# Generated by pormake.
# Topology uli, (4)-cn, num edge types: 1
# Building blocks:
#     Node 0, Type 0, BuildingBlock: TATPOV_clean_sbu_0, # of connection points: 4
#     Node 1, Type 0, BuildingBlock: TATPOV_clean_sbu_0, # of connection points: 4
#     Node 2, Type 0, BuildingBlock: TATPOV_clean_sbu_0, # of connection points: 4
#     Node 3, Type 0, BuildingBlock: TATPOV_clean_sbu_0, # of connection points: 4
#     Node 4, Type 0, BuildingBlock: TATPOV_clean_sbu_0, # of connection points: 4
#     Node 5, Type 0, BuildingBlock: TATPOV_clean_sbu_0, # of connection points: 4
#     Node 6, Type 0, BuildingBlock: TATPOV_clean_sbu_0, # of connection points: 4
#     Node 7, Type 0, BuildingBlock: TATPOV_clean_sbu_0, # of connection points: 4
#     Node 8, Type 0, BuildingBlock: TATPOV_clean_sbu_0, # of connection points: 4
#     Node 9, Type 0, BuildingBlock: TATPOV_clean_sbu_0, # of connection points: 4
#     Node 10, Type 0, BuildingBlock: TATPOV_clean_sbu_0, # of connection points: 4
#     Node 11, Type 0, BuildingBlock: TATPOV_clean_sbu_0, # of connection points: 4
#     Node 12, Type 0, BuildingBlock: TATPOV_clean_sbu_0, # of connection points: 4
#     Node 13, Type 0, BuildingBlock: TATPOV_clean_sbu_0, # of connection points: 4
#     Node 14, Type 0, BuildingBlock: TATPOV_clean_sbu_0, # of connection points: 4
#     Node 15, Type 0, BuildingBlock: TATPOV_clean_sbu_0, # of connection points: 4
#     Node 16, Type 0, BuildingBlock: TATPOV_clean_sbu_0, # of connection points: 4
#     Node 17, Type 0, BuildingBlock: TATPOV_clean_sbu_0, # of connection points: 4
#     Node 18, Type 0, BuildingBlock: TATPOV_clean_sbu_0, # of connection points: 4
#     Node 19, Type 0, BuildingBlock: TATPOV_clean_sbu_0, # of connection points: 4
#     Node 20, Type 0, BuildingBlock: TATPOV_clean_sbu_0, # of connection points: 4
#     Node 21, Type 0, BuildingBlock: TATPOV_clean_sbu_0, # of connection points: 4
#     Node 22, Type 0, BuildingBlock: TATPOV_clean_sbu_0, # of connection points: 4
#     Node 23, Type 0, BuildingBlock: TATPOV_clean_sbu_0, # of connection points: 4
#     Node 24, Type 0, BuildingBlock: TATPOV_clean_sbu_0, # of connection points: 4
#     Node 25, Type 0, BuildingBlock: TATPOV_clean_sbu_0, # of connection points: 4
#     Node 26, Type 0, BuildingBlock: TATPOV_clean_sbu_0, # of connection points: 4
#     Node 27, Type 0, BuildingBlock: TATPOV_clean_sbu_0, # of connection points: 4
#     Node 28, Type 0, BuildingBlock: TATPOV_clean_sbu_0, # of connection points: 4
#     Node 29, Type 0, BuildingBlock: TATPOV_clean_sbu_0, # of connection points: 4
#     Node 30, Type 0, BuildingBlock: TATPOV_clean_sbu_0, # of connection points: 4
#     Node 31, Type 0, BuildingBlock: TATPOV_clean_sbu_0, # of connection points: 4
#     Node 32, Type 0, BuildingBlock: TATPOV_clean_sbu_0, # of connection points: 4
#     Node 33, Type 0, BuildingBlock: TATPOV_clean_sbu_0, # of connection points: 4
#     Node 34, Type 0, BuildingBlock: TATPOV_clean_sbu_0, # of connection points: 4
#     Node 35, Type 0, BuildingBlock: TATPOV_clean_sbu_0, # of connection points: 4
#     Node 36, Type 0, BuildingBlock: TATPOV_clean_sbu_0, # of connection points: 4
#     Node 37, Type 0, BuildingBlock: TATPOV_clean_sbu_0, # of connection points: 4
#     Node 38, Type 0, BuildingBlock: TATPOV_clean_sbu_0, # of connection points: 4
#     Node 39, Type 0, BuildingBlock: TATPOV_clean_sbu_0, # of connection points: 4
#     Node 40, Type 0, BuildingBlock: TATPOV_clean_sbu_0, # of connection points: 4
#     Node 41, Type 0, BuildingBlock: TATPOV_clean_sbu_0, # of connection points: 4
#     Node 42, Type 0, BuildingBlock: TATPOV_clean_sbu_0, # of connection points: 4
#     Node 43, Type 0, BuildingBlock: TATPOV_clean_sbu_0, # of connection points: 4
#     Node 44, Type 0, BuildingBlock: TATPOV_clean_sbu_0, # of connection points: 4
#     Node 45, Type 0, BuildingBlock: TATPOV_clean_sbu_0, # of connection points: 4
#     Node 46, Type 0, BuildingBlock: TATPOV_clean_sbu_0, # of connection points: 4
#     Node 47, Type 0, BuildingBlock: TATPOV_clean_sbu_0, # of connection points: 4
#     Edge 48, Type (0, 0), BuildingBlock: AJUNOK_clean_linker_0, # of connection points: 2
#     Edge 49, Type (0, 0), BuildingBlock: AJUNOK_clean_linker_0, # of connection points: 2
#     Edge 50, Type (0, 0), BuildingBlock: AJUNOK_clean_linker_0, # of connection points: 2
#     Edge 51, Type (0, 0), BuildingBlock: AJUNOK_clean_linker_0, # of connection points: 2
#     Edge 52, Type (0, 0), BuildingBlock: AJUNOK_clean_linker_0, # of connection points: 2
#     Edge 53, Type (0, 0), BuildingBlock: AJUNOK_clean_linker_0, # of connection points: 2
#     Edge 54, Type (0, 0), BuildingBlock: AJUNOK_clean_linker_0, # of connection points: 2
#     Edge 55, Type (0, 0), BuildingBlock: AJUNOK_clean_linker_0, # of connection points: 2
#     Edge 56, Type (0, 0), BuildingBlock: AJUNOK_clean_linker_0, # of connection points: 2
#     Edge 57, Type (0, 0), BuildingBlock: AJUNOK_clean_linker_0, # of connection points: 2
#     Edge 58, Type (0, 0), BuildingBlock: AJUNOK_clean_linker_0, # of connection points: 2
#     Edge 59, Type (0, 0), BuildingBlock: AJUNOK_clean_linker_0, # of connection points: 2
#     Edge 60, Type (0, 0), BuildingBlock: AJUNOK_clean_linker_0, # of connection points: 2
#     Edge 61, Type (0, 0), BuildingBlock: AJUNOK_clean_linker_0, # of connection points: 2
#     Edge 62, Type (0, 0), BuildingBlock: AJUNOK_clean_linker_0, # of connection points: 2
#     Edge 63, Type (0, 0), BuildingBlock: AJUNOK_clean_linker_0, # of connection points: 2
#     Edge 64, Type (0, 0), BuildingBlock: AJUNOK_clean_linker_0, # of connection points: 2
#     Edge 65, Type (0, 0), BuildingBlock: AJUNOK_clean_linker_0, # of connection points: 2
#     Edge 66, Type (0, 0), BuildingBlock: AJUNOK_clean_linker_0, # of connection points: 2
#     Edge 67, Type (0, 0), BuildingBlock: AJUNOK_clean_linker_0, # of connection points: 2
#     Edge 68, Type (0, 0), BuildingBlock: AJUNOK_clean_linker_0, # of connection points: 2
#     Edge 69, Type (0, 0), BuildingBlock: AJUNOK_clean_linker_0, # of connection points: 2
#     Edge 70, Type (0, 0), BuildingBlock: AJUNOK_clean_linker_0, # of connection points: 2
#     Edge 71, Type (0, 0), BuildingBlock: AJUNOK_clean_linker_0, # of connection points: 2
#     Edge 72, Type (0, 0), BuildingBlock: AJUNOK_clean_linker_0, # of connection points: 2
#     Edge 73, Type (0, 0), BuildingBlock: AJUNOK_clean_linker_0, # of connection points: 2
#     Edge 74, Type (0, 0), BuildingBlock: AJUNOK_clean_linker_0, # of connection points: 2
#     Edge 75, Type (0, 0), BuildingBlock: AJUNOK_clean_linker_0, # of connection points: 2
#     Edge 76, Type (0, 0), BuildingBlock: AJUNOK_clean_linker_0, # of connection points: 2
#     Edge 77, Type (0, 0), BuildingBlock: AJUNOK_clean_linker_0, # of connection points: 2
#     Edge 78, Type (0, 0), BuildingBlock: AJUNOK_clean_linker_0, # of connection points: 2
#     Edge 79, Type (0, 0), BuildingBlock: AJUNOK_clean_linker_0, # of connection points: 2
#     Edge 80, Type (0, 0), BuildingBlock: AJUNOK_clean_linker_0, # of connection points: 2
#     Edge 81, Type (0, 0), BuildingBlock: AJUNOK_clean_linker_0, # of connection points: 2
#     Edge 82, Type (0, 0), BuildingBlock: AJUNOK_clean_linker_0, # of connection points: 2
#     Edge 83, Type (0, 0), BuildingBlock: AJUNOK_clean_linker_0, # of connection points: 2
#     Edge 84, Type (0, 0), BuildingBlock: AJUNOK_clean_linker_0, # of connection points: 2
#     Edge 85, Type (0, 0), BuildingBlock: AJUNOK_clean_linker_0, # of connection points: 2
#     Edge 86, Type (0, 0), BuildingBlock: AJUNOK_clean_linker_0, # of connection points: 2
#     Edge 87, Type (0, 0), BuildingBlock: AJUNOK_clean_linker_0, # of connection points: 2
#     Edge 88, Type (0, 0), BuildingBlock: AJUNOK_clean_linker_0, # of connection points: 2
#     Edge 89, Type (0, 0), BuildingBlock: AJUNOK_clean_linker_0, # of connection points: 2
#     Edge 90, Type (0, 0), BuildingBlock: AJUNOK_clean_linker_0, # of connection points: 2
#     Edge 91, Type (0, 0), BuildingBlock: AJUNOK_clean_linker_0, # of connection points: 2
#     Edge 92, Type (0, 0), BuildingBlock: AJUNOK_clean_linker_0, # of connection points: 2
#     Edge 93, Type (0, 0), BuildingBlock: AJUNOK_clean_linker_0, # of connection points: 2
#     Edge 94, Type (0, 0), BuildingBlock: AJUNOK_clean_linker_0, # of connection points: 2
#     Edge 95, Type (0, 0), BuildingBlock: AJUNOK_clean_linker_0, # of connection points: 2
#     Edge 96, Type (0, 0), BuildingBlock: AJUNOK_clean_linker_0, # of connection points: 2
#     Edge 97, Type (0, 0), BuildingBlock: AJUNOK_clean_linker_0, # of connection points: 2
#     Edge 98, Type (0, 0), BuildingBlock: AJUNOK_clean_linker_0, # of connection points: 2
#     Edge 99, Type (0, 0), BuildingBlock: AJUNOK_clean_linker_0, # of connection points: 2
#     Edge 100, Type (0, 0), BuildingBlock: AJUNOK_clean_linker_0, # of connection points: 2
#     Edge 101, Type (0, 0), BuildingBlock: AJUNOK_clean_linker_0, # of connection points: 2
#     Edge 102, Type (0, 0), BuildingBlock: AJUNOK_clean_linker_0, # of connection points: 2
#     Edge 103, Type (0, 0), BuildingBlock: AJUNOK_clean_linker_0, # of connection points: 2
#     Edge 104, Type (0, 0), BuildingBlock: AJUNOK_clean_linker_0, # of connection points: 2
#     Edge 105, Type (0, 0), BuildingBlock: AJUNOK_clean_linker_0, # of connection points: 2
#     Edge 106, Type (0, 0), BuildingBlock: AJUNOK_clean_linker_0, # of connection points: 2
#     Edge 107, Type (0, 0), BuildingBlock: AJUNOK_clean_linker_0, # of connection points: 2
#     Edge 108, Type (0, 0), BuildingBlock: AJUNOK_clean_linker_0, # of connection points: 2
#     Edge 109, Type (0, 0), BuildingBlock: AJUNOK_clean_linker_0, # of connection points: 2
#     Edge 110, Type (0, 0), BuildingBlock: AJUNOK_clean_linker_0, # of connection points: 2
#     Edge 111, Type (0, 0), BuildingBlock: AJUNOK_clean_linker_0, # of connection points: 2
#     Edge 112, Type (0, 0), BuildingBlock: AJUNOK_clean_linker_0, # of connection points: 2
#     Edge 113, Type (0, 0), BuildingBlock: AJUNOK_clean_linker_0, # of connection points: 2
#     Edge 114, Type (0, 0), BuildingBlock: AJUNOK_clean_linker_0, # of connection points: 2
#     Edge 115, Type (0, 0), BuildingBlock: AJUNOK_clean_linker_0, # of connection points: 2
#     Edge 116, Type (0, 0), BuildingBlock: AJUNOK_clean_linker_0, # of connection points: 2
#     Edge 117, Type (0, 0), BuildingBlock: AJUNOK_clean_linker_0, # of connection points: 2
#     Edge 118, Type (0, 0), BuildingBlock: AJUNOK_clean_linker_0, # of connection points: 2
#     Edge 119, Type (0, 0), BuildingBlock: AJUNOK_clean_linker_0, # of connection points: 2
#     Edge 120, Type (0, 0), BuildingBlock: AJUNOK_clean_linker_0, # of connection points: 2
#     Edge 121, Type (0, 0), BuildingBlock: AJUNOK_clean_linker_0, # of connection points: 2
#     Edge 122, Type (0, 0), BuildingBlock: AJUNOK_clean_linker_0, # of connection points: 2
#     Edge 123, Type (0, 0), BuildingBlock: AJUNOK_clean_linker_0, # of connection points: 2
#     Edge 124, Type (0, 0), BuildingBlock: AJUNOK_clean_linker_0, # of connection points: 2
#     Edge 125, Type (0, 0), BuildingBlock: AJUNOK_clean_linker_0, # of connection points: 2
#     Edge 126, Type (0, 0), BuildingBlock: AJUNOK_clean_linker_0, # of connection points: 2
#     Edge 127, Type (0, 0), BuildingBlock: AJUNOK_clean_linker_0, # of connection points: 2
#     Edge 128, Type (0, 0), BuildingBlock: AJUNOK_clean_linker_0, # of connection points: 2
#     Edge 129, Type (0, 0), BuildingBlock: AJUNOK_clean_linker_0, # of connection points: 2
#     Edge 130, Type (0, 0), BuildingBlock: AJUNOK_clean_linker_0, # of connection points: 2
#     Edge 131, Type (0, 0), BuildingBlock: AJUNOK_clean_linker_0, # of connection points: 2
#     Edge 132, Type (0, 0), BuildingBlock: AJUNOK_clean_linker_0, # of connection points: 2
#     Edge 133, Type (0, 0), BuildingBlock: AJUNOK_clean_linker_0, # of connection points: 2
#     Edge 134, Type (0, 0), BuildingBlock: AJUNOK_clean_linker_0, # of connection points: 2
#     Edge 135, Type (0, 0), BuildingBlock: AJUNOK_clean_linker_0, # of connection points: 2
#     Edge 136, Type (0, 0), BuildingBlock: AJUNOK_clean_linker_0, # of connection points: 2
#     Edge 137, Type (0, 0), BuildingBlock: AJUNOK_clean_linker_0, # of connection points: 2
#     Edge 138, Type (0, 0), BuildingBlock: AJUNOK_clean_linker_0, # of connection points: 2
#     Edge 139, Type (0, 0), BuildingBlock: AJUNOK_clean_linker_0, # of connection points: 2
#     Edge 140, Type (0, 0), BuildingBlock: AJUNOK_clean_linker_0, # of connection points: 2
#     Edge 141, Type (0, 0), BuildingBlock: AJUNOK_clean_linker_0, # of connection points: 2
#     Edge 142, Type (0, 0), BuildingBlock: AJUNOK_clean_linker_0, # of connection points: 2
#     Edge 143, Type (0, 0), BuildingBlock: AJUNOK_clean_linker_0, # of connection points: 2
# Relax obj value: 0.404
# Max RMSD: 0.198
# Mean RMSD: 0.198
data_MOF--net-uli--node1-TATPOV_clean_sbu_0--edge1-AJUNOK_clean_linker_0
_symmetry_space_group_name_H-M    P1
_symmetry_Int_Tables_number       1
_symmetry_cell_setting            triclinic
loop_
_symmetry_equiv_pos_as_xyz
'x, y, z'
_cell_length_a     49.97477
_cell_length_b     49.97483
_cell_length_c     49.989932
_cell_angle_alpha  89.998548
_cell_angle_beta   89.984053
_cell_angle_gamma 90.010048
loop_
_atom_site_label
_atom_site_type_symbol
_atom_site_fract_x
_atom_site_fract_y
_atom_site_fract_z
_atom_type_partial_charge
Zn0 Zn 0.14816 0.2579 0.194 0.0
Zn1 Zn 0.09806 0.26592 0.19839 0.0
O2 O 0.107 0.22864 0.21503 0.0
O3 O 0.1505 0.22277 0.21251 0.0
O4 O 0.05805 0.26487 0.20246 0.0
O5 O 0.15322 0.2933 0.2134 0.0
O6 O 0.11017 0.29688 0.22223 0.0
C7 C 0.12771 0.21444 0.21947 0.0
C8 C 0.12687 0.26972 0.14406 0.0
O9 O 0.10652 0.27561 0.15834 0.0
O10 O 0.14675 0.25821 0.15459 0.0
C11 C 0.04569 0.24443 0.19367 0.0
O12 O 0.05891 0.22679 0.17936 0.0
C13 C 0.13394 0.3058 0.22416 0.0
Zn14 Zn 0.7238 0.14093 0.23523 0.0
Zn15 Zn 0.72314 0.09557 0.22888 0.0
O16 O 0.75923 0.10423 0.24783 0.0
O17 O 0.76361 0.14442 0.23124 0.0
O18 O 0.72636 0.05559 0.22695 0.0
O19 O 0.70691 0.13845 0.27144 0.0
O20 O 0.68902 0.10394 0.25132 0.0
C21 C 0.77388 0.12437 0.24262 0.0
C22 C 0.70703 0.1316 0.18456 0.0
O23 O 0.72054 0.11059 0.18991 0.0
O24 O 0.70015 0.14676 0.20355 0.0
C25 C 0.74813 0.04722 0.21678 0.0
O26 O 0.76416 0.06465 0.20536 0.0
C27 C 0.68831 0.12143 0.26986 0.0
Zn28 Zn 0.87323 0.74596 0.27134 0.0
Zn29 Zn 0.90311 0.74938 0.23194 0.0
O30 O 0.90707 0.78164 0.25766 0.0
O31 O 0.88742 0.77454 0.29592 0.0
O32 O 0.93945 0.74896 0.21465 0.0
O33 O 0.87629 0.70691 0.2798 0.0
O34 O 0.89492 0.70941 0.24031 0.0
C35 C 0.90124 0.78969 0.28113 0.0
C36 C 0.84952 0.76159 0.21707 0.0
O37 O 0.87304 0.76006 0.20723 0.0
O38 O 0.84591 0.75688 0.24186 0.0
C39 C 0.9516 0.77062 0.20904 0.0
O40 O 0.93809 0.79317 0.20918 0.0
C41 C 0.88492 0.69528 0.25907 0.0
Zn42 Zn 0.2906 0.87353 0.2571 0.0
Zn43 Zn 0.27187 0.90603 0.2277 0.0
O44 O 0.24175 0.88675 0.25007 0.0
O45 O 0.26082 0.86197 0.28062 0.0
O46 O 0.259 0.94413 0.22214 0.0
O47 O 0.32305 0.8915 0.27228 0.0
O48 O 0.31316 0.90989 0.23409 0.0
C49 C 0.23972 0.87041 0.26962 0.0
C50 C 0.28499 0.86137 0.19709 0.0
O51 O 0.27266 0.88357 0.19436 0.0
O52 O 0.29399 0.85458 0.21999 0.0
C53 C 0.23445 0.95079 0.22141 0.0
O54 O 0.21619 0.93187 0.22123 0.0
C55 C 0.33063 0.90428 0.25184 0.0
Zn56 Zn 0.15832 0.70733 0.83472 0.0
Zn57 Zn 0.09754 0.74163 0.80471 0.0
O58 O 0.13367 0.75991 0.79567 0.0
O59 O 0.17056 0.74002 0.81209 0.0
O60 O 0.06735 0.76038 0.78548 0.0
O61 O 0.12079 0.69417 0.82466 0.0
O62 O 0.09912 0.70398 0.78891 0.0
C63 C 0.15919 0.75861 0.79858 0.0
C64 C 0.11239 0.73585 0.85682 0.0
O65 O 0.09211 0.74562 0.84522 0.0
O66 O 0.11938 0.71279 0.8485 0.0
C67 C 0.06222 0.78526 0.78674 0.0
O68 O 0.07765 0.80085 0.80115 0.0
C69 C 0.11613 0.68906 0.80024 0.0
Zn70 Zn 0.28506 0.13732 0.74478 0.0
Zn71 Zn 0.26959 0.10012 0.77141 0.0
O72 O 0.23712 0.114 0.7486 0.0
O73 O 0.25254 0.1473 0.72466 0.0
O74 O 0.2593 0.06185 0.77763 0.0
O75 O 0.31509 0.12004 0.72493 0.0
O76 O 0.3105 0.0972 0.76161 0.0
C77 C 0.23329 0.13249 0.73144 0.0
C78 C 0.28223 0.14451 0.80456 0.0
O79 O 0.26972 0.12228 0.80518 0.0
O80 O 0.29126 0.15347 0.78249 0.0
C81 C 0.23664 0.0531 0.78518 0.0
O82 O 0.21811 0.06994 0.79316 0.0
C83 C 0.3253 0.10489 0.74227 0.0
Zn84 Zn 0.85749 0.2572 0.78888 0.0
Zn85 Zn 0.90348 0.26998 0.79802 0.0
O86 O 0.90356 0.22973 0.78716 0.0
O87 O 0.862 0.21764 0.79359 0.0
O88 O 0.94334 0.27516 0.79842 0.0
O89 O 0.85656 0.27425 0.75242 0.0
O90 O 0.88963 0.29729 0.76987 0.0
C91 C 0.88605 0.21135 0.78909 0.0
C92 C 0.86304 0.28499 0.83841 0.0
O93 O 0.88772 0.27913 0.83546 0.0
O94 O 0.84652 0.27974 0.81999 0.0
C95 C 0.9573 0.25735 0.8101 0.0
O96 O 0.94522 0.2402 0.82594 0.0
C97 C 0.87174 0.29448 0.75191 0.0
Zn98 Zn 0.73111 0.88397 0.74249 0.0
Zn99 Zn 0.73435 0.91426 0.77896 0.0
O100 O 0.7708 0.91017 0.75875 0.0
O101 O 0.76458 0.88895 0.72113 0.0
O102 O 0.73554 0.95296 0.7893 0.0
O103 O 0.69536 0.89113 0.72619 0.0
O104 O 0.69472 0.90628 0.76711 0.0
C105 C 0.78017 0.90105 0.73687 0.0
C106 C 0.7346 0.86447 0.80141 0.0
O107 O 0.73813 0.88845 0.80927 0.0
O108 O 0.73156 0.85941 0.77656 0.0
C109 C 0.75773 0.96274 0.79693 0.0
O110 O 0.77703 0.94635 0.80401 0.0
C111 C 0.68203 0.89807 0.7465 0.0
Zn112 Zn 0.1748 0.17494 0.30527 0.0
Zn113 Zn 0.19794 0.10867 0.2766 0.0
O114 O 0.20467 0.14049 0.25114 0.0
O115 O 0.19221 0.18044 0.26787 0.0
O116 O 0.21237 0.0744 0.2601 0.0
O117 O 0.18664 0.13991 0.32321 0.0
O118 O 0.22058 0.11702 0.3098 0.0
C119 C 0.20238 0.16603 0.24925 0.0
C120 C 0.14742 0.12653 0.28954 0.0
O121 O 0.15713 0.10507 0.28029 0.0
O122 O 0.16004 0.13637 0.30934 0.0
C123 C 0.19809 0.05899 0.24568 0.0
O124 O 0.17322 0.0658 0.24057 0.0
C125 C 0.21156 0.13537 0.32479 0.0
Zn126 Zn 0.85599 0.23422 0.29185 0.0
Zn127 Zn 0.89806 0.22167 0.27451 0.0
O128 O 0.87911 0.24536 0.2453 0.0
O129 O 0.83849 0.25057 0.26108 0.0
O130 O 0.93616 0.22234 0.26152 0.0
O131 O 0.86968 0.25922 0.31968 0.0
O132 O 0.89975 0.22805 0.31642 0.0
C133 C 0.85514 0.2537 0.24242 0.0
C134 C 0.86184 0.17732 0.28234 0.0
O135 O 0.88225 0.18486 0.26908 0.0
O136 O 0.8498 0.19397 0.29731 0.0
C137 C 0.94097 0.21748 0.237 0.0
O138 O 0.92127 0.20963 0.22148 0.0
C139 C 0.88812 0.24592 0.33044 0.0
Zn140 Zn 0.79451 0.83696 0.25363 0.0
Zn141 Zn 0.7863 0.8888 0.26306 0.0
O142 O 0.77451 0.88046 0.22434 0.0
O143 O 0.78246 0.83812 0.21547 0.0
O144 O 0.77782 0.92814 0.26291 0.0
O145 O 0.76976 0.829 0.28473 0.0
O146 O 0.76284 0.87193 0.29238 0.0
C147 C 0.77435 0.86088 0.2081 0.0
C148 C 0.84196 0.86553 0.27008 0.0
O149 O 0.82672 0.88582 0.27255 0.0
O150 O 0.83284 0.84345 0.26168 0.0
C151 C 0.78781 0.94086 0.24324 0.0
O152 O 0.80471 0.92832 0.2275 0.0
C153 C 0.75896 0.84743 0.2984 0.0
Zn154 Zn 0.14936 0.73291 0.27829 0.0
Zn155 Zn 0.11133 0.75891 0.26238 0.0
O156 O 0.12728 0.73764 0.23005 0.0
O157 O 0.16 0.71315 0.2457 0.0
O158 O 0.07345 0.76536 0.25045 0.0
O159 O 0.13285 0.71299 0.30868 0.0
O160 O 0.1068 0.74738 0.30253 0.0
C161 C 0.14619 0.72097 0.22608 0.0
C162 C 0.15553 0.79288 0.27598 0.0
O163 O 0.13281 0.79324 0.26439 0.0
O164 O 0.16516 0.77078 0.28425 0.0
C165 C 0.06573 0.77698 0.22918 0.0
O166 O 0.08337 0.78842 0.21341 0.0
C167 C 0.11541 0.7288 0.3178 0.0
Zn168 Zn 0.28445 0.86093 0.7399 0.0
Zn169 Zn 0.24617 0.89606 0.7412 0.0
O170 O 0.27445 0.90391 0.76998 0.0
O171 O 0.30989 0.87874 0.76606 0.0
O172 O 0.22688 0.93109 0.74205 0.0
O173 O 0.28874 0.8633 0.69979 0.0
O174 O 0.25332 0.8891 0.70124 0.0
C175 C 0.29762 0.89727 0.77818 0.0
C176 C 0.2302 0.84246 0.75883 0.0
O177 O 0.22226 0.86632 0.7546 0.0
O178 O 0.25455 0.83624 0.75461 0.0
C179 C 0.21859 0.94045 0.76419 0.0
O180 O 0.21669 0.92432 0.78485 0.0
C181 C 0.27034 0.87584 0.6877 0.0
Zn182 Zn 0.13907 0.25736 0.70633 0.0
Zn183 Zn 0.10173 0.23416 0.72545 0.0
O184 O 0.12036 0.25804 0.75455 0.0
O185 O 0.15426 0.27852 0.73604 0.0
O186 O 0.06444 0.23178 0.74038 0.0
O187 O 0.12007 0.27631 0.67674 0.0
O188 O 0.09642 0.24067 0.68415 0.0
C189 C 0.14056 0.27352 0.75663 0.0
C190 C 0.14347 0.19766 0.71345 0.0
O191 O 0.12188 0.19909 0.72698 0.0
O192 O 0.15269 0.21849 0.70205 0.0
C193 C 0.06056 0.22767 0.76518 0.0
O194 O 0.08089 0.22059 0.78023 0.0
C195 C 0.10391 0.25903 0.66809 0.0
Zn196 Zn 0.82376 0.15189 0.7068 0.0
Zn197 Zn 0.80299 0.11143 0.72791 0.0
O198 O 0.78611 0.13634 0.75414 0.0
O199 O 0.80636 0.17223 0.73852 0.0
O200 O 0.79034 0.07535 0.74024 0.0
O201 O 0.80519 0.15157 0.67198 0.0
O202 O 0.78399 0.11848 0.69145 0.0
C203 C 0.79099 0.16123 0.75555 0.0
C204 C 0.86394 0.12689 0.72991 0.0
O205 O 0.84316 0.11441 0.7379 0.0
O206 O 0.86208 0.14095 0.70901 0.0
C207 C 0.79433 0.06784 0.76421 0.0
O208 O 0.80842 0.0831 0.7803 0.0
C209 C 0.78638 0.13473 0.67187 0.0
Zn210 Zn 0.86616 0.79151 0.71382 0.0
Zn211 Zn 0.91086 0.80133 0.71697 0.0
O212 O 0.90086 0.78094 0.75204 0.0
O213 O 0.868 0.75755 0.73526 0.0
O214 O 0.95067 0.80494 0.72172 0.0
O215 O 0.86483 0.79056 0.67395 0.0
O216 O 0.90613 0.77877 0.68171 0.0
C217 C 0.88428 0.7617 0.75414 0.0
C218 C 0.87112 0.84442 0.72633 0.0
O219 O 0.89392 0.83967 0.71584 0.0
O220 O 0.85585 0.82517 0.73217 0.0
C221 C 0.95985 0.81698 0.74215 0.0
O222 O 0.94312 0.8297 0.75794 0.0
C223 C 0.88612 0.77968 0.66585 0.0
Zn224 Zn 0.2537 0.27571 0.12781 0.0
Zn225 Zn 0.24955 0.23422 0.0986 0.0
O226 O 0.21953 0.26177 0.09199 0.0
O227 O 0.22607 0.30037 0.11115 0.0
O228 O 0.24712 0.21295 0.0646 0.0
O229 O 0.29364 0.28032 0.12411 0.0
O230 O 0.2899 0.24102 0.10516 0.0
C231 C 0.21163 0.28555 0.09659 0.0
C232 C 0.23518 0.22365 0.15328 0.0
O233 O 0.2374 0.21271 0.13037 0.0
O234 O 0.24057 0.2484 0.15611 0.0
C235 C 0.22375 0.20797 0.05587 0.0
O236 O 0.20326 0.21123 0.07199 0.0
C237 C 0.30459 0.25925 0.11527 0.0
Zn238 Zn 0.25216 0.81784 0.83897 0.0
Zn239 Zn 0.26618 0.80747 0.88764 0.0
O240 O 0.2263 0.79671 0.88288 0.0
O241 O 0.21424 0.806 0.8417 0.0
O242 O 0.26941 0.80044 0.927 0.0
O243 O 0.28248 0.79266 0.8276 0.0
O244 O 0.29197 0.78177 0.86921 0.0
C245 C 0.20854 0.7972 0.86465 0.0
C246 C 0.27508 0.86317 0.86339 0.0
O247 O 0.28041 0.84618 0.88164 0.0
O248 O 0.26021 0.85651 0.84404 0.0
C249 C 0.25255 0.81226 0.94197 0.0
O250 O 0.23657 0.83021 0.93133 0.0
C251 C 0.2965 0.77954 0.84422 0.0
Zn252 Zn 0.26084 0.28518 0.87242 0.0
Zn253 Zn 0.22591 0.26709 0.90207 0.0
O254 O 0.25084 0.23747 0.88689 0.0
O255 O 0.28495 0.25407 0.86521 0.0
O256 O 0.21302 0.25186 0.93742 0.0
O257 O 0.27345 0.3168 0.89361 0.0
O258 O 0.23346 0.30771 0.90829 0.0
C259 C 0.27235 0.2339 0.87373 0.0
C260 C 0.20274 0.28125 0.85283 0.0
O261 O 0.19686 0.26941 0.87465 0.0
O262 O 0.22664 0.28929 0.8488 0.0
C263 C 0.21581 0.22706 0.94265 0.0
O264 O 0.22385 0.21064 0.92382 0.0
C265 C 0.25214 0.32474 0.90467 0.0
Zn266 Zn 0.73046 0.27261 0.87324 0.0
Zn267 Zn 0.73912 0.23287 0.90016 0.0
O268 O 0.76965 0.26101 0.90165 0.0
O269 O 0.75699 0.29993 0.88675 0.0
O270 O 0.74324 0.21488 0.93574 0.0
O271 O 0.6907 0.27652 0.87707 0.0
O272 O 0.69829 0.23646 0.89277 0.0
C273 C 0.77503 0.28547 0.89701 0.0
C274 C 0.75141 0.22139 0.84678 0.0
O275 O 0.751 0.21021 0.86969 0.0
O276 O 0.74411 0.2457 0.84439 0.0
C277 C 0.7667 0.20834 0.94295 0.0
O278 O 0.78594 0.20845 0.92508 0.0
C279 C 0.68183 0.25384 0.88395 0.0
Zn280 Zn 0.7684 0.71491 0.84011 0.0
Zn281 Zn 0.78708 0.72431 0.88324 0.0
O282 O 0.76352 0.75791 0.87269 0.0
O283 O 0.7496 0.74816 0.83224 0.0
O284 O 0.7921 0.7294 0.9232 0.0
O285 O 0.74637 0.68345 0.84786 0.0
O286 O 0.77443 0.68372 0.88147 0.0
C287 C 0.75077 0.76439 0.8515 0.0
C288 C 0.82613 0.72035 0.83937 0.0
O289 O 0.82292 0.72849 0.86336 0.0
O290 O 0.8063 0.71113 0.8265 0.0
C291 C 0.79424 0.75229 0.93412 0.0
O292 O 0.79624 0.7735 0.91872 0.0
C293 C 0.75683 0.6716 0.86746 0.0
Zn294 Zn 0.70135 0.81793 0.1508 0.0
Zn295 Zn 0.73979 0.79816 0.08948 0.0
O296 O 0.76159 0.7897 0.12358 0.0
O297 O 0.73803 0.80028 0.16053 0.0
O298 O 0.76017 0.78838 0.0558 0.0
O299 O 0.68886 0.80796 0.11297 0.0
O300 O 0.70632 0.77429 0.09268 0.0
C301 C 0.75897 0.79074 0.14915 0.0
C302 C 0.72272 0.84817 0.1074 0.0
O303 O 0.73604 0.83917 0.08788 0.0
O304 O 0.7017 0.83497 0.11297 0.0
C305 C 0.76172 0.76523 0.04536 0.0
O306 O 0.75036 0.74495 0.05766 0.0
C307 C 0.68878 0.78296 0.10881 0.0
Zn308 Zn 0.27416 0.71709 0.1267 0.0
Zn309 Zn 0.24542 0.73389 0.09157 0.0
O310 O 0.26513 0.7659 0.11004 0.0
O311 O 0.2936 0.74965 0.13893 0.0
O312 O 0.23918 0.74737 0.0543 0.0
O313 O 0.29346 0.68708 0.10832 0.0
O314 O 0.2568 0.69406 0.08591 0.0
C315 C 0.28289 0.76971 0.12795 0.0
C316 C 0.2137 0.71748 0.13504 0.0
O317 O 0.21158 0.73001 0.11294 0.0
O318 O 0.23664 0.70989 0.14321 0.0
C319 C 0.23375 0.77174 0.0495 0.0
O320 O 0.22857 0.78785 0.06959 0.0
C321 C 0.27579 0.67836 0.0925 0.0
Zn322 Zn 0.73051 0.26844 0.13381 0.0
Zn323 Zn 0.76442 0.25884 0.10095 0.0
O324 O 0.74119 0.22469 0.1082 0.0
O325 O 0.70792 0.23571 0.13427 0.0
O326 O 0.77706 0.25273 0.06339 0.0
O327 O 0.71485 0.303 0.12141 0.0
O328 O 0.75469 0.29973 0.104 0.0
C329 C 0.72004 0.21811 0.12083 0.0
C330 C 0.78946 0.26451 0.15041 0.0
O331 O 0.79486 0.25655 0.12684 0.0
O332 O 0.76541 0.27023 0.15671 0.0
C333 C 0.78207 0.22909 0.05539 0.0
O334 O 0.78213 0.20944 0.07283 0.0
C335 C 0.73524 0.3144 0.11179 0.0
Zn336 Zn 0.63153 0.76305 0.76874 0.0
Zn337 Zn 0.60272 0.75923 0.72855 0.0
O338 O 0.59941 0.72534 0.75271 0.0
O339 O 0.61894 0.73222 0.79111 0.0
O340 O 0.56769 0.7571 0.70896 0.0
O341 O 0.62354 0.80092 0.77909 0.0
O342 O 0.60587 0.79951 0.73918 0.0
C343 C 0.60573 0.71692 0.77593 0.0
C344 C 0.65804 0.75142 0.71523 0.0
O345 O 0.63468 0.75183 0.70494 0.0
O346 O 0.66084 0.75561 0.7402 0.0
C347 C 0.56011 0.73495 0.69908 0.0
O348 O 0.57789 0.71581 0.69619 0.0
C349 C 0.61385 0.81314 0.75922 0.0
Zn350 Zn 0.24865 0.6589 0.69843 0.0
Zn351 Zn 0.23707 0.6083 0.70717 0.0
O352 O 0.27673 0.61387 0.71801 0.0
O353 O 0.28699 0.65562 0.70877 0.0
O354 O 0.23409 0.56913 0.71556 0.0
O355 O 0.21948 0.66914 0.72459 0.0
O356 O 0.21001 0.62672 0.73215 0.0
C357 C 0.29376 0.63279 0.71712 0.0
C358 C 0.22851 0.63253 0.65181 0.0
O359 O 0.22569 0.61236 0.66719 0.0
O360 O 0.23871 0.654 0.66047 0.0
C361 C 0.25114 0.55355 0.7049 0.0
O362 O 0.26753 0.56317 0.68672 0.0
C363 C 0.20552 0.65149 0.73629 0.0
Zn364 Zn 0.36032 0.21223 0.76062 0.0
Zn365 Zn 0.39609 0.23214 0.73587 0.0
O366 O 0.37784 0.26201 0.75913 0.0
O367 O 0.34503 0.24256 0.78059 0.0
O368 O 0.43329 0.2465 0.73106 0.0
O369 O 0.38052 0.184 0.78066 0.0
O370 O 0.40184 0.19111 0.74356 0.0
C371 C 0.35784 0.26354 0.77495 0.0
C372 C 0.35429 0.21677 0.70087 0.0
O373 O 0.37504 0.2316 0.70146 0.0
O374 O 0.34608 0.20559 0.72224 0.0
C375 C 0.44087 0.26698 0.71801 0.0
O376 O 0.42355 0.28052 0.70363 0.0
C377 C 0.39549 0.17514 0.76242 0.0
Zn378 Zn 0.79204 0.33211 0.65705 0.0
Zn379 Zn 0.76076 0.3906 0.69272 0.0
O380 O 0.74261 0.35419 0.70045 0.0
O381 O 0.76065 0.31833 0.68037 0.0
O382 O 0.74129 0.41891 0.71406 0.0
O383 O 0.80713 0.36915 0.66793 0.0
O384 O 0.79966 0.38811 0.70587 0.0
C385 C 0.7432 0.32893 0.69579 0.0
C386 C 0.76339 0.37951 0.63938 0.0
O387 O 0.7545 0.39889 0.65302 0.0
O388 O 0.78675 0.37171 0.64587 0.0
C389 C 0.71637 0.42266 0.71042 0.0
O390 O 0.70364 0.40766 0.69302 0.0
C391 C 0.81522 0.37408 0.69152 0.0
Zn392 Zn 0.65596 0.20797 0.34452 0.0
Zn393 Zn 0.59638 0.23893 0.31845 0.0
O394 O 0.62804 0.25725 0.30072 0.0
O395 O 0.66539 0.23828 0.31661 0.0
O396 O 0.56252 0.25357 0.30218 0.0
O397 O 0.6177 0.19124 0.34547 0.0
O398 O 0.59828 0.19899 0.30791 0.0
C399 C 0.65358 0.25548 0.30173 0.0
C400 C 0.61653 0.23786 0.37121 0.0
O401 O 0.59949 0.25103 0.35784 0.0
O402 O 0.61972 0.21376 0.36398 0.0
C403 C 0.55151 0.2756 0.30853 0.0
O404 O 0.56257 0.29064 0.32703 0.0
C405 C 0.60978 0.18225 0.32309 0.0
Zn406 Zn 0.7531 0.63822 0.22259 0.0
Zn407 Zn 0.75191 0.60331 0.26059 0.0
O408 O 0.72226 0.5964 0.23297 0.0
O409 O 0.72608 0.6214 0.19745 0.0
O410 O 0.751 0.56752 0.2786 0.0
O411 O 0.79289 0.63544 0.21685 0.0
O412 O 0.79193 0.61031 0.25277 0.0
C413 C 0.71375 0.6032 0.20997 0.0
C414 C 0.7357 0.65696 0.27743 0.0
O415 O 0.73929 0.63293 0.28524 0.0
O416 O 0.73985 0.66309 0.25305 0.0
C417 C 0.72918 0.55815 0.28776 0.0
O418 O 0.70893 0.57442 0.29169 0.0
C419 C 0.80525 0.62319 0.23525 0.0
Zn420 Zn 0.3654 0.79149 0.21688 0.0
Zn421 Zn 0.40123 0.77554 0.2452 0.0
O422 O 0.38488 0.74344 0.22384 0.0
O423 O 0.3559 0.75942 0.19532 0.0
O424 O 0.43912 0.76397 0.2518 0.0
O425 O 0.38146 0.82401 0.19979 0.0
O426 O 0.40429 0.81623 0.23603 0.0
C427 C 0.36765 0.73949 0.20546 0.0
C428 C 0.35625 0.78725 0.27701 0.0
O429 O 0.37928 0.77645 0.27879 0.0
O430 O 0.34771 0.79525 0.25435 0.0
C431 C 0.44509 0.73994 0.25754 0.0
O432 O 0.42578 0.72285 0.26261 0.0
C433 C 0.39659 0.83265 0.21809 0.0
Zn434 Zn 0.22094 0.36513 0.33507 0.0
Zn435 Zn 0.24 0.40161 0.30625 0.0
O436 O 0.26564 0.37455 0.29114 0.0
O437 O 0.25243 0.3432 0.3192 0.0
O438 O 0.24926 0.43689 0.28865 0.0
O439 O 0.18507 0.36123 0.31886 0.0
O440 O 0.20246 0.39071 0.29145 0.0
C441 C 0.26812 0.35109 0.30075 0.0
C442 C 0.24722 0.39437 0.36846 0.0
O443 O 0.25333 0.40358 0.34545 0.0
O444 O 0.22506 0.38248 0.37084 0.0
C445 C 0.26931 0.45097 0.29558 0.0
O446 O 0.2845 0.44277 0.31539 0.0
C447 C 0.18344 0.37479 0.29762 0.0
Zn448 Zn 0.70563 0.61532 0.76585 0.0
Zn449 Zn 0.68584 0.57323 0.76804 0.0
O450 O 0.70416 0.57581 0.7302 0.0
O451 O 0.70602 0.61935 0.72617 0.0
O452 O 0.67882 0.53368 0.76934 0.0
O453 O 0.73893 0.60581 0.7865 0.0
O454 O 0.70796 0.57988 0.80283 0.0
C455 C 0.70756 0.59647 0.71565 0.0
C456 C 0.65153 0.61857 0.78194 0.0
O457 O 0.65072 0.5956 0.77071 0.0
O458 O 0.67394 0.62966 0.78593 0.0
C459 C 0.67071 0.52205 0.74825 0.0
O460 O 0.6608 0.53673 0.72882 0.0
C461 C 0.73006 0.59222 0.80588 0.0
Zn462 Zn 0.34439 0.67751 0.79424 0.0
Zn463 Zn 0.40732 0.70003 0.75895 0.0
O464 O 0.373 0.70705 0.7372 0.0
O465 O 0.33474 0.69494 0.75756 0.0
O466 O 0.43921 0.71451 0.73874 0.0
O467 O 0.38139 0.68891 0.80793 0.0
O468 O 0.40331 0.72271 0.79291 0.0
C469 C 0.34739 0.70507 0.73768 0.0
C470 C 0.39079 0.64964 0.77357 0.0
O471 O 0.41123 0.65916 0.76208 0.0
O472 O 0.38322 0.66244 0.79424 0.0
C473 C 0.45182 0.70125 0.72105 0.0
O474 O 0.44363 0.67704 0.71496 0.0
C475 C 0.38603 0.71382 0.80914 0.0
Zn476 Zn 0.22708 0.36239 0.78741 0.0
Zn477 Zn 0.25685 0.39846 0.77519 0.0
O478 O 0.23739 0.38327 0.74137 0.0
O479 O 0.20618 0.35545 0.75421 0.0
O480 O 0.26318 0.43694 0.76528 0.0
O481 O 0.20893 0.37634 0.82013 0.0
O482 O 0.24536 0.39988 0.81556 0.0
C483 C 0.21829 0.36742 0.73557 0.0
C484 C 0.28763 0.35285 0.78565 0.0
O485 O 0.29046 0.37659 0.77678 0.0
O486 O 0.26436 0.34411 0.79146 0.0
C487 C 0.26721 0.44398 0.74118 0.0
O488 O 0.27126 0.42547 0.72297 0.0
C489 C 0.22638 0.39142 0.83041 0.0
Zn490 Zn 0.62688 0.21234 0.74918 0.0
Zn491 Zn 0.59755 0.25569 0.74907 0.0
O492 O 0.58623 0.2302 0.71894 0.0
O493 O 0.60617 0.19143 0.72094 0.0
O494 O 0.56532 0.27957 0.74963 0.0
O495 O 0.62331 0.20682 0.78928 0.0
O496 O 0.60283 0.24558 0.78857 0.0
C497 C 0.58976 0.20687 0.7094 0.0
C498 C 0.6532 0.26418 0.73264 0.0
O499 O 0.63075 0.27554 0.73694 0.0
O500 O 0.65566 0.2391 0.73622 0.0
C501 C 0.55442 0.28625 0.72764 0.0
O502 O 0.56846 0.28415 0.70552 0.0
C503 C 0.61315 0.22639 0.80179 0.0
Zn504 Zn 0.77026 0.36839 0.2412 0.0
Zn505 Zn 0.73188 0.39739 0.248 0.0
O506 O 0.75876 0.39851 0.27976 0.0
O507 O 0.79671 0.38005 0.26881 0.0
O508 O 0.71558 0.43395 0.25176 0.0
O509 O 0.77783 0.37402 0.20245 0.0
O510 O 0.73884 0.39331 0.20673 0.0
C511 C 0.78266 0.39217 0.28594 0.0
C512 C 0.71733 0.3434 0.25867 0.0
O513 O 0.70723 0.36683 0.25778 0.0
O514 O 0.74188 0.34011 0.25269 0.0
C515 C 0.71052 0.44419 0.27452 0.0
O516 O 0.71009 0.42874 0.29576 0.0
C517 C 0.75749 0.3844 0.1917 0.0
Zn518 Zn 0.6584 0.68841 0.24928 0.0
Zn519 Zn 0.60926 0.69917 0.23544 0.0
O520 O 0.61422 0.71024 0.27519 0.0
O521 O 0.65586 0.70217 0.28673 0.0
O522 O 0.57056 0.70891 0.23108 0.0
O523 O 0.67074 0.71123 0.21758 0.0
O524 O 0.62919 0.72228 0.20811 0.0
C525 C 0.63277 0.71054 0.29266 0.0
C526 C 0.63074 0.64253 0.22942 0.0
O527 O 0.61267 0.65954 0.22364 0.0
O528 O 0.65099 0.64969 0.24284 0.0
C529 C 0.55388 0.69929 0.24771 0.0
O530 O 0.56205 0.68117 0.26491 0.0
C531 C 0.65413 0.72364 0.20293 0.0
Zn532 Zn 0.24234 0.63193 0.19426 0.0
Zn533 Zn 0.27294 0.59921 0.21159 0.0
O534 O 0.24958 0.61559 0.24234 0.0
O535 O 0.21891 0.64139 0.22491 0.0
O536 O 0.2803 0.56155 0.22418 0.0
O537 O 0.22727 0.61371 0.16192 0.0
O538 O 0.26604 0.59586 0.17043 0.0
C539 C 0.22974 0.63137 0.24539 0.0
C540 C 0.30185 0.6457 0.19976 0.0
O541 O 0.30523 0.62326 0.21144 0.0
O542 O 0.27877 0.65208 0.19095 0.0
C543 C 0.28648 0.55614 0.24824 0.0
O544 O 0.29175 0.5759 0.26476 0.0
C545 C 0.24777 0.60155 0.15353 0.0
Zn546 Zn 0.36641 0.22179 0.24527 0.0
Zn547 Zn 0.40221 0.25926 0.24415 0.0
O548 O 0.40842 0.23219 0.27458 0.0
O549 O 0.38353 0.19646 0.27194 0.0
O550 O 0.43785 0.27781 0.24532 0.0
O551 O 0.36741 0.21629 0.20527 0.0
O552 O 0.39411 0.25116 0.20438 0.0
C553 C 0.40158 0.2095 0.28395 0.0
C554 C 0.34957 0.27694 0.26265 0.0
O555 O 0.37325 0.28436 0.25683 0.0
O556 O 0.34282 0.25252 0.25997 0.0
C557 C 0.44432 0.28919 0.26713 0.0
O558 O 0.4257 0.29299 0.2853 0.0
C559 C 0.37994 0.2339 0.19204 0.0
Zn560 Zn 0.79317 0.67347 0.64807 0.0
Zn561 Zn 0.77173 0.68671 0.60503 0.0
O562 O 0.74758 0.71012 0.6279 0.0
O563 O 0.76513 0.69759 0.66625 0.0
O564 O 0.75939 0.69346 0.56697 0.0
O565 O 0.82988 0.68627 0.64196 0.0
O566 O 0.81114 0.70192 0.60557 0.0
C567 C 0.74784 0.71101 0.65334 0.0
C568 C 0.76667 0.62989 0.63174 0.0
O569 O 0.75954 0.64781 0.61494 0.0
O570 O 0.78636 0.6345 0.64685 0.0
C571 C 0.7353 0.68976 0.55965 0.0
O572 O 0.71811 0.6802 0.5771 0.0
C573 C 0.83155 0.70004 0.62088 0.0
Zn574 Zn 0.77649 0.27926 0.37157 0.0
Zn575 Zn 0.77235 0.29639 0.41677 0.0
O576 O 0.73666 0.27786 0.40669 0.0
O577 O 0.73723 0.2755 0.36298 0.0
O578 O 0.76366 0.3009 0.45564 0.0
O579 O 0.79968 0.24809 0.38274 0.0
O580 O 0.80863 0.27612 0.41502 0.0
C581 C 0.72457 0.27364 0.38474 0.0
C582 C 0.78968 0.33512 0.37653 0.0
O583 O 0.77686 0.33316 0.39851 0.0
O584 O 0.7947 0.31427 0.36302 0.0
C585 C 0.74029 0.31007 0.45994 0.0
O586 O 0.72786 0.32237 0.44032 0.0
C587 C 0.81546 0.25604 0.40086 0.0
Zn588 Zn 0.66453 0.79505 0.34723 0.0
Zn589 Zn 0.69039 0.76 0.40909 0.0
O590 O 0.70116 0.7407 0.37399 0.0
O591 O 0.68707 0.76153 0.33658 0.0
O592 O 0.70685 0.74143 0.44134 0.0
O593 O 0.67259 0.80853 0.38519 0.0
O594 O 0.70775 0.79713 0.40706 0.0
C595 C 0.69947 0.74242 0.34838 0.0
C596 C 0.63875 0.7681 0.39134 0.0
O597 O 0.64937 0.75699 0.41147 0.0
O598 O 0.6484 0.79088 0.38534 0.0
C599 C 0.69424 0.72475 0.45587 0.0
O600 O 0.6697 0.7181 0.44917 0.0
C601 C 0.69706 0.81282 0.39031 0.0
Zn602 Zn 0.21675 0.75929 0.34984 0.0
Zn603 Zn 0.23824 0.73 0.3827 0.0
O604 O 0.26684 0.75485 0.36494 0.0
O605 O 0.24651 0.7828 0.33815 0.0
O606 O 0.25507 0.7194 0.41788 0.0
O607 O 0.18702 0.77447 0.37193 0.0
O608 O 0.19796 0.73722 0.39157 0.0
C609 C 0.26796 0.7741 0.34823 0.0
C610 C 0.22227 0.70041 0.33655 0.0
O611 O 0.23597 0.69833 0.35794 0.0
O612 O 0.21188 0.72284 0.33032 0.0
C613 C 0.26749 0.73777 0.43041 0.0
O614 O 0.26868 0.76171 0.41964 0.0
C615 C 0.18044 0.75517 0.38684 0.0
Zn616 Zn 0.32187 0.2645 0.35108 0.0
Zn617 Zn 0.31491 0.24873 0.40028 0.0
O618 O 0.30937 0.28992 0.39876 0.0
O619 O 0.31474 0.30328 0.35734 0.0
O620 O 0.30739 0.2438 0.43953 0.0
O621 O 0.29314 0.23774 0.33965 0.0
O622 O 0.2861 0.22619 0.38154 0.0
C623 C 0.30992 0.30869 0.38155 0.0
C624 C 0.36733 0.23645 0.37163 0.0
O625 O 0.35217 0.23201 0.3917 0.0
O626 O 0.35954 0.25169 0.35298 0.0
C627 C 0.31837 0.26014 0.45566 0.0
O628 O 0.33709 0.27623 0.44661 0.0
C629 C 0.28092 0.22347 0.35672 0.0
Zn630 Zn 0.21249 0.24114 0.63635 0.0
Zn631 Zn 0.22984 0.26822 0.5994 0.0
O632 O 0.2609 0.24534 0.61533 0.0
O633 O 0.24468 0.221 0.64789 0.0
O634 O 0.24428 0.27542 0.56245 0.0
O635 O 0.18346 0.22162 0.61707 0.0
O636 O 0.18954 0.25772 0.59351 0.0
C637 C 0.26437 0.22823 0.63388 0.0
C638 C 0.21484 0.30093 0.64397 0.0
O639 O 0.22817 0.30173 0.62223 0.0
O640 O 0.2055 0.27878 0.65242 0.0
C641 C 0.26918 0.27985 0.55948 0.0
O642 O 0.28401 0.28369 0.58082 0.0
C643 C 0.17427 0.23858 0.6008 0.0
Zn644 Zn 0.67236 0.24237 0.64504 0.0
Zn645 Zn 0.67696 0.23645 0.59445 0.0
O646 O 0.69238 0.27319 0.60601 0.0
O647 O 0.68985 0.27787 0.64954 0.0
O648 O 0.6827 0.24129 0.555 0.0
O649 O 0.69289 0.20721 0.64809 0.0
O650 O 0.70163 0.20583 0.60493 0.0
C651 C 0.69664 0.28691 0.627 0.0
C652 C 0.62278 0.22989 0.62244 0.0
O653 O 0.63732 0.22486 0.60203 0.0
O654 O 0.63293 0.24145 0.6425 0.0
C655 C 0.67638 0.26416 0.54575 0.0
O656 O 0.66094 0.27977 0.56021 0.0
C657 C 0.70401 0.19594 0.62825 0.0
Zn658 Zn 0.22794 0.75326 0.62395 0.0
Zn659 Zn 0.26654 0.74847 0.59221 0.0
O660 O 0.23923 0.71747 0.58841 0.0
O661 O 0.20222 0.72554 0.61003 0.0
O662 O 0.28487 0.74807 0.5564 0.0
O663 O 0.22142 0.79272 0.62035 0.0
O664 O 0.2597 0.78872 0.59952 0.0
C665 C 0.21575 0.71017 0.5952 0.0
C666 C 0.28194 0.73579 0.64598 0.0
O667 O 0.291 0.73726 0.62218 0.0
O668 O 0.25744 0.74114 0.6506 0.0
C669 C 0.28768 0.72636 0.54343 0.0
O670 O 0.28298 0.70357 0.55562 0.0
C671 C 0.24192 0.80355 0.61022 0.0
C672 C 0.98441 0.24223 0.23841 0.0
C673 C 0.96758 0.22373 0.22548 0.0
C674 C 0.00916 0.24952 0.22744 0.0
C675 C 0.01832 0.23827 0.20331 0.0
H676 H 0.97832 0.25145 0.25706 0.0
H677 H 0.02147 0.26364 0.23835 0.0
S678 S 0.98187 0.18893 0.16145 0.0
N679 N 0.96169 0.19452 0.18701 0.0
N680 N 0.00847 0.20784 0.16665 0.0
C681 C 0.0017 0.21976 0.19013 0.0
C682 C 0.97629 0.2126 0.20113 0.0
C683 C 0.75567 0.97891 0.24921 0.0
C684 C 0.77822 0.9681 0.23624 0.0
C685 C 0.74546 0.00405 0.2421 0.0
C686 C 0.7575 0.01953 0.22187 0.0
H687 H 0.74568 0.96784 0.26494 0.0
H688 H 0.72833 0.01163 0.25301 0.0
S689 S 0.81653 0.00014 0.18113 0.0
N690 N 0.81195 0.97472 0.20169 0.0
N691 N 0.79278 0.02188 0.18843 0.0
C692 C 0.77986 0.00885 0.20851 0.0
C693 C 0.79022 0.9832 0.21567 0.0
C694 C 0.02216 0.75289 0.22974 0.0
C695 C 0.03721 0.77516 0.22141 0.0
C696 C 0.99485 0.75083 0.22402 0.0
C697 C 0.98126 0.77124 0.21017 0.0
H698 H 0.0315 0.73694 0.24108 0.0
H699 H 0.98414 0.7336 0.23166 0.0
S700 S 0.01188 0.83292 0.18235 0.0
N701 N 0.037 0.81724 0.19704 0.0
N702 N 0.9853 0.81379 0.18688 0.0
C703 C 0.99624 0.79322 0.20089 0.0
C704 C 0.02429 0.79507 0.20633 0.0
C705 C 0.19909 0.98635 0.223 0.0
C706 C 0.22633 0.97932 0.22456 0.0
C707 C 0.19034 0.01236 0.22892 0.0
C708 C 0.2084 0.03245 0.23693 0.0
H709 H 0.1842 0.97149 0.21778 0.0
H710 H 0.16907 0.01644 0.22806 0.0
S711 S 0.28219 0.02533 0.24179 0.0
N712 N 0.27162 0.99535 0.23283 0.0
N713 N 0.25509 0.04406 0.24418 0.0
C714 C 0.23582 0.02605 0.23754 0.0
C715 C 0.24479 -0.00042 0.23127 0.0
C716 C 0.0013 0.78903 0.74167 0.0
C717 C 0.98773 0.81187 0.751 0.0
C718 C 0.02576 0.7811 0.75281 0.0
C719 C 0.03789 0.7959 0.77345 0.0
H720 H 0.99242 0.77637 0.72648 0.0
H721 H 0.03492 0.76284 0.74555 0.0
S722 S 0.01207 0.859 0.80295 0.0
N723 N 0.98924 0.85038 0.78069 0.0
N724 N 0.03547 0.83573 0.80135 0.0
C725 C 0.02534 0.81966 0.7819 0.0
C726 C 0.0002 0.82756 0.77077 0.0
C727 C 0.24133 0.01217 0.75752 0.0
C728 C 0.23 0.02477 0.77996 0.0
C729 C 0.23605 0.98535 0.75175 0.0
C730 C 0.21963 0.96976 0.76849 0.0
H731 H 0.25452 0.02311 0.74423 0.0
H732 H 0.24593 0.97656 0.73458 0.0
S733 S 0.18405 0.99361 0.82912 0.0
N734 N 0.20048 0.0202 0.8183 0.0
N735 N 0.1911 0.96924 0.80793 0.0
C736 C 0.20758 0.98226 0.79067 0.0
C737 C 0.2126 0.00989 0.79627 0.0
C738 C 0.01673 0.25165 0.7634 0.0
C739 C 0.03452 0.23496 0.77747 0.0
C740 C 0.99248 0.25993 0.77472 0.0
C741 C 0.98476 0.25155 0.80047 0.0
H742 H 0.02157 0.25859 0.74344 0.0
H743 H 0.97932 0.27232 0.76276 0.0
S744 S 0.02447 0.20856 0.84616 0.0
N745 N 0.04313 0.21109 0.81901 0.0
N746 N 0.99722 0.22624 0.84009 0.0
C747 C 0.00249 0.23517 0.81496 0.0
C748 C 0.02741 0.22698 0.80353 0.0
C749 C 0.79617 0.02809 0.79453 0.0
C750 C 0.7832 0.04221 0.77394 0.0
C751 C 0.78701 0.00289 0.8028 0.0
C752 C 0.76419 0.99113 0.7912 0.0
H753 H 0.81413 0.03611 0.80365 0.0
H754 H 0.79831 0.99223 0.81791 0.0
S755 S 0.72144 0.02141 0.73841 0.0
N756 N 0.74538 0.0436 0.74342 0.0
N757 N 0.72777 0.99657 0.75923 0.0
C758 C 0.7502 0.00577 0.77157 0.0
C759 C 0.75984 0.03119 0.76283 0.0
C760 C 0.19753 0.22197 0.01588 0.0
C761 C 0.21935 0.20772 0.02665 0.0
C762 C 0.19593 0.22741 0.98842 0.0
C763 C 0.21559 0.21804 0.97072 0.0
H764 H 0.18246 0.2305 0.0289 0.0
H765 H 0.17961 0.23966 0.9811 0.0
S766 S 0.27538 0.17775 0.98845 0.0
N767 N 0.2602 0.18314 0.01731 0.0
N768 N 0.25663 0.19238 0.96551 0.0
C769 C 0.23656 0.2023 0.98097 0.0
C770 C 0.23858 0.19737 0.009 0.0
C771 C 0.25736 0.77763 0.97763 0.0
C772 C 0.24823 0.80306 0.96982 0.0
C773 C 0.25192 0.76747 0.00315 0.0
C774 C 0.23742 0.78247 0.02209 0.0
H775 H 0.26846 0.76517 0.96379 0.0
H776 H 0.25954 0.7478 0.00813 0.0
S777 S 0.20931 0.85044 0.01179 0.0
N778 N 0.224 0.84315 0.98311 0.0
N779 N 0.21409 0.82419 0.03127 0.0
C780 C 0.2283 0.80803 0.01464 0.0
C781 C 0.23362 0.81829 0.98848 0.0
C782 C 0.77127 0.19207 0.99 0.0
C783 C 0.77376 0.21261 0.97109 0.0
C784 C 0.77562 0.19721 0.01727 0.0
C785 C 0.78224 0.22312 0.02639 0.0
H786 H 0.76526 0.1722 0.98377 0.0
H787 H 0.77255 0.18103 0.03137 0.0
S788 S 0.79259 0.28316 0.98395 0.0
N789 N 0.78421 0.25927 0.96275 0.0
N790 N 0.79271 0.26899 0.01378 0.0
C791 C 0.78578 0.24348 0.00732 0.0
C792 C 0.78139 0.23821 0.9797 0.0
C793 C 0.77972 0.73362 0.97844 0.0
C794 C 0.7898 0.75528 0.96345 0.0
C795 C 0.7717 0.73679 0.00516 0.0
C796 C 0.77347 0.76174 0.01815 0.0
H797 H 0.77696 0.71421 0.9692 0.0
H798 H 0.76322 0.71967 0.01539 0.0
S799 S 0.80186 0.82402 0.98898 0.0
N800 N 0.80352 0.80197 0.96446 0.0
N801 N 0.7886 0.80794 0.0146 0.0
C802 C 0.78497 0.78321 0.00387 0.0
C803 C 0.79307 0.77998 0.9766 0.0
C804 C 0.52302 0.70154 0.69488 0.0
C805 C 0.53109 0.72828 0.69871 0.0
C806 C 0.49682 0.69328 0.70061 0.0
C807 C 0.47768 0.71138 0.71053 0.0
H808 H 0.53739 0.68646 0.68889 0.0
H809 H 0.49207 0.67222 0.69869 0.0
S810 S 0.48693 0.78457 0.71899 0.0
N811 N 0.5165 0.77361 0.70917 0.0
N812 N 0.46742 0.75794 0.72018 0.0
C813 C 0.48479 0.73856 0.71228 0.0
C814 C 0.51142 0.74705 0.70625 0.0
C815 C 0.27282 0.48079 0.70773 0.0
C816 C 0.26381 0.47232 0.73302 0.0
C817 C 0.26844 0.50701 0.69876 0.0
C818 C 0.25448 0.5257 0.71453 0.0
H819 H 0.28338 0.46707 0.69469 0.0
H820 H 0.27592 0.51259 0.6792 0.0
S821 S 0.22673 0.51375 0.7824 0.0
N822 N 0.2404 0.48493 0.77386 0.0
N823 N 0.23192 0.53401 0.75686 0.0
C824 C 0.24531 0.51752 0.73986 0.0
C825 C 0.25009 0.49093 0.74916 0.0
C826 C 0.48249 0.27097 0.74486 0.0
C827 C 0.46891 0.276 0.72077 0.0
C828 C 0.50973 0.2766 0.74761 0.0
C829 C 0.52476 0.28697 0.72615 0.0
H830 H 0.4721 0.26197 0.76164 0.0
H831 H 0.51931 0.27125 0.7663 0.0
S832 S 0.49789 0.30656 0.65973 0.0
N833 N 0.47171 0.29445 0.67589 0.0
N834 N 0.52333 0.30446 0.68072 0.0
C835 C 0.51107 0.2936 0.70241 0.0
C836 C 0.48306 0.28825 0.6998 0.0
C837 C 0.68004 0.45702 0.71054 0.0
C838 C 0.70253 0.44564 0.72308 0.0
C839 C 0.66872 0.48091 0.71992 0.0
C840 C 0.67916 0.49414 0.74247 0.0
H841 H 0.6719 0.4482 0.69249 0.0
H842 H 0.65234 0.48963 0.70872 0.0
S843 S 0.73544 0.47028 0.78484 0.0
N844 N 0.73312 0.44777 0.76078 0.0
N845 N 0.71164 0.49237 0.7788 0.0
C846 C 0.70041 0.48184 0.75639 0.0
C847 C 0.71218 0.45771 0.74656 0.0
C848 C 0.49167 0.27412 0.26197 0.0
C849 C 0.47291 0.2906 0.27499 0.0
C850 C 0.51735 0.27026 0.27247 0.0
C851 C 0.5255 0.28298 0.29622 0.0
H852 H 0.48606 0.2628 0.24436 0.0
H853 H 0.53063 0.25649 0.26226 0.0
S854 S 0.48522 0.3311 0.33598 0.0
N855 N 0.46515 0.3219 0.31141 0.0
N856 N 0.51356 0.31485 0.33105 0.0
C857 C 0.50764 0.30104 0.3084 0.0
C858 C 0.48133 0.30479 0.2978 0.0
C859 C 0.7322 0.48712 0.26194 0.0
C860 C 0.71346 0.47345 0.27788 0.0
C861 C 0.73775 0.5142 0.2661 0.0
C862 C 0.7244 0.52897 0.28599 0.0
H863 H 0.74323 0.47666 0.24649 0.0
H864 H 0.75228 0.52374 0.25313 0.0
S865 S 0.673 0.50281 0.33266 0.0
N866 N 0.68154 0.47659 0.31441 0.0
N867 N 0.69115 0.52809 0.32147 0.0
C868 C 0.70528 0.51573 0.30183 0.0
C869 C 0.70007 0.48782 0.298 0.0
C870 C 0.50629 0.69514 0.26262 0.0
C871 C 0.52629 0.71 0.24949 0.0
C872 C 0.48023 0.70513 0.26542 0.0
C873 C 0.47321 0.73056 0.25558 0.0
H874 H 0.51073 0.6755 0.27066 0.0
H875 H 0.46549 0.69276 0.27541 0.0
S876 S 0.51851 0.7779 0.22037 0.0
N877 N 0.53746 0.75168 0.22696 0.0
N878 N 0.48866 0.7706 0.23245 0.0
C879 C 0.49314 0.7458 0.2427 0.0
C880 C 0.5196 0.73547 0.23956 0.0
C881 C 0.29439 0.52185 0.28395 0.0
C882 C 0.28404 0.52834 0.25858 0.0
C883 C 0.29012 0.49658 0.29542 0.0
C884 C 0.27494 0.4769 0.28219 0.0
H885 H 0.30558 0.53655 0.29529 0.0
H886 H 0.29816 0.49276 0.31517 0.0
S887 S 0.24461 0.48305 0.21469 0.0
N888 N 0.25896 0.51233 0.21998 0.0
N889 N 0.25066 0.4651 0.24172 0.0
C890 C 0.26502 0.48283 0.25653 0.0
C891 C 0.26967 0.50844 0.24467 0.0
C892 C 0.69985 0.69163 0.52421 0.0
C893 C 0.72619 0.69748 0.53233 0.0
C894 C 0.69004 0.69991 0.49926 0.0
C895 C 0.70605 0.71459 0.4813 0.0
H896 H 0.68646 0.68078 0.53735 0.0
H897 H 0.66948 0.69518 0.49432 0.0
S898 S 0.77698 0.7341 0.49218 0.0
N899 N 0.76853 0.71807 0.51979 0.0
N900 N 0.75009 0.73371 0.47302 0.0
C901 C 0.73267 0.72007 0.48885 0.0
C902 C 0.74272 0.71151 0.51427 0.0
C903 C 0.73271 0.27664 0.49641 0.0
C904 C 0.72456 0.30005 0.48303 0.0
C905 C 0.7165 0.2646 0.51586 0.0
C906 C 0.69159 0.27564 0.52301 0.0
H907 H 0.75151 0.26707 0.4914 0.0
H908 H 0.72386 0.24674 0.52568 0.0
S909 S 0.66114 0.33702 0.49436 0.0
N910 N 0.68995 0.33395 0.47848 0.0
N911 N 0.65963 0.31151 0.51529 0.0
C912 C 0.68329 0.29918 0.50999 0.0
C913 C 0.69972 0.31134 0.49 0.0
C914 C 0.2714 0.7094 0.47156 0.0
C915 C 0.27748 0.73334 0.45804 0.0
C916 C 0.27682 0.70644 0.49892 0.0
C917 C 0.28838 0.72736 0.51382 0.0
H918 H 0.26117 0.69327 0.46133 0.0
H919 H 0.27029 0.68824 0.50872 0.0
S920 S 0.31291 0.79202 0.48692 0.0
N921 N 0.29942 0.77681 0.46089 0.0
N922 N 0.30921 0.77126 0.51233 0.0
C923 C 0.29658 0.7505 0.50012 0.0
C924 C 0.29122 0.75348 0.47223 0.0
C925 C 0.26826 0.26199 0.51272 0.0
C926 C 0.28193 0.27608 0.53292 0.0
C927 C 0.28053 0.25617 0.48819 0.0
C928 C 0.30687 0.26448 0.48268 0.0
H929 H 0.24801 0.25498 0.51597 0.0
H930 H 0.26903 0.24546 0.47326 0.0
S931 S 0.35137 0.30219 0.52867 0.0
N932 N 0.32334 0.29825 0.54571 0.0
N933 N 0.34627 0.28758 0.49949 0.0
C934 C 0.32075 0.2787 0.50262 0.0
C935 C 0.30833 0.28443 0.52774 0.0
C936 C 0.14192 0.1442 0.24282 0.0
C937 C 0.13574 0.14585 0.2703 0.0
C938 C 0.13771 0.16611 0.2258 0.0
C939 C 0.12597 0.18976 0.23538 0.0
H940 H 0.15231 0.12692 0.23487 0.0
H941 H 0.14496 0.16505 0.20539 0.0
S942 S 0.10136 0.20221 0.30411 0.0
N943 N 0.1142 0.17177 0.30533 0.0
N944 N 0.10508 0.21241 0.2729 0.0
C945 C 0.11701 0.19056 0.26194 0.0
C946 C 0.12204 0.16863 0.27949 0.0
C947 C 0.84437 0.14834 0.24642 0.0
C948 C 0.84682 0.15333 0.27402 0.0
C949 C 0.82153 0.13577 0.23618 0.0
C950 C 0.80109 0.12694 0.2533 0.0
H951 H 0.85824 0.1573 0.23236 0.0
H952 H 0.81869 0.13524 0.21469 0.0
S953 S 0.80142 0.12889 0.32729 0.0
N954 N 0.82945 0.14407 0.31846 0.0
N955 N 0.78696 0.11936 0.29913 0.0
C956 C 0.80527 0.12806 0.281 0.0
C957 C 0.82819 0.14147 0.29143 0.0
C958 C 0.90533 0.83631 0.26456 0.0
C959 C 0.90158 0.81897 0.28653 0.0
C960 C 0.88923 0.85913 0.26165 0.0
C961 C 0.86933 0.86485 0.28066 0.0
H962 H 0.91697 0.82995 0.24742 0.0
H963 H 0.88863 0.86878 0.24225 0.0
S964 S 0.86387 0.83532 0.34818 0.0
N965 N 0.88573 0.81611 0.33248 0.0
N966 N 0.85584 0.85928 0.32686 0.0
C967 C 0.8718 0.85274 0.30585 0.0
C968 C 0.88777 0.82928 0.30878 0.0
C969 C 0.2132 0.83736 0.29606 0.0
C970 C 0.21399 0.85651 0.2754 0.0
C971 C 0.19295 0.81805 0.29723 0.0
C972 C 0.17241 0.81723 0.278 0.0
H973 H 0.22937 0.836 0.31042 0.0
H974 H 0.19426 0.80271 0.31251 0.0
S975 S 0.1622 0.86586 0.22289 0.0
N976 N 0.19013 0.87575 0.23751 0.0
N977 N 0.1519 0.83951 0.23996 0.0
C978 C 0.17127 0.83793 0.25898 0.0
C979 C 0.19208 0.85759 0.25765 0.0
C980 C 0.20436 0.77663 0.78666 0.0
C981 C 0.1764 0.78005 0.78714 0.0
C982 C 0.22141 0.79687 0.77747 0.0
C983 C 0.21132 0.82157 0.76846 0.0
H984 H 0.21335 0.75819 0.79365 0.0
H985 H 0.24275 0.79312 0.77777 0.0
S986 S 0.13957 0.84059 0.76462 0.0
N987 N 0.13931 0.80994 0.7769 0.0
N988 N 0.17139 0.84812 0.75995 0.0
C989 C 0.18338 0.82526 0.76852 0.0
C990 C 0.16593 0.80448 0.77769 0.0
C991 C 0.18572 0.14255 0.74257 0.0
C992 C 0.20606 0.14042 0.7232 0.0
C993 C 0.1633 0.15896 0.73815 0.0
C994 C 0.16066 0.17359 0.71423 0.0
H995 H 0.18844 0.1338 0.76222 0.0
H996 H 0.14949 0.16226 0.75453 0.0
S997 S 0.20465 0.16859 0.6547 0.0
N998 N 0.21942 0.14976 0.67747 0.0
N999 N 0.17727 0.18032 0.66901 0.0
C1000 C 0.17906 0.16868 0.69353 0.0
C1001 C 0.20182 0.15215 0.69806 0.0
C1002 C 0.90656 0.1791 0.75726 0.0
C1003 C 0.89207 0.18366 0.78092 0.0
C1004 C 0.90238 0.15564 0.74238 0.0
C1005 C 0.88304 0.13672 0.75055 0.0
H1006 H 0.91823 0.19506 0.74836 0.0
H1007 H 0.91065 0.15473 0.72236 0.0
S1008 S 0.85058 0.13426 0.81727 0.0
N1009 N 0.86542 0.16376 0.81627 0.0
N1010 N 0.8583 0.11933 0.78882 0.0
C1011 C 0.87408 0.13823 0.77726 0.0
C1012 C 0.87791 0.16222 0.79216 0.0
C1013 C 0.84387 0.87844 0.70445 0.0
C1014 C 0.85896 0.8711 0.72699 0.0
C1015 C 0.81934 0.89176 0.70735 0.0
C1016 C 0.80949 0.89852 0.73286 0.0
H1017 H 0.84892 0.87034 0.68498 0.0
H1018 H 0.80674 0.89404 0.68986 0.0
S1019 S 0.84585 0.8907 0.79711 0.0
N1020 N 0.8655 0.87649 0.77466 0.0
N1021 N 0.81999 0.90253 0.78029 0.0
C1022 C 0.82679 0.89553 0.75491 0.0
C1023 C 0.85152 0.88156 0.75191 0.0
C1024 C 0.21475 0.20759 0.22455 0.0
C1025 C 0.21111 0.17968 0.22438 0.0
C1026 C 0.22236 0.2214 0.20148 0.0
C1027 C 0.22667 0.208 0.17708 0.0
H1028 H 0.21178 0.21901 0.24271 0.0
H1029 H 0.22485 0.24289 0.20292 0.0
S1030 S 0.21935 0.13493 0.16562 0.0
N1031 N 0.21201 0.13902 0.19756 0.0
N1032 N 0.22648 0.16505 0.15409 0.0
C1033 C 0.22302 0.18005 0.17649 0.0
C1034 C 0.21528 0.1659 0.20014 0.0
C1035 C 0.83267 0.2491 0.17094 0.0
C1036 C 0.81051 0.2665 0.17111 0.0
C1037 C 0.84961 0.24715 0.19333 0.0
C1038 C 0.84483 0.26264 0.21635 0.0
H1039 H 0.83576 0.23551 0.15434 0.0
H1040 H 0.86491 0.23179 0.19352 0.0
S1041 S 0.79344 0.3152 0.22438 0.0
N1042 N 0.78772 0.30268 0.19438 0.0
N1043 N 0.81937 0.29869 0.23634 0.0
C1044 C 0.8246 0.282 0.21553 0.0
C1045 C 0.80743 0.284 0.19293 0.0
C1046 C 0.77747 0.85475 0.15887 0.0
C1047 C 0.76315 0.86409 0.18115 0.0
C1048 C 0.7652 0.85273 0.13374 0.0
C1049 C 0.73785 0.85883 0.13054 0.0
H1050 H 0.79784 0.84768 0.16118 0.0
H1051 H 0.77654 0.84391 0.11752 0.0
S1052 S 0.69324 0.88851 0.18184 0.0
N1053 N 0.72179 0.88343 0.19769 0.0
N1054 N 0.69822 0.8785 0.15074 0.0
C1055 C 0.72422 0.87064 0.15213 0.0
C1056 C 0.73695 0.87337 0.17748 0.0
C1057 C 0.17486 0.69451 0.19522 0.0
C1058 C 0.15614 0.71524 0.19872 0.0
C1059 C 0.19181 0.69395 0.17297 0.0
C1060 C 0.19059 0.714 0.15326 0.0
H1061 H 0.17796 0.6798 0.21082 0.0
H1062 H 0.20725 0.67874 0.17222 0.0
S1063 S 0.14124 0.7693 0.15 0.0
N1064 N 0.13435 0.75375 0.17833 0.0
N1065 N 0.16627 0.75258 0.13636 0.0
C1066 C 0.1698 0.73289 0.15477 0.0
C1067 C 0.1525 0.73351 0.17756 0.0
C1068 C 0.3228 0.88667 0.81975 0.0
C1069 C 0.30502 0.90391 0.80625 0.0
C1070 C 0.31717 0.87838 0.84603 0.0
C1071 C 0.29292 0.886 0.8582 0.0
H1072 H 0.33818 0.87602 0.80879 0.0
H1073 H 0.3282 0.86139 0.85378 0.0
S1074 S 0.25159 0.94396 0.83846 0.0
N1075 N 0.27163 0.93887 0.81263 0.0
N1076 N 0.26003 0.92146 0.86116 0.0
C1077 C 0.28071 0.90926 0.84845 0.0
C1078 C 0.28682 0.91844 0.82214 0.0
C1079 C 0.17461 0.297 0.78444 0.0
C1080 C 0.1514 0.2811 0.78325 0.0
C1081 C 0.19003 0.2984 0.80772 0.0
C1082 C 0.18294 0.28393 0.83085 0.0
H1083 H 0.18199 0.30707 0.76673 0.0
H1084 H 0.20847 0.30979 0.807 0.0
S1085 S 0.12077 0.24432 0.84012 0.0
N1086 N 0.11957 0.2544 0.8087 0.0
N1087 N 0.14872 0.25686 0.85249 0.0
C1088 C 0.15828 0.27033 0.83089 0.0
C1089 C 0.14245 0.26898 0.80708 0.0
C1090 C 0.77539 0.16435 0.80275 0.0
C1091 C 0.77996 0.17689 0.77799 0.0
C1092 C 0.76611 0.17886 0.82483 0.0
C1093 C 0.76071 0.20642 0.82291 0.0
H1094 H 0.77958 0.14322 0.80529 0.0
H1095 H 0.76325 0.16833 0.84356 0.0
S1096 S 0.76799 0.24828 0.76178 0.0
N1097 N 0.77761 0.21812 0.75237 0.0
N1098 N 0.75979 0.2455 0.79364 0.0
C1099 C 0.76468 0.21909 0.79798 0.0
C1100 C 0.77444 0.20431 0.77559 0.0
C1101 C 0.85573 0.71084 0.80086 0.0
C1102 C 0.85056 0.72637 0.82378 0.0
C1103 C 0.86986 0.72143 0.77916 0.0
C1104 C 0.87967 0.74776 0.77978 0.0
H1105 H 0.84628 0.69147 0.79847 0.0
H1106 H 0.8709 0.70984 0.76086 0.0
S1107 S 0.87706 0.79431 0.83744 0.0
N1108 N 0.86051 0.76757 0.84767 0.0
N1109 N 0.88758 0.78734 0.80689 0.0
C1110 C 0.8781 0.76203 0.80398 0.0
C1111 C 0.86344 0.75129 0.8261 0.0
C1112 C 0.1409 0.26593 0.09761 0.0
C1113 C 0.13235 0.28288 0.11833 0.0
C1114 C 0.16569 0.27025 0.08512 0.0
C1115 C 0.18251 0.29133 0.09355 0.0
H1116 H 0.13118 0.24676 0.09473 0.0
H1117 H 0.17341 0.25454 0.07241 0.0
S1118 S 0.16133 0.3488 0.13529 0.0
N1119 N 0.13633 0.32726 0.13747 0.0
N1120 N 0.18339 0.33513 0.11481 0.0
C1121 C 0.17053 0.31206 0.10834 0.0
C1122 C 0.14495 0.30792 0.12042 0.0
C1123 C 0.1809 0.75856 0.87929 0.0
C1124 C 0.18229 0.78462 0.86894 0.0
C1125 C 0.15722 0.74364 0.87739 0.0
C1126 C 0.13418 0.75433 0.86515 0.0
H1127 H 0.19871 0.74891 0.88703 0.0
H1128 H 0.15751 0.72297 0.88391 0.0
S1129 S 0.12614 0.82449 0.8418 0.0
N1130 N 0.1579 0.82228 0.85056 0.0
N1131 N 0.11299 0.79479 0.84792 0.0
C1132 C 0.13455 0.78161 0.85788 0.0
C1133 C 0.15882 0.79656 0.85934 0.0
C1134 C 0.25823 0.18755 0.86142 0.0
C1135 C 0.27869 0.20694 0.86308 0.0
C1136 C 0.26057 0.16546 0.84425 0.0
C1137 C 0.28341 0.16211 0.82824 0.0
H1138 H 0.23932 0.19058 0.87155 0.0
H1139 H 0.24346 0.15238 0.84177 0.0
S1140 S 0.34553 0.20251 0.83133 0.0
N1141 N 0.32468 0.21795 0.85177 0.0
N1142 N 0.32896 0.17656 0.8193 0.0
C1143 C 0.30521 0.17943 0.83221 0.0
C1144 C 0.30289 0.20181 0.84976 0.0
C1145 C 0.80991 0.31551 0.87791 0.0
C1146 C 0.80363 0.29354 0.89442 0.0
C1147 C 0.83346 0.31563 0.86268 0.0
C1148 C 0.85153 0.29409 0.86388 0.0
H1149 H 0.79499 0.33063 0.8736 0.0
H1150 H 0.83548 0.33053 0.84704 0.0
S1151 S 0.84987 0.23813 0.91215 0.0
N1152 N 0.82165 0.25449 0.9174 0.0
N1153 N 0.86574 0.25488 0.88851 0.0
C1154 C 0.84834 0.27538 0.88444 0.0
C1155 C 0.82431 0.27508 0.89989 0.0
C1156 C 0.75367 0.83876 0.84012 0.0
C1157 C 0.73389 0.84182 0.82034 0.0
C1158 C 0.75724 0.814 0.85313 0.0
C1159 C 0.74103 0.79185 0.84668 0.0
H1160 H 0.76786 0.85471 0.84386 0.0
H1161 H 0.77431 0.81151 0.86626 0.0
S1162 S 0.68298 0.79165 0.8006 0.0
N1163 N 0.69531 0.8222 0.79822 0.0
N1164 N 0.70189 0.776 0.82267 0.0
C1165 C 0.71936 0.7958 0.82925 0.0
C1166 C 0.71586 0.82072 0.816 0.0
C1167 C 0.80781 0.78115 0.15622 0.0
C1168 C 0.78155 0.78203 0.16641 0.0
C1169 C 0.82964 0.77454 0.17265 0.0
C1170 C 0.8261 0.76845 0.19993 0.0
H1171 H 0.81167 0.78614 0.1355 0.0
H1172 H 0.84946 0.77441 0.16386 0.0
S1173 S 0.761 0.7664 0.23611 0.0
N1174 N 0.75309 0.77509 0.20528 0.0
N1175 N 0.79382 0.76289 0.23613 0.0
C1176 C 0.79979 0.76883 0.21025 0.0
C1177 C 0.77764 0.77553 0.19352 0.0
C1178 C 0.30736 0.80004 0.1591 0.0
C1179 C 0.28711 0.79667 0.13985 0.0
C1180 C 0.30756 0.82215 0.17626 0.0
C1181 C 0.28763 0.842 0.17477 0.0
H1182 H 0.32227 0.78462 0.16211 0.0
H1183 H 0.3227 0.82293 0.19175 0.0
S1184 S 0.2328 0.84522 0.12491 0.0
N1185 N 0.24858 0.81702 0.11802 0.0
N1186 N 0.24913 0.85873 0.15025 0.0
C1187 C 0.26882 0.84035 0.15394 0.0
C1188 C 0.26853 0.81766 0.13646 0.0
C1189 C 0.68427 0.16051 0.15186 0.0
C1190 C 0.70583 0.14331 0.15751 0.0
C1191 C 0.68792 0.18338 0.13612 0.0
C1192 C 0.71318 0.1896 0.12539 0.0
H1193 H 0.6656 0.15837 0.16269 0.0
H1194 H 0.67176 0.1978 0.13509 0.0
S1195 S 0.77323 0.14596 0.12687 0.0
N1196 N 0.75105 0.13018 0.14561 0.0
N1197 N 0.75795 0.17302 0.11565 0.0
C1198 C 0.7333 0.16989 0.12667 0.0
C1199 C 0.72956 0.14659 0.14283 0.0
C1200 C 0.62767 0.65302 0.8078 0.0
C1201 C 0.62776 0.63569 0.78562 0.0
C1202 C 0.61634 0.6786 0.80607 0.0
C1203 C 0.6049 0.68773 0.782 0.0
H1204 H 0.63951 0.64821 0.82532 0.0
H1205 H 0.61962 0.6923 0.82255 0.0
S1206 S 0.59172 0.64618 0.72182 0.0
N1207 N 0.60935 0.62652 0.74169 0.0
N1208 N 0.5875 0.67443 0.73844 0.0
C1209 C 0.60036 0.66866 0.76166 0.0
C1210 C 0.61199 0.64256 0.76348 0.0
C1211 C 0.32286 0.62232 0.75583 0.0
C1212 C 0.32048 0.62951 0.72882 0.0
C1213 C 0.34689 0.6265 0.76963 0.0
C1214 C 0.36929 0.63786 0.75681 0.0
H1215 H 0.30547 0.61561 0.76692 0.0
H1216 H 0.34729 0.62278 0.79098 0.0
S1217 S 0.37462 0.65342 0.68432 0.0
N1218 N 0.34321 0.64406 0.68853 0.0
N1219 N 0.38885 0.65093 0.71403 0.0
C1220 C 0.36801 0.6418 0.7289 0.0
C1221 C 0.34335 0.63806 0.71504 0.0
C1222 C 0.32595 0.29016 0.8023 0.0
C1223 C 0.3461 0.28969 0.78264 0.0
C1224 C 0.30843 0.31184 0.80455 0.0
C1225 C 0.31046 0.33404 0.78737 0.0
H1226 H 0.32238 0.27281 0.81482 0.0
H1227 H 0.29217 0.31045 0.81884 0.0
S1228 S 0.36284 0.34501 0.73596 0.0
N1229 N 0.3695 0.31507 0.74825 0.0
N1230 N 0.33653 0.35601 0.75266 0.0
C1231 C 0.33227 0.3352 0.76963 0.0
C1232 C 0.35016 0.31296 0.76725 0.0
C1233 C 0.67647 0.30817 0.72607 0.0
C1234 C 0.67668 0.28012 0.72372 0.0
C1235 C 0.69835 0.32366 0.71776 0.0
C1236 C 0.72133 0.31179 0.70653 0.0
H1237 H 0.65924 0.31835 0.73441 0.0
H1238 H 0.69692 0.3452 0.71968 0.0
S1239 S 0.73189 0.23894 0.69561 0.0
N1240 N 0.70189 0.24102 0.70922 0.0
N1241 N 0.7429 0.27 0.69364 0.0
C1242 C 0.72191 0.28367 0.70427 0.0
C1243 C 0.69965 0.2679 0.71284 0.0
C1244 C 0.67332 0.32227 0.27085 0.0
C1245 C 0.70121 0.31998 0.26767 0.0
C1246 C 0.65798 0.3009 0.28072 0.0
C1247 C 0.66985 0.2764 0.28811 0.0
H1248 H 0.66327 0.34082 0.26604 0.0
H1249 H 0.63666 0.30404 0.28341 0.0
S1250 S 0.74198 0.25945 0.28243 0.0
N1251 N 0.73995 0.2906 0.2717 0.0
N1252 N 0.71113 0.25074 0.29037 0.0
C1253 C 0.69763 0.27357 0.28438 0.0
C1254 C 0.71323 0.29525 0.27413 0.0
C1255 C 0.67264 0.61342 0.18386 0.0
C1256 C 0.68542 0.59716 0.20302 0.0
C1257 C 0.64666 0.62308 0.18866 0.0
C1258 C 0.63429 0.61806 0.21347 0.0
H1259 H 0.68403 0.62235 0.16772 0.0
H1260 H 0.63956 0.63938 0.17624 0.0
S1261 S 0.65162 0.56286 0.2594 0.0
N1262 N 0.67759 0.56522 0.23905 0.0
N1263 N 0.62986 0.58554 0.24911 0.0
C1264 C 0.64304 0.59546 0.22752 0.0
C1265 C 0.66894 0.58475 0.22224 0.0
C1266 C 0.32157 0.68624 0.17853 0.0
C1267 C 0.32361 0.6658 0.1978 0.0
C1268 C 0.33801 0.70887 0.17953 0.0
C1269 C 0.35701 0.71222 0.20002 0.0
H1270 H 0.30613 0.68547 0.16334 0.0
H1271 H 0.33451 0.72468 0.16514 0.0
S1272 S 0.3734 0.66235 0.25267 0.0
N1273 N 0.34857 0.64857 0.23579 0.0
N1274 N 0.37942 0.69128 0.2379 0.0
C1275 C 0.36107 0.69072 0.21786 0.0
C1276 C 0.34434 0.66748 0.21672 0.0
C1277 C 0.3067 0.28735 0.28617 0.0
C1278 C 0.32955 0.29652 0.27248 0.0
C1279 C 0.2871 0.30515 0.2953 0.0
C1280 C 0.2893 0.33286 0.2908 0.0
H1281 H 0.30392 0.2662 0.29001 0.0
H1282 H 0.26994 0.29703 0.30578 0.0
S1283 S 0.34541 0.36728 0.25632 0.0
N1284 N 0.35346 0.33526 0.25521 0.0
N1285 N 0.31645 0.36873 0.27215 0.0
C1286 C 0.31208 0.34236 0.27722 0.0
C1287 C 0.33225 0.32422 0.26817 0.0
C1288 C 0.74102 0.58218 0.68176 0.0
C1289 C 0.71657 0.59467 0.68765 0.0
C1290 C 0.7559 0.58996 0.6592 0.0
C1291 C 0.74673 0.61053 0.64215 0.0
H1292 H 0.75027 0.56902 0.69629 0.0
H1293 H 0.77625 0.5827 0.65738 0.0
S1294 S 0.67977 0.6425 0.64472 0.0
N1295 N 0.68089 0.62334 0.67162 0.0
N1296 N 0.70835 0.63749 0.62893 0.0
C1297 C 0.72006 0.61911 0.64521 0.0
C1298 C 0.70518 0.61154 0.66834 0.0
C1299 C 0.30354 0.7148 0.71566 0.0
C1300 C 0.33164 0.71391 0.71402 0.0
C1301 C 0.28786 0.72175 0.69356 0.0
C1302 C 0.2995 0.72816 0.66872 0.0
H1303 H 0.29337 0.70988 0.73415 0.0
H1304 H 0.26632 0.72185 0.69603 0.0
S1305 S 0.37227 0.73017 0.65387 0.0
N1306 N 0.37058 0.72109 0.68556 0.0
N1307 N 0.341 0.73395 0.64394 0.0
C1308 C 0.3276 0.72772 0.66677 0.0
C1309 C 0.34366 0.72077 0.68942 0.0
C1310 C 0.23683 0.35581 0.69064 0.0
C1311 C 0.21449 0.35808 0.70773 0.0
C1312 C 0.23605 0.33922 0.66795 0.0
C1313 C 0.21292 0.32447 0.66173 0.0
H1314 H 0.25576 0.36486 0.69611 0.0
H1315 H 0.25433 0.33606 0.65674 0.0
S1316 S 0.14714 0.3298 0.69552 0.0
N1317 N 0.1672 0.34877 0.71363 0.0
N1318 N 0.16574 0.31754 0.67109 0.0
C1319 C 0.18964 0.32917 0.67677 0.0
C1320 C 0.19042 0.34604 0.69975 0.0
C1321 C 0.57777 0.22952 0.64056 0.0
C1322 C 0.59824 0.21466 0.62824 0.0
C1323 C 0.56992 0.2235 0.66687 0.0
C1324 C 0.58218 0.20226 0.68092 0.0
H1325 H 0.57224 0.24886 0.63247 0.0
H1326 H 0.55787 0.23809 0.67744 0.0
S1327 S 0.62256 0.14832 0.65 0.0
N1328 N 0.6195 0.17112 0.62626 0.0
N1329 N 0.6054 0.15974 0.67585 0.0
C1330 C 0.59575 0.18297 0.66555 0.0
C1331 C 0.60317 0.189 0.63861 0.0
C1332 C 0.76971 0.39188 0.33409 0.0
C1333 C 0.79018 0.39048 0.31465 0.0
C1334 C 0.77149 0.37712 0.35792 0.0
C1335 C 0.79387 0.3609 0.3629 0.0
H1336 H 0.75072 0.40121 0.3294 0.0
H1337 H 0.75379 0.37536 0.37032 0.0
S1338 S 0.85689 0.35942 0.32399 0.0
N1339 N 0.83664 0.37855 0.30621 0.0
N1340 N 0.83977 0.35072 0.35088 0.0
C1341 C 0.81642 0.36393 0.34644 0.0
C1342 C 0.81466 0.37888 0.32224 0.0
C1343 C 0.63967 0.71078 0.34201 0.0
C1344 C 0.62828 0.72259 0.31919 0.0
C1345 C 0.64035 0.72443 0.36652 0.0
C1346 C 0.63063 0.75082 0.36863 0.0
H1347 H 0.6493 0.6914 0.34059 0.0
H1348 H 0.65072 0.71512 0.38311 0.0
S1349 S 0.59495 0.7887 0.31577 0.0
N1350 N 0.60361 0.76036 0.30114 0.0
N1351 N 0.6058 0.78652 0.3469 0.0
C1352 C 0.61703 0.76176 0.34656 0.0
C1353 C 0.61575 0.74758 0.32183 0.0
C1354 C 0.20167 0.67949 0.2962 0.0
C1355 C 0.22038 0.67795 0.31718 0.0
C1356 C 0.20307 0.66223 0.27421 0.0
C1357 C 0.2234 0.64284 0.27212 0.0
H1358 H 0.1867 0.69515 0.29596 0.0
H1359 H 0.18922 0.66543 0.25788 0.0
S1360 S 0.27378 0.62684 0.32438 0.0
N1361 N 0.25712 0.65262 0.33661 0.0
N1362 N 0.25988 0.6202 0.29517 0.0
C1363 C 0.24039 0.63914 0.29434 0.0
C1364 C 0.23888 0.65673 0.31687 0.0
C1365 C 0.38079 0.19411 0.35275 0.0
C1366 C 0.38933 0.21825 0.36448 0.0
C1367 C 0.38918 0.18729 0.32679 0.0
C1368 C 0.40703 0.20403 0.31274 0.0
H1369 H 0.36351 0.18377 0.36084 0.0
H1370 H 0.37831 0.17168 0.3164 0.0
S1371 S 0.44723 0.2587 0.34263 0.0
N1372 N 0.42482 0.25121 0.36576 0.0
N1373 N 0.442 0.23763 0.3177 0.0
C1374 C 0.42155 0.22287 0.32787 0.0
C1375 C 0.41248 0.23007 0.35395 0.0
C1376 C 0.7006 0.72736 0.65674 0.0
C1377 C 0.72627 0.72506 0.66809 0.0
C1378 C 0.67881 0.73676 0.6718 0.0
C1379 C 0.68188 0.74444 0.69875 0.0
H1380 H 0.69699 0.72065 0.63645 0.0
H1381 H 0.65927 0.73717 0.66244 0.0
S1382 S 0.74596 0.74561 0.73663 0.0
N1383 N 0.7541 0.73349 0.70702 0.0
N1384 N 0.7135 0.75152 0.73524 0.0
C1385 C 0.70786 0.74367 0.70981 0.0
C1386 C 0.72994 0.73389 0.69452 0.0
C1387 C 0.67848 0.28055 0.36698 0.0
C1388 C 0.6958 0.26726 0.38471 0.0
C1389 C 0.65141 0.27332 0.36511 0.0
C1390 C 0.64121 0.25165 0.37995 0.0
H1391 H 0.68605 0.2962 0.35401 0.0
H1392 H 0.63908 0.28331 0.35036 0.0
S1393 S 0.67765 0.21287 0.43161 0.0
N1394 N 0.70015 0.23407 0.41989 0.0
N1395 N 0.64975 0.21911 0.415 0.0
C1396 C 0.65795 0.23952 0.39901 0.0
C1397 C 0.6852 0.24755 0.40162 0.0
C1398 C 0.72382 0.70466 0.28716 0.0
C1399 C 0.7271 0.67823 0.29646 0.0
C1400 C 0.71556 0.72526 0.30424 0.0
C1401 C 0.71031 0.72049 0.33148 0.0
H1402 H 0.72746 0.70959 0.26637 0.0
H1403 H 0.7131 0.74512 0.2959 0.0
S1404 S 0.71562 0.65497 0.36612 0.0
N1405 N 0.72439 0.64849 0.33494 0.0
N1406 N 0.70888 0.68728 0.36704 0.0
C1407 C 0.71379 0.69427 0.34123 0.0
C1408 C 0.7221 0.67316 0.32374 0.0
C1409 C 0.29399 0.80259 0.31666 0.0
C1410 C 0.29388 0.78233 0.33622 0.0
C1411 C 0.31544 0.80548 0.29895 0.0
C1412 C 0.33776 0.78835 0.30016 0.0
H1413 H 0.27655 0.81508 0.31363 0.0
H1414 H 0.31373 0.82022 0.28313 0.0
S1415 S 0.35007 0.73611 0.35141 0.0
N1416 N 0.32006 0.74788 0.35866 0.0
N1417 N 0.36047 0.7534 0.32525 0.0
C1418 C 0.33936 0.77013 0.32154 0.0
C1419 C 0.31739 0.76712 0.33963 0.0
C1420 C 0.30983 0.35765 0.37278 0.0
C1421 C 0.30117 0.33606 0.38857 0.0
C1422 C 0.29491 0.38131 0.37146 0.0
C1423 C 0.26983 0.38317 0.38436 0.0
H1424 H 0.32669 0.35529 0.35935 0.0
H1425 H 0.3008 0.39599 0.35663 0.0
S1426 S 0.24496 0.33708 0.43692 0.0
N1427 N 0.27153 0.32186 0.42446 0.0
N1428 N 0.24264 0.36588 0.42085 0.0
C1429 C 0.26441 0.36434 0.40464 0.0
C1430 C 0.28004 0.34049 0.40658 0.0
C1431 C 0.33366 0.23863 0.66099 0.0
C1432 C 0.33685 0.21571 0.67701 0.0
C1433 C 0.31131 0.24139 0.64419 0.0
C1434 C 0.29157 0.22132 0.64304 0.0
H1435 H 0.347 0.25557 0.66332 0.0
H1436 H 0.30819 0.26038 0.6342 0.0
S1437 S 0.29496 0.15451 0.67474 0.0
N1438 N 0.32167 0.17037 0.68605 0.0
N1439 N 0.27959 0.17575 0.65467 0.0
C1440 C 0.29642 0.19705 0.65623 0.0
C1441 C 0.31913 0.19419 0.67319 0.0
C1442 C 0.70258 0.33441 0.6404 0.0
C1443 C 0.71132 0.31235 0.62543 0.0
C1444 C 0.7184 0.35742 0.64264 0.0
C1445 C 0.74409 0.35858 0.63104 0.0
H1446 H 0.68382 0.3335 0.65126 0.0
H1447 H 0.71126 0.37344 0.65525 0.0
S1448 S 0.77435 0.30733 0.58675 0.0
N1449 N 0.74544 0.29421 0.59597 0.0
N1450 N 0.7759 0.337 0.60124 0.0
C1451 C 0.75209 0.33737 0.61438 0.0
C1452 C 0.73559 0.31427 0.61144 0.0
C1453 C 0.23355 0.63978 0.60416 0.0
C1454 C 0.21592 0.63421 0.62533 0.0
C1455 C 0.23023 0.66306 0.58881 0.0
C1456 C 0.20927 0.68108 0.5946 0.0
H1457 H 0.25258 0.62944 0.60306 0.0
H1458 H 0.24663 0.66906 0.576 0.0
S1459 S 0.15009 0.66592 0.63658 0.0
N1460 N 0.17109 0.64106 0.64244 0.0
N1461 N 0.16477 0.6851 0.61399 0.0
C1462 C 0.18777 0.6712 0.60986 0.0
C1463 C 0.19106 0.64725 0.62506 0.0
C1464 C 0.14251 0.34924 0.28489 0.0
C1465 C 0.16397 0.36587 0.27709 0.0
C1466 C 0.13061 0.33144 0.26674 0.0
C1467 C 0.13999 0.32964 0.24035 0.0
H1468 H 0.13659 0.3481 0.30572 0.0
H1469 H 0.11589 0.31731 0.27408 0.0
S1470 S 0.19036 0.37338 0.20806 0.0
N1471 N 0.18993 0.38316 0.23961 0.0
N1472 N 0.16797 0.34919 0.20585 0.0
C1473 C 0.15888 0.34841 0.23146 0.0
C1474 C 0.17067 0.36684 0.24975 0.0
C1475 C 0.66581 0.13288 0.31223 0.0
C1476 C 0.66372 0.12721 0.28485 0.0
C1477 C 0.64651 0.14847 0.32516 0.0
C1478 C 0.62489 0.15973 0.31092 0.0
H1479 H 0.68359 0.1271 0.3232 0.0
H1480 H 0.64997 0.1536 0.34593 0.0
S1481 S 0.60808 0.14645 0.23985 0.0
N1482 N 0.63649 0.1303 0.24476 0.0
N1483 N 0.60031 0.16022 0.26888 0.0
C1484 C 0.62111 0.15173 0.28418 0.0
C1485 C 0.64057 0.13533 0.27116 0.0
C1486 C 0.84824 0.64344 0.2201 0.0
C1487 C 0.83353 0.63075 0.2405 0.0
C1488 C 0.86875 0.66158 0.22622 0.0
C1489 C 0.87488 0.66797 0.25299 0.0
H1490 H 0.84191 0.64171 0.19944 0.0
H1491 H 0.87724 0.6731 0.20994 0.0
S1492 S 0.84897 0.63315 0.31312 0.0
N1493 N 0.83177 0.62021 0.28805 0.0
N1494 N 0.86988 0.65481 0.29949 0.0
C1495 C 0.86369 0.6519 0.27318 0.0
C1496 C 0.84306 0.63311 0.26694 0.0
C1497 C 0.38187 0.87867 0.20644 0.0
C1498 C 0.39512 0.86168 0.22461 0.0
C1499 C 0.36408 0.89832 0.2157 0.0
C1500 C 0.35897 0.90107 0.24331 0.0
H1501 H 0.38171 0.87394 0.18528 0.0
H1502 H 0.35112 0.90779 0.20114 0.0
S1503 S 0.40016 0.87249 0.29784 0.0
N1504 N 0.4109 0.85733 0.27051 0.0
N1505 N 0.37694 0.89379 0.28787 0.0
C1506 C 0.37755 0.88958 0.26102 0.0
C1507 C 0.39589 0.86981 0.25159 0.0
C1508 C 0.14675 0.69235 0.76092 0.0
C1509 C 0.13814 0.6783 0.78373 0.0
C1510 C 0.16875 0.68357 0.74601 0.0
C1511 C 0.18267 0.66012 0.75297 0.0
H1512 H 0.13684 0.71066 0.75487 0.0
H1513 H 0.17472 0.69516 0.72869 0.0
S1514 S 0.16809 0.61616 0.81092 0.0
N1515 N 0.14537 0.64011 0.81287 0.0
N1516 N 0.18629 0.62298 0.78416 0.0
C1517 C 0.1741 0.64568 0.77553 0.0
C1518 C 0.152 0.65499 0.79111 0.0
C1519 C 0.38389 0.12949 0.77783 0.0
C1520 C 0.39406 0.14587 0.75722 0.0
C1521 C 0.3643 0.11013 0.77227 0.0
C1522 C 0.35471 0.10681 0.74598 0.0
H1523 H 0.38723 0.13488 0.79856 0.0
H1524 H 0.35354 0.10155 0.78901 0.0
S1525 S 0.38648 0.13333 0.68455 0.0
N1526 N 0.40196 0.14888 0.70925 0.0
N1527 N 0.36507 0.11261 0.69887 0.0
C1528 C 0.37038 0.11734 0.72511 0.0
C1529 C 0.39031 0.13699 0.73076 0.0
C1530 C 0.84069 0.35997 0.73232 0.0
C1531 C 0.83478 0.35611 0.70502 0.0
C1532 C 0.85516 0.34087 0.7469 0.0
C1533 C 0.86394 0.3171 0.73479 0.0
H1534 H 0.83298 0.37725 0.7429 0.0
H1535 H 0.85773 0.34383 0.76822 0.0
S1536 S 0.85856 0.29941 0.66313 0.0
N1537 N 0.84331 0.32862 0.66558 0.0
N1538 N 0.86878 0.29196 0.69365 0.0
C1539 C 0.86003 0.31381 0.70725 0.0
C1540 C 0.84598 0.33359 0.69216 0.0
C1541 C 0.64676 0.87825 0.77548 0.0
C1542 C 0.65474 0.8867 0.74979 0.0
C1543 C 0.62963 0.85627 0.77873 0.0
C1544 C 0.61966 0.84222 0.75643 0.0
H1545 H 0.6565 0.88616 0.79316 0.0
H1546 H 0.62684 0.84838 0.79873 0.0
S1547 S 0.62596 0.86343 0.68554 0.0
N1548 N 0.64514 0.88455 0.70221 0.0
N1549 N 0.61256 0.84351 0.70824 0.0
C1550 C 0.62318 0.85389 0.73101 0.0
C1551 C 0.64086 0.87615 0.72771 0.0
C1552 C 0.24272 0.19181 0.36497 0.0
C1553 C 0.26254 0.20191 0.34766 0.0
C1554 C 0.22623 0.17035 0.35732 0.0
C1555 C 0.22954 0.15763 0.33245 0.0
H1556 H 0.23985 0.20061 0.38457 0.0
H1557 H 0.21103 0.16338 0.37112 0.0
S1558 S 0.27794 0.17663 0.27944 0.0
N1559 N 0.28384 0.19791 0.304 0.0
N1560 N 0.25353 0.15712 0.29016 0.0
C1561 C 0.24916 0.16754 0.3149 0.0
C1562 C 0.26547 0.18979 0.32236 0.0
C1563 C 0.87166 0.22084 0.3687 0.0
C1564 C 0.88594 0.24339 0.3597 0.0
C1565 C 0.85053 0.22378 0.387 0.0
C1566 C 0.84409 0.2491 0.39752 0.0
H1567 H 0.87309 0.20212 0.35784 0.0
H1568 H 0.83686 0.20717 0.38969 0.0
S1569 S 0.88396 0.31111 0.38936 0.0
N1570 N 0.8982 0.28932 0.36899 0.0
N1571 N 0.85963 0.29472 0.40458 0.0
C1572 C 0.86268 0.26995 0.39378 0.0
C1573 C 0.88365 0.26705 0.3746 0.0
C1574 C 0.75085 0.81717 0.33712 0.0
C1575 C 0.74342 0.84005 0.32248 0.0
C1576 C 0.73656 0.80919 0.35984 0.0
C1577 C 0.71393 0.82351 0.3685 0.0
H1578 H 0.7679 0.80527 0.33098 0.0
H1579 H 0.74274 0.79112 0.37009 0.0
S1580 S 0.6861 0.88474 0.33724 0.0
N1581 N 0.71231 0.87721 0.31854 0.0
N1582 N 0.68478 0.86162 0.36083 0.0
C1583 C 0.70635 0.84648 0.35416 0.0
C1584 C 0.72128 0.85495 0.3313 0.0
C1585 C 0.13333 0.76661 0.37681 0.0
C1586 C 0.15158 0.74774 0.38717 0.0
C1587 C 0.11507 0.75907 0.35684 0.0
C1588 C 0.11477 0.73255 0.34725 0.0
H1589 H 0.13672 0.78779 0.37999 0.0
H1590 H 0.10523 0.77485 0.34571 0.0
S1591 S 0.14531 0.67414 0.38095 0.0
N1592 N 0.1582 0.70036 0.39641 0.0
N1593 N 0.12417 0.68626 0.35863 0.0
C1594 C 0.12644 0.71289 0.36361 0.0
C1595 C 0.14489 0.72055 0.38399 0.0
C1596 C 0.2765 0.83622 0.6247 0.0
C1597 C 0.24934 0.83085 0.61928 0.0
C1598 C 0.28382 0.85444 0.64473 0.0
C1599 C 0.26428 0.8682 0.65961 0.0
H1600 H 0.29208 0.82383 0.61613 0.0
H1601 H 0.30467 0.85535 0.65063 0.0
S1602 S 0.19131 0.86876 0.64555 0.0
N1603 N 0.20356 0.84608 0.62488 0.0
N1604 N 0.21726 0.88094 0.66198 0.0
C1605 C 0.23757 0.86688 0.6506 0.0
C1606 C 0.2301 0.84798 0.6305 0.0
C1607 C 0.12908 0.22149 0.61177 0.0
C1608 C 0.14473 0.24225 0.60076 0.0
C1609 C 0.10918 0.22725 0.63074 0.0
C1610 C 0.1047 0.25386 0.63888 0.0
H1611 H 0.13552 0.20088 0.60975 0.0
H1612 H 0.10132 0.21077 0.64244 0.0
S1613 S 0.12856 0.31454 0.6038 0.0
N1614 N 0.1455 0.28975 0.58997 0.0
N1615 N 0.10824 0.30049 0.62575 0.0
C1616 C 0.11424 0.27424 0.62199 0.0
C1617 C 0.13445 0.2684 0.60269 0.0
C1618 C 0.76763 0.15611 0.63109 0.0
C1619 C 0.76341 0.14026 0.65404 0.0
C1620 C 0.74716 0.17225 0.62073 0.0
C1621 C 0.72199 0.17313 0.63318 0.0
H1622 H 0.78756 0.15824 0.62284 0.0
H1623 H 0.75193 0.18605 0.60471 0.0
S1624 S 0.69851 0.13 0.68871 0.0
N1625 N 0.73036 0.12206 0.68492 0.0
N1626 N 0.69218 0.15289 0.66575 0.0
C1627 C 0.71647 0.1547 0.65364 0.0
C1628 C 0.73712 0.13793 0.6639 0.0
C1629 C 0.87733 0.71381 0.63435 0.0
C1630 C 0.85424 0.71907 0.61899 0.0
C1631 C 0.8919 0.73474 0.64608 0.0
C1632 C 0.88363 0.76139 0.64275 0.0
H1633 H 0.88189 0.69352 0.64049 0.0
H1634 H 0.90686 0.72972 0.66095 0.0
S1635 S 0.83187 0.78578 0.59566 0.0
N1636 N 0.82938 0.75285 0.59433 0.0
N1637 N 0.8567 0.79215 0.61653 0.0
C1638 C 0.86443 0.76687 0.62293 0.0
C1639 C 0.84967 0.7456 0.6109 0.0
C1640 C 0.34756 0.27261 0.13709 0.0
C1641 C 0.33211 0.25259 0.12464 0.0
C1642 C 0.36682 0.2661 0.15646 0.0
C1643 C 0.37102 0.23934 0.16426 0.0
H1644 H 0.34272 0.29354 0.13412 0.0
H1645 H 0.37585 0.28231 0.16766 0.0
S1646 S 0.34269 0.17929 0.13131 0.0
N1647 N 0.32782 0.2047 0.11632 0.0
N1648 N 0.36338 0.19266 0.15331 0.0
C1649 C 0.35907 0.21913 0.14881 0.0
C1650 C 0.33978 0.22572 0.12876 0.0
C1651 C 0.35144 0.72687 0.84257 0.0
C1652 C 0.36411 0.73165 0.81793 0.0
C1653 C 0.32961 0.74243 0.85096 0.0
C1654 C 0.31916 0.76287 0.83464 0.0
H1655 H 0.35854 0.711 0.85553 0.0
H1656 H 0.32069 0.73819 0.87025 0.0
S1657 S 0.34441 0.78246 0.76749 0.0
N1658 N 0.36434 0.7579 0.77696 0.0
N1659 N 0.32299 0.78667 0.79228 0.0
C1660 C 0.33143 0.76755 0.80968 0.0
C1661 C 0.354 0.75208 0.80144 0.0
C1662 C 0.26412 0.37064 0.8898 0.0
C1663 C 0.24479 0.35342 0.90104 0.0
C1664 C 0.25708 0.38848 0.86928 0.0
C1665 C 0.23055 0.38953 0.85978 0.0
H1666 H 0.28521 0.36709 0.89336 0.0
H1667 H 0.27313 0.39785 0.8581 0.0
S1668 S 0.1713 0.36053 0.89352 0.0
N1669 N 0.19714 0.34766 0.90961 0.0
N1670 N 0.18402 0.38081 0.87073 0.0
C1671 C 0.21057 0.37816 0.87596 0.0
C1672 C 0.21771 0.36018 0.89696 0.0
C1673 C 0.62137 0.25723 0.84018 0.0
C1674 C 0.62048 0.23081 0.83031 0.0
C1675 C 0.63867 0.26425 0.86113 0.0
C1676 C 0.65549 0.24508 0.87308 0.0
H1677 H 0.61121 0.27324 0.82969 0.0
H1678 H 0.64109 0.28529 0.86575 0.0
S1679 S 0.6525 0.17168 0.86165 0.0
N1680 N 0.63188 0.18438 0.83919 0.0
N1681 N 0.664 0.19741 0.87889 0.0
C1682 C 0.65078 0.21793 0.86691 0.0
C1683 C 0.63338 0.21083 0.84534 0.0
C1684 C 0.7663 0.60723 0.83625 0.0
C1685 C 0.73929 0.60001 0.8329 0.0
C1686 C 0.77353 0.62791 0.85383 0.0
C1687 C 0.75381 0.64237 0.86774 0.0
H1688 H 0.7813 0.59958 0.8226 0.0
H1689 H 0.7938 0.63558 0.85275 0.0
S1690 S 0.68196 0.62539 0.87253 0.0
N1691 N 0.69411 0.60379 0.85068 0.0
N1692 N 0.7077 0.64356 0.88253 0.0
C1693 C 0.72781 0.63188 0.86845 0.0
C1694 C 0.7205 0.6104 0.85114 0.0
C1695 C 0.65504 0.77117 0.14347 0.0
C1696 C 0.67973 0.76567 0.13113 0.0
C1697 C 0.64693 0.7575 0.1666 0.0
C1698 C 0.66351 0.73826 0.17877 0.0
H1699 H 0.64197 0.7864 0.13528 0.0
H1700 H 0.62766 0.76238 0.17525 0.0
S1701 S 0.73061 0.71699 0.1547 0.0
N1702 N 0.7208 0.73964 0.13276 0.0
N1703 N 0.70602 0.7145 0.17662 0.0
C1704 C 0.68839 0.73266 0.16666 0.0
C1705 C 0.69636 0.74617 0.14274 0.0
C1706 C 0.28297 0.61086 0.11996 0.0
C1707 C 0.25564 0.6061 0.1252 0.0
C1708 C 0.29071 0.63227 0.10353 0.0
C1709 C 0.27129 0.64893 0.09171 0.0
H1710 H 0.29826 0.60152 0.13216 0.0
H1711 H 0.31152 0.63838 0.10389 0.0
S1712 S 0.19887 0.63363 0.08643 0.0
N1713 N 0.2105 0.61151 0.10805 0.0
N1714 N 0.22502 0.65126 0.07654 0.0
C1715 C 0.24491 0.63905 0.0905 0.0
C1716 C 0.23702 0.6175 0.10749 0.0
C1717 C 0.7257 0.37427 0.15463 0.0
C1718 C 0.75225 0.37847 0.16304 0.0
C1719 C 0.71995 0.35656 0.1336 0.0
C1720 C 0.74056 0.34243 0.12049 0.0
H1721 H 0.70914 0.38174 0.16647 0.0
H1722 H 0.69921 0.35119 0.13023 0.0
S1723 S 0.81331 0.35562 0.12763 0.0
N1724 N 0.79919 0.374 0.15118 0.0
N1725 N 0.78846 0.34091 0.11159 0.0
C1726 C 0.76705 0.35103 0.12495 0.0
C1727 C 0.77289 0.36896 0.14643 0.0
loop_
_geom_bond_atom_site_label_1
_geom_bond_atom_site_label_2
_geom_bond_distance
_geom_bond_site_symmetry_2
_ccdc_geom_bond_type
Zn0 O3 2.031 . S
Zn0 O5 2.049 . S
Zn0 O10 2.067 . S
Zn1 O2 1.962 . S
Zn1 O4 1.986 . S
Zn1 O6 1.996 . S
Zn1 O9 1.943 . S
O2 Zn1 1.962 . S
O2 C7 1.254 . S
O3 Zn0 2.031 . S
O3 C7 1.269 . S
O4 Zn1 1.986 . S
O4 C11 1.262 . S
O5 Zn0 2.049 . S
O5 C13 1.260 . S
O6 Zn1 1.996 . S
O6 C13 1.257 . S
C7 O2 1.254 . S
C7 O3 1.269 . S
C8 O9 1.249 . S
C8 O10 1.270 . S
O9 Zn1 1.943 . S
O9 C8 1.249 . S
O10 Zn0 2.067 . S
O10 C8 1.270 . S
C11 O4 1.262 . S
C11 O12 1.232 . S
O12 C11 1.232 . S
C13 O5 1.260 . S
C13 O6 1.257 . S
Zn14 O17 2.031 . S
Zn14 O19 2.049 . S
Zn14 O24 2.067 . S
Zn15 O16 1.962 . S
Zn15 O18 1.986 . S
Zn15 O20 1.996 . S
Zn15 O23 1.943 . S
O16 Zn15 1.962 . S
O16 C21 1.254 . S
O17 Zn14 2.031 . S
O17 C21 1.269 . S
O18 Zn15 1.986 . S
O18 C25 1.262 . S
O19 Zn14 2.049 . S
O19 C27 1.260 . S
O20 Zn15 1.996 . S
O20 C27 1.257 . S
C21 O16 1.254 . S
C21 O17 1.269 . S
C22 O23 1.249 . S
C22 O24 1.270 . S
O23 Zn15 1.943 . S
O23 C22 1.249 . S
O24 Zn14 2.067 . S
O24 C22 1.270 . S
C25 O18 1.262 . S
C25 O26 1.232 . S
O26 C25 1.232 . S
C27 O19 1.260 . S
C27 O20 1.257 . S
Zn28 O31 2.031 . S
Zn28 O33 2.049 . S
Zn28 O38 2.067 . S
Zn29 O30 1.962 . S
Zn29 O32 1.986 . S
Zn29 O34 1.996 . S
Zn29 O37 1.943 . S
O30 Zn29 1.962 . S
O30 C35 1.254 . S
O31 Zn28 2.031 . S
O31 C35 1.269 . S
O32 Zn29 1.986 . S
O32 C39 1.262 . S
O33 Zn28 2.049 . S
O33 C41 1.260 . S
O34 Zn29 1.996 . S
O34 C41 1.257 . S
C35 O30 1.254 . S
C35 O31 1.269 . S
C36 O37 1.249 . S
C36 O38 1.270 . S
O37 Zn29 1.943 . S
O37 C36 1.249 . S
O38 Zn28 2.067 . S
O38 C36 1.270 . S
C39 O32 1.262 . S
C39 O40 1.232 . S
O40 C39 1.232 . S
C41 O33 1.260 . S
C41 O34 1.257 . S
Zn42 O45 2.031 . S
Zn42 O47 2.049 . S
Zn42 O52 2.067 . S
Zn43 O44 1.962 . S
Zn43 O46 1.986 . S
Zn43 O48 1.996 . S
Zn43 O51 1.943 . S
O44 Zn43 1.962 . S
O44 C49 1.254 . S
O45 Zn42 2.031 . S
O45 C49 1.269 . S
O46 Zn43 1.986 . S
O46 C53 1.262 . S
O47 Zn42 2.049 . S
O47 C55 1.260 . S
O48 Zn43 1.996 . S
O48 C55 1.257 . S
C49 O44 1.254 . S
C49 O45 1.269 . S
C50 O51 1.249 . S
C50 O52 1.270 . S
O51 Zn43 1.943 . S
O51 C50 1.249 . S
O52 Zn42 2.067 . S
O52 C50 1.270 . S
C53 O46 1.262 . S
C53 O54 1.232 . S
O54 C53 1.232 . S
C55 O47 1.260 . S
C55 O48 1.257 . S
Zn56 O59 2.031 . S
Zn56 O61 2.049 . S
Zn56 O66 2.067 . S
Zn57 O58 1.962 . S
Zn57 O60 1.986 . S
Zn57 O62 1.996 . S
Zn57 O65 1.943 . S
O58 Zn57 1.962 . S
O58 C63 1.254 . S
O59 Zn56 2.031 . S
O59 C63 1.269 . S
O60 Zn57 1.986 . S
O60 C67 1.262 . S
O61 Zn56 2.049 . S
O61 C69 1.260 . S
O62 Zn57 1.996 . S
O62 C69 1.257 . S
C63 O58 1.254 . S
C63 O59 1.269 . S
C64 O65 1.249 . S
C64 O66 1.270 . S
O65 Zn57 1.943 . S
O65 C64 1.249 . S
O66 Zn56 2.067 . S
O66 C64 1.270 . S
C67 O60 1.262 . S
C67 O68 1.232 . S
O68 C67 1.232 . S
C69 O61 1.260 . S
C69 O62 1.257 . S
Zn70 O73 2.031 . S
Zn70 O75 2.049 . S
Zn70 O80 2.067 . S
Zn71 O72 1.962 . S
Zn71 O74 1.986 . S
Zn71 O76 1.996 . S
Zn71 O79 1.943 . S
O72 Zn71 1.962 . S
O72 C77 1.254 . S
O73 Zn70 2.031 . S
O73 C77 1.269 . S
O74 Zn71 1.986 . S
O74 C81 1.262 . S
O75 Zn70 2.049 . S
O75 C83 1.260 . S
O76 Zn71 1.996 . S
O76 C83 1.257 . S
C77 O72 1.254 . S
C77 O73 1.269 . S
C78 O79 1.249 . S
C78 O80 1.270 . S
O79 Zn71 1.943 . S
O79 C78 1.249 . S
O80 Zn70 2.067 . S
O80 C78 1.270 . S
C81 O74 1.262 . S
C81 O82 1.232 . S
O82 C81 1.232 . S
C83 O75 1.260 . S
C83 O76 1.257 . S
Zn84 O87 2.031 . S
Zn84 O89 2.049 . S
Zn84 O94 2.067 . S
Zn85 O86 1.962 . S
Zn85 O88 1.986 . S
Zn85 O90 1.996 . S
Zn85 O93 1.943 . S
O86 Zn85 1.962 . S
O86 C91 1.254 . S
O87 Zn84 2.031 . S
O87 C91 1.269 . S
O88 Zn85 1.986 . S
O88 C95 1.262 . S
O89 Zn84 2.049 . S
O89 C97 1.260 . S
O90 Zn85 1.996 . S
O90 C97 1.257 . S
C91 O86 1.254 . S
C91 O87 1.269 . S
C92 O93 1.249 . S
C92 O94 1.270 . S
O93 Zn85 1.943 . S
O93 C92 1.249 . S
O94 Zn84 2.067 . S
O94 C92 1.270 . S
C95 O88 1.262 . S
C95 O96 1.232 . S
O96 C95 1.232 . S
C97 O89 1.260 . S
C97 O90 1.257 . S
Zn98 O101 2.031 . S
Zn98 O103 2.049 . S
Zn98 O108 2.067 . S
Zn99 O100 1.962 . S
Zn99 O102 1.986 . S
Zn99 O104 1.996 . S
Zn99 O107 1.943 . S
O100 Zn99 1.962 . S
O100 C105 1.254 . S
O101 Zn98 2.031 . S
O101 C105 1.269 . S
O102 Zn99 1.986 . S
O102 C109 1.262 . S
O103 Zn98 2.049 . S
O103 C111 1.260 . S
O104 Zn99 1.996 . S
O104 C111 1.257 . S
C105 O100 1.254 . S
C105 O101 1.269 . S
C106 O107 1.249 . S
C106 O108 1.270 . S
O107 Zn99 1.943 . S
O107 C106 1.249 . S
O108 Zn98 2.067 . S
O108 C106 1.270 . S
C109 O102 1.262 . S
C109 O110 1.232 . S
O110 C109 1.232 . S
C111 O103 1.260 . S
C111 O104 1.257 . S
Zn112 O115 2.031 . S
Zn112 O117 2.049 . S
Zn112 O122 2.067 . S
Zn113 O114 1.962 . S
Zn113 O116 1.986 . S
Zn113 O118 1.996 . S
Zn113 O121 1.943 . S
O114 Zn113 1.962 . S
O114 C119 1.254 . S
O115 Zn112 2.031 . S
O115 C119 1.269 . S
O116 Zn113 1.986 . S
O116 C123 1.262 . S
O117 Zn112 2.049 . S
O117 C125 1.260 . S
O118 Zn113 1.996 . S
O118 C125 1.257 . S
C119 O114 1.254 . S
C119 O115 1.269 . S
C120 O121 1.249 . S
C120 O122 1.270 . S
O121 Zn113 1.943 . S
O121 C120 1.249 . S
O122 Zn112 2.067 . S
O122 C120 1.270 . S
C123 O116 1.262 . S
C123 O124 1.232 . S
O124 C123 1.232 . S
C125 O117 1.260 . S
C125 O118 1.257 . S
Zn126 O129 2.031 . S
Zn126 O131 2.049 . S
Zn126 O136 2.067 . S
Zn127 O128 1.962 . S
Zn127 O130 1.986 . S
Zn127 O132 1.996 . S
Zn127 O135 1.943 . S
O128 Zn127 1.962 . S
O128 C133 1.254 . S
O129 Zn126 2.031 . S
O129 C133 1.269 . S
O130 Zn127 1.986 . S
O130 C137 1.262 . S
O131 Zn126 2.049 . S
O131 C139 1.260 . S
O132 Zn127 1.996 . S
O132 C139 1.257 . S
C133 O128 1.254 . S
C133 O129 1.269 . S
C134 O135 1.249 . S
C134 O136 1.270 . S
O135 Zn127 1.943 . S
O135 C134 1.249 . S
O136 Zn126 2.067 . S
O136 C134 1.270 . S
C137 O130 1.262 . S
C137 O138 1.232 . S
O138 C137 1.232 . S
C139 O131 1.260 . S
C139 O132 1.257 . S
Zn140 O143 2.031 . S
Zn140 O145 2.049 . S
Zn140 O150 2.067 . S
Zn141 O142 1.962 . S
Zn141 O144 1.986 . S
Zn141 O146 1.996 . S
Zn141 O149 1.943 . S
O142 Zn141 1.962 . S
O142 C147 1.254 . S
O143 Zn140 2.031 . S
O143 C147 1.269 . S
O144 Zn141 1.986 . S
O144 C151 1.262 . S
O145 Zn140 2.049 . S
O145 C153 1.260 . S
O146 Zn141 1.996 . S
O146 C153 1.257 . S
C147 O142 1.254 . S
C147 O143 1.269 . S
C148 O149 1.249 . S
C148 O150 1.270 . S
O149 Zn141 1.943 . S
O149 C148 1.249 . S
O150 Zn140 2.067 . S
O150 C148 1.270 . S
C151 O144 1.262 . S
C151 O152 1.232 . S
O152 C151 1.232 . S
C153 O145 1.260 . S
C153 O146 1.257 . S
Zn154 O157 2.031 . S
Zn154 O159 2.049 . S
Zn154 O164 2.067 . S
Zn155 O156 1.962 . S
Zn155 O158 1.986 . S
Zn155 O160 1.996 . S
Zn155 O163 1.943 . S
O156 Zn155 1.962 . S
O156 C161 1.254 . S
O157 Zn154 2.031 . S
O157 C161 1.269 . S
O158 Zn155 1.986 . S
O158 C165 1.262 . S
O159 Zn154 2.049 . S
O159 C167 1.260 . S
O160 Zn155 1.996 . S
O160 C167 1.257 . S
C161 O156 1.254 . S
C161 O157 1.269 . S
C162 O163 1.249 . S
C162 O164 1.270 . S
O163 Zn155 1.943 . S
O163 C162 1.249 . S
O164 Zn154 2.067 . S
O164 C162 1.270 . S
C165 O158 1.262 . S
C165 O166 1.232 . S
O166 C165 1.232 . S
C167 O159 1.260 . S
C167 O160 1.257 . S
Zn168 O171 2.031 . S
Zn168 O173 2.049 . S
Zn168 O178 2.067 . S
Zn169 O170 1.962 . S
Zn169 O172 1.986 . S
Zn169 O174 1.996 . S
Zn169 O177 1.943 . S
O170 Zn169 1.962 . S
O170 C175 1.254 . S
O171 Zn168 2.031 . S
O171 C175 1.269 . S
O172 Zn169 1.986 . S
O172 C179 1.262 . S
O173 Zn168 2.049 . S
O173 C181 1.260 . S
O174 Zn169 1.996 . S
O174 C181 1.257 . S
C175 O170 1.254 . S
C175 O171 1.269 . S
C176 O177 1.249 . S
C176 O178 1.270 . S
O177 Zn169 1.943 . S
O177 C176 1.249 . S
O178 Zn168 2.067 . S
O178 C176 1.270 . S
C179 O172 1.262 . S
C179 O180 1.232 . S
O180 C179 1.232 . S
C181 O173 1.260 . S
C181 O174 1.257 . S
Zn182 O185 2.031 . S
Zn182 O187 2.049 . S
Zn182 O192 2.067 . S
Zn183 O184 1.962 . S
Zn183 O186 1.986 . S
Zn183 O188 1.996 . S
Zn183 O191 1.943 . S
O184 Zn183 1.962 . S
O184 C189 1.254 . S
O185 Zn182 2.031 . S
O185 C189 1.269 . S
O186 Zn183 1.986 . S
O186 C193 1.262 . S
O187 Zn182 2.049 . S
O187 C195 1.260 . S
O188 Zn183 1.996 . S
O188 C195 1.257 . S
C189 O184 1.254 . S
C189 O185 1.269 . S
C190 O191 1.249 . S
C190 O192 1.270 . S
O191 Zn183 1.943 . S
O191 C190 1.249 . S
O192 Zn182 2.067 . S
O192 C190 1.270 . S
C193 O186 1.262 . S
C193 O194 1.232 . S
O194 C193 1.232 . S
C195 O187 1.260 . S
C195 O188 1.257 . S
Zn196 O199 2.031 . S
Zn196 O201 2.049 . S
Zn196 O206 2.067 . S
Zn197 O198 1.962 . S
Zn197 O200 1.986 . S
Zn197 O202 1.996 . S
Zn197 O205 1.943 . S
O198 Zn197 1.962 . S
O198 C203 1.254 . S
O199 Zn196 2.031 . S
O199 C203 1.269 . S
O200 Zn197 1.986 . S
O200 C207 1.262 . S
O201 Zn196 2.049 . S
O201 C209 1.260 . S
O202 Zn197 1.996 . S
O202 C209 1.257 . S
C203 O198 1.254 . S
C203 O199 1.269 . S
C204 O205 1.249 . S
C204 O206 1.270 . S
O205 Zn197 1.943 . S
O205 C204 1.249 . S
O206 Zn196 2.067 . S
O206 C204 1.270 . S
C207 O200 1.262 . S
C207 O208 1.232 . S
O208 C207 1.232 . S
C209 O201 1.260 . S
C209 O202 1.257 . S
Zn210 O213 2.031 . S
Zn210 O215 2.049 . S
Zn210 O220 2.067 . S
Zn211 O212 1.962 . S
Zn211 O214 1.986 . S
Zn211 O216 1.996 . S
Zn211 O219 1.943 . S
O212 Zn211 1.962 . S
O212 C217 1.254 . S
O213 Zn210 2.031 . S
O213 C217 1.269 . S
O214 Zn211 1.986 . S
O214 C221 1.262 . S
O215 Zn210 2.049 . S
O215 C223 1.260 . S
O216 Zn211 1.996 . S
O216 C223 1.257 . S
C217 O212 1.254 . S
C217 O213 1.269 . S
C218 O219 1.249 . S
C218 O220 1.270 . S
O219 Zn211 1.943 . S
O219 C218 1.249 . S
O220 Zn210 2.067 . S
O220 C218 1.270 . S
C221 O214 1.262 . S
C221 O222 1.232 . S
O222 C221 1.232 . S
C223 O215 1.260 . S
C223 O216 1.257 . S
Zn224 O227 2.031 . S
Zn224 O229 2.049 . S
Zn224 O234 2.067 . S
Zn225 O226 1.962 . S
Zn225 O228 1.986 . S
Zn225 O230 1.996 . S
Zn225 O233 1.943 . S
O226 Zn225 1.962 . S
O226 C231 1.254 . S
O227 Zn224 2.031 . S
O227 C231 1.269 . S
O228 Zn225 1.986 . S
O228 C235 1.262 . S
O229 Zn224 2.049 . S
O229 C237 1.260 . S
O230 Zn225 1.996 . S
O230 C237 1.257 . S
C231 O226 1.254 . S
C231 O227 1.269 . S
C232 O233 1.249 . S
C232 O234 1.270 . S
O233 Zn225 1.943 . S
O233 C232 1.249 . S
O234 Zn224 2.067 . S
O234 C232 1.270 . S
C235 O228 1.262 . S
C235 O236 1.232 . S
O236 C235 1.232 . S
C237 O229 1.260 . S
C237 O230 1.257 . S
Zn238 O241 2.031 . S
Zn238 O243 2.049 . S
Zn238 O248 2.067 . S
Zn239 O240 1.962 . S
Zn239 O242 1.986 . S
Zn239 O244 1.996 . S
Zn239 O247 1.943 . S
O240 Zn239 1.962 . S
O240 C245 1.254 . S
O241 Zn238 2.031 . S
O241 C245 1.269 . S
O242 Zn239 1.986 . S
O242 C249 1.262 . S
O243 Zn238 2.049 . S
O243 C251 1.260 . S
O244 Zn239 1.996 . S
O244 C251 1.257 . S
C245 O240 1.254 . S
C245 O241 1.269 . S
C246 O247 1.249 . S
C246 O248 1.270 . S
O247 Zn239 1.943 . S
O247 C246 1.249 . S
O248 Zn238 2.067 . S
O248 C246 1.270 . S
C249 O242 1.262 . S
C249 O250 1.232 . S
O250 C249 1.232 . S
C251 O243 1.260 . S
C251 O244 1.257 . S
Zn252 O255 2.031 . S
Zn252 O257 2.049 . S
Zn252 O262 2.067 . S
Zn253 O254 1.962 . S
Zn253 O256 1.986 . S
Zn253 O258 1.996 . S
Zn253 O261 1.943 . S
O254 Zn253 1.962 . S
O254 C259 1.254 . S
O255 Zn252 2.031 . S
O255 C259 1.269 . S
O256 Zn253 1.986 . S
O256 C263 1.262 . S
O257 Zn252 2.049 . S
O257 C265 1.260 . S
O258 Zn253 1.996 . S
O258 C265 1.257 . S
C259 O254 1.254 . S
C259 O255 1.269 . S
C260 O261 1.249 . S
C260 O262 1.270 . S
O261 Zn253 1.943 . S
O261 C260 1.249 . S
O262 Zn252 2.067 . S
O262 C260 1.270 . S
C263 O256 1.262 . S
C263 O264 1.232 . S
O264 C263 1.232 . S
C265 O257 1.260 . S
C265 O258 1.257 . S
Zn266 O269 2.031 . S
Zn266 O271 2.049 . S
Zn266 O276 2.067 . S
Zn267 O268 1.962 . S
Zn267 O270 1.986 . S
Zn267 O272 1.996 . S
Zn267 O275 1.943 . S
O268 Zn267 1.962 . S
O268 C273 1.254 . S
O269 Zn266 2.031 . S
O269 C273 1.269 . S
O270 Zn267 1.986 . S
O270 C277 1.262 . S
O271 Zn266 2.049 . S
O271 C279 1.260 . S
O272 Zn267 1.996 . S
O272 C279 1.257 . S
C273 O268 1.254 . S
C273 O269 1.269 . S
C274 O275 1.249 . S
C274 O276 1.270 . S
O275 Zn267 1.943 . S
O275 C274 1.249 . S
O276 Zn266 2.067 . S
O276 C274 1.270 . S
C277 O270 1.262 . S
C277 O278 1.232 . S
O278 C277 1.232 . S
C279 O271 1.260 . S
C279 O272 1.257 . S
Zn280 O283 2.031 . S
Zn280 O285 2.049 . S
Zn280 O290 2.067 . S
Zn281 O282 1.962 . S
Zn281 O284 1.986 . S
Zn281 O286 1.996 . S
Zn281 O289 1.943 . S
O282 Zn281 1.962 . S
O282 C287 1.254 . S
O283 Zn280 2.031 . S
O283 C287 1.269 . S
O284 Zn281 1.986 . S
O284 C291 1.262 . S
O285 Zn280 2.049 . S
O285 C293 1.260 . S
O286 Zn281 1.996 . S
O286 C293 1.257 . S
C287 O282 1.254 . S
C287 O283 1.269 . S
C288 O289 1.249 . S
C288 O290 1.270 . S
O289 Zn281 1.943 . S
O289 C288 1.249 . S
O290 Zn280 2.067 . S
O290 C288 1.270 . S
C291 O284 1.262 . S
C291 O292 1.232 . S
O292 C291 1.232 . S
C293 O285 1.260 . S
C293 O286 1.257 . S
Zn294 O297 2.031 . S
Zn294 O299 2.049 . S
Zn294 O304 2.067 . S
Zn295 O296 1.962 . S
Zn295 O298 1.986 . S
Zn295 O300 1.996 . S
Zn295 O303 1.943 . S
O296 Zn295 1.962 . S
O296 C301 1.254 . S
O297 Zn294 2.031 . S
O297 C301 1.269 . S
O298 Zn295 1.986 . S
O298 C305 1.262 . S
O299 Zn294 2.049 . S
O299 C307 1.260 . S
O300 Zn295 1.996 . S
O300 C307 1.257 . S
C301 O296 1.254 . S
C301 O297 1.269 . S
C302 O303 1.249 . S
C302 O304 1.270 . S
O303 Zn295 1.943 . S
O303 C302 1.249 . S
O304 Zn294 2.067 . S
O304 C302 1.270 . S
C305 O298 1.262 . S
C305 O306 1.232 . S
O306 C305 1.232 . S
C307 O299 1.260 . S
C307 O300 1.257 . S
Zn308 O311 2.031 . S
Zn308 O313 2.049 . S
Zn308 O318 2.067 . S
Zn309 O310 1.962 . S
Zn309 O312 1.986 . S
Zn309 O314 1.996 . S
Zn309 O317 1.943 . S
O310 Zn309 1.962 . S
O310 C315 1.254 . S
O311 Zn308 2.031 . S
O311 C315 1.269 . S
O312 Zn309 1.986 . S
O312 C319 1.262 . S
O313 Zn308 2.049 . S
O313 C321 1.260 . S
O314 Zn309 1.996 . S
O314 C321 1.257 . S
C315 O310 1.254 . S
C315 O311 1.269 . S
C316 O317 1.249 . S
C316 O318 1.270 . S
O317 Zn309 1.943 . S
O317 C316 1.249 . S
O318 Zn308 2.067 . S
O318 C316 1.270 . S
C319 O312 1.262 . S
C319 O320 1.232 . S
O320 C319 1.232 . S
C321 O313 1.260 . S
C321 O314 1.257 . S
Zn322 O325 2.031 . S
Zn322 O327 2.049 . S
Zn322 O332 2.067 . S
Zn323 O324 1.962 . S
Zn323 O326 1.986 . S
Zn323 O328 1.996 . S
Zn323 O331 1.943 . S
O324 Zn323 1.962 . S
O324 C329 1.254 . S
O325 Zn322 2.031 . S
O325 C329 1.269 . S
O326 Zn323 1.986 . S
O326 C333 1.262 . S
O327 Zn322 2.049 . S
O327 C335 1.260 . S
O328 Zn323 1.996 . S
O328 C335 1.257 . S
C329 O324 1.254 . S
C329 O325 1.269 . S
C330 O331 1.249 . S
C330 O332 1.270 . S
O331 Zn323 1.943 . S
O331 C330 1.249 . S
O332 Zn322 2.067 . S
O332 C330 1.270 . S
C333 O326 1.262 . S
C333 O334 1.232 . S
O334 C333 1.232 . S
C335 O327 1.260 . S
C335 O328 1.257 . S
Zn336 O339 2.031 . S
Zn336 O341 2.049 . S
Zn336 O346 2.067 . S
Zn337 O338 1.962 . S
Zn337 O340 1.986 . S
Zn337 O342 1.996 . S
Zn337 O345 1.943 . S
O338 Zn337 1.962 . S
O338 C343 1.254 . S
O339 Zn336 2.031 . S
O339 C343 1.269 . S
O340 Zn337 1.986 . S
O340 C347 1.262 . S
O341 Zn336 2.049 . S
O341 C349 1.260 . S
O342 Zn337 1.996 . S
O342 C349 1.257 . S
C343 O338 1.254 . S
C343 O339 1.269 . S
C344 O345 1.249 . S
C344 O346 1.270 . S
O345 Zn337 1.943 . S
O345 C344 1.249 . S
O346 Zn336 2.067 . S
O346 C344 1.270 . S
C347 O340 1.262 . S
C347 O348 1.232 . S
O348 C347 1.232 . S
C349 O341 1.260 . S
C349 O342 1.257 . S
Zn350 O353 2.031 . S
Zn350 O355 2.049 . S
Zn350 O360 2.067 . S
Zn351 O352 1.962 . S
Zn351 O354 1.986 . S
Zn351 O356 1.996 . S
Zn351 O359 1.943 . S
O352 Zn351 1.962 . S
O352 C357 1.254 . S
O353 Zn350 2.031 . S
O353 C357 1.269 . S
O354 Zn351 1.986 . S
O354 C361 1.262 . S
O355 Zn350 2.049 . S
O355 C363 1.260 . S
O356 Zn351 1.996 . S
O356 C363 1.257 . S
C357 O352 1.254 . S
C357 O353 1.269 . S
C358 O359 1.249 . S
C358 O360 1.270 . S
O359 Zn351 1.943 . S
O359 C358 1.249 . S
O360 Zn350 2.067 . S
O360 C358 1.270 . S
C361 O354 1.262 . S
C361 O362 1.232 . S
O362 C361 1.232 . S
C363 O355 1.260 . S
C363 O356 1.257 . S
Zn364 O367 2.031 . S
Zn364 O369 2.049 . S
Zn364 O374 2.067 . S
Zn365 O366 1.962 . S
Zn365 O368 1.986 . S
Zn365 O370 1.996 . S
Zn365 O373 1.943 . S
O366 Zn365 1.962 . S
O366 C371 1.254 . S
O367 Zn364 2.031 . S
O367 C371 1.269 . S
O368 Zn365 1.986 . S
O368 C375 1.262 . S
O369 Zn364 2.049 . S
O369 C377 1.260 . S
O370 Zn365 1.996 . S
O370 C377 1.257 . S
C371 O366 1.254 . S
C371 O367 1.269 . S
C372 O373 1.249 . S
C372 O374 1.270 . S
O373 Zn365 1.943 . S
O373 C372 1.249 . S
O374 Zn364 2.067 . S
O374 C372 1.270 . S
C375 O368 1.262 . S
C375 O376 1.232 . S
O376 C375 1.232 . S
C377 O369 1.260 . S
C377 O370 1.257 . S
Zn378 O381 2.031 . S
Zn378 O383 2.049 . S
Zn378 O388 2.067 . S
Zn379 O380 1.962 . S
Zn379 O382 1.986 . S
Zn379 O384 1.996 . S
Zn379 O387 1.943 . S
O380 Zn379 1.962 . S
O380 C385 1.254 . S
O381 Zn378 2.031 . S
O381 C385 1.269 . S
O382 Zn379 1.986 . S
O382 C389 1.262 . S
O383 Zn378 2.049 . S
O383 C391 1.260 . S
O384 Zn379 1.996 . S
O384 C391 1.257 . S
C385 O380 1.254 . S
C385 O381 1.269 . S
C386 O387 1.249 . S
C386 O388 1.270 . S
O387 Zn379 1.943 . S
O387 C386 1.249 . S
O388 Zn378 2.067 . S
O388 C386 1.270 . S
C389 O382 1.262 . S
C389 O390 1.232 . S
O390 C389 1.232 . S
C391 O383 1.260 . S
C391 O384 1.257 . S
Zn392 O395 2.031 . S
Zn392 O397 2.049 . S
Zn392 O402 2.067 . S
Zn393 O394 1.962 . S
Zn393 O396 1.986 . S
Zn393 O398 1.996 . S
Zn393 O401 1.943 . S
O394 Zn393 1.962 . S
O394 C399 1.254 . S
O395 Zn392 2.031 . S
O395 C399 1.269 . S
O396 Zn393 1.986 . S
O396 C403 1.262 . S
O397 Zn392 2.049 . S
O397 C405 1.260 . S
O398 Zn393 1.996 . S
O398 C405 1.257 . S
C399 O394 1.254 . S
C399 O395 1.269 . S
C400 O401 1.249 . S
C400 O402 1.270 . S
O401 Zn393 1.943 . S
O401 C400 1.249 . S
O402 Zn392 2.067 . S
O402 C400 1.270 . S
C403 O396 1.262 . S
C403 O404 1.232 . S
O404 C403 1.232 . S
C405 O397 1.260 . S
C405 O398 1.257 . S
Zn406 O409 2.031 . S
Zn406 O411 2.049 . S
Zn406 O416 2.067 . S
Zn407 O408 1.962 . S
Zn407 O410 1.986 . S
Zn407 O412 1.996 . S
Zn407 O415 1.943 . S
O408 Zn407 1.962 . S
O408 C413 1.254 . S
O409 Zn406 2.031 . S
O409 C413 1.269 . S
O410 Zn407 1.986 . S
O410 C417 1.262 . S
O411 Zn406 2.049 . S
O411 C419 1.260 . S
O412 Zn407 1.996 . S
O412 C419 1.257 . S
C413 O408 1.254 . S
C413 O409 1.269 . S
C414 O415 1.249 . S
C414 O416 1.270 . S
O415 Zn407 1.943 . S
O415 C414 1.249 . S
O416 Zn406 2.067 . S
O416 C414 1.270 . S
C417 O410 1.262 . S
C417 O418 1.232 . S
O418 C417 1.232 . S
C419 O411 1.260 . S
C419 O412 1.257 . S
Zn420 O423 2.031 . S
Zn420 O425 2.049 . S
Zn420 O430 2.067 . S
Zn421 O422 1.962 . S
Zn421 O424 1.986 . S
Zn421 O426 1.996 . S
Zn421 O429 1.943 . S
O422 Zn421 1.962 . S
O422 C427 1.254 . S
O423 Zn420 2.031 . S
O423 C427 1.269 . S
O424 Zn421 1.986 . S
O424 C431 1.262 . S
O425 Zn420 2.049 . S
O425 C433 1.260 . S
O426 Zn421 1.996 . S
O426 C433 1.257 . S
C427 O422 1.254 . S
C427 O423 1.269 . S
C428 O429 1.249 . S
C428 O430 1.270 . S
O429 Zn421 1.943 . S
O429 C428 1.249 . S
O430 Zn420 2.067 . S
O430 C428 1.270 . S
C431 O424 1.262 . S
C431 O432 1.232 . S
O432 C431 1.232 . S
C433 O425 1.260 . S
C433 O426 1.257 . S
Zn434 O437 2.031 . S
Zn434 O439 2.049 . S
Zn434 O444 2.067 . S
Zn435 O436 1.962 . S
Zn435 O438 1.986 . S
Zn435 O440 1.996 . S
Zn435 O443 1.943 . S
O436 Zn435 1.962 . S
O436 C441 1.254 . S
O437 Zn434 2.031 . S
O437 C441 1.269 . S
O438 Zn435 1.986 . S
O438 C445 1.262 . S
O439 Zn434 2.049 . S
O439 C447 1.260 . S
O440 Zn435 1.996 . S
O440 C447 1.257 . S
C441 O436 1.254 . S
C441 O437 1.269 . S
C442 O443 1.249 . S
C442 O444 1.270 . S
O443 Zn435 1.943 . S
O443 C442 1.249 . S
O444 Zn434 2.067 . S
O444 C442 1.270 . S
C445 O438 1.262 . S
C445 O446 1.232 . S
O446 C445 1.232 . S
C447 O439 1.260 . S
C447 O440 1.257 . S
Zn448 O451 2.031 . S
Zn448 O453 2.049 . S
Zn448 O458 2.067 . S
Zn449 O450 1.962 . S
Zn449 O452 1.986 . S
Zn449 O454 1.996 . S
Zn449 O457 1.943 . S
O450 Zn449 1.962 . S
O450 C455 1.254 . S
O451 Zn448 2.031 . S
O451 C455 1.269 . S
O452 Zn449 1.986 . S
O452 C459 1.262 . S
O453 Zn448 2.049 . S
O453 C461 1.260 . S
O454 Zn449 1.996 . S
O454 C461 1.257 . S
C455 O450 1.254 . S
C455 O451 1.269 . S
C456 O457 1.249 . S
C456 O458 1.270 . S
O457 Zn449 1.943 . S
O457 C456 1.249 . S
O458 Zn448 2.067 . S
O458 C456 1.270 . S
C459 O452 1.262 . S
C459 O460 1.232 . S
O460 C459 1.232 . S
C461 O453 1.260 . S
C461 O454 1.257 . S
Zn462 O465 2.031 . S
Zn462 O467 2.049 . S
Zn462 O472 2.067 . S
Zn463 O464 1.962 . S
Zn463 O466 1.986 . S
Zn463 O468 1.996 . S
Zn463 O471 1.943 . S
O464 Zn463 1.962 . S
O464 C469 1.254 . S
O465 Zn462 2.031 . S
O465 C469 1.269 . S
O466 Zn463 1.986 . S
O466 C473 1.262 . S
O467 Zn462 2.049 . S
O467 C475 1.260 . S
O468 Zn463 1.996 . S
O468 C475 1.257 . S
C469 O464 1.254 . S
C469 O465 1.269 . S
C470 O471 1.249 . S
C470 O472 1.270 . S
O471 Zn463 1.943 . S
O471 C470 1.249 . S
O472 Zn462 2.067 . S
O472 C470 1.270 . S
C473 O466 1.262 . S
C473 O474 1.232 . S
O474 C473 1.232 . S
C475 O467 1.260 . S
C475 O468 1.257 . S
Zn476 O479 2.031 . S
Zn476 O481 2.049 . S
Zn476 O486 2.067 . S
Zn477 O478 1.962 . S
Zn477 O480 1.986 . S
Zn477 O482 1.996 . S
Zn477 O485 1.943 . S
O478 Zn477 1.962 . S
O478 C483 1.254 . S
O479 Zn476 2.031 . S
O479 C483 1.269 . S
O480 Zn477 1.986 . S
O480 C487 1.262 . S
O481 Zn476 2.049 . S
O481 C489 1.260 . S
O482 Zn477 1.996 . S
O482 C489 1.257 . S
C483 O478 1.254 . S
C483 O479 1.269 . S
C484 O485 1.249 . S
C484 O486 1.270 . S
O485 Zn477 1.943 . S
O485 C484 1.249 . S
O486 Zn476 2.067 . S
O486 C484 1.270 . S
C487 O480 1.262 . S
C487 O488 1.232 . S
O488 C487 1.232 . S
C489 O481 1.260 . S
C489 O482 1.257 . S
Zn490 O493 2.031 . S
Zn490 O495 2.049 . S
Zn490 O500 2.067 . S
Zn491 O492 1.962 . S
Zn491 O494 1.986 . S
Zn491 O496 1.996 . S
Zn491 O499 1.943 . S
O492 Zn491 1.962 . S
O492 C497 1.254 . S
O493 Zn490 2.031 . S
O493 C497 1.269 . S
O494 Zn491 1.986 . S
O494 C501 1.262 . S
O495 Zn490 2.049 . S
O495 C503 1.260 . S
O496 Zn491 1.996 . S
O496 C503 1.257 . S
C497 O492 1.254 . S
C497 O493 1.269 . S
C498 O499 1.249 . S
C498 O500 1.270 . S
O499 Zn491 1.943 . S
O499 C498 1.249 . S
O500 Zn490 2.067 . S
O500 C498 1.270 . S
C501 O494 1.262 . S
C501 O502 1.232 . S
O502 C501 1.232 . S
C503 O495 1.260 . S
C503 O496 1.257 . S
Zn504 O507 2.031 . S
Zn504 O509 2.049 . S
Zn504 O514 2.067 . S
Zn505 O506 1.962 . S
Zn505 O508 1.986 . S
Zn505 O510 1.996 . S
Zn505 O513 1.943 . S
O506 Zn505 1.962 . S
O506 C511 1.254 . S
O507 Zn504 2.031 . S
O507 C511 1.269 . S
O508 Zn505 1.986 . S
O508 C515 1.262 . S
O509 Zn504 2.049 . S
O509 C517 1.260 . S
O510 Zn505 1.996 . S
O510 C517 1.257 . S
C511 O506 1.254 . S
C511 O507 1.269 . S
C512 O513 1.249 . S
C512 O514 1.270 . S
O513 Zn505 1.943 . S
O513 C512 1.249 . S
O514 Zn504 2.067 . S
O514 C512 1.270 . S
C515 O508 1.262 . S
C515 O516 1.232 . S
O516 C515 1.232 . S
C517 O509 1.260 . S
C517 O510 1.257 . S
Zn518 O521 2.031 . S
Zn518 O523 2.049 . S
Zn518 O528 2.067 . S
Zn519 O520 1.962 . S
Zn519 O522 1.986 . S
Zn519 O524 1.996 . S
Zn519 O527 1.943 . S
O520 Zn519 1.962 . S
O520 C525 1.254 . S
O521 Zn518 2.031 . S
O521 C525 1.269 . S
O522 Zn519 1.986 . S
O522 C529 1.262 . S
O523 Zn518 2.049 . S
O523 C531 1.260 . S
O524 Zn519 1.996 . S
O524 C531 1.257 . S
C525 O520 1.254 . S
C525 O521 1.269 . S
C526 O527 1.249 . S
C526 O528 1.270 . S
O527 Zn519 1.943 . S
O527 C526 1.249 . S
O528 Zn518 2.067 . S
O528 C526 1.270 . S
C529 O522 1.262 . S
C529 O530 1.232 . S
O530 C529 1.232 . S
C531 O523 1.260 . S
C531 O524 1.257 . S
Zn532 O535 2.031 . S
Zn532 O537 2.049 . S
Zn532 O542 2.067 . S
Zn533 O534 1.962 . S
Zn533 O536 1.986 . S
Zn533 O538 1.996 . S
Zn533 O541 1.943 . S
O534 Zn533 1.962 . S
O534 C539 1.254 . S
O535 Zn532 2.031 . S
O535 C539 1.269 . S
O536 Zn533 1.986 . S
O536 C543 1.262 . S
O537 Zn532 2.049 . S
O537 C545 1.260 . S
O538 Zn533 1.996 . S
O538 C545 1.257 . S
C539 O534 1.254 . S
C539 O535 1.269 . S
C540 O541 1.249 . S
C540 O542 1.270 . S
O541 Zn533 1.943 . S
O541 C540 1.249 . S
O542 Zn532 2.067 . S
O542 C540 1.270 . S
C543 O536 1.262 . S
C543 O544 1.232 . S
O544 C543 1.232 . S
C545 O537 1.260 . S
C545 O538 1.257 . S
Zn546 O549 2.031 . S
Zn546 O551 2.049 . S
Zn546 O556 2.067 . S
Zn547 O548 1.962 . S
Zn547 O550 1.986 . S
Zn547 O552 1.996 . S
Zn547 O555 1.943 . S
O548 Zn547 1.962 . S
O548 C553 1.254 . S
O549 Zn546 2.031 . S
O549 C553 1.269 . S
O550 Zn547 1.986 . S
O550 C557 1.262 . S
O551 Zn546 2.049 . S
O551 C559 1.260 . S
O552 Zn547 1.996 . S
O552 C559 1.257 . S
C553 O548 1.254 . S
C553 O549 1.269 . S
C554 O555 1.249 . S
C554 O556 1.270 . S
O555 Zn547 1.943 . S
O555 C554 1.249 . S
O556 Zn546 2.067 . S
O556 C554 1.270 . S
C557 O550 1.262 . S
C557 O558 1.232 . S
O558 C557 1.232 . S
C559 O551 1.260 . S
C559 O552 1.257 . S
Zn560 O563 2.031 . S
Zn560 O565 2.049 . S
Zn560 O570 2.067 . S
Zn561 O562 1.962 . S
Zn561 O564 1.986 . S
Zn561 O566 1.996 . S
Zn561 O569 1.943 . S
O562 Zn561 1.962 . S
O562 C567 1.254 . S
O563 Zn560 2.031 . S
O563 C567 1.269 . S
O564 Zn561 1.986 . S
O564 C571 1.262 . S
O565 Zn560 2.049 . S
O565 C573 1.260 . S
O566 Zn561 1.996 . S
O566 C573 1.257 . S
C567 O562 1.254 . S
C567 O563 1.269 . S
C568 O569 1.249 . S
C568 O570 1.270 . S
O569 Zn561 1.943 . S
O569 C568 1.249 . S
O570 Zn560 2.067 . S
O570 C568 1.270 . S
C571 O564 1.262 . S
C571 O572 1.232 . S
O572 C571 1.232 . S
C573 O565 1.260 . S
C573 O566 1.257 . S
Zn574 O577 2.031 . S
Zn574 O579 2.049 . S
Zn574 O584 2.067 . S
Zn575 O576 1.962 . S
Zn575 O578 1.986 . S
Zn575 O580 1.996 . S
Zn575 O583 1.943 . S
O576 Zn575 1.962 . S
O576 C581 1.254 . S
O577 Zn574 2.031 . S
O577 C581 1.269 . S
O578 Zn575 1.986 . S
O578 C585 1.262 . S
O579 Zn574 2.049 . S
O579 C587 1.260 . S
O580 Zn575 1.996 . S
O580 C587 1.257 . S
C581 O576 1.254 . S
C581 O577 1.269 . S
C582 O583 1.249 . S
C582 O584 1.270 . S
O583 Zn575 1.943 . S
O583 C582 1.249 . S
O584 Zn574 2.067 . S
O584 C582 1.270 . S
C585 O578 1.262 . S
C585 O586 1.232 . S
O586 C585 1.232 . S
C587 O579 1.260 . S
C587 O580 1.257 . S
Zn588 O591 2.031 . S
Zn588 O593 2.049 . S
Zn588 O598 2.067 . S
Zn589 O590 1.962 . S
Zn589 O592 1.986 . S
Zn589 O594 1.996 . S
Zn589 O597 1.943 . S
O590 Zn589 1.962 . S
O590 C595 1.254 . S
O591 Zn588 2.031 . S
O591 C595 1.269 . S
O592 Zn589 1.986 . S
O592 C599 1.262 . S
O593 Zn588 2.049 . S
O593 C601 1.260 . S
O594 Zn589 1.996 . S
O594 C601 1.257 . S
C595 O590 1.254 . S
C595 O591 1.269 . S
C596 O597 1.249 . S
C596 O598 1.270 . S
O597 Zn589 1.943 . S
O597 C596 1.249 . S
O598 Zn588 2.067 . S
O598 C596 1.270 . S
C599 O592 1.262 . S
C599 O600 1.232 . S
O600 C599 1.232 . S
C601 O593 1.260 . S
C601 O594 1.257 . S
Zn602 O605 2.031 . S
Zn602 O607 2.049 . S
Zn602 O612 2.067 . S
Zn603 O604 1.962 . S
Zn603 O606 1.986 . S
Zn603 O608 1.996 . S
Zn603 O611 1.943 . S
O604 Zn603 1.962 . S
O604 C609 1.254 . S
O605 Zn602 2.031 . S
O605 C609 1.269 . S
O606 Zn603 1.986 . S
O606 C613 1.262 . S
O607 Zn602 2.049 . S
O607 C615 1.260 . S
O608 Zn603 1.996 . S
O608 C615 1.257 . S
C609 O604 1.254 . S
C609 O605 1.269 . S
C610 O611 1.249 . S
C610 O612 1.270 . S
O611 Zn603 1.943 . S
O611 C610 1.249 . S
O612 Zn602 2.067 . S
O612 C610 1.270 . S
C613 O606 1.262 . S
C613 O614 1.232 . S
O614 C613 1.232 . S
C615 O607 1.260 . S
C615 O608 1.257 . S
Zn616 O619 2.031 . S
Zn616 O621 2.049 . S
Zn616 O626 2.067 . S
Zn617 O618 1.962 . S
Zn617 O620 1.986 . S
Zn617 O622 1.996 . S
Zn617 O625 1.943 . S
O618 Zn617 1.962 . S
O618 C623 1.254 . S
O619 Zn616 2.031 . S
O619 C623 1.269 . S
O620 Zn617 1.986 . S
O620 C627 1.262 . S
O621 Zn616 2.049 . S
O621 C629 1.260 . S
O622 Zn617 1.996 . S
O622 C629 1.257 . S
C623 O618 1.254 . S
C623 O619 1.269 . S
C624 O625 1.249 . S
C624 O626 1.270 . S
O625 Zn617 1.943 . S
O625 C624 1.249 . S
O626 Zn616 2.067 . S
O626 C624 1.270 . S
C627 O620 1.262 . S
C627 O628 1.232 . S
O628 C627 1.232 . S
C629 O621 1.260 . S
C629 O622 1.257 . S
Zn630 O633 2.031 . S
Zn630 O635 2.049 . S
Zn630 O640 2.067 . S
Zn631 O632 1.962 . S
Zn631 O634 1.986 . S
Zn631 O636 1.996 . S
Zn631 O639 1.943 . S
O632 Zn631 1.962 . S
O632 C637 1.254 . S
O633 Zn630 2.031 . S
O633 C637 1.269 . S
O634 Zn631 1.986 . S
O634 C641 1.262 . S
O635 Zn630 2.049 . S
O635 C643 1.260 . S
O636 Zn631 1.996 . S
O636 C643 1.257 . S
C637 O632 1.254 . S
C637 O633 1.269 . S
C638 O639 1.249 . S
C638 O640 1.270 . S
O639 Zn631 1.943 . S
O639 C638 1.249 . S
O640 Zn630 2.067 . S
O640 C638 1.270 . S
C641 O634 1.262 . S
C641 O642 1.232 . S
O642 C641 1.232 . S
C643 O635 1.260 . S
C643 O636 1.257 . S
Zn644 O647 2.031 . S
Zn644 O649 2.049 . S
Zn644 O654 2.067 . S
Zn645 O646 1.962 . S
Zn645 O648 1.986 . S
Zn645 O650 1.996 . S
Zn645 O653 1.943 . S
O646 Zn645 1.962 . S
O646 C651 1.254 . S
O647 Zn644 2.031 . S
O647 C651 1.269 . S
O648 Zn645 1.986 . S
O648 C655 1.262 . S
O649 Zn644 2.049 . S
O649 C657 1.260 . S
O650 Zn645 1.996 . S
O650 C657 1.257 . S
C651 O646 1.254 . S
C651 O647 1.269 . S
C652 O653 1.249 . S
C652 O654 1.270 . S
O653 Zn645 1.943 . S
O653 C652 1.249 . S
O654 Zn644 2.067 . S
O654 C652 1.270 . S
C655 O648 1.262 . S
C655 O656 1.232 . S
O656 C655 1.232 . S
C657 O649 1.260 . S
C657 O650 1.257 . S
Zn658 O661 2.031 . S
Zn658 O663 2.049 . S
Zn658 O668 2.067 . S
Zn659 O660 1.962 . S
Zn659 O662 1.986 . S
Zn659 O664 1.996 . S
Zn659 O667 1.943 . S
O660 Zn659 1.962 . S
O660 C665 1.254 . S
O661 Zn658 2.031 . S
O661 C665 1.269 . S
O662 Zn659 1.986 . S
O662 C669 1.262 . S
O663 Zn658 2.049 . S
O663 C671 1.260 . S
O664 Zn659 1.996 . S
O664 C671 1.257 . S
C665 O660 1.254 . S
C665 O661 1.269 . S
C666 O667 1.249 . S
C666 O668 1.270 . S
O667 Zn659 1.943 . S
O667 C666 1.249 . S
O668 Zn658 2.067 . S
O668 C666 1.270 . S
C669 O662 1.262 . S
C669 O670 1.232 . S
O670 C669 1.232 . S
C671 O663 1.260 . S
C671 O664 1.257 . S
C672 C673 1.369 1_455 S
C672 C674 1.419 . S
C672 H676 0.930 . S
C673 C672 1.369 1_655 S
C673 C682 1.429 . S
C674 C672 1.419 . S
C674 C675 1.363 . S
C674 H677 0.929 . S
C675 C674 1.363 . S
C675 C681 1.428 1_455 S
H676 C672 0.930 . S
H677 C674 0.929 . S
S678 N679 1.613 . S
S678 N680 1.610 . S
N679 S678 1.613 . S
N679 C682 1.350 . S
N680 S678 1.610 . S
N680 C681 1.351 . S
C681 C675 1.428 1_655 S
C681 N680 1.351 . S
C681 C682 1.434 . S
C682 C673 1.429 . S
C682 N679 1.350 . S
C682 C681 1.434 . S
C683 C684 1.369 . S
C683 C685 1.419 1_565 S
C683 H687 0.930 . S
C684 C683 1.369 . S
C684 C693 1.429 . S
C685 C683 1.419 1_545 S
C685 C686 1.363 . S
C685 H688 0.929 . S
C686 C685 1.363 . S
C686 C692 1.428 . S
H687 C683 0.930 . S
H688 C685 0.929 . S
S689 N690 1.613 . S
S689 N691 1.610 1_565 S
N690 S689 1.613 . S
N690 C693 1.350 . S
N691 S689 1.610 1_545 S
N691 C692 1.351 . S
C692 C686 1.428 . S
C692 N691 1.351 . S
C692 C693 1.434 1_545 S
C693 C684 1.429 . S
C693 N690 1.350 . S
C693 C692 1.434 1_565 S
C694 C695 1.369 . S
C694 C696 1.419 . S
C694 H698 0.930 . S
C695 C694 1.369 . S
C695 C704 1.429 1_455 S
C696 C694 1.419 . S
C696 C697 1.363 1_455 S
C696 H699 0.929 . S
C697 C696 1.363 1_655 S
C697 C703 1.428 . S
H698 C694 0.930 . S
H699 C696 0.929 . S
S700 N701 1.613 . S
S700 N702 1.610 . S
N701 S700 1.613 . S
N701 C704 1.350 . S
N702 S700 1.610 . S
N702 C703 1.351 . S
C703 C697 1.428 . S
C703 N702 1.351 . S
C703 C704 1.434 . S
C704 C695 1.429 1_655 S
C704 N701 1.350 . S
C704 C703 1.434 . S
C705 C706 1.369 . S
C705 C707 1.419 1_565 S
C705 H709 0.930 . S
C706 C705 1.369 . S
C706 C715 1.429 . S
C707 C705 1.419 1_545 S
C707 C708 1.363 . S
C707 H710 0.929 . S
C708 C707 1.363 . S
C708 C714 1.428 . S
H709 C705 0.930 . S
H710 C707 0.929 . S
S711 N712 1.613 . S
S711 N713 1.610 1_565 S
N712 S711 1.613 . S
N712 C715 1.350 . S
N713 S711 1.610 1_545 S
N713 C714 1.351 . S
C714 C708 1.428 . S
C714 N713 1.351 . S
C714 C715 1.434 1_545 S
C715 C706 1.429 . S
C715 N712 1.350 . S
C715 C714 1.434 1_565 S
C716 C717 1.369 . S
C716 C718 1.419 . S
C716 H720 0.930 . S
C717 C716 1.369 . S
C717 C726 1.429 1_655 S
C718 C716 1.419 . S
C718 C719 1.363 1_655 S
C718 H721 0.929 . S
C719 C718 1.363 1_455 S
C719 C725 1.428 . S
H720 C716 0.930 . S
H721 C718 0.929 . S
S722 N723 1.613 . S
S722 N724 1.610 . S
N723 S722 1.613 . S
N723 C726 1.350 . S
N724 S722 1.610 . S
N724 C725 1.351 . S
C725 C719 1.428 . S
C725 N724 1.351 . S
C725 C726 1.434 . S
C726 C717 1.429 1_455 S
C726 N723 1.350 . S
C726 C725 1.434 . S
C727 C728 1.369 . S
C727 C729 1.419 . S
C727 H731 0.930 . S
C728 C727 1.369 . S
C728 C737 1.429 1_545 S
C729 C727 1.419 . S
C729 C730 1.363 1_545 S
C729 H732 0.929 . S
C730 C729 1.363 1_565 S
C730 C736 1.428 . S
H731 C727 0.930 . S
H732 C729 0.929 . S
S733 N734 1.613 . S
S733 N735 1.610 . S
N734 S733 1.613 . S
N734 C737 1.350 . S
N735 S733 1.610 . S
N735 C736 1.351 . S
C736 C730 1.428 . S
C736 N735 1.351 . S
C736 C737 1.434 . S
C737 C728 1.429 1_565 S
C737 N734 1.350 . S
C737 C736 1.434 . S
C738 C739 1.369 1_655 S
C738 C740 1.419 . S
C738 H742 0.930 . S
C739 C738 1.369 1_455 S
C739 C748 1.429 . S
C740 C738 1.419 . S
C740 C741 1.363 . S
C740 H743 0.929 . S
C741 C740 1.363 . S
C741 C747 1.428 1_655 S
H742 C738 0.930 . S
H743 C740 0.929 . S
S744 N745 1.613 . S
S744 N746 1.610 . S
N745 S744 1.613 . S
N745 C748 1.350 . S
N746 S744 1.610 . S
N746 C747 1.351 . S
C747 C741 1.428 1_455 S
C747 N746 1.351 . S
C747 C748 1.434 . S
C748 C739 1.429 . S
C748 N745 1.350 . S
C748 C747 1.434 . S
C749 C750 1.369 . S
C749 C751 1.419 . S
C749 H753 0.930 . S
C750 C749 1.369 . S
C750 C759 1.429 1_545 S
C751 C749 1.419 . S
C751 C752 1.363 1_545 S
C751 H754 0.929 . S
C752 C751 1.363 1_565 S
C752 C758 1.428 . S
H753 C749 0.930 . S
H754 C751 0.929 . S
S755 N756 1.613 . S
S755 N757 1.610 . S
N756 S755 1.613 . S
N756 C759 1.350 . S
N757 S755 1.610 . S
N757 C758 1.351 . S
C758 C752 1.428 . S
C758 N757 1.351 . S
C758 C759 1.434 . S
C759 C750 1.429 1_565 S
C759 N756 1.350 . S
C759 C758 1.434 . S
C760 C761 1.369 . S
C760 C762 1.419 . S
C760 H764 0.930 . S
C761 C760 1.369 . S
C761 C770 1.429 1_554 S
C762 C760 1.419 . S
C762 C763 1.363 1_554 S
C762 H765 0.929 . S
C763 C762 1.363 1_556 S
C763 C769 1.428 . S
H764 C760 0.930 . S
H765 C762 0.929 . S
S766 N767 1.613 . S
S766 N768 1.610 . S
N767 S766 1.613 . S
N767 C770 1.350 . S
N768 S766 1.610 . S
N768 C769 1.351 . S
C769 C763 1.428 . S
C769 N768 1.351 . S
C769 C770 1.434 . S
C770 C761 1.429 1_556 S
C770 N767 1.350 . S
C770 C769 1.434 . S
C771 C772 1.369 1_554 S
C771 C773 1.419 . S
C771 H775 0.930 . S
C772 C771 1.369 1_556 S
C772 C781 1.429 . S
C773 C771 1.419 . S
C773 C774 1.363 . S
C773 H776 0.929 . S
C774 C773 1.363 . S
C774 C780 1.428 1_554 S
H775 C771 0.930 . S
H776 C773 0.929 . S
S777 N778 1.613 . S
S777 N779 1.610 . S
N778 S777 1.613 . S
N778 C781 1.350 . S
N779 S777 1.610 . S
N779 C780 1.351 . S
C780 C774 1.428 1_556 S
C780 N779 1.351 . S
C780 C781 1.434 . S
C781 C772 1.429 . S
C781 N778 1.350 . S
C781 C780 1.434 . S
C782 C783 1.369 1_554 S
C782 C784 1.419 . S
C782 H786 0.930 . S
C783 C782 1.369 1_556 S
C783 C792 1.429 . S
C784 C782 1.419 . S
C784 C785 1.363 . S
C784 H787 0.929 . S
C785 C784 1.363 . S
C785 C791 1.428 1_554 S
H786 C782 0.930 . S
H787 C784 0.929 . S
S788 N789 1.613 . S
S788 N790 1.610 . S
N789 S788 1.613 . S
N789 C792 1.350 . S
N790 S788 1.610 . S
N790 C791 1.351 . S
C791 C785 1.428 1_556 S
C791 N790 1.351 . S
C791 C792 1.434 . S
C792 C783 1.429 . S
C792 N789 1.350 . S
C792 C791 1.434 . S
C793 C794 1.369 1_554 S
C793 C795 1.419 . S
C793 H797 0.930 . S
C794 C793 1.369 1_556 S
C794 C803 1.429 . S
C795 C793 1.419 . S
C795 C796 1.363 . S
C795 H798 0.929 . S
C796 C795 1.363 . S
C796 C802 1.428 1_554 S
H797 C793 0.930 . S
H798 C795 0.929 . S
S799 N800 1.613 . S
S799 N801 1.610 . S
N800 S799 1.613 . S
N800 C803 1.350 . S
N801 S799 1.610 . S
N801 C802 1.351 . S
C802 C796 1.428 1_556 S
C802 N801 1.351 . S
C802 C803 1.434 . S
C803 C794 1.429 . S
C803 N800 1.350 . S
C803 C802 1.434 . S
C804 C805 1.369 . S
C804 C806 1.419 . S
C804 H808 0.930 . S
C805 C804 1.369 . S
C805 C814 1.429 . S
C806 C804 1.419 . S
C806 C807 1.363 . S
C806 H809 0.929 . S
C807 C806 1.363 . S
C807 C813 1.428 . S
H808 C804 0.930 . S
H809 C806 0.929 . S
S810 N811 1.613 . S
S810 N812 1.610 . S
N811 S810 1.613 . S
N811 C814 1.350 . S
N812 S810 1.610 . S
N812 C813 1.351 . S
C813 C807 1.428 . S
C813 N812 1.351 . S
C813 C814 1.434 . S
C814 C805 1.429 . S
C814 N811 1.350 . S
C814 C813 1.434 . S
C815 C816 1.369 . S
C815 C817 1.419 . S
C815 H819 0.930 . S
C816 C815 1.369 . S
C816 C825 1.429 . S
C817 C815 1.419 . S
C817 C818 1.363 . S
C817 H820 0.929 . S
C818 C817 1.363 . S
C818 C824 1.428 . S
H819 C815 0.930 . S
H820 C817 0.929 . S
S821 N822 1.613 . S
S821 N823 1.610 . S
N822 S821 1.613 . S
N822 C825 1.350 . S
N823 S821 1.610 . S
N823 C824 1.351 . S
C824 C818 1.428 . S
C824 N823 1.351 . S
C824 C825 1.434 . S
C825 C816 1.429 . S
C825 N822 1.350 . S
C825 C824 1.434 . S
C826 C827 1.369 . S
C826 C828 1.419 . S
C826 H830 0.930 . S
C827 C826 1.369 . S
C827 C836 1.429 . S
C828 C826 1.419 . S
C828 C829 1.363 . S
C828 H831 0.929 . S
C829 C828 1.363 . S
C829 C835 1.428 . S
H830 C826 0.930 . S
H831 C828 0.929 . S
S832 N833 1.613 . S
S832 N834 1.610 . S
N833 S832 1.613 . S
N833 C836 1.350 . S
N834 S832 1.610 . S
N834 C835 1.351 . S
C835 C829 1.428 . S
C835 N834 1.351 . S
C835 C836 1.434 . S
C836 C827 1.429 . S
C836 N833 1.350 . S
C836 C835 1.434 . S
C837 C838 1.369 . S
C837 C839 1.419 . S
C837 H841 0.930 . S
C838 C837 1.369 . S
C838 C847 1.429 . S
C839 C837 1.419 . S
C839 C840 1.363 . S
C839 H842 0.929 . S
C840 C839 1.363 . S
C840 C846 1.428 . S
H841 C837 0.930 . S
H842 C839 0.929 . S
S843 N844 1.613 . S
S843 N845 1.610 . S
N844 S843 1.613 . S
N844 C847 1.350 . S
N845 S843 1.610 . S
N845 C846 1.351 . S
C846 C840 1.428 . S
C846 N845 1.351 . S
C846 C847 1.434 . S
C847 C838 1.429 . S
C847 N844 1.350 . S
C847 C846 1.434 . S
C848 C849 1.369 . S
C848 C850 1.419 . S
C848 H852 0.930 . S
C849 C848 1.369 . S
C849 C858 1.429 . S
C850 C848 1.419 . S
C850 C851 1.363 . S
C850 H853 0.929 . S
C851 C850 1.363 . S
C851 C857 1.428 . S
H852 C848 0.930 . S
H853 C850 0.929 . S
S854 N855 1.613 . S
S854 N856 1.610 . S
N855 S854 1.613 . S
N855 C858 1.350 . S
N856 S854 1.610 . S
N856 C857 1.351 . S
C857 C851 1.428 . S
C857 N856 1.351 . S
C857 C858 1.434 . S
C858 C849 1.429 . S
C858 N855 1.350 . S
C858 C857 1.434 . S
C859 C860 1.369 . S
C859 C861 1.419 . S
C859 H863 0.930 . S
C860 C859 1.369 . S
C860 C869 1.429 . S
C861 C859 1.419 . S
C861 C862 1.363 . S
C861 H864 0.929 . S
C862 C861 1.363 . S
C862 C868 1.428 . S
H863 C859 0.930 . S
H864 C861 0.929 . S
S865 N866 1.613 . S
S865 N867 1.610 . S
N866 S865 1.613 . S
N866 C869 1.350 . S
N867 S865 1.610 . S
N867 C868 1.351 . S
C868 C862 1.428 . S
C868 N867 1.351 . S
C868 C869 1.434 . S
C869 C860 1.429 . S
C869 N866 1.350 . S
C869 C868 1.434 . S
C870 C871 1.369 . S
C870 C872 1.419 . S
C870 H874 0.930 . S
C871 C870 1.369 . S
C871 C880 1.429 . S
C872 C870 1.419 . S
C872 C873 1.363 . S
C872 H875 0.929 . S
C873 C872 1.363 . S
C873 C879 1.428 . S
H874 C870 0.930 . S
H875 C872 0.929 . S
S876 N877 1.613 . S
S876 N878 1.610 . S
N877 S876 1.613 . S
N877 C880 1.350 . S
N878 S876 1.610 . S
N878 C879 1.351 . S
C879 C873 1.428 . S
C879 N878 1.351 . S
C879 C880 1.434 . S
C880 C871 1.429 . S
C880 N877 1.350 . S
C880 C879 1.434 . S
C881 C882 1.369 . S
C881 C883 1.419 . S
C881 H885 0.930 . S
C882 C881 1.369 . S
C882 C891 1.429 . S
C883 C881 1.419 . S
C883 C884 1.363 . S
C883 H886 0.929 . S
C884 C883 1.363 . S
C884 C890 1.428 . S
H885 C881 0.930 . S
H886 C883 0.929 . S
S887 N888 1.613 . S
S887 N889 1.610 . S
N888 S887 1.613 . S
N888 C891 1.350 . S
N889 S887 1.610 . S
N889 C890 1.351 . S
C890 C884 1.428 . S
C890 N889 1.351 . S
C890 C891 1.434 . S
C891 C882 1.429 . S
C891 N888 1.350 . S
C891 C890 1.434 . S
C892 C893 1.369 . S
C892 C894 1.419 . S
C892 H896 0.930 . S
C893 C892 1.369 . S
C893 C902 1.429 . S
C894 C892 1.419 . S
C894 C895 1.363 . S
C894 H897 0.929 . S
C895 C894 1.363 . S
C895 C901 1.428 . S
H896 C892 0.930 . S
H897 C894 0.929 . S
S898 N899 1.613 . S
S898 N900 1.610 . S
N899 S898 1.613 . S
N899 C902 1.350 . S
N900 S898 1.610 . S
N900 C901 1.351 . S
C901 C895 1.428 . S
C901 N900 1.351 . S
C901 C902 1.434 . S
C902 C893 1.429 . S
C902 N899 1.350 . S
C902 C901 1.434 . S
C903 C904 1.369 . S
C903 C905 1.419 . S
C903 H907 0.930 . S
C904 C903 1.369 . S
C904 C913 1.429 . S
C905 C903 1.419 . S
C905 C906 1.363 . S
C905 H908 0.929 . S
C906 C905 1.363 . S
C906 C912 1.428 . S
H907 C903 0.930 . S
H908 C905 0.929 . S
S909 N910 1.613 . S
S909 N911 1.610 . S
N910 S909 1.613 . S
N910 C913 1.350 . S
N911 S909 1.610 . S
N911 C912 1.351 . S
C912 C906 1.428 . S
C912 N911 1.351 . S
C912 C913 1.434 . S
C913 C904 1.429 . S
C913 N910 1.350 . S
C913 C912 1.434 . S
C914 C915 1.369 . S
C914 C916 1.419 . S
C914 H918 0.930 . S
C915 C914 1.369 . S
C915 C924 1.429 . S
C916 C914 1.419 . S
C916 C917 1.363 . S
C916 H919 0.929 . S
C917 C916 1.363 . S
C917 C923 1.428 . S
H918 C914 0.930 . S
H919 C916 0.929 . S
S920 N921 1.613 . S
S920 N922 1.610 . S
N921 S920 1.613 . S
N921 C924 1.350 . S
N922 S920 1.610 . S
N922 C923 1.351 . S
C923 C917 1.428 . S
C923 N922 1.351 . S
C923 C924 1.434 . S
C924 C915 1.429 . S
C924 N921 1.350 . S
C924 C923 1.434 . S
C925 C926 1.369 . S
C925 C927 1.419 . S
C925 H929 0.930 . S
C926 C925 1.369 . S
C926 C935 1.429 . S
C927 C925 1.419 . S
C927 C928 1.363 . S
C927 H930 0.929 . S
C928 C927 1.363 . S
C928 C934 1.428 . S
H929 C925 0.930 . S
H930 C927 0.929 . S
S931 N932 1.613 . S
S931 N933 1.610 . S
N932 S931 1.613 . S
N932 C935 1.350 . S
N933 S931 1.610 . S
N933 C934 1.351 . S
C934 C928 1.428 . S
C934 N933 1.351 . S
C934 C935 1.434 . S
C935 C926 1.429 . S
C935 N932 1.350 . S
C935 C934 1.434 . S
C936 C937 1.369 . S
C936 C938 1.419 . S
C936 H940 0.930 . S
C937 C936 1.369 . S
C937 C946 1.429 . S
C938 C936 1.419 . S
C938 C939 1.363 . S
C938 H941 0.929 . S
C939 C938 1.363 . S
C939 C945 1.428 . S
H940 C936 0.930 . S
H941 C938 0.929 . S
S942 N943 1.613 . S
S942 N944 1.610 . S
N943 S942 1.613 . S
N943 C946 1.350 . S
N944 S942 1.610 . S
N944 C945 1.351 . S
C945 C939 1.428 . S
C945 N944 1.351 . S
C945 C946 1.434 . S
C946 C937 1.429 . S
C946 N943 1.350 . S
C946 C945 1.434 . S
C947 C948 1.369 . S
C947 C949 1.419 . S
C947 H951 0.930 . S
C948 C947 1.369 . S
C948 C957 1.429 . S
C949 C947 1.419 . S
C949 C950 1.363 . S
C949 H952 0.929 . S
C950 C949 1.363 . S
C950 C956 1.428 . S
H951 C947 0.930 . S
H952 C949 0.929 . S
S953 N954 1.613 . S
S953 N955 1.610 . S
N954 S953 1.613 . S
N954 C957 1.350 . S
N955 S953 1.610 . S
N955 C956 1.351 . S
C956 C950 1.428 . S
C956 N955 1.351 . S
C956 C957 1.434 . S
C957 C948 1.429 . S
C957 N954 1.350 . S
C957 C956 1.434 . S
C958 C959 1.369 . S
C958 C960 1.419 . S
C958 H962 0.930 . S
C959 C958 1.369 . S
C959 C968 1.429 . S
C960 C958 1.419 . S
C960 C961 1.363 . S
C960 H963 0.929 . S
C961 C960 1.363 . S
C961 C967 1.428 . S
H962 C958 0.930 . S
H963 C960 0.929 . S
S964 N965 1.613 . S
S964 N966 1.610 . S
N965 S964 1.613 . S
N965 C968 1.350 . S
N966 S964 1.610 . S
N966 C967 1.351 . S
C967 C961 1.428 . S
C967 N966 1.351 . S
C967 C968 1.434 . S
C968 C959 1.429 . S
C968 N965 1.350 . S
C968 C967 1.434 . S
C969 C970 1.369 . S
C969 C971 1.419 . S
C969 H973 0.930 . S
C970 C969 1.369 . S
C970 C979 1.429 . S
C971 C969 1.419 . S
C971 C972 1.363 . S
C971 H974 0.929 . S
C972 C971 1.363 . S
C972 C978 1.428 . S
H973 C969 0.930 . S
H974 C971 0.929 . S
S975 N976 1.613 . S
S975 N977 1.610 . S
N976 S975 1.613 . S
N976 C979 1.350 . S
N977 S975 1.610 . S
N977 C978 1.351 . S
C978 C972 1.428 . S
C978 N977 1.351 . S
C978 C979 1.434 . S
C979 C970 1.429 . S
C979 N976 1.350 . S
C979 C978 1.434 . S
C980 C981 1.369 . S
C980 C982 1.419 . S
C980 H984 0.930 . S
C981 C980 1.369 . S
C981 C990 1.429 . S
C982 C980 1.419 . S
C982 C983 1.363 . S
C982 H985 0.929 . S
C983 C982 1.363 . S
C983 C989 1.428 . S
H984 C980 0.930 . S
H985 C982 0.929 . S
S986 N987 1.613 . S
S986 N988 1.610 . S
N987 S986 1.613 . S
N987 C990 1.350 . S
N988 S986 1.610 . S
N988 C989 1.351 . S
C989 C983 1.428 . S
C989 N988 1.351 . S
C989 C990 1.434 . S
C990 C981 1.429 . S
C990 N987 1.350 . S
C990 C989 1.434 . S
C991 C992 1.369 . S
C991 C993 1.419 . S
C991 H995 0.930 . S
C992 C991 1.369 . S
C992 C1001 1.429 . S
C993 C991 1.419 . S
C993 C994 1.363 . S
C993 H996 0.929 . S
C994 C993 1.363 . S
C994 C1000 1.428 . S
H995 C991 0.930 . S
H996 C993 0.929 . S
S997 N998 1.613 . S
S997 N999 1.610 . S
N998 S997 1.613 . S
N998 C1001 1.350 . S
N999 S997 1.610 . S
N999 C1000 1.351 . S
C1000 C994 1.428 . S
C1000 N999 1.351 . S
C1000 C1001 1.434 . S
C1001 C992 1.429 . S
C1001 N998 1.350 . S
C1001 C1000 1.434 . S
C1002 C1003 1.369 . S
C1002 C1004 1.419 . S
C1002 H1006 0.930 . S
C1003 C1002 1.369 . S
C1003 C1012 1.429 . S
C1004 C1002 1.419 . S
C1004 C1005 1.363 . S
C1004 H1007 0.929 . S
C1005 C1004 1.363 . S
C1005 C1011 1.428 . S
H1006 C1002 0.930 . S
H1007 C1004 0.929 . S
S1008 N1009 1.613 . S
S1008 N1010 1.610 . S
N1009 S1008 1.613 . S
N1009 C1012 1.350 . S
N1010 S1008 1.610 . S
N1010 C1011 1.351 . S
C1011 C1005 1.428 . S
C1011 N1010 1.351 . S
C1011 C1012 1.434 . S
C1012 C1003 1.429 . S
C1012 N1009 1.350 . S
C1012 C1011 1.434 . S
C1013 C1014 1.369 . S
C1013 C1015 1.419 . S
C1013 H1017 0.930 . S
C1014 C1013 1.369 . S
C1014 C1023 1.429 . S
C1015 C1013 1.419 . S
C1015 C1016 1.363 . S
C1015 H1018 0.929 . S
C1016 C1015 1.363 . S
C1016 C1022 1.428 . S
H1017 C1013 0.930 . S
H1018 C1015 0.929 . S
S1019 N1020 1.613 . S
S1019 N1021 1.610 . S
N1020 S1019 1.613 . S
N1020 C1023 1.350 . S
N1021 S1019 1.610 . S
N1021 C1022 1.351 . S
C1022 C1016 1.428 . S
C1022 N1021 1.351 . S
C1022 C1023 1.434 . S
C1023 C1014 1.429 . S
C1023 N1020 1.350 . S
C1023 C1022 1.434 . S
C1024 C1025 1.369 . S
C1024 C1026 1.419 . S
C1024 H1028 0.930 . S
C1025 C1024 1.369 . S
C1025 C1034 1.429 . S
C1026 C1024 1.419 . S
C1026 C1027 1.363 . S
C1026 H1029 0.929 . S
C1027 C1026 1.363 . S
C1027 C1033 1.428 . S
H1028 C1024 0.930 . S
H1029 C1026 0.929 . S
S1030 N1031 1.613 . S
S1030 N1032 1.610 . S
N1031 S1030 1.613 . S
N1031 C1034 1.350 . S
N1032 S1030 1.610 . S
N1032 C1033 1.351 . S
C1033 C1027 1.428 . S
C1033 N1032 1.351 . S
C1033 C1034 1.434 . S
C1034 C1025 1.429 . S
C1034 N1031 1.350 . S
C1034 C1033 1.434 . S
C1035 C1036 1.369 . S
C1035 C1037 1.419 . S
C1035 H1039 0.930 . S
C1036 C1035 1.369 . S
C1036 C1045 1.429 . S
C1037 C1035 1.419 . S
C1037 C1038 1.363 . S
C1037 H1040 0.929 . S
C1038 C1037 1.363 . S
C1038 C1044 1.428 . S
H1039 C1035 0.930 . S
H1040 C1037 0.929 . S
S1041 N1042 1.613 . S
S1041 N1043 1.610 . S
N1042 S1041 1.613 . S
N1042 C1045 1.350 . S
N1043 S1041 1.610 . S
N1043 C1044 1.351 . S
C1044 C1038 1.428 . S
C1044 N1043 1.351 . S
C1044 C1045 1.434 . S
C1045 C1036 1.429 . S
C1045 N1042 1.350 . S
C1045 C1044 1.434 . S
C1046 C1047 1.369 . S
C1046 C1048 1.419 . S
C1046 H1050 0.930 . S
C1047 C1046 1.369 . S
C1047 C1056 1.429 . S
C1048 C1046 1.419 . S
C1048 C1049 1.363 . S
C1048 H1051 0.929 . S
C1049 C1048 1.363 . S
C1049 C1055 1.428 . S
H1050 C1046 0.930 . S
H1051 C1048 0.929 . S
S1052 N1053 1.613 . S
S1052 N1054 1.610 . S
N1053 S1052 1.613 . S
N1053 C1056 1.350 . S
N1054 S1052 1.610 . S
N1054 C1055 1.351 . S
C1055 C1049 1.428 . S
C1055 N1054 1.351 . S
C1055 C1056 1.434 . S
C1056 C1047 1.429 . S
C1056 N1053 1.350 . S
C1056 C1055 1.434 . S
C1057 C1058 1.369 . S
C1057 C1059 1.419 . S
C1057 H1061 0.930 . S
C1058 C1057 1.369 . S
C1058 C1067 1.429 . S
C1059 C1057 1.419 . S
C1059 C1060 1.363 . S
C1059 H1062 0.929 . S
C1060 C1059 1.363 . S
C1060 C1066 1.428 . S
H1061 C1057 0.930 . S
H1062 C1059 0.929 . S
S1063 N1064 1.613 . S
S1063 N1065 1.610 . S
N1064 S1063 1.613 . S
N1064 C1067 1.350 . S
N1065 S1063 1.610 . S
N1065 C1066 1.351 . S
C1066 C1060 1.428 . S
C1066 N1065 1.351 . S
C1066 C1067 1.434 . S
C1067 C1058 1.429 . S
C1067 N1064 1.350 . S
C1067 C1066 1.434 . S
C1068 C1069 1.369 . S
C1068 C1070 1.419 . S
C1068 H1072 0.930 . S
C1069 C1068 1.369 . S
C1069 C1078 1.429 . S
C1070 C1068 1.419 . S
C1070 C1071 1.363 . S
C1070 H1073 0.929 . S
C1071 C1070 1.363 . S
C1071 C1077 1.428 . S
H1072 C1068 0.930 . S
H1073 C1070 0.929 . S
S1074 N1075 1.613 . S
S1074 N1076 1.610 . S
N1075 S1074 1.613 . S
N1075 C1078 1.350 . S
N1076 S1074 1.610 . S
N1076 C1077 1.351 . S
C1077 C1071 1.428 . S
C1077 N1076 1.351 . S
C1077 C1078 1.434 . S
C1078 C1069 1.429 . S
C1078 N1075 1.350 . S
C1078 C1077 1.434 . S
C1079 C1080 1.369 . S
C1079 C1081 1.419 . S
C1079 H1083 0.930 . S
C1080 C1079 1.369 . S
C1080 C1089 1.429 . S
C1081 C1079 1.419 . S
C1081 C1082 1.363 . S
C1081 H1084 0.929 . S
C1082 C1081 1.363 . S
C1082 C1088 1.428 . S
H1083 C1079 0.930 . S
H1084 C1081 0.929 . S
S1085 N1086 1.613 . S
S1085 N1087 1.610 . S
N1086 S1085 1.613 . S
N1086 C1089 1.350 . S
N1087 S1085 1.610 . S
N1087 C1088 1.351 . S
C1088 C1082 1.428 . S
C1088 N1087 1.351 . S
C1088 C1089 1.434 . S
C1089 C1080 1.429 . S
C1089 N1086 1.350 . S
C1089 C1088 1.434 . S
C1090 C1091 1.369 . S
C1090 C1092 1.419 . S
C1090 H1094 0.930 . S
C1091 C1090 1.369 . S
C1091 C1100 1.429 . S
C1092 C1090 1.419 . S
C1092 C1093 1.363 . S
C1092 H1095 0.929 . S
C1093 C1092 1.363 . S
C1093 C1099 1.428 . S
H1094 C1090 0.930 . S
H1095 C1092 0.929 . S
S1096 N1097 1.613 . S
S1096 N1098 1.610 . S
N1097 S1096 1.613 . S
N1097 C1100 1.350 . S
N1098 S1096 1.610 . S
N1098 C1099 1.351 . S
C1099 C1093 1.428 . S
C1099 N1098 1.351 . S
C1099 C1100 1.434 . S
C1100 C1091 1.429 . S
C1100 N1097 1.350 . S
C1100 C1099 1.434 . S
C1101 C1102 1.369 . S
C1101 C1103 1.419 . S
C1101 H1105 0.930 . S
C1102 C1101 1.369 . S
C1102 C1111 1.429 . S
C1103 C1101 1.419 . S
C1103 C1104 1.363 . S
C1103 H1106 0.929 . S
C1104 C1103 1.363 . S
C1104 C1110 1.428 . S
H1105 C1101 0.930 . S
H1106 C1103 0.929 . S
S1107 N1108 1.613 . S
S1107 N1109 1.610 . S
N1108 S1107 1.613 . S
N1108 C1111 1.350 . S
N1109 S1107 1.610 . S
N1109 C1110 1.351 . S
C1110 C1104 1.428 . S
C1110 N1109 1.351 . S
C1110 C1111 1.434 . S
C1111 C1102 1.429 . S
C1111 N1108 1.350 . S
C1111 C1110 1.434 . S
C1112 C1113 1.369 . S
C1112 C1114 1.419 . S
C1112 H1116 0.930 . S
C1113 C1112 1.369 . S
C1113 C1122 1.429 . S
C1114 C1112 1.419 . S
C1114 C1115 1.363 . S
C1114 H1117 0.929 . S
C1115 C1114 1.363 . S
C1115 C1121 1.428 . S
H1116 C1112 0.930 . S
H1117 C1114 0.929 . S
S1118 N1119 1.613 . S
S1118 N1120 1.610 . S
N1119 S1118 1.613 . S
N1119 C1122 1.350 . S
N1120 S1118 1.610 . S
N1120 C1121 1.351 . S
C1121 C1115 1.428 . S
C1121 N1120 1.351 . S
C1121 C1122 1.434 . S
C1122 C1113 1.429 . S
C1122 N1119 1.350 . S
C1122 C1121 1.434 . S
C1123 C1124 1.369 . S
C1123 C1125 1.419 . S
C1123 H1127 0.930 . S
C1124 C1123 1.369 . S
C1124 C1133 1.429 . S
C1125 C1123 1.419 . S
C1125 C1126 1.363 . S
C1125 H1128 0.929 . S
C1126 C1125 1.363 . S
C1126 C1132 1.428 . S
H1127 C1123 0.930 . S
H1128 C1125 0.929 . S
S1129 N1130 1.613 . S
S1129 N1131 1.610 . S
N1130 S1129 1.613 . S
N1130 C1133 1.350 . S
N1131 S1129 1.610 . S
N1131 C1132 1.351 . S
C1132 C1126 1.428 . S
C1132 N1131 1.351 . S
C1132 C1133 1.434 . S
C1133 C1124 1.429 . S
C1133 N1130 1.350 . S
C1133 C1132 1.434 . S
C1134 C1135 1.369 . S
C1134 C1136 1.419 . S
C1134 H1138 0.930 . S
C1135 C1134 1.369 . S
C1135 C1144 1.429 . S
C1136 C1134 1.419 . S
C1136 C1137 1.363 . S
C1136 H1139 0.929 . S
C1137 C1136 1.363 . S
C1137 C1143 1.428 . S
H1138 C1134 0.930 . S
H1139 C1136 0.929 . S
S1140 N1141 1.613 . S
S1140 N1142 1.610 . S
N1141 S1140 1.613 . S
N1141 C1144 1.350 . S
N1142 S1140 1.610 . S
N1142 C1143 1.351 . S
C1143 C1137 1.428 . S
C1143 N1142 1.351 . S
C1143 C1144 1.434 . S
C1144 C1135 1.429 . S
C1144 N1141 1.350 . S
C1144 C1143 1.434 . S
C1145 C1146 1.369 . S
C1145 C1147 1.419 . S
C1145 H1149 0.930 . S
C1146 C1145 1.369 . S
C1146 C1155 1.429 . S
C1147 C1145 1.419 . S
C1147 C1148 1.363 . S
C1147 H1150 0.929 . S
C1148 C1147 1.363 . S
C1148 C1154 1.428 . S
H1149 C1145 0.930 . S
H1150 C1147 0.929 . S
S1151 N1152 1.613 . S
S1151 N1153 1.610 . S
N1152 S1151 1.613 . S
N1152 C1155 1.350 . S
N1153 S1151 1.610 . S
N1153 C1154 1.351 . S
C1154 C1148 1.428 . S
C1154 N1153 1.351 . S
C1154 C1155 1.434 . S
C1155 C1146 1.429 . S
C1155 N1152 1.350 . S
C1155 C1154 1.434 . S
C1156 C1157 1.369 . S
C1156 C1158 1.419 . S
C1156 H1160 0.930 . S
C1157 C1156 1.369 . S
C1157 C1166 1.429 . S
C1158 C1156 1.419 . S
C1158 C1159 1.363 . S
C1158 H1161 0.929 . S
C1159 C1158 1.363 . S
C1159 C1165 1.428 . S
H1160 C1156 0.930 . S
H1161 C1158 0.929 . S
S1162 N1163 1.613 . S
S1162 N1164 1.610 . S
N1163 S1162 1.613 . S
N1163 C1166 1.350 . S
N1164 S1162 1.610 . S
N1164 C1165 1.351 . S
C1165 C1159 1.428 . S
C1165 N1164 1.351 . S
C1165 C1166 1.434 . S
C1166 C1157 1.429 . S
C1166 N1163 1.350 . S
C1166 C1165 1.434 . S
C1167 C1168 1.369 . S
C1167 C1169 1.419 . S
C1167 H1171 0.930 . S
C1168 C1167 1.369 . S
C1168 C1177 1.429 . S
C1169 C1167 1.419 . S
C1169 C1170 1.363 . S
C1169 H1172 0.929 . S
C1170 C1169 1.363 . S
C1170 C1176 1.428 . S
H1171 C1167 0.930 . S
H1172 C1169 0.929 . S
S1173 N1174 1.613 . S
S1173 N1175 1.610 . S
N1174 S1173 1.613 . S
N1174 C1177 1.350 . S
N1175 S1173 1.610 . S
N1175 C1176 1.351 . S
C1176 C1170 1.428 . S
C1176 N1175 1.351 . S
C1176 C1177 1.434 . S
C1177 C1168 1.429 . S
C1177 N1174 1.350 . S
C1177 C1176 1.434 . S
C1178 C1179 1.369 . S
C1178 C1180 1.419 . S
C1178 H1182 0.930 . S
C1179 C1178 1.369 . S
C1179 C1188 1.429 . S
C1180 C1178 1.419 . S
C1180 C1181 1.363 . S
C1180 H1183 0.929 . S
C1181 C1180 1.363 . S
C1181 C1187 1.428 . S
H1182 C1178 0.930 . S
H1183 C1180 0.929 . S
S1184 N1185 1.613 . S
S1184 N1186 1.610 . S
N1185 S1184 1.613 . S
N1185 C1188 1.350 . S
N1186 S1184 1.610 . S
N1186 C1187 1.351 . S
C1187 C1181 1.428 . S
C1187 N1186 1.351 . S
C1187 C1188 1.434 . S
C1188 C1179 1.429 . S
C1188 N1185 1.350 . S
C1188 C1187 1.434 . S
C1189 C1190 1.369 . S
C1189 C1191 1.419 . S
C1189 H1193 0.930 . S
C1190 C1189 1.369 . S
C1190 C1199 1.429 . S
C1191 C1189 1.419 . S
C1191 C1192 1.363 . S
C1191 H1194 0.929 . S
C1192 C1191 1.363 . S
C1192 C1198 1.428 . S
H1193 C1189 0.930 . S
H1194 C1191 0.929 . S
S1195 N1196 1.613 . S
S1195 N1197 1.610 . S
N1196 S1195 1.613 . S
N1196 C1199 1.350 . S
N1197 S1195 1.610 . S
N1197 C1198 1.351 . S
C1198 C1192 1.428 . S
C1198 N1197 1.351 . S
C1198 C1199 1.434 . S
C1199 C1190 1.429 . S
C1199 N1196 1.350 . S
C1199 C1198 1.434 . S
C1200 C1201 1.369 . S
C1200 C1202 1.419 . S
C1200 H1204 0.930 . S
C1201 C1200 1.369 . S
C1201 C1210 1.429 . S
C1202 C1200 1.419 . S
C1202 C1203 1.363 . S
C1202 H1205 0.929 . S
C1203 C1202 1.363 . S
C1203 C1209 1.428 . S
H1204 C1200 0.930 . S
H1205 C1202 0.929 . S
S1206 N1207 1.613 . S
S1206 N1208 1.610 . S
N1207 S1206 1.613 . S
N1207 C1210 1.350 . S
N1208 S1206 1.610 . S
N1208 C1209 1.351 . S
C1209 C1203 1.428 . S
C1209 N1208 1.351 . S
C1209 C1210 1.434 . S
C1210 C1201 1.429 . S
C1210 N1207 1.350 . S
C1210 C1209 1.434 . S
C1211 C1212 1.369 . S
C1211 C1213 1.419 . S
C1211 H1215 0.930 . S
C1212 C1211 1.369 . S
C1212 C1221 1.429 . S
C1213 C1211 1.419 . S
C1213 C1214 1.363 . S
C1213 H1216 0.929 . S
C1214 C1213 1.363 . S
C1214 C1220 1.428 . S
H1215 C1211 0.930 . S
H1216 C1213 0.929 . S
S1217 N1218 1.613 . S
S1217 N1219 1.610 . S
N1218 S1217 1.613 . S
N1218 C1221 1.350 . S
N1219 S1217 1.610 . S
N1219 C1220 1.351 . S
C1220 C1214 1.428 . S
C1220 N1219 1.351 . S
C1220 C1221 1.434 . S
C1221 C1212 1.429 . S
C1221 N1218 1.350 . S
C1221 C1220 1.434 . S
C1222 C1223 1.369 . S
C1222 C1224 1.419 . S
C1222 H1226 0.930 . S
C1223 C1222 1.369 . S
C1223 C1232 1.429 . S
C1224 C1222 1.419 . S
C1224 C1225 1.363 . S
C1224 H1227 0.929 . S
C1225 C1224 1.363 . S
C1225 C1231 1.428 . S
H1226 C1222 0.930 . S
H1227 C1224 0.929 . S
S1228 N1229 1.613 . S
S1228 N1230 1.610 . S
N1229 S1228 1.613 . S
N1229 C1232 1.350 . S
N1230 S1228 1.610 . S
N1230 C1231 1.351 . S
C1231 C1225 1.428 . S
C1231 N1230 1.351 . S
C1231 C1232 1.434 . S
C1232 C1223 1.429 . S
C1232 N1229 1.350 . S
C1232 C1231 1.434 . S
C1233 C1234 1.369 . S
C1233 C1235 1.419 . S
C1233 H1237 0.930 . S
C1234 C1233 1.369 . S
C1234 C1243 1.429 . S
C1235 C1233 1.419 . S
C1235 C1236 1.363 . S
C1235 H1238 0.929 . S
C1236 C1235 1.363 . S
C1236 C1242 1.428 . S
H1237 C1233 0.930 . S
H1238 C1235 0.929 . S
S1239 N1240 1.613 . S
S1239 N1241 1.610 . S
N1240 S1239 1.613 . S
N1240 C1243 1.350 . S
N1241 S1239 1.610 . S
N1241 C1242 1.351 . S
C1242 C1236 1.428 . S
C1242 N1241 1.351 . S
C1242 C1243 1.434 . S
C1243 C1234 1.429 . S
C1243 N1240 1.350 . S
C1243 C1242 1.434 . S
C1244 C1245 1.369 . S
C1244 C1246 1.419 . S
C1244 H1248 0.930 . S
C1245 C1244 1.369 . S
C1245 C1254 1.429 . S
C1246 C1244 1.419 . S
C1246 C1247 1.363 . S
C1246 H1249 0.929 . S
C1247 C1246 1.363 . S
C1247 C1253 1.428 . S
H1248 C1244 0.930 . S
H1249 C1246 0.929 . S
S1250 N1251 1.613 . S
S1250 N1252 1.610 . S
N1251 S1250 1.613 . S
N1251 C1254 1.350 . S
N1252 S1250 1.610 . S
N1252 C1253 1.351 . S
C1253 C1247 1.428 . S
C1253 N1252 1.351 . S
C1253 C1254 1.434 . S
C1254 C1245 1.429 . S
C1254 N1251 1.350 . S
C1254 C1253 1.434 . S
C1255 C1256 1.369 . S
C1255 C1257 1.419 . S
C1255 H1259 0.930 . S
C1256 C1255 1.369 . S
C1256 C1265 1.429 . S
C1257 C1255 1.419 . S
C1257 C1258 1.363 . S
C1257 H1260 0.929 . S
C1258 C1257 1.363 . S
C1258 C1264 1.428 . S
H1259 C1255 0.930 . S
H1260 C1257 0.929 . S
S1261 N1262 1.613 . S
S1261 N1263 1.610 . S
N1262 S1261 1.613 . S
N1262 C1265 1.350 . S
N1263 S1261 1.610 . S
N1263 C1264 1.351 . S
C1264 C1258 1.428 . S
C1264 N1263 1.351 . S
C1264 C1265 1.434 . S
C1265 C1256 1.429 . S
C1265 N1262 1.350 . S
C1265 C1264 1.434 . S
C1266 C1267 1.369 . S
C1266 C1268 1.419 . S
C1266 H1270 0.930 . S
C1267 C1266 1.369 . S
C1267 C1276 1.429 . S
C1268 C1266 1.419 . S
C1268 C1269 1.363 . S
C1268 H1271 0.929 . S
C1269 C1268 1.363 . S
C1269 C1275 1.428 . S
H1270 C1266 0.930 . S
H1271 C1268 0.929 . S
S1272 N1273 1.613 . S
S1272 N1274 1.610 . S
N1273 S1272 1.613 . S
N1273 C1276 1.350 . S
N1274 S1272 1.610 . S
N1274 C1275 1.351 . S
C1275 C1269 1.428 . S
C1275 N1274 1.351 . S
C1275 C1276 1.434 . S
C1276 C1267 1.429 . S
C1276 N1273 1.350 . S
C1276 C1275 1.434 . S
C1277 C1278 1.369 . S
C1277 C1279 1.419 . S
C1277 H1281 0.930 . S
C1278 C1277 1.369 . S
C1278 C1287 1.429 . S
C1279 C1277 1.419 . S
C1279 C1280 1.363 . S
C1279 H1282 0.929 . S
C1280 C1279 1.363 . S
C1280 C1286 1.428 . S
H1281 C1277 0.930 . S
H1282 C1279 0.929 . S
S1283 N1284 1.613 . S
S1283 N1285 1.610 . S
N1284 S1283 1.613 . S
N1284 C1287 1.350 . S
N1285 S1283 1.610 . S
N1285 C1286 1.351 . S
C1286 C1280 1.428 . S
C1286 N1285 1.351 . S
C1286 C1287 1.434 . S
C1287 C1278 1.429 . S
C1287 N1284 1.350 . S
C1287 C1286 1.434 . S
C1288 C1289 1.369 . S
C1288 C1290 1.419 . S
C1288 H1292 0.930 . S
C1289 C1288 1.369 . S
C1289 C1298 1.429 . S
C1290 C1288 1.419 . S
C1290 C1291 1.363 . S
C1290 H1293 0.929 . S
C1291 C1290 1.363 . S
C1291 C1297 1.428 . S
H1292 C1288 0.930 . S
H1293 C1290 0.929 . S
S1294 N1295 1.613 . S
S1294 N1296 1.610 . S
N1295 S1294 1.613 . S
N1295 C1298 1.350 . S
N1296 S1294 1.610 . S
N1296 C1297 1.351 . S
C1297 C1291 1.428 . S
C1297 N1296 1.351 . S
C1297 C1298 1.434 . S
C1298 C1289 1.429 . S
C1298 N1295 1.350 . S
C1298 C1297 1.434 . S
C1299 C1300 1.369 . S
C1299 C1301 1.419 . S
C1299 H1303 0.930 . S
C1300 C1299 1.369 . S
C1300 C1309 1.429 . S
C1301 C1299 1.419 . S
C1301 C1302 1.363 . S
C1301 H1304 0.929 . S
C1302 C1301 1.363 . S
C1302 C1308 1.428 . S
H1303 C1299 0.930 . S
H1304 C1301 0.929 . S
S1305 N1306 1.613 . S
S1305 N1307 1.610 . S
N1306 S1305 1.613 . S
N1306 C1309 1.350 . S
N1307 S1305 1.610 . S
N1307 C1308 1.351 . S
C1308 C1302 1.428 . S
C1308 N1307 1.351 . S
C1308 C1309 1.434 . S
C1309 C1300 1.429 . S
C1309 N1306 1.350 . S
C1309 C1308 1.434 . S
C1310 C1311 1.369 . S
C1310 C1312 1.419 . S
C1310 H1314 0.930 . S
C1311 C1310 1.369 . S
C1311 C1320 1.429 . S
C1312 C1310 1.419 . S
C1312 C1313 1.363 . S
C1312 H1315 0.929 . S
C1313 C1312 1.363 . S
C1313 C1319 1.428 . S
H1314 C1310 0.930 . S
H1315 C1312 0.929 . S
S1316 N1317 1.613 . S
S1316 N1318 1.610 . S
N1317 S1316 1.613 . S
N1317 C1320 1.350 . S
N1318 S1316 1.610 . S
N1318 C1319 1.351 . S
C1319 C1313 1.428 . S
C1319 N1318 1.351 . S
C1319 C1320 1.434 . S
C1320 C1311 1.429 . S
C1320 N1317 1.350 . S
C1320 C1319 1.434 . S
C1321 C1322 1.369 . S
C1321 C1323 1.419 . S
C1321 H1325 0.930 . S
C1322 C1321 1.369 . S
C1322 C1331 1.429 . S
C1323 C1321 1.419 . S
C1323 C1324 1.363 . S
C1323 H1326 0.929 . S
C1324 C1323 1.363 . S
C1324 C1330 1.428 . S
H1325 C1321 0.930 . S
H1326 C1323 0.929 . S
S1327 N1328 1.613 . S
S1327 N1329 1.610 . S
N1328 S1327 1.613 . S
N1328 C1331 1.350 . S
N1329 S1327 1.610 . S
N1329 C1330 1.351 . S
C1330 C1324 1.428 . S
C1330 N1329 1.351 . S
C1330 C1331 1.434 . S
C1331 C1322 1.429 . S
C1331 N1328 1.350 . S
C1331 C1330 1.434 . S
C1332 C1333 1.369 . S
C1332 C1334 1.419 . S
C1332 H1336 0.930 . S
C1333 C1332 1.369 . S
C1333 C1342 1.429 . S
C1334 C1332 1.419 . S
C1334 C1335 1.363 . S
C1334 H1337 0.929 . S
C1335 C1334 1.363 . S
C1335 C1341 1.428 . S
H1336 C1332 0.930 . S
H1337 C1334 0.929 . S
S1338 N1339 1.613 . S
S1338 N1340 1.610 . S
N1339 S1338 1.613 . S
N1339 C1342 1.350 . S
N1340 S1338 1.610 . S
N1340 C1341 1.351 . S
C1341 C1335 1.428 . S
C1341 N1340 1.351 . S
C1341 C1342 1.434 . S
C1342 C1333 1.429 . S
C1342 N1339 1.350 . S
C1342 C1341 1.434 . S
C1343 C1344 1.369 . S
C1343 C1345 1.419 . S
C1343 H1347 0.930 . S
C1344 C1343 1.369 . S
C1344 C1353 1.429 . S
C1345 C1343 1.419 . S
C1345 C1346 1.363 . S
C1345 H1348 0.929 . S
C1346 C1345 1.363 . S
C1346 C1352 1.428 . S
H1347 C1343 0.930 . S
H1348 C1345 0.929 . S
S1349 N1350 1.613 . S
S1349 N1351 1.610 . S
N1350 S1349 1.613 . S
N1350 C1353 1.350 . S
N1351 S1349 1.610 . S
N1351 C1352 1.351 . S
C1352 C1346 1.428 . S
C1352 N1351 1.351 . S
C1352 C1353 1.434 . S
C1353 C1344 1.429 . S
C1353 N1350 1.350 . S
C1353 C1352 1.434 . S
C1354 C1355 1.369 . S
C1354 C1356 1.419 . S
C1354 H1358 0.930 . S
C1355 C1354 1.369 . S
C1355 C1364 1.429 . S
C1356 C1354 1.419 . S
C1356 C1357 1.363 . S
C1356 H1359 0.929 . S
C1357 C1356 1.363 . S
C1357 C1363 1.428 . S
H1358 C1354 0.930 . S
H1359 C1356 0.929 . S
S1360 N1361 1.613 . S
S1360 N1362 1.610 . S
N1361 S1360 1.613 . S
N1361 C1364 1.350 . S
N1362 S1360 1.610 . S
N1362 C1363 1.351 . S
C1363 C1357 1.428 . S
C1363 N1362 1.351 . S
C1363 C1364 1.434 . S
C1364 C1355 1.429 . S
C1364 N1361 1.350 . S
C1364 C1363 1.434 . S
C1365 C1366 1.369 . S
C1365 C1367 1.419 . S
C1365 H1369 0.930 . S
C1366 C1365 1.369 . S
C1366 C1375 1.429 . S
C1367 C1365 1.419 . S
C1367 C1368 1.363 . S
C1367 H1370 0.929 . S
C1368 C1367 1.363 . S
C1368 C1374 1.428 . S
H1369 C1365 0.930 . S
H1370 C1367 0.929 . S
S1371 N1372 1.613 . S
S1371 N1373 1.610 . S
N1372 S1371 1.613 . S
N1372 C1375 1.350 . S
N1373 S1371 1.610 . S
N1373 C1374 1.351 . S
C1374 C1368 1.428 . S
C1374 N1373 1.351 . S
C1374 C1375 1.434 . S
C1375 C1366 1.429 . S
C1375 N1372 1.350 . S
C1375 C1374 1.434 . S
C1376 C1377 1.369 . S
C1376 C1378 1.419 . S
C1376 H1380 0.930 . S
C1377 C1376 1.369 . S
C1377 C1386 1.429 . S
C1378 C1376 1.419 . S
C1378 C1379 1.363 . S
C1378 H1381 0.929 . S
C1379 C1378 1.363 . S
C1379 C1385 1.428 . S
H1380 C1376 0.930 . S
H1381 C1378 0.929 . S
S1382 N1383 1.613 . S
S1382 N1384 1.610 . S
N1383 S1382 1.613 . S
N1383 C1386 1.350 . S
N1384 S1382 1.610 . S
N1384 C1385 1.351 . S
C1385 C1379 1.428 . S
C1385 N1384 1.351 . S
C1385 C1386 1.434 . S
C1386 C1377 1.429 . S
C1386 N1383 1.350 . S
C1386 C1385 1.434 . S
C1387 C1388 1.369 . S
C1387 C1389 1.419 . S
C1387 H1391 0.930 . S
C1388 C1387 1.369 . S
C1388 C1397 1.429 . S
C1389 C1387 1.419 . S
C1389 C1390 1.363 . S
C1389 H1392 0.929 . S
C1390 C1389 1.363 . S
C1390 C1396 1.428 . S
H1391 C1387 0.930 . S
H1392 C1389 0.929 . S
S1393 N1394 1.613 . S
S1393 N1395 1.610 . S
N1394 S1393 1.613 . S
N1394 C1397 1.350 . S
N1395 S1393 1.610 . S
N1395 C1396 1.351 . S
C1396 C1390 1.428 . S
C1396 N1395 1.351 . S
C1396 C1397 1.434 . S
C1397 C1388 1.429 . S
C1397 N1394 1.350 . S
C1397 C1396 1.434 . S
C1398 C1399 1.369 . S
C1398 C1400 1.419 . S
C1398 H1402 0.930 . S
C1399 C1398 1.369 . S
C1399 C1408 1.429 . S
C1400 C1398 1.419 . S
C1400 C1401 1.363 . S
C1400 H1403 0.929 . S
C1401 C1400 1.363 . S
C1401 C1407 1.428 . S
H1402 C1398 0.930 . S
H1403 C1400 0.929 . S
S1404 N1405 1.613 . S
S1404 N1406 1.610 . S
N1405 S1404 1.613 . S
N1405 C1408 1.350 . S
N1406 S1404 1.610 . S
N1406 C1407 1.351 . S
C1407 C1401 1.428 . S
C1407 N1406 1.351 . S
C1407 C1408 1.434 . S
C1408 C1399 1.429 . S
C1408 N1405 1.350 . S
C1408 C1407 1.434 . S
C1409 C1410 1.369 . S
C1409 C1411 1.419 . S
C1409 H1413 0.930 . S
C1410 C1409 1.369 . S
C1410 C1419 1.429 . S
C1411 C1409 1.419 . S
C1411 C1412 1.363 . S
C1411 H1414 0.929 . S
C1412 C1411 1.363 . S
C1412 C1418 1.428 . S
H1413 C1409 0.930 . S
H1414 C1411 0.929 . S
S1415 N1416 1.613 . S
S1415 N1417 1.610 . S
N1416 S1415 1.613 . S
N1416 C1419 1.350 . S
N1417 S1415 1.610 . S
N1417 C1418 1.351 . S
C1418 C1412 1.428 . S
C1418 N1417 1.351 . S
C1418 C1419 1.434 . S
C1419 C1410 1.429 . S
C1419 N1416 1.350 . S
C1419 C1418 1.434 . S
C1420 C1421 1.369 . S
C1420 C1422 1.419 . S
C1420 H1424 0.930 . S
C1421 C1420 1.369 . S
C1421 C1430 1.429 . S
C1422 C1420 1.419 . S
C1422 C1423 1.363 . S
C1422 H1425 0.929 . S
C1423 C1422 1.363 . S
C1423 C1429 1.428 . S
H1424 C1420 0.930 . S
H1425 C1422 0.929 . S
S1426 N1427 1.613 . S
S1426 N1428 1.610 . S
N1427 S1426 1.613 . S
N1427 C1430 1.350 . S
N1428 S1426 1.610 . S
N1428 C1429 1.351 . S
C1429 C1423 1.428 . S
C1429 N1428 1.351 . S
C1429 C1430 1.434 . S
C1430 C1421 1.429 . S
C1430 N1427 1.350 . S
C1430 C1429 1.434 . S
C1431 C1432 1.369 . S
C1431 C1433 1.419 . S
C1431 H1435 0.930 . S
C1432 C1431 1.369 . S
C1432 C1441 1.429 . S
C1433 C1431 1.419 . S
C1433 C1434 1.363 . S
C1433 H1436 0.929 . S
C1434 C1433 1.363 . S
C1434 C1440 1.428 . S
H1435 C1431 0.930 . S
H1436 C1433 0.929 . S
S1437 N1438 1.613 . S
S1437 N1439 1.610 . S
N1438 S1437 1.613 . S
N1438 C1441 1.350 . S
N1439 S1437 1.610 . S
N1439 C1440 1.351 . S
C1440 C1434 1.428 . S
C1440 N1439 1.351 . S
C1440 C1441 1.434 . S
C1441 C1432 1.429 . S
C1441 N1438 1.350 . S
C1441 C1440 1.434 . S
C1442 C1443 1.369 . S
C1442 C1444 1.419 . S
C1442 H1446 0.930 . S
C1443 C1442 1.369 . S
C1443 C1452 1.429 . S
C1444 C1442 1.419 . S
C1444 C1445 1.363 . S
C1444 H1447 0.929 . S
C1445 C1444 1.363 . S
C1445 C1451 1.428 . S
H1446 C1442 0.930 . S
H1447 C1444 0.929 . S
S1448 N1449 1.613 . S
S1448 N1450 1.610 . S
N1449 S1448 1.613 . S
N1449 C1452 1.350 . S
N1450 S1448 1.610 . S
N1450 C1451 1.351 . S
C1451 C1445 1.428 . S
C1451 N1450 1.351 . S
C1451 C1452 1.434 . S
C1452 C1443 1.429 . S
C1452 N1449 1.350 . S
C1452 C1451 1.434 . S
C1453 C1454 1.369 . S
C1453 C1455 1.419 . S
C1453 H1457 0.930 . S
C1454 C1453 1.369 . S
C1454 C1463 1.429 . S
C1455 C1453 1.419 . S
C1455 C1456 1.363 . S
C1455 H1458 0.929 . S
C1456 C1455 1.363 . S
C1456 C1462 1.428 . S
H1457 C1453 0.930 . S
H1458 C1455 0.929 . S
S1459 N1460 1.613 . S
S1459 N1461 1.610 . S
N1460 S1459 1.613 . S
N1460 C1463 1.350 . S
N1461 S1459 1.610 . S
N1461 C1462 1.351 . S
C1462 C1456 1.428 . S
C1462 N1461 1.351 . S
C1462 C1463 1.434 . S
C1463 C1454 1.429 . S
C1463 N1460 1.350 . S
C1463 C1462 1.434 . S
C1464 C1465 1.369 . S
C1464 C1466 1.419 . S
C1464 H1468 0.930 . S
C1465 C1464 1.369 . S
C1465 C1474 1.429 . S
C1466 C1464 1.419 . S
C1466 C1467 1.363 . S
C1466 H1469 0.929 . S
C1467 C1466 1.363 . S
C1467 C1473 1.428 . S
H1468 C1464 0.930 . S
H1469 C1466 0.929 . S
S1470 N1471 1.613 . S
S1470 N1472 1.610 . S
N1471 S1470 1.613 . S
N1471 C1474 1.350 . S
N1472 S1470 1.610 . S
N1472 C1473 1.351 . S
C1473 C1467 1.428 . S
C1473 N1472 1.351 . S
C1473 C1474 1.434 . S
C1474 C1465 1.429 . S
C1474 N1471 1.350 . S
C1474 C1473 1.434 . S
C1475 C1476 1.369 . S
C1475 C1477 1.419 . S
C1475 H1479 0.930 . S
C1476 C1475 1.369 . S
C1476 C1485 1.429 . S
C1477 C1475 1.419 . S
C1477 C1478 1.363 . S
C1477 H1480 0.929 . S
C1478 C1477 1.363 . S
C1478 C1484 1.428 . S
H1479 C1475 0.930 . S
H1480 C1477 0.929 . S
S1481 N1482 1.613 . S
S1481 N1483 1.610 . S
N1482 S1481 1.613 . S
N1482 C1485 1.350 . S
N1483 S1481 1.610 . S
N1483 C1484 1.351 . S
C1484 C1478 1.428 . S
C1484 N1483 1.351 . S
C1484 C1485 1.434 . S
C1485 C1476 1.429 . S
C1485 N1482 1.350 . S
C1485 C1484 1.434 . S
C1486 C1487 1.369 . S
C1486 C1488 1.419 . S
C1486 H1490 0.930 . S
C1487 C1486 1.369 . S
C1487 C1496 1.429 . S
C1488 C1486 1.419 . S
C1488 C1489 1.363 . S
C1488 H1491 0.929 . S
C1489 C1488 1.363 . S
C1489 C1495 1.428 . S
H1490 C1486 0.930 . S
H1491 C1488 0.929 . S
S1492 N1493 1.613 . S
S1492 N1494 1.610 . S
N1493 S1492 1.613 . S
N1493 C1496 1.350 . S
N1494 S1492 1.610 . S
N1494 C1495 1.351 . S
C1495 C1489 1.428 . S
C1495 N1494 1.351 . S
C1495 C1496 1.434 . S
C1496 C1487 1.429 . S
C1496 N1493 1.350 . S
C1496 C1495 1.434 . S
C1497 C1498 1.369 . S
C1497 C1499 1.419 . S
C1497 H1501 0.930 . S
C1498 C1497 1.369 . S
C1498 C1507 1.429 . S
C1499 C1497 1.419 . S
C1499 C1500 1.363 . S
C1499 H1502 0.929 . S
C1500 C1499 1.363 . S
C1500 C1506 1.428 . S
H1501 C1497 0.930 . S
H1502 C1499 0.929 . S
S1503 N1504 1.613 . S
S1503 N1505 1.610 . S
N1504 S1503 1.613 . S
N1504 C1507 1.350 . S
N1505 S1503 1.610 . S
N1505 C1506 1.351 . S
C1506 C1500 1.428 . S
C1506 N1505 1.351 . S
C1506 C1507 1.434 . S
C1507 C1498 1.429 . S
C1507 N1504 1.350 . S
C1507 C1506 1.434 . S
C1508 C1509 1.369 . S
C1508 C1510 1.419 . S
C1508 H1512 0.930 . S
C1509 C1508 1.369 . S
C1509 C1518 1.429 . S
C1510 C1508 1.419 . S
C1510 C1511 1.363 . S
C1510 H1513 0.929 . S
C1511 C1510 1.363 . S
C1511 C1517 1.428 . S
H1512 C1508 0.930 . S
H1513 C1510 0.929 . S
S1514 N1515 1.613 . S
S1514 N1516 1.610 . S
N1515 S1514 1.613 . S
N1515 C1518 1.350 . S
N1516 S1514 1.610 . S
N1516 C1517 1.351 . S
C1517 C1511 1.428 . S
C1517 N1516 1.351 . S
C1517 C1518 1.434 . S
C1518 C1509 1.429 . S
C1518 N1515 1.350 . S
C1518 C1517 1.434 . S
C1519 C1520 1.369 . S
C1519 C1521 1.419 . S
C1519 H1523 0.930 . S
C1520 C1519 1.369 . S
C1520 C1529 1.429 . S
C1521 C1519 1.419 . S
C1521 C1522 1.363 . S
C1521 H1524 0.929 . S
C1522 C1521 1.363 . S
C1522 C1528 1.428 . S
H1523 C1519 0.930 . S
H1524 C1521 0.929 . S
S1525 N1526 1.613 . S
S1525 N1527 1.610 . S
N1526 S1525 1.613 . S
N1526 C1529 1.350 . S
N1527 S1525 1.610 . S
N1527 C1528 1.351 . S
C1528 C1522 1.428 . S
C1528 N1527 1.351 . S
C1528 C1529 1.434 . S
C1529 C1520 1.429 . S
C1529 N1526 1.350 . S
C1529 C1528 1.434 . S
C1530 C1531 1.369 . S
C1530 C1532 1.419 . S
C1530 H1534 0.930 . S
C1531 C1530 1.369 . S
C1531 C1540 1.429 . S
C1532 C1530 1.419 . S
C1532 C1533 1.363 . S
C1532 H1535 0.929 . S
C1533 C1532 1.363 . S
C1533 C1539 1.428 . S
H1534 C1530 0.930 . S
H1535 C1532 0.929 . S
S1536 N1537 1.613 . S
S1536 N1538 1.610 . S
N1537 S1536 1.613 . S
N1537 C1540 1.350 . S
N1538 S1536 1.610 . S
N1538 C1539 1.351 . S
C1539 C1533 1.428 . S
C1539 N1538 1.351 . S
C1539 C1540 1.434 . S
C1540 C1531 1.429 . S
C1540 N1537 1.350 . S
C1540 C1539 1.434 . S
C1541 C1542 1.369 . S
C1541 C1543 1.419 . S
C1541 H1545 0.930 . S
C1542 C1541 1.369 . S
C1542 C1551 1.429 . S
C1543 C1541 1.419 . S
C1543 C1544 1.363 . S
C1543 H1546 0.929 . S
C1544 C1543 1.363 . S
C1544 C1550 1.428 . S
H1545 C1541 0.930 . S
H1546 C1543 0.929 . S
S1547 N1548 1.613 . S
S1547 N1549 1.610 . S
N1548 S1547 1.613 . S
N1548 C1551 1.350 . S
N1549 S1547 1.610 . S
N1549 C1550 1.351 . S
C1550 C1544 1.428 . S
C1550 N1549 1.351 . S
C1550 C1551 1.434 . S
C1551 C1542 1.429 . S
C1551 N1548 1.350 . S
C1551 C1550 1.434 . S
C1552 C1553 1.369 . S
C1552 C1554 1.419 . S
C1552 H1556 0.930 . S
C1553 C1552 1.369 . S
C1553 C1562 1.429 . S
C1554 C1552 1.419 . S
C1554 C1555 1.363 . S
C1554 H1557 0.929 . S
C1555 C1554 1.363 . S
C1555 C1561 1.428 . S
H1556 C1552 0.930 . S
H1557 C1554 0.929 . S
S1558 N1559 1.613 . S
S1558 N1560 1.610 . S
N1559 S1558 1.613 . S
N1559 C1562 1.350 . S
N1560 S1558 1.610 . S
N1560 C1561 1.351 . S
C1561 C1555 1.428 . S
C1561 N1560 1.351 . S
C1561 C1562 1.434 . S
C1562 C1553 1.429 . S
C1562 N1559 1.350 . S
C1562 C1561 1.434 . S
C1563 C1564 1.369 . S
C1563 C1565 1.419 . S
C1563 H1567 0.930 . S
C1564 C1563 1.369 . S
C1564 C1573 1.429 . S
C1565 C1563 1.419 . S
C1565 C1566 1.363 . S
C1565 H1568 0.929 . S
C1566 C1565 1.363 . S
C1566 C1572 1.428 . S
H1567 C1563 0.930 . S
H1568 C1565 0.929 . S
S1569 N1570 1.613 . S
S1569 N1571 1.610 . S
N1570 S1569 1.613 . S
N1570 C1573 1.350 . S
N1571 S1569 1.610 . S
N1571 C1572 1.351 . S
C1572 C1566 1.428 . S
C1572 N1571 1.351 . S
C1572 C1573 1.434 . S
C1573 C1564 1.429 . S
C1573 N1570 1.350 . S
C1573 C1572 1.434 . S
C1574 C1575 1.369 . S
C1574 C1576 1.419 . S
C1574 H1578 0.930 . S
C1575 C1574 1.369 . S
C1575 C1584 1.429 . S
C1576 C1574 1.419 . S
C1576 C1577 1.363 . S
C1576 H1579 0.929 . S
C1577 C1576 1.363 . S
C1577 C1583 1.428 . S
H1578 C1574 0.930 . S
H1579 C1576 0.929 . S
S1580 N1581 1.613 . S
S1580 N1582 1.610 . S
N1581 S1580 1.613 . S
N1581 C1584 1.350 . S
N1582 S1580 1.610 . S
N1582 C1583 1.351 . S
C1583 C1577 1.428 . S
C1583 N1582 1.351 . S
C1583 C1584 1.434 . S
C1584 C1575 1.429 . S
C1584 N1581 1.350 . S
C1584 C1583 1.434 . S
C1585 C1586 1.369 . S
C1585 C1587 1.419 . S
C1585 H1589 0.930 . S
C1586 C1585 1.369 . S
C1586 C1595 1.429 . S
C1587 C1585 1.419 . S
C1587 C1588 1.363 . S
C1587 H1590 0.929 . S
C1588 C1587 1.363 . S
C1588 C1594 1.428 . S
H1589 C1585 0.930 . S
H1590 C1587 0.929 . S
S1591 N1592 1.613 . S
S1591 N1593 1.610 . S
N1592 S1591 1.613 . S
N1592 C1595 1.350 . S
N1593 S1591 1.610 . S
N1593 C1594 1.351 . S
C1594 C1588 1.428 . S
C1594 N1593 1.351 . S
C1594 C1595 1.434 . S
C1595 C1586 1.429 . S
C1595 N1592 1.350 . S
C1595 C1594 1.434 . S
C1596 C1597 1.369 . S
C1596 C1598 1.419 . S
C1596 H1600 0.930 . S
C1597 C1596 1.369 . S
C1597 C1606 1.429 . S
C1598 C1596 1.419 . S
C1598 C1599 1.363 . S
C1598 H1601 0.929 . S
C1599 C1598 1.363 . S
C1599 C1605 1.428 . S
H1600 C1596 0.930 . S
H1601 C1598 0.929 . S
S1602 N1603 1.613 . S
S1602 N1604 1.610 . S
N1603 S1602 1.613 . S
N1603 C1606 1.350 . S
N1604 S1602 1.610 . S
N1604 C1605 1.351 . S
C1605 C1599 1.428 . S
C1605 N1604 1.351 . S
C1605 C1606 1.434 . S
C1606 C1597 1.429 . S
C1606 N1603 1.350 . S
C1606 C1605 1.434 . S
C1607 C1608 1.369 . S
C1607 C1609 1.419 . S
C1607 H1611 0.930 . S
C1608 C1607 1.369 . S
C1608 C1617 1.429 . S
C1609 C1607 1.419 . S
C1609 C1610 1.363 . S
C1609 H1612 0.929 . S
C1610 C1609 1.363 . S
C1610 C1616 1.428 . S
H1611 C1607 0.930 . S
H1612 C1609 0.929 . S
S1613 N1614 1.613 . S
S1613 N1615 1.610 . S
N1614 S1613 1.613 . S
N1614 C1617 1.350 . S
N1615 S1613 1.610 . S
N1615 C1616 1.351 . S
C1616 C1610 1.428 . S
C1616 N1615 1.351 . S
C1616 C1617 1.434 . S
C1617 C1608 1.429 . S
C1617 N1614 1.350 . S
C1617 C1616 1.434 . S
C1618 C1619 1.369 . S
C1618 C1620 1.419 . S
C1618 H1622 0.930 . S
C1619 C1618 1.369 . S
C1619 C1628 1.429 . S
C1620 C1618 1.419 . S
C1620 C1621 1.363 . S
C1620 H1623 0.929 . S
C1621 C1620 1.363 . S
C1621 C1627 1.428 . S
H1622 C1618 0.930 . S
H1623 C1620 0.929 . S
S1624 N1625 1.613 . S
S1624 N1626 1.610 . S
N1625 S1624 1.613 . S
N1625 C1628 1.350 . S
N1626 S1624 1.610 . S
N1626 C1627 1.351 . S
C1627 C1621 1.428 . S
C1627 N1626 1.351 . S
C1627 C1628 1.434 . S
C1628 C1619 1.429 . S
C1628 N1625 1.350 . S
C1628 C1627 1.434 . S
C1629 C1630 1.369 . S
C1629 C1631 1.419 . S
C1629 H1633 0.930 . S
C1630 C1629 1.369 . S
C1630 C1639 1.429 . S
C1631 C1629 1.419 . S
C1631 C1632 1.363 . S
C1631 H1634 0.929 . S
C1632 C1631 1.363 . S
C1632 C1638 1.428 . S
H1633 C1629 0.930 . S
H1634 C1631 0.929 . S
S1635 N1636 1.613 . S
S1635 N1637 1.610 . S
N1636 S1635 1.613 . S
N1636 C1639 1.350 . S
N1637 S1635 1.610 . S
N1637 C1638 1.351 . S
C1638 C1632 1.428 . S
C1638 N1637 1.351 . S
C1638 C1639 1.434 . S
C1639 C1630 1.429 . S
C1639 N1636 1.350 . S
C1639 C1638 1.434 . S
C1640 C1641 1.369 . S
C1640 C1642 1.419 . S
C1640 H1644 0.930 . S
C1641 C1640 1.369 . S
C1641 C1650 1.429 . S
C1642 C1640 1.419 . S
C1642 C1643 1.363 . S
C1642 H1645 0.929 . S
C1643 C1642 1.363 . S
C1643 C1649 1.428 . S
H1644 C1640 0.930 . S
H1645 C1642 0.929 . S
S1646 N1647 1.613 . S
S1646 N1648 1.610 . S
N1647 S1646 1.613 . S
N1647 C1650 1.350 . S
N1648 S1646 1.610 . S
N1648 C1649 1.351 . S
C1649 C1643 1.428 . S
C1649 N1648 1.351 . S
C1649 C1650 1.434 . S
C1650 C1641 1.429 . S
C1650 N1647 1.350 . S
C1650 C1649 1.434 . S
C1651 C1652 1.369 . S
C1651 C1653 1.419 . S
C1651 H1655 0.930 . S
C1652 C1651 1.369 . S
C1652 C1661 1.429 . S
C1653 C1651 1.419 . S
C1653 C1654 1.363 . S
C1653 H1656 0.929 . S
C1654 C1653 1.363 . S
C1654 C1660 1.428 . S
H1655 C1651 0.930 . S
H1656 C1653 0.929 . S
S1657 N1658 1.613 . S
S1657 N1659 1.610 . S
N1658 S1657 1.613 . S
N1658 C1661 1.350 . S
N1659 S1657 1.610 . S
N1659 C1660 1.351 . S
C1660 C1654 1.428 . S
C1660 N1659 1.351 . S
C1660 C1661 1.434 . S
C1661 C1652 1.429 . S
C1661 N1658 1.350 . S
C1661 C1660 1.434 . S
C1662 C1663 1.369 . S
C1662 C1664 1.419 . S
C1662 H1666 0.930 . S
C1663 C1662 1.369 . S
C1663 C1672 1.429 . S
C1664 C1662 1.419 . S
C1664 C1665 1.363 . S
C1664 H1667 0.929 . S
C1665 C1664 1.363 . S
C1665 C1671 1.428 . S
H1666 C1662 0.930 . S
H1667 C1664 0.929 . S
S1668 N1669 1.613 . S
S1668 N1670 1.610 . S
N1669 S1668 1.613 . S
N1669 C1672 1.350 . S
N1670 S1668 1.610 . S
N1670 C1671 1.351 . S
C1671 C1665 1.428 . S
C1671 N1670 1.351 . S
C1671 C1672 1.434 . S
C1672 C1663 1.429 . S
C1672 N1669 1.350 . S
C1672 C1671 1.434 . S
C1673 C1674 1.369 . S
C1673 C1675 1.419 . S
C1673 H1677 0.930 . S
C1674 C1673 1.369 . S
C1674 C1683 1.429 . S
C1675 C1673 1.419 . S
C1675 C1676 1.363 . S
C1675 H1678 0.929 . S
C1676 C1675 1.363 . S
C1676 C1682 1.428 . S
H1677 C1673 0.930 . S
H1678 C1675 0.929 . S
S1679 N1680 1.613 . S
S1679 N1681 1.610 . S
N1680 S1679 1.613 . S
N1680 C1683 1.350 . S
N1681 S1679 1.610 . S
N1681 C1682 1.351 . S
C1682 C1676 1.428 . S
C1682 N1681 1.351 . S
C1682 C1683 1.434 . S
C1683 C1674 1.429 . S
C1683 N1680 1.350 . S
C1683 C1682 1.434 . S
C1684 C1685 1.369 . S
C1684 C1686 1.419 . S
C1684 H1688 0.930 . S
C1685 C1684 1.369 . S
C1685 C1694 1.429 . S
C1686 C1684 1.419 . S
C1686 C1687 1.363 . S
C1686 H1689 0.929 . S
C1687 C1686 1.363 . S
C1687 C1693 1.428 . S
H1688 C1684 0.930 . S
H1689 C1686 0.929 . S
S1690 N1691 1.613 . S
S1690 N1692 1.610 . S
N1691 S1690 1.613 . S
N1691 C1694 1.350 . S
N1692 S1690 1.610 . S
N1692 C1693 1.351 . S
C1693 C1687 1.428 . S
C1693 N1692 1.351 . S
C1693 C1694 1.434 . S
C1694 C1685 1.429 . S
C1694 N1691 1.350 . S
C1694 C1693 1.434 . S
C1695 C1696 1.369 . S
C1695 C1697 1.419 . S
C1695 H1699 0.930 . S
C1696 C1695 1.369 . S
C1696 C1705 1.429 . S
C1697 C1695 1.419 . S
C1697 C1698 1.363 . S
C1697 H1700 0.929 . S
C1698 C1697 1.363 . S
C1698 C1704 1.428 . S
H1699 C1695 0.930 . S
H1700 C1697 0.929 . S
S1701 N1702 1.613 . S
S1701 N1703 1.610 . S
N1702 S1701 1.613 . S
N1702 C1705 1.350 . S
N1703 S1701 1.610 . S
N1703 C1704 1.351 . S
C1704 C1698 1.428 . S
C1704 N1703 1.351 . S
C1704 C1705 1.434 . S
C1705 C1696 1.429 . S
C1705 N1702 1.350 . S
C1705 C1704 1.434 . S
C1706 C1707 1.369 . S
C1706 C1708 1.419 . S
C1706 H1710 0.930 . S
C1707 C1706 1.369 . S
C1707 C1716 1.429 . S
C1708 C1706 1.419 . S
C1708 C1709 1.363 . S
C1708 H1711 0.929 . S
C1709 C1708 1.363 . S
C1709 C1715 1.428 . S
H1710 C1706 0.930 . S
H1711 C1708 0.929 . S
S1712 N1713 1.613 . S
S1712 N1714 1.610 . S
N1713 S1712 1.613 . S
N1713 C1716 1.350 . S
N1714 S1712 1.610 . S
N1714 C1715 1.351 . S
C1715 C1709 1.428 . S
C1715 N1714 1.351 . S
C1715 C1716 1.434 . S
C1716 C1707 1.429 . S
C1716 N1713 1.350 . S
C1716 C1715 1.434 . S
C1717 C1718 1.369 . S
C1717 C1719 1.419 . S
C1717 H1721 0.930 . S
C1718 C1717 1.369 . S
C1718 C1727 1.429 . S
C1719 C1717 1.419 . S
C1719 C1720 1.363 . S
C1719 H1722 0.929 . S
C1720 C1719 1.363 . S
C1720 C1726 1.428 . S
H1721 C1717 0.930 . S
H1722 C1719 0.929 . S
S1723 N1724 1.613 . S
S1723 N1725 1.610 . S
N1724 S1723 1.613 . S
N1724 C1727 1.350 . S
N1725 S1723 1.610 . S
N1725 C1726 1.351 . S
C1726 C1720 1.428 . S
C1726 N1725 1.351 . S
C1726 C1727 1.434 . S
C1727 C1718 1.429 . S
C1727 N1724 1.350 . S
C1727 C1726 1.434 . S
C673 C137 1.680 . S
C675 C11 1.681 . S
C684 C151 1.681 . S
C686 C25 1.680 . S
C695 C165 1.687 . S
C697 C39 1.675 . S
C706 C53 1.677 . S
C708 C123 1.684 . S
C717 C221 1.688 . S
C719 C67 1.675 . S
C728 C81 1.688 . S
C730 C179 1.675 . S
C739 C193 1.678 . S
C741 C95 1.683 . S
C750 C207 1.687 . S
C752 C109 1.676 . S
C761 C235 1.687 . S
C763 C263 1.676 . S
C772 C249 1.675 . S
C774 C319 1.684 . S
C783 C277 1.674 . S
C785 C333 1.686 . S
C794 C291 1.674 . S
C796 C305 1.686 . S
C805 C347 1.678 . S
C807 C473 1.684 . S
C816 C487 1.682 . S
C818 C361 1.681 . S
C827 C375 1.677 . S
C829 C501 1.683 . S
C838 C389 1.680 . S
C840 C459 1.682 . S
C849 C557 1.676 . S
C851 C403 1.684 . S
C860 C515 1.683 . S
C862 C417 1.678 . S
C871 C529 1.673 . S
C873 C431 1.686 . S
C882 C543 1.675 . S
C884 C445 1.685 . S
C893 C571 1.676 . S
C895 C599 1.685 . S
C904 C585 1.687 . S
C906 C655 1.676 . S
C915 C613 1.674 . S
C917 C669 1.686 . S
C926 C641 1.675 . S
C928 C627 1.685 . S
C937 C120 1.104 . S
C939 C7 1.303 . S
C948 C134 1.093 . S
C950 C21 1.302 . S
C959 C35 1.302 . S
C961 C148 1.098 . S
C970 C49 1.303 . S
C972 C162 1.088 . S
C981 C63 1.304 . S
C983 C176 1.093 . S
C992 C77 1.302 . S
C994 C190 1.085 . S
C1003 C91 1.304 . S
C1005 C204 1.098 . S
C1014 C218 1.098 . S
C1016 C105 1.304 . S
C1025 C119 1.303 . S
C1027 C232 1.090 . S
C1036 C330 1.097 . S
C1038 C133 1.302 . S
C1047 C147 1.302 . S
C1049 C302 1.097 . S
C1058 C161 1.304 . S
C1060 C316 1.097 . S
C1069 C175 1.304 . S
C1071 C246 1.100 . S
C1080 C189 1.304 . S
C1082 C260 1.093 . S
C1091 C203 1.302 . S
C1093 C274 1.097 . S
C1102 C288 1.098 . S
C1104 C217 1.303 . S
C1113 C8 1.089 . S
C1115 C231 1.302 . S
C1124 C245 1.304 . S
C1126 C64 1.093 . S
C1135 C259 1.302 . S
C1137 C78 1.093 . S
C1146 C273 1.303 . S
C1148 C92 1.090 . S
C1157 C106 1.098 . S
C1159 C287 1.302 . S
C1168 C301 1.302 . S
C1170 C36 1.084 . S
C1179 C315 1.303 . S
C1181 C50 1.101 . S
C1190 C22 1.097 . S
C1192 C329 1.303 . S
C1201 C456 1.088 . S
C1203 C343 1.303 . S
C1212 C357 1.304 . S
C1214 C470 1.093 . S
C1223 C371 1.303 . S
C1225 C484 1.090 . S
C1234 C498 1.085 . S
C1236 C385 1.302 . S
C1245 C512 1.082 . S
C1247 C399 1.302 . S
C1256 C413 1.304 . S
C1258 C526 1.095 . S
C1267 C540 1.100 . S
C1269 C427 1.303 . S
C1278 C554 1.093 . S
C1280 C441 1.303 . S
C1289 C455 1.304 . S
C1291 C568 1.099 . S
C1300 C469 1.302 . S
C1302 C666 1.099 . S
C1311 C483 1.302 . S
C1313 C638 1.091 . S
C1322 C652 1.083 . S
C1324 C497 1.302 . S
C1333 C511 1.303 . S
C1335 C582 1.085 . S
C1344 C525 1.302 . S
C1346 C596 1.085 . S
C1355 C610 1.087 . S
C1357 C539 1.303 . S
C1366 C624 1.101 . S
C1368 C553 1.303 . S
C1377 C567 1.303 . S
C1379 C344 1.085 . S
C1388 C581 1.303 . S
C1390 C400 1.101 . S
C1399 C414 1.089 . S
C1401 C595 1.303 . S
C1410 C609 1.304 . S
C1412 C428 1.100 . S
C1421 C623 1.302 . S
C1423 C442 1.093 . S
C1432 C372 1.085 . S
C1434 C637 1.302 . S
C1443 C651 1.303 . S
C1445 C386 1.101 . S
C1454 C358 1.099 . S
C1456 C665 1.302 . S
C1465 C447 1.311 . S
C1467 C13 1.309 . S
C1476 C27 1.315 . S
C1478 C405 1.315 . S
C1487 C419 1.314 . S
C1489 C41 1.314 . S
C1498 C433 1.311 . S
C1500 C55 1.312 . S
C1509 C69 1.301 . S
C1511 C363 1.303 . S
C1520 C377 1.302 . S
C1522 C83 1.305 . S
C1531 C391 1.301 . S
C1533 C97 1.304 . S
C1542 C111 1.312 . S
C1544 C349 1.310 . S
C1553 C629 1.302 . S
C1555 C125 1.303 . S
C1564 C139 1.316 . S
C1566 C587 1.313 . S
C1575 C153 1.303 . S
C1577 C601 1.304 . S
C1586 C615 1.312 . S
C1588 C167 1.313 . S
C1597 C671 1.319 . S
C1599 C181 1.317 . S
C1608 C643 1.311 . S
C1610 C195 1.312 . S
C1619 C209 1.310 . S
C1621 C657 1.308 . S
C1630 C573 1.306 . S
C1632 C223 1.306 . S
C1641 C237 1.311 . S
C1643 C559 1.312 . S
C1652 C475 1.304 . S
C1654 C251 1.305 . S
C1663 C265 1.306 . S
C1665 C489 1.309 . S
C1674 C503 1.308 . S
C1676 C279 1.307 . S
C1685 C461 1.301 . S
C1687 C293 1.304 . S
C1696 C307 1.304 . S
C1698 C531 1.304 . S
C1707 C545 1.316 . S
C1709 C321 1.313 . S
C1718 C517 1.314 . S
C1720 C335 1.312 . S
