# Generated by pormake.
# Topology uol, (4)-cn, num edge types: 1
# Building blocks:
#     Node 0, Type 0, BuildingBlock: KOZSID_clean_sbu_0, # of connection points: 4
#     Node 1, Type 0, BuildingBlock: KOZSID_clean_sbu_0, # of connection points: 4
#     Node 2, Type 0, BuildingBlock: KOZSID_clean_sbu_0, # of connection points: 4
#     Node 3, Type 0, BuildingBlock: KOZSID_clean_sbu_0, # of connection points: 4
#     Node 4, Type 0, BuildingBlock: KOZSID_clean_sbu_0, # of connection points: 4
#     Node 5, Type 0, BuildingBlock: KOZSID_clean_sbu_0, # of connection points: 4
#     Node 6, Type 0, BuildingBlock: KOZSID_clean_sbu_0, # of connection points: 4
#     Node 7, Type 0, BuildingBlock: KOZSID_clean_sbu_0, # of connection points: 4
#     Node 8, Type 0, BuildingBlock: KOZSID_clean_sbu_0, # of connection points: 4
#     Node 9, Type 0, BuildingBlock: KOZSID_clean_sbu_0, # of connection points: 4
#     Node 10, Type 0, BuildingBlock: KOZSID_clean_sbu_0, # of connection points: 4
#     Node 11, Type 0, BuildingBlock: KOZSID_clean_sbu_0, # of connection points: 4
#     Edge 12, Type (0, 0), BuildingBlock: MIFKUJ_clean_linker_0, # of connection points: 2
#     Edge 13, Type (0, 0), BuildingBlock: MIFKUJ_clean_linker_0, # of connection points: 2
#     Edge 14, Type (0, 0), BuildingBlock: MIFKUJ_clean_linker_0, # of connection points: 2
#     Edge 15, Type (0, 0), BuildingBlock: MIFKUJ_clean_linker_0, # of connection points: 2
#     Edge 16, Type (0, 0), BuildingBlock: MIFKUJ_clean_linker_0, # of connection points: 2
#     Edge 17, Type (0, 0), BuildingBlock: MIFKUJ_clean_linker_0, # of connection points: 2
#     Edge 18, Type (0, 0), BuildingBlock: MIFKUJ_clean_linker_0, # of connection points: 2
#     Edge 19, Type (0, 0), BuildingBlock: MIFKUJ_clean_linker_0, # of connection points: 2
#     Edge 20, Type (0, 0), BuildingBlock: MIFKUJ_clean_linker_0, # of connection points: 2
#     Edge 21, Type (0, 0), BuildingBlock: MIFKUJ_clean_linker_0, # of connection points: 2
#     Edge 22, Type (0, 0), BuildingBlock: MIFKUJ_clean_linker_0, # of connection points: 2
#     Edge 23, Type (0, 0), BuildingBlock: MIFKUJ_clean_linker_0, # of connection points: 2
#     Edge 24, Type (0, 0), BuildingBlock: MIFKUJ_clean_linker_0, # of connection points: 2
#     Edge 25, Type (0, 0), BuildingBlock: MIFKUJ_clean_linker_0, # of connection points: 2
#     Edge 26, Type (0, 0), BuildingBlock: MIFKUJ_clean_linker_0, # of connection points: 2
#     Edge 27, Type (0, 0), BuildingBlock: MIFKUJ_clean_linker_0, # of connection points: 2
#     Edge 28, Type (0, 0), BuildingBlock: MIFKUJ_clean_linker_0, # of connection points: 2
#     Edge 29, Type (0, 0), BuildingBlock: MIFKUJ_clean_linker_0, # of connection points: 2
#     Edge 30, Type (0, 0), BuildingBlock: MIFKUJ_clean_linker_0, # of connection points: 2
#     Edge 31, Type (0, 0), BuildingBlock: MIFKUJ_clean_linker_0, # of connection points: 2
#     Edge 32, Type (0, 0), BuildingBlock: MIFKUJ_clean_linker_0, # of connection points: 2
#     Edge 33, Type (0, 0), BuildingBlock: MIFKUJ_clean_linker_0, # of connection points: 2
#     Edge 34, Type (0, 0), BuildingBlock: MIFKUJ_clean_linker_0, # of connection points: 2
#     Edge 35, Type (0, 0), BuildingBlock: MIFKUJ_clean_linker_0, # of connection points: 2
# Relax obj value: 0.142
# Max RMSD: 0.325
# Mean RMSD: 0.313
data_MOF--net-uol--node1-KOZSID_clean_sbu_0--edge1-MIFKUJ_clean_linker_0
_symmetry_space_group_name_H-M    P1
_symmetry_Int_Tables_number       1
_symmetry_cell_setting            triclinic
loop_
_symmetry_equiv_pos_as_xyz
'x, y, z'
_cell_length_a     52.28914
_cell_length_b     55.077792
_cell_length_c     84.683309
_cell_angle_alpha  90.144055
_cell_angle_beta   89.943614
_cell_angle_gamma 118.37063
loop_
_atom_site_label
_atom_site_type_symbol
_atom_site_fract_x
_atom_site_fract_y
_atom_site_fract_z
_atom_type_partial_charge
C0 C 0.17325 0.34466 0.09269 0.0
C1 C 0.16561 0.33488 0.07737 0.0
C2 C 0.13671 0.32757 0.07568 0.0
C3 C 0.12841 0.33342 0.08999 0.0
N4 N 0.15033 0.34401 0.10047 0.0
Co5 Co 0.14803 0.35559 0.12231 0.0
N6 N 0.10532 0.33182 0.12296 0.0
C7 C 0.08792 0.32174 0.11025 0.0
C8 C 0.05909 0.30664 0.11418 0.0
C9 C 0.0583 0.30749 0.13036 0.0
C10 C 0.08683 0.32312 0.13544 0.0
N11 N 0.14541 0.3676 0.1441 0.0
C12 C 0.12355 0.35622 0.15486 0.0
C13 C 0.13104 0.37176 0.16864 0.0
C14 C 0.15821 0.39376 0.16624 0.0
C15 C 0.16595 0.39048 0.15118 0.0
N16 N 0.1908 0.37882 0.12148 0.0
C17 C 0.20675 0.40012 0.13112 0.0
C18 C 0.23608 0.41069 0.12848 0.0
C19 C 0.23852 0.39498 0.11648 0.0
C20 C 0.21045 0.37571 0.11232 0.0
N21 N 0.14293 0.38669 0.11407 0.0
C22 C 0.14093 0.43539 0.10521 0.0
C23 C 0.16013 0.42768 0.09786 0.0
C24 C 0.16081 0.40344 0.10244 0.0
C25 C 0.12197 0.41738 0.11666 0.0
C26 C 0.12317 0.39325 0.12081 0.0
N27 N 0.15421 0.32544 0.13072 0.0
C28 C 0.18172 0.31237 0.14836 0.0
C29 C 0.17372 0.2878 0.14 0.0
C30 C 0.15382 0.28161 0.12748 0.0
C31 C 0.14407 0.30055 0.12316 0.0
C32 C 0.17218 0.33083 0.14346 0.0
H33 H 0.12938 0.29561 0.11328 0.0
H34 H 0.18067 0.35015 0.14966 0.0
H35 H 0.17648 0.39869 0.09687 0.0
H36 H 0.10854 0.38029 0.12984 0.0
C37 C 0.09974 0.32395 0.0951 0.0
C38 C 0.2025 0.35525 0.0994 0.0
C39 C 0.09504 0.33181 0.15194 0.0
C40 C 0.19383 0.40515 0.14444 0.0
H41 H 0.17939 0.33299 0.06844 0.0
H42 H 0.12307 0.31775 0.06554 0.0
H43 H 0.04085 0.29584 0.10627 0.0
H44 H 0.03887 0.29825 0.13755 0.0
H45 H 0.11828 0.36771 0.17931 0.0
H46 H 0.1712 0.40959 0.17471 0.0
H47 H 0.25368 0.42673 0.13514 0.0
H48 H 0.25866 0.39724 0.11163 0.0
H49 H 0.17532 0.44076 0.08899 0.0
H50 H 0.10627 0.42191 0.12248 0.0
H51 H 0.19598 0.31787 0.1585 0.0
H52 H 0.14666 0.26286 0.12066 0.0
C53 C 0.72978 0.15478 0.28999 0.0
C54 C 0.72104 0.17318 0.29601 0.0
C55 C 0.7388 0.18629 0.3085 0.0
C56 C 0.75778 0.17574 0.30927 0.0
N57 N 0.75357 0.15708 0.29786 0.0
Co58 Co 0.77784 0.13836 0.29452 0.0
N59 N 0.80857 0.16403 0.30924 0.0
C60 C 0.80559 0.18058 0.31996 0.0
C61 C 0.83036 0.19592 0.32857 0.0
C62 C 0.85026 0.18859 0.32292 0.0
C63 C 0.83646 0.1692 0.31108 0.0
N64 N 0.80215 0.11984 0.2912 0.0
C65 C 0.83069 0.12878 0.29452 0.0
C66 C 0.83897 0.1093 0.29 0.0
C67 C 0.81469 0.08737 0.28382 0.0
C68 C 0.79301 0.09467 0.28484 0.0
N69 N 0.74659 0.11251 0.27994 0.0
C70 C 0.74363 0.08804 0.27498 0.0
C71 C 0.7193 0.07344 0.2659 0.0
C72 C 0.70573 0.08944 0.26528 0.0
C73 C 0.72261 0.11312 0.274 0.0
N74 N 0.79867 0.16315 0.27672 0.0
C75 C 0.84344 0.19574 0.25529 0.0
C76 C 0.82481 0.16764 0.25241 0.0
C77 C 0.80273 0.15187 0.26314 0.0
C78 C 0.83699 0.20769 0.26838 0.0
C79 C 0.81437 0.19113 0.27882 0.0
N80 N 0.75836 0.11294 0.31236 0.0
C81 C 0.71545 0.07704 0.32498 0.0
C82 C 0.73258 0.07071 0.33527 0.0
C83 C 0.76281 0.08683 0.33413 0.0
C84 C 0.7751 0.10758 0.32276 0.0
C85 C 0.72872 0.09836 0.31375 0.0
H86 H 0.79843 0.1185 0.32204 0.0
H87 H 0.71496 0.10247 0.30594 0.0
H88 H 0.79042 0.13006 0.26095 0.0
H89 H 0.81101 0.20071 0.28917 0.0
C90 C 0.78147 0.18494 0.3195 0.0
C91 C 0.71323 0.1339 0.27784 0.0
C92 C 0.84988 0.15481 0.30267 0.0
C93 C 0.76544 0.08068 0.2779 0.0
H94 H 0.70338 0.17659 0.29199 0.0
H95 H 0.73831 0.20209 0.31593 0.0
H96 H 0.83395 0.21147 0.3374 0.0
H97 H 0.87238 0.19661 0.32708 0.0
H98 H 0.86028 0.11075 0.29107 0.0
H99 H 0.81332 0.06878 0.27867 0.0
H100 H 0.71228 0.05356 0.26034 0.0
H101 H 0.68525 0.08386 0.25948 0.0
H102 H 0.8279 0.15745 0.2422 0.0
H103 H 0.85031 0.22935 0.27111 0.0
H104 H 0.69196 0.06552 0.3255 0.0
H105 H 0.77718 0.08276 0.34156 0.0
C106 C 0.66182 0.81569 0.43015 0.0
C107 C 0.6741 0.81843 0.4153 0.0
C108 C 0.68391 0.79932 0.41444 0.0
C109 C 0.6771 0.78604 0.42877 0.0
N110 N 0.66358 0.7956 0.4385 0.0
Co111 Co 0.65075 0.78302 0.46036 0.0
N112 N 0.67779 0.76736 0.46228 0.0
C113 C 0.69043 0.76123 0.45016 0.0
C114 C 0.70811 0.75059 0.45503 0.0
C115 C 0.70626 0.74974 0.47119 0.0
C116 C 0.68732 0.75982 0.47533 0.0
N117 N 0.63764 0.7701 0.48217 0.0
C118 C 0.65023 0.76202 0.49358 0.0
C119 C 0.63301 0.75376 0.50702 0.0
C120 C 0.60882 0.75667 0.5038 0.0
C121 C 0.6125 0.76647 0.4886 0.0
N122 N 0.62413 0.79906 0.45831 0.0
C123 C 0.60054 0.7927 0.46723 0.0
C124 C 0.58712 0.80815 0.46333 0.0
C125 C 0.60341 0.8252 0.45123 0.0
C126 C 0.62593 0.81921 0.44843 0.0
N127 N 0.61998 0.74719 0.45223 0.0
C128 C 0.57208 0.69637 0.44298 0.0
C129 C 0.57801 0.7213 0.43553 0.0
C130 C 0.60201 0.74629 0.44022 0.0
C131 C 0.5914 0.69759 0.45486 0.0
C132 C 0.61498 0.72298 0.45929 0.0
N133 N 0.68066 0.81866 0.46865 0.0
C134 C 0.69286 0.85759 0.48587 0.0
C135 C 0.72047 0.87202 0.47907 0.0
C136 C 0.72798 0.85885 0.4671 0.0
C137 C 0.7079 0.83204 0.4622 0.0
C138 C 0.67337 0.83122 0.48047 0.0
H139 H 0.71416 0.82236 0.45297 0.0
H140 H 0.65201 0.82134 0.48563 0.0
H141 H 0.60567 0.76502 0.43431 0.0
H142 H 0.62874 0.723 0.46877 0.0
C143 C 0.68855 0.76951 0.43474 0.0
C144 C 0.6479 0.83171 0.4359 0.0
C145 C 0.67702 0.75974 0.49153 0.0
C146 C 0.59566 0.7767 0.48095 0.0
H147 H 0.67609 0.83291 0.40615 0.0
H148 H 0.6961 0.79664 0.40488 0.0
H149 H 0.72148 0.74493 0.44774 0.0
H150 H 0.71734 0.74227 0.479 0.0
H151 H 0.63733 0.74617 0.51792 0.0
H152 H 0.59116 0.75292 0.51178 0.0
H153 H 0.56863 0.80812 0.46911 0.0
H154 H 0.59933 0.84034 0.44522 0.0
H155 H 0.5642 0.7216 0.42609 0.0
H156 H 0.58787 0.67915 0.46113 0.0
H157 H 0.68589 0.86698 0.49499 0.0
H158 H 0.74919 0.86917 0.46158 0.0
C159 C 0.8609 0.68328 0.59201 0.0
C160 C 0.86822 0.69356 0.57678 0.0
C161 C 0.89709 0.701 0.57483 0.0
C162 C 0.9057 0.69478 0.5889 0.0
N163 N 0.884 0.68383 0.5995 0.0
Co164 Co 0.88685 0.67235 0.62125 0.0
N165 N 0.92964 0.69609 0.6216 0.0
C166 C 0.94669 0.7065 0.60879 0.0
C167 C 0.97558 0.72191 0.61253 0.0
C168 C 0.97683 0.72088 0.62866 0.0
C169 C 0.94852 0.70469 0.63391 0.0
N170 N 0.88991 0.66061 0.64299 0.0
C171 C 0.91217 0.67185 0.65353 0.0
C172 C 0.90527 0.65616 0.66719 0.0
C173 C 0.87791 0.63431 0.665 0.0
C174 C 0.86956 0.63776 0.65015 0.0
N175 N 0.84408 0.64902 0.62071 0.0
C176 C 0.8284 0.62759 0.63026 0.0
C177 C 0.79901 0.61645 0.62753 0.0
C178 C 0.79627 0.63195 0.61555 0.0
C179 C 0.8242 0.65172 0.61159 0.0
N180 N 0.89174 0.64111 0.61284 0.0
C181 C 0.89348 0.59218 0.60388 0.0
C182 C 0.87358 0.59946 0.59702 0.0
C183 C 0.8732 0.62391 0.60154 0.0
C184 C 0.91322 0.61073 0.61491 0.0
C185 C 0.91199 0.63486 0.6192 0.0
N186 N 0.88096 0.70264 0.62986 0.0
C187 C 0.85381 0.7163 0.64753 0.0
C188 C 0.86464 0.74212 0.64024 0.0
C189 C 0.88462 0.748 0.62781 0.0
C190 C 0.8927 0.7281 0.6229 0.0
C191 C 0.86216 0.6971 0.64223 0.0
H192 H 0.90779 0.73299 0.61322 0.0
H193 H 0.85232 0.67722 0.64784 0.0
H194 H 0.8573 0.62852 0.59616 0.0
H195 H 0.92696 0.64801 0.62807 0.0
C196 C 0.93449 0.70442 0.59379 0.0
C197 C 0.83174 0.67223 0.59885 0.0
C198 C 0.94082 0.6958 0.6504 0.0
C199 C 0.84159 0.62277 0.64352 0.0
H200 H 0.85426 0.69572 0.5681 0.0
H201 H 0.91054 0.7112 0.5647 0.0
H202 H 0.99353 0.73312 0.60452 0.0
H203 H 0.99643 0.73055 0.63571 0.0
H204 H 0.91876 0.65992 0.67755 0.0
H205 H 0.86533 0.61828 0.67343 0.0
H206 H 0.78156 0.60007 0.63406 0.0
H207 H 0.7761 0.62921 0.61047 0.0
H208 H 0.85822 0.5863 0.5882 0.0
H209 H 0.92896 0.60625 0.62067 0.0
H210 H 0.83798 0.71038 0.65696 0.0
H211 H 0.89387 0.76775 0.62187 0.0
C212 C 0.30714 0.87315 0.79045 0.0
C213 C 0.31562 0.85369 0.79474 0.0
C214 C 0.29476 0.83562 0.80472 0.0
C215 C 0.27462 0.8448 0.80587 0.0
N216 N 0.28131 0.86758 0.79727 0.0
Co217 Co 0.25635 0.88585 0.79503 0.0
N218 N 0.23208 0.86595 0.81377 0.0
C219 C 0.23219 0.84427 0.82104 0.0
C220 C 0.21349 0.83452 0.83359 0.0
C221 C 0.20017 0.85064 0.83414 0.0
C222 C 0.2115 0.86945 0.82181 0.0
N223 N 0.23116 0.90371 0.79257 0.0
C224 C 0.20926 0.90258 0.80179 0.0
C225 C 0.19649 0.91706 0.79496 0.0
C226 C 0.21027 0.92697 0.78084 0.0
C227 C 0.23073 0.91813 0.77984 0.0
N228 N 0.28141 0.90583 0.77651 0.0
C229 C 0.27501 0.9199 0.76563 0.0
C230 C 0.29647 0.93246 0.75454 0.0
C231 C 0.3177 0.92573 0.75856 0.0
C232 C 0.30791 0.90909 0.77185 0.0
N233 N 0.22903 0.85583 0.78077 0.0
C234 C 0.18677 0.82433 0.75775 0.0
C235 C 0.21664 0.83443 0.7548 0.0
C236 C 0.23741 0.84998 0.76651 0.0
C237 C 0.17879 0.82815 0.77291 0.0
C238 C 0.19987 0.84367 0.78406 0.0
N239 N 0.28219 0.91649 0.80918 0.0
C240 C 0.30268 0.96507 0.81541 0.0
C241 C 0.30636 0.96047 0.83134 0.0
C242 C 0.29984 0.93339 0.83555 0.0
C243 C 0.28813 0.91186 0.8243 0.0
C244 C 0.29059 0.94308 0.80468 0.0
H245 H 0.28256 0.89126 0.82808 0.0
H246 H 0.28674 0.94768 0.79289 0.0
H247 H 0.26016 0.8583 0.76369 0.0
H248 H 0.19188 0.84696 0.795 0.0
C249 C 0.25154 0.83487 0.81648 0.0
C250 C 0.32353 0.89552 0.77915 0.0
C251 C 0.19782 0.88583 0.81618 0.0
C252 C 0.25099 0.92434 0.76767 0.0
H253 H 0.33476 0.85247 0.79099 0.0
H254 H 0.2947 0.81828 0.81074 0.0
H255 H 0.20981 0.81758 0.84134 0.0
H256 H 0.18297 0.84778 0.84224 0.0
H257 H 0.17852 0.91953 0.79954 0.0
H258 H 0.20587 0.93913 0.77233 0.0
H259 H 0.29716 0.94584 0.74503 0.0
H260 H 0.33807 0.93247 0.7524 0.0
H261 H 0.22398 0.83154 0.74333 0.0
H262 H 0.1561 0.82 0.77607 0.0
H263 H 0.30839 0.98556 0.81119 0.0
H264 H 0.30247 0.92847 0.8476 0.0
C265 C 0.37307 0.21091 0.93057 0.0
C266 C 0.35978 0.20706 0.91593 0.0
C267 C 0.34945 0.22578 0.91502 0.0
C268 C 0.35696 0.23994 0.92911 0.0
N269 N 0.37138 0.23127 0.93873 0.0
Co270 Co 0.38506 0.24501 0.96035 0.0
N271 N 0.35731 0.25979 0.96249 0.0
C272 C 0.34403 0.26527 0.95047 0.0
C273 C 0.32619 0.27569 0.95549 0.0
C274 C 0.3286 0.277 0.97165 0.0
C275 C 0.34785 0.26726 0.97562 0.0
N276 N 0.39897 0.25911 0.98192 0.0
C277 C 0.38637 0.26705 0.99344 0.0
C278 C 0.40411 0.27611 0.00667 0.0
C279 C 0.42866 0.27393 1.00317 0.0
C280 C 0.42464 0.26368 0.98803 0.0
N281 N 0.41234 0.22974 0.95809 0.0
C282 C 0.43646 0.23704 0.96671 0.0
C283 C 0.45021 0.22186 0.96279 0.0
C284 C 0.43355 0.20399 0.95103 0.0
C285 C 0.41048 0.20925 0.94843 0.0
N286 N 0.41487 0.2808 0.95168 0.0
C287 C 0.46244 0.3316 0.94215 0.0
C288 C 0.45653 0.30655 0.93477 0.0
C289 C 0.43268 0.28159 0.9396 0.0
C290 C 0.44314 0.33052 0.95403 0.0
C291 C 0.41972 0.30515 0.9586 0.0
N292 N 0.35627 0.20945 0.96917 0.0
C293 C 0.34669 0.17121 0.98629 0.0
C294 C 0.31913 0.15537 0.9796 0.0
C295 C 0.30998 0.16792 0.96806 0.0
C296 C 0.32881 0.19503 0.96308 0.0
C297 C 0.3648 0.19784 0.98089 0.0
H298 H 0.32155 0.20401 0.95397 0.0
H299 H 0.38621 0.20869 0.98594 0.0
H300 H 0.42911 0.26276 0.93379 0.0
H301 H 0.40605 0.30522 0.96812 0.0
C302 C 0.34537 0.25643 0.93508 0.0
C303 C 0.38785 0.19566 0.93628 0.0
C304 C 0.35869 0.26785 0.99173 0.0
C305 C 0.44161 0.25364 0.98026 0.0
H306 H 0.35743 0.19209 0.90698 0.0
H307 H 0.33647 0.2276 0.90561 0.0
H308 H 0.31239 0.28092 0.94833 0.0
H309 H 0.31775 0.2846 0.97958 0.0
H310 H 0.39982 0.2836 0.01765 0.0
H311 H 0.44673 0.27833 0.01097 0.0
H312 H 0.46917 0.22259 0.96838 0.0
H313 H 0.43772 0.18877 0.94513 0.0
H314 H 0.47029 0.30613 0.92533 0.0
H315 H 0.44662 0.34907 0.96022 0.0
H316 H 0.35459 0.163 0.99557 0.0
H317 H 0.28886 0.15665 0.96253 0.0
C318 C 0.58618 0.87125 0.71928 0.0
C319 C 0.55826 0.85149 0.71508 0.0
C320 C 0.56114 0.83341 0.70512 0.0
C321 C 0.59049 0.84286 0.70388 0.0
N322 N 0.60652 0.86583 0.71242 0.0
Co323 Co 0.6498 0.88449 0.71455 0.0
N324 N 0.65418 0.86457 0.69577 0.0
C325 C 0.63241 0.84277 0.6885 0.0
C326 C 0.64136 0.83308 0.67591 0.0
C327 C 0.67079 0.84936 0.67533 0.0
C328 C 0.67827 0.86819 0.6877 0.0
N329 N 0.69291 0.90266 0.71695 0.0
C330 C 0.71366 0.90145 0.70775 0.0
C331 C 0.74096 0.91612 0.71456 0.0
C332 C 0.73712 0.9262 0.72865 0.0
C333 C 0.70781 0.91729 0.72966 0.0
N334 N 0.64471 0.90464 0.73303 0.0
C335 C 0.66529 0.91911 0.74383 0.0
C336 C 0.65637 0.93179 0.75485 0.0
C337 C 0.62829 0.92474 0.75088 0.0
C338 C 0.62138 0.90778 0.73769 0.0
N339 N 0.64755 0.85476 0.72883 0.0
C340 C 0.65898 0.82357 0.7517 0.0
C341 C 0.63958 0.834 0.7549 0.0
C342 C 0.63398 0.84934 0.74326 0.0
C343 C 0.67002 0.8269 0.73638 0.0
C344 C 0.66421 0.84232 0.72533 0.0
N345 N 0.65409 0.91482 0.70039 0.0
C346 C 0.68159 0.9633 0.69384 0.0
C347 C 0.67162 0.95829 0.67819 0.0
C348 C 0.65118 0.93104 0.67421 0.0
C349 C 0.64245 0.90976 0.68549 0.0
C350 C 0.67267 0.94153 0.70462 0.0
H351 H 0.62719 0.88906 0.68194 0.0
H352 H 0.68214 0.94637 0.7162 0.0
H353 H 0.61977 0.85782 0.74627 0.0
H354 H 0.67501 0.84524 0.71426 0.0
C355 C 0.60368 0.83309 0.69318 0.0
C356 C 0.59207 0.8938 0.73047 0.0
C357 C 0.70833 0.88456 0.69338 0.0
C358 C 0.69378 0.92365 0.74179 0.0
H359 H 0.53785 0.85011 0.71888 0.0
H360 H 0.5439 0.8159 0.69913 0.0
H361 H 0.62811 0.81603 0.66817 0.0
H362 H 0.68513 0.84653 0.66721 0.0
H363 H 0.76141 0.9186 0.70999 0.0
H364 H 0.75373 0.93854 0.73714 0.0
H365 H 0.66912 0.94545 0.7643 0.0
H366 H 0.61462 0.93148 0.75702 0.0
H367 H 0.62988 0.8315 0.76649 0.0
H368 H 0.68415 0.8184 0.73299 0.0
H369 H 0.69744 0.98378 0.69762 0.0
H370 H 0.64225 0.92607 0.66239 0.0
C371 C 0.8444 0.68437 0.91759 0.0
C372 C 0.84746 0.69488 0.93279 0.0
C373 C 0.82614 0.70246 0.93468 0.0
C374 C 0.81124 0.69606 0.92061 0.0
N375 N 0.82186 0.68487 0.91007 0.0
Co376 Co 0.80743 0.6731 0.88831 0.0
N377 N 0.78834 0.69679 0.88788 0.0
C378 C 0.78193 0.70754 0.90064 0.0
C379 C 0.76867 0.72309 0.89684 0.0
C380 C 0.76628 0.72179 0.8807 0.0
C381 C 0.77807 0.70526 0.87552 0.0
N382 N 0.79258 0.66107 0.86658 0.0
C383 C 0.78153 0.67215 0.85599 0.0
C384 C 0.77266 0.65624 0.84236 0.0
C385 C 0.7782 0.63444 0.84462 0.0
C386 C 0.79006 0.63814 0.85947 0.0
N387 N 0.82692 0.64982 0.88892 0.0
C388 C 0.82114 0.62827 0.8794 0.0
C389 C 0.83941 0.6172 0.88215 0.0
C390 C 0.85771 0.63285 0.89412 0.0
C391 C 0.84952 0.65262 0.89806 0.0
N392 N 0.77135 0.64194 0.89676 0.0
C393 C 0.72073 0.5932 0.90588 0.0
C394 C 0.74799 0.60049 0.91265 0.0
C395 C 0.77279 0.62487 0.90806 0.0
C396 C 0.71942 0.61162 0.89485 0.0
C397 C 0.74477 0.63564 0.89046 0.0
N398 N 0.84357 0.70334 0.87971 0.0
C399 C 0.88447 0.71696 0.86214 0.0
C400 C 0.89932 0.74291 0.86938 0.0
C401 C 0.8851 0.74886 0.88172 0.0
C402 C 0.85715 0.72891 0.88661 0.0
C403 C 0.85692 0.69771 0.86741 0.0
H404 H 0.84688 0.73386 0.89624 0.0
H405 H 0.84695 0.67775 0.86183 0.0
H406 H 0.79336 0.62953 0.9134 0.0
H407 H 0.74289 0.64868 0.88158 0.0
C408 C 0.79216 0.70571 0.91565 0.0
C409 C 0.86249 0.67323 0.9108 0.0
C410 C 0.77671 0.69605 0.85905 0.0
C411 C 0.80307 0.62326 0.86615 0.0
H412 H 0.86359 0.69709 0.94148 0.0
H413 H 0.82302 0.71288 0.94477 0.0
H414 H 0.76222 0.73462 0.90478 0.0
H415 H 0.75659 0.73159 0.87362 0.0
H416 H 0.76286 0.65981 0.83199 0.0
H417 H 0.7747 0.61829 0.83624 0.0
H418 H 0.84047 0.60076 0.87564 0.0
H419 H 0.87518 0.63019 0.8992 0.0
H420 H 0.75026 0.5874 0.92144 0.0
H421 H 0.69908 0.60708 0.88918 0.0
H422 H 0.89447 0.71097 0.85277 0.0
H423 H 0.89547 0.7687 0.88761 0.0
C424 C 0.17537 0.81678 0.08032 0.0
C425 C 0.16608 0.82052 0.09504 0.0
C426 C 0.1371 0.80158 0.0961 0.0
C427 C 0.13034 0.78739 0.08201 0.0
N428 N 0.15331 0.79624 0.07226 0.0
Co429 Co 0.15313 0.78279 0.05054 0.0
N430 N 0.11049 0.7676 0.04864 0.0
C431 C 0.09187 0.76194 0.06078 0.0
C432 C 0.06351 0.75136 0.05594 0.0
C433 C 0.06437 0.75007 0.03977 0.0
C434 C 0.09332 0.75988 0.03562 0.0
N435 N 0.15296 0.76926 0.02882 0.0
C436 C 0.13226 0.76127 0.01741 0.0
C437 C 0.14089 0.75245 1.00404 0.0
C438 C 0.16779 0.7549 0.00733 0.0
C439 C 0.17414 0.76501 0.0225 0.0
N440 N 0.19572 0.79824 0.05263 0.0
C441 C 0.21258 0.79115 0.04388 0.0
C442 C 0.24155 0.80648 0.0477 0.0
C443 C 0.24273 0.82421 0.05954 0.0
C444 C 0.21436 0.81874 0.06227 0.0
N445 N 0.14749 0.747 0.05892 0.0
C446 C 0.1448 0.69637 0.06802 0.0
C447 C 0.16266 0.72106 0.07609 0.0
C448 C 0.16378 0.74605 0.07133 0.0
C449 C 0.12746 0.69761 0.05574 0.0
C450 C 0.1289 0.72286 0.0515 0.0
N451 N 0.15947 0.81835 0.04201 0.0
C452 C 0.18853 0.85751 0.02557 0.0
C453 C 0.17592 0.87256 0.03226 0.0
C454 C 0.15359 0.85923 0.04338 0.0
C455 C 0.14564 0.83207 0.04808 0.0
C456 C 0.18008 0.83068 0.03056 0.0
H457 H 0.12906 0.8225 0.05699 0.0
H458 H 0.19113 0.82031 0.02549 0.0
H459 H 0.1785 0.76478 0.07743 0.0
H460 H 0.11545 0.72286 0.04186 0.0
C461 C 0.10223 0.77078 0.07615 0.0
C462 C 0.20529 0.83227 0.07443 0.0
C463 C 0.10342 0.75953 0.01943 0.0
C464 C 0.20116 0.77489 0.03021 0.0
H465 H 0.17875 0.83558 0.10394 0.0
H466 H 0.12238 0.79964 0.10559 0.0
H467 H 0.04458 0.74606 0.06322 0.0
H468 H 0.04576 0.74252 0.03198 0.0
H469 H 0.12885 0.74474 0.99316 0.0
H470 H 0.18143 0.75062 0.99942 0.0
H471 H 0.25981 0.80599 0.04196 0.0
H472 H 0.26215 0.83954 0.06536 0.0
H473 H 0.1765 0.72131 0.08566 0.0
H474 H 0.11285 0.67913 0.04933 0.0
H475 H 0.20532 0.86658 0.01666 0.0
H476 H 0.14312 0.87 0.04885 0.0
C477 C 0.45081 0.15677 0.21802 0.0
C478 C 0.47878 0.17575 0.21344 0.0
C479 C 0.47613 0.19341 0.20311 0.0
C480 C 0.44687 0.1845 0.20204 0.0
N481 N 0.43067 0.1623 0.21107 0.0
Co482 Co 0.38753 0.14455 0.2136 0.0
N483 N 0.38323 0.16369 0.19452 0.0
C484 C 0.40502 0.18423 0.18651 0.0
C485 C 0.3959 0.19253 0.1734 0.0
C486 C 0.36636 0.17671 0.17329 0.0
C487 C 0.35908 0.15983 0.18651 0.0
N488 N 0.34452 0.12745 0.21638 0.0
C489 C 0.32389 0.12931 0.20742 0.0
C490 C 0.29693 0.11631 0.21474 0.0
C491 C 0.30083 0.10636 0.22883 0.0
C492 C 0.32985 0.11384 0.22937 0.0
N493 N 0.3925 0.12494 0.23231 0.0
C494 C 0.37212 0.11132 0.24334 0.0
C495 C 0.38098 0.09889 0.25451 0.0
C496 C 0.40881 0.10522 0.25038 0.0
C497 C 0.41561 0.12149 0.23694 0.0
N498 N 0.39098 0.17533 0.22753 0.0
C499 C 0.37891 0.20677 0.25009 0.0
C500 C 0.39717 0.19529 0.25381 0.0
C501 C 0.40322 0.17997 0.24232 0.0
C502 C 0.36973 0.2046 0.23443 0.0
C503 C 0.37585 0.18904 0.22354 0.0
N504 N 0.38199 0.11321 0.19986 0.0
C505 C 0.35302 0.06456 0.19408 0.0
C506 C 0.36156 0.06854 0.17816 0.0
C507 C 0.38271 0.09531 0.17378 0.0
C508 C 0.39287 0.11715 0.18481 0.0
C509 C 0.36318 0.0869 0.20457 0.0
H510 H 0.40846 0.13746 0.18089 0.0
H511 H 0.35452 0.08283 0.21633 0.0
H512 H 0.41658 0.17081 0.24575 0.0
H513 H 0.36645 0.18703 0.21217 0.0
C514 C 0.43382 0.19375 0.19097 0.0
C515 C 0.44466 0.13462 0.22946 0.0
C516 C 0.32939 0.14562 0.19286 0.0
C517 C 0.34386 0.1075 0.2415 0.0
H518 H 0.49908 0.17682 0.21717 0.0
H519 H 0.49345 0.21017 0.19672 0.0
H520 H 0.40912 0.2083 0.16499 0.0
H521 H 0.35167 0.17858 0.16499 0.0
H522 H 0.27671 0.11488 0.21057 0.0
H523 H 0.28447 0.09521 0.23767 0.0
H524 H 0.36836 0.08594 0.2642 0.0
H525 H 0.42242 0.09854 0.25659 0.0
H526 H 0.40558 0.19693 0.26566 0.0
H527 H 0.35677 0.21407 0.23059 0.0
H528 H 0.33785 0.04432 0.19847 0.0
H529 H 0.39053 0.0998 0.16175 0.0
C530 C 0.19086 0.34284 0.41765 0.0
C531 C 0.18727 0.33168 0.43267 0.0
C532 C 0.20825 0.32367 0.43448 0.0
C533 C 0.22342 0.33036 0.42051 0.0
N534 N 0.21329 0.34209 0.41007 0.0
Co535 Co 0.22859 0.35455 0.3885 0.0
N536 N 0.24753 0.33071 0.38795 0.0
C537 C 0.25325 0.31933 0.40061 0.0
C538 C 0.26628 0.30361 0.39673 0.0
C539 C 0.26925 0.30543 0.38063 0.0
C540 C 0.25807 0.32247 0.37557 0.0
N541 N 0.2445 0.36736 0.36703 0.0
C542 C 0.2558 0.35651 0.35639 0.0
C543 C 0.26529 0.37288 0.343 0.0
C544 C 0.25985 0.39471 0.34545 0.0
C545 C 0.24743 0.39058 0.36019 0.0
N546 N 0.20913 0.37786 0.38918 0.0
C547 C 0.21537 0.39971 0.3799 0.0
C548 C 0.19752 0.41121 0.38284 0.0
C549 C 0.17902 0.39553 0.39471 0.0
C550 C 0.18661 0.37527 0.39835 0.0
N551 N 0.26436 0.38532 0.39752 0.0
C552 C 0.31464 0.43408 0.40697 0.0
C553 C 0.28722 0.42672 0.41356 0.0
C554 C 0.26258 0.4023 0.40882 0.0
C555 C 0.31631 0.41567 0.39603 0.0
C556 C 0.29112 0.39162 0.39147 0.0
N557 N 0.19286 0.32475 0.37922 0.0
C558 C 0.15442 0.31132 0.35998 0.0
C559 C 0.13877 0.28548 0.36703 0.0
C560 C 0.15098 0.27936 0.3802 0.0
C561 C 0.17833 0.29914 0.38595 0.0
C562 C 0.18101 0.33062 0.36631 0.0
H563 H 0.1874 0.29399 0.39604 0.0
H564 H 0.1915 0.35069 0.36094 0.0
H565 H 0.24187 0.3976 0.41399 0.0
H566 H 0.29328 0.37864 0.38261 0.0
C567 C 0.24248 0.3207 0.41555 0.0
C568 C 0.17341 0.35483 0.4111 0.0
C569 C 0.26019 0.3323 0.35921 0.0
C570 C 0.23408 0.40519 0.36687 0.0
H571 H 0.17103 0.3293 0.44135 0.0
H572 H 0.211 0.31284 0.44444 0.0
H573 H 0.27213 0.29157 0.40458 0.0
H574 H 0.27888 0.29556 0.37352 0.0
H575 H 0.27539 0.36956 0.33264 0.0
H576 H 0.2637 0.41114 0.33725 0.0
H577 H 0.19707 0.42815 0.37663 0.0
H578 H 0.16195 0.39858 0.40004 0.0
H579 H 0.28471 0.43983 0.42229 0.0
H580 H 0.3368 0.42026 0.39051 0.0
H581 H 0.14564 0.31699 0.34991 0.0
H582 H 0.13952 0.25951 0.38597 0.0
C583 C 0.86058 0.2103 0.58155 0.0
C584 C 0.86982 0.20714 0.59639 0.0
C585 C 0.89873 0.22617 0.59746 0.0
C586 C 0.90554 0.23981 0.58325 0.0
N587 N 0.88268 0.23058 0.57339 0.0
Co588 Co 0.88313 0.24367 0.55156 0.0
N589 N 0.92595 0.25938 0.5499 0.0
C590 C 0.94431 0.26469 0.56213 0.0
C591 C 0.97268 0.27474 0.55747 0.0
C592 C 0.9722 0.27616 0.54133 0.0
C593 C 0.94346 0.26718 0.53698 0.0
N594 N 0.88361 0.25713 0.5298 0.0
C595 C 0.90469 0.2658 0.51856 0.0
C596 C 0.89605 0.27449 0.50518 0.0
C597 C 0.86877 0.27124 0.50826 0.0
C598 C 0.86221 0.26084 0.52332 0.0
N599 N 0.84036 0.22745 0.55332 0.0
C600 C 0.82336 0.23393 0.54432 0.0
C601 C 0.79436 0.21827 0.54795 0.0
C602 C 0.79327 0.20093 0.55994 0.0
C603 C 0.82172 0.20695 0.56295 0.0
N604 N 0.88797 0.27936 0.55986 0.0
C605 C 0.89035 0.33003 0.56901 0.0
C606 C 0.8709 0.30495 0.57619 0.0
C607 C 0.87023 0.28005 0.57157 0.0
C608 C 0.90919 0.32904 0.55749 0.0
C609 C 0.90762 0.30373 0.55309 0.0
N610 N 0.87759 0.2082 0.54307 0.0
C611 C 0.8513 0.16981 0.52543 0.0
C612 C 0.86396 0.15501 0.53231 0.0
C613 C 0.88414 0.16769 0.54455 0.0
C614 C 0.89095 0.19445 0.54961 0.0
C615 C 0.8582 0.19607 0.53101 0.0
H616 H 0.90652 0.20378 0.55903 0.0
H617 H 0.84706 0.20619 0.52578 0.0
H618 H 0.85482 0.2612 0.57727 0.0
H619 H 0.92188 0.30391 0.54384 0.0
C620 C 0.93368 0.25612 0.57744 0.0
C621 C 0.83076 0.19426 0.57558 0.0
C622 C 0.93395 0.26852 0.52075 0.0
C623 C 0.83491 0.25032 0.53077 0.0
H624 H 0.85723 0.19234 0.60539 0.0
H625 H 0.91341 0.22846 0.60703 0.0
H626 H 0.99137 0.27955 0.56486 0.0
H627 H 0.99099 0.28319 0.5337 0.0
H628 H 0.90834 0.28268 0.49443 0.0
H629 H 0.85507 0.27524 0.50027 0.0
H630 H 0.77606 0.21838 0.54205 0.0
H631 H 0.77387 0.1856 0.56576 0.0
H632 H 0.85619 0.30449 0.58533 0.0
H633 H 0.92451 0.34762 0.55146 0.0
H634 H 0.83532 0.16078 0.51611 0.0
H635 H 0.8946 0.15706 0.55014 0.0
H636 H 0.14518 0.65757 0.0477 0.0
H637 H 0.14498 0.61423 0.05394 0.0
H638 H 0.14349 0.63062 0.10367 0.0
H639 H 0.14469 0.6746 0.09741 0.0
H640 H 0.17719 0.60938 0.10017 0.0
H641 H 0.08103 0.58134 0.08106 0.0
H642 H 0.04382 0.57911 0.06237 0.0
H643 H 0.07572 0.54433 0.02697 0.0
H644 H 0.11337 0.54668 0.04538 0.0
H645 H 0.13463 0.47156 0.1254 0.0
H646 H 0.13528 0.51519 0.11917 0.0
H647 H 0.14886 0.50445 0.07 0.0
H648 H 0.14776 0.46048 0.07612 0.0
H649 H 0.10871 0.52235 0.07338 0.0
H650 H 0.20465 0.55017 0.09341 0.0
H651 H 0.24065 0.55184 0.11277 0.0
H652 H 0.20701 0.58623 0.14746 0.0
H653 H 0.17053 0.58441 0.12836 0.0
C654 C 0.1446 0.65191 0.05998 0.0
C655 C 0.14468 0.66966 0.07202 0.0
C656 C 0.14438 0.62691 0.06357 0.0
C657 C 0.14353 0.61842 0.07934 0.0
C658 C 0.14405 0.63634 0.0914 0.0
C659 C 0.14472 0.66161 0.0878 0.0
C660 C 0.14241 0.59114 0.08321 0.0
C661 C 0.16185 0.59035 0.09444 0.0
C662 C 0.1229 0.56602 0.07562 0.0
C663 C 0.10019 0.56443 0.06456 0.0
C664 C 0.08022 0.57338 0.06926 0.0
C665 C 0.05904 0.57208 0.05872 0.0
C666 C 0.05745 0.56165 0.04348 0.0
C667 C 0.077 0.55243 0.03877 0.0
C668 C 0.09824 0.55372 0.04925 0.0
C669 C 0.13751 0.47827 0.11321 0.0
C670 C 0.14112 0.46221 0.10129 0.0
C671 C 0.13816 0.5035 0.10968 0.0
C672 C 0.14242 0.51354 0.0941 0.0
C673 C 0.14563 0.4974 0.08213 0.0
C674 C 0.1452 0.47224 0.08568 0.0
C675 C 0.14342 0.5407 0.09031 0.0
C676 C 0.12397 0.54142 0.0791 0.0
C677 C 0.16269 0.56568 0.09802 0.0
C678 C 0.18468 0.5669 0.1095 0.0
C679 C 0.20478 0.55789 0.1052 0.0
C680 C 0.2253 0.5589 0.11612 0.0
C681 C 0.22607 0.56907 0.13135 0.0
C682 C 0.20636 0.57832 0.13567 0.0
C683 C 0.18578 0.57733 0.1248 0.0
H684 H 0.24197 0.56983 0.13978 0.0
H685 H 0.04105 0.56067 0.03534 0.0
H686 H 0.6945 0.13473 0.24743 0.0
H687 H 0.64805 0.13117 0.23878 0.0
H688 H 0.61991 0.12288 0.28731 0.0
H689 H 0.6652 0.12403 0.29569 0.0
H690 H 0.57541 0.09406 0.27275 0.0
H691 H 0.64759 0.18679 0.26211 0.0
H692 H 0.69258 0.22416 0.25085 0.0
H693 H 0.66123 0.19549 0.204 0.0
H694 H 0.61619 0.15772 0.215 0.0
H695 H 0.46929 0.14191 0.25925 0.0
H696 H 0.51266 0.13838 0.26712 0.0
H697 H 0.52178 0.11589 0.2195 0.0
H698 H 0.47769 0.11822 0.21178 0.0
H699 H 0.57475 0.15969 0.23302 0.0
H700 H 0.49978 0.06788 0.24602 0.0
H701 H 0.45469 0.03432 0.25918 0.0
H702 H 0.49231 0.06708 0.30446 0.0
H703 H 0.53749 0.10114 0.29155 0.0
C704 C 0.67825 0.13189 0.25621 0.0
C705 C 0.684 0.1303 0.2723 0.0
C706 C 0.65166 0.13023 0.25129 0.0
C707 C 0.63023 0.1277 0.26234 0.0
C708 C 0.6357 0.12509 0.27838 0.0
C709 C 0.66189 0.126 0.28323 0.0
C710 C 0.60231 0.1278 0.25735 0.0
C711 C 0.57562 0.10877 0.26421 0.0
C712 C 0.60165 0.14659 0.24604 0.0
C713 C 0.62867 0.16926 0.23938 0.0
C714 C 0.65038 0.18835 0.24941 0.0
C715 C 0.67587 0.20961 0.24308 0.0
C716 C 0.6798 0.21215 0.22672 0.0
C717 C 0.65819 0.19347 0.21667 0.0
C718 C 0.63267 0.17214 0.22294 0.0
C719 C 0.47995 0.13533 0.25057 0.0
C720 C 0.4694 0.12964 0.23494 0.0
C721 C 0.50504 0.13363 0.25504 0.0
C722 C 0.52075 0.12682 0.24395 0.0
C723 C 0.51025 0.12117 0.22835 0.0
C724 C 0.48486 0.12232 0.22395 0.0
C725 C 0.54836 0.12618 0.2485 0.0
C726 C 0.57484 0.14509 0.24156 0.0
C727 C 0.54895 0.10786 0.26004 0.0
C728 C 0.52191 0.08723 0.26781 0.0
C729 C 0.49835 0.06808 0.25878 0.0
C730 C 0.47279 0.04894 0.26619 0.0
C731 C 0.47061 0.04861 0.28264 0.0
C732 C 0.49401 0.06738 0.29172 0.0
C733 C 0.51961 0.08659 0.28436 0.0
H734 H 0.4508 0.03378 0.28836 0.0
H735 H 0.69955 0.22862 0.22184 0.0
H736 H 0.56716 0.64422 0.44091 0.0
H737 H 0.52401 0.60049 0.43487 0.0
H738 H 0.47377 0.64324 0.42915 0.0
H739 H 0.51673 0.68704 0.4355 0.0
H740 H 0.44345 0.59667 0.44599 0.0
H741 H 0.4961 0.61913 0.3971 0.0
H742 H 0.53864 0.63163 0.37992 0.0
H743 H 0.54005 0.55692 0.3928 0.0
H744 H 0.49774 0.54415 0.41023 0.0
H745 H 0.3184 0.48532 0.41125 0.0
H746 H 0.36135 0.52923 0.41708 0.0
H747 H 0.41405 0.48828 0.41798 0.0
H748 H 0.37118 0.44437 0.41179 0.0
H749 H 0.44334 0.53434 0.40361 0.0
H750 H 0.39166 0.51176 0.45273 0.0
H751 H 0.3497 0.49905 0.4704 0.0
H752 H 0.3471 0.57335 0.45791 0.0
H753 H 0.38883 0.58635 0.44 0.0
C754 C 0.54695 0.64443 0.43844 0.0
C755 C 0.54573 0.66947 0.43871 0.0
C756 C 0.52221 0.61928 0.43483 0.0
C757 C 0.49539 0.6183 0.43137 0.0
C758 C 0.49405 0.64322 0.43171 0.0
C759 C 0.51884 0.66841 0.43522 0.0
C760 C 0.46878 0.59136 0.4276 0.0
C761 C 0.44336 0.58325 0.43657 0.0
C762 C 0.46855 0.57322 0.41559 0.0
C763 C 0.49393 0.58082 0.40509 0.0
C764 C 0.50562 0.60547 0.39636 0.0
C765 C 0.52967 0.61258 0.38656 0.0
C766 C 0.54209 0.59511 0.3853 0.0
C767 C 0.53043 0.57045 0.39381 0.0
C768 C 0.50641 0.56325 0.40364 0.0
C769 C 0.33904 0.48552 0.41286 0.0
C770 C 0.34103 0.461 0.4111 0.0
C771 C 0.36376 0.51081 0.41624 0.0
C772 C 0.39128 0.51241 0.41829 0.0
C773 C 0.39331 0.48795 0.41649 0.0
C774 C 0.36864 0.46269 0.41292 0.0
C775 C 0.41789 0.53949 0.42205 0.0
C776 C 0.44335 0.54767 0.41306 0.0
C777 C 0.41822 0.55761 0.43412 0.0
C778 C 0.39318 0.54989 0.44491 0.0
C779 C 0.38201 0.52529 0.45366 0.0
C780 C 0.35829 0.51805 0.46374 0.0
C781 C 0.34569 0.53534 0.46524 0.0
C782 C 0.35685 0.55996 0.45671 0.0
C783 C 0.38055 0.56729 0.44661 0.0
H784 H 0.32733 0.5297 0.47305 0.0
H785 H 0.5607 0.60066 0.37771 0.0
H786 H 0.94002 0.58175 0.6005 0.0
H787 H 0.93932 0.53785 0.59482 0.0
H788 H 0.8458 0.49728 0.59237 0.0
H789 H 0.84629 0.54101 0.59837 0.0
H790 H 0.86339 0.466 0.60873 0.0
H791 H 0.88851 0.51247 0.55875 0.0
H792 H 0.91697 0.55074 0.54048 0.0
H793 H 0.99379 0.54426 0.5511 0.0
H794 H 0.96585 0.50617 0.5696 0.0
H795 H 0.84382 0.33936 0.57496 0.0
H796 H 0.84415 0.38302 0.58074 0.0
H797 H 0.93776 0.42559 0.57838 0.0
H798 H 0.93747 0.38202 0.57226 0.0
H799 H 0.92 0.45609 0.56453 0.0
H800 H 0.89607 0.41047 0.61464 0.0
H801 H 0.86851 0.37267 0.63335 0.0
H802 H 0.79091 0.37807 0.62328 0.0
H803 H 0.81793 0.41568 0.60435 0.0
C804 C 0.91923 0.56352 0.59883 0.0
C805 C 0.89321 0.56527 0.59989 0.0
C806 C 0.91888 0.53832 0.59543 0.0
C807 C 0.89251 0.51397 0.59297 0.0
C808 C 0.8665 0.51559 0.59414 0.0
C809 C 0.86684 0.54082 0.59745 0.0
C810 C 0.89201 0.48687 0.58934 0.0
C811 C 0.87549 0.4638 0.59892 0.0
C812 C 0.90831 0.4838 0.57681 0.0
C813 C 0.92514 0.50665 0.56568 0.0
C814 C 0.91152 0.51935 0.55728 0.0
C815 C 0.92755 0.54098 0.54687 0.0
C816 C 0.95719 0.54998 0.54466 0.0
C817 C 0.97084 0.5373 0.55284 0.0
C818 C 0.95491 0.51568 0.56328 0.0
C819 C 0.86454 0.35793 0.57584 0.0
C820 C 0.89062 0.35686 0.57317 0.0
C821 C 0.86473 0.38307 0.57919 0.0
C822 C 0.89102 0.40799 0.5803 0.0
C823 C 0.91708 0.40694 0.57762 0.0
C824 C 0.91689 0.38185 0.57409 0.0
C825 C 0.89142 0.43509 0.58396 0.0
C826 C 0.90792 0.45821 0.57436 0.0
C827 C 0.87525 0.43825 0.59656 0.0
C828 C 0.85897 0.4157 0.60796 0.0
C829 C 0.87308 0.40346 0.61633 0.0
C830 C 0.85757 0.38209 0.62699 0.0
C831 C 0.82796 0.37292 0.62947 0.0
C832 C 0.81383 0.38517 0.62133 0.0
C833 C 0.82924 0.40652 0.61064 0.0
H834 H 0.81599 0.35638 0.63772 0.0
H835 H 0.96956 0.56672 0.5366 0.0
H836 H 0.55679 0.9072 0.71266 0.0
H837 H 0.51279 0.90913 0.72051 0.0
H838 H 0.52609 0.8928 0.76876 0.0
H839 H 0.56874 0.88852 0.76056 0.0
H840 H 0.47317 0.86688 0.76511 0.0
H841 H 0.53727 0.96066 0.75213 0.0
H842 H 0.57162 0.99992 0.73601 0.0
H843 H 0.50631 0.9797 0.7003 0.0
H844 H 0.47166 0.9401 0.71612 0.0
H845 H 0.37291 0.91028 0.79668 0.0
H846 H 0.41899 0.91219 0.78856 0.0
H847 H 0.38741 0.89245 0.74082 0.0
H848 H 0.34077 0.88918 0.74907 0.0
H849 H 0.44936 0.93805 0.74467 0.0
H850 H 0.38533 0.84371 0.76008 0.0
H851 H 0.35226 0.80823 0.77863 0.0
H852 H 0.42083 0.83461 0.81291 0.0
H853 H 0.45417 0.87066 0.79466 0.0
C854 C 0.55055 0.90437 0.72499 0.0
C855 C 0.56703 0.89847 0.736 0.0
C856 C 0.52528 0.90568 0.72956 0.0
C857 C 0.51587 0.9019 0.74544 0.0
C858 C 0.53248 0.89607 0.75646 0.0
C859 C 0.55739 0.8941 0.7518 0.0
C860 C 0.48841 0.90305 0.75041 0.0
C861 C 0.46847 0.88282 0.76074 0.0
C862 C 0.48124 0.92345 0.74478 0.0
C863 C 0.50197 0.94725 0.73524 0.0
C864 C 0.5303 0.96448 0.74079 0.0
C865 C 0.54981 0.98681 0.73172 0.0
C866 C 0.54117 0.99226 0.71713 0.0
C867 C 0.51298 0.97543 0.7116 0.0
C868 C 0.49338 0.95305 0.72062 0.0
C869 C 0.3759 0.9067 0.7844 0.0
C870 C 0.35315 0.90017 0.7735 0.0
C871 C 0.40231 0.90772 0.77976 0.0
C872 C 0.40702 0.90259 0.76401 0.0
C873 C 0.38466 0.8968 0.753 0.0
C874 C 0.35797 0.89518 0.75771 0.0
C875 C 0.43463 0.90202 0.75924 0.0
C876 C 0.45441 0.92229 0.74898 0.0
C877 C 0.442 0.88213 0.76523 0.0
C878 C 0.42217 0.86007 0.77606 0.0
C879 C 0.3933 0.8421 0.77162 0.0
C880 C 0.37451 0.82186 0.78208 0.0
C881 C 0.38442 0.81921 0.79696 0.0
C882 C 0.41317 0.83672 0.80139 0.0
C883 C 0.43203 0.85706 0.79099 0.0
H884 H 0.36983 0.80354 0.80504 0.0
H885 H 0.55631 1.00955 0.71012 0.0
H886 H 0.51778 0.34082 0.93466 0.0
H887 H 0.56081 0.38452 0.92842 0.0
H888 H 0.51066 0.42746 0.93385 0.0
H889 H 0.46738 0.38375 0.93984 0.0
H890 H 0.54589 0.44657 0.90823 0.0
H891 H 0.55828 0.42976 0.96266 0.0
H892 H 0.56156 0.40281 0.98504 0.0
H893 H 0.63425 0.40007 0.96314 0.0
H894 H 0.63115 0.4267 0.94051 0.0
H895 H 0.66421 0.58334 0.91026 0.0
H896 H 0.62103 0.53974 0.91632 0.0
H897 H 0.67314 0.49819 0.91655 0.0
H898 H 0.71649 0.54189 0.91082 0.0
H899 H 0.63661 0.47796 0.93923 0.0
H900 H 0.62483 0.4936 0.88484 0.0
H901 H 0.62179 0.51934 0.86177 0.0
H902 H 0.54856 0.5228 0.88244 0.0
H903 H 0.55141 0.49738 0.90574 0.0
C904 C 0.51571 0.35947 0.93438 0.0
C905 C 0.48881 0.35846 0.93783 0.0
C906 C 0.54055 0.38463 0.93094 0.0
C907 C 0.53937 0.40965 0.93081 0.0
C908 C 0.51243 0.40865 0.93391 0.0
C909 C 0.48762 0.38352 0.93747 0.0
C910 C 0.5661 0.43677 0.92752 0.0
C911 C 0.56558 0.45356 0.91516 0.0
C912 C 0.5923 0.44586 0.93619 0.0
C913 C 0.5943 0.42999 0.94982 0.0
C914 C 0.57483 0.42324 0.96256 0.0
C915 C 0.57668 0.40805 0.9753 0.0
C916 C 0.59805 0.39967 0.97549 0.0
C917 C 0.61768 0.40654 0.96296 0.0
C918 C 0.6159 0.4217 0.95019 0.0
C919 C 0.66654 0.56494 0.91151 0.0
C920 C 0.6941 0.56641 0.90996 0.0
C921 C 0.64165 0.53981 0.91495 0.0
C922 C 0.64331 0.51513 0.91666 0.0
C923 C 0.6709 0.51666 0.91533 0.0
C924 C 0.69585 0.54184 0.91206 0.0
C925 C 0.61651 0.4879 0.91989 0.0
C926 C 0.61698 0.47104 0.93225 0.0
C927 C 0.59034 0.4786 0.9111 0.0
C928 C 0.58852 0.49383 0.8971 0.0
C929 C 0.60821 0.50002 0.88451 0.0
C930 C 0.6065 0.51453 0.87139 0.0
C931 C 0.58504 0.52277 0.87066 0.0
C932 C 0.5652 0.51644 0.88303 0.0
C933 C 0.56683 0.50197 0.8962 0.0
H934 H 0.58375 0.534 0.86049 0.0
H935 H 0.59945 0.38791 0.98536 0.0
H936 H 0.33647 0.19752 0.19692 0.0
H937 H 0.30572 0.21659 0.18769 0.0
H938 H 0.24487 0.13714 0.16866 0.0
H939 H 0.27659 0.11805 0.1776 0.0
H940 H 0.25347 0.17748 0.14805 0.0
H941 H 0.23049 0.16334 0.20312 0.0
H942 H 0.24174 0.16643 0.23156 0.0
H943 H 0.28431 0.25488 0.22905 0.0
H944 H 0.27376 0.25236 0.20053 0.0
H945 H 0.14961 0.23068 0.13829 0.0
H946 H 0.17177 0.20213 0.1465 0.0
H947 H 0.24981 0.27527 0.15998 0.0
H948 H 0.2289 0.30389 0.15104 0.0
H949 H 0.22583 0.23244 0.18398 0.0
H950 H 0.25527 0.24734 0.12949 0.0
H951 H 0.24792 0.24629 0.10069 0.0
H952 H 0.19523 0.15821 0.10217 0.0
H953 H 0.20197 0.1588 0.13105 0.0
C954 C 0.31643 0.18397 0.19093 0.0
C955 C 0.30884 0.15618 0.18811 0.0
C956 C 0.29873 0.19491 0.18566 0.0
C957 C 0.27257 0.17829 0.17768 0.0
C958 C 0.26483 0.15042 0.17485 0.0
C959 C 0.2828 0.13945 0.18004 0.0
C960 C 0.25398 0.1905 0.17213 0.0
C961 C 0.24683 0.18892 0.156 0.0
C962 C 0.24577 0.20605 0.18237 0.0
C963 C 0.25144 0.20764 0.19964 0.0
C964 C 0.24234 0.18346 0.20861 0.0
C965 C 0.24862 0.18511 0.22475 0.0
C966 C 0.26378 0.21083 0.2321 0.0
C967 C 0.27258 0.23496 0.22334 0.0
C968 C 0.26642 0.23343 0.20719 0.0
C969 C 0.17164 0.24078 0.14276 0.0
C970 C 0.18707 0.26977 0.14424 0.0
C971 C 0.18422 0.22437 0.14755 0.0
C972 C 0.21235 0.23655 0.15405 0.0
C973 C 0.22794 0.26536 0.15524 0.0
C974 C 0.2157 0.28172 0.15021 0.0
C975 C 0.22568 0.21961 0.15995 0.0
C976 C 0.23191 0.22044 0.17613 0.0
C977 C 0.23315 0.20355 0.14977 0.0
C978 C 0.22874 0.20316 0.13246 0.0
C979 C 0.2418 0.22778 0.12371 0.0
C980 C 0.23784 0.22727 0.10736 0.0
C981 C 0.22101 0.20221 0.09961 0.0
C982 C 0.20819 0.17762 0.10819 0.0
C983 C 0.21208 0.17803 0.12455 0.0
H984 H 0.21801 0.20184 0.08695 0.0
H985 H 0.26868 0.21207 0.24459 0.0
H986 H 0.89776 0.20043 0.29216 0.0
H987 H 0.94795 0.21906 0.30168 0.0
H988 H 0.92171 0.14794 0.33168 0.0
H989 H 0.87162 0.12931 0.32202 0.0
H990 H 0.96721 0.23508 0.33049 0.0
H991 H 0.98039 0.13735 0.33904 0.0
H992 H 0.96364 0.09163 0.32674 0.0
H993 H 0.95225 0.12312 0.28246 0.0
H994 H 0.96932 0.1691 0.29444 0.0
H995 H 0.08636 0.26466 0.38218 0.0
H996 H 0.03771 0.23885 0.37033 0.0
H997 H 0.07661 0.23726 0.3257 0.0
H998 H 0.12515 0.26357 0.33741 0.0
H999 H 0.02618 0.1864 0.33301 0.0
H1000 H 0.0584 0.28352 0.33104 0.0
H1001 H 0.07577 0.3306 0.34138 0.0
H1002 H 0.99756 0.30299 0.3686 0.0
H1003 H 0.98039 0.25553 0.35906 0.0
C1004 C 0.90299 0.18846 0.30044 0.0
C1005 C 0.88102 0.16317 0.3061 0.0
C1006 C 0.93159 0.19921 0.306 0.0
C1007 C 0.93885 0.18492 0.31739 0.0
C1008 C 0.91695 0.15921 0.32272 0.0
C1009 C 0.88834 0.14847 0.31714 0.0
C1010 C 0.96873 0.19781 0.32443 0.0
C1011 C 0.98001 0.22434 0.33105 0.0
C1012 C 0.98577 0.18406 0.32508 0.0
C1013 C 0.97586 0.15659 0.3177 0.0
C1014 C 0.97443 0.13454 0.32667 0.0
C1015 C 0.96486 0.10857 0.31975 0.0
C1016 C 0.9568 0.10445 0.30384 0.0
C1017 C 0.95839 0.12631 0.2948 0.0
C1018 C 0.96797 0.15232 0.30165 0.0
C1019 C 0.08444 0.25823 0.36994 0.0
C1020 C 0.10949 0.26595 0.36073 0.0
C1021 C 0.05667 0.24364 0.36315 0.0
C1022 C 0.05344 0.23616 0.34708 0.0
C1023 C 0.07847 0.24267 0.33811 0.0
C1024 C 0.10619 0.2577 0.3448 0.0
C1025 C 0.02424 0.22336 0.33933 0.0
C1026 C 1.01319 0.19696 0.33255 0.0
C1027 C 1.00749 0.23734 0.33837 0.0
C1028 C 0.01832 0.2658 0.34453 0.0
C1029 C 0.04518 0.28735 0.3395 0.0
C1030 C 0.05502 0.31415 0.34523 0.0
C1031 C 0.03794 0.31978 0.35578 0.0
C1032 C 1.01101 0.2986 0.36062 0.0
C1033 C 1.00125 0.27172 0.35509 0.0
H1034 H 0.0455 0.34058 0.3601 0.0
H1035 H 0.94937 0.08432 0.29852 0.0
H1036 H 0.85928 0.13638 0.50195 0.0
H1037 H 0.83947 0.08873 0.49278 0.0
H1038 H 0.82754 0.06064 0.54106 0.0
H1039 H 0.84809 0.10857 0.55029 0.0
H1040 H 0.84418 0.0305 0.52398 0.0
H1041 H 0.77066 0.058 0.51822 0.0
H1042 H 0.74964 0.0874 0.50944 0.0
H1043 H 0.76353 0.07338 0.46104 0.0
H1044 H 0.78504 0.04421 0.46953 0.0
H1045 H 0.73348 0.89198 0.50928 0.0
H1046 H 0.76224 0.93998 0.51784 0.0
H1047 H 0.78113 0.96567 0.46926 0.0
H1048 H 0.75217 0.91753 0.46062 0.0
H1049 H 0.76204 0.99691 0.48608 0.0
H1050 H 0.8337 0.96686 0.49275 0.0
H1051 H 0.85292 0.93653 0.50244 0.0
H1052 H 0.83986 0.95397 0.55034 0.0
H1053 H 0.82017 0.98412 0.54093 0.0
C1054 C 0.85265 0.12007 0.51062 0.0
C1055 C 0.85507 0.12627 0.52686 0.0
C1056 C 0.84119 0.09276 0.50536 0.0
C1057 C 0.83128 0.07083 0.51618 0.0
C1058 C 0.83487 0.07707 0.53243 0.0
C1059 C 0.84669 0.1045 0.53771 0.0
C1060 C 0.81629 0.0415 0.51053 0.0
C1061 C 0.82602 0.02313 0.51583 0.0
C1062 C 0.79279 0.03173 0.49968 0.0
C1063 C 0.77973 0.04915 0.49452 0.0
C1064 C 0.76943 0.06135 0.50571 0.0
C1065 C 0.7574 0.07795 0.50078 0.0
C1066 C 0.75532 0.08231 0.48469 0.0
C1067 C 0.7652 0.07002 0.47349 0.0
C1068 C 0.77729 0.05344 0.47836 0.0
C1069 C 0.74397 0.90782 0.50041 0.0
C1070 C 0.74053 0.90089 0.48425 0.0
C1071 C 0.76055 0.93527 0.50533 0.0
C1072 C 0.77404 0.95654 0.49422 0.0
C1073 C 0.77102 0.94966 0.47807 0.0
C1074 C 0.75465 0.92211 0.47314 0.0
C1075 C 0.79002 0.986 0.49947 0.0
C1076 C 0.78035 1.00436 0.49414 0.0
C1077 C 0.81328 0.9956 0.51043 0.0
C1078 C 0.82521 0.97756 0.51612 0.0
C1079 C 0.8347 0.96406 0.50535 0.0
C1080 C 0.84572 0.94693 0.51079 0.0
C1081 C 0.84754 0.94327 0.52699 0.0
C1082 C 0.83841 0.9568 0.53779 0.0
C1083 C 0.82735 0.97393 0.53241 0.0
H1084 H 0.85609 0.93 0.53119 0.0
H1085 H 0.746 0.09517 0.4809 0.0
H1086 H 0.85392 0.75319 0.67045 0.0
H1087 H 0.83101 0.7807 0.67885 0.0
H1088 H 0.82839 0.80391 0.63056 0.0
H1089 H 0.85095 0.77585 0.62195 0.0
H1090 H 0.84358 0.84816 0.65201 0.0
H1091 H 0.7703 0.75422 0.64647 0.0
H1092 H 0.74651 0.70398 0.65086 0.0
H1093 H 0.7406 0.71663 0.70051 0.0
H1094 H 0.76476 0.76699 0.69643 0.0
H1095 H 0.73668 0.89324 0.66491 0.0
H1096 H 0.76667 0.87275 0.65556 0.0
H1097 H 0.75905 0.83528 0.70122 0.0
H1098 H 0.7283 0.85493 0.71029 0.0
H1099 H 0.74934 0.79857 0.68006 0.0
H1100 H 0.82439 0.89176 0.68659 0.0
H1101 H 0.84864 0.94221 0.68294 0.0
H1102 H 0.85222 0.93161 0.63288 0.0
H1103 H 0.82762 0.88105 0.63621 0.0
C1104 C 0.84853 0.76411 0.66155 0.0
C1105 C 0.85405 0.7619 0.64545 0.0
C1106 C 0.83548 0.77997 0.66641 0.0
C1107 C 0.82754 0.79416 0.65535 0.0
C1108 C 0.83427 0.79318 0.63935 0.0
C1109 C 0.84729 0.77717 0.63444 0.0
C1110 C 0.81095 0.80874 0.66051 0.0
C1111 C 0.82279 0.83727 0.65797 0.0
C1112 C 0.7841 0.79474 0.66863 0.0
C1113 C 0.76959 0.76443 0.67114 0.0
C1114 C 0.76413 0.7463 0.65833 0.0
C1115 C 0.75055 0.7178 0.66076 0.0
C1116 C 0.74211 0.70712 0.67596 0.0
C1117 C 0.74719 0.72493 0.68874 0.0
C1118 C 0.76082 0.75347 0.68637 0.0
C1119 C 0.7419 0.88101 0.67299 0.0
C1120 C 0.73028 0.8758 0.68834 0.0
C1121 C 0.7591 0.86931 0.66767 0.0
C1122 C 0.76547 0.85246 0.67767 0.0
C1123 C 0.75453 0.84804 0.69319 0.0
C1124 C 0.73715 0.85951 0.69844 0.0
C1125 C 0.7821 0.83822 0.67182 0.0
C1126 C 0.77018 0.80961 0.67417 0.0
C1127 C 0.80898 0.85222 0.66368 0.0
C1128 C 0.82389 0.88261 0.66164 0.0
C1129 C 0.83015 0.90018 0.67479 0.0
C1130 C 0.84399 0.9288 0.67278 0.0
C1131 C 0.85189 0.94011 0.65768 0.0
C1132 C 0.84605 0.92282 0.64456 0.0
C1133 C 0.83218 0.89418 0.64651 0.0
H1134 H 0.8626 0.96227 0.65615 0.0
H1135 H 0.73158 0.68504 0.67782 0.0
H1136 H 0.92138 0.75341 0.83924 0.0
H1137 H 0.97184 0.78106 0.83099 0.0
H1138 H 0.99712 0.80569 0.87925 0.0
H1139 H 0.94647 0.77745 0.88772 0.0
H1140 H 0.02616 0.84945 0.85756 0.0
H1141 H 1.00806 0.75613 0.86426 0.0
H1142 H 0.9814 0.70573 0.86033 0.0
H1143 H 0.99639 0.71665 0.81036 0.0
H1144 H 0.02276 0.76717 0.81397 0.0
H1145 H 0.17847 0.89501 0.84465 0.0
H1146 H 0.12806 0.87455 0.85412 0.0
H1147 H 0.09769 0.83606 0.80864 0.0
H1148 H 0.14802 0.85578 0.79943 0.0
H1149 H 0.07136 0.79964 0.83018 0.0
H1150 H 0.0887 0.89247 0.8229 0.0
H1151 H 0.11444 0.94302 0.82625 0.0
H1152 H 0.10053 0.93365 0.87634 0.0
H1153 H 0.07503 0.883 0.87332 0.0
C1154 C 0.93757 0.76464 0.84817 0.0
C1155 C 0.92969 0.76276 0.86422 0.0
C1156 C 0.96651 0.78059 0.84339 0.0
C1157 C 0.9885 0.79521 0.85449 0.0
C1158 C 0.98062 0.79458 0.87044 0.0
C1159 C 0.95156 0.77848 0.87526 0.0
C1160 C 0.01971 0.8099 0.84944 0.0
C1161 C 0.0362 0.83852 0.85177 0.0
C1162 C 0.03277 0.79584 0.84156 0.0
C1163 C 1.01716 0.76545 0.83937 0.0
C1164 C 1.00548 0.7478 0.85242 0.0
C1165 C 0.99045 0.7192 0.85025 0.0
C1166 C 0.98714 0.708 0.8351 0.0
C1167 C 0.99894 0.72536 0.82209 0.0
C1168 C 1.01395 0.75398 0.82419 0.0
C1169 C 0.16092 0.88258 0.83663 0.0
C1170 C 0.16715 0.87712 0.82129 0.0
C1171 C 0.13206 0.87088 0.84203 0.0
C1172 C 0.10874 0.85374 0.83211 0.0
C1173 C 0.11508 0.84906 0.8166 0.0
C1174 C 0.14387 0.86056 0.81127 0.0
C1175 C 0.07795 0.83944 0.83805 0.0
C1176 C 0.06148 0.81073 0.83595 0.0
C1177 C 0.06494 0.8535 0.84604 0.0
C1178 C 0.08022 0.88393 0.8479 0.0
C1179 C 0.09133 0.90118 0.83465 0.0
C1180 C 0.10584 0.92985 0.83648 0.0
C1181 C 0.10919 0.94154 0.85151 0.0
C1182 C 0.09796 0.92457 0.86472 0.0
C1183 C 0.08346 0.89587 0.86295 0.0
H1184 H 0.12043 0.96374 0.8529 0.0
H1185 H 0.9755 0.68585 0.83345 0.0
H1186 H 0.23253 0.91169 0.02869 0.0
H1187 H 0.25173 0.95945 0.02033 0.0
H1188 H 0.16479 0.94924 0.01811 0.0
H1189 H 0.14516 0.90071 0.02612 0.0
H1190 H 0.19746 0.97739 0.9922 0.0
H1191 H 0.20875 0.98465 0.04809 0.0
H1192 H 0.22278 0.9745 0.07398 0.0
H1193 H 0.31214 1.01258 0.05948 0.0
H1194 H 0.29857 0.02247 0.03332 0.0
H1195 H 0.25942 0.12587 0.98343 0.0
H1196 H 0.23073 0.07823 0.9928 0.0
H1197 H 0.30888 0.07074 0.99657 0.0
H1198 H 0.33741 0.1176 0.98679 0.0
H1199 H 0.27516 0.05254 0.02344 0.0
H1200 H 0.26351 0.03992 0.96712 0.0
H1201 H 0.2502 0.04806 0.94051 0.0
H1202 H 0.16223 0.01981 0.95579 0.0
H1203 H 0.17517 1.0118 0.98259 0.0
C1204 C 0.21737 0.91945 0.02634 0.0
C1205 C 0.18723 0.90222 0.02798 0.0
C1206 C 0.22845 0.94692 0.02167 0.0
C1207 C 0.20979 0.95813 0.01869 0.0
C1208 C 0.17964 0.9411 0.02036 0.0
C1209 C 0.16847 0.91344 0.02507 0.0
C1210 C 0.22216 0.98762 0.0138 0.0
C1211 C 0.21397 0.99391 0.99921 0.0
C1212 C 0.24412 1.00921 0.02278 0.0
C1213 C 0.25259 1.00415 0.03868 0.0
C1214 C 0.23139 0.99076 0.05039 0.0
C1215 C 0.23926 0.98504 0.06512 0.0
C1216 C 0.26833 0.99284 0.0684 0.0
C1217 C 0.28962 1.00653 0.05694 0.0
C1218 C 0.28185 1.01222 0.04214 0.0
C1219 C 0.27047 0.11398 0.98605 0.0
C1220 C 0.3009 0.12591 0.98453 0.0
C1221 C 0.25403 0.08676 0.99149 0.0
C1222 C 0.26767 0.07092 0.99553 0.0
C1223 C 0.29788 0.08261 0.99375 0.0
C1224 C 0.31421 0.10958 0.98821 0.0
C1225 C 0.25083 0.04222 1.00172 0.0
C1226 C 0.25825 0.0361 0.01658 0.0
C1227 C 0.22823 0.02084 0.99298 0.0
C1228 C 0.22039 0.02561 0.9769 0.0
C1229 C 0.24139 0.03569 0.96484 0.0
C1230 C 0.2339 0.04023 0.94971 0.0
C1231 C 0.2054 0.03457 0.94646 0.0
C1232 C 0.18432 0.02425 0.95833 0.0
C1233 C 0.19171 0.01969 0.97349 0.0
H1234 H 0.19962 0.03808 0.93474 0.0
H1235 H 0.27436 0.98831 0.0798 0.0
H1236 H 0.25369 0.38895 0.08376 0.0
H1237 H 0.28365 0.37489 0.06792 0.0
H1238 H 0.22598 0.28967 0.07931 0.0
H1239 H 0.19724 0.30401 0.09601 0.0
H1240 H 0.27663 0.29454 0.07756 0.0
H1241 H 0.22345 0.32282 0.04325 0.0
H1242 H 0.20624 0.35403 0.03246 0.0
H1243 H 0.29381 0.41294 0.02031 0.0
H1244 H 0.31161 0.38224 0.03126 0.0
H1245 H 0.31067 0.23578 0.0095 0.0
H1246 H 0.28716 0.25081 0.02963 0.0
H1247 H 0.35399 0.33502 0.02352 0.0
H1248 H 0.37747 0.31987 1.00347 0.0
H1249 H 0.29992 0.33086 0.02295 0.0
H1250 H 0.35096 0.29758 0.05644 0.0
H1251 H 0.36454 0.26347 0.06677 0.0
H1252 H 0.27565 0.20966 0.07937 0.0
H1253 H 0.26142 0.24322 0.06883 0.0
C1254 C 0.24808 0.36734 0.08339 0.0
C1255 C 0.22347 0.34767 0.09149 0.0
C1256 C 0.26488 0.35918 0.07401 0.0
C1257 C 0.25693 0.33103 0.072 0.0
C1258 C 0.23281 0.31148 0.08052 0.0
C1259 C 0.21633 0.31969 0.0901 0.0
C1260 C 0.27288 0.32183 0.06064 0.0
C1261 C 0.28139 0.30233 0.06557 0.0
C1262 C 0.27953 0.33193 0.04493 0.0
C1263 C 0.26889 0.35035 0.03823 0.0
C1264 C 0.23906 0.3425 0.03837 0.0
C1265 C 0.2292 0.3601 0.03222 0.0
C1266 C 0.24893 0.38548 0.02574 0.0
C1267 C 0.27856 0.39329 0.02536 0.0
C1268 C 0.28855 0.3758 0.03153 0.0
C1269 C 0.32056 0.25741 0.01271 0.0
C1270 C 0.34613 0.2766 0.00514 0.0
C1271 C 0.30712 0.26603 0.0242 0.0
C1272 C 0.31883 0.29412 0.02829 0.0
C1273 C 0.3445 0.31326 0.0207 0.0
C1274 C 0.35804 0.3046 0.00932 0.0
C1275 C 0.30373 0.30372 0.0399 0.0
C1276 C 0.29527 0.32321 0.03497 0.0
C1277 C 0.29655 0.2931 0.05546 0.0
C1278 C 0.30508 0.27281 0.06168 0.0
C1279 C 0.33425 0.27835 0.06125 0.0
C1280 C 0.34207 0.25913 0.06718 0.0
C1281 C 0.32096 0.23438 0.07368 0.0
C1282 C 0.29197 0.22881 0.07429 0.0
C1283 C 0.28402 0.24793 0.06834 0.0
H1284 H 0.32707 0.21955 0.07828 0.0
H1285 H 0.24125 0.39907 0.02097 0.0
H1286 H 0.86919 0.25061 0.24591 0.0
H1287 H 0.91293 0.27586 0.22979 0.0
H1288 H 0.92189 0.20227 0.22549 0.0
H1289 H 0.87912 0.17732 0.24203 0.0
H1290 H 0.97323 0.24403 0.23029 0.0
H1291 H 0.8946 0.22752 0.19488 0.0
H1292 H 0.85067 0.22943 0.18603 0.0
H1293 H 0.8969 0.31796 0.18785 0.0
H1294 H 0.94101 0.31656 0.19691 0.0
H1295 H 0.06949 0.27989 0.16436 0.0
H1296 H 0.02837 0.25907 0.18277 0.0
H1297 H 0.02627 0.33631 0.18554 0.0
H1298 H 0.06709 0.35689 0.16688 0.0
H1299 H 0.97264 0.29541 0.18242 0.0
H1300 H 0.05206 0.31197 0.21652 0.0
H1301 H 0.09608 0.31001 0.22513 0.0
H1302 H 0.04854 0.22149 0.22577 0.0
H1303 H 1.00432 0.22289 0.21694 0.0
C1304 C 0.88051 0.23979 0.24163 0.0
C1305 C 0.87008 0.21166 0.24522 0.0
C1306 C 0.9055 0.25425 0.23224 0.0
C1307 C 0.92077 0.24101 0.22611 0.0
C1308 C 0.91065 0.21311 0.22991 0.0
C1309 C 0.88579 0.19869 0.23928 0.0
C1310 C 0.94726 0.25598 0.21582 0.0
C1311 C 0.9729 0.25498 0.21974 0.0
C1312 C 0.94747 0.27104 0.2022 0.0
C1313 C 0.921 0.27192 0.19674 0.0
C1314 C 0.89532 0.24738 0.19351 0.0
C1315 C 0.87041 0.24838 0.18843 0.0
C1316 C 0.87097 0.2738 0.18642 0.0
C1317 C 0.89648 0.29829 0.18944 0.0
C1318 C 0.92145 0.2974 0.19454 0.0
C1319 C 0.06053 0.2925 0.16914 0.0
C1320 C 0.072 0.32021 0.1645 0.0
C1321 C 0.03699 0.28061 0.17968 0.0
C1322 C 0.02421 0.29611 0.18585 0.0
C1323 C 0.03566 0.32383 0.18112 0.0
C1324 C 0.05923 0.33572 0.17057 0.0
C1325 C 0.99849 0.28319 0.19681 0.0
C1326 C 0.97301 0.28457 0.19303 0.0
C1327 C 0.99842 0.26847 0.21056 0.0
C1328 C 0.02494 0.26754 0.21593 0.0
C1329 C 0.05104 0.29207 0.21838 0.0
C1330 C 0.07602 0.29107 0.22332 0.0
C1331 C 0.07512 0.26564 0.22596 0.0
C1332 C 0.04922 0.24117 0.22371 0.0
C1333 C 0.02418 0.24206 0.21875 0.0
H1334 H 0.09449 0.2649 0.22979 0.0
H1335 H 0.85165 0.27453 0.18249 0.0
H1336 H 0.75028 0.06852 0.36559 0.0
H1337 H 0.73324 0.02869 0.38308 0.0
H1338 H 0.66856 0.9789 0.34875 0.0
H1339 H 0.68569 0.01882 0.33105 0.0
H1340 H 0.64644 0.96632 0.37853 0.0
H1341 H 0.73212 0.97553 0.35249 0.0
H1342 H 0.78325 0.99996 0.34382 0.0
H1343 H 0.81148 0.01485 0.39214 0.0
H1344 H 0.76047 0.99085 0.4011 0.0
H1345 H 0.61822 0.83523 0.41017 0.0
H1346 H 0.6298 0.87597 0.39386 0.0
H1347 H 0.70011 0.92591 0.42549 0.0
H1348 H 0.68888 0.88486 0.44148 0.0
H1349 H 0.71871 0.93839 0.39685 0.0
H1350 H 0.6333 0.92899 0.42309 0.0
H1351 H 0.58225 0.90494 0.43192 0.0
H1352 H 0.55348 0.89071 0.38369 0.0
H1353 H 0.6044 0.91435 0.37456 0.0
C1354 C 0.73243 0.04914 0.36168 0.0
C1355 C 0.71969 0.047 0.34672 0.0
C1356 C 0.72265 0.02627 0.37176 0.0
C1357 C 0.69992 1.00044 0.3672 0.0
C1358 C 0.68621 0.99848 0.35259 0.0
C1359 C 0.69598 0.02143 0.34247 0.0
C1360 C 0.69124 0.97547 0.37745 0.0
C1361 C 0.66218 0.96003 0.38236 0.0
C1362 C 0.71176 0.96737 0.38282 0.0
C1363 C 0.74246 0.98162 0.37746 0.0
C1364 C 0.74922 0.98418 0.36127 0.0
C1365 C 0.77818 0.99793 0.3563 0.0
C1366 C 0.8006 1.00901 0.36742 0.0
C1367 C 0.79409 1.00629 0.38354 0.0
C1368 C 0.76516 0.9926 0.38857 0.0
C1369 C 0.63577 0.85506 0.41375 0.0
C1370 C 0.65238 0.85704 0.42719 0.0
C1371 C 0.64242 0.87841 0.40444 0.0
C1372 C 0.6657 0.9044 0.40844 0.0
C1373 C 0.68203 0.9063 0.42206 0.0
C1374 C 0.67548 0.8829 0.4313 0.0
C1375 C 0.67387 0.92925 0.3981 0.0
C1376 C 0.70289 0.94466 0.39309 0.0
C1377 C 0.65331 0.93732 0.3927 0.0
C1378 C 0.62268 0.92321 0.39815 0.0
C1379 C 0.6161 0.92056 0.41437 0.0
C1380 C 0.58718 0.90702 0.41943 0.0
C1381 C 0.56464 0.89624 0.40837 0.0
C1382 C 0.57097 0.89904 0.39224 0.0
C1383 C 0.59985 0.91252 0.38711 0.0
H1384 H 0.54227 0.88577 0.41231 0.0
H1385 H 0.823 0.01964 0.36355 0.0
H1386 H 0.83061 0.72103 0.599 0.0
H1387 H 0.8008 0.73459 0.58264 0.0
H1388 H 0.75568 0.6521 0.56354 0.0
H1389 H 0.78584 0.63871 0.57983 0.0
H1390 H 0.77175 0.68858 0.54031 0.0
H1391 H 0.72195 0.67756 0.58915 0.0
H1392 H 0.71563 0.68408 0.61743 0.0
H1393 H 0.75038 0.77119 0.61012 0.0
H1394 H 0.75724 0.76526 0.5818 0.0
H1395 H 0.66531 0.7069 0.49789 0.0
H1396 H 0.68802 0.691 0.51785 0.0
H1397 H 0.73805 0.77448 0.53485 0.0
H1398 H 0.71518 0.79033 0.51481 0.0
H1399 H 0.7183 0.737 0.55948 0.0
H1400 H 0.76844 0.74746 0.51049 0.0
H1401 H 0.7721 0.74002 0.48204 0.0
H1402 H 0.73558 0.65284 0.48982 0.0
H1403 H 0.73121 0.6597 0.5183 0.0
C1404 C 0.81378 0.70565 0.5916 0.0
C1405 C 0.81003 0.67865 0.59097 0.0
C1406 C 0.79675 0.71341 0.58221 0.0
C1407 C 0.77563 0.69437 0.57187 0.0
C1408 C 0.77164 0.66721 0.57143 0.0
C1409 C 0.78862 0.65943 0.58088 0.0
C1410 C 0.75899 0.70321 0.56091 0.0
C1411 C 0.75968 0.69874 0.54459 0.0
C1412 C 0.74376 0.7172 0.56629 0.0
C1413 C 0.74031 0.72098 0.58337 0.0
C1414 C 0.72852 0.69815 0.5936 0.0
C1415 C 0.72478 0.70173 0.60962 0.0
C1416 C 0.73256 0.72802 0.61555 0.0
C1417 C 0.74432 0.75083 0.6055 0.0
C1418 C 0.74811 0.74737 0.58945 0.0
C1419 C 0.68092 0.72175 0.50603 0.0
C1420 C 0.68863 0.74984 0.50479 0.0
C1421 C 0.694 0.7127 0.51739 0.0
C1422 C 0.71514 0.73154 0.52779 0.0
C1423 C 0.72191 0.7595 0.52699 0.0
C1424 C 0.70887 0.76857 0.51555 0.0
C1425 C 0.73101 0.72222 0.53896 0.0
C1426 C 0.73029 0.72673 0.55527 0.0
C1427 C 0.74619 0.70821 0.53359 0.0
C1428 C 0.74924 0.70407 0.51651 0.0
C1429 C 0.761 0.72667 0.50612 0.0
C1430 C 0.76322 0.72257 0.48999 0.0
C1431 C 0.75402 0.69597 0.48412 0.0
C1432 C 0.74266 0.67343 0.49438 0.0
C1433 C 0.74032 0.67741 0.51052 0.0
H1434 H 0.75574 0.69283 0.47162 0.0
H1435 H 0.72928 0.73067 0.62791 0.0
H1436 H 0.17923 0.78444 0.73538 0.0
H1437 H 0.13814 0.76066 0.71706 0.0
H1438 H 0.1009 0.81104 0.73373 0.0
H1439 H 0.14139 0.83444 0.75195 0.0
H1440 H 0.05987 0.76035 0.73249 0.0
H1441 H 0.13469 0.81944 0.69642 0.0
H1442 H 0.18229 0.83881 0.6831 0.0
H1443 H 0.16179 0.75839 0.66553 0.0
H1444 H 0.11418 0.73847 0.67892 0.0
H1445 H 0.95399 0.73621 0.67259 0.0
H1446 H 0.99583 0.75604 0.69067 0.0
H1447 H 0.02345 0.69857 0.67321 0.0
H1448 H 0.9816 0.67888 0.65513 0.0
H1449 H 0.06915 0.74962 0.67495 0.0
H1450 H 0.99299 0.6912 0.70997 0.0
H1451 H 0.94515 0.67239 0.72296 0.0
H1452 H 0.96817 0.75222 0.74243 0.0
H1453 H 1.016 0.77162 0.72935 0.0
C1454 C 0.16245 0.79064 0.73498 0.0
C1455 C 0.1636 0.8112 0.74532 0.0
C1456 C 0.13887 0.777 0.72449 0.0
C1457 C 0.11608 0.78388 0.72392 0.0
C1458 C 0.11778 0.80494 0.73395 0.0
C1459 C 0.1411 0.81838 0.74442 0.0
C1460 C 0.09005 0.769 0.7133 0.0
C1461 C 0.06203 0.75834 0.71988 0.0
C1462 C 0.09243 0.76551 0.69685 0.0
C1463 C 0.12103 0.77742 0.68882 0.0
C1464 C 0.14044 0.80585 0.68982 0.0
C1465 C 0.1674 0.81693 0.68224 0.0
C1466 C 0.1751 0.79982 0.67352 0.0
C1467 C 0.15582 0.7716 0.67232 0.0
C1468 C 0.12884 0.76041 0.67989 0.0
C1469 C 0.96879 0.72759 0.67284 0.0
C1470 C 0.96445 0.70587 0.6626 0.0
C1471 C 0.99275 0.73893 0.68315 0.0
C1472 C 1.01296 0.7288 0.68346 0.0
C1473 C 1.00836 0.70686 0.67327 0.0
C1474 C 0.98433 0.69545 0.66303 0.0
C1475 C 0.03909 0.74142 0.69414 0.0
C1476 C 0.06705 0.75158 0.68758 0.0
C1477 C 0.03669 0.74454 0.71061 0.0
C1478 C 1.00799 0.73292 0.71855 0.0
C1479 C 0.98777 0.7048 0.71692 0.0
C1480 C 0.96066 0.69402 0.72432 0.0
C1481 C 0.9536 0.71111 0.73349 0.0
C1482 C 0.97366 0.73901 0.73531 0.0
C1483 C 1.00078 0.7499 0.72791 0.0
H1484 H 0.9326 0.70272 0.73921 0.0
H1485 H 0.19598 0.80845 0.66765 0.0
H1486 H 0.4168 0.19158 0.9103 0.0
H1487 H 0.40433 0.15054 0.89393 0.0
H1488 H 0.3359 0.1011 0.92657 0.0
H1489 H 0.34796 0.14239 0.94263 0.0
H1490 H 0.40246 0.10262 0.89591 0.0
H1491 H 0.27772 0.05045 0.90656 0.0
H1492 H 0.24026 0.06377 0.91357 0.0
H1493 H 0.294 0.14516 0.89533 0.0
H1494 H 0.33137 0.13212 0.88777 0.0
H1495 H 0.3394 0.96979 0.85866 0.0
H1496 H 0.35378 1.00741 0.87781 0.0
H1497 H 0.30981 0.04201 0.85019 0.0
H1498 H 0.29389 1.00382 0.83168 0.0
H1499 H 0.29998 0.04788 0.87862 0.0
H1500 H 0.38767 0.06832 0.85082 0.0
H1501 H 0.42667 0.05957 0.8405 0.0
H1502 H 0.44953 0.04921 0.88776 0.0
H1503 H 0.41041 0.05758 0.89835 0.0
C1504 C 0.39946 0.1718 0.91408 0.0
C1505 C 0.38347 0.17008 0.92777 0.0
C1506 C 0.39227 0.14831 0.90471 0.0
C1507 C 0.36882 0.12251 0.90877 0.0
C1508 C 0.35373 0.12067 0.92291 0.0
C1509 C 0.36079 0.14422 0.9322 0.0
C1510 C 0.35934 0.09807 0.89784 0.0
C1511 C 0.37999 0.09059 0.89224 0.0
C1512 C 0.33016 0.08249 0.89258 0.0
C1513 C 0.30752 0.09038 0.8968 0.0
C1514 C 0.28148 0.07115 0.90398 0.0
C1515 C 0.26026 0.07865 0.90804 0.0
C1516 C 0.26483 0.10534 0.905 0.0
C1517 C 0.29052 0.12452 0.89775 0.0
C1518 C 0.31171 0.11707 0.89354 0.0
C1519 C 0.3325 0.9852 0.85669 0.0
C1520 C 0.31568 0.98359 0.84331 0.0
C1521 C 0.34109 1.00705 0.86763 0.0
C1522 C 0.33343 0.02817 0.86546 0.0
C1523 C 0.31627 0.0263 0.85227 0.0
C1524 C 0.30748 1.00442 0.84146 0.0
C1525 C 0.34304 0.05218 0.87678 0.0
C1526 C 0.3224 0.05966 0.88243 0.0
C1527 C 0.37238 0.06827 0.88168 0.0
C1528 C 0.39592 0.06327 0.87536 0.0
C1529 C 0.40088 0.06398 0.859 0.0
C1530 C 0.42303 0.05912 0.85311 0.0
C1531 C 0.44051 0.05376 0.86347 0.0
C1532 C 0.43594 0.05332 0.87975 0.0
C1533 C 0.4138 0.05813 0.88571 0.0
H1534 H 0.45765 0.05 0.85888 0.0
H1535 H 0.24841 0.11112 0.90822 0.0
H1536 H 0.71429 0.83188 0.75624 0.0
H1537 H 0.73145 0.80826 0.77415 0.0
H1538 H 0.64518 0.76216 0.7934 0.0
H1539 H 0.62763 0.78592 0.77523 0.0
H1540 H 0.68631 0.77824 0.8167 0.0
H1541 H 0.67162 0.73229 0.76699 0.0
H1542 H 0.67632 0.72859 0.73822 0.0
H1543 H 0.76896 0.76443 0.74292 0.0
H1544 H 0.76487 0.76874 0.77171 0.0
H1545 H 0.71934 0.68201 0.85579 0.0
H1546 H 0.69748 0.70162 0.83758 0.0
H1547 H 0.78148 0.75204 0.81654 0.0
H1548 H 0.8033 0.73233 0.83483 0.0
H1549 H 0.73883 0.73129 0.79402 0.0
H1550 H 0.75381 0.77873 0.84341 0.0
H1551 H 0.74947 0.78211 0.87222 0.0
H1552 H 0.65653 0.74341 0.86809 0.0
H1553 H 0.66029 0.73932 0.83926 0.0
C1554 C 0.69876 0.8166 0.76418 0.0
C1555 C 0.66932 0.81049 0.76398 0.0
C1556 C 0.7087 0.80306 0.77449 0.0
C1557 C 0.68959 0.78281 0.78495 0.0
C1558 C 0.66041 0.77749 0.78537 0.0
C1559 C 0.65037 0.79116 0.77499 0.0
C1560 C 0.70034 0.76726 0.7952 0.0
C1561 C 0.69732 0.76757 0.81169 0.0
C1562 C 0.71539 0.75374 0.78882 0.0
C1563 C 0.71794 0.75106 0.77151 0.0
C1564 C 0.69302 0.73958 0.76188 0.0
C1565 C 0.69557 0.73734 0.74557 0.0
C1566 C 0.72293 0.74632 0.73874 0.0
C1567 C 0.74778 0.7575 0.74823 0.0
C1568 C 0.74536 0.75983 0.76454 0.0
C1569 C 0.73302 0.69707 0.84714 0.0
C1570 C 0.76304 0.70579 0.84676 0.0
C1571 C 0.72057 0.70841 0.83679 0.0
C1572 C 0.73781 0.72873 0.82577 0.0
C1573 C 0.76764 0.73653 0.82493 0.0
C1574 C 0.78013 0.72526 0.83536 0.0
C1575 C 0.72494 0.74241 0.8155 0.0
C1576 C 0.72764 0.7418 0.79902 0.0
C1577 C 0.70963 0.75565 0.82189 0.0
C1578 C 0.70731 0.75846 0.83919 0.0
C1579 C 0.73243 0.77076 0.84866 0.0
C1580 C 0.73008 0.77282 0.86499 0.0
C1581 C 0.70274 0.76293 0.87199 0.0
C1582 C 0.67769 0.75102 0.86265 0.0
C1583 C 0.67992 0.74883 0.84631 0.0
H1584 H 0.70096 0.76454 0.88464 0.0
H1585 H 0.72486 0.74457 0.72611 0.0
H1586 H 0.87611 0.63981 0.92916 0.0
H1587 H 0.91953 0.65391 0.94572 0.0
H1588 H 0.95517 0.73669 0.92748 0.0
H1589 H 0.91172 0.72259 0.91107 0.0
H1590 H 0.97806 0.67608 0.94149 0.0
H1591 H 0.98931 0.78284 0.95686 0.0
H1592 H 0.9586 0.80565 0.95842 0.0
H1593 H 0.8837 0.72768 0.96778 0.0
H1594 H 0.914 0.70446 0.96645 0.0
H1595 H 0.09542 0.79113 0.99713 0.0
H1596 H 0.05747 0.77606 0.97669 0.0
H1597 H 0.02403 0.6918 0.99213 0.0
H1598 H 0.0624 0.70691 0.01222 0.0
H1599 H 1.00087 0.75334 0.97876 0.0
H1600 H 0.9895 0.64646 0.96242 0.0
H1601 H 0.0201 0.62356 0.9607 0.0
H1602 H 0.09567 0.70192 0.95328 0.0
H1603 H 0.06549 0.72523 0.95472 0.0
C1604 C 0.89363 0.66079 0.92837 0.0
C1605 C 0.89078 0.68 0.91862 0.0
C1606 C 0.91839 0.66892 0.93792 0.0
C1607 C 0.94064 0.69651 0.93809 0.0
C1608 C 0.93826 0.71539 0.9278 0.0
C1609 C 0.91354 0.70728 0.9183 0.0
C1610 C 0.96543 0.70591 0.94958 0.0
C1611 C 0.98284 0.69278 0.94975 0.0
C1612 C 0.97224 0.72808 0.96023 0.0
C1613 C 0.9539 0.7419 0.9614 0.0
C1614 C 0.96631 0.77059 0.95932 0.0
C1615 C 0.94897 0.78358 0.96015 0.0
C1616 C 0.9192 0.7681 0.96314 0.0
C1617 C 0.90674 0.73962 0.9654 0.0
C1618 C 0.92398 0.72653 0.96459 0.0
C1619 C 0.0802 0.76937 0.99593 0.0
C1620 C 0.08193 0.75015 0.00613 0.0
C1621 C 0.05837 0.76074 0.98432 0.0
C1622 C 0.0378 0.73266 0.98264 0.0
C1623 C 0.0398 0.71347 0.99284 0.0
C1624 C 0.06169 0.72209 1.00437 0.0
C1625 C 1.01371 0.72362 0.97067 0.0
C1626 C 0.99629 0.73675 0.97045 0.0
C1627 C 1.00694 0.70146 0.95999 0.0
C1628 C 0.02524 0.6876 0.95884 0.0
C1629 C 1.01263 0.65878 0.96035 0.0
C1630 C 0.0299 0.64573 0.95943 0.0
C1631 C 0.05982 0.66128 0.95693 0.0
C1632 C 0.07251 0.68991 0.95528 0.0
C1633 C 0.05533 0.70305 0.95615 0.0
H1634 H 0.07316 0.65114 0.95625 0.0
H1635 H 0.90581 0.77819 0.96375 0.0
H1636 H 0.23944 0.8369 0.09991 0.0
H1637 H 0.26843 0.87815 0.11602 0.0
H1638 H 0.24722 0.92683 0.08403 0.0
H1639 H 0.21759 0.8853 0.06823 0.0
H1640 H 0.31404 0.92617 0.11346 0.0
H1641 H 0.23965 0.97726 0.10507 0.0
H1642 H 0.18837 0.96324 0.09898 0.0
H1643 H 0.16289 0.88186 0.11654 0.0
H1644 H 0.21386 0.89556 0.12311 0.0
H1645 H 0.38476 0.05861 0.15077 0.0
H1646 H 0.36097 0.02095 0.13177 0.0
H1647 H 0.28296 0.98675 0.15996 0.0
H1648 H 0.3056 0.02518 0.17823 0.0
H1649 H 0.26634 0.98022 0.13204 0.0
H1650 H 0.33501 0.96035 0.15853 0.0
H1651 H 0.3832 0.96927 0.16818 0.0
H1652 H 0.41474 0.97988 0.12051 0.0
H1653 H 0.3668 0.97134 0.11059 0.0
C1654 C 0.24145 0.85655 0.09622 0.0
C1655 C 0.22646 0.85799 0.0828 0.0
C1656 C 0.25801 0.88017 0.10543 0.0
C1657 C 0.25989 0.9058 0.10148 0.0
C1658 C 0.24587 0.90738 0.08759 0.0
C1659 C 0.22912 0.88369 0.07846 0.0
C1660 C 0.27517 0.93032 0.11229 0.0
C1661 C 0.30361 0.93806 0.11743 0.0
C1662 C 0.26155 0.94565 0.11794 0.0
C1663 C 0.2307 0.93735 0.11432 0.0
C1664 C 0.2231 0.9564 0.10768 0.0
C1665 C 0.19407 0.94852 0.10417 0.0
C1666 C 0.17241 0.92164 0.10728 0.0
C1667 C 0.1797 0.90264 0.11406 0.0
C1668 C 0.20866 0.91047 0.11769 0.0
C1669 C 0.36244 0.04331 0.1529 0.0
C1670 C 0.34751 0.04517 0.16636 0.0
C1671 C 0.34887 0.0214 0.14204 0.0
C1672 C 0.32011 1.00036 0.14442 0.0
C1673 C 0.30512 1.0024 0.15771 0.0
C1674 C 0.31845 0.02441 0.16841 0.0
C1675 C 0.30539 0.9763 0.13317 0.0
C1676 C 0.27696 0.96858 0.12795 0.0
C1677 C 0.31862 0.96038 0.12792 0.0
C1678 C 0.34743 0.96551 0.13384 0.0
C1679 C 0.35229 0.96478 0.15012 0.0
C1680 C 0.37954 0.96974 0.15564 0.0
C1681 C 0.40204 0.97522 0.14497 0.0
C1682 C 0.39731 0.97568 0.12876 0.0
C1683 C 0.3701 0.97077 0.12318 0.0
H1684 H 0.42313 0.97905 0.14926 0.0
H1685 H 0.14997 0.91556 0.1045 0.0
H1686 H 0.40808 0.24084 0.27548 0.0
H1687 H 0.38988 0.2636 0.29394 0.0
H1688 H 0.30666 0.22488 0.27053 0.0
H1689 H 0.32448 0.20218 0.25228 0.0
H1690 H 0.32108 0.27652 0.27548 0.0
H1691 H 0.31868 0.20394 0.30758 0.0
H1692 H 0.33842 0.17637 0.32057 0.0
H1693 H 0.39966 0.24806 0.346 0.0
H1694 H 0.38053 0.27616 0.33299 0.0
H1695 H 0.23421 0.29838 0.33387 0.0
H1696 H 0.25587 0.2789 0.31526 0.0
H1697 H 0.33878 0.32449 0.33844 0.0
H1698 H 0.31708 0.34398 0.35694 0.0
H1699 H 0.32652 0.27135 0.33372 0.0
H1700 H 0.32617 0.3432 0.30217 0.0
H1701 H 0.30477 0.36951 0.2894 0.0
H1702 H 0.24691 0.29764 0.26292 0.0
H1703 H 0.26763 0.27074 0.27574 0.0
C1704 C 0.38583 0.23695 0.27437 0.0
C1705 C 0.36801 0.21983 0.26217 0.0
C1706 C 0.37538 0.25004 0.28495 0.0
C1707 C 0.34674 0.24611 0.28373 0.0
C1708 C 0.32888 0.22866 0.27173 0.0
C1709 C 0.33924 0.21567 0.26121 0.0
C1710 C 0.3352 0.26022 0.2947 0.0
C1711 C 0.32203 0.27508 0.28821 0.0
C1712 C 0.33679 0.25902 0.31138 0.0
C1713 C 0.34841 0.24222 0.31917 0.0
C1714 C 0.33653 0.21388 0.31583 0.0
C1715 C 0.34757 0.19815 0.32322 0.0
C1716 C 0.37034 0.21048 0.33406 0.0
C1717 C 0.38206 0.23856 0.33757 0.0
C1718 C 0.37112 0.25439 0.3302 0.0
C1719 C 0.25713 0.30449 0.33481 0.0
C1720 C 0.27395 0.32263 0.34685 0.0
C1721 C 0.26954 0.29334 0.32419 0.0
C1722 C 0.2991 0.30014 0.32536 0.0
C1723 C 0.31598 0.31873 0.33726 0.0
C1724 C 0.30362 0.33 0.34777 0.0
C1725 C 0.31226 0.28745 0.31448 0.0
C1726 C 0.3257 0.27287 0.32098 0.0
C1727 C 0.31073 0.28873 0.29781 0.0
C1728 C 0.29826 0.30487 0.29005 0.0
C1729 C 0.30871 0.33293 0.29373 0.0
C1730 C 0.29672 0.34796 0.28646 0.0
C1731 C 0.27444 0.33524 0.27538 0.0
C1732 C 0.26414 0.30746 0.27153 0.0
C1733 C 0.276 0.29231 0.27879 0.0
H1734 H 0.2652 0.34692 0.26976 0.0
H1735 H 0.37885 0.19826 0.33978 0.0
H1736 H 0.11824 0.31303 0.407 0.0
H1737 H 0.07586 0.30073 0.42412 0.0
H1738 H 0.12629 0.37295 0.45263 0.0
H1739 H 0.16856 0.38524 0.43539 0.0
H1740 H 0.09846 0.32881 0.47117 0.0
H1741 H 0.07158 0.36922 0.42976 0.0
H1742 H 0.06131 0.37854 0.40271 0.0
H1743 H 0.99322 0.29489 0.39843 0.0
H1744 H 1.00342 0.28492 0.42539 0.0
H1745 H 0.98087 0.31996 0.51785 0.0
H1746 H 0.01954 0.33623 0.49789 0.0
H1747 H 0.97488 0.25815 0.47366 0.0
H1748 H 0.93638 0.24161 0.49391 0.0
H1749 H 0.99938 0.306 0.45295 0.0
H1750 H 0.02864 0.2678 0.49619 0.0
H1751 H 0.03791 0.26336 0.5243 0.0
H1752 H 0.10236 0.34878 0.52571 0.0
H1753 H 0.09306 0.35388 0.49767 0.0
C1754 C 0.11994 0.32665 0.41666 0.0
C1755 C 0.14647 0.35039 0.41968 0.0
C1756 C 0.09576 0.31956 0.42652 0.0
C1757 C 0.09763 0.33589 0.43975 0.0
C1758 C 0.1241 0.35995 0.44256 0.0
C1759 C 0.14818 0.36717 0.43261 0.0
C1760 C 0.07253 0.32716 0.45103 0.0
C1761 C 0.07693 0.32419 0.46715 0.0
C1762 C 0.04415 0.32071 0.44594 0.0
C1763 C 0.03848 0.32624 0.42954 0.0
C1764 C 0.05467 0.3527 0.42298 0.0
C1765 C 0.04882 0.35813 0.40768 0.0
C1766 C 0.02665 0.33734 0.39886 0.0
C1767 C 1.01041 0.31099 0.40527 0.0
C1768 C 1.01622 0.30543 0.42057 0.0
C1769 C 0.97929 0.3063 0.50823 0.0
C1770 C 0.95592 0.2793 0.50761 0.0
C1771 C 1.00139 0.31562 0.49682 0.0
C1772 C 1.00045 0.29834 0.48432 0.0
C1773 C 0.97625 0.27187 0.48319 0.0
C1774 C 0.95427 0.2624 0.49476 0.0
C1775 C 0.02538 0.30752 0.47296 0.0
C1776 C 0.02094 0.31055 0.45688 0.0
C1777 C 0.05385 0.31448 0.47811 0.0
C1778 C 0.05996 0.31128 0.49487 0.0
C1779 C 0.04465 0.28569 0.50252 0.0
C1780 C 0.04991 0.28305 0.51844 0.0
C1781 C 0.07066 0.30578 0.5268 0.0
C1782 C 0.08626 0.33119 0.51923 0.0
C1783 C 0.08101 0.33397 0.50332 0.0
H1784 H 0.07469 0.3037 0.53912 0.0
H1785 H 0.02198 0.34175 0.3871 0.0
H1786 H 0.68643 0.95624 0.64709 0.0
H1787 H 0.70982 0.99443 0.62835 0.0
H1788 H 0.70862 0.05085 0.66333 0.0
H1789 H 0.68468 1.01274 0.68197 0.0
H1790 H 0.69519 0.06307 0.63493 0.0
H1791 H 0.77075 0.04546 0.65526 0.0
H1792 H 0.79437 0.01698 0.66116 0.0
H1793 H 0.79564 0.99984 0.61176 0.0
H1794 H 0.77164 0.02792 0.60558 0.0
H1795 H 0.80192 0.1912 0.6031 0.0
H1796 H 0.77219 0.15016 0.61902 0.0
H1797 H 0.78242 0.09896 0.58359 0.0
H1798 H 0.81298 0.14035 0.56794 0.0
H1799 H 0.78958 0.08241 0.61102 0.0
H1800 H 0.71602 0.10135 0.59031 0.0
H1801 H 0.69214 0.1295 0.58417 0.0
H1802 H 0.6863 0.14348 0.63364 0.0
H1803 H 0.71054 0.11573 0.64007 0.0
C1804 C 0.6907 0.97667 0.65075 0.0
C1805 C 0.68368 0.98121 0.66618 0.0
C1806 C 0.70442 0.99865 0.64003 0.0
C1807 C 0.71155 0.02584 0.6444 0.0
C1808 C 0.70362 0.03024 0.65959 0.0
C1809 C 0.69003 1.00833 0.67033 0.0
C1810 C 0.72771 0.04977 0.63336 0.0
C1811 C 0.71597 0.06742 0.62984 0.0
C1812 C 0.75456 0.05531 0.62629 0.0
C1813 C 0.76911 0.03854 0.62997 0.0
C1814 C 0.77586 0.03544 0.64566 0.0
C1815 C 0.78935 0.0194 0.64906 0.0
C1816 C 0.79642 1.00654 0.63685 0.0
C1817 C 0.7901 1.00977 0.62121 0.0
C1818 C 0.77657 0.02575 0.61775 0.0
C1819 C 0.79736 0.1711 0.59862 0.0
C1820 C 0.80947 0.16891 0.58421 0.0
C1821 C 0.78028 0.14754 0.60772 0.0
C1822 C 0.7745 0.12106 0.60254 0.0
C1823 C 0.78634 0.11894 0.58796 0.0
C1824 C 0.8036 0.14257 0.57891 0.0
C1825 C 0.75714 0.09588 0.61259 0.0
C1826 C 0.76869 0.07801 0.61598 0.0
C1827 C 0.73005 0.09006 0.61948 0.0
C1828 C 0.71533 0.10665 0.61566 0.0
C1829 C 0.70983 0.11058 0.59988 0.0
C1830 C 0.6962 0.12645 0.59634 0.0
C1831 C 0.68777 0.13832 0.6085 0.0
C1832 C 0.69288 0.13429 0.62423 0.0
C1833 C 0.70653 0.11847 0.62783 0.0
H1834 H 0.67722 0.1506 0.60574 0.0
H1835 H 0.80686 0.99413 0.6395 0.0
loop_
_geom_bond_atom_site_label_1
_geom_bond_atom_site_label_2
_geom_bond_distance
_geom_bond_site_symmetry_2
_ccdc_geom_bond_type
C0 C1 1.443 . S
C0 N4 1.376 . S
C0 C38 1.389 . S
C1 C0 1.443 . S
C1 C2 1.340 . S
C1 H41 0.951 . S
C2 C1 1.340 . S
C2 C3 1.439 . S
C2 H42 0.950 . S
C3 C2 1.439 . S
C3 N4 1.374 . S
C3 C37 1.395 . S
N4 C0 1.376 . S
N4 C3 1.374 . S
N4 Co5 2.008 . S
Co5 N4 2.008 . S
Co5 N6 1.995 . S
Co5 N11 2.008 . S
Co5 N16 1.995 . S
Co5 N21 2.282 . S
Co5 N27 2.282 . S
N6 Co5 1.995 . S
N6 C7 1.376 . S
N6 C10 1.383 . S
C7 N6 1.376 . S
C7 C8 1.446 . S
C7 C37 1.391 . S
C8 C7 1.446 . S
C8 C9 1.339 . S
C8 H43 0.949 . S
C9 C8 1.339 . S
C9 C10 1.439 . S
C9 H44 0.950 . S
C10 N6 1.383 . S
C10 C9 1.439 . S
C10 C39 1.392 . S
N11 Co5 2.008 . S
N11 C12 1.376 . S
N11 C15 1.374 . S
C12 N11 1.376 . S
C12 C13 1.443 . S
C12 C39 1.389 . S
C13 C12 1.443 . S
C13 C14 1.340 . S
C13 H45 0.951 . S
C14 C13 1.340 . S
C14 C15 1.439 . S
C14 H46 0.950 . S
C15 N11 1.374 . S
C15 C14 1.439 . S
C15 C40 1.395 . S
N16 Co5 1.995 . S
N16 C17 1.376 . S
N16 C20 1.383 . S
C17 N16 1.376 . S
C17 C18 1.446 . S
C17 C40 1.391 . S
C18 C17 1.446 . S
C18 C19 1.339 . S
C18 H47 0.949 . S
C19 C18 1.339 . S
C19 C20 1.439 . S
C19 H48 0.950 . S
C20 N16 1.383 . S
C20 C19 1.439 . S
C20 C38 1.392 . S
N21 Co5 2.282 . S
N21 C24 1.332 . S
N21 C26 1.332 . S
C22 C23 1.386 . S
C22 C25 1.388 . S
C23 C22 1.386 . S
C23 C24 1.382 . S
C23 H49 0.950 . S
C24 N21 1.332 . S
C24 C23 1.382 . S
C24 H35 0.952 . S
C25 C22 1.388 . S
C25 C26 1.382 . S
C25 H50 0.950 . S
C26 N21 1.332 . S
C26 C25 1.382 . S
C26 H36 0.948 . S
N27 Co5 2.282 . S
N27 C31 1.332 . S
N27 C32 1.332 . S
C28 C29 1.388 . S
C28 C32 1.382 . S
C28 H51 0.950 . S
C29 C28 1.388 . S
C29 C30 1.386 . S
C30 C29 1.386 . S
C30 C31 1.382 . S
C30 H52 0.950 . S
C31 N27 1.332 . S
C31 C30 1.382 . S
C31 H33 0.952 . S
C32 N27 1.332 . S
C32 C28 1.382 . S
C32 H34 0.948 . S
H33 C31 0.952 . S
H34 C32 0.948 . S
H35 C24 0.952 . S
H36 C26 0.948 . S
C37 C3 1.395 . S
C37 C7 1.391 . S
C38 C0 1.389 . S
C38 C20 1.392 . S
C39 C10 1.392 . S
C39 C12 1.389 . S
C40 C15 1.395 . S
C40 C17 1.391 . S
H41 C1 0.951 . S
H42 C2 0.950 . S
H43 C8 0.949 . S
H44 C9 0.950 . S
H45 C13 0.951 . S
H46 C14 0.950 . S
H47 C18 0.949 . S
H48 C19 0.950 . S
H49 C23 0.950 . S
H50 C25 0.950 . S
H51 C28 0.950 . S
H52 C30 0.950 . S
C53 C54 1.443 . S
C53 N57 1.376 . S
C53 C91 1.389 . S
C54 C53 1.443 . S
C54 C55 1.340 . S
C54 H94 0.951 . S
C55 C54 1.340 . S
C55 C56 1.439 . S
C55 H95 0.950 . S
C56 C55 1.439 . S
C56 N57 1.374 . S
C56 C90 1.395 . S
N57 C53 1.376 . S
N57 C56 1.374 . S
N57 Co58 2.008 . S
Co58 N57 2.008 . S
Co58 N59 1.995 . S
Co58 N64 2.008 . S
Co58 N69 1.995 . S
Co58 N74 2.282 . S
Co58 N80 2.282 . S
N59 Co58 1.995 . S
N59 C60 1.376 . S
N59 C63 1.383 . S
C60 N59 1.376 . S
C60 C61 1.446 . S
C60 C90 1.391 . S
C61 C60 1.446 . S
C61 C62 1.339 . S
C61 H96 0.949 . S
C62 C61 1.339 . S
C62 C63 1.439 . S
C62 H97 0.950 . S
C63 N59 1.383 . S
C63 C62 1.439 . S
C63 C92 1.392 . S
N64 Co58 2.008 . S
N64 C65 1.376 . S
N64 C68 1.374 . S
C65 N64 1.376 . S
C65 C66 1.443 . S
C65 C92 1.389 . S
C66 C65 1.443 . S
C66 C67 1.340 . S
C66 H98 0.951 . S
C67 C66 1.340 . S
C67 C68 1.439 . S
C67 H99 0.950 . S
C68 N64 1.374 . S
C68 C67 1.439 . S
C68 C93 1.395 . S
N69 Co58 1.995 . S
N69 C70 1.376 . S
N69 C73 1.383 . S
C70 N69 1.376 . S
C70 C71 1.446 . S
C70 C93 1.391 . S
C71 C70 1.446 . S
C71 C72 1.339 . S
C71 H100 0.949 . S
C72 C71 1.339 . S
C72 C73 1.439 . S
C72 H101 0.950 . S
C73 N69 1.383 . S
C73 C72 1.439 . S
C73 C91 1.392 . S
N74 Co58 2.282 . S
N74 C77 1.332 . S
N74 C79 1.332 . S
C75 C76 1.386 . S
C75 C78 1.388 . S
C76 C75 1.386 . S
C76 C77 1.382 . S
C76 H102 0.950 . S
C77 N74 1.332 . S
C77 C76 1.382 . S
C77 H88 0.952 . S
C78 C75 1.388 . S
C78 C79 1.382 . S
C78 H103 0.950 . S
C79 N74 1.332 . S
C79 C78 1.382 . S
C79 H89 0.948 . S
N80 Co58 2.282 . S
N80 C84 1.332 . S
N80 C85 1.332 . S
C81 C82 1.388 . S
C81 C85 1.382 . S
C81 H104 0.950 . S
C82 C81 1.388 . S
C82 C83 1.386 . S
C83 C82 1.386 . S
C83 C84 1.382 . S
C83 H105 0.950 . S
C84 N80 1.332 . S
C84 C83 1.382 . S
C84 H86 0.952 . S
C85 N80 1.332 . S
C85 C81 1.382 . S
C85 H87 0.948 . S
H86 C84 0.952 . S
H87 C85 0.948 . S
H88 C77 0.952 . S
H89 C79 0.948 . S
C90 C56 1.395 . S
C90 C60 1.391 . S
C91 C53 1.389 . S
C91 C73 1.392 . S
C92 C63 1.392 . S
C92 C65 1.389 . S
C93 C68 1.395 . S
C93 C70 1.391 . S
H94 C54 0.951 . S
H95 C55 0.950 . S
H96 C61 0.949 . S
H97 C62 0.950 . S
H98 C66 0.951 . S
H99 C67 0.950 . S
H100 C71 0.949 . S
H101 C72 0.950 . S
H102 C76 0.950 . S
H103 C78 0.950 . S
H104 C81 0.950 . S
H105 C83 0.950 . S
C106 C107 1.443 . S
C106 N110 1.376 . S
C106 C144 1.389 . S
C107 C106 1.443 . S
C107 C108 1.340 . S
C107 H147 0.951 . S
C108 C107 1.340 . S
C108 C109 1.439 . S
C108 H148 0.950 . S
C109 C108 1.439 . S
C109 N110 1.374 . S
C109 C143 1.395 . S
N110 C106 1.376 . S
N110 C109 1.374 . S
N110 Co111 2.008 . S
Co111 N110 2.008 . S
Co111 N112 1.995 . S
Co111 N117 2.008 . S
Co111 N122 1.995 . S
Co111 N127 2.282 . S
Co111 N133 2.282 . S
N112 Co111 1.995 . S
N112 C113 1.376 . S
N112 C116 1.383 . S
C113 N112 1.376 . S
C113 C114 1.446 . S
C113 C143 1.391 . S
C114 C113 1.446 . S
C114 C115 1.339 . S
C114 H149 0.949 . S
C115 C114 1.339 . S
C115 C116 1.439 . S
C115 H150 0.950 . S
C116 N112 1.383 . S
C116 C115 1.439 . S
C116 C145 1.392 . S
N117 Co111 2.008 . S
N117 C118 1.376 . S
N117 C121 1.374 . S
C118 N117 1.376 . S
C118 C119 1.443 . S
C118 C145 1.389 . S
C119 C118 1.443 . S
C119 C120 1.340 . S
C119 H151 0.951 . S
C120 C119 1.340 . S
C120 C121 1.439 . S
C120 H152 0.950 . S
C121 N117 1.374 . S
C121 C120 1.439 . S
C121 C146 1.395 . S
N122 Co111 1.995 . S
N122 C123 1.376 . S
N122 C126 1.383 . S
C123 N122 1.376 . S
C123 C124 1.446 . S
C123 C146 1.391 . S
C124 C123 1.446 . S
C124 C125 1.339 . S
C124 H153 0.949 . S
C125 C124 1.339 . S
C125 C126 1.439 . S
C125 H154 0.950 . S
C126 N122 1.383 . S
C126 C125 1.439 . S
C126 C144 1.392 . S
N127 Co111 2.282 . S
N127 C130 1.332 . S
N127 C132 1.332 . S
C128 C129 1.386 . S
C128 C131 1.388 . S
C129 C128 1.386 . S
C129 C130 1.382 . S
C129 H155 0.950 . S
C130 N127 1.332 . S
C130 C129 1.382 . S
C130 H141 0.952 . S
C131 C128 1.388 . S
C131 C132 1.382 . S
C131 H156 0.950 . S
C132 N127 1.332 . S
C132 C131 1.382 . S
C132 H142 0.948 . S
N133 Co111 2.282 . S
N133 C137 1.332 . S
N133 C138 1.332 . S
C134 C135 1.388 . S
C134 C138 1.382 . S
C134 H157 0.950 . S
C135 C134 1.388 . S
C135 C136 1.386 . S
C136 C135 1.386 . S
C136 C137 1.382 . S
C136 H158 0.950 . S
C137 N133 1.332 . S
C137 C136 1.382 . S
C137 H139 0.952 . S
C138 N133 1.332 . S
C138 C134 1.382 . S
C138 H140 0.948 . S
H139 C137 0.952 . S
H140 C138 0.948 . S
H141 C130 0.952 . S
H142 C132 0.948 . S
C143 C109 1.395 . S
C143 C113 1.391 . S
C144 C106 1.389 . S
C144 C126 1.392 . S
C145 C116 1.392 . S
C145 C118 1.389 . S
C146 C121 1.395 . S
C146 C123 1.391 . S
H147 C107 0.951 . S
H148 C108 0.950 . S
H149 C114 0.949 . S
H150 C115 0.950 . S
H151 C119 0.951 . S
H152 C120 0.950 . S
H153 C124 0.949 . S
H154 C125 0.950 . S
H155 C129 0.950 . S
H156 C131 0.950 . S
H157 C134 0.950 . S
H158 C136 0.950 . S
C159 C160 1.443 . S
C159 N163 1.376 . S
C159 C197 1.389 . S
C160 C159 1.443 . S
C160 C161 1.340 . S
C160 H200 0.951 . S
C161 C160 1.340 . S
C161 C162 1.439 . S
C161 H201 0.950 . S
C162 C161 1.439 . S
C162 N163 1.374 . S
C162 C196 1.395 . S
N163 C159 1.376 . S
N163 C162 1.374 . S
N163 Co164 2.008 . S
Co164 N163 2.008 . S
Co164 N165 1.995 . S
Co164 N170 2.008 . S
Co164 N175 1.995 . S
Co164 N180 2.282 . S
Co164 N186 2.282 . S
N165 Co164 1.995 . S
N165 C166 1.376 . S
N165 C169 1.383 . S
C166 N165 1.376 . S
C166 C167 1.446 . S
C166 C196 1.391 . S
C167 C166 1.446 . S
C167 C168 1.339 . S
C167 H202 0.949 . S
C168 C167 1.339 . S
C168 C169 1.439 . S
C168 H203 0.950 . S
C169 N165 1.383 . S
C169 C168 1.439 . S
C169 C198 1.392 . S
N170 Co164 2.008 . S
N170 C171 1.376 . S
N170 C174 1.374 . S
C171 N170 1.376 . S
C171 C172 1.443 . S
C171 C198 1.389 . S
C172 C171 1.443 . S
C172 C173 1.340 . S
C172 H204 0.951 . S
C173 C172 1.340 . S
C173 C174 1.439 . S
C173 H205 0.950 . S
C174 N170 1.374 . S
C174 C173 1.439 . S
C174 C199 1.395 . S
N175 Co164 1.995 . S
N175 C176 1.376 . S
N175 C179 1.383 . S
C176 N175 1.376 . S
C176 C177 1.446 . S
C176 C199 1.391 . S
C177 C176 1.446 . S
C177 C178 1.339 . S
C177 H206 0.949 . S
C178 C177 1.339 . S
C178 C179 1.439 . S
C178 H207 0.950 . S
C179 N175 1.383 . S
C179 C178 1.439 . S
C179 C197 1.392 . S
N180 Co164 2.282 . S
N180 C183 1.332 . S
N180 C185 1.332 . S
C181 C182 1.386 . S
C181 C184 1.388 . S
C182 C181 1.386 . S
C182 C183 1.382 . S
C182 H208 0.950 . S
C183 N180 1.332 . S
C183 C182 1.382 . S
C183 H194 0.952 . S
C184 C181 1.388 . S
C184 C185 1.382 . S
C184 H209 0.950 . S
C185 N180 1.332 . S
C185 C184 1.382 . S
C185 H195 0.948 . S
N186 Co164 2.282 . S
N186 C190 1.332 . S
N186 C191 1.332 . S
C187 C188 1.388 . S
C187 C191 1.382 . S
C187 H210 0.950 . S
C188 C187 1.388 . S
C188 C189 1.386 . S
C189 C188 1.386 . S
C189 C190 1.382 . S
C189 H211 0.950 . S
C190 N186 1.332 . S
C190 C189 1.382 . S
C190 H192 0.952 . S
C191 N186 1.332 . S
C191 C187 1.382 . S
C191 H193 0.948 . S
H192 C190 0.952 . S
H193 C191 0.948 . S
H194 C183 0.952 . S
H195 C185 0.948 . S
C196 C162 1.395 . S
C196 C166 1.391 . S
C197 C159 1.389 . S
C197 C179 1.392 . S
C198 C169 1.392 . S
C198 C171 1.389 . S
C199 C174 1.395 . S
C199 C176 1.391 . S
H200 C160 0.951 . S
H201 C161 0.950 . S
H202 C167 0.949 . S
H203 C168 0.950 . S
H204 C172 0.951 . S
H205 C173 0.950 . S
H206 C177 0.949 . S
H207 C178 0.950 . S
H208 C182 0.950 . S
H209 C184 0.950 . S
H210 C187 0.950 . S
H211 C189 0.950 . S
C212 C213 1.443 . S
C212 N216 1.376 . S
C212 C250 1.389 . S
C213 C212 1.443 . S
C213 C214 1.340 . S
C213 H253 0.951 . S
C214 C213 1.340 . S
C214 C215 1.439 . S
C214 H254 0.950 . S
C215 C214 1.439 . S
C215 N216 1.374 . S
C215 C249 1.395 . S
N216 C212 1.376 . S
N216 C215 1.374 . S
N216 Co217 2.008 . S
Co217 N216 2.008 . S
Co217 N218 1.995 . S
Co217 N223 2.008 . S
Co217 N228 1.995 . S
Co217 N233 2.282 . S
Co217 N239 2.282 . S
N218 Co217 1.995 . S
N218 C219 1.376 . S
N218 C222 1.383 . S
C219 N218 1.376 . S
C219 C220 1.446 . S
C219 C249 1.391 . S
C220 C219 1.446 . S
C220 C221 1.339 . S
C220 H255 0.949 . S
C221 C220 1.339 . S
C221 C222 1.439 . S
C221 H256 0.950 . S
C222 N218 1.383 . S
C222 C221 1.439 . S
C222 C251 1.392 . S
N223 Co217 2.008 . S
N223 C224 1.376 . S
N223 C227 1.374 . S
C224 N223 1.376 . S
C224 C225 1.443 . S
C224 C251 1.389 . S
C225 C224 1.443 . S
C225 C226 1.340 . S
C225 H257 0.951 . S
C226 C225 1.340 . S
C226 C227 1.439 . S
C226 H258 0.950 . S
C227 N223 1.374 . S
C227 C226 1.439 . S
C227 C252 1.395 . S
N228 Co217 1.995 . S
N228 C229 1.376 . S
N228 C232 1.383 . S
C229 N228 1.376 . S
C229 C230 1.446 . S
C229 C252 1.391 . S
C230 C229 1.446 . S
C230 C231 1.339 . S
C230 H259 0.949 . S
C231 C230 1.339 . S
C231 C232 1.439 . S
C231 H260 0.950 . S
C232 N228 1.383 . S
C232 C231 1.439 . S
C232 C250 1.392 . S
N233 Co217 2.282 . S
N233 C236 1.332 . S
N233 C238 1.332 . S
C234 C235 1.386 . S
C234 C237 1.388 . S
C235 C234 1.386 . S
C235 C236 1.382 . S
C235 H261 0.950 . S
C236 N233 1.332 . S
C236 C235 1.382 . S
C236 H247 0.952 . S
C237 C234 1.388 . S
C237 C238 1.382 . S
C237 H262 0.950 . S
C238 N233 1.332 . S
C238 C237 1.382 . S
C238 H248 0.948 . S
N239 Co217 2.282 . S
N239 C243 1.332 . S
N239 C244 1.332 . S
C240 C241 1.388 . S
C240 C244 1.382 . S
C240 H263 0.950 . S
C241 C240 1.388 . S
C241 C242 1.386 . S
C242 C241 1.386 . S
C242 C243 1.382 . S
C242 H264 0.950 . S
C243 N239 1.332 . S
C243 C242 1.382 . S
C243 H245 0.952 . S
C244 N239 1.332 . S
C244 C240 1.382 . S
C244 H246 0.948 . S
H245 C243 0.952 . S
H246 C244 0.948 . S
H247 C236 0.952 . S
H248 C238 0.948 . S
C249 C215 1.395 . S
C249 C219 1.391 . S
C250 C212 1.389 . S
C250 C232 1.392 . S
C251 C222 1.392 . S
C251 C224 1.389 . S
C252 C227 1.395 . S
C252 C229 1.391 . S
H253 C213 0.951 . S
H254 C214 0.950 . S
H255 C220 0.949 . S
H256 C221 0.950 . S
H257 C225 0.951 . S
H258 C226 0.950 . S
H259 C230 0.949 . S
H260 C231 0.950 . S
H261 C235 0.950 . S
H262 C237 0.950 . S
H263 C240 0.950 . S
H264 C242 0.950 . S
C265 C266 1.443 . S
C265 N269 1.376 . S
C265 C303 1.389 . S
C266 C265 1.443 . S
C266 C267 1.340 . S
C266 H306 0.951 . S
C267 C266 1.340 . S
C267 C268 1.439 . S
C267 H307 0.950 . S
C268 C267 1.439 . S
C268 N269 1.374 . S
C268 C302 1.395 . S
N269 C265 1.376 . S
N269 C268 1.374 . S
N269 Co270 2.008 . S
Co270 N269 2.008 . S
Co270 N271 1.995 . S
Co270 N276 2.008 . S
Co270 N281 1.995 . S
Co270 N286 2.282 . S
Co270 N292 2.282 . S
N271 Co270 1.995 . S
N271 C272 1.376 . S
N271 C275 1.383 . S
C272 N271 1.376 . S
C272 C273 1.446 . S
C272 C302 1.391 . S
C273 C272 1.446 . S
C273 C274 1.339 . S
C273 H308 0.949 . S
C274 C273 1.339 . S
C274 C275 1.439 . S
C274 H309 0.950 . S
C275 N271 1.383 . S
C275 C274 1.439 . S
C275 C304 1.392 . S
N276 Co270 2.008 . S
N276 C277 1.376 . S
N276 C280 1.374 . S
C277 N276 1.376 . S
C277 C278 1.443 . S
C277 C304 1.389 . S
C278 C277 1.443 . S
C278 C279 1.340 . S
C278 H310 0.951 . S
C279 C278 1.340 . S
C279 C280 1.439 . S
C279 H311 0.950 . S
C280 N276 1.374 . S
C280 C279 1.439 . S
C280 C305 1.395 . S
N281 Co270 1.995 . S
N281 C282 1.376 . S
N281 C285 1.383 . S
C282 N281 1.376 . S
C282 C283 1.446 . S
C282 C305 1.391 . S
C283 C282 1.446 . S
C283 C284 1.339 . S
C283 H312 0.949 . S
C284 C283 1.339 . S
C284 C285 1.439 . S
C284 H313 0.950 . S
C285 N281 1.383 . S
C285 C284 1.439 . S
C285 C303 1.392 . S
N286 Co270 2.282 . S
N286 C289 1.332 . S
N286 C291 1.332 . S
C287 C288 1.386 . S
C287 C290 1.388 . S
C288 C287 1.386 . S
C288 C289 1.382 . S
C288 H314 0.950 . S
C289 N286 1.332 . S
C289 C288 1.382 . S
C289 H300 0.952 . S
C290 C287 1.388 . S
C290 C291 1.382 . S
C290 H315 0.950 . S
C291 N286 1.332 . S
C291 C290 1.382 . S
C291 H301 0.948 . S
N292 Co270 2.282 . S
N292 C296 1.332 . S
N292 C297 1.332 . S
C293 C294 1.388 . S
C293 C297 1.382 . S
C293 H316 0.950 . S
C294 C293 1.388 . S
C294 C295 1.386 . S
C295 C294 1.386 . S
C295 C296 1.382 . S
C295 H317 0.950 . S
C296 N292 1.332 . S
C296 C295 1.382 . S
C296 H298 0.952 . S
C297 N292 1.332 . S
C297 C293 1.382 . S
C297 H299 0.948 . S
H298 C296 0.952 . S
H299 C297 0.948 . S
H300 C289 0.952 . S
H301 C291 0.948 . S
C302 C268 1.395 . S
C302 C272 1.391 . S
C303 C265 1.389 . S
C303 C285 1.392 . S
C304 C275 1.392 . S
C304 C277 1.389 . S
C305 C280 1.395 . S
C305 C282 1.391 . S
H306 C266 0.951 . S
H307 C267 0.950 . S
H308 C273 0.949 . S
H309 C274 0.950 . S
H310 C278 0.951 . S
H311 C279 0.950 . S
H312 C283 0.949 . S
H313 C284 0.950 . S
H314 C288 0.950 . S
H315 C290 0.950 . S
H316 C293 0.950 . S
H317 C295 0.950 . S
C318 C319 1.443 . S
C318 N322 1.376 . S
C318 C356 1.389 . S
C319 C318 1.443 . S
C319 C320 1.340 . S
C319 H359 0.951 . S
C320 C319 1.340 . S
C320 C321 1.439 . S
C320 H360 0.950 . S
C321 C320 1.439 . S
C321 N322 1.374 . S
C321 C355 1.395 . S
N322 C318 1.376 . S
N322 C321 1.374 . S
N322 Co323 2.008 . S
Co323 N322 2.008 . S
Co323 N324 1.995 . S
Co323 N329 2.008 . S
Co323 N334 1.995 . S
Co323 N339 2.282 . S
Co323 N345 2.282 . S
N324 Co323 1.995 . S
N324 C325 1.376 . S
N324 C328 1.383 . S
C325 N324 1.376 . S
C325 C326 1.446 . S
C325 C355 1.391 . S
C326 C325 1.446 . S
C326 C327 1.339 . S
C326 H361 0.949 . S
C327 C326 1.339 . S
C327 C328 1.439 . S
C327 H362 0.950 . S
C328 N324 1.383 . S
C328 C327 1.439 . S
C328 C357 1.392 . S
N329 Co323 2.008 . S
N329 C330 1.376 . S
N329 C333 1.374 . S
C330 N329 1.376 . S
C330 C331 1.443 . S
C330 C357 1.389 . S
C331 C330 1.443 . S
C331 C332 1.340 . S
C331 H363 0.951 . S
C332 C331 1.340 . S
C332 C333 1.439 . S
C332 H364 0.950 . S
C333 N329 1.374 . S
C333 C332 1.439 . S
C333 C358 1.395 . S
N334 Co323 1.995 . S
N334 C335 1.376 . S
N334 C338 1.383 . S
C335 N334 1.376 . S
C335 C336 1.446 . S
C335 C358 1.391 . S
C336 C335 1.446 . S
C336 C337 1.339 . S
C336 H365 0.949 . S
C337 C336 1.339 . S
C337 C338 1.439 . S
C337 H366 0.950 . S
C338 N334 1.383 . S
C338 C337 1.439 . S
C338 C356 1.392 . S
N339 Co323 2.282 . S
N339 C342 1.332 . S
N339 C344 1.332 . S
C340 C341 1.386 . S
C340 C343 1.388 . S
C341 C340 1.386 . S
C341 C342 1.382 . S
C341 H367 0.950 . S
C342 N339 1.332 . S
C342 C341 1.382 . S
C342 H353 0.952 . S
C343 C340 1.388 . S
C343 C344 1.382 . S
C343 H368 0.950 . S
C344 N339 1.332 . S
C344 C343 1.382 . S
C344 H354 0.948 . S
N345 Co323 2.282 . S
N345 C349 1.332 . S
N345 C350 1.332 . S
C346 C347 1.388 . S
C346 C350 1.382 . S
C346 H369 0.950 . S
C347 C346 1.388 . S
C347 C348 1.386 . S
C348 C347 1.386 . S
C348 C349 1.382 . S
C348 H370 0.950 . S
C349 N345 1.332 . S
C349 C348 1.382 . S
C349 H351 0.952 . S
C350 N345 1.332 . S
C350 C346 1.382 . S
C350 H352 0.948 . S
H351 C349 0.952 . S
H352 C350 0.948 . S
H353 C342 0.952 . S
H354 C344 0.948 . S
C355 C321 1.395 . S
C355 C325 1.391 . S
C356 C318 1.389 . S
C356 C338 1.392 . S
C357 C328 1.392 . S
C357 C330 1.389 . S
C358 C333 1.395 . S
C358 C335 1.391 . S
H359 C319 0.951 . S
H360 C320 0.950 . S
H361 C326 0.949 . S
H362 C327 0.950 . S
H363 C331 0.951 . S
H364 C332 0.950 . S
H365 C336 0.949 . S
H366 C337 0.950 . S
H367 C341 0.950 . S
H368 C343 0.950 . S
H369 C346 0.950 . S
H370 C348 0.950 . S
C371 C372 1.443 . S
C371 N375 1.376 . S
C371 C409 1.389 . S
C372 C371 1.443 . S
C372 C373 1.340 . S
C372 H412 0.951 . S
C373 C372 1.340 . S
C373 C374 1.439 . S
C373 H413 0.950 . S
C374 C373 1.439 . S
C374 N375 1.374 . S
C374 C408 1.395 . S
N375 C371 1.376 . S
N375 C374 1.374 . S
N375 Co376 2.008 . S
Co376 N375 2.008 . S
Co376 N377 1.995 . S
Co376 N382 2.008 . S
Co376 N387 1.995 . S
Co376 N392 2.282 . S
Co376 N398 2.282 . S
N377 Co376 1.995 . S
N377 C378 1.376 . S
N377 C381 1.383 . S
C378 N377 1.376 . S
C378 C379 1.446 . S
C378 C408 1.391 . S
C379 C378 1.446 . S
C379 C380 1.339 . S
C379 H414 0.949 . S
C380 C379 1.339 . S
C380 C381 1.439 . S
C380 H415 0.950 . S
C381 N377 1.383 . S
C381 C380 1.439 . S
C381 C410 1.392 . S
N382 Co376 2.008 . S
N382 C383 1.376 . S
N382 C386 1.374 . S
C383 N382 1.376 . S
C383 C384 1.443 . S
C383 C410 1.389 . S
C384 C383 1.443 . S
C384 C385 1.340 . S
C384 H416 0.951 . S
C385 C384 1.340 . S
C385 C386 1.439 . S
C385 H417 0.950 . S
C386 N382 1.374 . S
C386 C385 1.439 . S
C386 C411 1.395 . S
N387 Co376 1.995 . S
N387 C388 1.376 . S
N387 C391 1.383 . S
C388 N387 1.376 . S
C388 C389 1.446 . S
C388 C411 1.391 . S
C389 C388 1.446 . S
C389 C390 1.339 . S
C389 H418 0.949 . S
C390 C389 1.339 . S
C390 C391 1.439 . S
C390 H419 0.950 . S
C391 N387 1.383 . S
C391 C390 1.439 . S
C391 C409 1.392 . S
N392 Co376 2.282 . S
N392 C395 1.332 . S
N392 C397 1.332 . S
C393 C394 1.386 . S
C393 C396 1.388 . S
C394 C393 1.386 . S
C394 C395 1.382 . S
C394 H420 0.950 . S
C395 N392 1.332 . S
C395 C394 1.382 . S
C395 H406 0.952 . S
C396 C393 1.388 . S
C396 C397 1.382 . S
C396 H421 0.950 . S
C397 N392 1.332 . S
C397 C396 1.382 . S
C397 H407 0.948 . S
N398 Co376 2.282 . S
N398 C402 1.332 . S
N398 C403 1.332 . S
C399 C400 1.388 . S
C399 C403 1.382 . S
C399 H422 0.950 . S
C400 C399 1.388 . S
C400 C401 1.386 . S
C401 C400 1.386 . S
C401 C402 1.382 . S
C401 H423 0.950 . S
C402 N398 1.332 . S
C402 C401 1.382 . S
C402 H404 0.952 . S
C403 N398 1.332 . S
C403 C399 1.382 . S
C403 H405 0.948 . S
H404 C402 0.952 . S
H405 C403 0.948 . S
H406 C395 0.952 . S
H407 C397 0.948 . S
C408 C374 1.395 . S
C408 C378 1.391 . S
C409 C371 1.389 . S
C409 C391 1.392 . S
C410 C381 1.392 . S
C410 C383 1.389 . S
C411 C386 1.395 . S
C411 C388 1.391 . S
H412 C372 0.951 . S
H413 C373 0.950 . S
H414 C379 0.949 . S
H415 C380 0.950 . S
H416 C384 0.951 . S
H417 C385 0.950 . S
H418 C389 0.949 . S
H419 C390 0.950 . S
H420 C394 0.950 . S
H421 C396 0.950 . S
H422 C399 0.950 . S
H423 C401 0.950 . S
C424 C425 1.443 . S
C424 N428 1.376 . S
C424 C462 1.389 . S
C425 C424 1.443 . S
C425 C426 1.340 . S
C425 H465 0.951 . S
C426 C425 1.340 . S
C426 C427 1.439 . S
C426 H466 0.950 . S
C427 C426 1.439 . S
C427 N428 1.374 . S
C427 C461 1.395 . S
N428 C424 1.376 . S
N428 C427 1.374 . S
N428 Co429 2.008 . S
Co429 N428 2.008 . S
Co429 N430 1.995 . S
Co429 N435 2.008 . S
Co429 N440 1.995 . S
Co429 N445 2.282 . S
Co429 N451 2.282 . S
N430 Co429 1.995 . S
N430 C431 1.376 . S
N430 C434 1.383 . S
C431 N430 1.376 . S
C431 C432 1.446 . S
C431 C461 1.391 . S
C432 C431 1.446 . S
C432 C433 1.339 . S
C432 H467 0.949 . S
C433 C432 1.339 . S
C433 C434 1.439 . S
C433 H468 0.950 . S
C434 N430 1.383 . S
C434 C433 1.439 . S
C434 C463 1.392 . S
N435 Co429 2.008 . S
N435 C436 1.376 . S
N435 C439 1.374 . S
C436 N435 1.376 . S
C436 C437 1.443 . S
C436 C463 1.389 . S
C437 C436 1.443 . S
C437 C438 1.340 . S
C437 H469 0.951 . S
C438 C437 1.340 . S
C438 C439 1.439 . S
C438 H470 0.950 . S
C439 N435 1.374 . S
C439 C438 1.439 . S
C439 C464 1.395 . S
N440 Co429 1.995 . S
N440 C441 1.376 . S
N440 C444 1.383 . S
C441 N440 1.376 . S
C441 C442 1.446 . S
C441 C464 1.391 . S
C442 C441 1.446 . S
C442 C443 1.339 . S
C442 H471 0.949 . S
C443 C442 1.339 . S
C443 C444 1.439 . S
C443 H472 0.950 . S
C444 N440 1.383 . S
C444 C443 1.439 . S
C444 C462 1.392 . S
N445 Co429 2.282 . S
N445 C448 1.332 . S
N445 C450 1.332 . S
C446 C447 1.386 . S
C446 C449 1.388 . S
C447 C446 1.386 . S
C447 C448 1.382 . S
C447 H473 0.950 . S
C448 N445 1.332 . S
C448 C447 1.382 . S
C448 H459 0.952 . S
C449 C446 1.388 . S
C449 C450 1.382 . S
C449 H474 0.950 . S
C450 N445 1.332 . S
C450 C449 1.382 . S
C450 H460 0.948 . S
N451 Co429 2.282 . S
N451 C455 1.332 . S
N451 C456 1.332 . S
C452 C453 1.388 . S
C452 C456 1.382 . S
C452 H475 0.950 . S
C453 C452 1.388 . S
C453 C454 1.386 . S
C454 C453 1.386 . S
C454 C455 1.382 . S
C454 H476 0.950 . S
C455 N451 1.332 . S
C455 C454 1.382 . S
C455 H457 0.952 . S
C456 N451 1.332 . S
C456 C452 1.382 . S
C456 H458 0.948 . S
H457 C455 0.952 . S
H458 C456 0.948 . S
H459 C448 0.952 . S
H460 C450 0.948 . S
C461 C427 1.395 . S
C461 C431 1.391 . S
C462 C424 1.389 . S
C462 C444 1.392 . S
C463 C434 1.392 . S
C463 C436 1.389 . S
C464 C439 1.395 . S
C464 C441 1.391 . S
H465 C425 0.951 . S
H466 C426 0.950 . S
H467 C432 0.949 . S
H468 C433 0.950 . S
H469 C437 0.951 . S
H470 C438 0.950 . S
H471 C442 0.949 . S
H472 C443 0.950 . S
H473 C447 0.950 . S
H474 C449 0.950 . S
H475 C452 0.950 . S
H476 C454 0.950 . S
C477 C478 1.443 . S
C477 N481 1.376 . S
C477 C515 1.389 . S
C478 C477 1.443 . S
C478 C479 1.340 . S
C478 H518 0.951 . S
C479 C478 1.340 . S
C479 C480 1.439 . S
C479 H519 0.950 . S
C480 C479 1.439 . S
C480 N481 1.374 . S
C480 C514 1.395 . S
N481 C477 1.376 . S
N481 C480 1.374 . S
N481 Co482 2.008 . S
Co482 N481 2.008 . S
Co482 N483 1.995 . S
Co482 N488 2.008 . S
Co482 N493 1.995 . S
Co482 N498 2.282 . S
Co482 N504 2.282 . S
N483 Co482 1.995 . S
N483 C484 1.376 . S
N483 C487 1.383 . S
C484 N483 1.376 . S
C484 C485 1.446 . S
C484 C514 1.391 . S
C485 C484 1.446 . S
C485 C486 1.339 . S
C485 H520 0.949 . S
C486 C485 1.339 . S
C486 C487 1.439 . S
C486 H521 0.950 . S
C487 N483 1.383 . S
C487 C486 1.439 . S
C487 C516 1.392 . S
N488 Co482 2.008 . S
N488 C489 1.376 . S
N488 C492 1.374 . S
C489 N488 1.376 . S
C489 C490 1.443 . S
C489 C516 1.389 . S
C490 C489 1.443 . S
C490 C491 1.340 . S
C490 H522 0.951 . S
C491 C490 1.340 . S
C491 C492 1.439 . S
C491 H523 0.950 . S
C492 N488 1.374 . S
C492 C491 1.439 . S
C492 C517 1.395 . S
N493 Co482 1.995 . S
N493 C494 1.376 . S
N493 C497 1.383 . S
C494 N493 1.376 . S
C494 C495 1.446 . S
C494 C517 1.391 . S
C495 C494 1.446 . S
C495 C496 1.339 . S
C495 H524 0.949 . S
C496 C495 1.339 . S
C496 C497 1.439 . S
C496 H525 0.950 . S
C497 N493 1.383 . S
C497 C496 1.439 . S
C497 C515 1.392 . S
N498 Co482 2.282 . S
N498 C501 1.332 . S
N498 C503 1.332 . S
C499 C500 1.386 . S
C499 C502 1.388 . S
C500 C499 1.386 . S
C500 C501 1.382 . S
C500 H526 0.950 . S
C501 N498 1.332 . S
C501 C500 1.382 . S
C501 H512 0.952 . S
C502 C499 1.388 . S
C502 C503 1.382 . S
C502 H527 0.950 . S
C503 N498 1.332 . S
C503 C502 1.382 . S
C503 H513 0.948 . S
N504 Co482 2.282 . S
N504 C508 1.332 . S
N504 C509 1.332 . S
C505 C506 1.388 . S
C505 C509 1.382 . S
C505 H528 0.950 . S
C506 C505 1.388 . S
C506 C507 1.386 . S
C507 C506 1.386 . S
C507 C508 1.382 . S
C507 H529 0.950 . S
C508 N504 1.332 . S
C508 C507 1.382 . S
C508 H510 0.952 . S
C509 N504 1.332 . S
C509 C505 1.382 . S
C509 H511 0.948 . S
H510 C508 0.952 . S
H511 C509 0.948 . S
H512 C501 0.952 . S
H513 C503 0.948 . S
C514 C480 1.395 . S
C514 C484 1.391 . S
C515 C477 1.389 . S
C515 C497 1.392 . S
C516 C487 1.392 . S
C516 C489 1.389 . S
C517 C492 1.395 . S
C517 C494 1.391 . S
H518 C478 0.951 . S
H519 C479 0.950 . S
H520 C485 0.949 . S
H521 C486 0.950 . S
H522 C490 0.951 . S
H523 C491 0.950 . S
H524 C495 0.949 . S
H525 C496 0.950 . S
H526 C500 0.950 . S
H527 C502 0.950 . S
H528 C505 0.950 . S
H529 C507 0.950 . S
C530 C531 1.443 . S
C530 N534 1.376 . S
C530 C568 1.389 . S
C531 C530 1.443 . S
C531 C532 1.340 . S
C531 H571 0.951 . S
C532 C531 1.340 . S
C532 C533 1.439 . S
C532 H572 0.950 . S
C533 C532 1.439 . S
C533 N534 1.374 . S
C533 C567 1.395 . S
N534 C530 1.376 . S
N534 C533 1.374 . S
N534 Co535 2.008 . S
Co535 N534 2.008 . S
Co535 N536 1.995 . S
Co535 N541 2.008 . S
Co535 N546 1.995 . S
Co535 N551 2.282 . S
Co535 N557 2.282 . S
N536 Co535 1.995 . S
N536 C537 1.376 . S
N536 C540 1.383 . S
C537 N536 1.376 . S
C537 C538 1.446 . S
C537 C567 1.391 . S
C538 C537 1.446 . S
C538 C539 1.339 . S
C538 H573 0.949 . S
C539 C538 1.339 . S
C539 C540 1.439 . S
C539 H574 0.950 . S
C540 N536 1.383 . S
C540 C539 1.439 . S
C540 C569 1.392 . S
N541 Co535 2.008 . S
N541 C542 1.376 . S
N541 C545 1.374 . S
C542 N541 1.376 . S
C542 C543 1.443 . S
C542 C569 1.389 . S
C543 C542 1.443 . S
C543 C544 1.340 . S
C543 H575 0.951 . S
C544 C543 1.340 . S
C544 C545 1.439 . S
C544 H576 0.950 . S
C545 N541 1.374 . S
C545 C544 1.439 . S
C545 C570 1.395 . S
N546 Co535 1.995 . S
N546 C547 1.376 . S
N546 C550 1.383 . S
C547 N546 1.376 . S
C547 C548 1.446 . S
C547 C570 1.391 . S
C548 C547 1.446 . S
C548 C549 1.339 . S
C548 H577 0.949 . S
C549 C548 1.339 . S
C549 C550 1.439 . S
C549 H578 0.950 . S
C550 N546 1.383 . S
C550 C549 1.439 . S
C550 C568 1.392 . S
N551 Co535 2.282 . S
N551 C554 1.332 . S
N551 C556 1.332 . S
C552 C553 1.386 . S
C552 C555 1.388 . S
C553 C552 1.386 . S
C553 C554 1.382 . S
C553 H579 0.950 . S
C554 N551 1.332 . S
C554 C553 1.382 . S
C554 H565 0.952 . S
C555 C552 1.388 . S
C555 C556 1.382 . S
C555 H580 0.950 . S
C556 N551 1.332 . S
C556 C555 1.382 . S
C556 H566 0.948 . S
N557 Co535 2.282 . S
N557 C561 1.332 . S
N557 C562 1.332 . S
C558 C559 1.388 . S
C558 C562 1.382 . S
C558 H581 0.950 . S
C559 C558 1.388 . S
C559 C560 1.386 . S
C560 C559 1.386 . S
C560 C561 1.382 . S
C560 H582 0.950 . S
C561 N557 1.332 . S
C561 C560 1.382 . S
C561 H563 0.952 . S
C562 N557 1.332 . S
C562 C558 1.382 . S
C562 H564 0.948 . S
H563 C561 0.952 . S
H564 C562 0.948 . S
H565 C554 0.952 . S
H566 C556 0.948 . S
C567 C533 1.395 . S
C567 C537 1.391 . S
C568 C530 1.389 . S
C568 C550 1.392 . S
C569 C540 1.392 . S
C569 C542 1.389 . S
C570 C545 1.395 . S
C570 C547 1.391 . S
H571 C531 0.951 . S
H572 C532 0.950 . S
H573 C538 0.949 . S
H574 C539 0.950 . S
H575 C543 0.951 . S
H576 C544 0.950 . S
H577 C548 0.949 . S
H578 C549 0.950 . S
H579 C553 0.950 . S
H580 C555 0.950 . S
H581 C558 0.950 . S
H582 C560 0.950 . S
C583 C584 1.443 . S
C583 N587 1.376 . S
C583 C621 1.389 . S
C584 C583 1.443 . S
C584 C585 1.340 . S
C584 H624 0.951 . S
C585 C584 1.340 . S
C585 C586 1.439 . S
C585 H625 0.950 . S
C586 C585 1.439 . S
C586 N587 1.374 . S
C586 C620 1.395 . S
N587 C583 1.376 . S
N587 C586 1.374 . S
N587 Co588 2.008 . S
Co588 N587 2.008 . S
Co588 N589 1.995 . S
Co588 N594 2.008 . S
Co588 N599 1.995 . S
Co588 N604 2.282 . S
Co588 N610 2.282 . S
N589 Co588 1.995 . S
N589 C590 1.376 . S
N589 C593 1.383 . S
C590 N589 1.376 . S
C590 C591 1.446 . S
C590 C620 1.391 . S
C591 C590 1.446 . S
C591 C592 1.339 . S
C591 H626 0.949 . S
C592 C591 1.339 . S
C592 C593 1.439 . S
C592 H627 0.950 . S
C593 N589 1.383 . S
C593 C592 1.439 . S
C593 C622 1.392 . S
N594 Co588 2.008 . S
N594 C595 1.376 . S
N594 C598 1.374 . S
C595 N594 1.376 . S
C595 C596 1.443 . S
C595 C622 1.389 . S
C596 C595 1.443 . S
C596 C597 1.340 . S
C596 H628 0.951 . S
C597 C596 1.340 . S
C597 C598 1.439 . S
C597 H629 0.950 . S
C598 N594 1.374 . S
C598 C597 1.439 . S
C598 C623 1.395 . S
N599 Co588 1.995 . S
N599 C600 1.376 . S
N599 C603 1.383 . S
C600 N599 1.376 . S
C600 C601 1.446 . S
C600 C623 1.391 . S
C601 C600 1.446 . S
C601 C602 1.339 . S
C601 H630 0.949 . S
C602 C601 1.339 . S
C602 C603 1.439 . S
C602 H631 0.950 . S
C603 N599 1.383 . S
C603 C602 1.439 . S
C603 C621 1.392 . S
N604 Co588 2.282 . S
N604 C607 1.332 . S
N604 C609 1.332 . S
C605 C606 1.386 . S
C605 C608 1.388 . S
C606 C605 1.386 . S
C606 C607 1.382 . S
C606 H632 0.950 . S
C607 N604 1.332 . S
C607 C606 1.382 . S
C607 H618 0.952 . S
C608 C605 1.388 . S
C608 C609 1.382 . S
C608 H633 0.950 . S
C609 N604 1.332 . S
C609 C608 1.382 . S
C609 H619 0.948 . S
N610 Co588 2.282 . S
N610 C614 1.332 . S
N610 C615 1.332 . S
C611 C612 1.388 . S
C611 C615 1.382 . S
C611 H634 0.950 . S
C612 C611 1.388 . S
C612 C613 1.386 . S
C613 C612 1.386 . S
C613 C614 1.382 . S
C613 H635 0.950 . S
C614 N610 1.332 . S
C614 C613 1.382 . S
C614 H616 0.952 . S
C615 N610 1.332 . S
C615 C611 1.382 . S
C615 H617 0.948 . S
H616 C614 0.952 . S
H617 C615 0.948 . S
H618 C607 0.952 . S
H619 C609 0.948 . S
C620 C586 1.395 . S
C620 C590 1.391 . S
C621 C583 1.389 . S
C621 C603 1.392 . S
C622 C593 1.392 . S
C622 C595 1.389 . S
C623 C598 1.395 . S
C623 C600 1.391 . S
H624 C584 0.951 . S
H625 C585 0.950 . S
H626 C591 0.949 . S
H627 C592 0.950 . S
H628 C596 0.951 . S
H629 C597 0.950 . S
H630 C601 0.949 . S
H631 C602 0.950 . S
H632 C606 0.950 . S
H633 C608 0.950 . S
H634 C611 0.950 . S
H635 C613 0.950 . S
H636 C654 0.951 . S
H637 C656 0.951 . S
H638 C658 0.950 . S
H639 C659 0.950 . S
H640 C661 0.950 . S
H641 C664 0.950 . S
H642 C665 0.950 . S
H643 C667 0.950 . S
H644 C668 0.950 . S
H645 C669 0.951 . S
H646 C671 0.951 . S
H647 C673 0.950 . S
H648 C674 0.950 . S
H649 C676 0.950 . S
H650 C679 0.950 . S
H651 C680 0.950 . S
H652 C682 0.950 . S
H653 C683 0.950 . S
C654 H636 0.951 . S
C654 C655 1.366 . S
C654 C656 1.388 . S
C655 C654 1.366 . S
C655 C659 1.385 . S
C656 H637 0.951 . S
C656 C654 1.388 . S
C656 C657 1.366 . S
C657 C656 1.366 . S
C657 C658 1.414 . S
C657 C660 1.499 . S
C658 H638 0.950 . S
C658 C657 1.414 . S
C658 C659 1.374 . S
C659 H639 0.950 . S
C659 C655 1.385 . S
C659 C658 1.374 . S
C660 C657 1.499 . S
C660 C661 1.373 . S
C660 C662 1.389 . S
C661 H640 0.950 . S
C661 C660 1.373 . S
C661 C677 1.377 . S
C662 C660 1.389 . S
C662 C663 1.524 . S
C662 C676 1.377 . S
C663 C662 1.524 . S
C663 C664 1.397 . S
C663 C668 1.363 . S
C664 H641 0.950 . S
C664 C663 1.397 . S
C664 C665 1.334 . S
C665 H642 0.950 . S
C665 C664 1.334 . S
C665 C666 1.287 . S
C666 C665 1.287 . S
C666 C667 1.524 . S
C666 H685 0.913 . S
C667 H643 0.950 . S
C667 C666 1.524 . S
C667 C668 1.415 . S
C668 H644 0.950 . S
C668 C663 1.363 . S
C668 C667 1.415 . S
C669 H645 0.951 . S
C669 C670 1.366 . S
C669 C671 1.388 . S
C670 C669 1.366 . S
C670 C674 1.385 . S
C671 H646 0.951 . S
C671 C669 1.388 . S
C671 C672 1.366 . S
C672 C671 1.366 . S
C672 C673 1.414 . S
C672 C675 1.499 . S
C673 H647 0.950 . S
C673 C672 1.414 . S
C673 C674 1.374 . S
C674 H648 0.950 . S
C674 C670 1.385 . S
C674 C673 1.374 . S
C675 C672 1.499 . S
C675 C676 1.373 . S
C675 C677 1.389 . S
C676 H649 0.950 . S
C676 C662 1.377 . S
C676 C675 1.373 . S
C677 C661 1.377 . S
C677 C675 1.389 . S
C677 C678 1.524 . S
C678 C677 1.524 . S
C678 C679 1.397 . S
C678 C683 1.363 . S
C679 H650 0.950 . S
C679 C678 1.397 . S
C679 C680 1.334 . S
C680 H651 0.950 . S
C680 C679 1.334 . S
C680 C681 1.287 . S
C681 C680 1.287 . S
C681 C682 1.524 . S
C681 H684 0.999 . S
C682 H652 0.950 . S
C682 C681 1.524 . S
C682 C683 1.415 . S
C683 H653 0.950 . S
C683 C678 1.363 . S
C683 C682 1.415 . S
H684 C681 0.999 . S
H685 C666 0.913 . S
H686 C704 0.951 . S
H687 C706 0.951 . S
H688 C708 0.950 . S
H689 C709 0.950 . S
H690 C711 0.950 . S
H691 C714 0.950 . S
H692 C715 0.950 . S
H693 C717 0.950 . S
H694 C718 0.950 . S
H695 C719 0.951 . S
H696 C721 0.951 . S
H697 C723 0.950 . S
H698 C724 0.950 . S
H699 C726 0.950 . S
H700 C729 0.950 . S
H701 C730 0.950 . S
H702 C732 0.950 . S
H703 C733 0.950 . S
C704 H686 0.951 . S
C704 C705 1.366 . S
C704 C706 1.388 . S
C705 C704 1.366 . S
C705 C709 1.385 . S
C706 H687 0.951 . S
C706 C704 1.388 . S
C706 C707 1.366 . S
C707 C706 1.366 . S
C707 C708 1.414 . S
C707 C710 1.499 . S
C708 H688 0.950 . S
C708 C707 1.414 . S
C708 C709 1.374 . S
C709 H689 0.950 . S
C709 C705 1.385 . S
C709 C708 1.374 . S
C710 C707 1.499 . S
C710 C711 1.373 . S
C710 C712 1.389 . S
C711 H690 0.950 . S
C711 C710 1.373 . S
C711 C727 1.377 . S
C712 C710 1.389 . S
C712 C713 1.524 . S
C712 C726 1.377 . S
C713 C712 1.524 . S
C713 C714 1.397 . S
C713 C718 1.363 . S
C714 H691 0.950 . S
C714 C713 1.397 . S
C714 C715 1.334 . S
C715 H692 0.950 . S
C715 C714 1.334 . S
C715 C716 1.287 . S
C716 C715 1.287 . S
C716 C717 1.524 . S
C716 H735 0.913 . S
C717 H693 0.950 . S
C717 C716 1.524 . S
C717 C718 1.415 . S
C718 H694 0.950 . S
C718 C713 1.363 . S
C718 C717 1.415 . S
C719 H695 0.951 . S
C719 C720 1.366 . S
C719 C721 1.388 . S
C720 C719 1.366 . S
C720 C724 1.385 . S
C721 H696 0.951 . S
C721 C719 1.388 . S
C721 C722 1.366 . S
C722 C721 1.366 . S
C722 C723 1.414 . S
C722 C725 1.499 . S
C723 H697 0.950 . S
C723 C722 1.414 . S
C723 C724 1.374 . S
C724 H698 0.950 . S
C724 C720 1.385 . S
C724 C723 1.374 . S
C725 C722 1.499 . S
C725 C726 1.373 . S
C725 C727 1.389 . S
C726 H699 0.950 . S
C726 C712 1.377 . S
C726 C725 1.373 . S
C727 C711 1.377 . S
C727 C725 1.389 . S
C727 C728 1.524 . S
C728 C727 1.524 . S
C728 C729 1.397 . S
C728 C733 1.363 . S
C729 H700 0.950 . S
C729 C728 1.397 . S
C729 C730 1.334 . S
C730 H701 0.950 . S
C730 C729 1.334 . S
C730 C731 1.287 . S
C731 C730 1.287 . S
C731 C732 1.524 . S
C731 H734 0.999 . S
C732 H702 0.950 . S
C732 C731 1.524 . S
C732 C733 1.415 . S
C733 H703 0.950 . S
C733 C728 1.363 . S
C733 C732 1.415 . S
H734 C731 0.999 . S
H735 C716 0.913 . S
H736 C754 0.951 . S
H737 C756 0.951 . S
H738 C758 0.950 . S
H739 C759 0.950 . S
H740 C761 0.950 . S
H741 C764 0.950 . S
H742 C765 0.950 . S
H743 C767 0.950 . S
H744 C768 0.950 . S
H745 C769 0.951 . S
H746 C771 0.951 . S
H747 C773 0.950 . S
H748 C774 0.950 . S
H749 C776 0.950 . S
H750 C779 0.950 . S
H751 C780 0.950 . S
H752 C782 0.950 . S
H753 C783 0.950 . S
C754 H736 0.951 . S
C754 C755 1.366 . S
C754 C756 1.388 . S
C755 C754 1.366 . S
C755 C759 1.385 . S
C756 H737 0.951 . S
C756 C754 1.388 . S
C756 C757 1.366 . S
C757 C756 1.366 . S
C757 C758 1.414 . S
C757 C760 1.499 . S
C758 H738 0.950 . S
C758 C757 1.414 . S
C758 C759 1.374 . S
C759 H739 0.950 . S
C759 C755 1.385 . S
C759 C758 1.374 . S
C760 C757 1.499 . S
C760 C761 1.373 . S
C760 C762 1.389 . S
C761 H740 0.950 . S
C761 C760 1.373 . S
C761 C777 1.377 . S
C762 C760 1.389 . S
C762 C763 1.524 . S
C762 C776 1.377 . S
C763 C762 1.524 . S
C763 C764 1.397 . S
C763 C768 1.363 . S
C764 H741 0.950 . S
C764 C763 1.397 . S
C764 C765 1.334 . S
C765 H742 0.950 . S
C765 C764 1.334 . S
C765 C766 1.287 . S
C766 C765 1.287 . S
C766 C767 1.524 . S
C766 H785 0.913 . S
C767 H743 0.950 . S
C767 C766 1.524 . S
C767 C768 1.415 . S
C768 H744 0.950 . S
C768 C763 1.363 . S
C768 C767 1.415 . S
C769 H745 0.951 . S
C769 C770 1.366 . S
C769 C771 1.388 . S
C770 C769 1.366 . S
C770 C774 1.385 . S
C771 H746 0.951 . S
C771 C769 1.388 . S
C771 C772 1.366 . S
C772 C771 1.366 . S
C772 C773 1.414 . S
C772 C775 1.499 . S
C773 H747 0.950 . S
C773 C772 1.414 . S
C773 C774 1.374 . S
C774 H748 0.950 . S
C774 C770 1.385 . S
C774 C773 1.374 . S
C775 C772 1.499 . S
C775 C776 1.373 . S
C775 C777 1.389 . S
C776 H749 0.950 . S
C776 C762 1.377 . S
C776 C775 1.373 . S
C777 C761 1.377 . S
C777 C775 1.389 . S
C777 C778 1.524 . S
C778 C777 1.524 . S
C778 C779 1.397 . S
C778 C783 1.363 . S
C779 H750 0.950 . S
C779 C778 1.397 . S
C779 C780 1.334 . S
C780 H751 0.950 . S
C780 C779 1.334 . S
C780 C781 1.287 . S
C781 C780 1.287 . S
C781 C782 1.524 . S
C781 H784 0.999 . S
C782 H752 0.950 . S
C782 C781 1.524 . S
C782 C783 1.415 . S
C783 H753 0.950 . S
C783 C778 1.363 . S
C783 C782 1.415 . S
H784 C781 0.999 . S
H785 C766 0.913 . S
H786 C804 0.951 . S
H787 C806 0.951 . S
H788 C808 0.950 . S
H789 C809 0.950 . S
H790 C811 0.950 . S
H791 C814 0.950 . S
H792 C815 0.950 . S
H793 C817 0.950 . S
H794 C818 0.950 . S
H795 C819 0.951 . S
H796 C821 0.951 . S
H797 C823 0.950 . S
H798 C824 0.950 . S
H799 C826 0.950 . S
H800 C829 0.950 . S
H801 C830 0.950 . S
H802 C832 0.950 . S
H803 C833 0.950 . S
C804 H786 0.951 . S
C804 C805 1.366 . S
C804 C806 1.388 . S
C805 C804 1.366 . S
C805 C809 1.385 . S
C806 H787 0.951 . S
C806 C804 1.388 . S
C806 C807 1.366 . S
C807 C806 1.366 . S
C807 C808 1.414 . S
C807 C810 1.499 . S
C808 H788 0.950 . S
C808 C807 1.414 . S
C808 C809 1.374 . S
C809 H789 0.950 . S
C809 C805 1.385 . S
C809 C808 1.374 . S
C810 C807 1.499 . S
C810 C811 1.373 . S
C810 C812 1.389 . S
C811 H790 0.950 . S
C811 C810 1.373 . S
C811 C827 1.377 . S
C812 C810 1.389 . S
C812 C813 1.524 . S
C812 C826 1.377 . S
C813 C812 1.524 . S
C813 C814 1.397 . S
C813 C818 1.363 . S
C814 H791 0.950 . S
C814 C813 1.397 . S
C814 C815 1.334 . S
C815 H792 0.950 . S
C815 C814 1.334 . S
C815 C816 1.287 . S
C816 C815 1.287 . S
C816 C817 1.524 . S
C816 H835 0.913 . S
C817 H793 0.950 . S
C817 C816 1.524 . S
C817 C818 1.415 . S
C818 H794 0.950 . S
C818 C813 1.363 . S
C818 C817 1.415 . S
C819 H795 0.951 . S
C819 C820 1.366 . S
C819 C821 1.388 . S
C820 C819 1.366 . S
C820 C824 1.385 . S
C821 H796 0.951 . S
C821 C819 1.388 . S
C821 C822 1.366 . S
C822 C821 1.366 . S
C822 C823 1.414 . S
C822 C825 1.499 . S
C823 H797 0.950 . S
C823 C822 1.414 . S
C823 C824 1.374 . S
C824 H798 0.950 . S
C824 C820 1.385 . S
C824 C823 1.374 . S
C825 C822 1.499 . S
C825 C826 1.373 . S
C825 C827 1.389 . S
C826 H799 0.950 . S
C826 C812 1.377 . S
C826 C825 1.373 . S
C827 C811 1.377 . S
C827 C825 1.389 . S
C827 C828 1.524 . S
C828 C827 1.524 . S
C828 C829 1.397 . S
C828 C833 1.363 . S
C829 H800 0.950 . S
C829 C828 1.397 . S
C829 C830 1.334 . S
C830 H801 0.950 . S
C830 C829 1.334 . S
C830 C831 1.287 . S
C831 C830 1.287 . S
C831 C832 1.524 . S
C831 H834 0.999 . S
C832 H802 0.950 . S
C832 C831 1.524 . S
C832 C833 1.415 . S
C833 H803 0.950 . S
C833 C828 1.363 . S
C833 C832 1.415 . S
H834 C831 0.999 . S
H835 C816 0.913 . S
H836 C854 0.951 . S
H837 C856 0.951 . S
H838 C858 0.950 . S
H839 C859 0.950 . S
H840 C861 0.950 . S
H841 C864 0.950 . S
H842 C865 0.950 . S
H843 C867 0.950 . S
H844 C868 0.950 . S
H845 C869 0.951 . S
H846 C871 0.951 . S
H847 C873 0.950 . S
H848 C874 0.950 . S
H849 C876 0.950 . S
H850 C879 0.950 . S
H851 C880 0.950 . S
H852 C882 0.950 . S
H853 C883 0.950 . S
C854 H836 0.951 . S
C854 C855 1.366 . S
C854 C856 1.388 . S
C855 C854 1.366 . S
C855 C859 1.385 . S
C856 H837 0.951 . S
C856 C854 1.388 . S
C856 C857 1.366 . S
C857 C856 1.366 . S
C857 C858 1.414 . S
C857 C860 1.499 . S
C858 H838 0.950 . S
C858 C857 1.414 . S
C858 C859 1.374 . S
C859 H839 0.950 . S
C859 C855 1.385 . S
C859 C858 1.374 . S
C860 C857 1.499 . S
C860 C861 1.373 . S
C860 C862 1.389 . S
C861 H840 0.950 . S
C861 C860 1.373 . S
C861 C877 1.377 . S
C862 C860 1.389 . S
C862 C863 1.524 . S
C862 C876 1.377 . S
C863 C862 1.524 . S
C863 C864 1.397 . S
C863 C868 1.363 . S
C864 H841 0.950 . S
C864 C863 1.397 . S
C864 C865 1.334 . S
C865 H842 0.950 . S
C865 C864 1.334 . S
C865 C866 1.287 . S
C866 C865 1.287 . S
C866 C867 1.524 . S
C866 H885 0.913 . S
C867 H843 0.950 . S
C867 C866 1.524 . S
C867 C868 1.415 . S
C868 H844 0.950 . S
C868 C863 1.363 . S
C868 C867 1.415 . S
C869 H845 0.951 . S
C869 C870 1.366 . S
C869 C871 1.388 . S
C870 C869 1.366 . S
C870 C874 1.385 . S
C871 H846 0.951 . S
C871 C869 1.388 . S
C871 C872 1.366 . S
C872 C871 1.366 . S
C872 C873 1.414 . S
C872 C875 1.499 . S
C873 H847 0.950 . S
C873 C872 1.414 . S
C873 C874 1.374 . S
C874 H848 0.950 . S
C874 C870 1.385 . S
C874 C873 1.374 . S
C875 C872 1.499 . S
C875 C876 1.373 . S
C875 C877 1.389 . S
C876 H849 0.950 . S
C876 C862 1.377 . S
C876 C875 1.373 . S
C877 C861 1.377 . S
C877 C875 1.389 . S
C877 C878 1.524 . S
C878 C877 1.524 . S
C878 C879 1.397 . S
C878 C883 1.363 . S
C879 H850 0.950 . S
C879 C878 1.397 . S
C879 C880 1.334 . S
C880 H851 0.950 . S
C880 C879 1.334 . S
C880 C881 1.287 . S
C881 C880 1.287 . S
C881 C882 1.524 . S
C881 H884 0.999 . S
C882 H852 0.950 . S
C882 C881 1.524 . S
C882 C883 1.415 . S
C883 H853 0.950 . S
C883 C878 1.363 . S
C883 C882 1.415 . S
H884 C881 0.999 . S
H885 C866 0.913 . S
H886 C904 0.951 . S
H887 C906 0.951 . S
H888 C908 0.950 . S
H889 C909 0.950 . S
H890 C911 0.950 . S
H891 C914 0.950 . S
H892 C915 0.950 . S
H893 C917 0.950 . S
H894 C918 0.950 . S
H895 C919 0.951 . S
H896 C921 0.951 . S
H897 C923 0.950 . S
H898 C924 0.950 . S
H899 C926 0.950 . S
H900 C929 0.950 . S
H901 C930 0.950 . S
H902 C932 0.950 . S
H903 C933 0.950 . S
C904 H886 0.951 . S
C904 C905 1.366 . S
C904 C906 1.388 . S
C905 C904 1.366 . S
C905 C909 1.385 . S
C906 H887 0.951 . S
C906 C904 1.388 . S
C906 C907 1.366 . S
C907 C906 1.366 . S
C907 C908 1.414 . S
C907 C910 1.499 . S
C908 H888 0.950 . S
C908 C907 1.414 . S
C908 C909 1.374 . S
C909 H889 0.950 . S
C909 C905 1.385 . S
C909 C908 1.374 . S
C910 C907 1.499 . S
C910 C911 1.373 . S
C910 C912 1.389 . S
C911 H890 0.950 . S
C911 C910 1.373 . S
C911 C927 1.377 . S
C912 C910 1.389 . S
C912 C913 1.524 . S
C912 C926 1.377 . S
C913 C912 1.524 . S
C913 C914 1.397 . S
C913 C918 1.363 . S
C914 H891 0.950 . S
C914 C913 1.397 . S
C914 C915 1.334 . S
C915 H892 0.950 . S
C915 C914 1.334 . S
C915 C916 1.287 . S
C916 C915 1.287 . S
C916 C917 1.524 . S
C916 H935 0.913 . S
C917 H893 0.950 . S
C917 C916 1.524 . S
C917 C918 1.415 . S
C918 H894 0.950 . S
C918 C913 1.363 . S
C918 C917 1.415 . S
C919 H895 0.951 . S
C919 C920 1.366 . S
C919 C921 1.388 . S
C920 C919 1.366 . S
C920 C924 1.385 . S
C921 H896 0.951 . S
C921 C919 1.388 . S
C921 C922 1.366 . S
C922 C921 1.366 . S
C922 C923 1.414 . S
C922 C925 1.499 . S
C923 H897 0.950 . S
C923 C922 1.414 . S
C923 C924 1.374 . S
C924 H898 0.950 . S
C924 C920 1.385 . S
C924 C923 1.374 . S
C925 C922 1.499 . S
C925 C926 1.373 . S
C925 C927 1.389 . S
C926 H899 0.950 . S
C926 C912 1.377 . S
C926 C925 1.373 . S
C927 C911 1.377 . S
C927 C925 1.389 . S
C927 C928 1.524 . S
C928 C927 1.524 . S
C928 C929 1.397 . S
C928 C933 1.363 . S
C929 H900 0.950 . S
C929 C928 1.397 . S
C929 C930 1.334 . S
C930 H901 0.950 . S
C930 C929 1.334 . S
C930 C931 1.287 . S
C931 C930 1.287 . S
C931 C932 1.524 . S
C931 H934 0.999 . S
C932 H902 0.950 . S
C932 C931 1.524 . S
C932 C933 1.415 . S
C933 H903 0.950 . S
C933 C928 1.363 . S
C933 C932 1.415 . S
H934 C931 0.999 . S
H935 C916 0.913 . S
H936 C954 0.951 . S
H937 C956 0.951 . S
H938 C958 0.950 . S
H939 C959 0.950 . S
H940 C961 0.950 . S
H941 C964 0.950 . S
H942 C965 0.950 . S
H943 C967 0.950 . S
H944 C968 0.950 . S
H945 C969 0.951 . S
H946 C971 0.951 . S
H947 C973 0.950 . S
H948 C974 0.950 . S
H949 C976 0.950 . S
H950 C979 0.950 . S
H951 C980 0.950 . S
H952 C982 0.950 . S
H953 C983 0.950 . S
C954 H936 0.951 . S
C954 C955 1.366 . S
C954 C956 1.388 . S
C955 C954 1.366 . S
C955 C959 1.385 . S
C956 H937 0.951 . S
C956 C954 1.388 . S
C956 C957 1.366 . S
C957 C956 1.366 . S
C957 C958 1.414 . S
C957 C960 1.499 . S
C958 H938 0.950 . S
C958 C957 1.414 . S
C958 C959 1.374 . S
C959 H939 0.950 . S
C959 C955 1.385 . S
C959 C958 1.374 . S
C960 C957 1.499 . S
C960 C961 1.373 . S
C960 C962 1.389 . S
C961 H940 0.950 . S
C961 C960 1.373 . S
C961 C977 1.377 . S
C962 C960 1.389 . S
C962 C963 1.524 . S
C962 C976 1.377 . S
C963 C962 1.524 . S
C963 C964 1.397 . S
C963 C968 1.363 . S
C964 H941 0.950 . S
C964 C963 1.397 . S
C964 C965 1.334 . S
C965 H942 0.950 . S
C965 C964 1.334 . S
C965 C966 1.287 . S
C966 C965 1.287 . S
C966 C967 1.524 . S
C966 H985 0.913 . S
C967 H943 0.950 . S
C967 C966 1.524 . S
C967 C968 1.415 . S
C968 H944 0.950 . S
C968 C963 1.363 . S
C968 C967 1.415 . S
C969 H945 0.951 . S
C969 C970 1.366 . S
C969 C971 1.388 . S
C970 C969 1.366 . S
C970 C974 1.385 . S
C971 H946 0.951 . S
C971 C969 1.388 . S
C971 C972 1.366 . S
C972 C971 1.366 . S
C972 C973 1.414 . S
C972 C975 1.499 . S
C973 H947 0.950 . S
C973 C972 1.414 . S
C973 C974 1.374 . S
C974 H948 0.950 . S
C974 C970 1.385 . S
C974 C973 1.374 . S
C975 C972 1.499 . S
C975 C976 1.373 . S
C975 C977 1.389 . S
C976 H949 0.950 . S
C976 C962 1.377 . S
C976 C975 1.373 . S
C977 C961 1.377 . S
C977 C975 1.389 . S
C977 C978 1.524 . S
C978 C977 1.524 . S
C978 C979 1.397 . S
C978 C983 1.363 . S
C979 H950 0.950 . S
C979 C978 1.397 . S
C979 C980 1.334 . S
C980 H951 0.950 . S
C980 C979 1.334 . S
C980 C981 1.287 . S
C981 C980 1.287 . S
C981 C982 1.524 . S
C981 H984 0.999 . S
C982 H952 0.950 . S
C982 C981 1.524 . S
C982 C983 1.415 . S
C983 H953 0.950 . S
C983 C978 1.363 . S
C983 C982 1.415 . S
H984 C981 0.999 . S
H985 C966 0.913 . S
H986 C1004 0.951 . S
H987 C1006 0.951 . S
H988 C1008 0.950 . S
H989 C1009 0.950 . S
H990 C1011 0.950 . S
H991 C1014 0.950 . S
H992 C1015 0.950 . S
H993 C1017 0.950 . S
H994 C1018 0.950 . S
H995 C1019 0.951 . S
H996 C1021 0.933 1_655 S
H997 C1023 0.950 . S
H998 C1024 0.950 . S
H999 C1026 0.950 . S
H1000 C1029 0.950 . S
H1001 C1030 0.950 . S
H1002 C1032 0.950 . S
H1003 C1033 0.950 . S
C1004 H986 0.951 . S
C1004 C1005 1.366 . S
C1004 C1006 1.388 . S
C1005 C1004 1.366 . S
C1005 C1009 1.385 . S
C1006 H987 0.951 . S
C1006 C1004 1.388 . S
C1006 C1007 1.366 . S
C1007 C1006 1.366 . S
C1007 C1008 1.414 . S
C1007 C1010 1.499 . S
C1008 H988 0.950 . S
C1008 C1007 1.414 . S
C1008 C1009 1.374 . S
C1009 H989 0.950 . S
C1009 C1005 1.385 . S
C1009 C1008 1.374 . S
C1010 C1007 1.499 . S
C1010 C1011 1.373 . S
C1010 C1012 1.389 . S
C1011 H990 0.950 . S
C1011 C1010 1.373 . S
C1011 C1027 1.377 . S
C1012 C1010 1.389 . S
C1012 C1013 1.524 . S
C1012 C1026 1.377 . S
C1013 C1012 1.524 . S
C1013 C1014 1.397 . S
C1013 C1018 1.363 . S
C1014 H991 0.950 . S
C1014 C1013 1.397 . S
C1014 C1015 1.334 . S
C1015 H992 0.950 . S
C1015 C1014 1.334 . S
C1015 C1016 1.287 . S
C1016 C1015 1.287 . S
C1016 C1017 1.524 . S
C1016 H1035 0.913 . S
C1017 H993 0.950 . S
C1017 C1016 1.524 . S
C1017 C1018 1.415 . S
C1018 H994 0.950 . S
C1018 C1013 1.363 . S
C1018 C1017 1.415 . S
C1019 H995 0.951 . S
C1019 C1020 1.366 . S
C1019 C1021 1.388 . S
C1020 C1019 1.366 . S
C1020 C1024 1.385 . S
C1021 H996 0.933 1_455 S
C1021 C1019 1.388 . S
C1021 C1022 1.366 . S
C1022 C1021 1.366 . S
C1022 C1023 1.414 . S
C1022 C1025 1.499 1_455 S
C1023 H997 0.950 . S
C1023 C1022 1.414 . S
C1023 C1024 1.374 . S
C1024 H998 0.950 . S
C1024 C1020 1.385 . S
C1024 C1023 1.374 . S
C1025 C1022 1.499 1_655 S
C1025 C1026 1.373 . S
C1025 C1027 1.389 . S
C1026 H999 0.950 . S
C1026 C1012 1.377 . S
C1026 C1025 1.373 . S
C1027 C1011 1.377 . S
C1027 C1025 1.389 . S
C1027 C1028 1.524 . S
C1028 C1027 1.524 . S
C1028 C1029 1.397 1_655 S
C1028 C1033 1.363 . S
C1029 H1000 0.950 . S
C1029 C1028 1.397 1_455 S
C1029 C1030 1.334 . S
C1030 H1001 0.950 . S
C1030 C1029 1.334 . S
C1030 C1031 1.287 . S
C1031 C1030 1.287 . S
C1031 C1032 1.524 1_455 S
C1031 H1034 0.999 . S
C1032 H1002 0.950 . S
C1032 C1031 1.524 1_655 S
C1032 C1033 1.415 . S
C1033 H1003 0.950 . S
C1033 C1028 1.363 . S
C1033 C1032 1.415 . S
H1034 C1031 0.999 . S
H1035 C1016 0.913 . S
H1036 C1054 0.951 . S
H1037 C1056 0.951 . S
H1038 C1058 0.950 . S
H1039 C1059 0.950 . S
H1040 C1061 0.950 . S
H1041 C1064 0.950 . S
H1042 C1065 0.950 . S
H1043 C1067 0.950 . S
H1044 C1068 0.950 . S
H1045 C1069 0.951 . S
H1046 C1071 0.951 . S
H1047 C1073 0.950 . S
H1048 C1074 0.950 . S
H1049 C1076 0.950 . S
H1050 C1079 0.950 . S
H1051 C1080 0.950 . S
H1052 C1082 0.950 . S
H1053 C1083 0.950 . S
C1054 H1036 0.951 . S
C1054 C1055 1.366 . S
C1054 C1056 1.388 . S
C1055 C1054 1.366 . S
C1055 C1059 1.385 . S
C1056 H1037 0.951 . S
C1056 C1054 1.388 . S
C1056 C1057 1.366 . S
C1057 C1056 1.366 . S
C1057 C1058 1.414 . S
C1057 C1060 1.499 . S
C1058 H1038 0.950 . S
C1058 C1057 1.414 . S
C1058 C1059 1.374 . S
C1059 H1039 0.950 . S
C1059 C1055 1.385 . S
C1059 C1058 1.374 . S
C1060 C1057 1.499 . S
C1060 C1061 1.373 . S
C1060 C1062 1.389 . S
C1061 H1040 0.950 . S
C1061 C1060 1.373 . S
C1061 C1077 1.377 1_545 S
C1062 C1060 1.389 . S
C1062 C1063 1.524 . S
C1062 C1076 1.377 1_545 S
C1063 C1062 1.524 . S
C1063 C1064 1.397 . S
C1063 C1068 1.363 . S
C1064 H1041 0.950 . S
C1064 C1063 1.397 . S
C1064 C1065 1.334 . S
C1065 H1042 0.950 . S
C1065 C1064 1.334 . S
C1065 C1066 1.287 . S
C1066 C1065 1.287 . S
C1066 C1067 1.524 . S
C1066 H1085 0.913 . S
C1067 H1043 0.950 . S
C1067 C1066 1.524 . S
C1067 C1068 1.415 . S
C1068 H1044 0.950 . S
C1068 C1063 1.363 . S
C1068 C1067 1.415 . S
C1069 H1045 0.951 . S
C1069 C1070 1.366 . S
C1069 C1071 1.388 . S
C1070 C1069 1.366 . S
C1070 C1074 1.385 . S
C1071 H1046 0.951 . S
C1071 C1069 1.388 . S
C1071 C1072 1.366 . S
C1072 C1071 1.366 . S
C1072 C1073 1.414 . S
C1072 C1075 1.499 . S
C1073 H1047 0.950 . S
C1073 C1072 1.414 . S
C1073 C1074 1.374 . S
C1074 H1048 0.950 . S
C1074 C1070 1.385 . S
C1074 C1073 1.374 . S
C1075 C1072 1.499 . S
C1075 C1076 1.373 . S
C1075 C1077 1.389 . S
C1076 H1049 0.950 . S
C1076 C1062 1.377 1_565 S
C1076 C1075 1.373 . S
C1077 C1061 1.377 1_565 S
C1077 C1075 1.389 . S
C1077 C1078 1.524 . S
C1078 C1077 1.524 . S
C1078 C1079 1.397 . S
C1078 C1083 1.363 . S
C1079 H1050 0.950 . S
C1079 C1078 1.397 . S
C1079 C1080 1.334 . S
C1080 H1051 0.950 . S
C1080 C1079 1.334 . S
C1080 C1081 1.287 . S
C1081 C1080 1.287 . S
C1081 C1082 1.524 . S
C1081 H1084 0.999 . S
C1082 H1052 0.950 . S
C1082 C1081 1.524 . S
C1082 C1083 1.415 . S
C1083 H1053 0.950 . S
C1083 C1078 1.363 . S
C1083 C1082 1.415 . S
H1084 C1081 0.999 . S
H1085 C1066 0.913 . S
H1086 C1104 0.951 . S
H1087 C1106 0.951 . S
H1088 C1108 0.950 . S
H1089 C1109 0.950 . S
H1090 C1111 0.950 . S
H1091 C1114 0.950 . S
H1092 C1115 0.950 . S
H1093 C1117 0.950 . S
H1094 C1118 0.950 . S
H1095 C1119 0.951 . S
H1096 C1121 0.951 . S
H1097 C1123 0.950 . S
H1098 C1124 0.950 . S
H1099 C1126 0.950 . S
H1100 C1129 0.950 . S
H1101 C1130 0.950 . S
H1102 C1132 0.950 . S
H1103 C1133 0.950 . S
C1104 H1086 0.951 . S
C1104 C1105 1.366 . S
C1104 C1106 1.388 . S
C1105 C1104 1.366 . S
C1105 C1109 1.385 . S
C1106 H1087 0.951 . S
C1106 C1104 1.388 . S
C1106 C1107 1.366 . S
C1107 C1106 1.366 . S
C1107 C1108 1.414 . S
C1107 C1110 1.499 . S
C1108 H1088 0.950 . S
C1108 C1107 1.414 . S
C1108 C1109 1.374 . S
C1109 H1089 0.950 . S
C1109 C1105 1.385 . S
C1109 C1108 1.374 . S
C1110 C1107 1.499 . S
C1110 C1111 1.373 . S
C1110 C1112 1.389 . S
C1111 H1090 0.950 . S
C1111 C1110 1.373 . S
C1111 C1127 1.377 . S
C1112 C1110 1.389 . S
C1112 C1113 1.524 . S
C1112 C1126 1.377 . S
C1113 C1112 1.524 . S
C1113 C1114 1.397 . S
C1113 C1118 1.363 . S
C1114 H1091 0.950 . S
C1114 C1113 1.397 . S
C1114 C1115 1.334 . S
C1115 H1092 0.950 . S
C1115 C1114 1.334 . S
C1115 C1116 1.287 . S
C1116 C1115 1.287 . S
C1116 C1117 1.524 . S
C1116 H1135 0.913 . S
C1117 H1093 0.950 . S
C1117 C1116 1.524 . S
C1117 C1118 1.415 . S
C1118 H1094 0.950 . S
C1118 C1113 1.363 . S
C1118 C1117 1.415 . S
C1119 H1095 0.951 . S
C1119 C1120 1.366 . S
C1119 C1121 1.388 . S
C1120 C1119 1.366 . S
C1120 C1124 1.385 . S
C1121 H1096 0.951 . S
C1121 C1119 1.388 . S
C1121 C1122 1.366 . S
C1122 C1121 1.366 . S
C1122 C1123 1.414 . S
C1122 C1125 1.499 . S
C1123 H1097 0.950 . S
C1123 C1122 1.414 . S
C1123 C1124 1.374 . S
C1124 H1098 0.950 . S
C1124 C1120 1.385 . S
C1124 C1123 1.374 . S
C1125 C1122 1.499 . S
C1125 C1126 1.373 . S
C1125 C1127 1.389 . S
C1126 H1099 0.950 . S
C1126 C1112 1.377 . S
C1126 C1125 1.373 . S
C1127 C1111 1.377 . S
C1127 C1125 1.389 . S
C1127 C1128 1.524 . S
C1128 C1127 1.524 . S
C1128 C1129 1.397 . S
C1128 C1133 1.363 . S
C1129 H1100 0.950 . S
C1129 C1128 1.397 . S
C1129 C1130 1.334 . S
C1130 H1101 0.950 . S
C1130 C1129 1.334 . S
C1130 C1131 1.287 . S
C1131 C1130 1.287 . S
C1131 C1132 1.524 . S
C1131 H1134 0.999 . S
C1132 H1102 0.950 . S
C1132 C1131 1.524 . S
C1132 C1133 1.415 . S
C1133 H1103 0.950 . S
C1133 C1128 1.363 . S
C1133 C1132 1.415 . S
H1134 C1131 0.999 . S
H1135 C1116 0.913 . S
H1136 C1154 0.951 . S
H1137 C1156 0.951 . S
H1138 C1158 0.950 1_455 S
H1139 C1159 0.950 . S
H1140 C1161 0.950 . S
H1141 C1164 0.950 1_455 S
H1142 C1165 0.950 . S
H1143 C1167 0.950 . S
H1144 C1168 0.950 . S
H1145 C1169 0.951 . S
H1146 C1171 0.951 . S
H1147 C1173 0.950 . S
H1148 C1174 0.950 . S
H1149 C1176 0.950 . S
H1150 C1179 0.950 . S
H1151 C1180 0.950 . S
H1152 C1182 0.950 . S
H1153 C1183 0.950 . S
C1154 H1136 0.951 . S
C1154 C1155 1.366 . S
C1154 C1156 1.388 . S
C1155 C1154 1.366 . S
C1155 C1159 1.385 . S
C1156 H1137 0.951 . S
C1156 C1154 1.388 . S
C1156 C1157 1.366 . S
C1157 C1156 1.366 . S
C1157 C1158 1.414 . S
C1157 C1160 1.499 1_655 S
C1158 H1138 0.950 1_655 S
C1158 C1157 1.414 . S
C1158 C1159 1.374 . S
C1159 H1139 0.950 . S
C1159 C1155 1.385 . S
C1159 C1158 1.374 . S
C1160 C1157 1.499 1_455 S
C1160 C1161 1.373 . S
C1160 C1162 1.389 . S
C1161 H1140 0.950 . S
C1161 C1160 1.373 . S
C1161 C1177 1.377 . S
C1162 C1160 1.389 . S
C1162 C1163 1.523 1_455 S
C1162 C1176 1.377 . S
C1163 C1162 1.523 1_655 S
C1163 C1164 1.394 . S
C1163 C1168 1.365 . S
C1164 H1141 0.950 1_655 S
C1164 C1163 1.394 . S
C1164 C1165 1.334 . S
C1165 H1142 0.950 . S
C1165 C1164 1.334 . S
C1165 C1166 1.287 . S
C1166 C1165 1.287 . S
C1166 C1167 1.524 . S
C1166 H1185 0.913 . S
C1167 H1143 0.950 . S
C1167 C1166 1.524 . S
C1167 C1168 1.415 . S
C1168 H1144 0.950 . S
C1168 C1163 1.365 . S
C1168 C1167 1.415 . S
C1169 H1145 0.951 . S
C1169 C1170 1.366 . S
C1169 C1171 1.388 . S
C1170 C1169 1.366 . S
C1170 C1174 1.385 . S
C1171 H1146 0.951 . S
C1171 C1169 1.388 . S
C1171 C1172 1.366 . S
C1172 C1171 1.366 . S
C1172 C1173 1.414 . S
C1172 C1175 1.499 . S
C1173 H1147 0.950 . S
C1173 C1172 1.414 . S
C1173 C1174 1.374 . S
C1174 H1148 0.950 . S
C1174 C1170 1.385 . S
C1174 C1173 1.374 . S
C1175 C1172 1.499 . S
C1175 C1176 1.373 . S
C1175 C1177 1.389 . S
C1176 H1149 0.950 . S
C1176 C1162 1.377 . S
C1176 C1175 1.373 . S
C1177 C1161 1.377 . S
C1177 C1175 1.389 . S
C1177 C1178 1.524 . S
C1178 C1177 1.524 . S
C1178 C1179 1.397 . S
C1178 C1183 1.363 . S
C1179 H1150 0.950 . S
C1179 C1178 1.397 . S
C1179 C1180 1.334 . S
C1180 H1151 0.950 . S
C1180 C1179 1.334 . S
C1180 C1181 1.287 . S
C1181 C1180 1.287 . S
C1181 C1182 1.524 . S
C1181 H1184 0.999 . S
C1182 H1152 0.950 . S
C1182 C1181 1.524 . S
C1182 C1183 1.415 . S
C1183 H1153 0.950 . S
C1183 C1178 1.363 . S
C1183 C1182 1.415 . S
H1184 C1181 0.999 . S
H1185 C1166 0.913 . S
H1186 C1204 0.951 . S
H1187 C1206 0.951 . S
H1188 C1208 0.950 . S
H1189 C1209 0.950 . S
H1190 C1211 0.950 . S
H1191 C1214 0.950 . S
H1192 C1215 0.950 . S
H1193 C1217 0.950 . S
H1194 C1218 0.950 . S
H1195 C1219 0.951 . S
H1196 C1221 0.951 . S
H1197 C1223 0.950 . S
H1198 C1224 0.950 . S
H1199 C1226 0.950 . S
H1200 C1229 0.950 . S
H1201 C1230 0.950 . S
H1202 C1232 0.950 . S
H1203 C1233 0.950 . S
C1204 H1186 0.951 . S
C1204 C1205 1.366 . S
C1204 C1206 1.388 . S
C1205 C1204 1.366 . S
C1205 C1209 1.385 . S
C1206 H1187 0.951 . S
C1206 C1204 1.388 . S
C1206 C1207 1.366 . S
C1207 C1206 1.366 . S
C1207 C1208 1.414 . S
C1207 C1210 1.499 . S
C1208 H1188 0.950 . S
C1208 C1207 1.414 . S
C1208 C1209 1.374 . S
C1209 H1189 0.950 . S
C1209 C1205 1.385 . S
C1209 C1208 1.374 . S
C1210 C1207 1.499 . S
C1210 C1211 1.373 1_554 S
C1210 C1212 1.403 . S
C1211 H1190 0.950 . S
C1211 C1210 1.373 1_556 S
C1211 C1227 1.356 1_565 S
C1212 C1210 1.403 . S
C1212 C1213 1.531 1_565 S
C1212 C1226 1.355 1_565 S
C1213 C1212 1.531 1_545 S
C1213 C1214 1.397 1_545 S
C1213 C1218 1.363 . S
C1214 H1191 0.950 . S
C1214 C1213 1.397 1_565 S
C1214 C1215 1.331 . S
C1215 H1192 0.950 . S
C1215 C1214 1.331 . S
C1215 C1216 1.291 1_565 S
C1216 C1215 1.291 1_545 S
C1216 C1217 1.524 . S
C1216 H1235 0.913 . S
C1217 H1193 0.950 . S
C1217 C1216 1.524 . S
C1217 C1218 1.415 . S
C1218 H1194 0.950 . S
C1218 C1213 1.363 . S
C1218 C1217 1.415 . S
C1219 H1195 0.951 . S
C1219 C1220 1.366 . S
C1219 C1221 1.388 . S
C1220 C1219 1.366 . S
C1220 C1224 1.385 . S
C1221 H1196 0.951 . S
C1221 C1219 1.388 . S
C1221 C1222 1.366 . S
C1222 C1221 1.366 . S
C1222 C1223 1.414 . S
C1222 C1225 1.499 . S
C1223 H1197 0.950 . S
C1223 C1222 1.414 . S
C1223 C1224 1.374 . S
C1224 H1198 0.950 . S
C1224 C1220 1.385 . S
C1224 C1223 1.374 . S
C1225 C1222 1.499 . S
C1225 C1226 1.373 1_556 S
C1225 C1227 1.402 . S
C1226 H1199 0.950 . S
C1226 C1212 1.355 1_545 S
C1226 C1225 1.373 1_554 S
C1227 C1211 1.356 1_545 S
C1227 C1225 1.402 . S
C1227 C1228 1.530 1_545 S
C1228 C1227 1.530 1_565 S
C1228 C1229 1.397 1_565 S
C1228 C1233 1.363 . S
C1229 H1200 0.950 . S
C1229 C1228 1.397 1_545 S
C1229 C1230 1.331 . S
C1230 H1201 0.950 . S
C1230 C1229 1.331 . S
C1230 C1231 1.291 1_545 S
C1231 C1230 1.291 1_565 S
C1231 C1232 1.524 . S
C1231 H1234 0.999 . S
C1232 H1202 0.950 . S
C1232 C1231 1.524 . S
C1232 C1233 1.415 . S
C1233 H1203 0.950 . S
C1233 C1228 1.363 . S
C1233 C1232 1.415 . S
H1234 C1231 0.999 . S
H1235 C1216 0.913 . S
H1236 C1254 0.951 . S
H1237 C1256 0.951 . S
H1238 C1258 0.950 . S
H1239 C1259 0.950 . S
H1240 C1261 0.950 . S
H1241 C1264 0.950 . S
H1242 C1265 0.950 . S
H1243 C1267 0.950 . S
H1244 C1268 0.950 . S
H1245 C1269 0.951 . S
H1246 C1271 0.951 . S
H1247 C1273 0.965 . S
H1248 C1274 0.950 . S
H1249 C1276 0.950 . S
H1250 C1279 0.950 . S
H1251 C1280 0.950 . S
H1252 C1282 0.950 . S
H1253 C1283 0.950 . S
C1254 H1236 0.951 . S
C1254 C1255 1.366 . S
C1254 C1256 1.388 . S
C1255 C1254 1.366 . S
C1255 C1259 1.385 . S
C1256 H1237 0.951 . S
C1256 C1254 1.388 . S
C1256 C1257 1.366 . S
C1257 C1256 1.366 . S
C1257 C1258 1.414 . S
C1257 C1260 1.499 . S
C1258 H1238 0.950 . S
C1258 C1257 1.414 . S
C1258 C1259 1.374 . S
C1259 H1239 0.950 . S
C1259 C1255 1.385 . S
C1259 C1258 1.374 . S
C1260 C1257 1.499 . S
C1260 C1261 1.373 . S
C1260 C1262 1.389 . S
C1261 H1240 0.950 . S
C1261 C1260 1.373 . S
C1261 C1277 1.377 . S
C1262 C1260 1.389 . S
C1262 C1263 1.524 . S
C1262 C1276 1.377 . S
C1263 C1262 1.524 . S
C1263 C1264 1.397 . S
C1263 C1268 1.363 . S
C1264 H1241 0.950 . S
C1264 C1263 1.397 . S
C1264 C1265 1.334 . S
C1265 H1242 0.950 . S
C1265 C1264 1.334 . S
C1265 C1266 1.287 . S
C1266 C1265 1.287 . S
C1266 C1267 1.524 . S
C1266 H1285 0.913 . S
C1267 H1243 0.950 . S
C1267 C1266 1.524 . S
C1267 C1268 1.415 . S
C1268 H1244 0.950 . S
C1268 C1263 1.363 . S
C1268 C1267 1.415 . S
C1269 H1245 0.951 . S
C1269 C1270 1.366 . S
C1269 C1271 1.388 . S
C1270 C1269 1.366 . S
C1270 C1274 1.385 . S
C1271 H1246 0.951 . S
C1271 C1269 1.388 . S
C1271 C1272 1.366 1_556 S
C1272 C1271 1.366 1_554 S
C1272 C1273 1.419 . S
C1272 C1275 1.499 . S
C1273 H1247 0.965 . S
C1273 C1272 1.419 . S
C1273 C1274 1.355 1_554 S
C1274 H1248 0.950 . S
C1274 C1270 1.385 . S
C1274 C1273 1.355 1_556 S
C1275 C1272 1.499 . S
C1275 C1276 1.373 . S
C1275 C1277 1.389 . S
C1276 H1249 0.950 . S
C1276 C1262 1.377 . S
C1276 C1275 1.373 . S
C1277 C1261 1.377 . S
C1277 C1275 1.389 . S
C1277 C1278 1.524 . S
C1278 C1277 1.524 . S
C1278 C1279 1.397 . S
C1278 C1283 1.363 . S
C1279 H1250 0.950 . S
C1279 C1278 1.397 . S
C1279 C1280 1.334 . S
C1280 H1251 0.950 . S
C1280 C1279 1.334 . S
C1280 C1281 1.287 . S
C1281 C1280 1.287 . S
C1281 C1282 1.524 . S
C1281 H1284 0.999 . S
C1282 H1252 0.950 . S
C1282 C1281 1.524 . S
C1282 C1283 1.415 . S
C1283 H1253 0.950 . S
C1283 C1278 1.363 . S
C1283 C1282 1.415 . S
H1284 C1281 0.999 . S
H1285 C1266 0.913 . S
H1286 C1304 0.951 . S
H1287 C1306 0.951 . S
H1288 C1308 0.950 . S
H1289 C1309 0.950 . S
H1290 C1311 0.950 . S
H1291 C1314 0.950 . S
H1292 C1315 0.950 . S
H1293 C1317 0.950 . S
H1294 C1318 0.950 . S
H1295 C1319 0.951 . S
H1296 C1321 0.951 . S
H1297 C1323 0.950 . S
H1298 C1324 0.950 . S
H1299 C1326 0.950 . S
H1300 C1329 0.950 . S
H1301 C1330 0.950 . S
H1302 C1332 0.950 . S
H1303 C1333 0.950 . S
C1304 H1286 0.951 . S
C1304 C1305 1.366 . S
C1304 C1306 1.388 . S
C1305 C1304 1.366 . S
C1305 C1309 1.385 . S
C1306 H1287 0.951 . S
C1306 C1304 1.388 . S
C1306 C1307 1.366 . S
C1307 C1306 1.366 . S
C1307 C1308 1.414 . S
C1307 C1310 1.499 . S
C1308 H1288 0.950 . S
C1308 C1307 1.414 . S
C1308 C1309 1.374 . S
C1309 H1289 0.950 . S
C1309 C1305 1.385 . S
C1309 C1308 1.374 . S
C1310 C1307 1.499 . S
C1310 C1311 1.373 . S
C1310 C1312 1.389 . S
C1311 H1290 0.950 . S
C1311 C1310 1.373 . S
C1311 C1327 1.377 1_655 S
C1312 C1310 1.389 . S
C1312 C1313 1.524 . S
C1312 C1326 1.377 . S
C1313 C1312 1.524 . S
C1313 C1314 1.397 . S
C1313 C1318 1.363 . S
C1314 H1291 0.950 . S
C1314 C1313 1.397 . S
C1314 C1315 1.334 . S
C1315 H1292 0.950 . S
C1315 C1314 1.334 . S
C1315 C1316 1.287 . S
C1316 C1315 1.287 . S
C1316 C1317 1.524 . S
C1316 H1335 0.913 . S
C1317 H1293 0.950 . S
C1317 C1316 1.524 . S
C1317 C1318 1.415 . S
C1318 H1294 0.950 . S
C1318 C1313 1.363 . S
C1318 C1317 1.415 . S
C1319 H1295 0.951 . S
C1319 C1320 1.366 . S
C1319 C1321 1.388 . S
C1320 C1319 1.366 . S
C1320 C1324 1.385 . S
C1321 H1296 0.951 . S
C1321 C1319 1.388 . S
C1321 C1322 1.366 . S
C1322 C1321 1.366 . S
C1322 C1323 1.414 . S
C1322 C1325 1.499 . S
C1323 H1297 0.950 . S
C1323 C1322 1.414 . S
C1323 C1324 1.374 . S
C1324 H1298 0.950 . S
C1324 C1320 1.385 . S
C1324 C1323 1.374 . S
C1325 C1322 1.499 . S
C1325 C1326 1.373 1_455 S
C1325 C1327 1.389 . S
C1326 H1299 0.950 . S
C1326 C1312 1.377 . S
C1326 C1325 1.373 1_655 S
C1327 C1311 1.377 1_455 S
C1327 C1325 1.389 . S
C1327 C1328 1.524 . S
C1328 C1327 1.524 . S
C1328 C1329 1.397 . S
C1328 C1333 1.363 . S
C1329 H1300 0.950 . S
C1329 C1328 1.397 . S
C1329 C1330 1.334 . S
C1330 H1301 0.950 . S
C1330 C1329 1.334 . S
C1330 C1331 1.287 . S
C1331 C1330 1.287 . S
C1331 C1332 1.524 . S
C1331 H1334 0.999 . S
C1332 H1302 0.950 . S
C1332 C1331 1.524 . S
C1332 C1333 1.415 . S
C1333 H1303 0.950 . S
C1333 C1328 1.363 . S
C1333 C1332 1.415 . S
H1334 C1331 0.999 . S
H1335 C1316 0.913 . S
H1336 C1354 0.951 . S
H1337 C1356 0.951 . S
H1338 C1358 0.950 1_565 S
H1339 C1359 0.950 . S
H1340 C1361 0.950 . S
H1341 C1364 0.950 1_565 S
H1342 C1365 0.950 . S
H1343 C1367 0.950 . S
H1344 C1368 0.950 . S
H1345 C1369 0.951 . S
H1346 C1371 0.951 . S
H1347 C1373 0.950 . S
H1348 C1374 0.950 . S
H1349 C1376 0.950 . S
H1350 C1379 0.950 . S
H1351 C1380 0.950 . S
H1352 C1382 0.950 . S
H1353 C1383 0.950 . S
C1354 H1336 0.951 . S
C1354 C1355 1.366 . S
C1354 C1356 1.388 . S
C1355 C1354 1.366 . S
C1355 C1359 1.385 . S
C1356 H1337 0.951 . S
C1356 C1354 1.388 . S
C1356 C1357 1.366 . S
C1357 C1356 1.366 . S
C1357 C1358 1.414 . S
C1357 C1360 1.499 1_545 S
C1358 H1338 0.950 1_545 S
C1358 C1357 1.414 . S
C1358 C1359 1.374 . S
C1359 H1339 0.950 . S
C1359 C1355 1.385 . S
C1359 C1358 1.374 . S
C1360 C1357 1.499 1_565 S
C1360 C1361 1.373 . S
C1360 C1362 1.389 . S
C1361 H1340 0.950 . S
C1361 C1360 1.373 . S
C1361 C1377 1.377 . S
C1362 C1360 1.389 . S
C1362 C1363 1.524 . S
C1362 C1376 1.377 . S
C1363 C1362 1.524 . S
C1363 C1364 1.397 1_565 S
C1363 C1368 1.363 1_565 S
C1364 H1341 0.950 1_545 S
C1364 C1363 1.397 1_545 S
C1364 C1365 1.334 . S
C1365 H1342 0.950 . S
C1365 C1364 1.334 . S
C1365 C1366 1.287 . S
C1366 C1365 1.287 . S
C1366 C1367 1.524 . S
C1366 H1385 0.913 . S
C1367 H1343 0.950 . S
C1367 C1366 1.524 . S
C1367 C1368 1.415 . S
C1368 H1344 0.950 . S
C1368 C1363 1.363 1_545 S
C1368 C1367 1.415 . S
C1369 H1345 0.951 . S
C1369 C1370 1.366 . S
C1369 C1371 1.388 . S
C1370 C1369 1.366 . S
C1370 C1374 1.385 . S
C1371 H1346 0.951 . S
C1371 C1369 1.388 . S
C1371 C1372 1.366 . S
C1372 C1371 1.366 . S
C1372 C1373 1.414 . S
C1372 C1375 1.499 . S
C1373 H1347 0.950 . S
C1373 C1372 1.414 . S
C1373 C1374 1.374 . S
C1374 H1348 0.950 . S
C1374 C1370 1.385 . S
C1374 C1373 1.374 . S
C1375 C1372 1.499 . S
C1375 C1376 1.373 . S
C1375 C1377 1.389 . S
C1376 H1349 0.950 . S
C1376 C1362 1.377 . S
C1376 C1375 1.373 . S
C1377 C1361 1.377 . S
C1377 C1375 1.389 . S
C1377 C1378 1.524 . S
C1378 C1377 1.524 . S
C1378 C1379 1.397 . S
C1378 C1383 1.363 . S
C1379 H1350 0.950 . S
C1379 C1378 1.397 . S
C1379 C1380 1.334 . S
C1380 H1351 0.950 . S
C1380 C1379 1.334 . S
C1380 C1381 1.287 . S
C1381 C1380 1.287 . S
C1381 C1382 1.524 . S
C1381 H1384 0.999 . S
C1382 H1352 0.950 . S
C1382 C1381 1.524 . S
C1382 C1383 1.415 . S
C1383 H1353 0.950 . S
C1383 C1378 1.363 . S
C1383 C1382 1.415 . S
H1384 C1381 0.999 . S
H1385 C1366 0.913 . S
H1386 C1404 0.951 . S
H1387 C1406 0.951 . S
H1388 C1408 0.950 . S
H1389 C1409 0.950 . S
H1390 C1411 0.950 . S
H1391 C1414 0.950 . S
H1392 C1415 0.950 . S
H1393 C1417 0.950 . S
H1394 C1418 0.950 . S
H1395 C1419 0.951 . S
H1396 C1421 0.951 . S
H1397 C1423 0.950 . S
H1398 C1424 0.950 . S
H1399 C1426 0.950 . S
H1400 C1429 0.950 . S
H1401 C1430 0.950 . S
H1402 C1432 0.950 . S
H1403 C1433 0.950 . S
C1404 H1386 0.951 . S
C1404 C1405 1.366 . S
C1404 C1406 1.388 . S
C1405 C1404 1.366 . S
C1405 C1409 1.385 . S
C1406 H1387 0.951 . S
C1406 C1404 1.388 . S
C1406 C1407 1.366 . S
C1407 C1406 1.366 . S
C1407 C1408 1.414 . S
C1407 C1410 1.499 . S
C1408 H1388 0.950 . S
C1408 C1407 1.414 . S
C1408 C1409 1.374 . S
C1409 H1389 0.950 . S
C1409 C1405 1.385 . S
C1409 C1408 1.374 . S
C1410 C1407 1.499 . S
C1410 C1411 1.373 . S
C1410 C1412 1.389 . S
C1411 H1390 0.950 . S
C1411 C1410 1.373 . S
C1411 C1427 1.377 . S
C1412 C1410 1.389 . S
C1412 C1413 1.524 . S
C1412 C1426 1.377 . S
C1413 C1412 1.524 . S
C1413 C1414 1.397 . S
C1413 C1418 1.363 . S
C1414 H1391 0.950 . S
C1414 C1413 1.397 . S
C1414 C1415 1.334 . S
C1415 H1392 0.950 . S
C1415 C1414 1.334 . S
C1415 C1416 1.287 . S
C1416 C1415 1.287 . S
C1416 C1417 1.524 . S
C1416 H1435 0.913 . S
C1417 H1393 0.950 . S
C1417 C1416 1.524 . S
C1417 C1418 1.415 . S
C1418 H1394 0.950 . S
C1418 C1413 1.363 . S
C1418 C1417 1.415 . S
C1419 H1395 0.951 . S
C1419 C1420 1.366 . S
C1419 C1421 1.388 . S
C1420 C1419 1.366 . S
C1420 C1424 1.385 . S
C1421 H1396 0.951 . S
C1421 C1419 1.388 . S
C1421 C1422 1.366 . S
C1422 C1421 1.366 . S
C1422 C1423 1.414 . S
C1422 C1425 1.499 . S
C1423 H1397 0.950 . S
C1423 C1422 1.414 . S
C1423 C1424 1.374 . S
C1424 H1398 0.950 . S
C1424 C1420 1.385 . S
C1424 C1423 1.374 . S
C1425 C1422 1.499 . S
C1425 C1426 1.373 . S
C1425 C1427 1.389 . S
C1426 H1399 0.950 . S
C1426 C1412 1.377 . S
C1426 C1425 1.373 . S
C1427 C1411 1.377 . S
C1427 C1425 1.389 . S
C1427 C1428 1.524 . S
C1428 C1427 1.524 . S
C1428 C1429 1.397 . S
C1428 C1433 1.363 . S
C1429 H1400 0.950 . S
C1429 C1428 1.397 . S
C1429 C1430 1.334 . S
C1430 H1401 0.950 . S
C1430 C1429 1.334 . S
C1430 C1431 1.287 . S
C1431 C1430 1.287 . S
C1431 C1432 1.524 . S
C1431 H1434 0.999 . S
C1432 H1402 0.950 . S
C1432 C1431 1.524 . S
C1432 C1433 1.415 . S
C1433 H1403 0.950 . S
C1433 C1428 1.363 . S
C1433 C1432 1.415 . S
H1434 C1431 0.999 . S
H1435 C1416 0.913 . S
H1436 C1454 0.951 . S
H1437 C1456 0.951 . S
H1438 C1458 0.950 . S
H1439 C1459 0.950 . S
H1440 C1461 0.950 . S
H1441 C1464 0.950 . S
H1442 C1465 0.950 . S
H1443 C1467 0.950 . S
H1444 C1468 0.950 . S
H1445 C1469 0.951 . S
H1446 C1471 0.951 . S
H1447 C1473 0.950 . S
H1448 C1474 0.950 . S
H1449 C1476 0.950 . S
H1450 C1479 0.950 . S
H1451 C1480 0.950 . S
H1452 C1482 0.950 . S
H1453 C1483 0.950 . S
C1454 H1436 0.951 . S
C1454 C1455 1.366 . S
C1454 C1456 1.388 . S
C1455 C1454 1.366 . S
C1455 C1459 1.385 . S
C1456 H1437 0.951 . S
C1456 C1454 1.388 . S
C1456 C1457 1.366 . S
C1457 C1456 1.366 . S
C1457 C1458 1.414 . S
C1457 C1460 1.499 . S
C1458 H1438 0.950 . S
C1458 C1457 1.414 . S
C1458 C1459 1.374 . S
C1459 H1439 0.950 . S
C1459 C1455 1.385 . S
C1459 C1458 1.374 . S
C1460 C1457 1.499 . S
C1460 C1461 1.373 . S
C1460 C1462 1.389 . S
C1461 H1440 0.950 . S
C1461 C1460 1.373 . S
C1461 C1477 1.377 1_455 S
C1462 C1460 1.389 . S
C1462 C1463 1.524 . S
C1462 C1476 1.377 . S
C1463 C1462 1.524 . S
C1463 C1464 1.397 . S
C1463 C1468 1.363 . S
C1464 H1441 0.950 . S
C1464 C1463 1.397 . S
C1464 C1465 1.334 . S
C1465 H1442 0.950 . S
C1465 C1464 1.334 . S
C1465 C1466 1.287 . S
C1466 C1465 1.287 . S
C1466 C1467 1.524 . S
C1466 H1485 0.913 . S
C1467 H1443 0.950 . S
C1467 C1466 1.524 . S
C1467 C1468 1.415 . S
C1468 H1444 0.950 . S
C1468 C1463 1.363 . S
C1468 C1467 1.415 . S
C1469 H1445 0.951 . S
C1469 C1470 1.366 . S
C1469 C1471 1.388 . S
C1470 C1469 1.366 . S
C1470 C1474 1.385 . S
C1471 H1446 0.951 . S
C1471 C1469 1.388 . S
C1471 C1472 1.366 . S
C1472 C1471 1.366 . S
C1472 C1473 1.414 . S
C1472 C1475 1.499 . S
C1473 H1447 0.950 . S
C1473 C1472 1.414 . S
C1473 C1474 1.374 . S
C1474 H1448 0.950 . S
C1474 C1470 1.385 . S
C1474 C1473 1.374 . S
C1475 C1472 1.499 . S
C1475 C1476 1.373 1_655 S
C1475 C1477 1.389 . S
C1476 H1449 0.950 . S
C1476 C1462 1.377 . S
C1476 C1475 1.373 1_455 S
C1477 C1461 1.377 1_655 S
C1477 C1475 1.389 . S
C1477 C1478 1.524 . S
C1478 C1477 1.524 . S
C1478 C1479 1.397 . S
C1478 C1483 1.363 . S
C1479 H1450 0.950 . S
C1479 C1478 1.397 . S
C1479 C1480 1.334 . S
C1480 H1451 0.950 . S
C1480 C1479 1.334 . S
C1480 C1481 1.287 . S
C1481 C1480 1.287 . S
C1481 C1482 1.524 . S
C1481 H1484 0.999 . S
C1482 H1452 0.950 . S
C1482 C1481 1.524 . S
C1482 C1483 1.415 . S
C1483 H1453 0.950 . S
C1483 C1478 1.363 . S
C1483 C1482 1.415 . S
H1484 C1481 0.999 . S
H1485 C1466 0.913 . S
H1486 C1504 0.951 . S
H1487 C1506 0.951 . S
H1488 C1508 0.950 . S
H1489 C1509 0.950 . S
H1490 C1511 0.950 . S
H1491 C1514 0.950 . S
H1492 C1515 0.950 . S
H1493 C1517 0.950 . S
H1494 C1518 0.950 . S
H1495 C1519 0.951 . S
H1496 C1521 0.951 . S
H1497 C1523 0.976 . S
H1498 C1524 0.950 . S
H1499 C1526 0.950 . S
H1500 C1529 0.950 . S
H1501 C1530 0.950 . S
H1502 C1532 0.950 . S
H1503 C1533 0.950 . S
C1504 H1486 0.951 . S
C1504 C1505 1.366 . S
C1504 C1506 1.388 . S
C1505 C1504 1.366 . S
C1505 C1509 1.385 . S
C1506 H1487 0.951 . S
C1506 C1504 1.388 . S
C1506 C1507 1.366 . S
C1507 C1506 1.366 . S
C1507 C1508 1.414 . S
C1507 C1510 1.499 . S
C1508 H1488 0.950 . S
C1508 C1507 1.414 . S
C1508 C1509 1.374 . S
C1509 H1489 0.950 . S
C1509 C1505 1.385 . S
C1509 C1508 1.374 . S
C1510 C1507 1.499 . S
C1510 C1511 1.373 . S
C1510 C1512 1.389 . S
C1511 H1490 0.950 . S
C1511 C1510 1.373 . S
C1511 C1527 1.377 . S
C1512 C1510 1.389 . S
C1512 C1513 1.524 . S
C1512 C1526 1.377 . S
C1513 C1512 1.524 . S
C1513 C1514 1.397 . S
C1513 C1518 1.363 . S
C1514 H1491 0.950 . S
C1514 C1513 1.397 . S
C1514 C1515 1.334 . S
C1515 H1492 0.950 . S
C1515 C1514 1.334 . S
C1515 C1516 1.287 . S
C1516 C1515 1.287 . S
C1516 C1517 1.524 . S
C1516 H1535 0.913 . S
C1517 H1493 0.950 . S
C1517 C1516 1.524 . S
C1517 C1518 1.415 . S
C1518 H1494 0.950 . S
C1518 C1513 1.363 . S
C1518 C1517 1.415 . S
C1519 H1495 0.951 . S
C1519 C1520 1.366 . S
C1519 C1521 1.388 . S
C1520 C1519 1.366 . S
C1520 C1524 1.385 . S
C1521 H1496 0.951 . S
C1521 C1519 1.388 . S
C1521 C1522 1.366 . S
C1522 C1521 1.366 . S
C1522 C1523 1.414 . S
C1522 C1525 1.499 1_565 S
C1523 H1497 0.976 . S
C1523 C1522 1.414 . S
C1523 C1524 1.374 . S
C1524 H1498 0.950 . S
C1524 C1520 1.385 . S
C1524 C1523 1.374 . S
C1525 C1522 1.499 1_545 S
C1525 C1526 1.373 . S
C1525 C1527 1.389 . S
C1526 H1499 0.950 . S
C1526 C1512 1.377 . S
C1526 C1525 1.373 . S
C1527 C1511 1.377 . S
C1527 C1525 1.389 . S
C1527 C1528 1.524 . S
C1528 C1527 1.524 . S
C1528 C1529 1.397 . S
C1528 C1533 1.363 . S
C1529 H1500 0.950 . S
C1529 C1528 1.397 . S
C1529 C1530 1.334 . S
C1530 H1501 0.950 . S
C1530 C1529 1.334 . S
C1530 C1531 1.287 . S
C1531 C1530 1.287 . S
C1531 C1532 1.524 . S
C1531 H1534 0.999 . S
C1532 H1502 0.950 . S
C1532 C1531 1.524 . S
C1532 C1533 1.415 . S
C1533 H1503 0.950 . S
C1533 C1528 1.363 . S
C1533 C1532 1.415 . S
H1534 C1531 0.999 . S
H1535 C1516 0.913 . S
H1536 C1554 0.951 . S
H1537 C1556 0.951 . S
H1538 C1558 0.950 . S
H1539 C1559 0.950 . S
H1540 C1561 0.950 . S
H1541 C1564 0.950 . S
H1542 C1565 0.950 . S
H1543 C1567 0.950 . S
H1544 C1568 0.950 . S
H1545 C1569 0.951 . S
H1546 C1571 0.951 . S
H1547 C1573 0.950 . S
H1548 C1574 0.950 . S
H1549 C1576 0.950 . S
H1550 C1579 0.950 . S
H1551 C1580 0.950 . S
H1552 C1582 0.950 . S
H1553 C1583 0.950 . S
C1554 H1536 0.951 . S
C1554 C1555 1.366 . S
C1554 C1556 1.388 . S
C1555 C1554 1.366 . S
C1555 C1559 1.385 . S
C1556 H1537 0.951 . S
C1556 C1554 1.388 . S
C1556 C1557 1.366 . S
C1557 C1556 1.366 . S
C1557 C1558 1.414 . S
C1557 C1560 1.499 . S
C1558 H1538 0.950 . S
C1558 C1557 1.414 . S
C1558 C1559 1.374 . S
C1559 H1539 0.950 . S
C1559 C1555 1.385 . S
C1559 C1558 1.374 . S
C1560 C1557 1.499 . S
C1560 C1561 1.373 . S
C1560 C1562 1.389 . S
C1561 H1540 0.950 . S
C1561 C1560 1.373 . S
C1561 C1577 1.377 . S
C1562 C1560 1.389 . S
C1562 C1563 1.524 . S
C1562 C1576 1.377 . S
C1563 C1562 1.524 . S
C1563 C1564 1.397 . S
C1563 C1568 1.363 . S
C1564 H1541 0.950 . S
C1564 C1563 1.397 . S
C1564 C1565 1.334 . S
C1565 H1542 0.950 . S
C1565 C1564 1.334 . S
C1565 C1566 1.287 . S
C1566 C1565 1.287 . S
C1566 C1567 1.524 . S
C1566 H1585 0.913 . S
C1567 H1543 0.950 . S
C1567 C1566 1.524 . S
C1567 C1568 1.415 . S
C1568 H1544 0.950 . S
C1568 C1563 1.363 . S
C1568 C1567 1.415 . S
C1569 H1545 0.951 . S
C1569 C1570 1.366 . S
C1569 C1571 1.388 . S
C1570 C1569 1.366 . S
C1570 C1574 1.385 . S
C1571 H1546 0.951 . S
C1571 C1569 1.388 . S
C1571 C1572 1.366 . S
C1572 C1571 1.366 . S
C1572 C1573 1.414 . S
C1572 C1575 1.499 . S
C1573 H1547 0.950 . S
C1573 C1572 1.414 . S
C1573 C1574 1.374 . S
C1574 H1548 0.950 . S
C1574 C1570 1.385 . S
C1574 C1573 1.374 . S
C1575 C1572 1.499 . S
C1575 C1576 1.373 . S
C1575 C1577 1.389 . S
C1576 H1549 0.950 . S
C1576 C1562 1.377 . S
C1576 C1575 1.373 . S
C1577 C1561 1.377 . S
C1577 C1575 1.389 . S
C1577 C1578 1.524 . S
C1578 C1577 1.524 . S
C1578 C1579 1.397 . S
C1578 C1583 1.363 . S
C1579 H1550 0.950 . S
C1579 C1578 1.397 . S
C1579 C1580 1.334 . S
C1580 H1551 0.950 . S
C1580 C1579 1.334 . S
C1580 C1581 1.287 . S
C1581 C1580 1.287 . S
C1581 C1582 1.524 . S
C1581 H1584 0.999 . S
C1582 H1552 0.950 . S
C1582 C1581 1.524 . S
C1582 C1583 1.415 . S
C1583 H1553 0.950 . S
C1583 C1578 1.363 . S
C1583 C1582 1.415 . S
H1584 C1581 0.999 . S
H1585 C1566 0.913 . S
H1586 C1604 0.951 . S
H1587 C1606 0.951 . S
H1588 C1608 0.950 . S
H1589 C1609 0.950 . S
H1590 C1611 0.950 . S
H1591 C1614 0.950 . S
H1592 C1615 0.950 . S
H1593 C1617 0.950 . S
H1594 C1618 0.950 . S
H1595 C1619 0.951 1_556 S
H1596 C1621 0.951 . S
H1597 C1623 0.950 . S
H1598 C1624 0.950 . S
H1599 C1626 0.948 . S
H1600 C1629 0.950 1_554 S
H1601 C1630 0.902 1_554 S
H1602 C1632 0.950 . S
H1603 C1633 0.950 . S
C1604 H1586 0.951 . S
C1604 C1605 1.366 . S
C1604 C1606 1.388 . S
C1605 C1604 1.366 . S
C1605 C1609 1.385 . S
C1606 H1587 0.951 . S
C1606 C1604 1.388 . S
C1606 C1607 1.366 . S
C1607 C1606 1.366 . S
C1607 C1608 1.414 . S
C1607 C1610 1.499 . S
C1608 H1588 0.950 . S
C1608 C1607 1.414 . S
C1608 C1609 1.374 . S
C1609 H1589 0.950 . S
C1609 C1605 1.385 . S
C1609 C1608 1.374 . S
C1610 C1607 1.499 . S
C1610 C1611 1.373 . S
C1610 C1612 1.389 . S
C1611 H1590 0.950 . S
C1611 C1610 1.373 . S
C1611 C1627 1.377 1_655 S
C1612 C1610 1.389 . S
C1612 C1613 1.524 . S
C1612 C1626 1.368 1_655 S
C1613 C1612 1.524 . S
C1613 C1614 1.397 . S
C1613 C1618 1.363 . S
C1614 H1591 0.950 . S
C1614 C1613 1.397 . S
C1614 C1615 1.334 . S
C1615 H1592 0.950 . S
C1615 C1614 1.334 . S
C1615 C1616 1.287 . S
C1616 C1615 1.287 . S
C1616 C1617 1.524 . S
C1616 H1635 0.913 . S
C1617 H1593 0.950 . S
C1617 C1616 1.524 . S
C1617 C1618 1.415 . S
C1618 H1594 0.950 . S
C1618 C1613 1.363 . S
C1618 C1617 1.415 . S
C1619 H1595 0.951 1_554 S
C1619 C1620 1.366 . S
C1619 C1621 1.388 1_554 S
C1620 C1619 1.366 . S
C1620 C1624 1.385 . S
C1621 H1596 0.951 . S
C1621 C1619 1.388 1_556 S
C1621 C1622 1.366 . S
C1622 C1621 1.366 . S
C1622 C1623 1.414 1_556 S
C1622 C1625 1.499 . S
C1623 H1597 0.950 . S
C1623 C1622 1.414 1_554 S
C1623 C1624 1.374 . S
C1624 H1598 0.950 . S
C1624 C1620 1.385 . S
C1624 C1623 1.374 . S
C1625 C1622 1.499 . S
C1625 C1626 1.384 . S
C1625 C1627 1.389 . S
C1626 H1599 0.948 . S
C1626 C1612 1.368 1_455 S
C1626 C1625 1.384 . S
C1627 C1611 1.377 1_455 S
C1627 C1625 1.389 . S
C1627 C1628 1.524 . S
C1628 C1627 1.524 . S
C1628 C1629 1.397 . S
C1628 C1633 1.363 . S
C1629 H1600 0.950 1_556 S
C1629 C1628 1.397 . S
C1629 C1630 1.345 . S
C1630 H1601 0.902 1_556 S
C1630 C1629 1.345 . S
C1630 C1631 1.327 . S
C1631 C1630 1.327 . S
C1631 C1632 1.524 . S
C1631 H1634 0.999 . S
C1632 H1602 0.950 . S
C1632 C1631 1.524 . S
C1632 C1633 1.415 . S
C1633 H1603 0.950 . S
C1633 C1628 1.363 . S
C1633 C1632 1.415 . S
H1634 C1631 0.999 . S
H1635 C1616 0.913 . S
H1636 C1654 0.951 . S
H1637 C1656 0.951 . S
H1638 C1658 0.950 . S
H1639 C1659 0.950 . S
H1640 C1661 0.950 . S
H1641 C1664 0.950 . S
H1642 C1665 0.950 . S
H1643 C1667 0.950 . S
H1644 C1668 0.950 . S
H1645 C1669 0.951 . S
H1646 C1671 0.951 . S
H1647 C1673 0.950 1_565 S
H1648 C1674 0.950 . S
H1649 C1676 0.950 . S
H1650 C1679 0.950 . S
H1651 C1680 0.950 . S
H1652 C1682 0.949 1_545 S
H1653 C1683 0.950 . S
C1654 H1636 0.951 . S
C1654 C1655 1.366 . S
C1654 C1656 1.388 . S
C1655 C1654 1.366 . S
C1655 C1659 1.385 . S
C1656 H1637 0.951 . S
C1656 C1654 1.388 . S
C1656 C1657 1.366 . S
C1657 C1656 1.366 . S
C1657 C1658 1.414 . S
C1657 C1660 1.499 . S
C1658 H1638 0.950 . S
C1658 C1657 1.414 . S
C1658 C1659 1.374 . S
C1659 H1639 0.950 . S
C1659 C1655 1.385 . S
C1659 C1658 1.374 . S
C1660 C1657 1.499 . S
C1660 C1661 1.373 . S
C1660 C1662 1.389 . S
C1661 H1640 0.950 . S
C1661 C1660 1.373 . S
C1661 C1677 1.377 . S
C1662 C1660 1.389 . S
C1662 C1663 1.524 . S
C1662 C1676 1.377 . S
C1663 C1662 1.524 . S
C1663 C1664 1.397 . S
C1663 C1668 1.363 . S
C1664 H1641 0.950 . S
C1664 C1663 1.397 . S
C1664 C1665 1.334 . S
C1665 H1642 0.950 . S
C1665 C1664 1.334 . S
C1665 C1666 1.287 . S
C1666 C1665 1.287 . S
C1666 C1667 1.524 . S
C1666 H1685 0.913 . S
C1667 H1643 0.950 . S
C1667 C1666 1.524 . S
C1667 C1668 1.415 . S
C1668 H1644 0.950 . S
C1668 C1663 1.363 . S
C1668 C1667 1.415 . S
C1669 H1645 0.951 . S
C1669 C1670 1.366 . S
C1669 C1671 1.388 . S
C1670 C1669 1.366 . S
C1670 C1674 1.385 . S
C1671 H1646 0.951 . S
C1671 C1669 1.388 . S
C1671 C1672 1.366 . S
C1672 C1671 1.366 . S
C1672 C1673 1.414 . S
C1672 C1675 1.499 1_545 S
C1673 H1647 0.950 1_545 S
C1673 C1672 1.414 . S
C1673 C1674 1.374 . S
C1674 H1648 0.950 . S
C1674 C1670 1.385 . S
C1674 C1673 1.374 . S
C1675 C1672 1.499 1_565 S
C1675 C1676 1.373 . S
C1675 C1677 1.389 . S
C1676 H1649 0.950 . S
C1676 C1662 1.377 . S
C1676 C1675 1.373 . S
C1677 C1661 1.377 . S
C1677 C1675 1.389 . S
C1677 C1678 1.524 . S
C1678 C1677 1.524 . S
C1678 C1679 1.397 . S
C1678 C1683 1.363 . S
C1679 H1650 0.950 . S
C1679 C1678 1.397 . S
C1679 C1680 1.334 . S
C1680 H1651 0.950 . S
C1680 C1679 1.334 . S
C1680 C1681 1.287 . S
C1681 C1680 1.287 . S
C1681 C1682 1.524 . S
C1681 H1684 0.999 1_565 S
C1682 H1652 0.949 1_565 S
C1682 C1681 1.524 . S
C1682 C1683 1.415 . S
C1683 H1653 0.950 . S
C1683 C1678 1.363 . S
C1683 C1682 1.415 . S
H1684 C1681 0.999 1_545 S
H1685 C1666 0.913 . S
H1686 C1704 0.951 . S
H1687 C1706 0.951 . S
H1688 C1708 0.950 . S
H1689 C1709 0.950 . S
H1690 C1711 0.950 . S
H1691 C1714 0.950 . S
H1692 C1715 0.950 . S
H1693 C1717 0.950 . S
H1694 C1718 0.950 . S
H1695 C1719 0.951 . S
H1696 C1721 0.951 . S
H1697 C1723 0.950 . S
H1698 C1724 0.950 . S
H1699 C1726 0.950 . S
H1700 C1729 0.950 . S
H1701 C1730 0.950 . S
H1702 C1732 0.950 . S
H1703 C1733 0.950 . S
C1704 H1686 0.951 . S
C1704 C1705 1.366 . S
C1704 C1706 1.388 . S
C1705 C1704 1.366 . S
C1705 C1709 1.385 . S
C1706 H1687 0.951 . S
C1706 C1704 1.388 . S
C1706 C1707 1.366 . S
C1707 C1706 1.366 . S
C1707 C1708 1.414 . S
C1707 C1710 1.499 . S
C1708 H1688 0.950 . S
C1708 C1707 1.414 . S
C1708 C1709 1.374 . S
C1709 H1689 0.950 . S
C1709 C1705 1.385 . S
C1709 C1708 1.374 . S
C1710 C1707 1.499 . S
C1710 C1711 1.373 . S
C1710 C1712 1.389 . S
C1711 H1690 0.950 . S
C1711 C1710 1.373 . S
C1711 C1727 1.377 . S
C1712 C1710 1.389 . S
C1712 C1713 1.524 . S
C1712 C1726 1.377 . S
C1713 C1712 1.524 . S
C1713 C1714 1.397 . S
C1713 C1718 1.363 . S
C1714 H1691 0.950 . S
C1714 C1713 1.397 . S
C1714 C1715 1.334 . S
C1715 H1692 0.950 . S
C1715 C1714 1.334 . S
C1715 C1716 1.287 . S
C1716 C1715 1.287 . S
C1716 C1717 1.524 . S
C1716 H1735 0.913 . S
C1717 H1693 0.950 . S
C1717 C1716 1.524 . S
C1717 C1718 1.415 . S
C1718 H1694 0.950 . S
C1718 C1713 1.363 . S
C1718 C1717 1.415 . S
C1719 H1695 0.951 . S
C1719 C1720 1.366 . S
C1719 C1721 1.388 . S
C1720 C1719 1.366 . S
C1720 C1724 1.385 . S
C1721 H1696 0.951 . S
C1721 C1719 1.388 . S
C1721 C1722 1.366 . S
C1722 C1721 1.366 . S
C1722 C1723 1.414 . S
C1722 C1725 1.499 . S
C1723 H1697 0.950 . S
C1723 C1722 1.414 . S
C1723 C1724 1.374 . S
C1724 H1698 0.950 . S
C1724 C1720 1.385 . S
C1724 C1723 1.374 . S
C1725 C1722 1.499 . S
C1725 C1726 1.373 . S
C1725 C1727 1.389 . S
C1726 H1699 0.950 . S
C1726 C1712 1.377 . S
C1726 C1725 1.373 . S
C1727 C1711 1.377 . S
C1727 C1725 1.389 . S
C1727 C1728 1.524 . S
C1728 C1727 1.524 . S
C1728 C1729 1.397 . S
C1728 C1733 1.363 . S
C1729 H1700 0.950 . S
C1729 C1728 1.397 . S
C1729 C1730 1.334 . S
C1730 H1701 0.950 . S
C1730 C1729 1.334 . S
C1730 C1731 1.287 . S
C1731 C1730 1.287 . S
C1731 C1732 1.524 . S
C1731 H1734 0.999 . S
C1732 H1702 0.950 . S
C1732 C1731 1.524 . S
C1732 C1733 1.415 . S
C1733 H1703 0.950 . S
C1733 C1728 1.363 . S
C1733 C1732 1.415 . S
H1734 C1731 0.999 . S
H1735 C1716 0.913 . S
H1736 C1754 0.951 . S
H1737 C1756 0.951 . S
H1738 C1758 0.950 . S
H1739 C1759 0.950 . S
H1740 C1761 0.950 . S
H1741 C1764 0.950 . S
H1742 C1765 0.950 . S
H1743 C1767 0.950 . S
H1744 C1768 0.950 . S
H1745 C1769 0.951 . S
H1746 C1771 0.951 . S
H1747 C1773 0.950 . S
H1748 C1774 0.950 . S
H1749 C1776 0.950 . S
H1750 C1779 0.950 . S
H1751 C1780 0.950 . S
H1752 C1782 0.950 . S
H1753 C1783 0.950 . S
C1754 H1736 0.951 . S
C1754 C1755 1.366 . S
C1754 C1756 1.388 . S
C1755 C1754 1.366 . S
C1755 C1759 1.385 . S
C1756 H1737 0.951 . S
C1756 C1754 1.388 . S
C1756 C1757 1.366 . S
C1757 C1756 1.366 . S
C1757 C1758 1.414 . S
C1757 C1760 1.499 . S
C1758 H1738 0.950 . S
C1758 C1757 1.414 . S
C1758 C1759 1.374 . S
C1759 H1739 0.950 . S
C1759 C1755 1.385 . S
C1759 C1758 1.374 . S
C1760 C1757 1.499 . S
C1760 C1761 1.373 . S
C1760 C1762 1.389 . S
C1761 H1740 0.950 . S
C1761 C1760 1.373 . S
C1761 C1777 1.377 . S
C1762 C1760 1.389 . S
C1762 C1763 1.524 . S
C1762 C1776 1.377 1_455 S
C1763 C1762 1.524 . S
C1763 C1764 1.397 . S
C1763 C1768 1.363 1_455 S
C1764 H1741 0.950 . S
C1764 C1763 1.397 . S
C1764 C1765 1.334 . S
C1765 H1742 0.950 . S
C1765 C1764 1.334 . S
C1765 C1766 1.287 . S
C1766 C1765 1.287 . S
C1766 C1767 1.524 1_455 S
C1766 H1785 0.913 . S
C1767 H1743 0.950 . S
C1767 C1766 1.524 1_655 S
C1767 C1768 1.415 . S
C1768 H1744 0.950 . S
C1768 C1763 1.363 1_655 S
C1768 C1767 1.415 . S
C1769 H1745 0.951 . S
C1769 C1770 1.366 . S
C1769 C1771 1.388 . S
C1770 C1769 1.366 . S
C1770 C1774 1.385 . S
C1771 H1746 0.951 . S
C1771 C1769 1.388 . S
C1771 C1772 1.366 . S
C1772 C1771 1.366 . S
C1772 C1773 1.414 . S
C1772 C1775 1.499 . S
C1773 H1747 0.950 . S
C1773 C1772 1.414 . S
C1773 C1774 1.374 . S
C1774 H1748 0.950 . S
C1774 C1770 1.385 . S
C1774 C1773 1.374 . S
C1775 C1772 1.499 . S
C1775 C1776 1.373 . S
C1775 C1777 1.389 1_655 S
C1776 H1749 0.950 . S
C1776 C1762 1.377 1_655 S
C1776 C1775 1.373 . S
C1777 C1761 1.377 . S
C1777 C1775 1.389 1_455 S
C1777 C1778 1.524 . S
C1778 C1777 1.524 . S
C1778 C1779 1.397 1_455 S
C1778 C1783 1.363 . S
C1779 H1750 0.950 . S
C1779 C1778 1.397 1_655 S
C1779 C1780 1.334 . S
C1780 H1751 0.950 . S
C1780 C1779 1.334 . S
C1780 C1781 1.287 . S
C1781 C1780 1.287 . S
C1781 C1782 1.524 1_655 S
C1781 H1784 0.999 . S
C1782 H1752 0.950 . S
C1782 C1781 1.524 1_455 S
C1782 C1783 1.415 . S
C1783 H1753 0.950 . S
C1783 C1778 1.363 . S
C1783 C1782 1.415 . S
H1784 C1781 0.999 . S
H1785 C1766 0.913 . S
H1786 C1804 0.951 . S
H1787 C1806 0.951 . S
H1788 C1808 0.950 1_545 S
H1789 C1809 0.950 . S
H1790 C1811 0.950 . S
H1791 C1814 0.950 . S
H1792 C1815 0.950 . S
H1793 C1817 0.950 . S
H1794 C1818 0.954 . S
H1795 C1819 0.951 . S
H1796 C1821 0.951 . S
H1797 C1823 0.950 . S
H1798 C1824 0.950 . S
H1799 C1826 0.950 . S
H1800 C1829 0.950 . S
H1801 C1830 0.950 . S
H1802 C1832 0.950 . S
H1803 C1833 0.950 . S
C1804 H1786 0.951 . S
C1804 C1805 1.366 . S
C1804 C1806 1.388 . S
C1805 C1804 1.366 . S
C1805 C1809 1.385 . S
C1806 H1787 0.951 . S
C1806 C1804 1.388 . S
C1806 C1807 1.366 . S
C1807 C1806 1.366 . S
C1807 C1808 1.414 . S
C1807 C1810 1.499 1_565 S
C1808 H1788 0.950 1_565 S
C1808 C1807 1.414 . S
C1808 C1809 1.374 . S
C1809 H1789 0.950 . S
C1809 C1805 1.385 . S
C1809 C1808 1.374 . S
C1810 C1807 1.499 1_545 S
C1810 C1811 1.373 . S
C1810 C1812 1.389 . S
C1811 H1790 0.950 . S
C1811 C1810 1.373 . S
C1811 C1827 1.377 . S
C1812 C1810 1.389 . S
C1812 C1813 1.524 . S
C1812 C1826 1.377 . S
C1813 C1812 1.524 . S
C1813 C1814 1.397 . S
C1813 C1818 1.370 . S
C1814 H1791 0.950 . S
C1814 C1813 1.397 . S
C1814 C1815 1.334 1_545 S
C1815 H1792 0.950 . S
C1815 C1814 1.334 1_565 S
C1815 C1816 1.287 . S
C1816 C1815 1.287 . S
C1816 C1817 1.524 . S
C1816 H1835 0.913 . S
C1817 H1793 0.950 . S
C1817 C1816 1.524 . S
C1817 C1818 1.404 1_565 S
C1818 H1794 0.954 . S
C1818 C1813 1.370 . S
C1818 C1817 1.404 1_545 S
C1819 H1795 0.951 . S
C1819 C1820 1.366 . S
C1819 C1821 1.388 . S
C1820 C1819 1.366 . S
C1820 C1824 1.385 . S
C1821 H1796 0.951 . S
C1821 C1819 1.388 . S
C1821 C1822 1.366 . S
C1822 C1821 1.366 . S
C1822 C1823 1.414 . S
C1822 C1825 1.499 . S
C1823 H1797 0.950 . S
C1823 C1822 1.414 . S
C1823 C1824 1.374 . S
C1824 H1798 0.950 . S
C1824 C1820 1.385 . S
C1824 C1823 1.374 . S
C1825 C1822 1.499 . S
C1825 C1826 1.373 . S
C1825 C1827 1.389 . S
C1826 H1799 0.950 . S
C1826 C1812 1.377 . S
C1826 C1825 1.373 . S
C1827 C1811 1.377 . S
C1827 C1825 1.389 . S
C1827 C1828 1.524 . S
C1828 C1827 1.524 . S
C1828 C1829 1.397 . S
C1828 C1833 1.363 . S
C1829 H1800 0.950 . S
C1829 C1828 1.397 . S
C1829 C1830 1.334 . S
C1830 H1801 0.950 . S
C1830 C1829 1.334 . S
C1830 C1831 1.287 . S
C1831 C1830 1.287 . S
C1831 C1832 1.524 . S
C1831 H1834 0.999 . S
C1832 H1802 0.950 . S
C1832 C1831 1.524 . S
C1832 C1833 1.415 . S
C1833 H1803 0.950 . S
C1833 C1828 1.363 . S
C1833 C1832 1.415 . S
H1834 C1831 0.999 . S
H1835 C1816 0.913 . S
C655 C446 1.714 . S
C670 C22 1.714 . S
C705 C91 1.678 . S
C720 C515 1.678 . S
C755 C128 1.714 . S
C770 C552 1.714 . S
C805 C181 1.714 . S
C820 C605 1.714 . S
C855 C356 1.678 . S
C870 C250 1.678 . S
C905 C287 1.715 . S
C920 C393 1.714 . S
C955 C516 1.383 . S
C970 C29 1.374 . S
C1005 C92 1.383 . S
C1020 C559 1.375 . S
C1055 C612 1.265 . S
C1070 C135 1.265 . S
C1105 C188 1.375 . S
C1120 C357 1.383 . S
C1155 C400 1.375 . S
C1170 C251 1.383 . S
C1205 C453 1.265 . S
C1220 C294 1.264 . S
C1255 C38 2.274 . S
C1270 C304 2.260 . S
C1305 C75 2.427 . S
C1320 C39 2.427 . S
C1355 C82 2.295 . S
C1370 C144 2.357 . S
C1405 C197 2.274 . S
C1420 C145 2.261 . S
C1455 C234 2.427 . S
C1470 C198 2.427 . S
C1505 C303 2.357 . S
C1520 C241 2.295 . S
C1555 C340 2.427 . S
C1570 C410 2.428 . S
C1605 C409 2.275 . S
C1620 C463 2.260 . S
C1655 C462 2.357 . S
C1670 C506 2.295 . S
C1705 C499 2.428 . S
C1720 C569 2.427 . S
C1755 C568 2.274 . S
C1770 C622 2.261 . S
C1805 C347 2.295 . S
C1820 C621 2.357 . S
