# Generated by pormake.
# Topology ech, (8)-cn, num edge types: 1
# Building blocks:
#     Node 0, Type 0, BuildingBlock: TAGTUT_clean_sbu_1, # of connection points: 8
#     Node 1, Type 0, BuildingBlock: TAGTUT_clean_sbu_1, # of connection points: 8
#     Node 2, Type 0, BuildingBlock: TAGTUT_clean_sbu_1, # of connection points: 8
#     Node 3, Type 0, BuildingBlock: TAGTUT_clean_sbu_1, # of connection points: 8
#     Node 4, Type 0, BuildingBlock: TAGTUT_clean_sbu_1, # of connection points: 8
#     Node 5, Type 0, BuildingBlock: TAGTUT_clean_sbu_1, # of connection points: 8
#     Node 6, Type 0, BuildingBlock: TAGTUT_clean_sbu_1, # of connection points: 8
#     Node 7, Type 0, BuildingBlock: TAGTUT_clean_sbu_1, # of connection points: 8
#     Node 8, Type 0, BuildingBlock: TAGTUT_clean_sbu_1, # of connection points: 8
#     Node 9, Type 0, BuildingBlock: TAGTUT_clean_sbu_1, # of connection points: 8
#     Node 10, Type 0, BuildingBlock: TAGTUT_clean_sbu_1, # of connection points: 8
#     Node 11, Type 0, BuildingBlock: TAGTUT_clean_sbu_1, # of connection points: 8
#     Node 12, Type 0, BuildingBlock: TAGTUT_clean_sbu_1, # of connection points: 8
#     Node 13, Type 0, BuildingBlock: TAGTUT_clean_sbu_1, # of connection points: 8
#     Node 14, Type 0, BuildingBlock: TAGTUT_clean_sbu_1, # of connection points: 8
#     Node 15, Type 0, BuildingBlock: TAGTUT_clean_sbu_1, # of connection points: 8
#     Node 16, Type 0, BuildingBlock: TAGTUT_clean_sbu_1, # of connection points: 8
#     Node 17, Type 0, BuildingBlock: TAGTUT_clean_sbu_1, # of connection points: 8
#     Node 18, Type 0, BuildingBlock: TAGTUT_clean_sbu_1, # of connection points: 8
#     Node 19, Type 0, BuildingBlock: TAGTUT_clean_sbu_1, # of connection points: 8
#     Node 20, Type 0, BuildingBlock: TAGTUT_clean_sbu_1, # of connection points: 8
#     Node 21, Type 0, BuildingBlock: TAGTUT_clean_sbu_1, # of connection points: 8
#     Node 22, Type 0, BuildingBlock: TAGTUT_clean_sbu_1, # of connection points: 8
#     Node 23, Type 0, BuildingBlock: TAGTUT_clean_sbu_1, # of connection points: 8
#     Edge 24, Type (0, 0), BuildingBlock: CIFDUS_clean_linker_0, # of connection points: 2
#     Edge 25, Type (0, 0), BuildingBlock: CIFDUS_clean_linker_0, # of connection points: 2
#     Edge 26, Type (0, 0), BuildingBlock: CIFDUS_clean_linker_0, # of connection points: 2
#     Edge 27, Type (0, 0), BuildingBlock: CIFDUS_clean_linker_0, # of connection points: 2
#     Edge 28, Type (0, 0), BuildingBlock: CIFDUS_clean_linker_0, # of connection points: 2
#     Edge 29, Type (0, 0), BuildingBlock: CIFDUS_clean_linker_0, # of connection points: 2
#     Edge 30, Type (0, 0), BuildingBlock: CIFDUS_clean_linker_0, # of connection points: 2
#     Edge 31, Type (0, 0), BuildingBlock: CIFDUS_clean_linker_0, # of connection points: 2
#     Edge 32, Type (0, 0), BuildingBlock: CIFDUS_clean_linker_0, # of connection points: 2
#     Edge 33, Type (0, 0), BuildingBlock: CIFDUS_clean_linker_0, # of connection points: 2
#     Edge 34, Type (0, 0), BuildingBlock: CIFDUS_clean_linker_0, # of connection points: 2
#     Edge 35, Type (0, 0), BuildingBlock: CIFDUS_clean_linker_0, # of connection points: 2
#     Edge 36, Type (0, 0), BuildingBlock: CIFDUS_clean_linker_0, # of connection points: 2
#     Edge 37, Type (0, 0), BuildingBlock: CIFDUS_clean_linker_0, # of connection points: 2
#     Edge 38, Type (0, 0), BuildingBlock: CIFDUS_clean_linker_0, # of connection points: 2
#     Edge 39, Type (0, 0), BuildingBlock: CIFDUS_clean_linker_0, # of connection points: 2
#     Edge 40, Type (0, 0), BuildingBlock: CIFDUS_clean_linker_0, # of connection points: 2
#     Edge 41, Type (0, 0), BuildingBlock: CIFDUS_clean_linker_0, # of connection points: 2
#     Edge 42, Type (0, 0), BuildingBlock: CIFDUS_clean_linker_0, # of connection points: 2
#     Edge 43, Type (0, 0), BuildingBlock: CIFDUS_clean_linker_0, # of connection points: 2
#     Edge 44, Type (0, 0), BuildingBlock: CIFDUS_clean_linker_0, # of connection points: 2
#     Edge 45, Type (0, 0), BuildingBlock: CIFDUS_clean_linker_0, # of connection points: 2
#     Edge 46, Type (0, 0), BuildingBlock: CIFDUS_clean_linker_0, # of connection points: 2
#     Edge 47, Type (0, 0), BuildingBlock: CIFDUS_clean_linker_0, # of connection points: 2
#     Edge 48, Type (0, 0), BuildingBlock: CIFDUS_clean_linker_0, # of connection points: 2
#     Edge 49, Type (0, 0), BuildingBlock: CIFDUS_clean_linker_0, # of connection points: 2
#     Edge 50, Type (0, 0), BuildingBlock: CIFDUS_clean_linker_0, # of connection points: 2
#     Edge 51, Type (0, 0), BuildingBlock: CIFDUS_clean_linker_0, # of connection points: 2
#     Edge 52, Type (0, 0), BuildingBlock: CIFDUS_clean_linker_0, # of connection points: 2
#     Edge 53, Type (0, 0), BuildingBlock: CIFDUS_clean_linker_0, # of connection points: 2
#     Edge 54, Type (0, 0), BuildingBlock: CIFDUS_clean_linker_0, # of connection points: 2
#     Edge 55, Type (0, 0), BuildingBlock: CIFDUS_clean_linker_0, # of connection points: 2
#     Edge 56, Type (0, 0), BuildingBlock: CIFDUS_clean_linker_0, # of connection points: 2
#     Edge 57, Type (0, 0), BuildingBlock: CIFDUS_clean_linker_0, # of connection points: 2
#     Edge 58, Type (0, 0), BuildingBlock: CIFDUS_clean_linker_0, # of connection points: 2
#     Edge 59, Type (0, 0), BuildingBlock: CIFDUS_clean_linker_0, # of connection points: 2
#     Edge 60, Type (0, 0), BuildingBlock: CIFDUS_clean_linker_0, # of connection points: 2
#     Edge 61, Type (0, 0), BuildingBlock: CIFDUS_clean_linker_0, # of connection points: 2
#     Edge 62, Type (0, 0), BuildingBlock: CIFDUS_clean_linker_0, # of connection points: 2
#     Edge 63, Type (0, 0), BuildingBlock: CIFDUS_clean_linker_0, # of connection points: 2
#     Edge 64, Type (0, 0), BuildingBlock: CIFDUS_clean_linker_0, # of connection points: 2
#     Edge 65, Type (0, 0), BuildingBlock: CIFDUS_clean_linker_0, # of connection points: 2
#     Edge 66, Type (0, 0), BuildingBlock: CIFDUS_clean_linker_0, # of connection points: 2
#     Edge 67, Type (0, 0), BuildingBlock: CIFDUS_clean_linker_0, # of connection points: 2
#     Edge 68, Type (0, 0), BuildingBlock: CIFDUS_clean_linker_0, # of connection points: 2
#     Edge 69, Type (0, 0), BuildingBlock: CIFDUS_clean_linker_0, # of connection points: 2
#     Edge 70, Type (0, 0), BuildingBlock: CIFDUS_clean_linker_0, # of connection points: 2
#     Edge 71, Type (0, 0), BuildingBlock: CIFDUS_clean_linker_0, # of connection points: 2
#     Edge 72, Type (0, 0), BuildingBlock: CIFDUS_clean_linker_0, # of connection points: 2
#     Edge 73, Type (0, 0), BuildingBlock: CIFDUS_clean_linker_0, # of connection points: 2
#     Edge 74, Type (0, 0), BuildingBlock: CIFDUS_clean_linker_0, # of connection points: 2
#     Edge 75, Type (0, 0), BuildingBlock: CIFDUS_clean_linker_0, # of connection points: 2
#     Edge 76, Type (0, 0), BuildingBlock: CIFDUS_clean_linker_0, # of connection points: 2
#     Edge 77, Type (0, 0), BuildingBlock: CIFDUS_clean_linker_0, # of connection points: 2
#     Edge 78, Type (0, 0), BuildingBlock: CIFDUS_clean_linker_0, # of connection points: 2
#     Edge 79, Type (0, 0), BuildingBlock: CIFDUS_clean_linker_0, # of connection points: 2
#     Edge 80, Type (0, 0), BuildingBlock: CIFDUS_clean_linker_0, # of connection points: 2
#     Edge 81, Type (0, 0), BuildingBlock: CIFDUS_clean_linker_0, # of connection points: 2
#     Edge 82, Type (0, 0), BuildingBlock: CIFDUS_clean_linker_0, # of connection points: 2
#     Edge 83, Type (0, 0), BuildingBlock: CIFDUS_clean_linker_0, # of connection points: 2
#     Edge 84, Type (0, 0), BuildingBlock: CIFDUS_clean_linker_0, # of connection points: 2
#     Edge 85, Type (0, 0), BuildingBlock: CIFDUS_clean_linker_0, # of connection points: 2
#     Edge 86, Type (0, 0), BuildingBlock: CIFDUS_clean_linker_0, # of connection points: 2
#     Edge 87, Type (0, 0), BuildingBlock: CIFDUS_clean_linker_0, # of connection points: 2
#     Edge 88, Type (0, 0), BuildingBlock: CIFDUS_clean_linker_0, # of connection points: 2
#     Edge 89, Type (0, 0), BuildingBlock: CIFDUS_clean_linker_0, # of connection points: 2
#     Edge 90, Type (0, 0), BuildingBlock: CIFDUS_clean_linker_0, # of connection points: 2
#     Edge 91, Type (0, 0), BuildingBlock: CIFDUS_clean_linker_0, # of connection points: 2
#     Edge 92, Type (0, 0), BuildingBlock: CIFDUS_clean_linker_0, # of connection points: 2
#     Edge 93, Type (0, 0), BuildingBlock: CIFDUS_clean_linker_0, # of connection points: 2
#     Edge 94, Type (0, 0), BuildingBlock: CIFDUS_clean_linker_0, # of connection points: 2
#     Edge 95, Type (0, 0), BuildingBlock: CIFDUS_clean_linker_0, # of connection points: 2
#     Edge 96, Type (0, 0), BuildingBlock: CIFDUS_clean_linker_0, # of connection points: 2
#     Edge 97, Type (0, 0), BuildingBlock: CIFDUS_clean_linker_0, # of connection points: 2
#     Edge 98, Type (0, 0), BuildingBlock: CIFDUS_clean_linker_0, # of connection points: 2
#     Edge 99, Type (0, 0), BuildingBlock: CIFDUS_clean_linker_0, # of connection points: 2
#     Edge 100, Type (0, 0), BuildingBlock: CIFDUS_clean_linker_0, # of connection points: 2
#     Edge 101, Type (0, 0), BuildingBlock: CIFDUS_clean_linker_0, # of connection points: 2
#     Edge 102, Type (0, 0), BuildingBlock: CIFDUS_clean_linker_0, # of connection points: 2
#     Edge 103, Type (0, 0), BuildingBlock: CIFDUS_clean_linker_0, # of connection points: 2
#     Edge 104, Type (0, 0), BuildingBlock: CIFDUS_clean_linker_0, # of connection points: 2
#     Edge 105, Type (0, 0), BuildingBlock: CIFDUS_clean_linker_0, # of connection points: 2
#     Edge 106, Type (0, 0), BuildingBlock: CIFDUS_clean_linker_0, # of connection points: 2
#     Edge 107, Type (0, 0), BuildingBlock: CIFDUS_clean_linker_0, # of connection points: 2
#     Edge 108, Type (0, 0), BuildingBlock: CIFDUS_clean_linker_0, # of connection points: 2
#     Edge 109, Type (0, 0), BuildingBlock: CIFDUS_clean_linker_0, # of connection points: 2
#     Edge 110, Type (0, 0), BuildingBlock: CIFDUS_clean_linker_0, # of connection points: 2
#     Edge 111, Type (0, 0), BuildingBlock: CIFDUS_clean_linker_0, # of connection points: 2
#     Edge 112, Type (0, 0), BuildingBlock: CIFDUS_clean_linker_0, # of connection points: 2
#     Edge 113, Type (0, 0), BuildingBlock: CIFDUS_clean_linker_0, # of connection points: 2
#     Edge 114, Type (0, 0), BuildingBlock: CIFDUS_clean_linker_0, # of connection points: 2
#     Edge 115, Type (0, 0), BuildingBlock: CIFDUS_clean_linker_0, # of connection points: 2
#     Edge 116, Type (0, 0), BuildingBlock: CIFDUS_clean_linker_0, # of connection points: 2
#     Edge 117, Type (0, 0), BuildingBlock: CIFDUS_clean_linker_0, # of connection points: 2
#     Edge 118, Type (0, 0), BuildingBlock: CIFDUS_clean_linker_0, # of connection points: 2
#     Edge 119, Type (0, 0), BuildingBlock: CIFDUS_clean_linker_0, # of connection points: 2
# Relax obj value: 0.226
# Max RMSD: 0.223
# Mean RMSD: 0.223
data_MOF--net-ech--node1-TAGTUT_clean_sbu_1--edge1-CIFDUS_clean_linker_0
_symmetry_space_group_name_H-M    P1
_symmetry_Int_Tables_number       1
_symmetry_cell_setting            triclinic
loop_
_symmetry_equiv_pos_as_xyz
'x, y, z'
_cell_length_a     42.18048
_cell_length_b     42.177605
_cell_length_c     42.147137
_cell_angle_alpha  90.101952
_cell_angle_beta   90.062318
_cell_angle_gamma 90.111588
loop_
_atom_site_label
_atom_site_type_symbol
_atom_site_fract_x
_atom_site_fract_y
_atom_site_fract_z
_atom_type_partial_charge
C0 C -0.00052 0.32517 0.48614 0.0
C1 C 0.0688 0.27135 0.54124 0.0
C2 C 0.16061 0.31637 0.47065 0.0
Mg3 Mg 0.03553 0.26235 0.47721 0.0
O4 O 0.0622 0.29274 0.45805 0.0
Mg5 Mg 0.08053 0.32672 0.48518 0.0
Mg6 Mg 0.10036 0.27757 0.43654 0.0
O7 O 0.13851 0.25896 0.41638 0.0
Mg8 Mg 0.17526 0.2796 0.40555 0.0
Mg9 Mg 0.11733 0.22859 0.3871 0.0
C10 C 0.04763 0.22696 0.41178 0.0
C11 C 0.11318 0.20634 0.46118 0.0
O12 O 0.0261 0.33971 0.49118 0.0
O13 O 0.99785 0.29529 0.48105 0.0
O14 O 0.07917 0.29702 0.52932 0.0
O15 O 0.05282 0.25169 0.52452 0.0
O16 O 0.03257 0.22796 0.43828 0.0
O17 O 0.06984 0.24668 0.40517 0.0
C18 C 0.08481 0.34953 0.41262 0.0
O19 O 0.09349 0.32191 0.40291 0.0
O20 O 0.08089 0.35526 0.44195 0.0
O21 O 0.16573 0.20938 0.37242 0.0
O22 O 0.20483 0.23971 0.39221 0.0
O23 O 0.12141 0.26659 0.34624 0.0
C24 C 0.19512 0.21506 0.37723 0.0
O25 O 0.15809 0.30143 0.36369 0.0
O26 O 0.18036 0.30739 0.44918 0.0
C27 C 0.13775 0.29226 0.34307 0.0
O28 O 0.13107 0.30838 0.46948 0.0
O29 O 0.10614 0.23495 0.46856 0.0
O30 O 0.11696 0.19749 0.43216 0.0
C31 C 0.50115 0.67366 0.97861 0.0
C32 C 0.44396 0.72709 0.04449 0.0
C33 C 0.33983 0.68519 0.97866 0.0
Mg34 Mg 0.46719 0.73811 0.97586 0.0
O35 O 0.43574 0.71057 0.96056 0.0
Mg36 Mg 0.42051 0.67544 0.98805 0.0
Mg37 Mg 0.39603 0.72628 0.94181 0.0
O38 O 0.35633 0.74414 0.92395 0.0
Mg39 Mg 0.32076 0.72103 0.91386 0.0
Mg40 Mg 0.37457 0.77517 0.89328 0.0
C41 C 0.44704 0.77666 0.91367 0.0
C42 C 0.38312 0.79785 0.96693 0.0
O43 O 0.47482 0.66055 0.98746 0.0
O44 O 0.50335 0.70329 0.9725 0.0
O45 O 0.42869 0.70333 0.03355 0.0
O46 O 0.45901 0.74597 0.02613 0.0
O47 O 0.46506 0.77391 0.93819 0.0
O48 O 0.42389 0.75755 0.90825 0.0
C49 C 0.40788 0.65384 0.91583 0.0
O50 O 0.39992 0.68198 0.90721 0.0
O51 O 0.41451 0.64777 0.94454 0.0
O52 O 0.32396 0.79348 0.88292 0.0
O53 O 0.28868 0.75978 0.90433 0.0
O54 O 0.36883 0.73807 0.85166 0.0
C55 C 0.29547 0.78581 0.89018 0.0
O56 O 0.33555 0.70066 0.87 0.0
O57 O 0.31933 0.69276 0.95733 0.0
C58 C 0.35362 0.71176 0.84832 0.0
O59 O 0.36874 0.69517 0.97738 0.0
O60 O 0.39165 0.76959 0.97436 0.0
O61 O 0.3774 0.80594 0.93807 0.0
C62 C 0.49058 0.18375 0.51369 0.0
C63 C 0.56011 0.23628 0.45888 0.0
C64 C 0.65137 0.18771 0.52635 0.0
Mg65 Mg 0.52813 0.24584 0.52384 0.0
O66 O 0.55536 0.21568 0.54211 0.0
Mg67 Mg 0.57143 0.18096 0.5146 0.0
Mg68 Mg 0.59495 0.22918 0.56339 0.0
O69 O 0.63466 0.24503 0.58344 0.0
Mg70 Mg 0.66995 0.22089 0.59286 0.0
Mg71 Mg 0.61506 0.27407 0.61525 0.0
C72 C 0.54529 0.2803 0.58951 0.0
C73 C 0.60986 0.30211 0.54379 0.0
O74 O 0.51704 0.16932 0.50819 0.0
O75 O 0.48932 0.2133 0.52063 0.0
O76 O 0.5706 0.21072 0.47079 0.0
O77 O 0.5442 0.25589 0.47567 0.0
O78 O 0.52934 0.27973 0.56341 0.0
O79 O 0.56639 0.25946 0.59617 0.0
C80 C 0.57692 0.1572 0.58674 0.0
O81 O 0.58742 0.18434 0.59595 0.0
O82 O 0.57119 0.15169 0.55767 0.0
O83 O 0.66502 0.28974 0.63045 0.0
O84 O 0.70221 0.2584 0.60873 0.0
O85 O 0.61813 0.2343 0.6537 0.0
C86 C 0.69405 0.28262 0.62533 0.0
O87 O 0.65248 0.19818 0.63468 0.0
O88 O 0.67266 0.19426 0.5474 0.0
C89 C 0.63333 0.20799 0.65611 0.0
O90 O 0.62277 0.1979 0.52909 0.0
O91 O 0.60223 0.27433 0.53355 0.0
O92 O 0.61457 0.30798 0.57336 0.0
C93 C 0.99655 0.83271 0.01629 0.0
C94 C 0.9235 0.7881 0.95818 0.0
C95 C 0.83878 0.82563 0.04495 0.0
Mg96 Mg 0.9598 0.76944 0.01881 0.0
O97 O 0.93441 0.79601 0.04309 0.0
Mg98 Mg 0.91599 0.83446 0.02245 0.0
Mg99 Mg 0.8981 0.77809 0.06628 0.0
O100 O 0.86151 0.75894 0.08838 0.0
Mg101 Mg 0.83027 0.78296 0.1067 0.0
Mg102 Mg 0.88301 0.72538 0.11391 0.0
C103 C 0.95091 0.72498 0.08001 0.0
C104 C 0.88375 0.7076 0.03854 0.0
O105 O 0.97025 0.84835 0.01467 0.0
O106 O 0.99768 0.80248 0.01813 0.0
O107 O 0.91375 0.81218 0.97358 0.0
O108 O 0.93954 0.76629 0.97177 0.0
O109 O 0.96316 0.73052 0.05262 0.0
O110 O 0.93035 0.74366 0.09274 0.0
C111 C 0.91819 0.84617 0.09764 0.0
O112 O 0.90888 0.81785 0.10385 0.0
O113 O 0.91994 0.85644 0.06941 0.0
O114 O 0.83298 0.70682 0.12829 0.0
O115 O 0.79788 0.74515 0.11634 0.0
O116 O 0.88244 0.75755 0.16023 0.0
C117 C 0.80444 0.71705 0.12567 0.0
O118 O 0.85101 0.79901 0.14949 0.0
O119 O 0.82245 0.81637 0.06889 0.0
C120 C 0.86955 0.78407 0.16805 0.0
O121 O 0.86625 0.81375 0.03873 0.0
O122 O 0.88898 0.73675 0.03104 0.0
O123 O 0.88139 0.69835 0.06744 0.0
C124 C 0.48487 0.0027 0.3273 0.0
C125 C 0.54116 0.0664 0.27312 0.0
C126 C 0.47704 0.16405 0.3161 0.0
Mg127 Mg 0.47424 0.03961 0.26513 0.0
O128 O 0.45744 0.0667 0.29604 0.0
Mg129 Mg 0.48699 0.0835 0.32921 0.0
Mg130 Mg 0.43722 0.1055 0.28019 0.0
O131 O 0.41825 0.1443 0.2619 0.0
Mg132 Mg 0.4103 0.18034 0.28491 0.0
Mg133 Mg 0.38439 0.12457 0.23537 0.0
C134 C 0.40735 0.05347 0.2326 0.0
C135 C 0.45469 0.11398 0.20557 0.0
O136 O 0.49075 0.02878 0.34254 0.0
O137 O 0.47841 0.00203 0.29766 0.0
O138 O 0.53099 0.07809 0.29901 0.0
O139 O 0.5223 0.05316 0.25335 0.0
O140 O 0.43369 0.03811 0.23274 0.0
O141 O 0.4017 0.07597 0.25242 0.0
C142 C 0.41559 0.0947 0.35449 0.0
O143 O 0.40617 0.10257 0.32658 0.0
O144 O 0.44432 0.08765 0.36021 0.0
O145 O 0.37184 0.1748 0.2162 0.0
O146 O 0.39616 0.21098 0.24699 0.0
O147 O 0.34802 0.13088 0.27727 0.0
C148 C 0.37982 0.20351 0.22248 0.0
O149 O 0.37086 0.16496 0.3115 0.0
O150 O 0.45573 0.18429 0.30833 0.0
C151 C 0.3485 0.14602 0.30383 0.0
O152 O 0.47417 0.13443 0.30888 0.0
O153 O 0.46555 0.10805 0.23352 0.0
O154 O 0.42519 0.11972 0.20031 0.0
C155 C 0.01116 0.99458 0.83237 0.0
C156 C 0.95672 0.92412 0.78001 0.0
C157 C 0.03234 0.83299 0.82045 0.0
Mg158 Mg 0.02047 0.95852 0.76933 0.0
O159 O 0.04038 0.93225 0.79938 0.0
Mg160 Mg 0.01423 0.91313 0.83368 0.0
Mg161 Mg 0.06335 0.8952 0.78354 0.0
O162 O 0.08521 0.85827 0.76395 0.0
Mg163 Mg 0.09851 0.82228 0.78389 0.0
Mg164 Mg 0.11284 0.88081 0.73317 0.0
C165 C 0.08577 0.94939 0.73301 0.0
C166 C 0.03783 0.88081 0.71249 0.0
O167 O 0.00699 0.96792 0.84713 0.0
O168 O 0.01607 0.99603 0.80245 0.0
O169 O 0.96896 0.91335 0.80536 0.0
O170 O 0.97324 0.9401 0.76019 0.0
O171 O 0.05877 0.96349 0.73419 0.0
O172 O 0.09303 0.92717 0.7524 0.0
C173 C 0.08708 0.91044 0.85607 0.0
O174 O 0.09714 0.90301 0.82816 0.0
O175 O 0.05771 0.91369 0.86159 0.0
O176 O 0.12995 0.83334 0.71309 0.0
O177 O 0.11285 0.79345 0.74382 0.0
O178 O 0.15465 0.87886 0.77062 0.0
C179 C 0.12682 0.80378 0.71891 0.0
O180 O 0.13919 0.84183 0.80586 0.0
O181 O 0.05507 0.8152 0.81065 0.0
C182 C 0.15873 0.86304 0.79647 0.0
O183 O 0.03172 0.86299 0.81433 0.0
O184 O 0.03097 0.88789 0.74124 0.0
O185 O 0.06674 0.87853 0.70282 0.0
C186 C 0.98318 0.5018 0.67167 0.0
C187 C 0.04252 0.43615 0.72529 0.0
C188 C 0.9796 0.33949 0.68129 0.0
Mg189 Mg 0.97616 0.4646 0.73425 0.0
O190 O 0.95901 0.4363 0.7042 0.0
Mg191 Mg 0.98749 0.4206 0.67001 0.0
Mg192 Mg 0.93974 0.39638 0.71892 0.0
O193 O 0.92177 0.35659 0.73627 0.0
Mg194 Mg 0.91431 0.31988 0.71414 0.0
Mg195 Mg 0.88994 0.3744 0.76587 0.0
C196 C 0.91148 0.44643 0.76968 0.0
C197 C 0.96294 0.38315 0.79073 0.0
O198 O 0.99007 0.47559 0.65716 0.0
O199 O 0.97706 0.50288 0.7014 0.0
O200 O 0.03117 0.42494 0.69971 0.0
O201 O 0.02495 0.45122 0.74486 0.0
O202 O 0.93701 0.46314 0.76829 0.0
O203 O 0.90551 0.42411 0.74967 0.0
C204 C 0.9159 0.40971 0.64634 0.0
O205 O 0.90666 0.40083 0.67402 0.0
O206 O 0.94468 0.41674 0.64097 0.0
O207 O 0.879 0.32388 0.78412 0.0
O208 O 0.90303 0.28838 0.75262 0.0
O209 O 0.85081 0.3678 0.72559 0.0
C210 C 0.88719 0.2954 0.77755 0.0
O211 O 0.87258 0.33403 0.69029 0.0
O212 O 0.95929 0.31824 0.68934 0.0
C213 C 0.8501 0.35227 0.69914 0.0
O214 O 0.97555 0.36895 0.68837 0.0
O215 O 0.971 0.3917 0.76266 0.0
O216 O 0.93389 0.3774 0.79829 0.0
C217 C 0.52754 0.49641 0.17544 0.0
C218 C 0.46501 0.55747 0.23011 0.0
C219 C 0.53438 0.65755 0.19014 0.0
Mg220 Mg 0.53187 0.52971 0.2403 0.0
O221 O 0.54889 0.56041 0.21306 0.0
Mg222 Mg 0.52208 0.57753 0.17834 0.0
Mg223 Mg 0.56973 0.59889 0.22949 0.0
O224 O 0.5895 0.63738 0.24837 0.0
Mg225 Mg 0.59964 0.67396 0.22696 0.0
Mg226 Mg 0.62054 0.61663 0.27751 0.0
C227 C 0.59534 0.5467 0.27827 0.0
C228 C 0.5483 0.60896 0.30306 0.0
O229 O 0.52003 0.52328 0.16262 0.0
O230 O 0.5332 0.49362 0.20514 0.0
O231 O 0.47676 0.57184 0.20631 0.0
O232 O 0.48241 0.54112 0.24879 0.0
O233 O 0.56971 0.53021 0.27593 0.0
O234 O 0.6023 0.56894 0.25875 0.0
C235 C 0.59449 0.5854 0.1567 0.0
O236 O 0.60353 0.59369 0.18469 0.0
O237 O 0.56542 0.58108 0.1504 0.0
O238 O 0.63417 0.66587 0.29776 0.0
O239 O 0.61186 0.70358 0.26744 0.0
O240 O 0.66039 0.62216 0.23931 0.0
C241 C 0.62747 0.69493 0.2921 0.0
O242 O 0.64226 0.65853 0.20484 0.0
O243 O 0.55586 0.67764 0.19865 0.0
C244 C 0.66337 0.63877 0.21392 0.0
O245 O 0.53523 0.62839 0.19929 0.0
O246 O 0.53889 0.60316 0.27453 0.0
O247 O 0.57763 0.61348 0.30999 0.0
C248 C 0.32029 0.48174 0.99919 0.0
C249 C 0.27065 0.5403 0.06629 0.0
C250 C 0.31795 0.47141 0.16066 0.0
Mg251 Mg 0.25874 0.47418 0.03759 0.0
O252 O 0.28949 0.45593 0.06427 0.0
Mg253 Mg 0.32458 0.48341 0.08 0.0
Mg254 Mg 0.27526 0.43632 0.10402 0.0
O255 O 0.25792 0.41813 0.14377 0.0
Mg256 Mg 0.28087 0.40757 0.17915 0.0
Mg257 Mg 0.22532 0.3888 0.12591 0.0
C258 C 0.22241 0.40984 0.05437 0.0
C259 C 0.20472 0.46287 0.11798 0.0
O260 O 0.33566 0.48769 0.02513 0.0
O261 O 0.29053 0.47578 0.9987 0.0
O262 O 0.296 0.52839 0.07746 0.0
O263 O 0.25029 0.52307 0.05175 0.0
O264 O 0.22371 0.43557 0.03802 0.0
O265 O 0.24245 0.40374 0.07647 0.0
C266 C 0.34651 0.41058 0.0872 0.0
O267 O 0.31908 0.40175 0.09736 0.0
O268 O 0.35234 0.43952 0.08119 0.0
O269 O 0.20758 0.37846 0.17682 0.0
O270 O 0.24253 0.39863 0.2117 0.0
O271 O 0.26126 0.3464 0.13041 0.0
C272 C 0.216 0.38523 0.20526 0.0
O273 O 0.29978 0.36381 0.1631 0.0
O274 O 0.31005 0.45026 0.18115 0.0
C275 C 0.28786 0.3426 0.14491 0.0
O276 O 0.30787 0.47016 0.13178 0.0
O277 O 0.23323 0.46952 0.10982 0.0
O278 O 0.19568 0.43432 0.12376 0.0
C279 C 0.83372 0.01834 0.99093 0.0
C280 C 0.77871 0.95799 0.93027 0.0
C281 C 0.81827 0.0321 0.82983 0.0
Mg282 Mg 0.76863 0.025 0.95823 0.0
O283 O 0.79568 0.04185 0.92758 0.0
Mg284 Mg 0.83015 0.0151 0.9094 0.0
Mg285 Mg 0.7782 0.06301 0.89008 0.0
O286 O 0.75831 0.08356 0.85271 0.0
Mg287 Mg 0.78025 0.09673 0.81789 0.0
Mg288 Mg 0.7286 0.1137 0.87394 0.0
C289 C 0.73009 0.08859 0.94427 0.0
C290 C 0.70493 0.04046 0.88105 0.0
O291 O 0.84655 0.01184 0.96373 0.0
O292 O 0.80416 0.02445 0.99384 0.0
O293 O 0.80251 0.96903 0.91521 0.0
O294 O 0.7599 0.97612 0.94569 0.0
O295 O 0.73296 0.06282 0.96033 0.0
O296 O 0.74867 0.0954 0.92117 0.0
C297 C 0.85101 0.0881 0.90249 0.0
O298 O 0.82271 0.09705 0.89545 0.0
O299 O 0.85758 0.05897 0.90596 0.0
O300 O 0.70764 0.12636 0.8241 0.0
O301 O 0.74118 0.10708 0.78747 0.0
O302 O 0.76554 0.15548 0.86971 0.0
C303 C 0.7149 0.12005 0.79518 0.0
O304 O 0.80182 0.13857 0.83475 0.0
O305 O 0.80899 0.05523 0.81245 0.0
C306 C 0.79168 0.15913 0.85447 0.0
O307 O 0.80866 0.02895 0.85882 0.0
O308 O 0.73363 0.03142 0.88608 0.0
O309 O 0.69751 0.0697 0.87694 0.0
C310 C 0.66102 0.98049 0.49535 0.0
C311 C 0.71221 0.0431 0.43081 0.0
C312 C 0.67292 0.95493 0.33761 0.0
Mg313 Mg 0.7261 0.97937 0.46297 0.0
O314 O 0.70154 0.95832 0.43293 0.0
Mg315 Mg 0.66419 0.98037 0.41443 0.0
Mg316 Mg 0.71975 0.93496 0.39688 0.0
O317 O 0.73963 0.91199 0.36027 0.0
Mg318 Mg 0.71392 0.89067 0.33239 0.0
Mg319 Mg 0.77288 0.88695 0.38347 0.0
C320 C 0.77209 0.92066 0.4521 0.0
C321 C 0.7887 0.96318 0.38013 0.0
O322 O 0.64793 0.98562 0.46806 0.0
O323 O 0.69098 0.97738 0.49865 0.0
O324 O 0.68874 0.02966 0.41686 0.0
O325 O 0.73168 0.02735 0.44776 0.0
O326 O 0.76526 0.9467 0.46631 0.0
O327 O 0.75437 0.90909 0.42997 0.0
C328 C 0.64956 0.9057 0.4135 0.0
O329 O 0.67836 0.89864 0.40641 0.0
O330 O 0.64009 0.93415 0.41551 0.0
O331 O 0.79032 0.86722 0.33482 0.0
O332 O 0.74919 0.87084 0.30094 0.0
O333 O 0.74059 0.84064 0.38635 0.0
C334 C 0.77777 0.86269 0.30742 0.0
O335 O 0.6966 0.85207 0.3589 0.0
O336 O 0.68139 0.92948 0.323 0.0
C337 C 0.71269 0.8333 0.37625 0.0
O338 O 0.68543 0.9633 0.36439 0.0
O339 O 0.75993 0.96951 0.38762 0.0
O340 O 0.79921 0.93457 0.37803 0.0
C341 C 0.17875 0.52001 0.49646 0.0
C342 C 0.23183 0.46011 0.55966 0.0
C343 C 0.18719 0.52226 0.65903 0.0
Mg344 Mg 0.24049 0.52782 0.5346 0.0
O345 O 0.21025 0.54391 0.56285 0.0
Mg346 Mg 0.17647 0.51448 0.57762 0.0
Mg347 Mg 0.2249 0.56334 0.60293 0.0
O348 O 0.24209 0.58134 0.64303 0.0
Mg349 Mg 0.21839 0.58832 0.67876 0.0
Mg350 Mg 0.26945 0.61552 0.62541 0.0
C351 C 0.27388 0.59343 0.55365 0.0
C352 C 0.2987 0.54524 0.61314 0.0
O353 O 0.16388 0.51246 0.52229 0.0
O354 O 0.20827 0.527 0.49609 0.0
O355 O 0.20641 0.47072 0.5719 0.0
O356 O 0.25132 0.47865 0.54571 0.0
O357 O 0.27328 0.56776 0.53709 0.0
O358 O 0.25359 0.59919 0.57565 0.0
C359 C 0.15186 0.58587 0.58937 0.0
O360 O 0.17928 0.59501 0.59911 0.0
O361 O 0.14667 0.55713 0.58186 0.0
O362 O 0.28721 0.62684 0.67697 0.0
O363 O 0.25524 0.60167 0.71131 0.0
O364 O 0.22772 0.65224 0.6319 0.0
C365 C 0.27991 0.61834 0.7053 0.0
O366 O 0.19261 0.62854 0.66429 0.0
O367 O 0.19456 0.54294 0.6802 0.0
C368 C 0.20092 0.65157 0.64655 0.0
O369 O 0.19525 0.52585 0.62972 0.0
O370 O 0.27087 0.53485 0.60604 0.0
O371 O 0.30416 0.57446 0.62022 0.0
C372 C 0.7959 0.78424 0.60994 0.0
C373 C 0.85702 0.7131 0.65238 0.0
C374 C 0.94992 0.7802 0.58336 0.0
Mg375 Mg 0.82411 0.72075 0.58681 0.0
O376 O 0.8594 0.74446 0.57737 0.0
Mg377 Mg 0.87626 0.77704 0.60715 0.0
Mg378 Mg 0.89901 0.72748 0.559 0.0
O379 O 0.93827 0.71206 0.53902 0.0
Mg380 Mg 0.96851 0.73933 0.52191 0.0
Mg381 Mg 0.92215 0.67693 0.51167 0.0
C382 C 0.84255 0.68421 0.52308 0.0
C383 C 0.91553 0.65573 0.58482 0.0
O384 O 0.824 0.79346 0.61744 0.0
O385 O 0.79067 0.75784 0.59583 0.0
O386 O 0.87172 0.7398 0.64927 0.0
O387 O 0.83928 0.70161 0.63059 0.0
O388 O 0.82185 0.69152 0.5442 0.0
O389 O 0.8711 0.69509 0.52444 0.0
C390 C 0.88341 0.7981 0.53292 0.0
O391 O 0.89239 0.76986 0.52598 0.0
O392 O 0.87773 0.80683 0.56165 0.0
O393 O 0.97582 0.66237 0.50892 0.0
O394 O 0.00516 0.70482 0.52308 0.0
O395 O 0.92699 0.70603 0.46627 0.0
C396 C 0.00249 0.67521 0.5169 0.0
O397 O 0.95631 0.74936 0.47348 0.0
O398 O 0.96671 0.77522 0.55844 0.0
C399 C 0.9405 0.73087 0.45542 0.0
O400 O 0.92711 0.76139 0.5916 0.0
O401 O 0.9064 0.68354 0.59367 0.0
O402 O 0.9197 0.64916 0.55569 0.0
C403 C 0.70363 0.20945 0.11709 0.0
C404 C 0.64257 0.28288 0.15779 0.0
C405 C 0.55226 0.21843 0.09023 0.0
Mg406 Mg 0.67781 0.27451 0.09355 0.0
O407 O 0.64346 0.25019 0.08163 0.0
Mg408 Mg 0.62418 0.21947 0.11246 0.0
Mg409 Mg 0.60421 0.26811 0.06268 0.0
O410 O 0.56503 0.28393 0.04293 0.0
Mg411 Mg 0.53392 0.25639 0.02711 0.0
Mg412 Mg 0.58083 0.31894 0.01559 0.0
C413 C 0.66075 0.31101 0.02831 0.0
C414 C 0.59169 0.34107 0.08798 0.0
O415 O 0.67511 0.20103 0.12366 0.0
O416 O 0.71013 0.23603 0.10378 0.0
O417 O 0.62844 0.25619 0.15377 0.0
O418 O 0.66109 0.2947 0.13692 0.0
O419 O 0.68027 0.30397 0.05073 0.0
O420 O 0.63246 0.29921 0.02733 0.0
C421 C 0.61513 0.19503 0.03993 0.0
O422 O 0.60841 0.22343 0.03104 0.0
O423 O 0.62082 0.18801 0.069 0.0
O424 O 0.52654 0.33372 0.0145 0.0
O425 O 0.49769 0.29111 0.02922 0.0
O426 O 0.57359 0.29096 0.96993 0.0
C427 C 0.49999 0.32063 0.02266 0.0
O428 O 0.54284 0.24855 0.97699 0.0
O429 O 0.53495 0.22099 0.06517 0.0
C430 C 0.55812 0.26742 0.95879 0.0
O431 O 0.57539 0.23745 0.09605 0.0
O432 O 0.59976 0.31299 0.09678 0.0
O433 O 0.58563 0.34702 0.05912 0.0
C434 C 0.30616 0.72883 0.35343 0.0
C435 C 0.38055 0.78898 0.32815 0.0
C436 C 0.44913 0.72148 0.41021 0.0
Mg437 Mg 0.33694 0.78959 0.38426 0.0
O438 O 0.35969 0.75916 0.40566 0.0
Mg439 Mg 0.38137 0.72632 0.3785 0.0
Mg440 Mg 0.39716 0.77493 0.43046 0.0
O441 O 0.43401 0.78856 0.45539 0.0
Mg442 Mg 0.46026 0.7589 0.47527 0.0
Mg443 Mg 0.41716 0.8251 0.48011 0.0
C444 C 0.34058 0.82306 0.45319 0.0
C445 C 0.4187 0.84599 0.40717 0.0
O446 O 0.33164 0.7129 0.35837 0.0
O447 O 0.30325 0.758 0.36173 0.0
O448 O 0.3857 0.7598 0.33467 0.0
O449 O 0.36699 0.80732 0.3479 0.0
O450 O 0.32769 0.81865 0.42583 0.0
O451 O 0.36611 0.80829 0.46149 0.0
C452 C 0.37951 0.70371 0.45234 0.0
O453 O 0.38669 0.73186 0.4615 0.0
O454 O 0.37631 0.69623 0.42296 0.0
O455 O 0.47187 0.83669 0.48855 0.0
O456 O 0.49832 0.79145 0.47728 0.0
O457 O 0.41591 0.79746 0.52637 0.0
C458 C 0.49778 0.82118 0.48328 0.0
O459 O 0.44394 0.75278 0.52367 0.0
O460 O 0.46284 0.72293 0.43749 0.0
C461 C 0.42785 0.77302 0.53956 0.0
O462 O 0.42825 0.74185 0.40159 0.0
O463 O 0.40934 0.81856 0.39759 0.0
O464 O 0.42084 0.85257 0.43644 0.0
C465 C 0.19064 0.28093 0.87525 0.0
C466 C 0.12581 0.21171 0.83629 0.0
C467 C 0.04214 0.27544 0.91867 0.0
Mg468 Mg 0.16392 0.21637 0.89825 0.0
O469 O 0.13259 0.24187 0.91428 0.0
Mg470 Mg 0.11165 0.2739 0.88629 0.0
Mg471 Mg 0.09605 0.22434 0.93778 0.0
O472 O 0.05982 0.20818 0.96212 0.0
Mg473 Mg 0.03156 0.23526 0.98247 0.0
Mg474 Mg 0.07868 0.17274 0.987 0.0
C475 C 0.15601 0.1806 0.96487 0.0
C476 C 0.07872 0.15176 0.91371 0.0
O477 O 0.16228 0.2914 0.87158 0.0
O478 O 0.19657 0.25332 0.88634 0.0
O479 O 0.11308 0.23875 0.8424 0.0
O480 O 0.14374 0.19754 0.85608 0.0
O481 O 0.1717 0.18706 0.93959 0.0
O482 O 0.12832 0.19262 0.96985 0.0
C483 C 0.11024 0.29713 0.96008 0.0
O484 O 0.10451 0.26863 0.96937 0.0
O485 O 0.11282 0.30438 0.93065 0.0
O486 O 0.02498 0.15774 0.99335 0.0
O487 O 0.99501 0.20081 0.98346 0.0
O488 O 0.07778 0.20064 0.03327 0.0
C489 C 0.99789 0.17094 0.9877 0.0
O490 O 0.04828 0.24414 0.02995 0.0
O491 O 0.02899 0.27096 0.94579 0.0
C492 C 0.06544 0.22511 0.04604 0.0
O493 O 0.06368 0.25659 0.90775 0.0
O494 O 0.08631 0.17979 0.90422 0.0
O495 O 0.07746 0.1451 0.94301 0.0
C496 C 0.61339 0.79528 0.77509 0.0
C497 C 0.65083 0.85619 0.70103 0.0
C498 C 0.58942 0.94709 0.77305 0.0
Mg499 Mg 0.58585 0.8236 0.71303 0.0
O500 O 0.57672 0.85728 0.73941 0.0
Mg501 Mg 0.61031 0.875 0.76803 0.0
Mg502 Mg 0.55745 0.8973 0.7241 0.0
O503 O 0.53756 0.93725 0.71051 0.0
Mg504 Mg 0.52406 0.96757 0.73999 0.0
Mg505 Mg 0.50739 0.92252 0.67725 0.0
C506 C 0.51819 0.84244 0.683 0.0
C507 C 0.57777 0.91091 0.65011 0.0
O508 O 0.62119 0.82338 0.78398 0.0
O509 O 0.59808 0.78989 0.74934 0.0
O510 O 0.64882 0.87014 0.72811 0.0
O511 O 0.62837 0.83894 0.69008 0.0
O512 O 0.54064 0.8223 0.68752 0.0
O513 O 0.51928 0.87055 0.6951 0.0
C514 C 0.54009 0.88524 0.79827 0.0
O515 O 0.52917 0.89283 0.77079 0.0
O516 O 0.56944 0.87865 0.80289 0.0
O517 O 0.50572 0.97698 0.66379 0.0
O518 O 0.52376 0.00463 0.70603 0.0
O519 O 0.46431 0.92949 0.70867 0.0
C520 C 0.51492 0.00315 0.677 0.0
O521 O 0.4746 0.95896 0.75134 0.0
O522 O 0.56448 0.96467 0.77264 0.0
C523 C 0.45498 0.94433 0.73334 0.0
O524 O 0.59386 0.92473 0.75277 0.0
O525 O 0.58804 0.90195 0.6774 0.0
O526 O 0.54877 0.91778 0.64594 0.0
C527 C 0.86875 0.18963 0.26773 0.0
C528 C 0.84418 0.12192 0.19884 0.0
C529 C 0.9191 0.04404 0.27785 0.0
Mg530 Mg 0.9043 0.1616 0.20964 0.0
O531 O 0.91699 0.13177 0.23877 0.0
Mg532 Mg 0.8856 0.1115 0.26783 0.0
Mg533 Mg 0.94023 0.09346 0.2246 0.0
O534 O 0.965 0.05577 0.21189 0.0
Mg535 Mg 0.98568 0.03229 0.24307 0.0
Mg536 Mg 0.99182 0.07227 0.17658 0.0
C537 C 0.97363 0.15104 0.18198 0.0
C538 C 0.91936 0.07341 0.15159 0.0
O539 O 0.86713 0.16197 0.28028 0.0
O540 O 0.88304 0.19499 0.24146 0.0
O541 O 0.84668 0.11056 0.22712 0.0
O542 O 0.86606 0.13873 0.18636 0.0
O543 O 0.94965 0.16939 0.18589 0.0
O544 O 0.97392 0.12275 0.19328 0.0
C545 C 0.95667 0.11171 0.29791 0.0
O546 O 0.96832 0.10398 0.2707 0.0
O547 O 0.92673 0.115 0.30254 0.0
O548 O 0.00053 0.01763 0.16667 0.0
O549 O 0.99071 0.99258 0.21298 0.0
O550 O 0.03701 0.07417 0.20538 0.0
C551 C 0.99648 0.99212 0.1832 0.0
O552 O 0.03267 0.05078 0.25223 0.0
O553 O 0.94696 0.03173 0.27674 0.0
C554 C 0.0493 0.06507 0.23135 0.0
O555 O 0.90879 0.06305 0.25617 0.0
O556 O 0.90914 0.08299 0.17873 0.0
O557 O 0.94877 0.06922 0.14679 0.0
C558 C 0.11517 0.69682 0.20308 0.0
C559 C 0.15918 0.64264 0.27599 0.0
C560 C 0.07802 0.54842 0.22024 0.0
Mg561 Mg 0.09375 0.67694 0.27058 0.0
O562 O 0.08259 0.63902 0.25211 0.0
Mg563 Mg 0.1082 0.61833 0.21853 0.0
Mg564 Mg 0.06254 0.60178 0.27239 0.0
O565 O 0.04043 0.5648 0.2907 0.0
Mg566 Mg 0.01698 0.53774 0.26457 0.0
Mg567 Mg 0.01807 0.58394 0.3276 0.0
C568 C 0.03221 0.66281 0.31307 0.0
C569 C 0.09305 0.58532 0.34205 0.0
O570 O 0.12104 0.6676 0.19712 0.0
O571 O 0.10161 0.70577 0.22879 0.0
O572 O 0.15312 0.62426 0.25217 0.0
O573 O 0.13917 0.66261 0.28701 0.0
O574 O 0.05262 0.68281 0.30228 0.0
O575 O 0.03336 0.63323 0.30567 0.0
C576 C 0.03251 0.61499 0.20279 0.0
O577 O 0.02695 0.60882 0.23208 0.0
O578 O 0.06086 0.61776 0.19189 0.0
O579 O 0.01172 0.53046 0.34284 0.0
O580 O 0.01728 0.50078 0.29858 0.0
O581 O 0.96955 0.58273 0.30468 0.0
C582 C 0.01484 0.50338 0.32873 0.0
O583 O 0.96861 0.5545 0.26029 0.0
O584 O 0.05119 0.53511 0.22614 0.0
C585 C 0.95439 0.57091 0.28144 0.0
O586 O 0.08989 0.57013 0.23836 0.0
O587 O 0.10019 0.59367 0.31356 0.0
O588 O 0.06442 0.58295 0.35097 0.0
C589 C 0.37533 0.30001 0.71296 0.0
C590 C 0.33586 0.35679 0.78922 0.0
C591 C 0.40492 0.44962 0.72594 0.0
Mg592 Mg 0.4005 0.32298 0.77848 0.0
O593 O 0.41122 0.35883 0.756 0.0
Mg594 Mg 0.38028 0.37895 0.72625 0.0
Mg595 Mg 0.43061 0.39744 0.77486 0.0
O596 O 0.4512 0.4359 0.79155 0.0
Mg597 Mg 0.46865 0.46609 0.76407 0.0
Mg598 Mg 0.4782 0.41853 0.82611 0.0
C599 C 0.4656 0.33904 0.81522 0.0
C600 C 0.40552 0.41083 0.84704 0.0
O601 O 0.36847 0.32882 0.70605 0.0
O602 O 0.38965 0.29242 0.73871 0.0
O603 O 0.33942 0.37279 0.76351 0.0
O604 O 0.35716 0.33793 0.79961 0.0
O605 O 0.44372 0.31918 0.80733 0.0
O606 O 0.46536 0.3679 0.80513 0.0
C607 C 0.45249 0.38915 0.70168 0.0
O608 O 0.46171 0.39433 0.73033 0.0
O609 O 0.42341 0.38357 0.69452 0.0
O610 O 0.48043 0.47253 0.84179 0.0
O611 O 0.46787 0.50224 0.79911 0.0
O612 O 0.52371 0.42424 0.79826 0.0
C613 C 0.47328 0.49941 0.82885 0.0
O614 O 0.51789 0.45413 0.75522 0.0
O615 O 0.43068 0.46585 0.72868 0.0
C616 C 0.53537 0.43813 0.77412 0.0
O617 O 0.39765 0.4272 0.74522 0.0
O618 O 0.3967 0.40236 0.81908 0.0
O619 O 0.43456 0.41493 0.85376 0.0
C620 C 0.78029 0.61815 0.79204 0.0
C621 C 0.70565 0.65463 0.85231 0.0
C622 C 0.77665 0.59242 0.94332 0.0
Mg623 Mg 0.71787 0.59001 0.819 0.0
O624 O 0.74256 0.58107 0.85375 0.0
Mg625 Mg 0.77187 0.61383 0.87167 0.0
Mg626 Mg 0.72651 0.56218 0.89381 0.0
O627 O 0.71287 0.54233 0.93385 0.0
Mg628 Mg 0.74246 0.52739 0.96345 0.0
Mg629 Mg 0.67801 0.51385 0.91967 0.0
C630 C 0.6846 0.52409 0.83875 0.0
C631 C 0.65369 0.58543 0.90925 0.0
O632 O 0.78843 0.62562 0.82043 0.0
O633 O 0.755 0.60234 0.78592 0.0
O634 O 0.73237 0.6528 0.86697 0.0
O635 O 0.6954 0.63236 0.8344 0.0
O636 O 0.69098 0.54563 0.81809 0.0
O637 O 0.69577 0.52542 0.86724 0.0
C638 C 0.79983 0.54241 0.8805 0.0
O639 O 0.77206 0.53238 0.88827 0.0
O640 O 0.80557 0.57175 0.87455 0.0
O641 O 0.66576 0.51262 0.97475 0.0
O642 O 0.70943 0.52877 0.00132 0.0
O643 O 0.70704 0.46921 0.92563 0.0
C644 C 0.68003 0.52126 0.0006 0.0
O645 O 0.75047 0.47699 0.95473 0.0
O646 O 0.77633 0.56719 0.96057 0.0
C647 C 0.73122 0.45845 0.94018 0.0
O648 O 0.75633 0.59718 0.92116 0.0
O649 O 0.68103 0.59474 0.89945 0.0
O650 O 0.64869 0.55655 0.91599 0.0
C651 C 0.28136 0.85623 0.18941 0.0
C652 C 0.20818 0.83306 0.12464 0.0
C653 C 0.2718 0.92141 0.04929 0.0
Mg654 Mg 0.218 0.88837 0.17078 0.0
O655 O 0.24284 0.90834 0.14108 0.0
Mg656 Mg 0.27209 0.88207 0.11447 0.0
Mg657 Mg 0.22262 0.93388 0.10686 0.0
O658 O 0.20367 0.96004 0.07329 0.0
Mg659 Mg 0.22807 0.98315 0.04484 0.0
Mg660 Mg 0.1664 0.98059 0.09377 0.0
C661 C 0.18058 0.95472 0.17014 0.0
C662 C 0.15096 0.90621 0.09203 0.0
O663 O 0.29105 0.85971 0.16082 0.0
O664 O 0.25435 0.86622 0.19905 0.0
O665 O 0.23527 0.83888 0.1117 0.0
O666 O 0.19602 0.85157 0.14519 0.0
O667 O 0.18912 0.92889 0.18389 0.0
O668 O 0.19063 0.96215 0.14216 0.0
C669 C 0.29509 0.95609 0.12044 0.0
O670 O 0.26639 0.9656 0.11601 0.0
O671 O 0.30276 0.92655 0.12001 0.0
O672 O 0.14945 0.9873 0.04027 0.0
O673 O 0.19287 0.98229 0.00948 0.0
O674 O 0.18876 0.03016 0.09312 0.0
C675 C 0.16283 0.98412 0.01278 0.0
O676 O 0.23092 0.03146 0.06134 0.0
O677 O 0.26645 0.94936 0.03836 0.0
C678 C 0.21045 0.04558 0.0787 0.0
O679 O 0.25368 0.90855 0.07035 0.0
O680 O 0.17999 0.8988 0.09727 0.0
O681 O 0.14179 0.93473 0.09163 0.0
C682 C 0.21523 0.13501 0.69292 0.0
C683 C 0.28694 0.16161 0.62891 0.0
C684 C 0.21823 0.08031 0.54594 0.0
Mg685 Mg 0.27676 0.10191 0.66969 0.0
O686 O 0.25119 0.08723 0.63734 0.0
Mg687 Mg 0.22133 0.1161 0.6148 0.0
Mg688 Mg 0.26929 0.06467 0.60006 0.0
O689 O 0.28679 0.04063 0.56362 0.0
Mg690 Mg 0.26215 0.01887 0.53427 0.0
Mg691 Mg 0.32494 0.01909 0.58157 0.0
C692 C 0.31299 0.03613 0.66023 0.0
C693 C 0.33981 0.09361 0.58171 0.0
O694 O 0.20502 0.13531 0.66421 0.0
O695 O 0.24159 0.12213 0.70083 0.0
O696 O 0.25987 0.15759 0.61512 0.0
O697 O 0.29859 0.1411 0.64784 0.0
O698 O 0.30516 0.05928 0.67853 0.0
O699 O 0.30279 0.03435 0.63143 0.0
C700 C 0.19671 0.04278 0.61612 0.0
O701 O 0.22503 0.03285 0.60987 0.0
O702 O 0.18979 0.07243 0.61788 0.0
O703 O 0.34098 0.0149 0.52751 0.0
O704 O 0.29681 0.02033 0.49767 0.0
O705 O 0.30221 0.97005 0.57922 0.0
C706 C 0.32691 0.01806 0.50043 0.0
O707 O 0.25857 0.97009 0.54952 0.0
O708 O 0.22396 0.05346 0.53254 0.0
C709 C 0.27943 0.95531 0.56581 0.0
O710 O 0.23677 0.09224 0.56733 0.0
O711 O 0.31123 0.10077 0.58937 0.0
O712 O 0.34886 0.06502 0.581 0.0
C713 C 0.71087 0.3755 0.30096 0.0
C714 C 0.78752 0.33401 0.35432 0.0
C715 C 0.72989 0.40585 0.44952 0.0
Mg716 Mg 0.77683 0.39859 0.32215 0.0
O717 O 0.75636 0.41037 0.35823 0.0
Mg718 Mg 0.72694 0.38009 0.37949 0.0
Mg719 Mg 0.77683 0.43147 0.39483 0.0
O720 O 0.79457 0.4536 0.4316 0.0
Mg721 Mg 0.76678 0.4714 0.46128 0.0
Mg722 Mg 0.82792 0.48084 0.41201 0.0
C723 C 0.81446 0.46356 0.3331 0.0
C724 C 0.84994 0.40812 0.40636 0.0
O725 O 0.70448 0.36831 0.32988 0.0
O726 O 0.7367 0.38918 0.29289 0.0
O727 O 0.76279 0.33787 0.37171 0.0
O728 O 0.79788 0.35548 0.33573 0.0
O729 O 0.8053 0.4402 0.31587 0.0
O730 O 0.80562 0.46623 0.36237 0.0
C731 C 0.70331 0.45278 0.38931 0.0
O732 O 0.73215 0.46199 0.39282 0.0
O733 O 0.69583 0.4236 0.38487 0.0
O734 O 0.84484 0.48473 0.46546 0.0
O735 O 0.80256 0.47312 0.49622 0.0
O736 O 0.79961 0.52628 0.41796 0.0
C737 C 0.83221 0.47855 0.49275 0.0
O738 O 0.75699 0.52013 0.44845 0.0
O739 O 0.73228 0.43245 0.46442 0.0
C740 C 0.77569 0.53779 0.43239 0.0
O741 O 0.7485 0.39838 0.42659 0.0
O742 O 0.82181 0.3985 0.39943 0.0
O743 O 0.85631 0.43745 0.40869 0.0
H744 H 0.03957 0.44723 0.30809 0.0
H745 H 0.00701 0.49563 0.39253 0.0
H746 H 0.0269 0.45232 0.42508 0.0
H747 H 0.05549 0.40343 0.42982 0.0
H748 H 0.08828 0.35302 0.34675 0.0
H749 H 0.0668 0.39551 0.31304 0.0
C750 C 0.03629 0.44813 0.33359 0.0
C751 C 0.02172 0.4748 0.34787 0.0
C752 C 0.04845 0.42341 0.35226 0.0
C753 C 0.01801 0.47553 0.38092 0.0
C754 C 0.0296 0.45088 0.39954 0.0
C755 C 0.05835 0.40141 0.40433 0.0
C756 C 0.07415 0.37508 0.39088 0.0
C757 C 0.04539 0.42519 0.38547 0.0
C758 C 0.0768 0.37315 0.35775 0.0
C759 C 0.06425 0.3973 0.33856 0.0
H760 H 0.4205 0.59326 0.93096 0.0
H761 H 0.41201 0.65529 0.84992 0.0
H762 H 0.43359 0.61308 0.81583 0.0
H763 H 0.45722 0.55951 0.81022 0.0
H764 H 0.4684 0.50062 0.89341 0.0
H765 H 0.44494 0.54198 0.92602 0.0
C766 C 0.42321 0.59791 0.9058 0.0
C767 C 0.41474 0.62772 0.89311 0.0
C768 C 0.43712 0.5745 0.88702 0.0
C769 C 0.4181 0.63265 0.86035 0.0
C770 C 0.43087 0.60866 0.841 0.0
C771 C 0.45499 0.55584 0.83557 0.0
C772 C 0.46482 0.52683 0.8493 0.0
C773 C 0.4411 0.57974 0.85428 0.0
C774 C 0.46153 0.52264 0.88217 0.0
C775 C 0.4477 0.54616 0.9008 0.0
H776 H 0.54241 0.05913 0.69484 0.0
H777 H 0.50005 0.0113 0.61437 0.0
H778 H 0.51603 0.05494 0.58007 0.0
H779 H 0.54416 0.10419 0.57237 0.0
H780 H 0.58646 0.15354 0.65172 0.0
H781 H 0.56873 0.11093 0.68728 0.0
C782 C 0.53624 0.05834 0.66987 0.0
C783 C 0.52007 0.03173 0.65721 0.0
C784 C 0.54604 0.08329 0.65012 0.0
C785 C 0.51241 0.03131 0.6248 0.0
C786 C 0.52173 0.05618 0.60513 0.0
C787 C 0.54985 0.10586 0.59742 0.0
C788 C 0.5674 0.13188 0.60926 0.0
C789 C 0.53907 0.08184 0.61746 0.0
C790 C 0.57366 0.13357 0.64191 0.0
C791 C 0.56326 0.10932 0.6622 0.0
H792 H 0.97032 0.88059 0.08885 0.0
H793 H 0.89999 0.85793 0.15946 0.0
H794 H 0.92272 0.89857 0.19493 0.0
H795 H 0.95762 0.94487 0.20185 0.0
H796 H 0.02267 0.97152 0.12738 0.0
H797 H 0.00684 0.92458 0.09684 0.0
C798 C 0.95997 0.88442 0.11212 0.0
C799 C 0.9333 0.86662 0.12166 0.0
C800 C 0.9721 0.90859 0.13125 0.0
C801 C 0.92063 0.8712 0.15196 0.0
C802 C 0.93344 0.89462 0.1719 0.0
C803 C 0.96891 0.94007 0.17924 0.0
C804 C 0.99144 0.96158 0.16682 0.0
C805 C 0.95851 0.91406 0.16129 0.0
C806 C 0.00536 0.95534 0.13731 0.0
C807 C 0.99621 0.92863 0.1199 0.0
H808 H 0.35992 0.07149 0.48988 0.0
H809 H 0.33131 0.98377 0.44592 0.0
H810 H 0.35213 0.0021 0.39475 0.0
H811 H 0.37891 0.04324 0.36269 0.0
H812 H 0.40688 0.13113 0.40665 0.0
H813 H 0.38487 0.11335 0.45743 0.0
C814 C 0.35908 0.05614 0.46921 0.0
C815 C 0.34534 0.02584 0.47177 0.0
C816 C 0.3698 0.06746 0.4397 0.0
C817 C 0.34286 0.00671 0.44461 0.0
C818 C 0.35425 0.01742 0.41532 0.0
C819 C 0.37898 0.0589 0.38314 0.0
C820 C 0.39334 0.08893 0.38075 0.0
C821 C 0.36741 0.04792 0.41248 0.0
C822 C 0.39481 0.10845 0.40772 0.0
C823 C 0.38282 0.098 0.43686 0.0
H824 H 0.18383 0.97237 0.95254 0.0
H825 H 0.09883 0.97377 0.00992 0.0
H826 H 0.06972 0.94765 0.96728 0.0
H827 H 0.069 0.92213 0.91614 0.0
H828 H 0.152 0.92253 0.85607 0.0
H829 H 0.18223 0.94842 0.89894 0.0
C830 C 0.15879 0.96743 0.95567 0.0
C831 C 0.14357 0.97514 0.98466 0.0
C832 C 0.14232 0.95166 0.93128 0.0
C833 C 0.11114 0.9685 0.988 0.0
C834 C 0.0946 0.95313 0.96376 0.0
C835 C 0.09375 0.92777 0.91201 0.0
C836 C 0.10815 0.92043 0.8826 0.0
C837 C 0.11016 0.94403 0.93576 0.0
C838 C 0.14036 0.92762 0.87839 0.0
C839 C 0.15743 0.94286 0.90273 0.0
H840 H 0.81386 0.46614 0.55349 0.0
H841 H 0.89642 0.47012 0.49282 0.0
H842 H 0.92785 0.44452 0.53392 0.0
H843 H 0.93152 0.41976 0.58544 0.0
H844 H 0.8508 0.41793 0.64842 0.0
H845 H 0.81811 0.44207 0.60665 0.0
C846 C 0.83886 0.4619 0.54937 0.0
C847 C 0.85275 0.47023 0.51998 0.0
C848 C 0.85667 0.44653 0.57288 0.0
C849 C 0.88516 0.46446 0.5152 0.0
C850 C 0.90303 0.44933 0.53851 0.0
C851 C 0.9067 0.42446 0.59026 0.0
C852 C 0.89366 0.41719 0.62021 0.0
C853 C 0.88886 0.43987 0.56709 0.0
C854 C 0.86137 0.42302 0.62557 0.0
C855 C 0.8429 0.43732 0.60189 0.0
H856 H 0.69948 0.55136 0.05478 0.0
H857 H 0.61843 0.50476 0.01226 0.0
H858 H 0.58592 0.52036 0.05744 0.0
H859 H 0.57973 0.54928 0.10626 0.0
H860 H 0.65929 0.59656 0.15039 0.0
H861 H 0.69355 0.57865 0.10658 0.0
C862 C 0.67479 0.54423 0.05549 0.0
C863 C 0.66138 0.52692 0.0299 0.0
C864 C 0.65603 0.55386 0.08132 0.0
C865 C 0.62936 0.51805 0.03139 0.0
C866 C 0.61074 0.52711 0.05716 0.0
C867 C 0.60452 0.55618 0.1065 0.0
C868 C 0.61674 0.57527 0.1313 0.0
C869 C 0.6237 0.54554 0.08175 0.0
C870 C 0.64917 0.58265 0.13134 0.0
C871 C 0.66867 0.5722 0.10638 0.0
H872 H 0.40176 0.42552 0.05894 0.0
H873 H 0.34866 0.34488 0.09334 0.0
H874 H 0.39101 0.30953 0.07434 0.0
H875 H 0.44316 0.30237 0.04823 0.0
H876 H 0.49394 0.38442 0.01337 0.0
H877 H 0.45122 0.4186 0.03163 0.0
C878 C 0.39908 0.40021 0.06261 0.0
C879 C 0.37197 0.38796 0.07809 0.0
C880 C 0.42281 0.38037 0.05099 0.0
C881 C 0.36934 0.35502 0.08202 0.0
C882 C 0.39343 0.33487 0.07088 0.0
C883 C 0.44478 0.3277 0.04421 0.0
C884 C 0.47196 0.34077 0.02938 0.0
C885 C 0.42024 0.34737 0.05524 0.0
C886 C 0.47348 0.37364 0.02456 0.0
C887 C 0.44914 0.39324 0.03522 0.0
H888 H 0.93865 0.19022 0.9692 0.0
H889 H 0.99652 0.1065 0.98133 0.0
H890 H 0.95777 0.07537 0.95198 0.0
H891 H 0.91004 0.07226 0.92094 0.0
H892 H 0.84844 0.15348 0.9114 0.0
H893 H 0.88765 0.186 0.94008 0.0
C894 C 0.94258 0.16502 0.966 0.0
C895 C 0.97075 0.15083 0.97755 0.0
C896 C 0.92031 0.14721 0.94854 0.0
C897 C 0.97519 0.11814 0.97306 0.0
C898 C 0.95323 0.10038 0.95581 0.0
C899 C 0.90481 0.09713 0.92487 0.0
C900 C 0.87606 0.11034 0.9138 0.0
C901 C 0.92622 0.11485 0.94291 0.0
C902 C 0.87038 0.14271 0.9192 0.0
C903 C 0.89258 0.16112 0.93607 0.0
H904 H 0.62091 0.90515 0.46977 0.0
H905 H 0.62309 0.85777 0.37942 0.0
H906 H 0.57788 0.82456 0.39524 0.0
H907 H 0.5349 0.81335 0.43275 0.0
H908 H 0.52657 0.86789 0.51896 0.0
H909 H 0.57667 0.89522 0.50662 0.0
C910 C 0.61191 0.88685 0.45398 0.0
C911 C 0.62656 0.88193 0.42432 0.0
C912 C 0.58434 0.87022 0.46224 0.0
C913 C 0.61387 0.85964 0.40328 0.0
C914 C 0.58744 0.84159 0.41201 0.0
C915 C 0.54426 0.83104 0.44901 0.0
C916 C 0.52748 0.83846 0.47694 0.0
C917 C 0.57221 0.84714 0.44118 0.0
C918 C 0.53922 0.86189 0.49742 0.0
C919 C 0.56781 0.87732 0.49039 0.0
H920 H 0.06175 0.69298 0.53675 0.0
H921 H 0.00303 0.61057 0.51922 0.0
H922 H 0.04256 0.57699 0.54421 0.0
H923 H 0.09227 0.57096 0.57191 0.0
H924 H 0.15417 0.65141 0.58632 0.0
H925 H 0.11373 0.68629 0.56321 0.0
C926 C 0.05778 0.6676 0.53789 0.0
C927 C 0.02932 0.6544 0.52592 0.0
C928 C 0.08058 0.64831 0.55264 0.0
C929 C 0.02469 0.62146 0.52781 0.0
C930 C 0.04712 0.60224 0.5425 0.0
C931 C 0.09715 0.59617 0.57024 0.0
C932 C 0.12631 0.60854 0.58112 0.0
C933 C 0.07483 0.61549 0.55533 0.0
C934 C 0.13179 0.6413 0.57875 0.0
C935 C 0.10889 0.66112 0.565 0.0
H936 H 0.95138 0.55504 0.69058 0.0
H937 H 0.00066 0.51428 0.61043 0.0
H938 H 0.98455 0.55913 0.5777 0.0
H939 H 0.95426 0.60711 0.57092 0.0
H940 H 0.90358 0.64889 0.6495 0.0
H941 H 0.92255 0.60585 0.68411 0.0
C942 C 0.95904 0.55611 0.66606 0.0
C943 C 0.97729 0.5311 0.65298 0.0
C944 C 0.949 0.58168 0.64712 0.0
C945 C 0.98668 0.53297 0.62112 0.0
C946 C 0.97733 0.55856 0.60237 0.0
C947 C 0.94688 0.60697 0.59557 0.0
C948 C 0.92658 0.63092 0.60738 0.0
C949 C 0.95795 0.58253 0.61497 0.0
C950 C 0.91855 0.63055 0.63966 0.0
C951 C 0.92954 0.60599 0.65938 0.0
H952 H 0.54394 0.43631 0.19398 0.0
H953 H 0.53132 0.49482 0.11074 0.0
H954 H 0.55361 0.45299 0.07781 0.0
H955 H 0.57752 0.40137 0.07258 0.0
H956 H 0.58773 0.33999 0.1539 0.0
H957 H 0.56696 0.38248 0.18813 0.0
C958 C 0.54562 0.43982 0.16856 0.0
C959 C 0.53569 0.46887 0.15492 0.0
C960 C 0.55884 0.41565 0.14966 0.0
C961 C 0.53828 0.47281 0.12195 0.0
C962 C 0.55141 0.449 0.10312 0.0
C963 C 0.5754 0.39693 0.09783 0.0
C964 C 0.58433 0.36725 0.11058 0.0
C965 C 0.56206 0.42061 0.11679 0.0
C966 C 0.58148 0.36256 0.14343 0.0
C967 C 0.56915 0.38672 0.16288 0.0
H968 H 0.45211 0.95127 0.30703 0.0
H969 H 0.50614 0.98674 0.38681 0.0
H970 H 0.49237 0.93911 0.417 0.0
H971 H 0.46204 0.89027 0.42182 0.0
H972 H 0.40361 0.85728 0.34444 0.0
H973 H 0.42276 0.90128 0.31145 0.0
C974 C 0.46139 0.94851 0.33087 0.0
C975 C 0.48028 0.97261 0.34469 0.0
C976 C 0.45246 0.92174 0.34832 0.0
C977 C 0.49163 0.96864 0.37569 0.0
C978 C 0.48367 0.94149 0.39291 0.0
C979 C 0.45329 0.89261 0.39771 0.0
C980 C 0.43114 0.87055 0.38549 0.0
C981 C 0.46353 0.91838 0.37966 0.0
C982 C 0.42079 0.87364 0.35411 0.0
C983 C 0.43157 0.89896 0.3355 0.0
H984 H 0.04121 0.10286 0.93038 0.0
H985 H 0.08748 0.14396 0.8489 0.0
H986 H 0.06704 0.10029 0.81572 0.0
H987 H 0.03919 0.04892 0.81141 0.0
H988 H 0.99618 0.00717 0.89455 0.0
H989 H 0.01223 0.05337 0.92588 0.0
C990 C 0.04721 0.10242 0.90536 0.0
C991 C 0.06645 0.12657 0.89216 0.0
C992 C 0.03579 0.07726 0.88692 0.0
C993 C 0.07292 0.12575 0.85957 0.0
C994 C 0.06126 0.10074 0.84076 0.0
C995 C 0.03278 0.05001 0.83629 0.0
C996 C 0.01632 0.0244 0.8506 0.0
C997 C 0.04301 0.07618 0.85435 0.0
C998 C 0.00867 0.02636 0.88292 0.0
C999 C 0.01801 0.05271 0.90084 0.0
H1000 H 0.68082 0.96098 0.55389 0.0
H1001 H 0.59622 0.97799 0.49845 0.0
H1002 H 0.56408 0.95444 0.54029 0.0
H1003 H 0.56003 0.92827 0.59115 0.0
H1004 H 0.64348 0.91252 0.64854 0.0
H1005 H 0.67648 0.93497 0.60611 0.0
C1006 C 0.65529 0.96 0.55102 0.0
C1007 C 0.641 0.97156 0.52291 0.0
C1008 C 0.63697 0.94583 0.57496 0.0
C1009 C 0.6079 0.96973 0.51977 0.0
C1010 C 0.58954 0.95591 0.54357 0.0
C1011 C 0.58549 0.9295 0.59464 0.0
C1012 C 0.59921 0.91874 0.62327 0.0
C1013 C 0.60389 0.94357 0.57096 0.0
C1014 C 0.63227 0.92037 0.62681 0.0
C1015 C 0.65104 0.9336 0.6027 0.0
H1016 H 0.93681 0.05109 0.09395 0.0
H1017 H 0.85367 0.07444 0.14893 0.0
H1018 H 0.81992 0.05737 0.10457 0.0
H1019 H 0.81452 0.03633 0.0502 0.0
H1020 H 0.89841 0.01325 0.99607 0.0
H1021 H 0.93155 0.02894 0.04098 0.0
C1022 C 0.91128 0.05262 0.09653 0.0
C1023 C 0.89785 0.06451 0.12491 0.0
C1024 C 0.89224 0.04229 0.07127 0.0
C1025 C 0.8647 0.06591 0.1274 0.0
C1026 C 0.84544 0.05588 0.10208 0.0
C1027 C 0.84006 0.03433 0.04818 0.0
C1028 C 0.85388 0.02347 0.01953 0.0
C1029 C 0.85902 0.044 0.07393 0.0
C1030 C 0.88703 0.02125 0.01766 0.0
C1031 C 0.90601 0.03047 0.0433 0.0
H1032 H 0.19686 0.55554 0.44572 0.0
H1033 H 0.12053 0.49626 0.4799 0.0
H1034 H 0.08947 0.50899 0.43259 0.0
H1035 H 0.08251 0.53969 0.38458 0.0
H1036 H 0.15605 0.60281 0.35161 0.0
H1037 H 0.19048 0.58506 0.39542 0.0
C1038 C 0.17359 0.54499 0.44268 0.0
C1039 C 0.16098 0.52487 0.46645 0.0
C1040 C 0.15554 0.55321 0.41588 0.0
C1041 C 0.13071 0.51179 0.46216 0.0
C1042 C 0.11299 0.51911 0.43514 0.0
C1043 C 0.10609 0.54979 0.38685 0.0
C1044 C 0.11656 0.5731 0.36517 0.0
C1045 C 0.12493 0.5403 0.41236 0.0
C1046 C 0.14747 0.585 0.36796 0.0
C1047 C 0.16694 0.57498 0.39314 0.0
H1048 H 0.30076 0.4482 0.94746 0.0
H1049 H 0.38015 0.50169 0.98459 0.0
H1050 H 0.41231 0.48508 0.93945 0.0
H1051 H 0.419 0.45275 0.89284 0.0
H1052 H 0.34145 0.39727 0.85514 0.0
H1053 H 0.30694 0.41751 0.89774 0.0
C1054 C 0.32494 0.45673 0.94545 0.0
C1055 C 0.33812 0.47619 0.96951 0.0
C1056 C 0.34356 0.44629 0.9199 0.0
C1057 C 0.36951 0.48673 0.96656 0.0
C1058 C 0.38791 0.4771 0.94086 0.0
C1059 C 0.39462 0.44458 0.89386 0.0
C1060 C 0.38303 0.42254 0.87136 0.0
C1061 C 0.37538 0.45626 0.91802 0.0
C1062 C 0.35105 0.41357 0.87252 0.0
C1063 C 0.33142 0.42527 0.89678 0.0
H1064 H 0.59699 0.56943 0.93399 0.0
H1065 H 0.65168 0.65128 0.90543 0.0
H1066 H 0.60973 0.68601 0.92625 0.0
H1067 H 0.55807 0.69244 0.95349 0.0
H1068 H 0.50601 0.60922 0.98334 0.0
H1069 H 0.54767 0.5755 0.96201 0.0
C1070 C 0.60008 0.59488 0.93201 0.0
C1071 C 0.62767 0.60765 0.91786 0.0
C1072 C 0.5767 0.61437 0.94498 0.0
C1073 C 0.63071 0.64074 0.91581 0.0
C1074 C 0.60685 0.66055 0.92805 0.0
C1075 C 0.55593 0.66692 0.95574 0.0
C1076 C 0.52873 0.65345 0.97017 0.0
C1077 C 0.57991 0.64754 0.94301 0.0
C1078 C 0.52655 0.62034 0.97264 0.0
C1079 C 0.55026 0.60101 0.96016 0.0
H1080 H 0.02487 0.83102 0.07254 0.0
H1081 H 0.03487 0.86962 0.97851 0.0
H1082 H 0.08745 0.89078 0.99278 0.0
H1083 H 0.12917 0.90007 0.03297 0.0
H1084 H 0.11586 0.86649 0.12837 0.0
H1085 H 0.06637 0.84028 0.11255 0.0
C1086 C 0.03855 0.84436 0.0553 0.0
C1087 C 0.02614 0.84923 0.02469 0.0
C1088 C 0.06839 0.85638 0.06376 0.0
C1089 C 0.04386 0.86622 0.00235 0.0
C1090 C 0.07393 0.87799 0.01046 0.0
C1091 C 0.11595 0.88589 0.04989 0.0
C1092 C 0.12713 0.88316 0.08131 0.0
C1093 C 0.08641 0.87315 0.04108 0.0
C1094 C 0.10889 0.86672 0.10363 0.0
C1095 C 0.08017 0.85264 0.09474 0.0
H1096 H 0.39025 0.0798 0.54541 0.0
H1097 H 0.33981 0.15951 0.58456 0.0
H1098 H 0.38109 0.19546 0.56416 0.0
H1099 H 0.43364 0.20275 0.53855 0.0
H1100 H 0.48152 0.12147 0.49841 0.0
H1101 H 0.43795 0.08743 0.515 0.0
C1102 C 0.38809 0.10503 0.5499 0.0
C1103 C 0.3627 0.11686 0.56827 0.0
C1104 C 0.41118 0.12515 0.53735 0.0
C1105 C 0.35983 0.14975 0.57206 0.0
C1106 C 0.38324 0.1702 0.55997 0.0
C1107 C 0.43435 0.17768 0.53288 0.0
C1108 C 0.46123 0.16465 0.51758 0.0
C1109 C 0.4094 0.158 0.54311 0.0
C1110 C 0.46146 0.13214 0.51034 0.0
C1111 C 0.43662 0.11261 0.52001 0.0
H1112 H 0.90077 0.42553 0.44087 0.0
H1113 H 0.85443 0.34237 0.40246 0.0
H1114 H 0.89514 0.30889 0.42751 0.0
H1115 H 0.94471 0.3042 0.45849 0.0
H1116 H 0.98973 0.3886 0.49591 0.0
H1117 H 0.94732 0.4209 0.47363 0.0
C1118 C 0.8994 0.40008 0.43742 0.0
C1119 C 0.87477 0.38655 0.41898 0.0
C1120 C 0.92221 0.38132 0.45228 0.0
C1121 C 0.87332 0.35344 0.41595 0.0
C1122 C 0.89646 0.33438 0.43049 0.0
C1123 C 0.94506 0.32962 0.46236 0.0
C1124 C 0.97064 0.34395 0.47891 0.0
C1125 C 0.92105 0.34816 0.44862 0.0
C1126 C 0.97052 0.37691 0.48342 0.0
C1127 C 0.94642 0.3954 0.4704 0.0
H1128 H 0.17442 0.33586 0.20743 0.0
H1129 H 0.21048 0.41458 0.26231 0.0
H1130 H 0.18134 0.39611 0.30871 0.0
H1131 H 0.15345 0.3535 0.33549 0.0
H1132 H 0.12286 0.27098 0.28312 0.0
H1133 H 0.14058 0.29566 0.23357 0.0
C1134 C 0.17537 0.34924 0.22941 0.0
C1135 C 0.19495 0.37624 0.23169 0.0
C1136 C 0.15946 0.3378 0.25637 0.0
C1137 C 0.19602 0.39342 0.26022 0.0
C1138 C 0.17928 0.38295 0.28668 0.0
C1139 C 0.15 0.34116 0.31312 0.0
C1140 C 0.13754 0.3102 0.31299 0.0
C1141 C 0.16205 0.35453 0.28532 0.0
C1142 C 0.1325 0.2948 0.28385 0.0
C1143 C 0.14308 0.30873 0.2556 0.0
H1144 H 0.33893 0.65043 0.83782 0.0
H1145 H 0.36497 0.73636 0.78898 0.0
H1146 H 0.34803 0.7129 0.73846 0.0
H1147 H 0.31728 0.67131 0.71011 0.0
H1148 H 0.28753 0.58786 0.7613 0.0
H1149 H 0.31422 0.60703 0.80888 0.0
C1150 C 0.34147 0.66387 0.81603 0.0
C1151 C 0.35261 0.69531 0.81724 0.0
C1152 C 0.33034 0.65085 0.78753 0.0
C1153 C 0.3564 0.71214 0.78874 0.0
C1154 C 0.34633 0.69885 0.75989 0.0
C1155 C 0.31717 0.65713 0.73154 0.0
C1156 C 0.29999 0.62845 0.73233 0.0
C1157 C 0.33189 0.66877 0.75927 0.0
C1158 C 0.30007 0.61027 0.76024 0.0
C1159 C 0.31542 0.62116 0.78745 0.0
H1160 H 0.64982 0.14704 0.66536 0.0
H1161 H 0.61934 0.23077 0.71555 0.0
H1162 H 0.63801 0.20802 0.76557 0.0
H1163 H 0.67277 0.16912 0.7926 0.0
H1164 H 0.70713 0.08835 0.73996 0.0
H1165 H 0.67733 0.10511 0.69345 0.0
C1166 C 0.64654 0.16002 0.68736 0.0
C1167 C 0.63392 0.19081 0.68665 0.0
C1168 C 0.65878 0.14758 0.71554 0.0
C1169 C 0.62915 0.20706 0.71541 0.0
C1170 C 0.64023 0.19423 0.74397 0.0
C1171 C 0.67312 0.15493 0.77112 0.0
C1172 C 0.69261 0.12795 0.76941 0.0
C1173 C 0.65666 0.16529 0.74399 0.0
C1174 C 0.69283 0.10961 0.74156 0.0
C1175 C 0.67572 0.1191 0.71499 0.0
H1176 H 0.82231 0.76581 0.20392 0.0
H1177 H 0.90599 0.82419 0.20518 0.0
H1178 H 0.88549 0.85327 0.2515 0.0
H1179 H 0.83948 0.8668 0.2865 0.0
H1180 H 0.75334 0.81215 0.2777 0.0
H1181 H 0.77864 0.77707 0.23947 0.0
C1182 C 0.83661 0.78408 0.21523 0.0
C1183 C 0.86571 0.79265 0.20163 0.0
C1184 C 0.82356 0.80204 0.23988 0.0
C1185 C 0.88368 0.81698 0.21561 0.0
C1186 C 0.87169 0.83387 0.24175 0.0
C1187 C 0.82648 0.84711 0.27619 0.0
C1188 C 0.79445 0.8423 0.2844 0.0
C1189 C 0.84095 0.82753 0.25317 0.0
C1190 C 0.77777 0.81668 0.27113 0.0
C1191 C 0.7923 0.79644 0.24952 0.0
H1192 H 0.2865 0.14079 0.28737 0.0
H1193 H 0.34882 0.15258 0.36774 0.0
H1194 H 0.30509 0.17284 0.39956 0.0
H1195 H 0.25207 0.19694 0.40087 0.0
H1196 H 0.18943 0.1847 0.32085 0.0
H1197 H 0.23023 0.155 0.29257 0.0
C1198 C 0.29016 0.14659 0.3122 0.0
C1199 C 0.32082 0.14598 0.32502 0.0
C1200 C 0.26509 0.15912 0.33012 0.0
C1201 C 0.32536 0.15343 0.35726 0.0
C1202 C 0.30047 0.16531 0.37539 0.0
C1203 C 0.24733 0.18734 0.37744 0.0
C1204 C 0.21828 0.19356 0.36259 0.0
C1205 C 0.27074 0.17003 0.36145 0.0
C1206 C 0.2119 0.18042 0.33257 0.0
C1207 C 0.23517 0.16345 0.31637 0.0
H1208 H 0.16662 0.85119 0.85849 0.0
H1209 H 0.21835 0.87705 0.77422 0.0
H1210 H 0.26783 0.8593 0.799 0.0
H1211 H 0.2936 0.82596 0.83977 0.0
H1212 H 0.23905 0.79375 0.92013 0.0
H1213 H 0.19333 0.8239 0.90162 0.0
C1214 C 0.18889 0.8537 0.84584 0.0
C1215 C 0.18882 0.86471 0.81435 0.0
C1216 C 0.21654 0.8413 0.85922 0.0
C1217 C 0.2178 0.86856 0.79846 0.0
C1218 C 0.24598 0.85788 0.81244 0.0
C1219 C 0.27185 0.82606 0.85348 0.0
C1220 C 0.26944 0.80726 0.88098 0.0
C1221 C 0.24524 0.84248 0.84201 0.0
C1222 C 0.24122 0.80756 0.89858 0.0
C1223 C 0.21515 0.8249 0.88809 0.0
H1224 H 0.75109 0.30214 0.60217 0.0
H1225 H 0.69115 0.30664 0.6848 0.0
H1226 H 0.7326 0.33462 0.7142 0.0
H1227 H 0.78847 0.35157 0.71839 0.0
H1228 H 0.84771 0.34842 0.63515 0.0
H1229 H 0.80378 0.32749 0.60379 0.0
C1230 C 0.74713 0.30954 0.62651 0.0
C1231 C 0.71849 0.30185 0.64152 0.0
C1232 C 0.77085 0.32619 0.64312 0.0
C1233 C 0.71321 0.31213 0.67284 0.0
C1234 C 0.73687 0.32816 0.68968 0.0
C1235 C 0.79134 0.34747 0.69314 0.0
C1236 C 0.82132 0.35113 0.6792 0.0
C1237 C 0.76611 0.33466 0.67532 0.0
C1238 C 0.82482 0.3455 0.64646 0.0
C1239 C 0.79983 0.33319 0.62856 0.0
H1240 H 0.67238 0.65781 0.1538 0.0
H1241 H 0.72264 0.62213 0.23541 0.0
H1242 H 0.77303 0.63925 0.2121 0.0
H1243 H 0.80094 0.67365 0.17338 0.0
H1244 H 0.74827 0.71357 0.09531 0.0
H1245 H 0.70068 0.68555 0.1123 0.0
C1246 C 0.69442 0.65313 0.16624 0.0
C1247 C 0.69376 0.6394 0.19656 0.0
C1248 C 0.72283 0.66442 0.15354 0.0
C1249 C 0.72251 0.63283 0.21206 0.0
C1250 C 0.75128 0.64297 0.19891 0.0
C1251 C 0.77916 0.67558 0.15983 0.0
C1252 C 0.77778 0.69598 0.13351 0.0
C1253 C 0.75149 0.66027 0.17044 0.0
C1254 C 0.74958 0.69841 0.116 0.0
C1255 C 0.72243 0.68236 0.12563 0.0
H1256 H 0.32629 0.20657 0.18613 0.0
H1257 H 0.41164 0.25786 0.21033 0.0
H1258 H 0.39314 0.30368 0.18055 0.0
H1259 H 0.34963 0.3318 0.15572 0.0
H1260 H 0.26152 0.28353 0.13618 0.0
H1261 H 0.28456 0.23354 0.1547 0.0
C1262 C 0.34099 0.22761 0.18435 0.0
C1263 C 0.36998 0.22915 0.20088 0.0
C1264 C 0.3297 0.25437 0.168 0.0
C1265 C 0.38893 0.25643 0.19835 0.0
C1266 C 0.37845 0.28257 0.18122 0.0
C1267 C 0.33566 0.31017 0.1548 0.0
C1268 C 0.30376 0.31143 0.14525 0.0
C1269 C 0.34838 0.28222 0.16712 0.0
C1270 C 0.28613 0.28318 0.14353 0.0
C1271 C 0.29917 0.2547 0.15456 0.0
H1272 H 0.85374 0.16727 0.84338 0.0
H1273 H 0.76859 0.21892 0.86606 0.0
H1274 H 0.7936 0.26825 0.84816 0.0
H1275 H 0.83533 0.29379 0.81585 0.0
H1276 H 0.9171 0.23934 0.78739 0.0
H1277 H 0.89767 0.19387 0.81733 0.0
C1278 C 0.8409 0.18949 0.84511 0.0
C1279 C 0.80917 0.18944 0.85527 0.0
C1280 C 0.85456 0.21705 0.83284 0.0
C1281 C 0.79301 0.21837 0.85818 0.0
C1282 C 0.80716 0.24646 0.84747 0.0
C1283 C 0.84912 0.27213 0.81672 0.0
C1284 C 0.87729 0.26963 0.79899 0.0
C1285 C 0.83721 0.24567 0.83306 0.0
C1286 C 0.89503 0.24155 0.80033 0.0
C1287 C 0.88401 0.21562 0.81755 0.0
H1288 H 0.68484 0.70035 0.32139 0.0
H1289 H 0.5924 0.74342 0.31487 0.0
H1290 H 0.6093 0.78586 0.35065 0.0
H1291 H 0.65211 0.81446 0.37619 0.0
H1292 H 0.74705 0.77781 0.37493 0.0
H1293 H 0.72747 0.7281 0.35168 0.0
C1294 C 0.6684 0.71889 0.32821 0.0
C1295 C 0.63754 0.71914 0.31531 0.0
C1296 C 0.67878 0.74403 0.34771 0.0
C1297 C 0.61637 0.74315 0.32414 0.0
C1298 C 0.62597 0.76723 0.34473 0.0
C1299 C 0.66834 0.79531 0.37179 0.0
C1300 C 0.70091 0.80016 0.37689 0.0
C1301 C 0.65735 0.76842 0.35572 0.0
C1302 C 0.72178 0.77479 0.37142 0.0
C1303 C 0.71064 0.74662 0.3574 0.0
H1304 H 0.10365 0.74738 0.69879 0.0
H1305 H 0.18396 0.81007 0.69029 0.0
H1306 H 0.21288 0.76977 0.66028 0.0
H1307 H 0.21807 0.71374 0.64431 0.0
H1308 H 0.13708 0.65169 0.65234 0.0
H1309 H 0.10525 0.695 0.67333 0.0
C1310 C 0.1273 0.75225 0.68991 0.0
C1311 C 0.14203 0.78113 0.69722 0.0
C1312 C 0.14358 0.72918 0.6724 0.0
C1313 C 0.17235 0.78772 0.6851 0.0
C1314 C 0.18889 0.76472 0.66797 0.0
C1315 C 0.19314 0.71009 0.64948 0.0
C1316 C 0.1801 0.67953 0.64744 0.0
C1317 C 0.17514 0.73494 0.66243 0.0
C1318 C 0.14774 0.67503 0.65421 0.0
C1319 C 0.12958 0.69967 0.6665 0.0
H1320 H 0.81784 0.67087 0.7889 0.0
H1321 H 0.78776 0.5889 0.73519 0.0
H1322 H 0.816 0.60848 0.68873 0.0
H1323 H 0.84239 0.65172 0.6616 0.0
H1324 H 0.86763 0.73695 0.71249 0.0
H1325 H 0.84942 0.71276 0.76217 0.0
C1326 C 0.81793 0.65712 0.76713 0.0
C1327 C 0.80038 0.62867 0.7653 0.0
C1328 C 0.83342 0.66908 0.74009 0.0
C1329 C 0.80064 0.61108 0.73701 0.0
C1330 C 0.81689 0.6222 0.71049 0.0
C1331 C 0.84452 0.66489 0.68365 0.0
C1332 C 0.85586 0.69632 0.68324 0.0
C1333 C 0.83238 0.65162 0.71149 0.0
C1334 C 0.85901 0.71274 0.7121 0.0
C1335 C 0.84816 0.69905 0.74043 0.0
H1336 H 0.65221 0.34496 0.16933 0.0
H1337 H 0.63123 0.25656 0.21614 0.0
H1338 H 0.64546 0.28007 0.26738 0.0
H1339 H 0.67426 0.32233 0.29652 0.0
H1340 H 0.69871 0.40876 0.24766 0.0
H1341 H 0.67246 0.38968 0.19975 0.0
C1342 C 0.65003 0.33105 0.19086 0.0
C1343 C 0.64144 0.29893 0.18893 0.0
C1344 C 0.65939 0.34429 0.21985 0.0
C1345 C 0.63801 0.28134 0.21701 0.0
C1346 C 0.64647 0.29468 0.24628 0.0
C1347 C 0.67298 0.33724 0.27562 0.0
C1348 C 0.68881 0.36661 0.27531 0.0
C1349 C 0.65879 0.32561 0.2477 0.0
C1350 C 0.68711 0.38582 0.24817 0.0
C1351 C 0.67214 0.37493 0.22079 0.0
H1352 H 0.34083 0.86838 0.21116 0.0
H1353 H 0.26414 0.80086 0.21538 0.0
H1354 H 0.29386 0.76868 0.25325 0.0
H1355 H 0.33763 0.76397 0.29043 0.0
H1356 H 0.4107 0.8353 0.29327 0.0
H1357 H 0.3873 0.86147 0.24683 0.0
C1358 C 0.33098 0.84646 0.2203 0.0
C1359 C 0.30041 0.83693 0.21104 0.0
C1360 C 0.34769 0.82881 0.24311 0.0
C1361 C 0.28752 0.80864 0.22276 0.0
C1362 C 0.30454 0.79024 0.2442 0.0
C1363 C 0.34916 0.7845 0.27998 0.0
C1364 C 0.3759 0.79764 0.29483 0.0
C1365 C 0.33421 0.80054 0.25515 0.0
C1366 C 0.39015 0.8248 0.28199 0.0
C1367 C 0.37654 0.83989 0.25572 0.0
H1368 H 0.1744 0.22804 0.80123 0.0
H1369 H 0.08965 0.17118 0.79917 0.0
H1370 H 0.1091 0.14326 0.75167 0.0
H1371 H 0.15404 0.13079 0.71492 0.0
H1372 H 0.24092 0.18419 0.72352 0.0
H1373 H 0.21714 0.21773 0.76419 0.0
C1374 C 0.15973 0.21025 0.78964 0.0
C1375 C 0.13055 0.2019 0.80317 0.0
C1376 C 0.17197 0.1932 0.76396 0.0
C1377 C 0.11203 0.17822 0.78879 0.0
C1378 C 0.12337 0.16206 0.76191 0.0
C1379 C 0.16748 0.14994 0.72568 0.0
C1380 C 0.19923 0.15498 0.71666 0.0
C1381 C 0.1539 0.16855 0.75 0.0
C1382 C 0.21661 0.17974 0.73056 0.0
C1383 C 0.20298 0.199 0.75363 0.0
H1384 H 0.79006 0.82535 0.65991 0.0
H1385 H 0.73918 0.78666 0.57976 0.0
H1386 H 0.69045 0.81151 0.59812 0.0
H1387 H 0.6609 0.83712 0.64053 0.0
H1388 H 0.71004 0.87247 0.72322 0.0
H1389 H 0.76082 0.8571 0.69982 0.0
C1390 C 0.76843 0.82294 0.64618 0.0
C1391 C 0.76813 0.80376 0.61878 0.0
C1392 C 0.7401 0.83659 0.65741 0.0
C1393 C 0.73993 0.80084 0.60121 0.0
C1394 C 0.71203 0.81509 0.61166 0.0
C1395 C 0.68273 0.84202 0.65327 0.0
C1396 C 0.68154 0.85531 0.68389 0.0
C1397 C 0.7116 0.83194 0.64032 0.0
C1398 C 0.71017 0.86208 0.6997 0.0
C1399 C 0.73924 0.85299 0.68645 0.0
H1400 H 0.70775 0.16723 0.1661 0.0
H1401 H 0.75869 0.2026 0.08474 0.0
H1402 H 0.80456 0.17052 0.09898 0.0
H1403 H 0.83261 0.13907 0.13813 0.0
H1404 H 0.785 0.10934 0.22366 0.0
H1405 H 0.73506 0.13086 0.20343 0.0
C1406 C 0.72877 0.16751 0.15131 0.0
C1407 C 0.73003 0.18764 0.12467 0.0
C1408 C 0.7556 0.14977 0.1603 0.0
C1409 C 0.75737 0.18779 0.10568 0.0
C1410 C 0.78354 0.1693 0.1137 0.0
C1411 C 0.81119 0.13661 0.15217 0.0
C1412 C 0.81282 0.12321 0.18273 0.0
C1413 C 0.78329 0.1511 0.1415 0.0
C1414 C 0.78461 0.11963 0.20013 0.0
C1415 C 0.7561 0.13245 0.18878 0.0
H1416 H 0.19045 0.69547 0.26606 0.0
H1417 H 0.20014 0.60403 0.3101 0.0
H1418 H 0.24892 0.62216 0.33706 0.0
H1419 H 0.28534 0.6668 0.35222 0.0
H1420 H 0.26982 0.75911 0.31088 0.0
H1421 H 0.22675 0.73806 0.27883 0.0
C1422 C 0.20372 0.67926 0.28103 0.0
C1423 C 0.19209 0.64852 0.28605 0.0
C1424 C 0.23031 0.69036 0.2974 0.0
C1425 C 0.20903 0.6277 0.30564 0.0
C1426 C 0.23661 0.63826 0.3213 0.0
C1427 C 0.2725 0.68212 0.33608 0.0
C1428 C 0.28042 0.7146 0.33426 0.0
C1429 C 0.24691 0.66994 0.31813 0.0
C1430 C 0.26376 0.73424 0.3132 0.0
C1431 C 0.23927 0.72219 0.29467 0.0
H1432 H 0.19635 0.32256 0.82586 0.0
H1433 H 0.24616 0.28446 0.9067 0.0
H1434 H 0.29463 0.31113 0.8902 0.0
H1435 H 0.32452 0.33779 0.84908 0.0
H1436 H 0.27718 0.37235 0.76527 0.0
H1437 H 0.22597 0.35561 0.78706 0.0
C1438 C 0.21771 0.32071 0.84008 0.0
C1439 C 0.21794 0.3012 0.86713 0.0
C1440 C 0.24594 0.33536 0.82986 0.0
C1441 C 0.24565 0.2989 0.88546 0.0
C1442 C 0.27334 0.3142 0.87611 0.0
C1443 C 0.30295 0.3423 0.83579 0.0
C1444 C 0.30472 0.35573 0.80536 0.0
C1445 C 0.27403 0.33138 0.84774 0.0
C1446 C 0.2765 0.36194 0.78873 0.0
C1447 C 0.24724 0.35203 0.80104 0.0
H1448 H 0.66309 0.7915 0.81642 0.0
H1449 H 0.58461 0.73776 0.77816 0.0
H1450 H 0.60306 0.69047 0.80561 0.0
H1451 H 0.64506 0.66291 0.83366 0.0
H1452 H 0.72684 0.71453 0.86746 0.0
H1453 H 0.70285 0.76435 0.84991 0.0
C1454 C 0.64979 0.76954 0.81454 0.0
C1455 C 0.62283 0.76796 0.79484 0.0
C1456 C 0.6611 0.74209 0.82967 0.0
C1457 C 0.60576 0.73941 0.79267 0.0
C1458 C 0.61621 0.71239 0.80847 0.0
C1459 C 0.65748 0.68511 0.83773 0.0
C1460 C 0.68802 0.68492 0.85116 0.0
C1461 C 0.64442 0.71322 0.82603 0.0
C1462 C 0.70338 0.71396 0.857 0.0
C1463 C 0.68984 0.74242 0.84659 0.0
H1464 H 0.14615 0.82109 0.12944 0.0
H1465 H 0.23579 0.77431 0.11741 0.0
H1466 H 0.2125 0.7247 0.13701 0.0
H1467 H 0.16968 0.69861 0.16825 0.0
H1468 H 0.08314 0.74982 0.1865 0.0
H1469 H 0.10195 0.79387 0.15402 0.0
C1470 C 0.16023 0.79977 0.12982 0.0
C1471 C 0.19262 0.80157 0.12214 0.0
C1472 C 0.14735 0.77237 0.14338 0.0
C1473 C 0.21072 0.77364 0.12292 0.0
C1474 C 0.19752 0.74542 0.1348 0.0
C1475 C 0.15477 0.71919 0.16451 0.0
C1476 C 0.12518 0.72121 0.17999 0.0
C1477 C 0.16638 0.74509 0.14684 0.0
C1478 C 0.10612 0.74799 0.17518 0.0
C1479 C 0.11683 0.77309 0.15654 0.0
H1480 H 0.34834 0.17265 0.64217 0.0
H1481 H 0.26137 0.22091 0.61883 0.0
H1482 H 0.2835 0.27065 0.63955 0.0
H1483 H 0.32366 0.29728 0.67376 0.0
H1484 H 0.40717 0.24547 0.702 0.0
H1485 H 0.39023 0.20018 0.6702 0.0
C1486 C 0.33445 0.19424 0.64071 0.0
C1487 C 0.30306 0.19292 0.62933 0.0
C1488 C 0.34647 0.22194 0.65448 0.0
C1489 C 0.28561 0.2212 0.62734 0.0
C1490 C 0.29809 0.24953 0.63972 0.0
C1491 C 0.33833 0.27623 0.67245 0.0
C1492 C 0.36639 0.27446 0.6906 0.0
C1493 C 0.32784 0.24972 0.65491 0.0
C1494 C 0.38522 0.24713 0.68873 0.0
C1495 C 0.37563 0.22131 0.67044 0.0
H1496 H 0.78544 0.30797 0.29806 0.0
H1497 H 0.81597 0.28937 0.39372 0.0
H1498 H 0.84269 0.24048 0.37555 0.0
H1499 H 0.86114 0.20604 0.33051 0.0
H1500 H 0.83345 0.2307 0.23501 0.0
H1501 H 0.80196 0.27454 0.25492 0.0
C1502 C 0.79769 0.29298 0.31504 0.0
C1503 C 0.799 0.30199 0.34701 0.0
C1504 C 0.81384 0.26637 0.30424 0.0
C1505 C 0.81459 0.28255 0.36897 0.0
C1506 C 0.83006 0.25491 0.35848 0.0
C1507 C 0.84808 0.22108 0.31428 0.0
C1508 C 0.84987 0.21556 0.28133 0.0
C1509 C 0.83053 0.24704 0.32592 0.0
C1510 C 0.83287 0.23496 0.26037 0.0
C1511 C 0.8147 0.25985 0.27172 0.0
H1512 H 0.21931 0.34261 0.47449 0.0
H1513 H 0.12983 0.3377 0.52405 0.0
H1514 H 0.14934 0.37601 0.56304 0.0
H1515 H 0.18823 0.41626 0.57775 0.0
H1516 H 0.27435 0.42646 0.52327 0.0
H1517 H 0.2607 0.37894 0.49296 0.0
C1518 C 0.20403 0.34962 0.49394 0.0
C1519 C 0.17276 0.33776 0.49587 0.0
C1520 C 0.21511 0.37223 0.51572 0.0
C1521 C 0.15366 0.34687 0.52156 0.0
C1522 C 0.16493 0.36863 0.54399 0.0
C1523 C 0.20454 0.40778 0.55976 0.0
C1524 C 0.23184 0.4257 0.55211 0.0
C1525 C 0.19518 0.38224 0.54061 0.0
C1526 C 0.253 0.41357 0.52943 0.0
C1527 C 0.24489 0.38668 0.51168 0.0
H1528 H 0.31736 0.58162 0.08292 0.0
H1529 H 0.22668 0.57718 0.03527 0.0
H1530 H 0.23963 0.62565 0.00643 0.0
H1531 H 0.28069 0.66122 0.98648 0.0
H1532 H 0.37408 0.66092 0.02874 0.0
H1533 H 0.35635 0.62145 0.06734 0.0
C1534 C 0.29995 0.59156 0.06681 0.0
C1535 C 0.27144 0.575 0.06048 0.0
C1536 C 0.30866 0.61775 0.04835 0.0
C1537 C 0.24896 0.58899 0.0403 0.0
C1538 C 0.25661 0.61644 0.02337 0.0
C1539 C 0.29728 0.65278 0.00422 0.0
C1540 C 0.32905 0.66344 0.00409 0.0
C1541 C 0.28715 0.62962 0.02571 0.0
C1542 C 0.34978 0.65267 0.02779 0.0
C1543 C 0.33956 0.63023 0.04998 0.0
H1544 H 0.70992 0.165 0.51108 0.0
H1545 H 0.61228 0.16276 0.48037 0.0
H1546 H 0.62496 0.1226 0.44103 0.0
H1547 H 0.66154 0.08187 0.42208 0.0
H1548 H 0.75863 0.08206 0.45457 0.0
H1549 H 0.74873 0.13023 0.48511 0.0
C1550 C 0.6914 0.15599 0.49562 0.0
C1551 C 0.65986 0.16624 0.49965 0.0
C1552 C 0.69886 0.13261 0.47304 0.0
C1553 C 0.63651 0.15485 0.47865 0.0
C1554 C 0.64381 0.1319 0.4559 0.0
C1555 C 0.68093 0.093 0.43486 0.0
C1556 C 0.71059 0.07778 0.43666 0.0
C1557 C 0.67464 0.11971 0.45376 0.0
C1558 C 0.73543 0.09295 0.45309 0.0
C1559 C 0.72966 0.12028 0.47097 0.0
H1560 H 0.8472 0.83827 0.98116 0.0
H1561 H 0.79593 0.8684 0.06463 0.0
H1562 H 0.76555 0.90556 0.03343 0.0
H1563 H 0.75617 0.93278 0.98432 0.0
H1564 H 0.81063 0.90902 0.9011 0.0
H1565 H 0.83536 0.86494 0.92962 0.0
C1566 C 0.82964 0.85327 0.99243 0.0
C1567 C 0.82408 0.8506 0.02525 0.0
C1568 C 0.81201 0.87513 0.97422 0.0
C1569 C 0.80082 0.86987 0.03944 0.0
C1570 C 0.78314 0.89104 0.02159 0.0
C1571 C 0.77263 0.91741 0.97189 0.0
C1572 C 0.78175 0.92459 0.94071 0.0
C1573 C 0.78861 0.89402 0.98908 0.0
C1574 C 0.80313 0.90411 0.92518 0.0
C1575 C 0.81784 0.87931 0.9417 0.0
H1576 H 0.58146 0.19144 0.41786 0.0
H1577 H 0.53071 0.28031 0.42067 0.0
H1578 H 0.50424 0.26654 0.37097 0.0
H1579 H 0.48559 0.22436 0.33623 0.0
H1580 H 0.52843 0.13143 0.34016 0.0
H1581 H 0.56727 0.15129 0.37864 0.0
C1582 C 0.56516 0.20828 0.40732 0.0
C1583 C 0.55698 0.23634 0.42384 0.0
C1584 C 0.54753 0.19872 0.38082 0.0
C1585 C 0.53694 0.25831 0.40897 0.0
C1586 C 0.52136 0.25014 0.38083 0.0
C1587 C 0.50354 0.2083 0.34516 0.0
C1588 C 0.50345 0.17605 0.33601 0.0
C1589 C 0.52469 0.21948 0.36815 0.0
C1590 C 0.52747 0.15607 0.34731 0.0
C1591 C 0.54974 0.1675 0.3692 0.0
H1592 H 0.95601 0.75088 0.91704 0.0
H1593 H 0.89838 0.83516 0.92066 0.0
H1594 H 0.92635 0.8568 0.87495 0.0
H1595 H 0.97569 0.85699 0.84274 0.0
H1596 H 0.03379 0.77258 0.84217 0.0
H1597 H 0.99772 0.74656 0.878 0.0
C1598 C 0.9487 0.77347 0.9072 0.0
C1599 C 0.92641 0.79204 0.92337 0.0
C1600 C 0.96606 0.7866 0.88216 0.0
C1601 C 0.91633 0.82069 0.90936 0.0
C1602 C 0.93272 0.83343 0.88349 0.0
C1603 C 0.98027 0.83288 0.85031 0.0
C1604 C 0.00807 0.81739 0.84049 0.0
C1605 C 0.95924 0.81761 0.87132 0.0
C1606 C 0.01308 0.78566 0.84981 0.0
C1607 C 0.99229 0.77044 0.87024 0.0
H1608 H 0.08753 0.31726 0.58244 0.0
H1609 H 0.04172 0.22559 0.57914 0.0
H1610 H 0.01334 0.23816 0.628 0.0
H1611 H 0.99134 0.27961 0.66158 0.0
H1612 H 0.02957 0.37468 0.65804 0.0
H1613 H 0.07038 0.35676 0.62095 0.0
C1614 C 0.07194 0.29957 0.59274 0.0
C1615 C 0.06553 0.27106 0.57622 0.0
C1616 C 0.05318 0.30829 0.61866 0.0
C1617 C 0.04648 0.248 0.59082 0.0
C1618 C 0.02979 0.25546 0.61845 0.0
C1619 C 0.0087 0.29654 0.65302 0.0
C1620 C 0.00674 0.32879 0.66183 0.0
C1621 C 0.0311 0.28637 0.63086 0.0
C1622 C 0.03003 0.34998 0.65106 0.0
C1623 C 0.05345 0.33966 0.63 0.0
H1624 H 0.52924 0.71601 0.1635 0.0
H1625 H 0.48293 0.62464 0.16707 0.0
H1626 H 0.4448 0.64219 0.12718 0.0
H1627 H 0.42967 0.68039 0.08653 0.0
H1628 H 0.47979 0.7695 0.07901 0.0
H1629 H 0.5102 0.75653 0.1266 0.0
C1630 C 0.51069 0.69989 0.15583 0.0
C1631 C 0.50948 0.66868 0.16786 0.0
C1632 C 0.48926 0.70994 0.13245 0.0
C1633 C 0.48489 0.64848 0.15786 0.0
C1634 C 0.46295 0.65861 0.13515 0.0
C1635 C 0.44665 0.69749 0.09562 0.0
C1636 C 0.45288 0.72567 0.07859 0.0
C1637 C 0.46556 0.68892 0.1216 0.0
C1638 C 0.47464 0.74756 0.0913 0.0
C1639 C 0.49239 0.73992 0.11829 0.0
H1640 H 0.42432 0.57327 0.18272 0.0
H1641 H 0.42802 0.52568 0.27339 0.0
H1642 H 0.37907 0.49745 0.26042 0.0
H1643 H 0.34263 0.47854 0.21961 0.0
H1644 H 0.34325 0.52097 0.12635 0.0
H1645 H 0.38392 0.55855 0.14391 0.0
C1646 C 0.41412 0.55735 0.20015 0.0
C1647 C 0.43046 0.55097 0.22875 0.0
C1648 C 0.3875 0.53938 0.19151 0.0
C1649 C 0.41629 0.53078 0.25111 0.0
C1650 C 0.38854 0.51427 0.24346 0.0
C1651 C 0.35139 0.49609 0.203 0.0
C1652 C 0.34043 0.49632 0.17133 0.0
C1653 C 0.37522 0.51698 0.21302 0.0
C1654 C 0.35168 0.51977 0.15058 0.0
C1655 C 0.37483 0.54136 0.1607 0.0
H1656 H 0.83624 0.97076 0.84604 0.0
H1657 H 0.85264 0.04556 0.77777 0.0
H1658 H 0.88931 0.01284 0.74921 0.0
H1659 H 0.92267 0.96696 0.7471 0.0
H1660 H 0.91266 0.89328 0.81712 0.0
H1661 H 0.86661 0.92025 0.83964 0.0
C1662 C 0.84794 0.97979 0.82501 0.0
C1663 C 0.84169 0.01081 0.81456 0.0
C1664 C 0.8699 0.96075 0.80831 0.0
C1665 C 0.85678 0.02189 0.78678 0.0
C1666 C 0.8778 0.00311 0.77004 0.0
C1667 C 0.90981 0.95607 0.76654 0.0
C1668 C 0.92195 0.9289 0.78112 0.0
C1669 C 0.88513 0.97287 0.78092 0.0
C1670 C 0.90425 0.91472 0.80576 0.0
C1671 C 0.87829 0.93049 0.81918 0.0
H1672 H 0.56369 0.01043 0.25362 0.0
H1673 H 0.59231 0.09765 0.29875 0.0
H1674 H 0.63696 0.07045 0.32403 0.0
H1675 H 0.66258 0.01957 0.33991 0.0
H1676 H 0.628 0.93244 0.29823 0.0
H1677 H 0.59036 0.96161 0.26632 0.0
C1678 C 0.58043 0.0239 0.26787 0.0
C1679 C 0.57457 0.056 0.27429 0.0
C1680 C 0.60414 0.00764 0.28443 0.0
C1681 C 0.59644 0.07291 0.29318 0.0
C1682 C 0.6215 0.05717 0.30831 0.0
C1683 C 0.64656 0.00709 0.32406 0.0
C1684 C 0.64803 0.97384 0.32172 0.0
C1685 C 0.62451 0.02414 0.3055 0.0
C1686 C 0.62743 0.95802 0.30064 0.0
C1687 C 0.60598 0.97467 0.28207 0.0
H1688 H 0.16507 0.51249 0.71838 0.0
H1689 H 0.16389 0.47183 0.62416 0.0
H1690 H 0.1247 0.43268 0.64167 0.0
H1691 H 0.08446 0.41747 0.68024 0.0
H1692 H 0.07924 0.46584 0.77058 0.0
H1693 H 0.12905 0.49301 0.75888 0.0
C1694 C 0.15658 0.49496 0.70152 0.0
C1695 C 0.16675 0.49573 0.6696 0.0
C1696 C 0.13322 0.47364 0.71136 0.0
C1697 C 0.15596 0.47225 0.64857 0.0
C1698 C 0.13367 0.44982 0.65866 0.0
C1699 C 0.09446 0.43342 0.69784 0.0
C1700 C 0.07736 0.44061 0.72579 0.0
C1701 C 0.12115 0.45132 0.68956 0.0
C1702 C 0.09147 0.46032 0.74867 0.0
C1703 C 0.11968 0.47627 0.74171 0.0
H1704 H 0.82369 0.57882 0.41914 0.0
H1705 H 0.73173 0.57407 0.464 0.0
H1706 H 0.7439 0.62227 0.49385 0.0
H1707 H 0.78405 0.65866 0.51457 0.0
H1708 H 0.878 0.6598 0.47386 0.0
H1709 H 0.86178 0.61939 0.43546 0.0
C1710 C 0.80581 0.58867 0.43477 0.0
C1711 C 0.77702 0.57222 0.43984 0.0
C1712 C 0.81385 0.615 0.45352 0.0
C1713 C 0.75415 0.5859 0.45982 0.0
C1714 C 0.76132 0.61323 0.47727 0.0
C1715 C 0.80108 0.65032 0.49723 0.0
C1716 C 0.83259 0.66173 0.49777 0.0
C1717 C 0.79175 0.62674 0.47566 0.0
C1718 C 0.8539 0.65102 0.47455 0.0
C1719 C 0.84454 0.62802 0.45245 0.0
H1720 H 0.68496 0.41591 0.92492 0.0
H1721 H 0.77273 0.42439 0.9773 0.0
H1722 H 0.75919 0.37677 0.00735 0.0
H1723 H 0.71866 0.3392 0.025 0.0
H1724 H 0.62849 0.33435 0.97646 0.0
H1725 H 0.64654 0.37491 0.93914 0.0
C1726 C 0.70166 0.40707 0.94237 0.0
C1727 C 0.72967 0.42435 0.94921 0.0
C1728 C 0.69271 0.38104 0.96106 0.0
C1729 C 0.75099 0.41191 0.97157 0.0
C1730 C 0.74299 0.38491 0.98913 0.0
C1731 C 0.70285 0.34677 0.00619 0.0
C1732 C 0.67186 0.33409 0.00405 0.0
C1733 C 0.7132 0.37042 0.98521 0.0
C1734 C 0.65215 0.34398 0.9791 0.0
C1735 C 0.66257 0.36708 0.95764 0.0
H1736 H 0.25007 0.91903 0.52157 0.0
H1737 H 0.32289 0.91511 0.59336 0.0
H1738 H 0.34845 0.87131 0.56536 0.0
H1739 H 0.35574 0.84149 0.51471 0.0
H1740 H 0.28357 0.85033 0.44222 0.0
H1741 H 0.25316 0.88497 0.47575 0.0
C1742 C 0.27092 0.908 0.53181 0.0
C1743 C 0.285 0.92119 0.55896 0.0
C1744 C 0.28665 0.88435 0.51458 0.0
C1745 C 0.3117 0.90588 0.5721 0.0
C1746 C 0.32674 0.88115 0.55577 0.0
C1747 C 0.33335 0.85093 0.50637 0.0
C1748 C 0.32269 0.84372 0.4755 0.0
C1749 C 0.31554 0.87156 0.52589 0.0
C1750 C 0.29313 0.85578 0.46545 0.0
C1751 C 0.2753 0.87554 0.48477 0.0
H1752 H 0.2423 0.08459 0.03867 0.0
H1753 H 0.16218 0.08295 0.10219 0.0
H1754 H 0.13791 0.12674 0.07322 0.0
H1755 H 0.13491 0.1586 0.02342 0.0
H1756 H 0.21501 0.15608 0.95941 0.0
H1757 H 0.24283 0.12075 0.99439 0.0
C1758 C 0.21998 0.09434 0.04692 0.0
C1759 C 0.20376 0.07958 0.07194 0.0
C1760 C 0.20525 0.1182 0.02911 0.0
C1761 C 0.17516 0.09332 0.0826 0.0
C1762 C 0.16089 0.11811 0.06567 0.0
C1763 C 0.15844 0.15038 0.01724 0.0
C1764 C 0.17218 0.1596 0.98821 0.0
C1765 C 0.17483 0.12943 0.03767 0.0
C1766 C 0.20315 0.14911 0.98108 0.0
C1767 C 0.21947 0.12893 0.00127 0.0
H1768 H 0.50579 0.7829 0.66221 0.0
H1769 H 0.47009 0.87869 0.65753 0.0
H1770 H 0.43115 0.86209 0.61775 0.0
H1771 H 0.41427 0.82292 0.57832 0.0
H1772 H 0.45472 0.72887 0.57922 0.0
H1773 H 0.48345 0.74183 0.62786 0.0
C1774 C 0.48938 0.80025 0.65274 0.0
C1775 C 0.49162 0.83232 0.66215 0.0
C1776 C 0.46764 0.79068 0.62944 0.0
C1777 C 0.46944 0.85408 0.65027 0.0
C1778 C 0.44709 0.84453 0.62757 0.0
C1779 C 0.42862 0.8048 0.58952 0.0
C1780 C 0.43306 0.77516 0.57439 0.0
C1781 C 0.4469 0.81319 0.61609 0.0
C1782 C 0.45118 0.75196 0.58993 0.0
C1783 C 0.46802 0.75956 0.61751 0.0
H1784 H 0.98347 0.21161 0.16311 0.0
H1785 H 0.02565 0.11845 0.16005 0.0
H1786 H 0.06671 0.13803 0.12435 0.0
H1787 H 0.08342 0.17824 0.08639 0.0
H1788 H 0.03649 0.26915 0.08446 0.0
H1789 H 0.00613 0.25458 0.13146 0.0
C1790 C 0.00175 0.19554 0.15487 0.0
C1791 C 0.00078 0.16325 0.16338 0.0
C1792 C 0.02477 0.20679 0.13377 0.0
C1793 C 0.02531 0.14315 0.15332 0.0
C1794 C 0.04891 0.15441 0.13299 0.0
C1795 C 0.06728 0.19538 0.09672 0.0
C1796 C 0.06109 0.22419 0.08092 0.0
C1797 C 0.04793 0.18579 0.12194 0.0
C1798 C 0.04112 0.24648 0.09556 0.0
C1799 C 0.0233 0.23791 0.12213 0.0
H1800 H 0.02619 0.72206 0.33855 0.0
H1801 H 0.98119 0.6302 0.33576 0.0
H1802 H 0.94097 0.64812 0.37269 0.0
H1803 H 0.92404 0.68646 0.41193 0.0
H1804 H 0.97368 0.77562 0.4213 0.0
H1805 H 0.00499 0.7632 0.37418 0.0
C1806 C 0.00747 0.70599 0.34582 0.0
C1807 C 0.00711 0.67446 0.33468 0.0
C1808 C 0.98486 0.71629 0.36799 0.0
C1809 C 0.98239 0.65427 0.34413 0.0
C1810 C 0.9592 0.66463 0.3652 0.0
C1811 C 0.94108 0.7037 0.40329 0.0
C1812 C 0.94734 0.73138 0.42095 0.0
C1813 C 0.96088 0.6952 0.3781 0.0
C1814 C 0.96877 0.7538 0.4086 0.0
C1815 C 0.98712 0.74644 0.38197 0.0
H1816 H 0.4712 0.28031 0.84115 0.0
H1817 H 0.51699 0.37198 0.83856 0.0
H1818 H 0.55562 0.35398 0.87777 0.0
H1819 H 0.57156 0.31508 0.91749 0.0
H1820 H 0.5222 0.22544 0.92383 0.0
H1821 H 0.49097 0.23922 0.87701 0.0
C1822 C 0.48971 0.29643 0.84892 0.0
C1823 C 0.49064 0.32783 0.83734 0.0
C1824 C 0.51151 0.28607 0.87183 0.0
C1825 C 0.51523 0.34798 0.84741 0.0
C1826 C 0.53746 0.3376 0.86974 0.0
C1827 C 0.55458 0.29803 0.90829 0.0
C1828 C 0.54883 0.26943 0.92479 0.0
C1829 C 0.53522 0.30702 0.88276 0.0
C1830 C 0.52702 0.24768 0.91193 0.0
C1831 C 0.50879 0.25578 0.88541 0.0
H1832 H 0.57655 0.42327 0.82141 0.0
H1833 H 0.57207 0.46826 0.72946 0.0
H1834 H 0.62182 0.49584 0.74066 0.0
H1835 H 0.65942 0.5152 0.78022 0.0
H1836 H 0.65992 0.47529 0.87458 0.0
H1837 H 0.61829 0.43797 0.85885 0.0
C1838 C 0.58675 0.43844 0.80333 0.0
C1839 C 0.57001 0.44431 0.77485 0.0
C1840 C 0.61399 0.45599 0.81087 0.0
C1841 C 0.58413 0.46357 0.75166 0.0
C1842 C 0.61237 0.4797 0.75827 0.0
C1843 C 0.65071 0.49822 0.79745 0.0
C1844 C 0.66223 0.49872 0.82892 0.0
C1845 C 0.62629 0.47753 0.78849 0.0
C1846 C 0.65109 0.47595 0.85047 0.0
C1847 C 0.62735 0.45453 0.84142 0.0
H1848 H 0.08121 0.0181 0.26053 0.0
H1849 H 0.09444 0.09654 0.19648 0.0
H1850 H 0.13872 0.06902 0.17122 0.0
H1851 H 0.16587 0.01779 0.16025 0.0
H1852 H 0.14742 0.93853 0.22255 0.0
H1853 H 0.11256 0.97073 0.25448 0.0
C1854 C 0.09455 0.02987 0.24196 0.0
C1855 C 0.08382 0.05888 0.22982 0.0
C1856 C 0.11818 0.01292 0.22594 0.0
C1857 C 0.10193 0.07394 0.20607 0.0
C1858 C 0.12679 0.05786 0.19105 0.0
C1859 C 0.15419 0.00766 0.18078 0.0
C1860 C 0.15897 0.97555 0.18845 0.0
C1861 C 0.13364 0.02641 0.19938 0.0
C1862 C 0.1441 0.96302 0.21564 0.0
C1863 C 0.12421 0.98149 0.23425 0.0
H1864 H 0.40926 0.92687 0.69125 0.0
H1865 H 0.42458 0.98544 0.77407 0.0
H1866 H 0.37894 0.01787 0.75948 0.0
H1867 H 0.34219 0.03572 0.71796 0.0
H1868 H 0.3317 0.98055 0.63219 0.0
H1869 H 0.36887 0.94137 0.65265 0.0
C1870 C 0.40228 0.94623 0.70669 0.0
C1871 C 0.42113 0.95419 0.73328 0.0
C1872 C 0.37771 0.96627 0.69682 0.0
C1873 C 0.41093 0.97888 0.75328 0.0
C1874 C 0.38513 0.99783 0.74461 0.0
C1875 C 0.34782 0.01505 0.70372 0.0
C1876 C 0.33457 0.01151 0.67313 0.0
C1877 C 0.36968 0.99288 0.71545 0.0
C1878 C 0.34192 0.98428 0.65541 0.0
C1879 C 0.36303 0.96171 0.66725 0.0
H1880 H 0.91471 0.5327 0.24818 0.0
H1881 H 0.91637 0.5977 0.32725 0.0
H1882 H 0.87094 0.57076 0.35089 0.0
H1883 H 0.83779 0.52173 0.35418 0.0
H1884 H 0.83968 0.45678 0.27454 0.0
H1885 H 0.87651 0.49019 0.24702 0.0
C1886 C 0.90454 0.54178 0.27001 0.0
C1887 C 0.91985 0.56629 0.28643 0.0
C1888 C 0.87955 0.52524 0.28433 0.0
C1889 C 0.90558 0.57824 0.31431 0.0
C1890 C 0.87985 0.5625 0.32823 0.0
C1891 C 0.8462 0.51505 0.33081 0.0
C1892 C 0.83631 0.4862 0.31717 0.0
C1893 C 0.86798 0.53462 0.31447 0.0
C1894 C 0.84701 0.47841 0.28634 0.0
C1895 C 0.86811 0.49767 0.27016 0.0
H1896 H 0.19834 0.1404 0.5617 0.0
H1897 H 0.17402 0.05907 0.50398 0.0
H1898 H 0.13502 0.08997 0.47552 0.0
H1899 H 0.1146 0.14206 0.46063 0.0
H1900 H 0.13663 0.22326 0.51903 0.0
H1901 H 0.16876 0.19029 0.55391 0.0
C1902 C 0.18401 0.12925 0.54344 0.0
C1903 C 0.19004 0.09776 0.53438 0.0
C1904 C 0.16122 0.14717 0.52697 0.0
C1905 C 0.1707 0.08355 0.511 0.0
C1906 C 0.14821 0.10117 0.4946 0.0
C1907 C 0.12572 0.15233 0.48149 0.0
C1908 C 0.12386 0.18506 0.48678 0.0
C1909 C 0.14435 0.13334 0.50137 0.0
C1910 C 0.13788 0.19805 0.51424 0.0
C1911 C 0.15655 0.17928 0.53411 0.0
H1912 H 0.29417 0.86204 0.06496 0.0
H1913 H 0.31269 0.9423 0.00402 0.0
H1914 H 0.35347 0.91272 0.97657 0.0
H1915 H 0.37832 0.86184 0.96453 0.0
H1916 H 0.36149 0.78174 0.02574 0.0
H1917 H 0.32689 0.81394 0.05912 0.0
C1918 C 0.30757 0.87338 0.04625 0.0
C1919 C 0.29971 0.90425 0.03638 0.0
C1920 C 0.33152 0.85628 0.03049 0.0
C1921 C 0.31764 0.91842 0.01199 0.0
C1922 C 0.34117 0.90155 0.99618 0.0
C1923 C 0.36785 0.85171 0.98573 0.0
C1924 C 0.37204 0.81938 0.99229 0.0
C1925 C 0.34752 0.87014 0.00448 0.0
C1926 C 0.35865 0.80662 0.02007 0.0
C1927 C 0.33847 0.82491 0.03898 0.0
H1928 H 0.64112 0.29301 0.48878 0.0
H1929 H 0.60302 0.36589 0.54954 0.0
H1930 H 0.63458 0.40596 0.52204 0.0
H1931 H 0.67953 0.41829 0.48763 0.0
H1932 H 0.72124 0.34439 0.4303 0.0
H1933 H 0.68169 0.30676 0.44939 0.0
C1934 C 0.63887 0.31784 0.49516 0.0
C1935 C 0.61996 0.3266 0.52114 0.0
C1936 C 0.6584 0.34041 0.48044 0.0
C1937 C 0.61752 0.35872 0.52958 0.0
C1938 C 0.6358 0.38153 0.5141 0.0
C1939 C 0.67982 0.39404 0.47902 0.0
C1940 C 0.70369 0.38408 0.45799 0.0
C1941 C 0.6575 0.37234 0.49067 0.0
C1942 C 0.7033 0.3527 0.44666 0.0
C1943 C 0.68069 0.33111 0.45761 0.0
H1944 H 0.8316 0.5858 0.97606 0.0
H1945 H 0.77553 0.65472 0.92549 0.0
H1946 H 0.80928 0.69737 0.94556 0.0
H1947 H 0.8482 0.7155 0.98548 0.0
H1948 H 0.90186 0.64625 0.03796 0.0
H1949 H 0.87628 0.60337 0.00857 0.0
C1950 C 0.82708 0.61009 0.96899 0.0
C1951 C 0.80065 0.61714 0.95001 0.0
C1952 C 0.84618 0.63452 0.98106 0.0
C1953 C 0.79554 0.64866 0.94042 0.0
C1954 C 0.81477 0.67312 0.95197 0.0
C1955 C 0.85509 0.69106 0.98953 0.0
C1956 C 0.8765 0.68387 0.01399 0.0
C1957 C 0.83928 0.66645 0.97344 0.0
C1958 C 0.88517 0.65218 0.01933 0.0
C1959 C 0.87039 0.62768 0.00274 0.0
H1960 H 0.51296 0.1403 0.20993 0.0
H1961 H 0.4452 0.10318 0.14271 0.0
H1962 H 0.47367 0.12871 0.09925 0.0
H1963 H 0.51112 0.1695 0.08232 0.0
H1964 H 0.57576 0.21081 0.15041 0.0
H1965 H 0.55558 0.17544 0.19142 0.0
C1966 C 0.50515 0.13688 0.18563 0.0
C1967 C 0.47693 0.12021 0.17944 0.0
C1968 C 0.52067 0.15301 0.16101 0.0
C1969 C 0.4668 0.11613 0.14794 0.0
C1970 C 0.48291 0.13093 0.12316 0.0
C1971 C 0.52119 0.17048 0.10599 0.0
C1972 C 0.54447 0.19325 0.11338 0.0
C1973 C 0.50879 0.15081 0.1297 0.0
C1974 C 0.55765 0.19371 0.14404 0.0
C1975 C 0.54602 0.17355 0.16761 0.0
H1976 H 0.93843 0.79215 0.64666 0.0
H1977 H 0.98311 0.83135 0.5633 0.0
H1978 H 0.01234 0.86887 0.59571 0.0
H1979 H 0.03231 0.88432 0.64822 0.0
H1980 H 0.98571 0.84839 0.73177 0.0
H1981 H 0.95013 0.81652 0.69898 0.0
C1982 C 0.95381 0.80952 0.63556 0.0
C1983 C 0.95937 0.80806 0.60274 0.0
C1984 C 0.97076 0.83144 0.65442 0.0
C1985 C 0.97906 0.83117 0.58868 0.0
C1986 C 0.99593 0.85275 0.60717 0.0
C1987 C 0.01384 0.87013 0.65914 0.0
C1988 C 0.01202 0.86831 0.69225 0.0
C1989 C 0.99317 0.85205 0.64017 0.0
C1990 C 0.98768 0.85016 0.7062 0.0
C1991 C 0.96739 0.8317 0.68748 0.0
H1992 H 0.96093 0.38145 0.85485 0.0
H1993 H 0.02068 0.35896 0.77504 0.0
H1994 H 0.05362 0.32527 0.80859 0.0
H1995 H 0.05929 0.29484 0.85853 0.0
H1996 H -0.00019 0.31973 0.93826 0.0
H1997 H 0.97342 0.35965 0.90693 0.0
C1998 C 0.98174 0.36994 0.84507 0.0
C1999 C 0.988 0.37222 0.81254 0.0
C2000 C 0.00035 0.35033 0.86433 0.0
C2001 C 0.01528 0.35755 0.80013 0.0
C2002 C 0.03396 0.33792 0.81921 0.0
C2003 C 0.04104 0.30942 0.86921 0.0
C2004 C 0.03102 0.30337 0.90043 0.0
C2005 C 0.02576 0.3329 0.85104 0.0
C2006 C 0.00763 0.32304 0.91402 0.0
C2007 C 0.99241 0.34612 0.89617 0.0
H2008 H 0.49229 0.63852 0.29461 0.0
H2009 H 0.55324 0.59933 0.36668 0.0
H2010 H 0.52392 0.62783 0.40775 0.0
H2011 H 0.48779 0.6711 0.42157 0.0
H2012 H 0.43086 0.71429 0.34825 0.0
H2013 H 0.45141 0.67689 0.3095 0.0
C2014 C 0.49836 0.63531 0.31942 0.0
C2015 C 0.52492 0.61706 0.32768 0.0
C2016 C 0.48255 0.65313 0.34265 0.0
C2017 C 0.53288 0.61339 0.35984 0.0
C2018 C 0.51633 0.62992 0.38326 0.0
C2019 C 0.47948 0.67206 0.39723 0.0
C2020 C 0.458 0.69578 0.3879 0.0
C2021 C 0.49224 0.65113 0.37472 0.0
C2022 C 0.4473 0.69636 0.35627 0.0
C2023 C 0.45919 0.67502 0.33395 0.0
H2024 H 0.13795 0.5645 0.20046 0.0
H2025 H 0.05705 0.50624 0.17606 0.0
H2026 H 0.08833 0.47786 0.13718 0.0
H2027 H 0.14065 0.46294 0.11748 0.0
H2028 H 0.22171 0.52108 0.14042 0.0
H2029 H 0.18822 0.55656 0.17153 0.0
C2030 C 0.12697 0.54613 0.18613 0.0
C2031 C 0.09551 0.53687 0.19208 0.0
C2032 C 0.14516 0.52962 0.16358 0.0
C2033 C 0.0815 0.51338 0.17276 0.0
C2034 C 0.09933 0.49705 0.15036 0.0
C2035 C 0.15076 0.48392 0.12853 0.0
C2036 C 0.18356 0.489 0.12732 0.0
C2037 C 0.13152 0.50393 0.14671 0.0
C2038 C 0.19643 0.51654 0.1412 0.0
C2039 C 0.17736 0.53669 0.15929 0.0
H2040 H 0.58238 0.98145 0.8269 0.0
H2041 H 0.6511 0.92678 0.77442 0.0
H2042 H 0.69325 0.94586 0.80943 0.0
H2043 H 0.7115 0.98585 0.84809 0.0
H2044 H 0.6428 0.04357 0.89697 0.0
H2045 H 0.59963 0.01495 0.87089 0.0
C2046 C 0.6065 0.9733 0.82337 0.0
C2047 C 0.61371 0.95338 0.7976 0.0
C2048 C 0.63065 0.985 0.843 0.0
C2049 C 0.64495 0.94242 0.79386 0.0
C2050 C 0.6691 0.95342 0.81382 0.0
C2051 C 0.68704 0.99125 0.8539 0.0
C2052 C 0.68018 0.01684 0.87415 0.0
C2053 C 0.66241 0.97579 0.83756 0.0
C2054 C 0.64849 0.02399 0.8813 0.0
C2055 C 0.62386 0.00785 0.86619 0.0
H2056 H 0.85209 0.9694 0.38601 0.0
H2057 H 0.7696 0.01398 0.34556 0.0
H2058 H 0.8033 0.04726 0.31218 0.0
H2059 H 0.85591 0.05619 0.28785 0.0
H2060 H 0.93803 0.01219 0.33046 0.0
H2061 H 0.90487 0.98679 0.36975 0.0
C2062 C 0.84161 0.98707 0.37053 0.0
C2063 C 0.80863 0.98892 0.36773 0.0
C2064 C 0.86103 0.00591 0.35133 0.0
C2065 C 0.79511 0.01213 0.348 0.0
C2066 C 0.81433 0.03096 0.32868 0.0
C2067 C 0.86658 0.04166 0.30616 0.0
C2068 C 0.89923 0.03521 0.30534 0.0
C2069 C 0.84731 0.02693 0.32905 0.0
C2070 C 0.91279 0.01683 0.32974 0.0
C2071 C 0.89388 0.00225 0.35241 0.0
H2072 H 0.29155 0.48751 0.63896 0.0
H2073 H 0.36211 0.55295 0.60438 0.0
H2074 H 0.40347 0.52407 0.63282 0.0
H2075 H 0.41693 0.48804 0.67594 0.0
H2076 H 0.34475 0.42722 0.71576 0.0
H2077 H 0.30672 0.44615 0.67662 0.0
C2078 C 0.31617 0.49466 0.63669 0.0
C2079 C 0.32392 0.52239 0.62001 0.0
C2080 C 0.33935 0.47927 0.65475 0.0
C2081 C 0.35576 0.53171 0.61734 0.0
C2082 C 0.37928 0.51542 0.63383 0.0
C2083 C 0.393 0.47855 0.67583 0.0
C2084 C 0.38352 0.45678 0.6992 0.0
C2085 C 0.37096 0.49044 0.65411 0.0
C2086 C 0.35264 0.44421 0.69824 0.0
C2087 C 0.33081 0.4551 0.6759 0.0
H2088 H 0.8812 0.86217 0.53294 0.0
H2089 H 0.85937 0.78026 0.47556 0.0
H2090 H 0.82493 0.8123 0.44186 0.0
H2091 H 0.79331 0.86121 0.43553 0.0
H2092 H 0.81675 0.94301 0.49295 0.0
H2093 H 0.85816 0.91346 0.51942 0.0
C2094 C 0.86968 0.85159 0.51245 0.0
C2095 C 0.8723 0.8189 0.50713 0.0
C2096 C 0.84953 0.86997 0.49352 0.0
C2097 C 0.85765 0.80547 0.48024 0.0
C2098 C 0.83761 0.82369 0.46115 0.0
C2099 C 0.80796 0.87279 0.45325 0.0
C2100 C 0.8011 0.904 0.46281 0.0
C2101 C 0.83209 0.85562 0.46861 0.0
C2102 C 0.82075 0.91873 0.48559 0.0
C2103 C 0.84463 0.9019 0.50081 0.0
H2104 H 0.6456 0.20383 0.98439 0.0
H2105 H 0.60426 0.13173 0.04383 0.0
H2106 H 0.6338 0.09077 0.01552 0.0
H2107 H 0.67871 0.07719 0.98141 0.0
H2108 H 0.72325 0.15006 0.925 0.0
H2109 H 0.68509 0.18885 0.94433 0.0
C2110 C 0.64212 0.17902 0.99022 0.0
C2111 C 0.62303 0.17071 0.0162 0.0
C2112 C 0.66048 0.15583 0.97499 0.0
C2113 C 0.61895 0.13857 0.0239 0.0
C2114 C 0.6361 0.11522 0.00797 0.0
C2115 C 0.67983 0.10146 0.97301 0.0
C2116 C 0.7042 0.1108 0.95229 0.0
C2117 C 0.65825 0.12382 0.98474 0.0
C2118 C 0.7049 0.14222 0.94114 0.0
C2119 C 0.6831 0.16449 0.95224 0.0
H2120 H 0.32627 0.58416 0.51825 0.0
H2121 H 0.27709 0.65568 0.57249 0.0
H2122 H 0.31148 0.69665 0.55008 0.0
H2123 H 0.34802 0.71268 0.50738 0.0
H2124 H 0.39221 0.64095 0.44941 0.0
H2125 H 0.36762 0.59936 0.48126 0.0
C2126 C 0.32331 0.60865 0.52558 0.0
C2127 C 0.29861 0.61703 0.54625 0.0
C2128 C 0.34215 0.63203 0.51167 0.0
C2129 C 0.29568 0.6487 0.55623 0.0
C2130 C 0.31522 0.67214 0.54329 0.0
C2131 C 0.35294 0.68792 0.50243 0.0
C2132 C 0.37142 0.67964 0.47601 0.0
C2133 C 0.33745 0.66422 0.51984 0.0
C2134 C 0.37767 0.64764 0.46951 0.0
C2135 C 0.36356 0.62394 0.4876 0.0
H2136 H 0.16998 0.41835 0.0179 0.0
H2137 H 0.2185 0.34821 0.07434 0.0
H2138 H 0.18258 0.30719 0.05476 0.0
H2139 H 0.1436 0.28994 0.01463 0.0
H2140 H 0.09774 0.35995 0.95605 0.0
H2141 H 0.12573 0.40232 0.98399 0.0
C2142 C 0.17244 0.39419 0.02631 0.0
C2143 C 0.19735 0.3863 0.04701 0.0
C2144 C 0.15212 0.3706 0.01449 0.0
C2145 C 0.19975 0.35496 0.05815 0.0
C2146 C 0.17924 0.33141 0.04689 0.0
C2147 C 0.13892 0.31455 0.00883 0.0
C2148 C 0.11894 0.3219 0.98319 0.0
C2149 C 0.15616 0.33873 0.02409 0.0
C2150 C 0.11324 0.35381 0.97562 0.0
C2151 C 0.12942 0.37801 0.99139 0.0
H2152 H 0.48266 0.85703 0.79409 0.0
H2153 H 0.54966 0.89599 0.86099 0.0
H2154 H 0.52265 0.86899 0.9045 0.0
H2155 H 0.48691 0.82668 0.92145 0.0
H2156 H 0.42276 0.78399 0.85378 0.0
H2157 H 0.44138 0.82027 0.81281 0.0
C2158 C 0.49054 0.86054 0.81837 0.0
C2159 C 0.51815 0.87823 0.82444 0.0
C2160 C 0.47587 0.84361 0.84301 0.0
C2161 C 0.52847 0.88234 0.85587 0.0
C2162 C 0.51322 0.86668 0.88067 0.0
C2163 C 0.4766 0.82559 0.89789 0.0
C2164 C 0.45394 0.80219 0.89059 0.0
C2165 C 0.48802 0.84592 0.87422 0.0
C2166 C 0.44043 0.80157 0.86006 0.0
C2167 C 0.45115 0.82227 0.83652 0.0
H2168 H 0.01143 0.14463 0.29266 0.0
H2169 H 0.94786 0.10307 0.36103 0.0
H2170 H 0.97365 0.13271 0.40374 0.0
H2171 H 0.00817 0.17653 0.41995 0.0
H2172 H 0.06875 0.22134 0.35063 0.0
H2173 H 0.05049 0.18427 0.31018 0.0
C2174 C 0.00401 0.1413 0.31707 0.0
C2175 C 0.9778 0.12189 0.3238 0.0
C2176 C 0.01795 0.15956 0.34125 0.0
C2177 C 0.968 0.11803 0.3554 0.0
C2178 C 0.98254 0.13515 0.37975 0.0
C2179 C 0.0177 0.17798 0.39611 0.0
C2180 C 0.03953 0.20198 0.38836 0.0
C2181 C 0.00652 0.15708 0.3727 0.0
C2182 C 0.05188 0.2032 0.35737 0.0
C2183 C 0.04138 0.18203 0.33411 0.0
H2184 H 0.03014 0.61498 0.13868 0.0
H2185 H 0.9763 0.64077 0.22171 0.0
H2186 H 0.94247 0.67497 0.1896 0.0
H2187 H 0.93556 0.70535 0.14011 0.0
H2188 H 0.99008 0.67901 0.05742 0.0
H2189 H 0.01601 0.63733 0.08721 0.0
C2190 C 0.0104 0.62736 0.14956 0.0
C2191 C 0.00621 0.62596 0.18253 0.0
C2192 C 0.99157 0.64754 0.13116 0.0
C2193 C 0.98019 0.64161 0.19632 0.0
C2194 C 0.96104 0.6615 0.17804 0.0
C2195 C 0.95256 0.69006 0.12841 0.0
C2196 C 0.96148 0.69606 0.09683 0.0
C2197 C 0.96766 0.66597 0.14575 0.0
C2198 C 0.98325 0.67559 0.08194 0.0
C2199 C 0.99813 0.65159 0.09892 0.0
H2200 H 0.50871 0.36004 0.70849 0.0
H2201 H 0.44774 0.40392 0.63922 0.0
H2202 H 0.47633 0.37741 0.59639 0.0
H2203 H 0.51009 0.33325 0.58037 0.0
H2204 H 0.56669 0.28488 0.65066 0.0
H2205 H 0.54878 0.32183 0.69123 0.0
C2206 C 0.50259 0.36475 0.68393 0.0
C2207 C 0.47606 0.38343 0.67682 0.0
C2208 C 0.5178 0.3479 0.65968 0.0
C2209 C 0.46804 0.38932 0.64505 0.0
C2210 C 0.48415 0.37394 0.62064 0.0
C2211 C 0.51891 0.33106 0.60445 0.0
C2212 C 0.53909 0.30589 0.61258 0.0
C2213 C 0.50766 0.35166 0.62791 0.0
C2214 C 0.55088 0.30384 0.64374 0.0
C2215 C 0.54057 0.32492 0.66705 0.0
H2216 H 0.79283 0.48653 0.84973 0.0
H2217 H 0.86291 0.54847 0.89138 0.0
H2218 H 0.90507 0.51994 0.86382 0.0
H2219 H 0.92052 0.48434 0.82093 0.0
H2220 H 0.85011 0.42536 0.77535 0.0
H2221 H 0.80964 0.44542 0.81163 0.0
C2222 C 0.81745 0.49295 0.85364 0.0
C2223 C 0.82489 0.51954 0.87243 0.0
C2224 C 0.84139 0.47746 0.8364 0.0
C2225 C 0.85676 0.52805 0.87698 0.0
C2226 C 0.88079 0.51194 0.861 0.0
C2227 C 0.89642 0.47547 0.81914 0.0
C2228 C 0.88825 0.45389 0.79497 0.0
C2229 C 0.87318 0.48773 0.83945 0.0
C2230 C 0.85703 0.44221 0.79351 0.0
C2231 C 0.83383 0.45376 0.8142 0.0
H2232 H 0.28705 0.00914 0.15618 0.0
H2233 H 0.35827 0.95298 0.10901 0.0
H2234 H 0.40004 0.98179 0.137 0.0
H2235 H 0.41565 0.0167 0.18047 0.0
H2236 H 0.34468 0.07075 0.23054 0.0
H2237 H 0.30354 0.04935 0.19556 0.0
C2238 C 0.31175 0.00393 0.15135 0.0
C2239 C 0.31963 0.97885 0.13078 0.0
C2240 C 0.33564 0.01978 0.16849 0.0
C2241 C 0.35168 0.97207 0.12493 0.0
C2242 C 0.37555 0.9884 0.14105 0.0
C2243 C 0.39124 0.02415 0.18357 0.0
C2244 C 0.3832 0.0448 0.20852 0.0
C2245 C 0.36771 0.01127 0.16388 0.0
C2246 C 0.35153 0.05466 0.21171 0.0
C2247 C 0.32796 0.04234 0.19177 0.0
H2248 H 0.20438 0.98982 0.65174 0.0
H2249 H 0.13336 0.04716 0.60593 0.0
H2250 H 0.0917 0.0207 0.63621 0.0
H2251 H 0.07649 0.98728 0.68134 0.0
H2252 H 0.14808 0.93212 0.72927 0.0
H2253 H 0.18819 0.95147 0.69258 0.0
C2254 C 0.17969 0.99568 0.6476 0.0
C2255 C 0.17193 0.02042 0.62673 0.0
C2256 C 0.15594 0.98127 0.66608 0.0
C2257 C 0.13987 0.02817 0.62194 0.0
C2258 C 0.11607 0.01327 0.63947 0.0
C2259 C 0.10078 0.97919 0.68356 0.0
C2260 C 0.10918 0.95851 0.70833 0.0
C2261 C 0.12397 0.9908 0.66261 0.0
C2262 C 0.14079 0.94804 0.71052 0.0
C2263 C 0.16387 0.95917 0.68955 0.0
H2264 H 0.58408 0.51056 0.33019 0.0
H2265 H 0.65594 0.56849 0.28577 0.0
H2266 H 0.69488 0.55057 0.32433 0.0
H2267 H 0.71075 0.51005 0.36239 0.0
H2268 H 0.64034 0.44746 0.40218 0.0
H2269 H 0.59842 0.47631 0.37462 0.0
C2270 C 0.60814 0.51964 0.32923 0.0
C2271 C 0.61725 0.54022 0.30471 0.0
C2272 C 0.63071 0.50833 0.35071 0.0
C2273 C 0.64831 0.55239 0.30423 0.0
C2274 C 0.67068 0.54208 0.32623 0.0
C2275 C 0.68611 0.50355 0.366 0.0
C2276 C 0.67852 0.47641 0.38363 0.0
C2277 C 0.6625 0.51887 0.3485 0.0
C2278 C 0.6466 0.46812 0.38827 0.0
C2279 C 0.62272 0.48438 0.37228 0.0
loop_
_geom_bond_atom_site_label_1
_geom_bond_atom_site_label_2
_geom_bond_distance
_geom_bond_site_symmetry_2
_ccdc_geom_bond_type
C0 O12 1.241 . S
C0 O13 1.280 . S
C1 O14 1.277 . S
C1 O15 1.245 . S
C2 O26 1.247 . S
C2 O28 1.289 . S
Mg3 O4 1.926 . S
Mg3 O13 1.984 . S
Mg3 O15 1.988 . S
Mg3 O16 2.061 . S
O4 Mg3 1.926 . S
O4 Mg5 1.986 . S
O4 Mg6 1.917 . S
Mg5 O4 1.986 . S
Mg5 O12 2.042 . S
Mg5 O14 2.041 . S
Mg5 O20 2.038 . S
Mg5 O28 2.238 . S
Mg6 O4 1.917 . S
Mg6 O7 1.917 . S
Mg6 O17 2.106 . S
Mg6 O19 2.079 . S
Mg6 O28 2.106 . S
Mg6 O29 2.079 . S
O7 Mg6 1.917 . S
O7 Mg8 1.926 . S
O7 Mg9 1.986 . S
Mg8 O7 1.926 . S
Mg8 O22 1.984 . S
Mg8 O25 1.988 . S
Mg8 O26 2.061 . S
Mg9 O7 1.986 . S
Mg9 O17 2.238 . S
Mg9 O21 2.042 . S
Mg9 O23 2.041 . S
Mg9 O30 2.038 . S
C10 O16 1.247 . S
C10 O17 1.289 . S
C11 O29 1.245 . S
C11 O30 1.274 . S
O12 C0 1.241 . S
O12 Mg5 2.042 . S
O13 C0 1.280 . S
O13 Mg3 1.984 . S
O14 C1 1.277 . S
O14 Mg5 2.041 . S
O15 C1 1.245 . S
O15 Mg3 1.988 . S
O16 Mg3 2.061 . S
O16 C10 1.247 . S
O17 Mg6 2.106 . S
O17 Mg9 2.238 . S
O17 C10 1.289 . S
C18 O19 1.245 . S
C18 O20 1.274 . S
O19 Mg6 2.079 . S
O19 C18 1.245 . S
O20 Mg5 2.038 . S
O20 C18 1.274 . S
O21 Mg9 2.042 . S
O21 C24 1.241 . S
O22 Mg8 1.984 . S
O22 C24 1.280 . S
O23 Mg9 2.041 . S
O23 C27 1.277 . S
C24 O21 1.241 . S
C24 O22 1.280 . S
O25 Mg8 1.988 . S
O25 C27 1.245 . S
O26 C2 1.247 . S
O26 Mg8 2.061 . S
C27 O23 1.277 . S
C27 O25 1.245 . S
O28 C2 1.289 . S
O28 Mg5 2.238 . S
O28 Mg6 2.106 . S
O29 Mg6 2.079 . S
O29 C11 1.245 . S
O30 Mg9 2.038 . S
O30 C11 1.274 . S
C31 O43 1.241 . S
C31 O44 1.280 . S
C32 O45 1.277 . S
C32 O46 1.245 1_554 S
C33 O57 1.247 . S
C33 O59 1.289 . S
Mg34 O35 1.926 . S
Mg34 O44 1.984 . S
Mg34 O46 1.988 . S
Mg34 O47 2.061 . S
O35 Mg34 1.926 . S
O35 Mg36 1.986 . S
O35 Mg37 1.917 . S
Mg36 O35 1.986 . S
Mg36 O43 2.042 . S
Mg36 O45 2.041 1_556 S
Mg36 O51 2.038 . S
Mg36 O59 2.238 . S
Mg37 O35 1.917 . S
Mg37 O38 1.917 . S
Mg37 O48 2.106 . S
Mg37 O50 2.079 . S
Mg37 O59 2.106 . S
Mg37 O60 2.079 . S
O38 Mg37 1.917 . S
O38 Mg39 1.926 . S
O38 Mg40 1.986 . S
Mg39 O38 1.926 . S
Mg39 O53 1.984 . S
Mg39 O56 1.988 . S
Mg39 O57 2.061 . S
Mg40 O38 1.986 . S
Mg40 O48 2.238 . S
Mg40 O52 2.042 . S
Mg40 O54 2.041 . S
Mg40 O61 2.038 . S
C41 O47 1.247 . S
C41 O48 1.289 . S
C42 O60 1.245 . S
C42 O61 1.274 . S
O43 C31 1.241 . S
O43 Mg36 2.042 . S
O44 C31 1.280 . S
O44 Mg34 1.984 . S
O45 C32 1.277 . S
O45 Mg36 2.041 1_554 S
O46 C32 1.245 1_556 S
O46 Mg34 1.988 . S
O47 Mg34 2.061 . S
O47 C41 1.247 . S
O48 Mg37 2.106 . S
O48 Mg40 2.238 . S
O48 C41 1.289 . S
C49 O50 1.245 . S
C49 O51 1.274 . S
O50 Mg37 2.079 . S
O50 C49 1.245 . S
O51 Mg36 2.038 . S
O51 C49 1.274 . S
O52 Mg40 2.042 . S
O52 C55 1.241 . S
O53 Mg39 1.984 . S
O53 C55 1.280 . S
O54 Mg40 2.041 . S
O54 C58 1.277 . S
C55 O52 1.241 . S
C55 O53 1.280 . S
O56 Mg39 1.988 . S
O56 C58 1.245 . S
O57 C33 1.247 . S
O57 Mg39 2.061 . S
C58 O54 1.277 . S
C58 O56 1.245 . S
O59 C33 1.289 . S
O59 Mg36 2.238 . S
O59 Mg37 2.106 . S
O60 Mg37 2.079 . S
O60 C42 1.245 . S
O61 Mg40 2.038 . S
O61 C42 1.274 . S
C62 O74 1.241 . S
C62 O75 1.280 . S
C63 O76 1.277 . S
C63 O77 1.245 . S
C64 O88 1.247 . S
C64 O90 1.289 . S
Mg65 O66 1.926 . S
Mg65 O75 1.984 . S
Mg65 O77 1.988 . S
Mg65 O78 2.061 . S
O66 Mg65 1.926 . S
O66 Mg67 1.986 . S
O66 Mg68 1.917 . S
Mg67 O66 1.986 . S
Mg67 O74 2.042 . S
Mg67 O76 2.041 . S
Mg67 O82 2.038 . S
Mg67 O90 2.238 . S
Mg68 O66 1.917 . S
Mg68 O69 1.917 . S
Mg68 O79 2.106 . S
Mg68 O81 2.079 . S
Mg68 O90 2.106 . S
Mg68 O91 2.079 . S
O69 Mg68 1.917 . S
O69 Mg70 1.926 . S
O69 Mg71 1.986 . S
Mg70 O69 1.926 . S
Mg70 O84 1.984 . S
Mg70 O87 1.988 . S
Mg70 O88 2.061 . S
Mg71 O69 1.986 . S
Mg71 O79 2.238 . S
Mg71 O83 2.042 . S
Mg71 O85 2.041 . S
Mg71 O92 2.038 . S
C72 O78 1.247 . S
C72 O79 1.289 . S
C73 O91 1.245 . S
C73 O92 1.274 . S
O74 C62 1.241 . S
O74 Mg67 2.042 . S
O75 C62 1.280 . S
O75 Mg65 1.984 . S
O76 C63 1.277 . S
O76 Mg67 2.041 . S
O77 C63 1.245 . S
O77 Mg65 1.988 . S
O78 Mg65 2.061 . S
O78 C72 1.247 . S
O79 Mg68 2.106 . S
O79 Mg71 2.238 . S
O79 C72 1.289 . S
C80 O81 1.245 . S
C80 O82 1.274 . S
O81 Mg68 2.079 . S
O81 C80 1.245 . S
O82 Mg67 2.038 . S
O82 C80 1.274 . S
O83 Mg71 2.042 . S
O83 C86 1.241 . S
O84 Mg70 1.984 . S
O84 C86 1.280 . S
O85 Mg71 2.041 . S
O85 C89 1.277 . S
C86 O83 1.241 . S
C86 O84 1.280 . S
O87 Mg70 1.988 . S
O87 C89 1.245 . S
O88 C64 1.247 . S
O88 Mg70 2.061 . S
C89 O85 1.277 . S
C89 O87 1.245 . S
O90 C64 1.289 . S
O90 Mg67 2.238 . S
O90 Mg68 2.106 . S
O91 Mg68 2.079 . S
O91 C73 1.245 . S
O92 Mg71 2.038 . S
O92 C73 1.274 . S
C93 O105 1.241 . S
C93 O106 1.280 . S
C94 O107 1.277 . S
C94 O108 1.245 1_556 S
C95 O119 1.247 . S
C95 O121 1.289 . S
Mg96 O97 1.926 . S
Mg96 O106 1.984 . S
Mg96 O108 1.988 . S
Mg96 O109 2.061 . S
O97 Mg96 1.926 . S
O97 Mg98 1.986 . S
O97 Mg99 1.917 . S
Mg98 O97 1.986 . S
Mg98 O105 2.042 . S
Mg98 O107 2.041 1_554 S
Mg98 O113 2.038 . S
Mg98 O121 2.238 . S
Mg99 O97 1.917 . S
Mg99 O100 1.917 . S
Mg99 O110 2.106 . S
Mg99 O112 2.079 . S
Mg99 O121 2.106 . S
Mg99 O122 2.079 . S
O100 Mg99 1.917 . S
O100 Mg101 1.926 . S
O100 Mg102 1.986 . S
Mg101 O100 1.926 . S
Mg101 O115 1.984 . S
Mg101 O118 1.988 . S
Mg101 O119 2.061 . S
Mg102 O100 1.986 . S
Mg102 O110 2.238 . S
Mg102 O114 2.042 . S
Mg102 O116 2.041 . S
Mg102 O123 2.038 . S
C103 O109 1.247 . S
C103 O110 1.289 . S
C104 O122 1.245 . S
C104 O123 1.274 . S
O105 C93 1.241 . S
O105 Mg98 2.042 . S
O106 C93 1.280 . S
O106 Mg96 1.984 . S
O107 C94 1.277 . S
O107 Mg98 2.041 1_556 S
O108 C94 1.245 1_554 S
O108 Mg96 1.988 . S
O109 Mg96 2.061 . S
O109 C103 1.247 . S
O110 Mg99 2.106 . S
O110 Mg102 2.238 . S
O110 C103 1.289 . S
C111 O112 1.245 . S
C111 O113 1.274 . S
O112 Mg99 2.079 . S
O112 C111 1.245 . S
O113 Mg98 2.038 . S
O113 C111 1.274 . S
O114 Mg102 2.042 . S
O114 C117 1.241 . S
O115 Mg101 1.984 . S
O115 C117 1.280 . S
O116 Mg102 2.041 . S
O116 C120 1.277 . S
C117 O114 1.241 . S
C117 O115 1.280 . S
O118 Mg101 1.988 . S
O118 C120 1.245 . S
O119 C95 1.247 . S
O119 Mg101 2.061 . S
C120 O116 1.277 . S
C120 O118 1.245 . S
O121 C95 1.289 . S
O121 Mg98 2.238 . S
O121 Mg99 2.106 . S
O122 Mg99 2.079 . S
O122 C104 1.245 . S
O123 Mg102 2.038 . S
O123 C104 1.274 . S
C124 O136 1.241 . S
C124 O137 1.280 . S
C125 O138 1.277 . S
C125 O139 1.245 . S
C126 O150 1.247 . S
C126 O152 1.289 . S
Mg127 O128 1.926 . S
Mg127 O137 1.984 . S
Mg127 O139 1.988 . S
Mg127 O140 2.061 . S
O128 Mg127 1.926 . S
O128 Mg129 1.986 . S
O128 Mg130 1.917 . S
Mg129 O128 1.986 . S
Mg129 O136 2.042 . S
Mg129 O138 2.041 . S
Mg129 O144 2.038 . S
Mg129 O152 2.238 . S
Mg130 O128 1.917 . S
Mg130 O131 1.917 . S
Mg130 O141 2.106 . S
Mg130 O143 2.079 . S
Mg130 O152 2.106 . S
Mg130 O153 2.079 . S
O131 Mg130 1.917 . S
O131 Mg132 1.926 . S
O131 Mg133 1.986 . S
Mg132 O131 1.926 . S
Mg132 O146 1.984 . S
Mg132 O149 1.988 . S
Mg132 O150 2.061 . S
Mg133 O131 1.986 . S
Mg133 O141 2.238 . S
Mg133 O145 2.042 . S
Mg133 O147 2.041 . S
Mg133 O154 2.038 . S
C134 O140 1.247 . S
C134 O141 1.289 . S
C135 O153 1.245 . S
C135 O154 1.274 . S
O136 C124 1.241 . S
O136 Mg129 2.042 . S
O137 C124 1.280 . S
O137 Mg127 1.984 . S
O138 C125 1.277 . S
O138 Mg129 2.041 . S
O139 C125 1.245 . S
O139 Mg127 1.988 . S
O140 Mg127 2.061 . S
O140 C134 1.247 . S
O141 Mg130 2.106 . S
O141 Mg133 2.238 . S
O141 C134 1.289 . S
C142 O143 1.245 . S
C142 O144 1.274 . S
O143 Mg130 2.079 . S
O143 C142 1.245 . S
O144 Mg129 2.038 . S
O144 C142 1.274 . S
O145 Mg133 2.042 . S
O145 C148 1.241 . S
O146 Mg132 1.984 . S
O146 C148 1.280 . S
O147 Mg133 2.041 . S
O147 C151 1.277 . S
C148 O145 1.241 . S
C148 O146 1.280 . S
O149 Mg132 1.988 . S
O149 C151 1.245 . S
O150 C126 1.247 . S
O150 Mg132 2.061 . S
C151 O147 1.277 . S
C151 O149 1.245 . S
O152 C126 1.289 . S
O152 Mg129 2.238 . S
O152 Mg130 2.106 . S
O153 Mg130 2.079 . S
O153 C135 1.245 . S
O154 Mg133 2.038 . S
O154 C135 1.274 . S
C155 O167 1.241 . S
C155 O168 1.280 . S
C156 O169 1.277 . S
C156 O170 1.245 1_655 S
C157 O181 1.247 . S
C157 O183 1.289 . S
Mg158 O159 1.926 . S
Mg158 O168 1.984 . S
Mg158 O170 1.988 . S
Mg158 O171 2.061 . S
O159 Mg158 1.926 . S
O159 Mg160 1.986 . S
O159 Mg161 1.917 . S
Mg160 O159 1.986 . S
Mg160 O167 2.042 . S
Mg160 O169 2.041 1_455 S
Mg160 O175 2.038 . S
Mg160 O183 2.238 . S
Mg161 O159 1.917 . S
Mg161 O162 1.917 . S
Mg161 O172 2.106 . S
Mg161 O174 2.079 . S
Mg161 O183 2.106 . S
Mg161 O184 2.079 . S
O162 Mg161 1.917 . S
O162 Mg163 1.926 . S
O162 Mg164 1.986 . S
Mg163 O162 1.926 . S
Mg163 O177 1.984 . S
Mg163 O180 1.988 . S
Mg163 O181 2.061 . S
Mg164 O162 1.986 . S
Mg164 O172 2.238 . S
Mg164 O176 2.042 . S
Mg164 O178 2.041 . S
Mg164 O185 2.038 . S
C165 O171 1.247 . S
C165 O172 1.289 . S
C166 O184 1.245 . S
C166 O185 1.274 . S
O167 C155 1.241 . S
O167 Mg160 2.042 . S
O168 C155 1.280 . S
O168 Mg158 1.984 . S
O169 C156 1.277 . S
O169 Mg160 2.041 1_655 S
O170 C156 1.245 1_455 S
O170 Mg158 1.988 . S
O171 Mg158 2.061 . S
O171 C165 1.247 . S
O172 Mg161 2.106 . S
O172 Mg164 2.238 . S
O172 C165 1.289 . S
C173 O174 1.245 . S
C173 O175 1.274 . S
O174 Mg161 2.079 . S
O174 C173 1.245 . S
O175 Mg160 2.038 . S
O175 C173 1.274 . S
O176 Mg164 2.042 . S
O176 C179 1.241 . S
O177 Mg163 1.984 . S
O177 C179 1.280 . S
O178 Mg164 2.041 . S
O178 C182 1.277 . S
C179 O176 1.241 . S
C179 O177 1.280 . S
O180 Mg163 1.988 . S
O180 C182 1.245 . S
O181 C157 1.247 . S
O181 Mg163 2.061 . S
C182 O178 1.277 . S
C182 O180 1.245 . S
O183 C157 1.289 . S
O183 Mg160 2.238 . S
O183 Mg161 2.106 . S
O184 Mg161 2.079 . S
O184 C166 1.245 . S
O185 Mg164 2.038 . S
O185 C166 1.274 . S
C186 O198 1.241 . S
C186 O199 1.280 . S
C187 O200 1.277 . S
C187 O201 1.245 1_455 S
C188 O212 1.247 . S
C188 O214 1.289 . S
Mg189 O190 1.926 . S
Mg189 O199 1.984 . S
Mg189 O201 1.988 . S
Mg189 O202 2.061 . S
O190 Mg189 1.926 . S
O190 Mg191 1.986 . S
O190 Mg192 1.917 . S
Mg191 O190 1.986 . S
Mg191 O198 2.042 . S
Mg191 O200 2.041 1_655 S
Mg191 O206 2.038 . S
Mg191 O214 2.238 . S
Mg192 O190 1.917 . S
Mg192 O193 1.917 . S
Mg192 O203 2.106 . S
Mg192 O205 2.079 . S
Mg192 O214 2.106 . S
Mg192 O215 2.079 . S
O193 Mg192 1.917 . S
O193 Mg194 1.926 . S
O193 Mg195 1.986 . S
Mg194 O193 1.926 . S
Mg194 O208 1.984 . S
Mg194 O211 1.988 . S
Mg194 O212 2.061 . S
Mg195 O193 1.986 . S
Mg195 O203 2.238 . S
Mg195 O207 2.042 . S
Mg195 O209 2.041 . S
Mg195 O216 2.038 . S
C196 O202 1.247 . S
C196 O203 1.289 . S
C197 O215 1.245 . S
C197 O216 1.274 . S
O198 C186 1.241 . S
O198 Mg191 2.042 . S
O199 C186 1.280 . S
O199 Mg189 1.984 . S
O200 C187 1.277 . S
O200 Mg191 2.041 1_455 S
O201 C187 1.245 1_655 S
O201 Mg189 1.988 . S
O202 Mg189 2.061 . S
O202 C196 1.247 . S
O203 Mg192 2.106 . S
O203 Mg195 2.238 . S
O203 C196 1.289 . S
C204 O205 1.245 . S
C204 O206 1.274 . S
O205 Mg192 2.079 . S
O205 C204 1.245 . S
O206 Mg191 2.038 . S
O206 C204 1.274 . S
O207 Mg195 2.042 . S
O207 C210 1.241 . S
O208 Mg194 1.984 . S
O208 C210 1.280 . S
O209 Mg195 2.041 . S
O209 C213 1.277 . S
C210 O207 1.241 . S
C210 O208 1.280 . S
O211 Mg194 1.988 . S
O211 C213 1.245 . S
O212 C188 1.247 . S
O212 Mg194 2.061 . S
C213 O209 1.277 . S
C213 O211 1.245 . S
O214 C188 1.289 . S
O214 Mg191 2.238 . S
O214 Mg192 2.106 . S
O215 Mg192 2.079 . S
O215 C197 1.245 . S
O216 Mg195 2.038 . S
O216 C197 1.274 . S
C217 O229 1.241 . S
C217 O230 1.280 . S
C218 O231 1.277 . S
C218 O232 1.245 . S
C219 O243 1.247 . S
C219 O245 1.289 . S
Mg220 O221 1.926 . S
Mg220 O230 1.984 . S
Mg220 O232 1.988 . S
Mg220 O233 2.061 . S
O221 Mg220 1.926 . S
O221 Mg222 1.986 . S
O221 Mg223 1.917 . S
Mg222 O221 1.986 . S
Mg222 O229 2.042 . S
Mg222 O231 2.041 . S
Mg222 O237 2.038 . S
Mg222 O245 2.238 . S
Mg223 O221 1.917 . S
Mg223 O224 1.917 . S
Mg223 O234 2.106 . S
Mg223 O236 2.079 . S
Mg223 O245 2.106 . S
Mg223 O246 2.079 . S
O224 Mg223 1.917 . S
O224 Mg225 1.926 . S
O224 Mg226 1.986 . S
Mg225 O224 1.926 . S
Mg225 O239 1.984 . S
Mg225 O242 1.988 . S
Mg225 O243 2.061 . S
Mg226 O224 1.986 . S
Mg226 O234 2.238 . S
Mg226 O238 2.042 . S
Mg226 O240 2.041 . S
Mg226 O247 2.038 . S
C227 O233 1.247 . S
C227 O234 1.289 . S
C228 O246 1.245 . S
C228 O247 1.274 . S
O229 C217 1.241 . S
O229 Mg222 2.042 . S
O230 C217 1.280 . S
O230 Mg220 1.984 . S
O231 C218 1.277 . S
O231 Mg222 2.041 . S
O232 C218 1.245 . S
O232 Mg220 1.988 . S
O233 Mg220 2.061 . S
O233 C227 1.247 . S
O234 Mg223 2.106 . S
O234 Mg226 2.238 . S
O234 C227 1.289 . S
C235 O236 1.245 . S
C235 O237 1.274 . S
O236 Mg223 2.079 . S
O236 C235 1.245 . S
O237 Mg222 2.038 . S
O237 C235 1.274 . S
O238 Mg226 2.042 . S
O238 C241 1.241 . S
O239 Mg225 1.984 . S
O239 C241 1.280 . S
O240 Mg226 2.041 . S
O240 C244 1.277 . S
C241 O238 1.241 . S
C241 O239 1.280 . S
O242 Mg225 1.988 . S
O242 C244 1.245 . S
O243 C219 1.247 . S
O243 Mg225 2.061 . S
C244 O240 1.277 . S
C244 O242 1.245 . S
O245 C219 1.289 . S
O245 Mg222 2.238 . S
O245 Mg223 2.106 . S
O246 Mg223 2.079 . S
O246 C228 1.245 . S
O247 Mg226 2.038 . S
O247 C228 1.274 . S
C248 O260 1.241 . S
C248 O261 1.280 . S
C249 O262 1.277 . S
C249 O263 1.245 . S
C250 O274 1.247 . S
C250 O276 1.289 . S
Mg251 O252 1.926 . S
Mg251 O261 1.984 . S
Mg251 O263 1.988 . S
Mg251 O264 2.061 . S
O252 Mg251 1.926 . S
O252 Mg253 1.986 . S
O252 Mg254 1.917 . S
Mg253 O252 1.986 . S
Mg253 O260 2.042 . S
Mg253 O262 2.041 . S
Mg253 O268 2.038 . S
Mg253 O276 2.238 . S
Mg254 O252 1.917 . S
Mg254 O255 1.917 . S
Mg254 O265 2.106 . S
Mg254 O267 2.079 . S
Mg254 O276 2.106 . S
Mg254 O277 2.079 . S
O255 Mg254 1.917 . S
O255 Mg256 1.926 . S
O255 Mg257 1.986 . S
Mg256 O255 1.926 . S
Mg256 O270 1.984 . S
Mg256 O273 1.988 . S
Mg256 O274 2.061 . S
Mg257 O255 1.986 . S
Mg257 O265 2.238 . S
Mg257 O269 2.042 . S
Mg257 O271 2.041 . S
Mg257 O278 2.038 . S
C258 O264 1.247 . S
C258 O265 1.289 . S
C259 O277 1.245 . S
C259 O278 1.274 . S
O260 C248 1.241 . S
O260 Mg253 2.042 . S
O261 C248 1.280 . S
O261 Mg251 1.984 . S
O262 C249 1.277 . S
O262 Mg253 2.041 . S
O263 C249 1.245 . S
O263 Mg251 1.988 . S
O264 Mg251 2.061 . S
O264 C258 1.247 . S
O265 Mg254 2.106 . S
O265 Mg257 2.238 . S
O265 C258 1.289 . S
C266 O267 1.245 . S
C266 O268 1.274 . S
O267 Mg254 2.079 . S
O267 C266 1.245 . S
O268 Mg253 2.038 . S
O268 C266 1.274 . S
O269 Mg257 2.042 . S
O269 C272 1.241 . S
O270 Mg256 1.984 . S
O270 C272 1.280 . S
O271 Mg257 2.041 . S
O271 C275 1.277 . S
C272 O269 1.241 . S
C272 O270 1.280 . S
O273 Mg256 1.988 . S
O273 C275 1.245 . S
O274 C250 1.247 . S
O274 Mg256 2.061 . S
C275 O271 1.277 . S
C275 O273 1.245 . S
O276 C250 1.289 . S
O276 Mg253 2.238 . S
O276 Mg254 2.106 . S
O277 Mg254 2.079 . S
O277 C259 1.245 . S
O278 Mg257 2.038 . S
O278 C259 1.274 . S
C279 O291 1.241 . S
C279 O292 1.280 . S
C280 O293 1.277 . S
C280 O294 1.245 1_565 S
C281 O305 1.247 . S
C281 O307 1.289 . S
Mg282 O283 1.926 . S
Mg282 O292 1.984 . S
Mg282 O294 1.988 . S
Mg282 O295 2.061 . S
O283 Mg282 1.926 . S
O283 Mg284 1.986 . S
O283 Mg285 1.917 . S
Mg284 O283 1.986 . S
Mg284 O291 2.042 . S
Mg284 O293 2.041 1_545 S
Mg284 O299 2.038 . S
Mg284 O307 2.238 . S
Mg285 O283 1.917 . S
Mg285 O286 1.917 . S
Mg285 O296 2.106 . S
Mg285 O298 2.079 . S
Mg285 O307 2.106 . S
Mg285 O308 2.079 . S
O286 Mg285 1.917 . S
O286 Mg287 1.926 . S
O286 Mg288 1.986 . S
Mg287 O286 1.926 . S
Mg287 O301 1.984 . S
Mg287 O304 1.988 . S
Mg287 O305 2.061 . S
Mg288 O286 1.986 . S
Mg288 O296 2.238 . S
Mg288 O300 2.042 . S
Mg288 O302 2.041 . S
Mg288 O309 2.038 . S
C289 O295 1.247 . S
C289 O296 1.289 . S
C290 O308 1.245 . S
C290 O309 1.274 . S
O291 C279 1.241 . S
O291 Mg284 2.042 . S
O292 C279 1.280 . S
O292 Mg282 1.984 . S
O293 C280 1.277 . S
O293 Mg284 2.041 1_565 S
O294 C280 1.245 1_545 S
O294 Mg282 1.988 . S
O295 Mg282 2.061 . S
O295 C289 1.247 . S
O296 Mg285 2.106 . S
O296 Mg288 2.238 . S
O296 C289 1.289 . S
C297 O298 1.245 . S
C297 O299 1.274 . S
O298 Mg285 2.079 . S
O298 C297 1.245 . S
O299 Mg284 2.038 . S
O299 C297 1.274 . S
O300 Mg288 2.042 . S
O300 C303 1.241 . S
O301 Mg287 1.984 . S
O301 C303 1.280 . S
O302 Mg288 2.041 . S
O302 C306 1.277 . S
C303 O300 1.241 . S
C303 O301 1.280 . S
O304 Mg287 1.988 . S
O304 C306 1.245 . S
O305 C281 1.247 . S
O305 Mg287 2.061 . S
C306 O302 1.277 . S
C306 O304 1.245 . S
O307 C281 1.289 . S
O307 Mg284 2.238 . S
O307 Mg285 2.106 . S
O308 Mg285 2.079 . S
O308 C290 1.245 . S
O309 Mg288 2.038 . S
O309 C290 1.274 . S
C310 O322 1.241 . S
C310 O323 1.280 . S
C311 O324 1.277 . S
C311 O325 1.245 1_545 S
C312 O336 1.247 . S
C312 O338 1.289 . S
Mg313 O314 1.926 . S
Mg313 O323 1.984 . S
Mg313 O325 1.988 . S
Mg313 O326 2.061 . S
O314 Mg313 1.926 . S
O314 Mg315 1.986 . S
O314 Mg316 1.917 . S
Mg315 O314 1.986 . S
Mg315 O322 2.042 . S
Mg315 O324 2.041 1_565 S
Mg315 O330 2.038 . S
Mg315 O338 2.238 . S
Mg316 O314 1.917 . S
Mg316 O317 1.917 . S
Mg316 O327 2.106 . S
Mg316 O329 2.079 . S
Mg316 O338 2.106 . S
Mg316 O339 2.079 . S
O317 Mg316 1.917 . S
O317 Mg318 1.926 . S
O317 Mg319 1.986 . S
Mg318 O317 1.926 . S
Mg318 O332 1.984 . S
Mg318 O335 1.988 . S
Mg318 O336 2.061 . S
Mg319 O317 1.986 . S
Mg319 O327 2.238 . S
Mg319 O331 2.042 . S
Mg319 O333 2.041 . S
Mg319 O340 2.038 . S
C320 O326 1.247 . S
C320 O327 1.289 . S
C321 O339 1.245 . S
C321 O340 1.274 . S
O322 C310 1.241 . S
O322 Mg315 2.042 . S
O323 C310 1.280 . S
O323 Mg313 1.984 . S
O324 C311 1.277 . S
O324 Mg315 2.041 1_545 S
O325 C311 1.245 1_565 S
O325 Mg313 1.988 . S
O326 Mg313 2.061 . S
O326 C320 1.247 . S
O327 Mg316 2.106 . S
O327 Mg319 2.238 . S
O327 C320 1.289 . S
C328 O329 1.245 . S
C328 O330 1.274 . S
O329 Mg316 2.079 . S
O329 C328 1.245 . S
O330 Mg315 2.038 . S
O330 C328 1.274 . S
O331 Mg319 2.042 . S
O331 C334 1.241 . S
O332 Mg318 1.984 . S
O332 C334 1.280 . S
O333 Mg319 2.041 . S
O333 C337 1.277 . S
C334 O331 1.241 . S
C334 O332 1.280 . S
O335 Mg318 1.988 . S
O335 C337 1.245 . S
O336 C312 1.247 . S
O336 Mg318 2.061 . S
C337 O333 1.277 . S
C337 O335 1.245 . S
O338 C312 1.289 . S
O338 Mg315 2.238 . S
O338 Mg316 2.106 . S
O339 Mg316 2.079 . S
O339 C321 1.245 . S
O340 Mg319 2.038 . S
O340 C321 1.274 . S
C341 O353 1.241 . S
C341 O354 1.280 . S
C342 O355 1.277 . S
C342 O356 1.245 . S
C343 O367 1.247 . S
C343 O369 1.289 . S
Mg344 O345 1.926 . S
Mg344 O354 1.984 . S
Mg344 O356 1.988 . S
Mg344 O357 2.061 . S
O345 Mg344 1.926 . S
O345 Mg346 1.986 . S
O345 Mg347 1.917 . S
Mg346 O345 1.986 . S
Mg346 O353 2.042 . S
Mg346 O355 2.041 . S
Mg346 O361 2.038 . S
Mg346 O369 2.238 . S
Mg347 O345 1.917 . S
Mg347 O348 1.917 . S
Mg347 O358 2.106 . S
Mg347 O360 2.079 . S
Mg347 O369 2.106 . S
Mg347 O370 2.079 . S
O348 Mg347 1.917 . S
O348 Mg349 1.926 . S
O348 Mg350 1.986 . S
Mg349 O348 1.926 . S
Mg349 O363 1.984 . S
Mg349 O366 1.988 . S
Mg349 O367 2.061 . S
Mg350 O348 1.986 . S
Mg350 O358 2.238 . S
Mg350 O362 2.042 . S
Mg350 O364 2.041 . S
Mg350 O371 2.038 . S
C351 O357 1.247 . S
C351 O358 1.289 . S
C352 O370 1.245 . S
C352 O371 1.274 . S
O353 C341 1.241 . S
O353 Mg346 2.042 . S
O354 C341 1.280 . S
O354 Mg344 1.984 . S
O355 C342 1.277 . S
O355 Mg346 2.041 . S
O356 C342 1.245 . S
O356 Mg344 1.988 . S
O357 Mg344 2.061 . S
O357 C351 1.247 . S
O358 Mg347 2.106 . S
O358 Mg350 2.238 . S
O358 C351 1.289 . S
C359 O360 1.245 . S
C359 O361 1.274 . S
O360 Mg347 2.079 . S
O360 C359 1.245 . S
O361 Mg346 2.038 . S
O361 C359 1.274 . S
O362 Mg350 2.042 . S
O362 C365 1.241 . S
O363 Mg349 1.984 . S
O363 C365 1.280 . S
O364 Mg350 2.041 . S
O364 C368 1.277 . S
C365 O362 1.241 . S
C365 O363 1.280 . S
O366 Mg349 1.988 . S
O366 C368 1.245 . S
O367 C343 1.247 . S
O367 Mg349 2.061 . S
C368 O364 1.277 . S
C368 O366 1.245 . S
O369 C343 1.289 . S
O369 Mg346 2.238 . S
O369 Mg347 2.106 . S
O370 Mg347 2.079 . S
O370 C352 1.245 . S
O371 Mg350 2.038 . S
O371 C352 1.274 . S
C372 O384 1.241 . S
C372 O385 1.280 . S
C373 O386 1.277 . S
C373 O387 1.245 . S
C374 O398 1.247 . S
C374 O400 1.289 . S
Mg375 O376 1.926 . S
Mg375 O385 1.984 . S
Mg375 O387 1.988 . S
Mg375 O388 2.061 . S
O376 Mg375 1.926 . S
O376 Mg377 1.986 . S
O376 Mg378 1.917 . S
Mg377 O376 1.986 . S
Mg377 O384 2.042 . S
Mg377 O386 2.041 . S
Mg377 O392 2.038 . S
Mg377 O400 2.238 . S
Mg378 O376 1.917 . S
Mg378 O379 1.917 . S
Mg378 O389 2.106 . S
Mg378 O391 2.079 . S
Mg378 O400 2.106 . S
Mg378 O401 2.079 . S
O379 Mg378 1.917 . S
O379 Mg380 1.926 . S
O379 Mg381 1.986 . S
Mg380 O379 1.926 . S
Mg380 O394 1.984 . S
Mg380 O397 1.988 . S
Mg380 O398 2.061 . S
Mg381 O379 1.986 . S
Mg381 O389 2.238 . S
Mg381 O393 2.042 . S
Mg381 O395 2.041 . S
Mg381 O402 2.038 . S
C382 O388 1.247 . S
C382 O389 1.289 . S
C383 O401 1.245 . S
C383 O402 1.274 . S
O384 C372 1.241 . S
O384 Mg377 2.042 . S
O385 C372 1.280 . S
O385 Mg375 1.984 . S
O386 C373 1.277 . S
O386 Mg377 2.041 . S
O387 C373 1.245 . S
O387 Mg375 1.988 . S
O388 Mg375 2.061 . S
O388 C382 1.247 . S
O389 Mg378 2.106 . S
O389 Mg381 2.238 . S
O389 C382 1.289 . S
C390 O391 1.245 . S
C390 O392 1.274 . S
O391 Mg378 2.079 . S
O391 C390 1.245 . S
O392 Mg377 2.038 . S
O392 C390 1.274 . S
O393 Mg381 2.042 . S
O393 C396 1.241 . S
O394 Mg380 1.984 . S
O394 C396 1.280 . S
O395 Mg381 2.041 . S
O395 C399 1.277 . S
C396 O393 1.241 . S
C396 O394 1.280 . S
O397 Mg380 1.988 . S
O397 C399 1.245 . S
O398 C374 1.247 . S
O398 Mg380 2.061 . S
C399 O395 1.277 . S
C399 O397 1.245 . S
O400 C374 1.289 . S
O400 Mg377 2.238 . S
O400 Mg378 2.106 . S
O401 Mg378 2.079 . S
O401 C383 1.245 . S
O402 Mg381 2.038 . S
O402 C383 1.274 . S
C403 O415 1.241 . S
C403 O416 1.280 . S
C404 O417 1.277 . S
C404 O418 1.245 . S
C405 O429 1.247 . S
C405 O431 1.289 . S
Mg406 O407 1.926 . S
Mg406 O416 1.984 . S
Mg406 O418 1.988 . S
Mg406 O419 2.061 . S
O407 Mg406 1.926 . S
O407 Mg408 1.986 . S
O407 Mg409 1.917 . S
Mg408 O407 1.986 . S
Mg408 O415 2.042 . S
Mg408 O417 2.041 . S
Mg408 O423 2.038 . S
Mg408 O431 2.238 . S
Mg409 O407 1.917 . S
Mg409 O410 1.917 . S
Mg409 O420 2.106 . S
Mg409 O422 2.079 . S
Mg409 O431 2.106 . S
Mg409 O432 2.079 . S
O410 Mg409 1.917 . S
O410 Mg411 1.926 . S
O410 Mg412 1.986 . S
Mg411 O410 1.926 . S
Mg411 O425 1.984 . S
Mg411 O428 1.988 . S
Mg411 O429 2.061 . S
Mg412 O410 1.986 . S
Mg412 O420 2.238 . S
Mg412 O424 2.042 . S
Mg412 O426 2.041 1_554 S
Mg412 O433 2.038 . S
C413 O419 1.247 . S
C413 O420 1.289 . S
C414 O432 1.245 . S
C414 O433 1.274 . S
O415 C403 1.241 . S
O415 Mg408 2.042 . S
O416 C403 1.280 . S
O416 Mg406 1.984 . S
O417 C404 1.277 . S
O417 Mg408 2.041 . S
O418 C404 1.245 . S
O418 Mg406 1.988 . S
O419 Mg406 2.061 . S
O419 C413 1.247 . S
O420 Mg409 2.106 . S
O420 Mg412 2.238 . S
O420 C413 1.289 . S
C421 O422 1.245 . S
C421 O423 1.274 . S
O422 Mg409 2.079 . S
O422 C421 1.245 . S
O423 Mg408 2.038 . S
O423 C421 1.274 . S
O424 Mg412 2.042 . S
O424 C427 1.241 . S
O425 Mg411 1.984 . S
O425 C427 1.280 . S
O426 Mg412 2.041 1_556 S
O426 C430 1.277 . S
C427 O424 1.241 . S
C427 O425 1.280 . S
O428 Mg411 1.988 . S
O428 C430 1.245 1_554 S
O429 C405 1.247 . S
O429 Mg411 2.061 . S
C430 O426 1.277 . S
C430 O428 1.245 1_556 S
O431 C405 1.289 . S
O431 Mg408 2.238 . S
O431 Mg409 2.106 . S
O432 Mg409 2.079 . S
O432 C414 1.245 . S
O433 Mg412 2.038 . S
O433 C414 1.274 . S
C434 O446 1.241 . S
C434 O447 1.280 . S
C435 O448 1.277 . S
C435 O449 1.245 . S
C436 O460 1.247 . S
C436 O462 1.289 . S
Mg437 O438 1.926 . S
Mg437 O447 1.984 . S
Mg437 O449 1.988 . S
Mg437 O450 2.061 . S
O438 Mg437 1.926 . S
O438 Mg439 1.986 . S
O438 Mg440 1.917 . S
Mg439 O438 1.986 . S
Mg439 O446 2.042 . S
Mg439 O448 2.041 . S
Mg439 O454 2.038 . S
Mg439 O462 2.238 . S
Mg440 O438 1.917 . S
Mg440 O441 1.917 . S
Mg440 O451 2.106 . S
Mg440 O453 2.079 . S
Mg440 O462 2.106 . S
Mg440 O463 2.079 . S
O441 Mg440 1.917 . S
O441 Mg442 1.926 . S
O441 Mg443 1.986 . S
Mg442 O441 1.926 . S
Mg442 O456 1.984 . S
Mg442 O459 1.988 . S
Mg442 O460 2.061 . S
Mg443 O441 1.986 . S
Mg443 O451 2.238 . S
Mg443 O455 2.042 . S
Mg443 O457 2.041 . S
Mg443 O464 2.038 . S
C444 O450 1.247 . S
C444 O451 1.289 . S
C445 O463 1.245 . S
C445 O464 1.274 . S
O446 C434 1.241 . S
O446 Mg439 2.042 . S
O447 C434 1.280 . S
O447 Mg437 1.984 . S
O448 C435 1.277 . S
O448 Mg439 2.041 . S
O449 C435 1.245 . S
O449 Mg437 1.988 . S
O450 Mg437 2.061 . S
O450 C444 1.247 . S
O451 Mg440 2.106 . S
O451 Mg443 2.238 . S
O451 C444 1.289 . S
C452 O453 1.245 . S
C452 O454 1.274 . S
O453 Mg440 2.079 . S
O453 C452 1.245 . S
O454 Mg439 2.038 . S
O454 C452 1.274 . S
O455 Mg443 2.042 . S
O455 C458 1.241 . S
O456 Mg442 1.984 . S
O456 C458 1.280 . S
O457 Mg443 2.041 . S
O457 C461 1.277 . S
C458 O455 1.241 . S
C458 O456 1.280 . S
O459 Mg442 1.988 . S
O459 C461 1.245 . S
O460 C436 1.247 . S
O460 Mg442 2.061 . S
C461 O457 1.277 . S
C461 O459 1.245 . S
O462 C436 1.289 . S
O462 Mg439 2.238 . S
O462 Mg440 2.106 . S
O463 Mg440 2.079 . S
O463 C445 1.245 . S
O464 Mg443 2.038 . S
O464 C445 1.274 . S
C465 O477 1.241 . S
C465 O478 1.280 . S
C466 O479 1.277 . S
C466 O480 1.245 . S
C467 O491 1.247 . S
C467 O493 1.289 . S
Mg468 O469 1.926 . S
Mg468 O478 1.984 . S
Mg468 O480 1.988 . S
Mg468 O481 2.061 . S
O469 Mg468 1.926 . S
O469 Mg470 1.986 . S
O469 Mg471 1.917 . S
Mg470 O469 1.986 . S
Mg470 O477 2.042 . S
Mg470 O479 2.041 . S
Mg470 O485 2.038 . S
Mg470 O493 2.238 . S
Mg471 O469 1.917 . S
Mg471 O472 1.917 . S
Mg471 O482 2.106 . S
Mg471 O484 2.079 . S
Mg471 O493 2.106 . S
Mg471 O494 2.079 . S
O472 Mg471 1.917 . S
O472 Mg473 1.926 . S
O472 Mg474 1.986 . S
Mg473 O472 1.926 . S
Mg473 O487 1.984 . S
Mg473 O490 1.988 . S
Mg473 O491 2.061 . S
Mg474 O472 1.986 . S
Mg474 O482 2.238 . S
Mg474 O486 2.042 . S
Mg474 O488 2.041 1_556 S
Mg474 O495 2.038 . S
C475 O481 1.247 . S
C475 O482 1.289 . S
C476 O494 1.245 . S
C476 O495 1.274 . S
O477 C465 1.241 . S
O477 Mg470 2.042 . S
O478 C465 1.280 . S
O478 Mg468 1.984 . S
O479 C466 1.277 . S
O479 Mg470 2.041 . S
O480 C466 1.245 . S
O480 Mg468 1.988 . S
O481 Mg468 2.061 . S
O481 C475 1.247 . S
O482 Mg471 2.106 . S
O482 Mg474 2.238 . S
O482 C475 1.289 . S
C483 O484 1.245 . S
C483 O485 1.274 . S
O484 Mg471 2.079 . S
O484 C483 1.245 . S
O485 Mg470 2.038 . S
O485 C483 1.274 . S
O486 Mg474 2.042 . S
O486 C489 1.241 . S
O487 Mg473 1.984 . S
O487 C489 1.280 . S
O488 Mg474 2.041 1_554 S
O488 C492 1.277 . S
C489 O486 1.241 . S
C489 O487 1.280 . S
O490 Mg473 1.988 . S
O490 C492 1.245 1_556 S
O491 C467 1.247 . S
O491 Mg473 2.061 . S
C492 O488 1.277 . S
C492 O490 1.245 1_554 S
O493 C467 1.289 . S
O493 Mg470 2.238 . S
O493 Mg471 2.106 . S
O494 Mg471 2.079 . S
O494 C476 1.245 . S
O495 Mg474 2.038 . S
O495 C476 1.274 . S
C496 O508 1.241 . S
C496 O509 1.280 . S
C497 O510 1.277 . S
C497 O511 1.245 . S
C498 O522 1.247 . S
C498 O524 1.289 . S
Mg499 O500 1.926 . S
Mg499 O509 1.984 . S
Mg499 O511 1.988 . S
Mg499 O512 2.061 . S
O500 Mg499 1.926 . S
O500 Mg501 1.986 . S
O500 Mg502 1.917 . S
Mg501 O500 1.986 . S
Mg501 O508 2.042 . S
Mg501 O510 2.041 . S
Mg501 O516 2.038 . S
Mg501 O524 2.238 . S
Mg502 O500 1.917 . S
Mg502 O503 1.917 . S
Mg502 O513 2.106 . S
Mg502 O515 2.079 . S
Mg502 O524 2.106 . S
Mg502 O525 2.079 . S
O503 Mg502 1.917 . S
O503 Mg504 1.926 . S
O503 Mg505 1.986 . S
Mg504 O503 1.926 . S
Mg504 O518 1.984 . S
Mg504 O521 1.988 . S
Mg504 O522 2.061 . S
Mg505 O503 1.986 . S
Mg505 O513 2.238 . S
Mg505 O517 2.042 . S
Mg505 O519 2.041 . S
Mg505 O526 2.038 . S
C506 O512 1.247 . S
C506 O513 1.289 . S
C507 O525 1.245 . S
C507 O526 1.274 . S
O508 C496 1.241 . S
O508 Mg501 2.042 . S
O509 C496 1.280 . S
O509 Mg499 1.984 . S
O510 C497 1.277 . S
O510 Mg501 2.041 . S
O511 C497 1.245 . S
O511 Mg499 1.988 . S
O512 Mg499 2.061 . S
O512 C506 1.247 . S
O513 Mg502 2.106 . S
O513 Mg505 2.238 . S
O513 C506 1.289 . S
C514 O515 1.245 . S
C514 O516 1.274 . S
O515 Mg502 2.079 . S
O515 C514 1.245 . S
O516 Mg501 2.038 . S
O516 C514 1.274 . S
O517 Mg505 2.042 . S
O517 C520 1.241 . S
O518 Mg504 1.984 . S
O518 C520 1.280 . S
O519 Mg505 2.041 . S
O519 C523 1.277 . S
C520 O517 1.241 . S
C520 O518 1.280 . S
O521 Mg504 1.988 . S
O521 C523 1.245 . S
O522 C498 1.247 . S
O522 Mg504 2.061 . S
C523 O519 1.277 . S
C523 O521 1.245 . S
O524 C498 1.289 . S
O524 Mg501 2.238 . S
O524 Mg502 2.106 . S
O525 Mg502 2.079 . S
O525 C507 1.245 . S
O526 Mg505 2.038 . S
O526 C507 1.274 . S
C527 O539 1.241 . S
C527 O540 1.280 . S
C528 O541 1.277 . S
C528 O542 1.245 . S
C529 O553 1.247 . S
C529 O555 1.289 . S
Mg530 O531 1.926 . S
Mg530 O540 1.984 . S
Mg530 O542 1.988 . S
Mg530 O543 2.061 . S
O531 Mg530 1.926 . S
O531 Mg532 1.986 . S
O531 Mg533 1.917 . S
Mg532 O531 1.986 . S
Mg532 O539 2.042 . S
Mg532 O541 2.041 . S
Mg532 O547 2.038 . S
Mg532 O555 2.238 . S
Mg533 O531 1.917 . S
Mg533 O534 1.917 . S
Mg533 O544 2.106 . S
Mg533 O546 2.079 . S
Mg533 O555 2.106 . S
Mg533 O556 2.079 . S
O534 Mg533 1.917 . S
O534 Mg535 1.926 . S
O534 Mg536 1.986 . S
Mg535 O534 1.926 . S
Mg535 O549 1.984 . S
Mg535 O552 1.988 . S
Mg535 O553 2.061 . S
Mg536 O534 1.986 . S
Mg536 O544 2.238 . S
Mg536 O548 2.042 . S
Mg536 O550 2.041 1_655 S
Mg536 O557 2.038 . S
C537 O543 1.247 . S
C537 O544 1.289 . S
C538 O556 1.245 . S
C538 O557 1.274 . S
O539 C527 1.241 . S
O539 Mg532 2.042 . S
O540 C527 1.280 . S
O540 Mg530 1.984 . S
O541 C528 1.277 . S
O541 Mg532 2.041 . S
O542 C528 1.245 . S
O542 Mg530 1.988 . S
O543 Mg530 2.061 . S
O543 C537 1.247 . S
O544 Mg533 2.106 . S
O544 Mg536 2.238 . S
O544 C537 1.289 . S
C545 O546 1.245 . S
C545 O547 1.274 . S
O546 Mg533 2.079 . S
O546 C545 1.245 . S
O547 Mg532 2.038 . S
O547 C545 1.274 . S
O548 Mg536 2.042 . S
O548 C551 1.241 . S
O549 Mg535 1.984 . S
O549 C551 1.280 . S
O550 Mg536 2.041 1_455 S
O550 C554 1.277 . S
C551 O548 1.241 . S
C551 O549 1.280 . S
O552 Mg535 1.988 . S
O552 C554 1.245 1_655 S
O553 C529 1.247 . S
O553 Mg535 2.061 . S
C554 O550 1.277 . S
C554 O552 1.245 1_455 S
O555 C529 1.289 . S
O555 Mg532 2.238 . S
O555 Mg533 2.106 . S
O556 Mg533 2.079 . S
O556 C538 1.245 . S
O557 Mg536 2.038 . S
O557 C538 1.274 . S
C558 O570 1.241 . S
C558 O571 1.280 . S
C559 O572 1.277 . S
C559 O573 1.245 . S
C560 O584 1.247 . S
C560 O586 1.289 . S
Mg561 O562 1.926 . S
Mg561 O571 1.984 . S
Mg561 O573 1.988 . S
Mg561 O574 2.061 . S
O562 Mg561 1.926 . S
O562 Mg563 1.986 . S
O562 Mg564 1.917 . S
Mg563 O562 1.986 . S
Mg563 O570 2.042 . S
Mg563 O572 2.041 . S
Mg563 O578 2.038 . S
Mg563 O586 2.238 . S
Mg564 O562 1.917 . S
Mg564 O565 1.917 . S
Mg564 O575 2.106 . S
Mg564 O577 2.079 . S
Mg564 O586 2.106 . S
Mg564 O587 2.079 . S
O565 Mg564 1.917 . S
O565 Mg566 1.926 . S
O565 Mg567 1.986 . S
Mg566 O565 1.926 . S
Mg566 O580 1.984 . S
Mg566 O583 1.988 . S
Mg566 O584 2.061 . S
Mg567 O565 1.986 . S
Mg567 O575 2.238 . S
Mg567 O579 2.042 . S
Mg567 O581 2.041 1_455 S
Mg567 O588 2.038 . S
C568 O574 1.247 . S
C568 O575 1.289 . S
C569 O587 1.245 . S
C569 O588 1.274 . S
O570 C558 1.241 . S
O570 Mg563 2.042 . S
O571 C558 1.280 . S
O571 Mg561 1.984 . S
O572 C559 1.277 . S
O572 Mg563 2.041 . S
O573 C559 1.245 . S
O573 Mg561 1.988 . S
O574 Mg561 2.061 . S
O574 C568 1.247 . S
O575 Mg564 2.106 . S
O575 Mg567 2.238 . S
O575 C568 1.289 . S
C576 O577 1.245 . S
C576 O578 1.274 . S
O577 Mg564 2.079 . S
O577 C576 1.245 . S
O578 Mg563 2.038 . S
O578 C576 1.274 . S
O579 Mg567 2.042 . S
O579 C582 1.241 . S
O580 Mg566 1.984 . S
O580 C582 1.280 . S
O581 Mg567 2.041 1_655 S
O581 C585 1.277 . S
C582 O579 1.241 . S
C582 O580 1.280 . S
O583 Mg566 1.988 . S
O583 C585 1.245 1_455 S
O584 C560 1.247 . S
O584 Mg566 2.061 . S
C585 O581 1.277 . S
C585 O583 1.245 1_655 S
O586 C560 1.289 . S
O586 Mg563 2.238 . S
O586 Mg564 2.106 . S
O587 Mg564 2.079 . S
O587 C569 1.245 . S
O588 Mg567 2.038 . S
O588 C569 1.274 . S
C589 O601 1.241 . S
C589 O602 1.280 . S
C590 O603 1.277 . S
C590 O604 1.245 . S
C591 O615 1.247 . S
C591 O617 1.289 . S
Mg592 O593 1.926 . S
Mg592 O602 1.984 . S
Mg592 O604 1.988 . S
Mg592 O605 2.061 . S
O593 Mg592 1.926 . S
O593 Mg594 1.986 . S
O593 Mg595 1.917 . S
Mg594 O593 1.986 . S
Mg594 O601 2.042 . S
Mg594 O603 2.041 . S
Mg594 O609 2.038 . S
Mg594 O617 2.238 . S
Mg595 O593 1.917 . S
Mg595 O596 1.917 . S
Mg595 O606 2.106 . S
Mg595 O608 2.079 . S
Mg595 O617 2.106 . S
Mg595 O618 2.079 . S
O596 Mg595 1.917 . S
O596 Mg597 1.926 . S
O596 Mg598 1.986 . S
Mg597 O596 1.926 . S
Mg597 O611 1.984 . S
Mg597 O614 1.988 . S
Mg597 O615 2.061 . S
Mg598 O596 1.986 . S
Mg598 O606 2.238 . S
Mg598 O610 2.042 . S
Mg598 O612 2.041 . S
Mg598 O619 2.038 . S
C599 O605 1.247 . S
C599 O606 1.289 . S
C600 O618 1.245 . S
C600 O619 1.274 . S
O601 C589 1.241 . S
O601 Mg594 2.042 . S
O602 C589 1.280 . S
O602 Mg592 1.984 . S
O603 C590 1.277 . S
O603 Mg594 2.041 . S
O604 C590 1.245 . S
O604 Mg592 1.988 . S
O605 Mg592 2.061 . S
O605 C599 1.247 . S
O606 Mg595 2.106 . S
O606 Mg598 2.238 . S
O606 C599 1.289 . S
C607 O608 1.245 . S
C607 O609 1.274 . S
O608 Mg595 2.079 . S
O608 C607 1.245 . S
O609 Mg594 2.038 . S
O609 C607 1.274 . S
O610 Mg598 2.042 . S
O610 C613 1.241 . S
O611 Mg597 1.984 . S
O611 C613 1.280 . S
O612 Mg598 2.041 . S
O612 C616 1.277 . S
C613 O610 1.241 . S
C613 O611 1.280 . S
O614 Mg597 1.988 . S
O614 C616 1.245 . S
O615 C591 1.247 . S
O615 Mg597 2.061 . S
C616 O612 1.277 . S
C616 O614 1.245 . S
O617 C591 1.289 . S
O617 Mg594 2.238 . S
O617 Mg595 2.106 . S
O618 Mg595 2.079 . S
O618 C600 1.245 . S
O619 Mg598 2.038 . S
O619 C600 1.274 . S
C620 O632 1.241 . S
C620 O633 1.280 . S
C621 O634 1.277 . S
C621 O635 1.245 . S
C622 O646 1.247 . S
C622 O648 1.289 . S
Mg623 O624 1.926 . S
Mg623 O633 1.984 . S
Mg623 O635 1.988 . S
Mg623 O636 2.061 . S
O624 Mg623 1.926 . S
O624 Mg625 1.986 . S
O624 Mg626 1.917 . S
Mg625 O624 1.986 . S
Mg625 O632 2.042 . S
Mg625 O634 2.041 . S
Mg625 O640 2.038 . S
Mg625 O648 2.238 . S
Mg626 O624 1.917 . S
Mg626 O627 1.917 . S
Mg626 O637 2.106 . S
Mg626 O639 2.079 . S
Mg626 O648 2.106 . S
Mg626 O649 2.079 . S
O627 Mg626 1.917 . S
O627 Mg628 1.926 . S
O627 Mg629 1.986 . S
Mg628 O627 1.926 . S
Mg628 O642 1.984 . S
Mg628 O645 1.988 . S
Mg628 O646 2.061 . S
Mg629 O627 1.986 . S
Mg629 O637 2.238 . S
Mg629 O641 2.042 . S
Mg629 O643 2.041 . S
Mg629 O650 2.038 . S
C630 O636 1.247 . S
C630 O637 1.289 . S
C631 O649 1.245 . S
C631 O650 1.274 . S
O632 C620 1.241 . S
O632 Mg625 2.042 . S
O633 C620 1.280 . S
O633 Mg623 1.984 . S
O634 C621 1.277 . S
O634 Mg625 2.041 . S
O635 C621 1.245 . S
O635 Mg623 1.988 . S
O636 Mg623 2.061 . S
O636 C630 1.247 . S
O637 Mg626 2.106 . S
O637 Mg629 2.238 . S
O637 C630 1.289 . S
C638 O639 1.245 . S
C638 O640 1.274 . S
O639 Mg626 2.079 . S
O639 C638 1.245 . S
O640 Mg625 2.038 . S
O640 C638 1.274 . S
O641 Mg629 2.042 . S
O641 C644 1.241 . S
O642 Mg628 1.984 . S
O642 C644 1.280 . S
O643 Mg629 2.041 . S
O643 C647 1.277 . S
C644 O641 1.241 . S
C644 O642 1.280 . S
O645 Mg628 1.988 . S
O645 C647 1.245 . S
O646 C622 1.247 . S
O646 Mg628 2.061 . S
C647 O643 1.277 . S
C647 O645 1.245 . S
O648 C622 1.289 . S
O648 Mg625 2.238 . S
O648 Mg626 2.106 . S
O649 Mg626 2.079 . S
O649 C631 1.245 . S
O650 Mg629 2.038 . S
O650 C631 1.274 . S
C651 O663 1.241 . S
C651 O664 1.280 . S
C652 O665 1.277 . S
C652 O666 1.245 . S
C653 O677 1.247 . S
C653 O679 1.289 . S
Mg654 O655 1.926 . S
Mg654 O664 1.984 . S
Mg654 O666 1.988 . S
Mg654 O667 2.061 . S
O655 Mg654 1.926 . S
O655 Mg656 1.986 . S
O655 Mg657 1.917 . S
Mg656 O655 1.986 . S
Mg656 O663 2.042 . S
Mg656 O665 2.041 . S
Mg656 O671 2.038 . S
Mg656 O679 2.238 . S
Mg657 O655 1.917 . S
Mg657 O658 1.917 . S
Mg657 O668 2.106 . S
Mg657 O670 2.079 . S
Mg657 O679 2.106 . S
Mg657 O680 2.079 . S
O658 Mg657 1.917 . S
O658 Mg659 1.926 . S
O658 Mg660 1.986 . S
Mg659 O658 1.926 . S
Mg659 O673 1.984 . S
Mg659 O676 1.988 . S
Mg659 O677 2.061 . S
Mg660 O658 1.986 . S
Mg660 O668 2.238 . S
Mg660 O672 2.042 . S
Mg660 O674 2.041 1_565 S
Mg660 O681 2.038 . S
C661 O667 1.247 . S
C661 O668 1.289 . S
C662 O680 1.245 . S
C662 O681 1.274 . S
O663 C651 1.241 . S
O663 Mg656 2.042 . S
O664 C651 1.280 . S
O664 Mg654 1.984 . S
O665 C652 1.277 . S
O665 Mg656 2.041 . S
O666 C652 1.245 . S
O666 Mg654 1.988 . S
O667 Mg654 2.061 . S
O667 C661 1.247 . S
O668 Mg657 2.106 . S
O668 Mg660 2.238 . S
O668 C661 1.289 . S
C669 O670 1.245 . S
C669 O671 1.274 . S
O670 Mg657 2.079 . S
O670 C669 1.245 . S
O671 Mg656 2.038 . S
O671 C669 1.274 . S
O672 Mg660 2.042 . S
O672 C675 1.241 . S
O673 Mg659 1.984 . S
O673 C675 1.280 . S
O674 Mg660 2.041 1_545 S
O674 C678 1.277 . S
C675 O672 1.241 . S
C675 O673 1.280 . S
O676 Mg659 1.988 . S
O676 C678 1.245 1_565 S
O677 C653 1.247 . S
O677 Mg659 2.061 . S
C678 O674 1.277 . S
C678 O676 1.245 1_545 S
O679 C653 1.289 . S
O679 Mg656 2.238 . S
O679 Mg657 2.106 . S
O680 Mg657 2.079 . S
O680 C662 1.245 . S
O681 Mg660 2.038 . S
O681 C662 1.274 . S
C682 O694 1.241 . S
C682 O695 1.280 . S
C683 O696 1.277 . S
C683 O697 1.245 . S
C684 O708 1.247 . S
C684 O710 1.289 . S
Mg685 O686 1.926 . S
Mg685 O695 1.984 . S
Mg685 O697 1.988 . S
Mg685 O698 2.061 . S
O686 Mg685 1.926 . S
O686 Mg687 1.986 . S
O686 Mg688 1.917 . S
Mg687 O686 1.986 . S
Mg687 O694 2.042 . S
Mg687 O696 2.041 . S
Mg687 O702 2.038 . S
Mg687 O710 2.238 . S
Mg688 O686 1.917 . S
Mg688 O689 1.917 . S
Mg688 O699 2.106 . S
Mg688 O701 2.079 . S
Mg688 O710 2.106 . S
Mg688 O711 2.079 . S
O689 Mg688 1.917 . S
O689 Mg690 1.926 . S
O689 Mg691 1.986 . S
Mg690 O689 1.926 . S
Mg690 O704 1.984 . S
Mg690 O707 1.988 . S
Mg690 O708 2.061 . S
Mg691 O689 1.986 . S
Mg691 O699 2.238 . S
Mg691 O703 2.042 . S
Mg691 O705 2.041 1_545 S
Mg691 O712 2.038 . S
C692 O698 1.247 . S
C692 O699 1.289 . S
C693 O711 1.245 . S
C693 O712 1.274 . S
O694 C682 1.241 . S
O694 Mg687 2.042 . S
O695 C682 1.280 . S
O695 Mg685 1.984 . S
O696 C683 1.277 . S
O696 Mg687 2.041 . S
O697 C683 1.245 . S
O697 Mg685 1.988 . S
O698 Mg685 2.061 . S
O698 C692 1.247 . S
O699 Mg688 2.106 . S
O699 Mg691 2.238 . S
O699 C692 1.289 . S
C700 O701 1.245 . S
C700 O702 1.274 . S
O701 Mg688 2.079 . S
O701 C700 1.245 . S
O702 Mg687 2.038 . S
O702 C700 1.274 . S
O703 Mg691 2.042 . S
O703 C706 1.241 . S
O704 Mg690 1.984 . S
O704 C706 1.280 . S
O705 Mg691 2.041 1_565 S
O705 C709 1.277 . S
C706 O703 1.241 . S
C706 O704 1.280 . S
O707 Mg690 1.988 . S
O707 C709 1.245 1_545 S
O708 C684 1.247 . S
O708 Mg690 2.061 . S
C709 O705 1.277 . S
C709 O707 1.245 1_565 S
O710 C684 1.289 . S
O710 Mg687 2.238 . S
O710 Mg688 2.106 . S
O711 Mg688 2.079 . S
O711 C693 1.245 . S
O712 Mg691 2.038 . S
O712 C693 1.274 . S
C713 O725 1.241 . S
C713 O726 1.280 . S
C714 O727 1.277 . S
C714 O728 1.245 . S
C715 O739 1.247 . S
C715 O741 1.289 . S
Mg716 O717 1.926 . S
Mg716 O726 1.984 . S
Mg716 O728 1.988 . S
Mg716 O729 2.061 . S
O717 Mg716 1.926 . S
O717 Mg718 1.986 . S
O717 Mg719 1.917 . S
Mg718 O717 1.986 . S
Mg718 O725 2.042 . S
Mg718 O727 2.041 . S
Mg718 O733 2.038 . S
Mg718 O741 2.238 . S
Mg719 O717 1.917 . S
Mg719 O720 1.917 . S
Mg719 O730 2.106 . S
Mg719 O732 2.079 . S
Mg719 O741 2.106 . S
Mg719 O742 2.079 . S
O720 Mg719 1.917 . S
O720 Mg721 1.926 . S
O720 Mg722 1.986 . S
Mg721 O720 1.926 . S
Mg721 O735 1.984 . S
Mg721 O738 1.988 . S
Mg721 O739 2.061 . S
Mg722 O720 1.986 . S
Mg722 O730 2.238 . S
Mg722 O734 2.042 . S
Mg722 O736 2.041 . S
Mg722 O743 2.038 . S
C723 O729 1.247 . S
C723 O730 1.289 . S
C724 O742 1.245 . S
C724 O743 1.274 . S
O725 C713 1.241 . S
O725 Mg718 2.042 . S
O726 C713 1.280 . S
O726 Mg716 1.984 . S
O727 C714 1.277 . S
O727 Mg718 2.041 . S
O728 C714 1.245 . S
O728 Mg716 1.988 . S
O729 Mg716 2.061 . S
O729 C723 1.247 . S
O730 Mg719 2.106 . S
O730 Mg722 2.238 . S
O730 C723 1.289 . S
C731 O732 1.245 . S
C731 O733 1.274 . S
O732 Mg719 2.079 . S
O732 C731 1.245 . S
O733 Mg718 2.038 . S
O733 C731 1.274 . S
O734 Mg722 2.042 . S
O734 C737 1.241 . S
O735 Mg721 1.984 . S
O735 C737 1.280 . S
O736 Mg722 2.041 . S
O736 C740 1.277 . S
C737 O734 1.241 . S
C737 O735 1.280 . S
O738 Mg721 1.988 . S
O738 C740 1.245 . S
O739 C715 1.247 . S
O739 Mg721 2.061 . S
C740 O736 1.277 . S
C740 O738 1.245 . S
O741 C715 1.289 . S
O741 Mg718 2.238 . S
O741 Mg719 2.106 . S
O742 Mg719 2.079 . S
O742 C724 1.245 . S
O743 Mg722 2.038 . S
O743 C724 1.274 . S
H744 C750 0.930 . S
H745 C753 0.930 . S
H746 C754 0.930 . S
H747 C755 0.930 . S
H748 C758 0.930 . S
H749 C759 0.930 . S
C750 H744 0.930 . S
C750 C751 1.355 . S
C750 C752 1.415 . S
C751 C750 1.355 . S
C751 C753 1.419 . S
C752 C750 1.415 . S
C752 C757 1.425 . S
C752 C759 1.409 . S
C753 H745 0.930 . S
C753 C751 1.419 . S
C753 C754 1.362 . S
C754 H746 0.930 . S
C754 C753 1.362 . S
C754 C757 1.409 . S
C755 H747 0.930 . S
C755 C756 1.355 . S
C755 C757 1.415 . S
C756 C755 1.355 . S
C756 C758 1.419 . S
C757 C752 1.425 . S
C757 C754 1.409 . S
C757 C755 1.415 . S
C758 H748 0.930 . S
C758 C756 1.419 . S
C758 C759 1.362 . S
C759 H749 0.930 . S
C759 C752 1.409 . S
C759 C758 1.362 . S
H760 C766 0.930 . S
H761 C769 0.930 . S
H762 C770 0.930 . S
H763 C771 0.930 . S
H764 C774 0.930 . S
H765 C775 0.930 . S
C766 H760 0.930 . S
C766 C767 1.355 . S
C766 C768 1.415 . S
C767 C766 1.355 . S
C767 C769 1.419 . S
C768 C766 1.415 . S
C768 C773 1.425 . S
C768 C775 1.409 . S
C769 H761 0.930 . S
C769 C767 1.419 . S
C769 C770 1.362 . S
C770 H762 0.930 . S
C770 C769 1.362 . S
C770 C773 1.409 . S
C771 H763 0.930 . S
C771 C772 1.355 . S
C771 C773 1.415 . S
C772 C771 1.355 . S
C772 C774 1.419 . S
C773 C768 1.425 . S
C773 C770 1.409 . S
C773 C771 1.415 . S
C774 H764 0.930 . S
C774 C772 1.419 . S
C774 C775 1.362 . S
C775 H765 0.930 . S
C775 C768 1.409 . S
C775 C774 1.362 . S
H776 C782 0.930 . S
H777 C785 0.930 . S
H778 C786 0.930 . S
H779 C787 0.930 . S
H780 C790 0.930 . S
H781 C791 0.930 . S
C782 H776 0.930 . S
C782 C783 1.355 . S
C782 C784 1.415 . S
C783 C782 1.355 . S
C783 C785 1.419 . S
C784 C782 1.415 . S
C784 C789 1.425 . S
C784 C791 1.409 . S
C785 H777 0.930 . S
C785 C783 1.419 . S
C785 C786 1.362 . S
C786 H778 0.930 . S
C786 C785 1.362 . S
C786 C789 1.409 . S
C787 H779 0.930 . S
C787 C788 1.355 . S
C787 C789 1.415 . S
C788 C787 1.355 . S
C788 C790 1.419 . S
C789 C784 1.425 . S
C789 C786 1.409 . S
C789 C787 1.415 . S
C790 H780 0.930 . S
C790 C788 1.419 . S
C790 C791 1.362 . S
C791 H781 0.930 . S
C791 C784 1.409 . S
C791 C790 1.362 . S
H792 C798 0.930 . S
H793 C801 0.930 . S
H794 C802 0.930 . S
H795 C803 0.930 . S
H796 C806 0.930 . S
H797 C807 0.930 . S
C798 H792 0.930 . S
C798 C799 1.355 . S
C798 C800 1.415 . S
C799 C798 1.355 . S
C799 C801 1.419 . S
C800 C798 1.415 . S
C800 C805 1.425 . S
C800 C807 1.409 . S
C801 H793 0.930 . S
C801 C799 1.419 . S
C801 C802 1.362 . S
C802 H794 0.930 . S
C802 C801 1.362 . S
C802 C805 1.409 . S
C803 H795 0.930 . S
C803 C804 1.355 . S
C803 C805 1.415 . S
C804 C803 1.355 . S
C804 C806 1.419 . S
C805 C800 1.425 . S
C805 C802 1.409 . S
C805 C803 1.415 . S
C806 H796 0.930 . S
C806 C804 1.419 . S
C806 C807 1.362 . S
C807 H797 0.930 . S
C807 C800 1.409 . S
C807 C806 1.362 . S
H808 C814 0.930 . S
H809 C817 0.930 . S
H810 C818 0.930 . S
H811 C819 0.930 . S
H812 C822 0.930 . S
H813 C823 0.930 . S
C814 H808 0.930 . S
C814 C815 1.355 . S
C814 C816 1.415 . S
C815 C814 1.355 . S
C815 C817 1.419 . S
C816 C814 1.415 . S
C816 C821 1.425 . S
C816 C823 1.409 . S
C817 H809 0.930 . S
C817 C815 1.419 . S
C817 C818 1.362 . S
C818 H810 0.930 . S
C818 C817 1.362 . S
C818 C821 1.409 . S
C819 H811 0.930 . S
C819 C820 1.355 . S
C819 C821 1.415 . S
C820 C819 1.355 . S
C820 C822 1.419 . S
C821 C816 1.425 . S
C821 C818 1.409 . S
C821 C819 1.415 . S
C822 H812 0.930 . S
C822 C820 1.419 . S
C822 C823 1.362 . S
C823 H813 0.930 . S
C823 C816 1.409 . S
C823 C822 1.362 . S
H824 C830 0.930 . S
H825 C833 0.930 . S
H826 C834 0.930 . S
H827 C835 0.930 . S
H828 C838 0.930 . S
H829 C839 0.930 . S
C830 H824 0.930 . S
C830 C831 1.355 . S
C830 C832 1.415 . S
C831 C830 1.355 . S
C831 C833 1.419 . S
C832 C830 1.415 . S
C832 C837 1.425 . S
C832 C839 1.409 . S
C833 H825 0.930 . S
C833 C831 1.419 . S
C833 C834 1.362 . S
C834 H826 0.930 . S
C834 C833 1.362 . S
C834 C837 1.409 . S
C835 H827 0.930 . S
C835 C836 1.355 . S
C835 C837 1.415 . S
C836 C835 1.355 . S
C836 C838 1.419 . S
C837 C832 1.425 . S
C837 C834 1.409 . S
C837 C835 1.415 . S
C838 H828 0.930 . S
C838 C836 1.419 . S
C838 C839 1.362 . S
C839 H829 0.930 . S
C839 C832 1.409 . S
C839 C838 1.362 . S
H840 C846 0.930 . S
H841 C849 0.930 . S
H842 C850 0.930 . S
H843 C851 0.930 . S
H844 C854 0.930 . S
H845 C855 0.930 . S
C846 H840 0.930 . S
C846 C847 1.355 . S
C846 C848 1.415 . S
C847 C846 1.355 . S
C847 C849 1.419 . S
C848 C846 1.415 . S
C848 C853 1.425 . S
C848 C855 1.409 . S
C849 H841 0.930 . S
C849 C847 1.419 . S
C849 C850 1.362 . S
C850 H842 0.930 . S
C850 C849 1.362 . S
C850 C853 1.409 . S
C851 H843 0.930 . S
C851 C852 1.355 . S
C851 C853 1.415 . S
C852 C851 1.355 . S
C852 C854 1.419 . S
C853 C848 1.425 . S
C853 C850 1.409 . S
C853 C851 1.415 . S
C854 H844 0.930 . S
C854 C852 1.419 . S
C854 C855 1.362 . S
C855 H845 0.930 . S
C855 C848 1.409 . S
C855 C854 1.362 . S
H856 C862 0.930 . S
H857 C865 0.930 . S
H858 C866 0.930 . S
H859 C867 0.930 . S
H860 C870 0.930 . S
H861 C871 0.930 . S
C862 H856 0.930 . S
C862 C863 1.355 . S
C862 C864 1.415 . S
C863 C862 1.355 . S
C863 C865 1.419 . S
C864 C862 1.415 . S
C864 C869 1.425 . S
C864 C871 1.409 . S
C865 H857 0.930 . S
C865 C863 1.419 . S
C865 C866 1.362 . S
C866 H858 0.930 . S
C866 C865 1.362 . S
C866 C869 1.409 . S
C867 H859 0.930 . S
C867 C868 1.355 . S
C867 C869 1.415 . S
C868 C867 1.355 . S
C868 C870 1.419 . S
C869 C864 1.425 . S
C869 C866 1.409 . S
C869 C867 1.415 . S
C870 H860 0.930 . S
C870 C868 1.419 . S
C870 C871 1.362 . S
C871 H861 0.930 . S
C871 C864 1.409 . S
C871 C870 1.362 . S
H872 C878 0.930 . S
H873 C881 0.930 . S
H874 C882 0.930 . S
H875 C883 0.930 . S
H876 C886 0.930 . S
H877 C887 0.930 . S
C878 H872 0.930 . S
C878 C879 1.355 . S
C878 C880 1.415 . S
C879 C878 1.355 . S
C879 C881 1.419 . S
C880 C878 1.415 . S
C880 C885 1.425 . S
C880 C887 1.409 . S
C881 H873 0.930 . S
C881 C879 1.419 . S
C881 C882 1.362 . S
C882 H874 0.930 . S
C882 C881 1.362 . S
C882 C885 1.409 . S
C883 H875 0.930 . S
C883 C884 1.355 . S
C883 C885 1.415 . S
C884 C883 1.355 . S
C884 C886 1.419 . S
C885 C880 1.425 . S
C885 C882 1.409 . S
C885 C883 1.415 . S
C886 H876 0.930 . S
C886 C884 1.419 . S
C886 C887 1.362 . S
C887 H877 0.930 . S
C887 C880 1.409 . S
C887 C886 1.362 . S
H888 C894 0.930 . S
H889 C897 0.930 1_455 S
H890 C898 0.930 . S
H891 C899 0.930 . S
H892 C902 0.930 . S
H893 C903 0.930 . S
C894 H888 0.930 . S
C894 C895 1.355 . S
C894 C896 1.415 . S
C895 C894 1.355 . S
C895 C897 1.419 . S
C896 C894 1.415 . S
C896 C901 1.425 . S
C896 C903 1.409 . S
C897 H889 0.930 1_655 S
C897 C895 1.419 . S
C897 C898 1.362 . S
C898 H890 0.930 . S
C898 C897 1.362 . S
C898 C901 1.409 . S
C899 H891 0.930 . S
C899 C900 1.355 . S
C899 C901 1.415 . S
C900 C899 1.355 . S
C900 C902 1.419 . S
C901 C896 1.425 . S
C901 C898 1.409 . S
C901 C899 1.415 . S
C902 H892 0.930 . S
C902 C900 1.419 . S
C902 C903 1.362 . S
C903 H893 0.930 . S
C903 C896 1.409 . S
C903 C902 1.362 . S
H904 C910 0.930 . S
H905 C913 0.930 . S
H906 C914 0.930 . S
H907 C915 0.930 . S
H908 C918 0.930 . S
H909 C919 0.930 . S
C910 H904 0.930 . S
C910 C911 1.355 . S
C910 C912 1.415 . S
C911 C910 1.355 . S
C911 C913 1.419 . S
C912 C910 1.415 . S
C912 C917 1.425 . S
C912 C919 1.409 . S
C913 H905 0.930 . S
C913 C911 1.419 . S
C913 C914 1.362 . S
C914 H906 0.930 . S
C914 C913 1.362 . S
C914 C917 1.409 . S
C915 H907 0.930 . S
C915 C916 1.355 . S
C915 C917 1.415 . S
C916 C915 1.355 . S
C916 C918 1.419 . S
C917 C912 1.425 . S
C917 C914 1.409 . S
C917 C915 1.415 . S
C918 H908 0.930 . S
C918 C916 1.419 . S
C918 C919 1.362 . S
C919 H909 0.930 . S
C919 C912 1.409 . S
C919 C918 1.362 . S
H920 C926 0.930 . S
H921 C929 0.930 . S
H922 C930 0.930 . S
H923 C931 0.930 . S
H924 C934 0.930 . S
H925 C935 0.930 . S
C926 H920 0.930 . S
C926 C927 1.355 . S
C926 C928 1.415 . S
C927 C926 1.355 . S
C927 C929 1.419 . S
C928 C926 1.415 . S
C928 C933 1.425 . S
C928 C935 1.409 . S
C929 H921 0.930 . S
C929 C927 1.419 . S
C929 C930 1.362 . S
C930 H922 0.930 . S
C930 C929 1.362 . S
C930 C933 1.409 . S
C931 H923 0.930 . S
C931 C932 1.355 . S
C931 C933 1.415 . S
C932 C931 1.355 . S
C932 C934 1.419 . S
C933 C928 1.425 . S
C933 C930 1.409 . S
C933 C931 1.415 . S
C934 H924 0.930 . S
C934 C932 1.419 . S
C934 C935 1.362 . S
C935 H925 0.930 . S
C935 C928 1.409 . S
C935 C934 1.362 . S
H936 C942 0.930 . S
H937 C945 0.930 . S
H938 C946 0.930 . S
H939 C947 0.930 . S
H940 C950 0.930 . S
H941 C951 0.930 . S
C942 H936 0.930 . S
C942 C943 1.355 . S
C942 C944 1.415 . S
C943 C942 1.355 . S
C943 C945 1.419 . S
C944 C942 1.415 . S
C944 C949 1.425 . S
C944 C951 1.409 . S
C945 H937 0.930 . S
C945 C943 1.419 . S
C945 C946 1.362 . S
C946 H938 0.930 . S
C946 C945 1.362 . S
C946 C949 1.409 . S
C947 H939 0.930 . S
C947 C948 1.355 . S
C947 C949 1.415 . S
C948 C947 1.355 . S
C948 C950 1.419 . S
C949 C944 1.425 . S
C949 C946 1.409 . S
C949 C947 1.415 . S
C950 H940 0.930 . S
C950 C948 1.419 . S
C950 C951 1.362 . S
C951 H941 0.930 . S
C951 C944 1.409 . S
C951 C950 1.362 . S
H952 C958 0.930 . S
H953 C961 0.930 . S
H954 C962 0.930 . S
H955 C963 0.930 . S
H956 C966 0.930 . S
H957 C967 0.930 . S
C958 H952 0.930 . S
C958 C959 1.355 . S
C958 C960 1.415 . S
C959 C958 1.355 . S
C959 C961 1.419 . S
C960 C958 1.415 . S
C960 C965 1.425 . S
C960 C967 1.409 . S
C961 H953 0.930 . S
C961 C959 1.419 . S
C961 C962 1.362 . S
C962 H954 0.930 . S
C962 C961 1.362 . S
C962 C965 1.409 . S
C963 H955 0.930 . S
C963 C964 1.355 . S
C963 C965 1.415 . S
C964 C963 1.355 . S
C964 C966 1.419 . S
C965 C960 1.425 . S
C965 C962 1.409 . S
C965 C963 1.415 . S
C966 H956 0.930 . S
C966 C964 1.419 . S
C966 C967 1.362 . S
C967 H957 0.930 . S
C967 C960 1.409 . S
C967 C966 1.362 . S
H968 C974 0.930 . S
H969 C977 0.930 . S
H970 C978 0.930 . S
H971 C979 0.930 . S
H972 C982 0.930 . S
H973 C983 0.930 . S
C974 H968 0.930 . S
C974 C975 1.355 . S
C974 C976 1.415 . S
C975 C974 1.355 . S
C975 C977 1.419 . S
C976 C974 1.415 . S
C976 C981 1.425 . S
C976 C983 1.409 . S
C977 H969 0.930 . S
C977 C975 1.419 . S
C977 C978 1.362 . S
C978 H970 0.930 . S
C978 C977 1.362 . S
C978 C981 1.409 . S
C979 H971 0.930 . S
C979 C980 1.355 . S
C979 C981 1.415 . S
C980 C979 1.355 . S
C980 C982 1.419 . S
C981 C976 1.425 . S
C981 C978 1.409 . S
C981 C979 1.415 . S
C982 H972 0.930 . S
C982 C980 1.419 . S
C982 C983 1.362 . S
C983 H973 0.930 . S
C983 C976 1.409 . S
C983 C982 1.362 . S
H984 C990 0.930 . S
H985 C993 0.930 . S
H986 C994 0.930 . S
H987 C995 0.930 . S
H988 C998 0.930 . S
H989 C999 0.930 . S
C990 H984 0.930 . S
C990 C991 1.355 . S
C990 C992 1.415 . S
C991 C990 1.355 . S
C991 C993 1.419 . S
C992 C990 1.415 . S
C992 C997 1.425 . S
C992 C999 1.409 . S
C993 H985 0.930 . S
C993 C991 1.419 . S
C993 C994 1.362 . S
C994 H986 0.930 . S
C994 C993 1.362 . S
C994 C997 1.409 . S
C995 H987 0.930 . S
C995 C996 1.355 . S
C995 C997 1.415 . S
C996 C995 1.355 . S
C996 C998 1.419 . S
C997 C992 1.425 . S
C997 C994 1.409 . S
C997 C995 1.415 . S
C998 H988 0.930 . S
C998 C996 1.419 . S
C998 C999 1.362 . S
C999 H989 0.930 . S
C999 C992 1.409 . S
C999 C998 1.362 . S
H1000 C1006 0.930 . S
H1001 C1009 0.930 . S
H1002 C1010 0.930 . S
H1003 C1011 0.930 . S
H1004 C1014 0.930 . S
H1005 C1015 0.930 . S
C1006 H1000 0.930 . S
C1006 C1007 1.355 . S
C1006 C1008 1.415 . S
C1007 C1006 1.355 . S
C1007 C1009 1.419 . S
C1008 C1006 1.415 . S
C1008 C1013 1.425 . S
C1008 C1015 1.409 . S
C1009 H1001 0.930 . S
C1009 C1007 1.419 . S
C1009 C1010 1.362 . S
C1010 H1002 0.930 . S
C1010 C1009 1.362 . S
C1010 C1013 1.409 . S
C1011 H1003 0.930 . S
C1011 C1012 1.355 . S
C1011 C1013 1.415 . S
C1012 C1011 1.355 . S
C1012 C1014 1.419 . S
C1013 C1008 1.425 . S
C1013 C1010 1.409 . S
C1013 C1011 1.415 . S
C1014 H1004 0.930 . S
C1014 C1012 1.419 . S
C1014 C1015 1.362 . S
C1015 H1005 0.930 . S
C1015 C1008 1.409 . S
C1015 C1014 1.362 . S
H1016 C1022 0.930 . S
H1017 C1025 0.930 . S
H1018 C1026 0.930 . S
H1019 C1027 0.930 . S
H1020 C1030 0.930 1_556 S
H1021 C1031 0.930 . S
C1022 H1016 0.930 . S
C1022 C1023 1.355 . S
C1022 C1024 1.415 . S
C1023 C1022 1.355 . S
C1023 C1025 1.419 . S
C1024 C1022 1.415 . S
C1024 C1029 1.425 . S
C1024 C1031 1.409 . S
C1025 H1017 0.930 . S
C1025 C1023 1.419 . S
C1025 C1026 1.362 . S
C1026 H1018 0.930 . S
C1026 C1025 1.362 . S
C1026 C1029 1.409 . S
C1027 H1019 0.930 . S
C1027 C1028 1.355 . S
C1027 C1029 1.415 . S
C1028 C1027 1.355 . S
C1028 C1030 1.419 . S
C1029 C1024 1.425 . S
C1029 C1026 1.409 . S
C1029 C1027 1.415 . S
C1030 H1020 0.930 1_554 S
C1030 C1028 1.419 . S
C1030 C1031 1.362 . S
C1031 H1021 0.930 . S
C1031 C1024 1.409 . S
C1031 C1030 1.362 . S
H1032 C1038 0.930 . S
H1033 C1041 0.930 . S
H1034 C1042 0.930 . S
H1035 C1043 0.930 . S
H1036 C1046 0.930 . S
H1037 C1047 0.930 . S
C1038 H1032 0.930 . S
C1038 C1039 1.355 . S
C1038 C1040 1.415 . S
C1039 C1038 1.355 . S
C1039 C1041 1.419 . S
C1040 C1038 1.415 . S
C1040 C1045 1.425 . S
C1040 C1047 1.409 . S
C1041 H1033 0.930 . S
C1041 C1039 1.419 . S
C1041 C1042 1.362 . S
C1042 H1034 0.930 . S
C1042 C1041 1.362 . S
C1042 C1045 1.409 . S
C1043 H1035 0.930 . S
C1043 C1044 1.355 . S
C1043 C1045 1.415 . S
C1044 C1043 1.355 . S
C1044 C1046 1.419 . S
C1045 C1040 1.425 . S
C1045 C1042 1.409 . S
C1045 C1043 1.415 . S
C1046 H1036 0.930 . S
C1046 C1044 1.419 . S
C1046 C1047 1.362 . S
C1047 H1037 0.930 . S
C1047 C1040 1.409 . S
C1047 C1046 1.362 . S
H1048 C1054 0.930 . S
H1049 C1057 0.930 . S
H1050 C1058 0.930 . S
H1051 C1059 0.930 . S
H1052 C1062 0.930 . S
H1053 C1063 0.930 . S
C1054 H1048 0.930 . S
C1054 C1055 1.355 . S
C1054 C1056 1.415 . S
C1055 C1054 1.355 . S
C1055 C1057 1.419 . S
C1056 C1054 1.415 . S
C1056 C1061 1.425 . S
C1056 C1063 1.409 . S
C1057 H1049 0.930 . S
C1057 C1055 1.419 . S
C1057 C1058 1.362 . S
C1058 H1050 0.930 . S
C1058 C1057 1.362 . S
C1058 C1061 1.409 . S
C1059 H1051 0.930 . S
C1059 C1060 1.355 . S
C1059 C1061 1.415 . S
C1060 C1059 1.355 . S
C1060 C1062 1.419 . S
C1061 C1056 1.425 . S
C1061 C1058 1.409 . S
C1061 C1059 1.415 . S
C1062 H1052 0.930 . S
C1062 C1060 1.419 . S
C1062 C1063 1.362 . S
C1063 H1053 0.930 . S
C1063 C1056 1.409 . S
C1063 C1062 1.362 . S
H1064 C1070 0.930 . S
H1065 C1073 0.930 . S
H1066 C1074 0.930 . S
H1067 C1075 0.930 . S
H1068 C1078 0.930 . S
H1069 C1079 0.930 . S
C1070 H1064 0.930 . S
C1070 C1071 1.355 . S
C1070 C1072 1.415 . S
C1071 C1070 1.355 . S
C1071 C1073 1.419 . S
C1072 C1070 1.415 . S
C1072 C1077 1.425 . S
C1072 C1079 1.409 . S
C1073 H1065 0.930 . S
C1073 C1071 1.419 . S
C1073 C1074 1.362 . S
C1074 H1066 0.930 . S
C1074 C1073 1.362 . S
C1074 C1077 1.409 . S
C1075 H1067 0.930 . S
C1075 C1076 1.355 . S
C1075 C1077 1.415 . S
C1076 C1075 1.355 . S
C1076 C1078 1.419 . S
C1077 C1072 1.425 . S
C1077 C1074 1.409 . S
C1077 C1075 1.415 . S
C1078 H1068 0.930 . S
C1078 C1076 1.419 . S
C1078 C1079 1.362 . S
C1079 H1069 0.930 . S
C1079 C1072 1.409 . S
C1079 C1078 1.362 . S
H1080 C1086 0.930 . S
H1081 C1089 0.930 . S
H1082 C1090 0.930 . S
H1083 C1091 0.930 . S
H1084 C1094 0.930 . S
H1085 C1095 0.930 . S
C1086 H1080 0.930 . S
C1086 C1087 1.355 . S
C1086 C1088 1.415 . S
C1087 C1086 1.355 . S
C1087 C1089 1.419 . S
C1088 C1086 1.415 . S
C1088 C1093 1.425 . S
C1088 C1095 1.409 . S
C1089 H1081 0.930 . S
C1089 C1087 1.419 . S
C1089 C1090 1.362 . S
C1090 H1082 0.930 . S
C1090 C1089 1.362 . S
C1090 C1093 1.409 . S
C1091 H1083 0.930 . S
C1091 C1092 1.355 . S
C1091 C1093 1.415 . S
C1092 C1091 1.355 . S
C1092 C1094 1.419 . S
C1093 C1088 1.425 . S
C1093 C1090 1.409 . S
C1093 C1091 1.415 . S
C1094 H1084 0.930 . S
C1094 C1092 1.419 . S
C1094 C1095 1.362 . S
C1095 H1085 0.930 . S
C1095 C1088 1.409 . S
C1095 C1094 1.362 . S
H1096 C1102 0.930 . S
H1097 C1105 0.930 . S
H1098 C1106 0.930 . S
H1099 C1107 0.930 . S
H1100 C1110 0.930 . S
H1101 C1111 0.930 . S
C1102 H1096 0.930 . S
C1102 C1103 1.355 . S
C1102 C1104 1.415 . S
C1103 C1102 1.355 . S
C1103 C1105 1.419 . S
C1104 C1102 1.415 . S
C1104 C1109 1.425 . S
C1104 C1111 1.409 . S
C1105 H1097 0.930 . S
C1105 C1103 1.419 . S
C1105 C1106 1.362 . S
C1106 H1098 0.930 . S
C1106 C1105 1.362 . S
C1106 C1109 1.409 . S
C1107 H1099 0.930 . S
C1107 C1108 1.355 . S
C1107 C1109 1.415 . S
C1108 C1107 1.355 . S
C1108 C1110 1.419 . S
C1109 C1104 1.425 . S
C1109 C1106 1.409 . S
C1109 C1107 1.415 . S
C1110 H1100 0.930 . S
C1110 C1108 1.419 . S
C1110 C1111 1.362 . S
C1111 H1101 0.930 . S
C1111 C1104 1.409 . S
C1111 C1110 1.362 . S
H1112 C1118 0.930 . S
H1113 C1121 0.930 . S
H1114 C1122 0.930 . S
H1115 C1123 0.930 . S
H1116 C1126 0.930 . S
H1117 C1127 0.930 . S
C1118 H1112 0.930 . S
C1118 C1119 1.355 . S
C1118 C1120 1.415 . S
C1119 C1118 1.355 . S
C1119 C1121 1.419 . S
C1120 C1118 1.415 . S
C1120 C1125 1.425 . S
C1120 C1127 1.409 . S
C1121 H1113 0.930 . S
C1121 C1119 1.419 . S
C1121 C1122 1.362 . S
C1122 H1114 0.930 . S
C1122 C1121 1.362 . S
C1122 C1125 1.409 . S
C1123 H1115 0.930 . S
C1123 C1124 1.355 . S
C1123 C1125 1.415 . S
C1124 C1123 1.355 . S
C1124 C1126 1.419 . S
C1125 C1120 1.425 . S
C1125 C1122 1.409 . S
C1125 C1123 1.415 . S
C1126 H1116 0.930 . S
C1126 C1124 1.419 . S
C1126 C1127 1.362 . S
C1127 H1117 0.930 . S
C1127 C1120 1.409 . S
C1127 C1126 1.362 . S
H1128 C1134 0.930 . S
H1129 C1137 0.930 . S
H1130 C1138 0.930 . S
H1131 C1139 0.930 . S
H1132 C1142 0.930 . S
H1133 C1143 0.930 . S
C1134 H1128 0.930 . S
C1134 C1135 1.355 . S
C1134 C1136 1.415 . S
C1135 C1134 1.355 . S
C1135 C1137 1.419 . S
C1136 C1134 1.415 . S
C1136 C1141 1.425 . S
C1136 C1143 1.409 . S
C1137 H1129 0.930 . S
C1137 C1135 1.419 . S
C1137 C1138 1.362 . S
C1138 H1130 0.930 . S
C1138 C1137 1.362 . S
C1138 C1141 1.409 . S
C1139 H1131 0.930 . S
C1139 C1140 1.355 . S
C1139 C1141 1.415 . S
C1140 C1139 1.355 . S
C1140 C1142 1.419 . S
C1141 C1136 1.425 . S
C1141 C1138 1.409 . S
C1141 C1139 1.415 . S
C1142 H1132 0.930 . S
C1142 C1140 1.419 . S
C1142 C1143 1.362 . S
C1143 H1133 0.930 . S
C1143 C1136 1.409 . S
C1143 C1142 1.362 . S
H1144 C1150 0.930 . S
H1145 C1153 0.930 . S
H1146 C1154 0.930 . S
H1147 C1155 0.930 . S
H1148 C1158 0.930 . S
H1149 C1159 0.930 . S
C1150 H1144 0.930 . S
C1150 C1151 1.355 . S
C1150 C1152 1.415 . S
C1151 C1150 1.355 . S
C1151 C1153 1.419 . S
C1152 C1150 1.415 . S
C1152 C1157 1.425 . S
C1152 C1159 1.409 . S
C1153 H1145 0.930 . S
C1153 C1151 1.419 . S
C1153 C1154 1.362 . S
C1154 H1146 0.930 . S
C1154 C1153 1.362 . S
C1154 C1157 1.409 . S
C1155 H1147 0.930 . S
C1155 C1156 1.355 . S
C1155 C1157 1.415 . S
C1156 C1155 1.355 . S
C1156 C1158 1.419 . S
C1157 C1152 1.425 . S
C1157 C1154 1.409 . S
C1157 C1155 1.415 . S
C1158 H1148 0.930 . S
C1158 C1156 1.419 . S
C1158 C1159 1.362 . S
C1159 H1149 0.930 . S
C1159 C1152 1.409 . S
C1159 C1158 1.362 . S
H1160 C1166 0.930 . S
H1161 C1169 0.930 . S
H1162 C1170 0.930 . S
H1163 C1171 0.930 . S
H1164 C1174 0.930 . S
H1165 C1175 0.930 . S
C1166 H1160 0.930 . S
C1166 C1167 1.355 . S
C1166 C1168 1.415 . S
C1167 C1166 1.355 . S
C1167 C1169 1.419 . S
C1168 C1166 1.415 . S
C1168 C1173 1.425 . S
C1168 C1175 1.409 . S
C1169 H1161 0.930 . S
C1169 C1167 1.419 . S
C1169 C1170 1.362 . S
C1170 H1162 0.930 . S
C1170 C1169 1.362 . S
C1170 C1173 1.409 . S
C1171 H1163 0.930 . S
C1171 C1172 1.355 . S
C1171 C1173 1.415 . S
C1172 C1171 1.355 . S
C1172 C1174 1.419 . S
C1173 C1168 1.425 . S
C1173 C1170 1.409 . S
C1173 C1171 1.415 . S
C1174 H1164 0.930 . S
C1174 C1172 1.419 . S
C1174 C1175 1.362 . S
C1175 H1165 0.930 . S
C1175 C1168 1.409 . S
C1175 C1174 1.362 . S
H1176 C1182 0.930 . S
H1177 C1185 0.930 . S
H1178 C1186 0.930 . S
H1179 C1187 0.930 . S
H1180 C1190 0.930 . S
H1181 C1191 0.930 . S
C1182 H1176 0.930 . S
C1182 C1183 1.355 . S
C1182 C1184 1.415 . S
C1183 C1182 1.355 . S
C1183 C1185 1.419 . S
C1184 C1182 1.415 . S
C1184 C1189 1.425 . S
C1184 C1191 1.409 . S
C1185 H1177 0.930 . S
C1185 C1183 1.419 . S
C1185 C1186 1.362 . S
C1186 H1178 0.930 . S
C1186 C1185 1.362 . S
C1186 C1189 1.409 . S
C1187 H1179 0.930 . S
C1187 C1188 1.355 . S
C1187 C1189 1.415 . S
C1188 C1187 1.355 . S
C1188 C1190 1.419 . S
C1189 C1184 1.425 . S
C1189 C1186 1.409 . S
C1189 C1187 1.415 . S
C1190 H1180 0.930 . S
C1190 C1188 1.419 . S
C1190 C1191 1.362 . S
C1191 H1181 0.930 . S
C1191 C1184 1.409 . S
C1191 C1190 1.362 . S
H1192 C1198 0.930 . S
H1193 C1201 0.930 . S
H1194 C1202 0.930 . S
H1195 C1203 0.930 . S
H1196 C1206 0.930 . S
H1197 C1207 0.930 . S
C1198 H1192 0.930 . S
C1198 C1199 1.355 . S
C1198 C1200 1.415 . S
C1199 C1198 1.355 . S
C1199 C1201 1.419 . S
C1200 C1198 1.415 . S
C1200 C1205 1.425 . S
C1200 C1207 1.409 . S
C1201 H1193 0.930 . S
C1201 C1199 1.419 . S
C1201 C1202 1.362 . S
C1202 H1194 0.930 . S
C1202 C1201 1.362 . S
C1202 C1205 1.409 . S
C1203 H1195 0.930 . S
C1203 C1204 1.355 . S
C1203 C1205 1.415 . S
C1204 C1203 1.355 . S
C1204 C1206 1.419 . S
C1205 C1200 1.425 . S
C1205 C1202 1.409 . S
C1205 C1203 1.415 . S
C1206 H1196 0.930 . S
C1206 C1204 1.419 . S
C1206 C1207 1.362 . S
C1207 H1197 0.930 . S
C1207 C1200 1.409 . S
C1207 C1206 1.362 . S
H1208 C1214 0.930 . S
H1209 C1217 0.930 . S
H1210 C1218 0.930 . S
H1211 C1219 0.930 . S
H1212 C1222 0.930 . S
H1213 C1223 0.930 . S
C1214 H1208 0.930 . S
C1214 C1215 1.355 . S
C1214 C1216 1.415 . S
C1215 C1214 1.355 . S
C1215 C1217 1.419 . S
C1216 C1214 1.415 . S
C1216 C1221 1.425 . S
C1216 C1223 1.409 . S
C1217 H1209 0.930 . S
C1217 C1215 1.419 . S
C1217 C1218 1.362 . S
C1218 H1210 0.930 . S
C1218 C1217 1.362 . S
C1218 C1221 1.409 . S
C1219 H1211 0.930 . S
C1219 C1220 1.355 . S
C1219 C1221 1.415 . S
C1220 C1219 1.355 . S
C1220 C1222 1.419 . S
C1221 C1216 1.425 . S
C1221 C1218 1.409 . S
C1221 C1219 1.415 . S
C1222 H1212 0.930 . S
C1222 C1220 1.419 . S
C1222 C1223 1.362 . S
C1223 H1213 0.930 . S
C1223 C1216 1.409 . S
C1223 C1222 1.362 . S
H1224 C1230 0.930 . S
H1225 C1233 0.930 . S
H1226 C1234 0.930 . S
H1227 C1235 0.930 . S
H1228 C1238 0.930 . S
H1229 C1239 0.930 . S
C1230 H1224 0.930 . S
C1230 C1231 1.355 . S
C1230 C1232 1.415 . S
C1231 C1230 1.355 . S
C1231 C1233 1.419 . S
C1232 C1230 1.415 . S
C1232 C1237 1.425 . S
C1232 C1239 1.409 . S
C1233 H1225 0.930 . S
C1233 C1231 1.419 . S
C1233 C1234 1.362 . S
C1234 H1226 0.930 . S
C1234 C1233 1.362 . S
C1234 C1237 1.409 . S
C1235 H1227 0.930 . S
C1235 C1236 1.355 . S
C1235 C1237 1.415 . S
C1236 C1235 1.355 . S
C1236 C1238 1.419 . S
C1237 C1232 1.425 . S
C1237 C1234 1.409 . S
C1237 C1235 1.415 . S
C1238 H1228 0.930 . S
C1238 C1236 1.419 . S
C1238 C1239 1.362 . S
C1239 H1229 0.930 . S
C1239 C1232 1.409 . S
C1239 C1238 1.362 . S
H1240 C1246 0.930 . S
H1241 C1249 0.930 . S
H1242 C1250 0.930 . S
H1243 C1251 0.930 . S
H1244 C1254 0.930 . S
H1245 C1255 0.930 . S
C1246 H1240 0.930 . S
C1246 C1247 1.355 . S
C1246 C1248 1.415 . S
C1247 C1246 1.355 . S
C1247 C1249 1.419 . S
C1248 C1246 1.415 . S
C1248 C1253 1.425 . S
C1248 C1255 1.409 . S
C1249 H1241 0.930 . S
C1249 C1247 1.419 . S
C1249 C1250 1.362 . S
C1250 H1242 0.930 . S
C1250 C1249 1.362 . S
C1250 C1253 1.409 . S
C1251 H1243 0.930 . S
C1251 C1252 1.355 . S
C1251 C1253 1.415 . S
C1252 C1251 1.355 . S
C1252 C1254 1.419 . S
C1253 C1248 1.425 . S
C1253 C1250 1.409 . S
C1253 C1251 1.415 . S
C1254 H1244 0.930 . S
C1254 C1252 1.419 . S
C1254 C1255 1.362 . S
C1255 H1245 0.930 . S
C1255 C1248 1.409 . S
C1255 C1254 1.362 . S
H1256 C1262 0.930 . S
H1257 C1265 0.930 . S
H1258 C1266 0.930 . S
H1259 C1267 0.930 . S
H1260 C1270 0.930 . S
H1261 C1271 0.930 . S
C1262 H1256 0.930 . S
C1262 C1263 1.355 . S
C1262 C1264 1.415 . S
C1263 C1262 1.355 . S
C1263 C1265 1.419 . S
C1264 C1262 1.415 . S
C1264 C1269 1.425 . S
C1264 C1271 1.409 . S
C1265 H1257 0.930 . S
C1265 C1263 1.419 . S
C1265 C1266 1.362 . S
C1266 H1258 0.930 . S
C1266 C1265 1.362 . S
C1266 C1269 1.409 . S
C1267 H1259 0.930 . S
C1267 C1268 1.355 . S
C1267 C1269 1.415 . S
C1268 C1267 1.355 . S
C1268 C1270 1.419 . S
C1269 C1264 1.425 . S
C1269 C1266 1.409 . S
C1269 C1267 1.415 . S
C1270 H1260 0.930 . S
C1270 C1268 1.419 . S
C1270 C1271 1.362 . S
C1271 H1261 0.930 . S
C1271 C1264 1.409 . S
C1271 C1270 1.362 . S
H1272 C1278 0.930 . S
H1273 C1281 0.930 . S
H1274 C1282 0.930 . S
H1275 C1283 0.930 . S
H1276 C1286 0.930 . S
H1277 C1287 0.930 . S
C1278 H1272 0.930 . S
C1278 C1279 1.355 . S
C1278 C1280 1.415 . S
C1279 C1278 1.355 . S
C1279 C1281 1.419 . S
C1280 C1278 1.415 . S
C1280 C1285 1.425 . S
C1280 C1287 1.409 . S
C1281 H1273 0.930 . S
C1281 C1279 1.419 . S
C1281 C1282 1.362 . S
C1282 H1274 0.930 . S
C1282 C1281 1.362 . S
C1282 C1285 1.409 . S
C1283 H1275 0.930 . S
C1283 C1284 1.355 . S
C1283 C1285 1.415 . S
C1284 C1283 1.355 . S
C1284 C1286 1.419 . S
C1285 C1280 1.425 . S
C1285 C1282 1.409 . S
C1285 C1283 1.415 . S
C1286 H1276 0.930 . S
C1286 C1284 1.419 . S
C1286 C1287 1.362 . S
C1287 H1277 0.930 . S
C1287 C1280 1.409 . S
C1287 C1286 1.362 . S
H1288 C1294 0.930 . S
H1289 C1297 0.930 . S
H1290 C1298 0.930 . S
H1291 C1299 0.930 . S
H1292 C1302 0.930 . S
H1293 C1303 0.930 . S
C1294 H1288 0.930 . S
C1294 C1295 1.355 . S
C1294 C1296 1.415 . S
C1295 C1294 1.355 . S
C1295 C1297 1.419 . S
C1296 C1294 1.415 . S
C1296 C1301 1.425 . S
C1296 C1303 1.409 . S
C1297 H1289 0.930 . S
C1297 C1295 1.419 . S
C1297 C1298 1.362 . S
C1298 H1290 0.930 . S
C1298 C1297 1.362 . S
C1298 C1301 1.409 . S
C1299 H1291 0.930 . S
C1299 C1300 1.355 . S
C1299 C1301 1.415 . S
C1300 C1299 1.355 . S
C1300 C1302 1.419 . S
C1301 C1296 1.425 . S
C1301 C1298 1.409 . S
C1301 C1299 1.415 . S
C1302 H1292 0.930 . S
C1302 C1300 1.419 . S
C1302 C1303 1.362 . S
C1303 H1293 0.930 . S
C1303 C1296 1.409 . S
C1303 C1302 1.362 . S
H1304 C1310 0.930 . S
H1305 C1313 0.930 . S
H1306 C1314 0.930 . S
H1307 C1315 0.930 . S
H1308 C1318 0.930 . S
H1309 C1319 0.930 . S
C1310 H1304 0.930 . S
C1310 C1311 1.355 . S
C1310 C1312 1.415 . S
C1311 C1310 1.355 . S
C1311 C1313 1.419 . S
C1312 C1310 1.415 . S
C1312 C1317 1.425 . S
C1312 C1319 1.409 . S
C1313 H1305 0.930 . S
C1313 C1311 1.419 . S
C1313 C1314 1.362 . S
C1314 H1306 0.930 . S
C1314 C1313 1.362 . S
C1314 C1317 1.409 . S
C1315 H1307 0.930 . S
C1315 C1316 1.355 . S
C1315 C1317 1.415 . S
C1316 C1315 1.355 . S
C1316 C1318 1.419 . S
C1317 C1312 1.425 . S
C1317 C1314 1.409 . S
C1317 C1315 1.415 . S
C1318 H1308 0.930 . S
C1318 C1316 1.419 . S
C1318 C1319 1.362 . S
C1319 H1309 0.930 . S
C1319 C1312 1.409 . S
C1319 C1318 1.362 . S
H1320 C1326 0.930 . S
H1321 C1329 0.930 . S
H1322 C1330 0.930 . S
H1323 C1331 0.930 . S
H1324 C1334 0.930 . S
H1325 C1335 0.930 . S
C1326 H1320 0.930 . S
C1326 C1327 1.355 . S
C1326 C1328 1.415 . S
C1327 C1326 1.355 . S
C1327 C1329 1.419 . S
C1328 C1326 1.415 . S
C1328 C1333 1.425 . S
C1328 C1335 1.409 . S
C1329 H1321 0.930 . S
C1329 C1327 1.419 . S
C1329 C1330 1.362 . S
C1330 H1322 0.930 . S
C1330 C1329 1.362 . S
C1330 C1333 1.409 . S
C1331 H1323 0.930 . S
C1331 C1332 1.355 . S
C1331 C1333 1.415 . S
C1332 C1331 1.355 . S
C1332 C1334 1.419 . S
C1333 C1328 1.425 . S
C1333 C1330 1.409 . S
C1333 C1331 1.415 . S
C1334 H1324 0.930 . S
C1334 C1332 1.419 . S
C1334 C1335 1.362 . S
C1335 H1325 0.930 . S
C1335 C1328 1.409 . S
C1335 C1334 1.362 . S
H1336 C1342 0.930 . S
H1337 C1345 0.930 . S
H1338 C1346 0.930 . S
H1339 C1347 0.930 . S
H1340 C1350 0.930 . S
H1341 C1351 0.930 . S
C1342 H1336 0.930 . S
C1342 C1343 1.355 . S
C1342 C1344 1.415 . S
C1343 C1342 1.355 . S
C1343 C1345 1.419 . S
C1344 C1342 1.415 . S
C1344 C1349 1.425 . S
C1344 C1351 1.409 . S
C1345 H1337 0.930 . S
C1345 C1343 1.419 . S
C1345 C1346 1.362 . S
C1346 H1338 0.930 . S
C1346 C1345 1.362 . S
C1346 C1349 1.409 . S
C1347 H1339 0.930 . S
C1347 C1348 1.355 . S
C1347 C1349 1.415 . S
C1348 C1347 1.355 . S
C1348 C1350 1.419 . S
C1349 C1344 1.425 . S
C1349 C1346 1.409 . S
C1349 C1347 1.415 . S
C1350 H1340 0.930 . S
C1350 C1348 1.419 . S
C1350 C1351 1.362 . S
C1351 H1341 0.930 . S
C1351 C1344 1.409 . S
C1351 C1350 1.362 . S
H1352 C1358 0.930 . S
H1353 C1361 0.930 . S
H1354 C1362 0.930 . S
H1355 C1363 0.930 . S
H1356 C1366 0.930 . S
H1357 C1367 0.930 . S
C1358 H1352 0.930 . S
C1358 C1359 1.355 . S
C1358 C1360 1.415 . S
C1359 C1358 1.355 . S
C1359 C1361 1.419 . S
C1360 C1358 1.415 . S
C1360 C1365 1.425 . S
C1360 C1367 1.409 . S
C1361 H1353 0.930 . S
C1361 C1359 1.419 . S
C1361 C1362 1.362 . S
C1362 H1354 0.930 . S
C1362 C1361 1.362 . S
C1362 C1365 1.409 . S
C1363 H1355 0.930 . S
C1363 C1364 1.355 . S
C1363 C1365 1.415 . S
C1364 C1363 1.355 . S
C1364 C1366 1.419 . S
C1365 C1360 1.425 . S
C1365 C1362 1.409 . S
C1365 C1363 1.415 . S
C1366 H1356 0.930 . S
C1366 C1364 1.419 . S
C1366 C1367 1.362 . S
C1367 H1357 0.930 . S
C1367 C1360 1.409 . S
C1367 C1366 1.362 . S
H1368 C1374 0.930 . S
H1369 C1377 0.930 . S
H1370 C1378 0.930 . S
H1371 C1379 0.930 . S
H1372 C1382 0.930 . S
H1373 C1383 0.930 . S
C1374 H1368 0.930 . S
C1374 C1375 1.355 . S
C1374 C1376 1.415 . S
C1375 C1374 1.355 . S
C1375 C1377 1.419 . S
C1376 C1374 1.415 . S
C1376 C1381 1.425 . S
C1376 C1383 1.409 . S
C1377 H1369 0.930 . S
C1377 C1375 1.419 . S
C1377 C1378 1.362 . S
C1378 H1370 0.930 . S
C1378 C1377 1.362 . S
C1378 C1381 1.409 . S
C1379 H1371 0.930 . S
C1379 C1380 1.355 . S
C1379 C1381 1.415 . S
C1380 C1379 1.355 . S
C1380 C1382 1.419 . S
C1381 C1376 1.425 . S
C1381 C1378 1.409 . S
C1381 C1379 1.415 . S
C1382 H1372 0.930 . S
C1382 C1380 1.419 . S
C1382 C1383 1.362 . S
C1383 H1373 0.930 . S
C1383 C1376 1.409 . S
C1383 C1382 1.362 . S
H1384 C1390 0.930 . S
H1385 C1393 0.930 . S
H1386 C1394 0.930 . S
H1387 C1395 0.930 . S
H1388 C1398 0.930 . S
H1389 C1399 0.930 . S
C1390 H1384 0.930 . S
C1390 C1391 1.355 . S
C1390 C1392 1.415 . S
C1391 C1390 1.355 . S
C1391 C1393 1.419 . S
C1392 C1390 1.415 . S
C1392 C1397 1.425 . S
C1392 C1399 1.409 . S
C1393 H1385 0.930 . S
C1393 C1391 1.419 . S
C1393 C1394 1.362 . S
C1394 H1386 0.930 . S
C1394 C1393 1.362 . S
C1394 C1397 1.409 . S
C1395 H1387 0.930 . S
C1395 C1396 1.355 . S
C1395 C1397 1.415 . S
C1396 C1395 1.355 . S
C1396 C1398 1.419 . S
C1397 C1392 1.425 . S
C1397 C1394 1.409 . S
C1397 C1395 1.415 . S
C1398 H1388 0.930 . S
C1398 C1396 1.419 . S
C1398 C1399 1.362 . S
C1399 H1389 0.930 . S
C1399 C1392 1.409 . S
C1399 C1398 1.362 . S
H1400 C1406 0.930 . S
H1401 C1409 0.930 . S
H1402 C1410 0.930 . S
H1403 C1411 0.930 . S
H1404 C1414 0.930 . S
H1405 C1415 0.930 . S
C1406 H1400 0.930 . S
C1406 C1407 1.355 . S
C1406 C1408 1.415 . S
C1407 C1406 1.355 . S
C1407 C1409 1.419 . S
C1408 C1406 1.415 . S
C1408 C1413 1.425 . S
C1408 C1415 1.409 . S
C1409 H1401 0.930 . S
C1409 C1407 1.419 . S
C1409 C1410 1.362 . S
C1410 H1402 0.930 . S
C1410 C1409 1.362 . S
C1410 C1413 1.409 . S
C1411 H1403 0.930 . S
C1411 C1412 1.355 . S
C1411 C1413 1.415 . S
C1412 C1411 1.355 . S
C1412 C1414 1.419 . S
C1413 C1408 1.425 . S
C1413 C1410 1.409 . S
C1413 C1411 1.415 . S
C1414 H1404 0.930 . S
C1414 C1412 1.419 . S
C1414 C1415 1.362 . S
C1415 H1405 0.930 . S
C1415 C1408 1.409 . S
C1415 C1414 1.362 . S
H1416 C1422 0.930 . S
H1417 C1425 0.930 . S
H1418 C1426 0.930 . S
H1419 C1427 0.930 . S
H1420 C1430 0.930 . S
H1421 C1431 0.930 . S
C1422 H1416 0.930 . S
C1422 C1423 1.355 . S
C1422 C1424 1.415 . S
C1423 C1422 1.355 . S
C1423 C1425 1.419 . S
C1424 C1422 1.415 . S
C1424 C1429 1.425 . S
C1424 C1431 1.409 . S
C1425 H1417 0.930 . S
C1425 C1423 1.419 . S
C1425 C1426 1.362 . S
C1426 H1418 0.930 . S
C1426 C1425 1.362 . S
C1426 C1429 1.409 . S
C1427 H1419 0.930 . S
C1427 C1428 1.355 . S
C1427 C1429 1.415 . S
C1428 C1427 1.355 . S
C1428 C1430 1.419 . S
C1429 C1424 1.425 . S
C1429 C1426 1.409 . S
C1429 C1427 1.415 . S
C1430 H1420 0.930 . S
C1430 C1428 1.419 . S
C1430 C1431 1.362 . S
C1431 H1421 0.930 . S
C1431 C1424 1.409 . S
C1431 C1430 1.362 . S
H1432 C1438 0.930 . S
H1433 C1441 0.930 . S
H1434 C1442 0.930 . S
H1435 C1443 0.930 . S
H1436 C1446 0.930 . S
H1437 C1447 0.930 . S
C1438 H1432 0.930 . S
C1438 C1439 1.355 . S
C1438 C1440 1.415 . S
C1439 C1438 1.355 . S
C1439 C1441 1.419 . S
C1440 C1438 1.415 . S
C1440 C1445 1.425 . S
C1440 C1447 1.409 . S
C1441 H1433 0.930 . S
C1441 C1439 1.419 . S
C1441 C1442 1.362 . S
C1442 H1434 0.930 . S
C1442 C1441 1.362 . S
C1442 C1445 1.409 . S
C1443 H1435 0.930 . S
C1443 C1444 1.355 . S
C1443 C1445 1.415 . S
C1444 C1443 1.355 . S
C1444 C1446 1.419 . S
C1445 C1440 1.425 . S
C1445 C1442 1.409 . S
C1445 C1443 1.415 . S
C1446 H1436 0.930 . S
C1446 C1444 1.419 . S
C1446 C1447 1.362 . S
C1447 H1437 0.930 . S
C1447 C1440 1.409 . S
C1447 C1446 1.362 . S
H1448 C1454 0.930 . S
H1449 C1457 0.930 . S
H1450 C1458 0.930 . S
H1451 C1459 0.930 . S
H1452 C1462 0.930 . S
H1453 C1463 0.930 . S
C1454 H1448 0.930 . S
C1454 C1455 1.355 . S
C1454 C1456 1.415 . S
C1455 C1454 1.355 . S
C1455 C1457 1.419 . S
C1456 C1454 1.415 . S
C1456 C1461 1.425 . S
C1456 C1463 1.409 . S
C1457 H1449 0.930 . S
C1457 C1455 1.419 . S
C1457 C1458 1.362 . S
C1458 H1450 0.930 . S
C1458 C1457 1.362 . S
C1458 C1461 1.409 . S
C1459 H1451 0.930 . S
C1459 C1460 1.355 . S
C1459 C1461 1.415 . S
C1460 C1459 1.355 . S
C1460 C1462 1.419 . S
C1461 C1456 1.425 . S
C1461 C1458 1.409 . S
C1461 C1459 1.415 . S
C1462 H1452 0.930 . S
C1462 C1460 1.419 . S
C1462 C1463 1.362 . S
C1463 H1453 0.930 . S
C1463 C1456 1.409 . S
C1463 C1462 1.362 . S
H1464 C1470 0.930 . S
H1465 C1473 0.930 . S
H1466 C1474 0.930 . S
H1467 C1475 0.930 . S
H1468 C1478 0.930 . S
H1469 C1479 0.930 . S
C1470 H1464 0.930 . S
C1470 C1471 1.355 . S
C1470 C1472 1.415 . S
C1471 C1470 1.355 . S
C1471 C1473 1.419 . S
C1472 C1470 1.415 . S
C1472 C1477 1.425 . S
C1472 C1479 1.409 . S
C1473 H1465 0.930 . S
C1473 C1471 1.419 . S
C1473 C1474 1.362 . S
C1474 H1466 0.930 . S
C1474 C1473 1.362 . S
C1474 C1477 1.409 . S
C1475 H1467 0.930 . S
C1475 C1476 1.355 . S
C1475 C1477 1.415 . S
C1476 C1475 1.355 . S
C1476 C1478 1.419 . S
C1477 C1472 1.425 . S
C1477 C1474 1.409 . S
C1477 C1475 1.415 . S
C1478 H1468 0.930 . S
C1478 C1476 1.419 . S
C1478 C1479 1.362 . S
C1479 H1469 0.930 . S
C1479 C1472 1.409 . S
C1479 C1478 1.362 . S
H1480 C1486 0.930 . S
H1481 C1489 0.930 . S
H1482 C1490 0.930 . S
H1483 C1491 0.930 . S
H1484 C1494 0.930 . S
H1485 C1495 0.930 . S
C1486 H1480 0.930 . S
C1486 C1487 1.355 . S
C1486 C1488 1.415 . S
C1487 C1486 1.355 . S
C1487 C1489 1.419 . S
C1488 C1486 1.415 . S
C1488 C1493 1.425 . S
C1488 C1495 1.409 . S
C1489 H1481 0.930 . S
C1489 C1487 1.419 . S
C1489 C1490 1.362 . S
C1490 H1482 0.930 . S
C1490 C1489 1.362 . S
C1490 C1493 1.409 . S
C1491 H1483 0.930 . S
C1491 C1492 1.355 . S
C1491 C1493 1.415 . S
C1492 C1491 1.355 . S
C1492 C1494 1.419 . S
C1493 C1488 1.425 . S
C1493 C1490 1.409 . S
C1493 C1491 1.415 . S
C1494 H1484 0.930 . S
C1494 C1492 1.419 . S
C1494 C1495 1.362 . S
C1495 H1485 0.930 . S
C1495 C1488 1.409 . S
C1495 C1494 1.362 . S
H1496 C1502 0.930 . S
H1497 C1505 0.930 . S
H1498 C1506 0.930 . S
H1499 C1507 0.930 . S
H1500 C1510 0.930 . S
H1501 C1511 0.930 . S
C1502 H1496 0.930 . S
C1502 C1503 1.355 . S
C1502 C1504 1.415 . S
C1503 C1502 1.355 . S
C1503 C1505 1.419 . S
C1504 C1502 1.415 . S
C1504 C1509 1.425 . S
C1504 C1511 1.409 . S
C1505 H1497 0.930 . S
C1505 C1503 1.419 . S
C1505 C1506 1.362 . S
C1506 H1498 0.930 . S
C1506 C1505 1.362 . S
C1506 C1509 1.409 . S
C1507 H1499 0.930 . S
C1507 C1508 1.355 . S
C1507 C1509 1.415 . S
C1508 C1507 1.355 . S
C1508 C1510 1.419 . S
C1509 C1504 1.425 . S
C1509 C1506 1.409 . S
C1509 C1507 1.415 . S
C1510 H1500 0.930 . S
C1510 C1508 1.419 . S
C1510 C1511 1.362 . S
C1511 H1501 0.930 . S
C1511 C1504 1.409 . S
C1511 C1510 1.362 . S
H1512 C1518 0.930 . S
H1513 C1521 0.930 . S
H1514 C1522 0.930 . S
H1515 C1523 0.930 . S
H1516 C1526 0.930 . S
H1517 C1527 0.930 . S
C1518 H1512 0.930 . S
C1518 C1519 1.355 . S
C1518 C1520 1.415 . S
C1519 C1518 1.355 . S
C1519 C1521 1.419 . S
C1520 C1518 1.415 . S
C1520 C1525 1.425 . S
C1520 C1527 1.409 . S
C1521 H1513 0.930 . S
C1521 C1519 1.419 . S
C1521 C1522 1.362 . S
C1522 H1514 0.930 . S
C1522 C1521 1.362 . S
C1522 C1525 1.409 . S
C1523 H1515 0.930 . S
C1523 C1524 1.355 . S
C1523 C1525 1.415 . S
C1524 C1523 1.355 . S
C1524 C1526 1.419 . S
C1525 C1520 1.425 . S
C1525 C1522 1.409 . S
C1525 C1523 1.415 . S
C1526 H1516 0.930 . S
C1526 C1524 1.419 . S
C1526 C1527 1.362 . S
C1527 H1517 0.930 . S
C1527 C1520 1.409 . S
C1527 C1526 1.362 . S
H1528 C1534 0.930 . S
H1529 C1537 0.930 . S
H1530 C1538 0.930 . S
H1531 C1539 0.930 . S
H1532 C1542 0.930 . S
H1533 C1543 0.930 . S
C1534 H1528 0.930 . S
C1534 C1535 1.355 . S
C1534 C1536 1.415 . S
C1535 C1534 1.355 . S
C1535 C1537 1.419 . S
C1536 C1534 1.415 . S
C1536 C1541 1.425 . S
C1536 C1543 1.409 . S
C1537 H1529 0.930 . S
C1537 C1535 1.419 . S
C1537 C1538 1.362 1_554 S
C1538 H1530 0.930 . S
C1538 C1537 1.362 1_556 S
C1538 C1541 1.409 1_556 S
C1539 H1531 0.930 . S
C1539 C1540 1.355 . S
C1539 C1541 1.415 1_556 S
C1540 C1539 1.355 . S
C1540 C1542 1.419 1_556 S
C1541 C1536 1.425 . S
C1541 C1538 1.409 1_554 S
C1541 C1539 1.415 1_554 S
C1542 H1532 0.930 . S
C1542 C1540 1.419 1_554 S
C1542 C1543 1.362 . S
C1543 H1533 0.930 . S
C1543 C1536 1.409 . S
C1543 C1542 1.362 . S
H1544 C1550 0.930 . S
H1545 C1553 0.930 . S
H1546 C1554 0.930 . S
H1547 C1555 0.930 . S
H1548 C1558 0.930 . S
H1549 C1559 0.930 . S
C1550 H1544 0.930 . S
C1550 C1551 1.355 . S
C1550 C1552 1.415 . S
C1551 C1550 1.355 . S
C1551 C1553 1.419 . S
C1552 C1550 1.415 . S
C1552 C1557 1.425 . S
C1552 C1559 1.409 . S
C1553 H1545 0.930 . S
C1553 C1551 1.419 . S
C1553 C1554 1.362 . S
C1554 H1546 0.930 . S
C1554 C1553 1.362 . S
C1554 C1557 1.409 . S
C1555 H1547 0.930 . S
C1555 C1556 1.355 . S
C1555 C1557 1.415 . S
C1556 C1555 1.355 . S
C1556 C1558 1.419 . S
C1557 C1552 1.425 . S
C1557 C1554 1.409 . S
C1557 C1555 1.415 . S
C1558 H1548 0.930 . S
C1558 C1556 1.419 . S
C1558 C1559 1.362 . S
C1559 H1549 0.930 . S
C1559 C1552 1.409 . S
C1559 C1558 1.362 . S
H1560 C1566 0.930 1_554 S
H1561 C1569 0.920 1_554 S
H1562 C1570 0.930 . S
H1563 C1571 0.930 . S
H1564 C1574 0.930 . S
H1565 C1575 0.930 . S
C1566 H1560 0.930 1_556 S
C1566 C1567 1.355 1_556 S
C1566 C1568 1.415 . S
C1567 C1566 1.355 1_554 S
C1567 C1569 1.412 1_554 S
C1568 C1566 1.415 . S
C1568 C1573 1.425 . S
C1568 C1575 1.409 . S
C1569 H1561 0.920 1_556 S
C1569 C1567 1.412 1_556 S
C1569 C1570 1.381 . S
C1570 H1562 0.930 . S
C1570 C1569 1.381 . S
C1570 C1573 1.409 . S
C1571 H1563 0.930 . S
C1571 C1572 1.355 . S
C1571 C1573 1.415 . S
C1572 C1571 1.355 . S
C1572 C1574 1.419 . S
C1573 C1568 1.425 . S
C1573 C1570 1.409 . S
C1573 C1571 1.415 . S
C1574 H1564 0.930 . S
C1574 C1572 1.419 . S
C1574 C1575 1.362 . S
C1575 H1565 0.930 . S
C1575 C1568 1.409 . S
C1575 C1574 1.362 . S
H1576 C1582 0.930 . S
H1577 C1585 0.930 . S
H1578 C1586 0.930 . S
H1579 C1587 0.930 . S
H1580 C1590 0.930 . S
H1581 C1591 0.930 . S
C1582 H1576 0.930 . S
C1582 C1583 1.355 . S
C1582 C1584 1.415 . S
C1583 C1582 1.355 . S
C1583 C1585 1.419 . S
C1584 C1582 1.415 . S
C1584 C1589 1.425 . S
C1584 C1591 1.409 . S
C1585 H1577 0.930 . S
C1585 C1583 1.419 . S
C1585 C1586 1.362 . S
C1586 H1578 0.930 . S
C1586 C1585 1.362 . S
C1586 C1589 1.409 . S
C1587 H1579 0.930 . S
C1587 C1588 1.355 . S
C1587 C1589 1.415 . S
C1588 C1587 1.355 . S
C1588 C1590 1.419 . S
C1589 C1584 1.425 . S
C1589 C1586 1.409 . S
C1589 C1587 1.415 . S
C1590 H1580 0.930 . S
C1590 C1588 1.419 . S
C1590 C1591 1.362 . S
C1591 H1581 0.930 . S
C1591 C1584 1.409 . S
C1591 C1590 1.362 . S
H1592 C1598 0.930 . S
H1593 C1601 0.930 . S
H1594 C1602 0.930 . S
H1595 C1603 0.930 . S
H1596 C1606 0.930 . S
H1597 C1607 0.930 . S
C1598 H1592 0.930 . S
C1598 C1599 1.355 . S
C1598 C1600 1.415 . S
C1599 C1598 1.355 . S
C1599 C1601 1.419 . S
C1600 C1598 1.415 . S
C1600 C1605 1.425 . S
C1600 C1607 1.409 . S
C1601 H1593 0.930 . S
C1601 C1599 1.419 . S
C1601 C1602 1.362 . S
C1602 H1594 0.930 . S
C1602 C1601 1.362 . S
C1602 C1605 1.409 . S
C1603 H1595 0.930 . S
C1603 C1604 1.355 1_655 S
C1603 C1605 1.415 . S
C1604 C1603 1.355 1_455 S
C1604 C1606 1.419 . S
C1605 C1600 1.425 . S
C1605 C1602 1.409 . S
C1605 C1603 1.415 . S
C1606 H1596 0.930 . S
C1606 C1604 1.419 . S
C1606 C1607 1.362 1_455 S
C1607 H1597 0.930 . S
C1607 C1600 1.409 . S
C1607 C1606 1.362 1_655 S
H1608 C1614 0.930 . S
H1609 C1617 0.930 . S
H1610 C1618 0.930 . S
H1611 C1619 0.930 . S
H1612 C1622 0.930 . S
H1613 C1623 0.930 . S
C1614 H1608 0.930 . S
C1614 C1615 1.355 . S
C1614 C1616 1.415 . S
C1615 C1614 1.355 . S
C1615 C1617 1.419 . S
C1616 C1614 1.415 . S
C1616 C1621 1.425 . S
C1616 C1623 1.409 . S
C1617 H1609 0.930 . S
C1617 C1615 1.419 . S
C1617 C1618 1.362 1_455 S
C1618 H1610 0.930 . S
C1618 C1617 1.362 1_655 S
C1618 C1621 1.409 1_655 S
C1619 H1611 0.930 . S
C1619 C1620 1.355 . S
C1619 C1621 1.415 1_655 S
C1620 C1619 1.355 . S
C1620 C1622 1.419 1_655 S
C1621 C1616 1.425 . S
C1621 C1618 1.409 1_455 S
C1621 C1619 1.415 1_455 S
C1622 H1612 0.930 . S
C1622 C1620 1.419 1_455 S
C1622 C1623 1.362 . S
C1623 H1613 0.930 . S
C1623 C1616 1.409 . S
C1623 C1622 1.362 . S
H1624 C1630 0.930 . S
H1625 C1633 0.930 . S
H1626 C1634 0.930 . S
H1627 C1635 0.930 . S
H1628 C1638 0.930 . S
H1629 C1639 0.930 . S
C1630 H1624 0.930 . S
C1630 C1631 1.355 . S
C1630 C1632 1.415 . S
C1631 C1630 1.355 . S
C1631 C1633 1.419 . S
C1632 C1630 1.415 . S
C1632 C1637 1.425 . S
C1632 C1639 1.409 . S
C1633 H1625 0.930 . S
C1633 C1631 1.419 . S
C1633 C1634 1.362 . S
C1634 H1626 0.930 . S
C1634 C1633 1.362 . S
C1634 C1637 1.409 . S
C1635 H1627 0.930 . S
C1635 C1636 1.355 . S
C1635 C1637 1.415 . S
C1636 C1635 1.355 . S
C1636 C1638 1.419 . S
C1637 C1632 1.425 . S
C1637 C1634 1.409 . S
C1637 C1635 1.415 . S
C1638 H1628 0.930 . S
C1638 C1636 1.419 . S
C1638 C1639 1.362 . S
C1639 H1629 0.930 . S
C1639 C1632 1.409 . S
C1639 C1638 1.362 . S
H1640 C1646 0.930 . S
H1641 C1649 0.930 . S
H1642 C1650 0.930 . S
H1643 C1651 0.930 . S
H1644 C1654 0.930 . S
H1645 C1655 0.930 . S
C1646 H1640 0.930 . S
C1646 C1647 1.355 . S
C1646 C1648 1.415 . S
C1647 C1646 1.355 . S
C1647 C1649 1.419 . S
C1648 C1646 1.415 . S
C1648 C1653 1.425 . S
C1648 C1655 1.409 . S
C1649 H1641 0.930 . S
C1649 C1647 1.419 . S
C1649 C1650 1.362 . S
C1650 H1642 0.930 . S
C1650 C1649 1.362 . S
C1650 C1653 1.409 . S
C1651 H1643 0.930 . S
C1651 C1652 1.355 . S
C1651 C1653 1.415 . S
C1652 C1651 1.355 . S
C1652 C1654 1.419 . S
C1653 C1648 1.425 . S
C1653 C1650 1.409 . S
C1653 C1651 1.415 . S
C1654 H1644 0.930 . S
C1654 C1652 1.419 . S
C1654 C1655 1.362 . S
C1655 H1645 0.930 . S
C1655 C1648 1.409 . S
C1655 C1654 1.362 . S
H1656 C1662 0.930 . S
H1657 C1665 0.930 . S
H1658 C1666 0.935 . S
H1659 C1667 0.930 . S
H1660 C1670 0.930 . S
H1661 C1671 0.930 . S
C1662 H1656 0.930 . S
C1662 C1663 1.355 1_565 S
C1662 C1664 1.415 . S
C1663 C1662 1.355 1_545 S
C1663 C1665 1.419 . S
C1664 C1662 1.415 . S
C1664 C1669 1.425 . S
C1664 C1671 1.409 . S
C1665 H1657 0.930 . S
C1665 C1663 1.419 . S
C1665 C1666 1.362 1_545 S
C1666 H1658 0.935 . S
C1666 C1665 1.362 1_565 S
C1666 C1669 1.409 . S
C1667 H1659 0.930 . S
C1667 C1668 1.355 . S
C1667 C1669 1.415 . S
C1668 C1667 1.355 . S
C1668 C1670 1.419 . S
C1669 C1664 1.425 . S
C1669 C1666 1.409 . S
C1669 C1667 1.415 . S
C1670 H1660 0.930 . S
C1670 C1668 1.419 . S
C1670 C1671 1.362 . S
C1671 H1661 0.930 . S
C1671 C1664 1.409 . S
C1671 C1670 1.362 . S
H1672 C1678 0.930 . S
H1673 C1681 0.930 . S
H1674 C1682 0.930 . S
H1675 C1683 0.930 . S
H1676 C1686 0.930 . S
H1677 C1687 0.930 . S
C1678 H1672 0.930 . S
C1678 C1679 1.355 . S
C1678 C1680 1.415 . S
C1679 C1678 1.355 . S
C1679 C1681 1.419 . S
C1680 C1678 1.415 . S
C1680 C1685 1.425 . S
C1680 C1687 1.409 1_545 S
C1681 H1673 0.930 . S
C1681 C1679 1.419 . S
C1681 C1682 1.362 . S
C1682 H1674 0.930 . S
C1682 C1681 1.362 . S
C1682 C1685 1.409 . S
C1683 H1675 0.930 . S
C1683 C1684 1.355 1_545 S
C1683 C1685 1.415 . S
C1684 C1683 1.355 1_565 S
C1684 C1686 1.419 . S
C1685 C1680 1.425 . S
C1685 C1682 1.409 . S
C1685 C1683 1.415 . S
C1686 H1676 0.930 . S
C1686 C1684 1.419 . S
C1686 C1687 1.362 . S
C1687 H1677 0.930 . S
C1687 C1680 1.409 1_565 S
C1687 C1686 1.362 . S
H1688 C1694 0.930 . S
H1689 C1697 0.930 . S
H1690 C1698 0.930 . S
H1691 C1699 0.930 . S
H1692 C1702 0.930 . S
H1693 C1703 0.930 . S
C1694 H1688 0.930 . S
C1694 C1695 1.355 . S
C1694 C1696 1.415 . S
C1695 C1694 1.355 . S
C1695 C1697 1.419 . S
C1696 C1694 1.415 . S
C1696 C1701 1.425 . S
C1696 C1703 1.409 . S
C1697 H1689 0.930 . S
C1697 C1695 1.419 . S
C1697 C1698 1.362 . S
C1698 H1690 0.930 . S
C1698 C1697 1.362 . S
C1698 C1701 1.409 . S
C1699 H1691 0.930 . S
C1699 C1700 1.355 . S
C1699 C1701 1.415 . S
C1700 C1699 1.355 . S
C1700 C1702 1.419 . S
C1701 C1696 1.425 . S
C1701 C1698 1.409 . S
C1701 C1699 1.415 . S
C1702 H1692 0.930 . S
C1702 C1700 1.419 . S
C1702 C1703 1.362 . S
C1703 H1693 0.930 . S
C1703 C1696 1.409 . S
C1703 C1702 1.362 . S
H1704 C1710 0.930 . S
H1705 C1713 0.930 . S
H1706 C1714 0.930 . S
H1707 C1715 0.930 . S
H1708 C1718 0.930 . S
H1709 C1719 0.930 . S
C1710 H1704 0.930 . S
C1710 C1711 1.355 . S
C1710 C1712 1.415 . S
C1711 C1710 1.355 . S
C1711 C1713 1.419 . S
C1712 C1710 1.415 . S
C1712 C1717 1.425 . S
C1712 C1719 1.409 . S
C1713 H1705 0.930 . S
C1713 C1711 1.419 . S
C1713 C1714 1.362 . S
C1714 H1706 0.930 . S
C1714 C1713 1.362 . S
C1714 C1717 1.409 . S
C1715 H1707 0.930 . S
C1715 C1716 1.355 . S
C1715 C1717 1.415 . S
C1716 C1715 1.355 . S
C1716 C1718 1.419 . S
C1717 C1712 1.425 . S
C1717 C1714 1.409 . S
C1717 C1715 1.415 . S
C1718 H1708 0.930 . S
C1718 C1716 1.419 . S
C1718 C1719 1.362 . S
C1719 H1709 0.930 . S
C1719 C1712 1.409 . S
C1719 C1718 1.362 . S
H1720 C1726 0.930 . S
H1721 C1729 0.930 . S
H1722 C1730 0.930 . S
H1723 C1731 0.930 1_554 S
H1724 C1734 0.930 . S
H1725 C1735 0.930 . S
C1726 H1720 0.930 . S
C1726 C1727 1.355 . S
C1726 C1728 1.415 . S
C1727 C1726 1.355 . S
C1727 C1729 1.419 . S
C1728 C1726 1.415 . S
C1728 C1733 1.425 . S
C1728 C1735 1.409 . S
C1729 H1721 0.930 . S
C1729 C1727 1.419 . S
C1729 C1730 1.362 . S
C1730 H1722 0.930 . S
C1730 C1729 1.362 . S
C1730 C1733 1.409 . S
C1731 H1723 0.930 1_556 S
C1731 C1732 1.355 1_556 S
C1731 C1733 1.415 . S
C1732 C1731 1.355 1_554 S
C1732 C1734 1.419 1_554 S
C1733 C1728 1.425 . S
C1733 C1730 1.409 . S
C1733 C1731 1.415 . S
C1734 H1724 0.930 . S
C1734 C1732 1.419 1_556 S
C1734 C1735 1.362 . S
C1735 H1725 0.930 . S
C1735 C1728 1.409 . S
C1735 C1734 1.362 . S
H1736 C1742 0.930 . S
H1737 C1745 0.930 . S
H1738 C1746 0.930 . S
H1739 C1747 0.930 . S
H1740 C1750 0.930 . S
H1741 C1751 0.930 . S
C1742 H1736 0.930 . S
C1742 C1743 1.355 . S
C1742 C1744 1.415 . S
C1743 C1742 1.355 . S
C1743 C1745 1.419 . S
C1744 C1742 1.415 . S
C1744 C1749 1.425 . S
C1744 C1751 1.409 . S
C1745 H1737 0.930 . S
C1745 C1743 1.419 . S
C1745 C1746 1.362 . S
C1746 H1738 0.930 . S
C1746 C1745 1.362 . S
C1746 C1749 1.409 . S
C1747 H1739 0.930 . S
C1747 C1748 1.355 . S
C1747 C1749 1.415 . S
C1748 C1747 1.355 . S
C1748 C1750 1.419 . S
C1749 C1744 1.425 . S
C1749 C1746 1.409 . S
C1749 C1747 1.415 . S
C1750 H1740 0.930 . S
C1750 C1748 1.419 . S
C1750 C1751 1.362 . S
C1751 H1741 0.930 . S
C1751 C1744 1.409 . S
C1751 C1750 1.362 . S
H1752 C1758 0.930 . S
H1753 C1761 0.930 . S
H1754 C1762 0.930 . S
H1755 C1763 0.930 . S
H1756 C1766 0.930 . S
H1757 C1767 0.930 . S
C1758 H1752 0.930 . S
C1758 C1759 1.355 . S
C1758 C1760 1.415 . S
C1759 C1758 1.355 . S
C1759 C1761 1.419 . S
C1760 C1758 1.415 . S
C1760 C1765 1.425 . S
C1760 C1767 1.409 1_554 S
C1761 H1753 0.930 . S
C1761 C1759 1.419 . S
C1761 C1762 1.362 . S
C1762 H1754 0.930 . S
C1762 C1761 1.362 . S
C1762 C1765 1.409 . S
C1763 H1755 0.930 . S
C1763 C1764 1.355 1_554 S
C1763 C1765 1.415 . S
C1764 C1763 1.355 1_556 S
C1764 C1766 1.419 . S
C1765 C1760 1.425 . S
C1765 C1762 1.409 . S
C1765 C1763 1.415 . S
C1766 H1756 0.930 . S
C1766 C1764 1.419 . S
C1766 C1767 1.362 . S
C1767 H1757 0.930 . S
C1767 C1760 1.409 1_556 S
C1767 C1766 1.362 . S
H1768 C1774 0.930 . S
H1769 C1777 0.930 . S
H1770 C1778 0.930 . S
H1771 C1779 0.930 . S
H1772 C1782 0.930 . S
H1773 C1783 0.930 . S
C1774 H1768 0.930 . S
C1774 C1775 1.355 . S
C1774 C1776 1.415 . S
C1775 C1774 1.355 . S
C1775 C1777 1.419 . S
C1776 C1774 1.415 . S
C1776 C1781 1.425 . S
C1776 C1783 1.409 . S
C1777 H1769 0.930 . S
C1777 C1775 1.419 . S
C1777 C1778 1.362 . S
C1778 H1770 0.930 . S
C1778 C1777 1.362 . S
C1778 C1781 1.409 . S
C1779 H1771 0.930 . S
C1779 C1780 1.355 . S
C1779 C1781 1.415 . S
C1780 C1779 1.355 . S
C1780 C1782 1.419 . S
C1781 C1776 1.425 . S
C1781 C1778 1.409 . S
C1781 C1779 1.415 . S
C1782 H1772 0.930 . S
C1782 C1780 1.419 . S
C1782 C1783 1.362 . S
C1783 H1773 0.930 . S
C1783 C1776 1.409 . S
C1783 C1782 1.362 . S
H1784 C1790 0.930 . S
H1785 C1793 0.930 . S
H1786 C1794 0.930 . S
H1787 C1795 0.930 . S
H1788 C1798 0.930 . S
H1789 C1799 0.930 . S
C1790 H1784 0.930 . S
C1790 C1791 1.355 . S
C1790 C1792 1.415 1_655 S
C1791 C1790 1.355 . S
C1791 C1793 1.419 1_655 S
C1792 C1790 1.415 1_455 S
C1792 C1797 1.425 . S
C1792 C1799 1.409 1_455 S
C1793 H1785 0.930 . S
C1793 C1791 1.419 1_455 S
C1793 C1794 1.362 . S
C1794 H1786 0.930 . S
C1794 C1793 1.362 . S
C1794 C1797 1.409 . S
C1795 H1787 0.930 . S
C1795 C1796 1.355 . S
C1795 C1797 1.415 . S
C1796 C1795 1.355 . S
C1796 C1798 1.419 . S
C1797 C1792 1.425 . S
C1797 C1794 1.409 . S
C1797 C1795 1.415 . S
C1798 H1788 0.930 . S
C1798 C1796 1.419 . S
C1798 C1799 1.362 1_455 S
C1799 H1789 0.930 . S
C1799 C1792 1.409 1_655 S
C1799 C1798 1.362 1_655 S
H1800 C1806 0.930 1_455 S
H1801 C1809 0.926 1_455 S
H1802 C1810 0.930 . S
H1803 C1811 0.930 . S
H1804 C1814 0.930 . S
H1805 C1815 0.930 . S
C1806 H1800 0.930 1_655 S
C1806 C1807 1.355 1_655 S
C1806 C1808 1.415 . S
C1807 C1806 1.355 1_455 S
C1807 C1809 1.417 1_455 S
C1808 C1806 1.415 . S
C1808 C1813 1.425 . S
C1808 C1815 1.409 . S
C1809 H1801 0.926 1_655 S
C1809 C1807 1.417 1_655 S
C1809 C1810 1.369 . S
C1810 H1802 0.930 . S
C1810 C1809 1.369 . S
C1810 C1813 1.409 . S
C1811 H1803 0.930 . S
C1811 C1812 1.355 . S
C1811 C1813 1.415 . S
C1812 C1811 1.355 . S
C1812 C1814 1.419 . S
C1813 C1808 1.425 . S
C1813 C1810 1.409 . S
C1813 C1811 1.415 . S
C1814 H1804 0.930 . S
C1814 C1812 1.419 . S
C1814 C1815 1.362 . S
C1815 H1805 0.930 . S
C1815 C1808 1.409 . S
C1815 C1814 1.362 . S
H1816 C1822 0.930 . S
H1817 C1825 0.930 . S
H1818 C1826 0.930 . S
H1819 C1827 0.930 . S
H1820 C1830 0.930 . S
H1821 C1831 0.930 . S
C1822 H1816 0.930 . S
C1822 C1823 1.355 . S
C1822 C1824 1.415 . S
C1823 C1822 1.355 . S
C1823 C1825 1.419 . S
C1824 C1822 1.415 . S
C1824 C1829 1.425 . S
C1824 C1831 1.409 . S
C1825 H1817 0.930 . S
C1825 C1823 1.419 . S
C1825 C1826 1.362 . S
C1826 H1818 0.930 . S
C1826 C1825 1.362 . S
C1826 C1829 1.409 . S
C1827 H1819 0.930 . S
C1827 C1828 1.355 . S
C1827 C1829 1.415 . S
C1828 C1827 1.355 . S
C1828 C1830 1.419 . S
C1829 C1824 1.425 . S
C1829 C1826 1.409 . S
C1829 C1827 1.415 . S
C1830 H1820 0.930 . S
C1830 C1828 1.419 . S
C1830 C1831 1.362 . S
C1831 H1821 0.930 . S
C1831 C1824 1.409 . S
C1831 C1830 1.362 . S
H1832 C1838 0.930 . S
H1833 C1841 0.930 . S
H1834 C1842 0.930 . S
H1835 C1843 0.930 . S
H1836 C1846 0.930 . S
H1837 C1847 0.930 . S
C1838 H1832 0.930 . S
C1838 C1839 1.355 . S
C1838 C1840 1.415 . S
C1839 C1838 1.355 . S
C1839 C1841 1.419 . S
C1840 C1838 1.415 . S
C1840 C1845 1.425 . S
C1840 C1847 1.409 . S
C1841 H1833 0.930 . S
C1841 C1839 1.419 . S
C1841 C1842 1.362 . S
C1842 H1834 0.930 . S
C1842 C1841 1.362 . S
C1842 C1845 1.409 . S
C1843 H1835 0.930 . S
C1843 C1844 1.355 . S
C1843 C1845 1.415 . S
C1844 C1843 1.355 . S
C1844 C1846 1.419 . S
C1845 C1840 1.425 . S
C1845 C1842 1.409 . S
C1845 C1843 1.415 . S
C1846 H1836 0.930 . S
C1846 C1844 1.419 . S
C1846 C1847 1.362 . S
C1847 H1837 0.930 . S
C1847 C1840 1.409 . S
C1847 C1846 1.362 . S
H1848 C1854 0.930 . S
H1849 C1857 0.930 . S
H1850 C1858 0.930 . S
H1851 C1859 0.930 . S
H1852 C1862 0.930 . S
H1853 C1863 0.930 . S
C1854 H1848 0.930 . S
C1854 C1855 1.355 . S
C1854 C1856 1.415 . S
C1855 C1854 1.355 . S
C1855 C1857 1.419 . S
C1856 C1854 1.415 . S
C1856 C1861 1.425 . S
C1856 C1863 1.409 1_545 S
C1857 H1849 0.930 . S
C1857 C1855 1.419 . S
C1857 C1858 1.362 . S
C1858 H1850 0.930 . S
C1858 C1857 1.362 . S
C1858 C1861 1.409 . S
C1859 H1851 0.930 . S
C1859 C1860 1.355 1_545 S
C1859 C1861 1.415 . S
C1860 C1859 1.355 1_565 S
C1860 C1862 1.419 . S
C1861 C1856 1.425 . S
C1861 C1858 1.409 . S
C1861 C1859 1.415 . S
C1862 H1852 0.930 . S
C1862 C1860 1.419 . S
C1862 C1863 1.362 . S
C1863 H1853 0.930 . S
C1863 C1856 1.409 1_565 S
C1863 C1862 1.362 . S
H1864 C1870 0.930 . S
H1865 C1873 0.930 . S
H1866 C1874 0.930 . S
H1867 C1875 0.930 . S
H1868 C1878 0.930 . S
H1869 C1879 0.930 . S
C1870 H1864 0.930 . S
C1870 C1871 1.355 . S
C1870 C1872 1.415 . S
C1871 C1870 1.355 . S
C1871 C1873 1.419 . S
C1872 C1870 1.415 . S
C1872 C1877 1.425 . S
C1872 C1879 1.409 . S
C1873 H1865 0.930 . S
C1873 C1871 1.419 . S
C1873 C1874 1.362 1_565 S
C1874 H1866 0.930 . S
C1874 C1873 1.362 1_545 S
C1874 C1877 1.409 1_545 S
C1875 H1867 0.930 . S
C1875 C1876 1.355 . S
C1875 C1877 1.415 1_545 S
C1876 C1875 1.355 . S
C1876 C1878 1.419 1_545 S
C1877 C1872 1.425 . S
C1877 C1874 1.409 1_565 S
C1877 C1875 1.415 1_565 S
C1878 H1868 0.930 . S
C1878 C1876 1.419 1_565 S
C1878 C1879 1.362 . S
C1879 H1869 0.930 . S
C1879 C1872 1.409 . S
C1879 C1878 1.362 . S
H1880 C1886 0.930 . S
H1881 C1889 0.930 . S
H1882 C1890 0.930 . S
H1883 C1891 0.930 . S
H1884 C1894 0.930 . S
H1885 C1895 0.930 . S
C1886 H1880 0.930 . S
C1886 C1887 1.355 . S
C1886 C1888 1.415 . S
C1887 C1886 1.355 . S
C1887 C1889 1.419 . S
C1888 C1886 1.415 . S
C1888 C1893 1.425 . S
C1888 C1895 1.409 . S
C1889 H1881 0.930 . S
C1889 C1887 1.419 . S
C1889 C1890 1.362 . S
C1890 H1882 0.930 . S
C1890 C1889 1.362 . S
C1890 C1893 1.409 . S
C1891 H1883 0.930 . S
C1891 C1892 1.355 . S
C1891 C1893 1.415 . S
C1892 C1891 1.355 . S
C1892 C1894 1.419 . S
C1893 C1888 1.425 . S
C1893 C1890 1.409 . S
C1893 C1891 1.415 . S
C1894 H1884 0.930 . S
C1894 C1892 1.419 . S
C1894 C1895 1.362 . S
C1895 H1885 0.930 . S
C1895 C1888 1.409 . S
C1895 C1894 1.362 . S
H1896 C1902 0.930 . S
H1897 C1905 0.930 . S
H1898 C1906 0.930 . S
H1899 C1907 0.930 . S
H1900 C1910 0.930 . S
H1901 C1911 0.930 . S
C1902 H1896 0.930 . S
C1902 C1903 1.355 . S
C1902 C1904 1.415 . S
C1903 C1902 1.355 . S
C1903 C1905 1.419 . S
C1904 C1902 1.415 . S
C1904 C1909 1.425 . S
C1904 C1911 1.409 . S
C1905 H1897 0.930 . S
C1905 C1903 1.419 . S
C1905 C1906 1.362 . S
C1906 H1898 0.930 . S
C1906 C1905 1.362 . S
C1906 C1909 1.409 . S
C1907 H1899 0.930 . S
C1907 C1908 1.355 . S
C1907 C1909 1.415 . S
C1908 C1907 1.355 . S
C1908 C1910 1.419 . S
C1909 C1904 1.425 . S
C1909 C1906 1.409 . S
C1909 C1907 1.415 . S
C1910 H1900 0.930 . S
C1910 C1908 1.419 . S
C1910 C1911 1.362 . S
C1911 H1901 0.930 . S
C1911 C1904 1.409 . S
C1911 C1910 1.362 . S
H1912 C1918 0.930 . S
H1913 C1921 0.930 . S
H1914 C1922 0.930 . S
H1915 C1923 0.930 . S
H1916 C1926 0.930 . S
H1917 C1927 0.930 . S
C1918 H1912 0.930 . S
C1918 C1919 1.355 . S
C1918 C1920 1.415 . S
C1919 C1918 1.355 . S
C1919 C1921 1.419 . S
C1920 C1918 1.415 . S
C1920 C1925 1.425 . S
C1920 C1927 1.409 1_554 S
C1921 H1913 0.930 . S
C1921 C1919 1.419 . S
C1921 C1922 1.362 . S
C1922 H1914 0.930 . S
C1922 C1921 1.362 . S
C1922 C1925 1.409 . S
C1923 H1915 0.930 . S
C1923 C1924 1.355 1_554 S
C1923 C1925 1.415 . S
C1924 C1923 1.355 1_556 S
C1924 C1926 1.419 . S
C1925 C1920 1.425 . S
C1925 C1922 1.409 . S
C1925 C1923 1.415 . S
C1926 H1916 0.930 . S
C1926 C1924 1.419 . S
C1926 C1927 1.362 . S
C1927 H1917 0.930 . S
C1927 C1920 1.409 1_556 S
C1927 C1926 1.362 . S
H1928 C1934 0.930 . S
H1929 C1937 0.930 . S
H1930 C1938 0.930 . S
H1931 C1939 0.930 . S
H1932 C1942 0.930 . S
H1933 C1943 0.930 . S
C1934 H1928 0.930 . S
C1934 C1935 1.355 . S
C1934 C1936 1.415 . S
C1935 C1934 1.355 . S
C1935 C1937 1.419 . S
C1936 C1934 1.415 . S
C1936 C1941 1.425 . S
C1936 C1943 1.409 . S
C1937 H1929 0.930 . S
C1937 C1935 1.419 . S
C1937 C1938 1.362 . S
C1938 H1930 0.930 . S
C1938 C1937 1.362 . S
C1938 C1941 1.409 . S
C1939 H1931 0.930 . S
C1939 C1940 1.355 . S
C1939 C1941 1.415 . S
C1940 C1939 1.355 . S
C1940 C1942 1.419 . S
C1941 C1936 1.425 . S
C1941 C1938 1.409 . S
C1941 C1939 1.415 . S
C1942 H1932 0.930 . S
C1942 C1940 1.419 . S
C1942 C1943 1.362 . S
C1943 H1933 0.930 . S
C1943 C1936 1.409 . S
C1943 C1942 1.362 . S
H1944 C1950 0.930 . S
H1945 C1953 0.930 . S
H1946 C1954 0.930 . S
H1947 C1955 0.930 . S
H1948 C1958 0.930 . S
H1949 C1959 0.930 . S
C1950 H1944 0.930 . S
C1950 C1951 1.355 . S
C1950 C1952 1.415 . S
C1951 C1950 1.355 . S
C1951 C1953 1.419 . S
C1952 C1950 1.415 . S
C1952 C1957 1.425 . S
C1952 C1959 1.409 . S
C1953 H1945 0.930 . S
C1953 C1951 1.419 . S
C1953 C1954 1.362 . S
C1954 H1946 0.930 . S
C1954 C1953 1.362 . S
C1954 C1957 1.409 . S
C1955 H1947 0.930 . S
C1955 C1956 1.355 1_556 S
C1955 C1957 1.415 . S
C1956 C1955 1.355 1_554 S
C1956 C1958 1.419 . S
C1957 C1952 1.425 . S
C1957 C1954 1.409 . S
C1957 C1955 1.415 . S
C1958 H1948 0.930 . S
C1958 C1956 1.419 . S
C1958 C1959 1.362 1_554 S
C1959 H1949 0.930 . S
C1959 C1952 1.409 . S
C1959 C1958 1.362 1_556 S
H1960 C1966 0.930 . S
H1961 C1969 0.930 . S
H1962 C1970 0.930 . S
H1963 C1971 0.930 . S
H1964 C1974 0.930 . S
H1965 C1975 0.930 . S
C1966 H1960 0.930 . S
C1966 C1967 1.355 . S
C1966 C1968 1.415 . S
C1967 C1966 1.355 . S
C1967 C1969 1.419 . S
C1968 C1966 1.415 . S
C1968 C1973 1.425 . S
C1968 C1975 1.409 . S
C1969 H1961 0.930 . S
C1969 C1967 1.419 . S
C1969 C1970 1.362 . S
C1970 H1962 0.930 . S
C1970 C1969 1.362 . S
C1970 C1973 1.409 . S
C1971 H1963 0.930 . S
C1971 C1972 1.355 . S
C1971 C1973 1.415 . S
C1972 C1971 1.355 . S
C1972 C1974 1.419 . S
C1973 C1968 1.425 . S
C1973 C1970 1.409 . S
C1973 C1971 1.415 . S
C1974 H1964 0.930 . S
C1974 C1972 1.419 . S
C1974 C1975 1.362 . S
C1975 H1965 0.930 . S
C1975 C1968 1.409 . S
C1975 C1974 1.362 . S
H1976 C1982 0.930 . S
H1977 C1985 0.930 . S
H1978 C1986 0.930 . S
H1979 C1987 0.930 . S
H1980 C1990 0.930 . S
H1981 C1991 0.930 . S
C1982 H1976 0.930 . S
C1982 C1983 1.355 . S
C1982 C1984 1.415 . S
C1983 C1982 1.355 . S
C1983 C1985 1.419 . S
C1984 C1982 1.415 . S
C1984 C1989 1.425 . S
C1984 C1991 1.409 . S
C1985 H1977 0.930 . S
C1985 C1983 1.419 . S
C1985 C1986 1.362 . S
C1986 H1978 0.930 . S
C1986 C1985 1.362 . S
C1986 C1989 1.409 . S
C1987 H1979 0.930 . S
C1987 C1988 1.355 1_655 S
C1987 C1989 1.415 . S
C1988 C1987 1.355 1_455 S
C1988 C1990 1.419 . S
C1989 C1984 1.425 . S
C1989 C1986 1.409 . S
C1989 C1987 1.415 . S
C1990 H1980 0.930 . S
C1990 C1988 1.419 . S
C1990 C1991 1.362 1_455 S
C1991 H1981 0.930 . S
C1991 C1984 1.409 . S
C1991 C1990 1.362 1_655 S
H1992 C1998 0.930 . S
H1993 C2001 0.930 . S
H1994 C2002 0.930 . S
H1995 C2003 0.930 . S
H1996 C2006 0.930 . S
H1997 C2007 0.930 1_655 S
C1998 H1992 0.930 . S
C1998 C1999 1.355 . S
C1998 C2000 1.415 1_655 S
C1999 C1998 1.355 . S
C1999 C2001 1.419 1_655 S
C2000 C1998 1.415 1_455 S
C2000 C2005 1.425 . S
C2000 C2007 1.409 . S
C2001 H1993 0.930 . S
C2001 C1999 1.419 1_455 S
C2001 C2002 1.362 . S
C2002 H1994 0.930 . S
C2002 C2001 1.362 . S
C2002 C2005 1.409 . S
C2003 H1995 0.930 . S
C2003 C2004 1.355 . S
C2003 C2005 1.415 . S
C2004 C2003 1.355 . S
C2004 C2006 1.419 . S
C2005 C2000 1.425 . S
C2005 C2002 1.409 . S
C2005 C2003 1.415 . S
C2006 H1996 0.930 . S
C2006 C2004 1.419 . S
C2006 C2007 1.362 . S
C2007 H1997 0.930 1_455 S
C2007 C2000 1.409 . S
C2007 C2006 1.362 . S
H2008 C2014 0.930 . S
H2009 C2017 0.930 . S
H2010 C2018 0.930 . S
H2011 C2019 0.930 . S
H2012 C2022 0.930 . S
H2013 C2023 0.930 . S
C2014 H2008 0.930 . S
C2014 C2015 1.355 . S
C2014 C2016 1.415 . S
C2015 C2014 1.355 . S
C2015 C2017 1.419 . S
C2016 C2014 1.415 . S
C2016 C2021 1.425 . S
C2016 C2023 1.409 . S
C2017 H2009 0.930 . S
C2017 C2015 1.419 . S
C2017 C2018 1.362 . S
C2018 H2010 0.930 . S
C2018 C2017 1.362 . S
C2018 C2021 1.409 . S
C2019 H2011 0.930 . S
C2019 C2020 1.355 . S
C2019 C2021 1.415 . S
C2020 C2019 1.355 . S
C2020 C2022 1.419 . S
C2021 C2016 1.425 . S
C2021 C2018 1.409 . S
C2021 C2019 1.415 . S
C2022 H2012 0.930 . S
C2022 C2020 1.419 . S
C2022 C2023 1.362 . S
C2023 H2013 0.930 . S
C2023 C2016 1.409 . S
C2023 C2022 1.362 . S
H2024 C2030 0.930 . S
H2025 C2033 0.930 . S
H2026 C2034 0.930 . S
H2027 C2035 0.930 . S
H2028 C2038 0.930 . S
H2029 C2039 0.930 . S
C2030 H2024 0.930 . S
C2030 C2031 1.355 . S
C2030 C2032 1.415 . S
C2031 C2030 1.355 . S
C2031 C2033 1.419 . S
C2032 C2030 1.415 . S
C2032 C2037 1.425 . S
C2032 C2039 1.409 . S
C2033 H2025 0.930 . S
C2033 C2031 1.419 . S
C2033 C2034 1.362 . S
C2034 H2026 0.930 . S
C2034 C2033 1.362 . S
C2034 C2037 1.409 . S
C2035 H2027 0.930 . S
C2035 C2036 1.355 . S
C2035 C2037 1.415 . S
C2036 C2035 1.355 . S
C2036 C2038 1.419 . S
C2037 C2032 1.425 . S
C2037 C2034 1.409 . S
C2037 C2035 1.415 . S
C2038 H2028 0.930 . S
C2038 C2036 1.419 . S
C2038 C2039 1.362 . S
C2039 H2029 0.930 . S
C2039 C2032 1.409 . S
C2039 C2038 1.362 . S
H2040 C2046 0.930 . S
H2041 C2049 0.930 . S
H2042 C2050 0.930 1_545 S
H2043 C2051 0.930 . S
H2044 C2054 0.930 . S
H2045 C2055 0.930 . S
C2046 H2040 0.930 . S
C2046 C2047 1.355 . S
C2046 C2048 1.415 . S
C2047 C2046 1.355 . S
C2047 C2049 1.419 . S
C2048 C2046 1.415 . S
C2048 C2053 1.425 . S
C2048 C2055 1.409 . S
C2049 H2041 0.930 . S
C2049 C2047 1.419 . S
C2049 C2050 1.362 . S
C2050 H2042 0.930 1_565 S
C2050 C2049 1.362 . S
C2050 C2053 1.409 . S
C2051 H2043 0.930 . S
C2051 C2052 1.355 . S
C2051 C2053 1.415 1_545 S
C2052 C2051 1.355 . S
C2052 C2054 1.419 1_545 S
C2053 C2048 1.425 . S
C2053 C2050 1.409 . S
C2053 C2051 1.415 1_565 S
C2054 H2044 0.930 . S
C2054 C2052 1.419 1_565 S
C2054 C2055 1.362 . S
C2055 H2045 0.930 . S
C2055 C2048 1.409 . S
C2055 C2054 1.362 . S
H2056 C2062 0.930 . S
H2057 C2065 0.930 . S
H2058 C2066 0.930 . S
H2059 C2067 0.930 . S
H2060 C2070 0.930 . S
H2061 C2071 0.930 . S
C2062 H2056 0.930 . S
C2062 C2063 1.355 1_545 S
C2062 C2064 1.415 . S
C2063 C2062 1.355 1_565 S
C2063 C2065 1.419 . S
C2064 C2062 1.415 . S
C2064 C2069 1.425 . S
C2064 C2071 1.409 . S
C2065 H2057 0.930 . S
C2065 C2063 1.419 . S
C2065 C2066 1.362 . S
C2066 H2058 0.930 . S
C2066 C2065 1.362 . S
C2066 C2069 1.409 1_565 S
C2067 H2059 0.930 . S
C2067 C2068 1.355 . S
C2067 C2069 1.415 . S
C2068 C2067 1.355 . S
C2068 C2070 1.419 . S
C2069 C2064 1.425 . S
C2069 C2066 1.409 1_545 S
C2069 C2067 1.415 . S
C2070 H2060 0.930 . S
C2070 C2068 1.419 . S
C2070 C2071 1.362 . S
C2071 H2061 0.930 . S
C2071 C2064 1.409 . S
C2071 C2070 1.362 . S
H2072 C2078 0.930 . S
H2073 C2081 0.930 . S
H2074 C2082 0.930 . S
H2075 C2083 0.930 . S
H2076 C2086 0.930 . S
H2077 C2087 0.930 . S
C2078 H2072 0.930 . S
C2078 C2079 1.355 . S
C2078 C2080 1.415 . S
C2079 C2078 1.355 . S
C2079 C2081 1.419 . S
C2080 C2078 1.415 . S
C2080 C2085 1.425 . S
C2080 C2087 1.409 . S
C2081 H2073 0.930 . S
C2081 C2079 1.419 . S
C2081 C2082 1.362 . S
C2082 H2074 0.930 . S
C2082 C2081 1.362 . S
C2082 C2085 1.409 . S
C2083 H2075 0.930 . S
C2083 C2084 1.355 . S
C2083 C2085 1.415 . S
C2084 C2083 1.355 . S
C2084 C2086 1.419 . S
C2085 C2080 1.425 . S
C2085 C2082 1.409 . S
C2085 C2083 1.415 . S
C2086 H2076 0.930 . S
C2086 C2084 1.419 . S
C2086 C2087 1.362 . S
C2087 H2077 0.930 . S
C2087 C2080 1.409 . S
C2087 C2086 1.362 . S
H2088 C2094 0.930 . S
H2089 C2097 0.930 . S
H2090 C2098 0.930 . S
H2091 C2099 0.930 . S
H2092 C2102 0.930 . S
H2093 C2103 0.930 . S
C2094 H2088 0.930 . S
C2094 C2095 1.355 . S
C2094 C2096 1.415 . S
C2095 C2094 1.355 . S
C2095 C2097 1.419 . S
C2096 C2094 1.415 . S
C2096 C2101 1.425 . S
C2096 C2103 1.409 . S
C2097 H2089 0.930 . S
C2097 C2095 1.419 . S
C2097 C2098 1.362 . S
C2098 H2090 0.930 . S
C2098 C2097 1.362 . S
C2098 C2101 1.409 . S
C2099 H2091 0.930 . S
C2099 C2100 1.355 . S
C2099 C2101 1.415 . S
C2100 C2099 1.355 . S
C2100 C2102 1.419 . S
C2101 C2096 1.425 . S
C2101 C2098 1.409 . S
C2101 C2099 1.415 . S
C2102 H2092 0.930 . S
C2102 C2100 1.419 . S
C2102 C2103 1.362 . S
C2103 H2093 0.930 . S
C2103 C2096 1.409 . S
C2103 C2102 1.362 . S
H2104 C2110 0.930 . S
H2105 C2113 0.930 . S
H2106 C2114 0.930 . S
H2107 C2115 0.930 . S
H2108 C2118 0.930 . S
H2109 C2119 0.930 . S
C2110 H2104 0.930 . S
C2110 C2111 1.355 1_556 S
C2110 C2112 1.415 . S
C2111 C2110 1.355 1_554 S
C2111 C2113 1.419 . S
C2112 C2110 1.415 . S
C2112 C2117 1.425 . S
C2112 C2119 1.409 . S
C2113 H2105 0.930 . S
C2113 C2111 1.419 . S
C2113 C2114 1.362 . S
C2114 H2106 0.930 . S
C2114 C2113 1.362 . S
C2114 C2117 1.409 1_554 S
C2115 H2107 0.930 . S
C2115 C2116 1.355 . S
C2115 C2117 1.415 . S
C2116 C2115 1.355 . S
C2116 C2118 1.419 . S
C2117 C2112 1.425 . S
C2117 C2114 1.409 1_556 S
C2117 C2115 1.415 . S
C2118 H2108 0.930 . S
C2118 C2116 1.419 . S
C2118 C2119 1.362 . S
C2119 H2109 0.930 . S
C2119 C2112 1.409 . S
C2119 C2118 1.362 . S
H2120 C2126 0.930 . S
H2121 C2129 0.930 . S
H2122 C2130 0.930 . S
H2123 C2131 0.930 . S
H2124 C2134 0.930 . S
H2125 C2135 0.930 . S
C2126 H2120 0.930 . S
C2126 C2127 1.355 . S
C2126 C2128 1.415 . S
C2127 C2126 1.355 . S
C2127 C2129 1.419 . S
C2128 C2126 1.415 . S
C2128 C2133 1.425 . S
C2128 C2135 1.409 . S
C2129 H2121 0.930 . S
C2129 C2127 1.419 . S
C2129 C2130 1.362 . S
C2130 H2122 0.930 . S
C2130 C2129 1.362 . S
C2130 C2133 1.409 . S
C2131 H2123 0.930 . S
C2131 C2132 1.355 . S
C2131 C2133 1.415 . S
C2132 C2131 1.355 . S
C2132 C2134 1.419 . S
C2133 C2128 1.425 . S
C2133 C2130 1.409 . S
C2133 C2131 1.415 . S
C2134 H2124 0.930 . S
C2134 C2132 1.419 . S
C2134 C2135 1.362 . S
C2135 H2125 0.930 . S
C2135 C2128 1.409 . S
C2135 C2134 1.362 . S
H2136 C2142 0.930 . S
H2137 C2145 0.930 . S
H2138 C2146 0.930 . S
H2139 C2147 0.930 . S
H2140 C2150 0.930 . S
H2141 C2151 0.930 . S
C2142 H2136 0.930 . S
C2142 C2143 1.355 . S
C2142 C2144 1.415 . S
C2143 C2142 1.355 . S
C2143 C2145 1.419 . S
C2144 C2142 1.415 . S
C2144 C2149 1.425 . S
C2144 C2151 1.409 1_554 S
C2145 H2137 0.930 . S
C2145 C2143 1.419 . S
C2145 C2146 1.362 . S
C2146 H2138 0.930 . S
C2146 C2145 1.362 . S
C2146 C2149 1.409 . S
C2147 H2139 0.930 . S
C2147 C2148 1.355 1_554 S
C2147 C2149 1.415 . S
C2148 C2147 1.355 1_556 S
C2148 C2150 1.419 . S
C2149 C2144 1.425 . S
C2149 C2146 1.409 . S
C2149 C2147 1.415 . S
C2150 H2140 0.930 . S
C2150 C2148 1.419 . S
C2150 C2151 1.362 . S
C2151 H2141 0.930 . S
C2151 C2144 1.409 1_556 S
C2151 C2150 1.362 . S
H2152 C2158 0.930 . S
H2153 C2161 0.930 . S
H2154 C2162 0.930 . S
H2155 C2163 0.930 . S
H2156 C2166 0.930 . S
H2157 C2167 0.930 . S
C2158 H2152 0.930 . S
C2158 C2159 1.355 . S
C2158 C2160 1.415 . S
C2159 C2158 1.355 . S
C2159 C2161 1.419 . S
C2160 C2158 1.415 . S
C2160 C2165 1.425 . S
C2160 C2167 1.409 . S
C2161 H2153 0.930 . S
C2161 C2159 1.419 . S
C2161 C2162 1.362 . S
C2162 H2154 0.930 . S
C2162 C2161 1.362 . S
C2162 C2165 1.409 . S
C2163 H2155 0.930 . S
C2163 C2164 1.355 . S
C2163 C2165 1.415 . S
C2164 C2163 1.355 . S
C2164 C2166 1.419 . S
C2165 C2160 1.425 . S
C2165 C2162 1.409 . S
C2165 C2163 1.415 . S
C2166 H2156 0.930 . S
C2166 C2164 1.419 . S
C2166 C2167 1.362 . S
C2167 H2157 0.930 . S
C2167 C2160 1.409 . S
C2167 C2166 1.362 . S
H2168 C2174 0.930 . S
H2169 C2177 0.930 . S
H2170 C2178 0.930 . S
H2171 C2179 0.930 . S
H2172 C2182 0.930 . S
H2173 C2183 0.930 . S
C2174 H2168 0.930 . S
C2174 C2175 1.355 1_455 S
C2174 C2176 1.415 . S
C2175 C2174 1.355 1_655 S
C2175 C2177 1.419 . S
C2176 C2174 1.415 . S
C2176 C2181 1.425 . S
C2176 C2183 1.409 . S
C2177 H2169 0.930 . S
C2177 C2175 1.419 . S
C2177 C2178 1.362 1_655 S
C2178 H2170 0.930 . S
C2178 C2177 1.362 1_455 S
C2178 C2181 1.409 . S
C2179 H2171 0.930 . S
C2179 C2180 1.355 . S
C2179 C2181 1.415 . S
C2180 C2179 1.355 . S
C2180 C2182 1.419 . S
C2181 C2176 1.425 . S
C2181 C2178 1.409 . S
C2181 C2179 1.415 . S
C2182 H2172 0.930 . S
C2182 C2180 1.419 . S
C2182 C2183 1.362 . S
C2183 H2173 0.930 . S
C2183 C2176 1.409 . S
C2183 C2182 1.362 . S
H2184 C2190 0.930 . S
H2185 C2193 0.930 . S
H2186 C2194 0.939 . S
H2187 C2195 0.930 . S
H2188 C2198 0.930 . S
H2189 C2199 0.930 . S
C2190 H2184 0.930 . S
C2190 C2191 1.355 1_655 S
C2190 C2192 1.415 . S
C2191 C2190 1.355 1_455 S
C2191 C2193 1.419 . S
C2192 C2190 1.415 . S
C2192 C2197 1.425 . S
C2192 C2199 1.409 . S
C2193 H2185 0.930 . S
C2193 C2191 1.419 . S
C2193 C2194 1.379 . S
C2194 H2186 0.939 . S
C2194 C2193 1.379 . S
C2194 C2197 1.385 1_455 S
C2195 H2187 0.930 . S
C2195 C2196 1.355 . S
C2195 C2197 1.415 . S
C2196 C2195 1.355 . S
C2196 C2198 1.419 . S
C2197 C2192 1.425 . S
C2197 C2194 1.385 1_655 S
C2197 C2195 1.415 . S
C2198 H2188 0.930 . S
C2198 C2196 1.419 . S
C2198 C2199 1.362 . S
C2199 H2189 0.930 . S
C2199 C2192 1.409 . S
C2199 C2198 1.362 . S
H2200 C2206 0.930 . S
H2201 C2209 0.930 . S
H2202 C2210 0.930 . S
H2203 C2211 0.930 . S
H2204 C2214 0.930 . S
H2205 C2215 0.930 . S
C2206 H2200 0.930 . S
C2206 C2207 1.355 . S
C2206 C2208 1.415 . S
C2207 C2206 1.355 . S
C2207 C2209 1.419 . S
C2208 C2206 1.415 . S
C2208 C2213 1.425 . S
C2208 C2215 1.409 . S
C2209 H2201 0.930 . S
C2209 C2207 1.419 . S
C2209 C2210 1.362 . S
C2210 H2202 0.930 . S
C2210 C2209 1.362 . S
C2210 C2213 1.409 . S
C2211 H2203 0.930 . S
C2211 C2212 1.355 . S
C2211 C2213 1.415 . S
C2212 C2211 1.355 . S
C2212 C2214 1.419 . S
C2213 C2208 1.425 . S
C2213 C2210 1.409 . S
C2213 C2211 1.415 . S
C2214 H2204 0.930 . S
C2214 C2212 1.419 . S
C2214 C2215 1.362 . S
C2215 H2205 0.930 . S
C2215 C2208 1.409 . S
C2215 C2214 1.362 . S
H2216 C2222 0.930 . S
H2217 C2225 0.930 . S
H2218 C2226 0.930 . S
H2219 C2227 0.930 . S
H2220 C2230 0.930 . S
H2221 C2231 0.930 . S
C2222 H2216 0.930 . S
C2222 C2223 1.355 . S
C2222 C2224 1.415 . S
C2223 C2222 1.355 . S
C2223 C2225 1.419 . S
C2224 C2222 1.415 . S
C2224 C2229 1.425 . S
C2224 C2231 1.409 . S
C2225 H2217 0.930 . S
C2225 C2223 1.419 . S
C2225 C2226 1.362 . S
C2226 H2218 0.930 . S
C2226 C2225 1.362 . S
C2226 C2229 1.409 . S
C2227 H2219 0.930 . S
C2227 C2228 1.355 . S
C2227 C2229 1.415 . S
C2228 C2227 1.355 . S
C2228 C2230 1.419 . S
C2229 C2224 1.425 . S
C2229 C2226 1.409 . S
C2229 C2227 1.415 . S
C2230 H2220 0.930 . S
C2230 C2228 1.419 . S
C2230 C2231 1.362 . S
C2231 H2221 0.930 . S
C2231 C2224 1.409 . S
C2231 C2230 1.362 . S
H2232 C2238 0.930 . S
H2233 C2241 0.930 . S
H2234 C2242 0.930 . S
H2235 C2243 0.930 . S
H2236 C2246 0.930 . S
H2237 C2247 0.930 . S
C2238 H2232 0.930 . S
C2238 C2239 1.355 1_545 S
C2238 C2240 1.415 . S
C2239 C2238 1.355 1_565 S
C2239 C2241 1.419 . S
C2240 C2238 1.415 . S
C2240 C2245 1.425 . S
C2240 C2247 1.409 . S
C2241 H2233 0.930 . S
C2241 C2239 1.419 . S
C2241 C2242 1.362 . S
C2242 H2234 0.930 . S
C2242 C2241 1.362 . S
C2242 C2245 1.409 1_565 S
C2243 H2235 0.930 . S
C2243 C2244 1.355 . S
C2243 C2245 1.415 . S
C2244 C2243 1.355 . S
C2244 C2246 1.419 . S
C2245 C2240 1.425 . S
C2245 C2242 1.409 1_545 S
C2245 C2243 1.415 . S
C2246 H2236 0.930 . S
C2246 C2244 1.419 . S
C2246 C2247 1.362 . S
C2247 H2237 0.930 . S
C2247 C2240 1.409 . S
C2247 C2246 1.362 . S
H2248 C2254 0.930 . S
H2249 C2257 0.930 . S
H2250 C2258 0.930 . S
H2251 C2259 0.930 . S
H2252 C2262 0.930 . S
H2253 C2263 0.930 . S
C2254 H2248 0.930 . S
C2254 C2255 1.355 . S
C2254 C2256 1.415 1_545 S
C2255 C2254 1.355 . S
C2255 C2257 1.419 1_545 S
C2256 C2254 1.415 1_565 S
C2256 C2261 1.425 . S
C2256 C2263 1.409 . S
C2257 H2249 0.930 . S
C2257 C2255 1.419 1_565 S
C2257 C2258 1.362 . S
C2258 H2250 0.930 . S
C2258 C2257 1.362 . S
C2258 C2261 1.409 . S
C2259 H2251 0.930 . S
C2259 C2260 1.355 . S
C2259 C2261 1.415 . S
C2260 C2259 1.355 . S
C2260 C2262 1.419 . S
C2261 C2256 1.425 . S
C2261 C2258 1.409 . S
C2261 C2259 1.415 . S
C2262 H2252 0.930 . S
C2262 C2260 1.419 . S
C2262 C2263 1.362 . S
C2263 H2253 0.930 . S
C2263 C2256 1.409 . S
C2263 C2262 1.362 . S
H2264 C2270 0.930 . S
H2265 C2273 0.930 . S
H2266 C2274 0.930 . S
H2267 C2275 0.930 . S
H2268 C2278 0.930 . S
H2269 C2279 0.930 . S
C2270 H2264 0.930 . S
C2270 C2271 1.355 . S
C2270 C2272 1.415 . S
C2271 C2270 1.355 . S
C2271 C2273 1.419 . S
C2272 C2270 1.415 . S
C2272 C2277 1.425 . S
C2272 C2279 1.409 . S
C2273 H2265 0.930 . S
C2273 C2271 1.419 . S
C2273 C2274 1.362 . S
C2274 H2266 0.930 . S
C2274 C2273 1.362 . S
C2274 C2277 1.409 . S
C2275 H2267 0.930 . S
C2275 C2276 1.355 . S
C2275 C2277 1.415 . S
C2276 C2275 1.355 . S
C2276 C2278 1.419 . S
C2277 C2272 1.425 . S
C2277 C2274 1.409 . S
C2277 C2275 1.415 . S
C2278 H2268 0.930 . S
C2278 C2276 1.419 . S
C2278 C2279 1.362 . S
C2279 H2269 0.930 . S
C2279 C2272 1.409 . S
C2279 C2278 1.362 . S
C751 C582 1.148 . S
C756 C18 1.050 . S
C767 C49 1.147 . S
C772 C613 1.143 . S
C783 C520 1.162 1_545 S
C788 C80 1.085 . S
C799 C111 1.042 . S
C804 C551 1.142 1_565 S
C815 C706 1.152 . S
C820 C142 1.057 . S
C831 C675 1.115 1_556 S
C836 C173 1.065 . S
C847 C737 1.167 . S
C852 C204 1.128 . S
C863 C644 1.121 1_554 S
C868 C235 1.041 . S
C879 C266 1.106 . S
C884 C427 1.166 . S
C895 C489 1.142 1_655 S
C900 C297 1.147 . S
C911 C328 1.036 . S
C916 C458 1.126 . S
C927 C396 1.162 1_455 S
C932 C359 1.085 . S
C943 C186 1.133 . S
C948 C383 1.135 . S
C959 C217 1.167 . S
C964 C414 1.128 . S
C975 C124 1.123 1_565 S
C980 C445 1.115 . S
C991 C476 1.041 . S
C996 C155 1.121 1_545 S
C1007 C310 1.155 . S
C1012 C507 1.151 . S
C1023 C538 1.149 . S
C1028 C279 1.145 1_554 S
C1039 C341 1.131 . S
C1044 C569 1.035 . S
C1055 C248 1.135 1_556 S
C1060 C600 1.139 . S
C1071 C631 1.076 . S
C1076 C31 1.160 . S
C1087 C93 1.124 1_455 S
C1092 C662 1.118 . S
C1103 C693 1.151 . S
C1108 C62 1.155 . S
C1119 C724 1.069 . S
C1124 C0 1.115 1_655 S
C1135 C272 1.439 . S
C1140 C27 1.593 . S
C1151 C58 1.680 . S
C1156 C365 1.540 . S
C1167 C89 1.641 . S
C1172 C303 1.425 . S
C1183 C120 1.609 . S
C1188 C334 1.410 . S
C1199 C151 1.607 . S
C1204 C24 1.410 . S
C1215 C182 1.613 . S
C1220 C55 1.491 . S
C1231 C86 1.412 . S
C1236 C213 1.602 . S
C1247 C244 1.600 . S
C1252 C117 1.467 . S
C1263 C148 1.483 . S
C1268 C275 1.608 . S
C1279 C306 1.688 . S
C1284 C210 1.502 . S
C1295 C241 1.500 . S
C1300 C337 1.619 . S
C1311 C179 1.410 . S
C1316 C368 1.610 . S
C1327 C620 1.457 . S
C1332 C373 1.668 . S
C1343 C404 1.687 . S
C1348 C713 1.534 . S
C1359 C651 1.425 . S
C1364 C435 1.641 . S
C1375 C466 1.664 . S
C1380 C682 1.451 . S
C1391 C372 1.520 . S
C1396 C497 1.635 . S
C1407 C403 1.517 . S
C1412 C528 1.690 . S
C1423 C559 1.646 . S
C1428 C434 1.430 . S
C1439 C465 1.460 . S
C1444 C590 1.670 . S
C1455 C496 1.475 . S
C1460 C621 1.678 . S
C1471 C652 1.597 . S
C1476 C558 1.418 . S
C1487 C683 1.685 . S
C1492 C589 1.537 . S
C1503 C714 1.690 . S
C1508 C527 1.516 . S
C1519 C2 1.345 . S
C1524 C342 1.342 . S
C1535 C249 1.281 . S
C1540 C33 1.381 . S
C1551 C64 1.381 . S
C1556 C311 1.282 . S
C1567 C95 1.324 . S
C1572 C280 1.279 . S
C1583 C63 1.364 . S
C1588 C126 1.289 . S
C1599 C94 1.267 . S
C1604 C157 1.339 . S
C1615 C1 1.298 . S
C1620 C188 1.376 . S
C1631 C219 1.370 . S
C1636 C32 1.311 . S
C1647 C218 1.316 . S
C1652 C250 1.367 . S
C1663 C281 1.307 . S
C1668 C156 1.297 . S
C1679 C125 1.341 . S
C1684 C312 1.283 . S
C1695 C343 1.341 . S
C1700 C187 1.346 . S
C1711 C740 1.355 . S
C1716 C382 1.329 . S
C1727 C647 1.333 . S
C1732 C413 1.354 . S
C1743 C709 1.328 . S
C1748 C444 1.287 . S
C1759 C678 1.321 . S
C1764 C475 1.291 . S
C1775 C506 1.295 . S
C1780 C461 1.313 . S
C1791 C537 1.368 . S
C1796 C492 1.314 . S
C1807 C568 1.313 . S
C1812 C399 1.364 . S
C1823 C599 1.287 . S
C1828 C430 1.329 . S
C1839 C616 1.366 . S
C1844 C630 1.304 . S
C1855 C554 1.366 . S
C1860 C661 1.294 . S
C1871 C523 1.258 . S
C1876 C692 1.375 . S
C1887 C585 1.311 . S
C1892 C723 1.296 . S
C1903 C684 1.852 . S
C1908 C11 1.824 . S
C1919 C653 1.846 . S
C1924 C42 1.823 . S
C1935 C73 1.823 . S
C1940 C715 1.839 . S
C1951 C622 1.868 . S
C1956 C104 1.872 . S
C1967 C135 1.882 . S
C1972 C405 1.849 . S
C1983 C374 1.834 . S
C1988 C166 1.825 . S
C1999 C197 1.877 . S
C2004 C467 1.827 . S
C2015 C228 1.834 . S
C2020 C436 1.868 . S
C2031 C560 1.813 . S
C2036 C259 1.853 . S
C2047 C498 1.842 . S
C2052 C290 1.882 . S
C2063 C321 1.823 . S
C2068 C529 1.840 . S
C2079 C352 1.844 . S
C2084 C591 1.874 . S
C2095 C390 1.831 . S
C2100 C320 1.865 . S
C2111 C421 1.858 . S
C2116 C289 1.875 . S
C2127 C351 1.848 . S
C2132 C452 1.882 . S
C2143 C258 1.858 . S
C2148 C483 1.826 . S
C2159 C514 1.880 . S
C2164 C41 1.856 . S
C2175 C545 1.868 . S
C2180 C10 1.871 . S
C2191 C576 1.823 . S
C2196 C103 1.839 . S
C2207 C607 1.840 . S
C2212 C72 1.872 . S
C2223 C638 1.881 . S
C2228 C196 1.836 . S
C2239 C669 1.859 . S
C2244 C134 1.874 . S
C2255 C700 1.881 . S
C2260 C165 1.851 . S
C2271 C227 1.825 . S
C2276 C731 1.876 . S
