# Generated by pormake.
# Topology sxb, (6)-cn, num edge types: 1
# Building blocks:
#     Node 0, Type 0, BuildingBlock: PAMTOO_clean_sbu_0, # of connection points: 6
#     Node 1, Type 0, BuildingBlock: PAMTOO_clean_sbu_0, # of connection points: 6
#     Node 2, Type 0, BuildingBlock: PAMTOO_clean_sbu_0, # of connection points: 6
#     Node 3, Type 0, BuildingBlock: PAMTOO_clean_sbu_0, # of connection points: 6
#     Edge 4, Type (0, 0), BuildingBlock: FUNLAD_clean_linker_1, # of connection points: 2
#     Edge 5, Type (0, 0), BuildingBlock: FUNLAD_clean_linker_1, # of connection points: 2
#     Edge 6, Type (0, 0), BuildingBlock: FUNLAD_clean_linker_1, # of connection points: 2
#     Edge 7, Type (0, 0), BuildingBlock: FUNLAD_clean_linker_1, # of connection points: 2
#     Edge 8, Type (0, 0), BuildingBlock: FUNLAD_clean_linker_1, # of connection points: 2
#     Edge 9, Type (0, 0), BuildingBlock: FUNLAD_clean_linker_1, # of connection points: 2
#     Edge 10, Type (0, 0), BuildingBlock: FUNLAD_clean_linker_1, # of connection points: 2
#     Edge 11, Type (0, 0), BuildingBlock: FUNLAD_clean_linker_1, # of connection points: 2
#     Edge 12, Type (0, 0), BuildingBlock: FUNLAD_clean_linker_1, # of connection points: 2
#     Edge 13, Type (0, 0), BuildingBlock: FUNLAD_clean_linker_1, # of connection points: 2
#     Edge 14, Type (0, 0), BuildingBlock: FUNLAD_clean_linker_1, # of connection points: 2
#     Edge 15, Type (0, 0), BuildingBlock: FUNLAD_clean_linker_1, # of connection points: 2
# Relax obj value: 0.416
# Max RMSD: 0.090
# Mean RMSD: 0.087
data_MOF--net-sxb--node1-PAMTOO_clean_sbu_0--edge1-FUNLAD_clean_linker_1
_symmetry_space_group_name_H-M    P1
_symmetry_Int_Tables_number       1
_symmetry_cell_setting            triclinic
loop_
_symmetry_equiv_pos_as_xyz
'x, y, z'
_cell_length_a     17.574735
_cell_length_b     36.782413
_cell_length_c     32.057061
_cell_angle_alpha  93.704459
_cell_angle_beta   97.513213
_cell_angle_gamma 68.12095
loop_
_atom_site_label
_atom_site_type_symbol
_atom_site_fract_x
_atom_site_fract_y
_atom_site_fract_z
_atom_type_partial_charge
Dy0 Dy 0.13792 0.07321 -0.01201 0.0
Dy1 Dy 0.96317 0.06542 0.97567 0.0
C2 C 1.04905 0.07148 0.89732 0.0
O3 O 1.04757 0.13925 -0.01701 0.0
O4 O 0.92577 0.13129 -0.01229 0.0
O5 O 0.22361 0.09512 0.96613 0.0
O6 O 0.25802 0.06106 0.02304 0.0
O7 O 0.99832 1.0557 0.04522 0.0
O8 O 0.10127 0.08067 0.05329 0.0
O9 O 1.05151 1.00086 0.97479 0.0
O10 O 0.17844 1.00537 -0.00972 0.0
O11 O 0.8358 0.0799 -0.01407 0.0
O12 O 0.88921 1.03805 0.93698 0.0
C13 C 0.96641 0.15498 -0.01405 0.0
O14 O 0.11915 1.05479 0.9205 0.0
O15 O 0.9819 0.08738 0.91562 0.0
C16 C 0.35725 1.04567 0.97584 0.0
C17 C 0.49259 0.98645 0.94419 0.0
C18 C 0.42178 1.00656 0.91699 0.0
C19 C 0.35478 1.03598 0.93262 0.0
C20 C 0.42712 1.02462 0.00317 0.0
C21 C 0.49391 0.99487 -0.0125 0.0
C22 C 0.28407 0.07429 -0.00678 0.0
C23 C 1.05148 0.06757 0.06929 0.0
C24 C 0.13289 0.98334 -0.0175 0.0
C25 C 0.75365 0.08265 0.91989 0.0
C26 C 0.62373 0.12252 0.85852 0.0
C27 C 0.6412 0.14233 0.89514 0.0
C28 C 0.70542 0.12251 0.92577 0.0
C29 C 0.73926 0.06376 0.88187 0.0
C30 C 0.67582 0.08368 0.85118 0.0
C31 C 0.82144 0.06082 0.95187 0.0
H32 H 0.41887 0.99992 0.88353 0.0
H33 H 0.30094 1.05084 0.91082 0.0
H34 H 0.42972 1.03101 0.03668 0.0
H35 H 0.54802 0.97956 0.00894 0.0
H36 H 0.60192 0.17235 0.90127 0.0
H37 H 0.71592 0.13818 0.95435 0.0
H38 H 0.77632 1.0333 0.87612 0.0
H39 H 0.66452 0.06809 0.82267 0.0
Dy40 Dy 1.04285 0.09653 0.48688 0.0
Dy41 Dy 0.09855 1.00472 0.4781 0.0
C42 C 1.04171 1.05577 0.39614 0.0
O43 O 0.91912 0.08778 0.49113 0.0
O44 O 0.95471 1.02211 0.47663 0.0
O45 O 1.00985 0.15138 0.45598 0.0
O46 O 1.00341 0.15101 0.52287 0.0
O47 O 1.07872 1.01623 0.54598 0.0
O48 O 0.08398 0.07736 0.55397 0.0
O49 O 0.22406 1.01405 0.48612 0.0
O50 O 0.18359 0.08018 0.47999 0.0
O51 O 0.18941 0.94844 0.49645 0.0
O52 O 0.08602 0.95187 0.44981 0.0
C53 C 0.89635 1.05677 0.48436 0.0
O54 O 0.99961 0.08406 0.42043 0.0
O55 O 0.0973 1.02378 0.41276 0.0
C56 C 1.05363 0.19595 0.49863 0.0
C57 C 0.1543 0.24049 0.51493 0.0
C58 C 0.17094 0.2107 0.48407 0.0
C59 C 0.12173 0.18836 0.47626 0.0
C60 C 1.03612 0.22605 0.52924 0.0
C61 C 0.08629 0.2482 0.53748 0.0
C62 C 1.00314 0.17154 0.49116 0.0
C63 C 0.08413 1.04546 0.5701 0.0
C64 C 0.24473 1.0452 0.48335 0.0
C65 C 0.12817 0.90218 0.49971 0.0
C66 C 1.07052 0.85575 0.54349 0.0
C67 C 0.08403 0.88829 0.5635 0.0
C68 C 0.11198 0.91147 0.54165 0.0
C69 C 0.11981 0.86837 0.48056 0.0
C70 C 0.09153 0.84516 0.50242 0.0
C71 C 0.14736 0.92932 0.4752 0.0
H72 H 0.22298 0.2043 0.4663 0.0
H73 H 0.1375 0.16502 0.45279 0.0
H74 H 0.98396 0.23226 0.54686 0.0
H75 H 1.07106 0.27156 0.5609 0.0
H76 H 1.07103 0.89656 0.59558 0.0
H77 H 0.11853 0.93734 0.55722 0.0
H78 H 0.13219 0.86076 0.44825 0.0
H79 H 0.08205 0.82005 0.48645 0.0
Dy80 Dy 0.68279 0.576 -0.007 0.0
Dy81 Dy 0.50699 0.56841 0.97952 0.0
C82 C 0.5948 0.57448 0.90191 0.0
O83 O 0.59434 0.64064 -0.01131 0.0
O84 O 0.46712 0.63624 -0.01298 0.0
O85 O 0.76862 0.59814 0.97167 0.0
O86 O 0.80263 0.5638 0.02836 0.0
O87 O 0.5352 0.56294 0.04973 0.0
O88 O 0.6471 0.58197 0.05847 0.0
O89 O 0.59738 0.50226 -0.0196 0.0
O90 O 0.72184 0.50967 -0.00593 0.0
O91 O 0.37902 0.58252 -0.01172 0.0
O92 O 0.43542 0.54013 0.94034 0.0
C93 C 0.5129 0.6582 -0.0119 0.0
O94 O 0.66476 0.55792 0.92527 0.0
O95 O 0.52726 0.59018 0.91987 0.0
C96 C 0.90271 0.54911 -0.01823 0.0
C97 C 1.03953 0.49036 0.95076 0.0
C98 C 0.96843 0.5097 0.92336 0.0
C99 C 0.90066 0.53888 0.93869 0.0
C100 C 0.97299 0.52891 0.00928 0.0
C101 C 1.04055 0.49939 -0.00606 0.0
C102 C 0.82887 0.57737 -0.0011 0.0
C103 C 0.59157 0.57246 0.07401 0.0
C104 C 0.67967 0.48629 -0.01258 0.0
C105 C 0.2999 0.584 0.92153 0.0
C106 C 0.17209 0.62255 0.85858 0.0
C107 C 0.18914 0.6433 0.89452 0.0
C108 C 0.25232 0.62414 0.92592 0.0
C109 C 0.28604 0.56408 0.88418 0.0
C110 C 0.22364 0.58333 0.8527 0.0
C111 C 0.36662 0.56286 0.95432 0.0
H112 H 0.9657 0.50256 0.89002 0.0
H113 H 0.84653 0.55309 0.91678 0.0
H114 H 0.97528 0.53574 0.0427 0.0
H115 H 0.09486 0.48467 0.01553 0.0
H116 H 0.15028 0.67362 0.89952 0.0
H117 H 0.26254 0.64058 0.95393 0.0
H118 H 0.32271 0.53337 0.87957 0.0
H119 H 0.21267 0.56699 0.82475 0.0
Dy120 Dy 0.56146 0.60739 0.49486 0.0
Dy121 Dy 0.61462 0.51582 0.48104 0.0
C122 C 0.56118 0.57072 0.40058 0.0
O123 O 0.43871 0.59678 0.49721 0.0
O124 O 0.47153 0.53217 0.47868 0.0
O125 O 0.5512 0.66494 0.47764 0.0
O126 O 0.49221 0.65808 0.53028 0.0
O127 O 0.59346 0.5274 0.54893 0.0
O128 O 0.6198 0.58335 0.55859 0.0
O129 O 0.73955 0.52545 0.48394 0.0
O130 O 0.70257 0.59192 0.49029 0.0
O131 O 0.70346 0.45978 0.50181 0.0
O132 O 0.60634 0.46273 0.45136 0.0
C133 C 0.41449 0.5664 0.48847 0.0
O134 O 0.52714 0.60046 0.42559 0.0
O135 O 0.60719 0.53609 0.41564 0.0
C136 C 0.5498 0.70626 0.53629 0.0
C137 C 0.63067 0.75253 0.57985 0.0
C138 C 0.66475 0.71154 0.58346 0.0
C139 C 0.62463 0.68855 0.56166 0.0
C140 C 0.51291 0.74714 0.53483 0.0
C141 C 0.553 0.77023 0.55678 0.0
C142 C 0.51277 0.68193 0.50993 0.0
C143 C 0.61177 0.55313 0.57407 0.0
C144 C 0.76176 0.55667 0.48685 0.0
C145 C 0.6409 0.41367 0.50119 0.0
C146 C 0.57564 0.36712 0.53967 0.0
C147 C 0.57376 0.40296 0.55814 0.0
C148 C 0.60549 0.42622 0.53888 0.0
C149 C 0.64785 0.37676 0.48403 0.0
C150 C 0.61575 0.35345 0.50326 0.0
C151 C 0.66439 0.44041 0.47845 0.0
H152 H 0.72373 0.69721 0.60186 0.0
H153 H 0.65329 0.65692 0.56343 0.0
H154 H 0.45477 0.76112 0.51557 0.0
H155 H 0.52571 0.80178 0.55368 0.0
H156 H 0.54351 0.41404 0.58621 0.0
H157 H 0.5996 0.45465 0.55266 0.0
H158 H 0.67558 0.36657 0.45512 0.0
H159 H 0.62032 0.32536 0.48893 0.0
H160 H 0.52293 0.71745 -0.00612 0.0
C161 C 0.47657 0.7042 -0.01069 0.0
H162 H 0.34816 0.71741 -0.01842 0.0
H163 H 0.17837 0.89232 0.04523 0.0
H164 H 0.14011 0.85486 0.09212 0.0
H165 H 0.20133 0.78281 0.09171 0.0
H166 H 0.30229 0.74731 0.04475 0.0
C167 C 0.39494 0.73039 -0.01489 0.0
C168 C 0.36176 0.77692 -0.01315 0.0
C169 C 0.3004 0.79901 0.01383 0.0
C170 C 0.26305 0.84181 0.01372 0.0
C171 C 0.20617 0.8608 0.0428 0.0
C172 C 0.18407 0.83958 0.07023 0.0
C173 C 0.21862 0.79896 0.07001 0.0
C174 C 0.27623 0.77888 0.04254 0.0
H175 H 0.12353 0.92396 0.97542 0.0
C176 C 0.1695 0.93737 -0.01804 0.0
H177 H 0.29783 0.92432 -0.00687 0.0
H178 H 0.46587 0.74961 0.92681 0.0
H179 H 0.50516 0.78719 0.88057 0.0
H180 H 0.44568 0.85928 0.88197 0.0
H181 H 0.34506 0.89467 0.92916 0.0
C182 C 0.25106 0.91132 -0.0119 0.0
C183 C 0.28423 0.86484 -0.01385 0.0
C184 C 0.34578 0.84282 0.9593 0.0
C185 C 0.38273 0.79999 0.95918 0.0
C186 C 0.43899 0.7811 0.92978 0.0
C187 C 0.46154 0.80241 0.90264 0.0
C188 C 0.42792 0.84306 0.90338 0.0
C189 C 0.3705 0.86306 0.93095 0.0
H190 H 0.79863 0.43469 -0.01052 0.0
C191 C 0.73269 0.44119 -0.01274 0.0
H192 H 0.64505 0.4141 -0.01837 0.0
H193 H 0.82603 0.23961 0.91841 0.0
H194 H 0.71427 0.26687 0.86331 0.0
H195 H 0.62894 0.33724 0.8627 0.0
H196 H 0.65457 0.38132 0.917 0.0
C197 C 0.71072 0.40842 -0.01498 0.0
C198 C 0.77068 0.36364 -0.01522 0.0
C199 C 0.75658 0.33646 0.95327 0.0
C200 C 0.80675 0.29454 0.95377 0.0
C201 C 0.78989 0.27056 0.92048 0.0
C202 C 0.72609 0.28592 0.88837 0.0
C203 C 0.67798 0.32561 0.88803 0.0
C204 C 0.69305 0.35061 0.91971 0.0
H205 H 0.84794 0.20649 -0.01188 0.0
C206 C 0.91303 0.20004 -0.0135 0.0
H207 H 0.99889 0.22754 -0.01485 0.0
H208 H 0.81498 0.40075 0.05421 0.0
H209 H 0.92742 0.37345 0.10887 0.0
H210 H 1.01543 0.30345 0.10806 0.0
H211 H 0.99113 0.25972 0.05285 0.0
C212 C 0.93385 0.23288 -0.01484 0.0
C213 C 0.87339 0.27747 -0.01395 0.0
C214 C 0.8876 0.30459 0.01752 0.0
C215 C 0.83681 0.34644 0.01735 0.0
C216 C 0.85247 0.37008 0.05133 0.0
C217 C 0.91652 0.35462 0.08331 0.0
C218 C 0.96606 0.31514 0.08289 0.0
C219 C 0.95172 0.29035 0.05077 0.0
H220 H 0.2413 0.26431 0.49536 0.0
C221 C 0.20837 0.26332 0.52153 0.0
H222 H 0.19823 0.27732 0.58638 0.0
H223 H 0.56819 0.2721 0.58454 0.0
H224 H 0.59175 0.21799 0.63043 0.0
H225 H 0.47579 0.2006 0.64595 0.0
H226 H 0.33548 0.23689 0.61506 0.0
C227 C 0.22438 0.28001 0.5584 0.0
C228 C 0.28707 0.29833 0.56152 0.0
C229 C 0.36773 0.27778 0.58105 0.0
C230 C 0.43427 0.28822 0.57266 0.0
C231 C 0.51518 0.26586 0.59054 0.0
C232 C 0.52955 0.23468 0.61682 0.0
C233 C 0.46425 0.22485 0.62551 0.0
C234 C 0.38418 0.24581 0.60758 0.0
H235 H 0.51394 0.35344 0.58909 0.0
C236 C 0.52771 0.34708 0.55669 0.0
H237 H 0.49392 0.32443 0.49804 0.0
H238 H 0.1367 0.34882 0.52804 0.0
H239 H 0.1109 0.40559 0.48542 0.0
H240 H 0.2261 0.42371 0.47015 0.0
H241 H 0.36728 0.38568 0.49769 0.0
C242 C 0.4878 0.32781 0.53148 0.0
C243 C 0.41892 0.31966 0.54546 0.0
C244 C 0.33692 0.3427 0.52953 0.0
C245 C 0.27076 0.33215 0.53792 0.0
C246 C 0.18922 0.35538 0.52172 0.0
C247 C 0.17363 0.38803 0.49746 0.0
C248 C 0.2385 0.39823 0.48888 0.0
C249 C 0.31928 0.37607 0.50479 0.0
H250 H 1.03324 0.80558 0.5501 0.0
C251 C 1.02763 0.83452 0.56282 0.0
H252 H 0.95746 0.88229 0.59974 0.0
H253 H 0.67748 0.81378 0.52924 0.0
H254 H 0.64348 0.86769 0.48226 0.0
H255 H 0.72876 0.90832 0.48688 0.0
H256 H 0.84987 0.89441 0.53826 0.0
C257 C 0.9704 0.8522 0.58908 0.0
C258 C 0.90931 0.83467 0.59467 0.0
C259 C 0.83581 0.84485 0.56646 0.0
C260 C 0.78484 0.82252 0.56512 0.0
C261 C 0.71633 0.83087 0.53356 0.0
C262 C 0.69642 0.86162 0.50589 0.0
C263 C 0.74455 0.8844 0.50838 0.0
C264 C 0.81386 0.87607 0.53803 0.0
H265 H 0.64683 0.80726 0.60416 0.0
C266 C 0.67927 0.77689 0.59516 0.0
H267 H 0.79223 0.73502 0.57888 0.0
H268 H 1.04093 0.81144 0.65547 0.0
H269 H 1.07261 0.75951 0.70573 0.0
H270 H 0.98129 0.72225 0.70579 0.0
H271 H 0.85813 0.73647 0.65552 0.0
C272 C 0.75939 0.76478 0.58954 0.0
C273 C 0.80547 0.79155 0.59392 0.0
C274 C 0.87604 0.78331 0.62408 0.0
C275 C 0.92838 0.80483 0.62428 0.0
C276 C 0.99949 0.79567 0.65403 0.0
C277 C 1.01813 0.76609 0.68306 0.0
C278 C 0.9667 0.74511 0.68308 0.0
C279 C 0.89638 0.75348 0.65401 0.0
H280 H 0.59895 0.93044 0.94131 0.0
C281 C 0.56827 0.95916 0.92738 0.0
H282 H 0.65935 0.9477 0.88692 0.0
H283 H 0.46515 0.08311 0.75826 0.0
H284 H 0.4808 1.0251 0.71417 0.0
H285 H 0.53526 0.95937 0.74525 0.0
H286 H 0.57641 0.95113 0.8204 0.0
C287 C 0.60428 0.96952 0.89794 0.0
C288 C 0.57136 1.00933 0.87906 0.0
C289 C 0.5451 1.01359 0.83526 0.0
C290 C 0.51141 1.05156 0.81742 0.0
C291 C 0.49005 1.05496 0.77337 0.0
C292 C 0.49851 1.02193 0.74776 0.0
C293 C 0.52914 0.98493 0.76528 0.0
C294 C 0.55248 0.98061 0.80847 0.0
H295 H 0.52907 0.16944 0.81922 0.0
C296 C 0.5443 0.14045 0.83155 0.0
H297 H 0.43038 0.13803 0.80478 0.0
H298 H 0.6333 1.01281 0.96187 0.0
H299 H 0.59927 0.071 0.00715 0.0
H300 H 0.50965 0.1358 0.97863 0.0
H301 H 0.45988 0.14297 0.90375 0.0
C302 C 0.48733 0.12351 0.82486 0.0
C303 C 0.5007 0.08514 0.84369 0.0
C304 C 0.5179 0.08088 0.88788 0.0
C305 C 0.56099 1.0432 0.90506 0.0
C306 C 0.59365 1.04051 0.948 0.0
C307 C 0.57518 0.07369 0.97418 0.0
C308 C 0.52497 0.11016 0.95811 0.0
C309 C 0.49683 0.11392 0.91533 0.0
H310 H 0.38067 1.00777 0.49071 0.0
C311 C 0.34068 1.03806 0.48499 0.0
H312 H 0.34302 0.09399 0.4762 0.0
H313 H 0.69892 0.0957 0.54088 0.0
H314 H 0.60862 0.14491 0.58407 0.0
H315 H 0.46254 0.15337 0.58197 0.0
H316 H 0.4051 0.11258 0.53728 0.0
C317 C 0.38271 0.0635 0.48074 0.0
C318 C 0.4806 1.05481 0.48343 0.0
C319 C 0.51775 0.0792 0.50869 0.0
C320 C 0.60485 0.07483 0.50909 0.0
C321 C 0.63502 0.09871 0.53737 0.0
C322 C 0.58385 0.12686 0.56286 0.0
C323 C 0.5015 0.13164 0.56173 0.0
C324 C 0.46898 0.10809 0.53549 0.0
H325 H 0.76102 0.09479 0.4811 0.0
C326 C 0.80043 0.06405 0.48337 0.0
H327 H 0.79816 1.00751 0.48684 0.0
H328 H 0.443 1.00397 0.42801 0.0
H329 H 0.53303 0.95454 0.38492 0.0
H330 H 0.67815 0.94695 0.38542 0.0
H331 H 0.73512 0.98888 0.42852 0.0
C332 C 0.75823 1.03818 0.48493 0.0
C333 C 0.66049 1.04651 0.48311 0.0
C334 C 0.62327 1.02201 0.45793 0.0
C335 C 0.53641 1.02615 0.45792 0.0
C336 C 0.50651 1.00154 0.43063 0.0
C337 C 0.55756 0.97318 0.40533 0.0
C338 C 0.63941 0.96891 0.4056 0.0
C339 C 0.67169 0.99307 0.43101 0.0
H340 H 0.14702 0.43468 0.94919 0.0
C341 C 0.1155 0.46292 0.93432 0.0
H342 H 0.20621 0.45059 0.89352 0.0
H343 H 1.01338 0.58119 0.75995 0.0
H344 H 1.02987 0.52175 0.71826 0.0
H345 H 0.08357 0.45723 0.75204 0.0
H346 H 0.1231 0.45162 0.82749 0.0
C347 C 0.15087 0.47258 0.90409 0.0
C348 C 0.11709 0.51174 0.88372 0.0
C349 C 0.09166 0.51448 0.83977 0.0
C350 C 1.05843 0.55175 0.82037 0.0
C351 C 1.03797 0.55361 0.7762 0.0
C352 C 1.04689 0.51975 0.75197 0.0
C353 C 1.07709 0.48343 0.771 0.0
C354 C 0.09953 0.48062 0.81436 0.0
H355 H 1.07949 0.66851 0.81735 0.0
C356 C 0.09347 0.6401 0.83086 0.0
H357 H 0.97941 0.63778 0.80414 0.0
H358 H 0.17696 0.51816 0.9664 0.0
H359 H 0.14163 0.57789 0.00922 0.0
H360 H 1.05281 0.64164 0.97799 0.0
H361 H 1.00509 0.64614 0.9028 0.0
C362 C 1.0357 0.62361 0.82482 0.0
C363 C 1.0474 0.58618 0.84523 0.0
C364 C 1.06327 0.58351 0.88959 0.0
C365 C 0.10588 0.54648 0.90834 0.0
C366 C 0.13749 0.54532 0.95137 0.0
C367 C 0.11834 0.5794 0.97615 0.0
C368 C 1.06859 0.61529 0.95856 0.0
C369 C 1.0416 0.61752 0.91563 0.0
H370 H 0.28363 0.60321 0.50021 0.0
C371 C 0.31954 0.57351 0.49074 0.0
H372 H 0.31065 0.51843 0.47532 0.0
H373 H 0.988 0.51204 0.5379 0.0
H374 H 0.09915 0.46016 0.57569 0.0
H375 H 0.24394 0.45214 0.57384 0.0
H376 H 0.27984 0.49593 0.53435 0.0
C377 C 0.2744 0.54851 0.4834 0.0
C378 C 0.17819 0.55706 0.48701 0.0
C379 C 0.15337 0.53113 0.50934 0.0
C380 C 1.06654 0.53552 0.50997 0.0
C381 C 1.05012 0.50957 0.53481 0.0
C382 C 0.11358 0.47981 0.55714 0.0
C383 C 0.19528 0.47532 0.55614 0.0
C384 C 0.2151 0.50054 0.53288 0.0
H385 H 0.89309 0.51918 0.47668 0.0
C386 C 0.85687 0.54929 0.48462 0.0
H387 H 0.86526 0.60466 0.49796 0.0
H388 H 0.18872 0.61102 0.43723 0.0
H389 H 1.07772 0.66298 0.3995 0.0
H390 H 0.93287 0.6709 0.40104 0.0
H391 H 0.89688 0.62677 0.43988 0.0
C392 C 0.9019 0.57438 0.49088 0.0
C393 C 0.9983 0.56573 0.48754 0.0
C394 C 1.02322 0.59165 0.46523 0.0
C395 C 0.11002 0.58731 0.4647 0.0
C396 C 0.12655 0.6134 0.44012 0.0
C397 C 1.06318 0.64326 0.41791 0.0
C398 C 0.98147 0.64773 0.41878 0.0
C399 C 0.96159 0.62227 0.44166 0.0
H400 H 0.96728 0.08428 0.33788 0.0
C401 C 1.02348 0.06058 0.34965 0.0
H402 H 0.13027 1.0145 0.33353 0.0
H403 H 1.02699 0.98448 0.14402 0.0
H404 H 1.04738 0.92313 0.17581 0.0
H405 H 1.06905 0.91654 0.25293 0.0
H406 H 1.07166 0.9711 0.2988 0.0
C407 C 1.07436 1.03843 0.32193 0.0
C408 C 1.05514 1.04399 0.27491 0.0
C409 C 1.05135 1.01217 0.24819 0.0
C410 C 1.03642 1.01632 0.20349 0.0
C411 C 1.03615 0.98341 0.17801 0.0
C412 C 1.04803 0.94789 0.19584 0.0
C413 C 1.06041 0.94416 0.23926 0.0
C414 C 1.06207 0.97576 0.26524 0.0
H415 H 0.11018 0.07228 0.13354 0.0
C416 C 1.05938 0.06572 0.11605 0.0
H417 H 0.95884 1.04873 0.1207 0.0
H418 H 1.07213 0.10934 0.31474 0.0
H419 H 1.04213 0.17197 0.28339 0.0
H420 H 0.99722 0.18172 0.20743 0.0
H421 H 0.98496 0.12842 0.16215 0.0
C422 C 1.00867 1.0563 0.13776 0.0
C423 C 1.02306 1.05263 0.18506 0.0
C424 C 1.02396 0.0849 0.21186 0.0
C425 C 1.04343 0.08013 0.25641 0.0
C426 C 1.05211 0.11187 0.28137 0.0
C427 C 1.03594 0.14797 0.26368 0.0
C428 C 1.01114 0.15339 0.22088 0.0
C429 C 1.00513 0.12238 0.19515 0.0
H430 H 0.98575 0.09319 0.83457 0.0
C431 C 1.04395 0.07417 0.85082 0.0
H432 H 0.16505 1.03519 0.8441 0.0
H433 H 0.95344 1.05391 0.64982 0.0
H434 H 0.86218 1.02949 0.6793 0.0
H435 H 0.88174 1.01506 0.75487 0.0
H436 H 0.99108 1.02615 0.80159 0.0
C437 C 0.10628 1.05379 0.828 0.0
C438 C 0.09971 1.05775 0.78095 0.0
C439 C 1.03898 1.04848 0.7533 0.0
C440 C 1.03159 1.054 0.70896 0.0
C441 C 0.96543 1.04794 0.68309 0.0
C442 C 0.91192 1.03426 0.69969 0.0
C443 C 0.92264 1.02634 0.74227 0.0
C444 C 0.9853 1.03325 0.76886 0.0
H445 H 0.09884 1.01272 0.62796 0.0
C446 C 0.09042 1.04131 0.61653 0.0
H447 H 1.07638 0.09955 0.63373 0.0
H448 H 0.22281 0.07863 0.82392 0.0
H449 H 0.31902 0.0994 0.79401 0.0
H450 H 0.3136 0.10372 0.71713 0.0
H451 H 0.21034 0.08819 0.66972 0.0
C452 C 0.08334 0.07102 0.6447 0.0
C453 C 0.089 0.06585 0.69152 0.0
C454 C 0.15114 0.07401 0.71909 0.0
C455 C 0.15592 0.07038 0.7636 0.0
C456 C 0.21718 0.08001 0.79 0.0
C457 C 0.27296 0.09204 0.77324 0.0
C458 C 0.26967 0.09461 0.72998 0.0
C459 C 0.20976 0.08572 0.7031 0.0
H460 H 0.49571 0.60368 0.34287 0.0
C461 C 0.54515 0.57696 0.35424 0.0
H462 H 0.6393 0.52487 0.33756 0.0
H463 H 0.52612 0.50165 0.14853 0.0
H464 H 0.51905 0.44541 0.1806 0.0
H465 H 0.53415 0.44019 0.25776 0.0
H466 H 0.55753 0.49097 0.30339 0.0
C467 C 0.59039 0.55177 0.32622 0.0
C468 C 0.57321 0.55759 0.27923 0.0
C469 C 0.5571 0.52822 0.25259 0.0
C470 C 0.5459 0.5318 0.20784 0.0
C471 C 0.53313 0.50108 0.18252 0.0
C472 C 0.52918 0.46847 0.20052 0.0
C473 C 0.53787 0.46549 0.24396 0.0
C474 C 0.55165 0.49486 0.26981 0.0
H475 H 0.65149 0.57407 0.13871 0.0
C476 C 0.59664 0.57162 0.12076 0.0
H477 H 0.48359 0.56509 0.12426 0.0
H478 H 0.61469 0.61707 0.31908 0.0
H479 H 0.61038 0.67582 0.28736 0.0
H480 H 0.57182 0.68616 0.21107 0.0
H481 H 0.54026 0.63711 0.16585 0.0
C482 C 0.53807 0.56819 0.14187 0.0
C483 C 0.54847 0.5653 0.18924 0.0
C484 C 0.56079 0.59557 0.21592 0.0
C485 C 0.57658 0.59099 0.2606 0.0
C486 C 0.59689 0.62001 0.28555 0.0
C487 C 0.5955 0.65379 0.26767 0.0
C488 C 0.57428 0.65951 0.22469 0.0
C489 C 0.55708 0.63088 0.199 0.0
H490 H 0.62656 0.51912 0.63096 0.0
C491 C 0.62184 0.54743 0.62033 0.0
H492 H 0.61716 0.60417 0.63883 0.0
H493 H 0.53373 0.53009 0.80699 0.0
H494 H 0.41957 0.52203 0.76157 0.0
H495 H 0.3959 0.53852 0.68643 0.0
H496 H 0.48783 0.56184 0.65603 0.0
C497 C 0.62107 0.57593 0.64925 0.0
C498 C 0.62891 0.5699 0.696 0.0
C499 C 0.57088 0.55897 0.71408 0.0
C500 C 0.58048 0.55256 0.75831 0.0
C501 C 0.52627 0.53798 0.7744 0.0
C502 C 0.46086 0.5328 0.74855 0.0
C503 C 0.44784 0.54185 0.70621 0.0
C504 C 0.50184 0.55482 0.68904 0.0
H505 H 0.53202 0.59687 0.83942 0.0
C506 C 0.58989 0.57737 0.8555 0.0
H507 H 0.70981 0.53726 0.84826 0.0
H508 H 0.75224 0.5901 0.67287 0.0
H509 H 0.85954 0.60336 0.71931 0.0
H510 H 0.86804 0.59825 0.79627 0.0
H511 H 0.77115 0.57874 0.82719 0.0
C512 C 0.65134 0.55645 0.83243 0.0
C513 C 0.64366 0.56047 0.78537 0.0
C514 C 0.70039 0.57229 0.76744 0.0
C515 C 0.69369 0.5765 0.72294 0.0
C516 C 0.75295 0.58732 0.70631 0.0
C517 C 0.81519 0.59489 0.73262 0.0
C518 C 0.82024 0.59186 0.77592 0.0
C519 C 0.764 0.58059 0.79327 0.0
loop_
_geom_bond_atom_site_label_1
_geom_bond_atom_site_label_2
_geom_bond_distance
_geom_bond_site_symmetry_2
_ccdc_geom_bond_type
Dy0 O3 2.307 1_455 S
Dy0 O5 2.395 1_554 S
Dy0 O6 2.379 . S
Dy0 O8 2.339 . S
Dy0 O10 2.298 1_545 S
Dy0 O14 2.275 1_554 S
Dy0 C22 2.738 . S
Dy1 O4 2.298 1_565 S
Dy1 O7 2.275 1_556 S
Dy1 O9 2.307 1_655 S
Dy1 O11 2.396 1_556 S
Dy1 O12 2.379 . S
Dy1 O15 2.339 . S
Dy1 C31 2.738 1_565 S
C2 O14 1.254 1_665 S
C2 O15 1.257 . S
O3 Dy0 2.307 1_655 S
O3 C13 1.270 . S
O4 Dy1 2.298 1_545 S
O4 C13 1.228 1_556 S
O5 Dy0 2.395 1_556 S
O5 C22 1.255 1_556 S
O6 Dy0 2.379 . S
O6 C22 1.249 . S
O7 Dy1 2.275 1_554 S
O7 C23 1.254 1_665 S
O8 Dy0 2.339 . S
O8 C23 1.257 . S
O9 Dy1 2.307 1_455 S
O9 C24 1.269 . S
O10 Dy0 2.298 1_565 S
O10 C24 1.230 1_554 S
O11 Dy1 2.396 1_554 S
O11 C31 1.257 1_564 S
O12 Dy1 2.379 . S
O12 C31 1.249 1_565 S
C13 O3 1.270 . S
C13 O4 1.228 1_554 S
O14 Dy0 2.275 1_556 S
O14 C2 1.254 1_445 S
O15 Dy1 2.339 . S
O15 C2 1.257 . S
C16 C19 1.344 1_554 S
C16 C20 1.328 . S
C16 C22 1.516 1_565 S
C17 C18 1.304 1_554 S
C17 C21 1.323 . S
C18 C17 1.304 1_556 S
C18 C19 1.371 . S
C18 H32 0.930 . S
C19 C16 1.344 1_556 S
C19 C18 1.371 . S
C19 H33 0.931 . S
C20 C16 1.328 . S
C20 C21 1.433 . S
C20 H34 0.931 1_565 S
C21 C17 1.323 . S
C21 C20 1.433 . S
C21 H35 0.933 . S
C22 Dy0 2.738 . S
C22 O5 1.255 1_554 S
C22 O6 1.249 . S
C22 C16 1.516 1_545 S
C23 O7 1.254 1_445 S
C23 O8 1.257 . S
C24 O9 1.269 . S
C24 O10 1.230 1_556 S
C25 C28 1.344 1_556 S
C25 C29 1.328 . S
C25 C31 1.516 . S
C26 C27 1.304 1_556 S
C26 C30 1.323 . S
C27 C26 1.304 1_554 S
C27 C28 1.371 . S
C27 H36 0.930 . S
C28 C25 1.344 1_554 S
C28 C27 1.371 . S
C28 H37 0.931 . S
C29 C25 1.328 . S
C29 C30 1.433 . S
C29 H38 0.931 1_545 S
C30 C26 1.323 . S
C30 C29 1.433 . S
C30 H39 0.933 . S
C31 Dy1 2.738 1_545 S
C31 O11 1.257 1_546 S
C31 O12 1.249 1_545 S
C31 C25 1.516 . S
H32 C18 0.930 . S
H33 C19 0.931 . S
H34 C20 0.931 1_545 S
H35 C21 0.933 . S
H36 C27 0.930 . S
H37 C28 0.931 . S
H38 C29 0.931 1_565 S
H39 C30 0.933 . S
Dy40 O43 2.307 . S
Dy40 O45 2.395 1_655 S
Dy40 O46 2.379 1_655 S
Dy40 O48 2.337 . S
Dy40 O50 2.298 1_655 S
Dy40 O54 2.275 . S
Dy40 C62 2.738 1_655 S
Dy41 O44 2.298 1_455 S
Dy41 O47 2.275 . S
Dy41 O49 2.307 . S
Dy41 O51 2.395 1_455 S
Dy41 O52 2.379 1_455 S
Dy41 O55 2.339 . S
Dy41 C71 2.738 1_455 S
C42 O54 1.254 1_565 S
C42 O55 1.257 1_655 S
O43 Dy40 2.307 . S
O43 C53 1.266 . S
O44 Dy41 2.298 1_655 S
O44 C53 1.236 1_565 S
O45 Dy40 2.395 1_455 S
O45 C62 1.255 . S
O46 Dy40 2.379 1_455 S
O46 C62 1.249 . S
O47 Dy41 2.275 . S
O47 C63 1.254 1_565 S
O48 Dy40 2.337 . S
O48 C63 1.260 1_655 S
O49 Dy41 2.307 . S
O49 C64 1.266 . S
O50 Dy40 2.298 1_455 S
O50 C64 1.236 1_545 S
O51 Dy41 2.395 1_655 S
O51 C71 1.255 . S
O52 Dy41 2.379 1_655 S
O52 C71 1.249 . S
C53 O43 1.266 . S
C53 O44 1.236 1_545 S
O54 Dy40 2.275 . S
O54 C42 1.254 1_545 S
O55 Dy41 2.339 . S
O55 C42 1.257 1_455 S
C56 C59 1.344 . S
C56 C60 1.328 . S
C56 C62 1.516 . S
C57 C58 1.304 . S
C57 C61 1.323 . S
C58 C57 1.304 . S
C58 C59 1.371 . S
C58 H72 0.930 . S
C59 C56 1.344 . S
C59 C58 1.371 . S
C59 H73 0.931 . S
C60 C56 1.328 . S
C60 C61 1.433 . S
C60 H74 0.931 . S
C61 C57 1.323 . S
C61 C60 1.433 . S
C61 H75 0.933 . S
C62 Dy40 2.738 1_455 S
C62 O45 1.255 . S
C62 O46 1.249 . S
C62 C56 1.516 . S
C63 O47 1.254 1_545 S
C63 O48 1.260 1_455 S
C64 O49 1.266 . S
C64 O50 1.236 1_565 S
C65 C68 1.344 . S
C65 C69 1.328 . S
C65 C71 1.516 . S
C66 C67 1.304 . S
C66 C70 1.323 . S
C67 C66 1.304 . S
C67 C68 1.371 . S
C67 H76 0.930 . S
C68 C65 1.344 . S
C68 C67 1.371 . S
C68 H77 0.931 . S
C69 C65 1.328 . S
C69 C70 1.433 . S
C69 H78 0.931 . S
C70 C66 1.323 . S
C70 C69 1.433 . S
C70 H79 0.933 . S
C71 Dy41 2.738 1_655 S
C71 O51 1.255 . S
C71 O52 1.249 . S
C71 C65 1.516 . S
H72 C58 0.930 . S
H73 C59 0.931 . S
H74 C60 0.931 . S
H75 C61 0.933 . S
H76 C67 0.930 . S
H77 C68 0.931 . S
H78 C69 0.931 . S
H79 C70 0.933 . S
Dy80 O83 2.307 . S
Dy80 O85 2.395 1_554 S
Dy80 O86 2.379 . S
Dy80 O88 2.339 . S
Dy80 O90 2.298 . S
Dy80 O94 2.275 1_554 S
Dy80 C102 2.738 . S
Dy81 O84 2.298 . S
Dy81 O87 2.275 1_556 S
Dy81 O89 2.307 . S
Dy81 O91 2.395 1_556 S
Dy81 O92 2.379 . S
Dy81 O95 2.339 . S
Dy81 C111 2.738 . S
C82 O94 1.254 . S
C82 O95 1.257 . S
O83 Dy80 2.307 . S
O83 C93 1.270 . S
O84 Dy81 2.298 . S
O84 C93 1.228 1_556 S
O85 Dy80 2.395 1_556 S
O85 C102 1.255 1_556 S
O86 Dy80 2.379 . S
O86 C102 1.249 . S
O87 Dy81 2.275 1_554 S
O87 C103 1.254 . S
O88 Dy80 2.339 . S
O88 C103 1.257 . S
O89 Dy81 2.307 . S
O89 C104 1.269 . S
O90 Dy80 2.298 . S
O90 C104 1.230 1_554 S
O91 Dy81 2.395 1_554 S
O91 C111 1.255 1_554 S
O92 Dy81 2.379 . S
O92 C111 1.249 . S
C93 O83 1.270 . S
C93 O84 1.228 1_554 S
O94 Dy80 2.275 1_556 S
O94 C82 1.254 . S
O95 Dy81 2.339 . S
O95 C82 1.257 . S
C96 C99 1.344 1_554 S
C96 C100 1.328 . S
C96 C102 1.516 . S
C97 C98 1.304 1_554 S
C97 C101 1.323 . S
C98 C97 1.304 1_556 S
C98 C99 1.371 . S
C98 H112 0.930 . S
C99 C96 1.344 1_556 S
C99 C98 1.371 . S
C99 H113 0.931 . S
C100 C96 1.328 . S
C100 C101 1.433 . S
C100 H114 0.931 . S
C101 C97 1.323 . S
C101 C100 1.433 . S
C101 H115 0.933 . S
C102 Dy80 2.738 . S
C102 O85 1.255 1_554 S
C102 O86 1.249 . S
C102 C96 1.516 . S
C103 O87 1.254 . S
C103 O88 1.257 . S
C104 O89 1.269 . S
C104 O90 1.230 1_556 S
C105 C108 1.344 1_556 S
C105 C109 1.328 . S
C105 C111 1.516 . S
C106 C107 1.304 1_556 S
C106 C110 1.323 . S
C107 C106 1.304 1_554 S
C107 C108 1.371 . S
C107 H116 0.930 . S
C108 C105 1.344 1_554 S
C108 C107 1.371 . S
C108 H117 0.931 . S
C109 C105 1.328 . S
C109 C110 1.433 . S
C109 H118 0.931 . S
C110 C106 1.323 . S
C110 C109 1.433 . S
C110 H119 0.933 . S
C111 Dy81 2.738 . S
C111 O91 1.255 1_556 S
C111 O92 1.249 . S
C111 C105 1.516 . S
H112 C98 0.930 . S
H113 C99 0.931 . S
H114 C100 0.931 . S
H115 C101 0.933 . S
H116 C107 0.930 . S
H117 C108 0.931 . S
H118 C109 0.931 . S
H119 C110 0.933 . S
Dy120 O123 2.307 . S
Dy120 O125 2.395 . S
Dy120 O126 2.379 . S
Dy120 O128 2.339 . S
Dy120 O130 2.298 . S
Dy120 O134 2.275 . S
Dy120 C142 2.738 . S
Dy121 O124 2.298 . S
Dy121 O127 2.275 . S
Dy121 O129 2.307 . S
Dy121 O131 2.395 . S
Dy121 O132 2.379 . S
Dy121 O135 2.339 . S
Dy121 C151 2.738 . S
C122 O134 1.254 . S
C122 O135 1.257 . S
O123 Dy120 2.307 . S
O123 C133 1.266 . S
O124 Dy121 2.298 . S
O124 C133 1.236 . S
O125 Dy120 2.395 . S
O125 C142 1.255 . S
O126 Dy120 2.379 . S
O126 C142 1.249 . S
O127 Dy121 2.275 . S
O127 C143 1.254 . S
O128 Dy120 2.339 . S
O128 C143 1.257 . S
O129 Dy121 2.307 . S
O129 C144 1.266 . S
O130 Dy120 2.298 . S
O130 C144 1.236 . S
O131 Dy121 2.395 . S
O131 C151 1.255 . S
O132 Dy121 2.379 . S
O132 C151 1.249 . S
C133 O123 1.266 . S
C133 O124 1.236 . S
O134 Dy120 2.275 . S
O134 C122 1.254 . S
O135 Dy121 2.339 . S
O135 C122 1.257 . S
C136 C139 1.344 . S
C136 C140 1.328 . S
C136 C142 1.516 . S
C137 C138 1.304 . S
C137 C141 1.323 . S
C138 C137 1.304 . S
C138 C139 1.371 . S
C138 H152 0.930 . S
C139 C136 1.344 . S
C139 C138 1.371 . S
C139 H153 0.931 . S
C140 C136 1.328 . S
C140 C141 1.433 . S
C140 H154 0.931 . S
C141 C137 1.323 . S
C141 C140 1.433 . S
C141 H155 0.933 . S
C142 Dy120 2.738 . S
C142 O125 1.255 . S
C142 O126 1.249 . S
C142 C136 1.516 . S
C143 O127 1.254 . S
C143 O128 1.257 . S
C144 O129 1.266 . S
C144 O130 1.236 . S
C145 C148 1.344 . S
C145 C149 1.328 . S
C145 C151 1.516 . S
C146 C147 1.304 . S
C146 C150 1.323 . S
C147 C146 1.304 . S
C147 C148 1.371 . S
C147 H156 0.930 . S
C148 C145 1.344 . S
C148 C147 1.371 . S
C148 H157 0.931 . S
C149 C145 1.328 . S
C149 C150 1.433 . S
C149 H158 0.931 . S
C150 C146 1.323 . S
C150 C149 1.433 . S
C150 H159 0.933 . S
C151 Dy121 2.738 . S
C151 O131 1.255 . S
C151 O132 1.249 . S
C151 C145 1.516 . S
H152 C138 0.930 . S
H153 C139 0.931 . S
H154 C140 0.931 . S
H155 C141 0.933 . S
H156 C147 0.930 . S
H157 C148 0.931 . S
H158 C149 0.931 . S
H159 C150 0.933 . S
H160 C161 0.951 . S
C161 H160 0.951 . S
C161 C167 1.265 . S
H162 C167 0.950 . S
H163 C171 0.949 . S
H164 C172 0.950 . S
H165 C173 0.951 . S
H166 C174 0.951 . S
C167 C161 1.265 . S
C167 H162 0.950 . S
C167 C168 1.479 . S
C168 C167 1.479 . S
C168 C169 1.416 . S
C168 C185 1.374 1_554 S
C169 C168 1.416 . S
C169 C170 1.438 . S
C169 C174 1.429 . S
C170 C169 1.438 . S
C170 C171 1.428 . S
C170 C183 1.379 1_554 S
C171 H163 0.949 . S
C171 C170 1.428 . S
C171 C172 1.345 . S
C172 H164 0.950 . S
C172 C171 1.345 . S
C172 C173 1.424 . S
C173 H165 0.951 . S
C173 C172 1.424 . S
C173 C174 1.347 . S
C174 H166 0.951 . S
C174 C169 1.429 . S
C174 C173 1.347 . S
H175 C176 0.951 . S
C176 H175 0.951 . S
C176 C182 1.265 . S
H177 C182 0.950 . S
H178 C186 0.949 . S
H179 C187 0.950 . S
H180 C188 0.951 . S
H181 C189 0.951 . S
C182 C176 1.265 . S
C182 H177 0.950 . S
C182 C183 1.479 . S
C183 C170 1.379 1_556 S
C183 C182 1.479 . S
C183 C184 1.411 . S
C184 C183 1.411 . S
C184 C185 1.438 . S
C184 C189 1.429 . S
C185 C168 1.374 1_556 S
C185 C184 1.438 . S
C185 C186 1.428 . S
C186 H178 0.949 . S
C186 C185 1.428 . S
C186 C187 1.345 . S
C187 H179 0.950 . S
C187 C186 1.345 . S
C187 C188 1.424 . S
C188 H180 0.951 . S
C188 C187 1.424 . S
C188 C189 1.347 . S
C189 H181 0.951 . S
C189 C184 1.429 . S
C189 C188 1.347 . S
H190 C191 0.951 1_554 S
C191 H190 0.951 1_556 S
C191 C197 1.265 . S
H192 C197 0.950 . S
H193 C201 0.949 . S
H194 C202 0.950 . S
H195 C203 0.951 . S
H196 C204 0.951 . S
C197 C191 1.265 . S
C197 H192 0.950 . S
C197 C198 1.478 . S
C198 C197 1.478 . S
C198 C199 1.397 . S
C198 C215 1.394 1_556 S
C199 C198 1.397 . S
C199 C200 1.438 . S
C199 C204 1.429 . S
C200 C199 1.438 . S
C200 C201 1.428 . S
C200 C213 1.394 1_556 S
C201 H193 0.949 . S
C201 C200 1.428 . S
C201 C202 1.345 . S
C202 H194 0.950 . S
C202 C201 1.345 . S
C202 C203 1.424 . S
C203 H195 0.951 . S
C203 C202 1.424 . S
C203 C204 1.347 . S
C204 H196 0.951 . S
C204 C199 1.429 . S
C204 C203 1.347 . S
H205 C206 0.951 1_556 S
C206 H205 0.951 1_554 S
C206 C212 1.265 . S
H207 C212 0.950 . S
H208 C216 0.949 . S
H209 C217 0.950 . S
H210 C218 0.951 . S
H211 C219 0.951 . S
C212 C206 1.265 . S
C212 H207 0.950 . S
C212 C213 1.478 . S
C213 C200 1.394 1_554 S
C213 C212 1.478 . S
C213 C214 1.397 . S
C214 C213 1.397 . S
C214 C215 1.438 . S
C214 C219 1.429 . S
C215 C198 1.394 1_554 S
C215 C214 1.438 . S
C215 C216 1.428 . S
C216 H208 0.949 . S
C216 C215 1.428 . S
C216 C217 1.345 . S
C217 H209 0.950 . S
C217 C216 1.345 . S
C217 C218 1.424 . S
C218 H210 0.951 . S
C218 C217 1.424 . S
C218 C219 1.347 . S
C219 H211 0.951 . S
C219 C214 1.429 . S
C219 C218 1.347 . S
H220 C221 0.951 . S
C221 H220 0.951 . S
C221 C227 1.265 . S
H222 C227 0.950 . S
H223 C231 0.949 . S
H224 C232 0.950 . S
H225 C233 0.951 . S
H226 C234 0.951 . S
C227 C221 1.265 . S
C227 H222 0.950 . S
C227 C228 1.478 . S
C228 C227 1.478 . S
C228 C229 1.397 . S
C228 C245 1.394 . S
C229 C228 1.397 . S
C229 C230 1.438 . S
C229 C234 1.429 . S
C230 C229 1.438 . S
C230 C231 1.428 . S
C230 C243 1.394 . S
C231 H223 0.949 . S
C231 C230 1.428 . S
C231 C232 1.345 . S
C232 H224 0.950 . S
C232 C231 1.345 . S
C232 C233 1.424 . S
C233 H225 0.951 . S
C233 C232 1.424 . S
C233 C234 1.347 . S
C234 H226 0.951 . S
C234 C229 1.429 . S
C234 C233 1.347 . S
H235 C236 0.951 . S
C236 H235 0.951 . S
C236 C242 1.265 . S
H237 C242 0.950 . S
H238 C246 0.949 . S
H239 C247 0.950 . S
H240 C248 0.951 . S
H241 C249 0.951 . S
C242 C236 1.265 . S
C242 H237 0.950 . S
C242 C243 1.478 . S
C243 C230 1.394 . S
C243 C242 1.478 . S
C243 C244 1.397 . S
C244 C243 1.397 . S
C244 C245 1.438 . S
C244 C249 1.429 . S
C245 C228 1.394 . S
C245 C244 1.438 . S
C245 C246 1.428 . S
C246 H238 0.949 . S
C246 C245 1.428 . S
C246 C247 1.345 . S
C247 H239 0.950 . S
C247 C246 1.345 . S
C247 C248 1.424 . S
C248 H240 0.951 . S
C248 C247 1.424 . S
C248 C249 1.347 . S
C249 H241 0.951 . S
C249 C244 1.429 . S
C249 C248 1.347 . S
H250 C251 0.951 . S
C251 H250 0.951 . S
C251 C257 1.265 . S
H252 C257 0.950 . S
H253 C261 0.949 . S
H254 C262 0.950 . S
H255 C263 0.951 . S
H256 C264 0.951 . S
C257 C251 1.265 . S
C257 H252 0.950 . S
C257 C258 1.478 . S
C258 C257 1.478 . S
C258 C259 1.397 . S
C258 C275 1.394 . S
C259 C258 1.397 . S
C259 C260 1.438 . S
C259 C264 1.429 . S
C260 C259 1.438 . S
C260 C261 1.428 . S
C260 C273 1.394 . S
C261 H253 0.949 . S
C261 C260 1.428 . S
C261 C262 1.345 . S
C262 H254 0.950 . S
C262 C261 1.345 . S
C262 C263 1.424 . S
C263 H255 0.951 . S
C263 C262 1.424 . S
C263 C264 1.347 . S
C264 H256 0.951 . S
C264 C259 1.429 . S
C264 C263 1.347 . S
H265 C266 0.951 . S
C266 H265 0.951 . S
C266 C272 1.265 . S
H267 C272 0.950 . S
H268 C276 0.949 . S
H269 C277 0.950 . S
H270 C278 0.951 . S
H271 C279 0.951 . S
C272 C266 1.265 . S
C272 H267 0.950 . S
C272 C273 1.478 . S
C273 C260 1.394 . S
C273 C272 1.478 . S
C273 C274 1.397 . S
C274 C273 1.397 . S
C274 C275 1.438 . S
C274 C279 1.429 . S
C275 C258 1.394 . S
C275 C274 1.438 . S
C275 C276 1.428 . S
C276 H268 0.949 . S
C276 C275 1.428 . S
C276 C277 1.345 . S
C277 H269 0.950 . S
C277 C276 1.345 . S
C277 C278 1.424 . S
C278 H270 0.951 . S
C278 C277 1.424 . S
C278 C279 1.347 . S
C279 H271 0.951 . S
C279 C274 1.429 . S
C279 C278 1.347 . S
H280 C281 0.951 . S
C281 H280 0.951 . S
C281 C287 1.265 . S
H282 C287 0.950 . S
H283 C291 0.949 1_545 S
H284 C292 0.950 . S
H285 C293 0.951 . S
H286 C294 0.951 . S
C287 C281 1.265 . S
C287 H282 0.950 . S
C287 C288 1.478 . S
C288 C287 1.478 . S
C288 C289 1.397 1_554 S
C288 C305 1.394 1_565 S
C289 C288 1.397 1_556 S
C289 C290 1.438 . S
C289 C294 1.429 . S
C290 C289 1.438 . S
C290 C291 1.428 . S
C290 C303 1.394 1_565 S
C291 H283 0.949 1_565 S
C291 C290 1.428 . S
C291 C292 1.345 . S
C292 H284 0.950 . S
C292 C291 1.345 . S
C292 C293 1.424 . S
C293 H285 0.951 . S
C293 C292 1.424 . S
C293 C294 1.347 . S
C294 H286 0.951 . S
C294 C289 1.429 . S
C294 C293 1.347 . S
H295 C296 0.951 . S
C296 H295 0.951 . S
C296 C302 1.265 . S
H297 C302 0.950 . S
H298 C306 0.949 1_565 S
H299 C307 0.950 . S
H300 C308 0.951 . S
H301 C309 0.951 . S
C302 C296 1.265 . S
C302 H297 0.950 . S
C302 C303 1.478 . S
C303 C290 1.394 1_545 S
C303 C302 1.478 . S
C303 C304 1.397 1_556 S
C304 C303 1.397 1_554 S
C304 C305 1.438 . S
C304 C309 1.429 . S
C305 C288 1.394 1_545 S
C305 C304 1.438 . S
C305 C306 1.428 . S
C306 H298 0.949 1_545 S
C306 C305 1.428 . S
C306 C307 1.345 . S
C307 H299 0.950 . S
C307 C306 1.345 . S
C307 C308 1.424 . S
C308 H300 0.951 . S
C308 C307 1.424 . S
C308 C309 1.347 . S
C309 H301 0.951 . S
C309 C304 1.429 . S
C309 C308 1.347 . S
H310 C311 0.951 . S
C311 H310 0.951 . S
C311 C317 1.265 1_565 S
H312 C317 0.950 . S
H313 C321 0.949 . S
H314 C322 0.950 . S
H315 C323 0.951 . S
H316 C324 0.951 . S
C317 C311 1.265 1_545 S
C317 H312 0.950 . S
C317 C318 1.478 . S
C318 C317 1.478 . S
C318 C319 1.397 . S
C318 C335 1.394 1_545 S
C319 C318 1.397 . S
C319 C320 1.438 . S
C319 C324 1.429 . S
C320 C319 1.438 . S
C320 C321 1.428 . S
C320 C333 1.394 1_545 S
C321 H313 0.949 . S
C321 C320 1.428 . S
C321 C322 1.345 . S
C322 H314 0.950 . S
C322 C321 1.345 . S
C322 C323 1.424 . S
C323 H315 0.951 . S
C323 C322 1.424 . S
C323 C324 1.347 . S
C324 H316 0.951 . S
C324 C319 1.429 . S
C324 C323 1.347 . S
H325 C326 0.951 . S
C326 H325 0.951 . S
C326 C332 1.265 1_545 S
H327 C332 0.950 . S
H328 C336 0.949 . S
H329 C337 0.950 . S
H330 C338 0.951 . S
H331 C339 0.951 . S
C332 C326 1.265 1_565 S
C332 H327 0.950 . S
C332 C333 1.478 . S
C333 C320 1.394 1_565 S
C333 C332 1.478 . S
C333 C334 1.397 . S
C334 C333 1.397 . S
C334 C335 1.438 . S
C334 C339 1.429 . S
C335 C318 1.394 1_565 S
C335 C334 1.438 . S
C335 C336 1.428 . S
C336 H328 0.949 . S
C336 C335 1.428 . S
C336 C337 1.345 . S
C337 H329 0.950 . S
C337 C336 1.345 . S
C337 C338 1.424 . S
C338 H330 0.951 . S
C338 C337 1.424 . S
C338 C339 1.347 . S
C339 H331 0.951 . S
C339 C334 1.429 . S
C339 C338 1.347 . S
H340 C341 0.951 . S
C341 H340 0.951 . S
C341 C347 1.265 . S
H342 C347 0.950 . S
H343 C351 0.949 . S
H344 C352 0.950 . S
H345 C353 0.948 1_655 S
H346 C354 0.951 . S
C347 C341 1.265 . S
C347 H342 0.950 . S
C347 C348 1.478 . S
C348 C347 1.478 . S
C348 C349 1.397 1_554 S
C348 C365 1.394 . S
C349 C348 1.397 1_556 S
C349 C350 1.438 1_655 S
C349 C354 1.429 . S
C350 C349 1.438 1_455 S
C350 C351 1.428 . S
C350 C363 1.394 . S
C351 H343 0.949 . S
C351 C350 1.428 . S
C351 C352 1.345 . S
C352 H344 0.950 . S
C352 C351 1.345 . S
C352 C353 1.424 . S
C353 H345 0.948 1_455 S
C353 C352 1.424 . S
C353 C354 1.347 1_455 S
C354 H346 0.951 . S
C354 C349 1.429 . S
C354 C353 1.347 1_655 S
H355 C356 0.951 . S
C356 H355 0.951 . S
C356 C362 1.265 . S
H357 C362 0.950 . S
H358 C366 0.949 . S
H359 C367 0.950 . S
H360 C368 0.951 1_455 S
H361 C369 0.951 . S
C362 C356 1.265 . S
C362 H357 0.950 . S
C362 C363 1.478 . S
C363 C350 1.394 . S
C363 C362 1.478 . S
C363 C364 1.397 1_556 S
C364 C363 1.397 1_554 S
C364 C365 1.438 1_455 S
C364 C369 1.429 . S
C365 C348 1.394 . S
C365 C364 1.438 1_655 S
C365 C366 1.428 . S
C366 H358 0.949 . S
C366 C365 1.428 . S
C366 C367 1.345 . S
C367 H359 0.950 . S
C367 C366 1.345 . S
C367 C368 1.424 . S
C368 H360 0.951 1_655 S
C368 C367 1.424 . S
C368 C369 1.347 1_655 S
C369 H361 0.951 . S
C369 C364 1.429 . S
C369 C368 1.347 1_455 S
H370 C371 0.951 . S
C371 H370 0.951 . S
C371 C377 1.265 . S
H372 C377 0.950 . S
H373 C381 0.949 . S
H374 C382 0.950 . S
H375 C383 0.951 . S
H376 C384 0.951 . S
C377 C371 1.265 . S
C377 H372 0.950 . S
C377 C378 1.478 . S
C378 C377 1.478 . S
C378 C379 1.397 . S
C378 C395 1.394 . S
C379 C378 1.397 . S
C379 C380 1.438 1_455 S
C379 C384 1.429 . S
C380 C379 1.438 1_655 S
C380 C381 1.428 . S
C380 C393 1.394 . S
C381 H373 0.949 . S
C381 C380 1.428 . S
C381 C382 1.345 . S
C382 H374 0.950 . S
C382 C381 1.345 . S
C382 C383 1.424 1_655 S
C383 H375 0.951 . S
C383 C382 1.424 1_455 S
C383 C384 1.347 . S
C384 H376 0.951 . S
C384 C379 1.429 . S
C384 C383 1.347 . S
H385 C386 0.951 . S
C386 H385 0.951 . S
C386 C392 1.265 . S
H387 C392 0.950 . S
H388 C396 0.949 . S
H389 C397 0.950 . S
H390 C398 0.951 . S
H391 C399 0.951 . S
C392 C386 1.265 . S
C392 H387 0.950 . S
C392 C393 1.478 . S
C393 C380 1.394 . S
C393 C392 1.478 . S
C393 C394 1.397 . S
C394 C393 1.397 . S
C394 C395 1.438 1_655 S
C394 C399 1.429 . S
C395 C378 1.394 . S
C395 C394 1.438 1_455 S
C395 C396 1.428 . S
C396 H388 0.949 . S
C396 C395 1.428 . S
C396 C397 1.345 . S
C397 H389 0.950 . S
C397 C396 1.345 . S
C397 C398 1.424 1_455 S
C398 H390 0.951 . S
C398 C397 1.424 1_655 S
C398 C399 1.347 . S
C399 H391 0.951 . S
C399 C394 1.429 . S
C399 C398 1.347 . S
H400 C401 0.951 . S
C401 H400 0.951 . S
C401 C407 1.264 1_655 S
H402 C407 0.951 1_565 S
H403 C411 0.949 . S
H404 C412 0.950 . S
H405 C413 0.951 . S
H406 C414 0.951 . S
C407 C401 1.264 1_455 S
C407 H402 0.951 1_545 S
C407 C408 1.479 . S
C408 C407 1.479 . S
C408 C409 1.397 1_545 S
C408 C425 1.394 1_455 S
C409 C408 1.397 1_565 S
C409 C410 1.438 . S
C409 C414 1.429 . S
C410 C409 1.438 . S
C410 C411 1.428 . S
C410 C423 1.394 1_465 S
C411 H403 0.949 . S
C411 C410 1.428 . S
C411 C412 1.345 . S
C412 H404 0.950 . S
C412 C411 1.345 . S
C412 C413 1.424 . S
C413 H405 0.951 . S
C413 C412 1.424 . S
C413 C414 1.347 . S
C414 H406 0.951 . S
C414 C409 1.429 . S
C414 C413 1.347 . S
H415 C416 0.948 . S
C416 H415 0.948 . S
C416 C422 1.265 1_455 S
H417 C422 0.950 . S
H418 C426 0.949 . S
H419 C427 0.950 . S
H420 C428 0.951 . S
H421 C429 0.951 . S
C422 C416 1.265 1_655 S
C422 H417 0.950 . S
C422 C423 1.478 . S
C423 C410 1.394 1_645 S
C423 C422 1.478 . S
C423 C424 1.397 . S
C424 C423 1.397 . S
C424 C425 1.438 . S
C424 C429 1.429 . S
C425 C408 1.394 1_655 S
C425 C424 1.438 . S
C425 C426 1.428 . S
C426 H418 0.949 . S
C426 C425 1.428 . S
C426 C427 1.345 . S
C427 H419 0.950 . S
C427 C426 1.345 . S
C427 C428 1.424 . S
C428 H420 0.951 . S
C428 C427 1.424 . S
C428 C429 1.347 . S
C429 H421 0.951 . S
C429 C424 1.429 . S
C429 C428 1.347 . S
H430 C431 0.951 1_545 S
C431 H430 0.951 1_565 S
C431 C437 1.265 1_655 S
H432 C437 0.950 . S
H433 C441 0.949 . S
H434 C442 0.950 . S
H435 C443 0.951 . S
H436 C444 0.951 . S
C437 C431 1.265 1_455 S
C437 H432 0.950 . S
C437 C438 1.478 . S
C438 C437 1.478 . S
C438 C439 1.397 . S
C438 C455 1.394 1_465 S
C439 C438 1.397 . S
C439 C440 1.438 . S
C439 C444 1.429 . S
C440 C439 1.438 . S
C440 C441 1.428 . S
C440 C453 1.380 1_465 S
C441 H433 0.949 . S
C441 C440 1.428 . S
C441 C442 1.345 . S
C442 H434 0.950 . S
C442 C441 1.345 . S
C442 C443 1.424 . S
C443 H435 0.951 . S
C443 C442 1.424 . S
C443 C444 1.347 . S
C444 H436 0.951 . S
C444 C439 1.429 . S
C444 C443 1.347 . S
H445 C446 0.951 . S
C446 H445 0.951 . S
C446 C452 1.265 1_465 S
H447 C452 0.950 . S
H448 C456 0.949 . S
H449 C457 0.950 . S
H450 C458 0.951 . S
H451 C459 0.951 . S
C452 C446 1.265 1_645 S
C452 H447 0.950 . S
C452 C453 1.480 . S
C453 C440 1.380 1_645 S
C453 C452 1.480 . S
C453 C454 1.409 . S
C454 C453 1.409 . S
C454 C455 1.438 . S
C454 C459 1.429 . S
C455 C438 1.394 1_645 S
C455 C454 1.438 . S
C455 C456 1.428 . S
C456 H448 0.949 . S
C456 C455 1.428 . S
C456 C457 1.345 . S
C457 H449 0.950 . S
C457 C456 1.345 . S
C457 C458 1.424 . S
C458 H450 0.951 . S
C458 C457 1.424 . S
C458 C459 1.347 . S
C459 H451 0.951 . S
C459 C454 1.429 . S
C459 C458 1.347 . S
H460 C461 0.951 . S
C461 H460 0.951 . S
C461 C467 1.265 . S
H462 C467 0.950 . S
H463 C471 0.949 . S
H464 C472 0.950 . S
H465 C473 0.951 . S
H466 C474 0.951 . S
C467 C461 1.265 . S
C467 H462 0.950 . S
C467 C468 1.478 . S
C468 C467 1.478 . S
C468 C469 1.397 . S
C468 C485 1.394 . S
C469 C468 1.397 . S
C469 C470 1.438 . S
C469 C474 1.429 . S
C470 C469 1.438 . S
C470 C471 1.428 . S
C470 C483 1.394 . S
C471 H463 0.949 . S
C471 C470 1.428 . S
C471 C472 1.345 . S
C472 H464 0.950 . S
C472 C471 1.345 . S
C472 C473 1.424 . S
C473 H465 0.951 . S
C473 C472 1.424 . S
C473 C474 1.347 . S
C474 H466 0.951 . S
C474 C469 1.429 . S
C474 C473 1.347 . S
H475 C476 0.951 . S
C476 H475 0.951 . S
C476 C482 1.265 . S
H477 C482 0.950 . S
H478 C486 0.949 . S
H479 C487 0.950 . S
H480 C488 0.951 . S
H481 C489 0.951 . S
C482 C476 1.265 . S
C482 H477 0.950 . S
C482 C483 1.478 . S
C483 C470 1.394 . S
C483 C482 1.478 . S
C483 C484 1.397 . S
C484 C483 1.397 . S
C484 C485 1.438 . S
C484 C489 1.429 . S
C485 C468 1.394 . S
C485 C484 1.438 . S
C485 C486 1.428 . S
C486 H478 0.949 . S
C486 C485 1.428 . S
C486 C487 1.345 . S
C487 H479 0.950 . S
C487 C486 1.345 . S
C487 C488 1.424 . S
C488 H480 0.951 . S
C488 C487 1.424 . S
C488 C489 1.347 . S
C489 H481 0.951 . S
C489 C484 1.429 . S
C489 C488 1.347 . S
H490 C491 0.951 . S
C491 H490 0.951 . S
C491 C497 1.265 . S
H492 C497 0.950 . S
H493 C501 0.949 . S
H494 C502 0.950 . S
H495 C503 0.951 . S
H496 C504 0.951 . S
C497 C491 1.265 . S
C497 H492 0.950 . S
C497 C498 1.478 . S
C498 C497 1.478 . S
C498 C499 1.397 . S
C498 C515 1.394 . S
C499 C498 1.397 . S
C499 C500 1.438 . S
C499 C504 1.429 . S
C500 C499 1.438 . S
C500 C501 1.428 . S
C500 C513 1.394 . S
C501 H493 0.949 . S
C501 C500 1.428 . S
C501 C502 1.345 . S
C502 H494 0.950 . S
C502 C501 1.345 . S
C502 C503 1.424 . S
C503 H495 0.951 . S
C503 C502 1.424 . S
C503 C504 1.347 . S
C504 H496 0.951 . S
C504 C499 1.429 . S
C504 C503 1.347 . S
H505 C506 0.951 . S
C506 H505 0.951 . S
C506 C512 1.265 . S
H507 C512 0.950 . S
H508 C516 0.949 . S
H509 C517 0.950 . S
H510 C518 0.951 . S
H511 C519 0.951 . S
C512 C506 1.265 . S
C512 H507 0.950 . S
C512 C513 1.478 . S
C513 C500 1.394 . S
C513 C512 1.478 . S
C513 C514 1.397 . S
C514 C513 1.397 . S
C514 C515 1.438 . S
C514 C519 1.429 . S
C515 C498 1.394 . S
C515 C514 1.438 . S
C515 C516 1.428 . S
C516 H508 0.949 . S
C516 C515 1.428 . S
C516 C517 1.345 . S
C517 H509 0.950 . S
C517 C516 1.345 . S
C517 C518 1.424 . S
C518 H510 0.951 . S
C518 C517 1.424 . S
C518 C519 1.347 . S
C519 H511 0.951 . S
C519 C514 1.429 . S
C519 C518 1.347 . S
C161 C93 3.585 . S
C176 C24 3.585 . S
C191 C104 3.598 . S
C206 C13 3.598 . S
C221 C57 0.219 . S
C236 C146 0.219 . S
C251 C66 0.513 . S
C266 C137 0.513 . S
C281 C17 1.210 . S
C296 C26 1.210 . S
C311 C64 4.683 . S
C326 C53 4.683 . S
C341 C97 1.212 . S
C356 C106 1.212 . S
C371 C133 4.685 . S
C386 C144 4.685 . S
C401 C42 1.447 1_545 S
C416 C23 1.424 . S
C431 C2 1.426 . S
C446 C63 1.455 1_565 S
C461 C122 1.453 . S
C476 C103 1.425 . S
C491 C143 1.447 . S
C506 C82 1.425 . S
