# Generated by pormake.
# Topology crb, (4)-cn, num edge types: 1
# Building blocks:
#     Node 0, Type 0, BuildingBlock: TATPOV_clean_sbu_0, # of connection points: 4
#     Node 1, Type 0, BuildingBlock: TATPOV_clean_sbu_0, # of connection points: 4
#     Node 2, Type 0, BuildingBlock: TATPOV_clean_sbu_0, # of connection points: 4
#     Node 3, Type 0, BuildingBlock: TATPOV_clean_sbu_0, # of connection points: 4
#     Node 4, Type 0, BuildingBlock: TATPOV_clean_sbu_0, # of connection points: 4
#     Node 5, Type 0, BuildingBlock: TATPOV_clean_sbu_0, # of connection points: 4
#     Node 6, Type 0, BuildingBlock: TATPOV_clean_sbu_0, # of connection points: 4
#     Node 7, Type 0, BuildingBlock: TATPOV_clean_sbu_0, # of connection points: 4
#     Edge 8, Type (0, 0), BuildingBlock: FUNLAD_clean_linker_0, # of connection points: 2
#     Edge 9, Type (0, 0), BuildingBlock: FUNLAD_clean_linker_0, # of connection points: 2
#     Edge 10, Type (0, 0), BuildingBlock: FUNLAD_clean_linker_0, # of connection points: 2
#     Edge 11, Type (0, 0), BuildingBlock: FUNLAD_clean_linker_0, # of connection points: 2
#     Edge 12, Type (0, 0), BuildingBlock: FUNLAD_clean_linker_0, # of connection points: 2
#     Edge 13, Type (0, 0), BuildingBlock: FUNLAD_clean_linker_0, # of connection points: 2
#     Edge 14, Type (0, 0), BuildingBlock: FUNLAD_clean_linker_0, # of connection points: 2
#     Edge 15, Type (0, 0), BuildingBlock: FUNLAD_clean_linker_0, # of connection points: 2
#     Edge 16, Type (0, 0), BuildingBlock: FUNLAD_clean_linker_0, # of connection points: 2
#     Edge 17, Type (0, 0), BuildingBlock: FUNLAD_clean_linker_0, # of connection points: 2
#     Edge 18, Type (0, 0), BuildingBlock: FUNLAD_clean_linker_0, # of connection points: 2
#     Edge 19, Type (0, 0), BuildingBlock: FUNLAD_clean_linker_0, # of connection points: 2
#     Edge 20, Type (0, 0), BuildingBlock: FUNLAD_clean_linker_0, # of connection points: 2
#     Edge 21, Type (0, 0), BuildingBlock: FUNLAD_clean_linker_0, # of connection points: 2
#     Edge 22, Type (0, 0), BuildingBlock: FUNLAD_clean_linker_0, # of connection points: 2
#     Edge 23, Type (0, 0), BuildingBlock: FUNLAD_clean_linker_0, # of connection points: 2
# Relax obj value: 0.016
# Max RMSD: 0.048
# Mean RMSD: 0.048
data_MOF--net-crb--node1-TATPOV_clean_sbu_0--edge1-FUNLAD_clean_linker_0
_symmetry_space_group_name_H-M    P1
_symmetry_Int_Tables_number       1
_symmetry_cell_setting            triclinic
loop_
_symmetry_equiv_pos_as_xyz
'x, y, z'
_cell_length_a     50.545028
_cell_length_b     47.395445
_cell_length_c     29.201444
_cell_angle_alpha  90.035081
_cell_angle_beta   89.998325
_cell_angle_gamma 89.965971
loop_
_atom_site_label
_atom_site_type_symbol
_atom_site_fract_x
_atom_site_fract_y
_atom_site_fract_z
_atom_type_partial_charge
Zn0 Zn 0.35618 0.3439 0.17298 0.0
Zn1 Zn 0.32938 0.31743 0.10466 0.0
O2 O 0.36759 0.30575 0.09172 0.0
O3 O 0.38998 0.32629 0.14714 0.0
O4 O 0.30848 0.298 0.0555 0.0
O5 O 0.33366 0.32296 0.21989 0.0
O6 O 0.31268 0.30189 0.16345 0.0
C7 C 0.38951 0.31107 0.11139 0.0
C8 C 0.32964 0.38208 0.11052 0.0
O9 O 0.32271 0.3591 0.09139 0.0
O10 O 0.34368 0.38153 0.14652 0.0
C11 C 0.31223 0.30327 0.01334 0.0
O12 O 0.3306 0.32149 0.00159 0.0
C13 C 0.31609 0.30585 0.20618 0.0
Zn14 Zn 0.64377 0.34214 0.87799 0.0
Zn15 Zn 0.67028 0.31546 0.94642 0.0
O16 O 0.63201 0.30411 0.95934 0.0
O17 O 0.60985 0.32482 0.9038 0.0
O18 O 0.69111 0.29597 0.99562 0.0
O19 O 0.66615 0.32091 0.83109 0.0
O20 O 0.68681 0.29959 0.88764 0.0
C21 C 0.61015 0.30963 0.93956 0.0
C22 C 0.67033 0.38014 0.94067 0.0
O23 O 0.67712 0.3571 0.95973 0.0
O24 O 0.6564 0.37971 0.90455 0.0
C25 C 0.68773 0.30172 0.03772 0.0
O26 O 0.66977 0.32045 0.04939 0.0
C27 C 0.68348 0.30353 0.84488 0.0
Zn28 Zn 0.64358 0.6542 0.18094 0.0
Zn29 Zn 0.67067 0.68096 0.1131 0.0
O30 O 0.63243 0.69314 0.1018 0.0
O31 O 0.60969 0.67213 0.15624 0.0
O32 O 0.69041 0.69977 0.06174 0.0
O33 O 0.66666 0.67492 0.2273 0.0
O34 O 0.68818 0.69623 0.17164 0.0
C35 C 0.6104 0.68787 0.12115 0.0
C36 C 0.66966 0.61614 0.11798 0.0
O37 O 0.67684 0.63921 0.09948 0.0
O38 O 0.65558 0.61653 0.15391 0.0
C39 C 0.68349 0.69438 0.02079 0.0
O40 O 0.66359 0.6771 0.01365 0.0
C41 C 0.68452 0.69189 0.21426 0.0
Zn42 Zn 0.36182 0.65549 0.87654 0.0
Zn43 Zn 0.33276 0.68309 0.94037 0.0
O44 O 0.37097 0.69465 0.95517 0.0
O45 O 0.39516 0.67261 0.90371 0.0
O46 O 0.31208 0.70195 0.99102 0.0
O47 O 0.34108 0.6763 0.82773 0.0
O48 O 0.3172 0.69848 0.8796 0.0
C49 C 0.39353 0.6887 0.93828 0.0
C50 C 0.33319 0.61806 0.93606 0.0
O51 O 0.32564 0.64133 0.95354 0.0
O52 O 0.34856 0.61808 0.90177 0.0
C53 C 0.31923 0.69634 0.03181 0.0
O54 O 0.33942 0.67931 0.03823 0.0
C55 C 0.32283 0.6936 0.83771 0.0
Zn56 Zn 0.86204 0.84271 0.68508 0.0
Zn57 Zn 0.83201 0.81834 0.6197 0.0
O58 O 0.86995 0.80659 0.60194 0.0
O59 O 0.89462 0.82616 0.65535 0.0
O60 O 0.80928 0.79977 0.57133 0.0
O61 O 0.84256 0.82088 0.73356 0.0
O62 O 0.81768 0.80161 0.68017 0.0
C63 C 0.89265 0.81139 0.61935 0.0
C64 C 0.83261 0.88287 0.63131 0.0
O65 O 0.8247 0.86071 0.61068 0.0
O66 O 0.84848 0.88086 0.66473 0.0
C67 C 0.81275 0.80491 0.529 0.0
O68 O 0.83151 0.82255 0.51681 0.0
C69 C 0.82388 0.80451 0.72226 0.0
Zn70 Zn 0.14088 0.83909 0.37314 0.0
Zn71 Zn 0.17032 0.81506 0.43941 0.0
O72 O 0.13195 0.80381 0.45562 0.0
O73 O 0.10771 0.82347 0.40177 0.0
O74 O 0.19151 0.79752 0.49102 0.0
O75 O 0.16067 0.81642 0.32618 0.0
O76 O 0.18562 0.79746 0.37984 0.0
C77 C 0.10937 0.80878 0.43787 0.0
C78 C 0.17006 0.87959 0.42604 0.0
O79 O 0.1777 0.85754 0.44725 0.0
O80 O 0.15438 0.87743 0.39238 0.0
C81 C 0.18571 0.80426 0.53203 0.0
O82 O 0.16636 0.82226 0.53911 0.0
C83 C 0.17938 0.80012 0.33768 0.0
Zn84 Zn 0.14424 0.14675 0.67592 0.0
Zn85 Zn 0.16868 0.17245 0.60516 0.0
O86 O 0.1296 0.18328 0.59485 0.0
O87 O 0.10964 0.16311 0.65333 0.0
O88 O 0.18862 0.19252 0.55497 0.0
O89 O 0.16664 0.16822 0.72108 0.0
O90 O 0.18618 0.18906 0.66292 0.0
C91 C 0.10854 0.17792 0.61726 0.0
C92 C 0.17058 0.10792 0.6149 0.0
O93 O 0.17648 0.13044 0.59335 0.0
O94 O 0.15707 0.10923 0.65139 0.0
C95 C 0.18655 0.18653 0.51268 0.0
O96 O 0.17019 0.16648 0.49993 0.0
C97 C 0.18361 0.1855 0.70595 0.0
Zn98 Zn 0.8574 0.14739 0.37519 0.0
Zn99 Zn 0.83386 0.17412 0.44596 0.0
O100 O 0.87318 0.18442 0.45467 0.0
O101 O 0.89246 0.16337 0.39627 0.0
O102 O 0.81493 0.1951 0.49651 0.0
O103 O 0.83479 0.16874 0.33024 0.0
O104 O 0.81587 0.19037 0.38834 0.0
C105 C 0.89401 0.17854 0.43192 0.0
C106 C 0.83117 0.10953 0.43784 0.0
O107 O 0.82569 0.13233 0.45902 0.0
O108 O 0.84438 0.11032 0.40098 0.0
C109 C 0.81648 0.18838 0.53857 0.0
O110 O 0.83141 0.16691 0.55058 0.0
C111 C 0.81807 0.18633 0.34534 0.0
C112 C 0.33074 0.435 0.10901 0.0
C113 C 0.32306 0.40941 0.08863 0.0
C114 C 0.32704 0.46059 0.08608 0.0
C115 C 0.31546 0.46117 0.04222 0.0
C116 C 0.30716 0.43567 0.02245 0.0
C117 C 0.31075 0.4101 0.04544 0.0
C118 C 0.31408 0.48743 0.01445 0.0
C119 C 0.31428 0.51355 0.03268 0.0
C120 C 0.3166 0.53968 0.00479 0.0
C121 C 0.3083 0.56544 0.02373 0.0
C122 C 0.31266 0.59082 1.00054 0.0
C123 C 0.32576 0.59102 0.95806 0.0
H124 H 0.3364 0.52056 0.94632 0.0
C125 C 0.33349 0.56519 0.93854 0.0
C126 C 0.32902 0.53981 0.96162 0.0
H127 H 0.34374 0.56458 0.90598 0.0
H128 H 0.34038 0.43524 0.14213 0.0
H129 H 0.33438 0.47963 0.10209 0.0
H130 H 0.29836 0.43544 0.98862 0.0
H131 H 0.30464 0.39079 0.02864 0.0
H132 H 0.31297 0.48496 0.97753 0.0
H133 H 0.31278 0.5161 0.06954 0.0
H134 H 0.29888 0.566 0.05706 0.0
H135 H 0.30653 0.61034 0.01669 0.0
C136 C 0.43907 0.30819 0.11079 0.0
C137 C 0.4147 0.3017 0.09014 0.0
C138 C 0.46287 0.30264 0.08811 0.0
C139 C 0.46287 0.29027 0.04423 0.0
C140 C 0.43854 0.28287 0.02437 0.0
C141 C 0.41473 0.28837 0.0471 0.0
C142 C 0.48742 0.28761 0.01636 0.0
C143 C 0.51198 0.28743 0.03438 0.0
C144 C 0.53656 0.28975 0.00653 0.0
C145 C 0.5608 0.28204 0.02642 0.0
C146 C 0.58468 0.28723 0.00374 0.0
C147 C 0.58487 0.30055 0.96072 0.0
H148 H 0.51861 0.30906 0.94644 0.0
C149 C 0.56057 0.30733 0.94003 0.0
C150 C 0.53671 0.30209 0.96266 0.0
H151 H 0.55997 0.3177 0.907 0.0
H152 H 0.43979 0.31857 0.14383 0.0
H153 H 0.48104 0.30939 0.1043 0.0
H154 H 0.43789 0.27349 0.99054 0.0
H155 H 0.39633 0.2831 0.03011 0.0
H156 H 0.48498 0.28626 0.97949 0.0
H157 H 0.51439 0.28603 0.07125 0.0
H158 H 0.56134 0.27266 0.06025 0.0
H159 H 0.60301 0.28174 0.02076 0.0
C160 C 0.66906 0.43306 0.94289 0.0
C161 C 0.67685 0.4074 0.96291 0.0
C162 C 0.67265 0.45856 0.96619 0.0
C163 C 0.68423 0.45898 0.01005 0.0
C164 C 0.69262 0.43341 0.02948 0.0
C165 C 0.68913 0.40793 0.00613 0.0
C166 C 0.68569 0.48516 0.03808 0.0
C167 C 0.68558 0.51132 0.02006 0.0
C168 C 0.68381 0.53748 0.04811 0.0
C169 C 0.69219 0.5631 0.02891 0.0
C170 C 0.68854 0.58852 0.05237 0.0
C171 C 0.6761 0.58894 0.09545 0.0
H172 H 0.66458 0.51865 0.10734 0.0
C173 C 0.66824 0.56323 0.11519 0.0
C174 C 0.67199 0.53778 0.09179 0.0
H175 H 0.65847 0.56278 0.1482 0.0
H176 H 0.65942 0.43342 0.90977 0.0
H177 H 0.66525 0.47764 0.95042 0.0
H178 H 0.70143 0.43306 0.0633 0.0
H179 H 0.69531 0.38857 0.02267 0.0
H180 H 0.68695 0.4826 0.07496 0.0
H181 H 0.68691 0.51392 0.98319 0.0
H182 H 0.70116 0.56353 0.99521 0.0
H183 H 0.69477 0.60793 0.03604 0.0
C184 C 0.44293 0.69226 0.94252 0.0
C185 C 0.41801 0.69827 0.96155 0.0
C186 C 0.46608 0.69781 0.96704 0.0
C187 C 0.46489 0.70965 0.01124 0.0
C188 C 0.44002 0.71659 0.02955 0.0
C189 C 0.41684 0.71114 0.00492 0.0
C190 C 0.48875 0.71209 0.04086 0.0
C191 C 0.51363 0.71313 0.02431 0.0
C192 C 0.53776 0.71019 0.05318 0.0
C193 C 0.56227 0.71827 0.03478 0.0
C194 C 0.58582 0.7123 0.05794 0.0
C195 C 0.58542 0.69784 0.09998 0.0
H196 H 0.51895 0.68956 0.11128 0.0
C197 C 0.56084 0.69078 0.11936 0.0
C198 C 0.53728 0.69679 0.09623 0.0
H199 H 0.55979 0.67956 0.15161 0.0
H200 H 0.44457 0.68227 0.90926 0.0
H201 H 0.4847 0.69141 0.95201 0.0
H202 H 0.43847 0.72554 0.06361 0.0
H203 H 0.39798 0.71597 0.0207 0.0
H204 H 0.48554 0.71241 0.07761 0.0
H205 H 0.51668 0.71557 0.98772 0.0
H206 H 0.56329 0.72847 0.00163 0.0
H207 H 0.60439 0.71806 0.04195 0.0
C208 C 0.80994 0.91442 0.57434 0.0
C209 C 0.82451 0.91119 0.61501 0.0
C210 C 0.80454 0.94135 0.557 0.0
C211 C 0.81374 0.96558 0.57997 0.0
C212 C 0.82702 0.9623 0.62181 0.0
C213 C 0.83246 0.93546 0.63905 0.0
C214 C 0.81104 0.9945 0.56075 0.0
C215 C 0.80947 -0.0003 0.51547 0.0
C216 C 0.81242 0.02837 0.49543 0.0
C217 C 0.82226 0.03066 0.45068 0.0
C218 C 0.82773 0.05702 0.43171 0.0
C219 C 0.82321 0.08185 0.45691 0.0
H220 H 0.79827 0.05242 0.55402 0.0
C221 C 0.8121 0.07971 0.50091 0.0
C222 C 0.80671 0.05324 0.52001 0.0
H223 H 0.80809 0.09844 0.52102 0.0
H224 H 0.80323 0.89616 0.55529 0.0
H225 H 0.79341 0.94299 0.52548 0.0
H226 H 0.83407 0.98057 0.64051 0.0
H227 H 0.84347 0.93379 0.67076 0.0
H228 H 0.81367 0.01197 0.58437 0.0
H229 H 0.80919 0.98213 0.49162 0.0
H230 H 0.82659 0.01191 0.43076 0.0
H231 H 0.836 0.05786 0.39752 0.0
C232 C 0.06006 0.80454 0.44055 0.0
C233 C 0.0848 0.79922 0.4608 0.0
C234 C 0.03666 0.79862 0.464 0.0
C235 C 0.03738 0.78698 0.50834 0.0
C236 C 0.0621 0.7807 0.52788 0.0
C237 C 0.08558 0.78664 0.50435 0.0
C238 C 0.01313 0.7842 0.53698 0.0
C239 C 0.98832 0.78449 0.51992 0.0
C240 C 0.96417 0.78798 0.5486 0.0
C241 C 0.93931 0.78205 0.52929 0.0
C242 C 0.91598 0.78856 0.55289 0.0
C243 C 0.91704 0.80139 0.59625 0.0
H244 H 0.98371 0.80563 0.60861 0.0
C245 C 0.9419 0.80642 0.61624 0.0
C246 C 0.96516 0.79993 0.59272 0.0
H247 H 0.94348 0.81631 0.64958 0.0
H248 H 0.0587 0.81425 0.40705 0.0
H249 H 0.01823 0.80455 0.4479 0.0
H250 H 0.06331 0.77194 0.56208 0.0
H251 H 0.10429 0.78229 0.52098 0.0
H252 H 0.01606 0.78284 0.57373 0.0
H253 H 0.98535 0.78307 0.4832 0.0
H254 H 0.9379 0.77307 0.49524 0.0
H255 H 0.89716 0.78442 0.53646 0.0
C256 C 0.19018 0.07733 0.55322 0.0
C257 C 0.17846 0.07997 0.59667 0.0
C258 C 0.19559 0.05064 0.53487 0.0
C259 C 0.18928 0.02605 0.55966 0.0
C260 C 0.17879 0.02882 0.6039 0.0
C261 C 0.17331 0.05541 0.62213 0.0
C262 C 0.19229 0.99719 0.54033 0.0
C263 C 0.1914 0.99163 0.49509 0.0
C264 C 0.18879 0.96258 0.47634 0.0
C265 C 0.17606 0.95905 0.43404 0.0
C266 C 0.17068 0.9321 0.41714 0.0
C267 C 0.17818 0.90798 0.44198 0.0
H268 H 0.20828 0.94031 0.53207 0.0
C269 C 0.19224 0.91145 0.48313 0.0
C270 C 0.19756 0.93848 0.50014 0.0
H271 H 0.19859 0.8933 0.50283 0.0
H272 H 0.19469 0.09585 0.53294 0.0
H273 H 0.20453 0.04944 0.50127 0.0
H274 H 0.17398 0.01029 0.62398 0.0
H275 H 0.16455 0.05663 0.65593 0.0
H276 H 0.19206 0.97981 0.56452 0.0
H277 H 0.18926 0.00893 0.47102 0.0
H278 H 0.16935 0.9772 0.41471 0.0
H279 H 0.16007 0.93024 0.38506 0.0
C280 C 0.92343 0.20137 0.49074 0.0
C281 C 0.92039 0.18784 0.4482 0.0
C282 C 0.94869 0.20744 0.50779 0.0
C283 C 0.97145 0.19995 0.48266 0.0
C284 C 0.96827 0.1879 0.43911 0.0
C285 C 0.9431 0.18181 0.42215 0.0
C286 C 0.99879 0.20296 0.50106 0.0
C287 C 0.00439 0.20337 0.5462 0.0
C288 C 0.03164 0.20004 0.56483 0.0
C289 C 0.03451 0.1889 0.60905 0.0
C290 C 0.05952 0.18257 0.62648 0.0
C291 C 0.08238 0.18747 0.60024 0.0
H292 H 0.05331 0.21592 0.50582 0.0
C293 C 0.07969 0.2001 0.55694 0.0
C294 C 0.05458 0.20639 0.53939 0.0
H295 H 0.09692 0.20447 0.53607 0.0
H296 H 0.90633 0.20664 0.51142 0.0
H297 H 0.95021 0.2177 0.54077 0.0
H298 H 0.98537 0.18219 0.41872 0.0
H299 H 0.94153 0.17168 0.38899 0.0
H300 H 0.01484 0.20132 0.47653 0.0
H301 H 0.9883 0.20269 0.57078 0.0
H302 H 0.01727 0.18408 0.62967 0.0
H303 H 0.06083 0.17317 0.66021 0.0
C304 C 0.20104 0.19518 0.43157 0.0
C305 C 0.20306 0.20152 0.47848 0.0
C306 C 0.21709 0.20895 0.39953 0.0
C307 C 0.23547 0.22951 0.41376 0.0
C308 C 0.23751 0.23568 0.46066 0.0
C309 C 0.22146 0.22198 0.49261 0.0
C310 C 0.25352 0.24432 0.38138 0.0
C311 C 0.24872 0.24724 0.33617 0.0
C312 C 0.2667 0.26233 0.30392 0.0
C313 C 0.26411 0.25719 0.25676 0.0
C314 C 0.28022 0.27113 0.22509 0.0
C315 C 0.29927 0.29073 0.23982 0.0
H316 H 0.28785 0.28759 0.3544 0.0
C317 C 0.30179 0.29606 0.28698 0.0
C318 C 0.28565 0.28216 0.31866 0.0
H319 H 0.31607 0.31125 0.29953 0.0
H320 H 0.18723 0.17935 0.41956 0.0
H321 H 0.21535 0.20289 0.36397 0.0
H322 H 0.25159 0.25124 0.47271 0.0
H323 H 0.22364 0.22734 0.52848 0.0
H324 H 0.27128 0.25342 0.39604 0.0
H325 H 0.23093 0.23811 0.3216 0.0
H326 H 0.24959 0.24223 0.24428 0.0
H327 H 0.27765 0.26655 0.18901 0.0
C328 C 0.70091 0.29413 0.11965 0.0
C329 C 0.70442 0.28804 0.07292 0.0
C330 C 0.71711 0.28153 0.1527 0.0
C331 C 0.73712 0.26248 0.13961 0.0
C332 C 0.74065 0.2566 0.09289 0.0
C333 C 0.72446 0.2691 0.05995 0.0
C334 C 0.75521 0.24874 0.17298 0.0
C335 C 0.74982 0.24544 0.21789 0.0
C336 C 0.76783 0.23037 0.24992 0.0
C337 C 0.76633 0.23623 0.29701 0.0
C338 C 0.78272 0.22214 0.32814 0.0
C339 C 0.80085 0.20171 0.31277 0.0
H340 H 0.78686 0.20355 0.19906 0.0
C341 C 0.80212 0.19563 0.26571 0.0
C342 C 0.78573 0.20962 0.23471 0.0
H343 H 0.81559 0.17975 0.2527 0.0
H344 H 0.68578 0.30882 0.13074 0.0
H345 H 0.71413 0.2873 0.18816 0.0
H346 H 0.75598 0.24214 0.08175 0.0
H347 H 0.72779 0.264 0.02424 0.0
H348 H 0.77361 0.24049 0.15925 0.0
H349 H 0.73168 0.25397 0.23213 0.0
H350 H 0.75252 0.25187 0.30976 0.0
H351 H 0.78113 0.22722 0.36421 0.0
C352 C 0.79962 0.79692 0.44709 0.0
C353 C 0.7958 0.79128 0.4939 0.0
C354 C 0.78359 0.78416 0.41394 0.0
C355 C 0.7634 0.76529 0.42687 0.0
C356 C 0.75948 0.75993 0.4737 0.0
C357 C 0.77551 0.77265 0.50681 0.0
C358 C 0.74552 0.75135 0.3931 0.0
C359 C 0.75127 0.74805 0.34824 0.0
C360 C 0.73346 0.73368 0.31483 0.0
C361 C 0.73697 0.73889 0.26785 0.0
C362 C 0.72104 0.72553 0.23519 0.0
C363 C 0.70128 0.70641 0.24875 0.0
H364 H 0.7109 0.70887 0.36394 0.0
C365 C 0.69788 0.701 0.29574 0.0
C366 C 0.71381 0.71434 0.32837 0.0
H367 H 0.68303 0.68619 0.30744 0.0
H368 H 0.81493 0.81135 0.43596 0.0
H369 H 0.78688 0.78965 0.37847 0.0
H370 H 0.74399 0.74568 0.48479 0.0
H371 H 0.77194 0.7679 0.54255 0.0
H372 H 0.727 0.74321 0.40638 0.0
H373 H 0.76973 0.75627 0.33484 0.0
H374 H 0.75206 0.75347 0.2563 0.0
H375 H 0.7243 0.73014 0.19931 0.0
C376 C 0.21794 0.77079 0.31045 0.0
C377 C 0.19403 0.78485 0.3013 0.0
C378 C 0.23215 0.75783 0.27493 0.0
C379 C 0.22261 0.75867 0.22956 0.0
C380 C 0.19834 0.77198 0.22094 0.0
C381 C 0.18431 0.78502 0.25618 0.0
C382 C 0.23693 0.74598 0.19005 0.0
C383 C 0.26312 0.74068 0.18941 0.0
C384 C 0.27705 0.72956 0.14828 0.0
C385 C 0.30032 0.71385 0.15423 0.0
C386 C 0.314 0.70312 0.11642 0.0
C387 C 0.30488 0.70819 0.07167 0.0
H388 H 0.25084 0.74795 0.09724 0.0
C389 C 0.28189 0.72444 0.06558 0.0
C390 C 0.26814 0.73506 0.10343 0.0
H391 H 0.27447 0.72895 0.03157 0.0
H392 H 0.22587 0.77012 0.3449 0.0
H393 H 0.25038 0.74708 0.28336 0.0
H394 H 0.19035 0.77276 0.18651 0.0
H395 H 0.16584 0.79543 0.24784 0.0
H396 H 0.22531 0.74177 0.15953 0.0
H397 H 0.27494 0.74434 0.21984 0.0
H398 H 0.30781 0.70958 0.1883 0.0
H399 H 0.33174 0.69083 0.12236 0.0
C400 C 0.22138 0.77311 0.56449 0.0
C401 C 0.20035 0.79205 0.5714 0.0
C402 C 0.23503 0.76161 0.60182 0.0
C403 C 0.22804 0.76894 0.64704 0.0
C404 C 0.20682 0.78761 0.65381 0.0
C405 C 0.19322 0.79913 0.61652 0.0
C406 C 0.24165 0.75687 0.68794 0.0
C407 C 0.26656 0.74666 0.68699 0.0
C408 C 0.28029 0.73366 0.727 0.0
C409 C 0.30229 0.71638 0.71844 0.0
C410 C 0.31597 0.70353 0.75434 0.0
C411 C 0.30819 0.7078 0.80007 0.0
H412 H 0.25621 0.75203 0.78122 0.0
C413 C 0.2864 0.72545 0.80894 0.0
C414 C 0.27258 0.73828 0.77283 0.0
H415 H 0.27998 0.72934 0.84376 0.0
H416 H 0.22723 0.76699 0.53021 0.0
H417 H 0.25063 0.74658 0.59489 0.0
H418 H 0.20079 0.79345 0.68814 0.0
H419 H 0.17704 0.81355 0.62318 0.0
H420 H 0.23061 0.75672 0.71979 0.0
H421 H 0.27755 0.74722 0.65508 0.0
H422 H 0.30886 0.71255 0.68365 0.0
H423 H 0.33272 0.69021 0.74607 0.0
C424 C 0.29964 0.2949 0.93132 0.0
C425 C 0.2956 0.2895 0.97813 0.0
C426 C 0.28358 0.28214 0.89823 0.0
C427 C 0.26317 0.26362 0.91138 0.0
C428 C 0.25908 0.25847 0.95818 0.0
C429 C 0.27515 0.27113 0.99116 0.0
C430 C 0.24526 0.24967 0.87795 0.0
C431 C 0.25111 0.24558 0.83338 0.0
C432 C 0.23328 0.23028 0.80135 0.0
C433 C 0.23533 0.23542 0.75412 0.0
C434 C 0.21913 0.22108 0.72299 0.0
C435 C 0.20064 0.20111 0.73852 0.0
H436 H 0.21344 0.20447 0.85257 0.0
C437 C 0.19881 0.19574 0.78574 0.0
C438 C 0.21501 0.20999 0.81675 0.0
H439 H 0.18504 0.18023 0.79889 0.0
H440 H 0.3151 0.30914 0.92018 0.0
H441 H 0.28699 0.28735 0.86268 0.0
H442 H 0.24344 0.24444 0.96935 0.0
H443 H 0.2714 0.26658 0.02692 0.0
H444 H 0.2266 0.24193 0.89136 0.0
H445 H 0.26952 0.2536 0.81943 0.0
H446 H 0.24944 0.25069 0.74125 0.0
H447 H 0.22115 0.22562 0.68682 0.0
C448 C 0.69721 0.29272 0.76405 0.0
C449 C 0.69995 0.28785 0.81132 0.0
C450 C 0.71279 0.27799 0.73245 0.0
C451 C 0.7316 0.25809 0.74742 0.0
C452 C 0.73404 0.25298 0.79459 0.0
C453 C 0.71853 0.26776 0.8262 0.0
C454 C 0.74833 0.24156 0.71505 0.0
C455 C 0.7546 0.25048 0.67253 0.0
C456 C 0.77094 0.23404 0.63937 0.0
C457 C 0.76993 0.24153 0.59287 0.0
C458 C 0.78474 0.22681 0.56026 0.0
C459 C 0.80113 0.20425 0.57338 0.0
H460 H 0.7898 0.20565 0.68813 0.0
C461 C 0.80252 0.19695 0.61996 0.0
C462 C 0.78768 0.21169 0.65264 0.0
H463 H 0.81512 0.17983 0.6313 0.0
H464 H 0.68294 0.30786 0.75134 0.0
H465 H 0.70957 0.28193 0.6964 0.0
H466 H 0.74816 0.23759 0.80713 0.0
H467 H 0.7211 0.26335 0.86232 0.0
H468 H 0.75583 0.22152 0.72737 0.0
H469 H 0.7472 0.27072 0.66078 0.0
H470 H 0.75741 0.25875 0.58157 0.0
H471 H 0.78324 0.2331 0.5247 0.0
C472 C 0.71989 0.72446 0.98909 0.0
C473 C 0.69793 0.70689 0.98166 0.0
C474 C 0.73378 0.73589 0.95213 0.0
C475 C 0.72609 0.72985 0.90681 0.0
C476 C 0.70382 0.71278 0.89946 0.0
C477 C 0.68996 0.70128 0.93643 0.0
C478 C 0.74027 0.74175 0.86661 0.0
C479 C 0.76607 0.74885 0.86776 0.0
C480 C 0.78048 0.76221 0.82905 0.0
C481 C 0.80362 0.77736 0.83894 0.0
C482 C 0.8177 0.79085 0.80423 0.0
C483 C 0.80915 0.78929 0.75849 0.0
H484 H 0.75485 0.74796 0.77377 0.0
C485 C 0.78634 0.77355 0.74822 0.0
C486 C 0.77212 0.76012 0.78313 0.0
H487 H 0.77934 0.77176 0.71328 0.0
H488 H 0.72638 0.72945 0.0235 0.0
H489 H 0.7502 0.74982 0.95939 0.0
H490 H 0.69727 0.70807 0.86496 0.0
H491 H 0.67302 0.68796 0.9295 0.0
H492 H 0.72896 0.74451 0.83536 0.0
H493 H 0.77724 0.74559 0.89908 0.0
H494 H 0.81067 0.77914 0.87387 0.0
H495 H 0.83528 0.80261 0.81342 0.0
loop_
_geom_bond_atom_site_label_1
_geom_bond_atom_site_label_2
_geom_bond_distance
_geom_bond_site_symmetry_2
_ccdc_geom_bond_type
Zn0 O3 2.031 . S
Zn0 O5 2.049 . S
Zn0 O10 2.067 . S
Zn1 O2 1.962 . S
Zn1 O4 1.986 1_554 S
Zn1 O6 1.996 . S
Zn1 O9 1.943 . S
O2 Zn1 1.962 . S
O2 C7 1.254 . S
O3 Zn0 2.031 . S
O3 C7 1.269 . S
O4 Zn1 1.986 1_556 S
O4 C11 1.262 . S
O5 Zn0 2.049 . S
O5 C13 1.260 . S
O6 Zn1 1.996 . S
O6 C13 1.257 . S
C7 O2 1.254 . S
C7 O3 1.269 . S
C8 O9 1.249 . S
C8 O10 1.270 . S
O9 Zn1 1.943 . S
O9 C8 1.249 . S
O10 Zn0 2.067 . S
O10 C8 1.270 . S
C11 O4 1.262 . S
C11 O12 1.232 . S
O12 C11 1.232 . S
C13 O5 1.260 . S
C13 O6 1.257 . S
Zn14 O17 2.035 . S
Zn14 O19 2.049 . S
Zn14 O24 2.067 . S
Zn15 O16 1.962 . S
Zn15 O18 1.986 . S
Zn15 O20 1.996 1_554 S
Zn15 O23 1.943 . S
O16 Zn15 1.962 . S
O16 C21 1.254 . S
O17 Zn14 2.035 . S
O17 C21 1.267 1_556 S
O18 Zn15 1.986 . S
O18 C25 1.262 . S
O19 Zn14 2.049 . S
O19 C27 1.260 . S
O20 Zn15 1.996 1_556 S
O20 C27 1.257 . S
C21 O16 1.254 . S
C21 O17 1.267 1_554 S
C22 O23 1.249 . S
C22 O24 1.270 1_554 S
O23 Zn15 1.943 . S
O23 C22 1.249 . S
O24 Zn14 2.067 . S
O24 C22 1.270 1_556 S
C25 O18 1.262 . S
C25 O26 1.232 . S
O26 C25 1.232 . S
C27 O19 1.260 . S
C27 O20 1.257 . S
Zn28 O31 2.031 . S
Zn28 O33 2.049 . S
Zn28 O38 2.067 . S
Zn29 O30 1.962 . S
Zn29 O32 1.986 1_554 S
Zn29 O34 1.996 . S
Zn29 O37 1.943 . S
O30 Zn29 1.962 . S
O30 C35 1.254 . S
O31 Zn28 2.031 . S
O31 C35 1.269 . S
O32 Zn29 1.986 1_556 S
O32 C39 1.262 . S
O33 Zn28 2.049 . S
O33 C41 1.260 . S
O34 Zn29 1.996 . S
O34 C41 1.257 . S
C35 O30 1.254 . S
C35 O31 1.269 . S
C36 O37 1.249 . S
C36 O38 1.270 . S
O37 Zn29 1.943 . S
O37 C36 1.249 . S
O38 Zn28 2.067 . S
O38 C36 1.270 . S
C39 O32 1.262 . S
C39 O40 1.232 . S
O40 C39 1.232 . S
C41 O33 1.260 . S
C41 O34 1.257 . S
Zn42 O45 2.035 . S
Zn42 O47 2.049 . S
Zn42 O52 2.067 . S
Zn43 O44 1.962 . S
Zn43 O46 1.986 . S
Zn43 O48 1.996 1_554 S
Zn43 O51 1.943 . S
O44 Zn43 1.962 . S
O44 C49 1.254 . S
O45 Zn42 2.035 . S
O45 C49 1.267 1_556 S
O46 Zn43 1.986 . S
O46 C53 1.262 . S
O47 Zn42 2.049 . S
O47 C55 1.260 . S
O48 Zn43 1.996 1_556 S
O48 C55 1.257 . S
C49 O44 1.254 . S
C49 O45 1.267 1_554 S
C50 O51 1.249 . S
C50 O52 1.270 1_554 S
O51 Zn43 1.943 . S
O51 C50 1.249 . S
O52 Zn42 2.067 . S
O52 C50 1.270 1_556 S
C53 O46 1.262 . S
C53 O54 1.232 . S
O54 C53 1.232 . S
C55 O47 1.260 . S
C55 O48 1.257 . S
Zn56 O59 2.031 . S
Zn56 O61 2.049 . S
Zn56 O66 2.067 . S
Zn57 O58 1.962 . S
Zn57 O60 1.986 . S
Zn57 O62 1.996 . S
Zn57 O65 1.943 . S
O58 Zn57 1.962 . S
O58 C63 1.254 . S
O59 Zn56 2.031 . S
O59 C63 1.269 . S
O60 Zn57 1.986 . S
O60 C67 1.262 . S
O61 Zn56 2.049 . S
O61 C69 1.260 . S
O62 Zn57 1.996 . S
O62 C69 1.257 . S
C63 O58 1.254 . S
C63 O59 1.269 . S
C64 O65 1.249 . S
C64 O66 1.270 . S
O65 Zn57 1.943 . S
O65 C64 1.249 . S
O66 Zn56 2.067 . S
O66 C64 1.270 . S
C67 O60 1.262 . S
C67 O68 1.232 . S
O68 C67 1.232 . S
C69 O61 1.260 . S
C69 O62 1.257 . S
Zn70 O73 2.031 . S
Zn70 O75 2.049 . S
Zn70 O80 2.067 . S
Zn71 O72 1.962 . S
Zn71 O74 1.986 . S
Zn71 O76 1.996 . S
Zn71 O79 1.943 . S
O72 Zn71 1.962 . S
O72 C77 1.254 . S
O73 Zn70 2.031 . S
O73 C77 1.269 . S
O74 Zn71 1.986 . S
O74 C81 1.262 . S
O75 Zn70 2.049 . S
O75 C83 1.260 . S
O76 Zn71 1.996 . S
O76 C83 1.257 . S
C77 O72 1.254 . S
C77 O73 1.269 . S
C78 O79 1.249 . S
C78 O80 1.270 . S
O79 Zn71 1.943 . S
O79 C78 1.249 . S
O80 Zn70 2.067 . S
O80 C78 1.270 . S
C81 O74 1.262 . S
C81 O82 1.232 . S
O82 C81 1.232 . S
C83 O75 1.260 . S
C83 O76 1.257 . S
Zn84 O87 2.031 . S
Zn84 O89 2.049 . S
Zn84 O94 2.067 . S
Zn85 O86 1.962 . S
Zn85 O88 1.986 . S
Zn85 O90 1.996 . S
Zn85 O93 1.943 . S
O86 Zn85 1.962 . S
O86 C91 1.254 . S
O87 Zn84 2.031 . S
O87 C91 1.269 . S
O88 Zn85 1.986 . S
O88 C95 1.262 . S
O89 Zn84 2.049 . S
O89 C97 1.260 . S
O90 Zn85 1.996 . S
O90 C97 1.257 . S
C91 O86 1.254 . S
C91 O87 1.269 . S
C92 O93 1.249 . S
C92 O94 1.270 . S
O93 Zn85 1.943 . S
O93 C92 1.249 . S
O94 Zn84 2.067 . S
O94 C92 1.270 . S
C95 O88 1.262 . S
C95 O96 1.232 . S
O96 C95 1.232 . S
C97 O89 1.260 . S
C97 O90 1.257 . S
Zn98 O101 2.031 . S
Zn98 O103 2.049 . S
Zn98 O108 2.067 . S
Zn99 O100 1.962 . S
Zn99 O102 1.986 . S
Zn99 O104 1.996 . S
Zn99 O107 1.943 . S
O100 Zn99 1.962 . S
O100 C105 1.254 . S
O101 Zn98 2.031 . S
O101 C105 1.269 . S
O102 Zn99 1.986 . S
O102 C109 1.262 . S
O103 Zn98 2.049 . S
O103 C111 1.260 . S
O104 Zn99 1.996 . S
O104 C111 1.257 . S
C105 O100 1.254 . S
C105 O101 1.269 . S
C106 O107 1.249 . S
C106 O108 1.270 . S
O107 Zn99 1.943 . S
O107 C106 1.249 . S
O108 Zn98 2.067 . S
O108 C106 1.270 . S
C109 O102 1.262 . S
C109 O110 1.232 . S
O110 C109 1.232 . S
C111 O103 1.260 . S
C111 O104 1.257 . S
C112 C113 1.386 . S
C112 C114 1.383 . S
C112 H128 0.951 . S
C113 C112 1.386 . S
C113 C117 1.383 1_554 S
C114 C112 1.383 . S
C114 C115 1.402 . S
C114 H129 0.951 . S
C115 C114 1.402 . S
C115 C116 1.375 1_554 S
C115 C118 1.481 1_554 S
C116 C115 1.375 1_556 S
C116 C117 1.367 . S
C116 H130 0.951 . S
C117 C113 1.383 1_556 S
C117 C116 1.367 . S
C117 H131 0.950 . S
C118 C115 1.481 1_556 S
C118 C119 1.297 1_556 S
C118 H132 0.950 . S
C119 C118 1.297 1_554 S
C119 C120 1.479 . S
C119 H133 0.950 . S
C120 C119 1.479 . S
C120 C121 1.375 . S
C120 C126 1.404 1_554 S
C121 C120 1.375 . S
C121 C122 1.369 . S
C121 H134 0.950 . S
C122 C121 1.369 . S
C122 C123 1.392 . S
C122 H135 0.951 . S
C123 C122 1.392 . S
C123 C125 1.384 1_554 S
H124 C126 0.949 . S
C125 C123 1.384 1_556 S
C125 C126 1.385 . S
C125 H127 0.950 . S
C126 C120 1.404 1_556 S
C126 H124 0.949 . S
C126 C125 1.385 . S
H127 C125 0.950 . S
H128 C112 0.951 . S
H129 C114 0.951 . S
H130 C116 0.951 . S
H131 C117 0.950 . S
H132 C118 0.950 . S
H133 C119 0.950 . S
H134 C121 0.950 . S
H135 C122 0.951 . S
C136 C137 1.386 . S
C136 C138 1.383 . S
C136 H152 0.951 . S
C137 C136 1.386 . S
C137 C141 1.383 1_554 S
C138 C136 1.383 . S
C138 C139 1.402 . S
C138 H153 0.951 . S
C139 C138 1.402 . S
C139 C140 1.375 1_554 S
C139 C142 1.481 . S
C140 C139 1.375 1_556 S
C140 C141 1.367 . S
C140 H154 0.951 . S
C141 C137 1.383 1_556 S
C141 C140 1.367 . S
C141 H155 0.950 . S
C142 C139 1.481 . S
C142 C143 1.297 . S
C142 H156 0.950 1_554 S
C143 C142 1.297 . S
C143 C144 1.479 . S
C143 H157 0.950 . S
C144 C143 1.479 . S
C144 C145 1.375 . S
C144 C150 1.404 . S
C145 C144 1.375 . S
C145 C146 1.369 . S
C145 H158 0.950 . S
C146 C145 1.369 . S
C146 C147 1.392 . S
C146 H159 0.951 . S
C147 C146 1.392 . S
C147 C149 1.384 . S
H148 C150 0.949 . S
C149 C147 1.384 . S
C149 C150 1.385 . S
C149 H151 0.950 1_554 S
C150 C144 1.404 . S
C150 H148 0.949 . S
C150 C149 1.385 . S
H151 C149 0.950 1_556 S
H152 C136 0.951 . S
H153 C138 0.951 . S
H154 C140 0.951 . S
H155 C141 0.950 . S
H156 C142 0.950 1_556 S
H157 C143 0.950 . S
H158 C145 0.950 . S
H159 C146 0.951 . S
C160 C161 1.386 . S
C160 C162 1.383 . S
C160 H176 0.951 . S
C161 C160 1.386 . S
C161 C165 1.383 . S
C162 C160 1.383 . S
C162 C163 1.402 . S
C162 H177 0.951 . S
C163 C162 1.402 . S
C163 C164 1.375 . S
C163 C166 1.481 . S
C164 C163 1.375 . S
C164 C165 1.367 . S
C164 H178 0.951 . S
C165 C161 1.383 . S
C165 C164 1.367 . S
C165 H179 0.950 . S
C166 C163 1.481 . S
C166 C167 1.297 . S
C166 H180 0.950 . S
C167 C166 1.297 . S
C167 C168 1.479 . S
C167 H181 0.950 . S
C168 C167 1.479 . S
C168 C169 1.375 . S
C168 C174 1.404 . S
C169 C168 1.375 . S
C169 C170 1.369 . S
C169 H182 0.950 . S
C170 C169 1.369 . S
C170 C171 1.392 . S
C170 H183 0.951 . S
C171 C170 1.392 . S
C171 C173 1.384 . S
H172 C174 0.949 . S
C173 C171 1.384 . S
C173 C174 1.385 . S
C173 H175 0.950 . S
C174 C168 1.404 . S
C174 H172 0.949 . S
C174 C173 1.385 . S
H175 C173 0.950 . S
H176 C160 0.951 . S
H177 C162 0.951 . S
H178 C164 0.951 . S
H179 C165 0.950 . S
H180 C166 0.950 . S
H181 C167 0.950 . S
H182 C169 0.950 . S
H183 C170 0.951 . S
C184 C185 1.386 . S
C184 C186 1.383 . S
C184 H200 0.951 . S
C185 C184 1.386 . S
C185 C189 1.383 . S
C186 C184 1.383 . S
C186 C187 1.402 . S
C186 H201 0.951 . S
C187 C186 1.402 . S
C187 C188 1.375 . S
C187 C190 1.481 . S
C188 C187 1.375 . S
C188 C189 1.367 . S
C188 H202 0.951 . S
C189 C185 1.383 . S
C189 C188 1.367 . S
C189 H203 0.950 . S
C190 C187 1.481 . S
C190 C191 1.297 . S
C190 H204 0.950 . S
C191 C190 1.297 . S
C191 C192 1.479 . S
C191 H205 0.950 . S
C192 C191 1.479 . S
C192 C193 1.375 . S
C192 C198 1.404 . S
C193 C192 1.375 . S
C193 C194 1.369 . S
C193 H206 0.950 . S
C194 C193 1.369 . S
C194 C195 1.392 . S
C194 H207 0.951 . S
C195 C194 1.392 . S
C195 C197 1.384 . S
H196 C198 0.949 . S
C197 C195 1.384 . S
C197 C198 1.385 . S
C197 H199 0.950 . S
C198 C192 1.404 . S
C198 H196 0.949 . S
C198 C197 1.385 . S
H199 C197 0.950 . S
H200 C184 0.951 . S
H201 C186 0.951 . S
H202 C188 0.951 . S
H203 C189 0.950 . S
H204 C190 0.950 . S
H205 C191 0.950 . S
H206 C193 0.950 . S
H207 C194 0.951 . S
C208 C209 1.386 . S
C208 C210 1.383 . S
C208 H224 0.951 . S
C209 C208 1.386 . S
C209 C213 1.383 . S
C210 C208 1.383 . S
C210 C211 1.402 . S
C210 H225 0.951 . S
C211 C210 1.402 . S
C211 C212 1.375 . S
C211 C214 1.481 . S
C212 C211 1.375 . S
C212 C213 1.367 . S
C212 H226 0.951 . S
C213 C209 1.383 . S
C213 C212 1.367 . S
C213 H227 0.950 . S
C214 C211 1.481 . S
C214 C215 1.297 1_565 S
C214 H228 0.950 . S
C215 C214 1.297 1_545 S
C215 C216 1.479 . S
C215 H229 0.950 . S
C216 C215 1.479 . S
C216 C217 1.375 . S
C216 C222 1.404 . S
C217 C216 1.375 . S
C217 C218 1.369 . S
C217 H230 0.950 . S
C218 C217 1.369 . S
C218 C219 1.392 . S
C218 H231 0.951 . S
C219 C218 1.392 . S
C219 C221 1.384 . S
H220 C222 0.949 . S
C221 C219 1.384 . S
C221 C222 1.385 . S
C221 H223 0.950 . S
C222 C216 1.404 . S
C222 H220 0.949 . S
C222 C221 1.385 . S
H223 C221 0.950 . S
H224 C208 0.951 . S
H225 C210 0.951 . S
H226 C212 0.951 . S
H227 C213 0.950 . S
H228 C214 0.950 . S
H229 C215 0.950 . S
H230 C217 0.950 . S
H231 C218 0.951 . S
C232 C233 1.386 . S
C232 C234 1.383 . S
C232 H248 0.951 . S
C233 C232 1.386 . S
C233 C237 1.383 . S
C234 C232 1.383 . S
C234 C235 1.402 . S
C234 H249 0.951 . S
C235 C234 1.402 . S
C235 C236 1.375 . S
C235 C238 1.481 . S
C236 C235 1.375 . S
C236 C237 1.367 . S
C236 H250 0.951 . S
C237 C233 1.383 . S
C237 C236 1.367 . S
C237 H251 0.950 . S
C238 C235 1.481 . S
C238 C239 1.297 1_455 S
C238 H252 0.950 . S
C239 C238 1.297 1_655 S
C239 C240 1.479 . S
C239 H253 0.950 . S
C240 C239 1.479 . S
C240 C241 1.375 . S
C240 C246 1.404 . S
C241 C240 1.375 . S
C241 C242 1.369 . S
C241 H254 0.950 . S
C242 C241 1.369 . S
C242 C243 1.392 . S
C242 H255 0.951 . S
C243 C242 1.392 . S
C243 C245 1.384 . S
H244 C246 0.949 . S
C245 C243 1.384 . S
C245 C246 1.385 . S
C245 H247 0.950 . S
C246 C240 1.404 . S
C246 H244 0.949 . S
C246 C245 1.385 . S
H247 C245 0.950 . S
H248 C232 0.951 . S
H249 C234 0.951 . S
H250 C236 0.951 . S
H251 C237 0.950 . S
H252 C238 0.950 . S
H253 C239 0.950 . S
H254 C241 0.950 . S
H255 C242 0.951 . S
C256 C257 1.386 . S
C256 C258 1.383 . S
C256 H272 0.951 . S
C257 C256 1.386 . S
C257 C261 1.383 . S
C258 C256 1.383 . S
C258 C259 1.402 . S
C258 H273 0.951 . S
C259 C258 1.402 . S
C259 C260 1.375 . S
C259 C262 1.481 . S
C260 C259 1.375 . S
C260 C261 1.367 . S
C260 H274 0.951 . S
C261 C257 1.383 . S
C261 C260 1.367 . S
C261 H275 0.950 . S
C262 C259 1.481 . S
C262 C263 1.297 1_545 S
C262 H276 0.950 . S
C263 C262 1.297 1_565 S
C263 C264 1.479 . S
C263 H277 0.950 . S
C264 C263 1.479 . S
C264 C265 1.375 . S
C264 C270 1.404 . S
C265 C264 1.375 . S
C265 C266 1.369 . S
C265 H278 0.950 . S
C266 C265 1.369 . S
C266 C267 1.392 . S
C266 H279 0.951 . S
C267 C266 1.392 . S
C267 C269 1.384 . S
H268 C270 0.949 . S
C269 C267 1.384 . S
C269 C270 1.385 . S
C269 H271 0.950 . S
C270 C264 1.404 . S
C270 H268 0.949 . S
C270 C269 1.385 . S
H271 C269 0.950 . S
H272 C256 0.951 . S
H273 C258 0.951 . S
H274 C260 0.951 . S
H275 C261 0.950 . S
H276 C262 0.950 . S
H277 C263 0.950 . S
H278 C265 0.950 . S
H279 C266 0.951 . S
C280 C281 1.386 . S
C280 C282 1.383 . S
C280 H296 0.951 . S
C281 C280 1.386 . S
C281 C285 1.383 . S
C282 C280 1.383 . S
C282 C283 1.402 . S
C282 H297 0.951 . S
C283 C282 1.402 . S
C283 C284 1.375 . S
C283 C286 1.481 . S
C284 C283 1.375 . S
C284 C285 1.367 . S
C284 H298 0.951 . S
C285 C281 1.383 . S
C285 C284 1.367 . S
C285 H299 0.950 . S
C286 C283 1.481 . S
C286 C287 1.297 1_655 S
C286 H300 0.950 . S
C287 C286 1.297 1_455 S
C287 C288 1.479 . S
C287 H301 0.950 . S
C288 C287 1.479 . S
C288 C289 1.375 . S
C288 C294 1.404 . S
C289 C288 1.375 . S
C289 C290 1.369 . S
C289 H302 0.950 . S
C290 C289 1.369 . S
C290 C291 1.392 . S
C290 H303 0.951 . S
C291 C290 1.392 . S
C291 C293 1.384 . S
H292 C294 0.949 . S
C293 C291 1.384 . S
C293 C294 1.385 . S
C293 H295 0.950 . S
C294 C288 1.404 . S
C294 H292 0.949 . S
C294 C293 1.385 . S
H295 C293 0.950 . S
H296 C280 0.951 . S
H297 C282 0.951 . S
H298 C284 0.951 . S
H299 C285 0.950 . S
H300 C286 0.950 . S
H301 C287 0.950 . S
H302 C289 0.950 . S
H303 C290 0.951 . S
C304 C305 1.386 . S
C304 C306 1.383 . S
C304 H320 0.951 . S
C305 C304 1.386 . S
C305 C309 1.383 . S
C306 C304 1.383 . S
C306 C307 1.402 . S
C306 H321 0.951 . S
C307 C306 1.402 . S
C307 C308 1.375 . S
C307 C310 1.481 . S
C308 C307 1.375 . S
C308 C309 1.367 . S
C308 H322 0.951 . S
C309 C305 1.383 . S
C309 C308 1.367 . S
C309 H323 0.950 . S
C310 C307 1.481 . S
C310 C311 1.297 . S
C310 H324 0.950 . S
C311 C310 1.297 . S
C311 C312 1.479 . S
C311 H325 0.950 . S
C312 C311 1.479 . S
C312 C313 1.375 . S
C312 C318 1.404 . S
C313 C312 1.375 . S
C313 C314 1.369 . S
C313 H326 0.950 . S
C314 C313 1.369 . S
C314 C315 1.392 . S
C314 H327 0.951 . S
C315 C314 1.392 . S
C315 C317 1.384 . S
H316 C318 0.949 . S
C317 C315 1.384 . S
C317 C318 1.385 . S
C317 H319 0.950 . S
C318 C312 1.404 . S
C318 H316 0.949 . S
C318 C317 1.385 . S
H319 C317 0.950 . S
H320 C304 0.951 . S
H321 C306 0.951 . S
H322 C308 0.951 . S
H323 C309 0.950 . S
H324 C310 0.950 . S
H325 C311 0.950 . S
H326 C313 0.950 . S
H327 C314 0.951 . S
C328 C329 1.386 . S
C328 C330 1.383 . S
C328 H344 0.951 . S
C329 C328 1.386 . S
C329 C333 1.383 . S
C330 C328 1.383 . S
C330 C331 1.402 . S
C330 H345 0.951 . S
C331 C330 1.402 . S
C331 C332 1.375 . S
C331 C334 1.481 . S
C332 C331 1.375 . S
C332 C333 1.367 . S
C332 H346 0.951 . S
C333 C329 1.383 . S
C333 C332 1.367 . S
C333 H347 0.950 . S
C334 C331 1.481 . S
C334 C335 1.297 . S
C334 H348 0.950 . S
C335 C334 1.297 . S
C335 C336 1.479 . S
C335 H349 0.950 . S
C336 C335 1.479 . S
C336 C337 1.375 . S
C336 C342 1.404 . S
C337 C336 1.375 . S
C337 C338 1.369 . S
C337 H350 0.950 . S
C338 C337 1.369 . S
C338 C339 1.392 . S
C338 H351 0.951 . S
C339 C338 1.392 . S
C339 C341 1.384 . S
H340 C342 0.949 . S
C341 C339 1.384 . S
C341 C342 1.385 . S
C341 H343 0.950 . S
C342 C336 1.404 . S
C342 H340 0.949 . S
C342 C341 1.385 . S
H343 C341 0.950 . S
H344 C328 0.951 . S
H345 C330 0.951 . S
H346 C332 0.951 . S
H347 C333 0.950 . S
H348 C334 0.950 . S
H349 C335 0.950 . S
H350 C337 0.950 . S
H351 C338 0.951 . S
C352 C353 1.386 . S
C352 C354 1.383 . S
C352 H368 0.951 . S
C353 C352 1.386 . S
C353 C357 1.383 . S
C354 C352 1.383 . S
C354 C355 1.402 . S
C354 H369 0.951 . S
C355 C354 1.402 . S
C355 C356 1.375 . S
C355 C358 1.481 . S
C356 C355 1.375 . S
C356 C357 1.367 . S
C356 H370 0.951 . S
C357 C353 1.383 . S
C357 C356 1.367 . S
C357 H371 0.950 . S
C358 C355 1.481 . S
C358 C359 1.297 . S
C358 H372 0.950 . S
C359 C358 1.297 . S
C359 C360 1.479 . S
C359 H373 0.950 . S
C360 C359 1.479 . S
C360 C361 1.375 . S
C360 C366 1.404 . S
C361 C360 1.375 . S
C361 C362 1.369 . S
C361 H374 0.950 . S
C362 C361 1.369 . S
C362 C363 1.392 . S
C362 H375 0.951 . S
C363 C362 1.392 . S
C363 C365 1.384 . S
H364 C366 0.949 . S
C365 C363 1.384 . S
C365 C366 1.385 . S
C365 H367 0.950 . S
C366 C360 1.404 . S
C366 H364 0.949 . S
C366 C365 1.385 . S
H367 C365 0.950 . S
H368 C352 0.951 . S
H369 C354 0.951 . S
H370 C356 0.951 . S
H371 C357 0.950 . S
H372 C358 0.950 . S
H373 C359 0.950 . S
H374 C361 0.950 . S
H375 C362 0.951 . S
C376 C377 1.386 . S
C376 C378 1.383 . S
C376 H392 0.951 . S
C377 C376 1.386 . S
C377 C381 1.383 . S
C378 C376 1.383 . S
C378 C379 1.402 . S
C378 H393 0.951 . S
C379 C378 1.402 . S
C379 C380 1.375 . S
C379 C382 1.481 . S
C380 C379 1.375 . S
C380 C381 1.367 . S
C380 H394 0.951 . S
C381 C377 1.383 . S
C381 C380 1.367 . S
C381 H395 0.950 . S
C382 C379 1.481 . S
C382 C383 1.297 . S
C382 H396 0.950 . S
C383 C382 1.297 . S
C383 C384 1.479 . S
C383 H397 0.950 . S
C384 C383 1.479 . S
C384 C385 1.375 . S
C384 C390 1.404 . S
C385 C384 1.375 . S
C385 C386 1.369 . S
C385 H398 0.950 . S
C386 C385 1.369 . S
C386 C387 1.392 . S
C386 H399 0.951 . S
C387 C386 1.392 . S
C387 C389 1.384 . S
H388 C390 0.949 . S
C389 C387 1.384 . S
C389 C390 1.385 . S
C389 H391 0.950 . S
C390 C384 1.404 . S
C390 H388 0.949 . S
C390 C389 1.385 . S
H391 C389 0.950 . S
H392 C376 0.951 . S
H393 C378 0.951 . S
H394 C380 0.951 . S
H395 C381 0.950 . S
H396 C382 0.950 . S
H397 C383 0.950 . S
H398 C385 0.950 . S
H399 C386 0.951 . S
C400 C401 1.386 . S
C400 C402 1.383 . S
C400 H416 0.951 . S
C401 C400 1.386 . S
C401 C405 1.383 . S
C402 C400 1.383 . S
C402 C403 1.402 . S
C402 H417 0.951 . S
C403 C402 1.402 . S
C403 C404 1.375 . S
C403 C406 1.481 . S
C404 C403 1.375 . S
C404 C405 1.367 . S
C404 H418 0.951 . S
C405 C401 1.383 . S
C405 C404 1.367 . S
C405 H419 0.950 . S
C406 C403 1.481 . S
C406 C407 1.297 . S
C406 H420 0.950 . S
C407 C406 1.297 . S
C407 C408 1.479 . S
C407 H421 0.950 . S
C408 C407 1.479 . S
C408 C409 1.375 . S
C408 C414 1.404 . S
C409 C408 1.375 . S
C409 C410 1.369 . S
C409 H422 0.950 . S
C410 C409 1.369 . S
C410 C411 1.392 . S
C410 H423 0.951 . S
C411 C410 1.392 . S
C411 C413 1.384 . S
H412 C414 0.949 . S
C413 C411 1.384 . S
C413 C414 1.385 . S
C413 H415 0.950 . S
C414 C408 1.404 . S
C414 H412 0.949 . S
C414 C413 1.385 . S
H415 C413 0.950 . S
H416 C400 0.951 . S
H417 C402 0.951 . S
H418 C404 0.951 . S
H419 C405 0.950 . S
H420 C406 0.950 . S
H421 C407 0.950 . S
H422 C409 0.950 . S
H423 C410 0.951 . S
C424 C425 1.386 . S
C424 C426 1.383 . S
C424 H440 0.951 . S
C425 C424 1.386 . S
C425 C429 1.383 . S
C426 C424 1.383 . S
C426 C427 1.402 . S
C426 H441 0.951 . S
C427 C426 1.402 . S
C427 C428 1.375 . S
C427 C430 1.481 . S
C428 C427 1.375 . S
C428 C429 1.367 . S
C428 H442 0.951 . S
C429 C425 1.383 . S
C429 C428 1.367 . S
C429 H443 0.950 . S
C430 C427 1.481 . S
C430 C431 1.297 . S
C430 H444 0.950 . S
C431 C430 1.297 . S
C431 C432 1.479 . S
C431 H445 0.950 . S
C432 C431 1.479 . S
C432 C433 1.375 . S
C432 C438 1.404 . S
C433 C432 1.375 . S
C433 C434 1.369 . S
C433 H446 0.950 . S
C434 C433 1.369 . S
C434 C435 1.392 . S
C434 H447 0.951 . S
C435 C434 1.392 . S
C435 C437 1.384 . S
H436 C438 0.949 . S
C437 C435 1.384 . S
C437 C438 1.385 . S
C437 H439 0.950 . S
C438 C432 1.404 . S
C438 H436 0.949 . S
C438 C437 1.385 . S
H439 C437 0.950 . S
H440 C424 0.951 . S
H441 C426 0.951 . S
H442 C428 0.951 . S
H443 C429 0.950 . S
H444 C430 0.950 . S
H445 C431 0.950 . S
H446 C433 0.950 . S
H447 C434 0.951 . S
C448 C449 1.386 . S
C448 C450 1.383 . S
C448 H464 0.951 . S
C449 C448 1.386 . S
C449 C453 1.383 . S
C450 C448 1.383 . S
C450 C451 1.402 . S
C450 H465 0.951 . S
C451 C450 1.402 . S
C451 C452 1.375 . S
C451 C454 1.481 . S
C452 C451 1.375 . S
C452 C453 1.367 . S
C452 H466 0.951 . S
C453 C449 1.383 . S
C453 C452 1.367 . S
C453 H467 0.950 . S
C454 C451 1.481 . S
C454 C455 1.297 . S
C454 H468 0.950 . S
C455 C454 1.297 . S
C455 C456 1.479 . S
C455 H469 0.950 . S
C456 C455 1.479 . S
C456 C457 1.375 . S
C456 C462 1.404 . S
C457 C456 1.375 . S
C457 C458 1.369 . S
C457 H470 0.950 . S
C458 C457 1.369 . S
C458 C459 1.392 . S
C458 H471 0.951 . S
C459 C458 1.392 . S
C459 C461 1.384 . S
H460 C462 0.949 . S
C461 C459 1.384 . S
C461 C462 1.385 . S
C461 H463 0.950 . S
C462 C456 1.404 . S
C462 H460 0.949 . S
C462 C461 1.385 . S
H463 C461 0.950 . S
H464 C448 0.951 . S
H465 C450 0.951 . S
H466 C452 0.951 . S
H467 C453 0.950 . S
H468 C454 0.950 . S
H469 C455 0.950 . S
H470 C457 0.950 . S
H471 C458 0.951 . S
C472 C473 1.386 . S
C472 C474 1.383 . S
C472 H488 0.951 . S
C473 C472 1.386 . S
C473 C477 1.383 . S
C474 C472 1.383 . S
C474 C475 1.402 . S
C474 H489 0.951 . S
C475 C474 1.402 . S
C475 C476 1.375 . S
C475 C478 1.481 . S
C476 C475 1.375 . S
C476 C477 1.367 . S
C476 H490 0.951 . S
C477 C473 1.383 . S
C477 C476 1.367 . S
C477 H491 0.950 . S
C478 C475 1.481 . S
C478 C479 1.297 . S
C478 H492 0.950 . S
C479 C478 1.297 . S
C479 C480 1.479 . S
C479 H493 0.950 . S
C480 C479 1.479 . S
C480 C481 1.375 . S
C480 C486 1.404 . S
C481 C480 1.375 . S
C481 C482 1.369 . S
C481 H494 0.950 . S
C482 C481 1.369 . S
C482 C483 1.392 . S
C482 H495 0.951 . S
C483 C482 1.392 . S
C483 C485 1.384 . S
H484 C486 0.949 . S
C485 C483 1.384 . S
C485 C486 1.385 . S
C485 H487 0.950 . S
C486 C480 1.404 . S
C486 H484 0.949 . S
C486 C485 1.385 . S
H487 C485 0.950 . S
H488 C472 0.951 . S
H489 C474 0.951 . S
H490 C476 0.951 . S
H491 C477 0.950 . S
H492 C478 0.950 . S
H493 C479 0.950 . S
H494 C481 0.950 . S
H495 C482 0.951 . S
C113 C8 1.468 . S
C123 C50 1.417 . S
C137 C7 1.460 . S
C147 C21 1.472 . S
C161 C22 1.458 . S
C171 C36 1.404 . S
C185 C49 1.461 . S
C195 C35 1.423 . S
C209 C64 1.427 . S
C219 C106 1.462 . S
C233 C77 1.446 . S
C243 C63 1.469 . S
C257 C92 1.427 . S
C267 C78 1.466 . S
C281 C105 1.444 . S
C291 C91 1.422 . S
C305 C95 1.453 . S
C315 C13 1.329 . S
C329 C25 1.455 . S
C339 C111 1.279 . S
C353 C67 1.450 . S
C363 C41 1.356 . S
C377 C83 1.334 . S
C387 C53 1.435 . S
C401 C81 1.439 . S
C411 C55 1.366 . S
C425 C11 1.455 . S
C435 C97 1.303 . S
C449 C27 1.389 . S
C459 C109 1.424 . S
C473 C39 1.446 . S
C483 C69 1.303 . S
