# Generated by pormake.
# Topology sst, (4)-cn, num edge types: 1
# Building blocks:
#     Node 0, Type 0, BuildingBlock: MUDLON_clean_sbu_0, # of connection points: 4
#     Node 1, Type 0, BuildingBlock: MUDLON_clean_sbu_0, # of connection points: 4
#     Node 2, Type 0, BuildingBlock: MUDLON_clean_sbu_0, # of connection points: 4
#     Node 3, Type 0, BuildingBlock: MUDLON_clean_sbu_0, # of connection points: 4
#     Node 4, Type 0, BuildingBlock: MUDLON_clean_sbu_0, # of connection points: 4
#     Node 5, Type 0, BuildingBlock: MUDLON_clean_sbu_0, # of connection points: 4
#     Node 6, Type 0, BuildingBlock: MUDLON_clean_sbu_0, # of connection points: 4
#     Node 7, Type 0, BuildingBlock: MUDLON_clean_sbu_0, # of connection points: 4
#     Node 8, Type 0, BuildingBlock: MUDLON_clean_sbu_0, # of connection points: 4
#     Node 9, Type 0, BuildingBlock: MUDLON_clean_sbu_0, # of connection points: 4
#     Node 10, Type 0, BuildingBlock: MUDLON_clean_sbu_0, # of connection points: 4
#     Node 11, Type 0, BuildingBlock: MUDLON_clean_sbu_0, # of connection points: 4
#     Node 12, Type 0, BuildingBlock: MUDLON_clean_sbu_0, # of connection points: 4
#     Node 13, Type 0, BuildingBlock: MUDLON_clean_sbu_0, # of connection points: 4
#     Node 14, Type 0, BuildingBlock: MUDLON_clean_sbu_0, # of connection points: 4
#     Node 15, Type 0, BuildingBlock: MUDLON_clean_sbu_0, # of connection points: 4
#     Node 16, Type 0, BuildingBlock: MUDLON_clean_sbu_0, # of connection points: 4
#     Node 17, Type 0, BuildingBlock: MUDLON_clean_sbu_0, # of connection points: 4
#     Node 18, Type 0, BuildingBlock: MUDLON_clean_sbu_0, # of connection points: 4
#     Node 19, Type 0, BuildingBlock: MUDLON_clean_sbu_0, # of connection points: 4
#     Node 20, Type 0, BuildingBlock: MUDLON_clean_sbu_0, # of connection points: 4
#     Node 21, Type 0, BuildingBlock: MUDLON_clean_sbu_0, # of connection points: 4
#     Node 22, Type 0, BuildingBlock: MUDLON_clean_sbu_0, # of connection points: 4
#     Node 23, Type 0, BuildingBlock: MUDLON_clean_sbu_0, # of connection points: 4
#     Node 24, Type 0, BuildingBlock: MUDLON_clean_sbu_0, # of connection points: 4
#     Node 25, Type 0, BuildingBlock: MUDLON_clean_sbu_0, # of connection points: 4
#     Node 26, Type 0, BuildingBlock: MUDLON_clean_sbu_0, # of connection points: 4
#     Node 27, Type 0, BuildingBlock: MUDLON_clean_sbu_0, # of connection points: 4
#     Node 28, Type 0, BuildingBlock: MUDLON_clean_sbu_0, # of connection points: 4
#     Node 29, Type 0, BuildingBlock: MUDLON_clean_sbu_0, # of connection points: 4
#     Node 30, Type 0, BuildingBlock: MUDLON_clean_sbu_0, # of connection points: 4
#     Node 31, Type 0, BuildingBlock: MUDLON_clean_sbu_0, # of connection points: 4
#     Node 32, Type 0, BuildingBlock: MUDLON_clean_sbu_0, # of connection points: 4
#     Node 33, Type 0, BuildingBlock: MUDLON_clean_sbu_0, # of connection points: 4
#     Node 34, Type 0, BuildingBlock: MUDLON_clean_sbu_0, # of connection points: 4
#     Node 35, Type 0, BuildingBlock: MUDLON_clean_sbu_0, # of connection points: 4
#     Node 36, Type 0, BuildingBlock: MUDLON_clean_sbu_0, # of connection points: 4
#     Node 37, Type 0, BuildingBlock: MUDLON_clean_sbu_0, # of connection points: 4
#     Node 38, Type 0, BuildingBlock: MUDLON_clean_sbu_0, # of connection points: 4
#     Node 39, Type 0, BuildingBlock: MUDLON_clean_sbu_0, # of connection points: 4
#     Node 40, Type 0, BuildingBlock: MUDLON_clean_sbu_0, # of connection points: 4
#     Node 41, Type 0, BuildingBlock: MUDLON_clean_sbu_0, # of connection points: 4
#     Node 42, Type 0, BuildingBlock: MUDLON_clean_sbu_0, # of connection points: 4
#     Node 43, Type 0, BuildingBlock: MUDLON_clean_sbu_0, # of connection points: 4
#     Node 44, Type 0, BuildingBlock: MUDLON_clean_sbu_0, # of connection points: 4
#     Node 45, Type 0, BuildingBlock: MUDLON_clean_sbu_0, # of connection points: 4
#     Node 46, Type 0, BuildingBlock: MUDLON_clean_sbu_0, # of connection points: 4
#     Node 47, Type 0, BuildingBlock: MUDLON_clean_sbu_0, # of connection points: 4
#     Edge 48, Type (0, 0), BuildingBlock: CIFDUS_clean_linker_0, # of connection points: 2
#     Edge 49, Type (0, 0), BuildingBlock: CIFDUS_clean_linker_0, # of connection points: 2
#     Edge 50, Type (0, 0), BuildingBlock: CIFDUS_clean_linker_0, # of connection points: 2
#     Edge 51, Type (0, 0), BuildingBlock: CIFDUS_clean_linker_0, # of connection points: 2
#     Edge 52, Type (0, 0), BuildingBlock: CIFDUS_clean_linker_0, # of connection points: 2
#     Edge 53, Type (0, 0), BuildingBlock: CIFDUS_clean_linker_0, # of connection points: 2
#     Edge 54, Type (0, 0), BuildingBlock: CIFDUS_clean_linker_0, # of connection points: 2
#     Edge 55, Type (0, 0), BuildingBlock: CIFDUS_clean_linker_0, # of connection points: 2
#     Edge 56, Type (0, 0), BuildingBlock: CIFDUS_clean_linker_0, # of connection points: 2
#     Edge 57, Type (0, 0), BuildingBlock: CIFDUS_clean_linker_0, # of connection points: 2
#     Edge 58, Type (0, 0), BuildingBlock: CIFDUS_clean_linker_0, # of connection points: 2
#     Edge 59, Type (0, 0), BuildingBlock: CIFDUS_clean_linker_0, # of connection points: 2
#     Edge 60, Type (0, 0), BuildingBlock: CIFDUS_clean_linker_0, # of connection points: 2
#     Edge 61, Type (0, 0), BuildingBlock: CIFDUS_clean_linker_0, # of connection points: 2
#     Edge 62, Type (0, 0), BuildingBlock: CIFDUS_clean_linker_0, # of connection points: 2
#     Edge 63, Type (0, 0), BuildingBlock: CIFDUS_clean_linker_0, # of connection points: 2
#     Edge 64, Type (0, 0), BuildingBlock: CIFDUS_clean_linker_0, # of connection points: 2
#     Edge 65, Type (0, 0), BuildingBlock: CIFDUS_clean_linker_0, # of connection points: 2
#     Edge 66, Type (0, 0), BuildingBlock: CIFDUS_clean_linker_0, # of connection points: 2
#     Edge 67, Type (0, 0), BuildingBlock: CIFDUS_clean_linker_0, # of connection points: 2
#     Edge 68, Type (0, 0), BuildingBlock: CIFDUS_clean_linker_0, # of connection points: 2
#     Edge 69, Type (0, 0), BuildingBlock: CIFDUS_clean_linker_0, # of connection points: 2
#     Edge 70, Type (0, 0), BuildingBlock: CIFDUS_clean_linker_0, # of connection points: 2
#     Edge 71, Type (0, 0), BuildingBlock: CIFDUS_clean_linker_0, # of connection points: 2
#     Edge 72, Type (0, 0), BuildingBlock: CIFDUS_clean_linker_0, # of connection points: 2
#     Edge 73, Type (0, 0), BuildingBlock: CIFDUS_clean_linker_0, # of connection points: 2
#     Edge 74, Type (0, 0), BuildingBlock: CIFDUS_clean_linker_0, # of connection points: 2
#     Edge 75, Type (0, 0), BuildingBlock: CIFDUS_clean_linker_0, # of connection points: 2
#     Edge 76, Type (0, 0), BuildingBlock: CIFDUS_clean_linker_0, # of connection points: 2
#     Edge 77, Type (0, 0), BuildingBlock: CIFDUS_clean_linker_0, # of connection points: 2
#     Edge 78, Type (0, 0), BuildingBlock: CIFDUS_clean_linker_0, # of connection points: 2
#     Edge 79, Type (0, 0), BuildingBlock: CIFDUS_clean_linker_0, # of connection points: 2
#     Edge 80, Type (0, 0), BuildingBlock: CIFDUS_clean_linker_0, # of connection points: 2
#     Edge 81, Type (0, 0), BuildingBlock: CIFDUS_clean_linker_0, # of connection points: 2
#     Edge 82, Type (0, 0), BuildingBlock: CIFDUS_clean_linker_0, # of connection points: 2
#     Edge 83, Type (0, 0), BuildingBlock: CIFDUS_clean_linker_0, # of connection points: 2
#     Edge 84, Type (0, 0), BuildingBlock: CIFDUS_clean_linker_0, # of connection points: 2
#     Edge 85, Type (0, 0), BuildingBlock: CIFDUS_clean_linker_0, # of connection points: 2
#     Edge 86, Type (0, 0), BuildingBlock: CIFDUS_clean_linker_0, # of connection points: 2
#     Edge 87, Type (0, 0), BuildingBlock: CIFDUS_clean_linker_0, # of connection points: 2
#     Edge 88, Type (0, 0), BuildingBlock: CIFDUS_clean_linker_0, # of connection points: 2
#     Edge 89, Type (0, 0), BuildingBlock: CIFDUS_clean_linker_0, # of connection points: 2
#     Edge 90, Type (0, 0), BuildingBlock: CIFDUS_clean_linker_0, # of connection points: 2
#     Edge 91, Type (0, 0), BuildingBlock: CIFDUS_clean_linker_0, # of connection points: 2
#     Edge 92, Type (0, 0), BuildingBlock: CIFDUS_clean_linker_0, # of connection points: 2
#     Edge 93, Type (0, 0), BuildingBlock: CIFDUS_clean_linker_0, # of connection points: 2
#     Edge 94, Type (0, 0), BuildingBlock: CIFDUS_clean_linker_0, # of connection points: 2
#     Edge 95, Type (0, 0), BuildingBlock: CIFDUS_clean_linker_0, # of connection points: 2
#     Edge 96, Type (0, 0), BuildingBlock: CIFDUS_clean_linker_0, # of connection points: 2
#     Edge 97, Type (0, 0), BuildingBlock: CIFDUS_clean_linker_0, # of connection points: 2
#     Edge 98, Type (0, 0), BuildingBlock: CIFDUS_clean_linker_0, # of connection points: 2
#     Edge 99, Type (0, 0), BuildingBlock: CIFDUS_clean_linker_0, # of connection points: 2
#     Edge 100, Type (0, 0), BuildingBlock: CIFDUS_clean_linker_0, # of connection points: 2
#     Edge 101, Type (0, 0), BuildingBlock: CIFDUS_clean_linker_0, # of connection points: 2
#     Edge 102, Type (0, 0), BuildingBlock: CIFDUS_clean_linker_0, # of connection points: 2
#     Edge 103, Type (0, 0), BuildingBlock: CIFDUS_clean_linker_0, # of connection points: 2
#     Edge 104, Type (0, 0), BuildingBlock: CIFDUS_clean_linker_0, # of connection points: 2
#     Edge 105, Type (0, 0), BuildingBlock: CIFDUS_clean_linker_0, # of connection points: 2
#     Edge 106, Type (0, 0), BuildingBlock: CIFDUS_clean_linker_0, # of connection points: 2
#     Edge 107, Type (0, 0), BuildingBlock: CIFDUS_clean_linker_0, # of connection points: 2
#     Edge 108, Type (0, 0), BuildingBlock: CIFDUS_clean_linker_0, # of connection points: 2
#     Edge 109, Type (0, 0), BuildingBlock: CIFDUS_clean_linker_0, # of connection points: 2
#     Edge 110, Type (0, 0), BuildingBlock: CIFDUS_clean_linker_0, # of connection points: 2
#     Edge 111, Type (0, 0), BuildingBlock: CIFDUS_clean_linker_0, # of connection points: 2
#     Edge 112, Type (0, 0), BuildingBlock: CIFDUS_clean_linker_0, # of connection points: 2
#     Edge 113, Type (0, 0), BuildingBlock: CIFDUS_clean_linker_0, # of connection points: 2
#     Edge 114, Type (0, 0), BuildingBlock: CIFDUS_clean_linker_0, # of connection points: 2
#     Edge 115, Type (0, 0), BuildingBlock: CIFDUS_clean_linker_0, # of connection points: 2
#     Edge 116, Type (0, 0), BuildingBlock: CIFDUS_clean_linker_0, # of connection points: 2
#     Edge 117, Type (0, 0), BuildingBlock: CIFDUS_clean_linker_0, # of connection points: 2
#     Edge 118, Type (0, 0), BuildingBlock: CIFDUS_clean_linker_0, # of connection points: 2
#     Edge 119, Type (0, 0), BuildingBlock: CIFDUS_clean_linker_0, # of connection points: 2
#     Edge 120, Type (0, 0), BuildingBlock: CIFDUS_clean_linker_0, # of connection points: 2
#     Edge 121, Type (0, 0), BuildingBlock: CIFDUS_clean_linker_0, # of connection points: 2
#     Edge 122, Type (0, 0), BuildingBlock: CIFDUS_clean_linker_0, # of connection points: 2
#     Edge 123, Type (0, 0), BuildingBlock: CIFDUS_clean_linker_0, # of connection points: 2
#     Edge 124, Type (0, 0), BuildingBlock: CIFDUS_clean_linker_0, # of connection points: 2
#     Edge 125, Type (0, 0), BuildingBlock: CIFDUS_clean_linker_0, # of connection points: 2
#     Edge 126, Type (0, 0), BuildingBlock: CIFDUS_clean_linker_0, # of connection points: 2
#     Edge 127, Type (0, 0), BuildingBlock: CIFDUS_clean_linker_0, # of connection points: 2
#     Edge 128, Type (0, 0), BuildingBlock: CIFDUS_clean_linker_0, # of connection points: 2
#     Edge 129, Type (0, 0), BuildingBlock: CIFDUS_clean_linker_0, # of connection points: 2
#     Edge 130, Type (0, 0), BuildingBlock: CIFDUS_clean_linker_0, # of connection points: 2
#     Edge 131, Type (0, 0), BuildingBlock: CIFDUS_clean_linker_0, # of connection points: 2
#     Edge 132, Type (0, 0), BuildingBlock: CIFDUS_clean_linker_0, # of connection points: 2
#     Edge 133, Type (0, 0), BuildingBlock: CIFDUS_clean_linker_0, # of connection points: 2
#     Edge 134, Type (0, 0), BuildingBlock: CIFDUS_clean_linker_0, # of connection points: 2
#     Edge 135, Type (0, 0), BuildingBlock: CIFDUS_clean_linker_0, # of connection points: 2
#     Edge 136, Type (0, 0), BuildingBlock: CIFDUS_clean_linker_0, # of connection points: 2
#     Edge 137, Type (0, 0), BuildingBlock: CIFDUS_clean_linker_0, # of connection points: 2
#     Edge 138, Type (0, 0), BuildingBlock: CIFDUS_clean_linker_0, # of connection points: 2
#     Edge 139, Type (0, 0), BuildingBlock: CIFDUS_clean_linker_0, # of connection points: 2
#     Edge 140, Type (0, 0), BuildingBlock: CIFDUS_clean_linker_0, # of connection points: 2
#     Edge 141, Type (0, 0), BuildingBlock: CIFDUS_clean_linker_0, # of connection points: 2
#     Edge 142, Type (0, 0), BuildingBlock: CIFDUS_clean_linker_0, # of connection points: 2
#     Edge 143, Type (0, 0), BuildingBlock: CIFDUS_clean_linker_0, # of connection points: 2
# Relax obj value: 0.001
# Max RMSD: 0.020
# Mean RMSD: 0.015
data_MOF--net-sst--node1-MUDLON_clean_sbu_0--edge1-CIFDUS_clean_linker_0
_symmetry_space_group_name_H-M    P1
_symmetry_Int_Tables_number       1
_symmetry_cell_setting            triclinic
loop_
_symmetry_equiv_pos_as_xyz
'x, y, z'
_cell_length_a     53.105915
_cell_length_b     53.237474
_cell_length_c     53.391519
_cell_angle_alpha  91.212582
_cell_angle_beta   91.060805
_cell_angle_gamma 91.497524
loop_
_atom_site_label
_atom_site_type_symbol
_atom_site_fract_x
_atom_site_fract_y
_atom_site_fract_z
_atom_type_partial_charge
Mg0 Mg 0.12183 0.15896 0.36644 0.0
C1 C 0.11538 0.21206 0.38717 0.0
O2 O 0.09529 0.21002 0.37248 0.0
C3 C 0.12031 0.10351 0.3753 0.0
O4 O 0.12598 0.10416 0.35147 0.0
C5 C 0.0719 0.14774 0.33723 0.0
O6 O 0.07951 0.12448 0.33691 0.0
O7 O 0.08653 0.16509 0.34621 0.0
O8 O 0.12932 0.19307 0.38954 0.0
O9 O 0.15541 0.15502 0.34399 0.0
C10 C 0.17367 0.14411 0.35463 0.0
O11 O 0.17053 0.13534 0.37721 0.0
O12 O 0.11741 0.12419 0.38726 0.0
Mg13 Mg 0.88583 0.15999 0.384 0.0
C14 C 0.90605 0.21095 0.40517 0.0
O15 O 0.92445 0.20616 0.38983 0.0
C16 C 0.87786 0.10427 0.38977 0.0
O17 O 0.86521 0.10864 0.36901 0.0
C18 C 0.83292 0.17694 0.37119 0.0
O19 O 0.83905 0.19378 0.38873 0.0
O20 O 0.84921 0.16106 0.36455 0.0
O21 O 0.88874 0.1942 0.40802 0.0
O22 O 0.9179 0.16161 0.35912 0.0
C23 C 0.92391 0.14334 0.3449 0.0
O24 O 0.90868 0.12357 0.34274 0.0
O25 O 0.88795 0.12296 0.40196 0.0
Mg26 Mg 0.88987 0.91012 0.44266 0.0
C27 C 0.88817 0.95493 0.40574 0.0
O28 O 0.88288 0.93713 0.38888 0.0
C29 C 0.91492 0.86261 0.42188 0.0
O30 O 0.93138 0.86877 0.43974 0.0
C31 C 0.83293 0.91393 0.44118 0.0
O32 O 0.83928 0.9297 0.42366 0.0
O33 O 0.8504 0.90353 0.45367 0.0
O34 O 0.89263 0.94875 0.42825 0.0
O35 O 0.91881 0.90712 0.47231 0.0
C36 C 0.93544 0.92446 0.47661 0.0
O37 O 0.93215 0.94655 0.46673 0.0
O38 O 0.89702 0.87759 0.41728 0.0
Mg39 Mg 0.12608 0.90948 0.43564 0.0
C40 C 0.1194 0.96219 0.42317 0.0
O41 O 0.1218 0.96231 0.44771 0.0
C42 C 0.11474 0.85404 0.43303 0.0
O43 O 0.11657 0.85814 0.45736 0.0
C44 C 0.07771 0.90435 0.46403 0.0
O45 O 0.074 0.88772 0.44576 0.0
O46 O 0.09893 0.91611 0.46584 0.0
O47 O 0.11986 0.94118 0.41131 0.0
O48 O 0.16707 0.9124 0.44292 0.0
C49 C 0.1813 0.89854 0.4298 0.0
O50 O 0.17081 0.88113 0.41493 0.0
O51 O 0.11779 0.87244 0.41842 0.0
Mg52 Mg 0.12763 0.92496 0.61101 0.0
C53 C 0.14193 0.97173 0.64509 0.0
O54 O 0.16505 0.96373 0.64344 0.0
C55 C 0.14325 0.87657 0.63509 0.0
O56 O 0.16504 0.88404 0.62626 0.0
C57 C 0.07911 0.90832 0.58138 0.0
O58 O 0.08287 0.88717 0.59297 0.0
O59 O 0.09557 0.92615 0.58402 0.0
O60 O 0.1239 0.95885 0.63468 0.0
O61 O 0.16578 0.92485 0.59589 0.0
C62 C 0.17753 0.94424 0.58824 0.0
O63 O 0.16539 0.96533 0.5863 0.0
O64 O 0.12425 0.89047 0.63235 0.0
Mg65 Mg 0.14893 0.1708 0.66669 0.0
C66 C 0.14151 0.22375 0.67901 0.0
O67 O 0.12918 0.21935 0.65775 0.0
C68 C 0.13781 0.11726 0.68191 0.0
O69 O 0.11483 0.12468 0.67732 0.0
C70 C 0.10176 0.16976 0.63091 0.0
O71 O 0.11784 0.17065 0.61252 0.0
O72 O 0.10995 0.16961 0.65338 0.0
O73 O 0.15216 0.20542 0.68954 0.0
O74 O 0.17806 0.17499 0.63858 0.0
C75 C 0.1985 0.18605 0.64612 0.0
O76 O 0.19972 0.19558 0.66901 0.0
O77 O 0.15585 0.13356 0.68201 0.0
Mg78 Mg 0.89743 0.1669 0.62458 0.0
C79 C 0.87381 0.21523 0.60775 0.0
O80 O 0.85331 0.20091 0.60834 0.0
C81 C 0.90405 0.11515 0.61261 0.0
O82 O 0.90876 0.11884 0.63668 0.0
C83 C 0.84579 0.14704 0.63288 0.0
O84 O 0.85066 0.13983 0.60985 0.0
O85 O 0.86292 0.1592 0.64555 0.0
O86 O 0.89505 0.20523 0.61106 0.0
O87 O 0.93459 0.16706 0.64254 0.0
C88 C 0.95112 0.16924 0.62565 0.0
O89 O 0.94332 0.17143 0.60231 0.0
O90 O 0.89922 0.13419 0.59944 0.0
Mg91 Mg 0.88206 0.91164 0.58589 0.0
C92 C 0.88339 0.96771 0.587 0.0
O93 O 0.8733 0.96277 0.56472 0.0
C94 C 0.86928 0.86332 0.61065 0.0
O95 O 0.85308 0.86289 0.59176 0.0
C96 C 0.82745 0.91689 0.59017 0.0
O97 O 0.83744 0.92587 0.61132 0.0
O98 O 0.84234 0.90975 0.57304 0.0
O99 O 0.88891 0.94949 0.60098 0.0
O100 O 0.91492 0.90244 0.56281 0.0
C101 C 0.93223 0.91885 0.55858 0.0
O102 O 0.92773 0.94262 0.56312 0.0
O103 O 0.88373 0.88263 0.61408 0.0
Mg104 Mg 0.39365 0.14038 0.10046 0.0
C105 C 0.42626 0.17748 0.13121 0.0
O106 O 0.42104 0.16162 0.14904 0.0
C107 C 0.38684 0.08552 0.10484 0.0
O108 O 0.36398 0.09336 0.1003 0.0
C109 C 0.40358 0.14322 0.04668 0.0
O110 O 0.42613 0.14221 0.05711 0.0
O111 O 0.38447 0.14304 0.06079 0.0
O112 O 0.42052 0.17111 0.1087 0.0
O113 O 0.36419 0.14621 0.12777 0.0
C114 C 0.3615 0.16736 0.13888 0.0
O115 O 0.37174 0.18763 0.1293 0.0
O116 O 0.40496 0.10174 0.10622 0.0
Mg117 Mg 0.91334 0.39898 0.17186 0.0
C118 C 0.96681 0.40573 0.17192 0.0
O119 O 0.9614 0.38158 0.16922 0.0
C120 C 0.85974 0.39867 0.1774 0.0
O121 O 0.86751 0.37615 0.18278 0.0
C122 C 0.91487 0.39464 0.11835 0.0
O123 O 0.91392 0.41868 0.12428 0.0
O124 O 0.91488 0.3789 0.13603 0.0
O125 O 0.94861 0.42083 0.17349 0.0
O126 O 0.91371 0.38043 0.20791 0.0
C127 C 0.90628 0.39589 0.22459 0.0
O128 O 0.90068 0.4187 0.21781 0.0
O129 O 0.87597 0.41523 0.17086 0.0
Mg130 Mg 0.65387 0.87357 0.14814 0.0
C131 C 0.67558 0.92407 0.1306 0.0
O132 O 0.66893 0.91481 0.10838 0.0
C133 C 0.66014 0.82091 0.1596 0.0
O134 O 0.63599 0.82515 0.16168 0.0
C135 C 0.64923 0.85633 0.09576 0.0
O136 O 0.6708 0.84812 0.10425 0.0
O137 O 0.63564 0.86886 0.1107 0.0
O138 O 0.6739 0.91 0.14954 0.0
O139 O 0.63186 0.8745 0.18262 0.0
C140 C 0.64576 0.86976 0.20163 0.0
O141 O 0.66983 0.86608 0.19819 0.0
O142 O 0.67478 0.83904 0.15349 0.0
Mg143 Mg 0.14859 0.63102 0.17129 0.0
C144 C 0.19489 0.60544 0.15404 0.0
O145 O 0.18216 0.60694 0.13281 0.0
C146 C 0.09751 0.60474 0.17803 0.0
O147 O 0.10355 0.60919 0.20171 0.0
C148 C 0.14141 0.65611 0.12089 0.0
O149 O 0.11851 0.64645 0.12267 0.0
O150 O 0.15647 0.65512 0.13965 0.0
O151 O 0.18404 0.61131 0.17429 0.0
O152 O 0.14249 0.65005 0.20722 0.0
C153 C 0.15399 0.64246 0.22669 0.0
O154 O 0.17083 0.625 0.22413 0.0
O155 O 0.11375 0.60972 0.16146 0.0
Mg156 Mg 0.40312 0.87902 0.86297 0.0
C157 C 0.42626 0.93012 0.88241 0.0
O158 O 0.42278 0.92118 0.90482 0.0
C159 C 0.41109 0.82548 0.8467 0.0
O160 O 0.38857 0.82959 0.8373 0.0
C161 C 0.3917 0.89369 0.81218 0.0
O162 O 0.41594 0.89806 0.816 0.0
O163 O 0.37904 0.88367 0.82963 0.0
O164 O 0.42269 0.91585 0.86319 0.0
O165 O 0.38672 0.87666 0.90021 0.0
C166 C 0.40224 0.87051 0.91742 0.0
O167 O 0.42522 0.86477 0.91106 0.0
O168 O 0.42326 0.84373 0.85763 0.0
Mg169 Mg 0.15367 0.40397 0.92823 0.0
C170 C 0.20798 0.39543 0.93285 0.0
O171 O 0.20618 0.41996 0.93488 0.0
C172 C 0.10922 0.37816 0.90047 0.0
O173 O 0.12345 0.38409 0.88152 0.0
C174 C 0.1728 0.41552 0.87703 0.0
O175 O 0.18258 0.39359 0.88128 0.0
O176 O 0.15941 0.42559 0.89395 0.0
O177 O 0.18778 0.38201 0.93077 0.0
O178 O 0.15065 0.42641 0.9633 0.0
C179 C 0.16472 0.42193 0.98223 0.0
O180 O 0.18144 0.40431 0.98034 0.0
O181 O 0.11776 0.38264 0.92263 0.0
Mg182 Mg 0.6429 0.10912 0.86926 0.0
C183 C 0.64921 0.16413 0.87381 0.0
O184 O 0.62768 0.16097 0.86148 0.0
C185 C 0.67345 0.06376 0.88189 0.0
O186 O 0.66757 0.071 0.90467 0.0
C187 C 0.63937 0.12663 0.81768 0.0
O188 O 0.66247 0.13284 0.82512 0.0
O189 O 0.62501 0.11521 0.83283 0.0
O190 O 0.66126 0.14481 0.88011 0.0
O191 O 0.61932 0.09828 0.90058 0.0
C192 C 0.61201 0.11432 0.91671 0.0
O193 O 0.61486 0.13834 0.91208 0.0
O194 O 0.66754 0.07755 0.86363 0.0
Mg195 Mg 0.92114 0.62512 0.89279 0.0
C196 C 0.97316 0.60135 0.89159 0.0
O197 O 0.97257 0.60923 0.86848 0.0
C198 C 0.8711 0.59907 0.90272 0.0
O199 O 0.87973 0.60159 0.92589 0.0
C200 C 0.92902 0.62859 0.83897 0.0
O201 O 0.92518 0.60449 0.84277 0.0
O202 O 0.92887 0.64377 0.85772 0.0
O203 O 0.95372 0.6037 0.90497 0.0
O204 O 0.9123 0.64905 0.92491 0.0
C205 C 0.92802 0.65319 0.94291 0.0
O206 O 0.95154 0.64684 0.94003 0.0
O207 O 0.88556 0.60487 0.88491 0.0
Mg208 Mg 0.17167 0.4298 0.17966 0.0
C209 C 0.21054 0.39438 0.15967 0.0
O210 O 0.19593 0.39564 0.13963 0.0
C211 C 0.11638 0.42688 0.18253 0.0
O212 O 0.12228 0.4501 0.18967 0.0
C213 C 0.15974 0.45105 0.12796 0.0
O214 O 0.13656 0.44498 0.134 0.0
O215 O 0.1772 0.45 0.14462 0.0
O216 O 0.20372 0.40497 0.17992 0.0
O217 O 0.17143 0.4488 0.21649 0.0
C218 C 0.18619 0.4419 0.23402 0.0
O219 O 0.20488 0.42728 0.22837 0.0
O220 O 0.13411 0.41218 0.17692 0.0
Mg221 Mg 0.16491 0.63915 0.92029 0.0
C222 C 0.17385 0.67617 0.87745 0.0
O223 O 0.19629 0.67919 0.888 0.0
C224 C 0.17121 0.65259 0.9761 0.0
O225 O 0.19102 0.63853 0.97381 0.0
C226 C 0.22283 0.63738 0.92334 0.0
O227 O 0.22046 0.65979 0.93367 0.0
O228 O 0.20304 0.62458 0.91685 0.0
O229 O 0.15742 0.66242 0.88795 0.0
O230 O 0.13526 0.61052 0.91388 0.0
C231 C 0.117 0.60824 0.92886 0.0
O232 O 0.11853 0.62006 0.9507 0.0
O233 O 0.15788 0.65704 0.95672 0.0
Mg234 Mg 0.41092 0.12929 0.84487 0.0
C235 C 0.39129 0.17937 0.82892 0.0
O236 O 0.40569 0.17434 0.80983 0.0
C237 C 0.41577 0.07683 0.85744 0.0
O238 O 0.43726 0.08815 0.86393 0.0
C239 C 0.41916 0.11725 0.79195 0.0
O240 O 0.39947 0.10332 0.79789 0.0
O241 O 0.43073 0.12998 0.80934 0.0
O242 O 0.38653 0.16201 0.84439 0.0
O243 O 0.42814 0.13661 0.88185 0.0
C244 C 0.41006 0.13629 0.89728 0.0
O245 O 0.38708 0.1321 0.88832 0.0
O246 O 0.3982 0.08999 0.84832 0.0
Mg247 Mg 0.90805 0.371 0.9158 0.0
C248 C 0.96002 0.35825 0.89729 0.0
O249 O 0.95214 0.3715 0.87834 0.0
C250 C 0.8565 0.35978 0.9337 0.0
O251 O 0.86241 0.38158 0.94449 0.0
C252 C 0.88713 0.3839 0.86488 0.0
O253 O 0.87389 0.36346 0.86977 0.0
O254 O 0.9028 0.39267 0.88148 0.0
O255 O 0.94446 0.35249 0.91425 0.0
O256 O 0.91252 0.39094 0.95179 0.0
C257 C 0.91561 0.37541 0.96938 0.0
O258 O 0.91657 0.35137 0.96343 0.0
O259 O 0.87291 0.34903 0.92032 0.0
Mg260 Mg 0.65221 0.86716 0.89522 0.0
C261 C 0.67831 0.91584 0.87933 0.0
O262 O 0.67022 0.90791 0.85708 0.0
C263 C 0.66034 0.81351 0.90604 0.0
O264 O 0.63707 0.81675 0.91313 0.0
C265 C 0.64218 0.85517 0.84053 0.0
O266 O 0.66214 0.84188 0.84527 0.0
O267 O 0.63231 0.86728 0.8586 0.0
O268 O 0.67547 0.90151 0.89791 0.0
O269 O 0.63094 0.86906 0.93023 0.0
C270 C 0.645 0.86378 0.94891 0.0
O271 O 0.66856 0.85823 0.94484 0.0
O272 O 0.67258 0.83208 0.89715 0.0
Mg273 Mg 0.90729 0.63302 0.14203 0.0
C274 C 0.94815 0.60298 0.1676 0.0
O275 O 0.93353 0.60659 0.18685 0.0
C276 C 0.85191 0.62872 0.1327 0.0
O277 O 0.8569 0.65276 0.12961 0.0
C278 C 0.90285 0.64713 0.08769 0.0
O279 O 0.88552 0.62916 0.08856 0.0
O280 O 0.91475 0.65386 0.10777 0.0
O281 O 0.94051 0.60966 0.14606 0.0
O282 O 0.90709 0.65521 0.17708 0.0
C283 C 0.89305 0.64748 0.19461 0.0
O284 O 0.87762 0.62818 0.19 0.0
O285 O 0.87004 0.61441 0.13806 0.0
Mg286 Mg 0.38742 0.88229 0.12021 0.0
C287 C 0.39106 0.88143 0.06673 0.0
O288 O 0.36718 0.88275 0.07255 0.0
C289 C 0.39054 0.89652 0.17372 0.0
O290 O 0.36817 0.90325 0.16588 0.0
C291 C 0.3873 0.93573 0.11681 0.0
O292 O 0.41067 0.92854 0.11947 0.0
O293 O 0.36978 0.91881 0.11629 0.0
O294 O 0.40738 0.88127 0.0846 0.0
O295 O 0.36768 0.84526 0.11923 0.0
C296 C 0.38141 0.82784 0.11056 0.0
O297 O 0.4042 0.83393 0.10328 0.0
O298 O 0.40509 0.88628 0.15789 0.0
Mg299 Mg 0.63981 0.12219 0.11364 0.0
C300 C 0.64401 0.17701 0.10567 0.0
O301 O 0.62183 0.1704 0.09602 0.0
C302 C 0.656 0.07001 0.12451 0.0
O303 O 0.63568 0.07197 0.13797 0.0
C304 C 0.6162 0.10315 0.06381 0.0
O305 O 0.62898 0.08308 0.06906 0.0
O306 O 0.61564 0.12102 0.08 0.0
O307 O 0.65795 0.15985 0.11418 0.0
O308 O 0.62068 0.12181 0.14944 0.0
C309 C 0.63528 0.11928 0.16838 0.0
O310 O 0.65947 0.11666 0.16468 0.0
O311 O 0.66343 0.08879 0.1119 0.0
Mg312 Mg 0.67517 0.61378 0.90324 0.0
C313 C 0.68764 0.66776 0.91162 0.0
O314 O 0.70119 0.66191 0.89211 0.0
C315 C 0.66543 0.56142 0.91 0.0
O316 O 0.66556 0.56528 0.88577 0.0
C317 C 0.62227 0.61648 0.89391 0.0
O318 O 0.62651 0.61725 0.91825 0.0
O319 O 0.64117 0.61479 0.8796 0.0
O320 O 0.67552 0.65026 0.92244 0.0
O321 O 0.71315 0.60721 0.89008 0.0
C322 C 0.72515 0.61101 0.87008 0.0
O323 O 0.7137 0.62095 0.8508 0.0
O324 O 0.66865 0.58029 0.92488 0.0
Mg325 Mg 0.41744 0.62312 0.86586 0.0
C326 C 0.42711 0.67724 0.85606 0.0
O327 O 0.43995 0.67341 0.87683 0.0
C328 C 0.42454 0.56791 0.85088 0.0
O329 O 0.44614 0.57244 0.86267 0.0
C330 C 0.36552 0.61599 0.88552 0.0
O331 O 0.36484 0.60191 0.86501 0.0
O332 O 0.38629 0.627 0.89211 0.0
O333 O 0.41575 0.65845 0.84517 0.0
O334 O 0.45553 0.62242 0.8822 0.0
C335 C 0.47374 0.62362 0.86698 0.0
O336 O 0.46857 0.62537 0.84293 0.0
O337 O 0.40988 0.58614 0.84716 0.0
Mg338 Mg 0.40681 0.3721 0.89417 0.0
C339 C 0.3984 0.42154 0.8666 0.0
O340 O 0.37575 0.41885 0.87581 0.0
C341 C 0.39664 0.31682 0.89192 0.0
O342 O 0.39372 0.32286 0.91567 0.0
C343 C 0.35142 0.3683 0.90559 0.0
O344 O 0.35227 0.35234 0.88655 0.0
O345 O 0.37172 0.37936 0.9134 0.0
O346 O 0.41399 0.40393 0.86939 0.0
O347 O 0.43966 0.37438 0.9197 0.0
C348 C 0.4557 0.35714 0.92194 0.0
O349 O 0.45155 0.33552 0.91008 0.0
O350 O 0.40296 0.33418 0.87699 0.0
Mg351 Mg 0.65366 0.3587 0.93489 0.0
C352 C 0.65934 0.41382 0.93352 0.0
O353 O 0.66492 0.40887 0.95695 0.0
C354 C 0.65923 0.30698 0.91822 0.0
O355 O 0.66652 0.30758 0.94188 0.0
C356 C 0.60159 0.36959 0.9543 0.0
O357 O 0.60802 0.39218 0.9469 0.0
O358 O 0.61825 0.35278 0.95469 0.0
O359 O 0.65359 0.39562 0.91845 0.0
O360 O 0.69098 0.3562 0.95277 0.0
C361 C 0.70776 0.35143 0.93665 0.0
O362 O 0.70081 0.34874 0.91299 0.0
O363 O 0.65213 0.32723 0.90837 0.0
Mg364 Mg 0.65857 0.36671 0.172 0.0
C365 C 0.65646 0.42147 0.16855 0.0
O366 O 0.66573 0.41756 0.19108 0.0
C367 C 0.67609 0.316 0.15743 0.0
O368 O 0.68827 0.32112 0.17864 0.0
C369 C 0.60975 0.37488 0.20109 0.0
O370 O 0.61682 0.39865 0.20044 0.0
O371 O 0.62499 0.35823 0.19384 0.0
O372 O 0.65124 0.40251 0.15422 0.0
O373 O 0.69551 0.37282 0.19013 0.0
C374 C 0.71116 0.38409 0.17611 0.0
O375 O 0.70351 0.39087 0.15378 0.0
O376 O 0.66216 0.33282 0.14825 0.0
Mg377 Mg 0.65089 0.62308 0.14523 0.0
C378 C 0.67225 0.67329 0.16394 0.0
O379 O 0.69028 0.66661 0.14888 0.0
C380 C 0.64332 0.5689 0.14904 0.0
O381 O 0.63867 0.57359 0.12536 0.0
C382 C 0.59597 0.62554 0.14245 0.0
O383 O 0.60164 0.62271 0.16627 0.0
O384 O 0.61392 0.6263 0.12688 0.0
O385 O 0.65445 0.6575 0.16818 0.0
O386 O 0.68542 0.62192 0.12326 0.0
C387 C 0.70309 0.60878 0.13219 0.0
O388 O 0.6983 0.59457 0.15143 0.0
O389 O 0.64858 0.58731 0.16402 0.0
Mg390 Mg 0.39205 0.62498 0.11656 0.0
C391 C 0.37528 0.67805 0.11121 0.0
O392 O 0.36384 0.67107 0.13163 0.0
C393 C 0.41064 0.5741 0.09871 0.0
O394 O 0.42946 0.58092 0.11383 0.0
C395 C 0.33967 0.61257 0.11787 0.0
O396 O 0.34693 0.61346 0.0945 0.0
O397 O 0.3561 0.61763 0.13511 0.0
O398 O 0.38795 0.66184 0.09918 0.0
O399 O 0.42837 0.62813 0.1368 0.0
C400 C 0.44643 0.63418 0.12245 0.0
O401 O 0.44098 0.63907 0.09897 0.0
O402 O 0.39384 0.59005 0.09374 0.0
Mg403 Mg 0.41412 0.38115 0.14891 0.0
C404 C 0.40281 0.42732 0.11696 0.0
O405 O 0.37934 0.42114 0.12189 0.0
C406 C 0.4159 0.32585 0.14763 0.0
O407 O 0.41344 0.33172 0.17148 0.0
C408 C 0.35845 0.37371 0.15218 0.0
O409 O 0.36359 0.36146 0.13135 0.0
O410 O 0.37659 0.38412 0.16484 0.0
O411 O 0.4203 0.41304 0.12419 0.0
O412 O 0.44576 0.38424 0.17599 0.0
C413 C 0.46464 0.37067 0.17145 0.0
O414 O 0.46372 0.35553 0.15172 0.0
O415 O 0.41613 0.34351 0.13188 0.0
Mg416 Mg 0.8932 0.66868 0.65222 0.0
C417 C 0.88595 0.72241 0.65103 0.0
O418 O 0.9103 0.7196 0.65435 0.0
C419 C 0.88979 0.61447 0.65382 0.0
O420 O 0.91361 0.62035 0.65018 0.0
C421 C 0.89543 0.66408 0.59804 0.0
O422 O 0.87157 0.66044 0.60339 0.0
O423 O 0.91129 0.66768 0.61605 0.0
O424 O 0.87162 0.70283 0.65002 0.0
O425 O 0.91666 0.67099 0.68623 0.0
C426 C 0.90873 0.68409 0.70455 0.0
O427 O 0.88866 0.6976 0.70121 0.0
O428 O 0.87415 0.63219 0.65514 0.0
Mg429 Mg 0.38004 0.93137 0.61651 0.0
C430 C 0.43366 0.91974 0.62171 0.0
O431 O 0.43234 0.94375 0.62764 0.0
C432 C 0.32665 0.93405 0.60367 0.0
O433 O 0.33552 0.9573 0.60546 0.0
C434 C 0.3996 0.95792 0.57013 0.0
O435 O 0.4178 0.94186 0.57235 0.0
O436 O 0.38392 0.95999 0.58778 0.0
O437 O 0.41336 0.90775 0.61519 0.0
O438 O 0.37936 0.94269 0.65604 0.0
C439 C 0.36687 0.92801 0.67007 0.0
O440 O 0.35338 0.90951 0.65952 0.0
O441 O 0.34183 0.91627 0.60758 0.0
Mg442 Mg 0.17687 0.4239 0.67727 0.0
C443 C 0.19352 0.40213 0.62755 0.0
O444 O 0.18304 0.38203 0.6372 0.0
C445 C 0.18205 0.43642 0.7308 0.0
O446 O 0.16012 0.44507 0.72387 0.0
C447 C 0.17355 0.47813 0.67354 0.0
O448 O 0.19776 0.4736 0.67388 0.0
O449 O 0.15796 0.45955 0.67433 0.0
O450 O 0.19674 0.42173 0.6415 0.0
O451 O 0.15366 0.3894 0.67947 0.0
C452 C 0.1633 0.37179 0.69202 0.0
O453 O 0.18489 0.37628 0.70389 0.0
O454 O 0.19596 0.4269 0.71401 0.0
Mg455 Mg 0.64623 0.15008 0.62171 0.0
C456 C 0.69731 0.1398 0.64047 0.0
O457 O 0.69099 0.16015 0.65292 0.0
C458 C 0.59397 0.15194 0.61095 0.0
O459 O 0.60331 0.17496 0.61381 0.0
C460 C 0.65265 0.15284 0.56934 0.0
O461 O 0.65222 0.12916 0.57583 0.0
O462 O 0.65171 0.16965 0.58668 0.0
O463 O 0.68083 0.12892 0.62597 0.0
O464 O 0.64132 0.1678 0.65857 0.0
C465 C 0.62851 0.15374 0.67292 0.0
O466 O 0.61783 0.1331 0.66334 0.0
O467 O 0.60894 0.13373 0.61315 0.0
Mg468 Mg 0.90245 0.41463 0.42588 0.0
C469 C 0.92815 0.46416 0.44355 0.0
O470 O 0.91893 0.45649 0.46482 0.0
C471 C 0.90207 0.3592 0.42815 0.0
O472 O 0.87844 0.36496 0.42417 0.0
C473 C 0.90041 0.39915 0.37267 0.0
O474 O 0.9214 0.38961 0.38111 0.0
O475 O 0.88679 0.41129 0.38791 0.0
O476 O 0.92627 0.4494 0.42445 0.0
O477 O 0.87514 0.42153 0.4556 0.0
C478 C 0.87265 0.40672 0.47389 0.0
O479 O 0.88538 0.38593 0.47406 0.0
O480 O 0.91847 0.3771 0.43087 0.0
Mg481 Mg 0.63374 0.86532 0.40485 0.0
C482 C 0.68612 0.87803 0.4254 0.0
O483 O 0.682 0.85563 0.43455 0.0
C484 C 0.57881 0.8738 0.39585 0.0
O485 O 0.58204 0.85223 0.38407 0.0
C486 C 0.6285 0.86598 0.34919 0.0
O487 O 0.61874 0.88737 0.35619 0.0
O488 O 0.6366 0.85137 0.36603 0.0
O489 O 0.6686 0.88791 0.41251 0.0
O490 O 0.63211 0.83865 0.43565 0.0
C491 C 0.61181 0.82822 0.44304 0.0
O492 O 0.59135 0.82956 0.42904 0.0
O493 O 0.5979 0.88506 0.40628 0.0
Mg494 Mg 0.10455 0.65332 0.4235 0.0
C495 C 0.10004 0.70705 0.41276 0.0
O496 O 0.12208 0.70135 0.40381 0.0
C497 C 0.08533 0.60171 0.43781 0.0
O498 O 0.09683 0.6088 0.45885 0.0
C499 C 0.11668 0.65504 0.37023 0.0
O500 O 0.09267 0.66031 0.37117 0.0
O501 O 0.1285 0.651 0.39069 0.0
O502 O 0.08623 0.68958 0.42168 0.0
O503 O 0.12299 0.65547 0.46037 0.0
C504 C 0.10839 0.6614 0.47814 0.0
O505 O 0.08468 0.66566 0.47266 0.0
O506 O 0.08282 0.61777 0.42062 0.0
Mg507 Mg 0.37382 0.1621 0.34008 0.0
C508 C 0.42796 0.16264 0.34334 0.0
O509 O 0.42111 0.18619 0.34349 0.0
C510 C 0.32026 0.15181 0.33281 0.0
O511 O 0.32427 0.17502 0.32571 0.0
C512 C 0.36631 0.16629 0.28687 0.0
O513 O 0.36324 0.14249 0.29245 0.0
O514 O 0.37205 0.182 0.30456 0.0
O515 O 0.41083 0.14545 0.34112 0.0
O516 O 0.3731 0.17983 0.37727 0.0
C517 C 0.37312 0.16231 0.39324 0.0
O518 O 0.37302 0.13893 0.38479 0.0
O519 O 0.33906 0.13921 0.33998 0.0
Mg520 Mg 0.63291 0.86864 0.6356 0.0
C521 C 0.61594 0.83532 0.59008 0.0
O522 O 0.59358 0.84341 0.59574 0.0
C523 C 0.6255 0.86671 0.69179 0.0
O524 O 0.61402 0.88758 0.68656 0.0
C525 C 0.68021 0.88954 0.61027 0.0
O526 O 0.67032 0.87624 0.59141 0.0
O527 O 0.66786 0.89137 0.63054 0.0
O528 O 0.63449 0.84065 0.60487 0.0
O529 O 0.59733 0.88874 0.63167 0.0
C530 C 0.57678 0.87731 0.63712 0.0
O531 O 0.57774 0.85433 0.64555 0.0
O532 O 0.63493 0.85401 0.67388 0.0
Mg533 Mg 0.63152 0.15625 0.36597 0.0
C534 C 0.61877 0.13856 0.31438 0.0
O535 O 0.60671 0.15969 0.31658 0.0
C536 C 0.63838 0.15926 0.42018 0.0
O537 O 0.6377 0.18267 0.41293 0.0
C538 C 0.68418 0.16593 0.35344 0.0
O539 O 0.67934 0.14246 0.34651 0.0
O540 O 0.66618 0.17887 0.36186 0.0
O541 O 0.63059 0.13051 0.33346 0.0
O542 O 0.59434 0.17277 0.3652 0.0
C543 C 0.57698 0.15582 0.36614 0.0
O544 O 0.58358 0.13238 0.36874 0.0
O545 O 0.63595 0.14174 0.40358 0.0
Mg546 Mg 0.9202 0.65981 0.39666 0.0
C547 C 0.92117 0.71495 0.39271 0.0
O548 O 0.8981 0.70734 0.38652 0.0
C549 C 0.94249 0.61091 0.41748 0.0
O550 O 0.93806 0.62218 0.43897 0.0
C551 C 0.91168 0.66585 0.34242 0.0
O552 O 0.93439 0.6755 0.3468 0.0
O553 O 0.89927 0.65752 0.36087 0.0
O554 O 0.93739 0.69825 0.39742 0.0
O555 O 0.89948 0.66046 0.43165 0.0
C556 C 0.91308 0.66944 0.44982 0.0
O557 O 0.93591 0.67792 0.44504 0.0
O558 O 0.93985 0.62328 0.39736 0.0
Mg559 Mg 0.38013 0.91912 0.3777 0.0
C560 C 0.43364 0.90982 0.38791 0.0
O561 O 0.43225 0.93439 0.38716 0.0
C562 C 0.3251 0.91774 0.3904 0.0
O563 O 0.33033 0.94198 0.38967 0.0
C564 C 0.39463 0.91463 0.32294 0.0
O565 O 0.40836 0.89705 0.33272 0.0
O566 O 0.38127 0.92802 0.33747 0.0
O567 O 0.4134 0.89656 0.38479 0.0
O568 O 0.38641 0.94936 0.40597 0.0
C569 C 0.37761 0.94442 0.42742 0.0
O570 O 0.36443 0.92349 0.43008 0.0
O571 O 0.34254 0.9024 0.38547 0.0
Mg572 Mg 0.14799 0.41246 0.43159 0.0
C573 C 0.15713 0.41906 0.37729 0.0
O574 O 0.13408 0.4095 0.37749 0.0
C575 C 0.1612 0.39334 0.48218 0.0
O576 O 0.14041 0.3806 0.476 0.0
C577 C 0.11217 0.45713 0.42335 0.0
O578 O 0.11453 0.45147 0.39949 0.0
O579 O 0.12255 0.44341 0.43965 0.0
O580 O 0.16925 0.42209 0.39802 0.0
O581 O 0.12962 0.3758 0.42307 0.0
C582 C 0.14376 0.3568 0.42315 0.0
O583 O 0.16786 0.36038 0.42846 0.0
O584 O 0.17023 0.40882 0.46659 0.0
Mg585 Mg 0.39111 0.15869 0.59678 0.0
C586 C 0.38421 0.16322 0.54294 0.0
O587 O 0.3874 0.1863 0.55189 0.0
C588 C 0.4056 0.14445 0.64692 0.0
O589 O 0.41349 0.16782 0.64428 0.0
C590 C 0.44455 0.15603 0.59244 0.0
O591 O 0.43498 0.13321 0.58867 0.0
O592 O 0.42946 0.17397 0.59585 0.0
O593 O 0.38452 0.14518 0.55829 0.0
O594 O 0.35915 0.18198 0.60602 0.0
C595 C 0.33811 0.17308 0.59744 0.0
O596 O 0.33817 0.15294 0.58279 0.0
O597 O 0.39402 0.13338 0.62846 0.0
Mg598 Mg 0.86676 0.41135 0.66362 0.0
C599 C 0.87202 0.46604 0.67017 0.0
O600 O 0.84941 0.46041 0.67833 0.0
C601 C 0.87058 0.35981 0.64721 0.0
O602 O 0.84664 0.36424 0.65056 0.0
C603 C 0.84102 0.42737 0.61542 0.0
O604 O 0.85396 0.44827 0.62039 0.0
O605 O 0.83907 0.4111 0.6325 0.0
O606 O 0.88582 0.44817 0.66286 0.0
O607 O 0.85548 0.40554 0.70254 0.0
C608 C 0.87153 0.41341 0.7192 0.0
O609 O 0.89211 0.4251 0.71186 0.0
O610 O 0.88672 0.37739 0.65257 0.0
Mg611 Mg 0.14454 0.67925 0.67821 0.0
C612 C 0.135 0.67255 0.62598 0.0
O613 O 0.15948 0.67326 0.63021 0.0
C614 C 0.14725 0.69023 0.73154 0.0
O615 O 0.16823 0.69922 0.7221 0.0
C616 C 0.14511 0.73288 0.6747 0.0
O617 O 0.12238 0.72564 0.68132 0.0
O618 O 0.16169 0.71618 0.67213 0.0
O619 O 0.12058 0.67461 0.64473 0.0
O620 O 0.16602 0.645 0.67681 0.0
C621 C 0.15084 0.62607 0.67739 0.0
O622 O 0.12663 0.63019 0.67904 0.0
O623 O 0.13063 0.68045 0.71651 0.0
H624 H 0.11435 1.00861 0.44413 0.0
H625 H 0.12102 0.97025 0.37261 0.0
H626 H 0.12127 1.01063 0.35154 0.0
H627 H 0.12122 0.05682 0.35366 0.0
H628 H 0.11445 0.09501 0.42528 0.0
H629 H 0.1126 0.05457 0.44609 0.0
C630 C 0.11577 1.00901 0.42391 0.0
C631 C 0.11782 0.98638 0.40999 0.0
C632 C 0.11598 0.03226 0.41196 0.0
C633 C 0.11944 0.98733 0.38379 0.0
C634 C 0.11965 1.01043 0.37174 0.0
C635 C 0.11928 0.05635 0.37382 0.0
C636 C 0.11814 0.07899 0.3879 0.0
C637 C 0.11821 0.03302 0.38567 0.0
C638 C 0.11543 0.07793 0.41398 0.0
C639 C 0.11439 0.0548 0.4259 0.0
H640 H 0.03475 0.11491 0.32059 0.0
H641 H 0.04821 0.19233 0.34391 0.0
H642 H 1.00297 0.19873 0.34517 0.0
H643 H 0.95993 0.18076 0.34559 0.0
H644 H 0.94648 0.10318 0.32291 0.0
H645 H 0.99124 0.09863 0.31512 0.0
C646 C 0.02782 0.13332 0.32549 0.0
C647 C 0.04492 0.15293 0.33263 0.0
C648 C 1.00172 0.13681 0.32656 0.0
C649 C 0.03554 0.17677 0.33858 0.0
C650 C 1.00962 0.18045 0.33942 0.0
C651 C 0.96671 0.16298 0.33851 0.0
C652 C 0.94989 0.14223 0.33532 0.0
C653 C 0.99257 0.16035 0.33439 0.0
C654 C 0.95898 0.11943 0.32578 0.0
C655 C 0.98464 0.11675 0.32141 0.0
H656 H 0.89889 0.99709 0.43527 0.0
H657 H 0.87309 0.97373 0.36099 0.0
H658 H 0.86745 1.01739 0.35 0.0
H659 H 0.86897 0.0621 0.36131 0.0
H660 H 0.89581 0.08663 0.43478 0.0
H661 H 0.90184 0.04273 0.4462 0.0
C662 C 0.89215 1.00155 0.41664 0.0
C663 C 0.88638 0.98193 0.39904 0.0
C664 C 0.88898 0.02696 0.4103 0.0
C665 C 0.87773 0.98823 0.37497 0.0
C666 C 0.87441 1.01328 0.36865 0.0
C667 C 0.87606 0.05795 0.3799 0.0
C668 C 0.88169 0.07776 0.39723 0.0
C669 C 0.87979 0.03277 0.38618 0.0
C670 C 0.89122 0.07184 0.42108 0.0
C671 C 0.89468 0.0467 0.4276 0.0
H672 H 0.97676 0.95564 0.48447 0.0
H673 H 0.95201 0.87804 0.48942 0.0
H674 H 0.99566 0.86511 0.4912 0.0
H675 H 0.03992 0.87506 0.48143 0.0
H676 H 0.065 0.95237 0.47645 0.0
H677 H 0.02235 0.96621 0.48514 0.0
C678 C 0.98087 0.93595 0.48658 0.0
C679 C 0.96103 0.91777 0.48576 0.0
C680 C 1.00615 0.92854 0.48722 0.0
C681 C 0.9668 0.89243 0.48928 0.0
C682 C 0.99183 0.88496 0.49021 0.0
C683 C 0.03619 0.89496 0.48314 0.0
C684 C 0.0554 0.91267 0.47788 0.0
C685 C 1.01156 0.90271 0.48766 0.0
C686 C 0.05051 0.93838 0.4804 0.0
C687 C 0.02603 0.94628 0.48506 0.0
H688 H 0.17651 1.00771 0.66159 0.0
H689 H 0.09642 0.99273 0.65363 0.0
H690 H 0.0882 0.03567 0.66729 0.0
H691 H 0.1036 0.07846 0.67754 0.0
H692 H 0.18359 0.09434 0.68405 0.0
H693 H 0.1919 0.05004 0.67541 0.0
C694 C 0.15723 1.01371 0.66316 0.0
C695 C 0.13713 0.99696 0.65631 0.0
C696 C 0.15259 0.03868 0.67071 0.0
C697 C 0.11229 1.00517 0.65854 0.0
C698 C 0.10755 0.02979 0.66636 0.0
C699 C 0.12288 0.07224 0.67747 0.0
C700 C 0.14293 0.08988 0.68124 0.0
C701 C 0.12754 0.04687 0.6719 0.0
C702 C 0.16776 0.08129 0.68117 0.0
C703 C 0.17254 0.05594 0.67607 0.0
H704 H 0.98885 0.17118 0.59236 0.0
H705 H 0.97513 0.16649 0.67159 0.0
H706 H 1.02062 0.16605 0.68011 0.0
H707 H 0.06415 0.1672 0.66492 0.0
H708 H 0.0773 0.17173 0.58553 0.0
H709 H 0.03196 0.17196 0.57723 0.0
C710 C 0.99571 0.17008 0.61155 0.0
C711 C 0.97855 0.16894 0.63133 0.0
C712 C 0.02176 0.16978 0.61625 0.0
C713 C 0.98789 0.16743 0.65603 0.0
C714 C 1.0139 0.16717 0.66089 0.0
C715 C 0.05713 0.16822 0.64578 0.0
C716 C 0.07419 0.16948 0.62585 0.0
C717 C 0.03099 0.16836 0.64113 0.0
C718 C 0.06469 0.17074 0.6012 0.0
C719 C 0.03874 0.1709 0.59644 0.0
H720 H 0.91358 0.07258 0.63728 0.0
H721 H 0.88773 0.09898 0.56562 0.0
H722 H 0.87931 0.05548 0.55126 0.0
H723 H 0.87765 1.01011 0.5599 0.0
H724 H 0.903 0.98448 0.6321 0.0
H725 H 0.91306 0.02771 0.64548 0.0
C726 C 0.90625 0.06891 0.61842 0.0
C727 C 0.90122 0.08905 0.60256 0.0
C728 C 0.90113 0.04401 0.6105 0.0
C729 C 0.89182 0.08385 0.57818 0.0
C730 C 0.88688 0.05898 0.57003 0.0
C731 C 0.88536 1.01397 0.57858 0.0
C732 C 0.88942 0.99403 0.59503 0.0
C733 C 0.89115 0.03894 0.58617 0.0
C734 C 0.89959 0.9994 0.61908 0.0
C735 C 0.90539 0.02414 0.62674 0.0
H736 H 0.03988 0.87458 0.57325 0.0
H737 H 0.0616 0.95222 0.56237 0.0
H738 H 1.01828 0.96146 0.55034 0.0
H739 H 0.97328 0.94898 0.54931 0.0
H740 H 0.95141 0.8715 0.56084 0.0
H741 H 0.99565 0.86075 0.56566 0.0
C742 C 0.03528 0.89346 0.56788 0.0
C743 C 0.05403 0.91278 0.56934 0.0
C744 C 1.01015 0.89878 0.56131 0.0
C745 C 0.04764 0.93701 0.56182 0.0
C746 C 0.02277 0.94236 0.55501 0.0
C747 C 0.97815 0.92962 0.55244 0.0
C748 C 0.95885 0.91121 0.55526 0.0
C749 C 1.00369 0.92362 0.55569 0.0
C750 C 0.9657 0.88617 0.55882 0.0
C751 C 0.99108 0.88001 0.56175 0.0
H752 H 0.44091 0.14326 1.01229 0.0
H753 H 0.35997 0.14406 0.01875 0.0
H754 H 0.3553 0.14303 0.97317 0.0
H755 H 0.37388 0.14054 0.93183 0.0
H756 H 0.45466 0.13921 0.9246 0.0
H757 H 0.45972 0.14203 0.97036 0.0
C758 C 0.42223 0.1433 1.00376 0.0
C759 C 0.40079 0.14362 0.019 0.0
C760 C 0.41967 0.1426 0.97748 0.0
C761 C 0.37677 0.14375 1.00755 0.0
C762 C 0.37408 0.14315 0.98147 0.0
C763 C 0.39267 0.14092 0.94016 0.0
C764 C 0.41389 0.13951 0.92476 0.0
C765 C 0.39537 0.14236 0.96631 0.0
C766 C 0.43803 0.14025 0.93598 0.0
C767 C 0.4409 0.14179 0.96214 0.0
H768 H 0.91856 0.34546 1.00979 0.0
H769 H 0.914 0.42327 0.98929 0.0
H770 H 0.91367 0.43586 0.03363 0.0
H771 H 0.91393 0.4247 0.07795 0.0
H772 H 0.91791 0.34686 0.09847 0.0
H773 H 0.91916 0.33433 0.05414 0.0
C774 C 0.91759 0.36522 1.01494 0.0
C775 C 0.91632 0.38342 0.99617 0.0
C776 C 0.91721 0.37227 0.04042 0.0
C777 C 0.91501 0.40889 1.0033 0.0
C778 C 0.91478 0.41608 0.02865 0.0
C779 C 0.91511 0.40495 0.07281 0.0
C780 C 0.9158 0.38672 0.09158 0.0
C781 C 0.91575 0.39792 0.04734 0.0
C782 C 0.91732 0.36126 0.08446 0.0
C783 C 0.91805 0.3541 0.05912 0.0
H784 H 0.65336 0.82788 0.98195 0.0
H785 H 0.6177 0.89904 0.97436 0.0
H786 H 0.61248 0.90194 0.02005 0.0
H787 H 0.62403 0.88662 0.0627 0.0
H788 H 0.66043 0.81538 0.06848 0.0
H789 H 0.65898 0.80989 0.02317 0.0
C790 C 0.64389 0.84374 0.99028 0.0
C791 C 0.63604 0.86326 0.97497 0.0
C792 C 0.6413 0.84533 1.01635 0.0
C793 C 0.62372 0.88369 0.98584 0.0
C794 C 0.62097 0.88543 1.01198 0.0
C795 C 0.63096 0.86963 0.05399 0.0
C796 C 0.64259 0.85155 0.06895 0.0
C797 C 0.63051 0.86673 0.02756 0.0
C798 C 0.65166 0.82969 0.0574 0.0
C799 C 0.6509 0.82653 0.03145 0.0
H800 H 0.19908 0.65707 0.01924 0.0
H801 H 0.12334 0.66341 0.9899 0.0
H802 H 0.10755 0.66785 0.03242 0.0
H803 H 0.11471 0.66497 0.07801 0.0
H804 H 0.19069 0.65958 0.10721 0.0
H805 H 0.20689 0.66019 0.0648 0.0
C806 C 0.17917 0.65981 0.02215 0.0
C807 C 0.16239 0.65956 1.00144 0.0
C808 C 0.17022 0.66242 0.04668 0.0
C809 C 0.13668 0.66348 1.00549 0.0
C810 C 0.12761 0.66589 0.02984 0.0
C811 C 0.13486 0.66442 0.07512 0.0
C812 C 0.15138 0.66193 0.09581 0.0
C813 C 0.14411 0.66467 0.05059 0.0
C814 C 0.17747 0.66149 0.09171 0.0
C815 C 0.18678 0.66165 0.0674 0.0
H816 H 0.35961 0.88436 0.02641 0.0
H817 H 0.43758 0.87333 0.04655 0.0
H818 H 0.44763 0.86833 1.00212 0.0
H819 H 0.43413 0.867 0.95768 0.0
H820 H 0.35618 0.87874 0.9379 0.0
H821 H 0.34623 0.88336 0.98227 0.0
C822 C 0.37886 0.88088 0.02118 0.0
C823 C 0.39784 0.87921 0.03989 0.0
C824 C 0.38445 0.87803 0.99568 0.0
C825 C 0.42264 0.87477 0.03261 0.0
C826 C 0.42836 0.87184 1.0072 0.0
C827 C 0.41491 0.87044 0.96303 0.0
C828 C 0.39588 0.8724 0.94439 0.0
C829 C 0.40939 0.87336 0.98859 0.0
C830 C 0.37116 0.87708 0.95176 0.0
C831 C 0.36548 0.87977 0.97715 0.0
H832 H 0.19927 0.42926 0.0198 0.0
H833 H 0.12143 0.44164 1.00055 0.0
H834 H 0.11359 0.45488 0.04387 0.0
H835 H 0.12782 0.45783 0.08817 0.0
H836 H 0.20597 0.44599 0.10695 0.0
H837 H 0.2148 0.43816 0.06284 0.0
C838 C 0.18067 0.43523 0.02501 0.0
C839 C 0.16087 0.43412 1.00707 0.0
C840 C 0.17634 0.44283 0.04991 0.0
C841 C 0.13697 0.44227 1.01399 0.0
C842 C 0.13247 0.44971 0.03881 0.0
C843 C 0.1469 0.45406 0.08257 0.0
C844 C 0.16612 0.45221 0.10099 0.0
C845 C 0.15184 0.44934 0.05709 0.0
C846 C 0.19078 0.44753 0.0933 0.0
C847 C 0.19583 0.44284 0.06803 0.0
H848 H 0.61538 0.06961 0.02447 0.0
H849 H 0.59749 0.14609 0.04418 0.0
H850 H 0.59118 0.15538 1.00001 0.0
H851 H 0.59656 0.14347 0.95576 0.0
H852 H 0.61524 0.06723 0.93601 0.0
H853 H 0.61497 0.05616 0.98011 0.0
C854 C 0.60965 0.0882 0.01916 0.0
C855 C 0.60736 0.10721 0.03767 0.0
C856 C 0.60639 0.09356 0.99363 0.0
C857 C 0.59961 0.1311 0.0304 0.0
C858 C 0.59609 0.13649 1.00508 0.0
C859 C 0.60009 0.1243 0.96102 0.0
C860 C 0.60632 0.10635 0.94255 0.0
C861 C 0.60033 0.11813 0.98651 0.0
C862 C 0.61055 0.08152 0.94977 0.0
C863 C 0.61055 0.07518 0.97505 0.0
H864 H 0.95578 0.66526 0.98528 0.0
H865 H 0.8792 0.65342 0.9581 0.0
H866 H 0.86431 0.65339 1.00096 0.0
H867 H 0.87363 0.65072 0.04603 0.0
H868 H 0.9498 0.6632 0.07371 0.0
H869 H 0.96418 0.66932 0.03088 0.0
C870 C 0.93578 0.66319 0.98871 0.0
C871 C 0.91873 0.65891 0.96843 0.0
C872 C 0.92727 0.66304 1.01354 0.0
C873 C 0.89282 0.65659 0.97326 0.0
C874 C 0.88426 0.65642 0.99783 0.0
C875 C 0.89331 0.65527 0.04271 0.0
C876 C 0.91069 0.65618 0.06292 0.0
C877 C 0.9014 0.65869 0.01809 0.0
C878 C 0.93605 0.66241 0.05845 0.0
C879 C 0.94431 0.66573 0.03394 0.0
H880 H 0.07536 0.45605 0.18721 0.0
H881 H 0.09689 0.37984 0.17102 0.0
H882 H 0.05253 0.36697 0.16591 0.0
H883 H 1.0079 0.37723 0.16633 0.0
H884 H 0.98604 0.4534 0.18212 0.0
H885 H 0.03048 0.46648 0.18694 0.0
C886 C 0.0704 0.43659 0.18262 0.0
C887 C 0.08949 0.41889 0.17961 0.0
C888 C 0.04486 0.42937 0.17955 0.0
C889 C 0.08264 0.39382 0.17349 0.0
C890 C 0.05727 0.38647 0.17055 0.0
C891 C 1.01276 0.39674 0.17079 0.0
C892 C 0.9936 0.41431 0.17393 0.0
C893 C 0.03826 0.40407 0.17356 0.0
C894 C 1.00037 0.4395 0.17959 0.0
C895 C 0.02577 0.44696 0.1824 0.0
H896 H 0.07366 0.60228 0.95493 0.0
H897 H 0.10428 0.59215 0.88115 0.0
H898 H 0.06192 0.58556 0.86348 0.0
H899 H 1.01622 0.58931 0.86798 0.0
H900 H 0.98547 0.60006 0.94158 0.0
H901 H 0.02776 0.59936 0.96026 0.0
C902 C 0.07113 0.5981 0.93506 0.0
C903 C 0.09217 0.59823 0.91936 0.0
C904 C 0.04662 0.59472 0.92489 0.0
C905 C 0.0885 0.59242 0.8937 0.0
C906 C 0.06421 0.58878 0.88351 0.0
C907 C 1.01871 0.591 0.88817 0.0
C908 C 0.99773 0.59518 0.90329 0.0
C909 C 0.04313 0.59093 0.89877 0.0
C910 C 1.00126 0.59696 0.92944 0.0
C911 C 0.02549 0.59672 0.94015 0.0
H912 H 0.40132 0.95852 0.84902 0.0
H913 H 0.45542 0.96327 0.91026 0.0
H914 H 0.45662 1.0092 0.908 0.0
H915 H 0.44176 0.04786 0.88912 0.0
H916 H 0.38505 0.04367 0.83021 0.0
H917 H 0.38494 0.99761 0.83132 0.0
C918 C 0.41363 0.96966 0.8616 0.0
C919 C 0.42871 0.95761 0.87945 0.0
C920 C 0.41338 0.99608 0.86087 0.0
C921 C 0.44396 0.97219 0.89618 0.0
C922 C 0.44451 0.9984 0.89497 0.0
C923 C 0.42928 0.03687 0.87657 0.0
C924 C 0.41347 0.04915 0.85954 0.0
C925 C 0.42917 1.01053 0.87753 0.0
C926 C 0.39724 0.03467 0.8436 0.0
C927 C 0.39734 1.00835 0.84411 0.0
H928 H 0.07362 0.36358 0.93449 0.0
H929 H 0.08441 0.37448 0.85544 0.0
H930 H 0.03966 0.36679 0.84722 0.0
H931 H 0.99676 0.36113 0.86269 0.0
H932 H 0.9853 0.34943 0.94138 0.0
H933 H 0.03079 0.35279 0.94935 0.0
C934 C 0.06623 0.36394 0.91543 0.0
C935 C 0.08248 0.36997 0.89571 0.0
C936 C 0.04023 0.35942 0.91071 0.0
C937 C 0.0725 0.37009 0.87109 0.0
C938 C 0.0468 0.36573 0.86631 0.0
C939 C 1.00422 0.35888 0.88153 0.0
C940 C 0.98756 0.35526 0.9014 0.0
C941 C 0.03039 0.36099 0.88602 0.0
C942 C 0.99763 0.35218 0.92568 0.0
C943 C 0.02369 0.3543 0.9303 0.0
H944 H 0.68491 0.0285 0.91626 0.0
H945 H 0.67976 0.04001 0.83654 0.0
H946 H 0.68434 0.99509 0.82861 0.0
H947 H 0.6837 0.95208 0.84441 0.0
H948 H 0.68788 0.9405 0.92415 0.0
H949 H 0.69019 0.98583 0.93186 0.0
C950 C 0.68526 0.02128 0.89712 0.0
C951 C 0.68153 0.03762 0.87707 0.0
C952 C 0.68748 0.99531 0.89267 0.0
C953 C 0.68235 0.02791 0.85239 0.0
C954 C 0.68486 1.00215 0.84781 0.0
C955 C 0.6856 0.95943 0.86347 0.0
C956 C 0.68516 0.94283 0.88366 0.0
C957 C 0.68649 0.98558 0.86782 0.0
C958 C 0.68794 0.95276 0.90822 0.0
C959 C 0.68915 0.97874 0.91268 0.0
H960 H 0.05902 0.59138 0.20842 0.0
H961 H 0.07566 0.60541 0.13108 0.0
H962 H 0.03072 0.60323 0.12033 0.0
H963 H 0.98649 0.60238 0.13386 0.0
H964 H 0.97026 0.58895 0.21145 0.0
H965 H 1.01508 0.58557 0.22094 0.0
C966 C 0.05289 0.59357 0.18912 0.0
C967 C 0.07078 0.59887 0.17068 0.0
C968 C 0.02696 0.59261 0.1831 0.0
C969 C 0.06239 0.6014 0.14573 0.0
C970 C 0.03662 0.60028 0.13956 0.0
C971 C 0.9927 0.59824 0.15275 0.0
C972 C 0.97491 0.59627 0.17195 0.0
C973 C 1.01869 0.59665 0.15823 0.0
C974 C 0.98342 0.59079 0.1963 0.0
C975 C 1.00913 0.58892 0.2018 0.0
H976 H 0.35154 0.04735 0.10357 0.0
H977 H 0.4315 0.06226 0.11326 0.0
H978 H 0.4383 1.01738 0.11799 0.0
H979 H 0.42177 0.97414 0.11901 0.0
H980 H 0.34194 0.95869 0.10937 0.0
H981 H 0.33486 1.00374 0.10501 0.0
C982 C 0.37049 0.04084 0.10673 0.0
C983 C 0.39101 0.05826 0.10802 0.0
C984 C 0.37426 1.01495 0.10943 0.0
C985 C 0.41537 0.04937 0.11217 0.0
C986 C 0.41927 0.02368 0.11487 0.0
C987 C 0.40275 0.98052 0.11597 0.0
C988 C 0.38239 0.96295 0.11447 0.0
C989 C 0.39888 1.00634 0.11347 0.0
C990 C 0.35794 0.97172 0.11059 0.0
C991 C 0.35391 0.99749 0.10808 0.0
H992 H 0.66343 0.03731 0.16152 0.0
H993 H 0.67378 0.04687 0.08242 0.0
H994 H 0.68375 1.0023 0.07753 0.0
H995 H 0.68365 0.95958 0.09508 0.0
H996 H 0.67436 0.95095 0.17465 0.0
H997 H 0.67036 0.99619 0.18007 0.0
C998 C 0.66846 0.02972 0.14331 0.0
C999 C 0.66768 0.04519 0.12232 0.0
C1000 C 0.67414 1.00419 0.14071 0.0
C1001 C 0.67439 0.0353 0.09886 0.0
C1002 C 0.67986 1.00977 0.09605 0.0
C1003 C 0.68127 0.96765 0.11368 0.0
C1004 C 0.67887 0.95174 0.13434 0.0
C1005 C 0.67893 0.99385 0.11672 0.0
C1006 C 0.67613 0.9626 0.15835 0.0
C1007 C 0.67368 0.98853 0.16149 0.0
H1008 H 0.66556 0.45623 0.96251 0.0
H1009 H 0.652 0.43068 0.88602 0.0
H1010 H 0.65175 0.47416 0.87241 0.0
H1011 H 0.65631 0.51914 0.88199 0.0
H1012 H 0.66987 0.54512 0.95831 0.0
H1013 H 0.66894 0.50159 0.97229 0.0
C1014 C 0.66255 0.46015 0.94285 0.0
C1015 C 0.65894 0.44018 0.92528 0.0
C1016 C 0.66236 0.48521 0.93515 0.0
C1017 C 0.65489 0.44564 0.89992 0.0
C1018 C 0.65473 0.47051 0.89212 0.0
C1019 C 0.65898 0.51537 0.90173 0.0
C1020 C 0.66327 0.53538 0.91908 0.0
C1021 C 0.65857 0.4904 0.90955 0.0
C1022 C 0.66653 0.53008 0.94457 0.0
C1023 C 0.66608 0.5052 0.95255 0.0
H1024 H 0.57994 0.61793 0.92129 0.0
H1025 H 0.60517 0.61761 0.84489 0.0
H1026 H 0.56138 0.61997 0.82989 0.0
H1027 H 0.51598 0.6222 0.83867 0.0
H1028 H 0.49141 0.62215 0.91532 0.0
H1029 H 0.53507 0.61989 0.93002 0.0
C1030 C 0.57598 0.61837 0.9013 0.0
C1031 C 0.59591 0.61762 0.88423 0.0
C1032 C 0.55087 0.61969 0.89289 0.0
C1033 C 0.59026 0.61815 0.85844 0.0
C1034 C 0.56521 0.61952 0.84988 0.0
C1035 C 0.52015 0.62173 0.8586 0.0
C1036 C 0.50034 0.62238 0.87587 0.0
C1037 C 0.54537 0.62033 0.86695 0.0
C1038 C 0.50618 0.62167 0.90162 0.0
C1039 C 0.53117 0.62038 0.91004 0.0
H1040 H 0.36971 0.46169 0.85476 0.0
H1041 H 0.4468 0.43808 0.85883 0.0
H1042 H 0.46162 0.48104 0.85161 0.0
H1043 H 0.45289 0.5261 0.84908 0.0
H1044 H 0.37594 0.54988 0.84457 0.0
H1045 H 0.36096 0.50615 0.84662 0.0
C1046 C 0.38976 0.46584 0.85366 0.0
C1047 C 0.40708 0.4466 0.85768 0.0
C1048 C 0.39822 0.49072 0.84958 0.0
C1049 C 0.43298 0.45239 0.85591 0.0
C1050 C 0.44152 0.47705 0.85189 0.0
C1051 C 0.43283 0.5217 0.84809 0.0
C1052 C 0.41559 0.54135 0.84694 0.0
C1053 C 0.42434 0.49649 0.84945 0.0
C1054 C 0.38967 0.53523 0.84544 0.0
C1055 C 0.38107 0.51018 0.8468 0.0
H1056 H 0.49263 0.32427 0.93345 0.0
H1057 H 0.47499 0.40292 0.93804 0.0
H1058 H 0.51811 0.41335 0.95183 0.0
H1059 H 0.56199 0.4008 0.95746 0.0
H1060 H 0.57989 0.32225 0.95281 0.0
H1061 H 0.53551 0.31117 0.94474 0.0
C1062 C 0.4981 0.34366 0.93782 0.0
C1063 C 0.48061 0.3628 0.93429 0.0
C1064 C 0.52306 0.3496 0.94566 0.0
C1065 C 0.48801 0.38778 0.94039 0.0
C1066 C 0.51274 0.3938 0.94822 0.0
C1067 C 0.55615 0.3812 0.95518 0.0
C1068 C 0.57438 0.36245 0.95541 0.0
C1069 C 0.53062 0.37496 0.95017 0.0
C1070 C 0.56636 0.33712 0.95269 0.0
C1071 C 0.54095 0.33076 0.94786 0.0
H1072 H 0.63481 0.52643 0.12065 0.0
H1073 H 0.65563 0.55208 0.19566 0.0
H1074 H 0.66109 0.50865 0.20815 0.0
H1075 H 0.66135 0.46377 0.19746 0.0
H1076 H 0.64079 0.43781 0.12252 0.0
H1077 H 0.63386 0.48119 0.11027 0.0
C1078 C 0.6404 0.52256 0.13979 0.0
C1079 C 0.64487 0.54254 0.15719 0.0
C1080 C 0.6437 0.49755 0.14678 0.0
C1081 C 0.65206 0.53711 0.1819 0.0
C1082 C 0.65526 0.51228 0.18903 0.0
C1083 C 0.65535 0.46751 0.17841 0.0
C1084 C 0.65174 0.44754 0.16087 0.0
C1085 C 0.65139 0.49241 0.17156 0.0
C1086 C 0.64377 0.45281 0.13635 0.0
C1087 C 0.6398 0.47761 0.12936 0.0
H1088 H 0.55467 0.62226 0.17172 0.0
H1089 H 0.57682 0.6346 0.09547 0.0
H1090 H 0.53263 0.63916 0.08297 0.0
H1091 H 0.48784 0.63927 0.09361 0.0
H1092 H 0.46557 0.62607 0.16966 0.0
H1093 H 0.50983 0.6224 0.18236 0.0
C1094 C 0.54991 0.62596 0.15233 0.0
C1095 C 0.56916 0.62808 0.13454 0.0
C1096 C 0.52446 0.62849 0.14528 0.0
C1097 C 0.56249 0.63283 0.10954 0.0
C1098 C 0.5372 0.63549 0.1024 0.0
C1099 C 0.49259 0.63572 0.11303 0.0
C1100 C 0.47329 0.63303 0.13069 0.0
C1101 C 0.51804 0.63334 0.12011 0.0
C1102 C 0.47994 0.62828 0.15569 0.0
C1103 C 0.50527 0.62612 0.16294 0.0
H1104 H 0.3705 0.4622 0.09907 0.0
H1105 H 0.44941 0.45002 0.11385 0.0
H1106 H 0.4592 0.49409 0.10587 0.0
H1107 H 0.44476 0.53709 0.10038 0.0
H1108 H 0.36594 0.54969 0.08596 0.0
H1109 H 0.35686 0.50449 0.08756 0.0
C1110 C 0.3899 0.46906 0.10013 0.0
C1111 C 0.40911 0.45279 0.1075 0.0
C1112 C 0.39543 0.4946 0.0957 0.0
C1113 C 0.43418 0.46204 0.10844 0.0
C1114 C 0.43981 0.48733 0.10395 0.0
C1115 C 0.42565 0.52992 0.09704 0.0
C1116 C 0.40603 0.54684 0.09337 0.0
C1117 C 0.42051 0.50394 0.09841 0.0
C1118 C 0.38144 0.53717 0.08882 0.0
C1119 C 0.37619 0.51129 0.08997 0.0
H1120 H 0.57129 0.40607 0.21222 0.0
H1121 H 0.58676 0.32864 0.19388 0.0
H1122 H 0.54199 0.31982 0.18634 0.0
H1123 H 0.49971 0.33562 0.17822 0.0
H1124 H 0.48381 0.4129 0.19596 0.0
H1125 H 0.52741 0.42017 0.21077 0.0
C1126 C 0.56485 0.38711 0.20713 0.0
C1127 C 0.58253 0.3682 0.20309 0.0
C1128 C 0.53901 0.38222 0.20238 0.0
C1129 C 0.57371 0.34367 0.19687 0.0
C1130 C 0.54807 0.33861 0.19239 0.0
C1131 C 0.50567 0.35393 0.18581 0.0
C1132 C 0.48874 0.37381 0.18564 0.0
C1133 C 0.53074 0.35799 0.19401 0.0
C1134 C 0.49653 0.39732 0.19587 0.0
C1135 C 0.52151 0.40151 0.20416 0.0
H1136 H 0.94223 0.67827 0.49136 0.0
H1137 H 0.86653 0.65614 0.46775 0.0
H1138 H 0.85462 0.65218 0.51164 0.0
H1139 H 0.86584 0.655 0.55655 0.0
H1140 H 0.94189 0.67634 0.57978 0.0
H1141 H 0.9536 0.68039 0.53597 0.0
C1142 C 0.92305 0.67268 0.49573 0.0
C1143 C 0.90523 0.66766 0.47624 0.0
C1144 C 0.91648 0.67015 0.52089 0.0
C1145 C 0.88058 0.6602 0.48235 0.0
C1146 C 0.87379 0.65789 0.50744 0.0
C1147 C 0.88502 0.66049 0.55208 0.0
C1148 C 0.90297 0.6654 0.57149 0.0
C1149 C 0.89161 0.66278 0.52684 0.0
C1150 C 0.92772 0.6724 0.56527 0.0
C1151 C 0.9344 0.67479 0.54021 0.0
H1152 H 0.43039 0.96418 0.53033 0.0
H1153 H 0.35302 0.97022 0.55259 0.0
H1154 H 0.33944 0.97129 0.50881 0.0
H1155 H 0.34877 0.96144 0.46471 0.0
H1156 H 0.42586 0.95614 0.442 0.0
H1157 H 0.44042 0.96433 0.48528 0.0
C1158 C 0.41066 0.96653 0.52559 0.0
C1159 C 0.39273 0.96657 0.54472 0.0
C1160 C 0.40289 0.96696 0.50025 0.0
C1161 C 0.36725 0.96998 0.53831 0.0
C1162 C 0.3594 0.97038 0.5132 0.0
C1163 C 0.36877 0.96314 0.46915 0.0
C1164 C 0.38625 0.95815 0.45037 0.0
C1165 C 0.37692 0.96758 0.49407 0.0
C1166 C 0.41211 0.96021 0.45617 0.0
C1167 C 0.4204 0.96455 0.48098 0.0
H1168 H 0.18554 0.42871 0.51287 0.0
H1169 H 0.16126 0.35076 0.50862 0.0
H1170 H 0.17275 0.34578 0.55259 0.0
H1171 H 0.18467 0.3645 0.59326 0.0
H1172 H 0.20634 0.44309 0.59923 0.0
H1173 H 0.20143 0.44676 0.55375 0.0
C1174 C 0.18333 0.41054 0.52149 0.0
C1175 C 0.17245 0.39014 0.50751 0.0
C1176 C 0.1893 0.40797 0.54722 0.0
C1177 C 0.16942 0.36678 0.519 0.0
C1178 C 0.17596 0.36391 0.54418 0.0
C1179 C 0.18876 0.38239 0.58466 0.0
C1180 C 0.19563 0.40353 0.59981 0.0
C1181 C 0.18515 0.38454 0.55866 0.0
C1182 C 0.20097 0.42648 0.58813 0.0
C1183 C 0.198 0.42863 0.56208 0.0
H1184 H 0.6516 0.11973 0.53013 0.0
H1185 H 0.65146 0.19928 0.54764 0.0
H1186 H 0.64747 0.20814 0.50289 0.0
H1187 H 0.64278 0.19311 0.45906 0.0
H1188 H 0.64206 0.11341 0.44209 0.0
H1189 H 0.64755 0.10481 0.48661 0.0
C1190 C 0.65084 0.13908 0.52426 0.0
C1191 C 0.65183 0.15884 0.5423 0.0
C1192 C 0.64824 0.14396 0.49863 0.0
C1193 C 0.65078 0.18373 0.53421 0.0
C1194 C 0.64843 0.18878 0.50862 0.0
C1195 C 0.64386 0.17383 0.46504 0.0
C1196 C 0.64194 0.1539 0.44718 0.0
C1197 C 0.64692 0.16902 0.4907 0.0
C1198 C 0.64341 0.12908 0.45536 0.0
C1199 C 0.64657 0.12416 0.48083 0.0
H1200 H 0.85447 0.37671 0.51025 0.0
H1201 H 0.86128 0.45436 0.48925 0.0
H1202 H 0.84756 0.4677 0.5308 0.0
H1203 H 0.8403 0.45738 0.57485 0.0
H1204 H 0.83393 0.37965 0.59586 0.0
H1205 H 0.84012 0.36631 0.55247 0.0
C1206 C 0.85247 0.39654 0.51461 0.0
C1207 C 0.8593 0.41453 0.49682 0.0
C1208 C 0.84476 0.40408 0.53861 0.0
C1209 C 0.85624 0.44013 0.5026 0.0
C1210 C 0.84853 0.44778 0.52644 0.0
C1211 C 0.8396 0.43752 0.56983 0.0
C1212 C 0.83708 0.41958 0.58872 0.0
C1213 C 0.84369 0.42994 0.54487 0.0
C1214 C 0.83591 0.39392 0.58181 0.0
C1215 C 0.83971 0.38624 0.55698 0.0
H1216 H 0.58093 0.81944 0.55506 0.0
H1217 H 0.66112 0.83073 0.5665 0.0
H1218 H 0.66745 0.8261 0.5215 0.0
H1219 H 0.64946 0.82562 0.47856 0.0
H1220 H 0.56918 0.81418 0.46747 0.0
H1221 H 0.56382 0.81164 0.51253 0.0
C1222 C 0.59987 0.82035 0.5478 0.0
C1223 C 0.62042 0.82608 0.56413 0.0
C1224 C 0.60337 0.81791 0.52184 0.0
C1225 C 0.64487 0.82672 0.5544 0.0
C1226 C 0.64852 0.82418 0.52858 0.0
C1227 C 0.63085 0.82201 0.48595 0.0
C1228 C 0.60971 0.82065 0.46957 0.0
C1229 C 0.6278 0.82084 0.51204 0.0
C1230 C 0.5858 0.81561 0.47953 0.0
C1231 C 0.58266 0.81427 0.50539 0.0
H1232 H 0.16227 0.66414 0.5845 0.0
H1233 H 0.08612 0.67549 0.60841 0.0
H1234 H 0.07127 0.67301 0.56465 0.0
H1235 H 0.08021 0.66835 0.51968 0.0
H1236 H 0.15652 0.65673 0.49629 0.0
H1237 H 0.17105 0.65869 0.53999 0.0
C1238 C 0.14238 0.66605 0.58025 0.0
C1239 C 0.12533 0.67009 0.59977 0.0
C1240 C 0.13406 0.66465 0.55516 0.0
C1241 C 0.09963 0.67236 0.5938 0.0
C1242 C 0.09117 0.671 0.56877 0.0
C1243 C 0.10004 0.66626 0.5241 0.0
C1244 C 0.11728 0.6625 0.50465 0.0
C1245 C 0.10825 0.66729 0.5493 0.0
C1246 C 0.14286 0.65968 0.51081 0.0
C1247 C 0.15118 0.66079 0.53581 0.0
H1248 H 0.3826 0.19841 0.50676 0.0
H1249 H 0.37823 0.11823 0.51738 0.0
H1250 H 0.37376 0.11125 0.47209 0.0
H1251 H 0.37201 0.12775 0.42971 0.0
H1252 H 0.37669 0.20783 0.41867 0.0
H1253 H 0.38002 0.21502 0.46412 0.0
C1254 C 0.38062 0.17937 0.49922 0.0
C1255 C 0.38083 0.15884 0.51552 0.0
C1256 C 0.37813 0.17551 0.47315 0.0
C1257 C 0.37817 0.13435 0.50534 0.0
C1258 C 0.37563 0.13036 0.47943 0.0
C1259 C 0.3737 0.14685 0.43715 0.0
C1260 C 0.37416 0.16726 0.42072 0.0
C1261 C 0.37572 0.15078 0.46319 0.0
C1262 C 0.37628 0.1918 0.43083 0.0
C1263 C 0.37822 0.1959 0.45682 0.0
H1264 H 0.47991 0.94269 0.62334 0.0
H1265 H 0.44338 0.86934 0.62293 0.0
H1266 H 0.48444 0.84983 0.62774 0.0
H1267 H 0.53065 0.8538 0.63323 0.0
H1268 H 0.56705 0.92717 0.63195 0.0
H1269 H 0.52605 0.94651 0.62665 0.0
C1270 C 0.48087 0.92241 0.62424 0.0
C1271 C 0.45851 0.9075 0.62295 0.0
C1272 C 0.50454 0.91136 0.6268 0.0
C1273 C 0.46023 0.88125 0.62385 0.0
C1274 C 0.48372 0.87011 0.6267 0.0
C1275 C 0.52963 0.87404 0.63182 0.0
C1276 C 0.55194 0.88904 0.63322 0.0
C1277 C 0.50598 0.885 0.62841 0.0
C1278 C 0.55024 0.91519 0.63098 0.0
C1279 C 0.52678 0.92625 0.62797 0.0
H1280 H 0.4674 0.19601 0.34788 0.0
H1281 H 0.44932 0.11644 0.34721 0.0
H1282 H 0.49379 0.10756 0.35467 0.0
H1283 H 0.53757 0.12241 0.36157 0.0
H1284 H 0.55567 0.20196 0.36186 0.0
H1285 H 0.51119 0.21083 0.35448 0.0
C1286 C 0.47312 0.17667 0.3493 0.0
C1287 C 0.45497 0.15689 0.34697 0.0
C1288 C 0.49866 0.17174 0.35364 0.0
C1289 C 0.46283 0.13201 0.34886 0.0
C1290 C 0.48826 0.12694 0.35319 0.0
C1291 C 0.53184 0.14174 0.36012 0.0
C1292 C 0.54999 0.16152 0.36237 0.0
C1293 C 0.5063 0.14666 0.35569 0.0
C1294 C 0.54215 0.18639 0.36027 0.0
C1295 C 0.51672 0.19146 0.35601 0.0
H1296 H 0.95061 0.58059 0.45701 0.0
H1297 H 0.94014 0.57812 0.37669 0.0
H1298 H 0.93738 0.5321 0.37717 0.0
H1299 H 0.93323 0.49262 0.40115 0.0
H1300 H 0.94244 0.49632 0.48165 0.0
H1301 H 0.9505 0.5415 0.48024 0.0
C1302 C 0.9481 0.57005 0.43949 0.0
C1303 C 0.9454 0.58301 0.41686 0.0
C1304 C 0.94604 0.54362 0.43997 0.0
C1305 C 0.94231 0.56882 0.39441 0.0
C1306 C 0.94056 0.54242 0.3947 0.0
C1307 C 0.93749 0.50324 0.41832 0.0
C1308 C 0.93703 0.49092 0.44152 0.0
C1309 C 0.94171 0.5296 0.41746 0.0
C1310 C 0.94246 0.50515 0.46356 0.0
C1311 C 0.94705 0.5311 0.46279 0.0
H1312 H 0.4776 0.93326 0.40254 0.0
H1313 H 0.44624 0.86085 0.37874 0.0
H1314 H 0.48845 0.84339 0.37946 0.0
H1315 H 0.53433 0.8492 0.38516 0.0
H1316 H 0.56553 0.92146 0.40966 0.0
H1317 H 0.52319 0.93852 0.41032 0.0
C1318 C 0.47993 0.91361 0.39761 0.0
C1319 C 0.45875 0.89841 0.39042 0.0
C1320 C 0.50422 0.90374 0.39805 0.0
C1321 C 0.46216 0.87295 0.38436 0.0
C1322 C 0.48632 0.86299 0.38466 0.0
C1323 C 0.53191 0.86871 0.39065 0.0
C1324 C 0.55315 0.88412 0.39712 0.0
C1325 C 0.5075 0.87831 0.39117 0.0
C1326 C 0.54957 0.90922 0.40453 0.0
C1327 C 0.52535 0.91898 0.40489 0.0
H1328 H 0.08964 0.56324 0.4701 0.0
H1329 H 0.07342 0.57864 0.39249 0.0
H1330 H 0.0773 0.53411 0.38162 0.0
H1331 H 0.09134 0.49213 0.39322 0.0
H1332 H 0.10899 0.47733 0.47071 0.0
H1333 H 0.09831 0.52021 0.48249 0.0
C1334 C 0.08646 0.55684 0.45086 0.0
C1335 C 0.08165 0.5744 0.4321 0.0
C1336 C 0.08934 0.53131 0.44463 0.0
C1337 C 0.07728 0.56563 0.40733 0.0
C1338 C 0.07969 0.54015 0.40105 0.0
C1339 C 0.09247 0.49812 0.41276 0.0
C1340 C 0.1014 0.48156 0.43097 0.0
C1341 C 0.08668 0.523 0.4194 0.0
C1342 C 0.10244 0.48966 0.45623 0.0
C1343 C 0.09639 0.51425 0.463 0.0
H1344 H 0.47976 0.12001 0.59182 0.0
H1345 H 0.4716 0.20035 0.59865 0.0
H1346 H 0.51724 0.2059 0.60438 0.0
H1347 H 0.559 0.18792 0.60845 0.0
H1348 H 0.56725 0.10754 0.60268 0.0
H1349 H 0.52173 0.10201 0.5955 0.0
C1350 C 0.48792 0.13879 0.59442 0.0
C1351 C 0.47224 0.15978 0.59477 0.0
C1352 C 0.51409 0.14178 0.59798 0.0
C1353 C 0.48319 0.18391 0.59828 0.0
C1354 C 0.50927 0.18707 0.60159 0.0
C1355 C 0.55093 0.16913 0.60556 0.0
C1356 C 0.56656 0.14813 0.60613 0.0
C1357 C 0.52484 0.16613 0.60164 0.0
C1358 C 0.55569 0.12399 0.60237 0.0
C1359 C 0.52967 0.12084 0.59827 0.0
H1360 H 0.84278 0.50689 0.67511 0.0
H1361 H 0.91831 0.48525 0.65746 0.0
H1362 H 0.93019 0.52925 0.65065 0.0
H1363 H 0.91907 0.57364 0.64946 0.0
H1364 H 0.84334 0.59526 0.66629 0.0
H1365 H 0.83153 0.5513 0.6735 0.0
C1366 C 0.86191 0.51176 0.6699 0.0
C1367 C 0.87968 0.49275 0.66692 0.0
C1368 C 0.8685 0.53704 0.66572 0.0
C1369 C 0.90428 0.49946 0.65994 0.0
C1370 C 0.91107 0.52461 0.656 0.0
C1371 C 0.89994 0.5688 0.65468 0.0
C1372 C 0.88211 0.58779 0.65735 0.0
C1373 C 0.89331 0.54352 0.65876 0.0
C1374 C 0.85741 0.58107 0.66405 0.0
C1375 C 0.85068 0.55593 0.66824 0.0
H1376 H 0.12176 0.58347 0.67662 0.0
H1377 H 0.19937 0.60958 0.67512 0.0
H1378 H 0.21306 0.56602 0.6733 0.0
H1379 H 0.20292 0.52068 0.67267 0.0
H1380 H 0.12522 0.49484 0.67431 0.0
H1381 H 0.11162 0.53835 0.67545 0.0
C1382 C 0.14171 0.57972 0.67589 0.0
C1383 C 0.15954 0.59983 0.67608 0.0
C1384 C 0.1494 0.55471 0.67484 0.0
C1385 C 0.18527 0.59451 0.67504 0.0
C1386 C 0.19309 0.5696 0.674 0.0
C1387 C 0.18298 0.52451 0.67321 0.0
C1388 C 0.1651 0.50445 0.67343 0.0
C1389 C 0.17531 0.54957 0.67396 0.0
C1390 C 0.13937 0.50985 0.67412 0.0
C1391 C 0.13159 0.53474 0.6748 0.0
H1392 H 0.08911 0.25534 0.38624 0.0
H1393 H 0.15922 0.22516 0.4126 0.0
H1394 H 0.17369 0.26713 0.42673 0.0
H1395 H 0.16745 0.31266 0.4295 0.0
H1396 H 0.09735 0.34294 0.40331 0.0
H1397 H 0.08188 0.30062 0.39126 0.0
C1398 C 0.10749 0.25786 0.39526 0.0
C1399 C 0.1231 0.23704 0.39819 0.0
C1400 C 0.11577 0.2821 0.40322 0.0
C1401 C 0.14679 0.24075 0.41007 0.0
C1402 C 0.15514 0.2648 0.41808 0.0
C1403 C 0.14874 0.31005 0.42122 0.0
C1404 C 0.13367 0.33104 0.41712 0.0
C1405 C 0.13995 0.28566 0.41438 0.0
C1406 C 0.10937 0.32718 0.40664 0.0
C1407 C 0.10053 0.30297 0.3997 0.0
H1408 H 0.79341 0.20632 0.38346 0.0
H1409 H 0.81281 0.14214 0.3376 0.0
H1410 H 0.76853 0.13502 0.32592 0.0
H1411 H 0.72418 0.14441 0.33189 0.0
H1412 H 0.70417 0.20766 0.37862 0.0
H1413 H 0.7489 0.21802 0.38642 0.0
C1414 C 0.78802 0.19094 0.37067 0.0
C1415 C 0.80648 0.17461 0.36166 0.0
C1416 C 0.76241 0.18674 0.36425 0.0
C1417 C 0.79908 0.15491 0.34496 0.0
C1418 C 0.77372 0.15078 0.3383 0.0
C1419 C 0.72955 0.16068 0.34356 0.0
C1420 C 0.71081 0.17508 0.35488 0.0
C1421 C 0.7552 0.16619 0.34832 0.0
C1422 C 0.71816 0.19624 0.36968 0.0
C1423 C 0.74375 0.20206 0.37428 0.0
H1424 H 0.94969 0.82625 0.42908 0.0
H1425 H 0.88025 0.84041 0.3891 0.0
H1426 H 0.87742 0.79644 0.37501 0.0
H1427 H 0.89255 0.75333 0.37699 0.0
H1428 H 0.96157 0.73861 0.4173 0.0
H1429 H 0.96678 0.78348 0.42807 0.0
C1430 C 0.93407 0.81985 0.41701 0.0
C1431 C 0.91508 0.83678 0.41036 0.0
C1432 C 0.9324 0.79436 0.40916 0.0
C1433 C 0.89511 0.82798 0.3946 0.0
C1434 C 0.89342 0.80275 0.3866 0.0
C1435 C 0.90892 0.75989 0.38794 0.0
C1436 C 0.92655 0.74245 0.3965 0.0
C1437 C 0.91163 0.78566 0.39423 0.0
C1438 C 0.94772 0.75149 0.41043 0.0
C1439 C 0.95062 0.77718 0.4167 0.0
H1440 H 0.21692 0.86933 0.40851 0.0
H1441 H 0.20764 0.94079 0.44647 0.0
H1442 H 0.25143 0.95258 0.43813 0.0
H1443 H 0.29147 0.94382 0.41761 0.0
H1444 H 0.30142 0.87203 0.38067 0.0
H1445 H 0.25826 0.85914 0.39107 0.0
C1446 C 0.22453 0.88739 0.41523 0.0
C1447 C 0.20883 0.90422 0.42798 0.0
C1448 C 0.24979 0.89408 0.41031 0.0
C1449 C 0.21918 0.92744 0.43668 0.0
C1450 C 0.24422 0.93426 0.43176 0.0
C1451 C 0.28424 0.92531 0.41186 0.0
C1452 C 0.29958 0.90903 0.39805 0.0
C1453 C 0.25954 0.91795 0.41817 0.0
C1454 C 0.29003 0.88495 0.39121 0.0
C1455 C 0.26533 0.8776 0.39713 0.0
H1456 H 0.1786 0.84049 0.63781 0.0
H1457 H 0.10169 0.85566 0.65681 0.0
H1458 H 0.09624 0.81299 0.67204 0.0
H1459 H 0.11245 0.77095 0.67789 0.0
H1460 H 0.18884 0.75492 0.65784 0.0
H1461 H 0.1954 0.79855 0.64521 0.0
C1462 C 0.16069 0.83456 0.64547 0.0
C1463 C 0.14054 0.85129 0.64606 0.0
C1464 C 0.15757 0.80985 0.6539 0.0
C1465 C 0.11748 0.84321 0.65604 0.0
C1466 C 0.11434 0.81879 0.66473 0.0
C1467 C 0.13063 0.77695 0.67091 0.0
C1468 C 0.1501 0.7596 0.6687 0.0
C1469 C 0.13413 0.80188 0.66342 0.0
C1470 C 0.17353 0.76784 0.65969 0.0
C1471 C 0.17726 0.79277 0.65243 0.0
H1472 H 0.24384 0.20906 0.65699 0.0
H1473 H 0.20555 0.16096 0.60154 0.0
H1474 H 0.24529 0.15488 0.58016 0.0
H1475 H 0.29134 0.15982 0.57965 0.0
H1476 H 0.32989 0.20706 0.63562 0.0
H1477 H 0.2895 0.21714 0.65417 0.0
C1478 C 0.24409 0.19747 0.64005 0.0
C1479 C 0.22172 0.18523 0.63107 0.0
C1480 C 0.26708 0.1938 0.62803 0.0
C1481 C 0.22243 0.17051 0.60895 0.0
C1482 C 0.24519 0.16695 0.59676 0.0
C1483 C 0.29095 0.17258 0.59574 0.0
C1484 C 0.3137 0.18244 0.6064 0.0
C1485 C 0.26771 0.17798 0.60651 0.0
C1486 C 0.31273 0.19915 0.62706 0.0
C1487 C 0.28963 0.20481 0.63776 0.0
H1488 H 0.90949 0.25081 0.62302 0.0
H1489 H 0.83299 0.24208 0.59472 0.0
H1490 H 0.82628 0.28663 0.6026 0.0
H1491 H 0.84044 0.32679 0.62132 0.0
H1492 H 0.91627 0.33641 0.65088 0.0
H1493 H 0.92506 0.29282 0.63849 0.0
C1494 C 0.89152 0.25876 0.61812 0.0
C1495 C 0.87168 0.243 0.60844 0.0
C1496 C 0.88758 0.28446 0.62322 0.0
C1497 C 0.8485 0.25366 0.60231 0.0
C1498 C 0.84461 0.27915 0.6069 0.0
C1499 C 0.85899 0.31946 0.62497 0.0
C1500 C 0.87756 0.3347 0.63739 0.0
C1501 C 0.86374 0.2945 0.61802 0.0
C1502 C 0.90161 0.32503 0.64146 0.0
C1503 C 0.90658 0.30009 0.63445 0.0
H1504 H 0.71323 0.88274 0.57219 0.0
H1505 H 0.70701 0.91847 0.64509 0.0
H1506 H 0.75147 0.93143 0.64426 0.0
H1507 H 0.79258 0.9304 0.62419 0.0
H1508 H 0.7995 0.89365 0.5519 0.0
H1509 H 0.75421 0.8835 0.55109 0.0
C1510 C 0.72147 0.89359 0.58783 0.0
C1511 C 0.70665 0.89953 0.60876 0.0
C1512 C 0.74723 0.9007 0.58738 0.0
C1513 C 0.71784 0.91357 0.62879 0.0
C1514 C 0.74332 0.92095 0.62834 0.0
C1515 C 0.78424 0.92033 0.6081 0.0
C1516 C 0.7996 0.91272 0.58815 0.0
C1517 C 0.75828 0.91427 0.60794 0.0
C1518 C 0.78826 0.89977 0.5675 0.0
C1519 C 0.76233 0.89388 0.56708 0.0
H1520 H 0.37507 0.20201 0.17539 0.0
H1521 H 0.33262 0.13252 0.16247 0.0
H1522 H 0.32837 0.12766 0.20755 0.0
H1523 H 0.34102 0.14026 0.25022 0.0
H1524 H 0.3849 0.20864 0.26397 0.0
H1525 H 0.38418 0.21695 0.21889 0.0
C1526 C 0.36432 0.18614 0.18241 0.0
C1527 C 0.35422 0.16756 0.16554 0.0
C1528 C 0.3626 0.18306 0.20847 0.0
C1529 C 0.3406 0.14701 0.17501 0.0
C1530 C 0.33829 0.14415 0.2008 0.0
C1531 C 0.35026 0.15714 0.24343 0.0
C1532 C 0.36334 0.17362 0.26037 0.0
C1533 C 0.34996 0.16158 0.21764 0.0
C1534 C 0.37479 0.19562 0.2513 0.0
C1535 C 0.37444 0.2003 0.22553 0.0
H1536 H 0.92121 0.36867 0.33782 0.0
H1537 H 0.867 0.42715 0.34632 0.0
H1538 H 0.86247 0.42945 0.30079 0.0
H1539 H 0.87713 0.41794 0.25896 0.0
H1540 H 0.93138 0.35966 0.25009 0.0
H1541 H 0.93249 0.35394 0.29556 0.0
C1542 C 0.90819 0.38175 0.32972 0.0
C1543 C 0.89473 0.39801 0.34543 0.0
C1544 C 0.90583 0.38308 0.30355 0.0
C1545 C 0.87765 0.41453 0.33467 0.0
C1546 C 0.87514 0.41592 0.30864 0.0
C1547 C 0.88904 0.40381 0.26695 0.0
C1548 C 0.90448 0.3895 0.2513 0.0
C1549 C 0.88965 0.40079 0.29296 0.0
C1550 C 0.91941 0.37093 0.2618 0.0
C1551 C 0.92013 0.36777 0.28777 0.0
H1552 H 0.6641 0.84244 0.23946 0.0
H1553 H 0.60583 0.89446 0.22172 0.0
H1554 H 0.59422 0.89655 0.26599 0.0
H1555 H 0.60329 0.88633 0.3101 0.0
H1556 H 0.66102 0.83346 0.32735 0.0
H1557 H 0.67008 0.82875 0.28277 0.0
C1558 C 0.64869 0.85407 0.24525 0.0
C1559 C 0.63604 0.86856 0.22742 0.0
C1560 C 0.64215 0.85509 0.27061 0.0
C1561 C 0.61584 0.88317 0.23508 0.0
C1562 C 0.60932 0.88446 0.2604 0.0
C1563 C 0.6177 0.87358 0.30409 0.0
C1564 C 0.63171 0.86049 0.32209 0.0
C1565 C 0.62275 0.87093 0.2784 0.0
C1566 C 0.65002 0.84377 0.31394 0.0
C1567 C 0.65527 0.84117 0.28845 0.0
H1568 H 0.17603 0.63132 0.27146 0.0
H1569 H 0.11389 0.67106 0.23917 0.0
H1570 H 0.09777 0.67952 0.28093 0.0
H1571 H 0.09955 0.673 0.32621 0.0
H1572 H 0.16155 0.63348 0.35889 0.0
H1573 H 0.17959 0.62768 0.31733 0.0
C1574 C 0.1591 0.64206 0.27355 0.0
C1575 C 0.14608 0.65035 0.25212 0.0
C1576 C 0.14982 0.64674 0.29766 0.0
C1577 C 0.12429 0.66441 0.25525 0.0
C1578 C 0.11498 0.66917 0.27915 0.0
C1579 C 0.11709 0.66322 0.3243 0.0
C1580 C 0.12904 0.65342 0.3456 0.0
C1581 C 0.1273 0.65998 0.30042 0.0
C1582 C 0.15194 0.64114 0.3428 0.0
C1583 C 0.16222 0.63777 0.31903 0.0
H1584 H 0.40875 0.92912 0.78097 0.0
H1585 H 0.34935 0.87314 0.78844 0.0
H1586 H 0.33473 0.88081 0.74545 0.0
H1587 H 0.34171 0.90049 0.70459 0.0
H1588 H 0.40147 0.95636 0.69768 0.0
H1589 H 0.41286 0.95191 0.74184 0.0
C1590 C 0.39246 0.91871 0.77328 0.0
C1591 C 0.38037 0.90029 0.7877 0.0
C1592 C 0.3843 0.92318 0.74867 0.0
C1593 C 0.359 0.88734 0.77768 0.0
C1594 C 0.35075 0.89166 0.75308 0.0
C1595 C 0.35701 0.91197 0.71281 0.0
C1596 C 0.37092 0.92854 0.69768 0.0
C1597 C 0.36366 0.9091 0.73821 0.0
C1598 C 0.39049 0.94343 0.70877 0.0
C1599 C 0.39712 0.94079 0.73402 0.0
H1600 H 0.20499 0.40178 0.84061 0.0
H1601 H 0.14546 0.45315 0.85634 0.0
H1602 H 0.14525 0.4662 0.81267 0.0
H1603 H 0.15885 0.4597 0.76933 0.0
H1604 H 0.21771 0.40763 0.75339 0.0
H1605 H 0.22158 0.39846 0.798 0.0
C1606 C 0.19213 0.41605 0.83459 0.0
C1607 C 0.17501 0.42624 0.85169 0.0
C1608 C 0.19195 0.42325 0.8094 0.0
C1609 C 0.15876 0.44494 0.8436 0.0
C1610 C 0.15857 0.45233 0.81859 0.0
C1611 C 0.17279 0.44658 0.77562 0.0
C1612 C 0.18779 0.43415 0.75796 0.0
C1613 C 0.17461 0.44112 0.80122 0.0
C1614 C 0.20594 0.41746 0.76652 0.0
C1615 C 0.20802 0.41208 0.79203 0.0
H1616 H 0.59855 0.131 0.70653 0.0
H1617 H 0.66186 0.18301 0.70134 0.0
H1618 H 0.66949 0.18059 0.74655 0.0
H1619 H 0.66127 0.15973 0.78634 0.0
H1620 H 0.59842 0.10712 0.79131 0.0
H1621 H 0.58748 0.11376 0.74726 0.0
C1622 C 0.61378 0.14216 0.71534 0.0
C1623 C 0.62981 0.15694 0.70054 0.0
C1624 C 0.61835 0.14024 0.74119 0.0
C1625 C 0.64924 0.17151 0.71228 0.0
C1626 C 0.65374 0.16993 0.7381 0.0
C1627 C 0.64505 0.14984 0.77785 0.0
C1628 C 0.63092 0.13259 0.79195 0.0
C1629 C 0.63895 0.1537 0.75254 0.0
C1630 C 0.60969 0.12033 0.78082 0.0
C1631 C 0.60347 0.1241 0.75564 0.0
H1632 H 0.92097 0.67541 0.8211 0.0
H1633 H 0.94376 0.6012 0.79867 0.0
H1634 H 0.9435 0.61326 0.75487 0.0
H1635 H 0.9317 0.64308 0.72261 0.0
H1636 H 0.90568 0.7162 0.74462 0.0
H1637 H 0.91276 0.70665 0.78873 0.0
C1638 C 0.92631 0.66207 0.80664 0.0
C1639 C 0.93211 0.63739 0.81309 0.0
C1640 C 0.92544 0.66892 0.78134 0.0
C1641 C 0.93891 0.62024 0.79416 0.0
C1642 C 0.9388 0.62712 0.76909 0.0
C1643 C 0.92821 0.65715 0.73703 0.0
C1644 C 0.91812 0.68027 0.73039 0.0
C1645 C 0.93137 0.65116 0.76238 0.0
C1646 C 0.91338 0.69821 0.74931 0.0
C1647 C 0.9173 0.69272 0.77454 0.0
H1648 H 0.2512 0.40394 0.19086 0.0
H1649 H 0.22814 0.36374 0.12285 0.0
H1650 H 0.27168 0.35239 0.11561 0.0
H1651 H 0.31652 0.35658 0.1267 0.0
H1652 H 0.34028 0.39842 0.19351 0.0
H1653 H 0.29627 0.40633 0.20313 0.0
C1654 C 0.25564 0.39233 0.17468 0.0
C1655 C 0.23638 0.38471 0.1574 0.0
C1656 C 0.2809 0.3864 0.17026 0.0
C1657 C 0.24256 0.3699 0.13641 0.0
C1658 C 0.26748 0.36347 0.13221 0.0
C1659 C 0.31214 0.36727 0.1435 0.0
C1660 C 0.33178 0.377 0.15927 0.0
C1661 C 0.28686 0.37206 0.1487 0.0
C1662 C 0.32562 0.39077 0.18097 0.0
C1663 C 0.30042 0.39532 0.18648 0.0
H1664 H 0.26867 0.65873 0.93663 0.0
H1665 H 0.23426 0.59523 0.8962 0.0
H1666 H 0.27561 0.58207 0.88273 0.0
H1667 H 0.32106 0.59016 0.87982 0.0
H1668 H 0.35595 0.65351 0.91994 0.0
H1669 H 0.31494 0.66492 0.93642 0.0
C1670 C 0.27021 0.64189 0.92504 0.0
C1671 C 0.24825 0.62815 0.91726 0.0
C1672 C 0.29415 0.63441 0.91726 0.0
C1673 C 0.25072 0.60625 0.90242 0.0
C1674 C 0.27441 0.59871 0.89465 0.0
C1675 C 0.31979 0.60635 0.89237 0.0
C1676 C 0.34157 0.62109 0.89844 0.0
C1677 C 0.29617 0.61289 0.90157 0.0
C1678 C 0.33954 0.64182 0.91495 0.0
C1679 C 0.31605 0.64843 0.92427 0.0
H1680 H 0.38126 0.19941 0.87505 0.0
H1681 H 0.3933 0.21971 0.79832 0.0
H1682 H 0.39526 0.26418 0.81066 0.0
H1683 H 0.39723 0.29726 0.84388 0.0
H1684 H 0.38618 0.27639 0.92067 0.0
H1685 H 0.38034 0.23251 0.90769 0.0
C1686 C 0.38372 0.21356 0.86092 0.0
C1687 C 0.38711 0.20614 0.83577 0.0
C1688 C 0.38552 0.23914 0.86824 0.0
C1689 C 0.39061 0.22483 0.81781 0.0
C1690 C 0.39192 0.25031 0.82488 0.0
C1691 C 0.39345 0.28313 0.85775 0.0
C1692 C 0.39242 0.29024 0.88326 0.0
C1693 C 0.39009 0.25768 0.85015 0.0
C1694 C 0.38727 0.2716 0.90092 0.0
C1695 C 0.38385 0.24639 0.89352 0.0
H1696 H 0.82128 0.37245 0.96749 0.0
H1697 H 0.832 0.3267 0.90104 0.0
H1698 H 0.78657 0.31802 0.89775 0.0
H1699 H 0.7437 0.32766 0.91083 0.0
H1700 H 0.73279 0.37353 0.97711 0.0
H1701 H 0.77854 0.37775 0.9836 0.0
C1702 C 0.81372 0.36026 0.95249 0.0
C1703 C 0.82997 0.35049 0.93432 0.0
C1704 C 0.78758 0.35558 0.95059 0.0
C1705 C 0.81994 0.33445 0.91523 0.0
C1706 C 0.79394 0.32964 0.91325 0.0
C1707 C 0.75133 0.33833 0.9269 0.0
C1708 C 0.73492 0.3506 0.94329 0.0
C1709 C 0.77756 0.34076 0.93036 0.0
C1710 C 0.74503 0.36397 0.96423 0.0
C1711 C 0.77117 0.36649 0.96784 0.0
H1712 H 0.71154 0.70874 0.89271 0.0
H1713 H 0.65277 0.68706 0.94336 0.0
H1714 H 0.64032 0.73079 0.94735 0.0
H1715 H 0.64347 0.77433 0.93326 0.0
H1716 H 0.70195 0.79609 0.88238 0.0
H1717 H 0.71724 0.75312 0.88175 0.0
C1718 C 0.69621 0.7136 0.9049 0.0
C1719 C 0.68293 0.69456 0.91749 0.0
C1720 C 0.68893 0.73874 0.90684 0.0
C1721 C 0.66329 0.70127 0.9334 0.0
C1722 C 0.65606 0.72627 0.93557 0.0
C1723 C 0.65967 0.76973 0.92214 0.0
C1724 C 0.67133 0.7883 0.90759 0.0
C1725 C 0.66829 0.74502 0.92184 0.0
C1726 C 0.69257 0.78213 0.89365 0.0
C1727 C 0.70127 0.75754 0.89324 0.0
H1728 H 0.81209 0.6513 0.11088 0.0
H1729 H 0.83222 0.5846 0.15032 0.0
H1730 H 0.78783 0.57119 0.15115 0.0
H1731 H 0.74316 0.58041 0.14411 0.0
H1732 H 0.72302 0.64715 0.10468 0.0
H1733 H 0.76762 0.65829 0.09998 0.0
C1734 C 0.8068 0.63372 0.11949 0.0
C1735 C 0.82544 0.61914 0.13084 0.0
C1736 C 0.78124 0.62614 0.11988 0.0
C1737 C 0.81828 0.59622 0.14155 0.0
C1738 C 0.79288 0.58858 0.14208 0.0
C1739 C 0.74849 0.59722 0.13414 0.0
C1740 C 0.72971 0.61306 0.12499 0.0
C1741 C 0.77417 0.60366 0.13179 0.0
C1742 C 0.73701 0.6346 0.1119 0.0
C1743 C 0.76254 0.64109 0.10938 0.0
H1744 H 0.34729 0.71564 0.13095 0.0
H1745 H 0.40525 0.70158 0.07715 0.0
H1746 H 0.41058 0.74673 0.07085 0.0
H1747 H 0.40154 0.79015 0.08335 0.0
H1748 H 0.3438 0.80464 0.13716 0.0
H1749 H 0.33543 0.75932 0.14053 0.0
C1750 C 0.36091 0.7224 0.11762 0.0
C1751 C 0.37604 0.70513 0.10472 0.0
C1752 C 0.36401 0.74847 0.11421 0.0
C1753 C 0.39339 0.71432 0.08736 0.0
C1754 C 0.39653 0.74019 0.08383 0.0
C1755 C 0.38693 0.78345 0.09567 0.0
C1756 C 0.3735 0.80081 0.11023 0.0
C1757 C 0.38237 0.75743 0.09759 0.0
C1758 C 0.35441 0.79175 0.12578 0.0
C1759 C 0.34973 0.76581 0.12779 0.0
H1760 H 0.64631 0.29506 0.11959 0.0
H1761 H 0.70647 0.27811 0.17146 0.0
H1762 H 0.70368 0.23397 0.15848 0.0
H1763 H 0.68147 0.19923 0.13527 0.0
H1764 H 0.62079 0.21618 0.08399 0.0
H1765 H 0.62668 0.26088 0.09363 0.0
C1766 C 0.65907 0.2818 0.12777 0.0
C1767 C 0.67638 0.28998 0.14667 0.0
C1768 C 0.65717 0.2562 0.12045 0.0
C1769 C 0.69277 0.27241 0.15703 0.0
C1770 C 0.69119 0.24706 0.14964 0.0
C1771 C 0.66984 0.21273 0.12589 0.0
C1772 C 0.65057 0.20422 0.10911 0.0
C1773 C 0.67306 0.23859 0.1318 0.0
C1774 C 0.63564 0.22208 0.09718 0.0
C1775 C 0.63895 0.24774 0.1027 0.0
H1776 H 0.90964 0.76694 0.66218 0.0
H1777 H 0.84086 0.73487 0.62948 0.0
H1778 H 0.82831 0.7766 0.61637 0.0
H1779 H 0.83921 0.82123 0.61026 0.0
H1780 H 0.90833 0.85299 0.64265 0.0
H1781 H 0.91826 0.81233 0.66015 0.0
C1782 C 0.89175 0.7691 0.65242 0.0
C1783 C 0.87636 0.74779 0.64647 0.0
C1784 C 0.88481 0.79305 0.6448 0.0
C1785 C 0.85307 0.75095 0.6342 0.0
C1786 C 0.84596 0.77479 0.62661 0.0
C1787 C 0.85629 0.81936 0.62143 0.0
C1788 C 0.87319 0.84006 0.62482 0.0
C1789 C 0.86203 0.79584 0.6312 0.0
C1790 C 0.89505 0.83738 0.63964 0.0
C1791 C 0.90081 0.81408 0.64955 0.0
H1792 H 0.20992 0.90637 0.59906 0.0
H1793 H 0.20804 0.98216 0.57187 0.0
H1794 H 0.25392 0.98467 0.57257 0.0
H1795 H 0.29434 0.96692 0.58398 0.0
H1796 H 0.29728 0.89157 0.6118 0.0
H1797 H 0.25123 0.88722 0.6075 0.0
C1798 C 0.21953 0.92332 0.59295 0.0
C1799 C 0.20539 0.94414 0.58559 0.0
C1800 C 0.24611 0.92478 0.59368 0.0
C1801 C 0.21829 0.9659 0.57774 0.0
C1802 C 0.24459 0.96739 0.57819 0.0
C1803 C 0.28499 0.94943 0.58897 0.0
C1804 C 0.29925 0.92969 0.59848 0.0
C1805 C 0.25864 0.94719 0.58664 0.0
C1806 C 0.28678 0.90706 0.60447 0.0
C1807 C 0.26044 0.90463 0.60211 0.0
H1808 H 0.17967 0.33121 0.71715 0.0
H1809 H 0.1236 0.35342 0.66296 0.0
H1810 H 0.11039 0.30946 0.65611 0.0
H1811 H 0.11746 0.26471 0.66253 0.0
H1812 H 0.17429 0.24223 0.71576 0.0
H1813 H 0.18431 0.28642 0.72618 0.0
C1814 C 0.16435 0.32651 0.70403 0.0
C1815 C 0.15282 0.34565 0.69039 0.0
C1816 C 0.1571 0.30114 0.69992 0.0
C1817 C 0.13286 0.33915 0.67366 0.0
C1818 C 0.12537 0.31397 0.66966 0.0
C1819 C 0.13189 0.26941 0.67662 0.0
C1820 C 0.1453 0.25013 0.68816 0.0
C1821 C 0.13777 0.29481 0.68222 0.0
C1822 C 0.16371 0.25663 0.70656 0.0
C1823 C 0.16952 0.28192 0.71243 0.0
H1824 H 0.73523 0.15881 0.6706 0.0
H1825 H 0.72018 0.10621 0.60915 0.0
H1826 H 0.76544 0.10162 0.60357 0.0
H1827 H 0.8088 0.11661 0.61266 0.0
H1828 H 0.82387 0.17052 0.67294 0.0
H1829 H 0.77898 0.17032 0.68266 0.0
C1830 C 0.7418 0.14603 0.65619 0.0
C1831 C 0.72427 0.13313 0.64006 0.0
C1832 C 0.76783 0.14392 0.65275 0.0
C1833 C 0.73318 0.11643 0.62175 0.0
C1834 C 0.75909 0.11393 0.61846 0.0
C1835 C 0.80235 0.1281 0.62816 0.0
C1836 C 0.81965 0.14386 0.64184 0.0
C1837 C 0.77652 0.12822 0.6333 0.0
C1838 C 0.81099 0.1583 0.66207 0.0
C1839 C 0.78529 0.15829 0.66753 0.0
H1840 H 0.87182 0.3191 0.43806 0.0
H1841 H 0.94744 0.3388 0.41627 0.0
H1842 H 0.9561 0.2942 0.40911 0.0
H1843 H 0.94068 0.24996 0.4053 0.0
H1844 H 0.86502 0.23078 0.42778 0.0
H1845 H 0.858 0.27475 0.43865 0.0
C1846 C 0.89032 0.31363 0.43203 0.0
C1847 C 0.9089 0.33229 0.42747 0.0
C1848 C 0.8951 0.28802 0.42794 0.0
C1849 C 0.93284 0.32485 0.41996 0.0
C1850 C 0.93772 0.29934 0.41572 0.0
C1851 C 0.92276 0.25532 0.4129 0.0
C1852 C 0.90332 0.23698 0.41544 0.0
C1853 C 0.91879 0.28079 0.41909 0.0
C1854 C 0.88032 0.24435 0.42555 0.0
C1855 C 0.87623 0.26958 0.43168 0.0
H1856 H 0.79216 0.9341 0.41818 0.0
H1857 H 0.8127 0.87684 0.47026 0.0
H1858 H 0.76881 0.86183 0.4711 0.0
H1859 H 0.72522 0.86305 0.45477 0.0
H1860 H 0.70474 0.9201 0.40244 0.0
H1861 H 0.74798 0.93716 0.40412 0.0
C1862 C 0.78707 0.91845 0.42991 0.0
C1863 C 0.80589 0.9065 0.44399 0.0
C1864 C 0.76179 0.90978 0.43014 0.0
C1865 C 0.79875 0.88639 0.45919 0.0
C1866 C 0.77361 0.87773 0.45961 0.0
C1867 C 0.7301 0.87935 0.44384 0.0
C1868 C 0.71167 0.89012 0.4283 0.0
C1869 C 0.75507 0.88898 0.4448 0.0
C1870 C 0.71844 0.91137 0.41451 0.0
C1871 C 0.74322 0.9211 0.41541 0.0
H1872 H 0.11542 0.74559 0.38427 0.0
H1873 H 0.07268 0.72863 0.44997 0.0
H1874 H 0.07203 0.77343 0.46128 0.0
H1875 H 0.08824 0.81668 0.45509 0.0
H1876 H 0.13 0.83366 0.38876 0.0
H1877 H 0.12638 0.78955 0.37497 0.0
C1878 C 0.10551 0.75178 0.40079 0.0
C1879 C 0.09433 0.73388 0.41641 0.0
C1880 C 0.1054 0.77748 0.40722 0.0
C1881 C 0.08133 0.74208 0.43761 0.0
C1882 C 0.08119 0.76766 0.4442 0.0
C1883 C 0.09631 0.81072 0.43749 0.0
C1884 C 0.10975 0.82823 0.42314 0.0
C1885 C 0.09391 0.78541 0.4296 0.0
C1886 C 0.11968 0.82047 0.40015 0.0
C1887 C 0.11767 0.79526 0.39231 0.0
H1888 H 0.27916 0.16846 0.3085 0.0
H1889 H 0.30236 0.11462 0.36301 0.0
H1890 H 0.2582 0.1055 0.37275 0.0
H1891 H 0.21362 0.11684 0.36938 0.0
H1892 H 0.19076 0.17116 0.31512 0.0
H1893 H 0.23425 0.17591 0.30147 0.0
C1894 C 0.27454 0.15443 0.32226 0.0
C1895 C 0.29398 0.14248 0.33529 0.0
C1896 C 0.24923 0.14958 0.32794 0.0
C1897 C 0.28774 0.12408 0.35276 0.0
C1898 C 0.26251 0.11902 0.35844 0.0
C1899 C 0.21809 0.12949 0.35434 0.0
C1900 C 0.19903 0.14396 0.34356 0.0
C1901 C 0.24318 0.13228 0.34674 0.0
C1902 C 0.20506 0.15993 0.32383 0.0
C1903 C 0.22995 0.16273 0.31608 0.0
H1904 H 0.6045 0.88791 0.73318 0.0
H1905 H 0.65428 0.82914 0.7105 0.0
H1906 H 0.66251 0.81949 0.75441 0.0
H1907 H 0.65754 0.82932 0.79923 0.0
H1908 H 0.60786 0.88811 0.82204 0.0
H1909 H 0.59747 0.89597 0.7781 0.0
C1910 C 0.61704 0.87287 0.73778 0.0
C1911 C 0.6289 0.85941 0.71842 0.0
C1912 C 0.62175 0.86744 0.76314 0.0
C1913 C 0.64492 0.83986 0.72489 0.0
C1914 C 0.64968 0.83436 0.75005 0.0
C1915 C 0.64426 0.84374 0.79466 0.0
C1916 C 0.63362 0.8582 0.81404 0.0
C1917 C 0.63849 0.84827 0.76933 0.0
C1918 C 0.61633 0.87667 0.80763 0.0
C1919 C 0.61046 0.88124 0.78245 0.0
H1920 H 0.1349 0.6628 0.8452 0.0
H1921 H 0.20249 0.70957 0.85157 0.0
H1922 H 0.19843 0.72002 0.80746 0.0
H1923 H 0.17829 0.71273 0.76641 0.0
H1924 H 0.1118 0.66462 0.7589 0.0
H1925 H 0.11263 0.65815 0.80423 0.0
C1926 C 0.14853 0.67561 0.83705 0.0
C1927 C 0.16912 0.68524 0.85171 0.0
C1928 C 0.14638 0.68115 0.81143 0.0
C1929 C 0.18658 0.70175 0.84077 0.0
C1930 C 0.1843 0.70771 0.8155 0.0
C1931 C 0.16377 0.70101 0.77465 0.0
C1932 C 0.14515 0.68896 0.75918 0.0
C1933 C 0.16468 0.697 0.80053 0.0
C1934 C 0.12638 0.67408 0.77031 0.0
C1935 C 0.12693 0.67028 0.79623 0.0
H1936 H 0.39744 0.09268 0.75159 0.0
H1937 H 0.45146 0.15203 0.77179 0.0
H1938 H 0.45363 0.16398 0.72792 0.0
H1939 H 0.43677 0.16054 0.68491 0.0
H1940 H 0.38185 0.10209 0.66466 0.0
H1941 H 0.38361 0.08665 0.70757 0.0
C1942 C 0.40999 0.10802 0.7464 0.0
C1943 C 0.42407 0.12163 0.76508 0.0
C1944 C 0.41077 0.11509 0.72119 0.0
C1945 C 0.44039 0.14127 0.75789 0.0
C1946 C 0.44151 0.14821 0.7328 0.0
C1947 C 0.42531 0.14426 0.68977 0.0
C1948 C 0.40889 0.1327 0.67167 0.0
C1949 C 0.42622 0.13573 0.71447 0.0
C1950 C 0.39454 0.11139 0.67823 0.0
C1951 C 0.39548 0.10264 0.70279 0.0
H1952 H 0.90032 0.43178 0.75843 0.0
H1953 H 0.83653 0.38221 0.74084 0.0
H1954 H 0.83488 0.36995 0.78472 0.0
H1955 H 0.85329 0.37122 0.82742 0.0
H1956 H 0.91723 0.42067 0.84483 0.0
H1957 H 0.91692 0.43518 0.80167 0.0
C1958 C 0.8859 0.41842 0.76417 0.0
C1959 C 0.86868 0.40779 0.74621 0.0
C1960 C 0.88516 0.41135 0.7894 0.0
C1961 C 0.85003 0.39068 0.75416 0.0
C1962 C 0.84914 0.38359 0.77927 0.0
C1963 C 0.86707 0.38533 0.82188 0.0
C1964 C 0.8854 0.39469 0.83942 0.0
C1965 C 0.86687 0.39348 0.79696 0.0
C1966 C 0.90294 0.41311 0.83183 0.0
C1967 C 0.90282 0.42135 0.80709 0.0
H1968 H 0.5894 0.14525 0.27322 0.0
H1969 H 0.65575 0.10739 0.29858 0.0
H1970 H 0.66558 0.09626 0.25523 0.0
H1971 H 0.65792 0.10163 0.2101 0.0
H1972 H 0.59154 0.13944 0.18476 0.0
H1973 H 0.57901 0.14615 0.22821 0.0
C1974 C 0.6058 0.1342 0.26929 0.0
C1975 C 0.622 0.12741 0.28906 0.0
C1976 C 0.61147 0.12815 0.24434 0.0
C1977 C 0.64298 0.11284 0.28372 0.0
C1978 C 0.64871 0.10665 0.25891 0.0
C1979 C 0.64057 0.11113 0.21408 0.0
C1980 C 0.62587 0.1204 0.19427 0.0
C1981 C 0.63352 0.11491 0.23907 0.0
C1982 C 0.60323 0.13224 0.19968 0.0
C1983 C 0.59611 0.13615 0.22452 0.0
H1984 H 0.93168 0.68674 0.30109 0.0
H1985 H 0.87038 0.63843 0.32454 0.0
H1986 H 0.85792 0.63024 0.28068 0.0
H1987 H 0.86661 0.63411 0.23575 0.0
H1988 H 0.9284 0.68201 0.21259 0.0
H1989 H 0.9383 0.69323 0.25633 0.0
C1990 C 0.91545 0.67456 0.29668 0.0
C1991 C 0.90215 0.663 0.31614 0.0
C1992 C 0.90853 0.6698 0.27145 0.0
C1993 C 0.881 0.64752 0.30999 0.0
C1994 C 0.87392 0.64277 0.28489 0.0
C1995 C 0.88208 0.64725 0.24021 0.0
C1996 C 0.89687 0.65702 0.22082 0.0
C1997 C 0.88787 0.6534 0.26547 0.0
C1998 C 0.91672 0.67414 0.22704 0.0
C1999 C 0.92247 0.68049 0.25209 0.0
H2000 H 0.36731 0.92566 0.20805 0.0
H2001 H 0.42868 0.87467 0.20052 0.0
H2002 H 0.43626 0.87705 0.24597 0.0
H2003 H 0.42348 0.89139 0.28804 0.0
H2004 H 0.36204 0.94245 0.29515 0.0
H2005 H 0.3566 0.94236 0.24959 0.0
C2006 C 0.38248 0.91514 0.21627 0.0
C2007 C 0.39725 0.89977 0.20083 0.0
C2008 C 0.38664 0.91655 0.24237 0.0
C2009 C 0.41701 0.8866 0.21187 0.0
C2010 C 0.42127 0.88789 0.2379 0.0
C2011 C 0.409 0.90268 0.27966 0.0
C2012 C 0.39303 0.91676 0.29516 0.0
C2013 C 0.4059 0.90246 0.25337 0.0
C2014 C 0.37457 0.93142 0.28382 0.0
C2015 C 0.37139 0.9313 0.25772 0.0
H2016 H 0.13231 0.43809 0.33777 0.0
H2017 H 0.20626 0.41686 0.36267 0.0
H2018 H 0.22263 0.42451 0.32072 0.0
H2019 H 0.21468 0.43336 0.27598 0.0
H2020 H 0.14074 0.45607 0.25202 0.0
H2021 H 0.12575 0.45225 0.2947 0.0
C2022 C 0.15208 0.43537 0.33406 0.0
C2023 C 0.168 0.42654 0.35312 0.0
C2024 C 0.16133 0.44011 0.31008 0.0
C2025 C 0.19365 0.42356 0.34825 0.0
C2026 C 0.20296 0.42786 0.32426 0.0
C2027 C 0.19541 0.43792 0.28018 0.0
C2028 C 0.17882 0.44473 0.26066 0.0
C2029 C 0.18683 0.43561 0.30487 0.0
C2030 C 0.15397 0.45079 0.26655 0.0
C2031 C 0.14529 0.44842 0.29097 0.0
H2032 H 0.75307 0.58962 0.9066 0.0
H2033 H 0.75932 0.62226 0.83358 0.0
H2034 H 0.80517 0.61865 0.83598 0.0
H2035 H 0.84367 0.60984 0.86062 0.0
H2036 H 0.8368 0.5791 0.93442 0.0
H2037 H 0.79099 0.57809 0.92973 0.0
C2038 C 0.76436 0.59578 0.89105 0.0
C2039 C 0.75267 0.60646 0.87003 0.0
C2040 C 0.79067 0.59402 0.89274 0.0
C2041 C 0.76773 0.61408 0.85003 0.0
C2042 C 0.79399 0.61207 0.85143 0.0
C2043 C 0.83217 0.60246 0.87548 0.0
C2044 C 0.84371 0.59463 0.89791 0.0
C2045 C 0.80571 0.60256 0.87293 0.0
C2046 C 0.82846 0.58532 0.91703 0.0
C2047 C 0.80223 0.58482 0.9144 0.0
H2048 H 0.74493 0.4167 0.15628 0.0
H2049 H 0.73782 0.35934 0.21182 0.0
H2050 H 0.78351 0.36082 0.21881 0.0
H2051 H 0.82548 0.3751 0.2058 0.0
H2052 H 0.83287 0.43247 0.15038 0.0
H2053 H 0.78686 0.4346 0.14686 0.0
C2054 C 0.75336 0.40472 0.17013 0.0
C2055 C 0.73807 0.38765 0.18327 0.0
C2056 C 0.7796 0.40561 0.17393 0.0
C2057 C 0.74918 0.37257 0.20144 0.0
C2058 C 0.77529 0.37333 0.20533 0.0
C2059 C 0.81701 0.38829 0.19314 0.0
C2060 C 0.83246 0.40335 0.17806 0.0
C2061 C 0.79069 0.38926 0.19117 0.0
C2062 C 0.82133 0.42068 0.16212 0.0
C2063 C 0.79506 0.42177 0.16002 0.0
H2064 H 0.70388 0.71232 0.15246 0.0
H2065 H 0.63471 0.69501 0.19057 0.0
H2066 H 0.62634 0.73974 0.19466 0.0
H2067 H 0.63599 0.7831 0.183 0.0
H2068 H 0.70435 0.80073 0.14385 0.0
H2069 H 0.71582 0.75645 0.14475 0.0
C2070 C 0.68717 0.7183 0.16205 0.0
C2071 C 0.66977 0.70023 0.17088 0.0
C2072 C 0.68218 0.74408 0.16387 0.0
C2073 C 0.64835 0.70842 0.18344 0.0
C2074 C 0.64347 0.73403 0.18568 0.0
C2075 C 0.65354 0.77733 0.17485 0.0
C2076 C 0.66912 0.7951 0.16301 0.0
C2077 C 0.65981 0.75191 0.17521 0.0
C2078 C 0.69199 0.7874 0.15297 0.0
C2079 C 0.69848 0.76207 0.1534 0.0
H2080 H 0.22267 0.59082 0.11464 0.0
H2081 H 0.22969 0.61452 0.19224 0.0
H2082 H 0.2756 0.61732 0.18876 0.0
H2083 H 0.31367 0.61705 0.16215 0.0
H2084 H 0.30502 0.59372 0.08441 0.0
H2085 H 0.26016 0.58686 0.08956 0.0
C2086 C 0.23421 0.59624 0.13094 0.0
C2087 C 0.22266 0.60264 0.15357 0.0
C2088 C 0.26048 0.59823 0.12871 0.0
C2089 C 0.23803 0.60945 0.17454 0.0
C2090 C 0.26432 0.61124 0.17252 0.0
C2091 C 0.30198 0.61019 0.14647 0.0
C2092 C 0.3128 0.60631 0.12284 0.0
C2093 C 0.27577 0.60633 0.14947 0.0
C2094 C 0.29732 0.59728 0.10275 0.0
C2095 C 0.27154 0.59325 0.10564 0.0
H2096 H 0.42624 0.21716 0.09957 0.0
H2097 H 0.43466 0.19887 0.17766 0.0
H2098 H 0.43285 0.24329 0.18939 0.0
H2099 H 0.42538 0.28679 0.17789 0.0
H2100 H 0.41608 0.30537 0.10003 0.0
H2101 H 0.42162 0.26129 0.08784 0.0
C2102 C 0.4282 0.22288 0.11913 0.0
C2103 C 0.43052 0.20456 0.13769 0.0
C2104 C 0.42654 0.24848 0.12584 0.0
C2105 C 0.43292 0.21245 0.16294 0.0
C2106 C 0.43168 0.23788 0.16971 0.0
C2107 C 0.42459 0.28126 0.15822 0.0
C2108 C 0.41999 0.29935 0.13991 0.0
C2109 C 0.42783 0.25596 0.15137 0.0
C2110 C 0.41941 0.29184 0.11452 0.0
C2111 C 0.42262 0.26663 0.10754 0.0
H2112 H 0.30695 0.34219 0.90001 0.0
H2113 H 0.34052 0.40931 0.93464 0.0
H2114 H 0.29905 0.42257 0.9479 0.0
H2115 H 0.25304 0.41681 0.9466 0.0
H2116 H 0.21931 0.34959 0.91241 0.0
H2117 H 0.26113 0.33447 0.90231 0.0
C2118 C 0.30522 0.35962 0.91065 0.0
C2119 C 0.32677 0.37489 0.91607 0.0
C2120 C 0.28131 0.36712 0.91823 0.0
C2121 C 0.32425 0.39724 0.93017 0.0
C2122 C 0.30053 0.40488 0.93768 0.0
C2123 C 0.25485 0.39871 0.93718 0.0
C2124 C 0.23311 0.38445 0.93003 0.0
C2125 C 0.2789 0.39023 0.93136 0.0
C2126 C 0.23575 0.36091 0.91813 0.0
C2127 C 0.25965 0.35234 0.91221 0.0
H2128 H 0.63341 0.20811 0.85555 0.0
H2129 H 0.68332 0.17739 0.91108 0.0
H2130 H 0.6923 0.21958 0.92854 0.0
H2131 H 0.68289 0.26445 0.93032 0.0
H2132 H 0.63298 0.2952 0.87481 0.0
H2133 H 0.62721 0.25361 0.85483 0.0
C2134 C 0.64644 0.21067 0.87134 0.0
C2135 C 0.65744 0.18966 0.88225 0.0
C2136 C 0.65137 0.2349 0.88133 0.0
C2137 C 0.67458 0.19327 0.90241 0.0
C2138 C 0.67962 0.21736 0.91247 0.0
C2139 C 0.6709 0.26209 0.91372 0.0
C2140 C 0.65807 0.28275 0.90424 0.0
C2141 C 0.66763 0.23819 0.90245 0.0
C2142 C 0.64296 0.27954 0.8825 0.0
C2143 C 0.63959 0.25577 0.87115 0.0
H2144 H 0.45373 0.71909 0.87189 0.0
H2145 H 0.39263 0.69471 0.82201 0.0
H2146 H 0.38361 0.73857 0.81323 0.0
H2147 H 0.39076 0.78379 0.82262 0.0
H2148 H 0.45174 0.80795 0.8728 0.0
H2149 H 0.46322 0.76423 0.87837 0.0
C2150 C 0.43858 0.72331 0.85887 0.0
C2151 C 0.42372 0.70353 0.84781 0.0
C2152 C 0.43339 0.74857 0.85408 0.0
C2153 C 0.40437 0.70945 0.8308 0.0
C2154 C 0.39913 0.73457 0.82588 0.0
C2155 C 0.40676 0.77956 0.83457 0.0
C2156 C 0.42022 0.79926 0.84745 0.0
C2157 C 0.41315 0.75429 0.83785 0.0
C2158 C 0.44101 0.7933 0.86268 0.0
C2159 C 0.44752 0.76824 0.86596 0.0
loop_
_geom_bond_atom_site_label_1
_geom_bond_atom_site_label_2
_geom_bond_distance
_geom_bond_site_symmetry_2
_ccdc_geom_bond_type
Mg0 O7 2.141 . S
Mg0 O8 2.048 . S
Mg0 O9 2.048 . S
Mg0 O12 2.141 . S
C1 O2 1.313 . S
C1 O8 1.195 . S
O2 C1 1.313 . S
C3 O4 1.245 . S
C3 O12 1.289 . S
O4 C3 1.245 . S
C5 O6 1.245 . S
C5 O7 1.289 . S
O6 C5 1.245 . S
O7 Mg0 2.141 . S
O7 C5 1.289 . S
O8 Mg0 2.048 . S
O8 C1 1.195 . S
O9 Mg0 2.048 . S
O9 C10 1.195 . S
C10 O9 1.195 . S
C10 O11 1.313 . S
O11 C10 1.313 . S
O12 Mg0 2.141 . S
O12 C3 1.289 . S
Mg13 O20 2.141 . S
Mg13 O21 2.048 . S
Mg13 O22 2.048 . S
Mg13 O25 2.141 . S
C14 O15 1.313 . S
C14 O21 1.195 . S
O15 C14 1.313 . S
C16 O17 1.245 . S
C16 O25 1.289 . S
O17 C16 1.245 . S
C18 O19 1.245 . S
C18 O20 1.289 . S
O19 C18 1.245 . S
O20 Mg13 2.141 . S
O20 C18 1.289 . S
O21 Mg13 2.048 . S
O21 C14 1.195 . S
O22 Mg13 2.048 . S
O22 C23 1.195 . S
C23 O22 1.195 . S
C23 O24 1.313 . S
O24 C23 1.313 . S
O25 Mg13 2.141 . S
O25 C16 1.289 . S
Mg26 O33 2.141 . S
Mg26 O34 2.048 . S
Mg26 O35 2.048 . S
Mg26 O38 2.141 . S
C27 O28 1.313 . S
C27 O34 1.195 . S
O28 C27 1.313 . S
C29 O30 1.245 . S
C29 O38 1.289 . S
O30 C29 1.245 . S
C31 O32 1.245 . S
C31 O33 1.289 . S
O32 C31 1.245 . S
O33 Mg26 2.141 . S
O33 C31 1.289 . S
O34 Mg26 2.048 . S
O34 C27 1.195 . S
O35 Mg26 2.048 . S
O35 C36 1.195 . S
C36 O35 1.195 . S
C36 O37 1.313 . S
O37 C36 1.313 . S
O38 Mg26 2.141 . S
O38 C29 1.289 . S
Mg39 O46 2.141 . S
Mg39 O47 2.048 . S
Mg39 O48 2.048 . S
Mg39 O51 2.141 . S
C40 O41 1.313 . S
C40 O47 1.195 . S
O41 C40 1.313 . S
C42 O43 1.245 . S
C42 O51 1.289 . S
O43 C42 1.245 . S
C44 O45 1.245 . S
C44 O46 1.289 . S
O45 C44 1.245 . S
O46 Mg39 2.141 . S
O46 C44 1.289 . S
O47 Mg39 2.048 . S
O47 C40 1.195 . S
O48 Mg39 2.048 . S
O48 C49 1.195 . S
C49 O48 1.195 . S
C49 O50 1.313 . S
O50 C49 1.313 . S
O51 Mg39 2.141 . S
O51 C42 1.289 . S
Mg52 O59 2.141 . S
Mg52 O60 2.048 . S
Mg52 O61 2.048 . S
Mg52 O64 2.141 . S
C53 O54 1.313 . S
C53 O60 1.195 . S
O54 C53 1.313 . S
C55 O56 1.245 . S
C55 O64 1.289 . S
O56 C55 1.245 . S
C57 O58 1.245 . S
C57 O59 1.289 . S
O58 C57 1.245 . S
O59 Mg52 2.141 . S
O59 C57 1.289 . S
O60 Mg52 2.048 . S
O60 C53 1.195 . S
O61 Mg52 2.048 . S
O61 C62 1.195 . S
C62 O61 1.195 . S
C62 O63 1.313 . S
O63 C62 1.313 . S
O64 Mg52 2.141 . S
O64 C55 1.289 . S
Mg65 O72 2.141 . S
Mg65 O73 2.048 . S
Mg65 O74 2.048 . S
Mg65 O77 2.141 . S
C66 O67 1.313 . S
C66 O73 1.195 . S
O67 C66 1.313 . S
C68 O69 1.245 . S
C68 O77 1.289 . S
O69 C68 1.245 . S
C70 O71 1.245 . S
C70 O72 1.289 . S
O71 C70 1.245 . S
O72 Mg65 2.141 . S
O72 C70 1.289 . S
O73 Mg65 2.048 . S
O73 C66 1.195 . S
O74 Mg65 2.048 . S
O74 C75 1.195 . S
C75 O74 1.195 . S
C75 O76 1.313 . S
O76 C75 1.313 . S
O77 Mg65 2.141 . S
O77 C68 1.289 . S
Mg78 O85 2.141 . S
Mg78 O86 2.048 . S
Mg78 O87 2.048 . S
Mg78 O90 2.141 . S
C79 O80 1.313 . S
C79 O86 1.195 . S
O80 C79 1.313 . S
C81 O82 1.245 . S
C81 O90 1.289 . S
O82 C81 1.245 . S
C83 O84 1.245 . S
C83 O85 1.289 . S
O84 C83 1.245 . S
O85 Mg78 2.141 . S
O85 C83 1.289 . S
O86 Mg78 2.048 . S
O86 C79 1.195 . S
O87 Mg78 2.048 . S
O87 C88 1.195 . S
C88 O87 1.195 . S
C88 O89 1.313 . S
O89 C88 1.313 . S
O90 Mg78 2.141 . S
O90 C81 1.289 . S
Mg91 O98 2.141 . S
Mg91 O99 2.048 . S
Mg91 O100 2.048 . S
Mg91 O103 2.141 . S
C92 O93 1.313 . S
C92 O99 1.195 . S
O93 C92 1.313 . S
C94 O95 1.245 . S
C94 O103 1.289 . S
O95 C94 1.245 . S
C96 O97 1.245 . S
C96 O98 1.289 . S
O97 C96 1.245 . S
O98 Mg91 2.141 . S
O98 C96 1.289 . S
O99 Mg91 2.048 . S
O99 C92 1.195 . S
O100 Mg91 2.048 . S
O100 C101 1.195 . S
C101 O100 1.195 . S
C101 O102 1.313 . S
O102 C101 1.313 . S
O103 Mg91 2.141 . S
O103 C94 1.289 . S
Mg104 O111 2.141 . S
Mg104 O112 2.048 . S
Mg104 O113 2.048 . S
Mg104 O116 2.141 . S
C105 O106 1.313 . S
C105 O112 1.195 . S
O106 C105 1.313 . S
C107 O108 1.245 . S
C107 O116 1.289 . S
O108 C107 1.245 . S
C109 O110 1.245 . S
C109 O111 1.289 . S
O110 C109 1.245 . S
O111 Mg104 2.141 . S
O111 C109 1.289 . S
O112 Mg104 2.048 . S
O112 C105 1.195 . S
O113 Mg104 2.048 . S
O113 C114 1.195 . S
C114 O113 1.195 . S
C114 O115 1.313 . S
O115 C114 1.313 . S
O116 Mg104 2.141 . S
O116 C107 1.289 . S
Mg117 O124 2.141 . S
Mg117 O125 2.048 . S
Mg117 O126 2.048 . S
Mg117 O129 2.141 . S
C118 O119 1.313 . S
C118 O125 1.195 . S
O119 C118 1.313 . S
C120 O121 1.245 . S
C120 O129 1.289 . S
O121 C120 1.245 . S
C122 O123 1.245 . S
C122 O124 1.289 . S
O123 C122 1.245 . S
O124 Mg117 2.141 . S
O124 C122 1.289 . S
O125 Mg117 2.048 . S
O125 C118 1.195 . S
O126 Mg117 2.048 . S
O126 C127 1.195 . S
C127 O126 1.195 . S
C127 O128 1.313 . S
O128 C127 1.313 . S
O129 Mg117 2.141 . S
O129 C120 1.289 . S
Mg130 O137 2.141 . S
Mg130 O138 2.048 . S
Mg130 O139 2.048 . S
Mg130 O142 2.141 . S
C131 O132 1.313 . S
C131 O138 1.195 . S
O132 C131 1.313 . S
C133 O134 1.245 . S
C133 O142 1.289 . S
O134 C133 1.245 . S
C135 O136 1.245 . S
C135 O137 1.289 . S
O136 C135 1.245 . S
O137 Mg130 2.141 . S
O137 C135 1.289 . S
O138 Mg130 2.048 . S
O138 C131 1.195 . S
O139 Mg130 2.048 . S
O139 C140 1.195 . S
C140 O139 1.195 . S
C140 O141 1.313 . S
O141 C140 1.313 . S
O142 Mg130 2.141 . S
O142 C133 1.289 . S
Mg143 O150 2.141 . S
Mg143 O151 2.048 . S
Mg143 O152 2.048 . S
Mg143 O155 2.141 . S
C144 O145 1.313 . S
C144 O151 1.195 . S
O145 C144 1.313 . S
C146 O147 1.245 . S
C146 O155 1.289 . S
O147 C146 1.245 . S
C148 O149 1.245 . S
C148 O150 1.289 . S
O149 C148 1.245 . S
O150 Mg143 2.141 . S
O150 C148 1.289 . S
O151 Mg143 2.048 . S
O151 C144 1.195 . S
O152 Mg143 2.048 . S
O152 C153 1.195 . S
C153 O152 1.195 . S
C153 O154 1.313 . S
O154 C153 1.313 . S
O155 Mg143 2.141 . S
O155 C146 1.289 . S
Mg156 O163 2.141 . S
Mg156 O164 2.048 . S
Mg156 O165 2.048 . S
Mg156 O168 2.141 . S
C157 O158 1.313 . S
C157 O164 1.195 . S
O158 C157 1.313 . S
C159 O160 1.245 . S
C159 O168 1.289 . S
O160 C159 1.245 . S
C161 O162 1.245 . S
C161 O163 1.289 . S
O162 C161 1.245 . S
O163 Mg156 2.141 . S
O163 C161 1.289 . S
O164 Mg156 2.048 . S
O164 C157 1.195 . S
O165 Mg156 2.048 . S
O165 C166 1.195 . S
C166 O165 1.195 . S
C166 O167 1.313 . S
O167 C166 1.313 . S
O168 Mg156 2.141 . S
O168 C159 1.289 . S
Mg169 O176 2.141 . S
Mg169 O177 2.048 . S
Mg169 O178 2.048 . S
Mg169 O181 2.141 . S
C170 O171 1.313 . S
C170 O177 1.195 . S
O171 C170 1.313 . S
C172 O173 1.245 . S
C172 O181 1.289 . S
O173 C172 1.245 . S
C174 O175 1.245 . S
C174 O176 1.289 . S
O175 C174 1.245 . S
O176 Mg169 2.141 . S
O176 C174 1.289 . S
O177 Mg169 2.048 . S
O177 C170 1.195 . S
O178 Mg169 2.048 . S
O178 C179 1.195 . S
C179 O178 1.195 . S
C179 O180 1.313 . S
O180 C179 1.313 . S
O181 Mg169 2.141 . S
O181 C172 1.289 . S
Mg182 O189 2.141 . S
Mg182 O190 2.048 . S
Mg182 O191 2.048 . S
Mg182 O194 2.141 . S
C183 O184 1.313 . S
C183 O190 1.195 . S
O184 C183 1.313 . S
C185 O186 1.245 . S
C185 O194 1.289 . S
O186 C185 1.245 . S
C187 O188 1.245 . S
C187 O189 1.289 . S
O188 C187 1.245 . S
O189 Mg182 2.141 . S
O189 C187 1.289 . S
O190 Mg182 2.048 . S
O190 C183 1.195 . S
O191 Mg182 2.048 . S
O191 C192 1.195 . S
C192 O191 1.195 . S
C192 O193 1.313 . S
O193 C192 1.313 . S
O194 Mg182 2.141 . S
O194 C185 1.289 . S
Mg195 O202 2.141 . S
Mg195 O203 2.048 . S
Mg195 O204 2.048 . S
Mg195 O207 2.141 . S
C196 O197 1.313 . S
C196 O203 1.195 . S
O197 C196 1.313 . S
C198 O199 1.245 . S
C198 O207 1.289 . S
O199 C198 1.245 . S
C200 O201 1.245 . S
C200 O202 1.289 . S
O201 C200 1.245 . S
O202 Mg195 2.141 . S
O202 C200 1.289 . S
O203 Mg195 2.048 . S
O203 C196 1.195 . S
O204 Mg195 2.048 . S
O204 C205 1.195 . S
C205 O204 1.195 . S
C205 O206 1.313 . S
O206 C205 1.313 . S
O207 Mg195 2.141 . S
O207 C198 1.289 . S
Mg208 O215 2.141 . S
Mg208 O216 2.048 . S
Mg208 O217 2.048 . S
Mg208 O220 2.141 . S
C209 O210 1.313 . S
C209 O216 1.195 . S
O210 C209 1.313 . S
C211 O212 1.245 . S
C211 O220 1.289 . S
O212 C211 1.245 . S
C213 O214 1.245 . S
C213 O215 1.289 . S
O214 C213 1.245 . S
O215 Mg208 2.141 . S
O215 C213 1.289 . S
O216 Mg208 2.048 . S
O216 C209 1.195 . S
O217 Mg208 2.048 . S
O217 C218 1.195 . S
C218 O217 1.195 . S
C218 O219 1.313 . S
O219 C218 1.313 . S
O220 Mg208 2.141 . S
O220 C211 1.289 . S
Mg221 O228 2.141 . S
Mg221 O229 2.048 . S
Mg221 O230 2.048 . S
Mg221 O233 2.141 . S
C222 O223 1.313 . S
C222 O229 1.195 . S
O223 C222 1.313 . S
C224 O225 1.245 . S
C224 O233 1.289 . S
O225 C224 1.245 . S
C226 O227 1.245 . S
C226 O228 1.289 . S
O227 C226 1.245 . S
O228 Mg221 2.141 . S
O228 C226 1.289 . S
O229 Mg221 2.048 . S
O229 C222 1.195 . S
O230 Mg221 2.048 . S
O230 C231 1.195 . S
C231 O230 1.195 . S
C231 O232 1.313 . S
O232 C231 1.313 . S
O233 Mg221 2.141 . S
O233 C224 1.289 . S
Mg234 O241 2.141 . S
Mg234 O242 2.048 . S
Mg234 O243 2.048 . S
Mg234 O246 2.141 . S
C235 O236 1.313 . S
C235 O242 1.195 . S
O236 C235 1.313 . S
C237 O238 1.245 . S
C237 O246 1.289 . S
O238 C237 1.245 . S
C239 O240 1.245 . S
C239 O241 1.289 . S
O240 C239 1.245 . S
O241 Mg234 2.141 . S
O241 C239 1.289 . S
O242 Mg234 2.048 . S
O242 C235 1.195 . S
O243 Mg234 2.048 . S
O243 C244 1.195 . S
C244 O243 1.195 . S
C244 O245 1.313 . S
O245 C244 1.313 . S
O246 Mg234 2.141 . S
O246 C237 1.289 . S
Mg247 O254 2.141 . S
Mg247 O255 2.048 . S
Mg247 O256 2.048 . S
Mg247 O259 2.141 . S
C248 O249 1.313 . S
C248 O255 1.195 . S
O249 C248 1.313 . S
C250 O251 1.245 . S
C250 O259 1.289 . S
O251 C250 1.245 . S
C252 O253 1.245 . S
C252 O254 1.289 . S
O253 C252 1.245 . S
O254 Mg247 2.141 . S
O254 C252 1.289 . S
O255 Mg247 2.048 . S
O255 C248 1.195 . S
O256 Mg247 2.048 . S
O256 C257 1.195 . S
C257 O256 1.195 . S
C257 O258 1.313 . S
O258 C257 1.313 . S
O259 Mg247 2.141 . S
O259 C250 1.289 . S
Mg260 O267 2.141 . S
Mg260 O268 2.048 . S
Mg260 O269 2.048 . S
Mg260 O272 2.141 . S
C261 O262 1.313 . S
C261 O268 1.195 . S
O262 C261 1.313 . S
C263 O264 1.245 . S
C263 O272 1.289 . S
O264 C263 1.245 . S
C265 O266 1.245 . S
C265 O267 1.289 . S
O266 C265 1.245 . S
O267 Mg260 2.141 . S
O267 C265 1.289 . S
O268 Mg260 2.048 . S
O268 C261 1.195 . S
O269 Mg260 2.048 . S
O269 C270 1.195 . S
C270 O269 1.195 . S
C270 O271 1.313 . S
O271 C270 1.313 . S
O272 Mg260 2.141 . S
O272 C263 1.289 . S
Mg273 O280 2.141 . S
Mg273 O281 2.048 . S
Mg273 O282 2.048 . S
Mg273 O285 2.141 . S
C274 O275 1.313 . S
C274 O281 1.195 . S
O275 C274 1.313 . S
C276 O277 1.245 . S
C276 O285 1.289 . S
O277 C276 1.245 . S
C278 O279 1.245 . S
C278 O280 1.289 . S
O279 C278 1.245 . S
O280 Mg273 2.141 . S
O280 C278 1.289 . S
O281 Mg273 2.048 . S
O281 C274 1.195 . S
O282 Mg273 2.048 . S
O282 C283 1.195 . S
C283 O282 1.195 . S
C283 O284 1.313 . S
O284 C283 1.313 . S
O285 Mg273 2.141 . S
O285 C276 1.289 . S
Mg286 O293 2.141 . S
Mg286 O294 2.048 . S
Mg286 O295 2.048 . S
Mg286 O298 2.141 . S
C287 O288 1.313 . S
C287 O294 1.195 . S
O288 C287 1.313 . S
C289 O290 1.245 . S
C289 O298 1.289 . S
O290 C289 1.245 . S
C291 O292 1.245 . S
C291 O293 1.289 . S
O292 C291 1.245 . S
O293 Mg286 2.141 . S
O293 C291 1.289 . S
O294 Mg286 2.048 . S
O294 C287 1.195 . S
O295 Mg286 2.048 . S
O295 C296 1.195 . S
C296 O295 1.195 . S
C296 O297 1.313 . S
O297 C296 1.313 . S
O298 Mg286 2.141 . S
O298 C289 1.289 . S
Mg299 O306 2.141 . S
Mg299 O307 2.048 . S
Mg299 O308 2.048 . S
Mg299 O311 2.141 . S
C300 O301 1.313 . S
C300 O307 1.195 . S
O301 C300 1.313 . S
C302 O303 1.245 . S
C302 O311 1.289 . S
O303 C302 1.245 . S
C304 O305 1.245 . S
C304 O306 1.289 . S
O305 C304 1.245 . S
O306 Mg299 2.141 . S
O306 C304 1.289 . S
O307 Mg299 2.048 . S
O307 C300 1.195 . S
O308 Mg299 2.048 . S
O308 C309 1.195 . S
C309 O308 1.195 . S
C309 O310 1.313 . S
O310 C309 1.313 . S
O311 Mg299 2.141 . S
O311 C302 1.289 . S
Mg312 O319 2.141 . S
Mg312 O320 2.048 . S
Mg312 O321 2.048 . S
Mg312 O324 2.141 . S
C313 O314 1.313 . S
C313 O320 1.195 . S
O314 C313 1.313 . S
C315 O316 1.245 . S
C315 O324 1.289 . S
O316 C315 1.245 . S
C317 O318 1.245 . S
C317 O319 1.289 . S
O318 C317 1.245 . S
O319 Mg312 2.141 . S
O319 C317 1.289 . S
O320 Mg312 2.048 . S
O320 C313 1.195 . S
O321 Mg312 2.048 . S
O321 C322 1.195 . S
C322 O321 1.195 . S
C322 O323 1.313 . S
O323 C322 1.313 . S
O324 Mg312 2.141 . S
O324 C315 1.289 . S
Mg325 O332 2.141 . S
Mg325 O333 2.048 . S
Mg325 O334 2.048 . S
Mg325 O337 2.141 . S
C326 O327 1.313 . S
C326 O333 1.195 . S
O327 C326 1.313 . S
C328 O329 1.245 . S
C328 O337 1.289 . S
O329 C328 1.245 . S
C330 O331 1.245 . S
C330 O332 1.289 . S
O331 C330 1.245 . S
O332 Mg325 2.141 . S
O332 C330 1.289 . S
O333 Mg325 2.048 . S
O333 C326 1.195 . S
O334 Mg325 2.048 . S
O334 C335 1.195 . S
C335 O334 1.195 . S
C335 O336 1.313 . S
O336 C335 1.313 . S
O337 Mg325 2.141 . S
O337 C328 1.289 . S
Mg338 O345 2.141 . S
Mg338 O346 2.048 . S
Mg338 O347 2.048 . S
Mg338 O350 2.141 . S
C339 O340 1.313 . S
C339 O346 1.195 . S
O340 C339 1.313 . S
C341 O342 1.245 . S
C341 O350 1.289 . S
O342 C341 1.245 . S
C343 O344 1.245 . S
C343 O345 1.289 . S
O344 C343 1.245 . S
O345 Mg338 2.141 . S
O345 C343 1.289 . S
O346 Mg338 2.048 . S
O346 C339 1.195 . S
O347 Mg338 2.048 . S
O347 C348 1.195 . S
C348 O347 1.195 . S
C348 O349 1.313 . S
O349 C348 1.313 . S
O350 Mg338 2.141 . S
O350 C341 1.289 . S
Mg351 O358 2.141 . S
Mg351 O359 2.048 . S
Mg351 O360 2.048 . S
Mg351 O363 2.141 . S
C352 O353 1.313 . S
C352 O359 1.195 . S
O353 C352 1.313 . S
C354 O355 1.245 . S
C354 O363 1.289 . S
O355 C354 1.245 . S
C356 O357 1.245 . S
C356 O358 1.289 . S
O357 C356 1.245 . S
O358 Mg351 2.141 . S
O358 C356 1.289 . S
O359 Mg351 2.048 . S
O359 C352 1.195 . S
O360 Mg351 2.048 . S
O360 C361 1.195 . S
C361 O360 1.195 . S
C361 O362 1.313 . S
O362 C361 1.313 . S
O363 Mg351 2.141 . S
O363 C354 1.289 . S
Mg364 O371 2.141 . S
Mg364 O372 2.048 . S
Mg364 O373 2.048 . S
Mg364 O376 2.141 . S
C365 O366 1.313 . S
C365 O372 1.195 . S
O366 C365 1.313 . S
C367 O368 1.245 . S
C367 O376 1.289 . S
O368 C367 1.245 . S
C369 O370 1.245 . S
C369 O371 1.289 . S
O370 C369 1.245 . S
O371 Mg364 2.141 . S
O371 C369 1.289 . S
O372 Mg364 2.048 . S
O372 C365 1.195 . S
O373 Mg364 2.048 . S
O373 C374 1.195 . S
C374 O373 1.195 . S
C374 O375 1.313 . S
O375 C374 1.313 . S
O376 Mg364 2.141 . S
O376 C367 1.289 . S
Mg377 O384 2.141 . S
Mg377 O385 2.048 . S
Mg377 O386 2.048 . S
Mg377 O389 2.141 . S
C378 O379 1.313 . S
C378 O385 1.195 . S
O379 C378 1.313 . S
C380 O381 1.245 . S
C380 O389 1.289 . S
O381 C380 1.245 . S
C382 O383 1.245 . S
C382 O384 1.289 . S
O383 C382 1.245 . S
O384 Mg377 2.141 . S
O384 C382 1.289 . S
O385 Mg377 2.048 . S
O385 C378 1.195 . S
O386 Mg377 2.048 . S
O386 C387 1.195 . S
C387 O386 1.195 . S
C387 O388 1.313 . S
O388 C387 1.313 . S
O389 Mg377 2.141 . S
O389 C380 1.289 . S
Mg390 O397 2.141 . S
Mg390 O398 2.048 . S
Mg390 O399 2.048 . S
Mg390 O402 2.141 . S
C391 O392 1.313 . S
C391 O398 1.195 . S
O392 C391 1.313 . S
C393 O394 1.245 . S
C393 O402 1.289 . S
O394 C393 1.245 . S
C395 O396 1.245 . S
C395 O397 1.289 . S
O396 C395 1.245 . S
O397 Mg390 2.141 . S
O397 C395 1.289 . S
O398 Mg390 2.048 . S
O398 C391 1.195 . S
O399 Mg390 2.048 . S
O399 C400 1.195 . S
C400 O399 1.195 . S
C400 O401 1.313 . S
O401 C400 1.313 . S
O402 Mg390 2.141 . S
O402 C393 1.289 . S
Mg403 O410 2.141 . S
Mg403 O411 2.048 . S
Mg403 O412 2.048 . S
Mg403 O415 2.141 . S
C404 O405 1.313 . S
C404 O411 1.195 . S
O405 C404 1.313 . S
C406 O407 1.245 . S
C406 O415 1.289 . S
O407 C406 1.245 . S
C408 O409 1.245 . S
C408 O410 1.289 . S
O409 C408 1.245 . S
O410 Mg403 2.141 . S
O410 C408 1.289 . S
O411 Mg403 2.048 . S
O411 C404 1.195 . S
O412 Mg403 2.048 . S
O412 C413 1.195 . S
C413 O412 1.195 . S
C413 O414 1.313 . S
O414 C413 1.313 . S
O415 Mg403 2.141 . S
O415 C406 1.289 . S
Mg416 O423 2.141 . S
Mg416 O424 2.048 . S
Mg416 O425 2.048 . S
Mg416 O428 2.141 . S
C417 O418 1.313 . S
C417 O424 1.195 . S
O418 C417 1.313 . S
C419 O420 1.245 . S
C419 O428 1.289 . S
O420 C419 1.245 . S
C421 O422 1.245 . S
C421 O423 1.289 . S
O422 C421 1.245 . S
O423 Mg416 2.141 . S
O423 C421 1.289 . S
O424 Mg416 2.048 . S
O424 C417 1.195 . S
O425 Mg416 2.048 . S
O425 C426 1.195 . S
C426 O425 1.195 . S
C426 O427 1.313 . S
O427 C426 1.313 . S
O428 Mg416 2.141 . S
O428 C419 1.289 . S
Mg429 O436 2.141 . S
Mg429 O437 2.048 . S
Mg429 O438 2.048 . S
Mg429 O441 2.141 . S
C430 O431 1.313 . S
C430 O437 1.195 . S
O431 C430 1.313 . S
C432 O433 1.245 . S
C432 O441 1.289 . S
O433 C432 1.245 . S
C434 O435 1.245 . S
C434 O436 1.289 . S
O435 C434 1.245 . S
O436 Mg429 2.141 . S
O436 C434 1.289 . S
O437 Mg429 2.048 . S
O437 C430 1.195 . S
O438 Mg429 2.048 . S
O438 C439 1.195 . S
C439 O438 1.195 . S
C439 O440 1.313 . S
O440 C439 1.313 . S
O441 Mg429 2.141 . S
O441 C432 1.289 . S
Mg442 O449 2.141 . S
Mg442 O450 2.048 . S
Mg442 O451 2.048 . S
Mg442 O454 2.141 . S
C443 O444 1.313 . S
C443 O450 1.195 . S
O444 C443 1.313 . S
C445 O446 1.245 . S
C445 O454 1.289 . S
O446 C445 1.245 . S
C447 O448 1.245 . S
C447 O449 1.289 . S
O448 C447 1.245 . S
O449 Mg442 2.141 . S
O449 C447 1.289 . S
O450 Mg442 2.048 . S
O450 C443 1.195 . S
O451 Mg442 2.048 . S
O451 C452 1.195 . S
C452 O451 1.195 . S
C452 O453 1.313 . S
O453 C452 1.313 . S
O454 Mg442 2.141 . S
O454 C445 1.289 . S
Mg455 O462 2.141 . S
Mg455 O463 2.048 . S
Mg455 O464 2.048 . S
Mg455 O467 2.141 . S
C456 O457 1.313 . S
C456 O463 1.195 . S
O457 C456 1.313 . S
C458 O459 1.245 . S
C458 O467 1.289 . S
O459 C458 1.245 . S
C460 O461 1.245 . S
C460 O462 1.289 . S
O461 C460 1.245 . S
O462 Mg455 2.141 . S
O462 C460 1.289 . S
O463 Mg455 2.048 . S
O463 C456 1.195 . S
O464 Mg455 2.048 . S
O464 C465 1.195 . S
C465 O464 1.195 . S
C465 O466 1.313 . S
O466 C465 1.313 . S
O467 Mg455 2.141 . S
O467 C458 1.289 . S
Mg468 O475 2.141 . S
Mg468 O476 2.048 . S
Mg468 O477 2.048 . S
Mg468 O480 2.141 . S
C469 O470 1.313 . S
C469 O476 1.195 . S
O470 C469 1.313 . S
C471 O472 1.245 . S
C471 O480 1.289 . S
O472 C471 1.245 . S
C473 O474 1.245 . S
C473 O475 1.289 . S
O474 C473 1.245 . S
O475 Mg468 2.141 . S
O475 C473 1.289 . S
O476 Mg468 2.048 . S
O476 C469 1.195 . S
O477 Mg468 2.048 . S
O477 C478 1.195 . S
C478 O477 1.195 . S
C478 O479 1.313 . S
O479 C478 1.313 . S
O480 Mg468 2.141 . S
O480 C471 1.289 . S
Mg481 O488 2.141 . S
Mg481 O489 2.048 . S
Mg481 O490 2.048 . S
Mg481 O493 2.141 . S
C482 O483 1.313 . S
C482 O489 1.195 . S
O483 C482 1.313 . S
C484 O485 1.245 . S
C484 O493 1.289 . S
O485 C484 1.245 . S
C486 O487 1.245 . S
C486 O488 1.289 . S
O487 C486 1.245 . S
O488 Mg481 2.141 . S
O488 C486 1.289 . S
O489 Mg481 2.048 . S
O489 C482 1.195 . S
O490 Mg481 2.048 . S
O490 C491 1.195 . S
C491 O490 1.195 . S
C491 O492 1.313 . S
O492 C491 1.313 . S
O493 Mg481 2.141 . S
O493 C484 1.289 . S
Mg494 O501 2.141 . S
Mg494 O502 2.048 . S
Mg494 O503 2.048 . S
Mg494 O506 2.141 . S
C495 O496 1.313 . S
C495 O502 1.195 . S
O496 C495 1.313 . S
C497 O498 1.245 . S
C497 O506 1.289 . S
O498 C497 1.245 . S
C499 O500 1.245 . S
C499 O501 1.289 . S
O500 C499 1.245 . S
O501 Mg494 2.141 . S
O501 C499 1.289 . S
O502 Mg494 2.048 . S
O502 C495 1.195 . S
O503 Mg494 2.048 . S
O503 C504 1.195 . S
C504 O503 1.195 . S
C504 O505 1.313 . S
O505 C504 1.313 . S
O506 Mg494 2.141 . S
O506 C497 1.289 . S
Mg507 O514 2.141 . S
Mg507 O515 2.048 . S
Mg507 O516 2.048 . S
Mg507 O519 2.141 . S
C508 O509 1.313 . S
C508 O515 1.195 . S
O509 C508 1.313 . S
C510 O511 1.245 . S
C510 O519 1.289 . S
O511 C510 1.245 . S
C512 O513 1.245 . S
C512 O514 1.289 . S
O513 C512 1.245 . S
O514 Mg507 2.141 . S
O514 C512 1.289 . S
O515 Mg507 2.048 . S
O515 C508 1.195 . S
O516 Mg507 2.048 . S
O516 C517 1.195 . S
C517 O516 1.195 . S
C517 O518 1.313 . S
O518 C517 1.313 . S
O519 Mg507 2.141 . S
O519 C510 1.289 . S
Mg520 O527 2.141 . S
Mg520 O528 2.048 . S
Mg520 O529 2.048 . S
Mg520 O532 2.141 . S
C521 O522 1.313 . S
C521 O528 1.195 . S
O522 C521 1.313 . S
C523 O524 1.245 . S
C523 O532 1.289 . S
O524 C523 1.245 . S
C525 O526 1.245 . S
C525 O527 1.289 . S
O526 C525 1.245 . S
O527 Mg520 2.141 . S
O527 C525 1.289 . S
O528 Mg520 2.048 . S
O528 C521 1.195 . S
O529 Mg520 2.048 . S
O529 C530 1.195 . S
C530 O529 1.195 . S
C530 O531 1.313 . S
O531 C530 1.313 . S
O532 Mg520 2.141 . S
O532 C523 1.289 . S
Mg533 O540 2.141 . S
Mg533 O541 2.048 . S
Mg533 O542 2.048 . S
Mg533 O545 2.141 . S
C534 O535 1.313 . S
C534 O541 1.195 . S
O535 C534 1.313 . S
C536 O537 1.245 . S
C536 O545 1.289 . S
O537 C536 1.245 . S
C538 O539 1.245 . S
C538 O540 1.289 . S
O539 C538 1.245 . S
O540 Mg533 2.141 . S
O540 C538 1.289 . S
O541 Mg533 2.048 . S
O541 C534 1.195 . S
O542 Mg533 2.048 . S
O542 C543 1.195 . S
C543 O542 1.195 . S
C543 O544 1.313 . S
O544 C543 1.313 . S
O545 Mg533 2.141 . S
O545 C536 1.289 . S
Mg546 O553 2.141 . S
Mg546 O554 2.048 . S
Mg546 O555 2.048 . S
Mg546 O558 2.141 . S
C547 O548 1.313 . S
C547 O554 1.195 . S
O548 C547 1.313 . S
C549 O550 1.245 . S
C549 O558 1.289 . S
O550 C549 1.245 . S
C551 O552 1.245 . S
C551 O553 1.289 . S
O552 C551 1.245 . S
O553 Mg546 2.141 . S
O553 C551 1.289 . S
O554 Mg546 2.048 . S
O554 C547 1.195 . S
O555 Mg546 2.048 . S
O555 C556 1.195 . S
C556 O555 1.195 . S
C556 O557 1.313 . S
O557 C556 1.313 . S
O558 Mg546 2.141 . S
O558 C549 1.289 . S
Mg559 O566 2.141 . S
Mg559 O567 2.048 . S
Mg559 O568 2.048 . S
Mg559 O571 2.141 . S
C560 O561 1.313 . S
C560 O567 1.195 . S
O561 C560 1.313 . S
C562 O563 1.245 . S
C562 O571 1.289 . S
O563 C562 1.245 . S
C564 O565 1.245 . S
C564 O566 1.289 . S
O565 C564 1.245 . S
O566 Mg559 2.141 . S
O566 C564 1.289 . S
O567 Mg559 2.048 . S
O567 C560 1.195 . S
O568 Mg559 2.048 . S
O568 C569 1.195 . S
C569 O568 1.195 . S
C569 O570 1.313 . S
O570 C569 1.313 . S
O571 Mg559 2.141 . S
O571 C562 1.289 . S
Mg572 O579 2.141 . S
Mg572 O580 2.048 . S
Mg572 O581 2.048 . S
Mg572 O584 2.141 . S
C573 O574 1.313 . S
C573 O580 1.195 . S
O574 C573 1.313 . S
C575 O576 1.245 . S
C575 O584 1.289 . S
O576 C575 1.245 . S
C577 O578 1.245 . S
C577 O579 1.289 . S
O578 C577 1.245 . S
O579 Mg572 2.141 . S
O579 C577 1.289 . S
O580 Mg572 2.048 . S
O580 C573 1.195 . S
O581 Mg572 2.048 . S
O581 C582 1.195 . S
C582 O581 1.195 . S
C582 O583 1.313 . S
O583 C582 1.313 . S
O584 Mg572 2.141 . S
O584 C575 1.289 . S
Mg585 O592 2.141 . S
Mg585 O593 2.048 . S
Mg585 O594 2.048 . S
Mg585 O597 2.141 . S
C586 O587 1.313 . S
C586 O593 1.195 . S
O587 C586 1.313 . S
C588 O589 1.245 . S
C588 O597 1.289 . S
O589 C588 1.245 . S
C590 O591 1.245 . S
C590 O592 1.289 . S
O591 C590 1.245 . S
O592 Mg585 2.141 . S
O592 C590 1.289 . S
O593 Mg585 2.048 . S
O593 C586 1.195 . S
O594 Mg585 2.048 . S
O594 C595 1.195 . S
C595 O594 1.195 . S
C595 O596 1.313 . S
O596 C595 1.313 . S
O597 Mg585 2.141 . S
O597 C588 1.289 . S
Mg598 O605 2.141 . S
Mg598 O606 2.048 . S
Mg598 O607 2.048 . S
Mg598 O610 2.141 . S
C599 O600 1.313 . S
C599 O606 1.195 . S
O600 C599 1.313 . S
C601 O602 1.245 . S
C601 O610 1.289 . S
O602 C601 1.245 . S
C603 O604 1.245 . S
C603 O605 1.289 . S
O604 C603 1.245 . S
O605 Mg598 2.141 . S
O605 C603 1.289 . S
O606 Mg598 2.048 . S
O606 C599 1.195 . S
O607 Mg598 2.048 . S
O607 C608 1.195 . S
C608 O607 1.195 . S
C608 O609 1.313 . S
O609 C608 1.313 . S
O610 Mg598 2.141 . S
O610 C601 1.289 . S
Mg611 O618 2.141 . S
Mg611 O619 2.048 . S
Mg611 O620 2.048 . S
Mg611 O623 2.141 . S
C612 O613 1.313 . S
C612 O619 1.195 . S
O613 C612 1.313 . S
C614 O615 1.245 . S
C614 O623 1.289 . S
O615 C614 1.245 . S
C616 O617 1.245 . S
C616 O618 1.289 . S
O617 C616 1.245 . S
O618 Mg611 2.141 . S
O618 C616 1.289 . S
O619 Mg611 2.048 . S
O619 C612 1.195 . S
O620 Mg611 2.048 . S
O620 C621 1.195 . S
C621 O620 1.195 . S
C621 O622 1.313 . S
O622 C621 1.313 . S
O623 Mg611 2.141 . S
O623 C614 1.289 . S
H624 C630 0.930 . S
H625 C633 0.930 . S
H626 C634 0.930 . S
H627 C635 0.930 . S
H628 C638 0.930 . S
H629 C639 0.930 . S
C630 H624 0.930 . S
C630 C631 1.355 . S
C630 C632 1.415 . S
C631 C630 1.355 . S
C631 C633 1.419 . S
C632 C630 1.415 . S
C632 C637 1.425 1_565 S
C632 C639 1.409 1_565 S
C633 H625 0.930 . S
C633 C631 1.419 . S
C633 C634 1.362 . S
C634 H626 0.930 . S
C634 C633 1.362 . S
C634 C637 1.409 1_565 S
C635 H627 0.930 . S
C635 C636 1.355 . S
C635 C637 1.415 . S
C636 C635 1.355 . S
C636 C638 1.419 . S
C637 C632 1.425 1_545 S
C637 C634 1.409 1_545 S
C637 C635 1.415 . S
C638 H628 0.930 . S
C638 C636 1.419 . S
C638 C639 1.362 . S
C639 H629 0.930 . S
C639 C632 1.409 1_545 S
C639 C638 1.362 . S
H640 C646 0.930 . S
H641 C649 0.930 . S
H642 C650 0.930 . S
H643 C651 0.930 . S
H644 C654 0.930 . S
H645 C655 0.930 . S
C646 H640 0.930 . S
C646 C647 1.355 . S
C646 C648 1.415 . S
C647 C646 1.355 . S
C647 C649 1.419 . S
C648 C646 1.415 . S
C648 C653 1.425 1_455 S
C648 C655 1.409 1_455 S
C649 H641 0.930 . S
C649 C647 1.419 . S
C649 C650 1.362 . S
C650 H642 0.930 . S
C650 C649 1.362 . S
C650 C653 1.409 1_455 S
C651 H643 0.930 . S
C651 C652 1.355 . S
C651 C653 1.415 . S
C652 C651 1.355 . S
C652 C654 1.419 . S
C653 C648 1.425 1_655 S
C653 C650 1.409 1_655 S
C653 C651 1.415 . S
C654 H644 0.930 . S
C654 C652 1.419 . S
C654 C655 1.362 . S
C655 H645 0.930 . S
C655 C648 1.409 1_655 S
C655 C654 1.362 . S
H656 C662 0.930 . S
H657 C665 0.930 . S
H658 C666 0.930 . S
H659 C667 0.930 . S
H660 C670 0.930 . S
H661 C671 0.930 . S
C662 H656 0.930 . S
C662 C663 1.355 . S
C662 C664 1.415 . S
C663 C662 1.355 . S
C663 C665 1.419 . S
C664 C662 1.415 . S
C664 C669 1.419 1_565 S
C664 C671 1.409 1_565 S
C665 H657 0.930 . S
C665 C663 1.419 . S
C665 C666 1.362 . S
C666 H658 0.930 . S
C666 C665 1.362 . S
C666 C669 1.391 1_565 S
C667 H659 0.930 . S
C667 C668 1.355 . S
C667 C669 1.439 . S
C668 C667 1.355 . S
C668 C670 1.419 . S
C669 C664 1.419 1_545 S
C669 C666 1.391 1_545 S
C669 C667 1.439 . S
C670 H660 0.930 . S
C670 C668 1.419 . S
C670 C671 1.362 . S
C671 H661 0.930 . S
C671 C664 1.409 1_545 S
C671 C670 1.362 . S
H672 C678 0.930 . S
H673 C681 0.930 . S
H674 C682 0.930 . S
H675 C683 0.930 . S
H676 C686 0.930 . S
H677 C687 0.930 . S
C678 H672 0.930 . S
C678 C679 1.355 . S
C678 C680 1.415 . S
C679 C678 1.355 . S
C679 C681 1.419 . S
C680 C678 1.415 . S
C680 C685 1.412 1_655 S
C680 C687 1.409 1_655 S
C681 H673 0.930 . S
C681 C679 1.419 . S
C681 C682 1.362 . S
C682 H674 0.930 . S
C682 C681 1.362 . S
C682 C685 1.379 1_655 S
C683 H675 0.930 . S
C683 C684 1.355 . S
C683 C685 1.458 . S
C684 C683 1.355 . S
C684 C686 1.419 . S
C685 C680 1.412 1_455 S
C685 C682 1.379 1_455 S
C685 C683 1.458 . S
C686 H676 0.930 . S
C686 C684 1.419 . S
C686 C687 1.362 . S
C687 H677 0.930 . S
C687 C680 1.409 1_455 S
C687 C686 1.362 . S
H688 C694 0.930 . S
H689 C697 0.930 . S
H690 C698 0.930 . S
H691 C699 0.930 . S
H692 C702 0.930 . S
H693 C703 0.930 . S
C694 H688 0.930 . S
C694 C695 1.355 . S
C694 C696 1.415 . S
C695 C694 1.355 . S
C695 C697 1.419 . S
C696 C694 1.415 . S
C696 C701 1.425 1_565 S
C696 C703 1.409 1_565 S
C697 H689 0.930 . S
C697 C695 1.419 . S
C697 C698 1.362 . S
C698 H690 0.930 . S
C698 C697 1.362 . S
C698 C701 1.409 1_565 S
C699 H691 0.930 . S
C699 C700 1.355 . S
C699 C701 1.415 . S
C700 C699 1.355 . S
C700 C702 1.419 . S
C701 C696 1.425 1_545 S
C701 C698 1.409 1_545 S
C701 C699 1.415 . S
C702 H692 0.930 . S
C702 C700 1.419 . S
C702 C703 1.362 . S
C703 H693 0.930 . S
C703 C696 1.409 1_545 S
C703 C702 1.362 . S
H704 C710 0.930 . S
H705 C713 0.930 . S
H706 C714 0.930 . S
H707 C715 0.930 . S
H708 C718 0.930 . S
H709 C719 0.930 . S
C710 H704 0.930 . S
C710 C711 1.355 . S
C710 C712 1.415 . S
C711 C710 1.355 . S
C711 C713 1.419 . S
C712 C710 1.415 . S
C712 C717 1.425 1_655 S
C712 C719 1.409 1_655 S
C713 H705 0.930 . S
C713 C711 1.419 . S
C713 C714 1.362 . S
C714 H706 0.930 . S
C714 C713 1.362 . S
C714 C717 1.409 1_655 S
C715 H707 0.930 . S
C715 C716 1.355 . S
C715 C717 1.415 . S
C716 C715 1.355 . S
C716 C718 1.419 . S
C717 C712 1.425 1_455 S
C717 C714 1.409 1_455 S
C717 C715 1.415 . S
C718 H708 0.930 . S
C718 C716 1.419 . S
C718 C719 1.362 . S
C719 H709 0.930 . S
C719 C712 1.409 1_455 S
C719 C718 1.362 . S
H720 C726 0.930 . S
H721 C729 0.930 . S
H722 C730 0.930 . S
H723 C731 0.930 . S
H724 C734 0.930 . S
H725 C735 0.930 . S
C726 H720 0.930 . S
C726 C727 1.355 . S
C726 C728 1.415 . S
C727 C726 1.355 . S
C727 C729 1.419 . S
C728 C726 1.415 . S
C728 C733 1.425 1_545 S
C728 C735 1.409 1_545 S
C729 H721 0.930 . S
C729 C727 1.419 . S
C729 C730 1.362 . S
C730 H722 0.930 . S
C730 C729 1.362 . S
C730 C733 1.409 1_545 S
C731 H723 0.930 . S
C731 C732 1.355 . S
C731 C733 1.415 . S
C732 C731 1.355 . S
C732 C734 1.419 . S
C733 C728 1.425 1_565 S
C733 C730 1.409 1_565 S
C733 C731 1.415 . S
C734 H724 0.930 . S
C734 C732 1.419 . S
C734 C735 1.362 . S
C735 H725 0.930 . S
C735 C728 1.409 1_565 S
C735 C734 1.362 . S
H736 C742 0.930 . S
H737 C745 0.930 . S
H738 C746 0.930 . S
H739 C747 0.930 . S
H740 C750 0.930 . S
H741 C751 0.930 . S
C742 H736 0.930 . S
C742 C743 1.355 . S
C742 C744 1.415 . S
C743 C742 1.355 . S
C743 C745 1.419 . S
C744 C742 1.415 . S
C744 C749 1.425 1_455 S
C744 C751 1.409 1_455 S
C745 H737 0.930 . S
C745 C743 1.419 . S
C745 C746 1.362 . S
C746 H738 0.930 . S
C746 C745 1.362 . S
C746 C749 1.409 1_455 S
C747 H739 0.930 . S
C747 C748 1.355 . S
C747 C749 1.415 . S
C748 C747 1.355 . S
C748 C750 1.419 . S
C749 C744 1.425 1_655 S
C749 C746 1.409 1_655 S
C749 C747 1.415 . S
C750 H740 0.930 . S
C750 C748 1.419 . S
C750 C751 1.362 . S
C751 H741 0.930 . S
C751 C744 1.409 1_655 S
C751 C750 1.362 . S
H752 C758 0.930 . S
H753 C761 0.930 . S
H754 C762 0.930 . S
H755 C763 0.930 . S
H756 C766 0.930 . S
H757 C767 0.930 . S
C758 H752 0.930 . S
C758 C759 1.355 . S
C758 C760 1.415 . S
C759 C758 1.355 . S
C759 C761 1.419 . S
C760 C758 1.415 . S
C760 C765 1.425 1_554 S
C760 C767 1.409 1_554 S
C761 H753 0.930 . S
C761 C759 1.419 . S
C761 C762 1.362 . S
C762 H754 0.930 . S
C762 C761 1.362 . S
C762 C765 1.409 1_554 S
C763 H755 0.930 . S
C763 C764 1.355 . S
C763 C765 1.415 . S
C764 C763 1.355 . S
C764 C766 1.419 . S
C765 C760 1.425 1_556 S
C765 C762 1.409 1_556 S
C765 C763 1.415 . S
C766 H756 0.930 . S
C766 C764 1.419 . S
C766 C767 1.362 . S
C767 H757 0.930 . S
C767 C760 1.409 1_556 S
C767 C766 1.362 . S
H768 C774 0.930 . S
H769 C777 0.930 . S
H770 C778 0.930 . S
H771 C779 0.930 . S
H772 C782 0.930 . S
H773 C783 0.930 . S
C774 H768 0.930 . S
C774 C775 1.355 . S
C774 C776 1.415 . S
C775 C774 1.355 . S
C775 C777 1.419 . S
C776 C774 1.415 . S
C776 C781 1.425 1_556 S
C776 C783 1.409 1_556 S
C777 H769 0.930 . S
C777 C775 1.419 . S
C777 C778 1.362 . S
C778 H770 0.930 . S
C778 C777 1.362 . S
C778 C781 1.409 1_556 S
C779 H771 0.930 . S
C779 C780 1.355 . S
C779 C781 1.415 . S
C780 C779 1.355 . S
C780 C782 1.419 . S
C781 C776 1.425 1_554 S
C781 C778 1.409 1_554 S
C781 C779 1.415 . S
C782 H772 0.930 . S
C782 C780 1.419 . S
C782 C783 1.362 . S
C783 H773 0.930 . S
C783 C776 1.409 1_554 S
C783 C782 1.362 . S
H784 C790 0.930 . S
H785 C793 0.930 . S
H786 C794 0.930 . S
H787 C795 0.930 . S
H788 C798 0.930 . S
H789 C799 0.930 . S
C790 H784 0.930 . S
C790 C791 1.355 . S
C790 C792 1.415 . S
C791 C790 1.355 . S
C791 C793 1.419 . S
C792 C790 1.415 . S
C792 C797 1.425 1_556 S
C792 C799 1.409 1_556 S
C793 H785 0.930 . S
C793 C791 1.419 . S
C793 C794 1.362 . S
C794 H786 0.930 . S
C794 C793 1.362 . S
C794 C797 1.409 1_556 S
C795 H787 0.930 . S
C795 C796 1.355 . S
C795 C797 1.415 . S
C796 C795 1.355 . S
C796 C798 1.419 . S
C797 C792 1.425 1_554 S
C797 C794 1.409 1_554 S
C797 C795 1.415 . S
C798 H788 0.930 . S
C798 C796 1.419 . S
C798 C799 1.362 . S
C799 H789 0.930 . S
C799 C792 1.409 1_554 S
C799 C798 1.362 . S
H800 C806 0.930 . S
H801 C809 0.930 . S
H802 C810 0.930 . S
H803 C811 0.930 . S
H804 C814 0.930 . S
H805 C815 0.930 . S
C806 H800 0.930 . S
C806 C807 1.355 . S
C806 C808 1.415 . S
C807 C806 1.355 . S
C807 C809 1.419 . S
C808 C806 1.415 . S
C808 C813 1.425 1_556 S
C808 C815 1.409 1_556 S
C809 H801 0.930 . S
C809 C807 1.419 . S
C809 C810 1.362 . S
C810 H802 0.930 . S
C810 C809 1.362 . S
C810 C813 1.409 1_556 S
C811 H803 0.930 . S
C811 C812 1.355 . S
C811 C813 1.415 . S
C812 C811 1.355 . S
C812 C814 1.419 . S
C813 C808 1.425 1_554 S
C813 C810 1.409 1_554 S
C813 C811 1.415 . S
C814 H804 0.930 . S
C814 C812 1.419 . S
C814 C815 1.362 . S
C815 H805 0.930 . S
C815 C808 1.409 1_554 S
C815 C814 1.362 . S
H816 C822 0.930 . S
H817 C825 0.930 . S
H818 C826 0.930 . S
H819 C827 0.930 . S
H820 C830 0.930 . S
H821 C831 0.930 . S
C822 H816 0.930 . S
C822 C823 1.355 . S
C822 C824 1.415 . S
C823 C822 1.355 . S
C823 C825 1.419 . S
C824 C822 1.415 . S
C824 C829 1.425 1_554 S
C824 C831 1.409 1_554 S
C825 H817 0.930 . S
C825 C823 1.419 . S
C825 C826 1.362 . S
C826 H818 0.930 . S
C826 C825 1.362 . S
C826 C829 1.409 1_554 S
C827 H819 0.930 . S
C827 C828 1.355 . S
C827 C829 1.415 . S
C828 C827 1.355 . S
C828 C830 1.419 . S
C829 C824 1.425 1_556 S
C829 C826 1.409 1_556 S
C829 C827 1.415 . S
C830 H820 0.930 . S
C830 C828 1.419 . S
C830 C831 1.362 . S
C831 H821 0.930 . S
C831 C824 1.409 1_556 S
C831 C830 1.362 . S
H832 C838 0.930 . S
H833 C841 0.930 . S
H834 C842 0.930 . S
H835 C843 0.930 . S
H836 C846 0.930 . S
H837 C847 0.930 . S
C838 H832 0.930 . S
C838 C839 1.355 . S
C838 C840 1.415 . S
C839 C838 1.355 . S
C839 C841 1.419 . S
C840 C838 1.415 . S
C840 C845 1.425 1_556 S
C840 C847 1.409 1_556 S
C841 H833 0.930 . S
C841 C839 1.419 . S
C841 C842 1.362 . S
C842 H834 0.930 . S
C842 C841 1.362 . S
C842 C845 1.409 1_556 S
C843 H835 0.930 . S
C843 C844 1.355 . S
C843 C845 1.415 . S
C844 C843 1.355 . S
C844 C846 1.419 . S
C845 C840 1.425 1_554 S
C845 C842 1.409 1_554 S
C845 C843 1.415 . S
C846 H836 0.930 . S
C846 C844 1.419 . S
C846 C847 1.362 . S
C847 H837 0.930 . S
C847 C840 1.409 1_554 S
C847 C846 1.362 . S
H848 C854 0.930 . S
H849 C857 0.930 . S
H850 C858 0.930 . S
H851 C859 0.930 . S
H852 C862 0.930 . S
H853 C863 0.930 . S
C854 H848 0.930 . S
C854 C855 1.355 . S
C854 C856 1.415 . S
C855 C854 1.355 . S
C855 C857 1.419 . S
C856 C854 1.415 . S
C856 C861 1.425 1_554 S
C856 C863 1.409 1_554 S
C857 H849 0.930 . S
C857 C855 1.419 . S
C857 C858 1.362 . S
C858 H850 0.930 . S
C858 C857 1.362 . S
C858 C861 1.409 1_554 S
C859 H851 0.930 . S
C859 C860 1.355 . S
C859 C861 1.415 . S
C860 C859 1.355 . S
C860 C862 1.419 . S
C861 C856 1.425 1_556 S
C861 C858 1.409 1_556 S
C861 C859 1.415 . S
C862 H852 0.930 . S
C862 C860 1.419 . S
C862 C863 1.362 . S
C863 H853 0.930 . S
C863 C856 1.409 1_556 S
C863 C862 1.362 . S
H864 C870 0.930 . S
H865 C873 0.930 . S
H866 C874 0.930 . S
H867 C875 0.930 . S
H868 C878 0.930 . S
H869 C879 0.930 . S
C870 H864 0.930 . S
C870 C871 1.355 . S
C870 C872 1.415 . S
C871 C870 1.355 . S
C871 C873 1.419 . S
C872 C870 1.415 . S
C872 C877 1.425 1_556 S
C872 C879 1.409 1_556 S
C873 H865 0.930 . S
C873 C871 1.419 . S
C873 C874 1.362 . S
C874 H866 0.930 . S
C874 C873 1.362 . S
C874 C877 1.409 1_556 S
C875 H867 0.930 . S
C875 C876 1.355 . S
C875 C877 1.415 . S
C876 C875 1.355 . S
C876 C878 1.419 . S
C877 C872 1.425 1_554 S
C877 C874 1.409 1_554 S
C877 C875 1.415 . S
C878 H868 0.930 . S
C878 C876 1.419 . S
C878 C879 1.362 . S
C879 H869 0.930 . S
C879 C872 1.409 1_554 S
C879 C878 1.362 . S
H880 C886 0.930 . S
H881 C889 0.930 . S
H882 C890 0.930 1_655 S
H883 C891 0.930 . S
H884 C894 0.930 . S
H885 C895 0.930 . S
C886 H880 0.930 . S
C886 C887 1.355 . S
C886 C888 1.415 . S
C887 C886 1.355 . S
C887 C889 1.419 . S
C888 C886 1.415 . S
C888 C893 1.425 1_455 S
C888 C895 1.409 1_455 S
C889 H881 0.930 . S
C889 C887 1.419 . S
C889 C890 1.362 . S
C890 H882 0.930 1_455 S
C890 C889 1.362 . S
C890 C893 1.409 1_455 S
C891 H883 0.930 . S
C891 C892 1.355 . S
C891 C893 1.415 . S
C892 C891 1.355 . S
C892 C894 1.419 . S
C893 C888 1.425 1_655 S
C893 C890 1.409 1_655 S
C893 C891 1.415 . S
C894 H884 0.930 . S
C894 C892 1.419 . S
C894 C895 1.362 . S
C895 H885 0.930 . S
C895 C888 1.409 1_655 S
C895 C894 1.362 . S
H896 C902 0.930 . S
H897 C905 0.930 . S
H898 C906 0.939 . S
H899 C907 0.930 . S
H900 C910 0.930 . S
H901 C911 0.930 . S
C902 H896 0.930 . S
C902 C903 1.355 . S
C902 C904 1.415 . S
C903 C902 1.355 . S
C903 C905 1.419 . S
C904 C902 1.415 . S
C904 C909 1.425 1_455 S
C904 C911 1.409 1_455 S
C905 H897 0.930 . S
C905 C903 1.419 . S
C905 C906 1.362 . S
C906 H898 0.939 . S
C906 C905 1.362 . S
C906 C909 1.409 1_455 S
C907 H899 0.930 . S
C907 C908 1.355 . S
C907 C909 1.415 . S
C908 C907 1.355 . S
C908 C910 1.419 . S
C909 C904 1.425 1_655 S
C909 C906 1.409 1_655 S
C909 C907 1.415 . S
C910 H900 0.930 . S
C910 C908 1.419 . S
C910 C911 1.362 . S
C911 H901 0.930 . S
C911 C904 1.409 1_655 S
C911 C910 1.362 . S
H912 C918 0.930 . S
H913 C921 0.930 . S
H914 C922 0.930 . S
H915 C923 0.930 . S
H916 C926 0.930 . S
H917 C927 0.930 1_565 S
C918 H912 0.930 . S
C918 C919 1.355 . S
C918 C920 1.415 . S
C919 C918 1.355 . S
C919 C921 1.419 . S
C920 C918 1.415 . S
C920 C925 1.425 . S
C920 C927 1.409 1_565 S
C921 H913 0.930 . S
C921 C919 1.419 . S
C921 C922 1.362 . S
C922 H914 0.930 . S
C922 C921 1.362 . S
C922 C925 1.409 . S
C923 H915 0.930 . S
C923 C924 1.355 . S
C923 C925 1.415 1_545 S
C924 C923 1.355 . S
C924 C926 1.419 . S
C925 C920 1.425 . S
C925 C922 1.409 . S
C925 C923 1.415 1_565 S
C926 H916 0.930 . S
C926 C924 1.419 . S
C926 C927 1.362 . S
C927 H917 0.930 1_545 S
C927 C920 1.409 1_545 S
C927 C926 1.362 . S
H928 C934 0.930 . S
H929 C937 0.930 . S
H930 C938 0.930 1_655 S
H931 C939 0.930 . S
H932 C942 0.930 . S
H933 C943 0.930 . S
C934 H928 0.930 . S
C934 C935 1.355 . S
C934 C936 1.415 . S
C935 C934 1.355 . S
C935 C937 1.419 . S
C936 C934 1.415 . S
C936 C941 1.425 1_455 S
C936 C943 1.409 1_455 S
C937 H929 0.930 . S
C937 C935 1.419 . S
C937 C938 1.362 . S
C938 H930 0.930 1_455 S
C938 C937 1.362 . S
C938 C941 1.409 1_455 S
C939 H931 0.930 . S
C939 C940 1.355 . S
C939 C941 1.415 . S
C940 C939 1.355 . S
C940 C942 1.419 . S
C941 C936 1.425 1_655 S
C941 C938 1.409 1_655 S
C941 C939 1.415 . S
C942 H932 0.930 . S
C942 C940 1.419 . S
C942 C943 1.362 . S
C943 H933 0.930 . S
C943 C936 1.409 1_655 S
C943 C942 1.362 . S
H944 C950 0.930 . S
H945 C953 0.930 . S
H946 C954 0.930 . S
H947 C955 0.930 . S
H948 C958 0.930 . S
H949 C959 0.930 . S
C950 H944 0.930 . S
C950 C951 1.355 . S
C950 C952 1.415 . S
C951 C950 1.355 . S
C951 C953 1.419 . S
C952 C950 1.415 . S
C952 C957 1.425 1_545 S
C952 C959 1.409 1_545 S
C953 H945 0.930 . S
C953 C951 1.419 . S
C953 C954 1.362 . S
C954 H946 0.930 . S
C954 C953 1.362 . S
C954 C957 1.409 1_545 S
C955 H947 0.930 . S
C955 C956 1.355 . S
C955 C957 1.415 . S
C956 C955 1.355 . S
C956 C958 1.419 . S
C957 C952 1.425 1_565 S
C957 C954 1.409 1_565 S
C957 C955 1.415 . S
C958 H948 0.930 . S
C958 C956 1.419 . S
C958 C959 1.362 . S
C959 H949 0.930 . S
C959 C952 1.409 1_565 S
C959 C958 1.362 . S
H960 C966 0.930 . S
H961 C969 0.930 . S
H962 C970 0.930 . S
H963 C971 0.930 . S
H964 C974 0.930 . S
H965 C975 0.930 . S
C966 H960 0.930 . S
C966 C967 1.355 . S
C966 C968 1.395 1_455 S
C967 C966 1.355 . S
C967 C969 1.419 . S
C968 C966 1.395 1_655 S
C968 C973 1.432 . S
C968 C975 1.423 . S
C969 H961 0.930 . S
C969 C967 1.419 . S
C969 C970 1.362 . S
C970 H962 0.930 . S
C970 C969 1.362 . S
C970 C973 1.409 1_455 S
C971 H963 0.930 . S
C971 C972 1.355 . S
C971 C973 1.415 . S
C972 C971 1.355 . S
C972 C974 1.419 . S
C973 C968 1.432 . S
C973 C970 1.409 1_655 S
C973 C971 1.415 . S
C974 H964 0.930 . S
C974 C972 1.419 . S
C974 C975 1.362 . S
C975 H965 0.930 . S
C975 C968 1.423 . S
C975 C974 1.362 . S
H976 C982 0.930 . S
H977 C985 0.930 . S
H978 C986 0.930 . S
H979 C987 0.930 . S
H980 C990 0.930 . S
H981 C991 0.930 . S
C982 H976 0.930 . S
C982 C983 1.355 . S
C982 C984 1.415 . S
C983 C982 1.355 . S
C983 C985 1.419 . S
C984 C982 1.415 . S
C984 C989 1.425 1_545 S
C984 C991 1.409 1_545 S
C985 H977 0.930 . S
C985 C983 1.419 . S
C985 C986 1.362 . S
C986 H978 0.930 . S
C986 C985 1.362 . S
C986 C989 1.409 1_545 S
C987 H979 0.930 . S
C987 C988 1.355 . S
C987 C989 1.415 . S
C988 C987 1.355 . S
C988 C990 1.419 . S
C989 C984 1.425 1_565 S
C989 C986 1.409 1_565 S
C989 C987 1.415 . S
C990 H980 0.930 . S
C990 C988 1.419 . S
C990 C991 1.362 . S
C991 H981 0.930 . S
C991 C984 1.409 1_565 S
C991 C990 1.362 . S
H992 C998 0.930 . S
H993 C1001 0.930 . S
H994 C1002 0.930 . S
H995 C1003 0.930 . S
H996 C1006 0.930 . S
H997 C1007 0.930 . S
C998 H992 0.930 . S
C998 C999 1.355 . S
C998 C1000 1.415 . S
C999 C998 1.355 . S
C999 C1001 1.419 . S
C1000 C998 1.415 . S
C1000 C1005 1.425 1_545 S
C1000 C1007 1.409 1_545 S
C1001 H993 0.930 . S
C1001 C999 1.419 . S
C1001 C1002 1.362 . S
C1002 H994 0.930 . S
C1002 C1001 1.362 . S
C1002 C1005 1.409 1_545 S
C1003 H995 0.930 . S
C1003 C1004 1.355 . S
C1003 C1005 1.415 . S
C1004 C1003 1.355 . S
C1004 C1006 1.419 . S
C1005 C1000 1.425 1_565 S
C1005 C1002 1.409 1_565 S
C1005 C1003 1.415 . S
C1006 H996 0.930 . S
C1006 C1004 1.419 . S
C1006 C1007 1.362 . S
C1007 H997 0.930 . S
C1007 C1000 1.409 1_565 S
C1007 C1006 1.362 . S
H1008 C1014 0.930 . S
H1009 C1017 0.930 . S
H1010 C1018 0.930 . S
H1011 C1019 0.930 . S
H1012 C1022 0.930 . S
H1013 C1023 0.930 . S
C1014 H1008 0.930 . S
C1014 C1015 1.355 . S
C1014 C1016 1.415 . S
C1015 C1014 1.355 . S
C1015 C1017 1.419 . S
C1016 C1014 1.415 . S
C1016 C1021 1.425 . S
C1016 C1023 1.409 . S
C1017 H1009 0.930 . S
C1017 C1015 1.419 . S
C1017 C1018 1.362 . S
C1018 H1010 0.930 . S
C1018 C1017 1.362 . S
C1018 C1021 1.409 . S
C1019 H1011 0.930 . S
C1019 C1020 1.355 . S
C1019 C1021 1.415 . S
C1020 C1019 1.355 . S
C1020 C1022 1.419 . S
C1021 C1016 1.425 . S
C1021 C1018 1.409 . S
C1021 C1019 1.415 . S
C1022 H1012 0.930 . S
C1022 C1020 1.419 . S
C1022 C1023 1.362 . S
C1023 H1013 0.930 . S
C1023 C1016 1.409 . S
C1023 C1022 1.362 . S
H1024 C1030 0.930 . S
H1025 C1033 0.930 . S
H1026 C1034 0.930 . S
H1027 C1035 0.930 . S
H1028 C1038 0.930 . S
H1029 C1039 0.930 . S
C1030 H1024 0.930 . S
C1030 C1031 1.355 . S
C1030 C1032 1.415 . S
C1031 C1030 1.355 . S
C1031 C1033 1.419 . S
C1032 C1030 1.415 . S
C1032 C1037 1.425 . S
C1032 C1039 1.409 . S
C1033 H1025 0.930 . S
C1033 C1031 1.419 . S
C1033 C1034 1.362 . S
C1034 H1026 0.930 . S
C1034 C1033 1.362 . S
C1034 C1037 1.409 . S
C1035 H1027 0.930 . S
C1035 C1036 1.355 . S
C1035 C1037 1.415 . S
C1036 C1035 1.355 . S
C1036 C1038 1.419 . S
C1037 C1032 1.425 . S
C1037 C1034 1.409 . S
C1037 C1035 1.415 . S
C1038 H1028 0.930 . S
C1038 C1036 1.419 . S
C1038 C1039 1.362 . S
C1039 H1029 0.930 . S
C1039 C1032 1.409 . S
C1039 C1038 1.362 . S
H1040 C1046 0.930 . S
H1041 C1049 0.930 . S
H1042 C1050 0.930 . S
H1043 C1051 0.930 . S
H1044 C1054 0.930 . S
H1045 C1055 0.930 . S
C1046 H1040 0.930 . S
C1046 C1047 1.355 . S
C1046 C1048 1.415 . S
C1047 C1046 1.355 . S
C1047 C1049 1.419 . S
C1048 C1046 1.415 . S
C1048 C1053 1.425 . S
C1048 C1055 1.409 . S
C1049 H1041 0.930 . S
C1049 C1047 1.419 . S
C1049 C1050 1.362 . S
C1050 H1042 0.930 . S
C1050 C1049 1.362 . S
C1050 C1053 1.409 . S
C1051 H1043 0.930 . S
C1051 C1052 1.355 . S
C1051 C1053 1.415 . S
C1052 C1051 1.355 . S
C1052 C1054 1.419 . S
C1053 C1048 1.425 . S
C1053 C1050 1.409 . S
C1053 C1051 1.415 . S
C1054 H1044 0.930 . S
C1054 C1052 1.419 . S
C1054 C1055 1.362 . S
C1055 H1045 0.930 . S
C1055 C1048 1.409 . S
C1055 C1054 1.362 . S
H1056 C1062 0.930 . S
H1057 C1065 0.930 . S
H1058 C1066 0.930 . S
H1059 C1067 0.930 . S
H1060 C1070 0.930 . S
H1061 C1071 0.930 . S
C1062 H1056 0.930 . S
C1062 C1063 1.355 . S
C1062 C1064 1.415 . S
C1063 C1062 1.355 . S
C1063 C1065 1.419 . S
C1064 C1062 1.415 . S
C1064 C1069 1.425 . S
C1064 C1071 1.409 . S
C1065 H1057 0.930 . S
C1065 C1063 1.419 . S
C1065 C1066 1.362 . S
C1066 H1058 0.930 . S
C1066 C1065 1.362 . S
C1066 C1069 1.409 . S
C1067 H1059 0.930 . S
C1067 C1068 1.355 . S
C1067 C1069 1.415 . S
C1068 C1067 1.355 . S
C1068 C1070 1.419 . S
C1069 C1064 1.425 . S
C1069 C1066 1.409 . S
C1069 C1067 1.415 . S
C1070 H1060 0.930 . S
C1070 C1068 1.419 . S
C1070 C1071 1.362 . S
C1071 H1061 0.930 . S
C1071 C1064 1.409 . S
C1071 C1070 1.362 . S
H1072 C1078 0.930 . S
H1073 C1081 0.930 . S
H1074 C1082 0.930 . S
H1075 C1083 0.930 . S
H1076 C1086 0.930 . S
H1077 C1087 0.930 . S
C1078 H1072 0.930 . S
C1078 C1079 1.355 . S
C1078 C1080 1.415 . S
C1079 C1078 1.355 . S
C1079 C1081 1.419 . S
C1080 C1078 1.415 . S
C1080 C1085 1.425 . S
C1080 C1087 1.409 . S
C1081 H1073 0.930 . S
C1081 C1079 1.419 . S
C1081 C1082 1.362 . S
C1082 H1074 0.930 . S
C1082 C1081 1.362 . S
C1082 C1085 1.409 . S
C1083 H1075 0.930 . S
C1083 C1084 1.355 . S
C1083 C1085 1.415 . S
C1084 C1083 1.355 . S
C1084 C1086 1.419 . S
C1085 C1080 1.425 . S
C1085 C1082 1.409 . S
C1085 C1083 1.415 . S
C1086 H1076 0.930 . S
C1086 C1084 1.419 . S
C1086 C1087 1.362 . S
C1087 H1077 0.930 . S
C1087 C1080 1.409 . S
C1087 C1086 1.362 . S
H1088 C1094 0.930 . S
H1089 C1097 0.930 . S
H1090 C1098 0.930 . S
H1091 C1099 0.930 . S
H1092 C1102 0.930 . S
H1093 C1103 0.930 . S
C1094 H1088 0.930 . S
C1094 C1095 1.355 . S
C1094 C1096 1.415 . S
C1095 C1094 1.355 . S
C1095 C1097 1.419 . S
C1096 C1094 1.415 . S
C1096 C1101 1.425 . S
C1096 C1103 1.409 . S
C1097 H1089 0.930 . S
C1097 C1095 1.419 . S
C1097 C1098 1.362 . S
C1098 H1090 0.930 . S
C1098 C1097 1.362 . S
C1098 C1101 1.409 . S
C1099 H1091 0.930 . S
C1099 C1100 1.355 . S
C1099 C1101 1.415 . S
C1100 C1099 1.355 . S
C1100 C1102 1.419 . S
C1101 C1096 1.425 . S
C1101 C1098 1.409 . S
C1101 C1099 1.415 . S
C1102 H1092 0.930 . S
C1102 C1100 1.419 . S
C1102 C1103 1.362 . S
C1103 H1093 0.930 . S
C1103 C1096 1.409 . S
C1103 C1102 1.362 . S
H1104 C1110 0.930 . S
H1105 C1113 0.930 . S
H1106 C1114 0.930 . S
H1107 C1115 0.930 . S
H1108 C1118 0.930 . S
H1109 C1119 0.930 . S
C1110 H1104 0.930 . S
C1110 C1111 1.355 . S
C1110 C1112 1.415 . S
C1111 C1110 1.355 . S
C1111 C1113 1.419 . S
C1112 C1110 1.415 . S
C1112 C1117 1.425 . S
C1112 C1119 1.409 . S
C1113 H1105 0.930 . S
C1113 C1111 1.419 . S
C1113 C1114 1.362 . S
C1114 H1106 0.930 . S
C1114 C1113 1.362 . S
C1114 C1117 1.409 . S
C1115 H1107 0.930 . S
C1115 C1116 1.355 . S
C1115 C1117 1.415 . S
C1116 C1115 1.355 . S
C1116 C1118 1.419 . S
C1117 C1112 1.425 . S
C1117 C1114 1.409 . S
C1117 C1115 1.415 . S
C1118 H1108 0.930 . S
C1118 C1116 1.419 . S
C1118 C1119 1.362 . S
C1119 H1109 0.930 . S
C1119 C1112 1.409 . S
C1119 C1118 1.362 . S
H1120 C1126 0.930 . S
H1121 C1129 0.930 . S
H1122 C1130 0.930 . S
H1123 C1131 0.930 . S
H1124 C1134 0.930 . S
H1125 C1135 0.930 . S
C1126 H1120 0.930 . S
C1126 C1127 1.355 . S
C1126 C1128 1.415 . S
C1127 C1126 1.355 . S
C1127 C1129 1.419 . S
C1128 C1126 1.415 . S
C1128 C1133 1.425 . S
C1128 C1135 1.409 . S
C1129 H1121 0.930 . S
C1129 C1127 1.419 . S
C1129 C1130 1.362 . S
C1130 H1122 0.930 . S
C1130 C1129 1.362 . S
C1130 C1133 1.409 . S
C1131 H1123 0.930 . S
C1131 C1132 1.355 . S
C1131 C1133 1.415 . S
C1132 C1131 1.355 . S
C1132 C1134 1.419 . S
C1133 C1128 1.425 . S
C1133 C1130 1.409 . S
C1133 C1131 1.415 . S
C1134 H1124 0.930 . S
C1134 C1132 1.419 . S
C1134 C1135 1.362 . S
C1135 H1125 0.930 . S
C1135 C1128 1.409 . S
C1135 C1134 1.362 . S
H1136 C1142 0.930 . S
H1137 C1145 0.930 . S
H1138 C1146 0.930 . S
H1139 C1147 0.930 . S
H1140 C1150 0.930 . S
H1141 C1151 0.930 . S
C1142 H1136 0.930 . S
C1142 C1143 1.355 . S
C1142 C1144 1.415 . S
C1143 C1142 1.355 . S
C1143 C1145 1.419 . S
C1144 C1142 1.415 . S
C1144 C1149 1.425 . S
C1144 C1151 1.409 . S
C1145 H1137 0.930 . S
C1145 C1143 1.419 . S
C1145 C1146 1.362 . S
C1146 H1138 0.930 . S
C1146 C1145 1.362 . S
C1146 C1149 1.409 . S
C1147 H1139 0.930 . S
C1147 C1148 1.355 . S
C1147 C1149 1.415 . S
C1148 C1147 1.355 . S
C1148 C1150 1.419 . S
C1149 C1144 1.425 . S
C1149 C1146 1.409 . S
C1149 C1147 1.415 . S
C1150 H1140 0.930 . S
C1150 C1148 1.419 . S
C1150 C1151 1.362 . S
C1151 H1141 0.930 . S
C1151 C1144 1.409 . S
C1151 C1150 1.362 . S
H1152 C1158 0.930 . S
H1153 C1161 0.930 . S
H1154 C1162 0.930 . S
H1155 C1163 0.930 . S
H1156 C1166 0.930 . S
H1157 C1167 0.930 . S
C1158 H1152 0.930 . S
C1158 C1159 1.355 . S
C1158 C1160 1.415 . S
C1159 C1158 1.355 . S
C1159 C1161 1.419 . S
C1160 C1158 1.415 . S
C1160 C1165 1.425 . S
C1160 C1167 1.409 . S
C1161 H1153 0.930 . S
C1161 C1159 1.419 . S
C1161 C1162 1.362 . S
C1162 H1154 0.930 . S
C1162 C1161 1.362 . S
C1162 C1165 1.409 . S
C1163 H1155 0.930 . S
C1163 C1164 1.355 . S
C1163 C1165 1.415 . S
C1164 C1163 1.355 . S
C1164 C1166 1.419 . S
C1165 C1160 1.425 . S
C1165 C1162 1.409 . S
C1165 C1163 1.415 . S
C1166 H1156 0.930 . S
C1166 C1164 1.419 . S
C1166 C1167 1.362 . S
C1167 H1157 0.930 . S
C1167 C1160 1.409 . S
C1167 C1166 1.362 . S
H1168 C1174 0.930 . S
H1169 C1177 0.930 . S
H1170 C1178 0.930 . S
H1171 C1179 0.930 . S
H1172 C1182 0.930 . S
H1173 C1183 0.930 . S
C1174 H1168 0.930 . S
C1174 C1175 1.355 . S
C1174 C1176 1.415 . S
C1175 C1174 1.355 . S
C1175 C1177 1.419 . S
C1176 C1174 1.415 . S
C1176 C1181 1.425 . S
C1176 C1183 1.409 . S
C1177 H1169 0.930 . S
C1177 C1175 1.419 . S
C1177 C1178 1.362 . S
C1178 H1170 0.930 . S
C1178 C1177 1.362 . S
C1178 C1181 1.409 . S
C1179 H1171 0.930 . S
C1179 C1180 1.355 . S
C1179 C1181 1.415 . S
C1180 C1179 1.355 . S
C1180 C1182 1.419 . S
C1181 C1176 1.425 . S
C1181 C1178 1.409 . S
C1181 C1179 1.415 . S
C1182 H1172 0.930 . S
C1182 C1180 1.419 . S
C1182 C1183 1.362 . S
C1183 H1173 0.930 . S
C1183 C1176 1.409 . S
C1183 C1182 1.362 . S
H1184 C1190 0.930 . S
H1185 C1193 0.930 . S
H1186 C1194 0.930 . S
H1187 C1195 0.930 . S
H1188 C1198 0.930 . S
H1189 C1199 0.930 . S
C1190 H1184 0.930 . S
C1190 C1191 1.355 . S
C1190 C1192 1.415 . S
C1191 C1190 1.355 . S
C1191 C1193 1.419 . S
C1192 C1190 1.415 . S
C1192 C1197 1.425 . S
C1192 C1199 1.409 . S
C1193 H1185 0.930 . S
C1193 C1191 1.419 . S
C1193 C1194 1.362 . S
C1194 H1186 0.930 . S
C1194 C1193 1.362 . S
C1194 C1197 1.409 . S
C1195 H1187 0.930 . S
C1195 C1196 1.355 . S
C1195 C1197 1.415 . S
C1196 C1195 1.355 . S
C1196 C1198 1.419 . S
C1197 C1192 1.425 . S
C1197 C1194 1.409 . S
C1197 C1195 1.415 . S
C1198 H1188 0.930 . S
C1198 C1196 1.419 . S
C1198 C1199 1.362 . S
C1199 H1189 0.930 . S
C1199 C1192 1.409 . S
C1199 C1198 1.362 . S
H1200 C1206 0.930 . S
H1201 C1209 0.930 . S
H1202 C1210 0.930 . S
H1203 C1211 0.930 . S
H1204 C1214 0.930 . S
H1205 C1215 0.930 . S
C1206 H1200 0.930 . S
C1206 C1207 1.355 . S
C1206 C1208 1.415 . S
C1207 C1206 1.355 . S
C1207 C1209 1.419 . S
C1208 C1206 1.415 . S
C1208 C1213 1.425 . S
C1208 C1215 1.409 . S
C1209 H1201 0.930 . S
C1209 C1207 1.419 . S
C1209 C1210 1.362 . S
C1210 H1202 0.930 . S
C1210 C1209 1.362 . S
C1210 C1213 1.409 . S
C1211 H1203 0.930 . S
C1211 C1212 1.355 . S
C1211 C1213 1.415 . S
C1212 C1211 1.355 . S
C1212 C1214 1.419 . S
C1213 C1208 1.425 . S
C1213 C1210 1.409 . S
C1213 C1211 1.415 . S
C1214 H1204 0.930 . S
C1214 C1212 1.419 . S
C1214 C1215 1.362 . S
C1215 H1205 0.930 . S
C1215 C1208 1.409 . S
C1215 C1214 1.362 . S
H1216 C1222 0.930 . S
H1217 C1225 0.930 . S
H1218 C1226 0.930 . S
H1219 C1227 0.930 . S
H1220 C1230 0.930 . S
H1221 C1231 0.930 . S
C1222 H1216 0.930 . S
C1222 C1223 1.355 . S
C1222 C1224 1.415 . S
C1223 C1222 1.355 . S
C1223 C1225 1.419 . S
C1224 C1222 1.415 . S
C1224 C1229 1.425 . S
C1224 C1231 1.409 . S
C1225 H1217 0.930 . S
C1225 C1223 1.419 . S
C1225 C1226 1.362 . S
C1226 H1218 0.930 . S
C1226 C1225 1.362 . S
C1226 C1229 1.409 . S
C1227 H1219 0.930 . S
C1227 C1228 1.355 . S
C1227 C1229 1.415 . S
C1228 C1227 1.355 . S
C1228 C1230 1.419 . S
C1229 C1224 1.425 . S
C1229 C1226 1.409 . S
C1229 C1227 1.415 . S
C1230 H1220 0.930 . S
C1230 C1228 1.419 . S
C1230 C1231 1.362 . S
C1231 H1221 0.930 . S
C1231 C1224 1.409 . S
C1231 C1230 1.362 . S
H1232 C1238 0.930 . S
H1233 C1241 0.930 . S
H1234 C1242 0.930 . S
H1235 C1243 0.930 . S
H1236 C1246 0.930 . S
H1237 C1247 0.930 . S
C1238 H1232 0.930 . S
C1238 C1239 1.355 . S
C1238 C1240 1.415 . S
C1239 C1238 1.355 . S
C1239 C1241 1.419 . S
C1240 C1238 1.415 . S
C1240 C1245 1.425 . S
C1240 C1247 1.409 . S
C1241 H1233 0.930 . S
C1241 C1239 1.419 . S
C1241 C1242 1.362 . S
C1242 H1234 0.930 . S
C1242 C1241 1.362 . S
C1242 C1245 1.409 . S
C1243 H1235 0.930 . S
C1243 C1244 1.355 . S
C1243 C1245 1.415 . S
C1244 C1243 1.355 . S
C1244 C1246 1.419 . S
C1245 C1240 1.425 . S
C1245 C1242 1.409 . S
C1245 C1243 1.415 . S
C1246 H1236 0.930 . S
C1246 C1244 1.419 . S
C1246 C1247 1.362 . S
C1247 H1237 0.930 . S
C1247 C1240 1.409 . S
C1247 C1246 1.362 . S
H1248 C1254 0.930 . S
H1249 C1257 0.930 . S
H1250 C1258 0.930 . S
H1251 C1259 0.930 . S
H1252 C1262 0.930 . S
H1253 C1263 0.930 . S
C1254 H1248 0.930 . S
C1254 C1255 1.355 . S
C1254 C1256 1.415 . S
C1255 C1254 1.355 . S
C1255 C1257 1.419 . S
C1256 C1254 1.415 . S
C1256 C1261 1.425 . S
C1256 C1263 1.409 . S
C1257 H1249 0.930 . S
C1257 C1255 1.419 . S
C1257 C1258 1.362 . S
C1258 H1250 0.930 . S
C1258 C1257 1.362 . S
C1258 C1261 1.409 . S
C1259 H1251 0.930 . S
C1259 C1260 1.355 . S
C1259 C1261 1.415 . S
C1260 C1259 1.355 . S
C1260 C1262 1.419 . S
C1261 C1256 1.425 . S
C1261 C1258 1.409 . S
C1261 C1259 1.415 . S
C1262 H1252 0.930 . S
C1262 C1260 1.419 . S
C1262 C1263 1.362 . S
C1263 H1253 0.930 . S
C1263 C1256 1.409 . S
C1263 C1262 1.362 . S
H1264 C1270 0.930 . S
H1265 C1273 0.930 . S
H1266 C1274 0.930 . S
H1267 C1275 0.930 . S
H1268 C1278 0.930 . S
H1269 C1279 0.930 . S
C1270 H1264 0.930 . S
C1270 C1271 1.355 . S
C1270 C1272 1.415 . S
C1271 C1270 1.355 . S
C1271 C1273 1.419 . S
C1272 C1270 1.415 . S
C1272 C1277 1.425 . S
C1272 C1279 1.409 . S
C1273 H1265 0.930 . S
C1273 C1271 1.419 . S
C1273 C1274 1.362 . S
C1274 H1266 0.930 . S
C1274 C1273 1.362 . S
C1274 C1277 1.409 . S
C1275 H1267 0.930 . S
C1275 C1276 1.355 . S
C1275 C1277 1.415 . S
C1276 C1275 1.355 . S
C1276 C1278 1.419 . S
C1277 C1272 1.425 . S
C1277 C1274 1.409 . S
C1277 C1275 1.415 . S
C1278 H1268 0.930 . S
C1278 C1276 1.419 . S
C1278 C1279 1.362 . S
C1279 H1269 0.930 . S
C1279 C1272 1.409 . S
C1279 C1278 1.362 . S
H1280 C1286 0.930 . S
H1281 C1289 0.930 . S
H1282 C1290 0.930 . S
H1283 C1291 0.930 . S
H1284 C1294 0.930 . S
H1285 C1295 0.930 . S
C1286 H1280 0.930 . S
C1286 C1287 1.355 . S
C1286 C1288 1.415 . S
C1287 C1286 1.355 . S
C1287 C1289 1.419 . S
C1288 C1286 1.415 . S
C1288 C1293 1.425 . S
C1288 C1295 1.409 . S
C1289 H1281 0.930 . S
C1289 C1287 1.419 . S
C1289 C1290 1.362 . S
C1290 H1282 0.930 . S
C1290 C1289 1.362 . S
C1290 C1293 1.409 . S
C1291 H1283 0.930 . S
C1291 C1292 1.355 . S
C1291 C1293 1.415 . S
C1292 C1291 1.355 . S
C1292 C1294 1.419 . S
C1293 C1288 1.425 . S
C1293 C1290 1.409 . S
C1293 C1291 1.415 . S
C1294 H1284 0.930 . S
C1294 C1292 1.419 . S
C1294 C1295 1.362 . S
C1295 H1285 0.930 . S
C1295 C1288 1.409 . S
C1295 C1294 1.362 . S
H1296 C1302 0.930 . S
H1297 C1305 0.930 . S
H1298 C1306 0.930 . S
H1299 C1307 0.930 . S
H1300 C1310 0.930 . S
H1301 C1311 0.930 . S
C1302 H1296 0.930 . S
C1302 C1303 1.355 . S
C1302 C1304 1.415 . S
C1303 C1302 1.355 . S
C1303 C1305 1.419 . S
C1304 C1302 1.415 . S
C1304 C1309 1.425 . S
C1304 C1311 1.409 . S
C1305 H1297 0.930 . S
C1305 C1303 1.419 . S
C1305 C1306 1.362 . S
C1306 H1298 0.930 . S
C1306 C1305 1.362 . S
C1306 C1309 1.409 . S
C1307 H1299 0.930 . S
C1307 C1308 1.355 . S
C1307 C1309 1.415 . S
C1308 C1307 1.355 . S
C1308 C1310 1.419 . S
C1309 C1304 1.425 . S
C1309 C1306 1.409 . S
C1309 C1307 1.415 . S
C1310 H1300 0.930 . S
C1310 C1308 1.419 . S
C1310 C1311 1.362 . S
C1311 H1301 0.930 . S
C1311 C1304 1.409 . S
C1311 C1310 1.362 . S
H1312 C1318 0.930 . S
H1313 C1321 0.930 . S
H1314 C1322 0.930 . S
H1315 C1323 0.930 . S
H1316 C1326 0.930 . S
H1317 C1327 0.930 . S
C1318 H1312 0.930 . S
C1318 C1319 1.355 . S
C1318 C1320 1.415 . S
C1319 C1318 1.355 . S
C1319 C1321 1.419 . S
C1320 C1318 1.415 . S
C1320 C1325 1.425 . S
C1320 C1327 1.409 . S
C1321 H1313 0.930 . S
C1321 C1319 1.419 . S
C1321 C1322 1.362 . S
C1322 H1314 0.930 . S
C1322 C1321 1.362 . S
C1322 C1325 1.409 . S
C1323 H1315 0.930 . S
C1323 C1324 1.355 . S
C1323 C1325 1.415 . S
C1324 C1323 1.355 . S
C1324 C1326 1.419 . S
C1325 C1320 1.425 . S
C1325 C1322 1.409 . S
C1325 C1323 1.415 . S
C1326 H1316 0.930 . S
C1326 C1324 1.419 . S
C1326 C1327 1.362 . S
C1327 H1317 0.930 . S
C1327 C1320 1.409 . S
C1327 C1326 1.362 . S
H1328 C1334 0.930 . S
H1329 C1337 0.930 . S
H1330 C1338 0.930 . S
H1331 C1339 0.930 . S
H1332 C1342 0.930 . S
H1333 C1343 0.930 . S
C1334 H1328 0.930 . S
C1334 C1335 1.355 . S
C1334 C1336 1.415 . S
C1335 C1334 1.355 . S
C1335 C1337 1.419 . S
C1336 C1334 1.415 . S
C1336 C1341 1.425 . S
C1336 C1343 1.409 . S
C1337 H1329 0.930 . S
C1337 C1335 1.419 . S
C1337 C1338 1.362 . S
C1338 H1330 0.930 . S
C1338 C1337 1.362 . S
C1338 C1341 1.409 . S
C1339 H1331 0.930 . S
C1339 C1340 1.355 . S
C1339 C1341 1.415 . S
C1340 C1339 1.355 . S
C1340 C1342 1.419 . S
C1341 C1336 1.425 . S
C1341 C1338 1.409 . S
C1341 C1339 1.415 . S
C1342 H1332 0.930 . S
C1342 C1340 1.419 . S
C1342 C1343 1.362 . S
C1343 H1333 0.930 . S
C1343 C1336 1.409 . S
C1343 C1342 1.362 . S
H1344 C1350 0.930 . S
H1345 C1353 0.930 . S
H1346 C1354 0.930 . S
H1347 C1355 0.930 . S
H1348 C1358 0.930 . S
H1349 C1359 0.930 . S
C1350 H1344 0.930 . S
C1350 C1351 1.355 . S
C1350 C1352 1.415 . S
C1351 C1350 1.355 . S
C1351 C1353 1.419 . S
C1352 C1350 1.415 . S
C1352 C1357 1.425 . S
C1352 C1359 1.409 . S
C1353 H1345 0.930 . S
C1353 C1351 1.419 . S
C1353 C1354 1.362 . S
C1354 H1346 0.930 . S
C1354 C1353 1.362 . S
C1354 C1357 1.409 . S
C1355 H1347 0.930 . S
C1355 C1356 1.355 . S
C1355 C1357 1.415 . S
C1356 C1355 1.355 . S
C1356 C1358 1.419 . S
C1357 C1352 1.425 . S
C1357 C1354 1.409 . S
C1357 C1355 1.415 . S
C1358 H1348 0.930 . S
C1358 C1356 1.419 . S
C1358 C1359 1.362 . S
C1359 H1349 0.930 . S
C1359 C1352 1.409 . S
C1359 C1358 1.362 . S
H1360 C1366 0.930 . S
H1361 C1369 0.930 . S
H1362 C1370 0.930 . S
H1363 C1371 0.930 . S
H1364 C1374 0.930 . S
H1365 C1375 0.930 . S
C1366 H1360 0.930 . S
C1366 C1367 1.355 . S
C1366 C1368 1.415 . S
C1367 C1366 1.355 . S
C1367 C1369 1.419 . S
C1368 C1366 1.415 . S
C1368 C1373 1.425 . S
C1368 C1375 1.409 . S
C1369 H1361 0.930 . S
C1369 C1367 1.419 . S
C1369 C1370 1.362 . S
C1370 H1362 0.930 . S
C1370 C1369 1.362 . S
C1370 C1373 1.409 . S
C1371 H1363 0.930 . S
C1371 C1372 1.355 . S
C1371 C1373 1.415 . S
C1372 C1371 1.355 . S
C1372 C1374 1.419 . S
C1373 C1368 1.425 . S
C1373 C1370 1.409 . S
C1373 C1371 1.415 . S
C1374 H1364 0.930 . S
C1374 C1372 1.419 . S
C1374 C1375 1.362 . S
C1375 H1365 0.930 . S
C1375 C1368 1.409 . S
C1375 C1374 1.362 . S
H1376 C1382 0.930 . S
H1377 C1385 0.930 . S
H1378 C1386 0.930 . S
H1379 C1387 0.930 . S
H1380 C1390 0.930 . S
H1381 C1391 0.930 . S
C1382 H1376 0.930 . S
C1382 C1383 1.355 . S
C1382 C1384 1.415 . S
C1383 C1382 1.355 . S
C1383 C1385 1.419 . S
C1384 C1382 1.415 . S
C1384 C1389 1.425 . S
C1384 C1391 1.409 . S
C1385 H1377 0.930 . S
C1385 C1383 1.419 . S
C1385 C1386 1.362 . S
C1386 H1378 0.930 . S
C1386 C1385 1.362 . S
C1386 C1389 1.409 . S
C1387 H1379 0.930 . S
C1387 C1388 1.355 . S
C1387 C1389 1.415 . S
C1388 C1387 1.355 . S
C1388 C1390 1.419 . S
C1389 C1384 1.425 . S
C1389 C1386 1.409 . S
C1389 C1387 1.415 . S
C1390 H1380 0.930 . S
C1390 C1388 1.419 . S
C1390 C1391 1.362 . S
C1391 H1381 0.930 . S
C1391 C1384 1.409 . S
C1391 C1390 1.362 . S
H1392 C1398 0.930 . S
H1393 C1401 0.930 . S
H1394 C1402 0.930 . S
H1395 C1403 0.930 . S
H1396 C1406 0.930 . S
H1397 C1407 0.930 . S
C1398 H1392 0.930 . S
C1398 C1399 1.355 . S
C1398 C1400 1.415 . S
C1399 C1398 1.355 . S
C1399 C1401 1.419 . S
C1400 C1398 1.415 . S
C1400 C1405 1.425 . S
C1400 C1407 1.409 . S
C1401 H1393 0.930 . S
C1401 C1399 1.419 . S
C1401 C1402 1.362 . S
C1402 H1394 0.930 . S
C1402 C1401 1.362 . S
C1402 C1405 1.409 . S
C1403 H1395 0.930 . S
C1403 C1404 1.355 . S
C1403 C1405 1.415 . S
C1404 C1403 1.355 . S
C1404 C1406 1.419 . S
C1405 C1400 1.425 . S
C1405 C1402 1.409 . S
C1405 C1403 1.415 . S
C1406 H1396 0.930 . S
C1406 C1404 1.419 . S
C1406 C1407 1.362 . S
C1407 H1397 0.930 . S
C1407 C1400 1.409 . S
C1407 C1406 1.362 . S
H1408 C1414 0.930 . S
H1409 C1417 0.930 . S
H1410 C1418 0.930 . S
H1411 C1419 0.930 . S
H1412 C1422 0.930 . S
H1413 C1423 0.930 . S
C1414 H1408 0.930 . S
C1414 C1415 1.355 . S
C1414 C1416 1.415 . S
C1415 C1414 1.355 . S
C1415 C1417 1.419 . S
C1416 C1414 1.415 . S
C1416 C1421 1.425 . S
C1416 C1423 1.409 . S
C1417 H1409 0.930 . S
C1417 C1415 1.419 . S
C1417 C1418 1.362 . S
C1418 H1410 0.930 . S
C1418 C1417 1.362 . S
C1418 C1421 1.409 . S
C1419 H1411 0.930 . S
C1419 C1420 1.355 . S
C1419 C1421 1.415 . S
C1420 C1419 1.355 . S
C1420 C1422 1.419 . S
C1421 C1416 1.425 . S
C1421 C1418 1.409 . S
C1421 C1419 1.415 . S
C1422 H1412 0.930 . S
C1422 C1420 1.419 . S
C1422 C1423 1.362 . S
C1423 H1413 0.930 . S
C1423 C1416 1.409 . S
C1423 C1422 1.362 . S
H1424 C1430 0.930 . S
H1425 C1433 0.930 . S
H1426 C1434 0.930 . S
H1427 C1435 0.930 . S
H1428 C1438 0.930 . S
H1429 C1439 0.930 . S
C1430 H1424 0.930 . S
C1430 C1431 1.355 . S
C1430 C1432 1.415 . S
C1431 C1430 1.355 . S
C1431 C1433 1.419 . S
C1432 C1430 1.415 . S
C1432 C1437 1.425 . S
C1432 C1439 1.409 . S
C1433 H1425 0.930 . S
C1433 C1431 1.419 . S
C1433 C1434 1.362 . S
C1434 H1426 0.930 . S
C1434 C1433 1.362 . S
C1434 C1437 1.409 . S
C1435 H1427 0.930 . S
C1435 C1436 1.355 . S
C1435 C1437 1.415 . S
C1436 C1435 1.355 . S
C1436 C1438 1.419 . S
C1437 C1432 1.425 . S
C1437 C1434 1.409 . S
C1437 C1435 1.415 . S
C1438 H1428 0.930 . S
C1438 C1436 1.419 . S
C1438 C1439 1.362 . S
C1439 H1429 0.930 . S
C1439 C1432 1.409 . S
C1439 C1438 1.362 . S
H1440 C1446 0.930 . S
H1441 C1449 0.930 . S
H1442 C1450 0.930 . S
H1443 C1451 0.930 . S
H1444 C1454 0.930 . S
H1445 C1455 0.930 . S
C1446 H1440 0.930 . S
C1446 C1447 1.355 . S
C1446 C1448 1.415 . S
C1447 C1446 1.355 . S
C1447 C1449 1.419 . S
C1448 C1446 1.415 . S
C1448 C1453 1.425 . S
C1448 C1455 1.409 . S
C1449 H1441 0.930 . S
C1449 C1447 1.419 . S
C1449 C1450 1.362 . S
C1450 H1442 0.930 . S
C1450 C1449 1.362 . S
C1450 C1453 1.409 . S
C1451 H1443 0.930 . S
C1451 C1452 1.355 . S
C1451 C1453 1.415 . S
C1452 C1451 1.355 . S
C1452 C1454 1.419 . S
C1453 C1448 1.425 . S
C1453 C1450 1.409 . S
C1453 C1451 1.415 . S
C1454 H1444 0.930 . S
C1454 C1452 1.419 . S
C1454 C1455 1.362 . S
C1455 H1445 0.930 . S
C1455 C1448 1.409 . S
C1455 C1454 1.362 . S
H1456 C1462 0.930 . S
H1457 C1465 0.930 . S
H1458 C1466 0.930 . S
H1459 C1467 0.930 . S
H1460 C1470 0.930 . S
H1461 C1471 0.930 . S
C1462 H1456 0.930 . S
C1462 C1463 1.355 . S
C1462 C1464 1.415 . S
C1463 C1462 1.355 . S
C1463 C1465 1.419 . S
C1464 C1462 1.415 . S
C1464 C1469 1.425 . S
C1464 C1471 1.409 . S
C1465 H1457 0.930 . S
C1465 C1463 1.419 . S
C1465 C1466 1.362 . S
C1466 H1458 0.930 . S
C1466 C1465 1.362 . S
C1466 C1469 1.409 . S
C1467 H1459 0.930 . S
C1467 C1468 1.355 . S
C1467 C1469 1.415 . S
C1468 C1467 1.355 . S
C1468 C1470 1.419 . S
C1469 C1464 1.425 . S
C1469 C1466 1.409 . S
C1469 C1467 1.415 . S
C1470 H1460 0.930 . S
C1470 C1468 1.419 . S
C1470 C1471 1.362 . S
C1471 H1461 0.930 . S
C1471 C1464 1.409 . S
C1471 C1470 1.362 . S
H1472 C1478 0.930 . S
H1473 C1481 0.930 . S
H1474 C1482 0.930 . S
H1475 C1483 0.930 . S
H1476 C1486 0.930 . S
H1477 C1487 0.930 . S
C1478 H1472 0.930 . S
C1478 C1479 1.355 . S
C1478 C1480 1.415 . S
C1479 C1478 1.355 . S
C1479 C1481 1.419 . S
C1480 C1478 1.415 . S
C1480 C1485 1.425 . S
C1480 C1487 1.409 . S
C1481 H1473 0.930 . S
C1481 C1479 1.419 . S
C1481 C1482 1.362 . S
C1482 H1474 0.930 . S
C1482 C1481 1.362 . S
C1482 C1485 1.409 . S
C1483 H1475 0.930 . S
C1483 C1484 1.355 . S
C1483 C1485 1.415 . S
C1484 C1483 1.355 . S
C1484 C1486 1.419 . S
C1485 C1480 1.425 . S
C1485 C1482 1.409 . S
C1485 C1483 1.415 . S
C1486 H1476 0.930 . S
C1486 C1484 1.419 . S
C1486 C1487 1.362 . S
C1487 H1477 0.930 . S
C1487 C1480 1.409 . S
C1487 C1486 1.362 . S
H1488 C1494 0.930 . S
H1489 C1497 0.930 . S
H1490 C1498 0.930 . S
H1491 C1499 0.930 . S
H1492 C1502 0.930 . S
H1493 C1503 0.930 . S
C1494 H1488 0.930 . S
C1494 C1495 1.355 . S
C1494 C1496 1.415 . S
C1495 C1494 1.355 . S
C1495 C1497 1.419 . S
C1496 C1494 1.415 . S
C1496 C1501 1.425 . S
C1496 C1503 1.409 . S
C1497 H1489 0.930 . S
C1497 C1495 1.419 . S
C1497 C1498 1.362 . S
C1498 H1490 0.930 . S
C1498 C1497 1.362 . S
C1498 C1501 1.409 . S
C1499 H1491 0.930 . S
C1499 C1500 1.355 . S
C1499 C1501 1.415 . S
C1500 C1499 1.355 . S
C1500 C1502 1.419 . S
C1501 C1496 1.425 . S
C1501 C1498 1.409 . S
C1501 C1499 1.415 . S
C1502 H1492 0.930 . S
C1502 C1500 1.419 . S
C1502 C1503 1.362 . S
C1503 H1493 0.930 . S
C1503 C1496 1.409 . S
C1503 C1502 1.362 . S
H1504 C1510 0.930 . S
H1505 C1513 0.930 . S
H1506 C1514 0.930 . S
H1507 C1515 0.930 . S
H1508 C1518 0.930 . S
H1509 C1519 0.930 . S
C1510 H1504 0.930 . S
C1510 C1511 1.355 . S
C1510 C1512 1.415 . S
C1511 C1510 1.355 . S
C1511 C1513 1.419 . S
C1512 C1510 1.415 . S
C1512 C1517 1.425 . S
C1512 C1519 1.409 . S
C1513 H1505 0.930 . S
C1513 C1511 1.419 . S
C1513 C1514 1.362 . S
C1514 H1506 0.930 . S
C1514 C1513 1.362 . S
C1514 C1517 1.409 . S
C1515 H1507 0.930 . S
C1515 C1516 1.355 . S
C1515 C1517 1.415 . S
C1516 C1515 1.355 . S
C1516 C1518 1.419 . S
C1517 C1512 1.425 . S
C1517 C1514 1.409 . S
C1517 C1515 1.415 . S
C1518 H1508 0.930 . S
C1518 C1516 1.419 . S
C1518 C1519 1.362 . S
C1519 H1509 0.930 . S
C1519 C1512 1.409 . S
C1519 C1518 1.362 . S
H1520 C1526 0.930 . S
H1521 C1529 0.930 . S
H1522 C1530 0.930 . S
H1523 C1531 0.930 . S
H1524 C1534 0.930 . S
H1525 C1535 0.930 . S
C1526 H1520 0.930 . S
C1526 C1527 1.355 . S
C1526 C1528 1.415 . S
C1527 C1526 1.355 . S
C1527 C1529 1.419 . S
C1528 C1526 1.415 . S
C1528 C1533 1.425 . S
C1528 C1535 1.409 . S
C1529 H1521 0.930 . S
C1529 C1527 1.419 . S
C1529 C1530 1.362 . S
C1530 H1522 0.930 . S
C1530 C1529 1.362 . S
C1530 C1533 1.409 . S
C1531 H1523 0.930 . S
C1531 C1532 1.355 . S
C1531 C1533 1.415 . S
C1532 C1531 1.355 . S
C1532 C1534 1.419 . S
C1533 C1528 1.425 . S
C1533 C1530 1.409 . S
C1533 C1531 1.415 . S
C1534 H1524 0.930 . S
C1534 C1532 1.419 . S
C1534 C1535 1.362 . S
C1535 H1525 0.930 . S
C1535 C1528 1.409 . S
C1535 C1534 1.362 . S
H1536 C1542 0.930 . S
H1537 C1545 0.930 . S
H1538 C1546 0.930 . S
H1539 C1547 0.930 . S
H1540 C1550 0.930 . S
H1541 C1551 0.930 . S
C1542 H1536 0.930 . S
C1542 C1543 1.355 . S
C1542 C1544 1.415 . S
C1543 C1542 1.355 . S
C1543 C1545 1.419 . S
C1544 C1542 1.415 . S
C1544 C1549 1.425 . S
C1544 C1551 1.409 . S
C1545 H1537 0.930 . S
C1545 C1543 1.419 . S
C1545 C1546 1.362 . S
C1546 H1538 0.930 . S
C1546 C1545 1.362 . S
C1546 C1549 1.409 . S
C1547 H1539 0.930 . S
C1547 C1548 1.355 . S
C1547 C1549 1.415 . S
C1548 C1547 1.355 . S
C1548 C1550 1.419 . S
C1549 C1544 1.425 . S
C1549 C1546 1.409 . S
C1549 C1547 1.415 . S
C1550 H1540 0.930 . S
C1550 C1548 1.419 . S
C1550 C1551 1.362 . S
C1551 H1541 0.930 . S
C1551 C1544 1.409 . S
C1551 C1550 1.362 . S
H1552 C1558 0.930 . S
H1553 C1561 0.930 . S
H1554 C1562 0.930 . S
H1555 C1563 0.930 . S
H1556 C1566 0.930 . S
H1557 C1567 0.930 . S
C1558 H1552 0.930 . S
C1558 C1559 1.355 . S
C1558 C1560 1.415 . S
C1559 C1558 1.355 . S
C1559 C1561 1.419 . S
C1560 C1558 1.415 . S
C1560 C1565 1.425 . S
C1560 C1567 1.409 . S
C1561 H1553 0.930 . S
C1561 C1559 1.419 . S
C1561 C1562 1.362 . S
C1562 H1554 0.930 . S
C1562 C1561 1.362 . S
C1562 C1565 1.409 . S
C1563 H1555 0.930 . S
C1563 C1564 1.355 . S
C1563 C1565 1.415 . S
C1564 C1563 1.355 . S
C1564 C1566 1.419 . S
C1565 C1560 1.425 . S
C1565 C1562 1.409 . S
C1565 C1563 1.415 . S
C1566 H1556 0.930 . S
C1566 C1564 1.419 . S
C1566 C1567 1.362 . S
C1567 H1557 0.930 . S
C1567 C1560 1.409 . S
C1567 C1566 1.362 . S
H1568 C1574 0.930 . S
H1569 C1577 0.930 . S
H1570 C1578 0.930 . S
H1571 C1579 0.930 . S
H1572 C1582 0.930 . S
H1573 C1583 0.930 . S
C1574 H1568 0.930 . S
C1574 C1575 1.355 . S
C1574 C1576 1.415 . S
C1575 C1574 1.355 . S
C1575 C1577 1.419 . S
C1576 C1574 1.415 . S
C1576 C1581 1.425 . S
C1576 C1583 1.409 . S
C1577 H1569 0.930 . S
C1577 C1575 1.419 . S
C1577 C1578 1.362 . S
C1578 H1570 0.930 . S
C1578 C1577 1.362 . S
C1578 C1581 1.409 . S
C1579 H1571 0.930 . S
C1579 C1580 1.355 . S
C1579 C1581 1.415 . S
C1580 C1579 1.355 . S
C1580 C1582 1.419 . S
C1581 C1576 1.425 . S
C1581 C1578 1.409 . S
C1581 C1579 1.415 . S
C1582 H1572 0.930 . S
C1582 C1580 1.419 . S
C1582 C1583 1.362 . S
C1583 H1573 0.930 . S
C1583 C1576 1.409 . S
C1583 C1582 1.362 . S
H1584 C1590 0.930 . S
H1585 C1593 0.930 . S
H1586 C1594 0.930 . S
H1587 C1595 0.930 . S
H1588 C1598 0.930 . S
H1589 C1599 0.930 . S
C1590 H1584 0.930 . S
C1590 C1591 1.355 . S
C1590 C1592 1.415 . S
C1591 C1590 1.355 . S
C1591 C1593 1.419 . S
C1592 C1590 1.415 . S
C1592 C1597 1.425 . S
C1592 C1599 1.409 . S
C1593 H1585 0.930 . S
C1593 C1591 1.419 . S
C1593 C1594 1.362 . S
C1594 H1586 0.930 . S
C1594 C1593 1.362 . S
C1594 C1597 1.409 . S
C1595 H1587 0.930 . S
C1595 C1596 1.355 . S
C1595 C1597 1.415 . S
C1596 C1595 1.355 . S
C1596 C1598 1.419 . S
C1597 C1592 1.425 . S
C1597 C1594 1.409 . S
C1597 C1595 1.415 . S
C1598 H1588 0.930 . S
C1598 C1596 1.419 . S
C1598 C1599 1.362 . S
C1599 H1589 0.930 . S
C1599 C1592 1.409 . S
C1599 C1598 1.362 . S
H1600 C1606 0.930 . S
H1601 C1609 0.930 . S
H1602 C1610 0.930 . S
H1603 C1611 0.930 . S
H1604 C1614 0.930 . S
H1605 C1615 0.930 . S
C1606 H1600 0.930 . S
C1606 C1607 1.355 . S
C1606 C1608 1.415 . S
C1607 C1606 1.355 . S
C1607 C1609 1.419 . S
C1608 C1606 1.415 . S
C1608 C1613 1.425 . S
C1608 C1615 1.409 . S
C1609 H1601 0.930 . S
C1609 C1607 1.419 . S
C1609 C1610 1.362 . S
C1610 H1602 0.930 . S
C1610 C1609 1.362 . S
C1610 C1613 1.409 . S
C1611 H1603 0.930 . S
C1611 C1612 1.355 . S
C1611 C1613 1.415 . S
C1612 C1611 1.355 . S
C1612 C1614 1.419 . S
C1613 C1608 1.425 . S
C1613 C1610 1.409 . S
C1613 C1611 1.415 . S
C1614 H1604 0.930 . S
C1614 C1612 1.419 . S
C1614 C1615 1.362 . S
C1615 H1605 0.930 . S
C1615 C1608 1.409 . S
C1615 C1614 1.362 . S
H1616 C1622 0.930 . S
H1617 C1625 0.930 . S
H1618 C1626 0.930 . S
H1619 C1627 0.930 . S
H1620 C1630 0.930 . S
H1621 C1631 0.930 . S
C1622 H1616 0.930 . S
C1622 C1623 1.355 . S
C1622 C1624 1.415 . S
C1623 C1622 1.355 . S
C1623 C1625 1.419 . S
C1624 C1622 1.415 . S
C1624 C1629 1.425 . S
C1624 C1631 1.409 . S
C1625 H1617 0.930 . S
C1625 C1623 1.419 . S
C1625 C1626 1.362 . S
C1626 H1618 0.930 . S
C1626 C1625 1.362 . S
C1626 C1629 1.409 . S
C1627 H1619 0.930 . S
C1627 C1628 1.355 . S
C1627 C1629 1.415 . S
C1628 C1627 1.355 . S
C1628 C1630 1.419 . S
C1629 C1624 1.425 . S
C1629 C1626 1.409 . S
C1629 C1627 1.415 . S
C1630 H1620 0.930 . S
C1630 C1628 1.419 . S
C1630 C1631 1.362 . S
C1631 H1621 0.930 . S
C1631 C1624 1.409 . S
C1631 C1630 1.362 . S
H1632 C1638 0.930 . S
H1633 C1641 0.930 . S
H1634 C1642 0.930 . S
H1635 C1643 0.930 . S
H1636 C1646 0.930 . S
H1637 C1647 0.930 . S
C1638 H1632 0.930 . S
C1638 C1639 1.355 . S
C1638 C1640 1.415 . S
C1639 C1638 1.355 . S
C1639 C1641 1.419 . S
C1640 C1638 1.415 . S
C1640 C1645 1.425 . S
C1640 C1647 1.409 . S
C1641 H1633 0.930 . S
C1641 C1639 1.419 . S
C1641 C1642 1.362 . S
C1642 H1634 0.930 . S
C1642 C1641 1.362 . S
C1642 C1645 1.409 . S
C1643 H1635 0.930 . S
C1643 C1644 1.355 . S
C1643 C1645 1.415 . S
C1644 C1643 1.355 . S
C1644 C1646 1.419 . S
C1645 C1640 1.425 . S
C1645 C1642 1.409 . S
C1645 C1643 1.415 . S
C1646 H1636 0.930 . S
C1646 C1644 1.419 . S
C1646 C1647 1.362 . S
C1647 H1637 0.930 . S
C1647 C1640 1.409 . S
C1647 C1646 1.362 . S
H1648 C1654 0.930 . S
H1649 C1657 0.930 . S
H1650 C1658 0.930 . S
H1651 C1659 0.930 . S
H1652 C1662 0.930 . S
H1653 C1663 0.930 . S
C1654 H1648 0.930 . S
C1654 C1655 1.355 . S
C1654 C1656 1.415 . S
C1655 C1654 1.355 . S
C1655 C1657 1.419 . S
C1656 C1654 1.415 . S
C1656 C1661 1.425 . S
C1656 C1663 1.409 . S
C1657 H1649 0.930 . S
C1657 C1655 1.419 . S
C1657 C1658 1.362 . S
C1658 H1650 0.930 . S
C1658 C1657 1.362 . S
C1658 C1661 1.409 . S
C1659 H1651 0.930 . S
C1659 C1660 1.355 . S
C1659 C1661 1.415 . S
C1660 C1659 1.355 . S
C1660 C1662 1.419 . S
C1661 C1656 1.425 . S
C1661 C1658 1.409 . S
C1661 C1659 1.415 . S
C1662 H1652 0.930 . S
C1662 C1660 1.419 . S
C1662 C1663 1.362 . S
C1663 H1653 0.930 . S
C1663 C1656 1.409 . S
C1663 C1662 1.362 . S
H1664 C1670 0.930 . S
H1665 C1673 0.930 . S
H1666 C1674 0.930 . S
H1667 C1675 0.930 . S
H1668 C1678 0.930 . S
H1669 C1679 0.930 . S
C1670 H1664 0.930 . S
C1670 C1671 1.355 . S
C1670 C1672 1.415 . S
C1671 C1670 1.355 . S
C1671 C1673 1.419 . S
C1672 C1670 1.415 . S
C1672 C1677 1.425 . S
C1672 C1679 1.409 . S
C1673 H1665 0.930 . S
C1673 C1671 1.419 . S
C1673 C1674 1.362 . S
C1674 H1666 0.930 . S
C1674 C1673 1.362 . S
C1674 C1677 1.409 . S
C1675 H1667 0.930 . S
C1675 C1676 1.355 . S
C1675 C1677 1.415 . S
C1676 C1675 1.355 . S
C1676 C1678 1.419 . S
C1677 C1672 1.425 . S
C1677 C1674 1.409 . S
C1677 C1675 1.415 . S
C1678 H1668 0.930 . S
C1678 C1676 1.419 . S
C1678 C1679 1.362 . S
C1679 H1669 0.930 . S
C1679 C1672 1.409 . S
C1679 C1678 1.362 . S
H1680 C1686 0.930 . S
H1681 C1689 0.930 . S
H1682 C1690 0.930 . S
H1683 C1691 0.930 . S
H1684 C1694 0.930 . S
H1685 C1695 0.930 . S
C1686 H1680 0.930 . S
C1686 C1687 1.355 . S
C1686 C1688 1.415 . S
C1687 C1686 1.355 . S
C1687 C1689 1.419 . S
C1688 C1686 1.415 . S
C1688 C1693 1.425 . S
C1688 C1695 1.409 . S
C1689 H1681 0.930 . S
C1689 C1687 1.419 . S
C1689 C1690 1.362 . S
C1690 H1682 0.930 . S
C1690 C1689 1.362 . S
C1690 C1693 1.409 . S
C1691 H1683 0.930 . S
C1691 C1692 1.355 . S
C1691 C1693 1.415 . S
C1692 C1691 1.355 . S
C1692 C1694 1.419 . S
C1693 C1688 1.425 . S
C1693 C1690 1.409 . S
C1693 C1691 1.415 . S
C1694 H1684 0.930 . S
C1694 C1692 1.419 . S
C1694 C1695 1.362 . S
C1695 H1685 0.930 . S
C1695 C1688 1.409 . S
C1695 C1694 1.362 . S
H1696 C1702 0.930 . S
H1697 C1705 0.930 . S
H1698 C1706 0.930 . S
H1699 C1707 0.930 . S
H1700 C1710 0.930 . S
H1701 C1711 0.930 . S
C1702 H1696 0.930 . S
C1702 C1703 1.355 . S
C1702 C1704 1.415 . S
C1703 C1702 1.355 . S
C1703 C1705 1.419 . S
C1704 C1702 1.415 . S
C1704 C1709 1.425 . S
C1704 C1711 1.409 . S
C1705 H1697 0.930 . S
C1705 C1703 1.419 . S
C1705 C1706 1.362 . S
C1706 H1698 0.930 . S
C1706 C1705 1.362 . S
C1706 C1709 1.409 . S
C1707 H1699 0.930 . S
C1707 C1708 1.355 . S
C1707 C1709 1.415 . S
C1708 C1707 1.355 . S
C1708 C1710 1.419 . S
C1709 C1704 1.425 . S
C1709 C1706 1.409 . S
C1709 C1707 1.415 . S
C1710 H1700 0.930 . S
C1710 C1708 1.419 . S
C1710 C1711 1.362 . S
C1711 H1701 0.930 . S
C1711 C1704 1.409 . S
C1711 C1710 1.362 . S
H1712 C1718 0.930 . S
H1713 C1721 0.930 . S
H1714 C1722 0.930 . S
H1715 C1723 0.930 . S
H1716 C1726 0.930 . S
H1717 C1727 0.930 . S
C1718 H1712 0.930 . S
C1718 C1719 1.355 . S
C1718 C1720 1.415 . S
C1719 C1718 1.355 . S
C1719 C1721 1.419 . S
C1720 C1718 1.415 . S
C1720 C1725 1.425 . S
C1720 C1727 1.409 . S
C1721 H1713 0.930 . S
C1721 C1719 1.419 . S
C1721 C1722 1.362 . S
C1722 H1714 0.930 . S
C1722 C1721 1.362 . S
C1722 C1725 1.409 . S
C1723 H1715 0.930 . S
C1723 C1724 1.355 . S
C1723 C1725 1.415 . S
C1724 C1723 1.355 . S
C1724 C1726 1.419 . S
C1725 C1720 1.425 . S
C1725 C1722 1.409 . S
C1725 C1723 1.415 . S
C1726 H1716 0.930 . S
C1726 C1724 1.419 . S
C1726 C1727 1.362 . S
C1727 H1717 0.930 . S
C1727 C1720 1.409 . S
C1727 C1726 1.362 . S
H1728 C1734 0.930 . S
H1729 C1737 0.930 . S
H1730 C1738 0.930 . S
H1731 C1739 0.930 . S
H1732 C1742 0.930 . S
H1733 C1743 0.930 . S
C1734 H1728 0.930 . S
C1734 C1735 1.355 . S
C1734 C1736 1.415 . S
C1735 C1734 1.355 . S
C1735 C1737 1.419 . S
C1736 C1734 1.415 . S
C1736 C1741 1.425 . S
C1736 C1743 1.409 . S
C1737 H1729 0.930 . S
C1737 C1735 1.419 . S
C1737 C1738 1.362 . S
C1738 H1730 0.930 . S
C1738 C1737 1.362 . S
C1738 C1741 1.409 . S
C1739 H1731 0.930 . S
C1739 C1740 1.355 . S
C1739 C1741 1.415 . S
C1740 C1739 1.355 . S
C1740 C1742 1.419 . S
C1741 C1736 1.425 . S
C1741 C1738 1.409 . S
C1741 C1739 1.415 . S
C1742 H1732 0.930 . S
C1742 C1740 1.419 . S
C1742 C1743 1.362 . S
C1743 H1733 0.930 . S
C1743 C1736 1.409 . S
C1743 C1742 1.362 . S
H1744 C1750 0.930 . S
H1745 C1753 0.930 . S
H1746 C1754 0.930 . S
H1747 C1755 0.930 . S
H1748 C1758 0.930 . S
H1749 C1759 0.930 . S
C1750 H1744 0.930 . S
C1750 C1751 1.355 . S
C1750 C1752 1.415 . S
C1751 C1750 1.355 . S
C1751 C1753 1.419 . S
C1752 C1750 1.415 . S
C1752 C1757 1.425 . S
C1752 C1759 1.409 . S
C1753 H1745 0.930 . S
C1753 C1751 1.419 . S
C1753 C1754 1.362 . S
C1754 H1746 0.930 . S
C1754 C1753 1.362 . S
C1754 C1757 1.409 . S
C1755 H1747 0.930 . S
C1755 C1756 1.355 . S
C1755 C1757 1.415 . S
C1756 C1755 1.355 . S
C1756 C1758 1.419 . S
C1757 C1752 1.425 . S
C1757 C1754 1.409 . S
C1757 C1755 1.415 . S
C1758 H1748 0.930 . S
C1758 C1756 1.419 . S
C1758 C1759 1.362 . S
C1759 H1749 0.930 . S
C1759 C1752 1.409 . S
C1759 C1758 1.362 . S
H1760 C1766 0.930 . S
H1761 C1769 0.930 . S
H1762 C1770 0.930 . S
H1763 C1771 0.930 . S
H1764 C1774 0.930 . S
H1765 C1775 0.930 . S
C1766 H1760 0.930 . S
C1766 C1767 1.355 . S
C1766 C1768 1.415 . S
C1767 C1766 1.355 . S
C1767 C1769 1.419 . S
C1768 C1766 1.415 . S
C1768 C1773 1.425 . S
C1768 C1775 1.409 . S
C1769 H1761 0.930 . S
C1769 C1767 1.419 . S
C1769 C1770 1.362 . S
C1770 H1762 0.930 . S
C1770 C1769 1.362 . S
C1770 C1773 1.409 . S
C1771 H1763 0.930 . S
C1771 C1772 1.355 . S
C1771 C1773 1.415 . S
C1772 C1771 1.355 . S
C1772 C1774 1.419 . S
C1773 C1768 1.425 . S
C1773 C1770 1.409 . S
C1773 C1771 1.415 . S
C1774 H1764 0.930 . S
C1774 C1772 1.419 . S
C1774 C1775 1.362 . S
C1775 H1765 0.930 . S
C1775 C1768 1.409 . S
C1775 C1774 1.362 . S
H1776 C1782 0.930 . S
H1777 C1785 0.930 . S
H1778 C1786 0.930 . S
H1779 C1787 0.930 . S
H1780 C1790 0.930 . S
H1781 C1791 0.930 . S
C1782 H1776 0.930 . S
C1782 C1783 1.355 . S
C1782 C1784 1.415 . S
C1783 C1782 1.355 . S
C1783 C1785 1.419 . S
C1784 C1782 1.415 . S
C1784 C1789 1.425 . S
C1784 C1791 1.409 . S
C1785 H1777 0.930 . S
C1785 C1783 1.419 . S
C1785 C1786 1.362 . S
C1786 H1778 0.930 . S
C1786 C1785 1.362 . S
C1786 C1789 1.409 . S
C1787 H1779 0.930 . S
C1787 C1788 1.355 . S
C1787 C1789 1.415 . S
C1788 C1787 1.355 . S
C1788 C1790 1.419 . S
C1789 C1784 1.425 . S
C1789 C1786 1.409 . S
C1789 C1787 1.415 . S
C1790 H1780 0.930 . S
C1790 C1788 1.419 . S
C1790 C1791 1.362 . S
C1791 H1781 0.930 . S
C1791 C1784 1.409 . S
C1791 C1790 1.362 . S
H1792 C1798 0.930 . S
H1793 C1801 0.930 . S
H1794 C1802 0.930 . S
H1795 C1803 0.930 . S
H1796 C1806 0.930 . S
H1797 C1807 0.930 . S
C1798 H1792 0.930 . S
C1798 C1799 1.355 . S
C1798 C1800 1.415 . S
C1799 C1798 1.355 . S
C1799 C1801 1.419 . S
C1800 C1798 1.415 . S
C1800 C1805 1.425 . S
C1800 C1807 1.409 . S
C1801 H1793 0.930 . S
C1801 C1799 1.419 . S
C1801 C1802 1.362 . S
C1802 H1794 0.930 . S
C1802 C1801 1.362 . S
C1802 C1805 1.409 . S
C1803 H1795 0.930 . S
C1803 C1804 1.355 . S
C1803 C1805 1.415 . S
C1804 C1803 1.355 . S
C1804 C1806 1.419 . S
C1805 C1800 1.425 . S
C1805 C1802 1.409 . S
C1805 C1803 1.415 . S
C1806 H1796 0.930 . S
C1806 C1804 1.419 . S
C1806 C1807 1.362 . S
C1807 H1797 0.930 . S
C1807 C1800 1.409 . S
C1807 C1806 1.362 . S
H1808 C1814 0.930 . S
H1809 C1817 0.930 . S
H1810 C1818 0.930 . S
H1811 C1819 0.930 . S
H1812 C1822 0.930 . S
H1813 C1823 0.930 . S
C1814 H1808 0.930 . S
C1814 C1815 1.355 . S
C1814 C1816 1.415 . S
C1815 C1814 1.355 . S
C1815 C1817 1.419 . S
C1816 C1814 1.415 . S
C1816 C1821 1.425 . S
C1816 C1823 1.409 . S
C1817 H1809 0.930 . S
C1817 C1815 1.419 . S
C1817 C1818 1.362 . S
C1818 H1810 0.930 . S
C1818 C1817 1.362 . S
C1818 C1821 1.409 . S
C1819 H1811 0.930 . S
C1819 C1820 1.355 . S
C1819 C1821 1.415 . S
C1820 C1819 1.355 . S
C1820 C1822 1.419 . S
C1821 C1816 1.425 . S
C1821 C1818 1.409 . S
C1821 C1819 1.415 . S
C1822 H1812 0.930 . S
C1822 C1820 1.419 . S
C1822 C1823 1.362 . S
C1823 H1813 0.930 . S
C1823 C1816 1.409 . S
C1823 C1822 1.362 . S
H1824 C1830 0.930 . S
H1825 C1833 0.930 . S
H1826 C1834 0.930 . S
H1827 C1835 0.930 . S
H1828 C1838 0.930 . S
H1829 C1839 0.930 . S
C1830 H1824 0.930 . S
C1830 C1831 1.355 . S
C1830 C1832 1.415 . S
C1831 C1830 1.355 . S
C1831 C1833 1.419 . S
C1832 C1830 1.415 . S
C1832 C1837 1.425 . S
C1832 C1839 1.409 . S
C1833 H1825 0.930 . S
C1833 C1831 1.419 . S
C1833 C1834 1.362 . S
C1834 H1826 0.930 . S
C1834 C1833 1.362 . S
C1834 C1837 1.409 . S
C1835 H1827 0.930 . S
C1835 C1836 1.355 . S
C1835 C1837 1.415 . S
C1836 C1835 1.355 . S
C1836 C1838 1.419 . S
C1837 C1832 1.425 . S
C1837 C1834 1.409 . S
C1837 C1835 1.415 . S
C1838 H1828 0.930 . S
C1838 C1836 1.419 . S
C1838 C1839 1.362 . S
C1839 H1829 0.930 . S
C1839 C1832 1.409 . S
C1839 C1838 1.362 . S
H1840 C1846 0.930 . S
H1841 C1849 0.930 . S
H1842 C1850 0.930 . S
H1843 C1851 0.930 . S
H1844 C1854 0.930 . S
H1845 C1855 0.930 . S
C1846 H1840 0.930 . S
C1846 C1847 1.355 . S
C1846 C1848 1.415 . S
C1847 C1846 1.355 . S
C1847 C1849 1.419 . S
C1848 C1846 1.415 . S
C1848 C1853 1.425 . S
C1848 C1855 1.409 . S
C1849 H1841 0.930 . S
C1849 C1847 1.419 . S
C1849 C1850 1.362 . S
C1850 H1842 0.930 . S
C1850 C1849 1.362 . S
C1850 C1853 1.409 . S
C1851 H1843 0.930 . S
C1851 C1852 1.355 . S
C1851 C1853 1.415 . S
C1852 C1851 1.355 . S
C1852 C1854 1.419 . S
C1853 C1848 1.425 . S
C1853 C1850 1.409 . S
C1853 C1851 1.415 . S
C1854 H1844 0.930 . S
C1854 C1852 1.419 . S
C1854 C1855 1.362 . S
C1855 H1845 0.930 . S
C1855 C1848 1.409 . S
C1855 C1854 1.362 . S
H1856 C1862 0.930 . S
H1857 C1865 0.930 . S
H1858 C1866 0.930 . S
H1859 C1867 0.930 . S
H1860 C1870 0.930 . S
H1861 C1871 0.930 . S
C1862 H1856 0.930 . S
C1862 C1863 1.355 . S
C1862 C1864 1.415 . S
C1863 C1862 1.355 . S
C1863 C1865 1.419 . S
C1864 C1862 1.415 . S
C1864 C1869 1.425 . S
C1864 C1871 1.409 . S
C1865 H1857 0.930 . S
C1865 C1863 1.419 . S
C1865 C1866 1.362 . S
C1866 H1858 0.930 . S
C1866 C1865 1.362 . S
C1866 C1869 1.409 . S
C1867 H1859 0.930 . S
C1867 C1868 1.355 . S
C1867 C1869 1.415 . S
C1868 C1867 1.355 . S
C1868 C1870 1.419 . S
C1869 C1864 1.425 . S
C1869 C1866 1.409 . S
C1869 C1867 1.415 . S
C1870 H1860 0.930 . S
C1870 C1868 1.419 . S
C1870 C1871 1.362 . S
C1871 H1861 0.930 . S
C1871 C1864 1.409 . S
C1871 C1870 1.362 . S
H1872 C1878 0.930 . S
H1873 C1881 0.930 . S
H1874 C1882 0.930 . S
H1875 C1883 0.930 . S
H1876 C1886 0.930 . S
H1877 C1887 0.930 . S
C1878 H1872 0.930 . S
C1878 C1879 1.355 . S
C1878 C1880 1.415 . S
C1879 C1878 1.355 . S
C1879 C1881 1.419 . S
C1880 C1878 1.415 . S
C1880 C1885 1.425 . S
C1880 C1887 1.409 . S
C1881 H1873 0.930 . S
C1881 C1879 1.419 . S
C1881 C1882 1.362 . S
C1882 H1874 0.930 . S
C1882 C1881 1.362 . S
C1882 C1885 1.409 . S
C1883 H1875 0.930 . S
C1883 C1884 1.355 . S
C1883 C1885 1.415 . S
C1884 C1883 1.355 . S
C1884 C1886 1.419 . S
C1885 C1880 1.425 . S
C1885 C1882 1.409 . S
C1885 C1883 1.415 . S
C1886 H1876 0.930 . S
C1886 C1884 1.419 . S
C1886 C1887 1.362 . S
C1887 H1877 0.930 . S
C1887 C1880 1.409 . S
C1887 C1886 1.362 . S
H1888 C1894 0.930 . S
H1889 C1897 0.930 . S
H1890 C1898 0.930 . S
H1891 C1899 0.930 . S
H1892 C1902 0.930 . S
H1893 C1903 0.930 . S
C1894 H1888 0.930 . S
C1894 C1895 1.355 . S
C1894 C1896 1.415 . S
C1895 C1894 1.355 . S
C1895 C1897 1.419 . S
C1896 C1894 1.415 . S
C1896 C1901 1.425 . S
C1896 C1903 1.409 . S
C1897 H1889 0.930 . S
C1897 C1895 1.419 . S
C1897 C1898 1.362 . S
C1898 H1890 0.930 . S
C1898 C1897 1.362 . S
C1898 C1901 1.409 . S
C1899 H1891 0.930 . S
C1899 C1900 1.355 . S
C1899 C1901 1.415 . S
C1900 C1899 1.355 . S
C1900 C1902 1.419 . S
C1901 C1896 1.425 . S
C1901 C1898 1.409 . S
C1901 C1899 1.415 . S
C1902 H1892 0.930 . S
C1902 C1900 1.419 . S
C1902 C1903 1.362 . S
C1903 H1893 0.930 . S
C1903 C1896 1.409 . S
C1903 C1902 1.362 . S
H1904 C1910 0.930 . S
H1905 C1913 0.930 . S
H1906 C1914 0.930 . S
H1907 C1915 0.930 . S
H1908 C1918 0.930 . S
H1909 C1919 0.930 . S
C1910 H1904 0.930 . S
C1910 C1911 1.355 . S
C1910 C1912 1.415 . S
C1911 C1910 1.355 . S
C1911 C1913 1.419 . S
C1912 C1910 1.415 . S
C1912 C1917 1.425 . S
C1912 C1919 1.409 . S
C1913 H1905 0.930 . S
C1913 C1911 1.419 . S
C1913 C1914 1.362 . S
C1914 H1906 0.930 . S
C1914 C1913 1.362 . S
C1914 C1917 1.409 . S
C1915 H1907 0.930 . S
C1915 C1916 1.355 . S
C1915 C1917 1.415 . S
C1916 C1915 1.355 . S
C1916 C1918 1.419 . S
C1917 C1912 1.425 . S
C1917 C1914 1.409 . S
C1917 C1915 1.415 . S
C1918 H1908 0.930 . S
C1918 C1916 1.419 . S
C1918 C1919 1.362 . S
C1919 H1909 0.930 . S
C1919 C1912 1.409 . S
C1919 C1918 1.362 . S
H1920 C1926 0.930 . S
H1921 C1929 0.930 . S
H1922 C1930 0.930 . S
H1923 C1931 0.930 . S
H1924 C1934 0.930 . S
H1925 C1935 0.930 . S
C1926 H1920 0.930 . S
C1926 C1927 1.355 . S
C1926 C1928 1.415 . S
C1927 C1926 1.355 . S
C1927 C1929 1.419 . S
C1928 C1926 1.415 . S
C1928 C1933 1.425 . S
C1928 C1935 1.409 . S
C1929 H1921 0.930 . S
C1929 C1927 1.419 . S
C1929 C1930 1.362 . S
C1930 H1922 0.930 . S
C1930 C1929 1.362 . S
C1930 C1933 1.409 . S
C1931 H1923 0.930 . S
C1931 C1932 1.355 . S
C1931 C1933 1.415 . S
C1932 C1931 1.355 . S
C1932 C1934 1.419 . S
C1933 C1928 1.425 . S
C1933 C1930 1.409 . S
C1933 C1931 1.415 . S
C1934 H1924 0.930 . S
C1934 C1932 1.419 . S
C1934 C1935 1.362 . S
C1935 H1925 0.930 . S
C1935 C1928 1.409 . S
C1935 C1934 1.362 . S
H1936 C1942 0.930 . S
H1937 C1945 0.930 . S
H1938 C1946 0.930 . S
H1939 C1947 0.930 . S
H1940 C1950 0.930 . S
H1941 C1951 0.930 . S
C1942 H1936 0.930 . S
C1942 C1943 1.355 . S
C1942 C1944 1.415 . S
C1943 C1942 1.355 . S
C1943 C1945 1.419 . S
C1944 C1942 1.415 . S
C1944 C1949 1.425 . S
C1944 C1951 1.409 . S
C1945 H1937 0.930 . S
C1945 C1943 1.419 . S
C1945 C1946 1.362 . S
C1946 H1938 0.930 . S
C1946 C1945 1.362 . S
C1946 C1949 1.409 . S
C1947 H1939 0.930 . S
C1947 C1948 1.355 . S
C1947 C1949 1.415 . S
C1948 C1947 1.355 . S
C1948 C1950 1.419 . S
C1949 C1944 1.425 . S
C1949 C1946 1.409 . S
C1949 C1947 1.415 . S
C1950 H1940 0.930 . S
C1950 C1948 1.419 . S
C1950 C1951 1.362 . S
C1951 H1941 0.930 . S
C1951 C1944 1.409 . S
C1951 C1950 1.362 . S
H1952 C1958 0.930 . S
H1953 C1961 0.930 . S
H1954 C1962 0.930 . S
H1955 C1963 0.930 . S
H1956 C1966 0.930 . S
H1957 C1967 0.930 . S
C1958 H1952 0.930 . S
C1958 C1959 1.355 . S
C1958 C1960 1.415 . S
C1959 C1958 1.355 . S
C1959 C1961 1.419 . S
C1960 C1958 1.415 . S
C1960 C1965 1.425 . S
C1960 C1967 1.409 . S
C1961 H1953 0.930 . S
C1961 C1959 1.419 . S
C1961 C1962 1.362 . S
C1962 H1954 0.930 . S
C1962 C1961 1.362 . S
C1962 C1965 1.409 . S
C1963 H1955 0.930 . S
C1963 C1964 1.355 . S
C1963 C1965 1.415 . S
C1964 C1963 1.355 . S
C1964 C1966 1.419 . S
C1965 C1960 1.425 . S
C1965 C1962 1.409 . S
C1965 C1963 1.415 . S
C1966 H1956 0.930 . S
C1966 C1964 1.419 . S
C1966 C1967 1.362 . S
C1967 H1957 0.930 . S
C1967 C1960 1.409 . S
C1967 C1966 1.362 . S
H1968 C1974 0.930 . S
H1969 C1977 0.930 . S
H1970 C1978 0.930 . S
H1971 C1979 0.930 . S
H1972 C1982 0.930 . S
H1973 C1983 0.930 . S
C1974 H1968 0.930 . S
C1974 C1975 1.355 . S
C1974 C1976 1.415 . S
C1975 C1974 1.355 . S
C1975 C1977 1.419 . S
C1976 C1974 1.415 . S
C1976 C1981 1.425 . S
C1976 C1983 1.409 . S
C1977 H1969 0.930 . S
C1977 C1975 1.419 . S
C1977 C1978 1.362 . S
C1978 H1970 0.930 . S
C1978 C1977 1.362 . S
C1978 C1981 1.409 . S
C1979 H1971 0.930 . S
C1979 C1980 1.355 . S
C1979 C1981 1.415 . S
C1980 C1979 1.355 . S
C1980 C1982 1.419 . S
C1981 C1976 1.425 . S
C1981 C1978 1.409 . S
C1981 C1979 1.415 . S
C1982 H1972 0.930 . S
C1982 C1980 1.419 . S
C1982 C1983 1.362 . S
C1983 H1973 0.930 . S
C1983 C1976 1.409 . S
C1983 C1982 1.362 . S
H1984 C1990 0.930 . S
H1985 C1993 0.930 . S
H1986 C1994 0.930 . S
H1987 C1995 0.930 . S
H1988 C1998 0.930 . S
H1989 C1999 0.930 . S
C1990 H1984 0.930 . S
C1990 C1991 1.355 . S
C1990 C1992 1.415 . S
C1991 C1990 1.355 . S
C1991 C1993 1.419 . S
C1992 C1990 1.415 . S
C1992 C1997 1.425 . S
C1992 C1999 1.409 . S
C1993 H1985 0.930 . S
C1993 C1991 1.419 . S
C1993 C1994 1.362 . S
C1994 H1986 0.930 . S
C1994 C1993 1.362 . S
C1994 C1997 1.409 . S
C1995 H1987 0.930 . S
C1995 C1996 1.355 . S
C1995 C1997 1.415 . S
C1996 C1995 1.355 . S
C1996 C1998 1.419 . S
C1997 C1992 1.425 . S
C1997 C1994 1.409 . S
C1997 C1995 1.415 . S
C1998 H1988 0.930 . S
C1998 C1996 1.419 . S
C1998 C1999 1.362 . S
C1999 H1989 0.930 . S
C1999 C1992 1.409 . S
C1999 C1998 1.362 . S
H2000 C2006 0.930 . S
H2001 C2009 0.930 . S
H2002 C2010 0.930 . S
H2003 C2011 0.930 . S
H2004 C2014 0.930 . S
H2005 C2015 0.930 . S
C2006 H2000 0.930 . S
C2006 C2007 1.355 . S
C2006 C2008 1.415 . S
C2007 C2006 1.355 . S
C2007 C2009 1.419 . S
C2008 C2006 1.415 . S
C2008 C2013 1.425 . S
C2008 C2015 1.409 . S
C2009 H2001 0.930 . S
C2009 C2007 1.419 . S
C2009 C2010 1.362 . S
C2010 H2002 0.930 . S
C2010 C2009 1.362 . S
C2010 C2013 1.409 . S
C2011 H2003 0.930 . S
C2011 C2012 1.355 . S
C2011 C2013 1.415 . S
C2012 C2011 1.355 . S
C2012 C2014 1.419 . S
C2013 C2008 1.425 . S
C2013 C2010 1.409 . S
C2013 C2011 1.415 . S
C2014 H2004 0.930 . S
C2014 C2012 1.419 . S
C2014 C2015 1.362 . S
C2015 H2005 0.930 . S
C2015 C2008 1.409 . S
C2015 C2014 1.362 . S
H2016 C2022 0.930 . S
H2017 C2025 0.930 . S
H2018 C2026 0.930 . S
H2019 C2027 0.930 . S
H2020 C2030 0.930 . S
H2021 C2031 0.930 . S
C2022 H2016 0.930 . S
C2022 C2023 1.355 . S
C2022 C2024 1.415 . S
C2023 C2022 1.355 . S
C2023 C2025 1.419 . S
C2024 C2022 1.415 . S
C2024 C2029 1.425 . S
C2024 C2031 1.409 . S
C2025 H2017 0.930 . S
C2025 C2023 1.419 . S
C2025 C2026 1.362 . S
C2026 H2018 0.930 . S
C2026 C2025 1.362 . S
C2026 C2029 1.409 . S
C2027 H2019 0.930 . S
C2027 C2028 1.355 . S
C2027 C2029 1.415 . S
C2028 C2027 1.355 . S
C2028 C2030 1.419 . S
C2029 C2024 1.425 . S
C2029 C2026 1.409 . S
C2029 C2027 1.415 . S
C2030 H2020 0.930 . S
C2030 C2028 1.419 . S
C2030 C2031 1.362 . S
C2031 H2021 0.930 . S
C2031 C2024 1.409 . S
C2031 C2030 1.362 . S
H2032 C2038 0.930 . S
H2033 C2041 0.930 . S
H2034 C2042 0.930 . S
H2035 C2043 0.930 . S
H2036 C2046 0.930 . S
H2037 C2047 0.930 . S
C2038 H2032 0.930 . S
C2038 C2039 1.355 . S
C2038 C2040 1.415 . S
C2039 C2038 1.355 . S
C2039 C2041 1.419 . S
C2040 C2038 1.415 . S
C2040 C2045 1.425 . S
C2040 C2047 1.409 . S
C2041 H2033 0.930 . S
C2041 C2039 1.419 . S
C2041 C2042 1.362 . S
C2042 H2034 0.930 . S
C2042 C2041 1.362 . S
C2042 C2045 1.409 . S
C2043 H2035 0.930 . S
C2043 C2044 1.355 . S
C2043 C2045 1.415 . S
C2044 C2043 1.355 . S
C2044 C2046 1.419 . S
C2045 C2040 1.425 . S
C2045 C2042 1.409 . S
C2045 C2043 1.415 . S
C2046 H2036 0.930 . S
C2046 C2044 1.419 . S
C2046 C2047 1.362 . S
C2047 H2037 0.930 . S
C2047 C2040 1.409 . S
C2047 C2046 1.362 . S
H2048 C2054 0.930 . S
H2049 C2057 0.930 . S
H2050 C2058 0.930 . S
H2051 C2059 0.930 . S
H2052 C2062 0.930 . S
H2053 C2063 0.930 . S
C2054 H2048 0.930 . S
C2054 C2055 1.355 . S
C2054 C2056 1.415 . S
C2055 C2054 1.355 . S
C2055 C2057 1.419 . S
C2056 C2054 1.415 . S
C2056 C2061 1.425 . S
C2056 C2063 1.409 . S
C2057 H2049 0.930 . S
C2057 C2055 1.419 . S
C2057 C2058 1.362 . S
C2058 H2050 0.930 . S
C2058 C2057 1.362 . S
C2058 C2061 1.409 . S
C2059 H2051 0.930 . S
C2059 C2060 1.355 . S
C2059 C2061 1.415 . S
C2060 C2059 1.355 . S
C2060 C2062 1.419 . S
C2061 C2056 1.425 . S
C2061 C2058 1.409 . S
C2061 C2059 1.415 . S
C2062 H2052 0.930 . S
C2062 C2060 1.419 . S
C2062 C2063 1.362 . S
C2063 H2053 0.930 . S
C2063 C2056 1.409 . S
C2063 C2062 1.362 . S
H2064 C2070 0.930 . S
H2065 C2073 0.930 . S
H2066 C2074 0.930 . S
H2067 C2075 0.930 . S
H2068 C2078 0.930 . S
H2069 C2079 0.930 . S
C2070 H2064 0.930 . S
C2070 C2071 1.355 . S
C2070 C2072 1.415 . S
C2071 C2070 1.355 . S
C2071 C2073 1.419 . S
C2072 C2070 1.415 . S
C2072 C2077 1.425 . S
C2072 C2079 1.409 . S
C2073 H2065 0.930 . S
C2073 C2071 1.419 . S
C2073 C2074 1.362 . S
C2074 H2066 0.930 . S
C2074 C2073 1.362 . S
C2074 C2077 1.409 . S
C2075 H2067 0.930 . S
C2075 C2076 1.355 . S
C2075 C2077 1.415 . S
C2076 C2075 1.355 . S
C2076 C2078 1.419 . S
C2077 C2072 1.425 . S
C2077 C2074 1.409 . S
C2077 C2075 1.415 . S
C2078 H2068 0.930 . S
C2078 C2076 1.419 . S
C2078 C2079 1.362 . S
C2079 H2069 0.930 . S
C2079 C2072 1.409 . S
C2079 C2078 1.362 . S
H2080 C2086 0.930 . S
H2081 C2089 0.930 . S
H2082 C2090 0.930 . S
H2083 C2091 0.930 . S
H2084 C2094 0.930 . S
H2085 C2095 0.930 . S
C2086 H2080 0.930 . S
C2086 C2087 1.355 . S
C2086 C2088 1.415 . S
C2087 C2086 1.355 . S
C2087 C2089 1.419 . S
C2088 C2086 1.415 . S
C2088 C2093 1.425 . S
C2088 C2095 1.409 . S
C2089 H2081 0.930 . S
C2089 C2087 1.419 . S
C2089 C2090 1.362 . S
C2090 H2082 0.930 . S
C2090 C2089 1.362 . S
C2090 C2093 1.409 . S
C2091 H2083 0.930 . S
C2091 C2092 1.355 . S
C2091 C2093 1.415 . S
C2092 C2091 1.355 . S
C2092 C2094 1.419 . S
C2093 C2088 1.425 . S
C2093 C2090 1.409 . S
C2093 C2091 1.415 . S
C2094 H2084 0.930 . S
C2094 C2092 1.419 . S
C2094 C2095 1.362 . S
C2095 H2085 0.930 . S
C2095 C2088 1.409 . S
C2095 C2094 1.362 . S
H2096 C2102 0.930 . S
H2097 C2105 0.930 . S
H2098 C2106 0.930 . S
H2099 C2107 0.930 . S
H2100 C2110 0.930 . S
H2101 C2111 0.930 . S
C2102 H2096 0.930 . S
C2102 C2103 1.355 . S
C2102 C2104 1.415 . S
C2103 C2102 1.355 . S
C2103 C2105 1.419 . S
C2104 C2102 1.415 . S
C2104 C2109 1.425 . S
C2104 C2111 1.409 . S
C2105 H2097 0.930 . S
C2105 C2103 1.419 . S
C2105 C2106 1.362 . S
C2106 H2098 0.930 . S
C2106 C2105 1.362 . S
C2106 C2109 1.409 . S
C2107 H2099 0.930 . S
C2107 C2108 1.355 . S
C2107 C2109 1.415 . S
C2108 C2107 1.355 . S
C2108 C2110 1.419 . S
C2109 C2104 1.425 . S
C2109 C2106 1.409 . S
C2109 C2107 1.415 . S
C2110 H2100 0.930 . S
C2110 C2108 1.419 . S
C2110 C2111 1.362 . S
C2111 H2101 0.930 . S
C2111 C2104 1.409 . S
C2111 C2110 1.362 . S
H2112 C2118 0.930 . S
H2113 C2121 0.930 . S
H2114 C2122 0.930 . S
H2115 C2123 0.930 . S
H2116 C2126 0.930 . S
H2117 C2127 0.930 . S
C2118 H2112 0.930 . S
C2118 C2119 1.355 . S
C2118 C2120 1.415 . S
C2119 C2118 1.355 . S
C2119 C2121 1.419 . S
C2120 C2118 1.415 . S
C2120 C2125 1.425 . S
C2120 C2127 1.409 . S
C2121 H2113 0.930 . S
C2121 C2119 1.419 . S
C2121 C2122 1.362 . S
C2122 H2114 0.930 . S
C2122 C2121 1.362 . S
C2122 C2125 1.409 . S
C2123 H2115 0.930 . S
C2123 C2124 1.355 . S
C2123 C2125 1.415 . S
C2124 C2123 1.355 . S
C2124 C2126 1.419 . S
C2125 C2120 1.425 . S
C2125 C2122 1.409 . S
C2125 C2123 1.415 . S
C2126 H2116 0.930 . S
C2126 C2124 1.419 . S
C2126 C2127 1.362 . S
C2127 H2117 0.930 . S
C2127 C2120 1.409 . S
C2127 C2126 1.362 . S
H2128 C2134 0.930 . S
H2129 C2137 0.930 . S
H2130 C2138 0.930 . S
H2131 C2139 0.930 . S
H2132 C2142 0.930 . S
H2133 C2143 0.930 . S
C2134 H2128 0.930 . S
C2134 C2135 1.355 . S
C2134 C2136 1.415 . S
C2135 C2134 1.355 . S
C2135 C2137 1.419 . S
C2136 C2134 1.415 . S
C2136 C2141 1.425 . S
C2136 C2143 1.409 . S
C2137 H2129 0.930 . S
C2137 C2135 1.419 . S
C2137 C2138 1.362 . S
C2138 H2130 0.930 . S
C2138 C2137 1.362 . S
C2138 C2141 1.409 . S
C2139 H2131 0.930 . S
C2139 C2140 1.355 . S
C2139 C2141 1.415 . S
C2140 C2139 1.355 . S
C2140 C2142 1.419 . S
C2141 C2136 1.425 . S
C2141 C2138 1.409 . S
C2141 C2139 1.415 . S
C2142 H2132 0.930 . S
C2142 C2140 1.419 . S
C2142 C2143 1.362 . S
C2143 H2133 0.930 . S
C2143 C2136 1.409 . S
C2143 C2142 1.362 . S
H2144 C2150 0.930 . S
H2145 C2153 0.930 . S
H2146 C2154 0.930 . S
H2147 C2155 0.930 . S
H2148 C2158 0.930 . S
H2149 C2159 0.930 . S
C2150 H2144 0.930 . S
C2150 C2151 1.355 . S
C2150 C2152 1.415 . S
C2151 C2150 1.355 . S
C2151 C2153 1.419 . S
C2152 C2150 1.415 . S
C2152 C2157 1.425 . S
C2152 C2159 1.409 . S
C2153 H2145 0.930 . S
C2153 C2151 1.419 . S
C2153 C2154 1.362 . S
C2154 H2146 0.930 . S
C2154 C2153 1.362 . S
C2154 C2157 1.409 . S
C2155 H2147 0.930 . S
C2155 C2156 1.355 . S
C2155 C2157 1.415 . S
C2156 C2155 1.355 . S
C2156 C2158 1.419 . S
C2157 C2152 1.425 . S
C2157 C2154 1.409 . S
C2157 C2155 1.415 . S
C2158 H2148 0.930 . S
C2158 C2156 1.419 . S
C2158 C2159 1.362 . S
C2159 H2149 0.930 . S
C2159 C2152 1.409 . S
C2159 C2158 1.362 . S
C631 C40 1.482 . S
C636 C3 1.487 . S
C647 C5 1.467 . S
C652 C23 1.462 . S
C663 C27 1.486 . S
C668 C16 1.510 . S
C679 C36 1.482 . S
C684 C44 1.510 . S
C695 C53 1.496 . S
C700 C68 1.476 . S
C711 C88 1.516 . S
C716 C70 1.501 . S
C727 C81 1.471 . S
C732 C92 1.508 . S
C743 C57 1.473 . S
C748 C101 1.494 . S
C759 C109 1.455 . S
C764 C244 1.426 . S
C775 C257 1.512 . S
C780 C122 1.484 . S
C791 C270 1.515 . S
C796 C135 1.494 . S
C807 C224 1.444 . S
C812 C148 1.444 . S
C823 C287 1.549 . S
C828 C166 1.548 . S
C839 C179 1.466 . S
C844 C213 1.467 . S
C855 C304 1.482 . S
C860 C192 1.505 . S
C871 C205 1.533 . S
C876 C278 1.511 . S
C887 C211 1.463 . S
C892 C118 1.484 . S
C903 C231 1.546 . S
C908 C196 1.545 . S
C919 C157 1.514 . S
C924 C237 1.516 . S
C935 C172 1.494 . S
C940 C248 1.514 . S
C951 C185 1.504 . S
C956 C261 1.503 . S
C967 C146 1.463 . S
C972 C274 1.459 . S
C983 C107 1.431 . S
C988 C291 1.427 . S
C999 C302 1.466 . S
C1004 C131 1.494 . S
C1015 C352 1.479 . S
C1020 C315 1.457 . S
C1031 C317 1.436 . S
C1036 C335 1.463 . S
C1047 C339 1.495 . S
C1052 C328 1.497 . S
C1063 C348 1.522 . S
C1068 C356 1.493 . S
C1079 C380 1.489 . S
C1084 C365 1.470 . S
C1095 C382 1.464 . S
C1100 C400 1.502 . S
C1111 C404 1.507 . S
C1116 C393 1.523 . S
C1127 C369 1.476 . S
C1132 C413 1.498 . S
C1143 C556 1.459 . S
C1148 C421 1.433 . S
C1159 C434 1.429 . S
C1164 C569 1.458 . S
C1175 C575 1.457 . S
C1180 C443 1.481 . S
C1191 C460 1.455 . S
C1196 C536 1.455 . S
C1207 C478 1.521 . S
C1212 C603 1.487 . S
C1223 C521 1.492 . S
C1228 C491 1.491 . S
C1239 C612 1.531 . S
C1244 C504 1.531 . S
C1255 C586 1.555 . S
C1260 C517 1.554 . S
C1271 C430 1.498 . S
C1276 C530 1.498 . S
C1287 C508 1.540 . S
C1292 C543 1.540 . S
C1303 C549 1.493 . S
C1308 C469 1.492 . S
C1319 C560 1.478 . S
C1324 C484 1.453 . S
C1335 C497 1.456 . S
C1340 C577 1.454 . S
C1351 C590 1.425 . S
C1356 C458 1.422 . S
C1367 C599 1.464 . S
C1372 C419 1.484 . S
C1383 C621 1.526 . S
C1388 C447 1.485 . S
C1399 C1 1.513 . S
C1404 C582 1.494 . S
C1415 C18 1.448 . S
C1420 C538 1.439 . S
C1431 C29 1.456 . S
C1436 C547 1.476 . S
C1447 C49 1.489 . S
C1452 C562 1.491 . S
C1463 C55 1.478 . S
C1468 C616 1.468 . S
C1479 C75 1.514 . S
C1484 C595 1.524 . S
C1495 C79 1.470 . S
C1500 C601 1.486 . S
C1511 C525 1.458 . S
C1516 C96 1.444 . S
C1527 C114 1.501 . S
C1532 C512 1.503 . S
C1543 C473 1.468 . S
C1548 C127 1.459 . S
C1559 C140 1.504 . S
C1564 C486 1.488 . S
C1575 C153 1.495 . S
C1580 C499 1.484 . S
C1591 C161 1.504 . S
C1596 C439 1.500 . S
C1607 C174 1.506 . S
C1612 C445 1.494 . S
C1623 C465 1.504 . S
C1628 C187 1.521 . S
C1639 C200 1.469 . S
C1644 C426 1.469 . S
C1655 C209 1.480 . S
C1660 C408 1.486 . S
C1671 C226 1.463 . S
C1676 C330 1.476 . S
C1687 C235 1.454 . S
C1692 C341 1.456 . S
C1703 C250 1.472 . S
C1708 C361 1.501 . S
C1719 C313 1.492 . S
C1724 C263 1.503 . S
C1735 C276 1.475 . S
C1740 C387 1.495 . S
C1751 C391 1.496 . S
C1756 C296 1.512 . S
C1767 C367 1.474 . S
C1772 C300 1.492 . S
C1783 C417 1.482 . S
C1788 C94 1.494 . S
C1799 C62 1.485 . S
C1804 C432 1.501 . S
C1815 C452 1.479 . S
C1820 C66 1.502 . S
C1831 C456 1.486 . S
C1836 C83 1.470 . S
C1847 C471 1.477 . S
C1852 C14 1.502 . S
C1863 C31 1.514 . S
C1868 C482 1.517 . S
C1879 C495 1.505 . S
C1884 C42 1.492 . S
C1895 C510 1.483 . S
C1900 C10 1.476 . S
C1911 C523 1.470 . S
C1916 C265 1.448 . S
C1927 C222 1.489 . S
C1932 C614 1.475 . S
C1943 C239 1.480 . S
C1948 C588 1.462 . S
C1959 C608 1.499 . S
C1964 C252 1.476 . S
C1975 C534 1.511 . S
C1980 C309 1.511 . S
C1991 C551 1.500 . S
C1996 C283 1.479 . S
C2007 C289 1.441 . S
C2012 C564 1.464 . S
C2023 C573 1.535 . S
C2028 C218 1.532 . S
C2039 C322 1.484 . S
C2044 C198 1.480 . S
C2055 C374 1.517 . S
C2060 C120 1.525 . S
C2071 C378 1.499 . S
C2076 C133 1.484 . S
C2087 C144 1.511 . S
C2092 C395 1.495 . S
C2103 C105 1.476 . S
C2108 C406 1.480 . S
C2119 C343 1.481 . S
C2124 C170 1.478 . S
C2135 C183 1.475 . S
C2140 C354 1.461 . S
C2151 C326 1.482 . S
C2156 C159 1.494 . S
