# Generated by pormake.
# Topology utm, (3)-cn, num edge types: 1
# Building blocks:
#     Node 0, Type 0, BuildingBlock: OLANEW_clean_sbu_2, # of connection points: 3
#     Node 1, Type 0, BuildingBlock: OLANEW_clean_sbu_2, # of connection points: 3
#     Node 2, Type 0, BuildingBlock: OLANEW_clean_sbu_2, # of connection points: 3
#     Node 3, Type 0, BuildingBlock: OLANEW_clean_sbu_2, # of connection points: 3
#     Node 4, Type 0, BuildingBlock: OLANEW_clean_sbu_2, # of connection points: 3
#     Node 5, Type 0, BuildingBlock: OLANEW_clean_sbu_2, # of connection points: 3
#     Node 6, Type 0, BuildingBlock: OLANEW_clean_sbu_2, # of connection points: 3
#     Node 7, Type 0, BuildingBlock: OLANEW_clean_sbu_2, # of connection points: 3
#     Node 8, Type 0, BuildingBlock: OLANEW_clean_sbu_2, # of connection points: 3
#     Node 9, Type 0, BuildingBlock: OLANEW_clean_sbu_2, # of connection points: 3
#     Node 10, Type 0, BuildingBlock: OLANEW_clean_sbu_2, # of connection points: 3
#     Node 11, Type 0, BuildingBlock: OLANEW_clean_sbu_2, # of connection points: 3
#     Node 12, Type 0, BuildingBlock: OLANEW_clean_sbu_2, # of connection points: 3
#     Node 13, Type 0, BuildingBlock: OLANEW_clean_sbu_2, # of connection points: 3
#     Node 14, Type 0, BuildingBlock: OLANEW_clean_sbu_2, # of connection points: 3
#     Node 15, Type 0, BuildingBlock: OLANEW_clean_sbu_2, # of connection points: 3
#     Node 16, Type 0, BuildingBlock: OLANEW_clean_sbu_2, # of connection points: 3
#     Node 17, Type 0, BuildingBlock: OLANEW_clean_sbu_2, # of connection points: 3
#     Node 18, Type 0, BuildingBlock: OLANEW_clean_sbu_2, # of connection points: 3
#     Node 19, Type 0, BuildingBlock: OLANEW_clean_sbu_2, # of connection points: 3
#     Node 20, Type 0, BuildingBlock: OLANEW_clean_sbu_2, # of connection points: 3
#     Node 21, Type 0, BuildingBlock: OLANEW_clean_sbu_2, # of connection points: 3
#     Node 22, Type 0, BuildingBlock: OLANEW_clean_sbu_2, # of connection points: 3
#     Node 23, Type 0, BuildingBlock: OLANEW_clean_sbu_2, # of connection points: 3
#     Node 24, Type 0, BuildingBlock: OLANEW_clean_sbu_2, # of connection points: 3
#     Node 25, Type 0, BuildingBlock: OLANEW_clean_sbu_2, # of connection points: 3
#     Node 26, Type 0, BuildingBlock: OLANEW_clean_sbu_2, # of connection points: 3
#     Node 27, Type 0, BuildingBlock: OLANEW_clean_sbu_2, # of connection points: 3
#     Node 28, Type 0, BuildingBlock: OLANEW_clean_sbu_2, # of connection points: 3
#     Node 29, Type 0, BuildingBlock: OLANEW_clean_sbu_2, # of connection points: 3
#     Node 30, Type 0, BuildingBlock: OLANEW_clean_sbu_2, # of connection points: 3
#     Node 31, Type 0, BuildingBlock: OLANEW_clean_sbu_2, # of connection points: 3
#     Edge 32, Type (0, 0), BuildingBlock: CIFDUS_clean_linker_0, # of connection points: 2
#     Edge 33, Type (0, 0), BuildingBlock: CIFDUS_clean_linker_0, # of connection points: 2
#     Edge 34, Type (0, 0), BuildingBlock: CIFDUS_clean_linker_0, # of connection points: 2
#     Edge 35, Type (0, 0), BuildingBlock: CIFDUS_clean_linker_0, # of connection points: 2
#     Edge 36, Type (0, 0), BuildingBlock: CIFDUS_clean_linker_0, # of connection points: 2
#     Edge 37, Type (0, 0), BuildingBlock: CIFDUS_clean_linker_0, # of connection points: 2
#     Edge 38, Type (0, 0), BuildingBlock: CIFDUS_clean_linker_0, # of connection points: 2
#     Edge 39, Type (0, 0), BuildingBlock: CIFDUS_clean_linker_0, # of connection points: 2
#     Edge 40, Type (0, 0), BuildingBlock: CIFDUS_clean_linker_0, # of connection points: 2
#     Edge 41, Type (0, 0), BuildingBlock: CIFDUS_clean_linker_0, # of connection points: 2
#     Edge 42, Type (0, 0), BuildingBlock: CIFDUS_clean_linker_0, # of connection points: 2
#     Edge 43, Type (0, 0), BuildingBlock: CIFDUS_clean_linker_0, # of connection points: 2
#     Edge 44, Type (0, 0), BuildingBlock: CIFDUS_clean_linker_0, # of connection points: 2
#     Edge 45, Type (0, 0), BuildingBlock: CIFDUS_clean_linker_0, # of connection points: 2
#     Edge 46, Type (0, 0), BuildingBlock: CIFDUS_clean_linker_0, # of connection points: 2
#     Edge 47, Type (0, 0), BuildingBlock: CIFDUS_clean_linker_0, # of connection points: 2
#     Edge 48, Type (0, 0), BuildingBlock: CIFDUS_clean_linker_0, # of connection points: 2
#     Edge 49, Type (0, 0), BuildingBlock: CIFDUS_clean_linker_0, # of connection points: 2
#     Edge 50, Type (0, 0), BuildingBlock: CIFDUS_clean_linker_0, # of connection points: 2
#     Edge 51, Type (0, 0), BuildingBlock: CIFDUS_clean_linker_0, # of connection points: 2
#     Edge 52, Type (0, 0), BuildingBlock: CIFDUS_clean_linker_0, # of connection points: 2
#     Edge 53, Type (0, 0), BuildingBlock: CIFDUS_clean_linker_0, # of connection points: 2
#     Edge 54, Type (0, 0), BuildingBlock: CIFDUS_clean_linker_0, # of connection points: 2
#     Edge 55, Type (0, 0), BuildingBlock: CIFDUS_clean_linker_0, # of connection points: 2
#     Edge 56, Type (0, 0), BuildingBlock: CIFDUS_clean_linker_0, # of connection points: 2
#     Edge 57, Type (0, 0), BuildingBlock: CIFDUS_clean_linker_0, # of connection points: 2
#     Edge 58, Type (0, 0), BuildingBlock: CIFDUS_clean_linker_0, # of connection points: 2
#     Edge 59, Type (0, 0), BuildingBlock: CIFDUS_clean_linker_0, # of connection points: 2
#     Edge 60, Type (0, 0), BuildingBlock: CIFDUS_clean_linker_0, # of connection points: 2
#     Edge 61, Type (0, 0), BuildingBlock: CIFDUS_clean_linker_0, # of connection points: 2
#     Edge 62, Type (0, 0), BuildingBlock: CIFDUS_clean_linker_0, # of connection points: 2
#     Edge 63, Type (0, 0), BuildingBlock: CIFDUS_clean_linker_0, # of connection points: 2
#     Edge 64, Type (0, 0), BuildingBlock: CIFDUS_clean_linker_0, # of connection points: 2
#     Edge 65, Type (0, 0), BuildingBlock: CIFDUS_clean_linker_0, # of connection points: 2
#     Edge 66, Type (0, 0), BuildingBlock: CIFDUS_clean_linker_0, # of connection points: 2
#     Edge 67, Type (0, 0), BuildingBlock: CIFDUS_clean_linker_0, # of connection points: 2
#     Edge 68, Type (0, 0), BuildingBlock: CIFDUS_clean_linker_0, # of connection points: 2
#     Edge 69, Type (0, 0), BuildingBlock: CIFDUS_clean_linker_0, # of connection points: 2
#     Edge 70, Type (0, 0), BuildingBlock: CIFDUS_clean_linker_0, # of connection points: 2
#     Edge 71, Type (0, 0), BuildingBlock: CIFDUS_clean_linker_0, # of connection points: 2
#     Edge 72, Type (0, 0), BuildingBlock: CIFDUS_clean_linker_0, # of connection points: 2
#     Edge 73, Type (0, 0), BuildingBlock: CIFDUS_clean_linker_0, # of connection points: 2
#     Edge 74, Type (0, 0), BuildingBlock: CIFDUS_clean_linker_0, # of connection points: 2
#     Edge 75, Type (0, 0), BuildingBlock: CIFDUS_clean_linker_0, # of connection points: 2
#     Edge 76, Type (0, 0), BuildingBlock: CIFDUS_clean_linker_0, # of connection points: 2
#     Edge 77, Type (0, 0), BuildingBlock: CIFDUS_clean_linker_0, # of connection points: 2
#     Edge 78, Type (0, 0), BuildingBlock: CIFDUS_clean_linker_0, # of connection points: 2
#     Edge 79, Type (0, 0), BuildingBlock: CIFDUS_clean_linker_0, # of connection points: 2
# Relax obj value: 0.000
# Max RMSD: 0.042
# Mean RMSD: 0.042
data_MOF--net-utm--node1-OLANEW_clean_sbu_2--edge1-CIFDUS_clean_linker_0
_symmetry_space_group_name_H-M    P1
_symmetry_Int_Tables_number       1
_symmetry_cell_setting            triclinic
loop_
_symmetry_equiv_pos_as_xyz
'x, y, z'
_cell_length_a     72.429943
_cell_length_b     72.423008
_cell_length_c     42.209434
_cell_angle_alpha  90.020866
_cell_angle_beta   90.003607
_cell_angle_gamma 90.019948
loop_
_atom_site_label
_atom_site_type_symbol
_atom_site_fract_x
_atom_site_fract_y
_atom_site_fract_z
_atom_type_partial_charge
O0 O 0.26241 0.29916 0.11683 0.0
Cd1 Cd 0.27134 0.29776 0.17271 0.0
O2 O 0.25009 0.32604 0.12738 0.0
Cd3 Cd 0.23788 0.35313 0.11739 0.0
O4 O 0.22249 0.37895 0.11289 0.0
C5 C 0.21105 0.38153 0.09047 0.0
O6 O 0.2088 0.36854 0.06909 0.0
C7 C 0.25408 0.31356 0.10726 0.0
C8 C 0.25637 0.26858 0.20732 0.0
O9 O 0.24807 0.28419 0.20565 0.0
O10 O 0.27154 0.26667 0.19203 0.0
O11 O 0.95177 0.01942 0.38035 0.0
Cd12 Cd 0.95748 0.02972 0.43467 0.0
O13 O 0.93261 0.99872 0.39905 0.0
Cd14 Cd 0.91252 0.97615 0.39616 0.0
O15 O 0.891 0.95502 0.39703 0.0
C16 C 0.88341 0.94895 0.37194 0.0
O17 O 0.88871 0.95545 0.34434 0.0
C18 C 0.94002 0.00671 0.3754 0.0
C19 C 0.98616 0.01199 0.46647 0.0
O20 O 0.96966 0.00557 0.46727 0.0
O21 O 0.98915 0.02654 0.44997 0.0
O22 O 0.25896 0.68263 0.58751 0.0
Cd23 Cd 0.26981 0.67204 0.63938 0.0
O24 O 0.28537 0.67697 0.56368 0.0
Cd25 Cd 0.29828 0.66292 0.60351 0.0
O26 O 0.31301 0.63774 0.61634 0.0
C27 C 0.31178 0.62469 0.59627 0.0
O28 O 0.30168 0.62723 0.57077 0.0
C29 C 0.2689 0.68299 0.56268 0.0
C30 C 0.27699 0.701 0.68131 0.0
O31 O 0.28991 0.69397 0.66441 0.0
O32 O 0.26067 0.6944 0.67826 0.0
O33 O 0.55522 0.98692 0.89789 0.0
Cd34 Cd 0.55123 0.97905 0.95381 0.0
O35 O 0.57565 0.00766 0.91203 0.0
Cd36 Cd 0.59635 0.02932 0.90454 0.0
O37 O 0.61863 0.04927 0.89761 0.0
C38 C 0.61651 0.06309 0.87941 0.0
O39 O 0.60065 0.06526 0.86475 0.0
C40 C 0.56714 0.999 0.89021 0.0
C41 C 0.52124 0.9955 0.98401 0.0
O42 O 0.53708 0.00341 0.98345 0.0
O43 O 0.5195 0.98 0.96963 0.0
O44 O 0.21912 0.68641 0.3809 0.0
Cd45 Cd 0.20251 0.68076 0.3313 0.0
O46 O 0.24519 0.67566 0.36152 0.0
Cd47 Cd 0.2312 0.66316 0.32112 0.0
O48 O 0.2131 0.64147 0.30318 0.0
C49 C 0.21786 0.62493 0.30908 0.0
O50 O 0.23369 0.62199 0.32341 0.0
C51 C 0.23635 0.68345 0.3839 0.0
C52 C 0.2085 0.70947 0.28845 0.0
O53 O 0.19408 0.70921 0.30603 0.0
O54 O 0.21998 0.6961 0.29093 0.0
O55 O 0.56827 0.99055 0.6817 0.0
Cd56 Cd 0.57809 0.98558 0.62673 0.0
O57 O 0.59691 0.99547 0.69689 0.0
Cd58 Cd 0.60971 0.98538 0.65354 0.0
O59 O 0.62839 0.96428 0.63526 0.0
C60 C 0.63519 0.95383 0.65646 0.0
O61 O 0.63053 0.95666 0.68616 0.0
C62 C 0.57975 0.99503 0.70321 0.0
C63 C 0.54932 0.97736 0.58491 0.0
O64 O 0.55366 0.99413 0.59119 0.0
O65 O 0.55843 0.96449 0.59871 0.0
O66 O 0.27046 0.3236 0.90096 0.0
Cd67 Cd 0.27214 0.33442 0.84617 0.0
O68 O 0.25274 0.34669 0.91579 0.0
Cd69 Cd 0.25979 0.36305 0.87401 0.0
O70 O 0.27827 0.38472 0.85678 0.0
C71 C 0.29139 0.38144 0.83758 0.0
O72 O 0.29307 0.36478 0.82561 0.0
C73 C 0.26055 0.33138 0.92195 0.0
C74 C 0.27863 0.3054 0.80411 0.0
O75 O 0.292 0.3151 0.81507 0.0
O76 O 0.2622 0.30948 0.81296 0.0
O77 O 0.93119 0.00678 0.16727 0.0
Cd78 Cd 0.92003 0.00957 0.11267 0.0
O79 O 0.90358 0.99993 0.18556 0.0
Cd80 Cd 0.88844 0.00727 0.14283 0.0
O81 O 0.86617 0.02549 0.12759 0.0
C82 C 0.86256 0.0385 0.14688 0.0
O83 O 0.87252 0.03996 0.17279 0.0
C84 C 0.9208 0.00204 0.19016 0.0
C85 C 0.94798 0.01926 0.07014 0.0
O86 O 0.93786 0.03161 0.08323 0.0
O87 O 0.94493 0.00233 0.07724 0.0
O88 O 0.72813 0.68302 0.8973 0.0
Cd89 Cd 0.7253 0.67768 0.84014 0.0
O90 O 0.75503 0.66962 0.89222 0.0
Cd91 Cd 0.78043 0.65651 0.90915 0.0
O92 O 0.80575 0.64084 0.91735 0.0
C93 C 0.80516 0.62516 0.93082 0.0
O94 O 0.78917 0.61882 0.94074 0.0
C95 C 0.74297 0.67719 0.90986 0.0
C96 C 0.71671 0.70839 0.80295 0.0
O97 O 0.70398 0.69777 0.81362 0.0
O98 O 0.73345 0.70476 0.81056 0.0
O99 O 0.07809 0.95547 0.6784 0.0
Cd100 Cd 0.08081 0.9439 0.62414 0.0
O101 O 0.09125 0.98138 0.6642 0.0
Cd102 Cd 0.10475 0.00827 0.66983 0.0
O103 O 0.12176 0.03299 0.66373 0.0
C104 C 0.12026 0.04224 0.63826 0.0
O105 O 0.10815 0.03694 0.61692 0.0
C106 C 0.08403 0.97143 0.68573 0.0
C107 C 0.0537 0.95803 0.58398 0.0
O108 O 0.05089 0.94328 0.60005 0.0
O109 O 0.06933 0.96614 0.58701 0.0
O110 O 0.77386 0.30975 0.37955 0.0
Cd111 Cd 0.78939 0.31021 0.32801 0.0
O112 O 0.75333 0.32806 0.35808 0.0
Cd113 Cd 0.72961 0.34676 0.35886 0.0
O114 O 0.7069 0.36656 0.35917 0.0
C115 C 0.70465 0.37717 0.38284 0.0
O116 O 0.71603 0.37583 0.40699 0.0
C117 C 0.75919 0.31925 0.38214 0.0
C118 C 0.78526 0.27815 0.29185 0.0
O119 O 0.79922 0.28033 0.31016 0.0
O120 O 0.77308 0.29098 0.2911 0.0
O121 O 0.42351 0.05 0.18905 0.0
Cd122 Cd 0.42146 0.06162 0.13476 0.0
O123 O 0.41128 0.02392 0.1734 0.0
Cd124 Cd 0.39835 0.99666 0.17739 0.0
O125 O 0.38185 0.97174 0.16968 0.0
C126 C 0.37457 0.96952 0.14252 0.0
O127 O 0.37747 0.98206 0.12059 0.0
C128 C 0.41783 0.03384 0.19561 0.0
C129 C 0.44966 0.04816 0.09613 0.0
O130 O 0.45172 0.06309 0.11206 0.0
O131 O 0.43425 0.03956 0.09855 0.0
O132 O 0.70556 0.31698 0.5615 0.0
Cd133 Cd 0.68911 0.31732 0.61203 0.0
O134 O 0.72849 0.33146 0.58437 0.0
Cd135 Cd 0.75462 0.34658 0.5875 0.0
O136 O 0.7787 0.36418 0.59546 0.0
C137 C 0.79046 0.36678 0.57358 0.0
O138 O 0.78805 0.35854 0.54614 0.0
C139 C 0.72157 0.3241 0.55969 0.0
C140 C 0.70433 0.29179 0.65396 0.0
O141 O 0.69119 0.28722 0.63517 0.0
O142 O 0.71016 0.30849 0.65308 0.0
O143 O 0.43566 0.97047 0.37154 0.0
Cd144 Cd 0.43416 0.96021 0.42681 0.0
O145 O 0.41636 0.99214 0.38587 0.0
Cd146 Cd 0.39679 0.01482 0.37912 0.0
O147 O 0.37634 0.03696 0.37798 0.0
C148 C 0.37054 0.04363 0.35198 0.0
O149 O 0.37712 0.03711 0.3252 0.0
C150 C 0.4258 0.98435 0.36423 0.0
C151 C 0.46448 0.96959 0.46443 0.0
O152 O 0.46358 0.95385 0.45059 0.0
O153 O 0.45123 0.98103 0.45994 0.0
O154 O 0.75625 0.68591 0.11041 0.0
Cd155 Cd 0.7603 0.68315 0.16771 0.0
O156 O 0.73278 0.66751 0.11782 0.0
Cd157 Cd 0.70998 0.64863 0.1072 0.0
O158 O 0.68868 0.62754 0.11343 0.0
C159 C 0.6799 0.62742 0.13951 0.0
O160 O 0.68366 0.64016 0.16073 0.0
C161 C 0.7428 0.67683 0.09893 0.0
C162 C 0.76757 0.71631 0.19882 0.0
O163 O 0.78076 0.70575 0.18979 0.0
O164 O 0.75097 0.71132 0.19263 0.0
O165 O 0.0645 0.03321 0.86279 0.0
Cd166 Cd 0.0648 0.04301 0.91835 0.0
O167 O 0.08336 0.01117 0.87726 0.0
Cd168 Cd 0.10275 0.98834 0.87014 0.0
O169 O 0.12264 0.96578 0.86634 0.0
C170 C 0.12743 0.95706 0.89114 0.0
O171 O 0.12017 0.96181 0.91848 0.0
C172 C 0.07435 0.01932 0.85549 0.0
C173 C 0.03431 0.0319 0.95413 0.0
O174 O 0.03466 0.04774 0.94059 0.0
O175 O 0.04821 0.02118 0.95021 0.0
O176 O 0.7196 0.81514 0.5869 0.0
Cd177 Cd 0.70317 0.82046 0.63696 0.0
O178 O 0.74592 0.8258 0.60551 0.0
Cd179 Cd 0.7319 0.83837 0.64567 0.0
O180 O 0.71277 0.85938 0.66269 0.0
C181 C 0.70541 0.86924 0.64122 0.0
O182 O 0.7097 0.86598 0.61149 0.0
C183 C 0.7368 0.81812 0.58337 0.0
C184 C 0.71033 0.79312 0.68215 0.0
O185 O 0.69609 0.79215 0.66418 0.0
O186 O 0.72117 0.80696 0.67872 0.0
O187 O 0.45019 0.51154 0.87751 0.0
Cd188 Cd 0.45126 0.52153 0.93276 0.0
O189 O 0.4231 0.49941 0.88721 0.0
Cd190 Cd 0.39627 0.48701 0.87578 0.0
O191 O 0.37038 0.47193 0.8693 0.0
C192 C 0.36913 0.45895 0.84911 0.0
O193 O 0.38354 0.45496 0.83149 0.0
C194 C 0.43601 0.50295 0.86766 0.0
C195 C 0.47851 0.50408 0.96841 0.0
O196 O 0.46215 0.4974 0.96666 0.0
O197 O 0.48202 0.51891 0.95295 0.0
O198 O 0.75881 0.17842 0.07133 0.0
Cd199 Cd 0.7602 0.16778 0.12642 0.0
O200 O 0.74991 0.15121 0.05386 0.0
Cd201 Cd 0.75648 0.13643 0.0973 0.0
O202 O 0.77492 0.11513 0.11545 0.0
C203 C 0.78675 0.11832 0.13698 0.0
O204 O 0.7871 0.13465 0.15055 0.0
C205 C 0.75334 0.16816 0.04872 0.0
C206 C 0.76244 0.19703 0.16946 0.0
O207 O 0.77703 0.18879 0.1597 0.0
O208 O 0.74682 0.19146 0.15886 0.0
O209 O 0.06836 0.48539 0.33584 0.0
Cd210 Cd 0.07336 0.48287 0.39291 0.0
O211 O 0.09256 0.50337 0.33547 0.0
Cd212 Cd 0.11545 0.51979 0.31663 0.0
O213 O 0.13727 0.5397 0.30649 0.0
C214 C 0.13332 0.55515 0.29391 0.0
O215 O 0.11609 0.55858 0.28616 0.0
C216 C 0.07966 0.49532 0.32034 0.0
C217 C 0.04084 0.48593 0.42766 0.0
O218 O 0.05035 0.50025 0.42044 0.0
O219 O 0.04669 0.47015 0.41826 0.0
O220 O 0.77293 0.196 0.85772 0.0
Cd221 Cd 0.78343 0.20195 0.80371 0.0
O222 O 0.75029 0.17888 0.83959 0.0
Cd223 Cd 0.72598 0.16101 0.84412 0.0
O224 O 0.70339 0.14141 0.85124 0.0
C225 C 0.6878 0.14395 0.83813 0.0
O226 O 0.68541 0.1586 0.82023 0.0
C227 C 0.75923 0.18547 0.86297 0.0
C228 C 0.76346 0.22898 0.77168 0.0
O229 O 0.75859 0.21197 0.77057 0.0
O230 O 0.77761 0.23322 0.78843 0.0
O231 O 0.06805 0.46509 0.11903 0.0
Cd232 Cd 0.07215 0.45968 0.06222 0.0
O233 O 0.0875 0.48839 0.1206 0.0
Cd234 Cd 0.09931 0.48043 0.0751 0.0
O235 O 0.12059 0.46136 0.05857 0.0
C236 C 0.13454 0.46023 0.07676 0.0
O237 O 0.1353 0.4711 0.10167 0.0
C238 C 0.07559 0.47825 0.13428 0.0
C239 C 0.04114 0.47094 0.02789 0.0
O240 O 0.04248 0.45443 0.0386 0.0
O241 O 0.0545 0.48211 0.03334 0.0
O242 O 0.78828 0.82126 0.40264 0.0
Cd243 Cd 0.8054 0.82755 0.35382 0.0
O244 O 0.76177 0.83075 0.38307 0.0
Cd245 Cd 0.77613 0.84435 0.3441 0.0
O246 O 0.79688 0.86515 0.33234 0.0
C247 C 0.80433 0.87243 0.3566 0.0
O248 O 0.79894 0.86691 0.38479 0.0
C249 C 0.7709 0.82328 0.40541 0.0
C250 C 0.80078 0.79865 0.31084 0.0
O251 O 0.81472 0.79911 0.32955 0.0
O252 O 0.78917 0.81196 0.31221 0.0
O253 O 0.42845 0.51605 0.66123 0.0
Cd254 Cd 0.41759 0.51824 0.60638 0.0
O255 O 0.4081 0.49483 0.67424 0.0
Cd256 Cd 0.39174 0.5017 0.63268 0.0
O257 O 0.37469 0.52544 0.62033 0.0
C258 C 0.37543 0.53837 0.64069 0.0
O259 O 0.38606 0.53621 0.66566 0.0
C260 C 0.42211 0.50458 0.68133 0.0
C261 C 0.44601 0.52616 0.56382 0.0
O262 O 0.436 0.53907 0.5755 0.0
O263 O 0.44261 0.50951 0.57234 0.0
O264 O 0.21153 0.17416 0.4234 0.0
Cd265 Cd 0.19628 0.17231 0.37178 0.0
O266 O 0.2346 0.15827 0.40386 0.0
Cd267 Cd 0.26033 0.14245 0.40629 0.0
O268 O 0.2841 0.12387 0.40669 0.0
C269 C 0.29104 0.11832 0.38071 0.0
O270 O 0.2839 0.12417 0.35392 0.0
C271 C 0.22722 0.16663 0.42716 0.0
C272 C 0.20831 0.19971 0.33012 0.0
O273 O 0.19449 0.20243 0.34851 0.0
O274 O 0.21647 0.18402 0.3315 0.0
O275 O 0.56769 0.4527 0.18262 0.0
Cd276 Cd 0.56788 0.43497 0.13338 0.0
O277 O 0.58123 0.47524 0.15711 0.0
Cd278 Cd 0.59569 0.50155 0.15096 0.0
O279 O 0.61267 0.5254 0.13843 0.0
C280 C 0.61466 0.53895 0.15725 0.0
O281 O 0.60615 0.53864 0.18474 0.0
C282 C 0.57444 0.4689 0.1827 0.0
C283 C 0.54215 0.44897 0.09058 0.0
O284 O 0.53778 0.4361 0.11003 0.0
O285 O 0.55874 0.45511 0.09125 0.0
O286 O 0.27907 0.81734 0.8907 0.0
Cd287 Cd 0.28923 0.8185 0.83539 0.0
O288 O 0.25592 0.83443 0.87499 0.0
Cd289 Cd 0.23192 0.85234 0.88162 0.0
O290 O 0.20958 0.87251 0.8843 0.0
C291 C 0.20225 0.87673 0.91068 0.0
O292 O 0.20814 0.86859 0.93659 0.0
C293 C 0.26439 0.82615 0.89723 0.0
C294 C 0.2813 0.78706 0.79957 0.0
O295 O 0.29712 0.78914 0.81274 0.0
O296 O 0.26913 0.79967 0.80386 0.0
O297 O 0.92395 0.51725 0.61971 0.0
Cd298 Cd 0.91837 0.5143 0.5629 0.0
O299 O 0.90691 0.49271 0.62646 0.0
Cd300 Cd 0.8899 0.47147 0.64901 0.0
O301 O 0.86915 0.44953 0.64934 0.0
C302 C 0.86717 0.44061 0.62361 0.0
O303 O 0.87786 0.44474 0.59947 0.0
C304 C 0.91653 0.50567 0.63839 0.0
C305 C 0.95093 0.5112 0.52828 0.0
O306 O 0.94399 0.52706 0.53466 0.0
O307 O 0.94248 0.49682 0.53842 0.0
O308 O 0.22955 0.82681 0.09058 0.0
Cd309 Cd 0.21995 0.83159 0.14554 0.0
O310 O 0.2536 0.84331 0.10377 0.0
Cd311 Cd 0.27875 0.85973 0.09774 0.0
O312 O 0.30064 0.88021 0.10397 0.0
C313 C 0.30388 0.8922 0.08271 0.0
O314 O 0.29429 0.89174 0.05629 0.0
C315 C 0.24474 0.83432 0.08279 0.0
C316 C 0.21254 0.79924 0.179 0.0
O317 O 0.19951 0.80829 0.16553 0.0
O318 O 0.22907 0.80533 0.17621 0.0
O319 O 0.91601 0.49377 0.84737 0.0
Cd320 Cd 0.91412 0.49941 0.90449 0.0
O321 O 0.92019 0.52326 0.83723 0.0
Cd322 Cd 0.91419 0.53316 0.88495 0.0
O323 O 0.89581 0.552 0.91012 0.0
C324 C 0.88105 0.54608 0.92281 0.0
O325 O 0.87791 0.52821 0.92324 0.0
C326 C 0.91904 0.50666 0.8276 0.0
C327 C 0.94586 0.488 0.93663 0.0
O328 O 0.93226 0.47695 0.93222 0.0
O329 O 0.94446 0.50446 0.92573 0.0
O330 O 0.27573 0.18218 0.60941 0.0
Cd331 Cd 0.29058 0.18305 0.66144 0.0
O332 O 0.25476 0.16456 0.63124 0.0
Cd333 Cd 0.23115 0.14571 0.63307 0.0
O334 O 0.21037 0.12467 0.64352 0.0
C335 C 0.19719 0.12108 0.62463 0.0
O336 O 0.19589 0.13034 0.59796 0.0
C337 C 0.26102 0.17273 0.60681 0.0
C338 C 0.28258 0.21472 0.6965 0.0
O339 O 0.29716 0.2138 0.67935 0.0
O340 O 0.27169 0.20077 0.69673 0.0
O341 O 0.56274 0.52603 0.35894 0.0
Cd342 Cd 0.56301 0.54258 0.40948 0.0
O343 O 0.58188 0.50653 0.3811 0.0
Cd344 Cd 0.60116 0.48325 0.38129 0.0
O345 O 0.62151 0.461 0.38208 0.0
C346 C 0.63241 0.45955 0.40555 0.0
O347 O 0.63106 0.47148 0.42889 0.0
C348 C 0.57257 0.51155 0.35703 0.0
C349 C 0.53327 0.5337 0.44871 0.0
O350 O 0.53268 0.54785 0.43051 0.0
O351 O 0.54785 0.52366 0.44812 0.0
H352 H 0.23713 0.19806 0.28884 0.0
H353 H 0.19374 0.23414 0.32175 0.0
H354 H 0.20438 0.25835 0.28593 0.0
H355 H 0.22637 0.26954 0.24607 0.0
H356 H 0.26999 0.23361 0.2136 0.0
H357 H 0.25882 0.20908 0.24832 0.0
C358 C 0.22997 0.2112 0.28816 0.0
C359 C 0.21468 0.21427 0.30803 0.0
C360 C 0.23619 0.22511 0.26755 0.0
C361 C 0.20557 0.23139 0.30678 0.0
C362 C 0.21164 0.24526 0.28628 0.0
C363 C 0.23338 0.25631 0.24644 0.0
C364 C 0.24901 0.25344 0.22725 0.0
C365 C 0.22698 0.2423 0.26665 0.0
C366 C 0.25794 0.23622 0.22812 0.0
C367 C 0.25158 0.22217 0.24801 0.0
H368 H 0.98397 0.98139 0.50367 0.0
H369 H 0.02204 0.02324 0.47142 0.0
H370 H 0.04632 0.01011 0.50458 0.0
H371 H 0.05651 0.98732 0.54391 0.0
H372 H 0.01845 0.94544 0.57608 0.0
H373 H 0.99443 0.95804 0.54178 0.0
C374 C 0.9976 0.98759 0.50375 0.0
C375 C 0.00114 0.00331 0.48513 0.0
C376 C 0.0115 0.98002 0.52298 0.0
C377 C 0.01891 0.01114 0.48551 0.0
C378 C 0.03281 0.00367 0.50453 0.0
C379 C 0.04297 0.98093 0.54341 0.0
C380 C 0.03928 0.96551 0.56267 0.0
C381 C 0.02921 0.98822 0.52357 0.0
C382 C 0.02168 0.95734 0.56156 0.0
C383 C 0.00792 0.96454 0.54194 0.0
H384 H 0.30608 0.76359 0.77289 0.0
H385 H 0.24766 0.77446 0.78008 0.0
H386 H 0.24114 0.74849 0.74484 0.0
H387 H 0.25207 0.7231 0.71105 0.0
H388 H 0.31058 0.7132 0.70184 0.0
H389 H 0.31702 0.73838 0.73874 0.0
C390 C 0.29192 0.76019 0.76691 0.0
C391 C 0.27738 0.7709 0.77918 0.0
C392 C 0.28829 0.74547 0.74614 0.0
C393 C 0.25911 0.76645 0.77093 0.0
C394 C 0.25536 0.7516 0.75077 0.0
C395 C 0.26623 0.72642 0.71718 0.0
C396 C 0.28081 0.71626 0.70373 0.0
C397 C 0.26985 0.74109 0.73808 0.0
C398 C 0.29909 0.72083 0.71177 0.0
C399 C 0.30279 0.73521 0.73292 0.0
H400 H 0.52124 0.02711 0.01884 0.0
H401 H 0.48613 0.98206 0.98944 0.0
H402 H 0.46084 0.99453 0.02112 0.0
H403 H 0.44894 0.01771 0.05832 0.0
H404 H 0.48413 0.06265 0.08792 0.0
H405 H 0.50912 0.05069 0.05501 0.0
C406 C 0.50803 0.02006 0.0192 0.0
C407 C 0.50562 0.00365 0.00182 0.0
C408 C 0.49357 0.02723 0.03763 0.0
C409 C 0.48839 0.99471 0.0026 0.0
C410 C 0.47391 0.0018 0.02076 0.0
C411 C 0.46206 0.02492 0.05755 0.0
C412 C 0.46466 0.04102 0.07568 0.0
C413 C 0.47639 0.01797 0.03858 0.0
C414 C 0.48175 0.0502 0.07428 0.0
C415 C 0.49606 0.04338 0.05545 0.0
H416 H 0.1838 0.73462 0.2664 0.0
H417 H 0.24119 0.71896 0.26097 0.0
H418 H 0.24748 0.74521 0.2263 0.0
H419 H 0.23685 0.7731 0.19867 0.0
H420 H 0.17922 0.78806 0.20224 0.0
H421 H 0.17284 0.76155 0.23633 0.0
C422 C 0.19767 0.73695 0.25758 0.0
C423 C 0.21203 0.72494 0.26642 0.0
C424 C 0.20115 0.75194 0.23732 0.0
C425 C 0.22989 0.728 0.25451 0.0
C426 C 0.23351 0.74303 0.23474 0.0
C427 C 0.22288 0.77052 0.20684 0.0
C428 C 0.20856 0.78259 0.19811 0.0
C429 C 0.21927 0.75516 0.22617 0.0
C430 C 0.1905 0.77897 0.2086 0.0
C431 C 0.18684 0.76385 0.22818 0.0
H432 H 0.5248 0.00116 0.55805 0.0
H433 H 0.54031 0.94363 0.56048 0.0
H434 H 0.51594 0.9363 0.52254 0.0
H435 H 0.48997 0.94611 0.48914 0.0
H436 H 0.47372 0.00343 0.48813 0.0
H437 H 0.49868 0.01095 0.52489 0.0
C438 C 0.52287 0.98702 0.55026 0.0
C439 C 0.53438 0.97298 0.56211 0.0
C440 C 0.50871 0.98286 0.52863 0.0
C441 C 0.53162 0.95471 0.55184 0.0
C442 C 0.5177 0.9505 0.53008 0.0
C443 C 0.49196 0.96027 0.49681 0.0
C444 C 0.48003 0.9742 0.48581 0.0
C445 C 0.50615 0.96445 0.51835 0.0
C446 C 0.48269 0.99244 0.49624 0.0
C447 C 0.49696 0.99676 0.51728 0.0
H448 H 0.25448 0.27863 0.78611 0.0
H449 H 0.31063 0.29712 0.77303 0.0
H450 H 0.31657 0.27113 0.73757 0.0
H451 H 0.30604 0.24277 0.7112 0.0
H452 H 0.25028 0.22359 0.72609 0.0
H453 H 0.24397 0.25027 0.75982 0.0
C454 C 0.268 0.27703 0.7754 0.0
C455 C 0.28208 0.28981 0.78219 0.0
C456 C 0.2714 0.26191 0.75537 0.0
C457 C 0.29955 0.28745 0.76827 0.0
C458 C 0.30296 0.2726 0.74796 0.0
C459 C 0.29247 0.24448 0.72168 0.0
C460 C 0.27865 0.23122 0.71609 0.0
C461 C 0.28902 0.2597 0.74146 0.0
C462 C 0.26119 0.23357 0.73006 0.0
C463 C 0.25756 0.24882 0.74935 0.0
H464 H 0.00667 0.05371 0.97648 0.0
H465 H 0.02684 0.99765 0.97794 0.0
H466 H 0.00168 0.98871 0.0133 0.0
H467 H 0.97437 0.99694 0.0448 0.0
H468 H 0.95485 0.05325 0.04476 0.0
H469 H 0.97934 0.06193 0.0079 0.0
C470 C 0.0055 0.03951 0.98437 0.0
C471 C 0.01861 0.02637 0.97452 0.0
C472 C 0.99116 0.03451 0.00509 0.0
C473 C 0.01696 0.00806 0.98518 0.0
C474 C 0.00258 0.00292 0.00542 0.0
C475 C 0.97543 0.01111 0.03667 0.0
C476 C 0.96278 0.02442 0.04756 0.0
C477 C 0.98967 0.01606 0.0157 0.0
C478 C 0.96442 0.04273 0.03686 0.0
C479 C 0.97841 0.04771 0.01573 0.0
H480 H 0.68687 0.76676 0.70425 0.0
H481 H 0.74257 0.78718 0.71392 0.0
H482 H 0.74935 0.76304 0.75259 0.0
H483 H 0.73969 0.73572 0.78283 0.0
H484 H 0.68372 0.71585 0.77439 0.0
H485 H 0.67681 0.74024 0.73628 0.0
C486 C 0.70049 0.76592 0.71482 0.0
C487 C 0.71422 0.77868 0.70605 0.0
C488 C 0.70425 0.75212 0.73732 0.0
C489 C 0.73174 0.77753 0.72023 0.0
C490 C 0.73565 0.76371 0.74233 0.0
C491 C 0.72596 0.73676 0.77276 0.0
C492 C 0.71228 0.72391 0.78137 0.0
C493 C 0.72204 0.75088 0.75095 0.0
C494 C 0.69452 0.72556 0.76823 0.0
C495 C 0.69056 0.73948 0.74634 0.0
H496 H 0.75534 0.26714 0.2577 0.0
H497 H 0.81151 0.25202 0.2799 0.0
H498 H 0.80942 0.22564 0.24405 0.0
H499 H 0.7919 0.20724 0.20541 0.0
H500 H 0.73543 0.22179 0.18448 0.0
H501 H 0.73739 0.24798 0.2208 0.0
C502 C 0.76711 0.25805 0.25477 0.0
C503 C 0.78358 0.26162 0.27136 0.0
C504 C 0.76579 0.24281 0.23426 0.0
C505 C 0.79865 0.2496 0.26746 0.0
C506 C 0.79749 0.23452 0.24688 0.0
C507 C 0.78002 0.21614 0.2088 0.0
C508 C 0.76358 0.21262 0.1921 0.0
C509 C 0.78118 0.23107 0.22999 0.0
C510 C 0.74826 0.22418 0.19702 0.0
C511 C 0.74937 0.23918 0.21776 0.0
H512 H 0.73383 0.22399 0.73304 0.0
H513 H 0.77073 0.26595 0.76876 0.0
H514 H 0.75535 0.28916 0.73619 0.0
H515 H 0.73215 0.29735 0.69623 0.0
H516 H 0.69542 0.25533 0.6602 0.0
H517 H 0.71001 0.23237 0.6943 0.0
C518 C 0.73846 0.23823 0.73385 0.0
C519 C 0.75345 0.24319 0.75325 0.0
C520 C 0.72963 0.2515 0.71492 0.0
C521 C 0.75924 0.26172 0.75401 0.0
C522 C 0.75047 0.27502 0.73535 0.0
C523 C 0.72728 0.28319 0.6959 0.0
C524 C 0.71275 0.27807 0.67558 0.0
C525 C 0.73577 0.27003 0.7155 0.0
C526 C 0.7066 0.25966 0.67555 0.0
C527 C 0.71494 0.2465 0.69504 0.0
H528 H 0.76973 0.7903 0.27771 0.0
H529 H 0.82542 0.77166 0.29498 0.0
H530 H 0.82036 0.74508 0.26042 0.0
H531 H 0.79977 0.72651 0.22688 0.0
H532 H 0.74364 0.74442 0.21164 0.0
H533 H 0.74926 0.77194 0.2437 0.0
C534 C 0.7808 0.78049 0.27375 0.0
C535 C 0.79792 0.78296 0.2889 0.0
C536 C 0.77771 0.76507 0.25427 0.0
C537 C 0.81209 0.77005 0.28369 0.0
C538 C 0.80921 0.75485 0.26391 0.0
C539 C 0.78881 0.73651 0.23037 0.0
C540 C 0.77131 0.73342 0.21688 0.0
C541 C 0.79203 0.75213 0.2493 0.0
C542 C 0.75722 0.74644 0.22183 0.0
C543 C 0.76041 0.76218 0.24016 0.0
H544 H 0.5468 0.47738 0.0492 0.0
H545 H 0.50644 0.43791 0.08209 0.0
H546 H 0.48339 0.45111 0.0465 0.0
H547 H 0.47447 0.4743 0.00701 0.0
H548 H 0.51469 0.51408 0.97473 0.0
H549 H 0.53801 0.50025 0.00906 0.0
C550 C 0.53298 0.47161 0.04852 0.0
C551 C 0.52836 0.45669 0.06834 0.0
C552 C 0.51975 0.47933 0.02814 0.0
C553 C 0.51038 0.44941 0.06715 0.0
C554 C 0.49717 0.45695 0.0468 0.0
C555 C 0.48836 0.4799 0.00736 0.0
C556 C 0.4928 0.49522 0.98834 0.0
C557 C 0.50168 0.47197 0.02733 0.0
C558 C 0.51086 0.50232 0.98915 0.0
C559 C 0.52423 0.49442 0.0088 0.0
H560 H 0.02445 0.51739 0.44873 0.0
H561 H 0.01864 0.45805 0.44885 0.0
H562 H 0.99044 0.46065 0.48019 0.0
H563 H 0.96743 0.47973 0.50753 0.0
H564 H 0.97308 0.53907 0.50695 0.0
H565 H 0.00136 0.53647 0.47585 0.0
C566 C 0.01702 0.50501 0.4556 0.0
C567 C 0.02367 0.48756 0.44645 0.0
C568 C 0.00079 0.50659 0.47356 0.0
C569 C 0.01384 0.47167 0.45553 0.0
C570 C 0.99771 0.47313 0.47349 0.0
C571 C 0.97485 0.4921 0.50065 0.0
C572 C 0.96814 0.50956 0.5096 0.0
C573 C 0.99107 0.49052 0.48264 0.0
C574 C 0.97791 0.52545 0.50038 0.0
C575 C 0.9941 0.52398 0.48259 0.0
H576 H 0.97647 0.50832 0.95051 0.0
H577 H 0.95283 0.45398 0.96181 0.0
H578 H 0.98019 0.44393 0.99079 0.0
H579 H 0.01075 0.45055 0.01322 0.0
H580 H 0.03439 0.50489 0.00213 0.0
H581 H 0.00712 0.51491 0.9728 0.0
C582 C 0.9773 0.49427 0.95928 0.0
C583 C 0.96259 0.48194 0.95397 0.0
C584 C 0.99308 0.48856 0.976 0.0
C585 C 0.96392 0.46378 0.96553 0.0
C586 C 0.97958 0.458 0.98214 0.0
C587 C 0.00996 0.46458 0.00438 0.0
C588 C 0.02462 0.47693 0.0099 0.0
C589 C 0.99422 0.47028 0.98755 0.0
C590 C 0.02333 0.49507 0.99825 0.0
C591 C 0.00773 0.50083 0.98146 0.0
H592 H 0.50486 0.55605 0.46601 0.0
H593 H 0.52696 0.50131 0.47989 0.0
H594 H 0.50169 0.49401 0.51612 0.0
H595 H 0.47356 0.5033 0.54444 0.0
H596 H 0.45223 0.55849 0.53237 0.0
H597 H 0.47696 0.56547 0.4949 0.0
C598 C 0.5041 0.54249 0.47685 0.0
C599 C 0.51774 0.52923 0.47018 0.0
C600 C 0.4897 0.53848 0.49807 0.0
C601 C 0.51666 0.51179 0.48466 0.0
C602 C 0.50221 0.50759 0.50537 0.0
C603 C 0.47429 0.51684 0.53355 0.0
C604 C 0.46104 0.53033 0.54115 0.0
C605 C 0.48869 0.52085 0.51235 0.0
C606 C 0.46227 0.54786 0.52701 0.0
C607 C 0.4764 0.55186 0.50553 0.0
H608 H 0.16498 0.45417 0.11268 0.0
H609 H 0.13585 0.43351 0.03077 0.0
H610 H 0.15765 0.40786 0.02669 0.0
H611 H 0.18379 0.39024 0.0485 0.0
H612 H 0.21234 0.41083 0.13111 0.0
H613 H 0.19196 0.43759 0.13266 0.0
C614 C 0.16345 0.44416 0.09374 0.0
C615 C 0.1487 0.44571 0.0722 0.0
C616 C 0.17587 0.42935 0.09177 0.0
C617 C 0.14703 0.43264 0.04774 0.0
C618 C 0.15947 0.41792 0.04544 0.0
C619 C 0.18565 0.40065 0.06671 0.0
C620 C 0.19951 0.39842 0.0898 0.0
C621 C 0.17375 0.41597 0.06766 0.0
C622 C 0.20175 0.4121 0.11314 0.0
C623 C 0.19008 0.42742 0.11407 0.0
H624 H 0.82255 0.88961 0.40423 0.0
H625 H 0.81876 0.8874 0.30224 0.0
H626 H 0.84285 0.91096 0.29792 0.0
H627 H 0.86509 0.93211 0.32328 0.0
H628 H 0.86863 0.93387 0.4254 0.0
H629 H 0.84451 0.91055 0.42939 0.0
C630 C 0.82695 0.89425 0.381 0.0
C631 C 0.81885 0.88673 0.35361 0.0
C632 C 0.84079 0.90773 0.3787 0.0
C633 C 0.82477 0.89295 0.32373 0.0
C634 C 0.83855 0.90642 0.32124 0.0
C635 C 0.86058 0.9274 0.34641 0.0
C636 C 0.86871 0.93476 0.37399 0.0
C637 C 0.84667 0.9139 0.34859 0.0
C638 C 0.86268 0.92846 0.40376 0.0
C639 C 0.84886 0.91511 0.40609 0.0
H640 H 0.33503 0.61555 0.6445 0.0
H641 H 0.31163 0.59448 0.55763 0.0
H642 H 0.32915 0.56595 0.56363 0.0
H643 H 0.35145 0.54706 0.59316 0.0
H644 H 0.37487 0.56824 0.67995 0.0
H645 H 0.35704 0.59657 0.67427 0.0
C646 C 0.33371 0.60471 0.62693 0.0
C647 C 0.32204 0.6072 0.60066 0.0
C648 C 0.34388 0.58833 0.63042 0.0
C649 C 0.32052 0.59297 0.5781 0.0
C650 C 0.33055 0.57663 0.58147 0.0
C651 C 0.35266 0.55787 0.61082 0.0
C652 C 0.36452 0.5555 0.63688 0.0
C653 C 0.34234 0.57418 0.60746 0.0
C654 C 0.36587 0.56966 0.6596 0.0
C655 C 0.35567 0.5859 0.65641 0.0
H656 H 0.616 0.0945 0.84402 0.0
H657 H 0.65124 0.06192 0.90466 0.0
H658 H 0.67631 0.08402 0.89727 0.0
H659 H 0.68828 0.11256 0.87363 0.0
H660 H 0.65303 0.1452 0.8131 0.0
H661 H 0.62795 0.12311 0.82049 0.0
C662 C 0.62916 0.09221 0.85562 0.0
C663 C 0.6317 0.07655 0.87486 0.0
C664 C 0.64354 0.105 0.85133 0.0
C665 C 0.64886 0.07385 0.88973 0.0
C666 C 0.66323 0.08648 0.88553 0.0
C667 C 0.67512 0.11486 0.86204 0.0
C668 C 0.67258 0.13054 0.84282 0.0
C669 C 0.66073 0.1021 0.86638 0.0
C670 C 0.6554 0.13327 0.82802 0.0
C671 C 0.64103 0.12064 0.83222 0.0
H672 H 0.1699 0.55239 0.30769 0.0
H673 H 0.12886 0.5906 0.27305 0.0
H674 H 0.15178 0.6153 0.27239 0.0
H675 H 0.1829 0.62657 0.28526 0.0
H676 H 0.22373 0.58836 0.32065 0.0
H677 H 0.2015 0.56316 0.31712 0.0
C678 C 0.16598 0.56608 0.29975 0.0
C679 C 0.14763 0.56965 0.29073 0.0
C680 C 0.17919 0.58027 0.29966 0.0
C681 C 0.14285 0.58746 0.28028 0.0
C682 C 0.15596 0.60163 0.27994 0.0
C683 C 0.18701 0.6127 0.29188 0.0
C684 C 0.20493 0.60942 0.30347 0.0
C685 C 0.17408 0.59827 0.29012 0.0
C686 C 0.21001 0.59133 0.31182 0.0
C687 C 0.19729 0.57689 0.30988 0.0
H688 H 0.65193 0.92992 0.69677 0.0
H689 H 0.64743 0.94375 0.59757 0.0
H690 H 0.66868 0.91873 0.58421 0.0
H691 H 0.68852 0.89301 0.60071 0.0
H692 H 0.69306 0.87931 0.69997 0.0
H693 H 0.67175 0.90425 0.71325 0.0
C694 C 0.65557 0.92749 0.67219 0.0
C695 C 0.64808 0.93871 0.6482 0.0
C696 C 0.66779 0.91311 0.6647 0.0
C697 C 0.65299 0.93534 0.61651 0.0
C698 C 0.66514 0.92103 0.60885 0.0
C699 C 0.68485 0.89545 0.62527 0.0
C700 C 0.69239 0.88429 0.64931 0.0
C701 C 0.67262 0.90983 0.63275 0.0
C702 C 0.68748 0.88768 0.68099 0.0
C703 C 0.67529 0.90195 0.68861 0.0
H704 H 0.29448 0.41521 0.86537 0.0
H705 H 0.32129 0.37908 0.79824 0.0
H706 H 0.34718 0.40055 0.79427 0.0
H707 H 0.36326 0.42838 0.81288 0.0
H708 H 0.33678 0.46396 0.88126 0.0
H709 H 0.30971 0.44391 0.88155 0.0
C710 C 0.30588 0.4121 0.84957 0.0
C711 C 0.30597 0.39547 0.83231 0.0
C712 C 0.32087 0.42435 0.8478 0.0
C713 C 0.32087 0.39172 0.81193 0.0
C714 C 0.33572 0.40398 0.8097 0.0
C715 C 0.35151 0.43186 0.82766 0.0
C716 C 0.35215 0.44759 0.84722 0.0
C717 C 0.33605 0.42014 0.82802 0.0
C718 C 0.33675 0.45188 0.86612 0.0
C719 C 0.32124 0.44042 0.86632 0.0
H720 H 0.8534 0.06869 0.18161 0.0
H721 H 0.83726 0.03767 0.09873 0.0
H722 H 0.81185 0.05917 0.08933 0.0
H723 H 0.79458 0.087 0.10412 0.0
H724 H 0.81129 0.1185 0.18612 0.0
H725 H 0.83607 0.09644 0.19652 0.0
C726 C 0.84433 0.06659 0.16148 0.0
C727 C 0.84726 0.05158 0.14089 0.0
C728 C 0.82982 0.07905 0.15613 0.0
C729 C 0.83537 0.04913 0.11491 0.0
C730 C 0.82081 0.06139 0.10955 0.0
C731 C 0.80355 0.08898 0.12443 0.0
C732 C 0.80105 0.10438 0.14437 0.0
C733 C 0.81794 0.07641 0.12997 0.0
C734 C 0.8129 0.10679 0.1704 0.0
C735 C 0.82709 0.09419 0.17633 0.0
H736 H 0.80772 0.58964 0.95147 0.0
H737 H 0.84033 0.63441 0.91361 0.0
H738 H 0.86728 0.61428 0.91101 0.0
H739 H 0.88083 0.58338 0.915 0.0
H740 H 0.84796 0.53826 0.95095 0.0
H741 H 0.82198 0.5592 0.95917 0.0
C742 C 0.82076 0.59506 0.94297 0.0
C743 C 0.82192 0.61347 0.93244 0.0
C744 C 0.83617 0.58333 0.94107 0.0
C745 C 0.83898 0.62026 0.92163 0.0
C746 C 0.85442 0.60876 0.92011 0.0
C747 C 0.86808 0.57814 0.92506 0.0
C748 C 0.86632 0.55922 0.93206 0.0
C749 C 0.85306 0.59017 0.9291 0.0
C750 C 0.84968 0.55273 0.94514 0.0
C751 C 0.83478 0.56469 0.94977 0.0
H752 H 0.14801 0.05542 0.67555 0.0
H753 H 0.12028 0.06482 0.58646 0.0
H754 H 0.14133 0.09022 0.57469 0.0
H755 H 0.16811 0.10929 0.589 0.0
H756 H 0.19599 0.09968 0.67789 0.0
H757 H 0.17438 0.0749 0.69035 0.0
C758 C 0.1465 0.06307 0.65362 0.0
C759 C 0.13259 0.05816 0.63192 0.0
C760 C 0.15873 0.07761 0.64687 0.0
C761 C 0.13087 0.06825 0.6036 0.0
C762 C 0.14292 0.08279 0.59681 0.0
C763 C 0.16944 0.10182 0.61114 0.0
C764 C 0.18371 0.10634 0.6324 0.0
C765 C 0.15699 0.08751 0.61816 0.0
C766 C 0.18519 0.09649 0.66101 0.0
C767 C 0.17282 0.0823 0.66819 0.0
H768 H 0.63889 0.43301 0.3612 0.0
H769 H 0.65792 0.45305 0.45186 0.0
H770 H 0.68167 0.42918 0.45307 0.0
H771 H 0.69734 0.4029 0.42813 0.0
H772 H 0.67845 0.38298 0.3373 0.0
H773 H 0.65434 0.40649 0.33654 0.0
C774 C 0.6482 0.43215 0.38126 0.0
C775 C 0.64661 0.44484 0.40637 0.0
C776 C 0.66188 0.41841 0.3818 0.0
C777 C 0.65881 0.44349 0.43218 0.0
C778 C 0.67242 0.42984 0.43291 0.0
C779 C 0.68793 0.40365 0.40818 0.0
C780 C 0.68976 0.39119 0.3828 0.0
C781 C 0.67412 0.41726 0.40781 0.0
C782 C 0.67741 0.3924 0.35716 0.0
C783 C 0.6636 0.40586 0.35667 0.0
H784 H 0.35634 0.96176 0.08783 0.0
H785 H 0.36581 0.94098 0.1823 0.0
H786 H 0.3453 0.91491 0.17173 0.0
H787 H 0.32402 0.89848 0.13619 0.0
H788 H 0.31431 0.91958 0.04198 0.0
H789 H 0.33564 0.94501 0.05196 0.0
C790 C 0.35398 0.95151 0.10611 0.0
C791 C 0.36258 0.95338 0.13585 0.0
C792 C 0.34211 0.93661 0.09995 0.0
C793 C 0.35935 0.93993 0.15922 0.0
C794 C 0.34762 0.925 0.1532 0.0
C795 C 0.32663 0.90858 0.11776 0.0
C796 C 0.31752 0.90711 0.08839 0.0
C797 C 0.33883 0.92327 0.12372 0.0
C798 C 0.32108 0.92035 0.06482 0.0
C799 C 0.33328 0.93493 0.07051 0.0
H800 H 0.85959 0.41983 0.57165 0.0
H801 H 0.84169 0.42966 0.66774 0.0
H802 H 0.81667 0.40736 0.66098 0.0
H803 H 0.79934 0.38576 0.62727 0.0
H804 H 0.81727 0.37617 0.53108 0.0
H805 H 0.84283 0.39769 0.5385 0.0
C806 C 0.85027 0.41707 0.5912 0.0
C807 C 0.8525 0.42647 0.62013 0.0
C808 C 0.83588 0.4043 0.58711 0.0
C809 C 0.8403 0.42265 0.64519 0.0
C810 C 0.82596 0.40991 0.64134 0.0
C811 C 0.80886 0.38832 0.60793 0.0
C812 C 0.80632 0.37939 0.57861 0.0
C813 C 0.82353 0.40077 0.61231 0.0
C814 C 0.81885 0.38286 0.55388 0.0
C815 C 0.83348 0.39518 0.55808 0.0
H816 H 0.35437 0.05989 0.40303 0.0
H817 H 0.35443 0.06017 0.30074 0.0
H818 H 0.33017 0.08357 0.30063 0.0
H819 H 0.30846 0.10345 0.32954 0.0
H820 H 0.3084 0.10302 0.43184 0.0
H821 H 0.33318 0.08021 0.43189 0.0
C822 C 0.34913 0.06508 0.38068 0.0
C823 C 0.35619 0.05821 0.35194 0.0
C824 C 0.33515 0.07851 0.38077 0.0
C825 C 0.34924 0.06517 0.32323 0.0
C826 C 0.33534 0.07856 0.32313 0.0
C827 C 0.31389 0.09842 0.35187 0.0
C828 C 0.30651 0.10493 0.38063 0.0
C829 C 0.32812 0.08525 0.35176 0.0
C830 C 0.31377 0.09826 0.40933 0.0
C831 C 0.32795 0.08519 0.4094 0.0
H832 H 0.6226 0.56941 0.19251 0.0
H833 H 0.63409 0.54372 0.10233 0.0
H834 H 0.6548 0.56903 0.08849 0.0
H835 H 0.67029 0.59809 0.10248 0.0
H836 H 0.65898 0.62361 0.19288 0.0
H837 H 0.63755 0.59878 0.20599 0.0
C838 C 0.62958 0.56936 0.16978 0.0
C839 C 0.62681 0.55463 0.14857 0.0
C840 C 0.64155 0.58393 0.16198 0.0
C841 C 0.63597 0.55484 0.11919 0.0
C842 C 0.64784 0.56932 0.11122 0.0
C843 C 0.66309 0.59827 0.12499 0.0
C844 C 0.66631 0.61269 0.14666 0.0
C845 C 0.65083 0.58389 0.13251 0.0
C846 C 0.65682 0.61269 0.17573 0.0
C847 C 0.64455 0.59847 0.18331 0.0
H848 H 0.18764 0.89639 0.86179 0.0
H849 H 0.18395 0.88918 0.96313 0.0
H850 H 0.16033 0.91316 0.96592 0.0
H851 H 0.14107 0.9365 0.93975 0.0
H852 H 0.14491 0.94379 0.83843 0.0
H853 H 0.16811 0.91942 0.83555 0.0
C854 C 0.18165 0.90001 0.8845 0.0
C855 C 0.18761 0.89099 0.91221 0.0
C856 C 0.16811 0.91386 0.88597 0.0
C857 C 0.17966 0.89589 0.94142 0.0
C858 C 0.16615 0.90962 0.94305 0.0
C859 C 0.14694 0.93275 0.91701 0.0
C860 C 0.14126 0.94202 0.88937 0.0
C861 C 0.16032 0.91875 0.9155 0.0
C862 C 0.14903 0.93693 0.86011 0.0
C863 C 0.16231 0.92299 0.85842 0.0
H864 H 0.23635 0.34051 0.96874 0.0
H865 H 0.2826 0.30491 0.94808 0.0
H866 H 0.28378 0.29521 0.0034 0.0
H867 H 0.27357 0.29909 0.05849 0.0
H868 H 0.22632 0.33329 0.07879 0.0
H869 H 0.22372 0.34141 0.02282 0.0
C870 C 0.24656 0.33048 0.97627 0.0
C871 C 0.25952 0.32364 0.95437 0.0
C872 C 0.24719 0.32497 0.00815 0.0
C873 C 0.2725 0.31045 0.96443 0.0
C874 C 0.27324 0.30495 0.99612 0.0
C875 C 0.26257 0.30816 0.05063 0.0
C876 C 0.25072 0.31633 0.07299 0.0
C877 C 0.26094 0.31245 0.01831 0.0
C878 C 0.23632 0.32774 0.06235 0.0
C879 C 0.23465 0.33215 0.03025 0.0
H880 H 0.90181 0.99356 0.24361 0.0
H881 H 0.95643 0.00746 0.21025 0.0
H882 H 0.96756 0.00874 0.2649 0.0
H883 H 0.9611 0.00839 0.32232 0.0
H884 H 0.90587 0.99652 0.35466 0.0
H885 H 0.89577 0.99165 0.30035 0.0
C886 C 0.91622 0.99667 0.24816 0.0
C887 C 0.92822 0.00056 0.2228 0.0
C888 C 0.92244 0.9977 0.27957 0.0
C889 C 0.94686 0.00448 0.22928 0.0
C890 C 0.95323 0.00527 0.26055 0.0
C891 C 0.94692 0.0045 0.31741 0.0
C892 C 0.9344 0.00227 0.34261 0.0
C893 C 0.94104 0.00231 0.2859 0.0
C894 C 0.91601 0.99746 0.33595 0.0
C895 C 0.91013 0.995 0.30476 0.0
H896 H 0.22063 0.69316 0.44017 0.0
H897 H 0.27329 0.68193 0.39626 0.0
H898 H 0.28839 0.68324 0.44782 0.0
H899 H 0.28611 0.68387 0.50555 0.0
H900 H 0.23332 0.69364 0.55004 0.0
H901 H 0.2189 0.69691 0.49802 0.0
C902 C 0.23545 0.69131 0.44179 0.0
C903 C 0.24576 0.68721 0.41439 0.0
C904 C 0.24403 0.69168 0.47166 0.0
C905 C 0.26498 0.68491 0.41697 0.0
C906 C 0.27364 0.68563 0.44647 0.0
C907 C 0.27149 0.68699 0.50397 0.0
C908 C 0.26079 0.68824 0.53172 0.0
C909 C 0.26321 0.68843 0.47404 0.0
C910 C 0.2419 0.69247 0.52911 0.0
C911 C 0.23361 0.69427 0.49934 0.0
H912 H 0.60089 0.00503 0.7534 0.0
H913 H 0.54474 0.99185 0.72754 0.0
H914 H 0.53557 0.99332 0.78325 0.0
H915 H 0.54413 0.99586 0.83972 0.0
H916 H 0.60075 0.00717 0.86476 0.0
H917 H 0.60902 0.00925 0.80902 0.0
C918 C 0.58659 0.00267 0.75981 0.0
C919 C 0.57357 0.99818 0.73627 0.0
C920 C 0.58148 0.00326 0.79183 0.0
C921 C 0.55508 0.99528 0.74513 0.0
C922 C 0.54983 0.99605 0.77701 0.0
C923 C 0.55821 0.99902 0.83289 0.0
C924 C 0.57169 0.00188 0.85642 0.0
C925 C 0.56301 0.99963 0.80063 0.0
C926 C 0.58993 0.00575 0.84728 0.0
C927 C 0.59475 0.00661 0.81532 0.0
H928 H 0.71705 0.67391 0.95586 0.0
H929 H 0.77514 0.6838 0.9413 0.0
H930 H 0.78017 0.68446 0.99851 0.0
H931 H 0.76814 0.68183 0.05268 0.0
H932 H 0.71 0.67234 0.06753 0.0
H933 H 0.70488 0.67186 0.01032 0.0
C934 C 0.73078 0.67628 0.96529 0.0
C935 C 0.74577 0.67844 0.94446 0.0
C936 C 0.73356 0.67661 0.99825 0.0
C937 C 0.76348 0.68154 0.95688 0.0
C938 C 0.76634 0.68208 0.98959 0.0
C939 C 0.75435 0.67967 0.04338 0.0
C940 C 0.73954 0.67673 0.06432 0.0
C941 C 0.75151 0.6795 0.01048 0.0
C942 C 0.72174 0.67402 0.05195 0.0
C943 C 0.71876 0.67397 0.01921 0.0
H944 H 0.07817 0.98432 0.83317 0.0
H945 H 0.07289 0.04089 0.80278 0.0
H946 H 0.07576 0.03126 0.74741 0.0
H947 H 0.07966 0.00663 0.70766 0.0
H948 H 0.08511 0.95012 0.7385 0.0
H949 H 0.08252 0.95986 0.7937 0.0
C950 C 0.0781 0.99458 0.8145 0.0
C951 C 0.07579 0.01332 0.82208 0.0
C952 C 0.07977 0.98894 0.78279 0.0
C953 C 0.07475 0.02637 0.7975 0.0
C954 C 0.07646 0.02088 0.76586 0.0
C955 C 0.08069 0.99652 0.72648 0.0
C956 C 0.08294 0.97773 0.71901 0.0
C957 C 0.07905 0.0022 0.75822 0.0
C958 C 0.08346 0.96469 0.74365 0.0
C959 C 0.08199 0.97023 0.77522 0.0
H960 H 0.77446 0.31965 0.44077 0.0
H961 H 0.72207 0.32083 0.39231 0.0
H962 H 0.70592 0.32322 0.44292 0.0
H963 H 0.70664 0.32442 0.50102 0.0
H964 H 0.75891 0.32235 0.5498 0.0
H965 H 0.77517 0.32102 0.49916 0.0
C966 C 0.75951 0.32043 0.44138 0.0
C967 C 0.74948 0.32043 0.41285 0.0
C968 C 0.75032 0.32172 0.47062 0.0
C969 C 0.73012 0.3214 0.41389 0.0
C970 C 0.72087 0.32257 0.44284 0.0
C971 C 0.7216 0.32374 0.50054 0.0
C972 C 0.73157 0.32389 0.52913 0.0
C973 C 0.73083 0.32275 0.47134 0.0
C974 C 0.75093 0.32293 0.52817 0.0
C975 C 0.76023 0.3219 0.49919 0.0
H976 H 0.42149 0.01951 0.34286 0.0
H977 H 0.42871 0.96344 0.31092 0.0
H978 H 0.42652 0.9736 0.25576 0.0
H979 H 0.42268 0.99854 0.21665 0.0
H980 H 0.41527 0.05455 0.24897 0.0
H981 H 0.41719 0.0443 0.30397 0.0
C982 C 0.42214 0.00946 0.32388 0.0
C983 C 0.4248 0.9907 0.33097 0.0
C984 C 0.42085 0.01541 0.29229 0.0
C985 C 0.42657 0.97796 0.30603 0.0
C986 C 0.42526 0.98375 0.27451 0.0
C987 C 0.42106 0.00842 0.23573 0.0
C988 C 0.41847 0.02722 0.22874 0.0
C989 C 0.42231 0.00244 0.26735 0.0
C990 C 0.4172 0.03998 0.25375 0.0
C991 C 0.41829 0.03414 0.2852 0.0
H992 H 0.72029 0.8152 0.52584 0.0
H993 H 0.77358 0.81404 0.57152 0.0
H994 H 0.78881 0.81329 0.51991 0.0
H995 H 0.78707 0.81639 0.4622 0.0
H996 H 0.73386 0.81999 0.41659 0.0
H997 H 0.71852 0.8162 0.46774 0.0
C998 C 0.73523 0.81441 0.5245 0.0
C999 C 0.7458 0.81474 0.55246 0.0
C1000 C 0.74391 0.81462 0.49474 0.0
C1001 C 0.76514 0.8139 0.55033 0.0
C1002 C 0.77386 0.81351 0.52083 0.0
C1003 C 0.77211 0.81605 0.46335 0.0
C1004 C 0.76163 0.81858 0.43563 0.0
C1005 C 0.7634 0.8144 0.49291 0.0
C1006 C 0.74226 0.81819 0.4376 0.0
C1007 C 0.73348 0.81604 0.46685 0.0
H1008 H 0.45122 0.52148 0.81856 0.0
H1009 H 0.4174 0.47414 0.84012 0.0
H1010 H 0.4109 0.46974 0.78383 0.0
H1011 H 0.41296 0.4809 0.72895 0.0
H1012 H 0.44778 0.52766 0.7074 0.0
H1013 H 0.45623 0.53035 0.76312 0.0
C1014 C 0.44259 0.51007 0.81091 0.0
C1015 C 0.43405 0.49868 0.83356 0.0
C1016 C 0.43919 0.50746 0.77849 0.0
C1017 C 0.42321 0.48376 0.82328 0.0
C1018 C 0.41974 0.48106 0.79105 0.0
C1019 C 0.42259 0.49154 0.73635 0.0
C1020 C 0.42952 0.50421 0.71403 0.0
C1021 C 0.42727 0.49314 0.76851 0.0
C1022 C 0.44215 0.51776 0.72403 0.0
C1023 C 0.44694 0.51938 0.75595 0.0
H1024 H 0.74366 0.1493 0.99569 0.0
H1025 H 0.76145 0.20307 0.0277 0.0
H1026 H 0.76359 0.21359 0.97279 0.0
H1027 H 0.76268 0.2067 0.91556 0.0
H1028 H 0.7467 0.15226 0.88443 0.0
H1029 H 0.7413 0.14293 0.93906 0.0
C1030 C 0.74781 0.1634 0.99078 0.0
C1031 C 0.75252 0.17532 0.01585 0.0
C1032 C 0.7493 0.16925 0.95922 0.0
C1033 C 0.7578 0.19357 0.0089 0.0
C1034 C 0.75909 0.19958 0.97749 0.0
C1035 C 0.7578 0.19287 0.9208 0.0
C1036 C 0.75458 0.18036 0.8959 0.0
C1037 C 0.75524 0.18741 0.95245 0.0
C1038 C 0.74847 0.16242 0.90296 0.0
C1039 C 0.74568 0.15696 0.9343 0.0
H1040 H 0.06347 0.47051 0.28126 0.0
H1041 H 0.09168 0.52295 0.28068 0.0
H1042 H 0.0924 0.52262 0.22294 0.0
H1043 H 0.08655 0.50649 0.17262 0.0
H1044 H 0.05679 0.45482 0.17332 0.0
H1045 H 0.05462 0.45611 0.23091 0.0
C1046 C 0.06966 0.48195 0.26852 0.0
C1047 C 0.07835 0.49629 0.28536 0.0
C1048 C 0.0696 0.48188 0.23527 0.0
C1049 C 0.08594 0.51118 0.26845 0.0
C1050 C 0.08605 0.51116 0.23534 0.0
C1051 C 0.07941 0.49561 0.18532 0.0
C1052 C 0.07204 0.48048 0.16863 0.0
C1053 C 0.07827 0.49638 0.21852 0.0
C1054 C 0.06265 0.46661 0.1855 0.0
C1055 C 0.06147 0.46728 0.21849 0.0
H1056 H 0.2773 0.17267 0.54914 0.0
H1057 H 0.2241 0.16944 0.59466 0.0
H1058 H 0.209 0.16682 0.54308 0.0
H1059 H 0.2109 0.16607 0.48484 0.0
H1060 H 0.26409 0.16964 0.43937 0.0
H1061 H 0.27923 0.17149 0.491 0.0
C1062 C 0.2624 0.17137 0.54772 0.0
C1063 C 0.25185 0.17094 0.57567 0.0
C1064 C 0.25383 0.16992 0.51797 0.0
C1065 C 0.23257 0.16926 0.57355 0.0
C1066 C 0.22392 0.16796 0.54403 0.0
C1067 C 0.22582 0.1672 0.48631 0.0
C1068 C 0.2364 0.16738 0.45839 0.0
C1069 C 0.23441 0.16831 0.51609 0.0
C1070 C 0.25569 0.1689 0.46054 0.0
C1071 C 0.26434 0.17017 0.49005 0.0
H1072 H 0.57149 0.52512 0.29721 0.0
H1073 H 0.57472 0.47423 0.34991 0.0
H1074 H 0.57624 0.45666 0.3006 0.0
H1075 H 0.57617 0.45571 0.24249 0.0
H1076 H 0.57205 0.50644 0.18952 0.0
H1077 H 0.57151 0.52414 0.23878 0.0
C1078 C 0.57255 0.51019 0.29781 0.0
C1079 C 0.57338 0.501 0.32711 0.0
C1080 C 0.57333 0.50017 0.26931 0.0
C1081 C 0.57467 0.48165 0.32766 0.0
C1082 C 0.57534 0.47159 0.29946 0.0
C1083 C 0.57521 0.47065 0.24175 0.0
C1084 C 0.57456 0.47977 0.21237 0.0
C1085 C 0.57469 0.4807 0.27017 0.0
C1086 C 0.57324 0.49912 0.21175 0.0
C1087 C 0.57267 0.50924 0.23996 0.0
H1088 H 0.28515 0.82813 0.9505 0.0
H1089 H 0.22875 0.82635 0.91798 0.0
H1090 H 0.21772 0.82891 0.97252 0.0
H1091 H 0.22413 0.83158 0.02953 0.0
H1092 H 0.28051 0.83344 0.06218 0.0
H1093 H 0.29156 0.83099 0.00764 0.0
C1094 C 0.27046 0.82827 0.95544 0.0
C1095 C 0.25777 0.82734 0.93028 0.0
C1096 C 0.26423 0.82982 0.98686 0.0
C1097 C 0.23877 0.82754 0.9369 0.0
C1098 C 0.23246 0.82884 0.9681 0.0
C1099 C 0.23883 0.83145 0.02467 0.0
C1100 C 0.25149 0.83298 0.0498 0.0
C1101 C 0.24507 0.83004 0.99325 0.0
C1102 C 0.27049 0.83281 0.0432 0.0
C1103 C 0.27682 0.8312 0.01203 0.0
H1104 H 0.92504 0.53119 0.78022 0.0
H1105 H 0.91461 0.47336 0.79733 0.0
H1106 H 0.91321 0.46774 0.74022 0.0
H1107 H 0.91403 0.47957 0.68534 0.0
H1108 H 0.9239 0.53759 0.66928 0.0
H1109 H 0.92665 0.54273 0.72608 0.0
C1110 C 0.92257 0.51731 0.77157 0.0
C1111 C 0.91985 0.50275 0.79312 0.0
C1112 C 0.92159 0.51422 0.73882 0.0
C1113 C 0.91675 0.48485 0.78132 0.0
C1114 C 0.91587 0.48163 0.74864 0.0
C1115 C 0.91646 0.49337 0.69428 0.0
C1116 C 0.91836 0.50823 0.67305 0.0
C1117 C 0.91801 0.49627 0.72716 0.0
C1118 C 0.92229 0.52591 0.68506 0.0
C1119 C 0.92385 0.52889 0.71757 0.0
loop_
_geom_bond_atom_site_label_1
_geom_bond_atom_site_label_2
_geom_bond_distance
_geom_bond_site_symmetry_2
_ccdc_geom_bond_type
O0 Cd1 2.300 . S
O0 C7 1.275 . S
Cd1 O0 2.300 . S
Cd1 O9 2.381 . S
Cd1 O10 2.378 . S
O2 Cd3 2.385 . S
O2 C7 1.255 . S
Cd3 O2 2.385 . S
Cd3 O4 2.317 . S
O4 Cd3 2.317 . S
O4 C5 1.232 . S
C5 O4 1.232 . S
C5 O6 1.218 . S
O6 C5 1.218 . S
C7 O0 1.275 . S
C7 O2 1.255 . S
C8 O9 1.258 . S
C8 O10 1.256 . S
O9 Cd1 2.381 . S
O9 C8 1.258 . S
O10 Cd1 2.378 . S
O10 C8 1.256 . S
O11 Cd12 2.300 . S
O11 C18 1.275 . S
Cd12 O11 2.300 . S
Cd12 O20 2.381 . S
Cd12 O21 2.378 . S
O13 Cd14 2.385 . S
O13 C18 1.255 . S
Cd14 O13 2.385 . S
Cd14 O15 2.317 . S
O15 Cd14 2.317 . S
O15 C16 1.232 . S
C16 O15 1.232 . S
C16 O17 1.218 . S
O17 C16 1.218 . S
C18 O11 1.275 . S
C18 O13 1.255 . S
C19 O20 1.258 . S
C19 O21 1.256 . S
O20 Cd12 2.381 . S
O20 C19 1.258 . S
O21 Cd12 2.378 . S
O21 C19 1.256 . S
O22 Cd23 2.300 . S
O22 C29 1.275 . S
Cd23 O22 2.300 . S
Cd23 O31 2.381 . S
Cd23 O32 2.378 . S
O24 Cd25 2.385 . S
O24 C29 1.255 . S
Cd25 O24 2.385 . S
Cd25 O26 2.317 . S
O26 Cd25 2.317 . S
O26 C27 1.232 . S
C27 O26 1.232 . S
C27 O28 1.218 . S
O28 C27 1.218 . S
C29 O22 1.275 . S
C29 O24 1.255 . S
C30 O31 1.258 . S
C30 O32 1.256 . S
O31 Cd23 2.381 . S
O31 C30 1.258 . S
O32 Cd23 2.378 . S
O32 C30 1.256 . S
O33 Cd34 2.300 . S
O33 C40 1.275 . S
Cd34 O33 2.300 . S
Cd34 O42 2.381 . S
Cd34 O43 2.378 . S
O35 Cd36 2.385 . S
O35 C40 1.255 . S
Cd36 O35 2.385 . S
Cd36 O37 2.317 . S
O37 Cd36 2.317 . S
O37 C38 1.232 . S
C38 O37 1.232 . S
C38 O39 1.218 . S
O39 C38 1.218 . S
C40 O33 1.275 . S
C40 O35 1.255 . S
C41 O42 1.258 . S
C41 O43 1.256 . S
O42 Cd34 2.381 . S
O42 C41 1.258 . S
O43 Cd34 2.378 . S
O43 C41 1.256 . S
O44 Cd45 2.300 . S
O44 C51 1.275 . S
Cd45 O44 2.300 . S
Cd45 O53 2.381 . S
Cd45 O54 2.378 . S
O46 Cd47 2.385 . S
O46 C51 1.255 . S
Cd47 O46 2.385 . S
Cd47 O48 2.317 . S
O48 Cd47 2.317 . S
O48 C49 1.232 . S
C49 O48 1.232 . S
C49 O50 1.218 . S
O50 C49 1.218 . S
C51 O44 1.275 . S
C51 O46 1.255 . S
C52 O53 1.258 . S
C52 O54 1.256 . S
O53 Cd45 2.381 . S
O53 C52 1.258 . S
O54 Cd45 2.378 . S
O54 C52 1.256 . S
O55 Cd56 2.300 . S
O55 C62 1.275 . S
Cd56 O55 2.300 . S
Cd56 O64 2.381 . S
Cd56 O65 2.378 . S
O57 Cd58 2.385 . S
O57 C62 1.255 . S
Cd58 O57 2.385 . S
Cd58 O59 2.317 . S
O59 Cd58 2.317 . S
O59 C60 1.232 . S
C60 O59 1.232 . S
C60 O61 1.218 . S
O61 C60 1.218 . S
C62 O55 1.275 . S
C62 O57 1.255 . S
C63 O64 1.258 . S
C63 O65 1.256 . S
O64 Cd56 2.381 . S
O64 C63 1.258 . S
O65 Cd56 2.378 . S
O65 C63 1.256 . S
O66 Cd67 2.300 . S
O66 C73 1.275 . S
Cd67 O66 2.300 . S
Cd67 O75 2.381 . S
Cd67 O76 2.378 . S
O68 Cd69 2.385 . S
O68 C73 1.255 . S
Cd69 O68 2.385 . S
Cd69 O70 2.317 . S
O70 Cd69 2.317 . S
O70 C71 1.232 . S
C71 O70 1.232 . S
C71 O72 1.218 . S
O72 C71 1.218 . S
C73 O66 1.275 . S
C73 O68 1.255 . S
C74 O75 1.258 . S
C74 O76 1.256 . S
O75 Cd67 2.381 . S
O75 C74 1.258 . S
O76 Cd67 2.378 . S
O76 C74 1.256 . S
O77 Cd78 2.300 . S
O77 C84 1.275 . S
Cd78 O77 2.300 . S
Cd78 O86 2.381 . S
Cd78 O87 2.378 . S
O79 Cd80 2.385 . S
O79 C84 1.255 . S
Cd80 O79 2.385 . S
Cd80 O81 2.317 . S
O81 Cd80 2.317 . S
O81 C82 1.232 . S
C82 O81 1.232 . S
C82 O83 1.218 . S
O83 C82 1.218 . S
C84 O77 1.275 . S
C84 O79 1.255 . S
C85 O86 1.258 . S
C85 O87 1.256 . S
O86 Cd78 2.381 . S
O86 C85 1.258 . S
O87 Cd78 2.378 . S
O87 C85 1.256 . S
O88 Cd89 2.300 . S
O88 C95 1.275 . S
Cd89 O88 2.300 . S
Cd89 O97 2.381 . S
Cd89 O98 2.378 . S
O90 Cd91 2.385 . S
O90 C95 1.255 . S
Cd91 O90 2.385 . S
Cd91 O92 2.317 . S
O92 Cd91 2.317 . S
O92 C93 1.232 . S
C93 O92 1.232 . S
C93 O94 1.218 . S
O94 C93 1.218 . S
C95 O88 1.275 . S
C95 O90 1.255 . S
C96 O97 1.258 . S
C96 O98 1.256 . S
O97 Cd89 2.381 . S
O97 C96 1.258 . S
O98 Cd89 2.378 . S
O98 C96 1.256 . S
O99 Cd100 2.300 . S
O99 C106 1.275 . S
Cd100 O99 2.300 . S
Cd100 O108 2.340 1_545 S
Cd100 O109 2.378 . S
O101 Cd102 2.385 . S
O101 C106 1.255 . S
Cd102 O101 2.385 . S
Cd102 O103 2.317 . S
O103 Cd102 2.317 . S
O103 C104 1.232 . S
C104 O103 1.232 . S
C104 O105 1.218 . S
O105 C104 1.218 . S
C106 O99 1.275 . S
C106 O101 1.255 . S
C107 O108 1.225 1_545 S
C107 O109 1.256 . S
O108 Cd100 2.340 1_565 S
O108 C107 1.225 1_565 S
O109 Cd100 2.378 . S
O109 C107 1.256 . S
O110 Cd111 2.300 . S
O110 C117 1.275 . S
Cd111 O110 2.300 . S
Cd111 O119 2.381 . S
Cd111 O120 2.378 . S
O112 Cd113 2.385 . S
O112 C117 1.255 . S
Cd113 O112 2.385 . S
Cd113 O114 2.317 . S
O114 Cd113 2.317 . S
O114 C115 1.232 . S
C115 O114 1.232 . S
C115 O116 1.218 . S
O116 C115 1.218 . S
C117 O110 1.275 . S
C117 O112 1.255 . S
C118 O119 1.258 . S
C118 O120 1.256 . S
O119 Cd111 2.381 . S
O119 C118 1.258 . S
O120 Cd111 2.378 . S
O120 C118 1.256 . S
O121 Cd122 2.300 . S
O121 C128 1.275 . S
Cd122 O121 2.300 . S
Cd122 O130 2.341 1_565 S
Cd122 O131 2.378 . S
O123 Cd124 2.385 . S
O123 C128 1.255 . S
Cd124 O123 2.385 . S
Cd124 O125 2.317 . S
O125 Cd124 2.317 . S
O125 C126 1.232 . S
C126 O125 1.232 . S
C126 O127 1.218 . S
O127 C126 1.218 . S
C128 O121 1.275 . S
C128 O123 1.255 . S
C129 O130 1.225 1_565 S
C129 O131 1.256 . S
O130 Cd122 2.341 1_545 S
O130 C129 1.225 1_545 S
O131 Cd122 2.378 . S
O131 C129 1.256 . S
O132 Cd133 2.300 . S
O132 C139 1.275 . S
Cd133 O132 2.300 . S
Cd133 O141 2.381 . S
Cd133 O142 2.378 . S
O134 Cd135 2.385 . S
O134 C139 1.255 . S
Cd135 O134 2.385 . S
Cd135 O136 2.317 . S
O136 Cd135 2.317 . S
O136 C137 1.232 . S
C137 O136 1.232 . S
C137 O138 1.218 . S
O138 C137 1.218 . S
C139 O132 1.275 . S
C139 O134 1.255 . S
C140 O141 1.258 . S
C140 O142 1.256 . S
O141 Cd133 2.381 . S
O141 C140 1.258 . S
O142 Cd133 2.378 . S
O142 C140 1.256 . S
O143 Cd144 2.300 . S
O143 C150 1.275 . S
Cd144 O143 2.300 . S
Cd144 O152 2.341 1_545 S
Cd144 O153 2.378 . S
O145 Cd146 2.385 . S
O145 C150 1.255 . S
Cd146 O145 2.385 . S
Cd146 O147 2.317 . S
O147 Cd146 2.317 . S
O147 C148 1.232 . S
C148 O147 1.232 . S
C148 O149 1.218 . S
O149 C148 1.218 . S
C150 O143 1.275 . S
C150 O145 1.255 . S
C151 O152 1.226 1_545 S
C151 O153 1.256 . S
O152 Cd144 2.341 1_565 S
O152 C151 1.226 1_565 S
O153 Cd144 2.378 . S
O153 C151 1.256 . S
O154 Cd155 2.300 . S
O154 C161 1.275 . S
Cd155 O154 2.300 . S
Cd155 O163 2.381 . S
Cd155 O164 2.378 . S
O156 Cd157 2.385 . S
O156 C161 1.255 . S
Cd157 O156 2.385 . S
Cd157 O158 2.317 . S
O158 Cd157 2.317 . S
O158 C159 1.232 . S
C159 O158 1.232 . S
C159 O160 1.218 . S
O160 C159 1.218 . S
C161 O154 1.275 . S
C161 O156 1.255 . S
C162 O163 1.258 . S
C162 O164 1.256 . S
O163 Cd155 2.381 . S
O163 C162 1.258 . S
O164 Cd155 2.378 . S
O164 C162 1.256 . S
O165 Cd166 2.300 . S
O165 C172 1.275 . S
Cd166 O165 2.300 . S
Cd166 O174 2.341 1_565 S
Cd166 O175 2.378 . S
O167 Cd168 2.385 . S
O167 C172 1.255 . S
Cd168 O167 2.385 . S
Cd168 O169 2.317 . S
O169 Cd168 2.317 . S
O169 C170 1.232 . S
C170 O169 1.232 . S
C170 O171 1.218 . S
O171 C170 1.218 . S
C172 O165 1.275 . S
C172 O167 1.255 . S
C173 O174 1.226 1_565 S
C173 O175 1.256 . S
O174 Cd166 2.341 1_545 S
O174 C173 1.226 1_545 S
O175 Cd166 2.378 . S
O175 C173 1.256 . S
O176 Cd177 2.300 . S
O176 C183 1.275 . S
Cd177 O176 2.300 . S
Cd177 O185 2.381 . S
Cd177 O186 2.378 . S
O178 Cd179 2.385 . S
O178 C183 1.255 . S
Cd179 O178 2.385 . S
Cd179 O180 2.317 . S
O180 Cd179 2.317 . S
O180 C181 1.232 . S
C181 O180 1.232 . S
C181 O182 1.218 . S
O182 C181 1.218 . S
C183 O176 1.275 . S
C183 O178 1.255 . S
C184 O185 1.258 . S
C184 O186 1.256 . S
O185 Cd177 2.381 . S
O185 C184 1.258 . S
O186 Cd177 2.378 . S
O186 C184 1.256 . S
O187 Cd188 2.300 . S
O187 C194 1.275 . S
Cd188 O187 2.300 . S
Cd188 O196 2.381 . S
Cd188 O197 2.378 . S
O189 Cd190 2.385 . S
O189 C194 1.255 . S
Cd190 O189 2.385 . S
Cd190 O191 2.317 . S
O191 Cd190 2.317 . S
O191 C192 1.232 . S
C192 O191 1.232 . S
C192 O193 1.218 . S
O193 C192 1.218 . S
C194 O187 1.275 . S
C194 O189 1.255 . S
C195 O196 1.258 . S
C195 O197 1.256 . S
O196 Cd188 2.381 . S
O196 C195 1.258 . S
O197 Cd188 2.378 . S
O197 C195 1.256 . S
O198 Cd199 2.300 . S
O198 C205 1.275 . S
Cd199 O198 2.300 . S
Cd199 O207 2.381 . S
Cd199 O208 2.378 . S
O200 Cd201 2.385 . S
O200 C205 1.255 . S
Cd201 O200 2.385 . S
Cd201 O202 2.317 . S
O202 Cd201 2.317 . S
O202 C203 1.232 . S
C203 O202 1.232 . S
C203 O204 1.218 . S
O204 C203 1.218 . S
C205 O198 1.275 . S
C205 O200 1.255 . S
C206 O207 1.258 . S
C206 O208 1.256 . S
O207 Cd199 2.381 . S
O207 C206 1.258 . S
O208 Cd199 2.378 . S
O208 C206 1.256 . S
O209 Cd210 2.300 . S
O209 C216 1.275 . S
Cd210 O209 2.300 . S
Cd210 O218 2.381 . S
Cd210 O219 2.378 . S
O211 Cd212 2.385 . S
O211 C216 1.255 . S
Cd212 O211 2.385 . S
Cd212 O213 2.317 . S
O213 Cd212 2.317 . S
O213 C214 1.232 . S
C214 O213 1.232 . S
C214 O215 1.218 . S
O215 C214 1.218 . S
C216 O209 1.275 . S
C216 O211 1.255 . S
C217 O218 1.258 . S
C217 O219 1.256 . S
O218 Cd210 2.381 . S
O218 C217 1.258 . S
O219 Cd210 2.378 . S
O219 C217 1.256 . S
O220 Cd221 2.300 . S
O220 C227 1.275 . S
Cd221 O220 2.300 . S
Cd221 O229 2.381 . S
Cd221 O230 2.378 . S
O222 Cd223 2.385 . S
O222 C227 1.255 . S
Cd223 O222 2.385 . S
Cd223 O224 2.317 . S
O224 Cd223 2.317 . S
O224 C225 1.232 . S
C225 O224 1.232 . S
C225 O226 1.218 . S
O226 C225 1.218 . S
C227 O220 1.275 . S
C227 O222 1.255 . S
C228 O229 1.258 . S
C228 O230 1.256 . S
O229 Cd221 2.381 . S
O229 C228 1.258 . S
O230 Cd221 2.378 . S
O230 C228 1.256 . S
O231 Cd232 2.300 . S
O231 C238 1.275 . S
Cd232 O231 2.300 . S
Cd232 O240 2.381 . S
Cd232 O241 2.378 . S
O233 Cd234 2.385 . S
O233 C238 1.255 . S
Cd234 O233 2.385 . S
Cd234 O235 2.317 . S
O235 Cd234 2.317 . S
O235 C236 1.232 . S
C236 O235 1.232 . S
C236 O237 1.218 . S
O237 C236 1.218 . S
C238 O231 1.275 . S
C238 O233 1.255 . S
C239 O240 1.258 . S
C239 O241 1.256 . S
O240 Cd232 2.381 . S
O240 C239 1.258 . S
O241 Cd232 2.378 . S
O241 C239 1.256 . S
O242 Cd243 2.300 . S
O242 C249 1.275 . S
Cd243 O242 2.300 . S
Cd243 O251 2.381 . S
Cd243 O252 2.378 . S
O244 Cd245 2.385 . S
O244 C249 1.255 . S
Cd245 O244 2.385 . S
Cd245 O246 2.317 . S
O246 Cd245 2.317 . S
O246 C247 1.232 . S
C247 O246 1.232 . S
C247 O248 1.218 . S
O248 C247 1.218 . S
C249 O242 1.275 . S
C249 O244 1.255 . S
C250 O251 1.258 . S
C250 O252 1.256 . S
O251 Cd243 2.381 . S
O251 C250 1.258 . S
O252 Cd243 2.378 . S
O252 C250 1.256 . S
O253 Cd254 2.300 . S
O253 C260 1.275 . S
Cd254 O253 2.300 . S
Cd254 O262 2.381 . S
Cd254 O263 2.378 . S
O255 Cd256 2.385 . S
O255 C260 1.255 . S
Cd256 O255 2.385 . S
Cd256 O257 2.317 . S
O257 Cd256 2.317 . S
O257 C258 1.232 . S
C258 O257 1.232 . S
C258 O259 1.218 . S
O259 C258 1.218 . S
C260 O253 1.275 . S
C260 O255 1.255 . S
C261 O262 1.258 . S
C261 O263 1.256 . S
O262 Cd254 2.381 . S
O262 C261 1.258 . S
O263 Cd254 2.378 . S
O263 C261 1.256 . S
O264 Cd265 2.300 . S
O264 C271 1.275 . S
Cd265 O264 2.300 . S
Cd265 O273 2.381 . S
Cd265 O274 2.378 . S
O266 Cd267 2.385 . S
O266 C271 1.255 . S
Cd267 O266 2.385 . S
Cd267 O268 2.317 . S
O268 Cd267 2.317 . S
O268 C269 1.232 . S
C269 O268 1.232 . S
C269 O270 1.218 . S
O270 C269 1.218 . S
C271 O264 1.275 . S
C271 O266 1.255 . S
C272 O273 1.258 . S
C272 O274 1.256 . S
O273 Cd265 2.381 . S
O273 C272 1.258 . S
O274 Cd265 2.378 . S
O274 C272 1.256 . S
O275 Cd276 2.300 . S
O275 C282 1.275 . S
Cd276 O275 2.300 . S
Cd276 O284 2.381 . S
Cd276 O285 2.378 . S
O277 Cd278 2.385 . S
O277 C282 1.255 . S
Cd278 O277 2.385 . S
Cd278 O279 2.317 . S
O279 Cd278 2.317 . S
O279 C280 1.232 . S
C280 O279 1.232 . S
C280 O281 1.218 . S
O281 C280 1.218 . S
C282 O275 1.275 . S
C282 O277 1.255 . S
C283 O284 1.258 . S
C283 O285 1.256 . S
O284 Cd276 2.381 . S
O284 C283 1.258 . S
O285 Cd276 2.378 . S
O285 C283 1.256 . S
O286 Cd287 2.300 . S
O286 C293 1.275 . S
Cd287 O286 2.300 . S
Cd287 O295 2.381 . S
Cd287 O296 2.378 . S
O288 Cd289 2.385 . S
O288 C293 1.255 . S
Cd289 O288 2.385 . S
Cd289 O290 2.317 . S
O290 Cd289 2.317 . S
O290 C291 1.232 . S
C291 O290 1.232 . S
C291 O292 1.218 . S
O292 C291 1.218 . S
C293 O286 1.275 . S
C293 O288 1.255 . S
C294 O295 1.258 . S
C294 O296 1.256 . S
O295 Cd287 2.381 . S
O295 C294 1.258 . S
O296 Cd287 2.378 . S
O296 C294 1.256 . S
O297 Cd298 2.300 . S
O297 C304 1.275 . S
Cd298 O297 2.300 . S
Cd298 O306 2.381 . S
Cd298 O307 2.378 . S
O299 Cd300 2.385 . S
O299 C304 1.255 . S
Cd300 O299 2.385 . S
Cd300 O301 2.317 . S
O301 Cd300 2.317 . S
O301 C302 1.232 . S
C302 O301 1.232 . S
C302 O303 1.218 . S
O303 C302 1.218 . S
C304 O297 1.275 . S
C304 O299 1.255 . S
C305 O306 1.258 . S
C305 O307 1.256 . S
O306 Cd298 2.381 . S
O306 C305 1.258 . S
O307 Cd298 2.378 . S
O307 C305 1.256 . S
O308 Cd309 2.300 . S
O308 C315 1.275 . S
Cd309 O308 2.300 . S
Cd309 O317 2.381 . S
Cd309 O318 2.378 . S
O310 Cd311 2.385 . S
O310 C315 1.255 . S
Cd311 O310 2.385 . S
Cd311 O312 2.317 . S
O312 Cd311 2.317 . S
O312 C313 1.232 . S
C313 O312 1.232 . S
C313 O314 1.218 . S
O314 C313 1.218 . S
C315 O308 1.275 . S
C315 O310 1.255 . S
C316 O317 1.258 . S
C316 O318 1.256 . S
O317 Cd309 2.381 . S
O317 C316 1.258 . S
O318 Cd309 2.378 . S
O318 C316 1.256 . S
O319 Cd320 2.300 . S
O319 C326 1.275 . S
Cd320 O319 2.300 . S
Cd320 O328 2.381 . S
Cd320 O329 2.378 . S
O321 Cd322 2.385 . S
O321 C326 1.255 . S
Cd322 O321 2.385 . S
Cd322 O323 2.317 . S
O323 Cd322 2.317 . S
O323 C324 1.232 . S
C324 O323 1.232 . S
C324 O325 1.218 . S
O325 C324 1.218 . S
C326 O319 1.275 . S
C326 O321 1.255 . S
C327 O328 1.258 . S
C327 O329 1.256 . S
O328 Cd320 2.381 . S
O328 C327 1.258 . S
O329 Cd320 2.378 . S
O329 C327 1.256 . S
O330 Cd331 2.300 . S
O330 C337 1.275 . S
Cd331 O330 2.300 . S
Cd331 O339 2.381 . S
Cd331 O340 2.378 . S
O332 Cd333 2.385 . S
O332 C337 1.255 . S
Cd333 O332 2.385 . S
Cd333 O334 2.317 . S
O334 Cd333 2.317 . S
O334 C335 1.232 . S
C335 O334 1.232 . S
C335 O336 1.218 . S
O336 C335 1.218 . S
C337 O330 1.275 . S
C337 O332 1.255 . S
C338 O339 1.258 . S
C338 O340 1.256 . S
O339 Cd331 2.381 . S
O339 C338 1.258 . S
O340 Cd331 2.378 . S
O340 C338 1.256 . S
O341 Cd342 2.300 . S
O341 C348 1.275 . S
Cd342 O341 2.300 . S
Cd342 O350 2.381 . S
Cd342 O351 2.378 . S
O343 Cd344 2.385 . S
O343 C348 1.255 . S
Cd344 O343 2.385 . S
Cd344 O345 2.317 . S
O345 Cd344 2.317 . S
O345 C346 1.232 . S
C346 O345 1.232 . S
C346 O347 1.218 . S
O347 C346 1.218 . S
C348 O341 1.275 . S
C348 O343 1.255 . S
C349 O350 1.258 . S
C349 O351 1.256 . S
O350 Cd342 2.381 . S
O350 C349 1.258 . S
O351 Cd342 2.378 . S
O351 C349 1.256 . S
H352 C358 0.930 . S
H353 C361 0.930 . S
H354 C362 0.930 . S
H355 C363 0.930 . S
H356 C366 0.930 . S
H357 C367 0.930 . S
C358 H352 0.930 . S
C358 C359 1.355 . S
C358 C360 1.415 . S
C359 C358 1.355 . S
C359 C361 1.419 . S
C360 C358 1.415 . S
C360 C365 1.425 . S
C360 C367 1.409 . S
C361 H353 0.930 . S
C361 C359 1.419 . S
C361 C362 1.362 . S
C362 H354 0.930 . S
C362 C361 1.362 . S
C362 C365 1.409 . S
C363 H355 0.930 . S
C363 C364 1.355 . S
C363 C365 1.415 . S
C364 C363 1.355 . S
C364 C366 1.419 . S
C365 C360 1.425 . S
C365 C362 1.409 . S
C365 C363 1.415 . S
C366 H356 0.930 . S
C366 C364 1.419 . S
C366 C367 1.362 . S
C367 H357 0.930 . S
C367 C360 1.409 . S
C367 C366 1.362 . S
H368 C374 0.930 . S
H369 C377 0.930 . S
H370 C378 0.930 . S
H371 C379 0.930 . S
H372 C382 0.930 . S
H373 C383 0.930 . S
C374 H368 0.930 . S
C374 C375 1.355 . S
C374 C376 1.415 1_655 S
C375 C374 1.355 . S
C375 C377 1.419 1_565 S
C376 C374 1.415 1_455 S
C376 C381 1.425 1_465 S
C376 C383 1.409 . S
C377 H369 0.930 . S
C377 C375 1.419 1_545 S
C377 C378 1.362 . S
C378 H370 0.930 . S
C378 C377 1.362 . S
C378 C381 1.409 . S
C379 H371 0.930 . S
C379 C380 1.355 . S
C379 C381 1.415 1_455 S
C380 C379 1.355 . S
C380 C382 1.419 1_545 S
C381 C376 1.425 1_645 S
C381 C378 1.409 . S
C381 C379 1.415 1_655 S
C382 H372 0.930 . S
C382 C380 1.419 1_565 S
C382 C383 1.362 . S
C383 H373 0.930 . S
C383 C376 1.409 . S
C383 C382 1.362 . S
H384 C390 0.930 . S
H385 C393 0.930 . S
H386 C394 0.930 . S
H387 C395 0.930 . S
H388 C398 0.930 . S
H389 C399 0.930 . S
C390 H384 0.930 . S
C390 C391 1.355 . S
C390 C392 1.415 . S
C391 C390 1.355 . S
C391 C393 1.419 . S
C392 C390 1.415 . S
C392 C397 1.425 . S
C392 C399 1.409 . S
C393 H385 0.930 . S
C393 C391 1.419 . S
C393 C394 1.362 . S
C394 H386 0.930 . S
C394 C393 1.362 . S
C394 C397 1.409 . S
C395 H387 0.930 . S
C395 C396 1.355 . S
C395 C397 1.415 . S
C396 C395 1.355 . S
C396 C398 1.419 . S
C397 C392 1.425 . S
C397 C394 1.409 . S
C397 C395 1.415 . S
C398 H388 0.930 . S
C398 C396 1.419 . S
C398 C399 1.362 . S
C399 H389 0.930 . S
C399 C392 1.409 . S
C399 C398 1.362 . S
H400 C406 0.930 . S
H401 C409 0.939 . S
H402 C410 0.930 . S
H403 C411 0.930 . S
H404 C414 0.939 . S
H405 C415 0.930 . S
C406 H400 0.930 . S
C406 C407 1.355 . S
C406 C408 1.415 . S
C407 C406 1.355 . S
C407 C409 1.387 1_546 S
C408 C406 1.415 . S
C408 C413 1.425 1_546 S
C408 C415 1.409 . S
C409 H401 0.939 . S
C409 C407 1.387 1_564 S
C409 C410 1.386 . S
C410 H402 0.930 . S
C410 C409 1.386 . S
C410 C413 1.409 . S
C411 H403 0.930 . S
C411 C412 1.355 . S
C411 C413 1.415 . S
C412 C411 1.355 . S
C412 C414 1.387 1_564 S
C413 C408 1.425 1_564 S
C413 C410 1.409 . S
C413 C411 1.415 . S
C414 H404 0.939 . S
C414 C412 1.387 1_546 S
C414 C415 1.386 . S
C415 H405 0.930 . S
C415 C408 1.409 . S
C415 C414 1.386 . S
H416 C422 0.930 . S
H417 C425 0.930 . S
H418 C426 0.930 . S
H419 C427 0.930 . S
H420 C430 0.930 . S
H421 C431 0.930 . S
C422 H416 0.930 . S
C422 C423 1.355 . S
C422 C424 1.415 . S
C423 C422 1.355 . S
C423 C425 1.419 . S
C424 C422 1.415 . S
C424 C429 1.425 . S
C424 C431 1.409 . S
C425 H417 0.930 . S
C425 C423 1.419 . S
C425 C426 1.362 . S
C426 H418 0.930 . S
C426 C425 1.362 . S
C426 C429 1.409 . S
C427 H419 0.930 . S
C427 C428 1.355 . S
C427 C429 1.415 . S
C428 C427 1.355 . S
C428 C430 1.419 . S
C429 C424 1.425 . S
C429 C426 1.409 . S
C429 C427 1.415 . S
C430 H420 0.930 . S
C430 C428 1.419 . S
C430 C431 1.362 . S
C431 H421 0.930 . S
C431 C424 1.409 . S
C431 C430 1.362 . S
H432 C438 0.930 . S
H433 C441 0.930 . S
H434 C442 0.930 . S
H435 C443 0.930 . S
H436 C446 0.930 . S
H437 C447 0.930 . S
C438 H432 0.930 . S
C438 C439 1.355 1_545 S
C438 C440 1.415 . S
C439 C438 1.355 1_565 S
C439 C441 1.419 . S
C440 C438 1.415 . S
C440 C445 1.425 1_545 S
C440 C447 1.409 . S
C441 H433 0.930 . S
C441 C439 1.419 . S
C441 C442 1.362 . S
C442 H434 0.930 . S
C442 C441 1.362 . S
C442 C445 1.409 . S
C443 H435 0.930 . S
C443 C444 1.355 1_565 S
C443 C445 1.415 . S
C444 C443 1.355 1_545 S
C444 C446 1.419 . S
C445 C440 1.425 1_565 S
C445 C442 1.409 . S
C445 C443 1.415 . S
C446 H436 0.930 . S
C446 C444 1.419 . S
C446 C447 1.362 . S
C447 H437 0.930 . S
C447 C440 1.409 . S
C447 C446 1.362 . S
H448 C454 0.930 . S
H449 C457 0.930 . S
H450 C458 0.930 . S
H451 C459 0.930 . S
H452 C462 0.930 . S
H453 C463 0.930 . S
C454 H448 0.930 . S
C454 C455 1.355 . S
C454 C456 1.415 . S
C455 C454 1.355 . S
C455 C457 1.419 . S
C456 C454 1.415 . S
C456 C461 1.425 . S
C456 C463 1.409 . S
C457 H449 0.930 . S
C457 C455 1.419 . S
C457 C458 1.362 . S
C458 H450 0.930 . S
C458 C457 1.362 . S
C458 C461 1.409 . S
C459 H451 0.930 . S
C459 C460 1.355 . S
C459 C461 1.415 . S
C460 C459 1.355 . S
C460 C462 1.419 . S
C461 C456 1.425 . S
C461 C458 1.409 . S
C461 C459 1.415 . S
C462 H452 0.930 . S
C462 C460 1.419 . S
C462 C463 1.362 . S
C463 H453 0.930 . S
C463 C456 1.409 . S
C463 C462 1.362 . S
H464 C470 0.930 1_554 S
H465 C473 0.930 . S
H466 C474 0.930 . S
H467 C475 0.930 1_556 S
H468 C478 0.930 . S
H469 C479 0.930 . S
C470 H464 0.930 1_556 S
C470 C471 1.355 . S
C470 C472 1.409 1_566 S
C471 C470 1.355 . S
C471 C473 1.419 . S
C472 C470 1.409 1_544 S
C472 C477 1.421 1_444 S
C472 C479 1.420 . S
C473 H465 0.930 . S
C473 C471 1.419 . S
C473 C474 1.362 1_455 S
C474 H466 0.930 . S
C474 C473 1.362 1_655 S
C474 C477 1.420 . S
C475 H467 0.930 1_554 S
C475 C476 1.355 . S
C475 C477 1.409 1_544 S
C476 C475 1.355 . S
C476 C478 1.419 . S
C477 C472 1.421 1_666 S
C477 C474 1.420 . S
C477 C475 1.409 1_566 S
C478 H468 0.930 . S
C478 C476 1.419 . S
C478 C479 1.362 1_655 S
C479 H469 0.930 . S
C479 C472 1.420 . S
C479 C478 1.362 1_455 S
H480 C486 0.930 . S
H481 C489 0.930 . S
H482 C490 0.930 . S
H483 C491 0.930 . S
H484 C494 0.930 . S
H485 C495 0.930 . S
C486 H480 0.930 . S
C486 C487 1.355 . S
C486 C488 1.415 . S
C487 C486 1.355 . S
C487 C489 1.419 . S
C488 C486 1.415 . S
C488 C493 1.425 . S
C488 C495 1.409 . S
C489 H481 0.930 . S
C489 C487 1.419 . S
C489 C490 1.362 . S
C490 H482 0.930 . S
C490 C489 1.362 . S
C490 C493 1.409 . S
C491 H483 0.930 . S
C491 C492 1.355 . S
C491 C493 1.415 . S
C492 C491 1.355 . S
C492 C494 1.419 . S
C493 C488 1.425 . S
C493 C490 1.409 . S
C493 C491 1.415 . S
C494 H484 0.930 . S
C494 C492 1.419 . S
C494 C495 1.362 . S
C495 H485 0.930 . S
C495 C488 1.409 . S
C495 C494 1.362 . S
H496 C502 0.930 . S
H497 C505 0.930 . S
H498 C506 0.930 . S
H499 C507 0.930 . S
H500 C510 0.930 . S
H501 C511 0.930 . S
C502 H496 0.930 . S
C502 C503 1.355 . S
C502 C504 1.415 . S
C503 C502 1.355 . S
C503 C505 1.419 . S
C504 C502 1.415 . S
C504 C509 1.425 . S
C504 C511 1.409 . S
C505 H497 0.930 . S
C505 C503 1.419 . S
C505 C506 1.362 . S
C506 H498 0.930 . S
C506 C505 1.362 . S
C506 C509 1.409 . S
C507 H499 0.930 . S
C507 C508 1.355 . S
C507 C509 1.415 . S
C508 C507 1.355 . S
C508 C510 1.419 . S
C509 C504 1.425 . S
C509 C506 1.409 . S
C509 C507 1.415 . S
C510 H500 0.930 . S
C510 C508 1.419 . S
C510 C511 1.362 . S
C511 H501 0.930 . S
C511 C504 1.409 . S
C511 C510 1.362 . S
H512 C518 0.930 . S
H513 C521 0.930 . S
H514 C522 0.930 . S
H515 C523 0.930 . S
H516 C526 0.930 . S
H517 C527 0.930 . S
C518 H512 0.930 . S
C518 C519 1.355 . S
C518 C520 1.415 . S
C519 C518 1.355 . S
C519 C521 1.419 . S
C520 C518 1.415 . S
C520 C525 1.425 . S
C520 C527 1.409 . S
C521 H513 0.930 . S
C521 C519 1.419 . S
C521 C522 1.362 . S
C522 H514 0.930 . S
C522 C521 1.362 . S
C522 C525 1.409 . S
C523 H515 0.930 . S
C523 C524 1.355 . S
C523 C525 1.415 . S
C524 C523 1.355 . S
C524 C526 1.419 . S
C525 C520 1.425 . S
C525 C522 1.409 . S
C525 C523 1.415 . S
C526 H516 0.930 . S
C526 C524 1.419 . S
C526 C527 1.362 . S
C527 H517 0.930 . S
C527 C520 1.409 . S
C527 C526 1.362 . S
H528 C534 0.930 . S
H529 C537 0.930 . S
H530 C538 0.930 . S
H531 C539 0.930 . S
H532 C542 0.930 . S
H533 C543 0.930 . S
C534 H528 0.930 . S
C534 C535 1.355 . S
C534 C536 1.415 . S
C535 C534 1.355 . S
C535 C537 1.419 . S
C536 C534 1.415 . S
C536 C541 1.425 . S
C536 C543 1.409 . S
C537 H529 0.930 . S
C537 C535 1.419 . S
C537 C538 1.362 . S
C538 H530 0.930 . S
C538 C537 1.362 . S
C538 C541 1.409 . S
C539 H531 0.930 . S
C539 C540 1.355 . S
C539 C541 1.415 . S
C540 C539 1.355 . S
C540 C542 1.419 . S
C541 C536 1.425 . S
C541 C538 1.409 . S
C541 C539 1.415 . S
C542 H532 0.930 . S
C542 C540 1.419 . S
C542 C543 1.362 . S
C543 H533 0.930 . S
C543 C536 1.409 . S
C543 C542 1.362 . S
H544 C550 0.930 1_556 S
H545 C553 0.930 . S
H546 C554 0.930 . S
H547 C555 0.930 1_554 S
H548 C558 0.930 . S
H549 C559 0.930 . S
C550 H544 0.930 1_554 S
C550 C551 1.355 . S
C550 C552 1.415 1_554 S
C551 C550 1.355 . S
C551 C553 1.419 . S
C552 C550 1.415 1_556 S
C552 C557 1.425 1_556 S
C552 C559 1.409 . S
C553 H545 0.930 . S
C553 C551 1.419 . S
C553 C554 1.362 . S
C554 H546 0.930 . S
C554 C553 1.362 . S
C554 C557 1.409 . S
C555 H547 0.930 1_556 S
C555 C556 1.355 . S
C555 C557 1.415 1_556 S
C556 C555 1.355 . S
C556 C558 1.419 . S
C557 C552 1.425 1_554 S
C557 C554 1.409 . S
C557 C555 1.415 1_554 S
C558 H548 0.930 . S
C558 C556 1.419 . S
C558 C559 1.362 . S
C559 H549 0.930 . S
C559 C552 1.409 . S
C559 C558 1.362 . S
H560 C566 0.930 . S
H561 C569 0.930 . S
H562 C570 0.930 . S
H563 C571 0.930 . S
H564 C574 0.930 . S
H565 C575 0.930 . S
C566 H560 0.930 . S
C566 C567 1.355 . S
C566 C568 1.415 1_455 S
C567 C566 1.355 . S
C567 C569 1.419 . S
C568 C566 1.415 1_655 S
C568 C573 1.425 1_655 S
C568 C575 1.409 . S
C569 H561 0.930 . S
C569 C567 1.419 . S
C569 C570 1.362 . S
C570 H562 0.930 . S
C570 C569 1.362 . S
C570 C573 1.409 . S
C571 H563 0.930 . S
C571 C572 1.355 . S
C571 C573 1.415 1_655 S
C572 C571 1.355 . S
C572 C574 1.419 . S
C573 C568 1.425 1_455 S
C573 C570 1.409 . S
C573 C571 1.415 1_455 S
C574 H564 0.930 . S
C574 C572 1.419 . S
C574 C575 1.362 . S
C575 H565 0.930 . S
C575 C568 1.409 . S
C575 C574 1.362 . S
H576 C582 0.930 1_554 S
H577 C585 0.930 . S
H578 C586 0.930 . S
H579 C587 0.930 1_556 S
H580 C590 0.930 . S
H581 C591 0.930 . S
C582 H576 0.930 1_556 S
C582 C583 1.355 . S
C582 C584 1.415 1_556 S
C583 C582 1.355 . S
C583 C585 1.419 . S
C584 C582 1.415 1_554 S
C584 C589 1.425 1_654 S
C584 C591 1.409 . S
C585 H577 0.930 . S
C585 C583 1.419 . S
C585 C586 1.362 1_655 S
C586 H578 0.930 . S
C586 C585 1.362 1_455 S
C586 C589 1.409 . S
C587 H579 0.930 1_554 S
C587 C588 1.355 . S
C587 C589 1.415 1_554 S
C588 C587 1.355 . S
C588 C590 1.419 . S
C589 C584 1.425 1_456 S
C589 C586 1.409 . S
C589 C587 1.415 1_556 S
C590 H580 0.930 . S
C590 C588 1.419 . S
C590 C591 1.362 1_455 S
C591 H581 0.930 . S
C591 C584 1.409 . S
C591 C590 1.362 1_655 S
H592 C598 0.930 . S
H593 C601 0.930 . S
H594 C602 0.930 . S
H595 C603 0.930 . S
H596 C606 0.930 . S
H597 C607 0.930 . S
C598 H592 0.930 . S
C598 C599 1.355 . S
C598 C600 1.415 . S
C599 C598 1.355 . S
C599 C601 1.419 . S
C600 C598 1.415 . S
C600 C605 1.425 . S
C600 C607 1.409 . S
C601 H593 0.930 . S
C601 C599 1.419 . S
C601 C602 1.362 . S
C602 H594 0.930 . S
C602 C601 1.362 . S
C602 C605 1.409 . S
C603 H595 0.930 . S
C603 C604 1.355 . S
C603 C605 1.415 . S
C604 C603 1.355 . S
C604 C606 1.419 . S
C605 C600 1.425 . S
C605 C602 1.409 . S
C605 C603 1.415 . S
C606 H596 0.930 . S
C606 C604 1.419 . S
C606 C607 1.362 . S
C607 H597 0.930 . S
C607 C600 1.409 . S
C607 C606 1.362 . S
H608 C614 0.930 . S
H609 C617 0.930 . S
H610 C618 0.930 . S
H611 C619 0.930 . S
H612 C622 0.930 . S
H613 C623 0.930 . S
C614 H608 0.930 . S
C614 C615 1.355 . S
C614 C616 1.415 . S
C615 C614 1.355 . S
C615 C617 1.419 . S
C616 C614 1.415 . S
C616 C621 1.425 . S
C616 C623 1.409 . S
C617 H609 0.930 . S
C617 C615 1.419 . S
C617 C618 1.362 . S
C618 H610 0.930 . S
C618 C617 1.362 . S
C618 C621 1.409 . S
C619 H611 0.930 . S
C619 C620 1.355 . S
C619 C621 1.415 . S
C620 C619 1.355 . S
C620 C622 1.419 . S
C621 C616 1.425 . S
C621 C618 1.409 . S
C621 C619 1.415 . S
C622 H612 0.930 . S
C622 C620 1.419 . S
C622 C623 1.362 . S
C623 H613 0.930 . S
C623 C616 1.409 . S
C623 C622 1.362 . S
H624 C630 0.930 . S
H625 C633 0.930 . S
H626 C634 0.930 . S
H627 C635 0.930 . S
H628 C638 0.930 . S
H629 C639 0.930 . S
C630 H624 0.930 . S
C630 C631 1.355 . S
C630 C632 1.415 . S
C631 C630 1.355 . S
C631 C633 1.419 . S
C632 C630 1.415 . S
C632 C637 1.425 . S
C632 C639 1.409 . S
C633 H625 0.930 . S
C633 C631 1.419 . S
C633 C634 1.362 . S
C634 H626 0.930 . S
C634 C633 1.362 . S
C634 C637 1.409 . S
C635 H627 0.930 . S
C635 C636 1.355 . S
C635 C637 1.415 . S
C636 C635 1.355 . S
C636 C638 1.419 . S
C637 C632 1.425 . S
C637 C634 1.409 . S
C637 C635 1.415 . S
C638 H628 0.930 . S
C638 C636 1.419 . S
C638 C639 1.362 . S
C639 H629 0.930 . S
C639 C632 1.409 . S
C639 C638 1.362 . S
H640 C646 0.930 . S
H641 C649 0.930 . S
H642 C650 0.930 . S
H643 C651 0.930 . S
H644 C654 0.930 . S
H645 C655 0.930 . S
C646 H640 0.930 . S
C646 C647 1.355 . S
C646 C648 1.415 . S
C647 C646 1.355 . S
C647 C649 1.419 . S
C648 C646 1.415 . S
C648 C653 1.425 . S
C648 C655 1.409 . S
C649 H641 0.930 . S
C649 C647 1.419 . S
C649 C650 1.362 . S
C650 H642 0.930 . S
C650 C649 1.362 . S
C650 C653 1.409 . S
C651 H643 0.930 . S
C651 C652 1.355 . S
C651 C653 1.415 . S
C652 C651 1.355 . S
C652 C654 1.419 . S
C653 C648 1.425 . S
C653 C650 1.409 . S
C653 C651 1.415 . S
C654 H644 0.930 . S
C654 C652 1.419 . S
C654 C655 1.362 . S
C655 H645 0.930 . S
C655 C648 1.409 . S
C655 C654 1.362 . S
H656 C662 0.930 . S
H657 C665 0.930 . S
H658 C666 0.930 . S
H659 C667 0.930 . S
H660 C670 0.930 . S
H661 C671 0.930 . S
C662 H656 0.930 . S
C662 C663 1.355 . S
C662 C664 1.415 . S
C663 C662 1.355 . S
C663 C665 1.419 . S
C664 C662 1.415 . S
C664 C669 1.425 . S
C664 C671 1.409 . S
C665 H657 0.930 . S
C665 C663 1.419 . S
C665 C666 1.362 . S
C666 H658 0.930 . S
C666 C665 1.362 . S
C666 C669 1.409 . S
C667 H659 0.930 . S
C667 C668 1.355 . S
C667 C669 1.415 . S
C668 C667 1.355 . S
C668 C670 1.419 . S
C669 C664 1.425 . S
C669 C666 1.409 . S
C669 C667 1.415 . S
C670 H660 0.930 . S
C670 C668 1.419 . S
C670 C671 1.362 . S
C671 H661 0.930 . S
C671 C664 1.409 . S
C671 C670 1.362 . S
H672 C678 0.930 . S
H673 C681 0.930 . S
H674 C682 0.930 . S
H675 C683 0.930 . S
H676 C686 0.930 . S
H677 C687 0.930 . S
C678 H672 0.930 . S
C678 C679 1.355 . S
C678 C680 1.415 . S
C679 C678 1.355 . S
C679 C681 1.419 . S
C680 C678 1.415 . S
C680 C685 1.425 . S
C680 C687 1.409 . S
C681 H673 0.930 . S
C681 C679 1.419 . S
C681 C682 1.362 . S
C682 H674 0.930 . S
C682 C681 1.362 . S
C682 C685 1.409 . S
C683 H675 0.930 . S
C683 C684 1.355 . S
C683 C685 1.415 . S
C684 C683 1.355 . S
C684 C686 1.419 . S
C685 C680 1.425 . S
C685 C682 1.409 . S
C685 C683 1.415 . S
C686 H676 0.930 . S
C686 C684 1.419 . S
C686 C687 1.362 . S
C687 H677 0.930 . S
C687 C680 1.409 . S
C687 C686 1.362 . S
H688 C694 0.930 . S
H689 C697 0.930 . S
H690 C698 0.930 . S
H691 C699 0.930 . S
H692 C702 0.930 . S
H693 C703 0.930 . S
C694 H688 0.930 . S
C694 C695 1.355 . S
C694 C696 1.415 . S
C695 C694 1.355 . S
C695 C697 1.419 . S
C696 C694 1.415 . S
C696 C701 1.425 . S
C696 C703 1.409 . S
C697 H689 0.930 . S
C697 C695 1.419 . S
C697 C698 1.362 . S
C698 H690 0.930 . S
C698 C697 1.362 . S
C698 C701 1.409 . S
C699 H691 0.930 . S
C699 C700 1.355 . S
C699 C701 1.415 . S
C700 C699 1.355 . S
C700 C702 1.419 . S
C701 C696 1.425 . S
C701 C698 1.409 . S
C701 C699 1.415 . S
C702 H692 0.930 . S
C702 C700 1.419 . S
C702 C703 1.362 . S
C703 H693 0.930 . S
C703 C696 1.409 . S
C703 C702 1.362 . S
H704 C710 0.930 . S
H705 C713 0.930 . S
H706 C714 0.930 . S
H707 C715 0.930 . S
H708 C718 0.930 . S
H709 C719 0.930 . S
C710 H704 0.930 . S
C710 C711 1.355 . S
C710 C712 1.415 . S
C711 C710 1.355 . S
C711 C713 1.419 . S
C712 C710 1.415 . S
C712 C717 1.425 . S
C712 C719 1.409 . S
C713 H705 0.930 . S
C713 C711 1.419 . S
C713 C714 1.362 . S
C714 H706 0.930 . S
C714 C713 1.362 . S
C714 C717 1.409 . S
C715 H707 0.930 . S
C715 C716 1.355 . S
C715 C717 1.415 . S
C716 C715 1.355 . S
C716 C718 1.419 . S
C717 C712 1.425 . S
C717 C714 1.409 . S
C717 C715 1.415 . S
C718 H708 0.930 . S
C718 C716 1.419 . S
C718 C719 1.362 . S
C719 H709 0.930 . S
C719 C712 1.409 . S
C719 C718 1.362 . S
H720 C726 0.930 . S
H721 C729 0.930 . S
H722 C730 0.930 . S
H723 C731 0.930 . S
H724 C734 0.930 . S
H725 C735 0.930 . S
C726 H720 0.930 . S
C726 C727 1.355 . S
C726 C728 1.415 . S
C727 C726 1.355 . S
C727 C729 1.419 . S
C728 C726 1.415 . S
C728 C733 1.425 . S
C728 C735 1.409 . S
C729 H721 0.930 . S
C729 C727 1.419 . S
C729 C730 1.362 . S
C730 H722 0.930 . S
C730 C729 1.362 . S
C730 C733 1.409 . S
C731 H723 0.930 . S
C731 C732 1.355 . S
C731 C733 1.415 . S
C732 C731 1.355 . S
C732 C734 1.419 . S
C733 C728 1.425 . S
C733 C730 1.409 . S
C733 C731 1.415 . S
C734 H724 0.930 . S
C734 C732 1.419 . S
C734 C735 1.362 . S
C735 H725 0.930 . S
C735 C728 1.409 . S
C735 C734 1.362 . S
H736 C742 0.930 . S
H737 C745 0.930 . S
H738 C746 0.930 . S
H739 C747 0.930 . S
H740 C750 0.930 . S
H741 C751 0.930 . S
C742 H736 0.930 . S
C742 C743 1.355 . S
C742 C744 1.415 . S
C743 C742 1.355 . S
C743 C745 1.419 . S
C744 C742 1.415 . S
C744 C749 1.425 . S
C744 C751 1.409 . S
C745 H737 0.930 . S
C745 C743 1.419 . S
C745 C746 1.362 . S
C746 H738 0.930 . S
C746 C745 1.362 . S
C746 C749 1.409 . S
C747 H739 0.930 . S
C747 C748 1.355 . S
C747 C749 1.415 . S
C748 C747 1.355 . S
C748 C750 1.419 . S
C749 C744 1.425 . S
C749 C746 1.409 . S
C749 C747 1.415 . S
C750 H740 0.930 . S
C750 C748 1.419 . S
C750 C751 1.362 . S
C751 H741 0.930 . S
C751 C744 1.409 . S
C751 C750 1.362 . S
H752 C758 0.930 . S
H753 C761 0.930 . S
H754 C762 0.930 . S
H755 C763 0.930 . S
H756 C766 0.930 . S
H757 C767 0.930 . S
C758 H752 0.930 . S
C758 C759 1.355 . S
C758 C760 1.415 . S
C759 C758 1.355 . S
C759 C761 1.419 . S
C760 C758 1.415 . S
C760 C765 1.425 . S
C760 C767 1.409 . S
C761 H753 0.930 . S
C761 C759 1.419 . S
C761 C762 1.362 . S
C762 H754 0.930 . S
C762 C761 1.362 . S
C762 C765 1.409 . S
C763 H755 0.930 . S
C763 C764 1.355 . S
C763 C765 1.415 . S
C764 C763 1.355 . S
C764 C766 1.419 . S
C765 C760 1.425 . S
C765 C762 1.409 . S
C765 C763 1.415 . S
C766 H756 0.930 . S
C766 C764 1.419 . S
C766 C767 1.362 . S
C767 H757 0.930 . S
C767 C760 1.409 . S
C767 C766 1.362 . S
H768 C774 0.930 . S
H769 C777 0.930 . S
H770 C778 0.930 . S
H771 C779 0.930 . S
H772 C782 0.930 . S
H773 C783 0.930 . S
C774 H768 0.930 . S
C774 C775 1.355 . S
C774 C776 1.415 . S
C775 C774 1.355 . S
C775 C777 1.419 . S
C776 C774 1.415 . S
C776 C781 1.425 . S
C776 C783 1.409 . S
C777 H769 0.930 . S
C777 C775 1.419 . S
C777 C778 1.362 . S
C778 H770 0.930 . S
C778 C777 1.362 . S
C778 C781 1.409 . S
C779 H771 0.930 . S
C779 C780 1.355 . S
C779 C781 1.415 . S
C780 C779 1.355 . S
C780 C782 1.419 . S
C781 C776 1.425 . S
C781 C778 1.409 . S
C781 C779 1.415 . S
C782 H772 0.930 . S
C782 C780 1.419 . S
C782 C783 1.362 . S
C783 H773 0.930 . S
C783 C776 1.409 . S
C783 C782 1.362 . S
H784 C790 0.930 . S
H785 C793 0.930 . S
H786 C794 0.930 . S
H787 C795 0.930 . S
H788 C798 0.930 . S
H789 C799 0.930 . S
C790 H784 0.930 . S
C790 C791 1.355 . S
C790 C792 1.415 . S
C791 C790 1.355 . S
C791 C793 1.419 . S
C792 C790 1.415 . S
C792 C797 1.425 . S
C792 C799 1.409 . S
C793 H785 0.930 . S
C793 C791 1.419 . S
C793 C794 1.362 . S
C794 H786 0.930 . S
C794 C793 1.362 . S
C794 C797 1.409 . S
C795 H787 0.930 . S
C795 C796 1.355 . S
C795 C797 1.415 . S
C796 C795 1.355 . S
C796 C798 1.419 . S
C797 C792 1.425 . S
C797 C794 1.409 . S
C797 C795 1.415 . S
C798 H788 0.930 . S
C798 C796 1.419 . S
C798 C799 1.362 . S
C799 H789 0.930 . S
C799 C792 1.409 . S
C799 C798 1.362 . S
H800 C806 0.930 . S
H801 C809 0.930 . S
H802 C810 0.930 . S
H803 C811 0.930 . S
H804 C814 0.930 . S
H805 C815 0.930 . S
C806 H800 0.930 . S
C806 C807 1.355 . S
C806 C808 1.415 . S
C807 C806 1.355 . S
C807 C809 1.419 . S
C808 C806 1.415 . S
C808 C813 1.425 . S
C808 C815 1.409 . S
C809 H801 0.930 . S
C809 C807 1.419 . S
C809 C810 1.362 . S
C810 H802 0.930 . S
C810 C809 1.362 . S
C810 C813 1.409 . S
C811 H803 0.930 . S
C811 C812 1.355 . S
C811 C813 1.415 . S
C812 C811 1.355 . S
C812 C814 1.419 . S
C813 C808 1.425 . S
C813 C810 1.409 . S
C813 C811 1.415 . S
C814 H804 0.930 . S
C814 C812 1.419 . S
C814 C815 1.362 . S
C815 H805 0.930 . S
C815 C808 1.409 . S
C815 C814 1.362 . S
H816 C822 0.930 . S
H817 C825 0.930 . S
H818 C826 0.930 . S
H819 C827 0.930 . S
H820 C830 0.930 . S
H821 C831 0.930 . S
C822 H816 0.930 . S
C822 C823 1.355 . S
C822 C824 1.415 . S
C823 C822 1.355 . S
C823 C825 1.419 . S
C824 C822 1.415 . S
C824 C829 1.425 . S
C824 C831 1.409 . S
C825 H817 0.930 . S
C825 C823 1.419 . S
C825 C826 1.362 . S
C826 H818 0.930 . S
C826 C825 1.362 . S
C826 C829 1.409 . S
C827 H819 0.930 . S
C827 C828 1.355 . S
C827 C829 1.415 . S
C828 C827 1.355 . S
C828 C830 1.419 . S
C829 C824 1.425 . S
C829 C826 1.409 . S
C829 C827 1.415 . S
C830 H820 0.930 . S
C830 C828 1.419 . S
C830 C831 1.362 . S
C831 H821 0.930 . S
C831 C824 1.409 . S
C831 C830 1.362 . S
H832 C838 0.930 . S
H833 C841 0.930 . S
H834 C842 0.930 . S
H835 C843 0.930 . S
H836 C846 0.930 . S
H837 C847 0.930 . S
C838 H832 0.930 . S
C838 C839 1.355 . S
C838 C840 1.415 . S
C839 C838 1.355 . S
C839 C841 1.419 . S
C840 C838 1.415 . S
C840 C845 1.425 . S
C840 C847 1.409 . S
C841 H833 0.930 . S
C841 C839 1.419 . S
C841 C842 1.362 . S
C842 H834 0.930 . S
C842 C841 1.362 . S
C842 C845 1.409 . S
C843 H835 0.930 . S
C843 C844 1.355 . S
C843 C845 1.415 . S
C844 C843 1.355 . S
C844 C846 1.419 . S
C845 C840 1.425 . S
C845 C842 1.409 . S
C845 C843 1.415 . S
C846 H836 0.930 . S
C846 C844 1.419 . S
C846 C847 1.362 . S
C847 H837 0.930 . S
C847 C840 1.409 . S
C847 C846 1.362 . S
H848 C854 0.930 . S
H849 C857 0.930 . S
H850 C858 0.930 . S
H851 C859 0.930 . S
H852 C862 0.930 . S
H853 C863 0.930 . S
C854 H848 0.930 . S
C854 C855 1.355 . S
C854 C856 1.415 . S
C855 C854 1.355 . S
C855 C857 1.419 . S
C856 C854 1.415 . S
C856 C861 1.425 . S
C856 C863 1.409 . S
C857 H849 0.930 . S
C857 C855 1.419 . S
C857 C858 1.362 . S
C858 H850 0.930 . S
C858 C857 1.362 . S
C858 C861 1.409 . S
C859 H851 0.930 . S
C859 C860 1.355 . S
C859 C861 1.415 . S
C860 C859 1.355 . S
C860 C862 1.419 . S
C861 C856 1.425 . S
C861 C858 1.409 . S
C861 C859 1.415 . S
C862 H852 0.930 . S
C862 C860 1.419 . S
C862 C863 1.362 . S
C863 H853 0.930 . S
C863 C856 1.409 . S
C863 C862 1.362 . S
H864 C870 0.930 . S
H865 C873 0.930 . S
H866 C874 0.930 1_554 S
H867 C875 0.930 . S
H868 C878 0.930 . S
H869 C879 0.930 1_556 S
C870 H864 0.930 . S
C870 C871 1.355 . S
C870 C872 1.415 . S
C871 C870 1.355 . S
C871 C873 1.419 . S
C872 C870 1.415 . S
C872 C877 1.425 1_556 S
C872 C879 1.409 1_556 S
C873 H865 0.930 . S
C873 C871 1.419 . S
C873 C874 1.362 . S
C874 H866 0.930 1_556 S
C874 C873 1.362 . S
C874 C877 1.409 1_556 S
C875 H867 0.930 . S
C875 C876 1.355 . S
C875 C877 1.415 . S
C876 C875 1.355 . S
C876 C878 1.419 . S
C877 C872 1.425 1_554 S
C877 C874 1.409 1_554 S
C877 C875 1.415 . S
C878 H868 0.930 . S
C878 C876 1.419 . S
C878 C879 1.362 . S
C879 H869 0.930 1_554 S
C879 C872 1.409 1_554 S
C879 C878 1.362 . S
H880 C886 0.930 . S
H881 C889 0.930 . S
H882 C890 0.930 . S
H883 C891 0.930 . S
H884 C894 0.930 . S
H885 C895 0.930 . S
C886 H880 0.930 . S
C886 C887 1.355 . S
C886 C888 1.415 . S
C887 C886 1.355 . S
C887 C889 1.419 1_545 S
C888 C886 1.415 . S
C888 C893 1.425 1_545 S
C888 C895 1.409 . S
C889 H881 0.930 . S
C889 C887 1.419 1_565 S
C889 C890 1.362 . S
C890 H882 0.930 . S
C890 C889 1.362 . S
C890 C893 1.409 . S
C891 H883 0.930 . S
C891 C892 1.355 . S
C891 C893 1.415 . S
C892 C891 1.355 . S
C892 C894 1.419 1_565 S
C893 C888 1.425 1_565 S
C893 C890 1.409 . S
C893 C891 1.415 . S
C894 H884 0.930 . S
C894 C892 1.419 1_545 S
C894 C895 1.362 . S
C895 H885 0.930 . S
C895 C888 1.409 . S
C895 C894 1.362 . S
H896 C902 0.930 . S
H897 C905 0.930 . S
H898 C906 0.930 . S
H899 C907 0.930 . S
H900 C910 0.930 . S
H901 C911 0.930 . S
C902 H896 0.930 . S
C902 C903 1.355 . S
C902 C904 1.415 . S
C903 C902 1.355 . S
C903 C905 1.419 . S
C904 C902 1.415 . S
C904 C909 1.425 . S
C904 C911 1.409 . S
C905 H897 0.930 . S
C905 C903 1.419 . S
C905 C906 1.362 . S
C906 H898 0.930 . S
C906 C905 1.362 . S
C906 C909 1.409 . S
C907 H899 0.930 . S
C907 C908 1.355 . S
C907 C909 1.415 . S
C908 C907 1.355 . S
C908 C910 1.419 . S
C909 C904 1.425 . S
C909 C906 1.409 . S
C909 C907 1.415 . S
C910 H900 0.930 . S
C910 C908 1.419 . S
C910 C911 1.362 . S
C911 H901 0.930 . S
C911 C904 1.409 . S
C911 C910 1.362 . S
H912 C918 0.930 . S
H913 C921 0.930 . S
H914 C922 0.930 . S
H915 C923 0.930 . S
H916 C926 0.930 . S
H917 C927 0.930 . S
C918 H912 0.930 . S
C918 C919 1.355 . S
C918 C920 1.415 . S
C919 C918 1.355 . S
C919 C921 1.419 1_565 S
C920 C918 1.415 . S
C920 C925 1.425 1_565 S
C920 C927 1.409 . S
C921 H913 0.930 . S
C921 C919 1.419 1_545 S
C921 C922 1.362 . S
C922 H914 0.930 . S
C922 C921 1.362 . S
C922 C925 1.409 . S
C923 H915 0.930 . S
C923 C924 1.355 . S
C923 C925 1.415 . S
C924 C923 1.355 . S
C924 C926 1.419 1_545 S
C925 C920 1.425 1_545 S
C925 C922 1.409 . S
C925 C923 1.415 . S
C926 H916 0.930 . S
C926 C924 1.419 1_565 S
C926 C927 1.362 . S
C927 H917 0.930 . S
C927 C920 1.409 . S
C927 C926 1.362 . S
H928 C934 0.930 . S
H929 C937 0.930 . S
H930 C938 0.926 1_554 S
H931 C939 0.930 . S
H932 C942 0.930 . S
H933 C943 0.925 1_556 S
C934 H928 0.930 . S
C934 C935 1.355 . S
C934 C936 1.415 . S
C935 C934 1.355 . S
C935 C937 1.419 . S
C936 C934 1.415 . S
C936 C941 1.425 1_556 S
C936 C943 1.409 1_556 S
C937 H929 0.930 . S
C937 C935 1.419 . S
C937 C938 1.362 . S
C938 H930 0.926 1_556 S
C938 C937 1.362 . S
C938 C941 1.409 1_556 S
C939 H931 0.930 . S
C939 C940 1.355 . S
C939 C941 1.415 . S
C940 C939 1.355 . S
C940 C942 1.419 . S
C941 C936 1.425 1_554 S
C941 C938 1.409 1_554 S
C941 C939 1.415 . S
C942 H932 0.930 . S
C942 C940 1.419 . S
C942 C943 1.362 . S
C943 H933 0.925 1_554 S
C943 C936 1.409 1_554 S
C943 C942 1.362 . S
H944 C950 0.930 . S
H945 C953 0.930 . S
H946 C954 0.930 . S
H947 C955 0.930 . S
H948 C958 0.930 . S
H949 C959 0.930 . S
C950 H944 0.930 . S
C950 C951 1.355 . S
C950 C952 1.415 . S
C951 C950 1.355 . S
C951 C953 1.419 1_565 S
C952 C950 1.415 . S
C952 C957 1.425 1_565 S
C952 C959 1.409 . S
C953 H945 0.930 . S
C953 C951 1.419 1_545 S
C953 C954 1.362 . S
C954 H946 0.930 . S
C954 C953 1.362 . S
C954 C957 1.409 . S
C955 H947 0.930 . S
C955 C956 1.355 . S
C955 C957 1.415 . S
C956 C955 1.355 . S
C956 C958 1.419 1_545 S
C957 C952 1.425 1_545 S
C957 C954 1.409 . S
C957 C955 1.415 . S
C958 H948 0.930 . S
C958 C956 1.419 1_565 S
C958 C959 1.362 . S
C959 H949 0.930 . S
C959 C952 1.409 . S
C959 C958 1.362 . S
H960 C966 0.930 . S
H961 C969 0.930 . S
H962 C970 0.930 . S
H963 C971 0.930 . S
H964 C974 0.930 . S
H965 C975 0.930 . S
C966 H960 0.930 . S
C966 C967 1.355 . S
C966 C968 1.415 . S
C967 C966 1.355 . S
C967 C969 1.419 . S
C968 C966 1.415 . S
C968 C973 1.425 . S
C968 C975 1.409 . S
C969 H961 0.930 . S
C969 C967 1.419 . S
C969 C970 1.362 . S
C970 H962 0.930 . S
C970 C969 1.362 . S
C970 C973 1.409 . S
C971 H963 0.930 . S
C971 C972 1.355 . S
C971 C973 1.415 . S
C972 C971 1.355 . S
C972 C974 1.419 . S
C973 C968 1.425 . S
C973 C970 1.409 . S
C973 C971 1.415 . S
C974 H964 0.930 . S
C974 C972 1.419 . S
C974 C975 1.362 . S
C975 H965 0.930 . S
C975 C968 1.409 . S
C975 C974 1.362 . S
H976 C982 0.930 . S
H977 C985 0.930 . S
H978 C986 0.934 . S
H979 C987 0.930 . S
H980 C990 0.930 . S
H981 C991 0.934 . S
C982 H976 0.930 . S
C982 C983 1.355 . S
C982 C984 1.415 . S
C983 C982 1.355 . S
C983 C985 1.419 . S
C984 C982 1.415 . S
C984 C989 1.425 1_545 S
C984 C991 1.411 . S
C985 H977 0.930 . S
C985 C983 1.419 . S
C985 C986 1.358 1_545 S
C986 H978 0.934 . S
C986 C985 1.358 1_565 S
C986 C989 1.411 . S
C987 H979 0.930 . S
C987 C988 1.355 . S
C987 C989 1.415 . S
C988 C987 1.355 . S
C988 C990 1.419 . S
C989 C984 1.425 1_565 S
C989 C986 1.411 . S
C989 C987 1.415 . S
C990 H980 0.930 . S
C990 C988 1.419 . S
C990 C991 1.357 1_565 S
C991 H981 0.934 . S
C991 C984 1.411 . S
C991 C990 1.357 1_545 S
H992 C998 0.930 . S
H993 C1001 0.930 . S
H994 C1002 0.930 . S
H995 C1003 0.930 . S
H996 C1006 0.930 . S
H997 C1007 0.930 . S
C998 H992 0.930 . S
C998 C999 1.355 . S
C998 C1000 1.415 . S
C999 C998 1.355 . S
C999 C1001 1.419 . S
C1000 C998 1.415 . S
C1000 C1005 1.425 . S
C1000 C1007 1.409 . S
C1001 H993 0.930 . S
C1001 C999 1.419 . S
C1001 C1002 1.362 . S
C1002 H994 0.930 . S
C1002 C1001 1.362 . S
C1002 C1005 1.409 . S
C1003 H995 0.930 . S
C1003 C1004 1.355 . S
C1003 C1005 1.415 . S
C1004 C1003 1.355 . S
C1004 C1006 1.419 . S
C1005 C1000 1.425 . S
C1005 C1002 1.409 . S
C1005 C1003 1.415 . S
C1006 H996 0.930 . S
C1006 C1004 1.419 . S
C1006 C1007 1.362 . S
C1007 H997 0.930 . S
C1007 C1000 1.409 . S
C1007 C1006 1.362 . S
H1008 C1014 0.930 . S
H1009 C1017 0.930 . S
H1010 C1018 0.930 . S
H1011 C1019 0.930 . S
H1012 C1022 0.930 . S
H1013 C1023 0.930 . S
C1014 H1008 0.930 . S
C1014 C1015 1.355 . S
C1014 C1016 1.415 . S
C1015 C1014 1.355 . S
C1015 C1017 1.419 . S
C1016 C1014 1.415 . S
C1016 C1021 1.425 . S
C1016 C1023 1.409 . S
C1017 H1009 0.930 . S
C1017 C1015 1.419 . S
C1017 C1018 1.362 . S
C1018 H1010 0.930 . S
C1018 C1017 1.362 . S
C1018 C1021 1.409 . S
C1019 H1011 0.930 . S
C1019 C1020 1.355 . S
C1019 C1021 1.415 . S
C1020 C1019 1.355 . S
C1020 C1022 1.419 . S
C1021 C1016 1.425 . S
C1021 C1018 1.409 . S
C1021 C1019 1.415 . S
C1022 H1012 0.930 . S
C1022 C1020 1.419 . S
C1022 C1023 1.362 . S
C1023 H1013 0.930 . S
C1023 C1016 1.409 . S
C1023 C1022 1.362 . S
H1024 C1030 0.930 . S
H1025 C1033 0.930 . S
H1026 C1034 0.930 . S
H1027 C1035 0.930 . S
H1028 C1038 0.930 . S
H1029 C1039 0.930 . S
C1030 H1024 0.930 . S
C1030 C1031 1.355 . S
C1030 C1032 1.415 . S
C1031 C1030 1.355 . S
C1031 C1033 1.419 . S
C1032 C1030 1.415 . S
C1032 C1037 1.425 1_554 S
C1032 C1039 1.409 1_554 S
C1033 H1025 0.930 . S
C1033 C1031 1.419 . S
C1033 C1034 1.362 . S
C1034 H1026 0.930 . S
C1034 C1033 1.362 . S
C1034 C1037 1.409 1_554 S
C1035 H1027 0.930 . S
C1035 C1036 1.355 . S
C1035 C1037 1.415 . S
C1036 C1035 1.355 . S
C1036 C1038 1.419 . S
C1037 C1032 1.425 1_556 S
C1037 C1034 1.409 1_556 S
C1037 C1035 1.415 . S
C1038 H1028 0.930 . S
C1038 C1036 1.419 . S
C1038 C1039 1.362 . S
C1039 H1029 0.930 . S
C1039 C1032 1.409 1_556 S
C1039 C1038 1.362 . S
H1040 C1046 0.930 . S
H1041 C1049 0.930 . S
H1042 C1050 0.930 . S
H1043 C1051 0.930 . S
H1044 C1054 0.930 . S
H1045 C1055 0.930 . S
C1046 H1040 0.930 . S
C1046 C1047 1.355 . S
C1046 C1048 1.415 . S
C1047 C1046 1.355 . S
C1047 C1049 1.419 . S
C1048 C1046 1.415 . S
C1048 C1053 1.425 . S
C1048 C1055 1.409 . S
C1049 H1041 0.930 . S
C1049 C1047 1.419 . S
C1049 C1050 1.362 . S
C1050 H1042 0.930 . S
C1050 C1049 1.362 . S
C1050 C1053 1.409 . S
C1051 H1043 0.930 . S
C1051 C1052 1.355 . S
C1051 C1053 1.415 . S
C1052 C1051 1.355 . S
C1052 C1054 1.419 . S
C1053 C1048 1.425 . S
C1053 C1050 1.409 . S
C1053 C1051 1.415 . S
C1054 H1044 0.930 . S
C1054 C1052 1.419 . S
C1054 C1055 1.362 . S
C1055 H1045 0.930 . S
C1055 C1048 1.409 . S
C1055 C1054 1.362 . S
H1056 C1062 0.930 . S
H1057 C1065 0.930 . S
H1058 C1066 0.930 . S
H1059 C1067 0.930 . S
H1060 C1070 0.930 . S
H1061 C1071 0.930 . S
C1062 H1056 0.930 . S
C1062 C1063 1.355 . S
C1062 C1064 1.415 . S
C1063 C1062 1.355 . S
C1063 C1065 1.419 . S
C1064 C1062 1.415 . S
C1064 C1069 1.425 . S
C1064 C1071 1.409 . S
C1065 H1057 0.930 . S
C1065 C1063 1.419 . S
C1065 C1066 1.362 . S
C1066 H1058 0.930 . S
C1066 C1065 1.362 . S
C1066 C1069 1.409 . S
C1067 H1059 0.930 . S
C1067 C1068 1.355 . S
C1067 C1069 1.415 . S
C1068 C1067 1.355 . S
C1068 C1070 1.419 . S
C1069 C1064 1.425 . S
C1069 C1066 1.409 . S
C1069 C1067 1.415 . S
C1070 H1060 0.930 . S
C1070 C1068 1.419 . S
C1070 C1071 1.362 . S
C1071 H1061 0.930 . S
C1071 C1064 1.409 . S
C1071 C1070 1.362 . S
H1072 C1078 0.930 . S
H1073 C1081 0.930 . S
H1074 C1082 0.930 . S
H1075 C1083 0.930 . S
H1076 C1086 0.930 . S
H1077 C1087 0.930 . S
C1078 H1072 0.930 . S
C1078 C1079 1.355 . S
C1078 C1080 1.415 . S
C1079 C1078 1.355 . S
C1079 C1081 1.419 . S
C1080 C1078 1.415 . S
C1080 C1085 1.425 . S
C1080 C1087 1.409 . S
C1081 H1073 0.930 . S
C1081 C1079 1.419 . S
C1081 C1082 1.362 . S
C1082 H1074 0.930 . S
C1082 C1081 1.362 . S
C1082 C1085 1.409 . S
C1083 H1075 0.930 . S
C1083 C1084 1.355 . S
C1083 C1085 1.415 . S
C1084 C1083 1.355 . S
C1084 C1086 1.419 . S
C1085 C1080 1.425 . S
C1085 C1082 1.409 . S
C1085 C1083 1.415 . S
C1086 H1076 0.930 . S
C1086 C1084 1.419 . S
C1086 C1087 1.362 . S
C1087 H1077 0.930 . S
C1087 C1080 1.409 . S
C1087 C1086 1.362 . S
H1088 C1094 0.930 . S
H1089 C1097 0.930 . S
H1090 C1098 0.930 1_554 S
H1091 C1099 0.930 . S
H1092 C1102 0.930 . S
H1093 C1103 0.930 1_556 S
C1094 H1088 0.930 . S
C1094 C1095 1.355 . S
C1094 C1096 1.415 . S
C1095 C1094 1.355 . S
C1095 C1097 1.419 . S
C1096 C1094 1.415 . S
C1096 C1101 1.425 1_556 S
C1096 C1103 1.409 1_556 S
C1097 H1089 0.930 . S
C1097 C1095 1.419 . S
C1097 C1098 1.362 . S
C1098 H1090 0.930 1_556 S
C1098 C1097 1.362 . S
C1098 C1101 1.409 1_556 S
C1099 H1091 0.930 . S
C1099 C1100 1.355 . S
C1099 C1101 1.415 . S
C1100 C1099 1.355 . S
C1100 C1102 1.419 . S
C1101 C1096 1.425 1_554 S
C1101 C1098 1.409 1_554 S
C1101 C1099 1.415 . S
C1102 H1092 0.930 . S
C1102 C1100 1.419 . S
C1102 C1103 1.362 . S
C1103 H1093 0.930 1_554 S
C1103 C1096 1.409 1_554 S
C1103 C1102 1.362 . S
H1104 C1110 0.930 . S
H1105 C1113 0.930 . S
H1106 C1114 0.930 . S
H1107 C1115 0.930 . S
H1108 C1118 0.930 . S
H1109 C1119 0.930 . S
C1110 H1104 0.930 . S
C1110 C1111 1.355 . S
C1110 C1112 1.415 . S
C1111 C1110 1.355 . S
C1111 C1113 1.419 . S
C1112 C1110 1.415 . S
C1112 C1117 1.425 . S
C1112 C1119 1.409 . S
C1113 H1105 0.930 . S
C1113 C1111 1.419 . S
C1113 C1114 1.362 . S
C1114 H1106 0.930 . S
C1114 C1113 1.362 . S
C1114 C1117 1.409 . S
C1115 H1107 0.930 . S
C1115 C1116 1.355 . S
C1115 C1117 1.415 . S
C1116 C1115 1.355 . S
C1116 C1118 1.419 . S
C1117 C1112 1.425 . S
C1117 C1114 1.409 . S
C1117 C1115 1.415 . S
C1118 H1108 0.930 . S
C1118 C1116 1.419 . S
C1118 C1119 1.362 . S
C1119 H1109 0.930 . S
C1119 C1112 1.409 . S
C1119 C1118 1.362 . S
C359 C272 1.517 . S
C364 C8 1.566 . S
C375 C19 1.576 . S
C380 C107 1.560 . S
C391 C294 1.506 . S
C396 C30 1.568 . S
C407 C41 1.577 . S
C412 C129 1.556 . S
C423 C52 1.569 . S
C428 C316 1.548 . S
C439 C63 1.574 . S
C444 C151 1.515 . S
C455 C74 1.571 . S
C460 C338 1.505 . S
C471 C173 1.504 . S
C476 C85 1.568 . S
C487 C184 1.570 . S
C492 C96 1.553 . S
C503 C118 1.545 . S
C508 C206 1.568 . S
C519 C228 1.577 . S
C524 C140 1.556 . S
C535 C250 1.568 . S
C540 C162 1.506 . S
C551 C283 1.516 . S
C556 C195 1.566 . S
C567 C217 1.577 . S
C572 C305 1.540 . S
C583 C327 1.515 . S
C588 C239 1.567 . S
C599 C349 1.504 . S
C604 C261 1.569 . S
C615 C236 1.424 . S
C620 C5 1.333 . S
C631 C247 1.393 . S
C636 C16 1.367 . S
C647 C27 1.397 . S
C652 C258 1.349 . S
C663 C38 1.319 . S
C668 C225 1.434 . S
C679 C214 1.416 . S
C684 C49 1.331 . S
C695 C60 1.321 . S
C700 C181 1.433 . S
C711 C71 1.426 . S
C716 C192 1.330 . S
C727 C82 1.316 . S
C732 C203 1.435 . S
C743 C93 1.233 . S
C748 C324 1.344 . S
C759 C104 1.349 . S
C764 C335 1.321 . S
C775 C346 1.360 . S
C780 C115 1.294 . S
C791 C126 1.242 . S
C796 C313 1.351 . S
C807 C302 1.216 . S
C812 C137 1.304 . S
C823 C148 1.332 . S
C828 C269 1.224 . S
C839 C280 1.307 . S
C844 C159 1.356 . S
C855 C291 1.328 . S
C860 C170 1.221 . S
C871 C73 1.560 . S
C876 C7 1.565 . S
C887 C84 1.525 . S
C892 C18 1.535 . S
C903 C51 1.544 . S
C908 C29 1.529 . S
C919 C62 1.532 . S
C924 C40 1.548 . S
C935 C95 1.496 . S
C940 C161 1.467 . S
C951 C172 1.516 . S
C956 C106 1.504 . S
C967 C117 1.466 . S
C972 C139 1.498 . S
C983 C150 1.526 . S
C988 C128 1.457 . S
C999 C183 1.525 . S
C1004 C249 1.528 . S
C1015 C194 1.564 . S
C1020 C260 1.563 . S
C1031 C205 1.534 . S
C1036 C227 1.549 . S
C1047 C216 1.563 . S
C1052 C238 1.550 . S
C1063 C337 1.465 . S
C1068 C271 1.499 . S
C1079 C348 1.468 . S
C1084 C282 1.495 . S
C1095 C293 1.480 . S
C1100 C315 1.480 . S
C1111 C326 1.504 . S
C1116 C304 1.517 . S
