# Generated by pormake.
# Topology qdl, (4)-cn, num edge types: 1
# Building blocks:
#     Node 0, Type 0, BuildingBlock: KOZSID_clean_sbu_0, # of connection points: 4
#     Node 1, Type 0, BuildingBlock: KOZSID_clean_sbu_0, # of connection points: 4
#     Node 2, Type 0, BuildingBlock: KOZSID_clean_sbu_0, # of connection points: 4
#     Node 3, Type 0, BuildingBlock: KOZSID_clean_sbu_0, # of connection points: 4
#     Node 4, Type 0, BuildingBlock: KOZSID_clean_sbu_0, # of connection points: 4
#     Node 5, Type 0, BuildingBlock: KOZSID_clean_sbu_0, # of connection points: 4
#     Edge 6, Type (0, 0), BuildingBlock: AJUNOK_clean_linker_0, # of connection points: 2
#     Edge 7, Type (0, 0), BuildingBlock: AJUNOK_clean_linker_0, # of connection points: 2
#     Edge 8, Type (0, 0), BuildingBlock: AJUNOK_clean_linker_0, # of connection points: 2
#     Edge 9, Type (0, 0), BuildingBlock: AJUNOK_clean_linker_0, # of connection points: 2
#     Edge 10, Type (0, 0), BuildingBlock: AJUNOK_clean_linker_0, # of connection points: 2
#     Edge 11, Type (0, 0), BuildingBlock: AJUNOK_clean_linker_0, # of connection points: 2
#     Edge 12, Type (0, 0), BuildingBlock: AJUNOK_clean_linker_0, # of connection points: 2
#     Edge 13, Type (0, 0), BuildingBlock: AJUNOK_clean_linker_0, # of connection points: 2
#     Edge 14, Type (0, 0), BuildingBlock: AJUNOK_clean_linker_0, # of connection points: 2
#     Edge 15, Type (0, 0), BuildingBlock: AJUNOK_clean_linker_0, # of connection points: 2
#     Edge 16, Type (0, 0), BuildingBlock: AJUNOK_clean_linker_0, # of connection points: 2
#     Edge 17, Type (0, 0), BuildingBlock: AJUNOK_clean_linker_0, # of connection points: 2
# Relax obj value: 0.000
# Max RMSD: 0.051
# Mean RMSD: 0.050
data_MOF--net-qdl--node1-KOZSID_clean_sbu_0--edge1-AJUNOK_clean_linker_0
_symmetry_space_group_name_H-M    P1
_symmetry_Int_Tables_number       1
_symmetry_cell_setting            triclinic
loop_
_symmetry_equiv_pos_as_xyz
'x, y, z'
_cell_length_a     12.712666
_cell_length_b     12.704499
_cell_length_c     92.899353
_cell_angle_alpha  101.69263
_cell_angle_beta   101.84411
_cell_angle_gamma 120.23401
loop_
_atom_site_label
_atom_site_type_symbol
_atom_site_fract_x
_atom_site_fract_y
_atom_site_fract_z
_atom_type_partial_charge
C0 C 0.48936 0.682 0.1121 0.0
C1 C 0.60976 0.80185 0.11881 0.0
C2 C 0.70225 0.77589 0.12179 0.0
C3 C 0.63334 0.64232 0.11677 0.0
N4 N 0.5022 0.58131 0.11095 0.0
Co5 Co 0.36518 0.3879 0.10181 0.0
N6 N 0.50143 0.34949 0.10443 0.0
C7 C 0.63249 0.43706 0.10975 0.0
C8 C 0.70083 0.38114 0.11037 0.0
C9 C 0.60801 0.25011 0.10536 0.0
C10 C 0.48812 0.2339 0.10202 0.0
N11 N 0.22821 0.19445 0.09304 0.0
C12 C 0.24136 0.09405 0.09208 0.0
C13 C 0.121 0.97438 0.08607 0.0
C14 C 1.02824 1.00013 0.08334 0.0
C15 C 0.09701 0.13343 0.08785 0.0
N16 N 0.22892 0.42632 0.09884 0.0
C17 C 0.09765 0.33866 0.09285 0.0
C18 C 1.02936 0.39436 0.09153 0.0
C19 C 0.12251 0.52539 0.09668 0.0
C20 C 0.24254 0.5418 0.10086 0.0
N21 N 0.36669 0.38871 0.12338 0.0
C22 C 0.36778 0.37669 0.15353 0.0
C23 C 0.25111 0.3226 0.1411 0.0
C24 C 0.25275 0.32958 0.12628 0.0
C25 C 0.48419 0.43987 0.15068 0.0
C26 C 0.48148 0.44467 0.13568 0.0
N27 N 0.36363 0.38715 0.08025 0.0
C28 C 0.24503 0.3158 0.05233 0.0
C29 C 0.36 0.39715 0.05 0.0
C30 C 0.47712 0.47144 0.063 0.0
C31 C 0.47684 0.46439 0.07784 0.0
C32 C 0.24883 0.31292 0.06742 0.0
H33 H 0.5696 0.52304 0.0872 0.0
H34 H 0.15742 0.25084 0.06843 0.0
H35 H 0.16026 0.28499 0.11731 0.0
H36 H 0.57355 0.49346 0.1343 0.0
C37 C 0.68867 0.57126 0.11563 0.0
C38 C 0.36633 0.66823 0.10597 0.0
C39 C 0.36517 0.10783 0.09744 0.0
C40 C 1.04158 0.20447 0.08796 0.0
H41 H 0.62885 0.89781 0.12082 0.0
H42 H 0.80729 0.84578 0.12639 0.0
H43 H 0.80581 0.43014 0.11454 0.0
H44 H 0.62644 0.17515 0.10468 0.0
H45 H 0.10233 0.87867 0.0842 0.0
H46 H 0.92328 0.93032 0.07898 0.0
H47 H 0.92439 0.34532 0.08699 0.0
H48 H 0.10439 0.60031 0.097 0.0
H49 H 0.15828 0.27273 0.1427 0.0
H50 H 0.57753 0.48634 0.16002 0.0
H51 H 0.15191 0.25622 0.04258 0.0
H52 H 0.56906 0.53398 0.0617 0.0
C53 C 0.42679 0.13484 0.42821 0.0
C54 C 0.40816 1.01412 0.42309 0.0
C55 C 0.27646 0.9223 0.41714 0.0
C56 C 0.22249 0.99194 0.41889 0.0
N57 N 0.31169 0.12262 0.42592 0.0
Co58 Co 0.27561 0.26048 0.42961 0.0
N59 N 0.08178 0.12558 0.42041 0.0
C60 C 1.01916 0.99425 0.41461 0.0
C61 C 0.88598 0.92664 0.41014 0.0
C62 C 0.86211 1.02034 0.41362 0.0
C63 C 0.98271 0.13996 0.42002 0.0
N64 N 0.23965 0.39845 0.43274 0.0
C65 C 0.12489 0.38667 0.43054 0.0
C66 C 0.14325 0.50765 0.43433 0.0
C67 C 0.27458 0.59921 0.43931 0.0
C68 C 0.32872 0.52929 0.4383 0.0
N69 N 0.46934 0.39529 0.43949 0.0
C70 C 0.53152 0.52626 0.44601 0.0
C71 C 0.6651 0.59372 0.45173 0.0
C72 C 0.68982 0.50041 0.44853 0.0
C73 C 0.56933 0.38114 0.44093 0.0
N74 N 0.27145 0.25408 0.45077 0.0
C75 C 0.24843 0.24412 0.4802 0.0
C76 C 0.31151 0.36302 0.47789 0.0
C77 C 0.32192 0.36581 0.46325 0.0
C78 C 0.20072 0.1306 0.46765 0.0
C79 C 0.21305 0.13767 0.45316 0.0
N80 N 0.27944 0.26711 0.40837 0.0
C81 C 0.37678 0.38672 0.3922 0.0
C82 C 0.29211 0.27569 0.37855 0.0
C83 C 0.19982 0.16056 0.37997 0.0
C84 C 0.19612 0.15795 0.39488 0.0
C85 C 0.36781 0.38082 0.40682 0.0
H86 H 0.12563 0.06616 0.39517 0.0
H87 H 0.43408 0.4699 0.41668 0.0
H88 H 0.37017 0.45956 0.46225 0.0
H89 H 0.17298 0.04743 0.44398 0.0
C90 C 0.08876 0.93768 0.41398 0.0
C91 C 0.55508 0.25837 0.4344 0.0
C92 C 0.99845 0.26414 0.4261 0.0
C93 C 0.46224 0.58337 0.44466 0.0
H94 H 0.48205 0.99463 0.42335 0.0
H95 H 0.226 0.81743 0.41189 0.0
H96 H 0.81504 0.82174 0.4053 0.0
H97 H 0.76704 1.00279 0.41195 0.0
H98 H 0.06996 0.52792 0.4341 0.0
H99 H 0.32505 0.70437 0.44393 0.0
H100 H 0.73605 0.69858 0.45695 0.0
H101 H 0.78556 0.51824 0.451 0.0
H102 H 0.35338 0.45413 0.48738 0.0
H103 H 0.15161 1.03616 0.46888 0.0
H104 H 0.449 0.47836 0.39158 0.0
H105 H 0.13237 0.07212 0.36963 0.0
C106 C 0.50456 0.46283 0.76857 0.0
C107 C 0.61577 0.46263 0.77075 0.0
C108 C 0.57855 0.33928 0.76972 0.0
C109 C 0.44731 0.27146 0.76698 0.0
N110 N 0.3989 0.34481 0.76652 0.0
Co111 Co 0.21148 0.28352 0.76166 0.0
N112 N 0.15328 0.09804 0.75782 0.0
C113 C 0.22863 0.05162 0.75821 0.0
C114 C 0.16172 0.92074 0.75571 0.0
C115 C 1.03678 0.88175 0.75397 0.0
C116 C 1.03496 0.9917 0.75554 0.0
N117 N 1.02417 0.22235 0.75695 0.0
C118 C 0.9185 0.10421 0.75488 0.0
C119 C 0.80779 0.10502 0.75303 0.0
C120 C 0.84523 0.22873 0.75424 0.0
C121 C 0.97613 0.29618 0.75679 0.0
N122 N 0.2695 0.46876 0.76535 0.0
C123 C 0.19391 0.51494 0.7647 0.0
C124 C 0.26029 0.64511 0.76683 0.0
C125 C 0.38508 0.68375 0.76854 0.0
C126 C 0.38733 0.57434 0.76735 0.0
N127 N 0.23526 0.31237 0.78437 0.0
C128 C 0.24987 0.33377 0.8158 0.0
C129 C 0.19329 0.38401 0.80748 0.0
C130 C 0.18791 0.37321 0.79199 0.0
C131 C 0.30098 0.27467 0.80816 0.0
C132 C 0.29309 0.26543 0.79264 0.0
N133 N 0.18805 0.25502 0.73896 0.0
C134 C 0.11746 0.28823 0.71498 0.0
C135 C 0.17872 0.2398 0.70786 0.0
C136 C 0.24192 0.19621 0.71642 0.0
C137 C 0.24409 0.2032 0.73172 0.0
C138 C 0.12328 0.29494 0.7304 0.0
H139 H 0.29359 0.16791 0.73755 0.0
H140 H 0.07684 0.33526 0.73524 0.0
H141 H 0.14275 0.41278 0.78633 0.0
H142 H 0.33291 0.21817 0.78752 0.0
C143 C 0.3642 0.13607 0.76277 0.0
C144 C 0.50125 0.57343 0.76717 0.0
C145 C 0.9209 0.99212 0.75578 0.0
C146 C 0.05881 0.43101 0.76056 0.0
H147 H 0.71252 0.5418 0.77225 0.0
H148 H 0.6385 0.30172 0.77007 0.0
H149 H 0.20054 0.86209 0.75586 0.0
H150 H 0.957 0.78459 0.75227 0.0
H151 H 0.71108 1.02574 0.75152 0.0
H152 H 0.78547 0.26648 0.75401 0.0
H153 H 0.22124 0.70346 0.76649 0.0
H154 H 0.46445 0.78022 0.76996 0.0
H155 H 0.15015 0.42876 0.81272 0.0
H156 H 0.34699 0.23527 0.81412 0.0
H157 H 0.06812 0.32416 0.70885 0.0
H158 H 0.28958 0.1566 0.71131 0.0
C159 C 0.9091 0.10636 0.58316 0.0
C160 C 0.78921 0.98601 0.57632 0.0
C161 C 0.81509 0.89357 0.57319 0.0
C162 C 0.94866 0.96246 0.57826 0.0
N163 N 1.00972 0.09353 0.58426 0.0
Co164 Co 0.20312 0.23036 0.59344 0.0
N165 N 0.24136 0.09397 0.59069 0.0
C166 C 0.15369 0.96291 0.58532 0.0
C167 C 0.20944 0.89442 0.58469 0.0
C168 C 0.3405 0.98717 0.58974 0.0
C169 C 0.35689 0.10718 0.59312 0.0
N170 N 0.39658 0.3672 0.60219 0.0
C171 C 0.49689 0.35401 0.60309 0.0
C172 C 0.61654 0.47437 0.60908 0.0
C173 C 0.59089 0.56716 0.61187 0.0
C174 C 0.45766 0.49842 0.6074 0.0
N175 N 0.16489 0.36675 0.59663 0.0
C176 C 0.25268 0.49801 0.60277 0.0
C177 C 0.19717 0.56637 0.60425 0.0
C178 C 0.06614 0.47323 0.59906 0.0
C179 C 0.04953 0.35315 0.5947 0.0
N180 N 0.20162 0.23028 0.5719 0.0
C181 C 0.20756 0.23155 0.54161 0.0
C182 C 0.2619 0.34745 0.55416 0.0
C183 C 0.25773 0.34462 0.56903 0.0
C184 C 0.15028 0.11494 0.54451 0.0
C185 C 0.14779 0.11637 0.55956 0.0
N186 N 0.20436 0.23051 0.61498 0.0
C187 C 0.27699 0.34772 0.64296 0.0
C188 C 0.19414 0.23265 0.64518 0.0
C189 C 0.11863 0.11608 0.6321 0.0
C190 C 0.12581 0.11707 0.61728 0.0
C191 C 0.28 0.34468 0.62789 0.0
H192 H 0.0661 1.02472 0.60784 0.0
H193 H 0.34327 0.4362 0.62697 0.0
H194 H 0.3019 0.43659 0.57805 0.0
H195 H 0.10239 1.0241 0.56095 0.0
C196 C 1.01958 0.90696 0.57938 0.0
C197 C 0.92296 0.22923 0.58946 0.0
C198 C 0.48306 0.23016 0.59775 0.0
C199 C 0.38678 0.55395 0.60752 0.0
H200 H 0.69326 0.96684 0.57432 0.0
H201 H 0.74515 0.78851 0.56847 0.0
H202 H 0.16032 0.78941 0.58047 0.0
H203 H 0.41536 0.96864 0.59042 0.0
H204 H 0.71219 0.49303 0.61094 0.0
H205 H 0.66076 0.67215 0.61628 0.0
H206 H 0.24634 0.67134 0.60889 0.0
H207 H 0.99134 0.49138 0.59882 0.0
H208 H 0.30983 0.44071 0.55261 0.0
H209 H 0.10653 1.02249 0.53515 0.0
H210 H 0.33758 0.44041 0.65277 0.0
H211 H 0.05492 1.02402 0.63331 0.0
C212 C 0.12288 0.08103 0.92615 0.0
C213 C 0.12256 0.96948 0.92387 0.0
C214 C 0.24599 1.00664 0.92498 0.0
C215 C 0.31432 0.13818 0.92785 0.0
N216 N 0.24127 0.18686 0.92833 0.0
Co217 Co 0.30296 0.37441 0.9332 0.0
N218 N 0.48832 0.43224 0.93708 0.0
C219 C 0.53464 0.35682 0.93679 0.0
C220 C 0.66529 0.42339 0.93919 0.0
C221 C 0.70414 0.54808 0.94075 0.0
C222 C 0.59439 0.55013 0.93919 0.0
N223 N 0.36432 0.56166 0.9378 0.0
C224 C 0.48209 0.6667 0.93967 0.0
C225 C 0.4817 0.77759 0.94144 0.0
C226 C 0.35836 0.74077 0.94032 0.0
C227 C 0.29081 0.61004 0.93791 0.0
N228 N 0.11786 0.31678 0.92955 0.0
C229 C 0.07222 0.39287 0.93031 0.0
C230 C 0.9421 0.32677 0.92818 0.0
C231 C 0.90288 0.20158 0.92634 0.0
C232 C 1.0119 0.1988 0.92745 0.0
N233 N 0.27413 0.35083 0.9105 0.0
C234 C 0.25836 0.34272 0.8794 0.0
C235 C 0.20241 0.39324 0.8874 0.0
C236 C 0.21103 0.39602 0.90278 0.0
C237 C 0.31783 0.29174 0.88702 0.0
C238 C 0.32436 0.29648 0.90239 0.0
N239 N 0.33201 0.39816 0.95592 0.0
C240 C 0.30288 0.47243 0.98005 0.0
C241 C 0.3501 0.41007 0.98716 0.0
C242 C 0.39106 0.34447 0.97851 0.0
C243 C 0.3826 0.34096 0.96313 0.0
C244 C 0.29466 0.46527 0.96456 0.0
H245 H 0.41583 0.28953 0.95725 0.0
H246 H 0.25539 0.51268 0.95974 0.0
H247 H 0.16738 0.43684 0.90825 0.0
H248 H 0.37278 0.25773 0.90757 0.0
C249 C 0.44985 0.22116 0.93217 0.0
C250 C 1.01192 0.08403 0.92741 0.0
C251 C 0.59334 0.66343 0.93865 0.0
C252 C 0.15623 0.52782 0.93431 0.0
H253 H 1.04279 0.87247 0.92221 0.0
H254 H 0.28318 0.94635 0.92457 0.0
H255 H 0.72366 0.38428 0.93901 0.0
H256 H 0.8009 0.62735 0.94225 0.0
H257 H 0.56107 0.8739 0.94283 0.0
H258 H 0.32087 0.80076 0.94052 0.0
H259 H 0.88402 0.3661 0.92853 0.0
H260 H 0.80617 0.12217 0.92483 0.0
H261 H 0.15186 0.43049 0.88184 0.0
H262 H 0.36211 0.25093 0.8813 0.0
H263 H 0.26894 0.52364 0.98625 0.0
H264 H 0.42965 0.29585 0.9836 0.0
C265 C 0.46351 0.17166 0.26783 0.0
C266 C 0.58422 0.19045 0.2731 0.0
C267 C 0.67592 0.32217 0.27902 0.0
C268 C 0.60618 0.37593 0.27709 0.0
N269 N 0.47558 0.28658 0.26998 0.0
Co270 Co 0.33741 0.32207 0.26606 0.0
N271 N 0.47207 0.51602 0.27528 0.0
C272 C 0.60344 0.5789 0.28116 0.0
C273 C 0.67083 0.71217 0.28581 0.0
C274 C 0.57699 0.73593 0.2824 0.0
C275 C 0.45748 0.61515 0.27585 0.0
N276 N 0.19913 0.35752 0.26272 0.0
C277 C 0.21059 0.47225 0.26505 0.0
C278 C 0.08939 0.4534 0.26109 0.0
C279 C 0.99805 0.3219 0.25593 0.0
C280 C 0.06831 0.26813 0.257 0.0
N281 N 0.20296 0.12833 0.25617 0.0
C282 C 0.07205 0.06579 0.24951 0.0
C283 C 1.0049 0.93222 0.24387 0.0
C284 C 0.09839 0.90793 0.24728 0.0
C285 C 0.2174 1.02866 0.2549 0.0
N286 N 0.3449 0.32596 0.24492 0.0
C287 C 0.35611 0.3397 0.21517 0.0
C288 C 0.23697 0.27942 0.21745 0.0
C289 C 0.23353 0.27347 0.23225 0.0
C290 C 0.46959 0.39292 0.22809 0.0
C291 C 0.46181 0.38454 0.24269 0.0
N292 N 0.32975 0.31792 0.28726 0.0
C293 C 0.21072 0.21816 0.30334 0.0
C294 C 0.32125 0.30335 0.31716 0.0
C295 C 0.43541 0.39799 0.31569 0.0
C296 C 0.43806 0.40228 0.3008 0.0
C297 C 0.21657 0.22806 0.28875 0.0
H298 H 0.52923 0.47488 0.3006 0.0
H299 H 0.12788 0.16095 0.27883 0.0
H300 H 0.13959 0.2266 0.23319 0.0
H301 H 0.55196 0.42749 0.25205 0.0
C302 C 0.66024 0.5096 0.28196 0.0
C303 C 0.34006 1.04352 0.2617 0.0
C304 C 0.33323 0.59953 0.26992 0.0
C305 C 1.01461 0.13473 0.2507 0.0
H306 H 0.60375 0.11668 0.27298 0.0
H307 H 0.78074 0.37279 0.28437 0.0
H308 H 0.77568 0.78335 0.29082 0.0
H309 H 0.59439 0.83116 0.28428 0.0
H310 H 0.06886 0.5266 0.26138 0.0
H311 H 0.89289 0.27117 0.25121 0.0
H312 H 0.9001 0.86104 0.2386 0.0
H313 H 0.08081 0.81234 0.24495 0.0
H314 H 0.14617 0.23611 0.20781 0.0
H315 H 0.56466 0.44312 0.22705 0.0
H316 H 0.11955 0.14282 0.30371 0.0
H317 H 0.52282 0.46997 0.32598 0.0
C318 C 0.38188 0.9819 0.11419 0.0
C319 C 0.36641 0.99546 0.09941 0.0
C320 C 0.38204 0.87568 0.11629 0.0
C321 C 0.36703 0.78065 0.10366 0.0
H322 H 0.39339 0.05362 0.12414 0.0
H323 H 0.39371 0.86746 0.12781 0.0
S324 S 0.32525 0.77347 0.06277 0.0
N325 N 0.337 0.90674 0.07206 0.0
N326 N 0.33754 0.70683 0.07602 0.0
C327 C 0.35205 0.79356 0.08887 0.0
C328 C 0.35181 0.90138 0.08674 0.0
C329 C 0.70782 0.28858 0.41995 0.0
C330 C 0.66937 0.26043 0.43259 0.0
C331 C 0.81511 0.29052 0.41793 0.0
C332 C 0.88716 0.26509 0.42856 0.0
H333 H 0.65406 0.30849 0.41156 0.0
H334 H 0.84175 0.31147 0.408 0.0
S335 S 0.82689 0.18835 0.46363 0.0
N336 N 0.71157 0.20792 0.4559 0.0
N337 N 0.91385 0.21201 0.45214 0.0
C338 C 0.84994 0.23745 0.44126 0.0
C339 C 0.7408 0.23522 0.44329 0.0
C340 C 0.82768 0.8796 0.77366 0.0
C341 C 0.81264 0.88376 0.7584 0.0
C342 C 0.72665 0.77889 0.77647 0.0
C343 C 0.60804 0.67926 0.76408 0.0
H344 H 0.91792 0.95511 0.78346 0.0
H345 H 0.74103 0.77878 0.78837 0.0
S346 S 0.52158 0.64477 0.72204 0.0
N347 N 0.67144 0.77931 0.73079 0.0
N348 N 0.48147 0.58985 0.73608 0.0
C349 C 0.5922 0.68215 0.7488 0.0
C350 C 0.69478 0.78447 0.74594 0.0
C351 C 0.60904 0.21318 0.58108 0.0
C352 C 0.59548 0.22891 0.59585 0.0
C353 C 0.71527 0.21298 0.57903 0.0
C354 C 0.81033 0.22818 0.5917 0.0
H355 H 0.53731 0.20153 0.5711 0.0
H356 H 0.72352 0.20121 0.56752 0.0
S357 S 0.81753 0.27066 0.63259 0.0
N358 N 0.68424 0.25876 0.62324 0.0
N359 N 0.88417 0.25813 0.61938 0.0
C360 C 0.79741 0.2434 0.60648 0.0
C361 C 0.68958 0.24369 0.60856 0.0
C362 C 0.80456 0.88443 0.94819 0.0
C363 C 0.69987 0.76992 0.93562 0.0
C364 C 0.90532 0.98579 0.94542 0.0
C365 C 0.90417 0.9752 0.93001 0.0
H366 H 0.80825 0.89546 0.96019 0.0
H367 H 0.98475 0.07293 0.95535 0.0
S368 S 0.65142 0.69551 0.89321 0.0
N369 N 0.60046 0.65168 0.90733 0.0
N370 N 0.78995 0.84232 0.90211 0.0
C371 C 0.8 0.86133 0.91739 0.0
C372 C 0.69769 0.7584 0.92021 0.0
C373 C 0.3617 0.75142 0.25535 0.0
C374 C 0.33242 0.71204 0.2679 0.0
C375 C 0.36415 0.85909 0.25337 0.0
C376 C 0.33776 0.93022 0.26392 0.0
H377 H 0.38287 0.69859 0.24706 0.0
H378 H 0.38683 0.88709 0.24357 0.0
S379 S 0.25848 0.86794 0.29877 0.0
N380 N 0.27868 0.75308 0.29111 0.0
N381 N 0.28261 0.95539 0.28732 0.0
C382 C 0.30868 0.89198 0.2765 0.0
C383 C 0.30636 0.78276 0.27853 0.0
C384 C 0.28948 0.38708 0.19114 0.0
C385 C 0.36148 0.34884 0.1995 0.0
C386 C 0.29232 0.39609 0.17637 0.0
C387 C 0.36743 0.36744 0.16931 0.0
H388 H 0.23141 0.41178 0.19613 0.0
H389 H 0.23623 0.42721 0.1705 0.0
S390 S 0.56542 0.25275 0.18565 0.0
N391 N 0.50481 0.27549 0.19916 0.0
N392 N 0.51028 0.29257 0.17149 0.0
C393 C 0.43885 0.32778 0.17746 0.0
C394 C 0.43587 0.31849 0.1925 0.0
C395 C 0.25558 0.16385 0.51772 0.0
C396 C 0.21305 0.23264 0.52571 0.0
C397 C 0.2655 0.16688 0.50298 0.0
C398 C 0.23337 0.23889 0.49563 0.0
H399 H 0.28397 0.10925 0.52304 0.0
H400 H 0.30112 0.11448 0.49744 0.0
S401 S 0.10282 0.42364 0.51074 0.0
N402 N 0.12913 0.36672 0.52456 0.0
N403 N 0.1476 0.37229 0.49695 0.0
C404 C 0.18742 0.3052 0.50331 0.0
C405 C 0.17736 0.30215 0.5183 0.0
C406 C 0.21734 0.22762 0.83611 0.0
C407 C 0.25245 0.33909 0.83211 0.0
C408 C 0.21889 0.2295 0.85133 0.0
C409 C 0.25505 0.34274 0.86322 0.0
H410 H 0.18694 0.13741 0.82733 0.0
H411 H 0.1902 0.14092 0.85375 0.0
S412 S 0.3643 0.6635 0.85929 0.0
N413 N 0.33081 0.56806 0.84165 0.0
N414 N 0.33211 0.571 0.87013 0.0
C415 C 0.29104 0.45512 0.85944 0.0
C416 C 0.29011 0.45345 0.84395 0.0
C417 C 0.2969 0.28755 0.02098 0.0
C418 C 0.3578 0.40312 0.03408 0.0
C419 C 0.29571 0.29092 1.00591 0.0
C420 C 0.3534 0.40981 1.0033 0.0
H421 H 0.25134 0.19381 0.02242 0.0
H422 H 0.24805 0.1995 0.99619 0.0
S423 S 0.5228 0.73966 0.03361 0.0
N424 N 0.47579 0.63968 0.04342 0.0
N425 N 0.47261 0.64595 0.01513 0.0
C426 C 0.4133 0.52593 0.01627 0.0
C427 C 0.41596 0.52261 0.03165 0.0
C428 C 0.2039 0.26782 0.33644 0.0
C429 C 0.31578 0.29477 0.3329 0.0
C430 C 0.19608 0.25981 0.35111 0.0
C431 C 0.3005 0.28046 0.36294 0.0
H432 H 0.12203 0.25467 0.32791 0.0
H433 H 0.10857 0.23972 0.35332 0.0
S434 S 0.61103 0.34384 0.35964 0.0
N435 N 0.52982 0.33251 0.34241 0.0
N436 N 0.51653 0.32345 0.37012 0.0
C437 C 0.41225 0.30631 0.35963 0.0
C438 C 0.41962 0.31216 0.34461 0.0
C439 C 0.30279 0.29343 0.67419 0.0
C440 C 0.18765 0.23421 0.66106 0.0
C441 C 0.29881 0.29392 0.68921 0.0
C442 C 0.17978 0.23738 0.69177 0.0
H443 H 0.39661 0.33813 0.67279 0.0
H444 H 0.38985 0.34005 0.69895 0.0
S445 S 0.851 0.07259 0.6614 0.0
N446 N 0.95139 0.11902 0.65166 0.0
N447 N 0.94403 0.12106 0.67988 0.0
C448 C 0.06415 0.17923 0.67878 0.0
C449 C 0.06804 0.17717 0.66344 0.0
loop_
_geom_bond_atom_site_label_1
_geom_bond_atom_site_label_2
_geom_bond_distance
_geom_bond_site_symmetry_2
_ccdc_geom_bond_type
C0 C1 1.443 . S
C0 N4 1.376 . S
C0 C38 1.389 . S
C1 C0 1.443 . S
C1 C2 1.340 . S
C1 H41 0.951 . S
C2 C1 1.340 . S
C2 C3 1.439 . S
C2 H42 0.950 . S
C3 C2 1.439 . S
C3 N4 1.374 . S
C3 C37 1.395 . S
N4 C0 1.376 . S
N4 C3 1.374 . S
N4 Co5 2.008 . S
Co5 N4 2.008 . S
Co5 N6 1.995 . S
Co5 N11 2.008 . S
Co5 N16 1.995 . S
Co5 N21 2.282 . S
Co5 N27 2.282 . S
N6 Co5 1.995 . S
N6 C7 1.376 . S
N6 C10 1.383 . S
C7 N6 1.376 . S
C7 C8 1.446 . S
C7 C37 1.391 . S
C8 C7 1.446 . S
C8 C9 1.339 . S
C8 H43 0.949 . S
C9 C8 1.339 . S
C9 C10 1.439 . S
C9 H44 0.950 . S
C10 N6 1.383 . S
C10 C9 1.439 . S
C10 C39 1.392 . S
N11 Co5 2.008 . S
N11 C12 1.376 . S
N11 C15 1.374 . S
C12 N11 1.376 . S
C12 C13 1.443 . S
C12 C39 1.389 . S
C13 C12 1.443 . S
C13 C14 1.340 . S
C13 H45 0.951 1_545 S
C14 C13 1.340 . S
C14 C15 1.439 . S
C14 H46 0.950 . S
C15 N11 1.374 . S
C15 C14 1.439 . S
C15 C40 1.395 . S
N16 Co5 1.995 . S
N16 C17 1.376 . S
N16 C20 1.383 . S
C17 N16 1.376 . S
C17 C18 1.446 . S
C17 C40 1.391 . S
C18 C17 1.446 . S
C18 C19 1.339 . S
C18 H47 0.949 . S
C19 C18 1.339 . S
C19 C20 1.439 . S
C19 H48 0.950 . S
C20 N16 1.383 . S
C20 C19 1.439 . S
C20 C38 1.392 . S
N21 Co5 2.282 . S
N21 C24 1.332 . S
N21 C26 1.332 . S
C22 C23 1.386 . S
C22 C25 1.388 . S
C23 C22 1.386 . S
C23 C24 1.382 . S
C23 H49 0.950 . S
C24 N21 1.332 . S
C24 C23 1.382 . S
C24 H35 0.952 . S
C25 C22 1.388 . S
C25 C26 1.382 . S
C25 H50 0.950 . S
C26 N21 1.332 . S
C26 C25 1.382 . S
C26 H36 0.948 . S
N27 Co5 2.282 . S
N27 C31 1.332 . S
N27 C32 1.332 . S
C28 C29 1.388 . S
C28 C32 1.382 . S
C28 H51 0.950 . S
C29 C28 1.388 . S
C29 C30 1.386 . S
C30 C29 1.386 . S
C30 C31 1.382 . S
C30 H52 0.950 . S
C31 N27 1.332 . S
C31 C30 1.382 . S
C31 H33 0.952 . S
C32 N27 1.332 . S
C32 C28 1.382 . S
C32 H34 0.948 . S
H33 C31 0.952 . S
H34 C32 0.948 . S
H35 C24 0.952 . S
H36 C26 0.948 . S
C37 C3 1.395 . S
C37 C7 1.391 . S
C38 C0 1.389 . S
C38 C20 1.392 . S
C39 C10 1.392 . S
C39 C12 1.389 . S
C40 C15 1.395 . S
C40 C17 1.391 . S
H41 C1 0.951 . S
H42 C2 0.950 . S
H43 C8 0.949 . S
H44 C9 0.950 . S
H45 C13 0.951 1_565 S
H46 C14 0.950 . S
H47 C18 0.949 . S
H48 C19 0.950 . S
H49 C23 0.950 . S
H50 C25 0.950 . S
H51 C28 0.950 . S
H52 C30 0.950 . S
C53 C54 1.443 . S
C53 N57 1.376 . S
C53 C91 1.389 1_565 S
C54 C53 1.443 . S
C54 C55 1.340 . S
C54 H94 0.951 . S
C55 C54 1.340 . S
C55 C56 1.439 . S
C55 H95 0.950 . S
C56 C55 1.439 . S
C56 N57 1.374 . S
C56 C90 1.395 1_455 S
N57 C53 1.376 . S
N57 C56 1.374 . S
N57 Co58 2.008 1_565 S
Co58 N57 2.008 1_545 S
Co58 N59 1.995 1_445 S
Co58 N64 2.008 . S
Co58 N69 1.995 . S
Co58 N74 2.282 . S
Co58 N80 2.282 . S
N59 Co58 1.995 1_665 S
N59 C60 1.376 . S
N59 C63 1.383 . S
C60 N59 1.376 . S
C60 C61 1.446 . S
C60 C90 1.391 . S
C61 C60 1.446 . S
C61 C62 1.339 . S
C61 H96 0.949 . S
C62 C61 1.339 . S
C62 C63 1.439 . S
C62 H97 0.950 . S
C63 N59 1.383 . S
C63 C62 1.439 . S
C63 C92 1.392 1_565 S
N64 Co58 2.008 . S
N64 C65 1.376 . S
N64 C68 1.374 . S
C65 N64 1.376 . S
C65 C66 1.443 . S
C65 C92 1.389 1_455 S
C66 C65 1.443 . S
C66 C67 1.340 . S
C66 H98 0.951 1_455 S
C67 C66 1.340 . S
C67 C68 1.439 . S
C67 H99 0.950 . S
C68 N64 1.374 . S
C68 C67 1.439 . S
C68 C93 1.395 . S
N69 Co58 1.995 . S
N69 C70 1.376 . S
N69 C73 1.383 . S
C70 N69 1.376 . S
C70 C71 1.446 . S
C70 C93 1.391 . S
C71 C70 1.446 . S
C71 C72 1.339 . S
C71 H100 0.949 . S
C72 C71 1.339 . S
C72 C73 1.439 . S
C72 H101 0.950 . S
C73 N69 1.383 . S
C73 C72 1.439 . S
C73 C91 1.392 . S
N74 Co58 2.282 . S
N74 C77 1.332 . S
N74 C79 1.332 1_545 S
C75 C76 1.386 1_565 S
C75 C78 1.388 . S
C76 C75 1.386 1_545 S
C76 C77 1.382 . S
C76 H102 0.950 . S
C77 N74 1.332 . S
C77 C76 1.382 . S
C77 H88 0.952 . S
C78 C75 1.388 . S
C78 C79 1.382 . S
C78 H103 0.950 1_455 S
C79 N74 1.332 1_565 S
C79 C78 1.382 . S
C79 H89 0.948 . S
N80 Co58 2.282 . S
N80 C84 1.332 1_545 S
N80 C85 1.332 . S
C81 C82 1.388 . S
C81 C85 1.382 . S
C81 H104 0.950 . S
C82 C81 1.388 . S
C82 C83 1.386 1_545 S
C83 C82 1.386 1_565 S
C83 C84 1.382 . S
C83 H105 0.950 . S
C84 N80 1.332 1_565 S
C84 C83 1.382 . S
C84 H86 0.952 . S
C85 N80 1.332 . S
C85 C81 1.382 . S
C85 H87 0.948 . S
H86 C84 0.952 . S
H87 C85 0.948 . S
H88 C77 0.952 . S
H89 C79 0.948 . S
C90 C56 1.395 1_655 S
C90 C60 1.391 . S
C91 C53 1.389 1_545 S
C91 C73 1.392 . S
C92 C63 1.392 1_545 S
C92 C65 1.389 1_655 S
C93 C68 1.395 . S
C93 C70 1.391 . S
H94 C54 0.951 . S
H95 C55 0.950 . S
H96 C61 0.949 . S
H97 C62 0.950 . S
H98 C66 0.951 1_655 S
H99 C67 0.950 . S
H100 C71 0.949 . S
H101 C72 0.950 . S
H102 C76 0.950 . S
H103 C78 0.950 1_655 S
H104 C81 0.950 . S
H105 C83 0.950 . S
C106 C107 1.443 . S
C106 N110 1.376 . S
C106 C144 1.389 . S
C107 C106 1.443 . S
C107 C108 1.340 . S
C107 H147 0.951 . S
C108 C107 1.340 . S
C108 C109 1.439 . S
C108 H148 0.950 . S
C109 C108 1.439 . S
C109 N110 1.374 . S
C109 C143 1.395 . S
N110 C106 1.376 . S
N110 C109 1.374 . S
N110 Co111 2.008 . S
Co111 N110 2.008 . S
Co111 N112 1.995 . S
Co111 N117 2.008 1_455 S
Co111 N122 1.995 . S
Co111 N127 2.282 . S
Co111 N133 2.282 . S
N112 Co111 1.995 . S
N112 C113 1.376 . S
N112 C116 1.383 1_455 S
C113 N112 1.376 . S
C113 C114 1.446 1_545 S
C113 C143 1.391 . S
C114 C113 1.446 1_565 S
C114 C115 1.339 1_455 S
C114 H149 0.949 . S
C115 C114 1.339 1_655 S
C115 C116 1.439 1_565 S
C115 H150 0.950 . S
C116 N112 1.383 1_655 S
C116 C115 1.439 1_545 S
C116 C145 1.392 . S
N117 Co111 2.008 1_655 S
N117 C118 1.376 . S
N117 C121 1.374 . S
C118 N117 1.376 . S
C118 C119 1.443 . S
C118 C145 1.389 . S
C119 C118 1.443 . S
C119 C120 1.340 . S
C119 H151 0.951 . S
C120 C119 1.340 . S
C120 C121 1.439 . S
C120 H152 0.950 . S
C121 N117 1.374 . S
C121 C120 1.439 . S
C121 C146 1.395 . S
N122 Co111 1.995 . S
N122 C123 1.376 . S
N122 C126 1.383 . S
C123 N122 1.376 . S
C123 C124 1.446 . S
C123 C146 1.391 1_455 S
C124 C123 1.446 . S
C124 C125 1.339 . S
C124 H153 0.949 . S
C125 C124 1.339 . S
C125 C126 1.439 . S
C125 H154 0.950 . S
C126 N122 1.383 . S
C126 C125 1.439 . S
C126 C144 1.392 . S
N127 Co111 2.282 . S
N127 C130 1.332 . S
N127 C132 1.332 . S
C128 C129 1.386 . S
C128 C131 1.388 . S
C129 C128 1.386 . S
C129 C130 1.382 . S
C129 H155 0.950 . S
C130 N127 1.332 . S
C130 C129 1.382 . S
C130 H141 0.952 . S
C131 C128 1.388 . S
C131 C132 1.382 . S
C131 H156 0.950 . S
C132 N127 1.332 . S
C132 C131 1.382 . S
C132 H142 0.948 . S
N133 Co111 2.282 . S
N133 C137 1.332 . S
N133 C138 1.332 1_455 S
C134 C135 1.394 . S
C134 C138 1.380 1_455 S
C134 H157 0.946 1_455 S
C135 C134 1.394 . S
C135 C136 1.386 . S
C136 C135 1.386 . S
C136 C137 1.382 . S
C136 H158 0.950 . S
C137 N133 1.332 . S
C137 C136 1.382 . S
C137 H139 0.952 . S
C138 N133 1.332 1_655 S
C138 C134 1.380 1_655 S
C138 H140 0.948 . S
H139 C137 0.952 . S
H140 C138 0.948 . S
H141 C130 0.952 . S
H142 C132 0.948 . S
C143 C109 1.395 . S
C143 C113 1.391 . S
C144 C106 1.389 . S
C144 C126 1.392 . S
C145 C116 1.392 . S
C145 C118 1.389 . S
C146 C121 1.395 . S
C146 C123 1.391 1_655 S
H147 C107 0.951 . S
H148 C108 0.950 . S
H149 C114 0.949 . S
H150 C115 0.950 . S
H151 C119 0.951 . S
H152 C120 0.950 . S
H153 C124 0.949 . S
H154 C125 0.950 . S
H155 C129 0.950 . S
H156 C131 0.950 . S
H157 C134 0.946 1_655 S
H158 C136 0.950 . S
C159 C160 1.443 . S
C159 N163 1.376 . S
C159 C197 1.389 1_565 S
C160 C159 1.443 . S
C160 C161 1.340 . S
C160 H200 0.951 . S
C161 C160 1.340 . S
C161 C162 1.439 . S
C161 H201 0.950 . S
C162 C161 1.439 . S
C162 N163 1.374 . S
C162 C196 1.395 . S
N163 C159 1.376 . S
N163 C162 1.374 . S
N163 Co164 2.008 1_665 S
Co164 N163 2.008 1_445 S
Co164 N165 1.995 1_545 S
Co164 N170 2.008 . S
Co164 N175 1.998 . S
Co164 N180 2.282 1_545 S
Co164 N186 2.282 . S
N165 Co164 1.995 1_565 S
N165 C166 1.376 1_455 S
N165 C169 1.383 . S
C166 N165 1.376 1_655 S
C166 C167 1.446 1_655 S
C166 C196 1.391 . S
C167 C166 1.446 1_455 S
C167 C168 1.339 . S
C167 H202 0.949 . S
C168 C167 1.339 . S
C168 C169 1.439 . S
C168 H203 0.950 . S
C169 N165 1.383 . S
C169 C168 1.439 . S
C169 C198 1.392 1_565 S
N170 Co164 2.008 . S
N170 C171 1.376 . S
N170 C174 1.374 . S
C171 N170 1.376 . S
C171 C172 1.443 . S
C171 C198 1.389 . S
C172 C171 1.443 . S
C172 C173 1.340 . S
C172 H204 0.951 . S
C173 C172 1.340 . S
C173 C174 1.439 . S
C173 H205 0.950 . S
C174 N170 1.374 . S
C174 C173 1.439 . S
C174 C199 1.395 . S
N175 Co164 1.998 . S
N175 C176 1.377 . S
N175 C179 1.379 1_455 S
C176 N175 1.377 . S
C176 C177 1.446 . S
C176 C199 1.391 . S
C177 C176 1.446 . S
C177 C178 1.339 1_455 S
C177 H206 0.949 . S
C178 C177 1.339 1_655 S
C178 C179 1.439 . S
C178 H207 0.950 . S
C179 N175 1.379 1_655 S
C179 C178 1.439 . S
C179 C197 1.392 . S
N180 Co164 2.282 1_565 S
N180 C183 1.332 1_565 S
N180 C185 1.332 1_455 S
C181 C182 1.386 1_565 S
C181 C184 1.388 . S
C182 C181 1.386 1_545 S
C182 C183 1.382 . S
C182 H208 0.950 . S
C183 N180 1.332 1_545 S
C183 C182 1.382 . S
C183 H194 0.952 . S
C184 C181 1.388 . S
C184 C185 1.382 1_455 S
C184 H209 0.950 1_455 S
C185 N180 1.332 1_655 S
C185 C184 1.382 1_655 S
C185 H195 0.948 . S
N186 Co164 2.282 . S
N186 C190 1.332 1_545 S
N186 C191 1.332 . S
C187 C188 1.388 . S
C187 C191 1.382 . S
C187 H210 0.950 . S
C188 C187 1.388 . S
C188 C189 1.386 1_445 S
C189 C188 1.386 1_665 S
C189 C190 1.382 1_655 S
C189 H211 0.950 . S
C190 N186 1.332 1_565 S
C190 C189 1.382 1_455 S
C190 H192 0.952 1_455 S
C191 N186 1.332 . S
C191 C187 1.382 . S
C191 H193 0.948 . S
H192 C190 0.952 1_655 S
H193 C191 0.948 . S
H194 C183 0.952 . S
H195 C185 0.948 . S
C196 C162 1.395 . S
C196 C166 1.391 . S
C197 C159 1.389 1_545 S
C197 C179 1.392 . S
C198 C169 1.392 1_545 S
C198 C171 1.389 . S
C199 C174 1.395 . S
C199 C176 1.391 . S
H200 C160 0.951 . S
H201 C161 0.950 . S
H202 C167 0.949 . S
H203 C168 0.950 . S
H204 C172 0.951 . S
H205 C173 0.950 . S
H206 C177 0.949 . S
H207 C178 0.950 . S
H208 C182 0.950 . S
H209 C184 0.950 1_655 S
H210 C187 0.950 . S
H211 C189 0.950 . S
C212 C213 1.443 . S
C212 N216 1.376 . S
C212 C250 1.389 1_455 S
C213 C212 1.443 . S
C213 C214 1.340 . S
C213 H253 0.951 1_445 S
C214 C213 1.340 . S
C214 C215 1.439 . S
C214 H254 0.950 . S
C215 C214 1.439 . S
C215 N216 1.374 . S
C215 C249 1.395 . S
N216 C212 1.376 . S
N216 C215 1.374 . S
N216 Co217 2.008 . S
Co217 N216 2.008 . S
Co217 N218 1.995 . S
Co217 N223 2.008 . S
Co217 N228 1.995 . S
Co217 N233 2.282 . S
Co217 N239 2.282 . S
N218 Co217 1.995 . S
N218 C219 1.376 . S
N218 C222 1.383 . S
C219 N218 1.376 . S
C219 C220 1.446 . S
C219 C249 1.391 . S
C220 C219 1.446 . S
C220 C221 1.339 . S
C220 H255 0.949 . S
C221 C220 1.339 . S
C221 C222 1.439 . S
C221 H256 0.950 . S
C222 N218 1.383 . S
C222 C221 1.439 . S
C222 C251 1.392 . S
N223 Co217 2.008 . S
N223 C224 1.376 . S
N223 C227 1.374 . S
C224 N223 1.376 . S
C224 C225 1.443 . S
C224 C251 1.389 . S
C225 C224 1.443 . S
C225 C226 1.340 . S
C225 H257 0.951 . S
C226 C225 1.340 . S
C226 C227 1.439 . S
C226 H258 0.950 . S
C227 N223 1.374 . S
C227 C226 1.439 . S
C227 C252 1.395 . S
N228 Co217 1.995 . S
N228 C229 1.376 1_455 S
N228 C232 1.383 1_455 S
C229 N228 1.376 1_655 S
C229 C230 1.446 . S
C229 C252 1.391 1_655 S
C230 C229 1.446 . S
C230 C231 1.339 . S
C230 H259 0.949 . S
C231 C230 1.339 . S
C231 C232 1.439 . S
C231 H260 0.950 . S
C232 N228 1.383 1_655 S
C232 C231 1.439 . S
C232 C250 1.392 . S
N233 Co217 2.282 . S
N233 C236 1.332 . S
N233 C238 1.332 . S
C234 C235 1.386 . S
C234 C237 1.388 . S
C235 C234 1.386 . S
C235 C236 1.382 . S
C235 H261 0.950 . S
C236 N233 1.332 . S
C236 C235 1.382 . S
C236 H247 0.952 . S
C237 C234 1.388 . S
C237 C238 1.382 . S
C237 H262 0.950 . S
C238 N233 1.332 . S
C238 C237 1.382 . S
C238 H248 0.948 . S
N239 Co217 2.282 . S
N239 C243 1.332 . S
N239 C244 1.332 . S
C240 C241 1.388 . S
C240 C244 1.382 . S
C240 H263 0.950 . S
C241 C240 1.388 . S
C241 C242 1.386 . S
C242 C241 1.386 . S
C242 C243 1.382 . S
C242 H264 0.950 . S
C243 N239 1.332 . S
C243 C242 1.382 . S
C243 H245 0.952 . S
C244 N239 1.332 . S
C244 C240 1.382 . S
C244 H246 0.948 . S
H245 C243 0.952 . S
H246 C244 0.948 . S
H247 C236 0.952 . S
H248 C238 0.948 . S
C249 C215 1.395 . S
C249 C219 1.391 . S
C250 C212 1.389 1_655 S
C250 C232 1.392 . S
C251 C222 1.392 . S
C251 C224 1.389 . S
C252 C227 1.395 . S
C252 C229 1.391 1_455 S
H253 C213 0.951 1_665 S
H254 C214 0.950 . S
H255 C220 0.949 . S
H256 C221 0.950 . S
H257 C225 0.951 . S
H258 C226 0.950 . S
H259 C230 0.949 . S
H260 C231 0.950 . S
H261 C235 0.950 . S
H262 C237 0.950 . S
H263 C240 0.950 . S
H264 C242 0.950 . S
C265 C266 1.443 . S
C265 N269 1.376 . S
C265 C303 1.389 . S
C266 C265 1.443 . S
C266 C267 1.340 . S
C266 H306 0.951 . S
C267 C266 1.340 . S
C267 C268 1.439 . S
C267 H307 0.950 . S
C268 C267 1.439 . S
C268 N269 1.374 . S
C268 C302 1.395 . S
N269 C265 1.376 . S
N269 C268 1.374 . S
N269 Co270 2.008 . S
Co270 N269 2.008 . S
Co270 N271 1.995 . S
Co270 N276 2.008 . S
Co270 N281 1.995 . S
Co270 N286 2.282 . S
Co270 N292 2.282 . S
N271 Co270 1.995 . S
N271 C272 1.376 . S
N271 C275 1.383 . S
C272 N271 1.376 . S
C272 C273 1.446 . S
C272 C302 1.391 . S
C273 C272 1.446 . S
C273 C274 1.339 . S
C273 H308 0.949 . S
C274 C273 1.339 . S
C274 C275 1.439 . S
C274 H309 0.950 . S
C275 N271 1.383 . S
C275 C274 1.439 . S
C275 C304 1.392 . S
N276 Co270 2.008 . S
N276 C277 1.376 . S
N276 C280 1.374 . S
C277 N276 1.376 . S
C277 C278 1.443 . S
C277 C304 1.389 . S
C278 C277 1.443 . S
C278 C279 1.340 . S
C278 H310 0.951 . S
C279 C278 1.340 . S
C279 C280 1.439 . S
C279 H311 0.950 . S
C280 N276 1.374 . S
C280 C279 1.439 . S
C280 C305 1.395 . S
N281 Co270 1.995 . S
N281 C282 1.376 . S
N281 C285 1.383 . S
C282 N281 1.376 . S
C282 C283 1.446 1_545 S
C282 C305 1.391 . S
C283 C282 1.446 1_565 S
C283 C284 1.339 . S
C283 H312 0.949 . S
C284 C283 1.339 . S
C284 C285 1.439 1_565 S
C284 H313 0.950 . S
C285 N281 1.383 . S
C285 C284 1.439 1_545 S
C285 C303 1.392 . S
N286 Co270 2.282 . S
N286 C289 1.332 . S
N286 C291 1.332 . S
C287 C288 1.386 . S
C287 C290 1.388 . S
C288 C287 1.386 . S
C288 C289 1.382 . S
C288 H314 0.950 . S
C289 N286 1.332 . S
C289 C288 1.382 . S
C289 H300 0.952 . S
C290 C287 1.388 . S
C290 C291 1.382 . S
C290 H315 0.950 . S
C291 N286 1.332 . S
C291 C290 1.382 . S
C291 H301 0.948 . S
N292 Co270 2.282 . S
N292 C296 1.332 . S
N292 C297 1.332 . S
C293 C294 1.388 . S
C293 C297 1.382 . S
C293 H316 0.950 . S
C294 C293 1.388 . S
C294 C295 1.386 . S
C295 C294 1.386 . S
C295 C296 1.382 . S
C295 H317 0.950 . S
C296 N292 1.332 . S
C296 C295 1.382 . S
C296 H298 0.952 . S
C297 N292 1.332 . S
C297 C293 1.382 . S
C297 H299 0.948 . S
H298 C296 0.952 . S
H299 C297 0.948 . S
H300 C289 0.952 . S
H301 C291 0.948 . S
C302 C268 1.395 . S
C302 C272 1.391 . S
C303 C265 1.389 . S
C303 C285 1.392 . S
C304 C275 1.392 . S
C304 C277 1.389 . S
C305 C280 1.395 . S
C305 C282 1.391 . S
H306 C266 0.951 . S
H307 C267 0.950 . S
H308 C273 0.949 . S
H309 C274 0.950 . S
H310 C278 0.951 . S
H311 C279 0.950 . S
H312 C283 0.949 . S
H313 C284 0.950 . S
H314 C288 0.950 . S
H315 C290 0.950 . S
H316 C293 0.950 . S
H317 C295 0.950 . S
C318 C319 1.369 . S
C318 C320 1.419 1_545 S
C318 H322 0.930 . S
C319 C318 1.369 . S
C319 C328 1.429 1_545 S
C320 C318 1.419 1_565 S
C320 C321 1.363 . S
C320 H323 0.929 . S
C321 C320 1.363 . S
C321 C327 1.428 . S
H322 C318 0.930 . S
H323 C320 0.929 . S
S324 N325 1.613 . S
S324 N326 1.610 . S
N325 S324 1.613 . S
N325 C328 1.350 . S
N326 S324 1.610 . S
N326 C327 1.351 . S
C327 C321 1.428 . S
C327 N326 1.351 . S
C327 C328 1.434 . S
C328 C319 1.429 1_565 S
C328 N325 1.350 . S
C328 C327 1.434 . S
C329 C330 1.369 . S
C329 C331 1.419 . S
C329 H333 0.930 . S
C330 C329 1.369 . S
C330 C339 1.429 1_545 S
C331 C329 1.419 . S
C331 C332 1.363 . S
C331 H334 0.929 . S
C332 C331 1.363 . S
C332 C338 1.428 1_545 S
H333 C329 0.930 . S
H334 C331 0.929 . S
S335 N336 1.613 . S
S335 N337 1.610 . S
N336 S335 1.613 . S
N336 C339 1.350 . S
N337 S335 1.610 . S
N337 C338 1.351 . S
C338 C332 1.428 1_565 S
C338 N337 1.351 . S
C338 C339 1.434 . S
C339 C330 1.429 1_565 S
C339 N336 1.350 . S
C339 C338 1.434 . S
C340 C341 1.369 . S
C340 C342 1.419 . S
C340 H344 0.930 . S
C341 C340 1.369 . S
C341 C350 1.429 . S
C342 C340 1.419 . S
C342 C343 1.363 . S
C342 H345 0.929 . S
C343 C342 1.363 . S
C343 C349 1.428 . S
H344 C340 0.930 . S
H345 C342 0.929 . S
S346 N347 1.613 . S
S346 N348 1.610 . S
N347 S346 1.613 . S
N347 C350 1.350 . S
N348 S346 1.610 . S
N348 C349 1.351 . S
C349 C343 1.428 . S
C349 N348 1.351 . S
C349 C350 1.434 . S
C350 C341 1.429 . S
C350 N347 1.350 . S
C350 C349 1.434 . S
C351 C352 1.369 1_565 S
C351 C353 1.419 . S
C351 H355 0.930 . S
C352 C351 1.369 1_545 S
C352 C361 1.429 . S
C353 C351 1.419 . S
C353 C354 1.363 1_565 S
C353 H356 0.929 . S
C354 C353 1.363 1_545 S
C354 C360 1.428 . S
H355 C351 0.930 . S
H356 C353 0.929 . S
S357 N358 1.613 . S
S357 N359 1.610 . S
N358 S357 1.613 . S
N358 C361 1.350 . S
N359 S357 1.610 . S
N359 C360 1.351 . S
C360 C354 1.428 . S
C360 N359 1.351 . S
C360 C361 1.434 . S
C361 C352 1.429 . S
C361 N358 1.350 . S
C361 C360 1.434 . S
C362 C363 1.369 . S
C362 C364 1.419 1_565 S
C362 H366 0.930 . S
C363 C362 1.369 . S
C363 C372 1.429 . S
C364 C362 1.419 1_545 S
C364 C365 1.363 . S
C364 H367 0.929 . S
C365 C364 1.363 . S
C365 C371 1.428 1_545 S
H366 C362 0.930 . S
H367 C364 0.929 . S
S368 N369 1.613 . S
S368 N370 1.610 . S
N369 S368 1.613 . S
N369 C372 1.350 . S
N370 S368 1.610 . S
N370 C371 1.351 . S
C371 C365 1.428 1_565 S
C371 N370 1.351 . S
C371 C372 1.434 . S
C372 C363 1.429 . S
C372 N369 1.350 . S
C372 C371 1.434 . S
C373 C374 1.369 . S
C373 C375 1.419 . S
C373 H377 0.930 . S
C374 C373 1.369 . S
C374 C383 1.429 . S
C375 C373 1.419 . S
C375 C376 1.363 . S
C375 H378 0.929 . S
C376 C375 1.363 . S
C376 C382 1.428 . S
H377 C373 0.930 . S
H378 C375 0.929 . S
S379 N380 1.613 . S
S379 N381 1.610 . S
N380 S379 1.613 . S
N380 C383 1.350 . S
N381 S379 1.610 . S
N381 C382 1.351 . S
C382 C376 1.428 . S
C382 N381 1.351 . S
C382 C383 1.434 . S
C383 C374 1.429 . S
C383 N380 1.350 . S
C383 C382 1.434 . S
C384 C385 1.369 . S
C384 C386 1.419 . S
C384 H388 0.930 . S
C385 C384 1.369 . S
C385 C394 1.429 . S
C386 C384 1.419 . S
C386 C387 1.363 . S
C386 H389 0.929 . S
C387 C386 1.363 . S
C387 C393 1.428 . S
H388 C384 0.930 . S
H389 C386 0.929 . S
S390 N391 1.613 . S
S390 N392 1.610 . S
N391 S390 1.613 . S
N391 C394 1.350 . S
N392 S390 1.610 . S
N392 C393 1.351 . S
C393 C387 1.428 . S
C393 N392 1.351 . S
C393 C394 1.434 . S
C394 C385 1.429 . S
C394 N391 1.350 . S
C394 C393 1.434 . S
C395 C396 1.369 . S
C395 C397 1.419 . S
C395 H399 0.930 . S
C396 C395 1.369 . S
C396 C405 1.429 1_465 S
C397 C395 1.419 . S
C397 C398 1.363 . S
C397 H400 0.929 . S
C398 C397 1.363 . S
C398 C404 1.428 1_565 S
H399 C395 0.930 . S
H400 C397 0.929 . S
S401 N402 1.613 . S
S401 N403 1.610 . S
N402 S401 1.613 . S
N402 C405 1.350 . S
N403 S401 1.610 . S
N403 C404 1.351 1_655 S
C404 C398 1.428 1_545 S
C404 N403 1.351 1_455 S
C404 C405 1.434 1_455 S
C405 C396 1.429 1_645 S
C405 N402 1.350 . S
C405 C404 1.434 1_655 S
C406 C407 1.369 . S
C406 C408 1.419 . S
C406 H410 0.930 1_455 S
C407 C406 1.369 . S
C407 C416 1.429 . S
C408 C406 1.419 . S
C408 C409 1.363 . S
C408 H411 0.929 1_455 S
C409 C408 1.363 . S
C409 C415 1.428 . S
H410 C406 0.930 1_655 S
H411 C408 0.929 1_655 S
S412 N413 1.613 . S
S412 N414 1.610 . S
N413 S412 1.613 . S
N413 C416 1.350 . S
N414 S412 1.610 . S
N414 C415 1.351 . S
C415 C409 1.428 . S
C415 N414 1.351 . S
C415 C416 1.434 . S
C416 C407 1.429 . S
C416 N413 1.350 . S
C416 C415 1.434 . S
C417 C418 1.369 . S
C417 C419 1.419 1_554 S
C417 H421 0.930 . S
C418 C417 1.369 . S
C418 C427 1.429 . S
C419 C417 1.419 1_556 S
C419 C420 1.363 . S
C419 H422 0.929 . S
C420 C419 1.363 . S
C420 C426 1.428 1_556 S
H421 C417 0.930 . S
H422 C419 0.929 . S
S423 N424 1.613 . S
S423 N425 1.610 . S
N424 S423 1.613 . S
N424 C427 1.350 . S
N425 S423 1.610 . S
N425 C426 1.351 . S
C426 C420 1.428 1_554 S
C426 N425 1.351 . S
C426 C427 1.434 . S
C427 C418 1.429 . S
C427 N424 1.350 . S
C427 C426 1.434 . S
C428 C429 1.369 . S
C428 C430 1.419 . S
C428 H432 0.930 . S
C429 C428 1.369 . S
C429 C438 1.429 . S
C430 C428 1.419 . S
C430 C431 1.363 . S
C430 H433 0.929 . S
C431 C430 1.363 . S
C431 C437 1.428 . S
H432 C428 0.930 . S
H433 C430 0.929 . S
S434 N435 1.613 . S
S434 N436 1.610 . S
N435 S434 1.613 . S
N435 C438 1.350 . S
N436 S434 1.610 . S
N436 C437 1.351 . S
C437 C431 1.428 . S
C437 N436 1.351 . S
C437 C438 1.434 . S
C438 C429 1.429 . S
C438 N435 1.350 . S
C438 C437 1.434 . S
C439 C440 1.369 . S
C439 C441 1.419 . S
C439 H443 0.930 . S
C440 C439 1.369 . S
C440 C449 1.429 1_455 S
C441 C439 1.419 . S
C441 C442 1.363 . S
C441 H444 0.929 . S
C442 C441 1.363 . S
C442 C448 1.428 1_455 S
H443 C439 0.930 . S
H444 C441 0.929 . S
S445 N446 1.613 . S
S445 N447 1.610 . S
N446 S445 1.613 . S
N446 C449 1.350 . S
N447 S445 1.610 . S
N447 C448 1.351 . S
C448 C442 1.428 1_655 S
C448 N447 1.351 . S
C448 C449 1.434 . S
C449 C440 1.429 1_655 S
C449 N446 1.350 . S
C449 C448 1.434 . S
C319 C39 1.499 . S
C321 C38 1.500 . S
C330 C91 1.499 . S
C332 C92 1.500 . S
C341 C145 1.499 1_565 S
C343 C144 1.500 . S
C352 C198 1.500 . S
C354 C197 1.500 . S
C363 C251 1.500 . S
C365 C250 1.500 . S
C374 C304 1.499 . S
C376 C303 1.500 1_565 S
C385 C287 1.543 . S
C387 C22 1.543 . S
C396 C181 1.542 . S
C398 C75 1.543 . S
C407 C128 1.536 . S
C409 C234 1.537 . S
C418 C29 1.570 . S
C420 C241 1.568 . S
C429 C294 1.576 . S
C431 C82 1.573 . S
C440 C188 1.566 . S
C442 C135 1.568 . S
