# Generated by pormake.
# Topology fcj, (5)-cn, num edge types: 1
# Building blocks:
#     Node 0, Type 0, BuildingBlock: BEQFEK_clean_sbu_0, # of connection points: 5
#     Node 1, Type 0, BuildingBlock: BEQFEK_clean_sbu_0, # of connection points: 5
#     Node 2, Type 0, BuildingBlock: BEQFEK_clean_sbu_0, # of connection points: 5
#     Node 3, Type 0, BuildingBlock: BEQFEK_clean_sbu_0, # of connection points: 5
#     Node 4, Type 0, BuildingBlock: BEQFEK_clean_sbu_0, # of connection points: 5
#     Node 5, Type 0, BuildingBlock: BEQFEK_clean_sbu_0, # of connection points: 5
#     Node 6, Type 0, BuildingBlock: BEQFEK_clean_sbu_0, # of connection points: 5
#     Node 7, Type 0, BuildingBlock: BEQFEK_clean_sbu_0, # of connection points: 5
#     Node 8, Type 0, BuildingBlock: BEQFEK_clean_sbu_0, # of connection points: 5
#     Node 9, Type 0, BuildingBlock: BEQFEK_clean_sbu_0, # of connection points: 5
#     Node 10, Type 0, BuildingBlock: BEQFEK_clean_sbu_0, # of connection points: 5
#     Node 11, Type 0, BuildingBlock: BEQFEK_clean_sbu_0, # of connection points: 5
#     Node 12, Type 0, BuildingBlock: BEQFEK_clean_sbu_0, # of connection points: 5
#     Node 13, Type 0, BuildingBlock: BEQFEK_clean_sbu_0, # of connection points: 5
#     Node 14, Type 0, BuildingBlock: BEQFEK_clean_sbu_0, # of connection points: 5
#     Node 15, Type 0, BuildingBlock: BEQFEK_clean_sbu_0, # of connection points: 5
#     Node 16, Type 0, BuildingBlock: BEQFEK_clean_sbu_0, # of connection points: 5
#     Node 17, Type 0, BuildingBlock: BEQFEK_clean_sbu_0, # of connection points: 5
#     Node 18, Type 0, BuildingBlock: BEQFEK_clean_sbu_0, # of connection points: 5
#     Node 19, Type 0, BuildingBlock: BEQFEK_clean_sbu_0, # of connection points: 5
#     Node 20, Type 0, BuildingBlock: BEQFEK_clean_sbu_0, # of connection points: 5
#     Node 21, Type 0, BuildingBlock: BEQFEK_clean_sbu_0, # of connection points: 5
#     Node 22, Type 0, BuildingBlock: BEQFEK_clean_sbu_0, # of connection points: 5
#     Node 23, Type 0, BuildingBlock: BEQFEK_clean_sbu_0, # of connection points: 5
#     Edge 24, Type (0, 0), BuildingBlock: EZIPEK_clean_linker_0, # of connection points: 2
#     Edge 25, Type (0, 0), BuildingBlock: EZIPEK_clean_linker_0, # of connection points: 2
#     Edge 26, Type (0, 0), BuildingBlock: EZIPEK_clean_linker_0, # of connection points: 2
#     Edge 27, Type (0, 0), BuildingBlock: EZIPEK_clean_linker_0, # of connection points: 2
#     Edge 28, Type (0, 0), BuildingBlock: EZIPEK_clean_linker_0, # of connection points: 2
#     Edge 29, Type (0, 0), BuildingBlock: EZIPEK_clean_linker_0, # of connection points: 2
#     Edge 30, Type (0, 0), BuildingBlock: EZIPEK_clean_linker_0, # of connection points: 2
#     Edge 31, Type (0, 0), BuildingBlock: EZIPEK_clean_linker_0, # of connection points: 2
#     Edge 32, Type (0, 0), BuildingBlock: EZIPEK_clean_linker_0, # of connection points: 2
#     Edge 33, Type (0, 0), BuildingBlock: EZIPEK_clean_linker_0, # of connection points: 2
#     Edge 34, Type (0, 0), BuildingBlock: EZIPEK_clean_linker_0, # of connection points: 2
#     Edge 35, Type (0, 0), BuildingBlock: EZIPEK_clean_linker_0, # of connection points: 2
#     Edge 36, Type (0, 0), BuildingBlock: EZIPEK_clean_linker_0, # of connection points: 2
#     Edge 37, Type (0, 0), BuildingBlock: EZIPEK_clean_linker_0, # of connection points: 2
#     Edge 38, Type (0, 0), BuildingBlock: EZIPEK_clean_linker_0, # of connection points: 2
#     Edge 39, Type (0, 0), BuildingBlock: EZIPEK_clean_linker_0, # of connection points: 2
#     Edge 40, Type (0, 0), BuildingBlock: EZIPEK_clean_linker_0, # of connection points: 2
#     Edge 41, Type (0, 0), BuildingBlock: EZIPEK_clean_linker_0, # of connection points: 2
#     Edge 42, Type (0, 0), BuildingBlock: EZIPEK_clean_linker_0, # of connection points: 2
#     Edge 43, Type (0, 0), BuildingBlock: EZIPEK_clean_linker_0, # of connection points: 2
#     Edge 44, Type (0, 0), BuildingBlock: EZIPEK_clean_linker_0, # of connection points: 2
#     Edge 45, Type (0, 0), BuildingBlock: EZIPEK_clean_linker_0, # of connection points: 2
#     Edge 46, Type (0, 0), BuildingBlock: EZIPEK_clean_linker_0, # of connection points: 2
#     Edge 47, Type (0, 0), BuildingBlock: EZIPEK_clean_linker_0, # of connection points: 2
#     Edge 48, Type (0, 0), BuildingBlock: EZIPEK_clean_linker_0, # of connection points: 2
#     Edge 49, Type (0, 0), BuildingBlock: EZIPEK_clean_linker_0, # of connection points: 2
#     Edge 50, Type (0, 0), BuildingBlock: EZIPEK_clean_linker_0, # of connection points: 2
#     Edge 51, Type (0, 0), BuildingBlock: EZIPEK_clean_linker_0, # of connection points: 2
#     Edge 52, Type (0, 0), BuildingBlock: EZIPEK_clean_linker_0, # of connection points: 2
#     Edge 53, Type (0, 0), BuildingBlock: EZIPEK_clean_linker_0, # of connection points: 2
#     Edge 54, Type (0, 0), BuildingBlock: EZIPEK_clean_linker_0, # of connection points: 2
#     Edge 55, Type (0, 0), BuildingBlock: EZIPEK_clean_linker_0, # of connection points: 2
#     Edge 56, Type (0, 0), BuildingBlock: EZIPEK_clean_linker_0, # of connection points: 2
#     Edge 57, Type (0, 0), BuildingBlock: EZIPEK_clean_linker_0, # of connection points: 2
#     Edge 58, Type (0, 0), BuildingBlock: EZIPEK_clean_linker_0, # of connection points: 2
#     Edge 59, Type (0, 0), BuildingBlock: EZIPEK_clean_linker_0, # of connection points: 2
#     Edge 60, Type (0, 0), BuildingBlock: EZIPEK_clean_linker_0, # of connection points: 2
#     Edge 61, Type (0, 0), BuildingBlock: EZIPEK_clean_linker_0, # of connection points: 2
#     Edge 62, Type (0, 0), BuildingBlock: EZIPEK_clean_linker_0, # of connection points: 2
#     Edge 63, Type (0, 0), BuildingBlock: EZIPEK_clean_linker_0, # of connection points: 2
#     Edge 64, Type (0, 0), BuildingBlock: EZIPEK_clean_linker_0, # of connection points: 2
#     Edge 65, Type (0, 0), BuildingBlock: EZIPEK_clean_linker_0, # of connection points: 2
#     Edge 66, Type (0, 0), BuildingBlock: EZIPEK_clean_linker_0, # of connection points: 2
#     Edge 67, Type (0, 0), BuildingBlock: EZIPEK_clean_linker_0, # of connection points: 2
#     Edge 68, Type (0, 0), BuildingBlock: EZIPEK_clean_linker_0, # of connection points: 2
#     Edge 69, Type (0, 0), BuildingBlock: EZIPEK_clean_linker_0, # of connection points: 2
#     Edge 70, Type (0, 0), BuildingBlock: EZIPEK_clean_linker_0, # of connection points: 2
#     Edge 71, Type (0, 0), BuildingBlock: EZIPEK_clean_linker_0, # of connection points: 2
#     Edge 72, Type (0, 0), BuildingBlock: EZIPEK_clean_linker_0, # of connection points: 2
#     Edge 73, Type (0, 0), BuildingBlock: EZIPEK_clean_linker_0, # of connection points: 2
#     Edge 74, Type (0, 0), BuildingBlock: EZIPEK_clean_linker_0, # of connection points: 2
#     Edge 75, Type (0, 0), BuildingBlock: EZIPEK_clean_linker_0, # of connection points: 2
#     Edge 76, Type (0, 0), BuildingBlock: EZIPEK_clean_linker_0, # of connection points: 2
#     Edge 77, Type (0, 0), BuildingBlock: EZIPEK_clean_linker_0, # of connection points: 2
#     Edge 78, Type (0, 0), BuildingBlock: EZIPEK_clean_linker_0, # of connection points: 2
#     Edge 79, Type (0, 0), BuildingBlock: EZIPEK_clean_linker_0, # of connection points: 2
#     Edge 80, Type (0, 0), BuildingBlock: EZIPEK_clean_linker_0, # of connection points: 2
#     Edge 81, Type (0, 0), BuildingBlock: EZIPEK_clean_linker_0, # of connection points: 2
#     Edge 82, Type (0, 0), BuildingBlock: EZIPEK_clean_linker_0, # of connection points: 2
#     Edge 83, Type (0, 0), BuildingBlock: EZIPEK_clean_linker_0, # of connection points: 2
# Relax obj value: 0.321
# Max RMSD: 0.220
# Mean RMSD: 0.220
data_MOF--net-fcj--node1-BEQFEK_clean_sbu_0--edge1-EZIPEK_clean_linker_0
_symmetry_space_group_name_H-M    P1
_symmetry_Int_Tables_number       1
_symmetry_cell_setting            triclinic
loop_
_symmetry_equiv_pos_as_xyz
'x, y, z'
_cell_length_a     40.105264
_cell_length_b     40.147706
_cell_length_c     40.133461
_cell_angle_alpha  89.915715
_cell_angle_beta   90.017065
_cell_angle_gamma 90.022113
loop_
_atom_site_label
_atom_site_type_symbol
_atom_site_fract_x
_atom_site_fract_y
_atom_site_fract_z
_atom_type_partial_charge
Co0 Co 0.10744 0.17748 0.30932 0.0
Co1 Co 0.05198 0.22325 0.34166 0.0
C2 C 0.03426 0.1601 0.30826 0.0
O3 O 0.06452 0.15352 0.3009 0.0
O4 O 0.0264 0.18486 0.32625 0.0
C5 C 0.15378 0.11967 0.3042 0.0
O6 O 0.13355 0.10272 0.32358 0.0
C7 C 0.99603 0.24023 0.3849 0.0
C8 C 0.99773 0.29521 0.3853 0.0
C9 C 0.97985 0.26808 0.39696 0.0
N10 N 0.0223 0.25035 0.36667 0.0
N11 N 0.02331 0.28325 0.36717 0.0
C12 C 0.98621 0.20466 0.38995 0.0
H13 H 0.97126 0.19628 0.36826 0.0
H14 H 0.00877 0.18875 0.39158 0.0
H15 H 0.97089 0.20179 0.41282 0.0
C16 C 0.13711 0.18744 0.37613 0.0
N17 N 0.1127 0.19279 0.35379 0.0
N18 N 0.08917 0.21068 0.36798 0.0
C19 C 0.09745 0.216 0.40022 0.0
C20 C 0.12807 0.20119 0.40628 0.0
C21 C 0.16827 0.1683 0.36953 0.0
H22 H 0.17736 0.17314 0.34394 0.0
H23 H 0.16242 0.14162 0.37272 0.0
H24 H 0.18825 0.17487 0.38748 0.0
O25 O 0.10526 0.21537 0.27832 0.0
O26 O 0.06455 0.24677 0.29932 0.0
H27 H 0.07036 0.25909 0.41578 0.0
H28 H 0.08853 0.23538 0.44963 0.0
C29 C 0.07603 0.23367 0.42501 0.0
H30 H 0.05213 0.22007 0.42784 0.0
H31 H 0.04112 0.29752 0.35467 0.0
O32 O 0.14639 0.14931 0.29548 0.0
C33 C 0.08566 0.24026 0.2764 0.0
Co34 Co 0.60249 0.34382 0.06037 0.0
Co35 Co 0.54259 0.30097 0.08685 0.0
C36 C 0.60285 0.27276 0.04854 0.0
O37 O 0.61879 0.30021 0.04793 0.0
O38 O 0.57421 0.27012 0.06232 0.0
C39 C 0.6303 0.39702 0.02279 0.0
O40 O 0.61147 0.38478 0.99902 0.0
C41 C 0.51555 0.24671 0.12828 0.0
C42 C 0.46206 0.25972 0.13003 0.0
C43 C 0.48497 0.23611 0.14039 0.0
N44 N 0.51087 0.27516 0.11117 0.0
N45 N 0.47886 0.28288 0.1125 0.0
C46 C 0.54849 0.22985 0.13237 0.0
H47 H 0.5689 0.24854 0.13196 0.0
H48 H 0.54917 0.21534 0.15593 0.0
H49 H 0.55232 0.21243 0.11129 0.0
C50 C 0.60277 0.36767 0.12802 0.0
N51 N 0.5921 0.34531 0.10565 0.0
N52 N 0.5642 0.33175 0.11606 0.0
C53 C 0.55495 0.34707 0.14458 0.0
C54 C 0.57906 0.37072 0.15289 0.0
C55 C 0.6326 0.38961 0.12313 0.0
H56 H 0.65293 0.3754 0.11094 0.0
H57 H 0.64157 0.39942 0.14739 0.0
H58 H 0.62578 0.41106 0.10705 0.0
O59 O 0.56267 0.35256 0.0323 0.0
O60 O 0.5185 0.32514 0.05126 0.0
H61 H 0.51795 0.36037 0.18147 0.0
H62 H 0.51841 0.31704 0.16896 0.0
C63 C 0.52134 0.34309 0.16017 0.0
H64 H 0.50179 0.34778 0.14116 0.0
H65 H 0.46842 0.3038 0.1011 0.0
O66 O 0.63316 0.38127 0.0501 0.0
C67 C 0.53206 0.3447 0.0303 0.0
Co68 Co 0.39475 0.83382 0.82136 0.0
Co69 Co 0.44549 0.78202 0.85162 0.0
C70 C 0.46826 0.8435 0.81561 0.0
O71 O 0.43863 0.85363 0.81008 0.0
O72 O 0.47392 0.81764 0.833 0.0
C73 C 0.35121 0.89418 0.81398 0.0
O74 O 0.3722 0.91197 0.83169 0.0
C75 C 0.50037 0.76299 0.89496 0.0
C76 C 0.49773 0.70804 0.89434 0.0
C77 C 0.51593 0.73462 0.90669 0.0
N78 N 0.47421 0.75368 0.87622 0.0
N79 N 0.47262 0.72081 0.87606 0.0
C80 C 0.51036 0.79833 0.90106 0.0
H81 H 0.48793 0.8145 0.90188 0.0
H82 H 0.52466 0.80054 0.92465 0.0
H83 H 0.52638 0.80696 0.88023 0.0
C84 C 0.36768 0.82847 0.88976 0.0
N85 N 0.39067 0.82075 0.86668 0.0
N86 N 0.41172 0.79914 0.87962 0.0
C87 C 0.4029 0.79291 0.91155 0.0
C88 C 0.37477 0.81149 0.91883 0.0
C89 C 0.33908 0.85156 0.88422 0.0
H90 H 0.34901 0.87726 0.8842 0.0
H91 H 0.32004 0.84955 0.90416 0.0
H92 H 0.32709 0.84618 0.85996 0.0
O93 O 0.39111 0.79461 0.7924 0.0
O94 O 0.42619 0.75682 0.81297 0.0
H95 H 0.4232 0.74476 0.92199 0.0
H96 H 0.40677 0.76617 0.95816 0.0
C97 C 0.42051 0.76929 0.93435 0.0
H98 H 0.44582 0.779 0.93976 0.0
H99 H 0.45472 0.70712 0.86309 0.0
O100 O 0.35739 0.86377 0.80753 0.0
C101 C 0.40511 0.76622 0.79105 0.0
Co102 Co 0.90945 0.64482 0.56527 0.0
Co103 Co 0.96713 0.69174 0.59082 0.0
C104 C 0.90683 0.71723 0.55277 0.0
O105 O 0.89238 0.68889 0.55247 0.0
O106 O 0.93512 0.72162 0.5667 0.0
C107 C 0.87641 0.59611 0.52627 0.0
O108 O 0.89183 0.61147 0.50184 0.0
C109 C 0.9986 0.74859 0.62519 0.0
C110 C 0.04948 0.7292 0.63369 0.0
C111 C 0.02942 0.75679 0.63843 0.0
N112 N 0.0003 0.71737 0.61319 0.0
N113 N 0.03075 0.70593 0.61847 0.0
C114 C 0.96838 0.77022 0.6232 0.0
H115 H 0.94579 0.75521 0.62872 0.0
H116 H 0.97021 0.79148 0.64077 0.0
H117 H 0.966 0.78005 0.59745 0.0
C118 C 0.91158 0.62232 0.63426 0.0
N119 N 0.92186 0.64311 0.61015 0.0
N120 N 0.94578 0.66234 0.62166 0.0
C121 C 0.95135 0.65427 0.65393 0.0
C122 C 0.92991 0.6285 0.66274 0.0
C123 C 0.88635 0.59526 0.62923 0.0
H124 H 0.89615 0.57708 0.61089 0.0
H125 H 0.86309 0.60615 0.61897 0.0
H126 H 0.88053 0.58189 0.65272 0.0
O127 O 0.94773 0.63652 0.53624 0.0
O128 O 0.99029 0.6667 0.55478 0.0
H129 H 0.00256 0.66283 0.66549 0.0
H130 H 0.97561 0.66083 0.70153 0.0
C131 C 0.97766 0.6696 0.67537 0.0
H132 H 0.97533 0.69712 0.67458 0.0
H133 H 0.03884 0.68228 0.61135 0.0
O134 O 0.87812 0.6078 0.5556 0.0
C135 C 0.97773 0.64623 0.53407 0.0
Co136 Co 0.61447 0.31841 0.68806 0.0
Co137 Co 0.55575 0.27627 0.65742 0.0
C138 C 0.54485 0.3414 0.69452 0.0
O139 O 0.57595 0.34792 0.69567 0.0
O140 O 0.53387 0.31494 0.68058 0.0
C141 C 0.66517 0.36832 0.70671 0.0
O142 O 0.64664 0.3906 0.69142 0.0
C143 C 0.49454 0.25831 0.61906 0.0
C144 C 0.50358 0.20457 0.61142 0.0
C145 C 0.48068 0.22964 0.60559 0.0
N146 N 0.52425 0.25039 0.63259 0.0
N147 N 0.52945 0.21825 0.62775 0.0
C148 C 0.47978 0.29243 0.61941 0.0
H149 H 0.47117 0.29819 0.64503 0.0
H150 H 0.49919 0.31092 0.61256 0.0
H151 H 0.45833 0.29426 0.60201 0.0
C152 C 0.63903 0.31464 0.61841 0.0
N153 N 0.61697 0.30678 0.64246 0.0
N154 N 0.5922 0.28976 0.62915 0.0
C155 C 0.59806 0.28632 0.59609 0.0
C156 C 0.62797 0.302 0.58844 0.0
C157 C 0.67023 0.33438 0.62337 0.0
H158 H 0.66685 0.35277 0.64335 0.0
H159 H 0.6776 0.34772 0.60029 0.0
H160 H 0.69069 0.31704 0.62994 0.0
O161 O 0.60844 0.27936 0.71698 0.0
O162 O 0.57024 0.24655 0.69447 0.0
H163 H 0.57318 0.24251 0.57911 0.0
H164 H 0.58443 0.27126 0.54623 0.0
C165 C 0.57518 0.26919 0.57222 0.0
H166 H 0.54994 0.28035 0.57396 0.0
H167 H 0.55062 0.20554 0.63597 0.0
O168 O 0.65616 0.338 0.70667 0.0
C169 C 0.59122 0.25284 0.71736 0.0
Co170 Co 0.41822 0.86108 0.4312 0.0
Co171 Co 0.471 0.80931 0.40447 0.0
C172 C 0.4085 0.78888 0.44142 0.0
O173 O 0.39664 0.81833 0.44276 0.0
O174 O 0.43625 0.78264 0.42739 0.0
C175 C 0.35972 0.9073 0.43813 0.0
O176 O 0.34054 0.88656 0.42163 0.0
C177 C 0.49402 0.74894 0.37087 0.0
C178 C 0.54782 0.75931 0.36496 0.0
C179 C 0.52367 0.73523 0.35994 0.0
N180 N 0.50039 0.77975 0.3823 0.0
N181 N 0.53254 0.78589 0.37848 0.0
C182 C 0.46048 0.73272 0.37145 0.0
H183 H 0.44091 0.7514 0.36566 0.0
H184 H 0.4593 0.71182 0.35341 0.0
H185 H 0.45566 0.7228 0.39682 0.0
C186 C 0.42512 0.88582 0.36254 0.0
N187 N 0.43203 0.8633 0.3863 0.0
N188 N 0.45356 0.84157 0.37448 0.0
C189 C 0.46055 0.84949 0.34247 0.0
C190 C 0.44266 0.87785 0.33407 0.0
C191 C 0.40278 0.91517 0.36725 0.0
H192 H 0.40897 0.92795 0.39088 0.0
H193 H 0.37681 0.90593 0.36826 0.0
H194 H 0.40479 0.9334 0.34658 0.0
O195 O 0.457 0.86404 0.461 0.0
O196 O 0.49645 0.83058 0.44113 0.0
H197 H 0.51012 0.83377 0.3314 0.0
H198 H 0.48444 0.84093 0.29501 0.0
C199 C 0.48467 0.83113 0.3209 0.0
H200 H 0.47827 0.80425 0.32074 0.0
H201 H 0.54417 0.80795 0.38582 0.0
O202 O 0.39002 0.90002 0.44399 0.0
C203 C 0.48587 0.85114 0.46279 0.0
Co204 Co 0.89815 0.68122 0.19372 0.0
Co205 Co 0.9518 0.72361 0.15468 0.0
C206 C 0.97107 0.66271 0.19286 0.0
O207 O 0.94096 0.65714 0.20186 0.0
O208 O 0.97882 0.68652 0.17318 0.0
C209 C 0.85134 0.6329 0.22746 0.0
O210 O 0.8759 0.61648 0.2416 0.0
C211 C 0.00906 0.75039 0.11566 0.0
C212 C 0.98267 0.78689 0.08433 0.0
C213 C 0.01371 0.772 0.08833 0.0
N214 N 0.97664 0.75096 0.12446 0.0
N215 N 0.96132 0.77357 0.10625 0.0
C216 C 0.03474 0.73342 0.13687 0.0
H217 H 0.02566 0.73155 0.16291 0.0
H218 H 0.03887 0.70769 0.12775 0.0
H219 H 0.05857 0.7474 0.13702 0.0
C220 C 0.86675 0.68016 0.12823 0.0
N221 N 0.89147 0.69034 0.14845 0.0
N222 N 0.91428 0.70603 0.13089 0.0
C223 C 0.90516 0.70492 0.09835 0.0
C224 C 0.87456 0.68908 0.09601 0.0
C225 C 0.83657 0.66109 0.13928 0.0
H226 H 0.82342 0.67525 0.15901 0.0
H227 H 0.84445 0.6367 0.14966 0.0
H228 H 0.81892 0.6566 0.11847 0.0
O229 O 0.90091 0.72168 0.22013 0.0
O230 O 0.9396 0.75188 0.19438 0.0
H231 H 0.92058 0.74174 0.06313 0.0
H232 H 0.92059 0.70018 0.04719 0.0
C233 C 0.92629 0.71548 0.0695 0.0
H234 H 0.95311 0.71296 0.07565 0.0
H235 H 0.9361 0.77953 0.10852 0.0
O236 O 0.85749 0.6578 0.20902 0.0
C237 C 0.91923 0.74741 0.21841 0.0
Co238 Co 0.06991 0.14443 0.93917 0.0
Co239 Co 0.02248 0.19174 0.89843 0.0
C240 C 0.08006 0.21771 0.93934 0.0
O241 O 0.08964 0.18861 0.94799 0.0
O242 O 0.05545 0.22238 0.91966 0.0
C243 C 0.12136 0.10276 0.97364 0.0
O244 O 0.13905 0.12898 0.982 0.0
C245 C 0.98939 0.24864 0.86554 0.0
C246 C 0.95843 0.22324 0.82784 0.0
C247 C 0.96721 0.25451 0.83949 0.0
N248 N 0.99399 0.21559 0.86845 0.0
N249 N 0.97449 0.2006 0.84659 0.0
C250 C 0.00357 0.27353 0.8894 0.0
H251 H 0.00261 0.26333 0.91507 0.0
H252 H 0.0301 0.27816 0.88307 0.0
H253 H 0.9897 0.29742 0.88857 0.0
C254 C 0.07747 0.11292 0.87412 0.0
N255 N 0.06433 0.13697 0.89338 0.0
N256 N 0.04578 0.15688 0.87505 0.0
C257 C 0.04766 0.14632 0.84301 0.0
C258 C 0.06712 0.11782 0.84173 0.0
C259 C 0.09849 0.08472 0.88661 0.0
H260 H 0.12075 0.09486 0.89949 0.0
H261 H 0.10689 0.06835 0.866 0.0
H262 H 0.08392 0.06971 0.90471 0.0
O263 O 0.0283 0.14363 0.96393 0.0
O264 O 0.99301 0.17524 0.93551 0.0
H265 H 0.00768 0.15233 0.80831 0.0
H266 H 0.04789 0.15891 0.79084 0.0
C267 C 0.03255 0.16322 0.81341 0.0
H268 H 0.03069 0.1904 0.81765 0.0
H269 H 0.97156 0.17486 0.84497 0.0
O270 O 0.09458 0.10613 0.95725 0.0
C271 C 0.99993 0.15705 0.96062 0.0
Co272 Co 0.31115 0.1133 0.1796 0.0
Co273 Co 0.34479 0.06049 0.22609 0.0
C274 C 0.30932 0.041 0.16352 0.0
O275 O 0.30163 0.07096 0.15616 0.0
O276 O 0.32777 0.034 0.18836 0.0
C277 C 0.27283 0.15522 0.13474 0.0
O278 O 0.25491 0.1288 0.12761 0.0
C279 C 0.38829 0.00474 0.24317 0.0
C280 C 0.38919 0.00706 0.29814 0.0
C281 C 0.40003 0.98848 0.2712 0.0
N282 N 0.37081 0.03153 0.25305 0.0
N283 N 0.37175 0.033 0.28593 0.0
C284 C 0.39263 0.99439 0.20766 0.0
H285 H 0.3703 0.98022 0.19956 0.0
H286 H 0.39492 0.01673 0.19149 0.0
H287 H 0.4149 0.97823 0.20482 0.0
C288 C 0.37825 0.14143 0.1808 0.0
N289 N 0.35617 0.11839 0.19089 0.0
N290 N 0.37093 0.0971 0.21093 0.0
C291 C 0.4033 0.10607 0.21415 0.0
C292 C 0.40881 0.13451 0.19509 0.0
C293 C 0.37032 0.16922 0.15714 0.0
H294 H 0.35164 0.18596 0.16875 0.0
H295 H 0.35928 0.1588 0.13404 0.0
H296 H 0.39272 0.18407 0.15061 0.0
O297 O 0.28224 0.11264 0.21853 0.0
O298 O 0.30335 0.07342 0.2514 0.0
H299 H 0.41911 0.0829 0.25948 0.0
H300 H 0.45272 0.10068 0.23492 0.0
C301 C 0.42861 0.08713 0.23387 0.0
H302 H 0.43258 0.06242 0.22219 0.0
H303 H 0.35967 0.05117 0.30005 0.0
O304 O 0.29728 0.15297 0.15456 0.0
C305 C 0.28061 0.09455 0.24444 0.0
Co306 Co 0.63293 0.5716 0.92959 0.0
Co307 Co 0.68878 0.59551 0.97896 0.0
C308 C 0.70348 0.56493 0.91159 0.0
O309 O 0.67308 0.56469 0.90222 0.0
O310 O 0.7123 0.57631 0.93988 0.0
C311 C 0.58497 0.53787 0.88734 0.0
O312 O 0.60786 0.51481 0.88354 0.0
C313 C 0.74951 0.63039 4e-05 0.0
C314 C 0.74221 0.63306 0.05455 0.0
C315 C 0.76426 0.64104 0.02928 0.0
N316 N 0.71997 0.61653 0.00764 0.0
N317 N 0.71569 0.61833 0.04025 0.0
C318 C 0.76348 0.63272 0.96563 0.0
H319 H 0.74325 0.6388 0.94775 0.0
H320 H 0.78347 0.65181 0.96424 0.0
H321 H 0.7741 0.6082 0.95861 0.0
C322 C 0.60929 0.63912 0.9403 0.0
N323 N 0.63132 0.6148 0.94656 0.0
N324 N 0.65453 0.6259 0.96682 0.0
C325 C 0.64792 0.65813 0.97404 0.0
C326 C 0.61896 0.66734 0.95741 0.0
C327 C 0.57976 0.63545 0.9177 0.0
H328 H 0.5628 0.61617 0.92796 0.0
H329 H 0.5883 0.62715 0.89276 0.0
H330 H 0.56561 0.65898 0.9149 0.0
O331 O 0.63473 0.53754 0.96501 0.0
O332 O 0.6714 0.55559 0.00252 0.0
H333 H 0.66999 0.66889 0.02122 0.0
H334 H 0.65916 0.70546 0.99705 0.0
C335 C 0.66909 0.67968 0.99578 0.0
H336 H 0.69492 0.68019 0.98589 0.0
H337 H 0.6948 0.60915 0.05275 0.0
O338 O 0.59134 0.56365 0.90435 0.0
C339 C 0.65077 0.53385 0.9921 0.0
Co340 Co 0.20467 0.88804 0.68087 0.0
Co341 Co 0.16395 0.94217 0.71974 0.0
C342 C 0.20107 0.9619 0.66078 0.0
O343 O 0.21116 0.93191 0.65715 0.0
O344 O 0.18027 0.96999 0.68326 0.0
C345 C 0.21097 0.84271 0.62471 0.0
O346 O 0.18698 0.8601 0.61078 0.0
C347 C 0.1276 0.99945 0.74729 0.0
C348 C 0.08822 0.97412 0.77594 0.0
C349 C 0.09767 0.0055 0.76461 0.0
N350 N 0.13281 0.96637 0.74624 0.0
N351 N 0.10981 0.95149 0.76432 0.0
C352 C 0.15405 0.02349 0.73636 0.0
H353 H 0.17878 0.01112 0.73703 0.0
H354 H 0.14953 0.03127 0.71023 0.0
H355 H 0.15509 0.04553 0.75291 0.0
C356 C 0.14051 0.85244 0.68647 0.0
N357 N 0.16009 0.87895 0.69256 0.0
N358 N 0.14144 0.90396 0.70234 0.0
C359 C 0.10902 0.89509 0.69907 0.0
C360 C 0.10764 0.86198 0.68942 0.0
C361 C 0.15229 0.8173 0.68291 0.0
H362 H 0.17946 0.81573 0.67896 0.0
H363 H 0.13817 0.80457 0.66294 0.0
H364 H 0.14644 0.80374 0.70632 0.0
O365 O 0.23175 0.89145 0.72041 0.0
O366 O 0.20527 0.93207 0.74736 0.0
H367 H 0.06658 0.91397 0.72507 0.0
H368 H 0.06207 0.91324 0.68083 0.0
C369 C 0.07998 0.91835 0.70129 0.0
H370 H 0.08832 0.94464 0.69978 0.0
H371 H 0.10854 0.92582 0.76824 0.0
O372 O 0.22247 0.85129 0.65297 0.0
C373 C 0.22977 0.91189 0.74444 0.0
Co374 Co 0.86253 0.4292 0.41902 0.0
Co375 Co 0.80471 0.40432 0.46708 0.0
C376 C 0.79142 0.43662 0.40035 0.0
O377 O 0.82211 0.43671 0.39195 0.0
O378 O 0.78165 0.42464 0.42813 0.0
C379 C 0.91228 0.43402 0.36354 0.0
O380 O 0.89217 0.41668 0.34443 0.0
C381 C 0.74507 0.36564 0.48723 0.0
C382 C 0.7502 0.36602 0.54203 0.0
C383 C 0.72999 0.35491 0.51642 0.0
N384 N 0.77295 0.38254 0.49527 0.0
N385 N 0.77583 0.3826 0.52808 0.0
C386 C 0.7333 0.35991 0.45241 0.0
H387 H 0.75498 0.3577 0.43536 0.0
H388 H 0.71755 0.33721 0.45099 0.0
H389 H 0.71817 0.38161 0.44435 0.0
C390 C 0.88642 0.36139 0.43138 0.0
N391 N 0.86389 0.38559 0.43606 0.0
N392 N 0.83953 0.37419 0.4549 0.0
C393 C 0.84577 0.34185 0.46218 0.0
C394 C 0.87571 0.33289 0.44736 0.0
C395 C 0.91702 0.36495 0.41053 0.0
H396 H 0.92952 0.38889 0.41611 0.0
H397 H 0.90932 0.36444 0.38405 0.0
H398 H 0.93503 0.34447 0.4148 0.0
O399 O 0.86059 0.46176 0.45566 0.0
O400 O 0.82254 0.44355 0.4918 0.0
H401 H 0.81983 0.33088 0.50737 0.0
H402 H 0.83392 0.29445 0.48485 0.0
C403 C 0.82338 0.31989 0.48229 0.0
H404 H 0.79864 0.3184 0.47005 0.0
H405 H 0.79533 0.39401 0.54096 0.0
O406 O 0.90377 0.44119 0.39324 0.0
C407 C 0.84427 0.46485 0.48263 0.0
Co408 Co 0.8131 0.40396 0.84983 0.0
Co409 Co 0.83897 0.45167 0.79311 0.0
C410 C 0.79944 0.47475 0.85428 0.0
O411 O 0.79958 0.44644 0.86867 0.0
O412 O 0.81353 0.4795 0.82612 0.0
C413 C 0.77837 0.34681 0.87517 0.0
O414 O 0.7553 0.35623 0.85398 0.0
C415 C 0.87819 0.50855 0.76843 0.0
C416 C 0.87773 0.49913 0.71418 0.0
C417 C 0.8883 0.52158 0.73808 0.0
N418 N 0.86187 0.47986 0.76265 0.0
N419 N 0.86192 0.47428 0.73021 0.0
C420 C 0.8833 0.52328 0.80221 0.0
H421 H 0.88534 0.50319 0.82114 0.0
H422 H 0.90591 0.53924 0.80258 0.0
H423 H 0.86142 0.53889 0.80861 0.0
C424 C 0.88139 0.38118 0.84733 0.0
N425 N 0.85866 0.40424 0.83912 0.0
N426 N 0.86874 0.42044 0.81253 0.0
C427 C 0.89722 0.40631 0.80149 0.0
C428 C 0.90592 0.38051 0.82303 0.0
C429 C 0.87692 0.35618 0.87472 0.0
H430 H 0.86545 0.36825 0.89676 0.0
H431 H 0.90125 0.34513 0.88196 0.0
H432 H 0.86035 0.33581 0.86606 0.0
O433 O 0.78485 0.39726 0.80937 0.0
O434 O 0.80449 0.42822 0.76781 0.0
H435 H 0.93363 0.39674 0.76289 0.0
H436 H 0.91983 0.43952 0.76657 0.0
C437 C 0.91189 0.41308 0.76792 0.0
H438 H 0.89256 0.40911 0.74853 0.0
H439 H 0.85065 0.45375 0.71894 0.0
O440 O 0.80401 0.36492 0.87944 0.0
C441 C 0.78359 0.40744 0.77936 0.0
Co442 Co 0.35654 0.05936 0.57112 0.0
Co443 Co 0.30107 0.09255 0.52689 0.0
C444 C 0.28414 0.05369 0.58836 0.0
O445 O 0.31472 0.04755 0.59491 0.0
O446 O 0.27539 0.07242 0.56416 0.0
C447 C 0.40299 0.02846 0.61971 0.0
O448 O 0.37773 0.01523 0.63581 0.0
C449 C 0.24378 0.13399 0.50677 0.0
C450 C 0.25393 0.14078 0.45305 0.0
C451 C 0.23128 0.1483 0.47792 0.0
N452 N 0.2725 0.11844 0.49921 0.0
N453 N 0.27848 0.12277 0.46711 0.0
C454 C 0.22855 0.13458 0.54073 0.0
H455 H 0.21637 0.11024 0.54562 0.0
H456 H 0.24833 0.13809 0.55977 0.0
H457 H 0.20962 0.15464 0.54276 0.0
C458 C 0.3823 0.12739 0.57117 0.0
N459 N 0.3595 0.1049 0.56139 0.0
N460 N 0.33696 0.11955 0.54266 0.0
C461 C 0.34484 0.15226 0.54007 0.0
C462 C 0.37392 0.15809 0.55804 0.0
C463 C 0.41166 0.11958 0.59292 0.0
H464 H 0.42818 0.1017 0.57985 0.0
H465 H 0.40288 0.10775 0.61633 0.0
H466 H 0.42636 0.14214 0.59914 0.0
O467 O 0.35622 0.0318 0.53114 0.0
O468 O 0.31556 0.05297 0.50012 0.0
H469 H 0.32345 0.17031 0.49479 0.0
H470 H 0.33563 0.20273 0.52369 0.0
C471 C 0.32467 0.17744 0.52145 0.0
H472 H 0.29884 0.17762 0.53134 0.0
H473 H 0.2992 0.11309 0.45473 0.0
O474 O 0.39792 0.0466 0.59437 0.0
C475 C 0.3376 0.03075 0.50559 0.0
Co476 Co 0.69211 0.60198 0.33467 0.0
Co477 Co 0.65925 0.5547 0.28103 0.0
C478 C 0.69933 0.52826 0.33866 0.0
O479 O 0.70239 0.55716 0.35157 0.0
O480 O 0.68315 0.52345 0.31168 0.0
C481 C 0.73426 0.65146 0.36282 0.0
O482 O 0.75653 0.63833 0.3428 0.0
C483 C 0.62947 0.49853 0.24319 0.0
C484 C 0.59244 0.52534 0.21247 0.0
C485 C 0.6041 0.4937 0.21993 0.0
N486 N 0.63202 0.53135 0.2495 0.0
N487 N 0.61046 0.5472 0.23031 0.0
C488 C 0.65226 0.47286 0.2578 0.0
H489 H 0.67812 0.48267 0.25855 0.0
H490 H 0.6445 0.46757 0.28381 0.0
H491 H 0.65169 0.4494 0.24322 0.0
C492 C 0.62552 0.63001 0.33597 0.0
N493 N 0.64711 0.6071 0.32475 0.0
N494 N 0.6316 0.58583 0.30523 0.0
C495 C 0.59869 0.59374 0.30529 0.0
C496 C 0.59425 0.62243 0.32396 0.0
C497 C 0.635 0.65941 0.35688 0.0
H498 H 0.65589 0.67296 0.34482 0.0
H499 H 0.64354 0.65058 0.38166 0.0
H500 H 0.61387 0.67687 0.3604 0.0
O501 O 0.71912 0.60748 0.29522 0.0
O502 O 0.69625 0.5771 0.25509 0.0
H503 H 0.56406 0.58365 0.26603 0.0
H504 H 0.54877 0.57456 0.30677 0.0
C505 C 0.57122 0.57328 0.29063 0.0
H506 H 0.57896 0.54691 0.28811 0.0
H507 H 0.60801 0.57305 0.22944 0.0
O508 O 0.70574 0.63801 0.36552 0.0
C509 C 0.71913 0.59652 0.26567 0.0
Co510 Co 0.14971 0.94081 0.08972 0.0
Co511 Co 0.19735 0.91394 0.03404 0.0
C512 C 0.22056 0.95075 0.09732 0.0
O513 O 0.19186 0.95288 0.1109 0.0
O514 O 0.22493 0.93628 0.06933 0.0
C515 C 0.09395 0.95231 0.1397 0.0
O516 O 0.1088 0.93513 0.16328 0.0
C517 C 0.25322 0.8716 0.0148 0.0
C518 C 0.24954 0.87215 0.95986 0.0
C519 C 0.26851 0.86024 0.98611 0.0
N520 N 0.22652 0.88976 0.00592 0.0
N521 N 0.22431 0.88982 0.97307 0.0
C522 C 0.26407 0.86601 0.04998 0.0
H523 H 0.24192 0.86401 0.06646 0.0
H524 H 0.27965 0.84325 0.05202 0.0
H525 H 0.27901 0.88771 0.05836 0.0
C526 C 0.12778 0.86991 0.08838 0.0
N527 N 0.14803 0.89482 0.07856 0.0
N528 N 0.16507 0.88482 0.05245 0.0
C529 C 0.15441 0.85422 0.04354 0.0
C530 C 0.1302 0.84387 0.06601 0.0
C531 C 0.1062 0.87035 0.11869 0.0
H532 H 0.12102 0.87938 0.14012 0.0
H533 H 0.0966 0.84506 0.12455 0.0
H534 H 0.0847 0.88697 0.11475 0.0
O535 O 0.1484 0.96975 0.05008 0.0
O536 O 0.17661 0.94976 0.0073 0.0
H537 H 0.14853 0.81496 0.00712 0.0
H538 H 0.19081 0.82846 0.01468 0.0
C539 C 0.16459 0.8369 0.0122 0.0
H540 H 0.16336 0.85459 0.99097 0.0
H541 H 0.20586 0.90235 0.95967 0.0
O542 O 0.10809 0.95645 0.11174 0.0
C543 C 0.15842 0.97218 0.02019 0.0
Co544 Co 0.15281 0.31419 0.1006 0.0
Co545 Co 0.20885 0.34157 0.0527 0.0
C546 C 0.14593 0.30729 0.02787 0.0
O547 O 0.13326 0.30328 0.05679 0.0
O548 O 0.17346 0.32256 0.02361 0.0
C549 C 0.09473 0.30324 0.14825 0.0
O550 O 0.07282 0.31676 0.12804 0.0
C551 C 0.23615 0.37622 0.99443 0.0
C552 C 0.28956 0.37947 0.00762 0.0
C553 C 0.26693 0.38614 0.98248 0.0
N554 N 0.24038 0.36386 0.02529 0.0
N555 N 0.27233 0.3661 0.03311 0.0
C556 C 0.20367 0.37686 0.9762 0.0
H557 H 0.19873 0.35179 0.96567 0.0
H558 H 0.18315 0.38301 0.9937 0.0
H559 H 0.20433 0.3952 0.95548 0.0
C560 C 0.15925 0.38219 0.12732 0.0
N561 N 0.16639 0.35937 0.10393 0.0
N562 N 0.19109 0.37051 0.08543 0.0
C563 C 0.20091 0.40045 0.09719 0.0
C564 C 0.18104 0.40872 0.12425 0.0
C565 C 0.13441 0.3772 0.15451 0.0
H566 H 0.14242 0.3562 0.17061 0.0
H567 H 0.11012 0.37104 0.14298 0.0
H568 H 0.13144 0.39988 0.17002 0.0
O569 O 0.19131 0.28411 0.10485 0.0
O570 O 0.23258 0.30362 0.07364 0.0
H571 H 0.2537 0.40298 0.09096 0.0
H572 H 0.23415 0.44285 0.09856 0.0
C573 C 0.23143 0.41852 0.08575 0.0
H574 H 0.23003 0.42265 0.05845 0.0
H575 H 0.28252 0.35755 0.05547 0.0
O576 O 0.12515 0.30072 0.13976 0.0
C577 C 0.22076 0.28186 0.09342 0.0
Co578 Co 0.68262 0.17962 0.88287 0.0
Co579 Co 0.7286 0.14982 0.93984 0.0
C580 C 0.66354 0.18248 0.95498 0.0
O581 O 0.65603 0.18465 0.92415 0.0
O582 O 0.69066 0.16915 0.96477 0.0
C583 C 0.62535 0.18325 0.83658 0.0
O584 O 0.60981 0.16214 0.85619 0.0
C585 C 0.75302 0.11372 -8e-05 0.0
C586 C 0.79368 0.08472 0.9773 0.0
C587 C 0.77518 0.08724 0.0065 0.0
N588 N 0.75675 0.12323 0.96789 0.0
N589 N 0.78181 0.10648 0.95494 0.0
C590 C 0.73201 0.13333 0.02372 0.0
H591 H 0.72984 0.15945 0.01494 0.0
H592 H 0.70647 0.12278 0.02464 0.0
H593 H 0.74316 0.13376 0.04897 0.0
C594 C 0.69449 0.11385 0.85409 0.0
N595 N 0.69933 0.13638 0.87824 0.0
N596 N 0.71408 0.12196 0.90375 0.0
C597 C 0.71654 0.0889 0.89728 0.0
C598 C 0.70443 0.08307 0.86549 0.0
C599 C 0.67871 0.1208 0.82114 0.0
H600 H 0.68269 0.14703 0.81359 0.0
H601 H 0.65183 0.11528 0.8233 0.0
H602 H 0.68911 0.1042 0.80165 0.0
O603 O 0.71935 0.21149 0.88636 0.0
O604 O 0.75418 0.19015 0.92413 0.0
H605 H 0.75389 0.05788 0.91899 0.0
H606 H 0.71367 0.03892 0.91673 0.0
C607 C 0.72682 0.06273 0.92176 0.0
H608 H 0.72137 0.07084 0.94756 0.0
H609 H 0.78991 0.10901 0.93036 0.0
O610 O 0.6546 0.19323 0.8439 0.0
C611 C 0.74595 0.21302 0.90351 0.0
Co612 Co 0.55911 0.91226 0.64966 0.0
Co613 Co 0.59304 0.96684 0.69428 0.0
C614 C 0.55471 0.90752 0.72228 0.0
O615 O 0.54956 0.8939 0.69405 0.0
O616 O 0.57111 0.93456 0.72514 0.0
C617 C 0.52178 0.8919 0.59264 0.0
O618 O 0.50353 0.91801 0.59988 0.0
C619 C 0.63704 0.98673 0.74821 0.0
C620 C 0.64282 0.04075 0.73937 0.0
C621 C 0.65138 0.01524 0.76097 0.0
N622 N 0.62053 0.99492 0.72027 0.0
N623 N 0.62437 0.02718 0.71486 0.0
C624 C 0.63754 0.95266 0.76323 0.0
H625 H 0.61486 0.94926 0.77871 0.0
H626 H 0.63734 0.93355 0.74327 0.0
H627 H 0.65979 0.94937 0.77937 0.0
C628 C 0.62631 0.90995 0.62105 0.0
N629 N 0.60466 0.92163 0.64377 0.0
N630 N 0.61916 0.94507 0.66143 0.0
C631 C 0.65069 0.94915 0.65027 0.0
C632 C 0.65607 0.92704 0.62423 0.0
C633 C 0.61793 0.88436 0.59526 0.0
H634 H 0.6 0.8952 0.57721 0.0
H635 H 0.60598 0.86257 0.60737 0.0
H636 H 0.64034 0.87594 0.58144 0.0
O637 O 0.53245 0.95301 0.64666 0.0
O638 O 0.55673 0.99426 0.67417 0.0
H639 H 0.66299 -0.00029 0.6614 0.0
H640 H 0.6983 0.97443 0.64893 0.0
C641 C 0.67456 0.97468 0.66315 0.0
H642 H 0.67983 0.96958 0.6898 0.0
H643 H 0.61361 0.04006 0.69498 0.0
O644 O 0.545 0.88294 0.61226 0.0
C645 C 0.53292 0.98303 0.65645 0.0
Co646 Co 0.83809 0.82075 0.38632 0.0
Co647 Co 0.78507 0.84255 0.44039 0.0
C648 C 0.85098 0.81071 0.45829 0.0
O649 O 0.86192 0.81136 0.42842 0.0
O650 O 0.82241 0.8223 0.46598 0.0
C651 C 0.89625 0.81812 0.33912 0.0
O652 O 0.91477 0.83503 0.36012 0.0
C653 C 0.75893 0.87696 0.49969 0.0
C654 C 0.70472 0.87545 0.48984 0.0
C655 C 0.72821 0.88555 0.51296 0.0
N656 N 0.75375 0.86205 0.47015 0.0
N657 N 0.72131 0.86134 0.46439 0.0
C658 C 0.79254 0.88263 0.51473 0.0
H659 H 0.81081 0.88881 0.49488 0.0
H660 H 0.79166 0.90282 0.53357 0.0
H661 H 0.80095 0.85934 0.52706 0.0
C662 C 0.82594 0.88918 0.36342 0.0
N663 N 0.82063 0.86428 0.38511 0.0
N664 N 0.79918 0.87419 0.40785 0.0
C665 C 0.79057 0.90614 0.40138 0.0
C666 C 0.80739 0.91649 0.37297 0.0
C667 C 0.84853 0.88694 0.33396 0.0
H668 H 0.84368 0.8635 0.32027 0.0
H669 H 0.87458 0.887 0.3431 0.0
H670 H 0.84529 0.90817 0.31657 0.0
O671 O 0.80199 0.78756 0.38409 0.0
O672 O 0.76262 0.80373 0.41961 0.0
H673 H 0.74183 0.91388 0.42128 0.0
H674 H 0.76423 0.9519 0.41182 0.0
C675 C 0.76661 0.92614 0.42163 0.0
H676 H 0.77528 0.927 0.44786 0.0
H677 H 0.71049 0.85098 0.44314 0.0
O678 O 0.86633 0.81061 0.34652 0.0
C679 C 0.77395 0.78331 0.39819 0.0
Co680 Co 0.93619 0.08546 0.14654 0.0
Co681 Co 0.90627 0.03268 0.19673 0.0
C682 C 0.94374 0.09483 0.21878 0.0
O683 O 0.94865 0.10615 0.18938 0.0
O684 O 0.92642 0.06873 0.22411 0.0
C685 C 0.94587 0.13589 0.09118 0.0
O686 O 0.92849 0.15825 0.10751 0.0
C687 C 0.86262 0.01425 0.2521 0.0
C688 C 0.86351 0.95929 0.24962 0.0
C689 C 0.85132 0.98579 0.26798 0.0
N690 N 0.88105 0.005 0.22572 0.0
N691 N 0.88125 0.97212 0.2242 0.0
C692 C 0.8569 0.04958 0.26226 0.0
H693 H 0.85445 0.06556 0.23979 0.0
H694 H 0.8343 0.05172 0.27809 0.0
H695 H 0.87876 0.0585 0.27667 0.0
C696 C 0.86533 0.08399 0.12311 0.0
N697 N 0.8897 0.07484 0.14439 0.0
N698 N 0.87888 0.04948 0.16216 0.0
C699 C 0.84851 0.0403 0.15093 0.0
C700 C 0.83905 0.06189 0.12562 0.0
C701 C 0.86582 0.11399 0.10103 0.0
H702 H 0.87274 0.136 0.11608 0.0
H703 H 0.84094 0.11867 0.08981 0.0
H704 H 0.8838 0.11062 0.0806 0.0
O705 O 0.96465 0.04524 0.14557 0.0
O706 O 0.94446 0.00674 0.17978 0.0
H707 H 0.80883 0.00419 0.14562 0.0
H708 H 0.82148 0.01321 0.18785 0.0
C709 C 0.83049 0.00962 0.16197 0.0
H710 H 0.84791 0.98815 0.16199 0.0
H711 H 0.89412 0.95845 0.20623 0.0
O712 O 0.95188 0.10796 0.10477 0.0
C713 C 0.96642 0.01676 0.15927 0.0
Co714 Co 0.3411 0.68505 0.60705 0.0
Co715 Co 0.28936 0.65934 0.55434 0.0
C716 C 0.35471 0.69492 0.53681 0.0
O717 O 0.36665 0.6926 0.56613 0.0
O718 O 0.326 0.6831 0.52943 0.0
C719 C 0.36577 0.7231 0.66215 0.0
O720 O 0.34889 0.7474 0.64816 0.0
C721 C 0.26311 0.62531 0.49407 0.0
C722 C 0.21034 0.61891 0.50866 0.0
C723 C 0.23258 0.61354 0.48294 0.0
N724 N 0.25904 0.6373 0.52509 0.0
N725 N 0.22745 0.63328 0.53362 0.0
C726 C 0.29525 0.62602 0.47534 0.0
H727 H 0.316 0.61913 0.49229 0.0
H728 H 0.29451 0.60886 0.45368 0.0
H729 H 0.2998 0.65174 0.46626 0.0
C730 C 0.33445 0.61709 0.63179 0.0
N731 N 0.32727 0.64067 0.60915 0.0
N732 N 0.30511 0.62921 0.58793 0.0
C733 C 0.29691 0.59781 0.59713 0.0
C734 C 0.31536 0.58921 0.62525 0.0
C735 C 0.35716 0.62209 0.66099 0.0
H736 H 0.38119 0.63269 0.65233 0.0
H737 H 0.36205 0.59835 0.67432 0.0
H738 H 0.34553 0.63999 0.67855 0.0
O739 O 0.30302 0.71706 0.60639 0.0
O740 O 0.2636 0.69638 0.57365 0.0
H741 H 0.26922 0.55197 0.59162 0.0
H742 H 0.27367 0.57673 0.55407 0.0
C743 C 0.26981 0.57767 0.58141 0.0
H744 H 0.24547 0.58985 0.58621 0.0
H745 H 0.21745 0.64081 0.5564 0.0
O746 O 0.36733 0.69494 0.64791 0.0
C747 C 0.27422 0.71891 0.59314 0.0
Co748 Co 0.05674 0.57415 0.35264 0.0
Co749 Co 0.09562 0.52874 0.30162 0.0
C750 C 0.05711 0.58792 0.2787 0.0
O751 O 0.04849 0.59507 0.30848 0.0
O752 O 0.07662 0.56372 0.27209 0.0
C753 C 0.01543 0.59559 0.40699 0.0
O754 O 0.99609 0.57081 0.39793 0.0
C755 C 0.13442 0.50017 0.24558 0.0
C756 C 0.16702 0.46546 0.27284 0.0
C757 C 0.16222 0.47916 0.24138 0.0
N758 N 0.126 0.50052 0.27805 0.0
N759 N 0.14497 0.47895 0.29397 0.0
C760 C 0.1126 0.5157 0.21951 0.0
H761 H 0.08645 0.51662 0.22848 0.0
H762 H 0.12071 0.54171 0.21483 0.0
H763 H 0.11306 0.50131 0.19597 0.0
C764 C 0.12234 0.57697 0.38415 0.0
N765 N 0.10209 0.56572 0.35992 0.0
N766 N 0.1196 0.54895 0.3379 0.0
C767 C 0.15217 0.55056 0.34691 0.0
C768 C 0.15462 0.56774 0.37677 0.0
C769 C 0.11111 0.59683 0.41363 0.0
H770 H 0.09048 0.58355 0.42639 0.0
H771 H 0.10171 0.62137 0.40503 0.0
H772 H 0.13165 0.60094 0.43169 0.0
O773 O 0.03083 0.53319 0.35303 0.0
O774 O 0.05613 0.50082 0.31596 0.0
H775 H 0.18766 0.51331 0.33345 0.0
H776 H 0.2032 0.555 0.33094 0.0
C777 C 0.181 0.53914 0.32627 0.0
H778 H 0.17468 0.54011 0.29941 0.0
H779 H 0.14321 0.47391 0.31942 0.0
O780 O 0.04105 0.60263 0.38978 0.0
C781 C 0.03239 0.50638 0.3364 0.0
Co782 Co 0.44091 0.41793 0.85363 0.0
Co783 Co 0.40461 0.46434 0.8008 0.0
C784 C 0.45081 0.40868 0.78049 0.0
O785 O 0.45464 0.39905 0.81058 0.0
O786 O 0.43204 0.43325 0.77287 0.0
C787 C 0.48532 0.39506 0.90466 0.0
O788 O 0.50681 0.41477 0.88975 0.0
C789 C 0.36697 0.49082 0.74192 0.0
C790 C 0.33364 0.52595 0.7676 0.0
C791 C 0.339 0.51151 0.73658 0.0
N792 N 0.37473 0.49127 0.77464 0.0
N793 N 0.35536 0.51317 0.78949 0.0
C794 C 0.38965 0.47505 0.71681 0.0
H795 H 0.41541 0.47393 0.72678 0.0
H796 H 0.38153 0.44912 0.71187 0.0
H797 H 0.39037 0.48958 0.69333 0.0
C798 C 0.37366 0.41153 0.87927 0.0
N799 N 0.39492 0.42319 0.85621 0.0
N800 N 0.37854 0.44063 0.83373 0.0
C801 C 0.34565 0.43932 0.84153 0.0
C802 C 0.34188 0.42147 0.8709 0.0
C803 C 0.38391 0.3925 0.90973 0.0
H804 H 0.40229 0.40737 0.92406 0.0
H805 H 0.39603 0.36888 0.90209 0.0
H806 H 0.36237 0.38664 0.92606 0.0
O807 O 0.46321 0.46055 0.85724 0.0
O808 O 0.43816 0.49517 0.82189 0.0
H809 H 0.31314 0.47968 0.82949 0.0
H810 H 0.29449 0.4394 0.8255 0.0
C811 C 0.31782 0.45373 0.82138 0.0
H812 H 0.3241 0.45327 0.7945 0.0
H813 H 0.35662 0.51892 0.81481 0.0
O814 O 0.45645 0.39112 0.89226 0.0
C815 C 0.46063 0.48888 0.84353 0.0
C816 C 0.20013 0.20045 0.46504 0.0
C817 C 0.19931 0.16592 0.47235 0.0
C818 C 0.14165 0.16305 0.45268 0.0
C819 C 0.14576 0.19482 0.43808 0.0
N820 N 0.1758 0.24621 0.43348 0.0
N821 N 0.16883 0.11419 0.47558 0.0
C822 C 0.17374 0.21467 0.44608 0.0
C823 C 0.16954 0.14734 0.46784 0.0
N824 N 0.22651 0.21914 0.47571 0.0
N825 N 0.11137 0.14763 0.45065 0.0
H826 H 0.18865 0.10198 0.4871 0.0
H827 H 0.1493 0.09836 0.46921 0.0
H828 H 0.09092 0.15902 0.43928 0.0
H829 H 0.1057 0.12538 0.46273 0.0
H830 H 0.22793 0.24488 0.47308 0.0
H831 H 0.24589 0.20892 0.48978 0.0
H832 H 0.19701 0.26107 0.43497 0.0
H833 H 0.15596 0.25717 0.42066 0.0
C834 C 0.58052 0.40223 0.20736 0.0
C835 C 0.57491 0.40178 0.17259 0.0
C836 C 0.58765 0.4609 0.16892 0.0
C837 C 0.59248 0.46216 0.20401 0.0
N838 N 0.5812 0.43612 0.25724 0.0
N839 N 0.55944 0.43294 0.1237 0.0
C840 C 0.58508 0.43345 0.22357 0.0
C841 C 0.57329 0.43209 0.15476 0.0
N842 N 0.58247 0.37302 0.22465 0.0
N843 N 0.59938 0.48557 0.14856 0.0
H844 H 0.54866 0.41192 0.11282 0.0
H845 H 0.5556 0.4551 0.11067 0.0
H846 H 0.61374 0.50543 0.15706 0.0
H847 H 0.59864 0.48391 0.12264 0.0
H848 H 0.59012 0.37178 0.24945 0.0
H849 H 0.57808 0.34998 0.21348 0.0
H850 H 0.57339 0.41636 0.27219 0.0
H851 H 0.58221 0.45895 0.26958 0.0
C852 C 0.3594 0.84362 0.96868 0.0
C853 C 0.35526 0.81421 0.94995 0.0
C854 C 0.2985 0.8082 0.97112 0.0
C855 C 0.30005 0.84159 0.98231 0.0
N856 N 0.3323 0.89074 0.99491 0.0
N857 N 0.32372 0.76526 0.93667 0.0
C858 C 0.33091 0.85889 0.98304 0.0
C859 C 0.32593 0.79493 0.9531 0.0
N860 N 0.3904 0.85744 0.97111 0.0
N861 N 0.27045 0.78984 0.97711 0.0
H862 H 0.34416 0.75488 0.92437 0.0
H863 H 0.30187 0.75144 0.93455 0.0
H864 H 0.25027 0.79943 0.99044 0.0
H865 H 0.26822 0.76465 0.97144 0.0
H866 H 0.39596 0.87782 0.98611 0.0
H867 H 0.41121 0.84624 0.96021 0.0
H868 H 0.35311 0.90605 0.99265 0.0
H869 H 0.31194 0.90251 0.0059 0.0
C870 C 0.88664 0.58377 0.73051 0.0
C871 C 0.90509 0.55358 0.73049 0.0
C872 C 0.94835 0.57916 0.69596 0.0
C873 C 0.92839 0.60814 0.69352 0.0
N874 N 0.88576 0.6428 0.71675 0.0
N875 N 0.9576 0.52578 0.7231 0.0
C876 C 0.90019 0.61212 0.71417 0.0
C877 C 0.93757 0.55255 0.71672 0.0
N878 N 0.85518 0.58458 0.74353 0.0
N879 N 0.97621 0.57623 0.67663 0.0
H880 H 0.94998 0.50617 0.73843 0.0
H881 H 0.98249 0.52444 0.71588 0.0
H882 H 0.98523 0.59585 0.66214 0.0
H883 H 0.98963 0.55421 0.67401 0.0
H884 H 0.83909 0.60475 0.74083 0.0
H885 H 0.84428 0.56425 0.75544 0.0
H886 H 0.86648 0.64821 0.73324 0.0
H887 H 0.89555 0.66358 0.70449 0.0
C888 C 0.66781 0.35325 0.52335 0.0
C889 C 0.69858 0.33596 0.5213 0.0
C890 C 0.67425 0.28784 0.54983 0.0
C891 C 0.64535 0.307 0.55614 0.0
N892 N 0.60951 0.35206 0.54047 0.0
N893 N 0.72829 0.28408 0.52244 0.0
C894 C 0.64028 0.3376 0.53942 0.0
C895 C 0.70067 0.30207 0.53089 0.0
N896 N 0.66577 0.38532 0.5121 0.0
N897 N 0.67704 0.25705 0.56406 0.0
H898 H 0.74767 0.29434 0.5084 0.0
H899 H 0.73096 0.25869 0.52692 0.0
H900 H 0.6572 0.24603 0.57684 0.0
H901 H 0.69869 0.2428 0.56381 0.0
H902 H 0.64531 0.40075 0.51596 0.0
H903 H 0.68532 0.39697 0.49952 0.0
H904 H 0.60311 0.37349 0.52734 0.0
H905 H 0.58945 0.34069 0.55254 0.0
C906 C 0.39865 0.92591 0.2713 0.0
C907 C 0.41722 0.95595 0.27375 0.0
C908 C 0.46272 0.92648 0.3016 0.0
C909 C 0.44218 0.8979 0.30312 0.0
N910 N 0.39797 0.8658 0.27948 0.0
N911 N 0.47032 0.98284 0.28053 0.0
C912 C 0.41288 0.89603 0.28383 0.0
C913 C 0.45069 0.9554 0.28502 0.0
N914 N 0.36657 0.92646 0.25986 0.0
N915 N 0.49233 0.92655 0.31836 0.0
H916 H 0.46165 0.00412 0.26827 0.0
H917 H 0.4956 0.98358 0.28629 0.0
H918 H 0.50173 0.90507 0.32964 0.0
H919 H 0.50702 0.94765 0.32175 0.0
H920 H 0.35056 0.90608 0.26102 0.0
H921 H 0.35522 0.94791 0.25066 0.0
H922 H 0.37756 0.86193 0.26393 0.0
H923 H 0.40838 0.84405 0.28931 0.0
C924 C 0.85472 0.64804 0.05438 0.0
C925 C 0.85417 0.68114 0.06633 0.0
C926 C 0.80023 0.69054 0.03954 0.0
C927 C 0.79764 0.65577 0.03435 0.0
N928 N 0.8228 0.60133 0.0329 0.0
N929 N 0.82951 0.73561 0.06746 0.0
C930 C 0.82539 0.63457 0.03979 0.0
C931 C 0.8282 0.7032 0.05722 0.0
N932 N 0.88305 0.62953 0.05811 0.0
N933 N 0.7756 0.71104 0.028 0.0
H934 H 0.8505 0.74556 0.07918 0.0
H935 H 0.80985 0.75235 0.06516 0.0
H936 H 0.75499 0.702 0.01493 0.0
H937 H 0.77673 0.73691 0.0289 0.0
H938 H 0.88626 0.60582 0.0482 0.0
H939 H 0.90458 0.6393 0.06899 0.0
H940 H 0.84061 0.58372 0.03959 0.0
H941 H 0.80199 0.59106 0.02118 0.0
C942 C 0.05245 0.03654 0.79611 0.0
C943 C 0.08016 0.03736 0.77419 0.0
C944 C 0.0894 0.09579 0.78736 0.0
C945 C 0.06774 0.0924 0.81506 0.0
N946 N 0.02441 0.06148 0.84333 0.0
N947 N 0.10142 0.07435 0.73247 0.0
C948 C 0.04752 0.06351 0.81839 0.0
C949 C 0.09212 0.06898 0.76462 0.0
N950 N 0.02917 0.01192 0.79307 0.0
N951 N 0.10834 0.12373 0.78341 0.0
H952 H 0.09815 0.05587 0.71447 0.0
H953 H 0.10784 0.09781 0.7233 0.0
H954 H 0.10705 0.14392 0.7997 0.0
H955 H 0.12669 0.12566 0.76509 0.0
H956 H 0.00715 0.01108 0.80677 0.0
H957 H 0.02954 0.99517 0.77322 0.0
H958 H 0.01231 0.03945 0.84983 0.0
H959 H 0.01823 0.08163 0.85848 0.0
C960 C 0.4465 0.18251 0.20701 0.0
C961 C 0.43993 0.15333 0.1884 0.0
C962 C 0.47252 0.17473 0.14155 0.0
C963 C 0.47644 0.20527 0.15892 0.0
N964 N 0.47655 0.23501 0.21086 0.0
N965 N 0.45494 0.11675 0.14373 0.0
C966 C 0.46671 0.20794 0.19275 0.0
C967 C 0.45622 0.14771 0.1577 0.0
N968 N 0.43167 0.18655 0.23737 0.0
N969 N 0.48206 0.1724 0.10895 0.0
H970 H 0.44282 0.09689 0.15541 0.0
H971 H 0.46828 0.10999 0.12254 0.0
H972 H 0.49426 0.19159 0.09638 0.0
H973 H 0.47639 0.15219 0.09375 0.0
H974 H 0.43198 0.20874 0.25073 0.0
H975 H 0.41804 0.16752 0.24876 0.0
H976 H 0.47239 0.23756 0.23632 0.0
H977 H 0.49153 0.25374 0.20075 0.0
C978 C 0.60643 0.71856 0.92635 0.0
C979 C 0.60143 0.69965 0.95554 0.0
C980 C 0.5445 0.72066 0.95992 0.0
C981 C 0.54692 0.73158 0.92645 0.0
N982 N 0.58061 0.74501 0.87848 0.0
N983 N 0.56921 0.68722 0.00416 0.0
C984 C 0.57832 0.73284 0.9102 0.0
C985 C 0.57178 0.70312 0.97419 0.0
N986 N 0.63779 0.72087 0.9134 0.0
N987 N 0.51578 0.72629 0.9773 0.0
H988 H 0.58963 0.67521 0.01497 0.0
H989 H 0.54726 0.68544 0.01786 0.0
H990 H 0.49575 0.73929 0.96693 0.0
H991 H 0.51272 0.72054 0.0024 0.0
H992 H 0.64399 0.7358 0.89311 0.0
H993 H 0.65819 0.7098 0.92523 0.0
H994 H 0.60198 0.74332 0.86389 0.0
H995 H 0.56049 0.75583 0.86611 0.0
C996 C 0.06298 0.81961 0.69983 0.0
C997 C 0.07882 0.84206 0.67766 0.0
C998 C 0.05501 0.81295 0.62963 0.0
C999 C 0.04103 0.78915 0.65172 0.0
N1000 N 0.02404 0.77367 0.70705 0.0
N1001 N 0.08357 0.8659 0.62282 0.0
C1002 C 0.04237 0.79391 0.68667 0.0
C1003 C 0.07244 0.84074 0.64294 0.0
N1004 N 0.0691 0.82199 0.73324 0.0
N1005 N 0.05312 0.80794 0.59598 0.0
H1006 H 0.0968 0.88632 0.63194 0.0
H1007 H 0.07746 0.86814 0.59772 0.0
H1008 H 0.03937 0.78861 0.58538 0.0
H1009 H 0.06624 0.8219 0.57849 0.0
H1010 H 0.06164 0.80427 0.75065 0.0
H1011 H 0.08286 0.84153 0.74349 0.0
H1012 H 0.02172 0.77719 0.73263 0.0
H1013 H 0.00882 0.7547 0.69784 0.0
C1014 C 0.94938 0.27885 0.44996 0.0
C1015 C 0.9482 0.27013 0.4158 0.0
C1016 C 0.88874 0.28329 0.41425 0.0
C1017 C 0.89264 0.30029 0.44471 0.0
N1018 N 0.92278 0.30911 0.49534 0.0
N1019 N 0.91627 0.25947 0.36601 0.0
C1020 C 0.92148 0.29536 0.46429 0.0
C1021 C 0.91741 0.26992 0.39838 0.0
N1022 N 0.97752 0.27226 0.46795 0.0
N1023 N 0.85789 0.28199 0.39997 0.0
H1024 H 0.93679 0.24911 0.35394 0.0
H1025 H 0.89547 0.26202 0.35073 0.0
H1026 H 0.8371 0.29237 0.41169 0.0
H1027 H 0.85242 0.26849 0.37854 0.0
H1028 H 0.97975 0.27651 0.49341 0.0
H1029 H 0.998 0.26007 0.45751 0.0
H1030 H 0.94405 0.30971 0.51016 0.0
H1031 H 0.9019 0.32046 0.50597 0.0
C1032 C 0.91802 0.28999 0.82231 0.0
C1033 C 0.9529 0.28686 0.82809 0.0
C1034 C 0.95916 0.34722 0.82068 0.0
C1035 C 0.92453 0.34964 0.81487 0.0
N1036 N 0.87488 0.32228 0.79535 0.0
N1037 N 0.00749 0.31107 0.81947 0.0
C1038 C 0.90558 0.32044 0.80989 0.0
C1039 C 0.97388 0.31506 0.82296 0.0
N1040 N 0.89615 0.26563 0.83177 0.0
N1041 N 0.97764 0.37538 0.82516 0.0
H1042 H 0.01872 0.28764 0.81907 0.0
H1043 H 0.02347 0.33063 0.81341 0.0
H1044 H 0.96747 0.39915 0.82241 0.0
H1045 H 0.0024 0.37491 0.83306 0.0
H1046 H 0.87037 0.26861 0.83026 0.0
H1047 H 0.90308 0.24458 0.84523 0.0
H1048 H 0.86107 0.30116 0.78916 0.0
H1049 H 0.86519 0.34471 0.78638 0.0
C1050 C 0.39024 0.2047 0.5951 0.0
C1051 C 0.39303 0.18928 0.5636 0.0
C1052 C 0.44723 0.21598 0.55514 0.0
C1053 C 0.44781 0.2243 0.58943 0.0
N1054 N 0.41935 0.22907 0.64213 0.0
N1055 N 0.42154 0.18283 0.51144 0.0
C1056 C 0.41876 0.22033 0.60925 0.0
C1057 C 0.4204 0.19651 0.54255 0.0
N1058 N 0.36059 0.20309 0.61172 0.0
N1059 N 0.47273 0.22629 0.53506 0.0
H1060 H 0.40146 0.16967 0.50142 0.0
H1061 H 0.44239 0.18366 0.49604 0.0
H1062 H 0.4924 0.24077 0.54407 0.0
H1063 H 0.47302 0.2231 0.50934 0.0
H1064 H 0.35581 0.21568 0.63386 0.0
H1065 H 0.33972 0.19143 0.60143 0.0
H1066 H 0.40043 0.22328 0.6589 0.0
H1067 H 0.43965 0.24098 0.65312 0.0
C1068 C 0.55744 0.66855 0.30422 0.0
C1069 C 0.56425 0.64347 0.32814 0.0
C1070 C 0.53438 0.67463 0.37095 0.0
C1071 C 0.53031 0.70111 0.34785 0.0
N1072 N 0.52771 0.71963 0.29096 0.0
N1073 N 0.55063 0.61692 0.37989 0.0
C1074 C 0.53823 0.69666 0.3138 0.0
C1075 C 0.54933 0.6445 0.35999 0.0
N1076 N 0.57136 0.6666 0.27322 0.0
N1077 N 0.52626 0.67914 0.4037 0.0
H1078 H 0.56178 0.59481 0.37193 0.0
H1079 H 0.53822 0.61491 0.40258 0.0
H1080 H 0.51492 0.70075 0.41253 0.0
H1081 H 0.53218 0.66223 0.42247 0.0
H1082 H 0.57093 0.68598 0.25597 0.0
H1083 H 0.58458 0.64576 0.26515 0.0
H1084 H 0.53035 0.71668 0.26533 0.0
H1085 H 0.5135 0.74035 0.29768 0.0
C1086 C 0.07588 0.76696 0.07431 0.0
C1087 C 0.04465 0.78251 0.06957 0.0
C1088 C 0.07252 0.83125 0.04622 0.0
C1089 C 0.10293 0.81968 0.06017 0.0
N1090 N 0.13515 0.7747 0.0835 0.0
N1091 N 0.01702 0.81624 0.02818 0.0
C1092 C 0.10531 0.78665 0.07241 0.0
C1093 C 0.04382 0.81082 0.04844 0.0
N1094 N 0.07744 0.73317 0.0765 0.0
N1095 N 0.07065 0.86223 0.03219 0.0
H1096 H 0.99823 0.7985 0.0253 0.0
H1097 H 0.01604 0.83529 0.01057 0.0
H1098 H 0.09153 0.87719 0.02814 0.0
H1099 H 0.04815 0.87361 0.02597 0.0
H1100 H 0.09978 0.71995 0.07737 0.0
H1101 H 0.0561 0.71861 0.07322 0.0
H1102 H 0.13748 0.75205 0.09601 0.0
H1103 H 0.15724 0.78829 0.08128 0.0
C1104 C 0.17603 0.48489 0.17949 0.0
C1105 C 0.18071 0.46863 0.21036 0.0
C1106 C 0.20313 0.42022 0.18129 0.0
C1107 C 0.18859 0.43247 0.15145 0.0
N1108 N 0.16541 0.47838 0.12041 0.0
N1109 N 0.22133 0.43336 0.23724 0.0
C1110 C 0.17699 0.46574 0.14977 0.0
C1111 C 0.20128 0.43989 0.21054 0.0
N1112 N 0.17411 0.51873 0.17858 0.0
N1113 N 0.21743 0.38934 0.18192 0.0
H1114 H 0.22473 0.4506 0.25635 0.0
H1115 H 0.2384 0.41384 0.23796 0.0
H1116 H 0.2213 0.37529 0.16042 0.0
H1117 H 0.22424 0.37721 0.20385 0.0
H1118 H 0.17328 0.5324 0.1565 0.0
H1119 H 0.17734 0.53285 0.20019 0.0
H1120 H 0.15329 0.50128 0.11871 0.0
H1121 H 0.16679 0.46514 0.09809 0.0
C1122 C 0.71684 0.0403 0.8228 0.0
C1123 C 0.69588 0.05144 0.84878 0.0
C1124 C 0.6472 0.02686 0.82194 0.0
C1125 C 0.66735 0.01993 0.79376 0.0
N1126 N 0.72163 0.01014 0.77043 0.0
N1127 N 0.64479 0.04607 0.87932 0.0
C1128 C 0.70248 0.02302 0.79543 0.0
C1129 C 0.66231 0.04095 0.85061 0.0
N1130 N 0.74987 0.04852 0.8235 0.0
N1131 N 0.61346 0.02225 0.8203 0.0
H1132 H 0.65564 0.057 0.90025 0.0
H1133 H 0.6208 0.03711 0.88347 0.0
H1134 H 0.60172 0.0112 0.79995 0.0
H1135 H 0.59683 0.03041 0.83843 0.0
H1136 H 0.76633 0.04446 0.8039 0.0
H1137 H 0.76061 0.06014 0.84416 0.0
H1138 H 0.74757 0.00984 0.77074 0.0
H1139 H 0.71125 0.99738 0.75029 0.0
C1140 C 0.70543 0.89568 0.60416 0.0
C1141 C 0.68481 0.92407 0.6012 0.0
C1142 C 0.70591 0.93377 0.54483 0.0
C1143 C 0.72017 0.9015 0.54524 0.0
N1144 N 0.7345 0.85138 0.57528 0.0
N1145 N 0.66618 0.97176 0.5699 0.0
C1146 C 0.72105 0.88265 0.57518 0.0
C1147 C 0.6859 0.94411 0.57213 0.0
N1148 N 0.70908 0.88081 0.63456 0.0
N1149 N 0.71136 0.95419 0.51812 0.0
H1150 H 0.6522 0.98059 0.58992 0.0
H1151 H 0.66257 0.98511 0.54794 0.0
H1152 H 0.72621 0.94704 0.49799 0.0
H1153 H 0.70393 0.97902 0.51728 0.0
H1154 H 0.72576 0.86149 0.63919 0.0
H1155 H 0.69756 0.89018 0.65592 0.0
H1156 H 0.73242 0.83493 0.59524 0.0
H1157 H 0.74621 0.84102 0.55458 0.0
C1158 C 0.79979 0.97026 0.29876 0.0
C1159 C 0.83295 0.98235 0.29979 0.0
C1160 C 0.8361 0.96873 0.35909 0.0
C1161 C 0.80741 0.94882 0.35523 0.0
N1162 N 0.75808 0.93465 0.32478 0.0
N1163 N 0.88204 0.99666 0.33148 0.0
C1164 C 0.78742 0.9518 0.32639 0.0
C1165 C 0.85055 0.98372 0.33045 0.0
N1166 N 0.78092 0.97566 0.27096 0.0
N1167 N 0.85024 0.97137 0.3899 0.0
H1168 H 0.89325 0.00799 0.31097 0.0
H1169 H 0.89763 0.99501 0.35215 0.0
H1170 H 0.83964 0.9598 0.41069 0.0
H1171 H 0.87017 0.98707 0.39532 0.0
H1172 H 0.75589 0.96913 0.26898 0.0
H1173 H 0.78992 0.98929 0.25068 0.0
H1174 H 0.74367 0.93249 0.30333 0.0
H1175 H 0.74856 0.92194 0.34541 0.0
C1176 C 0.82831 0.04117 0.06802 0.0
C1177 C 0.81565 0.05548 0.09777 0.0
C1178 C 0.76514 0.07168 0.06786 0.0
C1179 C 0.7825 0.06719 0.0376 0.0
N1180 N 0.81624 0.02521 0.01117 0.0
N1181 N 0.76971 0.08013 0.12748 0.0
C1182 C 0.80989 0.04488 0.03813 0.0
C1183 C 0.783 0.06888 0.09834 0.0
N1184 N 0.85863 0.02567 0.06798 0.0
N1185 N 0.7313 0.07387 0.06751 0.0
H1186 H 0.78195 0.07725 0.15027 0.0
H1187 H 0.74735 0.09332 0.12851 0.0
H1188 H 0.71801 0.07051 0.04539 0.0
H1189 H 0.71687 0.07457 0.08909 0.0
H1190 H 0.87111 0.019 0.04622 0.0
H1191 H 0.87192 0.02069 0.08976 0.0
H1192 H 0.83451 0.00678 0.01094 0.0
H1193 H 0.79985 0.02396 0.99101 0.0
C1194 C 0.328 0.5091 0.67354 0.0
C1195 C 0.32024 0.52168 0.70543 0.0
C1196 C 0.2922 0.56907 0.6794 0.0
C1197 C 0.30953 0.56188 0.64945 0.0
N1198 N 0.34019 0.5226 0.61599 0.0
N1199 N 0.27427 0.54844 0.73324 0.0
C1200 C 0.32575 0.53078 0.64561 0.0
C1201 C 0.29581 0.54719 0.70695 0.0
N1202 N 0.3329 0.47582 0.66954 0.0
N1203 N 0.27367 0.5975 0.68191 0.0
H1204 H 0.2733 0.52949 0.75103 0.0
H1205 H 0.25446 0.56513 0.73475 0.0
H1206 H 0.26887 0.6129 0.66149 0.0
H1207 H 0.26419 0.60635 0.70437 0.0
H1208 H 0.33605 0.46466 0.64632 0.0
H1209 H 0.32938 0.45938 0.68942 0.0
H1210 H 0.35531 0.50168 0.61311 0.0
H1211 H 0.33803 0.53764 0.59486 0.0
C1212 C 0.1966 0.60928 0.39585 0.0
C1213 C 0.18459 0.57615 0.39673 0.0
C1214 C 0.2172 0.56529 0.44716 0.0
C1215 C 0.22322 0.59992 0.44997 0.0
N1216 N 0.22093 0.65522 0.4267 0.0
N1217 N 0.18478 0.52135 0.42107 0.0
C1218 C 0.2143 0.62196 0.42379 0.0
C1219 C 0.19596 0.55351 0.42136 0.0
N1220 N 0.19043 0.62854 0.36844 0.0
N1221 N 0.23161 0.54397 0.46948 0.0
H1222 H 0.17027 0.51179 0.40174 0.0
H1223 H 0.18879 0.50449 0.44038 0.0
H1224 H 0.24735 0.5523 0.48845 0.0
H1225 H 0.23044 0.51815 0.46759 0.0
H1226 H 0.20052 0.65215 0.36482 0.0
H1227 H 0.17744 0.61949 0.3478 0.0
H1228 H 0.21166 0.67325 0.41051 0.0
H1229 H 0.23476 0.6651 0.44635 0.0
C1230 C 0.28082 0.3746 0.92265 0.0
C1231 C 0.2759 0.39793 0.94874 0.0
C1232 C 0.30474 0.44107 0.91681 0.0
C1233 C 0.31198 0.41701 0.89204 0.0
N1234 N 0.29903 0.36506 0.86565 0.0
N1235 N 0.27367 0.45489 0.9669 0.0
C1236 C 0.29695 0.3852 0.89297 0.0
C1237 C 0.28455 0.43183 0.94439 0.0
N1238 N 0.27215 0.34197 0.92717 0.0
N1239 N 0.31897 0.47195 0.91499 0.0
H1240 H 0.25877 0.44848 0.98725 0.0
H1241 H 0.27678 0.48046 0.9639 0.0
H1242 H 0.33282 0.47981 0.89444 0.0
H1243 H 0.3182 0.48929 0.93422 0.0
H1244 H 0.27858 0.32301 0.91072 0.0
H1245 H 0.25984 0.3334 0.94838 0.0
H1246 H 0.28654 0.34244 0.86348 0.0
H1247 H 0.31095 0.3727 0.8438 0.0
C1248 C 0.08253 0.30806 0.20935 0.0
C1249 C 0.08442 0.28808 0.18031 0.0
C1250 C 0.07788 0.23811 0.21455 0.0
C1251 C 0.08305 0.25757 0.24374 0.0
N1252 N 0.0921 0.31135 0.26894 0.0
N1253 N 0.08466 0.23383 0.15476 0.0
C1254 C 0.08546 0.29274 0.24125 0.0
C1255 C 0.08213 0.25301 0.18276 0.0
N1256 N 0.07741 0.34152 0.20638 0.0
N1257 N 0.06752 0.20574 0.21713 0.0
H1258 H 0.08567 0.24394 0.1308 0.0
H1259 H 0.08753 0.20805 0.15545 0.0
H1260 H 0.06265 0.19413 0.23986 0.0
H1261 H 0.06022 0.19149 0.19671 0.0
H1262 H 0.07336 0.35718 0.22664 0.0
H1263 H 0.07326 0.35281 0.18336 0.0
H1264 H 0.0976 0.33669 0.26802 0.0
H1265 H 0.09481 0.30095 0.29261 0.0
C1266 C 0.49817 0.40375 0.96523 0.0
C1267 C 0.49297 0.38146 0.93818 0.0
C1268 C 0.50768 0.33397 0.97384 0.0
C1269 C 0.51345 0.35633 0.00065 0.0
N1270 N 0.50805 0.41081 0.02465 0.0
N1271 N 0.48645 0.32531 0.91787 0.0
C1272 C 0.50681 0.39078 0.99712 0.0
C1273 C 0.49545 0.34651 0.94296 0.0
N1274 N 0.49504 0.43735 0.96031 0.0
N1275 N 0.51587 0.30106 0.97725 0.0
H1276 H 0.47943 0.33344 0.89421 0.0
H1277 H 0.48384 0.2997 0.92099 0.0
H1278 H 0.52387 0.29063 0.99967 0.0
H1279 H 0.51668 0.28431 0.95751 0.0
H1280 H 0.5026 0.45521 0.97749 0.0
H1281 H 0.48583 0.44773 0.93832 0.0
H1282 H 0.50085 0.43569 0.02484 0.0
H1283 H 0.51388 0.4017 0.04832 0.0
C1284 C 0.36355 0.73685 0.75579 0.0
C1285 C 0.39734 0.7452 0.76168 0.0
C1286 C 0.41155 0.72887 0.70441 0.0
C1287 C 0.37707 0.72663 0.69708 0.0
N1288 N 0.31983 0.72565 0.7155 0.0
N1289 N 0.45424 0.74849 0.74238 0.0
C1290 C 0.35293 0.72943 0.72282 0.0
C1291 C 0.42173 0.74023 0.73645 0.0
N1292 N 0.34187 0.73579 0.78206 0.0
N1293 N 0.43447 0.72052 0.68064 0.0
H1294 H 0.46297 0.7552 0.76582 0.0
H1295 H 0.47239 0.75001 0.72391 0.0
H1296 H 0.42779 0.71326 0.65661 0.0
H1297 H 0.45989 0.71826 0.68534 0.0
H1298 H 0.31738 0.72743 0.78037 0.0
H1299 H 0.34948 0.74057 0.80648 0.0
H1300 H 0.30064 0.73139 0.73195 0.0
H1301 H 0.31132 0.71778 0.69224 0.0
C1302 C 0.01389 0.5892 0.46889 0.0
C1303 C 0.01148 0.61032 0.44056 0.0
C1304 C 0.99827 0.6579 0.47655 0.0
C1305 C 0.99644 0.63573 0.50418 0.0
N1306 N 0.0022 0.5809 0.52765 0.0
N1307 N 0.00777 0.66547 0.41708 0.0
C1308 C 0.00466 0.60163 0.50068 0.0
C1309 C 0.00594 0.64503 0.44434 0.0
N1310 N 0.02641 0.55768 0.46552 0.0
N1311 N 0.99027 0.69076 0.48087 0.0
H1312 H 0.01132 0.65663 0.39294 0.0
H1313 H 0.00715 0.69132 0.41806 0.0
H1314 H 0.9856 0.70118 0.50417 0.0
H1315 H 0.98728 0.70787 0.46166 0.0
H1316 H 0.03179 0.54204 0.4855 0.0
H1317 H 0.03449 0.54804 0.44279 0.0
H1318 H 0.00315 0.55504 0.52616 0.0
H1319 H 0.99771 0.5897 0.5517 0.0
C1320 C 0.59882 0.23225 0.80867 0.0
C1321 C 0.60817 0.19829 0.80752 0.0
C1322 C 0.60121 0.19788 0.74684 0.0
C1323 C 0.59256 0.23208 0.74794 0.0
N1324 N 0.57068 0.27754 0.78043 0.0
N1325 N 0.6054 0.14623 0.77791 0.0
C1326 C 0.58748 0.24797 0.77911 0.0
C1327 C 0.60519 0.18018 0.77733 0.0
N1328 N 0.60113 0.24958 0.83786 0.0
N1329 N 0.60714 0.1827 0.717 0.0
H1330 H 0.60517 0.13294 0.8002 0.0
H1331 H 0.60122 0.13161 0.7569 0.0
H1332 H 0.60446 0.19487 0.6942 0.0
H1333 H 0.61706 0.1588 0.71505 0.0
H1334 H 0.59853 0.27536 0.83926 0.0
H1335 H 0.60723 0.2383 0.8605 0.0
H1336 H 0.56389 0.28913 0.80262 0.0
H1337 H 0.56006 0.28838 0.7593 0.0
C1338 C 0.51018 0.8451 0.55273 0.0
C1339 C 0.52038 0.87838 0.55846 0.0
C1340 C 0.51716 0.89077 0.4988 0.0
C1341 C 0.50538 0.85803 0.49319 0.0
N1342 N 0.49924 0.80141 0.51244 0.0
N1343 N 0.54365 0.92943 0.53688 0.0
C1344 C 0.50508 0.83421 0.51939 0.0
C1345 C 0.52715 0.90013 0.53138 0.0
N1346 N 0.50336 0.82466 0.57913 0.0
N1347 N 0.5176 0.91316 0.47311 0.0
H1348 H 0.55202 0.93659 0.56043 0.0
H1349 H 0.55186 0.9451 0.51789 0.0
H1350 H 0.51238 0.90634 0.44856 0.0
H1351 H 0.52175 0.93856 0.47627 0.0
H1352 H 0.49193 0.80149 0.57683 0.0
H1353 H 0.5073 0.83172 0.60382 0.0
H1354 H 0.50157 0.78238 0.52993 0.0
H1355 H 0.49476 0.79271 0.48841 0.0
C1356 C 0.90988 0.82073 0.27816 0.0
C1357 C 0.91097 0.80315 0.30882 0.0
C1358 C 0.92899 0.75304 0.2794 0.0
C1359 C 0.92091 0.7686 0.24858 0.0
N1360 N 0.90342 0.81731 0.2181 0.0
N1361 N 0.92205 0.75267 0.33937 0.0
C1362 C 0.91181 0.80269 0.24769 0.0
C1363 C 0.9211 0.7694 0.30968 0.0
N1364 N 0.90748 0.85462 0.27834 0.0
N1365 N 0.94475 0.72284 0.27959 0.0
H1366 H 0.9182 0.76437 0.36225 0.0
H1367 H 0.92499 0.72696 0.34121 0.0
H1368 H 0.95143 0.71037 0.25781 0.0
H1369 H 0.95414 0.71171 0.30108 0.0
H1370 H 0.90886 0.86926 0.25694 0.0
H1371 H 0.90807 0.8682 0.30042 0.0
H1372 H 0.893 0.841 0.21632 0.0
H1373 H 0.90493 0.80487 0.19536 0.0
C1374 C 0.96655 0.12117 0.99891 0.0
C1375 C 0.97662 0.15348 0.98907 0.0
C1376 C 0.96758 0.17383 0.04578 0.0
C1377 C 0.95587 0.14186 0.05571 0.0
N1378 N 0.93637 0.08708 0.03815 0.0
N1379 N 0.97632 0.21239 0.0002 0.0
C1380 C 0.95295 0.11606 0.03126 0.0
C1381 C 0.97331 0.18045 0.01148 0.0
N1382 N 0.97081 0.09507 0.97749 0.0
N1383 N 0.97593 0.19716 0.06913 0.0
H1384 H 0.97955 0.21805 0.97508 0.0
H1385 H 0.97157 0.23311 0.01507 0.0
H1386 H 0.97519 0.19263 0.09468 0.0
H1387 H 0.98759 0.21959 0.06315 0.0
H1388 H 0.96859 0.07023 0.98469 0.0
H1389 H 0.97825 0.09839 0.95278 0.0
H1390 H 0.93026 0.06965 0.01994 0.0
H1391 H 0.92589 0.08127 0.06107 0.0
C1392 C 0.21865 0.08953 0.24251 0.0
C1393 C 0.248 0.09372 0.26201 0.0
C1394 C 0.21307 0.10018 0.31156 0.0
C1395 C 0.1847 0.10437 0.29079 0.0
N1396 N 0.15992 0.1019 0.23614 0.0
N1397 N 0.27332 0.10388 0.31556 0.0
C1398 C 0.18731 0.09852 0.25613 0.0
C1399 C 0.24535 0.09883 0.29682 0.0
N1400 N 0.22068 0.07585 0.21139 0.0
N1401 N 0.20916 0.09672 0.34513 0.0
H1402 H 0.2973 0.10309 0.30559 0.0
H1403 H 0.27254 0.11131 0.34041 0.0
H1404 H 0.18571 0.0945 0.35602 0.0
H1405 H 0.22879 0.0915 0.36132 0.0
H1406 H 0.19986 0.06952 0.19723 0.0
H1407 H 0.24304 0.06727 0.20127 0.0
H1408 H 0.16121 0.10211 0.21021 0.0
H1409 H 0.13603 0.10606 0.24556 0.0
C1410 C 0.67496 0.47712 0.001 0.0
C1411 C 0.64944 0.5007 0.00807 0.0
C1412 C 0.61374 0.45654 0.03028 0.0
C1413 C 0.63867 0.43283 0.02185 0.0
N1414 N 0.6954 0.42043 0.00723 0.0
N1415 N 0.59855 0.5149 0.0361 0.0
C1416 C 0.67019 0.44316 0.00996 0.0
C1417 C 0.62008 0.49099 0.02499 0.0
N1418 N 0.70284 0.48685 0.98392 0.0
N1419 N 0.58362 0.44591 0.04222 0.0
H1420 H 0.60297 0.54029 0.03251 0.0
H1421 H 0.57801 0.51002 0.05117 0.0
H1422 H 0.57875 0.42109 0.04821 0.0
H1423 H 0.56293 0.46129 0.04499 0.0
H1424 H 0.72025 0.47032 0.97416 0.0
H1425 H 0.70783 0.51159 0.97778 0.0
H1426 H 0.71996 0.42673 0.0017 0.0
H1427 H 0.69228 0.39533 0.01328 0.0
C1428 C 0.2908 0.92252 0.74765 0.0
C1429 C 0.26034 0.91632 0.76472 0.0
C1430 C 0.29127 0.91153 0.81702 0.0
C1431 C 0.32137 0.90953 0.79862 0.0
N1432 N 0.35071 0.91479 0.74659 0.0
N1433 N 0.2311 0.9052 0.81602 0.0
C1434 C 0.32145 0.91598 0.764 0.0
C1435 C 0.2603 0.9115 0.79969 0.0
N1436 N 0.29031 0.9351 0.71597 0.0
N1437 N 0.29245 0.91398 0.85087 0.0
H1438 H 0.208 0.90527 0.80407 0.0
H1439 H 0.23002 0.89783 0.84089 0.0
H1440 H 0.31497 0.9167 0.8635 0.0
H1441 H 0.27146 0.9176 0.86571 0.0
H1442 H 0.31161 0.94298 0.70338 0.0
H1443 H 0.26823 0.94085 0.70349 0.0
H1444 H 0.35192 0.91499 0.72066 0.0
H1445 H 0.37384 0.91208 0.75822 0.0
C1446 C 0.87714 0.50163 0.5203 0.0
C1447 C 0.84809 0.49648 0.50101 0.0
C1448 C 0.83345 0.55561 0.5063 0.0
C1449 C 0.8649 0.56152 0.52116 0.0
N1450 N 0.9177 0.54103 0.54163 0.0
N1451 N 0.79847 0.51787 0.47456 0.0
C1452 C 0.88687 0.53469 0.52848 0.0
C1453 C 0.82586 0.5232 0.49416 0.0
N1454 N 0.89528 0.47476 0.53075 0.0
N1455 N 0.81088 0.58103 0.50398 0.0
H1456 H 0.79143 0.49428 0.46626 0.0
H1457 H 0.78363 0.53689 0.46504 0.0
H1458 H 0.81602 0.60506 0.51246 0.0
H1459 H 0.78631 0.57784 0.49626 0.0
H1460 H 0.9151 0.47632 0.54742 0.0
H1461 H 0.8885 0.45033 0.52498 0.0
H1462 H 0.93638 0.52317 0.54381 0.0
H1463 H 0.92555 0.56478 0.54863 0.0
C1464 C 0.72616 0.41914 0.75878 0.0
C1465 C 0.7545 0.39808 0.75897 0.0
C1466 C 0.72602 0.35929 0.72169 0.0
C1467 C 0.69615 0.37843 0.72461 0.0
N1468 N 0.66625 0.42174 0.754 0.0
N1469 N 0.78009 0.34568 0.74518 0.0
C1470 C 0.69578 0.40717 0.74524 0.0
C1471 C 0.754 0.36735 0.74189 0.0
N1472 N 0.72816 0.45062 0.77157 0.0
N1473 N 0.72841 0.33445 0.69862 0.0
H1474 H 0.80155 0.35135 0.75877 0.0
H1475 H 0.77937 0.32122 0.73656 0.0
H1476 H 0.70909 0.32805 0.68267 0.0
H1477 H 0.75066 0.32232 0.69304 0.0
H1478 H 0.70914 0.46812 0.76901 0.0
H1479 H 0.74991 0.4603 0.78202 0.0
H1480 H 0.66455 0.44073 0.77159 0.0
H1481 H 0.64306 0.41233 0.747 0.0
C1482 C 0.34036 0.93819 0.48838 0.0
C1483 C 0.34583 0.93775 0.45357 0.0
C1484 C 0.34224 0.99872 0.45147 0.0
C1485 C 0.3372 0.99918 0.48642 0.0
N1486 N 0.32012 0.96912 0.53587 0.0
N1487 N 0.34096 0.96583 0.4008 0.0
C1488 C 0.33273 0.96879 0.5042 0.0
C1489 C 0.34315 0.96751 0.43467 0.0
N1490 N 0.34317 0.90944 0.50647 0.0
N1491 N 0.34773 0.02779 0.43461 0.0
H1492 H 0.33942 0.94316 0.38832 0.0
H1493 H 0.33661 0.98646 0.38564 0.0
H1494 H 0.34731 0.05104 0.44614 0.0
H1495 H 0.35513 0.02868 0.40975 0.0
H1496 H 0.34384 0.90891 0.53242 0.0
H1497 H 0.34657 0.88615 0.49547 0.0
H1498 H 0.31322 0.94765 0.54874 0.0
H1499 H 0.31318 0.99094 0.54808 0.0
C1500 C 0.80561 0.58963 0.22808 0.0
C1501 C 0.81596 0.62313 0.23292 0.0
C1502 C 0.75787 0.63883 0.24351 0.0
C1503 C 0.74896 0.60483 0.24553 0.0
N1504 N 0.76538 0.54698 0.24231 0.0
N1505 N 0.80196 0.6791 0.25057 0.0
C1506 C 0.77295 0.57989 0.23804 0.0
C1507 C 0.79203 0.64777 0.24162 0.0
N1508 N 0.82651 0.56732 0.21316 0.0
N1509 N 0.7335 0.66256 0.2442 0.0
H1510 H 0.82689 0.68631 0.25195 0.0
H1511 H 0.78568 0.69683 0.26027 0.0
H1512 H 0.70824 0.65636 0.24555 0.0
H1513 H 0.73815 0.68777 0.24002 0.0
H1514 H 0.81901 0.54346 0.20621 0.0
H1515 H 0.8502 0.57372 0.20457 0.0
H1516 H 0.78327 0.52818 0.24147 0.0
H1517 H 0.74169 0.53854 0.24876 0.0
C1518 C 0.11532 0.01354 0.00424 0.0
C1519 C 0.14883 0.00272 0.00158 0.0
C1520 C 0.1634 0.0561 0.97533 0.0
C1521 C 0.13143 0.06868 0.98376 0.0
N1522 N 0.07863 0.06055 0.01176 0.0
N1523 N 0.20617 0.01539 0.98721 0.0
C1524 C 0.10772 0.04766 0.99954 0.0
C1525 C 0.17329 0.02428 0.98752 0.0
N1526 N 0.09067 0.99101 0.01104 0.0
N1527 N 0.18389 0.07388 0.95472 0.0
H1528 H 0.21483 0.99218 0.99478 0.0
H1529 H 0.22525 0.03203 0.9814 0.0
H1530 H 0.17733 0.09694 0.9447 0.0
H1531 H 0.20595 0.06428 0.94495 0.0
H1532 H 0.0654 0.997 0.01042 0.0
H1533 H 0.09539 0.96555 0.01358 0.0
H1534 H 0.06205 0.04681 0.0263 0.0
H1535 H 0.07273 0.08582 0.01061 0.0
C1536 C 0.25084 0.2119 0.14778 0.0
C1537 C 0.26213 0.18862 0.12372 0.0
C1538 C 0.25107 0.22867 0.07899 0.0
C1539 C 0.24057 0.25228 0.10324 0.0
N1540 N 0.23928 0.2697 0.16059 0.0
N1541 N 0.28005 0.17684 0.0677 0.0
C1542 C 0.24335 0.24489 0.13764 0.0
C1543 C 0.26442 0.19762 0.08967 0.0
N1544 N 0.24563 0.20206 0.18001 0.0
N1545 N 0.24676 0.23505 0.04583 0.0
H1546 H 0.28978 0.15375 0.07466 0.0
H1547 H 0.28585 0.18359 0.04332 0.0
H1548 H 0.23865 0.25788 0.03669 0.0
H1549 H 0.24956 0.21708 0.02736 0.0
H1550 H 0.23396 0.21699 0.19772 0.0
H1551 H 0.25011 0.17789 0.18844 0.0
H1552 H 0.24405 0.26662 0.18592 0.0
H1553 H 0.23452 0.29435 0.15377 0.0
C1554 C 0.76608 0.30368 0.91866 0.0
C1555 C 0.77856 0.31178 0.88669 0.0
C1556 C 0.78272 0.25239 0.87288 0.0
C1557 C 0.76459 0.24481 0.90212 0.0
N1558 N 0.73956 0.26217 0.95386 0.0
N1559 N 0.80081 0.29472 0.83357 0.0
C1560 C 0.75713 0.27007 0.92574 0.0
C1561 C 0.78805 0.28631 0.86405 0.0
N1562 N 0.7625 0.32822 0.94195 0.0
N1563 N 0.79461 0.22694 0.8537 0.0
H1564 H 0.80658 0.31919 0.82694 0.0
H1565 H 0.80449 0.27778 0.81432 0.0
H1566 H 0.79096 0.20199 0.86013 0.0
H1567 H 0.81034 0.23029 0.83335 0.0
H1568 H 0.75622 0.32375 0.96671 0.0
H1569 H 0.7685 0.35304 0.93705 0.0
H1570 H 0.72948 0.27977 0.96998 0.0
H1571 H 0.73374 0.2377 0.96042 0.0
C1572 C 0.44936 0.02731 0.66201 0.0
C1573 C 0.43785 0.02069 0.62923 0.0
C1574 C 0.49412 0.00342 0.61323 0.0
C1575 C 0.50384 0.0038 0.6471 0.0
N1576 N 0.4902 0.01491 0.70469 0.0
N1577 N 0.44842 0.99756 0.57456 0.0
C1578 C 0.48153 0.0159 0.67179 0.0
C1579 C 0.46009 0.00782 0.60489 0.0
N1580 N 0.43 0.04525 0.68349 0.0
N1581 N 0.51759 0.99842 0.58908 0.0
H1582 H 0.42332 0.99842 0.56788 0.0
H1583 H 0.46309 0.98485 0.55734 0.0
H1584 H 0.54285 0.99552 0.59471 0.0
H1585 H 0.51256 0.00062 0.56369 0.0
H1586 H 0.43847 0.05371 0.70651 0.0
H1587 H 0.40654 0.05441 0.67703 0.0
H1588 H 0.47329 0.01899 0.72395 0.0
H1589 H 0.51392 0.00836 0.71292 0.0
C1590 C 0.74843 0.69275 0.40731 0.0
C1591 C 0.73877 0.68616 0.37406 0.0
C1592 C 0.74217 0.74569 0.36051 0.0
C1593 C 0.75659 0.75145 0.39214 0.0
N1594 N 0.77469 0.73113 0.44585 0.0
N1595 N 0.72501 0.7055 0.31878 0.0
C1596 C 0.75952 0.72528 0.41589 0.0
C1597 C 0.7349 0.71248 0.35064 0.0
N1598 N 0.74703 0.66785 0.43055 0.0
N1599 N 0.73511 0.77218 0.34024 0.0
H1600 H 0.71733 0.68185 0.31126 0.0
H1601 H 0.72559 0.72266 0.29934 0.0
H1602 H 0.74003 0.79674 0.34721 0.0
H1603 H 0.72201 0.77033 0.31795 0.0
H1604 H 0.75057 0.67166 0.45595 0.0
H1605 H 0.73968 0.64361 0.42471 0.0
H1606 H 0.78153 0.71239 0.46244 0.0
H1607 H 0.7823 0.75474 0.45351 0.0
C1608 C 0.00082 0.97183 0.13309 0.0
C1609 C 0.99813 0.9983 0.15605 0.0
C1610 C 0.05728 0.99227 0.17082 0.0
C1611 C 0.0608 0.96779 0.14555 0.0
N1612 N 0.03699 0.93916 0.09789 0.0
N1613 N 0.0244 0.03754 0.1933 0.0
C1614 C 0.03289 0.95889 0.12531 0.0
C1615 C 0.0265 0.00948 0.1741 0.0
N1616 N 0.97268 0.95903 0.11874 0.0
N1617 N 0.08353 -0.00031 0.19129 0.0
H1618 H 0.00233 0.05076 0.1967 0.0
H1619 H 0.04495 0.04935 0.20387 0.0
H1620 H 0.10755 0.99049 0.18776 0.0
H1621 H 0.08117 0.01376 0.21294 0.0
H1622 H 0.97252 0.93726 0.10466 0.0
H1623 H 0.94893 0.9686 0.12331 0.0
H1624 H 0.01828 0.93498 0.0804 0.0
H1625 H 0.0598 0.9294 0.09051 0.0
C1626 C 0.27192 0.78088 0.58782 0.0
C1627 C 0.25548 0.75065 0.59608 0.0
C1628 C 0.20513 0.78256 0.60863 0.0
C1629 C 0.2243 0.81227 0.60873 0.0
N1630 N 0.27646 0.8401 0.59781 0.0
N1631 N 0.206 0.72265 0.61584 0.0
C1632 C 0.25792 0.81156 0.59814 0.0
C1633 C 0.22175 0.75135 0.60653 0.0
N1634 N 0.29971 0.78031 0.56823 0.0
N1635 N 0.17119 0.78412 0.60976 0.0
H1636 H 0.21753 0.69939 0.61514 0.0
H1637 H 0.18248 0.72238 0.62689 0.0
H1638 H 0.15835 0.80666 0.60923 0.0
H1639 H 0.15592 0.76326 0.60726 0.0
H1640 H 0.3113 0.80176 0.55927 0.0
H1641 H 0.30828 0.75837 0.55732 0.0
H1642 H 0.30216 0.84021 0.5939 0.0
H1643 H 0.26633 0.86347 0.60301 0.0
C1644 C 0.00374 0.45108 0.3468 0.0
C1645 C 0.00226 0.4849 0.33678 0.0
C1646 C 0.94113 0.48352 0.3391 0.0
C1647 C 0.94258 0.44984 0.34945 0.0
N1648 N 0.9739 0.3988 0.35258 0.0
N1649 N 0.96984 0.52961 0.31279 0.0
C1650 C 0.97351 0.43267 0.34988 0.0
C1651 C 0.97097 0.49995 0.32957 0.0
N1652 N 0.03369 0.43702 0.35488 0.0
N1653 N 0.91136 0.50011 0.33917 0.0
H1654 H 0.9912 0.54191 0.30448 0.0
H1655 H 0.94783 0.54026 0.30405 0.0
H1656 H 0.88866 0.48844 0.34428 0.0
H1657 H 0.90937 0.52579 0.33601 0.0
H1658 H 0.03591 0.41362 0.3659 0.0
H1659 H 0.05626 0.44973 0.35269 0.0
H1660 H 0.99548 0.38453 0.35062 0.0
H1661 H 0.95203 0.38483 0.35274 0.0
C1662 C 0.52368 0.52938 0.89728 0.0
C1663 C 0.55075 0.53244 0.87459 0.0
C1664 C 0.51425 0.51662 0.82826 0.0
C1665 C 0.4875 0.51285 0.85112 0.0
N1666 N 0.46374 0.52459 0.90461 0.0
N1667 N 0.56998 0.53791 0.81799 0.0
C1668 C 0.49129 0.52262 0.88471 0.0
C1669 C 0.54539 0.52902 0.83984 0.0
N1670 N 0.52924 0.53043 0.93089 0.0
N1671 N 0.51061 0.50626 0.79604 0.0
H1672 H 0.59303 0.54712 0.82579 0.0
H1673 H 0.56653 0.53901 0.7923 0.0
H1674 H 0.48788 0.49826 0.78629 0.0
H1675 H 0.53041 0.504 0.77943 0.0
H1676 H 0.51114 0.52455 0.94854 0.0
H1677 H 0.55267 0.53444 0.94139 0.0
H1678 H 0.46414 0.53422 0.92868 0.0
H1679 H 0.43983 0.5196 0.89555 0.0
C1680 C 0.98338 0.0915 0.268 0.0
C1681 C 0.96177 0.11057 0.247 0.0
C1682 C 0.9865 0.16203 0.26789 0.0
C1683 C 0.0073 0.14316 0.28967 0.0
N1684 N 0.01954 0.09106 0.31656 0.0
N1685 N 0.93574 0.16329 0.23531 0.0
C1686 C 0.00373 0.10822 0.29172 0.0
C1687 C 0.96103 0.14564 0.24979 0.0
N1688 N 0.98638 0.0578 0.26411 0.0
N1689 N 0.99237 0.19518 0.26253 0.0
H1690 H 0.91622 0.1518 0.2225 0.0
H1691 H 0.93219 0.18871 0.23919 0.0
H1692 H 0.0115 0.20846 0.27396 0.0
H1693 H 0.98031 0.20886 0.24403 0.0
H1694 H 0.00495 0.04381 0.27566 0.0
H1695 H 0.97237 0.04375 0.2475 0.0
H1696 H 0.01511 0.06598 0.32158 0.0
H1697 H 0.03465 0.10273 0.33422 0.0
C1698 C 0.62267 0.21423 0.03497 0.0
C1699 C 0.61394 0.24691 0.02477 0.0
C1700 C 0.63848 0.23732 0.97021 0.0
C1701 C 0.64474 0.20353 0.97882 0.0
N1702 N 0.63753 0.15814 0.01761 0.0
N1703 N 0.60294 0.28469 0.97909 0.0
C1704 C 0.63519 0.19138 0.01074 0.0
C1705 C 0.61824 0.25674 0.99117 0.0
N1706 N 0.6202 0.20548 0.06775 0.0
N1707 N 0.65402 0.25209 0.94366 0.0
H1708 H 0.58703 0.29936 0.99344 0.0
H1709 H 0.60314 0.29101 0.95387 0.0
H1710 H 0.67217 0.24042 0.92928 0.0
H1711 H 0.65219 0.27753 0.93871 0.0
H1712 H 0.62932 0.18314 0.0773 0.0
H1713 H 0.61107 0.22174 0.08583 0.0
H1714 H 0.62839 0.1474 0.03941 0.0
H1715 H 0.64597 0.14087 0.00014 0.0
C1716 C 0.54319 0.8586 0.75868 0.0
C1717 C 0.5385 0.89281 0.75202 0.0
C1718 C 0.49712 0.8954 0.79686 0.0
C1719 C 0.49632 0.86016 0.798 0.0
N1720 N 0.51731 0.80751 0.77628 0.0
N1721 N 0.5081 0.94383 0.76296 0.0
C1722 C 0.51942 0.84143 0.77844 0.0
C1723 C 0.51512 0.9115 0.77099 0.0
N1724 N 0.57036 0.84248 0.74599 0.0
N1725 N 0.48072 0.91347 0.82056 0.0
H1726 H 0.5197 0.95663 0.74362 0.0
H1727 H 0.48852 0.9571 0.77364 0.0
H1728 H 0.46802 0.90225 0.84032 0.0
H1729 H 0.48285 0.93925 0.82265 0.0
H1730 H 0.57679 0.81822 0.75267 0.0
H1731 H 0.58838 0.85465 0.73168 0.0
H1732 H 0.53091 0.79366 0.75907 0.0
H1733 H 0.50015 0.79308 0.78918 0.0
C1734 C 0.88623 0.7755 0.53953 0.0
C1735 C 0.89455 0.74278 0.52909 0.0
C1736 C 0.87319 0.75459 0.4734 0.0
C1737 C 0.86766 0.78833 0.48253 0.0
N1738 N 0.87349 0.83237 0.52283 0.0
N1739 N 0.90589 0.70534 0.48322 0.0
C1740 C 0.87555 0.79929 0.51525 0.0
C1741 C 0.89115 0.73364 0.49515 0.0
N1742 N 0.88741 0.78345 0.57258 0.0
N1743 N 0.85946 0.74159 0.44503 0.0
H1744 H 0.92049 0.68961 0.49788 0.0
H1745 H 0.90677 0.69961 0.4579 0.0
H1746 H 0.84399 0.75496 0.42905 0.0
H1747 H 0.86012 0.71623 0.43951 0.0
H1748 H 0.87857 0.80585 0.58217 0.0
H1749 H 0.89492 0.76648 0.5908 0.0
H1750 H 0.88168 0.84239 0.54531 0.0
H1751 H 0.8662 0.85026 0.50541 0.0
C1752 C 0.50892 0.395 0.76416 0.0
C1753 C 0.47469 0.3955 0.75553 0.0
C1754 C 0.48888 0.36969 0.70208 0.0
C1755 C 0.52145 0.3625 0.71426 0.0
N1756 N 0.55905 0.36274 0.76211 0.0
N1757 N 0.43126 0.38135 0.71643 0.0
C1758 C 0.53075 0.37381 0.74662 0.0
C1759 C 0.46434 0.38251 0.72436 0.0
N1760 N 0.52088 0.41521 0.78883 0.0
N1761 N 0.48178 0.36553 0.66909 0.0
H1762 H 0.41269 0.39034 0.73222 0.0
H1763 H 0.42219 0.36907 0.69544 0.0
H1764 H 0.49986 0.35844 0.65184 0.0
H1765 H 0.45926 0.3728 0.65838 0.0
H1766 H 0.54628 0.41766 0.79386 0.0
H1767 H 0.50599 0.43244 0.80134 0.0
H1768 H 0.56445 0.3683 0.78691 0.0
H1769 H 0.57506 0.34491 0.75236 0.0
C1770 C 0.38237 0.74965 0.52291 0.0
C1771 C 0.37153 0.71742 0.51254 0.0
C1772 C 0.38302 0.73277 0.45428 0.0
C1773 C 0.39554 0.76388 0.4652 0.0
N1774 N 0.41738 0.79683 0.51067 0.0
N1775 N 0.36946 0.67578 0.46936 0.0
C1776 C 0.39838 0.77072 0.49971 0.0
C1777 C 0.37411 0.70822 0.47842 0.0
N1778 N 0.3759 0.76147 0.55424 0.0
N1779 N 0.37906 0.72695 0.421 0.0
H1780 H 0.36483 0.65701 0.48674 0.0
H1781 H 0.37366 0.66694 0.44534 0.0
H1782 H 0.38561 0.74443 0.40287 0.0
H1783 H 0.36698 0.70602 0.41156 0.0
H1784 H 0.37988 0.78623 0.56096 0.0
H1785 H 0.36319 0.74848 0.57267 0.0
H1786 H 0.42355 0.80027 0.53567 0.0
H1787 H 0.43008 0.81294 0.49478 0.0
C1788 C 0.0212 0.66016 0.23056 0.0
C1789 C 0.99803 0.64356 0.20939 0.0
C1790 C 0.01723 0.58953 0.23033 0.0
C1791 C 0.04064 0.60616 0.25113 0.0
N1792 N 0.07113 0.65592 0.26449 0.0
N1793 N 0.98001 0.59304 0.18274 0.0
C1794 C 0.04468 0.64108 0.24896 0.0
C1795 C 0.99809 0.60837 0.20719 0.0
N1796 N 0.01939 0.69389 0.23505 0.0
N1797 N 0.01163 0.55612 0.23407 0.0
H1798 H 0.96595 0.60631 0.16532 0.0
H1799 H 0.98153 0.56764 0.17772 0.0
H1800 H 0.02501 0.54112 0.25051 0.0
H1801 H 0.99197 0.54362 0.22263 0.0
H1802 H 0.03286 0.70652 0.25327 0.0
H1803 H 0.00248 0.70918 0.22265 0.0
H1804 H 0.07741 0.68089 0.26117 0.0
H1805 H 0.08876 0.64241 0.27804 0.0
C1806 C 0.14846 0.26782 0.97874 0.0
C1807 C 0.12996 0.29033 0.9991 0.0
C1808 C 0.07786 0.26869 0.976 0.0
C1809 C 0.0964 0.24666 0.95535 0.0
N1810 N 0.14865 0.23311 0.92938 0.0
N1811 N 0.07835 0.31935 0.00875 0.0
C1812 C 0.13151 0.24905 0.95408 0.0
C1813 C 0.09504 0.29319 0.99482 0.0
N1814 N 0.18155 0.26207 0.98445 0.0
N1815 N 0.04424 0.26479 0.97979 0.0
H1816 H 0.0905 0.33804 0.02213 0.0
H1817 H 0.0533 0.32434 0.00397 0.0
H1818 H 0.03053 0.24669 0.96736 0.0
H1819 H 0.03037 0.27768 0.99753 0.0
H1820 H 0.19479 0.24297 0.97292 0.0
H1821 H 0.19536 0.27403 0.00273 0.0
H1822 H 0.17409 0.23651 0.9253 0.0
H1823 H 0.13669 0.21936 0.91082 0.0
C1824 C 0.266 0.99422 0.0945 0.0
C1825 C 0.24861 0.96918 0.11274 0.0
C1826 C 0.27277 0.98992 0.16453 0.0
C1827 C 0.29185 0.01358 0.14608 0.0
N1828 N 0.31341 0.03162 0.09305 0.0
N1829 N 0.24351 0.9372 0.16327 0.0
C1830 C 0.2908 0.0134 0.11086 0.0
C1831 C 0.25487 0.96496 0.14715 0.0
N1832 N 0.25722 0.00174 0.06245 0.0
N1833 N 0.2692 0.99271 0.19831 0.0
H1834 H 0.23068 0.91821 0.15097 0.0
H1835 H 0.24999 0.93147 0.18777 0.0
H1836 H 0.27959 0.01182 0.21241 0.0
H1837 H 0.2527 0.97802 0.21198 0.0
H1838 H 0.26679 0.02218 0.04958 0.0
H1839 H 0.23799 0.98991 0.04974 0.0
H1840 H 0.31565 0.03 0.06723 0.0
H1841 H 0.33218 0.04558 0.10443 0.0
C1842 C 0.78456 0.53272 0.87419 0.0
C1843 C 0.77508 0.49961 0.86633 0.0
C1844 C 0.71934 0.50957 0.88832 0.0
C1845 C 0.72752 0.54359 0.89358 0.0
N1846 N 0.766 0.58909 0.88612 0.0
N1847 N 0.73021 0.46059 0.85575 0.0
C1848 C 0.75963 0.5557 0.88484 0.0
C1849 C 0.74145 0.48936 0.87012 0.0
N1850 N 0.81735 0.54178 0.87275 0.0
N1851 N 0.6917 0.49556 0.90263 0.0
H1852 H 0.74518 0.44513 0.84126 0.0
H1853 H 0.70503 0.4541 0.85513 0.0
H1854 H 0.67555 0.50829 0.9184 0.0
H1855 H 0.68705 0.47001 0.90214 0.0
H1856 H 0.82623 0.56462 0.88126 0.0
H1857 H 0.8361 0.52533 0.8655 0.0
H1858 H 0.788 0.59979 0.8774 0.0
H1859 H 0.74792 0.6064 0.89311 0.0
C1860 C 0.25622 0.03678 0.64141 0.0
C1861 C 0.25829 0.03433 0.60633 0.0
C1862 C 0.2164 0.98958 0.60694 0.0
C1863 C 0.21826 0.98874 0.64211 0.0
N1864 N 0.24329 0.00888 0.69321 0.0
N1865 N 0.243 0.00578 0.55536 0.0
C1866 C 0.23875 0.01188 0.65955 0.0
C1867 C 0.23877 0.01033 0.58887 0.0
N1868 N 0.2707 0.06316 0.65731 0.0
N1869 N 0.19296 0.97083 0.59085 0.0
H1870 H 0.25901 0.02011 0.54079 0.0
H1871 H 0.23264 0.98592 0.54231 0.0
H1872 H 0.17629 0.95535 0.60347 0.0
H1873 H 0.18796 0.97296 0.56546 0.0
H1874 H 0.26722 0.06823 0.68252 0.0
H1875 H 0.28352 0.08188 0.64456 0.0
H1876 H 0.26098 0.0225 0.70644 0.0
H1877 H 0.23163 0.99077 0.70771 0.0
C1878 C 0.71144 0.47018 0.3609 0.0
C1879 C 0.72249 0.50217 0.35069 0.0
C1880 C 0.77769 0.49111 0.37335 0.0
C1881 C 0.76799 0.45797 0.38127 0.0
N1882 N 0.72746 0.41385 0.37639 0.0
N1883 N 0.76941 0.53701 0.33571 0.0
C1884 C 0.73533 0.44678 0.37315 0.0
C1885 C 0.75669 0.51061 0.35313 0.0
N1886 N 0.67827 0.46258 0.35999 0.0
N1887 N 0.80555 0.50522 0.38705 0.0
H1888 H 0.75521 0.55109 0.31909 0.0
H1889 H 0.79488 0.54219 0.33477 0.0
H1890 H 0.82035 0.49356 0.40491 0.0
H1891 H 0.81144 0.53034 0.38394 0.0
H1892 H 0.66837 0.44088 0.37025 0.0
H1893 H 0.66034 0.47916 0.35106 0.0
H1894 H 0.70496 0.40372 0.36831 0.0
H1895 H 0.74479 0.39613 0.38424 0.0
loop_
_geom_bond_atom_site_label_1
_geom_bond_atom_site_label_2
_geom_bond_distance
_geom_bond_site_symmetry_2
_ccdc_geom_bond_type
Co0 O3 1.970 . S
Co0 N17 1.989 . S
Co0 O25 1.967 . S
Co0 O32 1.920 . S
Co1 O4 1.966 . S
Co1 N10 2.022 . S
Co1 N18 1.993 . S
Co1 O26 1.941 . S
C2 O3 1.258 . S
C2 O4 1.263 . S
O3 Co0 1.970 . S
O3 C2 1.258 . S
O4 Co1 1.966 . S
O4 C2 1.263 . S
C5 O6 1.235 . S
C5 O32 1.289 . S
O6 C5 1.235 . S
C7 C9 1.399 1_455 S
C7 N10 1.358 . S
C7 C12 1.497 1_455 S
C8 C9 1.387 1_455 S
C8 N11 1.341 . S
C9 C7 1.399 1_655 S
C9 C8 1.387 1_655 S
N10 Co1 2.022 . S
N10 C7 1.358 . S
N10 N11 1.365 . S
N11 C8 1.341 . S
N11 N10 1.365 . S
N11 H31 0.862 . S
C12 C7 1.497 1_655 S
C12 H13 0.961 . S
C12 H14 0.961 . S
C12 H15 0.960 . S
H13 C12 0.961 . S
H14 C12 0.961 . S
H15 C12 0.960 . S
C16 N17 1.342 . S
C16 C20 1.401 . S
C16 C21 1.499 . S
N17 Co0 1.989 . S
N17 C16 1.342 . S
N17 N18 1.388 . S
N18 Co1 1.993 . S
N18 N17 1.388 . S
N18 C19 1.346 . S
C19 N18 1.346 . S
C19 C20 1.396 . S
C19 C29 1.510 . S
C20 C16 1.401 . S
C20 C19 1.396 . S
C21 C16 1.499 . S
C21 H22 0.959 . S
C21 H23 0.960 . S
C21 H24 0.961 . S
H22 C21 0.959 . S
H23 C21 0.960 . S
H24 C21 0.961 . S
O25 Co0 1.967 . S
O25 C33 1.258 . S
O26 Co1 1.941 . S
O26 C33 1.266 . S
H27 C29 0.959 . S
H28 C29 0.961 . S
C29 C19 1.510 . S
C29 H27 0.959 . S
C29 H28 0.961 . S
C29 H30 0.960 . S
H30 C29 0.960 . S
H31 N11 0.862 . S
O32 Co0 1.920 . S
O32 C5 1.289 . S
C33 O25 1.258 . S
C33 O26 1.266 . S
Co34 O37 1.970 . S
Co34 N51 1.989 . S
Co34 O59 1.967 . S
Co34 O66 1.920 . S
Co35 O38 1.966 . S
Co35 N44 2.022 . S
Co35 N52 1.993 . S
Co35 O60 1.941 . S
C36 O37 1.258 . S
C36 O38 1.263 . S
O37 Co34 1.970 . S
O37 C36 1.258 . S
O38 Co35 1.966 . S
O38 C36 1.263 . S
C39 O40 1.235 . S
C39 O66 1.289 . S
O40 C39 1.235 . S
C41 C43 1.400 . S
C41 N44 1.351 . S
C41 C46 1.501 . S
C42 C43 1.387 . S
C42 N45 1.341 . S
C43 C41 1.400 . S
C43 C42 1.387 . S
N44 Co35 2.022 . S
N44 C41 1.351 . S
N44 N45 1.365 . S
N45 C42 1.341 . S
N45 N44 1.365 . S
N45 H65 0.862 . S
C46 C41 1.501 . S
C46 H47 0.961 . S
C46 H48 0.961 . S
C46 H49 0.960 . S
H47 C46 0.961 . S
H48 C46 0.961 . S
H49 C46 0.960 . S
C50 N51 1.342 . S
C50 C54 1.401 . S
C50 C55 1.499 . S
N51 Co34 1.989 . S
N51 C50 1.342 . S
N51 N52 1.388 . S
N52 Co35 1.993 . S
N52 N51 1.388 . S
N52 C53 1.346 . S
C53 N52 1.346 . S
C53 C54 1.396 . S
C53 C63 1.510 . S
C54 C50 1.401 . S
C54 C53 1.396 . S
C55 C50 1.499 . S
C55 H56 0.959 . S
C55 H57 0.960 . S
C55 H58 0.961 . S
H56 C55 0.959 . S
H57 C55 0.960 . S
H58 C55 0.961 . S
O59 Co34 1.967 . S
O59 C67 1.258 . S
O60 Co35 1.941 . S
O60 C67 1.266 . S
H61 C63 0.959 . S
H62 C63 0.961 . S
C63 C53 1.510 . S
C63 H61 0.959 . S
C63 H62 0.961 . S
C63 H64 0.960 . S
H64 C63 0.960 . S
H65 N45 0.862 . S
O66 Co34 1.920 . S
O66 C39 1.289 . S
C67 O59 1.258 . S
C67 O60 1.266 . S
Co68 O71 1.970 . S
Co68 N85 1.989 . S
Co68 O93 1.967 . S
Co68 O100 1.920 . S
Co69 O72 1.966 . S
Co69 N78 2.022 . S
Co69 N86 1.993 . S
Co69 O94 1.941 . S
C70 O71 1.258 . S
C70 O72 1.263 . S
O71 Co68 1.970 . S
O71 C70 1.258 . S
O72 Co69 1.966 . S
O72 C70 1.263 . S
C73 O74 1.235 . S
C73 O100 1.289 . S
O74 C73 1.235 . S
C75 C77 1.400 . S
C75 N78 1.351 . S
C75 C80 1.501 . S
C76 C77 1.387 . S
C76 N79 1.341 . S
C77 C75 1.400 . S
C77 C76 1.387 . S
N78 Co69 2.022 . S
N78 C75 1.351 . S
N78 N79 1.365 . S
N79 C76 1.341 . S
N79 N78 1.365 . S
N79 H99 0.862 . S
C80 C75 1.501 . S
C80 H81 0.961 . S
C80 H82 0.961 . S
C80 H83 0.960 . S
H81 C80 0.961 . S
H82 C80 0.961 . S
H83 C80 0.960 . S
C84 N85 1.342 . S
C84 C88 1.401 . S
C84 C89 1.499 . S
N85 Co68 1.989 . S
N85 C84 1.342 . S
N85 N86 1.388 . S
N86 Co69 1.993 . S
N86 N85 1.388 . S
N86 C87 1.346 . S
C87 N86 1.346 . S
C87 C88 1.396 . S
C87 C97 1.510 . S
C88 C84 1.401 . S
C88 C87 1.396 . S
C89 C84 1.499 . S
C89 H90 0.959 . S
C89 H91 0.960 . S
C89 H92 0.961 . S
H90 C89 0.959 . S
H91 C89 0.960 . S
H92 C89 0.961 . S
O93 Co68 1.967 . S
O93 C101 1.258 . S
O94 Co69 1.941 . S
O94 C101 1.266 . S
H95 C97 0.959 . S
H96 C97 0.961 . S
C97 C87 1.510 . S
C97 H95 0.959 . S
C97 H96 0.961 . S
C97 H98 0.960 . S
H98 C97 0.960 . S
H99 N79 0.862 . S
O100 Co68 1.920 . S
O100 C73 1.289 . S
C101 O93 1.258 . S
C101 O94 1.266 . S
Co102 O105 1.970 . S
Co102 N119 1.989 . S
Co102 O127 1.967 . S
Co102 O134 1.920 . S
Co103 O106 1.966 . S
Co103 N112 2.022 . S
Co103 N120 1.993 . S
Co103 O128 1.941 . S
C104 O105 1.258 . S
C104 O106 1.263 . S
O105 Co102 1.970 . S
O105 C104 1.258 . S
O106 Co103 1.966 . S
O106 C104 1.263 . S
C107 O108 1.235 . S
C107 O134 1.289 . S
O108 C107 1.235 . S
C109 C111 1.393 1_655 S
C109 N112 1.351 . S
C109 C114 1.501 . S
C110 C111 1.395 . S
C110 N113 1.341 . S
C111 C109 1.393 1_455 S
C111 C110 1.395 . S
N112 Co103 2.022 . S
N112 C109 1.351 . S
N112 N113 1.365 1_655 S
N113 C110 1.341 . S
N113 N112 1.365 1_455 S
N113 H133 0.862 . S
C114 C109 1.501 . S
C114 H115 0.961 . S
C114 H116 0.961 . S
C114 H117 0.960 . S
H115 C114 0.961 . S
H116 C114 0.961 . S
H117 C114 0.960 . S
C118 N119 1.342 . S
C118 C122 1.401 . S
C118 C123 1.499 . S
N119 Co102 1.989 . S
N119 C118 1.342 . S
N119 N120 1.388 . S
N120 Co103 1.993 . S
N120 N119 1.388 . S
N120 C121 1.346 . S
C121 N120 1.346 . S
C121 C122 1.396 . S
C121 C131 1.510 . S
C122 C118 1.401 . S
C122 C121 1.396 . S
C123 C118 1.499 . S
C123 H124 0.959 . S
C123 H125 0.960 . S
C123 H126 0.961 . S
H124 C123 0.959 . S
H125 C123 0.960 . S
H126 C123 0.961 . S
O127 Co102 1.967 . S
O127 C135 1.258 . S
O128 Co103 1.941 . S
O128 C135 1.266 . S
H129 C131 0.959 . S
H130 C131 0.961 . S
C131 C121 1.510 . S
C131 H129 0.959 . S
C131 H130 0.961 . S
C131 H132 0.960 . S
H132 C131 0.960 . S
H133 N113 0.862 . S
O134 Co102 1.920 . S
O134 C107 1.289 . S
C135 O127 1.258 . S
C135 O128 1.266 . S
Co136 O139 1.970 . S
Co136 N153 1.989 . S
Co136 O161 1.967 . S
Co136 O168 1.920 . S
Co137 O140 1.966 . S
Co137 N146 2.022 . S
Co137 N154 1.993 . S
Co137 O162 1.941 . S
C138 O139 1.258 . S
C138 O140 1.263 . S
O139 Co136 1.970 . S
O139 C138 1.258 . S
O140 Co137 1.966 . S
O140 C138 1.263 . S
C141 O142 1.235 . S
C141 O168 1.289 . S
O142 C141 1.235 . S
C143 C145 1.400 . S
C143 N146 1.351 . S
C143 C148 1.501 . S
C144 C145 1.387 . S
C144 N147 1.341 . S
C145 C143 1.400 . S
C145 C144 1.387 . S
N146 Co137 2.022 . S
N146 C143 1.351 . S
N146 N147 1.365 . S
N147 C144 1.341 . S
N147 N146 1.365 . S
N147 H167 0.862 . S
C148 C143 1.501 . S
C148 H149 0.961 . S
C148 H150 0.961 . S
C148 H151 0.960 . S
H149 C148 0.961 . S
H150 C148 0.961 . S
H151 C148 0.960 . S
C152 N153 1.342 . S
C152 C156 1.401 . S
C152 C157 1.499 . S
N153 Co136 1.989 . S
N153 C152 1.342 . S
N153 N154 1.388 . S
N154 Co137 1.993 . S
N154 N153 1.388 . S
N154 C155 1.346 . S
C155 N154 1.346 . S
C155 C156 1.396 . S
C155 C165 1.510 . S
C156 C152 1.401 . S
C156 C155 1.396 . S
C157 C152 1.499 . S
C157 H158 0.959 . S
C157 H159 0.960 . S
C157 H160 0.961 . S
H158 C157 0.959 . S
H159 C157 0.960 . S
H160 C157 0.961 . S
O161 Co136 1.967 . S
O161 C169 1.258 . S
O162 Co137 1.941 . S
O162 C169 1.266 . S
H163 C165 0.959 . S
H164 C165 0.961 . S
C165 C155 1.510 . S
C165 H163 0.959 . S
C165 H164 0.961 . S
C165 H166 0.960 . S
H166 C165 0.960 . S
H167 N147 0.862 . S
O168 Co136 1.920 . S
O168 C141 1.289 . S
C169 O161 1.258 . S
C169 O162 1.266 . S
Co170 O173 1.970 . S
Co170 N187 1.989 . S
Co170 O195 1.967 . S
Co170 O202 1.920 . S
Co171 O174 1.966 . S
Co171 N180 2.022 . S
Co171 N188 1.993 . S
Co171 O196 1.941 . S
C172 O173 1.258 . S
C172 O174 1.263 . S
O173 Co170 1.970 . S
O173 C172 1.258 . S
O174 Co171 1.966 . S
O174 C172 1.263 . S
C175 O176 1.235 . S
C175 O202 1.289 . S
O176 C175 1.235 . S
C177 C179 1.400 . S
C177 N180 1.351 . S
C177 C182 1.501 . S
C178 C179 1.387 . S
C178 N181 1.341 . S
C179 C177 1.400 . S
C179 C178 1.387 . S
N180 Co171 2.022 . S
N180 C177 1.351 . S
N180 N181 1.365 . S
N181 C178 1.341 . S
N181 N180 1.365 . S
N181 H201 0.862 . S
C182 C177 1.501 . S
C182 H183 0.961 . S
C182 H184 0.961 . S
C182 H185 0.960 . S
H183 C182 0.961 . S
H184 C182 0.961 . S
H185 C182 0.960 . S
C186 N187 1.342 . S
C186 C190 1.401 . S
C186 C191 1.499 . S
N187 Co170 1.989 . S
N187 C186 1.342 . S
N187 N188 1.388 . S
N188 Co171 1.993 . S
N188 N187 1.388 . S
N188 C189 1.346 . S
C189 N188 1.346 . S
C189 C190 1.396 . S
C189 C199 1.510 . S
C190 C186 1.401 . S
C190 C189 1.396 . S
C191 C186 1.499 . S
C191 H192 0.959 . S
C191 H193 0.960 . S
C191 H194 0.961 . S
H192 C191 0.959 . S
H193 C191 0.960 . S
H194 C191 0.961 . S
O195 Co170 1.967 . S
O195 C203 1.258 . S
O196 Co171 1.941 . S
O196 C203 1.266 . S
H197 C199 0.959 . S
H198 C199 0.961 . S
C199 C189 1.510 . S
C199 H197 0.959 . S
C199 H198 0.961 . S
C199 H200 0.960 . S
H200 C199 0.960 . S
H201 N181 0.862 . S
O202 Co170 1.920 . S
O202 C175 1.289 . S
C203 O195 1.258 . S
C203 O196 1.266 . S
Co204 O207 1.970 . S
Co204 N221 1.989 . S
Co204 O229 1.967 . S
Co204 O236 1.920 . S
Co205 O208 1.966 . S
Co205 N214 2.022 . S
Co205 N222 1.993 . S
Co205 O230 1.941 . S
C206 O207 1.258 . S
C206 O208 1.263 . S
O207 Co204 1.970 . S
O207 C206 1.258 . S
O208 Co205 1.966 . S
O208 C206 1.263 . S
C209 O210 1.235 . S
C209 O236 1.289 . S
O210 C209 1.235 . S
C211 C213 1.400 1_655 S
C211 N214 1.351 . S
C211 C216 1.500 1_655 S
C212 C213 1.387 1_655 S
C212 N215 1.341 . S
C213 C211 1.400 1_455 S
C213 C212 1.387 1_455 S
N214 Co205 2.022 . S
N214 C211 1.351 . S
N214 N215 1.365 . S
N215 C212 1.341 . S
N215 N214 1.365 . S
N215 H235 0.862 . S
C216 C211 1.500 1_455 S
C216 H217 0.961 . S
C216 H218 0.961 . S
C216 H219 0.960 . S
H217 C216 0.961 . S
H218 C216 0.961 . S
H219 C216 0.960 . S
C220 N221 1.342 . S
C220 C224 1.401 . S
C220 C225 1.499 . S
N221 Co204 1.989 . S
N221 C220 1.342 . S
N221 N222 1.388 . S
N222 Co205 1.993 . S
N222 N221 1.388 . S
N222 C223 1.346 . S
C223 N222 1.346 . S
C223 C224 1.396 . S
C223 C233 1.510 . S
C224 C220 1.401 . S
C224 C223 1.396 . S
C225 C220 1.499 . S
C225 H226 0.959 . S
C225 H227 0.960 . S
C225 H228 0.961 . S
H226 C225 0.959 . S
H227 C225 0.960 . S
H228 C225 0.961 . S
O229 Co204 1.967 . S
O229 C237 1.258 . S
O230 Co205 1.941 . S
O230 C237 1.266 . S
H231 C233 0.959 . S
H232 C233 0.961 . S
C233 C223 1.510 . S
C233 H231 0.959 . S
C233 H232 0.961 . S
C233 H234 0.960 . S
H234 C233 0.960 . S
H235 N215 0.862 . S
O236 Co204 1.920 . S
O236 C209 1.289 . S
C237 O229 1.258 . S
C237 O230 1.266 . S
Co238 O241 1.970 . S
Co238 N255 1.989 . S
Co238 O263 1.967 . S
Co238 O270 1.920 . S
Co239 O242 1.966 . S
Co239 N248 2.022 . S
Co239 N256 1.993 . S
Co239 O264 1.941 . S
C240 O241 1.258 . S
C240 O242 1.263 . S
O241 Co238 1.970 . S
O241 C240 1.258 . S
O242 Co239 1.966 . S
O242 C240 1.263 . S
C243 O244 1.235 . S
C243 O270 1.289 . S
O244 C243 1.235 . S
C245 C247 1.398 1_455 S
C245 N248 1.351 . S
C245 C250 1.501 . S
C246 C247 1.390 . S
C246 N249 1.341 . S
C247 C245 1.398 1_655 S
C247 C246 1.390 . S
N248 Co239 2.022 . S
N248 C245 1.351 . S
N248 N249 1.365 1_455 S
N249 C246 1.341 . S
N249 N248 1.365 1_655 S
N249 H269 0.862 . S
C250 C245 1.501 . S
C250 H251 0.961 . S
C250 H252 0.961 . S
C250 H253 0.960 . S
H251 C250 0.961 . S
H252 C250 0.961 . S
H253 C250 0.960 . S
C254 N255 1.342 . S
C254 C258 1.401 . S
C254 C259 1.499 . S
N255 Co238 1.989 . S
N255 C254 1.342 . S
N255 N256 1.388 . S
N256 Co239 1.993 . S
N256 N255 1.388 . S
N256 C257 1.346 . S
C257 N256 1.346 . S
C257 C258 1.396 . S
C257 C267 1.510 . S
C258 C254 1.401 . S
C258 C257 1.396 . S
C259 C254 1.499 . S
C259 H260 0.959 . S
C259 H261 0.960 . S
C259 H262 0.961 . S
H260 C259 0.959 . S
H261 C259 0.960 . S
H262 C259 0.961 . S
O263 Co238 1.967 . S
O263 C271 1.258 . S
O264 Co239 1.941 . S
O264 C271 1.266 . S
H265 C267 0.959 . S
H266 C267 0.961 . S
C267 C257 1.510 . S
C267 H265 0.959 . S
C267 H266 0.961 . S
C267 H268 0.960 . S
H268 C267 0.960 . S
H269 N249 0.862 . S
O270 Co238 1.920 . S
O270 C243 1.289 . S
C271 O263 1.258 . S
C271 O264 1.266 . S
Co272 O275 1.970 . S
Co272 N289 1.989 . S
Co272 O297 1.967 . S
Co272 O304 1.920 . S
Co273 O276 1.966 . S
Co273 N282 2.022 . S
Co273 N290 1.993 . S
Co273 O298 1.941 . S
C274 O275 1.258 . S
C274 O276 1.263 . S
O275 Co272 1.970 . S
O275 C274 1.258 . S
O276 Co273 1.966 . S
O276 C274 1.263 . S
C277 O278 1.235 . S
C277 O304 1.289 . S
O278 C277 1.235 . S
C279 C281 1.399 1_545 S
C279 N282 1.358 . S
C279 C284 1.497 1_545 S
C280 C281 1.387 1_545 S
C280 N283 1.341 . S
C281 C279 1.399 1_565 S
C281 C280 1.387 1_565 S
N282 Co273 2.022 . S
N282 C279 1.358 . S
N282 N283 1.365 . S
N283 C280 1.341 . S
N283 N282 1.365 . S
N283 H303 0.862 . S
C284 C279 1.497 1_565 S
C284 H285 0.961 . S
C284 H286 0.961 . S
C284 H287 0.960 . S
H285 C284 0.961 . S
H286 C284 0.961 . S
H287 C284 0.960 . S
C288 N289 1.342 . S
C288 C292 1.401 . S
C288 C293 1.499 . S
N289 Co272 1.989 . S
N289 C288 1.342 . S
N289 N290 1.388 . S
N290 Co273 1.993 . S
N290 N289 1.388 . S
N290 C291 1.346 . S
C291 N290 1.346 . S
C291 C292 1.396 . S
C291 C301 1.510 . S
C292 C288 1.401 . S
C292 C291 1.396 . S
C293 C288 1.499 . S
C293 H294 0.959 . S
C293 H295 0.960 . S
C293 H296 0.961 . S
H294 C293 0.959 . S
H295 C293 0.960 . S
H296 C293 0.961 . S
O297 Co272 1.967 . S
O297 C305 1.258 . S
O298 Co273 1.941 . S
O298 C305 1.266 . S
H299 C301 0.959 . S
H300 C301 0.961 . S
C301 C291 1.510 . S
C301 H299 0.959 . S
C301 H300 0.961 . S
C301 H302 0.960 . S
H302 C301 0.960 . S
H303 N283 0.862 . S
O304 Co272 1.920 . S
O304 C277 1.289 . S
C305 O297 1.258 . S
C305 O298 1.266 . S
Co306 O309 1.970 . S
Co306 N323 1.989 . S
Co306 O331 1.967 . S
Co306 O338 1.920 . S
Co307 O310 1.966 . S
Co307 N316 2.022 . S
Co307 N324 1.993 . S
Co307 O332 1.941 . S
C308 O309 1.258 . S
C308 O310 1.263 . S
O309 Co306 1.970 . S
O309 C308 1.258 . S
O310 Co307 1.966 . S
O310 C308 1.263 . S
C311 O312 1.235 . S
C311 O338 1.289 . S
O312 C311 1.235 . S
C313 C315 1.393 1_556 S
C313 N316 1.351 . S
C313 C318 1.501 . S
C314 C315 1.395 . S
C314 N317 1.341 . S
C315 C313 1.393 1_554 S
C315 C314 1.395 . S
N316 Co307 2.022 . S
N316 C313 1.351 . S
N316 N317 1.365 1_556 S
N317 C314 1.341 . S
N317 N316 1.365 1_554 S
N317 H337 0.862 . S
C318 C313 1.501 . S
C318 H319 0.961 . S
C318 H320 0.961 . S
C318 H321 0.960 . S
H319 C318 0.961 . S
H320 C318 0.961 . S
H321 C318 0.960 . S
C322 N323 1.342 . S
C322 C326 1.401 . S
C322 C327 1.499 . S
N323 Co306 1.989 . S
N323 C322 1.342 . S
N323 N324 1.388 . S
N324 Co307 1.993 . S
N324 N323 1.388 . S
N324 C325 1.346 . S
C325 N324 1.346 . S
C325 C326 1.396 . S
C325 C335 1.510 . S
C326 C322 1.401 . S
C326 C325 1.396 . S
C327 C322 1.499 . S
C327 H328 0.959 . S
C327 H329 0.960 . S
C327 H330 0.961 . S
H328 C327 0.959 . S
H329 C327 0.960 . S
H330 C327 0.961 . S
O331 Co306 1.967 . S
O331 C339 1.258 . S
O332 Co307 1.941 . S
O332 C339 1.266 . S
H333 C335 0.959 . S
H334 C335 0.961 . S
C335 C325 1.510 . S
C335 H333 0.959 . S
C335 H334 0.961 . S
C335 H336 0.960 . S
H336 C335 0.960 . S
H337 N317 0.862 . S
O338 Co306 1.920 . S
O338 C311 1.289 . S
C339 O331 1.258 . S
C339 O332 1.266 . S
Co340 O343 1.970 . S
Co340 N357 1.989 . S
Co340 O365 1.967 . S
Co340 O372 1.920 . S
Co341 O344 1.966 . S
Co341 N350 2.022 . S
Co341 N358 1.993 . S
Co341 O366 1.941 . S
C342 O343 1.258 . S
C342 O344 1.263 . S
O343 Co340 1.970 . S
O343 C342 1.258 . S
O344 Co341 1.966 . S
O344 C342 1.263 . S
C345 O346 1.235 . S
C345 O372 1.289 . S
O346 C345 1.235 . S
C347 C349 1.400 1_565 S
C347 N350 1.351 . S
C347 C352 1.500 1_565 S
C348 C349 1.387 1_565 S
C348 N351 1.341 . S
C349 C347 1.400 1_545 S
C349 C348 1.387 1_545 S
N350 Co341 2.022 . S
N350 C347 1.351 . S
N350 N351 1.365 . S
N351 C348 1.341 . S
N351 N350 1.365 . S
N351 H371 0.862 . S
C352 C347 1.500 1_545 S
C352 H353 0.961 . S
C352 H354 0.961 . S
C352 H355 0.960 . S
H353 C352 0.961 . S
H354 C352 0.961 . S
H355 C352 0.960 . S
C356 N357 1.342 . S
C356 C360 1.401 . S
C356 C361 1.499 . S
N357 Co340 1.989 . S
N357 C356 1.342 . S
N357 N358 1.388 . S
N358 Co341 1.993 . S
N358 N357 1.388 . S
N358 C359 1.346 . S
C359 N358 1.346 . S
C359 C360 1.396 . S
C359 C369 1.510 . S
C360 C356 1.401 . S
C360 C359 1.396 . S
C361 C356 1.499 . S
C361 H362 0.959 . S
C361 H363 0.960 . S
C361 H364 0.961 . S
H362 C361 0.959 . S
H363 C361 0.960 . S
H364 C361 0.961 . S
O365 Co340 1.967 . S
O365 C373 1.258 . S
O366 Co341 1.941 . S
O366 C373 1.266 . S
H367 C369 0.959 . S
H368 C369 0.961 . S
C369 C359 1.510 . S
C369 H367 0.959 . S
C369 H368 0.961 . S
C369 H370 0.960 . S
H370 C369 0.960 . S
H371 N351 0.862 . S
O372 Co340 1.920 . S
O372 C345 1.289 . S
C373 O365 1.258 . S
C373 O366 1.266 . S
Co374 O377 1.970 . S
Co374 N391 1.989 . S
Co374 O399 1.967 . S
Co374 O406 1.920 . S
Co375 O378 1.966 . S
Co375 N384 2.022 . S
Co375 N392 1.993 . S
Co375 O400 1.941 . S
C376 O377 1.258 . S
C376 O378 1.263 . S
O377 Co374 1.970 . S
O377 C376 1.258 . S
O378 Co375 1.966 . S
O378 C376 1.263 . S
C379 O380 1.235 . S
C379 O406 1.289 . S
O380 C379 1.235 . S
C381 C383 1.400 . S
C381 N384 1.351 . S
C381 C386 1.501 . S
C382 C383 1.387 . S
C382 N385 1.341 . S
C383 C381 1.400 . S
C383 C382 1.387 . S
N384 Co375 2.022 . S
N384 C381 1.351 . S
N384 N385 1.365 . S
N385 C382 1.341 . S
N385 N384 1.365 . S
N385 H405 0.862 . S
C386 C381 1.501 . S
C386 H387 0.961 . S
C386 H388 0.961 . S
C386 H389 0.960 . S
H387 C386 0.961 . S
H388 C386 0.961 . S
H389 C386 0.960 . S
C390 N391 1.342 . S
C390 C394 1.401 . S
C390 C395 1.499 . S
N391 Co374 1.989 . S
N391 C390 1.342 . S
N391 N392 1.388 . S
N392 Co375 1.993 . S
N392 N391 1.388 . S
N392 C393 1.346 . S
C393 N392 1.346 . S
C393 C394 1.396 . S
C393 C403 1.510 . S
C394 C390 1.401 . S
C394 C393 1.396 . S
C395 C390 1.499 . S
C395 H396 0.959 . S
C395 H397 0.960 . S
C395 H398 0.961 . S
H396 C395 0.959 . S
H397 C395 0.960 . S
H398 C395 0.961 . S
O399 Co374 1.967 . S
O399 C407 1.258 . S
O400 Co375 1.941 . S
O400 C407 1.266 . S
H401 C403 0.959 . S
H402 C403 0.961 . S
C403 C393 1.510 . S
C403 H401 0.959 . S
C403 H402 0.961 . S
C403 H404 0.960 . S
H404 C403 0.960 . S
H405 N385 0.862 . S
O406 Co374 1.920 . S
O406 C379 1.289 . S
C407 O399 1.258 . S
C407 O400 1.266 . S
Co408 O411 1.970 . S
Co408 N425 1.989 . S
Co408 O433 1.967 . S
Co408 O440 1.920 . S
Co409 O412 1.966 . S
Co409 N418 2.022 . S
Co409 N426 1.993 . S
Co409 O434 1.941 . S
C410 O411 1.258 . S
C410 O412 1.263 . S
O411 Co408 1.970 . S
O411 C410 1.258 . S
O412 Co409 1.966 . S
O412 C410 1.263 . S
C413 O414 1.235 . S
C413 O440 1.289 . S
O414 C413 1.235 . S
C415 C417 1.400 . S
C415 N418 1.351 . S
C415 C420 1.501 . S
C416 C417 1.387 . S
C416 N419 1.341 . S
C417 C415 1.400 . S
C417 C416 1.387 . S
N418 Co409 2.022 . S
N418 C415 1.351 . S
N418 N419 1.365 . S
N419 C416 1.341 . S
N419 N418 1.365 . S
N419 H439 0.862 . S
C420 C415 1.501 . S
C420 H421 0.961 . S
C420 H422 0.961 . S
C420 H423 0.960 . S
H421 C420 0.961 . S
H422 C420 0.961 . S
H423 C420 0.960 . S
C424 N425 1.342 . S
C424 C428 1.401 . S
C424 C429 1.499 . S
N425 Co408 1.989 . S
N425 C424 1.342 . S
N425 N426 1.388 . S
N426 Co409 1.993 . S
N426 N425 1.388 . S
N426 C427 1.346 . S
C427 N426 1.346 . S
C427 C428 1.396 . S
C427 C437 1.510 . S
C428 C424 1.401 . S
C428 C427 1.396 . S
C429 C424 1.499 . S
C429 H430 0.959 . S
C429 H431 0.960 . S
C429 H432 0.961 . S
H430 C429 0.959 . S
H431 C429 0.960 . S
H432 C429 0.961 . S
O433 Co408 1.967 . S
O433 C441 1.258 . S
O434 Co409 1.941 . S
O434 C441 1.266 . S
H435 C437 0.959 . S
H436 C437 0.961 . S
C437 C427 1.510 . S
C437 H435 0.959 . S
C437 H436 0.961 . S
C437 H438 0.960 . S
H438 C437 0.960 . S
H439 N419 0.862 . S
O440 Co408 1.920 . S
O440 C413 1.289 . S
C441 O433 1.258 . S
C441 O434 1.266 . S
Co442 O445 1.970 . S
Co442 N459 1.989 . S
Co442 O467 1.967 . S
Co442 O474 1.920 . S
Co443 O446 1.966 . S
Co443 N452 2.022 . S
Co443 N460 1.993 . S
Co443 O468 1.941 . S
C444 O445 1.258 . S
C444 O446 1.263 . S
O445 Co442 1.970 . S
O445 C444 1.258 . S
O446 Co443 1.966 . S
O446 C444 1.263 . S
C447 O448 1.235 . S
C447 O474 1.289 . S
O448 C447 1.235 . S
C449 C451 1.400 . S
C449 N452 1.351 . S
C449 C454 1.501 . S
C450 C451 1.387 . S
C450 N453 1.341 . S
C451 C449 1.400 . S
C451 C450 1.387 . S
N452 Co443 2.022 . S
N452 C449 1.351 . S
N452 N453 1.365 . S
N453 C450 1.341 . S
N453 N452 1.365 . S
N453 H473 0.862 . S
C454 C449 1.501 . S
C454 H455 0.961 . S
C454 H456 0.961 . S
C454 H457 0.960 . S
H455 C454 0.961 . S
H456 C454 0.961 . S
H457 C454 0.960 . S
C458 N459 1.342 . S
C458 C462 1.401 . S
C458 C463 1.499 . S
N459 Co442 1.989 . S
N459 C458 1.342 . S
N459 N460 1.388 . S
N460 Co443 1.993 . S
N460 N459 1.388 . S
N460 C461 1.346 . S
C461 N460 1.346 . S
C461 C462 1.396 . S
C461 C471 1.510 . S
C462 C458 1.401 . S
C462 C461 1.396 . S
C463 C458 1.499 . S
C463 H464 0.959 . S
C463 H465 0.960 . S
C463 H466 0.961 . S
H464 C463 0.959 . S
H465 C463 0.960 . S
H466 C463 0.961 . S
O467 Co442 1.967 . S
O467 C475 1.258 . S
O468 Co443 1.941 . S
O468 C475 1.266 . S
H469 C471 0.959 . S
H470 C471 0.961 . S
C471 C461 1.510 . S
C471 H469 0.959 . S
C471 H470 0.961 . S
C471 H472 0.960 . S
H472 C471 0.960 . S
H473 N453 0.862 . S
O474 Co442 1.920 . S
O474 C447 1.289 . S
C475 O467 1.258 . S
C475 O468 1.266 . S
Co476 O479 1.970 . S
Co476 N493 1.989 . S
Co476 O501 1.967 . S
Co476 O508 1.920 . S
Co477 O480 1.966 . S
Co477 N486 2.022 . S
Co477 N494 1.993 . S
Co477 O502 1.941 . S
C478 O479 1.258 . S
C478 O480 1.263 . S
O479 Co476 1.970 . S
O479 C478 1.258 . S
O480 Co477 1.966 . S
O480 C478 1.263 . S
C481 O482 1.235 . S
C481 O508 1.289 . S
O482 C481 1.235 . S
C483 C485 1.400 . S
C483 N486 1.351 . S
C483 C488 1.501 . S
C484 C485 1.387 . S
C484 N487 1.341 . S
C485 C483 1.400 . S
C485 C484 1.387 . S
N486 Co477 2.022 . S
N486 C483 1.351 . S
N486 N487 1.365 . S
N487 C484 1.341 . S
N487 N486 1.365 . S
N487 H507 0.862 . S
C488 C483 1.501 . S
C488 H489 0.961 . S
C488 H490 0.961 . S
C488 H491 0.960 . S
H489 C488 0.961 . S
H490 C488 0.961 . S
H491 C488 0.960 . S
C492 N493 1.342 . S
C492 C496 1.401 . S
C492 C497 1.499 . S
N493 Co476 1.989 . S
N493 C492 1.342 . S
N493 N494 1.388 . S
N494 Co477 1.993 . S
N494 N493 1.388 . S
N494 C495 1.346 . S
C495 N494 1.346 . S
C495 C496 1.396 . S
C495 C505 1.510 . S
C496 C492 1.401 . S
C496 C495 1.396 . S
C497 C492 1.499 . S
C497 H498 0.959 . S
C497 H499 0.960 . S
C497 H500 0.961 . S
H498 C497 0.959 . S
H499 C497 0.960 . S
H500 C497 0.961 . S
O501 Co476 1.967 . S
O501 C509 1.258 . S
O502 Co477 1.941 . S
O502 C509 1.266 . S
H503 C505 0.959 . S
H504 C505 0.961 . S
C505 C495 1.510 . S
C505 H503 0.959 . S
C505 H504 0.961 . S
C505 H506 0.960 . S
H506 C505 0.960 . S
H507 N487 0.862 . S
O508 Co476 1.920 . S
O508 C481 1.289 . S
C509 O501 1.258 . S
C509 O502 1.266 . S
Co510 O513 1.970 . S
Co510 N527 1.989 . S
Co510 O535 1.967 . S
Co510 O542 1.920 . S
Co511 O514 1.966 . S
Co511 N520 2.022 . S
Co511 N528 1.993 . S
Co511 O536 1.941 . S
C512 O513 1.258 . S
C512 O514 1.263 . S
O513 Co510 1.970 . S
O513 C512 1.258 . S
O514 Co511 1.966 . S
O514 C512 1.263 . S
C515 O516 1.235 . S
C515 O542 1.289 . S
O516 C515 1.235 . S
C517 C519 1.398 1_554 S
C517 N520 1.351 . S
C517 C522 1.501 . S
C518 C519 1.390 . S
C518 N521 1.341 . S
C519 C517 1.398 1_556 S
C519 C518 1.390 . S
N520 Co511 2.022 . S
N520 C517 1.351 . S
N520 N521 1.365 1_554 S
N521 C518 1.341 . S
N521 N520 1.365 1_556 S
N521 H541 0.862 . S
C522 C517 1.501 . S
C522 H523 0.961 . S
C522 H524 0.961 . S
C522 H525 0.960 . S
H523 C522 0.961 . S
H524 C522 0.961 . S
H525 C522 0.960 . S
C526 N527 1.342 . S
C526 C530 1.401 . S
C526 C531 1.499 . S
N527 Co510 1.989 . S
N527 C526 1.342 . S
N527 N528 1.388 . S
N528 Co511 1.993 . S
N528 N527 1.388 . S
N528 C529 1.346 . S
C529 N528 1.346 . S
C529 C530 1.396 . S
C529 C539 1.510 . S
C530 C526 1.401 . S
C530 C529 1.396 . S
C531 C526 1.499 . S
C531 H532 0.959 . S
C531 H533 0.960 . S
C531 H534 0.961 . S
H532 C531 0.959 . S
H533 C531 0.960 . S
H534 C531 0.961 . S
O535 Co510 1.967 . S
O535 C543 1.258 . S
O536 Co511 1.941 . S
O536 C543 1.266 . S
H537 C539 0.959 . S
H538 C539 0.961 . S
C539 C529 1.510 . S
C539 H537 0.959 . S
C539 H538 0.961 . S
C539 H540 0.960 . S
H540 C539 0.960 . S
H541 N521 0.862 . S
O542 Co510 1.920 . S
O542 C515 1.289 . S
C543 O535 1.258 . S
C543 O536 1.266 . S
Co544 O547 1.970 . S
Co544 N561 1.989 . S
Co544 O569 1.967 . S
Co544 O576 1.920 . S
Co545 O548 1.966 . S
Co545 N554 2.022 . S
Co545 N562 1.993 . S
Co545 O570 1.941 . S
C546 O547 1.258 . S
C546 O548 1.263 . S
O547 Co544 1.970 . S
O547 C546 1.258 . S
O548 Co545 1.966 . S
O548 C546 1.263 . S
C549 O550 1.235 . S
C549 O576 1.289 . S
O550 C549 1.235 . S
C551 C553 1.399 1_554 S
C551 N554 1.358 . S
C551 C556 1.497 1_554 S
C552 C553 1.387 1_554 S
C552 N555 1.341 . S
C553 C551 1.399 1_556 S
C553 C552 1.387 1_556 S
N554 Co545 2.022 . S
N554 C551 1.358 . S
N554 N555 1.365 . S
N555 C552 1.341 . S
N555 N554 1.365 . S
N555 H575 0.862 . S
C556 C551 1.497 1_556 S
C556 H557 0.961 . S
C556 H558 0.961 . S
C556 H559 0.960 . S
H557 C556 0.961 . S
H558 C556 0.961 . S
H559 C556 0.960 . S
C560 N561 1.342 . S
C560 C564 1.401 . S
C560 C565 1.499 . S
N561 Co544 1.989 . S
N561 C560 1.342 . S
N561 N562 1.388 . S
N562 Co545 1.993 . S
N562 N561 1.388 . S
N562 C563 1.346 . S
C563 N562 1.346 . S
C563 C564 1.396 . S
C563 C573 1.510 . S
C564 C560 1.401 . S
C564 C563 1.396 . S
C565 C560 1.499 . S
C565 H566 0.959 . S
C565 H567 0.960 . S
C565 H568 0.961 . S
H566 C565 0.959 . S
H567 C565 0.960 . S
H568 C565 0.961 . S
O569 Co544 1.967 . S
O569 C577 1.258 . S
O570 Co545 1.941 . S
O570 C577 1.266 . S
H571 C573 0.959 . S
H572 C573 0.961 . S
C573 C563 1.510 . S
C573 H571 0.959 . S
C573 H572 0.961 . S
C573 H574 0.960 . S
H574 C573 0.960 . S
H575 N555 0.862 . S
O576 Co544 1.920 . S
O576 C549 1.289 . S
C577 O569 1.258 . S
C577 O570 1.266 . S
Co578 O581 1.970 . S
Co578 N595 1.989 . S
Co578 O603 1.967 . S
Co578 O610 1.920 . S
Co579 O582 1.966 . S
Co579 N588 2.022 . S
Co579 N596 1.993 . S
Co579 O604 1.941 . S
C580 O581 1.258 . S
C580 O582 1.263 . S
O581 Co578 1.970 . S
O581 C580 1.258 . S
O582 Co579 1.966 . S
O582 C580 1.263 . S
C583 O584 1.235 . S
C583 O610 1.289 . S
O584 C583 1.235 . S
C585 C587 1.400 1_556 S
C585 N588 1.351 . S
C585 C590 1.500 1_556 S
C586 C587 1.387 1_556 S
C586 N589 1.341 . S
C587 C585 1.400 1_554 S
C587 C586 1.387 1_554 S
N588 Co579 2.022 . S
N588 C585 1.351 . S
N588 N589 1.365 . S
N589 C586 1.341 . S
N589 N588 1.365 . S
N589 H609 0.862 . S
C590 C585 1.500 1_554 S
C590 H591 0.961 . S
C590 H592 0.961 . S
C590 H593 0.960 . S
H591 C590 0.961 . S
H592 C590 0.961 . S
H593 C590 0.960 . S
C594 N595 1.342 . S
C594 C598 1.401 . S
C594 C599 1.499 . S
N595 Co578 1.989 . S
N595 C594 1.342 . S
N595 N596 1.388 . S
N596 Co579 1.993 . S
N596 N595 1.388 . S
N596 C597 1.346 . S
C597 N596 1.346 . S
C597 C598 1.396 . S
C597 C607 1.510 . S
C598 C594 1.401 . S
C598 C597 1.396 . S
C599 C594 1.499 . S
C599 H600 0.959 . S
C599 H601 0.960 . S
C599 H602 0.961 . S
H600 C599 0.959 . S
H601 C599 0.960 . S
H602 C599 0.961 . S
O603 Co578 1.967 . S
O603 C611 1.258 . S
O604 Co579 1.941 . S
O604 C611 1.266 . S
H605 C607 0.959 . S
H606 C607 0.961 . S
C607 C597 1.510 . S
C607 H605 0.959 . S
C607 H606 0.961 . S
C607 H608 0.960 . S
H608 C607 0.960 . S
H609 N589 0.862 . S
O610 Co578 1.920 . S
O610 C583 1.289 . S
C611 O603 1.258 . S
C611 O604 1.266 . S
Co612 O615 1.970 . S
Co612 N629 1.989 . S
Co612 O637 1.967 . S
Co612 O644 1.920 . S
Co613 O616 1.966 . S
Co613 N622 2.022 . S
Co613 N630 1.993 . S
Co613 O638 1.941 . S
C614 O615 1.258 . S
C614 O616 1.263 . S
O615 Co612 1.970 . S
O615 C614 1.258 . S
O616 Co613 1.966 . S
O616 C614 1.263 . S
C617 O618 1.235 . S
C617 O644 1.289 . S
O618 C617 1.235 . S
C619 C621 1.393 1_565 S
C619 N622 1.351 . S
C619 C624 1.501 . S
C620 C621 1.395 . S
C620 N623 1.341 . S
C621 C619 1.393 1_545 S
C621 C620 1.395 . S
N622 Co613 2.022 . S
N622 C619 1.351 . S
N622 N623 1.365 1_565 S
N623 C620 1.341 . S
N623 N622 1.365 1_545 S
N623 H643 0.862 . S
C624 C619 1.501 . S
C624 H625 0.961 . S
C624 H626 0.961 . S
C624 H627 0.960 . S
H625 C624 0.961 . S
H626 C624 0.961 . S
H627 C624 0.960 . S
C628 N629 1.342 . S
C628 C632 1.401 . S
C628 C633 1.499 . S
N629 Co612 1.989 . S
N629 C628 1.342 . S
N629 N630 1.388 . S
N630 Co613 1.993 . S
N630 N629 1.388 . S
N630 C631 1.346 . S
C631 N630 1.346 . S
C631 C632 1.396 . S
C631 C641 1.510 . S
C632 C628 1.401 . S
C632 C631 1.396 . S
C633 C628 1.499 . S
C633 H634 0.959 . S
C633 H635 0.960 . S
C633 H636 0.961 . S
H634 C633 0.959 . S
H635 C633 0.960 . S
H636 C633 0.961 . S
O637 Co612 1.967 . S
O637 C645 1.258 . S
O638 Co613 1.941 . S
O638 C645 1.266 . S
H639 C641 0.959 . S
H640 C641 0.961 . S
C641 C631 1.510 . S
C641 H639 0.959 . S
C641 H640 0.961 . S
C641 H642 0.960 . S
H642 C641 0.960 . S
H643 N623 0.862 . S
O644 Co612 1.920 . S
O644 C617 1.289 . S
C645 O637 1.258 . S
C645 O638 1.266 . S
Co646 O649 1.970 . S
Co646 N663 1.989 . S
Co646 O671 1.967 . S
Co646 O678 1.920 . S
Co647 O650 1.966 . S
Co647 N656 2.022 . S
Co647 N664 1.993 . S
Co647 O672 1.941 . S
C648 O649 1.258 . S
C648 O650 1.263 . S
O649 Co646 1.970 . S
O649 C648 1.258 . S
O650 Co647 1.966 . S
O650 C648 1.263 . S
C651 O652 1.235 . S
C651 O678 1.289 . S
O652 C651 1.235 . S
C653 C655 1.400 . S
C653 N656 1.351 . S
C653 C658 1.501 . S
C654 C655 1.387 . S
C654 N657 1.341 . S
C655 C653 1.400 . S
C655 C654 1.387 . S
N656 Co647 2.022 . S
N656 C653 1.351 . S
N656 N657 1.365 . S
N657 C654 1.341 . S
N657 N656 1.365 . S
N657 H677 0.862 . S
C658 C653 1.501 . S
C658 H659 0.961 . S
C658 H660 0.961 . S
C658 H661 0.960 . S
H659 C658 0.961 . S
H660 C658 0.961 . S
H661 C658 0.960 . S
C662 N663 1.342 . S
C662 C666 1.401 . S
C662 C667 1.499 . S
N663 Co646 1.989 . S
N663 C662 1.342 . S
N663 N664 1.388 . S
N664 Co647 1.993 . S
N664 N663 1.388 . S
N664 C665 1.346 . S
C665 N664 1.346 . S
C665 C666 1.396 . S
C665 C675 1.510 . S
C666 C662 1.401 . S
C666 C665 1.396 . S
C667 C662 1.499 . S
C667 H668 0.959 . S
C667 H669 0.960 . S
C667 H670 0.961 . S
H668 C667 0.959 . S
H669 C667 0.960 . S
H670 C667 0.961 . S
O671 Co646 1.967 . S
O671 C679 1.258 . S
O672 Co647 1.941 . S
O672 C679 1.266 . S
H673 C675 0.959 . S
H674 C675 0.961 . S
C675 C665 1.510 . S
C675 H673 0.959 . S
C675 H674 0.961 . S
C675 H676 0.960 . S
H676 C675 0.960 . S
H677 N657 0.862 . S
O678 Co646 1.920 . S
O678 C651 1.289 . S
C679 O671 1.258 . S
C679 O672 1.266 . S
Co680 O683 1.970 . S
Co680 N697 1.989 . S
Co680 O705 1.967 . S
Co680 O712 1.920 . S
Co681 O684 1.966 . S
Co681 N690 2.022 . S
Co681 N698 1.993 . S
Co681 O706 1.941 . S
C682 O683 1.258 . S
C682 O684 1.263 . S
O683 Co680 1.970 . S
O683 C682 1.258 . S
O684 Co681 1.966 . S
O684 C682 1.263 . S
C685 O686 1.235 . S
C685 O712 1.289 . S
O686 C685 1.235 . S
C687 C689 1.398 1_545 S
C687 N690 1.351 . S
C687 C692 1.501 . S
C688 C689 1.390 . S
C688 N691 1.341 . S
C689 C687 1.398 1_565 S
C689 C688 1.390 . S
N690 Co681 2.022 . S
N690 C687 1.351 . S
N690 N691 1.365 1_545 S
N691 C688 1.341 . S
N691 N690 1.365 1_565 S
N691 H711 0.862 . S
C692 C687 1.501 . S
C692 H693 0.961 . S
C692 H694 0.961 . S
C692 H695 0.960 . S
H693 C692 0.961 . S
H694 C692 0.961 . S
H695 C692 0.960 . S
C696 N697 1.342 . S
C696 C700 1.401 . S
C696 C701 1.499 . S
N697 Co680 1.989 . S
N697 C696 1.342 . S
N697 N698 1.388 . S
N698 Co681 1.993 . S
N698 N697 1.388 . S
N698 C699 1.346 . S
C699 N698 1.346 . S
C699 C700 1.396 . S
C699 C709 1.510 . S
C700 C696 1.401 . S
C700 C699 1.396 . S
C701 C696 1.499 . S
C701 H702 0.959 . S
C701 H703 0.960 . S
C701 H704 0.961 . S
H702 C701 0.959 . S
H703 C701 0.960 . S
H704 C701 0.961 . S
O705 Co680 1.967 . S
O705 C713 1.258 . S
O706 Co681 1.941 . S
O706 C713 1.266 . S
H707 C709 0.959 . S
H708 C709 0.961 . S
C709 C699 1.510 . S
C709 H707 0.959 . S
C709 H708 0.961 . S
C709 H710 0.960 . S
H710 C709 0.960 . S
H711 N691 0.862 . S
O712 Co680 1.920 . S
O712 C685 1.289 . S
C713 O705 1.258 . S
C713 O706 1.266 . S
Co714 O717 1.970 . S
Co714 N731 1.989 . S
Co714 O739 1.967 . S
Co714 O746 1.920 . S
Co715 O718 1.966 . S
Co715 N724 2.022 . S
Co715 N732 1.993 . S
Co715 O740 1.941 . S
C716 O717 1.258 . S
C716 O718 1.263 . S
O717 Co714 1.970 . S
O717 C716 1.258 . S
O718 Co715 1.966 . S
O718 C716 1.263 . S
C719 O720 1.235 . S
C719 O746 1.289 . S
O720 C719 1.235 . S
C721 C723 1.400 . S
C721 N724 1.351 . S
C721 C726 1.501 . S
C722 C723 1.387 . S
C722 N725 1.341 . S
C723 C721 1.400 . S
C723 C722 1.387 . S
N724 Co715 2.022 . S
N724 C721 1.351 . S
N724 N725 1.365 . S
N725 C722 1.341 . S
N725 N724 1.365 . S
N725 H745 0.862 . S
C726 C721 1.501 . S
C726 H727 0.961 . S
C726 H728 0.961 . S
C726 H729 0.960 . S
H727 C726 0.961 . S
H728 C726 0.961 . S
H729 C726 0.960 . S
C730 N731 1.342 . S
C730 C734 1.401 . S
C730 C735 1.499 . S
N731 Co714 1.989 . S
N731 C730 1.342 . S
N731 N732 1.388 . S
N732 Co715 1.993 . S
N732 N731 1.388 . S
N732 C733 1.346 . S
C733 N732 1.346 . S
C733 C734 1.396 . S
C733 C743 1.510 . S
C734 C730 1.401 . S
C734 C733 1.396 . S
C735 C730 1.499 . S
C735 H736 0.959 . S
C735 H737 0.960 . S
C735 H738 0.961 . S
H736 C735 0.959 . S
H737 C735 0.960 . S
H738 C735 0.961 . S
O739 Co714 1.967 . S
O739 C747 1.258 . S
O740 Co715 1.941 . S
O740 C747 1.266 . S
H741 C743 0.959 . S
H742 C743 0.961 . S
C743 C733 1.510 . S
C743 H741 0.959 . S
C743 H742 0.961 . S
C743 H744 0.960 . S
H744 C743 0.960 . S
H745 N725 0.862 . S
O746 Co714 1.920 . S
O746 C719 1.289 . S
C747 O739 1.258 . S
C747 O740 1.266 . S
Co748 O751 1.970 . S
Co748 N765 1.989 . S
Co748 O773 1.967 . S
Co748 O780 1.920 . S
Co749 O752 1.966 . S
Co749 N758 2.022 . S
Co749 N766 1.993 . S
Co749 O774 1.941 . S
C750 O751 1.258 . S
C750 O752 1.263 . S
O751 Co748 1.970 . S
O751 C750 1.258 . S
O752 Co749 1.966 . S
O752 C750 1.263 . S
C753 O754 1.235 . S
C753 O780 1.289 . S
O754 C753 1.235 . S
C755 C757 1.400 . S
C755 N758 1.351 . S
C755 C760 1.501 . S
C756 C757 1.387 . S
C756 N759 1.341 . S
C757 C755 1.400 . S
C757 C756 1.387 . S
N758 Co749 2.022 . S
N758 C755 1.351 . S
N758 N759 1.365 . S
N759 C756 1.341 . S
N759 N758 1.365 . S
N759 H779 0.862 . S
C760 C755 1.501 . S
C760 H761 0.961 . S
C760 H762 0.961 . S
C760 H763 0.960 . S
H761 C760 0.961 . S
H762 C760 0.961 . S
H763 C760 0.960 . S
C764 N765 1.342 . S
C764 C768 1.401 . S
C764 C769 1.499 . S
N765 Co748 1.989 . S
N765 C764 1.342 . S
N765 N766 1.388 . S
N766 Co749 1.993 . S
N766 N765 1.388 . S
N766 C767 1.346 . S
C767 N766 1.346 . S
C767 C768 1.396 . S
C767 C777 1.510 . S
C768 C764 1.401 . S
C768 C767 1.396 . S
C769 C764 1.499 . S
C769 H770 0.959 . S
C769 H771 0.960 . S
C769 H772 0.961 . S
H770 C769 0.959 . S
H771 C769 0.960 . S
H772 C769 0.961 . S
O773 Co748 1.967 . S
O773 C781 1.258 . S
O774 Co749 1.941 . S
O774 C781 1.266 . S
H775 C777 0.959 . S
H776 C777 0.961 . S
C777 C767 1.510 . S
C777 H775 0.959 . S
C777 H776 0.961 . S
C777 H778 0.960 . S
H778 C777 0.960 . S
H779 N759 0.862 . S
O780 Co748 1.920 . S
O780 C753 1.289 . S
C781 O773 1.258 . S
C781 O774 1.266 . S
Co782 O785 1.970 . S
Co782 N799 1.989 . S
Co782 O807 1.967 . S
Co782 O814 1.920 . S
Co783 O786 1.966 . S
Co783 N792 2.022 . S
Co783 N800 1.993 . S
Co783 O808 1.941 . S
C784 O785 1.258 . S
C784 O786 1.263 . S
O785 Co782 1.970 . S
O785 C784 1.258 . S
O786 Co783 1.966 . S
O786 C784 1.263 . S
C787 O788 1.235 . S
C787 O814 1.289 . S
O788 C787 1.235 . S
C789 C791 1.400 . S
C789 N792 1.351 . S
C789 C794 1.501 . S
C790 C791 1.387 . S
C790 N793 1.341 . S
C791 C789 1.400 . S
C791 C790 1.387 . S
N792 Co783 2.022 . S
N792 C789 1.351 . S
N792 N793 1.365 . S
N793 C790 1.341 . S
N793 N792 1.365 . S
N793 H813 0.862 . S
C794 C789 1.501 . S
C794 H795 0.961 . S
C794 H796 0.961 . S
C794 H797 0.960 . S
H795 C794 0.961 . S
H796 C794 0.961 . S
H797 C794 0.960 . S
C798 N799 1.342 . S
C798 C802 1.401 . S
C798 C803 1.499 . S
N799 Co782 1.989 . S
N799 C798 1.342 . S
N799 N800 1.388 . S
N800 Co783 1.993 . S
N800 N799 1.388 . S
N800 C801 1.346 . S
C801 N800 1.346 . S
C801 C802 1.396 . S
C801 C811 1.510 . S
C802 C798 1.401 . S
C802 C801 1.396 . S
C803 C798 1.499 . S
C803 H804 0.959 . S
C803 H805 0.960 . S
C803 H806 0.961 . S
H804 C803 0.959 . S
H805 C803 0.960 . S
H806 C803 0.961 . S
O807 Co782 1.967 . S
O807 C815 1.258 . S
O808 Co783 1.941 . S
O808 C815 1.266 . S
H809 C811 0.959 . S
H810 C811 0.961 . S
C811 C801 1.510 . S
C811 H809 0.959 . S
C811 H810 0.961 . S
C811 H812 0.960 . S
H812 C811 0.960 . S
H813 N793 0.862 . S
O814 Co782 1.920 . S
O814 C787 1.289 . S
C815 O807 1.258 . S
C815 O808 1.266 . S
C816 C817 1.363 . S
C816 C822 1.379 . S
C816 N824 1.356 . S
C817 C816 1.363 . S
C817 C823 1.363 . S
C818 C819 1.363 . S
C818 C823 1.379 . S
C818 N825 1.356 . S
C819 C818 1.363 . S
C819 C822 1.363 . S
N820 C822 1.356 . S
N820 H832 0.984 . S
N820 H833 0.985 . S
N821 C823 1.356 . S
N821 H826 0.984 . S
N821 H827 0.985 . S
C822 C816 1.379 . S
C822 C819 1.363 . S
C822 N820 1.356 . S
C823 C817 1.363 . S
C823 C818 1.379 . S
C823 N821 1.356 . S
N824 C816 1.356 . S
N824 H830 0.984 . S
N824 H831 0.984 . S
N825 C818 1.356 . S
N825 H828 0.984 . S
N825 H829 0.985 . S
H826 N821 0.984 . S
H827 N821 0.985 . S
H828 N825 0.984 . S
H829 N825 0.985 . S
H830 N824 0.984 . S
H831 N824 0.984 . S
H832 N820 0.984 . S
H833 N820 0.985 . S
C834 C835 1.363 . S
C834 C840 1.379 . S
C834 N842 1.356 . S
C835 C834 1.363 . S
C835 C841 1.363 . S
C836 C837 1.363 . S
C836 C841 1.379 . S
C836 N843 1.356 . S
C837 C836 1.363 . S
C837 C840 1.363 . S
N838 C840 1.356 . S
N838 H850 0.984 . S
N838 H851 0.985 . S
N839 C841 1.356 . S
N839 H844 0.984 . S
N839 H845 0.985 . S
C840 C834 1.379 . S
C840 C837 1.363 . S
C840 N838 1.356 . S
C841 C835 1.363 . S
C841 C836 1.379 . S
C841 N839 1.356 . S
N842 C834 1.356 . S
N842 H848 0.984 . S
N842 H849 0.984 . S
N843 C836 1.356 . S
N843 H846 0.984 . S
N843 H847 0.985 . S
H844 N839 0.984 . S
H845 N839 0.985 . S
H846 N843 0.984 . S
H847 N843 0.985 . S
H848 N842 0.984 . S
H849 N842 0.984 . S
H850 N838 0.984 . S
H851 N838 0.985 . S
C852 C853 1.363 . S
C852 C858 1.379 . S
C852 N860 1.356 . S
C853 C852 1.363 . S
C853 C859 1.363 . S
C854 C855 1.363 . S
C854 C859 1.379 . S
C854 N861 1.356 . S
C855 C854 1.363 . S
C855 C858 1.363 . S
N856 C858 1.356 1_554 S
N856 H868 0.984 . S
N856 H869 0.985 . S
N857 C859 1.356 . S
N857 H862 0.984 . S
N857 H863 0.985 . S
C858 C852 1.379 . S
C858 C855 1.363 . S
C858 N856 1.356 1_556 S
C859 C853 1.363 . S
C859 C854 1.379 . S
C859 N857 1.356 . S
N860 C852 1.356 . S
N860 H866 0.984 . S
N860 H867 0.984 . S
N861 C854 1.356 . S
N861 H864 0.984 . S
N861 H865 0.985 . S
H862 N857 0.984 . S
H863 N857 0.985 . S
H864 N861 0.984 . S
H865 N861 0.985 . S
H866 N860 0.984 . S
H867 N860 0.984 . S
H868 N856 0.984 . S
H869 N856 0.985 . S
C870 C871 1.363 . S
C870 C876 1.379 . S
C870 N878 1.356 . S
C871 C870 1.363 . S
C871 C877 1.363 . S
C872 C873 1.363 . S
C872 C877 1.379 . S
C872 N879 1.356 . S
C873 C872 1.363 . S
C873 C876 1.363 . S
N874 C876 1.356 . S
N874 H886 0.984 . S
N874 H887 0.985 . S
N875 C877 1.356 . S
N875 H880 0.984 . S
N875 H881 0.985 . S
C876 C870 1.379 . S
C876 C873 1.363 . S
C876 N874 1.356 . S
C877 C871 1.363 . S
C877 C872 1.379 . S
C877 N875 1.356 . S
N878 C870 1.356 . S
N878 H884 0.984 . S
N878 H885 0.984 . S
N879 C872 1.356 . S
N879 H882 0.984 . S
N879 H883 0.985 . S
H880 N875 0.984 . S
H881 N875 0.985 . S
H882 N879 0.984 . S
H883 N879 0.985 . S
H884 N878 0.984 . S
H885 N878 0.984 . S
H886 N874 0.984 . S
H887 N874 0.985 . S
C888 C889 1.363 . S
C888 C894 1.379 . S
C888 N896 1.356 . S
C889 C888 1.363 . S
C889 C895 1.363 . S
C890 C891 1.363 . S
C890 C895 1.379 . S
C890 N897 1.356 . S
C891 C890 1.363 . S
C891 C894 1.363 . S
N892 C894 1.356 . S
N892 H904 0.984 . S
N892 H905 0.985 . S
N893 C895 1.356 . S
N893 H898 0.984 . S
N893 H899 0.985 . S
C894 C888 1.379 . S
C894 C891 1.363 . S
C894 N892 1.356 . S
C895 C889 1.363 . S
C895 C890 1.379 . S
C895 N893 1.356 . S
N896 C888 1.356 . S
N896 H902 0.984 . S
N896 H903 0.984 . S
N897 C890 1.356 . S
N897 H900 0.984 . S
N897 H901 0.985 . S
H898 N893 0.984 . S
H899 N893 0.985 . S
H900 N897 0.984 . S
H901 N897 0.985 . S
H902 N896 0.984 . S
H903 N896 0.984 . S
H904 N892 0.984 . S
H905 N892 0.985 . S
C906 C907 1.363 . S
C906 C912 1.379 . S
C906 N914 1.356 . S
C907 C906 1.363 . S
C907 C913 1.363 . S
C908 C909 1.363 . S
C908 C913 1.379 . S
C908 N915 1.356 . S
C909 C908 1.363 . S
C909 C912 1.363 . S
N910 C912 1.356 . S
N910 H922 0.984 . S
N910 H923 0.985 . S
N911 C913 1.356 . S
N911 H916 0.984 . S
N911 H917 0.985 . S
C912 C906 1.379 . S
C912 C909 1.363 . S
C912 N910 1.356 . S
C913 C907 1.363 . S
C913 C908 1.379 . S
C913 N911 1.356 . S
N914 C906 1.356 . S
N914 H920 0.984 . S
N914 H921 0.984 . S
N915 C908 1.356 . S
N915 H918 0.984 . S
N915 H919 0.985 . S
H916 N911 0.984 . S
H917 N911 0.985 . S
H918 N915 0.984 . S
H919 N915 0.985 . S
H920 N914 0.984 . S
H921 N914 0.984 . S
H922 N910 0.984 . S
H923 N910 0.985 . S
C924 C925 1.363 . S
C924 C930 1.379 . S
C924 N932 1.356 . S
C925 C924 1.363 . S
C925 C931 1.363 . S
C926 C927 1.363 . S
C926 C931 1.379 . S
C926 N933 1.356 . S
C927 C926 1.363 . S
C927 C930 1.363 . S
N928 C930 1.356 1_556 S
N928 H940 0.984 . S
N928 H941 0.985 . S
N929 C931 1.356 . S
N929 H934 0.984 . S
N929 H935 0.985 . S
C930 C924 1.379 . S
C930 C927 1.363 . S
C930 N928 1.356 1_554 S
C931 C925 1.363 . S
C931 C926 1.379 . S
C931 N929 1.356 . S
N932 C924 1.356 . S
N932 H938 0.984 . S
N932 H939 0.984 . S
N933 C926 1.356 . S
N933 H936 0.984 . S
N933 H937 0.985 . S
H934 N929 0.984 . S
H935 N929 0.985 . S
H936 N933 0.984 . S
H937 N933 0.985 . S
H938 N932 0.984 . S
H939 N932 0.984 . S
H940 N928 0.984 . S
H941 N928 0.985 . S
C942 C943 1.363 . S
C942 C948 1.379 . S
C942 N950 1.321 1_545 S
C943 C942 1.363 . S
C943 C949 1.363 . S
C944 C945 1.363 . S
C944 C949 1.379 . S
C944 N951 1.356 . S
C945 C944 1.363 . S
C945 C948 1.363 . S
N946 C948 1.356 . S
N946 H958 0.984 . S
N946 H959 0.985 . S
N947 C949 1.356 . S
N947 H952 0.984 . S
N947 H953 0.985 . S
C948 C942 1.379 . S
C948 C945 1.363 . S
C948 N946 1.356 . S
C949 C943 1.363 . S
C949 C944 1.379 . S
C949 N947 1.356 . S
N950 C942 1.321 1_565 S
N950 H956 1.004 . S
N950 H957 1.002 . S
N951 C944 1.356 . S
N951 H954 0.984 . S
N951 H955 0.985 . S
H952 N947 0.984 . S
H953 N947 0.985 . S
H954 N951 0.984 . S
H955 N951 0.985 . S
H956 N950 1.004 . S
H957 N950 1.002 . S
H958 N946 0.984 . S
H959 N946 0.985 . S
C960 C961 1.363 . S
C960 C966 1.379 . S
C960 N968 1.356 . S
C961 C960 1.363 . S
C961 C967 1.363 . S
C962 C963 1.363 . S
C962 C967 1.379 . S
C962 N969 1.356 . S
C963 C962 1.363 . S
C963 C966 1.363 . S
N964 C966 1.356 . S
N964 H976 0.984 . S
N964 H977 0.985 . S
N965 C967 1.356 . S
N965 H970 0.984 . S
N965 H971 0.985 . S
C966 C960 1.379 . S
C966 C963 1.363 . S
C966 N964 1.356 . S
C967 C961 1.363 . S
C967 C962 1.379 . S
C967 N965 1.356 . S
N968 C960 1.356 . S
N968 H974 0.984 . S
N968 H975 0.984 . S
N969 C962 1.356 . S
N969 H972 0.984 . S
N969 H973 0.985 . S
H970 N965 0.984 . S
H971 N965 0.985 . S
H972 N969 0.984 . S
H973 N969 0.985 . S
H974 N968 0.984 . S
H975 N968 0.984 . S
H976 N964 0.984 . S
H977 N964 0.985 . S
C978 C979 1.363 . S
C978 C984 1.379 . S
C978 N986 1.356 . S
C979 C978 1.363 . S
C979 C985 1.363 . S
C980 C981 1.363 . S
C980 C985 1.379 . S
C980 N987 1.356 . S
C981 C980 1.363 . S
C981 C984 1.363 . S
N982 C984 1.356 . S
N982 H994 0.984 . S
N982 H995 0.985 . S
N983 C985 1.356 . S
N983 H988 0.984 . S
N983 H989 0.985 . S
C984 C978 1.379 . S
C984 C981 1.363 . S
C984 N982 1.356 . S
C985 C979 1.363 . S
C985 C980 1.379 . S
C985 N983 1.356 . S
N986 C978 1.356 . S
N986 H992 0.984 . S
N986 H993 0.984 . S
N987 C980 1.356 . S
N987 H990 0.984 . S
N987 H991 0.985 . S
H988 N983 0.984 . S
H989 N983 0.985 . S
H990 N987 0.984 . S
H991 N987 0.985 . S
H992 N986 0.984 . S
H993 N986 0.984 . S
H994 N982 0.984 . S
H995 N982 0.985 . S
C996 C997 1.363 . S
C996 C1002 1.379 . S
C996 N1004 1.356 . S
C997 C996 1.363 . S
C997 C1003 1.363 . S
C998 C999 1.363 . S
C998 C1003 1.379 . S
C998 N1005 1.356 1_455 S
C999 C998 1.363 . S
C999 C1002 1.363 . S
N1000 C1002 1.356 . S
N1000 H1012 0.984 . S
N1000 H1013 0.985 . S
N1001 C1003 1.356 . S
N1001 H1006 0.984 . S
N1001 H1007 0.985 . S
C1002 C996 1.379 . S
C1002 C999 1.363 . S
C1002 N1000 1.356 . S
C1003 C997 1.363 . S
C1003 C998 1.379 . S
C1003 N1001 1.356 . S
N1004 C996 1.356 . S
N1004 H1010 0.984 . S
N1004 H1011 0.984 . S
N1005 C998 1.356 1_655 S
N1005 H1008 0.984 . S
N1005 H1009 0.985 . S
H1006 N1001 0.984 . S
H1007 N1001 0.985 . S
H1008 N1005 0.984 . S
H1009 N1005 0.985 . S
H1010 N1004 0.984 . S
H1011 N1004 0.984 . S
H1012 N1000 0.984 . S
H1013 N1000 0.985 . S
C1014 C1015 1.363 . S
C1014 C1020 1.379 . S
C1014 N1022 1.356 . S
C1015 C1014 1.363 . S
C1015 C1021 1.363 . S
C1016 C1017 1.363 . S
C1016 C1021 1.379 . S
C1016 N1023 1.356 . S
C1017 C1016 1.363 . S
C1017 C1020 1.363 . S
N1018 C1020 1.356 . S
N1018 H1030 0.984 . S
N1018 H1031 0.985 . S
N1019 C1021 1.356 . S
N1019 H1024 0.984 . S
N1019 H1025 0.985 . S
C1020 C1014 1.379 . S
C1020 C1017 1.363 . S
C1020 N1018 1.356 . S
C1021 C1015 1.363 . S
C1021 C1016 1.379 . S
C1021 N1019 1.356 . S
N1022 C1014 1.356 . S
N1022 H1028 0.984 . S
N1022 H1029 0.984 . S
N1023 C1016 1.356 . S
N1023 H1026 0.984 . S
N1023 H1027 0.985 . S
H1024 N1019 0.984 . S
H1025 N1019 0.985 . S
H1026 N1023 0.984 . S
H1027 N1023 0.985 . S
H1028 N1022 0.984 . S
H1029 N1022 0.984 . S
H1030 N1018 0.984 . S
H1031 N1018 0.985 . S
C1032 C1033 1.363 . S
C1032 C1038 1.379 . S
C1032 N1040 1.356 . S
C1033 C1032 1.363 . S
C1033 C1039 1.363 . S
C1034 C1035 1.363 . S
C1034 C1039 1.379 . S
C1034 N1041 1.356 . S
C1035 C1034 1.363 . S
C1035 C1038 1.363 . S
N1036 C1038 1.356 . S
N1036 H1048 0.984 . S
N1036 H1049 0.985 . S
N1037 C1039 1.356 1_455 S
N1037 H1042 0.984 . S
N1037 H1043 0.985 . S
C1038 C1032 1.379 . S
C1038 C1035 1.363 . S
C1038 N1036 1.356 . S
C1039 C1033 1.363 . S
C1039 C1034 1.379 . S
C1039 N1037 1.356 1_655 S
N1040 C1032 1.356 . S
N1040 H1046 0.984 . S
N1040 H1047 0.984 . S
N1041 C1034 1.356 . S
N1041 H1044 0.984 . S
N1041 H1045 0.985 . S
H1042 N1037 0.984 . S
H1043 N1037 0.985 . S
H1044 N1041 0.984 . S
H1045 N1041 0.985 . S
H1046 N1040 0.984 . S
H1047 N1040 0.984 . S
H1048 N1036 0.984 . S
H1049 N1036 0.985 . S
C1050 C1051 1.363 . S
C1050 C1056 1.379 . S
C1050 N1058 1.356 . S
C1051 C1050 1.363 . S
C1051 C1057 1.363 . S
C1052 C1053 1.363 . S
C1052 C1057 1.379 . S
C1052 N1059 1.356 . S
C1053 C1052 1.363 . S
C1053 C1056 1.363 . S
N1054 C1056 1.356 . S
N1054 H1066 0.984 . S
N1054 H1067 0.985 . S
N1055 C1057 1.356 . S
N1055 H1060 0.984 . S
N1055 H1061 0.985 . S
C1056 C1050 1.379 . S
C1056 C1053 1.363 . S
C1056 N1054 1.356 . S
C1057 C1051 1.363 . S
C1057 C1052 1.379 . S
C1057 N1055 1.356 . S
N1058 C1050 1.356 . S
N1058 H1064 0.984 . S
N1058 H1065 0.984 . S
N1059 C1052 1.356 . S
N1059 H1062 0.984 . S
N1059 H1063 0.985 . S
H1060 N1055 0.984 . S
H1061 N1055 0.985 . S
H1062 N1059 0.984 . S
H1063 N1059 0.985 . S
H1064 N1058 0.984 . S
H1065 N1058 0.984 . S
H1066 N1054 0.984 . S
H1067 N1054 0.985 . S
C1068 C1069 1.363 . S
C1068 C1074 1.379 . S
C1068 N1076 1.356 . S
C1069 C1068 1.363 . S
C1069 C1075 1.363 . S
C1070 C1071 1.363 . S
C1070 C1075 1.379 . S
C1070 N1077 1.356 . S
C1071 C1070 1.363 . S
C1071 C1074 1.363 . S
N1072 C1074 1.356 . S
N1072 H1084 0.984 . S
N1072 H1085 0.985 . S
N1073 C1075 1.356 . S
N1073 H1078 0.984 . S
N1073 H1079 0.985 . S
C1074 C1068 1.379 . S
C1074 C1071 1.363 . S
C1074 N1072 1.356 . S
C1075 C1069 1.363 . S
C1075 C1070 1.379 . S
C1075 N1073 1.356 . S
N1076 C1068 1.356 . S
N1076 H1082 0.984 . S
N1076 H1083 0.984 . S
N1077 C1070 1.356 . S
N1077 H1080 0.984 . S
N1077 H1081 0.985 . S
H1078 N1073 0.984 . S
H1079 N1073 0.985 . S
H1080 N1077 0.984 . S
H1081 N1077 0.985 . S
H1082 N1076 0.984 . S
H1083 N1076 0.984 . S
H1084 N1072 0.984 . S
H1085 N1072 0.985 . S
C1086 C1087 1.363 . S
C1086 C1092 1.379 . S
C1086 N1094 1.356 . S
C1087 C1086 1.363 . S
C1087 C1093 1.363 . S
C1088 C1089 1.363 . S
C1088 C1093 1.379 . S
C1088 N1095 1.356 . S
C1089 C1088 1.363 . S
C1089 C1092 1.363 . S
N1090 C1092 1.356 . S
N1090 H1102 0.984 . S
N1090 H1103 0.985 . S
N1091 C1093 1.338 1_655 S
N1091 H1096 0.993 . S
N1091 H1097 0.994 . S
C1092 C1086 1.379 . S
C1092 C1089 1.363 . S
C1092 N1090 1.356 . S
C1093 C1087 1.363 . S
C1093 C1088 1.379 . S
C1093 N1091 1.338 1_455 S
N1094 C1086 1.356 . S
N1094 H1100 0.984 . S
N1094 H1101 0.984 . S
N1095 C1088 1.356 . S
N1095 H1098 0.984 . S
N1095 H1099 0.985 . S
H1096 N1091 0.993 . S
H1097 N1091 0.994 . S
H1098 N1095 0.984 . S
H1099 N1095 0.985 . S
H1100 N1094 0.984 . S
H1101 N1094 0.984 . S
H1102 N1090 0.984 . S
H1103 N1090 0.985 . S
C1104 C1105 1.363 . S
C1104 C1110 1.379 . S
C1104 N1112 1.356 . S
C1105 C1104 1.363 . S
C1105 C1111 1.363 . S
C1106 C1107 1.363 . S
C1106 C1111 1.379 . S
C1106 N1113 1.356 . S
C1107 C1106 1.363 . S
C1107 C1110 1.363 . S
N1108 C1110 1.356 . S
N1108 H1120 0.984 . S
N1108 H1121 0.985 . S
N1109 C1111 1.356 . S
N1109 H1114 0.984 . S
N1109 H1115 0.985 . S
C1110 C1104 1.379 . S
C1110 C1107 1.363 . S
C1110 N1108 1.356 . S
C1111 C1105 1.363 . S
C1111 C1106 1.379 . S
C1111 N1109 1.356 . S
N1112 C1104 1.356 . S
N1112 H1118 0.984 . S
N1112 H1119 0.984 . S
N1113 C1106 1.356 . S
N1113 H1116 0.984 . S
N1113 H1117 0.985 . S
H1114 N1109 0.984 . S
H1115 N1109 0.985 . S
H1116 N1113 0.984 . S
H1117 N1113 0.985 . S
H1118 N1112 0.984 . S
H1119 N1112 0.984 . S
H1120 N1108 0.984 . S
H1121 N1108 0.985 . S
C1122 C1123 1.363 . S
C1122 C1128 1.379 . S
C1122 N1130 1.356 . S
C1123 C1122 1.363 . S
C1123 C1129 1.363 . S
C1124 C1125 1.363 . S
C1124 C1129 1.379 . S
C1124 N1131 1.356 . S
C1125 C1124 1.363 . S
C1125 C1128 1.363 . S
N1126 C1128 1.356 1_565 S
N1126 H1138 0.984 . S
N1126 H1139 0.985 . S
N1127 C1129 1.356 . S
N1127 H1132 0.984 . S
N1127 H1133 0.985 . S
C1128 C1122 1.379 . S
C1128 C1125 1.363 . S
C1128 N1126 1.356 1_545 S
C1129 C1123 1.363 . S
C1129 C1124 1.379 . S
C1129 N1127 1.356 . S
N1130 C1122 1.356 . S
N1130 H1136 0.984 . S
N1130 H1137 0.984 . S
N1131 C1124 1.356 . S
N1131 H1134 0.984 . S
N1131 H1135 0.985 . S
H1132 N1127 0.984 . S
H1133 N1127 0.985 . S
H1134 N1131 0.984 . S
H1135 N1131 0.985 . S
H1136 N1130 0.984 . S
H1137 N1130 0.984 . S
H1138 N1126 0.984 . S
H1139 N1126 0.985 . S
C1140 C1141 1.363 . S
C1140 C1146 1.379 . S
C1140 N1148 1.356 . S
C1141 C1140 1.363 . S
C1141 C1147 1.363 . S
C1142 C1143 1.363 . S
C1142 C1147 1.379 . S
C1142 N1149 1.356 . S
C1143 C1142 1.363 . S
C1143 C1146 1.363 . S
N1144 C1146 1.356 . S
N1144 H1156 0.984 . S
N1144 H1157 0.985 . S
N1145 C1147 1.356 . S
N1145 H1150 0.984 . S
N1145 H1151 0.985 . S
C1146 C1140 1.379 . S
C1146 C1143 1.363 . S
C1146 N1144 1.356 . S
C1147 C1141 1.363 . S
C1147 C1142 1.379 . S
C1147 N1145 1.356 . S
N1148 C1140 1.356 . S
N1148 H1154 0.984 . S
N1148 H1155 0.984 . S
N1149 C1142 1.356 . S
N1149 H1152 0.984 . S
N1149 H1153 0.985 . S
H1150 N1145 0.984 . S
H1151 N1145 0.985 . S
H1152 N1149 0.984 . S
H1153 N1149 0.985 . S
H1154 N1148 0.984 . S
H1155 N1148 0.984 . S
H1156 N1144 0.984 . S
H1157 N1144 0.985 . S
C1158 C1159 1.363 . S
C1158 C1164 1.379 . S
C1158 N1166 1.356 . S
C1159 C1158 1.363 . S
C1159 C1165 1.363 . S
C1160 C1161 1.363 . S
C1160 C1165 1.379 . S
C1160 N1167 1.356 . S
C1161 C1160 1.363 . S
C1161 C1164 1.363 . S
N1162 C1164 1.356 . S
N1162 H1174 0.984 . S
N1162 H1175 0.985 . S
N1163 C1165 1.356 1_545 S
N1163 H1168 0.984 . S
N1163 H1169 0.985 . S
C1164 C1158 1.379 . S
C1164 C1161 1.363 . S
C1164 N1162 1.356 . S
C1165 C1159 1.363 . S
C1165 C1160 1.379 . S
C1165 N1163 1.356 1_565 S
N1166 C1158 1.356 . S
N1166 H1172 0.984 . S
N1166 H1173 0.984 . S
N1167 C1160 1.356 . S
N1167 H1170 0.984 . S
N1167 H1171 0.985 . S
H1168 N1163 0.984 . S
H1169 N1163 0.985 . S
H1170 N1167 0.984 . S
H1171 N1167 0.985 . S
H1172 N1166 0.984 . S
H1173 N1166 0.984 . S
H1174 N1162 0.984 . S
H1175 N1162 0.985 . S
C1176 C1177 1.363 . S
C1176 C1182 1.379 . S
C1176 N1184 1.356 . S
C1177 C1176 1.363 . S
C1177 C1183 1.363 . S
C1178 C1179 1.363 . S
C1178 C1183 1.379 . S
C1178 N1185 1.356 . S
C1179 C1178 1.363 . S
C1179 C1182 1.363 . S
N1180 C1182 1.322 1_556 S
N1180 H1192 1.003 . S
N1180 H1193 1.001 . S
N1181 C1183 1.356 . S
N1181 H1186 0.984 . S
N1181 H1187 0.985 . S
C1182 C1176 1.379 . S
C1182 C1179 1.363 . S
C1182 N1180 1.322 1_554 S
C1183 C1177 1.363 . S
C1183 C1178 1.379 . S
C1183 N1181 1.356 . S
N1184 C1176 1.356 . S
N1184 H1190 0.984 . S
N1184 H1191 0.984 . S
N1185 C1178 1.356 . S
N1185 H1188 0.984 . S
N1185 H1189 0.985 . S
H1186 N1181 0.984 . S
H1187 N1181 0.985 . S
H1188 N1185 0.984 . S
H1189 N1185 0.985 . S
H1190 N1184 0.984 . S
H1191 N1184 0.984 . S
H1192 N1180 1.003 . S
H1193 N1180 1.001 . S
C1194 C1195 1.363 . S
C1194 C1200 1.379 . S
C1194 N1202 1.356 . S
C1195 C1194 1.363 . S
C1195 C1201 1.363 . S
C1196 C1197 1.363 . S
C1196 C1201 1.379 . S
C1196 N1203 1.356 . S
C1197 C1196 1.363 . S
C1197 C1200 1.363 . S
N1198 C1200 1.356 . S
N1198 H1210 0.984 . S
N1198 H1211 0.985 . S
N1199 C1201 1.356 . S
N1199 H1204 0.984 . S
N1199 H1205 0.985 . S
C1200 C1194 1.379 . S
C1200 C1197 1.363 . S
C1200 N1198 1.356 . S
C1201 C1195 1.363 . S
C1201 C1196 1.379 . S
C1201 N1199 1.356 . S
N1202 C1194 1.356 . S
N1202 H1208 0.984 . S
N1202 H1209 0.984 . S
N1203 C1196 1.356 . S
N1203 H1206 0.984 . S
N1203 H1207 0.985 . S
H1204 N1199 0.984 . S
H1205 N1199 0.985 . S
H1206 N1203 0.984 . S
H1207 N1203 0.985 . S
H1208 N1202 0.984 . S
H1209 N1202 0.984 . S
H1210 N1198 0.984 . S
H1211 N1198 0.985 . S
C1212 C1213 1.363 . S
C1212 C1218 1.379 . S
C1212 N1220 1.356 . S
C1213 C1212 1.363 . S
C1213 C1219 1.363 . S
C1214 C1215 1.363 . S
C1214 C1219 1.379 . S
C1214 N1221 1.356 . S
C1215 C1214 1.363 . S
C1215 C1218 1.363 . S
N1216 C1218 1.356 . S
N1216 H1228 0.984 . S
N1216 H1229 0.985 . S
N1217 C1219 1.356 . S
N1217 H1222 0.984 . S
N1217 H1223 0.985 . S
C1218 C1212 1.379 . S
C1218 C1215 1.363 . S
C1218 N1216 1.356 . S
C1219 C1213 1.363 . S
C1219 C1214 1.379 . S
C1219 N1217 1.356 . S
N1220 C1212 1.356 . S
N1220 H1226 0.984 . S
N1220 H1227 0.984 . S
N1221 C1214 1.356 . S
N1221 H1224 0.984 . S
N1221 H1225 0.985 . S
H1222 N1217 0.984 . S
H1223 N1217 0.985 . S
H1224 N1221 0.984 . S
H1225 N1221 0.985 . S
H1226 N1220 0.984 . S
H1227 N1220 0.984 . S
H1228 N1216 0.984 . S
H1229 N1216 0.985 . S
C1230 C1231 1.363 . S
C1230 C1236 1.379 . S
C1230 N1238 1.356 . S
C1231 C1230 1.363 . S
C1231 C1237 1.363 . S
C1232 C1233 1.363 . S
C1232 C1237 1.379 . S
C1232 N1239 1.356 . S
C1233 C1232 1.363 . S
C1233 C1236 1.363 . S
N1234 C1236 1.356 . S
N1234 H1246 0.984 . S
N1234 H1247 0.985 . S
N1235 C1237 1.356 . S
N1235 H1240 0.984 . S
N1235 H1241 0.985 . S
C1236 C1230 1.379 . S
C1236 C1233 1.363 . S
C1236 N1234 1.356 . S
C1237 C1231 1.363 . S
C1237 C1232 1.379 . S
C1237 N1235 1.356 . S
N1238 C1230 1.356 . S
N1238 H1244 0.984 . S
N1238 H1245 0.984 . S
N1239 C1232 1.356 . S
N1239 H1242 0.984 . S
N1239 H1243 0.985 . S
H1240 N1235 0.984 . S
H1241 N1235 0.985 . S
H1242 N1239 0.984 . S
H1243 N1239 0.985 . S
H1244 N1238 0.984 . S
H1245 N1238 0.984 . S
H1246 N1234 0.984 . S
H1247 N1234 0.985 . S
C1248 C1249 1.363 . S
C1248 C1254 1.379 . S
C1248 N1256 1.356 . S
C1249 C1248 1.363 . S
C1249 C1255 1.363 . S
C1250 C1251 1.363 . S
C1250 C1255 1.379 . S
C1250 N1257 1.356 . S
C1251 C1250 1.363 . S
C1251 C1254 1.363 . S
N1252 C1254 1.356 . S
N1252 H1264 0.984 . S
N1252 H1265 0.985 . S
N1253 C1255 1.356 . S
N1253 H1258 0.984 . S
N1253 H1259 0.985 . S
C1254 C1248 1.379 . S
C1254 C1251 1.363 . S
C1254 N1252 1.356 . S
C1255 C1249 1.363 . S
C1255 C1250 1.379 . S
C1255 N1253 1.356 . S
N1256 C1248 1.356 . S
N1256 H1262 0.984 . S
N1256 H1263 0.984 . S
N1257 C1250 1.356 . S
N1257 H1260 0.984 . S
N1257 H1261 0.985 . S
H1258 N1253 0.984 . S
H1259 N1253 0.985 . S
H1260 N1257 0.984 . S
H1261 N1257 0.985 . S
H1262 N1256 0.984 . S
H1263 N1256 0.984 . S
H1264 N1252 0.984 . S
H1265 N1252 0.985 . S
C1266 C1267 1.363 . S
C1266 C1272 1.379 . S
C1266 N1274 1.356 . S
C1267 C1266 1.363 . S
C1267 C1273 1.363 . S
C1268 C1269 1.363 . S
C1268 C1273 1.379 . S
C1268 N1275 1.356 1_556 S
C1269 C1268 1.363 . S
C1269 C1272 1.363 . S
N1270 C1272 1.356 . S
N1270 H1282 0.984 . S
N1270 H1283 0.985 1_556 S
N1271 C1273 1.356 . S
N1271 H1276 0.984 . S
N1271 H1277 0.985 . S
C1272 C1266 1.379 . S
C1272 C1269 1.363 . S
C1272 N1270 1.356 . S
C1273 C1267 1.363 . S
C1273 C1268 1.379 . S
C1273 N1271 1.356 . S
N1274 C1266 1.356 . S
N1274 H1280 0.984 . S
N1274 H1281 0.984 . S
N1275 C1268 1.356 1_554 S
N1275 H1278 0.984 . S
N1275 H1279 0.985 . S
H1276 N1271 0.984 . S
H1277 N1271 0.985 . S
H1278 N1275 0.984 . S
H1279 N1275 0.985 . S
H1280 N1274 0.984 . S
H1281 N1274 0.984 . S
H1282 N1270 0.984 . S
H1283 N1270 0.985 1_554 S
C1284 C1285 1.363 . S
C1284 C1290 1.379 . S
C1284 N1292 1.356 . S
C1285 C1284 1.363 . S
C1285 C1291 1.363 . S
C1286 C1287 1.363 . S
C1286 C1291 1.379 . S
C1286 N1293 1.356 . S
C1287 C1286 1.363 . S
C1287 C1290 1.363 . S
N1288 C1290 1.356 . S
N1288 H1300 0.984 . S
N1288 H1301 0.985 . S
N1289 C1291 1.356 . S
N1289 H1294 0.984 . S
N1289 H1295 0.985 . S
C1290 C1284 1.379 . S
C1290 C1287 1.363 . S
C1290 N1288 1.356 . S
C1291 C1285 1.363 . S
C1291 C1286 1.379 . S
C1291 N1289 1.356 . S
N1292 C1284 1.356 . S
N1292 H1298 0.984 . S
N1292 H1299 0.984 . S
N1293 C1286 1.356 . S
N1293 H1296 0.984 . S
N1293 H1297 0.985 . S
H1294 N1289 0.984 . S
H1295 N1289 0.985 . S
H1296 N1293 0.984 . S
H1297 N1293 0.985 . S
H1298 N1292 0.984 . S
H1299 N1292 0.984 . S
H1300 N1288 0.984 . S
H1301 N1288 0.985 . S
C1302 C1303 1.350 1_655 S
C1302 C1308 1.386 . S
C1302 N1310 1.359 . S
C1303 C1302 1.350 1_455 S
C1303 C1309 1.363 . S
C1304 C1305 1.363 1_455 S
C1304 C1309 1.379 . S
C1304 N1311 1.356 . S
C1305 C1304 1.363 1_655 S
C1305 C1308 1.363 . S
N1306 C1308 1.356 . S
N1306 H1318 0.984 . S
N1306 H1319 0.985 . S
N1307 C1309 1.356 . S
N1307 H1312 0.984 . S
N1307 H1313 0.985 . S
C1308 C1302 1.386 . S
C1308 C1305 1.363 . S
C1308 N1306 1.356 . S
C1309 C1303 1.363 . S
C1309 C1304 1.379 . S
C1309 N1307 1.356 . S
N1310 C1302 1.359 . S
N1310 H1316 0.984 . S
N1310 H1317 0.984 1_655 S
N1311 C1304 1.356 . S
N1311 H1314 0.984 . S
N1311 H1315 0.985 . S
H1312 N1307 0.984 . S
H1313 N1307 0.985 . S
H1314 N1311 0.984 . S
H1315 N1311 0.985 . S
H1316 N1310 0.984 . S
H1317 N1310 0.984 1_455 S
H1318 N1306 0.984 . S
H1319 N1306 0.985 . S
C1320 C1321 1.363 . S
C1320 C1326 1.379 . S
C1320 N1328 1.356 . S
C1321 C1320 1.363 . S
C1321 C1327 1.363 . S
C1322 C1323 1.363 . S
C1322 C1327 1.379 . S
C1322 N1329 1.356 . S
C1323 C1322 1.363 . S
C1323 C1326 1.363 . S
N1324 C1326 1.356 . S
N1324 H1336 0.984 . S
N1324 H1337 0.985 . S
N1325 C1327 1.356 . S
N1325 H1330 0.984 . S
N1325 H1331 0.985 . S
C1326 C1320 1.379 . S
C1326 C1323 1.363 . S
C1326 N1324 1.356 . S
C1327 C1321 1.363 . S
C1327 C1322 1.379 . S
C1327 N1325 1.356 . S
N1328 C1320 1.356 . S
N1328 H1334 0.984 . S
N1328 H1335 0.984 . S
N1329 C1322 1.356 . S
N1329 H1332 0.984 . S
N1329 H1333 0.985 . S
H1330 N1325 0.984 . S
H1331 N1325 0.985 . S
H1332 N1329 0.984 . S
H1333 N1329 0.985 . S
H1334 N1328 0.984 . S
H1335 N1328 0.984 . S
H1336 N1324 0.984 . S
H1337 N1324 0.985 . S
C1338 C1339 1.363 . S
C1338 C1344 1.379 . S
C1338 N1346 1.356 . S
C1339 C1338 1.363 . S
C1339 C1345 1.363 . S
C1340 C1341 1.363 . S
C1340 C1345 1.379 . S
C1340 N1347 1.356 . S
C1341 C1340 1.363 . S
C1341 C1344 1.363 . S
N1342 C1344 1.356 . S
N1342 H1354 0.984 . S
N1342 H1355 0.985 . S
N1343 C1345 1.356 . S
N1343 H1348 0.984 . S
N1343 H1349 0.985 . S
C1344 C1338 1.379 . S
C1344 C1341 1.363 . S
C1344 N1342 1.356 . S
C1345 C1339 1.363 . S
C1345 C1340 1.379 . S
C1345 N1343 1.356 . S
N1346 C1338 1.356 . S
N1346 H1352 0.984 . S
N1346 H1353 0.984 . S
N1347 C1340 1.356 . S
N1347 H1350 0.984 . S
N1347 H1351 0.985 . S
H1348 N1343 0.984 . S
H1349 N1343 0.985 . S
H1350 N1347 0.984 . S
H1351 N1347 0.985 . S
H1352 N1346 0.984 . S
H1353 N1346 0.984 . S
H1354 N1342 0.984 . S
H1355 N1342 0.985 . S
C1356 C1357 1.363 . S
C1356 C1362 1.379 . S
C1356 N1364 1.356 . S
C1357 C1356 1.363 . S
C1357 C1363 1.363 . S
C1358 C1359 1.363 . S
C1358 C1363 1.379 . S
C1358 N1365 1.356 . S
C1359 C1358 1.363 . S
C1359 C1362 1.363 . S
N1360 C1362 1.356 . S
N1360 H1372 0.984 . S
N1360 H1373 0.985 . S
N1361 C1363 1.356 . S
N1361 H1366 0.984 . S
N1361 H1367 0.985 . S
C1362 C1356 1.379 . S
C1362 C1359 1.363 . S
C1362 N1360 1.356 . S
C1363 C1357 1.363 . S
C1363 C1358 1.379 . S
C1363 N1361 1.356 . S
N1364 C1356 1.356 . S
N1364 H1370 0.984 . S
N1364 H1371 0.984 . S
N1365 C1358 1.356 . S
N1365 H1368 0.984 . S
N1365 H1369 0.985 . S
H1366 N1361 0.984 . S
H1367 N1361 0.985 . S
H1368 N1365 0.984 . S
H1369 N1365 0.985 . S
H1370 N1364 0.984 . S
H1371 N1364 0.984 . S
H1372 N1360 0.984 . S
H1373 N1360 0.985 . S
C1374 C1375 1.363 1_655 S
C1374 C1380 1.379 . S
C1374 N1382 1.356 1_554 S
C1375 C1374 1.363 1_455 S
C1375 C1381 1.363 . S
C1376 C1377 1.363 . S
C1376 C1381 1.379 1_655 S
C1376 N1383 1.356 1_655 S
C1377 C1376 1.363 . S
C1377 C1380 1.363 . S
N1378 C1380 1.356 . S
N1378 H1390 0.984 . S
N1378 H1391 0.985 . S
N1379 C1381 1.364 . S
N1379 H1384 0.972 1_554 S
N1379 H1385 0.989 . S
C1380 C1374 1.379 . S
C1380 C1377 1.363 . S
C1380 N1378 1.356 . S
C1381 C1375 1.363 . S
C1381 C1376 1.379 1_455 S
C1381 N1379 1.364 . S
N1382 C1374 1.356 1_556 S
N1382 H1388 0.984 . S
N1382 H1389 0.984 . S
N1383 C1376 1.356 1_455 S
N1383 H1386 0.984 1_455 S
N1383 H1387 0.985 . S
H1384 N1379 0.972 1_556 S
H1385 N1379 0.989 . S
H1386 N1383 0.984 1_655 S
H1387 N1383 0.985 . S
H1388 N1382 0.984 . S
H1389 N1382 0.984 . S
H1390 N1378 0.984 . S
H1391 N1378 0.985 . S
C1392 C1393 1.363 . S
C1392 C1398 1.379 . S
C1392 N1400 1.356 . S
C1393 C1392 1.363 . S
C1393 C1399 1.363 . S
C1394 C1395 1.363 . S
C1394 C1399 1.379 . S
C1394 N1401 1.356 . S
C1395 C1394 1.363 . S
C1395 C1398 1.363 . S
N1396 C1398 1.356 . S
N1396 H1408 0.984 . S
N1396 H1409 0.985 . S
N1397 C1399 1.356 . S
N1397 H1402 0.984 . S
N1397 H1403 0.985 . S
C1398 C1392 1.379 . S
C1398 C1395 1.363 . S
C1398 N1396 1.356 . S
C1399 C1393 1.363 . S
C1399 C1394 1.379 . S
C1399 N1397 1.356 . S
N1400 C1392 1.356 . S
N1400 H1406 0.984 . S
N1400 H1407 0.984 . S
N1401 C1394 1.356 . S
N1401 H1404 0.984 . S
N1401 H1405 0.985 . S
H1402 N1397 0.984 . S
H1403 N1397 0.985 . S
H1404 N1401 0.984 . S
H1405 N1401 0.985 . S
H1406 N1400 0.984 . S
H1407 N1400 0.984 . S
H1408 N1396 0.984 . S
H1409 N1396 0.985 . S
C1410 C1411 1.363 1_554 S
C1410 C1416 1.379 . S
C1410 N1418 1.356 . S
C1411 C1410 1.363 1_556 S
C1411 C1417 1.363 . S
C1412 C1413 1.363 1_556 S
C1412 C1417 1.379 . S
C1412 N1419 1.356 . S
C1413 C1412 1.363 1_554 S
C1413 C1416 1.363 . S
N1414 C1416 1.356 . S
N1414 H1426 0.984 . S
N1414 H1427 0.985 . S
N1415 C1417 1.356 . S
N1415 H1420 0.984 . S
N1415 H1421 0.985 . S
C1416 C1410 1.379 . S
C1416 C1413 1.363 . S
C1416 N1414 1.356 . S
C1417 C1411 1.363 . S
C1417 C1412 1.379 . S
C1417 N1415 1.356 . S
N1418 C1410 1.356 . S
N1418 H1424 0.984 . S
N1418 H1425 0.984 . S
N1419 C1412 1.356 . S
N1419 H1422 0.982 1_556 S
N1419 H1423 0.985 . S
H1420 N1415 0.984 . S
H1421 N1415 0.985 . S
H1422 N1419 0.982 1_554 S
H1423 N1419 0.985 . S
H1424 N1418 0.984 . S
H1425 N1418 0.984 . S
H1426 N1414 0.984 . S
H1427 N1414 0.985 . S
C1428 C1429 1.363 . S
C1428 C1434 1.379 . S
C1428 N1436 1.356 . S
C1429 C1428 1.363 . S
C1429 C1435 1.363 . S
C1430 C1431 1.363 . S
C1430 C1435 1.379 . S
C1430 N1437 1.356 . S
C1431 C1430 1.363 . S
C1431 C1434 1.363 . S
N1432 C1434 1.356 . S
N1432 H1444 0.984 . S
N1432 H1445 0.985 . S
N1433 C1435 1.356 . S
N1433 H1438 0.984 . S
N1433 H1439 0.985 . S
C1434 C1428 1.379 . S
C1434 C1431 1.363 . S
C1434 N1432 1.356 . S
C1435 C1429 1.363 . S
C1435 C1430 1.379 . S
C1435 N1433 1.356 . S
N1436 C1428 1.356 . S
N1436 H1442 0.984 . S
N1436 H1443 0.984 . S
N1437 C1430 1.356 . S
N1437 H1440 0.984 . S
N1437 H1441 0.985 . S
H1438 N1433 0.984 . S
H1439 N1433 0.985 . S
H1440 N1437 0.984 . S
H1441 N1437 0.985 . S
H1442 N1436 0.984 . S
H1443 N1436 0.984 . S
H1444 N1432 0.984 . S
H1445 N1432 0.985 . S
C1446 C1447 1.363 . S
C1446 C1452 1.379 . S
C1446 N1454 1.356 . S
C1447 C1446 1.363 . S
C1447 C1453 1.363 . S
C1448 C1449 1.363 . S
C1448 C1453 1.379 . S
C1448 N1455 1.356 . S
C1449 C1448 1.363 . S
C1449 C1452 1.363 . S
N1450 C1452 1.356 . S
N1450 H1462 0.984 . S
N1450 H1463 0.985 . S
N1451 C1453 1.356 . S
N1451 H1456 0.984 . S
N1451 H1457 0.985 . S
C1452 C1446 1.379 . S
C1452 C1449 1.363 . S
C1452 N1450 1.356 . S
C1453 C1447 1.363 . S
C1453 C1448 1.379 . S
C1453 N1451 1.356 . S
N1454 C1446 1.356 . S
N1454 H1460 0.984 . S
N1454 H1461 0.984 . S
N1455 C1448 1.356 . S
N1455 H1458 0.984 . S
N1455 H1459 0.985 . S
H1456 N1451 0.984 . S
H1457 N1451 0.985 . S
H1458 N1455 0.984 . S
H1459 N1455 0.985 . S
H1460 N1454 0.984 . S
H1461 N1454 0.984 . S
H1462 N1450 0.984 . S
H1463 N1450 0.985 . S
C1464 C1465 1.363 . S
C1464 C1470 1.379 . S
C1464 N1472 1.356 . S
C1465 C1464 1.363 . S
C1465 C1471 1.363 . S
C1466 C1467 1.363 . S
C1466 C1471 1.379 . S
C1466 N1473 1.356 . S
C1467 C1466 1.363 . S
C1467 C1470 1.363 . S
N1468 C1470 1.356 . S
N1468 H1480 0.984 . S
N1468 H1481 0.985 . S
N1469 C1471 1.356 . S
N1469 H1474 0.984 . S
N1469 H1475 0.985 . S
C1470 C1464 1.379 . S
C1470 C1467 1.363 . S
C1470 N1468 1.356 . S
C1471 C1465 1.363 . S
C1471 C1466 1.379 . S
C1471 N1469 1.356 . S
N1472 C1464 1.356 . S
N1472 H1478 0.984 . S
N1472 H1479 0.984 . S
N1473 C1466 1.356 . S
N1473 H1476 0.984 . S
N1473 H1477 0.985 . S
H1474 N1469 0.984 . S
H1475 N1469 0.985 . S
H1476 N1473 0.984 . S
H1477 N1473 0.985 . S
H1478 N1472 0.984 . S
H1479 N1472 0.984 . S
H1480 N1468 0.984 . S
H1481 N1468 0.985 . S
C1482 C1483 1.363 . S
C1482 C1488 1.379 . S
C1482 N1490 1.356 . S
C1483 C1482 1.363 . S
C1483 C1489 1.363 . S
C1484 C1485 1.363 . S
C1484 C1489 1.379 . S
C1484 N1491 1.356 1_565 S
C1485 C1484 1.363 . S
C1485 C1488 1.363 . S
N1486 C1488 1.356 . S
N1486 H1498 0.984 . S
N1486 H1499 0.985 1_565 S
N1487 C1489 1.356 . S
N1487 H1492 0.984 . S
N1487 H1493 0.985 . S
C1488 C1482 1.379 . S
C1488 C1485 1.363 . S
C1488 N1486 1.356 . S
C1489 C1483 1.363 . S
C1489 C1484 1.379 . S
C1489 N1487 1.356 . S
N1490 C1482 1.356 . S
N1490 H1496 0.984 . S
N1490 H1497 0.984 . S
N1491 C1484 1.356 1_545 S
N1491 H1494 0.984 . S
N1491 H1495 0.985 . S
H1492 N1487 0.984 . S
H1493 N1487 0.985 . S
H1494 N1491 0.984 . S
H1495 N1491 0.985 . S
H1496 N1490 0.984 . S
H1497 N1490 0.984 . S
H1498 N1486 0.984 . S
H1499 N1486 0.985 1_545 S
C1500 C1501 1.363 . S
C1500 C1506 1.379 . S
C1500 N1508 1.356 . S
C1501 C1500 1.363 . S
C1501 C1507 1.363 . S
C1502 C1503 1.363 . S
C1502 C1507 1.379 . S
C1502 N1509 1.356 . S
C1503 C1502 1.363 . S
C1503 C1506 1.363 . S
N1504 C1506 1.356 . S
N1504 H1516 0.984 . S
N1504 H1517 0.985 . S
N1505 C1507 1.356 . S
N1505 H1510 0.984 . S
N1505 H1511 0.985 . S
C1506 C1500 1.379 . S
C1506 C1503 1.363 . S
C1506 N1504 1.356 . S
C1507 C1501 1.363 . S
C1507 C1502 1.379 . S
C1507 N1505 1.356 . S
N1508 C1500 1.356 . S
N1508 H1514 0.984 . S
N1508 H1515 0.984 . S
N1509 C1502 1.356 . S
N1509 H1512 0.984 . S
N1509 H1513 0.985 . S
H1510 N1505 0.984 . S
H1511 N1505 0.985 . S
H1512 N1509 0.984 . S
H1513 N1509 0.985 . S
H1514 N1508 0.984 . S
H1515 N1508 0.984 . S
H1516 N1504 0.984 . S
H1517 N1504 0.985 . S
C1518 C1519 1.363 . S
C1518 C1524 1.379 . S
C1518 N1526 1.356 . S
C1519 C1518 1.363 . S
C1519 C1525 1.363 1_554 S
C1520 C1521 1.363 . S
C1520 C1525 1.379 . S
C1520 N1527 1.356 . S
C1521 C1520 1.363 . S
C1521 C1524 1.363 1_556 S
N1522 C1524 1.356 . S
N1522 H1534 0.984 . S
N1522 H1535 0.985 1_554 S
N1523 C1525 1.356 1_565 S
N1523 H1528 0.984 . S
N1523 H1529 0.985 . S
C1524 C1518 1.379 . S
C1524 C1521 1.363 1_554 S
C1524 N1522 1.356 . S
C1525 C1519 1.363 1_556 S
C1525 C1520 1.379 . S
C1525 N1523 1.356 1_545 S
N1526 C1518 1.356 . S
N1526 H1532 0.984 . S
N1526 H1533 0.984 1_545 S
N1527 C1520 1.356 . S
N1527 H1530 0.984 . S
N1527 H1531 0.985 . S
H1528 N1523 0.984 . S
H1529 N1523 0.985 . S
H1530 N1527 0.984 . S
H1531 N1527 0.985 . S
H1532 N1526 0.984 . S
H1533 N1526 0.984 1_565 S
H1534 N1522 0.984 . S
H1535 N1522 0.985 1_556 S
C1536 C1537 1.363 . S
C1536 C1542 1.379 . S
C1536 N1544 1.356 . S
C1537 C1536 1.363 . S
C1537 C1543 1.363 . S
C1538 C1539 1.363 . S
C1538 C1543 1.379 . S
C1538 N1545 1.356 . S
C1539 C1538 1.363 . S
C1539 C1542 1.363 . S
N1540 C1542 1.356 . S
N1540 H1552 0.984 . S
N1540 H1553 0.985 . S
N1541 C1543 1.356 . S
N1541 H1546 0.984 . S
N1541 H1547 0.985 . S
C1542 C1536 1.379 . S
C1542 C1539 1.363 . S
C1542 N1540 1.356 . S
C1543 C1537 1.363 . S
C1543 C1538 1.379 . S
C1543 N1541 1.356 . S
N1544 C1536 1.356 . S
N1544 H1550 0.984 . S
N1544 H1551 0.984 . S
N1545 C1538 1.356 . S
N1545 H1548 0.984 . S
N1545 H1549 0.985 . S
H1546 N1541 0.984 . S
H1547 N1541 0.985 . S
H1548 N1545 0.984 . S
H1549 N1545 0.985 . S
H1550 N1544 0.984 . S
H1551 N1544 0.984 . S
H1552 N1540 0.984 . S
H1553 N1540 0.985 . S
C1554 C1555 1.363 . S
C1554 C1560 1.379 . S
C1554 N1562 1.356 . S
C1555 C1554 1.363 . S
C1555 C1561 1.363 . S
C1556 C1557 1.363 . S
C1556 C1561 1.379 . S
C1556 N1563 1.356 . S
C1557 C1556 1.363 . S
C1557 C1560 1.363 . S
N1558 C1560 1.356 . S
N1558 H1570 0.984 . S
N1558 H1571 0.985 . S
N1559 C1561 1.356 . S
N1559 H1564 0.984 . S
N1559 H1565 0.985 . S
C1560 C1554 1.379 . S
C1560 C1557 1.363 . S
C1560 N1558 1.356 . S
C1561 C1555 1.363 . S
C1561 C1556 1.379 . S
C1561 N1559 1.356 . S
N1562 C1554 1.356 . S
N1562 H1568 0.984 . S
N1562 H1569 0.984 . S
N1563 C1556 1.356 . S
N1563 H1566 0.984 . S
N1563 H1567 0.985 . S
H1564 N1559 0.984 . S
H1565 N1559 0.985 . S
H1566 N1563 0.984 . S
H1567 N1563 0.985 . S
H1568 N1562 0.984 . S
H1569 N1562 0.984 . S
H1570 N1558 0.984 . S
H1571 N1558 0.985 . S
C1572 C1573 1.363 . S
C1572 C1578 1.379 . S
C1572 N1580 1.356 . S
C1573 C1572 1.363 . S
C1573 C1579 1.363 . S
C1574 C1575 1.363 . S
C1574 C1579 1.379 1_565 S
C1574 N1581 1.356 . S
C1575 C1574 1.363 . S
C1575 C1578 1.363 1_565 S
N1576 C1578 1.356 . S
N1576 H1588 0.984 . S
N1576 H1589 0.996 . S
N1577 C1579 1.356 . S
N1577 H1582 0.984 . S
N1577 H1583 0.985 1_545 S
C1578 C1572 1.379 . S
C1578 C1575 1.363 1_545 S
C1578 N1576 1.356 . S
C1579 C1573 1.363 . S
C1579 C1574 1.379 1_545 S
C1579 N1577 1.356 . S
N1580 C1572 1.356 . S
N1580 H1586 0.984 . S
N1580 H1587 0.984 . S
N1581 C1574 1.356 . S
N1581 H1584 0.984 . S
N1581 H1585 0.985 . S
H1582 N1577 0.984 . S
H1583 N1577 0.985 1_565 S
H1584 N1581 0.984 . S
H1585 N1581 0.985 . S
H1586 N1580 0.984 . S
H1587 N1580 0.984 . S
H1588 N1576 0.984 . S
H1589 N1576 0.996 . S
C1590 C1591 1.363 . S
C1590 C1596 1.379 . S
C1590 N1598 1.356 . S
C1591 C1590 1.363 . S
C1591 C1597 1.363 . S
C1592 C1593 1.363 . S
C1592 C1597 1.379 . S
C1592 N1599 1.356 . S
C1593 C1592 1.363 . S
C1593 C1596 1.363 . S
N1594 C1596 1.356 . S
N1594 H1606 0.984 . S
N1594 H1607 0.985 . S
N1595 C1597 1.356 . S
N1595 H1600 0.984 . S
N1595 H1601 0.985 . S
C1596 C1590 1.379 . S
C1596 C1593 1.363 . S
C1596 N1594 1.356 . S
C1597 C1591 1.363 . S
C1597 C1592 1.379 . S
C1597 N1595 1.356 . S
N1598 C1590 1.356 . S
N1598 H1604 0.984 . S
N1598 H1605 0.984 . S
N1599 C1592 1.356 . S
N1599 H1602 0.984 . S
N1599 H1603 0.985 . S
H1600 N1595 0.984 . S
H1601 N1595 0.985 . S
H1602 N1599 0.984 . S
H1603 N1599 0.985 . S
H1604 N1598 0.984 . S
H1605 N1598 0.984 . S
H1606 N1594 0.984 . S
H1607 N1594 0.985 . S
C1608 C1609 1.363 1_565 S
C1608 C1614 1.379 . S
C1608 N1616 1.356 1_455 S
C1609 C1608 1.363 1_545 S
C1609 C1615 1.363 . S
C1610 C1611 1.356 1_545 S
C1610 C1615 1.383 . S
C1610 N1617 1.357 . S
C1611 C1610 1.356 1_565 S
C1611 C1614 1.363 . S
N1612 C1614 1.356 . S
N1612 H1624 0.984 . S
N1612 H1625 0.985 . S
N1613 C1615 1.356 . S
N1613 H1618 0.984 1_455 S
N1613 H1619 0.985 . S
C1614 C1608 1.379 . S
C1614 C1611 1.363 . S
C1614 N1612 1.356 . S
C1615 C1609 1.363 . S
C1615 C1610 1.383 . S
C1615 N1613 1.356 . S
N1616 C1608 1.356 1_655 S
N1616 H1622 0.984 . S
N1616 H1623 0.984 . S
N1617 C1610 1.357 . S
N1617 H1620 0.984 1_545 S
N1617 H1621 0.985 . S
H1618 N1613 0.984 1_655 S
H1619 N1613 0.985 . S
H1620 N1617 0.984 1_565 S
H1621 N1617 0.985 . S
H1622 N1616 0.984 . S
H1623 N1616 0.984 . S
H1624 N1612 0.984 . S
H1625 N1612 0.985 . S
C1626 C1627 1.363 . S
C1626 C1632 1.379 . S
C1626 N1634 1.356 . S
C1627 C1626 1.363 . S
C1627 C1633 1.363 . S
C1628 C1629 1.363 . S
C1628 C1633 1.379 . S
C1628 N1635 1.356 . S
C1629 C1628 1.363 . S
C1629 C1632 1.363 . S
N1630 C1632 1.356 . S
N1630 H1642 0.984 . S
N1630 H1643 0.985 . S
N1631 C1633 1.356 . S
N1631 H1636 0.984 . S
N1631 H1637 0.985 . S
C1632 C1626 1.379 . S
C1632 C1629 1.363 . S
C1632 N1630 1.356 . S
C1633 C1627 1.363 . S
C1633 C1628 1.379 . S
C1633 N1631 1.356 . S
N1634 C1626 1.356 . S
N1634 H1640 0.984 . S
N1634 H1641 0.984 . S
N1635 C1628 1.356 . S
N1635 H1638 0.984 . S
N1635 H1639 0.985 . S
H1636 N1631 0.984 . S
H1637 N1631 0.985 . S
H1638 N1635 0.984 . S
H1639 N1635 0.985 . S
H1640 N1634 0.984 . S
H1641 N1634 0.984 . S
H1642 N1630 0.984 . S
H1643 N1630 0.985 . S
C1644 C1645 1.363 . S
C1644 C1650 1.379 . S
C1644 N1652 1.356 1_655 S
C1645 C1644 1.363 . S
C1645 C1651 1.363 . S
C1646 C1647 1.363 . S
C1646 C1651 1.379 . S
C1646 N1653 1.356 . S
C1647 C1646 1.363 . S
C1647 C1650 1.363 . S
N1648 C1650 1.356 . S
N1648 H1660 0.984 . S
N1648 H1661 0.985 . S
N1649 C1651 1.356 . S
N1649 H1654 0.984 1_655 S
N1649 H1655 0.985 . S
C1650 C1644 1.379 . S
C1650 C1647 1.363 . S
C1650 N1648 1.356 . S
C1651 C1645 1.363 . S
C1651 C1646 1.379 . S
C1651 N1649 1.356 . S
N1652 C1644 1.356 1_455 S
N1652 H1658 0.984 . S
N1652 H1659 0.984 . S
N1653 C1646 1.356 . S
N1653 H1656 0.984 . S
N1653 H1657 0.985 . S
H1654 N1649 0.984 1_455 S
H1655 N1649 0.985 . S
H1656 N1653 0.984 . S
H1657 N1653 0.985 . S
H1658 N1652 0.984 . S
H1659 N1652 0.984 . S
H1660 N1648 0.984 . S
H1661 N1648 0.985 . S
C1662 C1663 1.363 . S
C1662 C1668 1.379 . S
C1662 N1670 1.356 . S
C1663 C1662 1.363 . S
C1663 C1669 1.363 . S
C1664 C1665 1.363 . S
C1664 C1669 1.379 . S
C1664 N1671 1.356 . S
C1665 C1664 1.363 . S
C1665 C1668 1.363 . S
N1666 C1668 1.356 . S
N1666 H1678 0.984 . S
N1666 H1679 0.985 . S
N1667 C1669 1.356 . S
N1667 H1672 0.984 . S
N1667 H1673 0.985 . S
C1668 C1662 1.379 . S
C1668 C1665 1.363 . S
C1668 N1666 1.356 . S
C1669 C1663 1.363 . S
C1669 C1664 1.379 . S
C1669 N1667 1.356 . S
N1670 C1662 1.356 . S
N1670 H1676 0.984 . S
N1670 H1677 0.984 . S
N1671 C1664 1.356 . S
N1671 H1674 0.984 . S
N1671 H1675 0.985 . S
H1672 N1667 0.984 . S
H1673 N1667 0.985 . S
H1674 N1671 0.984 . S
H1675 N1671 0.985 . S
H1676 N1670 0.984 . S
H1677 N1670 0.984 . S
H1678 N1666 0.984 . S
H1679 N1666 0.985 . S
C1680 C1681 1.363 . S
C1680 C1686 1.379 1_655 S
C1680 N1688 1.356 . S
C1681 C1680 1.363 . S
C1681 C1687 1.363 . S
C1682 C1683 1.363 . S
C1682 C1687 1.379 1_455 S
C1682 N1689 1.356 . S
C1683 C1682 1.363 . S
C1683 C1686 1.363 . S
N1684 C1686 1.356 . S
N1684 H1696 0.984 . S
N1684 H1697 0.985 . S
N1685 C1687 1.356 . S
N1685 H1690 0.984 . S
N1685 H1691 0.985 . S
C1686 C1680 1.379 1_455 S
C1686 C1683 1.363 . S
C1686 N1684 1.356 . S
C1687 C1681 1.363 . S
C1687 C1682 1.379 1_655 S
C1687 N1685 1.356 . S
N1688 C1680 1.356 . S
N1688 H1694 0.984 . S
N1688 H1695 0.984 . S
N1689 C1682 1.356 . S
N1689 H1692 0.984 . S
N1689 H1693 0.985 . S
H1690 N1685 0.984 . S
H1691 N1685 0.985 . S
H1692 N1689 0.984 . S
H1693 N1689 0.985 . S
H1694 N1688 0.984 . S
H1695 N1688 0.984 . S
H1696 N1684 0.984 . S
H1697 N1684 0.985 . S
C1698 C1699 1.363 . S
C1698 C1704 1.379 . S
C1698 N1706 1.356 . S
C1699 C1698 1.363 . S
C1699 C1705 1.363 . S
C1700 C1701 1.363 . S
C1700 C1705 1.379 1_556 S
C1700 N1707 1.356 . S
C1701 C1700 1.363 . S
C1701 C1704 1.363 1_556 S
N1702 C1704 1.356 1_556 S
N1702 H1714 0.984 1_556 S
N1702 H1715 0.985 . S
N1703 C1705 1.356 . S
N1703 H1708 0.984 . S
N1703 H1709 0.985 1_554 S
C1704 C1698 1.379 . S
C1704 C1701 1.363 1_554 S
C1704 N1702 1.356 1_554 S
C1705 C1699 1.363 . S
C1705 C1700 1.379 1_554 S
C1705 N1703 1.356 . S
N1706 C1698 1.356 . S
N1706 H1712 0.984 . S
N1706 H1713 0.984 . S
N1707 C1700 1.356 . S
N1707 H1710 0.984 . S
N1707 H1711 0.985 . S
H1708 N1703 0.984 . S
H1709 N1703 0.985 1_556 S
H1710 N1707 0.984 . S
H1711 N1707 0.985 . S
H1712 N1706 0.984 . S
H1713 N1706 0.984 . S
H1714 N1702 0.984 1_554 S
H1715 N1702 0.985 . S
C1716 C1717 1.363 . S
C1716 C1722 1.379 . S
C1716 N1724 1.356 . S
C1717 C1716 1.363 . S
C1717 C1723 1.363 . S
C1718 C1719 1.363 . S
C1718 C1723 1.379 . S
C1718 N1725 1.356 . S
C1719 C1718 1.363 . S
C1719 C1722 1.363 . S
N1720 C1722 1.356 . S
N1720 H1732 0.984 . S
N1720 H1733 0.985 . S
N1721 C1723 1.356 . S
N1721 H1726 0.984 . S
N1721 H1727 0.985 . S
C1722 C1716 1.379 . S
C1722 C1719 1.363 . S
C1722 N1720 1.356 . S
C1723 C1717 1.363 . S
C1723 C1718 1.379 . S
C1723 N1721 1.356 . S
N1724 C1716 1.356 . S
N1724 H1730 0.984 . S
N1724 H1731 0.984 . S
N1725 C1718 1.356 . S
N1725 H1728 0.984 . S
N1725 H1729 0.985 . S
H1726 N1721 0.984 . S
H1727 N1721 0.985 . S
H1728 N1725 0.984 . S
H1729 N1725 0.985 . S
H1730 N1724 0.984 . S
H1731 N1724 0.984 . S
H1732 N1720 0.984 . S
H1733 N1720 0.985 . S
C1734 C1735 1.363 . S
C1734 C1740 1.379 . S
C1734 N1742 1.356 . S
C1735 C1734 1.363 . S
C1735 C1741 1.363 . S
C1736 C1737 1.363 . S
C1736 C1741 1.379 . S
C1736 N1743 1.356 . S
C1737 C1736 1.363 . S
C1737 C1740 1.363 . S
N1738 C1740 1.356 . S
N1738 H1750 0.984 . S
N1738 H1751 0.985 . S
N1739 C1741 1.356 . S
N1739 H1744 0.984 . S
N1739 H1745 0.985 . S
C1740 C1734 1.379 . S
C1740 C1737 1.363 . S
C1740 N1738 1.356 . S
C1741 C1735 1.363 . S
C1741 C1736 1.379 . S
C1741 N1739 1.356 . S
N1742 C1734 1.356 . S
N1742 H1748 0.984 . S
N1742 H1749 0.984 . S
N1743 C1736 1.356 . S
N1743 H1746 0.984 . S
N1743 H1747 0.985 . S
H1744 N1739 0.984 . S
H1745 N1739 0.985 . S
H1746 N1743 0.984 . S
H1747 N1743 0.985 . S
H1748 N1742 0.984 . S
H1749 N1742 0.984 . S
H1750 N1738 0.984 . S
H1751 N1738 0.985 . S
C1752 C1753 1.363 . S
C1752 C1758 1.379 . S
C1752 N1760 1.356 . S
C1753 C1752 1.363 . S
C1753 C1759 1.363 . S
C1754 C1755 1.363 . S
C1754 C1759 1.379 . S
C1754 N1761 1.356 . S
C1755 C1754 1.363 . S
C1755 C1758 1.363 . S
N1756 C1758 1.356 . S
N1756 H1768 0.984 . S
N1756 H1769 0.985 . S
N1757 C1759 1.356 . S
N1757 H1762 0.984 . S
N1757 H1763 0.985 . S
C1758 C1752 1.379 . S
C1758 C1755 1.363 . S
C1758 N1756 1.356 . S
C1759 C1753 1.363 . S
C1759 C1754 1.379 . S
C1759 N1757 1.356 . S
N1760 C1752 1.356 . S
N1760 H1766 0.984 . S
N1760 H1767 0.984 . S
N1761 C1754 1.356 . S
N1761 H1764 0.984 . S
N1761 H1765 0.985 . S
H1762 N1757 0.984 . S
H1763 N1757 0.985 . S
H1764 N1761 0.984 . S
H1765 N1761 0.985 . S
H1766 N1760 0.984 . S
H1767 N1760 0.984 . S
H1768 N1756 0.984 . S
H1769 N1756 0.985 . S
C1770 C1771 1.363 . S
C1770 C1776 1.379 . S
C1770 N1778 1.356 . S
C1771 C1770 1.363 . S
C1771 C1777 1.363 . S
C1772 C1773 1.363 . S
C1772 C1777 1.379 . S
C1772 N1779 1.356 . S
C1773 C1772 1.363 . S
C1773 C1776 1.363 . S
N1774 C1776 1.356 . S
N1774 H1786 0.984 . S
N1774 H1787 0.985 . S
N1775 C1777 1.356 . S
N1775 H1780 0.984 . S
N1775 H1781 0.985 . S
C1776 C1770 1.379 . S
C1776 C1773 1.363 . S
C1776 N1774 1.356 . S
C1777 C1771 1.363 . S
C1777 C1772 1.379 . S
C1777 N1775 1.356 . S
N1778 C1770 1.356 . S
N1778 H1784 0.984 . S
N1778 H1785 0.984 . S
N1779 C1772 1.356 . S
N1779 H1782 0.984 . S
N1779 H1783 0.985 . S
H1780 N1775 0.984 . S
H1781 N1775 0.985 . S
H1782 N1779 0.984 . S
H1783 N1779 0.985 . S
H1784 N1778 0.984 . S
H1785 N1778 0.984 . S
H1786 N1774 0.984 . S
H1787 N1774 0.985 . S
C1788 C1789 1.363 1_455 S
C1788 C1794 1.379 . S
C1788 N1796 1.356 1_455 S
C1789 C1788 1.363 1_655 S
C1789 C1795 1.363 . S
C1790 C1791 1.363 . S
C1790 C1795 1.379 1_455 S
C1790 N1797 1.356 . S
C1791 C1790 1.363 . S
C1791 C1794 1.363 . S
N1792 C1794 1.356 . S
N1792 H1804 0.984 . S
N1792 H1805 0.985 . S
N1793 C1795 1.356 . S
N1793 H1798 0.984 . S
N1793 H1799 0.985 . S
C1794 C1788 1.379 . S
C1794 C1791 1.363 . S
C1794 N1792 1.356 . S
C1795 C1789 1.363 . S
C1795 C1790 1.379 1_655 S
C1795 N1793 1.356 . S
N1796 C1788 1.356 1_655 S
N1796 H1802 0.984 1_655 S
N1796 H1803 0.984 . S
N1797 C1790 1.356 . S
N1797 H1800 0.984 . S
N1797 H1801 0.985 . S
H1798 N1793 0.984 . S
H1799 N1793 0.985 . S
H1800 N1797 0.984 . S
H1801 N1797 0.985 . S
H1802 N1796 0.984 1_455 S
H1803 N1796 0.984 . S
H1804 N1792 0.984 . S
H1805 N1792 0.985 . S
C1806 C1807 1.363 . S
C1806 C1812 1.379 1_554 S
C1806 N1814 1.356 . S
C1807 C1806 1.363 . S
C1807 C1813 1.363 . S
C1808 C1809 1.363 . S
C1808 C1813 1.379 1_556 S
C1808 N1815 1.356 . S
C1809 C1808 1.363 . S
C1809 C1812 1.363 . S
N1810 C1812 1.356 . S
N1810 H1822 0.984 . S
N1810 H1823 0.985 . S
N1811 C1813 1.356 . S
N1811 H1816 0.984 . S
N1811 H1817 0.985 . S
C1812 C1806 1.379 1_556 S
C1812 C1809 1.363 . S
C1812 N1810 1.356 . S
C1813 C1807 1.363 . S
C1813 C1808 1.379 1_554 S
C1813 N1811 1.356 . S
N1814 C1806 1.356 . S
N1814 H1820 0.984 . S
N1814 H1821 0.984 . S
N1815 C1808 1.356 . S
N1815 H1818 0.984 . S
N1815 H1819 0.985 . S
H1816 N1811 0.984 . S
H1817 N1811 0.985 . S
H1818 N1815 0.984 . S
H1819 N1815 0.985 . S
H1820 N1814 0.984 . S
H1821 N1814 0.984 . S
H1822 N1810 0.984 . S
H1823 N1810 0.985 . S
C1824 C1825 1.363 . S
C1824 C1830 1.379 1_565 S
C1824 N1832 1.356 . S
C1825 C1824 1.363 . S
C1825 C1831 1.363 . S
C1826 C1827 1.363 . S
C1826 C1831 1.379 1_545 S
C1826 N1833 1.356 . S
C1827 C1826 1.363 . S
C1827 C1830 1.363 . S
N1828 C1830 1.356 . S
N1828 H1840 0.984 . S
N1828 H1841 0.985 . S
N1829 C1831 1.356 . S
N1829 H1834 0.984 . S
N1829 H1835 0.985 . S
C1830 C1824 1.379 1_545 S
C1830 C1827 1.363 . S
C1830 N1828 1.356 . S
C1831 C1825 1.363 . S
C1831 C1826 1.379 1_565 S
C1831 N1829 1.356 . S
N1832 C1824 1.356 . S
N1832 H1838 0.984 . S
N1832 H1839 0.984 . S
N1833 C1826 1.356 . S
N1833 H1836 0.984 . S
N1833 H1837 0.985 . S
H1834 N1829 0.984 . S
H1835 N1829 0.985 . S
H1836 N1833 0.984 . S
H1837 N1833 0.985 . S
H1838 N1832 0.984 . S
H1839 N1832 0.984 . S
H1840 N1828 0.984 . S
H1841 N1828 0.985 . S
C1842 C1843 1.363 . S
C1842 C1848 1.379 . S
C1842 N1850 1.356 . S
C1843 C1842 1.363 . S
C1843 C1849 1.363 . S
C1844 C1845 1.363 . S
C1844 C1849 1.379 . S
C1844 N1851 1.356 . S
C1845 C1844 1.363 . S
C1845 C1848 1.363 . S
N1846 C1848 1.356 . S
N1846 H1858 0.984 . S
N1846 H1859 0.985 . S
N1847 C1849 1.356 . S
N1847 H1852 0.984 . S
N1847 H1853 0.985 . S
C1848 C1842 1.379 . S
C1848 C1845 1.363 . S
C1848 N1846 1.356 . S
C1849 C1843 1.363 . S
C1849 C1844 1.379 . S
C1849 N1847 1.356 . S
N1850 C1842 1.356 . S
N1850 H1856 0.984 . S
N1850 H1857 0.984 . S
N1851 C1844 1.356 . S
N1851 H1854 0.984 . S
N1851 H1855 0.985 . S
H1852 N1847 0.984 . S
H1853 N1847 0.985 . S
H1854 N1851 0.984 . S
H1855 N1851 0.985 . S
H1856 N1850 0.984 . S
H1857 N1850 0.984 . S
H1858 N1846 0.984 . S
H1859 N1846 0.985 . S
C1860 C1861 1.363 . S
C1860 C1866 1.379 1_545 S
C1860 N1868 1.356 . S
C1861 C1860 1.363 . S
C1861 C1867 1.363 . S
C1862 C1863 1.363 . S
C1862 C1867 1.379 1_565 S
C1862 N1869 1.356 . S
C1863 C1862 1.363 . S
C1863 C1866 1.363 . S
N1864 C1866 1.356 . S
N1864 H1876 0.984 . S
N1864 H1877 0.985 . S
N1865 C1867 1.356 . S
N1865 H1870 0.984 . S
N1865 H1871 0.985 . S
C1866 C1860 1.379 1_565 S
C1866 C1863 1.363 . S
C1866 N1864 1.356 . S
C1867 C1861 1.363 . S
C1867 C1862 1.379 1_545 S
C1867 N1865 1.356 . S
N1868 C1860 1.356 . S
N1868 H1874 0.984 . S
N1868 H1875 0.984 . S
N1869 C1862 1.356 . S
N1869 H1872 0.984 . S
N1869 H1873 0.985 . S
H1870 N1865 0.984 . S
H1871 N1865 0.985 . S
H1872 N1869 0.984 . S
H1873 N1869 0.985 . S
H1874 N1868 0.984 . S
H1875 N1868 0.984 . S
H1876 N1864 0.984 . S
H1877 N1864 0.985 . S
C1878 C1879 1.363 . S
C1878 C1884 1.379 . S
C1878 N1886 1.356 . S
C1879 C1878 1.363 . S
C1879 C1885 1.363 . S
C1880 C1881 1.363 . S
C1880 C1885 1.379 . S
C1880 N1887 1.356 . S
C1881 C1880 1.363 . S
C1881 C1884 1.363 . S
N1882 C1884 1.356 . S
N1882 H1894 0.984 . S
N1882 H1895 0.985 . S
N1883 C1885 1.356 . S
N1883 H1888 0.984 . S
N1883 H1889 0.985 . S
C1884 C1878 1.379 . S
C1884 C1881 1.363 . S
C1884 N1882 1.356 . S
C1885 C1879 1.363 . S
C1885 C1880 1.379 . S
C1885 N1883 1.356 . S
N1886 C1878 1.356 . S
N1886 H1892 0.984 . S
N1886 H1893 0.984 . S
N1887 C1880 1.356 . S
N1887 H1890 0.984 . S
N1887 H1891 0.985 . S
H1888 N1883 0.984 . S
H1889 N1883 0.985 . S
H1890 N1887 0.984 . S
H1891 N1887 0.985 . S
H1892 N1886 0.984 . S
H1893 N1886 0.984 . S
H1894 N1882 0.984 . S
H1895 N1882 0.985 . S
C817 C451 1.513 . S
C819 C20 1.670 . S
C835 C54 1.670 . S
C837 C485 1.513 . S
C853 C88 1.670 . S
C855 C519 1.515 . S
C871 C417 1.513 . S
C873 C122 1.670 . S
C889 C383 1.513 . S
C891 C156 1.670 . S
C907 C281 1.513 . S
C909 C190 1.670 . S
C925 C224 1.670 . S
C927 C315 1.518 . S
C943 C349 1.513 . S
C945 C258 1.670 . S
C961 C292 1.670 . S
C963 C43 1.513 . S
C979 C326 1.670 . S
C981 C77 1.513 . S
C997 C360 1.670 . S
C999 C111 1.518 . S
C1015 C9 1.513 . S
C1017 C394 1.670 . S
C1033 C247 1.515 . S
C1035 C428 1.670 . S
C1051 C462 1.670 . S
C1053 C145 1.513 . S
C1069 C496 1.670 . S
C1071 C179 1.513 . S
C1087 C213 1.513 . S
C1089 C530 1.670 . S
C1105 C757 1.513 . S
C1107 C564 1.670 . S
C1123 C598 1.670 . S
C1125 C621 1.518 . S
C1141 C632 1.670 . S
C1143 C655 1.513 . S
C1159 C689 1.515 . S
C1161 C666 1.670 . S
C1177 C700 1.670 . S
C1179 C587 1.513 . S
C1195 C791 1.513 . S
C1197 C734 1.670 . S
C1213 C768 1.670 . S
C1215 C723 1.513 . S
C1231 C553 1.513 . S
C1233 C802 1.670 . S
C1249 C549 1.448 . S
C1251 C33 1.458 . S
C1267 C787 1.448 . S
C1269 C67 1.458 1_556 S
C1285 C101 1.458 . S
C1287 C719 1.448 . S
C1303 C753 1.448 . S
C1305 C135 1.458 . S
C1321 C583 1.448 . S
C1323 C169 1.458 . S
C1339 C617 1.448 . S
C1341 C203 1.458 . S
C1357 C651 1.448 . S
C1359 C237 1.458 . S
C1375 C271 1.458 1_554 S
C1377 C685 1.448 . S
C1393 C305 1.458 . S
C1395 C5 1.448 . S
C1411 C339 1.458 . S
C1413 C39 1.448 . S
C1429 C373 1.458 . S
C1431 C73 1.448 . S
C1447 C407 1.458 . S
C1449 C107 1.448 . S
C1465 C441 1.458 . S
C1467 C141 1.448 . S
C1483 C175 1.448 . S
C1485 C475 1.458 1_565 S
C1501 C209 1.448 . S
C1503 C509 1.458 . S
C1519 C543 1.458 1_545 S
C1521 C243 1.448 . S
C1537 C277 1.448 . S
C1539 C577 1.458 . S
C1555 C413 1.448 . S
C1557 C611 1.458 . S
C1573 C447 1.448 . S
C1575 C645 1.458 . S
C1591 C481 1.448 . S
C1593 C679 1.458 . S
C1609 C713 1.458 1_455 S
C1611 C515 1.448 . S
C1627 C747 1.458 . S
C1629 C345 1.448 . S
C1645 C781 1.458 1_655 S
C1647 C379 1.448 . S
C1663 C311 1.448 . S
C1665 C815 1.458 . S
C1681 C682 1.247 . S
C1683 C2 1.247 . S
C1699 C36 1.247 . S
C1701 C580 1.247 . S
C1717 C614 1.247 . S
C1719 C70 1.247 . S
C1735 C104 1.247 . S
C1737 C648 1.247 . S
C1753 C784 1.247 . S
C1755 C138 1.247 . S
C1771 C716 1.247 . S
C1773 C172 1.247 . S
C1789 C206 1.247 . S
C1791 C750 1.247 . S
C1807 C546 1.247 . S
C1809 C240 1.247 . S
C1825 C512 1.247 . S
C1827 C274 1.247 . S
C1843 C410 1.247 . S
C1845 C308 1.247 . S
C1861 C444 1.247 . S
C1863 C342 1.247 . S
C1879 C478 1.247 . S
C1881 C376 1.247 . S
