# Generated by pormake.
# Topology ecf, (8)-cn, num edge types: 1
# Building blocks:
#     Node 0, Type 0, BuildingBlock: VETTIZ_charged_sbu_0, # of connection points: 8
#     Node 1, Type 0, BuildingBlock: VETTIZ_charged_sbu_0, # of connection points: 8
#     Node 2, Type 0, BuildingBlock: VETTIZ_charged_sbu_0, # of connection points: 8
#     Node 3, Type 0, BuildingBlock: VETTIZ_charged_sbu_0, # of connection points: 8
#     Node 4, Type 0, BuildingBlock: VETTIZ_charged_sbu_0, # of connection points: 8
#     Node 5, Type 0, BuildingBlock: VETTIZ_charged_sbu_0, # of connection points: 8
#     Edge 6, Type (0, 0), BuildingBlock: CIFDUS_clean_linker_0, # of connection points: 2
#     Edge 7, Type (0, 0), BuildingBlock: CIFDUS_clean_linker_0, # of connection points: 2
#     Edge 8, Type (0, 0), BuildingBlock: CIFDUS_clean_linker_0, # of connection points: 2
#     Edge 9, Type (0, 0), BuildingBlock: CIFDUS_clean_linker_0, # of connection points: 2
#     Edge 10, Type (0, 0), BuildingBlock: CIFDUS_clean_linker_0, # of connection points: 2
#     Edge 11, Type (0, 0), BuildingBlock: CIFDUS_clean_linker_0, # of connection points: 2
#     Edge 12, Type (0, 0), BuildingBlock: CIFDUS_clean_linker_0, # of connection points: 2
#     Edge 13, Type (0, 0), BuildingBlock: CIFDUS_clean_linker_0, # of connection points: 2
#     Edge 14, Type (0, 0), BuildingBlock: CIFDUS_clean_linker_0, # of connection points: 2
#     Edge 15, Type (0, 0), BuildingBlock: CIFDUS_clean_linker_0, # of connection points: 2
#     Edge 16, Type (0, 0), BuildingBlock: CIFDUS_clean_linker_0, # of connection points: 2
#     Edge 17, Type (0, 0), BuildingBlock: CIFDUS_clean_linker_0, # of connection points: 2
#     Edge 18, Type (0, 0), BuildingBlock: CIFDUS_clean_linker_0, # of connection points: 2
#     Edge 19, Type (0, 0), BuildingBlock: CIFDUS_clean_linker_0, # of connection points: 2
#     Edge 20, Type (0, 0), BuildingBlock: CIFDUS_clean_linker_0, # of connection points: 2
#     Edge 21, Type (0, 0), BuildingBlock: CIFDUS_clean_linker_0, # of connection points: 2
#     Edge 22, Type (0, 0), BuildingBlock: CIFDUS_clean_linker_0, # of connection points: 2
#     Edge 23, Type (0, 0), BuildingBlock: CIFDUS_clean_linker_0, # of connection points: 2
#     Edge 24, Type (0, 0), BuildingBlock: CIFDUS_clean_linker_0, # of connection points: 2
#     Edge 25, Type (0, 0), BuildingBlock: CIFDUS_clean_linker_0, # of connection points: 2
#     Edge 26, Type (0, 0), BuildingBlock: CIFDUS_clean_linker_0, # of connection points: 2
#     Edge 27, Type (0, 0), BuildingBlock: CIFDUS_clean_linker_0, # of connection points: 2
#     Edge 28, Type (0, 0), BuildingBlock: CIFDUS_clean_linker_0, # of connection points: 2
#     Edge 29, Type (0, 0), BuildingBlock: CIFDUS_clean_linker_0, # of connection points: 2
# Relax obj value: 0.148
# Max RMSD: 0.140
# Mean RMSD: 0.140
data_MOF--net-ecf--node1-VETTIZ_charged_sbu_0--edge1-CIFDUS_clean_linker_0
_symmetry_space_group_name_H-M    P1
_symmetry_Int_Tables_number       1
_symmetry_cell_setting            triclinic
loop_
_symmetry_equiv_pos_as_xyz
'x, y, z'
_cell_length_a     29.909666
_cell_length_b     29.940231
_cell_length_c     24.013032
_cell_angle_alpha  90.660678
_cell_angle_beta   90.401126
_cell_angle_gamma 119.20408
loop_
_atom_site_label
_atom_site_type_symbol
_atom_site_fract_x
_atom_site_fract_y
_atom_site_fract_z
_atom_type_partial_charge
Fe0 Fe 0.14628 0.24111 0.20073 0.0
O1 O 0.17017 0.29529 0.25754 0.0
Fe2 Fe 0.17887 0.36656 0.23561 0.0
Fe3 Fe 0.13608 0.28678 0.33079 0.0
O4 O 0.17219 0.2987 0.25334 0.0
O5 O 0.14507 0.35854 0.31002 0.0
O6 O 0.14438 0.35546 0.31514 0.0
Fe7 Fe 0.17312 0.4106 0.37134 0.0
C8 C 0.04623 0.21449 0.26078 0.0
O9 O 0.17054 0.20761 0.25916 0.0
O10 O 0.13313 0.21611 0.33897 0.0
O11 O 0.24412 0.45249 0.33632 0.0
O12 O 0.25073 0.40174 0.27227 0.0
O13 O 0.21567 0.36449 0.16014 0.0
O14 O 0.21579 0.28731 0.16527 0.0
O15 O 0.20628 0.31754 0.36848 0.0
O16 O 0.20289 0.37554 0.42345 0.0
C17 C 0.23146 0.33236 0.1445 0.0
O18 O 0.14906 0.44662 0.31611 0.0
O19 O 0.17953 0.43757 0.23033 0.0
O20 O 0.07388 0.20035 0.2337 0.0
O21 O 0.06531 0.25348 0.2932 0.0
C22 C 0.15655 0.19679 0.31045 0.0
C23 C 0.21893 0.34395 0.41306 0.0
C24 C 0.08611 0.31873 0.42619 0.0
O25 O 0.10026 0.28669 0.40685 0.0
O26 O 0.1041 0.3654 0.40949 0.0
C27 C 0.27077 0.44113 0.30408 0.0
O28 O 0.10853 0.3331 0.19244 0.0
O29 O 0.11799 0.27339 0.14581 0.0
C30 C 0.15983 0.45802 0.26402 0.0
C31 C 0.09905 0.30317 0.15018 0.0
Fe32 Fe 0.83551 0.11123 0.74837 0.0
O33 O 0.83896 0.12556 0.83037 0.0
Fe34 Fe 0.78386 0.19043 0.70381 0.0
Fe35 Fe 0.85432 0.0915 0.88891 0.0
O36 O 0.79302 0.14613 0.75708 0.0
O37 O 0.80985 0.16777 0.76491 0.0
O38 O 0.81692 0.11154 0.83599 0.0
Fe39 Fe 0.79218 0.16293 0.84579 0.0
C40 C 0.79027 0.00556 0.80262 0.0
O41 O 0.89062 0.08864 0.75008 0.0
O42 O 0.91834 0.11015 0.83973 0.0
O43 O 0.77999 0.22619 0.84417 0.0
O44 O 0.80704 0.25382 0.75619 0.0
O45 O 0.85609 0.21779 0.67085 0.0
O46 O 0.89416 0.18306 0.72339 0.0
O47 O 0.89028 0.16195 0.92705 0.0
O48 O 0.86631 0.21271 0.87984 0.0
C49 C 0.89474 0.21196 0.68367 0.0
O50 O 0.71422 0.1187 0.81729 0.0
O51 O 0.71256 0.15993 0.73832 0.0
O52 O 0.78249 0.03458 0.76855 0.0
O53 O 0.81757 0.02212 0.84743 0.0
C54 C 0.92557 0.10286 0.78826 0.0
C55 C 0.89364 0.2054 0.91692 0.0
C56 C 0.76437 0.09777 0.94978 0.0
O57 O 0.79034 0.07552 0.93555 0.0
O58 O 0.76771 0.13837 0.92684 0.0
C59 C 0.79642 0.26101 0.80632 0.0
O60 O 0.76047 0.12593 0.6542 0.0
O61 O 0.81298 0.09128 0.66564 0.0
C62 C 0.69027 0.12993 0.7791 0.0
C63 C 0.77553 0.09363 0.64115 0.0
Fe64 Fe 0.6936 0.86107 0.22873 0.0
O65 O 0.6818 0.87773 0.30551 0.0
Fe66 Fe 0.57829 0.75991 0.18624 0.0
Fe67 Fe 0.73796 0.91097 0.35978 0.0
O68 O 0.63329 0.79286 0.24139 0.0
O69 O 0.63124 0.78995 0.24566 0.0
O70 O 0.67895 0.8755 0.30934 0.0
Fe71 Fe 0.61966 0.80651 0.3238 0.0
C72 C 0.77893 0.85721 0.28619 0.0
O73 O 0.75653 0.9348 0.22391 0.0
O74 O 0.75934 0.97255 0.3085 0.0
O75 O 0.57024 0.83113 0.29615 0.0
O76 O 0.5267 0.7724 0.22972 0.0
O77 O 0.60049 0.82671 0.14041 0.0
O78 O 0.64904 0.88994 0.19902 0.0
O79 O 0.68454 0.91825 0.40443 0.0
O80 O 0.61702 0.83505 0.40517 0.0
C81 C 0.62351 0.87429 0.15394 0.0
O82 O 0.55796 0.73126 0.32597 0.0
O83 O 0.55304 0.69659 0.23758 0.0
O84 O 0.73844 0.83233 0.25743 0.0
O85 O 0.78802 0.89638 0.31548 0.0
C86 C 0.7728 0.97453 0.25697 0.0
C87 C 0.64322 0.88184 0.42552 0.0
C88 C 0.69797 0.79916 0.3955 0.0
O89 O 0.71963 0.84699 0.40676 0.0
O90 O 0.66639 0.7793 0.35482 0.0
C91 C 0.5294 0.80321 0.26824 0.0
O92 O 0.63406 0.75301 0.1411 0.0
O93 O 0.70004 0.83573 0.1499 0.0
C94 C 0.54012 0.69307 0.28994 0.0
C95 C 0.67851 0.79037 0.12706 0.0
Fe96 Fe 0.86843 0.69853 0.72569 0.0
O97 O 0.89142 0.69431 0.80237 0.0
Fe98 Fe 0.77202 0.57681 0.69483 0.0
Fe99 Fe 0.92433 0.7545 0.85115 0.0
O100 O 0.8045 0.63588 0.74579 0.0
O101 O 0.80278 0.633 0.7504 0.0
O102 O 0.89076 0.69058 0.80613 0.0
Fe103 Fe 0.82658 0.62771 0.82739 0.0
C104 C 0.98075 0.7792 0.74231 0.0
O105 O 0.83643 0.74269 0.75197 0.0
O106 O 0.90169 0.79855 0.80436 0.0
O107 O 0.75352 0.56268 0.83716 0.0
O108 O 0.71313 0.55287 0.75093 0.0
O109 O 0.75648 0.62672 0.64805 0.0
O110 O 0.83706 0.69661 0.64783 0.0
O111 O 0.8625 0.73482 0.90185 0.0
O112 O 0.7953 0.67065 0.85834 0.0
C113 C 0.78992 0.67165 0.63036 0.0
O114 O 0.85478 0.58066 0.79936 0.0
O115 O 0.79257 0.53027 0.73885 0.0
O116 O 0.93912 0.76276 0.7127 0.0
O117 O 0.9825 0.77434 0.79571 0.0
C118 C 0.86073 0.786 0.77648 0.0
C119 C 0.81436 0.70685 0.8944 0.0
C120 C 0.91128 0.66575 0.92285 0.0
O121 O 0.9412 0.70912 0.90003 0.0
O122 O 0.86409 0.63336 0.90633 0.0
C123 C 0.71312 0.54459 0.80416 0.0
O124 O 0.83617 0.59986 0.64453 0.0
O125 O 0.90082 0.65612 0.69718 0.0
C126 C 0.82853 0.53816 0.77317 0.0
C127 C 0.88418 0.62592 0.65532 0.0
Fe128 Fe 0.13921 0.86102 0.26901 0.0
O129 O 0.11436 0.81827 0.33692 0.0
Fe130 Fe 0.21619 0.81862 0.20663 0.0
Fe131 Fe 0.09385 0.84221 0.40335 0.0
O132 O 0.19489 0.84327 0.27124 0.0
O133 O 0.19639 0.84149 0.27449 0.0
O134 O 0.11523 0.81481 0.34007 0.0
Fe135 Fe 0.17549 0.8035 0.34626 0.0
C136 C 0.16612 0.94474 0.35058 0.0
O137 O 0.07713 0.87374 0.27432 0.0
O138 O 0.03342 0.82905 0.35156 0.0
O139 O 0.13602 0.73373 0.30437 0.0
O140 O 0.18819 0.74547 0.23322 0.0
O141 O 0.1475 0.79426 0.16068 0.0
O142 O 0.09319 0.79775 0.22131 0.0
O143 O 0.06862 0.76948 0.4299 0.0
O144 O 0.14235 0.76301 0.42148 0.0
C145 C 0.1019 0.78209 0.17544 0.0
O146 O 0.24337 0.79919 0.34213 0.0
O147 O 0.27885 0.8359 0.25728 0.0
O148 O 0.18391 0.92543 0.31582 0.0
O149 O 0.12608 0.91696 0.37823 0.0
C150 C 0.03643 0.85125 0.30449 0.0
C151 C 0.09652 0.74848 0.44135 0.0
C152 C 0.20465 0.88517 0.43511 0.0
O153 O 0.15861 0.86174 0.4515 0.0
O154 O 0.2173 0.87281 0.38934 0.0
C155 C 0.15293 0.71642 0.26582 0.0
O156 O 0.24057 0.89173 0.17859 0.0
O157 O 0.17298 0.90519 0.19842 0.0
C158 C 0.28123 0.82096 0.30742 0.0
C159 C 0.21633 0.9175 0.17448 0.0
Fe160 Fe 0.29041 0.14809 0.73271 0.0
O161 O 0.29413 0.12671 0.8098 0.0
Fe162 Fe 0.41612 0.22121 0.69617 0.0
Fe163 Fe 0.23808 0.10281 0.86125 0.0
O164 O 0.36013 0.20608 0.74968 0.0
O165 O 0.36418 0.2061 0.75389 0.0
O166 O 0.29777 0.12626 0.81308 0.0
Fe167 Fe 0.3679 0.18307 0.83153 0.0
C168 C 0.21143 0.16796 0.78357 0.0
O169 O 0.21996 0.08342 0.72189 0.0
O170 O 0.20584 0.04155 0.80549 0.0
O171 O 0.40046 0.13935 0.80554 0.0
O172 O 0.45239 0.18723 0.73839 0.0
O173 O 0.37555 0.15417 0.64602 0.0
O174 O 0.32223 0.10456 0.70876 0.0
O175 O 0.28013 0.07964 0.90812 0.0
O176 O 0.36126 0.1504 0.91119 0.0
C177 C 0.34348 0.10954 0.66245 0.0
O178 O 0.44132 0.24674 0.8385 0.0
O179 O 0.45739 0.28303 0.7506 0.0
O180 O 0.25348 0.18851 0.75693 0.0
O181 O 0.19938 0.13113 0.81658 0.0
C182 C 0.1985 0.04308 0.75219 0.0
C183 C 0.32516 0.10719 0.93043 0.0
C184 C 0.3047 0.21526 0.90131 0.0
O185 O 0.27083 0.16892 0.91007 0.0
O186 O 0.33825 0.22776 0.86334 0.0
C187 C 0.44005 0.1534 0.77571 0.0
O188 O 0.37558 0.24921 0.65082 0.0
O189 O 0.29549 0.17798 0.65298 0.0
C190 C 0.46678 0.28373 0.80394 0.0
C191 C 0.32854 0.22193 0.63287 0.0
H192 H 0.09722 0.4896 0.30911 0.0
H193 H 0.20498 0.52243 0.17625 0.0
H194 H 0.20522 0.60309 0.15945 0.0
H195 H 0.18542 0.66902 0.19238 0.0
H196 H 0.08432 0.63917 0.33162 0.0
H197 H 0.07065 0.55189 0.33581 0.0
C198 C 0.12048 0.51407 0.27599 0.0
C199 C 0.15206 0.50058 0.24478 0.0
C200 C 0.12202 0.56102 0.26825 0.0
C201 C 0.18066 0.53202 0.20109 0.0
C202 C 0.18108 0.5783 0.19183 0.0
C203 C 0.15978 0.64338 0.22332 0.0
C204 C 0.13668 0.66111 0.26244 0.0
C205 C 0.15358 0.59401 0.22674 0.0
C206 C 0.103 0.62686 0.30144 0.0
C207 C 0.09532 0.577 0.30395 0.0
H208 H 0.48042 0.10852 0.70813 0.0
H209 H 0.48624 0.16271 0.87625 0.0
H210 H 0.56088 0.15206 0.89699 0.0
H211 H 0.63241 0.13927 0.86239 0.0
H212 H 0.62307 0.08136 0.69517 0.0
H213 H 0.5416 0.07966 0.67972 0.0
C214 C 0.49726 0.11666 0.74969 0.0
C215 C 0.47789 0.1365 0.79052 0.0
C216 C 0.53976 0.10962 0.76158 0.0
C217 C 0.50017 0.147 0.8442 0.0
C218 C 0.54311 0.14117 0.85599 0.0
C219 C 0.61128 0.12394 0.82361 0.0
C220 C 0.63388 0.1101 0.78012 0.0
C221 C 0.56429 0.12387 0.81453 0.0
C222 C 0.60641 0.09168 0.72954 0.0
C223 C 0.56004 0.0914 0.72034 0.0
H224 H 0.33061 0.51821 0.37664 0.0
H225 H 0.33569 0.44771 0.2207 0.0
H226 H 0.42285 0.51673 0.20592 0.0
H227 H 0.49324 0.60202 0.23182 0.0
H228 H 0.48707 0.67276 0.38737 0.0
H229 H 0.40524 0.59833 0.40788 0.0
C230 C 0.35096 0.51755 0.3397 0.0
C231 C 0.32622 0.47819 0.29945 0.0
C232 C 0.40091 0.55759 0.33117 0.0
C233 C 0.35358 0.47758 0.2523 0.0
C234 C 0.40342 0.51721 0.24367 0.0
C235 C 0.47455 0.60095 0.27071 0.0
C236 C 0.49631 0.64361 0.30748 0.0
C237 C 0.42686 0.5582 0.28202 0.0
C238 C 0.47149 0.64088 0.35797 0.0
C239 C 0.42435 0.59833 0.36969 0.0
H240 H 0.86971 0.35152 0.7675 0.0
H241 H 0.7355 0.28603 0.86999 0.0
H242 H 0.73622 0.36844 0.87259 0.0
H243 H 0.7697 0.45637 0.83634 0.0
H244 H 0.90415 0.52114 0.73456 0.0
H245 H 0.90903 0.44187 0.74104 0.0
C246 C 0.84112 0.35551 0.79129 0.0
C247 C 0.80233 0.31253 0.81823 0.0
C248 C 0.84171 0.4028 0.79221 0.0
C249 C 0.76588 0.31847 0.84924 0.0
C250 C 0.76607 0.3655 0.85025 0.0
C251 C 0.80062 0.45329 0.81668 0.0
C252 C 0.83674 0.49438 0.78519 0.0
C253 C 0.80297 0.40749 0.8206 0.0
C254 C 0.87641 0.49014 0.75942 0.0
C255 C 0.87894 0.44475 0.7629 0.0
H256 H 0.3021 0.74444 0.31406 0.0
H257 H 0.36977 0.90807 0.32947 0.0
H258 H 0.45585 0.91743 0.32612 0.0
H259 H 0.51055 0.87926 0.30311 0.0
H260 H 0.44014 0.7159 0.27689 0.0
H261 H 0.35669 0.70583 0.3002 0.0
C262 C 0.33591 0.78182 0.31881 0.0
C263 C 0.33042 0.82544 0.32278 0.0
C264 C 0.38468 0.78691 0.31333 0.0
C265 C 0.37385 0.87407 0.32723 0.0
C266 C 0.42282 0.87939 0.32462 0.0
C267 C 0.47689 0.84161 0.30326 0.0
C268 C 0.48088 0.79861 0.2871 0.0
C269 C 0.42861 0.83621 0.31509 0.0
C270 C 0.43741 0.74973 0.28775 0.0
C271 C 0.3898 0.74384 0.30145 0.0
H272 H 0.48607 0.38076 0.795 0.0
H273 H 0.54798 0.28886 0.86092 0.0
H274 H 0.63052 0.366 0.87941 0.0
H275 H 0.68837 0.45753 0.86005 0.0
H276 H 0.62528 0.54778 0.79202 0.0
H277 H 0.53933 0.47402 0.79339 0.0
C278 C 0.51738 0.37799 0.81472 0.0
C279 C 0.51177 0.32975 0.82593 0.0
C280 C 0.56433 0.42225 0.82502 0.0
C281 C 0.55194 0.326 0.85195 0.0
C282 C 0.59905 0.36999 0.86228 0.0
C283 C 0.65544 0.46137 0.84792 0.0
C284 C 0.6628 0.50756 0.82555 0.0
C285 C 0.60628 0.41816 0.84685 0.0
C286 C 0.62015 0.51231 0.80927 0.0
C287 C 0.57116 0.47006 0.80943 0.0
H288 H 0.21971 0.16199 0.27456 0.0
H289 H 0.11385 0.14339 0.40539 0.0
H290 H 0.11674 0.06774 0.43744 0.0
H291 H 0.1368 -0.00076 0.41719 0.0
H292 H 0.23786 0.01528 0.2819 0.0
H293 H 0.2503 0.10041 0.26361 0.0
C294 C 0.19757 0.14172 0.31044 0.0
C295 C 0.16515 0.15713 0.33629 0.0
C296 C 0.19841 0.09774 0.32768 0.0
C297 C 0.13825 0.13163 0.38397 0.0
C298 C 0.13983 0.08835 0.40228 0.0
C299 C 0.16239 0.02173 0.38441 0.0
C300 C 0.18503 0.00032 0.34982 0.0
C301 C 0.16786 0.06979 0.37275 0.0
C302 C 0.21921 0.03048 0.30855 0.0
C303 C 0.22611 0.07906 0.2978 0.0
H304 H 0.01485 0.1784 0.83144 0.0
H305 H 0.95452 0.05706 0.70747 0.0
H306 H 0.04174 0.07532 0.68541 0.0
H307 H 0.13388 0.11843 0.71057 0.0
H308 H 0.19322 0.23791 0.8361 0.0
H309 H 0.1081 0.22944 0.84693 0.0
C310 C 0.02082 0.15608 0.79941 0.0
C311 C 0.97823 0.11553 0.77207 0.0
C312 C 0.07102 0.16726 0.78656 0.0
C313 C 0.98661 0.08796 0.72957 0.0
C314 C 0.03647 0.09853 0.71686 0.0
C315 C 0.1285 0.1443 0.7382 0.0
C316 C 0.16995 0.17966 0.77156 0.0
C317 C 0.07888 0.13735 0.74596 0.0
C318 C 0.1623 0.21164 0.80881 0.0
C319 C 0.11335 0.20594 0.81583 0.0
H320 H 0.9898 0.14047 0.18404 0.0
H321 H 0.97638 0.21399 0.33391 0.0
H322 H 0.88602 0.15028 0.33966 0.0
H323 H 0.81533 0.06705 0.31048 0.0
H324 H 0.82968 0.99151 0.16272 0.0
H325 H 0.9146 0.06361 0.14697 0.0
C326 C 0.96696 0.14289 0.21762 0.0
C327 C 0.99009 0.18109 0.25925 0.0
C328 C 0.91518 0.10578 0.22113 0.0
C329 C 0.95971 0.18457 0.30168 0.0
C330 C 0.90801 0.14809 0.30509 0.0
C331 C 0.83652 0.06666 0.27417 0.0
C332 C 0.81664 0.0232 0.2388 0.0
C333 C 0.88596 0.10747 0.26626 0.0
C334 C 0.8442 0.02407 0.19119 0.0
C335 C 0.89304 0.06515 0.18233 0.0
H336 H 0.84483 0.98462 0.72926 0.0
H337 H 0.71964 0.9128 0.84281 0.0
H338 H 0.72714 0.83472 0.84041 0.0
H339 H 0.77835 0.79191 0.81705 0.0
H340 H 0.91038 0.86967 0.71305 0.0
H341 H 0.8919 0.94019 0.70089 0.0
C342 C 0.81769 0.95101 0.75143 0.0
C343 C 0.78048 0.95395 0.7846 0.0
C344 C 0.82476 0.90773 0.75289 0.0
C345 C 0.74728 0.9109 0.81535 0.0
C346 C 0.75232 0.8666 0.81482 0.0
C347 C 0.80238 0.82396 0.79097 0.0
C348 C 0.84564 0.82566 0.76578 0.0
C349 C 0.79226 0.86529 0.78551 0.0
C350 C 0.87698 0.86765 0.7328 0.0
C351 C 0.86633 0.9079 0.72578 0.0
H352 H 0.87236 0.91533 0.24696 0.0
H353 H 0.77312 0.76817 0.31726 0.0
H354 H 0.84493 0.75056 0.32448 0.0
H355 H 0.9375 0.78209 0.3203 0.0
H356 H 0.03612 0.92916 0.24848 0.0
H357 H 0.96256 0.94168 0.23096 0.0
C358 C 0.86669 0.87915 0.26289 0.0
C359 C 0.81869 0.84315 0.28218 0.0
C360 C 0.90771 0.86957 0.2667 0.0
C361 C 0.81043 0.79608 0.30231 0.0
C362 C 0.85128 0.78625 0.30663 0.0
C363 C 0.94258 0.81654 0.30028 0.0
C364 C 0.99175 0.8551 0.28661 0.0
C365 C 0.90035 0.82344 0.29048 0.0
C366 C -0.00168 0.89915 0.25953 0.0
C367 C 0.95648 0.90644 0.24977 0.0
H368 H 0.19545 0.95266 0.75806 0.0
H369 H 0.12115 0.02951 0.68252 0.0
H370 H 0.04873 0.94723 0.65328 0.0
H371 H -0.00129 0.85597 0.67376 0.0
H372 H 0.07119 0.78062 0.75666 0.0
H373 H 0.1536 0.85915 0.75532 0.0
C374 C 0.16378 0.95104 0.73405 0.0
C375 C 0.16173 -0.00413 0.72427 0.0
C376 C 0.12242 0.90394 0.71832 0.0
C377 C 0.12216 -0.00537 0.69148 0.0
C378 C 0.08101 0.94779 0.67475 0.0
C379 C 0.03316 0.85626 0.68883 0.0
C380 C 0.02938 0.81396 0.71703 0.0
C381 C 0.07934 0.90228 0.6913 0.0
C382 C 0.07376 0.81376 0.73595 0.0
C383 C 0.12056 0.85867 0.73582 0.0
H384 H 0.311 0.31533 0.13092 0.0
H385 H 0.21813 0.36547 0.04279 0.0
H386 H 0.23774 0.33768 0.95413 0.0
H387 H 0.26635 0.2818 0.90556 0.0
H388 H 0.3575 0.23097 0.99649 0.0
H389 H 0.35422 0.27659 0.07995 0.0
C390 C 0.29693 0.32229 0.092 0.0
C391 C 0.26199 0.34102 0.09345 0.0
C392 C 0.30721 0.30483 0.04175 0.0
C393 C 0.24437 0.35029 0.04285 0.0
C394 C 0.25513 0.33378 0.99219 0.0
C395 C 0.28673 0.28226 0.94325 0.0
C396 C 0.3121 0.25315 0.94525 0.0
C397 C 0.28399 0.30815 0.9916 0.0
C398 C 0.33804 0.25341 0.99422 0.0
C399 C 0.33598 0.2793 0.04195 0.0
H400 H 0.91304 0.2786 0.59921 0.0
H401 H 0.97598 0.19292 0.67977 0.0
H402 H 0.03938 0.2162 0.60633 0.0
H403 H 0.07463 0.2578 0.51578 0.0
H404 H 0.01161 0.34441 0.4379 0.0
H405 H 0.95025 0.32299 0.51285 0.0
C406 C 0.94098 0.26546 0.60136 0.0
C407 C 0.93933 0.23391 0.64533 0.0
C408 C 0.97691 0.27835 0.55856 0.0
C409 C 0.97623 0.21754 0.64693 0.0
C410 C 0.0123 0.2304 0.60447 0.0
C411 C 0.04712 0.27153 0.51513 0.0
C412 C 0.04737 0.30223 0.4709 0.0
C413 C 0.01241 0.25999 0.55939 0.0
C414 C 0.01218 0.32062 0.47126 0.0
C415 C 0.97714 0.30854 0.51425 0.0
H416 H 0.67597 0.97858 0.16651 0.0
H417 H 0.589 0.85846 0.04552 0.0
H418 H 0.6174 0.92141 0.97166 0.0
H419 H 0.67899 0.00737 0.93956 0.0
H420 H 0.77013 0.1263 0.059 0.0
H421 H 0.72742 0.06743 0.13551 0.0
C422 C 0.66216 0.96613 0.12421 0.0
C423 C 0.6309 0.9134 0.1117 0.0
C424 C 0.67966 0.0025 0.08158 0.0
C425 C 0.61328 0.89846 0.05657 0.0
C426 C 0.62971 0.93451 1.01415 0.0
C427 C 0.68771 0.02091 0.98249 0.0
C428 C 0.7269 0.07124 0.99385 0.0
C429 C 0.6645 0.98622 1.02587 0.0
C430 C 0.73916 0.08816 0.0494 0.0
C431 C 0.7153 0.05417 0.09303 0.0
H432 H 0.71956 0.63426 0.54246 0.0
H433 H 0.82555 0.77317 0.63059 0.0
H434 H 0.80688 0.82376 0.56614 0.0
H435 H 0.7627 0.83003 0.4845 0.0
H436 H 0.65668 0.69382 0.39274 0.0
H437 H 0.67345 0.64115 0.45821 0.0
C438 C 0.73818 0.67552 0.54754 0.0
C439 C 0.77427 0.69976 0.59115 0.0
C440 C 0.72771 0.70511 0.50938 0.0
C441 C 0.79821 0.75339 0.59706 0.0
C442 C 0.78753 0.78255 0.56021 0.0
C443 C 0.74311 0.78881 0.47841 0.0
C444 C 0.70848 0.76615 0.43346 0.0
C445 C 0.75281 0.75897 0.51602 0.0
C446 C 0.68368 0.71253 0.42678 0.0
C447 C 0.69316 0.68232 0.46438 0.0
H448 H 0.89945 0.69061 1.0276 0.0
H449 H 0.98112 0.63309 0.93035 0.0
H450 H 0.04889 0.66311 1.00179 0.0
H451 H 0.09179 0.71878 0.08505 0.0
H452 H 0.00884 0.77723 0.18015 0.0
H453 H 0.93588 0.73458 0.11699 0.0
C454 C 0.93062 0.68205 1.02359 0.0
C455 C 0.93433 0.6583 0.97426 0.0
C456 C 0.97073 0.70176 0.06371 0.0
C457 C 0.97633 0.64966 0.96867 0.0
C458 C 0.01585 0.66807 1.00901 0.0
C459 C 0.05761 0.72181 0.09218 0.0
C460 C 0.05671 0.75212 0.13724 0.0
C461 C 0.01473 0.69645 0.0555 0.0
C462 C 0.01139 0.75469 0.14596 0.0
C463 C 0.96922 0.73009 0.10976 0.0
H464 H 0.35499 0.10028 0.54846 0.0
H465 H 0.28548 0.01174 0.69511 0.0
H466 H 0.23892 0.93508 0.63843 0.0
H467 H 0.21149 0.89329 0.5472 0.0
H468 H 0.28166 0.97729 0.39911 0.0
H469 H 0.33444 0.05464 0.45587 0.0
C470 C 0.33056 0.06404 0.56802 0.0
C471 C 0.32359 0.06252 0.62624 0.0
C472 C 0.30352 0.01892 0.5348 0.0
C473 C 0.2915 0.01481 0.65056 0.0
C474 C 0.26457 0.97054 0.61813 0.0
C475 C 0.23897 0.92833 0.5274 0.0
C476 C 0.24257 0.92956 0.46911 0.0
C477 C 0.26931 0.97228 0.56023 0.0
C478 C 0.2785 0.9752 0.44403 0.0
C479 C 0.30842 0.01956 0.47651 0.0
H480 H 0.8399 0.78909 0.96137 0.0
H481 H 0.71103 0.64453 0.91035 0.0
H482 H 0.65667 0.6575 0.97711 0.0
H483 H 0.64705 0.7089 0.05328 0.0
H484 H 0.7783 0.85317 0.10211 0.0
H485 H 0.82998 0.84086 1.03318 0.0
C486 C 0.79989 0.76031 0.96461 0.0
C487 C 0.7798 0.71572 0.93123 0.0
C488 C 0.76912 0.76781 1.00304 0.0
C489 C 0.72761 0.67927 0.9356 0.0
C490 C 0.69652 0.68656 0.97395 0.0
C491 C 0.68689 0.73763 0.04872 0.0
C492 C 0.7084 0.78184 0.08316 0.0
C493 C 0.71705 0.73048 1.00848 0.0
C494 C 0.76021 0.81879 0.0763 0.0
C495 C 0.79013 0.81186 0.03682 0.0
H496 H 0.00909 0.65878 0.43735 0.0
H497 H 0.13283 0.75888 0.54732 0.0
H498 H 0.07729 0.72325 0.62782 0.0
H499 H 0.98911 0.67776 0.66343 0.0
H500 H 0.86443 0.58099 0.55149 0.0
H501 H 0.92462 0.60059 0.47565 0.0
C502 C 0.02459 0.67065 0.47925 0.0
C503 C 0.07511 0.71103 0.48645 0.0
C504 C 0.9916 0.65177 0.5249 0.0
C505 C 0.09451 0.72706 0.54077 0.0
C506 C 0.06229 0.70745 0.58672 0.0
C507 C 0.97511 0.65993 0.62279 0.0
C508 C 0.92187 0.62874 0.61314 0.0
C509 C 0.01 0.672 0.57885 0.0
C510 C 0.90487 0.6056 0.56025 0.0
C511 C 0.93936 0.61687 0.51666 0.0
H512 H 0.27551 0.10707 1.0215 0.0
H513 H 0.38162 0.06128 0.95832 0.0
H514 H 0.35983 -1e-05 1.03409 0.0
H515 H 0.29932 0.94948 0.10695 0.0
H516 H 0.18744 0.99094 0.16393 0.0
H517 H 0.22225 0.06353 0.10146 0.0
C518 C 0.29544 0.08516 1.02597 0.0
C519 C 0.33058 0.08894 0.98518 0.0
C520 C 0.28011 0.0479 0.06714 0.0
C521 C 0.35539 0.05974 0.9901 0.0
C522 C 0.34204 0.02399 1.0327 0.0
C523 C 0.28273 0.97459 0.10625 0.0
C524 C 0.23988 0.96383 0.13939 0.0
C525 C 0.30253 0.01598 0.0696 0.0
C526 C 0.21956 -0.0026 0.13815 0.0
C527 C 0.2397 0.03921 0.10267 0.0
H528 H 0.33853 0.31679 0.61815 0.0
H529 H 0.27765 0.16722 0.54119 0.0
H530 H 0.24174 0.19328 0.46457 0.0
H531 H 0.22368 0.25642 0.42216 0.0
H532 H 0.27688 0.40398 0.50179 0.0
H533 H 0.31972 0.38106 0.57468 0.0
C534 C 0.31798 0.29034 0.58411 0.0
C535 C 0.31107 0.24032 0.5849 0.0
C536 C 0.29576 0.3051 0.54103 0.0
C537 C 0.2835 0.20592 0.54129 0.0
C538 C 0.26292 0.22077 0.49757 0.0
C539 C 0.24512 0.28397 0.45504 0.0
C540 C 0.24737 0.33211 0.45619 0.0
C541 C 0.26824 0.26998 0.49739 0.0
C542 C 0.27457 0.36675 0.49984 0.0
C543 C 0.29906 0.35362 0.5415 0.0
H544 H 0.0049 0.30011 0.14082 0.0
H545 H 0.13047 0.3092 0.04537 0.0
H546 H 0.0808 0.29158 0.95983 0.0
H547 H -0.00344 0.25588 0.91482 0.0
H548 H 0.86834 0.24217 1.00786 0.0
H549 H 0.92343 0.27986 0.09049 0.0
C550 C 0.02182 0.30011 0.10104 0.0
C551 C 0.07155 0.30609 0.09966 0.0
C552 C 0.99206 0.28834 0.05123 0.0
C553 C 0.09256 0.3051 0.04769 0.0
C554 C 0.06396 0.29457 0.99855 0.0
C555 C 0.98139 0.26376 0.95234 0.0
C556 C 0.92879 0.24723 0.95493 0.0
C557 C 0.01297 0.2838 1.00007 0.0
C558 C 0.90909 0.25593 1.00441 0.0
C559 C 0.94048 0.27661 0.05205 0.0
H560 H 0.7502 0.99227 0.63514 0.0
H561 H 0.72482 0.10647 0.55488 0.0
H562 H 0.6617 0.04166 0.49231 0.0
H563 H 0.62159 0.95555 0.45295 0.0
H564 H 0.65412 0.84293 0.52315 0.0
H565 H 0.70246 0.90208 0.59975 0.0
C566 C 0.73139 0.00293 0.60334 0.0
C567 C 0.7432 0.05444 0.59888 0.0
C568 C 0.69463 0.96515 0.56715 0.0
C569 C 0.71717 0.06734 0.55865 0.0
C570 C 0.68048 0.03017 0.52328 0.0
C571 C 0.63686 0.94306 0.48686 0.0
C572 C 0.63495 0.89537 0.48199 0.0
C573 C 0.6693 0.97916 0.52673 0.0
C574 C 0.65478 0.8794 0.52601 0.0
C575 C 0.68416 0.91402 0.5687 0.0
loop_
_geom_bond_atom_site_label_1
_geom_bond_atom_site_label_2
_geom_bond_distance
_geom_bond_site_symmetry_2
_ccdc_geom_bond_type
Fe0 O1 1.886 . S
Fe0 O4 1.715 . S
Fe0 O9 2.077 . S
Fe0 O14 1.935 . S
Fe0 O20 2.077 . S
Fe0 O29 1.935 . S
O1 Fe0 1.886 . S
O1 Fe3 1.715 . S
Fe2 O4 1.886 . S
Fe2 O5 1.715 . S
Fe2 O12 1.935 . S
Fe2 O13 2.077 . S
Fe2 O19 1.935 . S
Fe2 O28 2.077 . S
Fe3 O1 1.715 . S
Fe3 O6 1.886 . S
Fe3 O10 1.935 . S
Fe3 O15 2.077 . S
Fe3 O21 1.935 . S
Fe3 O25 2.077 . S
O4 Fe0 1.715 . S
O4 Fe2 1.886 . S
O5 Fe2 1.715 . S
O5 Fe7 1.886 . S
O6 Fe3 1.886 . S
O6 Fe7 1.715 . S
Fe7 O5 1.886 . S
Fe7 O6 1.715 . S
Fe7 O11 2.077 . S
Fe7 O16 1.935 . S
Fe7 O18 2.077 . S
Fe7 O26 1.935 . S
C8 O20 1.381 . S
C8 O21 1.421 . S
O9 Fe0 2.077 . S
O9 C22 1.381 . S
O10 Fe3 1.935 . S
O10 C22 1.421 . S
O11 Fe7 2.077 . S
O11 C27 1.381 . S
O12 Fe2 1.935 . S
O12 C27 1.421 . S
O13 Fe2 2.077 . S
O13 C17 1.381 . S
O14 Fe0 1.935 . S
O14 C17 1.421 . S
O15 Fe3 2.077 . S
O15 C23 1.381 . S
O16 Fe7 1.935 . S
O16 C23 1.421 . S
C17 O13 1.381 . S
C17 O14 1.421 . S
O18 Fe7 2.077 . S
O18 C30 1.381 . S
O19 Fe2 1.935 . S
O19 C30 1.421 . S
O20 Fe0 2.077 . S
O20 C8 1.381 . S
O21 Fe3 1.935 . S
O21 C8 1.421 . S
C22 O9 1.381 . S
C22 O10 1.421 . S
C23 O15 1.381 . S
C23 O16 1.421 . S
C24 O25 1.381 . S
C24 O26 1.421 . S
O25 Fe3 2.077 . S
O25 C24 1.381 . S
O26 Fe7 1.935 . S
O26 C24 1.421 . S
C27 O11 1.381 . S
C27 O12 1.421 . S
O28 Fe2 2.077 . S
O28 C31 1.381 . S
O29 Fe0 1.935 . S
O29 C31 1.421 . S
C30 O18 1.381 . S
C30 O19 1.421 . S
C31 O28 1.381 . S
C31 O29 1.421 . S
Fe32 O33 1.886 . S
Fe32 O36 1.715 . S
Fe32 O41 2.077 . S
Fe32 O46 1.935 . S
Fe32 O52 2.077 . S
Fe32 O61 1.935 . S
O33 Fe32 1.886 . S
O33 Fe35 1.715 . S
Fe34 O36 1.886 . S
Fe34 O37 1.715 . S
Fe34 O44 1.935 . S
Fe34 O45 2.077 . S
Fe34 O51 1.935 . S
Fe34 O60 2.077 . S
Fe35 O33 1.715 . S
Fe35 O38 1.886 . S
Fe35 O42 1.935 . S
Fe35 O47 2.077 . S
Fe35 O53 1.935 . S
Fe35 O57 2.077 . S
O36 Fe32 1.715 . S
O36 Fe34 1.886 . S
O37 Fe34 1.715 . S
O37 Fe39 1.886 . S
O38 Fe35 1.886 . S
O38 Fe39 1.715 . S
Fe39 O37 1.886 . S
Fe39 O38 1.715 . S
Fe39 O43 2.077 . S
Fe39 O48 1.935 . S
Fe39 O50 2.077 . S
Fe39 O58 1.935 . S
C40 O52 1.381 . S
C40 O53 1.421 . S
O41 Fe32 2.077 . S
O41 C54 1.381 . S
O42 Fe35 1.935 . S
O42 C54 1.421 . S
O43 Fe39 2.077 . S
O43 C59 1.381 . S
O44 Fe34 1.935 . S
O44 C59 1.421 . S
O45 Fe34 2.077 . S
O45 C49 1.381 . S
O46 Fe32 1.935 . S
O46 C49 1.421 . S
O47 Fe35 2.077 . S
O47 C55 1.381 . S
O48 Fe39 1.935 . S
O48 C55 1.421 . S
C49 O45 1.381 . S
C49 O46 1.421 . S
O50 Fe39 2.077 . S
O50 C62 1.381 . S
O51 Fe34 1.935 . S
O51 C62 1.421 . S
O52 Fe32 2.077 . S
O52 C40 1.381 . S
O53 Fe35 1.935 . S
O53 C40 1.421 . S
C54 O41 1.381 . S
C54 O42 1.421 . S
C55 O47 1.381 . S
C55 O48 1.421 . S
C56 O57 1.381 . S
C56 O58 1.421 . S
O57 Fe35 2.077 . S
O57 C56 1.381 . S
O58 Fe39 1.935 . S
O58 C56 1.421 . S
C59 O43 1.381 . S
C59 O44 1.421 . S
O60 Fe34 2.077 . S
O60 C63 1.381 . S
O61 Fe32 1.935 . S
O61 C63 1.421 . S
C62 O50 1.381 . S
C62 O51 1.421 . S
C63 O60 1.381 . S
C63 O61 1.421 . S
Fe64 O65 1.886 . S
Fe64 O68 1.715 . S
Fe64 O73 2.077 . S
Fe64 O78 1.935 . S
Fe64 O84 2.077 . S
Fe64 O93 1.935 . S
O65 Fe64 1.886 . S
O65 Fe67 1.715 . S
Fe66 O68 1.886 . S
Fe66 O69 1.715 . S
Fe66 O76 1.935 . S
Fe66 O77 2.077 . S
Fe66 O83 1.935 . S
Fe66 O92 2.077 . S
Fe67 O65 1.715 . S
Fe67 O70 1.886 . S
Fe67 O74 1.935 . S
Fe67 O79 2.077 . S
Fe67 O85 1.935 . S
Fe67 O89 2.077 . S
O68 Fe64 1.715 . S
O68 Fe66 1.886 . S
O69 Fe66 1.715 . S
O69 Fe71 1.886 . S
O70 Fe67 1.886 . S
O70 Fe71 1.715 . S
Fe71 O69 1.886 . S
Fe71 O70 1.715 . S
Fe71 O75 2.077 . S
Fe71 O80 1.935 . S
Fe71 O82 2.077 . S
Fe71 O90 1.935 . S
C72 O84 1.381 . S
C72 O85 1.421 . S
O73 Fe64 2.077 . S
O73 C86 1.381 . S
O74 Fe67 1.935 . S
O74 C86 1.421 . S
O75 Fe71 2.077 . S
O75 C91 1.381 . S
O76 Fe66 1.935 . S
O76 C91 1.421 . S
O77 Fe66 2.077 . S
O77 C81 1.381 . S
O78 Fe64 1.935 . S
O78 C81 1.421 . S
O79 Fe67 2.077 . S
O79 C87 1.381 . S
O80 Fe71 1.935 . S
O80 C87 1.421 . S
C81 O77 1.381 . S
C81 O78 1.421 . S
O82 Fe71 2.077 . S
O82 C94 1.381 . S
O83 Fe66 1.935 . S
O83 C94 1.421 . S
O84 Fe64 2.077 . S
O84 C72 1.381 . S
O85 Fe67 1.935 . S
O85 C72 1.421 . S
C86 O73 1.381 . S
C86 O74 1.421 . S
C87 O79 1.381 . S
C87 O80 1.421 . S
C88 O89 1.381 . S
C88 O90 1.421 . S
O89 Fe67 2.077 . S
O89 C88 1.381 . S
O90 Fe71 1.935 . S
O90 C88 1.421 . S
C91 O75 1.381 . S
C91 O76 1.421 . S
O92 Fe66 2.077 . S
O92 C95 1.381 . S
O93 Fe64 1.935 . S
O93 C95 1.421 . S
C94 O82 1.381 . S
C94 O83 1.421 . S
C95 O92 1.381 . S
C95 O93 1.421 . S
Fe96 O97 1.886 . S
Fe96 O100 1.715 . S
Fe96 O105 2.077 . S
Fe96 O110 1.935 . S
Fe96 O116 2.077 . S
Fe96 O125 1.935 . S
O97 Fe96 1.886 . S
O97 Fe99 1.715 . S
Fe98 O100 1.886 . S
Fe98 O101 1.715 . S
Fe98 O108 1.935 . S
Fe98 O109 2.077 . S
Fe98 O115 1.935 . S
Fe98 O124 2.077 . S
Fe99 O97 1.715 . S
Fe99 O102 1.886 . S
Fe99 O106 1.935 . S
Fe99 O111 2.077 . S
Fe99 O117 1.935 . S
Fe99 O121 2.077 . S
O100 Fe96 1.715 . S
O100 Fe98 1.886 . S
O101 Fe98 1.715 . S
O101 Fe103 1.886 . S
O102 Fe99 1.886 . S
O102 Fe103 1.715 . S
Fe103 O101 1.886 . S
Fe103 O102 1.715 . S
Fe103 O107 2.077 . S
Fe103 O112 1.935 . S
Fe103 O114 2.077 . S
Fe103 O122 1.935 . S
C104 O116 1.381 . S
C104 O117 1.421 . S
O105 Fe96 2.077 . S
O105 C118 1.381 . S
O106 Fe99 1.935 . S
O106 C118 1.421 . S
O107 Fe103 2.077 . S
O107 C123 1.381 . S
O108 Fe98 1.935 . S
O108 C123 1.421 . S
O109 Fe98 2.077 . S
O109 C113 1.381 . S
O110 Fe96 1.935 . S
O110 C113 1.421 . S
O111 Fe99 2.077 . S
O111 C119 1.381 . S
O112 Fe103 1.935 . S
O112 C119 1.421 . S
C113 O109 1.381 . S
C113 O110 1.421 . S
O114 Fe103 2.077 . S
O114 C126 1.381 . S
O115 Fe98 1.935 . S
O115 C126 1.421 . S
O116 Fe96 2.077 . S
O116 C104 1.381 . S
O117 Fe99 1.935 . S
O117 C104 1.421 . S
C118 O105 1.381 . S
C118 O106 1.421 . S
C119 O111 1.381 . S
C119 O112 1.421 . S
C120 O121 1.381 . S
C120 O122 1.421 . S
O121 Fe99 2.077 . S
O121 C120 1.381 . S
O122 Fe103 1.935 . S
O122 C120 1.421 . S
C123 O107 1.381 . S
C123 O108 1.421 . S
O124 Fe98 2.077 . S
O124 C127 1.381 . S
O125 Fe96 1.935 . S
O125 C127 1.421 . S
C126 O114 1.381 . S
C126 O115 1.421 . S
C127 O124 1.381 . S
C127 O125 1.421 . S
Fe128 O129 1.886 . S
Fe128 O132 1.715 . S
Fe128 O137 2.077 . S
Fe128 O142 1.935 . S
Fe128 O148 2.077 . S
Fe128 O157 1.935 . S
O129 Fe128 1.886 . S
O129 Fe131 1.715 . S
Fe130 O132 1.886 . S
Fe130 O133 1.715 . S
Fe130 O140 1.935 . S
Fe130 O141 2.077 . S
Fe130 O147 1.935 . S
Fe130 O156 2.077 . S
Fe131 O129 1.715 . S
Fe131 O134 1.886 . S
Fe131 O138 1.935 . S
Fe131 O143 2.077 . S
Fe131 O149 1.935 . S
Fe131 O153 2.077 . S
O132 Fe128 1.715 . S
O132 Fe130 1.886 . S
O133 Fe130 1.715 . S
O133 Fe135 1.886 . S
O134 Fe131 1.886 . S
O134 Fe135 1.715 . S
Fe135 O133 1.886 . S
Fe135 O134 1.715 . S
Fe135 O139 2.077 . S
Fe135 O144 1.935 . S
Fe135 O146 2.077 . S
Fe135 O154 1.935 . S
C136 O148 1.381 . S
C136 O149 1.421 . S
O137 Fe128 2.077 . S
O137 C150 1.381 . S
O138 Fe131 1.935 . S
O138 C150 1.421 . S
O139 Fe135 2.077 . S
O139 C155 1.381 . S
O140 Fe130 1.935 . S
O140 C155 1.421 . S
O141 Fe130 2.077 . S
O141 C145 1.381 . S
O142 Fe128 1.935 . S
O142 C145 1.421 . S
O143 Fe131 2.077 . S
O143 C151 1.381 . S
O144 Fe135 1.935 . S
O144 C151 1.421 . S
C145 O141 1.381 . S
C145 O142 1.421 . S
O146 Fe135 2.077 . S
O146 C158 1.381 . S
O147 Fe130 1.935 . S
O147 C158 1.421 . S
O148 Fe128 2.077 . S
O148 C136 1.381 . S
O149 Fe131 1.935 . S
O149 C136 1.421 . S
C150 O137 1.381 . S
C150 O138 1.421 . S
C151 O143 1.381 . S
C151 O144 1.421 . S
C152 O153 1.381 . S
C152 O154 1.421 . S
O153 Fe131 2.077 . S
O153 C152 1.381 . S
O154 Fe135 1.935 . S
O154 C152 1.421 . S
C155 O139 1.381 . S
C155 O140 1.421 . S
O156 Fe130 2.077 . S
O156 C159 1.381 . S
O157 Fe128 1.935 . S
O157 C159 1.421 . S
C158 O146 1.381 . S
C158 O147 1.421 . S
C159 O156 1.381 . S
C159 O157 1.421 . S
Fe160 O161 1.886 . S
Fe160 O164 1.715 . S
Fe160 O169 2.077 . S
Fe160 O174 1.935 . S
Fe160 O180 2.077 . S
Fe160 O189 1.935 . S
O161 Fe160 1.886 . S
O161 Fe163 1.715 . S
Fe162 O164 1.886 . S
Fe162 O165 1.715 . S
Fe162 O172 1.935 . S
Fe162 O173 2.077 . S
Fe162 O179 1.935 . S
Fe162 O188 2.077 . S
Fe163 O161 1.715 . S
Fe163 O166 1.886 . S
Fe163 O170 1.935 . S
Fe163 O175 2.077 . S
Fe163 O181 1.935 . S
Fe163 O185 2.077 . S
O164 Fe160 1.715 . S
O164 Fe162 1.886 . S
O165 Fe162 1.715 . S
O165 Fe167 1.886 . S
O166 Fe163 1.886 . S
O166 Fe167 1.715 . S
Fe167 O165 1.886 . S
Fe167 O166 1.715 . S
Fe167 O171 2.077 . S
Fe167 O176 1.935 . S
Fe167 O178 2.077 . S
Fe167 O186 1.935 . S
C168 O180 1.381 . S
C168 O181 1.421 . S
O169 Fe160 2.077 . S
O169 C182 1.381 . S
O170 Fe163 1.935 . S
O170 C182 1.421 . S
O171 Fe167 2.077 . S
O171 C187 1.381 . S
O172 Fe162 1.935 . S
O172 C187 1.421 . S
O173 Fe162 2.077 . S
O173 C177 1.381 . S
O174 Fe160 1.935 . S
O174 C177 1.421 . S
O175 Fe163 2.077 . S
O175 C183 1.381 . S
O176 Fe167 1.935 . S
O176 C183 1.421 . S
C177 O173 1.381 . S
C177 O174 1.421 . S
O178 Fe167 2.077 . S
O178 C190 1.381 . S
O179 Fe162 1.935 . S
O179 C190 1.421 . S
O180 Fe160 2.077 . S
O180 C168 1.381 . S
O181 Fe163 1.935 . S
O181 C168 1.421 . S
C182 O169 1.381 . S
C182 O170 1.421 . S
C183 O175 1.381 . S
C183 O176 1.421 . S
C184 O185 1.381 . S
C184 O186 1.421 . S
O185 Fe163 2.077 . S
O185 C184 1.381 . S
O186 Fe167 1.935 . S
O186 C184 1.421 . S
C187 O171 1.381 . S
C187 O172 1.421 . S
O188 Fe162 2.077 . S
O188 C191 1.381 . S
O189 Fe160 1.935 . S
O189 C191 1.421 . S
C190 O178 1.381 . S
C190 O179 1.421 . S
C191 O188 1.381 . S
C191 O189 1.421 . S
H192 C198 0.930 . S
H193 C201 0.930 . S
H194 C202 0.930 . S
H195 C203 0.930 . S
H196 C206 0.930 . S
H197 C207 0.930 . S
C198 H192 0.930 . S
C198 C199 1.355 . S
C198 C200 1.415 . S
C199 C198 1.355 . S
C199 C201 1.419 . S
C200 C198 1.415 . S
C200 C205 1.425 . S
C200 C207 1.409 . S
C201 H193 0.930 . S
C201 C199 1.419 . S
C201 C202 1.362 . S
C202 H194 0.930 . S
C202 C201 1.362 . S
C202 C205 1.409 . S
C203 H195 0.930 . S
C203 C204 1.355 . S
C203 C205 1.415 . S
C204 C203 1.355 . S
C204 C206 1.419 . S
C205 C200 1.425 . S
C205 C202 1.409 . S
C205 C203 1.415 . S
C206 H196 0.930 . S
C206 C204 1.419 . S
C206 C207 1.362 . S
C207 H197 0.930 . S
C207 C200 1.409 . S
C207 C206 1.362 . S
H208 C214 0.930 . S
H209 C217 0.930 . S
H210 C218 0.930 . S
H211 C219 0.930 . S
H212 C222 0.930 . S
H213 C223 0.930 . S
C214 H208 0.930 . S
C214 C215 1.355 . S
C214 C216 1.415 . S
C215 C214 1.355 . S
C215 C217 1.419 . S
C216 C214 1.415 . S
C216 C221 1.425 . S
C216 C223 1.409 . S
C217 H209 0.930 . S
C217 C215 1.419 . S
C217 C218 1.362 . S
C218 H210 0.930 . S
C218 C217 1.362 . S
C218 C221 1.409 . S
C219 H211 0.930 . S
C219 C220 1.355 . S
C219 C221 1.415 . S
C220 C219 1.355 . S
C220 C222 1.419 . S
C221 C216 1.425 . S
C221 C218 1.409 . S
C221 C219 1.415 . S
C222 H212 0.930 . S
C222 C220 1.419 . S
C222 C223 1.362 . S
C223 H213 0.930 . S
C223 C216 1.409 . S
C223 C222 1.362 . S
H224 C230 0.930 . S
H225 C233 0.930 . S
H226 C234 0.930 . S
H227 C235 0.930 . S
H228 C238 0.930 . S
H229 C239 0.930 . S
C230 H224 0.930 . S
C230 C231 1.355 . S
C230 C232 1.415 . S
C231 C230 1.355 . S
C231 C233 1.419 . S
C232 C230 1.415 . S
C232 C237 1.425 . S
C232 C239 1.409 . S
C233 H225 0.930 . S
C233 C231 1.419 . S
C233 C234 1.362 . S
C234 H226 0.930 . S
C234 C233 1.362 . S
C234 C237 1.409 . S
C235 H227 0.930 . S
C235 C236 1.355 . S
C235 C237 1.415 . S
C236 C235 1.355 . S
C236 C238 1.419 . S
C237 C232 1.425 . S
C237 C234 1.409 . S
C237 C235 1.415 . S
C238 H228 0.930 . S
C238 C236 1.419 . S
C238 C239 1.362 . S
C239 H229 0.930 . S
C239 C232 1.409 . S
C239 C238 1.362 . S
H240 C246 0.930 . S
H241 C249 0.930 . S
H242 C250 0.930 . S
H243 C251 0.930 . S
H244 C254 0.930 . S
H245 C255 0.930 . S
C246 H240 0.930 . S
C246 C247 1.355 . S
C246 C248 1.415 . S
C247 C246 1.355 . S
C247 C249 1.419 . S
C248 C246 1.415 . S
C248 C253 1.425 . S
C248 C255 1.409 . S
C249 H241 0.930 . S
C249 C247 1.419 . S
C249 C250 1.362 . S
C250 H242 0.930 . S
C250 C249 1.362 . S
C250 C253 1.409 . S
C251 H243 0.930 . S
C251 C252 1.355 . S
C251 C253 1.415 . S
C252 C251 1.355 . S
C252 C254 1.419 . S
C253 C248 1.425 . S
C253 C250 1.409 . S
C253 C251 1.415 . S
C254 H244 0.930 . S
C254 C252 1.419 . S
C254 C255 1.362 . S
C255 H245 0.930 . S
C255 C248 1.409 . S
C255 C254 1.362 . S
H256 C262 0.930 . S
H257 C265 0.930 . S
H258 C266 0.930 . S
H259 C267 0.930 . S
H260 C270 0.930 . S
H261 C271 0.930 . S
C262 H256 0.930 . S
C262 C263 1.355 . S
C262 C264 1.415 . S
C263 C262 1.355 . S
C263 C265 1.419 . S
C264 C262 1.415 . S
C264 C269 1.425 . S
C264 C271 1.409 . S
C265 H257 0.930 . S
C265 C263 1.419 . S
C265 C266 1.362 . S
C266 H258 0.930 . S
C266 C265 1.362 . S
C266 C269 1.409 . S
C267 H259 0.930 . S
C267 C268 1.355 . S
C267 C269 1.415 . S
C268 C267 1.355 . S
C268 C270 1.419 . S
C269 C264 1.425 . S
C269 C266 1.409 . S
C269 C267 1.415 . S
C270 H260 0.930 . S
C270 C268 1.419 . S
C270 C271 1.362 . S
C271 H261 0.930 . S
C271 C264 1.409 . S
C271 C270 1.362 . S
H272 C278 0.930 . S
H273 C281 0.930 . S
H274 C282 0.930 . S
H275 C283 0.930 . S
H276 C286 0.930 . S
H277 C287 0.930 . S
C278 H272 0.930 . S
C278 C279 1.355 . S
C278 C280 1.415 . S
C279 C278 1.355 . S
C279 C281 1.419 . S
C280 C278 1.415 . S
C280 C285 1.425 . S
C280 C287 1.409 . S
C281 H273 0.930 . S
C281 C279 1.419 . S
C281 C282 1.362 . S
C282 H274 0.930 . S
C282 C281 1.362 . S
C282 C285 1.409 . S
C283 H275 0.930 . S
C283 C284 1.355 . S
C283 C285 1.415 . S
C284 C283 1.355 . S
C284 C286 1.419 . S
C285 C280 1.425 . S
C285 C282 1.409 . S
C285 C283 1.415 . S
C286 H276 0.930 . S
C286 C284 1.419 . S
C286 C287 1.362 . S
C287 H277 0.930 . S
C287 C280 1.409 . S
C287 C286 1.362 . S
H288 C294 0.930 . S
H289 C297 0.930 . S
H290 C298 0.930 . S
H291 C299 0.930 . S
H292 C302 0.930 . S
H293 C303 0.930 . S
C294 H288 0.930 . S
C294 C295 1.355 . S
C294 C296 1.415 . S
C295 C294 1.355 . S
C295 C297 1.419 . S
C296 C294 1.415 . S
C296 C301 1.425 . S
C296 C303 1.409 . S
C297 H289 0.930 . S
C297 C295 1.419 . S
C297 C298 1.362 . S
C298 H290 0.930 . S
C298 C297 1.362 . S
C298 C301 1.409 . S
C299 H291 0.930 . S
C299 C300 1.355 . S
C299 C301 1.415 . S
C300 C299 1.355 . S
C300 C302 1.419 . S
C301 C296 1.425 . S
C301 C298 1.409 . S
C301 C299 1.415 . S
C302 H292 0.930 . S
C302 C300 1.419 . S
C302 C303 1.362 . S
C303 H293 0.930 . S
C303 C296 1.409 . S
C303 C302 1.362 . S
H304 C310 0.930 . S
H305 C313 0.930 1_655 S
H306 C314 0.930 . S
H307 C315 0.930 . S
H308 C318 0.930 . S
H309 C319 0.930 . S
C310 H304 0.930 . S
C310 C311 1.355 . S
C310 C312 1.415 . S
C311 C310 1.355 . S
C311 C313 1.419 . S
C312 C310 1.415 . S
C312 C317 1.425 . S
C312 C319 1.409 . S
C313 H305 0.930 1_455 S
C313 C311 1.419 . S
C313 C314 1.362 . S
C314 H306 0.930 . S
C314 C313 1.362 . S
C314 C317 1.409 . S
C315 H307 0.930 . S
C315 C316 1.355 . S
C315 C317 1.415 . S
C316 C315 1.355 . S
C316 C318 1.419 . S
C317 C312 1.425 . S
C317 C314 1.409 . S
C317 C315 1.415 . S
C318 H308 0.930 . S
C318 C316 1.419 . S
C318 C319 1.362 . S
C319 H309 0.930 . S
C319 C312 1.409 . S
C319 C318 1.362 . S
H320 C326 0.930 . S
H321 C329 0.930 . S
H322 C330 0.930 . S
H323 C331 0.930 1_565 S
H324 C334 0.930 . S
H325 C335 0.930 . S
C326 H320 0.930 . S
C326 C327 1.355 . S
C326 C328 1.415 . S
C327 C326 1.355 . S
C327 C329 1.419 1_655 S
C328 C326 1.415 . S
C328 C333 1.425 . S
C328 C335 1.409 . S
C329 H321 0.930 . S
C329 C327 1.419 1_455 S
C329 C330 1.362 1_455 S
C330 H322 0.930 . S
C330 C329 1.362 1_655 S
C330 C333 1.409 . S
C331 H323 0.930 1_545 S
C331 C332 1.355 . S
C331 C333 1.415 . S
C332 C331 1.355 . S
C332 C334 1.419 . S
C333 C328 1.425 . S
C333 C330 1.409 . S
C333 C331 1.415 . S
C334 H324 0.930 . S
C334 C332 1.419 . S
C334 C335 1.362 . S
C335 H325 0.930 . S
C335 C328 1.409 . S
C335 C334 1.362 . S
H336 C342 0.930 1_545 S
H337 C345 0.930 . S
H338 C346 0.930 . S
H339 C347 0.930 . S
H340 C350 0.930 . S
H341 C351 0.930 . S
C342 H336 0.930 1_565 S
C342 C343 1.355 . S
C342 C344 1.415 . S
C343 C342 1.355 . S
C343 C345 1.419 . S
C344 C342 1.415 . S
C344 C349 1.425 . S
C344 C351 1.409 . S
C345 H337 0.930 . S
C345 C343 1.419 . S
C345 C346 1.362 . S
C346 H338 0.930 . S
C346 C345 1.362 . S
C346 C349 1.409 . S
C347 H339 0.930 . S
C347 C348 1.355 . S
C347 C349 1.415 . S
C348 C347 1.355 . S
C348 C350 1.419 . S
C349 C344 1.425 . S
C349 C346 1.409 . S
C349 C347 1.415 . S
C350 H340 0.930 . S
C350 C348 1.419 . S
C350 C351 1.362 . S
C351 H341 0.930 . S
C351 C344 1.409 . S
C351 C350 1.362 . S
H352 C358 0.930 . S
H353 C361 0.930 . S
H354 C362 0.930 . S
H355 C363 0.930 . S
H356 C366 0.930 1_455 S
H357 C367 0.930 . S
C358 H352 0.930 . S
C358 C359 1.355 . S
C358 C360 1.415 . S
C359 C358 1.355 . S
C359 C361 1.419 . S
C360 C358 1.415 . S
C360 C365 1.425 . S
C360 C367 1.409 . S
C361 H353 0.930 . S
C361 C359 1.419 . S
C361 C362 1.362 . S
C362 H354 0.930 . S
C362 C361 1.362 . S
C362 C365 1.409 . S
C363 H355 0.930 . S
C363 C364 1.355 . S
C363 C365 1.415 . S
C364 C363 1.355 . S
C364 C366 1.419 . S
C365 C360 1.425 . S
C365 C362 1.409 . S
C365 C363 1.415 . S
C366 H356 0.930 1_655 S
C366 C364 1.419 . S
C366 C367 1.362 . S
C367 H357 0.930 . S
C367 C360 1.409 . S
C367 C366 1.362 . S
H368 C374 0.930 . S
H369 C377 0.930 1_545 S
H370 C378 0.930 . S
H371 C379 0.930 . S
H372 C382 0.930 . S
H373 C383 0.930 . S
C374 H368 0.930 . S
C374 C375 1.355 . S
C374 C376 1.415 . S
C375 C374 1.355 . S
C375 C377 1.419 . S
C376 C374 1.415 . S
C376 C381 1.425 . S
C376 C383 1.409 . S
C377 H369 0.930 1_565 S
C377 C375 1.419 . S
C377 C378 1.362 . S
C378 H370 0.930 . S
C378 C377 1.362 . S
C378 C381 1.409 . S
C379 H371 0.930 . S
C379 C380 1.355 . S
C379 C381 1.415 . S
C380 C379 1.355 . S
C380 C382 1.419 . S
C381 C376 1.425 . S
C381 C378 1.409 . S
C381 C379 1.415 . S
C382 H372 0.930 . S
C382 C380 1.419 . S
C382 C383 1.362 . S
C383 H373 0.930 . S
C383 C376 1.409 . S
C383 C382 1.362 . S
H384 C390 0.930 . S
H385 C393 0.930 . S
H386 C394 0.930 . S
H387 C395 0.930 . S
H388 C398 0.930 . S
H389 C399 0.930 . S
C390 H384 0.930 . S
C390 C391 1.355 . S
C390 C392 1.415 . S
C391 C390 1.355 . S
C391 C393 1.419 . S
C392 C390 1.415 . S
C392 C397 1.425 1_554 S
C392 C399 1.409 1_554 S
C393 H385 0.930 . S
C393 C391 1.419 . S
C393 C394 1.362 . S
C394 H386 0.930 . S
C394 C393 1.362 . S
C394 C397 1.409 1_554 S
C395 H387 0.930 . S
C395 C396 1.355 . S
C395 C397 1.415 . S
C396 C395 1.355 . S
C396 C398 1.419 . S
C397 C392 1.425 1_556 S
C397 C394 1.409 1_556 S
C397 C395 1.415 . S
C398 H388 0.930 . S
C398 C396 1.419 . S
C398 C399 1.362 . S
C399 H389 0.930 . S
C399 C392 1.409 1_556 S
C399 C398 1.362 . S
H400 C406 0.930 . S
H401 C409 0.930 . S
H402 C410 0.930 1_455 S
H403 C411 0.930 . S
H404 C414 0.930 . S
H405 C415 0.930 1_655 S
C406 H400 0.930 . S
C406 C407 1.355 . S
C406 C408 1.415 . S
C407 C406 1.355 . S
C407 C409 1.419 . S
C408 C406 1.415 . S
C408 C413 1.425 1_655 S
C408 C415 1.409 1_655 S
C409 H401 0.930 . S
C409 C407 1.419 . S
C409 C410 1.362 . S
C410 H402 0.930 1_655 S
C410 C409 1.362 . S
C410 C413 1.409 1_655 S
C411 H403 0.930 . S
C411 C412 1.355 . S
C411 C413 1.415 . S
C412 C411 1.355 . S
C412 C414 1.419 . S
C413 C408 1.425 1_455 S
C413 C410 1.409 1_455 S
C413 C411 1.415 . S
C414 H404 0.930 . S
C414 C412 1.419 . S
C414 C415 1.362 . S
C415 H405 0.930 1_455 S
C415 C408 1.409 1_455 S
C415 C414 1.362 . S
H416 C422 0.930 . S
H417 C425 0.930 . S
H418 C426 0.930 . S
H419 C427 0.930 . S
H420 C430 0.930 . S
H421 C431 0.930 . S
C422 H416 0.930 . S
C422 C423 1.355 . S
C422 C424 1.415 1_565 S
C423 C422 1.355 . S
C423 C425 1.419 . S
C424 C422 1.415 1_545 S
C424 C429 1.425 1_544 S
C424 C431 1.409 . S
C425 H417 0.930 . S
C425 C423 1.419 . S
C425 C426 1.362 1_554 S
C426 H418 0.930 . S
C426 C425 1.362 1_556 S
C426 C429 1.409 . S
C427 H419 0.930 . S
C427 C428 1.355 . S
C427 C429 1.415 1_545 S
C428 C427 1.355 . S
C428 C430 1.419 . S
C429 C424 1.425 1_566 S
C429 C426 1.409 . S
C429 C427 1.415 1_565 S
C430 H420 0.930 . S
C430 C428 1.419 . S
C430 C431 1.362 1_556 S
C431 H421 0.930 . S
C431 C424 1.409 . S
C431 C430 1.362 1_554 S
H432 C438 0.930 . S
H433 C441 0.930 . S
H434 C442 0.930 . S
H435 C443 0.930 . S
H436 C446 0.930 . S
H437 C447 0.930 . S
C438 H432 0.930 . S
C438 C439 1.355 . S
C438 C440 1.415 . S
C439 C438 1.355 . S
C439 C441 1.419 . S
C440 C438 1.415 . S
C440 C445 1.425 . S
C440 C447 1.409 . S
C441 H433 0.930 . S
C441 C439 1.419 . S
C441 C442 1.362 . S
C442 H434 0.930 . S
C442 C441 1.362 . S
C442 C445 1.409 . S
C443 H435 0.930 . S
C443 C444 1.355 . S
C443 C445 1.415 . S
C444 C443 1.355 . S
C444 C446 1.419 . S
C445 C440 1.425 . S
C445 C442 1.409 . S
C445 C443 1.415 . S
C446 H436 0.930 . S
C446 C444 1.419 . S
C446 C447 1.362 . S
C447 H437 0.930 . S
C447 C440 1.409 . S
C447 C446 1.362 . S
H448 C454 0.930 . S
H449 C457 0.930 . S
H450 C458 0.930 . S
H451 C459 0.930 . S
H452 C462 0.930 . S
H453 C463 0.930 . S
C454 H448 0.930 . S
C454 C455 1.355 . S
C454 C456 1.415 1_556 S
C455 C454 1.355 . S
C455 C457 1.419 . S
C456 C454 1.415 1_554 S
C456 C461 1.425 1_654 S
C456 C463 1.409 . S
C457 H449 0.930 . S
C457 C455 1.419 . S
C457 C458 1.362 1_655 S
C458 H450 0.930 . S
C458 C457 1.362 1_455 S
C458 C461 1.409 . S
C459 H451 0.930 . S
C459 C460 1.355 . S
C459 C461 1.415 1_554 S
C460 C459 1.355 . S
C460 C462 1.419 . S
C461 C456 1.425 1_456 S
C461 C458 1.409 . S
C461 C459 1.415 1_556 S
C462 H452 0.930 . S
C462 C460 1.419 . S
C462 C463 1.362 1_455 S
C463 H453 0.930 . S
C463 C456 1.409 . S
C463 C462 1.362 1_655 S
H464 C470 0.930 . S
H465 C473 0.930 . S
H466 C474 0.933 1_565 S
H467 C475 0.930 . S
H468 C478 0.930 . S
H469 C479 0.933 1_545 S
C470 H464 0.930 . S
C470 C471 1.355 . S
C470 C472 1.415 . S
C471 C470 1.355 . S
C471 C473 1.419 . S
C472 C470 1.415 . S
C472 C477 1.425 1_545 S
C472 C479 1.395 1_545 S
C473 H465 0.930 . S
C473 C471 1.419 . S
C473 C474 1.375 . S
C474 H466 0.933 1_545 S
C474 C473 1.375 . S
C474 C477 1.395 1_545 S
C475 H467 0.930 . S
C475 C476 1.355 . S
C475 C477 1.415 . S
C476 C475 1.355 . S
C476 C478 1.419 . S
C477 C472 1.425 1_565 S
C477 C474 1.395 1_565 S
C477 C475 1.415 . S
C478 H468 0.930 . S
C478 C476 1.419 . S
C478 C479 1.375 . S
C479 H469 0.933 1_565 S
C479 C472 1.395 1_565 S
C479 C478 1.375 . S
H480 C486 0.930 . S
H481 C489 0.930 . S
H482 C490 0.930 . S
H483 C491 0.930 . S
H484 C494 0.930 . S
H485 C495 0.930 . S
C486 H480 0.930 . S
C486 C487 1.355 . S
C486 C488 1.415 . S
C487 C486 1.355 . S
C487 C489 1.419 . S
C488 C486 1.415 . S
C488 C493 1.425 1_556 S
C488 C495 1.409 1_556 S
C489 H481 0.930 . S
C489 C487 1.419 . S
C489 C490 1.362 . S
C490 H482 0.930 . S
C490 C489 1.362 . S
C490 C493 1.409 1_556 S
C491 H483 0.930 . S
C491 C492 1.355 . S
C491 C493 1.415 . S
C492 C491 1.355 . S
C492 C494 1.419 . S
C493 C488 1.425 1_554 S
C493 C490 1.409 1_554 S
C493 C491 1.415 . S
C494 H484 0.930 . S
C494 C492 1.419 . S
C494 C495 1.362 . S
C495 H485 0.930 . S
C495 C488 1.409 1_554 S
C495 C494 1.362 . S
H496 C502 0.930 1_655 S
H497 C505 0.930 . S
H498 C506 0.930 . S
H499 C507 0.930 1_455 S
H500 C510 0.930 . S
H501 C511 0.930 . S
C502 H496 0.930 1_455 S
C502 C503 1.355 . S
C502 C504 1.415 1_455 S
C503 C502 1.355 . S
C503 C505 1.419 . S
C504 C502 1.415 1_655 S
C504 C509 1.425 1_655 S
C504 C511 1.409 . S
C505 H497 0.930 . S
C505 C503 1.419 . S
C505 C506 1.362 . S
C506 H498 0.930 . S
C506 C505 1.362 . S
C506 C509 1.409 . S
C507 H499 0.930 1_655 S
C507 C508 1.355 . S
C507 C509 1.415 1_655 S
C508 C507 1.355 . S
C508 C510 1.419 . S
C509 C504 1.425 1_455 S
C509 C506 1.409 . S
C509 C507 1.415 1_455 S
C510 H500 0.930 . S
C510 C508 1.419 . S
C510 C511 1.362 . S
C511 H501 0.930 . S
C511 C504 1.409 . S
C511 C510 1.362 . S
H512 C518 0.930 . S
H513 C521 0.930 1_565 S
H514 C522 0.930 . S
H515 C523 0.930 . S
H516 C526 0.930 1_545 S
H517 C527 0.930 . S
C518 H512 0.930 . S
C518 C519 1.355 . S
C518 C520 1.415 1_556 S
C519 C518 1.355 . S
C519 C521 1.419 . S
C520 C518 1.415 1_554 S
C520 C525 1.425 1_544 S
C520 C527 1.409 . S
C521 H513 0.930 1_545 S
C521 C519 1.419 . S
C521 C522 1.362 1_545 S
C522 H514 0.930 . S
C522 C521 1.362 1_565 S
C522 C525 1.409 . S
C523 H515 0.930 . S
C523 C524 1.355 . S
C523 C525 1.415 1_554 S
C524 C523 1.355 . S
C524 C526 1.419 . S
C525 C520 1.425 1_566 S
C525 C522 1.409 . S
C525 C523 1.415 1_556 S
C526 H516 0.930 1_565 S
C526 C524 1.419 . S
C526 C527 1.362 1_565 S
C527 H517 0.930 . S
C527 C520 1.409 . S
C527 C526 1.362 1_545 S
H528 C534 0.930 . S
H529 C537 0.930 . S
H530 C538 0.930 . S
H531 C539 0.930 . S
H532 C542 0.930 . S
H533 C543 0.930 . S
C534 H528 0.930 . S
C534 C535 1.355 . S
C534 C536 1.415 . S
C535 C534 1.355 . S
C535 C537 1.419 . S
C536 C534 1.415 . S
C536 C541 1.425 . S
C536 C543 1.409 . S
C537 H529 0.930 . S
C537 C535 1.419 . S
C537 C538 1.362 . S
C538 H530 0.930 . S
C538 C537 1.362 . S
C538 C541 1.409 . S
C539 H531 0.930 . S
C539 C540 1.355 . S
C539 C541 1.415 . S
C540 C539 1.355 . S
C540 C542 1.419 . S
C541 C536 1.425 . S
C541 C538 1.409 . S
C541 C539 1.415 . S
C542 H532 0.930 . S
C542 C540 1.419 . S
C542 C543 1.362 . S
C543 H533 0.930 . S
C543 C536 1.409 . S
C543 C542 1.362 . S
H544 C550 0.930 . S
H545 C553 0.930 . S
H546 C554 0.930 . S
H547 C555 0.930 . S
H548 C558 0.930 . S
H549 C559 0.930 . S
C550 H544 0.930 . S
C550 C551 1.355 . S
C550 C552 1.415 1_455 S
C551 C550 1.355 . S
C551 C553 1.419 . S
C552 C550 1.415 1_655 S
C552 C557 1.425 1_654 S
C552 C559 1.409 . S
C553 H545 0.930 . S
C553 C551 1.419 . S
C553 C554 1.362 1_554 S
C554 H546 0.930 . S
C554 C553 1.362 1_556 S
C554 C557 1.409 . S
C555 H547 0.930 . S
C555 C556 1.355 . S
C555 C557 1.415 1_655 S
C556 C555 1.355 . S
C556 C558 1.419 . S
C557 C552 1.425 1_456 S
C557 C554 1.409 . S
C557 C555 1.415 1_455 S
C558 H548 0.930 . S
C558 C556 1.419 . S
C558 C559 1.362 1_556 S
C559 H549 0.930 . S
C559 C552 1.409 . S
C559 C558 1.362 1_554 S
H560 C566 0.930 1_565 S
H561 C569 0.930 . S
H562 C570 0.930 . S
H563 C571 0.930 1_545 S
H564 C574 0.930 . S
H565 C575 0.930 . S
C566 H560 0.930 1_545 S
C566 C567 1.355 . S
C566 C568 1.415 1_545 S
C567 C566 1.355 . S
C567 C569 1.419 . S
C568 C566 1.415 1_565 S
C568 C573 1.425 1_565 S
C568 C575 1.409 . S
C569 H561 0.930 . S
C569 C567 1.419 . S
C569 C570 1.362 . S
C570 H562 0.930 . S
C570 C569 1.362 . S
C570 C573 1.409 . S
C571 H563 0.930 1_565 S
C571 C572 1.355 . S
C571 C573 1.415 1_565 S
C572 C571 1.355 . S
C572 C574 1.419 . S
C573 C568 1.425 1_545 S
C573 C570 1.409 . S
C573 C571 1.415 1_545 S
C574 H564 0.930 . S
C574 C572 1.419 . S
C574 C575 1.362 . S
C575 H565 0.930 . S
C575 C568 1.409 . S
C575 C574 1.362 . S
C199 C30 1.133 . S
C204 C155 1.209 . S
C215 C187 1.123 . S
C220 C62 1.219 . S
C231 C27 1.127 . S
C236 C94 1.214 . S
C247 C59 1.174 . S
C252 C126 1.169 . S
C263 C158 1.199 . S
C268 C91 1.144 . S
C279 C190 1.122 . S
C284 C123 1.219 . S
C295 C22 0.994 . S
C300 C136 1.079 1_545 S
C311 C54 1.043 1_455 S
C316 C168 1.031 . S
C327 C8 0.981 1_655 S
C332 C86 1.090 1_545 S
C343 C40 1.084 1_565 S
C348 C118 0.988 . S
C359 C72 1.066 . S
C364 C150 1.008 1_655 S
C375 C182 1.048 1_565 S
C380 C104 1.027 1_455 S
C391 C17 1.479 . S
C396 C184 1.558 . S
C407 C49 1.482 . S
C412 C24 1.565 . S
C423 C81 1.544 . S
C428 C56 1.511 . S
C439 C113 1.489 . S
C444 C88 1.572 . S
C455 C120 1.533 . S
C460 C145 1.561 . S
C471 C177 1.484 . S
C476 C152 1.567 . S
C487 C119 1.564 . S
C492 C95 1.482 . S
C503 C151 1.517 . S
C508 C127 1.498 . S
C519 C183 1.578 . S
C524 C159 1.514 . S
C535 C191 1.478 . S
C540 C23 1.546 . S
C551 C31 1.479 . S
C556 C55 1.558 . S
C567 C63 1.499 . S
C572 C87 1.516 . S
