# Generated by pormake.
# Topology uoz, (4)-cn, num edge types: 1
# Building blocks:
#     Node 0, Type 0, BuildingBlock: NAHDIM_clean_sbu_0, # of connection points: 4
#     Node 1, Type 0, BuildingBlock: NAHDIM_clean_sbu_0, # of connection points: 4
#     Node 2, Type 0, BuildingBlock: NAHDIM_clean_sbu_0, # of connection points: 4
#     Node 3, Type 0, BuildingBlock: NAHDIM_clean_sbu_0, # of connection points: 4
#     Node 4, Type 0, BuildingBlock: NAHDIM_clean_sbu_0, # of connection points: 4
#     Node 5, Type 0, BuildingBlock: NAHDIM_clean_sbu_0, # of connection points: 4
#     Node 6, Type 0, BuildingBlock: NAHDIM_clean_sbu_0, # of connection points: 4
#     Node 7, Type 0, BuildingBlock: NAHDIM_clean_sbu_0, # of connection points: 4
#     Node 8, Type 0, BuildingBlock: NAHDIM_clean_sbu_0, # of connection points: 4
#     Node 9, Type 0, BuildingBlock: NAHDIM_clean_sbu_0, # of connection points: 4
#     Node 10, Type 0, BuildingBlock: NAHDIM_clean_sbu_0, # of connection points: 4
#     Node 11, Type 0, BuildingBlock: NAHDIM_clean_sbu_0, # of connection points: 4
#     Node 12, Type 0, BuildingBlock: NAHDIM_clean_sbu_0, # of connection points: 4
#     Node 13, Type 0, BuildingBlock: NAHDIM_clean_sbu_0, # of connection points: 4
#     Node 14, Type 0, BuildingBlock: NAHDIM_clean_sbu_0, # of connection points: 4
#     Node 15, Type 0, BuildingBlock: NAHDIM_clean_sbu_0, # of connection points: 4
#     Edge 16, Type (0, 0), BuildingBlock: UVAHIK_clean_linker_0, # of connection points: 2
#     Edge 17, Type (0, 0), BuildingBlock: UVAHIK_clean_linker_0, # of connection points: 2
#     Edge 18, Type (0, 0), BuildingBlock: UVAHIK_clean_linker_0, # of connection points: 2
#     Edge 19, Type (0, 0), BuildingBlock: UVAHIK_clean_linker_0, # of connection points: 2
#     Edge 20, Type (0, 0), BuildingBlock: UVAHIK_clean_linker_0, # of connection points: 2
#     Edge 21, Type (0, 0), BuildingBlock: UVAHIK_clean_linker_0, # of connection points: 2
#     Edge 22, Type (0, 0), BuildingBlock: UVAHIK_clean_linker_0, # of connection points: 2
#     Edge 23, Type (0, 0), BuildingBlock: UVAHIK_clean_linker_0, # of connection points: 2
#     Edge 24, Type (0, 0), BuildingBlock: UVAHIK_clean_linker_0, # of connection points: 2
#     Edge 25, Type (0, 0), BuildingBlock: UVAHIK_clean_linker_0, # of connection points: 2
#     Edge 26, Type (0, 0), BuildingBlock: UVAHIK_clean_linker_0, # of connection points: 2
#     Edge 27, Type (0, 0), BuildingBlock: UVAHIK_clean_linker_0, # of connection points: 2
#     Edge 28, Type (0, 0), BuildingBlock: UVAHIK_clean_linker_0, # of connection points: 2
#     Edge 29, Type (0, 0), BuildingBlock: UVAHIK_clean_linker_0, # of connection points: 2
#     Edge 30, Type (0, 0), BuildingBlock: UVAHIK_clean_linker_0, # of connection points: 2
#     Edge 31, Type (0, 0), BuildingBlock: UVAHIK_clean_linker_0, # of connection points: 2
#     Edge 32, Type (0, 0), BuildingBlock: UVAHIK_clean_linker_0, # of connection points: 2
#     Edge 33, Type (0, 0), BuildingBlock: UVAHIK_clean_linker_0, # of connection points: 2
#     Edge 34, Type (0, 0), BuildingBlock: UVAHIK_clean_linker_0, # of connection points: 2
#     Edge 35, Type (0, 0), BuildingBlock: UVAHIK_clean_linker_0, # of connection points: 2
#     Edge 36, Type (0, 0), BuildingBlock: UVAHIK_clean_linker_0, # of connection points: 2
#     Edge 37, Type (0, 0), BuildingBlock: UVAHIK_clean_linker_0, # of connection points: 2
#     Edge 38, Type (0, 0), BuildingBlock: UVAHIK_clean_linker_0, # of connection points: 2
#     Edge 39, Type (0, 0), BuildingBlock: UVAHIK_clean_linker_0, # of connection points: 2
#     Edge 40, Type (0, 0), BuildingBlock: UVAHIK_clean_linker_0, # of connection points: 2
#     Edge 41, Type (0, 0), BuildingBlock: UVAHIK_clean_linker_0, # of connection points: 2
#     Edge 42, Type (0, 0), BuildingBlock: UVAHIK_clean_linker_0, # of connection points: 2
#     Edge 43, Type (0, 0), BuildingBlock: UVAHIK_clean_linker_0, # of connection points: 2
#     Edge 44, Type (0, 0), BuildingBlock: UVAHIK_clean_linker_0, # of connection points: 2
#     Edge 45, Type (0, 0), BuildingBlock: UVAHIK_clean_linker_0, # of connection points: 2
#     Edge 46, Type (0, 0), BuildingBlock: UVAHIK_clean_linker_0, # of connection points: 2
#     Edge 47, Type (0, 0), BuildingBlock: UVAHIK_clean_linker_0, # of connection points: 2
# Relax obj value: 0.112
# Max RMSD: 0.096
# Mean RMSD: 0.096
data_MOF--net-uoz--node1-NAHDIM_clean_sbu_0--edge1-UVAHIK_clean_linker_0
_symmetry_space_group_name_H-M    P1
_symmetry_Int_Tables_number       1
_symmetry_cell_setting            triclinic
loop_
_symmetry_equiv_pos_as_xyz
'x, y, z'
_cell_length_a     76.672001
_cell_length_b     76.657863
_cell_length_c     29.114383
_cell_angle_alpha  89.96689
_cell_angle_beta   89.971058
_cell_angle_gamma 90.068207
loop_
_atom_site_label
_atom_site_type_symbol
_atom_site_fract_x
_atom_site_fract_y
_atom_site_fract_z
_atom_type_partial_charge
C0 C 0.03745 0.56194 0.38043 0.0
O1 O 0.05172 0.56952 0.36536 0.0
O2 O 0.04322 0.59249 0.28735 0.0
Zn3 Zn 0.0214 0.57887 0.30179 0.0
O4 O 0.01701 0.56256 0.24954 0.0
C5 C 0.00243 0.61104 0.31645 0.0
O6 O 0.01704 0.61627 0.33558 0.0
O7 O 0.02311 0.56468 0.3598 0.0
C8 C 0.01498 0.56898 0.20966 0.0
O9 O 0.01593 0.58597 0.2042 0.0
C10 C 0.05568 0.58576 0.26461 0.0
O11 O 0.05488 0.56917 0.25344 0.0
O12 O 0.00117 0.59542 0.30237 0.0
C13 C 0.71158 0.75971 0.64676 0.0
O14 O 0.70603 0.7747 0.63059 0.0
O15 O 0.6829 0.77019 0.5556 0.0
Zn16 Zn 0.69331 0.74645 0.56772 0.0
O17 O 0.70979 0.74108 0.51641 0.0
C18 C 0.65859 0.73231 0.55852 0.0
O19 O 0.65414 0.74882 0.56117 0.0
O20 O 0.70704 0.74569 0.62673 0.0
C21 C 0.70377 0.7391 0.47611 0.0
O22 O 0.68691 0.74065 0.46925 0.0
C23 C 0.69058 0.78167 0.53135 0.0
O24 O 0.70634 0.7785 0.51571 0.0
O25 O 0.67449 0.72812 0.56409 0.0
C26 C 0.51267 0.43751 0.87278 0.0
O27 O 0.50591 0.44325 0.83417 0.0
O28 O 0.49719 0.40106 0.79513 0.0
Zn29 Zn 0.5208 0.41088 0.81149 0.0
O30 O 0.52766 0.42943 0.76647 0.0
C31 C 0.53617 0.37832 0.7847 0.0
O32 O 0.52042 0.37568 0.7684 0.0
O33 O 0.51988 0.42258 0.8733 0.0
C34 C 0.53204 0.42652 0.72514 0.0
O35 O 0.53198 0.41045 0.70951 0.0
C36 C 0.48695 0.40822 0.76644 0.0
O37 O 0.49136 0.42318 0.74771 0.0
O38 O 0.53927 0.39221 0.80718 0.0
C39 C 0.84253 0.23378 0.14878 0.0
O40 O 0.84186 0.2205 0.12035 0.0
O41 O 0.87326 0.22443 0.05926 0.0
Zn42 Zn 0.86058 0.24692 0.07267 0.0
O43 O 0.83991 0.24899 0.03067 0.0
C44 C 0.88272 0.26687 0.01783 0.0
O45 O 0.87718 0.25483 0.98921 0.0
O46 O 0.85107 0.24729 0.13701 0.0
C47 C 0.83481 0.26336 0.01365 0.0
O48 O 0.84327 0.2778 0.02336 0.0
C49 C 0.867 0.21284 0.0327 0.0
O50 O 0.85134 0.21502 0.01539 0.0
O51 O 0.87727 0.26658 0.0591 0.0
C52 C 0.04529 0.43162 0.73474 0.0
O53 O 0.0579 0.43293 0.76511 0.0
O54 O 0.05366 0.40047 0.82511 0.0
Zn55 Zn 0.03137 0.41302 0.80887 0.0
O56 O 0.02842 0.43382 0.84969 0.0
C57 C 0.00854 0.3933 0.86273 0.0
O58 O 0.01859 0.40062 0.89381 0.0
O59 O 0.03201 0.42238 0.74449 0.0
C60 C 0.01387 0.4416 0.85342 0.0
O61 O 0.00037 0.43584 0.83016 0.0
C62 C 0.06337 0.40571 0.85774 0.0
O63 O 0.0592 0.42 0.87999 0.0
O64 O 0.01132 0.39663 0.82055 0.0
C65 C 0.84221 0.76632 -0.00125 0.0
O66 O 0.84117 0.78019 0.02512 0.0
O67 O 0.87248 0.77926 0.08473 0.0
Zn68 Zn 0.86084 0.75582 0.07618 0.0
O69 O 0.84053 0.75353 0.11884 0.0
C70 C 0.88559 0.73936 0.13152 0.0
O71 O 0.88208 0.75353 0.15514 0.0
O72 O 0.85119 0.7534 0.0124 0.0
C73 C 0.8337 0.73865 0.12563 0.0
O74 O 0.84019 0.72497 0.10455 0.0
C75 C 0.86778 0.78969 0.11637 0.0
O76 O 0.85454 0.78548 0.14279 0.0
O77 O 0.87799 0.73701 0.09319 0.0
C78 C 0.52078 0.5525 0.26237 0.0
O79 O 0.51568 0.54668 0.30266 0.0
O80 O 0.50591 0.59197 0.33614 0.0
Zn81 Zn 0.52881 0.58083 0.31934 0.0
O82 O 0.53532 0.56352 0.36784 0.0
C83 C 0.54383 0.6153 0.32095 0.0
O84 O 0.52756 0.62008 0.31456 0.0
O85 O 0.52694 0.56787 0.25935 0.0
C86 C 0.53915 0.5679 0.40863 0.0
O87 O 0.53893 0.58448 0.4201 0.0
C88 C 0.49514 0.58549 0.36467 0.0
O89 O 0.49833 0.57013 0.38284 0.0
O90 O 0.5476 0.59916 0.32035 0.0
C91 C 0.70913 0.23128 0.49419 0.0
O92 O 0.70245 0.21607 0.5053 0.0
O93 O 0.68071 0.21884 0.58535 0.0
Zn94 Zn 0.69115 0.24276 0.57633 0.0
O95 O 0.7072 0.24784 0.62898 0.0
C96 C 0.67511 0.27571 0.59394 0.0
O97 O 0.69139 0.28015 0.60183 0.0
O98 O 0.70535 0.24458 0.51823 0.0
C99 C 0.70278 0.24472 0.67022 0.0
O100 O 0.68752 0.23761 0.67874 0.0
C101 C 0.68918 0.20649 0.60411 0.0
O102 O 0.70557 0.20898 0.61552 0.0
O103 O 0.67181 0.26041 0.57952 0.0
C104 C 0.34595 0.2595 0.48577 0.0
O105 O 0.35257 0.27461 0.49796 0.0
O106 O 0.37477 0.27121 0.57576 0.0
Zn107 Zn 0.36369 0.24752 0.56752 0.0
O108 O 0.3474 0.2434 0.62019 0.0
C109 C 0.3969 0.23184 0.58797 0.0
O110 O 0.4011 0.24806 0.59741 0.0
O111 O 0.34956 0.246 0.50927 0.0
C112 C 0.3533 0.24337 0.66095 0.0
O113 O 0.36998 0.24629 0.66778 0.0
C114 C 0.36681 0.28353 0.59608 0.0
O115 O 0.35065 0.28111 0.60968 0.0
O116 O 0.38184 0.22856 0.57183 0.0
C117 C 0.22068 0.73034 0.0093 0.0
O118 O 0.22349 0.72084 0.04612 0.0
O119 O 0.1768 0.72061 0.07466 0.0
Zn120 Zn 0.19214 0.74158 0.06443 0.0
O121 O 0.20752 0.74468 0.11976 0.0
C122 C 0.18053 0.77701 0.07795 0.0
O123 O 0.19685 0.77954 0.09 0.0
O124 O 0.20732 0.74015 0.00797 0.0
C125 C 0.21139 0.73227 0.1468 0.0
O126 O 0.20542 0.71652 0.13847 0.0
C127 C 0.1781 0.70496 0.06071 0.0
O128 O 0.19108 0.70051 0.03372 0.0
O129 O 0.17597 0.76214 0.06279 0.0
C130 C 0.21309 0.26011 0.13824 0.0
O131 O 0.2133 0.2737 0.11075 0.0
O132 O 0.18189 0.27024 0.0508 0.0
Zn133 Zn 0.195 0.24779 0.06188 0.0
O134 O 0.21556 0.24672 0.01963 0.0
C135 C 0.17489 0.22775 0.00323 0.0
O136 O 0.18151 0.23973 0.97599 0.0
O137 O 0.20469 0.24659 0.12594 0.0
C138 C 0.22404 0.23268 0.01371 0.0
O139 O 0.21915 0.21849 0.03555 0.0
C140 C 0.18789 0.28207 0.02454 0.0
O141 O 0.20341 0.28008 0.00614 0.0
O142 O 0.17893 0.228 0.04559 0.0
C143 C 0.35215 0.73418 0.65716 0.0
O144 O 0.3602 0.71947 0.64797 0.0
O145 O 0.3777 0.72166 0.56018 0.0
Zn146 Zn 0.36376 0.74381 0.56577 0.0
O147 O 0.34404 0.74283 0.5207 0.0
C148 C 0.38213 0.76708 0.50697 0.0
O149 O 0.37366 0.7579 0.47612 0.0
O150 O 0.35283 0.74658 0.62823 0.0
C151 C 0.33473 0.75606 0.51145 0.0
O152 O 0.33817 0.77102 0.5315 0.0
C153 C 0.3713 0.70786 0.54276 0.0
O154 O 0.3548 0.70765 0.53062 0.0
O155 O 0.3798 0.76375 0.54935 0.0
C156 C 0.54551 0.06706 0.90383 0.0
O157 O 0.56057 0.07318 0.88954 0.0
O158 O 0.5566 0.09285 0.80653 0.0
Zn159 Zn 0.53304 0.08209 0.81888 0.0
O160 O 0.52848 0.06381 0.77129 0.0
C161 C 0.49961 0.09708 0.79802 0.0
O162 O 0.49514 0.08061 0.79376 0.0
O163 O 0.53186 0.07014 0.88041 0.0
C164 C 0.52827 0.06747 0.72874 0.0
O165 O 0.53116 0.08361 0.71557 0.0
C166 C 0.56859 0.08464 0.7855 0.0
O167 O 0.56601 0.06831 0.77362 0.0
O168 O 0.51496 0.10083 0.81125 0.0
C169 C 0.01808 0.92777 0.39492 0.0
O170 O 0.00321 0.92351 0.37551 0.0
O171 O 0.00873 0.90559 0.2917 0.0
Zn172 Zn 0.0321 0.91584 0.30882 0.0
O173 O 0.03614 0.93677 0.26875 0.0
C174 C 0.04835 0.88263 0.28756 0.0
O175 O 0.03228 0.87675 0.28987 0.0
O176 O 0.03225 0.92469 0.37377 0.0
C177 C 0.04563 0.93632 0.23298 0.0
O178 O 0.05328 0.92166 0.22124 0.0
C179 C 0.00542 0.90282 0.24955 0.0
O180 O 0.01734 0.90654 0.21865 0.0
O181 O 0.05138 0.89854 0.29691 0.0
C182 C 0.54895 0.93283 0.24833 0.0
O183 O 0.56167 0.93361 0.27845 0.0
O184 O 0.55973 0.89999 0.33073 0.0
Zn185 Zn 0.53618 0.91083 0.31782 0.0
O186 O 0.53142 0.92973 0.36413 0.0
C187 C 0.52005 0.88 0.35195 0.0
O188 O 0.53505 0.87927 0.37364 0.0
O189 O 0.5361 0.92277 0.25623 0.0
C190 C 0.52553 0.92693 0.40427 0.0
O191 O 0.52213 0.91089 0.41725 0.0
C192 C 0.57042 0.90656 0.35931 0.0
O193 O 0.56658 0.92142 0.37935 0.0
O194 O 0.5174 0.89237 0.32362 0.0
C195 C 0.01024 0.05945 0.74417 0.0
O196 O 0.99702 0.05945 0.77287 0.0
O197 O -0.00036 0.09546 0.82068 0.0
Zn198 Zn 0.02288 0.08379 0.80973 0.0
O199 O 0.02797 0.0673 0.86125 0.0
C200 C 0.03942 0.11665 0.82849 0.0
O201 O 0.02354 0.12076 0.84142 0.0
O202 O 0.023 0.06968 0.75156 0.0
C203 C 0.02908 0.07265 0.90242 0.0
O204 O 0.02635 0.08921 0.91145 0.0
C205 C 0.98806 0.08925 0.84741 0.0
O206 O 0.99054 0.0739 0.86635 0.0
O207 O 0.0422 0.10168 0.81113 0.0
C208 C 0.1674 0.674 0.06711 0.0
C209 C 0.16553 0.69179 0.07775 0.0
C210 C 0.15581 0.66166 0.08534 0.0
C211 C 0.11203 0.65783 0.13814 0.0
H212 H 0.1298 0.61474 0.18982 0.0
C213 C 0.0698 0.61498 0.25511 0.0
C214 C 0.06983 0.59695 0.24647 0.0
C215 C 0.08208 0.62585 0.23422 0.0
C216 C 0.12463 0.62664 0.17513 0.0
H217 H 0.14992 0.71055 0.11558 0.0
H218 H 0.12998 0.68917 0.14738 0.0
H219 H 0.14979 0.63491 0.15138 0.0
H220 H 0.08323 0.5761 0.21049 0.0
H221 H 0.10468 0.59516 0.17395 0.0
H222 H 0.08695 0.64973 0.16219 0.0
C223 C 0.1402 0.68471 0.12456 0.0
C224 C 0.13606 0.63816 0.153 0.0
C225 C 0.15174 0.69698 0.10648 0.0
C226 C 0.08283 0.58995 0.21783 0.0
C227 C 0.09516 0.60085 0.19699 0.0
C228 C 0.10065 0.64638 0.1603 0.0
C229 C 0.1421 0.66691 0.11435 0.0
C230 C 0.1299 0.65399 0.1348 0.0
C231 C 0.09469 0.61896 0.20427 0.0
C232 C 0.10685 0.63076 0.17956 0.0
H233 H 0.17789 0.66959 0.0451 0.0
H234 H 0.15752 0.64805 0.07655 0.0
H235 H 0.1068 0.66975 0.12367 0.0
H236 H 0.06003 0.62079 0.27719 0.0
H237 H 0.08159 0.63972 0.24118 0.0
C238 C 0.59691 0.90301 0.4087 0.0
C239 C 0.58617 0.89677 0.37318 0.0
C240 C 0.61077 0.89294 0.42499 0.0
C241 C 0.6387 0.85494 0.39788 0.0
H242 H 0.64102 0.84963 0.53025 0.0
C243 C 0.68841 0.80901 0.48454 0.0
C244 C 0.68122 0.79768 0.51749 0.0
C245 C 0.67882 0.82323 0.46826 0.0
C246 C 0.64056 0.85102 0.49324 0.0
H247 H 0.58202 0.87538 0.32561 0.0
H248 H 0.60614 0.85781 0.35416 0.0
H249 H 0.62071 0.87054 0.49683 0.0
H250 H 0.65862 0.79276 0.56049 0.0
H251 H 0.64193 0.81751 0.53209 0.0
H252 H 0.6581 0.83493 0.39427 0.0
C253 C 0.60392 0.87053 0.36924 0.0
C254 C 0.62906 0.86312 0.4741 0.0
C255 C 0.59002 0.88056 0.35305 0.0
C256 C 0.66453 0.80123 0.53506 0.0
C257 C 0.655 0.81548 0.51898 0.0
C258 C 0.65027 0.84289 0.41704 0.0
C259 C 0.61423 0.87646 0.40597 0.0
C260 C 0.62777 0.86497 0.42618 0.0
C261 C 0.66192 0.82646 0.48485 0.0
C262 C 0.65106 0.84056 0.46489 0.0
H263 H 0.59435 0.91548 0.42481 0.0
H264 H 0.61863 0.89794 0.45295 0.0
H265 H 0.63811 0.85621 0.36086 0.0
H266 H 0.70125 0.80666 0.47037 0.0
H267 H 0.68456 0.83159 0.4423 0.0
C268 C 0.46147 0.40501 0.71323 0.0
C269 C 0.47111 0.3989 0.75102 0.0
C270 C 0.44753 0.39526 0.69589 0.0
C271 C 0.41722 0.35913 0.72333 0.0
H272 H 0.41802 0.35063 0.59201 0.0
C273 C 0.36844 0.31225 0.63685 0.0
C274 C 0.37617 0.29979 0.60789 0.0
C275 C 0.37793 0.32677 0.65168 0.0
C276 C 0.41759 0.35294 0.6287 0.0
H277 H 0.47321 0.37816 0.80145 0.0
H278 H 0.44894 0.3612 0.77123 0.0
H279 H 0.43827 0.37168 0.62547 0.0
H280 H 0.39967 0.29319 0.57017 0.0
H281 H 0.4162 0.31847 0.59607 0.0
H282 H 0.39702 0.3399 0.72682 0.0
C283 C 0.45209 0.37354 0.75509 0.0
C284 C 0.42906 0.36511 0.6478 0.0
C285 C 0.46608 0.38322 0.77223 0.0
C286 C 0.39334 0.30252 0.59256 0.0
C287 C 0.40279 0.31708 0.60716 0.0
C288 C 0.40569 0.34704 0.7042 0.0
C289 C 0.44287 0.3793 0.71624 0.0
C290 C 0.42926 0.36804 0.69545 0.0
C291 C 0.3953 0.32918 0.63757 0.0
C292 C 0.40603 0.34353 0.65682 0.0
H293 H 0.46498 0.41707 0.69617 0.0
H294 H 0.44054 0.40009 0.66617 0.0
H295 H 0.41697 0.36125 0.7601 0.0
H296 H 0.35522 0.31056 0.64917 0.0
H297 H 0.37177 0.33598 0.67473 0.0
C298 C 0.89512 0.19629 0.0337 0.0
C299 C 0.87791 0.19799 0.01778 0.0
C300 C 0.906 0.1833 0.01621 0.0
C301 C 0.90653 0.14181 0.95134 0.0
H302 H 0.95335 0.15667 0.91929 0.0
C303 C 0.96155 0.09441 0.89583 0.0
C304 C 0.97314 0.1002 0.8616 0.0
C305 C 0.94873 0.10557 0.91314 0.0
C306 C 0.94027 0.15234 0.92762 0.0
H307 H 0.85839 0.1869 0.97238 0.0
H308 H 0.87744 0.16429 0.94162 0.0
H309 H 0.93343 0.17727 0.95496 0.0
H310 H 0.97976 0.12191 0.81699 0.0
H311 H 0.95728 0.14126 0.8468 0.0
H312 H 0.91339 0.11691 0.92323 0.0
C313 C 0.88249 0.17295 0.96783 0.0
C314 C 0.92894 0.16408 0.9487 0.0
C315 C 0.8716 0.18597 0.98532 0.0
C316 C 0.97113 0.11709 0.8436 0.0
C317 C 0.95832 0.12822 0.86089 0.0
C318 C 0.91792 0.13002 0.93031 0.0
C319 C 0.89991 0.1717 0.98242 0.0
C320 C 0.91195 0.15897 0.96085 0.0
C321 C 0.94725 0.12273 0.89658 0.0
C322 C 0.93491 0.13519 0.91812 0.0
H323 H 0.90036 0.20526 0.05893 0.0
H324 H 0.91927 0.18246 0.02874 0.0
H325 H 0.89355 0.13746 0.96053 0.0
H326 H 0.96274 0.08147 0.91042 0.0
H327 H 0.94045 0.10099 0.94081 0.0
C328 C 0.08257 0.37942 0.85061 0.0
C329 C 0.07841 0.39512 0.87295 0.0
C330 C 0.09598 0.36882 0.86712 0.0
C331 C 0.11977 0.35884 0.97326 0.0
H332 H 0.151 0.33412 0.89127 0.0
C333 C 0.15996 0.2989 0.02914 0.0
C334 C 0.17695 0.29716 0.01161 0.0
C335 C 0.14913 0.31236 0.01394 0.0
C336 C 0.14251 0.34107 0.91467 0.0
H337 H 0.08544 0.41226 0.92932 0.0
H338 H 0.1089 0.39379 0.9579 0.0
H339 H 0.1303 0.3551 0.85985 0.0
H340 H 0.19611 0.30857 0.96558 0.0
H341 H 0.17723 0.3321 0.93933 0.0
H342 H 0.13196 0.34478 0.02807 0.0
C343 C 0.10163 0.38959 0.92797 0.0
C344 C 0.13053 0.35295 0.89661 0.0
C345 C 0.08825 0.40021 0.91141 0.0
C346 C 0.18306 0.30948 0.97962 0.0
C347 C 0.17222 0.32291 0.96436 0.0
C348 C 0.13171 0.34692 0.9913 0.0
C349 C 0.1055 0.37367 0.90635 0.0
C350 C 0.11892 0.36183 0.92566 0.0
C351 C 0.15506 0.32435 0.98086 0.0
C352 C 0.1431 0.33779 0.96216 0.0
H353 H 0.07523 0.37512 0.82091 0.0
H354 H 0.09853 0.35655 0.84997 0.0
H355 H 0.11088 0.36536 -0.0035 0.0
H356 H 0.15485 0.28963 0.05381 0.0
H357 H 0.13592 0.31302 0.02699 0.0
C358 C 0.97529 0.89204 0.26745 0.0
C359 C 0.98879 0.89463 0.23553 0.0
C360 C 0.9599 0.8836 0.25437 0.0
C361 C 0.93472 0.86886 0.1519 0.0
H362 H 0.91646 0.83432 0.2366 0.0
C363 C 0.89216 0.81028 0.09779 0.0
C364 C 0.87842 0.80527 0.12693 0.0
C365 C 0.90339 0.82383 0.11032 0.0
C366 C 0.92121 0.84412 0.21284 0.0
H367 H 0.99663 0.89071 0.16467 0.0
H368 H 0.9701 0.87562 0.14224 0.0
H369 H 0.9404 0.85307 0.26048 0.0
H370 H 0.86521 0.81104 0.19111 0.0
H371 H 0.88494 0.8346 0.21306 0.0
H372 H 0.91592 0.85927 0.10362 0.0
C373 C 0.97115 0.8804 0.17712 0.0
C374 C 0.93493 0.8549 0.22654 0.0
C375 C 0.98646 0.88894 0.19009 0.0
C376 C 0.87571 0.81454 0.16795 0.0
C377 C 0.88704 0.82798 0.18066 0.0
C378 C 0.92109 0.85795 0.13807 0.0
C379 C 0.95774 0.87747 0.20918 0.0
C380 C 0.94205 0.86722 0.19599 0.0
C381 C 0.90118 0.83252 0.15239 0.0
C382 C 0.91438 0.8453 0.16819 0.0
H383 H 0.97664 0.89642 0.30264 0.0
H384 H 0.94973 0.88181 0.27977 0.0
H385 H 0.93966 0.87843 0.1278 0.0
H386 H 0.89454 0.80343 0.06587 0.0
H387 H 0.91426 0.82697 0.08801 0.0
C388 C 0.40041 0.69317 0.54476 0.0
C389 C 0.3828 0.69299 0.53148 0.0
C390 C 0.41176 0.68013 0.52979 0.0
C391 C 0.41387 0.63623 0.47645 0.0
H392 H 0.45872 0.6529 0.43301 0.0
C393 C 0.47006 0.59052 0.41833 0.0
C394 C 0.48027 0.59608 0.38096 0.0
C395 C 0.4572 0.60142 0.43668 0.0
C396 C 0.4462 0.64803 0.4446 0.0
H397 H 0.36311 0.67855 0.49375 0.0
H398 H 0.383 0.65593 0.46709 0.0
H399 H 0.43829 0.67331 0.4672 0.0
H400 H 0.4844 0.61707 0.33208 0.0
H401 H 0.46185 0.6359 0.36355 0.0
H402 H 0.42173 0.61097 0.45263 0.0
C403 C 0.388 0.66606 0.48944 0.0
C404 C 0.43458 0.6597 0.46488 0.0
C405 C 0.37662 0.67907 0.50457 0.0
C406 C 0.47688 0.61245 0.36114 0.0
C407 C 0.46403 0.6233 0.37938 0.0
C408 C 0.42554 0.62452 0.4561 0.0
C409 C 0.40579 0.66666 0.50104 0.0
C410 C 0.41827 0.65396 0.48099 0.0
C411 C 0.4543 0.61808 0.41796 0.0
C412 C 0.44179 0.63033 0.43971 0.0
H413 H 0.40555 0.70361 0.56585 0.0
H414 H 0.42532 0.68077 0.54012 0.0
H415 H 0.40145 0.63138 0.48879 0.0
H416 H 0.47235 0.57799 0.4344 0.0
H417 H 0.45 0.59706 0.46657 0.0
C418 C 0.66316 0.18681 0.60137 0.0
C419 C 0.68006 0.19028 0.61764 0.0
C420 C 0.65378 0.1725 0.61788 0.0
C421 C 0.64956 0.1459 0.72063 0.0
H422 H 0.61948 0.11744 0.64412 0.0
C423 C 0.58824 0.1107 0.78744 0.0
C424 C 0.58453 0.09393 0.77061 0.0
C425 C 0.60237 0.12018 0.77021 0.0
C426 C 0.62798 0.12511 0.6659 0.0
H427 H 0.70063 0.1811 0.6627 0.0
H428 H 0.68412 0.15615 0.69184 0.0
H429 H 0.63991 0.1378 0.60829 0.0
H430 H 0.59306 0.0737 0.72361 0.0
H431 H 0.61768 0.09038 0.69321 0.0
H432 H 0.63726 0.13358 0.77826 0.0
C433 C 0.67816 0.16455 0.66638 0.0
C434 C 0.63956 0.13685 0.6454 0.0
C435 C 0.68763 0.17878 0.6495 0.0
C436 C 0.59557 0.0866 0.73726 0.0
C437 C 0.60961 0.09616 0.71968 0.0
C438 C 0.63787 0.13428 0.74113 0.0
C439 C 0.66104 0.16145 0.65129 0.0
C440 C 0.65025 0.14758 0.67259 0.0
C441 C 0.61298 0.11314 0.73552 0.0
C442 C 0.62675 0.12399 0.71397 0.0
H443 H 0.65699 0.1954 0.57671 0.0
H444 H 0.64055 0.17052 0.60591 0.0
H445 H 0.65754 0.15411 0.74245 0.0
H446 H 0.58 0.11669 0.81322 0.0
H447 H 0.60456 0.1333 0.78277 0.0
C448 C 0.99043 0.37933 0.92391 0.0
C449 C 0.99448 0.38125 0.87708 0.0
C450 C 0.97753 0.36764 0.93805 0.0
C451 C 0.95507 0.32772 0.90258 0.0
H452 H 0.92178 0.34036 -0.00278 0.0
C453 C 0.89897 0.28183 0.9547 0.0
C454 C 0.89484 0.28058 0.00162 0.0
C455 C 0.91053 0.29456 0.93894 0.0
C456 C 0.93111 0.33655 0.97116 0.0
H457 H 0.98804 0.37254 0.80829 0.0
H458 H 0.96548 0.35201 0.83312 0.0
H459 H 0.94287 0.36191 0.97014 0.0
H460 H 0.89957 0.29177 0.06884 0.0
H461 H 0.92008 0.31384 0.04146 0.0
H462 H 0.9436 0.3023 0.90406 0.0
C463 C 0.97239 0.35953 0.85883 0.0
C464 C 0.94315 0.34892 0.95555 0.0
C465 C 0.98523 0.37134 0.84462 0.0
C466 C 0.90246 0.29243 0.03246 0.0
C467 C 0.91413 0.30514 0.01671 0.0
C468 C 0.94311 0.31532 0.91835 0.0
C469 C 0.96846 0.35752 0.90573 0.0
C470 C 0.95528 0.34461 0.92118 0.0
C471 C 0.91835 0.30631 0.96975 0.0
C472 C 0.931 0.31958 0.95288 0.0
H473 H 0.9973 0.38679 0.94982 0.0
H474 H 0.97493 0.36625 0.97445 0.0
H475 H 0.96444 0.32394 0.87658 0.0
H476 H 0.89322 0.27299 0.92993 0.0
H477 H 0.91323 0.29528 0.90247 0.0
C478 C 0.47194 0.1068 0.76016 0.0
C479 C 0.48792 0.11101 0.78108 0.0
C480 C 0.46187 0.11975 0.73927 0.0
C481 C 0.46624 0.16331 0.68704 0.0
H482 H 0.41577 0.16401 0.69508 0.0
C483 C 0.42456 0.22115 0.62367 0.0
C484 C 0.40845 0.21745 0.60279 0.0
C485 C 0.43454 0.20779 0.64291 0.0
C486 C 0.42985 0.16384 0.69196 0.0
H487 H 0.50546 0.13227 0.79827 0.0
H488 H 0.48776 0.15486 0.76244 0.0
H489 H 0.43213 0.14174 0.73653 0.0
H490 H 0.39055 0.19671 0.58397 0.0
H491 H 0.40811 0.17336 0.61712 0.0
H492 H 0.46397 0.18544 0.64262 0.0
C493 C 0.48319 0.14149 0.76137 0.0
C494 C 0.43922 0.15111 0.71583 0.0
C495 C 0.49326 0.12855 0.78224 0.0
C496 C 0.40288 0.20001 0.59993 0.0
C497 C 0.41286 0.18665 0.61926 0.0
C498 C 0.45688 0.17603 0.66319 0.0
C499 C 0.46755 0.13719 0.73889 0.0
C500 C 0.45753 0.15074 0.71379 0.0
C501 C 0.42864 0.19043 0.64171 0.0
C502 C 0.43858 0.17648 0.6655 0.0
H503 H 0.46746 0.09341 0.75859 0.0
H504 H 0.44994 0.11598 0.722 0.0
H505 H 0.48032 0.16317 0.68402 0.0
H506 H 0.42924 0.23444 0.62649 0.0
H507 H 0.44657 0.21117 0.66025 0.0
C508 C 0.55196 0.64554 0.34531 0.0
C509 C 0.55683 0.62812 0.33756 0.0
C510 C 0.56326 0.65699 0.36783 0.0
C511 C 0.60906 0.66351 0.40374 0.0
H512 H 0.58826 0.69111 0.50101 0.0
C513 C 0.6513 0.70211 0.53175 0.0
C514 C 0.646 0.71932 0.5408 0.0
C515 C 0.64019 0.69058 0.50878 0.0
C516 C 0.59425 0.68361 0.47372 0.0
H517 H 0.57779 0.60933 0.3451 0.0
H518 H 0.59749 0.62931 0.38436 0.0
H519 H 0.56982 0.67255 0.45346 0.0
H520 H 0.62457 0.73765 0.53472 0.0
H521 H 0.6053 0.7176 0.49449 0.0
H522 H 0.6335 0.67462 0.42389 0.0
C523 C 0.58494 0.63413 0.37299 0.0
C524 C 0.58368 0.67302 0.44637 0.0
C525 C 0.57362 0.62266 0.35055 0.0
C526 C 0.62907 0.72448 0.52833 0.0
C527 C 0.61798 0.71296 0.50534 0.0
C528 C 0.61964 0.67413 0.43104 0.0
C529 C 0.57971 0.65128 0.38294 0.0
C530 C 0.59096 0.66287 0.41104 0.0
C531 C 0.62356 0.696 0.49439 0.0
C532 C 0.61235 0.68431 0.46635 0.0
H533 H 0.53915 0.6502 0.33554 0.0
H534 H 0.559 0.67023 0.37423 0.0
H535 H 0.61503 0.65597 0.3765 0.0
H536 H 0.66423 0.69769 0.54106 0.0
H537 H 0.64475 0.67749 0.50165 0.0
C538 C 0.14925 0.78591 0.08453 0.0
C539 C 0.16701 0.78998 0.09009 0.0
C540 C 0.13641 0.79676 0.10287 0.0
C541 C 0.12748 0.84056 0.14907 0.0
H542 H 0.09287 0.8163 0.22247 0.0
C543 C 0.07969 0.87753 0.26719 0.0
C544 C 0.06236 0.87155 0.2685 0.0
C545 C 0.09264 0.86771 0.24549 0.0
C546 C 0.10227 0.82329 0.20166 0.0
H547 H 0.18516 0.80924 0.11661 0.0
H548 H 0.16266 0.82824 0.14838 0.0
H549 H 0.1147 0.79965 0.18059 0.0
H550 H 0.04509 0.85043 0.24857 0.0
H551 H 0.06754 0.83349 0.21009 0.0
H552 H 0.11495 0.86422 0.16973 0.0
C553 C 0.15872 0.81661 0.12998 0.0
C554 C 0.11478 0.81374 0.17765 0.0
C555 C 0.1716 0.8057 0.11186 0.0
C556 C 0.05833 0.85537 0.24849 0.0
C557 C 0.07124 0.84561 0.2265 0.0
C558 C 0.11486 0.85014 0.17283 0.0
C559 C 0.14103 0.81196 0.12686 0.0
C560 C 0.12751 0.82226 0.15111 0.0
C561 C 0.08853 0.85174 0.22434 0.0
C562 C 0.1021 0.84161 0.19946 0.0
H563 H 0.14524 0.77397 0.06768 0.0
H564 H 0.12284 0.79302 0.09924 0.0
H565 H 0.13708 0.84746 0.12864 0.0
H566 H 0.08323 0.88993 0.28242 0.0
H567 H 0.10587 0.87267 0.24523 0.0
C568 C 0.98952 0.64103 0.32071 0.0
C569 C 0.9886 0.62375 0.30489 0.0
C570 C 0.97754 0.65348 0.30537 0.0
C571 C 0.93523 0.65859 0.24358 0.0
H572 H 0.95388 0.70434 0.21448 0.0
C573 C 0.89826 0.70921 0.13273 0.0
C574 C 0.89765 0.72622 0.1506 0.0
C575 C 0.9091 0.69665 0.15271 0.0
C576 C 0.94847 0.69165 0.22274 0.0
H577 H 0.97403 0.60585 0.26169 0.0
H578 H 0.95351 0.62754 0.23421 0.0
H579 H 0.97273 0.68252 0.24953 0.0
H580 H 0.90815 0.7435 0.20275 0.0
H581 H 0.9272 0.72166 0.23705 0.0
H582 H 0.91107 0.66772 0.21552 0.0
C583 C 0.96323 0.6315 0.25909 0.0
C584 C 0.95923 0.67917 0.24311 0.0
C585 C 0.97508 0.61904 0.27473 0.0
C586 C 0.90831 0.7305 0.18822 0.0
C587 C 0.91927 0.71803 0.20777 0.0
C588 C 0.92453 0.67104 0.22275 0.0
C589 C 0.96448 0.64895 0.27356 0.0
C590 C 0.95276 0.66246 0.25375 0.0
C591 C 0.91968 0.70095 0.19047 0.0
C592 C 0.93105 0.68768 0.2121 0.0
H593 H -0.00029 0.64505 0.3442 0.0
H594 H 0.97867 0.66672 0.31801 0.0
H595 H 0.92972 0.64597 0.25193 0.0
H596 H 0.89016 0.70551 0.10385 0.0
H597 H 0.90929 0.68359 0.13847 0.0
C598 C 0.05095 0.14456 0.86075 0.0
C599 C 0.05415 0.12831 0.84013 0.0
C600 C 0.06474 0.15478 0.87673 0.0
C601 C 0.11231 0.16153 0.86852 0.0
H602 H 0.10607 0.18341 0.98752 0.0
C603 C 0.15845 0.21476 0.93759 0.0
C604 C 0.16248 0.21476 0.98469 0.0
C605 C 0.14615 0.20314 0.91989 0.0
C606 C 0.1081 0.17723 0.95451 0.0
H607 H 0.07439 0.11032 0.81859 0.0
H608 H 0.09849 0.12818 0.84672 0.0
H609 H 0.08278 0.16553 0.95554 0.0
H610 H 0.15706 0.20227 0.05001 0.0
H611 H 0.13558 0.18185 0.01896 0.0
H612 H 0.13773 0.17311 0.86779 0.0
C613 C 0.0853 0.13305 0.8503 0.0
C614 C 0.09466 0.16718 0.93587 0.0
C615 C 0.07149 0.1228 0.83425 0.0
C616 C 0.15418 0.20264 0.0136 0.0
C617 C 0.14183 0.19101 0.99586 0.0
C618 C 0.12576 0.17161 0.88716 0.0
C619 C 0.08205 0.14899 0.87252 0.0
C620 C 0.09654 0.15935 0.89249 0.0
C621 C 0.13758 0.19125 0.94886 0.0
C622 C 0.12375 0.17968 0.9302 0.0
H623 H 0.03775 0.14925 0.86554 0.0
H624 H 0.06182 0.16718 0.89281 0.0
H625 H 0.11414 0.15572 0.83497 0.0
H626 H 0.1646 0.22392 0.91432 0.0
H627 H 0.14302 0.20383 0.88367 0.0
C628 C 0.66436 0.30305 0.63135 0.0
C629 C 0.66073 0.28736 0.60829 0.0
C630 C 0.65087 0.31305 0.64989 0.0
C631 C 0.60551 0.30875 0.69071 0.0
H632 H 0.60645 0.35932 0.68966 0.0
C633 C 0.54704 0.3513 0.74614 0.0
C634 C 0.55058 0.3666 0.77105 0.0
C635 C 0.56064 0.34124 0.72838 0.0
C636 C 0.60613 0.3452 0.69074 0.0
H637 H 0.64 0.27027 0.58477 0.0
H638 H 0.61643 0.2879 0.61635 0.0
H639 H 0.62957 0.34309 0.65122 0.0
H640 H 0.57121 0.38298 0.79836 0.0
H641 H 0.59496 0.36533 0.76752 0.0
H642 H 0.58198 0.31089 0.72993 0.0
C643 C 0.62975 0.29227 0.621 0.0
C644 C 0.61935 0.3359 0.66863 0.0
C645 C 0.64326 0.28225 0.60256 0.0
C646 C 0.56803 0.37128 0.77927 0.0
C647 C 0.58164 0.36126 0.76129 0.0
C648 C 0.59226 0.31806 0.71268 0.0
C649 C 0.63342 0.30761 0.64567 0.0
C650 C 0.61919 0.31756 0.66832 0.0
C651 C 0.57808 0.3463 0.73499 0.0
C652 C 0.59242 0.33638 0.71293 0.0
H653 H 0.67768 0.30735 0.63648 0.0
H654 H 0.65418 0.32471 0.66899 0.0
H655 H 0.60517 0.29464 0.69192 0.0
H656 H 0.53374 0.34731 0.7392 0.0
H657 H 0.55746 0.32986 0.70801 0.0
C658 C 0.40847 0.7856 0.52178 0.0
C659 C 0.39508 0.7802 0.49207 0.0
C660 C 0.4216 0.79679 0.50608 0.0
C661 C 0.43236 0.8296 0.41956 0.0
H662 H 0.48007 0.81428 0.43717 0.0
C663 C 0.49055 0.86665 0.33854 0.0
C664 C 0.50587 0.86786 0.36479 0.0
C665 C 0.4769 0.85572 0.35253 0.0
C666 C 0.46686 0.81894 0.43252 0.0
H667 H 0.38452 0.78282 0.4233 0.0
H668 H 0.40726 0.8027 0.3963 0.0
H669 H 0.45616 0.79666 0.46696 0.0
H670 H 0.51885 0.85863 0.42637 0.0
H671 H 0.49501 0.84018 0.45146 0.0
H672 H 0.44296 0.85212 0.38632 0.0
C673 C 0.40767 0.79813 0.43151 0.0
C674 C 0.45317 0.80879 0.44951 0.0
C675 C 0.39471 0.78671 0.44693 0.0
C676 C 0.5073 0.85787 0.40506 0.0
C677 C 0.49361 0.84717 0.41935 0.0
C678 C 0.44607 0.83992 0.40316 0.0
C679 C 0.42139 0.80302 0.46069 0.0
C680 C 0.43581 0.81402 0.44324 0.0
C681 C 0.4782 0.84595 0.39337 0.0
C682 C 0.46352 0.83474 0.4095 0.0
H683 H 0.40911 0.78076 0.5567 0.0
H684 H 0.43199 0.80049 0.52933 0.0
H685 H 0.41906 0.83394 0.41448 0.0
H686 H 0.4891 0.87415 0.30725 0.0
H687 H 0.46536 0.85491 0.3312 0.0
C688 C 0.00977 0.53941 0.17622 0.0
C689 C 0.01216 0.55742 0.16981 0.0
C690 C 0.00772 0.52837 0.13853 0.0
C691 C 0.019 0.52491 0.01727 0.0
H692 H 0.98633 0.48623 0.01892 0.0
C693 C 0.02712 0.46392 0.90515 0.0
C694 C 0.0122 0.45665 0.88469 0.0
C695 C 0.02562 0.47775 0.93595 0.0
C696 C 0.99536 0.4971 0.01768 0.0
H697 H 0.01395 0.57804 0.11891 0.0
H698 H 0.01044 0.55867 0.05298 0.0
H699 H 0.98577 0.50772 0.08083 0.0
H700 H 0.98401 0.45834 0.87994 0.0
H701 H 0.9814 0.48252 0.93425 0.0
H702 H 0.0288 0.51413 0.95458 0.0
C703 C 0.01023 0.55313 0.08722 0.0
C704 C 0.99515 0.50929 0.0533 0.0
C705 C 0.01218 0.56421 0.12496 0.0
C706 C 0.99574 0.46366 0.8952 0.0
C707 C 0.99423 0.47744 0.92637 0.0
C708 C 0.01929 0.51267 0.98183 0.0
C709 C 0.0081 0.5351 0.09365 0.0
C710 C 0.00716 0.52314 0.05381 0.0
C711 C 0.00916 0.48455 0.94718 0.0
C712 C 0.00767 0.49848 0.98212 0.0
H713 H 0.00967 0.53378 0.21035 0.0
H714 H 0.00632 0.51449 0.1445 0.0
H715 H 0.02849 0.53539 0.01694 0.0
H716 H 0.03999 0.45884 0.89772 0.0
H717 H 0.03733 0.48283 0.95193 0.0
C718 C 0.81232 0.72023 0.16907 0.0
C719 C 0.81877 0.73681 0.15728 0.0
C720 C 0.79848 0.71856 0.2 0.0
C721 C 0.76208 0.74296 0.252 0.0
H722 H 0.76695 0.71014 0.35262 0.0
C723 C 0.70938 0.73558 0.39193 0.0
C724 C 0.71571 0.73594 0.4372 0.0
C725 C 0.72084 0.73354 0.35502 0.0
C726 C 0.76541 0.71933 0.32464 0.0
H727 H 0.81559 0.76464 0.16807 0.0
H728 H 0.79151 0.7617 0.22202 0.0
H729 H 0.78905 0.71105 0.29222 0.0
H730 H 0.73895 0.73392 0.4794 0.0
H731 H 0.75892 0.73046 0.41504 0.0
H732 H 0.73878 0.75166 0.28517 0.0
C733 C 0.79705 0.75001 0.20711 0.0
C734 C 0.77795 0.71974 0.28988 0.0
C735 C 0.81094 0.75168 0.17646 0.0
C736 C 0.73366 0.73373 0.44491 0.0
C737 C 0.7451 0.73162 0.40806 0.0
C738 C 0.7495 0.7425 0.28662 0.0
C739 C 0.79075 0.73344 0.21941 0.0
C740 C 0.77659 0.7318 0.25372 0.0
C741 C 0.73884 0.73172 0.36273 0.0
C742 C 0.75121 0.73091 0.32373 0.0
H743 H 0.81807 0.70852 0.1548 0.0
H744 H 0.79379 0.70563 0.20867 0.0
H745 H 0.76061 0.75225 0.22423 0.0
H746 H 0.6956 0.73717 0.38487 0.0
H747 H 0.71565 0.7335 0.32043 0.0
C748 C 0.54367 0.53668 0.42982 0.0
C749 C 0.54265 0.55427 0.44323 0.0
C750 C 0.54571 0.52357 0.46254 0.0
C751 C 0.53613 0.51446 0.58275 0.0
H752 H 0.5645 0.47335 0.56198 0.0
C753 C 0.53777 0.45825 0.713 0.0
C754 C 0.53645 0.44132 0.6948 0.0
C755 C 0.54106 0.47246 0.68434 0.0
C756 C 0.55645 0.48471 0.56811 0.0
H757 H 0.54359 0.57194 0.50134 0.0
H758 H 0.54714 0.54893 0.5587 0.0
H759 H 0.56615 0.4978 0.5083 0.0
H760 H 0.53798 0.42594 0.63244 0.0
H761 H 0.54341 0.45083 0.58214 0.0
H762 H 0.52603 0.50128 0.64168 0.0
C763 C 0.54623 0.54534 0.52279 0.0
C764 C 0.55742 0.49871 0.53748 0.0
C765 C 0.54426 0.55851 0.48997 0.0
C766 C 0.53893 0.43883 0.64747 0.0
C767 C 0.54215 0.45308 0.61871 0.0
C768 C 0.53512 0.50047 0.61326 0.0
C769 C 0.54673 0.52773 0.50942 0.0
C770 C 0.54709 0.51362 0.54417 0.0
C771 C 0.54303 0.47007 0.63679 0.0
C772 C 0.54509 0.48534 0.60597 0.0
H773 H 0.54253 0.53298 0.39404 0.0
H774 H 0.54585 0.51011 0.45122 0.0
H775 H 0.5278 0.52566 0.5884 0.0
H776 H 0.53609 0.4606 0.74942 0.0
H777 H 0.54196 0.48534 0.69942 0.0
C778 C 0.8079 0.24969 0.98152 0.0
C779 C 0.81985 0.2636 0.98191 0.0
C780 C 0.79412 0.24951 0.95024 0.0
C781 C 0.78282 0.26373 0.83641 0.0
H782 H 0.73493 0.2548 0.8724 0.0
C783 C 0.72814 0.26118 0.70178 0.0
C784 C 0.71495 0.24868 0.70793 0.0
C785 C 0.74004 0.26462 0.73686 0.0
C786 C 0.74826 0.25708 0.86166 0.0
H787 H 0.82668 0.28831 0.95031 0.0
H788 H 0.80276 0.28773 0.89463 0.0
H789 H 0.75743 0.2577 0.93123 0.0
H790 H 0.70373 0.23004 0.75549 0.0
H791 H 0.72495 0.23543 0.8161 0.0
H792 H 0.77407 0.26226 0.767 0.0
C793 C 0.80403 0.2771 0.91894 0.0
C794 C 0.76108 0.25886 0.8954 0.0
C795 C 0.81764 0.27744 0.95082 0.0
C796 C 0.71373 0.23982 0.74997 0.0
C797 C 0.72584 0.24301 0.78481 0.0
C798 C 0.77008 0.26165 0.80264 0.0
C799 C 0.79223 0.26309 0.9183 0.0
C800 C 0.77846 0.26214 0.88299 0.0
C801 C 0.73923 0.25539 0.7786 0.0
C802 C 0.75263 0.25823 0.81478 0.0
H803 H 0.80926 0.23888 0.00524 0.0
H804 H 0.78524 0.23851 0.95011 0.0
H805 H 0.7962 0.26602 0.82605 0.0
H806 H 0.72923 0.26837 0.66986 0.0
H807 H 0.74987 0.27453 0.73115 0.0
C808 C 0.24502 0.24797 0.96186 0.0
C809 C 0.23904 0.2324 0.98192 0.0
C810 C 0.2589 0.24779 0.93092 0.0
C811 C 0.28118 0.21946 0.84907 0.0
H812 H 0.3163 0.25593 0.85096 0.0
C813 C 0.3238 0.23634 0.69261 0.0
C814 C 0.34145 0.24035 0.70017 0.0
C815 C 0.3125 0.23381 0.72959 0.0
C816 C 0.30672 0.24554 0.85029 0.0
H817 H 0.24307 0.20442 0.98572 0.0
H818 H 0.26738 0.20412 0.93134 0.0
H819 H 0.29469 0.25438 0.91238 0.0
H820 H 0.36117 0.2446 0.75246 0.0
H821 H 0.34136 0.24019 0.81713 0.0
H822 H 0.29311 0.21072 0.78671 0.0
C823 C 0.26122 0.21644 0.93954 0.0
C824 C 0.29426 0.24476 0.88519 0.0
C825 C 0.24737 0.21664 0.97077 0.0
C826 C 0.34762 0.24158 0.7455 0.0
C827 C 0.33628 0.23912 0.78253 0.0
C828 C 0.2936 0.22029 0.81405 0.0
C829 C 0.26707 0.23202 0.91921 0.0
C830 C 0.2812 0.23188 0.88454 0.0
C831 C 0.3186 0.23528 0.77492 0.0
C832 C 0.30633 0.2335 0.81395 0.0
H833 H 0.2389 0.26034 0.96974 0.0
H834 H 0.26297 0.25996 0.91532 0.0
H835 H 0.2712 0.20946 0.84753 0.0
H836 H 0.31864 0.23529 0.65809 0.0
H837 H 0.29888 0.23111 0.72267 0.0
C838 C 0.3153 0.73811 0.46146 0.0
C839 C 0.32053 0.7546 0.47744 0.0
C840 C 0.30219 0.73661 0.4285 0.0
C841 C 0.28169 0.76031 0.33452 0.0
H842 H 0.24559 0.72508 0.34586 0.0
C843 C 0.22735 0.75266 0.1991 0.0
C844 C 0.22273 0.73554 0.18689 0.0
C845 C 0.23823 0.75575 0.23668 0.0
C846 C 0.25569 0.73487 0.34196 0.0
H847 H 0.31605 0.78245 0.47169 0.0
H848 H 0.29318 0.7798 0.41354 0.0
H849 H 0.26649 0.72917 0.40808 0.0
H850 H 0.22585 0.70822 0.20449 0.0
H851 H 0.24514 0.71357 0.26937 0.0
H852 H 0.27127 0.76571 0.26793 0.0
C853 C 0.29927 0.76807 0.42666 0.0
C854 C 0.2676 0.73724 0.37765 0.0
C855 C 0.31229 0.76957 0.46004 0.0
C856 C 0.22912 0.72157 0.21315 0.0
C857 C 0.24009 0.72465 0.25054 0.0
C858 C 0.26986 0.75786 0.29865 0.0
C859 C 0.29414 0.75157 0.41054 0.0
C860 C 0.28081 0.74987 0.37407 0.0
C861 C 0.2448 0.74178 0.2627 0.0
C862 C 0.25683 0.74498 0.30176 0.0
H863 H 0.32137 0.72632 0.47425 0.0
H864 H 0.29863 0.72374 0.4163 0.0
H865 H 0.29189 0.77 0.33065 0.0
H866 H 0.22253 0.76372 0.17972 0.0
H867 H 0.24139 0.76911 0.24551 0.0
C868 C 0.52697 0.95877 0.4228 0.0
C869 C 0.52335 0.94158 0.4367 0.0
C870 C 0.52567 0.97253 0.45399 0.0
C871 C 0.5278 0.98147 0.57731 0.0
H872 H 0.50797 0.02622 0.54376 0.0
C873 C 0.52085 0.03663 0.70916 0.0
C874 C 0.52553 0.05348 0.69466 0.0
C875 C 0.51904 0.02315 0.6774 0.0
C876 C 0.51368 0.01385 0.55348 0.0
H877 H 0.51512 0.92539 0.49393 0.0
H878 H 0.51283 0.94945 0.54835 0.0
H879 H 0.50749 0.00223 0.48859 0.0
H880 H 0.53163 0.06951 0.63536 0.0
H881 H 0.52878 0.04585 0.57986 0.0
H882 H 0.5343 0.99307 0.64175 0.0
C883 C 0.51684 0.95223 0.51342 0.0
C884 C 0.51338 0.00012 0.52194 0.0
C885 C 0.51808 0.93847 0.4822 0.0
C886 C 0.528 0.05666 0.64758 0.0
C887 C 0.52627 0.04313 0.61576 0.0
C888 C 0.52815 0.99519 0.60873 0.0
C889 C 0.52078 0.96937 0.49975 0.0
C890 C 0.52049 0.98381 0.53353 0.0
C891 C 0.52197 0.02617 0.63042 0.0
C892 C 0.52114 0.01154 0.59716 0.0
H893 H 0.53106 0.9616 0.38796 0.0
H894 H 0.52897 0.98558 0.4426 0.0
H895 H 0.53365 0.96914 0.58692 0.0
H896 H 0.51869 0.03379 0.74517 0.0
H897 H 0.5154 0.01031 0.6897 0.0
C898 C 0.03103 0.06505 0.98589 0.0
C899 C 0.03312 0.06024 0.93966 0.0
C900 C 0.03436 0.05305 0.02093 0.0
C901 C 0.05755 0.01229 0.04678 0.0
H902 H 0.02128 0.00524 0.13778 0.0
C903 C 0.05363 0.95047 0.15853 0.0
C904 C 0.04703 0.95188 0.20335 0.0
C905 C 0.05376 0.96494 0.12938 0.0
C906 C 0.03172 0.00725 0.11327 0.0
H907 H 0.04073 0.03925 0.89386 0.0
H908 H 0.04663 0.01837 0.95503 0.0
H909 H 0.01833 0.02857 0.08155 0.0
H910 H 0.03615 0.9697 0.2536 0.0
H911 H 0.0368 0.99504 0.20318 0.0
H912 H 0.07095 0.99096 0.07829 0.0
C913 C 0.04245 0.03141 0.96416 0.0
C914 C 0.02998 0.02059 0.081 0.0
C915 C 0.03894 0.04333 0.92916 0.0
C916 C 0.04114 0.96817 0.21903 0.0
C917 C 0.04144 0.98267 0.19005 0.0
C918 C 0.05938 -0.00096 0.07934 0.0
C919 C 0.04005 0.03611 0.01032 0.0
C920 C 0.04273 0.02304 0.047 0.0
C921 C 0.04746 0.98116 0.14461 0.0
C922 C 0.04633 0.99617 0.11248 0.0
H923 H 0.02657 0.078 0.99503 0.0
H924 H 0.0325 0.05699 0.05631 0.0
H925 H 0.06766 0.01407 0.02121 0.0
H926 H 0.05821 0.93807 0.14542 0.0
H927 H 0.05826 0.96323 0.09441 0.0
C928 C 0.03048 0.44477 0.66624 0.0
C929 C 0.04555 0.4427 0.69314 0.0
C930 C 0.03014 0.45696 0.6305 0.0
C931 C 0.05204 0.49753 0.59368 0.0
H932 H 0.02698 0.48972 0.47991 0.0
C933 C 0.05413 0.54582 0.44105 0.0
C934 C 0.03832 0.54904 0.41821 0.0
C935 C 0.05521 0.53278 0.47452 0.0
C936 C 0.03389 0.49214 0.51172 0.0
H937 H 0.07237 0.45107 0.70202 0.0
H938 H 0.07189 0.47201 0.63914 0.0
H939 H 0.02897 0.46629 0.53643 0.0
H940 H 0.01112 0.54134 0.41335 0.0
H941 H 0.01302 0.51868 0.47188 0.0
H942 H 0.05698 0.52336 0.56888 0.0
C943 C 0.06019 0.46457 0.64637 0.0
C944 C 0.03504 0.47872 0.54408 0.0
C945 C 0.0605 0.45246 0.6822 0.0
C946 C 0.02352 0.53918 0.43021 0.0
C947 C 0.02463 0.5261 0.46349 0.0
C948 C 0.05094 0.51091 0.56126 0.0
C949 C 0.04489 0.46725 0.62076 0.0
C950 C 0.04409 0.48127 0.58552 0.0
C951 C 0.04052 0.52265 0.4857 0.0
C952 C 0.0418 0.50839 0.52001 0.0
H953 H 0.01872 0.43748 0.67388 0.0
H954 H 0.01809 0.45878 0.6117 0.0
H955 H 0.05882 0.50007 0.62561 0.0
H956 H 0.06578 0.55316 0.43259 0.0
H957 H 0.06767 0.53035 0.49084 0.0
C958 C 0.82878 0.7491 0.93456 0.0
C959 C 0.83138 0.76515 0.95687 0.0
C960 C 0.81694 0.74776 0.89819 0.0
C961 C 0.79245 0.77383 0.81306 0.0
H962 H 0.75892 0.73595 0.81864 0.0
C963 C 0.72966 0.77492 0.70593 0.0
C964 C 0.72454 0.75934 0.68438 0.0
C965 C 0.74304 0.77492 0.73841 0.0
C966 C 0.76831 0.74648 0.81623 0.0
H967 H 0.82416 0.79251 0.9573 0.0
H968 H 0.80361 0.79017 0.89399 0.0
H969 H 0.7827 0.73714 0.87426 0.0
H970 H 0.72914 0.73144 0.68099 0.0
H971 H 0.75261 0.73148 0.73752 0.0
H972 H 0.77805 0.78325 0.7553 0.0
C973 C 0.81072 0.77863 0.90443 0.0
C974 C 0.78196 0.74714 0.84803 0.0
C975 C 0.82244 0.77994 0.9409 0.0
C976 C 0.73275 0.74367 0.69704 0.0
C977 C 0.74618 0.74368 0.72952 0.0
C978 C 0.77885 0.77315 0.78124 0.0
C979 C 0.80761 0.76247 0.8832 0.0
C980 C 0.79403 0.76095 0.84713 0.0
C981 C 0.75165 0.75935 0.75004 0.0
C982 C 0.76648 0.7596 0.78284 0.0
H983 H 0.83548 0.73745 0.94609 0.0
H984 H 0.81495 0.73517 0.88211 0.0
H985 H 0.8017 0.78449 0.81107 0.0
H986 H 0.72353 0.7872 0.69719 0.0
H987 H 0.74669 0.78716 0.75431 0.0
C988 C 0.52078 0.54766 0.17716 0.0
C989 C 0.51994 0.54091 0.22197 0.0
C990 C 0.51982 0.53648 0.13928 0.0
C991 C 0.52838 0.49185 0.10333 0.0
H992 H 0.49419 0.50032 0.00789 0.0
C993 C 0.51658 0.44221 0.95744 0.0
C994 C 0.51288 0.44891 0.91363 0.0
C995 C 0.51708 0.45329 0.99559 0.0
C996 C 0.50401 0.49788 0.0338 0.0
H997 H 0.51773 0.51719 0.26233 0.0
H998 H 0.51644 0.49772 0.19621 0.0
H999 H 0.49647 0.52046 0.07238 0.0
H1000 H 0.50704 0.47245 0.87526 0.0
H1001 H 0.50857 0.49177 0.94102 0.0
H1002 H 0.53635 0.46961 0.06446 0.0
C1003 C 0.51769 0.51163 0.19044 0.0
C1004 C 0.50525 0.50941 0.07078 0.0
C1005 C 0.51833 0.52279 0.2282 0.0
C1006 C 0.50974 0.46685 0.90867 0.0
C1007 C 0.51051 0.47794 0.94655 0.0
C1008 C 0.52735 0.48047 0.06598 0.0
C1009 C 0.51836 0.51837 0.14569 0.0
C1010 C 0.51739 0.50645 0.1059 0.0
C1011 C 0.51416 0.47133 0.99056 0.0
C1012 C 0.51512 0.48331 0.03074 0.0
H1013 H 0.522 0.56157 0.17137 0.0
H1014 H 0.52043 0.54195 0.105 0.0
H1015 H 0.53794 0.48939 0.12993 0.0
H1016 H 0.51897 0.42841 0.96229 0.0
H1017 H 0.51964 0.44767 0.02903 0.0
C1018 C 0.82267 0.21849 0.20362 0.0
C1019 C 0.83159 0.23374 0.19063 0.0
C1020 C 0.81071 0.21877 0.23973 0.0
C1021 C 0.78145 0.24873 0.3002 0.0
H1022 H 0.77634 0.21005 0.38505 0.0
C1023 C 0.73113 0.24835 0.44886 0.0
C1024 C 0.72247 0.2325 0.45758 0.0
C1025 C 0.74484 0.24909 0.41725 0.0
C1026 C 0.77749 0.22087 0.3613 0.0
H1027 H 0.83546 0.26111 0.20659 0.0
H1028 H 0.81457 0.26157 0.27001 0.0
H1029 H 0.80055 0.21028 0.33074 0.0
H1030 H 0.72104 0.20516 0.43875 0.0
H1031 H 0.74475 0.20652 0.3832 0.0
H1032 H 0.75825 0.25922 0.33039 0.0
C1033 C 0.81672 0.24944 0.2518 0.0
C1034 C 0.79139 0.22103 0.33031 0.0
C1035 C 0.82878 0.24914 0.21573 0.0
C1036 C 0.72748 0.21755 0.43303 0.0
C1037 C 0.74118 0.2183 0.40146 0.0
C1038 C 0.76753 0.24857 0.33121 0.0
C1039 C 0.80734 0.23432 0.26364 0.0
C1040 C 0.79342 0.23485 0.29906 0.0
C1041 C 0.75019 0.23401 0.39371 0.0
C1042 C 0.76528 0.23454 0.36173 0.0
H1043 H 0.82455 0.2064 0.18505 0.0
H1044 H 0.80359 0.20694 0.2477 0.0
H1045 H 0.78251 0.25945 0.27611 0.0
H1046 H 0.72762 0.26011 0.46726 0.0
H1047 H 0.75158 0.26137 0.41226 0.0
C1048 C 0.32862 0.27365 0.4233 0.0
C1049 C 0.33311 0.25855 0.44793 0.0
C1050 C 0.31557 0.27312 0.3899 0.0
C1051 C 0.27684 0.248 0.3549 0.0
H1052 H 0.28201 0.27406 0.24154 0.0
C1053 C 0.2279 0.2442 0.20273 0.0
C1054 C 0.22453 0.25983 0.1791 0.0
C1055 C 0.24055 0.24365 0.23734 0.0
C1056 C 0.28028 0.26688 0.27327 0.0
H1057 H 0.32768 0.23092 0.45606 0.0
H1058 H 0.305 0.22998 0.3973 0.0
H1059 H 0.30591 0.27343 0.29651 0.0
H1060 H 0.23101 0.28736 0.17511 0.0
H1061 H 0.2528 0.28644 0.23571 0.0
H1062 H 0.25115 0.24148 0.33146 0.0
C1063 C 0.31143 0.24228 0.40433 0.0
C1064 C 0.29399 0.2665 0.30472 0.0
C1065 C 0.32452 0.2428 0.43773 0.0
C1066 C 0.23342 0.27506 0.1923 0.0
C1067 C 0.24601 0.27452 0.22682 0.0
C1068 C 0.26309 0.24838 0.32334 0.0
C1069 C 0.30671 0.25747 0.38034 0.0
C1070 C 0.29239 0.25718 0.34606 0.0
C1071 C 0.25003 0.25873 0.24893 0.0
C1072 C 0.26461 0.25797 0.28238 0.0
H1073 H 0.33494 0.286 0.43037 0.0
H1074 H 0.31212 0.2851 0.3724 0.0
H1075 H 0.27513 0.24087 0.38671 0.0
H1076 H 0.22128 0.23224 0.19331 0.0
H1077 H 0.2434 0.23128 0.25367 0.0
C1078 C 0.33985 0.72193 0.73011 0.0
C1079 C 0.34046 0.73543 0.69747 0.0
C1080 C 0.32747 0.7222 0.76538 0.0
C1081 C 0.28402 0.73922 0.79115 0.0
H1082 H 0.29498 0.72656 0.91677 0.0
C1083 C 0.23314 0.74344 0.93747 0.0
C1084 C 0.23365 0.73053 0.9717 0.0
C1085 C 0.24622 0.74433 0.90404 0.0
C1086 C 0.29164 0.72989 0.88171 0.0
H1087 H 0.32894 0.76013 0.67724 0.0
H1088 H 0.30734 0.76053 0.73876 0.0
H1089 H 0.31825 0.728 0.85974 0.0
H1090 H 0.24793 0.70805 -0.00323 0.0
H1091 H 0.27041 0.70928 0.93786 0.0
H1092 H 0.25739 0.74076 0.81265 0.0
C1093 C 0.31635 0.74968 0.73679 0.0
C1094 C 0.305 0.73079 0.84914 0.0
C1095 C 0.32881 0.7495 0.70177 0.0
C1096 C 0.24724 0.71825 0.97107 0.0
C1097 C 0.26022 0.71904 0.93748 0.0
C1098 C 0.27063 0.73818 0.82362 0.0
C1099 C 0.31537 0.7359 0.7685 0.0
C1100 C 0.30132 0.73544 0.80352 0.0
C1101 C 0.26002 0.73223 0.9039 0.0
C1102 C 0.27426 0.73346 0.8693 0.0
H1103 H 0.34864 0.71092 0.72779 0.0
H1104 H 0.32696 0.71135 0.78921 0.0
H1105 H 0.28076 0.74258 0.75604 0.0
H1106 H 0.2229 0.75316 0.93717 0.0
H1107 H 0.24574 0.75478 0.87904 0.0
C1108 C 0.5634 0.9555 0.19982 0.0
C1109 C 0.5487 0.94513 0.20918 0.0
C1110 C 0.56271 0.96852 0.16635 0.0
C1111 C 0.53743 0.9844 0.06644 0.0
H1112 H 0.5594 0.02852 0.09692 0.0
C1113 C 0.52936 0.04571 0.95335 0.0
C1114 C 0.5448 0.05485 0.94315 0.0
C1115 C 0.52921 0.03278 0.98719 0.0
C1116 C 0.55331 0.01625 0.08779 0.0
H1117 H 0.52191 0.93988 0.18963 0.0
H1118 H 0.52064 0.96278 0.13145 0.0
H1119 H 0.56061 0.00442 0.15143 0.0
H1120 H 0.57202 0.05801 0.96169 0.0
H1121 H 0.57174 0.0355 0.0208 0.0
H1122 H 0.53009 0.99632 0.0028 0.0
C1123 C 0.53276 0.96073 0.14973 0.0
C1124 C 0.55405 0.00241 0.11892 0.0
C1125 C 0.53348 0.94763 0.18314 0.0
C1126 C 0.55991 0.05122 0.96869 0.0
C1127 C 0.55974 0.03836 0.00268 0.0
C1128 C 0.53664 -0.00172 0.03535 0.0
C1129 C 0.54728 0.97154 0.14158 0.0
C1130 C 0.54624 0.98627 0.10849 0.0
C1131 C 0.54447 0.02879 0.01175 0.0
C1132 C 0.54466 0.01431 0.04559 0.0
H1133 H 0.57539 0.95382 0.21899 0.0
H1134 H 0.57426 0.97634 0.1602 0.0
H1135 H 0.53145 0.9721 0.05712 0.0
H1136 H 0.51747 0.0482 0.93436 0.0
H1137 H 0.51719 0.02579 0.99389 0.0
C1138 C 0.0266 0.04359 0.68253 0.0
C1139 C 0.01102 0.04643 0.70679 0.0
C1140 C 0.02772 0.03022 0.65005 0.0
C1141 C 0.00624 0.98884 0.61626 0.0
H1142 H 0.03266 0.99511 0.50387 0.0
C1143 C 0.00256 0.94217 0.46034 0.0
C1144 C 0.0182 0.93854 0.43704 0.0
C1145 C 0.00227 0.95423 0.4963 0.0
C1146 C 0.02542 0.99309 0.5354 0.0
H1147 H 0.98421 0.03789 0.71487 0.0
H1148 H 0.98601 0.01492 0.65739 0.0
H1149 H 0.03057 0.01905 0.55858 0.0
H1150 H 0.04596 0.94407 0.43474 0.0
H1151 H 0.04541 0.96513 0.49745 0.0
H1152 H 0.0008 0.96296 0.59233 0.0
C1153 C 0.99752 0.02269 0.66428 0.0
C1154 C 0.02422 0.00681 0.56677 0.0
C1155 C 0.99644 0.03597 0.69696 0.0
C1156 C 0.03368 0.94661 0.45184 0.0
C1157 C 0.03336 0.95877 0.48754 0.0
C1158 C 0.00734 0.97516 0.5847 0.0
C1159 C 0.01324 0.01949 0.64088 0.0
C1160 C 0.01458 0.00487 0.60754 0.0
C1161 C 0.01759 0.96298 0.50944 0.0
C1162 C 0.01693 0.97716 0.54394 0.0
H1163 H 0.0381 0.05137 0.6895 0.0
H1164 H 0.04008 0.02802 0.63305 0.0
H1165 H -0.00101 0.98677 0.64772 0.0
H1166 H 0.99042 0.93613 0.44986 0.0
H1167 H 0.98991 0.95727 0.51246 0.0
loop_
_geom_bond_atom_site_label_1
_geom_bond_atom_site_label_2
_geom_bond_distance
_geom_bond_site_symmetry_2
_ccdc_geom_bond_type
C0 O1 1.160 . S
C0 O7 1.185 . S
O1 C0 1.160 . S
O2 Zn3 1.899 . S
O2 C10 1.284 . S
Zn3 O2 1.899 . S
Zn3 O4 2.032 . S
Zn3 O7 2.086 . S
Zn3 O12 1.977 . S
O4 Zn3 2.032 . S
O4 C8 1.278 . S
C5 O6 1.203 . S
C5 O12 1.267 . S
O6 C5 1.203 . S
O7 C0 1.185 . S
O7 Zn3 2.086 . S
C8 O4 1.278 . S
C8 O9 1.211 . S
O9 C8 1.211 . S
C10 O2 1.284 . S
C10 O11 1.273 . S
O11 C10 1.273 . S
O12 Zn3 1.977 . S
O12 C5 1.267 . S
C13 O14 1.160 . S
C13 O20 1.185 . S
O14 C13 1.160 . S
O15 Zn16 1.899 . S
O15 C23 1.284 . S
Zn16 O15 1.899 . S
Zn16 O17 2.032 . S
Zn16 O20 2.086 . S
Zn16 O25 1.977 . S
O17 Zn16 2.032 . S
O17 C21 1.278 . S
C18 O19 1.203 . S
C18 O25 1.267 . S
O19 C18 1.203 . S
O20 C13 1.185 . S
O20 Zn16 2.086 . S
C21 O17 1.278 . S
C21 O22 1.211 . S
O22 C21 1.211 . S
C23 O15 1.284 . S
C23 O24 1.273 . S
O24 C23 1.273 . S
O25 Zn16 1.977 . S
O25 C18 1.267 . S
C26 O27 1.160 . S
C26 O33 1.185 . S
O27 C26 1.160 . S
O28 Zn29 1.899 . S
O28 C36 1.284 . S
Zn29 O28 1.899 . S
Zn29 O30 2.032 . S
Zn29 O33 2.086 . S
Zn29 O38 1.977 . S
O30 Zn29 2.032 . S
O30 C34 1.278 . S
C31 O32 1.203 . S
C31 O38 1.267 . S
O32 C31 1.203 . S
O33 C26 1.185 . S
O33 Zn29 2.086 . S
C34 O30 1.278 . S
C34 O35 1.211 . S
O35 C34 1.211 . S
C36 O28 1.284 . S
C36 O37 1.273 . S
O37 C36 1.273 . S
O38 Zn29 1.977 . S
O38 C31 1.267 . S
C39 O40 1.160 . S
C39 O46 1.185 . S
O40 C39 1.160 . S
O41 Zn42 1.899 . S
O41 C49 1.284 . S
Zn42 O41 1.899 . S
Zn42 O43 2.032 1_554 S
Zn42 O46 2.086 . S
Zn42 O51 1.977 . S
O43 Zn42 2.032 1_556 S
O43 C47 1.278 . S
C44 O45 1.202 . S
C44 O51 1.267 1_556 S
O45 C44 1.202 . S
O46 C39 1.185 . S
O46 Zn42 2.086 . S
C47 O43 1.278 . S
C47 O48 1.211 . S
O48 C47 1.211 . S
C49 O41 1.284 . S
C49 O50 1.273 1_554 S
O50 C49 1.273 1_556 S
O51 Zn42 1.977 . S
O51 C44 1.267 1_554 S
C52 O53 1.160 . S
C52 O59 1.185 . S
O53 C52 1.160 . S
O54 Zn55 1.899 . S
O54 C62 1.284 . S
Zn55 O54 1.899 . S
Zn55 O56 2.032 . S
Zn55 O59 2.086 . S
Zn55 O64 1.977 . S
O56 Zn55 2.032 . S
O56 C60 1.278 . S
C57 O58 1.203 . S
C57 O64 1.267 . S
O58 C57 1.203 . S
O59 C52 1.185 . S
O59 Zn55 2.086 . S
C60 O56 1.278 . S
C60 O61 1.211 . S
O61 C60 1.211 . S
C62 O54 1.284 . S
C62 O63 1.273 . S
O63 C62 1.273 . S
O64 Zn55 1.977 . S
O64 C57 1.267 . S
C65 O66 1.160 . S
C65 O72 1.185 . S
O66 C65 1.160 . S
O67 Zn68 1.899 . S
O67 C75 1.284 . S
Zn68 O67 1.899 . S
Zn68 O69 2.032 . S
Zn68 O72 2.086 . S
Zn68 O77 1.977 . S
O69 Zn68 2.032 . S
O69 C73 1.278 . S
C70 O71 1.203 . S
C70 O77 1.267 . S
O71 C70 1.203 . S
O72 C65 1.185 . S
O72 Zn68 2.086 . S
C73 O69 1.278 . S
C73 O74 1.211 . S
O74 C73 1.211 . S
C75 O67 1.284 . S
C75 O76 1.273 . S
O76 C75 1.273 . S
O77 Zn68 1.977 . S
O77 C70 1.267 . S
C78 O79 1.160 . S
C78 O85 1.185 . S
O79 C78 1.160 . S
O80 Zn81 1.899 . S
O80 C88 1.284 . S
Zn81 O80 1.899 . S
Zn81 O82 2.032 . S
Zn81 O85 2.086 . S
Zn81 O90 1.977 . S
O82 Zn81 2.032 . S
O82 C86 1.278 . S
C83 O84 1.203 . S
C83 O90 1.267 . S
O84 C83 1.203 . S
O85 C78 1.185 . S
O85 Zn81 2.086 . S
C86 O82 1.278 . S
C86 O87 1.211 . S
O87 C86 1.211 . S
C88 O80 1.284 . S
C88 O89 1.273 . S
O89 C88 1.273 . S
O90 Zn81 1.977 . S
O90 C83 1.267 . S
C91 O92 1.160 . S
C91 O98 1.185 . S
O92 C91 1.160 . S
O93 Zn94 1.899 . S
O93 C101 1.284 . S
Zn94 O93 1.899 . S
Zn94 O95 2.032 . S
Zn94 O98 2.086 . S
Zn94 O103 1.977 . S
O95 Zn94 2.032 . S
O95 C99 1.278 . S
C96 O97 1.203 . S
C96 O103 1.267 . S
O97 C96 1.203 . S
O98 C91 1.185 . S
O98 Zn94 2.086 . S
C99 O95 1.278 . S
C99 O100 1.211 . S
O100 C99 1.211 . S
C101 O93 1.284 . S
C101 O102 1.273 . S
O102 C101 1.273 . S
O103 Zn94 1.977 . S
O103 C96 1.267 . S
C104 O105 1.160 . S
C104 O111 1.185 . S
O105 C104 1.160 . S
O106 Zn107 1.899 . S
O106 C114 1.284 . S
Zn107 O106 1.899 . S
Zn107 O108 2.032 . S
Zn107 O111 2.086 . S
Zn107 O116 1.977 . S
O108 Zn107 2.032 . S
O108 C112 1.278 . S
C109 O110 1.203 . S
C109 O116 1.267 . S
O110 C109 1.203 . S
O111 C104 1.185 . S
O111 Zn107 2.086 . S
C112 O108 1.278 . S
C112 O113 1.211 . S
O113 C112 1.211 . S
C114 O106 1.284 . S
C114 O115 1.273 . S
O115 C114 1.273 . S
O116 Zn107 1.977 . S
O116 C109 1.267 . S
C117 O118 1.160 . S
C117 O124 1.185 . S
O118 C117 1.160 . S
O119 Zn120 1.899 . S
O119 C127 1.284 . S
Zn120 O119 1.899 . S
Zn120 O121 2.032 . S
Zn120 O124 2.086 . S
Zn120 O129 1.977 . S
O121 Zn120 2.032 . S
O121 C125 1.278 . S
C122 O123 1.203 . S
C122 O129 1.267 . S
O123 C122 1.203 . S
O124 C117 1.185 . S
O124 Zn120 2.086 . S
C125 O121 1.278 . S
C125 O126 1.211 . S
O126 C125 1.211 . S
C127 O119 1.284 . S
C127 O128 1.273 . S
O128 C127 1.273 . S
O129 Zn120 1.977 . S
O129 C122 1.267 . S
C130 O131 1.160 . S
C130 O137 1.185 . S
O131 C130 1.160 . S
O132 Zn133 1.899 . S
O132 C140 1.284 . S
Zn133 O132 1.899 . S
Zn133 O134 2.032 1_554 S
Zn133 O137 2.086 . S
Zn133 O142 1.977 . S
O134 Zn133 2.032 1_556 S
O134 C138 1.278 . S
C135 O136 1.202 . S
C135 O142 1.267 1_556 S
O136 C135 1.202 . S
O137 C130 1.185 . S
O137 Zn133 2.086 . S
C138 O134 1.278 . S
C138 O139 1.211 . S
O139 C138 1.211 . S
C140 O132 1.284 . S
C140 O141 1.273 1_554 S
O141 C140 1.273 1_556 S
O142 Zn133 1.977 . S
O142 C135 1.267 1_554 S
C143 O144 1.160 . S
C143 O150 1.185 . S
O144 C143 1.160 . S
O145 Zn146 1.899 . S
O145 C153 1.284 . S
Zn146 O145 1.899 . S
Zn146 O147 2.032 . S
Zn146 O150 2.086 . S
Zn146 O155 1.977 . S
O147 Zn146 2.032 . S
O147 C151 1.278 . S
C148 O149 1.203 . S
C148 O155 1.267 . S
O149 C148 1.203 . S
O150 C143 1.185 . S
O150 Zn146 2.086 . S
C151 O147 1.278 . S
C151 O152 1.211 . S
O152 C151 1.211 . S
C153 O145 1.284 . S
C153 O154 1.273 . S
O154 C153 1.273 . S
O155 Zn146 1.977 . S
O155 C148 1.267 . S
C156 O157 1.160 . S
C156 O163 1.185 . S
O157 C156 1.160 . S
O158 Zn159 1.899 . S
O158 C166 1.284 . S
Zn159 O158 1.899 . S
Zn159 O160 2.032 . S
Zn159 O163 2.086 . S
Zn159 O168 1.977 . S
O160 Zn159 2.032 . S
O160 C164 1.278 . S
C161 O162 1.203 . S
C161 O168 1.267 . S
O162 C161 1.203 . S
O163 C156 1.185 . S
O163 Zn159 2.086 . S
C164 O160 1.278 . S
C164 O165 1.211 . S
O165 C164 1.211 . S
C166 O158 1.284 . S
C166 O167 1.273 . S
O167 C166 1.273 . S
O168 Zn159 1.977 . S
O168 C161 1.267 . S
C169 O170 1.160 . S
C169 O176 1.185 . S
O170 C169 1.160 . S
O171 Zn172 1.899 . S
O171 C179 1.282 . S
Zn172 O171 1.899 . S
Zn172 O173 2.032 . S
Zn172 O176 2.086 . S
Zn172 O181 1.977 . S
O173 Zn172 2.032 . S
O173 C177 1.278 . S
C174 O175 1.203 . S
C174 O181 1.267 . S
O175 C174 1.203 . S
O176 C169 1.185 . S
O176 Zn172 2.086 . S
C177 O173 1.278 . S
C177 O178 1.211 . S
O178 C177 1.211 . S
C179 O171 1.282 . S
C179 O180 1.272 . S
O180 C179 1.272 . S
O181 Zn172 1.977 . S
O181 C174 1.267 . S
C182 O183 1.160 . S
C182 O189 1.185 . S
O183 C182 1.160 . S
O184 Zn185 1.899 . S
O184 C192 1.284 . S
Zn185 O184 1.899 . S
Zn185 O186 2.032 . S
Zn185 O189 2.086 . S
Zn185 O194 1.977 . S
O186 Zn185 2.032 . S
O186 C190 1.278 . S
C187 O188 1.203 . S
C187 O194 1.267 . S
O188 C187 1.203 . S
O189 C182 1.185 . S
O189 Zn185 2.086 . S
C190 O186 1.278 . S
C190 O191 1.211 . S
O191 C190 1.211 . S
C192 O184 1.284 . S
C192 O193 1.273 . S
O193 C192 1.273 . S
O194 Zn185 1.977 . S
O194 C187 1.267 . S
C195 O196 1.160 . S
C195 O202 1.185 . S
O196 C195 1.160 . S
O197 Zn198 1.899 . S
O197 C205 1.281 . S
Zn198 O197 1.899 . S
Zn198 O199 2.032 . S
Zn198 O202 2.086 . S
Zn198 O207 1.977 . S
O199 Zn198 2.032 . S
O199 C203 1.278 . S
C200 O201 1.203 . S
C200 O207 1.267 . S
O201 C200 1.203 . S
O202 C195 1.185 . S
O202 Zn198 2.086 . S
C203 O199 1.278 . S
C203 O204 1.211 . S
O204 C203 1.211 . S
C205 O197 1.281 . S
C205 O206 1.272 . S
O206 C205 1.272 . S
O207 Zn198 1.977 . S
O207 C200 1.267 . S
C208 C209 1.349 . S
C208 C210 1.327 . S
C208 H233 0.950 . S
C209 C208 1.349 . S
C209 C225 1.349 . S
C210 C208 1.327 . S
C210 C229 1.429 . S
C210 H234 0.950 . S
C211 C228 1.574 . S
C211 C230 1.368 . S
C211 H235 0.949 . S
H212 C216 0.949 . S
C213 C214 1.349 . S
C213 C215 1.327 . S
C213 H236 0.950 . S
C214 C213 1.349 . S
C214 C226 1.349 . S
C215 C213 1.327 . S
C215 C231 1.429 . S
C215 H237 0.950 . S
C216 H212 0.949 . S
C216 C224 1.574 . S
C216 C232 1.368 . S
H217 C225 0.950 . S
H218 C223 0.950 . S
H219 C224 0.949 . S
H220 C226 0.950 . S
H221 C227 0.950 . S
H222 C228 0.949 . S
C223 H218 0.950 . S
C223 C225 1.327 . S
C223 C229 1.429 . S
C224 C216 1.574 . S
C224 H219 0.949 . S
C224 C230 1.368 . S
C225 C209 1.349 . S
C225 H217 0.950 . S
C225 C223 1.327 . S
C226 C214 1.349 . S
C226 H220 0.950 . S
C226 C227 1.327 . S
C227 H221 0.950 . S
C227 C226 1.327 . S
C227 C231 1.429 . S
C228 C211 1.574 . S
C228 H222 0.949 . S
C228 C232 1.368 . S
C229 C210 1.429 . S
C229 C223 1.429 . S
C229 C230 1.523 . S
C230 C211 1.368 . S
C230 C224 1.368 . S
C230 C229 1.523 . S
C231 C215 1.429 . S
C231 C227 1.429 . S
C231 C232 1.523 . S
C232 C216 1.368 . S
C232 C228 1.368 . S
C232 C231 1.523 . S
H233 C208 0.950 . S
H234 C210 0.950 . S
H235 C211 0.949 . S
H236 C213 0.950 . S
H237 C215 0.950 . S
C238 C239 1.349 . S
C238 C240 1.327 . S
C238 H263 0.950 . S
C239 C238 1.349 . S
C239 C255 1.349 . S
C240 C238 1.327 . S
C240 C259 1.429 . S
C240 H264 0.950 . S
C241 C258 1.574 . S
C241 C260 1.368 . S
C241 H265 0.949 . S
H242 C246 0.949 . S
C243 C244 1.349 . S
C243 C245 1.327 . S
C243 H266 0.950 . S
C244 C243 1.349 . S
C244 C256 1.349 . S
C245 C243 1.327 . S
C245 C261 1.429 . S
C245 H267 0.950 . S
C246 H242 0.949 . S
C246 C254 1.574 . S
C246 C262 1.368 . S
H247 C255 0.950 . S
H248 C253 0.950 . S
H249 C254 0.949 . S
H250 C256 0.950 . S
H251 C257 0.950 . S
H252 C258 0.949 . S
C253 H248 0.950 . S
C253 C255 1.327 . S
C253 C259 1.429 . S
C254 C246 1.574 . S
C254 H249 0.949 . S
C254 C260 1.368 . S
C255 C239 1.349 . S
C255 H247 0.950 . S
C255 C253 1.327 . S
C256 C244 1.349 . S
C256 H250 0.950 . S
C256 C257 1.327 . S
C257 H251 0.950 . S
C257 C256 1.327 . S
C257 C261 1.429 . S
C258 C241 1.574 . S
C258 H252 0.949 . S
C258 C262 1.368 . S
C259 C240 1.429 . S
C259 C253 1.429 . S
C259 C260 1.523 . S
C260 C241 1.368 . S
C260 C254 1.368 . S
C260 C259 1.523 . S
C261 C245 1.429 . S
C261 C257 1.429 . S
C261 C262 1.523 . S
C262 C246 1.368 . S
C262 C258 1.368 . S
C262 C261 1.523 . S
H263 C238 0.950 . S
H264 C240 0.950 . S
H265 C241 0.949 . S
H266 C243 0.950 . S
H267 C245 0.950 . S
C268 C269 1.349 . S
C268 C270 1.327 . S
C268 H293 0.950 . S
C269 C268 1.349 . S
C269 C285 1.349 . S
C270 C268 1.327 . S
C270 C289 1.429 . S
C270 H294 0.950 . S
C271 C288 1.574 . S
C271 C290 1.368 . S
C271 H295 0.949 . S
H272 C276 0.949 . S
C273 C274 1.349 . S
C273 C275 1.327 . S
C273 H296 0.950 . S
C274 C273 1.349 . S
C274 C286 1.349 . S
C275 C273 1.327 . S
C275 C291 1.429 . S
C275 H297 0.950 . S
C276 H272 0.949 . S
C276 C284 1.574 . S
C276 C292 1.368 . S
H277 C285 0.950 . S
H278 C283 0.950 . S
H279 C284 0.949 . S
H280 C286 0.950 . S
H281 C287 0.950 . S
H282 C288 0.949 . S
C283 H278 0.950 . S
C283 C285 1.327 . S
C283 C289 1.429 . S
C284 C276 1.574 . S
C284 H279 0.949 . S
C284 C290 1.368 . S
C285 C269 1.349 . S
C285 H277 0.950 . S
C285 C283 1.327 . S
C286 C274 1.349 . S
C286 H280 0.950 . S
C286 C287 1.327 . S
C287 H281 0.950 . S
C287 C286 1.327 . S
C287 C291 1.429 . S
C288 C271 1.574 . S
C288 H282 0.949 . S
C288 C292 1.368 . S
C289 C270 1.429 . S
C289 C283 1.429 . S
C289 C290 1.523 . S
C290 C271 1.368 . S
C290 C284 1.368 . S
C290 C289 1.523 . S
C291 C275 1.429 . S
C291 C287 1.429 . S
C291 C292 1.523 . S
C292 C276 1.368 . S
C292 C288 1.368 . S
C292 C291 1.523 . S
H293 C268 0.950 . S
H294 C270 0.950 . S
H295 C271 0.949 . S
H296 C273 0.950 . S
H297 C275 0.950 . S
C298 C299 1.349 1_556 S
C298 C300 1.327 . S
C298 H323 0.950 . S
C299 C298 1.349 1_554 S
C299 C315 1.349 . S
C300 C298 1.327 . S
C300 C319 1.429 . S
C300 H324 0.950 . S
C301 C318 1.574 . S
C301 C320 1.368 . S
C301 H325 0.949 . S
H302 C306 0.949 . S
C303 C304 1.349 . S
C303 C305 1.327 . S
C303 H326 0.950 . S
C304 C303 1.349 . S
C304 C316 1.349 . S
C305 C303 1.327 . S
C305 C321 1.429 . S
C305 H327 0.950 . S
C306 H302 0.949 . S
C306 C314 1.574 . S
C306 C322 1.368 . S
H307 C315 0.950 . S
H308 C313 0.950 . S
H309 C314 0.949 . S
H310 C316 0.950 1_455 S
H311 C317 0.950 . S
H312 C318 0.949 . S
C313 H308 0.950 . S
C313 C315 1.327 1_556 S
C313 C319 1.429 . S
C314 C306 1.574 . S
C314 H309 0.949 . S
C314 C320 1.368 . S
C315 C299 1.349 . S
C315 H307 0.950 . S
C315 C313 1.327 1_554 S
C316 C304 1.349 . S
C316 H310 0.950 1_655 S
C316 C317 1.327 . S
C317 H311 0.950 . S
C317 C316 1.327 . S
C317 C321 1.429 . S
C318 C301 1.574 . S
C318 H312 0.949 . S
C318 C322 1.368 . S
C319 C300 1.429 . S
C319 C313 1.429 . S
C319 C320 1.523 . S
C320 C301 1.368 . S
C320 C314 1.368 . S
C320 C319 1.523 . S
C321 C305 1.429 . S
C321 C317 1.429 . S
C321 C322 1.523 . S
C322 C306 1.368 . S
C322 C318 1.368 . S
C322 C321 1.523 . S
H323 C298 0.950 . S
H324 C300 0.950 . S
H325 C301 0.949 . S
H326 C303 0.950 . S
H327 C305 0.950 . S
C328 C329 1.349 . S
C328 C330 1.327 . S
C328 H353 0.950 . S
C329 C328 1.349 . S
C329 C345 1.349 . S
C330 C328 1.327 . S
C330 C349 1.429 . S
C330 H354 0.950 . S
C331 C348 1.574 . S
C331 C350 1.368 . S
C331 H355 0.961 . S
H332 C336 0.949 . S
C333 C334 1.349 . S
C333 C335 1.327 . S
C333 H356 0.950 . S
C334 C333 1.349 . S
C334 C346 1.349 1_554 S
C335 C333 1.327 . S
C335 C351 1.429 1_554 S
C335 H357 0.950 . S
C336 H332 0.949 . S
C336 C344 1.574 . S
C336 C352 1.368 . S
H337 C345 0.950 . S
H338 C343 0.950 . S
H339 C344 0.949 . S
H340 C346 0.950 . S
H341 C347 0.950 . S
H342 C348 0.949 1_554 S
C343 H338 0.950 . S
C343 C345 1.327 . S
C343 C349 1.429 . S
C344 C336 1.574 . S
C344 H339 0.949 . S
C344 C350 1.368 . S
C345 C329 1.349 . S
C345 H337 0.950 . S
C345 C343 1.327 . S
C346 C334 1.349 1_556 S
C346 H340 0.950 . S
C346 C347 1.327 . S
C347 H341 0.950 . S
C347 C346 1.327 . S
C347 C351 1.429 . S
C348 C331 1.574 . S
C348 H342 0.949 1_556 S
C348 C352 1.368 . S
C349 C330 1.429 . S
C349 C343 1.429 . S
C349 C350 1.523 . S
C350 C331 1.368 . S
C350 C344 1.368 . S
C350 C349 1.523 . S
C351 C335 1.429 1_556 S
C351 C347 1.429 . S
C351 C352 1.523 . S
C352 C336 1.368 . S
C352 C348 1.368 . S
C352 C351 1.523 . S
H353 C328 0.950 . S
H354 C330 0.950 . S
H355 C331 0.961 . S
H356 C333 0.950 . S
H357 C335 0.950 . S
C358 C359 1.349 . S
C358 C360 1.327 . S
C358 H383 0.950 . S
C359 C358 1.349 . S
C359 C375 1.349 . S
C360 C358 1.327 . S
C360 C379 1.429 . S
C360 H384 0.950 . S
C361 C378 1.574 . S
C361 C380 1.368 . S
C361 H385 0.949 . S
H362 C366 0.949 . S
C363 C364 1.349 . S
C363 C365 1.327 . S
C363 H386 0.950 . S
C364 C363 1.349 . S
C364 C376 1.349 . S
C365 C363 1.327 . S
C365 C381 1.429 . S
C365 H387 0.950 . S
C366 H362 0.949 . S
C366 C374 1.574 . S
C366 C382 1.368 . S
H367 C375 0.950 . S
H368 C373 0.950 . S
H369 C374 0.949 . S
H370 C376 0.950 . S
H371 C377 0.950 . S
H372 C378 0.949 . S
C373 H368 0.950 . S
C373 C375 1.327 . S
C373 C379 1.429 . S
C374 C366 1.574 . S
C374 H369 0.949 . S
C374 C380 1.368 . S
C375 C359 1.349 . S
C375 H367 0.950 . S
C375 C373 1.327 . S
C376 C364 1.349 . S
C376 H370 0.950 . S
C376 C377 1.327 . S
C377 H371 0.950 . S
C377 C376 1.327 . S
C377 C381 1.429 . S
C378 C361 1.574 . S
C378 H372 0.949 . S
C378 C382 1.368 . S
C379 C360 1.429 . S
C379 C373 1.429 . S
C379 C380 1.523 . S
C380 C361 1.368 . S
C380 C374 1.368 . S
C380 C379 1.523 . S
C381 C365 1.429 . S
C381 C377 1.429 . S
C381 C382 1.523 . S
C382 C366 1.368 . S
C382 C378 1.368 . S
C382 C381 1.523 . S
H383 C358 0.950 . S
H384 C360 0.950 . S
H385 C361 0.949 . S
H386 C363 0.950 . S
H387 C365 0.950 . S
C388 C389 1.349 . S
C388 C390 1.327 . S
C388 H413 0.950 . S
C389 C388 1.349 . S
C389 C405 1.349 . S
C390 C388 1.327 . S
C390 C409 1.429 . S
C390 H414 0.950 . S
C391 C408 1.574 . S
C391 C410 1.368 . S
C391 H415 0.949 . S
H392 C396 0.949 . S
C393 C394 1.349 . S
C393 C395 1.327 . S
C393 H416 0.950 . S
C394 C393 1.349 . S
C394 C406 1.349 . S
C395 C393 1.327 . S
C395 C411 1.429 . S
C395 H417 0.950 . S
C396 H392 0.949 . S
C396 C404 1.574 . S
C396 C412 1.368 . S
H397 C405 0.950 . S
H398 C403 0.950 . S
H399 C404 0.949 . S
H400 C406 0.950 . S
H401 C407 0.950 . S
H402 C408 0.949 . S
C403 H398 0.950 . S
C403 C405 1.327 . S
C403 C409 1.429 . S
C404 C396 1.574 . S
C404 H399 0.949 . S
C404 C410 1.368 . S
C405 C389 1.349 . S
C405 H397 0.950 . S
C405 C403 1.327 . S
C406 C394 1.349 . S
C406 H400 0.950 . S
C406 C407 1.327 . S
C407 H401 0.950 . S
C407 C406 1.327 . S
C407 C411 1.429 . S
C408 C391 1.574 . S
C408 H402 0.949 . S
C408 C412 1.368 . S
C409 C390 1.429 . S
C409 C403 1.429 . S
C409 C410 1.523 . S
C410 C391 1.368 . S
C410 C404 1.368 . S
C410 C409 1.523 . S
C411 C395 1.429 . S
C411 C407 1.429 . S
C411 C412 1.523 . S
C412 C396 1.368 . S
C412 C408 1.368 . S
C412 C411 1.523 . S
H413 C388 0.950 . S
H414 C390 0.950 . S
H415 C391 0.949 . S
H416 C393 0.950 . S
H417 C395 0.950 . S
C418 C419 1.349 . S
C418 C420 1.327 . S
C418 H443 0.950 . S
C419 C418 1.349 . S
C419 C435 1.349 . S
C420 C418 1.327 . S
C420 C439 1.429 . S
C420 H444 0.950 . S
C421 C438 1.574 . S
C421 C440 1.368 . S
C421 H445 0.949 . S
H422 C426 0.949 . S
C423 C424 1.349 . S
C423 C425 1.327 . S
C423 H446 0.950 . S
C424 C423 1.349 . S
C424 C436 1.349 . S
C425 C423 1.327 . S
C425 C441 1.429 . S
C425 H447 0.950 . S
C426 H422 0.949 . S
C426 C434 1.574 . S
C426 C442 1.368 . S
H427 C435 0.950 . S
H428 C433 0.950 . S
H429 C434 0.949 . S
H430 C436 0.950 . S
H431 C437 0.950 . S
H432 C438 0.949 . S
C433 H428 0.950 . S
C433 C435 1.327 . S
C433 C439 1.429 . S
C434 C426 1.574 . S
C434 H429 0.949 . S
C434 C440 1.368 . S
C435 C419 1.349 . S
C435 H427 0.950 . S
C435 C433 1.327 . S
C436 C424 1.349 . S
C436 H430 0.950 . S
C436 C437 1.327 . S
C437 H431 0.950 . S
C437 C436 1.327 . S
C437 C441 1.429 . S
C438 C421 1.574 . S
C438 H432 0.949 . S
C438 C442 1.368 . S
C439 C420 1.429 . S
C439 C433 1.429 . S
C439 C440 1.523 . S
C440 C421 1.368 . S
C440 C434 1.368 . S
C440 C439 1.523 . S
C441 C425 1.429 . S
C441 C437 1.429 . S
C441 C442 1.523 . S
C442 C426 1.368 . S
C442 C438 1.368 . S
C442 C441 1.523 . S
H443 C418 0.950 . S
H444 C420 0.950 . S
H445 C421 0.949 . S
H446 C423 0.950 . S
H447 C425 0.950 . S
C448 C449 1.349 . S
C448 C450 1.327 . S
C448 H473 0.950 . S
C449 C448 1.349 . S
C449 C465 1.349 . S
C450 C448 1.327 . S
C450 C469 1.429 . S
C450 H474 0.950 . S
C451 C468 1.574 . S
C451 C470 1.368 . S
C451 H475 0.949 . S
H452 C456 0.949 . S
C453 C454 1.349 . S
C453 C455 1.327 . S
C453 H476 0.950 . S
C454 C453 1.349 . S
C454 C466 1.349 1_556 S
C455 C453 1.327 . S
C455 C471 1.429 . S
C455 H477 0.950 . S
C456 H452 0.949 . S
C456 C464 1.574 . S
C456 C472 1.368 . S
H457 C465 0.950 1_455 S
H458 C463 0.950 . S
H459 C464 0.949 . S
H460 C466 0.950 . S
H461 C467 0.957 . S
H462 C468 0.949 . S
C463 H458 0.950 . S
C463 C465 1.327 . S
C463 C469 1.429 . S
C464 C456 1.574 . S
C464 H459 0.949 . S
C464 C470 1.368 . S
C465 C449 1.349 . S
C465 H457 0.950 1_655 S
C465 C463 1.327 . S
C466 C454 1.349 1_554 S
C466 H460 0.950 . S
C466 C467 1.332 . S
C467 H461 0.957 . S
C467 C466 1.332 . S
C467 C471 1.417 1_554 S
C468 C451 1.574 . S
C468 H462 0.949 . S
C468 C472 1.368 . S
C469 C450 1.429 . S
C469 C463 1.429 . S
C469 C470 1.523 . S
C470 C451 1.368 . S
C470 C464 1.368 . S
C470 C469 1.523 . S
C471 C455 1.429 . S
C471 C467 1.417 1_556 S
C471 C472 1.523 . S
C472 C456 1.368 . S
C472 C468 1.368 . S
C472 C471 1.523 . S
H473 C448 0.950 . S
H474 C450 0.950 . S
H475 C451 0.949 . S
H476 C453 0.950 . S
H477 C455 0.950 . S
C478 C479 1.349 . S
C478 C480 1.327 . S
C478 H503 0.950 . S
C479 C478 1.349 . S
C479 C495 1.349 . S
C480 C478 1.327 . S
C480 C499 1.429 . S
C480 H504 0.950 . S
C481 C498 1.574 . S
C481 C500 1.368 . S
C481 H505 0.949 . S
H482 C486 0.949 . S
C483 C484 1.349 . S
C483 C485 1.327 . S
C483 H506 0.950 . S
C484 C483 1.349 . S
C484 C496 1.349 . S
C485 C483 1.327 . S
C485 C501 1.429 . S
C485 H507 0.950 . S
C486 H482 0.949 . S
C486 C494 1.574 . S
C486 C502 1.368 . S
H487 C495 0.950 . S
H488 C493 0.950 . S
H489 C494 0.949 . S
H490 C496 0.950 . S
H491 C497 0.950 . S
H492 C498 0.949 . S
C493 H488 0.950 . S
C493 C495 1.327 . S
C493 C499 1.429 . S
C494 C486 1.574 . S
C494 H489 0.949 . S
C494 C500 1.368 . S
C495 C479 1.349 . S
C495 H487 0.950 . S
C495 C493 1.327 . S
C496 C484 1.349 . S
C496 H490 0.950 . S
C496 C497 1.327 . S
C497 H491 0.950 . S
C497 C496 1.327 . S
C497 C501 1.429 . S
C498 C481 1.574 . S
C498 H492 0.949 . S
C498 C502 1.368 . S
C499 C480 1.429 . S
C499 C493 1.429 . S
C499 C500 1.523 . S
C500 C481 1.368 . S
C500 C494 1.368 . S
C500 C499 1.523 . S
C501 C485 1.429 . S
C501 C497 1.429 . S
C501 C502 1.523 . S
C502 C486 1.368 . S
C502 C498 1.368 . S
C502 C501 1.523 . S
H503 C478 0.950 . S
H504 C480 0.950 . S
H505 C481 0.949 . S
H506 C483 0.950 . S
H507 C485 0.950 . S
C508 C509 1.349 . S
C508 C510 1.327 . S
C508 H533 0.950 . S
C509 C508 1.349 . S
C509 C525 1.349 . S
C510 C508 1.327 . S
C510 C529 1.429 . S
C510 H534 0.950 . S
C511 C528 1.574 . S
C511 C530 1.368 . S
C511 H535 0.949 . S
H512 C516 0.949 . S
C513 C514 1.349 . S
C513 C515 1.327 . S
C513 H536 0.950 . S
C514 C513 1.349 . S
C514 C526 1.349 . S
C515 C513 1.327 . S
C515 C531 1.429 . S
C515 H537 0.950 . S
C516 H512 0.949 . S
C516 C524 1.574 . S
C516 C532 1.368 . S
H517 C525 0.950 . S
H518 C523 0.950 . S
H519 C524 0.949 . S
H520 C526 0.950 . S
H521 C527 0.950 . S
H522 C528 0.949 . S
C523 H518 0.950 . S
C523 C525 1.327 . S
C523 C529 1.429 . S
C524 C516 1.574 . S
C524 H519 0.949 . S
C524 C530 1.368 . S
C525 C509 1.349 . S
C525 H517 0.950 . S
C525 C523 1.327 . S
C526 C514 1.349 . S
C526 H520 0.950 . S
C526 C527 1.327 . S
C527 H521 0.950 . S
C527 C526 1.327 . S
C527 C531 1.429 . S
C528 C511 1.574 . S
C528 H522 0.949 . S
C528 C532 1.368 . S
C529 C510 1.429 . S
C529 C523 1.429 . S
C529 C530 1.523 . S
C530 C511 1.368 . S
C530 C524 1.368 . S
C530 C529 1.523 . S
C531 C515 1.429 . S
C531 C527 1.429 . S
C531 C532 1.523 . S
C532 C516 1.368 . S
C532 C528 1.368 . S
C532 C531 1.523 . S
H533 C508 0.950 . S
H534 C510 0.950 . S
H535 C511 0.949 . S
H536 C513 0.950 . S
H537 C515 0.950 . S
C538 C539 1.349 . S
C538 C540 1.327 . S
C538 H563 0.950 . S
C539 C538 1.349 . S
C539 C555 1.349 . S
C540 C538 1.327 . S
C540 C559 1.429 . S
C540 H564 0.950 . S
C541 C558 1.574 . S
C541 C560 1.368 . S
C541 H565 0.949 . S
H542 C546 0.949 . S
C543 C544 1.349 . S
C543 C545 1.327 . S
C543 H566 0.950 . S
C544 C543 1.349 . S
C544 C556 1.349 . S
C545 C543 1.327 . S
C545 C561 1.429 . S
C545 H567 0.950 . S
C546 H542 0.949 . S
C546 C554 1.574 . S
C546 C562 1.368 . S
H547 C555 0.950 . S
H548 C553 0.950 . S
H549 C554 0.949 . S
H550 C556 0.950 . S
H551 C557 0.950 . S
H552 C558 0.949 . S
C553 H548 0.950 . S
C553 C555 1.327 . S
C553 C559 1.429 . S
C554 C546 1.574 . S
C554 H549 0.949 . S
C554 C560 1.368 . S
C555 C539 1.349 . S
C555 H547 0.950 . S
C555 C553 1.327 . S
C556 C544 1.349 . S
C556 H550 0.950 . S
C556 C557 1.327 . S
C557 H551 0.950 . S
C557 C556 1.327 . S
C557 C561 1.429 . S
C558 C541 1.574 . S
C558 H552 0.949 . S
C558 C562 1.368 . S
C559 C540 1.429 . S
C559 C553 1.429 . S
C559 C560 1.523 . S
C560 C541 1.368 . S
C560 C554 1.368 . S
C560 C559 1.523 . S
C561 C545 1.429 . S
C561 C557 1.429 . S
C561 C562 1.523 . S
C562 C546 1.368 . S
C562 C558 1.368 . S
C562 C561 1.523 . S
H563 C538 0.950 . S
H564 C540 0.950 . S
H565 C541 0.949 . S
H566 C543 0.950 . S
H567 C545 0.950 . S
C568 C569 1.349 . S
C568 C570 1.327 . S
C568 H593 0.950 1_655 S
C569 C568 1.349 . S
C569 C585 1.349 . S
C570 C568 1.327 . S
C570 C589 1.429 . S
C570 H594 0.950 . S
C571 C588 1.574 . S
C571 C590 1.368 . S
C571 H595 0.949 . S
H572 C576 0.949 . S
C573 C574 1.349 . S
C573 C575 1.327 . S
C573 H596 0.950 . S
C574 C573 1.349 . S
C574 C586 1.349 . S
C575 C573 1.327 . S
C575 C591 1.429 . S
C575 H597 0.950 . S
C576 H572 0.949 . S
C576 C584 1.574 . S
C576 C592 1.368 . S
H577 C585 0.950 . S
H578 C583 0.950 . S
H579 C584 0.949 . S
H580 C586 0.950 . S
H581 C587 0.950 . S
H582 C588 0.949 . S
C583 H578 0.950 . S
C583 C585 1.327 . S
C583 C589 1.429 . S
C584 C576 1.574 . S
C584 H579 0.949 . S
C584 C590 1.368 . S
C585 C569 1.349 . S
C585 H577 0.950 . S
C585 C583 1.327 . S
C586 C574 1.349 . S
C586 H580 0.950 . S
C586 C587 1.327 . S
C587 H581 0.950 . S
C587 C586 1.327 . S
C587 C591 1.429 . S
C588 C571 1.574 . S
C588 H582 0.949 . S
C588 C592 1.368 . S
C589 C570 1.429 . S
C589 C583 1.429 . S
C589 C590 1.523 . S
C590 C571 1.368 . S
C590 C584 1.368 . S
C590 C589 1.523 . S
C591 C575 1.429 . S
C591 C587 1.429 . S
C591 C592 1.523 . S
C592 C576 1.368 . S
C592 C588 1.368 . S
C592 C591 1.523 . S
H593 C568 0.950 1_455 S
H594 C570 0.950 . S
H595 C571 0.949 . S
H596 C573 0.950 . S
H597 C575 0.950 . S
C598 C599 1.349 . S
C598 C600 1.327 . S
C598 H623 0.950 . S
C599 C598 1.349 . S
C599 C615 1.349 . S
C600 C598 1.327 . S
C600 C619 1.429 . S
C600 H624 0.950 . S
C601 C618 1.574 . S
C601 C620 1.368 . S
C601 H625 0.949 . S
H602 C606 0.949 1_554 S
C603 C604 1.349 . S
C603 C605 1.327 . S
C603 H626 0.950 . S
C604 C603 1.349 . S
C604 C616 1.349 1_556 S
C605 C603 1.327 . S
C605 C621 1.429 . S
C605 H627 0.950 . S
C606 H602 0.949 1_556 S
C606 C614 1.574 . S
C606 C622 1.368 . S
H607 C615 0.950 . S
H608 C613 0.950 . S
H609 C614 0.949 1_554 S
H610 C616 0.950 . S
H611 C617 0.950 . S
H612 C618 0.949 . S
C613 H608 0.950 . S
C613 C615 1.327 . S
C613 C619 1.429 . S
C614 C606 1.574 . S
C614 H609 0.949 1_556 S
C614 C620 1.368 . S
C615 C599 1.349 . S
C615 H607 0.950 . S
C615 C613 1.327 . S
C616 C604 1.349 1_554 S
C616 H610 0.950 . S
C616 C617 1.327 . S
C617 H611 0.950 . S
C617 C616 1.327 . S
C617 C621 1.429 1_554 S
C618 C601 1.574 . S
C618 H612 0.949 . S
C618 C622 1.368 . S
C619 C600 1.429 . S
C619 C613 1.429 . S
C619 C620 1.523 . S
C620 C601 1.368 . S
C620 C614 1.368 . S
C620 C619 1.523 . S
C621 C605 1.429 . S
C621 C617 1.429 1_556 S
C621 C622 1.523 . S
C622 C606 1.368 . S
C622 C618 1.368 . S
C622 C621 1.523 . S
H623 C598 0.950 . S
H624 C600 0.950 . S
H625 C601 0.949 . S
H626 C603 0.950 . S
H627 C605 0.950 . S
C628 C629 1.349 . S
C628 C630 1.327 . S
C628 H653 0.950 . S
C629 C628 1.349 . S
C629 C645 1.349 . S
C630 C628 1.327 . S
C630 C649 1.429 . S
C630 H654 0.950 . S
C631 C648 1.574 . S
C631 C650 1.368 . S
C631 H655 0.949 . S
H632 C636 0.949 . S
C633 C634 1.349 . S
C633 C635 1.327 . S
C633 H656 0.950 . S
C634 C633 1.349 . S
C634 C646 1.349 . S
C635 C633 1.327 . S
C635 C651 1.429 . S
C635 H657 0.950 . S
C636 H632 0.949 . S
C636 C644 1.574 . S
C636 C652 1.368 . S
H637 C645 0.950 . S
H638 C643 0.950 . S
H639 C644 0.949 . S
H640 C646 0.950 . S
H641 C647 0.950 . S
H642 C648 0.949 . S
C643 H638 0.950 . S
C643 C645 1.327 . S
C643 C649 1.429 . S
C644 C636 1.574 . S
C644 H639 0.949 . S
C644 C650 1.368 . S
C645 C629 1.349 . S
C645 H637 0.950 . S
C645 C643 1.327 . S
C646 C634 1.349 . S
C646 H640 0.950 . S
C646 C647 1.327 . S
C647 H641 0.950 . S
C647 C646 1.327 . S
C647 C651 1.429 . S
C648 C631 1.574 . S
C648 H642 0.949 . S
C648 C652 1.368 . S
C649 C630 1.429 . S
C649 C643 1.429 . S
C649 C650 1.523 . S
C650 C631 1.368 . S
C650 C644 1.368 . S
C650 C649 1.523 . S
C651 C635 1.429 . S
C651 C647 1.429 . S
C651 C652 1.523 . S
C652 C636 1.368 . S
C652 C648 1.368 . S
C652 C651 1.523 . S
H653 C628 0.950 . S
H654 C630 0.950 . S
H655 C631 0.949 . S
H656 C633 0.950 . S
H657 C635 0.950 . S
C658 C659 1.349 . S
C658 C660 1.327 . S
C658 H683 0.950 . S
C659 C658 1.349 . S
C659 C675 1.349 . S
C660 C658 1.327 . S
C660 C679 1.429 . S
C660 H684 0.950 . S
C661 C678 1.574 . S
C661 C680 1.368 . S
C661 H685 0.949 . S
H662 C666 0.949 . S
C663 C664 1.349 . S
C663 C665 1.327 . S
C663 H686 0.950 . S
C664 C663 1.349 . S
C664 C676 1.349 . S
C665 C663 1.327 . S
C665 C681 1.429 . S
C665 H687 0.950 . S
C666 H662 0.949 . S
C666 C674 1.574 . S
C666 C682 1.368 . S
H667 C675 0.950 . S
H668 C673 0.950 . S
H669 C674 0.949 . S
H670 C676 0.950 . S
H671 C677 0.950 . S
H672 C678 0.949 . S
C673 H668 0.950 . S
C673 C675 1.327 . S
C673 C679 1.429 . S
C674 C666 1.574 . S
C674 H669 0.949 . S
C674 C680 1.368 . S
C675 C659 1.349 . S
C675 H667 0.950 . S
C675 C673 1.327 . S
C676 C664 1.349 . S
C676 H670 0.950 . S
C676 C677 1.327 . S
C677 H671 0.950 . S
C677 C676 1.327 . S
C677 C681 1.429 . S
C678 C661 1.574 . S
C678 H672 0.949 . S
C678 C682 1.368 . S
C679 C660 1.429 . S
C679 C673 1.429 . S
C679 C680 1.523 . S
C680 C661 1.368 . S
C680 C674 1.368 . S
C680 C679 1.523 . S
C681 C665 1.429 . S
C681 C677 1.429 . S
C681 C682 1.523 . S
C682 C666 1.368 . S
C682 C678 1.368 . S
C682 C681 1.523 . S
H683 C658 0.950 . S
H684 C660 0.950 . S
H685 C661 0.949 . S
H686 C663 0.950 . S
H687 C665 0.950 . S
C688 C689 1.349 . S
C688 C690 1.327 . S
C688 H713 0.950 . S
C689 C688 1.349 . S
C689 C705 1.349 . S
C690 C688 1.327 . S
C690 C709 1.429 . S
C690 H714 0.950 . S
C691 C708 1.574 . S
C691 C710 1.368 . S
C691 H715 0.949 . S
H692 C696 0.949 . S
C693 C694 1.349 . S
C693 C695 1.327 . S
C693 H716 0.950 . S
C694 C693 1.349 . S
C694 C706 1.349 . S
C695 C693 1.327 . S
C695 C711 1.440 . S
C695 H717 0.950 . S
C696 H692 0.949 . S
C696 C704 1.574 . S
C696 C712 1.368 . S
H697 C705 0.950 . S
H698 C703 0.950 . S
H699 C704 0.949 . S
H700 C706 0.950 . S
H701 C707 0.950 1_554 S
H702 C708 0.949 . S
C703 H698 0.950 . S
C703 C705 1.327 . S
C703 C709 1.429 . S
C704 C696 1.574 . S
C704 H699 0.949 . S
C704 C710 1.368 . S
C705 C689 1.349 . S
C705 H697 0.950 . S
C705 C703 1.327 . S
C706 C694 1.349 . S
C706 H700 0.950 . S
C706 C707 1.327 . S
C707 H701 0.950 1_556 S
C707 C706 1.327 . S
C707 C711 1.430 . S
C708 C691 1.574 . S
C708 H702 0.949 . S
C708 C712 1.368 . S
C709 C690 1.429 . S
C709 C703 1.429 . S
C709 C710 1.523 . S
C710 C691 1.368 . S
C710 C704 1.368 . S
C710 C709 1.523 . S
C711 C695 1.440 . S
C711 C707 1.430 . S
C711 C712 1.511 1_556 S
C712 C696 1.368 . S
C712 C708 1.368 . S
C712 C711 1.511 1_554 S
H713 C688 0.950 . S
H714 C690 0.950 . S
H715 C691 0.949 . S
H716 C693 0.950 . S
H717 C695 0.950 . S
C718 C719 1.349 . S
C718 C720 1.327 . S
C718 H743 0.950 . S
C719 C718 1.349 . S
C719 C735 1.349 . S
C720 C718 1.327 . S
C720 C739 1.429 . S
C720 H744 0.950 . S
C721 C738 1.574 . S
C721 C740 1.368 . S
C721 H745 0.949 . S
H722 C726 0.949 . S
C723 C724 1.349 . S
C723 C725 1.327 . S
C723 H746 0.950 . S
C724 C723 1.349 . S
C724 C736 1.349 . S
C725 C723 1.327 . S
C725 C741 1.429 . S
C725 H747 0.950 . S
C726 H722 0.949 . S
C726 C734 1.574 . S
C726 C742 1.368 . S
H727 C735 0.950 . S
H728 C733 0.950 . S
H729 C734 0.949 . S
H730 C736 0.950 . S
H731 C737 0.950 . S
H732 C738 0.949 . S
C733 H728 0.950 . S
C733 C735 1.327 . S
C733 C739 1.429 . S
C734 C726 1.574 . S
C734 H729 0.949 . S
C734 C740 1.368 . S
C735 C719 1.349 . S
C735 H727 0.950 . S
C735 C733 1.327 . S
C736 C724 1.349 . S
C736 H730 0.950 . S
C736 C737 1.327 . S
C737 H731 0.950 . S
C737 C736 1.327 . S
C737 C741 1.429 . S
C738 C721 1.574 . S
C738 H732 0.949 . S
C738 C742 1.368 . S
C739 C720 1.429 . S
C739 C733 1.429 . S
C739 C740 1.523 . S
C740 C721 1.368 . S
C740 C734 1.368 . S
C740 C739 1.523 . S
C741 C725 1.429 . S
C741 C737 1.429 . S
C741 C742 1.523 . S
C742 C726 1.368 . S
C742 C738 1.368 . S
C742 C741 1.523 . S
H743 C718 0.950 . S
H744 C720 0.950 . S
H745 C721 0.949 . S
H746 C723 0.950 . S
H747 C725 0.950 . S
C748 C749 1.349 . S
C748 C750 1.327 . S
C748 H773 0.950 . S
C749 C748 1.349 . S
C749 C765 1.349 . S
C750 C748 1.327 . S
C750 C769 1.429 . S
C750 H774 0.950 . S
C751 C768 1.574 . S
C751 C770 1.368 . S
C751 H775 0.949 . S
H752 C756 0.949 . S
C753 C754 1.349 . S
C753 C755 1.327 . S
C753 H776 0.950 . S
C754 C753 1.349 . S
C754 C766 1.349 . S
C755 C753 1.327 . S
C755 C771 1.429 . S
C755 H777 0.950 . S
C756 H752 0.949 . S
C756 C764 1.574 . S
C756 C772 1.368 . S
H757 C765 0.950 . S
H758 C763 0.950 . S
H759 C764 0.949 . S
H760 C766 0.950 . S
H761 C767 0.950 . S
H762 C768 0.949 . S
C763 H758 0.950 . S
C763 C765 1.327 . S
C763 C769 1.429 . S
C764 C756 1.574 . S
C764 H759 0.949 . S
C764 C770 1.368 . S
C765 C749 1.349 . S
C765 H757 0.950 . S
C765 C763 1.327 . S
C766 C754 1.349 . S
C766 H760 0.950 . S
C766 C767 1.327 . S
C767 H761 0.950 . S
C767 C766 1.327 . S
C767 C771 1.429 . S
C768 C751 1.574 . S
C768 H762 0.949 . S
C768 C772 1.368 . S
C769 C750 1.429 . S
C769 C763 1.429 . S
C769 C770 1.523 . S
C770 C751 1.368 . S
C770 C764 1.368 . S
C770 C769 1.523 . S
C771 C755 1.429 . S
C771 C767 1.429 . S
C771 C772 1.523 . S
C772 C756 1.368 . S
C772 C768 1.368 . S
C772 C771 1.523 . S
H773 C748 0.950 . S
H774 C750 0.950 . S
H775 C751 0.949 . S
H776 C753 0.950 . S
H777 C755 0.950 . S
C778 C779 1.349 . S
C778 C780 1.327 . S
C778 H803 0.950 . S
C779 C778 1.349 . S
C779 C795 1.349 . S
C780 C778 1.327 . S
C780 C799 1.429 . S
C780 H804 0.950 . S
C781 C798 1.574 . S
C781 C800 1.368 . S
C781 H805 0.949 . S
H782 C786 0.949 . S
C783 C784 1.349 . S
C783 C785 1.327 . S
C783 H806 0.950 . S
C784 C783 1.349 . S
C784 C796 1.349 . S
C785 C783 1.327 . S
C785 C801 1.429 . S
C785 H807 0.950 . S
C786 H782 0.949 . S
C786 C794 1.574 . S
C786 C802 1.368 . S
H787 C795 0.950 . S
H788 C793 0.950 . S
H789 C794 0.949 . S
H790 C796 0.950 . S
H791 C797 0.950 . S
H792 C798 0.949 . S
C793 H788 0.950 . S
C793 C795 1.327 . S
C793 C799 1.429 . S
C794 C786 1.574 . S
C794 H789 0.949 . S
C794 C800 1.368 . S
C795 C779 1.349 . S
C795 H787 0.950 . S
C795 C793 1.327 . S
C796 C784 1.349 . S
C796 H790 0.950 . S
C796 C797 1.327 . S
C797 H791 0.950 . S
C797 C796 1.327 . S
C797 C801 1.429 . S
C798 C781 1.574 . S
C798 H792 0.949 . S
C798 C802 1.368 . S
C799 C780 1.429 . S
C799 C793 1.429 . S
C799 C800 1.523 . S
C800 C781 1.368 . S
C800 C794 1.368 . S
C800 C799 1.523 . S
C801 C785 1.429 . S
C801 C797 1.429 . S
C801 C802 1.523 . S
C802 C786 1.368 . S
C802 C798 1.368 . S
C802 C801 1.523 . S
H803 C778 0.950 . S
H804 C780 0.950 . S
H805 C781 0.949 . S
H806 C783 0.950 . S
H807 C785 0.950 . S
C808 C809 1.349 . S
C808 C810 1.327 . S
C808 H833 0.950 . S
C809 C808 1.349 . S
C809 C825 1.349 . S
C810 C808 1.327 . S
C810 C829 1.429 . S
C810 H834 0.950 . S
C811 C828 1.574 . S
C811 C830 1.368 . S
C811 H835 0.949 . S
H812 C816 0.949 . S
C813 C814 1.349 . S
C813 C815 1.327 . S
C813 H836 0.950 . S
C814 C813 1.349 . S
C814 C826 1.349 . S
C815 C813 1.327 . S
C815 C831 1.429 . S
C815 H837 0.950 . S
C816 H812 0.949 . S
C816 C824 1.574 . S
C816 C832 1.368 . S
H817 C825 0.950 . S
H818 C823 0.950 . S
H819 C824 0.949 . S
H820 C826 0.950 . S
H821 C827 0.950 . S
H822 C828 0.949 . S
C823 H818 0.950 . S
C823 C825 1.327 . S
C823 C829 1.429 . S
C824 C816 1.574 . S
C824 H819 0.949 . S
C824 C830 1.368 . S
C825 C809 1.349 . S
C825 H817 0.950 . S
C825 C823 1.327 . S
C826 C814 1.349 . S
C826 H820 0.950 . S
C826 C827 1.327 . S
C827 H821 0.950 . S
C827 C826 1.327 . S
C827 C831 1.429 . S
C828 C811 1.574 . S
C828 H822 0.949 . S
C828 C832 1.368 . S
C829 C810 1.429 . S
C829 C823 1.429 . S
C829 C830 1.523 . S
C830 C811 1.368 . S
C830 C824 1.368 . S
C830 C829 1.523 . S
C831 C815 1.429 . S
C831 C827 1.429 . S
C831 C832 1.523 . S
C832 C816 1.368 . S
C832 C828 1.368 . S
C832 C831 1.523 . S
H833 C808 0.950 . S
H834 C810 0.950 . S
H835 C811 0.949 . S
H836 C813 0.950 . S
H837 C815 0.950 . S
C838 C839 1.349 . S
C838 C840 1.327 . S
C838 H863 0.950 . S
C839 C838 1.349 . S
C839 C855 1.349 . S
C840 C838 1.327 . S
C840 C859 1.429 . S
C840 H864 0.950 . S
C841 C858 1.574 . S
C841 C860 1.368 . S
C841 H865 0.949 . S
H842 C846 0.949 . S
C843 C844 1.349 . S
C843 C845 1.327 . S
C843 H866 0.950 . S
C844 C843 1.349 . S
C844 C856 1.349 . S
C845 C843 1.327 . S
C845 C861 1.429 . S
C845 H867 0.950 . S
C846 H842 0.949 . S
C846 C854 1.574 . S
C846 C862 1.368 . S
H847 C855 0.950 . S
H848 C853 0.950 . S
H849 C854 0.949 . S
H850 C856 0.950 . S
H851 C857 0.950 . S
H852 C858 0.949 . S
C853 H848 0.950 . S
C853 C855 1.327 . S
C853 C859 1.429 . S
C854 C846 1.574 . S
C854 H849 0.949 . S
C854 C860 1.368 . S
C855 C839 1.349 . S
C855 H847 0.950 . S
C855 C853 1.327 . S
C856 C844 1.349 . S
C856 H850 0.950 . S
C856 C857 1.327 . S
C857 H851 0.950 . S
C857 C856 1.327 . S
C857 C861 1.429 . S
C858 C841 1.574 . S
C858 H852 0.949 . S
C858 C862 1.368 . S
C859 C840 1.429 . S
C859 C853 1.429 . S
C859 C860 1.523 . S
C860 C841 1.368 . S
C860 C854 1.368 . S
C860 C859 1.523 . S
C861 C845 1.429 . S
C861 C857 1.429 . S
C861 C862 1.523 . S
C862 C846 1.368 . S
C862 C858 1.368 . S
C862 C861 1.523 . S
H863 C838 0.950 . S
H864 C840 0.950 . S
H865 C841 0.949 . S
H866 C843 0.950 . S
H867 C845 0.950 . S
C868 C869 1.349 . S
C868 C870 1.327 . S
C868 H893 0.950 . S
C869 C868 1.349 . S
C869 C885 1.349 . S
C870 C868 1.327 . S
C870 C889 1.429 . S
C870 H894 0.950 . S
C871 C888 1.574 . S
C871 C890 1.368 . S
C871 H895 0.949 . S
H872 C876 0.949 . S
C873 C874 1.349 . S
C873 C875 1.327 . S
C873 H896 0.950 . S
C874 C873 1.349 . S
C874 C886 1.349 . S
C875 C873 1.327 . S
C875 C891 1.429 . S
C875 H897 0.950 . S
C876 H872 0.949 . S
C876 C884 1.574 . S
C876 C892 1.368 . S
H877 C885 0.950 . S
H878 C883 0.950 . S
H879 C884 0.949 . S
H880 C886 0.950 . S
H881 C887 0.950 . S
H882 C888 0.949 . S
C883 H878 0.950 . S
C883 C885 1.327 . S
C883 C889 1.429 . S
C884 C876 1.574 . S
C884 H879 0.949 . S
C884 C890 1.368 1_545 S
C885 C869 1.349 . S
C885 H877 0.950 . S
C885 C883 1.327 . S
C886 C874 1.349 . S
C886 H880 0.950 . S
C886 C887 1.327 . S
C887 H881 0.950 . S
C887 C886 1.327 . S
C887 C891 1.429 . S
C888 C871 1.574 . S
C888 H882 0.949 . S
C888 C892 1.368 1_565 S
C889 C870 1.429 . S
C889 C883 1.429 . S
C889 C890 1.523 . S
C890 C871 1.368 . S
C890 C884 1.368 1_565 S
C890 C889 1.523 . S
C891 C875 1.429 . S
C891 C887 1.429 . S
C891 C892 1.523 . S
C892 C876 1.368 . S
C892 C888 1.368 1_545 S
C892 C891 1.523 . S
H893 C868 0.950 . S
H894 C870 0.950 . S
H895 C871 0.949 . S
H896 C873 0.950 . S
H897 C875 0.950 . S
C898 C899 1.349 . S
C898 C900 1.327 1_556 S
C898 H923 0.950 . S
C899 C898 1.349 . S
C899 C915 1.349 . S
C900 C898 1.327 1_554 S
C900 C919 1.426 1_554 S
C900 H924 0.950 . S
C901 C918 1.574 . S
C901 C920 1.368 1_565 S
C901 H925 0.949 1_554 S
H902 C906 0.949 . S
C903 C904 1.349 . S
C903 C905 1.327 . S
C903 H926 0.950 . S
C904 C903 1.349 . S
C904 C916 1.349 . S
C905 C903 1.327 . S
C905 C921 1.429 . S
C905 H927 0.950 . S
C906 H902 0.949 . S
C906 C914 1.574 . S
C906 C922 1.368 1_545 S
H907 C915 0.950 . S
H908 C913 0.950 . S
H909 C914 0.949 . S
H910 C916 0.950 . S
H911 C917 0.950 . S
H912 C918 0.949 . S
C913 H908 0.950 . S
C913 C915 1.327 . S
C913 C919 1.444 . S
C914 C906 1.574 . S
C914 H909 0.949 . S
C914 C920 1.368 . S
C915 C899 1.349 . S
C915 H907 0.950 . S
C915 C913 1.327 . S
C916 C904 1.349 . S
C916 H910 0.950 . S
C916 C917 1.327 . S
C917 H911 0.950 . S
C917 C916 1.327 . S
C917 C921 1.429 . S
C918 C901 1.574 . S
C918 H912 0.949 . S
C918 C922 1.368 . S
C919 C900 1.426 1_556 S
C919 C913 1.444 . S
C919 C920 1.511 1_556 S
C920 C901 1.368 1_545 S
C920 C914 1.368 . S
C920 C919 1.511 1_554 S
C921 C905 1.429 . S
C921 C917 1.429 . S
C921 C922 1.523 . S
C922 C906 1.368 1_565 S
C922 C918 1.368 . S
C922 C921 1.523 . S
H923 C898 0.950 . S
H924 C900 0.950 . S
H925 C901 0.949 1_556 S
H926 C903 0.950 . S
H927 C905 0.950 . S
C928 C929 1.349 . S
C928 C930 1.327 . S
C928 H953 0.950 . S
C929 C928 1.349 . S
C929 C945 1.349 . S
C930 C928 1.327 . S
C930 C949 1.429 . S
C930 H954 0.950 . S
C931 C948 1.574 . S
C931 C950 1.368 . S
C931 H955 0.949 . S
H932 C936 0.949 . S
C933 C934 1.349 . S
C933 C935 1.327 . S
C933 H956 0.950 . S
C934 C933 1.349 . S
C934 C946 1.349 . S
C935 C933 1.327 . S
C935 C951 1.429 . S
C935 H957 0.950 . S
C936 H932 0.949 . S
C936 C944 1.574 . S
C936 C952 1.368 . S
H937 C945 0.950 . S
H938 C943 0.950 . S
H939 C944 0.949 . S
H940 C946 0.950 . S
H941 C947 0.950 . S
H942 C948 0.949 . S
C943 H938 0.950 . S
C943 C945 1.327 . S
C943 C949 1.429 . S
C944 C936 1.574 . S
C944 H939 0.949 . S
C944 C950 1.368 . S
C945 C929 1.349 . S
C945 H937 0.950 . S
C945 C943 1.327 . S
C946 C934 1.349 . S
C946 H940 0.950 . S
C946 C947 1.327 . S
C947 H941 0.950 . S
C947 C946 1.327 . S
C947 C951 1.429 . S
C948 C931 1.574 . S
C948 H942 0.949 . S
C948 C952 1.368 . S
C949 C930 1.429 . S
C949 C943 1.429 . S
C949 C950 1.523 . S
C950 C931 1.368 . S
C950 C944 1.368 . S
C950 C949 1.523 . S
C951 C935 1.429 . S
C951 C947 1.429 . S
C951 C952 1.523 . S
C952 C936 1.368 . S
C952 C948 1.368 . S
C952 C951 1.523 . S
H953 C928 0.950 . S
H954 C930 0.950 . S
H955 C931 0.949 . S
H956 C933 0.950 . S
H957 C935 0.950 . S
C958 C959 1.349 . S
C958 C960 1.327 . S
C958 H983 0.950 . S
C959 C958 1.349 . S
C959 C975 1.349 . S
C960 C958 1.327 . S
C960 C979 1.429 . S
C960 H984 0.950 . S
C961 C978 1.574 . S
C961 C980 1.368 . S
C961 H985 0.949 . S
H962 C966 0.949 . S
C963 C964 1.349 . S
C963 C965 1.327 . S
C963 H986 0.950 . S
C964 C963 1.349 . S
C964 C976 1.349 . S
C965 C963 1.327 . S
C965 C981 1.429 . S
C965 H987 0.950 . S
C966 H962 0.949 . S
C966 C974 1.574 . S
C966 C982 1.368 . S
H967 C975 0.950 . S
H968 C973 0.950 . S
H969 C974 0.949 . S
H970 C976 0.950 . S
H971 C977 0.950 . S
H972 C978 0.949 . S
C973 H968 0.950 . S
C973 C975 1.327 . S
C973 C979 1.429 . S
C974 C966 1.574 . S
C974 H969 0.949 . S
C974 C980 1.368 . S
C975 C959 1.349 . S
C975 H967 0.950 . S
C975 C973 1.327 . S
C976 C964 1.349 . S
C976 H970 0.950 . S
C976 C977 1.327 . S
C977 H971 0.950 . S
C977 C976 1.327 . S
C977 C981 1.429 . S
C978 C961 1.574 . S
C978 H972 0.949 . S
C978 C982 1.368 . S
C979 C960 1.429 . S
C979 C973 1.429 . S
C979 C980 1.523 . S
C980 C961 1.368 . S
C980 C974 1.368 . S
C980 C979 1.523 . S
C981 C965 1.429 . S
C981 C977 1.429 . S
C981 C982 1.523 . S
C982 C966 1.368 . S
C982 C978 1.368 . S
C982 C981 1.523 . S
H983 C958 0.950 . S
H984 C960 0.950 . S
H985 C961 0.949 . S
H986 C963 0.950 . S
H987 C965 0.950 . S
C988 C989 1.349 . S
C988 C990 1.327 . S
C988 H1013 0.950 . S
C989 C988 1.349 . S
C989 C1005 1.349 . S
C990 C988 1.327 . S
C990 C1009 1.429 . S
C990 H1014 0.950 . S
C991 C1008 1.574 . S
C991 C1010 1.368 . S
C991 H1015 0.949 . S
H992 C996 0.949 1_556 S
C993 C994 1.349 . S
C993 C995 1.327 . S
C993 H1016 0.950 . S
C994 C993 1.349 . S
C994 C1006 1.349 . S
C995 C993 1.327 . S
C995 C1011 1.429 . S
C995 H1017 0.950 1_556 S
C996 H992 0.949 1_554 S
C996 C1004 1.574 . S
C996 C1012 1.368 . S
H997 C1005 0.950 . S
H998 C1003 0.950 . S
H999 C1004 0.949 . S
H1000 C1006 0.950 . S
H1001 C1007 0.950 . S
H1002 C1008 0.949 . S
C1003 H998 0.950 . S
C1003 C1005 1.327 . S
C1003 C1009 1.429 . S
C1004 C996 1.574 . S
C1004 H999 0.949 . S
C1004 C1010 1.368 . S
C1005 C989 1.349 . S
C1005 H997 0.950 . S
C1005 C1003 1.327 . S
C1006 C994 1.349 . S
C1006 H1000 0.950 . S
C1006 C1007 1.327 . S
C1007 H1001 0.950 . S
C1007 C1006 1.327 . S
C1007 C1011 1.429 . S
C1008 C991 1.574 . S
C1008 H1002 0.949 . S
C1008 C1012 1.368 . S
C1009 C990 1.429 . S
C1009 C1003 1.429 . S
C1009 C1010 1.523 . S
C1010 C991 1.368 . S
C1010 C1004 1.368 . S
C1010 C1009 1.523 . S
C1011 C995 1.429 . S
C1011 C1007 1.429 . S
C1011 C1012 1.523 1_556 S
C1012 C996 1.368 . S
C1012 C1008 1.368 . S
C1012 C1011 1.523 1_554 S
H1013 C988 0.950 . S
H1014 C990 0.950 . S
H1015 C991 0.949 . S
H1016 C993 0.950 . S
H1017 C995 0.950 1_554 S
C1018 C1019 1.349 . S
C1018 C1020 1.327 . S
C1018 H1043 0.950 . S
C1019 C1018 1.349 . S
C1019 C1035 1.349 . S
C1020 C1018 1.327 . S
C1020 C1039 1.429 . S
C1020 H1044 0.950 . S
C1021 C1038 1.574 . S
C1021 C1040 1.368 . S
C1021 H1045 0.949 . S
H1022 C1026 0.949 . S
C1023 C1024 1.349 . S
C1023 C1025 1.327 . S
C1023 H1046 0.950 . S
C1024 C1023 1.349 . S
C1024 C1036 1.349 . S
C1025 C1023 1.327 . S
C1025 C1041 1.429 . S
C1025 H1047 0.950 . S
C1026 H1022 0.949 . S
C1026 C1034 1.574 . S
C1026 C1042 1.368 . S
H1027 C1035 0.950 . S
H1028 C1033 0.950 . S
H1029 C1034 0.949 . S
H1030 C1036 0.950 . S
H1031 C1037 0.950 . S
H1032 C1038 0.949 . S
C1033 H1028 0.950 . S
C1033 C1035 1.327 . S
C1033 C1039 1.429 . S
C1034 C1026 1.574 . S
C1034 H1029 0.949 . S
C1034 C1040 1.368 . S
C1035 C1019 1.349 . S
C1035 H1027 0.950 . S
C1035 C1033 1.327 . S
C1036 C1024 1.349 . S
C1036 H1030 0.950 . S
C1036 C1037 1.327 . S
C1037 H1031 0.950 . S
C1037 C1036 1.327 . S
C1037 C1041 1.429 . S
C1038 C1021 1.574 . S
C1038 H1032 0.949 . S
C1038 C1042 1.368 . S
C1039 C1020 1.429 . S
C1039 C1033 1.429 . S
C1039 C1040 1.523 . S
C1040 C1021 1.368 . S
C1040 C1034 1.368 . S
C1040 C1039 1.523 . S
C1041 C1025 1.429 . S
C1041 C1037 1.429 . S
C1041 C1042 1.523 . S
C1042 C1026 1.368 . S
C1042 C1038 1.368 . S
C1042 C1041 1.523 . S
H1043 C1018 0.950 . S
H1044 C1020 0.950 . S
H1045 C1021 0.949 . S
H1046 C1023 0.950 . S
H1047 C1025 0.950 . S
C1048 C1049 1.349 . S
C1048 C1050 1.327 . S
C1048 H1073 0.950 . S
C1049 C1048 1.349 . S
C1049 C1065 1.349 . S
C1050 C1048 1.327 . S
C1050 C1069 1.429 . S
C1050 H1074 0.950 . S
C1051 C1068 1.574 . S
C1051 C1070 1.368 . S
C1051 H1075 0.949 . S
H1052 C1056 0.949 . S
C1053 C1054 1.349 . S
C1053 C1055 1.327 . S
C1053 H1076 0.950 . S
C1054 C1053 1.349 . S
C1054 C1066 1.349 . S
C1055 C1053 1.327 . S
C1055 C1071 1.429 . S
C1055 H1077 0.950 . S
C1056 H1052 0.949 . S
C1056 C1064 1.574 . S
C1056 C1072 1.368 . S
H1057 C1065 0.950 . S
H1058 C1063 0.950 . S
H1059 C1064 0.949 . S
H1060 C1066 0.950 . S
H1061 C1067 0.950 . S
H1062 C1068 0.949 . S
C1063 H1058 0.950 . S
C1063 C1065 1.327 . S
C1063 C1069 1.429 . S
C1064 C1056 1.574 . S
C1064 H1059 0.949 . S
C1064 C1070 1.368 . S
C1065 C1049 1.349 . S
C1065 H1057 0.950 . S
C1065 C1063 1.327 . S
C1066 C1054 1.349 . S
C1066 H1060 0.950 . S
C1066 C1067 1.327 . S
C1067 H1061 0.950 . S
C1067 C1066 1.327 . S
C1067 C1071 1.429 . S
C1068 C1051 1.574 . S
C1068 H1062 0.949 . S
C1068 C1072 1.368 . S
C1069 C1050 1.429 . S
C1069 C1063 1.429 . S
C1069 C1070 1.523 . S
C1070 C1051 1.368 . S
C1070 C1064 1.368 . S
C1070 C1069 1.523 . S
C1071 C1055 1.429 . S
C1071 C1067 1.429 . S
C1071 C1072 1.523 . S
C1072 C1056 1.368 . S
C1072 C1068 1.368 . S
C1072 C1071 1.523 . S
H1073 C1048 0.950 . S
H1074 C1050 0.950 . S
H1075 C1051 0.949 . S
H1076 C1053 0.950 . S
H1077 C1055 0.950 . S
C1078 C1079 1.349 . S
C1078 C1080 1.327 . S
C1078 H1103 0.950 . S
C1079 C1078 1.349 . S
C1079 C1095 1.349 . S
C1080 C1078 1.327 . S
C1080 C1099 1.429 . S
C1080 H1104 0.950 . S
C1081 C1098 1.574 . S
C1081 C1100 1.368 . S
C1081 H1105 0.949 . S
H1082 C1086 0.949 . S
C1083 C1084 1.349 . S
C1083 C1085 1.327 . S
C1083 H1106 0.950 . S
C1084 C1083 1.349 . S
C1084 C1096 1.349 . S
C1085 C1083 1.327 . S
C1085 C1101 1.429 . S
C1085 H1107 0.950 . S
C1086 H1082 0.949 . S
C1086 C1094 1.574 . S
C1086 C1102 1.368 . S
H1087 C1095 0.950 . S
H1088 C1093 0.950 . S
H1089 C1094 0.949 . S
H1090 C1096 0.950 . S
H1091 C1097 0.950 . S
H1092 C1098 0.949 . S
C1093 H1088 0.950 . S
C1093 C1095 1.327 . S
C1093 C1099 1.429 . S
C1094 C1086 1.574 . S
C1094 H1089 0.949 . S
C1094 C1100 1.368 . S
C1095 C1079 1.349 . S
C1095 H1087 0.950 . S
C1095 C1093 1.327 . S
C1096 C1084 1.349 . S
C1096 H1090 0.950 . S
C1096 C1097 1.327 . S
C1097 H1091 0.950 . S
C1097 C1096 1.327 . S
C1097 C1101 1.429 . S
C1098 C1081 1.574 . S
C1098 H1092 0.949 . S
C1098 C1102 1.368 . S
C1099 C1080 1.429 . S
C1099 C1093 1.429 . S
C1099 C1100 1.523 . S
C1100 C1081 1.368 . S
C1100 C1094 1.368 . S
C1100 C1099 1.523 . S
C1101 C1085 1.429 . S
C1101 C1097 1.429 . S
C1101 C1102 1.523 . S
C1102 C1086 1.368 . S
C1102 C1098 1.368 . S
C1102 C1101 1.523 . S
H1103 C1078 0.950 . S
H1104 C1080 0.950 . S
H1105 C1081 0.949 . S
H1106 C1083 0.950 . S
H1107 C1085 0.950 . S
C1108 C1109 1.349 . S
C1108 C1110 1.327 . S
C1108 H1133 0.950 . S
C1109 C1108 1.349 . S
C1109 C1125 1.349 . S
C1110 C1108 1.327 . S
C1110 C1129 1.429 . S
C1110 H1134 0.950 . S
C1111 C1128 1.574 . S
C1111 C1130 1.368 . S
C1111 H1135 0.949 . S
H1112 C1116 0.949 . S
C1113 C1114 1.349 . S
C1113 C1115 1.327 . S
C1113 H1136 0.950 . S
C1114 C1113 1.349 . S
C1114 C1126 1.349 . S
C1115 C1113 1.327 . S
C1115 C1131 1.429 . S
C1115 H1137 0.950 . S
C1116 H1112 0.949 . S
C1116 C1124 1.574 . S
C1116 C1132 1.368 . S
H1117 C1125 0.950 . S
H1118 C1123 0.950 . S
H1119 C1124 0.949 . S
H1120 C1126 0.950 . S
H1121 C1127 0.950 1_554 S
H1122 C1128 0.949 . S
C1123 H1118 0.950 . S
C1123 C1125 1.327 . S
C1123 C1129 1.429 . S
C1124 C1116 1.574 . S
C1124 H1119 0.949 . S
C1124 C1130 1.368 1_545 S
C1125 C1109 1.349 . S
C1125 H1117 0.950 . S
C1125 C1123 1.327 . S
C1126 C1114 1.349 . S
C1126 H1120 0.950 . S
C1126 C1127 1.327 . S
C1127 H1121 0.950 1_556 S
C1127 C1126 1.327 . S
C1127 C1131 1.429 . S
C1128 C1111 1.574 . S
C1128 H1122 0.949 . S
C1128 C1132 1.368 1_565 S
C1129 C1110 1.429 . S
C1129 C1123 1.429 . S
C1129 C1130 1.523 . S
C1130 C1111 1.368 . S
C1130 C1124 1.368 1_565 S
C1130 C1129 1.523 . S
C1131 C1115 1.429 . S
C1131 C1127 1.429 . S
C1131 C1132 1.523 1_556 S
C1132 C1116 1.368 . S
C1132 C1128 1.368 1_545 S
C1132 C1131 1.523 1_554 S
H1133 C1108 0.950 . S
H1134 C1110 0.950 . S
H1135 C1111 0.949 . S
H1136 C1113 0.950 . S
H1137 C1115 0.950 . S
C1138 C1139 1.349 . S
C1138 C1140 1.327 . S
C1138 H1163 0.950 . S
C1139 C1138 1.349 . S
C1139 C1155 1.349 . S
C1140 C1138 1.327 . S
C1140 C1159 1.429 . S
C1140 H1164 0.950 . S
C1141 C1158 1.574 . S
C1141 C1160 1.368 1_565 S
C1141 H1165 0.949 . S
H1142 C1146 0.949 . S
C1143 C1144 1.349 . S
C1143 C1145 1.327 . S
C1143 H1166 0.950 . S
C1144 C1143 1.349 . S
C1144 C1156 1.349 . S
C1145 C1143 1.327 . S
C1145 C1161 1.429 . S
C1145 H1167 0.950 . S
C1146 H1142 0.949 . S
C1146 C1154 1.574 . S
C1146 C1162 1.368 1_545 S
H1147 C1155 0.950 . S
H1148 C1153 0.950 . S
H1149 C1154 0.949 . S
H1150 C1156 0.950 . S
H1151 C1157 0.950 . S
H1152 C1158 0.949 . S
C1153 H1148 0.950 . S
C1153 C1155 1.327 . S
C1153 C1159 1.429 . S
C1154 C1146 1.574 . S
C1154 H1149 0.949 . S
C1154 C1160 1.368 . S
C1155 C1139 1.349 . S
C1155 H1147 0.950 . S
C1155 C1153 1.327 . S
C1156 C1144 1.349 . S
C1156 H1150 0.950 . S
C1156 C1157 1.327 . S
C1157 H1151 0.950 . S
C1157 C1156 1.327 . S
C1157 C1161 1.429 . S
C1158 C1141 1.574 . S
C1158 H1152 0.949 . S
C1158 C1162 1.368 . S
C1159 C1140 1.429 . S
C1159 C1153 1.429 . S
C1159 C1160 1.523 . S
C1160 C1141 1.368 1_545 S
C1160 C1154 1.368 . S
C1160 C1159 1.523 . S
C1161 C1145 1.429 . S
C1161 C1157 1.429 . S
C1161 C1162 1.523 . S
C1162 C1146 1.368 1_565 S
C1162 C1158 1.368 . S
C1162 C1161 1.523 . S
H1163 C1138 0.950 . S
H1164 C1140 0.950 . S
H1165 C1141 0.949 . S
H1166 C1143 0.950 . S
H1167 C1145 0.950 . S
C209 C127 1.386 . S
C214 C10 1.386 . S
C239 C192 1.386 . S
C244 C23 1.386 . S
C269 C36 1.386 . S
C274 C114 1.386 . S
C299 C49 1.386 . S
C304 C205 1.390 1_655 S
C329 C62 1.386 . S
C334 C140 1.386 . S
C359 C179 1.388 1_655 S
C364 C75 1.386 . S
C389 C153 1.386 . S
C394 C88 1.386 . S
C419 C101 1.386 . S
C424 C166 1.386 . S
C449 C57 1.409 1_655 S
C454 C44 1.409 . S
C479 C161 1.410 . S
C484 C109 1.410 . S
C509 C83 1.409 . S
C514 C18 1.409 . S
C539 C122 1.410 . S
C544 C174 1.410 . S
C569 C5 1.410 1_655 S
C574 C70 1.410 . S
C599 C200 1.410 . S
C604 C135 1.409 . S
C629 C96 1.410 . S
C634 C31 1.410 . S
C659 C148 1.409 . S
C664 C187 1.409 . S
C689 C8 0.298 . S
C694 C60 0.298 . S
C719 C73 0.298 . S
C724 C21 0.298 . S
C749 C86 0.298 . S
C754 C34 0.298 . S
C779 C47 0.298 . S
C784 C99 0.298 . S
C809 C138 0.298 . S
C814 C112 0.298 . S
C839 C151 0.298 . S
C844 C125 0.298 . S
C869 C190 0.298 . S
C874 C164 0.298 . S
C899 C203 0.298 . S
C904 C177 0.298 . S
C929 C52 1.754 . S
C934 C0 1.754 . S
C959 C65 1.754 1_556 S
C964 C13 1.754 . S
C989 C78 1.754 . S
C994 C26 1.754 . S
C1019 C39 1.754 . S
C1024 C91 1.754 . S
C1049 C104 1.754 . S
C1054 C130 1.754 . S
C1079 C143 1.754 . S
C1084 C117 1.754 1_556 S
C1109 C182 1.754 . S
C1114 C156 1.754 . S
C1139 C195 1.754 . S
C1144 C169 1.754 . S
