# Generated by pormake.
# Topology gme, (4)-cn, num edge types: 1
# Building blocks:
#     Node 0, Type 0, BuildingBlock: UXUYUI_clean_sbu_0, # of connection points: 4
#     Node 1, Type 0, BuildingBlock: UXUYUI_clean_sbu_0, # of connection points: 4
#     Node 2, Type 0, BuildingBlock: UXUYUI_clean_sbu_0, # of connection points: 4
#     Node 3, Type 0, BuildingBlock: UXUYUI_clean_sbu_0, # of connection points: 4
#     Node 4, Type 0, BuildingBlock: UXUYUI_clean_sbu_0, # of connection points: 4
#     Node 5, Type 0, BuildingBlock: UXUYUI_clean_sbu_0, # of connection points: 4
#     Node 6, Type 0, BuildingBlock: UXUYUI_clean_sbu_0, # of connection points: 4
#     Node 7, Type 0, BuildingBlock: UXUYUI_clean_sbu_0, # of connection points: 4
#     Node 8, Type 0, BuildingBlock: UXUYUI_clean_sbu_0, # of connection points: 4
#     Node 9, Type 0, BuildingBlock: UXUYUI_clean_sbu_0, # of connection points: 4
#     Node 10, Type 0, BuildingBlock: UXUYUI_clean_sbu_0, # of connection points: 4
#     Node 11, Type 0, BuildingBlock: UXUYUI_clean_sbu_0, # of connection points: 4
#     Node 12, Type 0, BuildingBlock: UXUYUI_clean_sbu_0, # of connection points: 4
#     Node 13, Type 0, BuildingBlock: UXUYUI_clean_sbu_0, # of connection points: 4
#     Node 14, Type 0, BuildingBlock: UXUYUI_clean_sbu_0, # of connection points: 4
#     Node 15, Type 0, BuildingBlock: UXUYUI_clean_sbu_0, # of connection points: 4
#     Node 16, Type 0, BuildingBlock: UXUYUI_clean_sbu_0, # of connection points: 4
#     Node 17, Type 0, BuildingBlock: UXUYUI_clean_sbu_0, # of connection points: 4
#     Node 18, Type 0, BuildingBlock: UXUYUI_clean_sbu_0, # of connection points: 4
#     Node 19, Type 0, BuildingBlock: UXUYUI_clean_sbu_0, # of connection points: 4
#     Node 20, Type 0, BuildingBlock: UXUYUI_clean_sbu_0, # of connection points: 4
#     Node 21, Type 0, BuildingBlock: UXUYUI_clean_sbu_0, # of connection points: 4
#     Node 22, Type 0, BuildingBlock: UXUYUI_clean_sbu_0, # of connection points: 4
#     Node 23, Type 0, BuildingBlock: UXUYUI_clean_sbu_0, # of connection points: 4
#     Edge 24, Type (0, 0), BuildingBlock: UVAHIK_clean_linker_0, # of connection points: 2
#     Edge 25, Type (0, 0), BuildingBlock: UVAHIK_clean_linker_0, # of connection points: 2
#     Edge 26, Type (0, 0), BuildingBlock: UVAHIK_clean_linker_0, # of connection points: 2
#     Edge 27, Type (0, 0), BuildingBlock: UVAHIK_clean_linker_0, # of connection points: 2
#     Edge 28, Type (0, 0), BuildingBlock: UVAHIK_clean_linker_0, # of connection points: 2
#     Edge 29, Type (0, 0), BuildingBlock: UVAHIK_clean_linker_0, # of connection points: 2
#     Edge 30, Type (0, 0), BuildingBlock: UVAHIK_clean_linker_0, # of connection points: 2
#     Edge 31, Type (0, 0), BuildingBlock: UVAHIK_clean_linker_0, # of connection points: 2
#     Edge 32, Type (0, 0), BuildingBlock: UVAHIK_clean_linker_0, # of connection points: 2
#     Edge 33, Type (0, 0), BuildingBlock: UVAHIK_clean_linker_0, # of connection points: 2
#     Edge 34, Type (0, 0), BuildingBlock: UVAHIK_clean_linker_0, # of connection points: 2
#     Edge 35, Type (0, 0), BuildingBlock: UVAHIK_clean_linker_0, # of connection points: 2
#     Edge 36, Type (0, 0), BuildingBlock: UVAHIK_clean_linker_0, # of connection points: 2
#     Edge 37, Type (0, 0), BuildingBlock: UVAHIK_clean_linker_0, # of connection points: 2
#     Edge 38, Type (0, 0), BuildingBlock: UVAHIK_clean_linker_0, # of connection points: 2
#     Edge 39, Type (0, 0), BuildingBlock: UVAHIK_clean_linker_0, # of connection points: 2
#     Edge 40, Type (0, 0), BuildingBlock: UVAHIK_clean_linker_0, # of connection points: 2
#     Edge 41, Type (0, 0), BuildingBlock: UVAHIK_clean_linker_0, # of connection points: 2
#     Edge 42, Type (0, 0), BuildingBlock: UVAHIK_clean_linker_0, # of connection points: 2
#     Edge 43, Type (0, 0), BuildingBlock: UVAHIK_clean_linker_0, # of connection points: 2
#     Edge 44, Type (0, 0), BuildingBlock: UVAHIK_clean_linker_0, # of connection points: 2
#     Edge 45, Type (0, 0), BuildingBlock: UVAHIK_clean_linker_0, # of connection points: 2
#     Edge 46, Type (0, 0), BuildingBlock: UVAHIK_clean_linker_0, # of connection points: 2
#     Edge 47, Type (0, 0), BuildingBlock: UVAHIK_clean_linker_0, # of connection points: 2
#     Edge 48, Type (0, 0), BuildingBlock: UVAHIK_clean_linker_0, # of connection points: 2
#     Edge 49, Type (0, 0), BuildingBlock: UVAHIK_clean_linker_0, # of connection points: 2
#     Edge 50, Type (0, 0), BuildingBlock: UVAHIK_clean_linker_0, # of connection points: 2
#     Edge 51, Type (0, 0), BuildingBlock: UVAHIK_clean_linker_0, # of connection points: 2
#     Edge 52, Type (0, 0), BuildingBlock: UVAHIK_clean_linker_0, # of connection points: 2
#     Edge 53, Type (0, 0), BuildingBlock: UVAHIK_clean_linker_0, # of connection points: 2
#     Edge 54, Type (0, 0), BuildingBlock: UVAHIK_clean_linker_0, # of connection points: 2
#     Edge 55, Type (0, 0), BuildingBlock: UVAHIK_clean_linker_0, # of connection points: 2
#     Edge 56, Type (0, 0), BuildingBlock: UVAHIK_clean_linker_0, # of connection points: 2
#     Edge 57, Type (0, 0), BuildingBlock: UVAHIK_clean_linker_0, # of connection points: 2
#     Edge 58, Type (0, 0), BuildingBlock: UVAHIK_clean_linker_0, # of connection points: 2
#     Edge 59, Type (0, 0), BuildingBlock: UVAHIK_clean_linker_0, # of connection points: 2
#     Edge 60, Type (0, 0), BuildingBlock: UVAHIK_clean_linker_0, # of connection points: 2
#     Edge 61, Type (0, 0), BuildingBlock: UVAHIK_clean_linker_0, # of connection points: 2
#     Edge 62, Type (0, 0), BuildingBlock: UVAHIK_clean_linker_0, # of connection points: 2
#     Edge 63, Type (0, 0), BuildingBlock: UVAHIK_clean_linker_0, # of connection points: 2
#     Edge 64, Type (0, 0), BuildingBlock: UVAHIK_clean_linker_0, # of connection points: 2
#     Edge 65, Type (0, 0), BuildingBlock: UVAHIK_clean_linker_0, # of connection points: 2
#     Edge 66, Type (0, 0), BuildingBlock: UVAHIK_clean_linker_0, # of connection points: 2
#     Edge 67, Type (0, 0), BuildingBlock: UVAHIK_clean_linker_0, # of connection points: 2
#     Edge 68, Type (0, 0), BuildingBlock: UVAHIK_clean_linker_0, # of connection points: 2
#     Edge 69, Type (0, 0), BuildingBlock: UVAHIK_clean_linker_0, # of connection points: 2
#     Edge 70, Type (0, 0), BuildingBlock: UVAHIK_clean_linker_0, # of connection points: 2
#     Edge 71, Type (0, 0), BuildingBlock: UVAHIK_clean_linker_0, # of connection points: 2
# Relax obj value: 0.245
# Max RMSD: 0.175
# Mean RMSD: 0.174
data_MOF--net-gme--node1-UXUYUI_clean_sbu_0--edge1-UVAHIK_clean_linker_0
_symmetry_space_group_name_H-M    P1
_symmetry_Int_Tables_number       1
_symmetry_cell_setting            triclinic
loop_
_symmetry_equiv_pos_as_xyz
'x, y, z'
_cell_length_a     113.6063
_cell_length_b     113.58812
_cell_length_c     80.9128
_cell_angle_alpha  90.007734
_cell_angle_beta   90.011893
_cell_angle_gamma 120.00813
loop_
_atom_site_label
_atom_site_type_symbol
_atom_site_fract_x
_atom_site_fract_y
_atom_site_fract_z
_atom_type_partial_charge
Li0 Li 0.43212 0.11403 0.07728 0.0
Li1 Li 0.4285 0.10155 0.10242 0.0
Li2 Li 0.44346 0.10133 0.08145 0.0
Li3 Li 0.41938 0.08963 0.07712 0.0
C4 C 0.44884 0.12829 0.10385 0.0
N5 N 0.45505 0.15083 0.12295 0.0
C6 C 0.43886 0.1317 0.10733 0.0
C7 C 0.46197 0.13633 0.1101 0.0
C8 C 0.44221 0.14313 0.11701 0.0
C9 C 0.46492 0.14769 0.11972 0.0
C10 C 0.40188 0.09472 0.09513 0.0
C11 C 0.38543 0.0755 0.11096 0.0
N12 N 0.37624 0.0797 0.10871 0.0
C13 C 0.39227 0.09884 0.09297 0.0
C14 C 0.39844 0.08295 0.10419 0.0
C15 C 0.37936 0.09112 0.09995 0.0
C16 C 0.4221 0.12829 0.05976 0.0
N17 N 0.43339 0.12968 0.06732 0.0
C18 C 0.4458 0.15331 0.06073 0.0
C19 C 0.44518 0.1418 0.06773 0.0
C20 C 0.43421 0.1523 0.05313 0.0
C21 C 0.42228 0.13953 0.05251 0.0
H22 H 0.41292 0.11846 0.05948 0.0
H23 H 0.45406 0.14259 0.07369 0.0
C24 C 0.43416 0.09821 0.13485 0.0
N25 N 0.42637 0.10169 0.12564 0.0
C26 C 0.4336 0.09836 0.15206 0.0
C27 C 0.41688 0.10554 0.14997 0.0
C28 C 0.4179 0.10543 0.13279 0.0
C29 C 0.42484 0.10202 0.15979 0.0
H30 H 0.44088 0.09539 0.12877 0.0
H31 H 0.41203 0.10844 0.1252 0.0
C32 C 0.44255 0.10917 0.04902 0.0
N33 N 0.46041 0.12439 0.02419 0.0
C34 C 0.43904 0.10565 0.03247 0.0
C35 C 0.45515 0.12044 0.05294 0.0
C36 C 0.4482 0.11347 0.02009 0.0
C37 C 0.46403 0.128 0.04022 0.0
C38 C 0.43025 0.07435 0.09017 0.0
C39 C 0.43119 0.07135 0.07363 0.0
C40 C 0.43018 0.06579 0.10262 0.0
C41 C 0.43204 0.0598 0.06983 0.0
C42 C 0.43104 0.05434 0.09831 0.0
N43 N 0.43195 0.0516 0.08214 0.0
C44 C 0.4682 0.10492 0.09197 0.0
C45 C 0.46325 0.09727 0.06422 0.0
C46 C 0.48066 0.10534 0.09114 0.0
N47 N 0.45987 0.10104 0.0786 0.0
C48 C 0.47568 0.09764 0.06279 0.0
C49 C 0.48462 0.1018 0.07635 0.0
H50 H 0.46514 0.10771 0.10329 0.0
H51 H 0.45636 0.0941 0.05381 0.0
C52 C 0.39912 0.07733 0.0534 0.0
N53 N 0.40413 0.07468 0.06726 0.0
C54 C 0.38778 0.06691 0.04548 0.0
C55 C 0.38691 0.05129 0.06639 0.0
C56 C 0.39817 0.06204 0.074 0.0
C57 C 0.3816 0.05363 0.05185 0.0
H58 H 0.40396 0.08757 0.04853 0.0
H59 H 0.40217 0.06026 0.08525 0.0
O60 O 0.44586 0.11709 0.0945 0.0
O61 O 0.4145 0.10217 0.08822 0.0
O62 O 0.43359 0.10161 0.0612 0.0
O63 O 0.42951 0.08564 0.09431 0.0
H64 H 0.42865 0.12563 0.10261 0.0
H65 H 0.46981 0.13381 0.10753 0.0
H66 H 0.43458 0.14589 0.11979 0.0
H67 H 0.47504 0.15401 0.12464 0.0
H68 H 0.38264 0.06638 0.11799 0.0
H69 H 0.39477 0.10792 0.08597 0.0
H70 H 0.40573 0.0796 0.10603 0.0
H71 H 0.37182 0.09419 0.09837 0.0
H72 H 0.45516 0.16296 0.06173 0.0
H73 H 0.41316 0.13825 0.04659 0.0
H74 H 0.43984 0.09552 0.15924 0.0
H75 H 0.41014 0.10859 0.15553 0.0
H76 H 0.42931 0.09696 0.02924 0.0
H77 H 0.45808 0.12332 0.06566 0.0
H78 H 0.44562 0.11086 0.00723 0.0
H79 H 0.47381 0.13674 0.04308 0.0
H80 H 0.43124 0.07781 0.06381 0.0
H81 H 0.42948 0.068 0.11548 0.0
H82 H 0.43277 0.05735 0.05709 0.0
H83 H 0.431 0.04762 0.10782 0.0
H84 H 0.48705 0.10831 0.10202 0.0
H85 H 0.47834 0.09492 0.05112 0.0
H86 H 0.38391 0.06926 0.03448 0.0
H87 H 0.38264 0.04121 0.07166 0.0
Li88 Li 0.31676 0.43587 0.57715 0.0
Li89 Li 0.32583 0.43264 0.60195 0.0
Li90 Li 0.34073 0.44887 0.58131 0.0
Li91 Li 0.32906 0.42416 0.57616 0.0
C92 C 0.31826 0.45225 0.60424 0.0
N93 N 0.30164 0.45751 0.62411 0.0
C94 C 0.30473 0.4422 0.60686 0.0
C95 C 0.32333 0.46496 0.61171 0.0
C96 C 0.2965 0.44506 0.61694 0.0
C97 C 0.31477 0.46743 0.62172 0.0
C98 C 0.30741 0.40592 0.59471 0.0
C99 C 0.31194 0.39022 0.60962 0.0
N100 N 0.29852 0.3807 0.60881 0.0
C101 C 0.29367 0.39598 0.59403 0.0
C102 C 0.31664 0.40303 0.60256 0.0
C103 C 0.28937 0.3833 0.60124 0.0
C104 C 0.29154 0.42382 0.5617 0.0
N105 N 0.30153 0.43587 0.56768 0.0
C106 C 0.28819 0.44636 0.56265 0.0
C107 C 0.30027 0.44716 0.56784 0.0
C108 C 0.27738 0.43384 0.5572 0.0
C109 C 0.27932 0.42258 0.55629 0.0
H110 H 0.29294 0.41507 0.5616 0.0
H111 H 0.30845 0.45663 0.57261 0.0
C112 C 0.33424 0.43484 0.63505 0.0
N113 N 0.32316 0.42946 0.62503 0.0
C114 C 0.33265 0.43304 0.65214 0.0
C115 C 0.30829 0.42025 0.64822 0.0
C116 C 0.31035 0.42215 0.63122 0.0
C117 C 0.31953 0.42577 0.65889 0.0
H118 H 0.34429 0.44066 0.62976 0.0
H119 H 0.30171 0.41788 0.62298 0.0
C120 C 0.3273 0.44357 0.54795 0.0
N121 N 0.31851 0.45293 0.5219 0.0
C122 C 0.32033 0.43497 0.53473 0.0
C123 C 0.32985 0.45696 0.5479 0.0
C124 C 0.31595 0.43988 0.52168 0.0
C125 C 0.32532 0.46149 0.53461 0.0
C126 C 0.35565 0.4365 0.58969 0.0
C127 C 0.36028 0.4387 0.57335 0.0
C128 C 0.36392 0.43616 0.60224 0.0
C129 C 0.37312 0.44052 0.56985 0.0
C130 C 0.3767 0.43802 0.59824 0.0
N131 N 0.381 0.44014 0.58226 0.0
C132 C 0.36172 0.47414 0.59166 0.0
C133 C 0.36333 0.46919 0.56355 0.0
C134 C 0.37368 0.48665 0.59034 0.0
N135 N 0.35683 0.46574 0.57837 0.0
C136 C 0.37536 0.48158 0.56169 0.0
C137 C 0.38067 0.49049 0.57521 0.0
H138 H 0.35634 0.47104 0.6033 0.0
H139 H 0.35918 0.46228 0.55319 0.0
C140 C 0.31918 0.40247 0.55451 0.0
N141 N 0.32931 0.40935 0.56564 0.0
C142 C 0.31853 0.39165 0.54561 0.0
C143 C 0.33846 0.39485 0.56028 0.0
C144 C 0.3386 0.40549 0.56905 0.0
C145 C 0.32844 0.38789 0.54817 0.0
H146 H 0.31161 0.40545 0.55254 0.0
H147 H 0.34621 0.41069 0.57845 0.0
O148 O 0.32659 0.44974 0.59447 0.0
O149 O 0.31167 0.41836 0.58765 0.0
O150 O 0.33138 0.43887 0.56105 0.0
O151 O 0.3432 0.4349 0.59353 0.0
H152 H 0.30061 0.4323 0.60119 0.0
H153 H 0.33378 0.47285 0.6098 0.0
H154 H 0.28601 0.43738 0.61908 0.0
H155 H 0.31856 0.47723 0.62759 0.0
H156 H 0.31897 0.38784 0.61573 0.0
H157 H 0.28639 0.39807 0.588 0.0
H158 H 0.32731 0.41055 0.60326 0.0
H159 H 0.27875 0.37551 0.60081 0.0
H160 H 0.28709 0.45526 0.56372 0.0
H161 H 0.27134 0.4128 0.55191 0.0
H162 H 0.34156 0.43754 0.66002 0.0
H163 H 0.29802 0.41448 0.65298 0.0
H164 H 0.31829 0.4246 0.53455 0.0
H165 H 0.33508 0.4637 0.55814 0.0
H166 H 0.31051 0.43332 0.51139 0.0
H167 H 0.32715 0.4718 0.53446 0.0
H168 H 0.35401 0.43889 0.56343 0.0
H169 H 0.3605 0.43448 0.61495 0.0
H170 H 0.37682 0.44221 0.55726 0.0
H171 H 0.38321 0.43777 0.60784 0.0
H172 H 0.37752 0.49313 0.60113 0.0
H173 H 0.38037 0.48422 0.54978 0.0
H174 H 0.3104 0.38636 0.53675 0.0
H175 H 0.34637 0.39241 0.56267 0.0
Li176 Li 0.89461 0.32608 0.10125 0.0
Li177 Li 0.87977 0.31628 0.07807 0.0
Li178 Li 0.90387 0.32606 0.07481 0.0
Li179 Li 0.89428 0.34041 0.07948 0.0
C180 C 0.89875 0.30447 0.09484 0.0
N181 N 0.91335 0.29323 0.10804 0.0
C182 C 0.89337 0.2904 0.09459 0.0
C183 C 0.91158 0.31284 0.10179 0.0
C184 C 0.9009 0.2849 0.10133 0.0
C185 C 0.91879 0.30695 0.10839 0.0
C186 C 0.86885 0.32217 0.10569 0.0
C187 C 0.85214 0.32204 0.1242 0.0
N188 N 0.84791 0.30887 0.1281 0.0
C189 C 0.86433 0.30863 0.10989 0.0
C190 C 0.86272 0.32894 0.1129 0.0
C191 C 0.85373 0.30208 0.12124 0.0
C192 C 0.90217 0.33718 0.13277 0.0
N193 N 0.89622 0.32518 0.12446 0.0
C194 C 0.89134 0.31275 0.14974 0.0
C195 C 0.89092 0.31309 0.13252 0.0
C196 C 0.89719 0.32498 0.15871 0.0
C197 C 0.9028 0.33732 0.14999 0.0
H198 H 0.90621 0.34662 0.126 0.0
H199 H 0.88607 0.30368 0.12562 0.0
C200 C 0.86354 0.29178 0.06227 0.0
N201 N 0.86301 0.30204 0.0702 0.0
C202 C 0.85169 0.28078 0.05605 0.0
C203 C 0.83903 0.29123 0.06612 0.0
C204 C 0.85115 0.30209 0.07201 0.0
C205 C 0.83918 0.28031 0.05813 0.0
H206 H 0.87319 0.29216 0.06082 0.0
H207 H 0.85107 0.3105 0.07815 0.0
C208 C 0.92185 0.35279 0.0847 0.0
N209 N 0.94481 0.37558 0.07308 0.0
C210 C 0.92352 0.35556 0.06775 0.0
C211 C 0.93184 0.36162 0.09573 0.0
C212 C 0.9352 0.36713 0.06213 0.0
C213 C 0.94338 0.37309 0.08962 0.0
C214 C 0.88321 0.32972 0.0486 0.0
C215 C 0.88523 0.32841 0.03183 0.0
C216 C 0.87284 0.33222 0.05346 0.0
C217 C 0.87685 0.32965 0.02015 0.0
C218 C 0.86468 0.33339 0.04141 0.0
N219 N 0.86684 0.33209 0.02515 0.0
C220 C 0.91202 0.31448 0.05053 0.0
C221 C 0.93035 0.33054 0.06689 0.0
C222 C 0.9209 0.31242 0.04066 0.0
N223 N 0.9169 0.3236 0.06312 0.0
C224 C 0.93962 0.32903 0.05713 0.0
C225 C 0.93498 0.32001 0.04362 0.0
H226 H 0.90122 0.30893 0.04805 0.0
H227 H 0.93395 0.33749 0.07723 0.0
C228 C 0.89452 0.36408 0.08867 0.0
N229 N 0.89602 0.35765 0.07537 0.0
C230 C 0.89592 0.37693 0.08693 0.0
C231 C 0.90033 0.37628 0.05779 0.0
C232 C 0.89896 0.36348 0.06013 0.0
C233 C 0.89884 0.38317 0.07132 0.0
H234 H 0.89227 0.3592 0.10065 0.0
H235 H 0.90034 0.35825 0.0498 0.0
O236 O 0.89146 0.30991 0.08819 0.0
O237 O 0.87931 0.32891 0.09476 0.0
O238 O 0.91045 0.34162 0.09062 0.0
O239 O 0.8913 0.32841 0.06012 0.0
H240 H 0.88346 0.28379 0.08923 0.0
H241 H 0.91593 0.32374 0.10212 0.0
H242 H 0.89685 0.27402 0.10123 0.0
H243 H 0.92871 0.31331 0.11381 0.0
H244 H 0.84731 0.32716 0.12987 0.0
H245 H 0.86893 0.3032 0.10446 0.0
H246 H 0.86612 0.33944 0.1098 0.0
H247 H 0.85014 0.29161 0.12459 0.0
H248 H 0.88674 0.30301 0.15598 0.0
H249 H 0.90754 0.34698 0.15642 0.0
H250 H 0.85235 0.27273 0.04971 0.0
H251 H 0.82962 0.29125 0.06817 0.0
H252 H 0.91594 0.34884 0.059 0.0
H253 H 0.93068 0.35963 0.10889 0.0
H254 H 0.93663 0.36938 0.04905 0.0
H255 H 0.9512 0.38001 0.09802 0.0
H256 H 0.89319 0.32644 0.02788 0.0
H257 H 0.87111 0.33327 0.06637 0.0
H258 H 0.8783 0.32867 0.00712 0.0
H259 H 0.85663 0.33532 0.045 0.0
H260 H 0.91675 0.3051 0.0307 0.0
H261 H 0.95034 0.33527 0.05986 0.0
H262 H 0.89459 0.38188 0.09763 0.0
H263 H 0.90274 0.38084 0.04561 0.0
Li264 Li 0.56492 0.89397 0.59897 0.0
Li265 Li 0.56324 0.88268 0.57379 0.0
Li266 Li 0.57445 0.90668 0.57388 0.0
Li267 Li 0.54957 0.8929 0.57723 0.0
C268 C 0.59216 0.90329 0.59354 0.0
N269 N 0.61657 0.91979 0.60935 0.0
C270 C 0.60259 0.90016 0.59297 0.0
C271 C 0.59416 0.91482 0.60217 0.0
C272 C 0.61485 0.90862 0.60104 0.0
C273 C 0.60657 0.92303 0.61007 0.0
C274 C 0.54607 0.86662 0.59942 0.0
C275 C 0.5306 0.84658 0.6148 0.0
N276 N 0.54099 0.84426 0.61824 0.0
C277 C 0.55659 0.86403 0.60311 0.0
C278 C 0.53297 0.85784 0.60531 0.0
C279 C 0.55381 0.85267 0.61263 0.0
C280 C 0.55962 0.89829 0.63139 0.0
N281 N 0.56676 0.89397 0.62226 0.0
C282 C 0.57601 0.88989 0.64667 0.0
C283 C 0.57483 0.88976 0.62949 0.0
C284 C 0.56883 0.89441 0.65644 0.0
C285 C 0.56053 0.89863 0.64859 0.0
H286 H 0.55317 0.90143 0.62527 0.0
H287 H 0.58037 0.88633 0.62195 0.0
C288 C 0.57633 0.86994 0.55957 0.0
N289 N 0.56394 0.8678 0.56429 0.0
C290 C 0.57782 0.85908 0.5543 0.0
C291 C 0.55365 0.84416 0.55812 0.0
C292 C 0.55263 0.85532 0.56328 0.0
C293 C 0.56645 0.84591 0.55397 0.0
H294 H 0.58511 0.88003 0.56039 0.0
H295 H 0.54289 0.85396 0.56708 0.0
C296 C 0.56061 0.91964 0.58708 0.0
N297 N 0.5561 0.94091 0.58032 0.0
C298 C 0.55959 0.92301 0.57072 0.0
C299 C 0.55931 0.92709 0.59999 0.0
C300 C 0.55731 0.93379 0.56756 0.0
C301 C 0.55704 0.93781 0.59632 0.0
C302 C 0.55652 0.88598 0.54426 0.0
C303 C 0.56575 0.88771 0.53177 0.0
C304 C 0.54312 0.87524 0.54327 0.0
C305 C 0.56142 0.87861 0.51851 0.0
C306 C 0.53918 0.86637 0.52981 0.0
N307 N 0.54834 0.86821 0.51782 0.0
C308 C 0.59713 0.92086 0.55357 0.0
C309 C 0.59311 0.93523 0.57102 0.0
C310 C 0.60852 0.93206 0.54679 0.0
N311 N 0.58954 0.92266 0.5652 0.0
C312 C 0.60432 0.94671 0.56448 0.0
C313 C 0.61217 0.94523 0.55209 0.0
H314 H 0.59439 0.9107 0.5497 0.0
H315 H 0.58732 0.93642 0.58079 0.0
C316 C 0.52431 0.88851 0.587 0.0
N317 N 0.53275 0.89208 0.57376 0.0
C318 C 0.51204 0.88845 0.58583 0.0
C319 C 0.51731 0.89559 0.55732 0.0
C320 C 0.52952 0.89553 0.55906 0.0
C321 C 0.50846 0.89214 0.57088 0.0
H322 H 0.52724 0.88589 0.59855 0.0
H323 H 0.53653 0.89847 0.54879 0.0
O324 O 0.58015 0.89506 0.58559 0.0
O325 O 0.54847 0.87768 0.59016 0.0
O326 O 0.5626 0.90897 0.59054 0.0
O327 O 0.56062 0.89456 0.55756 0.0
H328 H 0.60121 0.89127 0.58636 0.0
H329 H 0.58624 0.91743 0.60282 0.0
H330 H 0.62301 0.90631 0.6007 0.0
H331 H 0.60824 0.93197 0.61678 0.0
H332 H 0.52051 0.8397 0.61944 0.0
H333 H 0.56679 0.87067 0.59866 0.0
H334 H 0.52472 0.85971 0.60257 0.0
H335 H 0.56186 0.85055 0.61557 0.0
H336 H 0.5826 0.88666 0.65222 0.0
H337 H 0.55466 0.90199 0.65568 0.0
H338 H 0.58783 0.8609 0.55097 0.0
H339 H 0.54465 0.83417 0.55822 0.0
H340 H 0.5606 0.9174 0.56055 0.0
H341 H 0.56005 0.9246 0.61272 0.0
H342 H 0.55651 0.9365 0.55496 0.0
H343 H 0.55603 0.94366 0.60619 0.0
H344 H 0.57615 0.89594 0.53232 0.0
H345 H 0.53589 0.87362 0.55295 0.0
H346 H 0.56846 0.8798 0.50879 0.0
H347 H 0.52887 0.85797 0.52894 0.0
H348 H 0.61444 0.93039 0.53756 0.0
H349 H 0.60665 0.95664 0.56891 0.0
H350 H 0.50543 0.88555 0.59652 0.0
H351 H 0.515 0.89864 0.54564 0.0
Li352 Li 0.66977 0.57219 0.07709 0.0
Li353 Li 0.65656 0.54845 0.08543 0.0
Li354 Li 0.67139 0.5671 0.10536 0.0
Li355 Li 0.68162 0.55949 0.08433 0.0
C356 C 0.64707 0.56959 0.08934 0.0
N357 N 0.6319 0.58128 0.07973 0.0
C358 C 0.63512 0.56205 0.08027 0.0
C359 C 0.65123 0.58302 0.0937 0.0
C360 C 0.6276 0.56816 0.0755 0.0
C361 C 0.64345 0.58877 0.08867 0.0
C362 C 0.66751 0.54749 0.05343 0.0
C363 C 0.66865 0.52803 0.04359 0.0
N364 N 0.66537 0.53016 0.02814 0.0
C365 C 0.6643 0.54957 0.03741 0.0
C366 C 0.66982 0.53671 0.05651 0.0
C367 C 0.6632 0.54066 0.02481 0.0
C368 C 0.67778 0.59826 0.06298 0.0
N369 N 0.66906 0.58463 0.06221 0.0
C370 C 0.65673 0.58743 0.0402 0.0
C371 C 0.65881 0.57912 0.05101 0.0
C372 C 0.66539 0.60159 0.04081 0.0
C373 C 0.67611 0.607 0.05231 0.0
H374 H 0.68587 0.60234 0.07201 0.0
H375 H 0.65197 0.56825 0.05082 0.0
C376 C 0.63327 0.52586 0.09744 0.0
N377 N 0.63988 0.53194 0.08323 0.0
C378 C 0.621 0.51359 0.0969 0.0
C379 C 0.62247 0.51418 0.06706 0.0
C380 C 0.63468 0.52648 0.06819 0.0
C381 C 0.61549 0.50757 0.08155 0.0
H382 H 0.63764 0.53052 0.10922 0.0
H383 H 0.63993 0.53167 0.05705 0.0
C384 C 0.69614 0.58826 0.1001 0.0
N385 N 0.71507 0.60771 0.12106 0.0
C386 C 0.70785 0.58788 0.10444 0.0
C387 C 0.69411 0.5986 0.10627 0.0
C388 C 0.71729 0.5978 0.11508 0.0
C389 C 0.70378 0.60831 0.11691 0.0
C390 C 0.66898 0.53776 0.10974 0.0
C391 C 0.67462 0.5389 0.12543 0.0
C392 C 0.66285 0.52519 0.10165 0.0
C393 C 0.67425 0.52754 0.13263 0.0
C394 C 0.66266 0.51406 0.10927 0.0
N395 N 0.66833 0.51546 0.12446 0.0
C396 C 0.66247 0.57399 0.13435 0.0
C397 C 0.68349 0.57452 0.13709 0.0
C398 C 0.6626 0.577 0.1511 0.0
N399 N 0.67276 0.57269 0.12776 0.0
C400 C 0.68406 0.57756 0.15387 0.0
C401 C 0.67341 0.57864 0.16113 0.0
H402 H 0.65399 0.57237 0.12668 0.0
H403 H 0.69144 0.57321 0.13161 0.0
C404 C 0.70281 0.56182 0.06443 0.0
N405 N 0.69635 0.55682 0.07906 0.0
C406 C 0.71364 0.56 0.05981 0.0
C407 C 0.71089 0.54791 0.08541 0.0
C408 C 0.70022 0.55006 0.08958 0.0
C409 C 0.71781 0.55295 0.07037 0.0
H410 H 0.69954 0.56723 0.05637 0.0
H411 H 0.69507 0.54634 0.10121 0.0
O412 O 0.65473 0.56389 0.0938 0.0
O413 O 0.66862 0.55615 0.06589 0.0
O414 O 0.68675 0.57859 0.08977 0.0
O415 O 0.66922 0.54882 0.10257 0.0
H416 H 0.63175 0.55164 0.07681 0.0
H417 H 0.66044 0.58898 0.10075 0.0
H418 H 0.61837 0.56247 0.06838 0.0
H419 H 0.6466 0.59919 0.09183 0.0
H420 H 0.6704 0.51965 0.04583 0.0
H421 H 0.66266 0.55796 0.03471 0.0
H422 H 0.67268 0.53515 0.06867 0.0
H423 H 0.66066 0.54211 0.01238 0.0
H424 H 0.64815 0.58281 0.03184 0.0
H425 H 0.68307 0.61785 0.05312 0.0
H426 H 0.61597 0.50877 0.10836 0.0
H427 H 0.61843 0.50996 0.05499 0.0
H428 H 0.7096 0.57998 0.09972 0.0
H429 H 0.6851 0.59904 0.10302 0.0
H430 H 0.72638 0.5976 0.11861 0.0
H431 H 0.70229 0.61632 0.12188 0.0
H432 H 0.67932 0.54847 0.13197 0.0
H433 H 0.65812 0.52393 0.08972 0.0
H434 H 0.67865 0.52833 0.14472 0.0
H435 H 0.65796 0.5043 0.10312 0.0
H436 H 0.65424 0.57786 0.15617 0.0
H437 H 0.69248 0.57852 0.16119 0.0
H438 H 0.71879 0.56425 0.04822 0.0
H439 H 0.71362 0.54227 0.09385 0.0
Li440 Li 0.10819 0.67711 0.57627 0.0
Li441 Li 0.09769 0.66646 0.6014 0.0
Li442 Li 0.09912 0.65325 0.57854 0.0
Li443 Li 0.08425 0.66323 0.57688 0.0
C444 C 0.12528 0.67639 0.60061 0.0
N445 N 0.14775 0.69422 0.6189 0.0
C446 C 0.12694 0.68894 0.60551 0.0
C447 C 0.13505 0.67292 0.60501 0.0
C448 C 0.13836 0.69781 0.61475 0.0
C449 C 0.14634 0.68207 0.61427 0.0
C450 C 0.08677 0.68332 0.59779 0.0
C451 C 0.06723 0.67646 0.61534 0.0
N452 N 0.0695 0.6894 0.61506 0.0
C453 C 0.0889 0.69654 0.59769 0.0
C454 C 0.07585 0.67318 0.60669 0.0
C455 C 0.08006 0.69942 0.6065 0.0
C456 C 0.12064 0.70387 0.56426 0.0
N457 N 0.12265 0.69323 0.56719 0.0
C458 C 0.1461 0.70658 0.56014 0.0
C459 C 0.13496 0.69424 0.56489 0.0
C460 C 0.14452 0.71797 0.55779 0.0
C461 C 0.13151 0.71642 0.5595 0.0
H462 H 0.11068 0.70269 0.56612 0.0
H463 H 0.13624 0.68559 0.56737 0.0
C464 C 0.09607 0.65626 0.63318 0.0
N465 N 0.09826 0.66755 0.62482 0.0
C466 C 0.09645 0.65631 0.65041 0.0
C467 C 0.10134 0.67962 0.6501 0.0
C468 C 0.10099 0.67916 0.63287 0.0
C469 C 0.09905 0.66809 0.65907 0.0
H470 H 0.09406 0.64723 0.6264 0.0
H471 H 0.10296 0.6881 0.62593 0.0
C472 C 0.10498 0.66779 0.54626 0.0
N473 N 0.12242 0.67833 0.5196 0.0
C474 C 0.10323 0.6759 0.53464 0.0
C475 C 0.1156 0.66504 0.5443 0.0
C476 C 0.11216 0.68113 0.52126 0.0
C477 C 0.1243 0.67045 0.53074 0.0
C478 C 0.07295 0.6361 0.58921 0.0
C479 C 0.06874 0.63212 0.57291 0.0
C480 C 0.06691 0.62671 0.60202 0.0
C481 C 0.0585 0.61879 0.56972 0.0
C482 C 0.0567 0.61347 0.59832 0.0
N483 N 0.05274 0.60982 0.58239 0.0
C484 C 0.10684 0.63411 0.58549 0.0
C485 C 0.09617 0.63092 0.55937 0.0
C486 C 0.10815 0.62266 0.58307 0.0
N487 N 0.10093 0.63796 0.57373 0.0
C488 C 0.0972 0.61935 0.55646 0.0
C489 C 0.10323 0.61508 0.56843 0.0
H490 H 0.1104 0.63986 0.59684 0.0
H491 H 0.09152 0.63426 0.55024 0.0
C492 C 0.06816 0.66975 0.55699 0.0
N493 N 0.06754 0.66126 0.56922 0.0
C494 C 0.05627 0.66877 0.55069 0.0
C495 C 0.04335 0.65072 0.57021 0.0
C496 C 0.05549 0.65211 0.57618 0.0
C497 C 0.04365 0.659 0.55714 0.0
H498 H 0.07792 0.67727 0.55214 0.0
H499 H 0.05525 0.64587 0.58639 0.0
O500 O 0.1142 0.66748 0.59152 0.0
O501 O 0.09537 0.68043 0.5891 0.0
O502 O 0.09655 0.66282 0.55968 0.0
O503 O 0.08312 0.64903 0.59265 0.0
H504 H 0.11953 0.69185 0.60218 0.0
H505 H 0.13392 0.66325 0.6013 0.0
H506 H 0.13977 0.70755 0.6186 0.0
H507 H 0.15398 0.67951 0.61776 0.0
H508 H 0.05875 0.66871 0.62228 0.0
H509 H 0.09731 0.70452 0.59088 0.0
H510 H 0.07403 0.6629 0.60702 0.0
H511 H 0.08159 0.70962 0.60653 0.0
H512 H 0.15598 0.70737 0.55918 0.0
H513 H 0.12984 0.72492 0.55763 0.0
H514 H 0.09455 0.64718 0.6569 0.0
H515 H 0.10358 0.68896 0.65633 0.0
H516 H 0.09514 0.6782 0.53595 0.0
H517 H 0.1173 0.65903 0.55332 0.0
H518 H 0.11095 0.68745 0.5122 0.0
H519 H 0.1326 0.66847 0.52914 0.0
H520 H 0.0733 0.63924 0.56283 0.0
H521 H 0.07009 0.62963 0.61469 0.0
H522 H 0.05514 0.61557 0.55718 0.0
H523 H 0.05193 0.6061 0.60812 0.0
H524 H 0.11268 0.6196 0.59271 0.0
H525 H 0.09337 0.61384 0.54497 0.0
H526 H 0.05694 0.67534 0.5406 0.0
H527 H 0.03382 0.64326 0.57575 0.0
Li528 Li 0.89136 0.55141 0.41541 0.0
Li529 Li 0.9014 0.57606 0.42054 0.0
Li530 Li 0.87772 0.5619 0.41647 0.0
Li531 Li 0.89244 0.5668 0.39369 0.0
C532 C 0.87928 0.55479 0.44677 0.0
N533 N 0.85931 0.54316 0.47067 0.0
C534 C 0.87868 0.56275 0.45955 0.0
C535 C 0.86975 0.5409 0.44618 0.0
C536 C 0.86849 0.55668 0.4715 0.0
C537 C 0.85973 0.53521 0.45837 0.0
C538 C 0.91911 0.56641 0.41024 0.0
C539 C 0.94035 0.56725 0.40449 0.0
N540 N 0.94176 0.56549 0.42085 0.0
C541 C 0.92076 0.56459 0.427 0.0
C542 C 0.92896 0.56773 0.39888 0.0
C543 C 0.93228 0.56416 0.43212 0.0
C544 C 0.89199 0.52813 0.40623 0.0
N545 N 0.89271 0.53576 0.41952 0.0
C546 C 0.89577 0.52095 0.43771 0.0
C547 C 0.89461 0.53247 0.43506 0.0
C548 C 0.89507 0.51285 0.42421 0.0
C549 C 0.89316 0.51656 0.4083 0.0
H550 H 0.89053 0.53106 0.39402 0.0
H551 H 0.89529 0.53884 0.44537 0.0
C552 C 0.9099 0.59726 0.44319 0.0
N553 N 0.91467 0.59155 0.43227 0.0
C554 C 0.91888 0.60795 0.45333 0.0
C555 C 0.93755 0.60717 0.4401 0.0
C556 C 0.92822 0.59666 0.43007 0.0
C557 C 0.93292 0.61277 0.45224 0.0
H558 H 0.89908 0.59335 0.44418 0.0
H559 H 0.93185 0.59242 0.4208 0.0
C560 C 0.86664 0.54519 0.38862 0.0
N561 N 0.84608 0.53799 0.36576 0.0
C562 C 0.86237 0.55439 0.38433 0.0
C563 C 0.86047 0.53234 0.38127 0.0
C564 C 0.85195 0.55055 0.37275 0.0
C565 C 0.85009 0.52889 0.36974 0.0
C566 C 0.89715 0.59267 0.39993 0.0
C567 C 0.89199 0.60154 0.39924 0.0
C568 C 0.91017 0.59686 0.3938 0.0
C569 C 0.89994 0.61447 0.3924 0.0
C570 C 0.9178 0.60987 0.38707 0.0
N571 N 0.91257 0.61833 0.38651 0.0
C572 C 0.86027 0.57016 0.42971 0.0
C573 C 0.84936 0.54675 0.42274 0.0
C574 C 0.84798 0.5688 0.43505 0.0
N575 N 0.86068 0.55924 0.4236 0.0
C576 C 0.83684 0.54494 0.42787 0.0
C577 C 0.83604 0.55608 0.43401 0.0
H578 H 0.86949 0.57994 0.43032 0.0
H579 H 0.85005 0.5382 0.41805 0.0
C580 C 0.90098 0.5637 0.36258 0.0
N581 N 0.89466 0.56951 0.37054 0.0
C582 C 0.90234 0.56458 0.34543 0.0
C583 C 0.89071 0.57752 0.34501 0.0
C584 C 0.8896 0.5764 0.36219 0.0
C585 C 0.89704 0.57146 0.33639 0.0
H586 H 0.90481 0.5582 0.36957 0.0
H587 H 0.88447 0.5808 0.36882 0.0
O588 O 0.88895 0.56059 0.4347 0.0
O589 O 0.90781 0.56662 0.40484 0.0
O590 O 0.87688 0.54869 0.39985 0.0
O591 O 0.8894 0.58 0.40664 0.0
H592 H 0.88597 0.57349 0.46024 0.0
H593 H 0.86993 0.53463 0.43623 0.0
H594 H 0.86789 0.56273 0.48144 0.0
H595 H 0.85224 0.5245 0.458 0.0
H596 H 0.94806 0.56827 0.39583 0.0
H597 H 0.91328 0.56359 0.436 0.0
H598 H 0.92781 0.56911 0.38586 0.0
H599 H 0.9337 0.56277 0.44505 0.0
H600 H 0.89739 0.51852 0.45015 0.0
H601 H 0.89241 0.51051 0.39758 0.0
H602 H 0.91483 0.61219 0.46212 0.0
H603 H 0.94822 0.61042 0.43876 0.0
H604 H 0.86701 0.56438 0.38986 0.0
H605 H 0.86369 0.52512 0.38445 0.0
H606 H 0.84855 0.55757 0.36932 0.0
H607 H 0.84522 0.51897 0.36395 0.0
H608 H 0.88193 0.59844 0.40393 0.0
H609 H 0.91438 0.59019 0.39418 0.0
H610 H 0.89606 0.62143 0.39178 0.0
H611 H 0.92788 0.61324 0.38229 0.0
H612 H 0.84776 0.57767 0.43955 0.0
H613 H 0.8279 0.53494 0.42706 0.0
H614 H 0.90744 0.5599 0.33931 0.0
H615 H 0.88632 0.58275 0.33853 0.0
Li616 Li 0.32901 0.90738 0.92263 0.0
Li617 Li 0.3414 0.89528 0.91526 0.0
Li618 Li 0.32778 0.89904 0.8948 0.0
Li619 Li 0.31727 0.88371 0.91694 0.0
C620 C 0.35645 0.92334 0.91148 0.0
N621 N 0.38146 0.94414 0.92174 0.0
C622 C 0.36067 0.92378 0.92782 0.0
C623 C 0.36496 0.93342 0.90035 0.0
C624 C 0.37335 0.9344 0.93277 0.0
C625 C 0.37756 0.94388 0.90579 0.0
C626 C 0.32494 0.88376 0.94743 0.0
C627 C 0.31894 0.86171 0.95842 0.0
N628 N 0.3129 0.86403 0.97155 0.0
C629 C 0.31878 0.88597 0.9611 0.0
C630 C 0.32512 0.87157 0.94613 0.0
C631 C 0.31271 0.87585 0.97314 0.0
C632 C 0.31724 0.91702 0.94506 0.0
N633 N 0.32833 0.92115 0.93524 0.0
C634 C 0.33677 0.94426 0.94308 0.0
C635 C 0.33786 0.93452 0.93381 0.0
C636 C 0.32559 0.94028 0.95367 0.0
C637 C 0.31567 0.92644 0.95448 0.0
H638 H 0.30953 0.90638 0.94543 0.0
H639 H 0.34627 0.93771 0.9254 0.0
C640 C 0.36691 0.89991 0.9055 0.0
N641 N 0.35777 0.89494 0.91808 0.0
C642 C 0.37938 0.90039 0.90697 0.0
C643 C 0.37264 0.89032 0.93414 0.0
C644 C 0.36043 0.89033 0.93231 0.0
C645 C 0.38227 0.89545 0.92138 0.0
H646 H 0.36453 0.9036 0.8944 0.0
H647 H 0.35317 0.88678 0.94229 0.0
C648 C 0.3085 0.90601 0.90351 0.0
N649 N 0.3001 0.9238 0.89308 0.0
C650 C 0.29474 0.90215 0.90402 0.0
C651 C 0.318 0.91894 0.89772 0.0
C652 C 0.29069 0.91128 0.89867 0.0
C653 C 0.31355 0.92778 0.8925 0.0
C654 C 0.32075 0.87269 0.88748 0.0
C655 C 0.30773 0.87028 0.88357 0.0
C656 C 0.32599 0.86552 0.87919 0.0
C657 C 0.30016 0.86069 0.87144 0.0
C658 C 0.3181 0.85601 0.86714 0.0
N659 N 0.30546 0.85382 0.86354 0.0
C660 C 0.33879 0.90705 0.86324 0.0
C661 C 0.31523 0.89956 0.86448 0.0
C662 C 0.33888 0.90896 0.84619 0.0
N663 N 0.32708 0.90238 0.87195 0.0
C664 C 0.31487 0.90141 0.84749 0.0
C665 C 0.32677 0.90605 0.83806 0.0
H666 H 0.34801 0.90903 0.86952 0.0
H667 H 0.306 0.89566 0.87164 0.0
C668 C 0.29207 0.86844 0.93224 0.0
N669 N 0.30164 0.86727 0.92352 0.0
C670 C 0.28034 0.85685 0.9376 0.0
C671 C 0.28855 0.84307 0.92482 0.0
C672 C 0.30022 0.85493 0.91994 0.0
C673 C 0.27836 0.84391 0.93371 0.0
H674 H 0.29362 0.87843 0.9351 0.0
H675 H 0.30811 0.85429 0.91327 0.0
O676 O 0.34422 0.91289 0.90619 0.0
O677 O 0.3307 0.89343 0.93533 0.0
O678 O 0.31253 0.89715 0.90889 0.0
O679 O 0.32847 0.88213 0.89917 0.0
H680 H 0.35425 0.91604 0.9366 0.0
H681 H 0.36186 0.93316 0.88764 0.0
H682 H 0.37675 0.93488 0.94537 0.0
H683 H 0.38425 0.95177 0.89731 0.0
H684 H 0.31887 0.85218 0.95747 0.0
H685 H 0.3187 0.89539 0.96244 0.0
H686 H 0.32973 0.86964 0.93554 0.0
H687 H 0.30786 0.87741 0.98375 0.0
H688 H 0.34474 0.95478 0.94212 0.0
H689 H 0.30675 0.92294 0.96219 0.0
H690 H 0.38662 0.90439 0.89689 0.0
H691 H 0.37466 0.88658 0.94549 0.0
H692 H 0.28727 0.89219 0.90852 0.0
H693 H 0.3287 0.92215 0.89724 0.0
H694 H 0.28007 0.90842 0.89899 0.0
H695 H 0.32079 0.93781 0.88799 0.0
H696 H 0.30349 0.87571 0.88983 0.0
H697 H 0.33606 0.86731 0.88204 0.0
H698 H 0.29008 0.85873 0.8683 0.0
H699 H 0.32203 0.85039 0.86063 0.0
H700 H 0.34824 0.91231 0.83942 0.0
H701 H 0.30534 0.89918 0.8418 0.0
H702 H 0.27292 0.85803 0.9447 0.0
H703 H 0.28743 0.83336 0.92132 0.0
Li704 Li 0.4458 0.33898 0.41798 0.0
Li705 Li 0.42083 0.32601 0.42298 0.0
Li706 Li 0.43323 0.31373 0.4214 0.0
Li707 Li 0.42944 0.32342 0.39762 0.0
C708 C 0.43661 0.32255 0.45212 0.0
N709 N 0.43809 0.30993 0.48062 0.0
C710 C 0.42529 0.31587 0.46247 0.0
C711 C 0.44867 0.32277 0.45626 0.0
C712 C 0.42625 0.30958 0.47683 0.0
C713 C 0.44921 0.31633 0.47071 0.0
C714 C 0.42559 0.34837 0.40851 0.0
C715 C 0.40738 0.35306 0.40377 0.0
N716 N 0.41344 0.36382 0.41429 0.0
C717 C 0.43167 0.3595 0.41923 0.0
C718 C 0.41338 0.34513 0.40066 0.0
C719 C 0.42536 0.36718 0.42199 0.0
C720 C 0.46635 0.36494 0.40895 0.0
N721 N 0.46201 0.3557 0.42142 0.0
C722 C 0.48068 0.37093 0.4384 0.0
C723 C 0.46881 0.35847 0.43602 0.0
C724 C 0.4855 0.38064 0.42566 0.0
C725 C 0.47815 0.37752 0.41079 0.0
H726 H 0.46058 0.36254 0.3976 0.0
H727 H 0.46495 0.35109 0.44588 0.0
C728 C 0.39361 0.31941 0.42929 0.0
N729 N 0.40677 0.32711 0.43414 0.0
C730 C 0.38338 0.32043 0.43755 0.0
C731 C 0.40046 0.33705 0.45586 0.0
C732 C 0.41035 0.33581 0.44713 0.0
C733 C 0.38678 0.32931 0.45105 0.0
H734 H 0.39104 0.31248 0.41903 0.0
H735 H 0.42093 0.34179 0.45068 0.0
C736 C 0.45207 0.32313 0.39039 0.0
N737 N 0.46174 0.31966 0.36052 0.0
C738 C 0.44963 0.31026 0.38567 0.0
C739 C 0.45949 0.33424 0.37996 0.0
C740 C 0.45461 0.30872 0.37052 0.0
C741 C 0.46425 0.33228 0.36488 0.0
C742 C 0.40704 0.29932 0.40058 0.0
C743 C 0.40704 0.28708 0.39874 0.0
C744 C 0.39833 0.30182 0.39089 0.0
C745 C 0.39835 0.27757 0.38716 0.0
C746 C 0.38982 0.29206 0.37942 0.0
N747 N 0.39001 0.28024 0.37781 0.0
C748 C 0.42345 0.28967 0.43943 0.0
C749 C 0.4455 0.29787 0.42831 0.0
C750 C 0.42346 0.27831 0.44595 0.0
N751 N 0.43428 0.29901 0.43062 0.0
C752 C 0.44584 0.28653 0.43432 0.0
C753 C 0.43461 0.27643 0.44306 0.0
H754 H 0.41473 0.29096 0.44119 0.0
H755 H 0.45406 0.30561 0.42148 0.0
C756 C 0.42744 0.33252 0.366 0.0
N757 N 0.42658 0.32166 0.37416 0.0
C758 C 0.42595 0.33219 0.34886 0.0
C759 C 0.42272 0.30949 0.34877 0.0
C760 C 0.42431 0.31028 0.3659 0.0
C761 C 0.42359 0.32057 0.34002 0.0
H762 H 0.42942 0.34153 0.37278 0.0
H763 H 0.42389 0.30185 0.37254 0.0
O764 O 0.43578 0.3285 0.4378 0.0
O765 O 0.4314 0.34048 0.40601 0.0
O766 O 0.44716 0.32483 0.40509 0.0
O767 O 0.41541 0.30872 0.41194 0.0
H768 H 0.41581 0.3154 0.45936 0.0
H769 H 0.45743 0.32758 0.44819 0.0
H770 H 0.41756 0.30435 0.48493 0.0
H771 H 0.45845 0.31634 0.47399 0.0
H772 H 0.39789 0.35063 0.39786 0.0
H773 H 0.44106 0.36207 0.42552 0.0
H774 H 0.40853 0.33652 0.39237 0.0
H775 H 0.42991 0.37578 0.43032 0.0
H776 H 0.48591 0.37302 0.45016 0.0
H777 H 0.48155 0.38467 0.40062 0.0
H778 H 0.37292 0.31425 0.43357 0.0
H779 H 0.40348 0.34413 0.46608 0.0
H780 H 0.44372 0.30149 0.39344 0.0
H781 H 0.46143 0.34425 0.38338 0.0
H782 H 0.45271 0.2988 0.36666 0.0
H783 H 0.46994 0.34078 0.35665 0.0
H784 H 0.41374 0.28498 0.40606 0.0
H785 H 0.39831 0.3113 0.39198 0.0
H786 H 0.39828 0.26808 0.38557 0.0
H787 H 0.38311 0.29391 0.37176 0.0
H788 H 0.4147 0.271 0.45293 0.0
H789 H 0.45461 0.2855 0.43159 0.0
H790 H 0.42659 0.34092 0.34261 0.0
H791 H 0.42115 0.30042 0.34241 0.0
Li792 Li 0.0859 0.4185 0.92318 0.0
Li793 Li 0.09875 0.44244 0.92044 0.0
Li794 Li 0.09745 0.42873 0.89638 0.0
Li795 Li 0.11056 0.43036 0.92181 0.0
C796 C 0.07446 0.43549 0.90813 0.0
N797 N 0.05936 0.44842 0.90992 0.0
C798 C 0.06504 0.43236 0.92088 0.0
C799 C 0.07615 0.44515 0.89626 0.0
C800 C 0.0575 0.439 0.92156 0.0
C801 C 0.06845 0.4516 0.8974 0.0
C802 C 0.09808 0.43795 0.95273 0.0
C803 C 0.10797 0.45707 0.9714 0.0
N804 N 0.0961 0.45148 0.98002 0.0
C805 C 0.086 0.43238 0.9618 0.0
C806 C 0.10918 0.45037 0.9576 0.0
C807 C 0.0852 0.43938 0.97556 0.0
C808 C 0.07288 0.39704 0.94564 0.0
N809 N 0.07075 0.40305 0.93238 0.0
C810 C 0.04715 0.38643 0.9321 0.0
C811 C 0.05827 0.39792 0.92539 0.0
C812 C 0.04897 0.38002 0.94596 0.0
C813 C 0.06212 0.38539 0.95258 0.0
H814 H 0.083 0.40128 0.95076 0.0
H815 H 0.05694 0.40282 0.91465 0.0
C816 C 0.10857 0.47024 0.91606 0.0
N817 N 0.09957 0.45941 0.92519 0.0
C818 C 0.1091 0.48273 0.9175 0.0
C819 C 0.09123 0.47282 0.93794 0.0
C820 C 0.09103 0.4605 0.93607 0.0
C821 C 0.10024 0.48409 0.92841 0.0
H822 H 0.11513 0.46912 0.90733 0.0
H823 H 0.08376 0.45173 0.94297 0.0
C824 C 0.09152 0.40028 0.91098 0.0
N825 N 0.07802 0.37248 0.91581 0.0
C826 C 0.09637 0.39457 0.92253 0.0
C827 C 0.0798 0.39185 0.90189 0.0
C828 C 0.0894 0.38049 0.92477 0.0
C829 C 0.07312 0.37782 0.90452 0.0
C830 C 0.12712 0.45045 0.90322 0.0
C831 C 0.13193 0.44617 0.88995 0.0
C832 C 0.13632 0.4601 0.91431 0.0
C833 C 0.14592 0.45157 0.88807 0.0
C834 C 0.15024 0.46525 0.912 0.0
N835 N 0.15471 0.46091 0.89905 0.0
C836 C 0.09933 0.43871 0.86439 0.0
C837 C 0.09484 0.41598 0.86533 0.0
C838 C 0.0992 0.43848 0.84715 0.0
N839 N 0.09702 0.42752 0.87306 0.0
C840 C 0.09461 0.41529 0.8481 0.0
C841 C 0.09677 0.42664 0.83878 0.0
H842 H 0.10134 0.44785 0.87089 0.0
H843 H 0.09342 0.40736 0.87253 0.0
C844 C 0.13221 0.43549 0.94367 0.0
N845 N 0.12617 0.42989 0.929 0.0
C846 C 0.14359 0.43483 0.94885 0.0
C847 C 0.14212 0.4225 0.92383 0.0
C848 C 0.13088 0.42352 0.91906 0.0
C849 C 0.14859 0.42817 0.93891 0.0
H850 H 0.12818 0.44039 0.95137 0.0
H851 H 0.12583 0.41917 0.90746 0.0
O852 O 0.08206 0.42922 0.90737 0.0
O853 O 0.09909 0.43117 0.93933 0.0
O854 O 0.09798 0.41408 0.90892 0.0
O855 O 0.11345 0.44498 0.90558 0.0
H856 H 0.06375 0.42509 0.93034 0.0
H857 H 0.08341 0.44773 0.88635 0.0
H858 H 0.05024 0.43674 0.93141 0.0
H859 H 0.06972 0.45916 0.88835 0.0
H860 H 0.11644 0.46673 0.97524 0.0
H861 H 0.0773 0.42281 0.9582 0.0
H862 H 0.11856 0.45489 0.95063 0.0
H863 H 0.0759 0.43522 0.98265 0.0
H864 H 0.03722 0.38283 0.92669 0.0
H865 H 0.0641 0.38068 0.96302 0.0
H866 H 0.11629 0.49121 0.91003 0.0
H867 H 0.08409 0.47336 0.94631 0.0
H868 H 0.1053 0.40095 0.92986 0.0
H869 H 0.07575 0.39612 0.89314 0.0
H870 H 0.09301 0.37594 0.93371 0.0
H871 H 0.06398 0.37118 0.89766 0.0
H872 H 0.12492 0.43864 0.88132 0.0
H873 H 0.13274 0.46348 0.92466 0.0
H874 H 0.1498 0.44831 0.87791 0.0
H875 H 0.15748 0.47266 0.92054 0.0
H876 H 0.10083 0.44744 0.84047 0.0
H877 H 0.09297 0.40605 0.84214 0.0
H878 H 0.14828 0.43926 0.9606 0.0
H879 H 0.14579 0.41744 0.91573 0.0
Li880 Li 0.658 0.10366 0.41526 0.0
Li881 Li 0.6715 0.09374 0.42192 0.0
Li882 Li 0.68222 0.11767 0.41818 0.0
Li883 Li 0.67261 0.10203 0.39459 0.0
C884 C 0.66741 0.11526 0.44604 0.0
N885 N 0.66431 0.1325 0.4674 0.0
C886 C 0.6675 0.11347 0.46312 0.0
C887 C 0.66575 0.12582 0.43983 0.0
C888 C 0.66591 0.12229 0.47371 0.0
C889 C 0.6642 0.13443 0.45083 0.0
C890 C 0.64487 0.07591 0.41092 0.0
C891 C 0.62395 0.05508 0.40546 0.0
N892 N 0.62109 0.0537 0.4219 0.0
C893 C 0.64172 0.07429 0.42777 0.0
C894 C 0.63592 0.06624 0.39967 0.0
C895 C 0.62965 0.06299 0.43308 0.0
C896 C 0.63629 0.10661 0.4047 0.0
N897 N 0.64109 0.10297 0.41796 0.0
C898 C 0.62176 0.09885 0.43404 0.0
C899 C 0.63412 0.09911 0.43246 0.0
C900 C 0.61664 0.10273 0.42059 0.0
C901 C 0.62405 0.10663 0.40576 0.0
H902 H 0.64201 0.10951 0.39329 0.0
H903 H 0.63819 0.0963 0.44285 0.0
C904 C 0.68059 0.08488 0.44857 0.0
N905 N 0.67286 0.08047 0.43469 0.0
C906 C 0.68167 0.07565 0.45893 0.0
C907 C 0.66691 0.05755 0.44036 0.0
C908 C 0.66637 0.06717 0.43019 0.0
C909 C 0.67449 0.06169 0.45512 0.0
H910 H 0.68584 0.09559 0.45163 0.0
H911 H 0.66054 0.06398 0.41887 0.0
C912 C 0.67781 0.12815 0.3887 0.0
N913 N 0.69239 0.14837 0.36582 0.0
C914 C 0.69132 0.13199 0.38518 0.0
C915 C 0.67174 0.13461 0.38058 0.0
C916 C 0.69851 0.14222 0.37357 0.0
C917 C 0.67927 0.14481 0.36906 0.0
C918 C 0.69419 0.09759 0.40842 0.0
C919 C 0.70584 0.10127 0.41783 0.0
C920 C 0.68847 0.08563 0.39909 0.0
C921 C 0.71156 0.09287 0.41779 0.0
C922 C 0.69449 0.07751 0.39937 0.0
N923 N 0.70581 0.08126 0.40865 0.0
C924 C 0.7053 0.13425 0.43693 0.0
C925 C 0.69678 0.14648 0.42227 0.0
C926 C 0.71574 0.14628 0.44364 0.0
N927 N 0.69625 0.1346 0.42626 0.0
C928 C 0.70708 0.15875 0.42862 0.0
C929 C 0.7168 0.15877 0.43938 0.0
H930 H 0.7043 0.1246 0.44035 0.0
H931 H 0.6892 0.14647 0.41421 0.0
C932 C 0.66262 0.09388 0.36267 0.0
N933 N 0.67421 0.09961 0.37178 0.0
C934 C 0.66318 0.09235 0.34564 0.0
C935 C 0.68761 0.10262 0.34774 0.0
C936 C 0.68657 0.10389 0.36475 0.0
C937 C 0.67581 0.09683 0.33795 0.0
H938 H 0.65297 0.09069 0.36865 0.0
H939 H 0.69562 0.10843 0.37235 0.0
O940 O 0.66904 0.10669 0.43561 0.0
O941 O 0.65655 0.08694 0.40533 0.0
O942 O 0.67046 0.11804 0.39987 0.0
O943 O 0.68818 0.10545 0.40866 0.0
H944 H 0.66879 0.10534 0.46812 0.0
H945 H 0.66564 0.12739 0.42667 0.0
H946 H 0.66596 0.12102 0.48696 0.0
H947 H 0.66291 0.14264 0.44618 0.0
H948 H 0.61694 0.04751 0.39688 0.0
H949 H 0.64851 0.08164 0.43669 0.0
H950 H 0.6382 0.06737 0.38658 0.0
H951 H 0.6271 0.06161 0.44608 0.0
H952 H 0.61638 0.09588 0.44571 0.0
H953 H 0.62035 0.10951 0.39505 0.0
H954 H 0.68792 0.07943 0.4699 0.0
H955 H 0.66103 0.04694 0.43691 0.0
H956 H 0.69625 0.12718 0.39136 0.0
H957 H 0.66131 0.13179 0.38317 0.0
H958 H 0.70896 0.14528 0.37074 0.0
H959 H 0.67469 0.14989 0.36269 0.0
H960 H 0.7104 0.11048 0.42512 0.0
H961 H 0.67933 0.08253 0.39193 0.0
H962 H 0.72056 0.09557 0.42505 0.0
H963 H 0.69012 0.06819 0.39229 0.0
H964 H 0.72284 0.14579 0.45216 0.0
H965 H 0.70754 0.16813 0.4249 0.0
H966 H 0.65386 0.08801 0.33851 0.0
H967 H 0.69752 0.1061 0.3423 0.0
Li968 Li 0.57131 0.66981 0.91961 0.0
Li969 Li 0.5471 0.65942 0.91054 0.0
Li970 Li 0.56627 0.67544 0.89346 0.0
Li971 Li 0.56099 0.68408 0.91716 0.0
C972 C 0.56593 0.6479 0.90202 0.0
N973 N 0.57459 0.62922 0.9053 0.0
C974 C 0.55734 0.63516 0.909 0.0
C975 C 0.57885 0.65109 0.89653 0.0
C976 C 0.56192 0.62586 0.91058 0.0
C977 C 0.58307 0.64153 0.89836 0.0
C978 C 0.55424 0.67292 0.94682 0.0
C979 C 0.54145 0.67874 0.96557 0.0
N980 N 0.55223 0.6843 0.9761 0.0
C981 C 0.56519 0.67867 0.95782 0.0
C982 C 0.54226 0.67292 0.95071 0.0
C983 C 0.56397 0.68437 0.97257 0.0
C984 C 0.59666 0.67534 0.93288 0.0
N985 N 0.58312 0.66625 0.93234 0.0
C986 C 0.58579 0.65126 0.95055 0.0
C987 C 0.57755 0.6545 0.94111 0.0
C988 C 0.59988 0.66036 0.95129 0.0
C989 C 0.60528 0.67259 0.94235 0.0
H990 H 0.60075 0.68475 0.92606 0.0
H991 H 0.5667 0.64761 0.94068 0.0
C992 C 0.52482 0.63645 0.89683 0.0
N993 N 0.52982 0.64359 0.91106 0.0
C994 C 0.51221 0.62451 0.89677 0.0
C995 C 0.51024 0.62748 0.92605 0.0
C996 C 0.5229 0.63935 0.92554 0.0
C997 C 0.50475 0.61989 0.91153 0.0
H998 H 0.5307 0.63996 0.88558 0.0
H999 H 0.52728 0.64507 0.93673 0.0
C1000 C 0.58962 0.69796 0.90121 0.0
N1001 N 0.61075 0.71783 0.88291 0.0
C1002 C 0.59096 0.71082 0.89953 0.0
C1003 C 0.59908 0.69523 0.89371 0.0
C1004 C 0.60171 0.72073 0.8902 0.0
C1005 C 0.60966 0.7054 0.88446 0.0
C1006 C 0.54713 0.68052 0.88382 0.0
C1007 C 0.55277 0.69455 0.88186 0.0
C1008 C 0.54003 0.67179 0.87074 0.0
C1009 C 0.55126 0.69963 0.86677 0.0
C1010 C 0.53878 0.67727 0.85583 0.0
N1011 N 0.54437 0.69096 0.85417 0.0
C1012 C 0.56861 0.66689 0.86198 0.0
C1013 C 0.57699 0.69061 0.86303 0.0
C1014 C 0.5712 0.66758 0.84507 0.0
N1015 N 0.57153 0.67829 0.87062 0.0
C1016 C 0.57989 0.6918 0.84615 0.0
C1017 C 0.57692 0.68016 0.83689 0.0
H1018 H 0.56394 0.65715 0.86814 0.0
H1019 H 0.57887 0.69949 0.86995 0.0
C1020 C 0.57047 0.70745 0.93687 0.0
N1021 N 0.55995 0.69848 0.92732 0.0
C1022 C 0.56985 0.71803 0.94478 0.0
C1023 C 0.54747 0.70976 0.93305 0.0
C1024 C 0.54852 0.69933 0.92541 0.0
C1025 C 0.55827 0.71935 0.9428 0.0
H1026 H 0.57934 0.70635 0.93834 0.0
H1027 H 0.54026 0.69192 0.91788 0.0
O1028 O 0.56172 0.65722 0.90059 0.0
O1029 O 0.5554 0.66766 0.9321 0.0
O1030 O 0.57926 0.68819 0.91044 0.0
O1031 O 0.54874 0.67538 0.89839 0.0
H1032 H 0.5473 0.63252 0.91332 0.0
H1033 H 0.58557 0.66087 0.891 0.0
H1034 H 0.55543 0.61599 0.91606 0.0
H1035 H 0.59308 0.64389 0.89426 0.0
H1036 H 0.53227 0.67891 0.96868 0.0
H1037 H 0.57459 0.67888 0.95494 0.0
H1038 H 0.53377 0.66871 0.94221 0.0
H1039 H 0.57237 0.68891 0.98118 0.0
H1040 H 0.58116 0.64162 0.957 0.0
H1041 H 0.61602 0.68003 0.94278 0.0
H1042 H 0.50833 0.61901 0.88529 0.0
H1043 H 0.50494 0.62415 0.93774 0.0
H1044 H 0.58372 0.71311 0.90522 0.0
H1045 H 0.59822 0.68535 0.89495 0.0
H1046 H 0.60283 0.73071 0.88872 0.0
H1047 H 0.61702 0.70341 0.8785 0.0
H1048 H 0.55844 0.70146 0.89178 0.0
H1049 H 0.53566 0.66092 0.87202 0.0
H1050 H 0.55563 0.71046 0.86505 0.0
H1051 H 0.5334 0.67065 0.84556 0.0
H1052 H 0.56838 0.65826 0.83843 0.0
H1053 H 0.58436 0.70173 0.84043 0.0
H1054 H 0.57832 0.72509 0.95235 0.0
H1055 H 0.53844 0.7105 0.93102 0.0
Li1056 Li 0.57166 0.90263 0.91797 0.0
Li1057 Li 0.55812 0.87803 0.91777 0.0
Li1058 Li 0.5621 0.89087 0.89146 0.0
Li1059 Li 0.54636 0.89033 0.91258 0.0
C1060 C 0.58885 0.89519 0.90097 0.0
N1061 N 0.6155 0.90642 0.89061 0.0
C1062 C 0.59685 0.88983 0.90654 0.0
C1063 C 0.59436 0.90617 0.89002 0.0
C1064 C 0.61032 0.89568 0.9012 0.0
C1065 C 0.60786 0.91172 0.88495 0.0
C1066 C 0.55536 0.8852 0.94803 0.0
C1067 C 0.54214 0.86887 0.96907 0.0
N1068 N 0.55355 0.87331 0.9784 0.0
C1069 C 0.56694 0.8897 0.95787 0.0
C1070 C 0.54283 0.87479 0.95371 0.0
C1071 C 0.56582 0.88352 0.97318 0.0
C1072 C 0.5821 0.92685 0.93477 0.0
N1073 N 0.58574 0.91796 0.92878 0.0
C1074 C 0.60793 0.93091 0.9405 0.0
C1075 C 0.59834 0.91973 0.93147 0.0
C1076 C 0.60435 0.94012 0.94705 0.0
C1077 C 0.59129 0.93806 0.944 0.0
H1078 H 0.57194 0.92508 0.93255 0.0
H1079 H 0.60089 0.91234 0.927 0.0
C1080 C 0.5459 0.85001 0.9257 0.0
N1081 N 0.557 0.86249 0.9279 0.0
C1082 C 0.54519 0.83865 0.93327 0.0
C1083 C 0.56736 0.85323 0.94525 0.0
C1084 C 0.56764 0.8643 0.93741 0.0
C1085 C 0.55605 0.84017 0.94313 0.0
H1086 H 0.53768 0.84884 0.9179 0.0
H1087 H 0.57635 0.87436 0.9389 0.0
C1088 C 0.56431 0.9178 0.89252 0.0
N1089 N 0.57061 0.94119 0.87515 0.0
C1090 C 0.554 0.91936 0.8853 0.0
C1091 C 0.57782 0.92828 0.8912 0.0
C1092 C 0.55739 0.93121 0.87647 0.0
C1093 C 0.5808 0.93998 0.8823 0.0
C1094 C 0.53187 0.8669 0.8952 0.0
C1095 C 0.52809 0.86553 0.87856 0.0
C1096 C 0.52193 0.86017 0.90729 0.0
C1097 C 0.51437 0.85758 0.87432 0.0
C1098 C 0.50833 0.85233 0.90255 0.0
N1099 N 0.50486 0.85122 0.8863 0.0
C1100 C 0.57248 0.8866 0.86131 0.0
C1101 C 0.55824 0.89621 0.85879 0.0
C1102 C 0.57435 0.88719 0.8442 0.0
N1103 N 0.5647 0.89129 0.86823 0.0
C1104 C 0.55982 0.89699 0.84169 0.0
C1105 C 0.56806 0.89255 0.83417 0.0
H1106 H 0.57725 0.88244 0.86907 0.0
H1107 H 0.55166 0.89932 0.86453 0.0
C1108 C 0.52758 0.89424 0.93109 0.0
N1109 N 0.53026 0.8912 0.9158 0.0
C1110 C 0.51582 0.89497 0.93384 0.0
C1111 C 0.50978 0.88928 0.9051 0.0
C1112 C 0.52179 0.88898 0.90282 0.0
C1113 C 0.50674 0.89231 0.92076 0.0
H1114 H 0.5346 0.89613 0.94113 0.0
H1115 H 0.52435 0.88698 0.89069 0.0
O1116 O 0.57568 0.88963 0.90621 0.0
O1117 O 0.55631 0.89095 0.93288 0.0
O1118 O 0.56113 0.90631 0.9014 0.0
O1119 O 0.54524 0.87474 0.89957 0.0
H1120 H 0.59272 0.88128 0.91494 0.0
H1121 H 0.58824 0.91024 0.88532 0.0
H1122 H 0.61665 0.89167 0.90546 0.0
H1123 H 0.61225 0.92022 0.87647 0.0
H1124 H 0.53252 0.86074 0.97359 0.0
H1125 H 0.57672 0.89775 0.95367 0.0
H1126 H 0.53376 0.8713 0.94631 0.0
H1127 H 0.57471 0.88683 0.98088 0.0
H1128 H 0.61787 0.93211 0.94278 0.0
H1129 H 0.58821 0.94503 0.94876 0.0
H1130 H 0.53641 0.82873 0.93103 0.0
H1131 H 0.5759 0.85487 0.95283 0.0
H1132 H 0.54348 0.91146 0.88636 0.0
H1133 H 0.58592 0.92749 0.89711 0.0
H1134 H 0.54951 0.93248 0.8707 0.0
H1135 H 0.59121 0.94814 0.88113 0.0
H1136 H 0.53565 0.87055 0.86902 0.0
H1137 H 0.52467 0.86112 0.92021 0.0
H1138 H 0.5113 0.85647 0.8615 0.0
H1139 H 0.50052 0.84716 0.9118 0.0
H1140 H 0.58078 0.88364 0.8389 0.0
H1141 H 0.55447 0.90083 0.8344 0.0
H1142 H 0.51375 0.89739 0.94606 0.0
H1143 H 0.50305 0.88737 0.89471 0.0
Li1144 Li 0.66412 0.57381 0.42147 0.0
Li1145 Li 0.67476 0.56018 0.4189 0.0
Li1146 Li 0.66425 0.56412 0.39477 0.0
Li1147 Li 0.65099 0.54919 0.41699 0.0
C1148 C 0.68525 0.59022 0.40072 0.0
N1149 N 0.69587 0.61555 0.38627 0.0
C1150 C 0.69931 0.59889 0.39998 0.0
C1151 C 0.67658 0.59443 0.39413 0.0
C1152 C 0.70449 0.61166 0.39262 0.0
C1153 C 0.68215 0.60727 0.38687 0.0
C1154 C 0.66774 0.55682 0.4501 0.0
C1155 C 0.67411 0.54266 0.4655 0.0
N1156 N 0.67997 0.55254 0.47719 0.0
C1157 C 0.67368 0.56675 0.46238 0.0
C1158 C 0.6678 0.5446 0.45179 0.0
C1159 C 0.67986 0.56443 0.47594 0.0
C1160 C 0.65682 0.59389 0.43033 0.0
N1161 N 0.66616 0.58981 0.43188 0.0
C1162 C 0.67997 0.60884 0.44927 0.0
C1163 C 0.67778 0.59725 0.44068 0.0
C1164 C 0.67013 0.61287 0.44862 0.0
C1165 C 0.65855 0.60534 0.43875 0.0
H1166 H 0.64796 0.58827 0.4227 0.0
H1167 H 0.6853 0.59406 0.44118 0.0
C1168 C 0.69079 0.54776 0.42314 0.0
N1169 N 0.69005 0.55915 0.42602 0.0
C1170 C 0.70203 0.54698 0.42857 0.0
C1171 C 0.71157 0.56974 0.43963 0.0
C1172 C 0.7001 0.57004 0.43409 0.0
C1173 C 0.71263 0.5581 0.43684 0.0
H1174 H 0.68267 0.53931 0.41659 0.0
H1175 H 0.69916 0.57894 0.43621 0.0
C1176 C 0.63689 0.56303 0.41176 0.0
N1177 N 0.61351 0.56191 0.4236 0.0
C1178 C 0.63328 0.56008 0.42842 0.0
C1179 C 0.62855 0.56537 0.40115 0.0
C1180 C 0.62143 0.55957 0.43415 0.0
C1181 C 0.6168 0.56477 0.40737 0.0
C1182 C 0.65532 0.5341 0.39608 0.0
C1183 C 0.6488 0.53188 0.3808 0.0
C1184 C 0.65315 0.52298 0.40573 0.0
C1185 C 0.64008 0.51856 0.37552 0.0
C1186 C 0.64433 0.50982 0.40004 0.0
N1187 N 0.63803 0.5079 0.38518 0.0
C1188 C 0.67729 0.56981 0.36384 0.0
C1189 C 0.65545 0.56772 0.36364 0.0
C1190 C 0.67866 0.57237 0.34686 0.0
N1191 N 0.66581 0.56753 0.37178 0.0
C1192 C 0.65639 0.57025 0.3467 0.0
C1193 C 0.66809 0.57257 0.33805 0.0
H1194 H 0.68535 0.5696 0.3707 0.0
H1195 H 0.64646 0.56585 0.37032 0.0
C1196 C 0.63187 0.52642 0.43604 0.0
N1197 N 0.63423 0.53303 0.42136 0.0
C1198 C 0.61966 0.51434 0.43871 0.0
C1199 C 0.61241 0.51635 0.41127 0.0
C1200 C 0.62474 0.52836 0.40914 0.0
C1201 C 0.60977 0.50912 0.42618 0.0
H1202 H 0.63945 0.53049 0.44568 0.0
H1203 H 0.62686 0.53392 0.39765 0.0
O1204 O 0.68009 0.57771 0.40794 0.0
O1205 O 0.66184 0.55901 0.43656 0.0
O1206 O 0.64834 0.5634 0.40571 0.0
O1207 O 0.66369 0.54708 0.40161 0.0
H1208 H 0.70615 0.59578 0.40507 0.0
H1209 H 0.66567 0.58789 0.39462 0.0
H1210 H 0.71535 0.61848 0.39197 0.0
H1211 H 0.67556 0.61066 0.38172 0.0
H1212 H 0.67437 0.53332 0.46683 0.0
H1213 H 0.67344 0.57612 0.46154 0.0
H1214 H 0.66324 0.53679 0.44245 0.0
H1215 H 0.68454 0.57206 0.48549 0.0
H1216 H 0.68918 0.61449 0.45644 0.0
H1217 H 0.65063 0.60798 0.43792 0.0
H1218 H 0.70257 0.53791 0.42596 0.0
H1219 H 0.71951 0.57849 0.44603 0.0
H1220 H 0.6395 0.55823 0.43689 0.0
H1221 H 0.63113 0.56766 0.38824 0.0
H1222 H 0.61854 0.55731 0.447 0.0
H1223 H 0.61028 0.56659 0.39929 0.0
H1224 H 0.65032 0.54031 0.37315 0.0
H1225 H 0.65808 0.52446 0.41759 0.0
H1226 H 0.63491 0.5167 0.36377 0.0
H1227 H 0.64248 0.50113 0.40746 0.0
H1228 H 0.68778 0.57394 0.34067 0.0
H1229 H 0.64807 0.57049 0.34047 0.0
H1230 H 0.61794 0.5092 0.45048 0.0
H1231 H 0.60514 0.51264 0.40122 0.0
Li1232 Li 0.11468 0.67732 0.91904 0.0
Li1233 Li 0.09081 0.66596 0.92066 0.0
Li1234 Li 0.10304 0.65265 0.91774 0.0
Li1235 Li 0.10123 0.66653 0.89479 0.0
C1236 C 0.11115 0.66831 0.95041 0.0
N1237 N 0.12688 0.67661 0.97873 0.0
C1238 C 0.11372 0.68025 0.95849 0.0
C1239 C 0.11658 0.66059 0.95678 0.0
C1240 C 0.12171 0.68428 0.97277 0.0
C1241 C 0.1245 0.66496 0.9711 0.0
C1242 C 0.09583 0.68912 0.9093 0.0
C1243 C 0.07747 0.69318 0.90253 0.0
N1244 N 0.08163 0.70266 0.91473 0.0
C1245 C 0.09992 0.69892 0.92177 0.0
C1246 C 0.08453 0.68624 0.89957 0.0
C1247 C 0.09261 0.70566 0.92431 0.0
C1248 C 0.13382 0.70491 0.91847 0.0
N1249 N 0.13137 0.69304 0.92548 0.0
C1250 C 0.15237 0.7045 0.94033 0.0
C1251 C 0.14055 0.69256 0.93587 0.0
C1252 C 0.15484 0.71698 0.93379 0.0
C1253 C 0.14548 0.71705 0.92251 0.0
H1254 H 0.12673 0.70497 0.90962 0.0
H1255 H 0.13871 0.68294 0.94074 0.0
C1256 C 0.06282 0.65744 0.9249 0.0
N1257 N 0.07554 0.6656 0.93093 0.0
C1258 C 0.05163 0.65718 0.93245 0.0
C1259 C 0.0669 0.67382 0.95216 0.0
C1260 C 0.07773 0.67366 0.94431 0.0
C1261 C 0.05361 0.6654 0.94635 0.0
H1262 H 0.06132 0.65101 0.91435 0.0
H1263 H 0.08791 0.68006 0.94886 0.0
C1264 C 0.1307 0.67308 0.89949 0.0
N1265 N 0.15824 0.68911 0.89373 0.0
C1266 C 0.13542 0.68355 0.88784 0.0
C1267 C 0.13995 0.67071 0.90816 0.0
C1268 C 0.14939 0.69156 0.88512 0.0
C1269 C 0.15384 0.67894 0.90508 0.0
C1270 C 0.079 0.64221 0.89306 0.0
C1271 C 0.07954 0.63051 0.88911 0.0
C1272 C 0.07107 0.64583 0.88344 0.0
C1273 C 0.07229 0.62273 0.87546 0.0
C1274 C 0.06399 0.63779 0.86987 0.0
N1275 N 0.06474 0.62651 0.86619 0.0
C1276 C 0.09456 0.6274 0.93356 0.0
C1277 C 0.11153 0.63372 0.91298 0.0
C1278 C 0.09401 0.61494 0.93583 0.0
N1279 N 0.10319 0.63642 0.92223 0.0
C1280 C 0.11132 0.62142 0.91482 0.0
C1281 C 0.10236 0.61176 0.92622 0.0
H1282 H 0.08793 0.6298 0.94058 0.0
H1283 H 0.11812 0.641 0.90387 0.0
C1284 C 0.10016 0.67756 0.86367 0.0
N1285 N 0.10072 0.66724 0.87141 0.0
C1286 C 0.10009 0.67811 0.84643 0.0
C1287 C 0.1014 0.65751 0.84552 0.0
C1288 C 0.10155 0.65743 0.86274 0.0
C1289 C 0.10068 0.66797 0.83711 0.0
H1290 H 0.09997 0.68548 0.87086 0.0
H1291 H 0.10233 0.64954 0.86925 0.0
O1292 O 0.1032 0.66405 0.93653 0.0
O1293 O 0.1027 0.68222 0.90681 0.0
O1294 O 0.11709 0.6654 0.90265 0.0
O1295 O 0.0862 0.65009 0.90624 0.0
H1296 H 0.10991 0.68655 0.95358 0.0
H1297 H 0.11475 0.65134 0.95071 0.0
H1298 H 0.12386 0.69356 0.97905 0.0
H1299 H 0.12878 0.65909 0.97613 0.0
H1300 H 0.06867 0.69099 0.89514 0.0
H1301 H 0.10848 0.70114 0.92963 0.0
H1302 H 0.08114 0.67865 0.88994 0.0
H1303 H 0.09563 0.71321 0.93398 0.0
H1304 H 0.15938 0.70396 0.94895 0.0
H1305 H 0.14722 0.72637 0.91669 0.0
H1306 H 0.04154 0.65036 0.92772 0.0
H1307 H 0.06894 0.68045 0.96269 0.0
H1308 H 0.12838 0.68557 0.88112 0.0
H1309 H 0.13645 0.66274 0.91736 0.0
H1310 H 0.15321 0.69975 0.87621 0.0
H1311 H 0.16114 0.67729 0.91177 0.0
H1312 H 0.08555 0.6275 0.89642 0.0
H1313 H 0.07053 0.65484 0.88628 0.0
H1314 H 0.07268 0.61369 0.87221 0.0
H1315 H 0.05791 0.64054 0.86225 0.0
H1316 H 0.08685 0.60772 0.94461 0.0
H1317 H 0.11803 0.61944 0.90729 0.0
H1318 H 0.09984 0.68652 0.8405 0.0
H1319 H 0.10175 0.64941 0.83889 0.0
Li1320 Li 0.42285 0.08932 0.41987 0.0
Li1321 Li 0.43605 0.11334 0.41919 0.0
Li1322 Li 0.43225 0.10057 0.39405 0.0
Li1323 Li 0.44841 0.10118 0.41572 0.0
C1324 C 0.40499 0.09599 0.41003 0.0
N1325 N 0.37726 0.08367 0.41515 0.0
C1326 C 0.39983 0.10069 0.42248 0.0
C1327 C 0.39601 0.08507 0.40013 0.0
C1328 C 0.38579 0.09432 0.42488 0.0
C1329 C 0.38204 0.07896 0.40294 0.0
C1330 C 0.44081 0.10787 0.45013 0.0
C1331 C 0.45655 0.11995 0.47224 0.0
N1332 N 0.44677 0.12145 0.48002 0.0
C1333 C 0.43092 0.10953 0.45837 0.0
C1334 C 0.45374 0.11313 0.45711 0.0
C1335 C 0.43413 0.11643 0.47345 0.0
C1336 C 0.40499 0.06123 0.4243 0.0
N1337 N 0.40797 0.07375 0.4297 0.0
C1338 C 0.38977 0.06391 0.44922 0.0
C1339 C 0.40066 0.07526 0.44197 0.0
C1340 C 0.38651 0.05083 0.444 0.0
C1341 C 0.39425 0.04958 0.4313 0.0
H1342 H 0.41108 0.06027 0.41474 0.0
H1343 H 0.40325 0.08526 0.44618 0.0
C1344 C 0.42891 0.13335 0.41968 0.0
N1345 N 0.43763 0.13001 0.42692 0.0
C1346 C 0.42857 0.14489 0.42466 0.0
C1347 C 0.44683 0.14996 0.4438 0.0
C1348 C 0.44682 0.13827 0.4384 0.0
C1349 C 0.43743 0.15323 0.4371 0.0
H1350 H 0.42215 0.12698 0.41002 0.0
H1351 H 0.45412 0.13582 0.44344 0.0
C1352 C 0.43298 0.07749 0.39049 0.0
N1353 N 0.43205 0.06269 0.36291 0.0
C1354 C 0.44465 0.07739 0.38523 0.0
C1355 C 0.4208 0.0699 0.38185 0.0
C1356 C 0.44398 0.06987 0.37123 0.0
C1357 C 0.42055 0.06254 0.36789 0.0
C1358 C 0.45777 0.12969 0.40193 0.0
C1359 C 0.45483 0.13766 0.39146 0.0
C1360 C 0.46879 0.13591 0.41279 0.0
C1361 C 0.46297 0.1518 0.3921 0.0
C1362 C 0.4767 0.15008 0.41303 0.0
N1363 N 0.47364 0.15766 0.40278 0.0
C1364 C 0.4193 0.10145 0.36458 0.0
C1365 C 0.43932 0.10015 0.36084 0.0
C1366 C 0.41753 0.10144 0.34751 0.0
N1367 N 0.42996 0.10061 0.37085 0.0
C1368 C 0.43784 0.09992 0.34372 0.0
C1369 C 0.42681 0.10054 0.33689 0.0
H1370 H 0.41222 0.10218 0.37282 0.0
H1371 H 0.44794 0.09994 0.36618 0.0
C1372 C 0.46649 0.09426 0.43165 0.0
N1373 N 0.46477 0.10096 0.41881 0.0
C1374 C 0.47879 0.09439 0.43355 0.0
C1375 C 0.48705 0.10798 0.40873 0.0
C1376 C 0.47467 0.10767 0.40739 0.0
C1377 C 0.48929 0.10137 0.42201 0.0
H1378 H 0.45836 0.08892 0.44047 0.0
H1379 H 0.47289 0.1127 0.39715 0.0
O1380 O 0.41873 0.10203 0.40755 0.0
O1381 O 0.43784 0.101 0.43544 0.0
O1382 O 0.43349 0.08495 0.40404 0.0
O1383 O 0.44974 0.11586 0.40177 0.0
H1384 H 0.40658 0.109 0.43043 0.0
H1385 H 0.39979 0.08133 0.3904 0.0
H1386 H 0.38168 0.09781 0.43454 0.0
H1387 H 0.375 0.07047 0.3954 0.0
H1388 H 0.46652 0.12409 0.47776 0.0
H1389 H 0.42099 0.10582 0.45301 0.0
H1390 H 0.46157 0.11207 0.45087 0.0
H1391 H 0.4266 0.11787 0.47989 0.0
H1392 H 0.38402 0.06538 0.45885 0.0
H1393 H 0.3923 0.0397 0.42712 0.0
H1394 H 0.42148 0.1473 0.41873 0.0
H1395 H 0.45396 0.15622 0.45327 0.0
H1396 H 0.45414 0.08309 0.39182 0.0
H1397 H 0.41165 0.06976 0.38581 0.0
H1398 H 0.45296 0.06977 0.36697 0.0
H1399 H 0.41121 0.05671 0.36103 0.0
H1400 H 0.44629 0.13296 0.38305 0.0
H1401 H 0.4711 0.12987 0.42111 0.0
H1402 H 0.4608 0.15812 0.38412 0.0
H1403 H 0.48521 0.15504 0.42143 0.0
H1404 H 0.40892 0.10199 0.34267 0.0
H1405 H 0.44535 0.09948 0.3359 0.0
H1406 H 0.4801 0.08923 0.44404 0.0
H1407 H 0.49471 0.11321 0.39933 0.0
Li1408 Li 0.31432 0.43746 0.9185 0.0
Li1409 Li 0.32908 0.42772 0.91822 0.0
Li1410 Li 0.33761 0.45156 0.91124 0.0
Li1411 Li 0.32253 0.43334 0.89244 0.0
C1412 C 0.32551 0.44273 0.94775 0.0
N1413 N 0.31424 0.44263 0.97804 0.0
C1414 C 0.3214 0.43172 0.95849 0.0
C1415 C 0.32398 0.45373 0.95245 0.0
C1416 C 0.31572 0.43186 0.97375 0.0
C1417 C 0.31822 0.45347 0.9678 0.0
C1418 C 0.3007 0.40988 0.89981 0.0
C1419 C 0.29305 0.39095 0.88103 0.0
N1420 N 0.28079 0.39029 0.87987 0.0
C1421 C 0.28801 0.40899 0.89849 0.0
C1422 C 0.30323 0.40075 0.89108 0.0
C1423 C 0.27808 0.39902 0.88833 0.0
C1424 C 0.29541 0.44597 0.92546 0.0
N1425 N 0.29901 0.43652 0.92902 0.0
C1426 C 0.27957 0.42441 0.94634 0.0
C1427 C 0.29146 0.42592 0.93932 0.0
C1428 C 0.27539 0.43384 0.94259 0.0
C1429 C 0.2836 0.44485 0.93218 0.0
H1430 H 0.30149 0.45416 0.91702 0.0
H1431 H 0.29453 0.41848 0.94175 0.0
C1432 C 0.34568 0.42107 0.93669 0.0
N1433 N 0.33346 0.41564 0.92894 0.0
C1434 C 0.34972 0.41262 0.94418 0.0
C1435 C 0.32813 0.39319 0.93653 0.0
C1436 C 0.32461 0.40202 0.92886 0.0
C1437 C 0.3409 0.39852 0.94407 0.0
H1438 H 0.35233 0.43197 0.93693 0.0
H1439 H 0.31486 0.39802 0.92285 0.0
C1440 C 0.32652 0.46226 0.89284 0.0
N1441 N 0.338 0.48831 0.88027 0.0
C1442 C 0.33026 0.46472 0.87619 0.0
C1443 C 0.32855 0.47304 0.90307 0.0
C1444 C 0.33605 0.47796 0.87007 0.0
C1445 C 0.3344 0.48614 0.89648 0.0
C1446 C 0.35063 0.43458 0.8993 0.0
C1447 C 0.36358 0.44337 0.90563 0.0
C1448 C 0.34756 0.42182 0.8933 0.0
C1449 C 0.37323 0.43917 0.90598 0.0
C1450 C 0.35748 0.41798 0.8939 0.0
N1451 N 0.37 0.42666 0.90018 0.0
C1452 C 0.35725 0.47634 0.92615 0.0
C1453 C 0.36035 0.47398 0.89761 0.0
C1454 C 0.36909 0.48903 0.92652 0.0
N1455 N 0.35317 0.46914 0.91184 0.0
C1456 C 0.37223 0.4866 0.8974 0.0
C1457 C 0.37681 0.49426 0.91203 0.0
H1458 H 0.35143 0.47214 0.93733 0.0
H1459 H 0.3569 0.46793 0.88646 0.0
C1460 C 0.30666 0.4262 0.86308 0.0
N1461 N 0.31868 0.42873 0.86976 0.0
C1462 C 0.30421 0.42348 0.84621 0.0
C1463 C 0.32671 0.42642 0.84338 0.0
C1464 C 0.32865 0.4289 0.86031 0.0
C1465 C 0.31437 0.42368 0.83607 0.0
H1466 H 0.29906 0.42649 0.87081 0.0
H1467 H 0.33826 0.43135 0.86583 0.0
O1468 O 0.33087 0.44268 0.93264 0.0
O1469 O 0.3106 0.41964 0.90957 0.0
O1470 O 0.32107 0.44941 0.89914 0.0
O1471 O 0.34097 0.43841 0.8991 0.0
H1472 H 0.32247 0.4231 0.95503 0.0
H1473 H 0.32701 0.46229 0.94424 0.0
H1474 H 0.31243 0.42338 0.98215 0.0
H1475 H 0.31687 0.46186 0.97155 0.0
H1476 H 0.29489 0.38387 0.87413 0.0
H1477 H 0.28588 0.416 0.90508 0.0
H1478 H 0.313 0.40131 0.89196 0.0
H1479 H 0.26823 0.39825 0.88713 0.0
H1480 H 0.27358 0.41582 0.95437 0.0
H1481 H 0.28063 0.4522 0.92869 0.0
H1482 H 0.35957 0.41706 0.95013 0.0
H1483 H 0.32108 0.38234 0.93633 0.0
H1484 H 0.3288 0.45652 0.8681 0.0
H1485 H 0.32583 0.47134 0.91601 0.0
H1486 H 0.33905 0.48002 0.85723 0.0
H1487 H 0.33613 0.49459 0.90429 0.0
H1488 H 0.36612 0.45325 0.91041 0.0
H1489 H 0.33759 0.41489 0.88838 0.0
H1490 H 0.38327 0.44583 0.91093 0.0
H1491 H 0.35521 0.4081 0.88941 0.0
H1492 H 0.37237 0.49451 0.9381 0.0
H1493 H 0.37778 0.49031 0.88592 0.0
H1494 H 0.29451 0.42135 0.84117 0.0
H1495 H 0.33499 0.42706 0.83606 0.0
Li1496 Li 0.87694 0.32005 0.42088 0.0
Li1497 Li 0.90141 0.32941 0.41935 0.0
Li1498 Li 0.8908 0.34417 0.4161 0.0
Li1499 Li 0.88941 0.32893 0.39382 0.0
C1500 C 0.88601 0.33032 0.4514 0.0
N1501 N 0.87546 0.32285 0.48292 0.0
C1502 C 0.89131 0.32461 0.46231 0.0
C1503 C 0.87551 0.33246 0.45664 0.0
C1504 C 0.8858 0.32084 0.47816 0.0
C1505 C 0.87026 0.32855 0.47258 0.0
C1506 C 0.89061 0.30349 0.40543 0.0
C1507 C 0.90315 0.29463 0.39106 0.0
N1508 N 0.89776 0.2837 0.40134 0.0
C1509 C 0.88503 0.29204 0.41566 0.0
C1510 C 0.8996 0.30469 0.39287 0.0
C1511 C 0.88884 0.2822 0.41347 0.0
C1512 C 0.84862 0.304 0.42502 0.0
N1513 N 0.86079 0.30626 0.43085 0.0
C1514 C 0.84976 0.28788 0.44996 0.0
C1515 C 0.86157 0.29854 0.44316 0.0
C1516 C 0.83703 0.28514 0.44397 0.0
C1517 C 0.83654 0.29347 0.43148 0.0
H1518 H 0.84828 0.31016 0.41505 0.0
H1519 H 0.87138 0.30047 0.44748 0.0
C1520 C 0.92893 0.33971 0.42687 0.0
N1521 N 0.91641 0.32849 0.42821 0.0
C1522 C 0.94022 0.33988 0.43384 0.0
C1523 C 0.92552 0.31705 0.44389 0.0
C1524 C 0.91452 0.31725 0.43648 0.0
C1525 C 0.93855 0.3285 0.44263 0.0
H1526 H 0.93011 0.34869 0.42076 0.0
H1527 H 0.90442 0.30863 0.43788 0.0
C1528 C 0.86743 0.33763 0.40023 0.0
N1529 N 0.85377 0.35157 0.39382 0.0
C1530 C 0.86745 0.34242 0.38431 0.0
C1531 C 0.86024 0.33971 0.4128 0.0
C1532 C 0.86054 0.3495 0.38134 0.0
C1533 C 0.85346 0.34685 0.40935 0.0
C1534 C 0.91634 0.35067 0.39234 0.0
C1535 C 0.92043 0.3638 0.38668 0.0
C1536 C 0.92307 0.34399 0.38668 0.0
C1537 C 0.93095 0.36986 0.37514 0.0
C1538 C 0.93355 0.35039 0.37515 0.0
N1539 N 0.93723 0.36308 0.36964 0.0
C1540 C 0.89391 0.36632 0.43572 0.0
C1541 C 0.89306 0.36898 0.40677 0.0
C1542 C 0.89518 0.37905 0.43848 0.0
N1543 N 0.8928 0.36155 0.42005 0.0
C1544 C 0.89431 0.38172 0.40894 0.0
C1545 C 0.89539 0.38692 0.42497 0.0
H1546 H 0.89386 0.36028 0.44606 0.0
H1547 H 0.89227 0.36498 0.39444 0.0
C1548 C 0.88373 0.31452 0.36336 0.0
N1549 N 0.88901 0.327 0.37046 0.0
C1550 C 0.88379 0.31329 0.34618 0.0
C1551 C 0.89435 0.33772 0.344 0.0
C1552 C 0.89409 0.33847 0.36116 0.0
C1553 C 0.88919 0.32501 0.33627 0.0
H1554 H 0.87948 0.30553 0.37104 0.0
H1555 H 0.89785 0.34822 0.36707 0.0
O1556 O 0.89121 0.33395 0.43576 0.0
O1557 O 0.88698 0.31323 0.40741 0.0
O1558 O 0.87431 0.33084 0.40343 0.0
O1559 O 0.90595 0.34453 0.40353 0.0
H1560 H 0.89957 0.32306 0.4586 0.0
H1561 H 0.87145 0.33709 0.44851 0.0
H1562 H 0.88976 0.31633 0.48669 0.0
H1563 H 0.86207 0.33007 0.47674 0.0
H1564 H 0.91013 0.29548 0.38143 0.0
H1565 H 0.8779 0.29078 0.42526 0.0
H1566 H 0.90365 0.31319 0.38444 0.0
H1567 H 0.88468 0.27336 0.42141 0.0
H1568 H 0.85058 0.28174 0.45962 0.0
H1569 H 0.82694 0.29155 0.42631 0.0
H1570 H 0.95007 0.34903 0.43296 0.0
H1571 H 0.92384 0.30814 0.45075 0.0
H1572 H 0.87277 0.34074 0.37436 0.0
H1573 H 0.85986 0.33585 0.42509 0.0
H1574 H 0.86056 0.35334 0.3691 0.0
H1575 H 0.84794 0.3486 0.41901 0.0
H1576 H 0.91553 0.36925 0.3911 0.0
H1577 H 0.9204 0.33407 0.39134 0.0
H1578 H 0.93414 0.37997 0.37057 0.0
H1579 H 0.93882 0.3453 0.37066 0.0
H1580 H 0.89616 0.38275 0.45103 0.0
H1581 H 0.89425 0.38736 0.39818 0.0
H1582 H 0.87951 0.30327 0.34071 0.0
H1583 H 0.89869 0.34703 0.33687 0.0
Li1584 Li 0.09951 0.44657 0.58148 0.0
Li1585 Li 0.09679 0.43044 0.60322 0.0
Li1586 Li 0.11179 0.43382 0.57904 0.0
Li1587 Li 0.08714 0.42119 0.57673 0.0
C1588 C 0.12578 0.45881 0.59777 0.0
N1589 N 0.15044 0.48261 0.60069 0.0
C1590 C 0.13046 0.46474 0.61329 0.0
C1591 C 0.13371 0.46491 0.58378 0.0
C1592 C 0.14293 0.4768 0.6145 0.0
C1593 C 0.14614 0.47695 0.58549 0.0
C1594 C 0.07414 0.43133 0.60436 0.0
C1595 C 0.05733 0.41823 0.62502 0.0
N1596 N 0.05834 0.42987 0.63109 0.0
C1597 C 0.07493 0.44315 0.6107 0.0
C1598 C 0.0652 0.41875 0.61146 0.0
C1599 C 0.06688 0.4422 0.62425 0.0
C1600 C 0.09434 0.46493 0.56351 0.0
N1601 N 0.10017 0.46332 0.57735 0.0
C1602 C 0.10744 0.48605 0.5859 0.0
C1603 C 0.10646 0.47348 0.58859 0.0
C1604 C 0.1018 0.48817 0.57154 0.0
C1605 C 0.09508 0.47738 0.5603 0.0
H1606 H 0.08925 0.4566 0.55488 0.0
H1607 H 0.11061 0.47178 0.59976 0.0
C1608 C 0.09294 0.41668 0.63397 0.0
N1609 N 0.09529 0.42838 0.62649 0.0
C1610 C 0.09239 0.41569 0.65119 0.0
C1611 C 0.09667 0.43877 0.6526 0.0
C1612 C 0.09713 0.43931 0.6354 0.0
C1613 C 0.09439 0.42689 0.66074 0.0
H1614 H 0.09171 0.40821 0.62658 0.0
H1615 H 0.09907 0.4485 0.62909 0.0
C1616 C 0.10559 0.44031 0.54669 0.0
N1617 N 0.116 0.44871 0.51524 0.0
C1618 C 0.10266 0.43075 0.53415 0.0
C1619 C 0.11373 0.45416 0.54314 0.0
C1620 C 0.10804 0.43519 0.51836 0.0
C1621 C 0.11892 0.45819 0.5272 0.0
C1622 C 0.09392 0.40316 0.58827 0.0
C1623 C 0.10115 0.39868 0.57868 0.0
C1624 C 0.08156 0.39366 0.59539 0.0
C1625 C 0.09581 0.38475 0.57624 0.0
C1626 C 0.07655 0.37981 0.59264 0.0
N1627 N 0.08372 0.37568 0.58319 0.0
C1628 C 0.13394 0.43086 0.58523 0.0
C1629 C 0.1339 0.43783 0.55762 0.0
C1630 C 0.14568 0.43021 0.58227 0.0
N1631 N 0.12823 0.43447 0.57294 0.0
C1632 C 0.1457 0.43739 0.55413 0.0
C1633 C 0.15163 0.43339 0.56651 0.0
H1634 H 0.12921 0.4283 0.5973 0.0
H1635 H 0.1293 0.44075 0.54804 0.0
C1636 C 0.05977 0.40442 0.56696 0.0
N1637 N 0.07261 0.4066 0.56523 0.0
C1638 C 0.04913 0.39423 0.5578 0.0
C1639 C 0.06509 0.38856 0.5456 0.0
C1640 C 0.0754 0.39887 0.55492 0.0
C1641 C 0.05178 0.38627 0.54676 0.0
H1642 H 0.05786 0.41081 0.57513 0.0
H1643 H 0.08569 0.40085 0.55371 0.0
O1644 O 0.11356 0.44702 0.5964 0.0
O1645 O 0.08214 0.43208 0.59131 0.0
O1646 O 0.1003 0.43613 0.5622 0.0
O1647 O 0.09895 0.41677 0.59072 0.0
H1648 H 0.12452 0.4601 0.62428 0.0
H1649 H 0.1304 0.46033 0.57175 0.0
H1650 H 0.14664 0.48153 0.62642 0.0
H1651 H 0.15237 0.48177 0.57474 0.0
H1652 H 0.05043 0.40858 0.63072 0.0
H1653 H 0.08176 0.45296 0.60531 0.0
H1654 H 0.06439 0.40951 0.60663 0.0
H1655 H 0.06745 0.45127 0.62936 0.0
H1656 H 0.1124 0.49397 0.5951 0.0
H1657 H 0.09061 0.47859 0.54906 0.0
H1658 H 0.09078 0.4064 0.65697 0.0
H1659 H 0.09808 0.44757 0.65946 0.0
H1660 H 0.09635 0.42002 0.53655 0.0
H1661 H 0.11606 0.46175 0.55255 0.0
H1662 H 0.10588 0.42789 0.50858 0.0
H1663 H 0.12527 0.46887 0.52434 0.0
H1664 H 0.11071 0.40588 0.57302 0.0
H1665 H 0.07584 0.39694 0.60285 0.0
H1666 H 0.10127 0.38114 0.56877 0.0
H1667 H 0.06696 0.37235 0.59799 0.0
H1668 H 0.15007 0.42729 0.59222 0.0
H1669 H 0.14995 0.43985 0.5418 0.0
H1670 H 0.03905 0.39295 0.5589 0.0
H1671 H 0.06756 0.38258 0.53738 0.0
Li1672 Li 0.65384 0.1052 0.08358 0.0
Li1673 Li 0.66859 0.10317 0.10405 0.0
Li1674 Li 0.67791 0.11799 0.07915 0.0
Li1675 Li 0.667 0.0935 0.07623 0.0
C1676 C 0.66168 0.12668 0.10366 0.0
N1677 N 0.64879 0.14029 0.11494 0.0
C1678 C 0.65815 0.12595 0.12033 0.0
C1679 C 0.65881 0.13447 0.09278 0.0
C1680 C 0.6516 0.13288 0.12578 0.0
C1681 C 0.65223 0.14123 0.0987 0.0
C1682 C 0.64462 0.07615 0.10049 0.0
C1683 C 0.64054 0.05388 0.10821 0.0
N1684 N 0.62867 0.05121 0.11551 0.0
C1685 C 0.63227 0.07308 0.10784 0.0
C1686 C 0.64869 0.06639 0.10048 0.0
C1687 C 0.62441 0.06047 0.11548 0.0
C1688 C 0.63226 0.10489 0.06568 0.0
N1689 N 0.63699 0.1047 0.08105 0.0
C1690 C 0.61782 0.10446 0.0935 0.0
C1691 C 0.62996 0.10429 0.09484 0.0
C1692 C 0.61276 0.10482 0.0778 0.0
C1693 C 0.62004 0.10489 0.06374 0.0
H1694 H 0.63802 0.10511 0.05493 0.0
H1695 H 0.63385 0.10395 0.10691 0.0
C1696 C 0.68335 0.10667 0.13363 0.0
N1697 N 0.67069 0.10125 0.12701 0.0
C1698 C 0.68498 0.1054 0.15053 0.0
C1699 C 0.66053 0.0933 0.1535 0.0
C1700 C 0.65939 0.09479 0.13657 0.0
C1701 C 0.67346 0.09861 0.16069 0.0
H1702 H 0.69219 0.112 0.12579 0.0
H1703 H 0.64948 0.09105 0.13112 0.0
C1704 C 0.66885 0.11306 0.04846 0.0
N1705 N 0.67999 0.12725 0.01955 0.0
C1706 C 0.67574 0.10895 0.03769 0.0
C1707 C 0.66749 0.12428 0.04443 0.0
C1708 C 0.68132 0.11627 0.02315 0.0
C1709 C 0.67324 0.13136 0.02979 0.0
C1710 C 0.69174 0.1003 0.09309 0.0
C1711 C 0.70507 0.10634 0.08715 0.0
C1712 C 0.6868 0.0889 0.10332 0.0
C1713 C 0.71315 0.10071 0.09133 0.0
C1714 C 0.6952 0.08358 0.10724 0.0
N1715 N 0.70808 0.08953 0.10119 0.0
C1716 C 0.69391 0.14654 0.07482 0.0
C1717 C 0.70148 0.13332 0.06053 0.0
C1718 C 0.70479 0.1585 0.06863 0.0
N1719 N 0.6925 0.1343 0.07071 0.0
C1720 C 0.7125 0.145 0.05406 0.0
C1721 C 0.71432 0.15781 0.0582 0.0
H1722 H 0.68671 0.14703 0.08309 0.0
H1723 H 0.70006 0.12343 0.05747 0.0
C1724 C 0.6538 0.07029 0.05726 0.0
N1725 N 0.6662 0.07907 0.06367 0.0
C1726 C 0.65211 0.05962 0.04716 0.0
C1727 C 0.676 0.06714 0.05056 0.0
C1728 C 0.67725 0.07777 0.06048 0.0
C1729 C 0.66332 0.05799 0.04368 0.0
H1730 H 0.64523 0.07167 0.05993 0.0
H1731 H 0.68708 0.08507 0.06532 0.0
O1732 O 0.66796 0.11983 0.09807 0.0
O1733 O 0.65236 0.08841 0.09279 0.0
O1734 O 0.66353 0.10617 0.0629 0.0
O1735 O 0.6837 0.10568 0.08903 0.0
H1736 H 0.66039 0.12007 0.12895 0.0
H1737 H 0.66147 0.13515 0.07985 0.0
H1738 H 0.64875 0.13235 0.13863 0.0
H1739 H 0.64984 0.14719 0.09038 0.0
H1740 H 0.64361 0.04627 0.10833 0.0
H1741 H 0.62883 0.08038 0.10778 0.0
H1742 H 0.65796 0.06833 0.0944 0.0
H1743 H 0.61489 0.05802 0.12134 0.0
H1744 H 0.61238 0.1042 0.10462 0.0
H1745 H 0.61645 0.1052 0.05144 0.0
H1746 H 0.69514 0.10962 0.15555 0.0
H1747 H 0.65138 0.08832 0.16092 0.0
H1748 H 0.67688 0.10028 0.04061 0.0
H1749 H 0.66213 0.12755 0.05256 0.0
H1750 H 0.68676 0.11326 0.01476 0.0
H1751 H 0.67235 0.14012 0.02657 0.0
H1752 H 0.70913 0.11526 0.07936 0.0
H1753 H 0.67669 0.08433 0.10841 0.0
H1754 H 0.72345 0.10524 0.08674 0.0
H1755 H 0.69149 0.07475 0.11515 0.0
H1756 H 0.70595 0.16819 0.07234 0.0
H1757 H 0.71955 0.14402 0.04596 0.0
H1758 H 0.64214 0.05268 0.04219 0.0
H1759 H 0.68489 0.06628 0.04798 0.0
Li1760 Li 0.56787 0.66865 0.60293 0.0
Li1761 Li 0.55135 0.65463 0.58173 0.0
Li1762 Li 0.57636 0.66713 0.57627 0.0
Li1763 Li 0.56411 0.67954 0.57785 0.0
C1764 C 0.56709 0.64461 0.6044 0.0
N1765 N 0.56954 0.62991 0.63004 0.0
C1766 C 0.55592 0.63224 0.60923 0.0
C1767 C 0.57954 0.64942 0.61248 0.0
C1768 C 0.55736 0.62497 0.62225 0.0
C1769 C 0.58056 0.64187 0.62545 0.0
C1770 C 0.53946 0.66824 0.60028 0.0
C1771 C 0.52068 0.67181 0.5942 0.0
N1772 N 0.51555 0.66723 0.60955 0.0
C1773 C 0.5341 0.66377 0.61609 0.0
C1774 C 0.53279 0.67246 0.58932 0.0
C1775 C 0.52196 0.66325 0.6205 0.0
C1776 C 0.58133 0.68261 0.63196 0.0
N1777 N 0.57106 0.67065 0.62607 0.0
C1778 C 0.56519 0.66162 0.65339 0.0
C1779 C 0.56291 0.6603 0.63638 0.0
C1780 C 0.57573 0.67384 0.65982 0.0
C1781 C 0.58382 0.68447 0.64893 0.0
H1782 H 0.58753 0.69073 0.62348 0.0
H1783 H 0.5546 0.65103 0.63141 0.0
C1784 C 0.53121 0.63165 0.56399 0.0
N1785 N 0.53438 0.63845 0.57862 0.0
C1786 C 0.51857 0.61992 0.56185 0.0
C1787 C 0.51292 0.62222 0.59002 0.0
C1788 C 0.52563 0.63387 0.5916 0.0
C1789 C 0.50919 0.61514 0.57495 0.0
H1790 H 0.53847 0.63536 0.55396 0.0
H1791 H 0.52861 0.63915 0.60328 0.0
C1792 C 0.59474 0.69209 0.58571 0.0
N1793 N 0.62192 0.70839 0.57806 0.0
C1794 C 0.59873 0.70219 0.57365 0.0
C1795 C 0.60457 0.6904 0.59402 0.0
C1796 C 0.61253 0.71031 0.56993 0.0
C1797 C 0.61826 0.6987 0.58993 0.0
C1798 C 0.5548 0.66512 0.54746 0.0
C1799 C 0.56148 0.66779 0.53224 0.0
C1800 C 0.54133 0.66227 0.54806 0.0
C1801 C 0.55461 0.66774 0.51789 0.0
C1802 C 0.53481 0.6623 0.53345 0.0
N1803 N 0.54153 0.66503 0.51879 0.0
C1804 C 0.59541 0.65853 0.5701 0.0
C1805 C 0.59681 0.6757 0.55219 0.0
C1806 C 0.60641 0.65872 0.5622 0.0
N1807 N 0.5909 0.66698 0.56503 0.0
C1808 C 0.60789 0.67628 0.54398 0.0
C1809 C 0.61282 0.6677 0.54896 0.0
H1810 H 0.59041 0.65158 0.5802 0.0
H1811 H 0.59298 0.68229 0.54843 0.0
C1812 C 0.56459 0.70356 0.58362 0.0
N1813 N 0.56367 0.69524 0.57102 0.0
C1814 C 0.56536 0.71595 0.58032 0.0
C1815 C 0.56393 0.71089 0.5511 0.0
C1816 C 0.56334 0.69862 0.55497 0.0
C1817 C 0.56513 0.71977 0.56388 0.0
H1818 H 0.56495 0.70061 0.59624 0.0
H1819 H 0.56294 0.69203 0.54514 0.0
O1820 O 0.56583 0.65191 0.59176 0.0
O1821 O 0.55143 0.66894 0.59584 0.0
O1822 O 0.58126 0.6839 0.58932 0.0
O1823 O 0.56143 0.66521 0.56161 0.0
H1824 H 0.54625 0.62829 0.60301 0.0
H1825 H 0.58829 0.65895 0.60888 0.0
H1826 H 0.54879 0.61542 0.62616 0.0
H1827 H 0.59011 0.64553 0.6319 0.0
H1828 H 0.5154 0.67501 0.58582 0.0
H1829 H 0.5392 0.66064 0.62482 0.0
H1830 H 0.53695 0.67635 0.57724 0.0
H1831 H 0.51765 0.6597 0.63264 0.0
H1832 H 0.55861 0.65329 0.66146 0.0
H1833 H 0.59203 0.69403 0.65349 0.0
H1834 H 0.51611 0.61476 0.55002 0.0
H1835 H 0.50616 0.6187 0.60058 0.0
H1836 H 0.59126 0.70365 0.56709 0.0
H1837 H 0.60165 0.68271 0.60348 0.0
H1838 H 0.61577 0.7181 0.56054 0.0
H1839 H 0.62597 0.69744 0.59618 0.0
H1840 H 0.57187 0.66992 0.53152 0.0
H1841 H 0.53591 0.65989 0.55965 0.0
H1842 H 0.55967 0.66985 0.50604 0.0
H1843 H 0.52438 0.66011 0.53375 0.0
H1844 H 0.60967 0.65171 0.56622 0.0
H1845 H 0.61257 0.68342 0.53392 0.0
H1846 H 0.56616 0.7225 0.59051 0.0
H1847 H 0.56387 0.71358 0.53828 0.0
Li1848 Li 0.89647 0.56332 0.10108 0.0
Li1849 Li 0.89741 0.54904 0.07908 0.0
Li1850 Li 0.90641 0.57399 0.07432 0.0
Li1851 Li 0.88212 0.55779 0.07526 0.0
C1852 C 0.92409 0.57059 0.09993 0.0
N1853 N 0.94688 0.58213 0.11993 0.0
C1854 C 0.92936 0.56266 0.10608 0.0
C1855 C 0.93058 0.58444 0.10371 0.0
C1856 C 0.94083 0.56867 0.11624 0.0
C1857 C 0.94205 0.59008 0.1139 0.0
C1858 C 0.87546 0.53198 0.09696 0.0
C1859 C 0.86202 0.50839 0.08912 0.0
N1860 N 0.86358 0.50467 0.10458 0.0
C1861 C 0.87679 0.52792 0.11282 0.0
C1862 C 0.86788 0.52215 0.08507 0.0
C1863 C 0.87076 0.51406 0.11641 0.0
C1864 C 0.89109 0.57211 0.13157 0.0
N1865 N 0.89716 0.5657 0.12436 0.0
C1866 C 0.90391 0.56159 0.15068 0.0
C1867 C 0.90342 0.5604 0.13352 0.0
C1868 C 0.89779 0.56821 0.15852 0.0
C1869 C 0.89136 0.57357 0.14874 0.0
H1870 H 0.88591 0.57596 0.12401 0.0
H1871 H 0.90778 0.55499 0.12753 0.0
C1872 C 0.90013 0.52972 0.05966 0.0
N1873 N 0.90012 0.5341 0.07529 0.0
C1874 C 0.90149 0.5183 0.05702 0.0
C1875 C 0.90303 0.51631 0.08658 0.0
C1876 C 0.90173 0.52778 0.08863 0.0
C1877 C 0.90285 0.51136 0.07061 0.0
H1878 H 0.89902 0.53505 0.04926 0.0
H1879 H 0.9018 0.53156 0.10091 0.0
C1880 C 0.89487 0.58837 0.08929 0.0
N1881 N 0.89993 0.61468 0.09328 0.0
C1882 C 0.8877 0.59307 0.07995 0.0
C1883 C 0.90441 0.59698 0.10091 0.0
C1884 C 0.89047 0.60642 0.08207 0.0
C1885 C 0.90688 0.61026 0.10268 0.0
C1886 C 0.88973 0.55617 0.04402 0.0
C1887 C 0.894 0.5669 0.03279 0.0
C1888 C 0.87936 0.5432 0.03955 0.0
C1889 C 0.88763 0.56452 0.0174 0.0
C1890 C 0.87323 0.54123 0.02405 0.0
N1891 N 0.87745 0.55184 0.01339 0.0
C1892 C 0.93267 0.59102 0.06251 0.0
C1893 C 0.91746 0.59905 0.05669 0.0
C1894 C 0.94308 0.60195 0.05405 0.0
N1895 N 0.92019 0.5898 0.06373 0.0
C1896 C 0.92755 0.61011 0.04798 0.0
C1897 C 0.94054 0.6116 0.04653 0.0
H1898 H 0.93446 0.58331 0.06779 0.0
H1899 H 0.90733 0.5976 0.0573 0.0
C1900 C 0.85362 0.54423 0.07445 0.0
N1901 N 0.865 0.55404 0.06693 0.0
C1902 C 0.84083 0.54167 0.06935 0.0
C1903 C 0.85171 0.55923 0.04865 0.0
C1904 C 0.86429 0.56149 0.05422 0.0
C1905 C 0.83976 0.54933 0.0564 0.0
H1906 H 0.85449 0.53864 0.08473 0.0
H1907 H 0.8735 0.5694 0.04864 0.0
O1908 O 0.91281 0.56484 0.09001 0.0
O1909 O 0.88147 0.54551 0.09314 0.0
O1910 O 0.89224 0.57529 0.08739 0.0
O1911 O 0.8958 0.55835 0.0592 0.0
H1912 H 0.9246 0.55197 0.1031 0.0
H1913 H 0.92694 0.59082 0.09864 0.0
H1914 H 0.94495 0.56262 0.12118 0.0
H1915 H 0.94714 0.60078 0.11694 0.0
H1916 H 0.8562 0.50068 0.07999 0.0
H1917 H 0.88247 0.53536 0.12225 0.0
H1918 H 0.86653 0.5251 0.07284 0.0
H1919 H 0.8718 0.51078 0.1286 0.0
H1920 H 0.90903 0.55737 0.15773 0.0
H1921 H 0.88634 0.57855 0.15431 0.0
H1922 H 0.90152 0.51499 0.04448 0.0
H1923 H 0.90387 0.5112 0.09744 0.0
H1924 H 0.88015 0.58652 0.07107 0.0
H1925 H 0.90971 0.59341 0.10866 0.0
H1926 H 0.88507 0.61022 0.07481 0.0
H1927 H 0.91427 0.61703 0.11159 0.0
H1928 H 0.90211 0.57696 0.03593 0.0
H1929 H 0.87607 0.53474 0.04794 0.0
H1930 H 0.89079 0.57275 0.00864 0.0
H1931 H 0.86514 0.53126 0.02048 0.0
H1932 H 0.95286 0.60254 0.05287 0.0
H1933 H 0.92518 0.61729 0.04227 0.0
H1934 H 0.83193 0.53415 0.07593 0.0
H1935 H 0.85136 0.56532 0.03858 0.0
Li1936 Li 0.32736 0.89425 0.60444 0.0
Li1937 Li 0.3404 0.89016 0.58355 0.0
Li1938 Li 0.32747 0.90213 0.57688 0.0
Li1939 Li 0.31537 0.87767 0.58139 0.0
C1940 C 0.35108 0.91745 0.60327 0.0
N1941 N 0.36635 0.93618 0.62734 0.0
C1942 C 0.3632 0.91845 0.60882 0.0
C1943 C 0.34683 0.92612 0.60979 0.0
C1944 C 0.37075 0.92796 0.62104 0.0
C1945 C 0.35466 0.93547 0.622 0.0
C1946 C 0.32804 0.8659 0.6036 0.0
C1947 C 0.32506 0.84383 0.59716 0.0
N1948 N 0.33004 0.84343 0.6123 0.0
C1949 C 0.33292 0.86517 0.6192 0.0
C1950 C 0.3239 0.85507 0.59257 0.0
C1951 C 0.33395 0.85377 0.62332 0.0
C1952 C 0.31618 0.89822 0.63376 0.0
N1953 N 0.32687 0.89754 0.62733 0.0
C1954 C 0.3374 0.90156 0.65387 0.0
C1955 C 0.33731 0.89903 0.637 0.0
C1956 C 0.3265 0.90233 0.66088 0.0
C1957 C 0.31576 0.90058 0.65064 0.0
H1958 H 0.30794 0.89686 0.62581 0.0
H1959 H 0.34558 0.89821 0.63159 0.0
C1960 C 0.36298 0.8935 0.565 0.0
N1961 N 0.35665 0.88967 0.5799 0.0
C1962 C 0.37529 0.89381 0.56242 0.0
C1963 C 0.3744 0.88642 0.59064 0.0
C1964 C 0.36211 0.88621 0.59264 0.0
C1965 C 0.3812 0.89033 0.5754 0.0
H1966 H 0.35858 0.89653 0.5552 0.0
H1967 H 0.35711 0.88364 0.60451 0.0
C1968 C 0.30287 0.89614 0.58758 0.0
N1969 N 0.28579 0.90605 0.57955 0.0
C1970 C 0.29161 0.8886 0.57737 0.0
C1971 C 0.30533 0.90863 0.59388 0.0
C1972 C 0.28312 0.8938 0.57342 0.0
C1973 C 0.29661 0.91349 0.58962 0.0
C1974 C 0.32842 0.88128 0.54975 0.0
C1975 C 0.32458 0.88461 0.53483 0.0
C1976 C 0.33199 0.87115 0.54999 0.0
C1977 C 0.32413 0.87756 0.52047 0.0
C1978 C 0.33142 0.86435 0.53537 0.0
N1979 N 0.32751 0.86766 0.52103 0.0
C1980 C 0.33714 0.92893 0.56577 0.0
C1981 C 0.31729 0.91211 0.55226 0.0
C1982 C 0.33732 0.93906 0.55586 0.0
N1983 N 0.32723 0.91578 0.56377 0.0
C1984 C 0.31701 0.92192 0.54215 0.0
C1985 C 0.32719 0.9356 0.54379 0.0
H1986 H 0.34505 0.93152 0.57483 0.0
H1987 H 0.30963 0.90154 0.55082 0.0
C1988 C 0.29198 0.85361 0.58906 0.0
N1989 N 0.29947 0.86118 0.57603 0.0
C1990 C 0.27937 0.84203 0.58645 0.0
C1991 C 0.28256 0.84607 0.55701 0.0
C1992 C 0.29507 0.85765 0.5602 0.0
C1993 C 0.27447 0.83824 0.57026 0.0
H1994 H 0.29569 0.85679 0.60151 0.0
H1995 H 0.30098 0.86403 0.55007 0.0
O1996 O 0.34343 0.90806 0.59149 0.0
O1997 O 0.32687 0.87696 0.59945 0.0
O1998 O 0.31138 0.89128 0.59145 0.0
O1999 O 0.32891 0.8881 0.56391 0.0
H2000 H 0.3667 0.91192 0.60382 0.0
H2001 H 0.33755 0.92555 0.60554 0.0
H2002 H 0.38011 0.92879 0.62552 0.0
H2003 H 0.35144 0.94216 0.62724 0.0
H2004 H 0.32193 0.8354 0.5887 0.0
H2005 H 0.33598 0.87335 0.628 0.0
H2006 H 0.31967 0.85521 0.58067 0.0
H2007 H 0.33782 0.85313 0.6353 0.0
H2008 H 0.34576 0.90263 0.6614 0.0
H2009 H 0.30719 0.90114 0.6556 0.0
H2010 H 0.38031 0.8971 0.55056 0.0
H2011 H 0.37856 0.88361 0.60095 0.0
H2012 H 0.28951 0.8789 0.57244 0.0
H2013 H 0.3139 0.91453 0.60192 0.0
H2014 H 0.27443 0.88812 0.56545 0.0
H2015 H 0.29845 0.92318 0.59432 0.0
H2016 H 0.32194 0.89252 0.53435 0.0
H2017 H 0.33537 0.86871 0.56127 0.0
H2018 H 0.3211 0.87999 0.50886 0.0
H2019 H 0.33415 0.85649 0.5354 0.0
H2020 H 0.34554 0.94943 0.55732 0.0
H2021 H 0.30896 0.91879 0.53311 0.0
H2022 H 0.27344 0.83618 0.59698 0.0
H2023 H 0.27903 0.84357 0.54437 0.0
Li2024 Li 0.43168 0.32361 0.10558 0.0
Li2025 Li 0.44944 0.33816 0.08576 0.0
Li2026 Li 0.42546 0.32691 0.07773 0.0
Li2027 Li 0.43704 0.31436 0.08082 0.0
C2028 C 0.43224 0.35105 0.09252 0.0
N2029 N 0.42667 0.37166 0.08592 0.0
C2030 C 0.44016 0.36125 0.08116 0.0
C2031 C 0.42157 0.35142 0.10064 0.0
C2032 C 0.43716 0.37156 0.07796 0.0
C2033 C 0.41889 0.3619 0.0971 0.0
C2034 C 0.46148 0.32984 0.10672 0.0
C2035 C 0.48569 0.33927 0.1038 0.0
N2036 N 0.48741 0.3434 0.11984 0.0
C2037 C 0.46349 0.33412 0.1232 0.0
C2038 C 0.47266 0.33236 0.09696 0.0
C2039 C 0.47668 0.34097 0.12959 0.0
C2040 C 0.4237 0.30958 0.13617 0.0
N2041 N 0.42731 0.32149 0.12832 0.0
C2042 C 0.42674 0.33193 0.15365 0.0
C2043 C 0.42876 0.33253 0.13662 0.0
C2044 C 0.42334 0.3199 0.16225 0.0
C2045 C 0.42163 0.30855 0.15326 0.0
H2046 H 0.42276 0.30102 0.12921 0.0
H2047 H 0.43178 0.34189 0.13003 0.0
C2048 C 0.47326 0.35842 0.06981 0.0
N2049 N 0.4664 0.35452 0.08437 0.0
C2050 C 0.48553 0.37069 0.06877 0.0
C2051 C 0.48338 0.37463 0.0977 0.0
C2052 C 0.47112 0.36235 0.09814 0.0
C2053 C 0.49074 0.37899 0.08284 0.0
H2054 H 0.46909 0.35215 0.05895 0.0
H2055 H 0.46531 0.35905 0.10948 0.0
C2056 C 0.40551 0.30346 0.0946 0.0
N2057 N 0.37872 0.29121 0.10474 0.0
C2058 C 0.3963 0.29011 0.08984 0.0
C2059 C 0.40111 0.31054 0.10459 0.0
C2060 C 0.38279 0.28411 0.09506 0.0
C2061 C 0.38753 0.30418 0.10958 0.0
C2062 C 0.44253 0.32335 0.05073 0.0
C2063 C 0.43157 0.31675 0.03984 0.0
C2064 C 0.45471 0.32358 0.04734 0.0
C2065 C 0.43297 0.31044 0.02575 0.0
C2066 C 0.4557 0.31712 0.03314 0.0
N2067 N 0.4449 0.31074 0.02273 0.0
C2068 C 0.4198 0.33971 0.05292 0.0
C2069 C 0.39947 0.32207 0.06457 0.0
C2070 C 0.41247 0.3429 0.04182 0.0
N2071 N 0.41328 0.32957 0.06412 0.0
C2072 C 0.39169 0.32486 0.05357 0.0
C2073 C 0.3982 0.3354 0.04198 0.0
H2074 H 0.43078 0.34529 0.05254 0.0
H2075 H 0.39441 0.31383 0.07322 0.0
C2076 C 0.44854 0.29754 0.0749 0.0
N2077 N 0.43764 0.29918 0.07227 0.0
C2078 C 0.44887 0.28642 0.0681 0.0
C2079 C 0.42672 0.2789 0.05611 0.0
C2080 C 0.42683 0.29016 0.06313 0.0
C2081 C 0.43782 0.2769 0.05861 0.0
H2082 H 0.45695 0.30483 0.08231 0.0
H2083 H 0.41835 0.29181 0.06118 0.0
O2084 O 0.43493 0.34077 0.0957 0.0
O2085 O 0.44866 0.32329 0.10016 0.0
O2086 O 0.4188 0.30938 0.08975 0.0
O2087 O 0.44126 0.32932 0.06478 0.0
H2088 H 0.44836 0.36111 0.0746 0.0
H2089 H 0.41541 0.34375 0.10962 0.0
H2090 H 0.44314 0.37944 0.06909 0.0
H2091 H 0.41064 0.36227 0.10326 0.0
H2092 H 0.49444 0.3414 0.09634 0.0
H2093 H 0.45498 0.33224 0.13096 0.0
H2094 H 0.47132 0.32923 0.08415 0.0
H2095 H 0.47839 0.34439 0.1423 0.0
H2096 H 0.42797 0.34086 0.16002 0.0
H2097 H 0.41917 0.29913 0.15941 0.0
H2098 H 0.49071 0.37376 0.05698 0.0
H2099 H 0.48707 0.3806 0.1089 0.0
H2100 H 0.39956 0.28445 0.08221 0.0
H2101 H 0.40808 0.32084 0.10835 0.0
H2102 H 0.37555 0.2738 0.09144 0.0
H2103 H 0.38399 0.30957 0.11728 0.0
H2104 H 0.42201 0.31632 0.04233 0.0
H2105 H 0.46325 0.3285 0.05571 0.0
H2106 H 0.42455 0.30524 0.01726 0.0
H2107 H 0.46503 0.31714 0.03044 0.0
H2108 H 0.41796 0.35125 0.0333 0.0
H2109 H 0.38071 0.31869 0.05396 0.0
H2110 H 0.45753 0.28513 0.07054 0.0
H2111 H 0.41806 0.27188 0.04875 0.0
C2112 C 0.42633 0.09086 0.30897 0.0
C2113 C 0.42514 0.10043 0.31875 0.0
C2114 C 0.4251 0.09095 0.2918 0.0
C2115 C 0.43 0.11359 0.25746 0.0
H2116 H 0.40819 0.08035 0.23267 0.0
C2117 C 0.43609 0.10871 0.18745 0.0
C2118 C 0.42412 0.10227 0.17802 0.0
C2119 C 0.43546 0.1088 0.20468 0.0
C2120 C 0.41424 0.08971 0.23946 0.0
H2121 H 0.42171 0.11756 0.31834 0.0
H2122 H 0.41972 0.11782 0.28823 0.0
H2123 H 0.40817 0.07966 0.26291 0.0
H2124 H 0.40212 0.09086 0.17911 0.0
H2125 H 0.40101 0.09086 0.20936 0.0
H2126 H 0.43628 0.12359 0.23401 0.0
C2127 C 0.42155 0.11023 0.29388 0.0
C2128 C 0.4143 0.0893 0.25671 0.0
C2129 C 0.42259 0.11003 0.31107 0.0
C2130 C 0.41149 0.09596 0.18612 0.0
C2131 C 0.41086 0.09588 0.20337 0.0
C2132 C 0.43008 0.11396 0.24021 0.0
C2133 C 0.42283 0.10072 0.2841 0.0
C2134 C 0.42224 0.10122 0.26586 0.0
C2135 C 0.42285 0.10231 0.21279 0.0
C2136 C 0.42226 0.10202 0.23106 0.0
H2137 H 0.42819 0.08329 0.3146 0.0
H2138 H 0.42623 0.08357 0.28452 0.0
H2139 H 0.43628 0.1229 0.26423 0.0
H2140 H 0.44595 0.11374 0.18149 0.0
H2141 H 0.44485 0.11374 0.21167 0.0
C2142 C 0.32513 0.4201 0.68665 0.0
C2143 C 0.31754 0.42421 0.67699 0.0
C2144 C 0.32334 0.41881 0.70377 0.0
C2145 C 0.31318 0.43191 0.73861 0.0
H2146 H 0.30873 0.4001 0.7619 0.0
C2147 C 0.30554 0.4271 0.80905 0.0
C2148 C 0.31246 0.42174 0.81788 0.0
C2149 C 0.30467 0.42619 0.79183 0.0
C2150 C 0.31011 0.40912 0.75562 0.0
H2151 H 0.30222 0.43025 0.67759 0.0
H2152 H 0.29923 0.42816 0.70759 0.0
H2153 H 0.31046 0.40103 0.7318 0.0
H2154 H 0.32333 0.41063 0.81546 0.0
H2155 H 0.32239 0.40964 0.78549 0.0
H2156 H 0.31338 0.44029 0.76228 0.0
C2157 C 0.30648 0.42587 0.70188 0.0
C2158 C 0.31106 0.40961 0.73839 0.0
C2159 C 0.30813 0.42698 0.68475 0.0
C2160 C 0.31814 0.4151 0.80907 0.0
C2161 C 0.31741 0.41435 0.79184 0.0
C2162 C 0.31243 0.4315 0.75583 0.0
C2163 C 0.31408 0.42179 0.71154 0.0
C2164 C 0.31265 0.42103 0.72974 0.0
C2165 C 0.31083 0.42005 0.78298 0.0
C2166 C 0.31094 0.42013 0.76458 0.0
H2167 H 0.33239 0.41783 0.68094 0.0
H2168 H 0.3294 0.41575 0.71097 0.0
H2169 H 0.31457 0.4409 0.73224 0.0
H2170 H 0.30114 0.43239 0.81536 0.0
H2171 H 0.29929 0.43047 0.78545 0.0
C2172 C 0.89375 0.3336 0.18572 0.0
C2173 C 0.89697 0.32486 0.17704 0.0
C2174 C 0.89323 0.33334 0.20295 0.0
C2175 C 0.88917 0.31168 0.23889 0.0
H2176 H 0.9034 0.34562 0.26298 0.0
C2177 C 0.89317 0.31525 0.3104 0.0
C2178 C 0.88952 0.3241 0.318 0.0
C2179 C 0.89413 0.31495 0.29319 0.0
C2180 C 0.89927 0.33605 0.25642 0.0
H2181 H 0.90231 0.3091 0.17965 0.0
H2182 H 0.90145 0.3087 0.20982 0.0
H2183 H 0.90536 0.346 0.23299 0.0
H2184 H 0.88345 0.33914 0.31345 0.0
H2185 H 0.88517 0.33864 0.28349 0.0
H2186 H 0.88308 0.30175 0.2624 0.0
C2187 C 0.89916 0.31562 0.20326 0.0
C2188 C 0.90039 0.33627 0.23924 0.0
C2189 C 0.89967 0.31586 0.18599 0.0
C2190 C 0.88656 0.33241 0.308 0.0
C2191 C 0.88755 0.33213 0.29084 0.0
C2192 C 0.88807 0.31147 0.25611 0.0
C2193 C 0.89593 0.32436 0.21193 0.0
C2194 C 0.89524 0.32409 0.23025 0.0
C2195 C 0.89148 0.3235 0.28325 0.0
C2196 C 0.89299 0.32365 0.26503 0.0
H2197 H 0.89136 0.34046 0.17918 0.0
H2198 H 0.89046 0.34003 0.20923 0.0
H2199 H 0.88496 0.30211 0.23231 0.0
H2200 H 0.89565 0.30882 0.31777 0.0
H2201 H 0.89729 0.30827 0.2877 0.0
C2202 C 0.5697 0.8838 0.68328 0.0
C2203 C 0.56992 0.89468 0.67471 0.0
C2204 C 0.57039 0.88392 0.70052 0.0
C2205 C 0.56409 0.89948 0.73695 0.0
H2206 H 0.58522 0.88639 0.7601 0.0
C2207 C 0.57149 0.90482 0.80732 0.0
C2208 C 0.56983 0.89336 0.81597 0.0
C2209 C 0.57237 0.90532 0.79011 0.0
C2210 C 0.57919 0.88997 0.7538 0.0
H2211 H 0.57149 0.9144 0.67747 0.0
H2212 H 0.57274 0.91465 0.70755 0.0
H2213 H 0.58513 0.88666 0.72991 0.0
H2214 H 0.56802 0.87351 0.81334 0.0
H2215 H 0.56957 0.8744 0.78322 0.0
H2216 H 0.55811 0.90275 0.76078 0.0
C2217 C 0.57177 0.9059 0.70097 0.0
C2218 C 0.57913 0.89012 0.73652 0.0
C2219 C 0.57105 0.90576 0.68374 0.0
C2220 C 0.56943 0.88255 0.80704 0.0
C2221 C 0.57032 0.88305 0.7898 0.0
C2222 C 0.56418 0.89935 0.75419 0.0
C2223 C 0.57134 0.89494 0.70957 0.0
C2224 C 0.57157 0.89488 0.72791 0.0
C2225 C 0.57161 0.89437 0.78114 0.0
C2226 C 0.57172 0.89461 0.76281 0.0
H2227 H 0.56868 0.87504 0.67667 0.0
H2228 H 0.56985 0.87524 0.70678 0.0
H2229 H 0.55796 0.90296 0.73071 0.0
H2230 H 0.57211 0.91343 0.81387 0.0
H2231 H 0.57363 0.91429 0.78382 0.0
C2232 C 0.65775 0.56748 0.30972 0.0
C2233 C 0.66913 0.57496 0.31993 0.0
C2234 C 0.6587 0.5696 0.29267 0.0
C2235 C 0.68323 0.58211 0.25856 0.0
H2236 H 0.65381 0.58241 0.2346 0.0
C2237 C 0.68514 0.58947 0.18784 0.0
C2238 C 0.67318 0.58056 0.17925 0.0
C2239 C 0.68506 0.59047 0.20505 0.0
C2240 C 0.66207 0.58227 0.2411 0.0
H2241 H 0.69038 0.5907 0.32023 0.0
H2242 H 0.69205 0.5943 0.29037 0.0
H2243 H 0.65295 0.5809 0.26469 0.0
H2244 H 0.65176 0.56578 0.182 0.0
H2245 H 0.65162 0.56749 0.21195 0.0
H2246 H 0.69222 0.58316 0.23498 0.0
C2247 C 0.68243 0.58672 0.29559 0.0
C2248 C 0.66158 0.58141 0.25833 0.0
C2249 C 0.68148 0.58463 0.31268 0.0
C2250 C 0.66109 0.57291 0.18821 0.0
C2251 C 0.66101 0.5739 0.20539 0.0
C2252 C 0.68371 0.58293 0.24133 0.0
C2253 C 0.67104 0.57922 0.28541 0.0
C2254 C 0.67205 0.58112 0.26723 0.0
C2255 C 0.67302 0.58256 0.21404 0.0
C2256 C 0.67304 0.58283 0.23239 0.0
H2257 H 0.64816 0.55977 0.31485 0.0
H2258 H 0.64981 0.56348 0.28512 0.0
H2259 H 0.69138 0.58175 0.26506 0.0
H2260 H 0.69458 0.59563 0.18125 0.0
H2261 H 0.69443 0.59739 0.21133 0.0
C2262 C 0.09275 0.67394 0.68627 0.0
C2263 C 0.09939 0.66834 0.67737 0.0
C2264 C 0.09294 0.67405 0.70353 0.0
C2265 C 0.09907 0.65756 0.73943 0.0
H2266 H 0.10218 0.68859 0.76335 0.0
C2267 C 0.1088 0.66452 0.80963 0.0
C2268 C 0.10071 0.66835 0.81875 0.0
C2269 C 0.10868 0.66465 0.79238 0.0
C2270 C 0.1012 0.67981 0.75682 0.0
H2271 H 0.11169 0.65874 0.6795 0.0
H2272 H 0.11226 0.65914 0.70962 0.0
H2273 H 0.10207 0.68866 0.7332 0.0
H2274 H 0.0861 0.67529 0.81678 0.0
H2275 H 0.08609 0.67575 0.78663 0.0
H2276 H 0.0984 0.64883 0.7631 0.0
C2277 C 0.10661 0.66315 0.70331 0.0
C2278 C 0.1011 0.67982 0.73955 0.0
C2279 C 0.10632 0.66295 0.68606 0.0
C2280 C 0.09261 0.67247 0.81017 0.0
C2281 C 0.09257 0.6727 0.79291 0.0
C2282 C 0.09928 0.6576 0.75668 0.0
C2283 C 0.09988 0.66865 0.71227 0.0
C2284 C 0.10002 0.66869 0.73064 0.0
C2285 C 0.10055 0.66872 0.78385 0.0
C2286 C 0.10033 0.66872 0.76554 0.0
H2287 H 0.08719 0.67802 0.67988 0.0
H2288 H 0.08746 0.67816 0.71002 0.0
H2289 H 0.09797 0.64871 0.73299 0.0
H2290 H 0.11538 0.66155 0.81581 0.0
H2291 H 0.11508 0.66173 0.78571 0.0
C2292 C 0.90034 0.58128 0.18463 0.0
C2293 C 0.89789 0.5692 0.17681 0.0
C2294 C 0.9007 0.58221 0.20187 0.0
C2295 C 0.90552 0.56628 0.2391 0.0
H2296 H 0.88807 0.58348 0.26193 0.0
C2297 C 0.89545 0.56038 0.30905 0.0
C2298 C 0.89777 0.57192 0.31806 0.0
C2299 C 0.89598 0.5607 0.29182 0.0
C2300 C 0.89314 0.5788 0.25572 0.0
H2301 H 0.89344 0.54851 0.18096 0.0
H2302 H 0.89404 0.55013 0.21097 0.0
H2303 H 0.88795 0.58284 0.23176 0.0
H2304 H 0.90259 0.59291 0.31602 0.0
H2305 H 0.90346 0.59345 0.28584 0.0
H2306 H 0.91061 0.56212 0.26301 0.0
C2307 C 0.89598 0.55897 0.2038 0.0
C2308 C 0.89307 0.57843 0.23844 0.0
C2309 C 0.89563 0.55804 0.1866 0.0
C2310 C 0.9006 0.5838 0.30943 0.0
C2311 C 0.9011 0.58411 0.29216 0.0
C2312 C 0.90558 0.56663 0.25634 0.0
C2313 C 0.8986 0.57109 0.21164 0.0
C2314 C 0.89914 0.57204 0.22995 0.0
C2315 C 0.89882 0.57256 0.28317 0.0
C2316 C 0.89927 0.57277 0.26484 0.0
H2317 H 0.90225 0.59009 0.17741 0.0
H2318 H 0.90287 0.59173 0.20755 0.0
H2319 H 0.91053 0.56151 0.23292 0.0
H2320 H 0.89297 0.55098 0.31529 0.0
H2321 H 0.89392 0.55156 0.28524 0.0
C2322 C 0.31528 0.89773 0.81057 0.0
C2323 C 0.32647 0.90736 0.8198 0.0
C2324 C 0.31519 0.89864 0.79337 0.0
C2325 C 0.33809 0.91159 0.758 0.0
H2326 H 0.30599 0.90559 0.73402 0.0
C2327 C 0.33793 0.91453 0.68699 0.0
C2328 C 0.32623 0.90458 0.67887 0.0
C2329 C 0.33791 0.91616 0.7041 0.0
C2330 C 0.315 0.90716 0.74052 0.0
H2331 H 0.34618 0.92573 0.81813 0.0
H2332 H 0.34611 0.92712 0.78803 0.0
H2333 H 0.30601 0.906 0.76419 0.0
H2334 H 0.30533 0.88862 0.68218 0.0
H2335 H 0.30533 0.89125 0.71208 0.0
H2336 H 0.34697 0.91234 0.73448 0.0
C2337 C 0.33745 0.91884 0.79418 0.0
C2338 C 0.31501 0.90744 0.75779 0.0
C2339 C 0.3375 0.91801 0.81141 0.0
C2340 C 0.31444 0.89647 0.68812 0.0
C2341 C 0.31445 0.89801 0.70525 0.0
C2342 C 0.33805 0.91121 0.74076 0.0
C2343 C 0.32633 0.90912 0.78499 0.0
C2344 C 0.32653 0.90956 0.76669 0.0
C2345 C 0.32622 0.9078 0.71347 0.0
C2346 C 0.32647 0.90889 0.7318 0.0
H2347 H 0.30672 0.88926 0.81657 0.0
H2348 H 0.30656 0.89089 0.78658 0.0
H2349 H 0.34705 0.91306 0.76456 0.0
H2350 H 0.3471 0.92105 0.68011 0.0
H2351 H 0.34707 0.92397 0.70997 0.0
C2352 C 0.41254 0.30829 0.31368 0.0
C2353 C 0.42237 0.32012 0.32175 0.0
C2354 C 0.41156 0.30786 0.29645 0.0
C2355 C 0.42118 0.3301 0.25965 0.0
H2356 H 0.41632 0.29816 0.23624 0.0
C2357 C 0.43136 0.33068 0.19007 0.0
C2358 C 0.42217 0.31945 0.18055 0.0
C2359 C 0.4304 0.33037 0.20726 0.0
C2360 C 0.4175 0.30707 0.24261 0.0
H2361 H 0.43901 0.34068 0.31804 0.0
H2362 H 0.43734 0.33992 0.28802 0.0
H2363 H 0.41646 0.29838 0.26641 0.0
H2364 H 0.40475 0.29906 0.18171 0.0
H2365 H 0.40315 0.29848 0.21186 0.0
H2366 H 0.42244 0.33887 0.23586 0.0
C2367 C 0.43021 0.33106 0.29501 0.0
C2368 C 0.41757 0.3072 0.25989 0.0
C2369 C 0.43118 0.3315 0.31222 0.0
C2370 C 0.41206 0.30783 0.18868 0.0
C2371 C 0.41113 0.3075 0.20593 0.0
C2372 C 0.42114 0.32998 0.2424 0.0
C2373 C 0.4204 0.31924 0.28692 0.0
C2374 C 0.41957 0.31878 0.26859 0.0
C2375 C 0.42028 0.31879 0.21539 0.0
C2376 C 0.41946 0.31854 0.23369 0.0
H2377 H 0.4055 0.29942 0.32071 0.0
H2378 H 0.40379 0.29866 0.2906 0.0
H2379 H 0.42248 0.33907 0.26598 0.0
H2380 H 0.43947 0.33967 0.18425 0.0
H2381 H 0.43777 0.33912 0.21421 0.0
C2382 C 0.08489 0.41468 0.68761 0.0
C2383 C 0.09444 0.42635 0.67906 0.0
C2384 C 0.08492 0.41433 0.70489 0.0
C2385 C 0.09665 0.43695 0.74129 0.0
H2386 H 0.09149 0.40487 0.76457 0.0
C2387 C 0.10601 0.43742 0.81121 0.0
C2388 C 0.09653 0.42616 0.82044 0.0
C2389 C 0.1056 0.43712 0.79396 0.0
C2390 C 0.0928 0.41385 0.75825 0.0
H2391 H 0.11177 0.44666 0.68193 0.0
H2392 H 0.11183 0.44605 0.71199 0.0
H2393 H 0.09096 0.40489 0.7344 0.0
H2394 H 0.07917 0.40576 0.81876 0.0
H2395 H 0.07848 0.40525 0.78861 0.0
H2396 H 0.09853 0.44593 0.76508 0.0
C2397 C 0.10414 0.43726 0.70538 0.0
C2398 C 0.09249 0.41386 0.74097 0.0
C2399 C 0.1041 0.43761 0.68815 0.0
C2400 C 0.08672 0.41454 0.81201 0.0
C2401 C 0.08632 0.41424 0.79474 0.0
C2402 C 0.09697 0.43694 0.75853 0.0
C2403 C 0.09451 0.42565 0.71396 0.0
C2404 C 0.09449 0.42544 0.7323 0.0
C2405 C 0.09571 0.42556 0.78554 0.0
C2406 C 0.09513 0.42542 0.76721 0.0
H2407 H 0.07723 0.4059 0.68096 0.0
H2408 H 0.07728 0.40529 0.71114 0.0
H2409 H 0.09798 0.44595 0.73499 0.0
H2410 H 0.11385 0.44643 0.81731 0.0
H2411 H 0.11313 0.44592 0.78722 0.0
C2412 C 0.68672 0.10682 0.31068 0.0
C2413 C 0.67665 0.09585 0.31976 0.0
C2414 C 0.68704 0.10621 0.29346 0.0
C2415 C 0.66475 0.08874 0.25797 0.0
H2416 H 0.69867 0.10448 0.2336 0.0
C2417 C 0.66587 0.08527 0.18708 0.0
C2418 C 0.67484 0.09735 0.17875 0.0
C2419 C 0.66666 0.08432 0.20421 0.0
C2420 C 0.68912 0.10012 0.24025 0.0
H2421 H 0.65937 0.07543 0.31795 0.0
H2422 H 0.65998 0.07432 0.28788 0.0
H2423 H 0.69904 0.10408 0.26377 0.0
H2424 H 0.69179 0.11784 0.18188 0.0
H2425 H 0.69319 0.11616 0.21178 0.0
H2426 H 0.65485 0.08488 0.2345 0.0
C2427 C 0.66746 0.0835 0.29405 0.0
C2428 C 0.68933 0.0999 0.25752 0.0
C2429 C 0.66711 0.08413 0.31127 0.0
C2430 C 0.68484 0.10834 0.18789 0.0
C2431 C 0.68564 0.10738 0.20502 0.0
C2432 C 0.66455 0.08893 0.24073 0.0
C2433 C 0.67732 0.0946 0.28493 0.0
C2434 C 0.67715 0.09429 0.26658 0.0
C2435 C 0.67645 0.09542 0.21339 0.0
C2436 C 0.67673 0.0947 0.23168 0.0
H2437 H 0.6941 0.11605 0.31686 0.0
H2438 H 0.69465 0.11501 0.2868 0.0
H2439 H 0.6552 0.08456 0.26456 0.0
H2440 H 0.65822 0.07654 0.18036 0.0
H2441 H 0.65959 0.07489 0.21027 0.0
C2442 C 0.57887 0.68684 0.68595 0.0
C2443 C 0.57803 0.67552 0.67785 0.0
C2444 C 0.58021 0.68801 0.70313 0.0
C2445 C 0.57475 0.66696 0.74056 0.0
H2446 H 0.59459 0.70207 0.76216 0.0
C2447 C 0.5833 0.67248 0.81095 0.0
C2448 C 0.57924 0.68097 0.81872 0.0
C2449 C 0.58446 0.67246 0.79378 0.0
C2450 C 0.58901 0.69221 0.75625 0.0
H2451 H 0.57848 0.65684 0.68111 0.0
H2452 H 0.58134 0.65907 0.71103 0.0
H2453 H 0.5945 0.70077 0.73202 0.0
H2454 H 0.57352 0.69632 0.81439 0.0
H2455 H 0.57598 0.69654 0.78443 0.0
H2456 H 0.56947 0.65843 0.76485 0.0
C2457 C 0.5805 0.66684 0.70427 0.0
C2458 C 0.58888 0.69145 0.739 0.0
C2459 C 0.57894 0.66558 0.68714 0.0
C2460 C 0.57687 0.6898 0.8089 0.0
C2461 C 0.57822 0.6899 0.79172 0.0
C2462 C 0.57505 0.66771 0.75778 0.0
C2463 C 0.58093 0.67796 0.71254 0.0
C2464 C 0.58164 0.67881 0.73091 0.0
C2465 C 0.58179 0.68107 0.78401 0.0
C2466 C 0.58208 0.68034 0.76577 0.0
H2467 H 0.57807 0.69458 0.67905 0.0
H2468 H 0.58028 0.69659 0.70904 0.0
H2469 H 0.56881 0.65707 0.73484 0.0
H2470 H 0.58551 0.66577 0.81812 0.0
H2471 H 0.5874 0.66568 0.78811 0.0
C2472 C 0.42318 0.1665 0.04966 0.0
C2473 C 0.43437 0.16466 0.04688 0.0
C2474 C 0.42385 0.17874 0.04554 0.0
C2475 C 0.44878 0.21462 0.04256 0.0
H2476 H 0.418 0.21751 0.02712 0.0
C2477 C 0.44937 0.2655 0.04506 0.0
C2478 C 0.43763 0.26464 0.052 0.0
C2479 C 0.44938 0.25375 0.03996 0.0
C2480 C 0.42669 0.21687 0.03144 0.0
H2481 H 0.45469 0.17391 0.03655 0.0
H2482 H 0.45593 0.19542 0.02959 0.0
H2483 H 0.41716 0.19561 0.02586 0.0
H2484 H 0.41663 0.25086 0.05875 0.0
H2485 H 0.41668 0.23042 0.05005 0.0
H2486 H 0.45806 0.23564 0.04893 0.0
C2487 C 0.4467 0.1874 0.03511 0.0
C2488 C 0.42621 0.20435 0.03068 0.0
C2489 C 0.446 0.17511 0.03916 0.0
C2490 C 0.42579 0.25187 0.05325 0.0
C2491 C 0.42581 0.24015 0.0482 0.0
C2492 C 0.44923 0.22711 0.04339 0.0
C2493 C 0.43574 0.18944 0.0386 0.0
C2494 C 0.43709 0.20303 0.03669 0.0
C2495 C 0.43766 0.24092 0.04175 0.0
C2496 C 0.43803 0.22828 0.03831 0.0
H2497 H 0.41413 0.15876 0.0558 0.0
H2498 H 0.41531 0.18008 0.04861 0.0
H2499 H 0.45726 0.21388 0.04746 0.0
H2500 H 0.45858 0.27524 0.04371 0.0
H2501 H 0.45862 0.2547 0.03484 0.0
C2502 C 0.17482 0.44263 0.55407 0.0
C2503 C 0.16389 0.43239 0.56301 0.0
C2504 C 0.18659 0.44189 0.55142 0.0
C2505 C 0.20535 0.42637 0.56927 0.0
H2506 H 0.22571 0.43747 0.52824 0.0
C2507 C 0.2521 0.42072 0.56016 0.0
C2508 C 0.26378 0.43224 0.55413 0.0
C2509 C 0.23944 0.41984 0.5592 0.0
C2510 C 0.22015 0.43441 0.53978 0.0
H2511 H 0.1564 0.41304 0.57547 0.0
H2512 H 0.17687 0.4117 0.57076 0.0
H2513 H 0.2043 0.43762 0.53051 0.0
H2514 H 0.27122 0.45153 0.54152 0.0
H2515 H 0.24905 0.45009 0.54012 0.0
H2516 H 0.22116 0.42328 0.57864 0.0
C2517 C 0.1765 0.42045 0.56613 0.0
C2518 C 0.20792 0.43451 0.54109 0.0
C2519 C 0.16478 0.42122 0.56883 0.0
C2520 C 0.26242 0.4426 0.54645 0.0
C2521 C 0.24972 0.44172 0.5455 0.0
C2522 C 0.2175 0.42624 0.56795 0.0
C2523 C 0.18761 0.43087 0.5576 0.0
C2524 C 0.20041 0.4305 0.55588 0.0
C2525 C 0.23817 0.43048 0.55225 0.0
C2526 C 0.22504 0.43026 0.55322 0.0
H2527 H 0.17443 0.4514 0.54955 0.0
H2528 H 0.19503 0.45015 0.54497 0.0
H2529 H 0.19997 0.42351 0.58095 0.0
H2530 H 0.25278 0.41262 0.56632 0.0
H2531 H 0.23067 0.41097 0.56429 0.0
C2532 C 0.81563 0.26968 0.0461 0.0
C2533 C 0.82632 0.26826 0.05265 0.0
C2534 C 0.8032 0.25822 0.04214 0.0
C2535 C 0.78658 0.22124 0.03448 0.0
H2536 H 0.75508 0.22002 0.05479 0.0
C2537 C 0.73934 0.17144 0.05306 0.0
C2538 C 0.7265 0.1704 0.0525 0.0
C2539 C 0.751 0.18363 0.04904 0.0
C2540 C 0.76368 0.22026 0.04869 0.0
H2541 H 0.83234 0.25362 0.05992 0.0
H2542 H 0.81079 0.23372 0.0528 0.0
H2543 H 0.77672 0.24122 0.05475 0.0
H2544 H 0.71572 0.18111 0.04651 0.0
H2545 H 0.73616 0.20247 0.03941 0.0
H2546 H 0.77364 0.20019 0.02882 0.0
C2547 C 0.81207 0.2437 0.05056 0.0
C2548 C 0.77609 0.23241 0.04869 0.0
C2549 C 0.82444 0.25513 0.05463 0.0
C2550 C 0.72552 0.18168 0.04728 0.0
C2551 C 0.7372 0.19389 0.04321 0.0
C2552 C 0.77415 0.2091 0.03439 0.0
C2553 C 0.80126 0.24512 0.04452 0.0
C2554 C 0.78775 0.23291 0.04204 0.0
C2555 C 0.7501 0.19506 0.04433 0.0
C2556 C 0.76267 0.20837 0.04197 0.0
H2557 H 0.81682 0.27965 0.04414 0.0
H2558 H 0.79505 0.25959 0.03737 0.0
H2559 H 0.79538 0.22142 0.02905 0.0
H2560 H 0.74044 0.16299 0.05726 0.0
H2561 H 0.76078 0.18424 0.05035 0.0
C2562 C 0.55765 0.73431 0.54909 0.0
C2563 C 0.56652 0.73316 0.5602 0.0
C2564 C 0.55855 0.74691 0.54645 0.0
C2565 C 0.57128 0.78006 0.56704 0.0
H2566 H 0.56512 0.79173 0.52445 0.0
C2567 C 0.57892 0.83327 0.55849 0.0
C2568 C 0.56809 0.83393 0.55103 0.0
C2569 C 0.57964 0.82139 0.55765 0.0
C2570 C 0.56681 0.78854 0.53641 0.0
H2571 H 0.58374 0.74427 0.57651 0.0
H2572 H 0.58552 0.76626 0.5717 0.0
H2573 H 0.56472 0.77003 0.52673 0.0
H2574 H 0.54997 0.82293 0.53601 0.0
H2575 H 0.55116 0.80203 0.53469 0.0
H2576 H 0.57336 0.79848 0.57675 0.0
C2577 C 0.5776 0.75743 0.5654 0.0
C2578 C 0.56655 0.77613 0.53774 0.0
C2579 C 0.57661 0.74485 0.56814 0.0
C2580 C 0.55835 0.82266 0.54203 0.0
C2581 C 0.55909 0.81075 0.54115 0.0
C2582 C 0.57163 0.79244 0.56569 0.0
C2583 C 0.56842 0.75857 0.55478 0.0
C2584 C 0.56881 0.77177 0.55308 0.0
C2585 C 0.56955 0.80991 0.54934 0.0
C2586 C 0.56942 0.79684 0.55039 0.0
H2587 H 0.54975 0.72541 0.54286 0.0
H2588 H 0.55125 0.74742 0.53831 0.0
H2589 H 0.57272 0.77687 0.57912 0.0
H2590 H 0.58652 0.84171 0.56566 0.0
H2591 H 0.58791 0.82107 0.56389 0.0
C2592 C 0.73145 0.54832 0.04953 0.0
C2593 C 0.72941 0.55101 0.06594 0.0
C2594 C 0.74237 0.54643 0.04551 0.0
C2595 C 0.76594 0.53691 0.06388 0.0
H2596 H 0.79063 0.55798 0.02857 0.0
C2597 C 0.81457 0.53483 0.05211 0.0
C2598 C 0.82635 0.54773 0.05201 0.0
C2599 C 0.80176 0.53356 0.05022 0.0
C2600 C 0.78375 0.55195 0.03837 0.0
H2601 H 0.7375 0.55419 0.09088 0.0
H2602 H 0.75629 0.55061 0.08392 0.0
H2603 H 0.76977 0.55891 0.03289 0.0
H2604 H 0.83393 0.56935 0.04907 0.0
H2605 H 0.81164 0.5671 0.04566 0.0
H2606 H 0.78008 0.53035 0.06983 0.0
C2607 C 0.74934 0.54979 0.07422 0.0
C2608 C 0.7718 0.55242 0.04077 0.0
C2609 C 0.73855 0.55181 0.0782 0.0
C2610 C 0.82509 0.55924 0.04901 0.0
C2611 C 0.8123 0.55796 0.04705 0.0
C2612 C 0.7778 0.53636 0.0614 0.0
C2613 C 0.75134 0.54706 0.05786 0.0
C2614 C 0.763 0.54519 0.05385 0.0
C2615 C 0.80049 0.54515 0.04812 0.0
C2616 C 0.787 0.54415 0.04891 0.0
H2617 H 0.72451 0.54747 0.03981 0.0
H2618 H 0.74368 0.54429 0.03281 0.0
H2619 H 0.75924 0.53113 0.07394 0.0
H2620 H 0.81521 0.52574 0.05407 0.0
H2621 H 0.79282 0.52354 0.05087 0.0
C2622 C 0.25844 0.81695 0.55498 0.0
C2623 C 0.2607 0.82657 0.56729 0.0
C2624 C 0.24542 0.80587 0.55241 0.0
C2625 C 0.21256 0.78582 0.57383 0.0
H2626 H 0.19901 0.77151 0.53005 0.0
C2627 C 0.15801 0.74272 0.56452 0.0
C2628 C 0.15661 0.73159 0.55534 0.0
C2629 C 0.17017 0.7551 0.56422 0.0
C2630 C 0.20271 0.7754 0.54234 0.0
H2631 H 0.25109 0.83253 0.58607 0.0
H2632 H 0.22837 0.81335 0.58146 0.0
H2633 H 0.22151 0.79169 0.53314 0.0
H2634 H 0.16654 0.72496 0.53781 0.0
H2635 H 0.18791 0.74664 0.5374 0.0
H2636 H 0.19383 0.76958 0.58304 0.0
C2637 C 0.23667 0.81411 0.57408 0.0
C2638 C 0.21559 0.7869 0.54412 0.0
C2639 C 0.24968 0.82509 0.57673 0.0
C2640 C 0.16739 0.73333 0.54514 0.0
C2641 C 0.17956 0.74575 0.5448 0.0
C2642 C 0.1997 0.77442 0.57203 0.0
C2643 C 0.2344 0.80428 0.56202 0.0
C2644 C 0.22066 0.79222 0.55991 0.0
C2645 C 0.18119 0.75662 0.55472 0.0
C2646 C 0.19464 0.76908 0.55629 0.0
H2647 H 0.2668 0.81784 0.54758 0.0
H2648 H 0.24405 0.79839 0.54316 0.0
H2649 H 0.21626 0.78945 0.58619 0.0
H2650 H 0.14996 0.74169 0.57262 0.0
H2651 H 0.1711 0.76338 0.57182 0.0
C2652 C 0.82138 0.56091 0.45279 0.0
C2653 C 0.82275 0.55462 0.43855 0.0
C2654 C 0.80902 0.56022 0.4564 0.0
C2655 C 0.77236 0.54202 0.44506 0.0
H2656 H 0.77421 0.57577 0.45804 0.0
C2657 C 0.72403 0.54613 0.44915 0.0
C2658 C 0.72501 0.55777 0.44176 0.0
C2659 C 0.73573 0.54542 0.45246 0.0
C2660 C 0.77352 0.56626 0.45441 0.0
H2661 H 0.81225 0.54258 0.417 0.0
H2662 H 0.7908 0.54151 0.42312 0.0
H2663 H 0.795 0.57459 0.4565 0.0
H2664 H 0.73896 0.57791 0.43236 0.0
H2665 H 0.75933 0.57661 0.43781 0.0
H2666 H 0.75102 0.53393 0.44197 0.0
C2667 C 0.79913 0.54672 0.43175 0.0
C2668 C 0.78542 0.56553 0.45374 0.0
C2669 C 0.81145 0.54736 0.4282 0.0
C2670 C 0.73791 0.56886 0.43824 0.0
C2671 C 0.7496 0.56812 0.44143 0.0
C2672 C 0.76048 0.54278 0.44563 0.0
C2673 C 0.7978 0.55326 0.44579 0.0
C2674 C 0.78501 0.5535 0.44864 0.0
C2675 C 0.74863 0.5563 0.44832 0.0
C2676 C 0.76096 0.55501 0.44991 0.0
H2677 H 0.8299 0.56643 0.4611 0.0
H2678 H 0.80828 0.56521 0.46743 0.0
H2679 H 0.77167 0.53253 0.44137 0.0
H2680 H 0.7142 0.5375 0.45221 0.0
H2681 H 0.73464 0.53626 0.45804 0.0
C2682 C 0.17989 0.73068 0.93967 0.0
C2683 C 0.16718 0.72991 0.93834 0.0
C2684 C 0.19165 0.74318 0.94248 0.0
C2685 C 0.20494 0.77896 0.93406 0.0
H2686 H 0.23411 0.78508 0.96401 0.0
C2687 C 0.25304 0.83117 0.93753 0.0
C2688 C 0.26551 0.83138 0.9382 0.0
C2689 C 0.24085 0.81915 0.94035 0.0
C2690 C 0.2261 0.7835 0.95549 0.0
H2691 H 0.15673 0.74147 0.94007 0.0
H2692 H 0.17728 0.76328 0.94464 0.0
H2693 H 0.21309 0.76305 0.96387 0.0
H2694 H 0.27491 0.81918 0.94332 0.0
H2695 H 0.25362 0.79807 0.94736 0.0
H2696 H 0.21795 0.79903 0.92508 0.0
C2697 C 0.17814 0.75425 0.94331 0.0
C2698 C 0.21407 0.77091 0.95547 0.0
C2699 C 0.16641 0.74178 0.94062 0.0
C2700 C 0.26549 0.81935 0.94235 0.0
C2701 C 0.25327 0.80726 0.94494 0.0
C2702 C 0.21697 0.79144 0.93393 0.0
C2703 C 0.19089 0.75511 0.94392 0.0
C2704 C 0.20342 0.76854 0.9447 0.0
C2705 C 0.24078 0.80696 0.94365 0.0
C2706 C 0.22773 0.79387 0.94459 0.0
H2707 H 0.18083 0.72174 0.93785 0.0
H2708 H 0.20138 0.7436 0.94277 0.0
H2709 H 0.19697 0.77732 0.92542 0.0
H2710 H 0.2526 0.84019 0.93425 0.0
H2711 H 0.23144 0.81936 0.9396 0.0
C2712 C 0.44875 0.17781 0.44543 0.0
C2713 C 0.43681 0.1653 0.4428 0.0
C2714 C 0.44802 0.18944 0.44921 0.0
C2715 C 0.42594 0.20332 0.44127 0.0
H2716 H 0.44822 0.2311 0.47318 0.0
C2717 C 0.42183 0.25113 0.44693 0.0
C2718 C 0.43411 0.26356 0.44795 0.0
C2719 C 0.42155 0.23887 0.4496 0.0
C2720 C 0.442 0.22347 0.46414 0.0
H2721 H 0.41477 0.15495 0.44329 0.0
H2722 H 0.41352 0.17526 0.44964 0.0
H2723 H 0.44914 0.21003 0.47181 0.0
H2724 H 0.45559 0.27281 0.45375 0.0
H2725 H 0.45523 0.25138 0.45751 0.0
H2726 H 0.4192 0.21676 0.43301 0.0
C2727 C 0.42343 0.17611 0.44855 0.0
C2728 C 0.44251 0.21142 0.46341 0.0
C2729 C 0.42415 0.16451 0.44485 0.0
C2730 C 0.446 0.26343 0.45249 0.0
C2731 C 0.44576 0.25112 0.45491 0.0
C2732 C 0.42553 0.21535 0.44188 0.0
C2733 C 0.43534 0.18874 0.45036 0.0
C2734 C 0.43449 0.20127 0.45192 0.0
C2735 C 0.43358 0.23869 0.45305 0.0
C2736 C 0.43357 0.22561 0.45328 0.0
H2737 H 0.45865 0.17874 0.44387 0.0
H2738 H 0.45736 0.19909 0.45043 0.0
H2739 H 0.41985 0.19578 0.43207 0.0
H2740 H 0.41246 0.25075 0.44334 0.0
H2741 H 0.41193 0.2295 0.44845 0.0
C2742 C 0.25048 0.4186 0.94752 0.0
C2743 C 0.26202 0.43165 0.94823 0.0
C2744 C 0.23758 0.41677 0.95054 0.0
C2745 C 0.21882 0.43333 0.96654 0.0
H2746 H 0.19329 0.41256 0.93179 0.0
C2747 C 0.17233 0.43872 0.94989 0.0
C2748 C 0.16056 0.4272 0.94409 0.0
C2749 C 0.184 0.43803 0.95345 0.0
C2750 C 0.20015 0.41816 0.94181 0.0
H2751 H 0.26919 0.45284 0.95385 0.0
H2752 H 0.24661 0.44968 0.95879 0.0
H2753 H 0.21501 0.41338 0.93314 0.0
H2754 H 0.15142 0.40575 0.93843 0.0
H2755 H 0.17171 0.40445 0.94488 0.0
H2756 H 0.20399 0.43835 0.97495 0.0
C2757 C 0.24754 0.44086 0.95599 0.0
C2758 C 0.21263 0.41863 0.94258 0.0
C2759 C 0.26046 0.44269 0.95297 0.0
C2760 C 0.16046 0.41484 0.9426 0.0
C2761 C 0.17207 0.41411 0.94628 0.0
C2762 C 0.20628 0.43282 0.9658 0.0
C2763 C 0.23594 0.42794 0.95431 0.0
C2764 C 0.22219 0.42638 0.95479 0.0
C2765 C 0.18408 0.42577 0.95137 0.0
C2766 C 0.19688 0.42539 0.95326 0.0
H2767 H 0.25131 0.40988 0.9438 0.0
H2768 H 0.22883 0.40666 0.94937 0.0
H2769 H 0.22595 0.43928 0.97617 0.0
H2770 H 0.17269 0.4484 0.95105 0.0
H2771 H 0.19312 0.44724 0.95715 0.0
C2772 C 0.74141 0.17368 0.44653 0.0
C2773 C 0.72821 0.17178 0.44563 0.0
C2774 C 0.75237 0.18627 0.45104 0.0
C2775 C 0.7631 0.22222 0.44901 0.0
H2776 H 0.79369 0.22642 0.47493 0.0
C2777 C 0.81252 0.2737 0.4525 0.0
C2778 C 0.82439 0.27304 0.44973 0.0
C2779 C 0.80027 0.26193 0.45616 0.0
C2780 C 0.78523 0.22541 0.46765 0.0
H2781 H 0.71608 0.1814 0.44969 0.0
H2782 H 0.7353 0.20348 0.45732 0.0
H2783 H 0.77286 0.20433 0.47378 0.0
H2784 H 0.8328 0.25961 0.44907 0.0
H2785 H 0.81147 0.23911 0.45523 0.0
H2786 H 0.7756 0.24305 0.44221 0.0
C2787 C 0.73714 0.19523 0.45437 0.0
C2788 C 0.77331 0.21278 0.46702 0.0
C2789 C 0.72616 0.18261 0.44994 0.0
C2790 C 0.82387 0.26048 0.45136 0.0
C2791 C 0.81163 0.24872 0.45493 0.0
C2792 C 0.77503 0.23482 0.44956 0.0
C2793 C 0.75039 0.19725 0.45469 0.0
C2794 C 0.76226 0.21098 0.45736 0.0
C2795 C 0.79962 0.24925 0.45703 0.0
C2796 C 0.78636 0.23647 0.45854 0.0
H2797 H 0.74339 0.16561 0.44309 0.0
H2798 H 0.76249 0.18757 0.45093 0.0
H2799 H 0.75481 0.22111 0.4413 0.0
H2800 H 0.81267 0.28329 0.45156 0.0
H2801 H 0.79124 0.26271 0.45796 0.0
C2802 C 0.54557 0.72942 0.95671 0.0
C2803 C 0.55773 0.73106 0.95005 0.0
C2804 C 0.54472 0.74072 0.96182 0.0
C2805 C 0.56529 0.77775 0.97066 0.0
H2806 H 0.53475 0.77889 0.95101 0.0
C2807 C 0.56766 0.82693 0.94961 0.0
C2808 C 0.55592 0.82808 0.95026 0.0
C2809 C 0.56724 0.81498 0.95466 0.0
C2810 C 0.54318 0.77868 0.95695 0.0
H2811 H 0.57866 0.74578 0.94409 0.0
H2812 H 0.57718 0.76543 0.95294 0.0
H2813 H 0.53515 0.75772 0.95098 0.0
H2814 H 0.53476 0.81795 0.95772 0.0
H2815 H 0.534 0.79699 0.96647 0.0
H2816 H 0.57359 0.79892 0.97595 0.0
C2817 C 0.56835 0.75543 0.95447 0.0
C2818 C 0.54341 0.76651 0.95694 0.0
C2819 C 0.56919 0.74415 0.94935 0.0
C2820 C 0.5439 0.81726 0.9568 0.0
C2821 C 0.54348 0.80529 0.96184 0.0
C2822 C 0.56505 0.78993 0.97069 0.0
C2823 C 0.55602 0.75387 0.96038 0.0
C2824 C 0.55468 0.76604 0.96328 0.0
C2825 C 0.55506 0.80392 0.96047 0.0
C2826 C 0.55421 0.79062 0.96332 0.0
H2827 H 0.53664 0.71942 0.95769 0.0
H2828 H 0.53513 0.7392 0.96652 0.0
H2829 H 0.574 0.77762 0.9759 0.0
H2830 H 0.57704 0.835 0.94445 0.0
H2831 H 0.57629 0.81418 0.95317 0.0
C2832 C 0.32018 0.94747 0.98064 0.0
C2833 C 0.32467 0.95051 0.96418 0.0
C2834 C 0.32105 0.95763 0.99116 0.0
C2835 C 0.32964 0.99408 0.99235 0.0
H2836 H 0.34614 0.99389 0.03422 0.0
C2837 C 0.37015 0.04163 0.02558 0.0
C2838 C 0.3702 0.04213 0.04295 0.0
C2839 C 0.36035 0.03016 0.0172 0.0
C2840 C 0.34126 0.99399 0.02276 0.0
H2841 H 0.33245 0.96633 0.9455 0.0
H2842 H 0.33464 0.98413 0.96394 0.0
H2843 H 0.33623 0.97369 0.01704 0.0
H2844 H 0.35932 0.0313 0.06504 0.0
H2845 H 0.34246 0.01105 0.05034 0.0
H2846 H 0.3357 0.01484 0.9977 0.0
C2847 C 0.33025 0.9739 0.96877 0.0
C2848 C 0.33552 0.98237 0.01288 0.0
C2849 C 0.32923 0.96372 0.95822 0.0
C2850 C 0.35979 0.03114 0.05169 0.0
C2851 C 0.35007 0.01959 0.04329 0.0
C2852 C 0.33555 0.00577 0.00216 0.0
C2853 C 0.32657 0.97108 0.98551 0.0
C2854 C 0.33007 0.98242 0.99728 0.0
C2855 C 0.35045 0.01889 0.026 0.0
C2856 C 0.3418 0.00595 0.0172 0.0
H2857 H 0.31661 0.93741 0.98566 0.0
H2858 H 0.31787 0.95505 0.00389 0.0
H2859 H 0.32525 0.99438 0.98058 0.0
H2860 H 0.37809 0.04979 0.01843 0.0
H2861 H 0.36101 0.02981 0.00387 0.0
C2862 C 0.36668 0.33274 0.45117 0.0
C2863 C 0.37621 0.33076 0.45995 0.0
C2864 C 0.35758 0.33546 0.45961 0.0
C2865 C 0.3497 0.35269 0.48062 0.0
H2866 H 0.3317 0.33527 0.52158 0.0
C2867 C 0.32569 0.37644 0.52075 0.0
C2868 C 0.32886 0.37736 0.53768 0.0
C2869 C 0.3277 0.36776 0.51043 0.0
C2870 C 0.33669 0.34026 0.51018 0.0
H2871 H 0.38322 0.32923 0.48434 0.0
H2872 H 0.36734 0.33401 0.4991 0.0
H2873 H 0.34238 0.32529 0.5048 0.0
H2874 H 0.33561 0.36902 0.55721 0.0
H2875 H 0.33981 0.35446 0.53912 0.0
H2876 H 0.34487 0.3681 0.48631 0.0
C2877 C 0.36687 0.33345 0.48573 0.0
C2878 C 0.34274 0.33451 0.50056 0.0
C2879 C 0.37606 0.33087 0.4773 0.0
C2880 C 0.33337 0.36883 0.54417 0.0
C2881 C 0.33556 0.36027 0.53381 0.0
C2882 C 0.3438 0.35851 0.49029 0.0
C2883 C 0.35776 0.33608 0.47696 0.0
C2884 C 0.34957 0.34085 0.48589 0.0
C2885 C 0.33311 0.35992 0.51673 0.0
C2886 C 0.33751 0.35256 0.5054 0.0
H2887 H 0.36663 0.33275 0.43778 0.0
H2888 H 0.35061 0.33741 0.45258 0.0
H2889 H 0.35506 0.3579 0.46947 0.0
H2890 H 0.32226 0.38289 0.51525 0.0
H2891 H 0.32544 0.36754 0.49739 0.0
C2892 C 0.02596 0.35884 0.94451 0.0
C2893 C 0.03712 0.3683 0.95396 0.0
C2894 C 0.01416 0.34889 0.95224 0.0
C2895 C -0.00049 0.33122 0.99151 0.0
H2896 H 0.96903 0.33603 0.98021 0.0
C2897 C 0.95752 0.32166 0.03773 0.0
C2898 C 0.94483 0.31934 0.03205 0.0
C2899 C 0.96761 0.32332 0.02657 0.0
C2900 C 0.97721 0.33414 0.98331 0.0
H2901 H 0.04475 0.37416 0.97902 0.0
H2902 H 0.02435 0.35657 0.99235 0.0
H2903 H 0.98928 0.3465 0.96322 0.0
H2904 H 0.93251 0.31576 0.01004 0.0
H2905 H 0.94969 0.3177 0.9908 0.0
H2906 H 0.98753 0.31899 0.01175 0.0
C2907 C 0.02478 0.35689 0.97897 0.0
C2908 C 0.98887 0.34023 0.97354 0.0
C2909 C 0.03648 0.36698 0.97128 0.0
C2910 C 0.9421 0.31752 0.01499 0.0
C2911 C 0.95209 0.31887 0.00386 0.0
C2912 C 0.98772 0.32489 0.00114 0.0
C2913 C 0.01338 0.34802 0.96955 0.0
C2914 C 0.00029 0.33923 0.9779 0.0
C2915 C 0.96517 0.3224 0.00943 0.0
C2916 C 0.97661 0.32672 0.99754 0.0
H2917 H 0.0262 0.35932 0.93115 0.0
H2918 H 0.0055 0.34209 0.94473 0.0
H2919 H 0.00818 0.33023 0.99501 0.0
H2920 H 0.95989 0.32271 0.05079 0.0
H2921 H 0.97754 0.32608 0.03143 0.0
C2922 C 0.67242 0.03899 0.46128 0.0
C2923 C 0.67405 0.05143 0.46695 0.0
C2924 C 0.66986 0.02855 0.47237 0.0
C2925 C 0.65553 0.01738 0.51416 0.0
H2926 H 0.66239 0.98787 0.50478 0.0
C2927 C 0.63182 0.96916 0.5537 0.0
C2928 C 0.62366 0.95741 0.54431 0.0
C2929 C 0.64141 0.98117 0.546 0.0
C2930 C 0.66052 0.99611 0.5076 0.0
H2931 H 0.6753 0.06289 0.48905 0.0
H2932 H 0.67182 0.04514 0.50829 0.0
H2933 H 0.67371 0.00869 0.48834 0.0
H2934 H 0.61978 0.94892 0.51953 0.0
H2935 H 0.63671 0.9698 0.50621 0.0
H2936 H 0.64226 0.00475 0.5333 0.0
C2937 C 0.67191 0.0432 0.4952 0.0
C2938 C 0.66691 0.008 0.49814 0.0
C2939 C 0.67415 0.05352 0.4841 0.0
C2940 C 0.62596 0.95771 0.52719 0.0
C2941 C 0.63566 0.96968 0.51953 0.0
C2942 C 0.64935 0.00563 0.52375 0.0
C2943 C 0.66916 0.03039 0.48946 0.0
C2944 C 0.66417 0.01864 0.50099 0.0
C2945 C 0.64317 0.98161 0.5288 0.0
C2946 C 0.65149 0.99475 0.52028 0.0
H2947 H 0.67266 0.0371 0.4482 0.0
H2948 H 0.66776 0.01885 0.4674 0.0
H2949 H 0.65289 0.02516 0.51658 0.0
H2950 H 0.63057 0.9692 0.56697 0.0
H2951 H 0.64718 0.99022 0.55343 0.0
C2952 C 0.66359 0.62253 0.03631 0.0
C2953 C 0.66265 0.61053 0.03004 0.0
C2954 C 0.65905 0.62982 0.02693 0.0
C2955 C 0.63291 0.62304 0.99735 0.0
H2956 H 0.6511 0.66194 0.98954 0.0
C2957 C 0.60415 0.64975 0.97608 0.0
C2958 C 0.60881 0.65695 0.96114 0.0
C2959 C 0.612 0.64547 0.98463 0.0
C2960 C 0.64596 0.65107 0.99167 0.0
H2961 H 0.65731 0.59746 0.00848 0.0
H2962 H 0.64902 0.60998 0.99237 0.0
H2963 H 0.66333 0.65199 0.00355 0.0
H2964 H 0.62571 0.66576 0.94386 0.0
H2965 H 0.6396 0.65859 0.95919 0.0
H2966 H 0.61548 0.62208 0.98589 0.0
C2967 C 0.65319 0.61365 0.00457 0.0
C2968 C 0.6529 0.64542 -0.00033 0.0
C2969 C 0.65786 0.60646 0.01383 0.0
C2970 C 0.62184 0.66035 0.9554 0.0
C2971 C 0.62979 0.65624 0.96412 0.0
C2972 C 0.62592 0.6287 0.98968 0.0
C2973 C 0.65339 0.62515 0.01122 0.0
C2974 C 0.64642 0.63134 0.00248 0.0
C2975 C 0.62478 0.6485 0.97858 0.0
C2976 C 0.63237 0.64274 0.98678 0.0
H2977 H 0.66713 0.62588 0.04879 0.0
H2978 H 0.65923 0.63864 0.03233 0.0
H2979 H 0.62766 0.61218 -0.00044 0.0
H2980 H 0.59434 0.64727 0.98112 0.0
H2981 H 0.60802 0.63965 0.99589 0.0
C2982 C 0.02027 0.64373 0.5463 0.0
C2983 C 0.03084 0.65694 0.54971 0.0
C2984 C 0.00852 0.64165 0.53831 0.0
C2985 C 0.99621 0.6587 0.51041 0.0
H2986 H 0.96197 0.62576 0.5186 0.0
C2987 C 0.95615 0.63178 0.46013 0.0
C2988 C 0.94259 0.62264 0.46452 0.0
C2989 C 0.96585 0.63907 0.47225 0.0
C2990 C 0.9713 0.6352 0.51629 0.0
H2991 H 0.03724 0.67836 0.54796 0.0
H2992 H 0.01653 0.67473 0.53413 0.0
H2993 H 0.98066 0.63241 0.53766 0.0
H2994 H 0.9284 0.6151 0.4851 0.0
H2995 H 0.94509 0.62841 0.50599 0.0
H2996 H 0.98678 0.66155 0.48908 0.0
C2997 C 0.01745 0.66597 0.5374 0.0
C2998 C 0.98213 0.63889 0.52713 0.0
C2999 C 0.02929 0.66806 0.54532 0.0
C3000 C 0.93872 0.622 0.48116 0.0
C3001 C 0.94838 0.6295 0.49325 0.0
C3002 C 0.98529 0.65511 0.49966 0.0
C3003 C 0.00699 0.65273 0.53364 0.0
C3004 C 0.99488 0.65035 0.52393 0.0
C3005 C 0.96218 0.63761 0.48905 0.0
C3006 C 0.97286 0.64301 0.50209 0.0
H3007 H 0.02128 0.63497 0.54928 0.0
H3008 H 0.00085 0.63133 0.53527 0.0
H3009 H 0.00588 0.66761 0.50756 0.0
H3010 H 0.95944 0.63287 0.44739 0.0
H3011 H 0.97635 0.64517 0.46846 0.0
C3012 C 0.60962 0.9543 0.97246 0.0
C3013 C 0.61399 0.95165 0.95742 0.0
C3014 C 0.61839 0.96557 0.98192 0.0
C3015 C 0.64677 -0.00028 0.97738 0.0
H3016 H 0.64665 -0.00119 0.02531 0.0
C3017 C 0.65449 0.04427 0.01789 0.0
C3018 C 0.66171 0.04684 0.03278 0.0
C3019 C 0.6521 0.03319 0.00809 0.0
C3020 C 0.64702 -0.00077 0.01194 0.0
H3021 H 0.63102 0.95844 0.94062 0.0
H3022 H 0.64641 0.97838 0.95716 0.0
H3023 H 0.63607 0.97754 0.00977 0.0
H3024 H 0.67246 0.04016 0.0489 0.0
H3025 H 0.66814 0.0206 0.03176 0.0
H3026 H 0.65724 0.02142 0.97957 0.0
C3027 C 0.63619 0.97167 0.9616 0.0
C3028 C 0.64087 0.98706 0.00306 0.0
C3029 C 0.62743 0.96027 0.9522 0.0
C3030 C 0.66689 0.03839 0.03744 0.0
C3031 C 0.66437 0.0272 0.0277 0.0
C3032 C 0.65285 0.01189 0.98627 0.0
C3033 C 0.63169 0.97449 0.97648 0.0
C3034 C 0.6403 0.9872 0.98572 0.0
C3035 C 0.65679 0.0244 0.01304 0.0
C3036 C 0.65264 0.01175 0.00363 0.0
H3037 H 0.59934 0.94771 0.97684 0.0
H3038 H 0.61458 0.96758 0.99322 0.0
H3039 H 0.64643 0.00012 0.96403 0.0
H3040 H 0.65053 0.05072 0.01393 0.0
H3041 H 0.64608 0.0312 0.99696 0.0
C3042 C 0.66653 0.63269 0.45325 0.0
C3043 C 0.67133 0.62419 0.45902 0.0
C3044 C 0.66531 0.64164 0.46397 0.0
C3045 C 0.65934 0.64358 0.50803 0.0
H3046 H 0.65879 0.67604 0.49448 0.0
C3047 C 0.63396 0.66589 0.5485 0.0
C3048 C 0.62414 0.6676 0.53994 0.0
C3049 C 0.64371 0.66428 0.53986 0.0
C3050 C 0.65899 0.66704 0.49847 0.0
H3051 H 0.67975 0.61932 0.4803 0.0
H3052 H 0.67809 0.6353 0.49883 0.0
H3053 H 0.66968 0.66682 0.47679 0.0
H3054 H 0.61724 0.66954 0.51562 0.0
H3055 H 0.63424 0.66677 0.50059 0.0
H3056 H 0.64825 0.64349 0.52937 0.0
C3057 C 0.6749 0.63476 0.48611 0.0
C3058 C 0.66519 0.66174 0.48834 0.0
C3059 C 0.67599 0.6257 0.47541 0.0
C3060 C 0.62474 0.66839 0.5226 0.0
C3061 C 0.63451 0.66683 0.51398 0.0
C3062 C 0.65324 0.64892 0.51817 0.0
C3063 C 0.669 0.6424 0.48069 0.0
C3064 C 0.665 0.64966 0.49273 0.0
C3065 C 0.64387 0.66441 0.5225 0.0
C3066 C 0.65258 0.66043 0.51323 0.0
H3067 H 0.66315 0.63201 0.44059 0.0
H3068 H 0.66067 0.64731 0.45934 0.0
H3069 H 0.65878 0.63415 0.51173 0.0
H3070 H 0.63395 0.66553 0.56187 0.0
H3071 H 0.65091 0.66259 0.54675 0.0
C3072 C 0.96476 0.62941 0.0416 0.0
C3073 C 0.95118 0.62254 0.03627 0.0
C3074 C 0.9751 0.63819 0.03096 0.0
C3075 C 0.98235 0.64175 0.98696 0.0
H3076 H 0.01631 0.67274 0.0013 0.0
C3077 C 0.03048 0.66329 0.94671 0.0
C3078 C 0.04186 0.66466 0.95531 0.0
C3079 C 0.01907 0.66161 0.95532 0.0
C3080 C 0.00686 0.66414 0.99708 0.0
H3081 H 0.93766 0.6201 0.01597 0.0
H3082 H 0.95576 0.63558 0.99739 0.0
H3083 H 0.99637 0.66381 0.01922 0.0
H3084 H 0.05022 0.66552 0.97971 0.0
H3085 H 0.03043 0.66263 0.99462 0.0
H3086 H 0.99296 0.64164 0.96521 0.0
C3087 C 0.9584 0.63406 0.00976 0.0
C3088 C 0.99546 0.65904 0.00733 0.0
C3089 C 0.94804 0.62529 0.02044 0.0
C3090 C 0.04174 0.66474 0.97268 0.0
C3091 C 0.03038 0.66311 0.98126 0.0
C3092 C 0.99374 0.64685 0.97672 0.0
C3093 C 0.97207 0.64028 0.01474 0.0
C3094 C 0.98323 0.64747 0.00264 0.0
C3095 C 0.01884 0.6613 0.97269 0.0
C3096 C 0.00624 0.65777 0.98196 0.0
H3097 H 0.96744 0.62761 0.05381 0.0
H3098 H 0.98553 0.64271 0.03515 0.0
H3099 H 0.97313 0.63274 0.98304 0.0
H3100 H 0.03035 0.6634 0.93333 0.0
H3101 H 0.01035 0.66034 0.9484 0.0
C3102 C 0.33205 0.95933 0.5381 0.0
C3103 C 0.32778 0.94611 0.53239 0.0
C3104 C 0.3342 0.96964 0.52704 0.0
C3105 C 0.34344 0.97861 0.48366 0.0
H3106 H 0.33983 0.0098 0.4952 0.0
C3107 C 0.36723 0.02667 0.44342 0.0
C3108 C 0.37565 0.03859 0.45239 0.0
C3109 C 0.35794 0.01478 0.45161 0.0
C3110 C 0.34083 0.00111 0.49178 0.0
H3111 H 0.32171 0.93321 0.51062 0.0
H3112 H 0.32507 0.9511 0.4914 0.0
H3113 H 0.32921 0.98951 0.51262 0.0
H3114 H 0.38057 0.04743 0.47698 0.0
H3115 H 0.36433 0.02678 0.49117 0.0
H3116 H 0.3554 0.99034 0.46315 0.0
C3117 C 0.32702 0.95355 0.50441 0.0
C3118 C 0.33479 0.98953 0.50176 0.0
C3119 C 0.32495 0.94326 0.51547 0.0
C3120 C 0.37413 0.0385 0.46964 0.0
C3121 C 0.3648 0.02666 0.4778 0.0
C3122 C 0.3494 0.99015 0.47365 0.0
C3123 C 0.33205 0.96695 0.51001 0.0
C3124 C 0.33639 0.97831 0.49808 0.0
C3125 C 0.35683 0.0146 0.46891 0.0
C3126 C 0.34851 0.00167 0.4779 0.0
H3127 H 0.33408 0.9618 0.5511 0.0
H3128 H 0.33819 0.97985 0.53178 0.0
H3129 H 0.34506 0.97025 0.48057 0.0
H3130 H 0.36797 0.02647 0.43009 0.0
H3131 H 0.35181 0.00565 0.44445 0.0
C3132 C 0.39506 0.34283 0.01396 0.0
C3133 C 0.39031 0.33877 0.03018 0.0
C3134 C 0.38852 0.34739 0.00335 0.0
C3135 C 0.35706 0.34767 0.99506 0.0
H3136 H 0.38106 0.38357 0.97719 0.0
C3137 C 0.33727 0.38052 0.9645 0.0
C3138 C 0.34512 0.38951 0.9519 0.0
C3139 C 0.34197 0.37294 0.97293 0.0
C3140 C 0.37421 0.37343 0.98174 0.0
H3141 H 0.37454 0.3357 0.04768 0.0
H3142 H 0.36292 0.34342 0.02889 0.0
H3143 H 0.39045 0.37236 0.99366 0.0
H3144 H 0.36355 0.39712 0.93748 0.0
H3145 H 0.37153 0.38348 0.95163 0.0
H3146 H 0.34081 0.34863 0.98294 0.0
C3147 C 0.37177 0.3431 0.02452 0.0
C3148 C 0.37961 0.36705 0.99126 0.0
C3149 C 0.37841 0.33866 0.03523 0.0
C3150 C 0.35743 0.39037 0.94733 0.0
C3151 C 0.36201 0.38262 0.95553 0.0
C3152 C 0.35165 0.35397 0.98528 0.0
C3153 C 0.37698 0.34782 0.00865 0.0
C3154 C 0.3711 0.35416 0.99807 0.0
C3155 C 0.35452 0.37407 0.96872 0.0
C3156 C 0.36017 0.36698 0.97857 0.0
H3157 H 0.40398 0.3427 0.00952 0.0
H3158 H 0.39261 0.3508 0.99107 0.0
H3159 H 0.35031 0.33769 0.00014 0.0
H3160 H 0.32776 0.37978 0.96825 0.0
H3161 H 0.336 0.3666 0.98313 0.0
C3162 C 0.0438 0.3756 0.51892 0.0
C3163 C 0.04096 0.37636 0.53568 0.0
C3164 C 0.03341 0.36732 0.50803 0.0
C3165 C -0.00235 0.33946 0.50516 0.0
H3166 H -0.00274 0.35879 0.46587 0.0
C3167 C 0.94912 0.32607 0.4685 0.0
C3168 C 0.95021 0.32919 0.45159 0.0
C3169 C 0.96067 0.32896 0.47768 0.0
C3170 C -0.00269 0.35306 0.47653 0.0
H3171 H 0.02512 0.36842 0.55431 0.0
H3172 H 0.00688 0.35412 0.53516 0.0
H3173 H 0.01674 0.36913 0.48417 0.0
H3174 H 0.96391 0.33666 0.43067 0.0
H3175 H 0.98407 0.34137 0.44656 0.0
H3176 H 0.978 0.32351 0.49765 0.0
C3177 C 0.01718 0.35987 0.53051 0.0
C3178 C 0.0085 0.35903 0.48707 0.0
C3179 C 0.02759 0.36818 0.54143 0.0
C3180 C 0.96286 0.33434 0.44376 0.0
C3181 C 0.97439 0.33708 0.45288 0.0
C3182 C 0.98645 0.33343 0.49453 0.0
C3183 C 0.01995 0.35961 0.51362 0.0
C3184 C 0.00869 0.35243 0.50166 0.0
C3185 C 0.97352 0.33492 0.47007 0.0
C3186 C 0.98604 0.34029 0.48026 0.0
H3187 H 0.05396 0.38185 0.51405 0.0
H3188 H 0.03586 0.36722 0.49511 0.0
H3189 H -0.0024 0.33409 0.51625 0.0
H3190 H 0.93949 0.32219 0.47485 0.0
H3191 H 0.95963 0.32729 0.4909 0.0
C3192 C 0.50948 0.11301 0.0831 0.0
C3193 C 0.49802 0.1025 0.07516 0.0
C3194 C 0.52197 0.11345 0.08255 0.0
C3195 C 0.54196 0.10192 0.05924 0.0
H3196 H 0.56119 0.10742 0.10068 0.0
C3197 C 0.58971 0.09631 0.06529 0.0
C3198 C 0.59994 0.10513 0.07622 0.0
C3199 C 0.57734 0.09618 0.06449 0.0
C3200 C 0.55608 0.10609 0.08895 0.0
H3201 H 0.4908 0.08428 0.06024 0.0
H3202 H 0.51275 0.08525 0.05904 0.0
H3203 H 0.53956 0.10698 0.10036 0.0
H3204 H 0.60557 0.12113 0.09433 0.0
H3205 H 0.58419 0.12117 0.09266 0.0
H3206 H 0.55859 0.10126 0.04776 0.0
C3207 C 0.51199 0.09314 0.06566 0.0
C3208 C 0.54366 0.10579 0.08879 0.0
C3209 C 0.49944 0.09262 0.06632 0.0
C3210 C 0.59775 0.11407 0.08599 0.0
C3211 C 0.58547 0.11404 0.08507 0.0
C3212 C 0.55448 0.10236 0.05936 0.0
C3213 C 0.52333 0.10348 0.07393 0.0
C3214 C 0.53648 0.10372 0.07395 0.0
C3215 C 0.57503 0.10496 0.07449 0.0
C3216 C 0.56171 0.10448 0.07422 0.0
H3217 H 0.50885 0.12098 0.08969 0.0
H3218 H 0.53061 0.12166 0.08882 0.0
H3219 H 0.53667 0.10043 0.04761 0.0
H3220 H 0.59112 0.08925 0.05772 0.0
H3221 H 0.56948 0.08894 0.05635 0.0
C3222 C 0.49421 0.5912 0.56494 0.0
C3223 C 0.49564 0.60277 0.5731 0.0
C3224 C 0.48153 0.57934 0.56403 0.0
C3225 C 0.44861 0.56184 0.5855 0.0
H3226 H 0.43616 0.53966 0.54591 0.0
C3227 C 0.39477 0.51548 0.5809 0.0
C3228 C 0.39352 0.50367 0.57365 0.0
C3229 C 0.407 0.52779 0.57995 0.0
C3230 C 0.43955 0.54569 0.55711 0.0
H3231 H 0.48477 0.61117 0.58601 0.0
H3232 H 0.46268 0.5905 0.58444 0.0
H3233 H 0.45799 0.56083 0.54572 0.0
H3234 H 0.4041 0.49551 0.55963 0.0
H3235 H 0.42551 0.517 0.55804 0.0
H3236 H 0.43031 0.5467 0.59697 0.0
C3237 C 0.4714 0.5905 0.57903 0.0
C3238 C 0.45205 0.55781 0.55699 0.0
C3239 C 0.48406 0.60234 0.57994 0.0
C3240 C 0.4047 0.50448 0.56518 0.0
C3241 C 0.41696 0.51679 0.56426 0.0
C3242 C 0.43616 0.54974 0.58563 0.0
C3243 C 0.47002 0.57881 0.57126 0.0
C3244 C 0.4567 0.56602 0.57119 0.0
C3245 C 0.41828 0.52856 0.57175 0.0
C3246 C 0.43147 0.54152 0.57144 0.0
H3247 H 0.50297 0.59117 0.5597 0.0
H3248 H 0.48082 0.57045 0.5581 0.0
H3249 H 0.45203 0.56781 0.59674 0.0
H3250 H 0.38626 0.51522 0.58726 0.0
H3251 H 0.40761 0.53672 0.58559 0.0
C3252 C 0.89393 0.39942 0.056 0.0
C3253 C 0.90032 0.3968 0.06921 0.0
C3254 C 0.89495 0.41214 0.05438 0.0
C3255 C 0.91554 0.44799 0.0668 0.0
H3256 H 0.8823 0.44909 0.06008 0.0
C3257 C 0.91229 0.49631 0.07838 0.0
C3258 C 0.90378 0.49887 0.06824 0.0
C3259 C 0.91255 0.4842 0.07686 0.0
C3260 C 0.89173 0.449 0.06165 0.0
H3261 H 0.9131 0.40552 0.0908 0.0
H3262 H 0.91487 0.42775 0.08798 0.0
H3263 H 0.88157 0.42728 0.06025 0.0
H3264 H 0.88903 0.49078 0.04831 0.0
H3265 H 0.88983 0.46986 0.04529 0.0
H3266 H 0.92572 0.46969 0.06822 0.0
C3267 C 0.90909 0.41998 0.07888 0.0
C3268 C 0.89128 0.43649 0.06179 0.0
C3269 C 0.90796 0.40722 0.08059 0.0
C3270 C 0.8958 0.4892 0.05623 0.0
C3271 C 0.89612 0.47711 0.05464 0.0
C3272 C 0.91601 0.46052 0.06653 0.0
C3273 C 0.90249 0.42253 0.06585 0.0
C3274 C 0.90315 0.43586 0.06459 0.0
C3275 C 0.90437 0.47439 0.06508 0.0
C3276 C 0.90407 0.46116 0.06419 0.0
H3277 H 0.88791 0.39154 0.04711 0.0
H3278 H 0.88983 0.41387 0.04416 0.0
H3279 H 0.92487 0.4478 0.06876 0.0
H3280 H 0.91872 0.50362 0.08759 0.0
H3281 H 0.91892 0.48239 0.08524 0.0
C3282 C 0.39763 0.88645 0.55876 0.0
C3283 C 0.39457 0.89119 0.57327 0.0
C3284 C 0.4102 0.88715 0.55695 0.0
C3285 C 0.44529 0.90476 0.57326 0.0
H3286 H 0.44652 0.87331 0.55684 0.0
C3287 C 0.49176 0.89815 0.58265 0.0
C3288 C 0.49571 0.89268 0.56965 0.0
C3289 C 0.47971 0.89855 0.5817 0.0
C3290 C 0.44637 0.88225 0.56121 0.0
H3291 H 0.40242 0.90066 0.59709 0.0
H3292 H 0.42422 0.90168 0.59405 0.0
H3293 H 0.42487 0.87298 0.55762 0.0
H3294 H 0.4901 0.88335 0.5454 0.0
H3295 H 0.46904 0.88418 0.54364 0.0
H3296 H 0.46673 0.91397 0.57706 0.0
C3297 C 0.41696 0.89751 0.58401 0.0
C3298 C 0.43398 0.88206 0.56166 0.0
C3299 C 0.4044 0.89676 0.58584 0.0
C3300 C 0.48737 0.88771 0.55557 0.0
C3301 C 0.47526 0.88807 0.55463 0.0
C3302 C 0.45766 0.90495 0.5728 0.0
C3303 C 0.42 0.89268 0.56957 0.0
C3304 C 0.43327 0.89323 0.56793 0.0
C3305 C 0.4713 0.89348 0.56771 0.0
C3306 C 0.45831 0.89362 0.56701 0.0
H3307 H 0.39022 0.88202 0.5489 0.0
H3308 H 0.4123 0.88344 0.54563 0.0
H3309 H 0.44512 0.91362 0.57786 0.0
H3310 H 0.49805 0.90222 0.59357 0.0
H3311 H 0.47686 0.90263 0.59206 0.0
C3312 C 0.60126 0.48408 0.07008 0.0
C3313 C 0.60256 0.49446 0.0807 0.0
C3314 C 0.58915 0.47161 0.06954 0.0
C3315 C 0.55266 0.4555 0.07862 0.0
H3316 H 0.55413 0.42215 0.08071 0.0
C3317 C 0.50493 0.40361 0.09049 0.0
C3318 C 0.5036 0.39223 0.08195 0.0
C3319 C 0.517 0.41608 0.0897 0.0
C3320 C 0.55354 0.43135 0.07987 0.0
H3321 H 0.59215 0.50004 0.09881 0.0
H3322 H 0.57099 0.47824 0.09789 0.0
H3323 H 0.5752 0.444 0.08022 0.0
H3324 H 0.51401 0.38505 0.06594 0.0
H3325 H 0.53494 0.40691 0.06415 0.0
H3326 H 0.53103 0.44292 0.07815 0.0
C3327 C 0.57933 0.47976 0.08998 0.0
C3328 C 0.56561 0.44386 0.07962 0.0
C3329 C 0.59147 0.49218 0.09062 0.0
C3330 C 0.51463 0.39364 0.07253 0.0
C3331 C 0.5267 0.40614 0.07167 0.0
C3332 C 0.54059 0.443 0.07875 0.0
C3333 C 0.57807 0.46933 0.07949 0.0
C3334 C 0.56528 0.45606 0.07913 0.0
C3335 C 0.52803 0.4175 0.08026 0.0
C3336 C 0.54088 0.43078 0.07952 0.0
H3337 H 0.60968 0.48553 0.06239 0.0
H3338 H 0.58842 0.46378 0.06126 0.0
H3339 H 0.55212 0.46474 0.07799 0.0
H3340 H 0.49658 0.40295 0.09768 0.0
H3341 H 0.51773 0.42457 0.09665 0.0
C3342 C 0.11494 0.51363 0.57216 0.0
C3343 C 0.10283 0.50154 0.56852 0.0
C3344 C 0.11571 0.52621 0.57031 0.0
C3345 C 0.09913 0.54357 0.55071 0.0
H3346 H 0.11566 0.569 0.58695 0.0
C3347 C 0.09292 0.59069 0.5598 0.0
C3348 C 0.1041 0.60261 0.56596 0.0
C3349 C 0.09342 0.57867 0.55858 0.0
C3350 C 0.11121 0.56212 0.57659 0.0
H3351 H 0.08212 0.49319 0.55975 0.0
H3352 H 0.08348 0.5152 0.55653 0.0
H3353 H 0.11537 0.54745 0.58749 0.0
H3354 H 0.12481 0.61147 0.5749 0.0
H3355 H 0.12573 0.59054 0.57265 0.0
H3356 H 0.09486 0.55825 0.53991 0.0
C3357 C 0.09241 0.51493 0.56066 0.0
C3358 C 0.11103 0.54975 0.57691 0.0
C3359 C 0.09163 0.50233 0.56251 0.0
C3360 C 0.11594 0.60238 0.57038 0.0
C3361 C 0.11646 0.59039 0.56911 0.0
C3362 C 0.09933 0.55598 0.55037 0.0
C3363 C 0.1044 0.527 0.56478 0.0
C3364 C 0.10494 0.54031 0.56402 0.0
C3365 C 0.10513 0.57834 0.56345 0.0
C3366 C 0.10533 0.56537 0.56336 0.0
H3367 H 0.12383 0.51338 0.57649 0.0
H3368 H 0.12517 0.53534 0.57329 0.0
H3369 H 0.0945 0.53655 0.54051 0.0
H3370 H 0.0836 0.59052 0.55646 0.0
H3371 H 0.08446 0.56954 0.55436 0.0
C3372 C 0.88941 0.49151 0.43969 0.0
C3373 C 0.89627 0.50055 0.42665 0.0
C3374 C 0.89014 0.47966 0.44157 0.0
C3375 C 0.91027 0.46363 0.42957 0.0
H3376 H 0.87658 0.42982 0.43682 0.0
C3377 C 0.90486 0.41132 0.41689 0.0
C3378 C 0.89666 0.40045 0.42747 0.0
C3379 C 0.90555 0.42387 0.41866 0.0
C3380 C 0.88612 0.43919 0.43508 0.0
H3381 H 0.90961 0.50448 0.40567 0.0
H3382 H 0.91075 0.48373 0.40882 0.0
H3383 H 0.87648 0.45122 0.4366 0.0
H3384 H 0.88293 0.39433 0.44842 0.0
H3385 H 0.88434 0.41636 0.45171 0.0
H3386 H 0.91988 0.45159 0.42783 0.0
C3387 C 0.90487 0.48583 0.41765 0.0
C3388 C 0.88605 0.45145 0.43494 0.0
C3389 C 0.90409 0.49763 0.41573 0.0
C3390 C 0.88941 0.40252 0.44013 0.0
C3391 C 0.89011 0.4151 0.44191 0.0
C3392 C 0.91034 0.45137 0.42975 0.0
C3393 C 0.89781 0.47666 0.43051 0.0
C3394 C 0.89809 0.46378 0.43193 0.0
C3395 C 0.89809 0.42587 0.43109 0.0
C3396 C 0.89823 0.43899 0.43225 0.0
H3397 H 0.88323 0.49345 0.44824 0.0
H3398 H 0.88468 0.47284 0.45167 0.0
H3399 H 0.91974 0.473 0.42749 0.0
H3400 H 0.91071 0.41011 0.40715 0.0
H3401 H 0.91168 0.4319 0.41001 0.0
C3402 C 0.49477 0.90487 0.92862 0.0
C3403 C 0.49416 0.89282 0.92327 0.0
C3404 C 0.48288 0.90559 0.92991 0.0
C3405 C 0.44668 0.886 0.93662 0.0
H3406 H 0.44372 0.91203 0.90851 0.0
C3407 C 0.39536 0.8835 0.92607 0.0
C3408 C 0.39527 0.89561 0.92307 0.0
C3409 C 0.40765 0.88356 0.92716 0.0
C3410 C 0.44442 0.90489 0.91673 0.0
H3411 H 0.48085 0.87201 0.91558 0.0
H3412 H 0.45993 0.87313 0.9184 0.0
H3413 H 0.46493 0.91159 0.9093 0.0
H3414 H 0.40775 0.9173 0.91935 0.0
H3415 H 0.42929 0.91761 0.92209 0.0
H3416 H 0.42641 0.87949 0.94451 0.0
C3417 C 0.46959 0.88202 0.92137 0.0
C3418 C 0.45656 0.90461 0.91708 0.0
C3419 C 0.4815 0.88139 0.91971 0.0
C3420 C 0.40763 0.90782 0.92151 0.0
C3421 C 0.41994 0.90794 0.92297 0.0
C3422 C 0.43463 0.88646 0.93657 0.0
C3423 C 0.47022 0.89417 0.92626 0.0
C3424 C 0.45771 0.89505 0.92685 0.0
C3425 C 0.42013 0.89578 0.92564 0.0
C3426 C 0.43324 0.89578 0.92644 0.0
H3427 H 0.50446 0.91381 0.93134 0.0
H3428 H 0.48354 0.91505 0.93371 0.0
H3429 H 0.44742 0.87859 0.94432 0.0
H3430 H 0.3859 0.87395 0.92717 0.0
H3431 H 0.40731 0.87394 0.92886 0.0
C3432 C 0.5096 0.39471 0.43549 0.0
C3433 C 0.49812 0.39394 0.42783 0.0
C3434 C 0.52161 0.40719 0.43705 0.0
C3435 C 0.53522 0.44433 0.43621 0.0
H3436 H 0.56919 0.44593 0.42509 0.0
C3437 C 0.58452 0.49467 0.42278 0.0
C3438 C 0.59686 0.49612 0.42849 0.0
C3439 C 0.57245 0.48226 0.42428 0.0
C3440 C 0.55982 0.44563 0.42849 0.0
H3441 H 0.49015 0.40572 0.41624 0.0
H3442 H 0.51117 0.42745 0.4187 0.0
H3443 H 0.54812 0.42411 0.4249 0.0
H3444 H 0.60618 0.48571 0.4404 0.0
H3445 H 0.58505 0.46408 0.44328 0.0
H3446 H 0.5469 0.46589 0.4396 0.0
C3447 C 0.51085 0.41842 0.42361 0.0
C3448 C 0.54775 0.43312 0.42837 0.0
C3449 C 0.49886 0.40595 0.42202 0.0
C3450 C 0.59682 0.48495 0.436 0.0
C3451 C 0.58474 0.47252 0.43749 0.0
C3452 C 0.54729 0.45684 0.43634 0.0
C3453 C 0.52239 0.41917 0.43104 0.0
C3454 C 0.53529 0.43235 0.43206 0.0
C3455 C 0.57244 0.47101 0.43152 0.0
C3456 C 0.55971 0.45765 0.43231 0.0
H3457 H 0.50938 0.38562 0.43998 0.0
H3458 H 0.53029 0.40745 0.44297 0.0
H3459 H 0.52581 0.44404 0.43937 0.0
H3460 H 0.58418 0.50314 0.41711 0.0
H3461 H 0.56317 0.4814 0.41941 0.0
C3462 C 0.09883 0.50227 0.94452 0.0
C3463 C 0.09999 0.49701 0.92927 0.0
C3464 C 0.09842 0.51437 0.94518 0.0
C3465 C 0.09081 0.53655 0.91945 0.0
H3466 H 0.11251 0.56441 0.95158 0.0
C3467 C 0.1016 0.59139 0.91321 0.0
C3468 C 0.10139 0.59827 0.92755 0.0
C3469 C 0.10072 0.57872 0.91429 0.0
C3470 C 0.10624 0.55665 0.94269 0.0
H3471 H 0.10141 0.50019 0.90275 0.0
H3472 H 0.10091 0.52135 0.9039 0.0
H3473 H 0.11229 0.5428 0.95193 0.0
H3474 H 0.10009 0.59722 0.95429 0.0
H3475 H 0.09837 0.57492 0.95618 0.0
H3476 H 0.08484 0.55039 0.91011 0.0
C3477 C 0.10023 0.5161 0.91535 0.0
C3478 C 0.10612 0.54428 0.94289 0.0
C3479 C 0.10069 0.50407 0.91471 0.0
C3480 C 0.1002 0.59213 0.94302 0.0
C3481 C 0.09934 0.57943 0.94411 0.0
C3482 C 0.09091 0.54889 0.91927 0.0
C3483 C 0.09906 0.52138 0.93058 0.0
C3484 C 0.09856 0.53418 0.93111 0.0
C3485 C 0.09958 0.57259 0.92974 0.0
C3486 C 0.09878 0.55916 0.93072 0.0
H3487 H 0.09835 0.4971 0.95596 0.0
H3488 H 0.09743 0.51814 0.95709 0.0
H3489 H 0.08466 0.52886 0.91043 0.0
H3490 H 0.10232 0.59575 0.90109 0.0
H3491 H 0.1011 0.5738 0.903 0.0
C3492 C 0.59218 0.09173 0.42914 0.0
C3493 C 0.60366 0.10277 0.42197 0.0
C3494 C 0.57984 0.09163 0.42995 0.0
C3495 C 0.56165 0.10759 0.41076 0.0
H3496 H 0.53784 0.09267 0.44874 0.0
C3497 C 0.51471 0.11355 0.41951 0.0
C3498 C 0.5025 0.10171 0.42362 0.0
C3499 C 0.52706 0.11371 0.42009 0.0
C3500 C 0.54436 0.09678 0.43802 0.0
H3501 H 0.61138 0.12254 0.41058 0.0
H3502 H 0.58996 0.12251 0.41227 0.0
H3503 H 0.55953 0.09303 0.44834 0.0
H3504 H 0.49378 0.08082 0.43188 0.0
H3505 H 0.51546 0.08121 0.43317 0.0
H3506 H 0.54656 0.11149 0.40055 0.0
C3507 C 0.59034 0.11376 0.41685 0.0
C3508 C 0.55676 0.09696 0.43775 0.0
C3509 C 0.60263 0.1138 0.41592 0.0
C3510 C 0.503 0.09015 0.42881 0.0
C3511 C 0.5154 0.09035 0.42951 0.0
C3512 C 0.54933 0.10751 0.41109 0.0
C3513 C 0.57875 0.10261 0.42373 0.0
C3514 C 0.56556 0.10239 0.42412 0.0
C3515 C 0.52752 0.10208 0.42493 0.0
C3516 C 0.54057 0.10212 0.42472 0.0
H3517 H 0.59267 0.08303 0.43376 0.0
H3518 H 0.57108 0.0828 0.43512 0.0
H3519 H 0.56802 0.11157 0.39991 0.0
H3520 H 0.51474 0.12274 0.41582 0.0
H3521 H 0.53628 0.12297 0.41676 0.0
C3522 C 0.48959 0.59561 0.9031 0.0
C3523 C 0.49143 0.60711 0.91183 0.0
C3524 C 0.47711 0.58353 0.90352 0.0
C3525 C 0.44068 0.56988 0.91176 0.0
H3526 H 0.44019 0.53565 0.91632 0.0
C3527 C 0.39101 0.51856 0.92116 0.0
C3528 C 0.38981 0.50739 0.91225 0.0
C3529 C 0.40334 0.53085 0.92148 0.0
C3530 C 0.44015 0.54511 0.91487 0.0
H3531 H 0.48157 0.61499 0.92768 0.0
H3532 H 0.45981 0.59381 0.92858 0.0
H3533 H 0.46184 0.55689 0.91614 0.0
H3534 H 0.40065 0.5003 0.89685 0.0
H3535 H 0.42202 0.52178 0.89711 0.0
H3536 H 0.41897 0.55807 0.91041 0.0
C3537 C 0.468 0.59418 0.92132 0.0
C3538 C 0.45256 0.55727 0.91477 0.0
C3539 C 0.4805 0.60627 0.92094 0.0
C3540 C 0.40118 0.50877 0.90367 0.0
C3541 C 0.41349 0.52102 0.90399 0.0
C3542 C 0.42825 0.5577 0.91185 0.0
C3543 C 0.46619 0.58267 0.91265 0.0
C3544 C 0.45297 0.56979 0.91312 0.0
C3545 C 0.41472 0.53219 0.91293 0.0
C3546 C 0.42786 0.54517 0.9133 0.0
H3547 H 0.49785 0.59589 0.89611 0.0
H3548 H 0.47598 0.57487 0.89656 0.0
H3549 H 0.44067 0.57935 0.91028 0.0
H3550 H 0.3824 0.51785 0.9278 0.0
H3551 H 0.404 0.53924 0.92859 0.0
loop_
_geom_bond_atom_site_label_1
_geom_bond_atom_site_label_2
_geom_bond_distance
_geom_bond_site_symmetry_2
_ccdc_geom_bond_type
Li0 N17 1.990 . S
Li0 O60 1.956 . S
Li0 O61 1.970 . S
Li0 O62 1.961 . S
Li1 N25 1.990 . S
Li1 O60 1.970 . S
Li1 O61 1.956 . S
Li1 O63 1.961 . S
Li2 N47 1.990 . S
Li2 O60 1.961 . S
Li2 O62 1.956 . S
Li2 O63 1.970 . S
Li3 N53 1.990 . S
Li3 O61 1.961 . S
Li3 O62 1.970 . S
Li3 O63 1.956 . S
C4 C6 1.348 . S
C4 C7 1.356 . S
C4 O60 1.325 . S
N5 C8 1.314 . S
N5 C9 1.279 . S
C6 C4 1.348 . S
C6 C8 1.353 . S
C6 H64 0.929 . S
C7 C4 1.356 . S
C7 C9 1.358 . S
C7 H65 0.930 . S
C8 N5 1.314 . S
C8 C6 1.353 . S
C8 H66 0.930 . S
C9 N5 1.279 . S
C9 C7 1.358 . S
C9 H67 0.930 . S
C10 C13 1.348 . S
C10 C14 1.356 . S
C10 O61 1.325 . S
C11 N12 1.279 . S
C11 C14 1.358 . S
C11 H68 0.930 . S
N12 C11 1.279 . S
N12 C15 1.314 . S
C13 C10 1.348 . S
C13 C15 1.353 . S
C13 H69 0.929 . S
C14 C10 1.356 . S
C14 C11 1.358 . S
C14 H70 0.930 . S
C15 N12 1.314 . S
C15 C13 1.353 . S
C15 H71 0.930 . S
C16 N17 1.314 . S
C16 C21 1.353 . S
C16 H22 0.930 . S
N17 Li0 1.990 . S
N17 C16 1.314 . S
N17 C19 1.279 . S
C18 C19 1.358 . S
C18 C20 1.356 . S
C18 H72 0.930 . S
C19 N17 1.279 . S
C19 C18 1.358 . S
C19 H23 0.930 . S
C20 C18 1.356 . S
C20 C21 1.348 . S
C21 C16 1.353 . S
C21 C20 1.348 . S
C21 H73 0.929 . S
H22 C16 0.930 . S
H23 C19 0.930 . S
C24 N25 1.314 . S
C24 C26 1.353 . S
C24 H30 0.930 . S
N25 Li1 1.990 . S
N25 C24 1.314 . S
N25 C28 1.279 . S
C26 C24 1.353 . S
C26 C29 1.348 . S
C26 H74 0.929 . S
C27 C28 1.358 . S
C27 C29 1.356 . S
C27 H75 0.930 . S
C28 N25 1.279 . S
C28 C27 1.358 . S
C28 H31 0.930 . S
C29 C26 1.348 . S
C29 C27 1.356 . S
H30 C24 0.930 . S
H31 C28 0.930 . S
C32 C34 1.348 . S
C32 C35 1.356 . S
C32 O62 1.325 . S
N33 C36 1.314 . S
N33 C37 1.279 . S
C34 C32 1.348 . S
C34 C36 1.353 . S
C34 H76 0.929 . S
C35 C32 1.356 . S
C35 C37 1.358 . S
C35 H77 0.930 . S
C36 N33 1.314 . S
C36 C34 1.353 . S
C36 H78 0.930 . S
C37 N33 1.279 . S
C37 C35 1.358 . S
C37 H79 0.930 . S
C38 C39 1.348 . S
C38 C40 1.356 . S
C38 O63 1.325 . S
C39 C38 1.348 . S
C39 C41 1.353 . S
C39 H80 0.929 . S
C40 C38 1.356 . S
C40 C42 1.358 . S
C40 H81 0.930 . S
C41 C39 1.353 . S
C41 N43 1.314 . S
C41 H82 0.930 . S
C42 C40 1.358 . S
C42 N43 1.279 . S
C42 H83 0.930 . S
N43 C41 1.314 . S
N43 C42 1.279 . S
C44 C46 1.353 . S
C44 N47 1.314 . S
C44 H50 0.930 . S
C45 N47 1.279 . S
C45 C48 1.358 . S
C45 H51 0.930 . S
C46 C44 1.353 . S
C46 C49 1.348 . S
C46 H84 0.929 . S
N47 Li2 1.990 . S
N47 C44 1.314 . S
N47 C45 1.279 . S
C48 C45 1.358 . S
C48 C49 1.356 . S
C48 H85 0.930 . S
C49 C46 1.348 . S
C49 C48 1.356 . S
H50 C44 0.930 . S
H51 C45 0.930 . S
C52 N53 1.314 . S
C52 C54 1.353 . S
C52 H58 0.930 . S
N53 Li3 1.990 . S
N53 C52 1.314 . S
N53 C56 1.279 . S
C54 C52 1.353 . S
C54 C57 1.348 . S
C54 H86 0.929 . S
C55 C56 1.358 . S
C55 C57 1.356 . S
C55 H87 0.930 . S
C56 N53 1.279 . S
C56 C55 1.358 . S
C56 H59 0.930 . S
C57 C54 1.348 . S
C57 C55 1.356 . S
H58 C52 0.930 . S
H59 C56 0.930 . S
O60 Li0 1.956 . S
O60 Li1 1.970 . S
O60 Li2 1.961 . S
O60 C4 1.325 . S
O61 Li0 1.970 . S
O61 Li1 1.956 . S
O61 Li3 1.961 . S
O61 C10 1.325 . S
O62 Li0 1.961 . S
O62 Li2 1.956 . S
O62 Li3 1.970 . S
O62 C32 1.325 . S
O63 Li1 1.961 . S
O63 Li2 1.970 . S
O63 Li3 1.956 . S
O63 C38 1.325 . S
H64 C6 0.929 . S
H65 C7 0.930 . S
H66 C8 0.930 . S
H67 C9 0.930 . S
H68 C11 0.930 . S
H69 C13 0.929 . S
H70 C14 0.930 . S
H71 C15 0.930 . S
H72 C18 0.930 . S
H73 C21 0.929 . S
H74 C26 0.929 . S
H75 C27 0.930 . S
H76 C34 0.929 . S
H77 C35 0.930 . S
H78 C36 0.930 . S
H79 C37 0.930 . S
H80 C39 0.929 . S
H81 C40 0.930 . S
H82 C41 0.930 . S
H83 C42 0.930 . S
H84 C46 0.929 . S
H85 C48 0.930 . S
H86 C54 0.929 . S
H87 C55 0.930 . S
Li88 N105 1.990 . S
Li88 O148 1.956 . S
Li88 O149 1.970 . S
Li88 O150 1.961 . S
Li89 N113 1.990 . S
Li89 O148 1.970 . S
Li89 O149 1.956 . S
Li89 O151 1.961 . S
Li90 N135 1.990 . S
Li90 O148 1.961 . S
Li90 O150 1.956 . S
Li90 O151 1.970 . S
Li91 N141 1.990 . S
Li91 O149 1.961 . S
Li91 O150 1.970 . S
Li91 O151 1.956 . S
C92 C94 1.348 . S
C92 C95 1.356 . S
C92 O148 1.325 . S
N93 C96 1.314 . S
N93 C97 1.279 . S
C94 C92 1.348 . S
C94 C96 1.353 . S
C94 H152 0.929 . S
C95 C92 1.356 . S
C95 C97 1.358 . S
C95 H153 0.930 . S
C96 N93 1.314 . S
C96 C94 1.353 . S
C96 H154 0.930 . S
C97 N93 1.279 . S
C97 C95 1.358 . S
C97 H155 0.930 . S
C98 C101 1.348 . S
C98 C102 1.356 . S
C98 O149 1.325 . S
C99 N100 1.279 . S
C99 C102 1.358 . S
C99 H156 0.930 . S
N100 C99 1.279 . S
N100 C103 1.314 . S
C101 C98 1.348 . S
C101 C103 1.353 . S
C101 H157 0.929 . S
C102 C98 1.356 . S
C102 C99 1.358 . S
C102 H158 0.930 . S
C103 N100 1.314 . S
C103 C101 1.353 . S
C103 H159 0.930 . S
C104 N105 1.314 . S
C104 C109 1.353 . S
C104 H110 0.930 . S
N105 Li88 1.990 . S
N105 C104 1.314 . S
N105 C107 1.279 . S
C106 C107 1.358 . S
C106 C108 1.356 . S
C106 H160 0.930 . S
C107 N105 1.279 . S
C107 C106 1.358 . S
C107 H111 0.930 . S
C108 C106 1.356 . S
C108 C109 1.348 . S
C109 C104 1.353 . S
C109 C108 1.348 . S
C109 H161 0.929 . S
H110 C104 0.930 . S
H111 C107 0.930 . S
C112 N113 1.314 . S
C112 C114 1.353 . S
C112 H118 0.930 . S
N113 Li89 1.990 . S
N113 C112 1.314 . S
N113 C116 1.279 . S
C114 C112 1.353 . S
C114 C117 1.348 . S
C114 H162 0.929 . S
C115 C116 1.358 . S
C115 C117 1.356 . S
C115 H163 0.930 . S
C116 N113 1.279 . S
C116 C115 1.358 . S
C116 H119 0.930 . S
C117 C114 1.348 . S
C117 C115 1.356 . S
H118 C112 0.930 . S
H119 C116 0.930 . S
C120 C122 1.348 . S
C120 C123 1.356 . S
C120 O150 1.325 . S
N121 C124 1.314 . S
N121 C125 1.279 . S
C122 C120 1.348 . S
C122 C124 1.353 . S
C122 H164 0.929 . S
C123 C120 1.356 . S
C123 C125 1.358 . S
C123 H165 0.930 . S
C124 N121 1.314 . S
C124 C122 1.353 . S
C124 H166 0.930 . S
C125 N121 1.279 . S
C125 C123 1.358 . S
C125 H167 0.930 . S
C126 C127 1.348 . S
C126 C128 1.356 . S
C126 O151 1.325 . S
C127 C126 1.348 . S
C127 C129 1.353 . S
C127 H168 0.929 . S
C128 C126 1.356 . S
C128 C130 1.358 . S
C128 H169 0.930 . S
C129 C127 1.353 . S
C129 N131 1.314 . S
C129 H170 0.930 . S
C130 C128 1.358 . S
C130 N131 1.279 . S
C130 H171 0.930 . S
N131 C129 1.314 . S
N131 C130 1.279 . S
C132 C134 1.353 . S
C132 N135 1.314 . S
C132 H138 0.930 . S
C133 N135 1.279 . S
C133 C136 1.358 . S
C133 H139 0.930 . S
C134 C132 1.353 . S
C134 C137 1.348 . S
C134 H172 0.929 . S
N135 Li90 1.990 . S
N135 C132 1.314 . S
N135 C133 1.279 . S
C136 C133 1.358 . S
C136 C137 1.356 . S
C136 H173 0.930 . S
C137 C134 1.348 . S
C137 C136 1.356 . S
H138 C132 0.930 . S
H139 C133 0.930 . S
C140 N141 1.314 . S
C140 C142 1.353 . S
C140 H146 0.930 . S
N141 Li91 1.990 . S
N141 C140 1.314 . S
N141 C144 1.279 . S
C142 C140 1.353 . S
C142 C145 1.348 . S
C142 H174 0.929 . S
C143 C144 1.358 . S
C143 C145 1.356 . S
C143 H175 0.930 . S
C144 N141 1.279 . S
C144 C143 1.358 . S
C144 H147 0.930 . S
C145 C142 1.348 . S
C145 C143 1.356 . S
H146 C140 0.930 . S
H147 C144 0.930 . S
O148 Li88 1.956 . S
O148 Li89 1.970 . S
O148 Li90 1.961 . S
O148 C92 1.325 . S
O149 Li88 1.970 . S
O149 Li89 1.956 . S
O149 Li91 1.961 . S
O149 C98 1.325 . S
O150 Li88 1.961 . S
O150 Li90 1.956 . S
O150 Li91 1.970 . S
O150 C120 1.325 . S
O151 Li89 1.961 . S
O151 Li90 1.970 . S
O151 Li91 1.956 . S
O151 C126 1.325 . S
H152 C94 0.929 . S
H153 C95 0.930 . S
H154 C96 0.930 . S
H155 C97 0.930 . S
H156 C99 0.930 . S
H157 C101 0.929 . S
H158 C102 0.930 . S
H159 C103 0.930 . S
H160 C106 0.930 . S
H161 C109 0.929 . S
H162 C114 0.929 . S
H163 C115 0.930 . S
H164 C122 0.929 . S
H165 C123 0.930 . S
H166 C124 0.930 . S
H167 C125 0.930 . S
H168 C127 0.929 . S
H169 C128 0.930 . S
H170 C129 0.930 . S
H171 C130 0.930 . S
H172 C134 0.929 . S
H173 C136 0.930 . S
H174 C142 0.929 . S
H175 C143 0.930 . S
Li176 N193 1.990 . S
Li176 O236 1.956 . S
Li176 O237 1.970 . S
Li176 O238 1.961 . S
Li177 N201 1.990 . S
Li177 O236 1.970 . S
Li177 O237 1.956 . S
Li177 O239 1.961 . S
Li178 N223 1.990 . S
Li178 O236 1.961 . S
Li178 O238 1.956 . S
Li178 O239 1.970 . S
Li179 N229 1.990 . S
Li179 O237 1.961 . S
Li179 O238 1.970 . S
Li179 O239 1.956 . S
C180 C182 1.348 . S
C180 C183 1.356 . S
C180 O236 1.325 . S
N181 C184 1.314 . S
N181 C185 1.279 . S
C182 C180 1.348 . S
C182 C184 1.353 . S
C182 H240 0.929 . S
C183 C180 1.356 . S
C183 C185 1.358 . S
C183 H241 0.930 . S
C184 N181 1.314 . S
C184 C182 1.353 . S
C184 H242 0.930 . S
C185 N181 1.279 . S
C185 C183 1.358 . S
C185 H243 0.930 . S
C186 C189 1.348 . S
C186 C190 1.356 . S
C186 O237 1.325 . S
C187 N188 1.279 . S
C187 C190 1.358 . S
C187 H244 0.930 . S
N188 C187 1.279 . S
N188 C191 1.314 . S
C189 C186 1.348 . S
C189 C191 1.353 . S
C189 H245 0.929 . S
C190 C186 1.356 . S
C190 C187 1.358 . S
C190 H246 0.930 . S
C191 N188 1.314 . S
C191 C189 1.353 . S
C191 H247 0.930 . S
C192 N193 1.314 . S
C192 C197 1.353 . S
C192 H198 0.930 . S
N193 Li176 1.990 . S
N193 C192 1.314 . S
N193 C195 1.279 . S
C194 C195 1.358 . S
C194 C196 1.356 . S
C194 H248 0.930 . S
C195 N193 1.279 . S
C195 C194 1.358 . S
C195 H199 0.930 . S
C196 C194 1.356 . S
C196 C197 1.348 . S
C197 C192 1.353 . S
C197 C196 1.348 . S
C197 H249 0.929 . S
H198 C192 0.930 . S
H199 C195 0.930 . S
C200 N201 1.314 . S
C200 C202 1.353 . S
C200 H206 0.930 . S
N201 Li177 1.990 . S
N201 C200 1.314 . S
N201 C204 1.279 . S
C202 C200 1.353 . S
C202 C205 1.348 . S
C202 H250 0.929 . S
C203 C204 1.358 . S
C203 C205 1.356 . S
C203 H251 0.930 . S
C204 N201 1.279 . S
C204 C203 1.358 . S
C204 H207 0.930 . S
C205 C202 1.348 . S
C205 C203 1.356 . S
H206 C200 0.930 . S
H207 C204 0.930 . S
C208 C210 1.348 . S
C208 C211 1.356 . S
C208 O238 1.325 . S
N209 C212 1.314 . S
N209 C213 1.279 . S
C210 C208 1.348 . S
C210 C212 1.353 . S
C210 H252 0.929 . S
C211 C208 1.356 . S
C211 C213 1.358 . S
C211 H253 0.930 . S
C212 N209 1.314 . S
C212 C210 1.353 . S
C212 H254 0.930 . S
C213 N209 1.279 . S
C213 C211 1.358 . S
C213 H255 0.930 . S
C214 C215 1.348 . S
C214 C216 1.356 . S
C214 O239 1.325 . S
C215 C214 1.348 . S
C215 C217 1.353 . S
C215 H256 0.929 . S
C216 C214 1.356 . S
C216 C218 1.358 . S
C216 H257 0.930 . S
C217 C215 1.353 . S
C217 N219 1.314 . S
C217 H258 0.930 . S
C218 C216 1.358 . S
C218 N219 1.279 . S
C218 H259 0.930 . S
N219 C217 1.314 . S
N219 C218 1.279 . S
C220 C222 1.353 . S
C220 N223 1.314 . S
C220 H226 0.930 . S
C221 N223 1.279 . S
C221 C224 1.358 . S
C221 H227 0.930 . S
C222 C220 1.353 . S
C222 C225 1.348 . S
C222 H260 0.929 . S
N223 Li178 1.990 . S
N223 C220 1.314 . S
N223 C221 1.279 . S
C224 C221 1.358 . S
C224 C225 1.356 . S
C224 H261 0.930 . S
C225 C222 1.348 . S
C225 C224 1.356 . S
H226 C220 0.930 . S
H227 C221 0.930 . S
C228 N229 1.314 . S
C228 C230 1.353 . S
C228 H234 0.930 . S
N229 Li179 1.990 . S
N229 C228 1.314 . S
N229 C232 1.279 . S
C230 C228 1.353 . S
C230 C233 1.348 . S
C230 H262 0.929 . S
C231 C232 1.358 . S
C231 C233 1.356 . S
C231 H263 0.930 . S
C232 N229 1.279 . S
C232 C231 1.358 . S
C232 H235 0.930 . S
C233 C230 1.348 . S
C233 C231 1.356 . S
H234 C228 0.930 . S
H235 C232 0.930 . S
O236 Li176 1.956 . S
O236 Li177 1.970 . S
O236 Li178 1.961 . S
O236 C180 1.325 . S
O237 Li176 1.970 . S
O237 Li177 1.956 . S
O237 Li179 1.961 . S
O237 C186 1.325 . S
O238 Li176 1.961 . S
O238 Li178 1.956 . S
O238 Li179 1.970 . S
O238 C208 1.325 . S
O239 Li177 1.961 . S
O239 Li178 1.970 . S
O239 Li179 1.956 . S
O239 C214 1.325 . S
H240 C182 0.929 . S
H241 C183 0.930 . S
H242 C184 0.930 . S
H243 C185 0.930 . S
H244 C187 0.930 . S
H245 C189 0.929 . S
H246 C190 0.930 . S
H247 C191 0.930 . S
H248 C194 0.930 . S
H249 C197 0.929 . S
H250 C202 0.929 . S
H251 C203 0.930 . S
H252 C210 0.929 . S
H253 C211 0.930 . S
H254 C212 0.930 . S
H255 C213 0.930 . S
H256 C215 0.929 . S
H257 C216 0.930 . S
H258 C217 0.930 . S
H259 C218 0.930 . S
H260 C222 0.929 . S
H261 C224 0.930 . S
H262 C230 0.929 . S
H263 C231 0.930 . S
Li264 N281 1.990 . S
Li264 O324 1.956 . S
Li264 O325 1.970 . S
Li264 O326 1.961 . S
Li265 N289 1.990 . S
Li265 O324 1.970 . S
Li265 O325 1.956 . S
Li265 O327 1.961 . S
Li266 N311 1.990 . S
Li266 O324 1.961 . S
Li266 O326 1.956 . S
Li266 O327 1.970 . S
Li267 N317 1.990 . S
Li267 O325 1.961 . S
Li267 O326 1.970 . S
Li267 O327 1.956 . S
C268 C270 1.348 . S
C268 C271 1.356 . S
C268 O324 1.325 . S
N269 C272 1.314 . S
N269 C273 1.279 . S
C270 C268 1.348 . S
C270 C272 1.353 . S
C270 H328 0.929 . S
C271 C268 1.356 . S
C271 C273 1.358 . S
C271 H329 0.930 . S
C272 N269 1.314 . S
C272 C270 1.353 . S
C272 H330 0.930 . S
C273 N269 1.279 . S
C273 C271 1.358 . S
C273 H331 0.930 . S
C274 C277 1.348 . S
C274 C278 1.356 . S
C274 O325 1.325 . S
C275 N276 1.279 . S
C275 C278 1.358 . S
C275 H332 0.930 . S
N276 C275 1.279 . S
N276 C279 1.314 . S
C277 C274 1.348 . S
C277 C279 1.353 . S
C277 H333 0.929 . S
C278 C274 1.356 . S
C278 C275 1.358 . S
C278 H334 0.930 . S
C279 N276 1.314 . S
C279 C277 1.353 . S
C279 H335 0.930 . S
C280 N281 1.314 . S
C280 C285 1.353 . S
C280 H286 0.930 . S
N281 Li264 1.990 . S
N281 C280 1.314 . S
N281 C283 1.279 . S
C282 C283 1.358 . S
C282 C284 1.356 . S
C282 H336 0.930 . S
C283 N281 1.279 . S
C283 C282 1.358 . S
C283 H287 0.930 . S
C284 C282 1.356 . S
C284 C285 1.348 . S
C285 C280 1.353 . S
C285 C284 1.348 . S
C285 H337 0.929 . S
H286 C280 0.930 . S
H287 C283 0.930 . S
C288 N289 1.314 . S
C288 C290 1.353 . S
C288 H294 0.930 . S
N289 Li265 1.990 . S
N289 C288 1.314 . S
N289 C292 1.279 . S
C290 C288 1.353 . S
C290 C293 1.348 . S
C290 H338 0.929 . S
C291 C292 1.358 . S
C291 C293 1.356 . S
C291 H339 0.930 . S
C292 N289 1.279 . S
C292 C291 1.358 . S
C292 H295 0.930 . S
C293 C290 1.348 . S
C293 C291 1.356 . S
H294 C288 0.930 . S
H295 C292 0.930 . S
C296 C298 1.348 . S
C296 C299 1.356 . S
C296 O326 1.325 . S
N297 C300 1.314 . S
N297 C301 1.279 . S
C298 C296 1.348 . S
C298 C300 1.353 . S
C298 H340 0.929 . S
C299 C296 1.356 . S
C299 C301 1.358 . S
C299 H341 0.930 . S
C300 N297 1.314 . S
C300 C298 1.353 . S
C300 H342 0.930 . S
C301 N297 1.279 . S
C301 C299 1.358 . S
C301 H343 0.930 . S
C302 C303 1.348 . S
C302 C304 1.356 . S
C302 O327 1.325 . S
C303 C302 1.348 . S
C303 C305 1.353 . S
C303 H344 0.929 . S
C304 C302 1.356 . S
C304 C306 1.358 . S
C304 H345 0.930 . S
C305 C303 1.353 . S
C305 N307 1.314 . S
C305 H346 0.930 . S
C306 C304 1.358 . S
C306 N307 1.279 . S
C306 H347 0.930 . S
N307 C305 1.314 . S
N307 C306 1.279 . S
C308 C310 1.353 . S
C308 N311 1.314 . S
C308 H314 0.930 . S
C309 N311 1.279 . S
C309 C312 1.358 . S
C309 H315 0.930 . S
C310 C308 1.353 . S
C310 C313 1.348 . S
C310 H348 0.929 . S
N311 Li266 1.990 . S
N311 C308 1.314 . S
N311 C309 1.279 . S
C312 C309 1.358 . S
C312 C313 1.356 . S
C312 H349 0.930 . S
C313 C310 1.348 . S
C313 C312 1.356 . S
H314 C308 0.930 . S
H315 C309 0.930 . S
C316 N317 1.314 . S
C316 C318 1.353 . S
C316 H322 0.930 . S
N317 Li267 1.990 . S
N317 C316 1.314 . S
N317 C320 1.279 . S
C318 C316 1.353 . S
C318 C321 1.348 . S
C318 H350 0.929 . S
C319 C320 1.358 . S
C319 C321 1.356 . S
C319 H351 0.930 . S
C320 N317 1.279 . S
C320 C319 1.358 . S
C320 H323 0.930 . S
C321 C318 1.348 . S
C321 C319 1.356 . S
H322 C316 0.930 . S
H323 C320 0.930 . S
O324 Li264 1.956 . S
O324 Li265 1.970 . S
O324 Li266 1.961 . S
O324 C268 1.325 . S
O325 Li264 1.970 . S
O325 Li265 1.956 . S
O325 Li267 1.961 . S
O325 C274 1.325 . S
O326 Li264 1.961 . S
O326 Li266 1.956 . S
O326 Li267 1.970 . S
O326 C296 1.325 . S
O327 Li265 1.961 . S
O327 Li266 1.970 . S
O327 Li267 1.956 . S
O327 C302 1.325 . S
H328 C270 0.929 . S
H329 C271 0.930 . S
H330 C272 0.930 . S
H331 C273 0.930 . S
H332 C275 0.930 . S
H333 C277 0.929 . S
H334 C278 0.930 . S
H335 C279 0.930 . S
H336 C282 0.930 . S
H337 C285 0.929 . S
H338 C290 0.929 . S
H339 C291 0.930 . S
H340 C298 0.929 . S
H341 C299 0.930 . S
H342 C300 0.930 . S
H343 C301 0.930 . S
H344 C303 0.929 . S
H345 C304 0.930 . S
H346 C305 0.930 . S
H347 C306 0.930 . S
H348 C310 0.929 . S
H349 C312 0.930 . S
H350 C318 0.929 . S
H351 C319 0.930 . S
Li352 N369 1.990 . S
Li352 O412 1.956 . S
Li352 O413 1.970 . S
Li352 O414 1.961 . S
Li353 N377 1.990 . S
Li353 O412 1.970 . S
Li353 O413 1.956 . S
Li353 O415 1.961 . S
Li354 N399 1.990 . S
Li354 O412 1.961 . S
Li354 O414 1.956 . S
Li354 O415 1.970 . S
Li355 N405 1.990 . S
Li355 O413 1.961 . S
Li355 O414 1.970 . S
Li355 O415 1.956 . S
C356 C358 1.348 . S
C356 C359 1.356 . S
C356 O412 1.325 . S
N357 C360 1.314 . S
N357 C361 1.279 . S
C358 C356 1.348 . S
C358 C360 1.353 . S
C358 H416 0.929 . S
C359 C356 1.356 . S
C359 C361 1.358 . S
C359 H417 0.930 . S
C360 N357 1.314 . S
C360 C358 1.353 . S
C360 H418 0.930 . S
C361 N357 1.279 . S
C361 C359 1.358 . S
C361 H419 0.930 . S
C362 C365 1.348 . S
C362 C366 1.356 . S
C362 O413 1.325 . S
C363 N364 1.279 . S
C363 C366 1.358 . S
C363 H420 0.930 . S
N364 C363 1.279 . S
N364 C367 1.314 . S
C365 C362 1.348 . S
C365 C367 1.353 . S
C365 H421 0.929 . S
C366 C362 1.356 . S
C366 C363 1.358 . S
C366 H422 0.930 . S
C367 N364 1.314 . S
C367 C365 1.353 . S
C367 H423 0.930 . S
C368 N369 1.314 . S
C368 C373 1.353 . S
C368 H374 0.930 . S
N369 Li352 1.990 . S
N369 C368 1.314 . S
N369 C371 1.279 . S
C370 C371 1.358 . S
C370 C372 1.356 . S
C370 H424 0.930 . S
C371 N369 1.279 . S
C371 C370 1.358 . S
C371 H375 0.930 . S
C372 C370 1.356 . S
C372 C373 1.348 . S
C373 C368 1.353 . S
C373 C372 1.348 . S
C373 H425 0.929 . S
H374 C368 0.930 . S
H375 C371 0.930 . S
C376 N377 1.314 . S
C376 C378 1.353 . S
C376 H382 0.930 . S
N377 Li353 1.990 . S
N377 C376 1.314 . S
N377 C380 1.279 . S
C378 C376 1.353 . S
C378 C381 1.348 . S
C378 H426 0.929 . S
C379 C380 1.358 . S
C379 C381 1.356 . S
C379 H427 0.930 . S
C380 N377 1.279 . S
C380 C379 1.358 . S
C380 H383 0.930 . S
C381 C378 1.348 . S
C381 C379 1.356 . S
H382 C376 0.930 . S
H383 C380 0.930 . S
C384 C386 1.348 . S
C384 C387 1.356 . S
C384 O414 1.325 . S
N385 C388 1.314 . S
N385 C389 1.279 . S
C386 C384 1.348 . S
C386 C388 1.353 . S
C386 H428 0.929 . S
C387 C384 1.356 . S
C387 C389 1.358 . S
C387 H429 0.930 . S
C388 N385 1.314 . S
C388 C386 1.353 . S
C388 H430 0.930 . S
C389 N385 1.279 . S
C389 C387 1.358 . S
C389 H431 0.930 . S
C390 C391 1.348 . S
C390 C392 1.356 . S
C390 O415 1.325 . S
C391 C390 1.348 . S
C391 C393 1.353 . S
C391 H432 0.929 . S
C392 C390 1.356 . S
C392 C394 1.358 . S
C392 H433 0.930 . S
C393 C391 1.353 . S
C393 N395 1.314 . S
C393 H434 0.930 . S
C394 C392 1.358 . S
C394 N395 1.279 . S
C394 H435 0.930 . S
N395 C393 1.314 . S
N395 C394 1.279 . S
C396 C398 1.353 . S
C396 N399 1.314 . S
C396 H402 0.930 . S
C397 N399 1.279 . S
C397 C400 1.358 . S
C397 H403 0.930 . S
C398 C396 1.353 . S
C398 C401 1.348 . S
C398 H436 0.929 . S
N399 Li354 1.990 . S
N399 C396 1.314 . S
N399 C397 1.279 . S
C400 C397 1.358 . S
C400 C401 1.356 . S
C400 H437 0.930 . S
C401 C398 1.348 . S
C401 C400 1.356 . S
H402 C396 0.930 . S
H403 C397 0.930 . S
C404 N405 1.314 . S
C404 C406 1.353 . S
C404 H410 0.930 . S
N405 Li355 1.990 . S
N405 C404 1.314 . S
N405 C408 1.279 . S
C406 C404 1.353 . S
C406 C409 1.348 . S
C406 H438 0.929 . S
C407 C408 1.358 . S
C407 C409 1.356 . S
C407 H439 0.930 . S
C408 N405 1.279 . S
C408 C407 1.358 . S
C408 H411 0.930 . S
C409 C406 1.348 . S
C409 C407 1.356 . S
H410 C404 0.930 . S
H411 C408 0.930 . S
O412 Li352 1.956 . S
O412 Li353 1.970 . S
O412 Li354 1.961 . S
O412 C356 1.325 . S
O413 Li352 1.970 . S
O413 Li353 1.956 . S
O413 Li355 1.961 . S
O413 C362 1.325 . S
O414 Li352 1.961 . S
O414 Li354 1.956 . S
O414 Li355 1.970 . S
O414 C384 1.325 . S
O415 Li353 1.961 . S
O415 Li354 1.970 . S
O415 Li355 1.956 . S
O415 C390 1.325 . S
H416 C358 0.929 . S
H417 C359 0.930 . S
H418 C360 0.930 . S
H419 C361 0.930 . S
H420 C363 0.930 . S
H421 C365 0.929 . S
H422 C366 0.930 . S
H423 C367 0.930 . S
H424 C370 0.930 . S
H425 C373 0.929 . S
H426 C378 0.929 . S
H427 C379 0.930 . S
H428 C386 0.929 . S
H429 C387 0.930 . S
H430 C388 0.930 . S
H431 C389 0.930 . S
H432 C391 0.929 . S
H433 C392 0.930 . S
H434 C393 0.930 . S
H435 C394 0.930 . S
H436 C398 0.929 . S
H437 C400 0.930 . S
H438 C406 0.929 . S
H439 C407 0.930 . S
Li440 N457 1.990 . S
Li440 O500 1.956 . S
Li440 O501 1.970 . S
Li440 O502 1.961 . S
Li441 N465 1.990 . S
Li441 O500 1.970 . S
Li441 O501 1.956 . S
Li441 O503 1.961 . S
Li442 N487 1.990 . S
Li442 O500 1.961 . S
Li442 O502 1.956 . S
Li442 O503 1.970 . S
Li443 N493 1.990 . S
Li443 O501 1.961 . S
Li443 O502 1.970 . S
Li443 O503 1.956 . S
C444 C446 1.348 . S
C444 C447 1.356 . S
C444 O500 1.325 . S
N445 C448 1.314 . S
N445 C449 1.279 . S
C446 C444 1.348 . S
C446 C448 1.353 . S
C446 H504 0.929 . S
C447 C444 1.356 . S
C447 C449 1.358 . S
C447 H505 0.930 . S
C448 N445 1.314 . S
C448 C446 1.353 . S
C448 H506 0.930 . S
C449 N445 1.279 . S
C449 C447 1.358 . S
C449 H507 0.930 . S
C450 C453 1.348 . S
C450 C454 1.356 . S
C450 O501 1.325 . S
C451 N452 1.279 . S
C451 C454 1.358 . S
C451 H508 0.930 . S
N452 C451 1.279 . S
N452 C455 1.314 . S
C453 C450 1.348 . S
C453 C455 1.353 . S
C453 H509 0.929 . S
C454 C450 1.356 . S
C454 C451 1.358 . S
C454 H510 0.930 . S
C455 N452 1.314 . S
C455 C453 1.353 . S
C455 H511 0.930 . S
C456 N457 1.314 . S
C456 C461 1.353 . S
C456 H462 0.930 . S
N457 Li440 1.990 . S
N457 C456 1.314 . S
N457 C459 1.279 . S
C458 C459 1.358 . S
C458 C460 1.356 . S
C458 H512 0.930 . S
C459 N457 1.279 . S
C459 C458 1.358 . S
C459 H463 0.930 . S
C460 C458 1.356 . S
C460 C461 1.348 . S
C461 C456 1.353 . S
C461 C460 1.348 . S
C461 H513 0.929 . S
H462 C456 0.930 . S
H463 C459 0.930 . S
C464 N465 1.314 . S
C464 C466 1.353 . S
C464 H470 0.930 . S
N465 Li441 1.990 . S
N465 C464 1.314 . S
N465 C468 1.279 . S
C466 C464 1.353 . S
C466 C469 1.348 . S
C466 H514 0.929 . S
C467 C468 1.358 . S
C467 C469 1.356 . S
C467 H515 0.930 . S
C468 N465 1.279 . S
C468 C467 1.358 . S
C468 H471 0.930 . S
C469 C466 1.348 . S
C469 C467 1.356 . S
H470 C464 0.930 . S
H471 C468 0.930 . S
C472 C474 1.348 . S
C472 C475 1.356 . S
C472 O502 1.325 . S
N473 C476 1.314 . S
N473 C477 1.279 . S
C474 C472 1.348 . S
C474 C476 1.353 . S
C474 H516 0.929 . S
C475 C472 1.356 . S
C475 C477 1.358 . S
C475 H517 0.930 . S
C476 N473 1.314 . S
C476 C474 1.353 . S
C476 H518 0.930 . S
C477 N473 1.279 . S
C477 C475 1.358 . S
C477 H519 0.930 . S
C478 C479 1.348 . S
C478 C480 1.356 . S
C478 O503 1.325 . S
C479 C478 1.348 . S
C479 C481 1.353 . S
C479 H520 0.929 . S
C480 C478 1.356 . S
C480 C482 1.358 . S
C480 H521 0.930 . S
C481 C479 1.353 . S
C481 N483 1.314 . S
C481 H522 0.930 . S
C482 C480 1.358 . S
C482 N483 1.279 . S
C482 H523 0.930 . S
N483 C481 1.314 . S
N483 C482 1.279 . S
C484 C486 1.353 . S
C484 N487 1.314 . S
C484 H490 0.930 . S
C485 N487 1.279 . S
C485 C488 1.358 . S
C485 H491 0.930 . S
C486 C484 1.353 . S
C486 C489 1.348 . S
C486 H524 0.929 . S
N487 Li442 1.990 . S
N487 C484 1.314 . S
N487 C485 1.279 . S
C488 C485 1.358 . S
C488 C489 1.356 . S
C488 H525 0.930 . S
C489 C486 1.348 . S
C489 C488 1.356 . S
H490 C484 0.930 . S
H491 C485 0.930 . S
C492 N493 1.314 . S
C492 C494 1.353 . S
C492 H498 0.930 . S
N493 Li443 1.990 . S
N493 C492 1.314 . S
N493 C496 1.279 . S
C494 C492 1.353 . S
C494 C497 1.348 . S
C494 H526 0.929 . S
C495 C496 1.358 . S
C495 C497 1.356 . S
C495 H527 0.930 . S
C496 N493 1.279 . S
C496 C495 1.358 . S
C496 H499 0.930 . S
C497 C494 1.348 . S
C497 C495 1.356 . S
H498 C492 0.930 . S
H499 C496 0.930 . S
O500 Li440 1.956 . S
O500 Li441 1.970 . S
O500 Li442 1.961 . S
O500 C444 1.325 . S
O501 Li440 1.970 . S
O501 Li441 1.956 . S
O501 Li443 1.961 . S
O501 C450 1.325 . S
O502 Li440 1.961 . S
O502 Li442 1.956 . S
O502 Li443 1.970 . S
O502 C472 1.325 . S
O503 Li441 1.961 . S
O503 Li442 1.970 . S
O503 Li443 1.956 . S
O503 C478 1.325 . S
H504 C446 0.929 . S
H505 C447 0.930 . S
H506 C448 0.930 . S
H507 C449 0.930 . S
H508 C451 0.930 . S
H509 C453 0.929 . S
H510 C454 0.930 . S
H511 C455 0.930 . S
H512 C458 0.930 . S
H513 C461 0.929 . S
H514 C466 0.929 . S
H515 C467 0.930 . S
H516 C474 0.929 . S
H517 C475 0.930 . S
H518 C476 0.930 . S
H519 C477 0.930 . S
H520 C479 0.929 . S
H521 C480 0.930 . S
H522 C481 0.930 . S
H523 C482 0.930 . S
H524 C486 0.929 . S
H525 C488 0.930 . S
H526 C494 0.929 . S
H527 C495 0.930 . S
Li528 N545 1.990 . S
Li528 O588 1.956 . S
Li528 O589 1.970 . S
Li528 O590 1.961 . S
Li529 N553 1.990 . S
Li529 O588 1.970 . S
Li529 O589 1.956 . S
Li529 O591 1.961 . S
Li530 N575 1.990 . S
Li530 O588 1.961 . S
Li530 O590 1.956 . S
Li530 O591 1.970 . S
Li531 N581 1.990 . S
Li531 O589 1.961 . S
Li531 O590 1.970 . S
Li531 O591 1.956 . S
C532 C534 1.348 . S
C532 C535 1.356 . S
C532 O588 1.325 . S
N533 C536 1.314 . S
N533 C537 1.279 . S
C534 C532 1.348 . S
C534 C536 1.353 . S
C534 H592 0.929 . S
C535 C532 1.356 . S
C535 C537 1.358 . S
C535 H593 0.930 . S
C536 N533 1.314 . S
C536 C534 1.353 . S
C536 H594 0.930 . S
C537 N533 1.279 . S
C537 C535 1.358 . S
C537 H595 0.930 . S
C538 C541 1.348 . S
C538 C542 1.356 . S
C538 O589 1.325 . S
C539 N540 1.279 . S
C539 C542 1.358 . S
C539 H596 0.930 . S
N540 C539 1.279 . S
N540 C543 1.314 . S
C541 C538 1.348 . S
C541 C543 1.353 . S
C541 H597 0.929 . S
C542 C538 1.356 . S
C542 C539 1.358 . S
C542 H598 0.930 . S
C543 N540 1.314 . S
C543 C541 1.353 . S
C543 H599 0.930 . S
C544 N545 1.314 . S
C544 C549 1.353 . S
C544 H550 0.930 . S
N545 Li528 1.990 . S
N545 C544 1.314 . S
N545 C547 1.279 . S
C546 C547 1.358 . S
C546 C548 1.356 . S
C546 H600 0.930 . S
C547 N545 1.279 . S
C547 C546 1.358 . S
C547 H551 0.930 . S
C548 C546 1.356 . S
C548 C549 1.348 . S
C549 C544 1.353 . S
C549 C548 1.348 . S
C549 H601 0.929 . S
H550 C544 0.930 . S
H551 C547 0.930 . S
C552 N553 1.314 . S
C552 C554 1.353 . S
C552 H558 0.930 . S
N553 Li529 1.990 . S
N553 C552 1.314 . S
N553 C556 1.279 . S
C554 C552 1.353 . S
C554 C557 1.348 . S
C554 H602 0.929 . S
C555 C556 1.358 . S
C555 C557 1.356 . S
C555 H603 0.930 . S
C556 N553 1.279 . S
C556 C555 1.358 . S
C556 H559 0.930 . S
C557 C554 1.348 . S
C557 C555 1.356 . S
H558 C552 0.930 . S
H559 C556 0.930 . S
C560 C562 1.348 . S
C560 C563 1.356 . S
C560 O590 1.325 . S
N561 C564 1.314 . S
N561 C565 1.279 . S
C562 C560 1.348 . S
C562 C564 1.353 . S
C562 H604 0.929 . S
C563 C560 1.356 . S
C563 C565 1.358 . S
C563 H605 0.930 . S
C564 N561 1.314 . S
C564 C562 1.353 . S
C564 H606 0.930 . S
C565 N561 1.279 . S
C565 C563 1.358 . S
C565 H607 0.930 . S
C566 C567 1.348 . S
C566 C568 1.356 . S
C566 O591 1.325 . S
C567 C566 1.348 . S
C567 C569 1.353 . S
C567 H608 0.929 . S
C568 C566 1.356 . S
C568 C570 1.358 . S
C568 H609 0.930 . S
C569 C567 1.353 . S
C569 N571 1.314 . S
C569 H610 0.930 . S
C570 C568 1.358 . S
C570 N571 1.279 . S
C570 H611 0.930 . S
N571 C569 1.314 . S
N571 C570 1.279 . S
C572 C574 1.353 . S
C572 N575 1.314 . S
C572 H578 0.930 . S
C573 N575 1.279 . S
C573 C576 1.358 . S
C573 H579 0.930 . S
C574 C572 1.353 . S
C574 C577 1.348 . S
C574 H612 0.929 . S
N575 Li530 1.990 . S
N575 C572 1.314 . S
N575 C573 1.279 . S
C576 C573 1.358 . S
C576 C577 1.356 . S
C576 H613 0.930 . S
C577 C574 1.348 . S
C577 C576 1.356 . S
H578 C572 0.930 . S
H579 C573 0.930 . S
C580 N581 1.314 . S
C580 C582 1.353 . S
C580 H586 0.930 . S
N581 Li531 1.990 . S
N581 C580 1.314 . S
N581 C584 1.279 . S
C582 C580 1.353 . S
C582 C585 1.348 . S
C582 H614 0.929 . S
C583 C584 1.358 . S
C583 C585 1.356 . S
C583 H615 0.930 . S
C584 N581 1.279 . S
C584 C583 1.358 . S
C584 H587 0.930 . S
C585 C582 1.348 . S
C585 C583 1.356 . S
H586 C580 0.930 . S
H587 C584 0.930 . S
O588 Li528 1.956 . S
O588 Li529 1.970 . S
O588 Li530 1.961 . S
O588 C532 1.325 . S
O589 Li528 1.970 . S
O589 Li529 1.956 . S
O589 Li531 1.961 . S
O589 C538 1.325 . S
O590 Li528 1.961 . S
O590 Li530 1.956 . S
O590 Li531 1.970 . S
O590 C560 1.325 . S
O591 Li529 1.961 . S
O591 Li530 1.970 . S
O591 Li531 1.956 . S
O591 C566 1.325 . S
H592 C534 0.929 . S
H593 C535 0.930 . S
H594 C536 0.930 . S
H595 C537 0.930 . S
H596 C539 0.930 . S
H597 C541 0.929 . S
H598 C542 0.930 . S
H599 C543 0.930 . S
H600 C546 0.930 . S
H601 C549 0.929 . S
H602 C554 0.929 . S
H603 C555 0.930 . S
H604 C562 0.929 . S
H605 C563 0.930 . S
H606 C564 0.930 . S
H607 C565 0.930 . S
H608 C567 0.929 . S
H609 C568 0.930 . S
H610 C569 0.930 . S
H611 C570 0.930 . S
H612 C574 0.929 . S
H613 C576 0.930 . S
H614 C582 0.929 . S
H615 C583 0.930 . S
Li616 N633 1.990 . S
Li616 O676 1.956 . S
Li616 O677 1.970 . S
Li616 O678 1.961 . S
Li617 N641 1.990 . S
Li617 O676 1.970 . S
Li617 O677 1.956 . S
Li617 O679 1.961 . S
Li618 N663 1.990 . S
Li618 O676 1.961 . S
Li618 O678 1.956 . S
Li618 O679 1.970 . S
Li619 N669 1.990 . S
Li619 O677 1.961 . S
Li619 O678 1.970 . S
Li619 O679 1.956 . S
C620 C622 1.348 . S
C620 C623 1.356 . S
C620 O676 1.325 . S
N621 C624 1.314 . S
N621 C625 1.279 . S
C622 C620 1.348 . S
C622 C624 1.353 . S
C622 H680 0.929 . S
C623 C620 1.356 . S
C623 C625 1.358 . S
C623 H681 0.930 . S
C624 N621 1.314 . S
C624 C622 1.353 . S
C624 H682 0.930 . S
C625 N621 1.279 . S
C625 C623 1.358 . S
C625 H683 0.930 . S
C626 C629 1.348 . S
C626 C630 1.356 . S
C626 O677 1.325 . S
C627 N628 1.279 . S
C627 C630 1.358 . S
C627 H684 0.930 . S
N628 C627 1.279 . S
N628 C631 1.314 . S
C629 C626 1.348 . S
C629 C631 1.353 . S
C629 H685 0.929 . S
C630 C626 1.356 . S
C630 C627 1.358 . S
C630 H686 0.930 . S
C631 N628 1.314 . S
C631 C629 1.353 . S
C631 H687 0.930 . S
C632 N633 1.314 . S
C632 C637 1.353 . S
C632 H638 0.930 . S
N633 Li616 1.990 . S
N633 C632 1.314 . S
N633 C635 1.279 . S
C634 C635 1.358 . S
C634 C636 1.356 . S
C634 H688 0.930 . S
C635 N633 1.279 . S
C635 C634 1.358 . S
C635 H639 0.930 . S
C636 C634 1.356 . S
C636 C637 1.348 . S
C637 C632 1.353 . S
C637 C636 1.348 . S
C637 H689 0.929 . S
H638 C632 0.930 . S
H639 C635 0.930 . S
C640 N641 1.314 . S
C640 C642 1.353 . S
C640 H646 0.930 . S
N641 Li617 1.990 . S
N641 C640 1.314 . S
N641 C644 1.279 . S
C642 C640 1.353 . S
C642 C645 1.348 . S
C642 H690 0.929 . S
C643 C644 1.358 . S
C643 C645 1.356 . S
C643 H691 0.930 . S
C644 N641 1.279 . S
C644 C643 1.358 . S
C644 H647 0.930 . S
C645 C642 1.348 . S
C645 C643 1.356 . S
H646 C640 0.930 . S
H647 C644 0.930 . S
C648 C650 1.348 . S
C648 C651 1.356 . S
C648 O678 1.325 . S
N649 C652 1.314 . S
N649 C653 1.279 . S
C650 C648 1.348 . S
C650 C652 1.353 . S
C650 H692 0.929 . S
C651 C648 1.356 . S
C651 C653 1.358 . S
C651 H693 0.930 . S
C652 N649 1.314 . S
C652 C650 1.353 . S
C652 H694 0.930 . S
C653 N649 1.279 . S
C653 C651 1.358 . S
C653 H695 0.930 . S
C654 C655 1.348 . S
C654 C656 1.356 . S
C654 O679 1.325 . S
C655 C654 1.348 . S
C655 C657 1.353 . S
C655 H696 0.929 . S
C656 C654 1.356 . S
C656 C658 1.358 . S
C656 H697 0.930 . S
C657 C655 1.353 . S
C657 N659 1.314 . S
C657 H698 0.930 . S
C658 C656 1.358 . S
C658 N659 1.279 . S
C658 H699 0.930 . S
N659 C657 1.314 . S
N659 C658 1.279 . S
C660 C662 1.353 . S
C660 N663 1.314 . S
C660 H666 0.930 . S
C661 N663 1.279 . S
C661 C664 1.358 . S
C661 H667 0.930 . S
C662 C660 1.353 . S
C662 C665 1.348 . S
C662 H700 0.929 . S
N663 Li618 1.990 . S
N663 C660 1.314 . S
N663 C661 1.279 . S
C664 C661 1.358 . S
C664 C665 1.356 . S
C664 H701 0.930 . S
C665 C662 1.348 . S
C665 C664 1.356 . S
H666 C660 0.930 . S
H667 C661 0.930 . S
C668 N669 1.314 . S
C668 C670 1.353 . S
C668 H674 0.930 . S
N669 Li619 1.990 . S
N669 C668 1.314 . S
N669 C672 1.279 . S
C670 C668 1.353 . S
C670 C673 1.348 . S
C670 H702 0.929 . S
C671 C672 1.358 . S
C671 C673 1.356 . S
C671 H703 0.930 . S
C672 N669 1.279 . S
C672 C671 1.358 . S
C672 H675 0.930 . S
C673 C670 1.348 . S
C673 C671 1.356 . S
H674 C668 0.930 . S
H675 C672 0.930 . S
O676 Li616 1.956 . S
O676 Li617 1.970 . S
O676 Li618 1.961 . S
O676 C620 1.325 . S
O677 Li616 1.970 . S
O677 Li617 1.956 . S
O677 Li619 1.961 . S
O677 C626 1.325 . S
O678 Li616 1.961 . S
O678 Li618 1.956 . S
O678 Li619 1.970 . S
O678 C648 1.325 . S
O679 Li617 1.961 . S
O679 Li618 1.970 . S
O679 Li619 1.956 . S
O679 C654 1.325 . S
H680 C622 0.929 . S
H681 C623 0.930 . S
H682 C624 0.930 . S
H683 C625 0.930 . S
H684 C627 0.930 . S
H685 C629 0.929 . S
H686 C630 0.930 . S
H687 C631 0.930 . S
H688 C634 0.930 . S
H689 C637 0.929 . S
H690 C642 0.929 . S
H691 C643 0.930 . S
H692 C650 0.929 . S
H693 C651 0.930 . S
H694 C652 0.930 . S
H695 C653 0.930 . S
H696 C655 0.929 . S
H697 C656 0.930 . S
H698 C657 0.930 . S
H699 C658 0.930 . S
H700 C662 0.929 . S
H701 C664 0.930 . S
H702 C670 0.929 . S
H703 C671 0.930 . S
Li704 N721 1.990 . S
Li704 O764 1.956 . S
Li704 O765 1.970 . S
Li704 O766 1.961 . S
Li705 N729 1.990 . S
Li705 O764 1.970 . S
Li705 O765 1.956 . S
Li705 O767 1.961 . S
Li706 N751 1.990 . S
Li706 O764 1.961 . S
Li706 O766 1.956 . S
Li706 O767 1.970 . S
Li707 N757 1.990 . S
Li707 O765 1.961 . S
Li707 O766 1.970 . S
Li707 O767 1.956 . S
C708 C710 1.348 . S
C708 C711 1.356 . S
C708 O764 1.325 . S
N709 C712 1.314 . S
N709 C713 1.279 . S
C710 C708 1.348 . S
C710 C712 1.353 . S
C710 H768 0.929 . S
C711 C708 1.356 . S
C711 C713 1.358 . S
C711 H769 0.930 . S
C712 N709 1.314 . S
C712 C710 1.353 . S
C712 H770 0.930 . S
C713 N709 1.279 . S
C713 C711 1.358 . S
C713 H771 0.930 . S
C714 C717 1.348 . S
C714 C718 1.356 . S
C714 O765 1.325 . S
C715 N716 1.279 . S
C715 C718 1.358 . S
C715 H772 0.930 . S
N716 C715 1.279 . S
N716 C719 1.314 . S
C717 C714 1.348 . S
C717 C719 1.353 . S
C717 H773 0.929 . S
C718 C714 1.356 . S
C718 C715 1.358 . S
C718 H774 0.930 . S
C719 N716 1.314 . S
C719 C717 1.353 . S
C719 H775 0.930 . S
C720 N721 1.314 . S
C720 C725 1.353 . S
C720 H726 0.930 . S
N721 Li704 1.990 . S
N721 C720 1.314 . S
N721 C723 1.279 . S
C722 C723 1.358 . S
C722 C724 1.356 . S
C722 H776 0.930 . S
C723 N721 1.279 . S
C723 C722 1.358 . S
C723 H727 0.930 . S
C724 C722 1.356 . S
C724 C725 1.348 . S
C725 C720 1.353 . S
C725 C724 1.348 . S
C725 H777 0.929 . S
H726 C720 0.930 . S
H727 C723 0.930 . S
C728 N729 1.314 . S
C728 C730 1.353 . S
C728 H734 0.930 . S
N729 Li705 1.990 . S
N729 C728 1.314 . S
N729 C732 1.279 . S
C730 C728 1.353 . S
C730 C733 1.348 . S
C730 H778 0.929 . S
C731 C732 1.358 . S
C731 C733 1.356 . S
C731 H779 0.930 . S
C732 N729 1.279 . S
C732 C731 1.358 . S
C732 H735 0.930 . S
C733 C730 1.348 . S
C733 C731 1.356 . S
H734 C728 0.930 . S
H735 C732 0.930 . S
C736 C738 1.348 . S
C736 C739 1.356 . S
C736 O766 1.325 . S
N737 C740 1.314 . S
N737 C741 1.279 . S
C738 C736 1.348 . S
C738 C740 1.353 . S
C738 H780 0.929 . S
C739 C736 1.356 . S
C739 C741 1.358 . S
C739 H781 0.930 . S
C740 N737 1.314 . S
C740 C738 1.353 . S
C740 H782 0.930 . S
C741 N737 1.279 . S
C741 C739 1.358 . S
C741 H783 0.930 . S
C742 C743 1.348 . S
C742 C744 1.356 . S
C742 O767 1.325 . S
C743 C742 1.348 . S
C743 C745 1.353 . S
C743 H784 0.929 . S
C744 C742 1.356 . S
C744 C746 1.358 . S
C744 H785 0.930 . S
C745 C743 1.353 . S
C745 N747 1.314 . S
C745 H786 0.930 . S
C746 C744 1.358 . S
C746 N747 1.279 . S
C746 H787 0.930 . S
N747 C745 1.314 . S
N747 C746 1.279 . S
C748 C750 1.353 . S
C748 N751 1.314 . S
C748 H754 0.930 . S
C749 N751 1.279 . S
C749 C752 1.358 . S
C749 H755 0.930 . S
C750 C748 1.353 . S
C750 C753 1.348 . S
C750 H788 0.929 . S
N751 Li706 1.990 . S
N751 C748 1.314 . S
N751 C749 1.279 . S
C752 C749 1.358 . S
C752 C753 1.356 . S
C752 H789 0.930 . S
C753 C750 1.348 . S
C753 C752 1.356 . S
H754 C748 0.930 . S
H755 C749 0.930 . S
C756 N757 1.314 . S
C756 C758 1.353 . S
C756 H762 0.930 . S
N757 Li707 1.990 . S
N757 C756 1.314 . S
N757 C760 1.279 . S
C758 C756 1.353 . S
C758 C761 1.348 . S
C758 H790 0.929 . S
C759 C760 1.358 . S
C759 C761 1.356 . S
C759 H791 0.930 . S
C760 N757 1.279 . S
C760 C759 1.358 . S
C760 H763 0.930 . S
C761 C758 1.348 . S
C761 C759 1.356 . S
H762 C756 0.930 . S
H763 C760 0.930 . S
O764 Li704 1.956 . S
O764 Li705 1.970 . S
O764 Li706 1.961 . S
O764 C708 1.325 . S
O765 Li704 1.970 . S
O765 Li705 1.956 . S
O765 Li707 1.961 . S
O765 C714 1.325 . S
O766 Li704 1.961 . S
O766 Li706 1.956 . S
O766 Li707 1.970 . S
O766 C736 1.325 . S
O767 Li705 1.961 . S
O767 Li706 1.970 . S
O767 Li707 1.956 . S
O767 C742 1.325 . S
H768 C710 0.929 . S
H769 C711 0.930 . S
H770 C712 0.930 . S
H771 C713 0.930 . S
H772 C715 0.930 . S
H773 C717 0.929 . S
H774 C718 0.930 . S
H775 C719 0.930 . S
H776 C722 0.930 . S
H777 C725 0.929 . S
H778 C730 0.929 . S
H779 C731 0.930 . S
H780 C738 0.929 . S
H781 C739 0.930 . S
H782 C740 0.930 . S
H783 C741 0.930 . S
H784 C743 0.929 . S
H785 C744 0.930 . S
H786 C745 0.930 . S
H787 C746 0.930 . S
H788 C750 0.929 . S
H789 C752 0.930 . S
H790 C758 0.929 . S
H791 C759 0.930 . S
Li792 N809 1.990 . S
Li792 O852 1.956 . S
Li792 O853 1.970 . S
Li792 O854 1.961 . S
Li793 N817 1.990 . S
Li793 O852 1.970 . S
Li793 O853 1.956 . S
Li793 O855 1.961 . S
Li794 N839 1.990 . S
Li794 O852 1.961 . S
Li794 O854 1.956 . S
Li794 O855 1.970 . S
Li795 N845 1.990 . S
Li795 O853 1.961 . S
Li795 O854 1.970 . S
Li795 O855 1.956 . S
C796 C798 1.348 . S
C796 C799 1.356 . S
C796 O852 1.325 . S
N797 C800 1.314 . S
N797 C801 1.279 . S
C798 C796 1.348 . S
C798 C800 1.353 . S
C798 H856 0.929 . S
C799 C796 1.356 . S
C799 C801 1.358 . S
C799 H857 0.930 . S
C800 N797 1.314 . S
C800 C798 1.353 . S
C800 H858 0.930 . S
C801 N797 1.279 . S
C801 C799 1.358 . S
C801 H859 0.930 . S
C802 C805 1.348 . S
C802 C806 1.356 . S
C802 O853 1.325 . S
C803 N804 1.279 . S
C803 C806 1.358 . S
C803 H860 0.930 . S
N804 C803 1.279 . S
N804 C807 1.314 . S
C805 C802 1.348 . S
C805 C807 1.353 . S
C805 H861 0.929 . S
C806 C802 1.356 . S
C806 C803 1.358 . S
C806 H862 0.930 . S
C807 N804 1.314 . S
C807 C805 1.353 . S
C807 H863 0.930 . S
C808 N809 1.314 . S
C808 C813 1.353 . S
C808 H814 0.930 . S
N809 Li792 1.990 . S
N809 C808 1.314 . S
N809 C811 1.279 . S
C810 C811 1.358 . S
C810 C812 1.356 . S
C810 H864 0.930 . S
C811 N809 1.279 . S
C811 C810 1.358 . S
C811 H815 0.930 . S
C812 C810 1.356 . S
C812 C813 1.348 . S
C813 C808 1.353 . S
C813 C812 1.348 . S
C813 H865 0.929 . S
H814 C808 0.930 . S
H815 C811 0.930 . S
C816 N817 1.314 . S
C816 C818 1.353 . S
C816 H822 0.930 . S
N817 Li793 1.990 . S
N817 C816 1.314 . S
N817 C820 1.279 . S
C818 C816 1.353 . S
C818 C821 1.348 . S
C818 H866 0.929 . S
C819 C820 1.358 . S
C819 C821 1.356 . S
C819 H867 0.930 . S
C820 N817 1.279 . S
C820 C819 1.358 . S
C820 H823 0.930 . S
C821 C818 1.348 . S
C821 C819 1.356 . S
H822 C816 0.930 . S
H823 C820 0.930 . S
C824 C826 1.348 . S
C824 C827 1.356 . S
C824 O854 1.325 . S
N825 C828 1.314 . S
N825 C829 1.279 . S
C826 C824 1.348 . S
C826 C828 1.353 . S
C826 H868 0.929 . S
C827 C824 1.356 . S
C827 C829 1.358 . S
C827 H869 0.930 . S
C828 N825 1.314 . S
C828 C826 1.353 . S
C828 H870 0.930 . S
C829 N825 1.279 . S
C829 C827 1.358 . S
C829 H871 0.930 . S
C830 C831 1.348 . S
C830 C832 1.356 . S
C830 O855 1.325 . S
C831 C830 1.348 . S
C831 C833 1.353 . S
C831 H872 0.929 . S
C832 C830 1.356 . S
C832 C834 1.358 . S
C832 H873 0.930 . S
C833 C831 1.353 . S
C833 N835 1.314 . S
C833 H874 0.930 . S
C834 C832 1.358 . S
C834 N835 1.279 . S
C834 H875 0.930 . S
N835 C833 1.314 . S
N835 C834 1.279 . S
C836 C838 1.353 . S
C836 N839 1.314 . S
C836 H842 0.930 . S
C837 N839 1.279 . S
C837 C840 1.358 . S
C837 H843 0.930 . S
C838 C836 1.353 . S
C838 C841 1.348 . S
C838 H876 0.929 . S
N839 Li794 1.990 . S
N839 C836 1.314 . S
N839 C837 1.279 . S
C840 C837 1.358 . S
C840 C841 1.356 . S
C840 H877 0.930 . S
C841 C838 1.348 . S
C841 C840 1.356 . S
H842 C836 0.930 . S
H843 C837 0.930 . S
C844 N845 1.314 . S
C844 C846 1.353 . S
C844 H850 0.930 . S
N845 Li795 1.990 . S
N845 C844 1.314 . S
N845 C848 1.279 . S
C846 C844 1.353 . S
C846 C849 1.348 . S
C846 H878 0.929 . S
C847 C848 1.358 . S
C847 C849 1.356 . S
C847 H879 0.930 . S
C848 N845 1.279 . S
C848 C847 1.358 . S
C848 H851 0.930 . S
C849 C846 1.348 . S
C849 C847 1.356 . S
H850 C844 0.930 . S
H851 C848 0.930 . S
O852 Li792 1.956 . S
O852 Li793 1.970 . S
O852 Li794 1.961 . S
O852 C796 1.325 . S
O853 Li792 1.970 . S
O853 Li793 1.956 . S
O853 Li795 1.961 . S
O853 C802 1.325 . S
O854 Li792 1.961 . S
O854 Li794 1.956 . S
O854 Li795 1.970 . S
O854 C824 1.325 . S
O855 Li793 1.961 . S
O855 Li794 1.970 . S
O855 Li795 1.956 . S
O855 C830 1.325 . S
H856 C798 0.929 . S
H857 C799 0.930 . S
H858 C800 0.930 . S
H859 C801 0.930 . S
H860 C803 0.930 . S
H861 C805 0.929 . S
H862 C806 0.930 . S
H863 C807 0.930 . S
H864 C810 0.930 . S
H865 C813 0.929 . S
H866 C818 0.929 . S
H867 C819 0.930 . S
H868 C826 0.929 . S
H869 C827 0.930 . S
H870 C828 0.930 . S
H871 C829 0.930 . S
H872 C831 0.929 . S
H873 C832 0.930 . S
H874 C833 0.930 . S
H875 C834 0.930 . S
H876 C838 0.929 . S
H877 C840 0.930 . S
H878 C846 0.929 . S
H879 C847 0.930 . S
Li880 N897 1.990 . S
Li880 O940 1.956 . S
Li880 O941 1.970 . S
Li880 O942 1.961 . S
Li881 N905 1.990 . S
Li881 O940 1.970 . S
Li881 O941 1.956 . S
Li881 O943 1.961 . S
Li882 N927 1.990 . S
Li882 O940 1.961 . S
Li882 O942 1.956 . S
Li882 O943 1.970 . S
Li883 N933 1.990 . S
Li883 O941 1.961 . S
Li883 O942 1.970 . S
Li883 O943 1.956 . S
C884 C886 1.348 . S
C884 C887 1.356 . S
C884 O940 1.325 . S
N885 C888 1.314 . S
N885 C889 1.279 . S
C886 C884 1.348 . S
C886 C888 1.353 . S
C886 H944 0.929 . S
C887 C884 1.356 . S
C887 C889 1.358 . S
C887 H945 0.930 . S
C888 N885 1.314 . S
C888 C886 1.353 . S
C888 H946 0.930 . S
C889 N885 1.279 . S
C889 C887 1.358 . S
C889 H947 0.930 . S
C890 C893 1.348 . S
C890 C894 1.356 . S
C890 O941 1.325 . S
C891 N892 1.279 . S
C891 C894 1.358 . S
C891 H948 0.930 . S
N892 C891 1.279 . S
N892 C895 1.314 . S
C893 C890 1.348 . S
C893 C895 1.353 . S
C893 H949 0.929 . S
C894 C890 1.356 . S
C894 C891 1.358 . S
C894 H950 0.930 . S
C895 N892 1.314 . S
C895 C893 1.353 . S
C895 H951 0.930 . S
C896 N897 1.314 . S
C896 C901 1.353 . S
C896 H902 0.930 . S
N897 Li880 1.990 . S
N897 C896 1.314 . S
N897 C899 1.279 . S
C898 C899 1.358 . S
C898 C900 1.356 . S
C898 H952 0.930 . S
C899 N897 1.279 . S
C899 C898 1.358 . S
C899 H903 0.930 . S
C900 C898 1.356 . S
C900 C901 1.348 . S
C901 C896 1.353 . S
C901 C900 1.348 . S
C901 H953 0.929 . S
H902 C896 0.930 . S
H903 C899 0.930 . S
C904 N905 1.314 . S
C904 C906 1.353 . S
C904 H910 0.930 . S
N905 Li881 1.990 . S
N905 C904 1.314 . S
N905 C908 1.279 . S
C906 C904 1.353 . S
C906 C909 1.348 . S
C906 H954 0.929 . S
C907 C908 1.358 . S
C907 C909 1.356 . S
C907 H955 0.930 . S
C908 N905 1.279 . S
C908 C907 1.358 . S
C908 H911 0.930 . S
C909 C906 1.348 . S
C909 C907 1.356 . S
H910 C904 0.930 . S
H911 C908 0.930 . S
C912 C914 1.348 . S
C912 C915 1.356 . S
C912 O942 1.325 . S
N913 C916 1.314 . S
N913 C917 1.279 . S
C914 C912 1.348 . S
C914 C916 1.353 . S
C914 H956 0.929 . S
C915 C912 1.356 . S
C915 C917 1.358 . S
C915 H957 0.930 . S
C916 N913 1.314 . S
C916 C914 1.353 . S
C916 H958 0.930 . S
C917 N913 1.279 . S
C917 C915 1.358 . S
C917 H959 0.930 . S
C918 C919 1.348 . S
C918 C920 1.356 . S
C918 O943 1.325 . S
C919 C918 1.348 . S
C919 C921 1.353 . S
C919 H960 0.929 . S
C920 C918 1.356 . S
C920 C922 1.358 . S
C920 H961 0.930 . S
C921 C919 1.353 . S
C921 N923 1.314 . S
C921 H962 0.930 . S
C922 C920 1.358 . S
C922 N923 1.279 . S
C922 H963 0.930 . S
N923 C921 1.314 . S
N923 C922 1.279 . S
C924 C926 1.353 . S
C924 N927 1.314 . S
C924 H930 0.930 . S
C925 N927 1.279 . S
C925 C928 1.358 . S
C925 H931 0.930 . S
C926 C924 1.353 . S
C926 C929 1.348 . S
C926 H964 0.929 . S
N927 Li882 1.990 . S
N927 C924 1.314 . S
N927 C925 1.279 . S
C928 C925 1.358 . S
C928 C929 1.356 . S
C928 H965 0.930 . S
C929 C926 1.348 . S
C929 C928 1.356 . S
H930 C924 0.930 . S
H931 C925 0.930 . S
C932 N933 1.314 . S
C932 C934 1.353 . S
C932 H938 0.930 . S
N933 Li883 1.990 . S
N933 C932 1.314 . S
N933 C936 1.279 . S
C934 C932 1.353 . S
C934 C937 1.348 . S
C934 H966 0.929 . S
C935 C936 1.358 . S
C935 C937 1.356 . S
C935 H967 0.930 . S
C936 N933 1.279 . S
C936 C935 1.358 . S
C936 H939 0.930 . S
C937 C934 1.348 . S
C937 C935 1.356 . S
H938 C932 0.930 . S
H939 C936 0.930 . S
O940 Li880 1.956 . S
O940 Li881 1.970 . S
O940 Li882 1.961 . S
O940 C884 1.325 . S
O941 Li880 1.970 . S
O941 Li881 1.956 . S
O941 Li883 1.961 . S
O941 C890 1.325 . S
O942 Li880 1.961 . S
O942 Li882 1.956 . S
O942 Li883 1.970 . S
O942 C912 1.325 . S
O943 Li881 1.961 . S
O943 Li882 1.970 . S
O943 Li883 1.956 . S
O943 C918 1.325 . S
H944 C886 0.929 . S
H945 C887 0.930 . S
H946 C888 0.930 . S
H947 C889 0.930 . S
H948 C891 0.930 . S
H949 C893 0.929 . S
H950 C894 0.930 . S
H951 C895 0.930 . S
H952 C898 0.930 . S
H953 C901 0.929 . S
H954 C906 0.929 . S
H955 C907 0.930 . S
H956 C914 0.929 . S
H957 C915 0.930 . S
H958 C916 0.930 . S
H959 C917 0.930 . S
H960 C919 0.929 . S
H961 C920 0.930 . S
H962 C921 0.930 . S
H963 C922 0.930 . S
H964 C926 0.929 . S
H965 C928 0.930 . S
H966 C934 0.929 . S
H967 C935 0.930 . S
Li968 N985 1.990 . S
Li968 O1028 1.956 . S
Li968 O1029 1.970 . S
Li968 O1030 1.961 . S
Li969 N993 1.990 . S
Li969 O1028 1.970 . S
Li969 O1029 1.956 . S
Li969 O1031 1.961 . S
Li970 N1015 1.990 . S
Li970 O1028 1.961 . S
Li970 O1030 1.956 . S
Li970 O1031 1.970 . S
Li971 N1021 1.990 . S
Li971 O1029 1.961 . S
Li971 O1030 1.970 . S
Li971 O1031 1.956 . S
C972 C974 1.348 . S
C972 C975 1.356 . S
C972 O1028 1.325 . S
N973 C976 1.314 . S
N973 C977 1.279 . S
C974 C972 1.348 . S
C974 C976 1.353 . S
C974 H1032 0.929 . S
C975 C972 1.356 . S
C975 C977 1.358 . S
C975 H1033 0.930 . S
C976 N973 1.314 . S
C976 C974 1.353 . S
C976 H1034 0.930 . S
C977 N973 1.279 . S
C977 C975 1.358 . S
C977 H1035 0.930 . S
C978 C981 1.348 . S
C978 C982 1.356 . S
C978 O1029 1.325 . S
C979 N980 1.279 . S
C979 C982 1.358 . S
C979 H1036 0.930 . S
N980 C979 1.279 . S
N980 C983 1.314 . S
C981 C978 1.348 . S
C981 C983 1.353 . S
C981 H1037 0.929 . S
C982 C978 1.356 . S
C982 C979 1.358 . S
C982 H1038 0.930 . S
C983 N980 1.314 . S
C983 C981 1.353 . S
C983 H1039 0.930 . S
C984 N985 1.314 . S
C984 C989 1.353 . S
C984 H990 0.930 . S
N985 Li968 1.990 . S
N985 C984 1.314 . S
N985 C987 1.279 . S
C986 C987 1.358 . S
C986 C988 1.356 . S
C986 H1040 0.930 . S
C987 N985 1.279 . S
C987 C986 1.358 . S
C987 H991 0.930 . S
C988 C986 1.356 . S
C988 C989 1.348 . S
C989 C984 1.353 . S
C989 C988 1.348 . S
C989 H1041 0.929 . S
H990 C984 0.930 . S
H991 C987 0.930 . S
C992 N993 1.314 . S
C992 C994 1.353 . S
C992 H998 0.930 . S
N993 Li969 1.990 . S
N993 C992 1.314 . S
N993 C996 1.279 . S
C994 C992 1.353 . S
C994 C997 1.348 . S
C994 H1042 0.929 . S
C995 C996 1.358 . S
C995 C997 1.356 . S
C995 H1043 0.930 . S
C996 N993 1.279 . S
C996 C995 1.358 . S
C996 H999 0.930 . S
C997 C994 1.348 . S
C997 C995 1.356 . S
H998 C992 0.930 . S
H999 C996 0.930 . S
C1000 C1002 1.348 . S
C1000 C1003 1.356 . S
C1000 O1030 1.325 . S
N1001 C1004 1.314 . S
N1001 C1005 1.279 . S
C1002 C1000 1.348 . S
C1002 C1004 1.353 . S
C1002 H1044 0.929 . S
C1003 C1000 1.356 . S
C1003 C1005 1.358 . S
C1003 H1045 0.930 . S
C1004 N1001 1.314 . S
C1004 C1002 1.353 . S
C1004 H1046 0.930 . S
C1005 N1001 1.279 . S
C1005 C1003 1.358 . S
C1005 H1047 0.930 . S
C1006 C1007 1.348 . S
C1006 C1008 1.356 . S
C1006 O1031 1.325 . S
C1007 C1006 1.348 . S
C1007 C1009 1.353 . S
C1007 H1048 0.929 . S
C1008 C1006 1.356 . S
C1008 C1010 1.358 . S
C1008 H1049 0.930 . S
C1009 C1007 1.353 . S
C1009 N1011 1.314 . S
C1009 H1050 0.930 . S
C1010 C1008 1.358 . S
C1010 N1011 1.279 . S
C1010 H1051 0.930 . S
N1011 C1009 1.314 . S
N1011 C1010 1.279 . S
C1012 C1014 1.353 . S
C1012 N1015 1.314 . S
C1012 H1018 0.930 . S
C1013 N1015 1.279 . S
C1013 C1016 1.358 . S
C1013 H1019 0.930 . S
C1014 C1012 1.353 . S
C1014 C1017 1.348 . S
C1014 H1052 0.929 . S
N1015 Li970 1.990 . S
N1015 C1012 1.314 . S
N1015 C1013 1.279 . S
C1016 C1013 1.358 . S
C1016 C1017 1.356 . S
C1016 H1053 0.930 . S
C1017 C1014 1.348 . S
C1017 C1016 1.356 . S
H1018 C1012 0.930 . S
H1019 C1013 0.930 . S
C1020 N1021 1.314 . S
C1020 C1022 1.353 . S
C1020 H1026 0.930 . S
N1021 Li971 1.990 . S
N1021 C1020 1.314 . S
N1021 C1024 1.279 . S
C1022 C1020 1.353 . S
C1022 C1025 1.348 . S
C1022 H1054 0.929 . S
C1023 C1024 1.358 . S
C1023 C1025 1.356 . S
C1023 H1055 0.930 . S
C1024 N1021 1.279 . S
C1024 C1023 1.358 . S
C1024 H1027 0.930 . S
C1025 C1022 1.348 . S
C1025 C1023 1.356 . S
H1026 C1020 0.930 . S
H1027 C1024 0.930 . S
O1028 Li968 1.956 . S
O1028 Li969 1.970 . S
O1028 Li970 1.961 . S
O1028 C972 1.325 . S
O1029 Li968 1.970 . S
O1029 Li969 1.956 . S
O1029 Li971 1.961 . S
O1029 C978 1.325 . S
O1030 Li968 1.961 . S
O1030 Li970 1.956 . S
O1030 Li971 1.970 . S
O1030 C1000 1.325 . S
O1031 Li969 1.961 . S
O1031 Li970 1.970 . S
O1031 Li971 1.956 . S
O1031 C1006 1.325 . S
H1032 C974 0.929 . S
H1033 C975 0.930 . S
H1034 C976 0.930 . S
H1035 C977 0.930 . S
H1036 C979 0.930 . S
H1037 C981 0.929 . S
H1038 C982 0.930 . S
H1039 C983 0.930 . S
H1040 C986 0.930 . S
H1041 C989 0.929 . S
H1042 C994 0.929 . S
H1043 C995 0.930 . S
H1044 C1002 0.929 . S
H1045 C1003 0.930 . S
H1046 C1004 0.930 . S
H1047 C1005 0.930 . S
H1048 C1007 0.929 . S
H1049 C1008 0.930 . S
H1050 C1009 0.930 . S
H1051 C1010 0.930 . S
H1052 C1014 0.929 . S
H1053 C1016 0.930 . S
H1054 C1022 0.929 . S
H1055 C1023 0.930 . S
Li1056 N1073 1.990 . S
Li1056 O1116 1.956 . S
Li1056 O1117 1.970 . S
Li1056 O1118 1.961 . S
Li1057 N1081 1.990 . S
Li1057 O1116 1.970 . S
Li1057 O1117 1.956 . S
Li1057 O1119 1.961 . S
Li1058 N1103 1.990 . S
Li1058 O1116 1.961 . S
Li1058 O1118 1.956 . S
Li1058 O1119 1.970 . S
Li1059 N1109 1.990 . S
Li1059 O1117 1.961 . S
Li1059 O1118 1.970 . S
Li1059 O1119 1.956 . S
C1060 C1062 1.348 . S
C1060 C1063 1.356 . S
C1060 O1116 1.325 . S
N1061 C1064 1.314 . S
N1061 C1065 1.279 . S
C1062 C1060 1.348 . S
C1062 C1064 1.353 . S
C1062 H1120 0.929 . S
C1063 C1060 1.356 . S
C1063 C1065 1.358 . S
C1063 H1121 0.930 . S
C1064 N1061 1.314 . S
C1064 C1062 1.353 . S
C1064 H1122 0.930 . S
C1065 N1061 1.279 . S
C1065 C1063 1.358 . S
C1065 H1123 0.930 . S
C1066 C1069 1.348 . S
C1066 C1070 1.356 . S
C1066 O1117 1.325 . S
C1067 N1068 1.279 . S
C1067 C1070 1.358 . S
C1067 H1124 0.930 . S
N1068 C1067 1.279 . S
N1068 C1071 1.314 . S
C1069 C1066 1.348 . S
C1069 C1071 1.353 . S
C1069 H1125 0.929 . S
C1070 C1066 1.356 . S
C1070 C1067 1.358 . S
C1070 H1126 0.930 . S
C1071 N1068 1.314 . S
C1071 C1069 1.353 . S
C1071 H1127 0.930 . S
C1072 N1073 1.314 . S
C1072 C1077 1.353 . S
C1072 H1078 0.930 . S
N1073 Li1056 1.990 . S
N1073 C1072 1.314 . S
N1073 C1075 1.279 . S
C1074 C1075 1.358 . S
C1074 C1076 1.356 . S
C1074 H1128 0.930 . S
C1075 N1073 1.279 . S
C1075 C1074 1.358 . S
C1075 H1079 0.930 . S
C1076 C1074 1.356 . S
C1076 C1077 1.348 . S
C1077 C1072 1.353 . S
C1077 C1076 1.348 . S
C1077 H1129 0.929 . S
H1078 C1072 0.930 . S
H1079 C1075 0.930 . S
C1080 N1081 1.314 . S
C1080 C1082 1.353 . S
C1080 H1086 0.930 . S
N1081 Li1057 1.990 . S
N1081 C1080 1.314 . S
N1081 C1084 1.279 . S
C1082 C1080 1.353 . S
C1082 C1085 1.348 . S
C1082 H1130 0.929 . S
C1083 C1084 1.358 . S
C1083 C1085 1.356 . S
C1083 H1131 0.930 . S
C1084 N1081 1.279 . S
C1084 C1083 1.358 . S
C1084 H1087 0.930 . S
C1085 C1082 1.348 . S
C1085 C1083 1.356 . S
H1086 C1080 0.930 . S
H1087 C1084 0.930 . S
C1088 C1090 1.348 . S
C1088 C1091 1.356 . S
C1088 O1118 1.325 . S
N1089 C1092 1.314 . S
N1089 C1093 1.279 . S
C1090 C1088 1.348 . S
C1090 C1092 1.353 . S
C1090 H1132 0.929 . S
C1091 C1088 1.356 . S
C1091 C1093 1.358 . S
C1091 H1133 0.930 . S
C1092 N1089 1.314 . S
C1092 C1090 1.353 . S
C1092 H1134 0.930 . S
C1093 N1089 1.279 . S
C1093 C1091 1.358 . S
C1093 H1135 0.930 . S
C1094 C1095 1.348 . S
C1094 C1096 1.356 . S
C1094 O1119 1.325 . S
C1095 C1094 1.348 . S
C1095 C1097 1.353 . S
C1095 H1136 0.929 . S
C1096 C1094 1.356 . S
C1096 C1098 1.358 . S
C1096 H1137 0.930 . S
C1097 C1095 1.353 . S
C1097 N1099 1.314 . S
C1097 H1138 0.930 . S
C1098 C1096 1.358 . S
C1098 N1099 1.279 . S
C1098 H1139 0.930 . S
N1099 C1097 1.314 . S
N1099 C1098 1.279 . S
C1100 C1102 1.353 . S
C1100 N1103 1.314 . S
C1100 H1106 0.930 . S
C1101 N1103 1.279 . S
C1101 C1104 1.358 . S
C1101 H1107 0.930 . S
C1102 C1100 1.353 . S
C1102 C1105 1.348 . S
C1102 H1140 0.929 . S
N1103 Li1058 1.990 . S
N1103 C1100 1.314 . S
N1103 C1101 1.279 . S
C1104 C1101 1.358 . S
C1104 C1105 1.356 . S
C1104 H1141 0.930 . S
C1105 C1102 1.348 . S
C1105 C1104 1.356 . S
H1106 C1100 0.930 . S
H1107 C1101 0.930 . S
C1108 N1109 1.314 . S
C1108 C1110 1.353 . S
C1108 H1114 0.930 . S
N1109 Li1059 1.990 . S
N1109 C1108 1.314 . S
N1109 C1112 1.279 . S
C1110 C1108 1.353 . S
C1110 C1113 1.348 . S
C1110 H1142 0.929 . S
C1111 C1112 1.358 . S
C1111 C1113 1.356 . S
C1111 H1143 0.930 . S
C1112 N1109 1.279 . S
C1112 C1111 1.358 . S
C1112 H1115 0.930 . S
C1113 C1110 1.348 . S
C1113 C1111 1.356 . S
H1114 C1108 0.930 . S
H1115 C1112 0.930 . S
O1116 Li1056 1.956 . S
O1116 Li1057 1.970 . S
O1116 Li1058 1.961 . S
O1116 C1060 1.325 . S
O1117 Li1056 1.970 . S
O1117 Li1057 1.956 . S
O1117 Li1059 1.961 . S
O1117 C1066 1.325 . S
O1118 Li1056 1.961 . S
O1118 Li1058 1.956 . S
O1118 Li1059 1.970 . S
O1118 C1088 1.325 . S
O1119 Li1057 1.961 . S
O1119 Li1058 1.970 . S
O1119 Li1059 1.956 . S
O1119 C1094 1.325 . S
H1120 C1062 0.929 . S
H1121 C1063 0.930 . S
H1122 C1064 0.930 . S
H1123 C1065 0.930 . S
H1124 C1067 0.930 . S
H1125 C1069 0.929 . S
H1126 C1070 0.930 . S
H1127 C1071 0.930 . S
H1128 C1074 0.930 . S
H1129 C1077 0.929 . S
H1130 C1082 0.929 . S
H1131 C1083 0.930 . S
H1132 C1090 0.929 . S
H1133 C1091 0.930 . S
H1134 C1092 0.930 . S
H1135 C1093 0.930 . S
H1136 C1095 0.929 . S
H1137 C1096 0.930 . S
H1138 C1097 0.930 . S
H1139 C1098 0.930 . S
H1140 C1102 0.929 . S
H1141 C1104 0.930 . S
H1142 C1110 0.929 . S
H1143 C1111 0.930 . S
Li1144 N1161 1.990 . S
Li1144 O1204 1.956 . S
Li1144 O1205 1.970 . S
Li1144 O1206 1.961 . S
Li1145 N1169 1.990 . S
Li1145 O1204 1.970 . S
Li1145 O1205 1.956 . S
Li1145 O1207 1.961 . S
Li1146 N1191 1.990 . S
Li1146 O1204 1.961 . S
Li1146 O1206 1.956 . S
Li1146 O1207 1.970 . S
Li1147 N1197 1.990 . S
Li1147 O1205 1.961 . S
Li1147 O1206 1.970 . S
Li1147 O1207 1.956 . S
C1148 C1150 1.348 . S
C1148 C1151 1.356 . S
C1148 O1204 1.325 . S
N1149 C1152 1.314 . S
N1149 C1153 1.279 . S
C1150 C1148 1.348 . S
C1150 C1152 1.353 . S
C1150 H1208 0.929 . S
C1151 C1148 1.356 . S
C1151 C1153 1.358 . S
C1151 H1209 0.930 . S
C1152 N1149 1.314 . S
C1152 C1150 1.353 . S
C1152 H1210 0.930 . S
C1153 N1149 1.279 . S
C1153 C1151 1.358 . S
C1153 H1211 0.930 . S
C1154 C1157 1.348 . S
C1154 C1158 1.356 . S
C1154 O1205 1.325 . S
C1155 N1156 1.279 . S
C1155 C1158 1.358 . S
C1155 H1212 0.930 . S
N1156 C1155 1.279 . S
N1156 C1159 1.314 . S
C1157 C1154 1.348 . S
C1157 C1159 1.353 . S
C1157 H1213 0.929 . S
C1158 C1154 1.356 . S
C1158 C1155 1.358 . S
C1158 H1214 0.930 . S
C1159 N1156 1.314 . S
C1159 C1157 1.353 . S
C1159 H1215 0.930 . S
C1160 N1161 1.314 . S
C1160 C1165 1.353 . S
C1160 H1166 0.930 . S
N1161 Li1144 1.990 . S
N1161 C1160 1.314 . S
N1161 C1163 1.279 . S
C1162 C1163 1.358 . S
C1162 C1164 1.356 . S
C1162 H1216 0.930 . S
C1163 N1161 1.279 . S
C1163 C1162 1.358 . S
C1163 H1167 0.930 . S
C1164 C1162 1.356 . S
C1164 C1165 1.348 . S
C1165 C1160 1.353 . S
C1165 C1164 1.348 . S
C1165 H1217 0.929 . S
H1166 C1160 0.930 . S
H1167 C1163 0.930 . S
C1168 N1169 1.314 . S
C1168 C1170 1.353 . S
C1168 H1174 0.930 . S
N1169 Li1145 1.990 . S
N1169 C1168 1.314 . S
N1169 C1172 1.279 . S
C1170 C1168 1.353 . S
C1170 C1173 1.348 . S
C1170 H1218 0.929 . S
C1171 C1172 1.358 . S
C1171 C1173 1.356 . S
C1171 H1219 0.930 . S
C1172 N1169 1.279 . S
C1172 C1171 1.358 . S
C1172 H1175 0.930 . S
C1173 C1170 1.348 . S
C1173 C1171 1.356 . S
H1174 C1168 0.930 . S
H1175 C1172 0.930 . S
C1176 C1178 1.348 . S
C1176 C1179 1.356 . S
C1176 O1206 1.325 . S
N1177 C1180 1.314 . S
N1177 C1181 1.279 . S
C1178 C1176 1.348 . S
C1178 C1180 1.353 . S
C1178 H1220 0.929 . S
C1179 C1176 1.356 . S
C1179 C1181 1.358 . S
C1179 H1221 0.930 . S
C1180 N1177 1.314 . S
C1180 C1178 1.353 . S
C1180 H1222 0.930 . S
C1181 N1177 1.279 . S
C1181 C1179 1.358 . S
C1181 H1223 0.930 . S
C1182 C1183 1.348 . S
C1182 C1184 1.356 . S
C1182 O1207 1.325 . S
C1183 C1182 1.348 . S
C1183 C1185 1.353 . S
C1183 H1224 0.929 . S
C1184 C1182 1.356 . S
C1184 C1186 1.358 . S
C1184 H1225 0.930 . S
C1185 C1183 1.353 . S
C1185 N1187 1.314 . S
C1185 H1226 0.930 . S
C1186 C1184 1.358 . S
C1186 N1187 1.279 . S
C1186 H1227 0.930 . S
N1187 C1185 1.314 . S
N1187 C1186 1.279 . S
C1188 C1190 1.353 . S
C1188 N1191 1.314 . S
C1188 H1194 0.930 . S
C1189 N1191 1.279 . S
C1189 C1192 1.358 . S
C1189 H1195 0.930 . S
C1190 C1188 1.353 . S
C1190 C1193 1.348 . S
C1190 H1228 0.929 . S
N1191 Li1146 1.990 . S
N1191 C1188 1.314 . S
N1191 C1189 1.279 . S
C1192 C1189 1.358 . S
C1192 C1193 1.356 . S
C1192 H1229 0.930 . S
C1193 C1190 1.348 . S
C1193 C1192 1.356 . S
H1194 C1188 0.930 . S
H1195 C1189 0.930 . S
C1196 N1197 1.314 . S
C1196 C1198 1.353 . S
C1196 H1202 0.930 . S
N1197 Li1147 1.990 . S
N1197 C1196 1.314 . S
N1197 C1200 1.279 . S
C1198 C1196 1.353 . S
C1198 C1201 1.348 . S
C1198 H1230 0.929 . S
C1199 C1200 1.358 . S
C1199 C1201 1.356 . S
C1199 H1231 0.930 . S
C1200 N1197 1.279 . S
C1200 C1199 1.358 . S
C1200 H1203 0.930 . S
C1201 C1198 1.348 . S
C1201 C1199 1.356 . S
H1202 C1196 0.930 . S
H1203 C1200 0.930 . S
O1204 Li1144 1.956 . S
O1204 Li1145 1.970 . S
O1204 Li1146 1.961 . S
O1204 C1148 1.325 . S
O1205 Li1144 1.970 . S
O1205 Li1145 1.956 . S
O1205 Li1147 1.961 . S
O1205 C1154 1.325 . S
O1206 Li1144 1.961 . S
O1206 Li1146 1.956 . S
O1206 Li1147 1.970 . S
O1206 C1176 1.325 . S
O1207 Li1145 1.961 . S
O1207 Li1146 1.970 . S
O1207 Li1147 1.956 . S
O1207 C1182 1.325 . S
H1208 C1150 0.929 . S
H1209 C1151 0.930 . S
H1210 C1152 0.930 . S
H1211 C1153 0.930 . S
H1212 C1155 0.930 . S
H1213 C1157 0.929 . S
H1214 C1158 0.930 . S
H1215 C1159 0.930 . S
H1216 C1162 0.930 . S
H1217 C1165 0.929 . S
H1218 C1170 0.929 . S
H1219 C1171 0.930 . S
H1220 C1178 0.929 . S
H1221 C1179 0.930 . S
H1222 C1180 0.930 . S
H1223 C1181 0.930 . S
H1224 C1183 0.929 . S
H1225 C1184 0.930 . S
H1226 C1185 0.930 . S
H1227 C1186 0.930 . S
H1228 C1190 0.929 . S
H1229 C1192 0.930 . S
H1230 C1198 0.929 . S
H1231 C1199 0.930 . S
Li1232 N1249 1.990 . S
Li1232 O1292 1.956 . S
Li1232 O1293 1.970 . S
Li1232 O1294 1.961 . S
Li1233 N1257 1.990 . S
Li1233 O1292 1.970 . S
Li1233 O1293 1.956 . S
Li1233 O1295 1.961 . S
Li1234 N1279 1.990 . S
Li1234 O1292 1.961 . S
Li1234 O1294 1.956 . S
Li1234 O1295 1.970 . S
Li1235 N1285 1.990 . S
Li1235 O1293 1.961 . S
Li1235 O1294 1.970 . S
Li1235 O1295 1.956 . S
C1236 C1238 1.348 . S
C1236 C1239 1.356 . S
C1236 O1292 1.325 . S
N1237 C1240 1.314 . S
N1237 C1241 1.279 . S
C1238 C1236 1.348 . S
C1238 C1240 1.353 . S
C1238 H1296 0.929 . S
C1239 C1236 1.356 . S
C1239 C1241 1.358 . S
C1239 H1297 0.930 . S
C1240 N1237 1.314 . S
C1240 C1238 1.353 . S
C1240 H1298 0.930 . S
C1241 N1237 1.279 . S
C1241 C1239 1.358 . S
C1241 H1299 0.930 . S
C1242 C1245 1.348 . S
C1242 C1246 1.356 . S
C1242 O1293 1.325 . S
C1243 N1244 1.279 . S
C1243 C1246 1.358 . S
C1243 H1300 0.930 . S
N1244 C1243 1.279 . S
N1244 C1247 1.314 . S
C1245 C1242 1.348 . S
C1245 C1247 1.353 . S
C1245 H1301 0.929 . S
C1246 C1242 1.356 . S
C1246 C1243 1.358 . S
C1246 H1302 0.930 . S
C1247 N1244 1.314 . S
C1247 C1245 1.353 . S
C1247 H1303 0.930 . S
C1248 N1249 1.314 . S
C1248 C1253 1.353 . S
C1248 H1254 0.930 . S
N1249 Li1232 1.990 . S
N1249 C1248 1.314 . S
N1249 C1251 1.279 . S
C1250 C1251 1.358 . S
C1250 C1252 1.356 . S
C1250 H1304 0.930 . S
C1251 N1249 1.279 . S
C1251 C1250 1.358 . S
C1251 H1255 0.930 . S
C1252 C1250 1.356 . S
C1252 C1253 1.348 . S
C1253 C1248 1.353 . S
C1253 C1252 1.348 . S
C1253 H1305 0.929 . S
H1254 C1248 0.930 . S
H1255 C1251 0.930 . S
C1256 N1257 1.314 . S
C1256 C1258 1.353 . S
C1256 H1262 0.930 . S
N1257 Li1233 1.990 . S
N1257 C1256 1.314 . S
N1257 C1260 1.279 . S
C1258 C1256 1.353 . S
C1258 C1261 1.348 . S
C1258 H1306 0.929 . S
C1259 C1260 1.358 . S
C1259 C1261 1.356 . S
C1259 H1307 0.930 . S
C1260 N1257 1.279 . S
C1260 C1259 1.358 . S
C1260 H1263 0.930 . S
C1261 C1258 1.348 . S
C1261 C1259 1.356 . S
H1262 C1256 0.930 . S
H1263 C1260 0.930 . S
C1264 C1266 1.348 . S
C1264 C1267 1.356 . S
C1264 O1294 1.325 . S
N1265 C1268 1.314 . S
N1265 C1269 1.279 . S
C1266 C1264 1.348 . S
C1266 C1268 1.353 . S
C1266 H1308 0.929 . S
C1267 C1264 1.356 . S
C1267 C1269 1.358 . S
C1267 H1309 0.930 . S
C1268 N1265 1.314 . S
C1268 C1266 1.353 . S
C1268 H1310 0.930 . S
C1269 N1265 1.279 . S
C1269 C1267 1.358 . S
C1269 H1311 0.930 . S
C1270 C1271 1.348 . S
C1270 C1272 1.356 . S
C1270 O1295 1.325 . S
C1271 C1270 1.348 . S
C1271 C1273 1.353 . S
C1271 H1312 0.929 . S
C1272 C1270 1.356 . S
C1272 C1274 1.358 . S
C1272 H1313 0.930 . S
C1273 C1271 1.353 . S
C1273 N1275 1.314 . S
C1273 H1314 0.930 . S
C1274 C1272 1.358 . S
C1274 N1275 1.279 . S
C1274 H1315 0.930 . S
N1275 C1273 1.314 . S
N1275 C1274 1.279 . S
C1276 C1278 1.353 . S
C1276 N1279 1.314 . S
C1276 H1282 0.930 . S
C1277 N1279 1.279 . S
C1277 C1280 1.358 . S
C1277 H1283 0.930 . S
C1278 C1276 1.353 . S
C1278 C1281 1.348 . S
C1278 H1316 0.929 . S
N1279 Li1234 1.990 . S
N1279 C1276 1.314 . S
N1279 C1277 1.279 . S
C1280 C1277 1.358 . S
C1280 C1281 1.356 . S
C1280 H1317 0.930 . S
C1281 C1278 1.348 . S
C1281 C1280 1.356 . S
H1282 C1276 0.930 . S
H1283 C1277 0.930 . S
C1284 N1285 1.314 . S
C1284 C1286 1.353 . S
C1284 H1290 0.930 . S
N1285 Li1235 1.990 . S
N1285 C1284 1.314 . S
N1285 C1288 1.279 . S
C1286 C1284 1.353 . S
C1286 C1289 1.348 . S
C1286 H1318 0.929 . S
C1287 C1288 1.358 . S
C1287 C1289 1.356 . S
C1287 H1319 0.930 . S
C1288 N1285 1.279 . S
C1288 C1287 1.358 . S
C1288 H1291 0.930 . S
C1289 C1286 1.348 . S
C1289 C1287 1.356 . S
H1290 C1284 0.930 . S
H1291 C1288 0.930 . S
O1292 Li1232 1.956 . S
O1292 Li1233 1.970 . S
O1292 Li1234 1.961 . S
O1292 C1236 1.325 . S
O1293 Li1232 1.970 . S
O1293 Li1233 1.956 . S
O1293 Li1235 1.961 . S
O1293 C1242 1.325 . S
O1294 Li1232 1.961 . S
O1294 Li1234 1.956 . S
O1294 Li1235 1.970 . S
O1294 C1264 1.325 . S
O1295 Li1233 1.961 . S
O1295 Li1234 1.970 . S
O1295 Li1235 1.956 . S
O1295 C1270 1.325 . S
H1296 C1238 0.929 . S
H1297 C1239 0.930 . S
H1298 C1240 0.930 . S
H1299 C1241 0.930 . S
H1300 C1243 0.930 . S
H1301 C1245 0.929 . S
H1302 C1246 0.930 . S
H1303 C1247 0.930 . S
H1304 C1250 0.930 . S
H1305 C1253 0.929 . S
H1306 C1258 0.929 . S
H1307 C1259 0.930 . S
H1308 C1266 0.929 . S
H1309 C1267 0.930 . S
H1310 C1268 0.930 . S
H1311 C1269 0.930 . S
H1312 C1271 0.929 . S
H1313 C1272 0.930 . S
H1314 C1273 0.930 . S
H1315 C1274 0.930 . S
H1316 C1278 0.929 . S
H1317 C1280 0.930 . S
H1318 C1286 0.929 . S
H1319 C1287 0.930 . S
Li1320 N1337 1.990 . S
Li1320 O1380 1.956 . S
Li1320 O1381 1.970 . S
Li1320 O1382 1.961 . S
Li1321 N1345 1.990 . S
Li1321 O1380 1.970 . S
Li1321 O1381 1.956 . S
Li1321 O1383 1.961 . S
Li1322 N1367 1.990 . S
Li1322 O1380 1.961 . S
Li1322 O1382 1.956 . S
Li1322 O1383 1.970 . S
Li1323 N1373 1.990 . S
Li1323 O1381 1.961 . S
Li1323 O1382 1.970 . S
Li1323 O1383 1.956 . S
C1324 C1326 1.348 . S
C1324 C1327 1.356 . S
C1324 O1380 1.325 . S
N1325 C1328 1.314 . S
N1325 C1329 1.279 . S
C1326 C1324 1.348 . S
C1326 C1328 1.353 . S
C1326 H1384 0.929 . S
C1327 C1324 1.356 . S
C1327 C1329 1.358 . S
C1327 H1385 0.930 . S
C1328 N1325 1.314 . S
C1328 C1326 1.353 . S
C1328 H1386 0.930 . S
C1329 N1325 1.279 . S
C1329 C1327 1.358 . S
C1329 H1387 0.930 . S
C1330 C1333 1.348 . S
C1330 C1334 1.356 . S
C1330 O1381 1.325 . S
C1331 N1332 1.279 . S
C1331 C1334 1.358 . S
C1331 H1388 0.930 . S
N1332 C1331 1.279 . S
N1332 C1335 1.314 . S
C1333 C1330 1.348 . S
C1333 C1335 1.353 . S
C1333 H1389 0.929 . S
C1334 C1330 1.356 . S
C1334 C1331 1.358 . S
C1334 H1390 0.930 . S
C1335 N1332 1.314 . S
C1335 C1333 1.353 . S
C1335 H1391 0.930 . S
C1336 N1337 1.314 . S
C1336 C1341 1.353 . S
C1336 H1342 0.930 . S
N1337 Li1320 1.990 . S
N1337 C1336 1.314 . S
N1337 C1339 1.279 . S
C1338 C1339 1.358 . S
C1338 C1340 1.356 . S
C1338 H1392 0.930 . S
C1339 N1337 1.279 . S
C1339 C1338 1.358 . S
C1339 H1343 0.930 . S
C1340 C1338 1.356 . S
C1340 C1341 1.348 . S
C1341 C1336 1.353 . S
C1341 C1340 1.348 . S
C1341 H1393 0.929 . S
H1342 C1336 0.930 . S
H1343 C1339 0.930 . S
C1344 N1345 1.314 . S
C1344 C1346 1.353 . S
C1344 H1350 0.930 . S
N1345 Li1321 1.990 . S
N1345 C1344 1.314 . S
N1345 C1348 1.279 . S
C1346 C1344 1.353 . S
C1346 C1349 1.348 . S
C1346 H1394 0.929 . S
C1347 C1348 1.358 . S
C1347 C1349 1.356 . S
C1347 H1395 0.930 . S
C1348 N1345 1.279 . S
C1348 C1347 1.358 . S
C1348 H1351 0.930 . S
C1349 C1346 1.348 . S
C1349 C1347 1.356 . S
H1350 C1344 0.930 . S
H1351 C1348 0.930 . S
C1352 C1354 1.348 . S
C1352 C1355 1.356 . S
C1352 O1382 1.325 . S
N1353 C1356 1.314 . S
N1353 C1357 1.279 . S
C1354 C1352 1.348 . S
C1354 C1356 1.353 . S
C1354 H1396 0.929 . S
C1355 C1352 1.356 . S
C1355 C1357 1.358 . S
C1355 H1397 0.930 . S
C1356 N1353 1.314 . S
C1356 C1354 1.353 . S
C1356 H1398 0.930 . S
C1357 N1353 1.279 . S
C1357 C1355 1.358 . S
C1357 H1399 0.930 . S
C1358 C1359 1.348 . S
C1358 C1360 1.356 . S
C1358 O1383 1.325 . S
C1359 C1358 1.348 . S
C1359 C1361 1.353 . S
C1359 H1400 0.929 . S
C1360 C1358 1.356 . S
C1360 C1362 1.358 . S
C1360 H1401 0.930 . S
C1361 C1359 1.353 . S
C1361 N1363 1.314 . S
C1361 H1402 0.930 . S
C1362 C1360 1.358 . S
C1362 N1363 1.279 . S
C1362 H1403 0.930 . S
N1363 C1361 1.314 . S
N1363 C1362 1.279 . S
C1364 C1366 1.353 . S
C1364 N1367 1.314 . S
C1364 H1370 0.930 . S
C1365 N1367 1.279 . S
C1365 C1368 1.358 . S
C1365 H1371 0.930 . S
C1366 C1364 1.353 . S
C1366 C1369 1.348 . S
C1366 H1404 0.929 . S
N1367 Li1322 1.990 . S
N1367 C1364 1.314 . S
N1367 C1365 1.279 . S
C1368 C1365 1.358 . S
C1368 C1369 1.356 . S
C1368 H1405 0.930 . S
C1369 C1366 1.348 . S
C1369 C1368 1.356 . S
H1370 C1364 0.930 . S
H1371 C1365 0.930 . S
C1372 N1373 1.314 . S
C1372 C1374 1.353 . S
C1372 H1378 0.930 . S
N1373 Li1323 1.990 . S
N1373 C1372 1.314 . S
N1373 C1376 1.279 . S
C1374 C1372 1.353 . S
C1374 C1377 1.348 . S
C1374 H1406 0.929 . S
C1375 C1376 1.358 . S
C1375 C1377 1.356 . S
C1375 H1407 0.930 . S
C1376 N1373 1.279 . S
C1376 C1375 1.358 . S
C1376 H1379 0.930 . S
C1377 C1374 1.348 . S
C1377 C1375 1.356 . S
H1378 C1372 0.930 . S
H1379 C1376 0.930 . S
O1380 Li1320 1.956 . S
O1380 Li1321 1.970 . S
O1380 Li1322 1.961 . S
O1380 C1324 1.325 . S
O1381 Li1320 1.970 . S
O1381 Li1321 1.956 . S
O1381 Li1323 1.961 . S
O1381 C1330 1.325 . S
O1382 Li1320 1.961 . S
O1382 Li1322 1.956 . S
O1382 Li1323 1.970 . S
O1382 C1352 1.325 . S
O1383 Li1321 1.961 . S
O1383 Li1322 1.970 . S
O1383 Li1323 1.956 . S
O1383 C1358 1.325 . S
H1384 C1326 0.929 . S
H1385 C1327 0.930 . S
H1386 C1328 0.930 . S
H1387 C1329 0.930 . S
H1388 C1331 0.930 . S
H1389 C1333 0.929 . S
H1390 C1334 0.930 . S
H1391 C1335 0.930 . S
H1392 C1338 0.930 . S
H1393 C1341 0.929 . S
H1394 C1346 0.929 . S
H1395 C1347 0.930 . S
H1396 C1354 0.929 . S
H1397 C1355 0.930 . S
H1398 C1356 0.930 . S
H1399 C1357 0.930 . S
H1400 C1359 0.929 . S
H1401 C1360 0.930 . S
H1402 C1361 0.930 . S
H1403 C1362 0.930 . S
H1404 C1366 0.929 . S
H1405 C1368 0.930 . S
H1406 C1374 0.929 . S
H1407 C1375 0.930 . S
Li1408 N1425 1.990 . S
Li1408 O1468 1.956 . S
Li1408 O1469 1.970 . S
Li1408 O1470 1.961 . S
Li1409 N1433 1.990 . S
Li1409 O1468 1.970 . S
Li1409 O1469 1.956 . S
Li1409 O1471 1.961 . S
Li1410 N1455 1.990 . S
Li1410 O1468 1.961 . S
Li1410 O1470 1.956 . S
Li1410 O1471 1.970 . S
Li1411 N1461 1.990 . S
Li1411 O1469 1.961 . S
Li1411 O1470 1.970 . S
Li1411 O1471 1.956 . S
C1412 C1414 1.348 . S
C1412 C1415 1.356 . S
C1412 O1468 1.325 . S
N1413 C1416 1.314 . S
N1413 C1417 1.279 . S
C1414 C1412 1.348 . S
C1414 C1416 1.353 . S
C1414 H1472 0.929 . S
C1415 C1412 1.356 . S
C1415 C1417 1.358 . S
C1415 H1473 0.930 . S
C1416 N1413 1.314 . S
C1416 C1414 1.353 . S
C1416 H1474 0.930 . S
C1417 N1413 1.279 . S
C1417 C1415 1.358 . S
C1417 H1475 0.930 . S
C1418 C1421 1.348 . S
C1418 C1422 1.356 . S
C1418 O1469 1.325 . S
C1419 N1420 1.279 . S
C1419 C1422 1.358 . S
C1419 H1476 0.930 . S
N1420 C1419 1.279 . S
N1420 C1423 1.314 . S
C1421 C1418 1.348 . S
C1421 C1423 1.353 . S
C1421 H1477 0.929 . S
C1422 C1418 1.356 . S
C1422 C1419 1.358 . S
C1422 H1478 0.930 . S
C1423 N1420 1.314 . S
C1423 C1421 1.353 . S
C1423 H1479 0.930 . S
C1424 N1425 1.314 . S
C1424 C1429 1.353 . S
C1424 H1430 0.930 . S
N1425 Li1408 1.990 . S
N1425 C1424 1.314 . S
N1425 C1427 1.279 . S
C1426 C1427 1.358 . S
C1426 C1428 1.356 . S
C1426 H1480 0.930 . S
C1427 N1425 1.279 . S
C1427 C1426 1.358 . S
C1427 H1431 0.930 . S
C1428 C1426 1.356 . S
C1428 C1429 1.348 . S
C1429 C1424 1.353 . S
C1429 C1428 1.348 . S
C1429 H1481 0.929 . S
H1430 C1424 0.930 . S
H1431 C1427 0.930 . S
C1432 N1433 1.314 . S
C1432 C1434 1.353 . S
C1432 H1438 0.930 . S
N1433 Li1409 1.990 . S
N1433 C1432 1.314 . S
N1433 C1436 1.279 . S
C1434 C1432 1.353 . S
C1434 C1437 1.348 . S
C1434 H1482 0.929 . S
C1435 C1436 1.358 . S
C1435 C1437 1.356 . S
C1435 H1483 0.930 . S
C1436 N1433 1.279 . S
C1436 C1435 1.358 . S
C1436 H1439 0.930 . S
C1437 C1434 1.348 . S
C1437 C1435 1.356 . S
H1438 C1432 0.930 . S
H1439 C1436 0.930 . S
C1440 C1442 1.348 . S
C1440 C1443 1.356 . S
C1440 O1470 1.325 . S
N1441 C1444 1.314 . S
N1441 C1445 1.279 . S
C1442 C1440 1.348 . S
C1442 C1444 1.353 . S
C1442 H1484 0.929 . S
C1443 C1440 1.356 . S
C1443 C1445 1.358 . S
C1443 H1485 0.930 . S
C1444 N1441 1.314 . S
C1444 C1442 1.353 . S
C1444 H1486 0.930 . S
C1445 N1441 1.279 . S
C1445 C1443 1.358 . S
C1445 H1487 0.930 . S
C1446 C1447 1.348 . S
C1446 C1448 1.356 . S
C1446 O1471 1.325 . S
C1447 C1446 1.348 . S
C1447 C1449 1.353 . S
C1447 H1488 0.929 . S
C1448 C1446 1.356 . S
C1448 C1450 1.358 . S
C1448 H1489 0.930 . S
C1449 C1447 1.353 . S
C1449 N1451 1.314 . S
C1449 H1490 0.930 . S
C1450 C1448 1.358 . S
C1450 N1451 1.279 . S
C1450 H1491 0.930 . S
N1451 C1449 1.314 . S
N1451 C1450 1.279 . S
C1452 C1454 1.353 . S
C1452 N1455 1.314 . S
C1452 H1458 0.930 . S
C1453 N1455 1.279 . S
C1453 C1456 1.358 . S
C1453 H1459 0.930 . S
C1454 C1452 1.353 . S
C1454 C1457 1.348 . S
C1454 H1492 0.929 . S
N1455 Li1410 1.990 . S
N1455 C1452 1.314 . S
N1455 C1453 1.279 . S
C1456 C1453 1.358 . S
C1456 C1457 1.356 . S
C1456 H1493 0.930 . S
C1457 C1454 1.348 . S
C1457 C1456 1.356 . S
H1458 C1452 0.930 . S
H1459 C1453 0.930 . S
C1460 N1461 1.314 . S
C1460 C1462 1.353 . S
C1460 H1466 0.930 . S
N1461 Li1411 1.990 . S
N1461 C1460 1.314 . S
N1461 C1464 1.279 . S
C1462 C1460 1.353 . S
C1462 C1465 1.348 . S
C1462 H1494 0.929 . S
C1463 C1464 1.358 . S
C1463 C1465 1.356 . S
C1463 H1495 0.930 . S
C1464 N1461 1.279 . S
C1464 C1463 1.358 . S
C1464 H1467 0.930 . S
C1465 C1462 1.348 . S
C1465 C1463 1.356 . S
H1466 C1460 0.930 . S
H1467 C1464 0.930 . S
O1468 Li1408 1.956 . S
O1468 Li1409 1.970 . S
O1468 Li1410 1.961 . S
O1468 C1412 1.325 . S
O1469 Li1408 1.970 . S
O1469 Li1409 1.956 . S
O1469 Li1411 1.961 . S
O1469 C1418 1.325 . S
O1470 Li1408 1.961 . S
O1470 Li1410 1.956 . S
O1470 Li1411 1.970 . S
O1470 C1440 1.325 . S
O1471 Li1409 1.961 . S
O1471 Li1410 1.970 . S
O1471 Li1411 1.956 . S
O1471 C1446 1.325 . S
H1472 C1414 0.929 . S
H1473 C1415 0.930 . S
H1474 C1416 0.930 . S
H1475 C1417 0.930 . S
H1476 C1419 0.930 . S
H1477 C1421 0.929 . S
H1478 C1422 0.930 . S
H1479 C1423 0.930 . S
H1480 C1426 0.930 . S
H1481 C1429 0.929 . S
H1482 C1434 0.929 . S
H1483 C1435 0.930 . S
H1484 C1442 0.929 . S
H1485 C1443 0.930 . S
H1486 C1444 0.930 . S
H1487 C1445 0.930 . S
H1488 C1447 0.929 . S
H1489 C1448 0.930 . S
H1490 C1449 0.930 . S
H1491 C1450 0.930 . S
H1492 C1454 0.929 . S
H1493 C1456 0.930 . S
H1494 C1462 0.929 . S
H1495 C1463 0.930 . S
Li1496 N1513 1.990 . S
Li1496 O1556 1.956 . S
Li1496 O1557 1.970 . S
Li1496 O1558 1.961 . S
Li1497 N1521 1.990 . S
Li1497 O1556 1.970 . S
Li1497 O1557 1.956 . S
Li1497 O1559 1.961 . S
Li1498 N1543 1.990 . S
Li1498 O1556 1.961 . S
Li1498 O1558 1.956 . S
Li1498 O1559 1.970 . S
Li1499 N1549 1.990 . S
Li1499 O1557 1.961 . S
Li1499 O1558 1.970 . S
Li1499 O1559 1.956 . S
C1500 C1502 1.348 . S
C1500 C1503 1.356 . S
C1500 O1556 1.325 . S
N1501 C1504 1.314 . S
N1501 C1505 1.279 . S
C1502 C1500 1.348 . S
C1502 C1504 1.353 . S
C1502 H1560 0.929 . S
C1503 C1500 1.356 . S
C1503 C1505 1.358 . S
C1503 H1561 0.930 . S
C1504 N1501 1.314 . S
C1504 C1502 1.353 . S
C1504 H1562 0.930 . S
C1505 N1501 1.279 . S
C1505 C1503 1.358 . S
C1505 H1563 0.930 . S
C1506 C1509 1.348 . S
C1506 C1510 1.356 . S
C1506 O1557 1.325 . S
C1507 N1508 1.279 . S
C1507 C1510 1.358 . S
C1507 H1564 0.930 . S
N1508 C1507 1.279 . S
N1508 C1511 1.314 . S
C1509 C1506 1.348 . S
C1509 C1511 1.353 . S
C1509 H1565 0.929 . S
C1510 C1506 1.356 . S
C1510 C1507 1.358 . S
C1510 H1566 0.930 . S
C1511 N1508 1.314 . S
C1511 C1509 1.353 . S
C1511 H1567 0.930 . S
C1512 N1513 1.314 . S
C1512 C1517 1.353 . S
C1512 H1518 0.930 . S
N1513 Li1496 1.990 . S
N1513 C1512 1.314 . S
N1513 C1515 1.279 . S
C1514 C1515 1.358 . S
C1514 C1516 1.356 . S
C1514 H1568 0.930 . S
C1515 N1513 1.279 . S
C1515 C1514 1.358 . S
C1515 H1519 0.930 . S
C1516 C1514 1.356 . S
C1516 C1517 1.348 . S
C1517 C1512 1.353 . S
C1517 C1516 1.348 . S
C1517 H1569 0.929 . S
H1518 C1512 0.930 . S
H1519 C1515 0.930 . S
C1520 N1521 1.314 . S
C1520 C1522 1.353 . S
C1520 H1526 0.930 . S
N1521 Li1497 1.990 . S
N1521 C1520 1.314 . S
N1521 C1524 1.279 . S
C1522 C1520 1.353 . S
C1522 C1525 1.348 . S
C1522 H1570 0.929 . S
C1523 C1524 1.358 . S
C1523 C1525 1.356 . S
C1523 H1571 0.930 . S
C1524 N1521 1.279 . S
C1524 C1523 1.358 . S
C1524 H1527 0.930 . S
C1525 C1522 1.348 . S
C1525 C1523 1.356 . S
H1526 C1520 0.930 . S
H1527 C1524 0.930 . S
C1528 C1530 1.348 . S
C1528 C1531 1.356 . S
C1528 O1558 1.325 . S
N1529 C1532 1.314 . S
N1529 C1533 1.279 . S
C1530 C1528 1.348 . S
C1530 C1532 1.353 . S
C1530 H1572 0.929 . S
C1531 C1528 1.356 . S
C1531 C1533 1.358 . S
C1531 H1573 0.930 . S
C1532 N1529 1.314 . S
C1532 C1530 1.353 . S
C1532 H1574 0.930 . S
C1533 N1529 1.279 . S
C1533 C1531 1.358 . S
C1533 H1575 0.930 . S
C1534 C1535 1.348 . S
C1534 C1536 1.356 . S
C1534 O1559 1.325 . S
C1535 C1534 1.348 . S
C1535 C1537 1.353 . S
C1535 H1576 0.929 . S
C1536 C1534 1.356 . S
C1536 C1538 1.358 . S
C1536 H1577 0.930 . S
C1537 C1535 1.353 . S
C1537 N1539 1.314 . S
C1537 H1578 0.930 . S
C1538 C1536 1.358 . S
C1538 N1539 1.279 . S
C1538 H1579 0.930 . S
N1539 C1537 1.314 . S
N1539 C1538 1.279 . S
C1540 C1542 1.353 . S
C1540 N1543 1.314 . S
C1540 H1546 0.930 . S
C1541 N1543 1.279 . S
C1541 C1544 1.358 . S
C1541 H1547 0.930 . S
C1542 C1540 1.353 . S
C1542 C1545 1.348 . S
C1542 H1580 0.929 . S
N1543 Li1498 1.990 . S
N1543 C1540 1.314 . S
N1543 C1541 1.279 . S
C1544 C1541 1.358 . S
C1544 C1545 1.356 . S
C1544 H1581 0.930 . S
C1545 C1542 1.348 . S
C1545 C1544 1.356 . S
H1546 C1540 0.930 . S
H1547 C1541 0.930 . S
C1548 N1549 1.314 . S
C1548 C1550 1.353 . S
C1548 H1554 0.930 . S
N1549 Li1499 1.990 . S
N1549 C1548 1.314 . S
N1549 C1552 1.279 . S
C1550 C1548 1.353 . S
C1550 C1553 1.348 . S
C1550 H1582 0.929 . S
C1551 C1552 1.358 . S
C1551 C1553 1.356 . S
C1551 H1583 0.930 . S
C1552 N1549 1.279 . S
C1552 C1551 1.358 . S
C1552 H1555 0.930 . S
C1553 C1550 1.348 . S
C1553 C1551 1.356 . S
H1554 C1548 0.930 . S
H1555 C1552 0.930 . S
O1556 Li1496 1.956 . S
O1556 Li1497 1.970 . S
O1556 Li1498 1.961 . S
O1556 C1500 1.325 . S
O1557 Li1496 1.970 . S
O1557 Li1497 1.956 . S
O1557 Li1499 1.961 . S
O1557 C1506 1.325 . S
O1558 Li1496 1.961 . S
O1558 Li1498 1.956 . S
O1558 Li1499 1.970 . S
O1558 C1528 1.325 . S
O1559 Li1497 1.961 . S
O1559 Li1498 1.970 . S
O1559 Li1499 1.956 . S
O1559 C1534 1.325 . S
H1560 C1502 0.929 . S
H1561 C1503 0.930 . S
H1562 C1504 0.930 . S
H1563 C1505 0.930 . S
H1564 C1507 0.930 . S
H1565 C1509 0.929 . S
H1566 C1510 0.930 . S
H1567 C1511 0.930 . S
H1568 C1514 0.930 . S
H1569 C1517 0.929 . S
H1570 C1522 0.929 . S
H1571 C1523 0.930 . S
H1572 C1530 0.929 . S
H1573 C1531 0.930 . S
H1574 C1532 0.930 . S
H1575 C1533 0.930 . S
H1576 C1535 0.929 . S
H1577 C1536 0.930 . S
H1578 C1537 0.930 . S
H1579 C1538 0.930 . S
H1580 C1542 0.929 . S
H1581 C1544 0.930 . S
H1582 C1550 0.929 . S
H1583 C1551 0.930 . S
Li1584 N1601 1.990 . S
Li1584 O1644 1.956 . S
Li1584 O1645 1.970 . S
Li1584 O1646 1.961 . S
Li1585 N1609 1.990 . S
Li1585 O1644 1.970 . S
Li1585 O1645 1.956 . S
Li1585 O1647 1.961 . S
Li1586 N1631 1.990 . S
Li1586 O1644 1.961 . S
Li1586 O1646 1.956 . S
Li1586 O1647 1.970 . S
Li1587 N1637 1.990 . S
Li1587 O1645 1.961 . S
Li1587 O1646 1.970 . S
Li1587 O1647 1.956 . S
C1588 C1590 1.348 . S
C1588 C1591 1.356 . S
C1588 O1644 1.325 . S
N1589 C1592 1.314 . S
N1589 C1593 1.279 . S
C1590 C1588 1.348 . S
C1590 C1592 1.353 . S
C1590 H1648 0.929 . S
C1591 C1588 1.356 . S
C1591 C1593 1.358 . S
C1591 H1649 0.930 . S
C1592 N1589 1.314 . S
C1592 C1590 1.353 . S
C1592 H1650 0.930 . S
C1593 N1589 1.279 . S
C1593 C1591 1.358 . S
C1593 H1651 0.930 . S
C1594 C1597 1.348 . S
C1594 C1598 1.356 . S
C1594 O1645 1.325 . S
C1595 N1596 1.279 . S
C1595 C1598 1.358 . S
C1595 H1652 0.930 . S
N1596 C1595 1.279 . S
N1596 C1599 1.314 . S
C1597 C1594 1.348 . S
C1597 C1599 1.353 . S
C1597 H1653 0.929 . S
C1598 C1594 1.356 . S
C1598 C1595 1.358 . S
C1598 H1654 0.930 . S
C1599 N1596 1.314 . S
C1599 C1597 1.353 . S
C1599 H1655 0.930 . S
C1600 N1601 1.314 . S
C1600 C1605 1.353 . S
C1600 H1606 0.930 . S
N1601 Li1584 1.990 . S
N1601 C1600 1.314 . S
N1601 C1603 1.279 . S
C1602 C1603 1.358 . S
C1602 C1604 1.356 . S
C1602 H1656 0.930 . S
C1603 N1601 1.279 . S
C1603 C1602 1.358 . S
C1603 H1607 0.930 . S
C1604 C1602 1.356 . S
C1604 C1605 1.348 . S
C1605 C1600 1.353 . S
C1605 C1604 1.348 . S
C1605 H1657 0.929 . S
H1606 C1600 0.930 . S
H1607 C1603 0.930 . S
C1608 N1609 1.314 . S
C1608 C1610 1.353 . S
C1608 H1614 0.930 . S
N1609 Li1585 1.990 . S
N1609 C1608 1.314 . S
N1609 C1612 1.279 . S
C1610 C1608 1.353 . S
C1610 C1613 1.348 . S
C1610 H1658 0.929 . S
C1611 C1612 1.358 . S
C1611 C1613 1.356 . S
C1611 H1659 0.930 . S
C1612 N1609 1.279 . S
C1612 C1611 1.358 . S
C1612 H1615 0.930 . S
C1613 C1610 1.348 . S
C1613 C1611 1.356 . S
H1614 C1608 0.930 . S
H1615 C1612 0.930 . S
C1616 C1618 1.348 . S
C1616 C1619 1.356 . S
C1616 O1646 1.325 . S
N1617 C1620 1.314 . S
N1617 C1621 1.279 . S
C1618 C1616 1.348 . S
C1618 C1620 1.353 . S
C1618 H1660 0.929 . S
C1619 C1616 1.356 . S
C1619 C1621 1.358 . S
C1619 H1661 0.930 . S
C1620 N1617 1.314 . S
C1620 C1618 1.353 . S
C1620 H1662 0.930 . S
C1621 N1617 1.279 . S
C1621 C1619 1.358 . S
C1621 H1663 0.930 . S
C1622 C1623 1.348 . S
C1622 C1624 1.356 . S
C1622 O1647 1.325 . S
C1623 C1622 1.348 . S
C1623 C1625 1.353 . S
C1623 H1664 0.929 . S
C1624 C1622 1.356 . S
C1624 C1626 1.358 . S
C1624 H1665 0.930 . S
C1625 C1623 1.353 . S
C1625 N1627 1.314 . S
C1625 H1666 0.930 . S
C1626 C1624 1.358 . S
C1626 N1627 1.279 . S
C1626 H1667 0.930 . S
N1627 C1625 1.314 . S
N1627 C1626 1.279 . S
C1628 C1630 1.353 . S
C1628 N1631 1.314 . S
C1628 H1634 0.930 . S
C1629 N1631 1.279 . S
C1629 C1632 1.358 . S
C1629 H1635 0.930 . S
C1630 C1628 1.353 . S
C1630 C1633 1.348 . S
C1630 H1668 0.929 . S
N1631 Li1586 1.990 . S
N1631 C1628 1.314 . S
N1631 C1629 1.279 . S
C1632 C1629 1.358 . S
C1632 C1633 1.356 . S
C1632 H1669 0.930 . S
C1633 C1630 1.348 . S
C1633 C1632 1.356 . S
H1634 C1628 0.930 . S
H1635 C1629 0.930 . S
C1636 N1637 1.314 . S
C1636 C1638 1.353 . S
C1636 H1642 0.930 . S
N1637 Li1587 1.990 . S
N1637 C1636 1.314 . S
N1637 C1640 1.279 . S
C1638 C1636 1.353 . S
C1638 C1641 1.348 . S
C1638 H1670 0.929 . S
C1639 C1640 1.358 . S
C1639 C1641 1.356 . S
C1639 H1671 0.930 . S
C1640 N1637 1.279 . S
C1640 C1639 1.358 . S
C1640 H1643 0.930 . S
C1641 C1638 1.348 . S
C1641 C1639 1.356 . S
H1642 C1636 0.930 . S
H1643 C1640 0.930 . S
O1644 Li1584 1.956 . S
O1644 Li1585 1.970 . S
O1644 Li1586 1.961 . S
O1644 C1588 1.325 . S
O1645 Li1584 1.970 . S
O1645 Li1585 1.956 . S
O1645 Li1587 1.961 . S
O1645 C1594 1.325 . S
O1646 Li1584 1.961 . S
O1646 Li1586 1.956 . S
O1646 Li1587 1.970 . S
O1646 C1616 1.325 . S
O1647 Li1585 1.961 . S
O1647 Li1586 1.970 . S
O1647 Li1587 1.956 . S
O1647 C1622 1.325 . S
H1648 C1590 0.929 . S
H1649 C1591 0.930 . S
H1650 C1592 0.930 . S
H1651 C1593 0.930 . S
H1652 C1595 0.930 . S
H1653 C1597 0.929 . S
H1654 C1598 0.930 . S
H1655 C1599 0.930 . S
H1656 C1602 0.930 . S
H1657 C1605 0.929 . S
H1658 C1610 0.929 . S
H1659 C1611 0.930 . S
H1660 C1618 0.929 . S
H1661 C1619 0.930 . S
H1662 C1620 0.930 . S
H1663 C1621 0.930 . S
H1664 C1623 0.929 . S
H1665 C1624 0.930 . S
H1666 C1625 0.930 . S
H1667 C1626 0.930 . S
H1668 C1630 0.929 . S
H1669 C1632 0.930 . S
H1670 C1638 0.929 . S
H1671 C1639 0.930 . S
Li1672 N1689 1.990 . S
Li1672 O1732 1.956 . S
Li1672 O1733 1.970 . S
Li1672 O1734 1.961 . S
Li1673 N1697 1.990 . S
Li1673 O1732 1.970 . S
Li1673 O1733 1.956 . S
Li1673 O1735 1.961 . S
Li1674 N1719 1.990 . S
Li1674 O1732 1.961 . S
Li1674 O1734 1.956 . S
Li1674 O1735 1.970 . S
Li1675 N1725 1.990 . S
Li1675 O1733 1.961 . S
Li1675 O1734 1.970 . S
Li1675 O1735 1.956 . S
C1676 C1678 1.348 . S
C1676 C1679 1.356 . S
C1676 O1732 1.325 . S
N1677 C1680 1.314 . S
N1677 C1681 1.279 . S
C1678 C1676 1.348 . S
C1678 C1680 1.353 . S
C1678 H1736 0.929 . S
C1679 C1676 1.356 . S
C1679 C1681 1.358 . S
C1679 H1737 0.930 . S
C1680 N1677 1.314 . S
C1680 C1678 1.353 . S
C1680 H1738 0.930 . S
C1681 N1677 1.279 . S
C1681 C1679 1.358 . S
C1681 H1739 0.930 . S
C1682 C1685 1.348 . S
C1682 C1686 1.356 . S
C1682 O1733 1.325 . S
C1683 N1684 1.279 . S
C1683 C1686 1.358 . S
C1683 H1740 0.930 . S
N1684 C1683 1.279 . S
N1684 C1687 1.314 . S
C1685 C1682 1.348 . S
C1685 C1687 1.353 . S
C1685 H1741 0.929 . S
C1686 C1682 1.356 . S
C1686 C1683 1.358 . S
C1686 H1742 0.930 . S
C1687 N1684 1.314 . S
C1687 C1685 1.353 . S
C1687 H1743 0.930 . S
C1688 N1689 1.314 . S
C1688 C1693 1.353 . S
C1688 H1694 0.930 . S
N1689 Li1672 1.990 . S
N1689 C1688 1.314 . S
N1689 C1691 1.279 . S
C1690 C1691 1.358 . S
C1690 C1692 1.356 . S
C1690 H1744 0.930 . S
C1691 N1689 1.279 . S
C1691 C1690 1.358 . S
C1691 H1695 0.930 . S
C1692 C1690 1.356 . S
C1692 C1693 1.348 . S
C1693 C1688 1.353 . S
C1693 C1692 1.348 . S
C1693 H1745 0.929 . S
H1694 C1688 0.930 . S
H1695 C1691 0.930 . S
C1696 N1697 1.314 . S
C1696 C1698 1.353 . S
C1696 H1702 0.930 . S
N1697 Li1673 1.990 . S
N1697 C1696 1.314 . S
N1697 C1700 1.279 . S
C1698 C1696 1.353 . S
C1698 C1701 1.348 . S
C1698 H1746 0.929 . S
C1699 C1700 1.358 . S
C1699 C1701 1.356 . S
C1699 H1747 0.930 . S
C1700 N1697 1.279 . S
C1700 C1699 1.358 . S
C1700 H1703 0.930 . S
C1701 C1698 1.348 . S
C1701 C1699 1.356 . S
H1702 C1696 0.930 . S
H1703 C1700 0.930 . S
C1704 C1706 1.348 . S
C1704 C1707 1.356 . S
C1704 O1734 1.325 . S
N1705 C1708 1.314 . S
N1705 C1709 1.279 . S
C1706 C1704 1.348 . S
C1706 C1708 1.353 . S
C1706 H1748 0.929 . S
C1707 C1704 1.356 . S
C1707 C1709 1.358 . S
C1707 H1749 0.930 . S
C1708 N1705 1.314 . S
C1708 C1706 1.353 . S
C1708 H1750 0.930 . S
C1709 N1705 1.279 . S
C1709 C1707 1.358 . S
C1709 H1751 0.930 . S
C1710 C1711 1.348 . S
C1710 C1712 1.356 . S
C1710 O1735 1.325 . S
C1711 C1710 1.348 . S
C1711 C1713 1.353 . S
C1711 H1752 0.929 . S
C1712 C1710 1.356 . S
C1712 C1714 1.358 . S
C1712 H1753 0.930 . S
C1713 C1711 1.353 . S
C1713 N1715 1.314 . S
C1713 H1754 0.930 . S
C1714 C1712 1.358 . S
C1714 N1715 1.279 . S
C1714 H1755 0.930 . S
N1715 C1713 1.314 . S
N1715 C1714 1.279 . S
C1716 C1718 1.353 . S
C1716 N1719 1.314 . S
C1716 H1722 0.930 . S
C1717 N1719 1.279 . S
C1717 C1720 1.358 . S
C1717 H1723 0.930 . S
C1718 C1716 1.353 . S
C1718 C1721 1.348 . S
C1718 H1756 0.929 . S
N1719 Li1674 1.990 . S
N1719 C1716 1.314 . S
N1719 C1717 1.279 . S
C1720 C1717 1.358 . S
C1720 C1721 1.356 . S
C1720 H1757 0.930 . S
C1721 C1718 1.348 . S
C1721 C1720 1.356 . S
H1722 C1716 0.930 . S
H1723 C1717 0.930 . S
C1724 N1725 1.314 . S
C1724 C1726 1.353 . S
C1724 H1730 0.930 . S
N1725 Li1675 1.990 . S
N1725 C1724 1.314 . S
N1725 C1728 1.279 . S
C1726 C1724 1.353 . S
C1726 C1729 1.348 . S
C1726 H1758 0.929 . S
C1727 C1728 1.358 . S
C1727 C1729 1.356 . S
C1727 H1759 0.930 . S
C1728 N1725 1.279 . S
C1728 C1727 1.358 . S
C1728 H1731 0.930 . S
C1729 C1726 1.348 . S
C1729 C1727 1.356 . S
H1730 C1724 0.930 . S
H1731 C1728 0.930 . S
O1732 Li1672 1.956 . S
O1732 Li1673 1.970 . S
O1732 Li1674 1.961 . S
O1732 C1676 1.325 . S
O1733 Li1672 1.970 . S
O1733 Li1673 1.956 . S
O1733 Li1675 1.961 . S
O1733 C1682 1.325 . S
O1734 Li1672 1.961 . S
O1734 Li1674 1.956 . S
O1734 Li1675 1.970 . S
O1734 C1704 1.325 . S
O1735 Li1673 1.961 . S
O1735 Li1674 1.970 . S
O1735 Li1675 1.956 . S
O1735 C1710 1.325 . S
H1736 C1678 0.929 . S
H1737 C1679 0.930 . S
H1738 C1680 0.930 . S
H1739 C1681 0.930 . S
H1740 C1683 0.930 . S
H1741 C1685 0.929 . S
H1742 C1686 0.930 . S
H1743 C1687 0.930 . S
H1744 C1690 0.930 . S
H1745 C1693 0.929 . S
H1746 C1698 0.929 . S
H1747 C1699 0.930 . S
H1748 C1706 0.929 . S
H1749 C1707 0.930 . S
H1750 C1708 0.930 . S
H1751 C1709 0.930 . S
H1752 C1711 0.929 . S
H1753 C1712 0.930 . S
H1754 C1713 0.930 . S
H1755 C1714 0.930 . S
H1756 C1718 0.929 . S
H1757 C1720 0.930 . S
H1758 C1726 0.929 . S
H1759 C1727 0.930 . S
Li1760 N1777 1.990 . S
Li1760 O1820 1.956 . S
Li1760 O1821 1.970 . S
Li1760 O1822 1.961 . S
Li1761 N1785 1.990 . S
Li1761 O1820 1.970 . S
Li1761 O1821 1.956 . S
Li1761 O1823 1.961 . S
Li1762 N1807 1.990 . S
Li1762 O1820 1.961 . S
Li1762 O1822 1.956 . S
Li1762 O1823 1.970 . S
Li1763 N1813 1.990 . S
Li1763 O1821 1.961 . S
Li1763 O1822 1.970 . S
Li1763 O1823 1.956 . S
C1764 C1766 1.348 . S
C1764 C1767 1.356 . S
C1764 O1820 1.325 . S
N1765 C1768 1.314 . S
N1765 C1769 1.279 . S
C1766 C1764 1.348 . S
C1766 C1768 1.353 . S
C1766 H1824 0.929 . S
C1767 C1764 1.356 . S
C1767 C1769 1.358 . S
C1767 H1825 0.930 . S
C1768 N1765 1.314 . S
C1768 C1766 1.353 . S
C1768 H1826 0.930 . S
C1769 N1765 1.279 . S
C1769 C1767 1.358 . S
C1769 H1827 0.930 . S
C1770 C1773 1.348 . S
C1770 C1774 1.356 . S
C1770 O1821 1.325 . S
C1771 N1772 1.279 . S
C1771 C1774 1.358 . S
C1771 H1828 0.930 . S
N1772 C1771 1.279 . S
N1772 C1775 1.314 . S
C1773 C1770 1.348 . S
C1773 C1775 1.353 . S
C1773 H1829 0.929 . S
C1774 C1770 1.356 . S
C1774 C1771 1.358 . S
C1774 H1830 0.930 . S
C1775 N1772 1.314 . S
C1775 C1773 1.353 . S
C1775 H1831 0.930 . S
C1776 N1777 1.314 . S
C1776 C1781 1.353 . S
C1776 H1782 0.930 . S
N1777 Li1760 1.990 . S
N1777 C1776 1.314 . S
N1777 C1779 1.279 . S
C1778 C1779 1.358 . S
C1778 C1780 1.356 . S
C1778 H1832 0.930 . S
C1779 N1777 1.279 . S
C1779 C1778 1.358 . S
C1779 H1783 0.930 . S
C1780 C1778 1.356 . S
C1780 C1781 1.348 . S
C1781 C1776 1.353 . S
C1781 C1780 1.348 . S
C1781 H1833 0.929 . S
H1782 C1776 0.930 . S
H1783 C1779 0.930 . S
C1784 N1785 1.314 . S
C1784 C1786 1.353 . S
C1784 H1790 0.930 . S
N1785 Li1761 1.990 . S
N1785 C1784 1.314 . S
N1785 C1788 1.279 . S
C1786 C1784 1.353 . S
C1786 C1789 1.348 . S
C1786 H1834 0.929 . S
C1787 C1788 1.358 . S
C1787 C1789 1.356 . S
C1787 H1835 0.930 . S
C1788 N1785 1.279 . S
C1788 C1787 1.358 . S
C1788 H1791 0.930 . S
C1789 C1786 1.348 . S
C1789 C1787 1.356 . S
H1790 C1784 0.930 . S
H1791 C1788 0.930 . S
C1792 C1794 1.348 . S
C1792 C1795 1.356 . S
C1792 O1822 1.325 . S
N1793 C1796 1.314 . S
N1793 C1797 1.279 . S
C1794 C1792 1.348 . S
C1794 C1796 1.353 . S
C1794 H1836 0.929 . S
C1795 C1792 1.356 . S
C1795 C1797 1.358 . S
C1795 H1837 0.930 . S
C1796 N1793 1.314 . S
C1796 C1794 1.353 . S
C1796 H1838 0.930 . S
C1797 N1793 1.279 . S
C1797 C1795 1.358 . S
C1797 H1839 0.930 . S
C1798 C1799 1.348 . S
C1798 C1800 1.356 . S
C1798 O1823 1.325 . S
C1799 C1798 1.348 . S
C1799 C1801 1.353 . S
C1799 H1840 0.929 . S
C1800 C1798 1.356 . S
C1800 C1802 1.358 . S
C1800 H1841 0.930 . S
C1801 C1799 1.353 . S
C1801 N1803 1.314 . S
C1801 H1842 0.930 . S
C1802 C1800 1.358 . S
C1802 N1803 1.279 . S
C1802 H1843 0.930 . S
N1803 C1801 1.314 . S
N1803 C1802 1.279 . S
C1804 C1806 1.353 . S
C1804 N1807 1.314 . S
C1804 H1810 0.930 . S
C1805 N1807 1.279 . S
C1805 C1808 1.358 . S
C1805 H1811 0.930 . S
C1806 C1804 1.353 . S
C1806 C1809 1.348 . S
C1806 H1844 0.929 . S
N1807 Li1762 1.990 . S
N1807 C1804 1.314 . S
N1807 C1805 1.279 . S
C1808 C1805 1.358 . S
C1808 C1809 1.356 . S
C1808 H1845 0.930 . S
C1809 C1806 1.348 . S
C1809 C1808 1.356 . S
H1810 C1804 0.930 . S
H1811 C1805 0.930 . S
C1812 N1813 1.314 . S
C1812 C1814 1.353 . S
C1812 H1818 0.930 . S
N1813 Li1763 1.990 . S
N1813 C1812 1.314 . S
N1813 C1816 1.279 . S
C1814 C1812 1.353 . S
C1814 C1817 1.348 . S
C1814 H1846 0.929 . S
C1815 C1816 1.358 . S
C1815 C1817 1.356 . S
C1815 H1847 0.930 . S
C1816 N1813 1.279 . S
C1816 C1815 1.358 . S
C1816 H1819 0.930 . S
C1817 C1814 1.348 . S
C1817 C1815 1.356 . S
H1818 C1812 0.930 . S
H1819 C1816 0.930 . S
O1820 Li1760 1.956 . S
O1820 Li1761 1.970 . S
O1820 Li1762 1.961 . S
O1820 C1764 1.325 . S
O1821 Li1760 1.970 . S
O1821 Li1761 1.956 . S
O1821 Li1763 1.961 . S
O1821 C1770 1.325 . S
O1822 Li1760 1.961 . S
O1822 Li1762 1.956 . S
O1822 Li1763 1.970 . S
O1822 C1792 1.325 . S
O1823 Li1761 1.961 . S
O1823 Li1762 1.970 . S
O1823 Li1763 1.956 . S
O1823 C1798 1.325 . S
H1824 C1766 0.929 . S
H1825 C1767 0.930 . S
H1826 C1768 0.930 . S
H1827 C1769 0.930 . S
H1828 C1771 0.930 . S
H1829 C1773 0.929 . S
H1830 C1774 0.930 . S
H1831 C1775 0.930 . S
H1832 C1778 0.930 . S
H1833 C1781 0.929 . S
H1834 C1786 0.929 . S
H1835 C1787 0.930 . S
H1836 C1794 0.929 . S
H1837 C1795 0.930 . S
H1838 C1796 0.930 . S
H1839 C1797 0.930 . S
H1840 C1799 0.929 . S
H1841 C1800 0.930 . S
H1842 C1801 0.930 . S
H1843 C1802 0.930 . S
H1844 C1806 0.929 . S
H1845 C1808 0.930 . S
H1846 C1814 0.929 . S
H1847 C1815 0.930 . S
Li1848 N1865 1.990 . S
Li1848 O1908 1.956 . S
Li1848 O1909 1.970 . S
Li1848 O1910 1.961 . S
Li1849 N1873 1.990 . S
Li1849 O1908 1.970 . S
Li1849 O1909 1.956 . S
Li1849 O1911 1.961 . S
Li1850 N1895 1.990 . S
Li1850 O1908 1.961 . S
Li1850 O1910 1.956 . S
Li1850 O1911 1.970 . S
Li1851 N1901 1.990 . S
Li1851 O1909 1.961 . S
Li1851 O1910 1.970 . S
Li1851 O1911 1.956 . S
C1852 C1854 1.348 . S
C1852 C1855 1.356 . S
C1852 O1908 1.325 . S
N1853 C1856 1.314 . S
N1853 C1857 1.279 . S
C1854 C1852 1.348 . S
C1854 C1856 1.353 . S
C1854 H1912 0.929 . S
C1855 C1852 1.356 . S
C1855 C1857 1.358 . S
C1855 H1913 0.930 . S
C1856 N1853 1.314 . S
C1856 C1854 1.353 . S
C1856 H1914 0.930 . S
C1857 N1853 1.279 . S
C1857 C1855 1.358 . S
C1857 H1915 0.930 . S
C1858 C1861 1.348 . S
C1858 C1862 1.356 . S
C1858 O1909 1.325 . S
C1859 N1860 1.279 . S
C1859 C1862 1.358 . S
C1859 H1916 0.930 . S
N1860 C1859 1.279 . S
N1860 C1863 1.314 . S
C1861 C1858 1.348 . S
C1861 C1863 1.353 . S
C1861 H1917 0.929 . S
C1862 C1858 1.356 . S
C1862 C1859 1.358 . S
C1862 H1918 0.930 . S
C1863 N1860 1.314 . S
C1863 C1861 1.353 . S
C1863 H1919 0.930 . S
C1864 N1865 1.314 . S
C1864 C1869 1.353 . S
C1864 H1870 0.930 . S
N1865 Li1848 1.990 . S
N1865 C1864 1.314 . S
N1865 C1867 1.279 . S
C1866 C1867 1.358 . S
C1866 C1868 1.356 . S
C1866 H1920 0.930 . S
C1867 N1865 1.279 . S
C1867 C1866 1.358 . S
C1867 H1871 0.930 . S
C1868 C1866 1.356 . S
C1868 C1869 1.348 . S
C1869 C1864 1.353 . S
C1869 C1868 1.348 . S
C1869 H1921 0.929 . S
H1870 C1864 0.930 . S
H1871 C1867 0.930 . S
C1872 N1873 1.314 . S
C1872 C1874 1.353 . S
C1872 H1878 0.930 . S
N1873 Li1849 1.990 . S
N1873 C1872 1.314 . S
N1873 C1876 1.279 . S
C1874 C1872 1.353 . S
C1874 C1877 1.348 . S
C1874 H1922 0.929 . S
C1875 C1876 1.358 . S
C1875 C1877 1.356 . S
C1875 H1923 0.930 . S
C1876 N1873 1.279 . S
C1876 C1875 1.358 . S
C1876 H1879 0.930 . S
C1877 C1874 1.348 . S
C1877 C1875 1.356 . S
H1878 C1872 0.930 . S
H1879 C1876 0.930 . S
C1880 C1882 1.348 . S
C1880 C1883 1.356 . S
C1880 O1910 1.325 . S
N1881 C1884 1.314 . S
N1881 C1885 1.279 . S
C1882 C1880 1.348 . S
C1882 C1884 1.353 . S
C1882 H1924 0.929 . S
C1883 C1880 1.356 . S
C1883 C1885 1.358 . S
C1883 H1925 0.930 . S
C1884 N1881 1.314 . S
C1884 C1882 1.353 . S
C1884 H1926 0.930 . S
C1885 N1881 1.279 . S
C1885 C1883 1.358 . S
C1885 H1927 0.930 . S
C1886 C1887 1.348 . S
C1886 C1888 1.356 . S
C1886 O1911 1.325 . S
C1887 C1886 1.348 . S
C1887 C1889 1.353 . S
C1887 H1928 0.929 . S
C1888 C1886 1.356 . S
C1888 C1890 1.358 . S
C1888 H1929 0.930 . S
C1889 C1887 1.353 . S
C1889 N1891 1.314 . S
C1889 H1930 0.930 . S
C1890 C1888 1.358 . S
C1890 N1891 1.279 . S
C1890 H1931 0.930 . S
N1891 C1889 1.314 . S
N1891 C1890 1.279 . S
C1892 C1894 1.353 . S
C1892 N1895 1.314 . S
C1892 H1898 0.930 . S
C1893 N1895 1.279 . S
C1893 C1896 1.358 . S
C1893 H1899 0.930 . S
C1894 C1892 1.353 . S
C1894 C1897 1.348 . S
C1894 H1932 0.929 . S
N1895 Li1850 1.990 . S
N1895 C1892 1.314 . S
N1895 C1893 1.279 . S
C1896 C1893 1.358 . S
C1896 C1897 1.356 . S
C1896 H1933 0.930 . S
C1897 C1894 1.348 . S
C1897 C1896 1.356 . S
H1898 C1892 0.930 . S
H1899 C1893 0.930 . S
C1900 N1901 1.314 . S
C1900 C1902 1.353 . S
C1900 H1906 0.930 . S
N1901 Li1851 1.990 . S
N1901 C1900 1.314 . S
N1901 C1904 1.279 . S
C1902 C1900 1.353 . S
C1902 C1905 1.348 . S
C1902 H1934 0.929 . S
C1903 C1904 1.358 . S
C1903 C1905 1.356 . S
C1903 H1935 0.930 . S
C1904 N1901 1.279 . S
C1904 C1903 1.358 . S
C1904 H1907 0.930 . S
C1905 C1902 1.348 . S
C1905 C1903 1.356 . S
H1906 C1900 0.930 . S
H1907 C1904 0.930 . S
O1908 Li1848 1.956 . S
O1908 Li1849 1.970 . S
O1908 Li1850 1.961 . S
O1908 C1852 1.325 . S
O1909 Li1848 1.970 . S
O1909 Li1849 1.956 . S
O1909 Li1851 1.961 . S
O1909 C1858 1.325 . S
O1910 Li1848 1.961 . S
O1910 Li1850 1.956 . S
O1910 Li1851 1.970 . S
O1910 C1880 1.325 . S
O1911 Li1849 1.961 . S
O1911 Li1850 1.970 . S
O1911 Li1851 1.956 . S
O1911 C1886 1.325 . S
H1912 C1854 0.929 . S
H1913 C1855 0.930 . S
H1914 C1856 0.930 . S
H1915 C1857 0.930 . S
H1916 C1859 0.930 . S
H1917 C1861 0.929 . S
H1918 C1862 0.930 . S
H1919 C1863 0.930 . S
H1920 C1866 0.930 . S
H1921 C1869 0.929 . S
H1922 C1874 0.929 . S
H1923 C1875 0.930 . S
H1924 C1882 0.929 . S
H1925 C1883 0.930 . S
H1926 C1884 0.930 . S
H1927 C1885 0.930 . S
H1928 C1887 0.929 . S
H1929 C1888 0.930 . S
H1930 C1889 0.930 . S
H1931 C1890 0.930 . S
H1932 C1894 0.929 . S
H1933 C1896 0.930 . S
H1934 C1902 0.929 . S
H1935 C1903 0.930 . S
Li1936 N1953 1.990 . S
Li1936 O1996 1.956 . S
Li1936 O1997 1.970 . S
Li1936 O1998 1.961 . S
Li1937 N1961 1.990 . S
Li1937 O1996 1.970 . S
Li1937 O1997 1.956 . S
Li1937 O1999 1.961 . S
Li1938 N1983 1.990 . S
Li1938 O1996 1.961 . S
Li1938 O1998 1.956 . S
Li1938 O1999 1.970 . S
Li1939 N1989 1.990 . S
Li1939 O1997 1.961 . S
Li1939 O1998 1.970 . S
Li1939 O1999 1.956 . S
C1940 C1942 1.348 . S
C1940 C1943 1.356 . S
C1940 O1996 1.325 . S
N1941 C1944 1.314 . S
N1941 C1945 1.279 . S
C1942 C1940 1.348 . S
C1942 C1944 1.353 . S
C1942 H2000 0.929 . S
C1943 C1940 1.356 . S
C1943 C1945 1.358 . S
C1943 H2001 0.930 . S
C1944 N1941 1.314 . S
C1944 C1942 1.353 . S
C1944 H2002 0.930 . S
C1945 N1941 1.279 . S
C1945 C1943 1.358 . S
C1945 H2003 0.930 . S
C1946 C1949 1.348 . S
C1946 C1950 1.356 . S
C1946 O1997 1.325 . S
C1947 N1948 1.279 . S
C1947 C1950 1.358 . S
C1947 H2004 0.930 . S
N1948 C1947 1.279 . S
N1948 C1951 1.314 . S
C1949 C1946 1.348 . S
C1949 C1951 1.353 . S
C1949 H2005 0.929 . S
C1950 C1946 1.356 . S
C1950 C1947 1.358 . S
C1950 H2006 0.930 . S
C1951 N1948 1.314 . S
C1951 C1949 1.353 . S
C1951 H2007 0.930 . S
C1952 N1953 1.314 . S
C1952 C1957 1.353 . S
C1952 H1958 0.930 . S
N1953 Li1936 1.990 . S
N1953 C1952 1.314 . S
N1953 C1955 1.279 . S
C1954 C1955 1.358 . S
C1954 C1956 1.356 . S
C1954 H2008 0.930 . S
C1955 N1953 1.279 . S
C1955 C1954 1.358 . S
C1955 H1959 0.930 . S
C1956 C1954 1.356 . S
C1956 C1957 1.348 . S
C1957 C1952 1.353 . S
C1957 C1956 1.348 . S
C1957 H2009 0.929 . S
H1958 C1952 0.930 . S
H1959 C1955 0.930 . S
C1960 N1961 1.314 . S
C1960 C1962 1.353 . S
C1960 H1966 0.930 . S
N1961 Li1937 1.990 . S
N1961 C1960 1.314 . S
N1961 C1964 1.279 . S
C1962 C1960 1.353 . S
C1962 C1965 1.348 . S
C1962 H2010 0.929 . S
C1963 C1964 1.358 . S
C1963 C1965 1.356 . S
C1963 H2011 0.930 . S
C1964 N1961 1.279 . S
C1964 C1963 1.358 . S
C1964 H1967 0.930 . S
C1965 C1962 1.348 . S
C1965 C1963 1.356 . S
H1966 C1960 0.930 . S
H1967 C1964 0.930 . S
C1968 C1970 1.348 . S
C1968 C1971 1.356 . S
C1968 O1998 1.325 . S
N1969 C1972 1.314 . S
N1969 C1973 1.279 . S
C1970 C1968 1.348 . S
C1970 C1972 1.353 . S
C1970 H2012 0.929 . S
C1971 C1968 1.356 . S
C1971 C1973 1.358 . S
C1971 H2013 0.930 . S
C1972 N1969 1.314 . S
C1972 C1970 1.353 . S
C1972 H2014 0.930 . S
C1973 N1969 1.279 . S
C1973 C1971 1.358 . S
C1973 H2015 0.930 . S
C1974 C1975 1.348 . S
C1974 C1976 1.356 . S
C1974 O1999 1.325 . S
C1975 C1974 1.348 . S
C1975 C1977 1.353 . S
C1975 H2016 0.929 . S
C1976 C1974 1.356 . S
C1976 C1978 1.358 . S
C1976 H2017 0.930 . S
C1977 C1975 1.353 . S
C1977 N1979 1.314 . S
C1977 H2018 0.930 . S
C1978 C1976 1.358 . S
C1978 N1979 1.279 . S
C1978 H2019 0.930 . S
N1979 C1977 1.314 . S
N1979 C1978 1.279 . S
C1980 C1982 1.353 . S
C1980 N1983 1.314 . S
C1980 H1986 0.930 . S
C1981 N1983 1.279 . S
C1981 C1984 1.358 . S
C1981 H1987 0.930 . S
C1982 C1980 1.353 . S
C1982 C1985 1.348 . S
C1982 H2020 0.929 . S
N1983 Li1938 1.990 . S
N1983 C1980 1.314 . S
N1983 C1981 1.279 . S
C1984 C1981 1.358 . S
C1984 C1985 1.356 . S
C1984 H2021 0.930 . S
C1985 C1982 1.348 . S
C1985 C1984 1.356 . S
H1986 C1980 0.930 . S
H1987 C1981 0.930 . S
C1988 N1989 1.314 . S
C1988 C1990 1.353 . S
C1988 H1994 0.930 . S
N1989 Li1939 1.990 . S
N1989 C1988 1.314 . S
N1989 C1992 1.279 . S
C1990 C1988 1.353 . S
C1990 C1993 1.348 . S
C1990 H2022 0.929 . S
C1991 C1992 1.358 . S
C1991 C1993 1.356 . S
C1991 H2023 0.930 . S
C1992 N1989 1.279 . S
C1992 C1991 1.358 . S
C1992 H1995 0.930 . S
C1993 C1990 1.348 . S
C1993 C1991 1.356 . S
H1994 C1988 0.930 . S
H1995 C1992 0.930 . S
O1996 Li1936 1.956 . S
O1996 Li1937 1.970 . S
O1996 Li1938 1.961 . S
O1996 C1940 1.325 . S
O1997 Li1936 1.970 . S
O1997 Li1937 1.956 . S
O1997 Li1939 1.961 . S
O1997 C1946 1.325 . S
O1998 Li1936 1.961 . S
O1998 Li1938 1.956 . S
O1998 Li1939 1.970 . S
O1998 C1968 1.325 . S
O1999 Li1937 1.961 . S
O1999 Li1938 1.970 . S
O1999 Li1939 1.956 . S
O1999 C1974 1.325 . S
H2000 C1942 0.929 . S
H2001 C1943 0.930 . S
H2002 C1944 0.930 . S
H2003 C1945 0.930 . S
H2004 C1947 0.930 . S
H2005 C1949 0.929 . S
H2006 C1950 0.930 . S
H2007 C1951 0.930 . S
H2008 C1954 0.930 . S
H2009 C1957 0.929 . S
H2010 C1962 0.929 . S
H2011 C1963 0.930 . S
H2012 C1970 0.929 . S
H2013 C1971 0.930 . S
H2014 C1972 0.930 . S
H2015 C1973 0.930 . S
H2016 C1975 0.929 . S
H2017 C1976 0.930 . S
H2018 C1977 0.930 . S
H2019 C1978 0.930 . S
H2020 C1982 0.929 . S
H2021 C1984 0.930 . S
H2022 C1990 0.929 . S
H2023 C1991 0.930 . S
Li2024 N2041 1.990 . S
Li2024 O2084 1.956 . S
Li2024 O2085 1.970 . S
Li2024 O2086 1.961 . S
Li2025 N2049 1.990 . S
Li2025 O2084 1.970 . S
Li2025 O2085 1.956 . S
Li2025 O2087 1.961 . S
Li2026 N2071 1.990 . S
Li2026 O2084 1.961 . S
Li2026 O2086 1.956 . S
Li2026 O2087 1.970 . S
Li2027 N2077 1.990 . S
Li2027 O2085 1.961 . S
Li2027 O2086 1.970 . S
Li2027 O2087 1.956 . S
C2028 C2030 1.348 . S
C2028 C2031 1.356 . S
C2028 O2084 1.325 . S
N2029 C2032 1.314 . S
N2029 C2033 1.279 . S
C2030 C2028 1.348 . S
C2030 C2032 1.353 . S
C2030 H2088 0.929 . S
C2031 C2028 1.356 . S
C2031 C2033 1.358 . S
C2031 H2089 0.930 . S
C2032 N2029 1.314 . S
C2032 C2030 1.353 . S
C2032 H2090 0.930 . S
C2033 N2029 1.279 . S
C2033 C2031 1.358 . S
C2033 H2091 0.930 . S
C2034 C2037 1.348 . S
C2034 C2038 1.356 . S
C2034 O2085 1.325 . S
C2035 N2036 1.279 . S
C2035 C2038 1.358 . S
C2035 H2092 0.930 . S
N2036 C2035 1.279 . S
N2036 C2039 1.314 . S
C2037 C2034 1.348 . S
C2037 C2039 1.353 . S
C2037 H2093 0.929 . S
C2038 C2034 1.356 . S
C2038 C2035 1.358 . S
C2038 H2094 0.930 . S
C2039 N2036 1.314 . S
C2039 C2037 1.353 . S
C2039 H2095 0.930 . S
C2040 N2041 1.314 . S
C2040 C2045 1.353 . S
C2040 H2046 0.930 . S
N2041 Li2024 1.990 . S
N2041 C2040 1.314 . S
N2041 C2043 1.279 . S
C2042 C2043 1.358 . S
C2042 C2044 1.356 . S
C2042 H2096 0.930 . S
C2043 N2041 1.279 . S
C2043 C2042 1.358 . S
C2043 H2047 0.930 . S
C2044 C2042 1.356 . S
C2044 C2045 1.348 . S
C2045 C2040 1.353 . S
C2045 C2044 1.348 . S
C2045 H2097 0.929 . S
H2046 C2040 0.930 . S
H2047 C2043 0.930 . S
C2048 N2049 1.314 . S
C2048 C2050 1.353 . S
C2048 H2054 0.930 . S
N2049 Li2025 1.990 . S
N2049 C2048 1.314 . S
N2049 C2052 1.279 . S
C2050 C2048 1.353 . S
C2050 C2053 1.348 . S
C2050 H2098 0.929 . S
C2051 C2052 1.358 . S
C2051 C2053 1.356 . S
C2051 H2099 0.930 . S
C2052 N2049 1.279 . S
C2052 C2051 1.358 . S
C2052 H2055 0.930 . S
C2053 C2050 1.348 . S
C2053 C2051 1.356 . S
H2054 C2048 0.930 . S
H2055 C2052 0.930 . S
C2056 C2058 1.348 . S
C2056 C2059 1.356 . S
C2056 O2086 1.325 . S
N2057 C2060 1.314 . S
N2057 C2061 1.279 . S
C2058 C2056 1.348 . S
C2058 C2060 1.353 . S
C2058 H2100 0.929 . S
C2059 C2056 1.356 . S
C2059 C2061 1.358 . S
C2059 H2101 0.930 . S
C2060 N2057 1.314 . S
C2060 C2058 1.353 . S
C2060 H2102 0.930 . S
C2061 N2057 1.279 . S
C2061 C2059 1.358 . S
C2061 H2103 0.930 . S
C2062 C2063 1.348 . S
C2062 C2064 1.356 . S
C2062 O2087 1.325 . S
C2063 C2062 1.348 . S
C2063 C2065 1.353 . S
C2063 H2104 0.929 . S
C2064 C2062 1.356 . S
C2064 C2066 1.358 . S
C2064 H2105 0.930 . S
C2065 C2063 1.353 . S
C2065 N2067 1.314 . S
C2065 H2106 0.930 . S
C2066 C2064 1.358 . S
C2066 N2067 1.279 . S
C2066 H2107 0.930 . S
N2067 C2065 1.314 . S
N2067 C2066 1.279 . S
C2068 C2070 1.353 . S
C2068 N2071 1.314 . S
C2068 H2074 0.930 . S
C2069 N2071 1.279 . S
C2069 C2072 1.358 . S
C2069 H2075 0.930 . S
C2070 C2068 1.353 . S
C2070 C2073 1.348 . S
C2070 H2108 0.929 . S
N2071 Li2026 1.990 . S
N2071 C2068 1.314 . S
N2071 C2069 1.279 . S
C2072 C2069 1.358 . S
C2072 C2073 1.356 . S
C2072 H2109 0.930 . S
C2073 C2070 1.348 . S
C2073 C2072 1.356 . S
H2074 C2068 0.930 . S
H2075 C2069 0.930 . S
C2076 N2077 1.314 . S
C2076 C2078 1.353 . S
C2076 H2082 0.930 . S
N2077 Li2027 1.990 . S
N2077 C2076 1.314 . S
N2077 C2080 1.279 . S
C2078 C2076 1.353 . S
C2078 C2081 1.348 . S
C2078 H2110 0.929 . S
C2079 C2080 1.358 . S
C2079 C2081 1.356 . S
C2079 H2111 0.930 . S
C2080 N2077 1.279 . S
C2080 C2079 1.358 . S
C2080 H2083 0.930 . S
C2081 C2078 1.348 . S
C2081 C2079 1.356 . S
H2082 C2076 0.930 . S
H2083 C2080 0.930 . S
O2084 Li2024 1.956 . S
O2084 Li2025 1.970 . S
O2084 Li2026 1.961 . S
O2084 C2028 1.325 . S
O2085 Li2024 1.970 . S
O2085 Li2025 1.956 . S
O2085 Li2027 1.961 . S
O2085 C2034 1.325 . S
O2086 Li2024 1.961 . S
O2086 Li2026 1.956 . S
O2086 Li2027 1.970 . S
O2086 C2056 1.325 . S
O2087 Li2025 1.961 . S
O2087 Li2026 1.970 . S
O2087 Li2027 1.956 . S
O2087 C2062 1.325 . S
H2088 C2030 0.929 . S
H2089 C2031 0.930 . S
H2090 C2032 0.930 . S
H2091 C2033 0.930 . S
H2092 C2035 0.930 . S
H2093 C2037 0.929 . S
H2094 C2038 0.930 . S
H2095 C2039 0.930 . S
H2096 C2042 0.930 . S
H2097 C2045 0.929 . S
H2098 C2050 0.929 . S
H2099 C2051 0.930 . S
H2100 C2058 0.929 . S
H2101 C2059 0.930 . S
H2102 C2060 0.930 . S
H2103 C2061 0.930 . S
H2104 C2063 0.929 . S
H2105 C2064 0.930 . S
H2106 C2065 0.930 . S
H2107 C2066 0.930 . S
H2108 C2070 0.929 . S
H2109 C2072 0.930 . S
H2110 C2078 0.929 . S
H2111 C2079 0.930 . S
C2112 C2113 1.349 . S
C2112 C2114 1.327 . S
C2112 H2137 0.950 . S
C2113 C2112 1.349 . S
C2113 C2129 1.349 . S
C2114 C2112 1.327 . S
C2114 C2133 1.429 . S
C2114 H2138 0.950 . S
C2115 C2132 1.574 . S
C2115 C2134 1.368 . S
C2115 H2139 0.949 . S
H2116 C2120 0.949 . S
C2117 C2118 1.349 . S
C2117 C2119 1.327 . S
C2117 H2140 0.950 . S
C2118 C2117 1.349 . S
C2118 C2130 1.349 . S
C2119 C2117 1.327 . S
C2119 C2135 1.429 . S
C2119 H2141 0.950 . S
C2120 H2116 0.949 . S
C2120 C2128 1.574 . S
C2120 C2136 1.368 . S
H2121 C2129 0.950 . S
H2122 C2127 0.950 . S
H2123 C2128 0.949 . S
H2124 C2130 0.950 . S
H2125 C2131 0.950 . S
H2126 C2132 0.949 . S
C2127 H2122 0.950 . S
C2127 C2129 1.327 . S
C2127 C2133 1.429 . S
C2128 C2120 1.574 . S
C2128 H2123 0.949 . S
C2128 C2134 1.368 . S
C2129 C2113 1.349 . S
C2129 H2121 0.950 . S
C2129 C2127 1.327 . S
C2130 C2118 1.349 . S
C2130 H2124 0.950 . S
C2130 C2131 1.327 . S
C2131 H2125 0.950 . S
C2131 C2130 1.327 . S
C2131 C2135 1.429 . S
C2132 C2115 1.574 . S
C2132 H2126 0.949 . S
C2132 C2136 1.368 . S
C2133 C2114 1.429 . S
C2133 C2127 1.429 . S
C2133 C2134 1.523 . S
C2134 C2115 1.368 . S
C2134 C2128 1.368 . S
C2134 C2133 1.523 . S
C2135 C2119 1.429 . S
C2135 C2131 1.429 . S
C2135 C2136 1.523 . S
C2136 C2120 1.368 . S
C2136 C2132 1.368 . S
C2136 C2135 1.523 . S
H2137 C2112 0.950 . S
H2138 C2114 0.950 . S
H2139 C2115 0.949 . S
H2140 C2117 0.950 . S
H2141 C2119 0.950 . S
C2142 C2143 1.349 . S
C2142 C2144 1.327 . S
C2142 H2167 0.950 . S
C2143 C2142 1.349 . S
C2143 C2159 1.349 . S
C2144 C2142 1.327 . S
C2144 C2163 1.429 . S
C2144 H2168 0.950 . S
C2145 C2162 1.574 . S
C2145 C2164 1.368 . S
C2145 H2169 0.949 . S
H2146 C2150 0.949 . S
C2147 C2148 1.349 . S
C2147 C2149 1.327 . S
C2147 H2170 0.950 . S
C2148 C2147 1.349 . S
C2148 C2160 1.349 . S
C2149 C2147 1.327 . S
C2149 C2165 1.429 . S
C2149 H2171 0.950 . S
C2150 H2146 0.949 . S
C2150 C2158 1.574 . S
C2150 C2166 1.368 . S
H2151 C2159 0.950 . S
H2152 C2157 0.950 . S
H2153 C2158 0.949 . S
H2154 C2160 0.950 . S
H2155 C2161 0.950 . S
H2156 C2162 0.949 . S
C2157 H2152 0.950 . S
C2157 C2159 1.327 . S
C2157 C2163 1.429 . S
C2158 C2150 1.574 . S
C2158 H2153 0.949 . S
C2158 C2164 1.368 . S
C2159 C2143 1.349 . S
C2159 H2151 0.950 . S
C2159 C2157 1.327 . S
C2160 C2148 1.349 . S
C2160 H2154 0.950 . S
C2160 C2161 1.327 . S
C2161 H2155 0.950 . S
C2161 C2160 1.327 . S
C2161 C2165 1.429 . S
C2162 C2145 1.574 . S
C2162 H2156 0.949 . S
C2162 C2166 1.368 . S
C2163 C2144 1.429 . S
C2163 C2157 1.429 . S
C2163 C2164 1.523 . S
C2164 C2145 1.368 . S
C2164 C2158 1.368 . S
C2164 C2163 1.523 . S
C2165 C2149 1.429 . S
C2165 C2161 1.429 . S
C2165 C2166 1.523 . S
C2166 C2150 1.368 . S
C2166 C2162 1.368 . S
C2166 C2165 1.523 . S
H2167 C2142 0.950 . S
H2168 C2144 0.950 . S
H2169 C2145 0.949 . S
H2170 C2147 0.950 . S
H2171 C2149 0.950 . S
C2172 C2173 1.349 . S
C2172 C2174 1.327 . S
C2172 H2197 0.950 . S
C2173 C2172 1.349 . S
C2173 C2189 1.349 . S
C2174 C2172 1.327 . S
C2174 C2193 1.429 . S
C2174 H2198 0.950 . S
C2175 C2192 1.574 . S
C2175 C2194 1.368 . S
C2175 H2199 0.949 . S
H2176 C2180 0.949 . S
C2177 C2178 1.349 . S
C2177 C2179 1.327 . S
C2177 H2200 0.950 . S
C2178 C2177 1.349 . S
C2178 C2190 1.349 . S
C2179 C2177 1.327 . S
C2179 C2195 1.429 . S
C2179 H2201 0.950 . S
C2180 H2176 0.949 . S
C2180 C2188 1.574 . S
C2180 C2196 1.368 . S
H2181 C2189 0.950 . S
H2182 C2187 0.950 . S
H2183 C2188 0.949 . S
H2184 C2190 0.950 . S
H2185 C2191 0.950 . S
H2186 C2192 0.949 . S
C2187 H2182 0.950 . S
C2187 C2189 1.327 . S
C2187 C2193 1.429 . S
C2188 C2180 1.574 . S
C2188 H2183 0.949 . S
C2188 C2194 1.368 . S
C2189 C2173 1.349 . S
C2189 H2181 0.950 . S
C2189 C2187 1.327 . S
C2190 C2178 1.349 . S
C2190 H2184 0.950 . S
C2190 C2191 1.327 . S
C2191 H2185 0.950 . S
C2191 C2190 1.327 . S
C2191 C2195 1.429 . S
C2192 C2175 1.574 . S
C2192 H2186 0.949 . S
C2192 C2196 1.368 . S
C2193 C2174 1.429 . S
C2193 C2187 1.429 . S
C2193 C2194 1.523 . S
C2194 C2175 1.368 . S
C2194 C2188 1.368 . S
C2194 C2193 1.523 . S
C2195 C2179 1.429 . S
C2195 C2191 1.429 . S
C2195 C2196 1.523 . S
C2196 C2180 1.368 . S
C2196 C2192 1.368 . S
C2196 C2195 1.523 . S
H2197 C2172 0.950 . S
H2198 C2174 0.950 . S
H2199 C2175 0.949 . S
H2200 C2177 0.950 . S
H2201 C2179 0.950 . S
C2202 C2203 1.349 . S
C2202 C2204 1.327 . S
C2202 H2227 0.950 . S
C2203 C2202 1.349 . S
C2203 C2219 1.349 . S
C2204 C2202 1.327 . S
C2204 C2223 1.429 . S
C2204 H2228 0.950 . S
C2205 C2222 1.574 . S
C2205 C2224 1.368 . S
C2205 H2229 0.949 . S
H2206 C2210 0.949 . S
C2207 C2208 1.349 . S
C2207 C2209 1.327 . S
C2207 H2230 0.950 . S
C2208 C2207 1.349 . S
C2208 C2220 1.349 . S
C2209 C2207 1.327 . S
C2209 C2225 1.429 . S
C2209 H2231 0.950 . S
C2210 H2206 0.949 . S
C2210 C2218 1.574 . S
C2210 C2226 1.368 . S
H2211 C2219 0.950 . S
H2212 C2217 0.950 . S
H2213 C2218 0.949 . S
H2214 C2220 0.950 . S
H2215 C2221 0.950 . S
H2216 C2222 0.949 . S
C2217 H2212 0.950 . S
C2217 C2219 1.327 . S
C2217 C2223 1.429 . S
C2218 C2210 1.574 . S
C2218 H2213 0.949 . S
C2218 C2224 1.368 . S
C2219 C2203 1.349 . S
C2219 H2211 0.950 . S
C2219 C2217 1.327 . S
C2220 C2208 1.349 . S
C2220 H2214 0.950 . S
C2220 C2221 1.327 . S
C2221 H2215 0.950 . S
C2221 C2220 1.327 . S
C2221 C2225 1.429 . S
C2222 C2205 1.574 . S
C2222 H2216 0.949 . S
C2222 C2226 1.368 . S
C2223 C2204 1.429 . S
C2223 C2217 1.429 . S
C2223 C2224 1.523 . S
C2224 C2205 1.368 . S
C2224 C2218 1.368 . S
C2224 C2223 1.523 . S
C2225 C2209 1.429 . S
C2225 C2221 1.429 . S
C2225 C2226 1.523 . S
C2226 C2210 1.368 . S
C2226 C2222 1.368 . S
C2226 C2225 1.523 . S
H2227 C2202 0.950 . S
H2228 C2204 0.950 . S
H2229 C2205 0.949 . S
H2230 C2207 0.950 . S
H2231 C2209 0.950 . S
C2232 C2233 1.349 . S
C2232 C2234 1.327 . S
C2232 H2257 0.950 . S
C2233 C2232 1.349 . S
C2233 C2249 1.349 . S
C2234 C2232 1.327 . S
C2234 C2253 1.429 . S
C2234 H2258 0.950 . S
C2235 C2252 1.574 . S
C2235 C2254 1.368 . S
C2235 H2259 0.949 . S
H2236 C2240 0.949 . S
C2237 C2238 1.349 . S
C2237 C2239 1.327 . S
C2237 H2260 0.950 . S
C2238 C2237 1.349 . S
C2238 C2250 1.349 . S
C2239 C2237 1.327 . S
C2239 C2255 1.429 . S
C2239 H2261 0.950 . S
C2240 H2236 0.949 . S
C2240 C2248 1.574 . S
C2240 C2256 1.368 . S
H2241 C2249 0.950 . S
H2242 C2247 0.950 . S
H2243 C2248 0.949 . S
H2244 C2250 0.950 . S
H2245 C2251 0.950 . S
H2246 C2252 0.949 . S
C2247 H2242 0.950 . S
C2247 C2249 1.327 . S
C2247 C2253 1.429 . S
C2248 C2240 1.574 . S
C2248 H2243 0.949 . S
C2248 C2254 1.368 . S
C2249 C2233 1.349 . S
C2249 H2241 0.950 . S
C2249 C2247 1.327 . S
C2250 C2238 1.349 . S
C2250 H2244 0.950 . S
C2250 C2251 1.327 . S
C2251 H2245 0.950 . S
C2251 C2250 1.327 . S
C2251 C2255 1.429 . S
C2252 C2235 1.574 . S
C2252 H2246 0.949 . S
C2252 C2256 1.368 . S
C2253 C2234 1.429 . S
C2253 C2247 1.429 . S
C2253 C2254 1.523 . S
C2254 C2235 1.368 . S
C2254 C2248 1.368 . S
C2254 C2253 1.523 . S
C2255 C2239 1.429 . S
C2255 C2251 1.429 . S
C2255 C2256 1.523 . S
C2256 C2240 1.368 . S
C2256 C2252 1.368 . S
C2256 C2255 1.523 . S
H2257 C2232 0.950 . S
H2258 C2234 0.950 . S
H2259 C2235 0.949 . S
H2260 C2237 0.950 . S
H2261 C2239 0.950 . S
C2262 C2263 1.349 . S
C2262 C2264 1.327 . S
C2262 H2287 0.950 . S
C2263 C2262 1.349 . S
C2263 C2279 1.349 . S
C2264 C2262 1.327 . S
C2264 C2283 1.429 . S
C2264 H2288 0.950 . S
C2265 C2282 1.574 . S
C2265 C2284 1.368 . S
C2265 H2289 0.949 . S
H2266 C2270 0.949 . S
C2267 C2268 1.349 . S
C2267 C2269 1.327 . S
C2267 H2290 0.950 . S
C2268 C2267 1.349 . S
C2268 C2280 1.349 . S
C2269 C2267 1.327 . S
C2269 C2285 1.429 . S
C2269 H2291 0.950 . S
C2270 H2266 0.949 . S
C2270 C2278 1.574 . S
C2270 C2286 1.368 . S
H2271 C2279 0.950 . S
H2272 C2277 0.950 . S
H2273 C2278 0.949 . S
H2274 C2280 0.950 . S
H2275 C2281 0.950 . S
H2276 C2282 0.949 . S
C2277 H2272 0.950 . S
C2277 C2279 1.327 . S
C2277 C2283 1.429 . S
C2278 C2270 1.574 . S
C2278 H2273 0.949 . S
C2278 C2284 1.368 . S
C2279 C2263 1.349 . S
C2279 H2271 0.950 . S
C2279 C2277 1.327 . S
C2280 C2268 1.349 . S
C2280 H2274 0.950 . S
C2280 C2281 1.327 . S
C2281 H2275 0.950 . S
C2281 C2280 1.327 . S
C2281 C2285 1.429 . S
C2282 C2265 1.574 . S
C2282 H2276 0.949 . S
C2282 C2286 1.368 . S
C2283 C2264 1.429 . S
C2283 C2277 1.429 . S
C2283 C2284 1.523 . S
C2284 C2265 1.368 . S
C2284 C2278 1.368 . S
C2284 C2283 1.523 . S
C2285 C2269 1.429 . S
C2285 C2281 1.429 . S
C2285 C2286 1.523 . S
C2286 C2270 1.368 . S
C2286 C2282 1.368 . S
C2286 C2285 1.523 . S
H2287 C2262 0.950 . S
H2288 C2264 0.950 . S
H2289 C2265 0.949 . S
H2290 C2267 0.950 . S
H2291 C2269 0.950 . S
C2292 C2293 1.349 . S
C2292 C2294 1.327 . S
C2292 H2317 0.950 . S
C2293 C2292 1.349 . S
C2293 C2309 1.349 . S
C2294 C2292 1.327 . S
C2294 C2313 1.429 . S
C2294 H2318 0.950 . S
C2295 C2312 1.574 . S
C2295 C2314 1.368 . S
C2295 H2319 0.949 . S
H2296 C2300 0.949 . S
C2297 C2298 1.349 . S
C2297 C2299 1.327 . S
C2297 H2320 0.950 . S
C2298 C2297 1.349 . S
C2298 C2310 1.349 . S
C2299 C2297 1.327 . S
C2299 C2315 1.429 . S
C2299 H2321 0.950 . S
C2300 H2296 0.949 . S
C2300 C2308 1.574 . S
C2300 C2316 1.368 . S
H2301 C2309 0.950 . S
H2302 C2307 0.950 . S
H2303 C2308 0.949 . S
H2304 C2310 0.950 . S
H2305 C2311 0.950 . S
H2306 C2312 0.949 . S
C2307 H2302 0.950 . S
C2307 C2309 1.327 . S
C2307 C2313 1.429 . S
C2308 C2300 1.574 . S
C2308 H2303 0.949 . S
C2308 C2314 1.368 . S
C2309 C2293 1.349 . S
C2309 H2301 0.950 . S
C2309 C2307 1.327 . S
C2310 C2298 1.349 . S
C2310 H2304 0.950 . S
C2310 C2311 1.327 . S
C2311 H2305 0.950 . S
C2311 C2310 1.327 . S
C2311 C2315 1.429 . S
C2312 C2295 1.574 . S
C2312 H2306 0.949 . S
C2312 C2316 1.368 . S
C2313 C2294 1.429 . S
C2313 C2307 1.429 . S
C2313 C2314 1.523 . S
C2314 C2295 1.368 . S
C2314 C2308 1.368 . S
C2314 C2313 1.523 . S
C2315 C2299 1.429 . S
C2315 C2311 1.429 . S
C2315 C2316 1.523 . S
C2316 C2300 1.368 . S
C2316 C2312 1.368 . S
C2316 C2315 1.523 . S
H2317 C2292 0.950 . S
H2318 C2294 0.950 . S
H2319 C2295 0.949 . S
H2320 C2297 0.950 . S
H2321 C2299 0.950 . S
C2322 C2323 1.349 . S
C2322 C2324 1.327 . S
C2322 H2347 0.950 . S
C2323 C2322 1.349 . S
C2323 C2339 1.349 . S
C2324 C2322 1.327 . S
C2324 C2343 1.429 . S
C2324 H2348 0.950 . S
C2325 C2342 1.574 . S
C2325 C2344 1.368 . S
C2325 H2349 0.949 . S
H2326 C2330 0.949 . S
C2327 C2328 1.349 . S
C2327 C2329 1.327 . S
C2327 H2350 0.950 . S
C2328 C2327 1.349 . S
C2328 C2340 1.349 . S
C2329 C2327 1.327 . S
C2329 C2345 1.429 . S
C2329 H2351 0.950 . S
C2330 H2326 0.949 . S
C2330 C2338 1.574 . S
C2330 C2346 1.368 . S
H2331 C2339 0.950 . S
H2332 C2337 0.950 . S
H2333 C2338 0.949 . S
H2334 C2340 0.950 . S
H2335 C2341 0.950 . S
H2336 C2342 0.949 . S
C2337 H2332 0.950 . S
C2337 C2339 1.327 . S
C2337 C2343 1.429 . S
C2338 C2330 1.574 . S
C2338 H2333 0.949 . S
C2338 C2344 1.368 . S
C2339 C2323 1.349 . S
C2339 H2331 0.950 . S
C2339 C2337 1.327 . S
C2340 C2328 1.349 . S
C2340 H2334 0.950 . S
C2340 C2341 1.327 . S
C2341 H2335 0.950 . S
C2341 C2340 1.327 . S
C2341 C2345 1.429 . S
C2342 C2325 1.574 . S
C2342 H2336 0.949 . S
C2342 C2346 1.368 . S
C2343 C2324 1.429 . S
C2343 C2337 1.429 . S
C2343 C2344 1.523 . S
C2344 C2325 1.368 . S
C2344 C2338 1.368 . S
C2344 C2343 1.523 . S
C2345 C2329 1.429 . S
C2345 C2341 1.429 . S
C2345 C2346 1.523 . S
C2346 C2330 1.368 . S
C2346 C2342 1.368 . S
C2346 C2345 1.523 . S
H2347 C2322 0.950 . S
H2348 C2324 0.950 . S
H2349 C2325 0.949 . S
H2350 C2327 0.950 . S
H2351 C2329 0.950 . S
C2352 C2353 1.349 . S
C2352 C2354 1.327 . S
C2352 H2377 0.950 . S
C2353 C2352 1.349 . S
C2353 C2369 1.349 . S
C2354 C2352 1.327 . S
C2354 C2373 1.429 . S
C2354 H2378 0.950 . S
C2355 C2372 1.574 . S
C2355 C2374 1.368 . S
C2355 H2379 0.949 . S
H2356 C2360 0.949 . S
C2357 C2358 1.349 . S
C2357 C2359 1.327 . S
C2357 H2380 0.950 . S
C2358 C2357 1.349 . S
C2358 C2370 1.349 . S
C2359 C2357 1.327 . S
C2359 C2375 1.429 . S
C2359 H2381 0.950 . S
C2360 H2356 0.949 . S
C2360 C2368 1.574 . S
C2360 C2376 1.368 . S
H2361 C2369 0.950 . S
H2362 C2367 0.950 . S
H2363 C2368 0.949 . S
H2364 C2370 0.950 . S
H2365 C2371 0.950 . S
H2366 C2372 0.949 . S
C2367 H2362 0.950 . S
C2367 C2369 1.327 . S
C2367 C2373 1.429 . S
C2368 C2360 1.574 . S
C2368 H2363 0.949 . S
C2368 C2374 1.368 . S
C2369 C2353 1.349 . S
C2369 H2361 0.950 . S
C2369 C2367 1.327 . S
C2370 C2358 1.349 . S
C2370 H2364 0.950 . S
C2370 C2371 1.327 . S
C2371 H2365 0.950 . S
C2371 C2370 1.327 . S
C2371 C2375 1.429 . S
C2372 C2355 1.574 . S
C2372 H2366 0.949 . S
C2372 C2376 1.368 . S
C2373 C2354 1.429 . S
C2373 C2367 1.429 . S
C2373 C2374 1.523 . S
C2374 C2355 1.368 . S
C2374 C2368 1.368 . S
C2374 C2373 1.523 . S
C2375 C2359 1.429 . S
C2375 C2371 1.429 . S
C2375 C2376 1.523 . S
C2376 C2360 1.368 . S
C2376 C2372 1.368 . S
C2376 C2375 1.523 . S
H2377 C2352 0.950 . S
H2378 C2354 0.950 . S
H2379 C2355 0.949 . S
H2380 C2357 0.950 . S
H2381 C2359 0.950 . S
C2382 C2383 1.349 . S
C2382 C2384 1.327 . S
C2382 H2407 0.950 . S
C2383 C2382 1.349 . S
C2383 C2399 1.349 . S
C2384 C2382 1.327 . S
C2384 C2403 1.429 . S
C2384 H2408 0.950 . S
C2385 C2402 1.574 . S
C2385 C2404 1.368 . S
C2385 H2409 0.949 . S
H2386 C2390 0.949 . S
C2387 C2388 1.349 . S
C2387 C2389 1.327 . S
C2387 H2410 0.950 . S
C2388 C2387 1.349 . S
C2388 C2400 1.349 . S
C2389 C2387 1.327 . S
C2389 C2405 1.429 . S
C2389 H2411 0.950 . S
C2390 H2386 0.949 . S
C2390 C2398 1.574 . S
C2390 C2406 1.368 . S
H2391 C2399 0.950 . S
H2392 C2397 0.950 . S
H2393 C2398 0.949 . S
H2394 C2400 0.950 . S
H2395 C2401 0.950 . S
H2396 C2402 0.949 . S
C2397 H2392 0.950 . S
C2397 C2399 1.327 . S
C2397 C2403 1.429 . S
C2398 C2390 1.574 . S
C2398 H2393 0.949 . S
C2398 C2404 1.368 . S
C2399 C2383 1.349 . S
C2399 H2391 0.950 . S
C2399 C2397 1.327 . S
C2400 C2388 1.349 . S
C2400 H2394 0.950 . S
C2400 C2401 1.327 . S
C2401 H2395 0.950 . S
C2401 C2400 1.327 . S
C2401 C2405 1.429 . S
C2402 C2385 1.574 . S
C2402 H2396 0.949 . S
C2402 C2406 1.368 . S
C2403 C2384 1.429 . S
C2403 C2397 1.429 . S
C2403 C2404 1.523 . S
C2404 C2385 1.368 . S
C2404 C2398 1.368 . S
C2404 C2403 1.523 . S
C2405 C2389 1.429 . S
C2405 C2401 1.429 . S
C2405 C2406 1.523 . S
C2406 C2390 1.368 . S
C2406 C2402 1.368 . S
C2406 C2405 1.523 . S
H2407 C2382 0.950 . S
H2408 C2384 0.950 . S
H2409 C2385 0.949 . S
H2410 C2387 0.950 . S
H2411 C2389 0.950 . S
C2412 C2413 1.349 . S
C2412 C2414 1.327 . S
C2412 H2437 0.950 . S
C2413 C2412 1.349 . S
C2413 C2429 1.349 . S
C2414 C2412 1.327 . S
C2414 C2433 1.429 . S
C2414 H2438 0.950 . S
C2415 C2432 1.574 . S
C2415 C2434 1.368 . S
C2415 H2439 0.949 . S
H2416 C2420 0.949 . S
C2417 C2418 1.349 . S
C2417 C2419 1.327 . S
C2417 H2440 0.950 . S
C2418 C2417 1.349 . S
C2418 C2430 1.349 . S
C2419 C2417 1.327 . S
C2419 C2435 1.429 . S
C2419 H2441 0.950 . S
C2420 H2416 0.949 . S
C2420 C2428 1.574 . S
C2420 C2436 1.368 . S
H2421 C2429 0.950 . S
H2422 C2427 0.950 . S
H2423 C2428 0.949 . S
H2424 C2430 0.950 . S
H2425 C2431 0.950 . S
H2426 C2432 0.949 . S
C2427 H2422 0.950 . S
C2427 C2429 1.327 . S
C2427 C2433 1.429 . S
C2428 C2420 1.574 . S
C2428 H2423 0.949 . S
C2428 C2434 1.368 . S
C2429 C2413 1.349 . S
C2429 H2421 0.950 . S
C2429 C2427 1.327 . S
C2430 C2418 1.349 . S
C2430 H2424 0.950 . S
C2430 C2431 1.327 . S
C2431 H2425 0.950 . S
C2431 C2430 1.327 . S
C2431 C2435 1.429 . S
C2432 C2415 1.574 . S
C2432 H2426 0.949 . S
C2432 C2436 1.368 . S
C2433 C2414 1.429 . S
C2433 C2427 1.429 . S
C2433 C2434 1.523 . S
C2434 C2415 1.368 . S
C2434 C2428 1.368 . S
C2434 C2433 1.523 . S
C2435 C2419 1.429 . S
C2435 C2431 1.429 . S
C2435 C2436 1.523 . S
C2436 C2420 1.368 . S
C2436 C2432 1.368 . S
C2436 C2435 1.523 . S
H2437 C2412 0.950 . S
H2438 C2414 0.950 . S
H2439 C2415 0.949 . S
H2440 C2417 0.950 . S
H2441 C2419 0.950 . S
C2442 C2443 1.349 . S
C2442 C2444 1.327 . S
C2442 H2467 0.950 . S
C2443 C2442 1.349 . S
C2443 C2459 1.349 . S
C2444 C2442 1.327 . S
C2444 C2463 1.429 . S
C2444 H2468 0.950 . S
C2445 C2462 1.574 . S
C2445 C2464 1.368 . S
C2445 H2469 0.949 . S
H2446 C2450 0.949 . S
C2447 C2448 1.349 . S
C2447 C2449 1.327 . S
C2447 H2470 0.950 . S
C2448 C2447 1.349 . S
C2448 C2460 1.349 . S
C2449 C2447 1.327 . S
C2449 C2465 1.429 . S
C2449 H2471 0.950 . S
C2450 H2446 0.949 . S
C2450 C2458 1.574 . S
C2450 C2466 1.368 . S
H2451 C2459 0.950 . S
H2452 C2457 0.950 . S
H2453 C2458 0.949 . S
H2454 C2460 0.950 . S
H2455 C2461 0.950 . S
H2456 C2462 0.949 . S
C2457 H2452 0.950 . S
C2457 C2459 1.327 . S
C2457 C2463 1.429 . S
C2458 C2450 1.574 . S
C2458 H2453 0.949 . S
C2458 C2464 1.368 . S
C2459 C2443 1.349 . S
C2459 H2451 0.950 . S
C2459 C2457 1.327 . S
C2460 C2448 1.349 . S
C2460 H2454 0.950 . S
C2460 C2461 1.327 . S
C2461 H2455 0.950 . S
C2461 C2460 1.327 . S
C2461 C2465 1.429 . S
C2462 C2445 1.574 . S
C2462 H2456 0.949 . S
C2462 C2466 1.368 . S
C2463 C2444 1.429 . S
C2463 C2457 1.429 . S
C2463 C2464 1.523 . S
C2464 C2445 1.368 . S
C2464 C2458 1.368 . S
C2464 C2463 1.523 . S
C2465 C2449 1.429 . S
C2465 C2461 1.429 . S
C2465 C2466 1.523 . S
C2466 C2450 1.368 . S
C2466 C2462 1.368 . S
C2466 C2465 1.523 . S
H2467 C2442 0.950 . S
H2468 C2444 0.950 . S
H2469 C2445 0.949 . S
H2470 C2447 0.950 . S
H2471 C2449 0.950 . S
C2472 C2473 1.349 . S
C2472 C2474 1.327 . S
C2472 H2497 0.950 . S
C2473 C2472 1.349 . S
C2473 C2489 1.349 . S
C2474 C2472 1.327 . S
C2474 C2493 1.429 . S
C2474 H2498 0.950 . S
C2475 C2492 1.574 . S
C2475 C2494 1.368 . S
C2475 H2499 0.949 . S
H2476 C2480 0.949 . S
C2477 C2478 1.349 . S
C2477 C2479 1.327 . S
C2477 H2500 0.950 . S
C2478 C2477 1.349 . S
C2478 C2490 1.349 . S
C2479 C2477 1.327 . S
C2479 C2495 1.429 . S
C2479 H2501 0.950 . S
C2480 H2476 0.949 . S
C2480 C2488 1.574 . S
C2480 C2496 1.368 . S
H2481 C2489 0.950 . S
H2482 C2487 0.950 . S
H2483 C2488 0.949 . S
H2484 C2490 0.950 . S
H2485 C2491 0.950 . S
H2486 C2492 0.949 . S
C2487 H2482 0.950 . S
C2487 C2489 1.327 . S
C2487 C2493 1.429 . S
C2488 C2480 1.574 . S
C2488 H2483 0.949 . S
C2488 C2494 1.368 . S
C2489 C2473 1.349 . S
C2489 H2481 0.950 . S
C2489 C2487 1.327 . S
C2490 C2478 1.349 . S
C2490 H2484 0.950 . S
C2490 C2491 1.327 . S
C2491 H2485 0.950 . S
C2491 C2490 1.327 . S
C2491 C2495 1.429 . S
C2492 C2475 1.574 . S
C2492 H2486 0.949 . S
C2492 C2496 1.368 . S
C2493 C2474 1.429 . S
C2493 C2487 1.429 . S
C2493 C2494 1.523 . S
C2494 C2475 1.368 . S
C2494 C2488 1.368 . S
C2494 C2493 1.523 . S
C2495 C2479 1.429 . S
C2495 C2491 1.429 . S
C2495 C2496 1.523 . S
C2496 C2480 1.368 . S
C2496 C2492 1.368 . S
C2496 C2495 1.523 . S
H2497 C2472 0.950 . S
H2498 C2474 0.950 . S
H2499 C2475 0.949 . S
H2500 C2477 0.950 . S
H2501 C2479 0.950 . S
C2502 C2503 1.349 . S
C2502 C2504 1.327 . S
C2502 H2527 0.950 . S
C2503 C2502 1.349 . S
C2503 C2519 1.349 . S
C2504 C2502 1.327 . S
C2504 C2523 1.429 . S
C2504 H2528 0.950 . S
C2505 C2522 1.574 . S
C2505 C2524 1.368 . S
C2505 H2529 0.949 . S
H2506 C2510 0.949 . S
C2507 C2508 1.349 . S
C2507 C2509 1.327 . S
C2507 H2530 0.950 . S
C2508 C2507 1.349 . S
C2508 C2520 1.349 . S
C2509 C2507 1.327 . S
C2509 C2525 1.429 . S
C2509 H2531 0.950 . S
C2510 H2506 0.949 . S
C2510 C2518 1.574 . S
C2510 C2526 1.368 . S
H2511 C2519 0.950 . S
H2512 C2517 0.950 . S
H2513 C2518 0.949 . S
H2514 C2520 0.950 . S
H2515 C2521 0.950 . S
H2516 C2522 0.949 . S
C2517 H2512 0.950 . S
C2517 C2519 1.327 . S
C2517 C2523 1.429 . S
C2518 C2510 1.574 . S
C2518 H2513 0.949 . S
C2518 C2524 1.368 . S
C2519 C2503 1.349 . S
C2519 H2511 0.950 . S
C2519 C2517 1.327 . S
C2520 C2508 1.349 . S
C2520 H2514 0.950 . S
C2520 C2521 1.327 . S
C2521 H2515 0.950 . S
C2521 C2520 1.327 . S
C2521 C2525 1.429 . S
C2522 C2505 1.574 . S
C2522 H2516 0.949 . S
C2522 C2526 1.368 . S
C2523 C2504 1.429 . S
C2523 C2517 1.429 . S
C2523 C2524 1.523 . S
C2524 C2505 1.368 . S
C2524 C2518 1.368 . S
C2524 C2523 1.523 . S
C2525 C2509 1.429 . S
C2525 C2521 1.429 . S
C2525 C2526 1.523 . S
C2526 C2510 1.368 . S
C2526 C2522 1.368 . S
C2526 C2525 1.523 . S
H2527 C2502 0.950 . S
H2528 C2504 0.950 . S
H2529 C2505 0.949 . S
H2530 C2507 0.950 . S
H2531 C2509 0.950 . S
C2532 C2533 1.349 . S
C2532 C2534 1.327 . S
C2532 H2557 0.950 . S
C2533 C2532 1.349 . S
C2533 C2549 1.349 . S
C2534 C2532 1.327 . S
C2534 C2553 1.429 . S
C2534 H2558 0.950 . S
C2535 C2552 1.574 . S
C2535 C2554 1.368 . S
C2535 H2559 0.949 . S
H2536 C2540 0.949 . S
C2537 C2538 1.349 . S
C2537 C2539 1.327 . S
C2537 H2560 0.950 . S
C2538 C2537 1.349 . S
C2538 C2550 1.349 . S
C2539 C2537 1.327 . S
C2539 C2555 1.429 . S
C2539 H2561 0.950 . S
C2540 H2536 0.949 . S
C2540 C2548 1.574 . S
C2540 C2556 1.368 . S
H2541 C2549 0.950 . S
H2542 C2547 0.950 . S
H2543 C2548 0.949 . S
H2544 C2550 0.950 . S
H2545 C2551 0.950 . S
H2546 C2552 0.949 . S
C2547 H2542 0.950 . S
C2547 C2549 1.327 . S
C2547 C2553 1.429 . S
C2548 C2540 1.574 . S
C2548 H2543 0.949 . S
C2548 C2554 1.368 . S
C2549 C2533 1.349 . S
C2549 H2541 0.950 . S
C2549 C2547 1.327 . S
C2550 C2538 1.349 . S
C2550 H2544 0.950 . S
C2550 C2551 1.327 . S
C2551 H2545 0.950 . S
C2551 C2550 1.327 . S
C2551 C2555 1.429 . S
C2552 C2535 1.574 . S
C2552 H2546 0.949 . S
C2552 C2556 1.368 . S
C2553 C2534 1.429 . S
C2553 C2547 1.429 . S
C2553 C2554 1.523 . S
C2554 C2535 1.368 . S
C2554 C2548 1.368 . S
C2554 C2553 1.523 . S
C2555 C2539 1.429 . S
C2555 C2551 1.429 . S
C2555 C2556 1.523 . S
C2556 C2540 1.368 . S
C2556 C2552 1.368 . S
C2556 C2555 1.523 . S
H2557 C2532 0.950 . S
H2558 C2534 0.950 . S
H2559 C2535 0.949 . S
H2560 C2537 0.950 . S
H2561 C2539 0.950 . S
C2562 C2563 1.349 . S
C2562 C2564 1.327 . S
C2562 H2587 0.950 . S
C2563 C2562 1.349 . S
C2563 C2579 1.349 . S
C2564 C2562 1.327 . S
C2564 C2583 1.429 . S
C2564 H2588 0.950 . S
C2565 C2582 1.574 . S
C2565 C2584 1.368 . S
C2565 H2589 0.949 . S
H2566 C2570 0.949 . S
C2567 C2568 1.349 . S
C2567 C2569 1.327 . S
C2567 H2590 0.950 . S
C2568 C2567 1.349 . S
C2568 C2580 1.349 . S
C2569 C2567 1.327 . S
C2569 C2585 1.429 . S
C2569 H2591 0.950 . S
C2570 H2566 0.949 . S
C2570 C2578 1.574 . S
C2570 C2586 1.368 . S
H2571 C2579 0.950 . S
H2572 C2577 0.950 . S
H2573 C2578 0.949 . S
H2574 C2580 0.950 . S
H2575 C2581 0.950 . S
H2576 C2582 0.949 . S
C2577 H2572 0.950 . S
C2577 C2579 1.327 . S
C2577 C2583 1.429 . S
C2578 C2570 1.574 . S
C2578 H2573 0.949 . S
C2578 C2584 1.368 . S
C2579 C2563 1.349 . S
C2579 H2571 0.950 . S
C2579 C2577 1.327 . S
C2580 C2568 1.349 . S
C2580 H2574 0.950 . S
C2580 C2581 1.327 . S
C2581 H2575 0.950 . S
C2581 C2580 1.327 . S
C2581 C2585 1.429 . S
C2582 C2565 1.574 . S
C2582 H2576 0.949 . S
C2582 C2586 1.368 . S
C2583 C2564 1.429 . S
C2583 C2577 1.429 . S
C2583 C2584 1.523 . S
C2584 C2565 1.368 . S
C2584 C2578 1.368 . S
C2584 C2583 1.523 . S
C2585 C2569 1.429 . S
C2585 C2581 1.429 . S
C2585 C2586 1.523 . S
C2586 C2570 1.368 . S
C2586 C2582 1.368 . S
C2586 C2585 1.523 . S
H2587 C2562 0.950 . S
H2588 C2564 0.950 . S
H2589 C2565 0.949 . S
H2590 C2567 0.950 . S
H2591 C2569 0.950 . S
C2592 C2593 1.349 . S
C2592 C2594 1.327 . S
C2592 H2617 0.950 . S
C2593 C2592 1.349 . S
C2593 C2609 1.349 . S
C2594 C2592 1.327 . S
C2594 C2613 1.429 . S
C2594 H2618 0.950 . S
C2595 C2612 1.574 . S
C2595 C2614 1.368 . S
C2595 H2619 0.949 . S
H2596 C2600 0.949 . S
C2597 C2598 1.349 . S
C2597 C2599 1.327 . S
C2597 H2620 0.950 . S
C2598 C2597 1.349 . S
C2598 C2610 1.349 . S
C2599 C2597 1.327 . S
C2599 C2615 1.429 . S
C2599 H2621 0.950 . S
C2600 H2596 0.949 . S
C2600 C2608 1.574 . S
C2600 C2616 1.368 . S
H2601 C2609 0.950 . S
H2602 C2607 0.950 . S
H2603 C2608 0.949 . S
H2604 C2610 0.950 . S
H2605 C2611 0.950 . S
H2606 C2612 0.949 . S
C2607 H2602 0.950 . S
C2607 C2609 1.327 . S
C2607 C2613 1.429 . S
C2608 C2600 1.574 . S
C2608 H2603 0.949 . S
C2608 C2614 1.368 . S
C2609 C2593 1.349 . S
C2609 H2601 0.950 . S
C2609 C2607 1.327 . S
C2610 C2598 1.349 . S
C2610 H2604 0.950 . S
C2610 C2611 1.327 . S
C2611 H2605 0.950 . S
C2611 C2610 1.327 . S
C2611 C2615 1.429 . S
C2612 C2595 1.574 . S
C2612 H2606 0.949 . S
C2612 C2616 1.368 . S
C2613 C2594 1.429 . S
C2613 C2607 1.429 . S
C2613 C2614 1.523 . S
C2614 C2595 1.368 . S
C2614 C2608 1.368 . S
C2614 C2613 1.523 . S
C2615 C2599 1.429 . S
C2615 C2611 1.429 . S
C2615 C2616 1.523 . S
C2616 C2600 1.368 . S
C2616 C2612 1.368 . S
C2616 C2615 1.523 . S
H2617 C2592 0.950 . S
H2618 C2594 0.950 . S
H2619 C2595 0.949 . S
H2620 C2597 0.950 . S
H2621 C2599 0.950 . S
C2622 C2623 1.349 . S
C2622 C2624 1.327 . S
C2622 H2647 0.950 . S
C2623 C2622 1.349 . S
C2623 C2639 1.349 . S
C2624 C2622 1.327 . S
C2624 C2643 1.429 . S
C2624 H2648 0.950 . S
C2625 C2642 1.574 . S
C2625 C2644 1.368 . S
C2625 H2649 0.949 . S
H2626 C2630 0.949 . S
C2627 C2628 1.349 . S
C2627 C2629 1.327 . S
C2627 H2650 0.950 . S
C2628 C2627 1.349 . S
C2628 C2640 1.349 . S
C2629 C2627 1.327 . S
C2629 C2645 1.429 . S
C2629 H2651 0.950 . S
C2630 H2626 0.949 . S
C2630 C2638 1.574 . S
C2630 C2646 1.368 . S
H2631 C2639 0.950 . S
H2632 C2637 0.950 . S
H2633 C2638 0.949 . S
H2634 C2640 0.950 . S
H2635 C2641 0.950 . S
H2636 C2642 0.949 . S
C2637 H2632 0.950 . S
C2637 C2639 1.327 . S
C2637 C2643 1.429 . S
C2638 C2630 1.574 . S
C2638 H2633 0.949 . S
C2638 C2644 1.368 . S
C2639 C2623 1.349 . S
C2639 H2631 0.950 . S
C2639 C2637 1.327 . S
C2640 C2628 1.349 . S
C2640 H2634 0.950 . S
C2640 C2641 1.327 . S
C2641 H2635 0.950 . S
C2641 C2640 1.327 . S
C2641 C2645 1.429 . S
C2642 C2625 1.574 . S
C2642 H2636 0.949 . S
C2642 C2646 1.368 . S
C2643 C2624 1.429 . S
C2643 C2637 1.429 . S
C2643 C2644 1.523 . S
C2644 C2625 1.368 . S
C2644 C2638 1.368 . S
C2644 C2643 1.523 . S
C2645 C2629 1.429 . S
C2645 C2641 1.429 . S
C2645 C2646 1.523 . S
C2646 C2630 1.368 . S
C2646 C2642 1.368 . S
C2646 C2645 1.523 . S
H2647 C2622 0.950 . S
H2648 C2624 0.950 . S
H2649 C2625 0.949 . S
H2650 C2627 0.950 . S
H2651 C2629 0.950 . S
C2652 C2653 1.349 . S
C2652 C2654 1.327 . S
C2652 H2677 0.950 . S
C2653 C2652 1.349 . S
C2653 C2669 1.349 . S
C2654 C2652 1.327 . S
C2654 C2673 1.429 . S
C2654 H2678 0.950 . S
C2655 C2672 1.574 . S
C2655 C2674 1.368 . S
C2655 H2679 0.949 . S
H2656 C2660 0.949 . S
C2657 C2658 1.349 . S
C2657 C2659 1.327 . S
C2657 H2680 0.950 . S
C2658 C2657 1.349 . S
C2658 C2670 1.349 . S
C2659 C2657 1.327 . S
C2659 C2675 1.429 . S
C2659 H2681 0.950 . S
C2660 H2656 0.949 . S
C2660 C2668 1.574 . S
C2660 C2676 1.368 . S
H2661 C2669 0.950 . S
H2662 C2667 0.950 . S
H2663 C2668 0.949 . S
H2664 C2670 0.950 . S
H2665 C2671 0.950 . S
H2666 C2672 0.949 . S
C2667 H2662 0.950 . S
C2667 C2669 1.327 . S
C2667 C2673 1.429 . S
C2668 C2660 1.574 . S
C2668 H2663 0.949 . S
C2668 C2674 1.368 . S
C2669 C2653 1.349 . S
C2669 H2661 0.950 . S
C2669 C2667 1.327 . S
C2670 C2658 1.349 . S
C2670 H2664 0.950 . S
C2670 C2671 1.327 . S
C2671 H2665 0.950 . S
C2671 C2670 1.327 . S
C2671 C2675 1.429 . S
C2672 C2655 1.574 . S
C2672 H2666 0.949 . S
C2672 C2676 1.368 . S
C2673 C2654 1.429 . S
C2673 C2667 1.429 . S
C2673 C2674 1.523 . S
C2674 C2655 1.368 . S
C2674 C2668 1.368 . S
C2674 C2673 1.523 . S
C2675 C2659 1.429 . S
C2675 C2671 1.429 . S
C2675 C2676 1.523 . S
C2676 C2660 1.368 . S
C2676 C2672 1.368 . S
C2676 C2675 1.523 . S
H2677 C2652 0.950 . S
H2678 C2654 0.950 . S
H2679 C2655 0.949 . S
H2680 C2657 0.950 . S
H2681 C2659 0.950 . S
C2682 C2683 1.349 . S
C2682 C2684 1.327 . S
C2682 H2707 0.950 . S
C2683 C2682 1.349 . S
C2683 C2699 1.349 . S
C2684 C2682 1.327 . S
C2684 C2703 1.429 . S
C2684 H2708 0.950 . S
C2685 C2702 1.574 . S
C2685 C2704 1.368 . S
C2685 H2709 0.949 . S
H2686 C2690 0.949 . S
C2687 C2688 1.349 . S
C2687 C2689 1.327 . S
C2687 H2710 0.950 . S
C2688 C2687 1.349 . S
C2688 C2700 1.349 . S
C2689 C2687 1.327 . S
C2689 C2705 1.429 . S
C2689 H2711 0.950 . S
C2690 H2686 0.949 . S
C2690 C2698 1.574 . S
C2690 C2706 1.368 . S
H2691 C2699 0.950 . S
H2692 C2697 0.950 . S
H2693 C2698 0.949 . S
H2694 C2700 0.950 . S
H2695 C2701 0.950 . S
H2696 C2702 0.949 . S
C2697 H2692 0.950 . S
C2697 C2699 1.327 . S
C2697 C2703 1.429 . S
C2698 C2690 1.574 . S
C2698 H2693 0.949 . S
C2698 C2704 1.368 . S
C2699 C2683 1.349 . S
C2699 H2691 0.950 . S
C2699 C2697 1.327 . S
C2700 C2688 1.349 . S
C2700 H2694 0.950 . S
C2700 C2701 1.327 . S
C2701 H2695 0.950 . S
C2701 C2700 1.327 . S
C2701 C2705 1.429 . S
C2702 C2685 1.574 . S
C2702 H2696 0.949 . S
C2702 C2706 1.368 . S
C2703 C2684 1.429 . S
C2703 C2697 1.429 . S
C2703 C2704 1.523 . S
C2704 C2685 1.368 . S
C2704 C2698 1.368 . S
C2704 C2703 1.523 . S
C2705 C2689 1.429 . S
C2705 C2701 1.429 . S
C2705 C2706 1.523 . S
C2706 C2690 1.368 . S
C2706 C2702 1.368 . S
C2706 C2705 1.523 . S
H2707 C2682 0.950 . S
H2708 C2684 0.950 . S
H2709 C2685 0.949 . S
H2710 C2687 0.950 . S
H2711 C2689 0.950 . S
C2712 C2713 1.349 . S
C2712 C2714 1.327 . S
C2712 H2737 0.950 . S
C2713 C2712 1.349 . S
C2713 C2729 1.349 . S
C2714 C2712 1.327 . S
C2714 C2733 1.429 . S
C2714 H2738 0.950 . S
C2715 C2732 1.574 . S
C2715 C2734 1.368 . S
C2715 H2739 0.949 . S
H2716 C2720 0.949 . S
C2717 C2718 1.349 . S
C2717 C2719 1.327 . S
C2717 H2740 0.950 . S
C2718 C2717 1.349 . S
C2718 C2730 1.349 . S
C2719 C2717 1.327 . S
C2719 C2735 1.429 . S
C2719 H2741 0.950 . S
C2720 H2716 0.949 . S
C2720 C2728 1.574 . S
C2720 C2736 1.368 . S
H2721 C2729 0.950 . S
H2722 C2727 0.950 . S
H2723 C2728 0.949 . S
H2724 C2730 0.950 . S
H2725 C2731 0.950 . S
H2726 C2732 0.949 . S
C2727 H2722 0.950 . S
C2727 C2729 1.327 . S
C2727 C2733 1.429 . S
C2728 C2720 1.574 . S
C2728 H2723 0.949 . S
C2728 C2734 1.368 . S
C2729 C2713 1.349 . S
C2729 H2721 0.950 . S
C2729 C2727 1.327 . S
C2730 C2718 1.349 . S
C2730 H2724 0.950 . S
C2730 C2731 1.327 . S
C2731 H2725 0.950 . S
C2731 C2730 1.327 . S
C2731 C2735 1.429 . S
C2732 C2715 1.574 . S
C2732 H2726 0.949 . S
C2732 C2736 1.368 . S
C2733 C2714 1.429 . S
C2733 C2727 1.429 . S
C2733 C2734 1.523 . S
C2734 C2715 1.368 . S
C2734 C2728 1.368 . S
C2734 C2733 1.523 . S
C2735 C2719 1.429 . S
C2735 C2731 1.429 . S
C2735 C2736 1.523 . S
C2736 C2720 1.368 . S
C2736 C2732 1.368 . S
C2736 C2735 1.523 . S
H2737 C2712 0.950 . S
H2738 C2714 0.950 . S
H2739 C2715 0.949 . S
H2740 C2717 0.950 . S
H2741 C2719 0.950 . S
C2742 C2743 1.349 . S
C2742 C2744 1.327 . S
C2742 H2767 0.950 . S
C2743 C2742 1.349 . S
C2743 C2759 1.349 . S
C2744 C2742 1.327 . S
C2744 C2763 1.429 . S
C2744 H2768 0.950 . S
C2745 C2762 1.574 . S
C2745 C2764 1.368 . S
C2745 H2769 0.949 . S
H2746 C2750 0.949 . S
C2747 C2748 1.349 . S
C2747 C2749 1.327 . S
C2747 H2770 0.950 . S
C2748 C2747 1.349 . S
C2748 C2760 1.349 . S
C2749 C2747 1.327 . S
C2749 C2765 1.429 . S
C2749 H2771 0.950 . S
C2750 H2746 0.949 . S
C2750 C2758 1.574 . S
C2750 C2766 1.368 . S
H2751 C2759 0.950 . S
H2752 C2757 0.950 . S
H2753 C2758 0.949 . S
H2754 C2760 0.950 . S
H2755 C2761 0.950 . S
H2756 C2762 0.949 . S
C2757 H2752 0.950 . S
C2757 C2759 1.327 . S
C2757 C2763 1.429 . S
C2758 C2750 1.574 . S
C2758 H2753 0.949 . S
C2758 C2764 1.368 . S
C2759 C2743 1.349 . S
C2759 H2751 0.950 . S
C2759 C2757 1.327 . S
C2760 C2748 1.349 . S
C2760 H2754 0.950 . S
C2760 C2761 1.327 . S
C2761 H2755 0.950 . S
C2761 C2760 1.327 . S
C2761 C2765 1.429 . S
C2762 C2745 1.574 . S
C2762 H2756 0.949 . S
C2762 C2766 1.368 . S
C2763 C2744 1.429 . S
C2763 C2757 1.429 . S
C2763 C2764 1.523 . S
C2764 C2745 1.368 . S
C2764 C2758 1.368 . S
C2764 C2763 1.523 . S
C2765 C2749 1.429 . S
C2765 C2761 1.429 . S
C2765 C2766 1.523 . S
C2766 C2750 1.368 . S
C2766 C2762 1.368 . S
C2766 C2765 1.523 . S
H2767 C2742 0.950 . S
H2768 C2744 0.950 . S
H2769 C2745 0.949 . S
H2770 C2747 0.950 . S
H2771 C2749 0.950 . S
C2772 C2773 1.349 . S
C2772 C2774 1.327 . S
C2772 H2797 0.950 . S
C2773 C2772 1.349 . S
C2773 C2789 1.349 . S
C2774 C2772 1.327 . S
C2774 C2793 1.429 . S
C2774 H2798 0.950 . S
C2775 C2792 1.574 . S
C2775 C2794 1.368 . S
C2775 H2799 0.949 . S
H2776 C2780 0.949 . S
C2777 C2778 1.349 . S
C2777 C2779 1.327 . S
C2777 H2800 0.950 . S
C2778 C2777 1.349 . S
C2778 C2790 1.349 . S
C2779 C2777 1.327 . S
C2779 C2795 1.429 . S
C2779 H2801 0.950 . S
C2780 H2776 0.949 . S
C2780 C2788 1.574 . S
C2780 C2796 1.368 . S
H2781 C2789 0.950 . S
H2782 C2787 0.950 . S
H2783 C2788 0.949 . S
H2784 C2790 0.950 . S
H2785 C2791 0.950 . S
H2786 C2792 0.949 . S
C2787 H2782 0.950 . S
C2787 C2789 1.327 . S
C2787 C2793 1.429 . S
C2788 C2780 1.574 . S
C2788 H2783 0.949 . S
C2788 C2794 1.368 . S
C2789 C2773 1.349 . S
C2789 H2781 0.950 . S
C2789 C2787 1.327 . S
C2790 C2778 1.349 . S
C2790 H2784 0.950 . S
C2790 C2791 1.327 . S
C2791 H2785 0.950 . S
C2791 C2790 1.327 . S
C2791 C2795 1.429 . S
C2792 C2775 1.574 . S
C2792 H2786 0.949 . S
C2792 C2796 1.368 . S
C2793 C2774 1.429 . S
C2793 C2787 1.429 . S
C2793 C2794 1.523 . S
C2794 C2775 1.368 . S
C2794 C2788 1.368 . S
C2794 C2793 1.523 . S
C2795 C2779 1.429 . S
C2795 C2791 1.429 . S
C2795 C2796 1.523 . S
C2796 C2780 1.368 . S
C2796 C2792 1.368 . S
C2796 C2795 1.523 . S
H2797 C2772 0.950 . S
H2798 C2774 0.950 . S
H2799 C2775 0.949 . S
H2800 C2777 0.950 . S
H2801 C2779 0.950 . S
C2802 C2803 1.349 . S
C2802 C2804 1.327 . S
C2802 H2827 0.950 . S
C2803 C2802 1.349 . S
C2803 C2819 1.349 . S
C2804 C2802 1.327 . S
C2804 C2823 1.429 . S
C2804 H2828 0.950 . S
C2805 C2822 1.574 . S
C2805 C2824 1.368 . S
C2805 H2829 0.949 . S
H2806 C2810 0.949 . S
C2807 C2808 1.349 . S
C2807 C2809 1.327 . S
C2807 H2830 0.950 . S
C2808 C2807 1.349 . S
C2808 C2820 1.349 . S
C2809 C2807 1.327 . S
C2809 C2825 1.429 . S
C2809 H2831 0.950 . S
C2810 H2806 0.949 . S
C2810 C2818 1.574 . S
C2810 C2826 1.368 . S
H2811 C2819 0.950 . S
H2812 C2817 0.950 . S
H2813 C2818 0.949 . S
H2814 C2820 0.950 . S
H2815 C2821 0.950 . S
H2816 C2822 0.949 . S
C2817 H2812 0.950 . S
C2817 C2819 1.327 . S
C2817 C2823 1.429 . S
C2818 C2810 1.574 . S
C2818 H2813 0.949 . S
C2818 C2824 1.368 . S
C2819 C2803 1.349 . S
C2819 H2811 0.950 . S
C2819 C2817 1.327 . S
C2820 C2808 1.349 . S
C2820 H2814 0.950 . S
C2820 C2821 1.327 . S
C2821 H2815 0.950 . S
C2821 C2820 1.327 . S
C2821 C2825 1.429 . S
C2822 C2805 1.574 . S
C2822 H2816 0.949 . S
C2822 C2826 1.368 . S
C2823 C2804 1.429 . S
C2823 C2817 1.429 . S
C2823 C2824 1.523 . S
C2824 C2805 1.368 . S
C2824 C2818 1.368 . S
C2824 C2823 1.523 . S
C2825 C2809 1.429 . S
C2825 C2821 1.429 . S
C2825 C2826 1.523 . S
C2826 C2810 1.368 . S
C2826 C2822 1.368 . S
C2826 C2825 1.523 . S
H2827 C2802 0.950 . S
H2828 C2804 0.950 . S
H2829 C2805 0.949 . S
H2830 C2807 0.950 . S
H2831 C2809 0.950 . S
C2832 C2833 1.349 . S
C2832 C2834 1.327 . S
C2832 H2857 0.950 . S
C2833 C2832 1.349 . S
C2833 C2849 1.349 . S
C2834 C2832 1.327 . S
C2834 C2853 1.429 . S
C2834 H2858 0.950 . S
C2835 C2852 1.574 1_565 S
C2835 C2854 1.368 . S
C2835 H2859 0.949 . S
H2836 C2840 0.949 . S
C2837 C2838 1.349 . S
C2837 C2839 1.327 . S
C2837 H2860 0.950 . S
C2838 C2837 1.349 . S
C2838 C2850 1.349 . S
C2839 C2837 1.327 . S
C2839 C2855 1.429 . S
C2839 H2861 0.950 . S
C2840 H2836 0.949 . S
C2840 C2848 1.574 1_545 S
C2840 C2856 1.368 . S
H2841 C2849 0.950 . S
H2842 C2847 0.950 . S
H2843 C2848 0.949 . S
H2844 C2850 0.950 . S
H2845 C2851 0.950 . S
H2846 C2852 0.949 . S
C2847 H2842 0.950 . S
C2847 C2849 1.327 . S
C2847 C2853 1.429 . S
C2848 C2840 1.574 1_565 S
C2848 H2843 0.949 . S
C2848 C2854 1.368 1_554 S
C2849 C2833 1.349 . S
C2849 H2841 0.950 . S
C2849 C2847 1.327 . S
C2850 C2838 1.349 . S
C2850 H2844 0.950 . S
C2850 C2851 1.327 . S
C2851 H2845 0.950 . S
C2851 C2850 1.327 . S
C2851 C2855 1.429 . S
C2852 C2835 1.574 1_545 S
C2852 H2846 0.949 . S
C2852 C2856 1.368 1_556 S
C2853 C2834 1.429 . S
C2853 C2847 1.429 . S
C2853 C2854 1.523 . S
C2854 C2835 1.368 . S
C2854 C2848 1.368 1_556 S
C2854 C2853 1.523 . S
C2855 C2839 1.429 . S
C2855 C2851 1.429 . S
C2855 C2856 1.523 . S
C2856 C2840 1.368 . S
C2856 C2852 1.368 1_554 S
C2856 C2855 1.523 . S
H2857 C2832 0.950 . S
H2858 C2834 0.950 . S
H2859 C2835 0.949 . S
H2860 C2837 0.950 . S
H2861 C2839 0.950 . S
C2862 C2863 1.349 . S
C2862 C2864 1.327 . S
C2862 H2887 0.950 . S
C2863 C2862 1.349 . S
C2863 C2879 1.349 . S
C2864 C2862 1.327 . S
C2864 C2883 1.429 . S
C2864 H2888 0.950 . S
C2865 C2882 1.574 . S
C2865 C2884 1.368 . S
C2865 H2889 0.949 . S
H2866 C2870 0.949 . S
C2867 C2868 1.349 . S
C2867 C2869 1.327 . S
C2867 H2890 0.950 . S
C2868 C2867 1.349 . S
C2868 C2880 1.349 . S
C2869 C2867 1.327 . S
C2869 C2885 1.429 . S
C2869 H2891 0.950 . S
C2870 H2866 0.949 . S
C2870 C2878 1.574 . S
C2870 C2886 1.368 . S
H2871 C2879 0.950 . S
H2872 C2877 0.950 . S
H2873 C2878 0.949 . S
H2874 C2880 0.950 . S
H2875 C2881 0.950 . S
H2876 C2882 0.949 . S
C2877 H2872 0.950 . S
C2877 C2879 1.327 . S
C2877 C2883 1.429 . S
C2878 C2870 1.574 . S
C2878 H2873 0.949 . S
C2878 C2884 1.368 . S
C2879 C2863 1.349 . S
C2879 H2871 0.950 . S
C2879 C2877 1.327 . S
C2880 C2868 1.349 . S
C2880 H2874 0.950 . S
C2880 C2881 1.327 . S
C2881 H2875 0.950 . S
C2881 C2880 1.327 . S
C2881 C2885 1.429 . S
C2882 C2865 1.574 . S
C2882 H2876 0.949 . S
C2882 C2886 1.368 . S
C2883 C2864 1.429 . S
C2883 C2877 1.429 . S
C2883 C2884 1.523 . S
C2884 C2865 1.368 . S
C2884 C2878 1.368 . S
C2884 C2883 1.523 . S
C2885 C2869 1.429 . S
C2885 C2881 1.429 . S
C2885 C2886 1.523 . S
C2886 C2870 1.368 . S
C2886 C2882 1.368 . S
C2886 C2885 1.523 . S
H2887 C2862 0.950 . S
H2888 C2864 0.950 . S
H2889 C2865 0.949 . S
H2890 C2867 0.950 . S
H2891 C2869 0.950 . S
C2892 C2893 1.349 . S
C2892 C2894 1.327 . S
C2892 H2917 0.950 . S
C2893 C2892 1.349 . S
C2893 C2909 1.349 . S
C2894 C2892 1.327 . S
C2894 C2913 1.429 . S
C2894 H2918 0.950 . S
C2895 C2912 1.574 1_455 S
C2895 C2914 1.368 1_554 S
C2895 H2919 0.949 . S
H2896 C2900 0.949 . S
C2897 C2898 1.349 . S
C2897 C2899 1.327 . S
C2897 H2920 0.950 . S
C2898 C2897 1.349 . S
C2898 C2910 1.349 . S
C2899 C2897 1.327 . S
C2899 C2915 1.429 . S
C2899 H2921 0.950 . S
C2900 H2896 0.949 . S
C2900 C2908 1.574 1_655 S
C2900 C2916 1.368 1_556 S
H2901 C2909 0.950 . S
H2902 C2907 0.950 . S
H2903 C2908 0.949 . S
H2904 C2910 0.950 . S
H2905 C2911 0.950 . S
H2906 C2912 0.949 . S
C2907 H2902 0.950 . S
C2907 C2909 1.327 . S
C2907 C2913 1.429 . S
C2908 C2900 1.574 1_455 S
C2908 H2903 0.949 . S
C2908 C2914 1.368 . S
C2909 C2893 1.349 . S
C2909 H2901 0.950 . S
C2909 C2907 1.327 . S
C2910 C2898 1.349 . S
C2910 H2904 0.950 . S
C2910 C2911 1.327 . S
C2911 H2905 0.950 . S
C2911 C2910 1.327 . S
C2911 C2915 1.429 . S
C2912 C2895 1.574 1_655 S
C2912 H2906 0.949 . S
C2912 C2916 1.368 . S
C2913 C2894 1.429 . S
C2913 C2907 1.429 . S
C2913 C2914 1.523 . S
C2914 C2895 1.368 1_556 S
C2914 C2908 1.368 . S
C2914 C2913 1.523 . S
C2915 C2899 1.429 . S
C2915 C2911 1.429 . S
C2915 C2916 1.523 . S
C2916 C2900 1.368 1_554 S
C2916 C2912 1.368 . S
C2916 C2915 1.523 . S
H2917 C2892 0.950 . S
H2918 C2894 0.950 . S
H2919 C2895 0.949 . S
H2920 C2897 0.950 . S
H2921 C2899 0.950 . S
C2922 C2923 1.349 . S
C2922 C2924 1.327 . S
C2922 H2947 0.950 . S
C2923 C2922 1.349 . S
C2923 C2939 1.349 . S
C2924 C2922 1.327 . S
C2924 C2943 1.429 . S
C2924 H2948 0.950 . S
C2925 C2942 1.574 1_545 S
C2925 C2944 1.368 . S
C2925 H2949 0.949 . S
H2926 C2930 0.949 . S
C2927 C2928 1.349 . S
C2927 C2929 1.327 . S
C2927 H2950 0.950 . S
C2928 C2927 1.349 . S
C2928 C2940 1.349 . S
C2929 C2927 1.327 . S
C2929 C2945 1.429 . S
C2929 H2951 0.950 . S
C2930 H2926 0.949 . S
C2930 C2938 1.574 1_565 S
C2930 C2946 1.368 . S
H2931 C2939 0.950 . S
H2932 C2937 0.950 . S
H2933 C2938 0.949 . S
H2934 C2940 0.950 . S
H2935 C2941 0.950 . S
H2936 C2942 0.949 . S
C2937 H2932 0.950 . S
C2937 C2939 1.327 . S
C2937 C2943 1.429 . S
C2938 C2930 1.574 1_545 S
C2938 H2933 0.949 . S
C2938 C2944 1.368 . S
C2939 C2923 1.349 . S
C2939 H2931 0.950 . S
C2939 C2937 1.327 . S
C2940 C2928 1.349 . S
C2940 H2934 0.950 . S
C2940 C2941 1.327 . S
C2941 H2935 0.950 . S
C2941 C2940 1.327 . S
C2941 C2945 1.429 . S
C2942 C2925 1.574 1_565 S
C2942 H2936 0.949 . S
C2942 C2946 1.368 . S
C2943 C2924 1.429 . S
C2943 C2937 1.429 . S
C2943 C2944 1.523 . S
C2944 C2925 1.368 . S
C2944 C2938 1.368 . S
C2944 C2943 1.523 . S
C2945 C2929 1.429 . S
C2945 C2941 1.429 . S
C2945 C2946 1.523 . S
C2946 C2930 1.368 . S
C2946 C2942 1.368 . S
C2946 C2945 1.523 . S
H2947 C2922 0.950 . S
H2948 C2924 0.950 . S
H2949 C2925 0.949 . S
H2950 C2927 0.950 . S
H2951 C2929 0.950 . S
C2952 C2953 1.349 . S
C2952 C2954 1.327 . S
C2952 H2977 0.950 . S
C2953 C2952 1.349 . S
C2953 C2969 1.349 . S
C2954 C2952 1.327 . S
C2954 C2973 1.429 . S
C2954 H2978 0.950 . S
C2955 C2972 1.574 1_554 S
C2955 C2974 1.368 . S
C2955 H2979 0.949 . S
H2956 C2960 0.949 . S
C2957 C2958 1.349 . S
C2957 C2959 1.327 . S
C2957 H2980 0.950 . S
C2958 C2957 1.349 . S
C2958 C2970 1.349 . S
C2959 C2957 1.327 . S
C2959 C2975 1.429 . S
C2959 H2981 0.950 . S
C2960 H2956 0.949 . S
C2960 C2968 1.574 1_556 S
C2960 C2976 1.368 . S
H2961 C2969 0.950 . S
H2962 C2967 0.950 . S
H2963 C2968 0.949 . S
H2964 C2970 0.950 . S
H2965 C2971 0.950 . S
H2966 C2972 0.949 . S
C2967 H2962 0.950 . S
C2967 C2969 1.327 . S
C2967 C2973 1.429 . S
C2968 C2960 1.574 1_554 S
C2968 H2963 0.949 . S
C2968 C2974 1.368 . S
C2969 C2953 1.349 . S
C2969 H2961 0.950 . S
C2969 C2967 1.327 . S
C2970 C2958 1.349 . S
C2970 H2964 0.950 . S
C2970 C2971 1.327 . S
C2971 H2965 0.950 . S
C2971 C2970 1.327 . S
C2971 C2975 1.429 . S
C2972 C2955 1.574 1_556 S
C2972 H2966 0.949 . S
C2972 C2976 1.368 . S
C2973 C2954 1.429 . S
C2973 C2967 1.429 . S
C2973 C2974 1.523 . S
C2974 C2955 1.368 . S
C2974 C2968 1.368 . S
C2974 C2973 1.523 . S
C2975 C2959 1.429 . S
C2975 C2971 1.429 . S
C2975 C2976 1.523 . S
C2976 C2960 1.368 . S
C2976 C2972 1.368 . S
C2976 C2975 1.523 . S
H2977 C2952 0.950 . S
H2978 C2954 0.950 . S
H2979 C2955 0.949 . S
H2980 C2957 0.950 . S
H2981 C2959 0.950 . S
C2982 C2983 1.349 . S
C2982 C2984 1.327 . S
C2982 H3007 0.950 . S
C2983 C2982 1.349 . S
C2983 C2999 1.349 . S
C2984 C2982 1.327 . S
C2984 C3003 1.429 . S
C2984 H3008 0.950 . S
C2985 C3002 1.574 1_455 S
C2985 C3004 1.368 . S
C2985 H3009 0.949 . S
H2986 C2990 0.949 . S
C2987 C2988 1.349 . S
C2987 C2989 1.327 . S
C2987 H3010 0.950 . S
C2988 C2987 1.349 . S
C2988 C3000 1.349 . S
C2989 C2987 1.327 . S
C2989 C3005 1.429 . S
C2989 H3011 0.950 . S
C2990 H2986 0.949 . S
C2990 C2998 1.574 1_655 S
C2990 C3006 1.368 . S
H2991 C2999 0.950 . S
H2992 C2997 0.950 . S
H2993 C2998 0.949 . S
H2994 C3000 0.950 . S
H2995 C3001 0.950 . S
H2996 C3002 0.949 . S
C2997 H2992 0.950 . S
C2997 C2999 1.327 . S
C2997 C3003 1.429 . S
C2998 C2990 1.574 1_455 S
C2998 H2993 0.949 . S
C2998 C3004 1.368 . S
C2999 C2983 1.349 . S
C2999 H2991 0.950 . S
C2999 C2997 1.327 . S
C3000 C2988 1.349 . S
C3000 H2994 0.950 . S
C3000 C3001 1.327 . S
C3001 H2995 0.950 . S
C3001 C3000 1.327 . S
C3001 C3005 1.429 . S
C3002 C2985 1.574 1_655 S
C3002 H2996 0.949 . S
C3002 C3006 1.368 . S
C3003 C2984 1.429 . S
C3003 C2997 1.429 . S
C3003 C3004 1.523 . S
C3004 C2985 1.368 . S
C3004 C2998 1.368 . S
C3004 C3003 1.523 . S
C3005 C2989 1.429 . S
C3005 C3001 1.429 . S
C3005 C3006 1.523 . S
C3006 C2990 1.368 . S
C3006 C3002 1.368 . S
C3006 C3005 1.523 . S
H3007 C2982 0.950 . S
H3008 C2984 0.950 . S
H3009 C2985 0.949 . S
H3010 C2987 0.950 . S
H3011 C2989 0.950 . S
C3012 C3013 1.349 . S
C3012 C3014 1.327 . S
C3012 H3037 0.950 . S
C3013 C3012 1.349 . S
C3013 C3029 1.349 . S
C3014 C3012 1.327 . S
C3014 C3033 1.429 . S
C3014 H3038 0.908 1_556 S
C3015 C3032 1.582 1_565 S
C3015 C3034 1.361 . S
C3015 H3039 0.948 . S
H3016 C3020 0.948 . S
C3017 C3018 1.349 . S
C3017 C3019 1.327 . S
C3017 H3040 0.950 . S
C3018 C3017 1.349 . S
C3018 C3030 1.349 . S
C3019 C3017 1.327 . S
C3019 C3035 1.429 . S
C3019 H3041 0.903 1_554 S
C3020 H3016 0.948 . S
C3020 C3028 1.580 1_545 S
C3020 C3036 1.363 . S
H3021 C3029 0.950 . S
H3022 C3027 0.950 . S
H3023 C3028 0.949 . S
H3024 C3030 0.950 . S
H3025 C3031 0.950 . S
H3026 C3032 0.949 . S
C3027 H3022 0.950 . S
C3027 C3029 1.327 . S
C3027 C3033 1.429 . S
C3028 C3020 1.580 1_565 S
C3028 H3023 0.949 . S
C3028 C3034 1.368 1_554 S
C3029 C3013 1.349 . S
C3029 H3021 0.950 . S
C3029 C3027 1.327 . S
C3030 C3018 1.349 . S
C3030 H3024 0.950 . S
C3030 C3031 1.327 . S
C3031 H3025 0.950 . S
C3031 C3030 1.327 . S
C3031 C3035 1.429 . S
C3032 C3015 1.582 1_545 S
C3032 H3026 0.949 . S
C3032 C3036 1.368 1_556 S
C3033 C3014 1.429 . S
C3033 C3027 1.429 . S
C3033 C3034 1.523 . S
C3034 C3015 1.361 . S
C3034 C3028 1.368 1_556 S
C3034 C3033 1.523 . S
C3035 C3019 1.429 . S
C3035 C3031 1.429 . S
C3035 C3036 1.523 . S
C3036 C3020 1.363 . S
C3036 C3032 1.368 1_554 S
C3036 C3035 1.523 . S
H3037 C3012 0.950 . S
H3038 C3014 0.908 1_554 S
H3039 C3015 0.948 . S
H3040 C3017 0.950 . S
H3041 C3019 0.903 1_556 S
C3042 C3043 1.349 . S
C3042 C3044 1.327 . S
C3042 H3067 0.950 . S
C3043 C3042 1.349 . S
C3043 C3059 1.349 . S
C3044 C3042 1.327 . S
C3044 C3063 1.429 . S
C3044 H3068 0.950 . S
C3045 C3062 1.574 . S
C3045 C3064 1.368 . S
C3045 H3069 0.949 . S
H3046 C3050 0.949 . S
C3047 C3048 1.349 . S
C3047 C3049 1.327 . S
C3047 H3070 0.950 . S
C3048 C3047 1.349 . S
C3048 C3060 1.349 . S
C3049 C3047 1.327 . S
C3049 C3065 1.429 . S
C3049 H3071 0.950 . S
C3050 H3046 0.949 . S
C3050 C3058 1.574 . S
C3050 C3066 1.368 . S
H3051 C3059 0.950 . S
H3052 C3057 0.950 . S
H3053 C3058 0.949 . S
H3054 C3060 0.950 . S
H3055 C3061 0.950 . S
H3056 C3062 0.949 . S
C3057 H3052 0.950 . S
C3057 C3059 1.327 . S
C3057 C3063 1.429 . S
C3058 C3050 1.574 . S
C3058 H3053 0.949 . S
C3058 C3064 1.368 . S
C3059 C3043 1.349 . S
C3059 H3051 0.950 . S
C3059 C3057 1.327 . S
C3060 C3048 1.349 . S
C3060 H3054 0.950 . S
C3060 C3061 1.327 . S
C3061 H3055 0.950 . S
C3061 C3060 1.327 . S
C3061 C3065 1.429 . S
C3062 C3045 1.574 . S
C3062 H3056 0.949 . S
C3062 C3066 1.368 . S
C3063 C3044 1.429 . S
C3063 C3057 1.429 . S
C3063 C3064 1.523 . S
C3064 C3045 1.368 . S
C3064 C3058 1.368 . S
C3064 C3063 1.523 . S
C3065 C3049 1.429 . S
C3065 C3061 1.429 . S
C3065 C3066 1.523 . S
C3066 C3050 1.368 . S
C3066 C3062 1.368 . S
C3066 C3065 1.523 . S
H3067 C3042 0.950 . S
H3068 C3044 0.950 . S
H3069 C3045 0.949 . S
H3070 C3047 0.950 . S
H3071 C3049 0.950 . S
C3072 C3073 1.349 . S
C3072 C3074 1.327 . S
C3072 H3097 0.950 . S
C3073 C3072 1.349 . S
C3073 C3089 1.349 . S
C3074 C3072 1.327 . S
C3074 C3093 1.429 . S
C3074 H3098 0.950 . S
C3075 C3092 1.573 1_655 S
C3075 C3094 1.368 1_556 S
C3075 H3099 0.949 . S
H3076 C3080 0.949 . S
C3077 C3078 1.349 . S
C3077 C3079 1.327 . S
C3077 H3100 0.950 . S
C3078 C3077 1.349 . S
C3078 C3090 1.349 . S
C3079 C3077 1.327 . S
C3079 C3095 1.429 . S
C3079 H3101 0.950 . S
C3080 H3076 0.949 . S
C3080 C3088 1.574 1_455 S
C3080 C3096 1.368 1_554 S
H3081 C3089 0.950 . S
H3082 C3087 0.930 1_556 S
H3083 C3088 0.946 . S
H3084 C3090 0.950 . S
H3085 C3091 0.926 1_554 S
H3086 C3092 0.946 . S
C3087 H3082 0.930 1_554 S
C3087 C3089 1.327 . S
C3087 C3093 1.429 . S
C3088 C3080 1.574 1_655 S
C3088 H3083 0.946 . S
C3088 C3094 1.368 . S
C3089 C3073 1.349 . S
C3089 H3081 0.950 . S
C3089 C3087 1.327 . S
C3090 C3078 1.349 . S
C3090 H3084 0.950 . S
C3090 C3091 1.327 . S
C3091 H3085 0.926 1_556 S
C3091 C3090 1.327 . S
C3091 C3095 1.429 . S
C3092 C3075 1.573 1_455 S
C3092 H3086 0.946 . S
C3092 C3096 1.369 . S
C3093 C3074 1.429 . S
C3093 C3087 1.429 . S
C3093 C3094 1.523 . S
C3094 C3075 1.368 1_554 S
C3094 C3088 1.368 . S
C3094 C3093 1.523 . S
C3095 C3079 1.429 . S
C3095 C3091 1.429 . S
C3095 C3096 1.523 . S
C3096 C3080 1.368 1_556 S
C3096 C3092 1.369 . S
C3096 C3095 1.523 . S
H3097 C3072 0.950 . S
H3098 C3074 0.950 . S
H3099 C3075 0.949 . S
H3100 C3077 0.950 . S
H3101 C3079 0.950 . S
C3102 C3103 1.349 . S
C3102 C3104 1.327 . S
C3102 H3127 0.950 . S
C3103 C3102 1.349 . S
C3103 C3119 1.349 . S
C3104 C3102 1.327 . S
C3104 C3123 1.429 . S
C3104 H3128 0.950 . S
C3105 C3122 1.522 1_565 S
C3105 C3124 1.368 . S
C3105 H3129 0.949 . S
H3106 C3110 0.949 . S
C3107 C3108 1.349 . S
C3107 C3109 1.327 . S
C3107 H3130 0.950 . S
C3108 C3107 1.349 . S
C3108 C3120 1.349 . S
C3109 C3107 1.327 . S
C3109 C3125 1.429 . S
C3109 H3131 0.950 . S
C3110 H3106 0.949 . S
C3110 C3118 1.520 1_545 S
C3110 C3126 1.368 . S
H3111 C3119 0.950 . S
H3112 C3117 0.950 . S
H3113 C3118 0.943 . S
H3114 C3120 0.950 . S
H3115 C3121 0.950 . S
H3116 C3122 0.943 . S
C3117 H3112 0.950 . S
C3117 C3119 1.327 . S
C3117 C3123 1.429 . S
C3118 C3110 1.520 1_565 S
C3118 H3113 0.943 . S
C3118 C3124 1.434 . S
C3119 C3103 1.349 . S
C3119 H3111 0.950 . S
C3119 C3117 1.327 . S
C3120 C3108 1.349 . S
C3120 H3114 0.950 . S
C3120 C3121 1.327 . S
C3121 H3115 0.950 . S
C3121 C3120 1.327 . S
C3121 C3125 1.429 . S
C3122 C3105 1.522 1_545 S
C3122 H3116 0.943 . S
C3122 C3126 1.431 . S
C3123 C3104 1.429 . S
C3123 C3117 1.429 . S
C3123 C3124 1.523 . S
C3124 C3105 1.368 . S
C3124 C3118 1.434 . S
C3124 C3123 1.523 . S
C3125 C3109 1.429 . S
C3125 C3121 1.429 . S
C3125 C3126 1.523 . S
C3126 C3110 1.368 . S
C3126 C3122 1.431 . S
C3126 C3125 1.523 . S
H3127 C3102 0.950 . S
H3128 C3104 0.950 . S
H3129 C3105 0.949 . S
H3130 C3107 0.950 . S
H3131 C3109 0.950 . S
C3132 C3133 1.349 . S
C3132 C3134 1.327 . S
C3132 H3157 0.950 . S
C3133 C3132 1.349 . S
C3133 C3149 1.349 . S
C3134 C3132 1.327 . S
C3134 C3153 1.429 . S
C3134 H3158 0.950 . S
C3135 C3152 1.574 1_554 S
C3135 C3154 1.368 . S
C3135 H3159 0.949 . S
H3136 C3140 0.949 . S
C3137 C3138 1.349 . S
C3137 C3139 1.327 . S
C3137 H3160 0.950 . S
C3138 C3137 1.349 . S
C3138 C3150 1.349 . S
C3139 C3137 1.327 . S
C3139 C3155 1.429 . S
C3139 H3161 0.950 . S
C3140 H3136 0.949 . S
C3140 C3148 1.574 1_556 S
C3140 C3156 1.368 . S
H3141 C3149 0.950 . S
H3142 C3147 0.950 . S
H3143 C3148 0.949 . S
H3144 C3150 0.950 . S
H3145 C3151 0.950 . S
H3146 C3152 0.949 . S
C3147 H3142 0.950 . S
C3147 C3149 1.327 . S
C3147 C3153 1.429 . S
C3148 C3140 1.574 1_554 S
C3148 H3143 0.949 . S
C3148 C3154 1.368 . S
C3149 C3133 1.349 . S
C3149 H3141 0.950 . S
C3149 C3147 1.327 . S
C3150 C3138 1.349 . S
C3150 H3144 0.950 . S
C3150 C3151 1.327 . S
C3151 H3145 0.950 . S
C3151 C3150 1.327 . S
C3151 C3155 1.429 . S
C3152 C3135 1.574 1_556 S
C3152 H3146 0.949 . S
C3152 C3156 1.368 . S
C3153 C3134 1.429 . S
C3153 C3147 1.429 . S
C3153 C3154 1.523 . S
C3154 C3135 1.368 . S
C3154 C3148 1.368 . S
C3154 C3153 1.523 . S
C3155 C3139 1.429 . S
C3155 C3151 1.429 . S
C3155 C3156 1.523 . S
C3156 C3140 1.368 . S
C3156 C3152 1.368 . S
C3156 C3155 1.523 . S
H3157 C3132 0.950 . S
H3158 C3134 0.950 . S
H3159 C3135 0.949 . S
H3160 C3137 0.950 . S
H3161 C3139 0.950 . S
C3162 C3163 1.349 . S
C3162 C3164 1.327 . S
C3162 H3187 0.950 . S
C3163 C3162 1.349 . S
C3163 C3179 1.349 . S
C3164 C3162 1.327 . S
C3164 C3183 1.429 . S
C3164 H3188 0.950 . S
C3165 C3182 1.573 1_455 S
C3165 C3184 1.369 . S
C3165 H3189 0.946 . S
H3166 C3170 0.946 . S
C3167 C3168 1.349 . S
C3167 C3169 1.327 . S
C3167 H3190 0.950 . S
C3168 C3167 1.349 . S
C3168 C3180 1.349 . S
C3169 C3167 1.327 . S
C3169 C3185 1.429 . S
C3169 H3191 0.950 . S
C3170 H3166 0.946 . S
C3170 C3178 1.571 1_655 S
C3170 C3186 1.370 . S
H3171 C3179 0.950 . S
H3172 C3177 0.950 . S
H3173 C3178 0.949 . S
H3174 C3180 0.950 . S
H3175 C3181 0.950 . S
H3176 C3182 0.949 . S
C3177 H3172 0.950 . S
C3177 C3179 1.327 . S
C3177 C3183 1.429 . S
C3178 C3170 1.571 1_455 S
C3178 H3173 0.949 . S
C3178 C3184 1.368 . S
C3179 C3163 1.349 . S
C3179 H3171 0.950 . S
C3179 C3177 1.327 . S
C3180 C3168 1.349 . S
C3180 H3174 0.950 . S
C3180 C3181 1.327 . S
C3181 H3175 0.950 . S
C3181 C3180 1.327 . S
C3181 C3185 1.429 . S
C3182 C3165 1.573 1_655 S
C3182 H3176 0.949 . S
C3182 C3186 1.368 . S
C3183 C3164 1.429 . S
C3183 C3177 1.429 . S
C3183 C3184 1.523 . S
C3184 C3165 1.369 . S
C3184 C3178 1.368 . S
C3184 C3183 1.523 . S
C3185 C3169 1.429 . S
C3185 C3181 1.429 . S
C3185 C3186 1.523 . S
C3186 C3170 1.370 . S
C3186 C3182 1.368 . S
C3186 C3185 1.523 . S
H3187 C3162 0.950 . S
H3188 C3164 0.950 . S
H3189 C3165 0.946 . S
H3190 C3167 0.950 . S
H3191 C3169 0.950 . S
C3192 C3193 1.349 . S
C3192 C3194 1.327 . S
C3192 H3217 0.950 . S
C3193 C3192 1.349 . S
C3193 C3209 1.349 . S
C3194 C3192 1.327 . S
C3194 C3213 1.429 . S
C3194 H3218 0.950 . S
C3195 C3212 1.574 . S
C3195 C3214 1.368 . S
C3195 H3219 0.949 . S
H3196 C3200 0.949 . S
C3197 C3198 1.349 . S
C3197 C3199 1.327 . S
C3197 H3220 0.950 . S
C3198 C3197 1.349 . S
C3198 C3210 1.349 . S
C3199 C3197 1.327 . S
C3199 C3215 1.429 . S
C3199 H3221 0.950 . S
C3200 H3196 0.949 . S
C3200 C3208 1.574 . S
C3200 C3216 1.368 . S
H3201 C3209 0.950 . S
H3202 C3207 0.950 . S
H3203 C3208 0.949 . S
H3204 C3210 0.950 . S
H3205 C3211 0.950 . S
H3206 C3212 0.949 . S
C3207 H3202 0.950 . S
C3207 C3209 1.327 . S
C3207 C3213 1.429 . S
C3208 C3200 1.574 . S
C3208 H3203 0.949 . S
C3208 C3214 1.368 . S
C3209 C3193 1.349 . S
C3209 H3201 0.950 . S
C3209 C3207 1.327 . S
C3210 C3198 1.349 . S
C3210 H3204 0.950 . S
C3210 C3211 1.327 . S
C3211 H3205 0.950 . S
C3211 C3210 1.327 . S
C3211 C3215 1.429 . S
C3212 C3195 1.574 . S
C3212 H3206 0.949 . S
C3212 C3216 1.368 . S
C3213 C3194 1.429 . S
C3213 C3207 1.429 . S
C3213 C3214 1.523 . S
C3214 C3195 1.368 . S
C3214 C3208 1.368 . S
C3214 C3213 1.523 . S
C3215 C3199 1.429 . S
C3215 C3211 1.429 . S
C3215 C3216 1.523 . S
C3216 C3200 1.368 . S
C3216 C3212 1.368 . S
C3216 C3215 1.523 . S
H3217 C3192 0.950 . S
H3218 C3194 0.950 . S
H3219 C3195 0.949 . S
H3220 C3197 0.950 . S
H3221 C3199 0.950 . S
C3222 C3223 1.349 . S
C3222 C3224 1.327 . S
C3222 H3247 0.950 . S
C3223 C3222 1.349 . S
C3223 C3239 1.349 . S
C3224 C3222 1.327 . S
C3224 C3243 1.429 . S
C3224 H3248 0.950 . S
C3225 C3242 1.574 . S
C3225 C3244 1.368 . S
C3225 H3249 0.949 . S
H3226 C3230 0.949 . S
C3227 C3228 1.349 . S
C3227 C3229 1.327 . S
C3227 H3250 0.950 . S
C3228 C3227 1.349 . S
C3228 C3240 1.349 . S
C3229 C3227 1.327 . S
C3229 C3245 1.429 . S
C3229 H3251 0.950 . S
C3230 H3226 0.949 . S
C3230 C3238 1.574 . S
C3230 C3246 1.368 . S
H3231 C3239 0.950 . S
H3232 C3237 0.950 . S
H3233 C3238 0.949 . S
H3234 C3240 0.950 . S
H3235 C3241 0.950 . S
H3236 C3242 0.949 . S
C3237 H3232 0.950 . S
C3237 C3239 1.327 . S
C3237 C3243 1.429 . S
C3238 C3230 1.574 . S
C3238 H3233 0.949 . S
C3238 C3244 1.368 . S
C3239 C3223 1.349 . S
C3239 H3231 0.950 . S
C3239 C3237 1.327 . S
C3240 C3228 1.349 . S
C3240 H3234 0.950 . S
C3240 C3241 1.327 . S
C3241 H3235 0.950 . S
C3241 C3240 1.327 . S
C3241 C3245 1.429 . S
C3242 C3225 1.574 . S
C3242 H3236 0.949 . S
C3242 C3246 1.368 . S
C3243 C3224 1.429 . S
C3243 C3237 1.429 . S
C3243 C3244 1.523 . S
C3244 C3225 1.368 . S
C3244 C3238 1.368 . S
C3244 C3243 1.523 . S
C3245 C3229 1.429 . S
C3245 C3241 1.429 . S
C3245 C3246 1.523 . S
C3246 C3230 1.368 . S
C3246 C3242 1.368 . S
C3246 C3245 1.523 . S
H3247 C3222 0.950 . S
H3248 C3224 0.950 . S
H3249 C3225 0.949 . S
H3250 C3227 0.950 . S
H3251 C3229 0.950 . S
C3252 C3253 1.349 . S
C3252 C3254 1.327 . S
C3252 H3277 0.950 . S
C3253 C3252 1.349 . S
C3253 C3269 1.349 . S
C3254 C3252 1.327 . S
C3254 C3273 1.429 . S
C3254 H3278 0.950 . S
C3255 C3272 1.574 . S
C3255 C3274 1.368 . S
C3255 H3279 0.949 . S
H3256 C3260 0.949 . S
C3257 C3258 1.349 . S
C3257 C3259 1.327 . S
C3257 H3280 0.950 . S
C3258 C3257 1.349 . S
C3258 C3270 1.349 . S
C3259 C3257 1.327 . S
C3259 C3275 1.429 . S
C3259 H3281 0.950 . S
C3260 H3256 0.949 . S
C3260 C3268 1.574 . S
C3260 C3276 1.368 . S
H3261 C3269 0.950 . S
H3262 C3267 0.950 . S
H3263 C3268 0.949 . S
H3264 C3270 0.950 . S
H3265 C3271 0.950 . S
H3266 C3272 0.949 . S
C3267 H3262 0.950 . S
C3267 C3269 1.327 . S
C3267 C3273 1.429 . S
C3268 C3260 1.574 . S
C3268 H3263 0.949 . S
C3268 C3274 1.368 . S
C3269 C3253 1.349 . S
C3269 H3261 0.950 . S
C3269 C3267 1.327 . S
C3270 C3258 1.349 . S
C3270 H3264 0.950 . S
C3270 C3271 1.327 . S
C3271 H3265 0.950 . S
C3271 C3270 1.327 . S
C3271 C3275 1.429 . S
C3272 C3255 1.574 . S
C3272 H3266 0.949 . S
C3272 C3276 1.368 . S
C3273 C3254 1.429 . S
C3273 C3267 1.429 . S
C3273 C3274 1.523 . S
C3274 C3255 1.368 . S
C3274 C3268 1.368 . S
C3274 C3273 1.523 . S
C3275 C3259 1.429 . S
C3275 C3271 1.429 . S
C3275 C3276 1.523 . S
C3276 C3260 1.368 . S
C3276 C3272 1.368 . S
C3276 C3275 1.523 . S
H3277 C3252 0.950 . S
H3278 C3254 0.950 . S
H3279 C3255 0.949 . S
H3280 C3257 0.950 . S
H3281 C3259 0.950 . S
C3282 C3283 1.349 . S
C3282 C3284 1.327 . S
C3282 H3307 0.950 . S
C3283 C3282 1.349 . S
C3283 C3299 1.349 . S
C3284 C3282 1.327 . S
C3284 C3303 1.429 . S
C3284 H3308 0.950 . S
C3285 C3302 1.574 . S
C3285 C3304 1.368 . S
C3285 H3309 0.949 . S
H3286 C3290 0.949 . S
C3287 C3288 1.349 . S
C3287 C3289 1.327 . S
C3287 H3310 0.950 . S
C3288 C3287 1.349 . S
C3288 C3300 1.349 . S
C3289 C3287 1.327 . S
C3289 C3305 1.429 . S
C3289 H3311 0.950 . S
C3290 H3286 0.949 . S
C3290 C3298 1.574 . S
C3290 C3306 1.368 . S
H3291 C3299 0.950 . S
H3292 C3297 0.950 . S
H3293 C3298 0.949 . S
H3294 C3300 0.950 . S
H3295 C3301 0.950 . S
H3296 C3302 0.949 . S
C3297 H3292 0.950 . S
C3297 C3299 1.327 . S
C3297 C3303 1.429 . S
C3298 C3290 1.574 . S
C3298 H3293 0.949 . S
C3298 C3304 1.368 . S
C3299 C3283 1.349 . S
C3299 H3291 0.950 . S
C3299 C3297 1.327 . S
C3300 C3288 1.349 . S
C3300 H3294 0.950 . S
C3300 C3301 1.327 . S
C3301 H3295 0.950 . S
C3301 C3300 1.327 . S
C3301 C3305 1.429 . S
C3302 C3285 1.574 . S
C3302 H3296 0.949 . S
C3302 C3306 1.368 . S
C3303 C3284 1.429 . S
C3303 C3297 1.429 . S
C3303 C3304 1.523 . S
C3304 C3285 1.368 . S
C3304 C3298 1.368 . S
C3304 C3303 1.523 . S
C3305 C3289 1.429 . S
C3305 C3301 1.429 . S
C3305 C3306 1.523 . S
C3306 C3290 1.368 . S
C3306 C3302 1.368 . S
C3306 C3305 1.523 . S
H3307 C3282 0.950 . S
H3308 C3284 0.950 . S
H3309 C3285 0.949 . S
H3310 C3287 0.950 . S
H3311 C3289 0.950 . S
C3312 C3313 1.349 . S
C3312 C3314 1.327 . S
C3312 H3337 0.950 . S
C3313 C3312 1.349 . S
C3313 C3329 1.349 . S
C3314 C3312 1.327 . S
C3314 C3333 1.429 . S
C3314 H3338 0.950 . S
C3315 C3332 1.574 . S
C3315 C3334 1.368 . S
C3315 H3339 0.949 . S
H3316 C3320 0.949 . S
C3317 C3318 1.349 . S
C3317 C3319 1.327 . S
C3317 H3340 0.950 . S
C3318 C3317 1.349 . S
C3318 C3330 1.349 . S
C3319 C3317 1.327 . S
C3319 C3335 1.429 . S
C3319 H3341 0.950 . S
C3320 H3316 0.949 . S
C3320 C3328 1.574 . S
C3320 C3336 1.368 . S
H3321 C3329 0.950 . S
H3322 C3327 0.950 . S
H3323 C3328 0.949 . S
H3324 C3330 0.950 . S
H3325 C3331 0.950 . S
H3326 C3332 0.949 . S
C3327 H3322 0.950 . S
C3327 C3329 1.327 . S
C3327 C3333 1.429 . S
C3328 C3320 1.574 . S
C3328 H3323 0.949 . S
C3328 C3334 1.368 . S
C3329 C3313 1.349 . S
C3329 H3321 0.950 . S
C3329 C3327 1.327 . S
C3330 C3318 1.349 . S
C3330 H3324 0.950 . S
C3330 C3331 1.327 . S
C3331 H3325 0.950 . S
C3331 C3330 1.327 . S
C3331 C3335 1.429 . S
C3332 C3315 1.574 . S
C3332 H3326 0.949 . S
C3332 C3336 1.368 . S
C3333 C3314 1.429 . S
C3333 C3327 1.429 . S
C3333 C3334 1.523 . S
C3334 C3315 1.368 . S
C3334 C3328 1.368 . S
C3334 C3333 1.523 . S
C3335 C3319 1.429 . S
C3335 C3331 1.429 . S
C3335 C3336 1.523 . S
C3336 C3320 1.368 . S
C3336 C3332 1.368 . S
C3336 C3335 1.523 . S
H3337 C3312 0.950 . S
H3338 C3314 0.950 . S
H3339 C3315 0.949 . S
H3340 C3317 0.950 . S
H3341 C3319 0.950 . S
C3342 C3343 1.349 . S
C3342 C3344 1.327 . S
C3342 H3367 0.950 . S
C3343 C3342 1.349 . S
C3343 C3359 1.349 . S
C3344 C3342 1.327 . S
C3344 C3363 1.429 . S
C3344 H3368 0.950 . S
C3345 C3362 1.574 . S
C3345 C3364 1.368 . S
C3345 H3369 0.949 . S
H3346 C3350 0.949 . S
C3347 C3348 1.349 . S
C3347 C3349 1.327 . S
C3347 H3370 0.950 . S
C3348 C3347 1.349 . S
C3348 C3360 1.349 . S
C3349 C3347 1.327 . S
C3349 C3365 1.429 . S
C3349 H3371 0.950 . S
C3350 H3346 0.949 . S
C3350 C3358 1.574 . S
C3350 C3366 1.368 . S
H3351 C3359 0.950 . S
H3352 C3357 0.950 . S
H3353 C3358 0.949 . S
H3354 C3360 0.950 . S
H3355 C3361 0.950 . S
H3356 C3362 0.949 . S
C3357 H3352 0.950 . S
C3357 C3359 1.327 . S
C3357 C3363 1.429 . S
C3358 C3350 1.574 . S
C3358 H3353 0.949 . S
C3358 C3364 1.368 . S
C3359 C3343 1.349 . S
C3359 H3351 0.950 . S
C3359 C3357 1.327 . S
C3360 C3348 1.349 . S
C3360 H3354 0.950 . S
C3360 C3361 1.327 . S
C3361 H3355 0.950 . S
C3361 C3360 1.327 . S
C3361 C3365 1.429 . S
C3362 C3345 1.574 . S
C3362 H3356 0.949 . S
C3362 C3366 1.368 . S
C3363 C3344 1.429 . S
C3363 C3357 1.429 . S
C3363 C3364 1.523 . S
C3364 C3345 1.368 . S
C3364 C3358 1.368 . S
C3364 C3363 1.523 . S
C3365 C3349 1.429 . S
C3365 C3361 1.429 . S
C3365 C3366 1.523 . S
C3366 C3350 1.368 . S
C3366 C3362 1.368 . S
C3366 C3365 1.523 . S
H3367 C3342 0.950 . S
H3368 C3344 0.950 . S
H3369 C3345 0.949 . S
H3370 C3347 0.950 . S
H3371 C3349 0.950 . S
C3372 C3373 1.349 . S
C3372 C3374 1.327 . S
C3372 H3397 0.950 . S
C3373 C3372 1.349 . S
C3373 C3389 1.349 . S
C3374 C3372 1.327 . S
C3374 C3393 1.429 . S
C3374 H3398 0.950 . S
C3375 C3392 1.574 . S
C3375 C3394 1.368 . S
C3375 H3399 0.949 . S
H3376 C3380 0.949 . S
C3377 C3378 1.349 . S
C3377 C3379 1.327 . S
C3377 H3400 0.950 . S
C3378 C3377 1.349 . S
C3378 C3390 1.349 . S
C3379 C3377 1.327 . S
C3379 C3395 1.429 . S
C3379 H3401 0.950 . S
C3380 H3376 0.949 . S
C3380 C3388 1.574 . S
C3380 C3396 1.368 . S
H3381 C3389 0.950 . S
H3382 C3387 0.950 . S
H3383 C3388 0.949 . S
H3384 C3390 0.950 . S
H3385 C3391 0.950 . S
H3386 C3392 0.949 . S
C3387 H3382 0.950 . S
C3387 C3389 1.327 . S
C3387 C3393 1.429 . S
C3388 C3380 1.574 . S
C3388 H3383 0.949 . S
C3388 C3394 1.368 . S
C3389 C3373 1.349 . S
C3389 H3381 0.950 . S
C3389 C3387 1.327 . S
C3390 C3378 1.349 . S
C3390 H3384 0.950 . S
C3390 C3391 1.327 . S
C3391 H3385 0.950 . S
C3391 C3390 1.327 . S
C3391 C3395 1.429 . S
C3392 C3375 1.574 . S
C3392 H3386 0.949 . S
C3392 C3396 1.368 . S
C3393 C3374 1.429 . S
C3393 C3387 1.429 . S
C3393 C3394 1.523 . S
C3394 C3375 1.368 . S
C3394 C3388 1.368 . S
C3394 C3393 1.523 . S
C3395 C3379 1.429 . S
C3395 C3391 1.429 . S
C3395 C3396 1.523 . S
C3396 C3380 1.368 . S
C3396 C3392 1.368 . S
C3396 C3395 1.523 . S
H3397 C3372 0.950 . S
H3398 C3374 0.950 . S
H3399 C3375 0.949 . S
H3400 C3377 0.950 . S
H3401 C3379 0.950 . S
C3402 C3403 1.349 . S
C3402 C3404 1.327 . S
C3402 H3427 0.950 . S
C3403 C3402 1.349 . S
C3403 C3419 1.349 . S
C3404 C3402 1.327 . S
C3404 C3423 1.429 . S
C3404 H3428 0.950 . S
C3405 C3422 1.574 . S
C3405 C3424 1.368 . S
C3405 H3429 0.949 . S
H3406 C3410 0.949 . S
C3407 C3408 1.349 . S
C3407 C3409 1.327 . S
C3407 H3430 0.950 . S
C3408 C3407 1.349 . S
C3408 C3420 1.349 . S
C3409 C3407 1.327 . S
C3409 C3425 1.429 . S
C3409 H3431 0.950 . S
C3410 H3406 0.949 . S
C3410 C3418 1.574 . S
C3410 C3426 1.368 . S
H3411 C3419 0.950 . S
H3412 C3417 0.950 . S
H3413 C3418 0.949 . S
H3414 C3420 0.950 . S
H3415 C3421 0.950 . S
H3416 C3422 0.949 . S
C3417 H3412 0.950 . S
C3417 C3419 1.327 . S
C3417 C3423 1.429 . S
C3418 C3410 1.574 . S
C3418 H3413 0.949 . S
C3418 C3424 1.368 . S
C3419 C3403 1.349 . S
C3419 H3411 0.950 . S
C3419 C3417 1.327 . S
C3420 C3408 1.349 . S
C3420 H3414 0.950 . S
C3420 C3421 1.327 . S
C3421 H3415 0.950 . S
C3421 C3420 1.327 . S
C3421 C3425 1.429 . S
C3422 C3405 1.574 . S
C3422 H3416 0.949 . S
C3422 C3426 1.368 . S
C3423 C3404 1.429 . S
C3423 C3417 1.429 . S
C3423 C3424 1.523 . S
C3424 C3405 1.368 . S
C3424 C3418 1.368 . S
C3424 C3423 1.523 . S
C3425 C3409 1.429 . S
C3425 C3421 1.429 . S
C3425 C3426 1.523 . S
C3426 C3410 1.368 . S
C3426 C3422 1.368 . S
C3426 C3425 1.523 . S
H3427 C3402 0.950 . S
H3428 C3404 0.950 . S
H3429 C3405 0.949 . S
H3430 C3407 0.950 . S
H3431 C3409 0.950 . S
C3432 C3433 1.349 . S
C3432 C3434 1.327 . S
C3432 H3457 0.950 . S
C3433 C3432 1.349 . S
C3433 C3449 1.349 . S
C3434 C3432 1.327 . S
C3434 C3453 1.429 . S
C3434 H3458 0.950 . S
C3435 C3452 1.574 . S
C3435 C3454 1.368 . S
C3435 H3459 0.949 . S
H3436 C3440 0.949 . S
C3437 C3438 1.349 . S
C3437 C3439 1.327 . S
C3437 H3460 0.950 . S
C3438 C3437 1.349 . S
C3438 C3450 1.349 . S
C3439 C3437 1.327 . S
C3439 C3455 1.429 . S
C3439 H3461 0.950 . S
C3440 H3436 0.949 . S
C3440 C3448 1.574 . S
C3440 C3456 1.368 . S
H3441 C3449 0.950 . S
H3442 C3447 0.950 . S
H3443 C3448 0.949 . S
H3444 C3450 0.950 . S
H3445 C3451 0.950 . S
H3446 C3452 0.949 . S
C3447 H3442 0.950 . S
C3447 C3449 1.327 . S
C3447 C3453 1.429 . S
C3448 C3440 1.574 . S
C3448 H3443 0.949 . S
C3448 C3454 1.368 . S
C3449 C3433 1.349 . S
C3449 H3441 0.950 . S
C3449 C3447 1.327 . S
C3450 C3438 1.349 . S
C3450 H3444 0.950 . S
C3450 C3451 1.327 . S
C3451 H3445 0.950 . S
C3451 C3450 1.327 . S
C3451 C3455 1.429 . S
C3452 C3435 1.574 . S
C3452 H3446 0.949 . S
C3452 C3456 1.368 . S
C3453 C3434 1.429 . S
C3453 C3447 1.429 . S
C3453 C3454 1.523 . S
C3454 C3435 1.368 . S
C3454 C3448 1.368 . S
C3454 C3453 1.523 . S
C3455 C3439 1.429 . S
C3455 C3451 1.429 . S
C3455 C3456 1.523 . S
C3456 C3440 1.368 . S
C3456 C3452 1.368 . S
C3456 C3455 1.523 . S
H3457 C3432 0.950 . S
H3458 C3434 0.950 . S
H3459 C3435 0.949 . S
H3460 C3437 0.950 . S
H3461 C3439 0.950 . S
C3462 C3463 1.349 . S
C3462 C3464 1.327 . S
C3462 H3487 0.950 . S
C3463 C3462 1.349 . S
C3463 C3479 1.349 . S
C3464 C3462 1.327 . S
C3464 C3483 1.429 . S
C3464 H3488 0.950 . S
C3465 C3482 1.574 . S
C3465 C3484 1.368 . S
C3465 H3489 0.949 . S
H3466 C3470 0.949 . S
C3467 C3468 1.349 . S
C3467 C3469 1.327 . S
C3467 H3490 0.950 . S
C3468 C3467 1.349 . S
C3468 C3480 1.349 . S
C3469 C3467 1.327 . S
C3469 C3485 1.429 . S
C3469 H3491 0.950 . S
C3470 H3466 0.949 . S
C3470 C3478 1.574 . S
C3470 C3486 1.368 . S
H3471 C3479 0.950 . S
H3472 C3477 0.950 . S
H3473 C3478 0.949 . S
H3474 C3480 0.950 . S
H3475 C3481 0.950 . S
H3476 C3482 0.949 . S
C3477 H3472 0.950 . S
C3477 C3479 1.327 . S
C3477 C3483 1.429 . S
C3478 C3470 1.574 . S
C3478 H3473 0.949 . S
C3478 C3484 1.368 . S
C3479 C3463 1.349 . S
C3479 H3471 0.950 . S
C3479 C3477 1.327 . S
C3480 C3468 1.349 . S
C3480 H3474 0.950 . S
C3480 C3481 1.327 . S
C3481 H3475 0.950 . S
C3481 C3480 1.327 . S
C3481 C3485 1.429 . S
C3482 C3465 1.574 . S
C3482 H3476 0.949 . S
C3482 C3486 1.368 . S
C3483 C3464 1.429 . S
C3483 C3477 1.429 . S
C3483 C3484 1.523 . S
C3484 C3465 1.368 . S
C3484 C3478 1.368 . S
C3484 C3483 1.523 . S
C3485 C3469 1.429 . S
C3485 C3481 1.429 . S
C3485 C3486 1.523 . S
C3486 C3470 1.368 . S
C3486 C3482 1.368 . S
C3486 C3485 1.523 . S
H3487 C3462 0.950 . S
H3488 C3464 0.950 . S
H3489 C3465 0.949 . S
H3490 C3467 0.950 . S
H3491 C3469 0.950 . S
C3492 C3493 1.349 . S
C3492 C3494 1.327 . S
C3492 H3517 0.950 . S
C3493 C3492 1.349 . S
C3493 C3509 1.349 . S
C3494 C3492 1.327 . S
C3494 C3513 1.429 . S
C3494 H3518 0.950 . S
C3495 C3512 1.574 . S
C3495 C3514 1.368 . S
C3495 H3519 0.949 . S
H3496 C3500 0.949 . S
C3497 C3498 1.349 . S
C3497 C3499 1.327 . S
C3497 H3520 0.950 . S
C3498 C3497 1.349 . S
C3498 C3510 1.349 . S
C3499 C3497 1.327 . S
C3499 C3515 1.429 . S
C3499 H3521 0.950 . S
C3500 H3496 0.949 . S
C3500 C3508 1.574 . S
C3500 C3516 1.368 . S
H3501 C3509 0.950 . S
H3502 C3507 0.950 . S
H3503 C3508 0.949 . S
H3504 C3510 0.950 . S
H3505 C3511 0.950 . S
H3506 C3512 0.949 . S
C3507 H3502 0.950 . S
C3507 C3509 1.327 . S
C3507 C3513 1.429 . S
C3508 C3500 1.574 . S
C3508 H3503 0.949 . S
C3508 C3514 1.368 . S
C3509 C3493 1.349 . S
C3509 H3501 0.950 . S
C3509 C3507 1.327 . S
C3510 C3498 1.349 . S
C3510 H3504 0.950 . S
C3510 C3511 1.327 . S
C3511 H3505 0.950 . S
C3511 C3510 1.327 . S
C3511 C3515 1.429 . S
C3512 C3495 1.574 . S
C3512 H3506 0.949 . S
C3512 C3516 1.368 . S
C3513 C3494 1.429 . S
C3513 C3507 1.429 . S
C3513 C3514 1.523 . S
C3514 C3495 1.368 . S
C3514 C3508 1.368 . S
C3514 C3513 1.523 . S
C3515 C3499 1.429 . S
C3515 C3511 1.429 . S
C3515 C3516 1.523 . S
C3516 C3500 1.368 . S
C3516 C3512 1.368 . S
C3516 C3515 1.523 . S
H3517 C3492 0.950 . S
H3518 C3494 0.950 . S
H3519 C3495 0.949 . S
H3520 C3497 0.950 . S
H3521 C3499 0.950 . S
C3522 C3523 1.349 . S
C3522 C3524 1.327 . S
C3522 H3547 0.950 . S
C3523 C3522 1.349 . S
C3523 C3539 1.349 . S
C3524 C3522 1.327 . S
C3524 C3543 1.429 . S
C3524 H3548 0.950 . S
C3525 C3542 1.574 . S
C3525 C3544 1.368 . S
C3525 H3549 0.949 . S
H3526 C3530 0.949 . S
C3527 C3528 1.349 . S
C3527 C3529 1.327 . S
C3527 H3550 0.950 . S
C3528 C3527 1.349 . S
C3528 C3540 1.349 . S
C3529 C3527 1.327 . S
C3529 C3545 1.429 . S
C3529 H3551 0.950 . S
C3530 H3526 0.949 . S
C3530 C3538 1.574 . S
C3530 C3546 1.368 . S
H3531 C3539 0.950 . S
H3532 C3537 0.950 . S
H3533 C3538 0.949 . S
H3534 C3540 0.950 . S
H3535 C3541 0.950 . S
H3536 C3542 0.949 . S
C3537 H3532 0.950 . S
C3537 C3539 1.327 . S
C3537 C3543 1.429 . S
C3538 C3530 1.574 . S
C3538 H3533 0.949 . S
C3538 C3544 1.368 . S
C3539 C3523 1.349 . S
C3539 H3531 0.950 . S
C3539 C3537 1.327 . S
C3540 C3528 1.349 . S
C3540 H3534 0.950 . S
C3540 C3541 1.327 . S
C3541 H3535 0.950 . S
C3541 C3540 1.327 . S
C3541 C3545 1.429 . S
C3542 C3525 1.574 . S
C3542 H3536 0.949 . S
C3542 C3546 1.368 . S
C3543 C3524 1.429 . S
C3543 C3537 1.429 . S
C3543 C3544 1.523 . S
C3544 C3525 1.368 . S
C3544 C3538 1.368 . S
C3544 C3543 1.523 . S
C3545 C3529 1.429 . S
C3545 C3541 1.429 . S
C3545 C3546 1.523 . S
C3546 C3530 1.368 . S
C3546 C3542 1.368 . S
C3546 C3545 1.523 . S
H3547 C3522 0.950 . S
H3548 C3524 0.950 . S
H3549 C3525 0.949 . S
H3550 C3527 0.950 . S
H3551 C3529 0.950 . S
C2113 C1369 1.428 . S
C2118 C29 1.429 . S
C2143 C117 1.428 . S
C2148 C1465 1.428 . S
C2173 C196 1.429 . S
C2178 C1553 1.428 . S
C2203 C284 1.429 . S
C2208 C1105 1.428 . S
C2233 C1193 1.428 . S
C2238 C401 1.429 . S
C2263 C469 1.429 . S
C2268 C1289 1.428 . S
C2293 C1868 1.428 . S
C2298 C585 1.429 . S
C2323 C665 1.429 . S
C2328 C1956 1.428 . S
C2353 C761 1.429 . S
C2358 C2044 1.428 . S
C2383 C1613 1.428 . S
C2388 C841 1.429 . S
C2413 C937 1.429 . S
C2418 C1701 1.428 . S
C2443 C1780 1.428 . S
C2448 C1017 1.429 . S
C2473 C20 0.845 . S
C2478 C2081 0.846 . S
C2503 C1633 0.846 . S
C2508 C108 0.845 . S
C2533 C205 0.845 . S
C2538 C1721 0.846 . S
C2563 C1817 0.845 . S
C2568 C293 0.845 . S
C2593 C409 0.845 . S
C2598 C1905 0.846 . S
C2623 C1993 0.846 . S
C2628 C460 0.845 . S
C2653 C577 0.846 . S
C2658 C1173 0.847 . S
C2683 C1252 0.846 . S
C2688 C673 0.845 . S
C2713 C1349 0.846 . S
C2718 C753 0.845 . S
C2743 C1428 0.845 . S
C2748 C849 0.844 . S
C2773 C929 0.845 . S
C2778 C1516 0.846 . S
C2803 C1025 0.845 . S
C2808 C1085 0.846 . S
C2833 C636 0.752 . S
C2838 C57 0.752 . S
C2863 C733 0.752 . S
C2868 C145 0.752 . S
C2893 C812 0.752 . S
C2898 C225 0.752 . S
C2923 C909 0.752 . S
C2928 C313 0.752 . S
C2953 C372 0.752 . S
C2958 C988 0.752 . S
C2983 C497 0.752 . S
C2988 C557 0.752 . S
C3013 C1076 0.747 . S
C3018 C1729 0.747 . S
C3043 C1164 0.746 . S
C3048 C1809 0.746 . S
C3073 C1897 0.747 . S
C3078 C1261 0.747 . S
C3103 C1985 0.747 . S
C3108 C1340 0.747 . S
C3133 C2073 0.746 . S
C3138 C1437 0.746 . S
C3163 C1641 0.747 . S
C3168 C1525 0.747 . S
C3193 C49 1.470 . S
C3198 C1692 1.470 . S
C3223 C1789 1.470 . S
C3228 C137 1.471 . S
C3253 C233 1.471 . S
C3258 C1877 1.470 . S
C3283 C1965 1.470 . S
C3288 C321 1.471 . S
C3313 C381 1.471 . S
C3318 C2053 1.470 . S
C3343 C1604 1.471 . S
C3348 C489 1.472 . S
C3373 C548 1.470 . S
C3378 C1545 1.469 . S
C3403 C1113 1.470 . S
C3408 C645 1.471 . S
C3433 C724 1.471 . S
C3438 C1201 1.470 . S
C3463 C821 1.471 . S
C3468 C1281 1.471 . S
C3493 C900 1.471 . S
C3498 C1377 1.470 . S
C3523 C997 1.471 . S
C3528 C1457 1.470 . S
