# Generated by pormake.
# Topology wme, (6)-cn, num edge types: 1
# Building blocks:
#     Node 0, Type 0, BuildingBlock: BETFEN_clean_sbu_0, # of connection points: 6
#     Node 1, Type 0, BuildingBlock: BETFEN_clean_sbu_0, # of connection points: 6
#     Node 2, Type 0, BuildingBlock: BETFEN_clean_sbu_0, # of connection points: 6
#     Node 3, Type 0, BuildingBlock: BETFEN_clean_sbu_0, # of connection points: 6
#     Node 4, Type 0, BuildingBlock: BETFEN_clean_sbu_0, # of connection points: 6
#     Node 5, Type 0, BuildingBlock: BETFEN_clean_sbu_0, # of connection points: 6
#     Node 6, Type 0, BuildingBlock: BETFEN_clean_sbu_0, # of connection points: 6
#     Node 7, Type 0, BuildingBlock: BETFEN_clean_sbu_0, # of connection points: 6
#     Node 8, Type 0, BuildingBlock: BETFEN_clean_sbu_0, # of connection points: 6
#     Node 9, Type 0, BuildingBlock: BETFEN_clean_sbu_0, # of connection points: 6
#     Node 10, Type 0, BuildingBlock: BETFEN_clean_sbu_0, # of connection points: 6
#     Node 11, Type 0, BuildingBlock: BETFEN_clean_sbu_0, # of connection points: 6
#     Edge 12, Type (0, 0), BuildingBlock: OJICUG_clean_linker_0, # of connection points: 2
#     Edge 13, Type (0, 0), BuildingBlock: OJICUG_clean_linker_0, # of connection points: 2
#     Edge 14, Type (0, 0), BuildingBlock: OJICUG_clean_linker_0, # of connection points: 2
#     Edge 15, Type (0, 0), BuildingBlock: OJICUG_clean_linker_0, # of connection points: 2
#     Edge 16, Type (0, 0), BuildingBlock: OJICUG_clean_linker_0, # of connection points: 2
#     Edge 17, Type (0, 0), BuildingBlock: OJICUG_clean_linker_0, # of connection points: 2
#     Edge 18, Type (0, 0), BuildingBlock: OJICUG_clean_linker_0, # of connection points: 2
#     Edge 19, Type (0, 0), BuildingBlock: OJICUG_clean_linker_0, # of connection points: 2
#     Edge 20, Type (0, 0), BuildingBlock: OJICUG_clean_linker_0, # of connection points: 2
#     Edge 21, Type (0, 0), BuildingBlock: OJICUG_clean_linker_0, # of connection points: 2
#     Edge 22, Type (0, 0), BuildingBlock: OJICUG_clean_linker_0, # of connection points: 2
#     Edge 23, Type (0, 0), BuildingBlock: OJICUG_clean_linker_0, # of connection points: 2
#     Edge 24, Type (0, 0), BuildingBlock: OJICUG_clean_linker_0, # of connection points: 2
#     Edge 25, Type (0, 0), BuildingBlock: OJICUG_clean_linker_0, # of connection points: 2
#     Edge 26, Type (0, 0), BuildingBlock: OJICUG_clean_linker_0, # of connection points: 2
#     Edge 27, Type (0, 0), BuildingBlock: OJICUG_clean_linker_0, # of connection points: 2
#     Edge 28, Type (0, 0), BuildingBlock: OJICUG_clean_linker_0, # of connection points: 2
#     Edge 29, Type (0, 0), BuildingBlock: OJICUG_clean_linker_0, # of connection points: 2
#     Edge 30, Type (0, 0), BuildingBlock: OJICUG_clean_linker_0, # of connection points: 2
#     Edge 31, Type (0, 0), BuildingBlock: OJICUG_clean_linker_0, # of connection points: 2
#     Edge 32, Type (0, 0), BuildingBlock: OJICUG_clean_linker_0, # of connection points: 2
#     Edge 33, Type (0, 0), BuildingBlock: OJICUG_clean_linker_0, # of connection points: 2
#     Edge 34, Type (0, 0), BuildingBlock: OJICUG_clean_linker_0, # of connection points: 2
#     Edge 35, Type (0, 0), BuildingBlock: OJICUG_clean_linker_0, # of connection points: 2
#     Edge 36, Type (0, 0), BuildingBlock: OJICUG_clean_linker_0, # of connection points: 2
#     Edge 37, Type (0, 0), BuildingBlock: OJICUG_clean_linker_0, # of connection points: 2
#     Edge 38, Type (0, 0), BuildingBlock: OJICUG_clean_linker_0, # of connection points: 2
#     Edge 39, Type (0, 0), BuildingBlock: OJICUG_clean_linker_0, # of connection points: 2
#     Edge 40, Type (0, 0), BuildingBlock: OJICUG_clean_linker_0, # of connection points: 2
#     Edge 41, Type (0, 0), BuildingBlock: OJICUG_clean_linker_0, # of connection points: 2
#     Edge 42, Type (0, 0), BuildingBlock: OJICUG_clean_linker_0, # of connection points: 2
#     Edge 43, Type (0, 0), BuildingBlock: OJICUG_clean_linker_0, # of connection points: 2
#     Edge 44, Type (0, 0), BuildingBlock: OJICUG_clean_linker_0, # of connection points: 2
#     Edge 45, Type (0, 0), BuildingBlock: OJICUG_clean_linker_0, # of connection points: 2
#     Edge 46, Type (0, 0), BuildingBlock: OJICUG_clean_linker_0, # of connection points: 2
#     Edge 47, Type (0, 0), BuildingBlock: OJICUG_clean_linker_0, # of connection points: 2
# Relax obj value: 0.116
# Max RMSD: 0.231
# Mean RMSD: 0.231
data_MOF--net-wme--node1-BETFEN_clean_sbu_0--edge1-OJICUG_clean_linker_0
_symmetry_space_group_name_H-M    P1
_symmetry_Int_Tables_number       1
_symmetry_cell_setting            triclinic
loop_
_symmetry_equiv_pos_as_xyz
'x, y, z'
_cell_length_a     32.193644
_cell_length_b     32.162447
_cell_length_c     36.829665
_cell_angle_alpha  89.697222
_cell_angle_beta   90.324328
_cell_angle_gamma 120.28051
loop_
_atom_site_label
_atom_site_type_symbol
_atom_site_fract_x
_atom_site_fract_y
_atom_site_fract_z
_atom_type_partial_charge
Pr0 Pr 0.24972 0.39655 0.1084 0.0
Pr1 Pr 0.27825 0.33232 0.14453 0.0
C2 C 0.23037 0.46476 0.08495 0.0
C3 C 0.20803 0.49238 0.09757 0.0
C4 C 0.18404 0.50599 0.07255 0.0
C5 C 0.16651 0.53601 0.08313 0.0
C6 C 0.17286 0.55317 0.11897 0.0
C7 C 0.19509 0.53768 0.14438 0.0
C8 C 0.21242 0.50748 0.1338 0.0
C9 C 0.28564 0.35353 0.06039 0.0
C10 C 0.35759 0.44665 0.14198 0.0
C11 C 0.29247 0.25889 0.1625 0.0
C12 C 0.26547 0.20585 0.16215 0.0
C13 C 0.27547 0.18079 0.18865 0.0
C14 C 0.2553 0.13097 0.18615 0.0
C15 C 0.22502 0.10524 0.15685 0.0
C16 C 0.21274 0.13006 0.13143 0.0
C17 C 0.23281 0.18001 0.13405 0.0
C18 C 0.25676 0.3819 0.19533 0.0
C19 C 0.16296 0.29106 0.12611 0.0
O20 O 0.20183 0.41887 0.07879 0.0
O21 O 0.271 0.47444 0.10029 0.0
O22 O 0.30269 0.37151 0.09067 0.0
O23 O 0.24892 0.35832 0.05288 0.0
O24 O 0.35397 0.40383 0.13957 0.0
O25 O 0.3193 0.45099 0.13878 0.0
O26 O 0.30245 0.27986 0.13089 0.0
O27 O 0.28029 0.28071 0.18634 0.0
O28 O 0.23244 0.36349 0.16653 0.0
O29 O 0.293 0.37481 0.19807 0.0
O30 O 0.17456 0.33639 0.12629 0.0
O31 O 0.19715 0.27974 0.12541 0.0
H32 H 0.18021 0.49464 0.04448 0.0
H33 H 0.15012 0.54767 0.06277 0.0
H34 H 0.20008 0.54982 0.17228 0.0
H35 H 0.23037 0.497 0.15371 0.0
H36 H 0.3003 0.19998 0.2106 0.0
H37 H 0.26472 0.11275 0.20657 0.0
H38 H 0.1897 0.11134 0.1085 0.0
H39 H 0.22431 0.19865 0.11334 0.0
Pr40 Pr 0.88311 0.22661 0.60659 0.0
Pr41 Pr 0.98055 0.27059 0.63911 0.0
C42 C 0.79211 0.19419 0.58325 0.0
C43 C 0.74433 0.18606 0.59368 0.0
C44 C 0.72275 0.20599 0.57209 0.0
C45 C 0.67653 0.19687 0.57991 0.0
C46 C 0.65066 0.16726 0.60937 0.0
C47 C 0.67198 0.14688 0.63091 0.0
C48 C 0.71858 0.15638 0.62324 0.0
C49 C 0.95978 0.26172 0.55668 0.0
C50 C 0.93265 0.33808 0.63442 0.0
C51 C 0.0731 0.29642 0.6496 0.0
C52 C 0.09953 0.26995 0.6502 0.0
C53 C 0.13299 0.27907 0.67788 0.0
C54 C 0.15986 0.25594 0.67805 0.0
C55 C 0.15425 0.22353 0.65025 0.0
C56 C 0.11903 0.21271 0.62342 0.0
C57 C 0.09182 0.23563 0.62344 0.0
C58 C 0.9125 0.24634 0.69293 0.0
C59 C 0.91794 0.15111 0.62328 0.0
O60 O 0.80656 0.16678 0.59821 0.0
O61 O 0.82688 0.23853 0.57834 0.0
O62 O 0.95683 0.28263 0.58412 0.0
O63 O 0.92182 0.21947 0.55373 0.0
O64 O 0.97456 0.34003 0.63153 0.0
O65 O 0.89212 0.29629 0.63376 0.0
O66 O 0.05596 0.29979 0.61813 0.0
O67 O 1.04358 0.28817 0.67652 0.0
O68 O 0.90635 0.21991 0.6654 0.0
O69 O 0.95454 0.28538 0.69304 0.0
O70 O 0.87983 0.15491 0.61784 0.0
O71 O 0.96073 0.18951 0.62877 0.0
H72 H 0.74154 0.22835 0.54888 0.0
H73 H 0.66077 0.21269 0.56265 0.0
H74 H 0.65294 0.12431 0.65394 0.0
H75 H 0.73425 0.14032 0.64032 0.0
H76 H 0.13896 0.30475 0.69908 0.0
H77 H 0.18597 0.26436 0.69956 0.0
H78 H 0.11394 0.18817 0.60155 0.0
H79 H 0.06557 0.22729 0.60203 0.0
Pr80 Pr 0.68956 0.86913 0.1079 0.0
Pr81 Pr 0.74473 0.97005 0.1328 0.0
C82 C 0.63511 0.7753 0.08941 0.0
C83 C 0.59439 0.72814 0.09993 0.0
C84 C 0.57538 0.69075 0.07447 0.0
C85 C 0.53988 0.64428 0.08458 0.0
C86 C 0.52268 0.63429 0.12045 0.0
C87 C 0.54134 0.67223 0.14579 0.0
C88 C 0.57697 0.71875 0.13562 0.0
C89 C 0.73566 0.93952 0.05329 0.0
C90 C 0.62643 0.92102 0.12819 0.0
C91 C 0.80347 0.0659 0.13596 0.0
C92 C 0.85683 0.09636 0.13619 0.0
C93 C 0.88138 0.12201 0.16744 0.0
C94 C 0.93169 0.15044 0.16763 0.0
C95 C 0.95861 0.15383 0.13658 0.0
C96 C 0.93408 0.12757 0.10554 0.0
C97 C 0.88389 0.09932 0.10531 0.0
C98 C 0.72504 0.90706 0.19093 0.0
C99 C 0.79946 0.90807 0.12352 0.0
O100 O 0.6734 0.79238 0.10994 0.0
O101 O 0.62613 0.80842 0.07767 0.0
O102 O 0.7102 0.93955 0.07852 0.0
O103 O 0.7408 0.90219 0.05567 0.0
O104 O 0.6673 0.96145 0.13499 0.0
O105 O 0.62537 0.88059 0.12011 0.0
O106 O 0.78409 0.04281 0.10579 0.0
O107 O 0.7828 0.03999 0.16497 0.0
O108 O 0.69461 0.90008 0.16612 0.0
O109 O 0.76606 0.94569 0.18504 0.0
O110 O 0.75703 0.87123 0.13056 0.0
O111 O 0.80424 0.95055 0.11622 0.0
H112 H 0.58855 0.69734 0.04681 0.0
H113 H 0.52559 0.61628 0.06418 0.0
H114 H 0.52901 0.6658 0.17364 0.0
H115 H 0.59153 0.74714 0.15574 0.0
H116 H 0.86167 0.12021 0.1917 0.0
H117 H 0.94957 0.16993 0.1921 0.0
H118 H 0.95358 0.1299 0.08102 0.0
H119 H 0.86642 0.08004 0.0807 0.0
Pr120 Pr 0.84109 0.66921 0.61083 0.0
Pr121 Pr 0.80301 0.72611 0.6441 0.0
C122 C 0.86643 0.60592 0.58633 0.0
C123 C 0.88296 0.57307 0.59909 0.0
C124 C 0.91272 0.56423 0.57668 0.0
C125 C 0.92551 0.53009 0.58662 0.0
C126 C 0.90863 0.50392 0.61922 0.0
C127 C 0.88015 0.51416 0.64226 0.0
C128 C 0.86749 0.54845 0.63232 0.0
C129 C 0.81296 0.71826 0.56126 0.0
C130 C 0.72909 0.61102 0.63538 0.0
C131 C 0.78507 0.79784 0.65774 0.0
C132 C 0.81146 0.85052 0.65143 0.0
C133 C 0.81952 0.88198 0.68037 0.0
C134 C 0.8439 0.93186 0.67474 0.0
C135 C 0.86035 0.95124 0.63994 0.0
C136 C 0.85314 0.91974 0.61113 0.0
C137 C 0.82921 0.86994 0.61683 0.0
C138 C 0.82126 0.67646 0.69768 0.0
C139 C 0.92104 0.77304 0.6335 0.0
O140 O 0.89667 0.65214 0.58868 0.0
O141 O 0.82231 0.5942 0.59414 0.0
O142 O 0.79014 0.69374 0.58809 0.0
O143 O 0.85313 0.71845 0.55838 0.0
O144 O 0.72993 0.65263 0.63508 0.0
O145 O 0.76944 0.61012 0.63568 0.0
O146 O 0.76873 0.7703 0.62909 0.0
O147 O 0.80312 0.78164 0.68206 0.0
O148 O 0.84859 0.69656 0.67051 0.0
O149 O 0.78355 0.68138 0.69697 0.0
O150 O 0.91124 0.7284 0.63547 0.0
O151 O 0.88544 0.7821 0.62935 0.0
H152 H 0.92499 0.5828 0.5509 0.0
H153 H 0.94695 0.52279 0.56799 0.0
H154 H 0.86702 0.49513 0.66776 0.0
H155 H 0.84475 0.55493 0.65021 0.0
H156 H 0.80641 0.8679 0.7073 0.0
H157 H 0.84838 0.95518 0.69736 0.0
H158 H 0.86569 0.93364 0.58408 0.0
H159 H 0.82423 0.8467 0.59402 0.0
Pr160 Pr 0.20269 0.82959 0.11106 0.0
Pr161 Pr 0.10566 0.78905 0.14121 0.0
C162 C 0.29226 0.85651 0.08746 0.0
C163 C 0.34348 0.8779 0.09736 0.0
C164 C 0.37796 0.89901 0.06989 0.0
C165 C 0.42603 0.91325 0.07677 0.0
C166 C 0.44071 0.90679 0.11134 0.0
C167 C 0.40668 0.88833 0.13952 0.0
C168 C 0.35827 0.87375 0.13254 0.0
C169 C 0.12743 0.79993 0.05966 0.0
C170 C 0.14682 0.7161 0.13658 0.0
C171 C 1.01459 0.76954 0.14978 0.0
C172 C 0.98924 0.79673 0.14317 0.0
C173 C 0.98145 0.82088 0.17172 0.0
C174 C 0.95675 0.84577 0.16558 0.0
C175 C 0.93897 0.8467 0.13082 0.0
C176 C 0.94778 0.82353 0.10213 0.0
C177 C 0.97254 0.79882 0.1082 0.0
C178 C 0.17119 0.80747 0.19674 0.0
C179 C 0.17631 0.90758 0.13371 0.0
O180 O 0.27398 0.88464 0.08562 0.0
O181 O 0.26235 0.81376 0.10033 0.0
O182 O 0.12901 0.77696 0.08644 0.0
O183 O 0.16578 0.84205 0.05852 0.0
O184 O 0.10611 0.71666 0.13441 0.0
O185 O 0.18863 0.75638 0.13512 0.0
O186 O 1.02911 0.75658 0.12115 0.0
O187 O 0.04572 0.78403 0.17648 0.0
O188 O 0.17949 0.83528 0.16966 0.0
O189 O 0.12818 0.76981 0.1956 0.0
O190 O 0.21183 0.89887 0.13609 0.0
O191 O 0.13208 0.87154 0.12798 0.0
H192 H 0.36733 0.90258 0.04261 0.0
H193 H 0.4515 0.92763 0.0546 0.0
H194 H 0.41692 0.88261 0.16633 0.0
H195 H 0.33215 0.85753 0.15415 0.0
H196 H 0.99378 0.81993 0.19897 0.0
H197 H 0.94993 0.86267 0.18833 0.0
H198 H 0.93478 0.82383 0.07499 0.0
H199 H 0.97802 0.78089 0.08548 0.0
Pr200 Pr 0.39806 0.19103 0.6045 0.0
Pr201 Pr 0.34602 0.09541 0.6359 0.0
C202 C 0.4569 0.28023 0.57747 0.0
C203 C 0.49024 0.33062 0.58764 0.0
C204 C 0.52072 0.36221 0.56093 0.0
C205 C 0.55534 0.40934 0.56984 0.0
C206 C 0.56018 0.42595 0.60572 0.0
C207 C 0.52841 0.39483 0.63235 0.0
C208 C 0.4937 0.34725 0.62338 0.0
C209 C 0.35091 0.11475 0.55447 0.0
C210 C 0.4615 0.14265 0.62871 0.0
C211 C 0.27791 1.00266 0.64592 0.0
C212 C 0.22488 0.97475 0.64609 0.0
C213 C 0.20129 0.93875 0.67227 0.0
C214 C 0.15125 0.91006 0.67184 0.0
C215 C 0.12365 0.91648 0.64497 0.0
C216 C 0.1472 0.95401 0.61962 0.0
C217 C 0.19744 0.98296 0.62018 0.0
C218 C 0.39438 0.16084 0.69083 0.0
C219 C 0.29576 0.1644 0.63248 0.0
O220 O 0.41111 0.26297 0.58329 0.0
O221 O 0.47085 0.24926 0.5843 0.0
O222 O 0.37806 0.1179 0.57985 0.0
O223 O 0.34404 0.15106 0.55484 0.0
O224 O 0.42112 0.10053 0.62707 0.0
O225 O 0.46014 0.1828 0.62853 0.0
O226 O 0.29849 1.02008 0.61463 0.0
O227 O 0.29879 0.03245 0.67287 0.0
O228 O 0.37352 0.16874 0.66444 0.0
O229 O 0.38991 0.11836 0.68923 0.0
O230 O 0.34011 0.20022 0.63222 0.0
O231 O 0.28718 0.11992 0.62774 0.0
H232 H 0.51856 0.35003 0.53323 0.0
H233 H 0.57936 0.43257 0.54881 0.0
H234 H 0.53185 0.40659 0.66026 0.0
H235 H 0.47048 0.32318 0.6444 0.0
H236 H 0.22168 0.93223 0.69273 0.0
H237 H 0.13414 0.88204 0.69217 0.0
H238 H 0.12703 0.95974 0.59851 0.0
H239 H 0.21485 1.01102 0.5999 0.0
Pr240 Pr 0.68396 0.83084 0.41745 0.0
Pr241 Pr 0.74418 0.79305 0.38374 0.0
C242 C 0.62636 0.86508 0.4379 0.0
C243 C 0.58403 0.86939 0.4292 0.0
C244 C 0.56941 0.8921 0.45421 0.0
C245 C 0.53214 0.90083 0.44567 0.0
C246 C 0.50859 0.88689 0.41188 0.0
C247 C 0.52287 0.86336 0.38699 0.0
C248 C 0.5605 0.85489 0.39553 0.0
C249 C 0.73694 0.80829 0.46702 0.0
C250 C 0.62677 0.71716 0.39128 0.0
C251 C 0.80515 0.76151 0.36862 0.0
C252 C 0.85828 0.78863 0.36832 0.0
C253 C 0.88436 0.77328 0.34747 0.0
C254 C 0.93477 0.79764 0.34971 0.0
C255 C 0.95945 0.83749 0.37285 0.0
C256 C 0.93347 0.85371 0.39269 0.0
C257 C 0.88342 0.82981 0.39016 0.0
C258 C 0.71972 0.84337 0.33462 0.0
C259 C 0.79546 0.9065 0.40516 0.0
O260 O 0.66367 0.88842 0.41676 0.0
O261 O 0.61973 0.82336 0.44881 0.0
O262 O 0.71357 0.78402 0.44018 0.0
O263 O 0.73083 0.8448 0.4713 0.0
O264 O 0.66823 0.72179 0.38079 0.0
O265 O 0.62321 0.75339 0.40413 0.0
O266 O 0.78576 0.75685 0.40059 0.0
O267 O 0.78354 0.77216 0.34313 0.0
O268 O 0.69046 0.81302 0.35721 0.0
O269 O 0.76213 0.84844 0.33748 0.0
O270 O 0.75265 0.90115 0.40096 0.0
O271 O 0.80143 0.86893 0.40709 0.0
H272 H 0.58737 0.90379 0.48027 0.0
H273 H 0.52149 0.91818 0.4657 0.0
H274 H 0.50555 0.85233 0.36069 0.0
H275 H 0.5717 0.83776 0.37571 0.0
H276 H 0.86578 0.74184 0.33029 0.0
H277 H 0.95435 0.78431 0.33453 0.0
H278 H 0.95182 0.88401 0.41098 0.0
H279 H 0.86432 0.84275 0.4062 0.0
Pr280 Pr 0.88007 0.67537 0.92028 0.0
Pr281 Pr 0.9787 0.72684 0.889 0.0
C282 C 0.78844 0.61738 0.94309 0.0
C283 C 0.74049 0.58006 0.93045 0.0
C284 C 0.70188 0.56126 0.95479 0.0
C285 C 0.65559 0.52694 0.94332 0.0
C286 C 0.64689 0.51069 0.90716 0.0
C287 C 0.68592 0.52966 0.8828 0.0
C288 C 0.73231 0.56413 0.89434 0.0
C289 C 0.95607 0.71938 0.97086 0.0
C290 C 0.9273 0.61051 0.89582 0.0
C291 C 0.07268 0.79154 0.87901 0.0
C292 C 0.10316 0.84447 0.88042 0.0
C293 C 0.1456 0.86745 0.86012 0.0
C294 C 0.17605 0.91733 0.86236 0.0
C295 C 0.16473 0.94536 0.88504 0.0
C296 C 0.1213 0.92236 0.90452 0.0
C297 C 0.09082 0.87233 0.90228 0.0
C298 C 0.9106 0.68225 0.83461 0.0
C299 C 0.91774 0.78528 0.90167 0.0
O300 O 0.80453 0.66067 0.9302 0.0
O301 O 0.82181 0.60578 0.94572 0.0
O302 O 0.95315 0.69368 0.94461 0.0
O303 O 0.91844 0.72397 0.97245 0.0
O304 O 0.97001 0.65016 0.89779 0.0
O305 O 0.88772 0.61309 0.89535 0.0
O306 O 0.055 0.76972 0.90994 0.0
O307 O 1.04186 0.77373 0.85221 0.0
O308 O 0.90515 0.70378 0.86151 0.0
O309 O 0.9521 0.68445 0.83532 0.0
O310 O 0.8785 0.74326 0.90414 0.0
O311 O 0.96059 0.78918 0.89963 0.0
H312 H 0.70755 0.57316 0.98278 0.0
H313 H 0.62677 0.51246 0.96303 0.0
H314 H 0.68057 0.51815 0.85474 0.0
H315 H 0.76169 0.57849 0.87509 0.0
H316 H 0.15555 0.8467 0.84287 0.0
H317 H 0.20877 0.93396 0.84649 0.0
H318 H 0.11162 0.94277 0.92236 0.0
H319 H 0.05806 0.85532 0.91812 0.0
Pr320 Pr 0.23198 0.86392 0.41951 0.0
Pr321 Pr 0.27838 0.96184 0.38706 0.0
C322 C 0.19835 0.7731 0.44412 0.0
C323 C 0.19031 0.72493 0.4348 0.0
C324 C 0.20744 0.70272 0.45853 0.0
C325 C 0.19831 0.65619 0.4517 0.0
C326 C 0.17156 0.6306 0.42103 0.0
C327 C 0.15399 0.65261 0.39732 0.0
C328 C 0.16344 0.69949 0.40405 0.0
C329 C 0.26378 0.94094 0.46887 0.0
C330 C 0.34421 0.91234 0.39424 0.0
C331 C 0.30678 0.05534 0.37709 0.0
C332 C 0.28245 0.08385 0.376 0.0
C333 C 0.29449 0.11866 0.34883 0.0
C334 C 0.27313 0.1472 0.34807 0.0
C335 C 0.23945 0.14175 0.37466 0.0
C336 C 0.22622 0.10569 0.40121 0.0
C337 C 0.24746 0.07694 0.40185 0.0
C338 C 0.25616 0.89383 0.33343 0.0
C339 C 0.15799 0.89842 0.39737 0.0
O340 O 0.17166 0.78748 0.42784 0.0
O341 O 0.24253 0.80787 0.4496 0.0
O342 O 0.28654 0.93746 0.44293 0.0
O343 O 0.22099 0.90356 0.47035 0.0
O344 O 0.34662 0.95452 0.39667 0.0
O345 O 0.30227 0.87201 0.39437 0.0
O346 O 0.30826 0.03718 0.40861 0.0
O347 O 0.29819 1.02585 0.35004 0.0
O348 O 0.22876 0.88782 0.36021 0.0
O349 O 0.29529 0.93584 0.33392 0.0
O350 O 0.16159 0.86025 0.40327 0.0
O351 O 0.19658 0.94165 0.39379 0.0
H352 H 0.22766 0.72129 0.48262 0.0
H353 H 0.21203 0.64003 0.4706 0.0
H354 H 0.13381 0.63395 0.37326 0.0
H355 H 0.14964 0.71569 0.38529 0.0
H356 H 0.32091 0.1242 0.32841 0.0
H357 H 0.28352 0.17407 0.32687 0.0
H358 H 0.20073 0.1008 0.42223 0.0
H359 H 0.2371 0.0499 0.42294 0.0
Pr360 Pr 0.41044 0.23755 0.91416 0.0
Pr361 Pr 0.34585 0.26539 0.88014 0.0
C362 C 0.47985 0.21977 0.93728 0.0
C363 C 0.50852 0.19842 0.92494 0.0
C364 C 0.52012 0.1725 0.94968 0.0
C365 C 0.55098 0.15578 0.93964 0.0
C366 C 0.57103 0.16489 0.90464 0.0
C367 C 0.55764 0.18912 0.87941 0.0
C368 C 0.5266 0.20564 0.88943 0.0
C369 C 0.36899 0.27395 0.96337 0.0
C370 C 0.45986 0.3454 0.88191 0.0
C371 C 0.27182 0.27961 0.86509 0.0
C372 C 0.21919 0.25155 0.86121 0.0
C373 C 0.1961 0.27073 0.84072 0.0
C374 C 0.14625 0.25005 0.8425 0.0
C375 C 0.11865 0.21006 0.86513 0.0
C376 C 0.14145 0.18858 0.88346 0.0
C377 C 0.19146 0.20923 0.88153 0.0
C378 C 0.39342 0.24504 0.82724 0.0
C379 C 0.30498 0.14932 0.89827 0.0
O380 O 0.43415 0.19043 0.9433 0.0
O381 O 0.48866 0.26019 0.92203 0.0
O382 O 0.38658 0.29107 0.93307 0.0
O383 O 0.37283 0.2365 0.97016 0.0
O384 O 0.41714 0.34141 0.88629 0.0
O385 O 0.46393 0.30681 0.88294 0.0
O386 O 0.28813 0.28035 0.89764 0.0
O387 O 0.2981 0.27625 0.83965 0.0
O388 O 0.37646 0.21981 0.85598 0.0
O389 O 0.38607 0.28121 0.82602 0.0
O390 O 0.35031 0.16114 0.89891 0.0
O391 O 0.2935 0.18339 0.89708 0.0
H392 H 0.50647 0.16648 0.97719 0.0
H393 H 0.56093 0.13774 0.95985 0.0
H394 H 0.57201 0.19623 0.85211 0.0
H395 H 0.51776 0.22512 0.86971 0.0
H396 H 0.21683 0.30322 0.82484 0.0
H397 H 0.12949 0.26684 0.82753 0.0
H398 H 0.12116 0.15785 0.90112 0.0
H399 H 0.20867 0.19376 0.89755 0.0
Pr400 Pr 0.2066 0.38846 0.41766 0.0
Pr401 Pr 0.10396 0.32605 0.3878 0.0
C402 C 0.29948 0.44042 0.43878 0.0
C403 C 0.34896 0.47216 0.42596 0.0
C404 C 0.38716 0.47834 0.44806 0.0
C405 C 0.4344 0.51289 0.43936 0.0
C406 C 0.44441 0.54211 0.40835 0.0
C407 C 0.40625 0.53403 0.38506 0.0
C408 C 0.35875 0.49933 0.39387 0.0
C409 C 0.13275 0.34517 0.46958 0.0
C410 C 0.15114 0.44332 0.3964 0.0
C411 C 1.00935 0.26154 0.38282 0.0
C412 C 0.97908 0.20967 0.38988 0.0
C413 C 0.93683 0.18273 0.36965 0.0
C414 C 0.91059 0.1326 0.37289 0.0
C415 C 0.92593 0.10874 0.39677 0.0
C416 C 0.96787 0.13582 0.41739 0.0
C417 C 0.99474 0.18584 0.4134 0.0
C418 C 0.16061 0.3708 0.32728 0.0
C419 C 0.17699 0.28129 0.38811 0.0
O420 O 0.2786 0.39465 0.43084 0.0
O421 O 0.27037 0.45761 0.43739 0.0
O422 O 0.13781 0.32533 0.44208 0.0
O423 O 0.16684 0.38965 0.47122 0.0
O424 O 0.11084 0.40166 0.40174 0.0
O425 O 0.19191 0.44439 0.3909 0.0
O426 O 1.02838 0.29005 0.4109 0.0
O427 O 1.03929 0.27228 0.35589 0.0
O428 O 0.17719 0.3772 0.35937 0.0
O429 O 0.11434 0.34359 0.32643 0.0
O430 O 0.21237 0.32543 0.39379 0.0
O431 O 0.13144 0.27027 0.38877 0.0
H432 H 0.3803 0.45768 0.47289 0.0
H433 H 0.46306 0.51797 0.45765 0.0
H434 H 0.4128 0.55625 0.36116 0.0
H435 H 0.32962 0.49503 0.37643 0.0
H436 H 0.92481 0.20037 0.35068 0.0
H437 H 0.87826 0.11242 0.35674 0.0
H438 H 0.98069 0.11814 0.43562 0.0
H439 H 1.02849 0.20566 0.42771 0.0
Pr440 Pr 0.84514 0.18841 0.91557 0.0
Pr441 Pr 0.80305 0.09217 0.88236 0.0
C442 C 0.87369 0.27733 0.94197 0.0
C443 C 0.88347 0.32613 0.93216 0.0
C444 C 0.8645 0.34798 0.95411 0.0
C445 C 0.87346 0.39432 0.94627 0.0
C446 C 0.90189 0.42013 0.91632 0.0
C447 C 0.92157 0.39859 0.89454 0.0
C448 C 0.91224 0.35184 0.90228 0.0
C449 C 0.81696 0.11051 0.96426 0.0
C450 C 0.7332 0.1369 0.88841 0.0
C451 C 0.7815 1.00095 0.87078 0.0
C452 C 0.80831 0.9753 0.87692 0.0
C453 C 0.81706 0.95284 0.84777 0.0
C454 C 0.8427 0.92878 0.85314 0.0
C455 C 0.8598 0.92641 0.88787 0.0
C456 C 0.85183 0.94973 0.91689 0.0
C457 C 0.82658 0.9741 0.91147 0.0
C458 C 0.82271 0.16031 0.8287 0.0
C459 C 0.92207 0.16047 0.89212 0.0
O460 O 0.90347 0.26393 0.93056 0.0
O461 O 0.82889 0.24247 0.94174 0.0
O462 O 0.79334 0.11353 0.93853 0.0
O463 O 0.85893 0.14905 0.96594 0.0
O464 O 0.73227 0.09536 0.89035 0.0
O465 O 0.77429 0.17799 0.88964 0.0
O466 O 0.76763 1.01417 0.89965 0.0
O467 O 0.79777 0.03364 0.84517 0.0
O468 O 0.85006 0.16724 0.85589 0.0
O469 O 0.78461 0.11755 0.82906 0.0
O470 O 0.9149 0.19705 0.8928 0.0
O471 O 0.88513 0.11601 0.89439 0.0
H472 H 0.84269 0.32914 0.97751 0.0
H473 H 0.8583 0.41014 0.96384 0.0
H474 H 0.94332 0.4175 0.87117 0.0
H475 H 0.92739 0.33583 0.8849 0.0
H476 H 0.80367 0.95355 0.82085 0.0
H477 H 0.8477 0.91061 0.83035 0.0
H478 H 0.86481 0.94876 0.94391 0.0
H479 H 0.82115 0.99168 0.93445 0.0
C480 C 0.23358 0.99266 0.15029 0.0
C481 C 0.18703 0.95763 0.13924 0.0
H482 H 0.28177 0.06596 0.16404 0.0
C483 C 0.15225 0.97132 0.13398 0.0
H484 H 0.26144 0.98365 0.15459 0.0
C485 C 0.16415 1.01928 0.13964 0.0
C486 C 0.21079 0.05401 0.15107 0.0
H487 H 0.1161 0.94515 0.12541 0.0
H488 H 0.13684 1.02907 0.13547 0.0
C489 C 0.24524 0.04001 0.1561 0.0
C490 C 0.20843 0.14349 0.63242 0.0
C491 C 0.25744 0.17625 0.63875 0.0
H492 H 0.13671 0.13257 0.63118 0.0
C493 C 0.27126 0.22325 0.64995 0.0
H494 H 0.19672 0.1071 0.62368 0.0
C495 C 0.23757 0.23768 0.65403 0.0
C496 C 0.18866 0.20562 0.64733 0.0
H497 H 0.30861 0.24967 0.65518 0.0
H498 H 0.25029 0.27472 0.66154 0.0
C499 C 0.17425 0.15818 0.63651 0.0
C500 C 1.03121 0.23392 0.14959 0.0
C501 C 1.01166 0.1872 0.13565 0.0
H502 H 0.09382 0.30281 0.15735 0.0
C503 C 1.04286 0.17389 0.11945 0.0
H504 H 1.00829 0.24558 0.16185 0.0
C505 C 0.09248 0.20691 0.11704 0.0
C506 C 0.11147 0.25404 0.13009 0.0
H507 H 1.02887 0.13801 0.10859 0.0
H508 H 0.11565 0.19602 0.10417 0.0
C509 C 0.0803 0.2669 0.14666 0.0
C510 C 0.91563 0.03847 0.65659 0.0
C511 C 0.88104 1.00363 0.63309 0.0
H512 H 0.95596 0.11343 0.67117 0.0
C513 C 0.86338 1.01892 0.60413 0.0
H514 H 0.93002 1.02768 0.67903 0.0
C515 C 0.87774 0.06747 0.59997 0.0
C516 C 0.91078 0.10204 0.62421 0.0
H517 H 0.83649 0.99302 0.58575 0.0
H518 H 0.86167 0.07784 0.57843 0.0
C519 C 0.93082 0.08746 0.65192 0.0
C520 C 0.8636 0.84003 0.10615 0.0
C521 C 0.90693 0.86706 0.12525 0.0
H522 H 0.79624 0.83255 0.0905 0.0
C523 C 0.91715 0.91125 0.14075 0.0
H524 H 0.85427 0.80563 0.09428 0.0
C525 C 0.88374 0.9271 0.13818 0.0
C526 C 0.83946 0.89843 0.12067 0.0
H527 H 0.95043 0.93293 0.1555 0.0
H528 H 0.89133 0.96018 0.15148 0.0
C529 C 0.83025 0.85539 0.10409 0.0
C530 C 1.00688 0.7978 0.64302 0.0
C531 C 0.9723 0.81141 0.63623 0.0
H532 H 0.08074 0.81971 0.65039 0.0
C533 C 0.98783 0.86059 0.63189 0.0
H534 H 0.99666 0.76035 0.64631 0.0
C535 C 1.03708 0.89525 0.63448 0.0
C536 C 0.07129 0.88116 0.64178 0.0
H537 H 0.96212 0.87219 0.62645 0.0
H538 H 0.04832 0.93297 0.63125 0.0
C539 C 0.05543 0.83202 0.64568 0.0
C540 C 0.09545 0.90842 0.36394 0.0
C541 C 0.10898 0.89059 0.39387 0.0
H542 H 1.03639 0.90441 0.33316 0.0
C543 C 0.0734 0.85801 0.41771 0.0
H544 H 0.12227 0.93294 0.34489 0.0
C545 C 1.02499 0.84213 0.41117 0.0
C546 C 1.01116 0.85784 0.38033 0.0
H547 H 0.08299 0.84358 0.44086 0.0
H548 H 0.99814 0.81623 0.42957 0.0
C549 C 0.04658 0.89176 0.35701 0.0
C550 C 0.24886 1.01391 0.89303 0.0
C551 C 0.19959 0.99781 0.8896 0.0
H552 H 0.32002 0.07343 0.89876 0.0
C553 C 0.18456 0.03207 0.89057 0.0
H554 H 0.26167 0.98857 0.89321 0.0
C555 C 0.2184 0.08143 0.89389 0.0
C556 C 0.26781 0.09735 0.8966 0.0
H557 H 0.14681 1.02081 0.88796 0.0
H558 H 0.20593 0.10704 0.89389 0.0
C559 C 0.28238 0.06281 0.8965 0.0
C560 C 0.23828 0.25872 0.37319 0.0
C561 C 0.19039 0.24404 0.3821 0.0
H562 H 0.29106 0.23847 0.36445 0.0
C563 C 0.15767 0.19473 0.38735 0.0
H564 H 0.26457 0.29638 0.36891 0.0
C565 C 0.17313 0.16106 0.3846 0.0
C566 C 0.22138 0.17616 0.37618 0.0
H567 H 0.12063 0.18237 0.39447 0.0
H568 H 0.14743 0.12332 0.38915 0.0
C569 C 0.25352 0.22536 0.37031 0.0
C570 C 0.05653 0.23121 0.88027 0.0
C571 C 0.0679 0.19537 0.87299 0.0
H572 H 1.0025 0.24829 0.89243 0.0
C573 C 1.03105 0.14674 0.87421 0.0
H574 H 0.08425 0.26888 0.88071 0.0
C575 C 0.9833 0.13456 0.88116 0.0
C576 C 0.97205 0.17091 0.88727 0.0
H577 H 1.03898 0.11835 0.86904 0.0
H578 H 0.95529 0.09702 0.88113 0.0
C579 C 1.00945 0.21921 0.8873 0.0
C580 C 0.88181 0.0333 0.43372 0.0
C581 C 0.8982 0.05566 0.39976 0.0
H582 H 0.83583 0.96719 0.46201 0.0
C583 C 0.88545 1.02718 0.36834 0.0
H584 H 0.89092 0.05463 0.45825 0.0
C585 C 0.8549 0.9774 0.37062 0.0
C586 C 0.83664 0.9555 0.4043 0.0
H587 H 0.89795 0.04364 0.34191 0.0
H588 H 0.84344 0.95635 0.34589 0.0
C589 C 0.85073 0.98349 0.43592 0.0
C590 C 0.93114 0.86263 0.87433 0.0
C591 C 0.91188 0.8278 0.90192 0.0
H592 H 0.92932 0.92147 0.84792 0.0
C593 C 0.87977 0.82906 0.9269 0.0
H594 H 0.95554 0.86191 0.85454 0.0
C595 C 0.86515 0.86296 0.9234 0.0
C596 C 0.88166 0.89588 0.8944 0.0
H597 H 0.8643 0.80234 0.94833 0.0
H598 H 0.83866 0.86147 0.94219 0.0
C599 C 0.91575 0.89623 0.87037 0.0
C600 C 0.18797 0.67078 0.15299 0.0
C601 C 0.14758 0.67055 0.1381 0.0
H602 H 0.22745 0.63412 0.15868 0.0
C603 C 0.1124 0.62898 0.12034 0.0
H604 H 0.21569 0.70233 0.16688 0.0
C605 C 0.11932 0.58964 0.11542 0.0
C606 C 0.16119 0.59104 0.12862 0.0
H607 H 0.08111 0.628 0.10837 0.0
H608 H 0.09269 0.55877 0.1003 0.0
C609 C 0.19461 0.63149 0.14845 0.0
C610 C 0.59597 0.19959 0.61928 0.0
C611 C 0.60236 0.15968 0.61796 0.0
H612 H 0.54737 0.22552 0.62429 0.0
C613 C 0.56227 0.11332 0.62315 0.0
H614 H 0.62627 0.23573 0.61589 0.0
C615 C 0.51611 0.10708 0.62775 0.0
C616 C 0.50972 0.14723 0.62778 0.0
H617 H 0.56638 0.08193 0.62228 0.0
H618 H 0.48552 0.07103 0.63044 0.0
C619 C 0.55048 0.19352 0.6243 0.0
C620 C 0.44562 0.57877 0.15259 0.0
C621 C 0.48402 0.58493 0.13084 0.0
H622 H 0.37605 0.52971 0.17391 0.0
C623 C 0.48345 0.54367 0.11737 0.0
H624 H 0.44458 0.60957 0.1632 0.0
C625 C 0.44401 0.49753 0.12377 0.0
C626 C 0.40436 0.49198 0.14347 0.0
H627 H 0.51284 0.54716 0.10093 0.0
H628 H 0.44317 0.4667 0.11126 0.0
C629 C 0.40629 0.53291 0.15874 0.0
C630 C 0.96197 0.46711 0.61986 0.0
C631 C 0.91745 0.46354 0.62754 0.0
H632 H 1.00216 0.4305 0.61659 0.0
C633 C 0.87989 0.4196 0.64084 0.0
H634 H 0.99184 0.50059 0.60996 0.0
C635 C 0.88585 0.37968 0.64469 0.0
C636 C 0.9296 0.38258 0.63551 0.0
H637 H 0.84499 0.41526 0.64668 0.0
H638 H 0.85547 0.346 0.65378 0.0
C639 C 0.96805 0.42709 0.62396 0.0
C640 C 0.56574 0.94411 0.14896 0.0
C641 C 0.58042 0.9206 0.12454 0.0
H642 H 0.5089 0.95732 0.16453 0.0
C643 C 0.54961 0.89416 0.09582 0.0
H644 H 0.5888 0.96456 0.17139 0.0
C645 C 0.50504 0.89079 0.09155 0.0
C646 C 0.48949 0.91315 0.11619 0.0
H647 H 0.56006 0.87593 0.07639 0.0
H648 H 0.48215 0.86964 0.06924 0.0
C649 C 0.52012 0.93977 0.14512 0.0
C650 C 0.63848 0.55489 0.64014 0.0
C651 C 0.68436 0.56408 0.62982 0.0
H652 H 0.56245 0.50282 0.64143 0.0
C653 C 0.68837 0.5273 0.61259 0.0
H654 H 0.63431 0.58249 0.65348 0.0
C655 C 0.64802 0.4829 0.60537 0.0
C656 C 0.60218 0.47339 0.61542 0.0
H657 H 0.7229 0.53295 0.60382 0.0
H658 H 0.65274 0.45577 0.59174 0.0
C659 C 0.59759 0.50944 0.63341 0.0
C660 C 0.432 0.94628 0.40789 0.0
C661 C 0.38842 0.90889 0.39403 0.0
H662 H 0.50427 0.96869 0.42436 0.0
C663 C 0.38603 0.86582 0.38326 0.0
H664 H 0.43495 0.97981 0.41652 0.0
C665 C 0.42564 0.85945 0.38768 0.0
C666 C 0.46845 0.89581 0.40334 0.0
H667 H 0.35302 0.83635 0.37232 0.0
H668 H 0.42198 0.82519 0.38032 0.0
C669 C 0.47153 0.9397 0.41269 0.0
C670 C 0.55614 0.47109 0.90872 0.0
C671 C 0.59783 0.47224 0.89566 0.0
H672 H 0.47911 0.43036 0.91378 0.0
C673 C 0.5923 0.43434 0.87352 0.0
H674 H 0.55906 0.50006 0.92543 0.0
C675 C 0.54667 0.39493 0.86661 0.0
C676 C 0.50528 0.39236 0.88151 0.0
H677 H 0.62338 0.43365 0.8632 0.0
H678 H 0.54402 0.36513 0.8511 0.0
C679 C 0.51025 0.43158 0.90159 0.0
C680 C 0.11949 0.54259 0.40415 0.0
C681 C 0.16479 0.5823 0.41315 0.0
H682 H 0.07891 0.46659 0.39222 0.0
C683 C 0.20454 0.57575 0.4155 0.0
H684 H 0.08819 0.54674 0.40222 0.0
C685 C 0.1994 0.53078 0.4095 0.0
C686 C 0.1542 0.49058 0.4012 0.0
H687 H 0.23995 0.60563 0.42198 0.0
H688 H 0.2312 0.52756 0.4121 0.0
C689 C 0.1141 0.49682 0.39859 0.0
C690 C 0.69032 0.18121 0.87389 0.0
C691 C 0.68848 0.13923 0.88708 0.0
H692 H 0.65497 0.22208 0.86908 0.0
C693 C 0.64571 0.10321 0.90294 0.0
H694 H 0.72276 0.20964 0.86147 0.0
C695 C 0.60657 0.11049 0.90749 0.0
C696 C 0.60938 0.15362 0.8958 0.0
H697 H 0.6434 0.07064 0.91358 0.0
H698 H 0.57461 0.08295 0.921 0.0
C699 C 0.65126 0.18825 0.87807 0.0
C700 C 0.51664 0.61459 0.43298 0.0
C701 C 0.49336 0.58448 0.40322 0.0
H702 H 0.5771 0.67971 0.45204 0.0
C703 C 0.51621 0.59678 0.3691 0.0
H704 H 0.49978 0.60671 0.45945 0.0
C705 C 0.56135 0.63882 0.36495 0.0
C706 C 0.58341 0.66931 0.39475 0.0
H707 H 0.499 0.57419 0.34569 0.0
H708 H 0.57792 0.64844 0.3384 0.0
C709 C 0.56086 0.65651 0.42872 0.0
C710 C 0.96152 0.55467 0.89576 0.0
C711 C 0.92186 0.56177 0.89729 0.0
H712 H 0.98634 0.50393 0.90014 0.0
C713 C 0.8758 0.52145 0.90282 0.0
H714 H 0.99743 0.58488 0.89151 0.0
C715 C 0.86963 0.47574 0.90809 0.0
C716 C 0.90918 0.46865 0.90767 0.0
H717 H 0.84424 0.52519 0.9042 0.0
H718 H 0.8337 0.44582 0.91296 0.0
C719 C 0.95516 0.50837 0.90061 0.0
C720 C 0.2378 0.39819 0.29408 0.0
C721 C 0.18925 0.38537 0.29371 0.0
H722 H 0.29772 0.40776 0.2626 0.0
C723 C 0.16566 0.37924 0.2602 0.0
H724 H 0.25673 0.40304 0.31954 0.0
C725 C 0.18889 0.38182 0.2277 0.0
C726 C 0.23609 0.39037 0.22818 0.0
H727 H 0.12823 0.36967 0.25917 0.0
H728 H 0.16888 0.37409 0.20247 0.0
C729 C 0.26108 0.40067 0.26148 0.0
C730 C 0.90567 0.25159 0.76004 0.0
C731 C 0.88541 0.22765 0.7271 0.0
H732 H 0.90169 0.24886 0.81819 0.0
C733 C 0.84145 0.18416 0.72779 0.0
H734 H 0.93948 0.28538 0.76041 0.0
C735 C 0.81938 0.16379 0.76094 0.0
C736 C 0.84138 0.18614 0.79398 0.0
H737 H 0.82493 0.16515 0.70283 0.0
H738 H 0.78631 0.12929 0.76067 0.0
C739 C 0.88409 0.23081 0.79318 0.0
C740 C 0.73227 0.92272 0.25704 0.0
C741 C 0.71191 0.88935 0.22855 0.0
H742 H 0.74909 0.93361 0.31372 0.0
C743 C 0.68487 0.84004 0.23682 0.0
H744 H 0.75279 0.96102 0.25146 0.0
C745 C 0.68228 0.82438 0.27291 0.0
C746 C 0.70632 0.85801 0.3008 0.0
H747 H 0.66909 0.81371 0.21527 0.0
H748 H 0.66519 0.78614 0.2785 0.0
C749 C 0.72967 0.90719 0.29275 0.0
C750 C 0.88191 0.66714 0.73413 0.0
C751 C 0.83987 0.66994 0.73275 0.0
H752 H 0.93665 0.66768 0.76763 0.0
C753 C 0.81845 0.67171 0.76553 0.0
H754 H 0.89907 0.66561 0.70935 0.0
C755 C 0.84038 0.67386 0.79891 0.0
C756 C 0.88366 0.67339 0.80016 0.0
H757 H 0.78596 0.6739 0.7654 0.0
H758 H 0.82431 0.67744 0.8236 0.0
C759 C 0.90336 0.66838 0.76755 0.0
C760 C 0.17389 0.80253 0.26439 0.0
C761 C 0.19673 0.82508 0.23166 0.0
H762 H 0.17479 0.80691 0.32253 0.0
C763 C 0.24181 0.86729 0.23296 0.0
H764 H 0.13911 0.76981 0.26424 0.0
C765 C 0.26249 0.888 0.26634 0.0
C766 C 0.23805 0.86731 0.299 0.0
H767 H 0.26025 0.88524 0.20817 0.0
H768 H 0.29654 0.92156 0.2664 0.0
C769 C 0.1942 0.82371 0.29778 0.0
C770 C 0.40732 0.25176 0.76055 0.0
C771 C 0.40212 0.22663 0.79322 0.0
H772 H 0.4087 0.25039 0.70244 0.0
C773 C 0.40047 0.18227 0.79207 0.0
H774 H 0.40913 0.28631 0.76052 0.0
C775 C 0.40115 0.16214 0.75863 0.0
C776 C 0.40271 0.18578 0.7259 0.0
H777 H 0.39667 0.16228 0.81681 0.0
H778 H 0.39779 0.12689 0.7584 0.0
C779 C 0.40715 0.23133 0.72722 0.0
C780 C 0.32932 0.32288 0.97458 0.0
C781 C 0.34998 0.29645 0.98833 0.0
H782 H 0.28896 0.35794 0.9861 0.0
C783 C 0.35367 0.29346 0.02602 0.0
H784 H 0.33071 0.33068 0.94605 0.0
C785 C 0.33562 0.31507 0.0491 0.0
C786 C 0.30895 0.33542 0.03535 0.0
H787 H 0.37201 0.27602 0.03758 0.0
H788 H 0.34275 0.31586 0.07764 0.0
C789 C 0.30666 0.33984 0.99765 0.0
C790 C 0.07879 0.35244 0.51463 0.0
C791 C 0.08913 0.32337 0.49261 0.0
H792 H 1.02955 0.35551 0.55186 0.0
C793 C 0.05669 0.27348 0.49199 0.0
H794 H 0.10314 0.39098 0.51582 0.0
C795 C 1.01378 0.25312 0.51191 0.0
C796 C 1.00332 0.28234 0.53367 0.0
H797 H 0.06495 0.25024 0.4764 0.0
H798 H 0.98943 0.21457 0.51093 0.0
C799 C 1.03647 0.33211 0.53506 0.0
C800 C 0.80799 1.00763 0.02247 0.0
C801 C 0.75785 0.97956 0.02694 0.0
H802 H 0.86685 0.07277 0.99992 0.0
C803 C 0.72838 0.99506 1.01096 0.0
H804 H 0.8315 0.997 0.03544 0.0
C805 C 0.7482 0.03751 0.99077 0.0
C806 C 0.79824 0.06655 0.98693 0.0
H807 H 0.68972 0.9746 0.01467 0.0
H808 H 0.7242 0.04818 0.9787 0.0
C809 C 0.82817 0.05128 1.00284 0.0
C810 C 0.82257 0.77271 0.50837 0.0
C811 C 0.79555 0.7441 0.53782 0.0
H812 H 0.82515 0.81649 0.46313 0.0
C813 C 0.75063 0.73986 0.54506 0.0
H814 H 0.85722 0.77669 0.50209 0.0
C815 C 0.73281 0.76309 0.52318 0.0
C816 C 0.75934 0.79085 0.49343 0.0
H817 H 0.72866 0.71774 0.56735 0.0
H818 H 0.69751 0.75798 0.52875 0.0
C819 C 0.80441 0.79568 0.48625 0.0
C820 C 1.02571 0.79117 1.00062 0.0
C821 C 0.99801 0.74109 0.99548 0.0
H822 H 0.09008 0.84984 0.02409 0.0
C823 C 1.01388 0.71145 1.01061 0.0
H824 H 1.01459 0.81476 0.98844 0.0
C825 C 0.05609 0.73115 0.03116 0.0
C826 C 0.08446 0.78117 0.03596 0.0
H827 H 0.99349 0.67283 1.00653 0.0
H828 H 0.06688 0.70713 0.04304 0.0
C829 C 0.06911 0.81121 0.02041 0.0
C830 C 0.25618 1.00418 0.50387 0.0
C831 C 0.28395 0.98442 0.49188 0.0
H832 H 0.25614 0.06278 0.53215 0.0
C833 C 0.33349 1.00899 0.4993 0.0
H834 H 0.21801 0.98622 0.49797 0.0
C835 C 0.35483 0.05178 0.519 0.0
C836 C 0.32757 0.07209 0.53065 0.0
H837 H 0.3558 0.99477 0.49012 0.0
H838 H 0.39294 0.06917 0.52512 0.0
C839 C 0.27804 0.04822 0.52278 0.0
loop_
_geom_bond_atom_site_label_1
_geom_bond_atom_site_label_2
_geom_bond_distance
_geom_bond_site_symmetry_2
_ccdc_geom_bond_type
Pr0 C2 2.880 . S
Pr0 O20 2.562 . S
Pr0 O21 2.490 . S
Pr0 O22 2.695 . S
Pr0 O23 2.512 . S
Pr0 O25 2.437 . S
Pr0 O28 2.436 . S
Pr0 O30 2.438 . S
Pr1 C11 2.880 . S
Pr1 O22 2.436 . S
Pr1 O24 2.438 . S
Pr1 O26 2.562 . S
Pr1 O27 2.490 . S
Pr1 O28 2.695 . S
Pr1 O29 2.512 . S
Pr1 O31 2.437 . S
C2 Pr0 2.880 . S
C2 C3 1.491 . S
C2 O20 1.254 . S
C2 O21 1.225 . S
C3 C2 1.491 . S
C3 C4 1.392 . S
C3 C8 1.356 . S
C4 C3 1.392 . S
C4 C5 1.368 . S
C4 H32 0.929 . S
C5 C4 1.368 . S
C5 C6 1.386 . S
C5 H33 0.929 . S
C6 C5 1.386 . S
C6 C7 1.373 . S
C7 C6 1.373 . S
C7 C8 1.409 . S
C7 H34 0.931 . S
C8 C3 1.356 . S
C8 C7 1.409 . S
C8 H35 0.930 . S
C9 O22 1.270 . S
C9 O23 1.248 . S
C10 O24 1.267 . S
C10 O25 1.278 . S
C11 Pr1 2.880 . S
C11 C12 1.491 . S
C11 O26 1.254 . S
C11 O27 1.225 . S
C12 C11 1.491 . S
C12 C13 1.392 . S
C12 C17 1.356 . S
C13 C12 1.392 . S
C13 C14 1.368 . S
C13 H36 0.929 . S
C14 C13 1.368 . S
C14 C15 1.386 . S
C14 H37 0.929 . S
C15 C14 1.386 . S
C15 C16 1.373 . S
C16 C15 1.373 . S
C16 C17 1.409 . S
C16 H38 0.931 . S
C17 C12 1.356 . S
C17 C16 1.409 . S
C17 H39 0.930 . S
C18 O28 1.270 . S
C18 O29 1.248 . S
C19 O30 1.267 . S
C19 O31 1.278 . S
O20 Pr0 2.562 . S
O20 C2 1.254 . S
O21 Pr0 2.490 . S
O21 C2 1.225 . S
O22 Pr0 2.695 . S
O22 Pr1 2.436 . S
O22 C9 1.270 . S
O23 Pr0 2.512 . S
O23 C9 1.248 . S
O24 Pr1 2.438 . S
O24 C10 1.267 . S
O25 Pr0 2.437 . S
O25 C10 1.278 . S
O26 Pr1 2.562 . S
O26 C11 1.254 . S
O27 Pr1 2.490 . S
O27 C11 1.225 . S
O28 Pr0 2.436 . S
O28 Pr1 2.695 . S
O28 C18 1.270 . S
O29 Pr1 2.512 . S
O29 C18 1.248 . S
O30 Pr0 2.438 . S
O30 C19 1.267 . S
O31 Pr1 2.437 . S
O31 C19 1.278 . S
H32 C4 0.929 . S
H33 C5 0.929 . S
H34 C7 0.931 . S
H35 C8 0.930 . S
H36 C13 0.929 . S
H37 C14 0.929 . S
H38 C16 0.931 . S
H39 C17 0.930 . S
Pr40 C42 2.880 . S
Pr40 O60 2.562 . S
Pr40 O61 2.490 . S
Pr40 O62 2.695 . S
Pr40 O63 2.512 . S
Pr40 O65 2.437 . S
Pr40 O68 2.436 . S
Pr40 O70 2.438 . S
Pr41 C51 2.880 . S
Pr41 O62 2.436 . S
Pr41 O64 2.438 . S
Pr41 O66 2.562 . S
Pr41 O67 2.490 . S
Pr41 O68 2.695 . S
Pr41 O69 2.512 . S
Pr41 O71 2.437 . S
C42 Pr40 2.880 . S
C42 C43 1.491 . S
C42 O60 1.254 . S
C42 O61 1.225 . S
C43 C42 1.491 . S
C43 C44 1.392 . S
C43 C48 1.356 . S
C44 C43 1.392 . S
C44 C45 1.368 . S
C44 H72 0.929 . S
C45 C44 1.368 . S
C45 C46 1.386 . S
C45 H73 0.929 . S
C46 C45 1.386 . S
C46 C47 1.373 . S
C47 C46 1.373 . S
C47 C48 1.409 . S
C47 H74 0.931 . S
C48 C43 1.356 . S
C48 C47 1.409 . S
C48 H75 0.930 . S
C49 O62 1.270 . S
C49 O63 1.248 . S
C50 O64 1.267 . S
C50 O65 1.278 . S
C51 Pr41 2.880 . S
C51 C52 1.491 1_655 S
C51 O66 1.254 . S
C51 O67 1.225 . S
C52 C51 1.491 1_455 S
C52 C53 1.392 . S
C52 C57 1.356 . S
C53 C52 1.392 . S
C53 C54 1.368 . S
C53 H76 0.929 . S
C54 C53 1.368 . S
C54 C55 1.386 . S
C54 H77 0.929 . S
C55 C54 1.386 . S
C55 C56 1.373 . S
C56 C55 1.373 . S
C56 C57 1.409 . S
C56 H78 0.931 . S
C57 C52 1.356 . S
C57 C56 1.409 . S
C57 H79 0.930 . S
C58 O68 1.270 . S
C58 O69 1.248 . S
C59 O70 1.267 . S
C59 O71 1.278 . S
O60 Pr40 2.562 . S
O60 C42 1.254 . S
O61 Pr40 2.490 . S
O61 C42 1.225 . S
O62 Pr40 2.695 . S
O62 Pr41 2.436 . S
O62 C49 1.270 . S
O63 Pr40 2.512 . S
O63 C49 1.248 . S
O64 Pr41 2.438 . S
O64 C50 1.267 . S
O65 Pr40 2.437 . S
O65 C50 1.278 . S
O66 Pr41 2.562 . S
O66 C51 1.254 . S
O67 Pr41 2.490 . S
O67 C51 1.225 . S
O68 Pr40 2.436 . S
O68 Pr41 2.695 . S
O68 C58 1.270 . S
O69 Pr41 2.512 . S
O69 C58 1.248 . S
O70 Pr40 2.438 . S
O70 C59 1.267 . S
O71 Pr41 2.437 . S
O71 C59 1.278 . S
H72 C44 0.929 . S
H73 C45 0.929 . S
H74 C47 0.931 . S
H75 C48 0.930 . S
H76 C53 0.929 . S
H77 C54 0.929 . S
H78 C56 0.931 . S
H79 C57 0.930 . S
Pr80 C82 2.880 . S
Pr80 O100 2.562 . S
Pr80 O101 2.490 . S
Pr80 O102 2.695 . S
Pr80 O103 2.512 . S
Pr80 O105 2.437 . S
Pr80 O108 2.436 . S
Pr80 O110 2.438 . S
Pr81 C91 2.880 . S
Pr81 O102 2.436 . S
Pr81 O104 2.438 . S
Pr81 O106 2.562 . S
Pr81 O107 2.490 . S
Pr81 O108 2.695 . S
Pr81 O109 2.512 . S
Pr81 O111 2.437 . S
C82 Pr80 2.880 . S
C82 C83 1.491 . S
C82 O100 1.254 . S
C82 O101 1.225 . S
C83 C82 1.491 . S
C83 C84 1.392 . S
C83 C88 1.356 . S
C84 C83 1.392 . S
C84 C85 1.368 . S
C84 H112 0.929 . S
C85 C84 1.368 . S
C85 C86 1.386 . S
C85 H113 0.929 . S
C86 C85 1.386 . S
C86 C87 1.373 . S
C87 C86 1.373 . S
C87 C88 1.409 . S
C87 H114 0.931 . S
C88 C83 1.356 . S
C88 C87 1.409 . S
C88 H115 0.930 . S
C89 O102 1.270 . S
C89 O103 1.248 . S
C90 O104 1.267 . S
C90 O105 1.278 . S
C91 Pr81 2.880 . S
C91 C92 1.491 1_565 S
C91 O106 1.254 . S
C91 O107 1.225 . S
C92 C91 1.491 1_545 S
C92 C93 1.392 . S
C92 C97 1.356 . S
C93 C92 1.392 . S
C93 C94 1.368 . S
C93 H116 0.929 . S
C94 C93 1.368 . S
C94 C95 1.386 . S
C94 H117 0.929 . S
C95 C94 1.386 . S
C95 C96 1.373 . S
C96 C95 1.373 . S
C96 C97 1.409 . S
C96 H118 0.931 . S
C97 C92 1.356 . S
C97 C96 1.409 . S
C97 H119 0.930 . S
C98 O108 1.270 . S
C98 O109 1.248 . S
C99 O110 1.267 . S
C99 O111 1.278 . S
O100 Pr80 2.562 . S
O100 C82 1.254 . S
O101 Pr80 2.490 . S
O101 C82 1.225 . S
O102 Pr80 2.695 . S
O102 Pr81 2.436 . S
O102 C89 1.270 . S
O103 Pr80 2.512 . S
O103 C89 1.248 . S
O104 Pr81 2.438 . S
O104 C90 1.267 . S
O105 Pr80 2.437 . S
O105 C90 1.278 . S
O106 Pr81 2.562 . S
O106 C91 1.254 . S
O107 Pr81 2.490 . S
O107 C91 1.225 . S
O108 Pr80 2.436 . S
O108 Pr81 2.695 . S
O108 C98 1.270 . S
O109 Pr81 2.512 . S
O109 C98 1.248 . S
O110 Pr80 2.438 . S
O110 C99 1.267 . S
O111 Pr81 2.437 . S
O111 C99 1.278 . S
H112 C84 0.929 . S
H113 C85 0.929 . S
H114 C87 0.931 . S
H115 C88 0.930 . S
H116 C93 0.929 . S
H117 C94 0.929 . S
H118 C96 0.931 . S
H119 C97 0.930 . S
Pr120 C122 2.880 . S
Pr120 O140 2.562 . S
Pr120 O141 2.490 . S
Pr120 O142 2.695 . S
Pr120 O143 2.512 . S
Pr120 O145 2.437 . S
Pr120 O148 2.436 . S
Pr120 O150 2.438 . S
Pr121 C131 2.880 . S
Pr121 O142 2.436 . S
Pr121 O144 2.438 . S
Pr121 O146 2.562 . S
Pr121 O147 2.490 . S
Pr121 O148 2.695 . S
Pr121 O149 2.512 . S
Pr121 O151 2.437 . S
C122 Pr120 2.880 . S
C122 C123 1.491 . S
C122 O140 1.254 . S
C122 O141 1.225 . S
C123 C122 1.491 . S
C123 C124 1.392 . S
C123 C128 1.356 . S
C124 C123 1.392 . S
C124 C125 1.368 . S
C124 H152 0.929 . S
C125 C124 1.368 . S
C125 C126 1.386 . S
C125 H153 0.929 . S
C126 C125 1.386 . S
C126 C127 1.373 . S
C127 C126 1.373 . S
C127 C128 1.409 . S
C127 H154 0.931 . S
C128 C123 1.356 . S
C128 C127 1.409 . S
C128 H155 0.930 . S
C129 O142 1.270 . S
C129 O143 1.248 . S
C130 O144 1.267 . S
C130 O145 1.278 . S
C131 Pr121 2.880 . S
C131 C132 1.491 . S
C131 O146 1.254 . S
C131 O147 1.225 . S
C132 C131 1.491 . S
C132 C133 1.392 . S
C132 C137 1.356 . S
C133 C132 1.392 . S
C133 C134 1.368 . S
C133 H156 0.929 . S
C134 C133 1.368 . S
C134 C135 1.386 . S
C134 H157 0.929 . S
C135 C134 1.386 . S
C135 C136 1.373 . S
C136 C135 1.373 . S
C136 C137 1.409 . S
C136 H158 0.931 . S
C137 C132 1.356 . S
C137 C136 1.409 . S
C137 H159 0.930 . S
C138 O148 1.270 . S
C138 O149 1.248 . S
C139 O150 1.267 . S
C139 O151 1.278 . S
O140 Pr120 2.562 . S
O140 C122 1.254 . S
O141 Pr120 2.490 . S
O141 C122 1.225 . S
O142 Pr120 2.695 . S
O142 Pr121 2.436 . S
O142 C129 1.270 . S
O143 Pr120 2.512 . S
O143 C129 1.248 . S
O144 Pr121 2.438 . S
O144 C130 1.267 . S
O145 Pr120 2.437 . S
O145 C130 1.278 . S
O146 Pr121 2.562 . S
O146 C131 1.254 . S
O147 Pr121 2.490 . S
O147 C131 1.225 . S
O148 Pr120 2.436 . S
O148 Pr121 2.695 . S
O148 C138 1.270 . S
O149 Pr121 2.512 . S
O149 C138 1.248 . S
O150 Pr120 2.438 . S
O150 C139 1.267 . S
O151 Pr121 2.437 . S
O151 C139 1.278 . S
H152 C124 0.929 . S
H153 C125 0.929 . S
H154 C127 0.931 . S
H155 C128 0.930 . S
H156 C133 0.929 . S
H157 C134 0.929 . S
H158 C136 0.931 . S
H159 C137 0.930 . S
Pr160 C162 2.880 . S
Pr160 O180 2.562 . S
Pr160 O181 2.490 . S
Pr160 O182 2.695 . S
Pr160 O183 2.512 . S
Pr160 O185 2.437 . S
Pr160 O188 2.436 . S
Pr160 O190 2.438 . S
Pr161 C171 2.880 . S
Pr161 O182 2.436 . S
Pr161 O184 2.438 . S
Pr161 O186 2.562 . S
Pr161 O187 2.490 . S
Pr161 O188 2.695 . S
Pr161 O189 2.512 . S
Pr161 O191 2.437 . S
C162 Pr160 2.880 . S
C162 C163 1.491 . S
C162 O180 1.254 . S
C162 O181 1.225 . S
C163 C162 1.491 . S
C163 C164 1.392 . S
C163 C168 1.356 . S
C164 C163 1.392 . S
C164 C165 1.368 . S
C164 H192 0.929 . S
C165 C164 1.368 . S
C165 C166 1.386 . S
C165 H193 0.929 . S
C166 C165 1.386 . S
C166 C167 1.373 . S
C167 C166 1.373 . S
C167 C168 1.409 . S
C167 H194 0.931 . S
C168 C163 1.356 . S
C168 C167 1.409 . S
C168 H195 0.930 . S
C169 O182 1.270 . S
C169 O183 1.248 . S
C170 O184 1.267 . S
C170 O185 1.278 . S
C171 Pr161 2.880 . S
C171 C172 1.491 1_455 S
C171 O186 1.254 . S
C171 O187 1.225 . S
C172 C171 1.491 1_655 S
C172 C173 1.392 . S
C172 C177 1.356 . S
C173 C172 1.392 . S
C173 C174 1.368 . S
C173 H196 0.929 . S
C174 C173 1.368 . S
C174 C175 1.386 . S
C174 H197 0.929 . S
C175 C174 1.386 . S
C175 C176 1.373 . S
C176 C175 1.373 . S
C176 C177 1.409 . S
C176 H198 0.931 . S
C177 C172 1.356 . S
C177 C176 1.409 . S
C177 H199 0.930 . S
C178 O188 1.270 . S
C178 O189 1.248 . S
C179 O190 1.267 . S
C179 O191 1.278 . S
O180 Pr160 2.562 . S
O180 C162 1.254 . S
O181 Pr160 2.490 . S
O181 C162 1.225 . S
O182 Pr160 2.695 . S
O182 Pr161 2.436 . S
O182 C169 1.270 . S
O183 Pr160 2.512 . S
O183 C169 1.248 . S
O184 Pr161 2.438 . S
O184 C170 1.267 . S
O185 Pr160 2.437 . S
O185 C170 1.278 . S
O186 Pr161 2.562 . S
O186 C171 1.254 . S
O187 Pr161 2.490 . S
O187 C171 1.225 . S
O188 Pr160 2.436 . S
O188 Pr161 2.695 . S
O188 C178 1.270 . S
O189 Pr161 2.512 . S
O189 C178 1.248 . S
O190 Pr160 2.438 . S
O190 C179 1.267 . S
O191 Pr161 2.437 . S
O191 C179 1.278 . S
H192 C164 0.929 . S
H193 C165 0.929 . S
H194 C167 0.931 . S
H195 C168 0.930 . S
H196 C173 0.929 . S
H197 C174 0.929 . S
H198 C176 0.931 . S
H199 C177 0.930 . S
Pr200 C202 2.880 . S
Pr200 O220 2.562 . S
Pr200 O221 2.490 . S
Pr200 O222 2.695 . S
Pr200 O223 2.512 . S
Pr200 O225 2.437 . S
Pr200 O228 2.436 . S
Pr200 O230 2.438 . S
Pr201 C211 2.880 . S
Pr201 O222 2.436 . S
Pr201 O224 2.438 . S
Pr201 O226 2.562 . S
Pr201 O227 2.490 . S
Pr201 O228 2.695 . S
Pr201 O229 2.512 . S
Pr201 O231 2.437 . S
C202 Pr200 2.880 . S
C202 C203 1.491 . S
C202 O220 1.254 . S
C202 O221 1.225 . S
C203 C202 1.491 . S
C203 C204 1.392 . S
C203 C208 1.356 . S
C204 C203 1.392 . S
C204 C205 1.368 . S
C204 H232 0.929 . S
C205 C204 1.368 . S
C205 C206 1.386 . S
C205 H233 0.929 . S
C206 C205 1.386 . S
C206 C207 1.373 . S
C207 C206 1.373 . S
C207 C208 1.409 . S
C207 H234 0.931 . S
C208 C203 1.356 . S
C208 C207 1.409 . S
C208 H235 0.930 . S
C209 O222 1.270 . S
C209 O223 1.248 . S
C210 O224 1.267 . S
C210 O225 1.278 . S
C211 Pr201 2.880 . S
C211 C212 1.491 1_545 S
C211 O226 1.254 . S
C211 O227 1.225 . S
C212 C211 1.491 1_565 S
C212 C213 1.392 . S
C212 C217 1.356 . S
C213 C212 1.392 . S
C213 C214 1.368 . S
C213 H236 0.929 . S
C214 C213 1.368 . S
C214 C215 1.386 . S
C214 H237 0.929 . S
C215 C214 1.386 . S
C215 C216 1.373 . S
C216 C215 1.373 . S
C216 C217 1.409 . S
C216 H238 0.931 . S
C217 C212 1.356 . S
C217 C216 1.409 . S
C217 H239 0.930 . S
C218 O228 1.270 . S
C218 O229 1.248 . S
C219 O230 1.267 . S
C219 O231 1.278 . S
O220 Pr200 2.562 . S
O220 C202 1.254 . S
O221 Pr200 2.490 . S
O221 C202 1.225 . S
O222 Pr200 2.695 . S
O222 Pr201 2.436 . S
O222 C209 1.270 . S
O223 Pr200 2.512 . S
O223 C209 1.248 . S
O224 Pr201 2.438 . S
O224 C210 1.267 . S
O225 Pr200 2.437 . S
O225 C210 1.278 . S
O226 Pr201 2.562 . S
O226 C211 1.254 . S
O227 Pr201 2.490 . S
O227 C211 1.225 . S
O228 Pr200 2.436 . S
O228 Pr201 2.695 . S
O228 C218 1.270 . S
O229 Pr201 2.512 . S
O229 C218 1.248 . S
O230 Pr200 2.438 . S
O230 C219 1.267 . S
O231 Pr201 2.437 . S
O231 C219 1.278 . S
H232 C204 0.929 . S
H233 C205 0.929 . S
H234 C207 0.931 . S
H235 C208 0.930 . S
H236 C213 0.929 . S
H237 C214 0.929 . S
H238 C216 0.931 . S
H239 C217 0.930 . S
Pr240 C242 2.880 . S
Pr240 O260 2.562 . S
Pr240 O261 2.490 . S
Pr240 O262 2.695 . S
Pr240 O263 2.512 . S
Pr240 O265 2.437 . S
Pr240 O268 2.436 . S
Pr240 O270 2.438 . S
Pr241 C251 2.880 . S
Pr241 O262 2.436 . S
Pr241 O264 2.438 . S
Pr241 O266 2.562 . S
Pr241 O267 2.490 . S
Pr241 O268 2.695 . S
Pr241 O269 2.512 . S
Pr241 O271 2.437 . S
C242 Pr240 2.880 . S
C242 C243 1.491 . S
C242 O260 1.254 . S
C242 O261 1.225 . S
C243 C242 1.491 . S
C243 C244 1.392 . S
C243 C248 1.356 . S
C244 C243 1.392 . S
C244 C245 1.368 . S
C244 H272 0.929 . S
C245 C244 1.368 . S
C245 C246 1.386 . S
C245 H273 0.929 . S
C246 C245 1.386 . S
C246 C247 1.373 . S
C247 C246 1.373 . S
C247 C248 1.409 . S
C247 H274 0.931 . S
C248 C243 1.356 . S
C248 C247 1.409 . S
C248 H275 0.930 . S
C249 O262 1.270 . S
C249 O263 1.248 . S
C250 O264 1.267 . S
C250 O265 1.278 . S
C251 Pr241 2.880 . S
C251 C252 1.491 . S
C251 O266 1.254 . S
C251 O267 1.225 . S
C252 C251 1.491 . S
C252 C253 1.392 . S
C252 C257 1.356 . S
C253 C252 1.392 . S
C253 C254 1.368 . S
C253 H276 0.929 . S
C254 C253 1.368 . S
C254 C255 1.386 . S
C254 H277 0.929 . S
C255 C254 1.386 . S
C255 C256 1.373 . S
C256 C255 1.373 . S
C256 C257 1.409 . S
C256 H278 0.931 . S
C257 C252 1.356 . S
C257 C256 1.409 . S
C257 H279 0.930 . S
C258 O268 1.270 . S
C258 O269 1.248 . S
C259 O270 1.267 . S
C259 O271 1.278 . S
O260 Pr240 2.562 . S
O260 C242 1.254 . S
O261 Pr240 2.490 . S
O261 C242 1.225 . S
O262 Pr240 2.695 . S
O262 Pr241 2.436 . S
O262 C249 1.270 . S
O263 Pr240 2.512 . S
O263 C249 1.248 . S
O264 Pr241 2.438 . S
O264 C250 1.267 . S
O265 Pr240 2.437 . S
O265 C250 1.278 . S
O266 Pr241 2.562 . S
O266 C251 1.254 . S
O267 Pr241 2.490 . S
O267 C251 1.225 . S
O268 Pr240 2.436 . S
O268 Pr241 2.695 . S
O268 C258 1.270 . S
O269 Pr241 2.512 . S
O269 C258 1.248 . S
O270 Pr240 2.438 . S
O270 C259 1.267 . S
O271 Pr241 2.437 . S
O271 C259 1.278 . S
H272 C244 0.929 . S
H273 C245 0.929 . S
H274 C247 0.931 . S
H275 C248 0.930 . S
H276 C253 0.929 . S
H277 C254 0.929 . S
H278 C256 0.931 . S
H279 C257 0.930 . S
Pr280 C282 2.880 . S
Pr280 O300 2.562 . S
Pr280 O301 2.490 . S
Pr280 O302 2.695 . S
Pr280 O303 2.512 . S
Pr280 O305 2.437 . S
Pr280 O308 2.436 . S
Pr280 O310 2.438 . S
Pr281 C291 2.880 . S
Pr281 O302 2.436 . S
Pr281 O304 2.438 . S
Pr281 O306 2.562 . S
Pr281 O307 2.490 . S
Pr281 O308 2.695 . S
Pr281 O309 2.512 . S
Pr281 O311 2.437 . S
C282 Pr280 2.880 . S
C282 C283 1.491 . S
C282 O300 1.254 . S
C282 O301 1.225 . S
C283 C282 1.491 . S
C283 C284 1.392 . S
C283 C288 1.356 . S
C284 C283 1.392 . S
C284 C285 1.368 . S
C284 H312 0.929 . S
C285 C284 1.368 . S
C285 C286 1.386 . S
C285 H313 0.929 . S
C286 C285 1.386 . S
C286 C287 1.373 . S
C287 C286 1.373 . S
C287 C288 1.409 . S
C287 H314 0.931 . S
C288 C283 1.356 . S
C288 C287 1.409 . S
C288 H315 0.930 . S
C289 O302 1.270 . S
C289 O303 1.248 . S
C290 O304 1.267 . S
C290 O305 1.278 . S
C291 Pr281 2.880 . S
C291 C292 1.491 1_655 S
C291 O306 1.254 . S
C291 O307 1.225 . S
C292 C291 1.491 1_455 S
C292 C293 1.392 . S
C292 C297 1.356 . S
C293 C292 1.392 . S
C293 C294 1.368 . S
C293 H316 0.929 . S
C294 C293 1.368 . S
C294 C295 1.386 . S
C294 H317 0.929 . S
C295 C294 1.386 . S
C295 C296 1.373 . S
C296 C295 1.373 . S
C296 C297 1.409 . S
C296 H318 0.931 . S
C297 C292 1.356 . S
C297 C296 1.409 . S
C297 H319 0.930 . S
C298 O308 1.270 . S
C298 O309 1.248 . S
C299 O310 1.267 . S
C299 O311 1.278 . S
O300 Pr280 2.562 . S
O300 C282 1.254 . S
O301 Pr280 2.490 . S
O301 C282 1.225 . S
O302 Pr280 2.695 . S
O302 Pr281 2.436 . S
O302 C289 1.270 . S
O303 Pr280 2.512 . S
O303 C289 1.248 . S
O304 Pr281 2.438 . S
O304 C290 1.267 . S
O305 Pr280 2.437 . S
O305 C290 1.278 . S
O306 Pr281 2.562 . S
O306 C291 1.254 . S
O307 Pr281 2.490 . S
O307 C291 1.225 . S
O308 Pr280 2.436 . S
O308 Pr281 2.695 . S
O308 C298 1.270 . S
O309 Pr281 2.512 . S
O309 C298 1.248 . S
O310 Pr280 2.438 . S
O310 C299 1.267 . S
O311 Pr281 2.437 . S
O311 C299 1.278 . S
H312 C284 0.929 . S
H313 C285 0.929 . S
H314 C287 0.931 . S
H315 C288 0.930 . S
H316 C293 0.929 . S
H317 C294 0.929 . S
H318 C296 0.931 . S
H319 C297 0.930 . S
Pr320 C322 2.880 . S
Pr320 O340 2.562 . S
Pr320 O341 2.490 . S
Pr320 O342 2.695 . S
Pr320 O343 2.512 . S
Pr320 O345 2.437 . S
Pr320 O348 2.436 . S
Pr320 O350 2.438 . S
Pr321 C331 2.880 . S
Pr321 O342 2.436 . S
Pr321 O344 2.438 . S
Pr321 O346 2.562 . S
Pr321 O347 2.490 . S
Pr321 O348 2.695 . S
Pr321 O349 2.512 . S
Pr321 O351 2.437 . S
C322 Pr320 2.880 . S
C322 C323 1.491 . S
C322 O340 1.254 . S
C322 O341 1.225 . S
C323 C322 1.491 . S
C323 C324 1.392 . S
C323 C328 1.356 . S
C324 C323 1.392 . S
C324 C325 1.368 . S
C324 H352 0.929 . S
C325 C324 1.368 . S
C325 C326 1.386 . S
C325 H353 0.929 . S
C326 C325 1.386 . S
C326 C327 1.373 . S
C327 C326 1.373 . S
C327 C328 1.409 . S
C327 H354 0.931 . S
C328 C323 1.356 . S
C328 C327 1.409 . S
C328 H355 0.930 . S
C329 O342 1.270 . S
C329 O343 1.248 . S
C330 O344 1.267 . S
C330 O345 1.278 . S
C331 Pr321 2.880 . S
C331 C332 1.491 1_565 S
C331 O346 1.254 . S
C331 O347 1.225 . S
C332 C331 1.491 1_545 S
C332 C333 1.392 . S
C332 C337 1.356 . S
C333 C332 1.392 . S
C333 C334 1.368 . S
C333 H356 0.929 . S
C334 C333 1.368 . S
C334 C335 1.386 . S
C334 H357 0.929 . S
C335 C334 1.386 . S
C335 C336 1.373 . S
C336 C335 1.373 . S
C336 C337 1.409 . S
C336 H358 0.931 . S
C337 C332 1.356 . S
C337 C336 1.409 . S
C337 H359 0.930 . S
C338 O348 1.270 . S
C338 O349 1.248 . S
C339 O350 1.267 . S
C339 O351 1.278 . S
O340 Pr320 2.562 . S
O340 C322 1.254 . S
O341 Pr320 2.490 . S
O341 C322 1.225 . S
O342 Pr320 2.695 . S
O342 Pr321 2.436 . S
O342 C329 1.270 . S
O343 Pr320 2.512 . S
O343 C329 1.248 . S
O344 Pr321 2.438 . S
O344 C330 1.267 . S
O345 Pr320 2.437 . S
O345 C330 1.278 . S
O346 Pr321 2.562 . S
O346 C331 1.254 . S
O347 Pr321 2.490 . S
O347 C331 1.225 . S
O348 Pr320 2.436 . S
O348 Pr321 2.695 . S
O348 C338 1.270 . S
O349 Pr321 2.512 . S
O349 C338 1.248 . S
O350 Pr320 2.438 . S
O350 C339 1.267 . S
O351 Pr321 2.437 . S
O351 C339 1.278 . S
H352 C324 0.929 . S
H353 C325 0.929 . S
H354 C327 0.931 . S
H355 C328 0.930 . S
H356 C333 0.929 . S
H357 C334 0.929 . S
H358 C336 0.931 . S
H359 C337 0.930 . S
Pr360 C362 2.880 . S
Pr360 O380 2.562 . S
Pr360 O381 2.490 . S
Pr360 O382 2.695 . S
Pr360 O383 2.512 . S
Pr360 O385 2.437 . S
Pr360 O388 2.436 . S
Pr360 O390 2.438 . S
Pr361 C371 2.880 . S
Pr361 O382 2.436 . S
Pr361 O384 2.438 . S
Pr361 O386 2.562 . S
Pr361 O387 2.490 . S
Pr361 O388 2.695 . S
Pr361 O389 2.512 . S
Pr361 O391 2.437 . S
C362 Pr360 2.880 . S
C362 C363 1.491 . S
C362 O380 1.254 . S
C362 O381 1.225 . S
C363 C362 1.491 . S
C363 C364 1.392 . S
C363 C368 1.356 . S
C364 C363 1.392 . S
C364 C365 1.368 . S
C364 H392 0.929 . S
C365 C364 1.368 . S
C365 C366 1.386 . S
C365 H393 0.929 . S
C366 C365 1.386 . S
C366 C367 1.373 . S
C367 C366 1.373 . S
C367 C368 1.409 . S
C367 H394 0.931 . S
C368 C363 1.356 . S
C368 C367 1.409 . S
C368 H395 0.930 . S
C369 O382 1.270 . S
C369 O383 1.248 . S
C370 O384 1.267 . S
C370 O385 1.278 . S
C371 Pr361 2.880 . S
C371 C372 1.491 . S
C371 O386 1.254 . S
C371 O387 1.225 . S
C372 C371 1.491 . S
C372 C373 1.392 . S
C372 C377 1.356 . S
C373 C372 1.392 . S
C373 C374 1.368 . S
C373 H396 0.929 . S
C374 C373 1.368 . S
C374 C375 1.386 . S
C374 H397 0.929 . S
C375 C374 1.386 . S
C375 C376 1.373 . S
C376 C375 1.373 . S
C376 C377 1.409 . S
C376 H398 0.931 . S
C377 C372 1.356 . S
C377 C376 1.409 . S
C377 H399 0.930 . S
C378 O388 1.270 . S
C378 O389 1.248 . S
C379 O390 1.267 . S
C379 O391 1.278 . S
O380 Pr360 2.562 . S
O380 C362 1.254 . S
O381 Pr360 2.490 . S
O381 C362 1.225 . S
O382 Pr360 2.695 . S
O382 Pr361 2.436 . S
O382 C369 1.270 . S
O383 Pr360 2.512 . S
O383 C369 1.248 . S
O384 Pr361 2.438 . S
O384 C370 1.267 . S
O385 Pr360 2.437 . S
O385 C370 1.278 . S
O386 Pr361 2.562 . S
O386 C371 1.254 . S
O387 Pr361 2.490 . S
O387 C371 1.225 . S
O388 Pr360 2.436 . S
O388 Pr361 2.695 . S
O388 C378 1.270 . S
O389 Pr361 2.512 . S
O389 C378 1.248 . S
O390 Pr360 2.438 . S
O390 C379 1.267 . S
O391 Pr361 2.437 . S
O391 C379 1.278 . S
H392 C364 0.929 . S
H393 C365 0.929 . S
H394 C367 0.931 . S
H395 C368 0.930 . S
H396 C373 0.929 . S
H397 C374 0.929 . S
H398 C376 0.931 . S
H399 C377 0.930 . S
Pr400 C402 2.880 . S
Pr400 O420 2.562 . S
Pr400 O421 2.490 . S
Pr400 O422 2.695 . S
Pr400 O423 2.512 . S
Pr400 O425 2.437 . S
Pr400 O428 2.436 . S
Pr400 O430 2.438 . S
Pr401 C411 2.880 . S
Pr401 O422 2.436 . S
Pr401 O424 2.438 . S
Pr401 O426 2.562 . S
Pr401 O427 2.490 . S
Pr401 O428 2.695 . S
Pr401 O429 2.512 . S
Pr401 O431 2.437 . S
C402 Pr400 2.880 . S
C402 C403 1.491 . S
C402 O420 1.254 . S
C402 O421 1.225 . S
C403 C402 1.491 . S
C403 C404 1.392 . S
C403 C408 1.356 . S
C404 C403 1.392 . S
C404 C405 1.368 . S
C404 H432 0.929 . S
C405 C404 1.368 . S
C405 C406 1.386 . S
C405 H433 0.929 . S
C406 C405 1.386 . S
C406 C407 1.373 . S
C407 C406 1.373 . S
C407 C408 1.409 . S
C407 H434 0.931 . S
C408 C403 1.356 . S
C408 C407 1.409 . S
C408 H435 0.930 . S
C409 O422 1.270 . S
C409 O423 1.248 . S
C410 O424 1.267 . S
C410 O425 1.278 . S
C411 Pr401 2.880 . S
C411 C412 1.491 1_455 S
C411 O426 1.254 . S
C411 O427 1.225 . S
C412 C411 1.491 1_655 S
C412 C413 1.392 . S
C412 C417 1.356 . S
C413 C412 1.392 . S
C413 C414 1.368 . S
C413 H436 0.929 . S
C414 C413 1.368 . S
C414 C415 1.386 . S
C414 H437 0.929 . S
C415 C414 1.386 . S
C415 C416 1.373 . S
C416 C415 1.373 . S
C416 C417 1.409 . S
C416 H438 0.931 . S
C417 C412 1.356 . S
C417 C416 1.409 . S
C417 H439 0.930 . S
C418 O428 1.270 . S
C418 O429 1.248 . S
C419 O430 1.267 . S
C419 O431 1.278 . S
O420 Pr400 2.562 . S
O420 C402 1.254 . S
O421 Pr400 2.490 . S
O421 C402 1.225 . S
O422 Pr400 2.695 . S
O422 Pr401 2.436 . S
O422 C409 1.270 . S
O423 Pr400 2.512 . S
O423 C409 1.248 . S
O424 Pr401 2.438 . S
O424 C410 1.267 . S
O425 Pr400 2.437 . S
O425 C410 1.278 . S
O426 Pr401 2.562 . S
O426 C411 1.254 . S
O427 Pr401 2.490 . S
O427 C411 1.225 . S
O428 Pr400 2.436 . S
O428 Pr401 2.695 . S
O428 C418 1.270 . S
O429 Pr401 2.512 . S
O429 C418 1.248 . S
O430 Pr400 2.438 . S
O430 C419 1.267 . S
O431 Pr401 2.437 . S
O431 C419 1.278 . S
H432 C404 0.929 . S
H433 C405 0.929 . S
H434 C407 0.931 . S
H435 C408 0.930 . S
H436 C413 0.929 . S
H437 C414 0.929 . S
H438 C416 0.931 . S
H439 C417 0.930 . S
Pr440 C442 2.880 . S
Pr440 O460 2.562 . S
Pr440 O461 2.490 . S
Pr440 O462 2.695 . S
Pr440 O463 2.512 . S
Pr440 O465 2.437 . S
Pr440 O468 2.436 . S
Pr440 O470 2.438 . S
Pr441 C451 2.880 . S
Pr441 O462 2.436 . S
Pr441 O464 2.438 . S
Pr441 O466 2.562 . S
Pr441 O467 2.490 . S
Pr441 O468 2.695 . S
Pr441 O469 2.512 . S
Pr441 O471 2.437 . S
C442 Pr440 2.880 . S
C442 C443 1.491 . S
C442 O460 1.254 . S
C442 O461 1.225 . S
C443 C442 1.491 . S
C443 C444 1.392 . S
C443 C448 1.356 . S
C444 C443 1.392 . S
C444 C445 1.368 . S
C444 H472 0.929 . S
C445 C444 1.368 . S
C445 C446 1.386 . S
C445 H473 0.929 . S
C446 C445 1.386 . S
C446 C447 1.373 . S
C447 C446 1.373 . S
C447 C448 1.409 . S
C447 H474 0.931 . S
C448 C443 1.356 . S
C448 C447 1.409 . S
C448 H475 0.930 . S
C449 O462 1.270 . S
C449 O463 1.248 . S
C450 O464 1.267 . S
C450 O465 1.278 . S
C451 Pr441 2.880 . S
C451 C452 1.491 1_545 S
C451 O466 1.254 . S
C451 O467 1.225 . S
C452 C451 1.491 1_565 S
C452 C453 1.392 . S
C452 C457 1.356 . S
C453 C452 1.392 . S
C453 C454 1.368 . S
C453 H476 0.929 . S
C454 C453 1.368 . S
C454 C455 1.386 . S
C454 H477 0.929 . S
C455 C454 1.386 . S
C455 C456 1.373 . S
C456 C455 1.373 . S
C456 C457 1.409 . S
C456 H478 0.931 . S
C457 C452 1.356 . S
C457 C456 1.409 . S
C457 H479 0.930 . S
C458 O468 1.270 . S
C458 O469 1.248 . S
C459 O470 1.267 . S
C459 O471 1.278 . S
O460 Pr440 2.562 . S
O460 C442 1.254 . S
O461 Pr440 2.490 . S
O461 C442 1.225 . S
O462 Pr440 2.695 . S
O462 Pr441 2.436 . S
O462 C449 1.270 . S
O463 Pr440 2.512 . S
O463 C449 1.248 . S
O464 Pr441 2.438 . S
O464 C450 1.267 . S
O465 Pr440 2.437 . S
O465 C450 1.278 . S
O466 Pr441 2.562 . S
O466 C451 1.254 . S
O467 Pr441 2.490 . S
O467 C451 1.225 . S
O468 Pr440 2.436 . S
O468 Pr441 2.695 . S
O468 C458 1.270 . S
O469 Pr441 2.512 . S
O469 C458 1.248 . S
O470 Pr440 2.438 . S
O470 C459 1.267 . S
O471 Pr441 2.437 . S
O471 C459 1.278 . S
H472 C444 0.929 . S
H473 C445 0.929 . S
H474 C447 0.931 . S
H475 C448 0.930 . S
H476 C453 0.929 . S
H477 C454 0.929 . S
H478 C456 0.931 . S
H479 C457 0.930 . S
C480 C481 1.387 . S
C480 H484 0.950 . S
C480 C489 1.390 . S
C481 C480 1.387 . S
C481 C483 1.387 . S
H482 C489 0.950 . S
C483 C481 1.387 . S
C483 C485 1.390 1_565 S
C483 H487 0.950 . S
H484 C480 0.950 . S
C485 C483 1.390 1_545 S
C485 C486 1.387 . S
C485 H488 0.950 . S
C486 C485 1.387 . S
C486 C489 1.387 1_545 S
H487 C483 0.950 . S
H488 C485 0.950 . S
C489 C480 1.390 . S
C489 H482 0.950 . S
C489 C486 1.387 1_565 S
C490 C491 1.387 . S
C490 H494 0.950 . S
C490 C499 1.390 . S
C491 C490 1.387 . S
C491 C493 1.387 . S
H492 C499 0.950 . S
C493 C491 1.387 . S
C493 C495 1.390 . S
C493 H497 0.950 . S
H494 C490 0.950 . S
C495 C493 1.390 . S
C495 C496 1.387 . S
C495 H498 0.950 . S
C496 C495 1.387 . S
C496 C499 1.387 . S
H497 C493 0.950 . S
H498 C495 0.950 . S
C499 C490 1.390 . S
C499 H492 0.950 . S
C499 C496 1.387 . S
C500 C501 1.387 1_455 S
C500 H504 0.950 . S
C500 C509 1.390 . S
C501 C500 1.387 1_655 S
C501 C503 1.387 . S
H502 C509 0.950 . S
C503 C501 1.387 . S
C503 C505 1.390 1_655 S
C503 H507 0.950 . S
H504 C500 0.950 . S
C505 C503 1.390 1_455 S
C505 C506 1.387 . S
C505 H508 0.950 . S
C506 C505 1.387 . S
C506 C509 1.387 . S
H507 C503 0.950 . S
H508 C505 0.950 . S
C509 C500 1.390 . S
C509 H502 0.950 . S
C509 C506 1.387 . S
C510 C511 1.387 1_545 S
C510 H514 0.950 . S
C510 C519 1.390 . S
C511 C510 1.387 1_565 S
C511 C513 1.387 . S
H512 C519 0.950 . S
C513 C511 1.387 . S
C513 C515 1.390 1_565 S
C513 H517 0.950 . S
H514 C510 0.950 . S
C515 C513 1.390 1_545 S
C515 C516 1.387 . S
C515 H518 0.950 . S
C516 C515 1.387 . S
C516 C519 1.387 . S
H517 C513 0.950 . S
H518 C515 0.950 . S
C519 C510 1.390 . S
C519 H512 0.950 . S
C519 C516 1.387 . S
C520 C521 1.387 . S
C520 H524 0.950 . S
C520 C529 1.390 . S
C521 C520 1.387 . S
C521 C523 1.387 . S
H522 C529 0.950 . S
C523 C521 1.387 . S
C523 C525 1.390 . S
C523 H527 0.950 . S
H524 C520 0.950 . S
C525 C523 1.390 . S
C525 C526 1.387 . S
C525 H528 0.950 . S
C526 C525 1.387 . S
C526 C529 1.387 . S
H527 C523 0.950 . S
H528 C525 0.950 . S
C529 C520 1.390 . S
C529 H522 0.950 . S
C529 C526 1.387 . S
C530 C531 1.387 . S
C530 H534 0.950 . S
C530 C539 1.390 . S
C531 C530 1.387 . S
C531 C533 1.387 . S
H532 C539 0.950 1_455 S
C533 C531 1.387 . S
C533 C535 1.390 . S
C533 H537 0.950 . S
H534 C530 0.950 . S
C535 C533 1.390 . S
C535 C536 1.387 1_655 S
C535 H538 0.950 1_655 S
C536 C535 1.387 1_455 S
C536 C539 1.387 1_455 S
H537 C533 0.950 . S
H538 C535 0.950 1_455 S
C539 C530 1.390 . S
C539 H532 0.950 1_655 S
C539 C536 1.387 1_655 S
C540 C541 1.387 . S
C540 H544 0.950 . S
C540 C549 1.390 . S
C541 C540 1.387 . S
C541 C543 1.387 . S
H542 C549 0.950 . S
C543 C541 1.387 . S
C543 C545 1.390 1_455 S
C543 H547 0.950 . S
H544 C540 0.950 . S
C545 C543 1.390 1_655 S
C545 C546 1.387 . S
C545 H548 0.950 . S
C546 C545 1.387 . S
C546 C549 1.387 1_655 S
H547 C543 0.950 . S
H548 C545 0.950 . S
C549 C540 1.390 . S
C549 H542 0.950 . S
C549 C546 1.387 1_455 S
C550 C551 1.387 . S
C550 H554 0.950 . S
C550 C559 1.390 1_565 S
C551 C550 1.387 . S
C551 C553 1.387 1_565 S
H552 C559 0.950 . S
C553 C551 1.387 1_545 S
C553 C555 1.390 . S
C553 H557 0.950 . S
H554 C550 0.950 . S
C555 C553 1.390 . S
C555 C556 1.387 . S
C555 H558 0.950 . S
C556 C555 1.387 . S
C556 C559 1.387 . S
H557 C553 0.950 . S
H558 C555 0.950 . S
C559 C550 1.390 1_545 S
C559 H552 0.950 . S
C559 C556 1.387 . S
C560 C561 1.387 . S
C560 H564 0.950 . S
C560 C569 1.390 . S
C561 C560 1.387 . S
C561 C563 1.387 . S
H562 C569 0.950 . S
C563 C561 1.387 . S
C563 C565 1.390 . S
C563 H567 0.950 . S
H564 C560 0.950 . S
C565 C563 1.390 . S
C565 C566 1.387 . S
C565 H568 0.950 . S
C566 C565 1.387 . S
C566 C569 1.387 . S
H567 C563 0.950 . S
H568 C565 0.950 . S
C569 C560 1.390 . S
C569 H562 0.950 . S
C569 C566 1.387 . S
C570 C571 1.387 . S
C570 H574 0.950 . S
C570 C579 1.390 1_455 S
C571 C570 1.387 . S
C571 C573 1.387 1_455 S
H572 C579 0.950 . S
C573 C571 1.387 1_655 S
C573 C575 1.390 . S
C573 H577 0.950 . S
H574 C570 0.950 . S
C575 C573 1.390 . S
C575 C576 1.387 . S
C575 H578 0.950 . S
C576 C575 1.387 . S
C576 C579 1.387 . S
H577 C573 0.950 . S
H578 C575 0.950 . S
C579 C570 1.390 1_655 S
C579 H572 0.950 . S
C579 C576 1.387 . S
C580 C581 1.387 . S
C580 H584 0.950 . S
C580 C589 1.390 1_545 S
C581 C580 1.387 . S
C581 C583 1.387 1_545 S
H582 C589 0.950 . S
C583 C581 1.387 1_565 S
C583 C585 1.390 . S
C583 H587 0.950 . S
H584 C580 0.950 . S
C585 C583 1.390 . S
C585 C586 1.387 . S
C585 H588 0.950 . S
C586 C585 1.387 . S
C586 C589 1.387 . S
H587 C583 0.950 . S
H588 C585 0.950 . S
C589 C580 1.390 1_565 S
C589 H582 0.950 . S
C589 C586 1.387 . S
C590 C591 1.387 . S
C590 H594 0.950 . S
C590 C599 1.390 . S
C591 C590 1.387 . S
C591 C593 1.387 . S
H592 C599 0.950 . S
C593 C591 1.387 . S
C593 C595 1.390 . S
C593 H597 0.950 . S
H594 C590 0.950 . S
C595 C593 1.390 . S
C595 C596 1.387 . S
C595 H598 0.950 . S
C596 C595 1.387 . S
C596 C599 1.387 . S
H597 C593 0.950 . S
H598 C595 0.950 . S
C599 C590 1.390 . S
C599 H592 0.950 . S
C599 C596 1.387 . S
C600 C601 1.387 . S
C600 H604 0.950 . S
C600 C609 1.390 . S
C601 C600 1.387 . S
C601 C603 1.387 . S
H602 C609 0.950 . S
C603 C601 1.387 . S
C603 C605 1.390 . S
C603 H607 0.950 . S
H604 C600 0.950 . S
C605 C603 1.390 . S
C605 C606 1.387 . S
C605 H608 0.950 . S
C606 C605 1.387 . S
C606 C609 1.387 . S
H607 C603 0.950 . S
H608 C605 0.950 . S
C609 C600 1.390 . S
C609 H602 0.950 . S
C609 C606 1.387 . S
C610 C611 1.387 . S
C610 H614 0.950 . S
C610 C619 1.390 . S
C611 C610 1.387 . S
C611 C613 1.387 . S
H612 C619 0.950 . S
C613 C611 1.387 . S
C613 C615 1.390 . S
C613 H617 0.950 . S
H614 C610 0.950 . S
C615 C613 1.390 . S
C615 C616 1.387 . S
C615 H618 0.950 . S
C616 C615 1.387 . S
C616 C619 1.387 . S
H617 C613 0.950 . S
H618 C615 0.950 . S
C619 C610 1.390 . S
C619 H612 0.950 . S
C619 C616 1.387 . S
C620 C621 1.387 . S
C620 H624 0.950 . S
C620 C629 1.390 . S
C621 C620 1.387 . S
C621 C623 1.387 . S
H622 C629 0.950 . S
C623 C621 1.387 . S
C623 C625 1.390 . S
C623 H627 0.950 . S
H624 C620 0.950 . S
C625 C623 1.390 . S
C625 C626 1.387 . S
C625 H628 0.950 . S
C626 C625 1.387 . S
C626 C629 1.387 . S
H627 C623 0.950 . S
H628 C625 0.950 . S
C629 C620 1.390 . S
C629 H622 0.950 . S
C629 C626 1.387 . S
C630 C631 1.387 . S
C630 H634 0.950 . S
C630 C639 1.390 . S
C631 C630 1.387 . S
C631 C633 1.387 . S
H632 C639 0.950 . S
C633 C631 1.387 . S
C633 C635 1.390 . S
C633 H637 0.950 . S
H634 C630 0.950 . S
C635 C633 1.390 . S
C635 C636 1.387 . S
C635 H638 0.950 . S
C636 C635 1.387 . S
C636 C639 1.387 . S
H637 C633 0.950 . S
H638 C635 0.950 . S
C639 C630 1.390 . S
C639 H632 0.950 . S
C639 C636 1.387 . S
C640 C641 1.387 . S
C640 H644 0.950 . S
C640 C649 1.390 . S
C641 C640 1.387 . S
C641 C643 1.387 . S
H642 C649 0.950 . S
C643 C641 1.387 . S
C643 C645 1.390 . S
C643 H647 0.950 . S
H644 C640 0.950 . S
C645 C643 1.390 . S
C645 C646 1.387 . S
C645 H648 0.950 . S
C646 C645 1.387 . S
C646 C649 1.387 . S
H647 C643 0.950 . S
H648 C645 0.950 . S
C649 C640 1.390 . S
C649 H642 0.950 . S
C649 C646 1.387 . S
C650 C651 1.387 . S
C650 H654 0.950 . S
C650 C659 1.390 . S
C651 C650 1.387 . S
C651 C653 1.387 . S
H652 C659 0.950 . S
C653 C651 1.387 . S
C653 C655 1.390 . S
C653 H657 0.950 . S
H654 C650 0.950 . S
C655 C653 1.390 . S
C655 C656 1.387 . S
C655 H658 0.950 . S
C656 C655 1.387 . S
C656 C659 1.387 . S
H657 C653 0.950 . S
H658 C655 0.950 . S
C659 C650 1.390 . S
C659 H652 0.950 . S
C659 C656 1.387 . S
C660 C661 1.387 . S
C660 H664 0.950 . S
C660 C669 1.390 . S
C661 C660 1.387 . S
C661 C663 1.387 . S
H662 C669 0.950 . S
C663 C661 1.387 . S
C663 C665 1.390 . S
C663 H667 0.950 . S
H664 C660 0.950 . S
C665 C663 1.390 . S
C665 C666 1.387 . S
C665 H668 0.950 . S
C666 C665 1.387 . S
C666 C669 1.387 . S
H667 C663 0.950 . S
H668 C665 0.950 . S
C669 C660 1.390 . S
C669 H662 0.950 . S
C669 C666 1.387 . S
C670 C671 1.387 . S
C670 H674 0.950 . S
C670 C679 1.390 . S
C671 C670 1.387 . S
C671 C673 1.387 . S
H672 C679 0.950 . S
C673 C671 1.387 . S
C673 C675 1.390 . S
C673 H677 0.950 . S
H674 C670 0.950 . S
C675 C673 1.390 . S
C675 C676 1.387 . S
C675 H678 0.950 . S
C676 C675 1.387 . S
C676 C679 1.387 . S
H677 C673 0.950 . S
H678 C675 0.950 . S
C679 C670 1.390 . S
C679 H672 0.950 . S
C679 C676 1.387 . S
C680 C681 1.387 . S
C680 H684 0.950 . S
C680 C689 1.390 . S
C681 C680 1.387 . S
C681 C683 1.387 . S
H682 C689 0.950 . S
C683 C681 1.387 . S
C683 C685 1.390 . S
C683 H687 0.950 . S
H684 C680 0.950 . S
C685 C683 1.390 . S
C685 C686 1.387 . S
C685 H688 0.950 . S
C686 C685 1.387 . S
C686 C689 1.387 . S
H687 C683 0.950 . S
H688 C685 0.950 . S
C689 C680 1.390 . S
C689 H682 0.950 . S
C689 C686 1.387 . S
C690 C691 1.387 . S
C690 H694 0.950 . S
C690 C699 1.390 . S
C691 C690 1.387 . S
C691 C693 1.387 . S
H692 C699 0.950 . S
C693 C691 1.387 . S
C693 C695 1.390 . S
C693 H697 0.950 . S
H694 C690 0.950 . S
C695 C693 1.390 . S
C695 C696 1.387 . S
C695 H698 0.950 . S
C696 C695 1.387 . S
C696 C699 1.387 . S
H697 C693 0.950 . S
H698 C695 0.950 . S
C699 C690 1.390 . S
C699 H692 0.950 . S
C699 C696 1.387 . S
C700 C701 1.387 . S
C700 H704 0.950 . S
C700 C709 1.390 . S
C701 C700 1.387 . S
C701 C703 1.387 . S
H702 C709 0.950 . S
C703 C701 1.387 . S
C703 C705 1.390 . S
C703 H707 0.950 . S
H704 C700 0.950 . S
C705 C703 1.390 . S
C705 C706 1.387 . S
C705 H708 0.950 . S
C706 C705 1.387 . S
C706 C709 1.387 . S
H707 C703 0.950 . S
H708 C705 0.950 . S
C709 C700 1.390 . S
C709 H702 0.950 . S
C709 C706 1.387 . S
C710 C711 1.387 . S
C710 H714 0.950 . S
C710 C719 1.390 . S
C711 C710 1.387 . S
C711 C713 1.387 . S
H712 C719 0.950 . S
C713 C711 1.387 . S
C713 C715 1.390 . S
C713 H717 0.950 . S
H714 C710 0.950 . S
C715 C713 1.390 . S
C715 C716 1.387 . S
C715 H718 0.950 . S
C716 C715 1.387 . S
C716 C719 1.387 . S
H717 C713 0.950 . S
H718 C715 0.950 . S
C719 C710 1.390 . S
C719 H712 0.950 . S
C719 C716 1.387 . S
C720 C721 1.387 . S
C720 H724 0.950 . S
C720 C729 1.390 . S
C721 C720 1.387 . S
C721 C723 1.387 . S
H722 C729 0.950 . S
C723 C721 1.387 . S
C723 C725 1.390 . S
C723 H727 0.950 . S
H724 C720 0.950 . S
C725 C723 1.390 . S
C725 C726 1.387 . S
C725 H728 0.950 . S
C726 C725 1.387 . S
C726 C729 1.387 . S
H727 C723 0.950 . S
H728 C725 0.950 . S
C729 C720 1.390 . S
C729 H722 0.950 . S
C729 C726 1.387 . S
C730 C731 1.387 . S
C730 H734 0.950 . S
C730 C739 1.390 . S
C731 C730 1.387 . S
C731 C733 1.387 . S
H732 C739 0.950 . S
C733 C731 1.387 . S
C733 C735 1.390 . S
C733 H737 0.950 . S
H734 C730 0.950 . S
C735 C733 1.390 . S
C735 C736 1.387 . S
C735 H738 0.950 . S
C736 C735 1.387 . S
C736 C739 1.387 . S
H737 C733 0.950 . S
H738 C735 0.950 . S
C739 C730 1.390 . S
C739 H732 0.950 . S
C739 C736 1.387 . S
C740 C741 1.387 . S
C740 H744 0.950 . S
C740 C749 1.390 . S
C741 C740 1.387 . S
C741 C743 1.387 . S
H742 C749 0.950 . S
C743 C741 1.387 . S
C743 C745 1.390 . S
C743 H747 0.950 . S
H744 C740 0.950 . S
C745 C743 1.390 . S
C745 C746 1.387 . S
C745 H748 0.950 . S
C746 C745 1.387 . S
C746 C749 1.387 . S
H747 C743 0.950 . S
H748 C745 0.950 . S
C749 C740 1.390 . S
C749 H742 0.950 . S
C749 C746 1.387 . S
C750 C751 1.387 . S
C750 H754 0.950 . S
C750 C759 1.390 . S
C751 C750 1.387 . S
C751 C753 1.387 . S
H752 C759 0.950 . S
C753 C751 1.387 . S
C753 C755 1.390 . S
C753 H757 0.950 . S
H754 C750 0.950 . S
C755 C753 1.390 . S
C755 C756 1.387 . S
C755 H758 0.950 . S
C756 C755 1.387 . S
C756 C759 1.387 . S
H757 C753 0.950 . S
H758 C755 0.950 . S
C759 C750 1.390 . S
C759 H752 0.950 . S
C759 C756 1.387 . S
C760 C761 1.387 . S
C760 H764 0.950 . S
C760 C769 1.390 . S
C761 C760 1.387 . S
C761 C763 1.387 . S
H762 C769 0.950 . S
C763 C761 1.387 . S
C763 C765 1.390 . S
C763 H767 0.950 . S
H764 C760 0.950 . S
C765 C763 1.390 . S
C765 C766 1.387 . S
C765 H768 0.950 . S
C766 C765 1.387 . S
C766 C769 1.387 . S
H767 C763 0.950 . S
H768 C765 0.950 . S
C769 C760 1.390 . S
C769 H762 0.950 . S
C769 C766 1.387 . S
C770 C771 1.387 . S
C770 H774 0.950 . S
C770 C779 1.390 . S
C771 C770 1.387 . S
C771 C773 1.387 . S
H772 C779 0.950 . S
C773 C771 1.387 . S
C773 C775 1.390 . S
C773 H777 0.950 . S
H774 C770 0.950 . S
C775 C773 1.390 . S
C775 C776 1.387 . S
C775 H778 0.950 . S
C776 C775 1.387 . S
C776 C779 1.387 . S
H777 C773 0.950 . S
H778 C775 0.950 . S
C779 C770 1.390 . S
C779 H772 0.950 . S
C779 C776 1.387 . S
C780 C781 1.387 . S
C780 H784 0.950 . S
C780 C789 1.390 . S
C781 C780 1.387 . S
C781 C783 1.387 1_556 S
H782 C789 0.950 . S
C783 C781 1.387 1_554 S
C783 C785 1.390 . S
C783 H787 0.950 . S
H784 C780 0.950 . S
C785 C783 1.390 . S
C785 C786 1.387 . S
C785 H788 0.950 . S
C786 C785 1.387 . S
C786 C789 1.387 1_554 S
H787 C783 0.950 . S
H788 C785 0.950 . S
C789 C780 1.390 . S
C789 H782 0.950 . S
C789 C786 1.387 1_556 S
C790 C791 1.387 . S
C790 H794 0.950 . S
C790 C799 1.390 1_455 S
C791 C790 1.387 . S
C791 C793 1.387 . S
H792 C799 0.950 . S
C793 C791 1.387 . S
C793 C795 1.390 1_455 S
C793 H797 0.950 . S
H794 C790 0.950 . S
C795 C793 1.390 1_655 S
C795 C796 1.387 . S
C795 H798 0.950 . S
C796 C795 1.387 . S
C796 C799 1.387 . S
H797 C793 0.950 . S
H798 C795 0.950 . S
C799 C790 1.390 1_655 S
C799 H792 0.950 . S
C799 C796 1.387 . S
C800 C801 1.387 . S
C800 H804 0.950 . S
C800 C809 1.390 1_564 S
C801 C800 1.387 . S
C801 C803 1.387 . S
H802 C809 0.950 . S
C803 C801 1.387 . S
C803 C805 1.390 1_564 S
C803 H807 0.950 . S
H804 C800 0.950 . S
C805 C803 1.390 1_546 S
C805 C806 1.387 . S
C805 H808 0.950 . S
C806 C805 1.387 . S
C806 C809 1.387 . S
H807 C803 0.950 . S
H808 C805 0.950 . S
C809 C800 1.390 1_546 S
C809 H802 0.950 . S
C809 C806 1.387 . S
C810 C811 1.387 . S
C810 H814 0.950 . S
C810 C819 1.390 . S
C811 C810 1.387 . S
C811 C813 1.387 . S
H812 C819 0.950 . S
C813 C811 1.387 . S
C813 C815 1.390 . S
C813 H817 0.950 . S
H814 C810 0.950 . S
C815 C813 1.390 . S
C815 C816 1.387 . S
C815 H818 0.950 . S
C816 C815 1.387 . S
C816 C819 1.387 . S
H817 C813 0.950 . S
H818 C815 0.950 . S
C819 C810 1.390 . S
C819 H812 0.950 . S
C819 C816 1.387 . S
C820 C821 1.387 . S
C820 H824 0.950 . S
C820 C829 1.390 1_655 S
C821 C820 1.387 . S
C821 C823 1.387 1_556 S
H822 C829 0.950 . S
C823 C821 1.387 1_554 S
C823 C825 1.390 1_655 S
C823 H827 0.950 . S
H824 C820 0.950 . S
C825 C823 1.390 1_455 S
C825 C826 1.387 . S
C825 H828 0.950 . S
C826 C825 1.387 . S
C826 C829 1.387 1_554 S
H827 C823 0.950 . S
H828 C825 0.950 . S
C829 C820 1.390 1_455 S
C829 H822 0.950 . S
C829 C826 1.387 1_556 S
C830 C831 1.387 . S
C830 H834 0.950 . S
C830 C839 1.390 1_565 S
C831 C830 1.387 . S
C831 C833 1.387 . S
H832 C839 0.950 . S
C833 C831 1.387 . S
C833 C835 1.390 1_565 S
C833 H837 0.950 . S
H834 C830 0.950 . S
C835 C833 1.390 1_545 S
C835 C836 1.387 . S
C835 H838 0.950 . S
C836 C835 1.387 . S
C836 C839 1.387 . S
H837 C833 0.950 . S
H838 C835 0.950 . S
C839 C830 1.390 1_545 S
C839 H832 0.950 . S
C839 C836 1.387 . S
C481 C179 1.410 . S
C486 C15 1.476 . S
C491 C219 1.410 . S
C496 C55 1.477 . S
C501 C95 1.476 . S
C506 C19 1.410 . S
C511 C135 1.476 . S
C516 C59 1.410 . S
C521 C175 1.475 . S
C526 C99 1.407 . S
C531 C139 1.408 . S
C536 C215 1.475 . S
C541 C339 1.411 . S
C546 C255 1.477 . S
C551 C295 1.474 . S
C556 C379 1.407 . S
C561 C419 1.410 . S
C566 C335 1.476 . S
C571 C375 1.475 . S
C576 C459 1.407 . S
C581 C415 1.476 . S
C586 C259 1.408 . S
C591 C299 1.411 . S
C596 C455 1.477 . S
C601 C170 1.884 . S
C606 C6 1.859 . S
C611 C46 1.860 . S
C616 C210 1.883 . S
C621 C86 1.859 . S
C626 C10 1.883 . S
C631 C126 1.862 . S
C636 C50 1.886 . S
C641 C90 1.885 . S
C646 C166 1.860 . S
C651 C130 1.885 . S
C656 C206 1.860 . S
C661 C330 1.885 . S
C666 C246 1.862 . S
C671 C286 1.862 . S
C676 C370 1.886 . S
C681 C326 1.860 . S
C686 C410 1.885 . S
C691 C450 1.883 . S
C696 C366 1.859 . S
C701 C406 1.861 . S
C706 C250 1.884 . S
C711 C290 1.885 . S
C716 C446 1.860 . S
C721 C418 1.587 . S
C726 C18 1.587 . S
C731 C58 1.587 . S
C736 C458 1.588 . S
C741 C98 1.588 . S
C746 C258 1.590 . S
C751 C138 1.587 . S
C756 C298 1.587 . S
C761 C178 1.587 . S
C766 C338 1.588 . S
C771 C378 1.587 . S
C776 C218 1.588 . S
C781 C369 2.466 . S
C786 C9 2.466 . S
C791 C409 2.466 . S
C796 C49 2.466 . S
C801 C89 2.465 . S
C806 C449 2.465 . S
C811 C129 2.466 . S
C816 C249 2.466 . S
C821 C289 2.465 . S
C826 C169 2.465 . S
C831 C329 2.465 . S
C836 C209 2.465 . S
