# Generated by pormake.
# Topology kag, (6)-cn, num edge types: 1
# Building blocks:
#     Node 0, Type 0, BuildingBlock: INOVEN_clean_sbu_0, # of connection points: 6
#     Node 1, Type 0, BuildingBlock: INOVEN_clean_sbu_0, # of connection points: 6
#     Node 2, Type 0, BuildingBlock: INOVEN_clean_sbu_0, # of connection points: 6
#     Edge 3, Type (0, 0), BuildingBlock: ZUJKAS_clean_linker_0, # of connection points: 2
#     Edge 4, Type (0, 0), BuildingBlock: ZUJKAS_clean_linker_0, # of connection points: 2
#     Edge 5, Type (0, 0), BuildingBlock: ZUJKAS_clean_linker_0, # of connection points: 2
#     Edge 6, Type (0, 0), BuildingBlock: ZUJKAS_clean_linker_0, # of connection points: 2
#     Edge 7, Type (0, 0), BuildingBlock: ZUJKAS_clean_linker_0, # of connection points: 2
#     Edge 8, Type (0, 0), BuildingBlock: ZUJKAS_clean_linker_0, # of connection points: 2
#     Edge 9, Type (0, 0), BuildingBlock: ZUJKAS_clean_linker_0, # of connection points: 2
#     Edge 10, Type (0, 0), BuildingBlock: ZUJKAS_clean_linker_0, # of connection points: 2
#     Edge 11, Type (0, 0), BuildingBlock: ZUJKAS_clean_linker_0, # of connection points: 2
# Relax obj value: 0.051
# Max RMSD: 0.171
# Mean RMSD: 0.091
data_MOF--net-kag--node1-INOVEN_clean_sbu_0--edge1-ZUJKAS_clean_linker_0
_symmetry_space_group_name_H-M    P1
_symmetry_Int_Tables_number       1
_symmetry_cell_setting            triclinic
loop_
_symmetry_equiv_pos_as_xyz
'x, y, z'
_cell_length_a     40.401638
_cell_length_b     50.947864
_cell_length_c     19.056241
_cell_angle_alpha  97.068828
_cell_angle_beta   91.065134
_cell_angle_gamma 101.01038
loop_
_atom_site_label
_atom_site_type_symbol
_atom_site_fract_x
_atom_site_fract_y
_atom_site_fract_z
_atom_type_partial_charge
Gd0 Gd 1.04152 0.48271 0.00897 0.0
Gd1 Gd 0.05149 0.54114 0.99752 0.0
C2 C 0.9754 0.51047 0.995 0.0
C3 C 1.02266 0.43445 0.04214 0.0
C4 C 0.99258 0.41234 0.03302 0.0
C5 C 0.99281 0.38924 0.98457 0.0
C6 C 0.96423 0.4133 0.07438 0.0
C7 C 0.93732 0.36831 0.01962 0.0
C8 C 0.93692 0.39148 0.0678 0.0
C9 C 0.96545 0.36756 0.97767 0.0
C10 C 0.04788 0.49466 0.87444 0.0
C11 C 0.11761 0.51341 0.01258 0.0
C12 C 0.06991 0.58906 0.96184 0.0
C13 C 0.09996 0.61085 0.969 0.0
C14 C 0.12264 0.61516 0.02791 0.0
C15 C 0.10564 0.62798 0.91651 0.0
C16 C 0.15559 0.65435 0.98292 0.0
C17 C 0.13321 0.6495 0.92326 0.0
C18 C 0.15015 0.63683 0.03498 0.0
C19 C 1.04499 0.52919 0.13208 0.0
O20 O 0.98794 0.49047 0.01641 0.0
O21 O 0.99547 0.53146 0.97422 0.0
O22 O 1.0389 0.43966 0.98519 0.0
O23 O 1.02075 0.45627 0.08476 0.0
O24 O 0.06037 0.47584 0.89886 0.0
O25 O 1.03119 0.50546 0.92113 0.0
O26 O 0.10513 0.53343 0.99106 0.0
O27 O 0.09747 0.49239 0.03305 0.0
O28 O 0.0544 0.5842 0.01985 0.0
O29 O 0.07211 0.5671 0.92026 0.0
O30 O 1.03269 0.54813 0.10769 0.0
O31 O 0.06175 0.51844 0.08546 0.0
H32 H 1.01445 0.38776 0.95264 0.0
H33 H 0.96323 0.43073 0.11243 0.0
H34 H 0.91549 0.39273 0.1005 0.0
H35 H 0.96677 0.34984 0.94085 0.0
H36 H 0.11889 0.60197 0.06875 0.0
H37 H 0.08842 0.62494 0.87064 0.0
H38 H 0.13647 0.66278 0.88263 0.0
H39 H 0.16717 0.63987 0.08112 0.0
Gd40 Gd 0.58378 0.01617 0.99417 0.0
Gd41 Gd 0.51089 1.00629 0.01968 0.0
C42 C 0.54516 0.06723 0.0229 0.0
C43 C 0.64344 0.03487 0.95351 0.0
C44 C 0.66464 0.06214 0.95617 0.0
C45 C 0.69492 0.06872 0.99748 0.0
C46 C 0.6547 0.082 0.91983 0.0
C47 C 0.70461 0.1146 0.96756 0.0
C48 C 0.67456 0.10794 0.92531 0.0
C49 C 0.71461 0.09469 1.00341 0.0
C50 C 0.56929 0.01154 0.13085 0.0
C51 C 0.54959 0.95513 0.98998 0.0
C52 C 0.45162 0.98754 0.06221 0.0
C53 C 0.42969 0.9604 0.05677 0.0
C54 C 0.41277 0.94801 0.99252 0.0
C55 C 0.42585 0.94644 0.1162 0.0
C56 C 0.38925 0.90804 0.04695 0.0
C57 C 0.40596 0.92055 0.11133 0.0
C58 C 0.39281 0.92216 0.98771 0.0
C59 C 0.52527 1.01077 0.88279 0.0
O60 O 0.57033 0.05744 0.99321 0.0
O61 O 0.51992 0.05121 0.04848 0.0
O62 O 0.63802 0.02587 0.01441 0.0
O63 O 0.61651 0.02912 0.91099 0.0
O64 O 0.5929 1.00159 0.09836 0.0
O65 O 0.55507 0.02433 0.09043 0.0
O66 O 0.524 0.96478 0.01824 0.0
O67 O 0.57526 0.97127 0.96612 0.0
O68 O 0.45649 0.99852 1.00378 0.0
O69 O 0.47916 0.99138 0.10243 0.0
O70 O 0.50138 0.02042 0.915 0.0
O71 O 0.53953 0.99808 0.92338 0.0
H72 H 0.70323 0.05379 0.02577 0.0
H73 H 0.63143 0.07765 0.88772 0.0
H74 H 0.6661 0.12293 0.89752 0.0
H75 H 0.73786 0.09913 0.03562 0.0
H76 H 0.41494 0.95821 0.94571 0.0
H77 H 0.43849 0.95548 0.16647 0.0
H78 H 0.40406 0.91018 0.15784 0.0
H79 H 0.37984 0.91338 0.93762 0.0
Gd80 Gd 0.556 0.54073 0.9996 0.0
Gd81 Gd 0.5366 0.4813 0.0119 0.0
C82 C 0.47661 0.51413 0.01294 0.0
C83 C 0.56575 0.58871 0.96113 0.0
C84 C 0.55585 0.61538 0.96468 0.0
C85 C 0.551 0.63043 0.02933 0.0
C86 C 0.55533 0.62735 0.90229 0.0
C87 C 0.54794 0.6697 0.96924 0.0
C88 C 0.55143 0.65415 0.90446 0.0
C89 C 0.54694 0.6573 0.03153 0.0
C90 C 0.55686 0.52867 0.13472 0.0
C91 C 0.61599 0.50793 0.99895 0.0
C92 C 0.52679 0.43324 0.04985 0.0
C93 C 0.53672 0.40658 0.04636 0.0
C94 C 0.54144 0.39146 0.98171 0.0
C95 C 0.53737 0.39466 0.10882 0.0
C96 C 0.54458 0.35224 0.04196 0.0
C97 C 0.54125 0.36786 0.10673 0.0
C98 C 0.54547 0.36459 0.97959 0.0
C99 C 0.53574 0.49354 0.87684 0.0
O100 O 0.49858 0.53397 0.99108 0.0
O101 O 0.4867 0.4932 0.03494 0.0
O102 O 0.5801 0.58281 0.01767 0.0
O103 O 0.54634 0.56778 0.92457 0.0
O104 O 0.5776 0.54819 0.11212 0.0
O105 O 0.53511 0.5177 0.0863 0.0
O106 O 0.59401 0.48809 0.02075 0.0
O107 O 0.60592 0.52884 0.97681 0.0
O108 O 0.51263 0.43919 0.99318 0.0
O109 O 0.54605 0.45415 0.08682 0.0
O110 O 0.51489 0.47407 0.89937 0.0
O111 O 0.55753 0.50431 0.92531 0.0
H112 H 0.55149 0.62178 0.0784 0.0
H113 H 0.55919 0.61624 0.85184 0.0
H114 H 0.55172 0.66284 0.85534 0.0
H115 H 0.54447 0.66868 0.08238 0.0
H116 H 0.54085 0.40006 0.93259 0.0
H117 H 0.53362 0.40582 0.15928 0.0
H118 H 0.54105 0.35922 0.15591 0.0
H119 H 0.54782 0.35315 0.92875 0.0
H120 H 1.01718 0.52956 0.80968 0.0
H121 H 1.0163 0.53511 0.68334 0.0
H122 H 0.07852 0.47539 0.64258 0.0
H123 H 0.07915 0.46958 0.76808 0.0
H124 H 0.06921 0.55036 0.59517 0.0
H125 H 0.99999 0.44694 0.49889 0.0
H126 H 1.00236 0.46094 0.59099 0.0
H127 H 1.03721 0.44785 0.55277 0.0
C128 C 1.0306 0.5176 0.77366 0.0
C129 C 0.04797 0.49896 0.79874 0.0
C130 C 1.0301 0.52079 0.70149 0.0
C131 C 0.04678 0.50528 0.65299 0.0
C132 C 0.06475 0.48711 0.67843 0.0
H133 H 0.0756 0.49425 0.19687 0.0
H134 H 0.07646 0.48871 0.32322 0.0
C135 C 0.06526 0.48393 0.75037 0.0
C136 C 0.04592 0.50833 0.57605 0.0
H137 H 1.0236 0.47352 0.41139 0.0
C138 C 0.05905 0.5336 0.55504 0.0
C139 C 1.03281 0.48643 0.52344 0.0
C140 C 1.017 0.45907 0.5425 0.0
C141 C 0.06 0.53744 0.48311 0.0
C142 C 0.04689 0.51555 0.43049 0.0
C143 C 1.03376 0.49028 0.45151 0.0
C144 C 0.04604 0.5186 0.35355 0.0
C145 C 0.07582 0.56481 0.46406 0.0
C146 C 1.02811 0.53678 0.32809 0.0
C147 C 1.02761 0.53996 0.25614 0.0
C148 C 1.04488 0.5249 0.20779 0.0
C149 C 0.06221 0.50623 0.23288 0.0
C150 C 0.06269 0.50306 0.30506 0.0
H151 H 0.09284 0.57692 0.50767 0.0
H152 H 0.09045 0.56293 0.41555 0.0
H153 H 0.05562 0.57603 0.45382 0.0
H154 H 1.01436 0.54852 0.36392 0.0
H155 H 1.01376 0.55432 0.23842 0.0
H156 H 0.52492 0.03529 0.21251 0.0
H157 H 0.51782 0.03544 0.34049 0.0
H158 H 0.59377 0.98678 0.34986 0.0
H159 H 0.60118 0.98682 0.22284 0.0
H160 H 0.49946 0.99266 0.42 0.0
H161 H 0.62809 0.04921 0.50473 0.0
H162 H 0.61064 0.04746 0.41601 0.0
H163 H 0.62765 0.01979 0.44204 0.0
C164 C 0.54012 0.0247 0.24201 0.0
C165 C 0.56383 0.01126 0.20768 0.0
C166 C 0.53605 0.02477 0.31511 0.0
C167 C 0.55575 0.01158 0.35532 0.0
C168 C 0.57887 0.99768 0.3206 0.0
H169 H 0.56973 0.98704 0.8013 0.0
H170 H 0.57683 0.9868 0.6733 0.0
C171 C 0.58293 0.99758 0.24776 0.0
C172 C 0.55183 0.01188 0.43322 0.0
H173 H 0.59511 0.02944 0.59356 0.0
C174 C 0.52032 1.00086 0.45794 0.0
C175 C 0.57909 0.02244 0.48297 0.0
C176 C 0.6132 0.03563 0.46032 0.0
C177 C 0.51548 0.99964 0.53059 0.0
C178 C 0.54273 1.01022 0.58034 0.0
C179 C 0.57425 0.02124 0.55562 0.0
C180 C 0.53881 1.01056 0.65825 0.0
C181 C 0.48137 0.98645 0.55322 0.0
C182 C 0.51563 0.02442 0.69287 0.0
C183 C 0.51156 0.02456 0.76572 0.0
C184 C 0.53072 1.01098 0.80593 0.0
C185 C 0.55448 0.99757 0.77171 0.0
C186 C 0.55856 0.99744 0.69859 0.0
H187 H 0.46652 0.97282 0.50884 0.0
H188 H 0.48393 0.97466 0.59763 0.0
H189 H 0.46688 1.00228 0.57133 0.0
H190 H 0.50069 0.03527 0.66353 0.0
H191 H 0.49327 0.03531 0.79056 0.0
H192 H 0.49301 0.46797 0.76666 0.0
H193 H 0.4967 0.4739 0.64141 0.0
H194 H 0.58669 0.53493 0.68982 0.0
H195 H 0.58284 0.52928 0.81592 0.0
H196 H 0.5416 0.54945 0.59647 0.0
H197 H 0.56217 0.44651 0.50438 0.0
H198 H 0.52498 0.44695 0.55423 0.0
H199 H 0.56588 0.4604 0.59664 0.0
C200 C 0.51364 0.48265 0.7507 0.0
C201 C 0.5378 0.49799 0.80121 0.0
C202 C 0.51585 0.48589 0.67887 0.0
C203 C 0.54239 0.50445 0.65558 0.0
C204 C 0.56614 0.5203 0.70621 0.0
H205 H 0.59957 0.5544 0.24479 0.0
H206 H 0.596 0.54851 0.37008 0.0
C207 C 0.56394 0.51705 0.77828 0.0
C208 C 0.54495 0.50753 0.57868 0.0
H209 H 0.55126 0.47288 0.41522 0.0
C210 C 0.54392 0.53274 0.55693 0.0
C211 C 0.54784 0.48573 0.52672 0.0
C212 C 0.55061 0.45843 0.54655 0.0
C213 C 0.54502 0.53661 0.48497 0.0
C214 C 0.5479 0.5148 0.433 0.0
C215 C 0.54894 0.48959 0.45475 0.0
C216 C 0.5504 0.51787 0.35608 0.0
C217 C 0.54222 0.5639 0.46514 0.0
C218 C 0.52667 0.50195 0.30552 0.0
C219 C 0.52882 0.50516 0.23343 0.0
C220 C 0.55487 0.52426 0.21039 0.0
C221 C 0.57901 0.53969 0.26082 0.0
C222 C 0.57686 0.53647 0.33269 0.0
H223 H 0.53065 0.57581 0.50731 0.0
H224 H 0.56784 0.5754 0.45749 0.0
H225 H 0.52695 0.56193 0.41505 0.0
H226 H 0.50618 0.48728 0.32199 0.0
H227 H 0.50993 0.49287 0.19585 0.0
H228 H 0.16738 0.55487 0.98247 0.0
H229 H 0.22838 0.55681 0.98408 0.0
H230 H 0.21355 0.47726 0.04795 0.0
H231 H 0.15255 0.47529 0.04758 0.0
H232 H 0.26549 0.51256 0.125 0.0
H233 H 0.28081 0.51846 0.83826 0.0
H234 H 0.26113 0.54421 0.88275 0.0
H235 H 0.24001 0.5095 0.87524 0.0
C236 C 0.17702 0.53772 0.99675 0.0
C237 C 0.15486 0.51485 0.01456 0.0
C238 C 0.21199 0.53881 0.99719 0.0
C239 C 0.22568 0.51698 0.01485 0.0
C240 C 0.20368 0.49431 0.03373 0.0
H241 H 0.42436 0.47611 0.04914 0.0
H242 H 0.36442 0.47777 0.05073 0.0
C243 C 0.16872 0.49322 0.03345 0.0
C244 C 0.2629 0.51786 0.01486 0.0
H245 H 0.33093 0.52387 0.90943 0.0
C246 C 0.27976 0.51497 0.07778 0.0
C247 C 0.2817 0.52113 0.95339 0.0
C248 C 0.26501 0.52326 0.88338 0.0
C249 C 0.31475 0.51551 0.08115 0.0
C250 C 0.33349 0.51847 0.01951 0.0
C251 C 0.3167 0.52163 0.95674 0.0
C252 C 0.37029 0.51763 0.01856 0.0
C253 C 0.33137 0.51339 0.15125 0.0
C254 C 0.39378 0.53913 0.99788 0.0
C255 C 0.42827 0.53815 0.99628 0.0
C256 C 0.44007 0.51556 0.01504 0.0
C257 C 0.4164 0.49397 0.03503 0.0
C258 C 0.38199 0.49495 0.03641 0.0
H259 H 0.31624 0.51946 0.19634 0.0
H260 H 0.33363 0.49213 0.15339 0.0
H261 H 0.35706 0.52615 0.15814 0.0
H262 H 0.38543 0.55678 0.98335 0.0
H263 H 0.44566 0.5551 0.98034 0.0
H264 H 0.72338 0.14565 0.86217 0.0
H265 H 0.76027 0.19025 0.87318 0.0
H266 H 0.76924 0.1907 0.09925 0.0
H267 H 0.73293 0.14595 0.08838 0.0
H268 H 0.75535 0.239 0.94467 0.0
H269 H 0.867 0.20507 0.04886 0.0
H270 H 0.82976 0.18172 0.01153 0.0
H271 H 0.83067 0.19798 0.10111 0.0
C272 C 0.73311 0.15534 0.91422 0.0
C273 C 0.72561 0.14218 0.97433 0.0
C274 C 0.75422 0.18079 0.92044 0.0
C275 C 0.76812 0.19358 0.98685 0.0
C276 C 0.75963 0.18089 0.04722 0.0
H277 H 0.90515 0.34533 0.12847 0.0
H278 H 0.86177 0.30416 0.12083 0.0
C279 C 0.73882 0.15536 0.04097 0.0
C280 C 0.7917 0.22006 0.99286 0.0
H281 H 0.87144 0.25225 0.05038 0.0
C282 C 0.78076 0.24188 0.96756 0.0
C283 C 0.82493 0.22379 0.02254 0.0
C284 C 0.83895 0.20085 0.04692 0.0
C285 C 0.80201 0.26738 0.97207 0.0
C286 C 0.83505 0.27108 1.00227 0.0
C287 C 0.84596 0.24935 0.02772 0.0
C288 C 0.85917 0.29714 0.00643 0.0
C289 C 0.7889 0.2903 0.94537 0.0
C290 C 0.87195 0.30683 0.94458 0.0
C291 C 0.89678 0.33029 0.94876 0.0
C292 C 0.90923 0.34451 0.01492 0.0
C293 C 0.8958 0.33503 0.07674 0.0
C294 C 0.87116 0.31146 0.0725 0.0
H295 H 0.76096 0.28576 0.93768 0.0
H296 H 0.79651 0.30913 0.98274 0.0
H297 H 0.7999 0.29395 0.89371 0.0
H298 H 0.86334 0.29587 0.8931 0.0
H299 H 0.90646 0.33718 0.90021 0.0
H300 H 0.50418 0.91719 0.04659 0.0
H301 H 0.50424 0.86918 0.04408 0.0
H302 H 0.59315 0.87782 0.92066 0.0
H303 H 0.59387 0.92614 0.92464 0.0
H304 H 0.49803 0.82898 0.93787 0.0
H305 H 0.62278 0.83958 0.07548 0.0
H306 H 0.60212 0.86779 0.07142 0.0
H307 H 0.62501 0.85617 0.99751 0.0
C308 C 0.52389 0.90897 0.01904 0.0
C309 C 0.54921 0.92569 0.98625 0.0
C310 C 0.52384 0.88142 0.01763 0.0
C311 C 0.54907 0.86981 0.98342 0.0
C312 C 0.57394 0.88633 0.94918 0.0
H313 H 0.58656 0.70689 0.89722 0.0
H314 H 0.58558 0.75489 0.90107 0.0
C315 C 0.57418 0.91398 0.95102 0.0
C316 C 0.54885 0.84041 0.98268 0.0
H317 H 0.59692 0.79537 0.02326 0.0
C318 C 0.51961 0.82168 0.95697 0.0
C319 C 0.57691 0.83073 0.00788 0.0
C320 C 0.60835 0.84961 0.04029 0.0
C321 C 0.51794 0.79372 0.95435 0.0
C322 C 0.54615 0.7841 0.97856 0.0
C323 C 0.57533 0.80275 1.00449 0.0
C324 C 0.54615 0.75475 0.97625 0.0
C325 C 0.48624 0.77461 0.92425 0.0
C326 C 0.52449 0.73865 0.01777 0.0
C327 C 0.52496 0.71108 0.01569 0.0
C328 C 0.54703 0.69902 0.97178 0.0
C329 C 0.5688 0.71532 0.93065 0.0
C330 C 0.56846 0.74285 0.93314 0.0
H331 H 0.46962 0.78486 0.89463 0.0
H332 H 0.49252 0.75753 0.88835 0.0
H333 H 0.47191 0.76618 0.96816 0.0
H334 H 0.50737 0.74745 0.05222 0.0
H335 H 0.50782 0.69917 0.04792 0.0
H336 H 0.92578 0.46938 0.0278 0.0
H337 H 0.86472 0.46731 0.0258 0.0
H338 H 0.87937 0.54632 0.9586 0.0
H339 H 0.94034 0.5484 0.95928 0.0
H340 H 0.82738 0.5 0.10088 0.0
H341 H 0.80824 0.5038 0.81392 0.0
H342 H 0.84682 0.49743 0.85152 0.0
H343 H 0.83939 0.53131 0.85666 0.0
C344 C 0.91606 0.48629 0.01212 0.0
C345 C 0.93814 0.509 0.99321 0.0
C346 C 0.88106 0.48507 0.01113 0.0
C347 C 0.86722 0.50645 0.99089 0.0
C348 C 0.88922 0.52926 0.97272 0.0
H349 H 0.66824 0.54585 0.9622 0.0
H350 H 0.72828 0.54433 0.96165 0.0
C351 C 0.92421 0.53048 0.97355 0.0
C352 C 0.82993 0.50522 0.99062 0.0
H353 H 0.76199 0.50957 0.88581 0.0
C354 C 0.81304 0.50188 0.0537 0.0
C355 C 0.81108 0.50768 0.92913 0.0
C356 C 0.82721 0.50999 0.85879 0.0
C357 C 0.77819 0.50172 0.05751 0.0
C358 C 0.75941 0.50446 0.99617 0.0
C359 C 0.77626 0.50751 0.93293 0.0
C360 C 0.72252 0.50497 0.99675 0.0
C361 C 0.76207 0.49951 0.12788 0.0
C362 C 0.69892 0.4832 0.01581 0.0
C363 C 0.66437 0.48404 0.01644 0.0
C364 C 0.65257 0.50657 0.99736 0.0
C365 C 0.67625 0.52814 0.97727 0.0
C366 C 0.71071 0.52731 0.97687 0.0
H367 H 0.78114 0.5047 0.17268 0.0
H368 H 0.74345 0.51293 0.13612 0.0
H369 H 0.74863 0.47844 0.12901 0.0
H370 H 0.70716 0.46544 0.02978 0.0
H371 H 0.64693 0.46698 0.03176 0.0
H372 H 0.19878 0.67287 0.883 0.0
H373 H 0.24232 0.71398 0.89539 0.0
H374 H 0.21882 0.73125 0.11407 0.0
H375 H 0.17551 0.69008 0.1022 0.0
H376 H 0.23308 0.76516 0.92727 0.0
H377 H 0.32058 0.7431 0.12955 0.0
H378 H 0.28795 0.71737 0.08282 0.0
H379 H 0.27789 0.7395 0.15699 0.0
C380 C 0.20307 0.68534 0.93386 0.0
C381 C 0.18372 0.6782 0.99166 0.0
C382 C 0.22803 0.70877 0.94093 0.0
C383 C 0.2342 0.72553 0.00591 0.0
C384 C 0.21517 0.7183 0.06392 0.0
H385 H 0.34618 0.88669 0.14414 0.0
H386 H 0.31006 0.84186 0.13338 0.0
C387 C 0.19034 0.69478 0.05702 0.0
C388 C 0.25884 0.75148 0.01156 0.0
H389 H 0.32843 0.78883 0.1059 0.0
C390 C 0.25412 0.77021 0.96587 0.0
C391 C 0.28626 0.7581 0.06207 0.0
C392 C 0.29373 0.73836 0.11018 0.0
C393 C 0.27554 0.79558 0.97039 0.0
C394 C 0.30262 0.80233 0.02151 0.0
C395 C 0.30756 0.78359 0.06691 0.0
C396 C 0.32579 0.82893 0.02904 0.0
C397 C 0.26855 0.81527 0.92162 0.0
C398 C 0.34705 0.8363 0.97445 0.0
C399 C 0.36791 0.86182 0.98058 0.0
C400 C 0.36794 0.8805 0.04154 0.0
C401 C 0.34707 0.87277 0.09678 0.0
C402 C 0.32629 0.8472 0.09064 0.0
H403 H 0.24287 0.80922 0.89581 0.0
H404 H 0.27113 0.83584 0.95099 0.0
H405 H 0.28718 0.81619 0.87951 0.0
H406 H 0.34745 0.8223 0.92698 0.0
H407 H 0.38415 0.86687 0.93765 0.0
H408 H 0.5845 0.32261 0.96321 0.0
H409 H 0.58473 0.27427 0.95899 0.0
H410 H 0.50698 0.26724 0.11119 0.0
H411 H 0.5062 0.31524 0.11494 0.0
H412 H 0.59659 0.245 0.07543 0.0
H413 H 0.46921 0.20756 0.94595 0.0
H414 H 0.49197 0.24166 0.94503 0.0
H415 H 0.47086 0.23212 0.02282 0.0
C416 C 0.56729 0.31074 0.9954 0.0
C417 C 0.54537 0.3229 0.03948 0.0
C418 C 0.56756 0.28313 0.99318 0.0
C419 C 0.5456 0.26704 0.03418 0.0
C420 C 0.52384 0.27913 0.07839 0.0
H421 H 0.50148 0.09652 0.08959 0.0
H422 H 0.50263 0.14498 0.09396 0.0
C423 C 0.5237 0.3067 0.08101 0.0
C424 C 0.5457 0.2377 0.03178 0.0
H425 H 0.49626 0.17507 0.98931 0.0
C426 C 0.57474 0.22968 0.05625 0.0
C427 C 0.5171 0.21772 0.00717 0.0
C428 C 0.48557 0.22507 0.97816 0.0
C429 C 0.57574 0.20229 0.0582 0.0
C430 C 0.54715 0.18224 0.0333 0.0
C431 C 0.51815 0.19033 0.0086 0.0
C432 C 0.54688 0.1528 0.03166 0.0
C433 C 0.60711 0.19522 0.0889 0.0
C434 C 0.57107 0.14085 0.99455 0.0
C435 C 0.57062 0.11322 0.99245 0.0
C436 C 0.54564 0.09669 0.02655 0.0
C437 C 0.52113 0.10859 0.06291 0.0
C438 C 0.52174 0.13633 0.06537 0.0
H439 H 0.62197 0.21248 0.12473 0.0
H440 H 0.60078 0.17769 0.11887 0.0
H441 H 0.62343 0.18996 0.04524 0.0
H442 H 0.59016 0.15284 0.96637 0.0
H443 H 0.58972 0.1048 0.96327 0.0
loop_
_geom_bond_atom_site_label_1
_geom_bond_atom_site_label_2
_geom_bond_distance
_geom_bond_site_symmetry_2
_ccdc_geom_bond_type
Gd0 C3 2.818 . S
Gd0 O20 2.377 . S
Gd0 O22 2.448 . S
Gd0 O23 2.506 1_556 S
Gd0 O24 2.435 . S
Gd0 O25 2.717 1_655 S
Gd0 O27 2.395 1_655 S
Gd0 O31 2.327 1_556 S
Gd1 C12 2.818 . S
Gd1 O21 2.395 1_455 S
Gd1 O25 2.327 1_554 S
Gd1 O26 2.377 . S
Gd1 O28 2.448 . S
Gd1 O29 2.506 1_554 S
Gd1 O30 2.435 . S
Gd1 O31 2.717 1_455 S
C2 O20 1.240 . S
C2 O21 1.240 1_556 S
C3 Gd0 2.818 . S
C3 C4 1.510 . S
C3 O22 1.249 . S
C3 O23 1.252 1_556 S
C4 C3 1.510 . S
C4 C5 1.404 . S
C4 C6 1.352 1_556 S
C5 C4 1.404 . S
C5 C9 1.389 . S
C5 H32 0.930 . S
C6 C4 1.352 1_554 S
C6 C8 1.374 . S
C6 H33 0.931 . S
C7 C8 1.357 1_556 S
C7 C9 1.366 . S
C8 C6 1.374 . S
C8 C7 1.357 1_554 S
C8 H34 0.931 . S
C9 C5 1.389 . S
C9 C7 1.366 . S
C9 H35 0.931 . S
C10 O24 1.253 1_455 S
C10 O25 1.260 . S
C11 O26 1.244 . S
C11 O27 1.238 1_554 S
C12 Gd1 2.818 . S
C12 C13 1.510 . S
C12 O28 1.249 . S
C12 O29 1.252 1_554 S
C13 C12 1.510 . S
C13 C14 1.404 . S
C13 C15 1.352 1_554 S
C14 C13 1.404 . S
C14 C18 1.389 . S
C14 H36 0.930 . S
C15 C13 1.352 1_556 S
C15 C17 1.374 . S
C15 H37 0.931 . S
C16 C17 1.350 1_554 S
C16 C18 1.375 . S
C17 C15 1.374 . S
C17 C16 1.350 1_556 S
C17 H38 0.931 . S
C18 C14 1.389 . S
C18 C16 1.375 . S
C18 H39 0.931 . S
C19 O30 1.256 . S
C19 O31 1.257 1_455 S
O20 Gd0 2.377 . S
O20 C2 1.240 . S
O21 Gd1 2.395 1_655 S
O21 C2 1.240 1_554 S
O22 Gd0 2.448 . S
O22 C3 1.249 . S
O23 Gd0 2.506 1_554 S
O23 C3 1.252 1_554 S
O24 Gd0 2.435 . S
O24 C10 1.253 1_655 S
O25 Gd0 2.717 1_455 S
O25 Gd1 2.327 1_556 S
O25 C10 1.260 . S
O26 Gd1 2.377 . S
O26 C11 1.244 . S
O27 Gd0 2.395 1_455 S
O27 C11 1.238 1_556 S
O28 Gd1 2.448 . S
O28 C12 1.249 . S
O29 Gd1 2.506 1_556 S
O29 C12 1.252 1_556 S
O30 Gd1 2.435 . S
O30 C19 1.256 . S
O31 Gd0 2.327 1_554 S
O31 Gd1 2.717 1_655 S
O31 C19 1.257 1_655 S
H32 C5 0.930 . S
H33 C6 0.931 . S
H34 C8 0.931 . S
H35 C9 0.931 . S
H36 C14 0.930 . S
H37 C15 0.931 . S
H38 C17 0.931 . S
H39 C18 0.931 . S
Gd40 C43 2.818 . S
Gd40 O60 2.377 . S
Gd40 O62 2.448 . S
Gd40 O63 2.506 1_554 S
Gd40 O64 2.435 . S
Gd40 O65 2.717 1_545 S
Gd40 O67 2.395 1_545 S
Gd40 O71 2.327 1_554 S
Gd41 C52 2.818 . S
Gd41 O61 2.395 1_565 S
Gd41 O65 2.327 1_556 S
Gd41 O66 2.377 . S
Gd41 O68 2.448 . S
Gd41 O69 2.506 1_556 S
Gd41 O70 2.435 . S
Gd41 O71 2.717 1_565 S
C42 O60 1.240 . S
C42 O61 1.240 1_554 S
C43 Gd40 2.818 . S
C43 C44 1.509 1_554 S
C43 O62 1.249 . S
C43 O63 1.252 1_554 S
C44 C43 1.509 1_556 S
C44 C45 1.398 1_556 S
C44 C46 1.360 . S
C45 C44 1.398 1_554 S
C45 C49 1.389 . S
C45 H72 0.930 . S
C46 C44 1.360 . S
C46 C48 1.374 . S
C46 H73 0.931 . S
C47 C48 1.359 . S
C47 C49 1.364 1_556 S
C48 C46 1.374 . S
C48 C47 1.359 . S
C48 H74 0.931 . S
C49 C45 1.389 . S
C49 C47 1.364 1_554 S
C49 H75 0.931 . S
C50 O64 1.256 . S
C50 O65 1.257 1_545 S
C51 O66 1.240 . S
C51 O67 1.240 1_556 S
C52 Gd41 2.818 . S
C52 C53 1.510 1_556 S
C52 O68 1.249 . S
C52 O69 1.252 1_556 S
C53 C52 1.510 1_554 S
C53 C54 1.404 1_554 S
C53 C55 1.352 . S
C54 C53 1.404 1_556 S
C54 C58 1.389 . S
C54 H76 0.930 . S
C55 C53 1.352 . S
C55 C57 1.374 . S
C55 H77 0.931 . S
C56 C57 1.359 . S
C56 C58 1.364 1_554 S
C57 C55 1.374 . S
C57 C56 1.359 . S
C57 H78 0.931 . S
C58 C54 1.389 . S
C58 C56 1.364 1_556 S
C58 H79 0.931 . S
C59 O70 1.256 . S
C59 O71 1.257 1_565 S
O60 Gd40 2.377 . S
O60 C42 1.240 . S
O61 Gd41 2.395 1_545 S
O61 C42 1.240 1_556 S
O62 Gd40 2.448 . S
O62 C43 1.249 . S
O63 Gd40 2.506 1_556 S
O63 C43 1.252 1_556 S
O64 Gd40 2.435 . S
O64 C50 1.256 . S
O65 Gd40 2.717 1_565 S
O65 Gd41 2.327 1_554 S
O65 C50 1.257 1_565 S
O66 Gd41 2.377 . S
O66 C51 1.240 . S
O67 Gd40 2.395 1_565 S
O67 C51 1.240 1_554 S
O68 Gd41 2.448 . S
O68 C52 1.249 . S
O69 Gd41 2.506 1_554 S
O69 C52 1.252 1_554 S
O70 Gd41 2.435 . S
O70 C59 1.256 . S
O71 Gd40 2.327 1_556 S
O71 Gd41 2.717 1_545 S
O71 C59 1.257 1_545 S
H72 C45 0.930 . S
H73 C46 0.931 . S
H74 C48 0.931 . S
H75 C49 0.931 . S
H76 C54 0.930 . S
H77 C55 0.931 . S
H78 C57 0.931 . S
H79 C58 0.931 . S
Gd80 C83 2.818 . S
Gd80 O100 2.377 . S
Gd80 O102 2.448 . S
Gd80 O103 2.506 1_554 S
Gd80 O104 2.435 . S
Gd80 O105 2.717 . S
Gd80 O107 2.395 . S
Gd80 O111 2.327 1_554 S
Gd81 C92 2.818 . S
Gd81 O101 2.395 . S
Gd81 O105 2.327 1_556 S
Gd81 O106 2.377 . S
Gd81 O108 2.448 . S
Gd81 O109 2.506 1_556 S
Gd81 O110 2.435 . S
Gd81 O111 2.717 . S
C82 O100 1.239 1_556 S
C82 O101 1.241 . S
C83 Gd80 2.818 . S
C83 C84 1.510 . S
C83 O102 1.249 . S
C83 O103 1.252 1_554 S
C84 C83 1.510 . S
C84 C85 1.404 . S
C84 C86 1.352 1_554 S
C85 C84 1.404 . S
C85 C89 1.389 . S
C85 H112 0.930 . S
C86 C84 1.352 1_556 S
C86 C88 1.374 . S
C86 H113 0.931 . S
C87 C88 1.359 . S
C87 C89 1.364 1_556 S
C88 C86 1.374 . S
C88 C87 1.359 . S
C88 H114 0.931 . S
C89 C85 1.389 . S
C89 C87 1.364 1_554 S
C89 H115 0.931 . S
C90 O104 1.256 . S
C90 O105 1.257 . S
C91 O106 1.235 1_554 S
C91 O107 1.243 . S
C92 Gd81 2.818 . S
C92 C93 1.510 . S
C92 O108 1.249 . S
C92 O109 1.252 1_556 S
C93 C92 1.510 . S
C93 C94 1.404 . S
C93 C95 1.352 1_556 S
C94 C93 1.404 . S
C94 C98 1.389 . S
C94 H116 0.930 . S
C95 C93 1.352 1_554 S
C95 C97 1.374 . S
C95 H117 0.931 . S
C96 C97 1.359 . S
C96 C98 1.364 1_554 S
C97 C95 1.374 . S
C97 C96 1.359 . S
C97 H118 0.931 . S
C98 C94 1.389 . S
C98 C96 1.364 1_556 S
C98 H119 0.931 . S
C99 O110 1.256 . S
C99 O111 1.257 . S
O100 Gd80 2.377 . S
O100 C82 1.239 1_554 S
O101 Gd81 2.395 . S
O101 C82 1.241 . S
O102 Gd80 2.448 . S
O102 C83 1.249 . S
O103 Gd80 2.506 1_556 S
O103 C83 1.252 1_556 S
O104 Gd80 2.435 . S
O104 C90 1.256 . S
O105 Gd80 2.717 . S
O105 Gd81 2.327 1_554 S
O105 C90 1.257 . S
O106 Gd81 2.377 . S
O106 C91 1.235 1_556 S
O107 Gd80 2.395 . S
O107 C91 1.243 . S
O108 Gd81 2.448 . S
O108 C92 1.249 . S
O109 Gd81 2.506 1_554 S
O109 C92 1.252 1_554 S
O110 Gd81 2.435 . S
O110 C99 1.256 . S
O111 Gd80 2.327 1_556 S
O111 Gd81 2.717 . S
O111 C99 1.257 . S
H112 C85 0.930 . S
H113 C86 0.931 . S
H114 C88 0.931 . S
H115 C89 0.931 . S
H116 C94 0.930 . S
H117 C95 0.931 . S
H118 C97 0.931 . S
H119 C98 0.931 . S
H120 C128 0.929 . S
H121 C130 0.930 . S
H122 C132 0.930 . S
H123 C135 0.929 . S
H124 C138 0.930 . S
H125 C140 0.960 . S
H126 C140 0.960 . S
H127 C140 0.960 . S
C128 H120 0.929 . S
C128 C129 1.377 1_655 S
C128 C130 1.384 . S
C129 C128 1.377 1_455 S
C129 C135 1.390 . S
C130 H121 0.930 . S
C130 C128 1.384 . S
C130 C131 1.372 1_655 S
C131 C130 1.372 1_455 S
C131 C132 1.400 . S
C131 C136 1.490 . S
C132 H122 0.930 . S
C132 C131 1.400 . S
C132 C135 1.386 . S
H133 C149 0.930 . S
H134 C150 0.931 . S
C135 H123 0.929 . S
C135 C129 1.390 . S
C135 C132 1.386 . S
C136 C131 1.490 . S
C136 C138 1.395 . S
C136 C139 1.403 1_455 S
H137 C143 0.930 . S
C138 H124 0.930 . S
C138 C136 1.395 . S
C138 C141 1.403 . S
C139 C136 1.403 1_655 S
C139 C140 1.524 . S
C139 C143 1.400 . S
C140 H125 0.960 . S
C140 H126 0.960 . S
C140 H127 0.960 . S
C140 C139 1.524 . S
C141 C138 1.403 . S
C141 C142 1.392 . S
C141 C145 1.495 . S
C142 C141 1.392 . S
C142 C143 1.385 1_455 S
C142 C144 1.478 . S
C143 H137 0.930 . S
C143 C139 1.400 . S
C143 C142 1.385 1_655 S
C144 C142 1.478 . S
C144 C146 1.381 1_455 S
C144 C150 1.383 . S
C145 C141 1.495 . S
C145 H151 0.959 . S
C145 H152 0.961 . S
C145 H153 0.960 . S
C146 C144 1.381 1_655 S
C146 C147 1.394 . S
C146 H154 0.930 . S
C147 C146 1.394 . S
C147 C148 1.383 1_655 S
C147 H155 0.929 . S
C148 C147 1.383 1_455 S
C148 C149 1.377 . S
C149 H133 0.930 . S
C149 C148 1.377 . S
C149 C150 1.379 . S
C150 H134 0.931 . S
C150 C144 1.383 . S
C150 C149 1.379 . S
H151 C145 0.959 . S
H152 C145 0.961 . S
H153 C145 0.960 . S
H154 C146 0.930 . S
H155 C147 0.929 . S
H156 C164 0.928 . S
H157 C166 0.931 1_565 S
H158 C168 0.930 . S
H159 C171 0.929 . S
H160 C174 0.930 . S
H161 C176 0.960 . S
H162 C176 0.960 . S
H163 C176 0.960 . S
C164 H156 0.928 . S
C164 C165 1.379 . S
C164 C166 1.381 . S
C165 C164 1.379 . S
C165 C171 1.380 . S
C166 H157 0.931 1_545 S
C166 C164 1.381 . S
C166 C167 1.375 . S
C167 C166 1.375 . S
C167 C168 1.397 . S
C167 C172 1.484 1_545 S
C168 H158 0.930 . S
C168 C167 1.397 . S
C168 C171 1.386 . S
H169 C185 0.930 . S
H170 C186 0.931 . S
C171 H159 0.929 . S
C171 C165 1.380 . S
C171 C168 1.386 . S
C172 C167 1.484 1_565 S
C172 C174 1.403 . S
C172 C175 1.396 1_565 S
H173 C179 0.930 . S
C174 H160 0.930 . S
C174 C172 1.403 . S
C174 C177 1.403 . S
C175 C172 1.396 1_545 S
C175 C176 1.524 . S
C175 C179 1.400 . S
C176 H161 0.960 . S
C176 H162 0.960 . S
C176 H163 0.960 . S
C176 C175 1.524 . S
C177 C174 1.403 . S
C177 C178 1.392 . S
C177 C181 1.495 . S
C178 C177 1.392 . S
C178 C179 1.385 1_565 S
C178 C180 1.478 . S
C179 H173 0.930 . S
C179 C175 1.400 . S
C179 C178 1.385 1_545 S
C180 C178 1.478 . S
C180 C182 1.381 . S
C180 C186 1.383 . S
C181 C177 1.495 . S
C181 H187 0.959 . S
C181 H188 0.961 . S
C181 H189 0.960 . S
C182 C180 1.381 . S
C182 C183 1.393 . S
C182 H190 0.930 . S
C183 C182 1.393 . S
C183 C184 1.390 . S
C183 H191 0.925 1_565 S
C184 C183 1.390 . S
C184 C185 1.377 . S
C185 H169 0.930 . S
C185 C184 1.377 . S
C185 C186 1.379 . S
C186 H170 0.931 . S
C186 C180 1.383 . S
C186 C185 1.379 . S
H187 C181 0.959 . S
H188 C181 0.961 . S
H189 C181 0.960 . S
H190 C182 0.930 . S
H191 C183 0.925 1_545 S
H192 C200 0.929 . S
H193 C202 0.930 . S
H194 C204 0.930 . S
H195 C207 0.929 . S
H196 C210 0.930 . S
H197 C212 0.960 . S
H198 C212 0.960 . S
H199 C212 0.960 . S
C200 H192 0.929 . S
C200 C201 1.377 . S
C200 C202 1.384 . S
C201 C200 1.377 . S
C201 C207 1.390 . S
C202 H193 0.930 . S
C202 C200 1.384 . S
C202 C203 1.372 . S
C203 C202 1.372 . S
C203 C204 1.400 . S
C203 C208 1.490 . S
C204 H194 0.930 . S
C204 C203 1.400 . S
C204 C207 1.386 . S
H205 C221 0.930 . S
H206 C222 0.931 . S
C207 H195 0.929 . S
C207 C201 1.390 . S
C207 C204 1.386 . S
C208 C203 1.490 . S
C208 C210 1.395 . S
C208 C211 1.403 . S
H209 C215 0.930 . S
C210 H196 0.930 . S
C210 C208 1.395 . S
C210 C213 1.403 . S
C211 C208 1.403 . S
C211 C212 1.524 . S
C211 C215 1.400 . S
C212 H197 0.960 . S
C212 H198 0.960 . S
C212 H199 0.960 . S
C212 C211 1.524 . S
C213 C210 1.403 . S
C213 C214 1.392 . S
C213 C217 1.495 . S
C214 C213 1.392 . S
C214 C215 1.385 . S
C214 C216 1.478 . S
C215 H209 0.930 . S
C215 C211 1.400 . S
C215 C214 1.385 . S
C216 C214 1.478 . S
C216 C218 1.381 . S
C216 C222 1.383 . S
C217 C213 1.495 . S
C217 H223 0.959 . S
C217 H224 0.961 . S
C217 H225 0.960 . S
C218 C216 1.381 . S
C218 C219 1.394 . S
C218 H226 0.930 . S
C219 C218 1.394 . S
C219 C220 1.383 . S
C219 H227 0.929 . S
C220 C219 1.383 . S
C220 C221 1.377 . S
C221 H205 0.930 . S
C221 C220 1.377 . S
C221 C222 1.379 . S
C222 H206 0.931 . S
C222 C216 1.383 . S
C222 C221 1.379 . S
H223 C217 0.959 . S
H224 C217 0.961 . S
H225 C217 0.960 . S
H226 C218 0.930 . S
H227 C219 0.929 . S
H228 C236 0.929 . S
H229 C238 0.930 . S
H230 C240 0.930 . S
H231 C243 0.929 . S
H232 C246 0.930 . S
H233 C248 0.960 . S
H234 C248 0.960 . S
H235 C248 0.960 . S
C236 H228 0.929 . S
C236 C237 1.377 1_554 S
C236 C238 1.384 . S
C237 C236 1.377 1_556 S
C237 C243 1.390 . S
C238 H229 0.930 . S
C238 C236 1.384 . S
C238 C239 1.372 1_554 S
C239 C238 1.372 1_556 S
C239 C240 1.400 . S
C239 C244 1.490 . S
C240 H230 0.930 . S
C240 C239 1.400 . S
C240 C243 1.386 . S
H241 C257 0.930 . S
H242 C258 0.931 . S
C243 H231 0.929 . S
C243 C237 1.390 . S
C243 C240 1.386 . S
C244 C239 1.490 . S
C244 C246 1.384 1_556 S
C244 C247 1.413 . S
H245 C251 0.930 . S
C246 H232 0.930 . S
C246 C244 1.384 1_554 S
C246 C249 1.403 . S
C247 C244 1.413 . S
C247 C248 1.524 . S
C247 C251 1.400 . S
C248 H233 0.960 . S
C248 H234 0.960 . S
C248 H235 0.960 . S
C248 C247 1.524 . S
C249 C246 1.403 . S
C249 C250 1.392 . S
C249 C253 1.495 . S
C250 C249 1.392 . S
C250 C251 1.385 1_554 S
C250 C252 1.478 . S
C251 H245 0.930 . S
C251 C247 1.400 . S
C251 C250 1.385 1_556 S
C252 C250 1.478 . S
C252 C254 1.381 . S
C252 C258 1.383 1_554 S
C253 C249 1.495 . S
C253 H259 0.959 . S
C253 H260 0.961 . S
C253 H261 0.960 . S
C254 C252 1.381 . S
C254 C255 1.394 . S
C254 H262 0.930 . S
C255 C254 1.394 . S
C255 C256 1.383 1_554 S
C255 H263 0.929 . S
C256 C255 1.383 1_556 S
C256 C257 1.377 . S
C257 H241 0.930 . S
C257 C256 1.377 . S
C257 C258 1.379 . S
C258 H242 0.931 . S
C258 C252 1.383 1_556 S
C258 C257 1.379 . S
H259 C253 0.959 . S
H260 C253 0.961 . S
H261 C253 0.960 . S
H262 C254 0.930 . S
H263 C255 0.929 . S
H264 C272 0.929 . S
H265 C274 0.930 . S
H266 C276 0.930 . S
H267 C279 0.929 . S
H268 C282 0.930 . S
H269 C284 0.960 . S
H270 C284 0.960 . S
H271 C284 0.960 . S
C272 H264 0.929 . S
C272 C273 1.377 . S
C272 C274 1.384 . S
C273 C272 1.377 . S
C273 C279 1.390 1_556 S
C274 H265 0.930 . S
C274 C272 1.384 . S
C274 C275 1.372 . S
C275 C274 1.372 . S
C275 C276 1.400 1_556 S
C275 C280 1.490 . S
C276 H266 0.930 . S
C276 C275 1.400 1_554 S
C276 C279 1.386 . S
H277 C293 0.930 . S
H278 C294 0.931 . S
C279 H267 0.929 . S
C279 C273 1.390 1_554 S
C279 C276 1.386 . S
C280 C275 1.490 . S
C280 C282 1.395 . S
C280 C283 1.403 1_556 S
H281 C287 0.930 . S
C282 H268 0.930 . S
C282 C280 1.395 . S
C282 C285 1.403 . S
C283 C280 1.403 1_554 S
C283 C284 1.524 . S
C283 C287 1.400 . S
C284 H269 0.960 . S
C284 H270 0.960 . S
C284 H271 0.960 . S
C284 C283 1.524 . S
C285 C282 1.403 . S
C285 C286 1.392 . S
C285 C289 1.495 . S
C286 C285 1.392 . S
C286 C287 1.385 1_556 S
C286 C288 1.478 . S
C287 H281 0.930 . S
C287 C283 1.400 . S
C287 C286 1.385 1_554 S
C288 C286 1.478 . S
C288 C290 1.381 . S
C288 C294 1.383 1_556 S
C289 C285 1.495 . S
C289 H295 0.959 . S
C289 H296 0.961 . S
C289 H297 0.960 . S
C290 C288 1.381 . S
C290 C291 1.394 . S
C290 H298 0.930 . S
C291 C290 1.394 . S
C291 C292 1.383 . S
C291 H299 0.929 . S
C292 C291 1.383 . S
C292 C293 1.377 1_556 S
C293 H277 0.930 . S
C293 C292 1.377 1_554 S
C293 C294 1.379 . S
C294 H278 0.931 . S
C294 C288 1.383 1_554 S
C294 C293 1.379 . S
H295 C289 0.959 . S
H296 C289 0.961 . S
H297 C289 0.960 . S
H298 C290 0.930 . S
H299 C291 0.929 . S
H300 C308 0.929 . S
H301 C310 0.930 . S
H302 C312 0.930 . S
H303 C315 0.929 . S
H304 C318 0.930 . S
H305 C320 0.960 . S
H306 C320 0.960 . S
H307 C320 0.960 . S
C308 H300 0.929 . S
C308 C309 1.377 1_554 S
C308 C310 1.384 . S
C309 C308 1.377 1_556 S
C309 C315 1.390 . S
C310 H301 0.930 . S
C310 C308 1.384 . S
C310 C311 1.372 . S
C311 C310 1.372 . S
C311 C312 1.400 1_554 S
C311 C316 1.490 . S
C312 H302 0.930 . S
C312 C311 1.400 1_556 S
C312 C315 1.386 . S
H313 C329 0.930 . S
H314 C330 0.931 . S
C315 H303 0.929 . S
C315 C309 1.390 . S
C315 C312 1.386 . S
C316 C311 1.490 . S
C316 C318 1.395 . S
C316 C319 1.403 1_554 S
H317 C323 0.930 . S
C318 H304 0.930 . S
C318 C316 1.395 . S
C318 C321 1.403 . S
C319 C316 1.403 1_556 S
C319 C320 1.524 . S
C319 C323 1.400 . S
C320 H305 0.960 . S
C320 H306 0.960 . S
C320 H307 0.960 . S
C320 C319 1.524 . S
C321 C318 1.403 . S
C321 C322 1.392 . S
C321 C325 1.495 . S
C322 C321 1.392 . S
C322 C323 1.385 1_554 S
C322 C324 1.478 . S
C323 H317 0.930 . S
C323 C319 1.400 . S
C323 C322 1.385 1_556 S
C324 C322 1.478 . S
C324 C326 1.381 . S
C324 C330 1.383 1_554 S
C325 C321 1.495 . S
C325 H331 0.959 . S
C325 H332 0.961 . S
C325 H333 0.960 . S
C326 C324 1.381 . S
C326 C327 1.394 . S
C326 H334 0.930 . S
C327 C326 1.394 . S
C327 C328 1.383 . S
C327 H335 0.929 . S
C328 C327 1.383 . S
C328 C329 1.377 1_554 S
C329 H313 0.930 . S
C329 C328 1.377 1_556 S
C329 C330 1.379 . S
C330 H314 0.931 . S
C330 C324 1.383 1_556 S
C330 C329 1.379 . S
H331 C325 0.959 . S
H332 C325 0.961 . S
H333 C325 0.960 . S
H334 C326 0.930 . S
H335 C327 0.929 . S
H336 C344 0.929 . S
H337 C346 0.930 . S
H338 C348 0.930 . S
H339 C351 0.929 . S
H340 C354 0.930 . S
H341 C356 0.960 . S
H342 C356 0.960 1_556 S
H343 C356 0.960 . S
C344 H336 0.929 . S
C344 C345 1.377 1_556 S
C344 C346 1.384 . S
C345 C344 1.377 1_554 S
C345 C351 1.390 . S
C346 H337 0.930 . S
C346 C344 1.384 . S
C346 C347 1.372 1_556 S
C347 C346 1.372 1_554 S
C347 C348 1.400 . S
C347 C352 1.490 . S
C348 H338 0.930 . S
C348 C347 1.400 . S
C348 C351 1.386 . S
H349 C365 0.930 . S
H350 C366 0.931 . S
C351 H339 0.929 . S
C351 C345 1.390 . S
C351 C348 1.386 . S
C352 C347 1.490 . S
C352 C354 1.395 1_554 S
C352 C355 1.403 . S
H353 C359 0.930 . S
C354 H340 0.930 . S
C354 C352 1.395 1_556 S
C354 C357 1.403 . S
C355 C352 1.403 . S
C355 C356 1.524 . S
C355 C359 1.400 . S
C356 H341 0.960 . S
C356 H342 0.960 1_554 S
C356 H343 0.960 . S
C356 C355 1.524 . S
C357 C354 1.403 . S
C357 C358 1.392 1_556 S
C357 C361 1.495 . S
C358 C357 1.392 1_554 S
C358 C359 1.385 . S
C358 C360 1.478 . S
C359 H353 0.930 . S
C359 C355 1.400 . S
C359 C358 1.385 . S
C360 C358 1.478 . S
C360 C362 1.381 1_554 S
C360 C366 1.383 . S
C361 C357 1.495 . S
C361 H367 0.959 . S
C361 H368 0.961 1_556 S
C361 H369 0.960 . S
C362 C360 1.381 1_556 S
C362 C363 1.394 . S
C362 H370 0.930 . S
C363 C362 1.394 . S
C363 C364 1.383 1_556 S
C363 H371 0.929 . S
C364 C363 1.383 1_554 S
C364 C365 1.377 . S
C365 H349 0.930 . S
C365 C364 1.377 . S
C365 C366 1.379 . S
C366 H350 0.931 . S
C366 C360 1.383 . S
C366 C365 1.379 . S
H367 C361 0.959 . S
H368 C361 0.961 1_554 S
H369 C361 0.960 . S
H370 C362 0.930 . S
H371 C363 0.929 . S
H372 C380 0.929 . S
H373 C382 0.930 . S
H374 C384 0.930 . S
H375 C387 0.929 . S
H376 C390 0.930 . S
H377 C392 0.960 . S
H378 C392 0.960 . S
H379 C392 0.960 . S
C380 H372 0.929 . S
C380 C381 1.377 1_556 S
C380 C382 1.384 . S
C381 C380 1.377 1_554 S
C381 C387 1.390 . S
C382 H373 0.930 . S
C382 C380 1.384 . S
C382 C383 1.373 1_556 S
C383 C382 1.373 1_554 S
C383 C384 1.398 . S
C383 C388 1.490 1_554 S
C384 H374 0.930 . S
C384 C383 1.398 . S
C384 C387 1.386 . S
H385 C401 0.930 . S
H386 C402 0.931 . S
C387 H375 0.929 . S
C387 C381 1.390 . S
C387 C384 1.386 . S
C388 C383 1.490 1_556 S
C388 C390 1.395 . S
C388 C391 1.403 1_556 S
H389 C395 0.930 . S
C390 H376 0.930 . S
C390 C388 1.395 . S
C390 C393 1.403 . S
C391 C388 1.403 1_554 S
C391 C392 1.524 . S
C391 C395 1.400 . S
C392 H377 0.960 . S
C392 H378 0.960 . S
C392 H379 0.960 . S
C392 C391 1.524 . S
C393 C390 1.403 . S
C393 C394 1.392 . S
C393 C397 1.495 . S
C394 C393 1.392 . S
C394 C395 1.385 1_556 S
C394 C396 1.478 . S
C395 H389 0.930 . S
C395 C391 1.400 . S
C395 C394 1.385 1_554 S
C396 C394 1.478 . S
C396 C398 1.381 . S
C396 C402 1.383 1_556 S
C397 C393 1.495 . S
C397 H403 0.959 . S
C397 H404 0.961 . S
C397 H405 0.960 . S
C398 C396 1.381 . S
C398 C399 1.394 . S
C398 H406 0.930 . S
C399 C398 1.394 . S
C399 C400 1.383 1_556 S
C399 H407 0.929 . S
C400 C399 1.383 1_554 S
C400 C401 1.377 . S
C401 H385 0.930 . S
C401 C400 1.377 . S
C401 C402 1.379 . S
C402 H386 0.931 . S
C402 C396 1.383 1_554 S
C402 C401 1.379 . S
H403 C397 0.959 . S
H404 C397 0.961 . S
H405 C397 0.960 . S
H406 C398 0.930 . S
H407 C399 0.929 . S
H408 C416 0.929 . S
H409 C418 0.930 . S
H410 C420 0.930 . S
H411 C423 0.929 . S
H412 C426 0.930 . S
H413 C428 0.960 . S
H414 C428 0.960 . S
H415 C428 0.960 1_554 S
C416 H408 0.929 . S
C416 C417 1.379 1_556 S
C416 C418 1.384 . S
C417 C416 1.379 1_554 S
C417 C423 1.388 . S
C418 H409 0.930 . S
C418 C416 1.384 . S
C418 C419 1.372 . S
C419 C418 1.372 . S
C419 C420 1.400 1_556 S
C419 C424 1.490 . S
C420 H410 0.930 . S
C420 C419 1.400 1_554 S
C420 C423 1.386 . S
H421 C437 0.930 . S
H422 C438 0.931 . S
C423 H411 0.929 . S
C423 C417 1.388 . S
C423 C420 1.386 . S
C424 C419 1.490 . S
C424 C426 1.395 . S
C424 C427 1.403 . S
H425 C431 0.929 1_554 S
C426 H412 0.930 . S
C426 C424 1.395 . S
C426 C429 1.403 . S
C427 C424 1.403 . S
C427 C428 1.524 . S
C427 C431 1.400 . S
C428 H413 0.960 . S
C428 H414 0.960 . S
C428 H415 0.960 1_556 S
C428 C427 1.524 . S
C429 C426 1.403 . S
C429 C430 1.391 1_556 S
C429 C433 1.495 1_556 S
C430 C429 1.391 1_554 S
C430 C431 1.385 1_554 S
C430 C432 1.479 . S
C431 H425 0.929 1_556 S
C431 C427 1.400 . S
C431 C430 1.385 1_556 S
C432 C430 1.479 . S
C432 C434 1.381 1_554 S
C432 C438 1.383 . S
C433 C429 1.495 1_554 S
C433 H439 0.961 . S
C433 H440 0.961 . S
C433 H441 0.960 1_554 S
C434 C432 1.381 1_556 S
C434 C435 1.394 . S
C434 H442 0.930 . S
C435 C434 1.394 . S
C435 C436 1.383 1_556 S
C435 H443 0.929 . S
C436 C435 1.383 1_554 S
C436 C437 1.377 . S
C437 H421 0.930 . S
C437 C436 1.377 . S
C437 C438 1.379 . S
C438 H422 0.931 . S
C438 C432 1.383 . S
C438 C437 1.379 . S
H439 C433 0.961 . S
H440 C433 0.961 . S
H441 C433 0.960 1_556 S
H442 C434 0.930 . S
H443 C435 0.929 . S
C129 C10 1.462 . S
C148 C19 1.437 . S
C165 C50 1.466 . S
C184 C59 1.437 . S
C201 C99 1.460 . S
C220 C90 1.436 . S
C237 C11 2.613 1_556 S
C256 C82 2.569 . S
C273 C47 0.888 . S
C292 C7 0.899 . S
C309 C51 1.938 . S
C328 C87 1.914 1_554 S
C345 C2 2.612 1_554 S
C364 C91 2.590 . S
C381 C16 0.887 . S
C400 C56 0.893 . S
C417 C96 1.901 . S
C436 C42 1.926 . S
