# Generated by pormake.
# Topology wlu, (5)-cn, num edge types: 1
# Building blocks:
#     Node 0, Type 0, BuildingBlock: XOMCOT_clean_sbu_0, # of connection points: 5
#     Node 1, Type 0, BuildingBlock: XOMCOT_clean_sbu_0, # of connection points: 5
#     Node 2, Type 0, BuildingBlock: XOMCOT_clean_sbu_0, # of connection points: 5
#     Node 3, Type 0, BuildingBlock: XOMCOT_clean_sbu_0, # of connection points: 5
#     Node 4, Type 0, BuildingBlock: XOMCOT_clean_sbu_0, # of connection points: 5
#     Node 5, Type 0, BuildingBlock: XOMCOT_clean_sbu_0, # of connection points: 5
#     Node 6, Type 0, BuildingBlock: XOMCOT_clean_sbu_0, # of connection points: 5
#     Node 7, Type 0, BuildingBlock: XOMCOT_clean_sbu_0, # of connection points: 5
#     Node 8, Type 0, BuildingBlock: XOMCOT_clean_sbu_0, # of connection points: 5
#     Node 9, Type 0, BuildingBlock: XOMCOT_clean_sbu_0, # of connection points: 5
#     Node 10, Type 0, BuildingBlock: XOMCOT_clean_sbu_0, # of connection points: 5
#     Node 11, Type 0, BuildingBlock: XOMCOT_clean_sbu_0, # of connection points: 5
#     Node 12, Type 0, BuildingBlock: XOMCOT_clean_sbu_0, # of connection points: 5
#     Node 13, Type 0, BuildingBlock: XOMCOT_clean_sbu_0, # of connection points: 5
#     Node 14, Type 0, BuildingBlock: XOMCOT_clean_sbu_0, # of connection points: 5
#     Node 15, Type 0, BuildingBlock: XOMCOT_clean_sbu_0, # of connection points: 5
#     Node 16, Type 0, BuildingBlock: XOMCOT_clean_sbu_0, # of connection points: 5
#     Node 17, Type 0, BuildingBlock: XOMCOT_clean_sbu_0, # of connection points: 5
#     Node 18, Type 0, BuildingBlock: XOMCOT_clean_sbu_0, # of connection points: 5
#     Node 19, Type 0, BuildingBlock: XOMCOT_clean_sbu_0, # of connection points: 5
#     Node 20, Type 0, BuildingBlock: XOMCOT_clean_sbu_0, # of connection points: 5
#     Node 21, Type 0, BuildingBlock: XOMCOT_clean_sbu_0, # of connection points: 5
#     Node 22, Type 0, BuildingBlock: XOMCOT_clean_sbu_0, # of connection points: 5
#     Node 23, Type 0, BuildingBlock: XOMCOT_clean_sbu_0, # of connection points: 5
#     Node 24, Type 0, BuildingBlock: XOMCOT_clean_sbu_0, # of connection points: 5
#     Node 25, Type 0, BuildingBlock: XOMCOT_clean_sbu_0, # of connection points: 5
#     Node 26, Type 0, BuildingBlock: XOMCOT_clean_sbu_0, # of connection points: 5
#     Node 27, Type 0, BuildingBlock: XOMCOT_clean_sbu_0, # of connection points: 5
#     Node 28, Type 0, BuildingBlock: XOMCOT_clean_sbu_0, # of connection points: 5
#     Node 29, Type 0, BuildingBlock: XOMCOT_clean_sbu_0, # of connection points: 5
#     Node 30, Type 0, BuildingBlock: XOMCOT_clean_sbu_0, # of connection points: 5
#     Node 31, Type 0, BuildingBlock: XOMCOT_clean_sbu_0, # of connection points: 5
#     Node 32, Type 0, BuildingBlock: XOMCOT_clean_sbu_0, # of connection points: 5
#     Node 33, Type 0, BuildingBlock: XOMCOT_clean_sbu_0, # of connection points: 5
#     Node 34, Type 0, BuildingBlock: XOMCOT_clean_sbu_0, # of connection points: 5
#     Node 35, Type 0, BuildingBlock: XOMCOT_clean_sbu_0, # of connection points: 5
#     Edge 36, Type (0, 0), BuildingBlock: EZIPEK_clean_linker_0, # of connection points: 2
#     Edge 37, Type (0, 0), BuildingBlock: EZIPEK_clean_linker_0, # of connection points: 2
#     Edge 38, Type (0, 0), BuildingBlock: EZIPEK_clean_linker_0, # of connection points: 2
#     Edge 39, Type (0, 0), BuildingBlock: EZIPEK_clean_linker_0, # of connection points: 2
#     Edge 40, Type (0, 0), BuildingBlock: EZIPEK_clean_linker_0, # of connection points: 2
#     Edge 41, Type (0, 0), BuildingBlock: EZIPEK_clean_linker_0, # of connection points: 2
#     Edge 42, Type (0, 0), BuildingBlock: EZIPEK_clean_linker_0, # of connection points: 2
#     Edge 43, Type (0, 0), BuildingBlock: EZIPEK_clean_linker_0, # of connection points: 2
#     Edge 44, Type (0, 0), BuildingBlock: EZIPEK_clean_linker_0, # of connection points: 2
#     Edge 45, Type (0, 0), BuildingBlock: EZIPEK_clean_linker_0, # of connection points: 2
#     Edge 46, Type (0, 0), BuildingBlock: EZIPEK_clean_linker_0, # of connection points: 2
#     Edge 47, Type (0, 0), BuildingBlock: EZIPEK_clean_linker_0, # of connection points: 2
#     Edge 48, Type (0, 0), BuildingBlock: EZIPEK_clean_linker_0, # of connection points: 2
#     Edge 49, Type (0, 0), BuildingBlock: EZIPEK_clean_linker_0, # of connection points: 2
#     Edge 50, Type (0, 0), BuildingBlock: EZIPEK_clean_linker_0, # of connection points: 2
#     Edge 51, Type (0, 0), BuildingBlock: EZIPEK_clean_linker_0, # of connection points: 2
#     Edge 52, Type (0, 0), BuildingBlock: EZIPEK_clean_linker_0, # of connection points: 2
#     Edge 53, Type (0, 0), BuildingBlock: EZIPEK_clean_linker_0, # of connection points: 2
#     Edge 54, Type (0, 0), BuildingBlock: EZIPEK_clean_linker_0, # of connection points: 2
#     Edge 55, Type (0, 0), BuildingBlock: EZIPEK_clean_linker_0, # of connection points: 2
#     Edge 56, Type (0, 0), BuildingBlock: EZIPEK_clean_linker_0, # of connection points: 2
#     Edge 57, Type (0, 0), BuildingBlock: EZIPEK_clean_linker_0, # of connection points: 2
#     Edge 58, Type (0, 0), BuildingBlock: EZIPEK_clean_linker_0, # of connection points: 2
#     Edge 59, Type (0, 0), BuildingBlock: EZIPEK_clean_linker_0, # of connection points: 2
#     Edge 60, Type (0, 0), BuildingBlock: EZIPEK_clean_linker_0, # of connection points: 2
#     Edge 61, Type (0, 0), BuildingBlock: EZIPEK_clean_linker_0, # of connection points: 2
#     Edge 62, Type (0, 0), BuildingBlock: EZIPEK_clean_linker_0, # of connection points: 2
#     Edge 63, Type (0, 0), BuildingBlock: EZIPEK_clean_linker_0, # of connection points: 2
#     Edge 64, Type (0, 0), BuildingBlock: EZIPEK_clean_linker_0, # of connection points: 2
#     Edge 65, Type (0, 0), BuildingBlock: EZIPEK_clean_linker_0, # of connection points: 2
#     Edge 66, Type (0, 0), BuildingBlock: EZIPEK_clean_linker_0, # of connection points: 2
#     Edge 67, Type (0, 0), BuildingBlock: EZIPEK_clean_linker_0, # of connection points: 2
#     Edge 68, Type (0, 0), BuildingBlock: EZIPEK_clean_linker_0, # of connection points: 2
#     Edge 69, Type (0, 0), BuildingBlock: EZIPEK_clean_linker_0, # of connection points: 2
#     Edge 70, Type (0, 0), BuildingBlock: EZIPEK_clean_linker_0, # of connection points: 2
#     Edge 71, Type (0, 0), BuildingBlock: EZIPEK_clean_linker_0, # of connection points: 2
#     Edge 72, Type (0, 0), BuildingBlock: EZIPEK_clean_linker_0, # of connection points: 2
#     Edge 73, Type (0, 0), BuildingBlock: EZIPEK_clean_linker_0, # of connection points: 2
#     Edge 74, Type (0, 0), BuildingBlock: EZIPEK_clean_linker_0, # of connection points: 2
#     Edge 75, Type (0, 0), BuildingBlock: EZIPEK_clean_linker_0, # of connection points: 2
#     Edge 76, Type (0, 0), BuildingBlock: EZIPEK_clean_linker_0, # of connection points: 2
#     Edge 77, Type (0, 0), BuildingBlock: EZIPEK_clean_linker_0, # of connection points: 2
#     Edge 78, Type (0, 0), BuildingBlock: EZIPEK_clean_linker_0, # of connection points: 2
#     Edge 79, Type (0, 0), BuildingBlock: EZIPEK_clean_linker_0, # of connection points: 2
#     Edge 80, Type (0, 0), BuildingBlock: EZIPEK_clean_linker_0, # of connection points: 2
#     Edge 81, Type (0, 0), BuildingBlock: EZIPEK_clean_linker_0, # of connection points: 2
#     Edge 82, Type (0, 0), BuildingBlock: EZIPEK_clean_linker_0, # of connection points: 2
#     Edge 83, Type (0, 0), BuildingBlock: EZIPEK_clean_linker_0, # of connection points: 2
#     Edge 84, Type (0, 0), BuildingBlock: EZIPEK_clean_linker_0, # of connection points: 2
#     Edge 85, Type (0, 0), BuildingBlock: EZIPEK_clean_linker_0, # of connection points: 2
#     Edge 86, Type (0, 0), BuildingBlock: EZIPEK_clean_linker_0, # of connection points: 2
#     Edge 87, Type (0, 0), BuildingBlock: EZIPEK_clean_linker_0, # of connection points: 2
#     Edge 88, Type (0, 0), BuildingBlock: EZIPEK_clean_linker_0, # of connection points: 2
#     Edge 89, Type (0, 0), BuildingBlock: EZIPEK_clean_linker_0, # of connection points: 2
#     Edge 90, Type (0, 0), BuildingBlock: EZIPEK_clean_linker_0, # of connection points: 2
#     Edge 91, Type (0, 0), BuildingBlock: EZIPEK_clean_linker_0, # of connection points: 2
#     Edge 92, Type (0, 0), BuildingBlock: EZIPEK_clean_linker_0, # of connection points: 2
#     Edge 93, Type (0, 0), BuildingBlock: EZIPEK_clean_linker_0, # of connection points: 2
#     Edge 94, Type (0, 0), BuildingBlock: EZIPEK_clean_linker_0, # of connection points: 2
#     Edge 95, Type (0, 0), BuildingBlock: EZIPEK_clean_linker_0, # of connection points: 2
#     Edge 96, Type (0, 0), BuildingBlock: EZIPEK_clean_linker_0, # of connection points: 2
#     Edge 97, Type (0, 0), BuildingBlock: EZIPEK_clean_linker_0, # of connection points: 2
#     Edge 98, Type (0, 0), BuildingBlock: EZIPEK_clean_linker_0, # of connection points: 2
#     Edge 99, Type (0, 0), BuildingBlock: EZIPEK_clean_linker_0, # of connection points: 2
#     Edge 100, Type (0, 0), BuildingBlock: EZIPEK_clean_linker_0, # of connection points: 2
#     Edge 101, Type (0, 0), BuildingBlock: EZIPEK_clean_linker_0, # of connection points: 2
#     Edge 102, Type (0, 0), BuildingBlock: EZIPEK_clean_linker_0, # of connection points: 2
#     Edge 103, Type (0, 0), BuildingBlock: EZIPEK_clean_linker_0, # of connection points: 2
#     Edge 104, Type (0, 0), BuildingBlock: EZIPEK_clean_linker_0, # of connection points: 2
#     Edge 105, Type (0, 0), BuildingBlock: EZIPEK_clean_linker_0, # of connection points: 2
#     Edge 106, Type (0, 0), BuildingBlock: EZIPEK_clean_linker_0, # of connection points: 2
#     Edge 107, Type (0, 0), BuildingBlock: EZIPEK_clean_linker_0, # of connection points: 2
#     Edge 108, Type (0, 0), BuildingBlock: EZIPEK_clean_linker_0, # of connection points: 2
#     Edge 109, Type (0, 0), BuildingBlock: EZIPEK_clean_linker_0, # of connection points: 2
#     Edge 110, Type (0, 0), BuildingBlock: EZIPEK_clean_linker_0, # of connection points: 2
#     Edge 111, Type (0, 0), BuildingBlock: EZIPEK_clean_linker_0, # of connection points: 2
#     Edge 112, Type (0, 0), BuildingBlock: EZIPEK_clean_linker_0, # of connection points: 2
#     Edge 113, Type (0, 0), BuildingBlock: EZIPEK_clean_linker_0, # of connection points: 2
#     Edge 114, Type (0, 0), BuildingBlock: EZIPEK_clean_linker_0, # of connection points: 2
#     Edge 115, Type (0, 0), BuildingBlock: EZIPEK_clean_linker_0, # of connection points: 2
#     Edge 116, Type (0, 0), BuildingBlock: EZIPEK_clean_linker_0, # of connection points: 2
#     Edge 117, Type (0, 0), BuildingBlock: EZIPEK_clean_linker_0, # of connection points: 2
#     Edge 118, Type (0, 0), BuildingBlock: EZIPEK_clean_linker_0, # of connection points: 2
#     Edge 119, Type (0, 0), BuildingBlock: EZIPEK_clean_linker_0, # of connection points: 2
#     Edge 120, Type (0, 0), BuildingBlock: EZIPEK_clean_linker_0, # of connection points: 2
#     Edge 121, Type (0, 0), BuildingBlock: EZIPEK_clean_linker_0, # of connection points: 2
#     Edge 122, Type (0, 0), BuildingBlock: EZIPEK_clean_linker_0, # of connection points: 2
#     Edge 123, Type (0, 0), BuildingBlock: EZIPEK_clean_linker_0, # of connection points: 2
#     Edge 124, Type (0, 0), BuildingBlock: EZIPEK_clean_linker_0, # of connection points: 2
#     Edge 125, Type (0, 0), BuildingBlock: EZIPEK_clean_linker_0, # of connection points: 2
# Relax obj value: 0.117
# Max RMSD: 0.161
# Mean RMSD: 0.159
data_MOF--net-wlu--node1-XOMCOT_clean_sbu_0--edge1-EZIPEK_clean_linker_0
_symmetry_space_group_name_H-M    P1
_symmetry_Int_Tables_number       1
_symmetry_cell_setting            triclinic
loop_
_symmetry_equiv_pos_as_xyz
'x, y, z'
_cell_length_a     50.235133
_cell_length_b     50.289696
_cell_length_c     42.812831
_cell_angle_alpha  89.887452
_cell_angle_beta   90.100136
_cell_angle_gamma 120.06727
loop_
_atom_site_label
_atom_site_type_symbol
_atom_site_fract_x
_atom_site_fract_y
_atom_site_fract_z
_atom_type_partial_charge
Co0 Co 0.30326 0.20709 0.02069 0.0
C1 C 0.27598 0.14125 1.00174 0.0
C2 C 0.24291 0.15578 0.99644 0.0
C3 C 0.22978 0.12574 0.98651 0.0
N4 N 0.27179 0.16557 1.00698 0.0
N5 N 0.2507 0.11675 0.98972 0.0
H6 H 0.29736 0.14151 1.00523 0.0
H7 H 0.23188 0.16931 0.99488 0.0
C8 C 0.24464 0.20597 0.04249 0.0
O9 O 0.23388 0.17913 0.05623 0.0
N10 N 0.33501 0.24771 0.03415 0.0
C11 C 0.36154 0.25345 0.04791 0.0
C12 C 0.37531 0.28218 0.06115 0.0
C13 C 0.3332 0.27339 0.03895 0.0
N14 N 0.35744 0.29464 0.05575 0.0
C15 C 0.31758 0.1747 0.06635 0.0
C16 C 0.31079 0.20366 0.11794 0.0
C17 C 0.32614 0.18698 0.12124 0.0
C18 C 0.32842 0.17147 0.09532 0.0
C19 C 0.29992 0.20608 0.08843 0.0
N20 N 0.30419 0.19242 0.06279 0.0
H21 H 0.32298 0.1654 0.0464 0.0
H22 H 0.29076 0.22129 0.08584 0.0
H23 H 0.36935 0.23702 0.04999 0.0
H24 H 0.31378 0.27585 0.03215 0.0
O25 O 0.33458 0.20089 1.00106 0.0
O26 O 0.30892 0.22067 0.97783 0.0
O27 O 0.27152 0.21941 0.0307 0.0
C28 C 0.32946 0.21228 0.97594 0.0
H29 H 0.20691 0.11179 0.97695 0.0
H30 H 0.39615 0.29261 0.07502 0.0
H31 H 0.30891 0.21621 0.13754 0.0
H32 H 0.34047 0.15869 0.097 0.0
Co33 Co 0.84088 0.10656 0.02583 0.0
C34 C 0.90809 0.14456 0.01289 0.0
C35 C 0.89014 0.09824 0.99761 0.0
C36 C 0.92013 0.11528 0.98755 0.0
N37 N 0.88252 0.11634 0.01415 0.0
N38 N 0.9312 0.14446 0.99686 0.0
H39 H 0.9094 0.16534 0.02134 0.0
H40 H 0.87463 0.07466 0.99148 0.0
C41 C 0.84362 0.05005 0.04754 0.0
O42 O 0.8723 0.06644 0.0569 0.0
N43 N 0.79975 0.0976 0.03703 0.0
C44 C 0.793 0.1185 0.04842 0.0
C45 C 0.76417 0.1034 0.06154 0.0
C46 C 0.77444 0.06997 0.04263 0.0
N47 N 0.75255 0.07292 0.05809 0.0
C48 C 0.86835 0.15563 0.06976 0.0
C49 C 0.84566 0.12039 0.12311 0.0
C50 C 0.85868 0.15236 0.12521 0.0
C51 C 0.87086 0.17002 0.0983 0.0
C52 C 0.84345 0.10675 0.09388 0.0
N53 N 0.85428 0.12434 0.06745 0.0
H54 H 0.87537 0.16984 0.04919 0.0
H55 H 0.83095 0.08204 0.09242 0.0
H56 H 0.80882 0.14298 0.04917 0.0
H57 H 0.77273 0.04811 0.03748 0.0
O58 O 0.84708 0.14282 1.00323 0.0
O59 O 0.82878 0.0965 0.98291 0.0
O60 O 0.82875 0.06317 0.03887 0.0
C61 C 0.8367 0.12512 0.97884 0.0
H62 H 0.93226 0.10733 0.97288 0.0
H63 H 0.7531 0.11392 0.07404 0.0
H64 H 0.83571 0.10602 0.14353 0.0
H65 H 0.88078 0.19474 0.09904 0.0
Co66 Co 0.94132 0.74839 0.02732 0.0
C67 C 0.9019 0.7737 1.00556 0.0
C68 C 0.94948 0.80862 1.007 0.0
C69 C 0.93264 0.82176 0.99681 0.0
N70 N 0.9302 0.77846 0.01292 0.0
N71 N 0.90284 0.79973 0.99581 0.0
H72 H 0.88096 0.75172 1.00679 0.0
H73 H 0.97419 0.82055 0.00956 0.0
C74 C 1.00776 0.79071 0.0542 0.0
O75 O 1.00801 0.77124 0.07426 0.0
N76 N 0.95095 0.71722 0.0418 0.0
C77 C 0.92976 0.69091 0.05568 0.0
C78 C 0.94354 0.67504 0.06643 0.0
C79 C 0.97735 0.7161 0.04299 0.0
N80 N 0.9735 0.69102 0.05888 0.0
C81 C 0.89032 0.72833 0.06872 0.0
C82 C 0.92294 0.73905 0.12367 0.0
C83 C 0.89106 0.71909 0.12401 0.0
C84 C 0.87457 0.71499 0.09644 0.0
C85 C 0.93783 0.75225 0.09536 0.0
N86 N 0.92176 0.74528 0.0679 0.0
H87 H 0.87711 0.7222 0.04747 0.0
H88 H 0.9623 0.76636 0.09561 0.0
H89 H 0.90583 0.68405 0.05876 0.0
H90 H 0.99912 0.73355 0.03352 0.0
O91 O 0.90615 0.716 1.00538 0.0
O92 O 0.95249 0.7447 0.98491 0.0
O93 O 0.98338 0.78468 0.03903 0.0
C94 C 0.92413 0.723 0.98128 0.0
H95 H 0.94149 0.84563 0.99065 0.0
H96 H 0.93281 0.65424 0.08032 0.0
H97 H 0.93635 0.74324 0.1448 0.0
H98 H 0.84984 0.69996 0.09593 0.0
Co99 Co 0.21913 0.27503 0.48141 0.0
C100 C 0.28285 0.31418 0.45411 0.0
C101 C 0.283 0.2909 0.49602 0.0
C102 C 0.31264 0.30712 0.48485 0.0
N103 N 0.26401 0.29501 0.47672 0.0
N104 N 0.31246 0.32177 0.45861 0.0
H105 H 0.27573 0.32324 0.43508 0.0
H106 H 0.27593 0.27697 0.51693 0.0
C107 C 0.24614 0.33065 0.52242 0.0
O108 O 0.26743 0.3458 0.50137 0.0
N109 N 0.17475 0.25473 0.48579 0.0
C110 C 0.15464 0.24241 0.46198 0.0
C111 C 0.12527 0.23064 0.47334 0.0
C112 C 0.15729 0.25011 0.51155 0.0
N113 N 0.12691 0.23557 0.50437 0.0
C114 C 0.21942 0.29622 0.4189 0.0
C115 C 0.20389 0.34017 0.43416 0.0
C116 C 0.20824 0.33575 0.40274 0.0
C117 C 0.21586 0.31334 0.39513 0.0
C118 C 0.20752 0.32245 0.45722 0.0
N119 N 0.21634 0.30155 0.44962 0.0
H120 H 0.22515 0.2789 0.41263 0.0
H121 H 0.20223 0.325 0.48102 0.0
H122 H 0.16093 0.24205 0.43791 0.0
H123 H 0.16646 0.25712 0.53488 0.0
O124 O 0.21491 0.24129 0.45546 0.0
O125 O 0.21967 0.2436 0.50693 0.0
O126 O 0.22397 0.30357 0.51684 0.0
C127 C 0.21728 0.22885 0.48129 0.0
H128 H 0.33289 0.30841 0.49533 0.0
H129 H 0.10418 0.21914 0.45991 0.0
H130 H 0.19708 0.3567 0.44072 0.0
H131 H 0.21885 0.30899 0.37099 0.0
Co132 Co 0.75753 0.94928 0.48353 0.0
C133 C 0.73392 0.9879 0.45717 0.0
C134 C 0.72943 0.98449 0.50706 0.0
C135 C 0.71396 0.99876 0.49598 0.0
N136 N 0.74154 0.97726 0.48267 0.0
N137 N 0.71661 1.00058 0.46464 0.0
H138 H 0.73877 0.98443 0.43343 0.0
H139 H 0.73003 0.97803 0.53105 0.0
C140 C 0.71453 0.89855 0.52774 0.0
O141 O 0.71917 0.87805 0.51374 0.0
N142 N 0.77327 0.92045 0.48421 0.0
C143 C 0.76937 0.90025 0.46137 0.0
C144 C 0.78009 0.88147 0.4712 0.0
C145 C 0.78726 0.91372 0.50773 0.0
N146 N 0.79134 0.88971 0.50026 0.0
C147 C 0.74062 0.93351 0.41895 0.0
C148 C 0.68196 0.88479 0.42898 0.0
C149 C 0.69401 0.89032 0.39882 0.0
C150 C 0.72335 0.91551 0.39364 0.0
C151 C 0.7 0.90319 0.45358 0.0
N152 N 0.72957 0.92637 0.44886 0.0
H153 H 0.76366 0.95212 0.41464 0.0
H154 H 0.68988 0.8979 0.47618 0.0
H155 H 0.75892 0.89821 0.43896 0.0
H156 H 0.7939 0.92571 0.52982 0.0
O157 O 0.79352 0.97963 0.46043 0.0
O158 O 0.78983 0.97643 0.51169 0.0
O159 O 0.72657 0.92587 0.51736 0.0
C160 C 0.80581 0.99138 0.48744 0.0
H161 H 0.70016 1.00547 0.50961 0.0
H162 H 0.77981 0.86304 0.45789 0.0
H163 H 0.65911 0.86573 0.43364 0.0
H164 H 0.73323 0.92053 0.37042 0.0
Co165 Co 0.09955 0.82756 0.48214 0.0
C166 C 0.06839 0.76446 0.45312 0.0
C167 C 0.06295 0.7631 0.50279 0.0
C168 C 0.04919 0.73342 0.4919 0.0
N169 N 0.07611 0.78274 0.47868 0.0
N170 N 0.05259 0.73426 0.46065 0.0
H171 H 0.07406 0.77256 0.42943 0.0
H172 H 0.06381 0.76984 0.52685 0.0
C173 C 0.1318 0.80436 0.5234 0.0
O174 O 0.12745 0.7836 0.50232 0.0
N175 N 0.12218 0.87196 0.48554 0.0
C176 C 0.12918 0.8916 0.46142 0.0
C177 C 0.14658 0.92117 0.47228 0.0
C178 C 0.13524 0.88987 0.51096 0.0
N179 N 0.15051 0.92009 0.5033 0.0
C180 C 0.11977 0.82747 0.41941 0.0
C181 C 0.17964 0.8435 0.43387 0.0
C182 C 0.17022 0.83862 0.40265 0.0
C183 C 0.14003 0.83082 0.39541 0.0
C184 C 0.15866 0.84012 0.45717 0.0
N185 N 0.12868 0.83084 0.45 0.0
H186 H 0.09685 0.82243 0.41328 0.0
H187 H 0.16709 0.84604 0.48073 0.0
H188 H 0.12226 0.88485 0.43747 0.0
H189 H 0.13378 0.88111 0.53439 0.0
O190 O 0.06868 0.82979 0.45654 0.0
O191 O 0.06742 0.82556 0.5081 0.0
O192 O 0.1251 0.82516 0.51731 0.0
C193 C 0.05423 0.82718 0.48264 0.0
H194 H 0.03758 0.7127 0.50586 0.0
H195 H 0.1557 0.942 0.45851 0.0
H196 H 0.20318 0.85059 0.44008 0.0
H197 H 0.13231 0.8277 0.37136 0.0
Co198 Co 0.75475 0.8331 0.99718 0.0
C199 C 0.77872 0.89662 0.02211 0.0
C200 C 0.81324 0.88344 0.02238 0.0
C201 C 0.82662 0.91364 0.03168 0.0
N202 N 0.78331 0.87286 0.01563 0.0
N203 N 0.80497 0.92193 0.03138 0.0
H204 H 0.75711 0.89606 0.01893 0.0
H205 H 0.82504 0.87054 0.02008 0.0
C206 C 0.79819 0.81338 0.96601 0.0
O207 O 0.7793 0.79638 0.94383 0.0
N208 N 0.7255 0.79352 0.97873 0.0
C209 C 0.70002 0.78833 0.96299 0.0
C210 C 0.68586 0.75927 0.95069 0.0
C211 C 0.72556 0.76663 0.97694 0.0
N212 N 0.70211 0.7458 0.95908 0.0
C213 C 0.73254 0.86477 0.95936 0.0
C214 C 0.75336 0.85641 0.90266 0.0
C215 C 0.73033 0.86439 0.903 0.0
C216 C 0.72105 0.87004 0.93173 0.0
C217 C 0.7643 0.85135 0.93099 0.0
N218 N 0.75234 0.85352 0.95892 0.0
H219 H 0.72293 0.86694 0.98101 0.0
H220 H 0.78115 0.84429 0.92997 0.0
H221 H 0.69232 0.80472 0.96007 0.0
H222 H 0.74297 0.76267 0.98709 0.0
O223 O 0.72096 0.83197 0.02025 0.0
O224 O 0.75024 0.81375 0.0375 0.0
O225 O 0.79198 0.83003 0.98371 0.0
C226 C 0.72754 0.81859 0.04251 0.0
H227 H 0.85061 0.92869 0.03745 0.0
H228 H 0.66589 0.74918 0.93555 0.0
H229 H 0.76154 0.85247 0.88074 0.0
H230 H 0.70356 0.8766 0.93285 0.0
Co231 Co 0.21523 0.93391 0.99048 0.0
C232 C 0.14998 0.89396 0.01046 0.0
C233 C 0.16623 0.94169 0.01905 0.0
C234 C 0.13627 0.9249 0.02939 0.0
N235 N 0.17478 0.92235 1.0069 0.0
N236 N 0.12624 0.89497 0.02405 0.0
H237 H 0.14924 0.87288 1.00395 0.0
H238 H 0.18089 0.96633 0.02083 0.0
C239 C 0.23645 0.99798 0.96034 0.0
O240 O 0.25418 0.99642 0.93882 0.0
N241 N 0.25562 0.94447 0.9743 0.0
C242 C 0.26168 0.92366 0.96119 0.0
C243 C 0.2914 0.93818 0.95068 0.0
C244 C 0.28265 0.97138 0.97297 0.0
N245 N 0.30445 0.96814 0.95778 0.0
C246 C 0.1865 0.88126 0.95097 0.0
C247 C 0.19782 0.91221 0.89489 0.0
C248 C 0.19094 0.88153 0.89485 0.0
C249 C 0.18371 0.86564 0.92315 0.0
C250 C 0.20045 0.92709 0.92344 0.0
N251 N 0.19694 0.91217 0.9512 0.0
H252 H 0.18327 0.86883 0.97244 0.0
H253 H 0.20674 0.95082 0.92287 0.0
H254 H 0.24547 0.89944 0.95889 0.0
H255 H 0.28625 0.99299 0.982 0.0
O256 O 0.21524 0.90061 0.01359 0.0
O257 O 0.23252 0.94757 0.0317 0.0
O258 O 0.21894 0.97468 0.97733 0.0
C259 C 0.22786 0.92003 0.03636 0.0
H260 H 0.12297 0.93383 0.04038 0.0
H261 H 0.30235 0.92783 0.93767 0.0
H262 H 0.20276 0.92498 0.87323 0.0
H263 H 0.1778 0.84176 0.92393 0.0
Co264 Co 0.11402 0.29178 0.98968 0.0
C265 C 0.15351 0.26735 0.01359 0.0
C266 C 0.10618 0.23193 0.01057 0.0
C267 C 0.12324 0.21885 0.02014 0.0
N268 N 0.12518 0.26233 1.00584 0.0
N269 N 0.15292 0.24109 0.02192 0.0
H270 H 0.17435 0.28943 0.01234 0.0
H271 H 0.0816 0.21964 1.00694 0.0
C272 C 0.04793 0.24975 0.96256 0.0
O273 O 0.04831 0.26924 0.9419 0.0
N274 N 0.10419 0.32215 0.97369 0.0
C275 C 0.12477 0.34777 0.95841 0.0
C276 C 0.1105 0.36316 0.94777 0.0
C277 C 0.07781 0.32328 0.97356 0.0
N278 N 0.0809 0.34751 0.95677 0.0
C279 C 0.16529 0.31132 0.94871 0.0
C280 C 0.13237 0.29701 0.89358 0.0
C281 C 0.16402 0.31806 0.89294 0.0
C282 C 0.18075 0.3239 0.92065 0.0
C283 C 0.11778 0.28478 0.92223 0.0
N284 N 0.1339 0.29368 0.94966 0.0
H285 H 0.1785 0.31859 0.96997 0.0
H286 H 0.09338 0.26985 0.92214 0.0
H287 H 0.14857 0.35459 0.95453 0.0
H288 H 0.05653 0.30624 0.98425 0.0
O289 O 0.14885 0.32492 0.01135 0.0
O290 O 0.10217 0.29666 0.03119 0.0
O291 O 0.07215 0.25537 0.97786 0.0
C292 C 0.13028 0.31889 0.03483 0.0
H293 H 0.11467 0.19472 0.02473 0.0
H294 H 0.12059 0.38344 0.93309 0.0
H295 H 0.11882 0.29144 0.87239 0.0
H296 H 0.20533 0.33975 0.92094 0.0
Co297 Co 0.8453 0.75959 0.53326 0.0
C298 C 0.90829 0.78674 0.50657 0.0
C299 C 0.89764 0.82228 0.51403 0.0
C300 C 0.92738 0.83549 0.5034 0.0
N301 N 0.88508 0.7914 0.51588 0.0
N302 N 0.93418 0.81313 0.49926 0.0
H303 H 0.90706 0.76466 0.50642 0.0
H304 H 0.88745 0.83545 0.52129 0.0
C305 C 0.83817 0.81537 0.55198 0.0
O306 O 0.86144 0.82714 0.57156 0.0
N307 N 0.80735 0.72693 0.55132 0.0
C308 C 0.8079 0.70611 0.57071 0.0
C309 C 0.77973 0.68889 0.58402 0.0
C310 C 0.77774 0.72076 0.55179 0.0
N311 N 0.76028 0.69732 0.57186 0.0
C312 C 0.88592 0.75739 0.57846 0.0
C313 C 0.856 0.76203 0.63048 0.0
C314 C 0.87605 0.75039 0.63402 0.0
C315 C 0.89218 0.74956 0.60779 0.0
C316 C 0.8499 0.76907 0.60051 0.0
N317 N 0.86398 0.7656 0.57473 0.0
H318 H 0.89625 0.75328 0.55843 0.0
H319 H 0.83125 0.77374 0.59784 0.0
H320 H 0.82795 0.70416 0.57569 0.0
H321 H 0.76927 0.73299 0.53793 0.0
O322 O 0.85286 0.72776 0.51644 0.0
O323 O 0.82857 0.74808 0.4918 0.0
O324 O 0.82983 0.78973 0.53855 0.0
C325 C 0.83853 0.72881 0.49141 0.0
H326 H 0.94351 0.85984 0.50106 0.0
H327 H 0.77369 0.67078 0.60102 0.0
H328 H 0.84305 0.76291 0.65026 0.0
H329 H 0.90784 0.74071 0.60958 0.0
Co330 Co 0.29012 0.09187 0.53159 0.0
C331 C 0.25831 0.12724 0.51569 0.0
C332 C 0.23549 0.08182 0.49645 0.0
C333 C 0.22048 0.09686 0.48619 0.0
N334 N 0.25894 0.10061 0.51543 0.0
N335 N 0.23496 0.12534 0.49832 0.0
H336 H 0.27505 0.1481 0.52699 0.0
H337 H 0.23028 0.05901 0.48964 0.0
C338 C 0.22978 0.03916 0.55401 0.0
O339 O 0.22306 0.05854 0.56739 0.0
N340 N 0.32173 0.08388 0.54723 0.0
C341 C 0.35027 0.10631 0.55515 0.0
C342 C 0.36614 0.09331 0.56785 0.0
C343 C 0.32052 0.05729 0.55547 0.0
N344 N 0.34754 0.06266 0.56803 0.0
C345 C 0.30748 0.14108 0.57425 0.0
C346 C 0.2935 0.1068 0.62847 0.0
C347 C 0.31143 0.13891 0.63032 0.0
C348 C 0.31774 0.156 0.60281 0.0
C349 C 0.28432 0.09262 0.59913 0.0
N350 N 0.2912 0.10974 0.57234 0.0
H351 H 0.31525 0.15502 0.5535 0.0
H352 H 0.27385 0.06796 0.59803 0.0
H353 H 0.35875 0.13066 0.55283 0.0
H354 H 0.30042 0.03475 0.55303 0.0
O355 O 0.32186 0.12818 0.51068 0.0
O356 O 0.29628 0.08182 0.48975 0.0
O357 O 0.25675 0.04881 0.543 0.0
C358 C 0.31752 0.11047 0.48687 0.0
H359 H 0.20119 0.08805 0.47022 0.0
H360 H 0.38934 0.1054 0.57705 0.0
H361 H 0.28849 0.0928 0.64927 0.0
H362 H 0.33189 0.18082 0.60322 0.0
Co363 Co 0.95464 0.20221 0.52995 0.0
C364 C 0.91493 0.13634 0.51215 0.0
C365 C 0.96228 0.15173 0.50316 0.0
C366 C 0.94519 0.12089 0.49576 0.0
N367 N 0.94346 0.16118 0.51483 0.0
N368 N 0.91532 0.11133 0.50124 0.0
H369 H 0.89394 0.1362 0.51756 0.0
H370 H 0.98675 0.16621 0.49974 0.0
C371 C 1.0078 0.19509 0.55473 0.0
O372 O 0.98882 0.17013 0.57021 0.0
N373 N 0.96454 0.2426 0.54486 0.0
C374 C 0.94294 0.24964 0.55338 0.0
C375 C 0.95703 0.27844 0.56624 0.0
C376 C 0.99176 0.26744 0.55282 0.0
N377 N 0.98756 0.28956 0.56592 0.0
C378 C 0.90581 0.17069 0.57357 0.0
C379 C 0.94065 0.19176 0.62734 0.0
C380 C 0.90847 0.17625 0.62966 0.0
C381 C 0.89112 0.16518 0.60236 0.0
C382 C 0.95454 0.19734 0.5978 0.0
N383 N 0.93716 0.18646 0.57123 0.0
H384 H 0.89157 0.16462 0.55311 0.0
H385 H 0.97911 0.21228 0.59634 0.0
H386 H 0.91839 0.2343 0.55166 0.0
H387 H 1.01389 0.26908 0.54999 0.0
O388 O 0.91849 0.19879 0.50963 0.0
O389 O 0.9643 0.21759 0.48767 0.0
O390 O 0.99768 0.21086 0.54089 0.0
C391 C 0.93599 0.21155 0.48548 0.0
H392 H 0.95397 0.10668 0.48674 0.0
H393 H 0.94576 0.29002 0.57614 0.0
H394 H 0.95483 0.2012 0.64797 0.0
H395 H 0.86623 0.15372 0.60314 0.0
Co396 Co 0.96277 0.53636 0.3563 0.0
C397 C 0.92862 0.46753 0.34473 0.0
C398 C 0.91324 0.49197 0.31574 0.0
C399 C 0.89815 0.46161 0.30665 0.0
N400 N 0.93248 0.49596 0.33963 0.0
N401 N 0.90785 0.44632 0.32485 0.0
H402 H 0.94087 0.46211 0.3619 0.0
H403 H 0.91076 0.51013 0.30509 0.0
C404 C 0.90097 0.52582 0.37884 0.0
O405 O 0.89283 0.49761 0.38723 0.0
N406 N 0.99331 0.57632 0.37232 0.0
C407 C 1.02121 0.5828 0.38293 0.0
C408 C 0.03542 0.61136 0.39645 0.0
C409 C 0.9911 0.60144 0.37912 0.0
N410 N 1.0166 0.62313 0.3941 0.0
C411 C 0.98331 0.50495 0.39659 0.0
C412 C 0.97156 0.52498 0.45214 0.0
C413 C 0.9903 0.51167 0.45249 0.0
C414 C 0.99531 0.50073 0.42444 0.0
C415 C 0.95964 0.52848 0.42369 0.0
N416 N 0.96601 0.51903 0.39617 0.0
H417 H 0.98995 0.49885 0.37499 0.0
H418 H 0.94769 0.54126 0.42363 0.0
H419 H 0.03018 0.56725 0.38201 0.0
H420 H 0.97101 0.60344 0.3743 0.0
O421 O 0.99519 0.53457 0.33309 0.0
O422 O 0.96694 0.55363 0.31522 0.0
O423 O 0.92855 0.54418 0.36996 0.0
C424 C 0.98883 0.54756 0.31021 0.0
H425 H 0.88157 0.45153 0.28789 0.0
H426 H 0.05766 0.62246 0.40785 0.0
H427 H 0.96758 0.5341 0.4734 0.0
H428 H 1.01 0.49069 0.42378 0.0
Co429 Co 0.50574 0.43652 0.35128 0.0
C430 C 0.57394 0.47518 0.34085 0.0
C431 C 0.55591 0.4298 0.32265 0.0
C432 C 0.58686 0.44637 0.31593 0.0
N433 N 0.54772 0.44743 0.33916 0.0
N434 N 0.59814 0.47502 0.32712 0.0
H435 H 0.57553 0.49551 0.35101 0.0
H436 H 0.54049 0.40658 0.31527 0.0
C437 C 0.51186 0.38239 0.37469 0.0
O438 O 0.54082 0.39993 0.38264 0.0
N439 N 0.46432 0.4265 0.36333 0.0
C440 C 0.45461 0.447 0.36646 0.0
C441 C 0.42605 0.43279 0.38034 0.0
C442 C 0.44154 0.40009 0.37588 0.0
N443 N 0.41798 0.40341 0.38633 0.0
C444 C 0.53161 0.48767 0.39248 0.0
C445 C 0.51126 0.45486 0.44751 0.0
C446 C 0.52276 0.48666 0.44787 0.0
C447 C 0.53372 0.50315 0.42014 0.0
C448 C 0.50962 0.44011 0.41912 0.0
N449 N 0.51937 0.45649 0.39187 0.0
H450 H 0.53785 0.50086 0.37119 0.0
H451 H 0.49841 0.41537 0.41892 0.0
H452 H 0.46798 0.4711 0.36051 0.0
H453 H 0.44259 0.3793 0.37895 0.0
O454 O 0.51023 0.47114 0.32695 0.0
O455 O 0.49226 0.42393 0.30883 0.0
O456 O 0.49577 0.39423 0.3661 0.0
C457 C 0.4991 0.45207 0.3037 0.0
H458 H 0.59994 0.43832 0.30297 0.0
H459 H 0.41292 0.44356 0.3871 0.0
H460 H 0.50235 0.44141 0.46865 0.0
H461 H 0.54255 0.52771 0.41961 0.0
Co462 Co 0.60592 0.07937 0.35019 0.0
C463 C 0.56991 0.11051 0.33444 0.0
C464 C 0.61673 0.13712 0.31977 0.0
C465 C 0.60172 0.15269 0.31156 0.0
N466 N 0.59715 0.11103 0.33511 0.0
N467 N 0.57223 0.13581 0.32064 0.0
H468 H 0.54853 0.09207 0.34325 0.0
H469 H 0.64031 0.14446 0.31444 0.0
C470 C 0.66143 0.13877 0.37285 0.0
O471 O 0.64384 0.14951 0.38254 0.0
N472 N 0.61414 0.04775 0.36512 0.0
C473 C 0.59278 0.02119 0.37832 0.0
C474 C 0.60733 1.00819 0.39396 0.0
C475 C 0.64153 0.05026 0.37248 0.0
N476 N 0.63792 0.02655 0.39054 0.0
C477 C 0.5568 0.06192 0.39376 0.0
C478 C 0.59164 0.07197 0.44703 0.0
C479 C 0.55953 0.05423 0.44914 0.0
C480 C 0.54209 0.05029 0.42233 0.0
C481 C 0.60555 0.08363 0.41792 0.0
N482 N 0.5882 0.07784 0.39141 0.0
H483 H 0.54262 0.05495 0.37317 0.0
H484 H 0.63021 0.09457 0.41648 0.0
H485 H 0.56833 1.01284 0.37834 0.0
H486 H 0.66364 0.06988 0.36669 0.0
O487 O 0.56926 0.04818 0.329 0.0
O488 O 0.61566 0.07376 0.3078 0.0
O489 O 0.64946 0.11144 0.36234 0.0
C490 C 0.5868 0.05311 0.30485 0.0
H491 H 0.61154 0.17454 0.2995 0.0
H492 H 0.59637 0.98752 0.40806 0.0
H493 H 0.60586 0.07513 0.4673 0.0
H494 H 0.51725 0.03627 0.42302 0.0
Co495 Co 0.88841 0.61683 0.81815 0.0
C496 C 0.94997 0.64379 0.78946 0.0
C497 C 0.9529 0.65803 0.83723 0.0
C498 C 0.98179 0.67367 0.8242 0.0
N499 N 0.93288 0.63958 0.81534 0.0
N500 N 0.97991 0.66482 0.79416 0.0
H501 H 0.94053 0.63269 0.7673 0.0
H502 H 0.94698 0.66072 0.86082 0.0
C503 C 0.87792 0.6578 0.86416 0.0
O504 O 0.85572 0.65777 0.8479 0.0
N505 N 0.84328 0.59364 0.82021 0.0
C506 C 0.82437 0.57643 0.79686 0.0
C507 C 0.79425 0.56403 0.80617 0.0
C508 C 0.82392 0.59033 0.84395 0.0
N509 N 0.79401 0.57298 0.83567 0.0
C510 C 0.87793 0.63363 0.75684 0.0
C511 C 0.89762 0.69457 0.76985 0.0
C512 C 0.88622 0.6833 0.73995 0.0
C513 C 0.87693 0.65256 0.7334 0.0
C514 C 0.89906 0.67503 0.79232 0.0
N515 N 0.88746 0.64445 0.78638 0.0
H516 H 0.87165 0.6104 0.75092 0.0
H517 H 0.91022 0.68486 0.81419 0.0
H518 H 0.83168 0.57243 0.77457 0.0
H519 H 0.83106 0.60014 0.86682 0.0
O520 O 0.88833 0.58483 0.79213 0.0
O521 O 0.89005 0.58619 0.84368 0.0
O522 O 0.89156 0.64388 0.85431 0.0
C523 C 0.89059 0.57257 0.8182 0.0
H524 H 1.00262 0.69067 0.83572 0.0
H525 H 0.774 0.54933 0.79245 0.0
H526 H 0.90588 0.71842 0.77558 0.0
H527 H 0.86882 0.64321 0.7103 0.0
Co528 Co 0.43821 0.28582 0.81587 0.0
C529 C 0.40595 0.31523 0.78582 0.0
C530 C 0.39567 0.30718 0.83482 0.0
C531 C 0.37904 0.31961 0.82235 0.0
N532 N 0.41225 0.30408 0.81188 0.0
N533 N 0.38545 0.3246 0.7916 0.0
H534 H 0.4156 0.31587 0.76306 0.0
H535 H 0.39544 0.30068 0.85894 0.0
C536 C 0.39256 0.23246 0.85771 0.0
O537 O 0.38733 0.21091 0.83728 0.0
N538 N 0.46506 0.26791 0.82032 0.0
C539 C 0.49338 0.27896 0.80769 0.0
C540 C 0.50549 0.26091 0.81675 0.0
C541 C 0.46071 0.24313 0.83712 0.0
N542 N 0.48493 0.23859 0.83537 0.0
C543 C 0.42735 0.25001 0.7602 0.0
C544 C 0.36377 0.22035 0.76214 0.0
C545 C 0.37799 0.21447 0.7371 0.0
C546 C 0.41021 0.22971 0.7362 0.0
C547 C 0.38176 0.24138 0.78519 0.0
N548 N 0.41314 0.25524 0.78461 0.0
H549 H 0.45214 0.26213 0.75877 0.0
H550 H 0.37041 0.24654 0.80361 0.0
H551 H 0.50469 0.2986 0.7925 0.0
H552 H 0.44045 0.22801 0.85 0.0
O553 O 0.46793 0.31834 0.7888 0.0
O554 O 0.467 0.32045 0.8402 0.0
O555 O 0.41185 0.26067 0.85218 0.0
C556 C 0.47969 0.33437 0.81417 0.0
H557 H 0.36333 0.32459 0.83485 0.0
H558 H 0.52744 0.26362 0.80987 0.0
H559 H 0.33894 0.20937 0.76339 0.0
H560 H 0.42201 0.22619 0.71688 0.0
Co561 Co 0.76458 0.15834 0.8174 0.0
C562 C 0.73549 0.09649 0.78811 0.0
C563 C 0.73106 0.09392 0.83809 0.0
C564 C 0.71761 0.06447 0.82643 0.0
N565 N 0.74249 0.11395 0.81412 0.0
N566 N 0.7205 0.06624 0.79511 0.0
H567 H 0.74184 0.10564 0.76468 0.0
H568 H 0.73295 0.10034 0.86243 0.0
C569 C 0.81826 0.1647 0.85748 0.0
O570 O 0.83949 0.18286 0.83751 0.0
N571 N 0.78634 0.20321 0.82132 0.0
C572 C 0.78344 0.22311 0.80231 0.0
C573 C 0.80245 0.25267 0.8126 0.0
C574 C 0.80628 0.22125 0.84381 0.0
N575 N 0.81675 0.2514 0.83864 0.0
C576 C 0.79497 0.17644 0.75768 0.0
C577 C 0.82828 0.14651 0.76326 0.0
C578 C 0.83205 0.16399 0.73642 0.0
C579 C 0.81467 0.17862 0.73352 0.0
C580 C 0.80775 0.14435 0.78649 0.0
N581 N 0.79261 0.16056 0.78442 0.0
H582 H 0.78109 0.187 0.75448 0.0
H583 H 0.80402 0.12951 0.80611 0.0
H584 H 0.7687 0.21689 0.78209 0.0
H585 H 0.81313 0.21296 0.86371 0.0
O586 O 0.73224 0.15849 0.79238 0.0
O587 O 0.73273 0.15639 0.84379 0.0
O588 O 0.7898 0.15471 0.85202 0.0
C589 C 0.71804 0.15603 0.81866 0.0
H590 H 0.70721 0.04338 0.83986 0.0
H591 H 0.80618 0.27358 0.8014 0.0
H592 H 0.84073 0.13421 0.76597 0.0
H593 H 0.8163 0.1916 0.71267 0.0
Co594 Co 0.41891 0.16357 0.3296 0.0
C595 C 0.449 0.23103 0.34496 0.0
C596 C 0.47117 0.20922 0.36731 0.0
C597 C 0.48582 0.23953 0.37641 0.0
N598 N 0.44851 0.20385 0.34685 0.0
N599 N 0.47172 0.25317 0.36254 0.0
H600 H 0.43313 0.2349 0.33147 0.0
H601 H 0.47657 0.19223 0.37556 0.0
C602 C 0.48137 0.17366 0.31015 0.0
O603 O 0.49236 0.20322 0.30596 0.0
N604 N 0.38918 0.12364 0.31303 0.0
C605 C 0.36005 0.1151 0.30478 0.0
C606 C 0.34693 0.08674 0.29069 0.0
C607 C 0.39344 0.1003 0.3038 0.0
N608 N 0.3679 0.07758 0.29014 0.0
C609 C 0.39745 0.19369 0.28895 0.0
C610 C 0.41348 0.17717 0.23365 0.0
C611 C 0.39308 0.18854 0.23289 0.0
C612 C 0.38589 0.19775 0.26081 0.0
C613 C 0.42468 0.17349 0.26247 0.0
N614 N 0.41613 0.18115 0.28984 0.0
H615 H 0.38915 0.19841 0.31022 0.0
H616 H 0.43798 0.16206 0.26271 0.0
H617 H 0.34941 0.12903 0.30772 0.0
H618 H 0.4148 0.10014 0.30611 0.0
O619 O 0.38622 0.16508 0.35205 0.0
O620 O 0.41428 0.14589 0.3706 0.0
O621 O 0.45288 0.15583 0.31569 0.0
C622 C 0.392 0.15155 0.37479 0.0
H623 H 0.50502 0.25063 0.39244 0.0
H624 H 0.32406 0.07415 0.28075 0.0
H625 H 0.41915 0.16943 0.21241 0.0
H626 H 0.36994 0.20631 0.26105 0.0
Co627 Co 0.88052 0.26633 0.33396 0.0
C628 C 0.81302 0.22881 0.34902 0.0
C629 C 0.83543 0.27204 0.37279 0.0
C630 C 0.80492 0.2564 0.38162 0.0
N631 N 0.84046 0.25513 0.35171 0.0
N632 N 0.79095 0.22916 0.36676 0.0
H633 H 0.80873 0.20956 0.33463 0.0
H634 H 0.85286 0.29434 0.38117 0.0
C635 C 0.86827 0.31679 0.31273 0.0
O636 O 0.84048 0.29608 0.3037 0.0
N637 N 0.9203 0.27681 0.31675 0.0
C638 C 0.92836 0.25585 0.30872 0.0
C639 C 0.95657 0.27053 0.29447 0.0
C640 C 0.94384 0.30417 0.30705 0.0
N641 N 0.96623 0.30074 0.29345 0.0
C642 C 0.84947 0.21547 0.29258 0.0
C643 C 0.86856 0.24891 0.23782 0.0
C644 C 0.85599 0.21698 0.23667 0.0
C645 C 0.84543 0.20016 0.2643 0.0
C646 C 0.87178 0.26339 0.26673 0.0
N647 N 0.86279 0.24677 0.29388 0.0
H648 H 0.84428 0.20204 0.31367 0.0
H649 H 0.88418 0.2881 0.26736 0.0
H650 H 0.91416 0.23131 0.31196 0.0
H651 H 0.94437 0.32586 0.30908 0.0
O652 O 0.87919 0.23156 0.35506 0.0
O653 O 0.89855 0.27819 0.3751 0.0
O654 O 0.88725 0.30842 0.32185 0.0
C655 C 0.89302 0.25015 0.37818 0.0
H656 H 0.79386 0.26429 0.39785 0.0
H657 H 0.96879 0.25983 0.28474 0.0
H658 H 0.8775 0.26266 0.21686 0.0
H659 H 0.83615 0.17552 0.26429 0.0
Co660 Co 0.78319 0.62752 0.33386 0.0
C661 C 0.81575 0.59201 0.34778 0.0
C662 C 0.77312 0.57422 0.37243 0.0
C663 C 0.78704 0.55771 0.3813 0.0
N664 N 0.79083 0.59564 0.35107 0.0
N665 N 0.81383 0.569 0.36585 0.0
H666 H 0.83531 0.606 0.3332 0.0
H667 H 0.75194 0.57134 0.38181 0.0
C668 C 0.72667 0.56727 0.31683 0.0
O669 O 0.74396 0.55519 0.31061 0.0
N670 N 0.77648 0.65967 0.31653 0.0
C671 C 0.7982 0.68337 0.29998 0.0
C672 C 0.78513 0.69771 0.28448 0.0
C673 C 0.75029 0.66086 0.31172 0.0
N674 N 0.75504 0.68415 0.29194 0.0
C675 C 0.83116 0.64183 0.28983 0.0
C676 C 0.79503 0.62813 0.23697 0.0
C677 C 0.82699 0.64724 0.23418 0.0
C678 C 0.84512 0.65281 0.26082 0.0
C679 C 0.78183 0.61803 0.26666 0.0
N680 N 0.79982 0.62585 0.29292 0.0
H681 H 0.84576 0.64962 0.31018 0.0
H682 H 0.75716 0.60686 0.26852 0.0
H683 H 0.82196 0.68925 0.29817 0.0
H684 H 0.72829 0.64476 0.3219 0.0
O685 O 0.82076 0.65882 0.35406 0.0
O686 O 0.77464 0.63608 0.3757 0.0
O687 O 0.73902 0.59589 0.32301 0.0
C688 C 0.80378 0.65596 0.37817 0.0
H689 H 0.77854 0.53929 0.3983 0.0
H690 H 0.79707 0.71695 0.26865 0.0
H691 H 0.78028 0.62341 0.2168 0.0
H692 H 0.86987 0.66747 0.25957 0.0
Co693 Co 0.5055 0.08389 0.86266 0.0
C694 C 0.57095 0.11241 0.84407 0.0
C695 C 0.55256 0.14039 0.82881 0.0
C696 C 0.58318 0.15468 0.82055 0.0
N697 N 0.54514 0.11446 0.845 0.0
N698 N 0.59459 0.13683 0.82996 0.0
H699 H 0.57268 0.09332 0.85304 0.0
H700 H 0.53707 0.14859 0.82302 0.0
C701 C 0.51038 0.14501 0.87792 0.0
O702 O 0.53905 0.15662 0.88713 0.0
N703 N 0.46679 0.05282 0.88026 0.0
C704 C 0.46211 0.02606 0.89244 0.0
C705 C 0.43395 1.01136 0.90683 0.0
C706 C 0.44145 0.05434 0.88791 0.0
N707 N 0.42106 0.0291 0.90398 0.0
C708 C 0.53872 0.06926 0.9068 0.0
C709 C 0.52268 0.08956 0.95952 0.0
C710 C 0.53622 0.07117 0.96296 0.0
C711 C 0.54511 0.06189 0.93617 0.0
C712 C 0.5163 0.0962 0.92946 0.0
N713 N 0.52404 0.0858 0.90341 0.0
H714 H 0.54315 0.05899 0.88696 0.0
H715 H 0.50305 0.10761 0.92751 0.0
H716 H 0.4786 1.01824 0.89196 0.0
H717 H 0.43824 0.07361 0.88272 0.0
O718 O 0.51061 0.05179 0.84299 0.0
O719 O 0.48799 0.07522 0.82116 0.0
O720 O 0.49394 0.11625 0.87278 0.0
C721 C 0.49669 0.05499 0.81888 0.0
H722 H 0.59595 0.17626 0.80816 0.0
H723 H 0.42397 0.98971 0.91928 0.0
H724 H 0.51524 0.09691 0.97983 0.0
H725 H 0.55531 0.04738 0.9379 0.0
Co726 Co 0.95927 0.42941 0.86511 0.0
C727 C 0.9346 0.4683 0.84117 0.0
C728 C 0.89923 0.42104 0.84319 0.0
C729 C 0.88605 0.4384 0.83493 0.0
N730 N 0.92975 0.43984 0.84753 0.0
N731 N 0.90836 0.46812 0.83361 0.0
H732 H 0.95651 0.4891 0.84367 0.0
H733 H 0.88684 0.39647 0.84676 0.0
C734 C 0.91636 0.36254 0.89047 0.0
O735 O 0.93391 0.3627 0.91329 0.0
N736 N 0.98994 0.42092 0.88325 0.0
C737 C 1.01558 0.44319 0.89721 0.0
C738 C 0.03201 0.43079 0.90975 0.0
C739 C 0.99196 0.39515 0.88649 0.0
N740 N 1.01704 0.4006 0.90334 0.0
C741 C 0.9759 0.4795 0.90678 0.0
C742 C 0.956 0.4453 0.96105 0.0
C743 C 0.97667 0.47692 0.96302 0.0
C744 C 0.98537 0.49429 0.93559 0.0
C745 C 0.94679 0.43141 0.93162 0.0
N746 N 0.95839 0.4482 0.90487 0.0
H747 H 0.98534 0.4932 0.88605 0.0
H748 H 0.93178 0.40707 0.93077 0.0
H749 H 1.02181 0.46704 0.89877 0.0
H750 H 0.97565 0.37289 0.87727 0.0
O751 O 0.99314 0.4649 0.84447 0.0
O752 O 0.96655 0.41853 0.82406 0.0
O753 O 0.92314 0.38682 0.87477 0.0
C754 C 0.98881 0.44666 0.82108 0.0
H755 H 0.86181 0.42999 0.83109 0.0
H756 H 0.05285 0.44275 0.92349 0.0
H757 H 0.94837 0.43129 0.98196 0.0
H758 H 1.00116 0.51885 0.93633 0.0
Co759 Co 0.62213 0.54609 0.86152 0.0
C760 C 0.58337 0.48148 0.84062 0.0
C761 C 0.63099 0.49613 0.83486 0.0
C762 C 0.6139 0.46572 0.82598 0.0
N763 N 0.61188 0.50563 0.84563 0.0
N764 N 0.58392 0.45665 0.82966 0.0
H765 H 0.56231 0.48183 0.84405 0.0
H766 H 0.6556 0.51036 0.83258 0.0
C767 C 0.67562 0.53979 0.88605 0.0
O768 O 0.65672 0.51557 0.90255 0.0
N769 N 0.63085 0.58583 0.87736 0.0
C770 C 0.60861 0.59069 0.88873 0.0
C771 C 0.62181 0.61878 0.90301 0.0
C772 C 0.65765 0.61116 0.88544 0.0
N773 N 0.65251 0.6316 0.90105 0.0
C774 C 0.57434 0.51178 0.90564 0.0
C775 C 0.60931 0.53785 0.95859 0.0
C776 C 0.57723 0.52083 0.96114 0.0
C777 C 0.5598 0.50693 0.93448 0.0
C778 C 0.623 0.54247 0.92909 0.0
N779 N 0.60555 0.52961 0.90287 0.0
H780 H 0.55988 0.50384 0.88537 0.0
H781 H 0.64731 0.55863 0.92716 0.0
H782 H 0.58429 0.57408 0.88829 0.0
H783 H 0.68018 0.61418 0.8811 0.0
O784 O 0.58513 0.54137 0.84174 0.0
O785 O 0.63088 0.56177 0.81925 0.0
O786 O 0.66553 0.55542 0.8718 0.0
C787 C 0.60199 0.55372 0.81707 0.0
H788 H 0.62272 0.45153 0.81699 0.0
H789 H 0.60987 0.62858 0.91519 0.0
H790 H 0.62339 0.54943 0.97878 0.0
H791 H 0.53491 0.49413 0.93561 0.0
Co792 Co 0.62852 0.87173 0.6908 0.0
C793 C 0.60093 0.80394 0.68242 0.0
C794 C 0.57068 0.82009 0.66816 0.0
C795 C 0.55779 0.78979 0.65944 0.0
N796 N 0.5973 0.82891 0.68351 0.0
N797 N 0.57701 0.77976 0.66811 0.0
H798 H 0.62144 0.80384 0.68975 0.0
H799 H 0.56243 0.83539 0.66132 0.0
C800 C 0.57022 0.86627 0.71805 0.0
O801 O 0.56475 0.84143 0.7335 0.0
N802 N 0.65998 0.91478 0.69678 0.0
C803 C 0.68743 0.93057 0.6821 0.0
C804 C 0.70312 0.9601 0.6936 0.0
C805 C 0.65958 0.93521 0.71704 0.0
N806 N 0.68561 0.96281 0.71567 0.0
C807 C 0.65517 0.84989 0.73578 0.0
C808 C 0.64333 0.87351 0.78868 0.0
C809 C 0.66299 0.86134 0.79091 0.0
C810 C 0.6682 0.84875 0.76422 0.0
C811 C 0.6305 0.87403 0.75964 0.0
N812 N 0.63693 0.86287 0.73329 0.0
H813 H 0.66139 0.84168 0.71546 0.0
H814 H 0.61674 0.88487 0.75845 0.0
H815 H 0.69608 0.92146 0.66454 0.0
H816 H 0.64099 0.93021 0.7328 0.0
O817 O 0.65743 0.86429 0.66847 0.0
O818 O 0.62722 0.87891 0.64658 0.0
O819 O 0.59563 0.88196 0.70339 0.0
C820 C 0.64722 0.86993 0.64291 0.0
H821 H 0.53699 0.77673 0.64588 0.0
H822 H 0.72597 0.97797 0.68698 0.0
H823 H 0.6388 0.88345 0.80896 0.0
H824 H 0.6833 0.83918 0.76508 0.0
Co825 Co 0.17757 0.76512 0.69055 0.0
C826 C 0.24291 0.8043 0.67036 0.0
C827 C 0.22776 0.75629 0.66629 0.0
C828 C 0.25806 0.77285 0.6569 0.0
N829 N 0.21831 0.77598 0.67519 0.0
N830 N 0.26745 0.80296 0.65941 0.0
H831 H 0.24312 0.82556 0.67448 0.0
H832 H 0.2137 0.73153 0.66641 0.0
C833 C 0.15432 0.7003 0.72035 0.0
O834 O 0.13578 0.70165 0.7409 0.0
N835 N 0.13709 0.75564 0.70588 0.0
C836 C 0.13191 0.7771 0.71887 0.0
C837 C 0.10233 0.76346 0.72978 0.0
C838 C 0.10963 0.72919 0.7077 0.0
N839 N 0.08848 0.73334 0.72323 0.0
C840 C 0.20757 0.81781 0.73011 0.0
C841 C 0.19176 0.78661 0.78626 0.0
C842 C 0.20108 0.81794 0.78597 0.0
C843 C 0.21053 0.83386 0.75771 0.0
C844 C 0.18943 0.77141 0.75802 0.0
N845 N 0.19531 0.78659 0.7301 0.0
H846 H 0.21213 0.83033 0.70851 0.0
H847 H 0.18126 0.74726 0.75887 0.0
H848 H 0.14873 0.80118 0.72098 0.0
H849 H 0.10533 0.70723 0.69894 0.0
O850 O 0.17903 0.7989 0.66681 0.0
O851 O 0.16108 0.75165 0.64898 0.0
O852 O 0.17273 0.72389 0.70416 0.0
C853 C 0.16699 0.77953 0.6439 0.0
H854 H 0.2722 0.76356 0.64896 0.0
H855 H 0.09221 0.77445 0.74309 0.0
H856 H 0.18487 0.7737 0.8079 0.0
H857 H 0.2181 0.85815 0.75666 0.0
Co858 Co 0.27985 0.41819 0.68782 0.0
C859 C 0.24055 0.44538 0.66959 0.0
C860 C 0.28691 0.47148 0.6527 0.0
C861 C 0.27077 0.48535 0.64248 0.0
N862 N 0.26807 0.44641 0.66973 0.0
N863 N 0.24169 0.46892 0.65307 0.0
H864 H 0.22003 0.42793 0.68097 0.0
H865 H 0.31075 0.47899 0.64771 0.0
C866 C 0.34305 0.46263 0.71858 0.0
O867 O 0.34133 0.44349 0.74029 0.0
N868 N 0.29068 0.38896 0.70585 0.0
C869 C 0.26972 0.36226 0.71933 0.0
C870 C 0.28404 0.34725 0.73094 0.0
C871 C 0.31764 0.38892 0.70824 0.0
N872 N 0.31414 0.36408 0.72435 0.0
C873 C 0.22636 0.39358 0.72627 0.0
C874 C 0.25642 0.41492 0.78258 0.0
C875 C 0.22605 0.39036 0.78253 0.0
C876 C 0.21054 0.38081 0.75407 0.0
C877 C 0.27151 0.42707 0.75408 0.0
N878 N 0.25711 0.41485 0.72629 0.0
H879 H 0.21438 0.38386 0.70468 0.0
H880 H 0.29506 0.44508 0.75477 0.0
H881 H 0.24538 0.35395 0.72078 0.0
H882 H 0.3394 0.40682 0.69916 0.0
O883 O 0.24735 0.3843 0.66426 0.0
O884 O 0.29484 0.41441 0.64734 0.0
O885 O 0.3199 0.45629 0.70111 0.0
C886 C 0.26745 0.39154 0.64207 0.0
H887 H 0.27968 0.50602 0.6285 0.0
H888 H 0.27336 0.32599 0.74411 0.0
H889 H 0.26885 0.42343 0.80434 0.0
H890 H 0.18688 0.36223 0.75321 0.0
Co891 Co 0.55114 0.93981 0.14619 0.0
C892 C 0.61354 0.97388 0.11778 0.0
C893 C 0.61514 0.97278 0.1679 0.0
C894 C 0.64467 0.99065 0.15686 0.0
N895 N 0.59562 0.96252 0.14346 0.0
N896 N 0.64362 0.99137 0.12541 0.0
H897 H 0.60473 0.97035 0.09414 0.0
H898 H 0.60828 0.9683 0.19215 0.0
C899 C 0.54204 0.98247 0.19031 0.0
O900 O 0.52084 0.98262 0.17244 0.0
N901 N 0.50594 0.91644 0.14907 0.0
C902 C 0.48667 0.89691 0.12717 0.0
C903 C 0.45673 0.88521 0.13666 0.0
C904 C 0.48691 0.91485 0.17247 0.0
N905 N 0.45685 0.89662 0.16506 0.0
C906 C 0.53579 0.95618 0.08707 0.0
C907 C 0.56277 0.01857 0.09797 0.0
C908 C 0.54714 1.00663 0.06977 0.0
C909 C 0.53396 0.97511 0.06425 0.0
C910 C 0.56427 0.99877 0.1201 0.0
N911 N 0.54949 0.96771 0.11524 0.0
H912 H 0.52689 0.93236 0.08156 0.0
H913 H 0.57792 1.00861 0.14086 0.0
H914 H 0.49359 0.89063 0.10588 0.0
H915 H 0.49441 0.92638 0.19457 0.0
O916 O 0.55038 0.90849 0.11874 0.0
O917 O 0.55317 0.90833 0.17035 0.0
O918 O 0.55483 0.96701 0.1826 0.0
C919 C 0.55255 0.89521 0.14403 0.0
H920 H 0.66534 1.0028 0.17082 0.0
H921 H 0.43632 0.86911 0.12391 0.0
H922 H 0.57415 0.04301 0.10259 0.0
H923 H 0.52262 0.96525 0.04226 0.0
Co924 Co 0.10351 0.61904 0.15064 0.0
C925 C 0.06906 0.64664 0.11905 0.0
C926 C 0.07169 0.65179 0.1688 0.0
C927 C 0.05438 0.66378 0.15723 0.0
N928 N 0.08004 0.63999 0.14508 0.0
N929 N 0.05265 0.66049 0.12594 0.0
H930 H 0.07267 0.64173 0.09549 0.0
H931 H 0.07712 0.65092 0.19311 0.0
C932 C 0.04507 0.58162 0.18723 0.0
O933 O 0.02914 0.58127 0.16271 0.0
N934 N 0.12735 0.59869 0.15656 0.0
C935 C 0.14932 0.60077 0.137 0.0
C936 C 0.15947 0.58148 0.14732 0.0
C937 C 0.12434 0.57795 0.17856 0.0
N938 N 0.14384 0.56724 0.1734 0.0
C939 C 0.08506 0.59839 0.08742 0.0
C940 C 0.04344 0.53772 0.10124 0.0
C941 C 0.04605 0.54784 0.07034 0.0
C942 C 0.06776 0.57835 0.06335 0.0
C943 C 0.06138 0.55858 0.12455 0.0
N944 N 0.08015 0.58906 0.11791 0.0
H945 H 0.10209 0.62169 0.08149 0.0
H946 H 0.06008 0.55006 0.14785 0.0
H947 H 0.15664 0.61438 0.11587 0.0
H948 H 0.1075 0.5698 0.1971 0.0
O949 O 0.13644 0.6508 0.12559 0.0
O950 O 0.13207 0.65263 0.17687 0.0
O951 O 0.07427 0.59335 0.18535 0.0
C952 C 0.14724 0.66586 0.15158 0.0
H953 H 0.04358 0.67394 0.17081 0.0
H954 H 0.17592 0.57696 0.13569 0.0
H955 H 0.02778 0.51392 0.10724 0.0
H956 H 0.07114 0.58664 0.0395 0.0
Co957 Co 0.42792 0.49704 0.14456 0.0
C958 C 0.40096 0.43402 0.11585 0.0
C959 C 0.39944 0.43235 0.16578 0.0
C960 C 0.38774 0.4029 0.15471 0.0
N961 N 0.40877 0.45221 0.14153 0.0
N962 N 0.38882 0.40402 0.12331 0.0
H963 H 0.40378 0.44196 0.09209 0.0
H964 H 0.40115 0.43871 0.19 0.0
C965 C 0.46659 0.48078 0.18453 0.0
O966 O 0.46592 0.4621 0.16272 0.0
N967 N 0.44666 0.54131 0.14755 0.0
C968 C 0.45071 0.56039 0.1236 0.0
C969 C 0.4689 0.59027 0.13352 0.0
C970 C 0.46228 0.55985 0.17187 0.0
N971 N 0.47632 0.5899 0.16374 0.0
C972 C 0.44865 0.49733 0.08175 0.0
C973 C 0.51003 0.52053 0.09626 0.0
C974 C 0.50021 0.51175 0.06552 0.0
C975 C 0.46927 0.50063 0.05812 0.0
C976 C 0.48857 0.51662 0.11916 0.0
N977 N 0.45792 0.50325 0.11219 0.0
H978 H 0.42515 0.49005 0.07551 0.0
H979 H 0.49695 0.52498 0.14233 0.0
H980 H 0.44197 0.55303 0.10021 0.0
H981 H 0.46415 0.55167 0.1947 0.0
O982 O 0.39402 0.49418 0.11963 0.0
O983 O 0.39483 0.49213 0.17099 0.0
O984 O 0.45551 0.49825 0.17936 0.0
C985 C 0.37957 0.49069 0.14597 0.0
H986 H 0.37903 0.38218 0.16859 0.0
H987 H 0.47661 0.61078 0.1195 0.0
H988 H 0.53408 0.53051 0.10241 0.0
H989 H 0.46124 0.4949 0.03425 0.0
Co990 Co 0.08714 0.49031 0.66111 0.0
C991 C 0.11438 0.55741 0.67672 0.0
C992 C 0.14123 0.53821 0.69378 0.0
C993 C 0.15463 0.5682 0.70384 0.0
N994 N 0.11632 0.53148 0.67617 0.0
N995 N 0.13754 0.58011 0.69332 0.0
H996 H 0.09595 0.55964 0.66659 0.0
H997 H 0.14861 0.52201 0.6998 0.0
C998 C 0.14842 0.50291 0.63514 0.0
O999 O 0.15324 0.529 0.62309 0.0
N1000 N 0.05802 0.44928 0.64669 0.0
C1001 C 0.02849 0.43957 0.63904 0.0
C1002 C 1.01587 0.41089 0.62583 0.0
C1003 C 0.06301 0.42626 0.63803 0.0
N1004 N 0.03754 0.40265 0.62522 0.0
C1005 C 0.06399 0.51859 0.61959 0.0
C1006 C 0.07686 0.49875 0.56455 0.0
C1007 C 0.05744 0.51129 0.5637 0.0
C1008 C 0.05166 0.5219 0.59154 0.0
C1009 C 0.08869 0.49571 0.59327 0.0
N1010 N 0.08218 0.50549 0.62053 0.0
H1011 H 0.0565 0.52423 0.64083 0.0
H1012 H 0.10093 0.48322 0.59367 0.0
H1013 H 1.01727 0.45302 0.64158 0.0
H1014 H 0.08484 0.42704 0.64002 0.0
O1015 O 0.05438 0.49162 0.68376 0.0
O1016 O 0.08424 0.47492 0.70316 0.0
O1017 O 0.12254 0.48444 0.64769 0.0
C1018 C 0.06156 0.48003 0.70727 0.0
H1019 H 0.17468 0.58003 0.7187 0.0
H1020 H 0.99287 0.39748 0.61635 0.0
H1021 H 0.08133 0.48973 0.54349 0.0
H1022 H 0.03633 0.53121 0.59185 0.0
Co1023 Co 0.55168 0.59955 0.65717 0.0
C1024 C 0.48598 0.56445 0.67782 0.0
C1025 C 0.50709 0.61124 0.69248 0.0
C1026 C 0.47716 0.59595 0.70322 0.0
N1027 N 0.51253 0.59179 0.67553 0.0
N1028 N 0.46406 0.56646 0.69413 0.0
H1029 H 0.48262 0.54299 0.66897 0.0
H1030 H 0.52374 0.63478 0.69758 0.0
C1031 C 0.54827 0.65624 0.63983 0.0
O1032 O 0.51923 0.63937 0.63179 0.0
N1033 N 0.58992 0.60593 0.63906 0.0
C1034 C 0.59129 0.58422 0.62205 0.0
C1035 C 0.61876 0.59705 0.6067 0.0
C1036 C 0.61774 0.63166 0.63518 0.0
N1037 N 0.63596 0.62676 0.61525 0.0
C1038 C 0.51532 0.55089 0.61443 0.0
C1039 C 0.53756 0.58557 0.5607 0.0
C1040 C 0.52224 0.55344 0.5585 0.0
C1041 C 0.50988 0.53614 0.58559 0.0
C1042 C 0.54212 0.59958 0.59013 0.0
N1043 N 0.53201 0.58224 0.61682 0.0
H1044 H 0.50956 0.53664 0.63487 0.0
H1045 H 0.55672 0.62418 0.59148 0.0
H1046 H 0.573 0.56065 0.62005 0.0
H1047 H 0.62429 0.65341 0.64628 0.0
O1048 O 0.54631 0.56253 0.67763 0.0
O1049 O 0.5701 0.6093 0.69802 0.0
O1050 O 0.56416 0.64351 0.64597 0.0
C1051 C 0.56128 0.58038 0.701 0.0
H1052 H 0.46614 0.60549 0.71736 0.0
H1053 H 0.62579 0.58518 0.59056 0.0
H1054 H 0.54782 0.59966 0.54017 0.0
H1055 H 0.49851 0.51128 0.58481 0.0
Co1056 Co 0.44782 0.95936 0.65804 0.0
C1057 C 0.48302 0.92689 0.67391 0.0
C1058 C 0.43849 0.90616 0.6952 0.0
C1059 C 0.45332 0.89121 0.70587 0.0
N1060 N 0.45681 0.92844 0.67485 0.0
N1061 N 0.48128 0.90432 0.6926 0.0
H1062 H 0.50336 0.94226 0.6609 0.0
H1063 H 0.41626 0.90184 0.70294 0.0
C1064 C 0.39345 0.89791 0.63975 0.0
O1065 O 0.41162 0.88679 0.63375 0.0
N1066 N 0.43889 0.99007 0.64186 0.0
C1067 C 0.45963 1.01716 0.62904 0.0
C1068 C 0.44439 0.03093 0.61633 0.0
C1069 C 0.41116 0.9876 0.63659 0.0
N1070 N 0.41405 1.01234 0.62109 0.0
C1071 C 0.49767 0.97746 0.6157 0.0
C1072 C 0.46331 0.96495 0.56166 0.0
C1073 C 0.49532 0.98423 0.56009 0.0
C1074 C 0.51257 0.98946 0.58731 0.0
C1075 C 0.44918 0.95337 0.5907 0.0
N1076 N 0.46628 0.96045 0.61753 0.0
H1077 H 0.51149 0.9847 0.63659 0.0
H1078 H 0.42439 0.94133 0.59174 0.0
H1079 H 0.48411 0.02579 0.62793 0.0
H1080 H 0.38934 0.96783 0.64287 0.0
O1081 O 0.48392 0.99128 0.67943 0.0
O1082 O 0.43721 0.96569 0.69974 0.0
O1083 O 0.40483 0.92647 0.64544 0.0
C1084 C 0.46589 0.98674 0.70305 0.0
H1085 H 0.44464 0.87267 0.72274 0.0
H1086 H 0.45462 0.05241 0.60357 0.0
H1087 H 0.44925 0.96067 0.54101 0.0
H1088 H 0.53731 1.00441 0.58697 0.0
Co1089 Co 0.16573 0.41354 0.1955 0.0
C1090 C 0.23072 0.44168 0.1741 0.0
C1091 C 0.21415 0.47278 0.1664 0.0
C1092 C 0.24455 0.48697 0.15741 0.0
N1093 N 0.20574 0.44484 0.17863 0.0
N1094 N 0.25485 0.4672 0.16197 0.0
H1095 H 0.23149 0.42106 0.17897 0.0
H1096 H 0.19948 0.48249 0.16347 0.0
C1097 C 0.16859 0.47324 0.21455 0.0
O1098 O 0.19657 0.48438 0.22573 0.0
N1099 N 0.12659 0.38194 0.2119 0.0
C1100 C 0.12183 0.35532 0.22454 0.0
C1101 C 0.09323 0.34044 0.23808 0.0
C1102 C 0.10078 0.38307 0.2182 0.0
N1103 N 0.08011 0.35786 0.23408 0.0
C1104 C 0.20135 0.40192 0.23978 0.0
C1105 C 0.17737 0.41345 0.29268 0.0
C1106 C 0.19471 0.39877 0.29573 0.0
C1107 C 0.20761 0.394 0.269 0.0
C1108 C 0.17186 0.42134 0.26285 0.0
N1109 N 0.18338 0.41508 0.23667 0.0
H1110 H 0.20859 0.39452 0.21964 0.0
H1111 H 0.15608 0.42992 0.26083 0.0
H1112 H 0.13869 0.34795 0.22526 0.0
H1113 H 0.09759 0.40228 0.21258 0.0
O1114 O 0.17167 0.38195 0.17598 0.0
O1115 O 0.1492 0.4054 0.15367 0.0
O1116 O 0.15342 0.44525 0.20594 0.0
C1117 C 0.15817 0.38533 0.15157 0.0
H1118 H 0.25793 0.50987 0.14776 0.0
H1119 H 0.08327 0.3191 0.25108 0.0
H1120 H 0.1666 0.41697 0.31292 0.0
H1121 H 0.2206 0.38216 0.27048 0.0
Co1122 Co 0.6243 0.75977 0.19906 0.0
C1123 C 0.5944 0.79443 0.17441 0.0
C1124 C 0.571 0.74776 0.15879 0.0
C1125 C 0.55618 0.76237 0.14653 0.0
N1126 N 0.59474 0.76771 0.17687 0.0
N1127 N 0.57099 0.79162 0.15662 0.0
H1128 H 0.61108 0.816 0.18437 0.0
H1129 H 0.56514 0.7243 0.15426 0.0
C1130 C 0.56205 0.70728 0.21745 0.0
O1131 O 0.55508 0.72684 0.2299 0.0
N1132 N 0.65453 0.75302 0.22152 0.0
C1133 C 0.67434 0.77372 0.24213 0.0
C1134 C 0.69041 0.76222 0.25683 0.0
C1135 C 0.66066 0.72951 0.22261 0.0
N1136 N 0.68283 0.73478 0.24426 0.0
C1137 C 0.63386 0.80967 0.23832 0.0
C1138 C 0.6164 0.77715 0.29371 0.0
C1139 C 0.63241 0.80934 0.29454 0.0
C1140 C 0.64001 0.82551 0.26644 0.0
C1141 C 0.61062 0.76203 0.26486 0.0
N1142 N 0.61958 0.77829 0.23743 0.0
H1143 H 0.64462 0.82319 0.21784 0.0
H1144 H 0.60192 0.73758 0.26497 0.0
H1145 H 0.67736 0.79617 0.24635 0.0
H1146 H 0.64969 0.7095 0.20766 0.0
O1147 O 0.65795 0.79606 0.17956 0.0
O1148 O 0.63545 0.7491 0.15981 0.0
O1149 O 0.58983 0.71658 0.20903 0.0
C1150 C 0.65591 0.77797 0.15683 0.0
H1151 H 0.53632 0.75243 0.13128 0.0
H1152 H 0.7078 0.77404 0.27459 0.0
H1153 H 0.61081 0.764 0.31517 0.0
H1154 H 0.65317 0.8504 0.26629 0.0
Co1155 Co 0.28756 0.87756 0.19355 0.0
C1156 C 0.25063 0.81012 0.17947 0.0
C1157 C 0.29528 0.83159 0.15839 0.0
C1158 C 0.27949 0.80115 0.14941 0.0
N1159 N 0.27742 0.83718 0.17772 0.0
N1160 N 0.25152 0.7879 0.16273 0.0
H1161 H 0.23031 0.80651 0.1915 0.0
H1162 H 0.31802 0.84871 0.15068 0.0
C1163 C 0.33925 0.86805 0.21501 0.0
O1164 O 0.3193 0.84286 0.22957 0.0
N1165 N 0.29679 0.91757 0.209 0.0
C1166 C 0.27477 0.92406 0.21739 0.0
C1167 C 0.2883 0.95275 0.23044 0.0
C1168 C 0.32372 0.94261 0.21731 0.0
N1169 N 0.3189 0.96434 0.23042 0.0
C1170 C 0.23951 0.84589 0.23806 0.0
C1171 C 0.2759 0.86734 0.29085 0.0
C1172 C 0.24386 0.85149 0.29405 0.0
C1173 C 0.22564 0.84017 0.26735 0.0
C1174 C 0.28893 0.87246 0.26096 0.0
N1175 N 0.27079 0.86146 0.23488 0.0
H1176 H 0.2248 0.83996 0.21789 0.0
H1177 H 0.31348 0.8873 0.25883 0.0
H1178 H 0.2503 0.90845 0.21539 0.0
H1179 H 0.34605 0.94462 0.21475 0.0
O1180 O 0.25098 0.87352 0.17354 0.0
O1181 O 0.29685 0.89339 0.15147 0.0
O1182 O 0.33057 0.88609 0.20373 0.0
C1183 C 0.2683 0.88652 0.1493 0.0
H1184 H 0.2875 0.78984 0.13366 0.0
H1185 H 0.2766 0.96396 0.24021 0.0
H1186 H 0.29061 0.87721 0.31106 0.0
H1187 H 0.20079 0.82869 0.269 0.0
C1188 C 0.3936 0.2347 0.91638 0.0
C1189 C 0.37633 0.2244 0.88823 0.0
C1190 C 0.32853 0.20149 0.91863 0.0
C1191 C 0.34577 0.21519 0.94616 0.0
N1192 N 0.39471 0.24919 0.97036 0.0
N1193 N 0.32703 0.20216 0.86219 0.0
C1194 C 0.37832 0.23278 0.94488 0.0
C1195 C 0.34368 0.2087 0.88922 0.0
N1196 N 0.4246 0.24571 0.91615 0.0
N1197 N 0.29774 0.18091 0.92059 0.0
H1198 H 0.33694 0.20713 0.84007 0.0
H1199 H 0.30349 0.19424 0.86171 0.0
H1200 H 0.28579 0.17479 0.94167 0.0
H1201 H 0.28465 0.16772 0.90177 0.0
H1202 H 0.43767 0.25007 0.93639 0.0
H1203 H 0.4369 0.24782 0.89591 0.0
H1204 H 0.41809 0.26537 0.96963 0.0
H1205 H 0.38451 0.2489 0.99156 0.0
C1206 C 0.80741 0.11687 0.92909 0.0
C1207 C 0.83318 0.13636 0.94782 0.0
C1208 C 0.8499 0.17625 0.90734 0.0
C1209 C 0.82634 0.15495 0.88718 0.0
N1210 N 0.79008 0.1015 0.87642 0.0
N1211 N 0.88356 0.18214 0.95042 0.0
C1212 C 0.80741 0.12416 0.89728 0.0
C1213 C 0.85586 0.16539 0.93576 0.0
N1214 N 0.78213 0.09219 0.94175 0.0
N1215 N 0.86568 0.2069 0.90047 0.0
H1216 H 0.88967 0.17456 0.97031 0.0
H1217 H 0.90173 0.20195 0.9407 0.0
H1218 H 0.86166 0.21629 0.88058 0.0
H1219 H 0.88075 0.22338 0.91623 0.0
H1220 H 0.762 0.0789 0.92902 0.0
H1221 H 0.77967 0.08747 0.96563 0.0
H1222 H 0.77768 0.07834 0.88265 0.0
H1223 H 0.79126 0.10543 0.85246 0.0
C1224 C 0.89866 0.70646 0.896 0.0
C1225 C 0.88836 0.6745 0.89443 0.0
C1226 C 0.90536 0.67578 0.94864 0.0
C1227 C 0.91276 0.70678 0.95109 0.0
N1228 N 0.91392 0.75126 0.92846 0.0
N1229 N 0.87797 0.62766 0.921 0.0
C1230 C 0.90869 0.72202 0.92515 0.0
C1231 C 0.89065 0.65888 0.92124 0.0
N1232 N 0.90063 0.72244 0.86939 0.0
N1233 N 0.91374 0.66281 0.97197 0.0
H1234 H 0.86773 0.61412 0.90147 0.0
H1235 H 0.87534 0.61474 0.941 0.0
H1236 H 0.92494 0.6746 0.9922 0.0
H1237 H 0.9124 0.64154 0.97002 0.0
H1238 H 0.91152 0.7463 0.8684 0.0
H1239 H 0.89373 0.71224 0.84751 0.0
H1240 H 0.90749 0.76211 0.91183 0.0
H1241 H 0.92296 0.76406 0.94876 0.0
C1242 C 0.24865 0.37289 0.55577 0.0
C1243 C 0.2488 0.34479 0.55353 0.0
C1244 C 0.26059 0.34706 0.60959 0.0
C1245 C 0.25965 0.3747 0.61196 0.0
N1246 N 0.24924 0.41225 0.58896 0.0
N1247 N 0.25148 0.30302 0.57855 0.0
C1248 C 0.25269 0.38715 0.58547 0.0
C1249 C 0.25349 0.33113 0.58058 0.0
N1250 N 0.24487 0.38605 0.52938 0.0
N1251 N 0.26985 0.33689 0.63475 0.0
H1252 H 0.2491 0.29164 0.55755 0.0
H1253 H 0.25049 0.28997 0.59787 0.0
H1254 H 0.27463 0.34759 0.65647 0.0
H1255 H 0.27486 0.31919 0.63381 0.0
H1256 H 0.24844 0.40827 0.52842 0.0
H1257 H 0.23927 0.37516 0.50771 0.0
H1258 H 0.24101 0.42081 0.57165 0.0
H1259 H 0.25269 0.42354 0.61019 0.0
C1260 C 0.64779 0.87516 0.58427 0.0
C1261 C 0.66019 0.86959 0.61161 0.0
C1262 C 0.70746 0.88268 0.58368 0.0
C1263 C 0.69613 0.89025 0.55685 0.0
N1264 N 0.65796 0.90022 0.53394 0.0
N1265 N 0.69403 0.85179 0.63025 0.0
C1266 C 0.66687 0.88817 0.55762 0.0
C1267 C 0.68774 0.86847 0.60938 0.0
N1268 N 0.61709 0.86552 0.5829 0.0
N1269 N 0.73788 0.89149 0.58579 0.0
H1270 H 0.6778 0.8368 0.64624 0.0
H1271 H 0.71302 0.84876 0.62811 0.0
H1272 H 0.75367 0.90465 0.56854 0.0
H1273 H 0.7479 0.88906 0.60614 0.0
H1274 H 0.60603 0.86652 0.56272 0.0
H1275 H 0.6019 0.8523 0.60057 0.0
H1276 H 0.63824 0.90208 0.53483 0.0
H1277 H 0.67201 0.91182 0.51507 0.0
C1278 C 0.17055 0.80087 0.55785 0.0
C1279 C 0.14318 0.80249 0.55501 0.0
C1280 C 0.13195 0.78956 0.61063 0.0
C1281 C 0.15946 0.78846 0.61358 0.0
N1282 N 0.20721 0.79688 0.5918 0.0
N1283 N 0.10143 0.80517 0.5806 0.0
C1284 C 0.17943 0.79523 0.58767 0.0
C1285 C 0.12513 0.79917 0.58198 0.0
N1286 N 0.18803 0.80473 0.53193 0.0
N1287 N 0.11135 0.77972 0.63475 0.0
H1288 H 0.09394 0.81071 0.56031 0.0
H1289 H 0.09051 0.80718 0.60035 0.0
H1290 H 0.11552 0.77273 0.65618 0.0
H1291 H 0.08902 0.77585 0.63274 0.0
H1292 H 0.20581 0.7998 0.5312 0.0
H1293 H 0.18426 0.81222 0.51053 0.0
H1294 H 0.22448 0.80501 0.57502 0.0
H1295 H 0.21385 0.79176 0.61297 0.0
C1296 C 0.67719 0.78924 0.07065 0.0
C1297 C 0.70953 0.80873 0.07197 0.0
C1298 C 0.70727 0.80661 0.12934 0.0
C1299 C 0.67465 0.7897 0.12785 0.0
N1300 N 0.62869 0.77177 0.09664 0.0
N1301 N 0.75488 0.84097 0.10255 0.0
C1302 C 0.65965 0.78296 0.09838 0.0
C1303 C 0.7245 0.81884 0.10133 0.0
N1304 N 0.66318 0.77551 0.04319 0.0
N1305 N 0.7219 0.80991 0.15722 0.0
H1306 H 0.76812 0.85096 0.08264 0.0
H1307 H 0.76614 0.8515 0.12324 0.0
H1308 H 0.71017 0.80088 0.17814 0.0
H1309 H 0.7456 0.81914 0.15914 0.0
H1310 H 0.64011 0.7585 0.04172 0.0
H1311 H 0.67522 0.77861 0.02248 0.0
H1312 H 0.61715 0.76957 0.07572 0.0
H1313 H 0.61516 0.76803 0.11628 0.0
C1314 C 0.26733 0.93129 0.07825 0.0
C1315 C 0.23757 0.91156 0.0658 0.0
C1316 C 0.22846 0.87394 0.10705 0.0
C1317 C 0.25686 0.89518 0.12124 0.0
N1318 N 0.29857 0.94776 0.12483 0.0
N1319 N 0.18697 0.86734 0.07322 0.0
C1320 C 0.27493 0.92496 0.10818 0.0
C1321 C 0.21727 0.88376 0.08157 0.0
N1322 N 0.28901 0.95531 0.06107 0.0
N1323 N 0.21265 0.84409 0.11692 0.0
H1324 H 0.1775 0.87439 0.05566 0.0
H1325 H 0.1706 0.84861 0.08599 0.0
H1326 H 0.22023 0.83563 0.13498 0.0
H1327 H 0.19356 0.82704 0.10513 0.0
H1328 H 0.31189 0.96839 0.06809 0.0
H1329 H 0.28518 0.96002 0.03834 0.0
H1330 H 0.31048 0.97056 0.11735 0.0
H1331 H 0.30384 0.94482 0.14767 0.0
C1332 C 0.13511 0.31994 0.09315 0.0
C1333 C 0.14047 0.33622 0.0646 0.0
C1334 C 0.16415 0.38475 0.09354 0.0
C1335 C 0.1541 0.36819 0.12205 0.0
N1336 N 0.12623 0.31932 0.14866 0.0
N1337 N 0.15621 0.38422 0.03784 0.0
C1338 C 0.13878 0.33557 0.12185 0.0
C1339 C 0.15416 0.36869 0.06478 0.0
N1340 N 0.12739 0.28972 0.09293 0.0
N1341 N 0.18405 0.41574 0.09385 0.0
H1342 H 0.14864 0.37345 0.01631 0.0
H1343 H 0.16275 0.40742 0.03737 0.0
H1344 H 0.19273 0.42822 0.11441 0.0
H1345 H 0.19455 0.42844 0.07379 0.0
H1346 H 0.12632 0.27759 0.11309 0.0
H1347 H 0.12524 0.27766 0.07241 0.0
H1348 H 0.11179 0.29557 0.14907 0.0
H1349 H 0.12791 0.32969 0.17011 0.0
C1350 C 0.84263 0.72491 0.4334 0.0
C1351 C 0.83407 0.70998 0.46293 0.0
C1352 C 0.8125 0.66011 0.43645 0.0
C1353 C 0.81663 0.67483 0.40703 0.0
N1354 N 0.83265 0.72156 0.37784 0.0
N1355 N 0.80725 0.66278 0.49241 0.0
C1356 C 0.83121 0.70736 0.40554 0.0
C1357 C 0.8183 0.6774 0.46449 0.0
N1358 N 0.86218 0.75594 0.43192 0.0
N1359 N 0.8039 0.62972 0.43761 0.0
H1360 H 0.8107 0.6744 0.51348 0.0
H1361 H 0.79244 0.63917 0.49433 0.0
H1362 H 0.80055 0.61675 0.41755 0.0
H1363 H 0.80344 0.61838 0.45816 0.0
H1364 H 0.87194 0.76762 0.41117 0.0
H1365 H 0.87115 0.76963 0.45171 0.0
H1366 H 0.83952 0.74479 0.37606 0.0
H1367 H 0.82451 0.70976 0.35689 0.0
C1368 C 0.34497 0.15057 0.44494 0.0
C1369 C 0.33719 0.12177 0.45859 0.0
C1370 C 0.362 0.11128 0.41504 0.0
C1371 C 0.37308 0.1415 0.40353 0.0
N1372 N 0.38093 0.19243 0.4121 0.0
N1373 N 0.34716 0.0794 0.46105 0.0
C1374 C 0.36624 0.16194 0.41975 0.0
C1375 C 0.34824 0.10342 0.44495 0.0
N1376 N 0.33129 0.16661 0.455 0.0
N1377 N 0.36332 0.08955 0.39705 0.0
H1378 H 0.33955 0.07415 0.48407 0.0
H1379 H 0.35747 0.06719 0.45292 0.0
H1380 H 0.37153 0.09361 0.37419 0.0
H1381 H 0.35289 0.0665 0.40358 0.0
H1382 H 0.33397 0.18614 0.44361 0.0
H1383 H 0.31481 0.15881 0.47261 0.0
H1384 H 0.37894 0.20875 0.42528 0.0
H1385 H 0.39763 0.20198 0.39469 0.0
C1386 C 0.89575 0.20092 0.44442 0.0
C1387 C 0.9249 0.22119 0.45787 0.0
C1388 C 0.9344 0.25878 0.4167 0.0
C1389 C 0.90375 0.24032 0.40585 0.0
N1390 N 0.85301 0.19667 0.41425 0.0
N1391 N 0.96805 0.27314 0.46138 0.0
C1392 C 0.88372 0.21215 0.42108 0.0
C1393 C 0.94317 0.25121 0.44534 0.0
N1394 N 0.88005 0.17065 0.45286 0.0
N1395 N 0.95569 0.28274 0.39914 0.0
H1396 H 0.97437 0.26947 0.48345 0.0
H1397 H 0.98018 0.29609 0.45437 0.0
H1398 H 0.95093 0.28824 0.37715 0.0
H1399 H 0.97899 0.29489 0.40489 0.0
H1400 H 0.8601 0.15439 0.44155 0.0
H1401 H 0.88869 0.16113 0.46871 0.0
H1402 H 0.83703 0.17758 0.42689 0.0
H1403 H 0.843 0.20477 0.39831 0.0
C1404 C 1.01185 0.58438 0.26581 0.0
C1405 C 1.00592 0.55645 0.27998 0.0
C1406 C 0.02869 0.54597 0.2341 0.0
C1407 C 0.02976 0.57138 0.21827 0.0
N1408 N 1.0139 0.60966 0.21745 0.0
N1409 N 1.00482 0.50795 0.27502 0.0
C1410 C 1.01869 0.58897 0.23355 0.0
C1411 C 1.0135 0.53653 0.26359 0.0
N1412 N 1.0123 0.60726 0.2834 0.0
N1413 N 0.04173 0.53053 0.22093 0.0
H1414 H 0.9934 0.49976 0.29612 0.0
H1415 H 1.00658 0.49129 0.26224 0.0
H1416 H 0.05105 0.53523 0.19856 0.0
H1417 H 0.04498 0.51436 0.23301 0.0
H1418 H 1.01914 0.62906 0.27446 0.0
H1419 H 1.00986 0.60585 0.30764 0.0
H1420 H 1.00354 0.6211 0.22746 0.0
H1421 H 1.01645 0.61247 0.19342 0.0
C1422 C 0.45567 0.46818 0.24147 0.0
C1423 C 0.47711 0.47884 0.21641 0.0
C1424 C 0.51525 0.47693 0.25088 0.0
C1425 C 0.49193 0.4613 0.27355 0.0
N1426 N 0.43815 0.43612 0.28736 0.0
N1427 N 0.52765 0.4935 0.1969 0.0
C1428 C 0.46164 0.45523 0.268 0.0
C1429 C 0.50709 0.48329 0.22103 0.0
N1430 N 0.42985 0.47075 0.2406 0.0
N1431 N 0.54508 0.48583 0.25796 0.0
H1432 H 0.52327 0.50068 0.17559 0.0
H1433 H 0.54849 0.49374 0.19756 0.0
H1434 H 0.55153 0.48077 0.27932 0.0
H1435 H 0.56361 0.5 0.24367 0.0
H1436 H 0.41535 0.46581 0.25979 0.0
H1437 H 0.42459 0.48117 0.22256 0.0
H1438 H 0.4151 0.42849 0.28241 0.0
H1439 H 0.44121 0.42504 0.3064 0.0
C1440 C 0.56036 0.03205 0.22038 0.0
C1441 C 0.55181 1.00043 0.21997 0.0
C1442 C 0.56934 1.00471 0.2743 0.0
C1443 C 0.57471 0.03513 0.27566 0.0
N1444 N 0.57094 0.07647 0.25165 0.0
N1445 N 0.54232 0.9552 0.24925 0.0
C1446 C 0.56882 0.04839 0.2492 0.0
C1447 C 0.55461 0.98634 0.24771 0.0
N1448 N 0.56232 0.04712 0.19311 0.0
N1449 N 0.57949 0.99366 0.29785 0.0
H1450 H 0.53104 0.94048 0.2307 0.0
H1451 H 0.54062 0.94356 0.26997 0.0
H1452 H 0.59112 1.00669 0.3173 0.0
H1453 H 0.57933 0.97289 0.29653 0.0
H1454 H 0.57169 0.07083 0.19173 0.0
H1455 H 0.55748 0.03662 0.17129 0.0
H1456 H 0.56351 0.08577 0.23425 0.0
H1457 H 0.57778 0.08937 0.27214 0.0
C1458 C 0.47151 0.98869 0.7614 0.0
C1459 C 0.4772 1.00456 0.73255 0.0
C1460 C 0.50232 0.05349 0.76086 0.0
C1461 C 0.49182 0.0374 0.78956 0.0
N1462 N 0.46263 0.98906 0.81675 0.0
N1463 N 0.49495 0.05258 0.70507 0.0
C1464 C 0.47556 1.0048 0.7898 0.0
C1465 C 0.49201 0.03714 0.73228 0.0
N1466 N 0.46337 0.95841 0.76178 0.0
N1467 N 0.52299 0.0843 0.76083 0.0
H1468 H 0.48766 0.04168 0.68361 0.0
H1469 H 0.50217 0.07593 0.7042 0.0
H1470 H 0.53186 0.09688 0.78128 0.0
H1471 H 0.53385 0.09661 0.74069 0.0
H1472 H 0.46183 0.94639 0.78218 0.0
H1473 H 0.46181 0.94639 0.74149 0.0
H1474 H 0.44756 0.96542 0.81742 0.0
H1475 H 0.46465 0.99986 0.838 0.0
C1476 C 0.03286 0.44276 0.75067 0.0
C1477 C 0.04413 0.47224 0.73708 0.0
C1478 C 1.01766 0.48476 0.77753 0.0
C1479 C 1.00914 0.45654 0.79298 0.0
N1480 N 1.01716 0.41314 0.79833 0.0
N1481 N 0.05359 0.52407 0.74239 0.0
C1482 C 1.01925 0.43683 0.78076 0.0
C1483 C 0.03843 0.4941 0.75193 0.0
N1484 N 0.03374 0.41985 0.73442 0.0
N1485 N 1.00483 0.50202 0.78598 0.0
H1486 H 0.06973 0.53209 0.72443 0.0
H1487 H 0.05262 0.54151 0.75452 0.0
H1488 H 0.98855 0.49554 0.80358 0.0
H1489 H 1.0079 0.52105 0.77328 0.0
H1490 H 1.02298 0.39716 0.74224 0.0
H1491 H 0.04214 0.42258 0.71169 0.0
H1492 H 1.02681 0.39993 0.79146 0.0
H1493 H 1.00924 0.40909 0.82128 0.0
C1494 C 0.59377 0.54616 0.75901 0.0
C1495 C 0.58879 0.5576 0.78743 0.0
C1496 C 0.55821 0.57536 0.75901 0.0
C1497 C 0.56772 0.56885 0.7303 0.0
N1498 N 0.59746 0.55077 0.70267 0.0
N1499 N 0.56974 0.58731 0.8136 0.0
C1500 C 0.58607 0.55472 0.73014 0.0
C1501 C 0.57169 0.57309 0.78729 0.0
N1502 N 0.60484 0.52627 0.75958 0.0
N1503 N 0.53574 0.5831 0.75934 0.0
H1504 H 0.58017 0.58729 0.83455 0.0
H1505 H 0.56045 0.60176 0.81379 0.0
H1506 H 0.52471 0.58399 0.73908 0.0
H1507 H 0.52571 0.58516 0.77979 0.0
H1508 H 0.60596 0.51481 0.73982 0.0
H1509 H 0.60988 0.5187 0.78024 0.0
H1510 H 0.61393 0.544 0.7016 0.0
H1511 H 0.59232 0.55655 0.68101 0.0
C1512 C 0.40078 0.37681 0.08193 0.0
C1513 C 0.37935 0.37811 0.10253 0.0
C1514 C 0.34195 0.32424 0.09067 0.0
C1515 C 0.36273 0.32346 0.06874 0.0
N1516 N 0.40836 0.35122 0.03771 0.0
N1517 N 0.32695 0.35604 0.11964 0.0
C1518 C 0.39098 0.35061 0.06246 0.0
C1519 C 0.34904 0.35272 0.10461 0.0
N1520 N 0.43092 0.39954 0.08237 0.0
N1521 N 0.31655 0.29765 0.09989 0.0
H1522 H 0.33139 0.37696 0.12918 0.0
H1523 H 0.30377 0.33916 0.11964 0.0
H1524 H 0.31124 0.27616 0.09147 0.0
H1525 H 0.30236 0.29663 0.11813 0.0
H1526 H 0.44809 0.39827 0.07 0.0
H1527 H 0.43939 0.4183 0.09741 0.0
H1528 H 0.42794 0.37111 0.0302 0.0
H1529 H 0.40127 0.33245 0.0228 0.0
C1530 C 0.69659 0.04999 0.06638 0.0
C1531 C 0.72407 0.04925 0.07175 0.0
C1532 C 0.69532 1.00482 0.10629 0.0
C1533 C 0.66958 1.00918 0.10505 0.0
N1534 N 0.6486 0.04083 0.08867 0.0
N1535 N 0.75066 0.02937 0.10257 0.0
C1536 C 0.67081 0.03294 0.08616 0.0
C1537 C 0.72377 0.02736 0.09305 0.0
N1538 N 0.69507 0.06682 0.04213 0.0
N1539 N 0.69249 0.97904 0.12007 0.0
H1540 H 0.77218 0.04696 0.09558 0.0
H1541 H 0.75171 1.01558 0.12017 0.0
H1542 H 0.67165 0.96186 0.12921 0.0
H1543 H 0.70977 0.97334 0.11938 0.0
H1544 H 0.67477 0.06623 0.03564 0.0
H1545 H 0.71326 0.0786 0.02655 0.0
H1546 H 0.65043 0.06032 0.078 0.0
H1547 H 0.63019 0.03003 0.10411 0.0
C1548 C 1.01547 0.70406 0.09686 0.0
C1549 C 0.99663 0.68538 0.07224 0.0
C1550 C 1.01406 0.64868 0.08324 0.0
C1551 C 0.03597 0.66968 0.10501 0.0
N1552 N 0.06328 0.72162 0.12449 0.0
N1553 N 0.98156 0.64217 0.03842 0.0
C1554 C 0.03869 0.69889 0.10898 0.0
C1555 C 0.99739 0.65855 0.06405 0.0
N1556 N 1.00917 0.7245 0.11102 0.0
N1557 N 1.00706 0.61874 0.08267 0.0
H1558 H 0.96899 0.64897 0.02439 0.0
H1559 H 0.98325 0.62373 0.02971 0.0
H1560 H 1.01652 0.60973 0.09814 0.0
H1561 H 0.98918 0.60207 0.06926 0.0
H1562 H 1.02114 0.73718 0.1306 0.0
H1563 H 0.98927 0.72528 0.10591 0.0
H1564 H 0.06692 0.74389 0.1263 0.0
H1565 H 0.08157 0.719 0.13217 0.0
C1566 C 0.36243 0.36994 0.4534 0.0
C1567 C 0.33892 0.34232 0.44004 0.0
C1568 C 0.36735 0.35559 0.39044 0.0
C1569 C 0.39189 0.38185 0.4047 0.0
N1570 N 0.41586 0.41043 0.45133 0.0
N1571 N 0.32111 0.30604 0.39773 0.0
C1572 C 0.39029 0.38798 0.4367 0.0
C1573 C 0.34193 0.33436 0.40899 0.0
N1574 N 0.35759 0.37947 0.48157 0.0
N1575 N 0.368 0.35154 0.35899 0.0
H1576 H 0.30267 0.28988 0.41101 0.0
H1577 H 0.32354 0.29761 0.37637 0.0
H1578 H 0.38639 0.36676 0.34501 0.0
H1579 H 0.34949 0.33456 0.3465 0.0
H1580 H 0.37269 0.40083 0.49124 0.0
H1581 H 0.33698 0.36724 0.49383 0.0
H1582 H 0.41708 0.41435 0.47531 0.0
H1583 H 0.43688 0.42301 0.43987 0.0
C1584 C 0.67587 0.98533 0.42454 0.0
C1585 C 0.69902 1.0083 0.4436 0.0
C1586 C 0.68216 0.04436 0.42754 0.0
C1587 C 0.66104 0.0222 0.40612 0.0
N1588 N 0.64375 0.97456 0.37881 0.0
N1589 N 0.72837 0.06132 0.45863 0.0
C1590 C 0.65992 0.99365 0.40287 0.0
C1591 C 0.70356 0.03843 0.44349 0.0
N1592 N 0.66748 0.95521 0.42865 0.0
N1593 N 0.68044 0.06994 0.43443 0.0
H1594 H 0.74434 0.05743 0.47035 0.0
H1595 H 0.73455 0.08439 0.45705 0.0
H1596 H 0.66391 0.07423 0.42488 0.0
H1597 H 0.69337 0.08531 0.45204 0.0
H1598 H 0.64811 0.93735 0.41801 0.0
H1599 H 0.67744 0.94789 0.44544 0.0
H1600 H 0.64417 0.95448 0.37388 0.0
H1601 H 0.6327 0.9806 0.36193 0.0
C1602 C 1.00357 0.65404 0.4299 0.0
C1603 C 1.02305 0.65237 0.40702 0.0
C1604 C 0.06256 0.70537 0.41925 0.0
C1605 C 0.04204 0.70789 0.44022 0.0
N1606 N 0.98972 0.68734 0.45745 0.0
N1607 N 0.06725 0.67936 0.3738 0.0
C1608 C 1.01141 0.68306 0.44289 0.0
C1609 C 0.05126 0.67912 0.39962 0.0
N1610 N 0.97892 0.62788 0.44106 0.0
N1611 N 0.09321 0.72662 0.41956 0.0
H1612 H 0.0589 0.66069 0.35856 0.0
H1613 H 0.08679 0.69907 0.36585 0.0
H1614 H 0.10306 0.74475 0.43537 0.0
H1615 H 0.10937 0.7242 0.40653 0.0
H1616 H 0.96567 0.62786 0.45977 0.0
H1617 H 0.97385 0.60603 0.43403 0.0
H1618 H 0.96649 0.67056 0.45796 0.0
H1619 H 0.99445 0.70879 0.4657 0.0
C1620 C 0.67414 0.66153 0.94905 0.0
C1621 C 0.67395 0.6601 0.916 0.0
C1622 C 0.70266 0.7163 0.91344 0.0
C1623 C 0.69783 0.71752 0.94591 0.0
N1624 N 0.67979 0.69207 0.99523 0.0
N1625 N 0.68802 0.68536 0.86623 0.0
C1626 C 0.68442 0.69034 0.96407 0.0
C1627 C 0.68893 0.68734 0.89805 0.0
N1628 N 0.66373 0.63498 0.96572 0.0
N1629 N 0.72004 0.74307 0.89745 0.0
H1630 H 0.67851 0.66438 0.85456 0.0
H1631 H 0.69531 0.70418 0.85142 0.0
H1632 H 0.72991 0.76447 0.90833 0.0
H1633 H 0.72671 0.74405 0.87428 0.0
H1634 H 0.66483 0.63413 0.98994 0.0
H1635 H 0.6562 0.61385 0.95477 0.0
H1636 H 0.66735 0.67299 1.0095 0.0
H1637 H 0.68735 0.71298 1.0066 0.0
C1638 C 0.33613 0.99706 0.91284 0.0
C1639 C 0.3335 0.99157 0.94547 0.0
C1640 C 0.38953 0.02158 0.95059 0.0
C1641 C 0.39211 0.02218 0.91762 0.0
N1642 N 0.36863 1.01084 0.86684 0.0
N1643 N 0.35673 0.9987 0.99599 0.0
C1644 C 0.3656 1.01068 0.89855 0.0
C1645 C 0.35998 1.00448 0.96465 0.0
N1646 N 0.31013 0.98849 0.8957 0.0
N1647 N 0.41561 0.03709 0.96812 0.0
H1648 H 0.33521 0.98659 1.0066 0.0
H1649 H 0.37507 1.00466 0.01117 0.0
H1650 H 0.43731 0.04979 0.9579 0.0
H1651 H 0.41565 0.03945 0.99226 0.0
H1652 H 0.31026 0.99384 0.87219 0.0
H1653 H 0.28834 0.97807 0.90587 0.0
H1654 H 0.35016 0.99977 0.85152 0.0
H1655 H 0.38999 0.02086 0.85584 0.0
C1656 C 0.05195 0.35011 0.91157 0.0
C1657 C 0.0572 0.35267 0.94428 0.0
C1658 C 1.02483 0.37599 0.9494 0.0
C1659 C 1.02497 0.37906 0.91646 0.0
N1660 N 0.03857 0.3694 0.8657 0.0
N1661 N 0.04881 0.36765 0.99483 0.0
C1662 C 0.03791 0.36558 0.89732 0.0
C1663 C 0.04309 0.36491 0.96348 0.0
N1664 N 0.06086 0.3331 0.89435 0.0
N1665 N 1.00739 0.38414 0.96695 0.0
H1666 H 0.06198 0.3595 1.00557 0.0
H1667 H 0.04198 0.37938 0.00984 0.0
H1668 H 0.99367 0.39198 0.95678 0.0
H1669 H 1.00435 0.38057 0.99094 0.0
H1670 H 0.05569 0.3282 0.87076 0.0
H1671 H 0.07105 0.3215 0.90454 0.0
H1672 H 0.0507 0.36317 0.85055 0.0
H1673 H 0.02828 0.38051 0.85475 0.0
C1674 C 0.67928 0.67789 0.59589 0.0
C1675 C 0.66765 0.64677 0.60536 0.0
C1676 C 0.71264 0.64869 0.58182 0.0
C1677 C 0.72747 0.68098 0.57846 0.0
N1678 N 0.72558 0.72733 0.58869 0.0
N1679 N 0.6811 0.60791 0.61715 0.0
C1680 C 0.71104 0.69609 0.58723 0.0
C1681 C 0.68673 0.63377 0.6013 0.0
N1682 N 0.66021 0.68977 0.5936 0.0
N1683 N 0.72332 0.63218 0.56646 0.0
H1684 H 0.66439 0.59825 0.63457 0.0
H1685 H 0.69574 0.59882 0.61576 0.0
H1686 H 0.74107 0.6423 0.55011 0.0
H1687 H 0.71203 0.60823 0.56739 0.0
H1688 H 0.66748 0.71164 0.58462 0.0
H1689 H 0.63656 0.67661 0.59704 0.0
H1690 H 0.71493 0.739 0.59745 0.0
H1691 H 0.74895 0.74131 0.58416 0.0
C1692 C 0.37627 0.0296 0.62818 0.0
C1693 C 0.39018 1.01728 0.60873 0.0
C1694 C 0.36816 0.02762 0.56227 0.0
C1695 C 0.35569 0.04148 0.58157 0.0
N1696 N 0.34161 0.05016 0.63232 0.0
N1697 N 0.39426 0.99795 0.55892 0.0
C1698 C 0.35748 0.04028 0.61449 0.0
C1699 C 0.38417 1.01394 0.57622 0.0
N1700 N 0.38266 0.03266 0.65941 0.0
N1701 N 0.3662 0.02936 0.5306 0.0
H1702 H 0.40609 0.98792 0.56894 0.0
H1703 H 0.38904 0.99262 0.53542 0.0
H1704 H 0.35399 0.03874 0.5201 0.0
H1705 H 0.37747 0.02271 0.51479 0.0
H1706 H 0.37585 0.04411 0.67479 0.0
H1707 H 0.39613 0.02467 0.66982 0.0
H1708 H 0.34009 0.04841 0.65654 0.0
H1709 H 0.32793 0.05815 0.62236 0.0
C1710 C 1.0236 0.34824 0.62857 0.0
C1711 C 0.03397 0.37528 0.61058 0.0
C1712 C 1.02223 0.34545 0.56219 0.0
C1713 C 1.00959 0.31819 0.58017 0.0
N1714 N 1.00352 0.29293 0.62927 0.0
N1715 N 0.04969 0.40144 0.56141 0.0
C1716 C 1.01245 0.31951 0.6131 0.0
C1717 C 0.03571 0.37441 0.57763 0.0
N1718 N 1.02288 0.35014 0.66034 0.0
N1719 N 1.01947 0.3432 0.53044 0.0
H1720 H 0.05935 0.42271 0.57257 0.0
H1721 H 0.05357 0.40304 0.53744 0.0
H1722 H 1.01027 0.32212 0.51894 0.0
H1723 H 1.02537 0.36171 0.51557 0.0
H1724 H 1.01315 0.33124 0.67523 0.0
H1725 H 0.0315 0.37113 0.67188 0.0
H1726 H 1.00618 0.29185 0.65325 0.0
H1727 H 0.99512 0.27182 0.61802 0.0
C1728 C 0.03244 0.67664 0.78115 0.0
C1729 C 1.00529 0.67667 0.77232 0.0
C1730 C 0.03186 0.70611 0.72527 0.0
C1731 C 0.06003 0.71062 0.73735 0.0
N1732 N 0.08791 0.70561 0.78061 0.0
N1733 N 0.98012 0.69485 0.73721 0.0
C1734 C 0.06056 0.69704 0.76617 0.0
C1735 C 1.00498 0.69186 0.74434 0.0
N1736 N 0.03126 0.65719 0.80407 0.0
N1737 N 0.03126 0.71636 0.69589 0.0
H1738 H 0.96081 0.68658 0.75146 0.0
H1739 H 0.97978 0.70796 0.71855 0.0
H1740 H 0.051 0.72737 0.68206 0.0
H1741 H 1.01104 0.71158 0.68441 0.0
H1742 H 0.04998 0.65457 0.80986 0.0
H1743 H 1.01062 0.64135 0.81472 0.0
H1744 H 0.08945 0.69842 0.80305 0.0
H1745 H 0.10885 0.72261 0.77162 0.0
C1746 C 0.35344 0.31981 0.74499 0.0
C1747 C 0.37243 0.33741 0.77026 0.0
C1748 C 0.35423 0.37401 0.7638 0.0
C1749 C 0.33717 0.35792 0.73705 0.0
N1750 N 0.32488 0.3188 0.69866 0.0
N1751 N 0.39721 0.38545 0.79784 0.0
C1752 C 0.33853 0.33203 0.72634 0.0
C1753 C 0.37506 0.36608 0.77748 0.0
N1754 N 0.34758 0.29053 0.74035 0.0
N1755 N 0.34837 0.39477 0.778 0.0
H1756 H 0.41313 0.38029 0.80764 0.0
H1757 H 0.40164 0.40769 0.80222 0.0
H1758 H 0.33059 0.39829 0.77072 0.0
H1759 H 0.35837 0.40536 0.79913 0.0
H1760 H 0.3311 0.27548 0.72461 0.0
H1761 H 0.35699 0.28032 0.75427 0.0
H1762 H 0.32713 0.30136 0.68816 0.0
H1763 H 0.31363 0.32738 0.68497 0.0
C1764 C 0.7297 0.02594 0.77408 0.0
C1765 C 0.71222 0.04092 0.77408 0.0
C1766 C 0.67836 1.00561 0.73362 0.0
C1767 C 0.69426 0.989 0.73565 0.0
N1768 N 0.73136 0.97979 0.76169 0.0
N1769 N 0.66798 0.04347 0.75717 0.0
C1770 C 0.71901 0.99826 0.75693 0.0
C1771 C 0.68598 0.03034 0.75469 0.0
N1772 N 0.75696 0.03875 0.78993 0.0
N1773 N 0.65671 0.99828 0.71086 0.0
H1774 H 0.67333 0.06174 0.77227 0.0
H1775 H 0.64682 0.03499 0.74605 0.0
H1776 H 0.65105 0.98055 0.69494 0.0
H1777 H 0.64614 1.01114 0.70616 0.0
H1778 H 0.77237 0.03067 0.78846 0.0
H1779 H 0.76544 0.05924 0.8024 0.0
H1780 H 0.74747 0.98371 0.77904 0.0
H1781 H 0.72335 0.95889 0.75018 0.0
C1782 C 0.35386 0.02307 0.29318 0.0
C1783 C 0.36378 0.0501 0.27525 0.0
C1784 C 0.35231 0.02041 0.22678 0.0
C1785 C 0.34041 0.99315 0.2447 0.0
N1786 N 0.33496 0.96797 0.29373 0.0
N1787 N 0.37879 0.07636 0.22608 0.0
C1788 C 0.3433 0.99447 0.27763 0.0
C1789 C 0.36531 0.04931 0.24228 0.0
N1790 N 0.35299 0.02479 0.32496 0.0
N1791 N 0.34935 1.01817 0.19505 0.0
H1792 H 0.38815 0.09761 0.23726 0.0
H1793 H 0.38256 0.07804 0.2021 0.0
H1794 H 0.34057 0.99716 0.18349 0.0
H1795 H 0.35464 0.0366 0.18027 0.0
H1796 H 0.34354 1.00583 0.33976 0.0
H1797 H 0.36106 0.04565 0.33662 0.0
H1798 H 0.33779 0.96694 0.31769 0.0
H1799 H 0.32692 0.94693 0.28244 0.0
C1800 C 1.02411 0.33695 0.22993 0.0
C1801 C 0.05141 0.35158 0.2479 0.0
C1802 C 1.02129 0.33964 0.29613 0.0
C1803 C 0.99405 0.3233 0.27832 0.0
N1804 N 0.96815 0.31161 0.22897 0.0
N1805 N 0.07689 0.3733 0.29639 0.0
C1806 C 0.99512 0.32403 0.24529 0.0
C1807 C 0.05017 0.35525 0.28054 0.0
N1808 N 1.02615 0.33392 0.19847 0.0
N1809 N 1.01939 0.33846 0.32796 0.0
H1810 H 0.09816 0.38469 0.28512 0.0
H1811 H 0.0779 0.37885 0.31992 0.0
H1812 H 0.99834 0.32761 0.33964 0.0
H1813 H 0.03835 0.3471 0.34276 0.0
H1814 H 1.00734 0.32098 0.18404 0.0
H1815 H 0.04724 0.34367 0.18689 0.0
H1816 H 0.96681 0.31277 0.2048 0.0
H1817 H 0.94685 0.30195 0.24016 0.0
C1818 C 0.7039 0.67463 0.26994 0.0
C1819 C 0.7345 0.69484 0.28073 0.0
C1820 C 0.73193 0.7372 0.25595 0.0
C1821 C 0.6998 0.71895 0.25131 0.0
N1822 N 0.65402 0.66963 0.2593 0.0
N1823 N 0.77166 0.7476 0.2932 0.0
C1824 C 0.68526 0.68732 0.25977 0.0
C1825 C 0.74672 0.72684 0.2765 0.0
N1826 N 0.69302 0.64384 0.26774 0.0
N1827 N 0.74838 0.76463 0.24088 0.0
H1828 H 0.78104 0.74094 0.31129 0.0
H1829 H 0.78011 0.77121 0.29171 0.0
H1830 H 0.73843 0.77191 0.22395 0.0
H1831 H 0.77227 0.77794 0.24271 0.0
H1832 H 0.6717 0.62874 0.25787 0.0
H1833 H 0.70662 0.63404 0.27223 0.0
H1834 H 0.64244 0.64719 0.26785 0.0
H1835 H 0.63976 0.67826 0.253 0.0
C1836 C 0.37228 0.2138 0.15671 0.0
C1837 C 0.34271 0.18804 0.15063 0.0
C1838 C 0.34799 0.16142 0.19639 0.0
C1839 C 0.37656 0.18801 0.20368 0.0
N1840 N 0.4143 0.24086 0.19348 0.0
N1841 N 0.30043 0.13912 0.16653 0.0
C1842 C 0.38823 0.21461 0.1846 0.0
C1843 C 0.33003 0.16231 0.171 0.0
N1844 N 0.38562 0.237 0.13522 0.0
N1845 N 0.3383 0.13514 0.21348 0.0
H1846 H 0.28676 0.13905 0.14812 0.0
H1847 H 0.28853 0.12121 0.18227 0.0
H1848 H 0.35034 0.1338 0.23272 0.0
H1849 H 0.31953 0.114 0.20737 0.0
H1850 H 0.40842 0.25463 0.1364 0.0
H1851 H 0.37457 0.23757 0.1148 0.0
H1852 H 0.42205 0.26208 0.18277 0.0
H1853 H 0.42724 0.24191 0.21302 0.0
C1854 C 0.8843 0.18331 0.17354 0.0
C1855 C 0.85756 0.16764 0.15467 0.0
C1856 C 0.83087 0.18704 0.18772 0.0
C1857 C 0.85699 0.20123 0.20755 0.0
N1858 N 0.90743 0.21057 0.2218 0.0
N1859 N 0.80443 0.15204 0.14472 0.0
C1860 C 0.88344 0.19878 0.20108 0.0
C1861 C 0.83052 0.16874 0.1621 0.0
N1862 N 0.91073 0.18386 0.16472 0.0
N1863 N 0.80675 0.19184 0.19299 0.0
H1864 H 0.8036 0.13949 0.12502 0.0
H1865 H 0.783 0.14895 0.15071 0.0
H1866 H 0.80616 0.20474 0.21176 0.0
H1867 H 0.78827 0.18498 0.1778 0.0
H1868 H 0.93207 0.19785 0.17502 0.0
H1869 H 0.91176 0.17142 0.14575 0.0
H1870 H 0.92581 0.20657 0.22061 0.0
H1871 H 0.90823 0.22305 0.24156 0.0
C1872 C 0.85943 0.65551 0.18608 0.0
C1873 C 0.84164 0.66427 0.20457 0.0
C1874 C 0.85858 0.71042 0.17185 0.0
C1875 C 0.87494 0.70077 0.15241 0.0
N1876 N 0.88805 0.66239 0.13816 0.0
N1877 N 0.82074 0.69774 0.2127 0.0
C1878 C 0.87461 0.67283 0.15878 0.0
C1879 C 0.84013 0.69102 0.19667 0.0
N1880 N 0.86213 0.63081 0.1949 0.0
N1881 N 0.86153 0.73869 0.16716 0.0
H1882 H 0.8076 0.68477 0.23153 0.0
H1883 H 0.81579 0.71469 0.20598 0.0
H1884 H 0.87456 0.7533 0.14902 0.0
H1885 H 0.8532 0.74882 0.18251 0.0
H1886 H 0.87768 0.62537 0.18495 0.0
H1887 H 0.84979 0.61646 0.21346 0.0
H1888 H 0.88571 0.64065 0.13928 0.0
H1889 H 0.90007 0.67478 0.11847 0.0
C1890 C 0.22873 0.38248 0.36796 0.0
C1891 C 0.20375 0.35371 0.37757 0.0
C1892 C 0.17185 0.35572 0.33509 0.0
C1893 C 0.1966 0.38486 0.32589 0.0
N1894 N 0.24635 0.42862 0.33649 0.0
N1895 N 0.14992 0.31568 0.37459 0.0
C1896 C 0.22437 0.39907 0.34332 0.0
C1897 C 0.17476 0.34124 0.36248 0.0
N1898 N 0.25689 0.39341 0.38172 0.0
N1899 N 0.14612 0.34117 0.31677 0.0
H1900 H 0.15135 0.30411 0.3942 0.0
H1901 H 0.12747 0.30736 0.36684 0.0
H1902 H 0.14274 0.3511 0.29687 0.0
H1903 H 0.12894 0.31841 0.31999 0.0
H1904 H 0.27693 0.41237 0.37356 0.0
H1905 H 0.26069 0.38233 0.40038 0.0
H1906 H 0.2659 0.44153 0.35003 0.0
H1907 H 0.24377 0.44123 0.31855 0.0
C1908 C 0.65208 0.86891 0.35812 0.0
C1909 C 0.67684 0.86822 0.37333 0.0
C1910 C 0.67132 0.82737 0.33814 0.0
C1911 C 0.64537 0.82679 0.32404 0.0
N1912 N 0.6074 0.84261 0.32437 0.0
N1913 N 0.70579 0.84253 0.38255 0.0
C1914 C 0.63459 0.84621 0.3353 0.0
C1915 C 0.68511 0.84608 0.36481 0.0
N1916 N 0.64608 0.89197 0.36466 0.0
N1917 N 0.68391 0.81139 0.32512 0.0
H1918 H 0.71672 0.85602 0.40208 0.0
H1919 H 0.71011 0.82448 0.37957 0.0
H1920 H 0.67463 0.79721 0.30572 0.0
H1921 H 0.70501 0.81406 0.33202 0.0
H1922 H 0.63043 0.89567 0.35216 0.0
H1923 H 0.65873 0.90907 0.38099 0.0
H1924 H 0.59675 0.85403 0.33366 0.0
H1925 H 0.59404 0.82602 0.30779 0.0
C1926 C 0.20972 0.87212 0.36305 0.0
C1927 C 0.19214 0.84283 0.37722 0.0
C1928 C 0.21427 0.82125 0.34106 0.0
C1929 C 0.22886 0.84954 0.32458 0.0
N1930 N 0.23868 0.90136 0.31782 0.0
N1931 N 0.17589 0.78891 0.37931 0.0
C1932 C 0.2264 0.87498 0.33521 0.0
C1933 C 0.19408 0.81723 0.36624 0.0
N1934 N 0.21056 0.89724 0.37635 0.0
N1935 N 0.22016 0.79845 0.3328 0.0
H1936 H 0.16169 0.78535 0.39849 0.0
H1937 H 0.17342 0.76864 0.37015 0.0
H1938 H 0.2348 0.80078 0.31442 0.0
H1939 H 0.21269 0.77831 0.34557 0.0
H1940 H 0.22553 0.91972 0.36926 0.0
H1941 H 0.19792 0.89587 0.3962 0.0
H1942 H 0.23451 0.91931 0.32215 0.0
H1943 H 0.2515 0.90466 0.29758 0.0
C1944 C 0.66907 0.83588 0.83894 0.0
C1945 C 0.67944 0.86278 0.82055 0.0
C1946 C 0.7226 0.89136 0.85697 0.0
C1947 C 0.71359 0.86385 0.8739 0.0
N1948 N 0.68054 0.80903 0.8792 0.0
N1949 N 0.71806 0.91518 0.80938 0.0
C1950 C 0.68745 0.83583 0.86433 0.0
C1951 C 0.70672 0.89033 0.82891 0.0
N1952 N 0.64114 0.8106 0.8326 0.0
N1953 N 0.74605 0.91856 0.86802 0.0
H1954 H 0.70684 0.91549 0.78899 0.0
H1955 H 0.73958 0.93471 0.81211 0.0
H1956 H 0.75892 0.91996 0.88774 0.0
H1957 H 0.75151 0.93993 0.85896 0.0
H1958 H 0.63058 0.79134 0.84698 0.0
H1959 H 0.62718 0.80983 0.81414 0.0
H1960 H 0.66404 0.78739 0.87126 0.0
H1961 H 0.69289 0.80809 0.89834 0.0
C1962 C 0.16679 0.84582 0.84903 0.0
C1963 C 0.19361 0.8664 0.86595 0.0
C1964 C 0.22486 0.85288 0.83238 0.0
C1965 C 0.19836 0.8337 0.81433 0.0
N1966 N 0.14482 0.81464 0.80261 0.0
N1967 N 0.24874 0.89235 0.87221 0.0
C1968 C 0.16948 0.83087 0.82193 0.0
C1969 C 0.22285 0.87079 0.85711 0.0
N1970 N 0.13864 0.84015 0.85925 0.0
N1971 N 0.25175 0.85317 0.82642 0.0
H1972 H 0.24817 0.90508 0.89113 0.0
H1973 H 0.271 0.89924 0.86485 0.0
H1974 H 0.25402 0.84055 0.80835 0.0
H1975 H 0.27115 0.86397 0.84059 0.0
H1976 H 0.11786 0.8227 0.85047 0.0
H1977 H 0.13593 0.85184 0.87796 0.0
H1978 H 0.12414 0.81458 0.80456 0.0
H1979 H 0.14558 0.80266 0.78312 0.0
C1980 C 0.21624 0.34864 0.82126 0.0
C1981 C 0.21105 0.37276 0.81159 0.0
C1982 C 0.17573 0.36155 0.85572 0.0
C1983 C 0.17933 0.33614 0.86416 0.0
N1984 N 0.19953 0.30277 0.85291 0.0
N1985 N 0.18346 0.4002 0.81703 0.0
C1986 C 0.19872 0.32899 0.84638 0.0
C1987 C 0.19007 0.37862 0.82811 0.0
N1988 N 0.23822 0.34475 0.80657 0.0
N1989 N 0.15944 0.37005 0.87477 0.0
H1990 H 0.19464 0.41417 0.79784 0.0
H1991 H 0.16566 0.40304 0.82556 0.0
H1992 H 0.14805 0.35784 0.89476 0.0
H1993 H 0.15888 0.39034 0.87211 0.0
H1994 H 0.24566 0.32999 0.81453 0.0
H1995 H 0.25075 0.35789 0.78745 0.0
H1996 H 0.2105 0.29428 0.83894 0.0
H1997 H 0.18707 0.28799 0.87117 0.0
C1998 C 0.91001 0.72929 0.70315 0.0
C1999 C 0.88349 0.70315 0.71545 0.0
C2000 C 0.85176 0.70849 0.67505 0.0
C2001 C 0.87787 0.73576 0.6639 0.0
N2002 N 0.93022 0.77595 0.67223 0.0
N2003 N 0.82815 0.67366 0.71856 0.0
C2004 C 0.9065 0.74738 0.67957 0.0
C2005 C 0.85405 0.69464 0.70312 0.0
N2006 N 0.93866 0.73607 0.71277 0.0
N2007 N 0.8252 0.69459 0.65797 0.0
H2008 H 0.82888 0.66356 0.73962 0.0
H2009 H 0.80612 0.66884 0.71227 0.0
H2010 H 0.82256 0.70313 0.63677 0.0
H2011 H 0.80678 0.67292 0.66334 0.0
H2012 H 0.95882 0.75263 0.70204 0.0
H2013 H 0.94233 0.72343 0.72978 0.0
H2014 H 0.95068 0.78692 0.68487 0.0
H2015 H 0.92822 0.78991 0.65542 0.0
C2016 C 0.33966 0.20024 0.69306 0.0
C2017 C 0.35924 0.19347 0.71118 0.0
C2018 C 0.34758 0.15029 0.67627 0.0
C2019 C 0.32558 0.15523 0.66024 0.0
N2020 N 0.2952 0.18014 0.65914 0.0
N2021 N 0.37575 0.15728 0.72441 0.0
C2022 C 0.31981 0.17865 0.67059 0.0
C2023 C 0.36128 0.16695 0.70418 0.0
N2024 N 0.34128 0.22806 0.69584 0.0
N2025 N 0.3569 0.13119 0.66406 0.0
H2026 H 0.38543 0.16845 0.74543 0.0
H2027 H 0.37533 0.13647 0.72183 0.0
H2028 H 0.34866 0.11952 0.64302 0.0
H2029 H 0.37512 0.12934 0.67328 0.0
H2030 H 0.32953 0.23517 0.68106 0.0
H2031 H 0.35701 0.24537 0.71046 0.0
H2032 H 0.28843 0.19516 0.66795 0.0
H2033 H 0.2797 0.16418 0.64321 0.0
C2034 C 0.87067 0.14361 0.67107 0.0
C2035 C 0.89228 0.1733 0.65982 0.0
C2036 C 0.8788 0.19618 0.7032 0.0
C2037 C 0.85378 0.16679 0.71112 0.0
N2038 N 0.8229 0.11276 0.69886 0.0
N2039 N 0.91299 0.2283 0.66231 0.0
C2040 C 0.84899 0.14046 0.6942 0.0
C2041 C 0.89551 0.19979 0.67522 0.0
N2042 N 0.87108 0.1184 0.65984 0.0
N2043 N 0.88701 0.22058 0.72269 0.0
H2044 H 0.92483 0.23215 0.6413 0.0
H2045 H 0.91336 0.24784 0.67093 0.0
H2046 H 0.87577 0.21869 0.74375 0.0
H2047 H 0.90688 0.2418 0.71953 0.0
H2048 H 0.85777 0.09647 0.66924 0.0
H2049 H 0.88704 0.11997 0.64329 0.0
H2050 H 0.8168 0.09363 0.68485 0.0
H2051 H 0.8058 0.10959 0.71469 0.0
C2052 C 1.01303 0.48416 0.52607 0.0
C2053 C 0.04092 0.5111 0.53447 0.0
C2054 C 0.03603 0.53804 0.48864 0.0
C2055 C 1.00721 0.51174 0.48137 0.0
N2056 N 0.96635 0.46107 0.49464 0.0
N2057 N 0.07753 0.56465 0.5261 0.0
C2058 C 0.99522 0.48512 0.50049 0.0
C2059 C 0.05199 0.53832 0.51638 0.0
N2060 N 1.00376 0.45753 0.54242 0.0
N2061 N 0.04858 0.56243 0.46845 0.0
H2062 H 0.09067 0.56536 0.54532 0.0
H2063 H 0.08479 0.58619 0.51637 0.0
H2064 H 0.0373 0.56349 0.44842 0.0
H2065 H 0.07096 0.5808 0.47027 0.0
H2066 H 0.98572 0.43624 0.53554 0.0
H2067 H 1.01535 0.45619 0.56205 0.0
H2068 H 0.95467 0.44226 0.50941 0.0
H2069 H 0.95296 0.46089 0.4759 0.0
C2070 C 0.49724 0.52499 0.50867 0.0
C2071 C 0.52288 0.53762 0.52919 0.0
C2072 C 0.54869 0.51736 0.496 0.0
C2073 C 0.52224 0.50302 0.47668 0.0
N2074 N 0.47043 0.491 0.46505 0.0
N2075 N 0.57164 0.54327 0.54465 0.0
C2076 C 0.49622 0.50622 0.48317 0.0
C2077 C 0.54827 0.53317 0.52338 0.0
N2078 N 0.47427 0.53165 0.51323 0.0
N2079 N 0.57454 0.51651 0.4877 0.0
H2080 H 0.57284 0.55609 0.56414 0.0
H2081 H 0.58882 0.53747 0.54414 0.0
H2082 H 0.5753 0.50404 0.46861 0.0
H2083 H 0.59585 0.52965 0.4984 0.0
H2084 H 0.45627 0.52583 0.49765 0.0
H2085 H 0.4743 0.54505 0.53183 0.0
H2086 H 0.44945 0.48937 0.47029 0.0
H2087 H 0.46942 0.47832 0.44539 0.0
C2088 C 0.53034 0.04843 0.49898 0.0
C2089 C 0.54397 0.03678 0.47817 0.0
C2090 C 0.52618 0.9908 0.51128 0.0
C2091 C 0.51084 1.00151 0.53097 0.0
N2092 N 0.49534 0.03879 0.54221 0.0
N2093 N 0.55182 0.99533 0.46189 0.0
C2094 C 0.51204 0.02985 0.52437 0.0
C2095 C 0.54111 1.00754 0.48366 0.0
N2096 N 0.53567 0.07768 0.49488 0.0
N2097 N 0.5269 0.96484 0.51932 0.0
H2098 H 0.56351 1.00713 0.44182 0.0
H2099 H 0.5474 0.97279 0.46248 0.0
H2100 H 0.51498 0.95119 0.53845 0.0
H2101 H 0.54072 0.95774 0.50827 0.0
H2102 H 0.52929 0.08901 0.5109 0.0
H2103 H 0.54865 0.09169 0.47638 0.0
H2104 H 0.49231 0.05726 0.53672 0.0
H2105 H 0.48261 0.02647 0.56162 0.0
C2106 C 0.51586 0.02323 0.03789 0.0
C2107 C 0.54501 0.02682 0.04543 0.0
C2108 C 0.5687 0.06645 1.00483 0.0
C2109 C 0.53908 0.05902 0.99391 0.0
N2110 N 0.4838 0.02667 0.99769 0.0
N2111 N 0.59884 0.04887 0.033 0.0
C2112 C 0.51241 0.03666 0.00999 0.0
C2113 C 0.57146 0.04789 0.02829 0.0
N2114 N 0.4915 1.00715 0.05752 0.0
N2115 N 0.5942 0.0913 0.99273 0.0
H2116 H 0.6015 0.0348 0.04908 0.0
H2117 H 0.61809 0.06146 0.01894 0.0
H2118 H 0.59283 0.10549 0.97574 0.0
H2119 H 0.61624 0.09954 1.0017 0.0
H2120 H 0.47048 1.0063 0.05482 0.0
H2121 H 0.4933 0.9972 0.07825 0.0
H2122 H 0.46393 1.00799 1.00663 0.0
H2123 H 0.48001 0.03512 0.97694 0.0
C2124 C 0.9808 0.50755 0.01104 0.0
C2125 C 0.99203 0.49164 0.99303 0.0
C2126 C 0.03563 0.50809 0.0292 0.0
C2127 C 1.02624 0.52672 0.04514 0.0
N2128 N 0.99058 0.54511 0.05163 0.0
N2129 N 0.03056 0.4774 0.98346 0.0
C2130 C 0.99885 0.52653 0.03629 0.0
C2131 C 1.01942 0.49182 1.00191 0.0
N2132 N 0.95262 0.50405 1.00417 0.0
N2133 N 0.05994 0.50581 0.04038 0.0
H2134 H 1.0188 0.46427 0.96403 0.0
H2135 H 0.05218 0.47968 0.98623 0.0
H2136 H 0.07292 0.51816 0.05968 0.0
H2137 H 0.06601 0.49014 0.03207 0.0
H2138 H 0.94151 0.51254 0.01794 0.0
H2139 H 0.9391 0.49054 0.98566 0.0
H2140 H 0.97305 0.54898 0.04429 0.0
H2141 H 1.0023 0.55799 0.07121 0.0
C2142 C 0.52886 0.49124 0.03526 0.0
C2143 C 0.52249 0.51534 0.04075 0.0
C2144 C 0.557 0.54543 0.99788 0.0
C2145 C 0.56114 0.52016 0.99057 0.0
N2146 N 0.55088 0.46881 1.00097 0.0
N2147 N 0.52895 0.56477 0.02736 0.0
C2148 C 0.5472 0.49307 1.00908 0.0
C2149 C 0.53639 0.54242 0.02224 0.0
N2150 N 0.51752 0.46676 0.05532 0.0
N2151 N 0.57275 0.57229 0.98142 0.0
H2152 H 0.515 0.56396 0.04579 0.0
H2153 H 0.53513 0.58341 0.01259 0.0
H2154 H 0.58667 0.57495 0.96229 0.0
H2155 H 0.57368 0.59271 0.98766 0.0
H2156 H 0.52362 0.44982 0.05474 0.0
H2157 H 0.50322 0.46422 0.07409 0.0
H2158 H 0.53859 0.44704 0.01089 0.0
H2159 H 0.56555 0.47004 0.98308 0.0
C2160 C 0.24209 0.0765 0.95079 0.0
C2161 C 0.24672 0.08691 0.98218 0.0
C2162 C 0.24695 0.0403 0.99874 0.0
C2163 C 0.23934 0.02839 0.96779 0.0
N2164 N 0.22457 0.03322 0.91539 0.0
N2165 N 0.24705 0.07602 0.03676 0.0
C2166 C 0.23554 0.046 0.94404 0.0
C2167 C 0.24724 0.06798 1.00635 0.0
N2168 N 0.24498 0.09617 0.92732 0.0
N2169 N 0.2556 0.02622 0.02057 0.0
H2170 H 0.24672 0.09587 0.04309 0.0
H2171 H 0.24413 0.06158 0.05553 0.0
H2172 H 0.25707 1.0067 0.01594 0.0
H2173 H 0.26445 0.03573 0.04238 0.0
H2174 H 0.24516 0.09124 0.90373 0.0
H2175 H 0.24987 0.11856 0.93157 0.0
H2176 H 0.21838 0.04374 0.89814 0.0
H2177 H 0.21893 1.01081 0.90983 0.0
C2178 C 0.96732 0.17911 0.95628 0.0
C2179 C 0.96032 0.17081 0.98815 0.0
C2180 C 1.00887 0.21622 1.00319 0.0
C2181 C 1.01789 0.22218 0.97121 0.0
N2182 N 1.00726 0.20542 0.91753 0.0
N2183 N 0.97686 0.17819 0.04168 0.0
C2184 C 0.99752 0.20253 0.94776 0.0
C2185 C 0.98188 0.1884 0.01152 0.0
N2186 N 0.94474 0.16553 0.93428 0.0
N2187 N 1.0248 0.23789 0.02549 0.0
H2188 H 0.95746 0.1577 0.0484 0.0
H2189 H 0.99329 0.18848 0.05925 0.0
H2190 H 0.04314 0.25962 0.0203 0.0
H2191 H 1.01749 0.23571 0.04859 0.0
H2192 H 0.94769 0.17273 0.91107 0.0
H2193 H 0.92211 0.1493 0.93994 0.0
H2194 H 0.99429 0.18983 0.90008 0.0
H2195 H 0.02951 0.22151 0.91054 0.0
C2196 C 0.82909 0.80131 1.00407 0.0
C2197 C 0.82567 0.81049 0.97349 0.0
C2198 C 0.87254 0.81042 0.95708 0.0
C2199 C 0.87705 0.80373 0.98817 0.0
N2200 N 0.86359 0.79933 0.04245 0.0
N2201 N 0.84682 0.82854 0.92217 0.0
C2202 C 0.85644 0.80108 0.012 0.0
C2203 C 0.84812 0.81628 0.95026 0.0
N2204 N 0.8056 0.79122 0.02517 0.0
N2205 N 0.89121 0.81038 0.93398 0.0
H2206 H 0.82964 0.83363 0.91661 0.0
H2207 H 0.86413 0.83614 0.90543 0.0
H2208 H 0.90951 0.8067 0.93848 0.0
H2209 H 0.88725 0.81172 0.9103 0.0
H2210 H 0.80558 0.7811 0.04643 0.0
H2211 H 0.78472 0.79 0.02037 0.0
H2212 H 0.8512 0.80073 0.06125 0.0
H2213 H 0.88369 0.79954 0.04903 0.0
C2214 C 0.06383 0.23558 0.55231 0.0
C2215 C 0.04089 0.20404 0.54984 0.0
C2216 C 0.08019 0.19354 0.52834 0.0
C2217 C 0.10056 0.2254 0.52469 0.0
N2218 N 0.11178 0.27734 0.53206 0.0
N2219 N 1.02768 0.15242 0.534 0.0
C2220 C 0.0926 0.24664 0.53681 0.0
C2221 C 0.04929 0.18266 0.53809 0.0
N2222 N 0.05823 0.25478 0.57006 0.0
N2223 N 0.09061 0.1737 0.52219 0.0
H2224 H 1.0049 0.14264 0.54096 0.0
H2225 H 0.03189 0.13712 0.52159 0.0
H2226 H 0.11315 0.18139 0.51497 0.0
H2227 H 0.07813 0.1503 0.52723 0.0
H2228 H 0.07479 0.27748 0.57478 0.0
H2229 H 0.03797 0.24687 0.58285 0.0
H2230 H 0.10574 0.29386 0.53722 0.0
H2231 H 0.13302 0.28605 0.52098 0.0
C2232 C 0.83517 0.84926 0.51005 0.0
C2233 C 0.82583 0.83502 0.53987 0.0
C2234 C 0.79237 0.85743 0.54442 0.0
C2235 C 0.80595 0.87548 0.51725 0.0
N2236 N 0.84663 0.89414 0.47946 0.0
N2237 N 0.79744 0.82859 0.58737 0.0
C2238 C 0.82984 0.87351 0.50222 0.0
C2239 C 0.80541 0.84051 0.55797 0.0
N2240 N 0.84645 0.83809 0.48789 0.0
N2241 N 0.76553 0.85414 0.55555 0.0
H2242 H 0.80535 0.81483 0.59725 0.0
H2243 H 0.78464 0.83409 0.60243 0.0
H2244 H 0.75421 0.86391 0.54418 0.0
H2245 H 0.75305 0.83914 0.57362 0.0
H2246 H 0.85173 0.84697 0.46528 0.0
H2247 H 0.84589 0.81724 0.49035 0.0
H2248 H 0.86572 0.89478 0.4691 0.0
H2249 H 0.84329 0.91244 0.47362 0.0
C2250 C 0.17646 0.99852 0.53479 0.0
C2251 C 0.20557 1.00632 0.54819 0.0
C2252 C 0.19578 0.95427 0.53622 0.0
C2253 C 0.16691 0.9467 0.5232 0.0
N2254 N 0.12589 0.95768 0.51892 0.0
N2255 N 0.23758 0.98809 0.57057 0.0
C2256 C 0.15599 0.96759 0.52567 0.0
C2257 C 0.21346 0.98297 0.5518 0.0
N2258 N 0.16899 0.02061 0.52831 0.0
N2259 N 0.20707 0.93485 0.53224 0.0
H2260 H 0.25 1.00831 0.58339 0.0
H2261 H 0.243 0.97116 0.57607 0.0
H2262 H 0.19474 0.91377 0.52089 0.0
H2263 H 0.22947 0.94066 0.53815 0.0
H2264 H 0.14989 1.01638 0.51498 0.0
H2265 H 0.18274 0.04371 0.53368 0.0
H2266 H 0.11549 0.9708 0.52306 0.0
H2267 H 0.11061 0.93504 0.51229 0.0
C2268 C 0.81898 1.00172 0.01426 0.0
C2269 C 0.82905 1.01585 0.0442 0.0
C2270 C 0.81908 0.96637 0.06622 0.0
C2271 C 0.8105 0.95279 0.03618 0.0
N2272 N 0.7994 0.95586 0.9821 0.0
N2273 N 0.83252 1.01048 0.09966 0.0
C2274 C 0.80934 0.96996 0.01045 0.0
C2275 C 0.82738 0.99779 0.07049 0.0
N2276 N 0.82022 0.01894 0.98894 0.0
N2277 N 0.81944 0.94897 0.09059 0.0
H2278 H 0.83764 0.03304 0.10353 0.0
H2279 H 0.82951 0.99834 0.12028 0.0
H2280 H 0.81119 0.92543 0.08853 0.0
H2281 H 0.82861 0.95768 0.1125 0.0
H2282 H 0.81816 1.01171 0.96589 0.0
H2283 H 0.82408 0.04118 0.99039 0.0
H2284 H 0.79333 0.96501 0.96344 0.0
H2285 H 0.79604 0.93412 0.97723 0.0
C2286 C 0.05659 0.83858 0.07033 0.0
C2287 C 0.03753 0.81876 0.04623 0.0
C2288 C 0.07597 0.85176 1.00731 0.0
C2289 C 0.09629 0.86934 0.03158 0.0
N2290 N 0.10835 0.87644 0.08634 0.0
N2291 N 0.03271 0.80289 0.99213 0.0
C2292 C 0.08723 0.86194 0.06319 0.0
C2293 C 0.04809 0.82442 0.01473 0.0
N2294 N 0.04513 0.83573 0.09984 0.0
N2295 N 0.08308 0.86159 0.97713 0.0
H2296 H 1.01326 0.7817 0.99662 0.0
H2297 H 0.04116 0.80461 0.96957 0.0
H2298 H 0.10322 0.8817 0.97105 0.0
H2299 H 0.06774 0.85148 0.95864 0.0
H2300 H 0.05697 0.85135 0.11766 0.0
H2301 H 1.02257 0.81947 0.10573 0.0
H2302 H 0.10412 0.86999 0.10974 0.0
H2303 H 0.13112 0.89307 0.08171 0.0
C2304 C 0.20828 0.22264 0.06342 0.0
C2305 C 0.22415 0.2194 0.03754 0.0
C2306 C 0.19688 0.23681 1.00227 0.0
C2307 C 0.17864 0.23638 0.02762 0.0
N2308 N 0.16595 0.22885 0.08207 0.0
N2309 N 0.23317 0.22329 0.98147 0.0
C2310 C 0.18417 0.22937 0.05816 0.0
C2311 C 0.2188 0.22704 1.0068 0.0
N2312 N 0.2173 0.22066 0.09308 0.0
N2313 N 0.193 0.24642 0.97359 0.0
H2314 H 0.25113 0.21876 0.98273 0.0
H2315 H 0.22639 0.22327 0.95849 0.0
H2316 H 0.17526 0.25078 0.96853 0.0
H2317 H 0.20834 0.25186 0.95513 0.0
H2318 H 0.20871 0.22544 0.11307 0.0
H2319 H 0.23557 0.21694 0.0977 0.0
H2320 H 0.16601 0.22051 0.10432 0.0
H2321 H 0.14955 0.23559 0.07911 0.0
C2322 C 0.98858 0.83504 0.51514 0.0
C2323 C 0.96439 0.8172 0.49403 0.0
C2324 C 0.99881 0.80482 0.46494 0.0
C2325 C 1.02386 0.82555 0.4841 0.0
N2326 N 0.04351 0.86664 0.52199 0.0
N2327 N 0.94794 0.79011 0.44528 0.0
C2328 C 1.01902 0.8426 0.50754 0.0
C2329 C 0.96998 0.8036 0.46779 0.0
N2330 N 0.9823 0.84341 0.54328 0.0
N2331 N 1.00177 0.785 0.44542 0.0
H2332 H 0.92693 0.78949 0.44659 0.0
H2333 H 0.9517 0.78232 0.42412 0.0
H2334 H 1.02194 0.78409 0.44333 0.0
H2335 H 0.98324 0.76736 0.43352 0.0
H2336 H 0.99883 0.85408 0.56069 0.0
H2337 H 0.95997 0.83646 0.55061 0.0
H2338 H 0.04113 0.88138 0.53734 0.0
H2339 H 0.06627 0.87401 0.5159 0.0
C2340 C 0.24517 0.17146 0.46817 0.0
C2341 C 0.22855 0.14974 0.49181 0.0
C2342 C 0.19963 0.17608 0.50274 0.0
C2343 C 0.21917 0.2002 0.48208 0.0
N2344 N 0.26346 0.22267 0.44784 0.0
N2345 N 0.19155 0.13182 0.53328 0.0
C2346 C 0.24255 0.19827 0.46519 0.0
C2347 C 0.20609 0.15212 0.50949 0.0
N2348 N 0.26315 0.16608 0.44827 0.0
N2349 N 0.17434 0.17563 0.51511 0.0
H2350 H 0.19551 0.11374 0.53816 0.0
H2351 H 0.17729 0.13406 0.54937 0.0
H2352 H 0.16845 0.1923 0.50987 0.0
H2353 H 0.15764 0.15735 0.52808 0.0
H2354 H 0.27363 0.17938 0.42855 0.0
H2355 H 0.26523 0.1465 0.44999 0.0
H2356 H 0.28305 0.22391 0.43815 0.0
H2357 H 0.26277 0.24288 0.44506 0.0
C2358 C 0.85906 0.03248 0.46855 0.0
C2359 C 0.83481 0.02198 0.49083 0.0
C2360 C 0.8675 0.06761 0.52251 0.0
C2361 C 0.88903 0.08057 0.49789 0.0
N2362 N 0.90089 0.07732 0.44391 0.0
N2363 N 0.81373 0.03679 0.53421 0.0
C2364 C 0.88366 0.06357 0.46983 0.0
C2365 C 0.83835 0.04149 0.51658 0.0
N2366 N 0.85953 1.01279 0.44695 0.0
N2367 N 0.87496 0.07976 0.55184 0.0
H2368 H 0.79111 0.02075 0.52858 0.0
H2369 H 0.81544 0.05199 0.55169 0.0
H2370 H 0.89689 0.09756 0.55761 0.0
H2371 H 0.86057 0.06955 0.57101 0.0
H2372 H 0.87806 0.01904 0.43194 0.0
H2373 H 0.84344 0.98939 0.44661 0.0
H2374 H 0.89605 0.06653 0.42219 0.0
H2375 H 0.91759 0.10053 0.44326 0.0
C2376 C 0.85982 0.35982 0.33241 0.0
C2377 C 0.87747 0.35023 0.31442 0.0
C2378 C 0.91652 0.40468 0.30571 0.0
C2379 C 0.89825 0.41399 0.32242 0.0
N2380 N 0.85123 0.40132 0.34854 0.0
N2381 N 0.9199 0.36377 0.27933 0.0
C2382 C 0.8695 0.39174 0.33478 0.0
C2383 C 0.90522 0.37279 0.29996 0.0
N2384 N 0.83457 0.33867 0.34858 0.0
N2385 N 0.94477 0.42658 0.29525 0.0
H2386 H 0.91172 0.34087 0.27356 0.0
H2387 H 0.93856 0.37888 0.26571 0.0
H2388 H 0.95264 0.44996 0.29762 0.0
H2389 H 0.96108 0.4218 0.28605 0.0
H2390 H 0.82337 0.34441 0.36539 0.0
H2391 H 0.82557 0.31512 0.34678 0.0
H2392 H 0.82832 0.38666 0.3545 0.0
H2393 H 0.85855 0.42447 0.35236 0.0
C2394 C 0.64692 0.51532 0.35106 0.0
C2395 C 0.62953 0.50028 0.32409 0.0
C2396 C 0.67557 0.5306 0.29161 0.0
C2397 C 0.69245 0.54684 0.31851 0.0
N2398 N 0.69089 0.56036 0.37248 0.0
N2399 N 0.62532 0.49898 0.26805 0.0
C2400 C 0.67706 0.54115 0.34776 0.0
C2401 C 0.64333 0.50948 0.29413 0.0
N2402 N 0.63544 0.5038 0.37997 0.0
N2403 N 0.69029 0.53534 0.2636 0.0
H2404 H 0.60159 0.48442 0.26918 0.0
H2405 H 0.6333 0.50703 0.24562 0.0
H2406 H 0.71326 0.55213 0.26032 0.0
H2407 H 0.68016 0.52159 0.24407 0.0
H2408 H 0.64838 0.51184 0.40039 0.0
H2409 H 0.61416 0.48404 0.38332 0.0
H2410 H 0.67946 0.55874 0.3933 0.0
H2411 H 0.71247 0.57998 0.37118 0.0
C2412 C 0.50754 0.1502 0.34082 0.0
C2413 C 0.5028 0.16119 0.31183 0.0
C2414 C 0.54055 0.15016 0.28752 0.0
C2415 C 0.54846 0.14389 0.31741 0.0
N2416 N 0.54415 0.14508 0.37329 0.0
N2417 N 0.51625 0.17329 0.25755 0.0
C2418 C 0.53317 0.14578 0.34427 0.0
C2419 C 0.51991 0.16184 0.28517 0.0
N2420 N 0.48753 0.14341 0.36509 0.0
N2421 N 0.55166 0.14358 0.26137 0.0
H2422 H 0.49991 0.18007 0.25439 0.0
H2423 H 0.53054 0.17759 0.23832 0.0
H2424 H 0.56572 0.13385 0.2624 0.0
H2425 H 0.54458 0.14489 0.23883 0.0
H2426 H 0.48864 0.13261 0.38546 0.0
H2427 H 0.46778 0.14506 0.36378 0.0
H2428 H 0.53576 0.14951 0.39368 0.0
H2429 H 0.56394 0.14365 0.37678 0.0
C2430 C 0.7156 0.52457 0.87081 0.0
C2431 C 0.70819 0.54744 0.88004 0.0
C2432 C 0.75924 0.58765 0.86228 0.0
C2433 C 0.7668 0.565 0.85397 0.0
N2434 N 0.75604 0.51308 0.85874 0.0
N2435 N 0.72754 0.60028 0.89451 0.0
C2436 C 0.74619 0.53383 0.86115 0.0
C2437 C 0.73157 0.57887 0.87899 0.0
N2438 N 0.69345 0.49426 0.86901 0.0
N2439 N 0.77747 0.61725 0.8526 0.0
H2440 H 0.70833 0.59419 0.90851 0.0
H2441 H 0.74472 0.62323 0.89649 0.0
H2442 H 0.79701 0.62406 0.83901 0.0
H2443 H 0.7715 0.63418 0.85543 0.0
H2444 H 0.69719 0.47774 0.85854 0.0
H2445 H 0.67065 0.48552 0.87543 0.0
H2446 H 0.74323 0.49046 0.86656 0.0
H2447 H 0.77842 0.51951 0.85194 0.0
C2448 C 0.47602 0.186 0.8306 0.0
C2449 C 0.48727 0.21326 0.84808 0.0
C2450 C 0.50517 0.19151 0.88886 0.0
C2451 C 0.49864 0.16625 0.86904 0.0
N2452 N 0.47952 0.14117 0.8186 0.0
N2453 N 0.5131 0.24322 0.89325 0.0
C2454 C 0.48398 0.16358 0.83948 0.0
C2455 C 0.50189 0.2163 0.87715 0.0
N2456 N 0.45774 0.18165 0.80522 0.0
N2457 N 0.51341 0.1912 0.91924 0.0
H2458 H 0.50986 0.26113 0.88562 0.0
H2459 H 0.52703 0.24848 0.91294 0.0
H2460 H 0.51454 0.17273 0.92893 0.0
H2461 H 0.51598 0.20758 0.93564 0.0
H2462 H 0.44541 0.1607 0.79368 0.0
H2463 H 0.45274 0.1983 0.79731 0.0
H2464 H 0.47329 0.1412 0.7954 0.0
H2465 H 0.48419 0.12367 0.82297 0.0
C2466 C 0.87123 0.29186 0.83879 0.0
C2467 C 0.84228 0.2773 0.85373 0.0
C2468 C 0.863 0.31605 0.89551 0.0
C2469 C 0.89098 0.33259 0.8786 0.0
N2470 N 0.92074 0.33773 0.83222 0.0
N2471 N 0.80919 0.27544 0.89492 0.0
C2472 C 0.89483 0.32087 0.84971 0.0
C2473 C 0.83784 0.28924 0.88192 0.0
N2474 N 0.87627 0.27735 0.81449 0.0
N2475 N 0.8605 0.32608 0.92441 0.0
H2476 H 0.79076 0.2556 0.88552 0.0
H2477 H 0.80317 0.2844 0.91375 0.0
H2478 H 0.87802 0.34619 0.93439 0.0
H2479 H 0.84193 0.31368 0.9393 0.0
H2480 H 0.89778 0.2849 0.80454 0.0
H2481 H 0.85935 0.25601 0.80613 0.0
H2482 H 0.92313 0.33225 0.80934 0.0
H2483 H 0.93923 0.3585 0.83954 0.0
C2484 C 0.48126 0.29771 0.39581 0.0
C2485 C 0.47976 0.28503 0.36579 0.0
C2486 C 0.49168 0.33413 0.34208 0.0
C2487 C 0.49847 0.34835 0.37206 0.0
N2488 N 0.50117 0.34359 0.42786 0.0
N2489 N 0.49044 0.29357 0.31076 0.0
C2490 C 0.49386 0.33011 0.39908 0.0
C2491 C 0.48677 0.30388 0.33901 0.0
N2492 N 0.46923 0.27858 0.42093 0.0
N2493 N 0.48919 0.34894 0.31646 0.0
H2494 H 0.48878 0.27222 0.30786 0.0
H2495 H 0.49858 0.30758 0.29103 0.0
H2496 H 0.49092 0.37037 0.31743 0.0
H2497 H 0.48161 0.33826 0.29483 0.0
H2498 H 0.46713 0.28604 0.44298 0.0
H2499 H 0.45833 0.25473 0.4189 0.0
H2500 H 0.50149 0.33211 0.44801 0.0
H2501 H 0.50861 0.36682 0.4313 0.0
C2502 C 0.741 0.19483 0.3411 0.0
C2503 C 0.75882 0.20553 0.36868 0.0
C2504 C 0.71273 0.17187 0.39971 0.0
C2505 C 0.69561 0.15945 0.37176 0.0
N2506 N 0.69771 0.15237 0.31593 0.0
N2507 N 0.7634 0.19853 0.42364 0.0
C2508 C 0.71102 0.16871 0.34247 0.0
C2509 C 0.74516 0.19248 0.39792 0.0
N2510 N 0.75207 0.2105 0.31372 0.0
N2511 N 0.69818 0.1637 0.42795 0.0
H2512 H 0.78729 0.21214 0.42266 0.0
H2513 H 0.75526 0.18755 0.44504 0.0
H2514 H 0.67501 0.14713 0.43032 0.0
H2515 H 0.70873 0.17455 0.44879 0.0
H2516 H 0.73877 0.20531 0.29352 0.0
H2517 H 0.77317 0.23083 0.31218 0.0
H2518 H 0.70934 0.15709 0.29469 0.0
H2519 H 0.67686 0.13184 0.31576 0.0
C2520 C 0.8602 0.57274 0.39083 0.0
C2521 C 0.83595 0.55866 0.36887 0.0
C2522 C 0.85181 0.52087 0.3562 0.0
C2523 C 0.87749 0.53607 0.37688 0.0
N2524 N 0.90696 0.57745 0.41292 0.0
N2525 N 0.81018 0.52211 0.32812 0.0
C2526 C 0.88195 0.56239 0.39383 0.0
C2527 C 0.83217 0.53342 0.35095 0.0
N2528 N 0.86172 0.59548 0.40948 0.0
N2529 N 0.84598 0.49433 0.34158 0.0
H2530 H 0.7953 0.53062 0.32427 0.0
H2531 H 0.80799 0.50603 0.31155 0.0
H2532 H 0.86032 0.48503 0.34308 0.0
H2533 H 0.82583 0.48022 0.32935 0.0
H2534 H 0.87665 0.60493 0.42832 0.0
H2535 H 0.84653 0.60383 0.40711 0.0
H2536 H 0.91388 0.59876 0.42292 0.0
H2537 H 0.92163 0.56901 0.41803 0.0
C2538 C 0.64056 0.13795 0.85244 0.0
C2539 C 0.62573 0.1426 0.82668 0.0
C2540 C 0.67317 0.16089 0.79641 0.0
C2541 C 0.68594 0.15101 0.82051 0.0
N2542 N 0.6738 0.11858 0.86671 0.0
N2543 N 0.62582 0.15036 0.771 0.0
C2544 C 0.66743 0.13623 0.84727 0.0
C2545 C 0.64137 0.15171 0.79765 0.0
N2546 N 0.62953 0.13575 0.882 0.0
N2547 N 0.69109 0.18005 0.77314 0.0
H2548 H 0.6021 0.14148 0.77055 0.0
H2549 H 0.63593 0.15448 0.74895 0.0
H2550 H 0.71486 0.18991 0.77253 0.0
H2551 H 0.68267 0.18931 0.75668 0.0
H2552 H 0.64108 0.13429 0.90163 0.0
H2553 H 0.61125 0.13931 0.88707 0.0
H2554 H 0.65948 0.10621 0.88528 0.0
H2555 H 0.69009 0.11226 0.86155 0.0
C2556 C 0.88098 0.52006 0.79997 0.0
C2557 C 0.8965 0.5462 0.8197 0.0
C2558 C 0.91663 0.51892 0.85045 0.0
C2559 C 0.90441 0.49447 0.82868 0.0
N2560 N 0.88125 0.47569 0.77825 0.0
N2561 N 0.93797 0.57341 0.85683 0.0
C2562 C 0.88842 0.49619 0.80205 0.0
C2563 C 0.91702 0.54654 0.84289 0.0
N2564 N 0.85818 0.51707 0.78037 0.0
N2565 N 0.92653 0.51542 0.87906 0.0
H2566 H 0.94124 0.59474 0.84999 0.0
H2567 H 0.95481 0.57482 0.87213 0.0
H2568 H 0.92415 0.49463 0.88662 0.0
H2569 H 0.93343 0.53199 0.89656 0.0
H2570 H 0.84434 0.49706 0.76779 0.0
H2571 H 0.85093 0.53314 0.77906 0.0
H2572 H 0.872 0.47754 0.75709 0.0
H2573 H 0.88769 0.45894 0.77838 0.0
C2574 C 0.52945 0.38019 0.79192 0.0
C2575 C 0.50525 0.3673 0.81453 0.0
C2576 C 0.53485 0.41243 0.84767 0.0
C2577 C 0.55757 0.42649 0.82427 0.0
N2578 N 0.57121 0.4273 0.77028 0.0
N2579 N 0.48072 0.37936 0.85653 0.0
C2580 C 0.55336 0.41143 0.7952 0.0
C2581 C 0.50664 0.3859 0.84019 0.0
N2582 N 0.53067 0.36303 0.7679 0.0
N2583 N 0.54044 0.4236 0.87744 0.0
H2584 H 0.45881 0.36241 0.84953 0.0
H2585 H 0.48064 0.39366 0.8741 0.0
H2586 H 0.56175 0.44158 0.88456 0.0
H2587 H 0.52508 0.4125 0.89572 0.0
H2588 H 0.5499 0.37073 0.75355 0.0
H2589 H 0.51391 0.34052 0.76331 0.0
H2590 H 0.5672 0.41833 0.74773 0.0
H2591 H 0.58765 0.45059 0.77144 0.0
C2592 C 0.5616 0.7095 0.62181 0.0
C2593 C 0.56137 0.6899 0.64591 0.0
C2594 C 0.5727 0.73045 0.6845 0.0
C2595 C 0.57389 0.75028 0.66043 0.0
N2596 N 0.57828 0.76189 0.60557 0.0
N2597 N 0.57744 0.68662 0.69872 0.0
C2598 C 0.57092 0.74072 0.62883 0.0
C2599 C 0.57048 0.70192 0.67674 0.0
N2600 N 0.55307 0.69836 0.59219 0.0
N2601 N 0.57187 0.73802 0.71497 0.0
H2602 H 0.57698 0.66607 0.69458 0.0
H2603 H 0.58703 0.69614 0.72033 0.0
H2604 H 0.57244 0.75824 0.72154 0.0
H2605 H 0.56747 0.72285 0.73345 0.0
H2606 H 0.54924 0.7103 0.57451 0.0
H2607 H 0.54852 0.67649 0.58566 0.0
H2608 H 0.5792 0.75714 0.58206 0.0
H2609 H 0.58669 0.78513 0.61016 0.0
C2610 C 0.34493 0.87358 0.67268 0.0
C2611 C 0.35956 0.87638 0.64331 0.0
C2612 C 0.31082 0.83372 0.62316 0.0
C2613 C 0.29812 0.82833 0.65363 0.0
N2614 N 0.30517 0.83939 0.70856 0.0
N2615 N 0.35629 0.85881 0.59031 0.0
C2616 C 0.31567 0.84738 0.67865 0.0
C2617 C 0.34242 0.85627 0.61846 0.0
N2618 N 0.3585 0.89581 0.69503 0.0
N2619 N 0.29224 0.81791 0.59861 0.0
H2620 H 0.37837 0.87667 0.5851 0.0
H2621 H 0.34642 0.84264 0.57253 0.0
H2622 H 0.26904 0.80164 0.60148 0.0
H2623 H 0.29896 0.82261 0.57533 0.0
H2624 H 0.3471 0.8962 0.71517 0.0
H2625 H 0.37972 0.9156 0.69246 0.0
H2626 H 0.31848 0.85034 0.72816 0.0
H2627 H 0.28438 0.81974 0.71397 0.0
C2628 C 0.16956 0.4675 0.62419 0.0
C2629 C 0.17381 0.49547 0.6371 0.0
C2630 C 0.22095 0.50338 0.66331 0.0
C2631 C 0.21776 0.47667 0.64889 0.0
N2632 N 0.19154 0.4351 0.6127 0.0
N2633 N 0.20719 0.54304 0.66435 0.0
C2634 C 0.19262 0.45912 0.62862 0.0
C2635 C 0.20067 0.51439 0.65514 0.0
N2636 N 0.1435 0.449 0.60751 0.0
N2637 N 0.24274 0.51748 0.68601 0.0
H2638 H 0.19319 0.55227 0.65955 0.0
H2639 H 0.22804 0.55898 0.67442 0.0
H2640 H 0.25743 0.50949 0.6929 0.0
H2641 H 0.24428 0.53503 0.70014 0.0
H2642 H 0.13689 0.42659 0.601 0.0
H2643 H 0.12772 0.4557 0.60103 0.0
H2644 H 0.17591 0.42322 0.59491 0.0
H2645 H 0.20774 0.42822 0.61603 0.0
C2646 C 0.37722 0.85091 0.19789 0.0
C2647 C 0.3713 0.87449 0.20822 0.0
C2648 C 0.42343 0.91327 0.19166 0.0
C2649 C 0.42978 0.88977 0.18316 0.0
N2650 N 0.41612 0.83689 0.18777 0.0
N2651 N 0.39327 0.92728 0.22457 0.0
C2652 C 0.40776 0.85881 0.18962 0.0
C2653 C 0.39592 0.90544 0.20824 0.0
N2654 N 0.35385 0.82144 0.19345 0.0
N2655 N 0.44252 0.94277 0.18219 0.0
H2656 H 0.37425 0.92188 0.23861 0.0
H2657 H 0.41139 0.94974 0.22716 0.0
H2658 H 0.46171 0.94896 0.16824 0.0
H2659 H 0.43739 0.96027 0.18535 0.0
H2660 H 0.35714 0.80472 0.18272 0.0
H2661 H 0.33077 0.81404 0.19721 0.0
H2662 H 0.40183 0.81423 0.1949 0.0
H2663 H 0.43856 0.84231 0.18244 0.0
C2664 C 0.13159 0.51361 0.1706 0.0
C2665 C 0.14379 0.54118 0.18763 0.0
C2666 C 0.16307 0.5195 0.22703 0.0
C2667 C 0.15678 0.49468 0.20658 0.0
N2668 N 0.1384 0.47161 0.15503 0.0
N2669 N 0.17213 0.5716 0.23166 0.0
C2670 C 0.14141 0.49223 0.17753 0.0
C2671 C 0.15958 0.54438 0.21595 0.0
N2672 N 0.11097 0.50823 0.14723 0.0
N2673 N 0.17146 0.51887 0.25727 0.0
H2674 H 0.16922 0.58976 0.22425 0.0
H2675 H 0.18686 0.5767 0.2507 0.0
H2676 H 0.17251 0.50026 0.26663 0.0
H2677 H 0.17396 0.5351 0.27385 0.0
H2678 H 0.09875 0.48715 0.13586 0.0
H2679 H 0.1037 0.52382 0.14167 0.0
H2680 H 0.13055 0.47182 0.13254 0.0
H2681 H 0.14668 0.45651 0.15677 0.0
C2682 C 0.50831 0.6692 0.19624 0.0
C2683 C 0.53724 0.6752 0.2089 0.0
C2684 C 0.52464 0.6229 0.19354 0.0
C2685 C 0.49548 0.61677 0.18256 0.0
N2686 N 0.45618 0.63045 0.18249 0.0
N2687 N 0.56767 0.65357 0.22793 0.0
C2688 C 0.48626 0.63877 0.18709 0.0
C2689 C 0.54373 0.65068 0.21018 0.0
N2690 N 0.50232 0.69243 0.19035 0.0
N2691 N 0.53484 0.60301 0.18677 0.0
H2692 H 0.581 0.67276 0.24186 0.0
H2693 H 0.57194 0.63557 0.23167 0.0
H2694 H 0.52177 0.58283 0.17414 0.0
H2695 H 0.55723 0.60789 0.19133 0.0
H2696 H 0.48309 0.68913 0.17782 0.0
H2697 H 0.51747 0.7155 0.19463 0.0
H2698 H 0.44724 0.64454 0.18836 0.0
H2699 H 0.4396 0.60817 0.17608 0.0
C2700 C 0.15023 0.65031 0.73808 0.0
C2701 C 0.15147 0.6698 0.71336 0.0
C2702 C 0.14717 0.63108 0.67549 0.0
C2703 C 0.14213 0.61031 0.70013 0.0
N2704 N 0.13219 0.59789 0.75474 0.0
N2705 N 0.14266 0.67441 0.65842 0.0
C2706 C 0.14182 0.6193 0.73145 0.0
C2707 C 0.14776 0.6591 0.68195 0.0
N2708 N 0.15805 0.66158 0.76774 0.0
N2709 N 0.15208 0.62435 0.64594 0.0
H2710 H 0.14024 0.69352 0.6622 0.0
H2711 H 0.13708 0.66593 0.63572 0.0
H2712 H 0.15244 0.6043 0.64059 0.0
H2713 H 0.15886 0.64003 0.62755 0.0
H2714 H 0.16023 0.64913 0.78606 0.0
H2715 H 0.16552 0.68444 0.77331 0.0
H2716 H 0.12864 0.60244 0.77762 0.0
H2717 H 0.1246 0.57477 0.75048 0.0
C2718 C 0.38535 0.49774 0.68125 0.0
C2719 C 0.3734 0.49087 0.71223 0.0
C2720 C 0.42272 0.533 0.73163 0.0
C2721 C 0.43308 0.54177 0.70048 0.0
N2722 N 0.42092 0.53697 0.64571 0.0
N2723 N 0.37884 0.5067 0.76617 0.0
C2724 C 0.41329 0.52552 0.67532 0.0
C2725 C 0.39155 0.50993 0.73724 0.0
N2726 N 0.37141 0.47693 0.65774 0.0
N2727 N 0.44299 0.54556 0.75582 0.0
H2728 H 0.35582 0.49094 0.77089 0.0
H2729 H 0.39021 0.52182 0.7845 0.0
H2730 H 0.46619 0.56151 0.75247 0.0
H2731 H 0.43747 0.53785 0.77878 0.0
H2732 H 0.38094 0.47982 0.63552 0.0
H2733 H 0.35245 0.45517 0.66123 0.0
H2734 H 0.40597 0.52755 0.6268 0.0
H2735 H 0.44076 0.55777 0.64075 0.0
C2736 C 0.51806 0.85524 0.69829 0.0
C2737 C 0.54582 0.87499 0.71465 0.0
C2738 C 0.52995 0.91413 0.71773 0.0
C2739 C 0.5043 0.8957 0.69842 0.0
N2740 N 0.47638 0.85131 0.6661 0.0
N2741 N 0.57824 0.92337 0.74027 0.0
C2742 C 0.49909 0.86697 0.68757 0.0
C2743 C 0.55184 0.9046 0.72428 0.0
N2744 N 0.50917 0.82506 0.69355 0.0
N2745 N 0.53248 0.93998 0.73098 0.0
H2746 H 0.59244 0.91561 0.74915 0.0
H2747 H 0.58631 0.9466 0.74424 0.0
H2748 H 0.51671 0.94729 0.72666 0.0
H2749 H 0.5488 0.95304 0.74781 0.0
H2750 H 0.48774 0.80907 0.68462 0.0
H2751 H 0.52159 0.81493 0.70141 0.0
H2752 H 0.47335 0.83183 0.65444 0.0
H2753 H 0.46239 0.8596 0.65768 0.0
C2754 C 0.30082 0.46593 0.181 0.0
C2755 C 0.28572 0.47261 0.15693 0.0
C2756 C 0.33313 0.494 0.12567 0.0
C2757 C 0.34674 0.48355 0.14824 0.0
N2758 N 0.33625 0.44818 0.19144 0.0
N2759 N 0.28698 0.48778 0.10277 0.0
C2760 C 0.32852 0.4662 0.17423 0.0
C2761 C 0.30149 0.48487 0.12828 0.0
N2762 N 0.2896 0.46052 0.21076 0.0
N2763 N 0.34991 0.5129 0.1017 0.0
H2764 H 0.26341 0.47975 0.10173 0.0
H2765 H 0.26341 0.47975 0.10173 0.0
H2766 H 0.37369 0.52315 0.10002 0.0
H2767 H 0.34007 0.52041 0.08489 0.0
H2768 H 0.30138 0.45783 0.22943 0.0
H2769 H 0.2708 0.46268 0.21742 0.0
H2770 H 0.32222 0.4337 0.20917 0.0
H2771 H 0.3538 0.44402 0.18504 0.0
C2772 C 0.58264 0.83965 0.12941 0.0
C2773 C 0.56384 0.81558 0.15018 0.0
C2774 C 0.53368 0.84071 0.1611 0.0
C2775 C 0.55491 0.86674 0.14346 0.0
N2776 N 0.60181 0.89238 0.11327 0.0
N2777 N 0.52346 0.79408 0.18833 0.0
C2778 C 0.57981 0.86647 0.12789 0.0
C2779 C 0.53971 0.81624 0.16654 0.0
N2780 N 0.60309 0.83657 0.11097 0.0
N2781 N 0.5073 0.83903 0.17196 0.0
H2782 H 0.52729 0.77584 0.19261 0.0
H2783 H 0.50786 0.79496 0.20367 0.0
H2784 H 0.50184 0.85621 0.16788 0.0
H2785 H 0.48951 0.81948 0.18239 0.0
H2786 H 0.61551 0.85174 0.09303 0.0
H2787 H 0.6056 0.8172 0.11195 0.0
H2788 H 0.6223 0.89479 0.10474 0.0
H2789 H 0.60079 0.9125 0.11163 0.0
C2790 C 0.19994 0.7024 0.17289 0.0
C2791 C 0.17526 0.69693 0.15259 0.0
C2792 C 0.20391 0.75081 0.13545 0.0
C2793 C 0.22661 0.7569 0.15829 0.0
N2794 N 0.24553 0.73999 0.20086 0.0
N2795 N 0.15169 0.71721 0.11787 0.0
C2796 C 0.22443 0.73305 0.17759 0.0
C2797 C 0.17676 0.72142 0.13452 0.0
N2798 N 0.20059 0.67819 0.18671 0.0
N2799 N 0.20866 0.77316 0.11437 0.0
H2800 H 0.13113 0.69634 0.11699 0.0
H2801 H 0.15028 0.73506 0.10713 0.0
H2802 H 0.22846 0.79479 0.11463 0.0
H2803 H 0.19451 0.76946 0.09513 0.0
H2804 H 0.21931 0.6804 0.19935 0.0
H2805 H 0.18356 0.65538 0.18314 0.0
H2806 H 0.24354 0.72443 0.21805 0.0
H2807 H 0.26407 0.76216 0.20417 0.0
loop_
_geom_bond_atom_site_label_1
_geom_bond_atom_site_label_2
_geom_bond_distance
_geom_bond_site_symmetry_2
_ccdc_geom_bond_type
Co0 N4 2.148 . S
Co0 N10 2.128 . S
Co0 N20 2.194 . S
Co0 O25 2.347 1_554 S
Co0 O26 2.155 1_554 S
Co0 O27 2.096 . S
C1 N4 1.301 . S
C1 N5 1.328 1_554 S
C1 H6 0.930 . S
C2 C3 1.333 1_554 S
C2 N4 1.317 . S
C2 H7 0.930 . S
C3 C2 1.333 1_556 S
C3 N5 1.350 . S
C3 H29 0.931 . S
N4 Co0 2.148 . S
N4 C1 1.301 . S
N4 C2 1.317 . S
N5 C1 1.328 1_556 S
N5 C3 1.350 . S
H6 C1 0.930 . S
H7 C2 0.930 . S
C8 O9 1.224 . S
C8 O27 1.247 . S
O9 C8 1.224 . S
N10 Co0 2.128 . S
N10 C11 1.355 . S
N10 C13 1.311 . S
C11 N10 1.355 . S
C11 C12 1.363 . S
C11 H23 0.929 . S
C12 C11 1.363 . S
C12 N14 1.375 . S
C12 H30 0.931 . S
C13 N10 1.311 . S
C13 N14 1.347 . S
C13 H24 0.929 . S
N14 C12 1.375 . S
N14 C13 1.347 . S
C15 C18 1.365 . S
C15 N20 1.328 . S
C15 H21 0.929 . S
C16 C17 1.362 . S
C16 C19 1.378 . S
C16 H31 0.929 . S
C17 C16 1.362 . S
C17 C18 1.366 . S
C18 C15 1.365 . S
C18 C17 1.366 . S
C18 H32 0.930 . S
C19 C16 1.378 . S
C19 N20 1.315 . S
C19 H22 0.930 . S
N20 Co0 2.194 . S
N20 C15 1.328 . S
N20 C19 1.315 . S
H21 C15 0.929 . S
H22 C19 0.930 . S
H23 C11 0.929 . S
H24 C13 0.929 . S
O25 Co0 2.347 1_556 S
O25 C28 1.254 . S
O26 Co0 2.155 1_556 S
O26 C28 1.240 . S
O27 Co0 2.096 . S
O27 C8 1.247 . S
C28 O25 1.254 . S
C28 O26 1.240 . S
H29 C3 0.931 . S
H30 C12 0.931 . S
H31 C16 0.929 . S
H32 C18 0.930 . S
Co33 N37 2.148 . S
Co33 N43 2.128 . S
Co33 N53 2.194 . S
Co33 O58 2.347 1_554 S
Co33 O59 2.155 1_554 S
Co33 O60 2.096 . S
C34 N37 1.301 . S
C34 N38 1.328 1_554 S
C34 H39 0.930 . S
C35 C36 1.333 1_554 S
C35 N37 1.317 . S
C35 H40 0.930 . S
C36 C35 1.333 1_556 S
C36 N38 1.350 . S
C36 H62 0.931 . S
N37 Co33 2.148 . S
N37 C34 1.301 . S
N37 C35 1.317 . S
N38 C34 1.328 1_556 S
N38 C36 1.350 . S
H39 C34 0.930 . S
H40 C35 0.930 . S
C41 O42 1.224 . S
C41 O60 1.247 . S
O42 C41 1.224 . S
N43 Co33 2.128 . S
N43 C44 1.355 . S
N43 C46 1.311 . S
C44 N43 1.355 . S
C44 C45 1.363 . S
C44 H56 0.929 . S
C45 C44 1.363 . S
C45 N47 1.375 . S
C45 H63 0.931 . S
C46 N43 1.311 . S
C46 N47 1.347 . S
C46 H57 0.929 . S
N47 C45 1.375 . S
N47 C46 1.347 . S
C48 C51 1.365 . S
C48 N53 1.328 . S
C48 H54 0.929 . S
C49 C50 1.362 . S
C49 C52 1.378 . S
C49 H64 0.929 . S
C50 C49 1.362 . S
C50 C51 1.366 . S
C51 C48 1.365 . S
C51 C50 1.366 . S
C51 H65 0.930 . S
C52 C49 1.378 . S
C52 N53 1.315 . S
C52 H55 0.930 . S
N53 Co33 2.194 . S
N53 C48 1.328 . S
N53 C52 1.315 . S
H54 C48 0.929 . S
H55 C52 0.930 . S
H56 C44 0.929 . S
H57 C46 0.929 . S
O58 Co33 2.347 1_556 S
O58 C61 1.254 . S
O59 Co33 2.155 1_556 S
O59 C61 1.240 . S
O60 Co33 2.096 . S
O60 C41 1.247 . S
C61 O58 1.254 . S
C61 O59 1.240 . S
H62 C36 0.931 . S
H63 C45 0.931 . S
H64 C49 0.929 . S
H65 C51 0.930 . S
Co66 N70 2.148 . S
Co66 N76 2.128 . S
Co66 N86 2.194 . S
Co66 O91 2.347 1_554 S
Co66 O92 2.155 1_554 S
Co66 O93 2.096 . S
C67 N70 1.301 . S
C67 N71 1.328 1_554 S
C67 H72 0.930 . S
C68 C69 1.333 1_554 S
C68 N70 1.317 . S
C68 H73 0.930 . S
C69 C68 1.333 1_556 S
C69 N71 1.350 . S
C69 H95 0.931 . S
N70 Co66 2.148 . S
N70 C67 1.301 . S
N70 C68 1.317 . S
N71 C67 1.328 1_556 S
N71 C69 1.350 . S
H72 C67 0.930 . S
H73 C68 0.930 . S
C74 O75 1.224 . S
C74 O93 1.247 . S
O75 C74 1.224 . S
N76 Co66 2.128 . S
N76 C77 1.355 . S
N76 C79 1.311 . S
C77 N76 1.355 . S
C77 C78 1.363 . S
C77 H89 0.929 . S
C78 C77 1.363 . S
C78 N80 1.375 . S
C78 H96 0.931 . S
C79 N76 1.311 . S
C79 N80 1.347 . S
C79 H90 0.929 . S
N80 C78 1.375 . S
N80 C79 1.347 . S
C81 C84 1.365 . S
C81 N86 1.328 . S
C81 H87 0.929 . S
C82 C83 1.362 . S
C82 C85 1.378 . S
C82 H97 0.929 . S
C83 C82 1.362 . S
C83 C84 1.366 . S
C84 C81 1.365 . S
C84 C83 1.366 . S
C84 H98 0.930 . S
C85 C82 1.378 . S
C85 N86 1.315 . S
C85 H88 0.930 . S
N86 Co66 2.194 . S
N86 C81 1.328 . S
N86 C85 1.315 . S
H87 C81 0.929 . S
H88 C85 0.930 . S
H89 C77 0.929 . S
H90 C79 0.929 . S
O91 Co66 2.347 1_556 S
O91 C94 1.254 . S
O92 Co66 2.155 1_556 S
O92 C94 1.240 . S
O93 Co66 2.096 . S
O93 C74 1.247 . S
C94 O91 1.254 . S
C94 O92 1.240 . S
H95 C69 0.931 . S
H96 C78 0.931 . S
H97 C82 0.929 . S
H98 C84 0.930 . S
Co99 N103 2.148 . S
Co99 N109 2.128 . S
Co99 N119 2.194 . S
Co99 O124 2.351 . S
Co99 O125 2.155 . S
Co99 O126 2.096 . S
C100 N103 1.301 . S
C100 N104 1.328 . S
C100 H105 0.930 . S
C101 C102 1.333 . S
C101 N103 1.317 . S
C101 H106 0.930 . S
C102 C101 1.333 . S
C102 N104 1.350 . S
C102 H128 0.931 . S
N103 Co99 2.148 . S
N103 C100 1.301 . S
N103 C101 1.317 . S
N104 C100 1.328 . S
N104 C102 1.350 . S
H105 C100 0.930 . S
H106 C101 0.930 . S
C107 O108 1.224 . S
C107 O126 1.247 . S
O108 C107 1.224 . S
N109 Co99 2.128 . S
N109 C110 1.355 . S
N109 C112 1.311 . S
C110 N109 1.355 . S
C110 C111 1.363 . S
C110 H122 0.929 . S
C111 C110 1.363 . S
C111 N113 1.375 . S
C111 H129 0.931 . S
C112 N109 1.311 . S
C112 N113 1.347 . S
C112 H123 0.929 . S
N113 C111 1.375 . S
N113 C112 1.347 . S
C114 C117 1.365 . S
C114 N119 1.328 . S
C114 H120 0.929 . S
C115 C116 1.362 . S
C115 C118 1.378 . S
C115 H130 0.929 . S
C116 C115 1.362 . S
C116 C117 1.366 . S
C117 C114 1.365 . S
C117 C116 1.366 . S
C117 H131 0.930 . S
C118 C115 1.378 . S
C118 N119 1.315 . S
C118 H121 0.930 . S
N119 Co99 2.194 . S
N119 C114 1.328 . S
N119 C118 1.315 . S
H120 C114 0.929 . S
H121 C118 0.930 . S
H122 C110 0.929 . S
H123 C112 0.929 . S
O124 Co99 2.351 . S
O124 C127 1.244 . S
O125 Co99 2.155 . S
O125 C127 1.240 . S
O126 Co99 2.096 . S
O126 C107 1.247 . S
C127 O124 1.244 . S
C127 O125 1.240 . S
H128 C102 0.931 . S
H129 C111 0.931 . S
H130 C115 0.929 . S
H131 C117 0.930 . S
Co132 N136 2.148 . S
Co132 N142 2.128 . S
Co132 N152 2.194 . S
Co132 O157 2.351 . S
Co132 O158 2.155 . S
Co132 O159 2.096 . S
C133 N136 1.301 . S
C133 N137 1.328 . S
C133 H138 0.930 . S
C134 C135 1.333 . S
C134 N136 1.317 . S
C134 H139 0.930 . S
C135 C134 1.333 . S
C135 N137 1.350 . S
C135 H161 0.931 . S
N136 Co132 2.148 . S
N136 C133 1.301 . S
N136 C134 1.317 . S
N137 C133 1.328 . S
N137 C135 1.350 . S
H138 C133 0.930 . S
H139 C134 0.930 . S
C140 O141 1.224 . S
C140 O159 1.247 . S
O141 C140 1.224 . S
N142 Co132 2.128 . S
N142 C143 1.355 . S
N142 C145 1.311 . S
C143 N142 1.355 . S
C143 C144 1.363 . S
C143 H155 0.929 . S
C144 C143 1.363 . S
C144 N146 1.375 . S
C144 H162 0.931 . S
C145 N142 1.311 . S
C145 N146 1.347 . S
C145 H156 0.929 . S
N146 C144 1.375 . S
N146 C145 1.347 . S
C147 C150 1.365 . S
C147 N152 1.328 . S
C147 H153 0.929 . S
C148 C149 1.362 . S
C148 C151 1.378 . S
C148 H163 0.929 . S
C149 C148 1.362 . S
C149 C150 1.366 . S
C150 C147 1.365 . S
C150 C149 1.366 . S
C150 H164 0.930 . S
C151 C148 1.378 . S
C151 N152 1.315 . S
C151 H154 0.930 . S
N152 Co132 2.194 . S
N152 C147 1.328 . S
N152 C151 1.315 . S
H153 C147 0.929 . S
H154 C151 0.930 . S
H155 C143 0.929 . S
H156 C145 0.929 . S
O157 Co132 2.351 . S
O157 C160 1.244 . S
O158 Co132 2.155 . S
O158 C160 1.240 . S
O159 Co132 2.096 . S
O159 C140 1.247 . S
C160 O157 1.244 . S
C160 O158 1.240 . S
H161 C135 0.931 . S
H162 C144 0.931 . S
H163 C148 0.929 . S
H164 C150 0.930 . S
Co165 N169 2.148 . S
Co165 N175 2.128 . S
Co165 N185 2.194 . S
Co165 O190 2.351 . S
Co165 O191 2.155 . S
Co165 O192 2.096 . S
C166 N169 1.301 . S
C166 N170 1.328 . S
C166 H171 0.930 . S
C167 C168 1.333 . S
C167 N169 1.317 . S
C167 H172 0.930 . S
C168 C167 1.333 . S
C168 N170 1.350 . S
C168 H194 0.931 . S
N169 Co165 2.148 . S
N169 C166 1.301 . S
N169 C167 1.317 . S
N170 C166 1.328 . S
N170 C168 1.350 . S
H171 C166 0.930 . S
H172 C167 0.930 . S
C173 O174 1.224 . S
C173 O192 1.247 . S
O174 C173 1.224 . S
N175 Co165 2.128 . S
N175 C176 1.355 . S
N175 C178 1.311 . S
C176 N175 1.355 . S
C176 C177 1.363 . S
C176 H188 0.929 . S
C177 C176 1.363 . S
C177 N179 1.375 . S
C177 H195 0.931 . S
C178 N175 1.311 . S
C178 N179 1.347 . S
C178 H189 0.929 . S
N179 C177 1.375 . S
N179 C178 1.347 . S
C180 C183 1.365 . S
C180 N185 1.328 . S
C180 H186 0.929 . S
C181 C182 1.362 . S
C181 C184 1.378 . S
C181 H196 0.929 . S
C182 C181 1.362 . S
C182 C183 1.366 . S
C183 C180 1.365 . S
C183 C182 1.366 . S
C183 H197 0.930 . S
C184 C181 1.378 . S
C184 N185 1.315 . S
C184 H187 0.930 . S
N185 Co165 2.194 . S
N185 C180 1.328 . S
N185 C184 1.315 . S
H186 C180 0.929 . S
H187 C184 0.930 . S
H188 C176 0.929 . S
H189 C178 0.929 . S
O190 Co165 2.351 . S
O190 C193 1.244 . S
O191 Co165 2.155 . S
O191 C193 1.240 . S
O192 Co165 2.096 . S
O192 C173 1.247 . S
C193 O190 1.244 . S
C193 O191 1.240 . S
H194 C168 0.931 . S
H195 C177 0.931 . S
H196 C181 0.929 . S
H197 C183 0.930 . S
Co198 N202 2.148 . S
Co198 N208 2.128 . S
Co198 N218 2.194 . S
Co198 O223 2.351 . S
Co198 O224 2.155 1_556 S
Co198 O225 2.096 . S
C199 N202 1.301 . S
C199 N203 1.322 1_556 S
C199 H204 0.930 . S
C200 C201 1.325 1_556 S
C200 N202 1.317 . S
C200 H205 0.930 . S
C201 C200 1.325 1_554 S
C201 N203 1.350 . S
C201 H227 0.939 . S
N202 Co198 2.148 . S
N202 C199 1.301 . S
N202 C200 1.317 . S
N203 C199 1.322 1_554 S
N203 C201 1.350 . S
H204 C199 0.930 . S
H205 C200 0.930 . S
C206 O207 1.224 . S
C206 O225 1.247 . S
O207 C206 1.224 . S
N208 Co198 2.128 . S
N208 C209 1.355 . S
N208 C211 1.311 . S
C209 N208 1.355 . S
C209 C210 1.363 . S
C209 H221 0.929 . S
C210 C209 1.363 . S
C210 N212 1.375 . S
C210 H228 0.931 . S
C211 N208 1.311 . S
C211 N212 1.347 . S
C211 H222 0.929 . S
N212 C210 1.375 . S
N212 C211 1.347 . S
C213 C216 1.365 . S
C213 N218 1.328 . S
C213 H219 0.929 . S
C214 C215 1.362 . S
C214 C217 1.378 . S
C214 H229 0.929 . S
C215 C214 1.362 . S
C215 C216 1.366 . S
C216 C213 1.365 . S
C216 C215 1.366 . S
C216 H230 0.930 . S
C217 C214 1.378 . S
C217 N218 1.315 . S
C217 H220 0.930 . S
N218 Co198 2.194 . S
N218 C213 1.328 . S
N218 C217 1.315 . S
H219 C213 0.929 . S
H220 C217 0.930 . S
H221 C209 0.929 . S
H222 C211 0.929 . S
O223 Co198 2.351 . S
O223 C226 1.244 1_556 S
O224 Co198 2.155 1_554 S
O224 C226 1.240 . S
O225 Co198 2.096 . S
O225 C206 1.247 . S
C226 O223 1.244 1_554 S
C226 O224 1.240 . S
H227 C201 0.939 . S
H228 C210 0.931 . S
H229 C214 0.929 . S
H230 C216 0.930 . S
Co231 N235 2.148 . S
Co231 N241 2.128 . S
Co231 N251 2.194 . S
Co231 O256 2.351 . S
Co231 O257 2.155 1_556 S
Co231 O258 2.096 . S
C232 N235 1.301 . S
C232 N236 1.322 1_556 S
C232 H237 0.930 . S
C233 C234 1.326 1_556 S
C233 N235 1.317 . S
C233 H238 0.930 . S
C234 C233 1.326 1_554 S
C234 N236 1.350 . S
C234 H260 0.939 . S
N235 Co231 2.148 . S
N235 C232 1.301 . S
N235 C233 1.317 . S
N236 C232 1.322 1_554 S
N236 C234 1.350 . S
H237 C232 0.930 . S
H238 C233 0.930 . S
C239 O240 1.224 . S
C239 O258 1.247 . S
O240 C239 1.224 . S
N241 Co231 2.128 . S
N241 C242 1.355 . S
N241 C244 1.311 . S
C242 N241 1.355 . S
C242 C243 1.363 . S
C242 H254 0.929 . S
C243 C242 1.363 . S
C243 N245 1.375 . S
C243 H261 0.931 . S
C244 N241 1.311 . S
C244 N245 1.347 . S
C244 H255 0.929 . S
N245 C243 1.375 . S
N245 C244 1.347 . S
C246 C249 1.365 . S
C246 N251 1.328 . S
C246 H252 0.929 . S
C247 C248 1.362 . S
C247 C250 1.378 . S
C247 H262 0.929 . S
C248 C247 1.362 . S
C248 C249 1.366 . S
C249 C246 1.365 . S
C249 C248 1.366 . S
C249 H263 0.930 . S
C250 C247 1.378 . S
C250 N251 1.315 . S
C250 H253 0.930 . S
N251 Co231 2.194 . S
N251 C246 1.328 . S
N251 C250 1.315 . S
H252 C246 0.929 . S
H253 C250 0.930 . S
H254 C242 0.929 . S
H255 C244 0.929 . S
O256 Co231 2.351 . S
O256 C259 1.244 1_556 S
O257 Co231 2.155 1_554 S
O257 C259 1.240 . S
O258 Co231 2.096 . S
O258 C239 1.247 . S
C259 O256 1.244 1_554 S
C259 O257 1.240 . S
H260 C234 0.939 . S
H261 C243 0.931 . S
H262 C247 0.929 . S
H263 C249 0.930 . S
Co264 N268 2.148 . S
Co264 N274 2.128 . S
Co264 N284 2.194 . S
Co264 O289 2.351 . S
Co264 O290 2.155 1_556 S
Co264 O291 2.096 . S
C265 N268 1.301 . S
C265 N269 1.322 1_556 S
C265 H270 0.930 . S
C266 C267 1.325 1_556 S
C266 N268 1.317 . S
C266 H271 0.930 . S
C267 C266 1.325 1_554 S
C267 N269 1.350 . S
C267 H293 0.939 . S
N268 Co264 2.148 . S
N268 C265 1.301 . S
N268 C266 1.317 . S
N269 C265 1.322 1_554 S
N269 C267 1.350 . S
H270 C265 0.930 . S
H271 C266 0.930 . S
C272 O273 1.224 . S
C272 O291 1.247 . S
O273 C272 1.224 . S
N274 Co264 2.128 . S
N274 C275 1.355 . S
N274 C277 1.311 . S
C275 N274 1.355 . S
C275 C276 1.363 . S
C275 H287 0.929 . S
C276 C275 1.363 . S
C276 N278 1.375 . S
C276 H294 0.931 . S
C277 N274 1.311 . S
C277 N278 1.347 . S
C277 H288 0.929 . S
N278 C276 1.375 . S
N278 C277 1.347 . S
C279 C282 1.365 . S
C279 N284 1.328 . S
C279 H285 0.929 . S
C280 C281 1.362 . S
C280 C283 1.378 . S
C280 H295 0.929 . S
C281 C280 1.362 . S
C281 C282 1.366 . S
C282 C279 1.365 . S
C282 C281 1.366 . S
C282 H296 0.930 . S
C283 C280 1.378 . S
C283 N284 1.315 . S
C283 H286 0.930 . S
N284 Co264 2.194 . S
N284 C279 1.328 . S
N284 C283 1.315 . S
H285 C279 0.929 . S
H286 C283 0.930 . S
H287 C275 0.929 . S
H288 C277 0.929 . S
O289 Co264 2.351 . S
O289 C292 1.244 1_556 S
O290 Co264 2.155 1_554 S
O290 C292 1.240 . S
O291 Co264 2.096 . S
O291 C272 1.247 . S
C292 O289 1.244 1_554 S
C292 O290 1.240 . S
H293 C267 0.939 . S
H294 C276 0.931 . S
H295 C280 0.929 . S
H296 C282 0.930 . S
Co297 N301 2.148 . S
Co297 N307 2.128 . S
Co297 N317 2.194 . S
Co297 O322 2.351 . S
Co297 O323 2.155 . S
Co297 O324 2.096 . S
C298 N301 1.301 . S
C298 N302 1.328 . S
C298 H303 0.930 . S
C299 C300 1.333 . S
C299 N301 1.317 . S
C299 H304 0.930 . S
C300 C299 1.333 . S
C300 N302 1.350 . S
C300 H326 0.931 . S
N301 Co297 2.148 . S
N301 C298 1.301 . S
N301 C299 1.317 . S
N302 C298 1.328 . S
N302 C300 1.350 . S
H303 C298 0.930 . S
H304 C299 0.930 . S
C305 O306 1.224 . S
C305 O324 1.247 . S
O306 C305 1.224 . S
N307 Co297 2.128 . S
N307 C308 1.355 . S
N307 C310 1.311 . S
C308 N307 1.355 . S
C308 C309 1.363 . S
C308 H320 0.929 . S
C309 C308 1.363 . S
C309 N311 1.375 . S
C309 H327 0.931 . S
C310 N307 1.311 . S
C310 N311 1.347 . S
C310 H321 0.929 . S
N311 C309 1.375 . S
N311 C310 1.347 . S
C312 C315 1.365 . S
C312 N317 1.328 . S
C312 H318 0.929 . S
C313 C314 1.362 . S
C313 C316 1.378 . S
C313 H328 0.929 . S
C314 C313 1.362 . S
C314 C315 1.366 . S
C315 C312 1.365 . S
C315 C314 1.366 . S
C315 H329 0.930 . S
C316 C313 1.378 . S
C316 N317 1.315 . S
C316 H319 0.930 . S
N317 Co297 2.194 . S
N317 C312 1.328 . S
N317 C316 1.315 . S
H318 C312 0.929 . S
H319 C316 0.930 . S
H320 C308 0.929 . S
H321 C310 0.929 . S
O322 Co297 2.351 . S
O322 C325 1.244 . S
O323 Co297 2.155 . S
O323 C325 1.240 . S
O324 Co297 2.096 . S
O324 C305 1.247 . S
C325 O322 1.244 . S
C325 O323 1.240 . S
H326 C300 0.931 . S
H327 C309 0.931 . S
H328 C313 0.929 . S
H329 C315 0.930 . S
Co330 N334 2.148 . S
Co330 N340 2.128 . S
Co330 N350 2.194 . S
Co330 O355 2.351 . S
Co330 O356 2.155 . S
Co330 O357 2.096 . S
C331 N334 1.301 . S
C331 N335 1.328 . S
C331 H336 0.930 . S
C332 C333 1.333 . S
C332 N334 1.317 . S
C332 H337 0.930 . S
C333 C332 1.333 . S
C333 N335 1.350 . S
C333 H359 0.931 . S
N334 Co330 2.148 . S
N334 C331 1.301 . S
N334 C332 1.317 . S
N335 C331 1.328 . S
N335 C333 1.350 . S
H336 C331 0.930 . S
H337 C332 0.930 . S
C338 O339 1.224 . S
C338 O357 1.247 . S
O339 C338 1.224 . S
N340 Co330 2.128 . S
N340 C341 1.355 . S
N340 C343 1.311 . S
C341 N340 1.355 . S
C341 C342 1.363 . S
C341 H353 0.929 . S
C342 C341 1.363 . S
C342 N344 1.375 . S
C342 H360 0.931 . S
C343 N340 1.311 . S
C343 N344 1.347 . S
C343 H354 0.929 . S
N344 C342 1.375 . S
N344 C343 1.347 . S
C345 C348 1.365 . S
C345 N350 1.328 . S
C345 H351 0.929 . S
C346 C347 1.362 . S
C346 C349 1.378 . S
C346 H361 0.929 . S
C347 C346 1.362 . S
C347 C348 1.366 . S
C348 C345 1.365 . S
C348 C347 1.366 . S
C348 H362 0.930 . S
C349 C346 1.378 . S
C349 N350 1.315 . S
C349 H352 0.930 . S
N350 Co330 2.194 . S
N350 C345 1.328 . S
N350 C349 1.315 . S
H351 C345 0.929 . S
H352 C349 0.930 . S
H353 C341 0.929 . S
H354 C343 0.929 . S
O355 Co330 2.351 . S
O355 C358 1.244 . S
O356 Co330 2.155 . S
O356 C358 1.240 . S
O357 Co330 2.096 . S
O357 C338 1.247 . S
C358 O355 1.244 . S
C358 O356 1.240 . S
H359 C333 0.931 . S
H360 C342 0.931 . S
H361 C346 0.929 . S
H362 C348 0.930 . S
Co363 N367 2.148 . S
Co363 N373 2.128 . S
Co363 N383 2.194 . S
Co363 O388 2.351 . S
Co363 O389 2.155 . S
Co363 O390 2.096 . S
C364 N367 1.301 . S
C364 N368 1.328 . S
C364 H369 0.930 . S
C365 C366 1.333 . S
C365 N367 1.317 . S
C365 H370 0.930 . S
C366 C365 1.333 . S
C366 N368 1.350 . S
C366 H392 0.931 . S
N367 Co363 2.148 . S
N367 C364 1.301 . S
N367 C365 1.317 . S
N368 C364 1.328 . S
N368 C366 1.350 . S
H369 C364 0.930 . S
H370 C365 0.930 . S
C371 O372 1.224 . S
C371 O390 1.247 . S
O372 C371 1.224 . S
N373 Co363 2.128 . S
N373 C374 1.355 . S
N373 C376 1.311 . S
C374 N373 1.355 . S
C374 C375 1.363 . S
C374 H386 0.929 . S
C375 C374 1.363 . S
C375 N377 1.375 . S
C375 H393 0.931 . S
C376 N373 1.311 . S
C376 N377 1.347 . S
C376 H387 0.929 . S
N377 C375 1.375 . S
N377 C376 1.347 . S
C378 C381 1.365 . S
C378 N383 1.328 . S
C378 H384 0.929 . S
C379 C380 1.362 . S
C379 C382 1.378 . S
C379 H394 0.929 . S
C380 C379 1.362 . S
C380 C381 1.366 . S
C381 C378 1.365 . S
C381 C380 1.366 . S
C381 H395 0.930 . S
C382 C379 1.378 . S
C382 N383 1.315 . S
C382 H385 0.930 . S
N383 Co363 2.194 . S
N383 C378 1.328 . S
N383 C382 1.315 . S
H384 C378 0.929 . S
H385 C382 0.930 . S
H386 C374 0.929 . S
H387 C376 0.929 . S
O388 Co363 2.351 . S
O388 C391 1.244 . S
O389 Co363 2.155 . S
O389 C391 1.240 . S
O390 Co363 2.096 . S
O390 C371 1.247 . S
C391 O388 1.244 . S
C391 O389 1.240 . S
H392 C366 0.931 . S
H393 C375 0.931 . S
H394 C379 0.929 . S
H395 C381 0.930 . S
Co396 N400 2.148 . S
Co396 N406 2.128 . S
Co396 N416 2.194 . S
Co396 O421 2.351 . S
Co396 O422 2.155 . S
Co396 O423 2.096 . S
C397 N400 1.301 . S
C397 N401 1.328 . S
C397 H402 0.930 . S
C398 C399 1.333 . S
C398 N400 1.317 . S
C398 H403 0.930 . S
C399 C398 1.333 . S
C399 N401 1.350 . S
C399 H425 0.931 . S
N400 Co396 2.148 . S
N400 C397 1.301 . S
N400 C398 1.317 . S
N401 C397 1.328 . S
N401 C399 1.350 . S
H402 C397 0.930 . S
H403 C398 0.930 . S
C404 O405 1.224 . S
C404 O423 1.247 . S
O405 C404 1.224 . S
N406 Co396 2.128 . S
N406 C407 1.355 . S
N406 C409 1.311 . S
C407 N406 1.355 . S
C407 C408 1.363 . S
C407 H419 0.929 . S
C408 C407 1.363 . S
C408 N410 1.375 . S
C408 H426 0.931 1_655 S
C409 N406 1.311 . S
C409 N410 1.347 . S
C409 H420 0.929 . S
N410 C408 1.375 . S
N410 C409 1.347 . S
C411 C414 1.365 . S
C411 N416 1.328 . S
C411 H417 0.929 . S
C412 C413 1.362 . S
C412 C415 1.378 . S
C412 H427 0.929 . S
C413 C412 1.362 . S
C413 C414 1.366 . S
C414 C411 1.365 . S
C414 C413 1.366 . S
C414 H428 0.930 . S
C415 C412 1.378 . S
C415 N416 1.315 . S
C415 H418 0.930 . S
N416 Co396 2.194 . S
N416 C411 1.328 . S
N416 C415 1.315 . S
H417 C411 0.929 . S
H418 C415 0.930 . S
H419 C407 0.929 . S
H420 C409 0.929 . S
O421 Co396 2.351 . S
O421 C424 1.244 . S
O422 Co396 2.155 . S
O422 C424 1.240 . S
O423 Co396 2.096 . S
O423 C404 1.247 . S
C424 O421 1.244 . S
C424 O422 1.240 . S
H425 C399 0.931 . S
H426 C408 0.931 1_455 S
H427 C412 0.929 . S
H428 C414 0.930 . S
Co429 N433 2.148 . S
Co429 N439 2.128 . S
Co429 N449 2.194 . S
Co429 O454 2.351 . S
Co429 O455 2.155 . S
Co429 O456 2.096 . S
C430 N433 1.301 . S
C430 N434 1.328 . S
C430 H435 0.930 . S
C431 C432 1.333 . S
C431 N433 1.317 . S
C431 H436 0.930 . S
C432 C431 1.333 . S
C432 N434 1.350 . S
C432 H458 0.931 . S
N433 Co429 2.148 . S
N433 C430 1.301 . S
N433 C431 1.317 . S
N434 C430 1.328 . S
N434 C432 1.350 . S
H435 C430 0.930 . S
H436 C431 0.930 . S
C437 O438 1.224 . S
C437 O456 1.247 . S
O438 C437 1.224 . S
N439 Co429 2.128 . S
N439 C440 1.355 . S
N439 C442 1.311 . S
C440 N439 1.355 . S
C440 C441 1.363 . S
C440 H452 0.929 . S
C441 C440 1.363 . S
C441 N443 1.375 . S
C441 H459 0.931 . S
C442 N439 1.311 . S
C442 N443 1.347 . S
C442 H453 0.929 . S
N443 C441 1.375 . S
N443 C442 1.347 . S
C444 C447 1.365 . S
C444 N449 1.328 . S
C444 H450 0.929 . S
C445 C446 1.362 . S
C445 C448 1.378 . S
C445 H460 0.929 . S
C446 C445 1.362 . S
C446 C447 1.366 . S
C447 C444 1.365 . S
C447 C446 1.366 . S
C447 H461 0.930 . S
C448 C445 1.378 . S
C448 N449 1.315 . S
C448 H451 0.930 . S
N449 Co429 2.194 . S
N449 C444 1.328 . S
N449 C448 1.315 . S
H450 C444 0.929 . S
H451 C448 0.930 . S
H452 C440 0.929 . S
H453 C442 0.929 . S
O454 Co429 2.351 . S
O454 C457 1.244 . S
O455 Co429 2.155 . S
O455 C457 1.240 . S
O456 Co429 2.096 . S
O456 C437 1.247 . S
C457 O454 1.244 . S
C457 O455 1.240 . S
H458 C432 0.931 . S
H459 C441 0.931 . S
H460 C445 0.929 . S
H461 C447 0.930 . S
Co462 N466 2.148 . S
Co462 N472 2.128 . S
Co462 N482 2.194 . S
Co462 O487 2.351 . S
Co462 O488 2.155 . S
Co462 O489 2.096 . S
C463 N466 1.301 . S
C463 N467 1.328 . S
C463 H468 0.930 . S
C464 C465 1.333 . S
C464 N466 1.317 . S
C464 H469 0.930 . S
C465 C464 1.333 . S
C465 N467 1.350 . S
C465 H491 0.931 . S
N466 Co462 2.148 . S
N466 C463 1.301 . S
N466 C464 1.317 . S
N467 C463 1.328 . S
N467 C465 1.350 . S
H468 C463 0.930 . S
H469 C464 0.930 . S
C470 O471 1.224 . S
C470 O489 1.247 . S
O471 C470 1.224 . S
N472 Co462 2.128 . S
N472 C473 1.355 . S
N472 C475 1.311 . S
C473 N472 1.355 . S
C473 C474 1.363 . S
C473 H485 0.929 . S
C474 C473 1.363 . S
C474 N476 1.375 . S
C474 H492 0.931 1_545 S
C475 N472 1.311 . S
C475 N476 1.347 . S
C475 H486 0.929 . S
N476 C474 1.375 . S
N476 C475 1.347 . S
C477 C480 1.365 . S
C477 N482 1.328 . S
C477 H483 0.929 . S
C478 C479 1.362 . S
C478 C481 1.378 . S
C478 H493 0.929 . S
C479 C478 1.362 . S
C479 C480 1.366 . S
C480 C477 1.365 . S
C480 C479 1.366 . S
C480 H494 0.930 . S
C481 C478 1.378 . S
C481 N482 1.315 . S
C481 H484 0.930 . S
N482 Co462 2.194 . S
N482 C477 1.328 . S
N482 C481 1.315 . S
H483 C477 0.929 . S
H484 C481 0.930 . S
H485 C473 0.929 . S
H486 C475 0.929 . S
O487 Co462 2.351 . S
O487 C490 1.244 . S
O488 Co462 2.155 . S
O488 C490 1.240 . S
O489 Co462 2.096 . S
O489 C470 1.247 . S
C490 O487 1.244 . S
C490 O488 1.240 . S
H491 C465 0.931 . S
H492 C474 0.931 1_565 S
H493 C478 0.929 . S
H494 C480 0.930 . S
Co495 N499 2.148 . S
Co495 N505 2.128 . S
Co495 N515 2.194 . S
Co495 O520 2.351 . S
Co495 O521 2.155 . S
Co495 O522 2.096 . S
C496 N499 1.301 . S
C496 N500 1.328 . S
C496 H501 0.930 . S
C497 C498 1.333 . S
C497 N499 1.317 . S
C497 H502 0.930 . S
C498 C497 1.333 . S
C498 N500 1.350 . S
C498 H524 0.931 . S
N499 Co495 2.148 . S
N499 C496 1.301 . S
N499 C497 1.317 . S
N500 C496 1.328 . S
N500 C498 1.350 . S
H501 C496 0.930 . S
H502 C497 0.930 . S
C503 O504 1.224 . S
C503 O522 1.247 . S
O504 C503 1.224 . S
N505 Co495 2.128 . S
N505 C506 1.355 . S
N505 C508 1.311 . S
C506 N505 1.355 . S
C506 C507 1.363 . S
C506 H518 0.929 . S
C507 C506 1.363 . S
C507 N509 1.375 . S
C507 H525 0.931 . S
C508 N505 1.311 . S
C508 N509 1.347 . S
C508 H519 0.929 . S
N509 C507 1.375 . S
N509 C508 1.347 . S
C510 C513 1.365 . S
C510 N515 1.328 . S
C510 H516 0.929 . S
C511 C512 1.362 . S
C511 C514 1.378 . S
C511 H526 0.929 . S
C512 C511 1.362 . S
C512 C513 1.366 . S
C513 C510 1.365 . S
C513 C512 1.366 . S
C513 H527 0.930 . S
C514 C511 1.378 . S
C514 N515 1.315 . S
C514 H517 0.930 . S
N515 Co495 2.194 . S
N515 C510 1.328 . S
N515 C514 1.315 . S
H516 C510 0.929 . S
H517 C514 0.930 . S
H518 C506 0.929 . S
H519 C508 0.929 . S
O520 Co495 2.351 . S
O520 C523 1.244 . S
O521 Co495 2.155 . S
O521 C523 1.240 . S
O522 Co495 2.096 . S
O522 C503 1.247 . S
C523 O520 1.244 . S
C523 O521 1.240 . S
H524 C498 0.931 . S
H525 C507 0.931 . S
H526 C511 0.929 . S
H527 C513 0.930 . S
Co528 N532 2.148 . S
Co528 N538 2.128 . S
Co528 N548 2.194 . S
Co528 O553 2.351 . S
Co528 O554 2.155 . S
Co528 O555 2.096 . S
C529 N532 1.301 . S
C529 N533 1.328 . S
C529 H534 0.930 . S
C530 C531 1.333 . S
C530 N532 1.317 . S
C530 H535 0.930 . S
C531 C530 1.333 . S
C531 N533 1.350 . S
C531 H557 0.931 . S
N532 Co528 2.148 . S
N532 C529 1.301 . S
N532 C530 1.317 . S
N533 C529 1.328 . S
N533 C531 1.350 . S
H534 C529 0.930 . S
H535 C530 0.930 . S
C536 O537 1.224 . S
C536 O555 1.247 . S
O537 C536 1.224 . S
N538 Co528 2.128 . S
N538 C539 1.355 . S
N538 C541 1.311 . S
C539 N538 1.355 . S
C539 C540 1.363 . S
C539 H551 0.929 . S
C540 C539 1.363 . S
C540 N542 1.375 . S
C540 H558 0.931 . S
C541 N538 1.311 . S
C541 N542 1.347 . S
C541 H552 0.929 . S
N542 C540 1.375 . S
N542 C541 1.347 . S
C543 C546 1.365 . S
C543 N548 1.328 . S
C543 H549 0.929 . S
C544 C545 1.362 . S
C544 C547 1.378 . S
C544 H559 0.929 . S
C545 C544 1.362 . S
C545 C546 1.366 . S
C546 C543 1.365 . S
C546 C545 1.366 . S
C546 H560 0.930 . S
C547 C544 1.378 . S
C547 N548 1.315 . S
C547 H550 0.930 . S
N548 Co528 2.194 . S
N548 C543 1.328 . S
N548 C547 1.315 . S
H549 C543 0.929 . S
H550 C547 0.930 . S
H551 C539 0.929 . S
H552 C541 0.929 . S
O553 Co528 2.351 . S
O553 C556 1.244 . S
O554 Co528 2.155 . S
O554 C556 1.240 . S
O555 Co528 2.096 . S
O555 C536 1.247 . S
C556 O553 1.244 . S
C556 O554 1.240 . S
H557 C531 0.931 . S
H558 C540 0.931 . S
H559 C544 0.929 . S
H560 C546 0.930 . S
Co561 N565 2.148 . S
Co561 N571 2.128 . S
Co561 N581 2.194 . S
Co561 O586 2.351 . S
Co561 O587 2.155 . S
Co561 O588 2.096 . S
C562 N565 1.301 . S
C562 N566 1.328 . S
C562 H567 0.930 . S
C563 C564 1.333 . S
C563 N565 1.317 . S
C563 H568 0.930 . S
C564 C563 1.333 . S
C564 N566 1.350 . S
C564 H590 0.931 . S
N565 Co561 2.148 . S
N565 C562 1.301 . S
N565 C563 1.317 . S
N566 C562 1.328 . S
N566 C564 1.350 . S
H567 C562 0.930 . S
H568 C563 0.930 . S
C569 O570 1.224 . S
C569 O588 1.247 . S
O570 C569 1.224 . S
N571 Co561 2.128 . S
N571 C572 1.355 . S
N571 C574 1.311 . S
C572 N571 1.355 . S
C572 C573 1.363 . S
C572 H584 0.929 . S
C573 C572 1.363 . S
C573 N575 1.375 . S
C573 H591 0.931 . S
C574 N571 1.311 . S
C574 N575 1.347 . S
C574 H585 0.929 . S
N575 C573 1.375 . S
N575 C574 1.347 . S
C576 C579 1.365 . S
C576 N581 1.328 . S
C576 H582 0.929 . S
C577 C578 1.362 . S
C577 C580 1.378 . S
C577 H592 0.929 . S
C578 C577 1.362 . S
C578 C579 1.366 . S
C579 C576 1.365 . S
C579 C578 1.366 . S
C579 H593 0.930 . S
C580 C577 1.378 . S
C580 N581 1.315 . S
C580 H583 0.930 . S
N581 Co561 2.194 . S
N581 C576 1.328 . S
N581 C580 1.315 . S
H582 C576 0.929 . S
H583 C580 0.930 . S
H584 C572 0.929 . S
H585 C574 0.929 . S
O586 Co561 2.351 . S
O586 C589 1.244 . S
O587 Co561 2.155 . S
O587 C589 1.240 . S
O588 Co561 2.096 . S
O588 C569 1.247 . S
C589 O586 1.244 . S
C589 O587 1.240 . S
H590 C564 0.931 . S
H591 C573 0.931 . S
H592 C577 0.929 . S
H593 C579 0.930 . S
Co594 N598 2.148 . S
Co594 N604 2.128 . S
Co594 N614 2.194 . S
Co594 O619 2.351 . S
Co594 O620 2.155 . S
Co594 O621 2.096 . S
C595 N598 1.301 . S
C595 N599 1.328 . S
C595 H600 0.930 . S
C596 C597 1.333 . S
C596 N598 1.317 . S
C596 H601 0.930 . S
C597 C596 1.333 . S
C597 N599 1.350 . S
C597 H623 0.931 . S
N598 Co594 2.148 . S
N598 C595 1.301 . S
N598 C596 1.317 . S
N599 C595 1.328 . S
N599 C597 1.350 . S
H600 C595 0.930 . S
H601 C596 0.930 . S
C602 O603 1.224 . S
C602 O621 1.247 . S
O603 C602 1.224 . S
N604 Co594 2.128 . S
N604 C605 1.355 . S
N604 C607 1.311 . S
C605 N604 1.355 . S
C605 C606 1.363 . S
C605 H617 0.929 . S
C606 C605 1.363 . S
C606 N608 1.375 . S
C606 H624 0.931 . S
C607 N604 1.311 . S
C607 N608 1.347 . S
C607 H618 0.929 . S
N608 C606 1.375 . S
N608 C607 1.347 . S
C609 C612 1.365 . S
C609 N614 1.328 . S
C609 H615 0.929 . S
C610 C611 1.362 . S
C610 C613 1.378 . S
C610 H625 0.929 . S
C611 C610 1.362 . S
C611 C612 1.366 . S
C612 C609 1.365 . S
C612 C611 1.366 . S
C612 H626 0.930 . S
C613 C610 1.378 . S
C613 N614 1.315 . S
C613 H616 0.930 . S
N614 Co594 2.194 . S
N614 C609 1.328 . S
N614 C613 1.315 . S
H615 C609 0.929 . S
H616 C613 0.930 . S
H617 C605 0.929 . S
H618 C607 0.929 . S
O619 Co594 2.351 . S
O619 C622 1.244 . S
O620 Co594 2.155 . S
O620 C622 1.240 . S
O621 Co594 2.096 . S
O621 C602 1.247 . S
C622 O619 1.244 . S
C622 O620 1.240 . S
H623 C597 0.931 . S
H624 C606 0.931 . S
H625 C610 0.929 . S
H626 C612 0.930 . S
Co627 N631 2.148 . S
Co627 N637 2.128 . S
Co627 N647 2.194 . S
Co627 O652 2.351 . S
Co627 O653 2.155 . S
Co627 O654 2.096 . S
C628 N631 1.301 . S
C628 N632 1.328 . S
C628 H633 0.930 . S
C629 C630 1.333 . S
C629 N631 1.317 . S
C629 H634 0.930 . S
C630 C629 1.333 . S
C630 N632 1.350 . S
C630 H656 0.931 . S
N631 Co627 2.148 . S
N631 C628 1.301 . S
N631 C629 1.317 . S
N632 C628 1.328 . S
N632 C630 1.350 . S
H633 C628 0.930 . S
H634 C629 0.930 . S
C635 O636 1.224 . S
C635 O654 1.247 . S
O636 C635 1.224 . S
N637 Co627 2.128 . S
N637 C638 1.355 . S
N637 C640 1.311 . S
C638 N637 1.355 . S
C638 C639 1.363 . S
C638 H650 0.929 . S
C639 C638 1.363 . S
C639 N641 1.375 . S
C639 H657 0.931 . S
C640 N637 1.311 . S
C640 N641 1.347 . S
C640 H651 0.929 . S
N641 C639 1.375 . S
N641 C640 1.347 . S
C642 C645 1.365 . S
C642 N647 1.328 . S
C642 H648 0.929 . S
C643 C644 1.362 . S
C643 C646 1.378 . S
C643 H658 0.929 . S
C644 C643 1.362 . S
C644 C645 1.366 . S
C645 C642 1.365 . S
C645 C644 1.366 . S
C645 H659 0.930 . S
C646 C643 1.378 . S
C646 N647 1.315 . S
C646 H649 0.930 . S
N647 Co627 2.194 . S
N647 C642 1.328 . S
N647 C646 1.315 . S
H648 C642 0.929 . S
H649 C646 0.930 . S
H650 C638 0.929 . S
H651 C640 0.929 . S
O652 Co627 2.351 . S
O652 C655 1.244 . S
O653 Co627 2.155 . S
O653 C655 1.240 . S
O654 Co627 2.096 . S
O654 C635 1.247 . S
C655 O652 1.244 . S
C655 O653 1.240 . S
H656 C630 0.931 . S
H657 C639 0.931 . S
H658 C643 0.929 . S
H659 C645 0.930 . S
Co660 N664 2.148 . S
Co660 N670 2.128 . S
Co660 N680 2.194 . S
Co660 O685 2.351 . S
Co660 O686 2.155 . S
Co660 O687 2.096 . S
C661 N664 1.301 . S
C661 N665 1.328 . S
C661 H666 0.930 . S
C662 C663 1.333 . S
C662 N664 1.317 . S
C662 H667 0.930 . S
C663 C662 1.333 . S
C663 N665 1.350 . S
C663 H689 0.931 . S
N664 Co660 2.148 . S
N664 C661 1.301 . S
N664 C662 1.317 . S
N665 C661 1.328 . S
N665 C663 1.350 . S
H666 C661 0.930 . S
H667 C662 0.930 . S
C668 O669 1.224 . S
C668 O687 1.247 . S
O669 C668 1.224 . S
N670 Co660 2.128 . S
N670 C671 1.355 . S
N670 C673 1.311 . S
C671 N670 1.355 . S
C671 C672 1.363 . S
C671 H683 0.929 . S
C672 C671 1.363 . S
C672 N674 1.375 . S
C672 H690 0.931 . S
C673 N670 1.311 . S
C673 N674 1.347 . S
C673 H684 0.929 . S
N674 C672 1.375 . S
N674 C673 1.347 . S
C675 C678 1.365 . S
C675 N680 1.328 . S
C675 H681 0.929 . S
C676 C677 1.362 . S
C676 C679 1.378 . S
C676 H691 0.929 . S
C677 C676 1.362 . S
C677 C678 1.366 . S
C678 C675 1.365 . S
C678 C677 1.366 . S
C678 H692 0.930 . S
C679 C676 1.378 . S
C679 N680 1.315 . S
C679 H682 0.930 . S
N680 Co660 2.194 . S
N680 C675 1.328 . S
N680 C679 1.315 . S
H681 C675 0.929 . S
H682 C679 0.930 . S
H683 C671 0.929 . S
H684 C673 0.929 . S
O685 Co660 2.351 . S
O685 C688 1.244 . S
O686 Co660 2.155 . S
O686 C688 1.240 . S
O687 Co660 2.096 . S
O687 C668 1.247 . S
C688 O685 1.244 . S
C688 O686 1.240 . S
H689 C663 0.931 . S
H690 C672 0.931 . S
H691 C676 0.929 . S
H692 C678 0.930 . S
Co693 N697 2.148 . S
Co693 N703 2.128 . S
Co693 N713 2.194 . S
Co693 O718 2.351 . S
Co693 O719 2.155 . S
Co693 O720 2.096 . S
C694 N697 1.301 . S
C694 N698 1.328 . S
C694 H699 0.930 . S
C695 C696 1.333 . S
C695 N697 1.317 . S
C695 H700 0.930 . S
C696 C695 1.333 . S
C696 N698 1.350 . S
C696 H722 0.931 . S
N697 Co693 2.148 . S
N697 C694 1.301 . S
N697 C695 1.317 . S
N698 C694 1.328 . S
N698 C696 1.350 . S
H699 C694 0.930 . S
H700 C695 0.930 . S
C701 O702 1.224 . S
C701 O720 1.247 . S
O702 C701 1.224 . S
N703 Co693 2.128 . S
N703 C704 1.355 . S
N703 C706 1.311 . S
C704 N703 1.355 . S
C704 C705 1.363 . S
C704 H716 0.929 . S
C705 C704 1.363 . S
C705 N707 1.375 . S
C705 H723 0.931 1_545 S
C706 N703 1.311 . S
C706 N707 1.347 . S
C706 H717 0.929 . S
N707 C705 1.375 . S
N707 C706 1.347 . S
C708 C711 1.365 . S
C708 N713 1.328 . S
C708 H714 0.929 . S
C709 C710 1.362 . S
C709 C712 1.378 . S
C709 H724 0.929 . S
C710 C709 1.362 . S
C710 C711 1.366 . S
C711 C708 1.365 . S
C711 C710 1.366 . S
C711 H725 0.930 . S
C712 C709 1.378 . S
C712 N713 1.315 . S
C712 H715 0.930 . S
N713 Co693 2.194 . S
N713 C708 1.328 . S
N713 C712 1.315 . S
H714 C708 0.929 . S
H715 C712 0.930 . S
H716 C704 0.929 . S
H717 C706 0.929 . S
O718 Co693 2.351 . S
O718 C721 1.244 . S
O719 Co693 2.155 . S
O719 C721 1.240 . S
O720 Co693 2.096 . S
O720 C701 1.247 . S
C721 O718 1.244 . S
C721 O719 1.240 . S
H722 C696 0.931 . S
H723 C705 0.931 1_565 S
H724 C709 0.929 . S
H725 C711 0.930 . S
Co726 N730 2.148 . S
Co726 N736 2.128 . S
Co726 N746 2.194 . S
Co726 O751 2.351 . S
Co726 O752 2.155 . S
Co726 O753 2.096 . S
C727 N730 1.301 . S
C727 N731 1.328 . S
C727 H732 0.930 . S
C728 C729 1.333 . S
C728 N730 1.317 . S
C728 H733 0.930 . S
C729 C728 1.333 . S
C729 N731 1.350 . S
C729 H755 0.931 . S
N730 Co726 2.148 . S
N730 C727 1.301 . S
N730 C728 1.317 . S
N731 C727 1.328 . S
N731 C729 1.350 . S
H732 C727 0.930 . S
H733 C728 0.930 . S
C734 O735 1.224 . S
C734 O753 1.247 . S
O735 C734 1.224 . S
N736 Co726 2.128 . S
N736 C737 1.355 . S
N736 C739 1.311 . S
C737 N736 1.355 . S
C737 C738 1.363 . S
C737 H749 0.929 . S
C738 C737 1.363 . S
C738 N740 1.375 . S
C738 H756 0.931 1_655 S
C739 N736 1.311 . S
C739 N740 1.347 . S
C739 H750 0.929 . S
N740 C738 1.375 . S
N740 C739 1.347 . S
C741 C744 1.365 . S
C741 N746 1.328 . S
C741 H747 0.929 . S
C742 C743 1.362 . S
C742 C745 1.378 . S
C742 H757 0.929 . S
C743 C742 1.362 . S
C743 C744 1.366 . S
C744 C741 1.365 . S
C744 C743 1.366 . S
C744 H758 0.930 . S
C745 C742 1.378 . S
C745 N746 1.315 . S
C745 H748 0.930 . S
N746 Co726 2.194 . S
N746 C741 1.328 . S
N746 C745 1.315 . S
H747 C741 0.929 . S
H748 C745 0.930 . S
H749 C737 0.929 . S
H750 C739 0.929 . S
O751 Co726 2.351 . S
O751 C754 1.244 . S
O752 Co726 2.155 . S
O752 C754 1.240 . S
O753 Co726 2.096 . S
O753 C734 1.247 . S
C754 O751 1.244 . S
C754 O752 1.240 . S
H755 C729 0.931 . S
H756 C738 0.931 1_455 S
H757 C742 0.929 . S
H758 C744 0.930 . S
Co759 N763 2.148 . S
Co759 N769 2.128 . S
Co759 N779 2.194 . S
Co759 O784 2.351 . S
Co759 O785 2.155 . S
Co759 O786 2.096 . S
C760 N763 1.301 . S
C760 N764 1.328 . S
C760 H765 0.930 . S
C761 C762 1.333 . S
C761 N763 1.317 . S
C761 H766 0.930 . S
C762 C761 1.333 . S
C762 N764 1.350 . S
C762 H788 0.931 . S
N763 Co759 2.148 . S
N763 C760 1.301 . S
N763 C761 1.317 . S
N764 C760 1.328 . S
N764 C762 1.350 . S
H765 C760 0.930 . S
H766 C761 0.930 . S
C767 O768 1.224 . S
C767 O786 1.247 . S
O768 C767 1.224 . S
N769 Co759 2.128 . S
N769 C770 1.355 . S
N769 C772 1.311 . S
C770 N769 1.355 . S
C770 C771 1.363 . S
C770 H782 0.929 . S
C771 C770 1.363 . S
C771 N773 1.375 . S
C771 H789 0.931 . S
C772 N769 1.311 . S
C772 N773 1.347 . S
C772 H783 0.929 . S
N773 C771 1.375 . S
N773 C772 1.347 . S
C774 C777 1.365 . S
C774 N779 1.328 . S
C774 H780 0.929 . S
C775 C776 1.362 . S
C775 C778 1.378 . S
C775 H790 0.929 . S
C776 C775 1.362 . S
C776 C777 1.366 . S
C777 C774 1.365 . S
C777 C776 1.366 . S
C777 H791 0.930 . S
C778 C775 1.378 . S
C778 N779 1.315 . S
C778 H781 0.930 . S
N779 Co759 2.194 . S
N779 C774 1.328 . S
N779 C778 1.315 . S
H780 C774 0.929 . S
H781 C778 0.930 . S
H782 C770 0.929 . S
H783 C772 0.929 . S
O784 Co759 2.351 . S
O784 C787 1.244 . S
O785 Co759 2.155 . S
O785 C787 1.240 . S
O786 Co759 2.096 . S
O786 C767 1.247 . S
C787 O784 1.244 . S
C787 O785 1.240 . S
H788 C762 0.931 . S
H789 C771 0.931 . S
H790 C775 0.929 . S
H791 C777 0.930 . S
Co792 N796 2.148 . S
Co792 N802 2.128 . S
Co792 N812 2.194 . S
Co792 O817 2.351 . S
Co792 O818 2.155 . S
Co792 O819 2.096 . S
C793 N796 1.301 . S
C793 N797 1.328 . S
C793 H798 0.930 . S
C794 C795 1.333 . S
C794 N796 1.317 . S
C794 H799 0.930 . S
C795 C794 1.333 . S
C795 N797 1.350 . S
C795 H821 0.931 . S
N796 Co792 2.148 . S
N796 C793 1.301 . S
N796 C794 1.317 . S
N797 C793 1.328 . S
N797 C795 1.350 . S
H798 C793 0.930 . S
H799 C794 0.930 . S
C800 O801 1.224 . S
C800 O819 1.247 . S
O801 C800 1.224 . S
N802 Co792 2.128 . S
N802 C803 1.355 . S
N802 C805 1.311 . S
C803 N802 1.355 . S
C803 C804 1.363 . S
C803 H815 0.929 . S
C804 C803 1.363 . S
C804 N806 1.375 . S
C804 H822 0.931 . S
C805 N802 1.311 . S
C805 N806 1.347 . S
C805 H816 0.929 . S
N806 C804 1.375 . S
N806 C805 1.347 . S
C807 C810 1.365 . S
C807 N812 1.328 . S
C807 H813 0.929 . S
C808 C809 1.362 . S
C808 C811 1.378 . S
C808 H823 0.929 . S
C809 C808 1.362 . S
C809 C810 1.366 . S
C810 C807 1.365 . S
C810 C809 1.366 . S
C810 H824 0.930 . S
C811 C808 1.378 . S
C811 N812 1.315 . S
C811 H814 0.930 . S
N812 Co792 2.194 . S
N812 C807 1.328 . S
N812 C811 1.315 . S
H813 C807 0.929 . S
H814 C811 0.930 . S
H815 C803 0.929 . S
H816 C805 0.929 . S
O817 Co792 2.351 . S
O817 C820 1.244 . S
O818 Co792 2.155 . S
O818 C820 1.240 . S
O819 Co792 2.096 . S
O819 C800 1.247 . S
C820 O817 1.244 . S
C820 O818 1.240 . S
H821 C795 0.931 . S
H822 C804 0.931 . S
H823 C808 0.929 . S
H824 C810 0.930 . S
Co825 N829 2.148 . S
Co825 N835 2.128 . S
Co825 N845 2.194 . S
Co825 O850 2.351 . S
Co825 O851 2.155 . S
Co825 O852 2.096 . S
C826 N829 1.301 . S
C826 N830 1.328 . S
C826 H831 0.930 . S
C827 C828 1.333 . S
C827 N829 1.317 . S
C827 H832 0.930 . S
C828 C827 1.333 . S
C828 N830 1.350 . S
C828 H854 0.931 . S
N829 Co825 2.148 . S
N829 C826 1.301 . S
N829 C827 1.317 . S
N830 C826 1.328 . S
N830 C828 1.350 . S
H831 C826 0.930 . S
H832 C827 0.930 . S
C833 O834 1.224 . S
C833 O852 1.247 . S
O834 C833 1.224 . S
N835 Co825 2.128 . S
N835 C836 1.355 . S
N835 C838 1.311 . S
C836 N835 1.355 . S
C836 C837 1.363 . S
C836 H848 0.929 . S
C837 C836 1.363 . S
C837 N839 1.375 . S
C837 H855 0.931 . S
C838 N835 1.311 . S
C838 N839 1.347 . S
C838 H849 0.929 . S
N839 C837 1.375 . S
N839 C838 1.347 . S
C840 C843 1.365 . S
C840 N845 1.328 . S
C840 H846 0.929 . S
C841 C842 1.362 . S
C841 C844 1.378 . S
C841 H856 0.929 . S
C842 C841 1.362 . S
C842 C843 1.366 . S
C843 C840 1.365 . S
C843 C842 1.366 . S
C843 H857 0.930 . S
C844 C841 1.378 . S
C844 N845 1.315 . S
C844 H847 0.930 . S
N845 Co825 2.194 . S
N845 C840 1.328 . S
N845 C844 1.315 . S
H846 C840 0.929 . S
H847 C844 0.930 . S
H848 C836 0.929 . S
H849 C838 0.929 . S
O850 Co825 2.351 . S
O850 C853 1.244 . S
O851 Co825 2.155 . S
O851 C853 1.240 . S
O852 Co825 2.096 . S
O852 C833 1.247 . S
C853 O850 1.244 . S
C853 O851 1.240 . S
H854 C828 0.931 . S
H855 C837 0.931 . S
H856 C841 0.929 . S
H857 C843 0.930 . S
Co858 N862 2.148 . S
Co858 N868 2.128 . S
Co858 N878 2.194 . S
Co858 O883 2.351 . S
Co858 O884 2.155 . S
Co858 O885 2.096 . S
C859 N862 1.301 . S
C859 N863 1.328 . S
C859 H864 0.930 . S
C860 C861 1.333 . S
C860 N862 1.317 . S
C860 H865 0.930 . S
C861 C860 1.333 . S
C861 N863 1.350 . S
C861 H887 0.931 . S
N862 Co858 2.148 . S
N862 C859 1.301 . S
N862 C860 1.317 . S
N863 C859 1.328 . S
N863 C861 1.350 . S
H864 C859 0.930 . S
H865 C860 0.930 . S
C866 O867 1.224 . S
C866 O885 1.247 . S
O867 C866 1.224 . S
N868 Co858 2.128 . S
N868 C869 1.355 . S
N868 C871 1.311 . S
C869 N868 1.355 . S
C869 C870 1.363 . S
C869 H881 0.929 . S
C870 C869 1.363 . S
C870 N872 1.375 . S
C870 H888 0.931 . S
C871 N868 1.311 . S
C871 N872 1.347 . S
C871 H882 0.929 . S
N872 C870 1.375 . S
N872 C871 1.347 . S
C873 C876 1.365 . S
C873 N878 1.328 . S
C873 H879 0.929 . S
C874 C875 1.362 . S
C874 C877 1.378 . S
C874 H889 0.929 . S
C875 C874 1.362 . S
C875 C876 1.366 . S
C876 C873 1.365 . S
C876 C875 1.366 . S
C876 H890 0.930 . S
C877 C874 1.378 . S
C877 N878 1.315 . S
C877 H880 0.930 . S
N878 Co858 2.194 . S
N878 C873 1.328 . S
N878 C877 1.315 . S
H879 C873 0.929 . S
H880 C877 0.930 . S
H881 C869 0.929 . S
H882 C871 0.929 . S
O883 Co858 2.351 . S
O883 C886 1.244 . S
O884 Co858 2.155 . S
O884 C886 1.240 . S
O885 Co858 2.096 . S
O885 C866 1.247 . S
C886 O883 1.244 . S
C886 O884 1.240 . S
H887 C861 0.931 . S
H888 C870 0.931 . S
H889 C874 0.929 . S
H890 C876 0.930 . S
Co891 N895 2.148 . S
Co891 N901 2.128 . S
Co891 N911 2.194 . S
Co891 O916 2.351 . S
Co891 O917 2.155 . S
Co891 O918 2.096 . S
C892 N895 1.301 . S
C892 N896 1.328 . S
C892 H897 0.930 . S
C893 C894 1.333 . S
C893 N895 1.317 . S
C893 H898 0.930 . S
C894 C893 1.333 . S
C894 N896 1.350 . S
C894 H920 0.931 1_565 S
N895 Co891 2.148 . S
N895 C892 1.301 . S
N895 C893 1.317 . S
N896 C892 1.328 . S
N896 C894 1.350 . S
H897 C892 0.930 . S
H898 C893 0.930 . S
C899 O900 1.224 . S
C899 O918 1.247 . S
O900 C899 1.224 . S
N901 Co891 2.128 . S
N901 C902 1.355 . S
N901 C904 1.311 . S
C902 N901 1.355 . S
C902 C903 1.363 . S
C902 H914 0.929 . S
C903 C902 1.363 . S
C903 N905 1.375 . S
C903 H921 0.931 . S
C904 N901 1.311 . S
C904 N905 1.347 . S
C904 H915 0.929 . S
N905 C903 1.375 . S
N905 C904 1.347 . S
C906 C909 1.365 . S
C906 N911 1.328 . S
C906 H912 0.929 . S
C907 C908 1.362 . S
C907 C910 1.378 . S
C907 H922 0.929 . S
C908 C907 1.362 . S
C908 C909 1.366 . S
C909 C906 1.365 . S
C909 C908 1.366 . S
C909 H923 0.930 . S
C910 C907 1.378 . S
C910 N911 1.315 . S
C910 H913 0.930 . S
N911 Co891 2.194 . S
N911 C906 1.328 . S
N911 C910 1.315 . S
H912 C906 0.929 . S
H913 C910 0.930 . S
H914 C902 0.929 . S
H915 C904 0.929 . S
O916 Co891 2.351 . S
O916 C919 1.244 . S
O917 Co891 2.155 . S
O917 C919 1.240 . S
O918 Co891 2.096 . S
O918 C899 1.247 . S
C919 O916 1.244 . S
C919 O917 1.240 . S
H920 C894 0.931 1_545 S
H921 C903 0.931 . S
H922 C907 0.929 . S
H923 C909 0.930 . S
Co924 N928 2.148 . S
Co924 N934 2.128 . S
Co924 N944 2.194 . S
Co924 O949 2.351 . S
Co924 O950 2.155 . S
Co924 O951 2.096 . S
C925 N928 1.301 . S
C925 N929 1.328 . S
C925 H930 0.930 . S
C926 C927 1.333 . S
C926 N928 1.317 . S
C926 H931 0.930 . S
C927 C926 1.333 . S
C927 N929 1.350 . S
C927 H953 0.931 1_455 S
N928 Co924 2.148 . S
N928 C925 1.301 . S
N928 C926 1.317 . S
N929 C925 1.328 . S
N929 C927 1.350 . S
H930 C925 0.930 . S
H931 C926 0.930 . S
C932 O933 1.224 . S
C932 O951 1.247 . S
O933 C932 1.224 . S
N934 Co924 2.128 . S
N934 C935 1.355 . S
N934 C937 1.311 . S
C935 N934 1.355 . S
C935 C936 1.363 . S
C935 H947 0.929 . S
C936 C935 1.363 . S
C936 N938 1.375 . S
C936 H954 0.931 . S
C937 N934 1.311 . S
C937 N938 1.347 . S
C937 H948 0.929 . S
N938 C936 1.375 . S
N938 C937 1.347 . S
C939 C942 1.365 . S
C939 N944 1.328 . S
C939 H945 0.929 . S
C940 C941 1.362 . S
C940 C943 1.378 . S
C940 H955 0.929 . S
C941 C940 1.362 . S
C941 C942 1.366 . S
C942 C939 1.365 . S
C942 C941 1.366 . S
C942 H956 0.930 . S
C943 C940 1.378 . S
C943 N944 1.315 . S
C943 H946 0.930 . S
N944 Co924 2.194 . S
N944 C939 1.328 . S
N944 C943 1.315 . S
H945 C939 0.929 . S
H946 C943 0.930 . S
H947 C935 0.929 . S
H948 C937 0.929 . S
O949 Co924 2.351 . S
O949 C952 1.244 . S
O950 Co924 2.155 . S
O950 C952 1.240 . S
O951 Co924 2.096 . S
O951 C932 1.247 . S
C952 O949 1.244 . S
C952 O950 1.240 . S
H953 C927 0.931 1_655 S
H954 C936 0.931 . S
H955 C940 0.929 . S
H956 C942 0.930 . S
Co957 N961 2.148 . S
Co957 N967 2.128 . S
Co957 N977 2.194 . S
Co957 O982 2.351 . S
Co957 O983 2.155 . S
Co957 O984 2.096 . S
C958 N961 1.301 . S
C958 N962 1.328 . S
C958 H963 0.930 . S
C959 C960 1.333 . S
C959 N961 1.317 . S
C959 H964 0.930 . S
C960 C959 1.333 . S
C960 N962 1.350 . S
C960 H986 0.931 . S
N961 Co957 2.148 . S
N961 C958 1.301 . S
N961 C959 1.317 . S
N962 C958 1.328 . S
N962 C960 1.350 . S
H963 C958 0.930 . S
H964 C959 0.930 . S
C965 O966 1.224 . S
C965 O984 1.247 . S
O966 C965 1.224 . S
N967 Co957 2.128 . S
N967 C968 1.355 . S
N967 C970 1.311 . S
C968 N967 1.355 . S
C968 C969 1.363 . S
C968 H980 0.929 . S
C969 C968 1.363 . S
C969 N971 1.375 . S
C969 H987 0.931 . S
C970 N967 1.311 . S
C970 N971 1.347 . S
C970 H981 0.929 . S
N971 C969 1.375 . S
N971 C970 1.347 . S
C972 C975 1.365 . S
C972 N977 1.328 . S
C972 H978 0.929 . S
C973 C974 1.362 . S
C973 C976 1.378 . S
C973 H988 0.929 . S
C974 C973 1.362 . S
C974 C975 1.366 . S
C975 C972 1.365 . S
C975 C974 1.366 . S
C975 H989 0.930 . S
C976 C973 1.378 . S
C976 N977 1.315 . S
C976 H979 0.930 . S
N977 Co957 2.194 . S
N977 C972 1.328 . S
N977 C976 1.315 . S
H978 C972 0.929 . S
H979 C976 0.930 . S
H980 C968 0.929 . S
H981 C970 0.929 . S
O982 Co957 2.351 . S
O982 C985 1.244 . S
O983 Co957 2.155 . S
O983 C985 1.240 . S
O984 Co957 2.096 . S
O984 C965 1.247 . S
C985 O982 1.244 . S
C985 O983 1.240 . S
H986 C960 0.931 . S
H987 C969 0.931 . S
H988 C973 0.929 . S
H989 C975 0.930 . S
Co990 N994 2.148 . S
Co990 N1000 2.128 . S
Co990 N1010 2.194 . S
Co990 O1015 2.351 . S
Co990 O1016 2.155 . S
Co990 O1017 2.096 . S
C991 N994 1.301 . S
C991 N995 1.328 . S
C991 H996 0.930 . S
C992 C993 1.333 . S
C992 N994 1.317 . S
C992 H997 0.930 . S
C993 C992 1.333 . S
C993 N995 1.350 . S
C993 H1019 0.931 . S
N994 Co990 2.148 . S
N994 C991 1.301 . S
N994 C992 1.317 . S
N995 C991 1.328 . S
N995 C993 1.350 . S
H996 C991 0.930 . S
H997 C992 0.930 . S
C998 O999 1.224 . S
C998 O1017 1.247 . S
O999 C998 1.224 . S
N1000 Co990 2.128 . S
N1000 C1001 1.355 . S
N1000 C1003 1.311 . S
C1001 N1000 1.355 . S
C1001 C1002 1.363 . S
C1001 H1013 0.929 . S
C1002 C1001 1.363 . S
C1002 N1004 1.375 . S
C1002 H1020 0.931 1_455 S
C1003 N1000 1.311 . S
C1003 N1004 1.347 . S
C1003 H1014 0.929 . S
N1004 C1002 1.375 . S
N1004 C1003 1.347 . S
C1005 C1008 1.365 . S
C1005 N1010 1.328 . S
C1005 H1011 0.929 . S
C1006 C1007 1.362 . S
C1006 C1009 1.378 . S
C1006 H1021 0.929 . S
C1007 C1006 1.362 . S
C1007 C1008 1.366 . S
C1008 C1005 1.365 . S
C1008 C1007 1.366 . S
C1008 H1022 0.930 . S
C1009 C1006 1.378 . S
C1009 N1010 1.315 . S
C1009 H1012 0.930 . S
N1010 Co990 2.194 . S
N1010 C1005 1.328 . S
N1010 C1009 1.315 . S
H1011 C1005 0.929 . S
H1012 C1009 0.930 . S
H1013 C1001 0.929 . S
H1014 C1003 0.929 . S
O1015 Co990 2.351 . S
O1015 C1018 1.244 . S
O1016 Co990 2.155 . S
O1016 C1018 1.240 . S
O1017 Co990 2.096 . S
O1017 C998 1.247 . S
C1018 O1015 1.244 . S
C1018 O1016 1.240 . S
H1019 C993 0.931 . S
H1020 C1002 0.931 1_655 S
H1021 C1006 0.929 . S
H1022 C1008 0.930 . S
Co1023 N1027 2.148 . S
Co1023 N1033 2.128 . S
Co1023 N1043 2.194 . S
Co1023 O1048 2.351 . S
Co1023 O1049 2.155 . S
Co1023 O1050 2.096 . S
C1024 N1027 1.301 . S
C1024 N1028 1.328 . S
C1024 H1029 0.930 . S
C1025 C1026 1.333 . S
C1025 N1027 1.317 . S
C1025 H1030 0.930 . S
C1026 C1025 1.333 . S
C1026 N1028 1.350 . S
C1026 H1052 0.931 . S
N1027 Co1023 2.148 . S
N1027 C1024 1.301 . S
N1027 C1025 1.317 . S
N1028 C1024 1.328 . S
N1028 C1026 1.350 . S
H1029 C1024 0.930 . S
H1030 C1025 0.930 . S
C1031 O1032 1.224 . S
C1031 O1050 1.247 . S
O1032 C1031 1.224 . S
N1033 Co1023 2.128 . S
N1033 C1034 1.355 . S
N1033 C1036 1.311 . S
C1034 N1033 1.355 . S
C1034 C1035 1.363 . S
C1034 H1046 0.929 . S
C1035 C1034 1.363 . S
C1035 N1037 1.375 . S
C1035 H1053 0.931 . S
C1036 N1033 1.311 . S
C1036 N1037 1.347 . S
C1036 H1047 0.929 . S
N1037 C1035 1.375 . S
N1037 C1036 1.347 . S
C1038 C1041 1.365 . S
C1038 N1043 1.328 . S
C1038 H1044 0.929 . S
C1039 C1040 1.362 . S
C1039 C1042 1.378 . S
C1039 H1054 0.929 . S
C1040 C1039 1.362 . S
C1040 C1041 1.366 . S
C1041 C1038 1.365 . S
C1041 C1040 1.366 . S
C1041 H1055 0.930 . S
C1042 C1039 1.378 . S
C1042 N1043 1.315 . S
C1042 H1045 0.930 . S
N1043 Co1023 2.194 . S
N1043 C1038 1.328 . S
N1043 C1042 1.315 . S
H1044 C1038 0.929 . S
H1045 C1042 0.930 . S
H1046 C1034 0.929 . S
H1047 C1036 0.929 . S
O1048 Co1023 2.351 . S
O1048 C1051 1.244 . S
O1049 Co1023 2.155 . S
O1049 C1051 1.240 . S
O1050 Co1023 2.096 . S
O1050 C1031 1.247 . S
C1051 O1048 1.244 . S
C1051 O1049 1.240 . S
H1052 C1026 0.931 . S
H1053 C1035 0.931 . S
H1054 C1039 0.929 . S
H1055 C1041 0.930 . S
Co1056 N1060 2.148 . S
Co1056 N1066 2.128 . S
Co1056 N1076 2.194 . S
Co1056 O1081 2.351 . S
Co1056 O1082 2.155 . S
Co1056 O1083 2.096 . S
C1057 N1060 1.301 . S
C1057 N1061 1.328 . S
C1057 H1062 0.930 . S
C1058 C1059 1.333 . S
C1058 N1060 1.317 . S
C1058 H1063 0.930 . S
C1059 C1058 1.333 . S
C1059 N1061 1.350 . S
C1059 H1085 0.931 . S
N1060 Co1056 2.148 . S
N1060 C1057 1.301 . S
N1060 C1058 1.317 . S
N1061 C1057 1.328 . S
N1061 C1059 1.350 . S
H1062 C1057 0.930 . S
H1063 C1058 0.930 . S
C1064 O1065 1.224 . S
C1064 O1083 1.247 . S
O1065 C1064 1.224 . S
N1066 Co1056 2.128 . S
N1066 C1067 1.355 . S
N1066 C1069 1.311 . S
C1067 N1066 1.355 . S
C1067 C1068 1.363 . S
C1067 H1079 0.929 . S
C1068 C1067 1.363 . S
C1068 N1070 1.375 . S
C1068 H1086 0.931 1_565 S
C1069 N1066 1.311 . S
C1069 N1070 1.347 . S
C1069 H1080 0.929 . S
N1070 C1068 1.375 . S
N1070 C1069 1.347 . S
C1071 C1074 1.365 . S
C1071 N1076 1.328 . S
C1071 H1077 0.929 . S
C1072 C1073 1.362 . S
C1072 C1075 1.378 . S
C1072 H1087 0.929 . S
C1073 C1072 1.362 . S
C1073 C1074 1.366 . S
C1074 C1071 1.365 . S
C1074 C1073 1.366 . S
C1074 H1088 0.930 . S
C1075 C1072 1.378 . S
C1075 N1076 1.315 . S
C1075 H1078 0.930 . S
N1076 Co1056 2.194 . S
N1076 C1071 1.328 . S
N1076 C1075 1.315 . S
H1077 C1071 0.929 . S
H1078 C1075 0.930 . S
H1079 C1067 0.929 . S
H1080 C1069 0.929 . S
O1081 Co1056 2.351 . S
O1081 C1084 1.244 . S
O1082 Co1056 2.155 . S
O1082 C1084 1.240 . S
O1083 Co1056 2.096 . S
O1083 C1064 1.247 . S
C1084 O1081 1.244 . S
C1084 O1082 1.240 . S
H1085 C1059 0.931 . S
H1086 C1068 0.931 1_545 S
H1087 C1072 0.929 . S
H1088 C1074 0.930 . S
Co1089 N1093 2.148 . S
Co1089 N1099 2.128 . S
Co1089 N1109 2.194 . S
Co1089 O1114 2.351 . S
Co1089 O1115 2.155 . S
Co1089 O1116 2.096 . S
C1090 N1093 1.301 . S
C1090 N1094 1.328 . S
C1090 H1095 0.930 . S
C1091 C1092 1.333 . S
C1091 N1093 1.317 . S
C1091 H1096 0.930 . S
C1092 C1091 1.333 . S
C1092 N1094 1.350 . S
C1092 H1118 0.931 . S
N1093 Co1089 2.148 . S
N1093 C1090 1.301 . S
N1093 C1091 1.317 . S
N1094 C1090 1.328 . S
N1094 C1092 1.350 . S
H1095 C1090 0.930 . S
H1096 C1091 0.930 . S
C1097 O1098 1.224 . S
C1097 O1116 1.247 . S
O1098 C1097 1.224 . S
N1099 Co1089 2.128 . S
N1099 C1100 1.355 . S
N1099 C1102 1.311 . S
C1100 N1099 1.355 . S
C1100 C1101 1.363 . S
C1100 H1112 0.929 . S
C1101 C1100 1.363 . S
C1101 N1103 1.375 . S
C1101 H1119 0.931 . S
C1102 N1099 1.311 . S
C1102 N1103 1.347 . S
C1102 H1113 0.929 . S
N1103 C1101 1.375 . S
N1103 C1102 1.347 . S
C1104 C1107 1.365 . S
C1104 N1109 1.328 . S
C1104 H1110 0.929 . S
C1105 C1106 1.362 . S
C1105 C1108 1.378 . S
C1105 H1120 0.929 . S
C1106 C1105 1.362 . S
C1106 C1107 1.366 . S
C1107 C1104 1.365 . S
C1107 C1106 1.366 . S
C1107 H1121 0.930 . S
C1108 C1105 1.378 . S
C1108 N1109 1.315 . S
C1108 H1111 0.930 . S
N1109 Co1089 2.194 . S
N1109 C1104 1.328 . S
N1109 C1108 1.315 . S
H1110 C1104 0.929 . S
H1111 C1108 0.930 . S
H1112 C1100 0.929 . S
H1113 C1102 0.929 . S
O1114 Co1089 2.351 . S
O1114 C1117 1.244 . S
O1115 Co1089 2.155 . S
O1115 C1117 1.240 . S
O1116 Co1089 2.096 . S
O1116 C1097 1.247 . S
C1117 O1114 1.244 . S
C1117 O1115 1.240 . S
H1118 C1092 0.931 . S
H1119 C1101 0.931 . S
H1120 C1105 0.929 . S
H1121 C1107 0.930 . S
Co1122 N1126 2.148 . S
Co1122 N1132 2.128 . S
Co1122 N1142 2.194 . S
Co1122 O1147 2.351 . S
Co1122 O1148 2.155 . S
Co1122 O1149 2.096 . S
C1123 N1126 1.301 . S
C1123 N1127 1.328 . S
C1123 H1128 0.930 . S
C1124 C1125 1.333 . S
C1124 N1126 1.317 . S
C1124 H1129 0.930 . S
C1125 C1124 1.333 . S
C1125 N1127 1.350 . S
C1125 H1151 0.931 . S
N1126 Co1122 2.148 . S
N1126 C1123 1.301 . S
N1126 C1124 1.317 . S
N1127 C1123 1.328 . S
N1127 C1125 1.350 . S
H1128 C1123 0.930 . S
H1129 C1124 0.930 . S
C1130 O1131 1.224 . S
C1130 O1149 1.247 . S
O1131 C1130 1.224 . S
N1132 Co1122 2.128 . S
N1132 C1133 1.355 . S
N1132 C1135 1.311 . S
C1133 N1132 1.355 . S
C1133 C1134 1.363 . S
C1133 H1145 0.929 . S
C1134 C1133 1.363 . S
C1134 N1136 1.375 . S
C1134 H1152 0.931 . S
C1135 N1132 1.311 . S
C1135 N1136 1.347 . S
C1135 H1146 0.929 . S
N1136 C1134 1.375 . S
N1136 C1135 1.347 . S
C1137 C1140 1.365 . S
C1137 N1142 1.328 . S
C1137 H1143 0.929 . S
C1138 C1139 1.362 . S
C1138 C1141 1.378 . S
C1138 H1153 0.929 . S
C1139 C1138 1.362 . S
C1139 C1140 1.366 . S
C1140 C1137 1.365 . S
C1140 C1139 1.366 . S
C1140 H1154 0.930 . S
C1141 C1138 1.378 . S
C1141 N1142 1.315 . S
C1141 H1144 0.930 . S
N1142 Co1122 2.194 . S
N1142 C1137 1.328 . S
N1142 C1141 1.315 . S
H1143 C1137 0.929 . S
H1144 C1141 0.930 . S
H1145 C1133 0.929 . S
H1146 C1135 0.929 . S
O1147 Co1122 2.351 . S
O1147 C1150 1.244 . S
O1148 Co1122 2.155 . S
O1148 C1150 1.240 . S
O1149 Co1122 2.096 . S
O1149 C1130 1.247 . S
C1150 O1147 1.244 . S
C1150 O1148 1.240 . S
H1151 C1125 0.931 . S
H1152 C1134 0.931 . S
H1153 C1138 0.929 . S
H1154 C1140 0.930 . S
Co1155 N1159 2.148 . S
Co1155 N1165 2.128 . S
Co1155 N1175 2.194 . S
Co1155 O1180 2.351 . S
Co1155 O1181 2.155 . S
Co1155 O1182 2.096 . S
C1156 N1159 1.301 . S
C1156 N1160 1.328 . S
C1156 H1161 0.930 . S
C1157 C1158 1.333 . S
C1157 N1159 1.317 . S
C1157 H1162 0.930 . S
C1158 C1157 1.333 . S
C1158 N1160 1.350 . S
C1158 H1184 0.931 . S
N1159 Co1155 2.148 . S
N1159 C1156 1.301 . S
N1159 C1157 1.317 . S
N1160 C1156 1.328 . S
N1160 C1158 1.350 . S
H1161 C1156 0.930 . S
H1162 C1157 0.930 . S
C1163 O1164 1.224 . S
C1163 O1182 1.247 . S
O1164 C1163 1.224 . S
N1165 Co1155 2.128 . S
N1165 C1166 1.355 . S
N1165 C1168 1.311 . S
C1166 N1165 1.355 . S
C1166 C1167 1.363 . S
C1166 H1178 0.929 . S
C1167 C1166 1.363 . S
C1167 N1169 1.375 . S
C1167 H1185 0.931 . S
C1168 N1165 1.311 . S
C1168 N1169 1.347 . S
C1168 H1179 0.929 . S
N1169 C1167 1.375 . S
N1169 C1168 1.347 . S
C1170 C1173 1.365 . S
C1170 N1175 1.328 . S
C1170 H1176 0.929 . S
C1171 C1172 1.362 . S
C1171 C1174 1.378 . S
C1171 H1186 0.929 . S
C1172 C1171 1.362 . S
C1172 C1173 1.366 . S
C1173 C1170 1.365 . S
C1173 C1172 1.366 . S
C1173 H1187 0.930 . S
C1174 C1171 1.378 . S
C1174 N1175 1.315 . S
C1174 H1177 0.930 . S
N1175 Co1155 2.194 . S
N1175 C1170 1.328 . S
N1175 C1174 1.315 . S
H1176 C1170 0.929 . S
H1177 C1174 0.930 . S
H1178 C1166 0.929 . S
H1179 C1168 0.929 . S
O1180 Co1155 2.351 . S
O1180 C1183 1.244 . S
O1181 Co1155 2.155 . S
O1181 C1183 1.240 . S
O1182 Co1155 2.096 . S
O1182 C1163 1.247 . S
C1183 O1180 1.244 . S
C1183 O1181 1.240 . S
H1184 C1158 0.931 . S
H1185 C1167 0.931 . S
H1186 C1171 0.929 . S
H1187 C1173 0.930 . S
C1188 C1189 1.363 . S
C1188 C1194 1.379 . S
C1188 N1196 1.356 . S
C1189 C1188 1.363 . S
C1189 C1195 1.363 . S
C1190 C1191 1.363 . S
C1190 C1195 1.379 . S
C1190 N1197 1.356 . S
C1191 C1190 1.363 . S
C1191 C1194 1.363 . S
N1192 C1194 1.356 . S
N1192 H1204 0.984 . S
N1192 H1205 0.985 . S
N1193 C1195 1.356 . S
N1193 H1198 0.984 . S
N1193 H1199 0.985 . S
C1194 C1188 1.379 . S
C1194 C1191 1.363 . S
C1194 N1192 1.356 . S
C1195 C1189 1.363 . S
C1195 C1190 1.379 . S
C1195 N1193 1.356 . S
N1196 C1188 1.356 . S
N1196 H1202 0.984 . S
N1196 H1203 0.984 . S
N1197 C1190 1.356 . S
N1197 H1200 0.984 . S
N1197 H1201 0.985 . S
H1198 N1193 0.984 . S
H1199 N1193 0.985 . S
H1200 N1197 0.984 . S
H1201 N1197 0.985 . S
H1202 N1196 0.984 . S
H1203 N1196 0.984 . S
H1204 N1192 0.984 . S
H1205 N1192 0.985 . S
C1206 C1207 1.363 . S
C1206 C1212 1.379 . S
C1206 N1214 1.356 . S
C1207 C1206 1.363 . S
C1207 C1213 1.363 . S
C1208 C1209 1.363 . S
C1208 C1213 1.379 . S
C1208 N1215 1.356 . S
C1209 C1208 1.363 . S
C1209 C1212 1.363 . S
N1210 C1212 1.356 . S
N1210 H1222 0.984 . S
N1210 H1223 0.985 . S
N1211 C1213 1.356 . S
N1211 H1216 0.984 . S
N1211 H1217 0.985 . S
C1212 C1206 1.379 . S
C1212 C1209 1.363 . S
C1212 N1210 1.356 . S
C1213 C1207 1.363 . S
C1213 C1208 1.379 . S
C1213 N1211 1.356 . S
N1214 C1206 1.356 . S
N1214 H1220 0.984 . S
N1214 H1221 0.984 . S
N1215 C1208 1.356 . S
N1215 H1218 0.984 . S
N1215 H1219 0.985 . S
H1216 N1211 0.984 . S
H1217 N1211 0.985 . S
H1218 N1215 0.984 . S
H1219 N1215 0.985 . S
H1220 N1214 0.984 . S
H1221 N1214 0.984 . S
H1222 N1210 0.984 . S
H1223 N1210 0.985 . S
C1224 C1225 1.363 . S
C1224 C1230 1.379 . S
C1224 N1232 1.356 . S
C1225 C1224 1.363 . S
C1225 C1231 1.363 . S
C1226 C1227 1.363 . S
C1226 C1231 1.379 . S
C1226 N1233 1.356 . S
C1227 C1226 1.363 . S
C1227 C1230 1.363 . S
N1228 C1230 1.356 . S
N1228 H1240 0.984 . S
N1228 H1241 0.985 . S
N1229 C1231 1.356 . S
N1229 H1234 0.984 . S
N1229 H1235 0.985 . S
C1230 C1224 1.379 . S
C1230 C1227 1.363 . S
C1230 N1228 1.356 . S
C1231 C1225 1.363 . S
C1231 C1226 1.379 . S
C1231 N1229 1.356 . S
N1232 C1224 1.356 . S
N1232 H1238 0.984 . S
N1232 H1239 0.984 . S
N1233 C1226 1.356 . S
N1233 H1236 0.984 . S
N1233 H1237 0.985 . S
H1234 N1229 0.984 . S
H1235 N1229 0.985 . S
H1236 N1233 0.984 . S
H1237 N1233 0.985 . S
H1238 N1232 0.984 . S
H1239 N1232 0.984 . S
H1240 N1228 0.984 . S
H1241 N1228 0.985 . S
C1242 C1243 1.363 . S
C1242 C1248 1.379 . S
C1242 N1250 1.356 . S
C1243 C1242 1.363 . S
C1243 C1249 1.363 . S
C1244 C1245 1.363 . S
C1244 C1249 1.379 . S
C1244 N1251 1.356 . S
C1245 C1244 1.363 . S
C1245 C1248 1.363 . S
N1246 C1248 1.356 . S
N1246 H1258 0.984 . S
N1246 H1259 0.985 . S
N1247 C1249 1.356 . S
N1247 H1252 0.984 . S
N1247 H1253 0.985 . S
C1248 C1242 1.379 . S
C1248 C1245 1.363 . S
C1248 N1246 1.356 . S
C1249 C1243 1.363 . S
C1249 C1244 1.379 . S
C1249 N1247 1.356 . S
N1250 C1242 1.356 . S
N1250 H1256 0.984 . S
N1250 H1257 0.984 . S
N1251 C1244 1.356 . S
N1251 H1254 0.984 . S
N1251 H1255 0.985 . S
H1252 N1247 0.984 . S
H1253 N1247 0.985 . S
H1254 N1251 0.984 . S
H1255 N1251 0.985 . S
H1256 N1250 0.984 . S
H1257 N1250 0.984 . S
H1258 N1246 0.984 . S
H1259 N1246 0.985 . S
C1260 C1261 1.363 . S
C1260 C1266 1.379 . S
C1260 N1268 1.356 . S
C1261 C1260 1.363 . S
C1261 C1267 1.363 . S
C1262 C1263 1.363 . S
C1262 C1267 1.379 . S
C1262 N1269 1.356 . S
C1263 C1262 1.363 . S
C1263 C1266 1.363 . S
N1264 C1266 1.356 . S
N1264 H1276 0.984 . S
N1264 H1277 0.985 . S
N1265 C1267 1.356 . S
N1265 H1270 0.984 . S
N1265 H1271 0.985 . S
C1266 C1260 1.379 . S
C1266 C1263 1.363 . S
C1266 N1264 1.356 . S
C1267 C1261 1.363 . S
C1267 C1262 1.379 . S
C1267 N1265 1.356 . S
N1268 C1260 1.356 . S
N1268 H1274 0.984 . S
N1268 H1275 0.984 . S
N1269 C1262 1.356 . S
N1269 H1272 0.984 . S
N1269 H1273 0.985 . S
H1270 N1265 0.984 . S
H1271 N1265 0.985 . S
H1272 N1269 0.984 . S
H1273 N1269 0.985 . S
H1274 N1268 0.984 . S
H1275 N1268 0.984 . S
H1276 N1264 0.984 . S
H1277 N1264 0.985 . S
C1278 C1279 1.363 . S
C1278 C1284 1.379 . S
C1278 N1286 1.356 . S
C1279 C1278 1.363 . S
C1279 C1285 1.363 . S
C1280 C1281 1.363 . S
C1280 C1285 1.379 . S
C1280 N1287 1.356 . S
C1281 C1280 1.363 . S
C1281 C1284 1.363 . S
N1282 C1284 1.356 . S
N1282 H1294 0.984 . S
N1282 H1295 0.985 . S
N1283 C1285 1.356 . S
N1283 H1288 0.984 . S
N1283 H1289 0.985 . S
C1284 C1278 1.379 . S
C1284 C1281 1.363 . S
C1284 N1282 1.356 . S
C1285 C1279 1.363 . S
C1285 C1280 1.379 . S
C1285 N1283 1.356 . S
N1286 C1278 1.356 . S
N1286 H1292 0.984 . S
N1286 H1293 0.984 . S
N1287 C1280 1.356 . S
N1287 H1290 0.984 . S
N1287 H1291 0.985 . S
H1288 N1283 0.984 . S
H1289 N1283 0.985 . S
H1290 N1287 0.984 . S
H1291 N1287 0.985 . S
H1292 N1286 0.984 . S
H1293 N1286 0.984 . S
H1294 N1282 0.984 . S
H1295 N1282 0.985 . S
C1296 C1297 1.363 . S
C1296 C1302 1.379 . S
C1296 N1304 1.356 . S
C1297 C1296 1.363 . S
C1297 C1303 1.363 . S
C1298 C1299 1.363 . S
C1298 C1303 1.379 . S
C1298 N1305 1.356 . S
C1299 C1298 1.363 . S
C1299 C1302 1.363 . S
N1300 C1302 1.356 . S
N1300 H1312 0.984 . S
N1300 H1313 0.985 . S
N1301 C1303 1.356 . S
N1301 H1306 0.984 . S
N1301 H1307 0.985 . S
C1302 C1296 1.379 . S
C1302 C1299 1.363 . S
C1302 N1300 1.356 . S
C1303 C1297 1.363 . S
C1303 C1298 1.379 . S
C1303 N1301 1.356 . S
N1304 C1296 1.356 . S
N1304 H1310 0.984 . S
N1304 H1311 0.984 . S
N1305 C1298 1.356 . S
N1305 H1308 0.984 . S
N1305 H1309 0.985 . S
H1306 N1301 0.984 . S
H1307 N1301 0.985 . S
H1308 N1305 0.984 . S
H1309 N1305 0.985 . S
H1310 N1304 0.984 . S
H1311 N1304 0.984 . S
H1312 N1300 0.984 . S
H1313 N1300 0.985 . S
C1314 C1315 1.363 . S
C1314 C1320 1.379 . S
C1314 N1322 1.356 . S
C1315 C1314 1.363 . S
C1315 C1321 1.363 . S
C1316 C1317 1.363 . S
C1316 C1321 1.379 . S
C1316 N1323 1.356 . S
C1317 C1316 1.363 . S
C1317 C1320 1.363 . S
N1318 C1320 1.356 . S
N1318 H1330 0.984 . S
N1318 H1331 0.985 . S
N1319 C1321 1.356 . S
N1319 H1324 0.984 . S
N1319 H1325 0.985 . S
C1320 C1314 1.379 . S
C1320 C1317 1.363 . S
C1320 N1318 1.356 . S
C1321 C1315 1.363 . S
C1321 C1316 1.379 . S
C1321 N1319 1.356 . S
N1322 C1314 1.356 . S
N1322 H1328 0.984 . S
N1322 H1329 0.984 . S
N1323 C1316 1.356 . S
N1323 H1326 0.984 . S
N1323 H1327 0.985 . S
H1324 N1319 0.984 . S
H1325 N1319 0.985 . S
H1326 N1323 0.984 . S
H1327 N1323 0.985 . S
H1328 N1322 0.984 . S
H1329 N1322 0.984 . S
H1330 N1318 0.984 . S
H1331 N1318 0.985 . S
C1332 C1333 1.363 . S
C1332 C1338 1.379 . S
C1332 N1340 1.356 . S
C1333 C1332 1.363 . S
C1333 C1339 1.363 . S
C1334 C1335 1.363 . S
C1334 C1339 1.379 . S
C1334 N1341 1.356 . S
C1335 C1334 1.363 . S
C1335 C1338 1.363 . S
N1336 C1338 1.356 . S
N1336 H1348 0.984 . S
N1336 H1349 0.985 . S
N1337 C1339 1.356 . S
N1337 H1342 0.984 . S
N1337 H1343 0.985 . S
C1338 C1332 1.379 . S
C1338 C1335 1.363 . S
C1338 N1336 1.356 . S
C1339 C1333 1.363 . S
C1339 C1334 1.379 . S
C1339 N1337 1.356 . S
N1340 C1332 1.356 . S
N1340 H1346 0.984 . S
N1340 H1347 0.984 . S
N1341 C1334 1.356 . S
N1341 H1344 0.984 . S
N1341 H1345 0.985 . S
H1342 N1337 0.984 . S
H1343 N1337 0.985 . S
H1344 N1341 0.984 . S
H1345 N1341 0.985 . S
H1346 N1340 0.984 . S
H1347 N1340 0.984 . S
H1348 N1336 0.984 . S
H1349 N1336 0.985 . S
C1350 C1351 1.363 . S
C1350 C1356 1.379 . S
C1350 N1358 1.356 . S
C1351 C1350 1.363 . S
C1351 C1357 1.363 . S
C1352 C1353 1.363 . S
C1352 C1357 1.379 . S
C1352 N1359 1.356 . S
C1353 C1352 1.363 . S
C1353 C1356 1.363 . S
N1354 C1356 1.356 . S
N1354 H1366 0.984 . S
N1354 H1367 0.985 . S
N1355 C1357 1.356 . S
N1355 H1360 0.984 . S
N1355 H1361 0.985 . S
C1356 C1350 1.379 . S
C1356 C1353 1.363 . S
C1356 N1354 1.356 . S
C1357 C1351 1.363 . S
C1357 C1352 1.379 . S
C1357 N1355 1.356 . S
N1358 C1350 1.356 . S
N1358 H1364 0.984 . S
N1358 H1365 0.984 . S
N1359 C1352 1.356 . S
N1359 H1362 0.984 . S
N1359 H1363 0.985 . S
H1360 N1355 0.984 . S
H1361 N1355 0.985 . S
H1362 N1359 0.984 . S
H1363 N1359 0.985 . S
H1364 N1358 0.984 . S
H1365 N1358 0.984 . S
H1366 N1354 0.984 . S
H1367 N1354 0.985 . S
C1368 C1369 1.363 . S
C1368 C1374 1.379 . S
C1368 N1376 1.356 . S
C1369 C1368 1.363 . S
C1369 C1375 1.363 . S
C1370 C1371 1.363 . S
C1370 C1375 1.379 . S
C1370 N1377 1.356 . S
C1371 C1370 1.363 . S
C1371 C1374 1.363 . S
N1372 C1374 1.356 . S
N1372 H1384 0.984 . S
N1372 H1385 0.985 . S
N1373 C1375 1.356 . S
N1373 H1378 0.984 . S
N1373 H1379 0.985 . S
C1374 C1368 1.379 . S
C1374 C1371 1.363 . S
C1374 N1372 1.356 . S
C1375 C1369 1.363 . S
C1375 C1370 1.379 . S
C1375 N1373 1.356 . S
N1376 C1368 1.356 . S
N1376 H1382 0.984 . S
N1376 H1383 0.984 . S
N1377 C1370 1.356 . S
N1377 H1380 0.984 . S
N1377 H1381 0.985 . S
H1378 N1373 0.984 . S
H1379 N1373 0.985 . S
H1380 N1377 0.984 . S
H1381 N1377 0.985 . S
H1382 N1376 0.984 . S
H1383 N1376 0.984 . S
H1384 N1372 0.984 . S
H1385 N1372 0.985 . S
C1386 C1387 1.363 . S
C1386 C1392 1.379 . S
C1386 N1394 1.356 . S
C1387 C1386 1.363 . S
C1387 C1393 1.363 . S
C1388 C1389 1.363 . S
C1388 C1393 1.379 . S
C1388 N1395 1.356 . S
C1389 C1388 1.363 . S
C1389 C1392 1.363 . S
N1390 C1392 1.356 . S
N1390 H1402 0.984 . S
N1390 H1403 0.985 . S
N1391 C1393 1.356 . S
N1391 H1396 0.984 . S
N1391 H1397 0.985 . S
C1392 C1386 1.379 . S
C1392 C1389 1.363 . S
C1392 N1390 1.356 . S
C1393 C1387 1.363 . S
C1393 C1388 1.379 . S
C1393 N1391 1.356 . S
N1394 C1386 1.356 . S
N1394 H1400 0.984 . S
N1394 H1401 0.984 . S
N1395 C1388 1.356 . S
N1395 H1398 0.984 . S
N1395 H1399 0.985 . S
H1396 N1391 0.984 . S
H1397 N1391 0.985 . S
H1398 N1395 0.984 . S
H1399 N1395 0.985 . S
H1400 N1394 0.984 . S
H1401 N1394 0.984 . S
H1402 N1390 0.984 . S
H1403 N1390 0.985 . S
C1404 C1405 1.363 . S
C1404 C1410 1.379 . S
C1404 N1412 1.356 . S
C1405 C1404 1.363 . S
C1405 C1411 1.363 1_655 S
C1406 C1407 1.363 . S
C1406 C1411 1.379 . S
C1406 N1413 1.356 . S
C1407 C1406 1.363 . S
C1407 C1410 1.363 1_455 S
N1408 C1410 1.356 1_455 S
N1408 H1420 0.984 1_455 S
N1408 H1421 0.985 . S
N1409 C1411 1.359 1_655 S
N1409 H1414 0.992 . S
N1409 H1415 0.974 1_655 S
C1410 C1404 1.379 . S
C1410 C1407 1.363 1_655 S
C1410 N1408 1.356 1_655 S
C1411 C1405 1.363 1_455 S
C1411 C1406 1.379 . S
C1411 N1409 1.359 1_455 S
N1412 C1404 1.356 . S
N1412 H1418 0.984 . S
N1412 H1419 0.984 . S
N1413 C1406 1.356 . S
N1413 H1416 0.984 . S
N1413 H1417 0.985 . S
H1414 N1409 0.992 . S
H1415 N1409 0.974 1_455 S
H1416 N1413 0.984 . S
H1417 N1413 0.985 . S
H1418 N1412 0.984 . S
H1419 N1412 0.984 . S
H1420 N1408 0.984 1_655 S
H1421 N1408 0.985 . S
C1422 C1423 1.363 . S
C1422 C1428 1.379 . S
C1422 N1430 1.356 . S
C1423 C1422 1.363 . S
C1423 C1429 1.363 . S
C1424 C1425 1.363 . S
C1424 C1429 1.379 . S
C1424 N1431 1.356 . S
C1425 C1424 1.363 . S
C1425 C1428 1.363 . S
N1426 C1428 1.356 . S
N1426 H1438 0.984 . S
N1426 H1439 0.985 . S
N1427 C1429 1.356 . S
N1427 H1432 0.984 . S
N1427 H1433 0.985 . S
C1428 C1422 1.379 . S
C1428 C1425 1.363 . S
C1428 N1426 1.356 . S
C1429 C1423 1.363 . S
C1429 C1424 1.379 . S
C1429 N1427 1.356 . S
N1430 C1422 1.356 . S
N1430 H1436 0.984 . S
N1430 H1437 0.984 . S
N1431 C1424 1.356 . S
N1431 H1434 0.984 . S
N1431 H1435 0.985 . S
H1432 N1427 0.984 . S
H1433 N1427 0.985 . S
H1434 N1431 0.984 . S
H1435 N1431 0.985 . S
H1436 N1430 0.984 . S
H1437 N1430 0.984 . S
H1438 N1426 0.984 . S
H1439 N1426 0.985 . S
C1440 C1441 1.363 1_545 S
C1440 C1446 1.379 . S
C1440 N1448 1.356 . S
C1441 C1440 1.363 1_565 S
C1441 C1447 1.363 . S
C1442 C1443 1.363 1_565 S
C1442 C1447 1.379 . S
C1442 N1449 1.356 . S
C1443 C1442 1.363 1_545 S
C1443 C1446 1.363 . S
N1444 C1446 1.356 . S
N1444 H1456 0.984 . S
N1444 H1457 0.985 . S
N1445 C1447 1.356 . S
N1445 H1450 0.984 . S
N1445 H1451 0.985 . S
C1446 C1440 1.379 . S
C1446 C1443 1.363 . S
C1446 N1444 1.356 . S
C1447 C1441 1.363 . S
C1447 C1442 1.379 . S
C1447 N1445 1.356 . S
N1448 C1440 1.356 . S
N1448 H1454 0.984 . S
N1448 H1455 0.984 . S
N1449 C1442 1.356 . S
N1449 H1452 0.984 . S
N1449 H1453 0.985 . S
H1450 N1445 0.984 . S
H1451 N1445 0.985 . S
H1452 N1449 0.984 . S
H1453 N1449 0.985 . S
H1454 N1448 0.984 . S
H1455 N1448 0.984 . S
H1456 N1444 0.984 . S
H1457 N1444 0.985 . S
C1458 C1459 1.363 . S
C1458 C1464 1.379 . S
C1458 N1466 1.356 . S
C1459 C1458 1.363 . S
C1459 C1465 1.363 1_565 S
C1460 C1461 1.363 . S
C1460 C1465 1.379 . S
C1460 N1467 1.356 . S
C1461 C1460 1.363 . S
C1461 C1464 1.363 1_545 S
N1462 C1464 1.356 . S
N1462 H1474 0.984 . S
N1462 H1475 0.985 1_565 S
N1463 C1465 1.356 . S
N1463 H1468 0.980 1_545 S
N1463 H1469 0.985 . S
C1464 C1458 1.379 . S
C1464 C1461 1.363 1_565 S
C1464 N1462 1.356 . S
C1465 C1459 1.363 1_545 S
C1465 C1460 1.379 . S
C1465 N1463 1.356 . S
N1466 C1458 1.356 . S
N1466 H1472 0.984 . S
N1466 H1473 0.984 . S
N1467 C1460 1.356 . S
N1467 H1470 0.984 . S
N1467 H1471 0.985 . S
H1468 N1463 0.980 1_565 S
H1469 N1463 0.985 . S
H1470 N1467 0.984 . S
H1471 N1467 0.985 . S
H1472 N1466 0.984 . S
H1473 N1466 0.984 . S
H1474 N1462 0.984 . S
H1475 N1462 0.985 1_545 S
C1476 C1477 1.363 1_655 S
C1476 C1482 1.379 . S
C1476 N1484 1.356 . S
C1477 C1476 1.363 1_455 S
C1477 C1483 1.363 . S
C1478 C1479 1.363 1_455 S
C1478 C1483 1.379 . S
C1478 N1485 1.356 . S
C1479 C1478 1.363 1_655 S
C1479 C1482 1.363 . S
N1480 C1482 1.356 . S
N1480 H1492 0.984 . S
N1480 H1493 0.985 . S
N1481 C1483 1.356 . S
N1481 H1486 0.984 . S
N1481 H1487 0.985 . S
C1482 C1476 1.379 . S
C1482 C1479 1.363 . S
C1482 N1480 1.356 . S
C1483 C1477 1.363 . S
C1483 C1478 1.379 . S
C1483 N1481 1.356 . S
N1484 C1476 1.356 . S
N1484 H1490 0.984 . S
N1484 H1491 0.984 1_655 S
N1485 C1478 1.356 . S
N1485 H1488 0.984 1_455 S
N1485 H1489 0.985 . S
H1486 N1481 0.984 . S
H1487 N1481 0.985 . S
H1488 N1485 0.984 1_655 S
H1489 N1485 0.985 . S
H1490 N1484 0.984 . S
H1491 N1484 0.984 1_455 S
H1492 N1480 0.984 . S
H1493 N1480 0.985 . S
C1494 C1495 1.363 . S
C1494 C1500 1.379 . S
C1494 N1502 1.356 . S
C1495 C1494 1.363 . S
C1495 C1501 1.363 . S
C1496 C1497 1.363 . S
C1496 C1501 1.379 . S
C1496 N1503 1.356 . S
C1497 C1496 1.363 . S
C1497 C1500 1.363 . S
N1498 C1500 1.356 . S
N1498 H1510 0.984 . S
N1498 H1511 0.985 . S
N1499 C1501 1.356 . S
N1499 H1504 0.984 . S
N1499 H1505 0.985 . S
C1500 C1494 1.379 . S
C1500 C1497 1.363 . S
C1500 N1498 1.356 . S
C1501 C1495 1.363 . S
C1501 C1496 1.379 . S
C1501 N1499 1.356 . S
N1502 C1494 1.356 . S
N1502 H1508 0.984 . S
N1502 H1509 0.984 . S
N1503 C1496 1.356 . S
N1503 H1506 0.984 . S
N1503 H1507 0.985 . S
H1504 N1499 0.984 . S
H1505 N1499 0.985 . S
H1506 N1503 0.984 . S
H1507 N1503 0.985 . S
H1508 N1502 0.984 . S
H1509 N1502 0.984 . S
H1510 N1498 0.984 . S
H1511 N1498 0.985 . S
C1512 C1513 1.363 . S
C1512 C1518 1.379 . S
C1512 N1520 1.356 . S
C1513 C1512 1.363 . S
C1513 C1519 1.363 . S
C1514 C1515 1.363 . S
C1514 C1519 1.379 . S
C1514 N1521 1.356 . S
C1515 C1514 1.363 . S
C1515 C1518 1.363 . S
N1516 C1518 1.356 . S
N1516 H1528 0.984 . S
N1516 H1529 0.985 . S
N1517 C1519 1.356 . S
N1517 H1522 0.984 . S
N1517 H1523 0.985 . S
C1518 C1512 1.379 . S
C1518 C1515 1.363 . S
C1518 N1516 1.356 . S
C1519 C1513 1.363 . S
C1519 C1514 1.379 . S
C1519 N1517 1.356 . S
N1520 C1512 1.356 . S
N1520 H1526 0.984 . S
N1520 H1527 0.984 . S
N1521 C1514 1.356 . S
N1521 H1524 0.984 . S
N1521 H1525 0.985 . S
H1522 N1517 0.984 . S
H1523 N1517 0.985 . S
H1524 N1521 0.984 . S
H1525 N1521 0.985 . S
H1526 N1520 0.984 . S
H1527 N1520 0.984 . S
H1528 N1516 0.984 . S
H1529 N1516 0.985 . S
C1530 C1531 1.363 1_565 S
C1530 C1536 1.379 . S
C1530 N1538 1.356 . S
C1531 C1530 1.363 1_545 S
C1531 C1537 1.363 . S
C1532 C1533 1.365 . S
C1532 C1537 1.379 1_565 S
C1532 N1539 1.355 . S
C1533 C1532 1.365 . S
C1533 C1536 1.363 . S
N1534 C1536 1.356 . S
N1534 H1546 0.984 . S
N1534 H1547 0.985 . S
N1535 C1537 1.356 . S
N1535 H1540 0.984 . S
N1535 H1541 0.985 . S
C1536 C1530 1.379 . S
C1536 C1533 1.363 . S
C1536 N1534 1.356 . S
C1537 C1531 1.363 . S
C1537 C1532 1.379 1_545 S
C1537 N1535 1.356 . S
N1538 C1530 1.356 . S
N1538 H1544 0.984 . S
N1538 H1545 0.985 1_565 S
N1539 C1532 1.355 . S
N1539 H1542 0.984 . S
N1539 H1543 0.985 1_565 S
H1540 N1535 0.984 . S
H1541 N1535 0.985 . S
H1542 N1539 0.984 . S
H1543 N1539 0.985 1_545 S
H1544 N1538 0.984 . S
H1545 N1538 0.985 1_545 S
H1546 N1534 0.984 . S
H1547 N1534 0.985 . S
C1548 C1549 1.363 1_455 S
C1548 C1554 1.379 . S
C1548 N1556 1.356 . S
C1549 C1548 1.363 1_655 S
C1549 C1555 1.363 . S
C1550 C1551 1.363 1_655 S
C1550 C1555 1.379 . S
C1550 N1557 1.356 . S
C1551 C1550 1.363 1_455 S
C1551 C1554 1.363 . S
N1552 C1554 1.356 . S
N1552 H1564 0.984 . S
N1552 H1565 0.985 . S
N1553 C1555 1.356 . S
N1553 H1558 0.984 . S
N1553 H1559 0.985 . S
C1554 C1548 1.379 . S
C1554 C1551 1.363 . S
C1554 N1552 1.356 . S
C1555 C1549 1.363 . S
C1555 C1550 1.379 . S
C1555 N1553 1.356 . S
N1556 C1548 1.356 . S
N1556 H1562 0.984 . S
N1556 H1563 0.984 . S
N1557 C1550 1.356 . S
N1557 H1560 0.984 . S
N1557 H1561 0.985 . S
H1558 N1553 0.984 . S
H1559 N1553 0.985 . S
H1560 N1557 0.984 . S
H1561 N1557 0.985 . S
H1562 N1556 0.984 . S
H1563 N1556 0.984 . S
H1564 N1552 0.984 . S
H1565 N1552 0.985 . S
C1566 C1567 1.363 . S
C1566 C1572 1.379 . S
C1566 N1574 1.356 . S
C1567 C1566 1.363 . S
C1567 C1573 1.363 . S
C1568 C1569 1.363 . S
C1568 C1573 1.379 . S
C1568 N1575 1.356 . S
C1569 C1568 1.363 . S
C1569 C1572 1.363 . S
N1570 C1572 1.356 . S
N1570 H1582 0.984 . S
N1570 H1583 0.985 . S
N1571 C1573 1.356 . S
N1571 H1576 0.984 . S
N1571 H1577 0.985 . S
C1572 C1566 1.379 . S
C1572 C1569 1.363 . S
C1572 N1570 1.356 . S
C1573 C1567 1.363 . S
C1573 C1568 1.379 . S
C1573 N1571 1.356 . S
N1574 C1566 1.356 . S
N1574 H1580 0.984 . S
N1574 H1581 0.984 . S
N1575 C1568 1.356 . S
N1575 H1578 0.984 . S
N1575 H1579 0.985 . S
H1576 N1571 0.984 . S
H1577 N1571 0.985 . S
H1578 N1575 0.984 . S
H1579 N1575 0.985 . S
H1580 N1574 0.984 . S
H1581 N1574 0.984 . S
H1582 N1570 0.984 . S
H1583 N1570 0.985 . S
C1584 C1585 1.363 . S
C1584 C1590 1.379 . S
C1584 N1592 1.356 . S
C1585 C1584 1.363 . S
C1585 C1591 1.363 1_565 S
C1586 C1587 1.363 . S
C1586 C1591 1.379 . S
C1586 N1593 1.356 . S
C1587 C1586 1.363 . S
C1587 C1590 1.363 1_545 S
N1588 C1590 1.356 . S
N1588 H1600 0.984 . S
N1588 H1601 0.985 . S
N1589 C1591 1.356 . S
N1589 H1594 0.984 . S
N1589 H1595 0.985 . S
C1590 C1584 1.379 . S
C1590 C1587 1.363 1_565 S
C1590 N1588 1.356 . S
C1591 C1585 1.363 1_545 S
C1591 C1586 1.379 . S
C1591 N1589 1.356 . S
N1592 C1584 1.356 . S
N1592 H1598 0.984 . S
N1592 H1599 0.984 . S
N1593 C1586 1.356 . S
N1593 H1596 0.984 . S
N1593 H1597 0.985 . S
H1594 N1589 0.984 . S
H1595 N1589 0.985 . S
H1596 N1593 0.984 . S
H1597 N1593 0.985 . S
H1598 N1592 0.984 . S
H1599 N1592 0.984 . S
H1600 N1588 0.984 . S
H1601 N1588 0.985 . S
C1602 C1603 1.363 . S
C1602 C1608 1.379 . S
C1602 N1610 1.356 . S
C1603 C1602 1.363 . S
C1603 C1609 1.363 1_655 S
C1604 C1605 1.363 . S
C1604 C1609 1.379 . S
C1604 N1611 1.356 . S
C1605 C1604 1.363 . S
C1605 C1608 1.363 1_455 S
N1606 C1608 1.356 . S
N1606 H1618 0.984 . S
N1606 H1619 0.985 . S
N1607 C1609 1.356 . S
N1607 H1612 0.984 . S
N1607 H1613 0.985 . S
C1608 C1602 1.379 . S
C1608 C1605 1.363 1_655 S
C1608 N1606 1.356 . S
C1609 C1603 1.363 1_455 S
C1609 C1604 1.379 . S
C1609 N1607 1.356 . S
N1610 C1602 1.356 . S
N1610 H1616 0.984 . S
N1610 H1617 0.984 . S
N1611 C1604 1.356 . S
N1611 H1614 0.984 . S
N1611 H1615 0.985 . S
H1612 N1607 0.984 . S
H1613 N1607 0.985 . S
H1614 N1611 0.984 . S
H1615 N1611 0.985 . S
H1616 N1610 0.984 . S
H1617 N1610 0.984 . S
H1618 N1606 0.984 . S
H1619 N1606 0.985 . S
C1620 C1621 1.363 . S
C1620 C1626 1.379 . S
C1620 N1628 1.356 . S
C1621 C1620 1.363 . S
C1621 C1627 1.363 . S
C1622 C1623 1.363 . S
C1622 C1627 1.379 . S
C1622 N1629 1.356 . S
C1623 C1622 1.363 . S
C1623 C1626 1.363 . S
N1624 C1626 1.356 . S
N1624 H1636 0.984 . S
N1624 H1637 0.985 . S
N1625 C1627 1.356 . S
N1625 H1630 0.984 . S
N1625 H1631 0.985 . S
C1626 C1620 1.379 . S
C1626 C1623 1.363 . S
C1626 N1624 1.356 . S
C1627 C1621 1.363 . S
C1627 C1622 1.379 . S
C1627 N1625 1.356 . S
N1628 C1620 1.356 . S
N1628 H1634 0.984 . S
N1628 H1635 0.984 . S
N1629 C1622 1.356 . S
N1629 H1632 0.984 . S
N1629 H1633 0.985 . S
H1630 N1625 0.984 . S
H1631 N1625 0.985 . S
H1632 N1629 0.984 . S
H1633 N1629 0.985 . S
H1634 N1628 0.984 . S
H1635 N1628 0.984 . S
H1636 N1624 0.984 . S
H1637 N1624 0.985 . S
C1638 C1639 1.363 . S
C1638 C1644 1.379 1_565 S
C1638 N1646 1.356 . S
C1639 C1638 1.363 . S
C1639 C1645 1.363 1_565 S
C1640 C1641 1.363 . S
C1640 C1645 1.379 . S
C1640 N1647 1.356 . S
C1641 C1640 1.363 . S
C1641 C1644 1.363 . S
N1642 C1644 1.356 . S
N1642 H1654 0.984 1_545 S
N1642 H1655 0.985 . S
N1643 C1645 1.356 . S
N1643 H1648 0.984 1_545 S
N1643 H1649 0.985 . S
C1644 C1638 1.379 1_545 S
C1644 C1641 1.363 . S
C1644 N1642 1.356 . S
C1645 C1639 1.363 1_545 S
C1645 C1640 1.379 . S
C1645 N1643 1.356 . S
N1646 C1638 1.356 . S
N1646 H1652 0.984 . S
N1646 H1653 0.984 . S
N1647 C1640 1.356 . S
N1647 H1650 0.984 . S
N1647 H1651 0.985 . S
H1648 N1643 0.984 1_565 S
H1649 N1643 0.985 . S
H1650 N1647 0.984 . S
H1651 N1647 0.985 . S
H1652 N1646 0.984 . S
H1653 N1646 0.984 . S
H1654 N1642 0.984 1_565 S
H1655 N1642 0.985 . S
C1656 C1657 1.363 . S
C1656 C1662 1.379 1_455 S
C1656 N1664 1.356 . S
C1657 C1656 1.363 . S
C1657 C1663 1.363 1_455 S
C1658 C1659 1.363 . S
C1658 C1663 1.379 . S
C1658 N1665 1.356 . S
C1659 C1658 1.363 . S
C1659 C1662 1.363 . S
N1660 C1662 1.356 . S
N1660 H1672 0.984 . S
N1660 H1673 0.985 . S
N1661 C1663 1.356 . S
N1661 H1666 0.984 1_655 S
N1661 H1667 0.985 . S
C1662 C1656 1.379 1_655 S
C1662 C1659 1.363 . S
C1662 N1660 1.356 . S
C1663 C1657 1.363 1_655 S
C1663 C1658 1.379 . S
C1663 N1661 1.356 . S
N1664 C1656 1.356 . S
N1664 H1670 0.984 . S
N1664 H1671 0.984 . S
N1665 C1658 1.356 . S
N1665 H1668 0.984 . S
N1665 H1669 0.985 . S
H1666 N1661 0.984 1_455 S
H1667 N1661 0.985 . S
H1668 N1665 0.984 . S
H1669 N1665 0.985 . S
H1670 N1664 0.984 . S
H1671 N1664 0.984 . S
H1672 N1660 0.984 . S
H1673 N1660 0.985 . S
C1674 C1675 1.363 . S
C1674 C1680 1.379 . S
C1674 N1682 1.356 . S
C1675 C1674 1.363 . S
C1675 C1681 1.363 . S
C1676 C1677 1.363 . S
C1676 C1681 1.379 . S
C1676 N1683 1.356 . S
C1677 C1676 1.363 . S
C1677 C1680 1.363 . S
N1678 C1680 1.356 . S
N1678 H1690 0.984 . S
N1678 H1691 0.985 . S
N1679 C1681 1.356 . S
N1679 H1684 0.984 . S
N1679 H1685 0.985 . S
C1680 C1674 1.379 . S
C1680 C1677 1.363 . S
C1680 N1678 1.356 . S
C1681 C1675 1.363 . S
C1681 C1676 1.379 . S
C1681 N1679 1.356 . S
N1682 C1674 1.356 . S
N1682 H1688 0.984 . S
N1682 H1689 0.984 . S
N1683 C1676 1.356 . S
N1683 H1686 0.984 . S
N1683 H1687 0.985 . S
H1684 N1679 0.984 . S
H1685 N1679 0.985 . S
H1686 N1683 0.984 . S
H1687 N1683 0.985 . S
H1688 N1682 0.984 . S
H1689 N1682 0.984 . S
H1690 N1678 0.984 . S
H1691 N1678 0.985 . S
C1692 C1693 1.363 . S
C1692 C1698 1.379 1_565 S
C1692 N1700 1.356 . S
C1693 C1692 1.363 . S
C1693 C1699 1.363 . S
C1694 C1695 1.363 . S
C1694 C1699 1.379 1_545 S
C1694 N1701 1.356 . S
C1695 C1694 1.363 . S
C1695 C1698 1.363 . S
N1696 C1698 1.356 . S
N1696 H1708 0.984 . S
N1696 H1709 0.985 . S
N1697 C1699 1.356 . S
N1697 H1702 0.984 . S
N1697 H1703 0.985 . S
C1698 C1692 1.379 1_545 S
C1698 C1695 1.363 . S
C1698 N1696 1.356 . S
C1699 C1693 1.363 . S
C1699 C1694 1.379 1_565 S
C1699 N1697 1.356 . S
N1700 C1692 1.356 . S
N1700 H1706 0.984 . S
N1700 H1707 0.984 . S
N1701 C1694 1.356 . S
N1701 H1704 0.984 . S
N1701 H1705 0.985 . S
H1702 N1697 0.984 . S
H1703 N1697 0.985 . S
H1704 N1701 0.984 . S
H1705 N1701 0.985 . S
H1706 N1700 0.984 . S
H1707 N1700 0.984 . S
H1708 N1696 0.984 . S
H1709 N1696 0.985 . S
C1710 C1711 1.363 . S
C1710 C1716 1.379 . S
C1710 N1718 1.356 . S
C1711 C1710 1.363 . S
C1711 C1717 1.363 1_455 S
C1712 C1713 1.363 . S
C1712 C1717 1.379 . S
C1712 N1719 1.356 . S
C1713 C1712 1.363 . S
C1713 C1716 1.363 1_655 S
N1714 C1716 1.356 . S
N1714 H1726 0.984 . S
N1714 H1727 0.985 . S
N1715 C1717 1.356 . S
N1715 H1720 0.984 1_655 S
N1715 H1721 0.985 . S
C1716 C1710 1.379 . S
C1716 C1713 1.363 1_455 S
C1716 N1714 1.356 . S
C1717 C1711 1.363 1_655 S
C1717 C1712 1.379 . S
C1717 N1715 1.356 . S
N1718 C1710 1.356 . S
N1718 H1724 0.984 . S
N1718 H1725 0.984 . S
N1719 C1712 1.356 . S
N1719 H1722 0.984 . S
N1719 H1723 0.985 . S
H1720 N1715 0.984 1_455 S
H1721 N1715 0.985 . S
H1722 N1719 0.984 . S
H1723 N1719 0.985 . S
H1724 N1718 0.984 . S
H1725 N1718 0.984 . S
H1726 N1714 0.984 . S
H1727 N1714 0.985 . S
C1728 C1729 1.356 1_455 S
C1728 C1734 1.385 . S
C1728 N1736 1.355 1_455 S
C1729 C1728 1.356 1_655 S
C1729 C1735 1.363 . S
C1730 C1731 1.363 . S
C1730 C1735 1.379 1_455 S
C1730 N1737 1.356 . S
C1731 C1730 1.363 . S
C1731 C1734 1.363 . S
N1732 C1734 1.356 . S
N1732 H1744 0.984 . S
N1732 H1745 0.985 . S
N1733 C1735 1.356 . S
N1733 H1738 0.984 . S
N1733 H1739 0.985 . S
C1734 C1728 1.385 . S
C1734 C1731 1.363 . S
C1734 N1732 1.356 . S
C1735 C1729 1.363 . S
C1735 C1730 1.379 1_655 S
C1735 N1733 1.356 . S
N1736 C1728 1.355 1_655 S
N1736 H1742 0.984 1_655 S
N1736 H1743 0.984 . S
N1737 C1730 1.356 . S
N1737 H1740 0.984 . S
N1737 H1741 0.985 1_455 S
H1738 N1733 0.984 . S
H1739 N1733 0.985 . S
H1740 N1737 0.984 . S
H1741 N1737 0.985 1_655 S
H1742 N1736 0.984 1_455 S
H1743 N1736 0.984 . S
H1744 N1732 0.984 . S
H1745 N1732 0.985 . S
C1746 C1747 1.363 . S
C1746 C1752 1.379 . S
C1746 N1754 1.356 . S
C1747 C1746 1.363 . S
C1747 C1753 1.363 . S
C1748 C1749 1.363 . S
C1748 C1753 1.379 . S
C1748 N1755 1.356 . S
C1749 C1748 1.363 . S
C1749 C1752 1.363 . S
N1750 C1752 1.356 . S
N1750 H1762 0.984 . S
N1750 H1763 0.985 . S
N1751 C1753 1.356 . S
N1751 H1756 0.984 . S
N1751 H1757 0.985 . S
C1752 C1746 1.379 . S
C1752 C1749 1.363 . S
C1752 N1750 1.356 . S
C1753 C1747 1.363 . S
C1753 C1748 1.379 . S
C1753 N1751 1.356 . S
N1754 C1746 1.356 . S
N1754 H1760 0.984 . S
N1754 H1761 0.984 . S
N1755 C1748 1.356 . S
N1755 H1758 0.984 . S
N1755 H1759 0.985 . S
H1756 N1751 0.984 . S
H1757 N1751 0.985 . S
H1758 N1755 0.984 . S
H1759 N1755 0.985 . S
H1760 N1754 0.984 . S
H1761 N1754 0.984 . S
H1762 N1750 0.984 . S
H1763 N1750 0.985 . S
C1764 C1765 1.363 . S
C1764 C1770 1.379 1_545 S
C1764 N1772 1.356 . S
C1765 C1764 1.363 . S
C1765 C1771 1.363 . S
C1766 C1767 1.363 . S
C1766 C1771 1.379 1_565 S
C1766 N1773 1.356 . S
C1767 C1766 1.363 . S
C1767 C1770 1.363 . S
N1768 C1770 1.356 . S
N1768 H1780 0.984 . S
N1768 H1781 0.985 . S
N1769 C1771 1.356 . S
N1769 H1774 0.984 . S
N1769 H1775 0.985 . S
C1770 C1764 1.379 1_565 S
C1770 C1767 1.363 . S
C1770 N1768 1.356 . S
C1771 C1765 1.363 . S
C1771 C1766 1.379 1_545 S
C1771 N1769 1.356 . S
N1772 C1764 1.356 . S
N1772 H1778 0.984 . S
N1772 H1779 0.984 . S
N1773 C1766 1.356 . S
N1773 H1776 0.984 . S
N1773 H1777 0.985 . S
H1774 N1769 0.984 . S
H1775 N1769 0.985 . S
H1776 N1773 0.984 . S
H1777 N1773 0.985 . S
H1778 N1772 0.984 . S
H1779 N1772 0.984 . S
H1780 N1768 0.984 . S
H1781 N1768 0.985 . S
C1782 C1783 1.367 1_565 S
C1782 C1788 1.375 . S
C1782 N1790 1.357 1_565 S
C1783 C1782 1.367 1_545 S
C1783 C1789 1.363 . S
C1784 C1785 1.363 . S
C1784 C1789 1.379 1_565 S
C1784 N1791 1.356 . S
C1785 C1784 1.363 . S
C1785 C1788 1.363 . S
N1786 C1788 1.356 . S
N1786 H1798 0.984 . S
N1786 H1799 0.985 . S
N1787 C1789 1.356 . S
N1787 H1792 0.984 . S
N1787 H1793 0.985 . S
C1788 C1782 1.375 . S
C1788 C1785 1.363 . S
C1788 N1786 1.356 . S
C1789 C1783 1.363 . S
C1789 C1784 1.379 1_545 S
C1789 N1787 1.356 . S
N1790 C1782 1.357 1_545 S
N1790 H1796 0.984 1_545 S
N1790 H1797 0.984 . S
N1791 C1784 1.356 . S
N1791 H1794 0.984 . S
N1791 H1795 0.985 1_565 S
H1792 N1787 0.984 . S
H1793 N1787 0.985 . S
H1794 N1791 0.984 . S
H1795 N1791 0.985 1_545 S
H1796 N1790 0.984 1_565 S
H1797 N1790 0.984 . S
H1798 N1786 0.984 . S
H1799 N1786 0.985 . S
C1800 C1801 1.363 . S
C1800 C1806 1.379 1_455 S
C1800 N1808 1.356 . S
C1801 C1800 1.363 . S
C1801 C1807 1.363 . S
C1802 C1803 1.363 1_455 S
C1802 C1807 1.379 . S
C1802 N1809 1.356 1_455 S
C1803 C1802 1.363 1_655 S
C1803 C1806 1.363 . S
N1804 C1806 1.356 . S
N1804 H1816 0.984 . S
N1804 H1817 0.985 . S
N1805 C1807 1.356 . S
N1805 H1810 0.984 . S
N1805 H1811 0.985 . S
C1806 C1800 1.379 1_655 S
C1806 C1803 1.363 . S
C1806 N1804 1.356 . S
C1807 C1801 1.363 . S
C1807 C1802 1.379 . S
C1807 N1805 1.356 . S
N1808 C1800 1.356 . S
N1808 H1814 0.984 1_455 S
N1808 H1815 0.984 . S
N1809 C1802 1.356 1_655 S
N1809 H1812 0.984 . S
N1809 H1813 0.985 1_655 S
H1810 N1805 0.984 . S
H1811 N1805 0.985 . S
H1812 N1809 0.984 . S
H1813 N1809 0.985 1_455 S
H1814 N1808 0.984 1_655 S
H1815 N1808 0.984 . S
H1816 N1804 0.984 . S
H1817 N1804 0.985 . S
C1818 C1819 1.363 . S
C1818 C1824 1.379 . S
C1818 N1826 1.356 . S
C1819 C1818 1.363 . S
C1819 C1825 1.363 . S
C1820 C1821 1.363 . S
C1820 C1825 1.379 . S
C1820 N1827 1.356 . S
C1821 C1820 1.363 . S
C1821 C1824 1.363 . S
N1822 C1824 1.356 . S
N1822 H1834 0.984 . S
N1822 H1835 0.985 . S
N1823 C1825 1.356 . S
N1823 H1828 0.984 . S
N1823 H1829 0.985 . S
C1824 C1818 1.379 . S
C1824 C1821 1.363 . S
C1824 N1822 1.356 . S
C1825 C1819 1.363 . S
C1825 C1820 1.379 . S
C1825 N1823 1.356 . S
N1826 C1818 1.356 . S
N1826 H1832 0.984 . S
N1826 H1833 0.984 . S
N1827 C1820 1.356 . S
N1827 H1830 0.984 . S
N1827 H1831 0.985 . S
H1828 N1823 0.984 . S
H1829 N1823 0.985 . S
H1830 N1827 0.984 . S
H1831 N1827 0.985 . S
H1832 N1826 0.984 . S
H1833 N1826 0.984 . S
H1834 N1822 0.984 . S
H1835 N1822 0.985 . S
C1836 C1837 1.363 . S
C1836 C1842 1.379 . S
C1836 N1844 1.356 . S
C1837 C1836 1.363 . S
C1837 C1843 1.363 . S
C1838 C1839 1.363 . S
C1838 C1843 1.379 . S
C1838 N1845 1.356 . S
C1839 C1838 1.363 . S
C1839 C1842 1.363 . S
N1840 C1842 1.356 . S
N1840 H1852 0.984 . S
N1840 H1853 0.985 . S
N1841 C1843 1.356 . S
N1841 H1846 0.984 . S
N1841 H1847 0.985 . S
C1842 C1836 1.379 . S
C1842 C1839 1.363 . S
C1842 N1840 1.356 . S
C1843 C1837 1.363 . S
C1843 C1838 1.379 . S
C1843 N1841 1.356 . S
N1844 C1836 1.356 . S
N1844 H1850 0.984 . S
N1844 H1851 0.984 . S
N1845 C1838 1.356 . S
N1845 H1848 0.984 . S
N1845 H1849 0.985 . S
H1846 N1841 0.984 . S
H1847 N1841 0.985 . S
H1848 N1845 0.984 . S
H1849 N1845 0.985 . S
H1850 N1844 0.984 . S
H1851 N1844 0.984 . S
H1852 N1840 0.984 . S
H1853 N1840 0.985 . S
C1854 C1855 1.363 . S
C1854 C1860 1.379 . S
C1854 N1862 1.356 . S
C1855 C1854 1.363 . S
C1855 C1861 1.363 . S
C1856 C1857 1.363 . S
C1856 C1861 1.379 . S
C1856 N1863 1.356 . S
C1857 C1856 1.363 . S
C1857 C1860 1.363 . S
N1858 C1860 1.356 . S
N1858 H1870 0.984 . S
N1858 H1871 0.985 . S
N1859 C1861 1.356 . S
N1859 H1864 0.984 . S
N1859 H1865 0.985 . S
C1860 C1854 1.379 . S
C1860 C1857 1.363 . S
C1860 N1858 1.356 . S
C1861 C1855 1.363 . S
C1861 C1856 1.379 . S
C1861 N1859 1.356 . S
N1862 C1854 1.356 . S
N1862 H1868 0.984 . S
N1862 H1869 0.984 . S
N1863 C1856 1.356 . S
N1863 H1866 0.984 . S
N1863 H1867 0.985 . S
H1864 N1859 0.984 . S
H1865 N1859 0.985 . S
H1866 N1863 0.984 . S
H1867 N1863 0.985 . S
H1868 N1862 0.984 . S
H1869 N1862 0.984 . S
H1870 N1858 0.984 . S
H1871 N1858 0.985 . S
C1872 C1873 1.363 . S
C1872 C1878 1.379 . S
C1872 N1880 1.356 . S
C1873 C1872 1.363 . S
C1873 C1879 1.363 . S
C1874 C1875 1.363 . S
C1874 C1879 1.379 . S
C1874 N1881 1.356 . S
C1875 C1874 1.363 . S
C1875 C1878 1.363 . S
N1876 C1878 1.356 . S
N1876 H1888 0.984 . S
N1876 H1889 0.985 . S
N1877 C1879 1.356 . S
N1877 H1882 0.984 . S
N1877 H1883 0.985 . S
C1878 C1872 1.379 . S
C1878 C1875 1.363 . S
C1878 N1876 1.356 . S
C1879 C1873 1.363 . S
C1879 C1874 1.379 . S
C1879 N1877 1.356 . S
N1880 C1872 1.356 . S
N1880 H1886 0.984 . S
N1880 H1887 0.984 . S
N1881 C1874 1.356 . S
N1881 H1884 0.984 . S
N1881 H1885 0.985 . S
H1882 N1877 0.984 . S
H1883 N1877 0.985 . S
H1884 N1881 0.984 . S
H1885 N1881 0.985 . S
H1886 N1880 0.984 . S
H1887 N1880 0.984 . S
H1888 N1876 0.984 . S
H1889 N1876 0.985 . S
C1890 C1891 1.363 . S
C1890 C1896 1.379 . S
C1890 N1898 1.356 . S
C1891 C1890 1.363 . S
C1891 C1897 1.363 . S
C1892 C1893 1.363 . S
C1892 C1897 1.379 . S
C1892 N1899 1.356 . S
C1893 C1892 1.363 . S
C1893 C1896 1.363 . S
N1894 C1896 1.356 . S
N1894 H1906 0.984 . S
N1894 H1907 0.985 . S
N1895 C1897 1.356 . S
N1895 H1900 0.984 . S
N1895 H1901 0.985 . S
C1896 C1890 1.379 . S
C1896 C1893 1.363 . S
C1896 N1894 1.356 . S
C1897 C1891 1.363 . S
C1897 C1892 1.379 . S
C1897 N1895 1.356 . S
N1898 C1890 1.356 . S
N1898 H1904 0.984 . S
N1898 H1905 0.984 . S
N1899 C1892 1.356 . S
N1899 H1902 0.984 . S
N1899 H1903 0.985 . S
H1900 N1895 0.984 . S
H1901 N1895 0.985 . S
H1902 N1899 0.984 . S
H1903 N1899 0.985 . S
H1904 N1898 0.984 . S
H1905 N1898 0.984 . S
H1906 N1894 0.984 . S
H1907 N1894 0.985 . S
C1908 C1909 1.363 . S
C1908 C1914 1.379 . S
C1908 N1916 1.356 . S
C1909 C1908 1.363 . S
C1909 C1915 1.363 . S
C1910 C1911 1.363 . S
C1910 C1915 1.379 . S
C1910 N1917 1.356 . S
C1911 C1910 1.363 . S
C1911 C1914 1.363 . S
N1912 C1914 1.356 . S
N1912 H1924 0.984 . S
N1912 H1925 0.985 . S
N1913 C1915 1.356 . S
N1913 H1918 0.984 . S
N1913 H1919 0.985 . S
C1914 C1908 1.379 . S
C1914 C1911 1.363 . S
C1914 N1912 1.356 . S
C1915 C1909 1.363 . S
C1915 C1910 1.379 . S
C1915 N1913 1.356 . S
N1916 C1908 1.356 . S
N1916 H1922 0.984 . S
N1916 H1923 0.984 . S
N1917 C1910 1.356 . S
N1917 H1920 0.984 . S
N1917 H1921 0.985 . S
H1918 N1913 0.984 . S
H1919 N1913 0.985 . S
H1920 N1917 0.984 . S
H1921 N1917 0.985 . S
H1922 N1916 0.984 . S
H1923 N1916 0.984 . S
H1924 N1912 0.984 . S
H1925 N1912 0.985 . S
C1926 C1927 1.363 . S
C1926 C1932 1.379 . S
C1926 N1934 1.356 . S
C1927 C1926 1.363 . S
C1927 C1933 1.363 . S
C1928 C1929 1.363 . S
C1928 C1933 1.379 . S
C1928 N1935 1.356 . S
C1929 C1928 1.363 . S
C1929 C1932 1.363 . S
N1930 C1932 1.356 . S
N1930 H1942 0.984 . S
N1930 H1943 0.985 . S
N1931 C1933 1.356 . S
N1931 H1936 0.984 . S
N1931 H1937 0.985 . S
C1932 C1926 1.379 . S
C1932 C1929 1.363 . S
C1932 N1930 1.356 . S
C1933 C1927 1.363 . S
C1933 C1928 1.379 . S
C1933 N1931 1.356 . S
N1934 C1926 1.356 . S
N1934 H1940 0.984 . S
N1934 H1941 0.984 . S
N1935 C1928 1.356 . S
N1935 H1938 0.984 . S
N1935 H1939 0.985 . S
H1936 N1931 0.984 . S
H1937 N1931 0.985 . S
H1938 N1935 0.984 . S
H1939 N1935 0.985 . S
H1940 N1934 0.984 . S
H1941 N1934 0.984 . S
H1942 N1930 0.984 . S
H1943 N1930 0.985 . S
C1944 C1945 1.363 . S
C1944 C1950 1.379 . S
C1944 N1952 1.356 . S
C1945 C1944 1.363 . S
C1945 C1951 1.363 . S
C1946 C1947 1.363 . S
C1946 C1951 1.379 . S
C1946 N1953 1.356 . S
C1947 C1946 1.363 . S
C1947 C1950 1.363 . S
N1948 C1950 1.356 . S
N1948 H1960 0.984 . S
N1948 H1961 0.985 . S
N1949 C1951 1.356 . S
N1949 H1954 0.984 . S
N1949 H1955 0.985 . S
C1950 C1944 1.379 . S
C1950 C1947 1.363 . S
C1950 N1948 1.356 . S
C1951 C1945 1.363 . S
C1951 C1946 1.379 . S
C1951 N1949 1.356 . S
N1952 C1944 1.356 . S
N1952 H1958 0.984 . S
N1952 H1959 0.984 . S
N1953 C1946 1.356 . S
N1953 H1956 0.984 . S
N1953 H1957 0.985 . S
H1954 N1949 0.984 . S
H1955 N1949 0.985 . S
H1956 N1953 0.984 . S
H1957 N1953 0.985 . S
H1958 N1952 0.984 . S
H1959 N1952 0.984 . S
H1960 N1948 0.984 . S
H1961 N1948 0.985 . S
C1962 C1963 1.363 . S
C1962 C1968 1.379 . S
C1962 N1970 1.356 . S
C1963 C1962 1.363 . S
C1963 C1969 1.363 . S
C1964 C1965 1.363 . S
C1964 C1969 1.379 . S
C1964 N1971 1.356 . S
C1965 C1964 1.363 . S
C1965 C1968 1.363 . S
N1966 C1968 1.356 . S
N1966 H1978 0.984 . S
N1966 H1979 0.985 . S
N1967 C1969 1.356 . S
N1967 H1972 0.984 . S
N1967 H1973 0.985 . S
C1968 C1962 1.379 . S
C1968 C1965 1.363 . S
C1968 N1966 1.356 . S
C1969 C1963 1.363 . S
C1969 C1964 1.379 . S
C1969 N1967 1.356 . S
N1970 C1962 1.356 . S
N1970 H1976 0.984 . S
N1970 H1977 0.984 . S
N1971 C1964 1.356 . S
N1971 H1974 0.984 . S
N1971 H1975 0.985 . S
H1972 N1967 0.984 . S
H1973 N1967 0.985 . S
H1974 N1971 0.984 . S
H1975 N1971 0.985 . S
H1976 N1970 0.984 . S
H1977 N1970 0.984 . S
H1978 N1966 0.984 . S
H1979 N1966 0.985 . S
C1980 C1981 1.363 . S
C1980 C1986 1.379 . S
C1980 N1988 1.356 . S
C1981 C1980 1.363 . S
C1981 C1987 1.363 . S
C1982 C1983 1.363 . S
C1982 C1987 1.379 . S
C1982 N1989 1.356 . S
C1983 C1982 1.363 . S
C1983 C1986 1.363 . S
N1984 C1986 1.356 . S
N1984 H1996 0.984 . S
N1984 H1997 0.985 . S
N1985 C1987 1.356 . S
N1985 H1990 0.984 . S
N1985 H1991 0.985 . S
C1986 C1980 1.379 . S
C1986 C1983 1.363 . S
C1986 N1984 1.356 . S
C1987 C1981 1.363 . S
C1987 C1982 1.379 . S
C1987 N1985 1.356 . S
N1988 C1980 1.356 . S
N1988 H1994 0.984 . S
N1988 H1995 0.984 . S
N1989 C1982 1.356 . S
N1989 H1992 0.984 . S
N1989 H1993 0.985 . S
H1990 N1985 0.984 . S
H1991 N1985 0.985 . S
H1992 N1989 0.984 . S
H1993 N1989 0.985 . S
H1994 N1988 0.984 . S
H1995 N1988 0.984 . S
H1996 N1984 0.984 . S
H1997 N1984 0.985 . S
C1998 C1999 1.363 . S
C1998 C2004 1.379 . S
C1998 N2006 1.356 . S
C1999 C1998 1.363 . S
C1999 C2005 1.363 . S
C2000 C2001 1.363 . S
C2000 C2005 1.379 . S
C2000 N2007 1.356 . S
C2001 C2000 1.363 . S
C2001 C2004 1.363 . S
N2002 C2004 1.356 . S
N2002 H2014 0.984 . S
N2002 H2015 0.985 . S
N2003 C2005 1.356 . S
N2003 H2008 0.984 . S
N2003 H2009 0.985 . S
C2004 C1998 1.379 . S
C2004 C2001 1.363 . S
C2004 N2002 1.356 . S
C2005 C1999 1.363 . S
C2005 C2000 1.379 . S
C2005 N2003 1.356 . S
N2006 C1998 1.356 . S
N2006 H2012 0.984 . S
N2006 H2013 0.984 . S
N2007 C2000 1.356 . S
N2007 H2010 0.984 . S
N2007 H2011 0.985 . S
H2008 N2003 0.984 . S
H2009 N2003 0.985 . S
H2010 N2007 0.984 . S
H2011 N2007 0.985 . S
H2012 N2006 0.984 . S
H2013 N2006 0.984 . S
H2014 N2002 0.984 . S
H2015 N2002 0.985 . S
C2016 C2017 1.363 . S
C2016 C2022 1.379 . S
C2016 N2024 1.356 . S
C2017 C2016 1.363 . S
C2017 C2023 1.363 . S
C2018 C2019 1.363 . S
C2018 C2023 1.379 . S
C2018 N2025 1.356 . S
C2019 C2018 1.363 . S
C2019 C2022 1.363 . S
N2020 C2022 1.356 . S
N2020 H2032 0.984 . S
N2020 H2033 0.985 . S
N2021 C2023 1.356 . S
N2021 H2026 0.984 . S
N2021 H2027 0.985 . S
C2022 C2016 1.379 . S
C2022 C2019 1.363 . S
C2022 N2020 1.356 . S
C2023 C2017 1.363 . S
C2023 C2018 1.379 . S
C2023 N2021 1.356 . S
N2024 C2016 1.356 . S
N2024 H2030 0.984 . S
N2024 H2031 0.984 . S
N2025 C2018 1.356 . S
N2025 H2028 0.984 . S
N2025 H2029 0.985 . S
H2026 N2021 0.984 . S
H2027 N2021 0.985 . S
H2028 N2025 0.984 . S
H2029 N2025 0.985 . S
H2030 N2024 0.984 . S
H2031 N2024 0.984 . S
H2032 N2020 0.984 . S
H2033 N2020 0.985 . S
C2034 C2035 1.363 . S
C2034 C2040 1.379 . S
C2034 N2042 1.356 . S
C2035 C2034 1.363 . S
C2035 C2041 1.363 . S
C2036 C2037 1.363 . S
C2036 C2041 1.379 . S
C2036 N2043 1.356 . S
C2037 C2036 1.363 . S
C2037 C2040 1.363 . S
N2038 C2040 1.356 . S
N2038 H2050 0.984 . S
N2038 H2051 0.985 . S
N2039 C2041 1.356 . S
N2039 H2044 0.984 . S
N2039 H2045 0.985 . S
C2040 C2034 1.379 . S
C2040 C2037 1.363 . S
C2040 N2038 1.356 . S
C2041 C2035 1.363 . S
C2041 C2036 1.379 . S
C2041 N2039 1.356 . S
N2042 C2034 1.356 . S
N2042 H2048 0.984 . S
N2042 H2049 0.984 . S
N2043 C2036 1.356 . S
N2043 H2046 0.984 . S
N2043 H2047 0.985 . S
H2044 N2039 0.984 . S
H2045 N2039 0.985 . S
H2046 N2043 0.984 . S
H2047 N2043 0.985 . S
H2048 N2042 0.984 . S
H2049 N2042 0.984 . S
H2050 N2038 0.984 . S
H2051 N2038 0.985 . S
C2052 C2053 1.363 . S
C2052 C2058 1.379 1_455 S
C2052 N2060 1.356 . S
C2053 C2052 1.363 . S
C2053 C2059 1.363 . S
C2054 C2055 1.363 . S
C2054 C2059 1.379 1_655 S
C2054 N2061 1.356 . S
C2055 C2054 1.363 . S
C2055 C2058 1.363 . S
N2056 C2058 1.356 . S
N2056 H2068 0.984 . S
N2056 H2069 0.985 . S
N2057 C2059 1.356 . S
N2057 H2062 0.984 . S
N2057 H2063 0.985 . S
C2058 C2052 1.379 1_655 S
C2058 C2055 1.363 . S
C2058 N2056 1.356 . S
C2059 C2053 1.363 . S
C2059 C2054 1.379 1_455 S
C2059 N2057 1.356 . S
N2060 C2052 1.356 . S
N2060 H2066 0.984 . S
N2060 H2067 0.984 . S
N2061 C2054 1.356 . S
N2061 H2064 0.984 . S
N2061 H2065 0.985 . S
H2062 N2057 0.984 . S
H2063 N2057 0.985 . S
H2064 N2061 0.984 . S
H2065 N2061 0.985 . S
H2066 N2060 0.984 . S
H2067 N2060 0.984 . S
H2068 N2056 0.984 . S
H2069 N2056 0.985 . S
C2070 C2071 1.363 . S
C2070 C2076 1.379 . S
C2070 N2078 1.356 . S
C2071 C2070 1.363 . S
C2071 C2077 1.363 . S
C2072 C2073 1.363 . S
C2072 C2077 1.379 . S
C2072 N2079 1.356 . S
C2073 C2072 1.363 . S
C2073 C2076 1.363 . S
N2074 C2076 1.356 . S
N2074 H2086 0.984 . S
N2074 H2087 0.985 . S
N2075 C2077 1.356 . S
N2075 H2080 0.984 . S
N2075 H2081 0.985 . S
C2076 C2070 1.379 . S
C2076 C2073 1.363 . S
C2076 N2074 1.356 . S
C2077 C2071 1.363 . S
C2077 C2072 1.379 . S
C2077 N2075 1.356 . S
N2078 C2070 1.356 . S
N2078 H2084 0.984 . S
N2078 H2085 0.984 . S
N2079 C2072 1.356 . S
N2079 H2082 0.984 . S
N2079 H2083 0.985 . S
H2080 N2075 0.984 . S
H2081 N2075 0.985 . S
H2082 N2079 0.984 . S
H2083 N2079 0.985 . S
H2084 N2078 0.984 . S
H2085 N2078 0.984 . S
H2086 N2074 0.984 . S
H2087 N2074 0.985 . S
C2088 C2089 1.363 . S
C2088 C2094 1.379 . S
C2088 N2096 1.356 . S
C2089 C2088 1.363 . S
C2089 C2095 1.363 1_545 S
C2090 C2091 1.363 . S
C2090 C2095 1.379 . S
C2090 N2097 1.356 . S
C2091 C2090 1.363 . S
C2091 C2094 1.363 1_565 S
N2092 C2094 1.356 . S
N2092 H2104 0.984 . S
N2092 H2105 0.985 1_545 S
N2093 C2095 1.356 . S
N2093 H2098 0.984 1_565 S
N2093 H2099 0.985 . S
C2094 C2088 1.379 . S
C2094 C2091 1.363 1_545 S
C2094 N2092 1.356 . S
C2095 C2089 1.363 1_565 S
C2095 C2090 1.379 . S
C2095 N2093 1.356 . S
N2096 C2088 1.356 . S
N2096 H2102 0.984 . S
N2096 H2103 0.984 . S
N2097 C2090 1.356 . S
N2097 H2100 0.984 . S
N2097 H2101 0.985 . S
H2098 N2093 0.984 1_545 S
H2099 N2093 0.985 . S
H2100 N2097 0.984 . S
H2101 N2097 0.985 . S
H2102 N2096 0.984 . S
H2103 N2096 0.984 . S
H2104 N2092 0.984 . S
H2105 N2092 0.985 1_565 S
C2106 C2107 1.363 . S
C2106 C2112 1.379 1_565 S
C2106 N2114 1.356 . S
C2107 C2106 1.363 . S
C2107 C2113 1.361 . S
C2108 C2109 1.363 . S
C2108 C2113 1.381 1_546 S
C2108 N2115 1.356 . S
C2109 C2108 1.363 . S
C2109 C2112 1.363 1_556 S
N2110 C2112 1.356 1_556 S
N2110 H2122 0.984 1_556 S
N2110 H2123 0.985 . S
N2111 C2113 1.356 . S
N2111 H2116 0.984 . S
N2111 H2117 0.985 1_554 S
C2112 C2106 1.379 1_545 S
C2112 C2109 1.363 1_554 S
C2112 N2110 1.356 1_554 S
C2113 C2107 1.361 . S
C2113 C2108 1.381 1_564 S
C2113 N2111 1.356 . S
N2114 C2106 1.356 . S
N2114 H2120 0.984 . S
N2114 H2121 0.984 . S
N2115 C2108 1.356 . S
N2115 H2118 0.984 . S
N2115 H2119 0.985 . S
H2116 N2111 0.984 . S
H2117 N2111 0.985 1_556 S
H2118 N2115 0.984 . S
H2119 N2115 0.985 . S
H2120 N2114 0.984 . S
H2121 N2114 0.984 . S
H2122 N2110 0.984 1_554 S
H2123 N2110 0.985 . S
C2124 C2125 1.363 1_554 S
C2124 C2130 1.379 . S
C2124 N2132 1.356 . S
C2125 C2124 1.363 1_556 S
C2125 C2131 1.334 1_655 S
C2126 C2127 1.363 1_556 S
C2126 C2131 1.401 . S
C2126 N2133 1.356 . S
C2127 C2126 1.363 1_554 S
C2127 C2130 1.363 1_455 S
N2128 C2130 1.356 . S
N2128 H2140 0.984 . S
N2128 H2141 0.985 1_655 S
N2129 C2131 1.355 1_655 S
N2129 H2134 0.984 . S
N2129 H2135 0.985 1_655 S
C2130 C2124 1.379 . S
C2130 C2127 1.363 1_655 S
C2130 N2128 1.356 . S
C2131 C2125 1.334 1_455 S
C2131 C2126 1.401 . S
C2131 N2129 1.355 1_455 S
N2132 C2124 1.356 . S
N2132 H2138 0.984 . S
N2132 H2139 0.984 1_554 S
N2133 C2126 1.356 . S
N2133 H2136 0.984 1_556 S
N2133 H2137 0.985 . S
H2134 N2129 0.984 . S
H2135 N2129 0.985 1_455 S
H2136 N2133 0.984 1_554 S
H2137 N2133 0.985 . S
H2138 N2132 0.984 . S
H2139 N2132 0.984 1_556 S
H2140 N2128 0.984 . S
H2141 N2128 0.985 1_455 S
C2142 C2143 1.363 . S
C2142 C2148 1.379 . S
C2142 N2150 1.356 . S
C2143 C2142 1.363 . S
C2143 C2149 1.363 1_554 S
C2144 C2145 1.363 . S
C2144 C2149 1.379 . S
C2144 N2151 1.356 . S
C2145 C2144 1.363 . S
C2145 C2148 1.363 1_556 S
N2146 C2148 1.356 . S
N2146 H2158 0.984 . S
N2146 H2159 0.985 1_554 S
N2147 C2149 1.359 . S
N2147 H2152 0.966 1_556 S
N2147 H2153 1.001 . S
C2148 C2142 1.379 . S
C2148 C2145 1.363 1_554 S
C2148 N2146 1.356 . S
C2149 C2143 1.363 1_556 S
C2149 C2144 1.379 . S
C2149 N2147 1.359 . S
N2150 C2142 1.356 . S
N2150 H2156 0.984 . S
N2150 H2157 0.984 . S
N2151 C2144 1.356 . S
N2151 H2154 0.984 . S
N2151 H2155 0.985 . S
H2152 N2147 0.966 1_554 S
H2153 N2147 1.001 . S
H2154 N2151 0.984 . S
H2155 N2151 0.985 . S
H2156 N2150 0.984 . S
H2157 N2150 0.984 . S
H2158 N2146 0.984 . S
H2159 N2146 0.985 1_556 S
C2160 C2161 1.363 . S
C2160 C2166 1.379 . S
C2160 N2168 1.356 . S
C2161 C2160 1.363 . S
C2161 C2167 1.363 1_556 S
C2162 C2163 1.363 . S
C2162 C2167 1.379 1_556 S
C2162 N2169 1.356 1_546 S
C2163 C2162 1.363 . S
C2163 C2166 1.363 . S
N2164 C2166 1.356 . S
N2164 H2176 0.984 . S
N2164 H2177 0.985 1_545 S
N2165 C2167 1.356 . S
N2165 H2170 0.984 . S
N2165 H2171 0.985 . S
C2166 C2160 1.379 . S
C2166 C2163 1.363 . S
C2166 N2164 1.356 . S
C2167 C2161 1.363 1_554 S
C2167 C2162 1.379 1_554 S
C2167 N2165 1.356 . S
N2168 C2160 1.356 . S
N2168 H2174 0.984 . S
N2168 H2175 0.984 . S
N2169 C2162 1.356 1_564 S
N2169 H2172 0.972 1_554 S
N2169 H2173 0.985 . S
H2170 N2165 0.984 . S
H2171 N2165 0.985 . S
H2172 N2169 0.972 1_556 S
H2173 N2169 0.985 . S
H2174 N2168 0.984 . S
H2175 N2168 0.984 . S
H2176 N2164 0.984 . S
H2177 N2164 0.985 1_565 S
C2178 C2179 1.363 . S
C2178 C2184 1.379 . S
C2178 N2186 1.356 . S
C2179 C2178 1.363 . S
C2179 C2185 1.355 1_556 S
C2180 C2181 1.363 . S
C2180 C2185 1.373 1_556 S
C2180 N2187 1.362 . S
C2181 C2180 1.363 . S
C2181 C2184 1.363 . S
N2182 C2184 1.356 1_455 S
N2182 H2194 0.984 1_455 S
N2182 H2195 0.985 . S
N2183 C2185 1.369 . S
N2183 H2188 0.984 . S
N2183 H2189 0.985 . S
C2184 C2178 1.379 . S
C2184 C2181 1.363 . S
C2184 N2182 1.356 1_655 S
C2185 C2179 1.355 1_554 S
C2185 C2180 1.373 1_554 S
C2185 N2183 1.369 . S
N2186 C2178 1.356 . S
N2186 H2192 0.984 . S
N2186 H2193 0.984 . S
N2187 C2180 1.362 . S
N2187 H2190 0.996 1_655 S
N2187 H2191 0.967 1_556 S
H2188 N2183 0.984 . S
H2189 N2183 0.985 . S
H2190 N2187 0.996 1_455 S
H2191 N2187 0.967 1_554 S
H2192 N2186 0.984 . S
H2193 N2186 0.984 . S
H2194 N2182 0.984 1_655 S
H2195 N2182 0.985 . S
C2196 C2197 1.363 . S
C2196 C2202 1.379 . S
C2196 N2204 1.356 . S
C2197 C2196 1.363 . S
C2197 C2203 1.363 . S
C2198 C2199 1.363 . S
C2198 C2203 1.379 . S
C2198 N2205 1.356 . S
C2199 C2198 1.363 . S
C2199 C2202 1.363 . S
N2200 C2202 1.356 1_554 S
N2200 H2212 0.984 . S
N2200 H2213 0.985 . S
N2201 C2203 1.356 . S
N2201 H2206 0.984 . S
N2201 H2207 0.985 . S
C2202 C2196 1.379 . S
C2202 C2199 1.363 . S
C2202 N2200 1.356 1_556 S
C2203 C2197 1.363 . S
C2203 C2198 1.379 . S
C2203 N2201 1.356 . S
N2204 C2196 1.356 . S
N2204 H2210 0.984 . S
N2204 H2211 0.984 . S
N2205 C2198 1.356 . S
N2205 H2208 0.984 . S
N2205 H2209 0.985 . S
H2206 N2201 0.984 . S
H2207 N2201 0.985 . S
H2208 N2205 0.984 . S
H2209 N2205 0.985 . S
H2210 N2204 0.984 . S
H2211 N2204 0.984 . S
H2212 N2200 0.984 . S
H2213 N2200 0.985 . S
C2214 C2215 1.363 . S
C2214 C2220 1.379 . S
C2214 N2222 1.356 . S
C2215 C2214 1.363 . S
C2215 C2221 1.363 . S
C2216 C2217 1.363 . S
C2216 C2221 1.379 . S
C2216 N2223 1.356 . S
C2217 C2216 1.363 . S
C2217 C2220 1.363 . S
N2218 C2220 1.356 . S
N2218 H2230 0.984 . S
N2218 H2231 0.985 . S
N2219 C2221 1.356 1_655 S
N2219 H2224 0.984 . S
N2219 H2225 0.985 . S
C2220 C2214 1.379 . S
C2220 C2217 1.363 . S
C2220 N2218 1.356 . S
C2221 C2215 1.363 . S
C2221 C2216 1.379 . S
C2221 N2219 1.356 1_455 S
N2222 C2214 1.356 . S
N2222 H2228 0.984 . S
N2222 H2229 0.984 1_455 S
N2223 C2216 1.356 . S
N2223 H2226 0.984 . S
N2223 H2227 0.985 . S
H2224 N2219 0.984 . S
H2225 N2219 0.985 . S
H2226 N2223 0.984 . S
H2227 N2223 0.985 . S
H2228 N2222 0.984 . S
H2229 N2222 0.984 1_655 S
H2230 N2218 0.984 . S
H2231 N2218 0.985 . S
C2232 C2233 1.363 . S
C2232 C2238 1.379 . S
C2232 N2240 1.356 . S
C2233 C2232 1.363 . S
C2233 C2239 1.363 . S
C2234 C2235 1.363 . S
C2234 C2239 1.379 . S
C2234 N2241 1.356 . S
C2235 C2234 1.363 . S
C2235 C2238 1.363 . S
N2236 C2238 1.356 . S
N2236 H2248 0.984 . S
N2236 H2249 0.985 . S
N2237 C2239 1.356 . S
N2237 H2242 0.984 . S
N2237 H2243 0.985 . S
C2238 C2232 1.379 . S
C2238 C2235 1.363 . S
C2238 N2236 1.356 . S
C2239 C2233 1.363 . S
C2239 C2234 1.379 . S
C2239 N2237 1.356 . S
N2240 C2232 1.356 . S
N2240 H2246 0.984 . S
N2240 H2247 0.984 . S
N2241 C2234 1.356 . S
N2241 H2244 0.984 . S
N2241 H2245 0.985 . S
H2242 N2237 0.984 . S
H2243 N2237 0.985 . S
H2244 N2241 0.984 . S
H2245 N2241 0.985 . S
H2246 N2240 0.984 . S
H2247 N2240 0.984 . S
H2248 N2236 0.984 . S
H2249 N2236 0.985 . S
C2250 C2251 1.363 . S
C2250 C2256 1.379 . S
C2250 N2258 1.356 1_565 S
C2251 C2250 1.363 . S
C2251 C2257 1.363 . S
C2252 C2253 1.363 . S
C2252 C2257 1.379 . S
C2252 N2259 1.356 . S
C2253 C2252 1.363 . S
C2253 C2256 1.363 . S
N2254 C2256 1.356 . S
N2254 H2266 0.984 . S
N2254 H2267 0.985 . S
N2255 C2257 1.356 . S
N2255 H2260 0.984 1_565 S
N2255 H2261 0.985 . S
C2256 C2250 1.379 . S
C2256 C2253 1.363 . S
C2256 N2254 1.356 . S
C2257 C2251 1.363 . S
C2257 C2252 1.379 . S
C2257 N2255 1.356 . S
N2258 C2250 1.356 1_545 S
N2258 H2264 0.984 . S
N2258 H2265 0.984 . S
N2259 C2252 1.356 . S
N2259 H2262 0.984 . S
N2259 H2263 0.985 . S
H2260 N2255 0.984 1_545 S
H2261 N2255 0.985 . S
H2262 N2259 0.984 . S
H2263 N2259 0.985 . S
H2264 N2258 0.984 . S
H2265 N2258 0.984 . S
H2266 N2254 0.984 . S
H2267 N2254 0.985 . S
C2268 C2269 1.363 1_556 S
C2268 C2274 1.379 . S
C2268 N2276 1.356 1_565 S
C2269 C2268 1.363 1_554 S
C2269 C2275 1.363 . S
C2270 C2271 1.363 . S
C2270 C2275 1.379 . S
C2270 N2277 1.356 . S
C2271 C2270 1.363 . S
C2271 C2274 1.363 1_554 S
N2272 C2274 1.356 . S
N2272 H2284 0.984 . S
N2272 H2285 0.985 . S
N2273 C2275 1.356 . S
N2273 H2278 0.984 1_565 S
N2273 H2279 0.985 . S
C2274 C2268 1.379 . S
C2274 C2271 1.363 1_556 S
C2274 N2272 1.356 . S
C2275 C2269 1.363 . S
C2275 C2270 1.379 . S
C2275 N2273 1.356 . S
N2276 C2268 1.356 1_545 S
N2276 H2282 0.984 . S
N2276 H2283 0.984 . S
N2277 C2270 1.356 . S
N2277 H2280 0.984 . S
N2277 H2281 0.985 . S
H2278 N2273 0.984 1_545 S
H2279 N2273 0.985 . S
H2280 N2277 0.984 . S
H2281 N2277 0.985 . S
H2282 N2276 0.984 . S
H2283 N2276 0.984 . S
H2284 N2272 0.984 . S
H2285 N2272 0.985 . S
C2286 C2287 1.363 . S
C2286 C2292 1.379 . S
C2286 N2294 1.356 . S
C2287 C2286 1.363 . S
C2287 C2293 1.363 . S
C2288 C2289 1.363 1_556 S
C2288 C2293 1.379 1_556 S
C2288 N2295 1.356 . S
C2289 C2288 1.363 1_554 S
C2289 C2292 1.363 . S
N2290 C2292 1.356 . S
N2290 H2302 0.984 . S
N2290 H2303 0.985 . S
N2291 C2293 1.356 1_656 S
N2291 H2296 0.984 1_556 S
N2291 H2297 0.984 1_655 S
C2292 C2286 1.379 . S
C2292 C2289 1.363 . S
C2292 N2290 1.356 . S
C2293 C2287 1.363 . S
C2293 C2288 1.379 1_554 S
C2293 N2291 1.356 1_454 S
N2294 C2286 1.356 . S
N2294 H2300 0.984 . S
N2294 H2301 0.984 1_455 S
N2295 C2288 1.356 . S
N2295 H2298 0.984 . S
N2295 H2299 0.985 . S
H2296 N2291 0.984 1_554 S
H2297 N2291 0.984 1_455 S
H2298 N2295 0.984 . S
H2299 N2295 0.985 . S
H2300 N2294 0.984 . S
H2301 N2294 0.984 1_655 S
H2302 N2290 0.984 . S
H2303 N2290 0.985 . S
C2304 C2305 1.363 . S
C2304 C2310 1.379 . S
C2304 N2312 1.356 . S
C2305 C2304 1.363 . S
C2305 C2311 1.363 . S
C2306 C2307 1.363 1_556 S
C2306 C2311 1.379 1_556 S
C2306 N2313 1.356 . S
C2307 C2306 1.363 1_554 S
C2307 C2310 1.363 . S
N2308 C2310 1.356 . S
N2308 H2320 0.984 . S
N2308 H2321 0.985 . S
N2309 C2311 1.356 1_556 S
N2309 H2314 0.984 1_556 S
N2309 H2315 0.985 . S
C2310 C2304 1.379 . S
C2310 C2307 1.363 . S
C2310 N2308 1.356 . S
C2311 C2305 1.363 . S
C2311 C2306 1.379 1_554 S
C2311 N2309 1.356 1_554 S
N2312 C2304 1.356 . S
N2312 H2318 0.984 . S
N2312 H2319 0.984 . S
N2313 C2306 1.356 . S
N2313 H2316 0.984 . S
N2313 H2317 0.985 . S
H2314 N2309 0.984 1_554 S
H2315 N2309 0.985 . S
H2316 N2313 0.984 . S
H2317 N2313 0.985 . S
H2318 N2312 0.984 . S
H2319 N2312 0.984 . S
H2320 N2308 0.984 . S
H2321 N2308 0.985 . S
C2322 C2323 1.363 . S
C2322 C2328 1.379 . S
C2322 N2330 1.356 . S
C2323 C2322 1.363 . S
C2323 C2329 1.363 . S
C2324 C2325 1.363 . S
C2324 C2329 1.379 . S
C2324 N2331 1.356 . S
C2325 C2324 1.363 . S
C2325 C2328 1.363 . S
N2326 C2328 1.356 1_455 S
N2326 H2338 0.984 . S
N2326 H2339 0.985 . S
N2327 C2329 1.356 . S
N2327 H2332 0.984 . S
N2327 H2333 0.985 . S
C2328 C2322 1.379 . S
C2328 C2325 1.363 . S
C2328 N2326 1.356 1_655 S
C2329 C2323 1.363 . S
C2329 C2324 1.379 . S
C2329 N2327 1.356 . S
N2330 C2322 1.356 . S
N2330 H2336 0.984 . S
N2330 H2337 0.984 . S
N2331 C2324 1.356 . S
N2331 H2334 0.984 1_655 S
N2331 H2335 0.985 . S
H2332 N2327 0.984 . S
H2333 N2327 0.985 . S
H2334 N2331 0.984 1_455 S
H2335 N2331 0.985 . S
H2336 N2330 0.984 . S
H2337 N2330 0.984 . S
H2338 N2326 0.984 . S
H2339 N2326 0.985 . S
C2340 C2341 1.363 . S
C2340 C2346 1.379 . S
C2340 N2348 1.356 . S
C2341 C2340 1.363 . S
C2341 C2347 1.363 . S
C2342 C2343 1.363 . S
C2342 C2347 1.379 . S
C2342 N2349 1.356 . S
C2343 C2342 1.363 . S
C2343 C2346 1.363 . S
N2344 C2346 1.356 . S
N2344 H2356 0.984 . S
N2344 H2357 0.985 . S
N2345 C2347 1.356 . S
N2345 H2350 0.984 . S
N2345 H2351 0.985 . S
C2346 C2340 1.379 . S
C2346 C2343 1.363 . S
C2346 N2344 1.356 . S
C2347 C2341 1.363 . S
C2347 C2342 1.379 . S
C2347 N2345 1.356 . S
N2348 C2340 1.356 . S
N2348 H2354 0.984 . S
N2348 H2355 0.984 . S
N2349 C2342 1.356 . S
N2349 H2352 0.984 . S
N2349 H2353 0.985 . S
H2350 N2345 0.984 . S
H2351 N2345 0.985 . S
H2352 N2349 0.984 . S
H2353 N2349 0.985 . S
H2354 N2348 0.984 . S
H2355 N2348 0.984 . S
H2356 N2344 0.984 . S
H2357 N2344 0.985 . S
C2358 C2359 1.363 . S
C2358 C2364 1.379 . S
C2358 N2366 1.356 . S
C2359 C2358 1.363 . S
C2359 C2365 1.363 . S
C2360 C2361 1.363 . S
C2360 C2365 1.379 . S
C2360 N2367 1.356 . S
C2361 C2360 1.363 . S
C2361 C2364 1.363 . S
N2362 C2364 1.356 . S
N2362 H2374 0.984 . S
N2362 H2375 0.985 . S
N2363 C2365 1.356 1_565 S
N2363 H2368 0.984 . S
N2363 H2369 0.985 . S
C2364 C2358 1.379 . S
C2364 C2361 1.363 . S
C2364 N2362 1.356 . S
C2365 C2359 1.363 . S
C2365 C2360 1.379 . S
C2365 N2363 1.356 1_545 S
N2366 C2358 1.356 . S
N2366 H2372 0.984 . S
N2366 H2373 0.984 1_545 S
N2367 C2360 1.356 . S
N2367 H2370 0.984 . S
N2367 H2371 0.985 . S
H2368 N2363 0.984 . S
H2369 N2363 0.985 . S
H2370 N2367 0.984 . S
H2371 N2367 0.985 . S
H2372 N2366 0.984 . S
H2373 N2366 0.984 1_565 S
H2374 N2362 0.984 . S
H2375 N2362 0.985 . S
C2376 C2377 1.363 . S
C2376 C2382 1.379 . S
C2376 N2384 1.356 . S
C2377 C2376 1.363 . S
C2377 C2383 1.363 . S
C2378 C2379 1.363 . S
C2378 C2383 1.379 . S
C2378 N2385 1.356 . S
C2379 C2378 1.363 . S
C2379 C2382 1.363 . S
N2380 C2382 1.356 . S
N2380 H2392 0.984 . S
N2380 H2393 0.985 . S
N2381 C2383 1.356 . S
N2381 H2386 0.984 . S
N2381 H2387 0.985 . S
C2382 C2376 1.379 . S
C2382 C2379 1.363 . S
C2382 N2380 1.356 . S
C2383 C2377 1.363 . S
C2383 C2378 1.379 . S
C2383 N2381 1.356 . S
N2384 C2376 1.356 . S
N2384 H2390 0.984 . S
N2384 H2391 0.984 . S
N2385 C2378 1.356 . S
N2385 H2388 0.984 . S
N2385 H2389 0.985 . S
H2386 N2381 0.984 . S
H2387 N2381 0.985 . S
H2388 N2385 0.984 . S
H2389 N2385 0.985 . S
H2390 N2384 0.984 . S
H2391 N2384 0.984 . S
H2392 N2380 0.984 . S
H2393 N2380 0.985 . S
C2394 C2395 1.363 . S
C2394 C2400 1.379 . S
C2394 N2402 1.356 . S
C2395 C2394 1.363 . S
C2395 C2401 1.363 . S
C2396 C2397 1.363 . S
C2396 C2401 1.379 . S
C2396 N2403 1.356 . S
C2397 C2396 1.363 . S
C2397 C2400 1.363 . S
N2398 C2400 1.356 . S
N2398 H2410 0.984 . S
N2398 H2411 0.985 . S
N2399 C2401 1.356 . S
N2399 H2404 0.984 . S
N2399 H2405 0.985 . S
C2400 C2394 1.379 . S
C2400 C2397 1.363 . S
C2400 N2398 1.356 . S
C2401 C2395 1.363 . S
C2401 C2396 1.379 . S
C2401 N2399 1.356 . S
N2402 C2394 1.356 . S
N2402 H2408 0.984 . S
N2402 H2409 0.984 . S
N2403 C2396 1.356 . S
N2403 H2406 0.984 . S
N2403 H2407 0.985 . S
H2404 N2399 0.984 . S
H2405 N2399 0.985 . S
H2406 N2403 0.984 . S
H2407 N2403 0.985 . S
H2408 N2402 0.984 . S
H2409 N2402 0.984 . S
H2410 N2398 0.984 . S
H2411 N2398 0.985 . S
C2412 C2413 1.363 . S
C2412 C2418 1.379 . S
C2412 N2420 1.356 . S
C2413 C2412 1.363 . S
C2413 C2419 1.363 . S
C2414 C2415 1.363 . S
C2414 C2419 1.379 . S
C2414 N2421 1.356 . S
C2415 C2414 1.363 . S
C2415 C2418 1.363 . S
N2416 C2418 1.356 . S
N2416 H2428 0.984 . S
N2416 H2429 0.985 . S
N2417 C2419 1.356 . S
N2417 H2422 0.984 . S
N2417 H2423 0.985 . S
C2418 C2412 1.379 . S
C2418 C2415 1.363 . S
C2418 N2416 1.356 . S
C2419 C2413 1.363 . S
C2419 C2414 1.379 . S
C2419 N2417 1.356 . S
N2420 C2412 1.356 . S
N2420 H2426 0.984 . S
N2420 H2427 0.984 . S
N2421 C2414 1.356 . S
N2421 H2424 0.984 . S
N2421 H2425 0.985 . S
H2422 N2417 0.984 . S
H2423 N2417 0.985 . S
H2424 N2421 0.984 . S
H2425 N2421 0.985 . S
H2426 N2420 0.984 . S
H2427 N2420 0.984 . S
H2428 N2416 0.984 . S
H2429 N2416 0.985 . S
C2430 C2431 1.363 . S
C2430 C2436 1.379 . S
C2430 N2438 1.356 . S
C2431 C2430 1.363 . S
C2431 C2437 1.363 . S
C2432 C2433 1.363 . S
C2432 C2437 1.379 . S
C2432 N2439 1.356 . S
C2433 C2432 1.363 . S
C2433 C2436 1.363 . S
N2434 C2436 1.356 . S
N2434 H2446 0.984 . S
N2434 H2447 0.985 . S
N2435 C2437 1.356 . S
N2435 H2440 0.984 . S
N2435 H2441 0.985 . S
C2436 C2430 1.379 . S
C2436 C2433 1.363 . S
C2436 N2434 1.356 . S
C2437 C2431 1.363 . S
C2437 C2432 1.379 . S
C2437 N2435 1.356 . S
N2438 C2430 1.356 . S
N2438 H2444 0.984 . S
N2438 H2445 0.984 . S
N2439 C2432 1.356 . S
N2439 H2442 0.984 . S
N2439 H2443 0.985 . S
H2440 N2435 0.984 . S
H2441 N2435 0.985 . S
H2442 N2439 0.984 . S
H2443 N2439 0.985 . S
H2444 N2438 0.984 . S
H2445 N2438 0.984 . S
H2446 N2434 0.984 . S
H2447 N2434 0.985 . S
C2448 C2449 1.363 . S
C2448 C2454 1.379 . S
C2448 N2456 1.356 . S
C2449 C2448 1.363 . S
C2449 C2455 1.363 . S
C2450 C2451 1.363 . S
C2450 C2455 1.379 . S
C2450 N2457 1.356 . S
C2451 C2450 1.363 . S
C2451 C2454 1.363 . S
N2452 C2454 1.356 . S
N2452 H2464 0.984 . S
N2452 H2465 0.985 . S
N2453 C2455 1.356 . S
N2453 H2458 0.984 . S
N2453 H2459 0.985 . S
C2454 C2448 1.379 . S
C2454 C2451 1.363 . S
C2454 N2452 1.356 . S
C2455 C2449 1.363 . S
C2455 C2450 1.379 . S
C2455 N2453 1.356 . S
N2456 C2448 1.356 . S
N2456 H2462 0.984 . S
N2456 H2463 0.984 . S
N2457 C2450 1.356 . S
N2457 H2460 0.984 . S
N2457 H2461 0.985 . S
H2458 N2453 0.984 . S
H2459 N2453 0.985 . S
H2460 N2457 0.984 . S
H2461 N2457 0.985 . S
H2462 N2456 0.984 . S
H2463 N2456 0.984 . S
H2464 N2452 0.984 . S
H2465 N2452 0.985 . S
C2466 C2467 1.363 . S
C2466 C2472 1.379 . S
C2466 N2474 1.356 . S
C2467 C2466 1.363 . S
C2467 C2473 1.363 . S
C2468 C2469 1.363 . S
C2468 C2473 1.379 . S
C2468 N2475 1.356 . S
C2469 C2468 1.363 . S
C2469 C2472 1.363 . S
N2470 C2472 1.356 . S
N2470 H2482 0.984 . S
N2470 H2483 0.985 . S
N2471 C2473 1.356 . S
N2471 H2476 0.984 . S
N2471 H2477 0.985 . S
C2472 C2466 1.379 . S
C2472 C2469 1.363 . S
C2472 N2470 1.356 . S
C2473 C2467 1.363 . S
C2473 C2468 1.379 . S
C2473 N2471 1.356 . S
N2474 C2466 1.356 . S
N2474 H2480 0.984 . S
N2474 H2481 0.984 . S
N2475 C2468 1.356 . S
N2475 H2478 0.984 . S
N2475 H2479 0.985 . S
H2476 N2471 0.984 . S
H2477 N2471 0.985 . S
H2478 N2475 0.984 . S
H2479 N2475 0.985 . S
H2480 N2474 0.984 . S
H2481 N2474 0.984 . S
H2482 N2470 0.984 . S
H2483 N2470 0.985 . S
C2484 C2485 1.363 . S
C2484 C2490 1.379 . S
C2484 N2492 1.356 . S
C2485 C2484 1.363 . S
C2485 C2491 1.363 . S
C2486 C2487 1.363 . S
C2486 C2491 1.379 . S
C2486 N2493 1.356 . S
C2487 C2486 1.363 . S
C2487 C2490 1.363 . S
N2488 C2490 1.356 . S
N2488 H2500 0.984 . S
N2488 H2501 0.985 . S
N2489 C2491 1.356 . S
N2489 H2494 0.984 . S
N2489 H2495 0.985 . S
C2490 C2484 1.379 . S
C2490 C2487 1.363 . S
C2490 N2488 1.356 . S
C2491 C2485 1.363 . S
C2491 C2486 1.379 . S
C2491 N2489 1.356 . S
N2492 C2484 1.356 . S
N2492 H2498 0.984 . S
N2492 H2499 0.984 . S
N2493 C2486 1.356 . S
N2493 H2496 0.984 . S
N2493 H2497 0.985 . S
H2494 N2489 0.984 . S
H2495 N2489 0.985 . S
H2496 N2493 0.984 . S
H2497 N2493 0.985 . S
H2498 N2492 0.984 . S
H2499 N2492 0.984 . S
H2500 N2488 0.984 . S
H2501 N2488 0.985 . S
C2502 C2503 1.363 . S
C2502 C2508 1.379 . S
C2502 N2510 1.356 . S
C2503 C2502 1.363 . S
C2503 C2509 1.363 . S
C2504 C2505 1.363 . S
C2504 C2509 1.379 . S
C2504 N2511 1.356 . S
C2505 C2504 1.363 . S
C2505 C2508 1.363 . S
N2506 C2508 1.356 . S
N2506 H2518 0.984 . S
N2506 H2519 0.985 . S
N2507 C2509 1.356 . S
N2507 H2512 0.984 . S
N2507 H2513 0.985 . S
C2508 C2502 1.379 . S
C2508 C2505 1.363 . S
C2508 N2506 1.356 . S
C2509 C2503 1.363 . S
C2509 C2504 1.379 . S
C2509 N2507 1.356 . S
N2510 C2502 1.356 . S
N2510 H2516 0.984 . S
N2510 H2517 0.984 . S
N2511 C2504 1.356 . S
N2511 H2514 0.984 . S
N2511 H2515 0.985 . S
H2512 N2507 0.984 . S
H2513 N2507 0.985 . S
H2514 N2511 0.984 . S
H2515 N2511 0.985 . S
H2516 N2510 0.984 . S
H2517 N2510 0.984 . S
H2518 N2506 0.984 . S
H2519 N2506 0.985 . S
C2520 C2521 1.363 . S
C2520 C2526 1.379 . S
C2520 N2528 1.356 . S
C2521 C2520 1.363 . S
C2521 C2527 1.363 . S
C2522 C2523 1.363 . S
C2522 C2527 1.379 . S
C2522 N2529 1.356 . S
C2523 C2522 1.363 . S
C2523 C2526 1.363 . S
N2524 C2526 1.356 . S
N2524 H2536 0.984 . S
N2524 H2537 0.985 . S
N2525 C2527 1.356 . S
N2525 H2530 0.984 . S
N2525 H2531 0.985 . S
C2526 C2520 1.379 . S
C2526 C2523 1.363 . S
C2526 N2524 1.356 . S
C2527 C2521 1.363 . S
C2527 C2522 1.379 . S
C2527 N2525 1.356 . S
N2528 C2520 1.356 . S
N2528 H2534 0.984 . S
N2528 H2535 0.984 . S
N2529 C2522 1.356 . S
N2529 H2532 0.984 . S
N2529 H2533 0.985 . S
H2530 N2525 0.984 . S
H2531 N2525 0.985 . S
H2532 N2529 0.984 . S
H2533 N2529 0.985 . S
H2534 N2528 0.984 . S
H2535 N2528 0.984 . S
H2536 N2524 0.984 . S
H2537 N2524 0.985 . S
C2538 C2539 1.363 . S
C2538 C2544 1.379 . S
C2538 N2546 1.356 . S
C2539 C2538 1.363 . S
C2539 C2545 1.363 . S
C2540 C2541 1.363 . S
C2540 C2545 1.379 . S
C2540 N2547 1.356 . S
C2541 C2540 1.363 . S
C2541 C2544 1.363 . S
N2542 C2544 1.356 . S
N2542 H2554 0.984 . S
N2542 H2555 0.985 . S
N2543 C2545 1.356 . S
N2543 H2548 0.984 . S
N2543 H2549 0.985 . S
C2544 C2538 1.379 . S
C2544 C2541 1.363 . S
C2544 N2542 1.356 . S
C2545 C2539 1.363 . S
C2545 C2540 1.379 . S
C2545 N2543 1.356 . S
N2546 C2538 1.356 . S
N2546 H2552 0.984 . S
N2546 H2553 0.984 . S
N2547 C2540 1.356 . S
N2547 H2550 0.984 . S
N2547 H2551 0.985 . S
H2548 N2543 0.984 . S
H2549 N2543 0.985 . S
H2550 N2547 0.984 . S
H2551 N2547 0.985 . S
H2552 N2546 0.984 . S
H2553 N2546 0.984 . S
H2554 N2542 0.984 . S
H2555 N2542 0.985 . S
C2556 C2557 1.363 . S
C2556 C2562 1.379 . S
C2556 N2564 1.356 . S
C2557 C2556 1.363 . S
C2557 C2563 1.363 . S
C2558 C2559 1.363 . S
C2558 C2563 1.379 . S
C2558 N2565 1.356 . S
C2559 C2558 1.363 . S
C2559 C2562 1.363 . S
N2560 C2562 1.356 . S
N2560 H2572 0.984 . S
N2560 H2573 0.985 . S
N2561 C2563 1.356 . S
N2561 H2566 0.984 . S
N2561 H2567 0.985 . S
C2562 C2556 1.379 . S
C2562 C2559 1.363 . S
C2562 N2560 1.356 . S
C2563 C2557 1.363 . S
C2563 C2558 1.379 . S
C2563 N2561 1.356 . S
N2564 C2556 1.356 . S
N2564 H2570 0.984 . S
N2564 H2571 0.984 . S
N2565 C2558 1.356 . S
N2565 H2568 0.984 . S
N2565 H2569 0.985 . S
H2566 N2561 0.984 . S
H2567 N2561 0.985 . S
H2568 N2565 0.984 . S
H2569 N2565 0.985 . S
H2570 N2564 0.984 . S
H2571 N2564 0.984 . S
H2572 N2560 0.984 . S
H2573 N2560 0.985 . S
C2574 C2575 1.363 . S
C2574 C2580 1.379 . S
C2574 N2582 1.356 . S
C2575 C2574 1.363 . S
C2575 C2581 1.363 . S
C2576 C2577 1.363 . S
C2576 C2581 1.379 . S
C2576 N2583 1.356 . S
C2577 C2576 1.363 . S
C2577 C2580 1.363 . S
N2578 C2580 1.356 . S
N2578 H2590 0.984 . S
N2578 H2591 0.985 . S
N2579 C2581 1.356 . S
N2579 H2584 0.984 . S
N2579 H2585 0.985 . S
C2580 C2574 1.379 . S
C2580 C2577 1.363 . S
C2580 N2578 1.356 . S
C2581 C2575 1.363 . S
C2581 C2576 1.379 . S
C2581 N2579 1.356 . S
N2582 C2574 1.356 . S
N2582 H2588 0.984 . S
N2582 H2589 0.984 . S
N2583 C2576 1.356 . S
N2583 H2586 0.984 . S
N2583 H2587 0.985 . S
H2584 N2579 0.984 . S
H2585 N2579 0.985 . S
H2586 N2583 0.984 . S
H2587 N2583 0.985 . S
H2588 N2582 0.984 . S
H2589 N2582 0.984 . S
H2590 N2578 0.984 . S
H2591 N2578 0.985 . S
C2592 C2593 1.363 . S
C2592 C2598 1.379 . S
C2592 N2600 1.356 . S
C2593 C2592 1.363 . S
C2593 C2599 1.363 . S
C2594 C2595 1.363 . S
C2594 C2599 1.379 . S
C2594 N2601 1.356 . S
C2595 C2594 1.363 . S
C2595 C2598 1.363 . S
N2596 C2598 1.356 . S
N2596 H2608 0.984 . S
N2596 H2609 0.985 . S
N2597 C2599 1.356 . S
N2597 H2602 0.984 . S
N2597 H2603 0.985 . S
C2598 C2592 1.379 . S
C2598 C2595 1.363 . S
C2598 N2596 1.356 . S
C2599 C2593 1.363 . S
C2599 C2594 1.379 . S
C2599 N2597 1.356 . S
N2600 C2592 1.356 . S
N2600 H2606 0.984 . S
N2600 H2607 0.984 . S
N2601 C2594 1.356 . S
N2601 H2604 0.984 . S
N2601 H2605 0.985 . S
H2602 N2597 0.984 . S
H2603 N2597 0.985 . S
H2604 N2601 0.984 . S
H2605 N2601 0.985 . S
H2606 N2600 0.984 . S
H2607 N2600 0.984 . S
H2608 N2596 0.984 . S
H2609 N2596 0.985 . S
C2610 C2611 1.363 . S
C2610 C2616 1.379 . S
C2610 N2618 1.356 . S
C2611 C2610 1.363 . S
C2611 C2617 1.363 . S
C2612 C2613 1.363 . S
C2612 C2617 1.379 . S
C2612 N2619 1.356 . S
C2613 C2612 1.363 . S
C2613 C2616 1.363 . S
N2614 C2616 1.356 . S
N2614 H2626 0.984 . S
N2614 H2627 0.985 . S
N2615 C2617 1.356 . S
N2615 H2620 0.984 . S
N2615 H2621 0.985 . S
C2616 C2610 1.379 . S
C2616 C2613 1.363 . S
C2616 N2614 1.356 . S
C2617 C2611 1.363 . S
C2617 C2612 1.379 . S
C2617 N2615 1.356 . S
N2618 C2610 1.356 . S
N2618 H2624 0.984 . S
N2618 H2625 0.984 . S
N2619 C2612 1.356 . S
N2619 H2622 0.984 . S
N2619 H2623 0.985 . S
H2620 N2615 0.984 . S
H2621 N2615 0.985 . S
H2622 N2619 0.984 . S
H2623 N2619 0.985 . S
H2624 N2618 0.984 . S
H2625 N2618 0.984 . S
H2626 N2614 0.984 . S
H2627 N2614 0.985 . S
C2628 C2629 1.363 . S
C2628 C2634 1.379 . S
C2628 N2636 1.356 . S
C2629 C2628 1.363 . S
C2629 C2635 1.363 . S
C2630 C2631 1.363 . S
C2630 C2635 1.379 . S
C2630 N2637 1.356 . S
C2631 C2630 1.363 . S
C2631 C2634 1.363 . S
N2632 C2634 1.356 . S
N2632 H2644 0.984 . S
N2632 H2645 0.985 . S
N2633 C2635 1.356 . S
N2633 H2638 0.984 . S
N2633 H2639 0.985 . S
C2634 C2628 1.379 . S
C2634 C2631 1.363 . S
C2634 N2632 1.356 . S
C2635 C2629 1.363 . S
C2635 C2630 1.379 . S
C2635 N2633 1.356 . S
N2636 C2628 1.356 . S
N2636 H2642 0.984 . S
N2636 H2643 0.984 . S
N2637 C2630 1.356 . S
N2637 H2640 0.984 . S
N2637 H2641 0.985 . S
H2638 N2633 0.984 . S
H2639 N2633 0.985 . S
H2640 N2637 0.984 . S
H2641 N2637 0.985 . S
H2642 N2636 0.984 . S
H2643 N2636 0.984 . S
H2644 N2632 0.984 . S
H2645 N2632 0.985 . S
C2646 C2647 1.363 . S
C2646 C2652 1.379 . S
C2646 N2654 1.356 . S
C2647 C2646 1.363 . S
C2647 C2653 1.363 . S
C2648 C2649 1.363 . S
C2648 C2653 1.379 . S
C2648 N2655 1.356 . S
C2649 C2648 1.363 . S
C2649 C2652 1.363 . S
N2650 C2652 1.356 . S
N2650 H2662 0.984 . S
N2650 H2663 0.985 . S
N2651 C2653 1.356 . S
N2651 H2656 0.984 . S
N2651 H2657 0.985 . S
C2652 C2646 1.379 . S
C2652 C2649 1.363 . S
C2652 N2650 1.356 . S
C2653 C2647 1.363 . S
C2653 C2648 1.379 . S
C2653 N2651 1.356 . S
N2654 C2646 1.356 . S
N2654 H2660 0.984 . S
N2654 H2661 0.984 . S
N2655 C2648 1.356 . S
N2655 H2658 0.984 . S
N2655 H2659 0.985 . S
H2656 N2651 0.984 . S
H2657 N2651 0.985 . S
H2658 N2655 0.984 . S
H2659 N2655 0.985 . S
H2660 N2654 0.984 . S
H2661 N2654 0.984 . S
H2662 N2650 0.984 . S
H2663 N2650 0.985 . S
C2664 C2665 1.363 . S
C2664 C2670 1.379 . S
C2664 N2672 1.356 . S
C2665 C2664 1.363 . S
C2665 C2671 1.363 . S
C2666 C2667 1.363 . S
C2666 C2671 1.379 . S
C2666 N2673 1.356 . S
C2667 C2666 1.363 . S
C2667 C2670 1.363 . S
N2668 C2670 1.356 . S
N2668 H2680 0.984 . S
N2668 H2681 0.985 . S
N2669 C2671 1.356 . S
N2669 H2674 0.984 . S
N2669 H2675 0.985 . S
C2670 C2664 1.379 . S
C2670 C2667 1.363 . S
C2670 N2668 1.356 . S
C2671 C2665 1.363 . S
C2671 C2666 1.379 . S
C2671 N2669 1.356 . S
N2672 C2664 1.356 . S
N2672 H2678 0.984 . S
N2672 H2679 0.984 . S
N2673 C2666 1.356 . S
N2673 H2676 0.984 . S
N2673 H2677 0.985 . S
H2674 N2669 0.984 . S
H2675 N2669 0.985 . S
H2676 N2673 0.984 . S
H2677 N2673 0.985 . S
H2678 N2672 0.984 . S
H2679 N2672 0.984 . S
H2680 N2668 0.984 . S
H2681 N2668 0.985 . S
C2682 C2683 1.363 . S
C2682 C2688 1.379 . S
C2682 N2690 1.356 . S
C2683 C2682 1.363 . S
C2683 C2689 1.363 . S
C2684 C2685 1.363 . S
C2684 C2689 1.379 . S
C2684 N2691 1.356 . S
C2685 C2684 1.363 . S
C2685 C2688 1.363 . S
N2686 C2688 1.356 . S
N2686 H2698 0.984 . S
N2686 H2699 0.985 . S
N2687 C2689 1.356 . S
N2687 H2692 0.984 . S
N2687 H2693 0.985 . S
C2688 C2682 1.379 . S
C2688 C2685 1.363 . S
C2688 N2686 1.356 . S
C2689 C2683 1.363 . S
C2689 C2684 1.379 . S
C2689 N2687 1.356 . S
N2690 C2682 1.356 . S
N2690 H2696 0.984 . S
N2690 H2697 0.984 . S
N2691 C2684 1.356 . S
N2691 H2694 0.984 . S
N2691 H2695 0.985 . S
H2692 N2687 0.984 . S
H2693 N2687 0.985 . S
H2694 N2691 0.984 . S
H2695 N2691 0.985 . S
H2696 N2690 0.984 . S
H2697 N2690 0.984 . S
H2698 N2686 0.984 . S
H2699 N2686 0.985 . S
C2700 C2701 1.363 . S
C2700 C2706 1.379 . S
C2700 N2708 1.356 . S
C2701 C2700 1.363 . S
C2701 C2707 1.363 . S
C2702 C2703 1.363 . S
C2702 C2707 1.379 . S
C2702 N2709 1.356 . S
C2703 C2702 1.363 . S
C2703 C2706 1.363 . S
N2704 C2706 1.356 . S
N2704 H2716 0.984 . S
N2704 H2717 0.985 . S
N2705 C2707 1.356 . S
N2705 H2710 0.984 . S
N2705 H2711 0.985 . S
C2706 C2700 1.379 . S
C2706 C2703 1.363 . S
C2706 N2704 1.356 . S
C2707 C2701 1.363 . S
C2707 C2702 1.379 . S
C2707 N2705 1.356 . S
N2708 C2700 1.356 . S
N2708 H2714 0.984 . S
N2708 H2715 0.984 . S
N2709 C2702 1.356 . S
N2709 H2712 0.984 . S
N2709 H2713 0.985 . S
H2710 N2705 0.984 . S
H2711 N2705 0.985 . S
H2712 N2709 0.984 . S
H2713 N2709 0.985 . S
H2714 N2708 0.984 . S
H2715 N2708 0.984 . S
H2716 N2704 0.984 . S
H2717 N2704 0.985 . S
C2718 C2719 1.363 . S
C2718 C2724 1.379 . S
C2718 N2726 1.356 . S
C2719 C2718 1.363 . S
C2719 C2725 1.363 . S
C2720 C2721 1.363 . S
C2720 C2725 1.379 . S
C2720 N2727 1.356 . S
C2721 C2720 1.363 . S
C2721 C2724 1.363 . S
N2722 C2724 1.356 . S
N2722 H2734 0.984 . S
N2722 H2735 0.985 . S
N2723 C2725 1.356 . S
N2723 H2728 0.984 . S
N2723 H2729 0.985 . S
C2724 C2718 1.379 . S
C2724 C2721 1.363 . S
C2724 N2722 1.356 . S
C2725 C2719 1.363 . S
C2725 C2720 1.379 . S
C2725 N2723 1.356 . S
N2726 C2718 1.356 . S
N2726 H2732 0.984 . S
N2726 H2733 0.984 . S
N2727 C2720 1.356 . S
N2727 H2730 0.984 . S
N2727 H2731 0.985 . S
H2728 N2723 0.984 . S
H2729 N2723 0.985 . S
H2730 N2727 0.984 . S
H2731 N2727 0.985 . S
H2732 N2726 0.984 . S
H2733 N2726 0.984 . S
H2734 N2722 0.984 . S
H2735 N2722 0.985 . S
C2736 C2737 1.363 . S
C2736 C2742 1.379 . S
C2736 N2744 1.356 . S
C2737 C2736 1.363 . S
C2737 C2743 1.363 . S
C2738 C2739 1.363 . S
C2738 C2743 1.379 . S
C2738 N2745 1.356 . S
C2739 C2738 1.363 . S
C2739 C2742 1.363 . S
N2740 C2742 1.356 . S
N2740 H2752 0.984 . S
N2740 H2753 0.985 . S
N2741 C2743 1.356 . S
N2741 H2746 0.984 . S
N2741 H2747 0.985 . S
C2742 C2736 1.379 . S
C2742 C2739 1.363 . S
C2742 N2740 1.356 . S
C2743 C2737 1.363 . S
C2743 C2738 1.379 . S
C2743 N2741 1.356 . S
N2744 C2736 1.356 . S
N2744 H2750 0.984 . S
N2744 H2751 0.984 . S
N2745 C2738 1.356 . S
N2745 H2748 0.984 . S
N2745 H2749 0.985 . S
H2746 N2741 0.984 . S
H2747 N2741 0.985 . S
H2748 N2745 0.984 . S
H2749 N2745 0.985 . S
H2750 N2744 0.984 . S
H2751 N2744 0.984 . S
H2752 N2740 0.984 . S
H2753 N2740 0.985 . S
C2754 C2755 1.363 . S
C2754 C2760 1.379 . S
C2754 N2762 1.356 . S
C2755 C2754 1.363 . S
C2755 C2761 1.363 . S
C2756 C2757 1.363 . S
C2756 C2761 1.379 . S
C2756 N2763 1.356 . S
C2757 C2756 1.363 . S
C2757 C2760 1.363 . S
N2758 C2760 1.356 . S
N2758 H2770 0.984 . S
N2758 H2771 0.985 . S
N2759 C2761 1.356 . S
N2759 H2764 0.984 . S
N2759 H2765 0.985 . S
C2760 C2754 1.379 . S
C2760 C2757 1.363 . S
C2760 N2758 1.356 . S
C2761 C2755 1.363 . S
C2761 C2756 1.379 . S
C2761 N2759 1.356 . S
N2762 C2754 1.356 . S
N2762 H2768 0.984 . S
N2762 H2769 0.984 . S
N2763 C2756 1.356 . S
N2763 H2766 0.984 . S
N2763 H2767 0.985 . S
H2764 N2759 0.984 . S
H2765 N2759 0.985 . S
H2766 N2763 0.984 . S
H2767 N2763 0.985 . S
H2768 N2762 0.984 . S
H2769 N2762 0.984 . S
H2770 N2758 0.984 . S
H2771 N2758 0.985 . S
C2772 C2773 1.363 . S
C2772 C2778 1.379 . S
C2772 N2780 1.356 . S
C2773 C2772 1.363 . S
C2773 C2779 1.363 . S
C2774 C2775 1.363 . S
C2774 C2779 1.379 . S
C2774 N2781 1.356 . S
C2775 C2774 1.363 . S
C2775 C2778 1.363 . S
N2776 C2778 1.356 . S
N2776 H2788 0.984 . S
N2776 H2789 0.985 . S
N2777 C2779 1.356 . S
N2777 H2782 0.984 . S
N2777 H2783 0.985 . S
C2778 C2772 1.379 . S
C2778 C2775 1.363 . S
C2778 N2776 1.356 . S
C2779 C2773 1.363 . S
C2779 C2774 1.379 . S
C2779 N2777 1.356 . S
N2780 C2772 1.356 . S
N2780 H2786 0.984 . S
N2780 H2787 0.984 . S
N2781 C2774 1.356 . S
N2781 H2784 0.984 . S
N2781 H2785 0.985 . S
H2782 N2777 0.984 . S
H2783 N2777 0.985 . S
H2784 N2781 0.984 . S
H2785 N2781 0.985 . S
H2786 N2780 0.984 . S
H2787 N2780 0.984 . S
H2788 N2776 0.984 . S
H2789 N2776 0.985 . S
C2790 C2791 1.363 . S
C2790 C2796 1.379 . S
C2790 N2798 1.356 . S
C2791 C2790 1.363 . S
C2791 C2797 1.363 . S
C2792 C2793 1.363 . S
C2792 C2797 1.379 . S
C2792 N2799 1.356 . S
C2793 C2792 1.363 . S
C2793 C2796 1.363 . S
N2794 C2796 1.356 . S
N2794 H2806 0.984 . S
N2794 H2807 0.985 . S
N2795 C2797 1.356 . S
N2795 H2800 0.984 . S
N2795 H2801 0.985 . S
C2796 C2790 1.379 . S
C2796 C2793 1.363 . S
C2796 N2794 1.356 . S
C2797 C2791 1.363 . S
C2797 C2792 1.379 . S
C2797 N2795 1.356 . S
N2798 C2790 1.356 . S
N2798 H2804 0.984 . S
N2798 H2805 0.984 . S
N2799 C2792 1.356 . S
N2799 H2802 0.984 . S
N2799 H2803 0.985 . S
H2800 N2795 0.984 . S
H2801 N2795 0.985 . S
H2802 N2799 0.984 . S
H2803 N2799 0.985 . S
H2804 N2798 0.984 . S
H2805 N2798 0.984 . S
H2806 N2794 0.984 . S
H2807 N2794 0.985 . S
C1189 C536 1.609 . S
C1191 C28 1.602 . S
C1207 C61 1.601 . S
C1209 C569 1.609 . S
C1225 C503 1.610 . S
C1227 C94 1.602 . S
C1243 C107 1.610 . S
C1245 C886 1.602 . S
C1261 C820 1.602 . S
C1263 C140 1.609 . S
C1279 C173 1.609 . S
C1281 C853 1.601 . S
C1297 C226 1.668 . S
C1299 C1150 1.669 . S
C1315 C259 1.668 . S
C1317 C1183 1.668 . S
C1333 C292 1.668 . S
C1335 C1117 1.669 . S
C1351 C325 1.669 . S
C1353 C688 1.668 . S
C1369 C358 1.669 . S
C1371 C622 1.668 . S
C1387 C391 1.668 . S
C1389 C655 1.668 . S
C1405 C424 1.601 . S
C1407 C932 1.609 . S
C1423 C965 1.609 . S
C1425 C457 1.601 . S
C1441 C899 1.610 . S
C1443 C490 1.602 . S
C1459 C1084 1.668 . S
C1461 C721 1.669 . S
C1477 C1018 1.668 . S
C1479 C754 1.669 . S
C1495 C787 1.668 . S
C1497 C1051 1.668 . S
C1513 N962 1.534 . S
C1515 N14 1.482 . S
C1531 N47 1.482 . S
C1533 N896 1.534 . S
C1549 N80 1.481 . S
C1551 N929 1.534 . S
C1567 N104 1.534 . S
C1569 N443 1.482 . S
C1585 N137 1.534 . S
C1587 N476 1.481 . S
C1603 N410 1.482 . S
C1605 N170 1.534 . S
C1621 N773 1.516 . S
C1623 N212 1.529 . S
C1639 N245 1.529 . S
C1641 N707 1.516 . S
C1657 N278 1.529 . S
C1659 N740 1.516 . S
C1675 N1037 1.529 . S
C1677 N311 1.516 . S
C1693 N1070 1.529 . S
C1695 N344 1.516 . S
C1711 N1004 1.529 . S
C1713 N377 1.516 . S
C1729 N500 1.534 . S
C1731 N839 1.482 . S
C1747 N533 1.534 . S
C1749 N872 1.482 . S
C1765 N566 1.534 . S
C1767 N806 1.482 . S
C1783 N608 1.529 . S
C1785 N1169 1.516 . S
C1801 N1103 1.516 . S
C1803 N641 1.529 . S
C1819 N674 1.529 . S
C1821 N1136 1.516 . S
C1837 C17 1.370 . S
C1839 C611 1.370 . S
C1855 C50 1.371 . S
C1857 C644 1.370 . S
C1873 C677 1.370 . S
C1875 C83 1.371 . S
C1891 C116 1.334 . S
C1893 C1106 1.347 . S
C1909 C149 1.334 . S
C1911 C1139 1.348 . S
C1927 C182 1.334 . S
C1929 C1172 1.348 . S
C1945 C809 1.370 . S
C1947 C215 1.370 . S
C1963 C248 1.370 . S
C1965 C842 1.371 . S
C1981 C875 1.371 . S
C1983 C281 1.370 . S
C1999 C512 1.334 . S
C2001 C314 1.347 . S
C2017 C545 1.334 . S
C2019 C347 1.348 . S
C2035 C380 1.348 . S
C2037 C578 1.334 . S
C2053 C1007 1.370 . S
C2055 C413 1.370 . S
C2071 C1040 1.370 . S
C2073 C446 1.371 . S
C2089 C479 1.371 . S
C2091 C1073 1.370 . S
C2107 C908 1.334 . S
C2109 C710 1.347 . S
C2125 C743 1.348 . S
C2127 C941 1.334 . S
C2143 C974 1.334 . S
C2145 C776 1.348 . S
C2161 N5 1.468 . S
C2163 C239 1.466 1_545 S
C2179 N38 1.468 . S
C2181 C272 1.466 1_655 S
C2197 C206 1.466 . S
C2199 N71 1.467 . S
C2215 C371 1.485 1_455 S
C2217 N113 1.473 . S
C2233 C305 1.485 . S
C2235 N146 1.473 . S
C2251 C338 1.485 1_565 S
C2253 N179 1.473 . S
C2269 C41 1.512 1_565 S
C2271 N203 1.521 . S
C2287 C74 1.512 1_455 S
C2289 N236 1.521 . S
C2305 C8 1.511 . S
C2307 N269 1.521 . S
C2323 N302 1.460 . S
C2325 C193 1.445 1_655 S
C2341 N335 1.460 . S
C2343 C127 1.445 . S
C2359 C160 1.445 1_545 S
C2361 N368 1.460 . S
C2377 C635 1.466 . S
C2379 N401 1.467 . S
C2395 N434 1.468 . S
C2397 C668 1.466 . S
C2413 C602 1.466 . S
C2415 N467 1.467 . S
C2431 C767 1.485 . S
C2433 N509 1.473 . S
C2449 N542 1.472 . S
C2451 C701 1.485 . S
C2467 N575 1.473 . S
C2469 C734 1.485 . S
C2485 N599 1.513 . S
C2487 C437 1.512 . S
C2503 N632 1.513 . S
C2505 C470 1.512 . S
C2521 N665 1.512 . S
C2523 C404 1.511 . S
C2539 N698 1.460 . S
C2541 C589 1.445 . S
C2557 C523 1.445 . S
C2559 N731 1.460 . S
C2575 C556 1.445 . S
C2577 N764 1.460 . S
C2593 C1031 1.466 . S
C2595 N797 1.467 . S
C2611 C1064 1.466 . S
C2613 N830 1.468 . S
C2629 C998 1.466 . S
C2631 N863 1.467 . S
C2647 C1163 1.485 . S
C2649 N905 1.473 . S
C2665 N938 1.473 . S
C2667 C1097 1.485 . S
C2683 C1130 1.485 . S
C2685 N971 1.473 . S
C2701 C833 1.512 . S
C2703 N995 1.513 . S
C2719 C866 1.512 . S
C2721 N1028 1.513 . S
C2737 C800 1.511 . S
C2739 N1061 1.512 . S
C2755 N1094 1.460 . S
C2757 C985 1.445 . S
C2773 N1127 1.460 . S
C2775 C919 1.445 . S
C2791 C952 1.445 . S
C2793 N1160 1.460 . S
