# Generated by pormake.
# Topology ukt, (4)-cn, num edge types: 1
# Building blocks:
#     Node 0, Type 0, BuildingBlock: GALJAG_clean_sbu_0, # of connection points: 4
#     Node 1, Type 0, BuildingBlock: GALJAG_clean_sbu_0, # of connection points: 4
#     Node 2, Type 0, BuildingBlock: GALJAG_clean_sbu_0, # of connection points: 4
#     Node 3, Type 0, BuildingBlock: GALJAG_clean_sbu_0, # of connection points: 4
#     Node 4, Type 0, BuildingBlock: GALJAG_clean_sbu_0, # of connection points: 4
#     Node 5, Type 0, BuildingBlock: GALJAG_clean_sbu_0, # of connection points: 4
#     Node 6, Type 0, BuildingBlock: GALJAG_clean_sbu_0, # of connection points: 4
#     Node 7, Type 0, BuildingBlock: GALJAG_clean_sbu_0, # of connection points: 4
#     Node 8, Type 0, BuildingBlock: GALJAG_clean_sbu_0, # of connection points: 4
#     Node 9, Type 0, BuildingBlock: GALJAG_clean_sbu_0, # of connection points: 4
#     Node 10, Type 0, BuildingBlock: GALJAG_clean_sbu_0, # of connection points: 4
#     Node 11, Type 0, BuildingBlock: GALJAG_clean_sbu_0, # of connection points: 4
#     Node 12, Type 0, BuildingBlock: GALJAG_clean_sbu_0, # of connection points: 4
#     Node 13, Type 0, BuildingBlock: GALJAG_clean_sbu_0, # of connection points: 4
#     Node 14, Type 0, BuildingBlock: GALJAG_clean_sbu_0, # of connection points: 4
#     Node 15, Type 0, BuildingBlock: GALJAG_clean_sbu_0, # of connection points: 4
#     Edge 16, Type (0, 0), BuildingBlock: CIFDUS_clean_linker_0, # of connection points: 2
#     Edge 17, Type (0, 0), BuildingBlock: CIFDUS_clean_linker_0, # of connection points: 2
#     Edge 18, Type (0, 0), BuildingBlock: CIFDUS_clean_linker_0, # of connection points: 2
#     Edge 19, Type (0, 0), BuildingBlock: CIFDUS_clean_linker_0, # of connection points: 2
#     Edge 20, Type (0, 0), BuildingBlock: CIFDUS_clean_linker_0, # of connection points: 2
#     Edge 21, Type (0, 0), BuildingBlock: CIFDUS_clean_linker_0, # of connection points: 2
#     Edge 22, Type (0, 0), BuildingBlock: CIFDUS_clean_linker_0, # of connection points: 2
#     Edge 23, Type (0, 0), BuildingBlock: CIFDUS_clean_linker_0, # of connection points: 2
#     Edge 24, Type (0, 0), BuildingBlock: CIFDUS_clean_linker_0, # of connection points: 2
#     Edge 25, Type (0, 0), BuildingBlock: CIFDUS_clean_linker_0, # of connection points: 2
#     Edge 26, Type (0, 0), BuildingBlock: CIFDUS_clean_linker_0, # of connection points: 2
#     Edge 27, Type (0, 0), BuildingBlock: CIFDUS_clean_linker_0, # of connection points: 2
#     Edge 28, Type (0, 0), BuildingBlock: CIFDUS_clean_linker_0, # of connection points: 2
#     Edge 29, Type (0, 0), BuildingBlock: CIFDUS_clean_linker_0, # of connection points: 2
#     Edge 30, Type (0, 0), BuildingBlock: CIFDUS_clean_linker_0, # of connection points: 2
#     Edge 31, Type (0, 0), BuildingBlock: CIFDUS_clean_linker_0, # of connection points: 2
#     Edge 32, Type (0, 0), BuildingBlock: CIFDUS_clean_linker_0, # of connection points: 2
#     Edge 33, Type (0, 0), BuildingBlock: CIFDUS_clean_linker_0, # of connection points: 2
#     Edge 34, Type (0, 0), BuildingBlock: CIFDUS_clean_linker_0, # of connection points: 2
#     Edge 35, Type (0, 0), BuildingBlock: CIFDUS_clean_linker_0, # of connection points: 2
#     Edge 36, Type (0, 0), BuildingBlock: CIFDUS_clean_linker_0, # of connection points: 2
#     Edge 37, Type (0, 0), BuildingBlock: CIFDUS_clean_linker_0, # of connection points: 2
#     Edge 38, Type (0, 0), BuildingBlock: CIFDUS_clean_linker_0, # of connection points: 2
#     Edge 39, Type (0, 0), BuildingBlock: CIFDUS_clean_linker_0, # of connection points: 2
#     Edge 40, Type (0, 0), BuildingBlock: CIFDUS_clean_linker_0, # of connection points: 2
#     Edge 41, Type (0, 0), BuildingBlock: CIFDUS_clean_linker_0, # of connection points: 2
#     Edge 42, Type (0, 0), BuildingBlock: CIFDUS_clean_linker_0, # of connection points: 2
#     Edge 43, Type (0, 0), BuildingBlock: CIFDUS_clean_linker_0, # of connection points: 2
#     Edge 44, Type (0, 0), BuildingBlock: CIFDUS_clean_linker_0, # of connection points: 2
#     Edge 45, Type (0, 0), BuildingBlock: CIFDUS_clean_linker_0, # of connection points: 2
#     Edge 46, Type (0, 0), BuildingBlock: CIFDUS_clean_linker_0, # of connection points: 2
#     Edge 47, Type (0, 0), BuildingBlock: CIFDUS_clean_linker_0, # of connection points: 2
# Relax obj value: 0.210
# Max RMSD: 0.110
# Mean RMSD: 0.110
data_MOF--net-ukt--node1-GALJAG_clean_sbu_0--edge1-CIFDUS_clean_linker_0
_symmetry_space_group_name_H-M    P1
_symmetry_Int_Tables_number       1
_symmetry_cell_setting            triclinic
loop_
_symmetry_equiv_pos_as_xyz
'x, y, z'
_cell_length_a     37.341322
_cell_length_b     37.315356
_cell_length_c     30.434966
_cell_angle_alpha  89.843568
_cell_angle_beta   89.894347
_cell_angle_gamma 89.981296
loop_
_atom_site_label
_atom_site_type_symbol
_atom_site_fract_x
_atom_site_fract_y
_atom_site_fract_z
_atom_type_partial_charge
In0 In 0.54485 0.14858 0.05833 0.0
O1 O 0.60072 0.15104 0.08973 0.0
O2 O 0.58198 0.10093 0.06673 0.0
C3 C 0.52086 0.19805 0.11657 0.0
C4 C 0.49881 0.09528 0.04132 0.0
C5 C 0.56276 0.17879 0.98108 0.0
O6 O 0.53778 0.20584 0.08216 0.0
O7 O 0.51547 0.16499 0.12187 0.0
O8 O 0.53172 0.18184 -0.00266 0.0
O9 O 0.58386 0.15933 0.00294 0.0
C10 C 0.60726 0.1182 0.08386 0.0
O11 O 0.50395 0.1206 0.01449 0.0
O12 O 0.51455 0.09867 0.07768 0.0
In13 In 0.35895 0.55315 0.07686 0.0
O14 O 0.37072 0.6022 0.11901 0.0
O15 O 0.4145 0.57667 0.08768 0.0
C16 C 0.31413 0.52092 0.13461 0.0
C17 C 0.40292 0.50986 0.03156 0.0
C18 C 0.31627 0.59161 0.0232 0.0
O19 O 0.3447 0.53215 0.14554 0.0
O20 O 0.30731 0.52397 0.0943 0.0
O21 O 0.32059 0.55826 0.01886 0.0
O22 O 0.33395 0.60548 0.054 0.0
C23 C 0.40389 0.60247 0.11091 0.0
O24 O 0.38886 0.53754 0.01521 0.0
O25 O 0.39336 0.50285 0.07054 0.0
In26 In 0.92707 0.361 0.04899 0.0
O27 O 0.87531 0.3735 0.08686 0.0
O28 O 0.88738 0.40423 0.03009 0.0
C29 C 0.9379 0.30946 0.1098 0.0
C30 C 0.97502 0.41368 0.03992 0.0
C31 C 0.92212 0.31968 0.97697 0.0
O32 O 0.91051 0.31127 0.08585 0.0
O33 O 0.96002 0.33478 0.10447 0.0
O34 O 0.95017 0.32113 -3e-05 0.0
O35 O 0.89738 0.34033 0.98927 0.0
C36 C 0.8656 0.39792 0.06074 0.0
O37 O 0.96745 0.39217 0.00944 0.0
O38 O 0.9603 0.40698 0.07648 0.0
In39 In 0.12396 0.92386 0.13433 0.0
O40 O 0.10549 0.95867 0.07757 0.0
O41 O 0.07465 0.95974 0.13639 0.0
C42 C 0.17042 0.89214 0.07884 0.0
C43 C 0.08253 0.86577 0.14867 0.0
C44 C 0.16387 0.95418 0.19846 0.0
O45 O 0.16089 0.92441 0.07435 0.0
O46 O 0.15635 0.87606 0.11096 0.0
O47 O 0.13302 0.94176 0.20582 0.0
O48 O 0.1733 0.9531 0.15885 0.0
C49 C 0.07767 0.96965 0.09683 0.0
O50 O 0.11098 0.87128 0.17004 0.0
O51 O 0.07461 0.89026 0.12183 0.0
In52 In 0.52523 0.34342 0.4049 0.0
O53 O 0.58259 0.34845 0.38039 0.0
O54 O 0.55481 0.39631 0.3969 0.0
C55 C 0.49801 0.31161 0.3325 0.0
C56 C 0.48537 0.39096 0.44974 0.0
C57 C 0.54667 0.29061 0.45942 0.0
O58 O 0.51841 0.33844 0.33071 0.0
O59 O 0.48974 0.30199 0.37088 0.0
O60 O 0.51404 0.29642 0.45127 0.0
O61 O 0.56819 0.31155 0.44041 0.0
C62 C 0.58371 0.38213 0.38433 0.0
O63 O 0.50977 0.37251 0.46718 0.0
O64 O 0.47945 0.38393 0.40981 0.0
In65 In 0.14087 0.55717 0.40034 0.0
O66 O 0.14218 0.61498 0.37546 0.0
O67 O 0.09299 0.59477 0.40016 0.0
C68 C 0.1856 0.52835 0.33952 0.0
C69 C 0.0855 0.51483 0.42198 0.0
C70 C 0.17776 0.57715 0.47211 0.0
O71 O 0.15627 0.54279 0.32927 0.0
O72 O 0.19167 0.52757 0.38008 0.0
O73 O 0.16893 0.54493 0.4655 0.0
O74 O 0.16833 0.59879 0.44248 0.0
C75 C 0.10989 0.62137 0.38526 0.0
O76 O 0.11092 0.52119 0.44801 0.0
O77 O 0.08945 0.52758 0.38383 0.0
In78 In 0.95738 0.13949 0.37907 0.0
O79 O 0.98404 0.11012 0.43501 0.0
O80 O -0.00416 0.09231 0.37027 0.0
C81 C 0.94687 0.19304 0.43704 0.0
C82 C 0.89283 0.10769 0.37376 0.0
C83 C 0.97579 0.1712 0.30243 0.0
O84 O 0.97671 0.18808 0.4185 0.0
O85 O 0.92313 0.17059 0.42713 0.0
O86 O 0.95102 0.14839 0.30555 0.0
O87 O 0.9931 0.17611 0.33741 0.0
C88 C -0.0005 0.08734 0.4111 0.0
O89 O 0.8979 0.14001 0.36296 0.0
O90 O 0.92073 0.091 0.38506 0.0
In91 In 0.36374 0.92723 0.43479 0.0
O92 O 0.34862 0.86917 0.41994 0.0
O93 O 0.40212 0.87995 0.43886 0.0
C94 C 0.325 0.9507 0.36546 0.0
C95 C 0.42497 0.96259 0.45109 0.0
C96 C 0.32085 0.93081 0.50561 0.0
O97 O 0.35363 0.93311 0.36072 0.0
O98 O 0.31689 0.95742 0.40471 0.0
O99 O 0.32913 0.95837 0.48357 0.0
O100 O 0.33491 0.90206 0.49237 0.0
C101 C 0.37909 0.85664 0.42917 0.0
O102 O 0.40406 0.95187 0.48078 0.0
O103 O 0.41399 0.9575 0.41242 0.0
In104 In 0.42411 0.82958 0.96775 0.0
O105 O 0.37624 0.86409 0.94727 0.0
O106 O 0.36625 0.81714 0.98474 0.0
C107 C 0.4395 0.78923 0.8964 0.0
C108 C 0.45639 0.89262 0.98341 0.0
C109 C 0.43785 0.79133 0.04074 0.0
O110 O 0.41454 0.78246 0.92285 0.0
O111 O 0.45704 0.81719 0.90517 0.0
O112 O 0.45719 0.78922 0.00667 0.0
O113 O 0.41277 0.81394 0.03835 0.0
C114 C 0.35345 0.84456 0.96635 0.0
O115 O 0.46407 0.86438 0.00415 0.0
O116 O 0.43414 0.88855 0.95273 0.0
In117 In 0.64274 0.42308 0.8828 0.0
O118 O 0.60214 0.38338 0.85499 0.0
O119 O 0.64562 0.36314 0.89284 0.0
C120 C 0.68443 0.42945 0.81114 0.0
C121 C 0.58174 0.45416 0.90896 0.0
C122 C 0.68859 0.44257 0.94656 0.0
O123 O 0.68647 0.40402 0.83827 0.0
O124 O 0.66012 0.45219 0.81922 0.0
O125 O 0.68124 0.46289 0.91458 0.0
O126 O 0.67205 0.41311 0.94678 0.0
C127 C 0.61735 0.35642 0.87176 0.0
O128 O 0.59966 0.43293 0.9325 0.0
O129 O 0.59543 0.4614 0.87185 0.0
In130 In 0.06243 0.67034 0.93863 0.0
O131 O 0.10836 0.63799 0.90869 0.0
O132 O 0.12146 0.6805 0.95179 0.0
C133 C 0.0483 0.71565 0.87184 0.0
C134 C 0.03479 0.60513 0.95394 0.0
C135 C 0.03825 0.70594 0.00935 0.0
O136 O 0.03325 0.6854 0.87475 0.0
O137 O 0.07014 0.72251 0.90218 0.0
O138 O 0.01949 0.70252 0.97507 0.0
O139 O 0.06845 0.69085 0.00783 0.0
C140 C 0.1326 0.65507 0.92832 0.0
O141 O 0.04988 0.62359 0.98308 0.0
O142 O 0.03228 0.62012 0.91677 0.0
In143 In 0.84606 0.06347 0.94141 0.0
O144 O 0.86482 0.02687 0.99666 0.0
O145 O 0.89925 0.03402 0.94153 0.0
C146 C 0.80071 0.07775 0.00784 0.0
C147 C 0.88048 0.12471 0.91929 0.0
C148 C 0.80994 0.04003 0.86981 0.0
O149 O 0.80115 0.04793 0.9882 0.0
O150 O 0.82411 0.09986 0.99495 0.0
O151 O 0.79875 0.06369 0.89559 0.0
O152 O 0.83981 0.0268 0.88037 0.0
C153 C 0.89506 0.02101 0.97954 0.0
O154 O 0.84739 0.12042 0.91341 0.0
O155 O 0.89609 0.09811 0.93591 0.0
In156 In 0.41194 0.62673 0.61832 0.0
O157 O 0.42339 0.58917 0.56225 0.0
O158 O 0.45008 0.5783 0.62227 0.0
C159 C 0.41838 0.67913 0.55793 0.0
C160 C 0.34252 0.60811 0.62228 0.0
C161 C 0.43003 0.65279 0.69814 0.0
O162 O 0.4453 0.66635 0.57765 0.0
O163 O 0.38876 0.66565 0.56901 0.0
O164 O 0.40756 0.62802 0.69299 0.0
O165 O 0.44454 0.66356 0.66315 0.0
C166 C 0.44376 0.5686 0.58333 0.0
O167 O 0.36752 0.58555 0.62604 0.0
O168 O 0.3527 0.6403 0.61925 0.0
In169 In 0.82797 0.43583 0.5135 0.0
O170 O 0.85795 0.46953 0.46297 0.0
O171 O 0.88006 0.46517 0.52695 0.0
C172 C 0.77761 0.43067 0.45058 0.0
C173 C 0.85417 0.36888 0.51949 0.0
C174 C 0.79731 0.45252 0.5913 0.0
O175 O 0.80362 0.40932 0.45364 0.0
O176 O 0.77745 0.45548 0.4787 0.0
O177 O 0.8154 0.42459 0.58482 0.0
O178 O 0.79555 0.47336 0.55868 0.0
C179 C 0.88383 0.47632 0.48809 0.0
O180 O 0.8739 0.39597 0.51415 0.0
O181 O 0.82109 0.37561 0.52247 0.0
In182 In 0.07549 0.84879 0.57366 0.0
O183 O 0.06487 0.887 0.51739 0.0
O184 O 0.03566 0.8956 0.5762 0.0
C185 C 0.08602 0.80204 0.50778 0.0
C186 C 0.14126 0.86921 0.5996 0.0
C187 C 0.04467 0.81704 0.64412 0.0
O188 O 0.1111 0.81877 0.52631 0.0
O189 O 0.0551 0.80847 0.52289 0.0
O190 O 0.06274 0.84547 0.64651 0.0
O191 O 0.04067 0.80526 0.60566 0.0
C192 C 0.04288 0.90628 0.53782 0.0
O193 O 0.13138 0.83687 0.59967 0.0
O194 O 0.11748 0.89123 0.58791 0.0
In195 In 0.67193 0.05587 0.56688 0.0
O196 O 0.62706 0.09664 0.5625 0.0
O197 O 0.68054 0.11635 0.56317 0.0
C198 C 0.69723 0.04811 0.6495 0.0
C199 C 0.61629 0.01368 0.54484 0.0
C200 C 0.72467 0.04872 0.50702 0.0
O201 O 0.67476 0.0717 0.63871 0.0
O202 O 0.70713 0.02801 0.61853 0.0
O203 O 0.7034 0.0749 0.50778 0.0
O204 O 0.71947 0.0256 0.53672 0.0
C205 C 0.64752 0.1235 0.56048 0.0
O206 O 0.63601 0.02881 0.51687 0.0
O207 O 0.62597 0.01793 0.58412 0.0
H208 H 0.52514 0.22839 0.93448 0.0
H209 H 0.63022 0.18137 0.94767 0.0
H210 H 0.65632 0.23077 0.90617 0.0
H211 H 0.65078 0.29291 0.88087 0.0
H212 H 0.54624 0.34082 0.86846 0.0
H213 H 0.5183 0.28527 0.89406 0.0
C214 C 0.55356 0.22842 0.92707 0.0
C215 C 0.57586 0.20189 0.94513 0.0
C216 C 0.56856 0.25735 0.90392 0.0
C217 C 0.61256 0.20187 0.93474 0.0
C218 C 0.62758 0.23022 0.91121 0.0
C219 C 0.62183 0.29072 0.88254 0.0
C220 C 0.60056 0.32086 0.87379 0.0
C221 C 0.6061 0.25902 0.89791 0.0
C222 C 0.5631 0.31784 0.8753 0.0
C223 C 0.54715 0.28621 0.89029 0.0
H224 H 0.18872 0.68898 0.96575 0.0
H225 H 0.16012 0.59296 0.89538 0.0
H226 H 0.21801 0.56628 0.91352 0.0
H227 H 0.27209 0.56673 0.95946 0.0
H228 H 0.29943 0.66219 0.0318 0.0
H229 H 0.24695 0.69278 0.0023 0.0
C230 C 0.19549 0.66252 0.95358 0.0
C231 C 0.17004 0.64268 0.93001 0.0
C232 C 0.22841 0.64708 0.96496 0.0
C233 C 0.17924 0.60865 0.91391 0.0
C234 C 0.21223 0.59329 0.9245 0.0
C235 C 0.26693 0.59446 0.96803 0.0
C236 C 0.28912 0.61195 -0.00159 0.0
C237 C 0.23633 0.61168 0.9516 0.0
C238 C 0.28244 0.648 0.00887 0.0
C239 C 0.25239 0.66549 0.99213 0.0
H240 H 0.85019 0.18756 0.89453 0.0
H241 H 0.95067 0.14024 0.93375 0.0
H242 H 0.97615 0.19966 0.94506 0.0
H243 H 0.96525 0.26322 0.95944 0.0
H244 H 0.86322 0.30996 0.92566 0.0
H245 H 0.84337 0.25292 0.89525 0.0
C246 C 0.87796 0.19032 0.90438 0.0
C247 C 0.89825 0.15971 0.91445 0.0
C248 C 0.89205 0.22451 0.9122 0.0
C249 C 0.93433 0.16352 0.92656 0.0
C250 C 0.9489 0.19748 0.93316 0.0
C251 C 0.93913 0.26123 0.94409 0.0
C252 C 0.91537 0.29035 0.94579 0.0
C253 C 0.92734 0.22799 0.92847 0.0
C254 C 0.88178 0.28764 0.92533 0.0
C255 C 0.8703 0.25496 0.90825 0.0
H256 H 0.30097 0.80614 0.0053 0.0
H257 H 0.3221 0.90789 0.94281 0.0
H258 H 0.26405 0.93048 0.96771 0.0
H259 H 0.21163 0.92394 0.01624 0.0
H260 H 0.19237 0.82276 0.08115 0.0
H261 H 0.24519 0.79719 0.04593 0.0
C262 C 0.29257 0.83303 0.9964 0.0
C263 C 0.31591 0.85552 0.97288 0.0
C264 C 0.25969 0.84607 0.01173 0.0
C265 C 0.30461 0.89016 0.96115 0.0
C266 C 0.27154 0.90315 0.9756 0.0
C267 C 0.21867 0.89612 0.02201 0.0
C268 C 0.19856 0.87543 0.05177 0.0
C269 C 0.24951 0.88178 0.00233 0.0
C270 C 0.20775 0.83935 0.05877 0.0
C271 C 0.23795 0.82471 0.0387 0.0
H272 H 0.61459 0.27658 0.48514 0.0
H273 H 0.50645 0.23633 0.49382 0.0
H274 H 0.52809 0.18221 0.53066 0.0
H275 H 0.57823 0.14403 0.5535 0.0
H276 H 0.68649 0.18379 0.54341 0.0
H277 H 0.66423 0.24077 0.51456 0.0
C278 C 0.59572 0.25613 0.49555 0.0
C279 C 0.55906 0.26016 0.48634 0.0
C280 C 0.60837 0.22504 0.51629 0.0
C281 C 0.53486 0.23369 0.50037 0.0
C282 C 0.54721 0.20275 0.52131 0.0
C283 C 0.59691 0.16538 0.54562 0.0
C284 C 0.63394 0.15965 0.55012 0.0
C285 C 0.58398 0.19777 0.52844 0.0
C286 C 0.65783 0.18756 0.54008 0.0
C287 C 0.64515 0.22005 0.52339 0.0
H288 H 0.28862 0.65091 0.59502 0.0
H289 H 0.31455 0.54052 0.62298 0.0
H290 H 0.26108 0.52095 0.58362 0.0
H291 H 0.21393 0.53493 0.52981 0.0
H292 H 0.19153 0.64537 0.49754 0.0
H293 H 0.23646 0.66521 0.55012 0.0
C294 C 0.28202 0.62262 0.59362 0.0
C295 C 0.30574 0.59716 0.61115 0.0
C296 C 0.25224 0.61154 0.56929 0.0
C297 C 0.29679 0.56062 0.60935 0.0
C298 C 0.2664 0.54939 0.58652 0.0
C299 C 0.21841 0.56332 0.53503 0.0
C300 C 0.20006 0.58864 0.50933 0.0
C301 C 0.24501 0.57454 0.56446 0.0
C302 C 0.20584 0.62536 0.5165 0.0
C303 C 0.23149 0.63675 0.54657 0.0
H304 H 0.92303 0.34881 0.50604 0.0
H305 H 0.81669 0.30651 0.52659 0.0
H306 H 0.83801 0.24632 0.50916 0.0
H307 H 0.88454 0.20783 0.47811 0.0
H308 H 0.9901 0.25054 0.45348 0.0
H309 H 0.97158 0.30846 0.48336 0.0
C310 C 0.90467 0.3263 0.50747 0.0
C311 C 0.86825 0.33208 0.51688 0.0
C312 C 0.91692 0.29197 0.49641 0.0
C313 C 0.84481 0.30272 0.519 0.0
C314 C 0.85694 0.26835 0.50894 0.0
C315 C 0.9037 0.22962 0.48004 0.0
C316 C 0.93843 0.22519 0.46304 0.0
C317 C 0.8926 0.26295 0.49605 0.0
C318 C 0.96311 0.25345 0.46613 0.0
C319 C 0.95248 0.28658 0.48297 0.0
H320 H 0.16965 0.93533 0.58782 0.0
H321 H 0.1981 0.82586 0.6178 0.0
H322 H 0.26054 0.83848 0.59991 0.0
H323 H 0.30301 0.87637 0.55987 0.0
H324 H 0.27345 0.98439 0.52436 0.0
H325 H 0.21574 0.97693 0.56122 0.0
C326 C 0.18971 0.91454 0.59174 0.0
C327 C 0.17924 0.87949 0.60291 0.0
C328 C 0.22526 0.92162 0.57971 0.0
C329 C 0.20549 0.85292 0.60855 0.0
C330 C 0.24116 0.86006 0.59806 0.0
C331 C 0.28432 0.89861 0.56129 0.0
C332 C 0.29193 0.93052 0.53853 0.0
C333 C 0.25081 0.89366 0.58107 0.0
C334 C 0.26792 0.9594 0.54125 0.0
C335 C 0.23482 0.95505 0.56204 0.0
H336 H 0.48382 0.7353 0.04833 0.0
H337 H 0.3933 0.78556 0.11136 0.0
H338 H 0.38008 0.7302 0.15075 0.0
H339 H 0.38427 0.66467 0.15001 0.0
H340 H 0.47238 0.61371 0.08285 0.0
H341 H 0.4972 0.67211 0.06376 0.0
C342 C 0.46201 0.7345 0.07192 0.0
C343 C 0.43877 0.76393 0.07573 0.0
C344 C 0.45375 0.70216 0.09322 0.0
C345 C 0.41111 0.76291 0.10711 0.0
C346 C 0.40337 0.73116 0.12947 0.0
C347 C 0.40965 0.66636 0.1327 0.0
C348 C 0.42574 0.63507 0.11638 0.0
C349 C 0.42293 0.70002 0.12021 0.0
C350 C 0.45903 0.63752 0.09492 0.0
C351 C 0.4731 0.67095 0.08363 0.0
H352 H 0.70389 0.40737 0.02213 0.0
H353 H 0.74138 0.49242 0.93749 0.0
H354 H 0.7996 0.49127 0.9738 0.0
H355 H 0.84286 0.45693 0.01753 0.0
H356 H 0.80603 0.37034 0.10016 0.0
H357 H 0.74431 0.38187 0.07769 0.0
C358 C 0.7245 0.42633 0.01252 0.0
C359 C 0.7188 0.44927 0.9765 0.0
C360 C 0.75813 0.42494 0.03286 0.0
C361 C 0.74534 0.47421 0.96483 0.0
C362 C 0.77872 0.4734 0.98539 0.0
C363 C 0.82115 0.44136 0.03166 0.0
C364 C 0.8289 0.4123 0.05952 0.0
C365 C 0.78596 0.44749 0.01764 0.0
C366 C 0.80066 0.39267 0.07831 0.0
C367 C 0.76541 0.39903 0.06514 0.0
H368 H 0.06961 0.7104 0.08902 0.0
H369 H 0.98714 0.75822 0.00894 0.0
H370 H 0.98687 0.81118 0.05591 0.0
H371 H 0.02125 0.8489 0.10641 0.0
H372 H 0.10712 0.80251 0.18227 0.0
H373 H 0.09405 0.74364 0.15155 0.0
C374 C 0.05078 0.73196 0.08273 0.0
C375 C 0.02924 0.73106 0.04493 0.0
C376 C 0.05173 0.76277 0.10887 0.0
C377 C 0.00436 0.75863 0.03755 0.0
C378 C 0.00439 0.78902 0.06421 0.0
C379 C 0.03623 0.82563 0.11742 0.0
C380 C 0.06583 0.83011 0.14535 0.0
C381 C 0.02965 0.79227 0.09805 0.0
C382 C 0.08454 0.79978 0.16023 0.0
C383 C 0.07733 0.76616 0.14229 0.0
H384 H 0.67003 0.15393 0.09376 0.0
H385 H 0.6257 0.04789 0.07913 0.0
H386 H 0.68491 0.02417 0.06176 0.0
H387 H 0.74607 0.03598 0.03643 0.0
H388 H 0.78967 0.14269 0.04656 0.0
H389 H 0.73429 0.16358 0.08075 0.0
C390 C 0.67356 0.12545 0.08817 0.0
C391 C 0.64354 0.1028 0.08689 0.0
C392 C 0.70749 0.11222 0.07661 0.0
C393 C 0.64843 0.06593 0.07975 0.0
C394 C 0.68224 0.05237 0.06954 0.0
C395 C 0.74377 0.0636 0.04712 0.0
C396 C 0.77154 0.08794 0.03811 0.0
C397 C 0.71152 0.07563 0.06557 0.0
C398 C 0.76844 0.12352 0.05264 0.0
C399 C 0.73671 0.13554 0.07203 0.0
H400 H 0.36695 0.70095 0.50174 0.0
H401 H 0.47455 0.7247 0.54398 0.0
H402 H 0.47402 0.78002 0.50057 0.0
H403 H 0.43969 0.82527 0.45966 0.0
H404 H 0.3313 0.80203 0.41976 0.0
H405 H 0.33576 0.74233 0.45227 0.0
C406 C 0.39048 0.718 0.50092 0.0
C407 C 0.4205 0.70924 0.52658 0.0
C408 C 0.3898 0.7498 0.47637 0.0
C409 C 0.45103 0.73113 0.52472 0.0
C410 C 0.45069 0.76276 0.50002 0.0
C411 C 0.41735 0.80681 0.45711 0.0
C412 C 0.38502 0.8182 0.43796 0.0
C413 C 0.41976 0.77293 0.47697 0.0
C414 C 0.3564 0.79396 0.4346 0.0
C415 C 0.35883 0.75992 0.45348 0.0
H416 H 0.7166 0.46967 0.44223 0.0
H417 H 0.76982 0.37481 0.39422 0.0
H418 H 0.71415 0.35418 0.36112 0.0
H419 H 0.64867 0.35761 0.35864 0.0
H420 H 0.59496 0.45136 0.40895 0.0
H421 H 0.65253 0.47828 0.42734 0.0
C422 C 0.71619 0.44495 0.42355 0.0
C423 C 0.74696 0.42337 0.42155 0.0
C424 C 0.68389 0.43285 0.40542 0.0
C425 C 0.74628 0.39166 0.39675 0.0
C426 C 0.71442 0.37975 0.37796 0.0
C427 C 0.64964 0.38434 0.37252 0.0
C428 C 0.61771 0.40212 0.38338 0.0
C429 C 0.68274 0.39925 0.38403 0.0
C430 C 0.61925 0.43695 0.40074 0.0
C431 C 0.65215 0.45228 0.41156 0.0
H432 H 0.14868 0.6824 0.38694 0.0
H433 H 0.04097 0.6421 0.40044 0.0
H434 H 0.02231 0.69821 0.43482 0.0
H435 H 0.03955 0.75354 0.47332 0.0
H436 H 0.14869 0.79092 0.46469 0.0
H437 H 0.16384 0.7413 0.41619 0.0
C438 C 0.12085 0.68635 0.39604 0.0
C439 C 0.09633 0.65808 0.39171 0.0
C440 C 0.11079 0.71787 0.41776 0.0
C441 C 0.06038 0.6635 0.40372 0.0
C442 C 0.04979 0.69543 0.42379 0.0
C443 C 0.06643 0.75114 0.4601 0.0
C444 C 0.09312 0.77538 0.47318 0.0
C445 C 0.07522 0.72199 0.43305 0.0
C446 C 0.12781 0.7722 0.45563 0.0
C447 C 0.13651 0.74388 0.42783 0.0
H448 H 0.73537 0.09136 0.43655 0.0
H449 H 0.78258 0.00388 0.50913 0.0
H450 H 0.83801 0.01022 0.46681 0.0
H451 H 0.87565 0.04711 0.41826 0.0
H452 H 0.82908 0.13701 0.34952 0.0
H453 H 0.77042 0.12266 0.38042 0.0
C454 C 0.75759 0.07326 0.44258 0.0
C455 C 0.75526 0.04767 0.4764 0.0
C456 C 0.78947 0.07761 0.4189 0.0
C457 C 0.78394 0.02401 0.48347 0.0
C458 C 0.81564 0.02772 0.4594 0.0
C459 C 0.85246 0.06294 0.40907 0.0
C460 C 0.85669 0.09339 0.38221 0.0
C461 C 0.81914 0.05536 0.4283 0.0
C462 C 0.82648 0.11363 0.37046 0.0
C463 C 0.79301 0.10559 0.38835 0.0
H464 H 0.43908 0.95739 0.94831 0.0
H465 H 0.49992 0.90744 0.05233 0.0
H466 H 0.51483 0.96613 0.08207 0.0
H467 H 0.51104 0.03118 0.07841 0.0
H468 H 0.45365 0.08221 0.97247 0.0
H469 H 0.43597 0.02335 0.94412 0.0
C470 C 0.45588 0.95942 0.97723 0.0
C471 C 0.46852 0.92818 -0.002 0.0
C472 C 0.4643 0.99329 0.99425 0.0
C473 C 0.49008 0.93112 0.03558 0.0
C474 C 0.49838 0.96463 0.05282 0.0
C475 C 0.49409 0.02948 0.04956 0.0
C476 C 0.48319 0.06086 0.02784 0.0
C477 C 0.48544 -0.00419 0.03259 0.0
C478 C 0.46197 0.05829 0.98995 0.0
C479 C 0.45219 0.02472 0.97356 0.0
H480 H 0.43462 0.52803 0.95453 0.0
H481 H 0.43865 0.45054 0.06005 0.0
H482 H 0.49415 0.42595 0.03007 0.0
H483 H 0.5435 0.4296 0.97762 0.0
H484 H 0.54066 0.50738 0.87249 0.0
H485 H 0.48249 0.5291 0.8989 0.0
C486 C 0.44734 0.50537 0.97057 0.0
C487 C 0.43269 0.49116 0.00955 0.0
C488 C 0.4796 0.49193 0.9537 0.0
C489 C 0.44944 0.4619 0.03002 0.0
C490 C 0.48126 0.44801 0.01307 0.0
C491 C 0.53019 0.45135 0.96043 0.0
C492 C 0.54648 0.4673 0.92357 0.0
C493 C 0.49697 0.46342 0.97563 0.0
C494 C 0.52869 0.49496 0.90119 0.0
C495 C 0.49548 0.50727 0.91621 0.0
H496 H 0.03452 0.57076 0.03218 0.0
H497 H 0.0102 0.55622 0.89476 0.0
H498 H 0.99371 0.49383 0.90899 0.0
H499 H 0.98416 0.44454 0.96075 0.0
H500 H 0.00466 0.46003 0.09888 0.0
H501 H 0.02575 0.52102 0.08393 0.0
C502 C 0.02556 0.55394 0.00534 0.0
C503 C 0.02335 0.56802 0.96252 0.0
C504 C 0.01598 0.51831 0.01382 0.0
C505 C 0.0118 0.546 0.92805 0.0
C506 C 0.0026 0.51033 0.93612 0.0
C507 C -0.00611 0.46102 0.98751 0.0
C508 C 0.9932 0.44786 0.03082 0.0
C509 C 0.00449 0.49631 0.97888 0.0
C510 C 0.00522 0.46964 0.06527 0.0
C511 C 0.01698 0.50451 0.05676 0.0
H512 H 0.00767 0.96893 0.11932 0.0
H513 H 0.08063 0.00365 0.01774 0.0
H514 H 0.03011 0.02044 0.97098 0.0
H515 H 0.96537 0.02354 0.95832 0.0
H516 H 0.89234 0.98802 0.05948 0.0
H517 H 0.94285 0.97224 0.10674 0.0
C518 C 0.01248 0.98085 0.08729 0.0
C519 C 0.04773 0.9855 0.07211 0.0
C520 C 0.98337 0.98934 0.06014 0.0
C521 C 0.05365 0.0002 0.03021 0.0
C522 C 0.02482 0.00944 0.00334 0.0
C523 C 0.96051 0.01184 0.99045 0.0
C524 C 0.92522 0.00659 0.00526 0.0
C525 C 0.9896 0.00357 0.01771 0.0
C526 C 0.91931 0.99197 0.04722 0.0
C527 C 0.94814 0.98327 0.07439 0.0
H528 H 0.42109 0.53871 0.50796 0.0
H529 H 0.49172 0.52073 0.61795 0.0
H530 H 0.50845 0.46219 0.58783 0.0
H531 H 0.50394 0.41725 0.52927 0.0
H532 H 0.43337 0.43589 0.41931 0.0
H533 H 0.41485 0.49304 0.45117 0.0
C534 C 0.44032 0.52209 0.52528 0.0
C535 C 0.45553 0.5341 0.56483 0.0
C536 C 0.44933 0.48853 0.50814 0.0
C537 C 0.47995 0.5121 0.58722 0.0
C538 C 0.48933 0.47864 0.57014 0.0
C539 C 0.4841 0.43356 0.51259 0.0
C540 C 0.46998 0.42241 0.47202 0.0
C541 C 0.4742 0.46665 0.53061 0.0
C542 C 0.4445 0.44388 0.45066 0.0
C543 C 0.43413 0.47663 0.46867 0.0
H544 H 0.02126 0.5211 0.38199 0.0
H545 H 0.07222 0.47967 0.49871 0.0
H546 H 0.01367 0.46667 0.53101 0.0
H547 H 0.94825 0.4688 0.52685 0.0
H548 H 0.89709 0.5099 0.41013 0.0
H549 H 0.95569 0.52242 0.3774 0.0
C550 C 0.01954 0.5086 0.41415 0.0
C551 C 0.05091 0.50106 0.43785 0.0
C552 C 0.98586 0.50212 0.43292 0.0
C553 C 0.04836 0.48543 0.47976 0.0
C554 C 0.01494 0.47834 0.49839 0.0
C555 C 0.94992 0.48106 0.49454 0.0
C556 C 0.91851 0.4889 0.47109 0.0
C557 C 0.98356 0.48718 0.47556 0.0
C558 C 0.921 0.50404 0.42892 0.0
C559 C 0.95444 0.51085 0.41008 0.0
H560 H 0.05763 0.93379 0.45756 0.0
H561 H 0.00107 0.95637 0.5782 0.0
H562 H 0.98541 0.01594 0.55058 0.0
H563 H 0.98781 0.06119 0.49237 0.0
H564 H 0.04224 0.03799 0.37054 0.0
H565 H 0.05963 0.97902 0.39896 0.0
C566 C 0.04165 0.95165 0.4777 0.0
C567 C 0.03038 0.94073 0.51979 0.0
C568 C 0.03298 0.9858 0.46174 0.0
C569 C 0.00982 0.96413 0.54558 0.0
C570 C 0.0011 -0.00177 0.52994 0.0
C571 C 0.00396 0.04346 0.47226 0.0
C572 C 0.01413 0.05396 0.42963 0.0
C573 C 0.01276 0.00938 0.48823 0.0
C574 C 0.03442 0.0305 0.4036 0.0
C575 C 0.04409 -0.00323 0.41971 0.0
H576 H 0.58512 0.01383 0.46468 0.0
H577 H 0.56884 0.98 0.59902 0.0
H578 H 0.5074 0.96258 0.58179 0.0
H579 H 0.45797 0.95924 0.52954 0.0
H580 H 0.47383 0.99263 0.39503 0.0
H581 H 0.53593 0.00878 0.41163 0.0
C582 C 0.56828 0.00214 0.49003 0.0
C583 C 0.58143 -0.00191 0.53303 0.0
C584 C 0.53287 0.99288 0.4801 0.0
C585 C 0.55931 0.9832 0.56563 0.0
C586 C 0.52414 0.97353 0.5559 0.0
C587 C 0.47491 0.97035 0.5039 0.0
C588 C 0.46135 0.97516 0.46125 0.0
C589 C 0.51052 0.97883 0.51347 0.0
C590 C 0.48369 0.98903 0.42821 0.0
C591 C 0.51917 -0.00199 0.43762 0.0
H592 H 0.51375 0.32704 0.24773 0.0
H593 H 0.46561 0.24608 0.33021 0.0
H594 H 0.465 0.20422 0.26863 0.0
H595 H 0.48569 0.18827 0.19422 0.0
H596 H 0.53492 0.26936 0.11276 0.0
H597 H 0.52737 0.31348 0.1709 0.0
C598 C 0.50244 0.30049 0.25198 0.0
C599 C 0.49018 0.28951 0.29354 0.0
C600 C 0.50285 0.27637 0.21675 0.0
C601 C 0.47534 0.25512 0.29854 0.0
C602 C 0.47522 0.23107 0.26341 0.0
C603 C 0.49425 0.21573 0.18903 0.0
C604 C 0.51135 0.22539 0.14957 0.0
C605 C 0.49012 0.24099 0.22283 0.0
C606 C 0.522 0.26115 0.14304 0.0
C607 C 0.51774 0.28643 0.17629 0.0
H608 H 0.17637 0.51844 0.25178 0.0
H609 H 0.256 0.51447 0.3542 0.0
H610 H 0.30321 0.507 0.29946 0.0
H611 H 0.32243 0.50968 0.22225 0.0
H612 H 0.24279 0.51266 0.11977 0.0
H613 H 0.19511 0.51165 0.17465 0.0
C614 C 0.204 0.51531 0.26206 0.0
C615 C 0.21277 0.5176 0.30682 0.0
C616 C 0.23106 0.51101 0.2304 0.0
C617 C 0.24859 0.51303 0.31986 0.0
C618 C 0.27565 0.50888 0.28858 0.0
C619 C 0.29464 0.50928 0.21196 0.0
C620 C 0.28617 0.51179 0.16712 0.0
C621 C 0.26731 0.50901 0.2437 0.0
C622 C 0.25004 0.51091 0.15416 0.0
C623 C 0.22272 0.51059 0.18553 0.0
H624 H 0.9913 0.30042 0.1704 0.0
H625 H 0.89676 0.2501 0.11726 0.0
H626 H 0.90333 0.20031 0.16828 0.0
H627 H 0.93283 0.1732 0.23137 0.0
H628 H 0.02546 0.224 0.28827 0.0
H629 H 0.0233 0.27088 0.23185 0.0
C630 C 0.9723 0.27845 0.16996 0.0
C631 C 0.94337 0.27919 0.14044 0.0
C632 C 0.976 0.24984 0.19987 0.0
C633 C 0.91905 0.25044 0.13999 0.0
C634 C 0.92283 0.22182 0.16905 0.0
C635 C 0.95299 0.19412 0.23098 0.0
C636 C 0.9792 0.19518 0.26396 0.0
C637 C 0.95083 0.22151 0.19954 0.0
C638 C 0.00503 0.22258 0.26312 0.0
C639 C 0.00362 0.24955 0.23109 0.0
H640 H 0.25461 0.96704 0.37103 0.0
H641 H 0.3403 0.95132 0.27777 0.0
H642 H 0.29776 0.95666 0.21703 0.0
H643 H 0.23572 0.95886 0.19125 0.0
H644 H 0.14932 0.96811 0.28485 0.0
H645 H 0.19268 0.9728 0.34484 0.0
C646 C 0.26406 0.96543 0.33736 0.0
C647 C 0.30049 0.95874 0.32876 0.0
C648 C 0.23927 0.96716 0.30282 0.0
C649 C 0.31235 0.95636 0.2851 0.0
C650 C 0.28804 0.95934 0.25043 0.0
C651 C 0.22637 0.96265 0.22469 0.0
C652 C 0.1894 0.96315 0.23372 0.0
C653 C 0.25135 0.96375 0.259 0.0
C654 C 0.17766 0.96765 0.27718 0.0
C655 C 0.20243 0.97017 0.31144 0.0
H656 H 0.41564 0.72204 0.8845 0.0
H657 H 0.47929 0.80451 0.82285 0.0
H658 H 0.48533 0.76746 0.75676 0.0
H659 H 0.46759 0.71385 0.71455 0.0
H660 H 0.40309 0.63236 0.77723 0.0
H661 H 0.40277 0.66663 0.84529 0.0
C662 C 0.43106 0.73183 0.8567 0.0
C663 C 0.44656 0.7661 0.85814 0.0
C664 C 0.43424 0.71056 0.81911 0.0
C665 C 0.46696 0.77825 0.82229 0.0
C666 C 0.47033 0.75711 0.78455 0.0
C667 C 0.45401 0.70334 0.74336 0.0
C668 C 0.43511 0.67078 0.74079 0.0
C669 C 0.45342 0.72353 0.78228 0.0
C670 C 0.41765 0.65744 0.77833 0.0
C671 C 0.41733 0.67708 0.8172 0.0
H672 H 0.80048 0.41142 0.66361 0.0
H673 H 0.7475 0.50454 0.61038 0.0
H674 H 0.70812 0.50685 0.67498 0.0
H675 H 0.68622 0.4793 0.74454 0.0
H676 H 0.7396 0.38486 0.79432 0.0
H677 H 0.78111 0.38611 0.733 0.0
C678 C 0.78058 0.4325 0.66626 0.0
C679 C 0.77675 0.45764 0.63226 0.0
C680 C 0.75776 0.43314 0.7027 0.0
C681 C 0.75096 0.48488 0.63626 0.0
C682 C 0.72831 0.48606 0.67303 0.0
C683 C 0.70702 0.45914 0.74189 0.0
C684 C 0.70955 0.43185 0.77374 0.0
C685 C 0.73099 0.45982 0.70608 0.0
C686 C 0.73679 0.40599 0.77011 0.0
C687 C 0.76069 0.40668 0.73508 0.0
H688 H 0.0552 0.83615 0.72848 0.0
H689 H 0.01159 0.75161 0.6484 0.0
H690 H 0.00496 0.71347 0.71351 0.0
H691 H 0.01859 0.70184 0.7918 0.0
H692 H 0.06565 0.786 0.86968 0.0
H693 H 0.06373 0.82661 0.80696 0.0
C694 C 0.04364 0.80961 0.72533 0.0
C695 C 0.03421 0.79658 0.6837 0.0
C696 C 0.04094 0.78758 0.76251 0.0
C697 C 0.01915 0.7622 0.68015 0.0
C698 C 0.01556 0.74031 0.71732 0.0
C699 C 0.02787 0.72924 0.79508 0.0
C700 C 0.04261 0.74082 0.83508 0.0
C701 C 0.02745 0.75233 0.75846 0.0
C702 C 0.05457 0.77635 0.83903 0.0
C703 C 0.05347 0.79962 0.80321 0.0
H704 H 0.75421 0.00859 0.67818 0.0
H705 H 0.67248 0.08237 0.72169 0.0
H706 H 0.69842 0.08311 0.795 0.0
H707 H 0.74641 0.06681 0.84485 0.0
H708 H 0.83051 -0.00444 0.80233 0.0
H709 H 0.8012 0.98926 0.73062 0.0
C710 C 0.74193 0.02448 0.70391 0.0
C711 C 0.71164 0.04561 0.69449 0.0
C712 C 0.7574 0.02528 0.74602 0.0
C713 C 0.69596 0.0661 0.72803 0.0
C714 C 0.71074 0.06654 0.76998 0.0
C715 C 0.75823 0.04956 0.82012 0.0
C716 C 0.7907 0.03188 0.82869 0.0
C717 C 0.74179 0.04683 0.77903 0.0
C718 C 0.80552 0.00949 0.79641 0.0
C719 C 0.78886 0.00604 0.7554 0.0
loop_
_geom_bond_atom_site_label_1
_geom_bond_atom_site_label_2
_geom_bond_distance
_geom_bond_site_symmetry_2
_ccdc_geom_bond_type
In0 O1 2.294 . S
In0 O2 2.326 1_554 S
In0 O6 2.266 . S
In0 O7 2.326 . S
In0 O8 2.266 . S
In0 O9 2.326 . S
In0 O11 2.294 . S
In0 O12 2.326 . S
O1 In0 2.294 . S
O1 C10 1.240 . S
O2 In0 2.326 1_556 S
O2 C10 1.252 1_556 S
C3 O6 1.252 . S
C3 O7 1.260 . S
C4 O11 1.240 . S
C4 O12 1.252 . S
C5 O8 1.252 . S
C5 O9 1.260 . S
O6 In0 2.266 . S
O6 C3 1.252 . S
O7 In0 2.326 . S
O7 C3 1.260 . S
O8 In0 2.266 . S
O8 C5 1.252 . S
O9 In0 2.326 . S
O9 C5 1.260 . S
C10 O1 1.240 . S
C10 O2 1.252 1_554 S
O11 In0 2.294 . S
O11 C4 1.240 . S
O12 In0 2.326 . S
O12 C4 1.252 . S
In13 O14 2.294 . S
In13 O15 2.326 1_554 S
In13 O19 2.266 . S
In13 O20 2.326 . S
In13 O21 2.266 . S
In13 O22 2.326 . S
In13 O24 2.294 . S
In13 O25 2.326 . S
O14 In13 2.294 . S
O14 C23 1.240 . S
O15 In13 2.326 1_556 S
O15 C23 1.252 1_556 S
C16 O19 1.252 . S
C16 O20 1.260 . S
C17 O24 1.240 . S
C17 O25 1.252 . S
C18 O21 1.252 . S
C18 O22 1.260 . S
O19 In13 2.266 . S
O19 C16 1.252 . S
O20 In13 2.326 . S
O20 C16 1.260 . S
O21 In13 2.266 . S
O21 C18 1.252 . S
O22 In13 2.326 . S
O22 C18 1.260 . S
C23 O14 1.240 . S
C23 O15 1.252 1_554 S
O24 In13 2.294 . S
O24 C17 1.240 . S
O25 In13 2.326 . S
O25 C17 1.252 . S
In26 O27 2.294 . S
In26 O28 2.326 1_554 S
In26 O32 2.266 . S
In26 O33 2.326 1_655 S
In26 O34 2.266 . S
In26 O35 2.326 . S
In26 O37 2.294 1_655 S
In26 O38 2.326 . S
O27 In26 2.294 . S
O27 C36 1.240 . S
O28 In26 2.326 1_556 S
O28 C36 1.252 1_556 S
C29 O32 1.252 . S
C29 O33 1.260 1_655 S
C30 O37 1.240 . S
C30 O38 1.252 1_455 S
C31 O34 1.252 . S
C31 O35 1.260 . S
O32 In26 2.266 . S
O32 C29 1.252 . S
O33 In26 2.326 1_455 S
O33 C29 1.260 1_455 S
O34 In26 2.266 . S
O34 C31 1.252 . S
O35 In26 2.326 . S
O35 C31 1.260 . S
C36 O27 1.240 . S
C36 O28 1.252 1_554 S
O37 In26 2.294 1_455 S
O37 C30 1.240 . S
O38 In26 2.326 . S
O38 C30 1.252 1_655 S
In39 O40 2.294 1_565 S
In39 O41 2.326 . S
In39 O45 2.266 . S
In39 O46 2.326 . S
In39 O47 2.266 . S
In39 O48 2.326 1_565 S
In39 O50 2.294 . S
In39 O51 2.326 1_554 S
O40 In39 2.294 1_545 S
O40 C49 1.240 . S
O41 In39 2.326 . S
O41 C49 1.252 1_565 S
C42 O45 1.252 . S
C42 O46 1.260 . S
C43 O50 1.240 . S
C43 O51 1.252 1_554 S
C44 O47 1.252 . S
C44 O48 1.260 1_565 S
O45 In39 2.266 . S
O45 C42 1.252 . S
O46 In39 2.326 . S
O46 C42 1.260 . S
O47 In39 2.266 . S
O47 C44 1.252 . S
O48 In39 2.326 1_545 S
O48 C44 1.260 1_545 S
C49 O40 1.240 . S
C49 O41 1.252 1_545 S
O50 In39 2.294 . S
O50 C43 1.240 . S
O51 In39 2.326 1_556 S
O51 C43 1.252 1_556 S
In52 O53 2.294 . S
In52 O54 2.326 . S
In52 O58 2.266 . S
In52 O59 2.326 . S
In52 O60 2.266 . S
In52 O61 2.326 . S
In52 O63 2.294 . S
In52 O64 2.326 . S
O53 In52 2.294 . S
O53 C62 1.240 . S
O54 In52 2.326 . S
O54 C62 1.252 . S
C55 O58 1.252 . S
C55 O59 1.260 . S
C56 O63 1.240 . S
C56 O64 1.252 . S
C57 O60 1.252 . S
C57 O61 1.260 . S
O58 In52 2.266 . S
O58 C55 1.252 . S
O59 In52 2.326 . S
O59 C55 1.260 . S
O60 In52 2.266 . S
O60 C57 1.252 . S
O61 In52 2.326 . S
O61 C57 1.260 . S
C62 O53 1.240 . S
C62 O54 1.252 . S
O63 In52 2.294 . S
O63 C56 1.240 . S
O64 In52 2.326 . S
O64 C56 1.252 . S
In65 O66 2.294 . S
In65 O67 2.326 . S
In65 O71 2.266 . S
In65 O72 2.326 . S
In65 O73 2.266 . S
In65 O74 2.326 . S
In65 O76 2.294 . S
In65 O77 2.326 . S
O66 In65 2.294 . S
O66 C75 1.240 . S
O67 In65 2.326 . S
O67 C75 1.252 . S
C68 O71 1.252 . S
C68 O72 1.260 . S
C69 O76 1.240 . S
C69 O77 1.252 . S
C70 O73 1.252 . S
C70 O74 1.260 . S
O71 In65 2.266 . S
O71 C68 1.252 . S
O72 In65 2.326 . S
O72 C68 1.260 . S
O73 In65 2.266 . S
O73 C70 1.252 . S
O74 In65 2.326 . S
O74 C70 1.260 . S
C75 O66 1.240 . S
C75 O67 1.252 . S
O76 In65 2.294 . S
O76 C69 1.240 . S
O77 In65 2.326 . S
O77 C69 1.252 . S
In78 O79 2.294 1_655 S
In78 O80 2.326 . S
In78 O84 2.266 . S
In78 O85 2.326 . S
In78 O86 2.266 . S
In78 O87 2.326 1_655 S
In78 O89 2.294 . S
In78 O90 2.326 . S
O79 In78 2.294 1_455 S
O79 C88 1.240 . S
O80 In78 2.326 . S
O80 C88 1.252 1_655 S
C81 O84 1.252 . S
C81 O85 1.260 . S
C82 O89 1.240 . S
C82 O90 1.252 . S
C83 O86 1.252 . S
C83 O87 1.260 1_655 S
O84 In78 2.266 . S
O84 C81 1.252 . S
O85 In78 2.326 . S
O85 C81 1.260 . S
O86 In78 2.266 . S
O86 C83 1.252 . S
O87 In78 2.326 1_455 S
O87 C83 1.260 1_455 S
C88 O79 1.240 . S
C88 O80 1.252 1_455 S
O89 In78 2.294 . S
O89 C82 1.240 . S
O90 In78 2.326 . S
O90 C82 1.252 . S
In91 O92 2.294 . S
In91 O93 2.326 . S
In91 O97 2.266 . S
In91 O98 2.326 1_565 S
In91 O99 2.266 . S
In91 O100 2.326 . S
In91 O102 2.294 1_565 S
In91 O103 2.326 . S
O92 In91 2.294 . S
O92 C101 1.240 . S
O93 In91 2.326 . S
O93 C101 1.252 . S
C94 O97 1.252 . S
C94 O98 1.260 1_565 S
C95 O102 1.240 . S
C95 O103 1.252 1_545 S
C96 O99 1.252 . S
C96 O100 1.260 . S
O97 In91 2.266 . S
O97 C94 1.252 . S
O98 In91 2.326 1_545 S
O98 C94 1.260 1_545 S
O99 In91 2.266 . S
O99 C96 1.252 . S
O100 In91 2.326 . S
O100 C96 1.260 . S
C101 O92 1.240 . S
C101 O93 1.252 . S
O102 In91 2.294 1_545 S
O102 C95 1.240 . S
O103 In91 2.326 . S
O103 C95 1.252 1_565 S
In104 O105 2.294 . S
In104 O106 2.326 1_556 S
In104 O110 2.266 . S
In104 O111 2.326 . S
In104 O112 2.266 . S
In104 O113 2.326 . S
In104 O115 2.294 . S
In104 O116 2.326 . S
O105 In104 2.294 . S
O105 C114 1.240 . S
O106 In104 2.326 1_554 S
O106 C114 1.252 1_554 S
C107 O110 1.252 . S
C107 O111 1.260 . S
C108 O115 1.240 . S
C108 O116 1.252 . S
C109 O112 1.252 . S
C109 O113 1.260 . S
O110 In104 2.266 . S
O110 C107 1.252 . S
O111 In104 2.326 . S
O111 C107 1.260 . S
O112 In104 2.266 . S
O112 C109 1.252 . S
O113 In104 2.326 . S
O113 C109 1.260 . S
C114 O105 1.240 . S
C114 O106 1.252 1_556 S
O115 In104 2.294 . S
O115 C108 1.240 . S
O116 In104 2.326 . S
O116 C108 1.252 . S
In117 O118 2.294 . S
In117 O119 2.326 1_556 S
In117 O123 2.266 . S
In117 O124 2.326 . S
In117 O125 2.266 . S
In117 O126 2.326 . S
In117 O128 2.294 . S
In117 O129 2.326 . S
O118 In117 2.294 . S
O118 C127 1.240 . S
O119 In117 2.326 1_554 S
O119 C127 1.252 1_554 S
C120 O123 1.252 . S
C120 O124 1.260 . S
C121 O128 1.240 . S
C121 O129 1.252 . S
C122 O125 1.252 . S
C122 O126 1.260 . S
O123 In117 2.266 . S
O123 C120 1.252 . S
O124 In117 2.326 . S
O124 C120 1.260 . S
O125 In117 2.266 . S
O125 C122 1.252 . S
O126 In117 2.326 . S
O126 C122 1.260 . S
C127 O118 1.240 . S
C127 O119 1.252 1_556 S
O128 In117 2.294 . S
O128 C121 1.240 . S
O129 In117 2.326 . S
O129 C121 1.252 . S
In130 O131 2.294 . S
In130 O132 2.326 1_556 S
In130 O136 2.266 . S
In130 O137 2.326 1_455 S
In130 O138 2.266 . S
In130 O139 2.326 . S
In130 O141 2.294 1_455 S
In130 O142 2.326 . S
O131 In130 2.294 . S
O131 C140 1.240 . S
O132 In130 2.326 1_554 S
O132 C140 1.252 1_554 S
C133 O136 1.252 . S
C133 O137 1.260 1_455 S
C134 O141 1.240 . S
C134 O142 1.252 1_655 S
C135 O138 1.252 . S
C135 O139 1.260 . S
O136 In130 2.266 . S
O136 C133 1.252 . S
O137 In130 2.326 1_655 S
O137 C133 1.260 1_655 S
O138 In130 2.266 . S
O138 C135 1.252 . S
O139 In130 2.326 . S
O139 C135 1.260 . S
C140 O131 1.240 . S
C140 O132 1.252 1_556 S
O141 In130 2.294 1_655 S
O141 C134 1.240 . S
O142 In130 2.326 . S
O142 C134 1.252 1_455 S
In143 O144 2.294 1_545 S
In143 O145 2.326 . S
In143 O149 2.266 . S
In143 O150 2.326 . S
In143 O151 2.266 . S
In143 O152 2.326 1_545 S
In143 O154 2.294 . S
In143 O155 2.326 1_556 S
O144 In143 2.294 1_565 S
O144 C153 1.240 . S
O145 In143 2.326 . S
O145 C153 1.252 1_545 S
C146 O149 1.252 . S
C146 O150 1.260 . S
C147 O154 1.240 . S
C147 O155 1.252 1_556 S
C148 O151 1.252 . S
C148 O152 1.260 1_545 S
O149 In143 2.266 . S
O149 C146 1.252 . S
O150 In143 2.326 . S
O150 C146 1.260 . S
O151 In143 2.266 . S
O151 C148 1.252 . S
O152 In143 2.326 1_565 S
O152 C148 1.260 1_565 S
C153 O144 1.240 . S
C153 O145 1.252 1_565 S
O154 In143 2.294 . S
O154 C147 1.240 . S
O155 In143 2.326 1_554 S
O155 C147 1.252 1_554 S
In156 O157 2.294 . S
In156 O158 2.326 . S
In156 O162 2.266 . S
In156 O163 2.326 . S
In156 O164 2.266 . S
In156 O165 2.326 . S
In156 O167 2.294 . S
In156 O168 2.326 . S
O157 In156 2.294 . S
O157 C166 1.240 . S
O158 In156 2.326 . S
O158 C166 1.252 . S
C159 O162 1.252 . S
C159 O163 1.260 . S
C160 O167 1.240 . S
C160 O168 1.252 . S
C161 O164 1.252 . S
C161 O165 1.260 . S
O162 In156 2.266 . S
O162 C159 1.252 . S
O163 In156 2.326 . S
O163 C159 1.260 . S
O164 In156 2.266 . S
O164 C161 1.252 . S
O165 In156 2.326 . S
O165 C161 1.260 . S
C166 O157 1.240 . S
C166 O158 1.252 . S
O167 In156 2.294 . S
O167 C160 1.240 . S
O168 In156 2.326 . S
O168 C160 1.252 . S
In169 O170 2.294 . S
In169 O171 2.326 . S
In169 O175 2.266 . S
In169 O176 2.326 . S
In169 O177 2.266 . S
In169 O178 2.326 . S
In169 O180 2.294 . S
In169 O181 2.326 . S
O170 In169 2.294 . S
O170 C179 1.240 . S
O171 In169 2.326 . S
O171 C179 1.252 . S
C172 O175 1.252 . S
C172 O176 1.260 . S
C173 O180 1.240 . S
C173 O181 1.252 . S
C174 O177 1.252 . S
C174 O178 1.260 . S
O175 In169 2.266 . S
O175 C172 1.252 . S
O176 In169 2.326 . S
O176 C172 1.260 . S
O177 In169 2.266 . S
O177 C174 1.252 . S
O178 In169 2.326 . S
O178 C174 1.260 . S
C179 O170 1.240 . S
C179 O171 1.252 . S
O180 In169 2.294 . S
O180 C173 1.240 . S
O181 In169 2.326 . S
O181 C173 1.252 . S
In182 O183 2.294 1_455 S
In182 O184 2.326 . S
In182 O188 2.266 . S
In182 O189 2.326 . S
In182 O190 2.266 . S
In182 O191 2.326 1_455 S
In182 O193 2.294 . S
In182 O194 2.326 . S
O183 In182 2.294 1_655 S
O183 C192 1.240 . S
O184 In182 2.326 . S
O184 C192 1.252 1_455 S
C185 O188 1.252 . S
C185 O189 1.260 . S
C186 O193 1.240 . S
C186 O194 1.252 . S
C187 O190 1.252 . S
C187 O191 1.260 1_455 S
O188 In182 2.266 . S
O188 C185 1.252 . S
O189 In182 2.326 . S
O189 C185 1.260 . S
O190 In182 2.266 . S
O190 C187 1.252 . S
O191 In182 2.326 1_655 S
O191 C187 1.260 1_655 S
C192 O183 1.240 . S
C192 O184 1.252 1_655 S
O193 In182 2.294 . S
O193 C186 1.240 . S
O194 In182 2.326 . S
O194 C186 1.252 . S
In195 O196 2.294 . S
In195 O197 2.326 . S
In195 O201 2.266 . S
In195 O202 2.326 1_545 S
In195 O203 2.266 . S
In195 O204 2.326 . S
In195 O206 2.294 1_545 S
In195 O207 2.326 . S
O196 In195 2.294 . S
O196 C205 1.240 . S
O197 In195 2.326 . S
O197 C205 1.252 . S
C198 O201 1.252 . S
C198 O202 1.260 1_545 S
C199 O206 1.240 . S
C199 O207 1.252 1_565 S
C200 O203 1.252 . S
C200 O204 1.260 . S
O201 In195 2.266 . S
O201 C198 1.252 . S
O202 In195 2.326 1_565 S
O202 C198 1.260 1_565 S
O203 In195 2.266 . S
O203 C200 1.252 . S
O204 In195 2.326 . S
O204 C200 1.260 . S
C205 O196 1.240 . S
C205 O197 1.252 . S
O206 In195 2.294 1_565 S
O206 C199 1.240 . S
O207 In195 2.326 . S
O207 C199 1.252 1_545 S
H208 C214 0.930 . S
H209 C217 0.930 . S
H210 C218 0.930 1_556 S
H211 C219 0.930 . S
H212 C222 0.930 . S
H213 C223 0.930 1_554 S
C214 H208 0.930 . S
C214 C215 1.355 . S
C214 C216 1.418 . S
C215 C214 1.355 . S
C215 C217 1.419 . S
C216 C214 1.418 . S
C216 C221 1.424 1_554 S
C216 C223 1.408 1_554 S
C217 H209 0.930 . S
C217 C215 1.419 . S
C217 C218 1.363 . S
C218 H210 0.930 1_554 S
C218 C217 1.363 . S
C218 C221 1.409 1_554 S
C219 H211 0.930 . S
C219 C220 1.355 . S
C219 C221 1.415 . S
C220 C219 1.355 . S
C220 C222 1.419 . S
C221 C216 1.424 1_556 S
C221 C218 1.409 1_556 S
C221 C219 1.415 . S
C222 H212 0.930 . S
C222 C220 1.419 . S
C222 C223 1.362 . S
C223 H213 0.930 1_556 S
C223 C216 1.408 1_556 S
C223 C222 1.362 . S
H224 C230 0.930 1_554 S
H225 C233 0.930 . S
H226 C234 0.930 . S
H227 C235 0.930 1_556 S
H228 C238 0.930 . S
H229 C239 0.930 . S
C230 H224 0.930 1_556 S
C230 C231 1.355 . S
C230 C232 1.415 1_556 S
C231 C230 1.355 . S
C231 C233 1.419 . S
C232 C230 1.415 1_554 S
C232 C237 1.425 1_554 S
C232 C239 1.409 . S
C233 H225 0.930 . S
C233 C231 1.419 . S
C233 C234 1.362 . S
C234 H226 0.930 . S
C234 C233 1.362 . S
C234 C237 1.409 . S
C235 H227 0.930 1_554 S
C235 C236 1.355 . S
C235 C237 1.415 1_554 S
C236 C235 1.355 . S
C236 C238 1.419 . S
C237 C232 1.425 1_556 S
C237 C234 1.409 . S
C237 C235 1.415 1_556 S
C238 H228 0.930 . S
C238 C236 1.419 . S
C238 C239 1.362 . S
C239 H229 0.930 . S
C239 C232 1.409 . S
C239 C238 1.362 . S
H240 C246 0.930 . S
H241 C249 0.930 . S
H242 C250 0.930 . S
H243 C251 0.930 . S
H244 C254 0.930 . S
H245 C255 0.930 . S
C246 H240 0.930 . S
C246 C247 1.355 . S
C246 C248 1.415 . S
C247 C246 1.355 . S
C247 C249 1.419 . S
C248 C246 1.415 . S
C248 C253 1.425 1_556 S
C248 C255 1.409 1_556 S
C249 H241 0.930 . S
C249 C247 1.419 . S
C249 C250 1.362 . S
C250 H242 0.930 . S
C250 C249 1.362 . S
C250 C253 1.407 1_556 S
C251 H243 0.930 . S
C251 C252 1.355 . S
C251 C253 1.417 . S
C252 C251 1.355 . S
C252 C254 1.419 . S
C253 C248 1.425 1_554 S
C253 C250 1.407 1_554 S
C253 C251 1.417 . S
C254 H244 0.930 . S
C254 C252 1.419 . S
C254 C255 1.362 . S
C255 H245 0.930 . S
C255 C248 1.409 1_554 S
C255 C254 1.362 . S
H256 C262 0.930 . S
H257 C265 0.930 . S
H258 C266 0.930 . S
H259 C267 0.931 . S
H260 C270 0.930 . S
H261 C271 0.930 . S
C262 H256 0.930 . S
C262 C263 1.355 . S
C262 C264 1.415 1_556 S
C263 C262 1.355 . S
C263 C265 1.419 . S
C264 C262 1.415 1_554 S
C264 C269 1.425 1_554 S
C264 C271 1.409 . S
C265 H257 0.930 . S
C265 C263 1.419 . S
C265 C266 1.362 . S
C266 H258 0.930 . S
C266 C265 1.362 . S
C266 C269 1.409 . S
C267 H259 0.931 . S
C267 C268 1.355 . S
C267 C269 1.415 1_554 S
C268 C267 1.355 . S
C268 C270 1.419 . S
C269 C264 1.425 1_556 S
C269 C266 1.409 . S
C269 C267 1.415 1_556 S
C270 H260 0.930 . S
C270 C268 1.419 . S
C270 C271 1.362 . S
C271 H261 0.930 . S
C271 C264 1.409 . S
C271 C270 1.362 . S
H272 C278 0.930 . S
H273 C281 0.930 . S
H274 C282 0.930 . S
H275 C283 0.930 . S
H276 C286 0.930 . S
H277 C287 0.930 . S
C278 H272 0.930 . S
C278 C279 1.355 . S
C278 C280 1.415 . S
C279 C278 1.355 . S
C279 C281 1.419 . S
C280 C278 1.415 . S
C280 C285 1.425 . S
C280 C287 1.409 . S
C281 H273 0.930 . S
C281 C279 1.419 . S
C281 C282 1.362 . S
C282 H274 0.930 . S
C282 C281 1.362 . S
C282 C285 1.409 . S
C283 H275 0.930 . S
C283 C284 1.355 . S
C283 C285 1.415 . S
C284 C283 1.355 . S
C284 C286 1.419 . S
C285 C280 1.425 . S
C285 C282 1.409 . S
C285 C283 1.415 . S
C286 H276 0.930 . S
C286 C284 1.419 . S
C286 C287 1.362 . S
C287 H277 0.930 . S
C287 C280 1.409 . S
C287 C286 1.362 . S
H288 C294 0.930 . S
H289 C297 0.930 . S
H290 C298 0.930 . S
H291 C299 0.930 . S
H292 C302 0.930 . S
H293 C303 0.930 . S
C294 H288 0.930 . S
C294 C295 1.355 . S
C294 C296 1.415 . S
C295 C294 1.355 . S
C295 C297 1.419 . S
C296 C294 1.415 . S
C296 C301 1.425 . S
C296 C303 1.409 . S
C297 H289 0.930 . S
C297 C295 1.419 . S
C297 C298 1.362 . S
C298 H290 0.930 . S
C298 C297 1.362 . S
C298 C301 1.409 . S
C299 H291 0.930 . S
C299 C300 1.355 . S
C299 C301 1.415 . S
C300 C299 1.355 . S
C300 C302 1.419 . S
C301 C296 1.425 . S
C301 C298 1.409 . S
C301 C299 1.415 . S
C302 H292 0.930 . S
C302 C300 1.419 . S
C302 C303 1.362 . S
C303 H293 0.930 . S
C303 C296 1.409 . S
C303 C302 1.362 . S
H304 C310 0.930 . S
H305 C313 0.930 . S
H306 C314 0.930 . S
H307 C315 0.930 . S
H308 C318 0.930 . S
H309 C319 0.930 . S
C310 H304 0.930 . S
C310 C311 1.355 . S
C310 C312 1.415 . S
C311 C310 1.355 . S
C311 C313 1.419 . S
C312 C310 1.415 . S
C312 C317 1.425 . S
C312 C319 1.409 . S
C313 H305 0.930 . S
C313 C311 1.419 . S
C313 C314 1.362 . S
C314 H306 0.930 . S
C314 C313 1.362 . S
C314 C317 1.409 . S
C315 H307 0.930 . S
C315 C316 1.355 . S
C315 C317 1.415 . S
C316 C315 1.355 . S
C316 C318 1.419 . S
C317 C312 1.425 . S
C317 C314 1.409 . S
C317 C315 1.415 . S
C318 H308 0.930 . S
C318 C316 1.419 . S
C318 C319 1.362 . S
C319 H309 0.930 . S
C319 C312 1.409 . S
C319 C318 1.362 . S
H320 C326 0.930 . S
H321 C329 0.930 . S
H322 C330 0.930 . S
H323 C331 0.930 . S
H324 C334 0.930 1_545 S
H325 C335 0.930 . S
C326 H320 0.930 . S
C326 C327 1.355 . S
C326 C328 1.415 . S
C327 C326 1.355 . S
C327 C329 1.419 . S
C328 C326 1.415 . S
C328 C333 1.425 . S
C328 C335 1.409 . S
C329 H321 0.930 . S
C329 C327 1.419 . S
C329 C330 1.362 . S
C330 H322 0.930 . S
C330 C329 1.362 . S
C330 C333 1.409 . S
C331 H323 0.930 . S
C331 C332 1.355 . S
C331 C333 1.415 . S
C332 C331 1.355 . S
C332 C334 1.419 . S
C333 C328 1.425 . S
C333 C330 1.409 . S
C333 C331 1.415 . S
C334 H324 0.930 1_565 S
C334 C332 1.419 . S
C334 C335 1.362 . S
C335 H325 0.930 . S
C335 C328 1.409 . S
C335 C334 1.362 . S
H336 C342 0.930 . S
H337 C345 0.930 . S
H338 C346 0.930 . S
H339 C347 0.930 . S
H340 C350 0.930 . S
H341 C351 0.930 . S
C342 H336 0.930 . S
C342 C343 1.355 . S
C342 C344 1.415 . S
C343 C342 1.355 . S
C343 C345 1.419 . S
C344 C342 1.415 . S
C344 C349 1.425 1_556 S
C344 C351 1.409 1_556 S
C345 H337 0.930 . S
C345 C343 1.419 . S
C345 C346 1.362 . S
C346 H338 0.930 . S
C346 C345 1.362 . S
C346 C349 1.409 1_556 S
C347 H339 0.930 . S
C347 C348 1.355 . S
C347 C349 1.415 . S
C348 C347 1.355 . S
C348 C350 1.419 . S
C349 C344 1.425 1_554 S
C349 C346 1.409 1_554 S
C349 C347 1.415 . S
C350 H340 0.930 . S
C350 C348 1.419 . S
C350 C351 1.362 . S
C351 H341 0.930 . S
C351 C344 1.409 1_554 S
C351 C350 1.362 . S
H352 C358 0.930 . S
H353 C361 0.930 . S
H354 C362 0.930 . S
H355 C363 0.930 . S
H356 C366 0.930 . S
H357 C367 0.930 . S
C358 H352 0.930 . S
C358 C359 1.355 1_554 S
C358 C360 1.415 . S
C359 C358 1.355 1_556 S
C359 C361 1.419 . S
C360 C358 1.415 . S
C360 C365 1.425 1_554 S
C360 C367 1.409 . S
C361 H353 0.930 . S
C361 C359 1.419 . S
C361 C362 1.362 . S
C362 H354 0.930 . S
C362 C361 1.362 . S
C362 C365 1.409 . S
C363 H355 0.930 . S
C363 C364 1.355 1_556 S
C363 C365 1.415 . S
C364 C363 1.355 1_554 S
C364 C366 1.419 . S
C365 C360 1.425 1_556 S
C365 C362 1.409 . S
C365 C363 1.415 . S
C366 H356 0.930 . S
C366 C364 1.419 . S
C366 C367 1.362 . S
C367 H357 0.930 . S
C367 C360 1.409 . S
C367 C366 1.362 . S
H368 C374 0.930 . S
H369 C377 0.930 1_655 S
H370 C378 0.930 . S
H371 C379 0.930 . S
H372 C382 0.930 . S
H373 C383 0.930 . S
C374 H368 0.930 . S
C374 C375 1.355 . S
C374 C376 1.415 . S
C375 C374 1.355 . S
C375 C377 1.419 1_556 S
C376 C374 1.415 . S
C376 C381 1.425 1_556 S
C376 C383 1.409 . S
C377 H369 0.930 1_455 S
C377 C375 1.419 1_554 S
C377 C378 1.362 . S
C378 H370 0.930 . S
C378 C377 1.362 . S
C378 C381 1.409 . S
C379 H371 0.930 . S
C379 C380 1.355 . S
C379 C381 1.415 . S
C380 C379 1.355 . S
C380 C382 1.419 1_554 S
C381 C376 1.425 1_554 S
C381 C378 1.409 . S
C381 C379 1.415 . S
C382 H372 0.930 . S
C382 C380 1.419 1_556 S
C382 C383 1.362 . S
C383 H373 0.930 . S
C383 C376 1.409 . S
C383 C382 1.362 . S
H384 C390 0.930 . S
H385 C393 0.930 . S
H386 C394 0.931 . S
H387 C395 0.930 . S
H388 C398 0.930 . S
H389 C399 0.929 1_554 S
C390 H384 0.930 . S
C390 C391 1.355 . S
C390 C392 1.415 . S
C391 C390 1.355 . S
C391 C393 1.419 . S
C392 C390 1.415 . S
C392 C397 1.425 1_554 S
C392 C399 1.409 1_554 S
C393 H385 0.930 . S
C393 C391 1.419 . S
C393 C394 1.362 . S
C394 H386 0.931 . S
C394 C393 1.362 . S
C394 C397 1.408 1_554 S
C395 H387 0.930 . S
C395 C396 1.355 . S
C395 C397 1.416 . S
C396 C395 1.355 . S
C396 C398 1.419 . S
C397 C392 1.425 1_556 S
C397 C394 1.408 1_556 S
C397 C395 1.416 . S
C398 H388 0.930 . S
C398 C396 1.419 . S
C398 C399 1.362 . S
C399 H389 0.929 1_556 S
C399 C392 1.409 1_556 S
C399 C398 1.362 . S
H400 C406 0.930 . S
H401 C409 0.930 . S
H402 C410 0.930 . S
H403 C411 0.930 . S
H404 C414 0.930 . S
H405 C415 0.930 . S
C406 H400 0.930 . S
C406 C407 1.355 . S
C406 C408 1.415 . S
C407 C406 1.355 . S
C407 C409 1.419 . S
C408 C406 1.415 . S
C408 C413 1.425 . S
C408 C415 1.409 . S
C409 H401 0.930 . S
C409 C407 1.419 . S
C409 C410 1.362 . S
C410 H402 0.930 . S
C410 C409 1.362 . S
C410 C413 1.409 . S
C411 H403 0.930 . S
C411 C412 1.355 . S
C411 C413 1.415 . S
C412 C411 1.355 . S
C412 C414 1.419 . S
C413 C408 1.425 . S
C413 C410 1.409 . S
C413 C411 1.415 . S
C414 H404 0.930 . S
C414 C412 1.419 . S
C414 C415 1.362 . S
C415 H405 0.930 . S
C415 C408 1.409 . S
C415 C414 1.362 . S
H416 C422 0.930 . S
H417 C425 0.930 . S
H418 C426 0.930 . S
H419 C427 0.930 . S
H420 C430 0.930 . S
H421 C431 0.930 . S
C422 H416 0.930 . S
C422 C423 1.355 . S
C422 C424 1.415 . S
C423 C422 1.355 . S
C423 C425 1.419 . S
C424 C422 1.415 . S
C424 C429 1.425 . S
C424 C431 1.409 . S
C425 H417 0.930 . S
C425 C423 1.419 . S
C425 C426 1.362 . S
C426 H418 0.930 . S
C426 C425 1.362 . S
C426 C429 1.409 . S
C427 H419 0.930 . S
C427 C428 1.355 . S
C427 C429 1.415 . S
C428 C427 1.355 . S
C428 C430 1.419 . S
C429 C424 1.425 . S
C429 C426 1.409 . S
C429 C427 1.415 . S
C430 H420 0.930 . S
C430 C428 1.419 . S
C430 C431 1.362 . S
C431 H421 0.930 . S
C431 C424 1.409 . S
C431 C430 1.362 . S
H432 C438 0.930 . S
H433 C441 0.930 . S
H434 C442 0.930 . S
H435 C443 0.930 . S
H436 C446 0.930 . S
H437 C447 0.930 . S
C438 H432 0.930 . S
C438 C439 1.355 . S
C438 C440 1.415 . S
C439 C438 1.355 . S
C439 C441 1.419 . S
C440 C438 1.415 . S
C440 C445 1.425 . S
C440 C447 1.409 . S
C441 H433 0.930 . S
C441 C439 1.419 . S
C441 C442 1.362 . S
C442 H434 0.930 . S
C442 C441 1.362 . S
C442 C445 1.409 . S
C443 H435 0.930 . S
C443 C444 1.355 . S
C443 C445 1.415 . S
C444 C443 1.355 . S
C444 C446 1.419 . S
C445 C440 1.425 . S
C445 C442 1.409 . S
C445 C443 1.415 . S
C446 H436 0.930 . S
C446 C444 1.419 . S
C446 C447 1.362 . S
C447 H437 0.930 . S
C447 C440 1.409 . S
C447 C446 1.362 . S
H448 C454 0.930 . S
H449 C457 0.930 . S
H450 C458 0.930 . S
H451 C459 0.930 . S
H452 C462 0.930 . S
H453 C463 0.930 . S
C454 H448 0.930 . S
C454 C455 1.355 . S
C454 C456 1.415 . S
C455 C454 1.355 . S
C455 C457 1.419 . S
C456 C454 1.415 . S
C456 C461 1.425 . S
C456 C463 1.409 . S
C457 H449 0.930 . S
C457 C455 1.419 . S
C457 C458 1.362 . S
C458 H450 0.930 . S
C458 C457 1.362 . S
C458 C461 1.409 . S
C459 H451 0.930 . S
C459 C460 1.355 . S
C459 C461 1.415 . S
C460 C459 1.355 . S
C460 C462 1.419 . S
C461 C456 1.425 . S
C461 C458 1.409 . S
C461 C459 1.415 . S
C462 H452 0.930 . S
C462 C460 1.419 . S
C462 C463 1.362 . S
C463 H453 0.930 . S
C463 C456 1.409 . S
C463 C462 1.362 . S
H464 C470 0.930 . S
H465 C473 0.930 . S
H466 C474 0.930 . S
H467 C475 0.930 . S
H468 C478 0.930 . S
H469 C479 0.930 . S
C470 H464 0.930 . S
C470 C471 1.355 . S
C470 C472 1.415 . S
C471 C470 1.355 . S
C471 C473 1.419 1_556 S
C472 C470 1.415 . S
C472 C477 1.425 1_566 S
C472 C479 1.409 1_565 S
C473 H465 0.930 . S
C473 C471 1.419 1_554 S
C473 C474 1.362 . S
C474 H466 0.930 . S
C474 C473 1.362 . S
C474 C477 1.409 1_565 S
C475 H467 0.930 . S
C475 C476 1.355 . S
C475 C477 1.415 . S
C476 C475 1.355 . S
C476 C478 1.419 1_554 S
C477 C472 1.425 1_544 S
C477 C474 1.409 1_545 S
C477 C475 1.415 . S
C478 H468 0.930 . S
C478 C476 1.419 1_556 S
C478 C479 1.362 . S
C479 H469 0.930 . S
C479 C472 1.409 1_545 S
C479 C478 1.362 . S
H480 C486 0.930 . S
H481 C489 0.930 . S
H482 C490 0.930 . S
H483 C491 0.930 . S
H484 C494 0.930 . S
H485 C495 0.930 . S
C486 H480 0.930 . S
C486 C487 1.355 1_556 S
C486 C488 1.415 . S
C487 C486 1.355 1_554 S
C487 C489 1.419 . S
C488 C486 1.415 . S
C488 C493 1.425 1_556 S
C488 C495 1.409 . S
C489 H481 0.930 . S
C489 C487 1.419 . S
C489 C490 1.362 . S
C490 H482 0.930 . S
C490 C489 1.362 . S
C490 C493 1.409 . S
C491 H483 0.930 . S
C491 C492 1.355 1_554 S
C491 C493 1.415 . S
C492 C491 1.355 1_556 S
C492 C494 1.419 . S
C493 C488 1.425 1_554 S
C493 C490 1.409 . S
C493 C491 1.415 . S
C494 H484 0.930 . S
C494 C492 1.419 . S
C494 C495 1.362 . S
C495 H485 0.930 . S
C495 C488 1.409 . S
C495 C494 1.362 . S
H496 C502 0.930 . S
H497 C505 0.930 . S
H498 C506 0.930 . S
H499 C507 0.930 . S
H500 C510 0.930 . S
H501 C511 0.930 . S
C502 H496 0.930 . S
C502 C503 1.355 1_455 S
C502 C504 1.415 . S
C503 C502 1.355 1_655 S
C503 C505 1.419 . S
C504 C502 1.415 . S
C504 C509 1.425 1_456 S
C504 C511 1.409 1_556 S
C505 H497 0.930 . S
C505 C503 1.419 . S
C505 C506 1.362 . S
C506 H498 0.930 . S
C506 C505 1.362 . S
C506 C509 1.409 1_556 S
C507 H499 0.930 . S
C507 C508 1.355 1_655 S
C507 C509 1.415 . S
C508 C507 1.355 1_455 S
C508 C510 1.419 . S
C509 C504 1.425 1_654 S
C509 C506 1.409 1_554 S
C509 C507 1.415 . S
C510 H500 0.930 . S
C510 C508 1.419 . S
C510 C511 1.362 . S
C511 H501 0.930 . S
C511 C504 1.409 1_554 S
C511 C510 1.362 . S
H512 C518 0.930 . S
H513 C521 0.930 . S
H514 C522 0.930 . S
H515 C523 0.930 . S
H516 C526 0.930 . S
H517 C527 0.930 . S
C518 H512 0.930 . S
C518 C519 1.355 . S
C518 C520 1.415 . S
C519 C518 1.355 . S
C519 C521 1.419 1_554 S
C520 C518 1.415 . S
C520 C525 1.425 1_444 S
C520 C527 1.409 1_455 S
C521 H513 0.930 . S
C521 C519 1.419 1_556 S
C521 C522 1.362 1_545 S
C522 H514 0.930 . S
C522 C521 1.362 1_565 S
C522 C525 1.409 1_455 S
C523 H515 0.930 . S
C523 C524 1.355 . S
C523 C525 1.415 . S
C524 C523 1.355 . S
C524 C526 1.419 1_556 S
C525 C520 1.425 1_666 S
C525 C522 1.409 1_655 S
C525 C523 1.415 . S
C526 H516 0.930 . S
C526 C524 1.419 1_554 S
C526 C527 1.362 1_565 S
C527 H517 0.930 . S
C527 C520 1.409 1_655 S
C527 C526 1.362 1_545 S
H528 C534 0.930 . S
H529 C537 0.930 . S
H530 C538 0.930 . S
H531 C539 0.930 . S
H532 C542 0.930 . S
H533 C543 0.930 . S
C534 H528 0.930 . S
C534 C535 1.355 . S
C534 C536 1.415 . S
C535 C534 1.355 . S
C535 C537 1.419 . S
C536 C534 1.415 . S
C536 C541 1.425 . S
C536 C543 1.409 . S
C537 H529 0.930 . S
C537 C535 1.419 . S
C537 C538 1.362 . S
C538 H530 0.930 . S
C538 C537 1.362 . S
C538 C541 1.409 . S
C539 H531 0.930 . S
C539 C540 1.355 . S
C539 C541 1.415 . S
C540 C539 1.355 . S
C540 C542 1.419 . S
C541 C536 1.425 . S
C541 C538 1.409 . S
C541 C539 1.415 . S
C542 H532 0.930 . S
C542 C540 1.419 . S
C542 C543 1.362 . S
C543 H533 0.930 . S
C543 C536 1.409 . S
C543 C542 1.362 . S
H544 C550 0.930 . S
H545 C553 0.930 . S
H546 C554 0.930 1_655 S
H547 C555 0.930 . S
H548 C558 0.930 . S
H549 C559 0.930 1_455 S
C550 H544 0.930 . S
C550 C551 1.355 . S
C550 C552 1.415 . S
C551 C550 1.355 . S
C551 C553 1.419 . S
C552 C550 1.415 . S
C552 C557 1.425 1_455 S
C552 C559 1.409 1_455 S
C553 H545 0.930 . S
C553 C551 1.419 . S
C553 C554 1.362 . S
C554 H546 0.930 1_455 S
C554 C553 1.362 . S
C554 C557 1.409 1_455 S
C555 H547 0.930 . S
C555 C556 1.355 . S
C555 C557 1.415 . S
C556 C555 1.355 . S
C556 C558 1.419 . S
C557 C552 1.425 1_655 S
C557 C554 1.409 1_655 S
C557 C555 1.415 . S
C558 H548 0.930 . S
C558 C556 1.419 . S
C558 C559 1.362 . S
C559 H549 0.930 1_655 S
C559 C552 1.409 1_655 S
C559 C558 1.362 . S
H560 C566 0.930 . S
H561 C569 0.930 . S
H562 C570 0.930 1_545 S
H563 C571 0.930 . S
H564 C574 0.930 . S
H565 C575 0.930 1_565 S
C566 H560 0.930 . S
C566 C567 1.355 . S
C566 C568 1.415 . S
C567 C566 1.355 . S
C567 C569 1.419 . S
C568 C566 1.415 . S
C568 C573 1.425 1_665 S
C568 C575 1.409 1_565 S
C569 H561 0.930 . S
C569 C567 1.419 . S
C569 C570 1.362 1_655 S
C570 H562 0.930 1_565 S
C570 C569 1.362 1_455 S
C570 C573 1.409 1_565 S
C571 H563 0.930 . S
C571 C572 1.355 . S
C571 C573 1.415 . S
C572 C571 1.355 . S
C572 C574 1.419 . S
C573 C568 1.425 1_445 S
C573 C570 1.409 1_545 S
C573 C571 1.415 . S
C574 H564 0.930 . S
C574 C572 1.419 . S
C574 C575 1.362 1_455 S
C575 H565 0.930 1_545 S
C575 C568 1.409 1_545 S
C575 C574 1.362 1_655 S
H576 C582 0.930 . S
H577 C585 0.930 . S
H578 C586 0.930 . S
H579 C587 0.930 . S
H580 C590 0.930 . S
H581 C591 0.930 . S
C582 H576 0.930 . S
C582 C583 1.355 1_545 S
C582 C584 1.415 . S
C583 C582 1.355 1_565 S
C583 C585 1.419 . S
C584 C582 1.415 . S
C584 C589 1.425 1_545 S
C584 C591 1.409 . S
C585 H577 0.930 . S
C585 C583 1.419 . S
C585 C586 1.362 . S
C586 H578 0.930 . S
C586 C585 1.362 . S
C586 C589 1.409 . S
C587 H579 0.930 . S
C587 C588 1.355 1_565 S
C587 C589 1.415 . S
C588 C587 1.355 1_545 S
C588 C590 1.419 . S
C589 C584 1.425 1_565 S
C589 C586 1.409 . S
C589 C587 1.415 . S
C590 H580 0.930 . S
C590 C588 1.419 . S
C590 C591 1.362 . S
C591 H581 0.930 . S
C591 C584 1.409 . S
C591 C590 1.362 . S
H592 C598 0.930 . S
H593 C601 0.930 . S
H594 C602 0.930 . S
H595 C603 0.930 . S
H596 C606 0.930 . S
H597 C607 0.930 . S
C598 H592 0.930 . S
C598 C599 1.355 . S
C598 C600 1.415 . S
C599 C598 1.355 . S
C599 C601 1.419 . S
C600 C598 1.415 . S
C600 C605 1.425 . S
C600 C607 1.409 . S
C601 H593 0.930 . S
C601 C599 1.419 . S
C601 C602 1.362 . S
C602 H594 0.930 . S
C602 C601 1.362 . S
C602 C605 1.409 . S
C603 H595 0.930 . S
C603 C604 1.355 . S
C603 C605 1.415 . S
C604 C603 1.355 . S
C604 C606 1.419 . S
C605 C600 1.425 . S
C605 C602 1.409 . S
C605 C603 1.415 . S
C606 H596 0.930 . S
C606 C604 1.419 . S
C606 C607 1.362 . S
C607 H597 0.930 . S
C607 C600 1.409 . S
C607 C606 1.362 . S
H608 C614 0.930 . S
H609 C617 0.930 . S
H610 C618 0.930 . S
H611 C619 0.930 . S
H612 C622 0.930 . S
H613 C623 0.930 . S
C614 H608 0.930 . S
C614 C615 1.355 . S
C614 C616 1.415 . S
C615 C614 1.355 . S
C615 C617 1.419 . S
C616 C614 1.415 . S
C616 C621 1.425 . S
C616 C623 1.409 . S
C617 H609 0.930 . S
C617 C615 1.419 . S
C617 C618 1.362 . S
C618 H610 0.930 . S
C618 C617 1.362 . S
C618 C621 1.409 . S
C619 H611 0.930 . S
C619 C620 1.355 . S
C619 C621 1.415 . S
C620 C619 1.355 . S
C620 C622 1.419 . S
C621 C616 1.425 . S
C621 C618 1.409 . S
C621 C619 1.415 . S
C622 H612 0.930 . S
C622 C620 1.419 . S
C622 C623 1.362 . S
C623 H613 0.930 . S
C623 C616 1.409 . S
C623 C622 1.362 . S
H624 C630 0.930 . S
H625 C633 0.930 . S
H626 C634 0.930 . S
H627 C635 0.930 . S
H628 C638 0.930 . S
H629 C639 0.930 . S
C630 H624 0.930 . S
C630 C631 1.355 1_455 S
C630 C632 1.415 . S
C631 C630 1.355 1_655 S
C631 C633 1.419 . S
C632 C630 1.415 . S
C632 C637 1.425 1_455 S
C632 C639 1.409 . S
C633 H625 0.930 . S
C633 C631 1.419 . S
C633 C634 1.362 . S
C634 H626 0.930 . S
C634 C633 1.362 . S
C634 C637 1.409 . S
C635 H627 0.930 . S
C635 C636 1.338 1_655 S
C635 C637 1.415 . S
C636 C635 1.338 1_455 S
C636 C638 1.440 . S
C637 C632 1.425 1_655 S
C637 C634 1.409 . S
C637 C635 1.415 . S
C638 H628 0.930 . S
C638 C636 1.440 . S
C638 C639 1.362 . S
C639 H629 0.930 . S
C639 C632 1.409 . S
C639 C638 1.362 . S
H640 C646 0.930 . S
H641 C649 0.930 . S
H642 C650 0.930 . S
H643 C651 0.930 . S
H644 C654 0.930 . S
H645 C655 0.930 . S
C646 H640 0.930 . S
C646 C647 1.355 1_545 S
C646 C648 1.415 . S
C647 C646 1.355 1_565 S
C647 C649 1.419 . S
C648 C646 1.415 . S
C648 C653 1.425 1_545 S
C648 C655 1.409 . S
C649 H641 0.930 . S
C649 C647 1.419 . S
C649 C650 1.362 . S
C650 H642 0.930 . S
C650 C649 1.362 . S
C650 C653 1.409 . S
C651 H643 0.930 . S
C651 C652 1.357 . S
C651 C653 1.415 . S
C652 C651 1.357 . S
C652 C654 1.416 1_565 S
C653 C648 1.425 1_565 S
C653 C650 1.409 . S
C653 C651 1.415 . S
C654 H644 0.930 . S
C654 C652 1.416 1_545 S
C654 C655 1.362 . S
C655 H645 0.930 . S
C655 C648 1.409 . S
C655 C654 1.362 . S
H656 C662 0.930 . S
H657 C665 0.930 . S
H658 C666 0.930 . S
H659 C667 0.930 . S
H660 C670 0.930 . S
H661 C671 0.930 . S
C662 H656 0.930 . S
C662 C663 1.355 . S
C662 C664 1.415 . S
C663 C662 1.355 . S
C663 C665 1.419 . S
C664 C662 1.415 . S
C664 C669 1.425 . S
C664 C671 1.409 . S
C665 H657 0.930 . S
C665 C663 1.419 . S
C665 C666 1.362 . S
C666 H658 0.930 . S
C666 C665 1.362 . S
C666 C669 1.409 . S
C667 H659 0.930 . S
C667 C668 1.355 . S
C667 C669 1.415 . S
C668 C667 1.355 . S
C668 C670 1.419 . S
C669 C664 1.425 . S
C669 C666 1.409 . S
C669 C667 1.415 . S
C670 H660 0.930 . S
C670 C668 1.419 . S
C670 C671 1.362 . S
C671 H661 0.930 . S
C671 C664 1.409 . S
C671 C670 1.362 . S
H672 C678 0.930 . S
H673 C681 0.930 . S
H674 C682 0.930 . S
H675 C683 0.930 . S
H676 C686 0.930 . S
H677 C687 0.930 . S
C678 H672 0.930 . S
C678 C679 1.355 . S
C678 C680 1.415 . S
C679 C678 1.355 . S
C679 C681 1.419 . S
C680 C678 1.415 . S
C680 C685 1.425 . S
C680 C687 1.409 . S
C681 H673 0.930 . S
C681 C679 1.419 . S
C681 C682 1.362 . S
C682 H674 0.930 . S
C682 C681 1.362 . S
C682 C685 1.409 . S
C683 H675 0.930 . S
C683 C684 1.355 . S
C683 C685 1.415 . S
C684 C683 1.355 . S
C684 C686 1.419 . S
C685 C680 1.425 . S
C685 C682 1.409 . S
C685 C683 1.415 . S
C686 H676 0.930 . S
C686 C684 1.419 . S
C686 C687 1.362 . S
C687 H677 0.930 . S
C687 C680 1.409 . S
C687 C686 1.362 . S
H688 C694 0.930 . S
H689 C697 0.930 . S
H690 C698 0.930 . S
H691 C699 0.930 . S
H692 C702 0.930 . S
H693 C703 0.930 . S
C694 H688 0.930 . S
C694 C695 1.355 . S
C694 C696 1.415 . S
C695 C694 1.355 . S
C695 C697 1.419 1_455 S
C696 C694 1.415 . S
C696 C701 1.420 1_455 S
C696 C703 1.409 . S
C697 H689 0.930 . S
C697 C695 1.419 1_655 S
C697 C698 1.362 . S
C698 H690 0.930 . S
C698 C697 1.362 . S
C698 C701 1.413 . S
C699 H691 0.930 . S
C699 C700 1.355 1_655 S
C699 C701 1.417 . S
C700 C699 1.355 1_455 S
C700 C702 1.419 . S
C701 C696 1.420 1_655 S
C701 C698 1.413 . S
C701 C699 1.417 . S
C702 H692 0.930 . S
C702 C700 1.419 . S
C702 C703 1.362 . S
C703 H693 0.930 . S
C703 C696 1.409 . S
C703 C702 1.362 . S
H704 C710 0.930 . S
H705 C713 0.930 . S
H706 C714 0.930 . S
H707 C715 0.930 . S
H708 C718 0.930 . S
H709 C719 0.930 . S
C710 H704 0.930 . S
C710 C711 1.355 1_565 S
C710 C712 1.415 . S
C711 C710 1.355 1_545 S
C711 C713 1.419 . S
C712 C710 1.415 . S
C712 C717 1.425 1_565 S
C712 C719 1.409 . S
C713 H705 0.930 . S
C713 C711 1.419 . S
C713 C714 1.362 . S
C714 H706 0.930 . S
C714 C713 1.362 . S
C714 C717 1.409 . S
C715 H707 0.930 . S
C715 C716 1.333 1_545 S
C715 C717 1.415 . S
C716 C715 1.333 1_565 S
C716 C718 1.446 . S
C717 C712 1.425 1_545 S
C717 C714 1.409 . S
C717 C715 1.415 . S
C718 H708 0.930 . S
C718 C716 1.446 . S
C718 C719 1.362 . S
C719 H709 0.930 . S
C719 C712 1.409 . S
C719 C718 1.362 . S
C215 C5 1.221 . S
C220 C127 1.292 . S
C231 C140 1.279 . S
C236 C18 1.205 . S
C247 C147 1.282 . S
C252 C31 1.206 . S
C263 C114 1.280 . S
C268 C42 1.205 . S
C279 C57 1.277 . S
C284 C205 1.291 . S
C295 C160 1.282 . S
C300 C70 1.206 . S
C311 C173 1.306 . S
C316 C81 1.274 . S
C327 C186 1.303 . S
C332 C96 1.291 . S
C343 C109 1.206 . S
C348 C23 1.282 . S
C359 C122 1.233 . S
C364 C36 1.277 . S
C375 C135 1.289 . S
C380 C43 1.305 . S
C391 C10 1.291 . S
C396 C146 1.220 . S
C407 C159 1.290 . S
C412 C101 1.304 . S
C423 C172 1.289 . S
C428 C62 1.305 . S
C439 C75 1.297 . S
C444 C185 1.235 . S
C455 C200 1.208 . S
C460 C82 1.277 . S
C471 C108 1.700 . S
C476 C4 1.700 . S
C487 C17 1.732 . S
C492 C121 1.732 . S
C503 C134 1.731 . S
C508 C30 1.731 . S
C519 C49 1.665 . S
C524 C153 1.665 . S
C535 C166 1.728 . S
C540 C56 1.728 . S
C551 C69 1.734 . S
C556 C179 1.734 . S
C567 C192 1.670 . S
C572 C88 1.670 . S
C583 C199 1.693 . S
C588 C95 1.693 . S
C599 C55 1.724 . S
C604 C3 1.692 . S
C615 C68 1.699 . S
C620 C16 1.705 . S
C631 C29 1.691 . S
C636 C83 1.719 1_455 S
C647 C94 1.706 . S
C652 C44 1.729 . S
C663 C107 1.727 . S
C668 C161 1.693 . S
C679 C174 1.716 . S
C684 C120 1.692 . S
C695 C187 1.699 . S
C700 C133 1.704 . S
C711 C198 1.693 . S
C716 C148 1.721 1_565 S
