# Generated by pormake.
# Topology atn, (4)-cn, num edge types: 1
# Building blocks:
#     Node 0, Type 0, BuildingBlock: UXUYUI_clean_sbu_0, # of connection points: 4
#     Node 1, Type 0, BuildingBlock: UXUYUI_clean_sbu_0, # of connection points: 4
#     Node 2, Type 0, BuildingBlock: UXUYUI_clean_sbu_0, # of connection points: 4
#     Node 3, Type 0, BuildingBlock: UXUYUI_clean_sbu_0, # of connection points: 4
#     Node 4, Type 0, BuildingBlock: UXUYUI_clean_sbu_0, # of connection points: 4
#     Node 5, Type 0, BuildingBlock: UXUYUI_clean_sbu_0, # of connection points: 4
#     Node 6, Type 0, BuildingBlock: UXUYUI_clean_sbu_0, # of connection points: 4
#     Node 7, Type 0, BuildingBlock: UXUYUI_clean_sbu_0, # of connection points: 4
#     Node 8, Type 0, BuildingBlock: UXUYUI_clean_sbu_0, # of connection points: 4
#     Node 9, Type 0, BuildingBlock: UXUYUI_clean_sbu_0, # of connection points: 4
#     Node 10, Type 0, BuildingBlock: UXUYUI_clean_sbu_0, # of connection points: 4
#     Node 11, Type 0, BuildingBlock: UXUYUI_clean_sbu_0, # of connection points: 4
#     Node 12, Type 0, BuildingBlock: UXUYUI_clean_sbu_0, # of connection points: 4
#     Node 13, Type 0, BuildingBlock: UXUYUI_clean_sbu_0, # of connection points: 4
#     Node 14, Type 0, BuildingBlock: UXUYUI_clean_sbu_0, # of connection points: 4
#     Node 15, Type 0, BuildingBlock: UXUYUI_clean_sbu_0, # of connection points: 4
#     Edge 16, Type (0, 0), BuildingBlock: OJICUG_clean_linker_0, # of connection points: 2
#     Edge 17, Type (0, 0), BuildingBlock: OJICUG_clean_linker_0, # of connection points: 2
#     Edge 18, Type (0, 0), BuildingBlock: OJICUG_clean_linker_0, # of connection points: 2
#     Edge 19, Type (0, 0), BuildingBlock: OJICUG_clean_linker_0, # of connection points: 2
#     Edge 20, Type (0, 0), BuildingBlock: OJICUG_clean_linker_0, # of connection points: 2
#     Edge 21, Type (0, 0), BuildingBlock: OJICUG_clean_linker_0, # of connection points: 2
#     Edge 22, Type (0, 0), BuildingBlock: OJICUG_clean_linker_0, # of connection points: 2
#     Edge 23, Type (0, 0), BuildingBlock: OJICUG_clean_linker_0, # of connection points: 2
#     Edge 24, Type (0, 0), BuildingBlock: OJICUG_clean_linker_0, # of connection points: 2
#     Edge 25, Type (0, 0), BuildingBlock: OJICUG_clean_linker_0, # of connection points: 2
#     Edge 26, Type (0, 0), BuildingBlock: OJICUG_clean_linker_0, # of connection points: 2
#     Edge 27, Type (0, 0), BuildingBlock: OJICUG_clean_linker_0, # of connection points: 2
#     Edge 28, Type (0, 0), BuildingBlock: OJICUG_clean_linker_0, # of connection points: 2
#     Edge 29, Type (0, 0), BuildingBlock: OJICUG_clean_linker_0, # of connection points: 2
#     Edge 30, Type (0, 0), BuildingBlock: OJICUG_clean_linker_0, # of connection points: 2
#     Edge 31, Type (0, 0), BuildingBlock: OJICUG_clean_linker_0, # of connection points: 2
#     Edge 32, Type (0, 0), BuildingBlock: OJICUG_clean_linker_0, # of connection points: 2
#     Edge 33, Type (0, 0), BuildingBlock: OJICUG_clean_linker_0, # of connection points: 2
#     Edge 34, Type (0, 0), BuildingBlock: OJICUG_clean_linker_0, # of connection points: 2
#     Edge 35, Type (0, 0), BuildingBlock: OJICUG_clean_linker_0, # of connection points: 2
#     Edge 36, Type (0, 0), BuildingBlock: OJICUG_clean_linker_0, # of connection points: 2
#     Edge 37, Type (0, 0), BuildingBlock: OJICUG_clean_linker_0, # of connection points: 2
#     Edge 38, Type (0, 0), BuildingBlock: OJICUG_clean_linker_0, # of connection points: 2
#     Edge 39, Type (0, 0), BuildingBlock: OJICUG_clean_linker_0, # of connection points: 2
#     Edge 40, Type (0, 0), BuildingBlock: OJICUG_clean_linker_0, # of connection points: 2
#     Edge 41, Type (0, 0), BuildingBlock: OJICUG_clean_linker_0, # of connection points: 2
#     Edge 42, Type (0, 0), BuildingBlock: OJICUG_clean_linker_0, # of connection points: 2
#     Edge 43, Type (0, 0), BuildingBlock: OJICUG_clean_linker_0, # of connection points: 2
#     Edge 44, Type (0, 0), BuildingBlock: OJICUG_clean_linker_0, # of connection points: 2
#     Edge 45, Type (0, 0), BuildingBlock: OJICUG_clean_linker_0, # of connection points: 2
#     Edge 46, Type (0, 0), BuildingBlock: OJICUG_clean_linker_0, # of connection points: 2
#     Edge 47, Type (0, 0), BuildingBlock: OJICUG_clean_linker_0, # of connection points: 2
# Relax obj value: 0.164
# Max RMSD: 0.140
# Mean RMSD: 0.140
data_MOF--net-atn--node1-UXUYUI_clean_sbu_0--edge1-OJICUG_clean_linker_0
_symmetry_space_group_name_H-M    P1
_symmetry_Int_Tables_number       1
_symmetry_cell_setting            triclinic
loop_
_symmetry_equiv_pos_as_xyz
'x, y, z'
_cell_length_a     74.738889
_cell_length_b     74.739639
_cell_length_c     30.648454
_cell_angle_alpha  89.990494
_cell_angle_beta   89.991172
_cell_angle_gamma 90.005358
loop_
_atom_site_label
_atom_site_type_symbol
_atom_site_fract_x
_atom_site_fract_y
_atom_site_fract_z
_atom_type_partial_charge
Li0 Li 0.21387 0.3982 0.99183 0.0
Li1 Li 0.20109 0.37338 0.03341 0.0
Li2 Li 0.22926 0.37058 0.99464 0.0
Li3 Li 0.20107 0.37322 0.95342 0.0
C4 C 0.23902 0.38618 0.06865 0.0
N5 N 0.27035 0.38466 0.11647 0.0
C6 C 0.23877 0.3801 0.11178 0.0
C7 C 0.25516 0.39181 0.05018 0.0
C8 C 0.25476 0.37936 0.13535 0.0
C9 C 0.27087 0.39084 0.07476 0.0
C10 C 0.17768 0.40165 0.01493 0.0
C11 C 0.14985 0.41761 0.02344 0.0
N12 N 0.15635 0.42548 0.06018 0.0
C13 C 0.18409 0.40991 0.05279 0.0
C14 C 0.16044 0.40554 1.00009 0.0
C15 C 0.1731 0.42191 0.07518 0.0
C16 C 0.20368 0.43287 0.96619 0.0
N17 N 0.21602 0.42364 0.98975 0.0
C18 C 0.22998 0.45086 0.01239 0.0
C19 C 0.22906 0.43219 0.01254 0.0
C20 C 0.21723 0.46076 0.98894 0.0
C21 C 0.20402 0.45153 0.96537 0.0
H22 H 0.19344 0.42572 0.9484 0.0
H23 H 0.23857 0.42458 0.03142 0.0
C24 C 0.19853 0.35274 0.108 0.0
N25 N 0.18898 0.36471 0.08412 0.0
C26 C 0.19144 0.34554 0.14625 0.0
C27 C 0.16441 0.36252 0.13387 0.0
C28 C 0.17205 0.36941 0.09575 0.0
C29 C 0.17419 0.35051 0.15988 0.0
H30 H 0.21178 0.34889 0.09738 0.0
H31 H 0.16437 0.37839 0.07553 0.0
C32 C 0.22892 0.39884 0.91534 0.0
N33 N 0.23747 0.42795 0.86378 0.0
C34 C 0.21655 0.40543 0.88517 0.0
C35 C 0.24572 0.40693 0.91896 0.0
C36 C 0.22111 0.42018 0.85947 0.0
C37 C 0.24976 0.42167 0.89271 0.0
C38 C 0.19636 0.34038 0.99514 0.0
C39 C 0.20203 0.32264 0.99885 0.0
C40 C 0.17808 0.34423 0.99269 0.0
C41 C 0.18928 0.30897 0.9999 0.0
C42 C 0.16575 0.33019 0.99386 0.0
N43 N 0.17156 0.313 0.9974 0.0
C44 C 0.25398 0.34648 0.02995 0.0
C45 C 0.26299 0.35902 0.96234 0.0
C46 C 0.26915 0.33562 0.03092 0.0
N47 N 0.25119 0.35781 0.99595 0.0
C48 C 0.27829 0.34828 0.96179 0.0
C49 C 0.2814 0.33623 0.99619 0.0
H50 H 0.24417 0.3456 0.05583 0.0
H51 H 0.26028 0.36799 0.93546 0.0
C52 C 0.17476 0.37413 0.88611 0.0
N53 N 0.18898 0.36508 0.90278 0.0
C54 C 0.16651 0.36817 0.84782 0.0
C55 C 0.18751 0.34358 0.84531 0.0
C56 C 0.19543 0.35009 0.88332 0.0
C57 C 0.1729 0.3527 0.82695 0.0
H58 H 0.16998 0.38607 0.90228 0.0
H59 H 0.20685 0.34326 0.89726 0.0
O60 O 0.22351 0.38681 0.04489 0.0
O61 O 0.18822 0.39003 0.9919 0.0
O62 O 0.22452 0.38469 0.94156 0.0
O63 O 0.20872 0.35388 0.99439 0.0
H64 H 0.22636 0.37615 0.1271 0.0
H65 H 0.25559 0.39664 0.01699 0.0
H66 H 0.25475 0.37461 0.16869 0.0
H67 H 0.28347 0.39498 0.06064 0.0
H68 H 0.13647 0.42073 0.01233 0.0
H69 H 0.19738 0.40714 0.06486 0.0
H70 H 0.15529 0.39929 0.97082 0.0
H71 H 0.17788 0.4284 0.10449 0.0
H72 H 0.24025 0.45747 0.03139 0.0
H73 H 0.19405 0.45866 0.94651 0.0
H74 H 0.19953 0.33641 0.16531 0.0
H75 H 0.15091 0.36641 0.14259 0.0
H76 H 0.20348 0.3994 0.88204 0.0
H77 H 0.25552 0.40194 0.94183 0.0
H78 H 0.21161 0.4255 0.83622 0.0
H79 H 0.26267 0.42813 0.89534 0.0
H80 H 0.21614 0.31948 0.00093 0.0
H81 H 0.17343 0.35788 0.99001 0.0
H82 H 0.19347 0.29517 0.00274 0.0
H83 H 0.15157 0.33296 0.99198 0.0
H84 H 0.27087 0.32631 0.05767 0.0
H85 H 0.28744 0.34919 0.93449 0.0
H86 H 0.15519 0.37551 0.83487 0.0
H87 H 0.19299 0.33173 0.82996 0.0
Li88 Li 0.60068 0.21399 0.99298 0.0
Li89 Li 0.62596 0.20142 0.03345 0.0
Li90 Li 0.62818 0.22964 0.99485 0.0
Li91 Li 0.62553 0.20155 0.95352 0.0
C92 C 0.61308 0.23929 0.0691 0.0
N93 N 0.61486 0.2708 0.11617 0.0
C94 C 0.61943 0.23921 0.112 0.0
C95 C 0.6073 0.25536 0.05051 0.0
C96 C 0.6203 0.25528 0.13518 0.0
C97 C 0.60842 0.27116 0.07469 0.0
C98 C 0.5979 0.17771 0.01629 0.0
C99 C 0.58264 0.14956 0.02611 0.0
N100 N 0.57488 0.15602 0.06302 0.0
C101 C 0.58976 0.18408 0.05435 0.0
C102 C 0.5943 0.16032 0.00201 0.0
C103 C 0.57817 0.1729 0.07749 0.0
C104 C 0.56592 0.2029 0.97023 0.0
N105 N 0.57517 0.21589 0.9916 0.0
C106 C 0.54793 0.23043 0.01195 0.0
C107 C 0.5666 0.22955 0.01215 0.0
C108 C 0.53806 0.21695 0.99102 0.0
C109 C 0.54726 0.2031 0.96978 0.0
H110 H 0.57306 0.19228 0.9538 0.0
H111 H 0.57421 0.23965 0.02909 0.0
C112 C 0.64672 0.19917 0.10794 0.0
N113 N 0.63501 0.18938 0.08389 0.0
C114 C 0.65376 0.19233 0.14663 0.0
C115 C 0.63739 0.16494 0.13398 0.0
C116 C 0.6306 0.17237 0.09551 0.0
C117 C 0.64891 0.17509 0.16047 0.0
H118 H 0.65046 0.21244 0.09715 0.0
H119 H 0.6218 0.16452 0.07523 0.0
C120 C 0.59927 0.22884 0.91666 0.0
N121 N 0.56946 0.23637 0.86652 0.0
C122 C 0.59266 0.21612 0.88738 0.0
C123 C 0.59079 0.24546 0.92017 0.0
C124 C 0.57757 0.22016 0.86237 0.0
C125 C 0.57572 0.24898 0.89463 0.0
C126 C 0.65867 0.19702 0.99362 0.0
C127 C 0.6764 0.20282 0.99645 0.0
C128 C 0.65494 0.17871 0.99121 0.0
C129 C 0.69017 0.19017 0.99669 0.0
C130 C 0.66908 0.16649 0.99155 0.0
N131 N 0.68625 0.17242 0.99426 0.0
C132 C 0.65362 0.25326 0.02769 0.0
C133 C 0.63829 0.26455 0.96581 0.0
C134 C 0.66452 0.26838 0.02907 0.0
N135 N 0.64092 0.2516 0.99626 0.0
C136 C 0.64891 0.27995 0.96599 0.0
C137 C 0.6624 0.28192 0.99764 0.0
H138 H 0.65551 0.2426 0.05111 0.0
H139 H 0.62821 0.26276 0.94091 0.0
C140 C 0.62491 0.17507 0.88648 0.0
N141 N 0.63342 0.18979 0.90224 0.0
C142 C 0.63043 0.16737 0.84713 0.0
C143 C 0.65356 0.18989 0.84182 0.0
C144 C 0.64755 0.19719 0.88104 0.0
C145 C 0.64485 0.1749 0.82401 0.0
H146 H 0.61361 0.16958 0.90396 0.0
H147 H 0.65403 0.20889 0.89451 0.0
O148 O 0.61232 0.22369 0.04569 0.0
O149 O 0.60916 0.1884 0.99258 0.0
O150 O 0.61372 0.2249 0.94233 0.0
O151 O 0.64509 0.20928 0.99366 0.0
H152 H 0.62346 0.22687 0.12747 0.0
H153 H 0.60229 0.25567 0.01747 0.0
H154 H 0.62525 0.25541 0.16835 0.0
H155 H 0.60418 0.2837 0.06045 0.0
H156 H 0.57975 0.13607 0.01544 0.0
H157 H 0.59232 0.19747 0.06601 0.0
H158 H 0.60047 0.15519 0.97262 0.0
H159 H 0.57178 0.17765 0.10697 0.0
H160 H 0.54127 0.24125 0.02895 0.0
H161 H 0.5401 0.19258 0.95291 0.0
H162 H 0.66296 0.20045 0.16544 0.0
H163 H 0.63337 0.15156 0.14333 0.0
H164 H 0.59894 0.20316 0.88444 0.0
H165 H 0.59571 0.2555 0.94251 0.0
H166 H 0.57225 0.21039 0.83981 0.0
H167 H 0.56897 0.26174 0.8972 0.0
H168 H 0.67948 0.21695 0.99848 0.0
H169 H 0.64131 0.17396 0.98919 0.0
H170 H 0.70396 0.19446 0.99885 0.0
H171 H 0.6664 0.15229 0.9897 0.0
H172 H 0.67494 0.26913 0.05356 0.0
H173 H 0.64671 0.2901 0.94135 0.0
H174 H 0.6232 0.15594 0.83446 0.0
H175 H 0.66494 0.19594 0.82567 0.0
Li176 Li 0.80103 0.62704 0.03666 0.0
Li177 Li 0.78728 0.60144 1.00016 0.0
Li178 Li 0.79968 0.62623 0.95803 0.0
Li179 Li 0.77204 0.62967 1.00019 0.0
C180 C 0.82804 0.60595 0.01808 0.0
N181 N 0.85894 0.59924 0.06478 0.0
C182 C 0.8299 0.58997 0.04134 0.0
C183 C 0.84192 0.61849 0.01844 0.0
C184 C 0.84563 0.58683 0.06474 0.0
C185 C 0.85742 0.61486 0.04233 0.0
C186 C 0.76447 0.61833 0.07846 0.0
C187 C 0.73322 0.6158 0.09723 0.0
N188 N 0.7358 0.62731 0.13101 0.0
C189 C 0.76681 0.6301 0.11344 0.0
C190 C 0.74756 0.61106 0.07036 0.0
C191 C 0.75215 0.63448 0.13962 0.0
C192 C 0.81754 0.65244 0.09152 0.0
N193 N 0.81402 0.63472 0.0867 0.0
C194 C 0.82674 0.62838 0.15655 0.0
C195 C 0.81833 0.62271 0.11829 0.0
C196 C 0.83039 0.64666 0.16279 0.0
C197 C 0.82574 0.65873 0.12943 0.0
H198 H 0.81351 0.66177 0.06646 0.0
H199 H 0.81495 0.60875 0.11409 0.0
C200 C 0.79581 0.56646 0.97465 0.0
N201 N 0.78489 0.5761 0.00118 0.0
C202 C 0.79505 0.54782 0.9747 0.0
C203 C 0.77167 0.54933 0.02912 0.0
C204 C 0.77295 0.56798 0.02814 0.0
C205 C 0.78292 0.539 0.00237 0.0
H206 H 0.80524 0.57331 0.95369 0.0
H207 H 0.76457 0.57596 0.04924 0.0
C208 C 0.79716 0.66059 0.97292 0.0
N209 N 0.80629 0.68895 0.91955 0.0
C210 C 0.78402 0.66931 0.9484 0.0
C211 C 0.81492 0.66635 0.97046 0.0
C212 C 0.78891 0.68362 0.9216 0.0
C213 C 0.81928 0.68068 0.94321 0.0
C214 C 0.77085 0.59987 0.92547 0.0
C215 C 0.78149 0.59364 0.89118 0.0
C216 C 0.75503 0.59087 0.93604 0.0
C217 C 0.77615 0.57843 0.86811 0.0
C218 C 0.75018 0.57569 0.91225 0.0
N219 N 0.76075 0.56984 0.87906 0.0
C220 C 0.82871 0.63081 0.89784 0.0
C221 C 0.80005 0.63993 0.87335 0.0
C222 C 0.8364 0.63609 0.85827 0.0
N223 N 0.81086 0.63293 0.90461 0.0
C224 C 0.80716 0.64543 0.83347 0.0
C225 C 0.82558 0.64354 0.82541 0.0
H226 H 0.83696 0.62499 0.92304 0.0
H227 H 0.78588 0.64135 0.87959 0.0
C228 C 0.74945 0.65659 0.03006 0.0
N229 N 0.74999 0.64233 0.00261 0.0
C230 C 0.73427 0.66739 0.03201 0.0
C231 C 0.72039 0.6486 0.97743 0.0
C232 C 0.73588 0.63811 0.97662 0.0
C233 C 0.71951 0.66357 0.00517 0.0
H234 H 0.76102 0.65979 0.04974 0.0
H235 H 0.73677 0.62682 0.95469 0.0
O236 O 0.81266 0.60938 0.99539 0.0
O237 O 0.77857 0.61417 0.05189 0.0
O238 O 0.79273 0.64627 0.99853 0.0
O239 O 0.77607 0.61446 0.94916 0.0
H240 H 0.81926 0.58017 0.04174 0.0
H241 H 0.84065 0.63099 0.00095 0.0
H242 H 0.84723 0.57455 0.08302 0.0
H243 H 0.86822 0.6245 0.04311 0.0
H244 H 0.72004 0.61038 0.09112 0.0
H245 H 0.77977 0.63593 0.12012 0.0
H246 H 0.74545 0.60209 0.04314 0.0
H247 H 0.75375 0.64363 0.16669 0.0
H248 H 0.8302 0.61854 0.18107 0.0
H249 H 0.82786 0.67298 0.13305 0.0
H250 H 0.80383 0.54038 0.95322 0.0
H251 H 0.76229 0.54306 0.05129 0.0
H252 H 0.77023 0.66494 0.94956 0.0
H253 H 0.82527 0.65969 0.98903 0.0
H254 H 0.7789 0.69043 0.90228 0.0
H255 H 0.83299 0.68521 0.94079 0.0
H256 H 0.79385 0.60035 0.8828 0.0
H257 H 0.74673 0.59541 0.96275 0.0
H258 H 0.7843 0.57341 0.84163 0.0
H259 H 0.73804 0.56852 0.92027 0.0
H260 H 0.85062 0.63417 0.8533 0.0
H261 H 0.79832 0.65134 0.80948 0.0
H262 H 0.73436 0.67897 0.05322 0.0
H263 H 0.70929 0.64513 0.95636 0.0
Li264 Li 0.37243 0.79842 0.0462 0.0
Li265 Li 0.39943 0.78643 0.00353 0.0
Li266 Li 0.37361 0.79953 0.9664 0.0
Li267 Li 0.37066 0.77158 0.00169 0.0
C268 C 0.38891 0.82864 0.99299 0.0
N269 N 0.38573 0.86253 0.9579 0.0
C270 C 0.40081 0.83437 0.96071 0.0
C271 C 0.37543 0.84014 0.00752 0.0
C272 C 0.39897 0.85156 0.94334 0.0
C273 C 0.37405 0.85723 0.98938 0.0
C274 C 0.38378 0.76004 0.07585 0.0
C275 C 0.38991 0.72859 0.08527 0.0
N276 N 0.37787 0.72801 0.11854 0.0
C277 C 0.3716 0.75917 0.11038 0.0
C278 C 0.39313 0.74467 0.0634 0.0
C279 C 0.36876 0.74284 0.13147 0.0
C280 C 0.34801 0.80511 0.11323 0.0
N281 N 0.36466 0.80928 0.09866 0.0
C282 C 0.37011 0.82732 0.16165 0.0
C283 C 0.3757 0.82021 0.12169 0.0
C284 C 0.3531 0.82293 0.17803 0.0
C285 C 0.34194 0.81178 0.15308 0.0
H286 H 0.33958 0.7963 0.09422 0.0
H287 H 0.38891 0.82321 0.10927 0.0
C288 C 0.434 0.79126 0.96983 0.0
N289 N 0.42466 0.78444 0.00403 0.0
C290 C 0.45267 0.79059 0.96967 0.0
C291 C 0.45168 0.77533 0.03924 0.0
C292 C 0.43303 0.77651 0.03832 0.0
C293 C 0.46172 0.78262 0.00479 0.0
H294 H 0.42693 0.79725 0.94276 0.0
H295 H 0.42522 0.77122 0.06509 0.0
C296 C 0.33832 0.78985 0.98077 0.0
N297 N 0.30737 0.78595 0.93244 0.0
C298 C 0.33838 0.77954 0.94277 0.0
C299 C 0.32253 0.79819 0.99423 0.0
C300 C 0.3226 0.77772 0.91878 0.0
C301 C 0.30702 0.79606 0.96934 0.0
C302 C 0.3916 0.76361 0.92588 0.0
C303 C 0.38284 0.76073 0.88617 0.0
C304 C 0.40571 0.75237 0.93802 0.0
C305 C 0.38811 0.74646 0.85971 0.0
C306 C 0.41059 0.73826 0.91062 0.0
N307 N 0.40175 0.7356 0.87239 0.0
C308 C 0.37623 0.80963 0.87868 0.0
C309 C 0.35263 0.82413 0.91638 0.0
C310 C 0.37082 0.81729 0.83933 0.0
N311 N 0.36688 0.81283 0.9159 0.0
C312 C 0.34685 0.83225 0.87777 0.0
C313 C 0.35577 0.82852 0.83844 0.0
H314 H 0.38765 0.80076 0.87939 0.0
H315 H 0.34546 0.82648 0.9465 0.0
C316 C 0.34348 0.74904 0.02873 0.0
N317 N 0.35791 0.74921 0.00171 0.0
C318 C 0.3323 0.73414 0.03064 0.0
C319 C 0.35102 0.71964 0.97697 0.0
C320 C 0.362 0.73478 0.97651 0.0
C321 C 0.33588 0.71928 0.00407 0.0
H322 H 0.3405 0.76068 0.04841 0.0
H323 H 0.37357 0.73496 0.95566 0.0
O324 O 0.39012 0.81168 0.00947 0.0
O325 O 0.38636 0.7758 0.05402 0.0
O326 O 0.35366 0.792 0.00458 0.0
O327 O 0.38675 0.77767 0.95193 0.0
H328 H 0.41123 0.82559 0.94889 0.0
H329 H 0.36598 0.83583 0.03213 0.0
H330 H 0.40802 0.85615 0.91818 0.0
H331 H 0.36363 0.86625 1.00016 0.0
H332 H 0.39696 0.71657 0.07576 0.0
H333 H 0.36428 0.77092 0.12055 0.0
H334 H 0.40266 0.74511 0.03694 0.0
H335 H 0.35927 0.74194 0.15804 0.0
H336 H 0.37916 0.83576 0.18001 0.0
H337 H 0.32865 0.80826 0.16424 0.0
H338 H 0.45994 0.79616 0.94228 0.0
H339 H 0.4582 0.76919 0.06702 0.0
H340 H 0.35047 0.773 0.93199 0.0
H341 H 0.32229 0.80629 0.02351 0.0
H342 H 0.32247 0.76977 0.88929 0.0
H343 H 0.2947 0.80246 0.97934 0.0
H344 H 0.37208 0.76943 0.87578 0.0
H345 H 0.41281 0.75445 0.96824 0.0
H346 H 0.38138 0.74404 0.82902 0.0
H347 H 0.42143 0.72942 0.91975 0.0
H348 H 0.37818 0.81428 0.80979 0.0
H349 H 0.33513 0.84077 0.87838 0.0
H350 H 0.32065 0.73447 0.05164 0.0
H351 H 0.35429 0.70836 0.95627 0.0
Li352 Li 0.20146 0.62606 0.03904 0.0
Li353 Li 0.22947 0.62926 0.00218 0.0
Li354 Li 0.2027 0.6272 0.95902 0.0
Li355 Li 0.21496 0.60049 0.99885 0.0
C356 C 0.2115 0.66117 0.02554 0.0
N357 N 0.2164 0.69148 0.0757 0.0
C358 C 0.22172 0.66037 0.06365 0.0
C359 C 0.20374 0.67737 0.01296 0.0
C360 C 0.22406 0.67584 0.08855 0.0
C361 C 0.20638 0.69255 0.03876 0.0
C362 C 0.23778 0.60754 0.07678 0.0
C363 C 0.26343 0.58861 0.08923 0.0
N364 N 0.26597 0.59654 0.12868 0.0
C365 C 0.24055 0.61538 0.11767 0.0
C366 C 0.24923 0.59393 0.0626 0.0
C367 C 0.25491 0.60969 0.14332 0.0
C368 C 0.1913 0.62239 0.12652 0.0
N369 N 0.18825 0.63223 0.08997 0.0
C370 C 0.16898 0.65197 0.12941 0.0
C371 C 0.17717 0.64665 0.09052 0.0
C372 C 0.17244 0.64247 0.16803 0.0
C373 C 0.18358 0.62736 0.16618 0.0
H374 H 0.2001 0.61093 0.12506 0.0
H375 H 0.17507 0.65433 0.06108 0.0
C376 C 0.25185 0.65661 0.97531 0.0
N377 N 0.25171 0.64225 0.00254 0.0
C378 C 0.26667 0.6679 0.9735 0.0
C379 C 0.28111 0.64949 0.02789 0.0
C380 C 0.26605 0.63839 0.02824 0.0
C381 C 0.28146 0.66452 1.00044 0.0
H382 H 0.24025 0.65945 0.95537 0.0
H383 H 0.26587 0.62692 0.04943 0.0
C384 C 0.17152 0.61203 0.99786 0.0
N385 N 0.13492 0.61699 0.00075 0.0
C386 C 0.16019 0.59755 0.00607 0.0
C387 C 0.16426 0.62904 0.99116 0.0
C388 C 0.14171 0.60033 0.00738 0.0
C389 C 0.14572 0.63127 0.99274 0.0
C390 C 0.24067 0.61737 0.92634 0.0
C391 C 0.24044 0.62947 0.89155 0.0
C392 C 0.25672 0.60904 0.938 0.0
C393 C 0.25635 0.63323 0.86942 0.0
C394 C 0.27234 0.61318 0.91511 0.0
N395 N 0.27184 0.6251 0.8816 0.0
C396 C 0.19398 0.65213 0.89449 0.0
C397 C 0.18088 0.62359 0.88358 0.0
C398 C 0.18646 0.65845 0.85579 0.0
N399 N 0.19114 0.63499 0.9074 0.0
C400 C 0.17302 0.62937 0.84465 0.0
C401 C 0.17585 0.64701 0.83017 0.0
H402 H 0.20241 0.66079 0.91389 0.0
H403 H 0.17889 0.61 0.89473 0.0
C404 C 0.20701 0.5659 0.02729 0.0
N405 N 0.21662 0.57528 0.99743 0.0
C406 C 0.20721 0.54723 0.02678 0.0
C407 C 0.22743 0.54827 0.96518 0.0
C408 C 0.22673 0.56694 0.96668 0.0
C409 C 0.21747 0.53819 0.99531 0.0
H410 H 0.19908 0.57297 0.05128 0.0
H411 H 0.2341 0.57479 0.94312 0.0
O412 O 0.20887 0.64616 0.00076 0.0
O413 O 0.22366 0.61283 0.05145 0.0
O414 O 0.18963 0.60951 0.99669 0.0
O415 O 0.22531 0.61386 0.94907 0.0
H416 H 0.2278 0.64796 0.07382 0.0
H417 H 0.19569 0.67819 0.98368 0.0
H418 H 0.23196 0.6754 0.1181 0.0
H419 H 0.20044 0.70519 0.02944 0.0
H420 H 0.27243 0.57816 0.07854 0.0
H421 H 0.23171 0.62575 0.12954 0.0
H422 H 0.24724 0.58757 0.03138 0.0
H423 H 0.25724 0.6157 0.17491 0.0
H424 H 0.16059 0.66379 0.1296 0.0
H425 H 0.18644 0.6196 0.1952 0.0
H426 H 0.26633 0.67948 0.95227 0.0
H427 H 0.29232 0.64638 0.04894 0.0
H428 H 0.16564 0.5843 0.0114 0.0
H429 H 0.17283 0.64042 0.985 0.0
H430 H 0.13278 0.58924 0.0137 0.0
H431 H 0.13991 0.64437 0.98767 0.0
H432 H 0.22816 0.63599 0.88193 0.0
H433 H 0.25716 0.59963 0.96473 0.0
H434 H 0.25638 0.64265 0.84262 0.0
H435 H 0.28488 0.60694 0.92404 0.0
H436 H 0.18929 0.67203 0.84561 0.0
H437 H 0.16478 0.62016 0.82624 0.0
H438 H 0.1995 0.53995 0.05086 0.0
H439 H 0.23534 0.54181 0.94012 0.0
Li440 Li 0.36955 0.22816 0.00071 0.0
Li441 Li 0.37271 0.20058 0.03703 0.0
Li442 Li 0.39845 0.21334 0.99902 0.0
Li443 Li 0.3713 0.20051 0.95741 0.0
C444 C 0.38887 0.23778 0.07424 0.0
N445 N 0.3952 0.26804 0.12371 0.0
C446 C 0.37719 0.24243 0.10803 0.0
C447 C 0.40389 0.24841 0.06597 0.0
C448 C 0.38058 0.25782 0.13254 0.0
C449 C 0.40683 0.26368 0.09127 0.0
C450 C 0.33731 0.20527 0.02102 0.0
C451 C 0.30987 0.18898 0.0325 0.0
N452 N 0.30612 0.19963 0.06732 0.0
C453 C 0.33314 0.21613 0.05668 0.0
C454 C 0.32556 0.19165 0.00858 0.0
C455 C 0.31732 0.21303 0.07977 0.0
C456 C 0.34064 0.24937 0.97859 0.0
N457 N 0.35671 0.25048 0.9992 0.0
C458 C 0.35177 0.28151 0.01435 0.0
C459 C 0.36258 0.26626 0.01615 0.0
C460 C 0.33494 0.28056 0.99412 0.0
C461 C 0.32952 0.26427 0.97563 0.0
H462 H 0.33641 0.23681 0.96447 0.0
H463 H 0.37563 0.26715 0.03085 0.0
C464 C 0.37347 0.19342 0.12679 0.0
N465 N 0.36609 0.18773 0.08872 0.0
C466 C 0.36818 0.1859 0.1664 0.0
C467 C 0.34841 0.16612 0.12689 0.0
C468 C 0.35403 0.17409 0.08798 0.0
C469 C 0.35525 0.17227 0.16686 0.0
H470 H 0.3833 0.20402 0.12648 0.0
H471 H 0.34851 0.16963 0.0573 0.0
C472 C 0.38286 0.23926 0.9273 0.0
N473 N 0.37746 0.27189 0.88709 0.0
C474 C 0.36969 0.24106 0.89524 0.0
C475 C 0.39336 0.254 0.93874 0.0
C476 C 0.36715 0.25768 0.87533 0.0
C477 C 0.39041 0.27039 0.91806 0.0
C478 C 0.38861 0.17114 0.01229 0.0
C479 C 0.39994 0.16656 0.0468 0.0
C480 C 0.37643 0.15857 0.99627 0.0
C481 C 0.39881 0.14944 0.06492 0.0
C482 C 0.37575 0.14158 0.01521 0.0
N483 N 0.38684 0.13741 0.04889 0.0
C484 C 0.43304 0.20929 0.03292 0.0
C485 C 0.43205 0.22238 0.96245 0.0
C486 C 0.4517 0.20982 0.0328 0.0
N487 N 0.42368 0.21536 0.99791 0.0
C488 C 0.45071 0.22341 0.96121 0.0
C489 C 0.46074 0.21688 0.99652 0.0
H490 H 0.42597 0.20398 0.06084 0.0
H491 H 0.42425 0.227 0.93497 0.0
C492 C 0.34671 0.19341 0.89113 0.0
N493 N 0.36342 0.18936 0.90544 0.0
C494 C 0.34053 0.18655 0.85158 0.0
C495 C 0.36878 0.17121 0.84259 0.0
C496 C 0.37446 0.17845 0.88231 0.0
C497 C 0.35166 0.17541 0.82654 0.0
H498 H 0.3383 0.20223 0.91017 0.0
H499 H 0.38775 0.1756 0.89445 0.0
O500 O 0.38592 0.2226 0.05037 0.0
O501 O 0.35282 0.20794 0.99831 0.0
O502 O 0.38513 0.22326 0.94822 0.0
O503 O 0.38921 0.18795 0.99474 0.0
H504 H 0.36567 0.23421 0.11538 0.0
H505 H 0.41314 0.24501 0.04017 0.0
H506 H 0.37162 0.26161 0.15866 0.0
H507 H 0.41834 0.27207 0.08508 0.0
H508 H 0.30069 0.17843 0.02342 0.0
H509 H 0.34203 0.22681 0.06642 0.0
H510 H 0.32863 0.18313 0.98103 0.0
H511 H 0.31395 0.22129 0.10756 0.0
H512 H 0.35654 0.29392 0.02838 0.0
H513 H 0.3166 0.26293 0.95993 0.0
H514 H 0.37405 0.19081 0.19641 0.0
H515 H 0.33836 0.15568 0.12578 0.0
H516 H 0.3614 0.2298 0.88617 0.0
H517 H 0.40353 0.25285 0.9637 0.0
H518 H 0.35693 0.25931 0.85065 0.0
H519 H 0.39836 0.28195 0.92678 0.0
H520 H 0.40936 0.17616 0.05976 0.0
H521 H 0.36744 0.16196 0.96987 0.0
H522 H 0.40743 0.14573 0.0918 0.0
H523 H 0.36633 0.13174 0.00329 0.0
H524 H 0.45899 0.20483 0.06082 0.0
H525 H 0.45724 0.22882 0.93254 0.0
H526 H 0.32716 0.18994 0.84073 0.0
H527 H 0.37784 0.16281 0.82414 0.0
Li528 Li 0.79701 0.37379 0.04133 0.0
Li529 Li 0.76917 0.37127 0.99913 0.0
Li530 Li 0.79735 0.37435 0.96109 0.0
Li531 Li 0.7841 0.39894 0.0032 0.0
C532 C 0.80233 0.34134 0.99966 0.0
N533 N 0.82758 0.31435 0.99925 0.0
C534 C 0.79695 0.32345 0.9979 0.0
C535 C 0.82056 0.34552 0.00116 0.0
C536 C 0.80992 0.31 0.99773 0.0
C537 C 0.83312 0.33167 0.00094 0.0
C538 C 0.76906 0.39901 0.0798 0.0
C539 C 0.74904 0.42279 0.101 0.0
N540 N 0.76065 0.42765 0.13305 0.0
C541 C 0.78073 0.40417 0.11314 0.0
C542 C 0.75302 0.40832 0.07385 0.0
C543 C 0.77625 0.41869 0.13966 0.0
C544 C 0.82361 0.3737 0.10839 0.0
N545 N 0.8089 0.36536 0.09202 0.0
C546 C 0.80932 0.34401 0.14996 0.0
C547 C 0.80171 0.35078 0.11184 0.0
C548 C 0.82443 0.35238 0.16802 0.0
C549 C 0.83161 0.36743 0.14672 0.0
H550 H 0.82897 0.38533 0.09196 0.0
H551 H 0.78993 0.34453 0.09813 0.0
C552 C 0.74656 0.34475 0.96716 0.0
N553 N 0.74735 0.35831 0.99661 0.0
C554 C 0.73152 0.33375 0.96516 0.0
C555 C 0.71824 0.35102 0.0235 0.0
C556 C 0.7336 0.36171 0.02439 0.0
C557 C 0.71715 0.33667 0.99392 0.0
H558 H 0.75782 0.34228 0.94583 0.0
H559 H 0.73467 0.37249 0.04772 0.0
C560 C 0.82053 0.40277 0.98176 0.0
N561 N 0.84211 0.42728 0.93938 0.0
C562 C 0.81396 0.41239 0.94602 0.0
C563 C 0.83806 0.40566 0.99596 0.0
C564 C 0.82507 0.42472 0.92507 0.0
C565 C 0.84877 0.41807 0.97405 0.0
C566 C 0.75948 0.38571 0.92569 0.0
C567 C 0.75982 0.37696 0.8854 0.0
C568 C 0.74329 0.39238 0.94169 0.0
C569 C 0.74388 0.3747 0.86223 0.0
C570 C 0.72763 0.38983 0.9176 0.0
N571 N 0.72825 0.38109 0.87871 0.0
C572 C 0.80185 0.35151 0.89065 0.0
C573 C 0.82492 0.3732 0.89361 0.0
C574 C 0.80896 0.34433 0.85236 0.0
N575 N 0.80967 0.36587 0.91008 0.0
C576 C 0.8324 0.36654 0.85509 0.0
C577 C 0.82431 0.35201 0.83379 0.0
H578 H 0.78985 0.34579 0.90463 0.0
H579 H 0.83137 0.38417 0.91003 0.0
C580 C 0.79334 0.43332 0.03275 0.0
N581 N 0.78187 0.42438 0.00613 0.0
C582 C 0.7932 0.45197 0.03413 0.0
C583 C 0.76924 0.45191 0.98115 0.0
C584 C 0.7699 0.43323 0.98065 0.0
C585 C 0.78115 0.46152 0.00779 0.0
H586 H 0.80283 0.42593 0.05236 0.0
H587 H 0.76116 0.42584 0.9592 0.0
O588 O 0.78974 0.35462 0.99966 0.0
O589 O 0.77341 0.38507 0.05286 0.0
O590 O 0.8098 0.39097 0.0037 0.0
O591 O 0.77491 0.38777 0.94927 0.0
H592 H 0.78288 0.32003 0.99664 0.0
H593 H 0.825 0.35927 0.00241 0.0
H594 H 0.80595 0.29609 0.99638 0.0
H595 H 0.84726 0.3347 0.00209 0.0
H596 H 0.73673 0.43018 0.09655 0.0
H597 H 0.79321 0.39717 0.11821 0.0
H598 H 0.74379 0.40452 0.04835 0.0
H599 H 0.78522 0.42289 0.1654 0.0
H600 H 0.8032 0.33254 0.1656 0.0
H601 H 0.84332 0.37419 0.15938 0.0
H602 H 0.73144 0.32268 0.94237 0.0
H603 H 0.70744 0.35385 0.04601 0.0
H604 H 0.80046 0.41036 0.93439 0.0
H605 H 0.84334 0.39838 0.02364 0.0
H606 H 0.82016 0.43224 0.89739 0.0
H607 H 0.86237 0.42042 0.98467 0.0
H608 H 0.77225 0.37205 0.872 0.0
H609 H 0.74277 0.39921 0.97272 0.0
H610 H 0.74396 0.36788 0.8311 0.0
H611 H 0.71499 0.39475 0.92987 0.0
H612 H 0.80226 0.33315 0.83692 0.0
H613 H 0.84446 0.37262 0.84226 0.0
H614 H 0.80249 0.45884 0.05545 0.0
H615 H 0.75991 0.45876 0.9599 0.0
Li616 Li 0.62663 0.79769 0.04481 0.0
Li617 Li 0.62925 0.76941 0.0038 0.0
Li618 Li 0.6265 0.79753 0.96466 0.0
Li619 Li 0.60166 0.78479 0.00653 0.0
C620 C 0.6595 0.80227 0.00273 0.0
N621 N 0.68697 0.82697 0.99984 0.0
C622 C 0.67721 0.79654 0.99877 0.0
C623 C 0.65573 0.82057 0.00509 0.0
C624 C 0.69092 0.80923 0.9974 0.0
C625 C 0.66981 0.83285 0.00361 0.0
C626 C 0.60082 0.76979 0.08266 0.0
C627 C 0.57777 0.74899 0.10425 0.0
N628 N 0.57131 0.76127 0.13294 0.0
C629 C 0.59403 0.78215 0.11258 0.0
C630 C 0.59271 0.75301 0.07865 0.0
C631 C 0.57908 0.77761 0.13763 0.0
C632 C 0.62475 0.82345 0.11302 0.0
N633 N 0.63466 0.81003 0.09529 0.0
C634 C 0.65654 0.81277 0.15167 0.0
C635 C 0.65029 0.80462 0.11367 0.0
C636 C 0.64645 0.82643 0.17125 0.0
C637 C 0.63036 0.83179 0.15148 0.0
H638 H 0.61234 0.82742 0.09769 0.0
H639 H 0.65781 0.79382 0.09896 0.0
C640 C 0.65444 0.74562 0.96997 0.0
N641 N 0.64214 0.74752 0.00228 0.0
C642 C 0.66545 0.73057 0.96867 0.0
C643 C 0.65077 0.71956 0.03367 0.0
C644 C 0.64002 0.73487 0.0337 0.0
C645 C 0.66387 0.71737 0.00115 0.0
H646 H 0.65596 0.75606 0.94578 0.0
H647 H 0.63028 0.73685 0.05931 0.0
C648 C 0.5983 0.82104 0.98315 0.0
N649 N 0.57454 0.8425 0.93808 0.0
C650 C 0.58997 0.81467 0.94533 0.0
C651 C 0.59451 0.83829 0.99804 0.0
C652 C 0.578 0.82574 0.92302 0.0
C653 C 0.58248 0.84895 0.97478 0.0
C654 C 0.61384 0.75954 0.92983 0.0
C655 C 0.62004 0.75976 0.8868 0.0
C656 C 0.60826 0.74338 0.94832 0.0
C657 C 0.62099 0.74375 0.8634 0.0
C658 C 0.60944 0.72764 0.92392 0.0
N659 N 0.61575 0.72814 0.88233 0.0
C660 C 0.64693 0.80005 0.88951 0.0
C661 C 0.63038 0.82656 0.90222 0.0
C662 C 0.65375 0.80702 0.85071 0.0
N663 N 0.63511 0.80962 0.91377 0.0
C664 C 0.63694 0.83411 0.86365 0.0
C665 C 0.64857 0.82418 0.83698 0.0
H666 H 0.65094 0.78686 0.90025 0.0
H667 H 0.62151 0.83426 0.92268 0.0
C668 C 0.56703 0.7956 0.03093 0.0
N669 N 0.57618 0.78276 0.00879 0.0
C670 C 0.54838 0.79546 0.03166 0.0
C671 C 0.54884 0.7685 0.9881 0.0
C672 C 0.56752 0.7693 0.98772 0.0
C673 C 0.53906 0.78185 0.00979 0.0
H674 H 0.57425 0.8061 0.04766 0.0
H675 H 0.57506 0.75933 0.97012 0.0
O676 O 0.64596 0.78997 0.0038 0.0
O677 O 0.61515 0.77421 0.057 0.0
O678 O 0.60989 0.81043 0.00608 0.0
O679 O 0.613 0.77508 0.95344 0.0
H680 H 0.68031 0.78241 0.99674 0.0
H681 H 0.6421 0.82528 0.00796 0.0
H682 H 0.7047 0.80499 0.99438 0.0
H683 H 0.6671 0.84704 0.00542 0.0
H684 H 0.5713 0.73609 0.10128 0.0
H685 H 0.60005 0.7952 0.11602 0.0
H686 H 0.5978 0.74321 0.05593 0.0
H687 H 0.57361 0.78712 0.16067 0.0
H688 H 0.66892 0.80815 0.16618 0.0
H689 H 0.62228 0.84235 0.16552 0.0
H690 H 0.67556 0.72964 0.94345 0.0
H691 H 0.649 0.70968 0.05913 0.0
H692 H 0.59267 0.80137 0.93324 0.0
H693 H 0.60082 0.8434 0.0273 0.0
H694 H 0.57147 0.82099 0.89374 0.0
H695 H 0.57943 0.86234 0.98593 0.0
H696 H 0.62388 0.77218 0.87139 0.0
H697 H 0.60332 0.74295 0.9814 0.0
H698 H 0.62583 0.74374 0.83014 0.0
H699 H 0.60536 0.71502 0.93808 0.0
H700 H 0.66304 0.79908 0.83175 0.0
H701 H 0.63267 0.84743 0.85442 0.0
H702 H 0.5413 0.80588 0.04914 0.0
H703 H 0.5421 0.75787 0.97059 0.0
Li704 Li 0.71385 0.8989 0.5024 0.0
Li705 Li 0.70214 0.87227 0.54381 0.0
Li706 Li 0.72868 0.87024 0.49934 0.0
Li707 Li 0.70033 0.87293 0.4636 0.0
C708 C 0.74047 0.88269 0.57355 0.0
N709 N 0.77242 0.87538 0.61527 0.0
C710 C 0.74084 0.87112 0.60935 0.0
C711 C 0.75634 0.89069 0.55924 0.0
C712 C 0.75713 0.86756 0.62996 0.0
C713 C 0.77236 0.88677 0.58067 0.0
C714 C 0.67051 0.88649 0.50655 0.0
C715 C 0.64544 0.86636 0.51347 0.0
N716 N 0.63406 0.88035 0.50745 0.0
C717 C 0.65858 0.90066 0.50045 0.0
C718 C 0.66391 0.86919 0.51313 0.0
C719 C 0.64019 0.89728 0.50101 0.0
C720 C 0.70318 0.93316 0.47737 0.0
N721 N 0.71525 0.9242 0.50229 0.0
C722 C 0.72835 0.95167 0.52613 0.0
C723 C 0.72765 0.93299 0.52667 0.0
C724 C 0.71595 0.96128 0.50098 0.0
C725 C 0.70321 0.95183 0.47644 0.0
H726 H 0.69349 0.92576 0.45837 0.0
H727 H 0.73695 0.92551 0.54654 0.0
C728 C 0.69475 0.8474 0.60933 0.0
N729 N 0.6911 0.86435 0.59609 0.0
C730 C 0.68745 0.84082 0.64803 0.0
C731 C 0.67265 0.86925 0.65867 0.0
C732 C 0.68029 0.87531 0.61972 0.0
C733 C 0.67623 0.85178 0.67335 0.0
H734 H 0.70358 0.83909 0.59008 0.0
H735 H 0.67765 0.88875 0.60831 0.0
C736 C 0.7361 0.8907 0.42266 0.0
N737 N 0.76363 0.89989 0.36672 0.0
C738 C 0.73846 0.88142 0.38345 0.0
C739 C 0.7476 0.90482 0.43307 0.0
C740 C 0.7525 0.88621 0.35572 0.0
C741 C 0.76147 0.90922 0.40446 0.0
C742 C 0.70988 0.83775 0.47903 0.0
C743 C 0.72042 0.83717 0.44143 0.0
C744 C 0.70064 0.82245 0.49243 0.0
C745 C 0.72158 0.82124 0.41779 0.0
C746 C 0.70213 0.80677 0.46788 0.0
N747 N 0.71248 0.80649 0.43138 0.0
C748 C 0.75136 0.84297 0.52531 0.0
C749 C 0.7654 0.86167 0.47311 0.0
C750 C 0.76634 0.83189 0.52692 0.0
N751 N 0.75104 0.85744 0.49843 0.0
C752 C 0.78063 0.85082 0.47335 0.0
C753 C 0.78115 0.83564 0.5003 0.0
H754 H 0.7398 0.83991 0.54519 0.0
H755 H 0.76513 0.8733 0.45249 0.0
C756 C 0.69003 0.87611 0.37635 0.0
N757 N 0.68704 0.86635 0.41304 0.0
C758 C 0.68255 0.87088 0.33665 0.0
C759 C 0.66815 0.8462 0.37368 0.0
C760 C 0.67611 0.8518 0.41262 0.0
C761 C 0.67167 0.85559 0.33489 0.0
H762 H 0.69866 0.88771 0.3777 0.0
H763 H 0.67398 0.84421 0.44218 0.0
O764 O 0.72472 0.88595 0.55223 0.0
O765 O 0.68854 0.8896 0.50596 0.0
O766 O 0.72229 0.88633 0.44999 0.0
O767 O 0.70829 0.85327 0.50237 0.0
H768 H 0.7287 0.86485 0.62094 0.0
H769 H 0.75634 0.89956 0.53139 0.0
H770 H 0.75762 0.85855 0.65756 0.0
H771 H 0.78475 0.89274 0.56968 0.0
H772 H 0.64015 0.85305 0.51849 0.0
H773 H 0.66348 0.91413 0.49533 0.0
H774 H 0.67293 0.85805 0.51785 0.0
H775 H 0.6308 0.90812 0.49632 0.0
H776 H 0.73825 0.95853 0.5458 0.0
H777 H 0.69351 0.95881 0.45645 0.0
H778 H 0.69086 0.82739 0.65838 0.0
H779 H 0.66393 0.87809 0.67686 0.0
H780 H 0.72954 0.87064 0.37441 0.0
H781 H 0.74595 0.91224 0.463 0.0
H782 H 0.75452 0.87909 0.3254 0.0
H783 H 0.77053 0.92004 0.41226 0.0
H784 H 0.72762 0.84888 0.43066 0.0
H785 H 0.69231 0.82273 0.5213 0.0
H786 H 0.72971 0.8206 0.38861 0.0
H787 H 0.69502 0.79484 0.4778 0.0
H788 H 0.76612 0.8202 0.54781 0.0
H789 H 0.79186 0.85425 0.45265 0.0
H790 H 0.68541 0.87857 0.30752 0.0
H791 H 0.65994 0.83426 0.37357 0.0
Li792 Li 0.10104 0.71241 0.49692 0.0
Li793 Li 0.12609 0.69966 0.53766 0.0
Li794 Li 0.12869 0.7278 0.49846 0.0
Li795 Li 0.12575 0.69953 0.45755 0.0
C796 C 0.11361 0.73768 0.57304 0.0
N797 N 0.11545 0.76904 0.62068 0.0
C798 C 0.11947 0.73739 0.61634 0.0
C799 C 0.10831 0.75389 0.55434 0.0
C800 C 0.12039 0.75339 0.63981 0.0
C801 C 0.10946 0.76961 0.57881 0.0
C802 C 0.09779 0.67617 0.52035 0.0
C803 C 0.08186 0.64835 0.52931 0.0
N804 N 0.07434 0.65477 0.56657 0.0
C805 C 0.0899 0.6825 0.55876 0.0
C806 C 0.09373 0.65898 0.50546 0.0
C807 C 0.07808 0.67147 0.58164 0.0
C808 C 0.06585 0.70174 0.47574 0.0
N809 N 0.07553 0.71461 0.49642 0.0
C810 C 0.04875 0.72941 0.51909 0.0
C811 C 0.0674 0.72833 0.51773 0.0
C812 C 0.03843 0.71608 0.49891 0.0
C813 C 0.04719 0.70216 0.47682 0.0
H814 H 0.07264 0.69103 0.45877 0.0
H815 H 0.07534 0.73831 0.53416 0.0
C816 C 0.14644 0.69749 0.61277 0.0
N817 N 0.13491 0.68766 0.58832 0.0
C818 C 0.15321 0.6907 0.65178 0.0
C819 C 0.13704 0.66324 0.63852 0.0
C820 C 0.13049 0.67062 0.59976 0.0
C821 C 0.14831 0.67346 0.66546 0.0
H822 H 0.15021 0.71076 0.60208 0.0
H823 H 0.12185 0.66275 0.57913 0.0
C824 C 0.0996 0.72727 0.42093 0.0
N825 N 0.06954 0.73539 0.37228 0.0
C826 C 0.09246 0.71467 0.39208 0.0
C827 C 0.09152 0.74407 0.42474 0.0
C828 C 0.07725 0.71901 0.36783 0.0
C829 C 0.07631 0.7479 0.39996 0.0
C830 C 0.15889 0.69493 0.49872 0.0
C831 C 0.17659 0.70072 0.50248 0.0
C832 C 0.15517 0.67663 0.49632 0.0
C833 C 0.19034 0.68807 0.5036 0.0
C834 C 0.16929 0.6644 0.49754 0.0
N835 N 0.18643 0.67032 0.50111 0.0
C836 C 0.15439 0.7511 0.53136 0.0
C837 C 0.13932 0.76259 0.46931 0.0
C838 C 0.16543 0.76612 0.53298 0.0
N839 N 0.14174 0.74959 0.49977 0.0
C840 C 0.15007 0.77789 0.46975 0.0
C841 C 0.16349 0.77972 0.50163 0.0
H842 H 0.15611 0.74042 0.5548 0.0
H843 H 0.12928 0.76092 0.44428 0.0
C844 C 0.12402 0.67374 0.38898 0.0
N845 N 0.13372 0.68728 0.40683 0.0
C846 C 0.12985 0.66544 0.35063 0.0
C847 C 0.15578 0.68481 0.35076 0.0
C848 C 0.14931 0.69291 0.38861 0.0
C849 C 0.14594 0.67098 0.33113 0.0
H850 H 0.11165 0.66958 0.40422 0.0
H851 H 0.15667 0.7038 0.40339 0.0
O852 O 0.1128 0.72214 0.54938 0.0
O853 O 0.10923 0.68674 0.49688 0.0
O854 O 0.11419 0.72303 0.44584 0.0
O855 O 0.14531 0.7072 0.49791 0.0
H856 H 0.12306 0.72493 0.63193 0.0
H857 H 0.10362 0.75436 0.52105 0.0
H858 H 0.12497 0.75334 0.67329 0.0
H859 H 0.1056 0.78227 0.56449 0.0
H860 H 0.07861 0.63501 0.51816 0.0
H861 H 0.09282 0.69576 0.57087 0.0
H862 H 0.0997 0.6539 0.47575 0.0
H863 H 0.07188 0.67619 0.61138 0.0
H864 H 0.04246 0.7403 0.53668 0.0
H865 H 0.03968 0.69174 0.46044 0.0
H866 H 0.16223 0.69886 0.67099 0.0
H867 H 0.13303 0.64984 0.64775 0.0
H868 H 0.09844 0.70158 0.38889 0.0
H869 H 0.09686 0.75403 0.4467 0.0
H870 H 0.07152 0.70933 0.34562 0.0
H871 H 0.06987 0.76081 0.40277 0.0
H872 H 0.17966 0.71486 0.50454 0.0
H873 H 0.14154 0.67189 0.49361 0.0
H874 H 0.20412 0.69235 0.50646 0.0
H875 H 0.16661 0.65019 0.49569 0.0
H876 H 0.17578 0.76675 0.55764 0.0
H877 H 0.148 0.7881 0.44517 0.0
H878 H 0.12196 0.65476 0.33651 0.0
H879 H 0.16814 0.68958 0.33644 0.0
Li880 Li 0.29784 0.12511 0.53581 0.0
Li881 Li 0.28481 0.10019 0.49512 0.0
Li882 Li 0.29769 0.12498 0.45581 0.0
Li883 Li 0.26961 0.1279 0.49732 0.0
C884 C 0.32101 0.09655 0.51747 0.0
N885 N 0.34227 0.0726 0.56258 0.0
C886 C 0.3147 0.08851 0.55572 0.0
C887 C 0.33812 0.09236 0.50216 0.0
C888 C 0.32565 0.07645 0.57804 0.0
C889 C 0.34867 0.08025 0.52545 0.0
C890 C 0.25984 0.1127 0.57169 0.0
C891 C 0.22799 0.10804 0.57797 0.0
N892 N 0.22849 0.11457 0.61936 0.0
C893 C 0.26006 0.11913 0.6145 0.0
C894 C 0.24371 0.10688 0.55348 0.0
C895 C 0.24406 0.12005 0.63799 0.0
C896 C 0.30069 0.146 0.60986 0.0
N897 N 0.3101 0.13386 0.5862 0.0
C898 C 0.33468 0.13588 0.63597 0.0
C899 C 0.32698 0.129 0.59793 0.0
C900 C 0.32501 0.14804 0.66182 0.0
C901 C 0.30783 0.1532 0.64805 0.0
H902 H 0.28748 0.14997 0.59916 0.0
H903 H 0.33455 0.11988 0.57786 0.0
C904 C 0.2942 0.06528 0.46925 0.0
N905 N 0.2825 0.07476 0.49414 0.0
C906 C 0.29375 0.04662 0.46931 0.0
C907 C 0.26913 0.04778 0.52037 0.0
C908 C 0.27008 0.06643 0.51938 0.0
C909 C 0.28118 0.03762 0.4954 0.0
H910 H 0.30405 0.07225 0.44975 0.0
H911 H 0.26115 0.07423 0.53944 0.0
C912 C 0.30268 0.15792 0.49667 0.0
N913 N 0.32768 0.18513 0.49773 0.0
C914 C 0.29714 0.17573 0.49971 0.0
C915 C 0.32093 0.15393 0.49428 0.0
C916 C 0.30999 0.1893 0.50017 0.0
C917 C 0.33336 0.16788 0.49483 0.0
C918 C 0.26973 0.09938 0.41841 0.0
C919 C 0.28195 0.09296 0.38766 0.0
C920 C 0.25302 0.09114 0.42256 0.0
C921 C 0.27734 0.07823 0.36193 0.0
C922 C 0.24892 0.07644 0.39626 0.0
N923 N 0.26107 0.07033 0.36678 0.0
C924 C 0.32397 0.12401 0.38821 0.0
C925 C 0.30315 0.14792 0.38532 0.0
C926 C 0.33218 0.12999 0.34988 0.0
N927 N 0.3097 0.13298 0.40487 0.0
C928 C 0.31103 0.15446 0.34728 0.0
C929 C 0.32571 0.14543 0.32897 0.0
H930 H 0.32883 0.11212 0.40445 0.0
H931 H 0.2917 0.15469 0.39926 0.0
C932 C 0.24492 0.15226 0.53196 0.0
N933 N 0.24771 0.14073 0.49838 0.0
C934 C 0.22975 0.16313 0.53254 0.0
C935 C 0.22061 0.15004 0.46391 0.0
C936 C 0.2359 0.1393 0.46485 0.0
C937 C 0.2175 0.1623 0.49784 0.0
H938 H 0.25474 0.1533 0.55778 0.0
H939 H 0.2386 0.13016 0.43831 0.0
O940 O 0.3105 0.1082 0.49449 0.0
O941 O 0.27536 0.1119 0.54797 0.0
O942 O 0.29022 0.14452 0.49645 0.0
O943 O 0.27417 0.11353 0.44458 0.0
H944 H 0.30151 0.09152 0.56816 0.0
H945 H 0.34319 0.09843 0.47257 0.0
H946 H 0.32093 0.07014 0.60766 0.0
H947 H 0.36194 0.0769 0.51398 0.0
H948 H 0.2154 0.10376 0.56404 0.0
H949 H 0.27245 0.12323 0.62964 0.0
H950 H 0.24331 0.10175 0.52056 0.0
H951 H 0.24404 0.12508 0.67109 0.0
H952 H 0.34812 0.13185 0.6448 0.0
H953 H 0.29982 0.16244 0.66697 0.0
H954 H 0.30318 0.03933 0.44921 0.0
H955 H 0.2594 0.04139 0.54143 0.0
H956 H 0.28306 0.179 0.50173 0.0
H957 H 0.32548 0.14023 0.49208 0.0
H958 H 0.30591 0.20315 0.50249 0.0
H959 H 0.34752 0.165 0.49298 0.0
H960 H 0.29495 0.09911 0.38408 0.0
H961 H 0.24331 0.09601 0.44583 0.0
H962 H 0.28673 0.07305 0.33824 0.0
H963 H 0.23608 0.06988 0.39929 0.0
H964 H 0.34354 0.12273 0.33696 0.0
H965 H 0.30549 0.16627 0.33191 0.0
H966 H 0.22803 0.1726 0.55895 0.0
H967 H 0.21145 0.14897 0.43665 0.0
Li968 Li 0.87356 0.29866 0.54054 0.0
Li969 Li 0.89819 0.28591 0.49777 0.0
Li970 Li 0.87288 0.29871 0.46044 0.0
Li971 Li 0.87063 0.27059 0.5017 0.0
C972 C 0.90165 0.3222 0.52084 0.0
N973 N 0.92577 0.34366 0.56482 0.0
C974 C 0.91119 0.31543 0.5565 0.0
C975 C 0.90443 0.33987 0.50755 0.0
C976 C 0.92332 0.32649 0.57827 0.0
C977 C 0.91665 0.35051 0.53025 0.0
C978 C 0.88555 0.26087 0.57535 0.0
C979 C 0.88937 0.22896 0.5829 0.0
N980 N 0.88195 0.22976 0.62337 0.0
C981 C 0.87817 0.2614 0.61722 0.0
C982 C 0.8914 0.24455 0.55824 0.0
C983 C 0.8764 0.24552 0.64091 0.0
C984 C 0.85141 0.3021 0.61262 0.0
N985 N 0.86511 0.31059 0.59206 0.0
C986 C 0.86533 0.33343 0.64678 0.0
C987 C 0.87184 0.32622 0.60781 0.0
C988 C 0.85153 0.32464 0.66947 0.0
C989 C 0.8444 0.30889 0.65145 0.0
H990 H 0.84604 0.28988 0.59898 0.0
H991 H 0.88231 0.33316 0.59057 0.0
C992 C 0.93274 0.29635 0.47138 0.0
N993 N 0.92364 0.28368 0.49422 0.0
C994 C 0.95139 0.29597 0.4697 0.0
C995 C 0.95096 0.26911 0.51366 0.0
C996 C 0.93231 0.27017 0.51506 0.0
C997 C 0.96071 0.28228 0.49124 0.0
H998 H 0.9255 0.30691 0.45493 0.0
H999 H 0.9248 0.26036 0.53326 0.0
C1000 C 0.84041 0.30348 0.50275 0.0
N1001 N 0.81316 0.32843 0.50483 0.0
C1002 C 0.8226 0.2979 0.5055 0.0
C1003 C 0.84438 0.32175 0.50113 0.0
C1004 C 0.80901 0.31072 0.5065 0.0
C1005 C 0.83041 0.33415 0.5022 0.0
C1006 C 0.8984 0.27116 0.42139 0.0
C1007 C 0.90432 0.28349 0.39029 0.0
C1008 C 0.90716 0.25472 0.4256 0.0
C1009 C 0.91903 0.27923 0.36413 0.0
C1010 C 0.92183 0.25097 0.39888 0.0
N1011 N 0.92742 0.2632 0.36897 0.0
C1012 C 0.87225 0.3255 0.3937 0.0
C1013 C 0.85039 0.30259 0.38897 0.0
C1014 C 0.86622 0.33301 0.35454 0.0
N1015 N 0.86436 0.31048 0.40972 0.0
C1016 C 0.84392 0.30965 0.34993 0.0
C1017 C 0.85199 0.32494 0.33184 0.0
H1018 H 0.88345 0.33138 0.4108 0.0
H1019 H 0.84441 0.29065 0.40261 0.0
C1020 C 0.84548 0.24654 0.53518 0.0
N1021 N 0.85788 0.24863 0.50318 0.0
C1022 C 0.83466 0.23133 0.5361 0.0
C1023 C 0.84968 0.22065 0.47125 0.0
C1024 C 0.86027 0.23606 0.47167 0.0
C1025 C 0.83651 0.21825 0.50348 0.0
H1026 H 0.84373 0.25692 0.5594 0.0
H1027 H 0.87009 0.2382 0.44632 0.0
O1028 O 0.88998 0.31158 0.49821 0.0
O1029 O 0.8872 0.27626 0.55144 0.0
O1030 O 0.85382 0.29104 0.50202 0.0
O1031 O 0.88434 0.27531 0.44814 0.0
H1032 H 0.90927 0.30181 0.56739 0.0
H1033 H 0.8972 0.3453 0.47995 0.0
H1034 H 0.93078 0.32143 0.60588 0.0
H1035 H 0.9189 0.36422 0.52033 0.0
H1036 H 0.89365 0.21622 0.56981 0.0
H1037 H 0.87396 0.27393 0.63146 0.0
H1038 H 0.89714 0.24387 0.52592 0.0
H1039 H 0.87063 0.24574 0.67329 0.0
H1040 H 0.8713 0.34557 0.65934 0.0
H1041 H 0.83346 0.30186 0.66705 0.0
H1042 H 0.95846 0.30627 0.45177 0.0
H1043 H 0.95772 0.25843 0.53097 0.0
H1044 H 0.81934 0.28379 0.50691 0.0
H1045 H 0.85807 0.32634 0.49914 0.0
H1046 H 0.79517 0.3066 0.50862 0.0
H1047 H 0.83327 0.34833 0.50096 0.0
H1048 H 0.89779 0.29631 0.38674 0.0
H1049 H 0.90279 0.24502 0.44949 0.0
H1050 H 0.92381 0.2887 0.34012 0.0
H1051 H 0.9288 0.23835 0.40198 0.0
H1052 H 0.87294 0.34471 0.34164 0.0
H1053 H 0.83271 0.30317 0.33407 0.0
H1054 H 0.82448 0.2302 0.5611 0.0
H1055 H 0.85162 0.21085 0.44567 0.0
Li1056 Li 0.72894 0.1295 0.49962 0.0
Li1057 Li 0.70083 0.12703 0.5344 0.0
Li1058 Li 0.71372 0.10097 0.49813 0.0
Li1059 Li 0.70228 0.12795 0.4546 0.0
C1060 C 0.73662 0.10871 0.57539 0.0
N1061 N 0.76471 0.09823 0.62823 0.0
C1062 C 0.73973 0.11742 0.61504 0.0
C1063 C 0.74766 0.09449 0.56296 0.0
C1064 C 0.75405 0.11199 0.64118 0.0
C1065 C 0.76182 0.08944 0.59003 0.0
C1066 C 0.71091 0.16206 0.52009 0.0
C1067 C 0.70471 0.19334 0.53193 0.0
N1068 N 0.71478 0.19289 0.56889 0.0
C1069 C 0.72117 0.1619 0.55818 0.0
C1070 C 0.70259 0.17789 0.50681 0.0
C1071 C 0.72298 0.17762 0.5824 0.0
C1072 C 0.75151 0.15686 0.47405 0.0
N1073 N 0.75146 0.14203 0.49974 0.0
C1074 C 0.78137 0.14823 0.52315 0.0
C1075 C 0.76611 0.13741 0.52358 0.0
C1076 C 0.78159 0.16384 0.49761 0.0
C1077 C 0.76646 0.16797 0.47244 0.0
H1078 H 0.73975 0.16022 0.4552 0.0
H1079 H 0.76603 0.12548 0.54325 0.0
C1080 C 0.69009 0.12523 0.62207 0.0
N1081 N 0.68729 0.13417 0.58409 0.0
C1082 C 0.6819 0.13097 0.66052 0.0
C1083 C 0.66746 0.15456 0.61962 0.0
C1084 C 0.67601 0.1484 0.58199 0.0
C1085 C 0.67063 0.14603 0.6598 0.0
H1086 H 0.69906 0.11388 0.6227 0.0
H1087 H 0.67392 0.15518 0.55125 0.0
C1088 C 0.7405 0.11633 0.42581 0.0
N1089 N 0.77259 0.12244 0.38358 0.0
C1090 C 0.74149 0.12893 0.39219 0.0
C1091 C 0.75577 0.10669 0.43759 0.0
C1092 C 0.75785 0.13186 0.37132 0.0
C1093 C 0.77188 0.11001 0.41596 0.0
C1094 C 0.67153 0.11216 0.5068 0.0
C1095 C 0.66529 0.10054 0.53913 0.0
C1096 C 0.66038 0.12571 0.49108 0.0
C1097 C 0.64795 0.10272 0.55533 0.0
C1098 C 0.64312 0.12743 0.50807 0.0
N1099 N 0.63732 0.11601 0.5396 0.0
C1100 C 0.70772 0.06682 0.5328 0.0
C1101 C 0.72342 0.06683 0.46553 0.0
C1102 C 0.70795 0.04816 0.53403 0.0
N1103 N 0.7152 0.07569 0.49868 0.0
C1104 C 0.72421 0.04815 0.46578 0.0
C1105 C 0.71623 0.03862 0.50014 0.0
H1106 H 0.70155 0.07427 0.55902 0.0
H1107 H 0.72925 0.07427 0.43881 0.0
C1108 C 0.69508 0.15278 0.38874 0.0
N1109 N 0.69152 0.13582 0.40208 0.0
C1110 C 0.68788 0.15922 0.34979 0.0
C1111 C 0.67339 0.13062 0.33914 0.0
C1112 C 0.68092 0.12471 0.37833 0.0
C1113 C 0.67686 0.1481 0.32435 0.0
H1114 H 0.70374 0.16121 0.40812 0.0
H1115 H 0.67834 0.11128 0.38987 0.0
O1116 O 0.72249 0.11371 0.54972 0.0
O1117 O 0.70874 0.14676 0.49611 0.0
O1118 O 0.72471 0.11366 0.44746 0.0
O1119 O 0.68864 0.11059 0.4914 0.0
H1120 H 0.73117 0.12825 0.62566 0.0
H1121 H 0.74541 0.08746 0.53272 0.0
H1122 H 0.75664 0.11867 0.67184 0.0
H1123 H 0.77051 0.07852 0.58067 0.0
H1124 H 0.69833 0.20569 0.52208 0.0
H1125 H 0.72768 0.14978 0.56887 0.0
H1126 H 0.6945 0.1782 0.47753 0.0
H1127 H 0.73089 0.17768 0.61195 0.0
H1128 H 0.79285 0.14446 0.54265 0.0
H1129 H 0.76594 0.17998 0.45268 0.0
H1130 H 0.6849 0.12407 0.69071 0.0
H1131 H 0.65864 0.16601 0.61732 0.0
H1132 H 0.72981 0.1365 0.38262 0.0
H1133 H 0.75524 0.09684 0.46337 0.0
H1134 H 0.75884 0.14167 0.34546 0.0
H1135 H 0.78384 0.10274 0.42496 0.0
H1136 H 0.67377 0.09006 0.55187 0.0
H1137 H 0.66507 0.13496 0.46646 0.0
H1138 H 0.64296 0.09388 0.58049 0.0
H1139 H 0.63437 0.13791 0.49635 0.0
H1140 H 0.70184 0.04125 0.56131 0.0
H1141 H 0.73063 0.04122 0.43898 0.0
H1142 H 0.69119 0.17266 0.33938 0.0
H1143 H 0.66482 0.12166 0.32086 0.0
Li1144 Li 0.87003 0.72896 0.49918 0.0
Li1145 Li 0.87243 0.70106 0.53603 0.0
Li1146 Li 0.8987 0.71439 0.50153 0.0
Li1147 Li 0.87434 0.70235 0.45699 0.0
C1148 C 0.87757 0.73053 0.58907 0.0
N1149 N 0.86294 0.74373 0.66535 0.0
C1150 C 0.859 0.73187 0.59363 0.0
C1151 C 0.88869 0.73587 0.62331 0.0
C1152 C 0.85187 0.73859 0.63243 0.0
C1153 C 0.88103 0.74252 0.66162 0.0
C1154 C 0.84087 0.69548 0.48901 0.0
C1155 C 0.83226 0.66438 0.48712 0.0
N1156 N 0.8151 0.66932 0.47856 0.0
C1157 C 0.82316 0.70024 0.48017 0.0
C1158 C 0.84548 0.6774 0.4925 0.0
C1159 C 0.81032 0.68682 0.47502 0.0
C1160 C 0.8437 0.7519 0.46902 0.0
N1161 N 0.85752 0.75116 0.4977 0.0
C1162 C 0.85077 0.78052 0.52387 0.0
C1163 C 0.86149 0.76519 0.52427 0.0
C1164 C 0.83607 0.78143 0.49538 0.0
C1165 C 0.83278 0.767 0.46717 0.0
H1166 H 0.84096 0.74055 0.44816 0.0
H1167 H 0.87275 0.76437 0.54633 0.0
C1168 C 0.87642 0.67884 0.6105 0.0
N1169 N 0.86437 0.68804 0.58599 0.0
C1170 C 0.871 0.67029 0.64892 0.0
C1171 C 0.84085 0.68066 0.63566 0.0
C1172 C 0.84687 0.6891 0.59787 0.0
C1173 C 0.85298 0.67117 0.6619 0.0
H1174 H 0.8903 0.6784 0.60053 0.0
H1175 H 0.83759 0.69686 0.57858 0.0
C1176 C 0.89011 0.7429 0.43868 0.0
N1177 N 0.89518 0.77849 0.41742 0.0
C1178 C 0.88393 0.74955 0.39881 0.0
C1179 C 0.89891 0.75436 0.46769 0.0
C1180 C 0.88662 0.76758 0.38868 0.0
C1181 C 0.90134 0.7723 0.45634 0.0
C1182 C 0.90271 0.67897 0.47666 0.0
C1183 C 0.91002 0.68509 0.4374 0.0
C1184 C 0.90835 0.66263 0.49398 0.0
C1185 C 0.92285 0.67471 0.41606 0.0
C1186 C 0.92122 0.65263 0.47163 0.0
N1187 N 0.92814 0.65883 0.43347 0.0
C1188 C 0.93281 0.7097 0.5393 0.0
C1189 C 0.933 0.72372 0.46989 0.0
C1190 C 0.95151 0.70989 0.54059 0.0
N1191 N 0.92401 0.71653 0.50426 0.0
C1192 C 0.95164 0.72443 0.4701 0.0
C1193 C 0.96112 0.71733 0.50562 0.0
H1194 H 0.92529 0.70382 0.56584 0.0
H1195 H 0.92572 0.72857 0.44183 0.0
C1196 C 0.86131 0.70128 0.3718 0.0
N1197 N 0.86797 0.6907 0.40393 0.0
C1198 C 0.85609 0.69389 0.33202 0.0
C1199 C 0.86402 0.66465 0.35964 0.0
C1200 C 0.86932 0.67266 0.39877 0.0
C1201 C 0.8574 0.67535 0.3256 0.0
H1202 H 0.8598 0.71546 0.37741 0.0
H1203 H 0.87434 0.66447 0.42513 0.0
O1204 O 0.88494 0.72382 0.55163 0.0
O1205 O 0.85355 0.70855 0.49376 0.0
O1206 O 0.88723 0.7254 0.44991 0.0
O1207 O 0.89027 0.68894 0.49856 0.0
H1208 H 0.85018 0.72782 0.56749 0.0
H1209 H 0.90309 0.73485 0.62031 0.0
H1210 H 0.83753 0.73971 0.63638 0.0
H1211 H 0.88948 0.7467 0.68839 0.0
H1212 H 0.83564 0.65035 0.48974 0.0
H1213 H 0.81938 0.71418 0.47733 0.0
H1214 H 0.85909 0.67343 0.49937 0.0
H1215 H 0.79656 0.69031 0.46818 0.0
H1216 H 0.85384 0.79145 0.54581 0.0
H1217 H 0.82149 0.7671 0.44504 0.0
H1218 H 0.88076 0.66307 0.66822 0.0
H1219 H 0.82693 0.68198 0.64491 0.0
H1220 H 0.87716 0.74094 0.37584 0.0
H1221 H 0.9036 0.7495 0.49891 0.0
H1222 H 0.88188 0.77291 0.35796 0.0
H1223 H 0.90804 0.78131 0.47858 0.0
H1224 H 0.90584 0.69771 0.42347 0.0
H1225 H 0.90285 0.65774 0.52441 0.0
H1226 H 0.92862 0.67928 0.38567 0.0
H1227 H 0.92571 0.63995 0.48465 0.0
H1228 H 0.95837 0.70429 0.56857 0.0
H1229 H 0.9586 0.72998 0.4422 0.0
H1230 H 0.85069 0.70254 0.30689 0.0
H1231 H 0.86519 0.65029 0.35593 0.0
Li1232 Li 0.26982 0.86979 0.5053 0.0
Li1233 Li 0.29751 0.87321 0.54812 0.0
Li1234 Li 0.28454 0.89765 0.50754 0.0
Li1235 Li 0.29825 0.87275 0.46795 0.0
C1236 C 0.26893 0.89869 0.58355 0.0
N1237 N 0.25972 0.92801 0.63374 0.0
C1238 C 0.28055 0.90492 0.61589 0.0
C1239 C 0.25252 0.90727 0.57712 0.0
C1240 C 0.27568 0.91978 0.64084 0.0
C1241 C 0.24814 0.92211 0.6027 0.0
C1242 C 0.30324 0.84019 0.50813 0.0
C1243 C 0.33403 0.83061 0.51133 0.0
N1244 N 0.32857 0.81328 0.50865 0.0
C1245 C 0.29794 0.8223 0.50531 0.0
C1246 C 0.32143 0.84441 0.51108 0.0
C1247 C 0.31095 0.80889 0.50566 0.0
C1248 C 0.24746 0.84317 0.47283 0.0
N1249 N 0.24817 0.85655 0.50276 0.0
C1250 C 0.21919 0.84879 0.52972 0.0
C1251 C 0.23444 0.85962 0.53084 0.0
C1252 C 0.21819 0.83462 0.49961 0.0
C1253 C 0.23253 0.83202 0.47061 0.0
H1254 H 0.2587 0.84097 0.45124 0.0
H1255 H 0.23545 0.87028 0.55455 0.0
C1256 C 0.3229 0.87561 0.61726 0.0
N1257 N 0.30951 0.86566 0.59956 0.0
C1258 C 0.33119 0.87009 0.6559 0.0
C1259 C 0.31207 0.84398 0.65646 0.0
C1260 C 0.30399 0.85013 0.61827 0.0
C1261 C 0.32578 0.85405 0.67587 0.0
H1262 H 0.32697 0.88794 0.60167 0.0
H1263 H 0.29322 0.84257 0.60356 0.0
C1264 C 0.26032 0.88405 0.43038 0.0
N1265 N 0.22922 0.88049 0.38231 0.0
C1266 C 0.26081 0.87643 0.38875 0.0
C1267 C 0.24405 0.89022 0.44709 0.0
C1268 C 0.24494 0.87466 0.36506 0.0
C1269 C 0.22846 0.88819 0.42246 0.0
C1270 C 0.32094 0.9017 0.48704 0.0
C1271 C 0.31488 0.9097 0.44851 0.0
C1272 C 0.33786 0.90603 0.50326 0.0
C1273 C 0.32592 0.92189 0.42681 0.0
C1274 C 0.3485 0.91826 0.48057 0.0
N1275 N 0.34236 0.92587 0.44315 0.0
C1276 C 0.29333 0.93259 0.5338 0.0
C1277 C 0.27019 0.93131 0.48101 0.0
C1278 C 0.29294 0.95124 0.53329 0.0
N1279 N 0.28209 0.92305 0.50782 0.0
C1280 C 0.26932 0.94997 0.47952 0.0
C1281 C 0.28093 0.96018 0.50559 0.0
H1282 H 0.30279 0.92567 0.55448 0.0
H1283 H 0.26164 0.92344 0.46009 0.0
C1284 C 0.3022 0.85107 0.3956 0.0
N1285 N 0.31105 0.86391 0.41836 0.0
C1286 C 0.30958 0.84387 0.35769 0.0
C1287 C 0.33561 0.86252 0.3684 0.0
C1288 C 0.32767 0.86941 0.40615 0.0
C1289 C 0.32645 0.84972 0.34329 0.0
H1290 H 0.2892 0.8466 0.4067 0.0
H1291 H 0.33485 0.87908 0.42553 0.0
O1292 O 0.27368 0.88439 0.55813 0.0
O1293 O 0.29063 0.85344 0.50752 0.0
O1294 O 0.2757 0.88566 0.45439 0.0
O1295 O 0.3103 0.88997 0.50947 0.0
H1296 H 0.2933 0.8985 0.62136 0.0
H1297 H 0.24327 0.9026 0.55259 0.0
H1298 H 0.28461 0.9248 0.66576 0.0
H1299 H 0.23553 0.92893 0.59786 0.0
H1300 H 0.34814 0.83367 0.51363 0.0
H1301 H 0.28391 0.81884 0.50285 0.0
H1302 H 0.3258 0.85818 0.51309 0.0
H1303 H 0.30705 0.79498 0.50353 0.0
H1304 H 0.2084 0.85139 0.55241 0.0
H1305 H 0.23253 0.82109 0.44741 0.0
H1306 H 0.34179 0.87816 0.66979 0.0
H1307 H 0.3074 0.83164 0.67112 0.0
H1308 H 0.27331 0.87209 0.37461 0.0
H1309 H 0.24344 0.8963 0.47899 0.0
H1310 H 0.24513 0.86871 0.33289 0.0
H1311 H 0.21576 0.89272 0.4353 0.0
H1312 H 0.30184 0.90658 0.43538 0.0
H1313 H 0.34272 0.89999 0.5331 0.0
H1314 H 0.32141 0.92817 0.39698 0.0
H1315 H 0.36164 0.92172 0.49274 0.0
H1316 H 0.302 0.95859 0.55427 0.0
H1317 H 0.26003 0.95631 0.45725 0.0
H1318 H 0.30193 0.83412 0.33939 0.0
H1319 H 0.34883 0.8671 0.35915 0.0
Li1320 Li 0.12607 0.29791 0.53464 0.0
Li1321 Li 0.12922 0.27026 0.49867 0.0
Li1322 Li 0.12754 0.29783 0.45502 0.0
Li1323 Li 0.10035 0.28512 0.49666 0.0
C1324 C 0.16147 0.2934 0.51862 0.0
N1325 N 0.19263 0.29962 0.56459 0.0
C1326 C 0.16582 0.28272 0.55448 0.0
C1327 C 0.17302 0.30713 0.50581 0.0
C1328 C 0.18162 0.28611 0.57739 0.0
C1329 C 0.1887 0.31009 0.52956 0.0
C1330 C 0.10991 0.26081 0.57225 0.0
C1331 C 0.09195 0.23498 0.58992 0.0
N1332 N 0.10367 0.23066 0.62221 0.0
C1333 C 0.12167 0.25621 0.60589 0.0
C1334 C 0.09484 0.25019 0.56438 0.0
C1335 C 0.11833 0.24088 0.63065 0.0
C1336 C 0.12516 0.30512 0.62429 0.0
N1337 N 0.13262 0.3108 0.5863 0.0
C1338 C 0.15029 0.33236 0.62466 0.0
C1339 C 0.14469 0.32443 0.58568 0.0
C1340 C 0.14338 0.32618 0.66456 0.0
C1341 C 0.13041 0.31259 0.66396 0.0
H1342 H 0.11531 0.29454 0.62389 0.0
H1343 H 0.15026 0.32891 0.55506 0.0
C1344 C 0.1582 0.24901 0.47736 0.0
N1345 N 0.14206 0.24794 0.49766 0.0
C1346 C 0.16936 0.23411 0.47491 0.0
C1347 C 0.14699 0.21696 0.51349 0.0
C1348 C 0.13614 0.2322 0.51474 0.0
C1349 C 0.16389 0.21788 0.49361 0.0
H1350 H 0.16247 0.26153 0.4631 0.0
H1351 H 0.12304 0.23132 0.52917 0.0
C1352 C 0.11034 0.32736 0.5093 0.0
N1353 N 0.11232 0.36123 0.54506 0.0
C1354 C 0.09897 0.33219 0.54352 0.0
C1355 C 0.12268 0.33976 0.49315 0.0
C1356 C 0.1002 0.34937 0.56122 0.0
C1357 C 0.12347 0.35682 0.51166 0.0
C1358 C 0.11598 0.259 0.42546 0.0
C1359 C 0.1292 0.25708 0.39357 0.0
C1360 C 0.10545 0.24431 0.43712 0.0
C1361 C 0.13177 0.24039 0.37405 0.0
C1362 C 0.10843 0.22784 0.41682 0.0
N1363 N 0.12143 0.22623 0.38601 0.0
C1364 C 0.15221 0.30485 0.38881 0.0
C1365 C 0.12447 0.31978 0.37975 0.0
C1366 C 0.15847 0.31173 0.34934 0.0
N1367 N 0.13548 0.30889 0.40299 0.0
C1368 C 0.13021 0.32704 0.34009 0.0
C1369 C 0.14737 0.32288 0.32422 0.0
H1370 H 0.1606 0.29604 0.40794 0.0
H1371 H 0.11116 0.32263 0.39178 0.0
C1372 C 0.06583 0.2895 0.5305 0.0
N1373 N 0.07511 0.28317 0.49563 0.0
C1374 C 0.04717 0.28911 0.53054 0.0
C1375 C 0.04797 0.27509 0.45944 0.0
C1376 C 0.06664 0.276 0.46049 0.0
C1377 C 0.03803 0.2819 0.49459 0.0
H1378 H 0.07297 0.29492 0.55818 0.0
H1379 H 0.07438 0.27116 0.43312 0.0
O1380 O 0.14597 0.29044 0.49606 0.0
O1381 O 0.11281 0.27594 0.54814 0.0
O1382 O 0.10963 0.31049 0.49215 0.0
O1383 O 0.11368 0.27507 0.44602 0.0
H1384 H 0.15709 0.27195 0.5645 0.0
H1385 H 0.16981 0.31552 0.4781 0.0
H1386 H 0.18512 0.27799 0.60534 0.0
H1387 H 0.19773 0.32073 0.52021 0.0
H1388 H 0.08041 0.22659 0.58404 0.0
H1389 H 0.13324 0.26442 0.61292 0.0
H1390 H 0.08553 0.25356 0.53871 0.0
H1391 H 0.12736 0.23712 0.65665 0.0
H1392 H 0.16036 0.34277 0.62365 0.0
H1393 H 0.12449 0.30767 0.69391 0.0
H1394 H 0.18233 0.23543 0.45946 0.0
H1395 H 0.14219 0.20458 0.52766 0.0
H1396 H 0.08943 0.32273 0.55659 0.0
H1397 H 0.13171 0.33618 0.46699 0.0
H1398 H 0.09155 0.35327 0.58788 0.0
H1399 H 0.13301 0.36653 0.49963 0.0
H1400 H 0.13752 0.26831 0.38435 0.0
H1401 H 0.09524 0.24555 0.46197 0.0
H1402 H 0.14203 0.23867 0.34951 0.0
H1403 H 0.10046 0.21632 0.4257 0.0
H1404 H 0.17186 0.30837 0.33865 0.0
H1405 H 0.12118 0.33544 0.32157 0.0
H1406 H 0.03995 0.29431 0.55844 0.0
H1407 H 0.04137 0.26955 0.43103 0.0
C1408 C 0.20139 0.50878 0.99774 0.0
C1409 C 0.21748 0.51835 0.99347 0.0
H1410 H 0.18873 0.48312 0.99972 0.0
C1411 C 0.23352 0.50885 0.98734 0.0
H1412 H 0.18881 0.51574 0.00205 0.0
C1413 C 0.23347 0.49015 0.98587 0.0
C1414 C 0.21736 0.4806 0.99008 0.0
H1415 H 0.24614 0.51586 0.98424 0.0
H1416 H 0.24601 0.48317 0.98105 0.0
C1417 C 0.20132 0.49012 0.99593 0.0
C1418 C 0.49022 0.20152 0.00585 0.0
C1419 C 0.48055 0.21703 0.99516 0.0
H1420 H 0.51602 0.18936 0.01259 0.0
C1421 C 0.4899 0.23255 0.98298 0.0
H1422 H 0.48332 0.18934 0.01503 0.0
C1423 C 0.50861 0.2326 0.98193 0.0
C1424 C 0.51826 0.21704 0.99229 0.0
H1425 H 0.48275 0.2447 0.97478 0.0
H1426 H 0.51554 0.24474 0.97251 0.0
C1427 C 0.50889 0.20149 0.00413 0.0
C1428 C 0.7655 0.49129 0.00664 0.0
C1429 C 0.78148 0.48138 0.00693 0.0
H1430 H 0.75341 0.51729 0.00489 0.0
C1431 C 0.79789 0.49056 0.0058 0.0
H1432 H 0.75266 0.48459 0.00777 0.0
C1433 C 0.79832 0.50923 0.00428 0.0
C1434 C 0.78235 0.51916 0.004 0.0
H1435 H 0.81043 0.48331 0.00548 0.0
H1436 H 0.81118 0.51589 0.00373 0.0
C1437 C 0.76593 0.51 0.00537 0.0
C1438 C 0.50999 0.79772 0.99827 0.0
C1439 C 0.51925 0.78193 0.00858 0.0
H1440 H 0.48452 0.81026 0.98878 0.0
C1441 C 0.50949 0.76628 0.01747 0.0
H1442 H 0.51721 0.80993 0.99092 0.0
C1443 C 0.49078 0.7665 0.0165 0.0
C1444 C 0.48153 0.78228 0.00592 0.0
H1445 H 0.51632 0.75395 0.0257 0.0
H1446 H 0.48353 0.75428 0.02353 0.0
C1447 C 0.49132 0.79787 0.99668 0.0
C1448 C 0.70028 0.00937 0.50771 0.0
C1449 C 0.71624 0.01881 0.50036 0.0
H1450 H 0.68769 0.98371 0.5133 0.0
C1451 C 0.73215 0.00924 0.49318 0.0
H1452 H 0.68782 0.01645 0.51304 0.0
C1453 C 0.7321 0.99053 0.49378 0.0
C1454 C 0.7161 0.98109 0.50076 0.0
H1455 H 0.74464 0.01623 0.48765 0.0
H1456 H 0.74453 0.98342 0.48823 0.0
C1457 C 0.70018 0.99068 0.50757 0.0
C1458 C 0.99056 0.73265 0.49384 0.0
C1459 C 0.98094 0.71719 0.50532 0.0
H1460 H 0.01635 0.74443 0.48305 0.0
C1461 C 0.99036 0.70144 0.5152 0.0
H1462 H 0.98361 0.74499 0.48625 0.0
C1463 C 0.00903 0.70108 0.51297 0.0
C1464 C 0.01865 0.71653 0.50141 0.0
H1465 H 0.98326 0.6893 0.52378 0.0
H1466 H 0.01597 0.68874 0.52056 0.0
C1467 C 0.00925 0.73236 0.49222 0.0
C1468 C 0.29718 0.00819 0.4998 0.0
C1469 C 0.28103 0.01777 0.49759 0.0
H1470 H 0.3098 0.98256 0.50372 0.0
C1471 C 0.26479 0.00827 0.49808 0.0
H1472 H 0.30991 0.01511 0.50001 0.0
C1473 C 0.26473 0.98959 0.50065 0.0
C1474 C 0.28089 0.98002 0.503 0.0
H1475 H 0.25213 0.01526 0.49609 0.0
H1476 H 0.25201 0.98265 0.50127 0.0
C1477 C 0.29711 0.98954 0.5025 0.0
C1478 C 0.00873 0.26634 0.48228 0.0
C1479 C 0.01823 0.28191 0.49343 0.0
H1480 H 0.98296 0.25422 0.47325 0.0
C1481 C 0.00871 0.29757 0.50348 0.0
H1482 H 0.01578 0.25407 0.47459 0.0
C1483 C 0.99003 0.2977 0.50225 0.0
C1484 C 0.98051 0.28211 0.49157 0.0
H1485 H 0.01572 0.30978 0.51185 0.0
H1486 H 0.98301 0.30995 0.51029 0.0
C1487 C 0.99001 0.2664 0.48175 0.0
C1488 C 0.30023 0.31398 0.95589 0.0
C1489 C 0.29655 0.32342 0.99452 0.0
H1490 H 0.31538 0.29312 0.92542 0.0
C1491 C 0.30659 0.31957 0.03216 0.0
H1492 H 0.29262 0.31653 0.92646 0.0
C1493 C 0.31962 0.30614 0.03156 0.0
C1494 C 0.32272 0.29618 0.99342 0.0
H1495 H 0.30415 0.32674 0.06229 0.0
H1496 H 0.32674 0.30307 0.06141 0.0
C1497 C 0.31313 0.30047 0.95539 0.0
C1498 C 0.69497 0.31686 0.95561 0.0
C1499 C 0.70171 0.32412 0.99461 0.0
H1500 H 0.67742 0.29782 0.92594 0.0
C1501 C 0.69437 0.31839 0.03447 0.0
H1502 H 0.70014 0.32116 0.92431 0.0
C1503 C 0.68113 0.30518 0.03539 0.0
C1504 C 0.67495 0.29736 0.99648 0.0
H1505 H 0.69932 0.32358 0.06516 0.0
H1506 H 0.67598 0.30086 0.06669 0.0
C1507 C 0.68177 0.30362 0.95653 0.0
C1508 C 0.69587 0.68082 0.96485 0.0
C1509 C 0.70384 0.67581 0.00457 0.0
H1510 H 0.67681 0.69763 0.93263 0.0
C1511 C 0.6975 0.68355 0.04343 0.0
H1512 H 0.7005 0.67522 0.93428 0.0
C1513 C 0.68409 0.69656 0.04244 0.0
C1514 C 0.67665 0.70213 0.00254 0.0
H1515 H 0.70318 0.67981 0.07464 0.0
H1516 H 0.68007 0.70275 0.07284 0.0
C1517 C 0.68243 0.69382 0.96385 0.0
C1518 C 0.3039 0.68394 0.96231 0.0
C1519 C 0.2967 0.6772 0.00134 0.0
H1520 H 0.3221 0.70245 0.93266 0.0
C1521 C 0.30337 0.68352 0.04133 0.0
H1522 H 0.29907 0.67921 0.93105 0.0
C1523 C 0.31647 0.69685 0.04226 0.0
C1524 C 0.32331 0.70396 0.00322 0.0
H1525 H 0.29796 0.67865 0.07191 0.0
H1526 H 0.32107 0.70181 0.07352 0.0
C1527 C 0.31716 0.69712 0.96324 0.0
C1528 C 0.81699 0.80308 0.53686 0.0
C1529 C 0.82352 0.79677 0.49671 0.0
H1530 H 0.79848 0.82042 0.56946 0.0
C1531 C 0.81695 0.80431 0.45788 0.0
H1532 H 0.8217 0.79741 0.56729 0.0
C1533 C 0.80368 0.81747 0.45913 0.0
C1534 C 0.7966 0.82322 0.49922 0.0
H1535 H 0.82184 0.79978 0.4265 0.0
H1536 H 0.79846 0.82263 0.42865 0.0
C1537 C 0.8036 0.81611 0.53809 0.0
C1538 C 0.19546 0.81601 0.53957 0.0
C1539 C 0.20283 0.82194 0.4999 0.0
H1540 H 0.17705 0.79835 0.57123 0.0
C1541 C 0.19615 0.81482 0.46068 0.0
H1542 H 0.20037 0.82109 0.57042 0.0
C1543 C 0.18297 0.80155 0.46119 0.0
C1544 C 0.17611 0.79512 0.50093 0.0
H1545 H 0.20133 0.81927 0.42951 0.0
H1546 H 0.17867 0.79587 0.43042 0.0
C1547 C 0.18224 0.80279 0.54007 0.0
C1548 C 0.19225 0.17912 0.53311 0.0
C1549 C 0.20236 0.17511 0.49568 0.0
H1550 H 0.17202 0.19573 0.56167 0.0
C1551 C 0.19873 0.18435 0.45674 0.0
H1552 H 0.19467 0.17211 0.56349 0.0
C1553 C 0.18581 0.19784 0.45571 0.0
C1554 C 0.17615 0.20228 0.49351 0.0
H1555 H 0.20639 0.18166 0.42745 0.0
H1556 H 0.18361 0.20504 0.42551 0.0
C1557 C 0.1792 0.19252 0.53198 0.0
C1558 C 0.81633 0.1977 0.4615 0.0
C1559 C 0.8239 0.2029 0.50153 0.0
H1560 H 0.79721 0.18112 0.42882 0.0
C1561 C 0.81841 0.19413 0.53985 0.0
H1562 H 0.82014 0.20429 0.43142 0.0
C1563 C 0.80517 0.18093 0.53838 0.0
C1564 C 0.79707 0.17629 0.49857 0.0
H1565 H 0.82414 0.19769 0.57113 0.0
H1566 H 0.80077 0.17488 0.56866 0.0
C1567 C 0.80305 0.18456 0.46005 0.0
C1568 C 0.15035 0.3477 0.26924 0.0
C1569 C 0.15364 0.32987 0.28147 0.0
H1570 H 0.15444 0.36827 0.22162 0.0
C1571 C 0.16318 0.31875 0.25273 0.0
H1572 H 0.14318 0.35665 0.29084 0.0
C1573 C 0.16956 0.32536 0.21306 0.0
C1574 C 0.16661 0.34328 0.20115 0.0
H1575 H 0.16563 0.30485 0.26078 0.0
H1576 H 0.17677 0.31638 0.1916 0.0
C1577 C 0.15678 0.35434 0.22954 0.0
C1578 C 0.66301 0.17246 0.27915 0.0
C1579 C 0.66918 0.15475 0.28259 0.0
H1580 H 0.65161 0.19265 0.23824 0.0
C1581 C 0.66827 0.14361 0.24565 0.0
H1582 H 0.66318 0.18131 0.30713 0.0
C1583 C 0.66156 0.15012 0.20609 0.0
C1584 C 0.65567 0.16792 0.20257 0.0
H1585 H 0.67312 0.12997 0.247 0.0
H1586 H 0.66136 0.14132 0.17801 0.0
C1587 C 0.65637 0.17897 0.23964 0.0
C1588 C 0.84003 0.65234 0.28386 0.0
C1589 C 0.85143 0.66727 0.28392 0.0
H1590 H 0.82411 0.6344 0.24591 0.0
C1591 C 0.85654 0.67488 0.24392 0.0
H1592 H 0.83573 0.64633 0.31428 0.0
C1593 C 0.85013 0.6679 0.20464 0.0
C1594 C 0.83826 0.65327 0.20445 0.0
H1595 H 0.8655 0.68626 0.24304 0.0
H1596 H 0.85445 0.67402 0.17441 0.0
C1597 C 0.83344 0.64547 0.2446 0.0
C1598 C 0.33185 0.82463 0.29029 0.0
C1599 C 0.33418 0.84268 0.30195 0.0
H1600 H 0.33612 0.80426 0.24236 0.0
C1601 C 0.3434 0.85406 0.27308 0.0
H1602 H 0.32516 0.81539 0.31208 0.0
C1603 C 0.3498 0.84761 0.23315 0.0
C1604 C 0.34703 0.82968 0.22112 0.0
H1605 H 0.34524 0.86808 0.28073 0.0
H1606 H 0.35648 0.85679 0.21117 0.0
C1607 C 0.33814 0.81823 0.25033 0.0
C1608 C 0.15496 0.67739 0.74499 0.0
C1609 C 0.1548 0.66636 0.70786 0.0
H1610 H 0.16127 0.67983 0.81274 0.0
C1611 C 0.16103 0.64869 0.71153 0.0
H1612 H 0.14993 0.69096 0.74341 0.0
C1613 C 0.16764 0.64231 0.75131 0.0
C1614 C 0.16808 0.65345 0.78831 0.0
H1615 H 0.16121 0.63993 0.68339 0.0
H1616 H 0.17283 0.62879 0.75274 0.0
C1617 C 0.16148 0.671 0.78473 0.0
C1618 C 0.32976 0.17316 0.71503 0.0
C1619 C 0.33261 0.15522 0.70313 0.0
H1620 H 0.33372 0.19361 0.76287 0.0
C1621 C 0.3423 0.14408 0.73163 0.0
H1622 H 0.32268 0.18221 0.69351 0.0
C1623 C 0.34868 0.15066 0.77142 0.0
C1624 C 0.34548 0.1685 0.78366 0.0
H1625 H 0.34454 0.13014 0.72373 0.0
H1626 H 0.35574 0.14165 0.79311 0.0
C1627 C 0.33609 0.17971 0.75481 0.0
C1628 C 0.8368 0.35683 0.75871 0.0
C1629 C 0.83165 0.34504 0.79213 0.0
H1630 H 0.84663 0.35972 0.69354 0.0
C1631 C 0.83321 0.32653 0.78514 0.0
H1632 H 0.83552 0.37116 0.76295 0.0
C1633 C 0.83975 0.31995 0.74555 0.0
C1634 C 0.84473 0.33172 0.7118 0.0
H1635 H 0.82956 0.31712 0.81051 0.0
H1636 H 0.84109 0.30562 0.74165 0.0
C1637 C 0.8432 0.35026 0.71894 0.0
C1638 C 0.66079 0.84942 0.79149 0.0
C1639 C 0.65518 0.83152 0.79488 0.0
H1640 H 0.67209 0.86978 0.75077 0.0
C1641 C 0.65604 0.82053 0.75773 0.0
H1642 H 0.66046 0.85817 0.81964 0.0
C1643 C 0.6626 0.82719 0.71827 0.0
C1644 C 0.66853 0.84499 0.71497 0.0
H1645 H 0.65149 0.80678 0.75903 0.0
H1646 H 0.66292 0.81838 0.69023 0.0
C1647 C 0.66742 0.85607 0.75199 0.0
C1648 C 0.83047 0.65351 0.70455 0.0
C1649 C 0.84679 0.66282 0.70319 0.0
H1650 H 0.81122 0.63977 0.74378 0.0
C1651 C 0.85662 0.66489 0.74196 0.0
H1652 H 0.82274 0.65145 0.67508 0.0
C1653 C 0.84994 0.65832 0.78152 0.0
C1654 C 0.83333 0.64947 0.78308 0.0
H1655 H 0.86915 0.67217 0.74201 0.0
H1656 H 0.85752 0.66072 0.81106 0.0
C1657 C 0.82385 0.64688 0.74396 0.0
C1658 C 0.33959 0.82992 0.7214 0.0
C1659 C 0.33422 0.84784 0.71695 0.0
H1660 H 0.35066 0.80985 0.76323 0.0
C1661 C 0.33647 0.85957 0.75237 0.0
H1662 H 0.33812 0.82062 0.69453 0.0
C1663 C 0.34357 0.85338 0.79185 0.0
C1664 C 0.34881 0.83541 0.79634 0.0
H1665 H 0.33232 0.87342 0.74989 0.0
H1666 H 0.34497 0.86262 0.81885 0.0
C1667 C 0.3469 0.8238 0.76058 0.0
C1668 C 0.15329 0.35161 0.71264 0.0
C1669 C 0.15025 0.33321 0.70668 0.0
H1670 H 0.16277 0.37222 0.75546 0.0
C1671 C 0.15425 0.32138 0.74098 0.0
H1672 H 0.15023 0.36105 0.6869 0.0
C1673 C 0.16137 0.32775 0.78012 0.0
C1674 C 0.16458 0.34611 0.78599 0.0
H1675 H 0.15224 0.30711 0.73726 0.0
H1676 H 0.16438 0.31828 0.80584 0.0
C1677 C 0.16031 0.35801 0.752 0.0
C1678 C 0.65115 0.14881 0.77429 0.0
C1679 C 0.6507 0.1674 0.78134 0.0
H1680 H 0.65746 0.12748 0.73028 0.0
C1681 C 0.65613 0.17885 0.74742 0.0
H1682 H 0.64716 0.1396 0.79977 0.0
C1683 C 0.66227 0.17191 0.70786 0.0
C1684 C 0.66305 0.15332 0.70104 0.0
H1685 H 0.65568 0.19324 0.75139 0.0
H1686 H 0.66683 0.18115 0.68303 0.0
C1687 C 0.65724 0.14186 0.73459 0.0
C1688 C 0.84078 0.32041 0.25542 0.0
C1689 C 0.8457 0.33214 0.28923 0.0
H1690 H 0.83052 0.31758 0.19064 0.0
C1691 C 0.8443 0.35068 0.28212 0.0
H1692 H 0.84208 0.30606 0.25937 0.0
C1693 C 0.83774 0.35729 0.24248 0.0
C1694 C 0.83241 0.34551 0.20916 0.0
H1695 H 0.84782 0.36009 0.30758 0.0
H1696 H 0.83635 0.37162 0.23841 0.0
C1697 C 0.83419 0.327 0.21595 0.0
C1698 C 0.64084 0.83662 0.24804 0.0
C1699 C 0.65259 0.83474 0.21253 0.0
H1700 H 0.63771 0.84462 0.31485 0.0
C1701 C 0.67045 0.84026 0.21716 0.0
H1702 H 0.62703 0.83234 0.24541 0.0
C1703 C 0.6765 0.84738 0.25663 0.0
C1704 C 0.66487 0.84891 0.29247 0.0
H1705 H 0.67976 0.83904 0.19023 0.0
H1706 H 0.69041 0.85128 0.25945 0.0
C1707 C 0.64696 0.84351 0.28778 0.0
C1708 C 0.14084 0.66071 0.2542 0.0
C1709 C 0.15238 0.6627 0.29009 0.0
H1710 H 0.1382 0.65283 0.18718 0.0
C1711 C 0.17032 0.65738 0.286 0.0
H1712 H 0.12698 0.66482 0.25641 0.0
C1713 C 0.17668 0.65042 0.24666 0.0
C1714 C 0.16529 0.64884 0.2104 0.0
H1715 H 0.17947 0.65868 0.31324 0.0
H1716 H 0.19066 0.64671 0.24425 0.0
C1717 C 0.14728 0.65398 0.21458 0.0
C1718 C 0.3384 0.14026 0.25404 0.0
C1719 C 0.33403 0.1521 0.28808 0.0
H1720 H 0.34854 0.13734 0.18896 0.0
C1721 C 0.33717 0.17048 0.28233 0.0
H1722 H 0.336 0.12603 0.25741 0.0
C1723 C 0.34429 0.17693 0.24327 0.0
C1724 C 0.34838 0.16516 0.2089 0.0
H1725 H 0.33409 0.17991 0.3081 0.0
H1726 H 0.34624 0.19122 0.23964 0.0
C1727 C 0.34541 0.14674 0.21475 0.0
loop_
_geom_bond_atom_site_label_1
_geom_bond_atom_site_label_2
_geom_bond_distance
_geom_bond_site_symmetry_2
_ccdc_geom_bond_type
Li0 N17 1.990 . S
Li0 O60 1.956 . S
Li0 O61 1.970 1_554 S
Li0 O62 1.961 1_554 S
Li1 N25 1.990 . S
Li1 O60 1.970 . S
Li1 O61 1.956 1_554 S
Li1 O63 1.961 . S
Li2 N47 1.990 . S
Li2 O60 1.961 1_556 S
Li2 O62 1.956 . S
Li2 O63 1.970 1_556 S
Li3 N53 1.990 . S
Li3 O61 1.961 . S
Li3 O62 1.970 . S
Li3 O63 1.956 1_556 S
C4 C6 1.348 . S
C4 C7 1.356 . S
C4 O60 1.325 . S
N5 C8 1.314 . S
N5 C9 1.279 . S
C6 C4 1.348 . S
C6 C8 1.353 . S
C6 H64 0.929 . S
C7 C4 1.356 . S
C7 C9 1.358 . S
C7 H65 0.930 . S
C8 N5 1.314 . S
C8 C6 1.353 . S
C8 H66 0.930 . S
C9 N5 1.279 . S
C9 C7 1.358 . S
C9 H67 0.930 . S
C10 C13 1.348 1_556 S
C10 C14 1.356 . S
C10 O61 1.325 . S
C11 N12 1.279 1_556 S
C11 C14 1.358 . S
C11 H68 0.930 . S
N12 C11 1.279 1_554 S
N12 C15 1.314 . S
C13 C10 1.348 1_554 S
C13 C15 1.353 . S
C13 H69 0.929 . S
C14 C10 1.356 . S
C14 C11 1.358 . S
C14 H70 0.930 . S
C15 N12 1.314 . S
C15 C13 1.353 . S
C15 H71 0.930 . S
C16 N17 1.314 1_556 S
C16 C21 1.353 . S
C16 H22 0.930 . S
N17 Li0 1.990 . S
N17 C16 1.314 1_554 S
N17 C19 1.279 . S
C18 C19 1.358 . S
C18 C20 1.359 . S
C18 H72 0.930 . S
C19 N17 1.279 . S
C19 C18 1.358 . S
C19 H23 0.930 . S
C20 C18 1.359 . S
C20 C21 1.345 1_554 S
C21 C16 1.353 . S
C21 C20 1.345 1_556 S
C21 H73 0.929 . S
H22 C16 0.930 . S
H23 C19 0.930 . S
C24 N25 1.314 . S
C24 C26 1.353 . S
C24 H30 0.930 . S
N25 Li1 1.990 . S
N25 C24 1.314 . S
N25 C28 1.279 . S
C26 C24 1.353 . S
C26 C29 1.348 . S
C26 H74 0.929 . S
C27 C28 1.358 . S
C27 C29 1.356 . S
C27 H75 0.930 . S
C28 N25 1.279 . S
C28 C27 1.358 . S
C28 H31 0.930 . S
C29 C26 1.348 . S
C29 C27 1.356 . S
H30 C24 0.930 . S
H31 C28 0.930 . S
C32 C34 1.348 . S
C32 C35 1.356 . S
C32 O62 1.325 . S
N33 C36 1.314 . S
N33 C37 1.279 . S
C34 C32 1.348 . S
C34 C36 1.353 . S
C34 H76 0.929 . S
C35 C32 1.356 . S
C35 C37 1.358 . S
C35 H77 0.930 . S
C36 N33 1.314 . S
C36 C34 1.353 . S
C36 H78 0.930 . S
C37 N33 1.279 . S
C37 C35 1.358 . S
C37 H79 0.930 . S
C38 C39 1.347 1_554 S
C38 C40 1.357 . S
C38 O63 1.325 . S
C39 C38 1.347 1_556 S
C39 C41 1.353 . S
C39 H80 0.929 . S
C40 C38 1.357 . S
C40 C42 1.358 . S
C40 H81 0.930 . S
C41 C39 1.353 . S
C41 N43 1.314 . S
C41 H82 0.930 . S
C42 C40 1.358 . S
C42 N43 1.279 1_554 S
C42 H83 0.930 . S
N43 C41 1.314 . S
N43 C42 1.279 1_556 S
C44 C46 1.353 . S
C44 N47 1.314 1_554 S
C44 H50 0.930 . S
C45 N47 1.279 . S
C45 C48 1.358 . S
C45 H51 0.930 . S
C46 C44 1.353 . S
C46 C49 1.350 1_554 S
C46 H84 0.929 . S
N47 Li2 1.990 . S
N47 C44 1.314 1_556 S
N47 C45 1.279 . S
C48 C45 1.358 . S
C48 C49 1.354 . S
C48 H85 0.930 . S
C49 C46 1.350 1_556 S
C49 C48 1.354 . S
H50 C44 0.930 . S
H51 C45 0.930 . S
C52 N53 1.314 . S
C52 C54 1.353 . S
C52 H58 0.930 . S
N53 Li3 1.990 . S
N53 C52 1.314 . S
N53 C56 1.279 . S
C54 C52 1.353 . S
C54 C57 1.348 . S
C54 H86 0.929 . S
C55 C56 1.358 . S
C55 C57 1.356 . S
C55 H87 0.930 . S
C56 N53 1.279 . S
C56 C55 1.358 . S
C56 H59 0.930 . S
C57 C54 1.348 . S
C57 C55 1.356 . S
H58 C52 0.930 . S
H59 C56 0.930 . S
O60 Li0 1.956 . S
O60 Li1 1.970 . S
O60 Li2 1.961 1_554 S
O60 C4 1.325 . S
O61 Li0 1.970 1_556 S
O61 Li1 1.956 1_556 S
O61 Li3 1.961 . S
O61 C10 1.325 . S
O62 Li0 1.961 1_556 S
O62 Li2 1.956 . S
O62 Li3 1.970 . S
O62 C32 1.325 . S
O63 Li1 1.961 . S
O63 Li2 1.970 1_554 S
O63 Li3 1.956 1_554 S
O63 C38 1.325 . S
H64 C6 0.929 . S
H65 C7 0.930 . S
H66 C8 0.930 . S
H67 C9 0.930 . S
H68 C11 0.930 . S
H69 C13 0.929 . S
H70 C14 0.930 . S
H71 C15 0.930 . S
H72 C18 0.930 . S
H73 C21 0.929 . S
H74 C26 0.929 . S
H75 C27 0.930 . S
H76 C34 0.929 . S
H77 C35 0.930 . S
H78 C36 0.930 . S
H79 C37 0.930 . S
H80 C39 0.929 . S
H81 C40 0.930 . S
H82 C41 0.930 . S
H83 C42 0.930 . S
H84 C46 0.929 . S
H85 C48 0.930 . S
H86 C54 0.929 . S
H87 C55 0.930 . S
Li88 N105 1.990 . S
Li88 O148 1.956 . S
Li88 O149 1.970 1_554 S
Li88 O150 1.961 1_554 S
Li89 N113 1.990 . S
Li89 O148 1.970 . S
Li89 O149 1.956 1_554 S
Li89 O151 1.961 . S
Li90 N135 1.990 . S
Li90 O148 1.961 1_556 S
Li90 O150 1.956 . S
Li90 O151 1.970 1_556 S
Li91 N141 1.990 . S
Li91 O149 1.961 . S
Li91 O150 1.970 . S
Li91 O151 1.956 1_556 S
C92 C94 1.348 . S
C92 C95 1.356 . S
C92 O148 1.325 . S
N93 C96 1.314 . S
N93 C97 1.279 . S
C94 C92 1.348 . S
C94 C96 1.353 . S
C94 H152 0.929 . S
C95 C92 1.356 . S
C95 C97 1.358 . S
C95 H153 0.930 . S
C96 N93 1.314 . S
C96 C94 1.353 . S
C96 H154 0.930 . S
C97 N93 1.279 . S
C97 C95 1.358 . S
C97 H155 0.930 . S
C98 C101 1.348 1_556 S
C98 C102 1.356 . S
C98 O149 1.325 . S
C99 N100 1.279 1_556 S
C99 C102 1.358 . S
C99 H156 0.930 . S
N100 C99 1.279 1_554 S
N100 C103 1.314 . S
C101 C98 1.348 1_554 S
C101 C103 1.353 . S
C101 H157 0.929 . S
C102 C98 1.356 . S
C102 C99 1.358 . S
C102 H158 0.930 . S
C103 N100 1.314 . S
C103 C101 1.353 . S
C103 H159 0.930 . S
C104 N105 1.314 1_556 S
C104 C109 1.353 . S
C104 H110 0.930 . S
N105 Li88 1.990 . S
N105 C104 1.314 1_554 S
N105 C107 1.279 . S
C106 C107 1.358 . S
C106 C108 1.359 . S
C106 H160 0.930 . S
C107 N105 1.279 . S
C107 C106 1.358 . S
C107 H111 0.930 . S
C108 C106 1.359 . S
C108 C109 1.345 1_554 S
C109 C104 1.353 . S
C109 C108 1.345 1_556 S
C109 H161 0.929 . S
H110 C104 0.930 . S
H111 C107 0.930 . S
C112 N113 1.314 . S
C112 C114 1.353 . S
C112 H118 0.930 . S
N113 Li89 1.990 . S
N113 C112 1.314 . S
N113 C116 1.279 . S
C114 C112 1.353 . S
C114 C117 1.348 . S
C114 H162 0.929 . S
C115 C116 1.358 . S
C115 C117 1.356 . S
C115 H163 0.930 . S
C116 N113 1.279 . S
C116 C115 1.358 . S
C116 H119 0.930 . S
C117 C114 1.348 . S
C117 C115 1.356 . S
H118 C112 0.930 . S
H119 C116 0.930 . S
C120 C122 1.348 . S
C120 C123 1.356 . S
C120 O150 1.325 . S
N121 C124 1.314 . S
N121 C125 1.279 . S
C122 C120 1.348 . S
C122 C124 1.353 . S
C122 H164 0.929 . S
C123 C120 1.356 . S
C123 C125 1.358 . S
C123 H165 0.930 . S
C124 N121 1.314 . S
C124 C122 1.353 . S
C124 H166 0.930 . S
C125 N121 1.279 . S
C125 C123 1.358 . S
C125 H167 0.930 . S
C126 C127 1.347 1_554 S
C126 C128 1.357 . S
C126 O151 1.325 . S
C127 C126 1.347 1_556 S
C127 C129 1.353 . S
C127 H168 0.929 . S
C128 C126 1.357 . S
C128 C130 1.358 . S
C128 H169 0.930 . S
C129 C127 1.353 . S
C129 N131 1.314 . S
C129 H170 0.930 . S
C130 C128 1.358 . S
C130 N131 1.279 1_554 S
C130 H171 0.930 . S
N131 C129 1.314 . S
N131 C130 1.279 1_556 S
C132 C134 1.353 . S
C132 N135 1.314 1_554 S
C132 H138 0.930 . S
C133 N135 1.279 . S
C133 C136 1.358 . S
C133 H139 0.930 . S
C134 C132 1.353 . S
C134 C137 1.350 1_554 S
C134 H172 0.929 . S
N135 Li90 1.990 . S
N135 C132 1.314 1_556 S
N135 C133 1.279 . S
C136 C133 1.358 . S
C136 C137 1.354 . S
C136 H173 0.930 . S
C137 C134 1.350 1_556 S
C137 C136 1.354 . S
H138 C132 0.930 . S
H139 C133 0.930 . S
C140 N141 1.314 . S
C140 C142 1.353 . S
C140 H146 0.930 . S
N141 Li91 1.990 . S
N141 C140 1.314 . S
N141 C144 1.279 . S
C142 C140 1.353 . S
C142 C145 1.348 . S
C142 H174 0.929 . S
C143 C144 1.358 . S
C143 C145 1.356 . S
C143 H175 0.930 . S
C144 N141 1.279 . S
C144 C143 1.358 . S
C144 H147 0.930 . S
C145 C142 1.348 . S
C145 C143 1.356 . S
H146 C140 0.930 . S
H147 C144 0.930 . S
O148 Li88 1.956 . S
O148 Li89 1.970 . S
O148 Li90 1.961 1_554 S
O148 C92 1.325 . S
O149 Li88 1.970 1_556 S
O149 Li89 1.956 1_556 S
O149 Li91 1.961 . S
O149 C98 1.325 . S
O150 Li88 1.961 1_556 S
O150 Li90 1.956 . S
O150 Li91 1.970 . S
O150 C120 1.325 . S
O151 Li89 1.961 . S
O151 Li90 1.970 1_554 S
O151 Li91 1.956 1_554 S
O151 C126 1.325 . S
H152 C94 0.929 . S
H153 C95 0.930 . S
H154 C96 0.930 . S
H155 C97 0.930 . S
H156 C99 0.930 . S
H157 C101 0.929 . S
H158 C102 0.930 . S
H159 C103 0.930 . S
H160 C106 0.930 . S
H161 C109 0.929 . S
H162 C114 0.929 . S
H163 C115 0.930 . S
H164 C122 0.929 . S
H165 C123 0.930 . S
H166 C124 0.930 . S
H167 C125 0.930 . S
H168 C127 0.929 . S
H169 C128 0.930 . S
H170 C129 0.930 . S
H171 C130 0.930 . S
H172 C134 0.929 . S
H173 C136 0.930 . S
H174 C142 0.929 . S
H175 C143 0.930 . S
Li176 N193 1.990 . S
Li176 O236 1.956 1_554 S
Li176 O237 1.970 . S
Li176 O238 1.961 . S
Li177 N201 1.990 . S
Li177 O236 1.970 1_554 S
Li177 O237 1.956 . S
Li177 O239 1.961 1_554 S
Li178 N223 1.990 . S
Li178 O236 1.961 . S
Li178 O238 1.956 1_556 S
Li178 O239 1.970 . S
Li179 N229 1.990 . S
Li179 O237 1.961 1_556 S
Li179 O238 1.970 1_556 S
Li179 O239 1.956 . S
C180 C182 1.348 1_556 S
C180 C183 1.356 . S
C180 O236 1.325 . S
N181 C184 1.314 . S
N181 C185 1.279 1_554 S
C182 C180 1.348 1_554 S
C182 C184 1.353 . S
C182 H240 0.929 . S
C183 C180 1.356 . S
C183 C185 1.358 . S
C183 H241 0.930 . S
C184 N181 1.314 . S
C184 C182 1.353 . S
C184 H242 0.930 . S
C185 N181 1.279 1_556 S
C185 C183 1.358 . S
C185 H243 0.930 . S
C186 C189 1.348 . S
C186 C190 1.356 . S
C186 O237 1.325 . S
C187 N188 1.279 . S
C187 C190 1.358 . S
C187 H244 0.930 . S
N188 C187 1.279 . S
N188 C191 1.314 . S
C189 C186 1.348 . S
C189 C191 1.353 . S
C189 H245 0.929 . S
C190 C186 1.356 . S
C190 C187 1.358 . S
C190 H246 0.930 . S
C191 N188 1.314 . S
C191 C189 1.353 . S
C191 H247 0.930 . S
C192 N193 1.314 . S
C192 C197 1.353 . S
C192 H198 0.930 . S
N193 Li176 1.990 . S
N193 C192 1.314 . S
N193 C195 1.279 . S
C194 C195 1.358 . S
C194 C196 1.356 . S
C194 H248 0.930 . S
C195 N193 1.279 . S
C195 C194 1.358 . S
C195 H199 0.930 . S
C196 C194 1.356 . S
C196 C197 1.348 . S
C197 C192 1.353 . S
C197 C196 1.348 . S
C197 H249 0.929 . S
H198 C192 0.930 . S
H199 C195 0.930 . S
C200 N201 1.314 1_556 S
C200 C202 1.353 . S
C200 H206 0.930 . S
N201 Li177 1.990 . S
N201 C200 1.314 1_554 S
N201 C204 1.279 . S
C202 C200 1.353 . S
C202 C205 1.345 1_556 S
C202 H250 0.929 . S
C203 C204 1.358 . S
C203 C205 1.359 . S
C203 H251 0.930 . S
C204 N201 1.279 . S
C204 C203 1.358 . S
C204 H207 0.930 . S
C205 C202 1.345 1_554 S
C205 C203 1.359 . S
H206 C200 0.930 . S
H207 C204 0.930 . S
C208 C210 1.347 1_554 S
C208 C211 1.357 . S
C208 O238 1.325 . S
N209 C212 1.314 . S
N209 C213 1.279 1_556 S
C210 C208 1.347 1_556 S
C210 C212 1.353 . S
C210 H252 0.929 . S
C211 C208 1.357 . S
C211 C213 1.358 . S
C211 H253 0.930 . S
C212 N209 1.314 . S
C212 C210 1.353 . S
C212 H254 0.930 . S
C213 N209 1.279 1_554 S
C213 C211 1.358 . S
C213 H255 0.930 . S
C214 C215 1.348 . S
C214 C216 1.356 . S
C214 O239 1.325 . S
C215 C214 1.348 . S
C215 C217 1.353 . S
C215 H256 0.929 . S
C216 C214 1.356 . S
C216 C218 1.358 . S
C216 H257 0.930 . S
C217 C215 1.353 . S
C217 N219 1.314 . S
C217 H258 0.930 . S
C218 C216 1.358 . S
C218 N219 1.279 . S
C218 H259 0.930 . S
N219 C217 1.314 . S
N219 C218 1.279 . S
C220 C222 1.353 . S
C220 N223 1.314 . S
C220 H226 0.930 . S
C221 N223 1.279 . S
C221 C224 1.358 . S
C221 H227 0.930 . S
C222 C220 1.353 . S
C222 C225 1.348 . S
C222 H260 0.929 . S
N223 Li178 1.990 . S
N223 C220 1.314 . S
N223 C221 1.279 . S
C224 C221 1.358 . S
C224 C225 1.356 . S
C224 H261 0.930 . S
C225 C222 1.348 . S
C225 C224 1.356 . S
H226 C220 0.930 . S
H227 C221 0.930 . S
C228 N229 1.314 1_554 S
C228 C230 1.353 . S
C228 H234 0.930 . S
N229 Li179 1.990 . S
N229 C228 1.314 1_556 S
N229 C232 1.279 . S
C230 C228 1.353 . S
C230 C233 1.350 1_554 S
C230 H262 0.929 . S
C231 C232 1.358 . S
C231 C233 1.354 . S
C231 H263 0.930 . S
C232 N229 1.279 . S
C232 C231 1.358 . S
C232 H235 0.930 . S
C233 C230 1.350 1_556 S
C233 C231 1.354 . S
H234 C228 0.930 . S
H235 C232 0.930 . S
O236 Li176 1.956 1_556 S
O236 Li177 1.970 1_556 S
O236 Li178 1.961 . S
O236 C180 1.325 . S
O237 Li176 1.970 . S
O237 Li177 1.956 . S
O237 Li179 1.961 1_554 S
O237 C186 1.325 . S
O238 Li176 1.961 . S
O238 Li178 1.956 1_554 S
O238 Li179 1.970 1_554 S
O238 C208 1.325 . S
O239 Li177 1.961 1_556 S
O239 Li178 1.970 . S
O239 Li179 1.956 . S
O239 C214 1.325 . S
H240 C182 0.929 . S
H241 C183 0.930 . S
H242 C184 0.930 . S
H243 C185 0.930 . S
H244 C187 0.930 . S
H245 C189 0.929 . S
H246 C190 0.930 . S
H247 C191 0.930 . S
H248 C194 0.930 . S
H249 C197 0.929 . S
H250 C202 0.929 . S
H251 C203 0.930 . S
H252 C210 0.929 . S
H253 C211 0.930 . S
H254 C212 0.930 . S
H255 C213 0.930 . S
H256 C215 0.929 . S
H257 C216 0.930 . S
H258 C217 0.930 . S
H259 C218 0.930 . S
H260 C222 0.929 . S
H261 C224 0.930 . S
H262 C230 0.929 . S
H263 C231 0.930 . S
Li264 N281 1.990 . S
Li264 O324 1.956 1_554 S
Li264 O325 1.970 . S
Li264 O326 1.961 . S
Li265 N289 1.990 . S
Li265 O324 1.970 1_554 S
Li265 O325 1.956 . S
Li265 O327 1.961 1_554 S
Li266 N311 1.990 . S
Li266 O324 1.961 . S
Li266 O326 1.956 1_556 S
Li266 O327 1.970 . S
Li267 N317 1.990 . S
Li267 O325 1.961 1_556 S
Li267 O326 1.970 1_556 S
Li267 O327 1.956 . S
C268 C270 1.348 1_556 S
C268 C271 1.356 . S
C268 O324 1.325 . S
N269 C272 1.314 . S
N269 C273 1.279 1_554 S
C270 C268 1.348 1_554 S
C270 C272 1.353 . S
C270 H328 0.929 . S
C271 C268 1.356 . S
C271 C273 1.358 . S
C271 H329 0.930 . S
C272 N269 1.314 . S
C272 C270 1.353 . S
C272 H330 0.930 . S
C273 N269 1.279 1_556 S
C273 C271 1.358 . S
C273 H331 0.930 . S
C274 C277 1.348 . S
C274 C278 1.356 . S
C274 O325 1.325 . S
C275 N276 1.279 . S
C275 C278 1.358 . S
C275 H332 0.930 . S
N276 C275 1.279 . S
N276 C279 1.314 . S
C277 C274 1.348 . S
C277 C279 1.353 . S
C277 H333 0.929 . S
C278 C274 1.356 . S
C278 C275 1.358 . S
C278 H334 0.930 . S
C279 N276 1.314 . S
C279 C277 1.353 . S
C279 H335 0.930 . S
C280 N281 1.314 . S
C280 C285 1.353 . S
C280 H286 0.930 . S
N281 Li264 1.990 . S
N281 C280 1.314 . S
N281 C283 1.279 . S
C282 C283 1.358 . S
C282 C284 1.356 . S
C282 H336 0.930 . S
C283 N281 1.279 . S
C283 C282 1.358 . S
C283 H287 0.930 . S
C284 C282 1.356 . S
C284 C285 1.348 . S
C285 C280 1.353 . S
C285 C284 1.348 . S
C285 H337 0.929 . S
H286 C280 0.930 . S
H287 C283 0.930 . S
C288 N289 1.314 1_556 S
C288 C290 1.353 . S
C288 H294 0.930 . S
N289 Li265 1.990 . S
N289 C288 1.314 1_554 S
N289 C292 1.279 . S
C290 C288 1.353 . S
C290 C293 1.345 1_556 S
C290 H338 0.929 . S
C291 C292 1.358 . S
C291 C293 1.359 . S
C291 H339 0.930 . S
C292 N289 1.279 . S
C292 C291 1.358 . S
C292 H295 0.930 . S
C293 C290 1.345 1_554 S
C293 C291 1.359 . S
H294 C288 0.930 . S
H295 C292 0.930 . S
C296 C298 1.347 1_554 S
C296 C299 1.357 . S
C296 O326 1.325 . S
N297 C300 1.314 . S
N297 C301 1.279 1_556 S
C298 C296 1.347 1_556 S
C298 C300 1.353 . S
C298 H340 0.929 . S
C299 C296 1.357 . S
C299 C301 1.358 . S
C299 H341 0.930 . S
C300 N297 1.314 . S
C300 C298 1.353 . S
C300 H342 0.930 . S
C301 N297 1.279 1_554 S
C301 C299 1.358 . S
C301 H343 0.930 . S
C302 C303 1.348 . S
C302 C304 1.356 . S
C302 O327 1.325 . S
C303 C302 1.348 . S
C303 C305 1.353 . S
C303 H344 0.929 . S
C304 C302 1.356 . S
C304 C306 1.358 . S
C304 H345 0.930 . S
C305 C303 1.353 . S
C305 N307 1.314 . S
C305 H346 0.930 . S
C306 C304 1.358 . S
C306 N307 1.279 . S
C306 H347 0.930 . S
N307 C305 1.314 . S
N307 C306 1.279 . S
C308 C310 1.353 . S
C308 N311 1.314 . S
C308 H314 0.930 . S
C309 N311 1.279 . S
C309 C312 1.358 . S
C309 H315 0.930 . S
C310 C308 1.353 . S
C310 C313 1.348 . S
C310 H348 0.929 . S
N311 Li266 1.990 . S
N311 C308 1.314 . S
N311 C309 1.279 . S
C312 C309 1.358 . S
C312 C313 1.356 . S
C312 H349 0.930 . S
C313 C310 1.348 . S
C313 C312 1.356 . S
H314 C308 0.930 . S
H315 C309 0.930 . S
C316 N317 1.314 1_554 S
C316 C318 1.353 . S
C316 H322 0.930 . S
N317 Li267 1.990 . S
N317 C316 1.314 1_556 S
N317 C320 1.279 . S
C318 C316 1.353 . S
C318 C321 1.350 1_554 S
C318 H350 0.929 . S
C319 C320 1.358 . S
C319 C321 1.354 . S
C319 H351 0.930 . S
C320 N317 1.279 . S
C320 C319 1.358 . S
C320 H323 0.930 . S
C321 C318 1.350 1_556 S
C321 C319 1.354 . S
H322 C316 0.930 . S
H323 C320 0.930 . S
O324 Li264 1.956 1_556 S
O324 Li265 1.970 1_556 S
O324 Li266 1.961 . S
O324 C268 1.325 . S
O325 Li264 1.970 . S
O325 Li265 1.956 . S
O325 Li267 1.961 1_554 S
O325 C274 1.325 . S
O326 Li264 1.961 . S
O326 Li266 1.956 1_554 S
O326 Li267 1.970 1_554 S
O326 C296 1.325 . S
O327 Li265 1.961 1_556 S
O327 Li266 1.970 . S
O327 Li267 1.956 . S
O327 C302 1.325 . S
H328 C270 0.929 . S
H329 C271 0.930 . S
H330 C272 0.930 . S
H331 C273 0.930 . S
H332 C275 0.930 . S
H333 C277 0.929 . S
H334 C278 0.930 . S
H335 C279 0.930 . S
H336 C282 0.930 . S
H337 C285 0.929 . S
H338 C290 0.929 . S
H339 C291 0.930 . S
H340 C298 0.929 . S
H341 C299 0.930 . S
H342 C300 0.930 . S
H343 C301 0.930 . S
H344 C303 0.929 . S
H345 C304 0.930 . S
H346 C305 0.930 . S
H347 C306 0.930 . S
H348 C310 0.929 . S
H349 C312 0.930 . S
H350 C318 0.929 . S
H351 C319 0.930 . S
Li352 N369 1.990 . S
Li352 O412 1.956 1_554 S
Li352 O413 1.970 . S
Li352 O414 1.961 . S
Li353 N377 1.990 . S
Li353 O412 1.970 1_554 S
Li353 O413 1.956 . S
Li353 O415 1.961 1_554 S
Li354 N399 1.990 . S
Li354 O412 1.961 . S
Li354 O414 1.956 1_556 S
Li354 O415 1.970 . S
Li355 N405 1.990 . S
Li355 O413 1.961 1_556 S
Li355 O414 1.970 1_556 S
Li355 O415 1.956 . S
C356 C358 1.348 1_556 S
C356 C359 1.356 . S
C356 O412 1.325 . S
N357 C360 1.314 . S
N357 C361 1.279 1_554 S
C358 C356 1.348 1_554 S
C358 C360 1.353 . S
C358 H416 0.929 . S
C359 C356 1.356 . S
C359 C361 1.358 . S
C359 H417 0.930 . S
C360 N357 1.314 . S
C360 C358 1.353 . S
C360 H418 0.930 . S
C361 N357 1.279 1_556 S
C361 C359 1.358 . S
C361 H419 0.930 . S
C362 C365 1.348 . S
C362 C366 1.356 . S
C362 O413 1.325 . S
C363 N364 1.279 . S
C363 C366 1.358 . S
C363 H420 0.930 . S
N364 C363 1.279 . S
N364 C367 1.314 . S
C365 C362 1.348 . S
C365 C367 1.353 . S
C365 H421 0.929 . S
C366 C362 1.356 . S
C366 C363 1.358 . S
C366 H422 0.930 . S
C367 N364 1.314 . S
C367 C365 1.353 . S
C367 H423 0.930 . S
C368 N369 1.314 . S
C368 C373 1.353 . S
C368 H374 0.930 . S
N369 Li352 1.990 . S
N369 C368 1.314 . S
N369 C371 1.279 . S
C370 C371 1.358 . S
C370 C372 1.356 . S
C370 H424 0.930 . S
C371 N369 1.279 . S
C371 C370 1.358 . S
C371 H375 0.930 . S
C372 C370 1.356 . S
C372 C373 1.348 . S
C373 C368 1.353 . S
C373 C372 1.348 . S
C373 H425 0.929 . S
H374 C368 0.930 . S
H375 C371 0.930 . S
C376 N377 1.314 1_556 S
C376 C378 1.353 . S
C376 H382 0.930 . S
N377 Li353 1.990 . S
N377 C376 1.314 1_554 S
N377 C380 1.279 . S
C378 C376 1.353 . S
C378 C381 1.345 1_556 S
C378 H426 0.929 . S
C379 C380 1.358 . S
C379 C381 1.359 . S
C379 H427 0.930 . S
C380 N377 1.279 . S
C380 C379 1.358 . S
C380 H383 0.930 . S
C381 C378 1.345 1_554 S
C381 C379 1.359 . S
H382 C376 0.930 . S
H383 C380 0.930 . S
C384 C386 1.346 1_554 S
C384 C387 1.357 . S
C384 O414 1.325 . S
N385 C388 1.314 . S
N385 C389 1.279 1_556 S
C386 C384 1.346 1_556 S
C386 C388 1.353 . S
C386 H428 0.929 . S
C387 C384 1.357 . S
C387 C389 1.358 . S
C387 H429 0.930 . S
C388 N385 1.314 . S
C388 C386 1.353 . S
C388 H430 0.930 . S
C389 N385 1.279 1_554 S
C389 C387 1.358 . S
C389 H431 0.930 . S
C390 C391 1.348 . S
C390 C392 1.356 . S
C390 O415 1.325 . S
C391 C390 1.348 . S
C391 C393 1.353 . S
C391 H432 0.929 . S
C392 C390 1.356 . S
C392 C394 1.358 . S
C392 H433 0.930 . S
C393 C391 1.353 . S
C393 N395 1.314 . S
C393 H434 0.930 . S
C394 C392 1.358 . S
C394 N395 1.279 . S
C394 H435 0.930 . S
N395 C393 1.314 . S
N395 C394 1.279 . S
C396 C398 1.353 . S
C396 N399 1.314 . S
C396 H402 0.930 . S
C397 N399 1.279 . S
C397 C400 1.358 . S
C397 H403 0.930 . S
C398 C396 1.353 . S
C398 C401 1.348 . S
C398 H436 0.929 . S
N399 Li354 1.990 . S
N399 C396 1.314 . S
N399 C397 1.279 . S
C400 C397 1.358 . S
C400 C401 1.356 . S
C400 H437 0.930 . S
C401 C398 1.348 . S
C401 C400 1.356 . S
H402 C396 0.930 . S
H403 C397 0.930 . S
C404 N405 1.314 1_554 S
C404 C406 1.353 . S
C404 H410 0.930 . S
N405 Li355 1.990 . S
N405 C404 1.314 1_556 S
N405 C408 1.279 . S
C406 C404 1.353 . S
C406 C409 1.350 1_554 S
C406 H438 0.929 . S
C407 C408 1.358 . S
C407 C409 1.354 . S
C407 H439 0.930 . S
C408 N405 1.279 . S
C408 C407 1.358 . S
C408 H411 0.930 . S
C409 C406 1.350 1_556 S
C409 C407 1.354 . S
H410 C404 0.930 . S
H411 C408 0.930 . S
O412 Li352 1.956 1_556 S
O412 Li353 1.970 1_556 S
O412 Li354 1.961 . S
O412 C356 1.325 . S
O413 Li352 1.970 . S
O413 Li353 1.956 . S
O413 Li355 1.961 1_554 S
O413 C362 1.325 . S
O414 Li352 1.961 . S
O414 Li354 1.956 1_554 S
O414 Li355 1.970 1_554 S
O414 C384 1.325 . S
O415 Li353 1.961 1_556 S
O415 Li354 1.970 . S
O415 Li355 1.956 . S
O415 C390 1.325 . S
H416 C358 0.929 . S
H417 C359 0.930 . S
H418 C360 0.930 . S
H419 C361 0.930 . S
H420 C363 0.930 . S
H421 C365 0.929 . S
H422 C366 0.930 . S
H423 C367 0.930 . S
H424 C370 0.930 . S
H425 C373 0.929 . S
H426 C378 0.929 . S
H427 C379 0.930 . S
H428 C386 0.929 . S
H429 C387 0.930 . S
H430 C388 0.930 . S
H431 C389 0.930 . S
H432 C391 0.929 . S
H433 C392 0.930 . S
H434 C393 0.930 . S
H435 C394 0.930 . S
H436 C398 0.929 . S
H437 C400 0.930 . S
H438 C406 0.929 . S
H439 C407 0.930 . S
Li440 N457 1.990 . S
Li440 O500 1.956 . S
Li440 O501 1.970 1_554 S
Li440 O502 1.961 1_554 S
Li441 N465 1.990 . S
Li441 O500 1.970 . S
Li441 O501 1.956 1_554 S
Li441 O503 1.961 . S
Li442 N487 1.990 . S
Li442 O500 1.961 1_556 S
Li442 O502 1.956 . S
Li442 O503 1.970 1_556 S
Li443 N493 1.990 . S
Li443 O501 1.961 . S
Li443 O502 1.970 . S
Li443 O503 1.956 1_556 S
C444 C446 1.348 . S
C444 C447 1.356 . S
C444 O500 1.325 . S
N445 C448 1.314 . S
N445 C449 1.279 . S
C446 C444 1.348 . S
C446 C448 1.353 . S
C446 H504 0.929 . S
C447 C444 1.356 . S
C447 C449 1.358 . S
C447 H505 0.930 . S
C448 N445 1.314 . S
C448 C446 1.353 . S
C448 H506 0.930 . S
C449 N445 1.279 . S
C449 C447 1.358 . S
C449 H507 0.930 . S
C450 C453 1.348 1_556 S
C450 C454 1.356 . S
C450 O501 1.325 . S
C451 N452 1.279 1_556 S
C451 C454 1.358 . S
C451 H508 0.930 . S
N452 C451 1.279 1_554 S
N452 C455 1.314 . S
C453 C450 1.348 1_554 S
C453 C455 1.353 . S
C453 H509 0.929 . S
C454 C450 1.356 . S
C454 C451 1.358 . S
C454 H510 0.930 . S
C455 N452 1.314 . S
C455 C453 1.353 . S
C455 H511 0.930 . S
C456 N457 1.314 1_556 S
C456 C461 1.353 . S
C456 H462 0.930 . S
N457 Li440 1.990 . S
N457 C456 1.314 1_554 S
N457 C459 1.279 . S
C458 C459 1.358 . S
C458 C460 1.359 . S
C458 H512 0.930 . S
C459 N457 1.279 . S
C459 C458 1.358 . S
C459 H463 0.930 . S
C460 C458 1.359 . S
C460 C461 1.345 1_554 S
C461 C456 1.353 . S
C461 C460 1.345 1_556 S
C461 H513 0.929 . S
H462 C456 0.930 . S
H463 C459 0.930 . S
C464 N465 1.314 . S
C464 C466 1.353 . S
C464 H470 0.930 . S
N465 Li441 1.990 . S
N465 C464 1.314 . S
N465 C468 1.279 . S
C466 C464 1.353 . S
C466 C469 1.348 . S
C466 H514 0.929 . S
C467 C468 1.358 . S
C467 C469 1.356 . S
C467 H515 0.930 . S
C468 N465 1.279 . S
C468 C467 1.358 . S
C468 H471 0.930 . S
C469 C466 1.348 . S
C469 C467 1.356 . S
H470 C464 0.930 . S
H471 C468 0.930 . S
C472 C474 1.348 . S
C472 C475 1.356 . S
C472 O502 1.325 . S
N473 C476 1.314 . S
N473 C477 1.279 . S
C474 C472 1.348 . S
C474 C476 1.353 . S
C474 H516 0.929 . S
C475 C472 1.356 . S
C475 C477 1.358 . S
C475 H517 0.930 . S
C476 N473 1.314 . S
C476 C474 1.353 . S
C476 H518 0.930 . S
C477 N473 1.279 . S
C477 C475 1.358 . S
C477 H519 0.930 . S
C478 C479 1.346 1_554 S
C478 C480 1.357 . S
C478 O503 1.325 . S
C479 C478 1.346 1_556 S
C479 C481 1.353 . S
C479 H520 0.929 . S
C480 C478 1.357 . S
C480 C482 1.358 . S
C480 H521 0.930 . S
C481 C479 1.353 . S
C481 N483 1.314 . S
C481 H522 0.930 . S
C482 C480 1.358 . S
C482 N483 1.279 1_554 S
C482 H523 0.930 . S
N483 C481 1.314 . S
N483 C482 1.279 1_556 S
C484 C486 1.353 . S
C484 N487 1.314 1_554 S
C484 H490 0.930 . S
C485 N487 1.279 . S
C485 C488 1.358 . S
C485 H491 0.930 . S
C486 C484 1.353 . S
C486 C489 1.350 1_554 S
C486 H524 0.929 . S
N487 Li442 1.990 . S
N487 C484 1.314 1_556 S
N487 C485 1.279 . S
C488 C485 1.358 . S
C488 C489 1.354 . S
C488 H525 0.930 . S
C489 C486 1.350 1_556 S
C489 C488 1.354 . S
H490 C484 0.930 . S
H491 C485 0.930 . S
C492 N493 1.314 . S
C492 C494 1.353 . S
C492 H498 0.930 . S
N493 Li443 1.990 . S
N493 C492 1.314 . S
N493 C496 1.279 . S
C494 C492 1.353 . S
C494 C497 1.348 . S
C494 H526 0.929 . S
C495 C496 1.358 . S
C495 C497 1.356 . S
C495 H527 0.930 . S
C496 N493 1.279 . S
C496 C495 1.358 . S
C496 H499 0.930 . S
C497 C494 1.348 . S
C497 C495 1.356 . S
H498 C492 0.930 . S
H499 C496 0.930 . S
O500 Li440 1.956 . S
O500 Li441 1.970 . S
O500 Li442 1.961 1_554 S
O500 C444 1.325 . S
O501 Li440 1.970 1_556 S
O501 Li441 1.956 1_556 S
O501 Li443 1.961 . S
O501 C450 1.325 . S
O502 Li440 1.961 1_556 S
O502 Li442 1.956 . S
O502 Li443 1.970 . S
O502 C472 1.325 . S
O503 Li441 1.961 . S
O503 Li442 1.970 1_554 S
O503 Li443 1.956 1_554 S
O503 C478 1.325 . S
H504 C446 0.929 . S
H505 C447 0.930 . S
H506 C448 0.930 . S
H507 C449 0.930 . S
H508 C451 0.930 . S
H509 C453 0.929 . S
H510 C454 0.930 . S
H511 C455 0.930 . S
H512 C458 0.930 . S
H513 C461 0.929 . S
H514 C466 0.929 . S
H515 C467 0.930 . S
H516 C474 0.929 . S
H517 C475 0.930 . S
H518 C476 0.930 . S
H519 C477 0.930 . S
H520 C479 0.929 . S
H521 C480 0.930 . S
H522 C481 0.930 . S
H523 C482 0.930 . S
H524 C486 0.929 . S
H525 C488 0.930 . S
H526 C494 0.929 . S
H527 C495 0.930 . S
Li528 N545 1.990 . S
Li528 O588 1.956 1_554 S
Li528 O589 1.970 . S
Li528 O590 1.961 . S
Li529 N553 1.990 . S
Li529 O588 1.970 1_554 S
Li529 O589 1.956 . S
Li529 O591 1.961 1_554 S
Li530 N575 1.990 . S
Li530 O588 1.961 . S
Li530 O590 1.956 1_556 S
Li530 O591 1.970 . S
Li531 N581 1.990 . S
Li531 O589 1.961 1_556 S
Li531 O590 1.970 1_556 S
Li531 O591 1.956 . S
C532 C534 1.348 1_556 S
C532 C535 1.356 . S
C532 O588 1.325 . S
N533 C536 1.314 . S
N533 C537 1.279 1_554 S
C534 C532 1.348 1_554 S
C534 C536 1.353 . S
C534 H592 0.929 . S
C535 C532 1.356 . S
C535 C537 1.358 . S
C535 H593 0.930 . S
C536 N533 1.314 . S
C536 C534 1.353 . S
C536 H594 0.930 . S
C537 N533 1.279 1_556 S
C537 C535 1.358 . S
C537 H595 0.930 . S
C538 C541 1.348 . S
C538 C542 1.356 . S
C538 O589 1.325 . S
C539 N540 1.279 . S
C539 C542 1.358 . S
C539 H596 0.930 . S
N540 C539 1.279 . S
N540 C543 1.314 . S
C541 C538 1.348 . S
C541 C543 1.353 . S
C541 H597 0.929 . S
C542 C538 1.356 . S
C542 C539 1.358 . S
C542 H598 0.930 . S
C543 N540 1.314 . S
C543 C541 1.353 . S
C543 H599 0.930 . S
C544 N545 1.314 . S
C544 C549 1.353 . S
C544 H550 0.930 . S
N545 Li528 1.990 . S
N545 C544 1.314 . S
N545 C547 1.279 . S
C546 C547 1.358 . S
C546 C548 1.356 . S
C546 H600 0.930 . S
C547 N545 1.279 . S
C547 C546 1.358 . S
C547 H551 0.930 . S
C548 C546 1.356 . S
C548 C549 1.348 . S
C549 C544 1.353 . S
C549 C548 1.348 . S
C549 H601 0.929 . S
H550 C544 0.930 . S
H551 C547 0.930 . S
C552 N553 1.314 1_556 S
C552 C554 1.353 . S
C552 H558 0.930 . S
N553 Li529 1.990 . S
N553 C552 1.314 1_554 S
N553 C556 1.279 . S
C554 C552 1.353 . S
C554 C557 1.345 1_556 S
C554 H602 0.929 . S
C555 C556 1.358 . S
C555 C557 1.359 . S
C555 H603 0.930 . S
C556 N553 1.279 . S
C556 C555 1.358 . S
C556 H559 0.930 . S
C557 C554 1.345 1_554 S
C557 C555 1.359 . S
H558 C552 0.930 . S
H559 C556 0.930 . S
C560 C562 1.346 1_554 S
C560 C563 1.357 . S
C560 O590 1.325 . S
N561 C564 1.314 . S
N561 C565 1.279 1_556 S
C562 C560 1.346 1_556 S
C562 C564 1.353 . S
C562 H604 0.929 . S
C563 C560 1.357 . S
C563 C565 1.358 . S
C563 H605 0.930 . S
C564 N561 1.314 . S
C564 C562 1.353 . S
C564 H606 0.930 . S
C565 N561 1.279 1_554 S
C565 C563 1.358 . S
C565 H607 0.930 . S
C566 C567 1.348 . S
C566 C568 1.356 . S
C566 O591 1.325 . S
C567 C566 1.348 . S
C567 C569 1.353 . S
C567 H608 0.929 . S
C568 C566 1.356 . S
C568 C570 1.358 . S
C568 H609 0.930 . S
C569 C567 1.353 . S
C569 N571 1.314 . S
C569 H610 0.930 . S
C570 C568 1.358 . S
C570 N571 1.279 . S
C570 H611 0.930 . S
N571 C569 1.314 . S
N571 C570 1.279 . S
C572 C574 1.353 . S
C572 N575 1.314 . S
C572 H578 0.930 . S
C573 N575 1.279 . S
C573 C576 1.358 . S
C573 H579 0.930 . S
C574 C572 1.353 . S
C574 C577 1.348 . S
C574 H612 0.929 . S
N575 Li530 1.990 . S
N575 C572 1.314 . S
N575 C573 1.279 . S
C576 C573 1.358 . S
C576 C577 1.356 . S
C576 H613 0.930 . S
C577 C574 1.348 . S
C577 C576 1.356 . S
H578 C572 0.930 . S
H579 C573 0.930 . S
C580 N581 1.314 1_554 S
C580 C582 1.353 . S
C580 H586 0.930 . S
N581 Li531 1.990 . S
N581 C580 1.314 1_556 S
N581 C584 1.279 . S
C582 C580 1.353 . S
C582 C585 1.350 1_554 S
C582 H614 0.929 . S
C583 C584 1.358 . S
C583 C585 1.354 . S
C583 H615 0.930 . S
C584 N581 1.279 . S
C584 C583 1.358 . S
C584 H587 0.930 . S
C585 C582 1.350 1_556 S
C585 C583 1.354 . S
H586 C580 0.930 . S
H587 C584 0.930 . S
O588 Li528 1.956 1_556 S
O588 Li529 1.970 1_556 S
O588 Li530 1.961 . S
O588 C532 1.325 . S
O589 Li528 1.970 . S
O589 Li529 1.956 . S
O589 Li531 1.961 1_554 S
O589 C538 1.325 . S
O590 Li528 1.961 . S
O590 Li530 1.956 1_554 S
O590 Li531 1.970 1_554 S
O590 C560 1.325 . S
O591 Li529 1.961 1_556 S
O591 Li530 1.970 . S
O591 Li531 1.956 . S
O591 C566 1.325 . S
H592 C534 0.929 . S
H593 C535 0.930 . S
H594 C536 0.930 . S
H595 C537 0.930 . S
H596 C539 0.930 . S
H597 C541 0.929 . S
H598 C542 0.930 . S
H599 C543 0.930 . S
H600 C546 0.930 . S
H601 C549 0.929 . S
H602 C554 0.929 . S
H603 C555 0.930 . S
H604 C562 0.929 . S
H605 C563 0.930 . S
H606 C564 0.930 . S
H607 C565 0.930 . S
H608 C567 0.929 . S
H609 C568 0.930 . S
H610 C569 0.930 . S
H611 C570 0.930 . S
H612 C574 0.929 . S
H613 C576 0.930 . S
H614 C582 0.929 . S
H615 C583 0.930 . S
Li616 N633 1.990 . S
Li616 O676 1.956 1_554 S
Li616 O677 1.970 . S
Li616 O678 1.961 . S
Li617 N641 1.990 . S
Li617 O676 1.970 1_554 S
Li617 O677 1.956 . S
Li617 O679 1.961 1_554 S
Li618 N663 1.990 . S
Li618 O676 1.961 . S
Li618 O678 1.956 1_556 S
Li618 O679 1.970 . S
Li619 N669 1.990 . S
Li619 O677 1.961 1_556 S
Li619 O678 1.970 1_556 S
Li619 O679 1.956 . S
C620 C622 1.348 1_556 S
C620 C623 1.356 . S
C620 O676 1.325 . S
N621 C624 1.314 . S
N621 C625 1.279 1_554 S
C622 C620 1.348 1_554 S
C622 C624 1.353 . S
C622 H680 0.929 . S
C623 C620 1.356 . S
C623 C625 1.358 . S
C623 H681 0.930 . S
C624 N621 1.314 . S
C624 C622 1.353 . S
C624 H682 0.930 . S
C625 N621 1.279 1_556 S
C625 C623 1.358 . S
C625 H683 0.930 . S
C626 C629 1.348 . S
C626 C630 1.356 . S
C626 O677 1.325 . S
C627 N628 1.279 . S
C627 C630 1.358 . S
C627 H684 0.930 . S
N628 C627 1.279 . S
N628 C631 1.314 . S
C629 C626 1.348 . S
C629 C631 1.353 . S
C629 H685 0.929 . S
C630 C626 1.356 . S
C630 C627 1.358 . S
C630 H686 0.930 . S
C631 N628 1.314 . S
C631 C629 1.353 . S
C631 H687 0.930 . S
C632 N633 1.314 . S
C632 C637 1.353 . S
C632 H638 0.930 . S
N633 Li616 1.990 . S
N633 C632 1.314 . S
N633 C635 1.279 . S
C634 C635 1.358 . S
C634 C636 1.356 . S
C634 H688 0.930 . S
C635 N633 1.279 . S
C635 C634 1.358 . S
C635 H639 0.930 . S
C636 C634 1.356 . S
C636 C637 1.348 . S
C637 C632 1.353 . S
C637 C636 1.348 . S
C637 H689 0.929 . S
H638 C632 0.930 . S
H639 C635 0.930 . S
C640 N641 1.314 1_556 S
C640 C642 1.353 . S
C640 H646 0.930 . S
N641 Li617 1.990 . S
N641 C640 1.314 1_554 S
N641 C644 1.279 . S
C642 C640 1.353 . S
C642 C645 1.345 1_556 S
C642 H690 0.929 . S
C643 C644 1.358 . S
C643 C645 1.359 . S
C643 H691 0.930 . S
C644 N641 1.279 . S
C644 C643 1.358 . S
C644 H647 0.930 . S
C645 C642 1.345 1_554 S
C645 C643 1.359 . S
H646 C640 0.930 . S
H647 C644 0.930 . S
C648 C650 1.346 1_554 S
C648 C651 1.357 . S
C648 O678 1.325 . S
N649 C652 1.314 . S
N649 C653 1.279 1_556 S
C650 C648 1.346 1_556 S
C650 C652 1.353 . S
C650 H692 0.929 . S
C651 C648 1.357 . S
C651 C653 1.358 . S
C651 H693 0.930 . S
C652 N649 1.314 . S
C652 C650 1.353 . S
C652 H694 0.930 . S
C653 N649 1.279 1_554 S
C653 C651 1.358 . S
C653 H695 0.930 . S
C654 C655 1.348 . S
C654 C656 1.356 . S
C654 O679 1.325 . S
C655 C654 1.348 . S
C655 C657 1.353 . S
C655 H696 0.929 . S
C656 C654 1.356 . S
C656 C658 1.358 . S
C656 H697 0.930 . S
C657 C655 1.353 . S
C657 N659 1.314 . S
C657 H698 0.930 . S
C658 C656 1.358 . S
C658 N659 1.279 . S
C658 H699 0.930 . S
N659 C657 1.314 . S
N659 C658 1.279 . S
C660 C662 1.353 . S
C660 N663 1.314 . S
C660 H666 0.930 . S
C661 N663 1.279 . S
C661 C664 1.358 . S
C661 H667 0.930 . S
C662 C660 1.353 . S
C662 C665 1.348 . S
C662 H700 0.929 . S
N663 Li618 1.990 . S
N663 C660 1.314 . S
N663 C661 1.279 . S
C664 C661 1.358 . S
C664 C665 1.356 . S
C664 H701 0.930 . S
C665 C662 1.348 . S
C665 C664 1.356 . S
H666 C660 0.930 . S
H667 C661 0.930 . S
C668 N669 1.314 1_554 S
C668 C670 1.353 . S
C668 H674 0.930 . S
N669 Li619 1.990 . S
N669 C668 1.314 1_556 S
N669 C672 1.279 . S
C670 C668 1.353 . S
C670 C673 1.350 1_554 S
C670 H702 0.929 . S
C671 C672 1.358 . S
C671 C673 1.354 . S
C671 H703 0.930 . S
C672 N669 1.279 . S
C672 C671 1.358 . S
C672 H675 0.930 . S
C673 C670 1.350 1_556 S
C673 C671 1.354 . S
H674 C668 0.930 . S
H675 C672 0.930 . S
O676 Li616 1.956 1_556 S
O676 Li617 1.970 1_556 S
O676 Li618 1.961 . S
O676 C620 1.325 . S
O677 Li616 1.970 . S
O677 Li617 1.956 . S
O677 Li619 1.961 1_554 S
O677 C626 1.325 . S
O678 Li616 1.961 . S
O678 Li618 1.956 1_554 S
O678 Li619 1.970 1_554 S
O678 C648 1.325 . S
O679 Li617 1.961 1_556 S
O679 Li618 1.970 . S
O679 Li619 1.956 . S
O679 C654 1.325 . S
H680 C622 0.929 . S
H681 C623 0.930 . S
H682 C624 0.930 . S
H683 C625 0.930 . S
H684 C627 0.930 . S
H685 C629 0.929 . S
H686 C630 0.930 . S
H687 C631 0.930 . S
H688 C634 0.930 . S
H689 C637 0.929 . S
H690 C642 0.929 . S
H691 C643 0.930 . S
H692 C650 0.929 . S
H693 C651 0.930 . S
H694 C652 0.930 . S
H695 C653 0.930 . S
H696 C655 0.929 . S
H697 C656 0.930 . S
H698 C657 0.930 . S
H699 C658 0.930 . S
H700 C662 0.929 . S
H701 C664 0.930 . S
H702 C670 0.929 . S
H703 C671 0.930 . S
Li704 N721 1.990 . S
Li704 O764 1.956 . S
Li704 O765 1.970 . S
Li704 O766 1.961 . S
Li705 N729 1.990 . S
Li705 O764 1.970 . S
Li705 O765 1.956 . S
Li705 O767 1.961 . S
Li706 N751 1.990 . S
Li706 O764 1.961 . S
Li706 O766 1.956 . S
Li706 O767 1.970 . S
Li707 N757 1.990 . S
Li707 O765 1.961 . S
Li707 O766 1.970 . S
Li707 O767 1.956 . S
C708 C710 1.348 . S
C708 C711 1.356 . S
C708 O764 1.325 . S
N709 C712 1.314 . S
N709 C713 1.279 . S
C710 C708 1.348 . S
C710 C712 1.353 . S
C710 H768 0.929 . S
C711 C708 1.356 . S
C711 C713 1.358 . S
C711 H769 0.930 . S
C712 N709 1.314 . S
C712 C710 1.353 . S
C712 H770 0.930 . S
C713 N709 1.279 . S
C713 C711 1.358 . S
C713 H771 0.930 . S
C714 C717 1.348 . S
C714 C718 1.356 . S
C714 O765 1.325 . S
C715 N716 1.279 . S
C715 C718 1.358 . S
C715 H772 0.930 . S
N716 C715 1.279 . S
N716 C719 1.314 . S
C717 C714 1.348 . S
C717 C719 1.353 . S
C717 H773 0.929 . S
C718 C714 1.356 . S
C718 C715 1.358 . S
C718 H774 0.930 . S
C719 N716 1.314 . S
C719 C717 1.353 . S
C719 H775 0.930 . S
C720 N721 1.314 . S
C720 C725 1.353 . S
C720 H726 0.930 . S
N721 Li704 1.990 . S
N721 C720 1.314 . S
N721 C723 1.279 . S
C722 C723 1.358 . S
C722 C724 1.356 . S
C722 H776 0.930 . S
C723 N721 1.279 . S
C723 C722 1.358 . S
C723 H727 0.930 . S
C724 C722 1.356 . S
C724 C725 1.348 . S
C725 C720 1.353 . S
C725 C724 1.348 . S
C725 H777 0.929 . S
H726 C720 0.930 . S
H727 C723 0.930 . S
C728 N729 1.314 . S
C728 C730 1.353 . S
C728 H734 0.930 . S
N729 Li705 1.990 . S
N729 C728 1.314 . S
N729 C732 1.279 . S
C730 C728 1.353 . S
C730 C733 1.348 . S
C730 H778 0.929 . S
C731 C732 1.358 . S
C731 C733 1.356 . S
C731 H779 0.930 . S
C732 N729 1.279 . S
C732 C731 1.358 . S
C732 H735 0.930 . S
C733 C730 1.348 . S
C733 C731 1.356 . S
H734 C728 0.930 . S
H735 C732 0.930 . S
C736 C738 1.348 . S
C736 C739 1.356 . S
C736 O766 1.325 . S
N737 C740 1.314 . S
N737 C741 1.279 . S
C738 C736 1.348 . S
C738 C740 1.353 . S
C738 H780 0.929 . S
C739 C736 1.356 . S
C739 C741 1.358 . S
C739 H781 0.930 . S
C740 N737 1.314 . S
C740 C738 1.353 . S
C740 H782 0.930 . S
C741 N737 1.279 . S
C741 C739 1.358 . S
C741 H783 0.930 . S
C742 C743 1.348 . S
C742 C744 1.356 . S
C742 O767 1.325 . S
C743 C742 1.348 . S
C743 C745 1.353 . S
C743 H784 0.929 . S
C744 C742 1.356 . S
C744 C746 1.358 . S
C744 H785 0.930 . S
C745 C743 1.353 . S
C745 N747 1.314 . S
C745 H786 0.930 . S
C746 C744 1.358 . S
C746 N747 1.279 . S
C746 H787 0.930 . S
N747 C745 1.314 . S
N747 C746 1.279 . S
C748 C750 1.353 . S
C748 N751 1.314 . S
C748 H754 0.930 . S
C749 N751 1.279 . S
C749 C752 1.358 . S
C749 H755 0.930 . S
C750 C748 1.353 . S
C750 C753 1.348 . S
C750 H788 0.929 . S
N751 Li706 1.990 . S
N751 C748 1.314 . S
N751 C749 1.279 . S
C752 C749 1.358 . S
C752 C753 1.356 . S
C752 H789 0.930 . S
C753 C750 1.348 . S
C753 C752 1.356 . S
H754 C748 0.930 . S
H755 C749 0.930 . S
C756 N757 1.314 . S
C756 C758 1.353 . S
C756 H762 0.930 . S
N757 Li707 1.990 . S
N757 C756 1.314 . S
N757 C760 1.279 . S
C758 C756 1.353 . S
C758 C761 1.348 . S
C758 H790 0.929 . S
C759 C760 1.358 . S
C759 C761 1.356 . S
C759 H791 0.930 . S
C760 N757 1.279 . S
C760 C759 1.358 . S
C760 H763 0.930 . S
C761 C758 1.348 . S
C761 C759 1.356 . S
H762 C756 0.930 . S
H763 C760 0.930 . S
O764 Li704 1.956 . S
O764 Li705 1.970 . S
O764 Li706 1.961 . S
O764 C708 1.325 . S
O765 Li704 1.970 . S
O765 Li705 1.956 . S
O765 Li707 1.961 . S
O765 C714 1.325 . S
O766 Li704 1.961 . S
O766 Li706 1.956 . S
O766 Li707 1.970 . S
O766 C736 1.325 . S
O767 Li705 1.961 . S
O767 Li706 1.970 . S
O767 Li707 1.956 . S
O767 C742 1.325 . S
H768 C710 0.929 . S
H769 C711 0.930 . S
H770 C712 0.930 . S
H771 C713 0.930 . S
H772 C715 0.930 . S
H773 C717 0.929 . S
H774 C718 0.930 . S
H775 C719 0.930 . S
H776 C722 0.930 . S
H777 C725 0.929 . S
H778 C730 0.929 . S
H779 C731 0.930 . S
H780 C738 0.929 . S
H781 C739 0.930 . S
H782 C740 0.930 . S
H783 C741 0.930 . S
H784 C743 0.929 . S
H785 C744 0.930 . S
H786 C745 0.930 . S
H787 C746 0.930 . S
H788 C750 0.929 . S
H789 C752 0.930 . S
H790 C758 0.929 . S
H791 C759 0.930 . S
Li792 N809 1.990 . S
Li792 O852 1.956 . S
Li792 O853 1.970 . S
Li792 O854 1.961 . S
Li793 N817 1.990 . S
Li793 O852 1.970 . S
Li793 O853 1.956 . S
Li793 O855 1.961 . S
Li794 N839 1.990 . S
Li794 O852 1.961 . S
Li794 O854 1.956 . S
Li794 O855 1.970 . S
Li795 N845 1.990 . S
Li795 O853 1.961 . S
Li795 O854 1.970 . S
Li795 O855 1.956 . S
C796 C798 1.348 . S
C796 C799 1.356 . S
C796 O852 1.325 . S
N797 C800 1.314 . S
N797 C801 1.279 . S
C798 C796 1.348 . S
C798 C800 1.353 . S
C798 H856 0.929 . S
C799 C796 1.356 . S
C799 C801 1.358 . S
C799 H857 0.930 . S
C800 N797 1.314 . S
C800 C798 1.353 . S
C800 H858 0.930 . S
C801 N797 1.279 . S
C801 C799 1.358 . S
C801 H859 0.930 . S
C802 C805 1.348 . S
C802 C806 1.356 . S
C802 O853 1.325 . S
C803 N804 1.279 . S
C803 C806 1.358 . S
C803 H860 0.930 . S
N804 C803 1.279 . S
N804 C807 1.314 . S
C805 C802 1.348 . S
C805 C807 1.353 . S
C805 H861 0.929 . S
C806 C802 1.356 . S
C806 C803 1.358 . S
C806 H862 0.930 . S
C807 N804 1.314 . S
C807 C805 1.353 . S
C807 H863 0.930 . S
C808 N809 1.314 . S
C808 C813 1.353 . S
C808 H814 0.930 . S
N809 Li792 1.990 . S
N809 C808 1.314 . S
N809 C811 1.279 . S
C810 C811 1.358 . S
C810 C812 1.356 . S
C810 H864 0.930 . S
C811 N809 1.279 . S
C811 C810 1.358 . S
C811 H815 0.930 . S
C812 C810 1.356 . S
C812 C813 1.348 . S
C813 C808 1.353 . S
C813 C812 1.348 . S
C813 H865 0.929 . S
H814 C808 0.930 . S
H815 C811 0.930 . S
C816 N817 1.314 . S
C816 C818 1.353 . S
C816 H822 0.930 . S
N817 Li793 1.990 . S
N817 C816 1.314 . S
N817 C820 1.279 . S
C818 C816 1.353 . S
C818 C821 1.348 . S
C818 H866 0.929 . S
C819 C820 1.358 . S
C819 C821 1.356 . S
C819 H867 0.930 . S
C820 N817 1.279 . S
C820 C819 1.358 . S
C820 H823 0.930 . S
C821 C818 1.348 . S
C821 C819 1.356 . S
H822 C816 0.930 . S
H823 C820 0.930 . S
C824 C826 1.348 . S
C824 C827 1.356 . S
C824 O854 1.325 . S
N825 C828 1.314 . S
N825 C829 1.279 . S
C826 C824 1.348 . S
C826 C828 1.353 . S
C826 H868 0.929 . S
C827 C824 1.356 . S
C827 C829 1.358 . S
C827 H869 0.930 . S
C828 N825 1.314 . S
C828 C826 1.353 . S
C828 H870 0.930 . S
C829 N825 1.279 . S
C829 C827 1.358 . S
C829 H871 0.930 . S
C830 C831 1.348 . S
C830 C832 1.356 . S
C830 O855 1.325 . S
C831 C830 1.348 . S
C831 C833 1.353 . S
C831 H872 0.929 . S
C832 C830 1.356 . S
C832 C834 1.358 . S
C832 H873 0.930 . S
C833 C831 1.353 . S
C833 N835 1.314 . S
C833 H874 0.930 . S
C834 C832 1.358 . S
C834 N835 1.279 . S
C834 H875 0.930 . S
N835 C833 1.314 . S
N835 C834 1.279 . S
C836 C838 1.353 . S
C836 N839 1.314 . S
C836 H842 0.930 . S
C837 N839 1.279 . S
C837 C840 1.358 . S
C837 H843 0.930 . S
C838 C836 1.353 . S
C838 C841 1.348 . S
C838 H876 0.929 . S
N839 Li794 1.990 . S
N839 C836 1.314 . S
N839 C837 1.279 . S
C840 C837 1.358 . S
C840 C841 1.356 . S
C840 H877 0.930 . S
C841 C838 1.348 . S
C841 C840 1.356 . S
H842 C836 0.930 . S
H843 C837 0.930 . S
C844 N845 1.314 . S
C844 C846 1.353 . S
C844 H850 0.930 . S
N845 Li795 1.990 . S
N845 C844 1.314 . S
N845 C848 1.279 . S
C846 C844 1.353 . S
C846 C849 1.348 . S
C846 H878 0.929 . S
C847 C848 1.358 . S
C847 C849 1.356 . S
C847 H879 0.930 . S
C848 N845 1.279 . S
C848 C847 1.358 . S
C848 H851 0.930 . S
C849 C846 1.348 . S
C849 C847 1.356 . S
H850 C844 0.930 . S
H851 C848 0.930 . S
O852 Li792 1.956 . S
O852 Li793 1.970 . S
O852 Li794 1.961 . S
O852 C796 1.325 . S
O853 Li792 1.970 . S
O853 Li793 1.956 . S
O853 Li795 1.961 . S
O853 C802 1.325 . S
O854 Li792 1.961 . S
O854 Li794 1.956 . S
O854 Li795 1.970 . S
O854 C824 1.325 . S
O855 Li793 1.961 . S
O855 Li794 1.970 . S
O855 Li795 1.956 . S
O855 C830 1.325 . S
H856 C798 0.929 . S
H857 C799 0.930 . S
H858 C800 0.930 . S
H859 C801 0.930 . S
H860 C803 0.930 . S
H861 C805 0.929 . S
H862 C806 0.930 . S
H863 C807 0.930 . S
H864 C810 0.930 . S
H865 C813 0.929 . S
H866 C818 0.929 . S
H867 C819 0.930 . S
H868 C826 0.929 . S
H869 C827 0.930 . S
H870 C828 0.930 . S
H871 C829 0.930 . S
H872 C831 0.929 . S
H873 C832 0.930 . S
H874 C833 0.930 . S
H875 C834 0.930 . S
H876 C838 0.929 . S
H877 C840 0.930 . S
H878 C846 0.929 . S
H879 C847 0.930 . S
Li880 N897 1.990 . S
Li880 O940 1.956 . S
Li880 O941 1.970 . S
Li880 O942 1.961 . S
Li881 N905 1.990 . S
Li881 O940 1.970 . S
Li881 O941 1.956 . S
Li881 O943 1.961 . S
Li882 N927 1.990 . S
Li882 O940 1.961 . S
Li882 O942 1.956 . S
Li882 O943 1.970 . S
Li883 N933 1.990 . S
Li883 O941 1.961 . S
Li883 O942 1.970 . S
Li883 O943 1.956 . S
C884 C886 1.348 . S
C884 C887 1.356 . S
C884 O940 1.325 . S
N885 C888 1.314 . S
N885 C889 1.279 . S
C886 C884 1.348 . S
C886 C888 1.353 . S
C886 H944 0.929 . S
C887 C884 1.356 . S
C887 C889 1.358 . S
C887 H945 0.930 . S
C888 N885 1.314 . S
C888 C886 1.353 . S
C888 H946 0.930 . S
C889 N885 1.279 . S
C889 C887 1.358 . S
C889 H947 0.930 . S
C890 C893 1.348 . S
C890 C894 1.356 . S
C890 O941 1.325 . S
C891 N892 1.279 . S
C891 C894 1.358 . S
C891 H948 0.930 . S
N892 C891 1.279 . S
N892 C895 1.314 . S
C893 C890 1.348 . S
C893 C895 1.353 . S
C893 H949 0.929 . S
C894 C890 1.356 . S
C894 C891 1.358 . S
C894 H950 0.930 . S
C895 N892 1.314 . S
C895 C893 1.353 . S
C895 H951 0.930 . S
C896 N897 1.314 . S
C896 C901 1.353 . S
C896 H902 0.930 . S
N897 Li880 1.990 . S
N897 C896 1.314 . S
N897 C899 1.279 . S
C898 C899 1.358 . S
C898 C900 1.356 . S
C898 H952 0.930 . S
C899 N897 1.279 . S
C899 C898 1.358 . S
C899 H903 0.930 . S
C900 C898 1.356 . S
C900 C901 1.348 . S
C901 C896 1.353 . S
C901 C900 1.348 . S
C901 H953 0.929 . S
H902 C896 0.930 . S
H903 C899 0.930 . S
C904 N905 1.314 . S
C904 C906 1.353 . S
C904 H910 0.930 . S
N905 Li881 1.990 . S
N905 C904 1.314 . S
N905 C908 1.279 . S
C906 C904 1.353 . S
C906 C909 1.348 . S
C906 H954 0.929 . S
C907 C908 1.358 . S
C907 C909 1.356 . S
C907 H955 0.930 . S
C908 N905 1.279 . S
C908 C907 1.358 . S
C908 H911 0.930 . S
C909 C906 1.348 . S
C909 C907 1.356 . S
H910 C904 0.930 . S
H911 C908 0.930 . S
C912 C914 1.348 . S
C912 C915 1.356 . S
C912 O942 1.325 . S
N913 C916 1.314 . S
N913 C917 1.279 . S
C914 C912 1.348 . S
C914 C916 1.353 . S
C914 H956 0.929 . S
C915 C912 1.356 . S
C915 C917 1.358 . S
C915 H957 0.930 . S
C916 N913 1.314 . S
C916 C914 1.353 . S
C916 H958 0.930 . S
C917 N913 1.279 . S
C917 C915 1.358 . S
C917 H959 0.930 . S
C918 C919 1.348 . S
C918 C920 1.356 . S
C918 O943 1.325 . S
C919 C918 1.348 . S
C919 C921 1.353 . S
C919 H960 0.929 . S
C920 C918 1.356 . S
C920 C922 1.358 . S
C920 H961 0.930 . S
C921 C919 1.353 . S
C921 N923 1.314 . S
C921 H962 0.930 . S
C922 C920 1.358 . S
C922 N923 1.279 . S
C922 H963 0.930 . S
N923 C921 1.314 . S
N923 C922 1.279 . S
C924 C926 1.353 . S
C924 N927 1.314 . S
C924 H930 0.930 . S
C925 N927 1.279 . S
C925 C928 1.358 . S
C925 H931 0.930 . S
C926 C924 1.353 . S
C926 C929 1.348 . S
C926 H964 0.929 . S
N927 Li882 1.990 . S
N927 C924 1.314 . S
N927 C925 1.279 . S
C928 C925 1.358 . S
C928 C929 1.356 . S
C928 H965 0.930 . S
C929 C926 1.348 . S
C929 C928 1.356 . S
H930 C924 0.930 . S
H931 C925 0.930 . S
C932 N933 1.314 . S
C932 C934 1.353 . S
C932 H938 0.930 . S
N933 Li883 1.990 . S
N933 C932 1.314 . S
N933 C936 1.279 . S
C934 C932 1.353 . S
C934 C937 1.348 . S
C934 H966 0.929 . S
C935 C936 1.358 . S
C935 C937 1.356 . S
C935 H967 0.930 . S
C936 N933 1.279 . S
C936 C935 1.358 . S
C936 H939 0.930 . S
C937 C934 1.348 . S
C937 C935 1.356 . S
H938 C932 0.930 . S
H939 C936 0.930 . S
O940 Li880 1.956 . S
O940 Li881 1.970 . S
O940 Li882 1.961 . S
O940 C884 1.325 . S
O941 Li880 1.970 . S
O941 Li881 1.956 . S
O941 Li883 1.961 . S
O941 C890 1.325 . S
O942 Li880 1.961 . S
O942 Li882 1.956 . S
O942 Li883 1.970 . S
O942 C912 1.325 . S
O943 Li881 1.961 . S
O943 Li882 1.970 . S
O943 Li883 1.956 . S
O943 C918 1.325 . S
H944 C886 0.929 . S
H945 C887 0.930 . S
H946 C888 0.930 . S
H947 C889 0.930 . S
H948 C891 0.930 . S
H949 C893 0.929 . S
H950 C894 0.930 . S
H951 C895 0.930 . S
H952 C898 0.930 . S
H953 C901 0.929 . S
H954 C906 0.929 . S
H955 C907 0.930 . S
H956 C914 0.929 . S
H957 C915 0.930 . S
H958 C916 0.930 . S
H959 C917 0.930 . S
H960 C919 0.929 . S
H961 C920 0.930 . S
H962 C921 0.930 . S
H963 C922 0.930 . S
H964 C926 0.929 . S
H965 C928 0.930 . S
H966 C934 0.929 . S
H967 C935 0.930 . S
Li968 N985 1.990 . S
Li968 O1028 1.956 . S
Li968 O1029 1.970 . S
Li968 O1030 1.961 . S
Li969 N993 1.990 . S
Li969 O1028 1.970 . S
Li969 O1029 1.956 . S
Li969 O1031 1.961 . S
Li970 N1015 1.990 . S
Li970 O1028 1.961 . S
Li970 O1030 1.956 . S
Li970 O1031 1.970 . S
Li971 N1021 1.990 . S
Li971 O1029 1.961 . S
Li971 O1030 1.970 . S
Li971 O1031 1.956 . S
C972 C974 1.348 . S
C972 C975 1.356 . S
C972 O1028 1.325 . S
N973 C976 1.314 . S
N973 C977 1.279 . S
C974 C972 1.348 . S
C974 C976 1.353 . S
C974 H1032 0.929 . S
C975 C972 1.356 . S
C975 C977 1.358 . S
C975 H1033 0.930 . S
C976 N973 1.314 . S
C976 C974 1.353 . S
C976 H1034 0.930 . S
C977 N973 1.279 . S
C977 C975 1.358 . S
C977 H1035 0.930 . S
C978 C981 1.348 . S
C978 C982 1.356 . S
C978 O1029 1.325 . S
C979 N980 1.279 . S
C979 C982 1.358 . S
C979 H1036 0.930 . S
N980 C979 1.279 . S
N980 C983 1.314 . S
C981 C978 1.348 . S
C981 C983 1.353 . S
C981 H1037 0.929 . S
C982 C978 1.356 . S
C982 C979 1.358 . S
C982 H1038 0.930 . S
C983 N980 1.314 . S
C983 C981 1.353 . S
C983 H1039 0.930 . S
C984 N985 1.314 . S
C984 C989 1.353 . S
C984 H990 0.930 . S
N985 Li968 1.990 . S
N985 C984 1.314 . S
N985 C987 1.279 . S
C986 C987 1.358 . S
C986 C988 1.356 . S
C986 H1040 0.930 . S
C987 N985 1.279 . S
C987 C986 1.358 . S
C987 H991 0.930 . S
C988 C986 1.356 . S
C988 C989 1.348 . S
C989 C984 1.353 . S
C989 C988 1.348 . S
C989 H1041 0.929 . S
H990 C984 0.930 . S
H991 C987 0.930 . S
C992 N993 1.314 . S
C992 C994 1.353 . S
C992 H998 0.930 . S
N993 Li969 1.990 . S
N993 C992 1.314 . S
N993 C996 1.279 . S
C994 C992 1.353 . S
C994 C997 1.348 . S
C994 H1042 0.929 . S
C995 C996 1.358 . S
C995 C997 1.356 . S
C995 H1043 0.930 . S
C996 N993 1.279 . S
C996 C995 1.358 . S
C996 H999 0.930 . S
C997 C994 1.348 . S
C997 C995 1.356 . S
H998 C992 0.930 . S
H999 C996 0.930 . S
C1000 C1002 1.348 . S
C1000 C1003 1.356 . S
C1000 O1030 1.325 . S
N1001 C1004 1.314 . S
N1001 C1005 1.279 . S
C1002 C1000 1.348 . S
C1002 C1004 1.353 . S
C1002 H1044 0.929 . S
C1003 C1000 1.356 . S
C1003 C1005 1.358 . S
C1003 H1045 0.930 . S
C1004 N1001 1.314 . S
C1004 C1002 1.353 . S
C1004 H1046 0.930 . S
C1005 N1001 1.279 . S
C1005 C1003 1.358 . S
C1005 H1047 0.930 . S
C1006 C1007 1.348 . S
C1006 C1008 1.356 . S
C1006 O1031 1.325 . S
C1007 C1006 1.348 . S
C1007 C1009 1.353 . S
C1007 H1048 0.929 . S
C1008 C1006 1.356 . S
C1008 C1010 1.358 . S
C1008 H1049 0.930 . S
C1009 C1007 1.353 . S
C1009 N1011 1.314 . S
C1009 H1050 0.930 . S
C1010 C1008 1.358 . S
C1010 N1011 1.279 . S
C1010 H1051 0.930 . S
N1011 C1009 1.314 . S
N1011 C1010 1.279 . S
C1012 C1014 1.353 . S
C1012 N1015 1.314 . S
C1012 H1018 0.930 . S
C1013 N1015 1.279 . S
C1013 C1016 1.358 . S
C1013 H1019 0.930 . S
C1014 C1012 1.353 . S
C1014 C1017 1.348 . S
C1014 H1052 0.929 . S
N1015 Li970 1.990 . S
N1015 C1012 1.314 . S
N1015 C1013 1.279 . S
C1016 C1013 1.358 . S
C1016 C1017 1.356 . S
C1016 H1053 0.930 . S
C1017 C1014 1.348 . S
C1017 C1016 1.356 . S
H1018 C1012 0.930 . S
H1019 C1013 0.930 . S
C1020 N1021 1.314 . S
C1020 C1022 1.353 . S
C1020 H1026 0.930 . S
N1021 Li971 1.990 . S
N1021 C1020 1.314 . S
N1021 C1024 1.279 . S
C1022 C1020 1.353 . S
C1022 C1025 1.348 . S
C1022 H1054 0.929 . S
C1023 C1024 1.358 . S
C1023 C1025 1.356 . S
C1023 H1055 0.930 . S
C1024 N1021 1.279 . S
C1024 C1023 1.358 . S
C1024 H1027 0.930 . S
C1025 C1022 1.348 . S
C1025 C1023 1.356 . S
H1026 C1020 0.930 . S
H1027 C1024 0.930 . S
O1028 Li968 1.956 . S
O1028 Li969 1.970 . S
O1028 Li970 1.961 . S
O1028 C972 1.325 . S
O1029 Li968 1.970 . S
O1029 Li969 1.956 . S
O1029 Li971 1.961 . S
O1029 C978 1.325 . S
O1030 Li968 1.961 . S
O1030 Li970 1.956 . S
O1030 Li971 1.970 . S
O1030 C1000 1.325 . S
O1031 Li969 1.961 . S
O1031 Li970 1.970 . S
O1031 Li971 1.956 . S
O1031 C1006 1.325 . S
H1032 C974 0.929 . S
H1033 C975 0.930 . S
H1034 C976 0.930 . S
H1035 C977 0.930 . S
H1036 C979 0.930 . S
H1037 C981 0.929 . S
H1038 C982 0.930 . S
H1039 C983 0.930 . S
H1040 C986 0.930 . S
H1041 C989 0.929 . S
H1042 C994 0.929 . S
H1043 C995 0.930 . S
H1044 C1002 0.929 . S
H1045 C1003 0.930 . S
H1046 C1004 0.930 . S
H1047 C1005 0.930 . S
H1048 C1007 0.929 . S
H1049 C1008 0.930 . S
H1050 C1009 0.930 . S
H1051 C1010 0.930 . S
H1052 C1014 0.929 . S
H1053 C1016 0.930 . S
H1054 C1022 0.929 . S
H1055 C1023 0.930 . S
Li1056 N1073 1.990 . S
Li1056 O1116 1.956 . S
Li1056 O1117 1.970 . S
Li1056 O1118 1.961 . S
Li1057 N1081 1.990 . S
Li1057 O1116 1.970 . S
Li1057 O1117 1.956 . S
Li1057 O1119 1.961 . S
Li1058 N1103 1.990 . S
Li1058 O1116 1.961 . S
Li1058 O1118 1.956 . S
Li1058 O1119 1.970 . S
Li1059 N1109 1.990 . S
Li1059 O1117 1.961 . S
Li1059 O1118 1.970 . S
Li1059 O1119 1.956 . S
C1060 C1062 1.348 . S
C1060 C1063 1.356 . S
C1060 O1116 1.325 . S
N1061 C1064 1.314 . S
N1061 C1065 1.279 . S
C1062 C1060 1.348 . S
C1062 C1064 1.353 . S
C1062 H1120 0.929 . S
C1063 C1060 1.356 . S
C1063 C1065 1.358 . S
C1063 H1121 0.930 . S
C1064 N1061 1.314 . S
C1064 C1062 1.353 . S
C1064 H1122 0.930 . S
C1065 N1061 1.279 . S
C1065 C1063 1.358 . S
C1065 H1123 0.930 . S
C1066 C1069 1.348 . S
C1066 C1070 1.356 . S
C1066 O1117 1.325 . S
C1067 N1068 1.279 . S
C1067 C1070 1.358 . S
C1067 H1124 0.930 . S
N1068 C1067 1.279 . S
N1068 C1071 1.314 . S
C1069 C1066 1.348 . S
C1069 C1071 1.353 . S
C1069 H1125 0.929 . S
C1070 C1066 1.356 . S
C1070 C1067 1.358 . S
C1070 H1126 0.930 . S
C1071 N1068 1.314 . S
C1071 C1069 1.353 . S
C1071 H1127 0.930 . S
C1072 N1073 1.314 . S
C1072 C1077 1.353 . S
C1072 H1078 0.930 . S
N1073 Li1056 1.990 . S
N1073 C1072 1.314 . S
N1073 C1075 1.279 . S
C1074 C1075 1.358 . S
C1074 C1076 1.356 . S
C1074 H1128 0.930 . S
C1075 N1073 1.279 . S
C1075 C1074 1.358 . S
C1075 H1079 0.930 . S
C1076 C1074 1.356 . S
C1076 C1077 1.348 . S
C1077 C1072 1.353 . S
C1077 C1076 1.348 . S
C1077 H1129 0.929 . S
H1078 C1072 0.930 . S
H1079 C1075 0.930 . S
C1080 N1081 1.314 . S
C1080 C1082 1.353 . S
C1080 H1086 0.930 . S
N1081 Li1057 1.990 . S
N1081 C1080 1.314 . S
N1081 C1084 1.279 . S
C1082 C1080 1.353 . S
C1082 C1085 1.348 . S
C1082 H1130 0.929 . S
C1083 C1084 1.358 . S
C1083 C1085 1.356 . S
C1083 H1131 0.930 . S
C1084 N1081 1.279 . S
C1084 C1083 1.358 . S
C1084 H1087 0.930 . S
C1085 C1082 1.348 . S
C1085 C1083 1.356 . S
H1086 C1080 0.930 . S
H1087 C1084 0.930 . S
C1088 C1090 1.348 . S
C1088 C1091 1.356 . S
C1088 O1118 1.325 . S
N1089 C1092 1.314 . S
N1089 C1093 1.279 . S
C1090 C1088 1.348 . S
C1090 C1092 1.353 . S
C1090 H1132 0.929 . S
C1091 C1088 1.356 . S
C1091 C1093 1.358 . S
C1091 H1133 0.930 . S
C1092 N1089 1.314 . S
C1092 C1090 1.353 . S
C1092 H1134 0.930 . S
C1093 N1089 1.279 . S
C1093 C1091 1.358 . S
C1093 H1135 0.930 . S
C1094 C1095 1.348 . S
C1094 C1096 1.356 . S
C1094 O1119 1.325 . S
C1095 C1094 1.348 . S
C1095 C1097 1.353 . S
C1095 H1136 0.929 . S
C1096 C1094 1.356 . S
C1096 C1098 1.358 . S
C1096 H1137 0.930 . S
C1097 C1095 1.353 . S
C1097 N1099 1.314 . S
C1097 H1138 0.930 . S
C1098 C1096 1.358 . S
C1098 N1099 1.279 . S
C1098 H1139 0.930 . S
N1099 C1097 1.314 . S
N1099 C1098 1.279 . S
C1100 C1102 1.353 . S
C1100 N1103 1.314 . S
C1100 H1106 0.930 . S
C1101 N1103 1.279 . S
C1101 C1104 1.358 . S
C1101 H1107 0.930 . S
C1102 C1100 1.353 . S
C1102 C1105 1.348 . S
C1102 H1140 0.929 . S
N1103 Li1058 1.990 . S
N1103 C1100 1.314 . S
N1103 C1101 1.279 . S
C1104 C1101 1.358 . S
C1104 C1105 1.356 . S
C1104 H1141 0.930 . S
C1105 C1102 1.348 . S
C1105 C1104 1.356 . S
H1106 C1100 0.930 . S
H1107 C1101 0.930 . S
C1108 N1109 1.314 . S
C1108 C1110 1.353 . S
C1108 H1114 0.930 . S
N1109 Li1059 1.990 . S
N1109 C1108 1.314 . S
N1109 C1112 1.279 . S
C1110 C1108 1.353 . S
C1110 C1113 1.348 . S
C1110 H1142 0.929 . S
C1111 C1112 1.358 . S
C1111 C1113 1.356 . S
C1111 H1143 0.930 . S
C1112 N1109 1.279 . S
C1112 C1111 1.358 . S
C1112 H1115 0.930 . S
C1113 C1110 1.348 . S
C1113 C1111 1.356 . S
H1114 C1108 0.930 . S
H1115 C1112 0.930 . S
O1116 Li1056 1.956 . S
O1116 Li1057 1.970 . S
O1116 Li1058 1.961 . S
O1116 C1060 1.325 . S
O1117 Li1056 1.970 . S
O1117 Li1057 1.956 . S
O1117 Li1059 1.961 . S
O1117 C1066 1.325 . S
O1118 Li1056 1.961 . S
O1118 Li1058 1.956 . S
O1118 Li1059 1.970 . S
O1118 C1088 1.325 . S
O1119 Li1057 1.961 . S
O1119 Li1058 1.970 . S
O1119 Li1059 1.956 . S
O1119 C1094 1.325 . S
H1120 C1062 0.929 . S
H1121 C1063 0.930 . S
H1122 C1064 0.930 . S
H1123 C1065 0.930 . S
H1124 C1067 0.930 . S
H1125 C1069 0.929 . S
H1126 C1070 0.930 . S
H1127 C1071 0.930 . S
H1128 C1074 0.930 . S
H1129 C1077 0.929 . S
H1130 C1082 0.929 . S
H1131 C1083 0.930 . S
H1132 C1090 0.929 . S
H1133 C1091 0.930 . S
H1134 C1092 0.930 . S
H1135 C1093 0.930 . S
H1136 C1095 0.929 . S
H1137 C1096 0.930 . S
H1138 C1097 0.930 . S
H1139 C1098 0.930 . S
H1140 C1102 0.929 . S
H1141 C1104 0.930 . S
H1142 C1110 0.929 . S
H1143 C1111 0.930 . S
Li1144 N1161 1.990 . S
Li1144 O1204 1.956 . S
Li1144 O1205 1.970 . S
Li1144 O1206 1.961 . S
Li1145 N1169 1.990 . S
Li1145 O1204 1.970 . S
Li1145 O1205 1.956 . S
Li1145 O1207 1.961 . S
Li1146 N1191 1.990 . S
Li1146 O1204 1.961 . S
Li1146 O1206 1.956 . S
Li1146 O1207 1.970 . S
Li1147 N1197 1.990 . S
Li1147 O1205 1.961 . S
Li1147 O1206 1.970 . S
Li1147 O1207 1.956 . S
C1148 C1150 1.348 . S
C1148 C1151 1.356 . S
C1148 O1204 1.325 . S
N1149 C1152 1.314 . S
N1149 C1153 1.279 . S
C1150 C1148 1.348 . S
C1150 C1152 1.353 . S
C1150 H1208 0.929 . S
C1151 C1148 1.356 . S
C1151 C1153 1.358 . S
C1151 H1209 0.930 . S
C1152 N1149 1.314 . S
C1152 C1150 1.353 . S
C1152 H1210 0.930 . S
C1153 N1149 1.279 . S
C1153 C1151 1.358 . S
C1153 H1211 0.930 . S
C1154 C1157 1.348 . S
C1154 C1158 1.356 . S
C1154 O1205 1.325 . S
C1155 N1156 1.279 . S
C1155 C1158 1.358 . S
C1155 H1212 0.930 . S
N1156 C1155 1.279 . S
N1156 C1159 1.314 . S
C1157 C1154 1.348 . S
C1157 C1159 1.353 . S
C1157 H1213 0.929 . S
C1158 C1154 1.356 . S
C1158 C1155 1.358 . S
C1158 H1214 0.930 . S
C1159 N1156 1.314 . S
C1159 C1157 1.353 . S
C1159 H1215 0.930 . S
C1160 N1161 1.314 . S
C1160 C1165 1.353 . S
C1160 H1166 0.930 . S
N1161 Li1144 1.990 . S
N1161 C1160 1.314 . S
N1161 C1163 1.279 . S
C1162 C1163 1.358 . S
C1162 C1164 1.356 . S
C1162 H1216 0.930 . S
C1163 N1161 1.279 . S
C1163 C1162 1.358 . S
C1163 H1167 0.930 . S
C1164 C1162 1.356 . S
C1164 C1165 1.348 . S
C1165 C1160 1.353 . S
C1165 C1164 1.348 . S
C1165 H1217 0.929 . S
H1166 C1160 0.930 . S
H1167 C1163 0.930 . S
C1168 N1169 1.314 . S
C1168 C1170 1.353 . S
C1168 H1174 0.930 . S
N1169 Li1145 1.990 . S
N1169 C1168 1.314 . S
N1169 C1172 1.279 . S
C1170 C1168 1.353 . S
C1170 C1173 1.348 . S
C1170 H1218 0.929 . S
C1171 C1172 1.358 . S
C1171 C1173 1.356 . S
C1171 H1219 0.930 . S
C1172 N1169 1.279 . S
C1172 C1171 1.358 . S
C1172 H1175 0.930 . S
C1173 C1170 1.348 . S
C1173 C1171 1.356 . S
H1174 C1168 0.930 . S
H1175 C1172 0.930 . S
C1176 C1178 1.348 . S
C1176 C1179 1.356 . S
C1176 O1206 1.325 . S
N1177 C1180 1.314 . S
N1177 C1181 1.279 . S
C1178 C1176 1.348 . S
C1178 C1180 1.353 . S
C1178 H1220 0.929 . S
C1179 C1176 1.356 . S
C1179 C1181 1.358 . S
C1179 H1221 0.930 . S
C1180 N1177 1.314 . S
C1180 C1178 1.353 . S
C1180 H1222 0.930 . S
C1181 N1177 1.279 . S
C1181 C1179 1.358 . S
C1181 H1223 0.930 . S
C1182 C1183 1.348 . S
C1182 C1184 1.356 . S
C1182 O1207 1.325 . S
C1183 C1182 1.348 . S
C1183 C1185 1.353 . S
C1183 H1224 0.929 . S
C1184 C1182 1.356 . S
C1184 C1186 1.358 . S
C1184 H1225 0.930 . S
C1185 C1183 1.353 . S
C1185 N1187 1.314 . S
C1185 H1226 0.930 . S
C1186 C1184 1.358 . S
C1186 N1187 1.279 . S
C1186 H1227 0.930 . S
N1187 C1185 1.314 . S
N1187 C1186 1.279 . S
C1188 C1190 1.353 . S
C1188 N1191 1.314 . S
C1188 H1194 0.930 . S
C1189 N1191 1.279 . S
C1189 C1192 1.358 . S
C1189 H1195 0.930 . S
C1190 C1188 1.353 . S
C1190 C1193 1.348 . S
C1190 H1228 0.929 . S
N1191 Li1146 1.990 . S
N1191 C1188 1.314 . S
N1191 C1189 1.279 . S
C1192 C1189 1.358 . S
C1192 C1193 1.356 . S
C1192 H1229 0.930 . S
C1193 C1190 1.348 . S
C1193 C1192 1.356 . S
H1194 C1188 0.930 . S
H1195 C1189 0.930 . S
C1196 N1197 1.314 . S
C1196 C1198 1.353 . S
C1196 H1202 0.930 . S
N1197 Li1147 1.990 . S
N1197 C1196 1.314 . S
N1197 C1200 1.279 . S
C1198 C1196 1.353 . S
C1198 C1201 1.348 . S
C1198 H1230 0.929 . S
C1199 C1200 1.358 . S
C1199 C1201 1.356 . S
C1199 H1231 0.930 . S
C1200 N1197 1.279 . S
C1200 C1199 1.358 . S
C1200 H1203 0.930 . S
C1201 C1198 1.348 . S
C1201 C1199 1.356 . S
H1202 C1196 0.930 . S
H1203 C1200 0.930 . S
O1204 Li1144 1.956 . S
O1204 Li1145 1.970 . S
O1204 Li1146 1.961 . S
O1204 C1148 1.325 . S
O1205 Li1144 1.970 . S
O1205 Li1145 1.956 . S
O1205 Li1147 1.961 . S
O1205 C1154 1.325 . S
O1206 Li1144 1.961 . S
O1206 Li1146 1.956 . S
O1206 Li1147 1.970 . S
O1206 C1176 1.325 . S
O1207 Li1145 1.961 . S
O1207 Li1146 1.970 . S
O1207 Li1147 1.956 . S
O1207 C1182 1.325 . S
H1208 C1150 0.929 . S
H1209 C1151 0.930 . S
H1210 C1152 0.930 . S
H1211 C1153 0.930 . S
H1212 C1155 0.930 . S
H1213 C1157 0.929 . S
H1214 C1158 0.930 . S
H1215 C1159 0.930 . S
H1216 C1162 0.930 . S
H1217 C1165 0.929 . S
H1218 C1170 0.929 . S
H1219 C1171 0.930 . S
H1220 C1178 0.929 . S
H1221 C1179 0.930 . S
H1222 C1180 0.930 . S
H1223 C1181 0.930 . S
H1224 C1183 0.929 . S
H1225 C1184 0.930 . S
H1226 C1185 0.930 . S
H1227 C1186 0.930 . S
H1228 C1190 0.929 . S
H1229 C1192 0.930 . S
H1230 C1198 0.929 . S
H1231 C1199 0.930 . S
Li1232 N1249 1.990 . S
Li1232 O1292 1.956 . S
Li1232 O1293 1.970 . S
Li1232 O1294 1.961 . S
Li1233 N1257 1.990 . S
Li1233 O1292 1.970 . S
Li1233 O1293 1.956 . S
Li1233 O1295 1.961 . S
Li1234 N1279 1.990 . S
Li1234 O1292 1.961 . S
Li1234 O1294 1.956 . S
Li1234 O1295 1.970 . S
Li1235 N1285 1.990 . S
Li1235 O1293 1.961 . S
Li1235 O1294 1.970 . S
Li1235 O1295 1.956 . S
C1236 C1238 1.348 . S
C1236 C1239 1.356 . S
C1236 O1292 1.325 . S
N1237 C1240 1.314 . S
N1237 C1241 1.279 . S
C1238 C1236 1.348 . S
C1238 C1240 1.353 . S
C1238 H1296 0.929 . S
C1239 C1236 1.356 . S
C1239 C1241 1.358 . S
C1239 H1297 0.930 . S
C1240 N1237 1.314 . S
C1240 C1238 1.353 . S
C1240 H1298 0.930 . S
C1241 N1237 1.279 . S
C1241 C1239 1.358 . S
C1241 H1299 0.930 . S
C1242 C1245 1.348 . S
C1242 C1246 1.356 . S
C1242 O1293 1.325 . S
C1243 N1244 1.279 . S
C1243 C1246 1.358 . S
C1243 H1300 0.930 . S
N1244 C1243 1.279 . S
N1244 C1247 1.314 . S
C1245 C1242 1.348 . S
C1245 C1247 1.353 . S
C1245 H1301 0.929 . S
C1246 C1242 1.356 . S
C1246 C1243 1.358 . S
C1246 H1302 0.930 . S
C1247 N1244 1.314 . S
C1247 C1245 1.353 . S
C1247 H1303 0.930 . S
C1248 N1249 1.314 . S
C1248 C1253 1.353 . S
C1248 H1254 0.930 . S
N1249 Li1232 1.990 . S
N1249 C1248 1.314 . S
N1249 C1251 1.279 . S
C1250 C1251 1.358 . S
C1250 C1252 1.356 . S
C1250 H1304 0.930 . S
C1251 N1249 1.279 . S
C1251 C1250 1.358 . S
C1251 H1255 0.930 . S
C1252 C1250 1.356 . S
C1252 C1253 1.348 . S
C1253 C1248 1.353 . S
C1253 C1252 1.348 . S
C1253 H1305 0.929 . S
H1254 C1248 0.930 . S
H1255 C1251 0.930 . S
C1256 N1257 1.314 . S
C1256 C1258 1.353 . S
C1256 H1262 0.930 . S
N1257 Li1233 1.990 . S
N1257 C1256 1.314 . S
N1257 C1260 1.279 . S
C1258 C1256 1.353 . S
C1258 C1261 1.348 . S
C1258 H1306 0.929 . S
C1259 C1260 1.358 . S
C1259 C1261 1.356 . S
C1259 H1307 0.930 . S
C1260 N1257 1.279 . S
C1260 C1259 1.358 . S
C1260 H1263 0.930 . S
C1261 C1258 1.348 . S
C1261 C1259 1.356 . S
H1262 C1256 0.930 . S
H1263 C1260 0.930 . S
C1264 C1266 1.348 . S
C1264 C1267 1.356 . S
C1264 O1294 1.325 . S
N1265 C1268 1.314 . S
N1265 C1269 1.279 . S
C1266 C1264 1.348 . S
C1266 C1268 1.353 . S
C1266 H1308 0.929 . S
C1267 C1264 1.356 . S
C1267 C1269 1.358 . S
C1267 H1309 0.930 . S
C1268 N1265 1.314 . S
C1268 C1266 1.353 . S
C1268 H1310 0.930 . S
C1269 N1265 1.279 . S
C1269 C1267 1.358 . S
C1269 H1311 0.930 . S
C1270 C1271 1.348 . S
C1270 C1272 1.356 . S
C1270 O1295 1.325 . S
C1271 C1270 1.348 . S
C1271 C1273 1.353 . S
C1271 H1312 0.929 . S
C1272 C1270 1.356 . S
C1272 C1274 1.358 . S
C1272 H1313 0.930 . S
C1273 C1271 1.353 . S
C1273 N1275 1.314 . S
C1273 H1314 0.930 . S
C1274 C1272 1.358 . S
C1274 N1275 1.279 . S
C1274 H1315 0.930 . S
N1275 C1273 1.314 . S
N1275 C1274 1.279 . S
C1276 C1278 1.353 . S
C1276 N1279 1.314 . S
C1276 H1282 0.930 . S
C1277 N1279 1.279 . S
C1277 C1280 1.358 . S
C1277 H1283 0.930 . S
C1278 C1276 1.353 . S
C1278 C1281 1.348 . S
C1278 H1316 0.929 . S
N1279 Li1234 1.990 . S
N1279 C1276 1.314 . S
N1279 C1277 1.279 . S
C1280 C1277 1.358 . S
C1280 C1281 1.356 . S
C1280 H1317 0.930 . S
C1281 C1278 1.348 . S
C1281 C1280 1.356 . S
H1282 C1276 0.930 . S
H1283 C1277 0.930 . S
C1284 N1285 1.314 . S
C1284 C1286 1.353 . S
C1284 H1290 0.930 . S
N1285 Li1235 1.990 . S
N1285 C1284 1.314 . S
N1285 C1288 1.279 . S
C1286 C1284 1.353 . S
C1286 C1289 1.348 . S
C1286 H1318 0.929 . S
C1287 C1288 1.358 . S
C1287 C1289 1.356 . S
C1287 H1319 0.930 . S
C1288 N1285 1.279 . S
C1288 C1287 1.358 . S
C1288 H1291 0.930 . S
C1289 C1286 1.348 . S
C1289 C1287 1.356 . S
H1290 C1284 0.930 . S
H1291 C1288 0.930 . S
O1292 Li1232 1.956 . S
O1292 Li1233 1.970 . S
O1292 Li1234 1.961 . S
O1292 C1236 1.325 . S
O1293 Li1232 1.970 . S
O1293 Li1233 1.956 . S
O1293 Li1235 1.961 . S
O1293 C1242 1.325 . S
O1294 Li1232 1.961 . S
O1294 Li1234 1.956 . S
O1294 Li1235 1.970 . S
O1294 C1264 1.325 . S
O1295 Li1233 1.961 . S
O1295 Li1234 1.970 . S
O1295 Li1235 1.956 . S
O1295 C1270 1.325 . S
H1296 C1238 0.929 . S
H1297 C1239 0.930 . S
H1298 C1240 0.930 . S
H1299 C1241 0.930 . S
H1300 C1243 0.930 . S
H1301 C1245 0.929 . S
H1302 C1246 0.930 . S
H1303 C1247 0.930 . S
H1304 C1250 0.930 . S
H1305 C1253 0.929 . S
H1306 C1258 0.929 . S
H1307 C1259 0.930 . S
H1308 C1266 0.929 . S
H1309 C1267 0.930 . S
H1310 C1268 0.930 . S
H1311 C1269 0.930 . S
H1312 C1271 0.929 . S
H1313 C1272 0.930 . S
H1314 C1273 0.930 . S
H1315 C1274 0.930 . S
H1316 C1278 0.929 . S
H1317 C1280 0.930 . S
H1318 C1286 0.929 . S
H1319 C1287 0.930 . S
Li1320 N1337 1.990 . S
Li1320 O1380 1.956 . S
Li1320 O1381 1.970 . S
Li1320 O1382 1.961 . S
Li1321 N1345 1.990 . S
Li1321 O1380 1.970 . S
Li1321 O1381 1.956 . S
Li1321 O1383 1.961 . S
Li1322 N1367 1.990 . S
Li1322 O1380 1.961 . S
Li1322 O1382 1.956 . S
Li1322 O1383 1.970 . S
Li1323 N1373 1.990 . S
Li1323 O1381 1.961 . S
Li1323 O1382 1.970 . S
Li1323 O1383 1.956 . S
C1324 C1326 1.348 . S
C1324 C1327 1.356 . S
C1324 O1380 1.325 . S
N1325 C1328 1.314 . S
N1325 C1329 1.279 . S
C1326 C1324 1.348 . S
C1326 C1328 1.353 . S
C1326 H1384 0.929 . S
C1327 C1324 1.356 . S
C1327 C1329 1.358 . S
C1327 H1385 0.930 . S
C1328 N1325 1.314 . S
C1328 C1326 1.353 . S
C1328 H1386 0.930 . S
C1329 N1325 1.279 . S
C1329 C1327 1.358 . S
C1329 H1387 0.930 . S
C1330 C1333 1.348 . S
C1330 C1334 1.356 . S
C1330 O1381 1.325 . S
C1331 N1332 1.279 . S
C1331 C1334 1.358 . S
C1331 H1388 0.930 . S
N1332 C1331 1.279 . S
N1332 C1335 1.314 . S
C1333 C1330 1.348 . S
C1333 C1335 1.353 . S
C1333 H1389 0.929 . S
C1334 C1330 1.356 . S
C1334 C1331 1.358 . S
C1334 H1390 0.930 . S
C1335 N1332 1.314 . S
C1335 C1333 1.353 . S
C1335 H1391 0.930 . S
C1336 N1337 1.314 . S
C1336 C1341 1.353 . S
C1336 H1342 0.930 . S
N1337 Li1320 1.990 . S
N1337 C1336 1.314 . S
N1337 C1339 1.279 . S
C1338 C1339 1.358 . S
C1338 C1340 1.356 . S
C1338 H1392 0.930 . S
C1339 N1337 1.279 . S
C1339 C1338 1.358 . S
C1339 H1343 0.930 . S
C1340 C1338 1.356 . S
C1340 C1341 1.348 . S
C1341 C1336 1.353 . S
C1341 C1340 1.348 . S
C1341 H1393 0.929 . S
H1342 C1336 0.930 . S
H1343 C1339 0.930 . S
C1344 N1345 1.314 . S
C1344 C1346 1.353 . S
C1344 H1350 0.930 . S
N1345 Li1321 1.990 . S
N1345 C1344 1.314 . S
N1345 C1348 1.279 . S
C1346 C1344 1.353 . S
C1346 C1349 1.348 . S
C1346 H1394 0.929 . S
C1347 C1348 1.358 . S
C1347 C1349 1.356 . S
C1347 H1395 0.930 . S
C1348 N1345 1.279 . S
C1348 C1347 1.358 . S
C1348 H1351 0.930 . S
C1349 C1346 1.348 . S
C1349 C1347 1.356 . S
H1350 C1344 0.930 . S
H1351 C1348 0.930 . S
C1352 C1354 1.348 . S
C1352 C1355 1.356 . S
C1352 O1382 1.325 . S
N1353 C1356 1.314 . S
N1353 C1357 1.279 . S
C1354 C1352 1.348 . S
C1354 C1356 1.353 . S
C1354 H1396 0.929 . S
C1355 C1352 1.356 . S
C1355 C1357 1.358 . S
C1355 H1397 0.930 . S
C1356 N1353 1.314 . S
C1356 C1354 1.353 . S
C1356 H1398 0.930 . S
C1357 N1353 1.279 . S
C1357 C1355 1.358 . S
C1357 H1399 0.930 . S
C1358 C1359 1.348 . S
C1358 C1360 1.356 . S
C1358 O1383 1.325 . S
C1359 C1358 1.348 . S
C1359 C1361 1.353 . S
C1359 H1400 0.929 . S
C1360 C1358 1.356 . S
C1360 C1362 1.358 . S
C1360 H1401 0.930 . S
C1361 C1359 1.353 . S
C1361 N1363 1.314 . S
C1361 H1402 0.930 . S
C1362 C1360 1.358 . S
C1362 N1363 1.279 . S
C1362 H1403 0.930 . S
N1363 C1361 1.314 . S
N1363 C1362 1.279 . S
C1364 C1366 1.353 . S
C1364 N1367 1.314 . S
C1364 H1370 0.930 . S
C1365 N1367 1.279 . S
C1365 C1368 1.358 . S
C1365 H1371 0.930 . S
C1366 C1364 1.353 . S
C1366 C1369 1.348 . S
C1366 H1404 0.929 . S
N1367 Li1322 1.990 . S
N1367 C1364 1.314 . S
N1367 C1365 1.279 . S
C1368 C1365 1.358 . S
C1368 C1369 1.356 . S
C1368 H1405 0.930 . S
C1369 C1366 1.348 . S
C1369 C1368 1.356 . S
H1370 C1364 0.930 . S
H1371 C1365 0.930 . S
C1372 N1373 1.314 . S
C1372 C1374 1.353 . S
C1372 H1378 0.930 . S
N1373 Li1323 1.990 . S
N1373 C1372 1.314 . S
N1373 C1376 1.279 . S
C1374 C1372 1.353 . S
C1374 C1377 1.348 . S
C1374 H1406 0.929 . S
C1375 C1376 1.358 . S
C1375 C1377 1.356 . S
C1375 H1407 0.930 . S
C1376 N1373 1.279 . S
C1376 C1375 1.358 . S
C1376 H1379 0.930 . S
C1377 C1374 1.348 . S
C1377 C1375 1.356 . S
H1378 C1372 0.930 . S
H1379 C1376 0.930 . S
O1380 Li1320 1.956 . S
O1380 Li1321 1.970 . S
O1380 Li1322 1.961 . S
O1380 C1324 1.325 . S
O1381 Li1320 1.970 . S
O1381 Li1321 1.956 . S
O1381 Li1323 1.961 . S
O1381 C1330 1.325 . S
O1382 Li1320 1.961 . S
O1382 Li1322 1.956 . S
O1382 Li1323 1.970 . S
O1382 C1352 1.325 . S
O1383 Li1321 1.961 . S
O1383 Li1322 1.970 . S
O1383 Li1323 1.956 . S
O1383 C1358 1.325 . S
H1384 C1326 0.929 . S
H1385 C1327 0.930 . S
H1386 C1328 0.930 . S
H1387 C1329 0.930 . S
H1388 C1331 0.930 . S
H1389 C1333 0.929 . S
H1390 C1334 0.930 . S
H1391 C1335 0.930 . S
H1392 C1338 0.930 . S
H1393 C1341 0.929 . S
H1394 C1346 0.929 . S
H1395 C1347 0.930 . S
H1396 C1354 0.929 . S
H1397 C1355 0.930 . S
H1398 C1356 0.930 . S
H1399 C1357 0.930 . S
H1400 C1359 0.929 . S
H1401 C1360 0.930 . S
H1402 C1361 0.930 . S
H1403 C1362 0.930 . S
H1404 C1366 0.929 . S
H1405 C1368 0.930 . S
H1406 C1374 0.929 . S
H1407 C1375 0.930 . S
C1408 C1409 1.387 . S
C1408 H1412 0.950 . S
C1408 C1417 1.390 1_554 S
C1409 C1408 1.387 . S
C1409 C1411 1.387 . S
H1410 C1417 0.950 . S
C1411 C1409 1.387 . S
C1411 C1413 1.390 1_554 S
C1411 H1415 0.950 . S
H1412 C1408 0.950 . S
C1413 C1411 1.390 1_556 S
C1413 C1414 1.387 . S
C1413 H1416 0.950 . S
C1414 C1413 1.387 . S
C1414 C1417 1.387 . S
H1415 C1411 0.950 . S
H1416 C1413 0.950 . S
C1417 C1408 1.390 1_556 S
C1417 H1410 0.950 . S
C1417 C1414 1.387 . S
C1418 C1419 1.387 . S
C1418 H1422 0.950 . S
C1418 C1427 1.390 1_554 S
C1419 C1418 1.387 . S
C1419 C1421 1.387 . S
H1420 C1427 0.950 . S
C1421 C1419 1.387 . S
C1421 C1423 1.390 1_554 S
C1421 H1425 0.950 . S
H1422 C1418 0.950 . S
C1423 C1421 1.390 1_556 S
C1423 C1424 1.387 . S
C1423 H1426 0.950 . S
C1424 C1423 1.387 . S
C1424 C1427 1.387 . S
H1425 C1421 0.950 . S
H1426 C1423 0.950 . S
C1427 C1418 1.390 1_556 S
C1427 H1420 0.950 . S
C1427 C1424 1.387 . S
C1428 C1429 1.387 . S
C1428 H1432 0.950 . S
C1428 C1437 1.390 . S
C1429 C1428 1.387 . S
C1429 C1431 1.387 1_554 S
H1430 C1437 0.950 . S
C1431 C1429 1.387 1_556 S
C1431 C1433 1.390 1_556 S
C1431 H1435 0.950 . S
H1432 C1428 0.950 . S
C1433 C1431 1.390 1_554 S
C1433 C1434 1.387 . S
C1433 H1436 0.950 . S
C1434 C1433 1.387 . S
C1434 C1437 1.387 . S
H1435 C1431 0.950 . S
H1436 C1433 0.950 . S
C1437 C1428 1.390 . S
C1437 H1430 0.950 . S
C1437 C1434 1.387 . S
C1438 C1439 1.387 . S
C1438 H1442 0.950 . S
C1438 C1447 1.390 1_554 S
C1439 C1438 1.387 . S
C1439 C1441 1.387 . S
H1440 C1447 0.950 . S
C1441 C1439 1.387 . S
C1441 C1443 1.390 1_554 S
C1441 H1445 0.950 . S
H1442 C1438 0.950 . S
C1443 C1441 1.390 1_556 S
C1443 C1444 1.387 . S
C1443 H1446 0.950 . S
C1444 C1443 1.387 . S
C1444 C1447 1.387 . S
H1445 C1441 0.950 . S
H1446 C1443 0.950 . S
C1447 C1438 1.390 1_556 S
C1447 H1440 0.950 . S
C1447 C1444 1.387 . S
C1448 C1449 1.387 . S
C1448 H1452 0.950 . S
C1448 C1457 1.390 1_545 S
C1449 C1448 1.387 . S
C1449 C1451 1.387 . S
H1450 C1457 0.950 . S
C1451 C1449 1.387 . S
C1451 C1453 1.390 1_545 S
C1451 H1455 0.950 . S
H1452 C1448 0.950 . S
C1453 C1451 1.390 1_565 S
C1453 C1454 1.387 . S
C1453 H1456 0.950 . S
C1454 C1453 1.387 . S
C1454 C1457 1.387 . S
H1455 C1451 0.950 . S
H1456 C1453 0.950 . S
C1457 C1448 1.390 1_565 S
C1457 H1450 0.950 . S
C1457 C1454 1.387 . S
C1458 C1459 1.387 . S
C1458 H1462 0.950 . S
C1458 C1467 1.390 1_655 S
C1459 C1458 1.387 . S
C1459 C1461 1.387 . S
H1460 C1467 0.950 . S
C1461 C1459 1.387 . S
C1461 C1463 1.390 1_655 S
C1461 H1465 0.950 . S
H1462 C1458 0.950 . S
C1463 C1461 1.390 1_455 S
C1463 C1464 1.387 . S
C1463 H1466 0.950 . S
C1464 C1463 1.387 . S
C1464 C1467 1.387 . S
H1465 C1461 0.950 . S
H1466 C1463 0.950 . S
C1467 C1458 1.390 1_455 S
C1467 H1460 0.950 . S
C1467 C1464 1.387 . S
C1468 C1469 1.387 . S
C1468 H1472 0.950 . S
C1468 C1477 1.390 1_545 S
C1469 C1468 1.387 . S
C1469 C1471 1.387 . S
H1470 C1477 0.950 . S
C1471 C1469 1.387 . S
C1471 C1473 1.390 1_545 S
C1471 H1475 0.950 . S
H1472 C1468 0.950 . S
C1473 C1471 1.390 1_565 S
C1473 C1474 1.387 . S
C1473 H1476 0.950 . S
C1474 C1473 1.387 . S
C1474 C1477 1.387 . S
H1475 C1471 0.950 . S
H1476 C1473 0.950 . S
C1477 C1468 1.390 1_565 S
C1477 H1470 0.950 . S
C1477 C1474 1.387 . S
C1478 C1479 1.387 . S
C1478 H1482 0.950 . S
C1478 C1487 1.390 1_455 S
C1479 C1478 1.387 . S
C1479 C1481 1.387 . S
H1480 C1487 0.950 . S
C1481 C1479 1.387 . S
C1481 C1483 1.390 1_455 S
C1481 H1485 0.950 . S
H1482 C1478 0.950 . S
C1483 C1481 1.390 1_655 S
C1483 C1484 1.387 . S
C1483 H1486 0.950 . S
C1484 C1483 1.387 . S
C1484 C1487 1.387 . S
H1485 C1481 0.950 . S
H1486 C1483 0.950 . S
C1487 C1478 1.390 1_655 S
C1487 H1480 0.950 . S
C1487 C1484 1.387 . S
C1488 C1489 1.383 1_556 S
C1488 H1492 0.950 . S
C1488 C1497 1.390 . S
C1489 C1488 1.383 1_554 S
C1489 C1491 1.392 . S
H1490 C1497 0.950 . S
C1491 C1489 1.392 . S
C1491 C1493 1.390 . S
C1491 H1495 0.950 . S
H1492 C1488 0.950 . S
C1493 C1491 1.390 . S
C1493 C1494 1.388 1_554 S
C1493 H1496 0.950 . S
C1494 C1493 1.388 1_556 S
C1494 C1497 1.387 . S
H1495 C1491 0.950 . S
H1496 C1493 0.950 . S
C1497 C1488 1.390 . S
C1497 H1490 0.950 . S
C1497 C1494 1.387 . S
C1498 C1499 1.387 . S
C1498 H1502 0.950 . S
C1498 C1507 1.390 . S
C1499 C1498 1.387 . S
C1499 C1501 1.388 1_556 S
H1500 C1507 0.950 . S
C1501 C1499 1.388 1_554 S
C1501 C1503 1.390 . S
C1501 H1505 0.950 . S
H1502 C1498 0.950 . S
C1503 C1501 1.390 . S
C1503 C1504 1.392 . S
C1503 H1506 0.950 . S
C1504 C1503 1.392 . S
C1504 C1507 1.383 1_554 S
H1505 C1501 0.950 . S
H1506 C1503 0.950 . S
C1507 C1498 1.390 . S
C1507 H1500 0.950 . S
C1507 C1504 1.383 1_556 S
C1508 C1509 1.383 1_556 S
C1508 H1512 0.950 . S
C1508 C1517 1.390 . S
C1509 C1508 1.383 1_554 S
C1509 C1511 1.392 . S
H1510 C1517 0.950 . S
C1511 C1509 1.392 . S
C1511 C1513 1.390 . S
C1511 H1515 0.950 . S
H1512 C1508 0.950 . S
C1513 C1511 1.390 . S
C1513 C1514 1.388 1_554 S
C1513 H1516 0.950 . S
C1514 C1513 1.388 1_556 S
C1514 C1517 1.387 . S
H1515 C1511 0.950 . S
H1516 C1513 0.950 . S
C1517 C1508 1.390 . S
C1517 H1510 0.950 . S
C1517 C1514 1.387 . S
C1518 C1519 1.387 . S
C1518 H1522 0.950 . S
C1518 C1527 1.390 . S
C1519 C1518 1.387 . S
C1519 C1521 1.388 1_556 S
H1520 C1527 0.950 . S
C1521 C1519 1.388 1_554 S
C1521 C1523 1.390 . S
C1521 H1525 0.950 . S
H1522 C1518 0.950 . S
C1523 C1521 1.390 . S
C1523 C1524 1.392 . S
C1523 H1526 0.950 . S
C1524 C1523 1.392 . S
C1524 C1527 1.383 1_554 S
H1525 C1521 0.950 . S
H1526 C1523 0.950 . S
C1527 C1518 1.390 . S
C1527 H1520 0.950 . S
C1527 C1524 1.383 1_556 S
C1528 C1529 1.387 . S
C1528 H1532 0.950 . S
C1528 C1537 1.390 . S
C1529 C1528 1.387 . S
C1529 C1531 1.387 . S
H1530 C1537 0.950 . S
C1531 C1529 1.387 . S
C1531 C1533 1.390 . S
C1531 H1535 0.950 . S
H1532 C1528 0.950 . S
C1533 C1531 1.390 . S
C1533 C1534 1.387 . S
C1533 H1536 0.950 . S
C1534 C1533 1.387 . S
C1534 C1537 1.387 . S
H1535 C1531 0.950 . S
H1536 C1533 0.950 . S
C1537 C1528 1.390 . S
C1537 H1530 0.950 . S
C1537 C1534 1.387 . S
C1538 C1539 1.387 . S
C1538 H1542 0.950 . S
C1538 C1547 1.390 . S
C1539 C1538 1.387 . S
C1539 C1541 1.387 . S
H1540 C1547 0.950 . S
C1541 C1539 1.387 . S
C1541 C1543 1.390 . S
C1541 H1545 0.950 . S
H1542 C1538 0.950 . S
C1543 C1541 1.390 . S
C1543 C1544 1.387 . S
C1543 H1546 0.950 . S
C1544 C1543 1.387 . S
C1544 C1547 1.387 . S
H1545 C1541 0.950 . S
H1546 C1543 0.950 . S
C1547 C1538 1.390 . S
C1547 H1540 0.950 . S
C1547 C1544 1.387 . S
C1548 C1549 1.387 . S
C1548 H1552 0.950 . S
C1548 C1557 1.390 . S
C1549 C1548 1.387 . S
C1549 C1551 1.387 . S
H1550 C1557 0.950 . S
C1551 C1549 1.387 . S
C1551 C1553 1.390 . S
C1551 H1555 0.950 . S
H1552 C1548 0.950 . S
C1553 C1551 1.390 . S
C1553 C1554 1.387 . S
C1553 H1556 0.950 . S
C1554 C1553 1.387 . S
C1554 C1557 1.387 . S
H1555 C1551 0.950 . S
H1556 C1553 0.950 . S
C1557 C1548 1.390 . S
C1557 H1550 0.950 . S
C1557 C1554 1.387 . S
C1558 C1559 1.387 . S
C1558 H1562 0.950 . S
C1558 C1567 1.390 . S
C1559 C1558 1.387 . S
C1559 C1561 1.387 . S
H1560 C1567 0.950 . S
C1561 C1559 1.387 . S
C1561 C1563 1.390 . S
C1561 H1565 0.950 . S
H1562 C1558 0.950 . S
C1563 C1561 1.390 . S
C1563 C1564 1.387 . S
C1563 H1566 0.950 . S
C1564 C1563 1.387 . S
C1564 C1567 1.387 . S
H1565 C1561 0.950 . S
H1566 C1563 0.950 . S
C1567 C1558 1.390 . S
C1567 H1560 0.950 . S
C1567 C1564 1.387 . S
C1568 C1569 1.387 . S
C1568 H1572 0.950 . S
C1568 C1577 1.390 . S
C1569 C1568 1.387 . S
C1569 C1571 1.387 . S
H1570 C1577 0.950 . S
C1571 C1569 1.387 . S
C1571 C1573 1.390 . S
C1571 H1575 0.950 . S
H1572 C1568 0.950 . S
C1573 C1571 1.390 . S
C1573 C1574 1.387 . S
C1573 H1576 0.950 . S
C1574 C1573 1.387 . S
C1574 C1577 1.387 . S
H1575 C1571 0.950 . S
H1576 C1573 0.950 . S
C1577 C1568 1.390 . S
C1577 H1570 0.950 . S
C1577 C1574 1.387 . S
C1578 C1579 1.387 . S
C1578 H1582 0.950 . S
C1578 C1587 1.390 . S
C1579 C1578 1.387 . S
C1579 C1581 1.387 . S
H1580 C1587 0.950 . S
C1581 C1579 1.387 . S
C1581 C1583 1.390 . S
C1581 H1585 0.950 . S
H1582 C1578 0.950 . S
C1583 C1581 1.390 . S
C1583 C1584 1.387 . S
C1583 H1586 0.950 . S
C1584 C1583 1.387 . S
C1584 C1587 1.387 . S
H1585 C1581 0.950 . S
H1586 C1583 0.950 . S
C1587 C1578 1.390 . S
C1587 H1580 0.950 . S
C1587 C1584 1.387 . S
C1588 C1589 1.387 . S
C1588 H1592 0.950 . S
C1588 C1597 1.390 . S
C1589 C1588 1.387 . S
C1589 C1591 1.387 . S
H1590 C1597 0.950 . S
C1591 C1589 1.387 . S
C1591 C1593 1.390 . S
C1591 H1595 0.950 . S
H1592 C1588 0.950 . S
C1593 C1591 1.390 . S
C1593 C1594 1.387 . S
C1593 H1596 0.950 . S
C1594 C1593 1.387 . S
C1594 C1597 1.387 . S
H1595 C1591 0.950 . S
H1596 C1593 0.950 . S
C1597 C1588 1.390 . S
C1597 H1590 0.950 . S
C1597 C1594 1.387 . S
C1598 C1599 1.387 . S
C1598 H1602 0.950 . S
C1598 C1607 1.390 . S
C1599 C1598 1.387 . S
C1599 C1601 1.387 . S
H1600 C1607 0.950 . S
C1601 C1599 1.387 . S
C1601 C1603 1.390 . S
C1601 H1605 0.950 . S
H1602 C1598 0.950 . S
C1603 C1601 1.390 . S
C1603 C1604 1.387 . S
C1603 H1606 0.950 . S
C1604 C1603 1.387 . S
C1604 C1607 1.387 . S
H1605 C1601 0.950 . S
H1606 C1603 0.950 . S
C1607 C1598 1.390 . S
C1607 H1600 0.950 . S
C1607 C1604 1.387 . S
C1608 C1609 1.387 . S
C1608 H1612 0.950 . S
C1608 C1617 1.390 . S
C1609 C1608 1.387 . S
C1609 C1611 1.387 . S
H1610 C1617 0.950 . S
C1611 C1609 1.387 . S
C1611 C1613 1.390 . S
C1611 H1615 0.950 . S
H1612 C1608 0.950 . S
C1613 C1611 1.390 . S
C1613 C1614 1.387 . S
C1613 H1616 0.950 . S
C1614 C1613 1.387 . S
C1614 C1617 1.387 . S
H1615 C1611 0.950 . S
H1616 C1613 0.950 . S
C1617 C1608 1.390 . S
C1617 H1610 0.950 . S
C1617 C1614 1.387 . S
C1618 C1619 1.387 . S
C1618 H1622 0.950 . S
C1618 C1627 1.390 . S
C1619 C1618 1.387 . S
C1619 C1621 1.387 . S
H1620 C1627 0.950 . S
C1621 C1619 1.387 . S
C1621 C1623 1.390 . S
C1621 H1625 0.950 . S
H1622 C1618 0.950 . S
C1623 C1621 1.390 . S
C1623 C1624 1.387 . S
C1623 H1626 0.950 . S
C1624 C1623 1.387 . S
C1624 C1627 1.387 . S
H1625 C1621 0.950 . S
H1626 C1623 0.950 . S
C1627 C1618 1.390 . S
C1627 H1620 0.950 . S
C1627 C1624 1.387 . S
C1628 C1629 1.387 . S
C1628 H1632 0.950 . S
C1628 C1637 1.390 . S
C1629 C1628 1.387 . S
C1629 C1631 1.387 . S
H1630 C1637 0.950 . S
C1631 C1629 1.387 . S
C1631 C1633 1.390 . S
C1631 H1635 0.950 . S
H1632 C1628 0.950 . S
C1633 C1631 1.390 . S
C1633 C1634 1.387 . S
C1633 H1636 0.950 . S
C1634 C1633 1.387 . S
C1634 C1637 1.387 . S
H1635 C1631 0.950 . S
H1636 C1633 0.950 . S
C1637 C1628 1.390 . S
C1637 H1630 0.950 . S
C1637 C1634 1.387 . S
C1638 C1639 1.387 . S
C1638 H1642 0.950 . S
C1638 C1647 1.390 . S
C1639 C1638 1.387 . S
C1639 C1641 1.387 . S
H1640 C1647 0.950 . S
C1641 C1639 1.387 . S
C1641 C1643 1.390 . S
C1641 H1645 0.950 . S
H1642 C1638 0.950 . S
C1643 C1641 1.390 . S
C1643 C1644 1.387 . S
C1643 H1646 0.950 . S
C1644 C1643 1.387 . S
C1644 C1647 1.387 . S
H1645 C1641 0.950 . S
H1646 C1643 0.950 . S
C1647 C1638 1.390 . S
C1647 H1640 0.950 . S
C1647 C1644 1.387 . S
C1648 C1649 1.387 . S
C1648 H1652 0.950 . S
C1648 C1657 1.390 . S
C1649 C1648 1.387 . S
C1649 C1651 1.387 . S
H1650 C1657 0.950 . S
C1651 C1649 1.387 . S
C1651 C1653 1.390 . S
C1651 H1655 0.950 . S
H1652 C1648 0.950 . S
C1653 C1651 1.390 . S
C1653 C1654 1.387 . S
C1653 H1656 0.950 . S
C1654 C1653 1.387 . S
C1654 C1657 1.387 . S
H1655 C1651 0.950 . S
H1656 C1653 0.950 . S
C1657 C1648 1.390 . S
C1657 H1650 0.950 . S
C1657 C1654 1.387 . S
C1658 C1659 1.387 . S
C1658 H1662 0.950 . S
C1658 C1667 1.390 . S
C1659 C1658 1.387 . S
C1659 C1661 1.387 . S
H1660 C1667 0.950 . S
C1661 C1659 1.387 . S
C1661 C1663 1.390 . S
C1661 H1665 0.950 . S
H1662 C1658 0.950 . S
C1663 C1661 1.390 . S
C1663 C1664 1.387 . S
C1663 H1666 0.950 . S
C1664 C1663 1.387 . S
C1664 C1667 1.387 . S
H1665 C1661 0.950 . S
H1666 C1663 0.950 . S
C1667 C1658 1.390 . S
C1667 H1660 0.950 . S
C1667 C1664 1.387 . S
C1668 C1669 1.387 . S
C1668 H1672 0.950 . S
C1668 C1677 1.390 . S
C1669 C1668 1.387 . S
C1669 C1671 1.387 . S
H1670 C1677 0.950 . S
C1671 C1669 1.387 . S
C1671 C1673 1.390 . S
C1671 H1675 0.950 . S
H1672 C1668 0.950 . S
C1673 C1671 1.390 . S
C1673 C1674 1.387 . S
C1673 H1676 0.950 . S
C1674 C1673 1.387 . S
C1674 C1677 1.387 . S
H1675 C1671 0.950 . S
H1676 C1673 0.950 . S
C1677 C1668 1.390 . S
C1677 H1670 0.950 . S
C1677 C1674 1.387 . S
C1678 C1679 1.387 . S
C1678 H1682 0.950 . S
C1678 C1687 1.390 . S
C1679 C1678 1.387 . S
C1679 C1681 1.387 . S
H1680 C1687 0.950 . S
C1681 C1679 1.387 . S
C1681 C1683 1.390 . S
C1681 H1685 0.950 . S
H1682 C1678 0.950 . S
C1683 C1681 1.390 . S
C1683 C1684 1.387 . S
C1683 H1686 0.950 . S
C1684 C1683 1.387 . S
C1684 C1687 1.387 . S
H1685 C1681 0.950 . S
H1686 C1683 0.950 . S
C1687 C1678 1.390 . S
C1687 H1680 0.950 . S
C1687 C1684 1.387 . S
C1688 C1689 1.387 . S
C1688 H1692 0.950 . S
C1688 C1697 1.390 . S
C1689 C1688 1.387 . S
C1689 C1691 1.387 . S
H1690 C1697 0.950 . S
C1691 C1689 1.387 . S
C1691 C1693 1.390 . S
C1691 H1695 0.950 . S
H1692 C1688 0.950 . S
C1693 C1691 1.390 . S
C1693 C1694 1.387 . S
C1693 H1696 0.950 . S
C1694 C1693 1.387 . S
C1694 C1697 1.387 . S
H1695 C1691 0.950 . S
H1696 C1693 0.950 . S
C1697 C1688 1.390 . S
C1697 H1690 0.950 . S
C1697 C1694 1.387 . S
C1698 C1699 1.387 . S
C1698 H1702 0.950 . S
C1698 C1707 1.390 . S
C1699 C1698 1.387 . S
C1699 C1701 1.387 . S
H1700 C1707 0.950 . S
C1701 C1699 1.387 . S
C1701 C1703 1.390 . S
C1701 H1705 0.950 . S
H1702 C1698 0.950 . S
C1703 C1701 1.390 . S
C1703 C1704 1.387 . S
C1703 H1706 0.950 . S
C1704 C1703 1.387 . S
C1704 C1707 1.387 . S
H1705 C1701 0.950 . S
H1706 C1703 0.950 . S
C1707 C1698 1.390 . S
C1707 H1700 0.950 . S
C1707 C1704 1.387 . S
C1708 C1709 1.387 . S
C1708 H1712 0.950 . S
C1708 C1717 1.390 . S
C1709 C1708 1.387 . S
C1709 C1711 1.387 . S
H1710 C1717 0.950 . S
C1711 C1709 1.387 . S
C1711 C1713 1.390 . S
C1711 H1715 0.950 . S
H1712 C1708 0.950 . S
C1713 C1711 1.390 . S
C1713 C1714 1.387 . S
C1713 H1716 0.950 . S
C1714 C1713 1.387 . S
C1714 C1717 1.387 . S
H1715 C1711 0.950 . S
H1716 C1713 0.950 . S
C1717 C1708 1.390 . S
C1717 H1710 0.950 . S
C1717 C1714 1.387 . S
C1718 C1719 1.387 . S
C1718 H1722 0.950 . S
C1718 C1727 1.390 . S
C1719 C1718 1.387 . S
C1719 C1721 1.387 . S
H1720 C1727 0.950 . S
C1721 C1719 1.387 . S
C1721 C1723 1.390 . S
C1721 H1725 0.950 . S
H1722 C1718 0.950 . S
C1723 C1721 1.390 . S
C1723 C1724 1.387 . S
C1723 H1726 0.950 . S
C1724 C1723 1.387 . S
C1724 C1727 1.387 . S
H1725 C1721 0.950 . S
H1726 C1723 0.950 . S
C1727 C1718 1.390 . S
C1727 H1720 0.950 . S
C1727 C1724 1.387 . S
C1409 C409 0.981 1_554 S
C1414 C20 0.981 1_556 S
C1419 C489 0.981 1_554 S
C1424 C108 0.981 1_556 S
C1429 C585 0.981 1_554 S
C1434 C205 0.981 . S
C1439 C673 0.981 1_554 S
C1444 C293 0.981 1_556 S
C1449 C1105 0.981 . S
C1454 C724 0.981 . S
C1459 C1193 0.981 . S
C1464 C812 0.981 . S
C1469 C909 0.981 . S
C1474 C1281 0.981 . S
C1479 C1377 0.981 . S
C1484 C997 0.981 . S
C1489 C49 1.344 1_554 S
C1494 C460 1.346 1_556 S
C1499 C557 1.346 1_556 S
C1504 C137 1.344 1_554 S
C1509 C233 1.344 1_554 S
C1514 C645 1.346 1_556 S
C1519 C381 1.346 1_556 S
C1524 C321 1.344 1_554 S
C1529 C1164 1.344 . S
C1534 C753 1.346 . S
C1539 C1252 1.344 . S
C1544 C841 1.346 . S
C1549 C937 1.346 . S
C1554 C1349 1.344 . S
C1559 C1025 1.344 . S
C1564 C1076 1.346 . S
C1569 C1369 1.544 . S
C1574 C29 1.541 . S
C1579 C1113 1.543 . S
C1584 C117 1.541 . S
C1589 C1201 1.544 . S
C1594 C196 1.541 . S
C1599 C1289 1.544 . S
C1604 C284 1.541 . S
C1609 C821 1.543 . S
C1614 C401 1.547 . S
C1619 C900 1.544 . S
C1624 C497 1.546 . S
C1629 C577 1.543 . S
C1634 C988 1.547 . S
C1639 C665 1.544 . S
C1644 C733 1.546 . S
C1649 C1173 1.544 . S
C1654 C225 1.547 . S
C1659 C1261 1.544 . S
C1664 C313 1.547 . S
C1669 C1340 1.544 . S
C1674 C57 1.547 . S
C1679 C145 1.544 . S
C1684 C1085 1.547 . S
C1689 C1017 1.545 . S
C1694 C548 1.541 . S
C1699 C636 1.545 . S
C1704 C761 1.541 . S
C1709 C849 1.545 . S
C1714 C372 1.541 . S
C1719 C929 1.545 . S
C1724 C469 1.541 . S
