# Generated by pormake.
# Topology whh, (6)-cn, num edge types: 1
# Building blocks:
#     Node 0, Type 0, BuildingBlock: VOLQOD_clean_sbu_1, # of connection points: 6
#     Node 1, Type 0, BuildingBlock: VOLQOD_clean_sbu_1, # of connection points: 6
#     Node 2, Type 0, BuildingBlock: VOLQOD_clean_sbu_1, # of connection points: 6
#     Node 3, Type 0, BuildingBlock: VOLQOD_clean_sbu_1, # of connection points: 6
#     Node 4, Type 0, BuildingBlock: VOLQOD_clean_sbu_1, # of connection points: 6
#     Node 5, Type 0, BuildingBlock: VOLQOD_clean_sbu_1, # of connection points: 6
#     Node 6, Type 0, BuildingBlock: VOLQOD_clean_sbu_1, # of connection points: 6
#     Node 7, Type 0, BuildingBlock: VOLQOD_clean_sbu_1, # of connection points: 6
#     Node 8, Type 0, BuildingBlock: VOLQOD_clean_sbu_1, # of connection points: 6
#     Node 9, Type 0, BuildingBlock: VOLQOD_clean_sbu_1, # of connection points: 6
#     Node 10, Type 0, BuildingBlock: VOLQOD_clean_sbu_1, # of connection points: 6
#     Node 11, Type 0, BuildingBlock: VOLQOD_clean_sbu_1, # of connection points: 6
#     Node 12, Type 0, BuildingBlock: VOLQOD_clean_sbu_1, # of connection points: 6
#     Node 13, Type 0, BuildingBlock: VOLQOD_clean_sbu_1, # of connection points: 6
#     Node 14, Type 0, BuildingBlock: VOLQOD_clean_sbu_1, # of connection points: 6
#     Node 15, Type 0, BuildingBlock: VOLQOD_clean_sbu_1, # of connection points: 6
#     Edge 16, Type (0, 0), BuildingBlock: EZIPEK_clean_linker_0, # of connection points: 2
#     Edge 17, Type (0, 0), BuildingBlock: EZIPEK_clean_linker_0, # of connection points: 2
#     Edge 18, Type (0, 0), BuildingBlock: EZIPEK_clean_linker_0, # of connection points: 2
#     Edge 19, Type (0, 0), BuildingBlock: EZIPEK_clean_linker_0, # of connection points: 2
#     Edge 20, Type (0, 0), BuildingBlock: EZIPEK_clean_linker_0, # of connection points: 2
#     Edge 21, Type (0, 0), BuildingBlock: EZIPEK_clean_linker_0, # of connection points: 2
#     Edge 22, Type (0, 0), BuildingBlock: EZIPEK_clean_linker_0, # of connection points: 2
#     Edge 23, Type (0, 0), BuildingBlock: EZIPEK_clean_linker_0, # of connection points: 2
#     Edge 24, Type (0, 0), BuildingBlock: EZIPEK_clean_linker_0, # of connection points: 2
#     Edge 25, Type (0, 0), BuildingBlock: EZIPEK_clean_linker_0, # of connection points: 2
#     Edge 26, Type (0, 0), BuildingBlock: EZIPEK_clean_linker_0, # of connection points: 2
#     Edge 27, Type (0, 0), BuildingBlock: EZIPEK_clean_linker_0, # of connection points: 2
#     Edge 28, Type (0, 0), BuildingBlock: EZIPEK_clean_linker_0, # of connection points: 2
#     Edge 29, Type (0, 0), BuildingBlock: EZIPEK_clean_linker_0, # of connection points: 2
#     Edge 30, Type (0, 0), BuildingBlock: EZIPEK_clean_linker_0, # of connection points: 2
#     Edge 31, Type (0, 0), BuildingBlock: EZIPEK_clean_linker_0, # of connection points: 2
#     Edge 32, Type (0, 0), BuildingBlock: EZIPEK_clean_linker_0, # of connection points: 2
#     Edge 33, Type (0, 0), BuildingBlock: EZIPEK_clean_linker_0, # of connection points: 2
#     Edge 34, Type (0, 0), BuildingBlock: EZIPEK_clean_linker_0, # of connection points: 2
#     Edge 35, Type (0, 0), BuildingBlock: EZIPEK_clean_linker_0, # of connection points: 2
#     Edge 36, Type (0, 0), BuildingBlock: EZIPEK_clean_linker_0, # of connection points: 2
#     Edge 37, Type (0, 0), BuildingBlock: EZIPEK_clean_linker_0, # of connection points: 2
#     Edge 38, Type (0, 0), BuildingBlock: EZIPEK_clean_linker_0, # of connection points: 2
#     Edge 39, Type (0, 0), BuildingBlock: EZIPEK_clean_linker_0, # of connection points: 2
#     Edge 40, Type (0, 0), BuildingBlock: EZIPEK_clean_linker_0, # of connection points: 2
#     Edge 41, Type (0, 0), BuildingBlock: EZIPEK_clean_linker_0, # of connection points: 2
#     Edge 42, Type (0, 0), BuildingBlock: EZIPEK_clean_linker_0, # of connection points: 2
#     Edge 43, Type (0, 0), BuildingBlock: EZIPEK_clean_linker_0, # of connection points: 2
#     Edge 44, Type (0, 0), BuildingBlock: EZIPEK_clean_linker_0, # of connection points: 2
#     Edge 45, Type (0, 0), BuildingBlock: EZIPEK_clean_linker_0, # of connection points: 2
#     Edge 46, Type (0, 0), BuildingBlock: EZIPEK_clean_linker_0, # of connection points: 2
#     Edge 47, Type (0, 0), BuildingBlock: EZIPEK_clean_linker_0, # of connection points: 2
#     Edge 48, Type (0, 0), BuildingBlock: EZIPEK_clean_linker_0, # of connection points: 2
#     Edge 49, Type (0, 0), BuildingBlock: EZIPEK_clean_linker_0, # of connection points: 2
#     Edge 50, Type (0, 0), BuildingBlock: EZIPEK_clean_linker_0, # of connection points: 2
#     Edge 51, Type (0, 0), BuildingBlock: EZIPEK_clean_linker_0, # of connection points: 2
#     Edge 52, Type (0, 0), BuildingBlock: EZIPEK_clean_linker_0, # of connection points: 2
#     Edge 53, Type (0, 0), BuildingBlock: EZIPEK_clean_linker_0, # of connection points: 2
#     Edge 54, Type (0, 0), BuildingBlock: EZIPEK_clean_linker_0, # of connection points: 2
#     Edge 55, Type (0, 0), BuildingBlock: EZIPEK_clean_linker_0, # of connection points: 2
#     Edge 56, Type (0, 0), BuildingBlock: EZIPEK_clean_linker_0, # of connection points: 2
#     Edge 57, Type (0, 0), BuildingBlock: EZIPEK_clean_linker_0, # of connection points: 2
#     Edge 58, Type (0, 0), BuildingBlock: EZIPEK_clean_linker_0, # of connection points: 2
#     Edge 59, Type (0, 0), BuildingBlock: EZIPEK_clean_linker_0, # of connection points: 2
#     Edge 60, Type (0, 0), BuildingBlock: EZIPEK_clean_linker_0, # of connection points: 2
#     Edge 61, Type (0, 0), BuildingBlock: EZIPEK_clean_linker_0, # of connection points: 2
#     Edge 62, Type (0, 0), BuildingBlock: EZIPEK_clean_linker_0, # of connection points: 2
#     Edge 63, Type (0, 0), BuildingBlock: EZIPEK_clean_linker_0, # of connection points: 2
# Relax obj value: 0.569
# Max RMSD: 0.276
# Mean RMSD: 0.276
data_MOF--net-whh--node1-VOLQOD_clean_sbu_1--edge1-EZIPEK_clean_linker_0
_symmetry_space_group_name_H-M    P1
_symmetry_Int_Tables_number       1
_symmetry_cell_setting            triclinic
loop_
_symmetry_equiv_pos_as_xyz
'x, y, z'
_cell_length_a     25.89891
_cell_length_b     25.877542
_cell_length_c     38.682125
_cell_angle_alpha  90.011596
_cell_angle_beta   90.247169
_cell_angle_gamma 90.566454
loop_
_atom_site_label
_atom_site_type_symbol
_atom_site_fract_x
_atom_site_fract_y
_atom_site_fract_z
_atom_type_partial_charge
O0 O 0.0773 0.53931 0.09659 0.0
Zn1 Zn 0.08607 0.58414 0.14236 0.0
O2 O 0.02379 0.62471 0.13943 0.0
Zn3 Zn 0.96747 0.59599 0.16493 0.0
Zn4 Zn 0.00449 0.62603 0.09129 0.0
Zn5 Zn 0.03249 0.69348 0.15384 0.0
O6 O 0.93316 0.64904 0.19455 0.0
O7 O 0.00185 0.7009 0.20059 0.0
O8 O 0.07899 0.53877 0.1885 0.0
O9 O 0.99465 0.54555 0.19867 0.0
O10 O 0.91874 0.5582 0.13392 0.0
O11 O 0.95272 0.5713 0.08201 0.0
O12 O 0.97178 0.6915 0.07678 0.0
O13 O 0.14824 0.63966 0.14342 0.0
O14 O 0.98972 0.73819 0.12359 0.0
O15 O 0.10709 0.71399 0.15285 0.0
C16 C 0.06816 0.55836 0.06649 0.0
C17 C 0.95791 0.68439 0.21065 0.0
C18 C 0.91983 0.54987 0.10152 0.0
C19 C 0.03857 0.52758 0.20655 0.0
C20 C 0.96814 0.73275 0.09421 0.0
C21 C 0.14873 0.68917 0.14815 0.0
O22 O 0.06569 0.60718 0.06494 0.0
O23 O 0.94586 0.06977 0.1156 0.0
Zn24 Zn 0.89865 0.08329 0.15905 0.0
O25 O 0.84758 0.02984 0.15603 0.0
Zn26 Zn 0.87227 0.96798 0.17622 0.0
Zn27 Zn 0.83176 0.01332 0.10908 0.0
Zn28 Zn 0.78508 0.05036 0.17638 0.0
O29 O 0.81757 0.93444 0.20503 0.0
O30 O 0.76416 0.00016 0.21271 0.0
O31 O 0.94024 0.06955 0.20502 0.0
O32 O 0.93011 0.98407 0.20947 0.0
O33 O 0.88982 0.91812 0.13904 0.0
O34 O 0.82629 0.93708 0.10233 0.0
O35 O 0.76958 0.04677 0.09053 0.0
O36 O 0.85289 0.15101 0.15986 0.0
O37 O 0.72955 0.0548 0.14053 0.0
O38 O 0.79087 0.12131 0.19453 0.0
C39 C 0.93479 0.04757 0.08666 0.0
C40 C 0.77904 0.95462 0.21984 0.0
C41 C 0.86178 0.9073 0.11283 0.0
C42 C 0.9498 0.02646 0.22029 0.0
C43 C 0.72939 0.05715 0.10762 0.0
C44 C 0.81136 0.15808 0.17752 0.0
O45 O 0.89018 0.02975 0.08032 0.0
O46 O 0.4214 0.96709 0.10461 0.0
Zn47 Zn 0.40475 0.92091 0.14891 0.0
O48 O 0.46249 0.87338 0.14776 0.0
Zn49 Zn 0.51955 0.89806 0.17473 0.0
Zn50 Zn 0.48151 0.8702 0.09948 0.0
Zn51 Zn 0.44689 0.80571 0.16213 0.0
O52 O 0.54986 0.84256 0.20493 0.0
O53 O 0.4795 0.7924 0.20819 0.0
O54 O 0.41224 0.96501 0.19541 0.0
O55 O 0.49468 0.95004 0.20828 0.0
O56 O 0.56934 0.93523 0.14441 0.0
O57 O 0.53981 0.91839 0.09147 0.0
O58 O 0.49764 0.80037 0.08191 0.0
O59 O 0.33782 0.87132 0.1466 0.0
O60 O 0.47681 0.75574 0.12886 0.0
O61 O 0.3707 0.79457 0.16127 0.0
C62 C 0.42861 0.94754 0.07451 0.0
C63 C 0.52358 0.80693 0.21957 0.0
C64 C 0.57074 0.94158 0.11179 0.0
C65 C 0.45234 0.97227 0.21476 0.0
C66 C 0.49452 0.75806 0.09826 0.0
C67 C 0.33235 0.82254 0.15318 0.0
O68 O 0.42429 0.89895 0.07286 0.0
O69 O 0.52833 0.41434 0.11688 0.0
Zn70 Zn 0.57724 0.40277 0.15979 0.0
O71 O 0.62664 0.45834 0.15328 0.0
Zn72 Zn 0.60275 0.52001 0.17493 0.0
Zn73 Zn 0.63204 0.46696 0.10351 0.0
Zn74 Zn 0.69228 0.44172 0.17105 0.0
O75 O 0.6582 0.5552 0.20285 0.0
O76 O 0.71167 0.48916 0.20951 0.0
O77 O 0.53691 0.4175 0.20588 0.0
O78 O 0.54788 0.50285 0.20969 0.0
O79 O 0.57672 0.56771 0.13901 0.0
O80 O 0.5996 0.533 0.08862 0.0
O81 O 0.70314 0.46231 0.08551 0.0
O82 O 0.6238 0.3353 0.16135 0.0
O83 O 0.74522 0.44564 0.13402 0.0
O84 O 0.69509 0.36911 0.18543 0.0
C85 C 0.54454 0.41644 0.08566 0.0
C86 C 0.69651 0.53417 0.21765 0.0
C87 C 0.57879 0.56866 0.10615 0.0
C88 C 0.52807 0.46088 0.22087 0.0
C89 C 0.74459 0.45175 0.10138 0.0
C90 C 0.66937 0.33033 0.1746 0.0
O91 O 0.59251 0.41103 0.08159 0.0
O92 O 0.05293 0.94503 0.45735 0.0
Zn93 Zn 0.07316 0.90135 0.41251 0.0
O94 O 0.02134 0.84819 0.40966 0.0
Zn95 Zn 0.96121 0.87048 0.38635 0.0
Zn96 Zn -0.00121 0.82828 0.45445 0.0
Zn97 Zn 0.04757 0.78816 0.38874 0.0
O98 O 0.93605 0.81788 0.35219 0.0
O99 O 0.00436 0.76682 0.34849 0.0
O100 O 0.06238 0.94558 0.36696 0.0
O101 O 0.97796 0.93255 0.35783 0.0
O102 O 0.90556 0.88103 0.42056 0.0
O103 O 0.92271 0.81543 0.45585 0.0
O104 O 0.03654 0.76904 0.47363 0.0
O105 O 0.14266 0.85688 0.41428 0.0
O106 O 0.05158 0.73146 0.42338 0.0
O107 O 0.11956 0.79865 0.37475 0.0
C108 C 0.02401 0.93179 0.48301 0.0
C109 C 0.96016 0.78113 0.33794 0.0
C110 C 0.89263 0.85031 0.4448 0.0
C111 C 0.02045 0.9547 0.35001 0.0
C112 C 0.05135 0.73034 0.45632 0.0
C113 C 0.15314 0.81711 0.39543 0.0
O114 O 0.00469 0.88688 0.48498 0.0
O115 O 0.54065 0.08766 0.45233 0.0
Zn116 Zn 0.58396 0.09156 0.40595 0.0
O117 O 0.62266 0.02838 0.40983 0.0
Zn118 Zn 0.59077 0.97127 0.38666 0.0
Zn119 Zn 0.62605 0.01413 0.4585 0.0
Zn120 Zn 0.69108 0.03318 0.39451 0.0
O121 O 0.64152 0.93311 0.3577 0.0
O122 O 0.69547 -0.00066 0.34846 0.0
O123 O 0.53711 0.08314 0.36058 0.0
O124 O 0.53979 0.99779 0.35277 0.0
O125 O 0.55505 0.9249 0.42007 0.0
O126 O 0.57216 0.96342 0.47022 0.0
O127 O 0.69017 0.98055 0.47375 0.0
O128 O 0.64136 0.15123 0.40341 0.0
O129 O 0.73422 0.98868 0.42497 0.0
O130 O 0.71433 0.10745 0.3944 0.0
C131 C 0.56121 0.08067 0.48228 0.0
C132 C 0.6773 0.95494 0.34046 0.0
C133 C 0.54972 0.92864 0.45264 0.0
C134 C 0.52363 0.04202 0.34377 0.0
C135 C 0.72924 0.97087 0.45543 0.0
C136 C 0.69072 0.15004 0.39858 0.0
O137 O 0.60997 0.07807 0.48287 0.0
O138 O 0.41795 0.53585 0.45627 0.0
Zn139 Zn 0.40167 0.58368 0.41294 0.0
O140 O 0.45742 0.63428 0.41649 0.0
Zn141 Zn 0.51725 0.61367 0.3913 0.0
Zn142 Zn 0.47331 0.6399 0.46564 0.0
Zn143 Zn 0.4378 0.69939 0.39937 0.0
O144 O 0.54712 0.67003 0.36138 0.0
O145 O 0.47775 0.71952 0.35746 0.0
O146 O 0.41367 0.54197 0.36657 0.0
O147 O 0.49735 0.55833 0.35788 0.0
O148 O 0.56955 0.58669 0.42378 0.0
O149 O 0.54044 0.60538 0.47644 0.0
O150 O 0.47179 0.71167 0.48357 0.0
O151 O 0.33239 0.62918 0.41299 0.0
O152 O 0.44691 0.75184 0.43588 0.0
O153 O 0.36375 0.70233 0.39033 0.0
C154 C 0.42412 0.55305 0.48715 0.0
C155 C 0.52219 0.70631 0.34698 0.0
C156 C 0.57397 0.58581 0.45653 0.0
C157 C 0.45555 0.5354 0.34936 0.0
C158 C 0.45802 0.75236 0.46793 0.0
C159 C 0.32595 0.67537 0.401 0.0
O160 O 0.41995 0.6013 0.49096 0.0
O161 O 0.96838 0.42041 0.44588 0.0
Zn162 Zn 0.92104 0.40665 0.40163 0.0
O163 O 0.87309 0.46392 0.40526 0.0
Zn164 Zn 0.89804 0.52247 0.3801 0.0
Zn165 Zn 0.87059 0.47982 0.45401 0.0
Zn166 Zn 0.80495 0.44875 0.39106 0.0
O167 O 0.84134 0.55686 0.35369 0.0
O168 O 0.78959 0.4879 0.34767 0.0
O169 O 0.96365 0.41687 0.35497 0.0
O170 O 0.94785 0.49977 0.3442 0.0
O171 O 0.93644 0.56961 0.41166 0.0
O172 O 0.91751 0.53855 0.46373 0.0
O173 O 0.80104 0.49368 0.47276 0.0
O174 O 0.87218 0.33951 0.40223 0.0
O175 O 0.75472 0.47245 0.4267 0.0
O176 O 0.79539 0.37233 0.38751 0.0
C177 C 0.94935 0.4257 0.47626 0.0
C178 C 0.80418 0.53318 0.33871 0.0
C179 C 0.94147 0.57004 0.44438 0.0
C180 C 0.9699 0.45775 0.33635 0.0
C181 C 0.75777 0.48839 0.4578 0.0
C182 C 0.82374 0.33384 0.39475 0.0
O183 O 0.90085 0.4209 0.47814 0.0
O184 O 0.91371 0.4664 0.94497 0.0
Zn185 Zn 0.90706 0.42029 0.8996 0.0
O186 O 0.97092 0.38234 0.90261 0.0
Zn187 Zn 0.02695 0.41295 0.87729 0.0
Zn188 Zn 0.98851 0.38274 0.95091 0.0
Zn189 Zn 0.96461 0.31252 0.88938 0.0
O190 O 0.06401 0.3584 0.84952 0.0
O191 O 0.99735 0.30392 0.84324 0.0
O192 O 0.91268 0.46467 0.85297 0.0
O193 O 0.99729 0.4611 0.84219 0.0
O194 O 0.07424 0.45363 0.90917 0.0
O195 O 0.03767 0.43942 0.96017 0.0
O196 O 0.02395 0.31955 0.96654 0.0
O197 O 0.84687 0.36245 0.89996 0.0
O198 O 0.00905 0.27021 0.92052 0.0
O199 O 0.89006 0.28916 0.89113 0.0
C200 C 0.92216 0.44768 0.97525 0.0
C201 C 0.04172 0.32072 0.83405 0.0
C202 C 0.07112 0.46188 0.94161 0.0
C203 C 0.95235 0.47701 0.83445 0.0
C204 C 0.02991 0.27789 0.94991 0.0
C205 C 0.84766 0.31278 0.89608 0.0
O206 O 0.92604 0.39897 0.97688 0.0
O207 O 0.05625 0.93355 0.95515 0.0
Zn208 Zn 0.10482 0.91919 0.91218 0.0
O209 O 0.15522 0.97395 0.91547 0.0
Zn210 Zn 0.13224 0.03129 0.88816 0.0
Zn211 Zn 0.16881 0.99665 0.96208 0.0
Zn212 Zn 0.21964 0.95109 0.8997 0.0
O213 O 0.18156 0.04471 0.84905 0.0
O214 O 0.24919 -0.00156 0.8652 0.0
O215 O 0.06645 0.93118 0.86434 0.0
O216 O 0.06487 0.0169 0.86439 0.0
O217 O 0.12655 0.09314 0.91827 0.0
O218 O 0.1721 0.07361 0.9654 0.0
O219 O 0.23059 0.96657 0.98515 0.0
O220 O 0.14965 0.85023 0.91212 0.0
O221 O 0.26972 0.94355 0.93722 0.0
O222 O 0.21531 0.88052 0.88097 0.0
C223 C 0.06553 0.95897 0.98324 0.0
C224 C 0.22766 0.02978 0.84456 0.0
C225 C 0.14643 0.10538 0.94732 0.0
C226 C 0.05093 0.974 0.85116 0.0
C227 C 0.26936 0.94785 0.96987 0.0
C228 C 0.19233 0.84309 0.89573 0.0
O229 O 0.1086 0.98072 0.98905 0.0
O230 O 0.58755 0.02889 0.95235 0.0
Zn231 Zn 0.59786 0.0732 0.90629 0.0
O232 O 0.53699 0.11622 0.90924 0.0
Zn233 Zn 0.47872 0.0882 0.8839 0.0
Zn234 Zn 0.52021 0.12059 0.9576 0.0
Zn235 Zn 0.54879 0.18442 0.89533 0.0
O236 O 0.44733 0.14111 0.85143 0.0
O237 O 0.51735 0.19172 0.84953 0.0
O238 O 0.58871 0.0284 0.85965 0.0
O239 O 0.50423 0.03618 0.85025 0.0
O240 O 0.42963 0.05203 0.91668 0.0
O241 O 0.46626 0.06943 0.96757 0.0
O242 O 0.49315 0.18846 0.97294 0.0
O243 O 0.66251 0.12643 0.90573 0.0
O244 O 0.51061 0.23209 0.92509 0.0
O245 O 0.62425 0.20219 0.89601 0.0
C246 C 0.58057 0.049 0.98241 0.0
C247 C 0.47456 0.17601 0.83672 0.0
C248 C 0.43234 0.04654 0.94945 0.0
C249 C 0.54773 0.01794 0.84168 0.0
C250 C 0.49059 0.22921 0.95491 0.0
C251 C 0.66495 0.17591 0.90096 0.0
O252 O 0.5809 0.09792 0.98358 0.0
O253 O 0.45199 0.56642 0.95693 0.0
Zn254 Zn 0.41231 0.58476 0.90965 0.0
O255 O 0.35778 0.53291 0.9064 0.0
Zn256 Zn 0.37205 0.48022 0.87307 0.0
Zn257 Zn 0.33953 0.50046 0.94923 0.0
Zn258 Zn 0.29533 0.5648 0.89412 0.0
O259 O 0.31225 0.46872 0.84072 0.0
O260 O 0.25346 0.51816 0.86456 0.0
O261 O 0.46055 0.57553 0.86502 0.0
O262 O 0.43163 0.50041 0.84384 0.0
O263 O 0.39001 0.41647 0.89918 0.0
O264 O 0.34173 0.42409 0.94624 0.0
O265 O 0.27271 0.52203 0.96987 0.0
O266 O 0.36981 0.65551 0.90951 0.0
O267 O 0.25034 0.58281 0.93332 0.0
O268 O 0.3097 0.63125 0.87167 0.0
C269 C 0.43743 0.53816 0.9827 0.0
C270 C 0.26623 0.48535 0.84199 0.0
C271 C 0.37245 0.39857 0.9275 0.0
C272 C 0.46254 0.53874 0.84253 0.0
C273 C 0.24261 0.55828 0.96116 0.0
C274 C 0.33002 0.66604 0.89062 0.0
O275 O 0.39426 0.51477 0.982 0.0
O276 O 0.92291 0.04256 0.62087 0.0
Zn277 Zn 0.92076 0.09881 0.66066 0.0
O278 O 0.97626 0.14325 0.64595 0.0
Zn279 Zn 0.03797 0.11681 0.66611 0.0
Zn280 Zn 0.97767 0.14075 0.59599 0.0
Zn281 Zn 0.96712 0.21249 0.65869 0.0
O282 O 0.06712 0.16734 0.70195 0.0
O283 O 0.0093 0.23035 0.69973 0.0
O284 O 0.94489 0.06838 0.70923 0.0
O285 O 0.02271 0.04948 0.6911 0.0
O286 O 0.08802 0.10144 0.62878 0.0
O287 O 0.04156 0.10602 0.58016 0.0
O288 O 0.97548 0.20887 0.57297 0.0
O289 O 0.85509 0.14819 0.66227 0.0
O290 O 0.98477 0.25828 0.61958 0.0
O291 O 0.89377 0.22544 0.66733 0.0
C292 C 0.92056 0.05293 0.58844 0.0
C293 C 0.04867 0.20955 0.71338 0.0
C294 C 0.08316 0.09601 0.59621 0.0
C295 C 0.98856 0.04636 0.7145 0.0
C296 C 0.98248 0.25258 0.58694 0.0
C297 C 0.85315 0.19775 0.66606 0.0
O298 O 0.91837 0.10007 0.58009 0.0
O299 O 0.4711 0.92183 0.60142 0.0
Zn300 Zn 0.4211 0.91085 0.64434 0.0
O301 O 0.3782 0.9723 0.63948 0.0
Zn302 Zn 0.40744 0.02903 0.6659 0.0
Zn303 Zn 0.37617 0.98746 0.59032 0.0
Zn304 Zn 0.30867 0.96152 0.65112 0.0
O305 O 0.35487 0.05973 0.69823 0.0
O306 O 0.29628 0.99637 0.69504 0.0
O307 O 0.46373 0.91809 0.69151 0.0
O308 O 0.46102 0.00315 0.69967 0.0
O309 O 0.43961 0.08059 0.63328 0.0
O310 O 0.42114 0.04786 0.58128 0.0
O311 O 0.30767 0.00208 0.5693 0.0
O312 O 0.36717 0.84661 0.64368 0.0
O313 O 0.26136 0.99113 0.61664 0.0
O314 O 0.29242 0.88639 0.6538 0.0
C315 C 0.45363 0.92964 0.57079 0.0
C316 C 0.31513 0.03626 0.70985 0.0
C317 C 0.44256 0.08171 0.60036 0.0
C318 C 0.47677 0.95874 0.70889 0.0
C319 C 0.26504 0.00379 0.58504 0.0
C320 C 0.31783 0.84526 0.64898 0.0
O321 O 0.40521 0.92695 0.56775 0.0
O322 O 0.58231 0.47112 0.60937 0.0
Zn323 Zn 0.59843 0.4224 0.65234 0.0
O324 O 0.54423 0.37001 0.64682 0.0
Zn325 Zn 0.4853 0.38634 0.67496 0.0
Zn326 Zn 0.52745 0.36831 0.59783 0.0
Zn327 Zn 0.56662 0.30233 0.65532 0.0
O328 O 0.4657 0.32692 0.70669 0.0
O329 O 0.52293 0.26911 0.68998 0.0
O330 O 0.58512 0.46325 0.6992 0.0
O331 O 0.50242 0.44344 0.70826 0.0
O332 O 0.42891 0.4105 0.64337 0.0
O333 O 0.46264 0.40545 0.59036 0.0
O334 O 0.5209 0.299 0.57561 0.0
O335 O 0.66861 0.379 0.653 0.0
O336 O 0.56412 0.25623 0.61505 0.0
O337 O 0.63874 0.30176 0.67007 0.0
C338 C 0.57677 0.45442 0.57831 0.0
C339 C 0.48635 0.28265 0.70957 0.0
C340 C 0.42663 0.4178 0.61076 0.0
C341 C 0.54321 0.46821 0.71666 0.0
C342 C 0.54278 0.25804 0.58557 0.0
C343 C 0.67604 0.3321 0.66333 0.0
O344 O 0.58247 0.40644 0.57421 0.0
O345 O 0.02907 0.58688 0.5981 0.0
Zn346 Zn 0.07361 0.60128 0.64322 0.0
O347 O 0.1184 0.54232 0.64126 0.0
Zn348 Zn 0.08807 0.48329 0.66329 0.0
Zn349 Zn 0.12957 0.52995 0.59255 0.0
Zn350 Zn 0.1827 0.55377 0.662 0.0
O351 O 0.13615 0.44893 0.69681 0.0
O352 O 0.18376 0.51903 0.70783 0.0
O353 O 0.02771 0.59159 0.68845 0.0
O354 O 0.03071 0.50604 0.69395 0.0
O355 O 0.06264 0.43395 0.6278 0.0
O356 O 0.0915 0.46692 0.57834 0.0
O357 O 0.20305 0.52179 0.57987 0.0
O358 O 0.12665 0.66616 0.64341 0.0
O359 O 0.23657 0.52265 0.63288 0.0
O360 O 0.19854 0.62919 0.66352 0.0
C361 C 0.04886 0.58056 0.56805 0.0
C362 C 0.16752 0.474 0.71597 0.0
C363 C 0.06677 0.43269 0.59502 0.0
C364 C 0.01376 0.54956 0.7039 0.0
C365 C 0.2405 0.51501 0.60053 0.0
C366 C 0.17447 0.66904 0.65327 0.0
O367 O 0.09737 0.58593 0.56643 0.0
C368 C 0.83723 0.43171 0.10009 0.0
C369 C 0.79452 0.45367 0.08316 0.0
C370 C 0.84649 0.52518 0.06233 0.0
C371 C 0.88434 0.51105 0.08717 0.0
N372 N 0.92482 0.44483 0.12138 0.0
N373 N 0.76837 0.49854 0.03187 0.0
C374 C 0.88317 0.46146 0.10279 0.0
C375 C 0.80263 0.49271 0.05839 0.0
N376 N 0.83182 0.38402 0.11475 0.0
N377 N 0.85001 0.57107 0.04503 0.0
H378 H 0.73783 0.47247 0.02811 0.0
H379 H 0.77381 0.52463 1.01168 0.0
H380 H 0.88182 0.59583 0.04693 0.0
H381 H 0.82031 0.58562 0.02975 0.0
H382 H 0.86105 0.36467 0.12776 0.0
H383 H 0.79748 0.36282 0.112 0.0
H384 H 0.92572 0.41045 0.13527 0.0
H385 H 0.95963 0.46552 0.12205 0.0
C386 C 0.88185 0.76635 0.1058 0.0
C387 C 0.92728 0.76918 0.08566 0.0
C388 C 0.90682 0.85684 0.06824 0.0
C389 C 0.87059 0.85806 0.09547 0.0
N390 N 0.81631 0.81433 0.13651 0.0
N391 N 0.97905 0.81137 0.04261 0.0
C392 C 0.85472 0.81238 0.11244 0.0
C393 C 0.93785 0.81234 0.06449 0.0
N394 N 0.86635 0.71999 0.11938 0.0
N395 N 0.91222 0.89877 0.04714 0.0
H396 H 0.00116 0.77822 0.03931 0.0
H397 H 0.99151 0.84291 0.02811 0.0
H398 H 0.8895 0.93156 0.05003 0.0
H399 H 0.93554 0.89947 1.02531 0.0
H400 H 0.83201 0.71448 0.13281 0.0
H401 H 0.88621 0.68582 0.11459 0.0
H402 H 0.80671 0.78391 0.15293 0.0
H403 H 0.79471 0.84765 0.1405 0.0
C404 C 0.59568 0.03427 0.11354 0.0
C405 C 0.60166 0.98466 0.09829 0.0
C406 C 0.67273 0.01849 0.06435 0.0
C407 C 0.67905 0.05703 0.08968 0.0
N408 N 0.63804 0.11608 0.12781 0.0
N409 N 0.64182 0.9313 0.05466 0.0
C410 C 0.63626 0.07082 0.10979 0.0
C411 C 0.6379 0.97753 0.07138 0.0
N412 N 0.55171 0.04578 0.13122 0.0
N413 N 0.70232 0.01983 0.03536 0.0
H414 H 0.61749 0.8999 0.05962 0.0
H415 H 0.67118 0.92343 0.03716 0.0
H416 H 0.72787 0.05057 0.03084 0.0
H417 H 0.69747 0.9939 1.01495 0.0
H418 H 0.54408 0.08215 0.14134 0.0
H419 H 0.52066 0.0199 0.133 0.0
H420 H 0.61076 0.127 0.14601 0.0
H421 H 0.6686 0.14222 0.1244 0.0
C422 C 0.56329 0.70204 0.07286 0.0
C423 C 0.51097 0.7094 0.0823 0.0
C424 C 0.49956 0.61817 0.09434 0.0
C425 C 0.553 0.61138 0.08859 0.0
N426 N 0.63133 0.64063 0.06109 0.0
N427 N 0.42551 0.67331 0.08632 0.0
C428 C 0.58321 0.65112 0.07339 0.0
C429 C 0.47772 0.66658 0.08704 0.0
N430 N 0.59482 0.74351 0.06638 0.0
N431 N 0.47082 0.57996 0.1095 0.0
H432 H 0.40935 0.70931 0.08106 0.0
H433 H 0.39905 0.64277 0.08748 0.0
H434 H 0.48531 0.54319 0.1144 0.0
H435 H 0.43355 0.58565 0.1187 0.0
H436 H 0.63477 0.74094 0.06427 0.0
H437 H 0.58132 0.78109 0.06401 0.0
H438 H 0.65355 0.6672 0.04727 0.0
H439 H 0.64708 0.60375 0.06188 0.0
C440 C 0.84207 0.89543 0.48861 0.0
C441 C 0.84292 0.85907 0.46136 0.0
C442 C 0.75537 0.88109 0.44515 0.0
C443 C 0.76134 0.92687 0.46491 0.0
N444 N 0.80279 0.97351 0.51119 0.0
N445 N 0.79887 0.80905 0.41807 0.0
C446 C 0.80181 0.93221 0.48923 0.0
C447 C 0.7982 0.84816 0.44175 0.0
N448 N 0.881 0.89569 0.51245 0.0
N449 N 0.70929 0.87039 0.42921 0.0
H450 H 0.82998 0.78378 0.4164 0.0
H451 H 0.76985 0.80251 0.39984 0.0
H452 H 0.6773 0.89432 0.43178 0.0
H453 H 0.70144 0.83615 0.41599 0.0
H454 H 0.88191 0.91949 0.53411 0.0
H455 H 0.91022 0.86823 0.51188 0.0
H456 H 0.83277 0.98144 0.52839 0.0
H457 H 0.77294 0.00028 0.51198 0.0
C458 C 0.53612 0.85725 0.49515 0.0
C459 C 0.51563 0.89212 0.47027 0.0
C460 C 0.43495 0.8435 0.46862 0.0
C461 C 0.46122 0.80304 0.4851 0.0
N462 N 0.5185 0.78263 0.53164 0.0
N463 N 0.44275 0.92519 0.43832 0.0
C464 C 0.50559 0.81408 0.50477 0.0
C465 C 0.46344 0.88809 0.45921 0.0
N466 N 0.5858 0.86234 0.50681 0.0
N467 N 0.38412 0.83668 0.46029 0.0
H468 H 0.46218 0.9597 0.43271 0.0
H469 H 0.40656 0.9221 0.42668 0.0
H470 H 0.36448 0.8027 0.46708 0.0
H471 H 0.36114 0.86505 0.44922 0.0
H472 H 0.604 0.83457 0.52191 0.0
H473 H 0.61008 0.89297 0.50005 0.0
H474 H 0.54901 0.79037 0.54855 0.0
H475 H 0.49447 0.75198 0.53906 0.0
C476 C 0.61755 0.50172 0.46176 0.0
C477 C 0.61582 0.55471 0.47105 0.0
C478 C 0.70489 0.55153 0.49189 0.0
C479 C 0.70925 0.50305 0.47517 0.0
N480 N 0.6677 0.42294 0.46054 0.0
N481 N 0.65421 0.62941 0.49857 0.0
C482 C 0.66442 0.47498 0.46584 0.0
C483 C 0.65792 0.57905 0.48829 0.0
N484 N 0.57557 0.47844 0.44659 0.0
N485 N 0.74488 0.57049 0.51136 0.0
H486 H 0.6199 0.65002 0.49698 0.0
H487 H 0.68531 0.65154 0.50741 0.0
H488 H 0.77763 0.54893 0.51686 0.0
H489 H 0.74319 0.60448 0.52565 0.0
H490 H 0.57661 0.44236 0.43473 0.0
H491 H 0.53952 0.49602 0.44517 0.0
H492 H 0.636 0.39893 0.45573 0.0
H493 H 0.70234 0.40332 0.4643 0.0
C494 C 0.01298 0.67069 0.49703 0.0
C495 C 0.05303 0.67949 0.47336 0.0
C496 C 0.03347 0.59773 0.44564 0.0
C497 C 0.98281 0.60173 0.45949 0.0
N498 N 0.92505 0.63994 0.50138 0.0
N499 N 0.11601 0.64188 0.4367 0.0
C500 C 0.97293 0.63646 0.48701 0.0
C501 C 0.06917 0.63831 0.45247 0.0
N502 N 0.01156 0.69832 0.52694 0.0
N503 N 0.04675 0.55569 0.42635 0.0
H504 H 0.14115 0.67259 0.44231 0.0
H505 H 0.1294 0.61581 0.41841 0.0
H506 H 0.0217 0.52434 0.42254 0.0
H507 H 0.08356 0.54977 0.41656 0.0
H508 H 0.98404 0.6918 0.54608 0.0
H509 H 0.04142 0.72409 0.53337 0.0
H510 H 0.9156 0.66841 0.51928 0.0
H511 H 0.89397 0.61652 0.49398 0.0
C512 C 0.10976 0.55053 0.94498 0.0
C513 C 0.10635 0.49933 0.95821 0.0
C514 C 0.17687 0.51885 0.99823 0.0
C515 C 0.19037 0.56023 0.97659 0.0
N516 N 0.15655 0.63292 0.94651 0.0
N517 N 0.13423 0.43565 1.0005 0.0
C518 C 0.15148 0.58245 0.95607 0.0
C519 C 0.13781 0.48421 0.98677 0.0
N520 N 0.07418 0.56763 0.92154 0.0
N521 N 0.20451 0.51115 0.02777 0.0
H522 H 0.10811 0.40762 0.99189 0.0
H523 H 0.15981 0.42181 1.01907 0.0
H524 H 0.23434 0.5366 0.03481 0.0
H525 H 0.19484 0.48329 0.04615 0.0
H526 H 0.077 0.60286 0.90872 0.0
H527 H 0.04121 0.5462 0.915 0.0
H528 H 0.12911 0.65307 0.93232 0.0
H529 H 0.18769 0.65525 0.9554 0.0
C530 C 0.11829 0.24491 0.94319 0.0
C531 C 0.07049 0.2424 0.96081 0.0
C532 C 0.09309 0.15924 0.98567 0.0
C533 C 0.13367 0.15634 0.96126 0.0
N534 N 0.19177 0.1973 0.92145 0.0
N535 N 0.01486 0.20345 1.00311 0.0
C536 C 0.14926 0.2002 0.94214 0.0
C537 C 0.0592 0.20196 0.98414 0.0
N538 N 0.13292 0.28965 0.92699 0.0
N539 N 0.08617 0.12032 1.0091 0.0
H540 H 0.99048 0.23533 1.00283 0.0
H541 H 0.00166 0.17336 1.01862 0.0
H542 H 0.11076 0.08878 1.01061 0.0
H543 H 0.05914 0.12113 0.02889 0.0
H544 H 0.16861 0.29526 0.91527 0.0
H545 H 0.1105 0.32294 0.92764 0.0
H546 H 0.2026 0.22556 0.90371 0.0
H547 H 0.21594 0.16522 0.92184 0.0
C548 C 0.35909 0.92304 0.96797 0.0
C549 C 0.31948 0.94467 0.98785 0.0
C550 C 0.36718 0.0242 0.99506 0.0
C551 C 0.39871 0.00887 0.96683 0.0
N552 N 0.43625 0.93926 0.93387 0.0
N553 N 0.30485 0.99549 0.03813 0.0
C554 C 0.39891 0.95636 0.95584 0.0
C555 C 0.33128 0.98785 1.00826 0.0
N556 N 0.35433 0.87265 0.95815 0.0
N557 N 0.36824 0.07378 1.00715 0.0
H558 H 0.27745 0.96841 0.04654 0.0
H559 H 0.31345 0.0253 0.0554 0.0
H560 H 0.39271 0.10232 0.99738 0.0
H561 H 0.34242 0.08737 1.02553 0.0
H562 H 0.38078 0.8532 0.94289 0.0
H563 H 0.32338 0.85012 0.96694 0.0
H564 H 0.43751 0.90197 0.92393 0.0
H565 H 0.46751 0.96236 0.92638 0.0
C566 C 0.48433 0.32253 0.9624 0.0
C567 C 0.46039 0.27374 0.96619 0.0
C568 C 0.3759 0.30945 0.95265 0.0
C569 C 0.40091 0.35665 0.94421 0.0
N570 N 0.47516 0.41361 0.94967 0.0
N571 N 0.38361 0.22448 0.97876 0.0
C572 C 0.45402 0.3651 0.9522 0.0
C573 C 0.40596 0.26862 0.96628 0.0
N574 N 0.53667 0.32649 0.96659 0.0
N575 N 0.32445 0.30284 0.94571 0.0
H576 H 0.40529 0.19527 0.99006 0.0
H577 H 0.34394 0.21918 0.98143 0.0
H578 H 0.30147 0.3323 0.93584 0.0
H579 H 0.30502 0.26759 0.94785 0.0
H580 H 0.55874 0.35872 0.95998 0.0
H581 H 0.55833 0.29575 0.97618 0.0
H582 H 0.51341 0.42264 0.95529 0.0
H583 H 0.45371 0.44615 0.94336 0.0
C584 C 0.16272 0.09524 0.56049 0.0
C585 C 0.12362 0.06778 0.57838 0.0
C586 C 0.17375 0.98927 0.57524 0.0
C587 C 0.21743 0.01975 0.5675 0.0
N588 N 0.25385 0.0993 0.54586 0.0
N589 N 0.09152 0.98872 0.60395 0.0
C590 C 0.21179 0.07176 0.5568 0.0
C591 C 0.12818 0.01428 0.58509 0.0
N592 N 0.15336 0.14397 0.54865 0.0
N593 N 0.17782 0.93676 0.57592 0.0
H594 H 0.05646 0.00529 0.61083 0.0
H595 H 0.09758 0.95226 0.61457 0.0
H596 H 0.21221 0.91852 0.56926 0.0
H597 H 0.14643 0.91203 0.58 0.0
H598 H 0.1792 0.16508 0.53356 0.0
H599 H 0.11762 0.16162 0.5518 0.0
H600 H 0.25388 0.13905 0.54178 0.0
H601 H 0.28924 0.08195 0.54106 0.0
C602 C 0.48532 0.2008 0.55114 0.0
C603 C 0.53312 0.20815 0.56789 0.0
C604 C 0.52918 0.12185 0.59214 0.0
C605 C 0.4757 0.12071 0.58388 0.0
N606 N 0.40337 0.1549 0.5515 0.0
N607 N 0.61112 0.168 0.58617 0.0
C608 C 0.45414 0.15802 0.56111 0.0
C609 C 0.55892 0.16512 0.58161 0.0
N610 N 0.47029 0.23505 0.52639 0.0
N611 N 0.55046 0.0832 0.61144 0.0
H612 H 0.63198 0.20073 0.57835 0.0
H613 H 0.6336 0.13752 0.59492 0.0
H614 H 0.53042 0.0493 0.61765 0.0
H615 H 0.58773 0.08478 0.62158 0.0
H616 H 0.43697 0.2306 0.51149 0.0
H617 H 0.49477 0.26507 0.51847 0.0
H618 H 0.38448 0.1838 0.53784 0.0
H619 H 0.37909 0.12443 0.55864 0.0
C620 C 0.33405 0.52663 0.5983 0.0
C621 C 0.29043 0.49749 0.58779 0.0
C622 C 0.34414 0.42214 0.57798 0.0
C623 C 0.38374 0.44751 0.59693 0.0
N624 N 0.4205 0.52482 0.62224 0.0
N625 N 0.25297 0.41938 0.56391 0.0
C626 C 0.38039 0.5005 0.60561 0.0
C627 C 0.29541 0.44624 0.57535 0.0
N628 N 0.32997 0.57892 0.60217 0.0
N629 N 0.35273 0.37477 0.56359 0.0
H630 H 0.21712 0.4364 0.56026 0.0
H631 H 0.25272 0.37982 0.55902 0.0
H632 H 0.38776 0.35557 0.5661 0.0
H633 H 0.32684 0.35641 0.54686 0.0
H634 H 0.36099 0.60333 0.60797 0.0
H635 H 0.29574 0.59824 0.59646 0.0
H636 H 0.41798 0.5615 0.63311 0.0
H637 H 0.4563 0.5075 0.62609 0.0
C638 C 0.06247 0.35616 0.55544 0.0
C639 C 0.03698 0.39331 0.57618 0.0
C640 C 0.95884 0.34061 0.57573 0.0
C641 C 0.98939 0.2988 0.56579 0.0
N642 N 0.06314 0.26655 0.53604 0.0
N643 N 0.95862 0.4253 0.60195 0.0
C644 C 0.03842 0.30708 0.55104 0.0
C645 C 0.98378 0.38757 0.58414 0.0
N646 N 0.10999 0.3667 0.54181 0.0
N647 N 0.90709 0.33297 0.58005 0.0
H648 H 0.97492 0.46173 0.6065 0.0
H649 H 0.92192 0.42044 0.61241 0.0
H650 H 0.88992 0.29713 0.57465 0.0
H651 H 0.88141 0.3623 0.58607 0.0
H652 H 0.12926 0.34208 0.52511 0.0
H653 H 0.12896 0.40197 0.54506 0.0
H654 H 0.10139 0.26746 0.52797 0.0
H655 H 0.04435 0.23127 0.5317 0.0
C656 C 0.9267 0.75876 0.24405 0.0
C657 C 0.93749 0.70544 0.24295 0.0
C658 C 0.93641 0.70175 0.3059 0.0
C659 C 0.93907 0.75637 0.30663 0.0
N660 N 0.93774 0.83818 0.27601 0.0
N661 N 0.95278 0.62478 0.27249 0.0
C662 C 0.93285 0.78552 0.27575 0.0
C663 C 0.94091 0.67607 0.27377 0.0
N664 N 0.9122 0.78372 0.2145 0.0
N665 N 0.93083 0.6748 0.33603 0.0
H666 H 0.95537 0.60431 0.24939 0.0
H667 H 0.9627 0.60323 0.29423 0.0
H668 H 0.92725 0.69331 0.35989 0.0
H669 H 0.92468 0.63497 0.33693 0.0
H670 H 0.8996 0.82184 0.21412 0.0
H671 H 0.90786 0.76432 0.19096 0.0
H672 H 0.94034 0.86028 0.25356 0.0
H673 H 0.94267 0.85996 0.29841 0.0
C674 C 0.67014 0.93322 0.27805 0.0
C675 C 0.69772 0.92976 0.30961 0.0
C676 C 0.77859 0.91641 0.27926 0.0
C677 C 0.75209 0.92713 0.24786 0.0
N678 N 0.67278 0.9242 0.21561 0.0
N679 N 0.77155 0.8992 0.34085 0.0
C680 C 0.69755 0.92731 0.24677 0.0
C681 C 0.74978 0.91423 0.31028 0.0
N682 N 0.61927 0.94665 0.27797 0.0
N683 N 0.8312 0.91303 0.27998 0.0
H684 H 0.75041 0.89804 0.36376 0.0
H685 H 0.80831 0.88353 0.34292 0.0
H686 H 0.85371 0.91173 0.25782 0.0
H687 H 0.85288 0.91277 0.30271 0.0
H688 H 0.59881 0.95617 0.25567 0.0
H689 H 0.59795 0.95031 0.30062 0.0
H690 H 0.63285 0.92086 0.21299 0.0
H691 H 0.69317 0.9201 0.19253 0.0
C692 C 0.53966 0.8126 0.28326 0.0
C693 C 0.54206 0.78386 0.25208 0.0
C694 C 0.54734 0.70305 0.2844 0.0
C695 C 0.54237 0.73167 0.31559 0.0
N696 N 0.55145 0.81271 0.3455 0.0
N697 N 0.5647 0.70546 0.22278 0.0
C698 C 0.54494 0.7863 0.31518 0.0
C699 C 0.55193 0.73024 0.2527 0.0
N700 N 0.52817 0.86402 0.28254 0.0
N701 N 0.54329 0.65032 0.28455 0.0
H702 H 0.56804 0.72499 0.19926 0.0
H703 H 0.57684 0.66722 0.22193 0.0
H704 H 0.54042 0.62839 0.30702 0.0
H705 H 0.5397 0.62822 0.26215 0.0
H706 H 0.51925 0.88528 0.30456 0.0
H707 H 0.52452 0.88495 0.25968 0.0
H708 H 0.55786 0.85249 0.3467 0.0
H709 H 0.55557 0.7938 0.36919 0.0
C710 C 0.77675 0.56407 0.2456 0.0
C711 C 0.72244 0.55966 0.24704 0.0
C712 C 0.72579 0.56632 0.30996 0.0
C713 C 0.77928 0.55639 0.30837 0.0
N714 N 0.85743 0.54784 0.27502 0.0
N715 N 0.6435 0.56178 0.28017 0.0
C716 C 0.80573 0.55761 0.27635 0.0
C717 C 0.69621 0.56413 0.27905 0.0
N718 N 0.80013 0.57243 0.2145 0.0
N719 N 0.70358 0.57642 0.34118 0.0
H720 H 0.62032 0.56213 0.25813 0.0
H721 H 0.6226 0.55773 0.30296 0.0
H722 H 0.72515 0.5779 0.36404 0.0
H723 H 0.66542 0.58796 0.34399 0.0
H724 H 0.83953 0.57988 0.21187 0.0
H725 H 0.77874 0.57688 0.19175 0.0
H726 H 0.87717 0.54122 0.25207 0.0
H727 H 0.88028 0.54356 0.29704 0.0
C728 C 0.08217 0.28769 0.74332 0.0
C729 C 0.06978 0.23429 0.7449 0.0
C730 C 0.07044 0.23917 0.80789 0.0
C731 C 0.06739 0.29352 0.80544 0.0
N732 N 0.07442 0.37116 0.77108 0.0
N733 N 0.05041 0.15854 0.77946 0.0
C734 C 0.0761 0.31853 0.77337 0.0
C735 C 0.06519 0.20925 0.77743 0.0
N736 N 0.0982 0.30872 0.71278 0.0
N737 N 0.07602 0.21655 0.83956 0.0
H738 H 0.04299 0.13582 0.75783 0.0
H739 H 0.04122 0.14021 0.80264 0.0
H740 H 0.07974 0.23846 0.86214 0.0
H741 H 0.08239 0.17714 0.84284 0.0
H742 H 0.11166 0.3466 0.71047 0.0
H743 H 0.10275 0.28631 0.69056 0.0
H744 H 0.07372 0.39098 0.74766 0.0
H745 H 0.07136 0.39508 0.79261 0.0
C746 C 0.30475 0.99683 0.76649 0.0
C747 C 0.30144 0.04212 0.74638 0.0
C748 C 0.25676 0.08493 0.79385 0.0
C749 C 0.25196 0.03614 0.81051 0.0
N750 N 0.25616 0.94274 0.80461 0.0
N751 N 0.27282 0.12978 0.73955 0.0
C752 C 0.27182 0.99115 0.79468 0.0
C753 C 0.27734 0.08678 0.75969 0.0
N754 N 0.33831 0.9585 0.758 0.0
N755 N 0.24278 0.12895 0.81069 0.0
H756 H 0.28876 0.13206 0.71486 0.0
H757 H 0.25112 0.16174 0.74662 0.0
H758 H 0.22818 0.12858 0.83578 0.0
H759 H 0.24952 0.16586 0.80085 0.0
H760 H 0.34352 0.92597 0.77349 0.0
H761 H 0.36458 0.96211 0.73772 0.0
H762 H 0.26717 0.90938 0.79153 0.0
H763 H 0.22678 0.93618 0.82244 0.0
C764 C 0.42356 0.21908 0.78873 0.0
C765 C 0.4659 0.18927 0.80017 0.0
C766 C 0.5192 0.2226 0.75455 0.0
C767 C 0.47668 0.24984 0.74034 0.0
N768 N 0.38415 0.26284 0.73985 0.0
N769 N 0.54398 0.14558 0.78454 0.0
C770 C 0.42717 0.24463 0.75605 0.0
C771 C 0.50946 0.18416 0.77899 0.0
N772 N 0.38134 0.22448 0.80929 0.0
N773 N 0.56925 0.23711 0.7483 0.0
H774 H 0.53752 0.11682 0.80298 0.0
H775 H 0.57557 0.13998 0.76837 0.0
H776 H 0.57941 0.27161 0.73606 0.0
H777 H 0.60053 0.21923 0.76026 0.0
H778 H 0.35159 0.25004 0.80373 0.0
H779 H 0.37762 0.2049 0.83274 0.0
H780 H 0.34696 0.25655 0.74925 0.0
H781 H 0.38531 0.27954 0.71534 0.0
C782 C 0.21514 0.42264 0.76055 0.0
C783 C 0.17582 0.45743 0.75176 0.0
C784 C 0.18744 0.50473 0.80474 0.0
C785 C 0.22876 0.4711 0.81426 0.0
N786 N 0.2634 0.38478 0.80772 0.0
N787 N 0.10729 0.50966 0.77308 0.0
C788 C 0.23662 0.42535 0.79435 0.0
C789 C 0.15535 0.48977 0.77713 0.0
N790 N 0.23295 0.38873 0.73653 0.0
N791 N 0.18185 0.55341 0.81799 0.0
H792 H 0.08386 0.49893 0.75224 0.0
H793 H 0.08951 0.53079 0.79257 0.0
H794 H 0.20911 0.57296 0.83289 0.0
H795 H 0.15323 0.5784 0.8093 0.0
H796 H 0.26536 0.36592 0.74062 0.0
H797 H 0.21596 0.38536 0.71209 0.0
H798 H 0.26751 0.34986 0.79463 0.0
H799 H 0.27556 0.38385 0.83346 0.0
C800 C 0.22733 0.7296 0.11879 0.0
C801 C 0.1981 0.72062 0.14929 0.0
C802 C 0.24954 0.78855 0.17923 0.0
C803 C 0.28141 0.79446 0.14973 0.0
N804 N 0.30453 0.76646 0.0925 0.0
N805 N 0.18641 0.73613 0.21015 0.0
C806 C 0.27127 0.76378 0.1198 0.0
C807 C 0.21058 0.74885 0.17991 0.0
N808 N 0.21193 0.70708 0.08844 0.0
N809 N 0.25644 0.82131 0.20662 0.0
H810 H 0.15881 0.7066 0.2118 0.0
H811 H 0.19687 0.75125 0.23414 0.0
H812 H 0.2847 0.85034 0.20683 0.0
H813 H 0.23164 0.82286 0.22769 0.0
H814 H 0.22757 0.71659 0.06449 0.0
H815 H 0.18091 0.68117 0.08681 0.0
H816 H 0.30358 0.74072 0.07181 0.0
H817 H 0.3351 0.79299 0.09142 0.0
C818 C 0.75535 0.22012 0.14333 0.0
C819 C 0.77968 0.20621 0.17507 0.0
C820 C 0.71943 0.26281 0.20613 0.0
C821 C 0.69869 0.28069 0.17432 0.0
N822 N 0.70398 0.28271 0.11204 0.0
N823 N 0.79063 0.22159 0.23599 0.0
C824 C 0.71847 0.26095 0.14273 0.0
C825 C 0.76324 0.22978 0.20625 0.0
N826 N 0.76542 0.19291 0.11387 0.0
N827 N 0.69649 0.27701 0.23638 0.0
H828 H 0.82341 0.19846 0.23677 0.0
H829 H 0.78419 0.24177 0.25883 0.0
H830 H 0.6639 0.30043 0.23698 0.0
H831 H 0.70641 0.26166 0.26037 0.0
H832 H 0.74411 0.19701 0.09115 0.0
H833 H 0.79227 0.16328 0.11272 0.0
H834 H 0.72209 0.27467 0.08868 0.0
H835 H 0.67628 0.31153 0.11019 0.0
C836 C 0.25842 0.7244 0.36898 0.0
C837 C 0.27537 0.70339 0.40092 0.0
C838 C 0.21394 0.76047 0.43109 0.0
C839 C 0.20141 0.7854 0.39925 0.0
N840 N 0.22031 0.79697 0.33886 0.0
N841 N 0.27485 0.70782 0.46316 0.0
C842 C 0.22632 0.76892 0.36852 0.0
C843 C 0.25454 0.72312 0.43221 0.0
N844 N 0.27293 0.70121 0.33886 0.0
N845 N 0.18565 0.77028 0.46004 0.0
H846 H 0.303 0.67945 0.46519 0.0
H847 H 0.26607 0.72559 0.48656 0.0
H848 H 0.1561 0.79723 0.46079 0.0
H849 H 0.18883 0.7487 0.48267 0.0
H850 H 0.25824 0.71139 0.31472 0.0
H851 H 0.2957 0.66814 0.33851 0.0
H852 H 0.241 0.79002 0.31633 0.0
H853 H 0.19858 0.83071 0.33795 0.0
C854 C 0.79115 0.2503 0.36833 0.0
C855 C 0.79603 0.28272 0.39776 0.0
C856 C 0.73162 0.22821 0.42828 0.0
C857 C 0.72328 0.19863 0.39773 0.0
N858 N 0.74036 0.18567 0.33719 0.0
N859 N 0.76727 0.30601 0.45479 0.0
C860 C 0.75205 0.21073 0.36739 0.0
C861 C 0.76525 0.27249 0.42748 0.0
N862 N 0.82427 0.2573 0.34129 0.0
N863 N 0.70912 0.21275 0.45852 0.0
H864 H 0.79348 0.33686 0.45613 0.0
H865 H 0.74128 0.305 0.47524 0.0
H866 H 0.68384 0.18122 0.4601 0.0
H867 H 0.71826 0.22872 0.4825 0.0
H868 H 0.82668 0.2321 0.3204 0.0
H869 H 0.85274 0.28612 0.34126 0.0
H870 H 0.75603 0.19562 0.31336 0.0
H871 H 0.7113 0.15758 0.33532 0.0
C872 C 0.72592 0.24077 0.92957 0.0
C873 C 0.71529 0.20607 0.90171 0.0
C874 C 0.78607 0.24744 0.86861 0.0
C875 C 0.79897 0.27979 0.89731 0.0
N876 N 0.78604 0.30078 0.95731 0.0
N877 N 0.73961 0.17196 0.8464 0.0
C878 C 0.77002 0.27482 0.92835 0.0
C879 C 0.74697 0.20799 0.87183 0.0
N880 N 0.69321 0.24172 0.95721 0.0
N881 N 0.80974 0.25611 0.83759 0.0
H882 H 0.71084 0.14353 0.84764 0.0
H883 H 0.76438 0.16741 0.82553 0.0
H884 H 0.83714 0.28541 0.83394 0.0
H885 H 0.79907 0.23772 0.8147 0.0
H886 H 0.69433 0.27032 0.97614 0.0
H887 H 0.66293 0.21524 0.96028 0.0
H888 H 0.77065 0.29436 0.98177 0.0
H889 H 0.81755 0.32618 0.9575 0.0
C890 C 0.27693 0.72984 0.926 0.0
C891 C 0.29958 0.71516 0.89391 0.0
C892 C 0.24004 0.77416 0.86379 0.0
C893 C 0.22133 0.79295 0.89586 0.0
N894 N 0.22954 0.79444 0.95809 0.0
N895 N 0.309 0.73143 0.83299 0.0
C896 C 0.24175 0.77226 0.92716 0.0
C897 C 0.28285 0.73984 0.86307 0.0
N898 N 0.28693 0.70204 0.95526 0.0
N899 N 0.216 0.78853 0.83382 0.0
H900 H 0.34138 0.70781 0.83178 0.0
H901 H 0.30208 0.75187 0.81027 0.0
H902 H 0.18385 0.81256 0.83355 0.0
H903 H 0.2244 0.77259 0.80979 0.0
H904 H 0.26687 0.70705 0.97829 0.0
H905 H 0.3122 0.67105 0.95606 0.0
H906 H 0.24802 0.78526 0.98123 0.0
H907 H 0.20383 0.82492 0.96042 0.0
C908 C 0.78462 0.24522 0.63284 0.0
C909 C 0.80382 0.2274 0.66519 0.0
C910 C 0.74968 0.29145 0.695 0.0
C911 C 0.72749 0.30636 0.66292 0.0
N912 N 0.71924 0.29317 0.60148 0.0
N913 N 0.80142 0.22959 0.72721 0.0
C914 C 0.74404 0.28228 0.63186 0.0
C915 C 0.78537 0.24956 0.69632 0.0
N916 N 0.80638 0.22784 0.60292 0.0
N917 N 0.73671 0.31808 0.72416 0.0
H918 H 0.827 0.19875 0.72878 0.0
H919 H 0.78645 0.24036 0.75102 0.0
H920 H 0.71125 0.34911 0.72357 0.0
H921 H 0.75405 0.31265 0.74818 0.0
H922 H 0.79909 0.24397 0.57875 0.0
H923 H 0.83415 0.19892 0.60245 0.0
H924 H 0.72424 0.2721 0.57883 0.0
H925 H 0.69139 0.32186 0.59936 0.0
C926 C 0.26976 0.77521 0.68135 0.0
C927 C 0.28637 0.79587 0.64916 0.0
C928 C 0.22556 0.73622 0.6191 0.0
C929 C 0.20636 0.71817 0.65143 0.0
N930 N 0.20542 0.72555 0.71337 0.0
N931 N 0.27493 0.80117 0.58747 0.0
C932 C 0.22731 0.7392 0.68255 0.0
C933 C 0.2628 0.77768 0.61806 0.0
N934 N 0.29532 0.78966 0.71086 0.0
N935 N 0.20983 0.71228 0.58931 0.0
H936 H 0.30359 0.82964 0.58547 0.0
H937 H 0.25473 0.79462 0.56453 0.0
H938 H 0.18169 0.68318 0.58883 0.0
H939 H 0.22684 0.71896 0.56535 0.0
H940 H 0.28892 0.77294 0.73494 0.0
H941 H 0.3264 0.81565 0.71071 0.0
H942 H 0.21505 0.74256 0.73693 0.0
H943 H 0.174 0.7001 0.71498 0.0
C944 C 0.966 0.53165 0.99607 0.0
C945 C 0.95232 0.47925 1.00222 0.0
C946 C 0.02212 0.47514 0.04628 0.0
C947 C 0.03625 0.52749 0.03999 0.0
N948 N 0.03283 0.59746 0.99852 0.0
N949 N 0.95427 0.41023 0.04418 0.0
C950 C 0.01125 0.5535 1.01193 0.0
C951 C 0.97665 0.45363 0.03056 0.0
N952 N 0.93364 0.56192 0.9771 0.0
N953 N 0.05422 0.44447 0.06516 0.0
H954 H 0.91724 0.39795 0.03703 0.0
H955 H 0.96844 0.39137 0.06597 0.0
H956 H 0.09081 0.45689 0.07311 0.0
H957 H 0.04829 0.40485 0.06814 0.0
H958 H 0.93889 0.60166 0.97428 0.0
H959 H 0.89745 0.54881 0.96879 0.0
H960 H 0.01835 0.61619 0.97677 0.0
H961 H 0.06968 0.61038 1.00547 0.0
C962 C 0.03005 0.95863 0.04297 0.0
C963 C 0.02474 0.97452 1.00799 0.0
C964 C 0.96935 0.04638 1.0266 0.0
C965 C 0.97461 0.03044 0.0616 0.0
N966 N 0.0028 0.96616 0.10262 0.0
N967 N 0.99487 0.03723 0.96659 0.0
C968 C 0.0036 0.98548 0.06969 0.0
C969 C 0.99518 0.019 0.99981 0.0
N970 N 0.06236 0.91871 0.05069 0.0
N971 N 0.93776 0.08691 1.01897 0.0
H972 H 0.01079 0.01707 0.94595 0.0
H973 H 0.98107 0.07334 0.95949 0.0
H974 H 0.92172 0.11026 0.03806 0.0
H975 H 0.92594 0.09659 0.99409 0.0
H976 H 0.0742 0.90942 0.07565 0.0
H977 H 0.07917 0.89585 0.03164 0.0
H978 H 0.01607 0.92963 0.10923 0.0
H979 H 0.98611 0.98538 0.12337 0.0
C980 C 0.53523 0.96728 1.00552 0.0
C981 C 0.5486 0.02016 1.00974 0.0
C982 C 0.47811 0.02775 0.05276 0.0
C983 C 0.46374 0.975 0.04815 0.0
N984 N 0.46933 0.90101 1.00958 0.0
N985 N 0.54628 0.09208 0.04959 0.0
C986 C 0.48981 0.94646 1.02163 0.0
C987 C 0.52388 0.04796 0.03689 0.0
N988 N 0.56813 0.9357 0.98814 0.0
N989 N 0.44602 0.06 0.07027 0.0
H990 H 0.58369 0.10347 0.04304 0.0
H991 H 0.53192 0.11226 0.07071 0.0
H992 H 0.40949 0.04837 0.07861 0.0
H993 H 0.45195 0.09982 0.07172 0.0
H994 H 0.56369 0.89569 0.98711 0.0
H995 H 0.60413 0.94848 0.97948 0.0
H996 H 0.48481 0.8805 0.98898 0.0
H997 H 0.43224 0.88822 1.01553 0.0
C998 C 0.46497 0.46576 0.06419 0.0
C999 C 0.51496 0.44578 0.05776 0.0
C1000 C 0.52168 0.50341 1.00655 0.0
C1001 C 0.47148 0.52219 1.0126 0.0
N1002 N 0.40271 0.53361 0.05313 0.0
N1003 N 0.57939 0.43144 1.01365 0.0
C1004 C 0.44585 0.5073 0.04358 0.0
C1005 C 0.54046 0.46098 1.02649 0.0
N1006 N 0.43351 0.44176 0.08759 0.0
N1007 N 0.55192 0.52637 0.98207 0.0
H1008 H 0.58756 0.3948 1.02329 0.0
H1009 H 0.59752 0.43883 0.99016 0.0
H1010 H 0.54056 0.55939 0.96879 0.0
H1011 H 0.59062 0.51726 0.9785 0.0
H1012 H 0.39529 0.45203 0.09176 0.0
H1013 H 0.44286 0.4066 0.09903 0.0
H1014 H 0.3836 0.52786 0.07646 0.0
H1015 H 0.3896 0.56545 0.03913 0.0
C1016 C 0.93599 0.03107 0.52503 0.0
C1017 C 0.93908 0.01585 0.56055 0.0
C1018 C 0.00456 0.95159 0.54472 0.0
C1019 C 0.00383 0.96861 0.50967 0.0
N1020 N 0.96116 0.01777 0.46516 0.0
N1021 N 0.95842 0.9457 0.59917 0.0
C1022 C 0.96784 0.00706 0.49954 0.0
C1023 C 0.96829 0.97144 0.56906 0.0
N1024 N 0.90052 0.06718 0.51544 0.0
N1025 N 0.03948 0.91493 0.55434 0.0
H1026 H 0.92668 0.95411 0.61455 0.0
H1027 H 0.97607 0.91138 0.60632 0.0
H1028 H 0.0679 0.90156 0.53759 0.0
H1029 H 0.04326 0.90057 0.57931 0.0
H1030 H 0.90116 0.08713 0.4921 0.0
H1031 H 0.86931 0.07665 0.53112 0.0
H1032 H 0.93142 0.04003 0.45517 0.0
H1033 H 0.98427 0.00265 0.44577 0.0
C1034 C 0.4562 0.99294 0.51927 0.0
C1035 C 0.48313 0.96475 0.54563 0.0
C1036 C 0.55855 0.02235 0.53611 0.0
C1037 C 0.53159 0.04982 0.50961 0.0
N1038 N 0.44798 0.07445 0.48888 0.0
N1039 N 0.56646 0.94272 0.56872 0.0
C1040 C 0.47836 0.03897 0.50504 0.0
C1041 C 0.53615 0.97689 0.55124 0.0
N1042 N 0.41092 0.97422 0.50574 0.0
N1043 N 0.60429 0.04151 0.54859 0.0
H1044 H 0.55292 0.90649 0.5765 0.0
H1045 H 0.60641 0.94666 0.57083 0.0
H1046 H 0.61803 0.07823 0.54215 0.0
H1047 H 0.62409 0.02532 0.56935 0.0
H1048 H 0.39135 0.99207 0.48549 0.0
H1049 H 0.39772 0.93665 0.50999 0.0
H1050 H 0.40785 0.07139 0.48778 0.0
H1051 H 0.46222 0.11058 0.48134 0.0
C1052 C 0.52087 0.4556 0.52321 0.0
C1053 C 0.54249 0.4827 0.55226 0.0
C1054 C 0.47748 0.55052 0.54316 0.0
C1055 C 0.4566 0.52393 0.51378 0.0
N1056 N 0.44546 0.44078 0.48698 0.0
N1057 N 0.55246 0.5658 0.57954 0.0
C1058 C 0.47454 0.47337 0.50704 0.0
C1059 C 0.52386 0.53298 0.55933 0.0
N1060 N 0.54686 0.41523 0.50892 0.0
N1061 N 0.45078 0.59024 0.55762 0.0
H1062 H 0.58937 0.55658 0.5883 0.0
H1063 H 0.5432 0.60453 0.5831 0.0
H1064 H 0.41294 0.59864 0.55044 0.0
H1065 H 0.46241 0.60892 0.58024 0.0
H1066 H 0.53422 0.39556 0.48692 0.0
H1067 H 0.58516 0.40729 0.51515 0.0
H1068 H 0.45394 0.40182 0.4837 0.0
H1069 H 0.4088 0.45063 0.47806 0.0
C1070 C 0.96874 0.53194 0.54532 0.0
C1071 C 0.02166 0.54558 0.54138 0.0
C1072 C 0.02981 0.47341 0.49924 0.0
C1073 C 0.97693 0.45991 0.50316 0.0
N1074 N 0.90328 0.465 0.5415 0.0
N1075 N 0.0955 0.54009 0.50313 0.0
C1076 C 0.94836 0.48602 0.52946 0.0
C1077 C 0.0503 0.51932 0.51512 0.0
N1078 N 0.93665 0.5648 0.56235 0.0
N1079 N 0.06168 0.44036 0.48222 0.0
H1080 H 0.10746 0.57768 0.50877 0.0
H1081 H 0.11632 0.52431 0.48279 0.0
H1082 H 0.04917 0.40412 0.47361 0.0
H1083 H 0.10162 0.44514 0.48129 0.0
H1084 H 0.89671 0.5599 0.56308 0.0
H1085 H 0.94876 0.60114 0.57096 0.0
H1086 H 0.88226 0.48077 0.56175 0.0
H1087 H 0.8919 0.42714 0.53613 0.0
C1088 C 0.98531 0.43548 0.27318 0.0
C1089 C 0.0027 0.45931 0.30426 0.0
C1090 C 0.0597 0.51711 0.27025 0.0
C1091 C 0.03981 0.49559 0.23907 0.0
N1092 N 0.99568 0.42523 0.21093 0.0
N1093 N 0.06703 0.51137 0.33295 0.0
C1094 C 0.00691 0.45133 0.24076 0.0
C1095 C 0.04379 0.49611 0.30282 0.0
N1096 N 0.94563 0.40038 0.27437 0.0
N1097 N 0.09076 0.56 0.26885 0.0
H1098 H 0.05612 0.49614 0.35686 0.0
H1099 H 0.09983 0.53491 0.33403 0.0
H1100 H 0.1045 0.57516 0.24564 0.0
H1101 H 0.10106 0.58187 0.29044 0.0
H1102 H 0.92654 0.38629 0.25254 0.0
H1103 H 0.93014 0.38693 0.29756 0.0
H1104 H 0.97524 0.39041 0.21012 0.0
H1105 H 0.01126 0.43636 0.18717 0.0
C1106 C 0.98475 0.02942 0.31667 0.0
C1107 C 0.01929 0.98719 0.31784 0.0
C1108 C 0.02367 0.98924 0.25416 0.0
C1109 C 0.98126 0.02363 0.25302 0.0
N1110 N 0.92072 0.0768 0.28377 0.0
N1111 N 0.07219 0.92634 0.2873 0.0
C1112 C 0.96243 0.0449 0.28443 0.0
C1113 C 0.03995 0.96779 0.28646 0.0
N1114 N 0.97278 0.05405 0.34677 0.0
N1115 N 0.04803 0.97687 0.22407 0.0
H1116 H 0.08622 0.91063 0.31025 0.0
H1117 H 0.08302 0.90588 0.26536 0.0
H1118 H 0.0369 0.99239 0.20029 0.0
H1119 H 0.08192 0.95561 0.22306 0.0
H1120 H 0.95138 0.08785 0.34785 0.0
H1121 H 0.98881 0.04314 0.37047 0.0
H1122 H 0.90099 0.08821 0.30584 0.0
H1123 H 0.90379 0.08979 0.26094 0.0
C1124 C 0.51048 0.06361 0.28017 0.0
C1125 C 0.4908 0.04265 0.31149 0.0
C1126 C 0.43045 0.98745 0.27777 0.0
C1127 C 0.45258 0.00583 0.24655 0.0
N1128 N 0.50138 0.072 0.21768 0.0
N1129 N 0.42211 0.99704 0.34015 0.0
C1130 C 0.48823 0.04788 0.24782 0.0
C1131 C 0.44705 0.00899 0.31012 0.0
N1132 N 0.55285 0.09541 0.28105 0.0
N1133 N 0.39632 0.94692 0.27668 0.0
H1134 H 0.43364 0.01265 0.3639 0.0
H1135 H 0.38769 0.97599 0.34116 0.0
H1136 H 0.38221 0.93167 0.2535 0.0
H1137 H 0.38373 0.92707 0.29852 0.0
H1138 H 0.57331 0.10653 0.25913 0.0
H1139 H 0.56916 0.10894 0.30404 0.0
H1140 H 0.52404 0.1054 0.21651 0.0
H1141 H 0.48505 0.06107 0.19402 0.0
C1142 C 0.49326 0.46093 0.31703 0.0
C1143 C 0.45801 0.50262 0.31738 0.0
C1144 C 0.45392 0.49874 0.25375 0.0
C1145 C 0.49668 0.46471 0.25338 0.0
N1146 N 0.55792 0.41337 0.28515 0.0
N1147 N 0.40414 0.56165 0.28587 0.0
C1148 C 0.51579 0.44474 0.28516 0.0
C1149 C 0.43718 0.52083 0.28567 0.0
N1150 N 0.50562 0.43742 0.34754 0.0
N1151 N 0.42964 0.5101 0.22331 0.0
H1152 H 0.3899 0.57761 0.30862 0.0
H1153 H 0.39281 0.58131 0.26366 0.0
H1154 H 0.44106 0.49408 0.1998 0.0
H1155 H 0.39562 0.53108 0.22173 0.0
H1156 H 0.52759 0.40403 0.3492 0.0
H1157 H 0.48947 0.44875 0.37101 0.0
H1158 H 0.57788 0.40296 0.30746 0.0
H1159 H 0.57492 0.39987 0.26256 0.0
C1160 C 0.94207 0.50851 0.73814 0.0
C1161 C 0.98052 0.54806 0.73607 0.0
C1162 C 0.97713 0.55573 0.79976 0.0
C1163 C 0.94867 0.50856 0.80176 0.0
N1164 N 0.90173 0.44071 0.7725 0.0
N1165 N 0.03119 0.61342 0.76553 0.0
C1166 C 0.9293 0.4859 0.77083 0.0
C1167 C 0.99583 0.57399 0.76701 0.0
N1168 N 0.91834 0.49227 0.70842 0.0
N1169 N 0.98685 0.58247 0.82957 0.0
H1170 H 0.04382 0.62962 0.74243 0.0
H1171 H 0.04954 0.62908 0.78716 0.0
H1172 H 0.97345 0.56959 0.85353 0.0
H1173 H 0.00367 0.61914 0.83033 0.0
H1174 H 0.88717 0.46655 0.7079 0.0
H1175 H 0.92682 0.50886 0.68446 0.0
H1176 H 0.89219 0.41847 0.75093 0.0
H1177 H 0.89037 0.42413 0.79586 0.0
C1178 C 0.96492 -0.00086 0.77153 0.0
C1179 C 0.00299 0.02059 0.74877 0.0
C1180 C 0.06968 0.98753 0.78893 0.0
C1181 C 0.03217 0.97721 0.81444 0.0
N1182 N 0.94294 0.97706 0.83097 0.0
N1183 N 0.09424 0.04577 0.74373 0.0
C1184 C 0.97936 0.98417 0.80602 0.0
C1185 C 0.05622 0.01714 0.75933 0.0
N1186 N 0.91567 0.99058 0.76008 0.0
N1187 N 0.11918 0.97112 0.79368 0.0
H1188 H 0.08779 0.07438 0.7255 0.0
H1189 H 0.13213 0.04717 0.75293 0.0
H1190 H 0.13045 0.94991 0.81532 0.0
H1191 H 0.14719 0.97371 0.77444 0.0
H1192 H 0.88777 0.97169 0.77489 0.0
H1193 H 0.90447 0.9961 0.73448 0.0
H1194 H 0.90435 0.987 0.82755 0.0
H1195 H 0.95236 0.96388 0.85569 0.0
C1196 C 0.48922 0.93246 0.77223 0.0
C1197 C 0.50873 0.9568 0.74189 0.0
C1198 C 0.57184 0.00558 0.77816 0.0
C1199 C 0.54749 0.98654 0.80856 0.0
N1200 N 0.49607 0.91991 0.83468 0.0
N1201 N 0.57783 0.00417 0.71506 0.0
C1202 C 0.51062 0.9457 0.80542 0.0
C1203 C 0.5534 0.98917 0.74472 0.0
N1204 N 0.44826 0.89904 0.7696 0.0
N1205 N 0.61102 0.04099 0.7813 0.0
H1206 H 0.5655 0.99159 0.69071 0.0
H1207 H 0.61206 0.02543 0.71432 0.0
H1208 H 0.62646 0.05187 0.80515 0.0
H1209 H 0.62804 0.06029 0.76066 0.0
H1210 H 0.42811 0.88434 0.79067 0.0
H1211 H 0.43293 0.88698 0.74598 0.0
H1212 H 0.47238 0.88722 0.83488 0.0
H1213 H 0.5119 0.92886 0.85886 0.0
C1214 C 0.48364 0.56109 0.78059 0.0
C1215 C 0.49926 0.53873 0.81245 0.0
C1216 C 0.55891 0.48169 0.7809 0.0
C1217 C 0.53991 0.50086 0.74887 0.0
N1218 N 0.49528 0.56754 0.71815 0.0
N1219 N 0.56099 0.48867 0.84386 0.0
C1220 C 0.50615 0.54385 0.74885 0.0
C1221 C 0.54045 0.50293 0.81276 0.0
N1222 N 0.44488 0.59651 0.78066 0.0
N1223 N 0.59187 0.4408 0.78084 0.0
H1224 H 0.54774 0.50397 0.86715 0.0
H1225 H 0.59348 0.46566 0.84655 0.0
H1226 H 0.60723 0.42572 0.75813 0.0
H1227 H 0.60262 0.42058 0.80293 0.0
H1228 H 0.42685 0.61021 0.75844 0.0
H1229 H 0.4296 0.61118 0.80354 0.0
H1230 H 0.47397 0.60126 0.71595 0.0
H1231 H 0.51158 0.55548 0.69489 0.0
loop_
_geom_bond_atom_site_label_1
_geom_bond_atom_site_label_2
_geom_bond_distance
_geom_bond_site_symmetry_2
_ccdc_geom_bond_type
O0 Zn1 1.953 . S
O0 C16 1.225 . S
Zn1 O0 1.953 . S
Zn1 O2 1.949 . S
Zn1 O8 1.919 . S
Zn1 O13 1.924 . S
O2 Zn1 1.949 . S
O2 Zn3 1.923 1_455 S
O2 Zn4 1.950 1_455 S
O2 Zn5 1.945 . S
Zn3 O2 1.923 1_655 S
Zn3 O6 1.933 . S
Zn3 O9 1.941 1_655 S
Zn3 O10 1.965 . S
Zn4 O2 1.950 1_655 S
Zn4 O11 1.938 . S
Zn4 O12 1.906 . S
Zn4 O22 1.953 1_655 S
Zn5 O2 1.945 . S
Zn5 O7 1.932 . S
Zn5 O14 1.977 . S
Zn5 O15 1.910 . S
O6 Zn3 1.933 . S
O6 C17 1.226 1_655 S
O7 Zn5 1.932 . S
O7 C17 1.307 . S
O8 Zn1 1.919 . S
O8 C19 1.253 . S
O9 Zn3 1.941 1_455 S
O9 C19 1.283 . S
O10 Zn3 1.965 . S
O10 C18 1.303 . S
O11 Zn4 1.938 . S
O11 C18 1.247 . S
O12 Zn4 1.906 . S
O12 C20 1.304 1_655 S
O13 Zn1 1.924 . S
O13 C21 1.311 . S
O14 Zn5 1.977 . S
O14 C20 1.272 . S
O15 Zn5 1.910 . S
O15 C21 1.231 . S
C16 O0 1.225 . S
C16 O22 1.298 . S
C17 O6 1.226 1_455 S
C17 O7 1.307 . S
C18 O10 1.303 . S
C18 O11 1.247 . S
C19 O8 1.253 . S
C19 O9 1.283 . S
C20 O12 1.304 1_455 S
C20 O14 1.272 . S
C21 O13 1.311 . S
C21 O15 1.231 . S
O22 Zn4 1.953 1_455 S
O22 C16 1.298 . S
O23 Zn24 1.953 . S
O23 C39 1.225 . S
Zn24 O23 1.953 . S
Zn24 O25 1.949 . S
Zn24 O31 1.919 . S
Zn24 O36 1.924 . S
O25 Zn24 1.949 . S
O25 Zn26 1.923 1_545 S
O25 Zn27 1.950 1_545 S
O25 Zn28 1.945 . S
Zn26 O25 1.923 1_565 S
Zn26 O29 1.933 . S
Zn26 O32 1.941 1_565 S
Zn26 O33 1.965 . S
Zn27 O25 1.950 1_565 S
Zn27 O34 1.938 . S
Zn27 O35 1.906 . S
Zn27 O45 1.953 1_565 S
Zn28 O25 1.945 . S
Zn28 O30 1.932 . S
Zn28 O37 1.977 . S
Zn28 O38 1.910 . S
O29 Zn26 1.933 . S
O29 C40 1.226 1_565 S
O30 Zn28 1.932 . S
O30 C40 1.307 . S
O31 Zn24 1.919 . S
O31 C42 1.253 . S
O32 Zn26 1.941 1_545 S
O32 C42 1.283 . S
O33 Zn26 1.965 . S
O33 C41 1.303 . S
O34 Zn27 1.938 . S
O34 C41 1.247 . S
O35 Zn27 1.906 . S
O35 C43 1.304 1_565 S
O36 Zn24 1.924 . S
O36 C44 1.311 . S
O37 Zn28 1.977 . S
O37 C43 1.272 . S
O38 Zn28 1.910 . S
O38 C44 1.231 . S
C39 O23 1.225 . S
C39 O45 1.298 . S
C40 O29 1.226 1_545 S
C40 O30 1.307 . S
C41 O33 1.303 . S
C41 O34 1.247 . S
C42 O31 1.253 . S
C42 O32 1.283 . S
C43 O35 1.304 1_545 S
C43 O37 1.272 . S
C44 O36 1.311 . S
C44 O38 1.231 . S
O45 Zn27 1.953 1_545 S
O45 C39 1.298 . S
O46 Zn47 1.953 . S
O46 C62 1.225 . S
Zn47 O46 1.953 . S
Zn47 O48 1.949 . S
Zn47 O54 1.919 . S
Zn47 O59 1.924 . S
O48 Zn47 1.949 . S
O48 Zn49 1.923 . S
O48 Zn50 1.950 . S
O48 Zn51 1.945 . S
Zn49 O48 1.923 . S
Zn49 O52 1.933 . S
Zn49 O55 1.941 . S
Zn49 O56 1.965 . S
Zn50 O48 1.950 . S
Zn50 O57 1.938 . S
Zn50 O58 1.906 . S
Zn50 O68 1.953 . S
Zn51 O48 1.945 . S
Zn51 O53 1.932 . S
Zn51 O60 1.977 . S
Zn51 O61 1.910 . S
O52 Zn49 1.933 . S
O52 C63 1.226 . S
O53 Zn51 1.932 . S
O53 C63 1.307 . S
O54 Zn47 1.919 . S
O54 C65 1.253 . S
O55 Zn49 1.941 . S
O55 C65 1.283 . S
O56 Zn49 1.965 . S
O56 C64 1.303 . S
O57 Zn50 1.938 . S
O57 C64 1.247 . S
O58 Zn50 1.906 . S
O58 C66 1.304 . S
O59 Zn47 1.924 . S
O59 C67 1.311 . S
O60 Zn51 1.977 . S
O60 C66 1.272 . S
O61 Zn51 1.910 . S
O61 C67 1.231 . S
C62 O46 1.225 . S
C62 O68 1.298 . S
C63 O52 1.226 . S
C63 O53 1.307 . S
C64 O56 1.303 . S
C64 O57 1.247 . S
C65 O54 1.253 . S
C65 O55 1.283 . S
C66 O58 1.304 . S
C66 O60 1.272 . S
C67 O59 1.311 . S
C67 O61 1.231 . S
O68 Zn50 1.953 . S
O68 C62 1.298 . S
O69 Zn70 1.953 . S
O69 C85 1.225 . S
Zn70 O69 1.953 . S
Zn70 O71 1.949 . S
Zn70 O77 1.919 . S
Zn70 O82 1.924 . S
O71 Zn70 1.949 . S
O71 Zn72 1.923 . S
O71 Zn73 1.950 . S
O71 Zn74 1.945 . S
Zn72 O71 1.923 . S
Zn72 O75 1.933 . S
Zn72 O78 1.941 . S
Zn72 O79 1.965 . S
Zn73 O71 1.950 . S
Zn73 O80 1.938 . S
Zn73 O81 1.906 . S
Zn73 O91 1.953 . S
Zn74 O71 1.945 . S
Zn74 O76 1.932 . S
Zn74 O83 1.977 . S
Zn74 O84 1.910 . S
O75 Zn72 1.933 . S
O75 C86 1.226 . S
O76 Zn74 1.932 . S
O76 C86 1.307 . S
O77 Zn70 1.919 . S
O77 C88 1.253 . S
O78 Zn72 1.941 . S
O78 C88 1.283 . S
O79 Zn72 1.965 . S
O79 C87 1.303 . S
O80 Zn73 1.938 . S
O80 C87 1.247 . S
O81 Zn73 1.906 . S
O81 C89 1.304 . S
O82 Zn70 1.924 . S
O82 C90 1.311 . S
O83 Zn74 1.977 . S
O83 C89 1.272 . S
O84 Zn74 1.910 . S
O84 C90 1.231 . S
C85 O69 1.225 . S
C85 O91 1.298 . S
C86 O75 1.226 . S
C86 O76 1.307 . S
C87 O79 1.303 . S
C87 O80 1.247 . S
C88 O77 1.253 . S
C88 O78 1.283 . S
C89 O81 1.304 . S
C89 O83 1.272 . S
C90 O82 1.311 . S
C90 O84 1.231 . S
O91 Zn73 1.953 . S
O91 C85 1.298 . S
O92 Zn93 1.953 . S
O92 C108 1.225 . S
Zn93 O92 1.953 . S
Zn93 O94 1.949 . S
Zn93 O100 1.919 . S
Zn93 O105 1.924 . S
O94 Zn93 1.949 . S
O94 Zn95 1.923 1_455 S
O94 Zn96 1.950 1_455 S
O94 Zn97 1.945 . S
Zn95 O94 1.923 1_655 S
Zn95 O98 1.933 . S
Zn95 O101 1.941 1_655 S
Zn95 O102 1.965 . S
Zn96 O94 1.950 1_655 S
Zn96 O103 1.938 . S
Zn96 O104 1.906 . S
Zn96 O114 1.953 1_655 S
Zn97 O94 1.945 . S
Zn97 O99 1.932 . S
Zn97 O106 1.977 . S
Zn97 O107 1.910 . S
O98 Zn95 1.933 . S
O98 C109 1.226 1_655 S
O99 Zn97 1.932 . S
O99 C109 1.307 . S
O100 Zn93 1.919 . S
O100 C111 1.253 . S
O101 Zn95 1.941 1_455 S
O101 C111 1.283 . S
O102 Zn95 1.965 . S
O102 C110 1.303 . S
O103 Zn96 1.938 . S
O103 C110 1.247 . S
O104 Zn96 1.906 . S
O104 C112 1.304 1_655 S
O105 Zn93 1.924 . S
O105 C113 1.311 . S
O106 Zn97 1.977 . S
O106 C112 1.272 . S
O107 Zn97 1.910 . S
O107 C113 1.231 . S
C108 O92 1.225 . S
C108 O114 1.298 . S
C109 O98 1.226 1_455 S
C109 O99 1.307 . S
C110 O102 1.303 . S
C110 O103 1.247 . S
C111 O100 1.253 . S
C111 O101 1.283 . S
C112 O104 1.304 1_455 S
C112 O106 1.272 . S
C113 O105 1.311 . S
C113 O107 1.231 . S
O114 Zn96 1.953 1_455 S
O114 C108 1.298 . S
O115 Zn116 1.953 . S
O115 C131 1.225 . S
Zn116 O115 1.953 . S
Zn116 O117 1.949 . S
Zn116 O123 1.919 . S
Zn116 O128 1.924 . S
O117 Zn116 1.949 . S
O117 Zn118 1.923 1_545 S
O117 Zn119 1.950 1_545 S
O117 Zn120 1.945 . S
Zn118 O117 1.923 1_565 S
Zn118 O121 1.933 . S
Zn118 O124 1.941 1_565 S
Zn118 O125 1.965 . S
Zn119 O117 1.950 1_565 S
Zn119 O126 1.938 . S
Zn119 O127 1.906 . S
Zn119 O137 1.953 1_565 S
Zn120 O117 1.945 . S
Zn120 O122 1.932 . S
Zn120 O129 1.977 . S
Zn120 O130 1.910 . S
O121 Zn118 1.933 . S
O121 C132 1.226 1_565 S
O122 Zn120 1.932 . S
O122 C132 1.307 . S
O123 Zn116 1.919 . S
O123 C134 1.253 . S
O124 Zn118 1.941 1_545 S
O124 C134 1.283 . S
O125 Zn118 1.965 . S
O125 C133 1.303 . S
O126 Zn119 1.938 . S
O126 C133 1.247 . S
O127 Zn119 1.906 . S
O127 C135 1.304 1_565 S
O128 Zn116 1.924 . S
O128 C136 1.311 . S
O129 Zn120 1.977 . S
O129 C135 1.272 . S
O130 Zn120 1.910 . S
O130 C136 1.231 . S
C131 O115 1.225 . S
C131 O137 1.298 . S
C132 O121 1.226 1_545 S
C132 O122 1.307 . S
C133 O125 1.303 . S
C133 O126 1.247 . S
C134 O123 1.253 . S
C134 O124 1.283 . S
C135 O127 1.304 1_545 S
C135 O129 1.272 . S
C136 O128 1.311 . S
C136 O130 1.231 . S
O137 Zn119 1.953 1_545 S
O137 C131 1.298 . S
O138 Zn139 1.953 . S
O138 C154 1.225 . S
Zn139 O138 1.953 . S
Zn139 O140 1.949 . S
Zn139 O146 1.919 . S
Zn139 O151 1.924 . S
O140 Zn139 1.949 . S
O140 Zn141 1.923 . S
O140 Zn142 1.950 . S
O140 Zn143 1.945 . S
Zn141 O140 1.923 . S
Zn141 O144 1.933 . S
Zn141 O147 1.941 . S
Zn141 O148 1.965 . S
Zn142 O140 1.950 . S
Zn142 O149 1.938 . S
Zn142 O150 1.906 . S
Zn142 O160 1.953 . S
Zn143 O140 1.945 . S
Zn143 O145 1.932 . S
Zn143 O152 1.977 . S
Zn143 O153 1.910 . S
O144 Zn141 1.933 . S
O144 C155 1.226 . S
O145 Zn143 1.932 . S
O145 C155 1.307 . S
O146 Zn139 1.919 . S
O146 C157 1.253 . S
O147 Zn141 1.941 . S
O147 C157 1.283 . S
O148 Zn141 1.965 . S
O148 C156 1.303 . S
O149 Zn142 1.938 . S
O149 C156 1.247 . S
O150 Zn142 1.906 . S
O150 C158 1.304 . S
O151 Zn139 1.924 . S
O151 C159 1.311 . S
O152 Zn143 1.977 . S
O152 C158 1.272 . S
O153 Zn143 1.910 . S
O153 C159 1.231 . S
C154 O138 1.225 . S
C154 O160 1.298 . S
C155 O144 1.226 . S
C155 O145 1.307 . S
C156 O148 1.303 . S
C156 O149 1.247 . S
C157 O146 1.253 . S
C157 O147 1.283 . S
C158 O150 1.304 . S
C158 O152 1.272 . S
C159 O151 1.311 . S
C159 O153 1.231 . S
O160 Zn142 1.953 . S
O160 C154 1.298 . S
O161 Zn162 1.953 . S
O161 C177 1.225 . S
Zn162 O161 1.953 . S
Zn162 O163 1.949 . S
Zn162 O169 1.919 . S
Zn162 O174 1.924 . S
O163 Zn162 1.949 . S
O163 Zn164 1.923 . S
O163 Zn165 1.950 . S
O163 Zn166 1.945 . S
Zn164 O163 1.923 . S
Zn164 O167 1.933 . S
Zn164 O170 1.941 . S
Zn164 O171 1.965 . S
Zn165 O163 1.950 . S
Zn165 O172 1.938 . S
Zn165 O173 1.906 . S
Zn165 O183 1.953 . S
Zn166 O163 1.945 . S
Zn166 O168 1.932 . S
Zn166 O175 1.977 . S
Zn166 O176 1.910 . S
O167 Zn164 1.933 . S
O167 C178 1.226 . S
O168 Zn166 1.932 . S
O168 C178 1.307 . S
O169 Zn162 1.919 . S
O169 C180 1.253 . S
O170 Zn164 1.941 . S
O170 C180 1.283 . S
O171 Zn164 1.965 . S
O171 C179 1.303 . S
O172 Zn165 1.938 . S
O172 C179 1.247 . S
O173 Zn165 1.906 . S
O173 C181 1.304 . S
O174 Zn162 1.924 . S
O174 C182 1.311 . S
O175 Zn166 1.977 . S
O175 C181 1.272 . S
O176 Zn166 1.910 . S
O176 C182 1.231 . S
C177 O161 1.225 . S
C177 O183 1.298 . S
C178 O167 1.226 . S
C178 O168 1.307 . S
C179 O171 1.303 . S
C179 O172 1.247 . S
C180 O169 1.253 . S
C180 O170 1.283 . S
C181 O173 1.304 . S
C181 O175 1.272 . S
C182 O174 1.311 . S
C182 O176 1.231 . S
O183 Zn165 1.953 . S
O183 C177 1.298 . S
O184 Zn185 1.953 . S
O184 C200 1.225 . S
Zn185 O184 1.953 . S
Zn185 O186 1.949 . S
Zn185 O192 1.919 . S
Zn185 O197 1.924 . S
O186 Zn185 1.949 . S
O186 Zn187 1.923 1_655 S
O186 Zn188 1.950 1_655 S
O186 Zn189 1.945 . S
Zn187 O186 1.923 1_455 S
Zn187 O190 1.933 . S
Zn187 O193 1.941 1_455 S
Zn187 O194 1.965 . S
Zn188 O186 1.950 1_455 S
Zn188 O195 1.938 . S
Zn188 O196 1.906 . S
Zn188 O206 1.953 1_455 S
Zn189 O186 1.945 . S
Zn189 O191 1.932 . S
Zn189 O198 1.977 . S
Zn189 O199 1.910 . S
O190 Zn187 1.933 . S
O190 C201 1.226 1_455 S
O191 Zn189 1.932 . S
O191 C201 1.307 . S
O192 Zn185 1.919 . S
O192 C203 1.253 . S
O193 Zn187 1.941 1_655 S
O193 C203 1.283 . S
O194 Zn187 1.965 . S
O194 C202 1.303 . S
O195 Zn188 1.938 . S
O195 C202 1.247 . S
O196 Zn188 1.906 . S
O196 C204 1.304 1_455 S
O197 Zn185 1.924 . S
O197 C205 1.311 . S
O198 Zn189 1.977 . S
O198 C204 1.272 . S
O199 Zn189 1.910 . S
O199 C205 1.231 . S
C200 O184 1.225 . S
C200 O206 1.298 . S
C201 O190 1.226 1_655 S
C201 O191 1.307 . S
C202 O194 1.303 . S
C202 O195 1.247 . S
C203 O192 1.253 . S
C203 O193 1.283 . S
C204 O196 1.304 1_655 S
C204 O198 1.272 . S
C205 O197 1.311 . S
C205 O199 1.231 . S
O206 Zn188 1.953 1_655 S
O206 C200 1.298 . S
O207 Zn208 1.953 . S
O207 C223 1.225 . S
Zn208 O207 1.953 . S
Zn208 O209 1.949 . S
Zn208 O215 1.919 . S
Zn208 O220 1.924 . S
O209 Zn208 1.949 . S
O209 Zn210 1.923 1_565 S
O209 Zn211 1.950 1_565 S
O209 Zn212 1.945 . S
Zn210 O209 1.923 1_545 S
Zn210 O213 1.933 . S
Zn210 O216 1.941 1_545 S
Zn210 O217 1.965 . S
Zn211 O209 1.950 1_545 S
Zn211 O218 1.938 . S
Zn211 O219 1.906 . S
Zn211 O229 1.953 1_545 S
Zn212 O209 1.945 . S
Zn212 O214 1.932 . S
Zn212 O221 1.977 . S
Zn212 O222 1.910 . S
O213 Zn210 1.933 . S
O213 C224 1.226 1_545 S
O214 Zn212 1.932 . S
O214 C224 1.307 . S
O215 Zn208 1.919 . S
O215 C226 1.253 . S
O216 Zn210 1.941 1_565 S
O216 C226 1.283 . S
O217 Zn210 1.965 . S
O217 C225 1.303 . S
O218 Zn211 1.938 . S
O218 C225 1.247 . S
O219 Zn211 1.906 . S
O219 C227 1.304 1_545 S
O220 Zn208 1.924 . S
O220 C228 1.311 . S
O221 Zn212 1.977 . S
O221 C227 1.272 . S
O222 Zn212 1.910 . S
O222 C228 1.231 . S
C223 O207 1.225 . S
C223 O229 1.298 . S
C224 O213 1.226 1_565 S
C224 O214 1.307 . S
C225 O217 1.303 . S
C225 O218 1.247 . S
C226 O215 1.253 . S
C226 O216 1.283 . S
C227 O219 1.304 1_565 S
C227 O221 1.272 . S
C228 O220 1.311 . S
C228 O222 1.231 . S
O229 Zn211 1.953 1_565 S
O229 C223 1.298 . S
O230 Zn231 1.953 . S
O230 C246 1.225 . S
Zn231 O230 1.953 . S
Zn231 O232 1.949 . S
Zn231 O238 1.919 . S
Zn231 O243 1.924 . S
O232 Zn231 1.949 . S
O232 Zn233 1.923 . S
O232 Zn234 1.950 . S
O232 Zn235 1.945 . S
Zn233 O232 1.923 . S
Zn233 O236 1.933 . S
Zn233 O239 1.941 . S
Zn233 O240 1.965 . S
Zn234 O232 1.950 . S
Zn234 O241 1.938 . S
Zn234 O242 1.906 . S
Zn234 O252 1.953 . S
Zn235 O232 1.945 . S
Zn235 O237 1.932 . S
Zn235 O244 1.977 . S
Zn235 O245 1.910 . S
O236 Zn233 1.933 . S
O236 C247 1.226 . S
O237 Zn235 1.932 . S
O237 C247 1.307 . S
O238 Zn231 1.919 . S
O238 C249 1.253 . S
O239 Zn233 1.941 . S
O239 C249 1.283 . S
O240 Zn233 1.965 . S
O240 C248 1.303 . S
O241 Zn234 1.938 . S
O241 C248 1.247 . S
O242 Zn234 1.906 . S
O242 C250 1.304 . S
O243 Zn231 1.924 . S
O243 C251 1.311 . S
O244 Zn235 1.977 . S
O244 C250 1.272 . S
O245 Zn235 1.910 . S
O245 C251 1.231 . S
C246 O230 1.225 . S
C246 O252 1.298 . S
C247 O236 1.226 . S
C247 O237 1.307 . S
C248 O240 1.303 . S
C248 O241 1.247 . S
C249 O238 1.253 . S
C249 O239 1.283 . S
C250 O242 1.304 . S
C250 O244 1.272 . S
C251 O243 1.311 . S
C251 O245 1.231 . S
O252 Zn234 1.953 . S
O252 C246 1.298 . S
O253 Zn254 1.953 . S
O253 C269 1.225 . S
Zn254 O253 1.953 . S
Zn254 O255 1.949 . S
Zn254 O261 1.919 . S
Zn254 O266 1.924 . S
O255 Zn254 1.949 . S
O255 Zn256 1.923 . S
O255 Zn257 1.950 . S
O255 Zn258 1.945 . S
Zn256 O255 1.923 . S
Zn256 O259 1.933 . S
Zn256 O262 1.941 . S
Zn256 O263 1.965 . S
Zn257 O255 1.950 . S
Zn257 O264 1.938 . S
Zn257 O265 1.906 . S
Zn257 O275 1.953 . S
Zn258 O255 1.945 . S
Zn258 O260 1.932 . S
Zn258 O267 1.977 . S
Zn258 O268 1.910 . S
O259 Zn256 1.933 . S
O259 C270 1.226 . S
O260 Zn258 1.932 . S
O260 C270 1.307 . S
O261 Zn254 1.919 . S
O261 C272 1.253 . S
O262 Zn256 1.941 . S
O262 C272 1.283 . S
O263 Zn256 1.965 . S
O263 C271 1.303 . S
O264 Zn257 1.938 . S
O264 C271 1.247 . S
O265 Zn257 1.906 . S
O265 C273 1.304 . S
O266 Zn254 1.924 . S
O266 C274 1.311 . S
O267 Zn258 1.977 . S
O267 C273 1.272 . S
O268 Zn258 1.910 . S
O268 C274 1.231 . S
C269 O253 1.225 . S
C269 O275 1.298 . S
C270 O259 1.226 . S
C270 O260 1.307 . S
C271 O263 1.303 . S
C271 O264 1.247 . S
C272 O261 1.253 . S
C272 O262 1.283 . S
C273 O265 1.304 . S
C273 O267 1.272 . S
C274 O266 1.311 . S
C274 O268 1.231 . S
O275 Zn257 1.953 . S
O275 C269 1.298 . S
O276 Zn277 1.953 . S
O276 C292 1.225 . S
Zn277 O276 1.953 . S
Zn277 O278 1.949 . S
Zn277 O284 1.919 . S
Zn277 O289 1.924 . S
O278 Zn277 1.949 . S
O278 Zn279 1.923 1_655 S
O278 Zn280 1.950 1_655 S
O278 Zn281 1.945 . S
Zn279 O278 1.923 1_455 S
Zn279 O282 1.933 . S
Zn279 O285 1.941 1_455 S
Zn279 O286 1.965 . S
Zn280 O278 1.950 1_455 S
Zn280 O287 1.938 . S
Zn280 O288 1.906 . S
Zn280 O298 1.953 1_455 S
Zn281 O278 1.945 . S
Zn281 O283 1.932 . S
Zn281 O290 1.977 . S
Zn281 O291 1.910 . S
O282 Zn279 1.933 . S
O282 C293 1.226 1_455 S
O283 Zn281 1.932 . S
O283 C293 1.307 . S
O284 Zn277 1.919 . S
O284 C295 1.253 . S
O285 Zn279 1.941 1_655 S
O285 C295 1.283 . S
O286 Zn279 1.965 . S
O286 C294 1.303 . S
O287 Zn280 1.938 . S
O287 C294 1.247 . S
O288 Zn280 1.906 . S
O288 C296 1.304 1_455 S
O289 Zn277 1.924 . S
O289 C297 1.311 . S
O290 Zn281 1.977 . S
O290 C296 1.272 . S
O291 Zn281 1.910 . S
O291 C297 1.231 . S
C292 O276 1.225 . S
C292 O298 1.298 . S
C293 O282 1.226 1_655 S
C293 O283 1.307 . S
C294 O286 1.303 . S
C294 O287 1.247 . S
C295 O284 1.253 . S
C295 O285 1.283 . S
C296 O288 1.304 1_655 S
C296 O290 1.272 . S
C297 O289 1.311 . S
C297 O291 1.231 . S
O298 Zn280 1.953 1_655 S
O298 C292 1.298 . S
O299 Zn300 1.953 . S
O299 C315 1.225 . S
Zn300 O299 1.953 . S
Zn300 O301 1.949 . S
Zn300 O307 1.919 . S
Zn300 O312 1.924 . S
O301 Zn300 1.949 . S
O301 Zn302 1.923 1_565 S
O301 Zn303 1.950 1_565 S
O301 Zn304 1.945 . S
Zn302 O301 1.923 1_545 S
Zn302 O305 1.933 . S
Zn302 O308 1.941 1_545 S
Zn302 O309 1.965 . S
Zn303 O301 1.950 1_545 S
Zn303 O310 1.938 . S
Zn303 O311 1.906 . S
Zn303 O321 1.953 1_545 S
Zn304 O301 1.945 . S
Zn304 O306 1.932 . S
Zn304 O313 1.977 . S
Zn304 O314 1.910 . S
O305 Zn302 1.933 . S
O305 C316 1.226 1_545 S
O306 Zn304 1.932 . S
O306 C316 1.307 . S
O307 Zn300 1.919 . S
O307 C318 1.253 . S
O308 Zn302 1.941 1_565 S
O308 C318 1.283 . S
O309 Zn302 1.965 . S
O309 C317 1.303 . S
O310 Zn303 1.938 . S
O310 C317 1.247 . S
O311 Zn303 1.906 . S
O311 C319 1.304 1_545 S
O312 Zn300 1.924 . S
O312 C320 1.311 . S
O313 Zn304 1.977 . S
O313 C319 1.272 . S
O314 Zn304 1.910 . S
O314 C320 1.231 . S
C315 O299 1.225 . S
C315 O321 1.298 . S
C316 O305 1.226 1_565 S
C316 O306 1.307 . S
C317 O309 1.303 . S
C317 O310 1.247 . S
C318 O307 1.253 . S
C318 O308 1.283 . S
C319 O311 1.304 1_565 S
C319 O313 1.272 . S
C320 O312 1.311 . S
C320 O314 1.231 . S
O321 Zn303 1.953 1_565 S
O321 C315 1.298 . S
O322 Zn323 1.953 . S
O322 C338 1.225 . S
Zn323 O322 1.953 . S
Zn323 O324 1.949 . S
Zn323 O330 1.919 . S
Zn323 O335 1.924 . S
O324 Zn323 1.949 . S
O324 Zn325 1.923 . S
O324 Zn326 1.950 . S
O324 Zn327 1.945 . S
Zn325 O324 1.923 . S
Zn325 O328 1.933 . S
Zn325 O331 1.941 . S
Zn325 O332 1.965 . S
Zn326 O324 1.950 . S
Zn326 O333 1.938 . S
Zn326 O334 1.906 . S
Zn326 O344 1.953 . S
Zn327 O324 1.945 . S
Zn327 O329 1.932 . S
Zn327 O336 1.977 . S
Zn327 O337 1.910 . S
O328 Zn325 1.933 . S
O328 C339 1.226 . S
O329 Zn327 1.932 . S
O329 C339 1.307 . S
O330 Zn323 1.919 . S
O330 C341 1.253 . S
O331 Zn325 1.941 . S
O331 C341 1.283 . S
O332 Zn325 1.965 . S
O332 C340 1.303 . S
O333 Zn326 1.938 . S
O333 C340 1.247 . S
O334 Zn326 1.906 . S
O334 C342 1.304 . S
O335 Zn323 1.924 . S
O335 C343 1.311 . S
O336 Zn327 1.977 . S
O336 C342 1.272 . S
O337 Zn327 1.910 . S
O337 C343 1.231 . S
C338 O322 1.225 . S
C338 O344 1.298 . S
C339 O328 1.226 . S
C339 O329 1.307 . S
C340 O332 1.303 . S
C340 O333 1.247 . S
C341 O330 1.253 . S
C341 O331 1.283 . S
C342 O334 1.304 . S
C342 O336 1.272 . S
C343 O335 1.311 . S
C343 O337 1.231 . S
O344 Zn326 1.953 . S
O344 C338 1.298 . S
O345 Zn346 1.953 . S
O345 C361 1.225 . S
Zn346 O345 1.953 . S
Zn346 O347 1.949 . S
Zn346 O353 1.919 . S
Zn346 O358 1.924 . S
O347 Zn346 1.949 . S
O347 Zn348 1.923 . S
O347 Zn349 1.950 . S
O347 Zn350 1.945 . S
Zn348 O347 1.923 . S
Zn348 O351 1.933 . S
Zn348 O354 1.941 . S
Zn348 O355 1.965 . S
Zn349 O347 1.950 . S
Zn349 O356 1.938 . S
Zn349 O357 1.906 . S
Zn349 O367 1.953 . S
Zn350 O347 1.945 . S
Zn350 O352 1.932 . S
Zn350 O359 1.977 . S
Zn350 O360 1.910 . S
O351 Zn348 1.933 . S
O351 C362 1.226 . S
O352 Zn350 1.932 . S
O352 C362 1.307 . S
O353 Zn346 1.919 . S
O353 C364 1.253 . S
O354 Zn348 1.941 . S
O354 C364 1.283 . S
O355 Zn348 1.965 . S
O355 C363 1.303 . S
O356 Zn349 1.938 . S
O356 C363 1.247 . S
O357 Zn349 1.906 . S
O357 C365 1.304 . S
O358 Zn346 1.924 . S
O358 C366 1.311 . S
O359 Zn350 1.977 . S
O359 C365 1.272 . S
O360 Zn350 1.910 . S
O360 C366 1.231 . S
C361 O345 1.225 . S
C361 O367 1.298 . S
C362 O351 1.226 . S
C362 O352 1.307 . S
C363 O355 1.303 . S
C363 O356 1.247 . S
C364 O353 1.253 . S
C364 O354 1.283 . S
C365 O357 1.304 . S
C365 O359 1.272 . S
C366 O358 1.311 . S
C366 O360 1.231 . S
O367 Zn349 1.953 . S
O367 C361 1.298 . S
C368 C369 1.363 . S
C368 C374 1.379 . S
C368 N376 1.356 . S
C369 C368 1.363 . S
C369 C375 1.363 . S
C370 C371 1.363 . S
C370 C375 1.379 . S
C370 N377 1.356 . S
C371 C370 1.363 . S
C371 C374 1.363 . S
N372 C374 1.356 . S
N372 H384 0.984 . S
N372 H385 0.985 . S
N373 C375 1.356 . S
N373 H378 0.984 . S
N373 H379 0.985 . S
C374 C368 1.379 . S
C374 C371 1.363 . S
C374 N372 1.356 . S
C375 C369 1.363 . S
C375 C370 1.379 . S
C375 N373 1.356 . S
N376 C368 1.356 . S
N376 H382 0.984 . S
N376 H383 0.984 . S
N377 C370 1.356 . S
N377 H380 0.984 . S
N377 H381 0.985 . S
H378 N373 0.984 . S
H379 N373 0.985 . S
H380 N377 0.984 . S
H381 N377 0.985 . S
H382 N376 0.984 . S
H383 N376 0.984 . S
H384 N372 0.984 . S
H385 N372 0.985 . S
C386 C387 1.363 . S
C386 C392 1.379 . S
C386 N394 1.356 1_655 S
C387 C386 1.363 . S
C387 C393 1.363 . S
C388 C389 1.363 . S
C388 C393 1.379 . S
C388 N395 1.356 . S
C389 C388 1.363 . S
C389 C392 1.363 . S
N390 C392 1.356 . S
N390 H402 0.984 . S
N390 H403 0.985 . S
N391 C393 1.356 . S
N391 H396 0.984 1_655 S
N391 H397 0.985 . S
C392 C386 1.379 . S
C392 C389 1.363 . S
C392 N390 1.356 . S
C393 C387 1.363 . S
C393 C388 1.379 . S
C393 N391 1.356 . S
N394 C386 1.356 1_455 S
N394 H400 0.984 . S
N394 H401 0.984 . S
N395 C388 1.356 . S
N395 H398 0.984 . S
N395 H399 0.985 . S
H396 N391 0.984 1_455 S
H397 N391 0.985 . S
H398 N395 0.984 . S
H399 N395 0.985 . S
H400 N394 0.984 . S
H401 N394 0.984 . S
H402 N390 0.984 . S
H403 N390 0.985 . S
C404 C405 1.363 . S
C404 C410 1.379 1_565 S
C404 N412 1.356 . S
C405 C404 1.363 . S
C405 C411 1.363 . S
C406 C407 1.363 . S
C406 C411 1.379 . S
C406 N413 1.356 . S
C407 C406 1.363 . S
C407 C410 1.363 1_565 S
N408 C410 1.356 . S
N408 H420 0.984 . S
N408 H421 0.985 . S
N409 C411 1.356 . S
N409 H414 0.984 . S
N409 H415 0.985 . S
C410 C404 1.379 1_545 S
C410 C407 1.363 1_545 S
C410 N408 1.356 . S
C411 C405 1.363 . S
C411 C406 1.379 . S
C411 N409 1.356 . S
N412 C404 1.356 . S
N412 H418 0.984 1_565 S
N412 H419 0.984 . S
N413 C406 1.356 . S
N413 H416 0.984 . S
N413 H417 0.985 . S
H414 N409 0.984 . S
H415 N409 0.985 . S
H416 N413 0.984 . S
H417 N413 0.985 . S
H418 N412 0.984 1_545 S
H419 N412 0.984 . S
H420 N408 0.984 . S
H421 N408 0.985 . S
C422 C423 1.363 . S
C422 C428 1.379 . S
C422 N430 1.356 . S
C423 C422 1.363 . S
C423 C429 1.363 . S
C424 C425 1.363 . S
C424 C429 1.379 . S
C424 N431 1.356 . S
C425 C424 1.363 . S
C425 C428 1.363 . S
N426 C428 1.356 . S
N426 H438 0.984 . S
N426 H439 0.985 . S
N427 C429 1.356 . S
N427 H432 0.984 . S
N427 H433 0.985 . S
C428 C422 1.379 . S
C428 C425 1.363 . S
C428 N426 1.356 . S
C429 C423 1.363 . S
C429 C424 1.379 . S
C429 N427 1.356 . S
N430 C422 1.356 . S
N430 H436 0.984 . S
N430 H437 0.984 . S
N431 C424 1.356 . S
N431 H434 0.984 . S
N431 H435 0.985 . S
H432 N427 0.984 . S
H433 N427 0.985 . S
H434 N431 0.984 . S
H435 N431 0.985 . S
H436 N430 0.984 . S
H437 N430 0.984 . S
H438 N426 0.984 . S
H439 N426 0.985 . S
C440 C441 1.363 . S
C440 C446 1.379 . S
C440 N448 1.356 . S
C441 C440 1.363 . S
C441 C447 1.363 . S
C442 C443 1.363 . S
C442 C447 1.379 . S
C442 N449 1.356 . S
C443 C442 1.363 . S
C443 C446 1.363 . S
N444 C446 1.356 1_545 S
N444 H456 0.984 . S
N444 H457 0.985 . S
N445 C447 1.356 . S
N445 H450 0.984 . S
N445 H451 0.985 . S
C446 C440 1.379 . S
C446 C443 1.363 . S
C446 N444 1.356 1_565 S
C447 C441 1.363 . S
C447 C442 1.379 . S
C447 N445 1.356 . S
N448 C440 1.356 . S
N448 H454 0.984 . S
N448 H455 0.984 . S
N449 C442 1.356 . S
N449 H452 0.984 1_565 S
N449 H453 0.985 . S
H450 N445 0.984 . S
H451 N445 0.985 . S
H452 N449 0.984 1_545 S
H453 N449 0.985 . S
H454 N448 0.984 . S
H455 N448 0.984 . S
H456 N444 0.984 . S
H457 N444 0.985 . S
C458 C459 1.363 . S
C458 C464 1.379 . S
C458 N466 1.356 . S
C459 C458 1.363 . S
C459 C465 1.363 . S
C460 C461 1.363 . S
C460 C465 1.379 . S
C460 N467 1.356 . S
C461 C460 1.363 . S
C461 C464 1.363 . S
N462 C464 1.356 . S
N462 H474 0.984 . S
N462 H475 0.985 . S
N463 C465 1.356 . S
N463 H468 0.984 . S
N463 H469 0.985 . S
C464 C458 1.379 . S
C464 C461 1.363 . S
C464 N462 1.356 . S
C465 C459 1.363 . S
C465 C460 1.379 . S
C465 N463 1.356 . S
N466 C458 1.356 . S
N466 H472 0.984 . S
N466 H473 0.984 . S
N467 C460 1.356 . S
N467 H470 0.984 . S
N467 H471 0.985 . S
H468 N463 0.984 . S
H469 N463 0.985 . S
H470 N467 0.984 . S
H471 N467 0.985 . S
H472 N466 0.984 . S
H473 N466 0.984 . S
H474 N462 0.984 . S
H475 N462 0.985 . S
C476 C477 1.363 . S
C476 C482 1.379 . S
C476 N484 1.356 . S
C477 C476 1.363 . S
C477 C483 1.363 . S
C478 C479 1.363 . S
C478 C483 1.379 . S
C478 N485 1.356 . S
C479 C478 1.363 . S
C479 C482 1.363 . S
N480 C482 1.356 . S
N480 H492 0.984 . S
N480 H493 0.985 . S
N481 C483 1.356 . S
N481 H486 0.984 . S
N481 H487 0.985 . S
C482 C476 1.379 . S
C482 C479 1.363 . S
C482 N480 1.356 . S
C483 C477 1.363 . S
C483 C478 1.379 . S
C483 N481 1.356 . S
N484 C476 1.356 . S
N484 H490 0.984 . S
N484 H491 0.984 . S
N485 C478 1.356 . S
N485 H488 0.984 . S
N485 H489 0.985 . S
H486 N481 0.984 . S
H487 N481 0.985 . S
H488 N485 0.984 . S
H489 N485 0.985 . S
H490 N484 0.984 . S
H491 N484 0.984 . S
H492 N480 0.984 . S
H493 N480 0.985 . S
C494 C495 1.363 . S
C494 C500 1.379 . S
C494 N502 1.356 . S
C495 C494 1.363 . S
C495 C501 1.363 . S
C496 C497 1.363 . S
C496 C501 1.379 . S
C496 N503 1.356 . S
C497 C496 1.363 . S
C497 C500 1.363 . S
N498 C500 1.356 . S
N498 H510 0.984 . S
N498 H511 0.985 . S
N499 C501 1.356 1_455 S
N499 H504 0.984 . S
N499 H505 0.985 . S
C500 C494 1.379 . S
C500 C497 1.363 . S
C500 N498 1.356 . S
C501 C495 1.363 . S
C501 C496 1.379 . S
C501 N499 1.356 1_655 S
N502 C494 1.356 . S
N502 H508 0.984 . S
N502 H509 0.984 . S
N503 C496 1.356 . S
N503 H506 0.984 . S
N503 H507 0.985 . S
H504 N499 0.984 . S
H505 N499 0.985 . S
H506 N503 0.984 . S
H507 N503 0.985 . S
H508 N502 0.984 . S
H509 N502 0.984 . S
H510 N498 0.984 . S
H511 N498 0.985 . S
C512 C513 1.363 . S
C512 C518 1.379 . S
C512 N520 1.356 . S
C513 C512 1.363 . S
C513 C519 1.363 . S
C514 C515 1.363 . S
C514 C519 1.379 . S
C514 N521 1.356 . S
C515 C514 1.363 . S
C515 C518 1.363 . S
N516 C518 1.356 . S
N516 H528 0.984 . S
N516 H529 0.985 . S
N517 C519 1.356 . S
N517 H522 0.984 . S
N517 H523 0.985 . S
C518 C512 1.379 . S
C518 C515 1.363 . S
C518 N516 1.356 . S
C519 C513 1.363 . S
C519 C514 1.379 . S
C519 N517 1.356 . S
N520 C512 1.356 . S
N520 H526 0.984 . S
N520 H527 0.984 . S
N521 C514 1.356 . S
N521 H524 0.984 . S
N521 H525 0.985 . S
H522 N517 0.984 . S
H523 N517 0.985 . S
H524 N521 0.984 . S
H525 N521 0.985 . S
H526 N520 0.984 . S
H527 N520 0.984 . S
H528 N516 0.984 . S
H529 N516 0.985 . S
C530 C531 1.363 . S
C530 C536 1.379 . S
C530 N538 1.356 1_455 S
C531 C530 1.363 . S
C531 C537 1.363 . S
C532 C533 1.363 . S
C532 C537 1.379 . S
C532 N539 1.356 . S
C533 C532 1.363 . S
C533 C536 1.363 . S
N534 C536 1.356 . S
N534 H546 0.984 . S
N534 H547 0.985 . S
N535 C537 1.356 . S
N535 H540 0.984 1_455 S
N535 H541 0.985 . S
C536 C530 1.379 . S
C536 C533 1.363 . S
C536 N534 1.356 . S
C537 C531 1.363 . S
C537 C532 1.379 . S
C537 N535 1.356 . S
N538 C530 1.356 1_655 S
N538 H544 0.984 . S
N538 H545 0.984 . S
N539 C532 1.356 . S
N539 H542 0.984 . S
N539 H543 0.985 . S
H540 N535 0.984 1_655 S
H541 N535 0.985 . S
H542 N539 0.984 . S
H543 N539 0.985 . S
H544 N538 0.984 . S
H545 N538 0.984 . S
H546 N534 0.984 . S
H547 N534 0.985 . S
C548 C549 1.363 1_565 S
C548 C554 1.379 1_565 S
C548 N556 1.356 . S
C549 C548 1.363 1_545 S
C549 C555 1.363 . S
C550 C551 1.363 . S
C550 C555 1.379 . S
C550 N557 1.356 . S
C551 C550 1.363 . S
C551 C554 1.363 . S
N552 C554 1.356 . S
N552 H564 0.984 1_545 S
N552 H565 0.985 . S
N553 C555 1.356 . S
N553 H558 0.984 . S
N553 H559 0.985 . S
C554 C548 1.379 1_545 S
C554 C551 1.363 . S
C554 N552 1.356 . S
C555 C549 1.363 . S
C555 C550 1.379 . S
C555 N553 1.356 . S
N556 C548 1.356 . S
N556 H562 0.984 . S
N556 H563 0.984 . S
N557 C550 1.356 . S
N557 H560 0.984 . S
N557 H561 0.985 . S
H558 N553 0.984 . S
H559 N553 0.985 . S
H560 N557 0.984 . S
H561 N557 0.985 . S
H562 N556 0.984 . S
H563 N556 0.984 . S
H564 N552 0.984 1_565 S
H565 N552 0.985 . S
C566 C567 1.363 . S
C566 C572 1.379 . S
C566 N574 1.356 . S
C567 C566 1.363 . S
C567 C573 1.363 . S
C568 C569 1.363 . S
C568 C573 1.379 . S
C568 N575 1.356 . S
C569 C568 1.363 . S
C569 C572 1.363 . S
N570 C572 1.356 . S
N570 H582 0.984 . S
N570 H583 0.985 . S
N571 C573 1.356 . S
N571 H576 0.984 . S
N571 H577 0.985 . S
C572 C566 1.379 . S
C572 C569 1.363 . S
C572 N570 1.356 . S
C573 C567 1.363 . S
C573 C568 1.379 . S
C573 N571 1.356 . S
N574 C566 1.356 . S
N574 H580 0.984 . S
N574 H581 0.984 . S
N575 C568 1.356 . S
N575 H578 0.984 . S
N575 H579 0.985 . S
H576 N571 0.984 . S
H577 N571 0.985 . S
H578 N575 0.984 . S
H579 N575 0.985 . S
H580 N574 0.984 . S
H581 N574 0.984 . S
H582 N570 0.984 . S
H583 N570 0.985 . S
C584 C585 1.363 . S
C584 C590 1.379 . S
C584 N592 1.356 . S
C585 C584 1.363 . S
C585 C591 1.363 . S
C586 C587 1.363 1_565 S
C586 C591 1.379 1_565 S
C586 N593 1.356 . S
C587 C586 1.363 1_545 S
C587 C590 1.363 . S
N588 C590 1.356 . S
N588 H600 0.984 . S
N588 H601 0.985 . S
N589 C591 1.356 . S
N589 H594 0.984 . S
N589 H595 0.985 1_545 S
C590 C584 1.379 . S
C590 C587 1.363 . S
C590 N588 1.356 . S
C591 C585 1.363 . S
C591 C586 1.379 1_545 S
C591 N589 1.356 . S
N592 C584 1.356 . S
N592 H598 0.984 . S
N592 H599 0.984 . S
N593 C586 1.356 . S
N593 H596 0.984 . S
N593 H597 0.985 . S
H594 N589 0.984 . S
H595 N589 0.985 1_565 S
H596 N593 0.984 . S
H597 N593 0.985 . S
H598 N592 0.984 . S
H599 N592 0.984 . S
H600 N588 0.984 . S
H601 N588 0.985 . S
C602 C603 1.363 . S
C602 C608 1.379 . S
C602 N610 1.356 . S
C603 C602 1.363 . S
C603 C609 1.363 . S
C604 C605 1.363 . S
C604 C609 1.379 . S
C604 N611 1.356 . S
C605 C604 1.363 . S
C605 C608 1.363 . S
N606 C608 1.356 . S
N606 H618 0.984 . S
N606 H619 0.985 . S
N607 C609 1.356 . S
N607 H612 0.984 . S
N607 H613 0.985 . S
C608 C602 1.379 . S
C608 C605 1.363 . S
C608 N606 1.356 . S
C609 C603 1.363 . S
C609 C604 1.379 . S
C609 N607 1.356 . S
N610 C602 1.356 . S
N610 H616 0.984 . S
N610 H617 0.984 . S
N611 C604 1.356 . S
N611 H614 0.984 . S
N611 H615 0.985 . S
H612 N607 0.984 . S
H613 N607 0.985 . S
H614 N611 0.984 . S
H615 N611 0.985 . S
H616 N610 0.984 . S
H617 N610 0.984 . S
H618 N606 0.984 . S
H619 N606 0.985 . S
C620 C621 1.363 . S
C620 C626 1.379 . S
C620 N628 1.356 . S
C621 C620 1.363 . S
C621 C627 1.363 . S
C622 C623 1.363 . S
C622 C627 1.379 . S
C622 N629 1.356 . S
C623 C622 1.363 . S
C623 C626 1.363 . S
N624 C626 1.356 . S
N624 H636 0.984 . S
N624 H637 0.985 . S
N625 C627 1.356 . S
N625 H630 0.984 . S
N625 H631 0.985 . S
C626 C620 1.379 . S
C626 C623 1.363 . S
C626 N624 1.356 . S
C627 C621 1.363 . S
C627 C622 1.379 . S
C627 N625 1.356 . S
N628 C620 1.356 . S
N628 H634 0.984 . S
N628 H635 0.984 . S
N629 C622 1.356 . S
N629 H632 0.984 . S
N629 H633 0.985 . S
H630 N625 0.984 . S
H631 N625 0.985 . S
H632 N629 0.984 . S
H633 N629 0.985 . S
H634 N628 0.984 . S
H635 N628 0.984 . S
H636 N624 0.984 . S
H637 N624 0.985 . S
C638 C639 1.363 . S
C638 C644 1.379 . S
C638 N646 1.356 . S
C639 C638 1.363 . S
C639 C645 1.363 . S
C640 C641 1.363 1_655 S
C640 C645 1.379 1_655 S
C640 N647 1.356 . S
C641 C640 1.363 1_455 S
C641 C644 1.363 . S
N642 C644 1.356 . S
N642 H654 0.984 . S
N642 H655 0.985 . S
N643 C645 1.356 . S
N643 H648 0.984 . S
N643 H649 0.983 . S
C644 C638 1.379 . S
C644 C641 1.363 . S
C644 N642 1.356 . S
C645 C639 1.363 . S
C645 C640 1.379 1_455 S
C645 N643 1.356 . S
N646 C638 1.356 . S
N646 H652 0.984 . S
N646 H653 0.984 . S
N647 C640 1.356 . S
N647 H650 0.984 . S
N647 H651 0.985 . S
H648 N643 0.984 . S
H649 N643 0.983 . S
H650 N647 0.984 . S
H651 N647 0.985 . S
H652 N646 0.984 . S
H653 N646 0.984 . S
H654 N642 0.984 . S
H655 N642 0.985 . S
C656 C657 1.363 . S
C656 C662 1.379 . S
C656 N664 1.356 . S
C657 C656 1.363 . S
C657 C663 1.363 . S
C658 C659 1.363 . S
C658 C663 1.379 . S
C658 N665 1.356 . S
C659 C658 1.363 . S
C659 C662 1.363 . S
N660 C662 1.356 . S
N660 H672 0.984 . S
N660 H673 0.985 . S
N661 C663 1.356 . S
N661 H666 0.984 . S
N661 H667 0.985 . S
C662 C656 1.379 . S
C662 C659 1.363 . S
C662 N660 1.356 . S
C663 C657 1.363 . S
C663 C658 1.379 . S
C663 N661 1.356 . S
N664 C656 1.356 . S
N664 H670 0.984 . S
N664 H671 0.984 . S
N665 C658 1.356 . S
N665 H668 0.984 . S
N665 H669 0.985 . S
H666 N661 0.984 . S
H667 N661 0.985 . S
H668 N665 0.984 . S
H669 N665 0.985 . S
H670 N664 0.984 . S
H671 N664 0.984 . S
H672 N660 0.984 . S
H673 N660 0.985 . S
C674 C675 1.363 . S
C674 C680 1.379 . S
C674 N682 1.356 . S
C675 C674 1.363 . S
C675 C681 1.363 1_545 S
C676 C677 1.363 1_565 S
C676 C681 1.379 . S
C676 N683 1.356 . S
C677 C676 1.363 1_545 S
C677 C680 1.363 . S
N678 C680 1.356 . S
N678 H690 0.984 . S
N678 H691 0.985 . S
N679 C681 1.356 . S
N679 H684 0.984 . S
N679 H685 0.985 . S
C680 C674 1.379 . S
C680 C677 1.363 . S
C680 N678 1.356 . S
C681 C675 1.363 1_565 S
C681 C676 1.379 . S
C681 N679 1.356 . S
N682 C674 1.356 . S
N682 H688 0.984 . S
N682 H689 0.984 . S
N683 C676 1.356 . S
N683 H686 0.984 . S
N683 H687 0.985 . S
H684 N679 0.984 . S
H685 N679 0.985 . S
H686 N683 0.984 . S
H687 N683 0.985 . S
H688 N682 0.984 . S
H689 N682 0.984 . S
H690 N678 0.984 . S
H691 N678 0.985 . S
C692 C693 1.363 . S
C692 C698 1.379 . S
C692 N700 1.356 . S
C693 C692 1.363 . S
C693 C699 1.363 . S
C694 C695 1.363 . S
C694 C699 1.379 . S
C694 N701 1.356 . S
C695 C694 1.363 . S
C695 C698 1.363 . S
N696 C698 1.356 . S
N696 H708 0.984 . S
N696 H709 0.985 . S
N697 C699 1.356 . S
N697 H702 0.984 . S
N697 H703 0.985 . S
C698 C692 1.379 . S
C698 C695 1.363 . S
C698 N696 1.356 . S
C699 C693 1.363 . S
C699 C694 1.379 . S
C699 N697 1.356 . S
N700 C692 1.356 . S
N700 H706 0.984 . S
N700 H707 0.984 . S
N701 C694 1.356 . S
N701 H704 0.984 . S
N701 H705 0.985 . S
H702 N697 0.984 . S
H703 N697 0.985 . S
H704 N701 0.984 . S
H705 N701 0.985 . S
H706 N700 0.984 . S
H707 N700 0.984 . S
H708 N696 0.984 . S
H709 N696 0.985 . S
C710 C711 1.363 . S
C710 C716 1.379 . S
C710 N718 1.356 . S
C711 C710 1.363 . S
C711 C717 1.363 . S
C712 C713 1.363 . S
C712 C717 1.379 . S
C712 N719 1.356 . S
C713 C712 1.363 . S
C713 C716 1.363 . S
N714 C716 1.356 . S
N714 H726 0.984 . S
N714 H727 0.985 . S
N715 C717 1.356 . S
N715 H720 0.984 . S
N715 H721 0.985 . S
C716 C710 1.379 . S
C716 C713 1.363 . S
C716 N714 1.356 . S
C717 C711 1.363 . S
C717 C712 1.379 . S
C717 N715 1.356 . S
N718 C710 1.356 . S
N718 H724 0.984 . S
N718 H725 0.984 . S
N719 C712 1.356 . S
N719 H722 0.984 . S
N719 H723 0.985 . S
H720 N715 0.984 . S
H721 N715 0.985 . S
H722 N719 0.984 . S
H723 N719 0.985 . S
H724 N718 0.984 . S
H725 N718 0.984 . S
H726 N714 0.984 . S
H727 N714 0.985 . S
C728 C729 1.363 . S
C728 C734 1.379 . S
C728 N736 1.356 . S
C729 C728 1.363 . S
C729 C735 1.363 . S
C730 C731 1.363 . S
C730 C735 1.379 . S
C730 N737 1.356 . S
C731 C730 1.363 . S
C731 C734 1.363 . S
N732 C734 1.356 . S
N732 H744 0.984 . S
N732 H745 0.985 . S
N733 C735 1.356 . S
N733 H738 0.984 . S
N733 H739 0.985 . S
C734 C728 1.379 . S
C734 C731 1.363 . S
C734 N732 1.356 . S
C735 C729 1.363 . S
C735 C730 1.379 . S
C735 N733 1.356 . S
N736 C728 1.356 . S
N736 H742 0.984 . S
N736 H743 0.984 . S
N737 C730 1.356 . S
N737 H740 0.984 . S
N737 H741 0.985 . S
H738 N733 0.984 . S
H739 N733 0.985 . S
H740 N737 0.984 . S
H741 N737 0.985 . S
H742 N736 0.984 . S
H743 N736 0.984 . S
H744 N732 0.984 . S
H745 N732 0.985 . S
C746 C747 1.363 . S
C746 C752 1.379 . S
C746 N754 1.356 . S
C747 C746 1.363 . S
C747 C753 1.363 1_565 S
C748 C749 1.363 1_545 S
C748 C753 1.379 . S
C748 N755 1.356 . S
C749 C748 1.363 1_565 S
C749 C752 1.363 . S
N750 C752 1.356 . S
N750 H762 0.984 . S
N750 H763 0.985 . S
N751 C753 1.356 . S
N751 H756 0.984 . S
N751 H757 0.985 . S
C752 C746 1.379 . S
C752 C749 1.363 . S
C752 N750 1.356 . S
C753 C747 1.363 1_545 S
C753 C748 1.379 . S
C753 N751 1.356 . S
N754 C746 1.356 . S
N754 H760 0.984 . S
N754 H761 0.984 . S
N755 C748 1.356 . S
N755 H758 0.984 . S
N755 H759 0.985 . S
H756 N751 0.984 . S
H757 N751 0.985 . S
H758 N755 0.984 . S
H759 N755 0.985 . S
H760 N754 0.984 . S
H761 N754 0.984 . S
H762 N750 0.984 . S
H763 N750 0.985 . S
C764 C765 1.363 . S
C764 C770 1.379 . S
C764 N772 1.356 . S
C765 C764 1.363 . S
C765 C771 1.363 . S
C766 C767 1.363 . S
C766 C771 1.379 . S
C766 N773 1.356 . S
C767 C766 1.363 . S
C767 C770 1.363 . S
N768 C770 1.356 . S
N768 H780 0.984 . S
N768 H781 0.985 . S
N769 C771 1.356 . S
N769 H774 0.984 . S
N769 H775 0.985 . S
C770 C764 1.379 . S
C770 C767 1.363 . S
C770 N768 1.356 . S
C771 C765 1.363 . S
C771 C766 1.379 . S
C771 N769 1.356 . S
N772 C764 1.356 . S
N772 H778 0.984 . S
N772 H779 0.984 . S
N773 C766 1.356 . S
N773 H776 0.984 . S
N773 H777 0.985 . S
H774 N769 0.984 . S
H775 N769 0.985 . S
H776 N773 0.984 . S
H777 N773 0.985 . S
H778 N772 0.984 . S
H779 N772 0.984 . S
H780 N768 0.984 . S
H781 N768 0.985 . S
C782 C783 1.363 . S
C782 C788 1.379 . S
C782 N790 1.356 . S
C783 C782 1.363 . S
C783 C789 1.363 . S
C784 C785 1.363 . S
C784 C789 1.379 . S
C784 N791 1.356 . S
C785 C784 1.363 . S
C785 C788 1.363 . S
N786 C788 1.356 . S
N786 H798 0.984 . S
N786 H799 0.985 . S
N787 C789 1.356 . S
N787 H792 0.984 . S
N787 H793 0.985 . S
C788 C782 1.379 . S
C788 C785 1.363 . S
C788 N786 1.356 . S
C789 C783 1.363 . S
C789 C784 1.379 . S
C789 N787 1.356 . S
N790 C782 1.356 . S
N790 H796 0.984 . S
N790 H797 0.984 . S
N791 C784 1.356 . S
N791 H794 0.984 . S
N791 H795 0.985 . S
H792 N787 0.984 . S
H793 N787 0.985 . S
H794 N791 0.984 . S
H795 N791 0.985 . S
H796 N790 0.984 . S
H797 N790 0.984 . S
H798 N786 0.984 . S
H799 N786 0.985 . S
C800 C801 1.363 . S
C800 C806 1.379 . S
C800 N808 1.356 . S
C801 C800 1.363 . S
C801 C807 1.363 . S
C802 C803 1.363 . S
C802 C807 1.379 . S
C802 N809 1.356 . S
C803 C802 1.363 . S
C803 C806 1.363 . S
N804 C806 1.356 . S
N804 H816 0.984 . S
N804 H817 0.985 . S
N805 C807 1.356 . S
N805 H810 0.984 . S
N805 H811 0.985 . S
C806 C800 1.379 . S
C806 C803 1.363 . S
C806 N804 1.356 . S
C807 C801 1.363 . S
C807 C802 1.379 . S
C807 N805 1.356 . S
N808 C800 1.356 . S
N808 H814 0.984 . S
N808 H815 0.984 . S
N809 C802 1.356 . S
N809 H812 0.984 . S
N809 H813 0.985 . S
H810 N805 0.984 . S
H811 N805 0.985 . S
H812 N809 0.984 . S
H813 N809 0.985 . S
H814 N808 0.984 . S
H815 N808 0.984 . S
H816 N804 0.984 . S
H817 N804 0.985 . S
C818 C819 1.363 . S
C818 C824 1.379 . S
C818 N826 1.356 . S
C819 C818 1.363 . S
C819 C825 1.363 . S
C820 C821 1.363 . S
C820 C825 1.379 . S
C820 N827 1.356 . S
C821 C820 1.363 . S
C821 C824 1.363 . S
N822 C824 1.356 . S
N822 H834 0.984 . S
N822 H835 0.985 . S
N823 C825 1.356 . S
N823 H828 0.984 . S
N823 H829 0.985 . S
C824 C818 1.379 . S
C824 C821 1.363 . S
C824 N822 1.356 . S
C825 C819 1.363 . S
C825 C820 1.379 . S
C825 N823 1.356 . S
N826 C818 1.356 . S
N826 H832 0.984 . S
N826 H833 0.984 . S
N827 C820 1.356 . S
N827 H830 0.984 . S
N827 H831 0.985 . S
H828 N823 0.984 . S
H829 N823 0.985 . S
H830 N827 0.984 . S
H831 N827 0.985 . S
H832 N826 0.984 . S
H833 N826 0.984 . S
H834 N822 0.984 . S
H835 N822 0.985 . S
C836 C837 1.363 . S
C836 C842 1.379 . S
C836 N844 1.356 . S
C837 C836 1.363 . S
C837 C843 1.363 . S
C838 C839 1.363 . S
C838 C843 1.379 . S
C838 N845 1.356 . S
C839 C838 1.363 . S
C839 C842 1.363 . S
N840 C842 1.356 . S
N840 H852 0.984 . S
N840 H853 0.985 . S
N841 C843 1.356 . S
N841 H846 0.984 . S
N841 H847 0.985 . S
C842 C836 1.379 . S
C842 C839 1.363 . S
C842 N840 1.356 . S
C843 C837 1.363 . S
C843 C838 1.379 . S
C843 N841 1.356 . S
N844 C836 1.356 . S
N844 H850 0.984 . S
N844 H851 0.984 . S
N845 C838 1.356 . S
N845 H848 0.984 . S
N845 H849 0.985 . S
H846 N841 0.984 . S
H847 N841 0.985 . S
H848 N845 0.984 . S
H849 N845 0.985 . S
H850 N844 0.984 . S
H851 N844 0.984 . S
H852 N840 0.984 . S
H853 N840 0.985 . S
C854 C855 1.363 . S
C854 C860 1.379 . S
C854 N862 1.356 . S
C855 C854 1.363 . S
C855 C861 1.363 . S
C856 C857 1.363 . S
C856 C861 1.379 . S
C856 N863 1.356 . S
C857 C856 1.363 . S
C857 C860 1.363 . S
N858 C860 1.356 . S
N858 H870 0.984 . S
N858 H871 0.985 . S
N859 C861 1.356 . S
N859 H864 0.984 . S
N859 H865 0.985 . S
C860 C854 1.379 . S
C860 C857 1.363 . S
C860 N858 1.356 . S
C861 C855 1.363 . S
C861 C856 1.379 . S
C861 N859 1.356 . S
N862 C854 1.356 . S
N862 H868 0.984 . S
N862 H869 0.984 . S
N863 C856 1.356 . S
N863 H866 0.984 . S
N863 H867 0.985 . S
H864 N859 0.984 . S
H865 N859 0.985 . S
H866 N863 0.984 . S
H867 N863 0.985 . S
H868 N862 0.984 . S
H869 N862 0.984 . S
H870 N858 0.984 . S
H871 N858 0.985 . S
C872 C873 1.363 . S
C872 C878 1.379 . S
C872 N880 1.356 . S
C873 C872 1.363 . S
C873 C879 1.363 . S
C874 C875 1.363 . S
C874 C879 1.379 . S
C874 N881 1.356 . S
C875 C874 1.363 . S
C875 C878 1.363 . S
N876 C878 1.356 . S
N876 H888 0.984 . S
N876 H889 0.985 . S
N877 C879 1.356 . S
N877 H882 0.984 . S
N877 H883 0.985 . S
C878 C872 1.379 . S
C878 C875 1.363 . S
C878 N876 1.356 . S
C879 C873 1.363 . S
C879 C874 1.379 . S
C879 N877 1.356 . S
N880 C872 1.356 . S
N880 H886 0.984 . S
N880 H887 0.984 . S
N881 C874 1.356 . S
N881 H884 0.984 . S
N881 H885 0.985 . S
H882 N877 0.984 . S
H883 N877 0.985 . S
H884 N881 0.984 . S
H885 N881 0.985 . S
H886 N880 0.984 . S
H887 N880 0.984 . S
H888 N876 0.984 . S
H889 N876 0.985 . S
C890 C891 1.363 . S
C890 C896 1.379 . S
C890 N898 1.356 . S
C891 C890 1.363 . S
C891 C897 1.363 . S
C892 C893 1.363 . S
C892 C897 1.379 . S
C892 N899 1.356 . S
C893 C892 1.363 . S
C893 C896 1.363 . S
N894 C896 1.356 . S
N894 H906 0.984 . S
N894 H907 0.985 . S
N895 C897 1.356 . S
N895 H900 0.984 . S
N895 H901 0.985 . S
C896 C890 1.379 . S
C896 C893 1.363 . S
C896 N894 1.356 . S
C897 C891 1.363 . S
C897 C892 1.379 . S
C897 N895 1.356 . S
N898 C890 1.356 . S
N898 H904 0.984 . S
N898 H905 0.984 . S
N899 C892 1.356 . S
N899 H902 0.984 . S
N899 H903 0.985 . S
H900 N895 0.984 . S
H901 N895 0.985 . S
H902 N899 0.984 . S
H903 N899 0.985 . S
H904 N898 0.984 . S
H905 N898 0.984 . S
H906 N894 0.984 . S
H907 N894 0.985 . S
C908 C909 1.363 . S
C908 C914 1.379 . S
C908 N916 1.356 . S
C909 C908 1.363 . S
C909 C915 1.363 . S
C910 C911 1.363 . S
C910 C915 1.379 . S
C910 N917 1.356 . S
C911 C910 1.363 . S
C911 C914 1.363 . S
N912 C914 1.356 . S
N912 H924 0.984 . S
N912 H925 0.985 . S
N913 C915 1.356 . S
N913 H918 0.984 . S
N913 H919 0.985 . S
C914 C908 1.379 . S
C914 C911 1.363 . S
C914 N912 1.356 . S
C915 C909 1.363 . S
C915 C910 1.379 . S
C915 N913 1.356 . S
N916 C908 1.356 . S
N916 H922 0.984 . S
N916 H923 0.984 . S
N917 C910 1.356 . S
N917 H920 0.984 . S
N917 H921 0.985 . S
H918 N913 0.984 . S
H919 N913 0.985 . S
H920 N917 0.984 . S
H921 N917 0.985 . S
H922 N916 0.984 . S
H923 N916 0.984 . S
H924 N912 0.984 . S
H925 N912 0.985 . S
C926 C927 1.363 . S
C926 C932 1.379 . S
C926 N934 1.356 . S
C927 C926 1.363 . S
C927 C933 1.363 . S
C928 C929 1.363 . S
C928 C933 1.379 . S
C928 N935 1.356 . S
C929 C928 1.363 . S
C929 C932 1.363 . S
N930 C932 1.356 . S
N930 H942 0.984 . S
N930 H943 0.985 . S
N931 C933 1.356 . S
N931 H936 0.984 . S
N931 H937 0.985 . S
C932 C926 1.379 . S
C932 C929 1.363 . S
C932 N930 1.356 . S
C933 C927 1.363 . S
C933 C928 1.379 . S
C933 N931 1.356 . S
N934 C926 1.356 . S
N934 H940 0.984 . S
N934 H941 0.984 . S
N935 C928 1.356 . S
N935 H938 0.984 . S
N935 H939 0.985 . S
H936 N931 0.984 . S
H937 N931 0.985 . S
H938 N935 0.984 . S
H939 N935 0.985 . S
H940 N934 0.984 . S
H941 N934 0.984 . S
H942 N930 0.984 . S
H943 N930 0.985 . S
C944 C945 1.363 . S
C944 C950 1.379 1_556 S
C944 N952 1.356 . S
C945 C944 1.363 . S
C945 C951 1.363 1_655 S
C946 C947 1.363 . S
C946 C951 1.379 1_554 S
C946 N953 1.356 . S
C947 C946 1.363 . S
C947 C950 1.363 1_455 S
N948 C950 1.356 . S
N948 H960 0.984 . S
N948 H961 0.985 1_655 S
N949 C951 1.356 . S
N949 H954 0.984 1_455 S
N949 H955 0.985 . S
C950 C944 1.379 1_554 S
C950 C947 1.363 1_655 S
C950 N948 1.356 . S
C951 C945 1.363 1_455 S
C951 C946 1.379 1_556 S
C951 N949 1.356 . S
N952 C944 1.356 . S
N952 H958 0.984 . S
N952 H959 0.984 . S
N953 C946 1.356 . S
N953 H956 0.984 . S
N953 H957 0.985 . S
H954 N949 0.984 1_655 S
H955 N949 0.985 . S
H956 N953 0.984 . S
H957 N953 0.985 . S
H958 N952 0.984 . S
H959 N952 0.984 . S
H960 N948 0.984 . S
H961 N948 0.985 1_455 S
C962 C963 1.363 1_545 S
C962 C968 1.379 1_556 S
C962 N970 1.356 . S
C963 C962 1.363 1_565 S
C963 C969 1.363 1_455 S
C964 C965 1.363 1_565 S
C964 C969 1.379 1_554 S
C964 N971 1.356 . S
C965 C964 1.363 1_545 S
C965 C968 1.363 1_655 S
N966 C968 1.356 . S
N966 H978 0.984 . S
N966 H979 0.985 1_455 S
N967 C969 1.356 . S
N967 H972 0.984 1_655 S
N967 H973 0.985 . S
C968 C962 1.379 1_554 S
C968 C965 1.363 1_455 S
C968 N966 1.356 . S
C969 C963 1.363 1_655 S
C969 C964 1.379 1_556 S
C969 N967 1.356 . S
N970 C962 1.356 . S
N970 H976 0.984 . S
N970 H977 0.984 1_545 S
N971 C964 1.356 . S
N971 H974 0.984 1_565 S
N971 H975 0.985 . S
H972 N967 0.984 1_455 S
H973 N967 0.985 . S
H974 N971 0.984 1_545 S
H975 N971 0.985 . S
H976 N970 0.984 . S
H977 N970 0.984 1_565 S
H978 N966 0.984 . S
H979 N966 0.985 1_655 S
C980 C981 1.363 . S
C980 C986 1.364 1_556 S
C980 N988 1.356 . S
C981 C980 1.363 . S
C981 C987 1.378 1_545 S
C982 C983 1.363 . S
C982 C987 1.364 1_554 S
C982 N989 1.356 . S
C983 C982 1.363 . S
C983 C986 1.378 1_565 S
N984 C986 1.362 . S
N984 H996 0.984 1_554 S
N984 H997 0.985 1_545 S
N985 C987 1.362 . S
N985 H990 0.984 1_565 S
N985 H991 0.985 1_556 S
C986 C980 1.364 1_554 S
C986 C983 1.378 1_545 S
C986 N984 1.362 . S
C987 C981 1.378 1_565 S
C987 C982 1.364 1_556 S
C987 N985 1.362 . S
N988 C980 1.356 . S
N988 H994 0.984 . S
N988 H995 0.984 . S
N989 C982 1.356 . S
N989 H992 0.984 . S
N989 H993 0.985 . S
H990 N985 0.984 1_545 S
H991 N985 0.985 1_554 S
H992 N989 0.984 . S
H993 N989 0.985 . S
H994 N988 0.984 . S
H995 N988 0.984 . S
H996 N984 0.984 1_556 S
H997 N984 0.985 1_565 S
C998 C999 1.363 . S
C998 C1004 1.379 . S
C998 N1006 1.356 . S
C999 C998 1.363 . S
C999 C1005 1.363 1_554 S
C1000 C1001 1.363 . S
C1000 C1005 1.379 . S
C1000 N1007 1.356 . S
C1001 C1000 1.363 . S
C1001 C1004 1.363 1_556 S
N1002 C1004 1.356 . S
N1002 H1014 0.984 . S
N1002 H1015 0.985 1_554 S
N1003 C1005 1.356 . S
N1003 H1008 0.984 1_556 S
N1003 H1009 0.985 . S
C1004 C998 1.379 . S
C1004 C1001 1.363 1_554 S
C1004 N1002 1.356 . S
C1005 C999 1.363 1_556 S
C1005 C1000 1.379 . S
C1005 N1003 1.356 . S
N1006 C998 1.356 . S
N1006 H1012 0.984 . S
N1006 H1013 0.984 . S
N1007 C1000 1.356 . S
N1007 H1010 0.984 . S
N1007 H1011 0.985 . S
H1008 N1003 0.984 1_554 S
H1009 N1003 0.985 . S
H1010 N1007 0.984 . S
H1011 N1007 0.985 . S
H1012 N1006 0.984 . S
H1013 N1006 0.984 . S
H1014 N1002 0.984 . S
H1015 N1002 0.985 1_556 S
C1016 C1017 1.363 . S
C1016 C1022 1.379 . S
C1016 N1024 1.356 . S
C1017 C1016 1.363 . S
C1017 C1023 1.363 1_645 S
C1018 C1019 1.363 . S
C1018 C1023 1.379 . S
C1018 N1025 1.356 . S
C1019 C1018 1.363 . S
C1019 C1022 1.363 1_465 S
N1020 C1022 1.356 . S
N1020 H1032 0.984 . S
N1020 H1033 0.985 1_645 S
N1021 C1023 1.356 . S
N1021 H1026 0.984 1_465 S
N1021 H1027 0.985 . S
C1022 C1016 1.379 . S
C1022 C1019 1.363 1_645 S
C1022 N1020 1.356 . S
C1023 C1017 1.363 1_465 S
C1023 C1018 1.379 . S
C1023 N1021 1.356 . S
N1024 C1016 1.356 . S
N1024 H1030 0.984 . S
N1024 H1031 0.984 . S
N1025 C1018 1.356 . S
N1025 H1028 0.984 . S
N1025 H1029 0.985 . S
H1026 N1021 0.984 1_645 S
H1027 N1021 0.985 . S
H1028 N1025 0.984 . S
H1029 N1025 0.985 . S
H1030 N1024 0.984 . S
H1031 N1024 0.984 . S
H1032 N1020 0.984 . S
H1033 N1020 0.985 1_465 S
C1034 C1035 1.363 . S
C1034 C1040 1.379 . S
C1034 N1042 1.356 . S
C1035 C1034 1.363 . S
C1035 C1041 1.363 1_565 S
C1036 C1037 1.363 . S
C1036 C1041 1.379 . S
C1036 N1043 1.356 . S
C1037 C1036 1.363 . S
C1037 C1040 1.363 1_545 S
N1038 C1040 1.356 . S
N1038 H1050 0.984 . S
N1038 H1051 0.985 1_565 S
N1039 C1041 1.356 . S
N1039 H1044 0.984 1_545 S
N1039 H1045 0.985 . S
C1040 C1034 1.379 . S
C1040 C1037 1.363 1_565 S
C1040 N1038 1.356 . S
C1041 C1035 1.363 1_545 S
C1041 C1036 1.379 . S
C1041 N1039 1.356 . S
N1042 C1034 1.356 . S
N1042 H1048 0.984 . S
N1042 H1049 0.984 . S
N1043 C1036 1.356 . S
N1043 H1046 0.984 . S
N1043 H1047 0.985 . S
H1044 N1039 0.984 1_565 S
H1045 N1039 0.985 . S
H1046 N1043 0.984 . S
H1047 N1043 0.985 . S
H1048 N1042 0.984 . S
H1049 N1042 0.984 . S
H1050 N1038 0.984 . S
H1051 N1038 0.985 1_545 S
C1052 C1053 1.363 . S
C1052 C1058 1.379 . S
C1052 N1060 1.356 . S
C1053 C1052 1.363 . S
C1053 C1059 1.363 . S
C1054 C1055 1.363 . S
C1054 C1059 1.379 . S
C1054 N1061 1.356 . S
C1055 C1054 1.363 . S
C1055 C1058 1.363 . S
N1056 C1058 1.356 . S
N1056 H1068 0.984 . S
N1056 H1069 0.985 . S
N1057 C1059 1.356 . S
N1057 H1062 0.984 . S
N1057 H1063 0.985 . S
C1058 C1052 1.379 . S
C1058 C1055 1.363 . S
C1058 N1056 1.356 . S
C1059 C1053 1.363 . S
C1059 C1054 1.379 . S
C1059 N1057 1.356 . S
N1060 C1052 1.356 . S
N1060 H1066 0.984 . S
N1060 H1067 0.984 . S
N1061 C1054 1.356 . S
N1061 H1064 0.984 . S
N1061 H1065 0.985 . S
H1062 N1057 0.984 . S
H1063 N1057 0.985 . S
H1064 N1061 0.984 . S
H1065 N1061 0.985 . S
H1066 N1060 0.984 . S
H1067 N1060 0.984 . S
H1068 N1056 0.984 . S
H1069 N1056 0.985 . S
C1070 C1071 1.363 1_655 S
C1070 C1076 1.379 . S
C1070 N1078 1.356 . S
C1071 C1070 1.363 1_455 S
C1071 C1077 1.363 . S
C1072 C1073 1.363 1_455 S
C1072 C1077 1.379 . S
C1072 N1079 1.356 . S
C1073 C1072 1.363 1_655 S
C1073 C1076 1.363 . S
N1074 C1076 1.356 . S
N1074 H1086 0.984 . S
N1074 H1087 0.985 . S
N1075 C1077 1.356 . S
N1075 H1080 0.984 . S
N1075 H1081 0.985 . S
C1076 C1070 1.379 . S
C1076 C1073 1.363 . S
C1076 N1074 1.356 . S
C1077 C1071 1.363 . S
C1077 C1072 1.379 . S
C1077 N1075 1.356 . S
N1078 C1070 1.356 . S
N1078 H1084 0.984 . S
N1078 H1085 0.980 1_655 S
N1079 C1072 1.356 . S
N1079 H1082 0.980 1_455 S
N1079 H1083 0.985 . S
H1080 N1075 0.984 . S
H1081 N1075 0.985 . S
H1082 N1079 0.980 1_655 S
H1083 N1079 0.985 . S
H1084 N1078 0.984 . S
H1085 N1078 0.980 1_455 S
H1086 N1074 0.984 . S
H1087 N1074 0.985 . S
C1088 C1089 1.363 . S
C1088 C1094 1.379 . S
C1088 N1096 1.356 . S
C1089 C1088 1.363 . S
C1089 C1095 1.363 1_455 S
C1090 C1091 1.363 . S
C1090 C1095 1.379 1_455 S
C1090 N1097 1.356 . S
C1091 C1090 1.363 . S
C1091 C1094 1.363 . S
N1092 C1094 1.356 . S
N1092 H1104 0.984 . S
N1092 H1105 0.985 . S
N1093 C1095 1.356 . S
N1093 H1098 0.984 . S
N1093 H1099 0.985 . S
C1094 C1088 1.379 . S
C1094 C1091 1.363 . S
C1094 N1092 1.356 . S
C1095 C1089 1.363 1_655 S
C1095 C1090 1.379 1_655 S
C1095 N1093 1.356 . S
N1096 C1088 1.356 . S
N1096 H1102 0.984 . S
N1096 H1103 0.984 . S
N1097 C1090 1.356 . S
N1097 H1100 0.984 . S
N1097 H1101 0.985 1_455 S
H1098 N1093 0.984 . S
H1099 N1093 0.985 . S
H1100 N1097 0.984 . S
H1101 N1097 0.985 1_655 S
H1102 N1096 0.984 . S
H1103 N1096 0.984 . S
H1104 N1092 0.984 . S
H1105 N1092 0.985 . S
C1106 C1107 1.363 . S
C1106 C1112 1.379 1_455 S
C1106 N1114 1.356 . S
C1107 C1106 1.363 . S
C1107 C1113 1.363 1_545 S
C1108 C1109 1.363 1_565 S
C1108 C1113 1.379 . S
C1108 N1115 1.356 . S
C1109 C1108 1.363 1_545 S
C1109 C1112 1.363 1_455 S
N1110 C1112 1.356 . S
N1110 H1122 0.984 . S
N1110 H1123 0.985 . S
N1111 C1113 1.356 . S
N1111 H1116 0.984 . S
N1111 H1117 0.985 . S
C1112 C1106 1.379 1_655 S
C1112 C1109 1.363 1_655 S
C1112 N1110 1.356 . S
C1113 C1107 1.363 1_565 S
C1113 C1108 1.379 . S
C1113 N1111 1.356 . S
N1114 C1106 1.356 . S
N1114 H1120 0.984 1_455 S
N1114 H1121 0.984 . S
N1115 C1108 1.356 . S
N1115 H1118 0.984 1_565 S
N1115 H1119 0.985 . S
H1116 N1111 0.984 . S
H1117 N1111 0.985 . S
H1118 N1115 0.984 1_545 S
H1119 N1115 0.985 . S
H1120 N1114 0.984 1_655 S
H1121 N1114 0.984 . S
H1122 N1110 0.984 . S
H1123 N1110 0.985 . S
C1124 C1125 1.363 . S
C1124 C1130 1.379 . S
C1124 N1132 1.356 . S
C1125 C1124 1.363 . S
C1125 C1131 1.363 . S
C1126 C1127 1.363 1_565 S
C1126 C1131 1.379 1_565 S
C1126 N1133 1.356 . S
C1127 C1126 1.363 1_545 S
C1127 C1130 1.363 . S
N1128 C1130 1.356 . S
N1128 H1140 0.984 . S
N1128 H1141 0.985 . S
N1129 C1131 1.356 1_565 S
N1129 H1134 0.984 1_565 S
N1129 H1135 0.985 . S
C1130 C1124 1.379 . S
C1130 C1127 1.363 . S
C1130 N1128 1.356 . S
C1131 C1125 1.363 . S
C1131 C1126 1.379 1_545 S
C1131 N1129 1.356 1_545 S
N1132 C1124 1.356 . S
N1132 H1138 0.984 . S
N1132 H1139 0.984 . S
N1133 C1126 1.356 . S
N1133 H1136 0.984 . S
N1133 H1137 0.985 . S
H1134 N1129 0.984 1_545 S
H1135 N1129 0.985 . S
H1136 N1133 0.984 . S
H1137 N1133 0.985 . S
H1138 N1132 0.984 . S
H1139 N1132 0.984 . S
H1140 N1128 0.984 . S
H1141 N1128 0.985 . S
C1142 C1143 1.363 . S
C1142 C1148 1.379 . S
C1142 N1150 1.356 . S
C1143 C1142 1.363 . S
C1143 C1149 1.363 . S
C1144 C1145 1.363 . S
C1144 C1149 1.379 . S
C1144 N1151 1.356 . S
C1145 C1144 1.363 . S
C1145 C1148 1.363 . S
N1146 C1148 1.356 . S
N1146 H1158 0.984 . S
N1146 H1159 0.985 . S
N1147 C1149 1.356 . S
N1147 H1152 0.984 . S
N1147 H1153 0.985 . S
C1148 C1142 1.379 . S
C1148 C1145 1.363 . S
C1148 N1146 1.356 . S
C1149 C1143 1.363 . S
C1149 C1144 1.379 . S
C1149 N1147 1.356 . S
N1150 C1142 1.356 . S
N1150 H1156 0.984 . S
N1150 H1157 0.984 . S
N1151 C1144 1.356 . S
N1151 H1154 0.984 . S
N1151 H1155 0.985 . S
H1152 N1147 0.984 . S
H1153 N1147 0.985 . S
H1154 N1151 0.984 . S
H1155 N1151 0.985 . S
H1156 N1150 0.984 . S
H1157 N1150 0.984 . S
H1158 N1146 0.984 . S
H1159 N1146 0.985 . S
C1160 C1161 1.363 . S
C1160 C1166 1.379 . S
C1160 N1168 1.356 . S
C1161 C1160 1.363 . S
C1161 C1167 1.363 1_655 S
C1162 C1163 1.380 . S
C1162 C1167 1.371 1_655 S
C1162 N1169 1.353 1_655 S
C1163 C1162 1.380 . S
C1163 C1166 1.363 . S
N1164 C1166 1.356 . S
N1164 H1176 0.984 . S
N1164 H1177 0.985 . S
N1165 C1167 1.356 . S
N1165 H1170 0.984 . S
N1165 H1171 0.985 . S
C1166 C1160 1.379 . S
C1166 C1163 1.363 . S
C1166 N1164 1.356 . S
C1167 C1161 1.363 1_455 S
C1167 C1162 1.371 1_455 S
C1167 N1165 1.356 . S
N1168 C1160 1.356 . S
N1168 H1174 0.984 . S
N1168 H1175 0.984 . S
N1169 C1162 1.353 1_455 S
N1169 H1172 0.984 1_455 S
N1169 H1173 0.985 . S
H1170 N1165 0.984 . S
H1171 N1165 0.985 . S
H1172 N1169 0.984 1_655 S
H1173 N1169 0.985 . S
H1174 N1168 0.984 . S
H1175 N1168 0.984 . S
H1176 N1164 0.984 . S
H1177 N1164 0.985 . S
C1178 C1179 1.363 . S
C1178 C1184 1.379 . S
C1178 N1186 1.356 . S
C1179 C1178 1.363 . S
C1179 C1185 1.363 1_565 S
C1180 C1181 1.363 1_445 S
C1180 C1185 1.379 1_455 S
C1180 N1187 1.356 . S
C1181 C1180 1.363 1_665 S
C1181 C1184 1.363 . S
N1182 C1184 1.356 . S
N1182 H1194 0.984 . S
N1182 H1195 0.985 . S
N1183 C1185 1.356 1_455 S
N1183 H1188 0.984 1_455 S
N1183 H1189 0.985 . S
C1184 C1178 1.379 . S
C1184 C1181 1.363 . S
C1184 N1182 1.356 . S
C1185 C1179 1.363 1_545 S
C1185 C1180 1.379 1_655 S
C1185 N1183 1.356 1_655 S
N1186 C1178 1.356 . S
N1186 H1192 0.984 . S
N1186 H1193 0.984 . S
N1187 C1180 1.356 . S
N1187 H1190 0.984 1_545 S
N1187 H1191 0.985 . S
H1188 N1183 0.984 1_655 S
H1189 N1183 0.985 . S
H1190 N1187 0.984 1_565 S
H1191 N1187 0.985 . S
H1192 N1186 0.984 . S
H1193 N1186 0.984 . S
H1194 N1182 0.984 . S
H1195 N1182 0.985 . S
C1196 C1197 1.363 . S
C1196 C1202 1.379 . S
C1196 N1204 1.356 . S
C1197 C1196 1.363 . S
C1197 C1203 1.363 . S
C1198 C1199 1.363 1_545 S
C1198 C1203 1.379 1_545 S
C1198 N1205 1.356 . S
C1199 C1198 1.363 1_565 S
C1199 C1202 1.363 . S
N1200 C1202 1.356 . S
N1200 H1212 0.984 . S
N1200 H1213 0.985 . S
N1201 C1203 1.356 1_545 S
N1201 H1206 0.984 1_545 S
N1201 H1207 0.985 . S
C1202 C1196 1.379 . S
C1202 C1199 1.363 . S
C1202 N1200 1.356 . S
C1203 C1197 1.363 . S
C1203 C1198 1.379 1_565 S
C1203 N1201 1.356 1_565 S
N1204 C1196 1.356 . S
N1204 H1210 0.984 . S
N1204 H1211 0.984 . S
N1205 C1198 1.356 . S
N1205 H1208 0.984 . S
N1205 H1209 0.985 . S
H1206 N1201 0.984 1_565 S
H1207 N1201 0.985 . S
H1208 N1205 0.984 . S
H1209 N1205 0.985 . S
H1210 N1204 0.984 . S
H1211 N1204 0.984 . S
H1212 N1200 0.984 . S
H1213 N1200 0.985 . S
C1214 C1215 1.363 . S
C1214 C1220 1.379 . S
C1214 N1222 1.356 . S
C1215 C1214 1.363 . S
C1215 C1221 1.363 . S
C1216 C1217 1.363 . S
C1216 C1221 1.379 . S
C1216 N1223 1.356 . S
C1217 C1216 1.363 . S
C1217 C1220 1.363 . S
N1218 C1220 1.356 . S
N1218 H1230 0.984 . S
N1218 H1231 0.985 . S
N1219 C1221 1.356 . S
N1219 H1224 0.984 . S
N1219 H1225 0.985 . S
C1220 C1214 1.379 . S
C1220 C1217 1.363 . S
C1220 N1218 1.356 . S
C1221 C1215 1.363 . S
C1221 C1216 1.379 . S
C1221 N1219 1.356 . S
N1222 C1214 1.356 . S
N1222 H1228 0.984 . S
N1222 H1229 0.984 . S
N1223 C1216 1.356 . S
N1223 H1226 0.984 . S
N1223 H1227 0.985 . S
H1224 N1219 0.984 . S
H1225 N1219 0.985 . S
H1226 N1223 0.984 . S
H1227 N1223 0.985 . S
H1228 N1222 0.984 . S
H1229 N1222 0.984 . S
H1230 N1218 0.984 . S
H1231 N1218 0.985 . S
C369 C89 1.017 . S
C371 C18 1.047 . S
C387 C20 1.017 1_655 S
C389 C41 1.047 . S
C405 C64 1.047 . S
C407 C43 1.017 1_565 S
C423 C66 1.017 . S
C425 C87 1.047 . S
C441 C110 1.047 . S
C443 C135 1.017 1_565 S
C459 C133 1.047 . S
C461 C158 1.017 . S
C477 C156 1.047 . S
C479 C181 1.017 . S
C495 C112 1.017 1_655 S
C497 C179 1.047 . S
C513 C202 1.047 . S
C515 C273 1.017 . S
C531 C204 1.017 1_455 S
C533 C225 1.047 . S
C549 C227 1.017 1_545 S
C551 C248 1.047 . S
C567 C250 1.017 . S
C569 C271 1.047 . S
C585 C294 1.047 . S
C587 C319 1.017 1_545 S
C603 C342 1.017 . S
C605 C317 1.047 . S
C621 C365 1.017 . S
C623 C340 1.047 . S
C639 C363 1.047 . S
C641 C296 1.017 1_455 S
C657 C17 0.856 . S
C659 C109 0.856 . S
C675 C132 0.856 . S
C677 C40 0.856 . S
C693 C63 0.856 . S
C695 C155 0.856 . S
C711 C86 0.856 . S
C713 C178 0.856 . S
C729 C293 0.856 . S
C731 C201 0.856 . S
C747 C316 0.856 . S
C749 C224 0.856 . S
C765 C247 0.856 . S
C767 C339 0.856 . S
C783 C362 0.856 . S
C785 C270 0.856 . S
C801 C21 1.901 . S
C803 C67 1.901 . S
C819 C44 1.901 . S
C821 C90 1.901 . S
C837 C159 1.901 . S
C839 C113 1.901 . S
C855 C182 1.901 . S
C857 C136 1.901 . S
C873 C251 1.901 . S
C875 C205 1.901 . S
C891 C274 1.901 . S
C893 C228 1.901 . S
C909 C297 1.901 . S
C911 C343 1.901 . S
C927 C320 1.901 . S
C929 C366 1.901 . S
C945 C200 1.615 . S
C947 C16 1.615 . S
C963 C223 1.614 . S
C965 C39 1.614 . S
C981 C246 1.614 . S
C983 C62 1.614 . S
C999 C85 1.614 . S
C1001 C269 1.614 . S
C1017 C292 1.614 . S
C1019 C108 1.614 . S
C1035 C315 1.615 . S
C1037 C131 1.615 . S
C1053 C338 1.614 . S
C1055 C154 1.614 . S
C1071 C361 1.614 . S
C1073 C177 1.614 . S
C1089 C180 1.855 1_455 S
C1091 C19 1.855 . S
C1107 C111 1.855 1_545 S
C1109 C42 1.855 1_455 S
C1125 C134 1.855 . S
C1127 C65 1.855 1_545 S
C1143 C157 1.855 . S
C1145 C88 1.855 . S
C1161 C364 1.855 1_655 S
C1163 C203 1.855 . S
C1179 C295 1.855 1_565 S
C1181 C226 1.855 1_655 S
C1197 C318 1.855 . S
C1199 C249 1.855 1_565 S
C1215 C272 1.855 . S
C1217 C341 1.855 . S
