# Generated by pormake.
# Topology uma, (4)-cn, num edge types: 1
# Building blocks:
#     Node 0, Type 0, BuildingBlock: CEKHIL_clean_sbu_0, # of connection points: 4
#     Node 1, Type 0, BuildingBlock: CEKHIL_clean_sbu_0, # of connection points: 4
#     Node 2, Type 0, BuildingBlock: CEKHIL_clean_sbu_0, # of connection points: 4
#     Node 3, Type 0, BuildingBlock: CEKHIL_clean_sbu_0, # of connection points: 4
#     Node 4, Type 0, BuildingBlock: CEKHIL_clean_sbu_0, # of connection points: 4
#     Node 5, Type 0, BuildingBlock: CEKHIL_clean_sbu_0, # of connection points: 4
#     Node 6, Type 0, BuildingBlock: CEKHIL_clean_sbu_0, # of connection points: 4
#     Node 7, Type 0, BuildingBlock: CEKHIL_clean_sbu_0, # of connection points: 4
#     Node 8, Type 0, BuildingBlock: CEKHIL_clean_sbu_0, # of connection points: 4
#     Node 9, Type 0, BuildingBlock: CEKHIL_clean_sbu_0, # of connection points: 4
#     Node 10, Type 0, BuildingBlock: CEKHIL_clean_sbu_0, # of connection points: 4
#     Node 11, Type 0, BuildingBlock: CEKHIL_clean_sbu_0, # of connection points: 4
#     Node 12, Type 0, BuildingBlock: CEKHIL_clean_sbu_0, # of connection points: 4
#     Node 13, Type 0, BuildingBlock: CEKHIL_clean_sbu_0, # of connection points: 4
#     Node 14, Type 0, BuildingBlock: CEKHIL_clean_sbu_0, # of connection points: 4
#     Node 15, Type 0, BuildingBlock: CEKHIL_clean_sbu_0, # of connection points: 4
#     Node 16, Type 0, BuildingBlock: CEKHIL_clean_sbu_0, # of connection points: 4
#     Node 17, Type 0, BuildingBlock: CEKHIL_clean_sbu_0, # of connection points: 4
#     Node 18, Type 0, BuildingBlock: CEKHIL_clean_sbu_0, # of connection points: 4
#     Node 19, Type 0, BuildingBlock: CEKHIL_clean_sbu_0, # of connection points: 4
#     Node 20, Type 0, BuildingBlock: CEKHIL_clean_sbu_0, # of connection points: 4
#     Node 21, Type 0, BuildingBlock: CEKHIL_clean_sbu_0, # of connection points: 4
#     Node 22, Type 0, BuildingBlock: CEKHIL_clean_sbu_0, # of connection points: 4
#     Node 23, Type 0, BuildingBlock: CEKHIL_clean_sbu_0, # of connection points: 4
#     Node 24, Type 0, BuildingBlock: CEKHIL_clean_sbu_0, # of connection points: 4
#     Node 25, Type 0, BuildingBlock: CEKHIL_clean_sbu_0, # of connection points: 4
#     Node 26, Type 0, BuildingBlock: CEKHIL_clean_sbu_0, # of connection points: 4
#     Node 27, Type 0, BuildingBlock: CEKHIL_clean_sbu_0, # of connection points: 4
#     Node 28, Type 0, BuildingBlock: CEKHIL_clean_sbu_0, # of connection points: 4
#     Node 29, Type 0, BuildingBlock: CEKHIL_clean_sbu_0, # of connection points: 4
#     Node 30, Type 0, BuildingBlock: CEKHIL_clean_sbu_0, # of connection points: 4
#     Node 31, Type 0, BuildingBlock: CEKHIL_clean_sbu_0, # of connection points: 4
#     Node 32, Type 0, BuildingBlock: CEKHIL_clean_sbu_0, # of connection points: 4
#     Node 33, Type 0, BuildingBlock: CEKHIL_clean_sbu_0, # of connection points: 4
#     Node 34, Type 0, BuildingBlock: CEKHIL_clean_sbu_0, # of connection points: 4
#     Node 35, Type 0, BuildingBlock: CEKHIL_clean_sbu_0, # of connection points: 4
#     Edge 36, Type (0, 0), BuildingBlock: ZUJKAS_clean_linker_0, # of connection points: 2
#     Edge 37, Type (0, 0), BuildingBlock: ZUJKAS_clean_linker_0, # of connection points: 2
#     Edge 38, Type (0, 0), BuildingBlock: ZUJKAS_clean_linker_0, # of connection points: 2
#     Edge 39, Type (0, 0), BuildingBlock: ZUJKAS_clean_linker_0, # of connection points: 2
#     Edge 40, Type (0, 0), BuildingBlock: ZUJKAS_clean_linker_0, # of connection points: 2
#     Edge 41, Type (0, 0), BuildingBlock: ZUJKAS_clean_linker_0, # of connection points: 2
#     Edge 42, Type (0, 0), BuildingBlock: ZUJKAS_clean_linker_0, # of connection points: 2
#     Edge 43, Type (0, 0), BuildingBlock: ZUJKAS_clean_linker_0, # of connection points: 2
#     Edge 44, Type (0, 0), BuildingBlock: ZUJKAS_clean_linker_0, # of connection points: 2
#     Edge 45, Type (0, 0), BuildingBlock: ZUJKAS_clean_linker_0, # of connection points: 2
#     Edge 46, Type (0, 0), BuildingBlock: ZUJKAS_clean_linker_0, # of connection points: 2
#     Edge 47, Type (0, 0), BuildingBlock: ZUJKAS_clean_linker_0, # of connection points: 2
#     Edge 48, Type (0, 0), BuildingBlock: ZUJKAS_clean_linker_0, # of connection points: 2
#     Edge 49, Type (0, 0), BuildingBlock: ZUJKAS_clean_linker_0, # of connection points: 2
#     Edge 50, Type (0, 0), BuildingBlock: ZUJKAS_clean_linker_0, # of connection points: 2
#     Edge 51, Type (0, 0), BuildingBlock: ZUJKAS_clean_linker_0, # of connection points: 2
#     Edge 52, Type (0, 0), BuildingBlock: ZUJKAS_clean_linker_0, # of connection points: 2
#     Edge 53, Type (0, 0), BuildingBlock: ZUJKAS_clean_linker_0, # of connection points: 2
#     Edge 54, Type (0, 0), BuildingBlock: ZUJKAS_clean_linker_0, # of connection points: 2
#     Edge 55, Type (0, 0), BuildingBlock: ZUJKAS_clean_linker_0, # of connection points: 2
#     Edge 56, Type (0, 0), BuildingBlock: ZUJKAS_clean_linker_0, # of connection points: 2
#     Edge 57, Type (0, 0), BuildingBlock: ZUJKAS_clean_linker_0, # of connection points: 2
#     Edge 58, Type (0, 0), BuildingBlock: ZUJKAS_clean_linker_0, # of connection points: 2
#     Edge 59, Type (0, 0), BuildingBlock: ZUJKAS_clean_linker_0, # of connection points: 2
#     Edge 60, Type (0, 0), BuildingBlock: ZUJKAS_clean_linker_0, # of connection points: 2
#     Edge 61, Type (0, 0), BuildingBlock: ZUJKAS_clean_linker_0, # of connection points: 2
#     Edge 62, Type (0, 0), BuildingBlock: ZUJKAS_clean_linker_0, # of connection points: 2
#     Edge 63, Type (0, 0), BuildingBlock: ZUJKAS_clean_linker_0, # of connection points: 2
#     Edge 64, Type (0, 0), BuildingBlock: ZUJKAS_clean_linker_0, # of connection points: 2
#     Edge 65, Type (0, 0), BuildingBlock: ZUJKAS_clean_linker_0, # of connection points: 2
#     Edge 66, Type (0, 0), BuildingBlock: ZUJKAS_clean_linker_0, # of connection points: 2
#     Edge 67, Type (0, 0), BuildingBlock: ZUJKAS_clean_linker_0, # of connection points: 2
#     Edge 68, Type (0, 0), BuildingBlock: ZUJKAS_clean_linker_0, # of connection points: 2
#     Edge 69, Type (0, 0), BuildingBlock: ZUJKAS_clean_linker_0, # of connection points: 2
#     Edge 70, Type (0, 0), BuildingBlock: ZUJKAS_clean_linker_0, # of connection points: 2
#     Edge 71, Type (0, 0), BuildingBlock: ZUJKAS_clean_linker_0, # of connection points: 2
#     Edge 72, Type (0, 0), BuildingBlock: ZUJKAS_clean_linker_0, # of connection points: 2
#     Edge 73, Type (0, 0), BuildingBlock: ZUJKAS_clean_linker_0, # of connection points: 2
#     Edge 74, Type (0, 0), BuildingBlock: ZUJKAS_clean_linker_0, # of connection points: 2
#     Edge 75, Type (0, 0), BuildingBlock: ZUJKAS_clean_linker_0, # of connection points: 2
#     Edge 76, Type (0, 0), BuildingBlock: ZUJKAS_clean_linker_0, # of connection points: 2
#     Edge 77, Type (0, 0), BuildingBlock: ZUJKAS_clean_linker_0, # of connection points: 2
#     Edge 78, Type (0, 0), BuildingBlock: ZUJKAS_clean_linker_0, # of connection points: 2
#     Edge 79, Type (0, 0), BuildingBlock: ZUJKAS_clean_linker_0, # of connection points: 2
#     Edge 80, Type (0, 0), BuildingBlock: ZUJKAS_clean_linker_0, # of connection points: 2
#     Edge 81, Type (0, 0), BuildingBlock: ZUJKAS_clean_linker_0, # of connection points: 2
#     Edge 82, Type (0, 0), BuildingBlock: ZUJKAS_clean_linker_0, # of connection points: 2
#     Edge 83, Type (0, 0), BuildingBlock: ZUJKAS_clean_linker_0, # of connection points: 2
#     Edge 84, Type (0, 0), BuildingBlock: ZUJKAS_clean_linker_0, # of connection points: 2
#     Edge 85, Type (0, 0), BuildingBlock: ZUJKAS_clean_linker_0, # of connection points: 2
#     Edge 86, Type (0, 0), BuildingBlock: ZUJKAS_clean_linker_0, # of connection points: 2
#     Edge 87, Type (0, 0), BuildingBlock: ZUJKAS_clean_linker_0, # of connection points: 2
#     Edge 88, Type (0, 0), BuildingBlock: ZUJKAS_clean_linker_0, # of connection points: 2
#     Edge 89, Type (0, 0), BuildingBlock: ZUJKAS_clean_linker_0, # of connection points: 2
#     Edge 90, Type (0, 0), BuildingBlock: ZUJKAS_clean_linker_0, # of connection points: 2
#     Edge 91, Type (0, 0), BuildingBlock: ZUJKAS_clean_linker_0, # of connection points: 2
#     Edge 92, Type (0, 0), BuildingBlock: ZUJKAS_clean_linker_0, # of connection points: 2
#     Edge 93, Type (0, 0), BuildingBlock: ZUJKAS_clean_linker_0, # of connection points: 2
#     Edge 94, Type (0, 0), BuildingBlock: ZUJKAS_clean_linker_0, # of connection points: 2
#     Edge 95, Type (0, 0), BuildingBlock: ZUJKAS_clean_linker_0, # of connection points: 2
#     Edge 96, Type (0, 0), BuildingBlock: ZUJKAS_clean_linker_0, # of connection points: 2
#     Edge 97, Type (0, 0), BuildingBlock: ZUJKAS_clean_linker_0, # of connection points: 2
#     Edge 98, Type (0, 0), BuildingBlock: ZUJKAS_clean_linker_0, # of connection points: 2
#     Edge 99, Type (0, 0), BuildingBlock: ZUJKAS_clean_linker_0, # of connection points: 2
#     Edge 100, Type (0, 0), BuildingBlock: ZUJKAS_clean_linker_0, # of connection points: 2
#     Edge 101, Type (0, 0), BuildingBlock: ZUJKAS_clean_linker_0, # of connection points: 2
#     Edge 102, Type (0, 0), BuildingBlock: ZUJKAS_clean_linker_0, # of connection points: 2
#     Edge 103, Type (0, 0), BuildingBlock: ZUJKAS_clean_linker_0, # of connection points: 2
#     Edge 104, Type (0, 0), BuildingBlock: ZUJKAS_clean_linker_0, # of connection points: 2
#     Edge 105, Type (0, 0), BuildingBlock: ZUJKAS_clean_linker_0, # of connection points: 2
#     Edge 106, Type (0, 0), BuildingBlock: ZUJKAS_clean_linker_0, # of connection points: 2
#     Edge 107, Type (0, 0), BuildingBlock: ZUJKAS_clean_linker_0, # of connection points: 2
# Relax obj value: 0.191
# Max RMSD: 0.425
# Mean RMSD: 0.421
data_MOF--net-uma--node1-CEKHIL_clean_sbu_0--edge1-ZUJKAS_clean_linker_0
_symmetry_space_group_name_H-M    P1
_symmetry_Int_Tables_number       1
_symmetry_cell_setting            triclinic
loop_
_symmetry_equiv_pos_as_xyz
'x, y, z'
_cell_length_a     98.659749
_cell_length_b     98.635447
_cell_length_c     47.825084
_cell_angle_alpha  89.990525
_cell_angle_beta   90.031129
_cell_angle_gamma 119.95049
loop_
_atom_site_label
_atom_site_type_symbol
_atom_site_fract_x
_atom_site_fract_y
_atom_site_fract_z
_atom_type_partial_charge
Co0 Co 0.09973 0.38864 0.00901 0.0
O1 O 0.11935 0.40289 0.99179 0.0
O2 O 0.11004 0.37743 0.99784 0.0
C3 C 0.10401 0.40454 0.04681 0.0
O4 O 0.08006 0.37173 0.02541 0.0
Co5 Co 0.08147 0.40264 0.99533 0.0
O6 O 0.06547 0.38276 0.01505 0.0
C7 C 0.08305 0.38605 0.9514 0.0
C8 C 0.12116 0.39082 0.98874 0.0
C9 C 0.06694 0.37149 0.02516 0.0
O10 O 0.08907 0.38206 0.97115 0.0
O11 O 0.08037 0.39724 0.9549 0.0
O12 O 0.10967 0.39534 0.04487 0.0
O13 O 0.09501 0.4038 0.02629 0.0
Co14 Co 0.60515 0.70684 0.00253 0.0
O15 O 0.59298 0.71591 0.98973 0.0
O16 O 0.61863 0.72885 0.99707 0.0
C17 C 0.58939 0.69273 0.03763 0.0
O18 O 0.62176 0.70214 0.01624 0.0
Co19 Co 0.59325 0.67156 0.99939 0.0
O20 O 0.61172 0.67642 0.02281 0.0
C21 C 0.60833 0.69122 0.94979 0.0
C22 C 0.60609 0.72915 0.98987 0.0
C23 C 0.623 0.69045 0.02456 0.0
O24 O 0.60931 0.70297 0.96311 0.0
O25 O 0.60194 0.67742 0.96022 0.0
O26 O 0.59925 0.70753 0.04069 0.0
O27 O 0.58806 0.68708 0.01262 0.0
Co28 Co 0.28498 0.89211 1.00179 0.0
O29 O 0.27931 0.87255 0.9837 0.0
O30 O 0.26349 0.88217 0.99076 0.0
C31 C 0.2973 0.88898 0.03854 0.0
O32 O 0.286 0.91113 0.02009 0.0
Co33 Co 0.31895 0.91829 0.00946 0.0
O34 O 0.30994 0.92626 0.03776 0.0
C35 C 0.30296 0.91606 0.95602 0.0
C36 C 0.26542 0.87088 0.98148 0.0
C37 C 0.2957 0.9227 0.03516 0.0
O38 O 0.29108 0.90355 0.96523 0.0
O39 O 0.3156 0.92375 0.97017 0.0
O40 O 0.28217 0.8823 0.03783 0.0
O41 O 0.30459 0.89611 0.01581 0.0
Co42 Co 0.3883 0.10162 0.99248 0.0
O43 O 0.40027 0.12289 0.00512 0.0
O44 O 0.37453 0.10975 0.9986 0.0
C45 C 0.40405 0.10378 0.95703 0.0
O46 O 0.37173 0.0801 0.97951 0.0
Co47 Co 0.40035 0.07854 0.99506 0.0
O48 O 0.38211 0.06487 0.97132 0.0
C49 C 0.38602 0.08333 0.04539 0.0
C50 C 0.38698 0.12268 0.00572 0.0
C51 C 0.37058 0.06726 0.97083 0.0
O52 O 0.38478 0.0939 0.03194 0.0
O53 O 0.39211 0.0757 0.03471 0.0
O54 O 0.39385 0.10832 0.95438 0.0
O55 O 0.40559 0.0993 0.9818 0.0
Co56 Co 0.89306 0.2874 0.0035 0.0
O57 O 0.87343 0.28123 0.02167 0.0
O58 O 0.88314 0.26564 0.01314 0.0
C59 C 0.89007 0.30043 0.9677 0.0
O60 O 0.91236 0.28912 0.98504 0.0
Co61 Co 0.91882 0.32198 0.99828 0.0
O62 O 0.9283 0.31383 0.97141 0.0
C63 C 0.91669 0.30474 0.05011 0.0
C64 C 0.87183 0.26735 0.02309 0.0
C65 C 0.92469 0.2995 0.97239 0.0
O66 O 0.90436 0.29287 0.04026 0.0
O67 O 0.92414 0.31777 0.03699 0.0
O68 O 0.88342 0.28528 0.96736 0.0
O69 O 0.89692 0.30719 0.99093 0.0
Co70 Co 0.70777 0.60602 0.0021 0.0
O71 O 0.71316 0.59161 0.01883 0.0
O72 O 0.72936 0.61706 0.01292 0.0
C73 C 0.69516 0.59124 0.96473 0.0
O74 O 0.70681 0.62443 0.98518 0.0
Co75 Co 0.67348 0.59802 0.99623 0.0
O76 O 0.68232 0.61637 0.97091 0.0
C77 C 0.6903 0.61173 0.04904 0.0
C78 C 0.72715 0.60358 0.02137 0.0
C79 C 0.6967 0.62685 0.97257 0.0
O80 O 0.70209 0.61108 0.03943 0.0
O81 O 0.67757 0.60702 0.03534 0.0
O82 O 0.7103 0.59949 0.96533 0.0
O83 O 0.68805 0.59075 0.98789 0.0
Co84 Co 0.89117 0.60554 0.99623 0.0
O85 O 0.87037 0.59031 0.00797 0.0
O86 O 0.88031 0.61609 0.00801 0.0
C87 C 0.89147 0.59382 0.95646 0.0
O88 O 0.91153 0.62485 0.98525 0.0
Co89 Co 0.91766 0.59818 0.9925 0.0
O90 O 0.92778 0.61716 0.96862 0.0
C91 C 0.91143 0.60833 0.04641 0.0
C92 C 0.86854 0.60224 0.01309 0.0
C93 C 0.9241 0.62768 0.97246 0.0
O94 O 0.89922 0.6074 0.03515 0.0
O95 O 0.9206 0.60489 0.03317 0.0
O96 O 0.88478 0.60226 0.95777 0.0
O97 O 0.89631 0.59113 0.98 0.0
Co98 Co 0.39198 0.29052 0.99329 0.0
O99 O 0.40277 0.28029 0.00734 0.0
O100 O 0.37765 0.26844 0.99543 0.0
C101 C 0.40992 0.30564 0.96176 0.0
O102 O 0.37684 0.29684 0.97758 0.0
Co103 Co 0.40498 0.32563 0.00257 0.0
O104 O 0.38811 0.32297 0.97673 0.0
C105 C 0.38794 0.30396 0.04841 0.0
C106 C 0.38946 0.26739 0.00481 0.0
C107 C 0.3767 0.30942 0.97115 0.0
O108 O 0.38599 0.29284 0.03211 0.0
O109 O 0.39586 0.31839 0.04129 0.0
O110 O 0.39995 0.2911 0.9564 0.0
O111 O 0.40999 0.31032 0.9872 0.0
Co112 Co 0.71088 0.10578 0.00234 0.0
O113 O 0.71661 0.12525 0.02085 0.0
O114 O 0.73223 0.11536 0.01436 0.0
C115 C 0.69912 0.10928 0.96504 0.0
O116 O 0.70971 0.08668 0.98411 0.0
Co117 Co 0.6767 0.08009 0.99295 0.0
O118 O 0.68591 0.07176 0.96576 0.0
C119 C 0.69196 0.08139 0.04687 0.0
C120 C 0.73035 0.12664 0.0239 0.0
C121 C 0.70002 0.07501 0.96921 0.0
O122 O 0.70407 0.09402 0.0386 0.0
O123 O 0.67955 0.074 0.03201 0.0
O124 O 0.71424 0.11584 0.96631 0.0
O125 O 0.69159 0.10218 0.98757 0.0
Co126 Co 0.60489 0.89437 0.01487 0.0
O127 O 0.59257 0.87307 0.00266 0.0
O128 O 0.61813 0.88541 0.01099 0.0
C129 C 0.58863 0.8931 0.04854 0.0
O130 O 0.62163 0.91584 0.02789 0.0
Co131 Co 0.59375 0.91808 0.00846 0.0
O132 O 0.61143 0.93145 0.03361 0.0
C133 C 0.60873 0.91213 0.96045 0.0
C134 C 0.60554 0.87268 0.00355 0.0
C135 C 0.62273 0.92877 0.03583 0.0
O136 O 0.60957 0.90178 0.97534 0.0
O137 O 0.60235 0.91989 0.96931 0.0
O138 O 0.59838 0.88814 0.0528 0.0
O139 O 0.58778 0.89742 0.02323 0.0
Co140 Co 0.10173 0.70688 0.01205 0.0
O141 O 0.12247 0.71385 0.99807 0.0
O142 O 0.11206 0.72896 0.00548 0.0
C143 C 0.10252 0.69226 0.04703 0.0
O144 O 0.08128 0.70444 0.02645 0.0
Co145 Co 0.07585 0.67247 0.00999 0.0
O146 O 0.0641 0.67919 0.03448 0.0
C147 C 0.08188 0.69205 0.9599 0.0
C148 C 0.12395 0.7277 0.99738 0.0
C149 C 0.06801 0.69359 0.0355 0.0
O150 O 0.09319 0.70328 0.97318 0.0
O151 O 0.07351 0.67839 0.97046 0.0
O152 O 0.10883 0.70729 0.04975 0.0
O153 O 0.0972 0.6865 0.02241 0.0
Co154 Co 0.2829 0.38929 0.00572 0.0
O155 O 0.27654 0.40366 0.9925 0.0
O156 O 0.26157 0.3778 0.99337 0.0
C157 C 0.29418 0.402 0.04553 0.0
O158 O 0.28495 0.37074 0.01821 0.0
Co159 Co 0.31745 0.39883 0.01227 0.0
O160 O 0.30917 0.37928 0.03432 0.0
C161 C 0.30179 0.38671 0.95788 0.0
C162 C 0.26303 0.39136 0.98771 0.0
C163 C 0.29519 0.36831 0.03023 0.0
O164 O 0.28987 0.3872 0.96734 0.0
O165 O 0.31423 0.39108 0.97233 0.0
O166 O 0.27915 0.39287 0.04385 0.0
O167 O 0.30191 0.40459 0.02231 0.0
Co168 Co 0.77084 0.7229 0.3282 0.0
O169 O 0.79175 0.73757 0.31615 0.0
O170 O 0.78131 0.71174 0.31703 0.0
C171 C 0.77099 0.73549 0.36745 0.0
O172 O 0.75014 0.7042 0.33999 0.0
Co173 Co 0.74527 0.73189 0.33117 0.0
O174 O 0.73503 0.71343 0.35626 0.0
C175 C 0.7505 0.72009 0.27798 0.0
C176 C 0.79327 0.72542 0.31163 0.0
C177 C 0.73794 0.70233 0.35303 0.0
O178 O 0.76254 0.72052 0.28914 0.0
O179 O 0.742 0.72449 0.29097 0.0
O180 O 0.77737 0.72675 0.36684 0.0
O181 O 0.76633 0.73792 0.34352 0.0
Co182 Co 0.27126 0.04467 0.33281 0.0
O183 O 0.25804 0.05072 0.31278 0.0
O184 O 0.28258 0.06676 0.32508 0.0
C185 C 0.25391 0.03165 0.36981 0.0
O186 O 0.28713 0.04182 0.35254 0.0
Co187 Co 0.26038 0.02427 0.31068 0.0
O188 O 0.27567 0.01917 0.33077 0.0
C189 C 0.27698 0.03892 0.27225 0.0
C190 C 0.26995 0.06483 0.31307 0.0
C191 C 0.28634 0.02882 0.34729 0.0
O192 O 0.28233 0.0439 0.2967 0.0
O193 O 0.26265 0.02911 0.27018 0.0
O194 O 0.26223 0.04645 0.3673 0.0
O195 O 0.25445 0.02323 0.34959 0.0
Co196 Co 0.9523 0.23069 0.32612 0.0
O197 O 0.94538 0.20962 0.31405 0.0
O198 O 0.93073 0.22084 0.31481 0.0
C199 C 0.9641 0.22995 0.36591 0.0
O200 O 0.95501 0.25174 0.33774 0.0
Co201 Co 0.98734 0.25506 0.32997 0.0
O202 O 0.97981 0.26712 0.35166 0.0
C203 C 0.97111 0.25026 0.27596 0.0
C204 C 0.93186 0.2085 0.30971 0.0
C205 C 0.96583 0.26441 0.34886 0.0
O206 O 0.95882 0.23892 0.28709 0.0
O207 O 0.98401 0.25811 0.2893 0.0
O208 O 0.94906 0.22411 0.36476 0.0
O209 O 0.97142 0.23437 0.34218 0.0
Co210 Co 0.06431 0.43803 0.3554 0.0
O211 O 0.07661 0.45748 0.37509 0.0
O212 O 0.05172 0.44743 0.36299 0.0
C213 C 0.08184 0.4418 0.3218 0.0
O214 O 0.04784 0.41889 0.3347 0.0
Co215 Co 0.07432 0.41295 0.35246 0.0
O216 O 0.0572 0.4029 0.32466 0.0
C217 C 0.05702 0.41403 0.40196 0.0
C218 C 0.06413 0.45878 0.37454 0.0
C219 C 0.04654 0.40656 0.323 0.0
O220 O 0.05713 0.42608 0.39148 0.0
O221 O 0.06374 0.40727 0.3902 0.0
O222 O 0.07323 0.44831 0.32018 0.0
O223 O 0.08098 0.43476 0.3452 0.0
Co224 Co 0.5561 0.622 0.34876 0.0
O225 O 0.53634 0.61489 0.36727 0.0
O226 O 0.54776 0.60069 0.36015 0.0
C227 C 0.55159 0.63331 0.31192 0.0
O228 O 0.57579 0.6246 0.33032 0.0
Co229 Co 0.58024 0.65683 0.34061 0.0
O230 O 0.59045 0.64908 0.31449 0.0
C231 C 0.57988 0.64142 0.39379 0.0
C232 C 0.53592 0.60156 0.36982 0.0
C233 C 0.58763 0.63505 0.31671 0.0
O234 O 0.5677 0.62901 0.38507 0.0
O235 O 0.58667 0.65409 0.37948 0.0
O236 O 0.54593 0.61829 0.31286 0.0
O237 O 0.55847 0.64099 0.33451 0.0
Co238 Co 0.37742 0.93477 0.34738 0.0
O239 O 0.38547 0.92206 0.36221 0.0
O240 O 0.39901 0.94787 0.35729 0.0
C241 C 0.3655 0.92032 0.30947 0.0
O242 O 0.37354 0.9518 0.33263 0.0
Co243 Co 0.34203 0.92274 0.34339 0.0
O244 O 0.3486 0.94112 0.31868 0.0
C245 C 0.3589 0.9376 0.39571 0.0
C246 C 0.3987 0.93505 0.36469 0.0
C247 C 0.36241 0.95278 0.32064 0.0
O248 O 0.37113 0.93796 0.38559 0.0
O249 O 0.34589 0.93175 0.38245 0.0
O250 O 0.38048 0.92988 0.30974 0.0
O251 O 0.3584 0.91817 0.33329 0.0
Co252 Co 0.56233 0.9335 0.35344 0.0
O253 O 0.54235 0.92186 0.37163 0.0
O254 O 0.55349 0.94677 0.3588 0.0
C255 C 0.55854 0.91549 0.32118 0.0
O256 O 0.58222 0.94942 0.33377 0.0
Co257 Co 0.58664 0.92261 0.35463 0.0
O258 O 0.59839 0.93985 0.32772 0.0
C259 C 0.58434 0.93981 0.40303 0.0
C260 C 0.5416 0.93462 0.36987 0.0
C261 C 0.59488 0.95052 0.32411 0.0
O262 O 0.57322 0.94047 0.39038 0.0
O263 O 0.59109 0.93268 0.39289 0.0
O264 O 0.55277 0.92467 0.31793 0.0
O265 O 0.56507 0.91624 0.34514 0.0
Co266 Co 0.063 0.62085 0.3555 0.0
O267 O 0.07564 0.61409 0.37517 0.0
O268 O 0.05044 0.59916 0.36521 0.0
C269 C 0.07989 0.63337 0.32053 0.0
O270 O 0.04607 0.62311 0.33546 0.0
Co271 Co 0.07292 0.65572 0.34865 0.0
O272 O 0.0556 0.64785 0.32118 0.0
C273 C 0.05618 0.63885 0.39984 0.0
C274 C 0.06308 0.60039 0.37606 0.0
C275 C 0.04467 0.63364 0.32211 0.0
O276 O 0.05681 0.62683 0.39137 0.0
O277 O 0.06211 0.65173 0.38614 0.0
O278 O 0.071 0.61827 0.32022 0.0
O279 O 0.07954 0.64038 0.34324 0.0
Co280 Co 0.37221 0.44029 0.35223 0.0
O281 O 0.38022 0.45995 0.37151 0.0
O282 O 0.39392 0.44842 0.36062 0.0
C283 C 0.35953 0.44489 0.31785 0.0
O284 O 0.36845 0.42059 0.3321 0.0
Co285 Co 0.33686 0.41669 0.34906 0.0
O286 O 0.34315 0.40644 0.32029 0.0
C287 C 0.3544 0.41688 0.39909 0.0
C288 C 0.39354 0.46024 0.37178 0.0
C289 C 0.35712 0.40896 0.31943 0.0
O290 O 0.36661 0.42854 0.38851 0.0
O291 O 0.34099 0.41051 0.3871 0.0
O292 O 0.37455 0.45061 0.31681 0.0
O293 O 0.35284 0.43819 0.34124 0.0
Co294 Co 0.27404 0.22686 0.33613 0.0
O295 O 0.2607 0.20796 0.31538 0.0
O296 O 0.28539 0.21631 0.32636 0.0
C297 C 0.25693 0.2217 0.37392 0.0
O298 O 0.28994 0.24544 0.35599 0.0
Co299 Co 0.26228 0.23488 0.31505 0.0
O300 O 0.27724 0.25558 0.33497 0.0
C301 C 0.27941 0.23904 0.27636 0.0
C302 C 0.27262 0.20578 0.31444 0.0
C303 C 0.2885 0.2573 0.35071 0.0
O304 O 0.28483 0.23953 0.30071 0.0
O305 O 0.26485 0.23313 0.2741 0.0
O306 O 0.26532 0.21536 0.37016 0.0
O307 O 0.25734 0.23108 0.3546 0.0
Co308 Co 0.76811 0.04352 0.32148 0.0
O309 O 0.78845 0.05025 0.30549 0.0
O310 O 0.77806 0.06538 0.31254 0.0
C311 C 0.77017 0.03017 0.35785 0.0
O312 O 0.74812 0.04135 0.3378 0.0
Co313 Co 0.74257 0.00874 0.32463 0.0
O314 O 0.73203 0.01641 0.35014 0.0
C315 C 0.74617 0.02637 0.27257 0.0
C316 C 0.78986 0.06406 0.30406 0.0
C317 C 0.73553 0.03071 0.34941 0.0
O318 O 0.75796 0.03833 0.2836 0.0
O319 O 0.73863 0.01316 0.28509 0.0
O320 O 0.77658 0.04529 0.35869 0.0
O321 O 0.76414 0.02368 0.33401 0.0
Co322 Co 0.95712 0.72727 0.33204 0.0
O323 O 0.94952 0.73897 0.3111 0.0
O324 O 0.93478 0.71517 0.32842 0.0
C325 C 0.97133 0.74678 0.36527 0.0
O326 O 0.96133 0.7127 0.35335 0.0
Co327 Co 0.97678 0.73702 0.30724 0.0
O328 O 0.98256 0.72231 0.32756 0.0
C329 C 0.96055 0.71883 0.27203 0.0
C330 C 0.93566 0.72701 0.31502 0.0
C331 C 0.97374 0.7127 0.34627 0.0
O332 O 0.9566 0.71459 0.29731 0.0
O333 O 0.96999 0.73306 0.26763 0.0
O334 O 0.95655 0.73786 0.36525 0.0
O335 O 0.97905 0.74539 0.34471 0.0
Co336 Co 0.43471 0.06522 0.64929 0.0
O337 O 0.4552 0.07764 0.63317 0.0
O338 O 0.4441 0.05244 0.64387 0.0
C339 C 0.43706 0.08221 0.68268 0.0
O340 O 0.41435 0.04855 0.66674 0.0
Co341 Co 0.41005 0.07565 0.64636 0.0
O342 O 0.39766 0.05762 0.67139 0.0
C343 C 0.41392 0.05945 0.59795 0.0
C344 C 0.45614 0.06497 0.63415 0.0
C345 C 0.40129 0.04703 0.67513 0.0
O346 O 0.42498 0.05899 0.61126 0.0
O347 O 0.4066 0.06607 0.6078 0.0
O348 O 0.44305 0.07323 0.68594 0.0
O349 O 0.43129 0.082 0.65816 0.0
Co350 Co 0.93573 0.37443 0.65264 0.0
O351 O 0.921 0.37987 0.63745 0.0
O352 O 0.94678 0.39535 0.63817 0.0
C353 C 0.92315 0.3642 0.69305 0.0
O354 O 0.95462 0.37346 0.66671 0.0
Co355 Co 0.92727 0.34037 0.66403 0.0
O356 O 0.94675 0.35016 0.68665 0.0
C357 C 0.93809 0.35386 0.60769 0.0
C358 C 0.93311 0.39341 0.63183 0.0
C359 C 0.95737 0.3641 0.68105 0.0
O360 O 0.93796 0.36622 0.61563 0.0
O361 O 0.93394 0.34197 0.62363 0.0
O362 O 0.93182 0.37922 0.68991 0.0
O363 O 0.92094 0.35583 0.67079 0.0
Co364 Co 0.6196 0.56083 0.65094 0.0
O365 O 0.61333 0.54071 0.63465 0.0
O366 O 0.59816 0.55125 0.63895 0.0
C367 C 0.63104 0.55829 0.68965 0.0
O368 O 0.62164 0.58084 0.66708 0.0
Co369 Co 0.65451 0.58548 0.6578 0.0
O370 O 0.64626 0.59596 0.68216 0.0
C371 C 0.63883 0.58346 0.60417 0.0
C372 C 0.5997 0.53948 0.63107 0.0
C373 C 0.63217 0.59301 0.67994 0.0
O374 O 0.62651 0.57141 0.6136 0.0
O375 O 0.65155 0.59069 0.61824 0.0
O376 O 0.61596 0.55198 0.68803 0.0
O377 O 0.63865 0.56413 0.66654 0.0
Co378 Co 0.72192 0.76948 0.67692 0.0
O379 O 0.73569 0.79009 0.69154 0.0
O380 O 0.70994 0.77917 0.68734 0.0
C381 C 0.73615 0.7713 0.63887 0.0
O382 O 0.70395 0.74898 0.66233 0.0
Co383 Co 0.73214 0.74469 0.6735 0.0
O384 O 0.71323 0.73322 0.64994 0.0
C385 C 0.71905 0.74851 0.72638 0.0
C386 C 0.7232 0.79121 0.6946 0.0
C387 C 0.70215 0.73631 0.65122 0.0
O388 O 0.71846 0.76005 0.71525 0.0
O389 O 0.72451 0.74087 0.71352 0.0
O390 O 0.72714 0.77738 0.63914 0.0
O391 O 0.73774 0.76585 0.66261 0.0
Co392 Co 0.22674 0.95217 0.67995 0.0
O393 O 0.20634 0.94565 0.69539 0.0
O394 O 0.21678 0.93045 0.69008 0.0
C395 C 0.22481 0.96496 0.64247 0.0
O396 O 0.24688 0.95422 0.66456 0.0
Co397 Co 0.25215 0.98691 0.67582 0.0
O398 O 0.26278 0.97899 0.6511 0.0
C399 C 0.2485 0.96994 0.72871 0.0
C400 C 0.20497 0.9319 0.698 0.0
C401 C 0.25944 0.96476 0.65271 0.0
O402 O 0.23666 0.95791 0.71801 0.0
O403 O 0.25616 0.98296 0.71564 0.0
O404 O 0.21849 0.94984 0.64241 0.0
O405 O 0.23066 0.9718 0.66618 0.0
Co406 Co 0.04538 0.2717 0.67529 0.0
O407 O 0.05158 0.25787 0.69219 0.0
O408 O 0.06697 0.2834 0.68569 0.0
C409 C 0.0326 0.25675 0.63817 0.0
O410 O 0.04378 0.2897 0.65825 0.0
Co411 Co 0.01094 0.26317 0.67057 0.0
O412 O 0.01927 0.28051 0.64297 0.0
C413 C 0.02775 0.27667 0.72333 0.0
C414 C 0.06533 0.27025 0.69473 0.0
C415 C 0.03352 0.29133 0.64446 0.0
O416 O 0.03965 0.27659 0.71273 0.0
O417 O 0.01475 0.27147 0.71022 0.0
O418 O 0.04775 0.26511 0.6384 0.0
O419 O 0.02569 0.25615 0.66164 0.0
Co420 Co 0.23 0.27166 0.68228 0.0
O421 O 0.20948 0.25865 0.69782 0.0
O422 O 0.22032 0.28408 0.68924 0.0
C423 C 0.22797 0.25549 0.64735 0.0
O424 O 0.2504 0.28882 0.66574 0.0
Co425 Co 0.25482 0.26151 0.6835 0.0
O426 O 0.2662 0.27908 0.65703 0.0
C427 C 0.25055 0.27636 0.73356 0.0
C428 C 0.20835 0.27122 0.69815 0.0
C429 C 0.263 0.29007 0.6554 0.0
O430 O 0.23951 0.27703 0.72061 0.0
O431 O 0.25803 0.27011 0.72284 0.0
O432 O 0.22192 0.26449 0.64512 0.0
O433 O 0.23359 0.2552 0.67177 0.0
Co434 Co 0.72113 0.95291 0.66888 0.0
O435 O 0.73471 0.94732 0.68894 0.0
O436 O 0.70995 0.93104 0.67816 0.0
C437 C 0.73801 0.96524 0.63123 0.0
O438 O 0.70489 0.9552 0.64926 0.0
Co439 Co 0.73199 0.97395 0.68986 0.0
O440 O 0.71587 0.97808 0.67025 0.0
C441 C 0.71606 0.95971 0.72901 0.0
C442 C 0.72279 0.93322 0.68969 0.0
C443 C 0.70519 0.968 0.65428 0.0
O444 O 0.7105 0.95439 0.70486 0.0
O445 O 0.7304 0.96952 0.73064 0.0
O446 O 0.72971 0.95047 0.63452 0.0
O447 O 0.73766 0.97405 0.65093 0.0
Co448 Co 0.04144 0.76968 0.67693 0.0
O449 O 0.04796 0.78868 0.69812 0.0
O450 O 0.06342 0.77954 0.68531 0.0
C451 C 0.02921 0.77562 0.64068 0.0
O452 O 0.03801 0.7511 0.65604 0.0
Co453 Co 0.02171 0.76129 0.69895 0.0
O454 O 0.01558 0.74068 0.67837 0.0
C455 C 0.03538 0.75735 0.73653 0.0
C456 C 0.06188 0.79038 0.69776 0.0
C457 C 0.02484 0.73917 0.66155 0.0
O458 O 0.03983 0.75671 0.71185 0.0
O459 O 0.02688 0.76339 0.73956 0.0
O460 O 0.04393 0.78143 0.6434 0.0
O461 O 0.02042 0.76624 0.6601 0.0
Co462 Co 0.92728 0.55384 0.64937 0.0
O463 O 0.91508 0.53381 0.63167 0.0
O464 O 0.94027 0.54481 0.64238 0.0
C465 C 0.9102 0.55045 0.68342 0.0
O466 O 0.94366 0.5739 0.66802 0.0
Co467 Co 0.91612 0.57805 0.64973 0.0
O468 O 0.93306 0.58887 0.6776 0.0
C469 C 0.93327 0.57628 0.60064 0.0
C470 C 0.92779 0.53294 0.63209 0.0
C471 C 0.94431 0.58607 0.67917 0.0
O472 O 0.93353 0.56469 0.61225 0.0
O473 O 0.92641 0.5831 0.61165 0.0
O474 O 0.91926 0.54448 0.68545 0.0
O475 O 0.91035 0.55671 0.65944 0.0
Co476 Co 0.43773 0.3788 0.65154 0.0
O477 O 0.45742 0.38468 0.63384 0.0
O478 O 0.44689 0.39987 0.63776 0.0
C479 C 0.44176 0.36849 0.69042 0.0
O480 O 0.41812 0.37725 0.6686 0.0
Co481 Co 0.41319 0.34433 0.66283 0.0
O482 O 0.40305 0.35325 0.68636 0.0
C483 C 0.41366 0.35829 0.60789 0.0
C484 C 0.45851 0.39819 0.62946 0.0
C485 C 0.40607 0.36726 0.68243 0.0
O486 O 0.42618 0.37077 0.61535 0.0
O487 O 0.40668 0.34618 0.62358 0.0
O488 O 0.44768 0.38348 0.6878 0.0
O489 O 0.43494 0.3602 0.66834 0.0
Co490 Co 0.61843 0.06232 0.65532 0.0
O491 O 0.61173 0.07578 0.63864 0.0
O492 O 0.5972 0.05 0.64285 0.0
C493 C 0.62942 0.07663 0.69394 0.0
O494 O 0.62066 0.04455 0.6716 0.0
Co495 Co 0.65321 0.07265 0.66452 0.0
O496 O 0.64488 0.05372 0.6884 0.0
C497 C 0.63828 0.05883 0.61026 0.0
C498 C 0.59833 0.06312 0.63491 0.0
C499 C 0.63087 0.04265 0.68498 0.0
O500 O 0.62589 0.05888 0.61839 0.0
O501 O 0.65065 0.0641 0.62529 0.0
O502 O 0.61439 0.06749 0.69222 0.0
O503 O 0.63723 0.07827 0.67115 0.0
H504 H 0.92569 0.27296 0.98593 0.0
H505 H 0.94986 0.27269 0.99541 0.0
H506 H 0.97632 0.31766 0.9554 0.0
H507 H 0.95233 0.31789 0.94525 0.0
H508 H 0.99157 0.30023 0.95441 0.0
H509 H 0.97008 0.30292 0.06117 0.0
H510 H 0.95868 0.28562 0.0406 0.0
H511 H 0.96017 0.30382 0.03022 0.0
C512 C 0.93657 0.28246 0.97791 0.0
C513 C 0.93718 0.29583 0.96603 0.0
C514 C 0.9504 0.2823 0.98354 0.0
C515 C 0.96488 0.29547 0.97726 0.0
C516 C 0.96526 0.30748 0.96093 0.0
H517 H 0.03825 0.36787 0.03606 0.0
H518 H 0.01345 0.34364 0.03184 0.0
C519 C 0.95148 0.30762 0.95517 0.0
C520 C 0.97929 0.29875 0.9924 0.0
H521 H 0.99685 0.31352 0.05533 0.0
C522 C 0.99274 0.3026 0.97669 0.0
C523 C 0.98069 0.30191 0.02153 0.0
C524 C 0.96671 0.29845 0.03948 0.0
C525 C 0.0077 0.31111 0.98859 0.0
C526 C 0.00912 0.31551 0.01711 0.0
C527 C 0.99563 0.31005 0.03354 0.0
C528 C 0.0238 0.32886 0.02779 0.0
C529 C 0.02182 0.31687 0.9698 0.0
C530 C 0.03779 0.32845 0.02893 0.0
C531 C 0.0521 0.3424 0.03122 0.0
C532 C 0.05249 0.35686 0.03233 0.0
C533 C 0.03835 0.35695 0.03473 0.0
C534 C 0.02414 0.34307 0.03243 0.0
H535 H 0.01857 0.31325 0.94769 0.0
H536 H 0.0289 0.32984 0.97055 0.0
H537 H 0.0293 0.31214 0.97716 0.0
H538 H 0.03772 0.31753 0.02595 0.0
H539 H 0.06281 0.34193 0.02959 0.0
H540 H 0.7239 0.6541 0.98515 0.0
H541 H 0.72569 0.67951 0.99191 0.0
H542 H 0.68026 0.66168 0.95388 0.0
H543 H 0.67876 0.63674 0.94574 0.0
H544 H 0.69685 0.69306 0.94993 0.0
H545 H 0.69945 0.67478 0.05931 0.0
H546 H 0.71571 0.6795 0.03661 0.0
H547 H 0.69706 0.6623 0.03012 0.0
C548 C 0.71461 0.65581 0.97704 0.0
C549 C 0.70083 0.64316 0.96609 0.0
C550 C 0.71561 0.67035 0.98116 0.0
C551 C 0.70275 0.67223 0.97477 0.0
C552 C 0.69023 0.66045 0.95956 0.0
H553 H 0.6312 0.66862 0.03832 0.0
H554 H 0.65694 0.67152 0.03224 0.0
C555 C 0.68933 0.64607 0.95504 0.0
C556 C 0.70024 0.68423 0.98883 0.0
H557 H 0.68726 0.68912 0.05213 0.0
C558 C 0.69527 0.69274 0.97241 0.0
C559 C 0.69832 0.68392 0.01828 0.0
C560 C 0.70287 0.67464 0.03724 0.0
C561 C 0.68632 0.6988 0.98402 0.0
C562 C 0.6828 0.69673 0.01296 0.0
C563 C 0.68993 0.69053 0.02995 0.0
C564 C 0.66865 0.69644 0.02397 0.0
C565 C 0.67907 0.70553 0.96469 0.0
C566 C 0.66691 0.70969 0.02341 0.0
C567 C 0.65207 0.70803 0.02673 0.0
C568 C 0.63884 0.69309 0.03063 0.0
C569 C 0.64105 0.68024 0.03482 0.0
C570 C 0.65582 0.6819 0.03139 0.0
H571 H 0.68244 0.7056 0.9425 0.0
H572 H 0.66611 0.69864 0.9662 0.0
H573 H 0.68286 0.71775 0.97093 0.0
H574 H 0.67676 0.72109 0.0185 0.0
H575 H 0.65083 0.71826 0.02395 0.0
H576 H 0.34367 0.06333 0.99409 0.0
H577 H 0.32214 0.03818 0.00902 0.0
H578 H 0.33973 0.01451 0.95749 0.0
H579 H 0.36187 0.0397 0.94353 0.0
H580 H 0.29852 0.00819 0.99352 0.0
H581 H 0.3505 0.00852 0.03788 0.0
H582 H 0.3517 0.02521 0.02022 0.0
H583 H 0.3512 0.00943 1.00043 0.0
C584 C 0.34263 0.05282 0.98489 0.0
C585 C 0.35478 0.05344 0.96847 0.0
C586 C 0.33026 0.03842 0.99352 0.0
C587 C 0.32977 0.02457 0.98524 0.0
C588 C 0.34024 0.02517 0.96472 0.0
H589 H 0.2772 0.93044 0.00563 0.0
H590 H 0.28125 0.95663 0.00302 0.0
C591 C 0.35284 0.03956 0.95663 0.0
C592 C 0.3209 0.01024 0.00218 0.0
H593 H 0.32651 0.98455 0.04073 0.0
C594 C 0.30456 0.003 0.00409 0.0
C595 C 0.32888 0.00408 0.01746 0.0
C596 C 0.34654 0.01231 0.01922 0.0
C597 C 0.29589 0.98893 0.019 0.0
C598 C 0.3038 0.98176 0.03141 0.0
C599 C 0.32024 0.98979 0.03122 0.0
C600 C 0.29575 0.96507 0.04018 0.0
C601 C 0.27841 0.98194 0.02111 0.0
C602 C 0.30151 0.96049 0.06311 0.0
C603 C 0.29985 0.94557 0.0638 0.0
C604 C 0.29182 0.93489 0.04222 0.0
C605 C 0.28353 0.93848 0.0225 0.0
C606 C 0.28573 0.95356 0.02113 0.0
H607 H 0.27539 0.99131 0.02387 0.0
H608 H 0.27288 0.97578 1.00132 0.0
H609 H 0.27339 0.97359 0.0388 0.0
H610 H 0.30901 0.96904 0.07846 0.0
H611 H 0.30617 0.94299 0.07947 0.0
H612 H 0.04115 0.67716 0.06583 0.0
H613 H 0.01656 0.6762 0.05444 0.0
H614 H 0.04118 0.71638 1.00086 0.0
H615 H 0.06587 0.7178 0.01283 0.0
H616 H 0.00936 0.70984 0.02429 0.0
H617 H 0.01154 0.66153 0.96897 0.0
H618 H 0.01378 0.66117 0.00617 0.0
H619 H 0.02839 0.67721 0.986 0.0
C620 C 0.04145 0.68634 0.05292 0.0
C621 C 0.05534 0.69724 0.03955 0.0
C622 C 0.02739 0.68579 0.04644 0.0
C623 C 0.02709 0.69596 0.02622 0.0
C624 C 0.04121 0.7084 0.01639 0.0
H625 H 0.94507 0.64078 0.92972 0.0
H626 H 0.97088 0.66415 0.93404 0.0
C627 C 0.05533 0.70915 0.02328 0.0
C628 C 0.01259 0.69093 0.01009 0.0
H629 H 0.98726 0.66087 0.96886 0.0
C630 C 0.00451 0.69924 0.01186 0.0
C631 C 0.00676 0.67758 0.99275 0.0
C632 C 0.01563 0.66894 0.98805 0.0
C633 C 0.99 0.69373 0.99836 0.0
C634 C 0.98334 0.67937 0.98352 0.0
C635 C 0.99215 0.67184 0.98017 0.0
C636 C 0.96658 0.67041 0.97522 0.0
C637 C 0.98197 0.7033 1.00039 0.0
C638 C 0.95502 0.66708 0.99549 0.0
C639 C 0.94008 0.65413 0.9924 0.0
C640 C 0.93666 0.64402 0.96951 0.0
C641 C 0.9475 0.64838 0.94763 0.0
C642 C 0.96226 0.66172 0.95019 0.0
H643 H 0.9907 0.716 0.99969 0.0
H644 H 0.97337 0.70053 0.98327 0.0
H645 H 0.97584 0.70096 0.02078 0.0
H646 H 0.95795 0.67326 0.01523 0.0
H647 H 0.93194 0.65095 0.00967 0.0
H648 H 0.3709 0.33322 0.96 0.0
H649 H 0.34552 0.33149 0.96213 0.0
H650 H 0.3228 0.28111 0.96416 0.0
H651 H 0.34834 0.28272 0.96299 0.0
H652 H 0.31666 0.31763 0.93703 0.0
H653 H 0.31358 0.29117 0.04169 0.0
H654 H 0.33101 0.29905 0.02064 0.0
H655 H 0.31409 0.28083 0.01115 0.0
C656 C 0.36054 0.32172 0.9601 0.0
C657 C 0.3617 0.30813 0.96241 0.0
C658 C 0.34597 0.32074 0.96122 0.0
C659 C 0.3323 0.30618 0.96433 0.0
C660 C 0.33325 0.29248 0.96264 0.0
H661 H 0.27056 0.34171 0.00803 0.0
H662 H 0.27201 0.31869 0.99371 0.0
C663 C 0.34789 0.29344 0.96179 0.0
C664 C 0.31792 0.30594 0.97401 0.0
H665 H 0.29898 0.30348 0.03516 0.0
C666 C 0.31232 0.31407 0.95815 0.0
C667 C 0.31227 0.3012 1.0016 0.0
C668 C 0.31803 0.29263 0.01992 0.0
C669 C 0.30282 0.31935 0.97019 0.0
C670 C 0.29844 0.31592 0.99869 0.0
C671 C 0.30237 0.30606 0.01338 0.0
C672 C 0.29386 0.32574 0.01508 0.0
C673 C 0.29917 0.33009 0.95326 0.0
C674 C 0.30464 0.33627 0.03452 0.0
C675 C 0.30375 0.34929 0.04311 0.0
C676 C 0.29215 0.35205 0.03207 0.0
C677 C 0.27988 0.34013 0.0164 0.0
C678 C 0.28074 0.327 0.00795 0.0
H679 H 0.30455 0.33248 0.93213 0.0
H680 H 0.28633 0.32467 0.95059 0.0
H681 H 0.30349 0.34144 0.96423 0.0
H682 H 0.31474 0.33539 0.04073 0.0
H683 H 0.31315 0.35804 0.0558 0.0
H684 H 0.64887 0.93492 0.00767 0.0
H685 H 0.67084 0.96083 0.99912 0.0
H686 H 0.65456 0.97955 0.06422 0.0
H687 H 0.63164 0.95365 0.07105 0.0
H688 H 0.65441 0.99209 0.01939 0.0
H689 H 0.71172 0.99534 0.02146 0.0
H690 H 0.69861 0.97904 1.00032 0.0
H691 H 0.69462 0.97922 0.03712 0.0
C692 C 0.65034 0.94441 0.02109 0.0
C693 C 0.63846 0.94237 0.03973 0.0
C694 C 0.66306 0.95931 0.01628 0.0
C695 C 0.6644 0.97228 0.03084 0.0
C696 C 0.6537 0.96976 0.05246 0.0
H697 H 0.72071 0.06937 0.99735 0.0
H698 H 0.71545 0.04305 0.00737 0.0
C699 C 0.64064 0.95496 0.05651 0.0
C700 C 0.67411 0.98823 0.01902 0.0
H701 H 0.70943 0.01337 0.98913 0.0
C702 C 0.66654 0.99678 0.01336 0.0
C703 C 0.68994 0.99447 0.01083 0.0
C704 C 0.69919 0.98656 0.01807 0.0
C705 C 0.67412 0.01114 0.99953 0.0
C706 C 0.68954 0.01684 0.98954 0.0
C707 C 0.69739 0.00864 0.99581 0.0
C708 C 0.69787 0.03214 0.97515 0.0
C709 C 0.66555 0.0202 0.99636 0.0
C710 C 0.69114 0.03486 0.95148 0.0
C711 C 0.69377 0.04991 0.94615 0.0
C712 C 0.70348 0.06229 0.96407 0.0
C713 C 0.71285 0.06 0.98358 0.0
C714 C 0.70988 0.0449 0.98938 0.0
H715 H 0.65551 0.016 0.011 0.0
H716 H 0.6735 0.03288 1.00024 0.0
H717 H 0.66089 0.01873 0.97477 0.0
H718 H 0.68216 0.02513 0.9397 0.0
H719 H 0.68669 0.05142 0.9305 0.0
H720 H 0.71814 0.69138 0.39756 0.0
H721 H 0.6914 0.66931 0.39575 0.0
H722 H 0.70073 0.65678 0.31443 0.0
H723 H 0.72764 0.67799 0.31728 0.0
H724 H 0.67524 0.67345 0.35985 0.0
H725 H 0.66688 0.61508 0.33714 0.0
H726 H 0.68501 0.63058 0.35128 0.0
H727 H 0.68147 0.62902 0.31408 0.0
C728 C 0.71469 0.68329 0.38016 0.0
C729 C 0.72482 0.68641 0.35745 0.0
C730 C 0.6994 0.67071 0.37903 0.0
C731 C 0.69389 0.66146 0.35474 0.0
C732 C 0.70463 0.66347 0.33361 0.0
H733 H 0.61162 0.65056 0.27956 0.0
H734 H 0.63745 0.65313 0.28453 0.0
C735 C 0.72007 0.67572 0.33518 0.0
C736 C 0.67689 0.65316 0.34826 0.0
H737 H 0.64735 0.62074 0.31655 0.0
C738 C 0.66913 0.66176 0.35101 0.0
C739 C 0.66877 0.63793 0.33657 0.0
C740 C 0.67597 0.6276 0.33491 0.0
C741 C 0.65382 0.65592 0.34152 0.0
C742 C 0.64617 0.64127 0.32781 0.0
C743 C 0.6535 0.63222 0.32619 0.0
C744 C 0.63026 0.63526 0.31636 0.0
C745 C 0.64603 0.6656 0.34621 0.0
C746 C 0.61746 0.62322 0.3304 0.0
C747 C 0.60261 0.62151 0.3272 0.0
C748 C 0.60056 0.63206 0.31033 0.0
C749 C 0.61292 0.64246 0.29307 0.0
C750 C 0.62769 0.64394 0.2959 0.0
H751 H 0.65192 0.67446 0.36296 0.0
H752 H 0.64659 0.67192 0.32665 0.0
H753 H 0.63353 0.65809 0.352 0.0
H754 H 0.61921 0.61632 0.34611 0.0
H755 H 0.59327 0.61325 0.3406 0.0
H756 H 0.34455 0.96037 0.28775 0.0
H757 H 0.34159 0.98325 0.29444 0.0
H758 H 0.38119 0.00321 0.3503 0.0
H759 H 0.38439 0.98046 0.3435 0.0
H760 H 0.35132 0.99391 0.37495 0.0
H761 H 0.36167 0.03115 0.28173 0.0
H762 H 0.35187 0.01061 0.27379 0.0
H763 H 0.37153 0.02005 0.28719 0.0
C764 C 0.3531 0.96997 0.30037 0.0
C765 C 0.36446 0.96845 0.31559 0.0
C766 C 0.35145 0.98309 0.30408 0.0
C767 C 0.36112 0.99484 0.32301 0.0
C768 C 0.37367 0.99426 0.33553 0.0
H769 H 0.31646 0.05023 0.36055 0.0
H770 H 0.33847 0.04533 0.36287 0.0
C771 C 0.37546 0.98123 0.33155 0.0
C772 C 0.35562 0.00511 0.3346 0.0
H773 H 0.34167 0.02888 0.31398 0.0
C774 C 0.34968 0.00201 0.36198 0.0
C775 C 0.35351 0.01562 0.31768 0.0
C776 C 0.36011 0.01968 0.28852 0.0
C777 C 0.34032 0.00796 0.37186 0.0
C778 C 0.33701 0.0173 0.35396 0.0
C779 C 0.34423 0.02166 0.32764 0.0
C780 C 0.324 0.0202 0.35967 0.0
C781 C 0.33318 0.00335 0.40059 0.0
C782 C 0.30862 0.00762 0.35801 0.0
C783 C 0.2961 0.01037 0.35627 0.0
C784 C 0.29879 0.02575 0.35638 0.0
C785 C 0.31407 0.03826 0.36056 0.0
C786 C 0.32665 0.0355 0.36183 0.0
H787 H 0.34018 0.00014 0.41444 0.0
H788 H 0.33214 0.01299 0.41044 0.0
H789 H 0.32126 0.99302 0.39876 0.0
H790 H 0.30639 0.99573 0.35595 0.0
H791 H 0.28443 0.00053 0.35312 0.0
H792 H 0.94128 0.26764 0.32976 0.0
H793 H 0.94177 0.29251 0.32342 0.0
H794 H 0.98507 0.31617 0.36965 0.0
H795 H 0.98432 0.2915 0.37704 0.0
H796 H 0.96848 0.33099 0.37524 0.0
H797 H 0.97183 0.31817 0.26256 0.0
H798 H 0.95416 0.3058 0.28148 0.0
H799 H 0.97176 0.30542 0.28955 0.0
C800 C 0.95058 0.27805 0.33952 0.0
C801 C 0.96307 0.2777 0.3531 0.0
C802 C 0.9509 0.2923 0.33562 0.0
C803 C 0.96378 0.30629 0.34505 0.0
C804 C 0.97509 0.30557 0.36181 0.0
H805 H 0.03878 0.37858 0.29867 0.0
H806 H 0.01286 0.35574 0.29755 0.0
C807 C 0.97471 0.29141 0.36592 0.0
C808 C 0.96738 0.32182 0.33405 0.0
H809 H 0.98402 0.3442 0.27605 0.0
C810 C 0.97143 0.33394 0.35339 0.0
C811 C 0.97101 0.32557 0.30541 0.0
C812 C 0.96704 0.31313 0.28345 0.0
C813 C 0.9811 0.34966 0.34575 0.0
C814 C 0.98628 0.3533 0.31765 0.0
C815 C 0.98016 0.34133 0.29757 0.0
C816 C 0.00085 0.36802 0.3106 0.0
C817 C 0.98723 0.36191 0.36853 0.0
C818 C 0.00267 0.38282 0.31614 0.0
C819 C 0.01767 0.396 0.31726 0.0
C820 C 0.03098 0.39452 0.31254 0.0
C821 C 0.02885 0.38011 0.30305 0.0
C822 C 0.01395 0.36698 0.30229 0.0
H823 H 0.98301 0.35679 0.38959 0.0
H824 H 0.00022 0.36829 0.36878 0.0
H825 H 0.98332 0.37051 0.36458 0.0
H826 H 0.99266 0.384 0.32163 0.0
H827 H 0.01886 0.40701 0.32409 0.0
H828 H 0.59519 0.97848 0.32462 0.0
H829 H 0.61846 0.00438 0.3215 0.0
H830 H 0.64584 0.98319 0.29763 0.0
H831 H 0.62275 0.95745 0.30017 0.0
H832 H 0.64077 0.01087 0.35837 0.0
H833 H 0.6683 0.02327 0.25507 0.0
H834 H 0.64791 0.00881 0.25979 0.0
H835 H 0.66295 0.00358 0.2638 0.0
C836 C 0.60603 0.97937 0.31753 0.0
C837 C 0.60719 0.96585 0.31332 0.0
C838 C 0.61933 0.99422 0.31577 0.0
C839 C 0.63393 0.99578 0.30941 0.0
C840 C 0.63471 0.98239 0.30211 0.0
H841 H 0.70976 0.01385 0.38199 0.0
H842 H 0.68506 0.01332 0.37633 0.0
C843 C 0.62145 0.96758 0.30387 0.0
C844 C 0.64864 0.01033 0.31646 0.0
H845 H 0.68665 0.03003 0.29563 0.0
C846 C 0.65072 0.01555 0.34433 0.0
C847 C 0.66161 0.01686 0.29817 0.0
C848 C 0.65997 0.0129 0.26747 0.0
C849 C 0.66572 0.02525 0.35528 0.0
C850 C 0.67888 0.02965 0.33799 0.0
C851 C 0.67661 0.02641 0.3092 0.0
C852 C 0.6944 0.03384 0.34975 0.0
C853 C 0.66736 0.02962 0.38578 0.0
C854 C 0.70813 0.0461 0.33814 0.0
C855 C 0.72236 0.04638 0.34133 0.0
C856 C 0.72294 0.03423 0.35574 0.0
C857 C 0.70964 0.02325 0.37047 0.0
C858 C 0.69548 0.02304 0.36743 0.0
H859 H 0.65782 0.03181 0.39235 0.0
H860 H 0.6663 0.01973 0.39852 0.0
H861 H 0.67881 0.04019 0.3903 0.0
H862 H 0.70757 0.05455 0.32443 0.0
H863 H 0.73243 0.05508 0.32985 0.0
H864 H 0.95183 0.68328 0.3622 0.0
H865 H 0.95527 0.66034 0.36341 0.0
H866 H 0.00483 0.69013 0.35035 0.0
H867 H 0.00145 0.71304 0.34842 0.0
H868 H 0.97057 0.65587 0.31131 0.0
H869 H -0.00111 0.65579 0.41155 0.0
H870 H 0.98628 0.66414 0.40803 0.0
H871 H 0.00615 0.67476 0.39588 0.0
C872 C 0.96354 0.685 0.36063 0.0
C873 C 0.97639 0.69991 0.35507 0.0
C874 C 0.96545 0.67187 0.3612 0.0
C875 C 0.98028 0.6736 0.357 0.0
C876 C 0.99331 0.68862 0.35389 0.0
H877 H 0.03669 0.64969 0.28538 0.0
H878 H 0.01366 0.65246 0.2905 0.0
C879 C 0.99138 0.70169 0.35277 0.0
C880 C 0.98209 0.65991 0.35125 0.0
H881 H 0.00348 0.64339 0.37241 0.0
C882 C 0.97733 0.6527 0.32498 0.0
C883 C 0.99077 0.65577 0.36921 0.0
C884 C 0.99574 0.66291 0.39788 0.0
C885 C 0.98242 0.6426 0.31508 0.0
C886 C 0.99242 0.63968 0.332 0.0
C887 C 0.99579 0.64562 0.3594 0.0
C888 C 0.00218 0.63355 0.32033 0.0
C889 C 0.97793 0.63598 0.28599 0.0
C890 C 0.00281 0.62124 0.33375 0.0
C891 C 0.01598 0.61956 0.33068 0.0
C892 C 0.02881 0.63047 0.31473 0.0
C893 C 0.02707 0.64125 0.29808 0.0
C894 C 0.01384 0.64279 0.30091 0.0
H895 H 0.96643 0.63457 0.27984 0.0
H896 H 0.98682 0.64419 0.27098 0.0
H897 H 0.97738 0.62449 0.28433 0.0
H898 H 0.99392 0.614 0.34883 0.0
H899 H 0.01689 0.61105 0.34366 0.0
H900 H 0.337 0.38344 0.28857 0.0
H901 H 0.33541 0.35808 0.29139 0.0
H902 H 0.38056 0.37929 0.33147 0.0
H903 H 0.3822 0.40479 0.32916 0.0
H904 H 0.35212 0.34148 0.28302 0.0
H905 H 0.34801 0.35585 0.3944 0.0
H906 H 0.34857 0.36815 0.36612 0.0
H907 H 0.36611 0.36821 0.37649 0.0
C908 C 0.34691 0.38288 0.29694 0.0
C909 C 0.3594 0.39599 0.30977 0.0
C910 C 0.34601 0.36834 0.29843 0.0
C911 C 0.35763 0.36678 0.31254 0.0
C912 C 0.37134 0.38026 0.32104 0.0
H913 H 0.31957 0.26732 0.35684 0.0
H914 H 0.34087 0.29449 0.35208 0.0
C915 C 0.37225 0.39485 0.3196 0.0
C916 C 0.35348 0.35123 0.32384 0.0
H917 H 0.33879 0.3297 0.38348 0.0
C918 C 0.34971 0.33891 0.30511 0.0
C919 C 0.35008 0.34795 0.35269 0.0
C920 C 0.35329 0.36067 0.37367 0.0
C921 C 0.34168 0.32329 0.31418 0.0
C922 C 0.33747 0.32005 0.34268 0.0
C923 C 0.34223 0.33236 0.36173 0.0
C924 C 0.32551 0.30423 0.35165 0.0
C925 C 0.33648 0.3103 0.29296 0.0
C926 C 0.31003 0.30097 0.35447 0.0
C927 C 0.2979 0.28557 0.35706 0.0
C928 C 0.30113 0.27323 0.35713 0.0
C929 C 0.31679 0.27665 0.35709 0.0
C930 C 0.32894 0.2921 0.35413 0.0
H931 H 0.34063 0.31481 0.27152 0.0
H932 H 0.341 0.30241 0.29889 0.0
H933 H 0.32351 0.30321 0.29268 0.0
H934 H 0.30722 0.31025 0.35266 0.0
H935 H 0.28594 0.28324 0.35706 0.0
H936 H 0.2848 0.98102 0.61902 0.0
H937 H 0.30974 0.98205 0.62462 0.0
H938 H 0.28838 0.94231 0.68018 0.0
H939 H 0.26329 0.94133 0.67486 0.0
H940 H 0.30981 0.96733 0.70661 0.0
H941 H 0.33686 0.96344 0.60925 0.0
H942 H 0.32816 0.97527 0.60246 0.0
H943 H 0.31591 0.95504 0.61245 0.0
C944 C 0.28522 0.97204 0.6314 0.0
C945 C 0.27217 0.96136 0.64702 0.0
C946 C 0.29952 0.97253 0.63442 0.0
C947 C 0.30101 0.96229 0.65297 0.0
C948 C 0.28752 0.95032 0.66576 0.0
H949 H 0.40083 0.019 0.67288 0.0
H950 H 0.37761 0.99302 0.67634 0.0
C951 C 0.27314 0.94976 0.66261 0.0
C952 C 0.31678 0.96685 0.66397 0.0
H953 H 0.35448 0.98538 0.64123 0.0
C954 C 0.31959 0.97071 0.69249 0.0
C955 C 0.32961 0.97091 0.64601 0.0
C956 C 0.32741 0.96575 0.6159 0.0
C957 C 0.3348 0.98053 0.70247 0.0
C958 C 0.34741 0.98678 0.68336 0.0
C959 C 0.34481 0.98096 0.65587 0.0
C960 C 0.36218 0.00153 0.68923 0.0
C961 C 0.33702 0.98504 0.73294 0.0
C962 C 0.36141 0.01492 0.69659 0.0
C963 C 0.37462 0.02974 0.69472 0.0
C964 C 0.38887 0.03153 0.68505 0.0
C965 C 0.39002 0.01805 0.68028 0.0
C966 C 0.37674 0.00317 0.6822 0.0
H967 H 0.32892 0.97492 0.74609 0.0
H968 H 0.34922 0.98925 0.73993 0.0
H969 H 0.33414 0.99444 0.73639 0.0
H970 H 0.3503 0.01409 0.70147 0.0
H971 H 0.37333 0.03984 0.69878 0.0
H972 H 0.98118 0.38047 0.64488 0.0
H973 H 0.00359 0.3767 0.63897 0.0
H974 H 0.99326 0.35243 0.71793 0.0
H975 H 0.97014 0.3553 0.72314 0.0
H976 H 0.03028 0.37796 0.66341 0.0
H977 H 0.9789 0.31769 0.65973 0.0
H978 H 0.97678 0.33474 0.66221 0.0
H979 H 0.98162 0.32732 0.69275 0.0
C980 C 0.98407 0.37496 0.66165 0.0
C981 C 0.97371 0.36779 0.68413 0.0
C982 C 0.99694 0.37284 0.65823 0.0
C983 C -0.00027 0.36382 0.67755 0.0
C984 C 0.99102 0.35909 0.70245 0.0
H985 H 0.05321 0.31861 0.67081 0.0
H986 H 0.04932 0.34109 0.67224 0.0
C987 C 0.97785 0.36077 0.70548 0.0
C988 C 0.00864 0.35621 0.66843 0.0
H989 H 0.00345 0.32034 0.65196 0.0
C990 C 0.02449 0.36537 0.66094 0.0
C991 C 0.00089 0.3398 0.66438 0.0
C992 C 0.98359 0.32931 0.66991 0.0
C993 C 0.03285 0.35843 0.65002 0.0
C994 C 0.02513 0.34201 0.64674 0.0
C995 C 0.00931 0.33297 0.65414 0.0
C996 C 0.03302 0.33336 0.63762 0.0
C997 C 0.04973 0.36864 0.64173 0.0
C998 C 0.02613 0.32217 0.61624 0.0
C999 C 0.02798 0.30905 0.61589 0.0
C1000 C 0.03702 0.30718 0.63656 0.0
C1001 C 0.04611 0.31972 0.65469 0.0
C1002 C 0.04397 0.33269 0.65544 0.0
H1003 H 0.05272 0.38099 0.63851 0.0
H1004 H 0.05735 0.36842 0.6586 0.0
H1005 H 0.05237 0.36425 0.62228 0.0
H1006 H 0.0177 0.32253 0.60217 0.0
H1007 H 0.021 0.29962 0.60148 0.0
H1008 H 0.67409 0.73428 0.66481 0.0
H1009 H 0.64889 0.71002 0.6684 0.0
H1010 H 0.66906 0.68479 0.62924 0.0
H1011 H 0.69384 0.70886 0.62446 0.0
H1012 H 0.6384 0.67133 0.61777 0.0
H1013 H 0.64804 0.68318 0.7323 0.0
H1014 H 0.64476 0.69631 0.71116 0.0
H1015 H 0.66253 0.69563 0.70722 0.0
C1016 C 0.67298 0.72366 0.656 0.0
C1017 C 0.68613 0.7234 0.64516 0.0
C1018 C 0.65859 0.70976 0.65834 0.0
C1019 C 0.65726 0.69548 0.65014 0.0
C1020 C 0.66982 0.69561 0.63609 0.0
H1021 H 0.65153 0.62045 0.70656 0.0
H1022 H 0.65012 0.6442 0.70381 0.0
C1023 C 0.68407 0.70944 0.63347 0.0
C1024 C 0.64421 0.68017 0.65971 0.0
H1025 H 0.63333 0.65732 0.71824 0.0
C1026 C 0.63683 0.66824 0.63977 0.0
C1027 C 0.64204 0.67623 0.68851 0.0
C1028 C 0.64976 0.68844 0.71114 0.0
C1029 C 0.62941 0.6524 0.64751 0.0
C1030 C 0.62878 0.64846 0.67619 0.0
C1031 C 0.63399 0.6604 0.69631 0.0
C1032 C 0.62707 0.63323 0.68488 0.0
C1033 C 0.6241 0.64022 0.62465 0.0
C1034 C 0.6141 0.61884 0.6772 0.0
C1035 C 0.61503 0.60513 0.67822 0.0
C1036 C 0.62886 0.60565 0.68734 0.0
C1037 C 0.64085 0.61966 0.69878 0.0
C1038 C 0.64001 0.63331 0.69735 0.0
H1039 H 0.6268 0.6455 0.60342 0.0
H1040 H 0.62985 0.63306 0.627 0.0
H1041 H 0.61127 0.63232 0.62603 0.0
H1042 H 0.60374 0.61839 0.66852 0.0
H1043 H 0.60543 0.59445 0.66978 0.0
H1044 H 0.40279 0.39133 0.6614 0.0
H1045 H 0.37803 0.39107 0.65639 0.0
H1046 H 0.35554 0.35022 0.70922 0.0
H1047 H 0.38015 0.35063 0.71486 0.0
H1048 H 0.35611 0.36784 0.6286 0.0
H1049 H 0.32968 0.36937 0.72823 0.0
H1050 H 0.35047 0.37671 0.72514 0.0
H1051 H 0.33715 0.3563 0.73262 0.0
C1052 C 0.39275 0.38275 0.6731 0.0
C1053 C 0.39336 0.37075 0.68801 0.0
C1054 C 0.37856 0.3826 0.67011 0.0
C1055 C 0.36485 0.37059 0.68228 0.0
C1056 C 0.36593 0.3598 0.69997 0.0
H1057 H 0.29009 0.29693 0.62857 0.0
H1058 H 0.31384 0.32215 0.62773 0.0
C1059 C 0.38006 0.35994 0.70298 0.0
C1060 C 0.34921 0.3669 0.67175 0.0
H1061 H 0.31146 0.34907 0.69422 0.0
C1062 C 0.34637 0.36429 0.64289 0.0
C1063 C 0.33643 0.36267 0.68996 0.0
C1064 C 0.33868 0.36661 0.72067 0.0
C1065 C 0.33109 0.35556 0.63244 0.0
C1066 C 0.3184 0.34906 0.65139 0.0
C1067 C 0.32116 0.35366 0.6796 0.0
C1068 C 0.30317 0.33511 0.64414 0.0
C1069 C 0.32883 0.35253 0.60143 0.0
C1070 C 0.289 0.3339 0.65274 0.0
C1071 C 0.2753 0.31929 0.65364 0.0
C1072 C 0.27564 0.30565 0.64621 0.0
C1073 C 0.28943 0.30716 0.63474 0.0
C1074 C 0.30307 0.3217 0.63393 0.0
H1075 H 0.33727 0.3631 0.58958 0.0
H1076 H 0.33121 0.34299 0.59588 0.0
H1077 H 0.31676 0.34915 0.59476 0.0
H1078 H 0.28877 0.34407 0.66072 0.0
H1079 H 0.26485 0.31857 0.66242 0.0
H1080 H 0.67517 0.94528 0.64363 0.0
H1081 H 0.6522 0.94867 0.64273 0.0
H1082 H 0.68235 -0.00127 0.64659 0.0
H1083 H 0.70528 0.99544 0.64807 0.0
H1084 H 0.64854 0.96514 0.691 0.0
H1085 H 0.64682 0.99145 0.58972 0.0
H1086 H 0.65571 0.97935 0.5938 0.0
H1087 H 0.6662 -0.00039 0.60396 0.0
C1088 C 0.67691 0.95702 0.64326 0.0
C1089 C 0.69198 0.97012 0.64609 0.0
C1090 C 0.66378 0.95891 0.64283 0.0
C1091 C 0.66562 0.97392 0.64446 0.0
C1092 C 0.68072 0.98705 0.64492 0.0
H1093 H 0.64714 0.03324 0.71833 0.0
H1094 H 0.6483 0.00941 0.71156 0.0
C1095 C 0.6938 0.98516 0.64587 0.0
C1096 C 0.65218 0.9761 0.65057 0.0
H1097 H 0.63667 0.99847 0.62982 0.0
C1098 C 0.64547 0.97197 0.67731 0.0
C1099 C 0.64807 0.9848 0.63258 0.0
C1100 C 0.65446 0.98895 0.60328 0.0
C1101 C 0.63615 0.97788 0.68766 0.0
C1102 C 0.63354 0.9881 0.67077 0.0
C1103 C 0.63873 0.99068 0.64289 0.0
C1104 C 0.62876 -0.00112 0.68276 0.0
C1105 C 0.63011 0.97405 0.7172 0.0
C1106 C 0.61677 0.00045 0.67021 0.0
C1107 C 0.61606 0.01412 0.67413 0.0
C1108 C 0.62758 0.02651 0.69015 0.0
C1109 C 0.63824 0.024 0.7056 0.0
C1110 C 0.63883 0.01028 0.70189 0.0
H1111 H 0.62786 0.96223 0.72332 0.0
H1112 H 0.63908 0.98266 0.73166 0.0
H1113 H 0.61918 0.97454 0.71978 0.0
H1114 H 0.60892 0.9918 0.65533 0.0
H1115 H 0.6076 0.01561 0.66207 0.0
H1116 H 0.99628 0.71302 0.65756 0.0
H1117 H 0.99103 0.68605 0.65703 0.0
H1118 H 0.04035 0.70252 0.64849 0.0
H1119 H 0.04572 0.72965 0.64862 0.0
H1120 H 0.00268 0.66818 0.61813 0.0
H1121 H 0.02292 0.67919 0.72903 0.0
H1122 H 0.01632 0.69122 0.71211 0.0
H1123 H 0.03448 0.69273 0.70183 0.0
C1124 C 0.00596 0.71089 0.65462 0.0
C1125 C 0.0214 0.72339 0.65336 0.0
C1126 C 0.00295 0.69551 0.65434 0.0
C1127 C 0.01534 0.69241 0.65306 0.0
C1128 C 0.03068 0.70477 0.64954 0.0
H1129 H 0.97333 0.59111 0.66484 0.0
H1130 H 0.9968 0.61692 0.66203 0.0
C1131 C 0.03369 0.72022 0.64946 0.0
C1132 C 0.01206 0.6764 0.65914 0.0
H1133 H 0.00724 0.65295 0.71511 0.0
C1134 C 0.00413 0.66478 0.639 0.0
C1135 C 0.01396 0.67218 0.6865 0.0
C1136 C 0.02237 0.68441 0.70877 0.0
C1137 C 0.99688 0.64889 0.64613 0.0
C1138 C -0.00225 0.64463 0.67412 0.0
C1139 C 0.00676 0.65628 0.69368 0.0
C1140 C 0.98663 0.62873 0.68435 0.0
C1141 C 0.9871 0.63684 0.62434 0.0
C1142 C 0.97377 0.62668 0.70018 0.0
C1143 C 0.96038 0.61199 0.70194 0.0
C1144 C 0.95968 0.59917 0.68778 0.0
C1145 C 0.97343 0.6008 0.6757 0.0
C1146 C 0.98685 0.61556 0.67391 0.0
H1147 H 0.98658 0.64227 0.60432 0.0
H1148 H 0.99215 0.62921 0.62006 0.0
H1149 H 0.97498 0.62931 0.63208 0.0
H1150 H 0.97345 0.63671 0.70866 0.0
H1151 H 0.95006 0.61104 0.71185 0.0
H1152 H 0.26088 0.41785 0.98471 0.0
H1153 H 0.23723 0.41937 0.97586 0.0
H1154 H 0.2114 0.36969 0.96014 0.0
H1155 H 0.23485 0.36798 0.96949 0.0
H1156 H 0.21465 0.40985 0.93076 0.0
H1157 H 0.19036 0.37661 0.02927 0.0
H1158 H 0.21073 0.38523 0.01998 0.0
H1159 H 0.19644 0.36697 0.00463 0.0
C1160 C 0.25022 0.4073 0.97891 0.0
C1161 C 0.24959 0.39274 0.97822 0.0
C1162 C 0.23676 0.40821 0.97379 0.0
C1163 C 0.2226 0.3946 0.96781 0.0
C1164 C 0.22222 0.38026 0.96515 0.0
H1165 H 0.12594 0.36756 0.97017 0.0
H1166 H 0.15105 0.36965 0.95894 0.0
C1167 C 0.23561 0.37931 0.9705 0.0
C1168 C 0.2079 0.39504 0.96718 0.0
H1169 H 0.17317 0.38094 1.00129 0.0
C1170 C 0.20553 0.40355 0.94611 0.0
C1171 C 0.19624 0.38704 0.98763 0.0
C1172 C 0.19858 0.37857 0.01183 0.0
C1173 C 0.19142 0.40375 0.94437 0.0
C1174 C 0.1796 0.3953 0.96431 0.0
C1175 C 0.18218 0.38714 0.98571 0.0
C1176 C 0.16443 0.39478 0.9642 0.0
C1177 C 0.18916 0.41274 0.9211 0.0
C1178 C 0.16366 0.40833 0.96983 0.0
C1179 C 0.1493 0.40717 0.97609 0.0
C1180 C 0.13566 0.39242 0.97724 0.0
C1181 C 0.13634 0.37903 0.96976 0.0
C1182 C 0.15063 0.38022 0.96321 0.0
H1183 H 0.19765 0.41539 0.90383 0.0
H1184 H 0.1771 0.40613 0.91251 0.0
H1185 H 0.19092 0.42401 0.92946 0.0
H1186 H 0.17422 0.41963 0.9712 0.0
H1187 H 0.14906 0.41768 0.98176 0.0
H1188 H 0.58211 0.73331 0.97235 0.0
H1189 H 0.58228 0.75812 0.9682 0.0
H1190 H 0.63104 0.7832 0.99149 0.0
H1191 H 0.63107 0.75853 0.99515 0.0
H1192 H 0.589 0.77829 0.01312 0.0
H1193 H 0.62976 0.80848 0.92509 0.0
H1194 H 0.621 0.7877 0.93112 0.0
H1195 H 0.63752 0.80135 0.95157 0.0
C1196 C 0.59294 0.74413 0.97605 0.0
C1197 C 0.60657 0.74402 0.98413 0.0
C1198 C 0.59301 0.75826 0.97367 0.0
C1199 C 0.60671 0.77244 0.97925 0.0
C1200 C 0.62045 0.77238 0.9865 0.0
H1201 H 0.63019 0.86768 0.00892 0.0
H1202 H 0.63011 0.8431 1.00165 0.0
C1203 C 0.62041 0.75828 0.98874 0.0
C1204 C 0.60624 0.78713 0.98029 0.0
H1205 H 0.62297 0.82406 0.95358 0.0
C1206 C 0.59628 0.78825 0.99988 0.0
C1207 C 0.61592 0.8001 0.96322 0.0
C1208 C 0.62657 0.79935 0.94139 0.0
C1209 C 0.59595 0.80217 0.0033 0.0
C1210 C 0.60562 0.81514 0.98622 0.0
C1211 C 0.61554 0.81402 0.96652 0.0
C1212 C 0.60582 0.8301 0.98899 0.0
C1213 C 0.58565 0.80303 0.02575 0.0
C1214 C 0.59227 0.83091 0.98366 0.0
C1215 C 0.59225 0.84487 0.98794 0.0
C1216 C 0.60583 0.85825 0.99735 0.0
C1217 C 0.61954 0.85754 1.00173 0.0
C1218 C 0.61953 0.84354 0.99756 0.0
H1219 H 0.58198 0.79347 0.04133 0.0
H1220 H 0.59175 0.81442 0.03688 0.0
H1221 H 0.57494 0.80191 0.01596 0.0
H1222 H 0.58168 0.82069 0.97651 0.0
H1223 H 0.58155 0.84513 0.98418 0.0
H1224 H 0.12893 0.75702 0.98812 0.0
H1225 H 0.15371 0.78049 0.97725 0.0
H1226 H 0.17694 0.75326 0.97659 0.0
H1227 H 0.15207 0.7296 0.98705 0.0
H1228 H 0.17958 0.79138 0.01304 0.0
H1229 H 0.1939 0.78061 0.90576 0.0
H1230 H 0.1744 0.76988 0.92015 0.0
H1231 H 0.18908 0.76526 0.9308 0.0
C1232 C 0.13926 0.75598 0.98529 0.0
C1233 C 0.13862 0.74152 0.98857 0.0
C1234 C 0.15338 0.76937 0.97901 0.0
C1235 C 0.16707 0.76853 0.97589 0.0
C1236 C 0.16642 0.75405 0.9784 0.0
H1237 H 0.264 0.84277 0.9738 0.0
H1238 H 0.24017 0.81729 0.96865 0.0
C1239 C 0.15225 0.7406 0.98455 0.0
C1240 C 0.18219 0.78309 0.97287 0.0
H1241 H 0.2132 0.8034 0.92901 0.0
C1242 C 0.18691 0.79404 0.99463 0.0
C1243 C 0.19176 0.78635 0.94897 0.0
C1244 C 0.18703 0.77498 0.92495 0.0
C1245 C 0.20093 0.80827 0.99309 0.0
C1246 C 0.2103 0.81174 0.96889 0.0
C1247 C 0.20582 0.80068 0.94735 0.0
C1248 C 0.22476 0.82694 0.96599 0.0
C1249 C 0.20566 0.81946 0.01749 0.0
C1250 C 0.22392 0.84069 0.9648 0.0
C1251 C 0.23742 0.85519 0.96793 0.0
C1252 C 0.25194 0.85609 0.97207 0.0
C1253 C 0.25293 0.84238 0.97073 0.0
C1254 C 0.23937 0.82784 0.96778 0.0
H1255 H 0.19916 0.81354 0.03683 0.0
H1256 H 0.21839 0.82492 0.02172 0.0
H1257 H 0.20308 0.82892 0.01243 0.0
H1258 H 0.21271 0.84015 0.96307 0.0
H1259 H 0.23636 0.8656 0.96856 0.0
H1260 H 0.41126 0.26202 0.02921 0.0
H1261 H 0.40978 0.23675 0.03589 0.0
H1262 H 0.36316 0.21322 1.00136 0.0
H1263 H 0.36441 0.23845 0.99496 0.0
H1264 H 0.36781 0.19843 0.04996 0.0
H1265 H 0.41214 0.21286 0.96638 0.0
H1266 H 0.418 0.22709 0.9939 0.0
H1267 H 0.40205 0.22371 0.97132 0.0
C1268 C 0.40063 0.25146 0.02328 0.0
C1269 C 0.38802 0.25217 0.01124 0.0
C1270 C 0.39983 0.23707 0.02709 0.0
C1271 C 0.38647 0.22325 0.01868 0.0
C1272 C 0.37357 0.22384 0.00786 0.0
H1273 H 0.36189 0.1269 1.00005 0.0
H1274 H 0.36134 0.15115 0.00673 0.0
C1275 C 0.37433 0.23823 0.00417 0.0
C1276 C 0.38636 0.2083 0.01954 0.0
H1277 H 0.40395 0.18935 0.99114 0.0
C1278 C 0.3757 0.19639 0.03719 0.0
C1279 C 0.39662 0.20577 0.00262 0.0
C1280 C 0.40777 0.21796 0.98228 0.0
C1281 C 0.37523 0.18197 0.03874 0.0
C1282 C 0.38557 0.17948 0.02191 0.0
C1283 C 0.39618 0.19141 0.00424 0.0
C1284 C 0.38529 0.16442 0.02126 0.0
C1285 C 0.36385 0.16962 0.05853 0.0
C1286 C 0.39897 0.16392 0.02705 0.0
C1287 C 0.39941 0.15017 0.02283 0.0
C1288 C 0.38614 0.13672 0.01278 0.0
C1289 C 0.37227 0.13708 0.00795 0.0
C1290 C 0.37189 0.15088 0.01197 0.0
H1291 H 0.36007 0.1748 0.07533 0.0
H1292 H 0.35327 0.1612 0.04672 0.0
H1293 H 0.36904 0.16304 0.06831 0.0
H1294 H 0.40945 0.17432 0.03409 0.0
H1295 H 0.41022 0.15018 0.02679 0.0
H1296 H 0.86528 0.23712 0.02756 0.0
H1297 H 0.84004 0.21423 0.03879 0.0
H1298 H 0.82042 0.24406 0.05357 0.0
H1299 H 0.8456 0.26707 0.0421 0.0
H1300 H 0.81893 0.20573 0.0867 0.0
H1301 H 0.79483 0.21478 0.98757 0.0
H1302 H 0.81554 0.22443 0.99464 0.0
H1303 H 0.80364 0.23116 0.01113 0.0
C1304 C 0.85566 0.23884 0.03359 0.0
C1305 C 0.85733 0.25385 0.0336 0.0
C1306 C 0.84129 0.22577 0.0401 0.0
C1307 C 0.82839 0.22751 0.04665 0.0
C1308 C 0.83024 0.24253 0.04825 0.0
H1309 H 0.73083 0.15342 0.04022 0.0
H1310 H 0.75389 0.17838 0.05255 0.0
C1311 C 0.84462 0.25563 0.04174 0.0
C1312 C 0.81276 0.2135 0.0492 0.0
H1313 H 0.77813 0.1929 0.01454 0.0
C1314 C 0.80991 0.20297 0.07116 0.0
C1315 C 0.80112 0.20997 0.02875 0.0
C1316 C 0.80388 0.22058 0.00403 0.0
C1317 C 0.79569 0.18881 0.07296 0.0
C1318 C 0.78422 0.18511 0.05209 0.0
C1319 C 0.78691 0.19588 0.03066 0.0
C1320 C 0.77001 0.16955 0.05014 0.0
C1321 C 0.79314 0.17785 0.09693 0.0
C1322 C 0.77145 0.15631 0.04526 0.0
C1323 C 0.75834 0.14209 0.03815 0.0
C1324 C 0.74361 0.14092 0.03561 0.0
C1325 C 0.74205 0.15398 0.04197 0.0
C1326 C 0.75519 0.16823 0.04905 0.0
H1327 H 0.80053 0.18424 0.11522 0.0
H1328 H 0.78068 0.17151 0.10352 0.0
H1329 H 0.7964 0.16909 0.0902 0.0
H1330 H 0.78283 0.15717 0.04539 0.0
H1331 H 0.7599 0.13221 0.03342 0.0
H1332 H 0.86322 0.62467 0.03425 0.0
H1333 H 0.83793 0.62228 0.04492 0.0
H1334 H 0.81477 0.57313 0.02463 0.0
H1335 H 0.84014 0.57536 0.01428 0.0
H1336 H 0.81549 0.61206 1.00065 0.0
H1337 H 0.7917 0.57536 0.0962 0.0
H1338 H 0.81235 0.58574 0.08807 0.0
H1339 H 0.79932 0.56829 0.06922 0.0
C1340 C 0.85277 0.61329 0.03257 0.0
C1341 C 0.85357 0.60024 0.02311 0.0
C1342 C 0.83837 0.61193 0.03882 0.0
C1343 C 0.82456 0.59753 0.03568 0.0
C1344 C 0.82535 0.58427 0.02762 0.0
H1345 H 0.72825 0.57657 0.02497 0.0
H1346 H 0.75167 0.57433 0.03159 0.0
C1347 C 0.83982 0.5856 0.02154 0.0
C1348 C 0.80943 0.59708 0.03672 0.0
H1349 H 0.77521 0.58285 0.07294 0.0
C1350 C 0.8067 0.60573 0.01653 0.0
C1351 C 0.79794 0.58852 0.0571 0.0
C1352 C 0.80042 0.57899 0.07904 0.0
C1353 C 0.79281 0.60624 0.01629 0.0
C1354 C 0.78154 0.59822 0.03735 0.0
C1355 C 0.78404 0.58918 0.05716 0.0
C1356 C 0.76707 0.59909 0.0386 0.0
C1357 C 0.79026 0.61518 0.9932 0.0
C1358 C 0.76793 0.61364 0.04168 0.0
C1359 C 0.75468 0.615 0.0375 0.0
C1360 C 0.74033 0.60175 0.03073 0.0
C1361 C 0.7392 0.58697 0.03008 0.0
C1362 C 0.75253 0.58566 0.03389 0.0
H1363 H 0.79786 0.61691 0.97485 0.0
H1364 H 0.77788 0.60903 0.98614 0.0
H1365 H 0.79316 0.62691 1.00107 0.0
H1366 H 0.77903 0.62408 0.0459 0.0
H1367 H 0.75581 0.62649 0.0385 0.0
H1368 H 0.82245 0.74758 0.32704 0.0
H1369 H 0.84701 0.74867 0.31516 0.0
H1370 H 0.82211 0.70885 0.26043 0.0
H1371 H 0.79736 0.70697 0.27442 0.0
H1372 H 0.83948 0.70353 0.28864 0.0
H1373 H 0.87727 0.76416 0.25455 0.0
H1374 H 0.86998 0.76488 0.2884 0.0
H1375 H 0.85653 0.7562 0.25948 0.0
C1376 C 0.82231 0.73922 0.31218 0.0
C1377 C 0.80812 0.72713 0.30174 0.0
C1378 C 0.83639 0.73997 0.30504 0.0
C1379 C 0.83659 0.72907 0.28634 0.0
C1380 C 0.82235 0.71742 0.27487 0.0
H1381 H 0.93112 0.74084 0.26905 0.0
H1382 H 0.90682 0.74045 0.25575 0.0
C1383 C 0.80822 0.71632 0.28285 0.0
C1384 C 0.85124 0.72852 0.28193 0.0
H1385 H 0.89088 0.75178 0.27712 0.0
C1386 C 0.85064 0.71408 0.28535 0.0
C1387 C 0.8659 0.74209 0.27682 0.0
C1388 C 0.86738 0.75762 0.26926 0.0
C1389 C 0.86427 0.71303 0.28594 0.0
C1390 C 0.87901 0.7269 0.28469 0.0
C1391 C 0.87962 0.74117 0.27897 0.0
C1392 C 0.8937 0.72697 0.29179 0.0
C1393 C 0.86262 0.697 0.28828 0.0
C1394 C 0.89452 0.71983 0.31665 0.0
C1395 C 0.90811 0.71963 0.32369 0.0
C1396 C 0.9214 0.72715 0.30667 0.0
C1397 C 0.92092 0.73489 0.28238 0.0
C1398 C 0.90709 0.73467 0.27483 0.0
H1399 H 0.85191 0.6881 0.27731 0.0
H1400 H 0.87286 0.69673 0.27934 0.0
H1401 H 0.86137 0.69353 0.31062 0.0
H1402 H 0.88467 0.71448 0.33083 0.0
H1403 H 0.90833 0.7139 0.34289 0.0
H1404 H 0.29529 0.19774 0.31198 0.0
H1405 H 0.29242 0.17288 0.29656 0.0
H1406 H 0.24462 0.15695 0.27261 0.0
H1407 H 0.24733 0.18178 0.28849 0.0
H1408 H 0.24719 0.1372 0.30831 0.0
H1409 H 0.2899 0.15155 0.22305 0.0
H1410 H 0.29879 0.16393 0.25278 0.0
H1411 H 0.28338 0.16486 0.23423 0.0
C1412 C 0.28426 0.18908 0.30291 0.0
C1413 C 0.27149 0.19164 0.30169 0.0
C1414 C 0.28268 0.17492 0.29381 0.0
C1415 C 0.26837 0.16314 0.28304 0.0
C1416 C 0.2558 0.16594 0.28063 0.0
H1417 H 0.24545 0.06443 0.28534 0.0
H1418 H 0.24334 0.08711 0.27047 0.0
C1419 C 0.25736 0.18011 0.2898 0.0
C1420 C 0.266 0.14725 0.27844 0.0
H1421 H 0.2833 0.128 0.24974 0.0
C1422 C 0.25478 0.13503 0.29492 0.0
C1423 C 0.27591 0.14448 0.26093 0.0
C1424 C 0.28756 0.15689 0.24154 0.0
C1425 C 0.25407 0.12049 0.29621 0.0
C1426 C 0.2647 0.11806 0.2801 0.0
C1427 C 0.27521 0.12993 0.26214 0.0
C1428 C 0.26652 0.10422 0.28469 0.0
C1429 C 0.24278 0.10832 0.3164 0.0
C1430 C 0.28049 0.10634 0.29637 0.0
C1431 C 0.28176 0.09347 0.30465 0.0
C1432 C 0.26906 0.07823 0.30145 0.0
C1433 C 0.25535 0.07606 0.28837 0.0
C1434 C 0.25412 0.08898 0.27992 0.0
H1435 H 0.23722 0.11306 0.33057 0.0
H1436 H 0.23336 0.09845 0.30449 0.0
H1437 H 0.24883 0.10361 0.32937 0.0
H1438 H 0.2902 0.118 0.3002 0.0
H1439 H 0.29253 0.09552 0.31445 0.0
H1440 H 0.79506 0.09354 0.29552 0.0
H1441 H 0.82022 0.11729 0.2885 0.0
H1442 H 0.84331 0.08996 0.28704 0.0
H1443 H 0.81808 0.06602 0.29381 0.0
H1444 H 0.84427 0.12529 0.32938 0.0
H1445 H 0.86418 0.12208 0.2219 0.0
H1446 H 0.84385 0.11115 0.23218 0.0
H1447 H 0.85723 0.10494 0.24353 0.0
C1448 C 0.80543 0.09252 0.29312 0.0
C1449 C 0.80463 0.07795 0.29546 0.0
C1450 C 0.81978 0.1061 0.28906 0.0
C1451 C 0.83357 0.10535 0.28716 0.0
C1452 C 0.83275 0.09074 0.28804 0.0
H1453 H 0.93049 0.18046 0.30086 0.0
H1454 H 0.907 0.15503 0.29291 0.0
C1455 C 0.81835 0.0771 0.29204 0.0
C1456 C 0.84883 0.11999 0.28795 0.0
H1457 H 0.88172 0.14345 0.25013 0.0
C1458 C 0.85245 0.12927 0.31203 0.0
C1459 C 0.85953 0.12497 0.26546 0.0
C1460 C 0.85605 0.11536 0.23917 0.0
C1461 C 0.86642 0.14356 0.31411 0.0
C1462 C 0.87689 0.14884 0.29127 0.0
C1463 C 0.87353 0.13939 0.26744 0.0
C1464 C 0.89126 0.16432 0.29201 0.0
C1465 C 0.86992 0.15287 0.34084 0.0
C1466 C 0.89016 0.17794 0.29321 0.0
C1467 C 0.90349 0.19245 0.29785 0.0
C1468 C 0.91815 0.19354 0.30127 0.0
C1469 C 0.91933 0.17997 0.29847 0.0
C1470 C 0.90596 0.16545 0.29385 0.0
H1471 H 0.86262 0.14556 0.35851 0.0
H1472 H 0.88244 0.15807 0.34666 0.0
H1473 H 0.86742 0.16256 0.33774 0.0
H1474 H 0.87889 0.17727 0.29153 0.0
H1475 H 0.90223 0.2027 0.29968 0.0
H1476 H 0.0402 0.46507 0.37318 0.0
H1477 H 0.0415 0.48991 0.38386 0.0
H1478 H 0.08961 0.50946 0.40945 0.0
H1479 H 0.0885 0.48468 0.39839 0.0
H1480 H 0.04964 0.50914 0.43249 0.0
H1481 H 0.09124 0.53767 0.34438 0.0
H1482 H 0.08034 0.51672 0.34884 0.0
H1483 H 0.09713 0.52846 0.37033 0.0
C1484 C 0.05101 0.47458 0.38141 0.0
C1485 C 0.06432 0.47301 0.38459 0.0
C1486 C 0.05171 0.48875 0.38757 0.0
C1487 C 0.06572 0.50156 0.39699 0.0
C1488 C 0.07877 0.49976 0.40174 0.0
H1489 H 0.08807 0.59909 0.39759 0.0
H1490 H 0.08934 0.57553 0.40883 0.0
C1491 C 0.0781 0.4856 0.3955 0.0
C1492 C 0.06689 0.51703 0.39973 0.0
H1493 H 0.08349 0.5531 0.36938 0.0
C1494 C 0.05715 0.51883 0.41894 0.0
C1495 C 0.07667 0.52959 0.3819 0.0
C1496 C 0.08687 0.52807 0.36002 0.0
C1497 C 0.05678 0.53286 0.42051 0.0
C1498 C 0.06624 0.54525 0.40214 0.0
C1499 C 0.07633 0.5436 0.38357 0.0
C1500 C 0.06492 0.5595 0.39984 0.0
C1501 C 0.04617 0.53422 0.44161 0.0
C1502 C 0.05072 0.55828 0.39148 0.0
C1503 C 0.04996 0.57168 0.38509 0.0
C1504 C 0.06343 0.58653 0.38668 0.0
C1505 C 0.0775 0.58779 0.39616 0.0
C1506 C 0.07824 0.57436 0.4026 0.0
H1507 H 0.04373 0.52616 0.45953 0.0
H1508 H 0.05134 0.54636 0.44967 0.0
H1509 H 0.03483 0.53101 0.43146 0.0
H1510 H 0.0404 0.54692 0.38856 0.0
H1511 H 0.03896 0.57033 0.37777 0.0
H1512 H 0.53331 0.57345 0.38223 0.0
H1513 H 0.50932 0.54904 0.39284 0.0
H1514 H 0.48326 0.57345 0.39245 0.0
H1515 H 0.50728 0.59804 0.38212 0.0
H1516 H 0.47401 0.54837 0.43526 0.0
H1517 H 0.4776 0.53066 0.32629 0.0
H1518 H 0.49476 0.53658 0.34734 0.0
H1519 H 0.48894 0.55062 0.33827 0.0
C1520 C 0.52253 0.57369 0.38493 0.0
C1521 C 0.52209 0.58758 0.38092 0.0
C1522 C 0.50887 0.55975 0.39102 0.0
C1523 C 0.49456 0.55948 0.39298 0.0
C1524 C 0.49423 0.57349 0.39095 0.0
H1525 H 0.39743 0.48846 0.38833 0.0
H1526 H 0.42217 0.51222 0.39858 0.0
C1527 C 0.50794 0.58749 0.38499 0.0
C1528 C 0.47982 0.54438 0.39384 0.0
H1529 H 0.45717 0.51208 0.35429 0.0
C1530 C 0.47029 0.54037 0.41766 0.0
C1531 C 0.47504 0.53411 0.37068 0.0
C1532 C 0.48452 0.53821 0.34407 0.0
C1533 C 0.45611 0.52612 0.41906 0.0
C1534 C 0.45138 0.51586 0.39589 0.0
C1535 C 0.46095 0.51992 0.37213 0.0
C1536 C 0.43625 0.5011 0.39493 0.0
C1537 C 0.4464 0.52209 0.4453 0.0
C1538 C 0.43598 0.48697 0.38976 0.0
C1539 C 0.42192 0.47345 0.38356 0.0
C1540 C 0.4079 0.47386 0.38239 0.0
C1541 C 0.40806 0.4878 0.38913 0.0
C1542 C 0.42217 0.50136 0.3952 0.0
H1543 H 0.45348 0.52895 0.46353 0.0
H1544 H 0.43687 0.52482 0.44217 0.0
H1545 H 0.44097 0.50943 0.45019 0.0
H1546 H 0.44676 0.48657 0.38935 0.0
H1547 H 0.42213 0.46284 0.37863 0.0
H1548 H 0.42867 0.95921 0.36145 0.0
H1549 H 0.45259 0.95833 0.37051 0.0
H1550 H 0.42508 0.91034 0.39752 0.0
H1551 H 0.40105 0.91098 0.38771 0.0
H1552 H 0.465 0.9519 0.41703 0.0
H1553 H 0.45072 0.90745 0.33371 0.0
H1554 H 0.44003 0.91772 0.33802 0.0
H1555 H 0.43621 0.90164 0.36065 0.0
C1556 C 0.42771 0.94852 0.36959 0.0
C1557 C 0.41302 0.9351 0.37354 0.0
C1558 C 0.44138 0.94804 0.37479 0.0
C1559 C 0.44057 0.93418 0.38414 0.0
C1560 C 0.42592 0.92104 0.38967 0.0
H1561 H 0.51497 0.91109 0.39324 0.0
H1562 H 0.4904 0.91089 0.40166 0.0
C1563 C 0.41223 0.92145 0.38419 0.0
C1564 C 0.45506 0.93333 0.3866 0.0
H1565 H 0.47394 0.9154 0.35903 0.0
C1566 C 0.46694 0.94386 0.40451 0.0
C1567 C 0.45755 0.92288 0.37008 0.0
C1568 C 0.44553 0.91187 0.34933 0.0
C1569 C 0.48133 0.94426 0.40624 0.0
C1570 C 0.48387 0.93395 0.38946 0.0
C1571 C 0.47187 0.92319 0.37204 0.0
C1572 C 0.49921 0.93476 0.38801 0.0
C1573 C 0.49371 0.95576 0.42587 0.0
C1574 C 0.51229 0.9483 0.37782 0.0
C1575 C 0.52631 0.94847 0.37306 0.0
C1576 C 0.52742 0.93502 0.37812 0.0
C1577 C 0.51445 0.92162 0.38915 0.0
C1578 C 0.50043 0.92149 0.39398 0.0
H1579 H 0.48852 0.95941 0.44283 0.0
H1580 H 0.50049 0.95072 0.43541 0.0
H1581 H 0.50195 0.96639 0.41399 0.0
H1582 H 0.51147 0.95854 0.37247 0.0
H1583 H 0.53609 0.95894 0.36442 0.0
H1584 H 0.5957 0.08902 0.62521 0.0
H1585 H 0.57148 0.08959 0.6169 0.0
H1586 H 0.54563 0.03918 0.61362 0.0
H1587 H 0.56968 0.03846 0.62216 0.0
H1588 H 0.54576 0.07495 0.57441 0.0
H1589 H 0.52886 0.0526 0.68299 0.0
H1590 H 0.54865 0.06093 0.67024 0.0
H1591 H 0.5342 0.04132 0.66077 0.0
C1592 C 0.58491 0.07808 0.62212 0.0
C1593 C 0.58451 0.06369 0.62479 0.0
C1594 C 0.57112 0.07843 0.61733 0.0
C1595 C 0.55682 0.06442 0.6151 0.0
C1596 C 0.55658 0.0501 0.61563 0.0
H1597 H 0.46023 0.03975 0.62951 0.0
H1598 H 0.48469 0.03985 0.62103 0.0
C1599 C 0.57032 0.04972 0.62051 0.0
C1600 C 0.54199 0.06466 0.61538 0.0
H1601 H 0.51012 0.055 0.65617 0.0
C1602 C 0.53793 0.07061 0.59221 0.0
C1603 C 0.53195 0.0591 0.63881 0.0
C1604 C 0.53613 0.05324 0.66475 0.0
C1605 C 0.52376 0.07076 0.59163 0.0
C1606 C 0.51365 0.06503 0.61498 0.0
C1607 C 0.51785 0.05925 0.6382 0.0
C1608 C 0.49865 0.06497 0.61622 0.0
C1609 C 0.51959 0.07676 0.56591 0.0
C1610 C 0.49839 0.07907 0.61594 0.0
C1611 C 0.48441 0.07904 0.62067 0.0
C1612 C 0.47053 0.06493 0.62609 0.0
C1613 C 0.47075 0.05081 0.6255 0.0
C1614 C 0.4847 0.05084 0.62062 0.0
H1615 H 0.52648 0.07691 0.54742 0.0
H1616 H 0.50695 0.06949 0.56098 0.0
H1617 H 0.52217 0.08891 0.56977 0.0
H1618 H 0.5091 0.09013 0.61317 0.0
H1619 H 0.48459 0.09011 0.62114 0.0
H1620 H 0.90601 0.39369 0.62177 0.0
H1621 H 0.90338 0.41655 0.61134 0.0
H1622 H 0.95361 0.4455 0.60835 0.0
H1623 H 0.95636 0.42274 0.6184 0.0
H1624 H 0.9154 0.44166 0.64787 0.0
H1625 H 0.93972 0.46149 0.54164 0.0
H1626 H 0.93345 0.44196 0.55424 0.0
H1627 H 0.95225 0.458 0.5641 0.0
C1628 C 0.91649 0.40485 0.61819 0.0
C1629 C 0.9314 0.40647 0.62111 0.0
C1630 C 0.91495 0.41788 0.61223 0.0
C1631 C 0.92829 0.43266 0.60886 0.0
C1632 C 0.94317 0.43414 0.61033 0.0
H1633 H 0.95261 0.52797 0.63002 0.0
H1634 H 0.95184 0.50318 0.62079 0.0
C1635 C 0.94471 0.42114 0.6163 0.0
C1636 C 0.9268 0.44682 0.60773 0.0
H1637 H 0.93775 0.48032 0.5707 0.0
C1638 C 0.92002 0.44998 0.63077 0.0
C1639 C 0.933 0.45769 0.58551 0.0
C1640 C 0.93989 0.45457 0.55984 0.0
C1641 C 0.91976 0.46401 0.63264 0.0
C1642 C 0.92627 0.47502 0.61073 0.0
C1643 C 0.93276 0.47177 0.5874 0.0
C1644 C 0.92697 0.49026 0.61258 0.0
C1645 C 0.91309 0.46728 0.6585 0.0
C1646 C 0.91328 0.49115 0.61028 0.0
C1647 C 0.91367 0.50525 0.6155 0.0
C1648 C 0.92775 0.51863 0.62319 0.0
C1649 C 0.94158 0.51784 0.62424 0.0
C1650 C 0.94118 0.50373 0.6189 0.0
H1651 H 0.91041 0.45844 0.67516 0.0
H1652 H 0.92143 0.47904 0.66696 0.0
H1653 H 0.90212 0.4672 0.653 0.0
H1654 H 0.90223 0.48082 0.60532 0.0
H1655 H 0.90284 0.50552 0.61446 0.0
H1656 H 0.56932 0.53248 0.62688 0.0
H1657 H 0.54663 0.50714 0.61543 0.0
H1658 H 0.57697 0.4882 0.59962 0.0
H1659 H 0.59975 0.51347 0.61157 0.0
H1660 H 0.5378 0.48697 0.56827 0.0
H1661 H 0.54841 0.46077 0.66309 0.0
H1662 H 0.55834 0.48161 0.65724 0.0
H1663 H 0.56426 0.46964 0.63852 0.0
C1664 C 0.57119 0.52299 0.62063 0.0
C1665 C 0.58628 0.52489 0.6205 0.0
C1666 C 0.55822 0.50853 0.61402 0.0
C1667 C 0.56013 0.49576 0.60715 0.0
C1668 C 0.57526 0.49786 0.60537 0.0
H1669 H 0.48489 0.39827 0.6119 0.0
H1670 H 0.51003 0.4211 0.59967 0.0
C1671 C 0.58824 0.51231 0.61212 0.0
C1672 C 0.54618 0.48006 0.60406 0.0
H1673 H 0.52598 0.44475 0.63685 0.0
C1674 C 0.53527 0.47765 0.58303 0.0
C1675 C 0.54296 0.46794 0.62335 0.0
C1676 C 0.55402 0.47007 0.64698 0.0
C1677 C 0.521 0.46354 0.58122 0.0
C1678 C 0.51751 0.45169 0.60123 0.0
C1679 C 0.52872 0.45385 0.62147 0.0
C1680 C 0.5018 0.43765 0.60359 0.0
C1681 C 0.50971 0.46153 0.55818 0.0
C1682 C 0.48879 0.43937 0.60936 0.0
C1683 C 0.47444 0.42637 0.61632 0.0
C1684 C 0.4729 0.41145 0.61792 0.0
C1685 C 0.48574 0.40963 0.61088 0.0
C1686 C 0.50009 0.42265 0.60386 0.0
H1687 H 0.51592 0.46892 0.53978 0.0
H1688 H 0.50283 0.44914 0.55136 0.0
H1689 H 0.50145 0.46524 0.56594 0.0
H1690 H 0.48993 0.45087 0.60994 0.0
H1691 H 0.46477 0.42815 0.62171 0.0
H1692 H 0.69877 0.90491 0.70521 0.0
H1693 H 0.70011 0.88153 0.71699 0.0
H1694 H 0.75045 0.90799 0.71122 0.0
H1695 H 0.7492 0.9316 0.70006 0.0
H1696 H 0.71247 0.87042 0.67763 0.0
H1697 H 0.74342 0.87968 0.77902 0.0
H1698 H 0.73467 0.89117 0.76837 0.0
H1699 H 0.75311 0.89517 0.75394 0.0
C1700 C 0.71015 0.90584 0.70711 0.0
C1701 C 0.72387 0.91999 0.70139 0.0
C1702 C 0.7109 0.8925 0.71396 0.0
C1703 C 0.72537 0.89304 0.71505 0.0
C1704 C 0.73918 0.90738 0.71099 0.0
H1705 H 0.74932 0.81997 0.70022 0.0
H1706 H 0.7502 0.84488 0.70885 0.0
C1707 C 0.73844 0.92083 0.70442 0.0
C1708 C 0.7257 0.87822 0.71588 0.0
H1709 H 0.73898 0.85739 0.75237 0.0
C1710 C 0.71815 0.86752 0.69413 0.0
C1711 C 0.73338 0.87464 0.73714 0.0
C1712 C 0.74152 0.8857 0.7611 0.0
C1713 C 0.71803 0.8533 0.69297 0.0
C1714 C 0.7254 0.84952 0.7145 0.0
C1715 C 0.73319 0.86029 0.7361 0.0
C1716 C 0.7252 0.83444 0.71427 0.0
C1717 C 0.71028 0.84259 0.66833 0.0
C1718 C 0.71091 0.82034 0.71555 0.0
C1719 C 0.71033 0.80616 0.71029 0.0
C1720 C 0.72408 0.80585 0.70405 0.0
C1721 C 0.73853 0.81988 0.70483 0.0
C1722 C 0.73907 0.8341 0.70985 0.0
H1723 H 0.70868 0.84887 0.65047 0.0
H1724 H 0.71725 0.83725 0.66109 0.0
H1725 H 0.69856 0.83302 0.67469 0.0
H1726 H 0.70011 0.82039 0.71938 0.0
H1727 H 0.69907 0.79551 0.7102 0.0
H1728 H 0.09088 0.79464 0.70763 0.0
H1729 H 0.11464 0.81926 0.7182 0.0
H1730 H 0.08779 0.84283 0.72235 0.0
H1731 H 0.06386 0.81811 0.71236 0.0
H1732 H 0.12386 0.84366 0.68052 0.0
H1733 H 0.11886 0.86275 0.78751 0.0
H1734 H 0.1072 0.84271 0.77587 0.0
H1735 H 0.10229 0.85716 0.76502 0.0
C1736 C 0.08997 0.80498 0.71147 0.0
C1737 C 0.07558 0.80453 0.70886 0.0
C1738 C 0.10354 0.81902 0.71759 0.0
C1739 C 0.10296 0.83284 0.72113 0.0
C1740 C 0.08845 0.83225 0.72019 0.0
H1741 H 0.17668 0.93001 0.70678 0.0
H1742 H 0.15161 0.90625 0.71598 0.0
C1743 C 0.07482 0.81814 0.71429 0.0
C1744 C 0.11772 0.84804 0.72138 0.0
H1745 H 0.14011 0.88114 0.75959 0.0
C1746 C 0.12745 0.85179 0.69791 0.0
C1747 C 0.12219 0.85874 0.74387 0.0
C1748 C 0.11217 0.85515 0.76963 0.0
C1749 C 0.14162 0.8659 0.69631 0.0
C1750 C 0.14633 0.87645 0.71905 0.0
C1751 C 0.13648 0.87291 0.74235 0.0
C1752 C 0.16157 0.8911 0.71855 0.0
C1753 C 0.15137 0.86951 0.67011 0.0
C1754 C 0.17544 0.89046 0.71796 0.0
C1755 C 0.1897 0.90391 0.71246 0.0
C1756 C 0.19031 0.91826 0.7077 0.0
C1757 C 0.17654 0.91909 0.71023 0.0
C1758 C 0.16223 0.90556 0.71557 0.0
H1759 H 0.14445 0.86204 0.65227 0.0
H1760 H 0.15637 0.88197 0.66404 0.0
H1761 H 0.1612 0.86734 0.67407 0.0
H1762 H 0.17513 0.87939 0.72051 0.0
H1763 H 0.20014 0.90295 0.71098 0.0
H1764 H 0.17965 0.24541 0.70608 0.0
H1765 H 0.15486 0.24483 0.71409 0.0
H1766 H 0.1794 0.29524 0.71821 0.0
H1767 H 0.20416 0.29595 0.70945 0.0
H1768 H 0.143 0.25656 0.75534 0.0
H1769 H 0.1495 0.28516 0.65231 0.0
H1770 H 0.16178 0.27737 0.66305 0.0
H1771 H 0.16559 0.29614 0.67564 0.0
C1772 C 0.17978 0.25636 0.70904 0.0
C1773 C 0.19377 0.27075 0.70668 0.0
C1774 C 0.16563 0.256 0.71369 0.0
C1775 C 0.16531 0.27 0.71619 0.0
C1776 C 0.1794 0.28433 0.71574 0.0
H1777 H 0.09331 0.29455 0.71097 0.0
H1778 H 0.1171 0.29382 0.72189 0.0
C1779 C 0.19352 0.28471 0.71077 0.0
C1780 C 0.15019 0.2697 0.71691 0.0
H1781 H 0.12833 0.28164 0.68042 0.0
C1782 C 0.13975 0.26204 0.73902 0.0
C1783 C 0.14594 0.27666 0.69532 0.0
C1784 C 0.1562 0.28416 0.67009 0.0
C1785 C 0.12526 0.26152 0.74041 0.0
C1786 C 0.12123 0.26878 0.7191 0.0
C1787 C 0.1316 0.27627 0.69693 0.0
C1788 C 0.10621 0.26865 0.71864 0.0
C1789 C 0.11449 0.25345 0.76474 0.0
C1790 C 0.09212 0.25466 0.71403 0.0
C1791 C 0.07846 0.25503 0.70782 0.0
C1792 C 0.07882 0.26943 0.7058 0.0
C1793 C 0.09273 0.28331 0.71208 0.0
C1794 C 0.10631 0.28291 0.71845 0.0
H1795 H 0.12068 0.25147 0.7823 0.0
H1796 H 0.10923 0.26041 0.77245 0.0
H1797 H 0.10483 0.24191 0.75777 0.0
H1798 H 0.09188 0.24356 0.71362 0.0
H1799 H 0.06787 0.24417 0.70305 0.0
H1800 H 0.09046 0.41991 0.30952 0.0
H1801 H 0.09932 0.41583 0.26388 0.0
H1802 H 0.10009 0.45708 0.23189 0.0
H1803 H 0.09112 0.4611 0.27702 0.0
H1804 H 0.08053 0.41137 0.21515 0.0
H1805 H 0.14112 0.46054 0.20114 0.0
H1806 H 0.13216 0.45402 0.23512 0.0
H1807 H 0.12762 0.4663 0.214 0.0
C1808 C 0.0929 0.4283 0.29295 0.0
C1809 C 0.08997 0.44074 0.29669 0.0
C1810 C 0.09794 0.42596 0.26692 0.0
C1811 C 0.10046 0.43623 0.24459 0.0
C1812 C 0.09845 0.44916 0.24892 0.0
H1813 H 0.08667 0.4174 0.0669 0.0
H1814 H 0.08705 0.42646 0.115 0.0
C1815 C 0.09322 0.45137 0.27468 0.0
C1816 C 0.10302 0.4324 0.21583 0.0
H1817 H 0.12754 0.44691 0.15962 0.0
C1818 C 0.09088 0.41904 0.20308 0.0
C1819 C 0.11655 0.44242 0.20022 0.0
C1820 C 0.13019 0.45656 0.21333 0.0
C1821 C 0.09165 0.4157 0.17481 0.0
C1822 C 0.10482 0.42612 0.15877 0.0
C1823 C 0.11728 0.43916 0.1718 0.0
C1824 C 0.10607 0.42309 0.12877 0.0
C1825 C 0.07836 0.401 0.16233 0.0
C1826 C 0.11711 0.41896 0.12035 0.0
C1827 C 0.11696 0.4139 0.09306 0.0
C1828 C 0.10578 0.41288 0.07353 0.0
C1829 C 0.0954 0.41804 0.08143 0.0
C1830 C 0.09554 0.4231 0.10892 0.0
H1831 H 0.07071 0.39271 0.17869 0.0
H1832 H 0.07109 0.40414 0.1491 0.0
H1833 H 0.0829 0.39498 0.14889 0.0
H1834 H 0.12536 0.41893 0.13527 0.0
H1835 H 0.12522 0.41012 0.08761 0.0
H1836 H 0.53056 0.62035 0.27017 0.0
H1837 H 0.53291 0.63004 0.22243 0.0
H1838 H 0.57508 0.67243 0.24508 0.0
H1839 H 0.57256 0.66292 0.29339 0.0
H1840 H 0.5544 0.67597 0.20452 0.0
H1841 H 0.56834 0.62951 0.17644 0.0
H1842 H 0.55016 0.62294 0.19453 0.0
H1843 H 0.56831 0.63544 0.21212 0.0
C1844 C 0.54015 0.6319 0.26515 0.0
C1845 C 0.55154 0.6408 0.28528 0.0
C1846 C 0.54147 0.63739 0.23788 0.0
C1847 C 0.55433 0.65176 0.23017 0.0
C1848 C 0.5651 0.66126 0.2507 0.0
H1849 H 0.60456 0.68806 0.07968 0.0
H1850 H 0.59392 0.67653 0.12541 0.0
C1851 C 0.56366 0.65583 0.27823 0.0
C1852 C 0.55746 0.65594 0.20025 0.0
H1853 H 0.56762 0.64498 0.13965 0.0
C1854 C 0.55718 0.66916 0.19023 0.0
C1855 C 0.56116 0.64703 0.18181 0.0
C1856 C 0.56215 0.63301 0.1917 0.0
C1857 C 0.56065 0.67379 0.16214 0.0
C1858 C 0.56442 0.6649 0.1438 0.0
C1859 C 0.56451 0.6516 0.15377 0.0
C1860 C 0.57014 0.67027 0.11514 0.0
C1861 C 0.56082 0.68842 0.15239 0.0
C1862 C 0.56013 0.67 0.09398 0.0
C1863 C 0.56617 0.67632 0.06759 0.0
C1864 C 0.58225 0.68302 0.06239 0.0
C1865 C 0.59208 0.68275 0.08325 0.0
C1866 C 0.58605 0.67627 0.10934 0.0
H1867 H 0.55932 0.69493 0.16995 0.0
H1868 H 0.57199 0.69629 0.14152 0.0
H1869 H 0.55117 0.68522 0.1372 0.0
H1870 H 0.54779 0.66531 0.09812 0.0
H1871 H 0.55848 0.67671 0.05184 0.0
H1872 H 0.28478 0.86929 0.08238 0.0
H1873 H 0.29607 0.87183 0.12884 0.0
H1874 H 0.33879 0.91216 0.10137 0.0
H1875 H 0.32756 0.90965 0.05438 0.0
H1876 H 0.33609 0.88211 0.14214 0.0
H1877 H 0.3081 0.91689 0.17387 0.0
H1878 H 0.29811 0.90055 0.15026 0.0
H1879 H 0.31523 0.91793 0.1387 0.0
C1880 C 0.29668 0.87857 0.08605 0.0
C1881 C 0.30526 0.88939 0.06489 0.0
C1882 C 0.3031 0.87995 0.11255 0.0
C1883 C 0.31817 0.8922 0.11838 0.0
C1884 C 0.32712 0.9026 0.09703 0.0
H1885 H 0.37664 0.93238 0.25842 0.0
H1886 H 0.36367 0.92362 0.21335 0.0
C1887 C 0.32072 0.90115 0.0703 0.0
C1888 C 0.32387 0.8949 0.14745 0.0
H1889 H 0.32264 0.9125 0.20808 0.0
C1890 C 0.33314 0.88869 0.15663 0.0
C1891 C 0.31976 0.90333 0.16621 0.0
C1892 C 0.30976 0.91012 0.15698 0.0
C1893 C 0.33874 0.89104 0.18422 0.0
C1894 C 0.33492 0.89977 0.20278 0.0
C1895 C 0.32536 0.90566 0.19375 0.0
C1896 C 0.34239 0.90458 0.23044 0.0
C1897 C 0.3489 0.88444 0.19344 0.0
C1898 C 0.33452 0.89683 0.25498 0.0
C1899 C 0.34191 0.90188 0.28103 0.0
C1900 C 0.35723 0.91465 0.2826 0.0
C1901 C 0.36492 0.92236 0.25788 0.0
C1902 C 0.35754 0.91741 0.2321 0.0
H1903 H 0.34947 0.87657 0.17746 0.0
H1904 H 0.36094 0.89417 0.19751 0.0
H1905 H 0.34436 0.87785 0.21329 0.0
H1906 H 0.32275 0.88692 0.25392 0.0
H1907 H 0.33575 0.89577 0.2998 0.0
H1908 H 0.4071 0.08041 0.93282 0.0
H1909 H 0.41727 0.08113 0.88573 0.0
H1910 H 0.43266 0.13042 0.87999 0.0
H1911 H 0.42173 0.12943 0.92628 0.0
H1912 H 0.41558 0.1163 0.83751 0.0
H1913 H 0.45836 0.09609 0.84855 0.0
H1914 H 0.44001 0.08231 0.8639 0.0
H1915 H 0.45107 0.10174 0.87831 0.0
C1916 C 0.41315 0.09147 0.9218 0.0
C1917 C 0.41377 0.10489 0.933 0.0
C1918 C 0.41899 0.09191 0.89492 0.0
C1919 C 0.42584 0.10587 0.8793 0.0
C1920 C 0.42741 0.11952 0.89154 0.0
H1921 H 0.46124 0.10218 0.71474 0.0
H1922 H 0.45974 0.11158 0.76129 0.0
C1923 C 0.42128 0.11898 0.91802 0.0
C1924 C 0.42948 0.10587 0.84917 0.0
H1925 H 0.44725 0.09361 0.80269 0.0
C1926 C 0.42274 0.11158 0.82993 0.0
C1927 C 0.43899 0.09995 0.83919 0.0
C1928 C 0.44765 0.09485 0.85863 0.0
C1929 C 0.42482 0.11106 0.80102 0.0
C1930 C 0.43337 0.10407 0.79096 0.0
C1931 C 0.44055 0.09885 0.81025 0.0
C1932 C 0.43455 0.10136 0.76072 0.0
C1933 C 0.4179 0.11814 0.78175 0.0
C1934 C 0.421 0.09315 0.74424 0.0
C1935 C 0.42196 0.08832 0.71716 0.0
C1936 C 0.43639 0.09116 0.70661 0.0
C1937 C 0.45 0.10001 0.72245 0.0
C1938 C 0.44912 0.10524 0.74912 0.0
H1939 H 0.41723 0.12785 0.7922 0.0
H1940 H 0.42484 0.1227 0.76228 0.0
H1941 H 0.40579 0.10908 0.77614 0.0
H1942 H 0.40957 0.08961 0.75286 0.0
H1943 H 0.41129 0.08128 0.70552 0.0
H1944 H 0.9123 0.33034 0.95314 0.0
H1945 H 0.91604 0.34229 0.90657 0.0
H1946 H 0.87402 0.30167 0.8775 0.0
H1947 H 0.87038 0.28957 0.92354 0.0
H1948 H 0.91583 0.32172 0.85461 0.0
H1949 H 0.87427 0.34449 0.85095 0.0
H1950 H 0.88331 0.3435 0.88322 0.0
H1951 H 0.86817 0.32591 0.86763 0.0
C1952 C 0.90371 0.32413 0.93697 0.0
C1953 C 0.89114 0.30899 0.94179 0.0
C1954 C 0.90586 0.33093 0.91046 0.0
C1955 C 0.89526 0.32282 0.8888 0.0
C1956 C 0.88225 0.30811 0.89406 0.0
H1957 H 0.90465 0.33323 0.70721 0.0
H1958 H 0.89679 0.32237 0.7546 0.0
C1959 C 0.88023 0.30122 0.92031 0.0
C1960 C 0.8986 0.32881 0.85991 0.0
H1961 H 0.88768 0.34578 0.8092 0.0
C1962 C 0.90972 0.32701 0.84463 0.0
C1963 C 0.89044 0.33552 0.84711 0.0
C1964 C 0.87839 0.33758 0.86295 0.0
C1965 C 0.91295 0.33181 0.81666 0.0
C1966 C 0.90485 0.33859 0.80385 0.0
C1967 C 0.89374 0.34043 0.81915 0.0
C1968 C 0.90868 0.3449 0.77519 0.0
C1969 C 0.92517 0.32989 0.80104 0.0
C1970 C 0.91773 0.36108 0.77134 0.0
C1971 C 0.92221 0.36726 0.74454 0.0
C1972 C 0.91767 0.35736 0.72107 0.0
C1973 C 0.90834 0.34112 0.72492 0.0
C1974 C 0.90386 0.33492 0.75188 0.0
H1975 H 0.93118 0.32539 0.81465 0.0
H1976 H 0.91958 0.3216 0.78343 0.0
H1977 H 0.93405 0.34128 0.79203 0.0
H1978 H 0.92159 0.36892 0.78915 0.0
H1979 H 0.92942 0.37983 0.74231 0.0
H1980 H 0.6659 0.58477 0.94774 0.0
H1981 H 0.65486 0.57696 0.90041 0.0
H1982 H 0.69531 0.57418 0.87489 0.0
H1983 H 0.70647 0.5822 0.92165 0.0
H1984 H 0.67494 0.59626 0.84945 0.0
H1985 H 0.65416 0.53234 0.8466 0.0
H1986 H 0.65516 0.54245 0.87874 0.0
H1987 H 0.67276 0.54509 0.86286 0.0
C1988 C 0.67225 0.58218 0.93217 0.0
C1989 C 0.68706 0.58417 0.93823 0.0
C1990 C 0.66598 0.57779 0.9052 0.0
C1991 C 0.6743 0.57498 0.88433 0.0
C1992 C 0.6887 0.5762 0.8908 0.0
H1993 H 0.66198 0.56816 0.70142 0.0
H1994 H 0.67399 0.5723 0.7482 0.0
C1995 C 0.69506 0.58082 0.91748 0.0
C1996 C 0.66874 0.57219 0.8551 0.0
H1997 H 0.65303 0.54416 0.80434 0.0
C1998 C 0.67017 0.58489 0.83953 0.0
C1999 C 0.66273 0.55738 0.8423 0.0
C2000 C 0.661 0.54345 0.85838 0.0
C2001 C 0.66557 0.58311 0.8114 0.0
C2002 C 0.65932 0.56825 0.79873 0.0
C2003 C 0.65802 0.55557 0.81418 0.0
C2004 C 0.65242 0.56536 0.77049 0.0
C2005 C 0.66705 0.59697 0.79543 0.0
C2006 C 0.63643 0.56004 0.76786 0.0
C2007 C 0.62961 0.55762 0.74152 0.0
C2008 C 0.63866 0.56053 0.71719 0.0
C2009 C 0.65474 0.56583 0.71981 0.0
C2010 C 0.66158 0.56817 0.7464 0.0
H2011 H 0.67295 0.60795 0.80785 0.0
H2012 H 0.67378 0.59863 0.77589 0.0
H2013 H 0.65524 0.59472 0.78936 0.0
H2014 H 0.62924 0.55792 0.78628 0.0
H2015 H 0.61722 0.55366 0.74028 0.0
H2016 H 0.89426 0.56802 0.94433 0.0
H2017 H 0.8957 0.55854 0.89725 0.0
H2018 H 0.89537 0.59829 0.86047 0.0
H2019 H 0.89377 0.60763 0.90682 0.0
H2020 H 0.87199 0.5535 0.84969 0.0
H2021 H 0.93437 0.59627 0.82688 0.0
H2022 H 0.92693 0.59084 0.86207 0.0
H2023 H 0.92322 0.60419 0.84253 0.0
C2024 C 0.89468 0.57476 0.92614 0.0
C2025 C 0.89385 0.5885 0.9291 0.0
C2026 C 0.89541 0.56933 0.89939 0.0
C2027 C 0.89565 0.57778 0.87557 0.0
C2028 C 0.89524 0.59167 0.87865 0.0
H2029 H 0.90296 0.57329 0.69607 0.0
H2030 H 0.89672 0.57892 0.74286 0.0
C2031 C 0.8943 0.59695 0.90513 0.0
C2032 C 0.89593 0.57214 0.84715 0.0
H2033 H 0.91854 0.58172 0.78857 0.0
C2034 C 0.88219 0.55951 0.83634 0.0
C2035 C 0.90921 0.58019 0.82987 0.0
C2036 C 0.92434 0.59357 0.84087 0.0
C2037 C 0.88134 0.55489 0.80832 0.0
C2038 C 0.89458 0.5631 0.79097 0.0
C2039 C 0.90834 0.57563 0.8019 0.0
C2040 C 0.89498 0.55822 0.76197 0.0
C2041 C 0.86627 0.5415 0.79723 0.0
C2042 C 0.89559 0.54453 0.75726 0.0
C2043 C 0.89939 0.54147 0.73086 0.0
C2044 C 0.90255 0.55199 0.70869 0.0
C2045 C 0.90063 0.56503 0.71281 0.0
C2046 C 0.89708 0.56825 0.73947 0.0
H2047 H 0.85628 0.53846 0.81153 0.0
H2048 H 0.86351 0.54444 0.77635 0.0
H2049 H 0.86759 0.53103 0.79478 0.0
H2050 H 0.89415 0.53675 0.77442 0.0
H2051 H 0.9007 0.53127 0.72816 0.0
H2052 H 0.417 0.33552 0.9486 0.0
H2053 H 0.42703 0.34831 0.90308 0.0
H2054 H 0.4348 0.31069 0.87835 0.0
H2055 H 0.42467 0.29787 0.92331 0.0
H2056 H 0.45824 0.34247 0.85854 0.0
H2057 H 0.39584 0.32349 0.83642 0.0
H2058 H 0.40413 0.33518 0.86731 0.0
H2059 H 0.40174 0.31593 0.86546 0.0
C2060 C 0.4214 0.33034 0.93381 0.0
C2061 C 0.41998 0.31571 0.93918 0.0
C2062 C 0.42702 0.33756 0.90783 0.0
C2063 C 0.43142 0.33027 0.88735 0.0
C2064 C 0.43143 0.31645 0.89387 0.0
H2065 H 0.42519 0.33767 0.7068 0.0
H2066 H 0.42392 0.32739 0.75415 0.0
C2067 C 0.42564 0.30916 0.91952 0.0
C2068 C 0.43383 0.33562 0.85801 0.0
H2069 H 0.414 0.33693 0.80056 0.0
C2070 C 0.44863 0.34138 0.84584 0.0
C2071 C 0.4211 0.33363 0.84138 0.0
C2072 C 0.40475 0.32661 0.85311 0.0
C2073 C 0.45113 0.34562 0.81747 0.0
C2074 C 0.43851 0.34416 0.80111 0.0
C2075 C 0.42365 0.33805 0.81319 0.0
C2076 C 0.44059 0.34982 0.77193 0.0
C2077 C 0.46719 0.35142 0.80519 0.0
C2078 C 0.4504 0.36576 0.76633 0.0
C2079 C 0.45108 0.37161 0.73955 0.0
C2080 C 0.44191 0.36166 0.7178 0.0
C2081 C 0.43241 0.34559 0.72315 0.0
C2082 C 0.43168 0.33973 0.75013 0.0
H2083 H 0.47405 0.34742 0.81763 0.0
H2084 H 0.46642 0.34739 0.78327 0.0
H2085 H 0.47368 0.36441 0.80525 0.0
H2086 H 0.45711 0.3738 0.78294 0.0
H2087 H 0.45854 0.38405 0.73608 0.0
H2088 H 0.66796 0.09128 0.9517 0.0
H2089 H 0.6561 0.08823 0.90522 0.0
H2090 H 0.70086 0.12246 0.87175 0.0
H2091 H 0.71277 0.12552 0.91773 0.0
H2092 H 0.65715 0.11278 0.86534 0.0
H2093 H 0.68658 0.08073 0.82674 0.0
H2094 H 0.68388 0.08282 0.86351 0.0
H2095 H 0.69879 0.09901 0.84423 0.0
C2096 C 0.6752 0.09828 0.9345 0.0
C2097 C 0.69132 0.1085 0.93825 0.0
C2098 C 0.66843 0.09654 0.90803 0.0
C2099 C 0.6777 0.10498 0.88512 0.0
C2100 C 0.69359 0.11571 0.88915 0.0
H2101 H 0.66067 0.09568 0.70525 0.0
H2102 H 0.67284 0.10445 0.75143 0.0
C2103 C 0.70035 0.11743 0.91545 0.0
C2104 C 0.67106 0.10204 0.85662 0.0
H2105 H 0.67226 0.0863 0.79382 0.0
C2106 C 0.6604 0.10697 0.84965 0.0
C2107 C 0.6755 0.09462 0.83626 0.0
C2108 C 0.68673 0.08887 0.84296 0.0
C2109 C 0.6541 0.10475 0.82259 0.0
C2110 C 0.6583 0.09703 0.80232 0.0
C2111 C 0.6691 0.09227 0.80933 0.0
C2112 C 0.65097 0.09291 0.77425 0.0
C2113 C 0.64321 0.11093 0.8159 0.0
C2114 C 0.6347 0.08352 0.77179 0.0
C2115 C 0.62776 0.07864 0.74558 0.0
C2116 C 0.63698 0.08284 0.72125 0.0
C2117 C 0.65328 0.09232 0.72363 0.0
C2118 C 0.66023 0.09731 0.74996 0.0
H2119 H 0.64536 0.12081 0.82986 0.0
H2120 H 0.64453 0.11495 0.79386 0.0
H2121 H 0.63095 0.10148 0.81913 0.0
H2122 H 0.62735 0.07958 0.79022 0.0
H2123 H 0.61517 0.07124 0.74449 0.0
H2124 H 0.56737 0.8672 0.07511 0.0
H2125 H 0.55616 0.86605 0.12124 0.0
H2126 H 0.57765 0.9164 0.12136 0.0
H2127 H 0.58827 0.91741 0.07462 0.0
H2128 H 0.57408 0.87778 0.16501 0.0
H2129 H 0.53665 0.90457 0.15752 0.0
H2130 H 0.54281 0.89829 0.12702 0.0
H2131 H 0.55553 0.91711 0.14258 0.0
C2132 C 0.56904 0.87792 0.08453 0.0
C2133 C 0.57842 0.89237 0.07138 0.0
C2134 C 0.56277 0.87728 0.11093 0.0
C2135 C 0.56601 0.89112 0.12477 0.0
C2136 C 0.57466 0.90553 0.11086 0.0
H2137 H 0.58292 0.91378 0.29802 0.0
H2138 H 0.58328 0.90455 0.2507 0.0
C2139 C 0.58073 0.90613 0.08416 0.0
C2140 C 0.56233 0.89065 0.15492 0.0
H2141 H 0.54718 0.9048 0.20313 0.0
C2142 C 0.56794 0.88344 0.17332 0.0
C2143 C 0.55415 0.89783 0.16578 0.0
C2144 C 0.5468 0.90473 0.14712 0.0
C2145 C 0.56614 0.88377 0.20236 0.0
C2146 C 0.55897 0.89196 0.21332 0.0
C2147 C 0.55281 0.89861 0.19483 0.0
C2148 C 0.55836 0.89458 0.24373 0.0
C2149 C 0.57195 0.87534 0.22083 0.0
C2150 C 0.54426 0.89182 0.25583 0.0
C2151 C 0.54418 0.89751 0.28246 0.0
C2152 C 0.55813 0.90574 0.29769 0.0
C2153 C 0.572 0.90728 0.28678 0.0
C2154 C 0.57217 0.90193 0.25974 0.0
H2155 H 0.57157 0.86526 0.2097 0.0
H2156 H 0.58431 0.88349 0.22659 0.0
H2157 H 0.56493 0.87098 0.24028 0.0
H2158 H 0.53346 0.88614 0.24398 0.0
H2159 H 0.53336 0.89629 0.2905 0.0
H2160 H 0.09328 0.62364 0.28238 0.0
H2161 H 0.10226 0.63421 0.23561 0.0
H2162 H 0.09206 0.67118 0.2529 0.0
H2163 H 0.08438 0.66134 0.30053 0.0
H2164 H 0.08499 0.63413 0.19731 0.0
H2165 H 0.13081 0.69581 0.21047 0.0
H2166 H 0.12387 0.68234 0.23948 0.0
H2167 H 0.11353 0.69228 0.2288 0.0
C2168 C 0.09348 0.63433 0.27643 0.0
C2169 C 0.08806 0.64163 0.29489 0.0
C2170 C 0.09852 0.64033 0.24967 0.0
C2171 C 0.09787 0.65353 0.24056 0.0
C2172 C 0.09309 0.66124 0.2595 0.0
H2173 H 0.0771 0.66862 0.07274 0.0
H2174 H 0.0768 0.65784 0.11898 0.0
C2175 C 0.08853 0.65552 0.28669 0.0
C2176 C 0.10035 0.65796 0.21052 0.0
H2177 H 0.11722 0.68911 0.16614 0.0
C2178 C 0.0923 0.64614 0.19052 0.0
C2179 C 0.11002 0.67355 0.20139 0.0
C2180 C 0.12017 0.68665 0.22121 0.0
C2181 C 0.09328 0.64951 0.16188 0.0
C2182 C 0.10194 0.66526 0.153 0.0
C2183 C 0.11039 0.67703 0.17287 0.0
C2184 C 0.10206 0.67 0.12348 0.0
C2185 C 0.08514 0.63609 0.14159 0.0
C2186 C 0.11628 0.68046 0.11055 0.0
C2187 C 0.11638 0.68696 0.08461 0.0
C2188 C 0.1023 0.68282 0.07083 0.0
C2189 C 0.08809 0.67168 0.0828 0.0
C2190 C 0.08796 0.66549 0.10918 0.0
H2191 H 0.08439 0.62525 0.15009 0.0
H2192 H 0.073 0.63365 0.13815 0.0
H2193 H 0.09127 0.63877 0.12115 0.0
H2194 H 0.12731 0.68413 0.12109 0.0
H2195 H 0.12745 0.69569 0.07577 0.0
H2196 H 0.37099 0.46378 0.27283 0.0
H2197 H 0.35918 0.45964 0.22658 0.0
H2198 H 0.31726 0.41953 0.25754 0.0
H2199 H 0.32893 0.42393 0.30433 0.0
H2200 H 0.35162 0.43326 0.19747 0.0
H2201 H 0.29951 0.44035 0.20761 0.0
H2202 H 0.31482 0.44752 0.23364 0.0
H2203 H 0.30012 0.42714 0.23271 0.0
C2204 C 0.35909 0.45431 0.26999 0.0
C2205 C 0.35093 0.44406 0.29208 0.0
C2206 C 0.35237 0.45196 0.24353 0.0
C2207 C 0.33736 0.43929 0.23858 0.0
C2208 C 0.32878 0.42954 0.261 0.0
H2209 H 0.28195 0.39051 0.09641 0.0
H2210 H 0.29342 0.40069 0.1421 0.0
C2211 C 0.33547 0.43201 0.2877 0.0
C2212 C 0.33163 0.43525 0.20944 0.0
H2213 H 0.30141 0.42815 0.1659 0.0
C2214 C 0.34071 0.4323 0.19045 0.0
C2215 C 0.31741 0.43397 0.20042 0.0
C2216 C 0.30746 0.43755 0.21958 0.0
C2217 C 0.33571 0.42757 0.1629 0.0
C2218 C 0.32135 0.42605 0.15395 0.0
C2219 C 0.31242 0.42932 0.1728 0.0
C2220 C 0.3148 0.42004 0.12578 0.0
C2221 C 0.34558 0.42365 0.14412 0.0
C2222 C 0.32304 0.4275 0.10128 0.0
C2223 C 0.3166 0.4215 0.07495 0.0
C2224 C 0.30168 0.40818 0.07284 0.0
C2225 C 0.29346 0.40085 0.09738 0.0
C2226 C 0.29997 0.40667 0.12354 0.0
H2227 H 0.35402 0.42164 0.15623 0.0
H2228 H 0.33815 0.41306 0.13141 0.0
H2229 H 0.35238 0.43358 0.12966 0.0
H2230 H 0.33436 0.43805 0.1025 0.0
H2231 H 0.32309 0.42744 0.05632 0.0
H2232 H 0.74618 0.75066 0.62508 0.0
H2233 H 0.75424 0.74676 0.57857 0.0
H2234 H 0.74981 0.78528 0.54657 0.0
H2235 H 0.74133 0.78885 0.59247 0.0
H2236 H 0.73447 0.76015 0.51461 0.0
H2237 H 0.79409 0.77002 0.53409 0.0
H2238 H 0.77964 0.75543 0.55663 0.0
H2239 H 0.78389 0.77538 0.55914 0.0
C2240 C 0.74722 0.75844 0.6082 0.0
C2241 C 0.74307 0.77 0.61232 0.0
C2242 C 0.75189 0.75627 0.58167 0.0
C2243 C 0.75278 0.76584 0.55909 0.0
C2244 C 0.7492 0.77775 0.5636 0.0
H2245 H 0.76635 0.76033 0.37779 0.0
H2246 H 0.76248 0.76917 0.42369 0.0
C2247 C 0.74436 0.77978 0.58988 0.0
C2248 C 0.75611 0.7627 0.53025 0.0
H2249 H 0.78234 0.75823 0.49051 0.0
C2250 C 0.74501 0.75988 0.50927 0.0
C2251 C 0.76989 0.7624 0.52327 0.0
C2252 C 0.78263 0.76613 0.54441 0.0
C2253 C 0.74704 0.75623 0.48177 0.0
C2254 C 0.76064 0.75556 0.47496 0.0
C2255 C 0.77189 0.75871 0.49579 0.0
C2256 C 0.76298 0.75057 0.44694 0.0
C2257 C 0.73431 0.75255 0.4606 0.0
C2258 C 0.76488 0.73744 0.44484 0.0
C2259 C 0.76738 0.73261 0.41892 0.0
C2260 C 0.76791 0.74073 0.39443 0.0
C2261 C 0.76585 0.7538 0.39635 0.0
C2262 C 0.76358 0.7588 0.42251 0.0
H2263 H 0.72318 0.75014 0.47071 0.0
H2264 H 0.73806 0.76274 0.44649 0.0
H2265 H 0.73204 0.74228 0.44768 0.0
H2266 H 0.76441 0.73087 0.46334 0.0
H2267 H 0.76879 0.72241 0.41808 0.0
H2268 H 0.24245 0.00135 0.38656 0.0
H2269 H 0.23513 0.99099 0.43406 0.0
H2270 H 0.24251 0.03564 0.46257 0.0
H2271 H 0.2499 0.04614 0.41515 0.0
H2272 H 0.25723 0.00587 0.48046 0.0
H2273 H 0.19965 0.00205 0.49822 0.0
H2274 H 0.20695 0.00193 0.46362 0.0
H2275 H 0.2149 0.01986 0.48299 0.0
C2276 C 0.24216 0.00887 0.40277 0.0
C2277 C 0.24681 0.02459 0.3971 0.0
C2278 C 0.23803 0.00295 0.42991 0.0
C2279 C 0.23825 0.01255 0.45176 0.0
C2280 C 0.24212 0.028 0.44593 0.0
H2281 H 0.24428 0.99616 0.63075 0.0
H2282 H 0.24756 0.00918 0.58531 0.0
C2283 C 0.24637 0.03398 0.41883 0.0
C2284 C 0.23592 0.00685 0.48098 0.0
H2285 H 0.2111 0.99645 0.53678 0.0
C2286 C 0.24718 0.00386 0.49284 0.0
C2287 C 0.2228 0.00428 0.49697 0.0
C2288 C 0.21028 0.00708 0.48489 0.0
C2289 C 0.24563 0.99827 0.5203 0.0
C2290 C 0.2325 0.99565 0.53629 0.0
C2291 C 0.22124 -0.00133 0.5245 0.0
C2292 C 0.22969 0.98848 0.5644 0.0
C2293 C 0.25782 0.99481 0.53188 0.0
C2294 C 0.21842 0.97267 0.56765 0.0
C2295 C 0.21665 0.96523 0.5933 0.0
C2296 C 0.22601 0.9735 0.61633 0.0
C2297 C 0.2369 0.98952 0.61339 0.0
C2298 C 0.23879 0.99694 0.5875 0.0
H2299 H 0.26643 0.99594 0.51577 0.0
H2300 H 0.26423 0.00308 0.54916 0.0
H2301 H 0.25213 0.98278 0.54063 0.0
H2302 H 0.21131 0.96596 0.55005 0.0
H2303 H 0.20809 0.9529 0.59496 0.0
H2304 H 0.00228 0.24843 0.62491 0.0
H2305 H 0.99032 0.242 0.57813 0.0
H2306 H 0.03209 0.24458 0.54461 0.0
H2307 H 0.04418 0.25125 0.5909 0.0
H2308 H 0.008 0.26431 0.5283 0.0
H2309 H 0.9923 0.20206 0.51424 0.0
H2310 H 0.99303 0.21037 0.54829 0.0
H2311 H 0.01082 0.21523 0.53033 0.0
C2312 C 0.00878 0.24735 0.60766 0.0
C2313 C 0.0242 0.25046 0.61149 0.0
C2314 C 0.00196 0.24372 0.581 0.0
C2315 C 0.01035 0.2428 0.55805 0.0
C2316 C 0.02542 0.24515 0.56212 0.0
H2317 H 0.99432 0.23677 0.37663 0.0
H2318 H 0.00665 0.24016 0.42294 0.0
C2319 C 0.0323 0.24899 0.58857 0.0
C2320 C 0.00401 0.24078 0.52938 0.0
H2321 H 0.98932 0.21495 0.475 0.0
C2322 C 0.00387 0.25352 0.51664 0.0
C2323 C -0.00115 0.22674 0.51424 0.0
C2324 C -0.00137 0.21273 0.52736 0.0
C2325 C -0.00135 0.25257 0.48903 0.0
C2326 C 0.99334 0.23849 0.47398 0.0
C2327 C 0.99357 0.22577 0.48661 0.0
C2328 C 0.98621 0.2364 0.44601 0.0
C2329 C -0.00123 0.26655 0.47601 0.0
C2330 C 0.97073 0.23316 0.44392 0.0
C2331 C 0.9637 0.23112 0.41781 0.0
C2332 C 0.97204 0.23238 0.39319 0.0
C2333 C 0.98764 0.23576 0.39525 0.0
C2334 C 0.99466 0.23765 0.42159 0.0
H2335 H 0.0052 0.27725 0.48903 0.0
H2336 H 0.00422 0.26888 0.45495 0.0
H2337 H 0.98655 0.26404 0.47334 0.0
H2338 H 0.96407 0.23219 0.46257 0.0
H2339 H 0.9517 0.22863 0.41696 0.0
H2340 H 0.24544 0.24 0.39382 0.0
H2341 H 0.23841 0.24174 0.44228 0.0
H2342 H 0.2461 0.20387 0.4654 0.0
H2343 H 0.25313 0.20201 0.41705 0.0
H2344 H 0.21844 0.20373 0.49086 0.0
H2345 H 0.27469 0.25963 0.50227 0.0
H2346 H 0.26277 0.25861 0.473 0.0
H2347 H 0.27108 0.24605 0.47408 0.0
C2348 C 0.24532 0.23183 0.40907 0.0
C2349 C 0.24999 0.22097 0.40168 0.0
C2350 C 0.24138 0.23289 0.43675 0.0
C2351 C 0.24199 0.22309 0.45739 0.0
C2352 C 0.24565 0.21158 0.44975 0.0
H2353 H 0.24907 0.24567 0.6362 0.0
H2354 H 0.25218 0.23508 0.59154 0.0
C2355 C 0.24967 0.21055 0.42213 0.0
C2356 C 0.23999 0.22564 0.48722 0.0
H2357 H 0.25686 0.25217 0.54004 0.0
C2358 C 0.22686 0.21426 0.50172 0.0
C2359 C 0.25117 0.23926 0.50139 0.0
C2360 C 0.26581 0.25156 0.48704 0.0
C2361 C 0.2243 0.21646 0.52985 0.0
C2362 C 0.23516 0.2304 0.54364 0.0
C2363 C 0.24858 0.24148 0.52941 0.0
C2364 C 0.23214 0.23451 0.57182 0.0
C2365 C 0.20996 0.20397 0.54454 0.0
C2366 C 0.21982 0.23754 0.57548 0.0
C2367 C 0.21818 0.24373 0.6006 0.0
C2368 C 0.22877 0.24694 0.62268 0.0
C2369 C 0.2407 0.24322 0.61957 0.0
C2370 C 0.24249 0.23721 0.59412 0.0
H2371 H 0.2052 0.19245 0.53396 0.0
H2372 H 0.2126 0.20274 0.56666 0.0
H2373 H 0.20075 0.2073 0.54438 0.0
H2374 H 0.21188 0.2358 0.55842 0.0
H2375 H 0.20885 0.24645 0.60245 0.0
H2376 H 0.75181 0.99576 0.61405 0.0
H2377 H 0.75933 0.00558 0.56626 0.0
H2378 H 0.74731 0.95937 0.53822 0.0
H2379 H 0.73991 0.94945 0.5859 0.0
H2380 H 0.77537 0.98456 0.51356 0.0
H2381 H 0.7242 0.99367 0.50726 0.0
H2382 H 0.73715 0.00319 0.53618 0.0
H2383 H 0.72628 0.98219 0.53455 0.0
C2384 C 0.75105 0.98774 0.59783 0.0
C2385 C 0.74509 0.97179 0.6037 0.0
C2386 C 0.75525 0.99335 0.57052 0.0
C2387 C 0.75356 0.98311 0.54869 0.0
C2388 C 0.74859 0.96742 0.55478 0.0
H2389 H 0.74878 -0.00048 0.36984 0.0
H2390 H 0.74492 0.98631 0.41522 0.0
C2391 C 0.74436 0.96179 0.58204 0.0
C2392 C 0.75597 0.98851 0.51929 0.0
H2393 H 0.74176 0.00267 0.46894 0.0
C2394 C 0.76801 0.98847 0.50373 0.0
C2395 C 0.74615 0.99335 0.50646 0.0
C2396 C 0.73262 0.993 0.52183 0.0
C2397 C 0.77082 0.99367 0.47586 0.0
C2398 C 0.7613 -0.00106 0.46339 0.0
C2399 C 0.749 -0.00143 0.47867 0.0
C2400 C 0.76457 0.00599 0.4352 0.0
C2401 C 0.78397 0.99364 0.45989 0.0
C2402 C 0.77691 0.02131 0.43158 0.0
C2403 C 0.77896 0.02891 0.40601 0.0
C2404 C 0.7688 0.02126 0.38352 0.0
C2405 C 0.75682 0.00565 0.38679 0.0
C2406 C 0.7546 0.99812 0.41263 0.0
H2407 H 0.7887 0.98699 0.47097 0.0
H2408 H 0.77988 0.98847 0.4388 0.0
H2409 H 0.79358 0.00587 0.45702 0.0
H2410 H 0.78461 0.0276 0.44887 0.0
H2411 H 0.78834 0.04092 0.40405 0.0
H2412 H -0.00121 0.7591 0.62292 0.0
H2413 H 0.98912 0.75841 0.57544 0.0
H2414 H 0.0351 0.79443 0.55011 0.0
H2415 H 0.04487 0.79528 0.59745 0.0
H2416 H 0.0083 0.79659 0.52669 0.0
H2417 H 0.00444 0.73865 0.51387 0.0
H2418 H 0.99432 0.74059 0.5435 0.0
H2419 H 0.01529 0.75187 0.54198 0.0
C2420 C 0.00676 0.76712 0.60742 0.0
C2421 C 0.02264 0.77711 0.61382 0.0
C2422 C 0.00123 0.76667 0.58032 0.0
C2423 C 0.01147 0.77622 0.55929 0.0
C2424 C 0.02705 0.78695 0.56608 0.0
H2425 H 0.00163 0.75771 0.38139 0.0
H2426 H 0.01276 0.76763 0.42776 0.0
C2427 C 0.0326 0.78738 0.59312 0.0
C2428 C 0.00643 0.77393 0.52974 0.0
H2429 H 0.99597 0.74784 0.47601 0.0
C2430 C 0.00557 0.78594 0.51555 0.0
C2431 C 0.00315 0.76012 0.51526 0.0
C2432 C 0.00444 0.74708 0.52927 0.0
C2433 C 0.00118 0.78433 0.48724 0.0
C2434 C -0.00235 0.7704 0.47298 0.0
C2435 C -0.00126 0.75852 0.48708 0.0
C2436 C 0.99216 0.76746 0.44368 0.0
C2437 C 0.00045 0.7975 0.47265 0.0
C2438 C 0.97706 0.76446 0.43722 0.0
C2439 C 0.97064 0.75868 0.4109 0.0
C2440 C 0.97924 0.75586 0.39061 0.0
C2441 C 0.99476 0.75986 0.39653 0.0
C2442 C 0.00111 0.76548 0.423 0.0
H2443 H 0.00628 0.80852 0.48495 0.0
H2444 H 0.00604 0.79965 0.45172 0.0
H2445 H 0.98803 0.79419 0.46952 0.0
H2446 H 0.96991 0.76573 0.45304 0.0
H2447 H 0.95866 0.75572 0.40689 0.0
H2448 H 0.08119 0.35777 0.94443 0.0
H2449 H 0.06997 0.33953 0.90567 0.0
H2450 H 0.06054 0.37217 0.86206 0.0
H2451 H 0.07171 0.3907 0.90134 0.0
H2452 H 0.03822 0.3265 0.88434 0.0
H2453 H 0.08439 0.35916 0.80466 0.0
H2454 H 0.08776 0.36327 0.84161 0.0
H2455 H 0.07642 0.36973 0.82236 0.0
C2456 C 0.07689 0.36126 0.92658 0.0
C2457 C 0.07737 0.3758 0.92615 0.0
C2458 C 0.07038 0.3507 0.90444 0.0
C2459 C 0.06436 0.35443 0.881 0.0
C2460 C 0.06515 0.36906 0.87996 0.0
H2461 H 0.00956 0.28749 0.74755 0.0
H2462 H 0.01684 0.30577 0.78698 0.0
C2463 C 0.07153 0.37964 0.90241 0.0
C2464 C 0.05713 0.34273 0.85808 0.0
H2465 H 0.06313 0.33487 0.79111 0.0
C2466 C 0.04355 0.32838 0.86383 0.0
C2467 C 0.06422 0.34513 0.83149 0.0
C2468 C 0.07906 0.36009 0.82451 0.0
C2469 C 0.03697 0.31634 0.84375 0.0
C2470 C 0.04415 0.31871 0.81727 0.0
C2471 C 0.05761 0.33311 0.81142 0.0
C2472 C 0.03853 0.30614 0.7958 0.0
C2473 C 0.02272 0.30096 0.85123 0.0
C2474 C 0.04808 0.29996 0.78818 0.0
C2475 C 0.04394 0.28949 0.76587 0.0
C2476 C 0.03018 0.28502 0.75042 0.0
C2477 C 0.02017 0.29057 0.75906 0.0
C2478 C 0.02434 0.30107 0.78154 0.0
H2479 H 0.01984 0.30021 0.87383 0.0
H2480 H 0.01253 0.29958 0.83904 0.0
H2481 H 0.02457 0.29107 0.84568 0.0
H2482 H 0.05903 0.30364 0.79899 0.0
H2483 H 0.05192 0.28544 0.76 0.0
H2484 H 0.61977 0.71766 0.91788 0.0
H2485 H 0.6383 0.72532 0.87934 0.0
H2486 H 0.63572 0.68041 0.88254 0.0
H2487 H 0.61722 0.67264 0.92157 0.0
H2488 H 0.66647 0.70585 0.8838 0.0
H2489 H 0.63285 0.71254 0.79734 0.0
H2490 H 0.63313 0.72283 0.82846 0.0
H2491 H 0.62365 0.70182 0.82887 0.0
C2492 C 0.62283 0.70923 0.91005 0.0
C2493 C 0.61694 0.6945 0.92287 0.0
C2494 C 0.63344 0.71365 0.88791 0.0
C2495 C 0.63835 0.70342 0.87792 0.0
C2496 C 0.63206 0.68847 0.88989 0.0
H2497 H 0.70943 0.71996 0.7513 0.0
H2498 H 0.69073 0.70842 0.78987 0.0
C2499 C 0.62137 0.684 0.91205 0.0
C2500 C 0.65083 0.70883 0.85634 0.0
H2501 H 0.66052 0.72459 0.79086 0.0
C2502 C 0.66512 0.70975 0.86332 0.0
C2503 C 0.64906 0.71397 0.82968 0.0
C2504 C 0.6338 0.71262 0.82049 0.0
C2505 C 0.67786 0.71621 0.84469 0.0
C2506 C 0.6762 0.72172 0.81836 0.0
C2507 C 0.66181 0.72046 0.81116 0.0
C2508 C 0.6893 0.72924 0.79805 0.0
C2509 C 0.69319 0.71763 0.85363 0.0
C2510 C 0.69502 0.74488 0.79037 0.0
C2511 C 0.70573 0.75153 0.76849 0.0
C2512 C 0.71087 0.74262 0.75356 0.0
C2513 C 0.70585 0.72721 0.76244 0.0
C2514 C 0.69511 0.72056 0.78445 0.0
H2515 H 0.69342 0.71543 0.87636 0.0
H2516 H 0.69505 0.70896 0.84198 0.0
H2517 H 0.70307 0.72946 0.84863 0.0
H2518 H 0.69073 0.75179 0.80065 0.0
H2519 H 0.70934 0.76343 0.76238 0.0
H2520 H 0.27911 0.90158 0.91849 0.0
H2521 H 0.27289 0.91328 0.87949 0.0
H2522 H 0.31543 0.95702 0.89356 0.0
H2523 H 0.32161 0.94544 0.93354 0.0
H2524 H 0.29007 0.96104 0.88834 0.0
H2525 H 0.28971 0.92396 0.80143 0.0
H2526 H 0.27742 0.91233 0.82957 0.0
H2527 H 0.29819 0.92432 0.83506 0.0
C2528 C 0.28736 0.91362 0.91311 0.0
C2529 C 0.30091 0.92254 0.92926 0.0
C2530 C 0.28379 0.92029 0.89059 0.0
C2531 C 0.29376 0.93599 0.88329 0.0
C2532 C 0.30758 0.94484 0.89872 0.0
H2533 H 0.27678 0.98951 0.75396 0.0
H2534 H 0.28874 0.98299 0.79278 0.0
C2535 C 0.31117 0.93817 0.92144 0.0
C2536 C 0.28905 0.94326 0.8608 0.0
H2537 H 0.27544 0.93759 0.79367 0.0
C2538 C 0.28713 0.95609 0.86748 0.0
C2539 C 0.28522 0.93683 0.83355 0.0
C2540 C 0.2879 0.9237 0.82439 0.0
C2541 C 0.28078 0.96214 0.84807 0.0
C2542 C 0.27631 0.95522 0.82132 0.0
C2543 C 0.27873 0.94277 0.81433 0.0
C2544 C 0.26853 0.96025 0.80047 0.0
C2545 C 0.27827 0.97546 0.85659 0.0
C2546 C 0.25309 0.94979 0.79238 0.0
C2547 C 0.24619 0.95349 0.77036 0.0
C2548 C 0.25465 0.96769 0.75569 0.0
C2549 C 0.26987 0.97852 0.76485 0.0
C2550 C 0.27676 0.97481 0.78702 0.0
H2551 H 0.28017 0.97798 0.87934 0.0
H2552 H 0.28657 0.98617 0.84499 0.0
H2553 H 0.26623 0.97275 0.85114 0.0
H2554 H 0.24652 0.93851 0.80254 0.0
H2555 H 0.23446 0.94484 0.76402 0.0
H2556 H 0.37392 0.05496 0.07218 0.0
H2557 H 0.35556 0.04595 0.11166 0.0
H2558 H 0.3613 0.09207 0.11957 0.0
H2559 H 0.37946 0.1011 0.08027 0.0
H2560 H 0.35665 0.05588 0.16796 0.0
H2561 H 0.31414 0.06387 0.10446 0.0
H2562 H 0.33103 0.06409 0.0894 0.0
H2563 H 0.33303 0.08119 0.10672 0.0
C2564 C 0.3716 0.06328 0.08283 0.0
C2565 C 0.37807 0.07872 0.07293 0.0
C2566 C 0.361 0.05808 0.10523 0.0
C2567 C 0.35673 0.06823 0.11801 0.0
C2568 C 0.36411 0.08393 0.10954 0.0
H2569 H 0.3079 0.06086 0.27124 0.0
H2570 H 0.32659 0.06676 0.23341 0.0
C2571 C 0.3746 0.0891 0.0872 0.0
C2572 C 0.34408 0.0624 0.13929 0.0
H2573 H 0.30866 0.05933 0.15314 0.0
C2574 C 0.3461 0.05651 0.16468 0.0
C2575 C 0.33016 0.06294 0.13476 0.0
C2576 C 0.32684 0.06821 0.10726 0.0
C2577 C 0.33486 0.05173 0.18608 0.0
C2578 C 0.32136 0.05312 0.18213 0.0
C2579 C 0.31907 0.05843 0.15631 0.0
C2580 C 0.30975 0.04964 0.2048 0.0
C2581 C 0.33755 0.04518 0.21267 0.0
C2582 C 0.29385 0.03854 0.20093 0.0
C2583 C 0.28302 0.03524 0.22252 0.0
C2584 C 0.28791 0.04305 0.24832 0.0
C2585 C 0.30375 0.0545 0.25175 0.0
C2586 C 0.31451 0.0578 0.2302 0.0
H2587 H 0.34549 0.04038 0.20913 0.0
H2588 H 0.34314 0.05468 0.22838 0.0
H2589 H 0.32637 0.03579 0.22146 0.0
H2590 H 0.28987 0.03223 0.18135 0.0
H2591 H 0.27091 0.02639 0.2192 0.0
H2592 H 0.9465 0.23548 0.2398 0.0
H2593 H 0.94026 0.24714 0.20047 0.0
H2594 H 0.98455 0.28959 0.20999 0.0
H2595 H 0.99097 0.27807 0.24965 0.0
H2596 H 0.93971 0.27664 0.21026 0.0
H2597 H 0.97871 0.28031 0.12281 0.0
H2598 H 0.97328 0.26611 0.15062 0.0
H2599 H 0.9871 0.2863 0.15719 0.0
C2600 C 0.95515 0.24716 0.23318 0.0
C2601 C 0.96922 0.25585 0.24812 0.0
C2602 C 0.95151 0.25381 0.21069 0.0
C2603 C 0.9619 0.26923 0.2024 0.0
C2604 C 0.97642 0.27762 0.21594 0.0
H2605 H 0.94641 0.32275 0.07138 0.0
H2606 H 0.95827 0.31606 0.1102 0.0
C2607 C 0.98008 0.27098 0.23857 0.0
C2608 C 0.95672 0.27694 0.18172 0.0
H2609 H 0.96168 0.29018 0.11443 0.0
C2610 C 0.94456 0.27968 0.18934 0.0
C2611 C 0.96324 0.28109 0.15465 0.0
C2612 C 0.97627 0.27829 0.14557 0.0
C2613 C 0.9385 0.28619 0.17042 0.0
C2614 C 0.94451 0.28971 0.14287 0.0
C2615 C 0.95705 0.28746 0.13553 0.0
C2616 C 0.93714 0.29459 0.12087 0.0
C2617 C 0.92573 0.28925 0.18022 0.0
C2618 C 0.9213 0.28486 0.11414 0.0
C2619 C 0.91448 0.2887 0.09224 0.0
C2620 C 0.92336 0.30232 0.07626 0.0
C2621 C 0.93915 0.3123 0.08347 0.0
C2622 C 0.94599 0.30842 0.1055 0.0
H2623 H 0.92627 0.29109 0.20321 0.0
H2624 H 0.9265 0.29966 0.16975 0.0
H2625 H 0.91418 0.27894 0.1753 0.0
H2626 H 0.9143 0.27396 0.12522 0.0
H2627 H 0.90233 0.28065 0.08722 0.0
H2628 H 0.763 0.70511 0.249 0.0
H2629 H 0.75172 0.68747 0.2097 0.0
H2630 H 0.71445 0.69824 0.205 0.0
H2631 H 0.72533 0.71555 0.24567 0.0
H2632 H 0.70281 0.66769 0.20195 0.0
H2633 H 0.75256 0.69502 0.12853 0.0
H2634 H 0.75849 0.6906 0.16104 0.0
H2635 H 0.75197 0.70473 0.16006 0.0
C2636 C 0.75257 0.70407 0.23939 0.0
C2637 C 0.74515 0.71191 0.2506 0.0
C2638 C 0.74615 0.69394 0.21668 0.0
C2639 C 0.73234 0.69164 0.20395 0.0
C2640 C 0.72514 0.69984 0.21439 0.0
H2641 H 0.70132 0.64233 0.04641 0.0
H2642 H 0.71039 0.66129 0.08475 0.0
C2643 C 0.73146 0.70985 0.23752 0.0
C2644 C 0.72505 0.68 0.1809 0.0
H2645 H 0.73324 0.66835 0.11901 0.0
C2646 C 0.70941 0.66794 0.18365 0.0
C2647 C 0.73358 0.68031 0.15685 0.0
C2648 C 0.75001 0.69346 0.15131 0.0
C2649 C 0.70219 0.6561 0.16334 0.0
C2650 C 0.71097 0.65603 0.13999 0.0
C2651 C 0.72653 0.66822 0.13708 0.0
C2652 C 0.70414 0.64404 0.11739 0.0
C2653 C 0.68515 0.64398 0.16681 0.0
C2654 C 0.69762 0.62792 0.12289 0.0
C2655 C 0.69233 0.61703 0.10084 0.0
C2656 C 0.69342 0.62215 0.07313 0.0
C2657 C 0.69983 0.63815 0.06775 0.0
C2658 C 0.70512 0.64897 0.08959 0.0
H2659 H 0.6791 0.64807 0.18124 0.0
H2660 H 0.67896 0.64099 0.14639 0.0
H2661 H 0.68422 0.63317 0.17577 0.0
H2662 H 0.69713 0.62382 0.14406 0.0
H2663 H 0.68784 0.60475 0.10532 0.0
H2664 H 0.96275 0.72301 0.21499 0.0
H2665 H 0.95489 0.70271 0.17892 0.0
H2666 H 0.94127 0.66756 0.24316 0.0
H2667 H 0.94841 0.68753 0.27897 0.0
H2668 H 0.96437 0.68252 0.16591 0.0
H2669 H 0.90226 0.64879 0.19773 0.0
H2670 H 0.91548 0.6679 0.21169 0.0
H2671 H 0.91509 0.65079 0.22596 0.0
C2672 C 0.95795 0.71093 0.22133 0.0
C2673 C 0.95597 0.70686 0.2498 0.0
C2674 C 0.95352 0.69934 0.20074 0.0
C2675 C 0.94714 0.68352 0.20828 0.0
C2676 C 0.94566 0.67957 0.23673 0.0
H2677 H 0.93642 0.61362 0.08041 0.0
H2678 H 0.94558 0.63038 0.12214 0.0
C2679 C 0.94982 0.69105 0.25722 0.0
C2680 C 0.94201 0.6711 0.18656 0.0
H2681 H 0.91093 0.63632 0.16581 0.0
C2682 C 0.95265 0.67245 0.16574 0.0
C2683 C 0.92668 0.658 0.1862 0.0
C2684 C 0.91418 0.65635 0.20641 0.0
C2685 C 0.94836 0.6612 0.14441 0.0
C2686 C 0.93314 0.64785 0.14454 0.0
C2687 C 0.92264 0.6464 0.16575 0.0
C2688 C 0.92711 0.6362 0.12128 0.0
C2689 C 0.95998 0.66415 0.1214 0.0
C2690 C 0.9131 0.63293 0.10809 0.0
C2691 C 0.90754 0.62293 0.08518 0.0
C2692 C 0.91598 0.61609 0.07422 0.0
C2693 C 0.92966 0.61873 0.08816 0.0
C2694 C 0.93505 0.62854 0.11176 0.0
H2695 H 0.96936 0.67662 0.1206 0.0
H2696 H 0.96562 0.65701 0.12527 0.0
H2697 H 0.95413 0.66088 0.10068 0.0
H2698 H 0.90664 0.63856 0.11492 0.0
H2699 H 0.89695 0.62126 0.07521 0.0
H2700 H 0.31046 0.25963 0.28046 0.0
H2701 H 0.32924 0.2726 0.2431 0.0
H2702 H 0.29257 0.24944 0.18187 0.0
H2703 H 0.2734 0.23663 0.21965 0.0
H2704 H 0.3378 0.2595 0.20391 0.0
H2705 H 0.31423 0.29414 0.15375 0.0
H2706 H 0.30759 0.28493 0.18744 0.0
H2707 H 0.30032 0.2736 0.15592 0.0
C2708 C 0.30629 0.2573 0.25907 0.0
C2709 C 0.29041 0.24701 0.25299 0.0
C2710 C 0.31709 0.26478 0.2377 0.0
C2711 C 0.31236 0.26213 0.20965 0.0
C2712 C 0.29647 0.25193 0.20339 0.0
H2713 H 0.37225 0.27468 0.07067 0.0
H2714 H 0.35492 0.26582 0.11067 0.0
C2715 C 0.28554 0.24452 0.22493 0.0
C2716 C 0.32437 0.26944 0.18731 0.0
H2717 H 0.33479 0.29299 0.12964 0.0
C2718 C 0.33716 0.26689 0.18777 0.0
C2719 C 0.32373 0.27934 0.16656 0.0
C2720 C 0.31082 0.28332 0.16596 0.0
C2721 C 0.34915 0.27368 0.16782 0.0
C2722 C 0.34814 0.28297 0.14625 0.0
C2723 C 0.33554 0.28583 0.14611 0.0
C2724 C 0.35945 0.28887 0.12265 0.0
C2725 C 0.36285 0.27092 0.1703 0.0
C2726 C 0.3677 0.30485 0.11562 0.0
C2727 C 0.37761 0.31005 0.09222 0.0
C2728 C 0.37934 0.2993 0.0754 0.0
C2729 C 0.37131 0.28338 0.08306 0.0
C2730 C 0.36141 0.27823 0.10616 0.0
H2731 H 0.36465 0.26854 0.19229 0.0
H2732 H 0.36047 0.26052 0.15769 0.0
H2733 H 0.37383 0.28112 0.16261 0.0
H2734 H 0.3663 0.31326 0.12802 0.0
H2735 H 0.38349 0.32235 0.08683 0.0
H2736 H 0.75901 0.05269 0.2401 0.0
H2737 H 0.7469 0.05859 0.20125 0.0
H2738 H 0.70723 0.01183 0.20493 0.0
H2739 H 0.71912 0.00588 0.2446 0.0
H2740 H 0.7375 0.04637 0.14977 0.0
H2741 H 0.68613 0.03799 0.21156 0.0
H2742 H 0.70294 0.03854 0.22764 0.0
H2743 H 0.68867 0.02121 0.20977 0.0
C2744 C 0.74778 0.04353 0.23257 0.0
C2745 C 0.74001 0.02882 0.24578 0.0
C2746 C 0.74084 0.04697 0.2103 0.0
C2747 C 0.72596 0.0358 0.20058 0.0
C2748 C 0.71852 0.02079 0.21257 0.0
H2749 H 0.67454 0.05079 0.06428 0.0
H2750 H 0.68115 0.03828 0.10216 0.0
C2751 C 0.72545 0.01734 0.23504 0.0
C2752 C 0.71838 0.0402 0.1782 0.0
H2753 H 0.68741 0.04574 0.16456 0.0
C2754 C 0.72649 0.04611 0.15298 0.0
C2755 C 0.70397 0.03986 0.18234 0.0
C2756 C 0.69495 0.03418 0.20935 0.0
C2757 C 0.72082 0.052 0.13211 0.0
C2758 C 0.70671 0.0521 0.13659 0.0
C2759 C 0.69824 0.04566 0.16128 0.0
C2760 C 0.7012 0.05974 0.11641 0.0
C2761 C 0.73012 0.0583 0.10552 0.0
C2762 C 0.70986 0.076 0.11278 0.0
C2763 C 0.70609 0.08318 0.09138 0.0
C2764 C 0.69354 0.07424 0.07312 0.0
C2765 C 0.6842 0.05805 0.07803 0.0
C2766 C 0.68802 0.05086 0.09956 0.0
H2767 H 0.73863 0.05416 0.10255 0.0
H2768 H 0.72225 0.05478 0.08705 0.0
H2769 H 0.73674 0.07127 0.10644 0.0
H2770 H 0.71994 0.08309 0.12585 0.0
H2771 H 0.71348 0.09567 0.08836 0.0
H2772 H 0.72304 0.96429 0.7853 0.0
H2773 H 0.70432 0.95656 0.82428 0.0
H2774 H 0.66617 0.93934 0.76536 0.0
H2775 H 0.68451 0.94645 0.72681 0.0
H2776 H 0.6826 0.96467 0.83922 0.0
H2777 H 0.65259 0.90155 0.81399 0.0
H2778 H 0.67085 0.91547 0.79797 0.0
H2779 H 0.65262 0.91295 0.78479 0.0
C2780 C 0.71065 0.9588 0.78078 0.0
C2781 C 0.70526 0.95576 0.75303 0.0
C2782 C 0.69998 0.95442 0.803 0.0
C2783 C 0.68379 0.94701 0.79775 0.0
C2784 C 0.67852 0.94457 0.77 0.0
H2785 H 0.61268 0.93489 0.92218 0.0
H2786 H 0.63015 0.94362 0.88144 0.0
C2787 C 0.68908 0.94872 0.74795 0.0
C2788 C 0.67226 0.94168 0.82099 0.0
H2789 H 0.6394 0.90968 0.84562 0.0
C2790 C 0.67321 0.95263 0.8408 0.0
C2791 C 0.6601 0.92592 0.82322 0.0
C2792 C 0.65906 0.91327 0.80403 0.0
C2793 C 0.66224 0.94827 0.86261 0.0
C2794 C 0.64967 0.93263 0.86409 0.0
C2795 C 0.64883 0.92172 0.8443 0.0
C2796 C 0.63806 0.92689 0.88729 0.0
C2797 C 0.66454 0.96036 0.88428 0.0
C2798 C 0.63592 0.914 0.90309 0.0
C2799 C 0.62567 0.90872 0.92569 0.0
C2800 C 0.61734 0.9163 0.93344 0.0
C2801 C 0.61894 0.92882 0.9169 0.0
C2802 C 0.62911 0.93397 0.89385 0.0
H2803 H 0.67674 0.97033 0.88436 0.0
H2804 H 0.65668 0.96508 0.87947 0.0
H2805 H 0.6617 0.95516 0.90554 0.0
H2806 H 0.64256 0.90823 0.89843 0.0
H2807 H 0.62478 0.899 0.93773 0.0
H2808 H 0.03609 0.76252 0.79324 0.0
H2809 H 0.04338 0.74996 0.83017 0.0
H2810 H 0.04835 0.72096 0.7682 0.0
H2811 H 0.04178 0.73379 0.73149 0.0
H2812 H 0.03136 0.72028 0.84849 0.0
H2813 H 0.09031 0.74011 0.80513 0.0
H2814 H 0.07797 0.74744 0.7925 0.0
H2815 H 0.07524 0.72899 0.78015 0.0
C2816 C 0.03876 0.75348 0.78763 0.0
C2817 C 0.03865 0.74935 0.7595 0.0
C2818 C 0.0429 0.74629 0.80867 0.0
C2819 C 0.04685 0.73481 0.80186 0.0
C2820 C 0.04592 0.73016 0.7739 0.0
H2821 H 0.0555 0.6743 0.92785 0.0
H2822 H 0.04655 0.68335 0.88786 0.0
C2823 C 0.04208 0.73748 0.75294 0.0
C2824 C 0.0521 0.72771 0.82373 0.0
H2825 H 0.08162 0.72056 0.84041 0.0
C2826 C 0.04238 0.7204 0.84683 0.0
C2827 C 0.06658 0.72803 0.82174 0.0
C2828 C 0.07819 0.73671 0.7987 0.0
C2829 C 0.0467 0.71333 0.86791 0.0
C2830 C 0.06091 0.71312 0.86532 0.0
C2831 C 0.07061 0.72046 0.8422 0.0
C2832 C 0.06673 0.70671 0.88752 0.0
C2833 C 0.03624 0.70666 0.89315 0.0
C2834 C 0.08149 0.71642 0.89938 0.0
C2835 C 0.08679 0.71117 0.92159 0.0
C2836 C 0.07742 0.69607 0.93277 0.0
C2837 C 0.063 0.68599 0.91985 0.0
C2838 C 0.05776 0.69124 0.89727 0.0
H2839 H 0.02812 0.71135 0.89529 0.0
H2840 H 0.02906 0.69377 0.89095 0.0
H2841 H 0.04323 0.7093 0.91265 0.0
H2842 H 0.08873 0.72834 0.89213 0.0
H2843 H 0.09802 0.71928 0.93076 0.0
H2844 H 0.27778 0.28492 0.76261 0.0
H2845 H 0.28805 0.30287 0.80254 0.0
H2846 H 0.24593 0.30587 0.80435 0.0
H2847 H 0.23549 0.28782 0.76517 0.0
H2848 H 0.29415 0.33329 0.80284 0.0
H2849 H 0.25144 0.29996 0.8861 0.0
H2850 H 0.25285 0.29083 0.85437 0.0
H2851 H 0.24207 0.30113 0.85479 0.0
C2852 C 0.27052 0.28906 0.772 0.0
C2853 C 0.25578 0.28487 0.76062 0.0
C2854 C 0.27647 0.29942 0.79471 0.0
C2855 C 0.26773 0.30565 0.80663 0.0
C2856 C 0.25279 0.30102 0.79595 0.0
H2857 H 0.27789 0.37726 0.92018 0.0
H2858 H 0.27121 0.35827 0.88259 0.0
C2859 C 0.24686 0.29071 0.77336 0.0
C2860 C 0.27456 0.31791 0.8287 0.0
H2861 H 0.2671 0.32772 0.89308 0.0
C2862 C 0.28837 0.332 0.82275 0.0
C2863 C 0.267 0.31624 0.85467 0.0
C2864 C 0.25261 0.30116 0.86299 0.0
C2865 C 0.29444 0.34467 0.84156 0.0
C2866 C 0.28658 0.34314 0.86707 0.0
C2867 C 0.27303 0.32892 0.87336 0.0
C2868 C 0.29191 0.35623 0.88737 0.0
C2869 C 0.30887 0.35978 0.8336 0.0
C2870 C 0.30605 0.3618 0.902 0.0
C2871 C 0.30997 0.37274 0.92362 0.0
C2872 C 0.29977 0.37827 0.93104 0.0
C2873 C 0.28606 0.37331 0.91515 0.0
C2874 C 0.28215 0.36236 0.89369 0.0
H2875 H 0.3118 0.36008 0.8111 0.0
H2876 H 0.30727 0.36993 0.83822 0.0
H2877 H 0.31895 0.36114 0.84611 0.0
H2878 H 0.31369 0.35711 0.89765 0.0
H2879 H 0.32052 0.37612 0.93555 0.0
H2880 H 0.04737 0.38485 0.42424 0.0
H2881 H 0.02619 0.37078 0.45808 0.0
H2882 H 0.02171 0.41177 0.4683 0.0
H2883 H 0.04283 0.42596 0.43488 0.0
H2884 H 0.0213 0.38029 0.51763 0.0
H2885 H 0.97814 0.37421 0.43689 0.0
H2886 H -0.0023 0.37841 0.42832 0.0
H2887 H 0.9945 0.39364 0.44144 0.0
C2888 C 0.04217 0.39101 0.43419 0.0
C2889 C 0.04675 0.40652 0.42657 0.0
C2890 C 0.03 0.38292 0.45341 0.0
C2891 C 0.02223 0.39017 0.46522 0.0
C2892 C 0.02744 0.40591 0.45908 0.0
H2893 H 0.94647 0.37597 0.56682 0.0
H2894 H 0.96571 0.38192 0.53013 0.0
C2895 C 0.03958 0.41402 0.44002 0.0
C2896 C 0.00809 0.38121 0.48271 0.0
H2897 H 0.96882 0.36795 0.48363 0.0
C2898 C 0.00977 0.37734 0.51019 0.0
C2899 C 0.99309 0.37742 0.47279 0.0
C2900 C 0.99064 0.381 0.44317 0.0
C2901 C 0.99693 0.37051 0.52858 0.0
C2902 C 0.98196 0.36712 0.5189 0.0
C2903 C 0.98024 0.37047 0.49102 0.0
C2904 C 0.96838 0.36178 0.53812 0.0
C2905 C -0.00028 0.36783 0.5586 0.0
C2906 C 0.96273 0.34794 0.55377 0.0
C2907 C 0.95168 0.34449 0.57501 0.0
C2908 C 0.94605 0.3548 0.58079 0.0
C2909 C 0.95064 0.36783 0.56322 0.0
C2910 C 0.9617 0.37128 0.54218 0.0
H2911 H 0.01237 0.37406 0.56398 0.0
H2912 H 0.99362 0.37179 0.57314 0.0
H2913 H 0.99506 0.35515 0.56206 0.0
H2914 H 0.96737 0.34017 0.55043 0.0
H2915 H 0.94837 0.33431 0.588 0.0
H2916 H 0.6581 0.61312 0.58373 0.0
H2917 H 0.65143 0.62652 0.5477 0.0
H2918 H 0.60865 0.58367 0.53024 0.0
H2919 H 0.61516 0.57014 0.56586 0.0
H2920 H 0.63908 0.61646 0.48463 0.0
H2921 H 0.59875 0.61947 0.56233 0.0
H2922 H 0.61517 0.6172 0.5724 0.0
H2923 H 0.59779 0.60085 0.55854 0.0
C2924 C 0.64751 0.6064 0.57163 0.0
C2925 C 0.6371 0.59055 0.57795 0.0
C2926 C 0.64369 0.61412 0.55115 0.0
C2927 C 0.62944 0.60612 0.5367 0.0
C2928 C 0.61964 0.59007 0.5414 0.0
H2929 H 0.56713 0.61801 0.43248 0.0
H2930 H 0.58082 0.61208 0.46843 0.0
C2931 C 0.62343 0.58235 0.56175 0.0
C2932 C 0.624 0.61464 0.51857 0.0
H2933 H 0.59671 0.62625 0.51564 0.0
C2934 C 0.62998 0.61884 0.49141 0.0
C2935 C 0.61216 0.61771 0.52763 0.0
C2936 C 0.60561 0.6137 0.55688 0.0
C2937 C 0.62383 0.62534 0.47251 0.0
C2938 C 0.61161 0.62798 0.48131 0.0
C2939 C 0.60609 0.62429 0.5089 0.0
C2940 C 0.60322 0.63291 0.46153 0.0
C2941 C 0.6299 0.62851 0.44288 0.0
C2942 C 0.61106 0.647 0.44646 0.0
C2943 C 0.60322 0.65046 0.42563 0.0
C2944 C 0.58737 0.6399 0.41967 0.0
C2945 C 0.57934 0.62639 0.43629 0.0
C2946 C 0.58718 0.62294 0.45691 0.0
H2947 H 0.63694 0.62285 0.43802 0.0
H2948 H 0.6201 0.62427 0.42769 0.0
H2949 H 0.63749 0.64131 0.43989 0.0
H2950 H 0.62335 0.65509 0.45019 0.0
H2951 H 0.60978 0.66097 0.41328 0.0
H2952 H 0.42875 0.04739 0.56729 0.0
H2953 H 0.41711 0.02668 0.53239 0.0
H2954 H 0.37429 0.0283 0.53563 0.0
H2955 H 0.38583 0.04911 0.57082 0.0
H2956 H 0.3892 0.99756 0.54649 0.0
H2957 H 0.38197 0.02518 0.45036 0.0
H2958 H 0.39595 0.03638 0.47735 0.0
H2959 H 0.37552 0.0293 0.48282 0.0
C2960 C 0.41697 0.04366 0.56016 0.0
C2961 C 0.40818 0.04987 0.57211 0.0
C2962 C 0.41033 0.03176 0.54022 0.0
C2963 C 0.39482 0.02589 0.53154 0.0
C2964 C 0.38633 0.03275 0.5419 0.0
H2965 H 0.33987 0.94815 0.41657 0.0
H2966 H 0.34674 0.96831 0.45236 0.0
C2967 C 0.39297 0.04469 0.56198 0.0
C2968 C 0.38719 0.01157 0.51399 0.0
H2969 H 0.37207 0.9979 0.44913 0.0
C2970 C 0.3854 0.99761 0.52522 0.0
C2971 C 0.38209 0.01164 0.48641 0.0
C2972 C 0.38402 0.02641 0.4733 0.0
C2973 C 0.37882 0.98374 0.50951 0.0
C2974 C 0.37419 0.98389 0.48157 0.0
C2975 C 0.37559 0.99777 0.47057 0.0
C2976 C 0.36894 0.97015 0.46277 0.0
C2977 C 0.37686 0.96905 0.52308 0.0
C2978 C 0.37892 0.96415 0.45726 0.0
C2979 C 0.37497 0.95254 0.43708 0.0
C2980 C 0.36101 0.94675 0.42163 0.0
C2981 C 0.35063 0.95218 0.42822 0.0
C2982 C 0.35461 0.96383 0.44849 0.0
H2983 H 0.37589 0.96946 0.54617 0.0
H2984 H 0.36633 0.95847 0.51505 0.0
H2985 H 0.38728 0.96793 0.51846 0.0
H2986 H 0.39017 0.969 0.46758 0.0
H2987 H 0.38331 0.94873 0.43252 0.0
H2988 H 0.57105 0.95357 0.43326 0.0
H2989 H 0.58327 0.97346 0.46925 0.0
H2990 H 0.62404 0.96809 0.4676 0.0
H2991 H 0.612 0.9483 0.43068 0.0
H2992 H 0.59441 0.97398 0.52141 0.0
H2993 H 0.6428 0.01462 0.45137 0.0
H2994 H 0.62587 0.99719 0.43853 0.0
H2995 H 0.64108 0.99579 0.45667 0.0
C2996 C 0.58255 0.95642 0.44067 0.0
C2997 C 0.59061 0.94943 0.42873 0.0
C2998 C 0.58953 0.96785 0.46132 0.0
C2999 C 0.60474 0.97258 0.47062 0.0
C3000 C 0.61246 0.96492 0.46018 0.0
H3001 H 0.65694 0.04691 0.59382 0.0
H3002 H 0.65042 0.02639 0.55887 0.0
C3003 C 0.60547 0.95346 0.43933 0.0
C3004 C 0.61243 0.98587 0.49055 0.0
H3005 H 0.64217 0.02379 0.49657 0.0
C3006 C 0.60493 0.98481 0.51605 0.0
C3007 C 0.62615 5e-05 0.48351 0.0
C3008 C 0.63442 0.00212 0.45596 0.0
C3009 C 0.61055 0.99759 0.53441 0.0
C3010 C 0.62397 0.01186 0.52701 0.0
C3011 C 0.63185 0.01282 0.50205 0.0
C3012 C 0.62944 0.02602 0.5446 0.0
C3013 C 0.60198 0.99579 0.56151 0.0
C3014 C 0.62024 0.03313 0.54704 0.0
C3015 C 0.62395 0.04489 0.56682 0.0
C3016 C 0.63696 0.04979 0.58458 0.0
C3017 C 0.64688 0.04351 0.58045 0.0
C3018 C 0.64313 0.0317 0.5606 0.0
H3019 H 0.59401 0.9833 0.56686 0.0
H3020 H 0.61037 0.00147 0.57899 0.0
H3021 H 0.59486 0.00159 0.55953 0.0
H3022 H 0.60974 0.02904 0.53456 0.0
H3023 H 0.61608 0.0495 0.56927 0.0
H3024 H 0.95008 0.56538 0.57295 0.0
H3025 H 0.97019 0.57884 0.53789 0.0
H3026 H 0.95946 0.61619 0.53527 0.0
H3027 H 0.93952 0.60299 0.57153 0.0
H3028 H 0.9704 0.58795 0.48563 0.0
H3029 H 0.00568 0.64048 0.55176 0.0
H3030 H 0.98923 0.62289 0.5653 0.0
H3031 H 0.9861 0.63627 0.54449 0.0
C3032 C 0.95179 0.57638 0.56484 0.0
C3033 C 0.94321 0.58315 0.57542 0.0
C3034 C 0.96338 0.58409 0.54471 0.0
C3035 C 0.96666 0.59874 0.53441 0.0
C3036 C 0.95747 0.60512 0.54352 0.0
H3037 H 0.04089 0.65487 0.41284 0.0
H3038 H 0.01925 0.64665 0.44609 0.0
C3039 C 0.94591 0.59744 0.56398 0.0
C3040 C 0.97996 0.60721 0.51466 0.0
H3041 H 0.01598 0.64 0.50755 0.0
C3042 C 0.98029 0.59938 0.49038 0.0
C3043 C 0.99293 0.62216 0.52079 0.0
C3044 C 0.99361 0.63093 0.54709 0.0
C3045 C 0.99331 0.60584 0.47251 0.0
C3046 C 0.00643 0.62053 0.4791 0.0
C3047 C 0.00591 0.62871 0.50268 0.0
C3048 C 0.02098 0.62709 0.46226 0.0
C3049 C 0.99299 0.59679 0.44685 0.0
C3050 C 0.02959 0.61929 0.46139 0.0
C3051 C 0.04194 0.62395 0.44255 0.0
C3052 C 0.04601 0.6366 0.42429 0.0
C3053 C 0.03816 0.64517 0.42675 0.0
C3054 C 0.02571 0.64043 0.4456 0.0
H3055 H 0.98088 0.58774 0.44113 0.0
H3056 H -0.00156 0.60473 0.42873 0.0
H3057 H -0.00024 0.59078 0.45108 0.0
H3058 H 0.02629 0.60913 0.47444 0.0
H3059 H 0.04779 0.61715 0.44131 0.0
H3060 H 0.38045 0.42857 0.43192 0.0
H3061 H 0.38651 0.41495 0.46773 0.0
H3062 H 0.3401 0.37502 0.4603 0.0
H3063 H 0.334 0.38847 0.42344 0.0
H3064 H 0.37436 0.40299 0.51817 0.0
H3065 H 0.36696 0.35516 0.44687 0.0
H3066 H 0.36749 0.37266 0.4343 0.0
H3067 H 0.35014 0.3575 0.45079 0.0
C3068 C 0.3714 0.41695 0.43799 0.0
C3069 C 0.35675 0.40959 0.42449 0.0
C3070 C 0.37492 0.40915 0.45854 0.0
C3071 C 0.36392 0.3938 0.46628 0.0
C3072 C 0.34894 0.38671 0.45414 0.0
H3073 H 0.38268 0.34045 0.59337 0.0
H3074 H 0.3689 0.34701 0.5579 0.0
C3075 C 0.34539 0.3945 0.43334 0.0
C3076 C 0.36855 0.38539 0.48655 0.0
H3077 H 0.37561 0.35485 0.49262 0.0
C3078 C 0.37446 0.39237 0.51265 0.0
C3079 C 0.36874 0.37153 0.47936 0.0
C3080 C 0.36312 0.36378 0.45125 0.0
C3081 C 0.38093 0.38617 0.53135 0.0
C3082 C 0.38155 0.37264 0.52377 0.0
C3083 C 0.3751 0.36524 0.49826 0.0
C3084 C 0.38986 0.36682 0.54155 0.0
C3085 C 0.38741 0.39434 0.55888 0.0
C3086 C 0.40623 0.37532 0.54306 0.0
C3087 C 0.41414 0.37159 0.56312 0.0
C3088 C 0.40581 0.35927 0.58211 0.0
C3089 C 0.38947 0.34995 0.57899 0.0
C3090 C 0.38155 0.35373 0.55886 0.0
H3091 H 0.3835 0.40286 0.56381 0.0
H3092 H 0.38381 0.38569 0.57615 0.0
H3093 H 0.40039 0.40077 0.5579 0.0
H3094 H 0.41284 0.38538 0.52967 0.0
H3095 H 0.42671 0.37898 0.56481 0.0
loop_
_geom_bond_atom_site_label_1
_geom_bond_atom_site_label_2
_geom_bond_distance
_geom_bond_site_symmetry_2
_ccdc_geom_bond_type
Co0 O1 2.222 . S
Co0 O2 2.091 . S
Co0 O4 2.004 . S
Co0 O10 2.021 1_554 S
Co0 O12 2.137 . S
Co0 O13 2.244 . S
O1 Co0 2.222 . S
O1 C8 1.260 . S
O2 Co0 2.091 . S
O2 C8 1.261 . S
C3 O12 1.247 . S
C3 O13 1.272 . S
O4 Co0 2.004 . S
O4 C9 1.259 . S
Co5 O6 2.061 . S
Co5 O11 2.052 . S
Co5 O13 2.135 1_556 S
O6 Co5 2.061 . S
O6 C9 1.235 1_556 S
C7 O10 1.238 . S
C7 O11 1.241 . S
C8 O1 1.260 . S
C8 O2 1.261 . S
C9 O4 1.259 . S
C9 O6 1.235 1_554 S
O10 Co0 2.021 1_556 S
O10 C7 1.238 . S
O11 Co5 2.052 . S
O11 C7 1.241 . S
O12 Co0 2.137 . S
O12 C3 1.247 . S
O13 Co0 2.244 . S
O13 C3 1.272 . S
O13 Co5 2.135 1_554 S
Co14 O15 2.222 . S
Co14 O16 2.091 . S
Co14 O18 2.004 . S
Co14 O24 2.021 1_554 S
Co14 O26 2.137 . S
Co14 O27 2.244 . S
O15 Co14 2.222 . S
O15 C22 1.260 . S
O16 Co14 2.091 . S
O16 C22 1.261 . S
C17 O26 1.247 . S
C17 O27 1.272 . S
O18 Co14 2.004 . S
O18 C23 1.259 . S
Co19 O20 2.061 . S
Co19 O25 2.052 . S
Co19 O27 2.135 1_556 S
O20 Co19 2.061 . S
O20 C23 1.235 1_556 S
C21 O24 1.238 . S
C21 O25 1.241 . S
C22 O15 1.260 . S
C22 O16 1.261 . S
C23 O18 1.259 . S
C23 O20 1.235 1_554 S
O24 Co14 2.021 1_556 S
O24 C21 1.238 . S
O25 Co19 2.052 . S
O25 C21 1.241 . S
O26 Co14 2.137 . S
O26 C17 1.247 . S
O27 Co14 2.244 . S
O27 C17 1.272 . S
O27 Co19 2.135 1_554 S
Co28 O29 2.222 . S
Co28 O30 2.091 . S
Co28 O32 2.004 . S
Co28 O38 2.021 1_554 S
Co28 O40 2.137 . S
Co28 O41 2.244 . S
O29 Co28 2.222 . S
O29 C36 1.260 . S
O30 Co28 2.091 . S
O30 C36 1.261 . S
C31 O40 1.247 . S
C31 O41 1.272 . S
O32 Co28 2.004 . S
O32 C37 1.259 . S
Co33 O34 2.061 . S
Co33 O39 2.052 . S
Co33 O41 2.135 1_556 S
O34 Co33 2.061 . S
O34 C37 1.235 1_556 S
C35 O38 1.238 . S
C35 O39 1.241 . S
C36 O29 1.260 . S
C36 O30 1.261 . S
C37 O32 1.259 . S
C37 O34 1.235 1_554 S
O38 Co28 2.021 1_556 S
O38 C35 1.238 . S
O39 Co33 2.052 . S
O39 C35 1.241 . S
O40 Co28 2.137 . S
O40 C31 1.247 . S
O41 Co28 2.244 . S
O41 C31 1.272 . S
O41 Co33 2.135 1_554 S
Co42 O43 2.222 . S
Co42 O44 2.091 . S
Co42 O46 2.004 . S
Co42 O52 2.021 1_556 S
Co42 O54 2.137 . S
Co42 O55 2.244 . S
O43 Co42 2.222 . S
O43 C50 1.260 . S
O44 Co42 2.091 . S
O44 C50 1.261 . S
C45 O54 1.247 . S
C45 O55 1.272 . S
O46 Co42 2.004 . S
O46 C51 1.259 . S
Co47 O48 2.061 . S
Co47 O53 2.052 . S
Co47 O55 2.135 1_554 S
O48 Co47 2.061 . S
O48 C51 1.235 1_554 S
C49 O52 1.238 . S
C49 O53 1.241 . S
C50 O43 1.260 . S
C50 O44 1.261 . S
C51 O46 1.259 . S
C51 O48 1.235 1_556 S
O52 Co42 2.021 1_554 S
O52 C49 1.238 . S
O53 Co47 2.052 . S
O53 C49 1.241 . S
O54 Co42 2.137 . S
O54 C45 1.247 . S
O55 Co42 2.244 . S
O55 C45 1.272 . S
O55 Co47 2.135 1_556 S
Co56 O57 2.222 . S
Co56 O58 2.091 . S
Co56 O60 2.004 . S
Co56 O66 2.021 1_556 S
Co56 O68 2.137 . S
Co56 O69 2.244 . S
O57 Co56 2.222 . S
O57 C64 1.260 . S
O58 Co56 2.091 . S
O58 C64 1.261 . S
C59 O68 1.247 . S
C59 O69 1.272 . S
O60 Co56 2.004 . S
O60 C65 1.259 . S
Co61 O62 2.061 . S
Co61 O67 2.052 . S
Co61 O69 2.135 1_554 S
O62 Co61 2.061 . S
O62 C65 1.235 1_554 S
C63 O66 1.238 . S
C63 O67 1.241 . S
C64 O57 1.260 . S
C64 O58 1.261 . S
C65 O60 1.259 . S
C65 O62 1.235 1_556 S
O66 Co56 2.021 1_554 S
O66 C63 1.238 . S
O67 Co61 2.052 . S
O67 C63 1.241 . S
O68 Co56 2.137 . S
O68 C59 1.247 . S
O69 Co56 2.244 . S
O69 C59 1.272 . S
O69 Co61 2.135 1_556 S
Co70 O71 2.222 . S
Co70 O72 2.091 . S
Co70 O74 2.004 . S
Co70 O80 2.021 1_556 S
Co70 O82 2.137 . S
Co70 O83 2.244 . S
O71 Co70 2.222 . S
O71 C78 1.260 . S
O72 Co70 2.091 . S
O72 C78 1.261 . S
C73 O82 1.247 . S
C73 O83 1.272 . S
O74 Co70 2.004 . S
O74 C79 1.259 . S
Co75 O76 2.061 . S
Co75 O81 2.052 . S
Co75 O83 2.135 1_554 S
O76 Co75 2.061 . S
O76 C79 1.235 1_554 S
C77 O80 1.238 . S
C77 O81 1.241 . S
C78 O71 1.260 . S
C78 O72 1.261 . S
C79 O74 1.259 . S
C79 O76 1.235 1_556 S
O80 Co70 2.021 1_554 S
O80 C77 1.238 . S
O81 Co75 2.052 . S
O81 C77 1.241 . S
O82 Co70 2.137 . S
O82 C73 1.247 . S
O83 Co70 2.244 . S
O83 C73 1.272 . S
O83 Co75 2.135 1_556 S
Co84 O85 2.222 . S
Co84 O86 2.091 . S
Co84 O88 2.004 . S
Co84 O94 2.021 1_556 S
Co84 O96 2.137 . S
Co84 O97 2.244 . S
O85 Co84 2.222 . S
O85 C92 1.260 . S
O86 Co84 2.091 . S
O86 C92 1.261 . S
C87 O96 1.247 . S
C87 O97 1.272 . S
O88 Co84 2.004 . S
O88 C93 1.259 . S
Co89 O90 2.061 . S
Co89 O95 2.052 . S
Co89 O97 2.135 1_554 S
O90 Co89 2.061 . S
O90 C93 1.235 1_554 S
C91 O94 1.238 . S
C91 O95 1.241 . S
C92 O85 1.260 . S
C92 O86 1.261 . S
C93 O88 1.259 . S
C93 O90 1.235 1_556 S
O94 Co84 2.021 1_554 S
O94 C91 1.238 . S
O95 Co89 2.052 . S
O95 C91 1.241 . S
O96 Co84 2.137 . S
O96 C87 1.247 . S
O97 Co84 2.244 . S
O97 C87 1.272 . S
O97 Co89 2.135 1_556 S
Co98 O99 2.222 . S
Co98 O100 2.091 . S
Co98 O102 2.004 . S
Co98 O108 2.021 1_556 S
Co98 O110 2.137 . S
Co98 O111 2.244 . S
O99 Co98 2.222 . S
O99 C106 1.260 . S
O100 Co98 2.091 . S
O100 C106 1.261 . S
C101 O110 1.247 . S
C101 O111 1.272 . S
O102 Co98 2.004 . S
O102 C107 1.259 . S
Co103 O104 2.061 . S
Co103 O109 2.052 . S
Co103 O111 2.135 1_554 S
O104 Co103 2.061 . S
O104 C107 1.235 1_554 S
C105 O108 1.238 . S
C105 O109 1.241 . S
C106 O99 1.260 . S
C106 O100 1.261 . S
C107 O102 1.259 . S
C107 O104 1.235 1_556 S
O108 Co98 2.021 1_554 S
O108 C105 1.238 . S
O109 Co103 2.052 . S
O109 C105 1.241 . S
O110 Co98 2.137 . S
O110 C101 1.247 . S
O111 Co98 2.244 . S
O111 C101 1.272 . S
O111 Co103 2.135 1_556 S
Co112 O113 2.222 . S
Co112 O114 2.091 . S
Co112 O116 2.004 . S
Co112 O122 2.021 1_556 S
Co112 O124 2.137 . S
Co112 O125 2.244 . S
O113 Co112 2.222 . S
O113 C120 1.260 . S
O114 Co112 2.091 . S
O114 C120 1.261 . S
C115 O124 1.247 . S
C115 O125 1.272 . S
O116 Co112 2.004 . S
O116 C121 1.259 . S
Co117 O118 2.061 . S
Co117 O123 2.052 . S
Co117 O125 2.135 1_554 S
O118 Co117 2.061 . S
O118 C121 1.235 1_554 S
C119 O122 1.238 . S
C119 O123 1.241 . S
C120 O113 1.260 . S
C120 O114 1.261 . S
C121 O116 1.259 . S
C121 O118 1.235 1_556 S
O122 Co112 2.021 1_554 S
O122 C119 1.238 . S
O123 Co117 2.052 . S
O123 C119 1.241 . S
O124 Co112 2.137 . S
O124 C115 1.247 . S
O125 Co112 2.244 . S
O125 C115 1.272 . S
O125 Co117 2.135 1_556 S
Co126 O127 2.222 . S
Co126 O128 2.091 . S
Co126 O130 2.004 . S
Co126 O136 2.021 1_554 S
Co126 O138 2.137 . S
Co126 O139 2.244 . S
O127 Co126 2.222 . S
O127 C134 1.260 . S
O128 Co126 2.091 . S
O128 C134 1.261 . S
C129 O138 1.247 . S
C129 O139 1.272 . S
O130 Co126 2.004 . S
O130 C135 1.259 . S
Co131 O132 2.061 . S
Co131 O137 2.052 . S
Co131 O139 2.135 1_556 S
O132 Co131 2.061 . S
O132 C135 1.235 1_556 S
C133 O136 1.238 . S
C133 O137 1.241 . S
C134 O127 1.260 . S
C134 O128 1.261 . S
C135 O130 1.259 . S
C135 O132 1.235 1_554 S
O136 Co126 2.021 1_556 S
O136 C133 1.238 . S
O137 Co131 2.052 . S
O137 C133 1.241 . S
O138 Co126 2.137 . S
O138 C129 1.247 . S
O139 Co126 2.244 . S
O139 C129 1.272 . S
O139 Co131 2.135 1_554 S
Co140 O141 2.222 . S
Co140 O142 2.091 . S
Co140 O144 2.004 . S
Co140 O150 2.021 1_554 S
Co140 O152 2.137 . S
Co140 O153 2.244 . S
O141 Co140 2.222 . S
O141 C148 1.260 . S
O142 Co140 2.091 . S
O142 C148 1.261 . S
C143 O152 1.247 . S
C143 O153 1.272 . S
O144 Co140 2.004 . S
O144 C149 1.259 . S
Co145 O146 2.061 . S
Co145 O151 2.052 . S
Co145 O153 2.135 1_556 S
O146 Co145 2.061 . S
O146 C149 1.235 1_556 S
C147 O150 1.238 . S
C147 O151 1.241 . S
C148 O141 1.260 . S
C148 O142 1.261 . S
C149 O144 1.259 . S
C149 O146 1.235 1_554 S
O150 Co140 2.021 1_556 S
O150 C147 1.238 . S
O151 Co145 2.052 . S
O151 C147 1.241 . S
O152 Co140 2.137 . S
O152 C143 1.247 . S
O153 Co140 2.244 . S
O153 C143 1.272 . S
O153 Co145 2.135 1_554 S
Co154 O155 2.222 . S
Co154 O156 2.091 . S
Co154 O158 2.004 . S
Co154 O164 2.021 1_554 S
Co154 O166 2.137 . S
Co154 O167 2.244 . S
O155 Co154 2.222 . S
O155 C162 1.260 . S
O156 Co154 2.091 . S
O156 C162 1.261 . S
C157 O166 1.247 . S
C157 O167 1.272 . S
O158 Co154 2.004 . S
O158 C163 1.259 . S
Co159 O160 2.061 . S
Co159 O165 2.052 . S
Co159 O167 2.135 1_556 S
O160 Co159 2.061 . S
O160 C163 1.235 1_556 S
C161 O164 1.238 . S
C161 O165 1.241 . S
C162 O155 1.260 . S
C162 O156 1.261 . S
C163 O158 1.259 . S
C163 O160 1.235 1_554 S
O164 Co154 2.021 1_556 S
O164 C161 1.238 . S
O165 Co159 2.052 . S
O165 C161 1.241 . S
O166 Co154 2.137 . S
O166 C157 1.247 . S
O167 Co154 2.244 . S
O167 C157 1.272 . S
O167 Co159 2.135 1_554 S
Co168 O169 2.216 . S
Co168 O170 2.091 . S
Co168 O172 2.004 . S
Co168 O178 2.021 . S
Co168 O180 2.137 . S
Co168 O181 2.244 . S
O169 Co168 2.216 . S
O169 C176 1.247 . S
O170 Co168 2.091 . S
O170 C176 1.261 . S
C171 O180 1.247 . S
C171 O181 1.272 . S
O172 Co168 2.004 . S
O172 C177 1.259 . S
Co173 O174 2.061 . S
Co173 O179 2.052 . S
Co173 O181 2.135 . S
O174 Co173 2.061 . S
O174 C177 1.235 . S
C175 O178 1.238 . S
C175 O179 1.241 . S
C176 O169 1.247 . S
C176 O170 1.261 . S
C177 O172 1.259 . S
C177 O174 1.235 . S
O178 Co168 2.021 . S
O178 C175 1.238 . S
O179 Co173 2.052 . S
O179 C175 1.241 . S
O180 Co168 2.137 . S
O180 C171 1.247 . S
O181 Co168 2.244 . S
O181 C171 1.272 . S
O181 Co173 2.135 . S
Co182 O183 2.216 . S
Co182 O184 2.091 . S
Co182 O186 2.004 . S
Co182 O192 2.021 . S
Co182 O194 2.137 . S
Co182 O195 2.244 . S
O183 Co182 2.216 . S
O183 C190 1.247 . S
O184 Co182 2.091 . S
O184 C190 1.261 . S
C185 O194 1.247 . S
C185 O195 1.272 . S
O186 Co182 2.004 . S
O186 C191 1.259 . S
Co187 O188 2.061 1_565 S
Co187 O193 2.052 1_565 S
Co187 O195 2.135 1_565 S
O188 Co187 2.061 1_545 S
O188 C191 1.235 . S
C189 O192 1.238 . S
C189 O193 1.241 . S
C190 O183 1.247 . S
C190 O184 1.261 . S
C191 O186 1.259 . S
C191 O188 1.235 . S
O192 Co182 2.021 . S
O192 C189 1.238 . S
O193 Co187 2.052 1_545 S
O193 C189 1.241 . S
O194 Co182 2.137 . S
O194 C185 1.247 . S
O195 Co182 2.244 . S
O195 C185 1.272 . S
O195 Co187 2.135 1_545 S
Co196 O197 2.216 . S
Co196 O198 2.091 . S
Co196 O200 2.004 . S
Co196 O206 2.021 . S
Co196 O208 2.137 . S
Co196 O209 2.244 . S
O197 Co196 2.216 . S
O197 C204 1.247 . S
O198 Co196 2.091 . S
O198 C204 1.261 . S
C199 O208 1.247 . S
C199 O209 1.272 . S
O200 Co196 2.004 . S
O200 C205 1.259 . S
Co201 O202 2.061 1_455 S
Co201 O207 2.052 1_455 S
Co201 O209 2.135 1_455 S
O202 Co201 2.061 1_655 S
O202 C205 1.235 . S
C203 O206 1.238 . S
C203 O207 1.241 . S
C204 O197 1.247 . S
C204 O198 1.261 . S
C205 O200 1.259 . S
C205 O202 1.235 . S
O206 Co196 2.021 . S
O206 C203 1.238 . S
O207 Co201 2.052 1_655 S
O207 C203 1.241 . S
O208 Co196 2.137 . S
O208 C199 1.247 . S
O209 Co196 2.244 . S
O209 C199 1.272 . S
O209 Co201 2.135 1_655 S
Co210 O211 2.216 . S
Co210 O212 2.091 . S
Co210 O214 2.004 . S
Co210 O220 2.021 . S
Co210 O222 2.137 . S
Co210 O223 2.244 . S
O211 Co210 2.216 . S
O211 C218 1.247 . S
O212 Co210 2.091 . S
O212 C218 1.261 . S
C213 O222 1.247 . S
C213 O223 1.272 . S
O214 Co210 2.004 . S
O214 C219 1.259 . S
Co215 O216 2.061 . S
Co215 O221 2.052 . S
Co215 O223 2.135 . S
O216 Co215 2.061 . S
O216 C219 1.235 . S
C217 O220 1.238 . S
C217 O221 1.241 . S
C218 O211 1.247 . S
C218 O212 1.261 . S
C219 O214 1.259 . S
C219 O216 1.235 . S
O220 Co210 2.021 . S
O220 C217 1.238 . S
O221 Co215 2.052 . S
O221 C217 1.241 . S
O222 Co210 2.137 . S
O222 C213 1.247 . S
O223 Co210 2.244 . S
O223 C213 1.272 . S
O223 Co215 2.135 . S
Co224 O225 2.216 . S
Co224 O226 2.091 . S
Co224 O228 2.004 . S
Co224 O234 2.021 . S
Co224 O236 2.137 . S
Co224 O237 2.244 . S
O225 Co224 2.216 . S
O225 C232 1.247 . S
O226 Co224 2.091 . S
O226 C232 1.261 . S
C227 O236 1.247 . S
C227 O237 1.272 . S
O228 Co224 2.004 . S
O228 C233 1.259 . S
Co229 O230 2.061 . S
Co229 O235 2.052 . S
Co229 O237 2.135 . S
O230 Co229 2.061 . S
O230 C233 1.235 . S
C231 O234 1.238 . S
C231 O235 1.241 . S
C232 O225 1.247 . S
C232 O226 1.261 . S
C233 O228 1.259 . S
C233 O230 1.235 . S
O234 Co224 2.021 . S
O234 C231 1.238 . S
O235 Co229 2.052 . S
O235 C231 1.241 . S
O236 Co224 2.137 . S
O236 C227 1.247 . S
O237 Co224 2.244 . S
O237 C227 1.272 . S
O237 Co229 2.135 . S
Co238 O239 2.216 . S
Co238 O240 2.091 . S
Co238 O242 2.004 . S
Co238 O248 2.021 . S
Co238 O250 2.137 . S
Co238 O251 2.244 . S
O239 Co238 2.216 . S
O239 C246 1.247 . S
O240 Co238 2.091 . S
O240 C246 1.261 . S
C241 O250 1.247 . S
C241 O251 1.272 . S
O242 Co238 2.004 . S
O242 C247 1.259 . S
Co243 O244 2.061 . S
Co243 O249 2.052 . S
Co243 O251 2.135 . S
O244 Co243 2.061 . S
O244 C247 1.235 . S
C245 O248 1.238 . S
C245 O249 1.241 . S
C246 O239 1.247 . S
C246 O240 1.261 . S
C247 O242 1.259 . S
C247 O244 1.235 . S
O248 Co238 2.021 . S
O248 C245 1.238 . S
O249 Co243 2.052 . S
O249 C245 1.241 . S
O250 Co238 2.137 . S
O250 C241 1.247 . S
O251 Co238 2.244 . S
O251 C241 1.272 . S
O251 Co243 2.135 . S
Co252 O253 2.216 . S
Co252 O254 2.091 . S
Co252 O256 2.004 . S
Co252 O262 2.021 . S
Co252 O264 2.137 . S
Co252 O265 2.244 . S
O253 Co252 2.216 . S
O253 C260 1.247 . S
O254 Co252 2.091 . S
O254 C260 1.261 . S
C255 O264 1.247 . S
C255 O265 1.272 . S
O256 Co252 2.004 . S
O256 C261 1.259 . S
Co257 O258 2.061 . S
Co257 O263 2.052 . S
Co257 O265 2.135 . S
O258 Co257 2.061 . S
O258 C261 1.235 . S
C259 O262 1.238 . S
C259 O263 1.241 . S
C260 O253 1.247 . S
C260 O254 1.261 . S
C261 O256 1.259 . S
C261 O258 1.235 . S
O262 Co252 2.021 . S
O262 C259 1.238 . S
O263 Co257 2.052 . S
O263 C259 1.241 . S
O264 Co252 2.137 . S
O264 C255 1.247 . S
O265 Co252 2.244 . S
O265 C255 1.272 . S
O265 Co257 2.135 . S
Co266 O267 2.216 . S
Co266 O268 2.091 . S
Co266 O270 2.004 . S
Co266 O276 2.021 . S
Co266 O278 2.137 . S
Co266 O279 2.244 . S
O267 Co266 2.216 . S
O267 C274 1.247 . S
O268 Co266 2.091 . S
O268 C274 1.261 . S
C269 O278 1.247 . S
C269 O279 1.272 . S
O270 Co266 2.004 . S
O270 C275 1.259 . S
Co271 O272 2.061 . S
Co271 O277 2.052 . S
Co271 O279 2.135 . S
O272 Co271 2.061 . S
O272 C275 1.235 . S
C273 O276 1.238 . S
C273 O277 1.241 . S
C274 O267 1.247 . S
C274 O268 1.261 . S
C275 O270 1.259 . S
C275 O272 1.235 . S
O276 Co266 2.021 . S
O276 C273 1.238 . S
O277 Co271 2.052 . S
O277 C273 1.241 . S
O278 Co266 2.137 . S
O278 C269 1.247 . S
O279 Co266 2.244 . S
O279 C269 1.272 . S
O279 Co271 2.135 . S
Co280 O281 2.216 . S
Co280 O282 2.091 . S
Co280 O284 2.004 . S
Co280 O290 2.021 . S
Co280 O292 2.137 . S
Co280 O293 2.244 . S
O281 Co280 2.216 . S
O281 C288 1.247 . S
O282 Co280 2.091 . S
O282 C288 1.261 . S
C283 O292 1.247 . S
C283 O293 1.272 . S
O284 Co280 2.004 . S
O284 C289 1.259 . S
Co285 O286 2.061 . S
Co285 O291 2.052 . S
Co285 O293 2.135 . S
O286 Co285 2.061 . S
O286 C289 1.235 . S
C287 O290 1.238 . S
C287 O291 1.241 . S
C288 O281 1.247 . S
C288 O282 1.261 . S
C289 O284 1.259 . S
C289 O286 1.235 . S
O290 Co280 2.021 . S
O290 C287 1.238 . S
O291 Co285 2.052 . S
O291 C287 1.241 . S
O292 Co280 2.137 . S
O292 C283 1.247 . S
O293 Co280 2.244 . S
O293 C283 1.272 . S
O293 Co285 2.135 . S
Co294 O295 2.216 . S
Co294 O296 2.091 . S
Co294 O298 2.004 . S
Co294 O304 2.021 . S
Co294 O306 2.137 . S
Co294 O307 2.244 . S
O295 Co294 2.216 . S
O295 C302 1.247 . S
O296 Co294 2.091 . S
O296 C302 1.261 . S
C297 O306 1.247 . S
C297 O307 1.272 . S
O298 Co294 2.004 . S
O298 C303 1.259 . S
Co299 O300 2.061 . S
Co299 O305 2.052 . S
Co299 O307 2.135 . S
O300 Co299 2.061 . S
O300 C303 1.235 . S
C301 O304 1.238 . S
C301 O305 1.241 . S
C302 O295 1.247 . S
C302 O296 1.261 . S
C303 O298 1.259 . S
C303 O300 1.235 . S
O304 Co294 2.021 . S
O304 C301 1.238 . S
O305 Co299 2.052 . S
O305 C301 1.241 . S
O306 Co294 2.137 . S
O306 C297 1.247 . S
O307 Co294 2.244 . S
O307 C297 1.272 . S
O307 Co299 2.135 . S
Co308 O309 2.216 . S
Co308 O310 2.091 . S
Co308 O312 2.004 . S
Co308 O318 2.021 . S
Co308 O320 2.137 . S
Co308 O321 2.244 . S
O309 Co308 2.216 . S
O309 C316 1.247 . S
O310 Co308 2.091 . S
O310 C316 1.261 . S
C311 O320 1.247 . S
C311 O321 1.272 . S
O312 Co308 2.004 . S
O312 C317 1.259 . S
Co313 O314 2.061 1_565 S
Co313 O319 2.052 1_565 S
Co313 O321 2.135 1_565 S
O314 Co313 2.061 1_545 S
O314 C317 1.235 . S
C315 O318 1.238 . S
C315 O319 1.241 . S
C316 O309 1.247 . S
C316 O310 1.261 . S
C317 O312 1.259 . S
C317 O314 1.235 . S
O318 Co308 2.021 . S
O318 C315 1.238 . S
O319 Co313 2.052 1_545 S
O319 C315 1.241 . S
O320 Co308 2.137 . S
O320 C311 1.247 . S
O321 Co308 2.244 . S
O321 C311 1.272 . S
O321 Co313 2.135 1_545 S
Co322 O323 2.216 . S
Co322 O324 2.091 . S
Co322 O326 2.004 . S
Co322 O332 2.021 . S
Co322 O334 2.137 . S
Co322 O335 2.244 . S
O323 Co322 2.216 . S
O323 C330 1.247 . S
O324 Co322 2.091 . S
O324 C330 1.261 . S
C325 O334 1.247 . S
C325 O335 1.272 . S
O326 Co322 2.004 . S
O326 C331 1.259 . S
Co327 O328 2.061 1_455 S
Co327 O333 2.052 1_455 S
Co327 O335 2.135 1_455 S
O328 Co327 2.061 1_655 S
O328 C331 1.235 . S
C329 O332 1.238 . S
C329 O333 1.241 . S
C330 O323 1.247 . S
C330 O324 1.261 . S
C331 O326 1.259 . S
C331 O328 1.235 . S
O332 Co322 2.021 . S
O332 C329 1.238 . S
O333 Co327 2.052 1_655 S
O333 C329 1.241 . S
O334 Co322 2.137 . S
O334 C325 1.247 . S
O335 Co322 2.244 . S
O335 C325 1.272 . S
O335 Co327 2.135 1_655 S
Co336 O337 2.216 . S
Co336 O338 2.091 . S
Co336 O340 2.004 . S
Co336 O346 2.021 . S
Co336 O348 2.137 . S
Co336 O349 2.244 . S
O337 Co336 2.216 . S
O337 C344 1.247 . S
O338 Co336 2.091 . S
O338 C344 1.261 . S
C339 O348 1.247 . S
C339 O349 1.272 . S
O340 Co336 2.004 . S
O340 C345 1.259 . S
Co341 O342 2.061 . S
Co341 O347 2.052 . S
Co341 O349 2.135 . S
O342 Co341 2.061 . S
O342 C345 1.235 . S
C343 O346 1.238 . S
C343 O347 1.241 . S
C344 O337 1.247 . S
C344 O338 1.261 . S
C345 O340 1.259 . S
C345 O342 1.235 . S
O346 Co336 2.021 . S
O346 C343 1.238 . S
O347 Co341 2.052 . S
O347 C343 1.241 . S
O348 Co336 2.137 . S
O348 C339 1.247 . S
O349 Co336 2.244 . S
O349 C339 1.272 . S
O349 Co341 2.135 . S
Co350 O351 2.216 . S
Co350 O352 2.091 . S
Co350 O354 2.004 . S
Co350 O360 2.021 . S
Co350 O362 2.137 . S
Co350 O363 2.244 . S
O351 Co350 2.216 . S
O351 C358 1.247 . S
O352 Co350 2.091 . S
O352 C358 1.261 . S
C353 O362 1.247 . S
C353 O363 1.272 . S
O354 Co350 2.004 . S
O354 C359 1.259 . S
Co355 O356 2.061 . S
Co355 O361 2.052 . S
Co355 O363 2.135 . S
O356 Co355 2.061 . S
O356 C359 1.235 . S
C357 O360 1.238 . S
C357 O361 1.241 . S
C358 O351 1.247 . S
C358 O352 1.261 . S
C359 O354 1.259 . S
C359 O356 1.235 . S
O360 Co350 2.021 . S
O360 C357 1.238 . S
O361 Co355 2.052 . S
O361 C357 1.241 . S
O362 Co350 2.137 . S
O362 C353 1.247 . S
O363 Co350 2.244 . S
O363 C353 1.272 . S
O363 Co355 2.135 . S
Co364 O365 2.216 . S
Co364 O366 2.091 . S
Co364 O368 2.004 . S
Co364 O374 2.021 . S
Co364 O376 2.137 . S
Co364 O377 2.244 . S
O365 Co364 2.216 . S
O365 C372 1.247 . S
O366 Co364 2.091 . S
O366 C372 1.261 . S
C367 O376 1.247 . S
C367 O377 1.272 . S
O368 Co364 2.004 . S
O368 C373 1.259 . S
Co369 O370 2.061 . S
Co369 O375 2.052 . S
Co369 O377 2.135 . S
O370 Co369 2.061 . S
O370 C373 1.235 . S
C371 O374 1.238 . S
C371 O375 1.241 . S
C372 O365 1.247 . S
C372 O366 1.261 . S
C373 O368 1.259 . S
C373 O370 1.235 . S
O374 Co364 2.021 . S
O374 C371 1.238 . S
O375 Co369 2.052 . S
O375 C371 1.241 . S
O376 Co364 2.137 . S
O376 C367 1.247 . S
O377 Co364 2.244 . S
O377 C367 1.272 . S
O377 Co369 2.135 . S
Co378 O379 2.216 . S
Co378 O380 2.091 . S
Co378 O382 2.004 . S
Co378 O388 2.021 . S
Co378 O390 2.137 . S
Co378 O391 2.244 . S
O379 Co378 2.216 . S
O379 C386 1.247 . S
O380 Co378 2.091 . S
O380 C386 1.261 . S
C381 O390 1.247 . S
C381 O391 1.272 . S
O382 Co378 2.004 . S
O382 C387 1.259 . S
Co383 O384 2.061 . S
Co383 O389 2.052 . S
Co383 O391 2.135 . S
O384 Co383 2.061 . S
O384 C387 1.235 . S
C385 O388 1.238 . S
C385 O389 1.241 . S
C386 O379 1.247 . S
C386 O380 1.261 . S
C387 O382 1.259 . S
C387 O384 1.235 . S
O388 Co378 2.021 . S
O388 C385 1.238 . S
O389 Co383 2.052 . S
O389 C385 1.241 . S
O390 Co378 2.137 . S
O390 C381 1.247 . S
O391 Co378 2.244 . S
O391 C381 1.272 . S
O391 Co383 2.135 . S
Co392 O393 2.216 . S
Co392 O394 2.091 . S
Co392 O396 2.004 . S
Co392 O402 2.021 . S
Co392 O404 2.137 . S
Co392 O405 2.244 . S
O393 Co392 2.216 . S
O393 C400 1.247 . S
O394 Co392 2.091 . S
O394 C400 1.261 . S
C395 O404 1.247 . S
C395 O405 1.272 . S
O396 Co392 2.004 . S
O396 C401 1.259 . S
Co397 O398 2.061 1_545 S
Co397 O403 2.052 1_545 S
Co397 O405 2.135 1_545 S
O398 Co397 2.061 1_565 S
O398 C401 1.235 . S
C399 O402 1.238 . S
C399 O403 1.241 . S
C400 O393 1.247 . S
C400 O394 1.261 . S
C401 O396 1.259 . S
C401 O398 1.235 . S
O402 Co392 2.021 . S
O402 C399 1.238 . S
O403 Co397 2.052 1_565 S
O403 C399 1.241 . S
O404 Co392 2.137 . S
O404 C395 1.247 . S
O405 Co392 2.244 . S
O405 C395 1.272 . S
O405 Co397 2.135 1_565 S
Co406 O407 2.216 . S
Co406 O408 2.091 . S
Co406 O410 2.004 . S
Co406 O416 2.021 . S
Co406 O418 2.137 . S
Co406 O419 2.244 . S
O407 Co406 2.216 . S
O407 C414 1.247 . S
O408 Co406 2.091 . S
O408 C414 1.261 . S
C409 O418 1.247 . S
C409 O419 1.272 . S
O410 Co406 2.004 . S
O410 C415 1.259 . S
Co411 O412 2.061 1_655 S
Co411 O417 2.052 1_655 S
Co411 O419 2.135 1_655 S
O412 Co411 2.061 1_455 S
O412 C415 1.235 . S
C413 O416 1.238 . S
C413 O417 1.241 . S
C414 O407 1.247 . S
C414 O408 1.261 . S
C415 O410 1.259 . S
C415 O412 1.235 . S
O416 Co406 2.021 . S
O416 C413 1.238 . S
O417 Co411 2.052 1_455 S
O417 C413 1.241 . S
O418 Co406 2.137 . S
O418 C409 1.247 . S
O419 Co406 2.244 . S
O419 C409 1.272 . S
O419 Co411 2.135 1_455 S
Co420 O421 2.216 . S
Co420 O422 2.091 . S
Co420 O424 2.004 . S
Co420 O430 2.021 . S
Co420 O432 2.137 . S
Co420 O433 2.244 . S
O421 Co420 2.216 . S
O421 C428 1.247 . S
O422 Co420 2.091 . S
O422 C428 1.261 . S
C423 O432 1.247 . S
C423 O433 1.272 . S
O424 Co420 2.004 . S
O424 C429 1.259 . S
Co425 O426 2.061 . S
Co425 O431 2.052 . S
Co425 O433 2.135 . S
O426 Co425 2.061 . S
O426 C429 1.235 . S
C427 O430 1.238 . S
C427 O431 1.241 . S
C428 O421 1.247 . S
C428 O422 1.261 . S
C429 O424 1.259 . S
C429 O426 1.235 . S
O430 Co420 2.021 . S
O430 C427 1.238 . S
O431 Co425 2.052 . S
O431 C427 1.241 . S
O432 Co420 2.137 . S
O432 C423 1.247 . S
O433 Co420 2.244 . S
O433 C423 1.272 . S
O433 Co425 2.135 . S
Co434 O435 2.216 . S
Co434 O436 2.091 . S
Co434 O438 2.004 . S
Co434 O444 2.021 . S
Co434 O446 2.137 . S
Co434 O447 2.244 . S
O435 Co434 2.216 . S
O435 C442 1.247 . S
O436 Co434 2.091 . S
O436 C442 1.261 . S
C437 O446 1.247 . S
C437 O447 1.272 . S
O438 Co434 2.004 . S
O438 C443 1.259 . S
Co439 O440 2.061 1_545 S
Co439 O445 2.052 1_545 S
Co439 O447 2.135 1_545 S
O440 Co439 2.061 1_565 S
O440 C443 1.235 . S
C441 O444 1.238 . S
C441 O445 1.241 . S
C442 O435 1.247 . S
C442 O436 1.261 . S
C443 O438 1.259 . S
C443 O440 1.235 . S
O444 Co434 2.021 . S
O444 C441 1.238 . S
O445 Co439 2.052 1_565 S
O445 C441 1.241 . S
O446 Co434 2.137 . S
O446 C437 1.247 . S
O447 Co434 2.244 . S
O447 C437 1.272 . S
O447 Co439 2.135 1_565 S
Co448 O449 2.216 . S
Co448 O450 2.091 . S
Co448 O452 2.004 . S
Co448 O458 2.021 . S
Co448 O460 2.137 . S
Co448 O461 2.244 . S
O449 Co448 2.216 . S
O449 C456 1.247 . S
O450 Co448 2.091 . S
O450 C456 1.261 . S
C451 O460 1.247 . S
C451 O461 1.272 . S
O452 Co448 2.004 . S
O452 C457 1.259 . S
Co453 O454 2.061 1_655 S
Co453 O459 2.052 1_655 S
Co453 O461 2.135 1_655 S
O454 Co453 2.061 1_455 S
O454 C457 1.235 . S
C455 O458 1.238 . S
C455 O459 1.241 . S
C456 O449 1.247 . S
C456 O450 1.261 . S
C457 O452 1.259 . S
C457 O454 1.235 . S
O458 Co448 2.021 . S
O458 C455 1.238 . S
O459 Co453 2.052 1_455 S
O459 C455 1.241 . S
O460 Co448 2.137 . S
O460 C451 1.247 . S
O461 Co448 2.244 . S
O461 C451 1.272 . S
O461 Co453 2.135 1_455 S
Co462 O463 2.216 . S
Co462 O464 2.091 . S
Co462 O466 2.004 . S
Co462 O472 2.021 . S
Co462 O474 2.137 . S
Co462 O475 2.244 . S
O463 Co462 2.216 . S
O463 C470 1.247 . S
O464 Co462 2.091 . S
O464 C470 1.261 . S
C465 O474 1.247 . S
C465 O475 1.272 . S
O466 Co462 2.004 . S
O466 C471 1.259 . S
Co467 O468 2.061 . S
Co467 O473 2.052 . S
Co467 O475 2.135 . S
O468 Co467 2.061 . S
O468 C471 1.235 . S
C469 O472 1.238 . S
C469 O473 1.241 . S
C470 O463 1.247 . S
C470 O464 1.261 . S
C471 O466 1.259 . S
C471 O468 1.235 . S
O472 Co462 2.021 . S
O472 C469 1.238 . S
O473 Co467 2.052 . S
O473 C469 1.241 . S
O474 Co462 2.137 . S
O474 C465 1.247 . S
O475 Co462 2.244 . S
O475 C465 1.272 . S
O475 Co467 2.135 . S
Co476 O477 2.216 . S
Co476 O478 2.091 . S
Co476 O480 2.004 . S
Co476 O486 2.021 . S
Co476 O488 2.137 . S
Co476 O489 2.244 . S
O477 Co476 2.216 . S
O477 C484 1.247 . S
O478 Co476 2.091 . S
O478 C484 1.261 . S
C479 O488 1.247 . S
C479 O489 1.272 . S
O480 Co476 2.004 . S
O480 C485 1.259 . S
Co481 O482 2.061 . S
Co481 O487 2.052 . S
Co481 O489 2.135 . S
O482 Co481 2.061 . S
O482 C485 1.235 . S
C483 O486 1.238 . S
C483 O487 1.241 . S
C484 O477 1.247 . S
C484 O478 1.261 . S
C485 O480 1.259 . S
C485 O482 1.235 . S
O486 Co476 2.021 . S
O486 C483 1.238 . S
O487 Co481 2.052 . S
O487 C483 1.241 . S
O488 Co476 2.137 . S
O488 C479 1.247 . S
O489 Co476 2.244 . S
O489 C479 1.272 . S
O489 Co481 2.135 . S
Co490 O491 2.216 . S
Co490 O492 2.091 . S
Co490 O494 2.004 . S
Co490 O500 2.021 . S
Co490 O502 2.137 . S
Co490 O503 2.244 . S
O491 Co490 2.216 . S
O491 C498 1.247 . S
O492 Co490 2.091 . S
O492 C498 1.261 . S
C493 O502 1.247 . S
C493 O503 1.272 . S
O494 Co490 2.004 . S
O494 C499 1.259 . S
Co495 O496 2.061 . S
Co495 O501 2.052 . S
Co495 O503 2.135 . S
O496 Co495 2.061 . S
O496 C499 1.235 . S
C497 O500 1.238 . S
C497 O501 1.241 . S
C498 O491 1.247 . S
C498 O492 1.261 . S
C499 O494 1.259 . S
C499 O496 1.235 . S
O500 Co490 2.021 . S
O500 C497 1.238 . S
O501 Co495 2.052 . S
O501 C497 1.241 . S
O502 Co490 2.137 . S
O502 C493 1.247 . S
O503 Co490 2.244 . S
O503 C493 1.272 . S
O503 Co495 2.135 . S
H504 C512 0.929 . S
H505 C514 0.930 1_554 S
H506 C516 0.930 . S
H507 C519 0.929 . S
H508 C522 0.930 . S
H509 C524 0.960 . S
H510 C524 0.960 . S
H511 C524 0.960 . S
C512 H504 0.929 . S
C512 C513 1.377 . S
C512 C514 1.384 . S
C513 C512 1.377 . S
C513 C519 1.390 . S
C514 H505 0.930 1_556 S
C514 C512 1.384 . S
C514 C515 1.372 . S
C515 C514 1.372 . S
C515 C516 1.400 . S
C515 C520 1.490 . S
C516 H506 0.930 . S
C516 C515 1.400 . S
C516 C519 1.386 . S
H517 C533 0.930 1_556 S
H518 C534 0.931 . S
C519 H507 0.929 . S
C519 C513 1.390 . S
C519 C516 1.386 . S
C520 C515 1.490 . S
C520 C522 1.395 . S
C520 C523 1.403 1_556 S
H521 C527 0.930 . S
C522 H508 0.930 . S
C522 C520 1.395 . S
C522 C525 1.403 1_655 S
C523 C520 1.403 1_554 S
C523 C524 1.524 . S
C523 C527 1.400 1_655 S
C524 H509 0.960 . S
C524 H510 0.960 . S
C524 H511 0.960 . S
C524 C523 1.524 . S
C525 C522 1.403 1_455 S
C525 C526 1.390 . S
C525 C529 1.495 . S
C526 C525 1.390 . S
C526 C527 1.387 1_556 S
C526 C528 1.478 1_556 S
C527 H521 0.930 . S
C527 C523 1.400 1_455 S
C527 C526 1.387 1_554 S
C528 C526 1.478 1_554 S
C528 C530 1.381 . S
C528 C534 1.383 1_554 S
C529 C525 1.495 . S
C529 H535 0.959 . S
C529 H536 0.961 . S
C529 H537 0.960 . S
C530 C528 1.381 . S
C530 C531 1.394 . S
C530 H538 0.930 . S
C531 C530 1.394 . S
C531 C532 1.383 . S
C531 H539 0.929 . S
C532 C531 1.383 . S
C532 C533 1.377 . S
C533 H517 0.930 1_554 S
C533 C532 1.377 . S
C533 C534 1.379 1_554 S
C534 H518 0.931 . S
C534 C528 1.383 1_556 S
C534 C533 1.379 1_556 S
H535 C529 0.959 . S
H536 C529 0.961 . S
H537 C529 0.960 . S
H538 C530 0.930 . S
H539 C531 0.929 . S
H540 C548 0.929 . S
H541 C550 0.930 . S
H542 C552 0.930 . S
H543 C555 0.929 . S
H544 C558 0.930 . S
H545 C560 0.960 . S
H546 C560 0.960 . S
H547 C560 0.960 . S
C548 H540 0.929 . S
C548 C549 1.377 1_554 S
C548 C550 1.384 . S
C549 C548 1.377 1_556 S
C549 C555 1.390 . S
C550 H541 0.930 . S
C550 C548 1.384 . S
C550 C551 1.372 1_554 S
C551 C550 1.372 1_556 S
C551 C552 1.400 . S
C551 C556 1.490 . S
C552 H542 0.930 . S
C552 C551 1.400 . S
C552 C555 1.386 . S
H553 C569 0.930 . S
H554 C570 0.931 . S
C555 H543 0.929 . S
C555 C549 1.390 . S
C555 C552 1.386 . S
C556 C551 1.490 . S
C556 C558 1.395 . S
C556 C559 1.403 1_556 S
H557 C563 0.930 . S
C558 H544 0.930 . S
C558 C556 1.395 . S
C558 C561 1.403 . S
C559 C556 1.403 1_554 S
C559 C560 1.524 . S
C559 C563 1.400 . S
C560 H545 0.960 . S
C560 H546 0.960 . S
C560 H547 0.960 . S
C560 C559 1.524 . S
C561 C558 1.403 . S
C561 C562 1.392 1_556 S
C561 C565 1.495 . S
C562 C561 1.392 1_554 S
C562 C563 1.385 . S
C562 C564 1.478 . S
C563 H557 0.930 . S
C563 C559 1.400 . S
C563 C562 1.385 . S
C564 C562 1.478 . S
C564 C566 1.381 . S
C564 C570 1.383 1_554 S
C565 C561 1.495 . S
C565 H571 0.959 . S
C565 H572 0.961 . S
C565 H573 0.960 . S
C566 C564 1.381 . S
C566 C567 1.394 . S
C566 H574 0.930 . S
C567 C566 1.394 . S
C567 C568 1.383 . S
C567 H575 0.929 . S
C568 C567 1.383 . S
C568 C569 1.377 1_554 S
C569 H553 0.930 . S
C569 C568 1.377 1_556 S
C569 C570 1.379 . S
C570 H554 0.931 . S
C570 C564 1.383 1_556 S
C570 C569 1.379 . S
H571 C565 0.959 . S
H572 C565 0.961 . S
H573 C565 0.960 . S
H574 C566 0.930 . S
H575 C567 0.929 . S
H576 C584 0.929 . S
H577 C586 0.930 . S
H578 C588 0.930 . S
H579 C591 0.929 . S
H580 C594 0.930 . S
H581 C596 0.960 . S
H582 C596 0.968 . S
H583 C596 0.960 . S
C584 H576 0.929 . S
C584 C585 1.377 1_554 S
C584 C586 1.384 . S
C585 C584 1.377 1_556 S
C585 C591 1.390 . S
C586 H577 0.930 . S
C586 C584 1.384 . S
C586 C587 1.372 1_554 S
C587 C586 1.372 1_556 S
C587 C588 1.400 . S
C587 C592 1.490 . S
C588 H578 0.930 . S
C588 C587 1.400 . S
C588 C591 1.386 . S
H589 C605 0.930 . S
H590 C606 0.931 . S
C591 H579 0.929 . S
C591 C585 1.390 . S
C591 C588 1.386 . S
C592 C587 1.490 . S
C592 C594 1.395 1_556 S
C592 C595 1.403 . S
H593 C599 0.930 . S
C594 H580 0.930 . S
C594 C592 1.395 1_554 S
C594 C597 1.403 1_545 S
C595 C592 1.403 . S
C595 C596 1.524 . S
C595 C599 1.400 1_545 S
C596 H581 0.960 . S
C596 H582 0.968 . S
C596 H583 0.960 . S
C596 C595 1.524 . S
C597 C594 1.403 1_565 S
C597 C598 1.392 . S
C597 C601 1.495 . S
C598 C597 1.392 . S
C598 C599 1.385 1_554 S
C598 C600 1.478 . S
C599 H593 0.930 . S
C599 C595 1.400 1_565 S
C599 C598 1.385 1_556 S
C600 C598 1.478 . S
C600 C602 1.381 . S
C600 C606 1.383 1_554 S
C601 C597 1.495 . S
C601 H607 0.959 . S
C601 H608 0.961 . S
C601 H609 0.960 . S
C602 C600 1.381 . S
C602 C603 1.394 . S
C602 H610 0.930 . S
C603 C602 1.394 . S
C603 C604 1.383 . S
C603 H611 0.929 . S
C604 C603 1.383 . S
C604 C605 1.377 1_554 S
C605 H589 0.930 . S
C605 C604 1.377 1_556 S
C605 C606 1.379 . S
C606 H590 0.931 . S
C606 C600 1.383 1_556 S
C606 C605 1.379 . S
H607 C601 0.959 . S
H608 C601 0.961 . S
H609 C601 0.960 . S
H610 C602 0.930 . S
H611 C603 0.929 . S
H612 C620 0.929 . S
H613 C622 0.930 . S
H614 C624 0.930 . S
H615 C627 0.929 . S
H616 C630 0.930 . S
H617 C632 0.960 . S
H618 C632 0.960 1_554 S
H619 C632 0.960 . S
C620 H612 0.929 . S
C620 C621 1.377 . S
C620 C622 1.384 . S
C621 C620 1.377 . S
C621 C627 1.390 1_554 S
C622 H613 0.930 . S
C622 C620 1.384 . S
C622 C623 1.372 . S
C623 C622 1.372 . S
C623 C624 1.400 1_554 S
C623 C628 1.490 . S
C624 H614 0.930 . S
C624 C623 1.400 1_556 S
C624 C627 1.386 . S
H625 C641 0.930 . S
H626 C642 0.931 . S
C627 H615 0.929 . S
C627 C621 1.390 1_556 S
C627 C624 1.386 . S
C628 C623 1.490 . S
C628 C630 1.395 . S
C628 C631 1.403 1_554 S
H629 C635 0.930 . S
C630 H616 0.930 . S
C630 C628 1.395 . S
C630 C633 1.403 1_455 S
C631 C628 1.403 1_556 S
C631 C632 1.524 . S
C631 C635 1.400 1_455 S
C632 H617 0.960 . S
C632 H618 0.960 1_556 S
C632 H619 0.960 . S
C632 C631 1.524 . S
C633 C630 1.403 1_655 S
C633 C634 1.392 1_554 S
C633 C637 1.495 . S
C634 C633 1.392 1_556 S
C634 C635 1.385 . S
C634 C636 1.478 . S
C635 H629 0.930 . S
C635 C631 1.400 1_655 S
C635 C634 1.385 . S
C636 C634 1.478 . S
C636 C638 1.381 1_556 S
C636 C642 1.383 . S
C637 C633 1.495 . S
C637 H643 0.959 . S
C637 H644 0.961 1_554 S
C637 H645 0.960 . S
C638 C636 1.381 1_554 S
C638 C639 1.394 . S
C638 H646 0.930 . S
C639 C638 1.394 . S
C639 C640 1.383 1_554 S
C639 H647 0.929 . S
C640 C639 1.383 1_556 S
C640 C641 1.377 . S
C641 H625 0.930 . S
C641 C640 1.377 . S
C641 C642 1.379 . S
C642 H626 0.931 . S
C642 C636 1.383 . S
C642 C641 1.379 . S
H643 C637 0.959 . S
H644 C637 0.961 1_556 S
H645 C637 0.960 . S
H646 C638 0.930 . S
H647 C639 0.929 . S
H648 C656 0.929 . S
H649 C658 0.930 . S
H650 C660 0.930 . S
H651 C663 0.929 . S
H652 C666 0.930 . S
H653 C668 0.960 . S
H654 C668 0.960 . S
H655 C668 0.960 1_556 S
C656 H648 0.929 . S
C656 C657 1.377 1_554 S
C656 C658 1.384 . S
C657 C656 1.377 1_556 S
C657 C663 1.390 . S
C658 H649 0.930 . S
C658 C656 1.384 . S
C658 C659 1.372 1_554 S
C659 C658 1.372 1_556 S
C659 C660 1.400 . S
C659 C664 1.490 . S
C660 H650 0.930 . S
C660 C659 1.400 . S
C660 C663 1.386 . S
H661 C677 0.930 . S
H662 C678 0.931 . S
C663 H651 0.929 . S
C663 C657 1.390 . S
C663 C660 1.386 . S
C664 C659 1.490 . S
C664 C666 1.395 . S
C664 C667 1.403 1_556 S
H665 C671 0.930 . S
C666 H652 0.930 . S
C666 C664 1.395 . S
C666 C669 1.403 . S
C667 C664 1.403 1_554 S
C667 C668 1.524 . S
C667 C671 1.400 . S
C668 H653 0.960 . S
C668 H654 0.960 . S
C668 H655 0.960 1_554 S
C668 C667 1.524 . S
C669 C666 1.403 . S
C669 C670 1.392 1_556 S
C669 C673 1.495 . S
C670 C669 1.392 1_554 S
C670 C671 1.385 . S
C670 C672 1.478 . S
C671 H665 0.930 . S
C671 C667 1.400 . S
C671 C670 1.385 . S
C672 C670 1.478 . S
C672 C674 1.381 . S
C672 C678 1.383 1_554 S
C673 C669 1.495 . S
C673 H679 0.959 . S
C673 H680 0.961 . S
C673 H681 0.960 1_556 S
C674 C672 1.381 . S
C674 C675 1.394 . S
C674 H682 0.930 . S
C675 C674 1.394 . S
C675 C676 1.383 . S
C675 H683 0.929 . S
C676 C675 1.383 . S
C676 C677 1.377 1_554 S
C677 H661 0.930 . S
C677 C676 1.377 1_556 S
C677 C678 1.379 . S
C678 H662 0.931 . S
C678 C672 1.383 1_556 S
C678 C677 1.379 . S
H679 C673 0.959 . S
H680 C673 0.961 . S
H681 C673 0.960 1_554 S
H682 C674 0.930 . S
H683 C675 0.929 . S
H684 C692 0.929 . S
H685 C694 0.930 . S
H686 C696 0.930 . S
H687 C699 0.929 . S
H688 C702 0.930 . S
H689 C704 0.960 . S
H690 C704 0.960 1_556 S
H691 C704 0.960 . S
C692 H684 0.929 . S
C692 C693 1.377 1_556 S
C692 C694 1.384 . S
C693 C692 1.377 1_554 S
C693 C699 1.390 . S
C694 H685 0.930 . S
C694 C692 1.384 . S
C694 C695 1.372 1_556 S
C695 C694 1.372 1_554 S
C695 C696 1.400 . S
C695 C700 1.490 . S
C696 H686 0.930 . S
C696 C695 1.400 . S
C696 C699 1.386 . S
H697 C713 0.930 . S
H698 C714 0.931 . S
C699 H687 0.929 . S
C699 C693 1.390 . S
C699 C696 1.386 . S
C700 C695 1.490 . S
C700 C702 1.392 1_554 S
C700 C703 1.403 . S
H701 C707 0.930 . S
C702 H688 0.930 . S
C702 C700 1.392 1_556 S
C702 C705 1.407 1_565 S
C703 C700 1.403 . S
C703 C704 1.524 . S
C703 C707 1.400 1_564 S
C704 H689 0.960 . S
C704 H690 0.960 1_554 S
C704 H691 0.960 . S
C704 C703 1.524 . S
C705 C702 1.407 1_545 S
C705 C706 1.392 . S
C705 C709 1.495 . S
C706 C705 1.392 . S
C706 C707 1.385 . S
C706 C708 1.478 . S
C707 H701 0.930 . S
C707 C703 1.400 1_546 S
C707 C706 1.385 . S
C708 C706 1.478 . S
C708 C710 1.381 . S
C708 C714 1.383 1_556 S
C709 C705 1.495 . S
C709 H715 0.959 . S
C709 H716 0.961 1_556 S
C709 H717 0.960 . S
C710 C708 1.381 . S
C710 C711 1.394 . S
C710 H718 0.930 . S
C711 C710 1.394 . S
C711 C712 1.383 . S
C711 H719 0.929 . S
C712 C711 1.383 . S
C712 C713 1.377 1_556 S
C713 H697 0.930 . S
C713 C712 1.377 1_554 S
C713 C714 1.379 . S
C714 H698 0.931 . S
C714 C708 1.383 1_554 S
C714 C713 1.379 . S
H715 C709 0.959 . S
H716 C709 0.961 1_554 S
H717 C709 0.960 . S
H718 C710 0.930 . S
H719 C711 0.929 . S
H720 C728 0.929 . S
H721 C730 0.930 . S
H722 C732 0.930 . S
H723 C735 0.929 . S
H724 C738 0.930 . S
H725 C740 0.960 . S
H726 C740 0.960 . S
H727 C740 0.960 . S
C728 H720 0.929 . S
C728 C729 1.377 . S
C728 C730 1.384 . S
C729 C728 1.377 . S
C729 C735 1.390 . S
C730 H721 0.930 . S
C730 C728 1.384 . S
C730 C731 1.372 . S
C731 C730 1.372 . S
C731 C732 1.400 . S
C731 C736 1.490 . S
C732 H722 0.930 . S
C732 C731 1.400 . S
C732 C735 1.386 . S
H733 C749 0.930 . S
H734 C750 0.931 . S
C735 H723 0.929 . S
C735 C729 1.390 . S
C735 C732 1.386 . S
C736 C731 1.490 . S
C736 C738 1.395 . S
C736 C739 1.403 . S
H737 C743 0.930 . S
C738 H724 0.930 . S
C738 C736 1.395 . S
C738 C741 1.403 . S
C739 C736 1.403 . S
C739 C740 1.524 . S
C739 C743 1.400 . S
C740 H725 0.960 . S
C740 H726 0.960 . S
C740 H727 0.960 . S
C740 C739 1.524 . S
C741 C738 1.403 . S
C741 C742 1.392 . S
C741 C745 1.495 . S
C742 C741 1.392 . S
C742 C743 1.385 . S
C742 C744 1.478 . S
C743 H737 0.930 . S
C743 C739 1.400 . S
C743 C742 1.385 . S
C744 C742 1.478 . S
C744 C746 1.381 . S
C744 C750 1.383 . S
C745 C741 1.495 . S
C745 H751 0.959 . S
C745 H752 0.961 . S
C745 H753 0.960 . S
C746 C744 1.381 . S
C746 C747 1.394 . S
C746 H754 0.930 . S
C747 C746 1.394 . S
C747 C748 1.383 . S
C747 H755 0.929 . S
C748 C747 1.383 . S
C748 C749 1.377 . S
C749 H733 0.930 . S
C749 C748 1.377 . S
C749 C750 1.379 . S
C750 H734 0.931 . S
C750 C744 1.383 . S
C750 C749 1.379 . S
H751 C745 0.959 . S
H752 C745 0.961 . S
H753 C745 0.960 . S
H754 C746 0.930 . S
H755 C747 0.929 . S
H756 C764 0.929 . S
H757 C766 0.930 . S
H758 C768 0.930 . S
H759 C771 0.929 . S
H760 C774 0.930 . S
H761 C776 0.960 1_545 S
H762 C776 0.960 . S
H763 C776 0.947 . S
C764 H756 0.929 . S
C764 C765 1.377 . S
C764 C766 1.384 . S
C765 C764 1.377 . S
C765 C771 1.390 . S
C766 H757 0.930 . S
C766 C764 1.384 . S
C766 C767 1.372 . S
C767 C766 1.372 . S
C767 C768 1.400 . S
C767 C772 1.490 . S
C768 H758 0.930 . S
C768 C767 1.400 . S
C768 C771 1.386 . S
H769 C785 0.930 . S
H770 C786 0.931 . S
C771 H759 0.929 . S
C771 C765 1.390 . S
C771 C768 1.386 . S
C772 C767 1.490 . S
C772 C774 1.395 . S
C772 C775 1.403 . S
H773 C779 0.930 1_545 S
C774 H760 0.930 . S
C774 C772 1.395 . S
C774 C777 1.403 . S
C775 C772 1.403 . S
C775 C776 1.524 . S
C775 C779 1.400 . S
C776 H761 0.960 1_565 S
C776 H762 0.960 . S
C776 H763 0.947 . S
C776 C775 1.524 . S
C777 C774 1.403 . S
C777 C778 1.392 . S
C777 C781 1.495 . S
C778 C777 1.392 . S
C778 C779 1.385 . S
C778 C780 1.478 . S
C779 H773 0.930 1_565 S
C779 C775 1.400 . S
C779 C778 1.385 . S
C780 C778 1.478 . S
C780 C782 1.381 . S
C780 C786 1.383 1_565 S
C781 C777 1.495 . S
C781 H787 0.959 . S
C781 H788 0.961 . S
C781 H789 0.960 . S
C782 C780 1.381 . S
C782 C783 1.394 1_565 S
C782 H790 0.930 . S
C783 C782 1.394 1_545 S
C783 C784 1.383 . S
C783 H791 0.928 . S
C784 C783 1.383 . S
C784 C785 1.377 . S
C785 H769 0.930 . S
C785 C784 1.377 . S
C785 C786 1.379 . S
C786 H770 0.931 . S
C786 C780 1.383 1_545 S
C786 C785 1.379 . S
H787 C781 0.959 . S
H788 C781 0.961 . S
H789 C781 0.960 . S
H790 C782 0.930 . S
H791 C783 0.928 . S
H792 C800 0.929 . S
H793 C802 0.930 . S
H794 C804 0.930 . S
H795 C807 0.929 1_455 S
H796 C810 0.930 1_655 S
H797 C812 0.960 . S
H798 C812 0.960 . S
H799 C812 0.960 . S
C800 H792 0.929 . S
C800 C801 1.377 . S
C800 C802 1.384 . S
C801 C800 1.377 . S
C801 C807 1.390 . S
C802 H793 0.930 . S
C802 C800 1.384 . S
C802 C803 1.372 . S
C803 C802 1.372 . S
C803 C804 1.400 1_655 S
C803 C808 1.490 1_655 S
C804 H794 0.930 . S
C804 C803 1.400 1_455 S
C804 C807 1.386 1_455 S
H805 C821 0.930 . S
H806 C822 0.931 . S
C807 H795 0.929 1_655 S
C807 C801 1.390 . S
C807 C804 1.386 1_655 S
C808 C803 1.490 1_455 S
C808 C810 1.395 . S
C808 C811 1.403 . S
H809 C815 0.930 . S
C810 H796 0.930 1_455 S
C810 C808 1.395 . S
C810 C813 1.403 . S
C811 C808 1.403 . S
C811 C812 1.524 . S
C811 C815 1.400 . S
C812 H797 0.960 . S
C812 H798 0.960 . S
C812 H799 0.960 . S
C812 C811 1.524 . S
C813 C810 1.403 . S
C813 C814 1.392 . S
C813 C817 1.495 . S
C814 C813 1.392 . S
C814 C815 1.385 . S
C814 C816 1.478 . S
C815 H809 0.930 . S
C815 C811 1.400 . S
C815 C814 1.385 . S
C816 C814 1.478 . S
C816 C818 1.381 . S
C816 C822 1.383 . S
C817 C813 1.495 . S
C817 H823 0.959 1_455 S
C817 H824 0.961 . S
C817 H825 0.960 . S
C818 C816 1.381 . S
C818 C819 1.394 . S
C818 H826 0.930 . S
C819 C818 1.394 . S
C819 C820 1.383 . S
C819 H827 0.929 . S
C820 C819 1.383 . S
C820 C821 1.377 . S
C821 H805 0.930 . S
C821 C820 1.377 . S
C821 C822 1.379 . S
C822 H806 0.931 . S
C822 C816 1.383 . S
C822 C821 1.379 . S
H823 C817 0.959 1_655 S
H824 C817 0.961 . S
H825 C817 0.960 . S
H826 C818 0.930 . S
H827 C819 0.929 . S
H828 C836 0.929 . S
H829 C838 0.930 . S
H830 C840 0.930 . S
H831 C843 0.929 . S
H832 C846 0.930 . S
H833 C848 0.960 . S
H834 C848 0.960 . S
H835 C848 0.960 . S
C836 H828 0.929 . S
C836 C837 1.377 . S
C836 C838 1.384 . S
C837 C836 1.377 . S
C837 C843 1.390 . S
C838 H829 0.930 . S
C838 C836 1.384 . S
C838 C839 1.372 . S
C839 C838 1.372 . S
C839 C840 1.400 . S
C839 C844 1.490 . S
C840 H830 0.930 . S
C840 C839 1.400 . S
C840 C843 1.386 . S
H841 C857 0.930 . S
H842 C858 0.893 1_565 S
C843 H831 0.929 . S
C843 C837 1.390 . S
C843 C840 1.386 . S
C844 C839 1.490 . S
C844 C846 1.395 . S
C844 C847 1.403 . S
H845 C851 0.930 . S
C846 H832 0.930 . S
C846 C844 1.395 . S
C846 C849 1.403 1_565 S
C847 C844 1.403 . S
C847 C848 1.524 . S
C847 C851 1.400 . S
C848 H833 0.960 . S
C848 H834 0.960 . S
C848 H835 0.960 . S
C848 C847 1.524 . S
C849 C846 1.403 1_545 S
C849 C850 1.392 1_545 S
C849 C853 1.495 . S
C850 C849 1.392 1_565 S
C850 C851 1.385 . S
C850 C852 1.478 1_565 S
C851 H845 0.930 . S
C851 C847 1.400 . S
C851 C850 1.385 . S
C852 C850 1.478 1_545 S
C852 C854 1.381 . S
C852 C858 1.429 . S
C853 C849 1.495 . S
C853 H859 0.959 . S
C853 H860 0.961 . S
C853 H861 0.960 . S
C854 C852 1.381 . S
C854 C855 1.394 . S
C854 H862 0.930 . S
C855 C854 1.394 . S
C855 C856 1.383 . S
C855 H863 0.929 . S
C856 C855 1.383 . S
C856 C857 1.377 . S
C857 H841 0.930 . S
C857 C856 1.377 . S
C857 C858 1.378 . S
C858 H842 0.893 1_545 S
C858 C852 1.429 . S
C858 C857 1.378 . S
H859 C853 0.959 . S
H860 C853 0.961 . S
H861 C853 0.960 . S
H862 C854 0.930 . S
H863 C855 0.929 . S
H864 C872 0.929 . S
H865 C874 0.930 . S
H866 C876 0.930 . S
H867 C879 0.929 1_455 S
H868 C882 0.888 1_655 S
H869 C884 0.960 . S
H870 C884 0.960 . S
H871 C884 0.960 . S
C872 H864 0.929 . S
C872 C873 1.377 . S
C872 C874 1.384 . S
C873 C872 1.377 . S
C873 C879 1.390 . S
C874 H865 0.930 . S
C874 C872 1.384 . S
C874 C875 1.372 . S
C875 C874 1.372 . S
C875 C876 1.400 1_655 S
C875 C880 1.490 1_655 S
C876 H866 0.930 . S
C876 C875 1.400 1_455 S
C876 C879 1.386 1_455 S
H877 C893 0.930 . S
H878 C894 0.931 . S
C879 H867 0.929 1_655 S
C879 C873 1.390 . S
C879 C876 1.386 1_655 S
C880 C875 1.490 1_455 S
C880 C882 1.392 . S
C880 C883 1.403 . S
H881 C887 0.930 . S
C882 H868 0.888 1_455 S
C882 C880 1.392 . S
C882 C885 1.449 . S
C883 C880 1.403 . S
C883 C884 1.524 . S
C883 C887 1.400 . S
C884 H869 0.960 . S
C884 H870 0.960 . S
C884 H871 0.960 . S
C884 C883 1.524 . S
C885 C882 1.449 . S
C885 C886 1.392 . S
C885 C889 1.495 . S
C886 C885 1.392 . S
C886 C887 1.385 . S
C886 C888 1.478 . S
C887 H881 0.930 . S
C887 C883 1.400 . S
C887 C886 1.385 . S
C888 C886 1.478 . S
C888 C890 1.381 . S
C888 C894 1.383 . S
C889 C885 1.495 . S
C889 H895 0.959 1_455 S
C889 H896 0.961 . S
C889 H897 0.980 1_455 S
C890 C888 1.381 . S
C890 C891 1.394 . S
C890 H898 0.930 . S
C891 C890 1.394 . S
C891 C892 1.383 . S
C891 H899 0.929 . S
C892 C891 1.383 . S
C892 C893 1.377 . S
C893 H877 0.930 . S
C893 C892 1.377 . S
C893 C894 1.379 . S
C894 H878 0.931 . S
C894 C888 1.383 . S
C894 C893 1.379 . S
H895 C889 0.959 1_655 S
H896 C889 0.961 . S
H897 C889 0.980 1_655 S
H898 C890 0.930 . S
H899 C891 0.929 . S
H900 C908 0.929 . S
H901 C910 0.930 . S
H902 C912 0.930 . S
H903 C915 0.929 . S
H904 C918 0.930 . S
H905 C920 0.960 . S
H906 C920 0.960 . S
H907 C920 0.960 . S
C908 H900 0.929 . S
C908 C909 1.377 . S
C908 C910 1.384 . S
C909 C908 1.377 . S
C909 C915 1.390 . S
C910 H901 0.930 . S
C910 C908 1.384 . S
C910 C911 1.372 . S
C911 C910 1.372 . S
C911 C912 1.400 . S
C911 C916 1.490 . S
C912 H902 0.930 . S
C912 C911 1.400 . S
C912 C915 1.386 . S
H913 C929 0.930 . S
H914 C930 0.931 . S
C915 H903 0.929 . S
C915 C909 1.390 . S
C915 C912 1.386 . S
C916 C911 1.490 . S
C916 C918 1.395 . S
C916 C919 1.403 . S
H917 C923 0.930 . S
C918 H904 0.930 . S
C918 C916 1.395 . S
C918 C921 1.403 . S
C919 C916 1.403 . S
C919 C920 1.524 . S
C919 C923 1.400 . S
C920 H905 0.960 . S
C920 H906 0.960 . S
C920 H907 0.960 . S
C920 C919 1.524 . S
C921 C918 1.403 . S
C921 C922 1.392 . S
C921 C925 1.495 . S
C922 C921 1.392 . S
C922 C923 1.385 . S
C922 C924 1.478 . S
C923 H917 0.930 . S
C923 C919 1.400 . S
C923 C922 1.385 . S
C924 C922 1.478 . S
C924 C926 1.381 . S
C924 C930 1.383 . S
C925 C921 1.495 . S
C925 H931 0.959 . S
C925 H932 0.961 . S
C925 H933 0.960 . S
C926 C924 1.381 . S
C926 C927 1.394 . S
C926 H934 0.930 . S
C927 C926 1.394 . S
C927 C928 1.383 . S
C927 H935 0.929 . S
C928 C927 1.383 . S
C928 C929 1.377 . S
C929 H913 0.930 . S
C929 C928 1.377 . S
C929 C930 1.379 . S
C930 H914 0.931 . S
C930 C924 1.383 . S
C930 C929 1.379 . S
H931 C925 0.959 . S
H932 C925 0.961 . S
H933 C925 0.960 . S
H934 C926 0.930 . S
H935 C927 0.929 . S
H936 C944 0.929 . S
H937 C946 0.930 . S
H938 C948 0.930 . S
H939 C951 0.929 . S
H940 C954 0.930 . S
H941 C956 0.960 . S
H942 C956 0.960 . S
H943 C956 0.960 . S
C944 H936 0.929 . S
C944 C945 1.377 . S
C944 C946 1.384 1_565 S
C945 C944 1.377 . S
C945 C951 1.390 . S
C946 H937 0.930 . S
C946 C944 1.384 1_545 S
C946 C947 1.326 1_545 S
C947 C946 1.326 1_565 S
C947 C948 1.451 . S
C947 C952 1.488 1_565 S
C948 H938 0.930 . S
C948 C947 1.451 . S
C948 C951 1.386 . S
H949 C965 0.930 . S
H950 C966 0.931 . S
C951 H939 0.929 . S
C951 C945 1.390 . S
C951 C948 1.386 . S
C952 C947 1.488 1_545 S
C952 C954 1.395 . S
C952 C955 1.403 . S
H953 C959 0.930 . S
C954 H940 0.930 . S
C954 C952 1.395 . S
C954 C957 1.403 . S
C955 C952 1.403 . S
C955 C956 1.524 1_545 S
C955 C959 1.400 . S
C956 H941 0.960 . S
C956 H942 0.960 . S
C956 H943 0.960 . S
C956 C955 1.524 1_565 S
C957 C954 1.403 . S
C957 C958 1.392 . S
C957 C961 1.495 . S
C958 C957 1.392 . S
C958 C959 1.385 . S
C958 C960 1.478 . S
C959 H953 0.930 . S
C959 C955 1.400 . S
C959 C958 1.385 . S
C960 C958 1.478 . S
C960 C962 1.381 . S
C960 C966 1.383 . S
C961 C957 1.495 . S
C961 H967 0.959 . S
C961 H968 0.961 . S
C961 H969 0.960 . S
C962 C960 1.381 . S
C962 C963 1.394 . S
C962 H970 0.930 . S
C963 C962 1.394 . S
C963 C964 1.383 . S
C963 H971 0.929 . S
C964 C963 1.383 . S
C964 C965 1.377 . S
C965 H949 0.930 . S
C965 C964 1.377 . S
C965 C966 1.379 . S
C966 H950 0.931 . S
C966 C960 1.383 . S
C966 C965 1.379 . S
H967 C961 0.959 . S
H968 C961 0.961 . S
H969 C961 0.960 . S
H970 C962 0.930 . S
H971 C963 0.929 . S
H972 C980 0.929 . S
H973 C982 0.930 . S
H974 C984 0.930 . S
H975 C987 0.929 . S
H976 C990 0.930 . S
H977 C992 0.960 . S
H978 C992 0.960 . S
H979 C992 0.960 . S
C980 H972 0.929 . S
C980 C981 1.377 . S
C980 C982 1.384 . S
C981 C980 1.377 . S
C981 C987 1.390 . S
C982 H973 0.930 . S
C982 C980 1.384 . S
C982 C983 1.372 . S
C983 C982 1.372 . S
C983 C984 1.400 . S
C983 C988 1.490 . S
C984 H974 0.930 . S
C984 C983 1.400 . S
C984 C987 1.386 . S
H985 C1001 0.930 . S
H986 C1002 0.931 . S
C987 H975 0.929 . S
C987 C981 1.390 . S
C987 C984 1.386 . S
C988 C983 1.490 . S
C988 C990 1.395 . S
C988 C991 1.403 . S
H989 C995 0.930 . S
C990 H976 0.930 . S
C990 C988 1.395 . S
C990 C993 1.403 . S
C991 C988 1.403 . S
C991 C992 1.524 . S
C991 C995 1.400 . S
C992 H977 0.960 . S
C992 H978 0.960 . S
C992 H979 0.960 . S
C992 C991 1.524 . S
C993 C990 1.403 . S
C993 C994 1.392 . S
C993 C997 1.495 1_655 S
C994 C993 1.392 . S
C994 C995 1.385 . S
C994 C996 1.478 1_655 S
C995 H989 0.930 . S
C995 C991 1.400 . S
C995 C994 1.385 . S
C996 C994 1.478 1_455 S
C996 C998 1.381 . S
C996 C1002 1.383 . S
C997 C993 1.495 1_455 S
C997 H1003 0.959 . S
C997 H1004 0.961 . S
C997 H1005 0.960 . S
C998 C996 1.381 . S
C998 C999 1.394 . S
C998 H1006 0.890 1_455 S
C999 C998 1.394 . S
C999 C1000 1.383 . S
C999 H1007 0.929 . S
C1000 C999 1.383 . S
C1000 C1001 1.377 . S
C1001 H985 0.930 . S
C1001 C1000 1.377 . S
C1001 C1002 1.379 . S
C1002 H986 0.931 . S
C1002 C996 1.383 . S
C1002 C1001 1.379 . S
H1003 C997 0.959 . S
H1004 C997 0.961 . S
H1005 C997 0.960 . S
H1006 C998 0.890 1_655 S
H1007 C999 0.929 . S
H1008 C1016 0.929 . S
H1009 C1018 0.930 . S
H1010 C1020 0.930 . S
H1011 C1023 0.929 . S
H1012 C1026 0.930 . S
H1013 C1028 0.960 . S
H1014 C1028 0.960 . S
H1015 C1028 0.960 . S
C1016 H1008 0.929 . S
C1016 C1017 1.377 . S
C1016 C1018 1.384 . S
C1017 C1016 1.377 . S
C1017 C1023 1.390 . S
C1018 H1009 0.930 . S
C1018 C1016 1.384 . S
C1018 C1019 1.372 . S
C1019 C1018 1.372 . S
C1019 C1020 1.400 . S
C1019 C1024 1.490 . S
C1020 H1010 0.930 . S
C1020 C1019 1.400 . S
C1020 C1023 1.386 . S
H1021 C1037 0.930 . S
H1022 C1038 0.931 . S
C1023 H1011 0.929 . S
C1023 C1017 1.390 . S
C1023 C1020 1.386 . S
C1024 C1019 1.490 . S
C1024 C1026 1.395 . S
C1024 C1027 1.403 . S
H1025 C1031 0.930 . S
C1026 H1012 0.930 . S
C1026 C1024 1.395 . S
C1026 C1029 1.403 . S
C1027 C1024 1.403 . S
C1027 C1028 1.524 . S
C1027 C1031 1.400 . S
C1028 H1013 0.960 . S
C1028 H1014 0.960 . S
C1028 H1015 0.960 . S
C1028 C1027 1.524 . S
C1029 C1026 1.403 . S
C1029 C1030 1.392 . S
C1029 C1033 1.495 . S
C1030 C1029 1.392 . S
C1030 C1031 1.385 . S
C1030 C1032 1.478 . S
C1031 H1025 0.930 . S
C1031 C1027 1.400 . S
C1031 C1030 1.385 . S
C1032 C1030 1.478 . S
C1032 C1034 1.381 . S
C1032 C1038 1.383 . S
C1033 C1029 1.495 . S
C1033 H1039 0.959 . S
C1033 H1040 0.961 . S
C1033 H1041 0.960 . S
C1034 C1032 1.381 . S
C1034 C1035 1.394 . S
C1034 H1042 0.930 . S
C1035 C1034 1.394 . S
C1035 C1036 1.383 . S
C1035 H1043 0.929 . S
C1036 C1035 1.383 . S
C1036 C1037 1.377 . S
C1037 H1021 0.930 . S
C1037 C1036 1.377 . S
C1037 C1038 1.379 . S
C1038 H1022 0.931 . S
C1038 C1032 1.383 . S
C1038 C1037 1.379 . S
H1039 C1033 0.959 . S
H1040 C1033 0.961 . S
H1041 C1033 0.960 . S
H1042 C1034 0.930 . S
H1043 C1035 0.929 . S
H1044 C1052 0.929 . S
H1045 C1054 0.930 . S
H1046 C1056 0.930 . S
H1047 C1059 0.929 . S
H1048 C1062 0.930 . S
H1049 C1064 0.960 . S
H1050 C1064 0.960 . S
H1051 C1064 0.960 . S
C1052 H1044 0.929 . S
C1052 C1053 1.377 . S
C1052 C1054 1.384 . S
C1053 C1052 1.377 . S
C1053 C1059 1.390 . S
C1054 H1045 0.930 . S
C1054 C1052 1.384 . S
C1054 C1055 1.372 . S
C1055 C1054 1.372 . S
C1055 C1056 1.400 . S
C1055 C1060 1.490 . S
C1056 H1046 0.930 . S
C1056 C1055 1.400 . S
C1056 C1059 1.386 . S
H1057 C1073 0.930 . S
H1058 C1074 0.931 . S
C1059 H1047 0.929 . S
C1059 C1053 1.390 . S
C1059 C1056 1.386 . S
C1060 C1055 1.490 . S
C1060 C1062 1.395 . S
C1060 C1063 1.403 . S
H1061 C1067 0.930 . S
C1062 H1048 0.930 . S
C1062 C1060 1.395 . S
C1062 C1065 1.403 . S
C1063 C1060 1.403 . S
C1063 C1064 1.524 . S
C1063 C1067 1.400 . S
C1064 H1049 0.960 . S
C1064 H1050 0.960 . S
C1064 H1051 0.960 . S
C1064 C1063 1.524 . S
C1065 C1062 1.403 . S
C1065 C1066 1.392 . S
C1065 C1069 1.495 . S
C1066 C1065 1.392 . S
C1066 C1067 1.385 . S
C1066 C1068 1.478 . S
C1067 H1061 0.930 . S
C1067 C1063 1.400 . S
C1067 C1066 1.385 . S
C1068 C1066 1.478 . S
C1068 C1070 1.381 . S
C1068 C1074 1.383 . S
C1069 C1065 1.495 . S
C1069 H1075 0.959 . S
C1069 H1076 0.961 . S
C1069 H1077 0.960 . S
C1070 C1068 1.381 . S
C1070 C1071 1.394 . S
C1070 H1078 0.930 . S
C1071 C1070 1.394 . S
C1071 C1072 1.383 . S
C1071 H1079 0.929 . S
C1072 C1071 1.383 . S
C1072 C1073 1.377 . S
C1073 H1057 0.930 . S
C1073 C1072 1.377 . S
C1073 C1074 1.379 . S
C1074 H1058 0.931 . S
C1074 C1068 1.383 . S
C1074 C1073 1.379 . S
H1075 C1069 0.959 . S
H1076 C1069 0.961 . S
H1077 C1069 0.960 . S
H1078 C1070 0.930 . S
H1079 C1071 0.929 . S
H1080 C1088 0.929 . S
H1081 C1090 0.930 . S
H1082 C1092 0.930 . S
H1083 C1095 0.929 1_545 S
H1084 C1098 0.930 1_565 S
H1085 C1100 0.960 . S
H1086 C1100 0.960 . S
H1087 C1100 0.960 . S
C1088 H1080 0.929 . S
C1088 C1089 1.377 . S
C1088 C1090 1.384 . S
C1089 C1088 1.377 . S
C1089 C1095 1.390 . S
C1090 H1081 0.930 . S
C1090 C1088 1.384 . S
C1090 C1091 1.372 . S
C1091 C1090 1.372 . S
C1091 C1092 1.400 1_565 S
C1091 C1096 1.490 1_565 S
C1092 H1082 0.930 . S
C1092 C1091 1.400 1_545 S
C1092 C1095 1.386 1_545 S
H1093 C1109 0.930 . S
H1094 C1110 0.931 . S
C1095 H1083 0.929 1_565 S
C1095 C1089 1.390 . S
C1095 C1092 1.386 1_565 S
C1096 C1091 1.490 1_545 S
C1096 C1098 1.395 . S
C1096 C1099 1.403 . S
H1097 C1103 0.930 . S
C1098 H1084 0.930 1_545 S
C1098 C1096 1.395 . S
C1098 C1101 1.403 . S
C1099 C1096 1.403 . S
C1099 C1100 1.524 . S
C1099 C1103 1.400 . S
C1100 H1085 0.960 . S
C1100 H1086 0.960 . S
C1100 H1087 0.960 . S
C1100 C1099 1.524 . S
C1101 C1098 1.403 . S
C1101 C1102 1.392 . S
C1101 C1105 1.495 . S
C1102 C1101 1.392 . S
C1102 C1103 1.385 . S
C1102 C1104 1.478 . S
C1103 H1097 0.930 . S
C1103 C1099 1.400 . S
C1103 C1102 1.385 . S
C1104 C1102 1.478 . S
C1104 C1106 1.381 . S
C1104 C1110 1.383 . S
C1105 C1101 1.495 . S
C1105 H1111 0.959 1_545 S
C1105 H1112 0.961 . S
C1105 H1113 0.960 . S
C1106 C1104 1.381 . S
C1106 C1107 1.394 . S
C1106 H1114 0.930 . S
C1107 C1106 1.394 . S
C1107 C1108 1.383 . S
C1107 H1115 0.929 . S
C1108 C1107 1.383 . S
C1108 C1109 1.377 . S
C1109 H1093 0.930 . S
C1109 C1108 1.377 . S
C1109 C1110 1.379 . S
C1110 H1094 0.931 . S
C1110 C1104 1.383 . S
C1110 C1109 1.379 . S
H1111 C1105 0.959 1_565 S
H1112 C1105 0.961 . S
H1113 C1105 0.960 . S
H1114 C1106 0.930 . S
H1115 C1107 0.929 . S
H1116 C1124 0.929 1_655 S
H1117 C1126 0.930 . S
H1118 C1128 0.930 . S
H1119 C1131 0.929 . S
H1120 C1134 0.930 . S
H1121 C1136 0.999 1_655 S
H1122 C1136 0.925 1_655 S
H1123 C1136 0.999 . S
C1124 H1116 0.929 1_455 S
C1124 C1125 1.377 . S
C1124 C1126 1.384 1_455 S
C1125 C1124 1.377 . S
C1125 C1131 1.390 . S
C1126 H1117 0.930 . S
C1126 C1124 1.384 1_655 S
C1126 C1127 1.335 1_655 S
C1127 C1126 1.335 1_455 S
C1127 C1128 1.439 . S
C1127 C1132 1.489 1_455 S
C1128 H1118 0.930 . S
C1128 C1127 1.439 . S
C1128 C1131 1.386 . S
H1129 C1145 0.930 . S
H1130 C1146 0.931 . S
C1131 H1119 0.929 . S
C1131 C1125 1.390 . S
C1131 C1128 1.386 . S
C1132 C1127 1.489 1_655 S
C1132 C1134 1.395 . S
C1132 C1135 1.403 . S
H1133 C1139 0.930 . S
C1134 H1120 0.930 . S
C1134 C1132 1.395 . S
C1134 C1137 1.403 . S
C1135 C1132 1.403 . S
C1135 C1136 1.505 1_655 S
C1135 C1139 1.400 . S
C1136 H1121 0.999 1_455 S
C1136 H1122 0.925 1_455 S
C1136 H1123 0.999 . S
C1136 C1135 1.505 1_455 S
C1137 C1134 1.403 . S
C1137 C1138 1.392 . S
C1137 C1141 1.495 . S
C1138 C1137 1.392 . S
C1138 C1139 1.385 . S
C1138 C1140 1.478 . S
C1139 H1133 0.930 . S
C1139 C1135 1.400 . S
C1139 C1138 1.385 . S
C1140 C1138 1.478 . S
C1140 C1142 1.381 . S
C1140 C1146 1.383 . S
C1141 C1137 1.495 . S
C1141 H1147 0.959 . S
C1141 H1148 0.961 . S
C1141 H1149 0.960 . S
C1142 C1140 1.381 . S
C1142 C1143 1.394 . S
C1142 H1150 0.930 . S
C1143 C1142 1.394 . S
C1143 C1144 1.383 . S
C1143 H1151 0.929 . S
C1144 C1143 1.383 . S
C1144 C1145 1.377 . S
C1145 H1129 0.930 . S
C1145 C1144 1.377 . S
C1145 C1146 1.379 . S
C1146 H1130 0.931 . S
C1146 C1140 1.383 . S
C1146 C1145 1.379 . S
H1147 C1141 0.959 . S
H1148 C1141 0.961 . S
H1149 C1141 0.960 . S
H1150 C1142 0.930 . S
H1151 C1143 0.929 . S
H1152 C1160 0.929 . S
H1153 C1162 0.930 . S
H1154 C1164 0.930 . S
H1155 C1167 0.929 . S
H1156 C1170 0.930 . S
H1157 C1172 0.960 . S
H1158 C1172 0.960 . S
H1159 C1172 0.960 1_556 S
C1160 H1152 0.929 . S
C1160 C1161 1.377 . S
C1160 C1162 1.384 . S
C1161 C1160 1.377 . S
C1161 C1167 1.390 1_554 S
C1162 H1153 0.930 . S
C1162 C1160 1.384 . S
C1162 C1163 1.372 . S
C1163 C1162 1.372 . S
C1163 C1164 1.400 1_554 S
C1163 C1168 1.490 . S
C1164 H1154 0.930 . S
C1164 C1163 1.400 1_556 S
C1164 C1167 1.386 . S
H1165 C1181 0.930 . S
H1166 C1182 0.931 . S
C1167 H1155 0.929 . S
C1167 C1161 1.390 1_556 S
C1167 C1164 1.386 . S
C1168 C1163 1.490 . S
C1168 C1170 1.395 . S
C1168 C1171 1.403 . S
H1169 C1175 0.930 . S
C1170 H1156 0.930 . S
C1170 C1168 1.395 . S
C1170 C1173 1.403 . S
C1171 C1168 1.403 . S
C1171 C1172 1.524 . S
C1171 C1175 1.400 . S
C1172 H1157 0.960 . S
C1172 H1158 0.960 . S
C1172 H1159 0.960 1_554 S
C1172 C1171 1.524 . S
C1173 C1170 1.403 . S
C1173 C1174 1.392 . S
C1173 C1177 1.495 . S
C1174 C1173 1.392 . S
C1174 C1175 1.385 . S
C1174 C1176 1.478 . S
C1175 H1169 0.930 . S
C1175 C1171 1.400 . S
C1175 C1174 1.385 . S
C1176 C1174 1.478 . S
C1176 C1178 1.381 . S
C1176 C1182 1.383 1_554 S
C1177 C1173 1.495 . S
C1177 H1183 0.959 . S
C1177 H1184 0.961 1_554 S
C1177 H1185 0.960 . S
C1178 C1176 1.381 . S
C1178 C1179 1.394 . S
C1178 H1186 0.930 . S
C1179 C1178 1.394 . S
C1179 C1180 1.383 . S
C1179 H1187 0.929 . S
C1180 C1179 1.383 . S
C1180 C1181 1.377 1_554 S
C1181 H1165 0.930 . S
C1181 C1180 1.377 1_556 S
C1181 C1182 1.379 . S
C1182 H1166 0.931 . S
C1182 C1176 1.383 1_556 S
C1182 C1181 1.379 . S
H1183 C1177 0.959 . S
H1184 C1177 0.961 1_556 S
H1185 C1177 0.960 . S
H1186 C1178 0.930 . S
H1187 C1179 0.929 . S
H1188 C1196 0.929 . S
H1189 C1198 0.930 . S
H1190 C1200 0.930 . S
H1191 C1203 0.929 . S
H1192 C1206 0.930 . S
H1193 C1208 0.960 . S
H1194 C1208 0.960 . S
H1195 C1208 0.960 . S
C1196 H1188 0.929 . S
C1196 C1197 1.377 1_556 S
C1196 C1198 1.384 . S
C1197 C1196 1.377 1_554 S
C1197 C1203 1.390 . S
C1198 H1189 0.930 . S
C1198 C1196 1.384 . S
C1198 C1199 1.372 1_556 S
C1199 C1198 1.372 1_554 S
C1199 C1200 1.400 . S
C1199 C1204 1.490 . S
C1200 H1190 0.930 . S
C1200 C1199 1.400 . S
C1200 C1203 1.386 . S
H1201 C1217 0.930 . S
H1202 C1218 0.931 . S
C1203 H1191 0.929 . S
C1203 C1197 1.390 . S
C1203 C1200 1.386 . S
C1204 C1199 1.490 . S
C1204 C1206 1.395 . S
C1204 C1207 1.403 1_554 S
H1205 C1211 0.941 . S
C1206 H1192 0.930 . S
C1206 C1204 1.395 . S
C1206 C1209 1.403 . S
C1207 C1204 1.403 1_556 S
C1207 C1208 1.524 . S
C1207 C1211 1.402 . S
C1208 H1193 0.960 . S
C1208 H1194 0.960 . S
C1208 H1195 0.960 . S
C1208 C1207 1.524 . S
C1209 C1206 1.403 . S
C1209 C1210 1.392 . S
C1209 C1213 1.495 . S
C1210 C1209 1.392 . S
C1210 C1211 1.374 1_554 S
C1210 C1212 1.478 . S
C1211 H1205 0.941 . S
C1211 C1207 1.402 . S
C1211 C1210 1.374 1_556 S
C1212 C1210 1.478 . S
C1212 C1214 1.381 1_554 S
C1212 C1218 1.383 . S
C1213 C1209 1.495 . S
C1213 H1219 0.959 . S
C1213 H1220 0.961 . S
C1213 H1221 0.960 . S
C1214 C1212 1.381 1_556 S
C1214 C1215 1.394 . S
C1214 H1222 0.930 . S
C1215 C1214 1.394 . S
C1215 C1216 1.383 1_556 S
C1215 H1223 0.929 . S
C1216 C1215 1.383 1_554 S
C1216 C1217 1.377 . S
C1217 H1201 0.930 . S
C1217 C1216 1.377 . S
C1217 C1218 1.379 . S
C1218 H1202 0.931 . S
C1218 C1212 1.383 . S
C1218 C1217 1.379 . S
H1219 C1213 0.959 . S
H1220 C1213 0.961 . S
H1221 C1213 0.960 . S
H1222 C1214 0.930 . S
H1223 C1215 0.929 . S
H1224 C1232 0.929 . S
H1225 C1234 0.930 . S
H1226 C1236 0.930 . S
H1227 C1239 0.929 . S
H1228 C1242 0.930 . S
H1229 C1244 0.960 . S
H1230 C1244 0.960 . S
H1231 C1244 0.960 1_554 S
C1232 H1224 0.929 . S
C1232 C1233 1.377 1_556 S
C1232 C1234 1.384 . S
C1233 C1232 1.377 1_554 S
C1233 C1239 1.390 . S
C1234 H1225 0.930 . S
C1234 C1232 1.384 . S
C1234 C1235 1.372 1_556 S
C1235 C1234 1.372 1_554 S
C1235 C1236 1.400 . S
C1235 C1240 1.490 . S
C1236 H1226 0.930 . S
C1236 C1235 1.400 . S
C1236 C1239 1.386 . S
H1237 C1253 0.930 . S
H1238 C1254 0.931 . S
C1239 H1227 0.929 . S
C1239 C1233 1.390 . S
C1239 C1236 1.386 . S
C1240 C1235 1.490 . S
C1240 C1242 1.395 . S
C1240 C1243 1.403 . S
H1241 C1247 0.930 1_556 S
C1242 H1228 0.930 . S
C1242 C1240 1.395 . S
C1242 C1245 1.403 . S
C1243 C1240 1.403 . S
C1243 C1244 1.523 1_554 S
C1243 C1247 1.400 . S
C1244 H1229 0.960 . S
C1244 H1230 0.960 . S
C1244 H1231 0.960 1_556 S
C1244 C1243 1.523 1_556 S
C1245 C1242 1.403 . S
C1245 C1246 1.392 . S
C1245 C1249 1.495 . S
C1246 C1245 1.392 . S
C1246 C1247 1.385 . S
C1246 C1248 1.478 . S
C1247 H1241 0.930 1_554 S
C1247 C1243 1.400 . S
C1247 C1246 1.385 . S
C1248 C1246 1.478 . S
C1248 C1250 1.381 1_554 S
C1248 C1254 1.383 . S
C1249 C1245 1.495 . S
C1249 H1255 0.959 . S
C1249 H1256 0.961 . S
C1249 H1257 0.960 . S
C1250 C1248 1.381 1_556 S
C1250 C1251 1.394 . S
C1250 H1258 0.930 . S
C1251 C1250 1.394 . S
C1251 C1252 1.383 1_556 S
C1251 H1259 0.929 . S
C1252 C1251 1.383 1_554 S
C1252 C1253 1.377 . S
C1253 H1237 0.930 . S
C1253 C1252 1.377 . S
C1253 C1254 1.379 . S
C1254 H1238 0.931 . S
C1254 C1248 1.383 . S
C1254 C1253 1.379 . S
H1255 C1249 0.959 . S
H1256 C1249 0.961 . S
H1257 C1249 0.960 . S
H1258 C1250 0.930 . S
H1259 C1251 0.929 . S
H1260 C1268 0.929 . S
H1261 C1270 0.930 . S
H1262 C1272 0.930 . S
H1263 C1275 0.929 . S
H1264 C1278 0.930 . S
H1265 C1280 0.960 . S
H1266 C1280 0.960 . S
H1267 C1280 0.960 . S
C1268 H1260 0.929 . S
C1268 C1269 1.377 1_554 S
C1268 C1270 1.384 . S
C1269 C1268 1.377 1_556 S
C1269 C1275 1.390 . S
C1270 H1261 0.930 . S
C1270 C1268 1.384 . S
C1270 C1271 1.372 1_554 S
C1271 C1270 1.372 1_556 S
C1271 C1272 1.400 . S
C1271 C1276 1.490 . S
C1272 H1262 0.930 . S
C1272 C1271 1.400 . S
C1272 C1275 1.386 . S
H1273 C1289 0.930 . S
H1274 C1290 0.931 . S
C1275 H1263 0.929 . S
C1275 C1269 1.390 . S
C1275 C1272 1.386 . S
C1276 C1271 1.490 . S
C1276 C1278 1.395 1_556 S
C1276 C1279 1.403 . S
H1277 C1283 0.930 . S
C1278 H1264 0.930 . S
C1278 C1276 1.395 1_554 S
C1278 C1281 1.403 . S
C1279 C1276 1.403 . S
C1279 C1280 1.524 . S
C1279 C1283 1.400 . S
C1280 H1265 0.960 . S
C1280 H1266 0.960 . S
C1280 H1267 0.960 . S
C1280 C1279 1.524 . S
C1281 C1278 1.403 . S
C1281 C1282 1.392 1_554 S
C1281 C1285 1.495 . S
C1282 C1281 1.392 1_556 S
C1282 C1283 1.385 . S
C1282 C1284 1.478 . S
C1283 H1277 0.930 . S
C1283 C1279 1.400 . S
C1283 C1282 1.385 . S
C1284 C1282 1.478 . S
C1284 C1286 1.381 1_556 S
C1284 C1290 1.383 . S
C1285 C1281 1.495 . S
C1285 H1291 0.959 . S
C1285 H1292 0.961 . S
C1285 H1293 0.960 . S
C1286 C1284 1.381 1_554 S
C1286 C1287 1.394 . S
C1286 H1294 0.930 . S
C1287 C1286 1.394 . S
C1287 C1288 1.383 1_554 S
C1287 H1295 0.929 . S
C1288 C1287 1.383 1_556 S
C1288 C1289 1.377 . S
C1289 H1273 0.930 . S
C1289 C1288 1.377 . S
C1289 C1290 1.379 . S
C1290 H1274 0.931 . S
C1290 C1284 1.383 . S
C1290 C1289 1.379 . S
H1291 C1285 0.959 . S
H1292 C1285 0.961 . S
H1293 C1285 0.960 . S
H1294 C1286 0.930 . S
H1295 C1287 0.929 . S
H1296 C1304 0.929 . S
H1297 C1306 0.930 . S
H1298 C1308 0.930 . S
H1299 C1311 0.929 . S
H1300 C1314 0.930 . S
H1301 C1316 0.960 . S
H1302 C1316 0.960 . S
H1303 C1316 0.960 . S
C1304 H1296 0.929 . S
C1304 C1305 1.377 . S
C1304 C1306 1.384 . S
C1305 C1304 1.377 . S
C1305 C1311 1.390 . S
C1306 H1297 0.930 . S
C1306 C1304 1.384 . S
C1306 C1307 1.372 . S
C1307 C1306 1.372 . S
C1307 C1308 1.400 . S
C1307 C1312 1.490 . S
C1308 H1298 0.930 . S
C1308 C1307 1.400 . S
C1308 C1311 1.386 . S
H1309 C1325 0.930 . S
H1310 C1326 0.931 . S
C1311 H1299 0.929 . S
C1311 C1305 1.390 . S
C1311 C1308 1.386 . S
C1312 C1307 1.490 . S
C1312 C1314 1.395 1_556 S
C1312 C1315 1.403 . S
H1313 C1319 0.930 . S
C1314 H1300 0.930 . S
C1314 C1312 1.395 1_554 S
C1314 C1317 1.403 . S
C1315 C1312 1.403 . S
C1315 C1316 1.524 . S
C1315 C1319 1.400 . S
C1316 H1301 0.960 . S
C1316 H1302 0.960 . S
C1316 H1303 0.960 . S
C1316 C1315 1.524 . S
C1317 C1314 1.403 . S
C1317 C1318 1.392 1_554 S
C1317 C1321 1.495 . S
C1318 C1317 1.392 1_556 S
C1318 C1319 1.385 . S
C1318 C1320 1.478 . S
C1319 H1313 0.930 . S
C1319 C1315 1.400 . S
C1319 C1318 1.385 . S
C1320 C1318 1.478 . S
C1320 C1322 1.381 . S
C1320 C1326 1.383 . S
C1321 C1317 1.495 . S
C1321 H1327 0.959 . S
C1321 H1328 0.961 . S
C1321 H1329 0.960 . S
C1322 C1320 1.381 . S
C1322 C1323 1.394 . S
C1322 H1330 0.930 . S
C1323 C1322 1.394 . S
C1323 C1324 1.383 . S
C1323 H1331 0.929 . S
C1324 C1323 1.383 . S
C1324 C1325 1.377 . S
C1325 H1309 0.930 . S
C1325 C1324 1.377 . S
C1325 C1326 1.379 . S
C1326 H1310 0.931 . S
C1326 C1320 1.383 . S
C1326 C1325 1.379 . S
H1327 C1321 0.959 . S
H1328 C1321 0.961 . S
H1329 C1321 0.960 . S
H1330 C1322 0.930 . S
H1331 C1323 0.929 . S
H1332 C1340 0.929 . S
H1333 C1342 0.930 . S
H1334 C1344 0.930 . S
H1335 C1347 0.929 . S
H1336 C1350 0.930 . S
H1337 C1352 0.960 . S
H1338 C1352 0.960 1_554 S
H1339 C1352 0.960 . S
C1340 H1332 0.929 . S
C1340 C1341 1.377 1_554 S
C1340 C1342 1.384 . S
C1341 C1340 1.377 1_556 S
C1341 C1347 1.390 . S
C1342 H1333 0.930 . S
C1342 C1340 1.384 . S
C1342 C1343 1.372 1_554 S
C1343 C1342 1.372 1_556 S
C1343 C1344 1.400 . S
C1343 C1348 1.490 . S
C1344 H1334 0.930 . S
C1344 C1343 1.400 . S
C1344 C1347 1.386 . S
H1345 C1361 0.930 . S
H1346 C1362 0.931 . S
C1347 H1335 0.929 . S
C1347 C1341 1.390 . S
C1347 C1344 1.386 . S
C1348 C1343 1.490 . S
C1348 C1350 1.395 . S
C1348 C1351 1.403 . S
H1349 C1355 0.930 . S
C1350 H1336 0.930 . S
C1350 C1348 1.395 . S
C1350 C1353 1.403 . S
C1351 C1348 1.403 . S
C1351 C1352 1.524 . S
C1351 C1355 1.400 . S
C1352 H1337 0.960 . S
C1352 H1338 0.960 1_556 S
C1352 H1339 0.960 . S
C1352 C1351 1.524 . S
C1353 C1350 1.403 . S
C1353 C1354 1.392 . S
C1353 C1357 1.495 . S
C1354 C1353 1.392 . S
C1354 C1355 1.385 . S
C1354 C1356 1.478 . S
C1355 H1349 0.930 . S
C1355 C1351 1.400 . S
C1355 C1354 1.385 . S
C1356 C1354 1.478 . S
C1356 C1358 1.381 1_556 S
C1356 C1362 1.383 . S
C1357 C1353 1.495 . S
C1357 H1363 0.959 . S
C1357 H1364 0.961 . S
C1357 H1365 0.940 1_556 S
C1358 C1356 1.381 1_554 S
C1358 C1359 1.394 . S
C1358 H1366 0.930 . S
C1359 C1358 1.394 . S
C1359 C1360 1.383 1_554 S
C1359 H1367 0.929 . S
C1360 C1359 1.383 1_556 S
C1360 C1361 1.377 . S
C1361 H1345 0.930 . S
C1361 C1360 1.377 . S
C1361 C1362 1.379 . S
C1362 H1346 0.931 . S
C1362 C1356 1.383 . S
C1362 C1361 1.379 . S
H1363 C1357 0.959 . S
H1364 C1357 0.961 . S
H1365 C1357 0.940 1_554 S
H1366 C1358 0.930 . S
H1367 C1359 0.929 . S
H1368 C1376 0.929 . S
H1369 C1378 0.930 . S
H1370 C1380 0.930 . S
H1371 C1383 0.929 . S
H1372 C1386 0.930 . S
H1373 C1388 0.960 . S
H1374 C1388 0.960 . S
H1375 C1388 0.960 . S
C1376 H1368 0.929 . S
C1376 C1377 1.377 . S
C1376 C1378 1.384 . S
C1377 C1376 1.377 . S
C1377 C1383 1.390 . S
C1378 H1369 0.930 . S
C1378 C1376 1.384 . S
C1378 C1379 1.372 . S
C1379 C1378 1.372 . S
C1379 C1380 1.400 . S
C1379 C1384 1.490 . S
C1380 H1370 0.930 . S
C1380 C1379 1.400 . S
C1380 C1383 1.386 . S
H1381 C1397 0.930 . S
H1382 C1398 0.931 . S
C1383 H1371 0.929 . S
C1383 C1377 1.390 . S
C1383 C1380 1.386 . S
C1384 C1379 1.490 . S
C1384 C1386 1.395 . S
C1384 C1387 1.403 . S
H1385 C1391 0.930 . S
C1386 H1372 0.930 . S
C1386 C1384 1.395 . S
C1386 C1389 1.403 . S
C1387 C1384 1.403 . S
C1387 C1388 1.524 . S
C1387 C1391 1.400 . S
C1388 H1373 0.960 . S
C1388 H1374 0.960 . S
C1388 H1375 0.960 . S
C1388 C1387 1.524 . S
C1389 C1386 1.403 . S
C1389 C1390 1.392 . S
C1389 C1393 1.495 . S
C1390 C1389 1.392 . S
C1390 C1391 1.385 . S
C1390 C1392 1.478 . S
C1391 H1385 0.930 . S
C1391 C1387 1.400 . S
C1391 C1390 1.385 . S
C1392 C1390 1.478 . S
C1392 C1394 1.381 . S
C1392 C1398 1.383 . S
C1393 C1389 1.495 . S
C1393 H1399 0.959 . S
C1393 H1400 0.961 . S
C1393 H1401 0.960 . S
C1394 C1392 1.381 . S
C1394 C1395 1.394 . S
C1394 H1402 0.930 . S
C1395 C1394 1.394 . S
C1395 C1396 1.383 . S
C1395 H1403 0.929 . S
C1396 C1395 1.383 . S
C1396 C1397 1.377 . S
C1397 H1381 0.930 . S
C1397 C1396 1.377 . S
C1397 C1398 1.379 . S
C1398 H1382 0.931 . S
C1398 C1392 1.383 . S
C1398 C1397 1.379 . S
H1399 C1393 0.959 . S
H1400 C1393 0.961 . S
H1401 C1393 0.960 . S
H1402 C1394 0.930 . S
H1403 C1395 0.929 . S
H1404 C1412 0.929 . S
H1405 C1414 0.930 . S
H1406 C1416 0.930 . S
H1407 C1419 0.929 . S
H1408 C1422 0.930 . S
H1409 C1424 0.960 . S
H1410 C1424 0.960 . S
H1411 C1424 0.960 . S
C1412 H1404 0.929 . S
C1412 C1413 1.377 . S
C1412 C1414 1.384 . S
C1413 C1412 1.377 . S
C1413 C1419 1.390 . S
C1414 H1405 0.930 . S
C1414 C1412 1.384 . S
C1414 C1415 1.372 . S
C1415 C1414 1.372 . S
C1415 C1416 1.400 . S
C1415 C1420 1.490 . S
C1416 H1406 0.930 . S
C1416 C1415 1.400 . S
C1416 C1419 1.386 . S
H1417 C1433 0.930 . S
H1418 C1434 0.931 . S
C1419 H1407 0.929 . S
C1419 C1413 1.390 . S
C1419 C1416 1.386 . S
C1420 C1415 1.490 . S
C1420 C1422 1.395 . S
C1420 C1423 1.403 . S
H1421 C1427 0.930 . S
C1422 H1408 0.930 . S
C1422 C1420 1.395 . S
C1422 C1425 1.403 . S
C1423 C1420 1.403 . S
C1423 C1424 1.524 . S
C1423 C1427 1.400 . S
C1424 H1409 0.960 . S
C1424 H1410 0.960 . S
C1424 H1411 0.960 . S
C1424 C1423 1.524 . S
C1425 C1422 1.403 . S
C1425 C1426 1.392 . S
C1425 C1429 1.495 . S
C1426 C1425 1.392 . S
C1426 C1427 1.385 . S
C1426 C1428 1.478 . S
C1427 H1421 0.930 . S
C1427 C1423 1.400 . S
C1427 C1426 1.385 . S
C1428 C1426 1.478 . S
C1428 C1430 1.381 . S
C1428 C1434 1.383 . S
C1429 C1425 1.495 . S
C1429 H1435 0.959 . S
C1429 H1436 0.961 . S
C1429 H1437 0.960 . S
C1430 C1428 1.381 . S
C1430 C1431 1.394 . S
C1430 H1438 0.930 . S
C1431 C1430 1.394 . S
C1431 C1432 1.383 . S
C1431 H1439 0.929 . S
C1432 C1431 1.383 . S
C1432 C1433 1.377 . S
C1433 H1417 0.930 . S
C1433 C1432 1.377 . S
C1433 C1434 1.379 . S
C1434 H1418 0.931 . S
C1434 C1428 1.383 . S
C1434 C1433 1.379 . S
H1435 C1429 0.959 . S
H1436 C1429 0.961 . S
H1437 C1429 0.960 . S
H1438 C1430 0.930 . S
H1439 C1431 0.929 . S
H1440 C1448 0.929 . S
H1441 C1450 0.930 . S
H1442 C1452 0.930 . S
H1443 C1455 0.929 . S
H1444 C1458 0.930 . S
H1445 C1460 0.960 . S
H1446 C1460 0.960 . S
H1447 C1460 0.960 . S
C1448 H1440 0.929 . S
C1448 C1449 1.377 . S
C1448 C1450 1.384 . S
C1449 C1448 1.377 . S
C1449 C1455 1.390 . S
C1450 H1441 0.930 . S
C1450 C1448 1.384 . S
C1450 C1451 1.372 . S
C1451 C1450 1.372 . S
C1451 C1452 1.400 . S
C1451 C1456 1.490 . S
C1452 H1442 0.930 . S
C1452 C1451 1.400 . S
C1452 C1455 1.386 . S
H1453 C1469 0.930 . S
H1454 C1470 0.931 . S
C1455 H1443 0.929 . S
C1455 C1449 1.390 . S
C1455 C1452 1.386 . S
C1456 C1451 1.490 . S
C1456 C1458 1.395 . S
C1456 C1459 1.403 . S
H1457 C1463 0.930 . S
C1458 H1444 0.930 . S
C1458 C1456 1.395 . S
C1458 C1461 1.403 . S
C1459 C1456 1.403 . S
C1459 C1460 1.524 . S
C1459 C1463 1.400 . S
C1460 H1445 0.960 . S
C1460 H1446 0.960 . S
C1460 H1447 0.960 . S
C1460 C1459 1.524 . S
C1461 C1458 1.403 . S
C1461 C1462 1.392 . S
C1461 C1465 1.495 . S
C1462 C1461 1.392 . S
C1462 C1463 1.385 . S
C1462 C1464 1.478 . S
C1463 H1457 0.930 . S
C1463 C1459 1.400 . S
C1463 C1462 1.385 . S
C1464 C1462 1.478 . S
C1464 C1466 1.381 . S
C1464 C1470 1.383 . S
C1465 C1461 1.495 . S
C1465 H1471 0.959 . S
C1465 H1472 0.961 . S
C1465 H1473 0.960 . S
C1466 C1464 1.381 . S
C1466 C1467 1.394 . S
C1466 H1474 0.930 . S
C1467 C1466 1.394 . S
C1467 C1468 1.383 . S
C1467 H1475 0.929 . S
C1468 C1467 1.383 . S
C1468 C1469 1.377 . S
C1469 H1453 0.930 . S
C1469 C1468 1.377 . S
C1469 C1470 1.379 . S
C1470 H1454 0.931 . S
C1470 C1464 1.383 . S
C1470 C1469 1.379 . S
H1471 C1465 0.959 . S
H1472 C1465 0.961 . S
H1473 C1465 0.960 . S
H1474 C1466 0.930 . S
H1475 C1467 0.929 . S
H1476 C1484 0.929 . S
H1477 C1486 0.930 . S
H1478 C1488 0.930 . S
H1479 C1491 0.929 . S
H1480 C1494 0.930 . S
H1481 C1496 0.960 . S
H1482 C1496 0.960 . S
H1483 C1496 0.960 . S
C1484 H1476 0.929 . S
C1484 C1485 1.377 . S
C1484 C1486 1.384 . S
C1485 C1484 1.377 . S
C1485 C1491 1.390 . S
C1486 H1477 0.930 . S
C1486 C1484 1.384 . S
C1486 C1487 1.372 . S
C1487 C1486 1.372 . S
C1487 C1488 1.400 . S
C1487 C1492 1.490 . S
C1488 H1478 0.930 . S
C1488 C1487 1.400 . S
C1488 C1491 1.386 . S
H1489 C1505 0.930 . S
H1490 C1506 0.931 . S
C1491 H1479 0.929 . S
C1491 C1485 1.390 . S
C1491 C1488 1.386 . S
C1492 C1487 1.490 . S
C1492 C1494 1.395 . S
C1492 C1495 1.403 . S
H1493 C1499 0.930 . S
C1494 H1480 0.930 . S
C1494 C1492 1.395 . S
C1494 C1497 1.403 . S
C1495 C1492 1.403 . S
C1495 C1496 1.524 . S
C1495 C1499 1.400 . S
C1496 H1481 0.960 . S
C1496 H1482 0.960 . S
C1496 H1483 0.960 . S
C1496 C1495 1.524 . S
C1497 C1494 1.403 . S
C1497 C1498 1.392 . S
C1497 C1501 1.495 . S
C1498 C1497 1.392 . S
C1498 C1499 1.385 . S
C1498 C1500 1.478 . S
C1499 H1493 0.930 . S
C1499 C1495 1.400 . S
C1499 C1498 1.385 . S
C1500 C1498 1.478 . S
C1500 C1502 1.381 . S
C1500 C1506 1.383 . S
C1501 C1497 1.495 . S
C1501 H1507 0.959 . S
C1501 H1508 0.961 . S
C1501 H1509 0.960 . S
C1502 C1500 1.381 . S
C1502 C1503 1.394 . S
C1502 H1510 0.930 . S
C1503 C1502 1.394 . S
C1503 C1504 1.383 . S
C1503 H1511 0.929 . S
C1504 C1503 1.383 . S
C1504 C1505 1.377 . S
C1505 H1489 0.930 . S
C1505 C1504 1.377 . S
C1505 C1506 1.379 . S
C1506 H1490 0.931 . S
C1506 C1500 1.383 . S
C1506 C1505 1.379 . S
H1507 C1501 0.959 . S
H1508 C1501 0.961 . S
H1509 C1501 0.960 . S
H1510 C1502 0.930 . S
H1511 C1503 0.929 . S
H1512 C1520 0.929 . S
H1513 C1522 0.930 . S
H1514 C1524 0.930 . S
H1515 C1527 0.929 . S
H1516 C1530 0.930 . S
H1517 C1532 0.960 . S
H1518 C1532 0.960 . S
H1519 C1532 0.960 . S
C1520 H1512 0.929 . S
C1520 C1521 1.377 . S
C1520 C1522 1.384 . S
C1521 C1520 1.377 . S
C1521 C1527 1.390 . S
C1522 H1513 0.930 . S
C1522 C1520 1.384 . S
C1522 C1523 1.372 . S
C1523 C1522 1.372 . S
C1523 C1524 1.400 . S
C1523 C1528 1.490 . S
C1524 H1514 0.930 . S
C1524 C1523 1.400 . S
C1524 C1527 1.386 . S
H1525 C1541 0.930 . S
H1526 C1542 0.931 . S
C1527 H1515 0.929 . S
C1527 C1521 1.390 . S
C1527 C1524 1.386 . S
C1528 C1523 1.490 . S
C1528 C1530 1.395 . S
C1528 C1531 1.403 . S
H1529 C1535 0.930 . S
C1530 H1516 0.930 . S
C1530 C1528 1.395 . S
C1530 C1533 1.403 . S
C1531 C1528 1.403 . S
C1531 C1532 1.524 . S
C1531 C1535 1.400 . S
C1532 H1517 0.960 . S
C1532 H1518 0.960 . S
C1532 H1519 0.960 . S
C1532 C1531 1.524 . S
C1533 C1530 1.403 . S
C1533 C1534 1.392 . S
C1533 C1537 1.495 . S
C1534 C1533 1.392 . S
C1534 C1535 1.385 . S
C1534 C1536 1.478 . S
C1535 H1529 0.930 . S
C1535 C1531 1.400 . S
C1535 C1534 1.385 . S
C1536 C1534 1.478 . S
C1536 C1538 1.381 . S
C1536 C1542 1.383 . S
C1537 C1533 1.495 . S
C1537 H1543 0.959 . S
C1537 H1544 0.961 . S
C1537 H1545 0.960 . S
C1538 C1536 1.381 . S
C1538 C1539 1.394 . S
C1538 H1546 0.930 . S
C1539 C1538 1.394 . S
C1539 C1540 1.383 . S
C1539 H1547 0.929 . S
C1540 C1539 1.383 . S
C1540 C1541 1.377 . S
C1541 H1525 0.930 . S
C1541 C1540 1.377 . S
C1541 C1542 1.379 . S
C1542 H1526 0.931 . S
C1542 C1536 1.383 . S
C1542 C1541 1.379 . S
H1543 C1537 0.959 . S
H1544 C1537 0.961 . S
H1545 C1537 0.960 . S
H1546 C1538 0.930 . S
H1547 C1539 0.929 . S
H1548 C1556 0.929 . S
H1549 C1558 0.930 . S
H1550 C1560 0.930 . S
H1551 C1563 0.929 . S
H1552 C1566 0.930 . S
H1553 C1568 0.960 . S
H1554 C1568 0.960 . S
H1555 C1568 0.960 . S
C1556 H1548 0.929 . S
C1556 C1557 1.377 . S
C1556 C1558 1.384 . S
C1557 C1556 1.377 . S
C1557 C1563 1.390 . S
C1558 H1549 0.930 . S
C1558 C1556 1.384 . S
C1558 C1559 1.372 . S
C1559 C1558 1.372 . S
C1559 C1560 1.400 . S
C1559 C1564 1.490 . S
C1560 H1550 0.930 . S
C1560 C1559 1.400 . S
C1560 C1563 1.386 . S
H1561 C1577 0.930 . S
H1562 C1578 0.931 . S
C1563 H1551 0.929 . S
C1563 C1557 1.390 . S
C1563 C1560 1.386 . S
C1564 C1559 1.490 . S
C1564 C1566 1.395 . S
C1564 C1567 1.403 . S
H1565 C1571 0.930 . S
C1566 H1552 0.930 . S
C1566 C1564 1.395 . S
C1566 C1569 1.403 . S
C1567 C1564 1.403 . S
C1567 C1568 1.524 . S
C1567 C1571 1.400 . S
C1568 H1553 0.960 . S
C1568 H1554 0.960 . S
C1568 H1555 0.960 . S
C1568 C1567 1.524 . S
C1569 C1566 1.403 . S
C1569 C1570 1.392 . S
C1569 C1573 1.495 . S
C1570 C1569 1.392 . S
C1570 C1571 1.385 . S
C1570 C1572 1.478 . S
C1571 H1565 0.930 . S
C1571 C1567 1.400 . S
C1571 C1570 1.385 . S
C1572 C1570 1.478 . S
C1572 C1574 1.381 . S
C1572 C1578 1.383 . S
C1573 C1569 1.495 . S
C1573 H1579 0.959 . S
C1573 H1580 0.961 . S
C1573 H1581 0.960 . S
C1574 C1572 1.381 . S
C1574 C1575 1.394 . S
C1574 H1582 0.930 . S
C1575 C1574 1.394 . S
C1575 C1576 1.383 . S
C1575 H1583 0.929 . S
C1576 C1575 1.383 . S
C1576 C1577 1.377 . S
C1577 H1561 0.930 . S
C1577 C1576 1.377 . S
C1577 C1578 1.379 . S
C1578 H1562 0.931 . S
C1578 C1572 1.383 . S
C1578 C1577 1.379 . S
H1579 C1573 0.959 . S
H1580 C1573 0.961 . S
H1581 C1573 0.960 . S
H1582 C1574 0.930 . S
H1583 C1575 0.929 . S
H1584 C1592 0.929 . S
H1585 C1594 0.930 . S
H1586 C1596 0.930 . S
H1587 C1599 0.929 . S
H1588 C1602 0.930 . S
H1589 C1604 0.960 . S
H1590 C1604 0.960 . S
H1591 C1604 0.960 . S
C1592 H1584 0.929 . S
C1592 C1593 1.377 . S
C1592 C1594 1.384 . S
C1593 C1592 1.377 . S
C1593 C1599 1.390 . S
C1594 H1585 0.930 . S
C1594 C1592 1.384 . S
C1594 C1595 1.372 . S
C1595 C1594 1.372 . S
C1595 C1596 1.400 . S
C1595 C1600 1.490 . S
C1596 H1586 0.930 . S
C1596 C1595 1.400 . S
C1596 C1599 1.386 . S
H1597 C1613 0.930 . S
H1598 C1614 0.931 . S
C1599 H1587 0.929 . S
C1599 C1593 1.390 . S
C1599 C1596 1.386 . S
C1600 C1595 1.490 . S
C1600 C1602 1.395 . S
C1600 C1603 1.403 . S
H1601 C1607 0.930 . S
C1602 H1588 0.930 . S
C1602 C1600 1.395 . S
C1602 C1605 1.403 . S
C1603 C1600 1.403 . S
C1603 C1604 1.524 . S
C1603 C1607 1.400 . S
C1604 H1589 0.960 . S
C1604 H1590 0.960 . S
C1604 H1591 0.960 . S
C1604 C1603 1.524 . S
C1605 C1602 1.403 . S
C1605 C1606 1.392 . S
C1605 C1609 1.495 . S
C1606 C1605 1.392 . S
C1606 C1607 1.385 . S
C1606 C1608 1.478 . S
C1607 H1601 0.930 . S
C1607 C1603 1.400 . S
C1607 C1606 1.385 . S
C1608 C1606 1.478 . S
C1608 C1610 1.381 . S
C1608 C1614 1.383 . S
C1609 C1605 1.495 . S
C1609 H1615 0.959 . S
C1609 H1616 0.961 . S
C1609 H1617 0.960 . S
C1610 C1608 1.381 . S
C1610 C1611 1.394 . S
C1610 H1618 0.930 . S
C1611 C1610 1.394 . S
C1611 C1612 1.383 . S
C1611 H1619 0.929 . S
C1612 C1611 1.383 . S
C1612 C1613 1.377 . S
C1613 H1597 0.930 . S
C1613 C1612 1.377 . S
C1613 C1614 1.379 . S
C1614 H1598 0.931 . S
C1614 C1608 1.383 . S
C1614 C1613 1.379 . S
H1615 C1609 0.959 . S
H1616 C1609 0.961 . S
H1617 C1609 0.960 . S
H1618 C1610 0.930 . S
H1619 C1611 0.929 . S
H1620 C1628 0.929 . S
H1621 C1630 0.930 . S
H1622 C1632 0.930 . S
H1623 C1635 0.929 . S
H1624 C1638 0.930 . S
H1625 C1640 0.960 . S
H1626 C1640 0.960 . S
H1627 C1640 0.960 . S
C1628 H1620 0.929 . S
C1628 C1629 1.377 . S
C1628 C1630 1.384 . S
C1629 C1628 1.377 . S
C1629 C1635 1.390 . S
C1630 H1621 0.930 . S
C1630 C1628 1.384 . S
C1630 C1631 1.372 . S
C1631 C1630 1.372 . S
C1631 C1632 1.400 . S
C1631 C1636 1.490 . S
C1632 H1622 0.930 . S
C1632 C1631 1.400 . S
C1632 C1635 1.386 . S
H1633 C1649 0.930 . S
H1634 C1650 0.931 . S
C1635 H1623 0.929 . S
C1635 C1629 1.390 . S
C1635 C1632 1.386 . S
C1636 C1631 1.490 . S
C1636 C1638 1.395 . S
C1636 C1639 1.403 . S
H1637 C1643 0.930 . S
C1638 H1624 0.930 . S
C1638 C1636 1.395 . S
C1638 C1641 1.403 . S
C1639 C1636 1.403 . S
C1639 C1640 1.524 . S
C1639 C1643 1.400 . S
C1640 H1625 0.960 . S
C1640 H1626 0.960 . S
C1640 H1627 0.960 . S
C1640 C1639 1.524 . S
C1641 C1638 1.403 . S
C1641 C1642 1.392 . S
C1641 C1645 1.495 . S
C1642 C1641 1.392 . S
C1642 C1643 1.385 . S
C1642 C1644 1.478 . S
C1643 H1637 0.930 . S
C1643 C1639 1.400 . S
C1643 C1642 1.385 . S
C1644 C1642 1.478 . S
C1644 C1646 1.381 . S
C1644 C1650 1.383 . S
C1645 C1641 1.495 . S
C1645 H1651 0.959 . S
C1645 H1652 0.961 . S
C1645 H1653 0.960 . S
C1646 C1644 1.381 . S
C1646 C1647 1.394 . S
C1646 H1654 0.930 . S
C1647 C1646 1.394 . S
C1647 C1648 1.383 . S
C1647 H1655 0.929 . S
C1648 C1647 1.383 . S
C1648 C1649 1.377 . S
C1649 H1633 0.930 . S
C1649 C1648 1.377 . S
C1649 C1650 1.379 . S
C1650 H1634 0.931 . S
C1650 C1644 1.383 . S
C1650 C1649 1.379 . S
H1651 C1645 0.959 . S
H1652 C1645 0.961 . S
H1653 C1645 0.960 . S
H1654 C1646 0.930 . S
H1655 C1647 0.929 . S
H1656 C1664 0.929 . S
H1657 C1666 0.930 . S
H1658 C1668 0.930 . S
H1659 C1671 0.929 . S
H1660 C1674 0.930 . S
H1661 C1676 0.960 . S
H1662 C1676 0.960 . S
H1663 C1676 0.960 . S
C1664 H1656 0.929 . S
C1664 C1665 1.377 . S
C1664 C1666 1.384 . S
C1665 C1664 1.377 . S
C1665 C1671 1.390 . S
C1666 H1657 0.930 . S
C1666 C1664 1.384 . S
C1666 C1667 1.372 . S
C1667 C1666 1.372 . S
C1667 C1668 1.400 . S
C1667 C1672 1.490 . S
C1668 H1658 0.930 . S
C1668 C1667 1.400 . S
C1668 C1671 1.386 . S
H1669 C1685 0.930 . S
H1670 C1686 0.931 . S
C1671 H1659 0.929 . S
C1671 C1665 1.390 . S
C1671 C1668 1.386 . S
C1672 C1667 1.490 . S
C1672 C1674 1.395 . S
C1672 C1675 1.403 . S
H1673 C1679 0.930 . S
C1674 H1660 0.930 . S
C1674 C1672 1.395 . S
C1674 C1677 1.403 . S
C1675 C1672 1.403 . S
C1675 C1676 1.524 . S
C1675 C1679 1.400 . S
C1676 H1661 0.960 . S
C1676 H1662 0.960 . S
C1676 H1663 0.960 . S
C1676 C1675 1.524 . S
C1677 C1674 1.403 . S
C1677 C1678 1.392 . S
C1677 C1681 1.495 . S
C1678 C1677 1.392 . S
C1678 C1679 1.385 . S
C1678 C1680 1.478 . S
C1679 H1673 0.930 . S
C1679 C1675 1.400 . S
C1679 C1678 1.385 . S
C1680 C1678 1.478 . S
C1680 C1682 1.381 . S
C1680 C1686 1.383 . S
C1681 C1677 1.495 . S
C1681 H1687 0.959 . S
C1681 H1688 0.961 . S
C1681 H1689 0.960 . S
C1682 C1680 1.381 . S
C1682 C1683 1.394 . S
C1682 H1690 0.930 . S
C1683 C1682 1.394 . S
C1683 C1684 1.383 . S
C1683 H1691 0.929 . S
C1684 C1683 1.383 . S
C1684 C1685 1.377 . S
C1685 H1669 0.930 . S
C1685 C1684 1.377 . S
C1685 C1686 1.379 . S
C1686 H1670 0.931 . S
C1686 C1680 1.383 . S
C1686 C1685 1.379 . S
H1687 C1681 0.959 . S
H1688 C1681 0.961 . S
H1689 C1681 0.960 . S
H1690 C1682 0.930 . S
H1691 C1683 0.929 . S
H1692 C1700 0.929 . S
H1693 C1702 0.930 . S
H1694 C1704 0.930 . S
H1695 C1707 0.929 . S
H1696 C1710 0.930 . S
H1697 C1712 0.960 . S
H1698 C1712 0.960 . S
H1699 C1712 0.960 . S
C1700 H1692 0.929 . S
C1700 C1701 1.377 . S
C1700 C1702 1.384 . S
C1701 C1700 1.377 . S
C1701 C1707 1.390 . S
C1702 H1693 0.930 . S
C1702 C1700 1.384 . S
C1702 C1703 1.372 . S
C1703 C1702 1.372 . S
C1703 C1704 1.400 . S
C1703 C1708 1.490 . S
C1704 H1694 0.930 . S
C1704 C1703 1.400 . S
C1704 C1707 1.386 . S
H1705 C1721 0.930 . S
H1706 C1722 0.931 . S
C1707 H1695 0.929 . S
C1707 C1701 1.390 . S
C1707 C1704 1.386 . S
C1708 C1703 1.490 . S
C1708 C1710 1.395 . S
C1708 C1711 1.403 . S
H1709 C1715 0.930 . S
C1710 H1696 0.930 . S
C1710 C1708 1.395 . S
C1710 C1713 1.403 . S
C1711 C1708 1.403 . S
C1711 C1712 1.524 . S
C1711 C1715 1.400 . S
C1712 H1697 0.960 . S
C1712 H1698 0.960 . S
C1712 H1699 0.960 . S
C1712 C1711 1.524 . S
C1713 C1710 1.403 . S
C1713 C1714 1.392 . S
C1713 C1717 1.495 . S
C1714 C1713 1.392 . S
C1714 C1715 1.385 . S
C1714 C1716 1.478 . S
C1715 H1709 0.930 . S
C1715 C1711 1.400 . S
C1715 C1714 1.385 . S
C1716 C1714 1.478 . S
C1716 C1718 1.381 . S
C1716 C1722 1.383 . S
C1717 C1713 1.495 . S
C1717 H1723 0.959 . S
C1717 H1724 0.961 . S
C1717 H1725 0.960 . S
C1718 C1716 1.381 . S
C1718 C1719 1.394 . S
C1718 H1726 0.930 . S
C1719 C1718 1.394 . S
C1719 C1720 1.383 . S
C1719 H1727 0.929 . S
C1720 C1719 1.383 . S
C1720 C1721 1.377 . S
C1721 H1705 0.930 . S
C1721 C1720 1.377 . S
C1721 C1722 1.379 . S
C1722 H1706 0.931 . S
C1722 C1716 1.383 . S
C1722 C1721 1.379 . S
H1723 C1717 0.959 . S
H1724 C1717 0.961 . S
H1725 C1717 0.960 . S
H1726 C1718 0.930 . S
H1727 C1719 0.929 . S
H1728 C1736 0.929 . S
H1729 C1738 0.930 . S
H1730 C1740 0.930 . S
H1731 C1743 0.929 . S
H1732 C1746 0.930 . S
H1733 C1748 0.960 . S
H1734 C1748 0.960 . S
H1735 C1748 0.960 . S
C1736 H1728 0.929 . S
C1736 C1737 1.377 . S
C1736 C1738 1.384 . S
C1737 C1736 1.377 . S
C1737 C1743 1.390 . S
C1738 H1729 0.930 . S
C1738 C1736 1.384 . S
C1738 C1739 1.372 . S
C1739 C1738 1.372 . S
C1739 C1740 1.400 . S
C1739 C1744 1.490 . S
C1740 H1730 0.930 . S
C1740 C1739 1.400 . S
C1740 C1743 1.386 . S
H1741 C1757 0.930 . S
H1742 C1758 0.931 . S
C1743 H1731 0.929 . S
C1743 C1737 1.390 . S
C1743 C1740 1.386 . S
C1744 C1739 1.490 . S
C1744 C1746 1.395 . S
C1744 C1747 1.403 . S
H1745 C1751 0.930 . S
C1746 H1732 0.930 . S
C1746 C1744 1.395 . S
C1746 C1749 1.403 . S
C1747 C1744 1.403 . S
C1747 C1748 1.524 . S
C1747 C1751 1.400 . S
C1748 H1733 0.960 . S
C1748 H1734 0.960 . S
C1748 H1735 0.960 . S
C1748 C1747 1.524 . S
C1749 C1746 1.403 . S
C1749 C1750 1.392 . S
C1749 C1753 1.495 . S
C1750 C1749 1.392 . S
C1750 C1751 1.385 . S
C1750 C1752 1.478 . S
C1751 H1745 0.930 . S
C1751 C1747 1.400 . S
C1751 C1750 1.385 . S
C1752 C1750 1.478 . S
C1752 C1754 1.381 . S
C1752 C1758 1.383 . S
C1753 C1749 1.495 . S
C1753 H1759 0.959 . S
C1753 H1760 0.961 . S
C1753 H1761 0.960 . S
C1754 C1752 1.381 . S
C1754 C1755 1.394 . S
C1754 H1762 0.930 . S
C1755 C1754 1.394 . S
C1755 C1756 1.383 . S
C1755 H1763 0.929 . S
C1756 C1755 1.383 . S
C1756 C1757 1.377 . S
C1757 H1741 0.930 . S
C1757 C1756 1.377 . S
C1757 C1758 1.379 . S
C1758 H1742 0.931 . S
C1758 C1752 1.383 . S
C1758 C1757 1.379 . S
H1759 C1753 0.959 . S
H1760 C1753 0.961 . S
H1761 C1753 0.960 . S
H1762 C1754 0.930 . S
H1763 C1755 0.929 . S
H1764 C1772 0.929 . S
H1765 C1774 0.930 . S
H1766 C1776 0.930 . S
H1767 C1779 0.929 . S
H1768 C1782 0.930 . S
H1769 C1784 0.960 . S
H1770 C1784 0.960 . S
H1771 C1784 0.960 . S
C1772 H1764 0.929 . S
C1772 C1773 1.377 . S
C1772 C1774 1.384 . S
C1773 C1772 1.377 . S
C1773 C1779 1.390 . S
C1774 H1765 0.930 . S
C1774 C1772 1.384 . S
C1774 C1775 1.372 . S
C1775 C1774 1.372 . S
C1775 C1776 1.400 . S
C1775 C1780 1.490 . S
C1776 H1766 0.930 . S
C1776 C1775 1.400 . S
C1776 C1779 1.386 . S
H1777 C1793 0.930 . S
H1778 C1794 0.931 . S
C1779 H1767 0.929 . S
C1779 C1773 1.390 . S
C1779 C1776 1.386 . S
C1780 C1775 1.490 . S
C1780 C1782 1.395 . S
C1780 C1783 1.403 . S
H1781 C1787 0.930 . S
C1782 H1768 0.930 . S
C1782 C1780 1.395 . S
C1782 C1785 1.403 . S
C1783 C1780 1.403 . S
C1783 C1784 1.524 . S
C1783 C1787 1.400 . S
C1784 H1769 0.960 . S
C1784 H1770 0.960 . S
C1784 H1771 0.960 . S
C1784 C1783 1.524 . S
C1785 C1782 1.403 . S
C1785 C1786 1.392 . S
C1785 C1789 1.495 . S
C1786 C1785 1.392 . S
C1786 C1787 1.385 . S
C1786 C1788 1.478 . S
C1787 H1781 0.930 . S
C1787 C1783 1.400 . S
C1787 C1786 1.385 . S
C1788 C1786 1.478 . S
C1788 C1790 1.381 . S
C1788 C1794 1.383 . S
C1789 C1785 1.495 . S
C1789 H1795 0.959 . S
C1789 H1796 0.961 . S
C1789 H1797 0.960 . S
C1790 C1788 1.381 . S
C1790 C1791 1.394 . S
C1790 H1798 0.930 . S
C1791 C1790 1.394 . S
C1791 C1792 1.383 . S
C1791 H1799 0.929 . S
C1792 C1791 1.383 . S
C1792 C1793 1.377 . S
C1793 H1777 0.930 . S
C1793 C1792 1.377 . S
C1793 C1794 1.379 . S
C1794 H1778 0.931 . S
C1794 C1788 1.383 . S
C1794 C1793 1.379 . S
H1795 C1789 0.959 . S
H1796 C1789 0.961 . S
H1797 C1789 0.960 . S
H1798 C1790 0.930 . S
H1799 C1791 0.929 . S
H1800 C1808 0.929 . S
H1801 C1810 0.930 . S
H1802 C1812 0.930 . S
H1803 C1815 0.929 . S
H1804 C1818 0.930 . S
H1805 C1820 0.960 . S
H1806 C1820 0.960 . S
H1807 C1820 0.960 . S
C1808 H1800 0.929 . S
C1808 C1809 1.377 . S
C1808 C1810 1.384 . S
C1809 C1808 1.377 . S
C1809 C1815 1.390 . S
C1810 H1801 0.930 . S
C1810 C1808 1.384 . S
C1810 C1811 1.372 . S
C1811 C1810 1.372 . S
C1811 C1812 1.400 . S
C1811 C1816 1.490 . S
C1812 H1802 0.930 . S
C1812 C1811 1.400 . S
C1812 C1815 1.386 . S
H1813 C1829 0.930 . S
H1814 C1830 0.931 . S
C1815 H1803 0.929 . S
C1815 C1809 1.390 . S
C1815 C1812 1.386 . S
C1816 C1811 1.490 . S
C1816 C1818 1.395 . S
C1816 C1819 1.403 . S
H1817 C1823 0.930 . S
C1818 H1804 0.930 . S
C1818 C1816 1.395 . S
C1818 C1821 1.403 . S
C1819 C1816 1.403 . S
C1819 C1820 1.524 . S
C1819 C1823 1.400 . S
C1820 H1805 0.960 . S
C1820 H1806 0.960 . S
C1820 H1807 0.960 . S
C1820 C1819 1.524 . S
C1821 C1818 1.403 . S
C1821 C1822 1.392 . S
C1821 C1825 1.495 . S
C1822 C1821 1.392 . S
C1822 C1823 1.385 . S
C1822 C1824 1.478 . S
C1823 H1817 0.930 . S
C1823 C1819 1.400 . S
C1823 C1822 1.385 . S
C1824 C1822 1.478 . S
C1824 C1826 1.381 . S
C1824 C1830 1.383 . S
C1825 C1821 1.495 . S
C1825 H1831 0.959 . S
C1825 H1832 0.961 . S
C1825 H1833 0.960 . S
C1826 C1824 1.381 . S
C1826 C1827 1.394 . S
C1826 H1834 0.930 . S
C1827 C1826 1.394 . S
C1827 C1828 1.383 . S
C1827 H1835 0.929 . S
C1828 C1827 1.383 . S
C1828 C1829 1.377 . S
C1829 H1813 0.930 . S
C1829 C1828 1.377 . S
C1829 C1830 1.379 . S
C1830 H1814 0.931 . S
C1830 C1824 1.383 . S
C1830 C1829 1.379 . S
H1831 C1825 0.959 . S
H1832 C1825 0.961 . S
H1833 C1825 0.960 . S
H1834 C1826 0.930 . S
H1835 C1827 0.929 . S
H1836 C1844 0.929 . S
H1837 C1846 0.930 . S
H1838 C1848 0.930 . S
H1839 C1851 0.929 . S
H1840 C1854 0.930 . S
H1841 C1856 0.960 . S
H1842 C1856 0.960 . S
H1843 C1856 0.960 . S
C1844 H1836 0.929 . S
C1844 C1845 1.377 . S
C1844 C1846 1.384 . S
C1845 C1844 1.377 . S
C1845 C1851 1.390 . S
C1846 H1837 0.930 . S
C1846 C1844 1.384 . S
C1846 C1847 1.372 . S
C1847 C1846 1.372 . S
C1847 C1848 1.400 . S
C1847 C1852 1.490 . S
C1848 H1838 0.930 . S
C1848 C1847 1.400 . S
C1848 C1851 1.386 . S
H1849 C1865 0.930 . S
H1850 C1866 0.931 . S
C1851 H1839 0.929 . S
C1851 C1845 1.390 . S
C1851 C1848 1.386 . S
C1852 C1847 1.490 . S
C1852 C1854 1.395 . S
C1852 C1855 1.403 . S
H1853 C1859 0.930 . S
C1854 H1840 0.930 . S
C1854 C1852 1.395 . S
C1854 C1857 1.403 . S
C1855 C1852 1.403 . S
C1855 C1856 1.524 . S
C1855 C1859 1.400 . S
C1856 H1841 0.960 . S
C1856 H1842 0.960 . S
C1856 H1843 0.960 . S
C1856 C1855 1.524 . S
C1857 C1854 1.403 . S
C1857 C1858 1.392 . S
C1857 C1861 1.495 . S
C1858 C1857 1.392 . S
C1858 C1859 1.385 . S
C1858 C1860 1.478 . S
C1859 H1853 0.930 . S
C1859 C1855 1.400 . S
C1859 C1858 1.385 . S
C1860 C1858 1.478 . S
C1860 C1862 1.381 . S
C1860 C1866 1.383 . S
C1861 C1857 1.495 . S
C1861 H1867 0.959 . S
C1861 H1868 0.961 . S
C1861 H1869 0.960 . S
C1862 C1860 1.381 . S
C1862 C1863 1.394 . S
C1862 H1870 0.930 . S
C1863 C1862 1.394 . S
C1863 C1864 1.383 . S
C1863 H1871 0.929 . S
C1864 C1863 1.383 . S
C1864 C1865 1.377 . S
C1865 H1849 0.930 . S
C1865 C1864 1.377 . S
C1865 C1866 1.379 . S
C1866 H1850 0.931 . S
C1866 C1860 1.383 . S
C1866 C1865 1.379 . S
H1867 C1861 0.959 . S
H1868 C1861 0.961 . S
H1869 C1861 0.960 . S
H1870 C1862 0.930 . S
H1871 C1863 0.929 . S
H1872 C1880 0.929 . S
H1873 C1882 0.930 . S
H1874 C1884 0.930 . S
H1875 C1887 0.929 . S
H1876 C1890 0.930 . S
H1877 C1892 0.960 . S
H1878 C1892 0.960 . S
H1879 C1892 0.960 . S
C1880 H1872 0.929 . S
C1880 C1881 1.377 . S
C1880 C1882 1.384 . S
C1881 C1880 1.377 . S
C1881 C1887 1.390 . S
C1882 H1873 0.930 . S
C1882 C1880 1.384 . S
C1882 C1883 1.372 . S
C1883 C1882 1.372 . S
C1883 C1884 1.400 . S
C1883 C1888 1.490 . S
C1884 H1874 0.930 . S
C1884 C1883 1.400 . S
C1884 C1887 1.386 . S
H1885 C1901 0.930 . S
H1886 C1902 0.931 . S
C1887 H1875 0.929 . S
C1887 C1881 1.390 . S
C1887 C1884 1.386 . S
C1888 C1883 1.490 . S
C1888 C1890 1.395 . S
C1888 C1891 1.403 . S
H1889 C1895 0.930 . S
C1890 H1876 0.930 . S
C1890 C1888 1.395 . S
C1890 C1893 1.403 . S
C1891 C1888 1.403 . S
C1891 C1892 1.524 . S
C1891 C1895 1.400 . S
C1892 H1877 0.960 . S
C1892 H1878 0.960 . S
C1892 H1879 0.960 . S
C1892 C1891 1.524 . S
C1893 C1890 1.403 . S
C1893 C1894 1.392 . S
C1893 C1897 1.495 . S
C1894 C1893 1.392 . S
C1894 C1895 1.385 . S
C1894 C1896 1.478 . S
C1895 H1889 0.930 . S
C1895 C1891 1.400 . S
C1895 C1894 1.385 . S
C1896 C1894 1.478 . S
C1896 C1898 1.381 . S
C1896 C1902 1.383 . S
C1897 C1893 1.495 . S
C1897 H1903 0.959 . S
C1897 H1904 0.961 . S
C1897 H1905 0.960 . S
C1898 C1896 1.381 . S
C1898 C1899 1.394 . S
C1898 H1906 0.930 . S
C1899 C1898 1.394 . S
C1899 C1900 1.383 . S
C1899 H1907 0.929 . S
C1900 C1899 1.383 . S
C1900 C1901 1.377 . S
C1901 H1885 0.930 . S
C1901 C1900 1.377 . S
C1901 C1902 1.379 . S
C1902 H1886 0.931 . S
C1902 C1896 1.383 . S
C1902 C1901 1.379 . S
H1903 C1897 0.959 . S
H1904 C1897 0.961 . S
H1905 C1897 0.960 . S
H1906 C1898 0.930 . S
H1907 C1899 0.929 . S
H1908 C1916 0.929 . S
H1909 C1918 0.930 . S
H1910 C1920 0.930 . S
H1911 C1923 0.929 . S
H1912 C1926 0.930 . S
H1913 C1928 0.960 . S
H1914 C1928 0.960 . S
H1915 C1928 0.960 . S
C1916 H1908 0.929 . S
C1916 C1917 1.377 . S
C1916 C1918 1.384 . S
C1917 C1916 1.377 . S
C1917 C1923 1.390 . S
C1918 H1909 0.930 . S
C1918 C1916 1.384 . S
C1918 C1919 1.372 . S
C1919 C1918 1.372 . S
C1919 C1920 1.400 . S
C1919 C1924 1.490 . S
C1920 H1910 0.930 . S
C1920 C1919 1.400 . S
C1920 C1923 1.386 . S
H1921 C1937 0.930 . S
H1922 C1938 0.931 . S
C1923 H1911 0.929 . S
C1923 C1917 1.390 . S
C1923 C1920 1.386 . S
C1924 C1919 1.490 . S
C1924 C1926 1.395 . S
C1924 C1927 1.403 . S
H1925 C1931 0.930 . S
C1926 H1912 0.930 . S
C1926 C1924 1.395 . S
C1926 C1929 1.403 . S
C1927 C1924 1.403 . S
C1927 C1928 1.524 . S
C1927 C1931 1.400 . S
C1928 H1913 0.960 . S
C1928 H1914 0.960 . S
C1928 H1915 0.960 . S
C1928 C1927 1.524 . S
C1929 C1926 1.403 . S
C1929 C1930 1.392 . S
C1929 C1933 1.495 . S
C1930 C1929 1.392 . S
C1930 C1931 1.385 . S
C1930 C1932 1.478 . S
C1931 H1925 0.930 . S
C1931 C1927 1.400 . S
C1931 C1930 1.385 . S
C1932 C1930 1.478 . S
C1932 C1934 1.381 . S
C1932 C1938 1.383 . S
C1933 C1929 1.495 . S
C1933 H1939 0.959 . S
C1933 H1940 0.961 . S
C1933 H1941 0.960 . S
C1934 C1932 1.381 . S
C1934 C1935 1.394 . S
C1934 H1942 0.930 . S
C1935 C1934 1.394 . S
C1935 C1936 1.383 . S
C1935 H1943 0.929 . S
C1936 C1935 1.383 . S
C1936 C1937 1.377 . S
C1937 H1921 0.930 . S
C1937 C1936 1.377 . S
C1937 C1938 1.379 . S
C1938 H1922 0.931 . S
C1938 C1932 1.383 . S
C1938 C1937 1.379 . S
H1939 C1933 0.959 . S
H1940 C1933 0.961 . S
H1941 C1933 0.960 . S
H1942 C1934 0.930 . S
H1943 C1935 0.929 . S
H1944 C1952 0.929 . S
H1945 C1954 0.930 . S
H1946 C1956 0.930 . S
H1947 C1959 0.929 . S
H1948 C1962 0.930 . S
H1949 C1964 0.960 . S
H1950 C1964 0.960 . S
H1951 C1964 0.960 . S
C1952 H1944 0.929 . S
C1952 C1953 1.377 . S
C1952 C1954 1.384 . S
C1953 C1952 1.377 . S
C1953 C1959 1.390 . S
C1954 H1945 0.930 . S
C1954 C1952 1.384 . S
C1954 C1955 1.372 . S
C1955 C1954 1.372 . S
C1955 C1956 1.400 . S
C1955 C1960 1.490 . S
C1956 H1946 0.930 . S
C1956 C1955 1.400 . S
C1956 C1959 1.386 . S
H1957 C1973 0.930 . S
H1958 C1974 0.931 . S
C1959 H1947 0.929 . S
C1959 C1953 1.390 . S
C1959 C1956 1.386 . S
C1960 C1955 1.490 . S
C1960 C1962 1.395 . S
C1960 C1963 1.403 . S
H1961 C1967 0.930 . S
C1962 H1948 0.930 . S
C1962 C1960 1.395 . S
C1962 C1965 1.403 . S
C1963 C1960 1.403 . S
C1963 C1964 1.524 . S
C1963 C1967 1.400 . S
C1964 H1949 0.960 . S
C1964 H1950 0.960 . S
C1964 H1951 0.960 . S
C1964 C1963 1.524 . S
C1965 C1962 1.403 . S
C1965 C1966 1.392 . S
C1965 C1969 1.495 . S
C1966 C1965 1.392 . S
C1966 C1967 1.385 . S
C1966 C1968 1.478 . S
C1967 H1961 0.930 . S
C1967 C1963 1.400 . S
C1967 C1966 1.385 . S
C1968 C1966 1.478 . S
C1968 C1970 1.381 . S
C1968 C1974 1.383 . S
C1969 C1965 1.495 . S
C1969 H1975 0.959 . S
C1969 H1976 0.961 . S
C1969 H1977 0.960 . S
C1970 C1968 1.381 . S
C1970 C1971 1.394 . S
C1970 H1978 0.930 . S
C1971 C1970 1.394 . S
C1971 C1972 1.383 . S
C1971 H1979 0.929 . S
C1972 C1971 1.383 . S
C1972 C1973 1.377 . S
C1973 H1957 0.930 . S
C1973 C1972 1.377 . S
C1973 C1974 1.379 . S
C1974 H1958 0.931 . S
C1974 C1968 1.383 . S
C1974 C1973 1.379 . S
H1975 C1969 0.959 . S
H1976 C1969 0.961 . S
H1977 C1969 0.960 . S
H1978 C1970 0.930 . S
H1979 C1971 0.929 . S
H1980 C1988 0.929 . S
H1981 C1990 0.930 . S
H1982 C1992 0.930 . S
H1983 C1995 0.929 . S
H1984 C1998 0.930 . S
H1985 C2000 0.960 . S
H1986 C2000 0.960 . S
H1987 C2000 0.960 . S
C1988 H1980 0.929 . S
C1988 C1989 1.377 . S
C1988 C1990 1.384 . S
C1989 C1988 1.377 . S
C1989 C1995 1.390 . S
C1990 H1981 0.930 . S
C1990 C1988 1.384 . S
C1990 C1991 1.372 . S
C1991 C1990 1.372 . S
C1991 C1992 1.400 . S
C1991 C1996 1.490 . S
C1992 H1982 0.930 . S
C1992 C1991 1.400 . S
C1992 C1995 1.386 . S
H1993 C2009 0.930 . S
H1994 C2010 0.931 . S
C1995 H1983 0.929 . S
C1995 C1989 1.390 . S
C1995 C1992 1.386 . S
C1996 C1991 1.490 . S
C1996 C1998 1.395 . S
C1996 C1999 1.403 . S
H1997 C2003 0.930 . S
C1998 H1984 0.930 . S
C1998 C1996 1.395 . S
C1998 C2001 1.403 . S
C1999 C1996 1.403 . S
C1999 C2000 1.524 . S
C1999 C2003 1.400 . S
C2000 H1985 0.960 . S
C2000 H1986 0.960 . S
C2000 H1987 0.960 . S
C2000 C1999 1.524 . S
C2001 C1998 1.403 . S
C2001 C2002 1.392 . S
C2001 C2005 1.495 . S
C2002 C2001 1.392 . S
C2002 C2003 1.385 . S
C2002 C2004 1.478 . S
C2003 H1997 0.930 . S
C2003 C1999 1.400 . S
C2003 C2002 1.385 . S
C2004 C2002 1.478 . S
C2004 C2006 1.381 . S
C2004 C2010 1.383 . S
C2005 C2001 1.495 . S
C2005 H2011 0.959 . S
C2005 H2012 0.961 . S
C2005 H2013 0.960 . S
C2006 C2004 1.381 . S
C2006 C2007 1.394 . S
C2006 H2014 0.930 . S
C2007 C2006 1.394 . S
C2007 C2008 1.383 . S
C2007 H2015 0.929 . S
C2008 C2007 1.383 . S
C2008 C2009 1.377 . S
C2009 H1993 0.930 . S
C2009 C2008 1.377 . S
C2009 C2010 1.379 . S
C2010 H1994 0.931 . S
C2010 C2004 1.383 . S
C2010 C2009 1.379 . S
H2011 C2005 0.959 . S
H2012 C2005 0.961 . S
H2013 C2005 0.960 . S
H2014 C2006 0.930 . S
H2015 C2007 0.929 . S
H2016 C2024 0.929 . S
H2017 C2026 0.930 . S
H2018 C2028 0.930 . S
H2019 C2031 0.929 . S
H2020 C2034 0.930 . S
H2021 C2036 0.960 . S
H2022 C2036 0.960 . S
H2023 C2036 0.960 . S
C2024 H2016 0.929 . S
C2024 C2025 1.377 . S
C2024 C2026 1.384 . S
C2025 C2024 1.377 . S
C2025 C2031 1.390 . S
C2026 H2017 0.930 . S
C2026 C2024 1.384 . S
C2026 C2027 1.372 . S
C2027 C2026 1.372 . S
C2027 C2028 1.400 . S
C2027 C2032 1.490 . S
C2028 H2018 0.930 . S
C2028 C2027 1.400 . S
C2028 C2031 1.386 . S
H2029 C2045 0.930 . S
H2030 C2046 0.931 . S
C2031 H2019 0.929 . S
C2031 C2025 1.390 . S
C2031 C2028 1.386 . S
C2032 C2027 1.490 . S
C2032 C2034 1.395 . S
C2032 C2035 1.403 . S
H2033 C2039 0.930 . S
C2034 H2020 0.930 . S
C2034 C2032 1.395 . S
C2034 C2037 1.403 . S
C2035 C2032 1.403 . S
C2035 C2036 1.524 . S
C2035 C2039 1.400 . S
C2036 H2021 0.960 . S
C2036 H2022 0.960 . S
C2036 H2023 0.960 . S
C2036 C2035 1.524 . S
C2037 C2034 1.403 . S
C2037 C2038 1.392 . S
C2037 C2041 1.495 . S
C2038 C2037 1.392 . S
C2038 C2039 1.385 . S
C2038 C2040 1.478 . S
C2039 H2033 0.930 . S
C2039 C2035 1.400 . S
C2039 C2038 1.385 . S
C2040 C2038 1.478 . S
C2040 C2042 1.381 . S
C2040 C2046 1.383 . S
C2041 C2037 1.495 . S
C2041 H2047 0.959 . S
C2041 H2048 0.961 . S
C2041 H2049 0.960 . S
C2042 C2040 1.381 . S
C2042 C2043 1.394 . S
C2042 H2050 0.930 . S
C2043 C2042 1.394 . S
C2043 C2044 1.383 . S
C2043 H2051 0.929 . S
C2044 C2043 1.383 . S
C2044 C2045 1.377 . S
C2045 H2029 0.930 . S
C2045 C2044 1.377 . S
C2045 C2046 1.379 . S
C2046 H2030 0.931 . S
C2046 C2040 1.383 . S
C2046 C2045 1.379 . S
H2047 C2041 0.959 . S
H2048 C2041 0.961 . S
H2049 C2041 0.960 . S
H2050 C2042 0.930 . S
H2051 C2043 0.929 . S
H2052 C2060 0.929 . S
H2053 C2062 0.930 . S
H2054 C2064 0.930 . S
H2055 C2067 0.929 . S
H2056 C2070 0.930 . S
H2057 C2072 0.960 . S
H2058 C2072 0.960 . S
H2059 C2072 0.960 . S
C2060 H2052 0.929 . S
C2060 C2061 1.377 . S
C2060 C2062 1.384 . S
C2061 C2060 1.377 . S
C2061 C2067 1.390 . S
C2062 H2053 0.930 . S
C2062 C2060 1.384 . S
C2062 C2063 1.372 . S
C2063 C2062 1.372 . S
C2063 C2064 1.400 . S
C2063 C2068 1.490 . S
C2064 H2054 0.930 . S
C2064 C2063 1.400 . S
C2064 C2067 1.386 . S
H2065 C2081 0.930 . S
H2066 C2082 0.931 . S
C2067 H2055 0.929 . S
C2067 C2061 1.390 . S
C2067 C2064 1.386 . S
C2068 C2063 1.490 . S
C2068 C2070 1.395 . S
C2068 C2071 1.403 . S
H2069 C2075 0.930 . S
C2070 H2056 0.930 . S
C2070 C2068 1.395 . S
C2070 C2073 1.403 . S
C2071 C2068 1.403 . S
C2071 C2072 1.524 . S
C2071 C2075 1.400 . S
C2072 H2057 0.960 . S
C2072 H2058 0.960 . S
C2072 H2059 0.960 . S
C2072 C2071 1.524 . S
C2073 C2070 1.403 . S
C2073 C2074 1.392 . S
C2073 C2077 1.495 . S
C2074 C2073 1.392 . S
C2074 C2075 1.385 . S
C2074 C2076 1.478 . S
C2075 H2069 0.930 . S
C2075 C2071 1.400 . S
C2075 C2074 1.385 . S
C2076 C2074 1.478 . S
C2076 C2078 1.381 . S
C2076 C2082 1.383 . S
C2077 C2073 1.495 . S
C2077 H2083 0.959 . S
C2077 H2084 0.961 . S
C2077 H2085 0.960 . S
C2078 C2076 1.381 . S
C2078 C2079 1.394 . S
C2078 H2086 0.930 . S
C2079 C2078 1.394 . S
C2079 C2080 1.383 . S
C2079 H2087 0.929 . S
C2080 C2079 1.383 . S
C2080 C2081 1.377 . S
C2081 H2065 0.930 . S
C2081 C2080 1.377 . S
C2081 C2082 1.379 . S
C2082 H2066 0.931 . S
C2082 C2076 1.383 . S
C2082 C2081 1.379 . S
H2083 C2077 0.959 . S
H2084 C2077 0.961 . S
H2085 C2077 0.960 . S
H2086 C2078 0.930 . S
H2087 C2079 0.929 . S
H2088 C2096 0.929 . S
H2089 C2098 0.930 . S
H2090 C2100 0.930 . S
H2091 C2103 0.929 . S
H2092 C2106 0.930 . S
H2093 C2108 0.960 . S
H2094 C2108 0.960 . S
H2095 C2108 0.960 . S
C2096 H2088 0.929 . S
C2096 C2097 1.377 . S
C2096 C2098 1.384 . S
C2097 C2096 1.377 . S
C2097 C2103 1.390 . S
C2098 H2089 0.930 . S
C2098 C2096 1.384 . S
C2098 C2099 1.372 . S
C2099 C2098 1.372 . S
C2099 C2100 1.400 . S
C2099 C2104 1.490 . S
C2100 H2090 0.930 . S
C2100 C2099 1.400 . S
C2100 C2103 1.386 . S
H2101 C2117 0.930 . S
H2102 C2118 0.931 . S
C2103 H2091 0.929 . S
C2103 C2097 1.390 . S
C2103 C2100 1.386 . S
C2104 C2099 1.490 . S
C2104 C2106 1.395 . S
C2104 C2107 1.403 . S
H2105 C2111 0.930 . S
C2106 H2092 0.930 . S
C2106 C2104 1.395 . S
C2106 C2109 1.403 . S
C2107 C2104 1.403 . S
C2107 C2108 1.524 . S
C2107 C2111 1.400 . S
C2108 H2093 0.960 . S
C2108 H2094 0.960 . S
C2108 H2095 0.960 . S
C2108 C2107 1.524 . S
C2109 C2106 1.403 . S
C2109 C2110 1.392 . S
C2109 C2113 1.495 . S
C2110 C2109 1.392 . S
C2110 C2111 1.385 . S
C2110 C2112 1.478 . S
C2111 H2105 0.930 . S
C2111 C2107 1.400 . S
C2111 C2110 1.385 . S
C2112 C2110 1.478 . S
C2112 C2114 1.381 . S
C2112 C2118 1.383 . S
C2113 C2109 1.495 . S
C2113 H2119 0.959 . S
C2113 H2120 0.961 . S
C2113 H2121 0.960 . S
C2114 C2112 1.381 . S
C2114 C2115 1.394 . S
C2114 H2122 0.930 . S
C2115 C2114 1.394 . S
C2115 C2116 1.383 . S
C2115 H2123 0.929 . S
C2116 C2115 1.383 . S
C2116 C2117 1.377 . S
C2117 H2101 0.930 . S
C2117 C2116 1.377 . S
C2117 C2118 1.379 . S
C2118 H2102 0.931 . S
C2118 C2112 1.383 . S
C2118 C2117 1.379 . S
H2119 C2113 0.959 . S
H2120 C2113 0.961 . S
H2121 C2113 0.960 . S
H2122 C2114 0.930 . S
H2123 C2115 0.929 . S
H2124 C2132 0.929 . S
H2125 C2134 0.930 . S
H2126 C2136 0.930 . S
H2127 C2139 0.929 . S
H2128 C2142 0.930 . S
H2129 C2144 0.960 . S
H2130 C2144 0.960 . S
H2131 C2144 0.960 . S
C2132 H2124 0.929 . S
C2132 C2133 1.377 . S
C2132 C2134 1.384 . S
C2133 C2132 1.377 . S
C2133 C2139 1.390 . S
C2134 H2125 0.930 . S
C2134 C2132 1.384 . S
C2134 C2135 1.372 . S
C2135 C2134 1.372 . S
C2135 C2136 1.400 . S
C2135 C2140 1.490 . S
C2136 H2126 0.930 . S
C2136 C2135 1.400 . S
C2136 C2139 1.386 . S
H2137 C2153 0.930 . S
H2138 C2154 0.931 . S
C2139 H2127 0.929 . S
C2139 C2133 1.390 . S
C2139 C2136 1.386 . S
C2140 C2135 1.490 . S
C2140 C2142 1.395 . S
C2140 C2143 1.403 . S
H2141 C2147 0.930 . S
C2142 H2128 0.930 . S
C2142 C2140 1.395 . S
C2142 C2145 1.403 . S
C2143 C2140 1.403 . S
C2143 C2144 1.524 . S
C2143 C2147 1.400 . S
C2144 H2129 0.960 . S
C2144 H2130 0.960 . S
C2144 H2131 0.960 . S
C2144 C2143 1.524 . S
C2145 C2142 1.403 . S
C2145 C2146 1.392 . S
C2145 C2149 1.495 . S
C2146 C2145 1.392 . S
C2146 C2147 1.385 . S
C2146 C2148 1.478 . S
C2147 H2141 0.930 . S
C2147 C2143 1.400 . S
C2147 C2146 1.385 . S
C2148 C2146 1.478 . S
C2148 C2150 1.381 . S
C2148 C2154 1.383 . S
C2149 C2145 1.495 . S
C2149 H2155 0.959 . S
C2149 H2156 0.961 . S
C2149 H2157 0.960 . S
C2150 C2148 1.381 . S
C2150 C2151 1.394 . S
C2150 H2158 0.930 . S
C2151 C2150 1.394 . S
C2151 C2152 1.383 . S
C2151 H2159 0.929 . S
C2152 C2151 1.383 . S
C2152 C2153 1.377 . S
C2153 H2137 0.930 . S
C2153 C2152 1.377 . S
C2153 C2154 1.379 . S
C2154 H2138 0.931 . S
C2154 C2148 1.383 . S
C2154 C2153 1.379 . S
H2155 C2149 0.959 . S
H2156 C2149 0.961 . S
H2157 C2149 0.960 . S
H2158 C2150 0.930 . S
H2159 C2151 0.929 . S
H2160 C2168 0.929 . S
H2161 C2170 0.930 . S
H2162 C2172 0.930 . S
H2163 C2175 0.929 . S
H2164 C2178 0.930 . S
H2165 C2180 0.960 . S
H2166 C2180 0.960 . S
H2167 C2180 0.960 . S
C2168 H2160 0.929 . S
C2168 C2169 1.377 . S
C2168 C2170 1.384 . S
C2169 C2168 1.377 . S
C2169 C2175 1.390 . S
C2170 H2161 0.930 . S
C2170 C2168 1.384 . S
C2170 C2171 1.372 . S
C2171 C2170 1.372 . S
C2171 C2172 1.400 . S
C2171 C2176 1.490 . S
C2172 H2162 0.930 . S
C2172 C2171 1.400 . S
C2172 C2175 1.386 . S
H2173 C2189 0.930 . S
H2174 C2190 0.931 . S
C2175 H2163 0.929 . S
C2175 C2169 1.390 . S
C2175 C2172 1.386 . S
C2176 C2171 1.490 . S
C2176 C2178 1.395 . S
C2176 C2179 1.403 . S
H2177 C2183 0.930 . S
C2178 H2164 0.930 . S
C2178 C2176 1.395 . S
C2178 C2181 1.403 . S
C2179 C2176 1.403 . S
C2179 C2180 1.524 . S
C2179 C2183 1.400 . S
C2180 H2165 0.960 . S
C2180 H2166 0.960 . S
C2180 H2167 0.960 . S
C2180 C2179 1.524 . S
C2181 C2178 1.403 . S
C2181 C2182 1.392 . S
C2181 C2185 1.495 . S
C2182 C2181 1.392 . S
C2182 C2183 1.385 . S
C2182 C2184 1.478 . S
C2183 H2177 0.930 . S
C2183 C2179 1.400 . S
C2183 C2182 1.385 . S
C2184 C2182 1.478 . S
C2184 C2186 1.381 . S
C2184 C2190 1.383 . S
C2185 C2181 1.495 . S
C2185 H2191 0.959 . S
C2185 H2192 0.961 . S
C2185 H2193 0.960 . S
C2186 C2184 1.381 . S
C2186 C2187 1.394 . S
C2186 H2194 0.930 . S
C2187 C2186 1.394 . S
C2187 C2188 1.383 . S
C2187 H2195 0.929 . S
C2188 C2187 1.383 . S
C2188 C2189 1.377 . S
C2189 H2173 0.930 . S
C2189 C2188 1.377 . S
C2189 C2190 1.379 . S
C2190 H2174 0.931 . S
C2190 C2184 1.383 . S
C2190 C2189 1.379 . S
H2191 C2185 0.959 . S
H2192 C2185 0.961 . S
H2193 C2185 0.960 . S
H2194 C2186 0.930 . S
H2195 C2187 0.929 . S
H2196 C2204 0.929 . S
H2197 C2206 0.930 . S
H2198 C2208 0.930 . S
H2199 C2211 0.929 . S
H2200 C2214 0.930 . S
H2201 C2216 0.960 . S
H2202 C2216 0.960 . S
H2203 C2216 0.960 . S
C2204 H2196 0.929 . S
C2204 C2205 1.377 . S
C2204 C2206 1.384 . S
C2205 C2204 1.377 . S
C2205 C2211 1.390 . S
C2206 H2197 0.930 . S
C2206 C2204 1.384 . S
C2206 C2207 1.372 . S
C2207 C2206 1.372 . S
C2207 C2208 1.400 . S
C2207 C2212 1.490 . S
C2208 H2198 0.930 . S
C2208 C2207 1.400 . S
C2208 C2211 1.386 . S
H2209 C2225 0.930 . S
H2210 C2226 0.931 . S
C2211 H2199 0.929 . S
C2211 C2205 1.390 . S
C2211 C2208 1.386 . S
C2212 C2207 1.490 . S
C2212 C2214 1.395 . S
C2212 C2215 1.403 . S
H2213 C2219 0.930 . S
C2214 H2200 0.930 . S
C2214 C2212 1.395 . S
C2214 C2217 1.403 . S
C2215 C2212 1.403 . S
C2215 C2216 1.524 . S
C2215 C2219 1.400 . S
C2216 H2201 0.960 . S
C2216 H2202 0.960 . S
C2216 H2203 0.960 . S
C2216 C2215 1.524 . S
C2217 C2214 1.403 . S
C2217 C2218 1.392 . S
C2217 C2221 1.495 . S
C2218 C2217 1.392 . S
C2218 C2219 1.385 . S
C2218 C2220 1.478 . S
C2219 H2213 0.930 . S
C2219 C2215 1.400 . S
C2219 C2218 1.385 . S
C2220 C2218 1.478 . S
C2220 C2222 1.381 . S
C2220 C2226 1.383 . S
C2221 C2217 1.495 . S
C2221 H2227 0.959 . S
C2221 H2228 0.961 . S
C2221 H2229 0.960 . S
C2222 C2220 1.381 . S
C2222 C2223 1.394 . S
C2222 H2230 0.930 . S
C2223 C2222 1.394 . S
C2223 C2224 1.383 . S
C2223 H2231 0.929 . S
C2224 C2223 1.383 . S
C2224 C2225 1.377 . S
C2225 H2209 0.930 . S
C2225 C2224 1.377 . S
C2225 C2226 1.379 . S
C2226 H2210 0.931 . S
C2226 C2220 1.383 . S
C2226 C2225 1.379 . S
H2227 C2221 0.959 . S
H2228 C2221 0.961 . S
H2229 C2221 0.960 . S
H2230 C2222 0.930 . S
H2231 C2223 0.929 . S
H2232 C2240 0.929 . S
H2233 C2242 0.930 . S
H2234 C2244 0.930 . S
H2235 C2247 0.929 . S
H2236 C2250 0.930 . S
H2237 C2252 0.960 . S
H2238 C2252 0.960 . S
H2239 C2252 0.960 . S
C2240 H2232 0.929 . S
C2240 C2241 1.377 . S
C2240 C2242 1.384 . S
C2241 C2240 1.377 . S
C2241 C2247 1.390 . S
C2242 H2233 0.930 . S
C2242 C2240 1.384 . S
C2242 C2243 1.372 . S
C2243 C2242 1.372 . S
C2243 C2244 1.400 . S
C2243 C2248 1.490 . S
C2244 H2234 0.930 . S
C2244 C2243 1.400 . S
C2244 C2247 1.386 . S
H2245 C2261 0.930 . S
H2246 C2262 0.931 . S
C2247 H2235 0.929 . S
C2247 C2241 1.390 . S
C2247 C2244 1.386 . S
C2248 C2243 1.490 . S
C2248 C2250 1.395 . S
C2248 C2251 1.403 . S
H2249 C2255 0.930 . S
C2250 H2236 0.930 . S
C2250 C2248 1.395 . S
C2250 C2253 1.403 . S
C2251 C2248 1.403 . S
C2251 C2252 1.524 . S
C2251 C2255 1.400 . S
C2252 H2237 0.960 . S
C2252 H2238 0.960 . S
C2252 H2239 0.960 . S
C2252 C2251 1.524 . S
C2253 C2250 1.403 . S
C2253 C2254 1.392 . S
C2253 C2257 1.495 . S
C2254 C2253 1.392 . S
C2254 C2255 1.385 . S
C2254 C2256 1.478 . S
C2255 H2249 0.930 . S
C2255 C2251 1.400 . S
C2255 C2254 1.385 . S
C2256 C2254 1.478 . S
C2256 C2258 1.381 . S
C2256 C2262 1.383 . S
C2257 C2253 1.495 . S
C2257 H2263 0.959 . S
C2257 H2264 0.961 . S
C2257 H2265 0.960 . S
C2258 C2256 1.381 . S
C2258 C2259 1.394 . S
C2258 H2266 0.930 . S
C2259 C2258 1.394 . S
C2259 C2260 1.383 . S
C2259 H2267 0.929 . S
C2260 C2259 1.383 . S
C2260 C2261 1.377 . S
C2261 H2245 0.930 . S
C2261 C2260 1.377 . S
C2261 C2262 1.379 . S
C2262 H2246 0.931 . S
C2262 C2256 1.383 . S
C2262 C2261 1.379 . S
H2263 C2257 0.959 . S
H2264 C2257 0.961 . S
H2265 C2257 0.960 . S
H2266 C2258 0.930 . S
H2267 C2259 0.929 . S
H2268 C2276 0.929 . S
H2269 C2278 0.930 . S
H2270 C2280 0.930 . S
H2271 C2283 0.929 . S
H2272 C2286 0.930 . S
H2273 C2288 0.960 . S
H2274 C2288 0.960 . S
H2275 C2288 0.960 . S
C2276 H2268 0.929 . S
C2276 C2277 1.377 1_565 S
C2276 C2278 1.384 . S
C2277 C2276 1.377 1_545 S
C2277 C2283 1.390 . S
C2278 H2269 0.930 . S
C2278 C2276 1.384 . S
C2278 C2279 1.372 1_565 S
C2279 C2278 1.372 1_545 S
C2279 C2280 1.400 . S
C2279 C2284 1.498 . S
C2280 H2270 0.930 . S
C2280 C2279 1.400 . S
C2280 C2283 1.386 . S
H2281 C2297 0.930 . S
H2282 C2298 0.931 . S
C2283 H2271 0.929 . S
C2283 C2277 1.390 . S
C2283 C2280 1.386 . S
C2284 C2279 1.498 . S
C2284 C2286 1.354 1_545 S
C2284 C2287 1.437 . S
H2285 C2291 0.930 . S
C2286 H2272 0.930 . S
C2286 C2284 1.354 1_565 S
C2286 C2289 1.403 . S
C2287 C2284 1.437 . S
C2287 C2288 1.524 . S
C2287 C2291 1.400 . S
C2288 H2273 0.960 . S
C2288 H2274 0.960 . S
C2288 H2275 0.960 . S
C2288 C2287 1.524 . S
C2289 C2286 1.403 . S
C2289 C2290 1.392 . S
C2289 C2293 1.495 . S
C2290 C2289 1.392 . S
C2290 C2291 1.385 1_565 S
C2290 C2292 1.478 . S
C2291 H2285 0.930 . S
C2291 C2287 1.400 . S
C2291 C2290 1.385 1_545 S
C2292 C2290 1.478 . S
C2292 C2294 1.381 . S
C2292 C2298 1.383 1_565 S
C2293 C2289 1.495 . S
C2293 H2299 0.959 . S
C2293 H2300 0.961 . S
C2293 H2301 0.960 . S
C2294 C2292 1.381 . S
C2294 C2295 1.394 . S
C2294 H2302 0.930 . S
C2295 C2294 1.394 . S
C2295 C2296 1.383 . S
C2295 H2303 0.929 . S
C2296 C2295 1.383 . S
C2296 C2297 1.377 1_565 S
C2297 H2281 0.930 . S
C2297 C2296 1.377 1_545 S
C2297 C2298 1.379 . S
C2298 H2282 0.931 . S
C2298 C2292 1.383 1_545 S
C2298 C2297 1.379 . S
H2299 C2293 0.959 . S
H2300 C2293 0.961 . S
H2301 C2293 0.960 . S
H2302 C2294 0.930 . S
H2303 C2295 0.929 . S
H2304 C2312 0.929 . S
H2305 C2314 0.930 . S
H2306 C2316 0.930 . S
H2307 C2319 0.929 . S
H2308 C2322 0.930 . S
H2309 C2324 0.960 . S
H2310 C2324 0.960 . S
H2311 C2324 0.960 1_455 S
C2312 H2304 0.929 . S
C2312 C2313 1.377 1_655 S
C2312 C2314 1.384 . S
C2313 C2312 1.377 1_455 S
C2313 C2319 1.390 . S
C2314 H2305 0.930 . S
C2314 C2312 1.384 . S
C2314 C2315 1.372 1_655 S
C2315 C2314 1.372 1_455 S
C2315 C2316 1.400 . S
C2315 C2320 1.490 . S
C2316 H2306 0.930 . S
C2316 C2315 1.400 . S
C2316 C2319 1.386 . S
H2317 C2333 0.930 . S
H2318 C2334 0.931 . S
C2319 H2307 0.929 . S
C2319 C2313 1.390 . S
C2319 C2316 1.386 . S
C2320 C2315 1.490 . S
C2320 C2322 1.395 . S
C2320 C2323 1.403 1_455 S
H2321 C2327 0.930 . S
C2322 H2308 0.930 . S
C2322 C2320 1.395 . S
C2322 C2325 1.403 . S
C2323 C2320 1.403 1_655 S
C2323 C2324 1.524 . S
C2323 C2327 1.400 . S
C2324 H2309 0.960 . S
C2324 H2310 0.960 . S
C2324 H2311 0.960 1_655 S
C2324 C2323 1.524 . S
C2325 C2322 1.403 . S
C2325 C2326 1.392 1_455 S
C2325 C2329 1.495 . S
C2326 C2325 1.392 1_655 S
C2326 C2327 1.385 . S
C2326 C2328 1.478 . S
C2327 H2321 0.930 . S
C2327 C2323 1.400 . S
C2327 C2326 1.385 . S
C2328 C2326 1.478 . S
C2328 C2330 1.381 . S
C2328 C2334 1.383 1_655 S
C2329 C2325 1.495 . S
C2329 H2335 0.959 . S
C2329 H2336 0.961 . S
C2329 H2337 0.960 1_455 S
C2330 C2328 1.381 . S
C2330 C2331 1.394 . S
C2330 H2338 0.930 . S
C2331 C2330 1.394 . S
C2331 C2332 1.383 . S
C2331 H2339 0.929 . S
C2332 C2331 1.383 . S
C2332 C2333 1.377 1_655 S
C2333 H2317 0.930 . S
C2333 C2332 1.377 1_455 S
C2333 C2334 1.379 . S
C2334 H2318 0.931 . S
C2334 C2328 1.383 1_455 S
C2334 C2333 1.379 . S
H2335 C2329 0.959 . S
H2336 C2329 0.961 . S
H2337 C2329 0.960 1_655 S
H2338 C2330 0.930 . S
H2339 C2331 0.929 . S
H2340 C2348 0.929 . S
H2341 C2350 0.930 . S
H2342 C2352 0.930 . S
H2343 C2355 0.929 . S
H2344 C2358 0.930 . S
H2345 C2360 0.960 . S
H2346 C2360 0.960 . S
H2347 C2360 0.960 . S
C2348 H2340 0.929 . S
C2348 C2349 1.377 . S
C2348 C2350 1.384 . S
C2349 C2348 1.377 . S
C2349 C2355 1.390 . S
C2350 H2341 0.930 . S
C2350 C2348 1.384 . S
C2350 C2351 1.372 . S
C2351 C2350 1.372 . S
C2351 C2352 1.400 . S
C2351 C2356 1.490 . S
C2352 H2342 0.930 . S
C2352 C2351 1.400 . S
C2352 C2355 1.386 . S
H2353 C2369 0.930 . S
H2354 C2370 0.931 . S
C2355 H2343 0.929 . S
C2355 C2349 1.390 . S
C2355 C2352 1.386 . S
C2356 C2351 1.490 . S
C2356 C2358 1.395 . S
C2356 C2359 1.403 . S
H2357 C2363 0.930 . S
C2358 H2344 0.930 . S
C2358 C2356 1.395 . S
C2358 C2361 1.403 . S
C2359 C2356 1.403 . S
C2359 C2360 1.524 . S
C2359 C2363 1.400 . S
C2360 H2345 0.960 . S
C2360 H2346 0.960 . S
C2360 H2347 0.960 . S
C2360 C2359 1.524 . S
C2361 C2358 1.403 . S
C2361 C2362 1.392 . S
C2361 C2365 1.495 . S
C2362 C2361 1.392 . S
C2362 C2363 1.385 . S
C2362 C2364 1.478 . S
C2363 H2357 0.930 . S
C2363 C2359 1.400 . S
C2363 C2362 1.385 . S
C2364 C2362 1.478 . S
C2364 C2366 1.381 . S
C2364 C2370 1.383 . S
C2365 C2361 1.495 . S
C2365 H2371 0.959 . S
C2365 H2372 0.961 . S
C2365 H2373 0.960 . S
C2366 C2364 1.381 . S
C2366 C2367 1.394 . S
C2366 H2374 0.930 . S
C2367 C2366 1.394 . S
C2367 C2368 1.383 . S
C2367 H2375 0.929 . S
C2368 C2367 1.383 . S
C2368 C2369 1.377 . S
C2369 H2353 0.930 . S
C2369 C2368 1.377 . S
C2369 C2370 1.379 . S
C2370 H2354 0.931 . S
C2370 C2364 1.383 . S
C2370 C2369 1.379 . S
H2371 C2365 0.959 . S
H2372 C2365 0.961 . S
H2373 C2365 0.960 . S
H2374 C2366 0.930 . S
H2375 C2367 0.929 . S
H2376 C2384 0.929 . S
H2377 C2386 0.930 . S
H2378 C2388 0.930 . S
H2379 C2391 0.929 . S
H2380 C2394 0.930 . S
H2381 C2396 0.960 . S
H2382 C2396 0.960 . S
H2383 C2396 0.960 . S
C2384 H2376 0.929 . S
C2384 C2385 1.377 1_545 S
C2384 C2386 1.384 . S
C2385 C2384 1.377 1_565 S
C2385 C2391 1.390 . S
C2386 H2377 0.930 . S
C2386 C2384 1.384 . S
C2386 C2387 1.372 1_545 S
C2387 C2386 1.372 1_565 S
C2387 C2388 1.400 . S
C2387 C2392 1.490 . S
C2388 H2378 0.930 . S
C2388 C2387 1.400 . S
C2388 C2391 1.386 . S
H2389 C2405 0.930 . S
H2390 C2406 0.931 . S
C2391 H2379 0.929 . S
C2391 C2385 1.390 . S
C2391 C2388 1.386 . S
C2392 C2387 1.490 . S
C2392 C2394 1.395 . S
C2392 C2395 1.403 1_565 S
H2393 C2399 0.930 . S
C2394 H2380 0.930 . S
C2394 C2392 1.395 . S
C2394 C2397 1.403 . S
C2395 C2392 1.403 1_545 S
C2395 C2396 1.524 . S
C2395 C2399 1.400 . S
C2396 H2381 0.960 . S
C2396 H2382 0.960 . S
C2396 H2383 0.960 . S
C2396 C2395 1.524 . S
C2397 C2394 1.403 . S
C2397 C2398 1.392 1_565 S
C2397 C2401 1.495 . S
C2398 C2397 1.392 1_545 S
C2398 C2399 1.385 . S
C2398 C2400 1.478 . S
C2399 H2393 0.930 . S
C2399 C2395 1.400 . S
C2399 C2398 1.385 . S
C2400 C2398 1.478 . S
C2400 C2402 1.381 . S
C2400 C2406 1.383 1_545 S
C2401 C2397 1.495 . S
C2401 H2407 0.959 . S
C2401 H2408 0.961 . S
C2401 H2409 0.960 . S
C2402 C2400 1.381 . S
C2402 C2403 1.394 . S
C2402 H2410 0.930 . S
C2403 C2402 1.394 . S
C2403 C2404 1.383 . S
C2403 H2411 0.929 . S
C2404 C2403 1.383 . S
C2404 C2405 1.377 1_545 S
C2405 H2389 0.930 . S
C2405 C2404 1.377 1_565 S
C2405 C2406 1.379 . S
C2406 H2390 0.931 . S
C2406 C2400 1.383 1_565 S
C2406 C2405 1.379 . S
H2407 C2401 0.959 . S
H2408 C2401 0.961 . S
H2409 C2401 0.960 . S
H2410 C2402 0.930 . S
H2411 C2403 0.929 . S
H2412 C2420 0.929 . S
H2413 C2422 0.930 . S
H2414 C2424 0.930 . S
H2415 C2427 0.929 . S
H2416 C2430 0.930 . S
H2417 C2432 0.960 . S
H2418 C2432 0.960 . S
H2419 C2432 1.028 . S
C2420 H2412 0.929 . S
C2420 C2421 1.377 1_655 S
C2420 C2422 1.384 . S
C2421 C2420 1.377 1_455 S
C2421 C2427 1.390 . S
C2422 H2413 0.930 . S
C2422 C2420 1.384 . S
C2422 C2423 1.372 1_655 S
C2423 C2422 1.372 1_455 S
C2423 C2424 1.400 . S
C2423 C2428 1.490 . S
C2424 H2414 0.930 . S
C2424 C2423 1.400 . S
C2424 C2427 1.386 . S
H2425 C2441 0.930 . S
H2426 C2442 0.931 . S
C2427 H2415 0.929 . S
C2427 C2421 1.390 . S
C2427 C2424 1.386 . S
C2428 C2423 1.490 . S
C2428 C2430 1.395 . S
C2428 C2431 1.403 1_455 S
H2429 C2435 0.930 . S
C2430 H2416 0.930 . S
C2430 C2428 1.395 . S
C2430 C2433 1.403 . S
C2431 C2428 1.403 1_655 S
C2431 C2432 1.524 . S
C2431 C2435 1.400 . S
C2432 H2417 0.960 . S
C2432 H2418 0.960 . S
C2432 H2419 1.028 . S
C2432 C2431 1.524 . S
C2433 C2430 1.403 . S
C2433 C2434 1.392 1_455 S
C2433 C2437 1.495 . S
C2434 C2433 1.392 1_655 S
C2434 C2435 1.385 . S
C2434 C2436 1.478 . S
C2435 H2429 0.930 . S
C2435 C2431 1.400 . S
C2435 C2434 1.385 . S
C2436 C2434 1.478 . S
C2436 C2438 1.381 . S
C2436 C2442 1.383 1_655 S
C2437 C2433 1.495 . S
C2437 H2443 0.959 . S
C2437 H2444 0.961 . S
C2437 H2445 0.942 1_455 S
C2438 C2436 1.381 . S
C2438 C2439 1.394 . S
C2438 H2446 0.930 . S
C2439 C2438 1.394 . S
C2439 C2440 1.383 . S
C2439 H2447 0.929 . S
C2440 C2439 1.383 . S
C2440 C2441 1.377 1_655 S
C2441 H2425 0.930 . S
C2441 C2440 1.377 1_455 S
C2441 C2442 1.379 . S
C2442 H2426 0.931 . S
C2442 C2436 1.383 1_455 S
C2442 C2441 1.379 . S
H2443 C2437 0.959 . S
H2444 C2437 0.961 . S
H2445 C2437 0.942 1_655 S
H2446 C2438 0.930 . S
H2447 C2439 0.929 . S
H2448 C2456 0.929 . S
H2449 C2458 0.930 . S
H2450 C2460 0.930 . S
H2451 C2463 0.929 . S
H2452 C2466 0.930 . S
H2453 C2468 0.960 . S
H2454 C2468 0.960 . S
H2455 C2468 0.960 . S
C2456 H2448 0.929 . S
C2456 C2457 1.377 . S
C2456 C2458 1.384 . S
C2457 C2456 1.377 . S
C2457 C2463 1.390 . S
C2458 H2449 0.930 . S
C2458 C2456 1.384 . S
C2458 C2459 1.372 . S
C2459 C2458 1.372 . S
C2459 C2460 1.400 . S
C2459 C2464 1.490 . S
C2460 H2450 0.930 . S
C2460 C2459 1.400 . S
C2460 C2463 1.386 . S
H2461 C2477 0.930 . S
H2462 C2478 0.931 . S
C2463 H2451 0.929 . S
C2463 C2457 1.390 . S
C2463 C2460 1.386 . S
C2464 C2459 1.490 . S
C2464 C2466 1.395 . S
C2464 C2467 1.403 . S
H2465 C2471 0.930 . S
C2466 H2452 0.930 . S
C2466 C2464 1.395 . S
C2466 C2469 1.403 . S
C2467 C2464 1.403 . S
C2467 C2468 1.524 . S
C2467 C2471 1.400 . S
C2468 H2453 0.960 . S
C2468 H2454 0.960 . S
C2468 H2455 0.960 . S
C2468 C2467 1.524 . S
C2469 C2466 1.403 . S
C2469 C2470 1.392 . S
C2469 C2473 1.495 . S
C2470 C2469 1.392 . S
C2470 C2471 1.385 . S
C2470 C2472 1.478 . S
C2471 H2465 0.930 . S
C2471 C2467 1.400 . S
C2471 C2470 1.385 . S
C2472 C2470 1.478 . S
C2472 C2474 1.381 . S
C2472 C2478 1.383 . S
C2473 C2469 1.495 . S
C2473 H2479 0.959 . S
C2473 H2480 0.961 . S
C2473 H2481 0.960 . S
C2474 C2472 1.381 . S
C2474 C2475 1.394 . S
C2474 H2482 0.930 . S
C2475 C2474 1.394 . S
C2475 C2476 1.383 . S
C2475 H2483 0.929 . S
C2476 C2475 1.383 . S
C2476 C2477 1.377 . S
C2477 H2461 0.930 . S
C2477 C2476 1.377 . S
C2477 C2478 1.379 . S
C2478 H2462 0.931 . S
C2478 C2472 1.383 . S
C2478 C2477 1.379 . S
H2479 C2473 0.959 . S
H2480 C2473 0.961 . S
H2481 C2473 0.960 . S
H2482 C2474 0.930 . S
H2483 C2475 0.929 . S
H2484 C2492 0.929 . S
H2485 C2494 0.930 . S
H2486 C2496 0.930 . S
H2487 C2499 0.929 . S
H2488 C2502 0.930 . S
H2489 C2504 0.960 . S
H2490 C2504 0.960 . S
H2491 C2504 0.960 . S
C2492 H2484 0.929 . S
C2492 C2493 1.377 . S
C2492 C2494 1.384 . S
C2493 C2492 1.377 . S
C2493 C2499 1.390 . S
C2494 H2485 0.930 . S
C2494 C2492 1.384 . S
C2494 C2495 1.372 . S
C2495 C2494 1.372 . S
C2495 C2496 1.400 . S
C2495 C2500 1.490 . S
C2496 H2486 0.930 . S
C2496 C2495 1.400 . S
C2496 C2499 1.386 . S
H2497 C2513 0.930 . S
H2498 C2514 0.931 . S
C2499 H2487 0.929 . S
C2499 C2493 1.390 . S
C2499 C2496 1.386 . S
C2500 C2495 1.490 . S
C2500 C2502 1.395 . S
C2500 C2503 1.403 . S
H2501 C2507 0.930 . S
C2502 H2488 0.930 . S
C2502 C2500 1.395 . S
C2502 C2505 1.403 . S
C2503 C2500 1.403 . S
C2503 C2504 1.524 . S
C2503 C2507 1.400 . S
C2504 H2489 0.960 . S
C2504 H2490 0.960 . S
C2504 H2491 0.960 . S
C2504 C2503 1.524 . S
C2505 C2502 1.403 . S
C2505 C2506 1.392 . S
C2505 C2509 1.495 . S
C2506 C2505 1.392 . S
C2506 C2507 1.385 . S
C2506 C2508 1.478 . S
C2507 H2501 0.930 . S
C2507 C2503 1.400 . S
C2507 C2506 1.385 . S
C2508 C2506 1.478 . S
C2508 C2510 1.381 . S
C2508 C2514 1.383 . S
C2509 C2505 1.495 . S
C2509 H2515 0.959 . S
C2509 H2516 0.961 . S
C2509 H2517 0.960 . S
C2510 C2508 1.381 . S
C2510 C2511 1.394 . S
C2510 H2518 0.930 . S
C2511 C2510 1.394 . S
C2511 C2512 1.383 . S
C2511 H2519 0.929 . S
C2512 C2511 1.383 . S
C2512 C2513 1.377 . S
C2513 H2497 0.930 . S
C2513 C2512 1.377 . S
C2513 C2514 1.379 . S
C2514 H2498 0.931 . S
C2514 C2508 1.383 . S
C2514 C2513 1.379 . S
H2515 C2509 0.959 . S
H2516 C2509 0.961 . S
H2517 C2509 0.960 . S
H2518 C2510 0.930 . S
H2519 C2511 0.929 . S
H2520 C2528 0.929 . S
H2521 C2530 0.930 . S
H2522 C2532 0.930 . S
H2523 C2535 0.929 . S
H2524 C2538 0.930 . S
H2525 C2540 0.960 . S
H2526 C2540 0.960 . S
H2527 C2540 0.960 . S
C2528 H2520 0.929 . S
C2528 C2529 1.377 . S
C2528 C2530 1.384 . S
C2529 C2528 1.377 . S
C2529 C2535 1.390 . S
C2530 H2521 0.930 . S
C2530 C2528 1.384 . S
C2530 C2531 1.372 . S
C2531 C2530 1.372 . S
C2531 C2532 1.400 . S
C2531 C2536 1.490 . S
C2532 H2522 0.930 . S
C2532 C2531 1.400 . S
C2532 C2535 1.386 . S
H2533 C2549 0.930 . S
H2534 C2550 0.931 . S
C2535 H2523 0.929 . S
C2535 C2529 1.390 . S
C2535 C2532 1.386 . S
C2536 C2531 1.490 . S
C2536 C2538 1.395 . S
C2536 C2539 1.403 . S
H2537 C2543 0.930 . S
C2538 H2524 0.930 . S
C2538 C2536 1.395 . S
C2538 C2541 1.403 . S
C2539 C2536 1.403 . S
C2539 C2540 1.524 . S
C2539 C2543 1.400 . S
C2540 H2525 0.960 . S
C2540 H2526 0.960 . S
C2540 H2527 0.960 . S
C2540 C2539 1.524 . S
C2541 C2538 1.403 . S
C2541 C2542 1.392 . S
C2541 C2545 1.495 . S
C2542 C2541 1.392 . S
C2542 C2543 1.385 . S
C2542 C2544 1.478 . S
C2543 H2537 0.930 . S
C2543 C2539 1.400 . S
C2543 C2542 1.385 . S
C2544 C2542 1.478 . S
C2544 C2546 1.381 . S
C2544 C2550 1.383 . S
C2545 C2541 1.495 . S
C2545 H2551 0.959 . S
C2545 H2552 0.961 . S
C2545 H2553 0.960 . S
C2546 C2544 1.381 . S
C2546 C2547 1.394 . S
C2546 H2554 0.930 . S
C2547 C2546 1.394 . S
C2547 C2548 1.383 . S
C2547 H2555 0.929 . S
C2548 C2547 1.383 . S
C2548 C2549 1.377 . S
C2549 H2533 0.930 . S
C2549 C2548 1.377 . S
C2549 C2550 1.379 . S
C2550 H2534 0.931 . S
C2550 C2544 1.383 . S
C2550 C2549 1.379 . S
H2551 C2545 0.959 . S
H2552 C2545 0.961 . S
H2553 C2545 0.960 . S
H2554 C2546 0.930 . S
H2555 C2547 0.929 . S
H2556 C2564 0.929 . S
H2557 C2566 0.930 . S
H2558 C2568 0.930 . S
H2559 C2571 0.929 . S
H2560 C2574 0.930 . S
H2561 C2576 0.960 . S
H2562 C2576 0.960 . S
H2563 C2576 0.960 . S
C2564 H2556 0.929 . S
C2564 C2565 1.377 . S
C2564 C2566 1.384 . S
C2565 C2564 1.377 . S
C2565 C2571 1.390 . S
C2566 H2557 0.930 . S
C2566 C2564 1.384 . S
C2566 C2567 1.372 . S
C2567 C2566 1.372 . S
C2567 C2568 1.400 . S
C2567 C2572 1.490 . S
C2568 H2558 0.930 . S
C2568 C2567 1.400 . S
C2568 C2571 1.386 . S
H2569 C2585 0.930 . S
H2570 C2586 0.931 . S
C2571 H2559 0.929 . S
C2571 C2565 1.390 . S
C2571 C2568 1.386 . S
C2572 C2567 1.490 . S
C2572 C2574 1.395 . S
C2572 C2575 1.403 . S
H2573 C2579 0.930 . S
C2574 H2560 0.930 . S
C2574 C2572 1.395 . S
C2574 C2577 1.403 . S
C2575 C2572 1.403 . S
C2575 C2576 1.524 . S
C2575 C2579 1.400 . S
C2576 H2561 0.960 . S
C2576 H2562 0.960 . S
C2576 H2563 0.960 . S
C2576 C2575 1.524 . S
C2577 C2574 1.403 . S
C2577 C2578 1.392 . S
C2577 C2581 1.495 . S
C2578 C2577 1.392 . S
C2578 C2579 1.385 . S
C2578 C2580 1.478 . S
C2579 H2573 0.930 . S
C2579 C2575 1.400 . S
C2579 C2578 1.385 . S
C2580 C2578 1.478 . S
C2580 C2582 1.381 . S
C2580 C2586 1.383 . S
C2581 C2577 1.495 . S
C2581 H2587 0.959 . S
C2581 H2588 0.961 . S
C2581 H2589 0.960 . S
C2582 C2580 1.381 . S
C2582 C2583 1.394 . S
C2582 H2590 0.930 . S
C2583 C2582 1.394 . S
C2583 C2584 1.383 . S
C2583 H2591 0.929 . S
C2584 C2583 1.383 . S
C2584 C2585 1.377 . S
C2585 H2569 0.930 . S
C2585 C2584 1.377 . S
C2585 C2586 1.379 . S
C2586 H2570 0.931 . S
C2586 C2580 1.383 . S
C2586 C2585 1.379 . S
H2587 C2581 0.959 . S
H2588 C2581 0.961 . S
H2589 C2581 0.960 . S
H2590 C2582 0.930 . S
H2591 C2583 0.929 . S
H2592 C2600 0.929 . S
H2593 C2602 0.930 . S
H2594 C2604 0.930 . S
H2595 C2607 0.929 . S
H2596 C2610 0.930 . S
H2597 C2612 0.960 . S
H2598 C2612 0.960 . S
H2599 C2612 0.960 . S
C2600 H2592 0.929 . S
C2600 C2601 1.377 . S
C2600 C2602 1.384 . S
C2601 C2600 1.377 . S
C2601 C2607 1.390 . S
C2602 H2593 0.930 . S
C2602 C2600 1.384 . S
C2602 C2603 1.372 . S
C2603 C2602 1.372 . S
C2603 C2604 1.400 . S
C2603 C2608 1.490 . S
C2604 H2594 0.930 . S
C2604 C2603 1.400 . S
C2604 C2607 1.386 . S
H2605 C2621 0.930 . S
H2606 C2622 0.931 . S
C2607 H2595 0.929 . S
C2607 C2601 1.390 . S
C2607 C2604 1.386 . S
C2608 C2603 1.490 . S
C2608 C2610 1.395 . S
C2608 C2611 1.403 . S
H2609 C2615 0.930 . S
C2610 H2596 0.930 . S
C2610 C2608 1.395 . S
C2610 C2613 1.403 . S
C2611 C2608 1.403 . S
C2611 C2612 1.524 . S
C2611 C2615 1.400 . S
C2612 H2597 0.960 . S
C2612 H2598 0.960 . S
C2612 H2599 0.960 . S
C2612 C2611 1.524 . S
C2613 C2610 1.403 . S
C2613 C2614 1.392 . S
C2613 C2617 1.495 . S
C2614 C2613 1.392 . S
C2614 C2615 1.385 . S
C2614 C2616 1.478 . S
C2615 H2609 0.930 . S
C2615 C2611 1.400 . S
C2615 C2614 1.385 . S
C2616 C2614 1.478 . S
C2616 C2618 1.381 . S
C2616 C2622 1.383 . S
C2617 C2613 1.495 . S
C2617 H2623 0.959 . S
C2617 H2624 0.961 . S
C2617 H2625 0.960 . S
C2618 C2616 1.381 . S
C2618 C2619 1.394 . S
C2618 H2626 0.930 . S
C2619 C2618 1.394 . S
C2619 C2620 1.383 . S
C2619 H2627 0.929 . S
C2620 C2619 1.383 . S
C2620 C2621 1.377 . S
C2621 H2605 0.930 . S
C2621 C2620 1.377 . S
C2621 C2622 1.379 . S
C2622 H2606 0.931 . S
C2622 C2616 1.383 . S
C2622 C2621 1.379 . S
H2623 C2617 0.959 . S
H2624 C2617 0.961 . S
H2625 C2617 0.960 . S
H2626 C2618 0.930 . S
H2627 C2619 0.929 . S
H2628 C2636 0.929 . S
H2629 C2638 0.930 . S
H2630 C2640 0.930 . S
H2631 C2643 0.929 . S
H2632 C2646 0.930 . S
H2633 C2648 0.960 . S
H2634 C2648 0.960 . S
H2635 C2648 0.960 . S
C2636 H2628 0.929 . S
C2636 C2637 1.377 . S
C2636 C2638 1.384 . S
C2637 C2636 1.377 . S
C2637 C2643 1.390 . S
C2638 H2629 0.930 . S
C2638 C2636 1.384 . S
C2638 C2639 1.372 . S
C2639 C2638 1.372 . S
C2639 C2640 1.400 . S
C2639 C2644 1.490 . S
C2640 H2630 0.930 . S
C2640 C2639 1.400 . S
C2640 C2643 1.386 . S
H2641 C2657 0.930 . S
H2642 C2658 0.931 . S
C2643 H2631 0.929 . S
C2643 C2637 1.390 . S
C2643 C2640 1.386 . S
C2644 C2639 1.490 . S
C2644 C2646 1.395 . S
C2644 C2647 1.403 . S
H2645 C2651 0.930 . S
C2646 H2632 0.930 . S
C2646 C2644 1.395 . S
C2646 C2649 1.403 . S
C2647 C2644 1.403 . S
C2647 C2648 1.524 . S
C2647 C2651 1.400 . S
C2648 H2633 0.960 . S
C2648 H2634 0.960 . S
C2648 H2635 0.960 . S
C2648 C2647 1.524 . S
C2649 C2646 1.403 . S
C2649 C2650 1.392 . S
C2649 C2653 1.495 . S
C2650 C2649 1.392 . S
C2650 C2651 1.385 . S
C2650 C2652 1.478 . S
C2651 H2645 0.930 . S
C2651 C2647 1.400 . S
C2651 C2650 1.385 . S
C2652 C2650 1.478 . S
C2652 C2654 1.381 . S
C2652 C2658 1.383 . S
C2653 C2649 1.495 . S
C2653 H2659 0.959 . S
C2653 H2660 0.961 . S
C2653 H2661 0.960 . S
C2654 C2652 1.381 . S
C2654 C2655 1.394 . S
C2654 H2662 0.930 . S
C2655 C2654 1.394 . S
C2655 C2656 1.383 . S
C2655 H2663 0.929 . S
C2656 C2655 1.383 . S
C2656 C2657 1.377 . S
C2657 H2641 0.930 . S
C2657 C2656 1.377 . S
C2657 C2658 1.379 . S
C2658 H2642 0.931 . S
C2658 C2652 1.383 . S
C2658 C2657 1.379 . S
H2659 C2653 0.959 . S
H2660 C2653 0.961 . S
H2661 C2653 0.960 . S
H2662 C2654 0.930 . S
H2663 C2655 0.929 . S
H2664 C2672 0.929 . S
H2665 C2674 0.930 . S
H2666 C2676 0.930 . S
H2667 C2679 0.929 . S
H2668 C2682 0.930 . S
H2669 C2684 0.960 . S
H2670 C2684 0.960 . S
H2671 C2684 0.960 . S
C2672 H2664 0.929 . S
C2672 C2673 1.377 . S
C2672 C2674 1.384 . S
C2673 C2672 1.377 . S
C2673 C2679 1.390 . S
C2674 H2665 0.930 . S
C2674 C2672 1.384 . S
C2674 C2675 1.372 . S
C2675 C2674 1.372 . S
C2675 C2676 1.400 . S
C2675 C2680 1.490 . S
C2676 H2666 0.930 . S
C2676 C2675 1.400 . S
C2676 C2679 1.386 . S
H2677 C2693 0.930 . S
H2678 C2694 0.931 . S
C2679 H2667 0.929 . S
C2679 C2673 1.390 . S
C2679 C2676 1.386 . S
C2680 C2675 1.490 . S
C2680 C2682 1.395 . S
C2680 C2683 1.403 . S
H2681 C2687 0.930 . S
C2682 H2668 0.930 . S
C2682 C2680 1.395 . S
C2682 C2685 1.403 . S
C2683 C2680 1.403 . S
C2683 C2684 1.524 . S
C2683 C2687 1.400 . S
C2684 H2669 0.960 . S
C2684 H2670 0.960 . S
C2684 H2671 0.960 . S
C2684 C2683 1.524 . S
C2685 C2682 1.403 . S
C2685 C2686 1.392 . S
C2685 C2689 1.495 . S
C2686 C2685 1.392 . S
C2686 C2687 1.385 . S
C2686 C2688 1.478 . S
C2687 H2681 0.930 . S
C2687 C2683 1.400 . S
C2687 C2686 1.385 . S
C2688 C2686 1.478 . S
C2688 C2690 1.381 . S
C2688 C2694 1.383 . S
C2689 C2685 1.495 . S
C2689 H2695 0.959 . S
C2689 H2696 0.961 . S
C2689 H2697 0.960 . S
C2690 C2688 1.381 . S
C2690 C2691 1.394 . S
C2690 H2698 0.930 . S
C2691 C2690 1.394 . S
C2691 C2692 1.383 . S
C2691 H2699 0.929 . S
C2692 C2691 1.383 . S
C2692 C2693 1.377 . S
C2693 H2677 0.930 . S
C2693 C2692 1.377 . S
C2693 C2694 1.379 . S
C2694 H2678 0.931 . S
C2694 C2688 1.383 . S
C2694 C2693 1.379 . S
H2695 C2689 0.959 . S
H2696 C2689 0.961 . S
H2697 C2689 0.960 . S
H2698 C2690 0.930 . S
H2699 C2691 0.929 . S
H2700 C2708 0.929 . S
H2701 C2710 0.930 . S
H2702 C2712 0.930 . S
H2703 C2715 0.929 . S
H2704 C2718 0.930 . S
H2705 C2720 0.960 . S
H2706 C2720 0.960 . S
H2707 C2720 0.960 . S
C2708 H2700 0.929 . S
C2708 C2709 1.377 . S
C2708 C2710 1.384 . S
C2709 C2708 1.377 . S
C2709 C2715 1.390 . S
C2710 H2701 0.930 . S
C2710 C2708 1.384 . S
C2710 C2711 1.372 . S
C2711 C2710 1.372 . S
C2711 C2712 1.400 . S
C2711 C2716 1.490 . S
C2712 H2702 0.930 . S
C2712 C2711 1.400 . S
C2712 C2715 1.386 . S
H2713 C2729 0.930 . S
H2714 C2730 0.931 . S
C2715 H2703 0.929 . S
C2715 C2709 1.390 . S
C2715 C2712 1.386 . S
C2716 C2711 1.490 . S
C2716 C2718 1.395 . S
C2716 C2719 1.403 . S
H2717 C2723 0.930 . S
C2718 H2704 0.930 . S
C2718 C2716 1.395 . S
C2718 C2721 1.403 . S
C2719 C2716 1.403 . S
C2719 C2720 1.524 . S
C2719 C2723 1.400 . S
C2720 H2705 0.960 . S
C2720 H2706 0.960 . S
C2720 H2707 0.960 . S
C2720 C2719 1.524 . S
C2721 C2718 1.403 . S
C2721 C2722 1.392 . S
C2721 C2725 1.495 . S
C2722 C2721 1.392 . S
C2722 C2723 1.385 . S
C2722 C2724 1.478 . S
C2723 H2717 0.930 . S
C2723 C2719 1.400 . S
C2723 C2722 1.385 . S
C2724 C2722 1.478 . S
C2724 C2726 1.381 . S
C2724 C2730 1.383 . S
C2725 C2721 1.495 . S
C2725 H2731 0.959 . S
C2725 H2732 0.961 . S
C2725 H2733 0.960 . S
C2726 C2724 1.381 . S
C2726 C2727 1.394 . S
C2726 H2734 0.930 . S
C2727 C2726 1.394 . S
C2727 C2728 1.383 . S
C2727 H2735 0.929 . S
C2728 C2727 1.383 . S
C2728 C2729 1.377 . S
C2729 H2713 0.930 . S
C2729 C2728 1.377 . S
C2729 C2730 1.379 . S
C2730 H2714 0.931 . S
C2730 C2724 1.383 . S
C2730 C2729 1.379 . S
H2731 C2725 0.959 . S
H2732 C2725 0.961 . S
H2733 C2725 0.960 . S
H2734 C2726 0.930 . S
H2735 C2727 0.929 . S
H2736 C2744 0.929 . S
H2737 C2746 0.930 . S
H2738 C2748 0.930 . S
H2739 C2751 0.929 . S
H2740 C2754 0.930 . S
H2741 C2756 0.960 . S
H2742 C2756 0.960 . S
H2743 C2756 0.960 . S
C2744 H2736 0.929 . S
C2744 C2745 1.377 . S
C2744 C2746 1.384 . S
C2745 C2744 1.377 . S
C2745 C2751 1.390 . S
C2746 H2737 0.930 . S
C2746 C2744 1.384 . S
C2746 C2747 1.372 . S
C2747 C2746 1.372 . S
C2747 C2748 1.400 . S
C2747 C2752 1.490 . S
C2748 H2738 0.930 . S
C2748 C2747 1.400 . S
C2748 C2751 1.386 . S
H2749 C2765 0.930 . S
H2750 C2766 0.931 . S
C2751 H2739 0.929 . S
C2751 C2745 1.390 . S
C2751 C2748 1.386 . S
C2752 C2747 1.490 . S
C2752 C2754 1.395 . S
C2752 C2755 1.403 . S
H2753 C2759 0.930 . S
C2754 H2740 0.930 . S
C2754 C2752 1.395 . S
C2754 C2757 1.403 . S
C2755 C2752 1.403 . S
C2755 C2756 1.524 . S
C2755 C2759 1.400 . S
C2756 H2741 0.960 . S
C2756 H2742 0.960 . S
C2756 H2743 0.960 . S
C2756 C2755 1.524 . S
C2757 C2754 1.403 . S
C2757 C2758 1.392 . S
C2757 C2761 1.495 . S
C2758 C2757 1.392 . S
C2758 C2759 1.385 . S
C2758 C2760 1.478 . S
C2759 H2753 0.930 . S
C2759 C2755 1.400 . S
C2759 C2758 1.385 . S
C2760 C2758 1.478 . S
C2760 C2762 1.381 . S
C2760 C2766 1.383 . S
C2761 C2757 1.495 . S
C2761 H2767 0.959 . S
C2761 H2768 0.961 . S
C2761 H2769 0.960 . S
C2762 C2760 1.381 . S
C2762 C2763 1.394 . S
C2762 H2770 0.930 . S
C2763 C2762 1.394 . S
C2763 C2764 1.383 . S
C2763 H2771 0.929 . S
C2764 C2763 1.383 . S
C2764 C2765 1.377 . S
C2765 H2749 0.930 . S
C2765 C2764 1.377 . S
C2765 C2766 1.379 . S
C2766 H2750 0.931 . S
C2766 C2760 1.383 . S
C2766 C2765 1.379 . S
H2767 C2761 0.959 . S
H2768 C2761 0.961 . S
H2769 C2761 0.960 . S
H2770 C2762 0.930 . S
H2771 C2763 0.929 . S
H2772 C2780 0.929 . S
H2773 C2782 0.930 . S
H2774 C2784 0.930 . S
H2775 C2787 0.929 . S
H2776 C2790 0.930 . S
H2777 C2792 0.960 . S
H2778 C2792 0.960 . S
H2779 C2792 0.960 . S
C2780 H2772 0.929 . S
C2780 C2781 1.377 . S
C2780 C2782 1.384 . S
C2781 C2780 1.377 . S
C2781 C2787 1.390 . S
C2782 H2773 0.930 . S
C2782 C2780 1.384 . S
C2782 C2783 1.372 . S
C2783 C2782 1.372 . S
C2783 C2784 1.400 . S
C2783 C2788 1.490 . S
C2784 H2774 0.930 . S
C2784 C2783 1.400 . S
C2784 C2787 1.386 . S
H2785 C2801 0.930 . S
H2786 C2802 0.931 . S
C2787 H2775 0.929 . S
C2787 C2781 1.390 . S
C2787 C2784 1.386 . S
C2788 C2783 1.490 . S
C2788 C2790 1.395 . S
C2788 C2791 1.403 . S
H2789 C2795 0.930 . S
C2790 H2776 0.930 . S
C2790 C2788 1.395 . S
C2790 C2793 1.403 . S
C2791 C2788 1.403 . S
C2791 C2792 1.524 . S
C2791 C2795 1.400 . S
C2792 H2777 0.960 . S
C2792 H2778 0.960 . S
C2792 H2779 0.960 . S
C2792 C2791 1.524 . S
C2793 C2790 1.403 . S
C2793 C2794 1.392 . S
C2793 C2797 1.495 . S
C2794 C2793 1.392 . S
C2794 C2795 1.385 . S
C2794 C2796 1.478 . S
C2795 H2789 0.930 . S
C2795 C2791 1.400 . S
C2795 C2794 1.385 . S
C2796 C2794 1.478 . S
C2796 C2798 1.381 . S
C2796 C2802 1.383 . S
C2797 C2793 1.495 . S
C2797 H2803 0.959 . S
C2797 H2804 0.961 . S
C2797 H2805 0.960 . S
C2798 C2796 1.381 . S
C2798 C2799 1.394 . S
C2798 H2806 0.930 . S
C2799 C2798 1.394 . S
C2799 C2800 1.383 . S
C2799 H2807 0.929 . S
C2800 C2799 1.383 . S
C2800 C2801 1.377 . S
C2801 H2785 0.930 . S
C2801 C2800 1.377 . S
C2801 C2802 1.379 . S
C2802 H2786 0.931 . S
C2802 C2796 1.383 . S
C2802 C2801 1.379 . S
H2803 C2797 0.959 . S
H2804 C2797 0.961 . S
H2805 C2797 0.960 . S
H2806 C2798 0.930 . S
H2807 C2799 0.929 . S
H2808 C2816 0.929 . S
H2809 C2818 0.930 . S
H2810 C2820 0.930 . S
H2811 C2823 0.929 . S
H2812 C2826 0.930 . S
H2813 C2828 0.960 . S
H2814 C2828 0.960 . S
H2815 C2828 0.960 . S
C2816 H2808 0.929 . S
C2816 C2817 1.377 . S
C2816 C2818 1.384 . S
C2817 C2816 1.377 . S
C2817 C2823 1.390 . S
C2818 H2809 0.930 . S
C2818 C2816 1.384 . S
C2818 C2819 1.372 . S
C2819 C2818 1.372 . S
C2819 C2820 1.400 . S
C2819 C2824 1.490 . S
C2820 H2810 0.930 . S
C2820 C2819 1.400 . S
C2820 C2823 1.386 . S
H2821 C2837 0.930 . S
H2822 C2838 0.931 . S
C2823 H2811 0.929 . S
C2823 C2817 1.390 . S
C2823 C2820 1.386 . S
C2824 C2819 1.490 . S
C2824 C2826 1.395 . S
C2824 C2827 1.403 . S
H2825 C2831 0.930 . S
C2826 H2812 0.930 . S
C2826 C2824 1.395 . S
C2826 C2829 1.403 . S
C2827 C2824 1.403 . S
C2827 C2828 1.524 . S
C2827 C2831 1.400 . S
C2828 H2813 0.960 . S
C2828 H2814 0.960 . S
C2828 H2815 0.960 . S
C2828 C2827 1.524 . S
C2829 C2826 1.403 . S
C2829 C2830 1.392 . S
C2829 C2833 1.495 . S
C2830 C2829 1.392 . S
C2830 C2831 1.385 . S
C2830 C2832 1.478 . S
C2831 H2825 0.930 . S
C2831 C2827 1.400 . S
C2831 C2830 1.385 . S
C2832 C2830 1.478 . S
C2832 C2834 1.381 . S
C2832 C2838 1.383 . S
C2833 C2829 1.495 . S
C2833 H2839 0.959 . S
C2833 H2840 0.961 . S
C2833 H2841 0.960 . S
C2834 C2832 1.381 . S
C2834 C2835 1.394 . S
C2834 H2842 0.930 . S
C2835 C2834 1.394 . S
C2835 C2836 1.383 . S
C2835 H2843 0.929 . S
C2836 C2835 1.383 . S
C2836 C2837 1.377 . S
C2837 H2821 0.930 . S
C2837 C2836 1.377 . S
C2837 C2838 1.379 . S
C2838 H2822 0.931 . S
C2838 C2832 1.383 . S
C2838 C2837 1.379 . S
H2839 C2833 0.959 . S
H2840 C2833 0.961 . S
H2841 C2833 0.960 . S
H2842 C2834 0.930 . S
H2843 C2835 0.929 . S
H2844 C2852 0.929 . S
H2845 C2854 0.930 . S
H2846 C2856 0.930 . S
H2847 C2859 0.929 . S
H2848 C2862 0.930 . S
H2849 C2864 0.960 . S
H2850 C2864 0.960 . S
H2851 C2864 0.960 . S
C2852 H2844 0.929 . S
C2852 C2853 1.377 . S
C2852 C2854 1.384 . S
C2853 C2852 1.377 . S
C2853 C2859 1.390 . S
C2854 H2845 0.930 . S
C2854 C2852 1.384 . S
C2854 C2855 1.372 . S
C2855 C2854 1.372 . S
C2855 C2856 1.400 . S
C2855 C2860 1.490 . S
C2856 H2846 0.930 . S
C2856 C2855 1.400 . S
C2856 C2859 1.386 . S
H2857 C2873 0.930 . S
H2858 C2874 0.931 . S
C2859 H2847 0.929 . S
C2859 C2853 1.390 . S
C2859 C2856 1.386 . S
C2860 C2855 1.490 . S
C2860 C2862 1.395 . S
C2860 C2863 1.403 . S
H2861 C2867 0.930 . S
C2862 H2848 0.930 . S
C2862 C2860 1.395 . S
C2862 C2865 1.403 . S
C2863 C2860 1.403 . S
C2863 C2864 1.524 . S
C2863 C2867 1.400 . S
C2864 H2849 0.960 . S
C2864 H2850 0.960 . S
C2864 H2851 0.960 . S
C2864 C2863 1.524 . S
C2865 C2862 1.403 . S
C2865 C2866 1.392 . S
C2865 C2869 1.495 . S
C2866 C2865 1.392 . S
C2866 C2867 1.385 . S
C2866 C2868 1.478 . S
C2867 H2861 0.930 . S
C2867 C2863 1.400 . S
C2867 C2866 1.385 . S
C2868 C2866 1.478 . S
C2868 C2870 1.381 . S
C2868 C2874 1.383 . S
C2869 C2865 1.495 . S
C2869 H2875 0.959 . S
C2869 H2876 0.961 . S
C2869 H2877 0.960 . S
C2870 C2868 1.381 . S
C2870 C2871 1.394 . S
C2870 H2878 0.930 . S
C2871 C2870 1.394 . S
C2871 C2872 1.383 . S
C2871 H2879 0.929 . S
C2872 C2871 1.383 . S
C2872 C2873 1.377 . S
C2873 H2857 0.930 . S
C2873 C2872 1.377 . S
C2873 C2874 1.379 . S
C2874 H2858 0.931 . S
C2874 C2868 1.383 . S
C2874 C2873 1.379 . S
H2875 C2869 0.959 . S
H2876 C2869 0.961 . S
H2877 C2869 0.960 . S
H2878 C2870 0.930 . S
H2879 C2871 0.929 . S
H2880 C2888 0.929 . S
H2881 C2890 0.930 . S
H2882 C2892 0.930 . S
H2883 C2895 0.929 . S
H2884 C2898 0.930 . S
H2885 C2900 0.960 1_655 S
H2886 C2900 0.960 . S
H2887 C2900 0.960 . S
C2888 H2880 0.929 . S
C2888 C2889 1.377 . S
C2888 C2890 1.384 . S
C2889 C2888 1.377 . S
C2889 C2895 1.390 . S
C2890 H2881 0.930 . S
C2890 C2888 1.384 . S
C2890 C2891 1.372 . S
C2891 C2890 1.372 . S
C2891 C2892 1.400 . S
C2891 C2896 1.490 . S
C2892 H2882 0.930 . S
C2892 C2891 1.400 . S
C2892 C2895 1.386 . S
H2893 C2909 0.930 . S
H2894 C2910 0.931 . S
C2895 H2883 0.929 . S
C2895 C2889 1.390 . S
C2895 C2892 1.386 . S
C2896 C2891 1.490 . S
C2896 C2898 1.395 . S
C2896 C2899 1.403 . S
H2897 C2903 0.930 . S
C2898 H2884 0.930 . S
C2898 C2896 1.395 . S
C2898 C2901 1.403 1_455 S
C2899 C2896 1.403 . S
C2899 C2900 1.524 . S
C2899 C2903 1.400 1_455 S
C2900 H2885 0.960 1_455 S
C2900 H2886 0.960 . S
C2900 H2887 0.960 . S
C2900 C2899 1.524 . S
C2901 C2898 1.403 1_655 S
C2901 C2902 1.392 . S
C2901 C2905 1.495 . S
C2902 C2901 1.392 . S
C2902 C2903 1.385 . S
C2902 C2904 1.478 . S
C2903 H2897 0.930 . S
C2903 C2899 1.400 1_655 S
C2903 C2902 1.385 . S
C2904 C2902 1.478 . S
C2904 C2906 1.381 . S
C2904 C2910 1.383 . S
C2905 C2901 1.495 . S
C2905 H2911 0.959 1_655 S
C2905 H2912 0.961 . S
C2905 H2913 0.960 . S
C2906 C2904 1.381 . S
C2906 C2907 1.394 . S
C2906 H2914 0.930 . S
C2907 C2906 1.394 . S
C2907 C2908 1.383 . S
C2907 H2915 0.929 . S
C2908 C2907 1.383 . S
C2908 C2909 1.377 . S
C2909 H2893 0.930 . S
C2909 C2908 1.377 . S
C2909 C2910 1.379 . S
C2910 H2894 0.931 . S
C2910 C2904 1.383 . S
C2910 C2909 1.379 . S
H2911 C2905 0.959 1_455 S
H2912 C2905 0.961 . S
H2913 C2905 0.960 . S
H2914 C2906 0.930 . S
H2915 C2907 0.929 . S
H2916 C2924 0.929 . S
H2917 C2926 0.930 . S
H2918 C2928 0.930 . S
H2919 C2931 0.929 . S
H2920 C2934 0.930 . S
H2921 C2936 0.960 . S
H2922 C2936 0.960 . S
H2923 C2936 0.960 . S
C2924 H2916 0.929 . S
C2924 C2925 1.377 . S
C2924 C2926 1.384 . S
C2925 C2924 1.377 . S
C2925 C2931 1.390 . S
C2926 H2917 0.930 . S
C2926 C2924 1.384 . S
C2926 C2927 1.372 . S
C2927 C2926 1.372 . S
C2927 C2928 1.400 . S
C2927 C2932 1.490 . S
C2928 H2918 0.930 . S
C2928 C2927 1.400 . S
C2928 C2931 1.386 . S
H2929 C2945 0.930 . S
H2930 C2946 0.931 . S
C2931 H2919 0.929 . S
C2931 C2925 1.390 . S
C2931 C2928 1.386 . S
C2932 C2927 1.490 . S
C2932 C2934 1.395 . S
C2932 C2935 1.403 . S
H2933 C2939 0.930 . S
C2934 H2920 0.930 . S
C2934 C2932 1.395 . S
C2934 C2937 1.403 . S
C2935 C2932 1.403 . S
C2935 C2936 1.524 . S
C2935 C2939 1.400 . S
C2936 H2921 0.960 . S
C2936 H2922 0.960 . S
C2936 H2923 0.960 . S
C2936 C2935 1.524 . S
C2937 C2934 1.403 . S
C2937 C2938 1.392 . S
C2937 C2941 1.495 . S
C2938 C2937 1.392 . S
C2938 C2939 1.385 . S
C2938 C2940 1.478 . S
C2939 H2933 0.930 . S
C2939 C2935 1.400 . S
C2939 C2938 1.385 . S
C2940 C2938 1.478 . S
C2940 C2942 1.381 . S
C2940 C2946 1.383 . S
C2941 C2937 1.495 . S
C2941 H2947 0.959 . S
C2941 H2948 0.961 . S
C2941 H2949 0.960 . S
C2942 C2940 1.381 . S
C2942 C2943 1.394 . S
C2942 H2950 0.930 . S
C2943 C2942 1.394 . S
C2943 C2944 1.383 . S
C2943 H2951 0.929 . S
C2944 C2943 1.383 . S
C2944 C2945 1.377 . S
C2945 H2929 0.930 . S
C2945 C2944 1.377 . S
C2945 C2946 1.379 . S
C2946 H2930 0.931 . S
C2946 C2940 1.383 . S
C2946 C2945 1.379 . S
H2947 C2941 0.959 . S
H2948 C2941 0.961 . S
H2949 C2941 0.960 . S
H2950 C2942 0.930 . S
H2951 C2943 0.929 . S
H2952 C2960 0.929 . S
H2953 C2962 0.930 . S
H2954 C2964 0.930 . S
H2955 C2967 0.929 . S
H2956 C2970 0.930 . S
H2957 C2972 0.960 . S
H2958 C2972 0.960 . S
H2959 C2972 0.960 . S
C2960 H2952 0.929 . S
C2960 C2961 1.377 . S
C2960 C2962 1.384 . S
C2961 C2960 1.377 . S
C2961 C2967 1.390 . S
C2962 H2953 0.930 . S
C2962 C2960 1.384 . S
C2962 C2963 1.372 . S
C2963 C2962 1.372 . S
C2963 C2964 1.400 . S
C2963 C2968 1.490 . S
C2964 H2954 0.930 . S
C2964 C2963 1.400 . S
C2964 C2967 1.386 . S
H2965 C2981 0.930 . S
H2966 C2982 0.931 . S
C2967 H2955 0.929 . S
C2967 C2961 1.390 . S
C2967 C2964 1.386 . S
C2968 C2963 1.490 . S
C2968 C2970 1.395 . S
C2968 C2971 1.403 . S
H2969 C2975 0.930 . S
C2970 H2956 0.930 . S
C2970 C2968 1.395 . S
C2970 C2973 1.403 1_545 S
C2971 C2968 1.403 . S
C2971 C2972 1.524 . S
C2971 C2975 1.400 1_545 S
C2972 H2957 0.960 . S
C2972 H2958 0.960 . S
C2972 H2959 0.960 . S
C2972 C2971 1.524 . S
C2973 C2970 1.403 1_565 S
C2973 C2974 1.392 . S
C2973 C2977 1.495 . S
C2974 C2973 1.392 . S
C2974 C2975 1.385 . S
C2974 C2976 1.478 . S
C2975 H2969 0.930 . S
C2975 C2971 1.400 1_565 S
C2975 C2974 1.385 . S
C2976 C2974 1.478 . S
C2976 C2978 1.381 . S
C2976 C2982 1.383 . S
C2977 C2973 1.495 . S
C2977 H2983 0.959 . S
C2977 H2984 0.961 . S
C2977 H2985 0.960 . S
C2978 C2976 1.381 . S
C2978 C2979 1.394 . S
C2978 H2986 0.930 . S
C2979 C2978 1.394 . S
C2979 C2980 1.383 . S
C2979 H2987 0.929 . S
C2980 C2979 1.383 . S
C2980 C2981 1.377 . S
C2981 H2965 0.930 . S
C2981 C2980 1.377 . S
C2981 C2982 1.379 . S
C2982 H2966 0.931 . S
C2982 C2976 1.383 . S
C2982 C2981 1.379 . S
H2983 C2977 0.959 . S
H2984 C2977 0.961 . S
H2985 C2977 0.960 . S
H2986 C2978 0.930 . S
H2987 C2979 0.929 . S
H2988 C2996 0.929 . S
H2989 C2998 0.930 . S
H2990 C3000 0.930 . S
H2991 C3003 0.929 . S
H2992 C3006 0.930 . S
H2993 C3008 0.960 1_545 S
H2994 C3008 0.960 . S
H2995 C3008 0.960 . S
C2996 H2988 0.929 . S
C2996 C2997 1.377 . S
C2996 C2998 1.384 . S
C2997 C2996 1.377 . S
C2997 C3003 1.390 . S
C2998 H2989 0.930 . S
C2998 C2996 1.384 . S
C2998 C2999 1.372 . S
C2999 C2998 1.372 . S
C2999 C3000 1.400 . S
C2999 C3004 1.490 . S
C3000 H2990 0.930 . S
C3000 C2999 1.400 . S
C3000 C3003 1.386 . S
H3001 C3017 0.930 . S
H3002 C3018 0.931 . S
C3003 H2991 0.929 . S
C3003 C2997 1.390 . S
C3003 C3000 1.386 . S
C3004 C2999 1.490 . S
C3004 C3006 1.395 . S
C3004 C3007 1.403 . S
H3005 C3011 0.930 . S
C3006 H2992 0.930 . S
C3006 C3004 1.395 . S
C3006 C3009 1.403 1_565 S
C3007 C3004 1.403 . S
C3007 C3008 1.524 . S
C3007 C3011 1.400 1_565 S
C3008 H2993 0.960 1_565 S
C3008 H2994 0.960 . S
C3008 H2995 0.960 . S
C3008 C3007 1.524 . S
C3009 C3006 1.403 1_545 S
C3009 C3010 1.392 . S
C3009 C3013 1.495 . S
C3010 C3009 1.392 . S
C3010 C3011 1.385 . S
C3010 C3012 1.478 . S
C3011 H3005 0.930 . S
C3011 C3007 1.400 1_545 S
C3011 C3010 1.385 . S
C3012 C3010 1.478 . S
C3012 C3014 1.381 . S
C3012 C3018 1.383 . S
C3013 C3009 1.495 . S
C3013 H3019 0.959 1_545 S
C3013 H3020 0.961 . S
C3013 H3021 0.960 . S
C3014 C3012 1.381 . S
C3014 C3015 1.394 . S
C3014 H3022 0.930 . S
C3015 C3014 1.394 . S
C3015 C3016 1.383 . S
C3015 H3023 0.929 . S
C3016 C3015 1.383 . S
C3016 C3017 1.377 . S
C3017 H3001 0.930 . S
C3017 C3016 1.377 . S
C3017 C3018 1.379 . S
C3018 H3002 0.931 . S
C3018 C3012 1.383 . S
C3018 C3017 1.379 . S
H3019 C3013 0.959 1_565 S
H3020 C3013 0.961 . S
H3021 C3013 0.960 . S
H3022 C3014 0.930 . S
H3023 C3015 0.929 . S
H3024 C3032 0.929 . S
H3025 C3034 0.930 . S
H3026 C3036 0.930 . S
H3027 C3039 0.929 . S
H3028 C3042 0.930 . S
H3029 C3044 0.960 . S
H3030 C3044 0.960 . S
H3031 C3044 0.960 . S
C3032 H3024 0.929 . S
C3032 C3033 1.377 . S
C3032 C3034 1.384 . S
C3033 C3032 1.377 . S
C3033 C3039 1.390 . S
C3034 H3025 0.930 . S
C3034 C3032 1.384 . S
C3034 C3035 1.372 . S
C3035 C3034 1.372 . S
C3035 C3036 1.400 . S
C3035 C3040 1.490 . S
C3036 H3026 0.930 . S
C3036 C3035 1.400 . S
C3036 C3039 1.386 . S
H3037 C3053 0.930 . S
H3038 C3054 0.931 . S
C3039 H3027 0.929 . S
C3039 C3033 1.390 . S
C3039 C3036 1.386 . S
C3040 C3035 1.490 . S
C3040 C3042 1.395 . S
C3040 C3043 1.403 . S
H3041 C3047 0.930 . S
C3042 H3028 0.930 . S
C3042 C3040 1.395 . S
C3042 C3045 1.403 1_655 S
C3043 C3040 1.403 . S
C3043 C3044 1.524 . S
C3043 C3047 1.400 1_655 S
C3044 H3029 0.960 . S
C3044 H3030 0.960 . S
C3044 H3031 0.960 . S
C3044 C3043 1.524 . S
C3045 C3042 1.403 1_455 S
C3045 C3046 1.392 . S
C3045 C3049 1.495 . S
C3046 C3045 1.392 . S
C3046 C3047 1.385 . S
C3046 C3048 1.478 . S
C3047 H3041 0.930 . S
C3047 C3043 1.400 1_455 S
C3047 C3046 1.385 . S
C3048 C3046 1.478 . S
C3048 C3050 1.381 . S
C3048 C3054 1.383 . S
C3049 C3045 1.495 . S
C3049 H3055 0.959 . S
C3049 H3056 0.961 . S
C3049 H3057 0.960 . S
C3050 C3048 1.381 . S
C3050 C3051 1.394 . S
C3050 H3058 0.930 . S
C3051 C3050 1.394 . S
C3051 C3052 1.383 . S
C3051 H3059 0.929 . S
C3052 C3051 1.383 . S
C3052 C3053 1.377 . S
C3053 H3037 0.930 . S
C3053 C3052 1.377 . S
C3053 C3054 1.379 . S
C3054 H3038 0.931 . S
C3054 C3048 1.383 . S
C3054 C3053 1.379 . S
H3055 C3049 0.959 . S
H3056 C3049 0.961 . S
H3057 C3049 0.960 . S
H3058 C3050 0.930 . S
H3059 C3051 0.929 . S
H3060 C3068 0.929 . S
H3061 C3070 0.930 . S
H3062 C3072 0.930 . S
H3063 C3075 0.929 . S
H3064 C3078 0.930 . S
H3065 C3080 0.960 . S
H3066 C3080 0.960 . S
H3067 C3080 0.960 . S
C3068 H3060 0.929 . S
C3068 C3069 1.377 . S
C3068 C3070 1.384 . S
C3069 C3068 1.377 . S
C3069 C3075 1.390 . S
C3070 H3061 0.930 . S
C3070 C3068 1.384 . S
C3070 C3071 1.372 . S
C3071 C3070 1.372 . S
C3071 C3072 1.400 . S
C3071 C3076 1.490 . S
C3072 H3062 0.930 . S
C3072 C3071 1.400 . S
C3072 C3075 1.386 . S
H3073 C3089 0.930 . S
H3074 C3090 0.931 . S
C3075 H3063 0.929 . S
C3075 C3069 1.390 . S
C3075 C3072 1.386 . S
C3076 C3071 1.490 . S
C3076 C3078 1.395 . S
C3076 C3079 1.403 . S
H3077 C3083 0.930 . S
C3078 H3064 0.930 . S
C3078 C3076 1.395 . S
C3078 C3081 1.403 . S
C3079 C3076 1.403 . S
C3079 C3080 1.524 . S
C3079 C3083 1.400 . S
C3080 H3065 0.960 . S
C3080 H3066 0.960 . S
C3080 H3067 0.960 . S
C3080 C3079 1.524 . S
C3081 C3078 1.403 . S
C3081 C3082 1.392 . S
C3081 C3085 1.495 . S
C3082 C3081 1.392 . S
C3082 C3083 1.385 . S
C3082 C3084 1.478 . S
C3083 H3077 0.930 . S
C3083 C3079 1.400 . S
C3083 C3082 1.385 . S
C3084 C3082 1.478 . S
C3084 C3086 1.381 . S
C3084 C3090 1.383 . S
C3085 C3081 1.495 . S
C3085 H3091 0.959 . S
C3085 H3092 0.961 . S
C3085 H3093 0.960 . S
C3086 C3084 1.381 . S
C3086 C3087 1.394 . S
C3086 H3094 0.930 . S
C3087 C3086 1.394 . S
C3087 C3088 1.383 . S
C3087 H3095 0.929 . S
C3088 C3087 1.383 . S
C3088 C3089 1.377 . S
C3089 H3073 0.930 . S
C3089 C3088 1.377 . S
C3089 C3090 1.379 . S
C3090 H3074 0.931 . S
C3090 C3084 1.383 . S
C3090 C3089 1.379 . S
H3091 C3085 0.959 . S
H3092 C3085 0.961 . S
H3093 C3085 0.960 . S
H3094 C3086 0.930 . S
H3095 C3087 0.929 . S
C513 C65 0.555 . S
C532 C9 0.557 . S
C549 C79 0.550 . S
C568 C23 0.582 . S
C585 C51 0.544 . S
C604 C37 0.619 . S
C621 C149 0.560 . S
C640 C93 0.605 . S
C657 C107 0.551 . S
C676 C163 0.487 . S
C693 C135 0.555 . S
C712 C121 0.499 . S
C729 C177 0.550 . S
C748 C233 0.480 . S
C765 C247 0.543 . S
C784 C191 0.506 . S
C801 C205 0.539 . S
C820 C219 0.544 . S
C837 C261 0.542 . S
C856 C317 0.606 . S
C873 C331 0.547 . S
C892 C275 0.603 . S
C909 C289 0.523 . S
C928 C303 0.499 . S
C945 C401 0.545 . S
C964 C345 0.505 . S
C981 C359 0.523 . S
C1000 C415 0.604 . S
C1017 C387 0.539 . S
C1036 C373 0.544 . S
C1053 C485 0.548 . S
C1072 C429 0.533 . S
C1089 C443 0.549 . S
C1108 C499 0.599 . S
C1125 C457 0.526 . S
C1144 C471 0.487 . S
C1161 C162 1.361 . S
C1180 C8 1.354 . S
C1197 C22 1.359 . S
C1216 C134 1.356 . S
C1233 C148 1.360 . S
C1252 C36 1.362 . S
C1269 C106 1.359 . S
C1288 C50 1.358 . S
C1305 C64 1.361 . S
C1324 C120 1.355 . S
C1341 C92 1.359 . S
C1360 C78 1.360 . S
C1377 C176 1.418 . S
C1396 C330 1.418 . S
C1413 C302 1.419 . S
C1432 C190 1.414 . S
C1449 C316 1.418 . S
C1468 C204 1.418 . S
C1485 C218 1.393 . S
C1504 C274 1.389 . S
C1521 C232 1.393 . S
C1540 C288 1.387 . S
C1557 C246 1.393 . S
C1576 C260 1.390 . S
C1593 C498 1.393 . S
C1612 C344 1.387 . S
C1629 C358 1.392 . S
C1648 C470 1.391 . S
C1665 C372 1.393 . S
C1684 C484 1.390 . S
C1701 C442 1.418 . S
C1720 C386 1.418 . S
C1737 C456 1.418 . S
C1756 C400 1.418 . S
C1773 C428 1.418 . S
C1792 C414 1.412 . S
C1809 C213 1.549 . S
C1828 C3 1.533 . S
C1845 C227 1.535 . S
C1864 C17 1.556 . S
C1881 C31 1.557 . S
C1900 C241 1.536 . S
C1917 C45 1.563 . S
C1936 C339 1.551 . S
C1953 C59 1.569 . S
C1972 C353 1.514 . S
C1989 C73 1.568 . S
C2008 C367 1.507 . S
C2025 C87 1.565 . S
C2044 C465 1.563 . S
C2061 C101 1.559 . S
C2080 C479 1.538 . S
C2097 C115 1.559 . S
C2116 C493 1.535 . S
C2133 C129 1.567 . S
C2152 C255 1.549 . S
C2169 C269 1.550 . S
C2188 C143 1.588 . S
C2205 C283 1.544 . S
C2224 C157 1.556 . S
C2241 C381 1.949 . S
C2260 C171 1.952 . S
C2277 C185 1.953 . S
C2296 C395 1.917 . S
C2313 C409 1.952 . S
C2332 C199 1.931 . S
C2349 C297 1.949 . S
C2368 C423 1.963 . S
C2385 C437 1.952 . S
C2404 C311 1.972 . S
C2421 C451 1.951 . S
C2440 C325 1.971 . S
C2457 C7 2.287 . S
C2476 C413 2.316 . S
C2493 C21 2.285 . S
C2512 C385 2.305 . S
C2529 C35 2.286 . S
C2548 C399 2.309 . S
C2565 C49 2.279 . S
C2584 C189 2.270 . S
C2601 C203 2.301 . S
C2620 C63 2.308 . S
C2637 C175 2.296 . S
C2656 C77 2.288 . S
C2673 C329 2.301 . S
C2692 C91 2.274 . S
C2709 C301 2.292 . S
C2728 C105 2.304 . S
C2745 C315 2.292 . S
C2764 C119 2.286 . S
C2781 C441 2.301 . S
C2800 C133 2.265 . S
C2817 C455 2.299 . S
C2836 C147 2.258 . S
C2853 C427 2.299 . S
C2872 C161 2.300 . S
C2889 C217 1.934 . S
C2908 C357 1.912 . S
C2925 C371 1.933 . S
C2944 C231 1.905 . S
C2961 C343 1.946 . S
C2980 C245 1.967 . S
C2997 C259 1.935 . S
C3016 C497 1.922 . S
C3033 C469 1.933 . S
C3052 C273 1.950 . S
C3069 C287 1.933 . S
C3088 C483 1.937 . S
