# Generated by pormake.
# Topology zfr, (5)-cn, num edge types: 1
# Building blocks:
#     Node 0, Type 0, BuildingBlock: BEQFEK_clean_sbu_0, # of connection points: 5
#     Node 1, Type 0, BuildingBlock: BEQFEK_clean_sbu_0, # of connection points: 5
#     Node 2, Type 0, BuildingBlock: BEQFEK_clean_sbu_0, # of connection points: 5
#     Node 3, Type 0, BuildingBlock: BEQFEK_clean_sbu_0, # of connection points: 5
#     Node 4, Type 0, BuildingBlock: BEQFEK_clean_sbu_0, # of connection points: 5
#     Node 5, Type 0, BuildingBlock: BEQFEK_clean_sbu_0, # of connection points: 5
#     Node 6, Type 0, BuildingBlock: BEQFEK_clean_sbu_0, # of connection points: 5
#     Node 7, Type 0, BuildingBlock: BEQFEK_clean_sbu_0, # of connection points: 5
#     Edge 8, Type (0, 0), BuildingBlock: TEMPAE_clean_linker_10, # of connection points: 2
#     Edge 9, Type (0, 0), BuildingBlock: TEMPAE_clean_linker_10, # of connection points: 2
#     Edge 10, Type (0, 0), BuildingBlock: TEMPAE_clean_linker_10, # of connection points: 2
#     Edge 11, Type (0, 0), BuildingBlock: TEMPAE_clean_linker_10, # of connection points: 2
#     Edge 12, Type (0, 0), BuildingBlock: TEMPAE_clean_linker_10, # of connection points: 2
#     Edge 13, Type (0, 0), BuildingBlock: TEMPAE_clean_linker_10, # of connection points: 2
#     Edge 14, Type (0, 0), BuildingBlock: TEMPAE_clean_linker_10, # of connection points: 2
#     Edge 15, Type (0, 0), BuildingBlock: TEMPAE_clean_linker_10, # of connection points: 2
#     Edge 16, Type (0, 0), BuildingBlock: TEMPAE_clean_linker_10, # of connection points: 2
#     Edge 17, Type (0, 0), BuildingBlock: TEMPAE_clean_linker_10, # of connection points: 2
#     Edge 18, Type (0, 0), BuildingBlock: TEMPAE_clean_linker_10, # of connection points: 2
#     Edge 19, Type (0, 0), BuildingBlock: TEMPAE_clean_linker_10, # of connection points: 2
#     Edge 20, Type (0, 0), BuildingBlock: TEMPAE_clean_linker_10, # of connection points: 2
#     Edge 21, Type (0, 0), BuildingBlock: TEMPAE_clean_linker_10, # of connection points: 2
#     Edge 22, Type (0, 0), BuildingBlock: TEMPAE_clean_linker_10, # of connection points: 2
#     Edge 23, Type (0, 0), BuildingBlock: TEMPAE_clean_linker_10, # of connection points: 2
#     Edge 24, Type (0, 0), BuildingBlock: TEMPAE_clean_linker_10, # of connection points: 2
#     Edge 25, Type (0, 0), BuildingBlock: TEMPAE_clean_linker_10, # of connection points: 2
#     Edge 26, Type (0, 0), BuildingBlock: TEMPAE_clean_linker_10, # of connection points: 2
#     Edge 27, Type (0, 0), BuildingBlock: TEMPAE_clean_linker_10, # of connection points: 2
# Relax obj value: 0.283
# Max RMSD: 0.233
# Mean RMSD: 0.232
data_MOF--net-zfr--node1-BEQFEK_clean_sbu_0--edge1-TEMPAE_clean_linker_10
_symmetry_space_group_name_H-M    P1
_symmetry_Int_Tables_number       1
_symmetry_cell_setting            triclinic
loop_
_symmetry_equiv_pos_as_xyz
'x, y, z'
_cell_length_a     50.965166
_cell_length_b     50.935265
_cell_length_c     18.598635
_cell_angle_alpha  89.923097
_cell_angle_beta   90.004971
_cell_angle_gamma 89.973203
loop_
_atom_site_label
_atom_site_type_symbol
_atom_site_fract_x
_atom_site_fract_y
_atom_site_fract_z
_atom_type_partial_charge
Co0 Co 0.14362 0.35354 0.11061 0.0
Co1 Co 0.11139 0.35095 0.25294 0.0
C2 C 0.13637 0.4012 0.19683 0.0
O3 O 0.14746 0.39009 0.14373 0.0
O4 O 0.12194 0.38824 0.24002 0.0
C5 C 0.16084 0.36673 0.97405 0.0
O6 O 0.15401 0.39016 -0.0032 0.0
C7 C 0.11294 0.35528 0.40679 0.0
C8 C 0.07866 0.33231 0.4433 0.0
C9 C 0.10076 0.34545 0.46764 0.0
N10 N 0.09925 0.3476 0.349 0.0
N11 N 0.07847 0.33429 0.37096 0.0
C12 C 0.13734 0.37167 0.40259 0.0
H13 H 0.1332 0.38971 0.3713 0.0
H14 H 0.1529 0.36064 0.37385 0.0
H15 H 0.14447 0.37772 0.45636 0.0
C16 C 0.17412 0.31203 0.18234 0.0
N17 N 0.15445 0.32963 0.18081 0.0
N18 N 0.14038 0.32753 0.23988 0.0
C19 C 0.15059 0.30807 0.28053 0.0
C20 C 0.17229 0.2979 0.24562 0.0
C21 C 0.19401 0.30882 0.12394 0.0
H22 H 0.18443 0.29977 0.07648 0.0
H23 H 0.20146 0.32839 0.10735 0.0
H24 H 0.21058 0.29619 0.1415 0.0
O25 O 0.10683 0.34633 0.0847 0.0
O26 O 0.08285 0.34318 0.18399 0.0
H27 H 0.1176 0.29844 0.34718 0.0
H28 H 0.14612 0.27803 0.36169 0.0
C29 C 0.1393 0.29828 0.34977 0.0
H30 H 0.14584 0.31117 0.39416 0.0
H31 H 0.06488 0.32554 0.33656 0.0
O32 O 0.16168 0.34794 0.01887 0.0
C33 C 0.08499 0.34237 0.11581 0.0
Co34 Co 0.6394 0.14211 0.37501 0.0
Co35 Co 0.64205 0.11187 0.52048 0.0
C36 C 0.59197 0.13585 0.46678 0.0
O37 O 0.60314 0.14617 0.4125 0.0
O38 O 0.60475 0.1217 0.51092 0.0
C39 C 0.62348 0.1562 0.23989 0.0
O40 O 0.6017 0.14619 0.26584 0.0
C41 C 0.63521 0.10694 0.6744 0.0
C42 C 0.66904 0.08247 0.70655 0.0
C43 C 0.64878 0.09764 0.73366 0.0
N44 N 0.64744 0.09853 0.61488 0.0
N45 N 0.6672 0.08325 0.63426 0.0
C46 C 0.61196 0.12496 0.67387 0.0
H47 H 0.61683 0.14319 0.64402 0.0
H48 H 0.60517 0.12986 0.72887 0.0
H49 H 0.59557 0.11518 0.64542 0.0
C50 C 0.68356 0.1713 0.43932 0.0
N51 N 0.66455 0.15302 0.44199 0.0
N52 N 0.66455 0.14169 0.50553 0.0
C53 C 0.68275 0.15353 0.54699 0.0
C54 C 0.69577 0.17243 0.50614 0.0
C55 C 0.69096 0.18572 0.37211 0.0
H56 H 0.68849 0.17274 0.3248 0.0
H57 H 0.67779 0.2029 0.36535 0.0
H58 H 0.71161 0.19256 0.37408 0.0
O59 O 0.64644 0.10564 0.34886 0.0
O60 O 0.64974 0.08319 0.45072 0.0
H61 H 0.69611 0.13004 0.63521 0.0
H62 H 0.69621 0.16494 0.65337 0.0
C63 C 0.6856 0.14881 0.62606 0.0
H64 H 0.66595 0.14761 0.65062 0.0
H65 H 0.68046 0.07483 0.5983 0.0
O66 O 0.64256 0.16012 0.2824 0.0
C67 C 0.65051 0.08432 0.38235 0.0
Co68 Co 0.86566 0.64538 0.65993 0.0
Co69 Co 0.8916 0.64395 0.81148 0.0
C70 C 0.8685 0.5958 0.74553 0.0
O71 O 0.86061 0.6083 0.69038 0.0
O72 O 0.88105 0.60731 0.79534 0.0
C73 C 0.8387 0.63207 0.53051 0.0
O74 O 0.83586 0.60893 0.56072 0.0
C75 C 0.89201 0.63408 0.96441 0.0
C76 C 0.91726 0.66587 0.00592 0.0
C77 C 0.90047 0.64594 0.0271 0.0
N78 N 0.90253 0.64699 0.90853 0.0
N79 N 0.91822 0.6655 0.93352 0.0
C80 C 0.873 0.6118 0.95715 0.0
H81 H 0.85606 0.61799 0.92367 0.0
H82 H 0.86603 0.60454 0.01001 0.0
H83 H 0.88287 0.59529 0.92935 0.0
C84 C 0.83525 0.68828 0.72547 0.0
N85 N 0.85336 0.66911 0.7288 0.0
N86 N 0.86296 0.66769 0.79426 0.0
C87 C 0.85019 0.68521 0.83596 0.0
C88 C 0.83239 0.69911 0.79358 0.0
C89 C 0.82256 0.69706 0.65691 0.0
H90 H 0.83702 0.69644 0.61243 0.0
H91 H 0.80627 0.68347 0.64349 0.0
H92 H 0.8148 0.71735 0.66131 0.0
O93 O 0.90288 0.65224 0.64128 0.0
O94 O 0.92225 0.65145 0.74833 0.0
H95 H 0.87201 0.69598 0.9297 0.0
H96 H 0.83679 0.69756 0.94173 0.0
C97 C 0.85303 0.6866 0.91596 0.0
H98 H 0.85274 0.66653 0.9382 0.0
H99 H 0.9282 0.67896 0.9012 0.0
O100 O 0.84864 0.6507 0.56659 0.0
C101 C 0.92322 0.65419 0.68032 0.0
Co102 Co 0.35395 0.85828 0.9029 0.0
Co103 Co 0.35064 0.89127 0.04375 0.0
C104 C 0.40067 0.86418 -0.00739 0.0
O105 O 0.3899 0.85331 0.93867 0.0
O106 O 0.3877 0.87928 0.03399 0.0
C107 C 0.3671 0.84264 0.76576 0.0
O108 O 0.39022 0.85029 0.78884 0.0
C109 C 0.35444 0.89004 0.19774 0.0
C110 C 0.33191 0.92476 0.2332 0.0
C111 C 0.34481 0.90259 0.25824 0.0
N112 N 0.34692 0.90365 0.13953 0.0
N113 N 0.33384 0.92467 0.16085 0.0
C114 C 0.37074 0.86556 0.19416 0.0
H115 H 0.36062 0.85067 0.16063 0.0
H116 H 0.37516 0.85734 0.24796 0.0
H117 H 0.38969 0.87018 0.16784 0.0
C118 C 0.31245 0.82798 0.97467 0.0
N119 N 0.32939 0.84816 0.97198 0.0
N120 N 0.32652 0.86292 0.02944 0.0
C121 C 0.30682 0.85293 0.06955 0.0
C122 C 0.29754 0.83042 0.03646 0.0
C123 C 0.31059 0.80709 0.91849 0.0
H124 H 0.30272 0.81586 0.86827 0.0
H125 H 0.33049 0.79942 0.90644 0.0
H126 H 0.29756 0.79079 0.93567 0.0
O127 O 0.34793 0.89523 0.87598 0.0
O128 O 0.34442 0.91995 0.9737 0.0
H129 H 0.2976 0.88588 0.13676 0.0
H130 H 0.27715 0.85745 0.15171 0.0
C131 C 0.29734 0.86416 0.13916 0.0
H132 H 0.31039 0.85747 0.18313 0.0
H133 H 0.32531 0.9383 0.12603 0.0
O134 O 0.34847 0.84047 0.8107 0.0
C135 C 0.34425 0.91739 0.90561 0.0
Co136 Co 0.14007 0.64155 0.36277 0.0
Co137 Co 0.10727 0.64794 0.22374 0.0
C138 C 0.13455 0.59693 0.26493 0.0
O139 O 0.14567 0.60675 0.31974 0.0
O140 O 0.11903 0.61058 0.22644 0.0
C141 C 0.14589 0.62464 0.49457 0.0
O142 O 0.13307 0.6062 0.45995 0.0
C143 C 0.10927 0.64558 0.07122 0.0
C144 C 0.07232 0.66392 0.03454 0.0
C145 C 0.09524 0.65219 0.01009 0.0
N146 N 0.09533 0.65286 0.1288 0.0
N147 N 0.07316 0.66371 0.107 0.0
C148 C 0.13652 0.63459 0.07604 0.0
H149 H 0.14582 0.64006 0.12775 0.0
H150 H 0.14885 0.64178 0.03094 0.0
H151 H 0.13557 0.61285 0.07375 0.0
C152 C 0.1706 0.68501 0.29768 0.0
N153 N 0.15038 0.66806 0.29913 0.0
N154 N 0.13543 0.67188 0.24243 0.0
C155 C 0.14524 0.69206 0.20408 0.0
C156 C 0.16811 0.70077 0.23699 0.0
C157 C 0.19264 0.6847 0.35076 0.0
H158 H 0.19432 0.66506 0.37625 0.0
H159 H 0.21146 0.68993 0.32432 0.0
H160 H 0.18859 0.69937 0.3934 0.0
O161 O 0.10281 0.64713 0.38906 0.0
O162 O 0.07818 0.65271 0.29213 0.0
H163 H 0.13782 0.72471 0.13277 0.0
H164 H 0.13841 0.69296 0.09058 0.0
C165 C 0.13222 0.70379 0.13938 0.0
H166 H 0.1106 0.70241 0.14458 0.0
H167 H 0.05882 0.6712 0.14139 0.0
O168 O 0.1564 0.64302 0.45831 0.0
C169 C 0.08067 0.65144 0.36003 0.0
Co170 Co 0.34662 0.13068 0.585 0.0
Co171 Co 0.34809 0.10104 0.43866 0.0
C172 C 0.39568 0.12825 0.5023 0.0
O173 O 0.38331 0.13718 0.55635 0.0
O174 O 0.38423 0.11399 0.45578 0.0
C175 C 0.3568 0.1565 0.71745 0.0
O176 O 0.38066 0.15888 0.6916 0.0
C177 C 0.35483 0.10569 0.2863 0.0
C178 C 0.33398 0.07123 0.24238 0.0
C179 C 0.34646 0.09435 0.22277 0.0
N180 N 0.34692 0.09051 0.34108 0.0
N181 N 0.33493 0.06962 0.31472 0.0
C182 C 0.37 0.13066 0.29592 0.0
H183 H 0.35847 0.14461 0.3291 0.0
H184 H 0.37539 0.1399 0.24403 0.0
H185 H 0.38844 0.12633 0.32515 0.0
C186 C 0.30573 0.16117 0.51081 0.0
N187 N 0.32329 0.14148 0.51342 0.0
N188 N 0.32269 0.12825 0.45279 0.0
C189 C 0.30411 0.1389 0.41003 0.0
C190 C 0.29306 0.16022 0.445 0.0
C191 C 0.30249 0.18129 0.56867 0.0
H192 H 0.29075 0.17269 0.61307 0.0
H193 H 0.32197 0.18675 0.59066 0.0
H194 H 0.29238 0.19912 0.54837 0.0
O195 O 0.34127 0.09298 0.60604 0.0
O196 O 0.34184 0.0708 0.50319 0.0
H197 H 0.29727 0.10676 0.33786 0.0
H198 H 0.27568 0.13449 0.32496 0.0
C199 C 0.29605 0.12846 0.33824 0.0
H200 H 0.30923 0.13654 0.29643 0.0
H201 H 0.32626 0.05501 0.3461 0.0
O202 O 0.33879 0.14765 0.67709 0.0
C203 C 0.33965 0.07155 0.57132 0.0
Co204 Co 0.86899 0.34823 0.82629 0.0
Co205 Co 0.89387 0.35168 0.67351 0.0
C206 C 0.87156 0.39898 0.7448 0.0
O207 O 0.86429 0.38577 0.79934 0.0
O208 O 0.88356 0.38815 0.69286 0.0
C209 C 0.84008 0.36021 0.95369 0.0
O210 O 0.83465 0.38239 0.92083 0.0
C211 C 0.89418 0.36317 0.52103 0.0
C212 C 0.91874 0.33125 0.4772 0.0
C213 C 0.90236 0.35174 0.45745 0.0
N214 N 0.90445 0.34951 0.57596 0.0
N215 N 0.91976 0.33092 0.54958 0.0
C216 C 0.87569 0.38584 0.52991 0.0
H217 H 0.88598 0.40185 0.55869 0.0
H218 H 0.85867 0.37981 0.56323 0.0
H219 H 0.86882 0.39366 0.47754 0.0
C220 C 0.83748 0.30686 0.7574 0.0
N221 N 0.85597 0.32566 0.75551 0.0
N222 N 0.86506 0.32807 0.68972 0.0
C223 C 0.85152 0.31168 0.64649 0.0
C224 C 0.83377 0.29739 0.68804 0.0
C225 C 0.82505 0.29725 0.82547 0.0
H226 H 0.83968 0.29729 0.8696 0.0
H227 H 0.80882 0.31068 0.84059 0.0
H228 H 0.81724 0.27705 0.81925 0.0
O229 O 0.90617 0.34056 0.84268 0.0
O230 O 0.92479 0.34315 0.73488 0.0
H231 H 0.87191 0.30232 0.54921 0.0
H232 H 0.83653 0.30224 0.54002 0.0
C233 C 0.85343 0.312 0.56618 0.0
H234 H 0.85358 0.33253 0.54741 0.0
H235 H 0.92948 0.31695 0.58088 0.0
O236 O 0.85231 0.34234 0.91997 0.0
C237 C 0.92623 0.33917 0.80237 0.0
Co238 Co 0.64754 0.86586 0.10265 0.0
Co239 Co 0.64455 0.89055 0.94965 0.0
C240 C 0.59707 0.86822 0.02111 0.0
O241 O 0.61007 0.8609 0.07597 0.0
O242 O 0.60815 0.88011 0.9693 0.0
C243 C 0.63615 0.8364 0.22997 0.0
O244 O 0.61409 0.83045 0.19737 0.0
C245 C 0.63345 0.88941 0.79734 0.0
C246 C 0.66385 0.91557 0.7523 0.0
C247 C 0.64435 0.89794 0.73338 0.0
N248 N 0.64648 0.90072 0.85173 0.0
N249 N 0.66416 0.91693 0.82463 0.0
C250 C 0.61185 0.86976 0.80725 0.0
H251 H 0.61869 0.85348 0.84229 0.0
H252 H 0.60464 0.86186 0.75538 0.0
H253 H 0.59515 0.87945 0.83464 0.0
C254 C 0.68971 0.83487 0.03552 0.0
N255 N 0.67046 0.85289 0.03252 0.0
N256 N 0.66847 0.86207 0.96668 0.0
C257 C 0.68573 0.84914 0.92453 0.0
C258 C 0.70002 0.83164 0.96689 0.0
C259 C 0.69915 0.82268 0.10414 0.0
H260 H 0.69888 0.83747 0.14782 0.0
H261 H 0.68574 0.80645 0.11943 0.0
H262 H 0.7194 0.81494 0.09874 0.0
O263 O 0.65482 0.90319 0.11847 0.0
O264 O 0.6527 0.92169 0.01033 0.0
H265 H 0.69523 0.87088 0.82946 0.0
H266 H 0.6979 0.83565 0.81861 0.0
C267 C 0.6866 0.85165 0.84437 0.0
H268 H 0.66644 0.85058 0.82309 0.0
H269 H 0.67751 0.92762 0.85545 0.0
O270 O 0.65355 0.84933 0.19637 0.0
C271 C 0.65629 0.92322 0.07795 0.0
C272 C 0.2511 0.18529 0.44967 0.0
C273 C 0.27467 0.17956 0.41459 0.0
C274 C 0.23366 0.2039 0.42109 0.0
C275 C 0.24037 0.21732 0.35689 0.0
C276 C 0.26424 0.21148 0.32139 0.0
C277 C 0.28103 0.19246 0.35048 0.0
C278 C 0.20815 0.20928 0.45961 0.0
C279 C 0.27228 0.22569 0.25357 0.0
C280 C 0.18747 0.25159 0.24797 0.0
C281 C 0.19003 0.2774 0.27223 0.0
C282 C 0.20358 0.23166 0.27571 0.0
C283 C 0.22282 0.23802 0.32785 0.0
C284 C 0.22552 0.26426 0.35181 0.0
C285 C 0.20884 0.28366 0.32407 0.0
C286 C 0.19987 0.20383 0.24985 0.0
C287 C 0.24606 0.27185 0.40649 0.0
H288 H 0.24628 0.17507 0.49911 0.0
H289 H 0.29945 0.18804 0.32394 0.0
H290 H 0.20761 0.22998 0.47796 0.0
H291 H 0.1914 0.20649 0.42227 0.0
H292 H 0.20535 0.19628 0.50701 0.0
H293 H 0.29131 0.2185 0.23205 0.0
H294 H 0.25706 0.22324 0.21151 0.0
H295 H 0.27402 0.24704 0.2645 0.0
H296 H 0.17262 0.247 0.20818 0.0
H297 H 0.21049 0.30377 0.34263 0.0
H298 H 0.19556 0.19076 0.29617 0.0
H299 H 0.2182 0.19659 0.2246 0.0
H300 H 0.18365 0.20212 0.21021 0.0
H301 H 0.24281 0.26092 0.45733 0.0
H302 H 0.24584 0.29321 0.41844 0.0
H303 H 0.26584 0.26643 0.38648 0.0
C304 C 0.78915 0.27685 0.6917 0.0
C305 C 0.8146 0.27745 0.66321 0.0
C306 C 0.77072 0.25844 0.66762 0.0
C307 C 0.77733 0.2415 0.61013 0.0
C308 C 0.80287 0.24223 0.58043 0.0
C309 C 0.8215 0.25946 0.60943 0.0
C310 C 0.74415 0.25728 0.70348 0.0
C311 C 0.81029 0.22551 0.51658 0.0
C312 C 0.73716 0.18022 0.57532 0.0
C313 C 0.71756 0.18979 0.52927 0.0
C314 C 0.75638 0.19696 0.60348 0.0
C315 C 0.75732 0.2234 0.58031 0.0
C316 C 0.73865 0.23276 0.53006 0.0
C317 C 0.71845 0.21608 0.5071 0.0
C318 C 0.77504 0.18656 0.65987 0.0
C319 C 0.73983 0.26043 0.50099 0.0
H320 H 0.78347 0.29093 0.73238 0.0
H321 H 0.84136 0.25927 0.58867 0.0
H322 H 0.72893 0.26495 0.66644 0.0
H323 H 0.73894 0.23665 0.71648 0.0
H324 H 0.74354 0.26901 0.75377 0.0
H325 H 0.83025 0.23012 0.49616 0.0
H326 H 0.80965 0.20444 0.53131 0.0
H327 H 0.79597 0.22853 0.47233 0.0
H328 H 0.73711 0.15972 0.59086 0.0
H329 H 0.70321 0.22378 0.4724 0.0
H330 H 0.77429 0.1992 0.70841 0.0
H331 H 0.79546 0.18706 0.63951 0.0
H332 H 0.77033 0.16608 0.67597 0.0
H333 H 0.73425 0.27455 0.54366 0.0
H334 H 0.72641 0.26331 0.45456 0.0
H335 H 0.76012 0.26529 0.48379 0.0
C336 C 0.82211 0.73923 0.86596 0.0
C337 C 0.81405 0.72012 0.81649 0.0
C338 C 0.80435 0.75779 0.89292 0.0
C339 C 0.77845 0.75845 0.86565 0.0
C340 C 0.77064 0.74021 0.81245 0.0
C341 C 0.78829 0.72073 0.79027 0.0
C342 C 0.81307 0.77604 0.95223 0.0
C343 C 0.74359 0.7411 0.77933 0.0
C344 C 0.72191 0.78767 0.97089 0.0
C345 C 0.72099 0.81332 0.94368 0.0
C346 C 0.74136 0.77002 0.94851 0.0
C347 C 0.75923 0.77769 0.89416 0.0
C348 C 0.75825 0.80347 0.86589 0.0
C349 C 0.73976 0.82126 0.89304 0.0
C350 C 0.74261 0.74313 0.98267 0.0
C351 C 0.77609 0.812 0.80538 0.0
H352 H 0.84222 0.73932 0.88489 0.0
H353 H 0.78176 0.70582 0.75287 0.0
H354 H 0.81199 0.79672 0.93387 0.0
H355 H 0.79973 0.77408 -0.00088 0.0
H356 H 0.83345 0.77194 0.97023 0.0
H357 H 0.74189 0.7279 0.73204 0.0
H358 H 0.72874 0.73508 0.81963 0.0
H359 H 0.73875 0.76142 0.76219 0.0
H360 H 0.70727 0.78125 0.00929 0.0
H361 H 0.73965 0.84129 0.87337 0.0
H362 H 0.76303 0.73851 -0.00086 0.0
H363 H 0.73649 0.72803 0.94322 0.0
H364 H 0.72967 0.74157 0.03057 0.0
H365 H 0.79686 0.81118 0.82283 0.0
H366 H 0.77173 0.83226 0.78667 0.0
H367 H 0.77398 0.79838 0.75918 0.0
C368 C 0.19803 0.73918 0.25412 0.0
C369 C 0.18695 0.72028 0.20879 0.0
C370 C 0.21608 0.75758 0.22742 0.0
C371 C 0.22288 0.75711 0.15359 0.0
C372 C 0.21161 0.73811 0.10761 0.0
C373 C 0.19398 0.71975 0.13599 0.0
C374 C 0.22795 0.77742 0.27812 0.0
C375 C 0.21825 0.73708 0.02851 0.0
C376 C 0.25177 0.8183 0.06829 0.0
C377 C 0.27836 0.81168 0.06536 0.0
C378 C 0.23341 0.80072 0.09719 0.0
C379 C 0.24209 0.77621 0.12434 0.0
C380 C 0.26907 0.76962 0.12182 0.0
C381 C 0.28692 0.78746 0.09181 0.0
C382 C 0.20475 0.80823 0.09812 0.0
C383 C 0.27907 0.74379 0.15087 0.0
H384 H 0.19243 0.73971 0.3103 0.0
H385 H 0.18589 0.70475 0.10121 0.0
H386 H 0.24963 0.7755 0.2781 0.0
H387 H 0.22325 0.7976 0.25967 0.0
H388 H 0.22074 0.77501 0.33411 0.0
H389 H 0.20704 0.72164 -0.00033 0.0
H390 H 0.21403 0.75632 0.00295 0.0
H391 H 0.23951 0.73318 0.02148 0.0
H392 H 0.24541 0.83718 0.04765 0.0
H393 H 0.30763 0.78264 0.08965 0.0
H394 H 0.19719 0.80782 0.15403 0.0
H395 H 0.19319 0.79377 0.06676 0.0
H396 H 0.20129 0.8281 0.07526 0.0
H397 H 0.27336 0.7416 0.20814 0.0
H398 H 0.30074 0.74205 0.14668 0.0
H399 H 0.27 0.72729 0.12097 0.0
C400 C 0.09439 0.35059 0.59974 0.0
C401 C 0.111 0.34526 0.54172 0.0
C402 C 0.1044 0.35195 0.66994 0.0
C403 C 0.13157 0.34781 0.68167 0.0
C404 C 0.14811 0.34111 0.62356 0.0
C405 C 0.13753 0.33962 0.55432 0.0
C406 C 0.08608 0.35859 0.73114 0.0
C407 C 0.1771 0.33627 0.63418 0.0
C408 C 0.15893 0.3814 0.84659 0.0
C409 C 0.15889 0.36084 0.89666 0.0
C410 C 0.15112 0.37713 0.77536 0.0
C411 C 0.14289 0.35176 0.75419 0.0
C412 C 0.14433 0.33059 0.80329 0.0
C413 C 0.15253 0.33535 0.87397 0.0
C414 C 0.15033 0.40007 0.72386 0.0
C415 C 0.13557 0.30329 0.78272 0.0
H416 H 0.07377 0.35443 0.58993 0.0
H417 H 0.15015 0.33436 0.50975 0.0
H418 H 0.08789 0.34378 0.77468 0.0
H419 H 0.09155 0.37788 0.75432 0.0
H420 H 0.06525 0.35948 0.7137 0.0
H421 H 0.18698 0.33002 0.58377 0.0
H422 H 0.18666 0.35447 0.65377 0.0
H423 H 0.18023 0.32093 0.6757 0.0
H424 H 0.16394 0.40109 0.86389 0.0
H425 H 0.1523 0.31937 0.91252 0.0
H426 H 0.12966 0.4045 0.70945 0.0
H427 H 0.1608 0.39511 0.67338 0.0
H428 H 0.15929 0.41803 0.74713 0.0
H429 H 0.11391 0.30305 0.77649 0.0
H430 H 0.14107 0.28846 0.8239 0.0
H431 H 0.14417 0.29742 0.73038 0.0
C432 C 0.60731 0.14998 0.11511 0.0
C433 C 0.62832 0.15464 0.16193 0.0
C434 C 0.61176 0.14226 0.04397 0.0
C435 C 0.63784 0.13912 0.01942 0.0
C436 C 0.65914 0.14543 0.06495 0.0
C437 C 0.65411 0.15329 0.13578 0.0
C438 C 0.58856 0.13615 -0.00373 0.0
C439 C 0.68721 0.14238 0.04033 0.0
C440 C 0.6467 0.09091 0.86629 0.0
C441 C 0.6473 0.10794 0.80734 0.0
C442 C 0.64428 0.10085 0.93633 0.0
C443 C 0.64268 0.12838 0.94678 0.0
C444 C 0.64446 0.14561 0.88744 0.0
C445 C 0.64695 0.13514 0.81839 0.0
C446 C 0.64276 0.08194 -0.00116 0.0
C447 C 0.64309 0.17504 0.89664 0.0
H448 H 0.58735 0.15116 0.13502 0.0
H449 H 0.67047 0.15678 0.17177 0.0
H450 H 0.59014 0.14705 0.94477 0.0
H451 H 0.58844 0.1149 0.98319 0.0
H452 H 0.56958 0.14124 0.02209 0.0
H453 H 0.70138 0.15067 0.07959 0.0
H454 H 0.69171 0.12123 0.03302 0.0
H455 H 0.69019 0.15215 0.98762 0.0
H456 H 0.64747 0.06989 0.85741 0.0
H457 H 0.64837 0.14831 0.77278 0.0
H458 H 0.62328 0.08357 0.02509 0.0
H459 H 0.65776 0.08697 0.0398 0.0
H460 H 0.64574 0.06124 0.98195 0.0
H461 H 0.62366 0.18061 0.91878 0.0
H462 H 0.64608 0.1857 0.84513 0.0
H463 H 0.65815 0.18168 0.93565 0.0
C464 C 0.86102 0.64481 0.10524 0.0
C465 C 0.88839 0.64363 0.09851 0.0
C466 C 0.84898 0.64308 0.1726 0.0
C467 C 0.8648 0.6404 0.2345 0.0
C468 C 0.89253 0.63967 0.22813 0.0
C469 C 0.90403 0.6415 0.15986 0.0
C470 C 0.81942 0.64429 0.17755 0.0
C471 C 0.90999 0.63693 0.29336 0.0
C472 C 0.84175 0.65932 0.41992 0.0
C473 C 0.83829 0.63457 0.45161 0.0
C474 C 0.84885 0.66163 0.34754 0.0
C475 C 0.8525 0.63862 0.30631 0.0
C476 C 0.84661 0.61375 0.3361 0.0
C477 C 0.8394 0.61201 0.40861 0.0
C478 C 0.85447 0.68854 0.31702 0.0
C479 C 0.84999 0.58882 0.29321 0.0
H480 H 0.84897 0.64734 0.05776 0.0
H481 H 0.92521 0.64101 0.15427 0.0
H482 H 0.81181 0.62636 0.20427 0.0
H483 H 0.81342 0.66129 0.21097 0.0
H484 H 0.80999 0.64613 0.12391 0.0
H485 H 0.93114 0.6364 0.27899 0.0
H486 H 0.90663 0.6536 0.33058 0.0
H487 H 0.90504 0.61866 0.32294 0.0
H488 H 0.84054 0.67685 0.4528 0.0
H489 H 0.83659 0.59283 0.43268 0.0
H490 H 0.84525 0.69088 0.26337 0.0
H491 H 0.87596 0.69094 0.30993 0.0
H492 H 0.84729 0.70447 0.35274 0.0
H493 H 0.84049 0.59069 0.23978 0.0
H494 H 0.84163 0.57147 0.32132 0.0
H495 H 0.8712 0.58524 0.28391 0.0
C496 C 0.33842 0.86647 0.34677 0.0
C497 C 0.34477 0.89274 0.33278 0.0
C498 C 0.34014 0.85616 0.41637 0.0
C499 C 0.34776 0.87276 0.47348 0.0
C500 C 0.35264 0.89975 0.46037 0.0
C501 C 0.35107 0.90945 0.38983 0.0
C502 C 0.33455 0.82736 0.42838 0.0
C503 C 0.36029 0.91816 0.52042 0.0
C504 C 0.33568 0.85247 0.66671 0.0
C505 C 0.36103 0.84519 0.68858 0.0
C506 C 0.33088 0.86095 0.59621 0.0
C507 C 0.35182 0.86166 0.54635 0.0
C508 C 0.37703 0.8527 0.56688 0.0
C509 C 0.38138 0.84474 0.63803 0.0
C510 C 0.30381 0.87066 0.57647 0.0
C511 C 0.39971 0.85271 0.51461 0.0
H512 H 0.33244 0.85381 0.30294 0.0
H513 H 0.35549 0.9299 0.37895 0.0
H514 H 0.35258 0.81737 0.44768 0.0
H515 H 0.31938 0.82488 0.47059 0.0
H516 H 0.32775 0.81741 0.37863 0.0
H517 H 0.3611 0.93895 0.50239 0.0
H518 H 0.34617 0.91659 0.5656 0.0
H519 H 0.37988 0.91256 0.54156 0.0
H520 H 0.31991 0.85317 0.70577 0.0
H521 H 0.40097 0.83912 0.65484 0.0
H522 H 0.29713 0.8616 0.52546 0.0
H523 H 0.30443 0.89221 0.56784 0.0
H524 H 0.28914 0.86637 0.61906 0.0
H525 H 0.39422 0.84216 0.46466 0.0
H526 H 0.41754 0.84335 0.53757 0.0
H527 H 0.40459 0.8732 0.49934 0.0
C528 C 0.09644 0.66741 0.88269 0.0
C529 C 0.10317 0.64859 0.93448 0.0
C530 C 0.10444 0.66452 0.811 0.0
C531 C 0.11975 0.64247 0.79138 0.0
C532 C 0.12649 0.6234 0.84344 0.0
C533 C 0.1176 0.62641 0.91401 0.0
C534 C 0.09628 0.68482 0.75616 0.0
C535 C 0.14266 0.59953 0.82435 0.0
C536 C 0.11745 0.61783 0.60053 0.0
C537 C 0.14068 0.62818 0.57168 0.0
C538 C 0.11021 0.62285 0.67153 0.0
C539 C 0.12694 0.63807 0.71535 0.0
C540 C 0.15065 0.6483 0.68709 0.0
C541 C 0.15711 0.64351 0.61489 0.0
C542 C 0.0844 0.61222 0.69918 0.0
C543 C 0.16913 0.66418 0.73315 0.0
H544 H 0.08506 0.68446 0.89833 0.0
H545 H 0.12169 0.61112 0.9528 0.0
H546 H 0.11391 0.69411 0.73219 0.0
H547 H 0.08534 0.67527 0.71177 0.0
H548 H 0.08373 0.70042 0.77981 0.0
H549 H 0.14817 0.58783 0.8725 0.0
H550 H 0.13143 0.58673 0.78725 0.0
H551 H 0.16086 0.60556 0.79601 0.0
H552 H 0.10434 0.60646 0.56685 0.0
H553 H 0.17494 0.65166 0.59229 0.0
H554 H 0.07164 0.62868 0.71662 0.0
H555 H 0.08776 0.59951 0.74676 0.0
H556 H 0.07374 0.60063 0.65792 0.0
H557 H 0.15895 0.6819 0.75372 0.0
H558 H 0.18692 0.67045 0.70322 0.0
H559 H 0.1753 0.65244 0.78054 0.0
C560 C 0.35281 0.09108 0.09046 0.0
C561 C 0.34639 0.10621 0.15055 0.0
C562 C 0.3532 0.10234 0.02164 0.0
C563 C 0.34685 0.12928 0.01329 0.0
C564 C 0.3396 0.14442 0.07367 0.0
C565 C 0.33919 0.13259 0.14156 0.0
C566 C 0.36064 0.08549 0.95801 0.0
C567 C 0.33245 0.17309 0.06666 0.0
C568 C 0.37394 0.15912 0.84279 0.0
C569 C 0.3526 0.15608 0.79598 0.0
C570 C 0.37188 0.1519 0.91529 0.0
C571 C 0.34794 0.14149 0.94112 0.0
C572 C 0.32569 0.14065 0.89581 0.0
C573 C 0.32825 0.14813 0.82372 0.0
C574 C 0.39587 0.15358 0.96273 0.0
C575 C 0.29974 0.12988 0.92171 0.0
H576 H 0.35793 0.07057 0.09752 0.0
H577 H 0.33319 0.14405 0.18769 0.0
H578 H 0.34463 0.08568 0.91758 0.0
H579 H 0.37841 0.09361 0.93163 0.0
H580 H 0.36463 0.06481 0.9736 0.0
H581 H 0.32693 0.18198 0.11905 0.0
H582 H 0.34928 0.1842 0.04412 0.0
H583 H 0.31582 0.17548 0.02875 0.0
H584 H 0.39274 0.16554 0.82196 0.0
H585 H 0.31155 0.14604 0.78808 0.0
H586 H 0.40317 0.13348 0.97437 0.0
H587 H 0.3909 0.16285 0.01492 0.0
H588 H 0.41196 0.16495 0.9371 0.0
H589 H 0.30141 0.10831 0.92893 0.0
H590 H 0.2836 0.13388 0.88307 0.0
H591 H 0.29441 0.13838 0.9746 0.0
C592 C 0.90566 0.35645 0.32473 0.0
C593 C 0.89012 0.35463 0.38636 0.0
C594 C 0.89406 0.35788 0.25651 0.0
C595 C 0.86633 0.35693 0.25039 0.0
C596 C 0.8506 0.35486 0.31263 0.0
C597 C 0.86273 0.35367 0.37999 0.0
C598 C 0.91143 0.36014 0.19099 0.0
C599 C 0.82105 0.35334 0.30801 0.0
C600 C 0.84027 0.38208 0.07314 0.0
C601 C 0.83973 0.35887 0.03276 0.0
C602 C 0.84755 0.38163 0.14576 0.0
C603 C 0.85399 0.35738 0.17843 0.0
C604 C 0.85091 0.33368 0.13981 0.0
C605 C 0.84387 0.33472 0.06715 0.0
C606 C 0.85047 0.40728 0.18561 0.0
C607 C 0.85701 0.30738 0.17351 0.0
H608 H 0.92685 0.3568 0.33004 0.0
H609 H 0.85075 0.3514 0.42768 0.0
H610 H 0.90862 0.34278 0.15585 0.0
H611 H 0.90593 0.37775 0.15922 0.0
H612 H 0.93256 0.36154 0.20526 0.0
H613 H 0.81166 0.35276 0.36189 0.0
H614 H 0.81325 0.37048 0.27799 0.0
H615 H 0.81523 0.33548 0.27791 0.0
H616 H 0.83705 0.40081 0.04684 0.0
H617 H 0.84316 0.31671 0.03615 0.0
H618 H 0.87162 0.41142 0.19411 0.0
H619 H 0.84114 0.40607 0.23938 0.0
H620 H 0.84169 0.42399 0.15561 0.0
H621 H 0.87852 0.30552 0.18129 0.0
H622 H 0.85026 0.29078 0.13952 0.0
H623 H 0.84768 0.30569 0.22719 0.0
C624 C 0.66195 0.84034 0.34264 0.0
C625 C 0.63782 0.83554 0.30895 0.0
C626 C 0.66305 0.84712 0.41543 0.0
C627 C 0.63943 0.84917 0.45495 0.0
C628 C 0.61532 0.8419 0.42303 0.0
C629 C 0.61481 0.83497 0.35017 0.0
C630 C 0.68922 0.85419 0.4482 0.0
C631 C 0.58979 0.84363 0.46394 0.0
C632 C 0.64397 0.85818 0.65626 0.0
C633 C 0.64179 0.88552 0.66248 0.0
C634 C 0.64285 0.84595 0.58906 0.0
C635 C 0.63971 0.86155 0.52683 0.0
C636 C 0.6376 0.88922 0.5328 0.0
C637 C 0.63891 0.90093 0.60085 0.0
C638 C 0.64557 0.81647 0.58456 0.0
C639 C 0.63425 0.90646 0.46727 0.0
H640 H 0.67982 0.84044 0.311 0.0
H641 H 0.59611 0.83119 0.32442 0.0
H642 H 0.69028 0.87576 0.45586 0.0
H643 H 0.6915 0.84492 0.50184 0.0
H644 H 0.70591 0.84807 0.41363 0.0
H645 H 0.57338 0.83406 0.43465 0.0
H646 H 0.5917 0.83439 0.51771 0.0
H647 H 0.58467 0.86458 0.47244 0.0
H648 H 0.64707 0.84634 0.70393 0.0
H649 H 0.63762 0.9221 0.60603 0.0
H650 H 0.66355 0.81135 0.55401 0.0
H651 H 0.62868 0.80796 0.55506 0.0
H652 H 0.64672 0.80712 0.63849 0.0
H653 H 0.65149 0.90431 0.43132 0.0
H654 H 0.63208 0.92753 0.48145 0.0
H655 H 0.61669 0.90023 0.43641 0.0
C656 C 0.03743 0.34835 0.08901 0.0
C657 C 0.0618 0.33772 0.07037 0.0
C658 C 0.01611 0.34679 0.04147 0.0
C659 C 0.01913 0.33351 0.97501 0.0
C660 C 0.04343 0.32172 0.9575 0.0
C661 C 0.06462 0.32435 0.00494 0.0
C662 C 0.99067 0.36022 0.06116 0.0
C663 C 0.04713 0.30658 0.88845 0.0
C664 C 0.9545 0.31507 0.88853 0.0
C665 C 0.95177 0.3349 0.83688 0.0
C666 C 0.97719 0.31334 0.93083 0.0
C667 C 0.99698 0.33263 0.92325 0.0
C668 C 0.99465 0.3522 0.86935 0.0
C669 C 0.97216 0.35281 0.82582 0.0
C670 C 0.97949 0.29152 0.9855 0.0
C671 C 0.01502 0.3735 0.86082 0.0
H672 H 0.03539 0.35894 0.13925 0.0
H673 H 0.0835 0.316 -0.00923 0.0
H674 H 0.98559 0.37502 0.01957 0.0
H675 H 0.97445 0.34573 0.06281 0.0
H676 H 0.99174 0.37018 0.11419 0.0
H677 H 0.06682 0.29729 0.88503 0.0
H678 H 0.03195 0.29105 0.884 0.0
H679 H 0.04467 0.31984 0.8416 0.0
H680 H 0.9386 0.30125 0.89681 0.0
H681 H 0.96973 0.36835 0.78644 0.0
H682 H 0.97719 0.29964 0.04043 0.0
H683 H -0.00082 0.28226 0.98256 0.0
H684 H 0.96434 0.27612 0.97748 0.0
H685 H 0.01572 0.38557 0.91044 0.0
H686 H 0.0108 0.38661 0.81444 0.0
H687 H 0.03478 0.36481 0.85338 0.0
C688 C 0.64248 0.9693 0.09894 0.0
C689 C 0.66015 0.94886 0.1123 0.0
C690 C 0.64264 0.99198 0.14173 0.0
C691 C 0.66154 0.99444 0.19726 0.0
C692 C 0.68058 0.97454 0.20738 0.0
C693 C 0.67928 0.95168 0.16572 0.0
C694 C 0.62163 0.01249 0.13041 0.0
C695 C 0.70172 0.97697 0.26386 0.0
C696 C 0.66968 0.06267 0.275 0.0
C697 C 0.65553 0.0606 0.33941 0.0
C698 C 0.67262 0.04102 0.22933 0.0
C699 C 0.66035 0.01702 0.24751 0.0
C700 C 0.64628 0.01474 0.31303 0.0
C701 C 0.64442 0.03652 0.35892 0.0
C702 C 0.68857 0.04393 0.16132 0.0
C703 C 0.63233 0.98964 0.33329 0.0
H704 H 0.62747 0.96682 0.05819 0.0
H705 H 0.69292 0.93574 0.17577 0.0
H706 H 0.60916 0.0138 0.1792 0.0
H707 H 0.63059 0.03209 0.12202 0.0
H708 H 0.60889 0.00797 0.08356 0.0
H709 H 0.71698 0.96152 0.2583 0.0
H710 H 0.7113 0.9965 0.26042 0.0
H711 H 0.69288 0.97529 0.31816 0.0
H712 H 0.67838 0.08134 0.26017 0.0
H713 H 0.63322 0.03509 0.40835 0.0
H714 H 0.67579 0.04135 0.1136 0.0
H715 H 0.70387 0.02845 0.15898 0.0
H716 H 0.69822 0.06344 0.15748 0.0
H717 H 0.61787 0.98447 0.29098 0.0
H718 H 0.62189 0.99126 0.38553 0.0
H719 H 0.64656 0.97322 0.33686 0.0
C720 C 0.06078 0.66749 0.47367 0.0
C721 C 0.05777 0.65483 0.40729 0.0
C722 C 0.03967 0.66977 0.52153 0.0
C723 C 0.01532 0.65818 0.50365 0.0
C724 C 0.0122 0.64532 0.43661 0.0
C725 C 0.0334 0.64424 0.38851 0.0
C726 C 0.04348 0.68445 0.59125 0.0
C727 C 0.98673 0.63204 0.41658 0.0
C728 C 0.96857 0.63938 0.65388 0.0
C729 C 0.94851 0.65777 0.644 0.0
C730 C 0.99077 0.63953 0.60927 0.0
C731 C 0.99317 0.6591 0.55539 0.0
C732 C 0.97366 0.67873 0.54859 0.0
C733 C 0.95122 0.67747 0.59202 0.0
C734 C 0.01078 0.61782 0.61678 0.0
C735 C 0.97606 0.70056 0.49396 0.0
H736 H 0.07967 0.67577 0.48797 0.0
H737 H 0.03123 0.6342 0.33748 0.0
H738 H 0.028 0.69961 0.59748 0.0
H739 H 0.04166 0.67074 0.63734 0.0
H740 H 0.06297 0.69415 0.59421 0.0
H741 H 0.98784 0.62211 0.36352 0.0
H742 H 0.98151 0.61724 0.45806 0.0
H743 H 0.9706 0.64663 0.4148 0.0
H744 H 0.9661 0.6239 0.69341 0.0
H745 H 0.93554 0.69162 0.58457 0.0
H746 H 0.03085 0.62604 0.62061 0.0
H747 H 0.0102 0.60522 0.56817 0.0
H748 H 0.00711 0.60534 0.66477 0.0
H749 H 0.99578 0.70972 0.49713 0.0
H750 H 0.96096 0.71603 0.50188 0.0
H751 H 0.97382 0.69247 0.43899 0.0
C752 C 0.35164 0.96452 0.87482 0.0
C753 C 0.3402 0.94028 0.85848 0.0
C754 C 0.35041 0.98543 0.82565 0.0
C755 C 0.33663 0.98216 0.75999 0.0
C756 C 0.32415 0.958 0.74475 0.0
C757 C 0.32646 0.93721 0.79372 0.0
C758 C 0.36464 0.01067 0.84278 0.0
C759 C 0.30846 0.95407 0.6767 0.0
C760 C 0.31782 0.04574 0.66727 0.0
C761 C 0.33667 0.04717 0.61268 0.0
C762 C 0.31674 0.024 0.71346 0.0
C763 C 0.33575 0.00388 0.70671 0.0
C764 C 0.35458 0.00507 0.65066 0.0
C765 C 0.35449 0.02657 0.60336 0.0
C766 C 0.29567 0.02288 0.77046 0.0
C767 C 0.37563 0.98439 0.64299 0.0
H768 H 0.36252 0.96673 0.92453 0.0
H769 H 0.31751 0.91843 0.78134 0.0
H770 H 0.37922 0.01497 0.80003 0.0
H771 H 0.35061 0.0273 0.84404 0.0
H772 H 0.37498 0.00979 0.89531 0.0
H773 H 0.29956 0.93419 0.67369 0.0
H774 H 0.29257 0.96894 0.67367 0.0
H775 H 0.32113 0.95694 0.62888 0.0
H776 H 0.30407 0.06179 0.67419 0.0
H777 H 0.3693 0.02802 0.56166 0.0
H778 H 0.30461 0.02539 0.82438 0.0
H779 H 0.28585 0.00344 0.76984 0.0
H780 H 0.2806 0.03841 0.76291 0.0
H781 H 0.38832 0.98448 0.69151 0.0
H782 H 0.38814 0.98767 0.5949 0.0
H783 H 0.36675 0.96458 0.63912 0.0
C784 C 0.12407 0.44292 0.25886 0.0
C785 C 0.1392 0.42991 0.20692 0.0
C786 C 0.12514 0.47027 0.26619 0.0
C787 C 0.14196 0.485 0.22099 0.0
C788 C 0.15782 0.47199 0.16975 0.0
C789 C 0.15617 0.44458 0.16306 0.0
C790 C 0.1078 0.48347 0.32126 0.0
C791 C 0.17622 0.48706 0.12128 0.0
C792 C 0.12285 0.55639 0.19624 0.0
C793 C 0.13846 0.56877 0.24826 0.0
C794 C 0.12443 0.5292 0.1851 0.0
C795 C 0.14223 0.5141 0.22642 0.0
C796 C 0.15892 0.52663 0.27654 0.0
C797 C 0.15675 0.55381 0.28713 0.0
C798 C 0.10621 0.51651 0.13137 0.0
C799 C 0.17841 0.5112 0.32086 0.0
H800 H 0.11089 0.4318 0.293 0.0
H801 H 0.16802 0.4347 0.12298 0.0
H802 H 0.11989 0.49528 0.35879 0.0
H803 H 0.09406 0.49714 0.29398 0.0
H804 H 0.09616 0.46913 0.35308 0.0
H805 H 0.18819 0.47391 0.08679 0.0
H806 H 0.1648 0.50047 0.08612 0.0
H807 H 0.1896 0.49941 0.15392 0.0
H808 H 0.10872 0.56778 0.16576 0.0
H809 H 0.16905 0.56323 0.32701 0.0
H810 H 0.09229 0.50338 0.15992 0.0
H811 H 0.1175 0.50419 0.09319 0.0
H812 H 0.09474 0.53119 0.10024 0.0
H813 H 0.16776 0.49815 0.35871 0.0
H814 H 0.19162 0.52415 0.35242 0.0
H815 H 0.19054 0.49849 0.28565 0.0
C816 C 0.5491 0.15726 0.43583 0.0
C817 C 0.56329 0.13886 0.47643 0.0
C818 C 0.52164 0.15871 0.44073 0.0
C819 C 0.50812 0.14111 0.48656 0.0
C820 C 0.52239 0.12305 0.5292 0.0
C821 C 0.54979 0.12222 0.52383 0.0
C822 C 0.50705 0.17847 0.39524 0.0
C823 C 0.50867 0.10377 0.57825 0.0
C824 C 0.43703 0.15078 0.54143 0.0
C825 C 0.42414 0.13343 0.49472 0.0
C826 C 0.46431 0.15437 0.53752 0.0
C827 C 0.479 0.14005 0.48625 0.0
C828 C 0.46601 0.12313 0.4376 0.0
C829 C 0.43874 0.12014 0.44218 0.0
C830 C 0.4775 0.17284 0.58961 0.0
C831 C 0.48102 0.10736 0.38249 0.0
H832 H 0.55941 0.1703 0.39939 0.0
H833 H 0.56053 0.1078 0.55502 0.0
H834 H 0.49538 0.1681 0.35373 0.0
H835 H 0.4931 0.18981 0.42885 0.0
H836 H 0.52053 0.19241 0.36786 0.0
H837 H 0.5227 0.092 0.61075 0.0
H838 H 0.49526 0.11428 0.61532 0.0
H839 H 0.49654 0.09014 0.54574 0.0
H840 H 0.42589 0.1613 0.58181 0.0
H841 H 0.42898 0.10672 0.40574 0.0
H842 H 0.49046 0.1867 0.5603 0.0
H843 H 0.49005 0.16149 0.6272 0.0
H844 H 0.4631 0.18431 0.62159 0.0
H845 H 0.49344 0.12049 0.34924 0.0
H846 H 0.46785 0.0961 0.34629 0.0
H847 H 0.4943 0.09334 0.41018 0.0
C848 C 0.87988 0.55214 0.7977 0.0
C849 C 0.86467 0.56706 0.74987 0.0
C850 C 0.87847 0.52469 0.7982 0.0
C851 C 0.86116 0.51183 0.75032 0.0
C852 C 0.84488 0.52677 0.70413 0.0
C853 C 0.84697 0.55426 0.70403 0.0
C854 C 0.89641 0.50943 0.84764 0.0
C855 C 0.82588 0.5137 0.65322 0.0
C856 C 0.88183 0.44335 0.69554 0.0
C857 C 0.86724 0.42768 0.74298 0.0
C858 C 0.87948 0.47073 0.69617 0.0
C859 C 0.86184 0.48276 0.74479 0.0
C860 C 0.84633 0.46706 0.79105 0.0
C861 C 0.84937 0.43966 0.79002 0.0
C862 C 0.89664 0.48683 0.64667 0.0
C863 C 0.82703 0.47923 0.84277 0.0
H864 H 0.89373 0.56184 0.833 0.0
H865 H 0.835 0.56568 0.66736 0.0
H866 H 0.88494 0.49534 0.8805 0.0
H867 H 0.91055 0.49784 0.81522 0.0
H868 H 0.90765 0.52242 0.88439 0.0
H869 H 0.81278 0.52809 0.62623 0.0
H870 H 0.83692 0.50283 0.61134 0.0
H871 H 0.81364 0.49919 0.68252 0.0
H872 H 0.89581 0.43428 0.65936 0.0
H873 H 0.83787 0.42765 0.82639 0.0
H874 H 0.91014 0.49917 0.679 0.0
H875 H 0.88444 0.50026 0.61367 0.0
H876 H 0.90855 0.47439 0.61004 0.0
H877 H 0.83774 0.49076 0.88395 0.0
H878 H 0.81486 0.46425 0.87058 0.0
H879 H 0.81386 0.49303 0.81387 0.0
C880 C 0.55315 0.87812 0.96865 0.0
C881 C 0.56834 0.86414 0.0186 0.0
C882 C 0.52579 0.87578 0.96752 0.0
C883 C 0.51326 0.85884 0.01711 0.0
C884 C 0.52845 0.84415 0.06659 0.0
C885 C 0.55586 0.8471 0.06709 0.0
C886 C 0.51025 0.892 0.91436 0.0
C887 C 0.51574 0.82562 0.11953 0.0
C888 C 0.44242 0.87657 0.05433 0.0
C889 C 0.42912 0.8605 0.00512 0.0
C890 C 0.46979 0.87539 0.06113 0.0
C891 C 0.48416 0.85748 0.01835 0.0
C892 C 0.47076 0.84018 0.97159 0.0
C893 C 0.44338 0.84201 0.96517 0.0
C894 C 0.48341 0.89432 0.1112 0.0
C895 C 0.48542 0.82055 0.92596 0.0
H896 H 0.56257 0.8915 0.9314 0.0
H897 H 0.56749 0.83614 0.10559 0.0
H898 H 0.49789 0.87905 0.8805 0.0
H899 H 0.49688 0.90547 0.94361 0.0
H900 H 0.52305 0.90388 0.87857 0.0
H901 H 0.53041 0.81453 0.1517 0.0
H902 H 0.50297 0.83681 0.15685 0.0
H903 H 0.50303 0.81142 0.09072 0.0
H904 H 0.43158 0.89086 0.08564 0.0
H905 H 0.43324 0.82932 0.92758 0.0
H906 H 0.4951 0.90853 0.07926 0.0
H907 H 0.49721 0.88368 0.14696 0.0
H908 H 0.46931 0.90546 0.14502 0.0
H909 H 0.49678 0.83106 0.88397 0.0
H910 H 0.47199 0.80646 0.89908 0.0
H911 H 0.49964 0.80937 0.95923 0.0
loop_
_geom_bond_atom_site_label_1
_geom_bond_atom_site_label_2
_geom_bond_distance
_geom_bond_site_symmetry_2
_ccdc_geom_bond_type
Co0 O3 1.970 . S
Co0 N17 1.989 . S
Co0 O25 1.967 . S
Co0 O32 1.920 . S
Co1 O4 1.966 . S
Co1 N10 2.022 . S
Co1 N18 1.993 . S
Co1 O26 1.941 . S
C2 O3 1.258 . S
C2 O4 1.263 . S
O3 Co0 1.970 . S
O3 C2 1.258 . S
O4 Co1 1.966 . S
O4 C2 1.263 . S
C5 O6 1.235 . S
C5 O32 1.289 . S
O6 C5 1.235 . S
C7 C9 1.400 . S
C7 N10 1.351 . S
C7 C12 1.501 . S
C8 C9 1.387 . S
C8 N11 1.341 . S
C9 C7 1.400 . S
C9 C8 1.387 . S
N10 Co1 2.022 . S
N10 C7 1.351 . S
N10 N11 1.365 . S
N11 C8 1.341 . S
N11 N10 1.365 . S
N11 H31 0.862 . S
C12 C7 1.501 . S
C12 H13 0.961 . S
C12 H14 0.961 . S
C12 H15 0.960 . S
H13 C12 0.961 . S
H14 C12 0.961 . S
H15 C12 0.960 . S
C16 N17 1.342 . S
C16 C20 1.401 . S
C16 C21 1.499 . S
N17 Co0 1.989 . S
N17 C16 1.342 . S
N17 N18 1.388 . S
N18 Co1 1.993 . S
N18 N17 1.388 . S
N18 C19 1.346 . S
C19 N18 1.346 . S
C19 C20 1.396 . S
C19 C29 1.510 . S
C20 C16 1.401 . S
C20 C19 1.396 . S
C21 C16 1.499 . S
C21 H22 0.959 . S
C21 H23 0.960 . S
C21 H24 0.961 . S
H22 C21 0.959 . S
H23 C21 0.960 . S
H24 C21 0.961 . S
O25 Co0 1.967 . S
O25 C33 1.258 . S
O26 Co1 1.941 . S
O26 C33 1.266 . S
H27 C29 0.959 . S
H28 C29 0.961 . S
C29 C19 1.510 . S
C29 H27 0.959 . S
C29 H28 0.961 . S
C29 H30 0.960 . S
H30 C29 0.960 . S
H31 N11 0.862 . S
O32 Co0 1.920 . S
O32 C5 1.289 . S
C33 O25 1.258 . S
C33 O26 1.266 . S
Co34 O37 1.970 . S
Co34 N51 1.989 . S
Co34 O59 1.967 . S
Co34 O66 1.920 . S
Co35 O38 1.966 . S
Co35 N44 2.022 . S
Co35 N52 1.993 . S
Co35 O60 1.941 . S
C36 O37 1.258 . S
C36 O38 1.263 . S
O37 Co34 1.970 . S
O37 C36 1.258 . S
O38 Co35 1.966 . S
O38 C36 1.263 . S
C39 O40 1.235 . S
C39 O66 1.289 . S
O40 C39 1.235 . S
C41 C43 1.400 . S
C41 N44 1.351 . S
C41 C46 1.501 . S
C42 C43 1.387 . S
C42 N45 1.341 . S
C43 C41 1.400 . S
C43 C42 1.387 . S
N44 Co35 2.022 . S
N44 C41 1.351 . S
N44 N45 1.365 . S
N45 C42 1.341 . S
N45 N44 1.365 . S
N45 H65 0.862 . S
C46 C41 1.501 . S
C46 H47 0.961 . S
C46 H48 0.961 . S
C46 H49 0.960 . S
H47 C46 0.961 . S
H48 C46 0.961 . S
H49 C46 0.960 . S
C50 N51 1.342 . S
C50 C54 1.401 . S
C50 C55 1.499 . S
N51 Co34 1.989 . S
N51 C50 1.342 . S
N51 N52 1.388 . S
N52 Co35 1.993 . S
N52 N51 1.388 . S
N52 C53 1.346 . S
C53 N52 1.346 . S
C53 C54 1.396 . S
C53 C63 1.510 . S
C54 C50 1.401 . S
C54 C53 1.396 . S
C55 C50 1.499 . S
C55 H56 0.959 . S
C55 H57 0.960 . S
C55 H58 0.961 . S
H56 C55 0.959 . S
H57 C55 0.960 . S
H58 C55 0.961 . S
O59 Co34 1.967 . S
O59 C67 1.258 . S
O60 Co35 1.941 . S
O60 C67 1.266 . S
H61 C63 0.959 . S
H62 C63 0.961 . S
C63 C53 1.510 . S
C63 H61 0.959 . S
C63 H62 0.961 . S
C63 H64 0.960 . S
H64 C63 0.960 . S
H65 N45 0.862 . S
O66 Co34 1.920 . S
O66 C39 1.289 . S
C67 O59 1.258 . S
C67 O60 1.266 . S
Co68 O71 1.970 . S
Co68 N85 1.989 . S
Co68 O93 1.967 . S
Co68 O100 1.920 . S
Co69 O72 1.966 . S
Co69 N78 2.022 . S
Co69 N86 1.993 . S
Co69 O94 1.941 . S
C70 O71 1.258 . S
C70 O72 1.263 . S
O71 Co68 1.970 . S
O71 C70 1.258 . S
O72 Co69 1.966 . S
O72 C70 1.263 . S
C73 O74 1.235 . S
C73 O100 1.289 . S
O74 C73 1.235 . S
C75 C77 1.400 1_556 S
C75 N78 1.351 . S
C75 C80 1.501 . S
C76 C77 1.387 . S
C76 N79 1.341 1_554 S
C77 C75 1.400 1_554 S
C77 C76 1.387 . S
N78 Co69 2.022 . S
N78 C75 1.351 . S
N78 N79 1.365 . S
N79 C76 1.341 1_556 S
N79 N78 1.365 . S
N79 H99 0.862 . S
C80 C75 1.501 . S
C80 H81 0.961 . S
C80 H82 0.961 . S
C80 H83 0.960 . S
H81 C80 0.961 . S
H82 C80 0.961 . S
H83 C80 0.960 . S
C84 N85 1.342 . S
C84 C88 1.401 . S
C84 C89 1.499 . S
N85 Co68 1.989 . S
N85 C84 1.342 . S
N85 N86 1.388 . S
N86 Co69 1.993 . S
N86 N85 1.388 . S
N86 C87 1.346 . S
C87 N86 1.346 . S
C87 C88 1.396 . S
C87 C97 1.510 . S
C88 C84 1.401 . S
C88 C87 1.396 . S
C89 C84 1.499 . S
C89 H90 0.959 . S
C89 H91 0.960 . S
C89 H92 0.961 . S
H90 C89 0.959 . S
H91 C89 0.960 . S
H92 C89 0.961 . S
O93 Co68 1.967 . S
O93 C101 1.258 . S
O94 Co69 1.941 . S
O94 C101 1.266 . S
H95 C97 0.959 . S
H96 C97 0.961 . S
C97 C87 1.510 . S
C97 H95 0.959 . S
C97 H96 0.961 . S
C97 H98 0.960 . S
H98 C97 0.960 . S
H99 N79 0.862 . S
O100 Co68 1.920 . S
O100 C73 1.289 . S
C101 O93 1.258 . S
C101 O94 1.266 . S
Co102 O105 1.970 . S
Co102 N119 1.989 . S
Co102 O127 1.967 . S
Co102 O134 1.920 . S
Co103 O106 1.966 . S
Co103 N112 2.022 . S
Co103 N120 1.993 . S
Co103 O128 1.941 . S
C104 O105 1.258 . S
C104 O106 1.263 1_556 S
O105 Co102 1.970 . S
O105 C104 1.258 . S
O106 Co103 1.966 . S
O106 C104 1.263 1_554 S
C107 O108 1.235 . S
C107 O134 1.289 . S
O108 C107 1.235 . S
C109 C111 1.400 . S
C109 N112 1.351 . S
C109 C114 1.501 . S
C110 C111 1.387 . S
C110 N113 1.341 . S
C111 C109 1.400 . S
C111 C110 1.387 . S
N112 Co103 2.022 . S
N112 C109 1.351 . S
N112 N113 1.365 . S
N113 C110 1.341 . S
N113 N112 1.365 . S
N113 H133 0.862 . S
C114 C109 1.501 . S
C114 H115 0.961 . S
C114 H116 0.961 . S
C114 H117 0.960 . S
H115 C114 0.961 . S
H116 C114 0.961 . S
H117 C114 0.960 . S
C118 N119 1.342 . S
C118 C122 1.401 1_556 S
C118 C123 1.499 . S
N119 Co102 1.989 . S
N119 C118 1.342 . S
N119 N120 1.388 1_556 S
N120 Co103 1.993 . S
N120 N119 1.388 1_554 S
N120 C121 1.346 . S
C121 N120 1.346 . S
C121 C122 1.396 . S
C121 C131 1.510 . S
C122 C118 1.401 1_554 S
C122 C121 1.396 . S
C123 C118 1.499 . S
C123 H124 0.959 . S
C123 H125 0.960 . S
C123 H126 0.961 . S
H124 C123 0.959 . S
H125 C123 0.960 . S
H126 C123 0.961 . S
O127 Co102 1.967 . S
O127 C135 1.258 . S
O128 Co103 1.941 . S
O128 C135 1.266 1_554 S
H129 C131 0.959 . S
H130 C131 0.961 . S
C131 C121 1.510 . S
C131 H129 0.959 . S
C131 H130 0.961 . S
C131 H132 0.960 . S
H132 C131 0.960 . S
H133 N113 0.862 . S
O134 Co102 1.920 . S
O134 C107 1.289 . S
C135 O127 1.258 . S
C135 O128 1.266 1_556 S
Co136 O139 1.970 . S
Co136 N153 1.989 . S
Co136 O161 1.967 . S
Co136 O168 1.920 . S
Co137 O140 1.966 . S
Co137 N146 2.022 . S
Co137 N154 1.993 . S
Co137 O162 1.941 . S
C138 O139 1.258 . S
C138 O140 1.263 . S
O139 Co136 1.970 . S
O139 C138 1.258 . S
O140 Co137 1.966 . S
O140 C138 1.263 . S
C141 O142 1.235 . S
C141 O168 1.289 . S
O142 C141 1.235 . S
C143 C145 1.400 1_554 S
C143 N146 1.351 . S
C143 C148 1.501 . S
C144 C145 1.387 . S
C144 N147 1.341 1_556 S
C145 C143 1.400 1_556 S
C145 C144 1.387 . S
N146 Co137 2.022 . S
N146 C143 1.351 . S
N146 N147 1.365 . S
N147 C144 1.341 1_554 S
N147 N146 1.365 . S
N147 H167 0.862 . S
C148 C143 1.501 . S
C148 H149 0.961 . S
C148 H150 0.961 . S
C148 H151 0.960 . S
H149 C148 0.961 . S
H150 C148 0.961 . S
H151 C148 0.960 . S
C152 N153 1.342 . S
C152 C156 1.401 . S
C152 C157 1.499 . S
N153 Co136 1.989 . S
N153 C152 1.342 . S
N153 N154 1.388 . S
N154 Co137 1.993 . S
N154 N153 1.388 . S
N154 C155 1.346 . S
C155 N154 1.346 . S
C155 C156 1.396 . S
C155 C165 1.510 . S
C156 C152 1.401 . S
C156 C155 1.396 . S
C157 C152 1.499 . S
C157 H158 0.959 . S
C157 H159 0.960 . S
C157 H160 0.961 . S
H158 C157 0.959 . S
H159 C157 0.960 . S
H160 C157 0.961 . S
O161 Co136 1.967 . S
O161 C169 1.258 . S
O162 Co137 1.941 . S
O162 C169 1.266 . S
H163 C165 0.959 . S
H164 C165 0.961 . S
C165 C155 1.510 . S
C165 H163 0.959 . S
C165 H164 0.961 . S
C165 H166 0.960 . S
H166 C165 0.960 . S
H167 N147 0.862 . S
O168 Co136 1.920 . S
O168 C141 1.289 . S
C169 O161 1.258 . S
C169 O162 1.266 . S
Co170 O173 1.970 . S
Co170 N187 1.989 . S
Co170 O195 1.967 . S
Co170 O202 1.920 . S
Co171 O174 1.966 . S
Co171 N180 2.022 . S
Co171 N188 1.993 . S
Co171 O196 1.941 . S
C172 O173 1.258 . S
C172 O174 1.263 . S
O173 Co170 1.970 . S
O173 C172 1.258 . S
O174 Co171 1.966 . S
O174 C172 1.263 . S
C175 O176 1.235 . S
C175 O202 1.289 . S
O176 C175 1.235 . S
C177 C179 1.400 . S
C177 N180 1.351 . S
C177 C182 1.501 . S
C178 C179 1.387 . S
C178 N181 1.341 . S
C179 C177 1.400 . S
C179 C178 1.387 . S
N180 Co171 2.022 . S
N180 C177 1.351 . S
N180 N181 1.365 . S
N181 C178 1.341 . S
N181 N180 1.365 . S
N181 H201 0.862 . S
C182 C177 1.501 . S
C182 H183 0.961 . S
C182 H184 0.961 . S
C182 H185 0.960 . S
H183 C182 0.961 . S
H184 C182 0.961 . S
H185 C182 0.960 . S
C186 N187 1.342 . S
C186 C190 1.401 . S
C186 C191 1.499 . S
N187 Co170 1.989 . S
N187 C186 1.342 . S
N187 N188 1.388 . S
N188 Co171 1.993 . S
N188 N187 1.388 . S
N188 C189 1.346 . S
C189 N188 1.346 . S
C189 C190 1.396 . S
C189 C199 1.510 . S
C190 C186 1.401 . S
C190 C189 1.396 . S
C191 C186 1.499 . S
C191 H192 0.959 . S
C191 H193 0.960 . S
C191 H194 0.961 . S
H192 C191 0.959 . S
H193 C191 0.960 . S
H194 C191 0.961 . S
O195 Co170 1.967 . S
O195 C203 1.258 . S
O196 Co171 1.941 . S
O196 C203 1.266 . S
H197 C199 0.959 . S
H198 C199 0.961 . S
C199 C189 1.510 . S
C199 H197 0.959 . S
C199 H198 0.961 . S
C199 H200 0.960 . S
H200 C199 0.960 . S
H201 N181 0.862 . S
O202 Co170 1.920 . S
O202 C175 1.289 . S
C203 O195 1.258 . S
C203 O196 1.266 . S
Co204 O207 1.970 . S
Co204 N221 1.989 . S
Co204 O229 1.967 . S
Co204 O236 1.920 . S
Co205 O208 1.966 . S
Co205 N214 2.022 . S
Co205 N222 1.993 . S
Co205 O230 1.941 . S
C206 O207 1.258 . S
C206 O208 1.263 . S
O207 Co204 1.970 . S
O207 C206 1.258 . S
O208 Co205 1.966 . S
O208 C206 1.263 . S
C209 O210 1.235 . S
C209 O236 1.289 . S
O210 C209 1.235 . S
C211 C213 1.400 . S
C211 N214 1.351 . S
C211 C216 1.501 . S
C212 C213 1.387 . S
C212 N215 1.341 . S
C213 C211 1.400 . S
C213 C212 1.387 . S
N214 Co205 2.022 . S
N214 C211 1.351 . S
N214 N215 1.365 . S
N215 C212 1.341 . S
N215 N214 1.365 . S
N215 H235 0.862 . S
C216 C211 1.501 . S
C216 H217 0.961 . S
C216 H218 0.961 . S
C216 H219 0.960 . S
H217 C216 0.961 . S
H218 C216 0.961 . S
H219 C216 0.960 . S
C220 N221 1.342 . S
C220 C224 1.401 . S
C220 C225 1.499 . S
N221 Co204 1.989 . S
N221 C220 1.342 . S
N221 N222 1.388 . S
N222 Co205 1.993 . S
N222 N221 1.388 . S
N222 C223 1.346 . S
C223 N222 1.346 . S
C223 C224 1.396 . S
C223 C233 1.510 . S
C224 C220 1.401 . S
C224 C223 1.396 . S
C225 C220 1.499 . S
C225 H226 0.959 . S
C225 H227 0.960 . S
C225 H228 0.961 . S
H226 C225 0.959 . S
H227 C225 0.960 . S
H228 C225 0.961 . S
O229 Co204 1.967 . S
O229 C237 1.258 . S
O230 Co205 1.941 . S
O230 C237 1.266 . S
H231 C233 0.959 . S
H232 C233 0.961 . S
C233 C223 1.510 . S
C233 H231 0.959 . S
C233 H232 0.961 . S
C233 H234 0.960 . S
H234 C233 0.960 . S
H235 N215 0.862 . S
O236 Co204 1.920 . S
O236 C209 1.289 . S
C237 O229 1.258 . S
C237 O230 1.266 . S
Co238 O241 1.970 . S
Co238 N255 1.989 . S
Co238 O263 1.967 . S
Co238 O270 1.920 . S
Co239 O242 1.966 . S
Co239 N248 2.022 . S
Co239 N256 1.993 . S
Co239 O264 1.941 . S
C240 O241 1.258 . S
C240 O242 1.263 1_554 S
O241 Co238 1.970 . S
O241 C240 1.258 . S
O242 Co239 1.966 . S
O242 C240 1.263 1_556 S
C243 O244 1.235 . S
C243 O270 1.289 . S
O244 C243 1.235 . S
C245 C247 1.400 . S
C245 N248 1.351 . S
C245 C250 1.501 . S
C246 C247 1.387 . S
C246 N249 1.341 . S
C247 C245 1.400 . S
C247 C246 1.387 . S
N248 Co239 2.022 . S
N248 C245 1.351 . S
N248 N249 1.365 . S
N249 C246 1.341 . S
N249 N248 1.365 . S
N249 H269 0.862 . S
C250 C245 1.501 . S
C250 H251 0.961 . S
C250 H252 0.961 . S
C250 H253 0.960 . S
H251 C250 0.961 . S
H252 C250 0.961 . S
H253 C250 0.960 . S
C254 N255 1.342 . S
C254 C258 1.401 1_554 S
C254 C259 1.499 . S
N255 Co238 1.989 . S
N255 C254 1.342 . S
N255 N256 1.388 1_554 S
N256 Co239 1.993 . S
N256 N255 1.388 1_556 S
N256 C257 1.346 . S
C257 N256 1.346 . S
C257 C258 1.396 . S
C257 C267 1.510 . S
C258 C254 1.401 1_556 S
C258 C257 1.396 . S
C259 C254 1.499 . S
C259 H260 0.959 . S
C259 H261 0.960 . S
C259 H262 0.961 . S
H260 C259 0.959 . S
H261 C259 0.960 . S
H262 C259 0.961 . S
O263 Co238 1.967 . S
O263 C271 1.258 . S
O264 Co239 1.941 . S
O264 C271 1.266 1_556 S
H265 C267 0.959 . S
H266 C267 0.961 . S
C267 C257 1.510 . S
C267 H265 0.959 . S
C267 H266 0.961 . S
C267 H268 0.960 . S
H268 C267 0.960 . S
H269 N249 0.862 . S
O270 Co238 1.920 . S
O270 C243 1.289 . S
C271 O263 1.258 . S
C271 O264 1.266 1_554 S
C272 C273 1.391 . S
C272 C274 1.394 . S
C272 H288 0.931 . S
C273 C272 1.391 . S
C273 C277 1.376 . S
C274 C272 1.394 . S
C274 C275 1.369 . S
C274 C278 1.531 . S
C275 C274 1.369 . S
C275 C276 1.410 . S
C275 C283 1.503 . S
C276 C275 1.410 . S
C276 C277 1.392 . S
C276 C279 1.511 . S
C277 C273 1.376 . S
C277 C276 1.392 . S
C277 H289 0.929 . S
C278 C274 1.531 . S
C278 H290 0.960 . S
C278 H291 0.962 . S
C278 H292 0.960 . S
C279 C276 1.511 . S
C279 H293 0.961 . S
C279 H294 0.961 . S
C279 H295 0.961 . S
C280 C281 1.370 . S
C280 C282 1.363 . S
C280 H296 0.931 . S
C281 C280 1.370 . S
C281 C285 1.408 . S
C282 C280 1.363 . S
C282 C283 1.370 . S
C282 C286 1.524 . S
C283 C275 1.503 . S
C283 C282 1.370 . S
C283 C284 1.403 . S
C284 C283 1.403 . S
C284 C285 1.404 . S
C284 C287 1.539 . S
C285 C281 1.408 . S
C285 C284 1.404 . S
C285 H297 0.930 . S
C286 C282 1.524 . S
C286 H298 0.956 . S
C286 H299 0.961 . S
C286 H300 0.961 . S
C287 C284 1.539 . S
C287 H301 0.958 . S
C287 H302 0.961 . S
C287 H303 0.960 . S
H288 C272 0.931 . S
H289 C277 0.929 . S
H290 C278 0.960 . S
H291 C278 0.962 . S
H292 C278 0.960 . S
H293 C279 0.961 . S
H294 C279 0.961 . S
H295 C279 0.961 . S
H296 C280 0.931 . S
H297 C285 0.930 . S
H298 C286 0.956 . S
H299 C286 0.961 . S
H300 C286 0.961 . S
H301 C287 0.958 . S
H302 C287 0.961 . S
H303 C287 0.960 . S
C304 C305 1.391 . S
C304 C306 1.394 . S
C304 H320 0.931 . S
C305 C304 1.391 . S
C305 C309 1.376 . S
C306 C304 1.394 . S
C306 C307 1.369 . S
C306 C310 1.531 . S
C307 C306 1.369 . S
C307 C308 1.410 . S
C307 C315 1.503 . S
C308 C307 1.410 . S
C308 C309 1.392 . S
C308 C311 1.511 . S
C309 C305 1.376 . S
C309 C308 1.392 . S
C309 H321 0.929 . S
C310 C306 1.531 . S
C310 H322 0.960 . S
C310 H323 0.962 . S
C310 H324 0.960 . S
C311 C308 1.511 . S
C311 H325 0.961 . S
C311 H326 0.961 . S
C311 H327 0.961 . S
C312 C313 1.370 . S
C312 C314 1.363 . S
C312 H328 0.931 . S
C313 C312 1.370 . S
C313 C317 1.408 . S
C314 C312 1.363 . S
C314 C315 1.370 . S
C314 C318 1.524 . S
C315 C307 1.503 . S
C315 C314 1.370 . S
C315 C316 1.403 . S
C316 C315 1.403 . S
C316 C317 1.404 . S
C316 C319 1.539 . S
C317 C313 1.408 . S
C317 C316 1.404 . S
C317 H329 0.930 . S
C318 C314 1.524 . S
C318 H330 0.956 . S
C318 H331 0.961 . S
C318 H332 0.961 . S
C319 C316 1.539 . S
C319 H333 0.958 . S
C319 H334 0.961 . S
C319 H335 0.960 . S
H320 C304 0.931 . S
H321 C309 0.929 . S
H322 C310 0.960 . S
H323 C310 0.962 . S
H324 C310 0.960 . S
H325 C311 0.961 . S
H326 C311 0.961 . S
H327 C311 0.961 . S
H328 C312 0.931 . S
H329 C317 0.930 . S
H330 C318 0.956 . S
H331 C318 0.961 . S
H332 C318 0.961 . S
H333 C319 0.958 . S
H334 C319 0.961 . S
H335 C319 0.960 . S
C336 C337 1.391 . S
C336 C338 1.394 . S
C336 H352 0.931 . S
C337 C336 1.391 . S
C337 C341 1.376 . S
C338 C336 1.394 . S
C338 C339 1.369 . S
C338 C342 1.531 . S
C339 C338 1.369 . S
C339 C340 1.410 . S
C339 C347 1.503 . S
C340 C339 1.410 . S
C340 C341 1.392 . S
C340 C343 1.511 . S
C341 C337 1.376 . S
C341 C340 1.392 . S
C341 H353 0.929 . S
C342 C338 1.531 . S
C342 H354 0.960 . S
C342 H355 0.962 . S
C342 H356 0.960 . S
C343 C340 1.511 . S
C343 H357 0.961 . S
C343 H358 0.961 . S
C343 H359 0.961 . S
C344 C345 1.370 . S
C344 C346 1.363 . S
C344 H360 0.931 1_556 S
C345 C344 1.370 . S
C345 C349 1.408 . S
C346 C344 1.363 . S
C346 C347 1.370 . S
C346 C350 1.524 . S
C347 C339 1.503 . S
C347 C346 1.370 . S
C347 C348 1.403 . S
C348 C347 1.403 . S
C348 C349 1.404 . S
C348 C351 1.539 . S
C349 C345 1.408 . S
C349 C348 1.404 . S
C349 H361 0.930 . S
C350 C346 1.524 . S
C350 H362 0.956 . S
C350 H363 0.961 . S
C350 H364 0.961 1_556 S
C351 C348 1.539 . S
C351 H365 0.958 . S
C351 H366 0.961 . S
C351 H367 0.960 . S
H352 C336 0.931 . S
H353 C341 0.929 . S
H354 C342 0.960 . S
H355 C342 0.962 . S
H356 C342 0.960 . S
H357 C343 0.961 . S
H358 C343 0.961 . S
H359 C343 0.961 . S
H360 C344 0.931 1_554 S
H361 C349 0.930 . S
H362 C350 0.956 . S
H363 C350 0.961 . S
H364 C350 0.961 1_554 S
H365 C351 0.958 . S
H366 C351 0.961 . S
H367 C351 0.960 . S
C368 C369 1.391 . S
C368 C370 1.394 . S
C368 H384 0.931 . S
C369 C368 1.391 . S
C369 C373 1.376 . S
C370 C368 1.394 . S
C370 C371 1.369 . S
C370 C374 1.531 . S
C371 C370 1.369 . S
C371 C372 1.410 . S
C371 C379 1.503 . S
C372 C371 1.410 . S
C372 C373 1.392 . S
C372 C375 1.511 . S
C373 C369 1.376 . S
C373 C372 1.392 . S
C373 H385 0.929 . S
C374 C370 1.531 . S
C374 H386 0.960 . S
C374 H387 0.962 . S
C374 H388 0.960 . S
C375 C372 1.511 . S
C375 H389 0.961 1_554 S
C375 H390 0.961 1_554 S
C375 H391 0.961 . S
C376 C377 1.370 . S
C376 C378 1.363 . S
C376 H392 0.931 . S
C377 C376 1.370 . S
C377 C381 1.408 . S
C378 C376 1.363 . S
C378 C379 1.370 . S
C378 C382 1.524 . S
C379 C371 1.503 . S
C379 C378 1.370 . S
C379 C380 1.403 . S
C380 C379 1.403 . S
C380 C381 1.404 . S
C380 C383 1.539 . S
C381 C377 1.408 . S
C381 C380 1.404 . S
C381 H393 0.930 . S
C382 C378 1.524 . S
C382 H394 0.956 . S
C382 H395 0.961 . S
C382 H396 0.961 . S
C383 C380 1.539 . S
C383 H397 0.958 . S
C383 H398 0.961 . S
C383 H399 0.960 . S
H384 C368 0.931 . S
H385 C373 0.929 . S
H386 C374 0.960 . S
H387 C374 0.962 . S
H388 C374 0.960 . S
H389 C375 0.961 1_556 S
H390 C375 0.961 1_556 S
H391 C375 0.961 . S
H392 C376 0.931 . S
H393 C381 0.930 . S
H394 C382 0.956 . S
H395 C382 0.961 . S
H396 C382 0.961 . S
H397 C383 0.958 . S
H398 C383 0.961 . S
H399 C383 0.960 . S
C400 C401 1.391 . S
C400 C402 1.394 . S
C400 H416 0.931 . S
C401 C400 1.391 . S
C401 C405 1.376 . S
C402 C400 1.394 . S
C402 C403 1.369 . S
C402 C406 1.531 . S
C403 C402 1.369 . S
C403 C404 1.410 . S
C403 C411 1.503 . S
C404 C403 1.410 . S
C404 C405 1.392 . S
C404 C407 1.511 . S
C405 C401 1.376 . S
C405 C404 1.392 . S
C405 H417 0.929 . S
C406 C402 1.531 . S
C406 H418 0.960 . S
C406 H419 0.962 . S
C406 H420 0.960 . S
C407 C404 1.511 . S
C407 H421 0.961 . S
C407 H422 0.961 . S
C407 H423 0.961 . S
C408 C409 1.370 . S
C408 C410 1.363 . S
C408 H424 0.931 . S
C409 C408 1.370 . S
C409 C413 1.408 . S
C410 C408 1.363 . S
C410 C411 1.370 . S
C410 C414 1.524 . S
C411 C403 1.503 . S
C411 C410 1.370 . S
C411 C412 1.403 . S
C412 C411 1.403 . S
C412 C413 1.404 . S
C412 C415 1.539 . S
C413 C409 1.408 . S
C413 C412 1.404 . S
C413 H425 0.930 . S
C414 C410 1.524 . S
C414 H426 0.956 . S
C414 H427 0.961 . S
C414 H428 0.961 . S
C415 C412 1.539 . S
C415 H429 0.958 . S
C415 H430 0.961 . S
C415 H431 0.960 . S
H416 C400 0.931 . S
H417 C405 0.929 . S
H418 C406 0.960 . S
H419 C406 0.962 . S
H420 C406 0.960 . S
H421 C407 0.961 . S
H422 C407 0.961 . S
H423 C407 0.961 . S
H424 C408 0.931 . S
H425 C413 0.930 . S
H426 C414 0.956 . S
H427 C414 0.961 . S
H428 C414 0.961 . S
H429 C415 0.958 . S
H430 C415 0.961 . S
H431 C415 0.960 . S
C432 C433 1.391 . S
C432 C434 1.394 . S
C432 H448 0.931 . S
C433 C432 1.391 . S
C433 C437 1.376 . S
C434 C432 1.394 . S
C434 C435 1.369 . S
C434 C438 1.531 . S
C435 C434 1.369 . S
C435 C436 1.410 . S
C435 C443 1.503 1_554 S
C436 C435 1.410 . S
C436 C437 1.392 . S
C436 C439 1.511 . S
C437 C433 1.376 . S
C437 C436 1.392 . S
C437 H449 0.929 . S
C438 C434 1.531 . S
C438 H450 0.960 1_554 S
C438 H451 0.962 . S
C438 H452 0.960 . S
C439 C436 1.511 . S
C439 H453 0.961 . S
C439 H454 0.961 . S
C439 H455 0.961 . S
C440 C441 1.370 . S
C440 C442 1.363 . S
C440 H456 0.931 . S
C441 C440 1.370 . S
C441 C445 1.408 . S
C442 C440 1.363 . S
C442 C443 1.370 . S
C442 C446 1.524 1_556 S
C443 C435 1.503 1_556 S
C443 C442 1.370 . S
C443 C444 1.403 . S
C444 C443 1.403 . S
C444 C445 1.404 . S
C444 C447 1.539 . S
C445 C441 1.408 . S
C445 C444 1.404 . S
C445 H457 0.930 . S
C446 C442 1.524 1_554 S
C446 H458 0.956 . S
C446 H459 0.961 . S
C446 H460 0.961 . S
C447 C444 1.539 . S
C447 H461 0.958 . S
C447 H462 0.961 . S
C447 H463 0.960 1_556 S
H448 C432 0.931 . S
H449 C437 0.929 . S
H450 C438 0.960 1_556 S
H451 C438 0.962 . S
H452 C438 0.960 . S
H453 C439 0.961 . S
H454 C439 0.961 . S
H455 C439 0.961 . S
H456 C440 0.931 . S
H457 C445 0.930 . S
H458 C446 0.956 . S
H459 C446 0.961 . S
H460 C446 0.961 . S
H461 C447 0.958 . S
H462 C447 0.961 . S
H463 C447 0.960 1_554 S
C464 C465 1.391 . S
C464 C466 1.394 . S
C464 H480 0.931 . S
C465 C464 1.391 . S
C465 C469 1.376 . S
C466 C464 1.394 . S
C466 C467 1.369 . S
C466 C470 1.531 . S
C467 C466 1.369 . S
C467 C468 1.410 . S
C467 C475 1.503 . S
C468 C467 1.410 . S
C468 C469 1.392 . S
C468 C471 1.511 . S
C469 C465 1.376 . S
C469 C468 1.392 . S
C469 H481 0.929 . S
C470 C466 1.531 . S
C470 H482 0.960 . S
C470 H483 0.962 . S
C470 H484 0.960 . S
C471 C468 1.511 . S
C471 H485 0.961 . S
C471 H486 0.961 . S
C471 H487 0.961 . S
C472 C473 1.370 . S
C472 C474 1.363 . S
C472 H488 0.931 . S
C473 C472 1.370 . S
C473 C477 1.408 . S
C474 C472 1.363 . S
C474 C475 1.370 . S
C474 C478 1.524 . S
C475 C467 1.503 . S
C475 C474 1.370 . S
C475 C476 1.403 . S
C476 C475 1.403 . S
C476 C477 1.404 . S
C476 C479 1.539 . S
C477 C473 1.408 . S
C477 C476 1.404 . S
C477 H489 0.930 . S
C478 C474 1.524 . S
C478 H490 0.956 . S
C478 H491 0.961 . S
C478 H492 0.961 . S
C479 C476 1.539 . S
C479 H493 0.958 . S
C479 H494 0.961 . S
C479 H495 0.960 . S
H480 C464 0.931 . S
H481 C469 0.929 . S
H482 C470 0.960 . S
H483 C470 0.962 . S
H484 C470 0.960 . S
H485 C471 0.961 . S
H486 C471 0.961 . S
H487 C471 0.961 . S
H488 C472 0.931 . S
H489 C477 0.930 . S
H490 C478 0.956 . S
H491 C478 0.961 . S
H492 C478 0.961 . S
H493 C479 0.958 . S
H494 C479 0.961 . S
H495 C479 0.960 . S
C496 C497 1.391 . S
C496 C498 1.394 . S
C496 H512 0.931 . S
C497 C496 1.391 . S
C497 C501 1.376 . S
C498 C496 1.394 . S
C498 C499 1.369 . S
C498 C502 1.531 . S
C499 C498 1.369 . S
C499 C500 1.410 . S
C499 C507 1.503 . S
C500 C499 1.410 . S
C500 C501 1.392 . S
C500 C503 1.511 . S
C501 C497 1.376 . S
C501 C500 1.392 . S
C501 H513 0.929 . S
C502 C498 1.531 . S
C502 H514 0.960 . S
C502 H515 0.962 . S
C502 H516 0.960 . S
C503 C500 1.511 . S
C503 H517 0.961 . S
C503 H518 0.961 . S
C503 H519 0.961 . S
C504 C505 1.370 . S
C504 C506 1.363 . S
C504 H520 0.931 . S
C505 C504 1.370 . S
C505 C509 1.408 . S
C506 C504 1.363 . S
C506 C507 1.370 . S
C506 C510 1.524 . S
C507 C499 1.503 . S
C507 C506 1.370 . S
C507 C508 1.403 . S
C508 C507 1.403 . S
C508 C509 1.404 . S
C508 C511 1.539 . S
C509 C505 1.408 . S
C509 C508 1.404 . S
C509 H521 0.930 . S
C510 C506 1.524 . S
C510 H522 0.956 . S
C510 H523 0.961 . S
C510 H524 0.961 . S
C511 C508 1.539 . S
C511 H525 0.958 . S
C511 H526 0.961 . S
C511 H527 0.960 . S
H512 C496 0.931 . S
H513 C501 0.929 . S
H514 C502 0.960 . S
H515 C502 0.962 . S
H516 C502 0.960 . S
H517 C503 0.961 . S
H518 C503 0.961 . S
H519 C503 0.961 . S
H520 C504 0.931 . S
H521 C509 0.930 . S
H522 C510 0.956 . S
H523 C510 0.961 . S
H524 C510 0.961 . S
H525 C511 0.958 . S
H526 C511 0.961 . S
H527 C511 0.960 . S
C528 C529 1.391 . S
C528 C530 1.394 . S
C528 H544 0.931 . S
C529 C528 1.391 . S
C529 C533 1.376 . S
C530 C528 1.394 . S
C530 C531 1.369 . S
C530 C534 1.531 . S
C531 C530 1.369 . S
C531 C532 1.410 . S
C531 C539 1.503 . S
C532 C531 1.410 . S
C532 C533 1.392 . S
C532 C535 1.511 . S
C533 C529 1.376 . S
C533 C532 1.392 . S
C533 H545 0.929 . S
C534 C530 1.531 . S
C534 H546 0.960 . S
C534 H547 0.962 . S
C534 H548 0.960 . S
C535 C532 1.511 . S
C535 H549 0.961 . S
C535 H550 0.961 . S
C535 H551 0.961 . S
C536 C537 1.370 . S
C536 C538 1.363 . S
C536 H552 0.931 . S
C537 C536 1.370 . S
C537 C541 1.408 . S
C538 C536 1.363 . S
C538 C539 1.370 . S
C538 C542 1.524 . S
C539 C531 1.503 . S
C539 C538 1.370 . S
C539 C540 1.403 . S
C540 C539 1.403 . S
C540 C541 1.404 . S
C540 C543 1.539 . S
C541 C537 1.408 . S
C541 C540 1.404 . S
C541 H553 0.930 . S
C542 C538 1.524 . S
C542 H554 0.956 . S
C542 H555 0.961 . S
C542 H556 0.961 . S
C543 C540 1.539 . S
C543 H557 0.958 . S
C543 H558 0.961 . S
C543 H559 0.960 . S
H544 C528 0.931 . S
H545 C533 0.929 . S
H546 C534 0.960 . S
H547 C534 0.962 . S
H548 C534 0.960 . S
H549 C535 0.961 . S
H550 C535 0.961 . S
H551 C535 0.961 . S
H552 C536 0.931 . S
H553 C541 0.930 . S
H554 C542 0.956 . S
H555 C542 0.961 . S
H556 C542 0.961 . S
H557 C543 0.958 . S
H558 C543 0.961 . S
H559 C543 0.960 . S
C560 C561 1.391 . S
C560 C562 1.394 . S
C560 H576 0.931 . S
C561 C560 1.391 . S
C561 C565 1.376 . S
C562 C560 1.394 . S
C562 C563 1.369 . S
C562 C566 1.531 1_554 S
C563 C562 1.369 . S
C563 C564 1.410 . S
C563 C571 1.503 1_554 S
C564 C563 1.410 . S
C564 C565 1.392 . S
C564 C567 1.511 . S
C565 C561 1.376 . S
C565 C564 1.392 . S
C565 H577 0.929 . S
C566 C562 1.531 1_556 S
C566 H578 0.960 . S
C566 H579 0.962 . S
C566 H580 0.960 . S
C567 C564 1.511 . S
C567 H581 0.961 . S
C567 H582 0.961 1_554 S
C567 H583 0.961 . S
C568 C569 1.370 . S
C568 C570 1.363 . S
C568 H584 0.931 . S
C569 C568 1.370 . S
C569 C573 1.408 . S
C570 C568 1.363 . S
C570 C571 1.370 . S
C570 C574 1.524 . S
C571 C563 1.503 1_556 S
C571 C570 1.370 . S
C571 C572 1.403 . S
C572 C571 1.403 . S
C572 C573 1.404 . S
C572 C575 1.539 . S
C573 C569 1.408 . S
C573 C572 1.404 . S
C573 H585 0.930 . S
C574 C570 1.524 . S
C574 H586 0.956 . S
C574 H587 0.961 1_556 S
C574 H588 0.961 . S
C575 C572 1.539 . S
C575 H589 0.958 . S
C575 H590 0.961 . S
C575 H591 0.960 . S
H576 C560 0.931 . S
H577 C565 0.929 . S
H578 C566 0.960 . S
H579 C566 0.962 . S
H580 C566 0.960 . S
H581 C567 0.961 . S
H582 C567 0.961 1_556 S
H583 C567 0.961 . S
H584 C568 0.931 . S
H585 C573 0.930 . S
H586 C574 0.956 . S
H587 C574 0.961 1_554 S
H588 C574 0.961 . S
H589 C575 0.958 . S
H590 C575 0.961 . S
H591 C575 0.960 . S
C592 C593 1.391 . S
C592 C594 1.394 . S
C592 H608 0.931 . S
C593 C592 1.391 . S
C593 C597 1.376 . S
C594 C592 1.394 . S
C594 C595 1.369 . S
C594 C598 1.531 . S
C595 C594 1.369 . S
C595 C596 1.410 . S
C595 C603 1.503 . S
C596 C595 1.410 . S
C596 C597 1.392 . S
C596 C599 1.511 . S
C597 C593 1.376 . S
C597 C596 1.392 . S
C597 H609 0.929 . S
C598 C594 1.531 . S
C598 H610 0.960 . S
C598 H611 0.962 . S
C598 H612 0.960 . S
C599 C596 1.511 . S
C599 H613 0.961 . S
C599 H614 0.961 . S
C599 H615 0.961 . S
C600 C601 1.370 . S
C600 C602 1.363 . S
C600 H616 0.931 . S
C601 C600 1.370 . S
C601 C605 1.408 . S
C602 C600 1.363 . S
C602 C603 1.370 . S
C602 C606 1.524 . S
C603 C595 1.503 . S
C603 C602 1.370 . S
C603 C604 1.403 . S
C604 C603 1.403 . S
C604 C605 1.404 . S
C604 C607 1.539 . S
C605 C601 1.408 . S
C605 C604 1.404 . S
C605 H617 0.930 . S
C606 C602 1.524 . S
C606 H618 0.956 . S
C606 H619 0.961 . S
C606 H620 0.961 . S
C607 C604 1.539 . S
C607 H621 0.958 . S
C607 H622 0.961 . S
C607 H623 0.960 . S
H608 C592 0.931 . S
H609 C597 0.929 . S
H610 C598 0.960 . S
H611 C598 0.962 . S
H612 C598 0.960 . S
H613 C599 0.961 . S
H614 C599 0.961 . S
H615 C599 0.961 . S
H616 C600 0.931 . S
H617 C605 0.930 . S
H618 C606 0.956 . S
H619 C606 0.961 . S
H620 C606 0.961 . S
H621 C607 0.958 . S
H622 C607 0.961 . S
H623 C607 0.960 . S
C624 C625 1.391 . S
C624 C626 1.394 . S
C624 H640 0.931 . S
C625 C624 1.391 . S
C625 C629 1.376 . S
C626 C624 1.394 . S
C626 C627 1.369 . S
C626 C630 1.531 . S
C627 C626 1.369 . S
C627 C628 1.410 . S
C627 C635 1.503 . S
C628 C627 1.410 . S
C628 C629 1.392 . S
C628 C631 1.511 . S
C629 C625 1.376 . S
C629 C628 1.392 . S
C629 H641 0.929 . S
C630 C626 1.531 . S
C630 H642 0.960 . S
C630 H643 0.962 . S
C630 H644 0.960 . S
C631 C628 1.511 . S
C631 H645 0.961 . S
C631 H646 0.961 . S
C631 H647 0.961 . S
C632 C633 1.370 . S
C632 C634 1.363 . S
C632 H648 0.931 . S
C633 C632 1.370 . S
C633 C637 1.408 . S
C634 C632 1.363 . S
C634 C635 1.370 . S
C634 C638 1.524 . S
C635 C627 1.503 . S
C635 C634 1.370 . S
C635 C636 1.403 . S
C636 C635 1.403 . S
C636 C637 1.404 . S
C636 C639 1.539 . S
C637 C633 1.408 . S
C637 C636 1.404 . S
C637 H649 0.930 . S
C638 C634 1.524 . S
C638 H650 0.956 . S
C638 H651 0.961 . S
C638 H652 0.961 . S
C639 C636 1.539 . S
C639 H653 0.958 . S
C639 H654 0.961 . S
C639 H655 0.960 . S
H640 C624 0.931 . S
H641 C629 0.929 . S
H642 C630 0.960 . S
H643 C630 0.962 . S
H644 C630 0.960 . S
H645 C631 0.961 . S
H646 C631 0.961 . S
H647 C631 0.961 . S
H648 C632 0.931 . S
H649 C637 0.930 . S
H650 C638 0.956 . S
H651 C638 0.961 . S
H652 C638 0.961 . S
H653 C639 0.958 . S
H654 C639 0.961 . S
H655 C639 0.960 . S
C656 C657 1.391 . S
C656 C658 1.394 . S
C656 H672 0.931 . S
C657 C656 1.391 . S
C657 C661 1.376 . S
C658 C656 1.394 . S
C658 C659 1.369 . S
C658 C662 1.531 1_455 S
C659 C658 1.369 . S
C659 C660 1.410 . S
C659 C667 1.503 1_454 S
C660 C659 1.410 . S
C660 C661 1.392 . S
C660 C663 1.511 1_554 S
C661 C657 1.376 . S
C661 C660 1.392 . S
C661 H673 0.929 . S
C662 C658 1.531 1_655 S
C662 H674 0.960 . S
C662 H675 0.962 . S
C662 H676 0.960 . S
C663 C660 1.511 1_556 S
C663 H677 0.961 . S
C663 H678 0.961 . S
C663 H679 0.961 . S
C664 C665 1.370 . S
C664 C666 1.363 . S
C664 H680 0.931 . S
C665 C664 1.370 . S
C665 C669 1.408 . S
C666 C664 1.363 . S
C666 C667 1.370 . S
C666 C670 1.524 1_556 S
C667 C659 1.503 1_656 S
C667 C666 1.370 . S
C667 C668 1.403 . S
C668 C667 1.403 . S
C668 C669 1.404 . S
C668 C671 1.539 1_655 S
C669 C665 1.408 . S
C669 C668 1.404 . S
C669 H681 0.930 . S
C670 C666 1.524 1_554 S
C670 H682 0.956 . S
C670 H683 0.961 . S
C670 H684 0.961 1_554 S
C671 C668 1.539 1_455 S
C671 H685 0.958 1_455 S
C671 H686 0.961 . S
C671 H687 0.960 . S
H672 C656 0.931 . S
H673 C661 0.929 . S
H674 C662 0.960 . S
H675 C662 0.962 . S
H676 C662 0.960 . S
H677 C663 0.961 . S
H678 C663 0.961 . S
H679 C663 0.961 . S
H680 C664 0.931 . S
H681 C669 0.930 . S
H682 C670 0.956 . S
H683 C670 0.961 . S
H684 C670 0.961 1_556 S
H685 C671 0.958 1_655 S
H686 C671 0.961 . S
H687 C671 0.960 . S
C688 C689 1.391 . S
C688 C690 1.394 . S
C688 H704 0.931 . S
C689 C688 1.391 . S
C689 C693 1.376 . S
C690 C688 1.394 . S
C690 C691 1.369 . S
C690 C694 1.531 . S
C691 C690 1.369 . S
C691 C692 1.410 . S
C691 C699 1.503 1_565 S
C692 C691 1.410 . S
C692 C693 1.392 . S
C692 C695 1.511 . S
C693 C689 1.376 . S
C693 C692 1.392 . S
C693 H705 0.929 . S
C694 C690 1.531 . S
C694 H706 0.960 . S
C694 H707 0.962 1_565 S
C694 H708 0.960 . S
C695 C692 1.511 . S
C695 H709 0.961 . S
C695 H710 0.961 1_565 S
C695 H711 0.961 . S
C696 C697 1.370 . S
C696 C698 1.363 . S
C696 H712 0.931 . S
C697 C696 1.370 . S
C697 C701 1.408 . S
C698 C696 1.363 . S
C698 C699 1.370 . S
C698 C702 1.524 . S
C699 C691 1.503 1_545 S
C699 C698 1.370 . S
C699 C700 1.403 1_545 S
C700 C699 1.403 1_565 S
C700 C701 1.404 1_565 S
C700 C703 1.539 . S
C701 C697 1.408 . S
C701 C700 1.404 1_545 S
C701 H713 0.930 . S
C702 C698 1.524 . S
C702 H714 0.956 . S
C702 H715 0.961 . S
C702 H716 0.961 . S
C703 C700 1.539 . S
C703 H717 0.958 . S
C703 H718 0.961 . S
C703 H719 0.960 . S
H704 C688 0.931 . S
H705 C693 0.929 . S
H706 C694 0.960 . S
H707 C694 0.962 1_545 S
H708 C694 0.960 . S
H709 C695 0.961 . S
H710 C695 0.961 1_545 S
H711 C695 0.961 . S
H712 C696 0.931 . S
H713 C701 0.930 . S
H714 C702 0.956 . S
H715 C702 0.961 . S
H716 C702 0.961 . S
H717 C703 0.958 . S
H718 C703 0.961 . S
H719 C703 0.960 . S
C720 C721 1.391 . S
C720 C722 1.394 . S
C720 H736 0.931 . S
C721 C720 1.391 . S
C721 C725 1.376 . S
C722 C720 1.394 . S
C722 C723 1.369 . S
C722 C726 1.531 . S
C723 C722 1.369 . S
C723 C724 1.410 . S
C723 C731 1.503 1_455 S
C724 C723 1.410 . S
C724 C725 1.392 . S
C724 C727 1.511 1_455 S
C725 C721 1.376 . S
C725 C724 1.392 . S
C725 H737 0.929 . S
C726 C722 1.531 . S
C726 H738 0.960 1_455 S
C726 H739 0.962 . S
C726 H740 0.960 . S
C727 C724 1.511 1_655 S
C727 H741 0.976 . S
C727 H742 0.961 . S
C727 H743 0.961 . S
C728 C729 1.370 . S
C728 C730 1.363 . S
C728 H744 0.931 . S
C729 C728 1.370 . S
C729 C733 1.408 . S
C730 C728 1.363 . S
C730 C731 1.370 . S
C730 C734 1.524 1_655 S
C731 C723 1.503 1_655 S
C731 C730 1.370 . S
C731 C732 1.403 . S
C732 C731 1.403 . S
C732 C733 1.404 . S
C732 C735 1.539 . S
C733 C729 1.408 . S
C733 C732 1.404 . S
C733 H745 0.930 . S
C734 C730 1.524 1_455 S
C734 H746 0.956 . S
C734 H747 0.961 . S
C734 H748 0.961 . S
C735 C732 1.539 . S
C735 H749 0.958 . S
C735 H750 0.961 . S
C735 H751 0.960 . S
H736 C720 0.931 . S
H737 C725 0.929 . S
H738 C726 0.960 1_655 S
H739 C726 0.962 . S
H740 C726 0.960 . S
H741 C727 0.976 . S
H742 C727 0.961 . S
H743 C727 0.961 . S
H744 C728 0.931 . S
H745 C733 0.930 . S
H746 C734 0.956 . S
H747 C734 0.961 . S
H748 C734 0.961 . S
H749 C735 0.958 . S
H750 C735 0.961 . S
H751 C735 0.960 . S
C752 C753 1.391 . S
C752 C754 1.394 . S
C752 H768 0.931 . S
C753 C752 1.391 . S
C753 C757 1.376 . S
C754 C752 1.394 . S
C754 C755 1.369 . S
C754 C758 1.531 1_565 S
C755 C754 1.369 . S
C755 C756 1.410 . S
C755 C763 1.503 1_565 S
C756 C755 1.410 . S
C756 C757 1.392 . S
C756 C759 1.511 . S
C757 C753 1.376 . S
C757 C756 1.392 . S
C757 H769 0.929 . S
C758 C754 1.531 1_545 S
C758 H770 0.960 . S
C758 H771 0.962 . S
C758 H772 0.960 1_545 S
C759 C756 1.511 . S
C759 H773 0.961 . S
C759 H774 0.961 . S
C759 H775 0.961 . S
C760 C761 1.370 . S
C760 C762 1.363 . S
C760 H776 0.931 . S
C761 C760 1.370 . S
C761 C765 1.408 . S
C762 C760 1.363 . S
C762 C763 1.370 . S
C762 C766 1.524 . S
C763 C755 1.503 1_545 S
C763 C762 1.370 . S
C763 C764 1.403 1_545 S
C764 C763 1.403 1_565 S
C764 C765 1.404 1_565 S
C764 C767 1.539 . S
C765 C761 1.408 . S
C765 C764 1.404 1_545 S
C765 H777 0.930 . S
C766 C762 1.524 . S
C766 H778 0.956 . S
C766 H779 0.961 . S
C766 H780 0.961 . S
C767 C764 1.539 . S
C767 H781 0.958 . S
C767 H782 0.961 . S
C767 H783 0.960 . S
H768 C752 0.931 . S
H769 C757 0.929 . S
H770 C758 0.960 . S
H771 C758 0.962 . S
H772 C758 0.960 1_565 S
H773 C759 0.961 . S
H774 C759 0.961 . S
H775 C759 0.961 . S
H776 C760 0.931 . S
H777 C765 0.930 . S
H778 C766 0.956 . S
H779 C766 0.961 . S
H780 C766 0.961 . S
H781 C767 0.958 . S
H782 C767 0.961 . S
H783 C767 0.960 . S
C784 C785 1.391 . S
C784 C786 1.394 . S
C784 H800 0.931 . S
C785 C784 1.391 . S
C785 C789 1.376 . S
C786 C784 1.394 . S
C786 C787 1.369 . S
C786 C790 1.531 . S
C787 C786 1.369 . S
C787 C788 1.410 . S
C787 C795 1.503 . S
C788 C787 1.410 . S
C788 C789 1.392 . S
C788 C791 1.511 . S
C789 C785 1.376 . S
C789 C788 1.392 . S
C789 H801 0.929 . S
C790 C786 1.531 . S
C790 H802 0.960 . S
C790 H803 0.962 . S
C790 H804 0.960 . S
C791 C788 1.511 . S
C791 H805 0.961 . S
C791 H806 0.961 . S
C791 H807 0.961 . S
C792 C793 1.370 . S
C792 C794 1.363 . S
C792 H808 0.931 . S
C793 C792 1.370 . S
C793 C797 1.408 . S
C794 C792 1.363 . S
C794 C795 1.370 . S
C794 C798 1.524 . S
C795 C787 1.503 . S
C795 C794 1.370 . S
C795 C796 1.403 . S
C796 C795 1.403 . S
C796 C797 1.404 . S
C796 C799 1.539 . S
C797 C793 1.408 . S
C797 C796 1.404 . S
C797 H809 0.930 . S
C798 C794 1.524 . S
C798 H810 0.956 . S
C798 H811 0.961 . S
C798 H812 0.961 . S
C799 C796 1.539 . S
C799 H813 0.958 . S
C799 H814 0.961 . S
C799 H815 0.960 . S
H800 C784 0.931 . S
H801 C789 0.929 . S
H802 C790 0.960 . S
H803 C790 0.962 . S
H804 C790 0.960 . S
H805 C791 0.961 . S
H806 C791 0.961 . S
H807 C791 0.961 . S
H808 C792 0.931 . S
H809 C797 0.930 . S
H810 C798 0.956 . S
H811 C798 0.961 . S
H812 C798 0.961 . S
H813 C799 0.958 . S
H814 C799 0.961 . S
H815 C799 0.960 . S
C816 C817 1.391 . S
C816 C818 1.394 . S
C816 H832 0.931 . S
C817 C816 1.391 . S
C817 C821 1.376 . S
C818 C816 1.394 . S
C818 C819 1.369 . S
C818 C822 1.531 . S
C819 C818 1.369 . S
C819 C820 1.410 . S
C819 C827 1.503 . S
C820 C819 1.410 . S
C820 C821 1.392 . S
C820 C823 1.511 . S
C821 C817 1.376 . S
C821 C820 1.392 . S
C821 H833 0.929 . S
C822 C818 1.531 . S
C822 H834 0.960 . S
C822 H835 0.962 . S
C822 H836 0.960 . S
C823 C820 1.511 . S
C823 H837 0.961 . S
C823 H838 0.961 . S
C823 H839 0.961 . S
C824 C825 1.370 . S
C824 C826 1.363 . S
C824 H840 0.931 . S
C825 C824 1.370 . S
C825 C829 1.408 . S
C826 C824 1.363 . S
C826 C827 1.370 . S
C826 C830 1.524 . S
C827 C819 1.503 . S
C827 C826 1.370 . S
C827 C828 1.403 . S
C828 C827 1.403 . S
C828 C829 1.404 . S
C828 C831 1.539 . S
C829 C825 1.408 . S
C829 C828 1.404 . S
C829 H841 0.930 . S
C830 C826 1.524 . S
C830 H842 0.956 . S
C830 H843 0.961 . S
C830 H844 0.961 . S
C831 C828 1.539 . S
C831 H845 0.958 . S
C831 H846 0.961 . S
C831 H847 0.960 . S
H832 C816 0.931 . S
H833 C821 0.929 . S
H834 C822 0.960 . S
H835 C822 0.962 . S
H836 C822 0.960 . S
H837 C823 0.961 . S
H838 C823 0.961 . S
H839 C823 0.961 . S
H840 C824 0.931 . S
H841 C829 0.930 . S
H842 C830 0.956 . S
H843 C830 0.961 . S
H844 C830 0.961 . S
H845 C831 0.958 . S
H846 C831 0.961 . S
H847 C831 0.960 . S
C848 C849 1.391 . S
C848 C850 1.394 . S
C848 H864 0.931 . S
C849 C848 1.391 . S
C849 C853 1.376 . S
C850 C848 1.394 . S
C850 C851 1.369 . S
C850 C854 1.531 . S
C851 C850 1.369 . S
C851 C852 1.410 . S
C851 C859 1.503 . S
C852 C851 1.410 . S
C852 C853 1.392 . S
C852 C855 1.511 . S
C853 C849 1.376 . S
C853 C852 1.392 . S
C853 H865 0.929 . S
C854 C850 1.531 . S
C854 H866 0.960 . S
C854 H867 0.962 . S
C854 H868 0.960 . S
C855 C852 1.511 . S
C855 H869 0.961 . S
C855 H870 0.961 . S
C855 H871 0.961 . S
C856 C857 1.370 . S
C856 C858 1.363 . S
C856 H872 0.931 . S
C857 C856 1.370 . S
C857 C861 1.408 . S
C858 C856 1.363 . S
C858 C859 1.370 . S
C858 C862 1.524 . S
C859 C851 1.503 . S
C859 C858 1.370 . S
C859 C860 1.403 . S
C860 C859 1.403 . S
C860 C861 1.404 . S
C860 C863 1.539 . S
C861 C857 1.408 . S
C861 C860 1.404 . S
C861 H873 0.930 . S
C862 C858 1.524 . S
C862 H874 0.956 . S
C862 H875 0.961 . S
C862 H876 0.961 . S
C863 C860 1.539 . S
C863 H877 0.958 . S
C863 H878 0.961 . S
C863 H879 0.960 . S
H864 C848 0.931 . S
H865 C853 0.929 . S
H866 C854 0.960 . S
H867 C854 0.962 . S
H868 C854 0.960 . S
H869 C855 0.961 . S
H870 C855 0.961 . S
H871 C855 0.961 . S
H872 C856 0.931 . S
H873 C861 0.930 . S
H874 C862 0.956 . S
H875 C862 0.961 . S
H876 C862 0.961 . S
H877 C863 0.958 . S
H878 C863 0.961 . S
H879 C863 0.960 . S
C880 C881 1.391 1_556 S
C880 C882 1.394 . S
C880 H896 0.931 . S
C881 C880 1.391 1_554 S
C881 C885 1.376 . S
C882 C880 1.394 . S
C882 C883 1.369 . S
C882 C886 1.531 . S
C883 C882 1.369 . S
C883 C884 1.410 1_556 S
C883 C891 1.503 . S
C884 C883 1.410 1_554 S
C884 C885 1.392 . S
C884 C887 1.511 . S
C885 C881 1.376 . S
C885 C884 1.392 . S
C885 H897 0.929 . S
C886 C882 1.531 . S
C886 H898 0.960 . S
C886 H899 0.962 . S
C886 H900 0.960 . S
C887 C884 1.511 . S
C887 H901 0.961 . S
C887 H902 0.961 . S
C887 H903 0.961 . S
C888 C889 1.370 1_554 S
C888 C890 1.363 . S
C888 H904 0.931 . S
C889 C888 1.370 1_556 S
C889 C893 1.408 . S
C890 C888 1.363 . S
C890 C891 1.370 1_554 S
C890 C894 1.524 . S
C891 C883 1.503 . S
C891 C890 1.370 1_556 S
C891 C892 1.403 . S
C892 C891 1.403 . S
C892 C893 1.404 . S
C892 C895 1.539 . S
C893 C889 1.408 . S
C893 C892 1.404 . S
C893 H905 0.930 . S
C894 C890 1.524 . S
C894 H906 0.956 . S
C894 H907 0.961 . S
C894 H908 0.961 . S
C895 C892 1.539 . S
C895 H909 0.958 . S
C895 H910 0.961 . S
C895 H911 0.960 . S
H896 C880 0.931 . S
H897 C885 0.929 . S
H898 C886 0.960 . S
H899 C886 0.962 . S
H900 C886 0.960 . S
H901 C887 0.961 . S
H902 C887 0.961 . S
H903 C887 0.961 . S
H904 C888 0.931 . S
H905 C893 0.930 . S
H906 C894 0.956 . S
H907 C894 0.961 . S
H908 C894 0.961 . S
H909 C895 0.958 . S
H910 C895 0.961 . S
H911 C895 0.960 . S
C273 C190 1.631 . S
C281 C20 1.625 . S
C305 C224 1.610 . S
C313 C54 1.634 . S
C337 C88 1.648 . S
C345 C258 1.632 . S
C369 C156 1.619 . S
C377 C122 1.630 . S
C401 C9 0.959 . S
C409 C5 0.994 1_556 S
C433 C39 1.009 . S
C441 C43 0.972 . S
C465 C77 1.013 . S
C473 C73 0.984 . S
C497 C111 1.000 . S
C505 C107 0.992 . S
C529 C145 0.980 . S
C537 C141 0.997 . S
C561 C179 0.947 . S
C569 C175 0.978 . S
C593 C213 0.968 . S
C601 C209 0.995 1_554 S
C625 C243 0.948 . S
C633 C247 0.985 . S
C657 C33 1.387 . S
C665 C237 1.417 . S
C689 C271 1.377 . S
C697 C67 1.427 . S
C721 C169 1.448 . S
C729 C101 1.404 . S
C753 C135 1.376 . S
C761 C203 1.424 . S
C785 C2 1.733 . S
C793 C138 1.738 . S
C817 C36 1.732 . S
C825 C172 1.737 . S
C849 C70 1.732 . S
C857 C206 1.737 . S
C881 C240 1.735 . S
C889 C104 1.740 . S
