# Generated by pormake.
# Topology uon, (4)-cn, num edge types: 1
# Building blocks:
#     Node 0, Type 0, BuildingBlock: QUQFOY_clean_sbu_1, # of connection points: 4
#     Node 1, Type 0, BuildingBlock: QUQFOY_clean_sbu_1, # of connection points: 4
#     Node 2, Type 0, BuildingBlock: QUQFOY_clean_sbu_1, # of connection points: 4
#     Node 3, Type 0, BuildingBlock: QUQFOY_clean_sbu_1, # of connection points: 4
#     Node 4, Type 0, BuildingBlock: QUQFOY_clean_sbu_1, # of connection points: 4
#     Node 5, Type 0, BuildingBlock: QUQFOY_clean_sbu_1, # of connection points: 4
#     Edge 6, Type (0, 0), BuildingBlock: UVAHIK_clean_linker_0, # of connection points: 2
#     Edge 7, Type (0, 0), BuildingBlock: UVAHIK_clean_linker_0, # of connection points: 2
#     Edge 8, Type (0, 0), BuildingBlock: UVAHIK_clean_linker_0, # of connection points: 2
#     Edge 9, Type (0, 0), BuildingBlock: UVAHIK_clean_linker_0, # of connection points: 2
#     Edge 10, Type (0, 0), BuildingBlock: UVAHIK_clean_linker_0, # of connection points: 2
#     Edge 11, Type (0, 0), BuildingBlock: UVAHIK_clean_linker_0, # of connection points: 2
#     Edge 12, Type (0, 0), BuildingBlock: UVAHIK_clean_linker_0, # of connection points: 2
#     Edge 13, Type (0, 0), BuildingBlock: UVAHIK_clean_linker_0, # of connection points: 2
#     Edge 14, Type (0, 0), BuildingBlock: UVAHIK_clean_linker_0, # of connection points: 2
#     Edge 15, Type (0, 0), BuildingBlock: UVAHIK_clean_linker_0, # of connection points: 2
#     Edge 16, Type (0, 0), BuildingBlock: UVAHIK_clean_linker_0, # of connection points: 2
#     Edge 17, Type (0, 0), BuildingBlock: UVAHIK_clean_linker_0, # of connection points: 2
# Relax obj value: 0.076
# Max RMSD: 0.264
# Mean RMSD: 0.264
data_MOF--net-uon--node1-QUQFOY_clean_sbu_1--edge1-UVAHIK_clean_linker_0
_symmetry_space_group_name_H-M    P1
_symmetry_Int_Tables_number       1
_symmetry_cell_setting            triclinic
loop_
_symmetry_equiv_pos_as_xyz
'x, y, z'
_cell_length_a     50.276479
_cell_length_b     50.328111
_cell_length_c     16.302238
_cell_angle_alpha  89.768878
_cell_angle_beta   90.118906
_cell_angle_gamma 119.98329
loop_
_atom_site_label
_atom_site_type_symbol
_atom_site_fract_x
_atom_site_fract_y
_atom_site_fract_z
_atom_type_partial_charge
O0 O 0.28508 0.48435 0.94315 0.0
Cd1 Cd 0.26542 0.45424 0.03802 0.0
Cd2 Cd 0.21749 0.45717 -0.01366 0.0
O3 O 0.2443 0.48285 0.8878 0.0
O4 O 0.29436 0.4386 0.05732 0.0
O5 O 0.24692 0.4093 0.01218 0.0
C6 C 0.27353 0.41254 0.02875 0.0
C7 C 0.16723 0.41623 -0.01138 0.0
C8 C 0.27318 0.49327 0.88874 0.0
C9 C 0.24706 0.48909 0.14468 0.0
O10 O 0.22763 0.48381 0.08826 0.0
O11 O 0.264 0.47694 0.14252 0.0
O12 O 0.17339 0.44324 0.96503 0.0
O13 O 0.19001 0.4118 0.00327 0.0
O14 O 0.81171 0.27424 0.24918 0.0
Cd15 Cd 0.82018 0.25691 0.35264 0.0
Cd16 Cd 0.77269 0.2067 0.29609 0.0
O17 O 0.77601 0.23172 0.19102 0.0
O18 O 0.86395 0.28708 0.37824 0.0
O19 O 0.84816 0.23942 0.3392 0.0
C20 C 0.8706 0.26656 0.35547 0.0
C21 C 0.7676 0.15822 0.30891 0.0
C22 C 0.79325 0.26078 0.19049 0.0
C23 C 0.76285 0.2369 0.44342 0.0
O24 O 0.7516 0.21655 0.38798 0.0
O25 O 0.79175 0.255 0.44767 0.0
O26 O 0.74603 0.16173 0.27688 0.0
O27 O 0.79319 0.18259 0.32697 0.0
O28 O 0.54582 0.80692 0.60111 0.0
Cd29 Cd 0.57635 0.81745 0.6948 0.0
Cd30 Cd 0.57359 0.76661 0.64403 0.0
O31 O 0.5473 0.76761 0.54671 0.0
O32 O 0.59444 0.86252 0.71148 0.0
O33 O 0.62118 0.84152 0.66615 0.0
C34 C 0.61977 0.86595 0.68187 0.0
C35 C 0.61416 0.7566 0.64475 0.0
C36 C 0.53667 0.78589 0.54762 0.0
C37 C 0.54219 0.7644 0.80344 0.0
O38 O 0.54748 0.75031 0.74718 0.0
O39 O 0.55404 0.79343 0.80038 0.0
O40 O 0.58691 0.73599 0.62241 0.0
O41 O 0.61903 0.78393 0.65884 0.0
O42 O 0.75971 0.54365 0.90462 0.0
Cd43 Cd 0.77587 0.56949 0.00798 0.0
Cd44 Cd 0.82722 0.57385 0.95432 0.0
O45 O 0.80311 0.55166 0.84906 0.0
O46 O 0.74482 0.58214 0.03143 0.0
O47 O 0.79257 0.61479 -0.00635 0.0
C48 C 0.76512 0.6095 0.00882 0.0
C49 C 0.87535 0.61776 0.96646 0.0
C50 C 0.77397 0.53916 0.84715 0.0
C51 C 0.79701 0.53363 0.1021 0.0
O52 O 0.81776 0.54326 0.04748 0.0
O53 O 0.7781 0.54351 0.10442 0.0
O54 O 0.87235 0.59278 0.93588 0.0
O55 O 0.85066 0.61856 -0.01648 0.0
O56 O 0.22569 0.7465 0.26092 0.0
Cd57 Cd 0.21399 0.76475 0.35624 0.0
Cd58 Cd 0.26635 0.81332 0.31417 0.0
O59 O 0.2672 0.78771 0.21571 0.0
O60 O 0.16872 0.73766 0.36809 0.0
O61 O 0.19045 0.78634 0.32977 0.0
C62 C 0.16576 0.76027 0.34178 0.0
C63 C 0.28047 0.86513 0.3168 0.0
C64 C 0.24817 0.75904 0.21149 0.0
C65 C 0.26442 0.78024 0.47136 0.0
O66 O 0.27969 0.80104 0.41896 0.0
O67 O 0.23552 0.76312 0.46338 0.0
O68 O 0.30005 0.85651 0.29999 0.0
O69 O 0.25196 0.84413 0.32389 0.0
O70 O 0.49183 0.22458 0.56402 0.0
Cd71 Cd 0.46703 0.21408 0.66979 0.0
Cd72 Cd 0.4634 0.26231 0.6222 0.0
O73 O 0.48542 0.26189 0.51506 0.0
O74 O 0.45712 0.17103 0.68947 0.0
O75 O 0.42166 0.18356 0.66262 0.0
C76 C 0.42885 0.16245 0.67316 0.0
C77 C 0.42135 0.26972 0.63563 0.0
C78 C 0.49697 0.24453 0.5092 0.0
C79 C 0.50423 0.26966 0.76684 0.0
O80 O 0.49425 0.28162 0.71552 0.0
O81 O 0.49429 0.2409 0.76588 0.0
O82 O 0.44722 0.29093 0.60675 0.0
O83 O 0.4185 0.24318 0.65055 0.0
C84 C 0.31005 0.39246 0.02842 0.0
C85 C 0.28164 0.38909 0.0047 0.0
C86 C 0.32104 0.37471 -0.00783 0.0
C87 C 0.30118 0.30763 0.8577 0.0
H88 H 0.38668 0.3569 0.79445 0.0
C89 C 0.37471 0.25867 0.71797 0.0
C90 C 0.39761 0.27727 0.66121 0.0
C91 C 0.35664 0.26918 0.75561 0.0
C92 C 0.36269 0.34281 0.81073 0.0
H93 H 0.24152 0.36287 0.92836 0.0
H94 H 0.26087 0.33204 0.86434 0.0
H95 H 0.36282 0.37984 0.87442 0.0
H96 H 0.41767 0.32029 0.59423 0.0
H97 H 0.3858 0.33822 0.65802 0.0
H98 H 0.3012 0.27069 0.79219 0.0
C99 C 0.27458 0.3483 0.91142 0.0
C100 C 0.3491 0.35587 0.85797 0.0
C101 C 0.26347 0.36599 0.94817 0.0
C102 C 0.40046 0.30552 0.63832 0.0
C103 C 0.38235 0.31592 0.67547 0.0
C104 C 0.31488 0.29447 0.81036 0.0
C105 C 0.30402 0.35329 0.93076 0.0
C106 C 0.31821 0.3385 0.88232 0.0
C107 C 0.36108 0.29846 0.73697 0.0
C108 C 0.34579 0.312 0.78596 0.0
H109 H 0.3245 0.40984 0.07235 0.0
H110 H 0.34345 0.3786 0.01014 0.0
H111 H 0.27736 0.29359 0.87556 0.0
H112 H 0.372 0.23682 0.73714 0.0
H113 H 0.3405 0.25515 0.80273 0.0
C114 C 0.90917 0.25745 0.28244 0.0
C115 C 0.90279 0.27546 0.33577 0.0
C116 C 0.93848 0.26912 0.24816 0.0
C117 C 1.00557 0.34444 0.19696 0.0
H118 H 0.04338 0.29665 0.13469 0.0
C119 C 0.11078 0.39717 -0.01279 0.0
C120 C 0.13529 0.39285 0.01029 0.0
C121 C 0.08168 0.37924 0.0219 0.0
C122 C 0.0332 0.31036 0.15195 0.0
H123 H 0.92287 0.31872 0.40065 0.0
H124 H 0.9741 0.33861 0.34353 0.0
H125 H 0.99601 0.2727 0.21532 0.0
H126 H 0.14796 0.36494 0.08402 0.0
H127 H 0.09731 0.33396 0.14561 0.0
H128 H 0.04287 0.38224 0.13596 0.0
C129 C 0.95626 0.31589 0.32564 0.0
C130 C 1.0059 0.29656 0.1977 0.0
C131 C 0.92694 0.30436 0.3592 0.0
C132 C 0.12952 0.36877 0.06464 0.0
C133 C 0.10042 0.35099 0.10003 0.0
C134 C 0.03276 0.35818 0.15164 0.0
C135 C 0.96211 0.29898 0.26701 0.0
C136 C 0.99175 0.31347 0.22092 0.0
C137 C 0.07642 0.35676 0.08134 0.0
C138 C 0.04693 0.34136 0.12808 0.0
H139 H 0.89104 0.23513 0.2628 0.0
H140 H 0.94203 0.25543 0.20319 0.0
H141 H 0.99514 0.35812 0.21213 0.0
H142 H 0.11438 0.41534 0.94497 0.0
H143 H 0.06354 0.38375 0.00412 0.0
C144 C 0.78024 0.12416 0.39307 0.0
C145 C 0.76147 0.12733 0.33429 0.0
C146 C 0.77122 0.09559 0.42917 0.0
C147 C 0.71814 1.01193 0.41008 0.0
H148 H 0.71736 1.01255 0.64804 0.0
C149 C 0.66698 0.8998 0.59951 0.0
C150 C 0.64472 0.89677 0.65673 0.0
C151 C 0.68683 0.92832 0.5636 0.0
C152 C 0.71762 1.01202 0.58162 0.0
H153 H 0.71955 0.1026 0.26354 0.0
H154 H 0.70415 0.05276 0.32536 0.0
H155 H 0.74185 0.06105 0.57233 0.0
H156 H 0.62718 0.92165 0.72495 0.0
H157 H 0.66214 0.9714 0.66353 0.0
H158 H 0.6931 0.9629 0.41936 0.0
C159 C 0.72574 0.07236 0.34392 0.0
C160 C 0.73185 0.03978 0.53825 0.0
C161 C 0.73454 0.10096 0.3086 0.0
C162 C 0.64407 0.92319 0.6811 0.0
C163 C 0.66416 0.95174 0.64602 0.0
C164 C 0.70422 0.98417 0.45347 0.0
C165 C 0.74349 0.06952 0.4064 0.0
C166 C 0.73171 0.04006 0.45195 0.0
C167 C 0.68513 0.95446 0.58507 0.0
C168 C 0.70323 0.9839 0.53972 0.0
H169 H 0.80108 0.14402 0.41446 0.0
H170 H 0.78554 0.09405 0.47654 0.0
H171 H 0.7178 1.01141 0.34364 0.0
H172 H 0.66802 0.87988 0.57916 0.0
H173 H 0.70297 0.92977 0.51741 0.0
C174 C 0.72659 0.62715 0.01163 0.0
C175 C 0.75573 0.63239 -0.0115 0.0
C176 C 0.71479 0.64474 -0.02194 0.0
C177 C 0.73387 0.71405 0.8506 0.0
H178 H 0.64802 0.66538 0.79053 0.0
C179 C 0.66174 0.76589 0.7193 0.0
C180 C 0.63737 0.74772 0.66586 0.0
C181 C 0.67946 0.75439 0.75423 0.0
C182 C 0.67213 0.67932 0.80568 0.0
H183 H 0.79613 0.66154 0.91578 0.0
H184 H 0.77537 0.69187 0.85602 0.0
H185 H 0.67235 0.64169 0.86567 0.0
H186 H 0.61424 0.70429 0.60174 0.0
H187 H 0.64578 0.68472 0.65986 0.0
H188 H 0.73365 0.7515 0.78793 0.0
C189 C 0.76169 0.67441 0.90087 0.0
C190 C 0.686 0.66581 0.85046 0.0
C191 C 0.77364 0.65699 0.93522 0.0
C192 C 0.63266 0.71877 0.64325 0.0
C193 C 0.65056 0.70742 0.6774 0.0
C194 C 0.71996 0.72759 0.80529 0.0
C195 C 0.73166 0.66778 0.91962 0.0
C196 C 0.71703 0.68295 0.8739 0.0
C197 C 0.67337 0.72454 0.73593 0.0
C198 C 0.68888 0.71035 0.78204 0.0
H199 H 0.71229 0.60854 0.05305 0.0
H200 H 0.69195 0.63955 -0.00407 0.0
H201 H 0.75776 0.72803 0.86783 0.0
H202 H 0.66587 0.78824 0.73836 0.0
H203 H 0.69673 0.76825 0.79913 0.0
C204 C 0.93271 0.64283 0.9662 0.0
C205 C 0.90604 0.6429 -0.0085 0.0
C206 C 0.96117 0.6629 0.00156 0.0
C207 C 0.99274 0.70113 0.19602 0.0
H208 H 0.07018 0.73976 0.07862 0.0
C209 C 0.10846 0.72802 0.33984 0.0
C210 C 0.1352 0.75508 0.31647 0.0
C211 C 0.08011 0.72019 0.30457 0.0
C212 C 0.04875 0.7295 0.11231 0.0
H213 H 0.88862 0.66523 0.07086 0.0
H214 H 0.93835 0.70015 0.13307 0.0
H215 H 0.02192 0.71629 0.00197 0.0
H216 H 0.15288 0.79589 0.2405 0.0
H217 H 0.10329 0.78203 0.17822 0.0
H218 H 1.01957 0.71333 0.30631 0.0
C219 C 0.93716 0.68447 0.08594 0.0
C220 C 0.02113 0.71585 0.0684 0.0
C221 C 0.90873 0.66464 0.04979 0.0
C222 C 0.13269 0.77494 0.26007 0.0
C223 C 0.10436 0.76689 0.2239 0.0
C224 C 1.02036 0.71446 0.23991 0.0
C225 C 0.96354 0.68327 0.06369 0.0
C226 C 0.99282 0.70105 0.10973 0.0
C227 C 0.0779 0.73907 0.24436 0.0
C228 C 0.04867 0.72833 0.19854 0.0
H229 H 0.93142 0.62635 0.9215 0.0
H230 H 0.98101 0.66126 -0.01658 0.0
H231 H 0.97132 0.68967 0.22969 0.0
H232 H 0.10962 0.71221 0.38308 0.0
H233 H 0.06021 0.69851 0.32126 0.0
C234 C 0.41678 0.10822 0.65763 0.0
C235 C 0.40674 0.12973 0.65567 0.0
C236 C 0.39838 0.07869 0.62674 0.0
C237 C 0.33415 0.03562 0.481 0.0
H238 H 0.34247 0.96739 0.56027 0.0
C239 C 0.27048 0.90707 0.36321 0.0
C240 C 0.29128 0.89744 0.33991 0.0
C241 C 0.28108 0.93581 0.40001 0.0
C242 C 0.33987 0.98625 0.53773 0.0
H243 H 0.36858 0.13639 0.62398 0.0
H244 H 0.33585 0.08433 0.57255 0.0
H245 H 0.36525 0.015 0.63795 0.0
H246 H 0.33963 0.91123 0.33307 0.0
H247 H 0.3578 0.96078 0.39849 0.0
H248 H 0.3082 1.00608 0.38118 0.0
C249 C 0.35841 0.09061 0.59596 0.0
C250 C 0.35307 0.01364 0.58183 0.0
C251 C 0.37702 0.12038 0.62638 0.0
C252 C 0.32292 0.91781 0.35016 0.0
C253 C 0.33339 0.94615 0.38804 0.0
C254 C 0.32041 1.00789 0.4376 0.0
C255 C 0.36917 0.06959 0.59378 0.0
C256 C 0.35125 0.03908 0.55291 0.0
C257 C 0.31256 0.95506 0.41516 0.0
C258 C 0.3239 0.98331 0.46457 0.0
H259 H 0.43959 0.1146 0.67933 0.0
H260 H 0.40786 0.06355 0.6252 0.0
H261 H 0.33245 0.05468 0.45612 0.0
H262 H 0.24597 0.89191 0.35633 0.0
H263 H 0.26464 0.9423 0.42043 0.0
C264 C 0.2321 0.7086 0.14874 0.0
C265 C 0.25601 0.73816 0.16816 0.0
C266 C 0.23747 0.68398 0.14659 0.0
C267 C 0.28978 0.65468 0.14031 0.0
H268 H 0.23927 0.60135 0.31673 0.0
C269 C 0.28506 0.54014 0.19908 0.0
C270 C 0.25467 0.51561 0.19753 0.0
C271 C 0.29104 0.57009 0.21311 0.0
C272 C 0.25355 0.61594 0.26737 0.0
H273 H 0.30506 0.76586 0.18869 0.0
H274 H 0.31454 0.72264 0.18247 0.0
H275 H 0.23827 0.64826 0.28569 0.0
H276 H 0.20723 0.50239 0.21958 0.0
H277 H 0.21744 0.55401 0.2459 0.0
H278 H 0.30378 0.62151 0.11872 0.0
C279 C 0.29162 0.71862 0.17038 0.0
C280 C 0.25293 0.64275 0.24956 0.0
C281 C 0.28622 0.74338 0.17292 0.0
C282 C 0.23089 0.52088 0.22115 0.0
C283 C 0.23683 0.55064 0.23574 0.0
C284 C 0.2901 0.62751 0.15738 0.0
C285 C 0.2669 0.68856 0.16266 0.0
C286 C 0.27033 0.66188 0.18447 0.0
C287 C 0.26672 0.57582 0.22679 0.0
C288 C 0.27126 0.60735 0.21967 0.0
H289 H 0.20863 0.70392 0.14465 0.0
H290 H 0.21814 0.66099 0.13919 0.0
H291 H 0.30355 0.66927 0.09026 0.0
H292 H 0.30381 0.53678 0.18006 0.0
H293 H 0.3144 0.58891 0.20749 0.0
C294 C 0.52734 0.22823 0.42666 0.0
C295 C 0.52311 0.2522 0.45445 0.0
C296 C 0.55682 0.23325 0.41181 0.0
C297 C 0.63355 0.28249 0.49677 0.0
H298 H 0.65279 0.23105 0.36215 0.0
C299 C 0.74709 0.27437 0.48707 0.0
C300 C 0.74107 0.2439 0.48529 0.0
C301 C 0.72272 0.28045 0.48872 0.0
C302 C 0.6477 0.24557 0.40015 0.0
H303 H 0.54587 0.30099 0.47842 0.0
H304 H 0.59749 0.31002 0.45036 0.0
H305 H 0.60736 0.23485 0.33125 0.0
H306 H 0.70548 0.19626 0.49569 0.0
H307 H 0.66323 0.20688 0.49981 0.0
H308 H 0.67421 0.293 0.5656 0.0
C309 C 0.57809 0.28717 0.44186 0.0
C310 C 0.62173 0.2478 0.38237 0.0
C311 C 0.54844 0.28213 0.45619 0.0
C312 C 0.71077 0.21994 0.49681 0.0
C313 C 0.68657 0.22598 0.49809 0.0
C314 C 0.65988 0.28056 0.51385 0.0
C315 C 0.58271 0.26239 0.42456 0.0
C316 C 0.61366 0.2654 0.43217 0.0
C317 C 0.69224 0.25611 0.48883 0.0
C318 C 0.6665 0.2612 0.46738 0.0
H319 H 0.50822 0.20491 0.42563 0.0
H320 H 0.55931 0.21353 0.39867 0.0
H321 H 0.62793 0.29602 0.53711 0.0
H322 H 0.77017 0.29329 0.47733 0.0
H323 H 0.72761 0.30389 0.4821 0.0
C324 C 0.4909 0.75036 0.85867 0.0
C325 C 0.51598 0.74533 0.8575 0.0
C326 C 0.46123 0.72595 0.87408 0.0
C327 C 0.41731 0.64292 0.93369 0.0
H328 H 0.36226 0.63709 0.75834 0.0
C329 C 0.2893 0.54652 0.84387 0.0
C330 C 0.29452 0.52153 0.84395 0.0
C331 C 0.31413 0.57664 0.83942 0.0
C332 C 0.37732 0.63858 0.8079 0.0
H333 H 0.53046 0.71216 0.88136 0.0
H334 H 0.47935 0.67002 0.91008 0.0
H335 H 0.40963 0.68578 0.7828 0.0
H336 H 0.32895 0.50816 0.82764 0.0
H337 H 0.372 0.56046 0.81854 0.0
H338 H 0.38581 0.59533 0.95576 0.0
C339 C 0.48206 0.69245 0.89862 0.0
C340 C 0.40429 0.66649 0.82268 0.0
C341 C 0.51154 0.71671 0.88269 0.0
C342 C 0.32428 0.52698 0.82783 0.0
C343 C 0.34895 0.5569 0.82372 0.0
C344 C 0.3907 0.61507 0.91818 0.0
C345 C 0.45633 0.69629 0.8895 0.0
C346 C 0.42506 0.66875 0.88437 0.0
C347 C 0.34429 0.58192 0.83476 0.0
C348 C 0.37092 0.61242 0.85376 0.0
H349 H 0.49362 0.77211 0.83836 0.0
H350 H 0.44197 0.72983 0.86827 0.0
H351 H 0.43236 0.64394 -0.01729 0.0
H352 H 0.26667 0.54305 0.85718 0.0
H353 H 0.31001 0.59564 0.84754 0.0
C354 C 0.76075 0.48011 0.14706 0.0
C355 C 0.79082 0.50536 0.14575 0.0
C356 C 0.75589 0.45015 0.15137 0.0
C357 C 0.79506 0.41209 0.074 0.0
H358 H 0.74117 0.34108 0.20561 0.0
C359 C 0.81198 0.30906 0.11289 0.0
C360 C 0.78719 0.28047 0.13572 0.0
C361 C 0.80747 0.33373 0.09636 0.0
C362 C 0.75575 0.36047 0.16678 0.0
H363 H 0.8389 0.51937 0.15953 0.0
H364 H 0.8304 0.46734 0.16861 0.0
H365 H 0.74282 0.38993 0.22906 0.0
H366 H 0.7378 0.25425 0.15018 0.0
H367 H 0.7297 0.29729 0.11922 0.0
H368 H 0.80812 0.38312 0.01151 0.0
C369 C 0.81068 0.47057 0.16426 0.0
C370 C 0.75688 0.38848 0.181 0.0
C371 C 0.81551 0.50034 0.16021 0.0
C372 C 0.7573 0.27597 0.13166 0.0
C373 C 0.75274 0.3008 0.11567 0.0
C374 C 0.79366 0.38414 0.05907 0.0
C375 C 0.78105 0.44526 0.15461 0.0
C376 C 0.77734 0.41475 0.13652 0.0
C377 C 0.77801 0.33036 0.10255 0.0
C378 C 0.77477 0.35818 0.10701 0.0
H379 H 0.7413 0.48326 0.13508 0.0
H380 H 0.73279 0.43095 0.14444 0.0
H381 H 0.81043 0.43186 0.03728 0.0
H382 H 0.83528 0.31319 0.11653 0.0
H383 H 0.82755 0.35607 0.08674 0.0
C384 C 0.27745 0.74157 0.52103 0.0
C385 C 0.28237 0.77158 0.5254 0.0
C386 C 0.30171 0.73598 0.53568 0.0
C387 C 0.38413 0.7737 0.6014 0.0
H388 H 0.39246 0.73019 0.41599 0.0
C389 C 0.50146 0.80222 0.49049 0.0
C390 C 0.50794 0.77845 0.50438 0.0
C391 C 0.47115 0.79598 0.48749 0.0
C392 C 0.39025 0.74212 0.46837 0.0
H393 H 0.31497 0.81835 0.55878 0.0
H394 H 0.35682 0.80877 0.58619 0.0
H395 H 0.34318 0.72752 0.44195 0.0
H396 H 0.48783 0.72913 0.51468 0.0
H397 H 0.43457 0.71818 0.50683 0.0
H398 H 0.43168 0.7897 0.62469 0.0
C399 C 0.33461 0.7894 0.57087 0.0
C400 C 0.362 0.7404 0.48397 0.0
C401 C 0.3105 0.79496 0.55573 0.0
C402 C 0.48358 0.7479 0.50316 0.0
C403 C 0.45308 0.74163 0.49971 0.0
C404 C 0.41233 0.77575 0.58509 0.0
C405 C 0.3311 0.76028 0.55588 0.0
C406 C 0.35886 0.75693 0.54937 0.0
C407 C 0.44679 0.76584 0.49718 0.0
C408 C 0.41587 0.76072 0.51717 0.0
H409 H 0.25609 0.72317 0.49679 0.0
H410 H 0.29804 0.71314 0.52536 0.0
H411 H 0.38244 0.78619 0.65318 0.0
H412 H 0.51975 0.82595 0.4911 0.0
H413 H 0.46678 0.81496 0.48413 0.0
C414 C 0.55801 0.28582 0.80688 0.0
C415 C 0.53297 0.29099 0.80961 0.0
C416 C 0.58816 0.31064 0.81 0.0
C417 C 0.62597 0.38714 0.73191 0.0
H418 H 0.69736 0.40673 0.86488 0.0
C419 C 0.72633 0.50836 0.76829 0.0
C420 C 0.7552 0.5132 0.79248 0.0
C421 C 0.70241 0.47881 0.75175 0.0
C422 C 0.67788 0.4012 0.82562 0.0
H423 H 0.51965 0.32526 0.82956 0.0
H424 H 0.57205 0.36829 0.8362 0.0
H425 H 0.64902 0.35901 0.89027 0.0
H426 H 0.7828 0.49158 0.80918 0.0
H427 H 0.74109 0.43981 0.77834 0.0
H428 H 0.65428 0.42899 0.66724 0.0
C429 C 0.56847 0.3453 0.82989 0.0
C430 C 0.65018 0.37404 0.84094 0.0
C431 C 0.5385 0.32063 0.82711 0.0
C432 C 0.76084 0.48854 0.78966 0.0
C433 C 0.73677 0.4588 0.77369 0.0
C434 C 0.65362 0.41395 0.71586 0.0
C435 C 0.59343 0.34072 0.81617 0.0
C436 C 0.62377 0.36742 0.79605 0.0
C437 C 0.70686 0.45342 0.75933 0.0
C438 C 0.67966 0.42194 0.76439 0.0
H439 H 0.55446 0.26327 0.79253 0.0
H440 H 0.60713 0.3066 0.7998 0.0
H441 H 0.60601 0.38209 0.69514 0.0
H442 H 0.72133 0.52694 0.77089 0.0
H443 H 0.67977 0.47571 0.74114 0.0
loop_
_geom_bond_atom_site_label_1
_geom_bond_atom_site_label_2
_geom_bond_distance
_geom_bond_site_symmetry_2
_ccdc_geom_bond_type
O0 Cd1 2.223 . S
O0 C8 1.315 1_554 S
Cd1 O0 2.223 . S
Cd1 O4 2.297 . S
Cd1 O5 2.439 . S
Cd1 O11 2.240 . S
Cd2 O3 2.240 . S
Cd2 O10 2.223 1_556 S
Cd2 O12 2.297 . S
Cd2 O13 2.439 1_556 S
O3 Cd2 2.240 . S
O3 C8 1.279 . S
O4 Cd1 2.297 . S
O4 C6 1.247 . S
O5 Cd1 2.439 . S
O5 C6 1.208 . S
C6 O4 1.247 . S
C6 O5 1.208 . S
C7 O12 1.247 1_554 S
C7 O13 1.208 . S
C8 O0 1.315 1_556 S
C8 O3 1.279 . S
C9 O10 1.315 . S
C9 O11 1.279 . S
O10 Cd2 2.223 1_554 S
O10 C9 1.315 . S
O11 Cd1 2.240 . S
O11 C9 1.279 . S
O12 Cd2 2.297 . S
O12 C7 1.247 1_556 S
O13 Cd2 2.439 1_554 S
O13 C7 1.208 . S
O14 Cd15 2.223 . S
O14 C22 1.315 . S
Cd15 O14 2.223 . S
Cd15 O18 2.297 . S
Cd15 O19 2.439 . S
Cd15 O25 2.240 . S
Cd16 O17 2.240 . S
Cd16 O24 2.223 . S
Cd16 O26 2.297 . S
Cd16 O27 2.439 . S
O17 Cd16 2.240 . S
O17 C22 1.279 . S
O18 Cd15 2.297 . S
O18 C20 1.247 . S
O19 Cd15 2.439 . S
O19 C20 1.208 . S
C20 O18 1.247 . S
C20 O19 1.208 . S
C21 O26 1.247 . S
C21 O27 1.208 . S
C22 O14 1.315 . S
C22 O17 1.279 . S
C23 O24 1.315 . S
C23 O25 1.279 . S
O24 Cd16 2.223 . S
O24 C23 1.315 . S
O25 Cd15 2.240 . S
O25 C23 1.279 . S
O26 Cd16 2.297 . S
O26 C21 1.247 . S
O27 Cd16 2.439 . S
O27 C21 1.208 . S
O28 Cd29 2.223 . S
O28 C36 1.315 . S
Cd29 O28 2.223 . S
Cd29 O32 2.297 . S
Cd29 O33 2.439 . S
Cd29 O39 2.240 . S
Cd30 O31 2.240 . S
Cd30 O38 2.223 . S
Cd30 O40 2.297 . S
Cd30 O41 2.439 . S
O31 Cd30 2.240 . S
O31 C36 1.279 . S
O32 Cd29 2.297 . S
O32 C34 1.247 . S
O33 Cd29 2.439 . S
O33 C34 1.208 . S
C34 O32 1.247 . S
C34 O33 1.208 . S
C35 O40 1.247 . S
C35 O41 1.208 . S
C36 O28 1.315 . S
C36 O31 1.279 . S
C37 O38 1.315 . S
C37 O39 1.279 . S
O38 Cd30 2.223 . S
O38 C37 1.315 . S
O39 Cd29 2.240 . S
O39 C37 1.279 . S
O40 Cd30 2.297 . S
O40 C35 1.247 . S
O41 Cd30 2.439 . S
O41 C35 1.208 . S
O42 Cd43 2.223 . S
O42 C50 1.315 1_554 S
Cd43 O42 2.223 . S
Cd43 O46 2.297 . S
Cd43 O47 2.439 . S
Cd43 O53 2.240 . S
Cd44 O45 2.240 . S
Cd44 O52 2.223 1_556 S
Cd44 O54 2.297 . S
Cd44 O55 2.439 1_556 S
O45 Cd44 2.240 . S
O45 C50 1.279 . S
O46 Cd43 2.297 . S
O46 C48 1.247 . S
O47 Cd43 2.439 . S
O47 C48 1.208 . S
C48 O46 1.247 . S
C48 O47 1.208 . S
C49 O54 1.247 1_554 S
C49 O55 1.208 . S
C50 O42 1.315 1_556 S
C50 O45 1.279 . S
C51 O52 1.315 . S
C51 O53 1.279 . S
O52 Cd44 2.223 1_554 S
O52 C51 1.315 . S
O53 Cd43 2.240 . S
O53 C51 1.279 . S
O54 Cd44 2.297 . S
O54 C49 1.247 1_556 S
O55 Cd44 2.439 1_554 S
O55 C49 1.208 . S
O56 Cd57 2.223 . S
O56 C64 1.315 . S
Cd57 O56 2.223 . S
Cd57 O60 2.297 . S
Cd57 O61 2.439 . S
Cd57 O67 2.240 . S
Cd58 O59 2.240 . S
Cd58 O66 2.223 . S
Cd58 O68 2.297 . S
Cd58 O69 2.439 . S
O59 Cd58 2.240 . S
O59 C64 1.279 . S
O60 Cd57 2.297 . S
O60 C62 1.247 . S
O61 Cd57 2.439 . S
O61 C62 1.208 . S
C62 O60 1.247 . S
C62 O61 1.208 . S
C63 O68 1.247 . S
C63 O69 1.208 . S
C64 O56 1.315 . S
C64 O59 1.279 . S
C65 O66 1.315 . S
C65 O67 1.279 . S
O66 Cd58 2.223 . S
O66 C65 1.315 . S
O67 Cd57 2.240 . S
O67 C65 1.279 . S
O68 Cd58 2.297 . S
O68 C63 1.247 . S
O69 Cd58 2.439 . S
O69 C63 1.208 . S
O70 Cd71 2.223 . S
O70 C78 1.315 . S
Cd71 O70 2.223 . S
Cd71 O74 2.297 . S
Cd71 O75 2.439 . S
Cd71 O81 2.240 . S
Cd72 O73 2.240 . S
Cd72 O80 2.223 . S
Cd72 O82 2.297 . S
Cd72 O83 2.439 . S
O73 Cd72 2.240 . S
O73 C78 1.279 . S
O74 Cd71 2.297 . S
O74 C76 1.247 . S
O75 Cd71 2.439 . S
O75 C76 1.208 . S
C76 O74 1.247 . S
C76 O75 1.208 . S
C77 O82 1.247 . S
C77 O83 1.208 . S
C78 O70 1.315 . S
C78 O73 1.279 . S
C79 O80 1.315 . S
C79 O81 1.279 . S
O80 Cd72 2.223 . S
O80 C79 1.315 . S
O81 Cd71 2.240 . S
O81 C79 1.279 . S
O82 Cd72 2.297 . S
O82 C77 1.247 . S
O83 Cd72 2.439 . S
O83 C77 1.208 . S
C84 C85 1.355 . S
C84 C86 1.327 . S
C84 H109 0.950 . S
C85 C84 1.355 . S
C85 C101 1.348 1_556 S
C86 C84 1.327 . S
C86 C105 1.429 . S
C86 H110 0.950 . S
C87 C104 1.574 . S
C87 C106 1.368 . S
C87 H111 0.949 . S
H88 C92 0.949 . S
C89 C90 1.349 . S
C89 C91 1.327 . S
C89 H112 0.950 . S
C90 C89 1.349 . S
C90 C102 1.349 . S
C91 C89 1.327 . S
C91 C107 1.429 . S
C91 H113 0.950 . S
C92 H88 0.949 . S
C92 C100 1.574 . S
C92 C108 1.368 . S
H93 C101 0.950 . S
H94 C99 0.950 . S
H95 C100 0.949 . S
H96 C102 0.950 . S
H97 C103 0.950 . S
H98 C104 0.949 . S
C99 H94 0.950 . S
C99 C101 1.327 1_556 S
C99 C105 1.429 . S
C100 C92 1.574 . S
C100 H95 0.949 . S
C100 C106 1.368 . S
C101 C85 1.348 1_554 S
C101 H93 0.950 . S
C101 C99 1.327 1_554 S
C102 C90 1.349 . S
C102 H96 0.950 . S
C102 C103 1.327 . S
C103 H97 0.950 . S
C103 C102 1.327 . S
C103 C107 1.429 . S
C104 C87 1.574 . S
C104 H98 0.949 . S
C104 C108 1.368 . S
C105 C86 1.429 . S
C105 C99 1.429 . S
C105 C106 1.523 . S
C106 C87 1.368 . S
C106 C100 1.368 . S
C106 C105 1.523 . S
C107 C91 1.429 . S
C107 C103 1.429 . S
C107 C108 1.523 . S
C108 C92 1.368 . S
C108 C104 1.368 . S
C108 C107 1.523 . S
H109 C84 0.950 . S
H110 C86 0.950 . S
H111 C87 0.949 . S
H112 C89 0.950 . S
H113 C91 0.950 . S
C114 C115 1.349 . S
C114 C116 1.327 . S
C114 H139 0.950 . S
C115 C114 1.349 . S
C115 C131 1.349 . S
C116 C114 1.327 . S
C116 C135 1.429 . S
C116 H140 0.950 . S
C117 C134 1.574 1_655 S
C117 C136 1.368 . S
C117 H141 0.949 . S
H118 C122 0.949 . S
C119 C120 1.349 . S
C119 C121 1.327 . S
C119 H142 0.950 . S
C120 C119 1.349 . S
C120 C132 1.349 . S
C121 C119 1.327 . S
C121 C137 1.429 . S
C121 H143 0.950 . S
C122 H118 0.949 . S
C122 C130 1.574 1_455 S
C122 C138 1.368 . S
H123 C131 0.950 . S
H124 C129 0.950 . S
H125 C130 0.949 . S
H126 C132 0.950 . S
H127 C133 0.950 . S
H128 C134 0.949 . S
C129 H124 0.950 . S
C129 C131 1.327 . S
C129 C135 1.429 . S
C130 C122 1.574 1_655 S
C130 H125 0.949 . S
C130 C136 1.368 . S
C131 C115 1.349 . S
C131 H123 0.950 . S
C131 C129 1.327 . S
C132 C120 1.349 . S
C132 H126 0.950 . S
C132 C133 1.327 . S
C133 H127 0.950 . S
C133 C132 1.327 . S
C133 C137 1.429 . S
C134 C117 1.574 1_455 S
C134 H128 0.949 . S
C134 C138 1.368 . S
C135 C116 1.429 . S
C135 C129 1.429 . S
C135 C136 1.523 . S
C136 C117 1.368 . S
C136 C130 1.368 . S
C136 C135 1.523 . S
C137 C121 1.429 . S
C137 C133 1.429 . S
C137 C138 1.523 . S
C138 C122 1.368 . S
C138 C134 1.368 . S
C138 C137 1.523 . S
H139 C114 0.950 . S
H140 C116 0.950 . S
H141 C117 0.949 . S
H142 C119 0.950 . S
H143 C121 0.950 . S
C144 C145 1.349 . S
C144 C146 1.327 . S
C144 H169 0.950 . S
C145 C144 1.349 . S
C145 C161 1.349 . S
C146 C144 1.327 . S
C146 C165 1.429 . S
C146 H170 0.950 . S
C147 C164 1.574 1_545 S
C147 C166 1.368 . S
C147 H171 0.949 . S
H148 C152 0.949 . S
C149 C150 1.349 . S
C149 C151 1.327 . S
C149 H172 0.950 . S
C150 C149 1.349 . S
C150 C162 1.349 . S
C151 C149 1.327 . S
C151 C167 1.429 . S
C151 H173 0.950 . S
C152 H148 0.949 . S
C152 C160 1.574 1_565 S
C152 C168 1.368 . S
H153 C161 0.950 . S
H154 C159 0.950 . S
H155 C160 0.949 . S
H156 C162 0.950 . S
H157 C163 0.950 . S
H158 C164 0.949 . S
C159 H154 0.950 . S
C159 C161 1.327 . S
C159 C165 1.429 . S
C160 C152 1.574 1_545 S
C160 H155 0.949 . S
C160 C166 1.368 . S
C161 C145 1.349 . S
C161 H153 0.950 . S
C161 C159 1.327 . S
C162 C150 1.349 . S
C162 H156 0.950 . S
C162 C163 1.327 . S
C163 H157 0.950 . S
C163 C162 1.327 . S
C163 C167 1.429 . S
C164 C147 1.574 1_565 S
C164 H158 0.949 . S
C164 C168 1.368 . S
C165 C146 1.429 . S
C165 C159 1.429 . S
C165 C166 1.523 . S
C166 C147 1.368 . S
C166 C160 1.368 . S
C166 C165 1.523 . S
C167 C151 1.429 . S
C167 C163 1.429 . S
C167 C168 1.523 . S
C168 C152 1.368 . S
C168 C164 1.368 . S
C168 C167 1.523 . S
H169 C144 0.950 . S
H170 C146 0.950 . S
H171 C147 0.949 . S
H172 C149 0.950 . S
H173 C151 0.950 . S
C174 C175 1.355 . S
C174 C176 1.327 . S
C174 H199 0.950 . S
C175 C174 1.355 . S
C175 C191 1.347 1_556 S
C176 C174 1.327 . S
C176 C195 1.429 . S
C176 H200 0.950 . S
C177 C194 1.574 . S
C177 C196 1.368 . S
C177 H201 0.949 . S
H178 C182 0.949 . S
C179 C180 1.349 . S
C179 C181 1.327 . S
C179 H202 0.950 . S
C180 C179 1.349 . S
C180 C192 1.349 . S
C181 C179 1.327 . S
C181 C197 1.429 . S
C181 H203 0.950 . S
C182 H178 0.949 . S
C182 C190 1.574 . S
C182 C198 1.368 . S
H183 C191 0.950 . S
H184 C189 0.950 . S
H185 C190 0.949 . S
H186 C192 0.950 . S
H187 C193 0.950 . S
H188 C194 0.949 . S
C189 H184 0.950 . S
C189 C191 1.327 1_556 S
C189 C195 1.429 . S
C190 C182 1.574 . S
C190 H185 0.949 . S
C190 C196 1.368 . S
C191 C175 1.347 1_554 S
C191 H183 0.950 . S
C191 C189 1.327 1_554 S
C192 C180 1.349 . S
C192 H186 0.950 . S
C192 C193 1.327 . S
C193 H187 0.950 . S
C193 C192 1.327 . S
C193 C197 1.429 . S
C194 C177 1.574 . S
C194 H188 0.949 . S
C194 C198 1.368 . S
C195 C176 1.429 . S
C195 C189 1.429 . S
C195 C196 1.523 . S
C196 C177 1.368 . S
C196 C190 1.368 . S
C196 C195 1.523 . S
C197 C181 1.429 . S
C197 C193 1.429 . S
C197 C198 1.523 . S
C198 C182 1.368 . S
C198 C194 1.368 . S
C198 C197 1.523 . S
H199 C174 0.950 . S
H200 C176 0.950 . S
H201 C177 0.949 . S
H202 C179 0.950 . S
H203 C181 0.950 . S
C204 C205 1.349 1_556 S
C204 C206 1.327 1_556 S
C204 H229 0.950 . S
C205 C204 1.349 1_554 S
C205 C221 1.349 . S
C206 C204 1.327 1_554 S
C206 C225 1.429 . S
C206 H230 0.947 1_554 S
C207 C224 1.574 1_655 S
C207 C226 1.368 . S
C207 H231 0.949 . S
H208 C212 0.949 . S
C209 C210 1.349 . S
C209 C211 1.327 . S
C209 H232 0.950 . S
C210 C209 1.349 . S
C210 C222 1.349 . S
C211 C209 1.327 . S
C211 C227 1.429 . S
C211 H233 0.950 . S
C212 H208 0.949 . S
C212 C220 1.574 1_455 S
C212 C228 1.368 . S
H213 C221 0.950 . S
H214 C219 0.950 . S
H215 C220 0.949 . S
H216 C222 0.950 . S
H217 C223 0.950 . S
H218 C224 0.949 . S
C219 H214 0.950 . S
C219 C221 1.327 . S
C219 C225 1.429 . S
C220 C212 1.574 1_655 S
C220 H215 0.949 . S
C220 C226 1.368 . S
C221 C205 1.349 . S
C221 H213 0.950 . S
C221 C219 1.327 . S
C222 C210 1.349 . S
C222 H216 0.950 . S
C222 C223 1.327 . S
C223 H217 0.950 . S
C223 C222 1.327 . S
C223 C227 1.429 . S
C224 C207 1.574 1_455 S
C224 H218 0.949 . S
C224 C228 1.368 . S
C225 C206 1.429 . S
C225 C219 1.429 . S
C225 C226 1.523 . S
C226 C207 1.368 . S
C226 C220 1.368 . S
C226 C225 1.523 . S
C227 C211 1.429 . S
C227 C223 1.429 . S
C227 C228 1.523 . S
C228 C212 1.368 . S
C228 C224 1.368 . S
C228 C227 1.523 . S
H229 C204 0.950 . S
H230 C206 0.947 1_556 S
H231 C207 0.949 . S
H232 C209 0.950 . S
H233 C211 0.950 . S
C234 C235 1.349 . S
C234 C236 1.327 . S
C234 H259 0.950 . S
C235 C234 1.349 . S
C235 C251 1.349 . S
C236 C234 1.327 . S
C236 C255 1.429 . S
C236 H260 0.950 . S
C237 C254 1.574 1_545 S
C237 C256 1.368 . S
C237 H261 0.949 . S
H238 C242 0.949 . S
C239 C240 1.349 . S
C239 C241 1.327 . S
C239 H262 0.950 . S
C240 C239 1.349 . S
C240 C252 1.349 . S
C241 C239 1.327 . S
C241 C257 1.429 . S
C241 H263 0.950 . S
C242 H238 0.949 . S
C242 C250 1.574 1_565 S
C242 C258 1.368 . S
H243 C251 0.950 . S
H244 C249 0.950 . S
H245 C250 0.949 . S
H246 C252 0.950 . S
H247 C253 0.950 . S
H248 C254 0.949 . S
C249 H244 0.950 . S
C249 C251 1.327 . S
C249 C255 1.429 . S
C250 C242 1.574 1_545 S
C250 H245 0.949 . S
C250 C256 1.368 . S
C251 C235 1.349 . S
C251 H243 0.950 . S
C251 C249 1.327 . S
C252 C240 1.349 . S
C252 H246 0.950 . S
C252 C253 1.327 . S
C253 H247 0.950 . S
C253 C252 1.327 . S
C253 C257 1.429 . S
C254 C237 1.574 1_565 S
C254 H248 0.949 . S
C254 C258 1.368 . S
C255 C236 1.429 . S
C255 C249 1.429 . S
C255 C256 1.523 . S
C256 C237 1.368 . S
C256 C250 1.368 . S
C256 C255 1.523 . S
C257 C241 1.429 . S
C257 C253 1.429 . S
C257 C258 1.523 . S
C258 C242 1.368 . S
C258 C254 1.368 . S
C258 C257 1.523 . S
H259 C234 0.950 . S
H260 C236 0.950 . S
H261 C237 0.949 . S
H262 C239 0.950 . S
H263 C241 0.950 . S
C264 C265 1.349 . S
C264 C266 1.327 . S
C264 H289 0.950 . S
C265 C264 1.349 . S
C265 C281 1.349 . S
C266 C264 1.327 . S
C266 C285 1.429 . S
C266 H290 0.950 . S
C267 C284 1.574 . S
C267 C286 1.368 . S
C267 H291 0.949 . S
H268 C272 0.949 . S
C269 C270 1.349 . S
C269 C271 1.327 . S
C269 H292 0.950 . S
C270 C269 1.349 . S
C270 C282 1.349 . S
C271 C269 1.327 . S
C271 C287 1.429 . S
C271 H293 0.950 . S
C272 H268 0.949 . S
C272 C280 1.574 . S
C272 C288 1.368 . S
H273 C281 0.950 . S
H274 C279 0.950 . S
H275 C280 0.949 . S
H276 C282 0.950 . S
H277 C283 0.950 . S
H278 C284 0.949 . S
C279 H274 0.950 . S
C279 C281 1.327 . S
C279 C285 1.429 . S
C280 C272 1.574 . S
C280 H275 0.949 . S
C280 C286 1.368 . S
C281 C265 1.349 . S
C281 H273 0.950 . S
C281 C279 1.327 . S
C282 C270 1.349 . S
C282 H276 0.950 . S
C282 C283 1.327 . S
C283 H277 0.950 . S
C283 C282 1.327 . S
C283 C287 1.429 . S
C284 C267 1.574 . S
C284 H278 0.949 . S
C284 C288 1.368 . S
C285 C266 1.429 . S
C285 C279 1.429 . S
C285 C286 1.523 . S
C286 C267 1.368 . S
C286 C280 1.368 . S
C286 C285 1.523 . S
C287 C271 1.429 . S
C287 C283 1.429 . S
C287 C288 1.523 . S
C288 C272 1.368 . S
C288 C284 1.368 . S
C288 C287 1.523 . S
H289 C264 0.950 . S
H290 C266 0.950 . S
H291 C267 0.949 . S
H292 C269 0.950 . S
H293 C271 0.950 . S
C294 C295 1.349 . S
C294 C296 1.327 . S
C294 H319 0.950 . S
C295 C294 1.349 . S
C295 C311 1.349 . S
C296 C294 1.327 . S
C296 C315 1.429 . S
C296 H320 0.950 . S
C297 C314 1.574 . S
C297 C316 1.368 . S
C297 H321 0.949 . S
H298 C302 0.949 . S
C299 C300 1.349 . S
C299 C301 1.327 . S
C299 H322 0.950 . S
C300 C299 1.349 . S
C300 C312 1.349 . S
C301 C299 1.327 . S
C301 C317 1.429 . S
C301 H323 0.950 . S
C302 H298 0.949 . S
C302 C310 1.574 . S
C302 C318 1.368 . S
H303 C311 0.950 . S
H304 C309 0.950 . S
H305 C310 0.949 . S
H306 C312 0.950 . S
H307 C313 0.950 . S
H308 C314 0.949 . S
C309 H304 0.950 . S
C309 C311 1.327 . S
C309 C315 1.429 . S
C310 C302 1.574 . S
C310 H305 0.949 . S
C310 C316 1.368 . S
C311 C295 1.349 . S
C311 H303 0.950 . S
C311 C309 1.327 . S
C312 C300 1.349 . S
C312 H306 0.950 . S
C312 C313 1.327 . S
C313 H307 0.950 . S
C313 C312 1.327 . S
C313 C317 1.429 . S
C314 C297 1.574 . S
C314 H308 0.949 . S
C314 C318 1.368 . S
C315 C296 1.429 . S
C315 C309 1.429 . S
C315 C316 1.523 . S
C316 C297 1.368 . S
C316 C310 1.368 . S
C316 C315 1.523 . S
C317 C301 1.429 . S
C317 C313 1.429 . S
C317 C318 1.523 . S
C318 C302 1.368 . S
C318 C314 1.368 . S
C318 C317 1.523 . S
H319 C294 0.950 . S
H320 C296 0.950 . S
H321 C297 0.949 . S
H322 C299 0.950 . S
H323 C301 0.950 . S
C324 C325 1.349 . S
C324 C326 1.327 . S
C324 H349 0.950 . S
C325 C324 1.349 . S
C325 C341 1.349 . S
C326 C324 1.327 . S
C326 C345 1.429 . S
C326 H350 0.950 . S
C327 C344 1.574 . S
C327 C346 1.368 . S
C327 H351 0.949 . S
H328 C332 0.949 . S
C329 C330 1.349 . S
C329 C331 1.327 . S
C329 H352 0.950 1_556 S
C330 C329 1.349 . S
C330 C342 1.349 . S
C331 C329 1.327 . S
C331 C347 1.429 . S
C331 H353 0.950 1_556 S
C332 H328 0.949 . S
C332 C340 1.574 . S
C332 C348 1.368 . S
H333 C341 0.950 . S
H334 C339 0.950 . S
H335 C340 0.949 . S
H336 C342 0.950 . S
H337 C343 0.950 . S
H338 C344 0.949 . S
C339 H334 0.950 . S
C339 C341 1.327 . S
C339 C345 1.429 . S
C340 C332 1.574 . S
C340 H335 0.949 . S
C340 C346 1.368 . S
C341 C325 1.349 . S
C341 H333 0.950 . S
C341 C339 1.327 . S
C342 C330 1.349 . S
C342 H336 0.950 . S
C342 C343 1.327 . S
C343 H337 0.950 . S
C343 C342 1.327 . S
C343 C347 1.429 . S
C344 C327 1.574 . S
C344 H338 0.949 . S
C344 C348 1.368 . S
C345 C326 1.429 . S
C345 C339 1.429 . S
C345 C346 1.523 . S
C346 C327 1.368 . S
C346 C340 1.368 . S
C346 C345 1.523 . S
C347 C331 1.429 . S
C347 C343 1.429 . S
C347 C348 1.523 . S
C348 C332 1.368 . S
C348 C344 1.368 . S
C348 C347 1.523 . S
H349 C324 0.950 . S
H350 C326 0.950 . S
H351 C327 0.949 . S
H352 C329 0.950 1_554 S
H353 C331 0.950 1_554 S
C354 C355 1.349 . S
C354 C356 1.327 . S
C354 H379 0.950 . S
C355 C354 1.349 . S
C355 C371 1.349 . S
C356 C354 1.327 . S
C356 C375 1.429 . S
C356 H380 0.950 . S
C357 C374 1.574 . S
C357 C376 1.368 . S
C357 H381 0.949 . S
H358 C362 0.949 . S
C359 C360 1.349 . S
C359 C361 1.327 . S
C359 H382 0.950 . S
C360 C359 1.349 . S
C360 C372 1.349 . S
C361 C359 1.327 . S
C361 C377 1.429 . S
C361 H383 0.950 . S
C362 H358 0.949 . S
C362 C370 1.574 . S
C362 C378 1.368 . S
H363 C371 0.950 . S
H364 C369 0.950 . S
H365 C370 0.949 . S
H366 C372 0.950 . S
H367 C373 0.950 . S
H368 C374 0.949 . S
C369 H364 0.950 . S
C369 C371 1.327 . S
C369 C375 1.429 . S
C370 C362 1.574 . S
C370 H365 0.949 . S
C370 C376 1.368 . S
C371 C355 1.349 . S
C371 H363 0.950 . S
C371 C369 1.327 . S
C372 C360 1.349 . S
C372 H366 0.950 . S
C372 C373 1.327 . S
C373 H367 0.950 . S
C373 C372 1.327 . S
C373 C377 1.429 . S
C374 C357 1.574 . S
C374 H368 0.949 . S
C374 C378 1.368 . S
C375 C356 1.429 . S
C375 C369 1.429 . S
C375 C376 1.523 . S
C376 C357 1.368 . S
C376 C370 1.368 . S
C376 C375 1.523 . S
C377 C361 1.429 . S
C377 C373 1.429 . S
C377 C378 1.523 . S
C378 C362 1.368 . S
C378 C374 1.368 . S
C378 C377 1.523 . S
H379 C354 0.950 . S
H380 C356 0.950 . S
H381 C357 0.949 . S
H382 C359 0.950 . S
H383 C361 0.950 . S
C384 C385 1.349 . S
C384 C386 1.327 . S
C384 H409 0.950 . S
C385 C384 1.349 . S
C385 C401 1.349 . S
C386 C384 1.327 . S
C386 C405 1.429 . S
C386 H410 0.950 . S
C387 C404 1.574 . S
C387 C406 1.368 . S
C387 H411 0.949 . S
H388 C392 0.949 . S
C389 C390 1.349 . S
C389 C391 1.327 . S
C389 H412 0.950 . S
C390 C389 1.349 . S
C390 C402 1.349 . S
C391 C389 1.327 . S
C391 C407 1.429 . S
C391 H413 0.950 . S
C392 H388 0.949 . S
C392 C400 1.574 . S
C392 C408 1.368 . S
H393 C401 0.950 . S
H394 C399 0.950 . S
H395 C400 0.949 . S
H396 C402 0.950 . S
H397 C403 0.950 . S
H398 C404 0.949 . S
C399 H394 0.950 . S
C399 C401 1.327 . S
C399 C405 1.429 . S
C400 C392 1.574 . S
C400 H395 0.949 . S
C400 C406 1.368 . S
C401 C385 1.349 . S
C401 H393 0.950 . S
C401 C399 1.327 . S
C402 C390 1.349 . S
C402 H396 0.950 . S
C402 C403 1.327 . S
C403 H397 0.950 . S
C403 C402 1.327 . S
C403 C407 1.429 . S
C404 C387 1.574 . S
C404 H398 0.949 . S
C404 C408 1.368 . S
C405 C386 1.429 . S
C405 C399 1.429 . S
C405 C406 1.523 . S
C406 C387 1.368 . S
C406 C400 1.368 . S
C406 C405 1.523 . S
C407 C391 1.429 . S
C407 C403 1.429 . S
C407 C408 1.523 . S
C408 C392 1.368 . S
C408 C404 1.368 . S
C408 C407 1.523 . S
H409 C384 0.950 . S
H410 C386 0.950 . S
H411 C387 0.949 . S
H412 C389 0.950 . S
H413 C391 0.950 . S
C414 C415 1.349 . S
C414 C416 1.327 . S
C414 H439 0.950 . S
C415 C414 1.349 . S
C415 C431 1.349 . S
C416 C414 1.327 . S
C416 C435 1.429 . S
C416 H440 0.950 . S
C417 C434 1.574 . S
C417 C436 1.368 . S
C417 H441 0.949 . S
H418 C422 0.949 . S
C419 C420 1.349 . S
C419 C421 1.327 . S
C419 H442 0.950 . S
C420 C419 1.349 . S
C420 C432 1.349 . S
C421 C419 1.327 . S
C421 C437 1.429 . S
C421 H443 0.950 . S
C422 H418 0.949 . S
C422 C430 1.574 . S
C422 C438 1.368 . S
H423 C431 0.950 . S
H424 C429 0.950 . S
H425 C430 0.949 . S
H426 C432 0.950 1_554 S
H427 C433 0.950 1_554 S
H428 C434 0.949 . S
C429 H424 0.950 . S
C429 C431 1.327 . S
C429 C435 1.429 . S
C430 C422 1.574 . S
C430 H425 0.949 . S
C430 C436 1.368 . S
C431 C415 1.349 . S
C431 H423 0.950 . S
C431 C429 1.327 . S
C432 C420 1.349 . S
C432 H426 0.950 1_556 S
C432 C433 1.327 . S
C433 H427 0.950 1_556 S
C433 C432 1.327 . S
C433 C437 1.429 . S
C434 C417 1.574 . S
C434 H428 0.949 . S
C434 C438 1.368 . S
C435 C416 1.429 . S
C435 C429 1.429 . S
C435 C436 1.523 . S
C436 C417 1.368 . S
C436 C430 1.368 . S
C436 C435 1.523 . S
C437 C421 1.429 . S
C437 C433 1.429 . S
C437 C438 1.523 . S
C438 C422 1.368 . S
C438 C434 1.368 . S
C438 C437 1.523 . S
H439 C414 0.950 . S
H440 C416 0.950 . S
H441 C417 0.949 . S
H442 C419 0.950 . S
H443 C421 0.950 . S
C85 C6 1.381 1_556 S
C90 C77 1.385 . S
C115 C20 1.385 . S
C120 C7 1.385 . S
C145 C21 1.385 . S
C150 C34 1.385 . S
C175 C48 1.382 1_556 S
C180 C35 1.385 . S
C205 C49 1.385 . S
C210 C62 1.385 . S
C235 C76 1.386 . S
C240 C63 1.386 . S
C265 C64 1.122 . S
C270 C9 1.122 . S
C295 C78 1.122 . S
C300 C23 1.122 . S
C325 C37 1.122 . S
C330 C8 1.122 . S
C355 C51 1.122 . S
C360 C22 1.122 . S
C385 C65 1.122 . S
C390 C36 1.122 . S
C415 C79 1.122 . S
C420 C50 1.122 . S
