# Generated by pormake.
# Topology zfs, (5)-cn, num edge types: 1
# Building blocks:
#     Node 0, Type 0, BuildingBlock: XOMCOT_clean_sbu_0, # of connection points: 5
#     Node 1, Type 0, BuildingBlock: XOMCOT_clean_sbu_0, # of connection points: 5
#     Node 2, Type 0, BuildingBlock: XOMCOT_clean_sbu_0, # of connection points: 5
#     Node 3, Type 0, BuildingBlock: XOMCOT_clean_sbu_0, # of connection points: 5
#     Node 4, Type 0, BuildingBlock: XOMCOT_clean_sbu_0, # of connection points: 5
#     Node 5, Type 0, BuildingBlock: XOMCOT_clean_sbu_0, # of connection points: 5
#     Node 6, Type 0, BuildingBlock: XOMCOT_clean_sbu_0, # of connection points: 5
#     Node 7, Type 0, BuildingBlock: XOMCOT_clean_sbu_0, # of connection points: 5
#     Edge 8, Type (0, 0), BuildingBlock: EZIPEK_clean_linker_0, # of connection points: 2
#     Edge 9, Type (0, 0), BuildingBlock: EZIPEK_clean_linker_0, # of connection points: 2
#     Edge 10, Type (0, 0), BuildingBlock: EZIPEK_clean_linker_0, # of connection points: 2
#     Edge 11, Type (0, 0), BuildingBlock: EZIPEK_clean_linker_0, # of connection points: 2
#     Edge 12, Type (0, 0), BuildingBlock: EZIPEK_clean_linker_0, # of connection points: 2
#     Edge 13, Type (0, 0), BuildingBlock: EZIPEK_clean_linker_0, # of connection points: 2
#     Edge 14, Type (0, 0), BuildingBlock: EZIPEK_clean_linker_0, # of connection points: 2
#     Edge 15, Type (0, 0), BuildingBlock: EZIPEK_clean_linker_0, # of connection points: 2
#     Edge 16, Type (0, 0), BuildingBlock: EZIPEK_clean_linker_0, # of connection points: 2
#     Edge 17, Type (0, 0), BuildingBlock: EZIPEK_clean_linker_0, # of connection points: 2
#     Edge 18, Type (0, 0), BuildingBlock: EZIPEK_clean_linker_0, # of connection points: 2
#     Edge 19, Type (0, 0), BuildingBlock: EZIPEK_clean_linker_0, # of connection points: 2
#     Edge 20, Type (0, 0), BuildingBlock: EZIPEK_clean_linker_0, # of connection points: 2
#     Edge 21, Type (0, 0), BuildingBlock: EZIPEK_clean_linker_0, # of connection points: 2
#     Edge 22, Type (0, 0), BuildingBlock: EZIPEK_clean_linker_0, # of connection points: 2
#     Edge 23, Type (0, 0), BuildingBlock: EZIPEK_clean_linker_0, # of connection points: 2
#     Edge 24, Type (0, 0), BuildingBlock: EZIPEK_clean_linker_0, # of connection points: 2
#     Edge 25, Type (0, 0), BuildingBlock: EZIPEK_clean_linker_0, # of connection points: 2
#     Edge 26, Type (0, 0), BuildingBlock: EZIPEK_clean_linker_0, # of connection points: 2
#     Edge 27, Type (0, 0), BuildingBlock: EZIPEK_clean_linker_0, # of connection points: 2
# Relax obj value: 0.156
# Max RMSD: 0.166
# Mean RMSD: 0.166
data_MOF--net-zfs--node1-XOMCOT_clean_sbu_0--edge1-EZIPEK_clean_linker_0
_symmetry_space_group_name_H-M    P1
_symmetry_Int_Tables_number       1
_symmetry_cell_setting            triclinic
loop_
_symmetry_equiv_pos_as_xyz
'x, y, z'
_cell_length_a     25.417797
_cell_length_b     25.391941
_cell_length_c     31.533342
_cell_angle_alpha  89.861815
_cell_angle_beta   90.466506
_cell_angle_gamma 89.695994
loop_
_atom_site_label
_atom_site_type_symbol
_atom_site_fract_x
_atom_site_fract_y
_atom_site_fract_z
_atom_type_partial_charge
Co0 Co 0.07768 0.24455 0.19289 0.0
C1 C 1.02862 0.2641 0.11127 0.0
C2 C 0.98366 0.20777 0.14567 0.0
C3 C 0.96642 0.20836 0.10395 0.0
N4 N 1.02244 0.24337 0.15029 0.0
N5 N 0.99659 0.24237 0.08228 0.0
H6 H 0.06096 0.28909 0.10251 0.0
H7 H 0.97383 0.17843 0.16908 0.0
C8 C 0.9791 0.23502 0.24752 0.0
O9 O 0.95541 0.27079 0.22384 0.0
N10 N 0.13405 0.24685 0.23333 0.0
C11 C 0.17581 0.27932 0.23156 0.0
C12 C 0.20373 0.27501 0.26893 0.0
C13 C 0.13723 0.22262 0.27115 0.0
N14 N 0.17903 0.23966 0.29344 0.0
C15 C 0.08594 0.35566 0.17328 0.0
C16 C 0.04385 0.39244 0.24812 0.0
C17 C 0.06328 0.42889 0.21905 0.0
C18 C 0.08469 0.41002 0.18115 0.0
C19 C 0.04795 0.33874 0.23979 0.0
N20 N 0.06686 0.32038 0.20214 0.0
H21 H 0.10509 0.34212 0.14497 0.0
H22 H 0.03802 0.31263 0.2649 0.0
H23 H 0.18396 0.30603 0.2057 0.0
H24 H 0.10873 0.1948 0.28293 0.0
O25 O 0.12895 0.24596 0.14705 0.0
O26 O 0.09859 0.17397 0.17688 0.0
O27 O 1.0269 0.22218 0.23978 0.0
C28 C 0.12745 0.19467 0.14752 0.0
H29 H 0.9387 0.18143 0.08964 0.0
H30 H 0.23792 0.29758 0.27826 0.0
H31 H 1.02837 0.40532 0.27831 0.0
H32 H 0.10156 0.43696 0.15838 0.0
Co33 Co 0.82418 0.08272 0.43681 0.0
C34 C 0.80287 1.03509 0.35582 0.0
C35 C 0.85923 0.98892 0.39011 0.0
C36 C 0.86163 0.97525 0.34788 0.0
N37 N 0.82233 1.02694 0.39509 0.0
N38 N 0.82767 1.00646 0.32644 0.0
H39 H 0.77802 0.06792 0.3472 0.0
H40 H 0.88814 0.97766 0.41372 0.0
C41 C 0.83886 0.9848 0.49066 0.0
O42 O 0.80278 0.96114 0.46761 0.0
N43 N 0.8261 0.13924 0.47676 0.0
C44 C 0.79502 0.1825 0.47545 0.0
C45 C 0.80177 0.21002 0.5125 0.0
C46 C 0.85153 0.14087 0.5142 0.0
N47 N 0.837 0.18348 0.53644 0.0
C48 C 0.71205 0.08067 0.42434 0.0
C49 C 0.68664 0.05746 0.50739 0.0
C50 C 0.64632 0.06706 0.47796 0.0
C51 C 0.65926 0.0786 0.43602 0.0
C52 C 0.73898 0.06014 0.4944 0.0
N53 N 0.75134 0.07049 0.45305 0.0
H54 H 0.72096 0.09335 0.39272 0.0
H55 H 0.76942 0.05618 0.5182 0.0
H56 H 0.7671 0.19168 0.45042 0.0
H57 H 0.87762 0.11036 0.52613 0.0
O58 O 0.8135 0.13508 0.39257 0.0
O59 O 0.89074 0.1051 0.41266 0.0
O60 O 0.85178 1.0323 0.48211 0.0
C61 C 0.86398 0.13586 0.38716 0.0
H62 H 0.89171 0.95099 0.33346 0.0
H63 H 0.78047 0.24493 0.52225 0.0
H64 H 0.67776 0.04989 0.54038 0.0
H65 H 0.62882 0.08768 0.41286 0.0
Co66 Co 0.98253 0.83098 0.68831 0.0
C67 C 1.03096 0.805 0.60767 0.0
C68 C 0.08854 0.83943 0.64876 0.0
C69 C 0.10947 0.8351 0.60849 0.0
N70 N 0.03883 0.82092 0.64787 0.0
N71 N 0.07177 0.8158 0.58255 0.0
H72 H 0.99421 0.78983 0.59548 0.0
H73 H 0.10709 0.85824 0.67568 0.0
C74 C 0.05717 0.83834 0.76619 0.0
O75 O 0.0474 0.78988 0.77811 0.0
N76 N 0.92509 0.84219 0.7276 0.0
C77 C 0.87451 0.85476 0.71795 0.0
C78 C 0.84548 0.85564 0.75428 0.0
C79 C 0.92578 0.83621 0.77002 0.0
N80 N 0.87812 0.84453 0.78676 0.0
C81 C 0.94299 0.72965 0.71383 0.0
C82 C 0.03796 0.67629 0.71658 0.0
C83 C 0.992 0.64915 0.7274 0.0
C84 C 0.94415 0.67667 0.72596 0.0
C85 C 1.03528 0.72997 0.70584 0.0
N86 N 0.98826 0.75664 0.70565 0.0
H87 H 0.90513 0.7487 0.71065 0.0
H88 H 0.07141 0.75016 0.69869 0.0
H89 H 0.85893 0.8638 0.68704 0.0
H90 H 0.95977 0.82627 0.78884 0.0
O91 O 0.93187 0.82334 0.64203 0.0
O92 O 0.96644 0.89859 0.66201 0.0
O93 O 1.03546 0.8579 0.73272 0.0
C94 C 0.93644 0.87372 0.63511 0.0
H95 H 0.1473 0.84968 0.59835 0.0
H96 H 0.80432 0.86617 0.75706 0.0
H97 H 0.07567 0.65623 0.71673 0.0
H98 H 0.90762 0.65692 0.7332 0.0
Co99 Co 0.23651 0.99741 0.94182 0.0
C100 C 0.27863 1.03095 0.86266 0.0
C101 C 0.22711 0.09028 0.88742 0.0
C102 C 0.23394 0.09956 0.84467 0.0
N103 N 0.2543 0.04642 0.89808 0.0
N104 N 0.26469 0.06073 0.82925 0.0
H105 H 0.29966 0.994 0.86002 0.0
H106 H 0.19826 0.10924 0.90736 0.0
C107 C 0.23296 0.06693 0.02012 0.0
O108 O 0.27194 0.04034 0.03734 0.0
N109 N 0.21741 0.94723 0.98561 0.0
C110 C 0.1699 0.92414 0.98983 0.0
C111 C 0.16865 0.89685 0.02727 0.0
C112 C 0.24486 0.93227 0.02049 0.0
N113 N 0.21553 0.90253 0.04644 0.0
C114 C 0.33882 0.94933 0.95495 0.0
C115 C 0.39085 0.04041 0.97815 0.0
C116 C 0.41992 0.99331 0.97615 0.0
C117 C 0.39321 0.94754 0.96334 0.0
C118 C 0.33732 0.04094 0.96726 0.0
N119 N 0.31108 0.99534 0.95839 0.0
H120 H 0.31882 0.91369 0.94554 0.0
H121 H 0.31675 0.07826 0.96631 0.0
H122 H 0.13684 0.92879 0.96875 0.0
H123 H 0.28405 0.94529 0.02854 0.0
O124 O 0.23445 0.9396 0.90059 0.0
O125 O 0.16764 0.9907 0.91469 0.0
O126 O 0.21826 0.05803 0.98177 0.0
C127 C 0.18563 0.95187 0.89217 0.0
H128 H 0.21155 0.12718 0.82548 0.0
H129 H 0.13485 0.87752 0.04089 0.0
H130 H 0.40975 0.07693 0.98704 0.0
H131 H 0.41419 0.91053 0.96024 0.0
Co132 Co 0.08898 0.82992 0.30634 0.0
C133 C 1.03378 0.80002 0.381 0.0
C134 C 0.99114 0.86107 0.34862 0.0
C135 C 0.97463 0.85925 0.39029 0.0
N136 N 1.02938 0.82468 0.34346 0.0
N137 N 1.00421 0.82287 0.41092 0.0
H138 H 0.06483 0.77202 0.38816 0.0
H139 H 0.98218 0.89224 0.32623 0.0
C140 C 1.02968 0.83534 0.2211 0.0
O141 O 0.05466 0.79269 0.20875 0.0
N142 N 0.15125 0.83585 0.27117 0.0
C143 C 0.20148 0.82359 0.28276 0.0
C144 C 0.23456 0.83263 0.24947 0.0
C145 C 0.15542 0.85518 0.23172 0.0
N146 N 0.20505 0.85171 0.21758 0.0
C147 C 0.12313 0.72293 0.29076 0.0
C148 C 1.02509 0.68242 0.27179 0.0
C149 C 0.06945 0.64974 0.26809 0.0
C150 C 0.11884 0.6706 0.27801 0.0
C151 C 1.03141 0.73533 0.2833 0.0
N152 N 0.08034 0.75567 0.29108 0.0
H153 H 0.16101 0.73635 0.30106 0.0
H154 H 0.99692 0.76018 0.28529 0.0
H155 H 0.21395 0.80818 0.3132 0.0
H156 H 0.12381 0.87314 0.21396 0.0
O157 O 0.13615 0.82228 0.35498 0.0
O158 O 0.10525 0.89797 0.33148 0.0
O159 O 0.03953 0.85486 0.25799 0.0
C160 C 0.13435 0.87312 0.35938 0.0
H161 H 0.95034 0.88861 0.40563 0.0
H162 H 0.27654 0.82544 0.24841 0.0
H163 H 0.98607 0.6673 0.26542 0.0
H164 H 0.15385 0.64613 0.2769 0.0
Co165 Co 0.24587 0.08249 0.55825 0.0
C166 C 0.23605 1.01905 0.63578 0.0
C167 C 0.29206 0.98344 0.59494 0.0
C168 C 0.29772 0.96133 0.63466 0.0
N169 N 0.25414 1.02124 0.59579 0.0
N170 N 0.26433 0.98637 0.66057 0.0
H171 H 0.20674 0.04507 0.64866 0.0
H172 H 0.32039 0.97792 0.57019 0.0
C173 C 0.24244 0.99532 0.49046 0.0
O174 O 0.28999 0.97931 0.50035 0.0
N175 N 0.23876 0.14317 0.52205 0.0
C176 C 0.26643 0.18813 0.52608 0.0
C177 C 0.25721 0.21907 0.49096 0.0
C178 C 0.21252 0.14745 0.48502 0.0
N179 N 0.22372 0.19308 0.46538 0.0
C180 C 0.35648 0.0819 0.57451 0.0
C181 C 0.38854 0.07688 0.49102 0.0
C182 C 0.42642 0.07683 0.52342 0.0
C183 C 0.41017 0.08017 0.56558 0.0
C184 C 0.33529 0.07875 0.50144 0.0
N185 N 0.31978 0.07857 0.54278 0.0
H186 H 0.34404 0.0853 0.60704 0.0
H187 H 0.30643 0.07954 0.47632 0.0
H188 H 0.29412 0.19628 0.55142 0.0
H189 H 0.18812 0.11694 0.47152 0.0
O190 O 0.25255 0.13065 0.60616 0.0
O191 O 0.17736 0.0988 0.58283 0.0
O192 O 0.22094 1.03425 0.50985 0.0
C193 C 0.20162 0.12968 0.60957 0.0
H194 H 0.32967 0.93591 0.64503 0.0
H195 H 0.27633 0.25583 0.48328 0.0
H196 H 0.40008 0.07566 0.45804 0.0
H197 H 0.4387 0.08146 0.59125 0.0
Co198 Co 0.98884 0.24207 0.80492 0.0
C199 C 0.04478 0.23015 0.88584 0.0
C200 C 0.08038 0.29053 0.84939 0.0
C201 C 0.09523 0.29694 0.89127 0.0
N202 N 0.04694 0.24921 0.8459 0.0
N203 N 0.07057 0.25995 0.91404 0.0
H204 H 1.01917 0.19947 0.89617 0.0
H205 H 0.08681 0.31996 0.82533 0.0
C206 C 0.0825 0.23904 0.74226 0.0
O207 O 0.10188 0.28333 0.75659 0.0
N208 N 0.93062 0.23757 0.76639 0.0
C209 C 0.88656 0.26726 0.76867 0.0
C210 C 0.85715 0.25947 0.73257 0.0
C211 C 0.92748 0.2116 0.72949 0.0
N212 N 0.88329 0.22487 0.70826 0.0
C213 C 0.9797 0.35325 0.82283 0.0
C214 C 1.00174 0.38838 0.74183 0.0
C215 C 0.99127 0.42574 0.77331 0.0
C216 C 0.97932 0.40755 0.81421 0.0
C217 C 1.00014 0.33471 0.75153 0.0
N218 N 0.99177 0.31756 0.792 0.0
H219 H 0.97009 0.33961 0.85428 0.0
H220 H 1.00499 0.30699 0.72619 0.0
H221 H 0.87805 0.295 0.79369 0.0
H222 H 0.95782 0.18591 0.71729 0.0
O223 O 0.93819 0.24128 0.85189 0.0
O224 O 0.97383 0.17073 0.82389 0.0
O225 O 0.03964 0.22049 0.75738 0.0
C226 C 0.94121 0.18986 0.85138 0.0
H227 H 0.11567 0.33048 0.90449 0.0
H228 H 0.82133 0.27999 0.7235 0.0
H229 H 1.00975 0.40064 0.7096 0.0
H230 H 0.96977 0.43509 0.8392 0.0
Co231 Co 0.83004 0.98335 0.05254 0.0
C232 C 0.80944 0.04187 0.12822 0.0
C233 C 0.86593 0.08282 0.09121 0.0
C234 C 0.86673 0.10311 0.13179 0.0
N235 N 0.82968 0.04414 0.08914 0.0
N236 N 0.8329 0.07504 0.15523 0.0
H237 H 0.78473 1.01052 0.13909 0.0
H238 H 0.89478 0.09089 0.06714 0.0
C239 C 0.83938 0.07611 0.991 0.0
O240 O 0.80575 0.10326 0.01375 0.0
N241 N 0.83017 0.92174 0.01783 0.0
C242 C 0.79755 0.88037 0.02206 0.0
C243 C 0.80174 0.84926 0.9866 0.0
C244 C 0.85478 0.91483 0.98085 0.0
N245 N 0.83759 0.87126 0.96097 0.0
C246 C 0.71747 0.98188 0.07044 0.0
C247 C 0.68385 0.99971 0.98816 0.0
C248 C 0.64562 0.99298 0.01953 0.0
C249 C 0.66334 0.98476 0.06135 0.0
C250 C 0.73745 0.99965 -0.00094 0.0
N251 N 0.75418 0.99134 0.03991 0.0
H252 H 0.72932 0.96961 0.10172 0.0
H253 H 0.76539 1.00434 0.97396 0.0
H254 H 0.76964 0.87556 0.04746 0.0
H255 H 0.88087 0.9434 0.96677 0.0
O256 O 0.82946 0.9364 0.10244 0.0
O257 O 0.90089 0.96696 0.07257 0.0
O258 O 0.85081 1.02853 0.00151 0.0
C259 C 0.88074 0.9383 0.10247 0.0
H260 H 0.89541 0.13011 0.14457 0.0
H261 H 0.7774 0.81581 0.97858 0.0
H262 H 0.67238 1.00491 0.95525 0.0
H263 H 0.63547 0.97826 0.08661 0.0
C264 C 0.04432 0.57872 0.21529 0.0
C265 C 0.06489 0.59318 0.25566 0.0
C266 C 0.0916 0.50164 0.26815 0.0
C267 C 0.06504 0.48596 0.23047 0.0
N268 N 1.00638 0.50914 0.17264 0.0
N269 N 0.09531 0.56517 0.32494 0.0
C270 C 0.03853 0.52438 0.20524 0.0
C271 C 0.08465 0.55362 0.28346 0.0
N272 N 1.03237 0.61654 0.1858 0.0
N273 N 0.12524 0.46767 0.28852 0.0
H274 H 0.08849 0.60229 0.33795 0.0
H275 H 0.10526 0.53646 0.34733 0.0
H276 H 0.13387 0.4301 0.27712 0.0
H277 H 0.14901 0.47901 0.31395 0.0
H278 H 1.02227 0.60774 0.15453 0.0
H279 H 0.03751 0.65666 0.19129 0.0
H280 H 0.98215 0.53536 0.15602 0.0
H281 H 1.0 0.46977 0.16493 0.0
C282 C 0.56771 0.11813 0.50256 0.0
C283 C 0.59058 0.06898 0.49151 0.0
C284 C 0.5072 1.02435 0.50574 0.0
C285 C 0.48321 0.07406 0.5131 0.0
N286 N 0.4879 0.16883 0.51397 0.0
N287 N 0.58218 0.97599 0.47825 0.0
C288 C 0.51277 0.12116 0.51037 0.0
C289 C 0.56036 1.02218 0.492 0.0
N290 N 0.59883 0.16168 0.50642 0.0
N291 N 0.47941 0.97923 0.51283 0.0
H292 H 0.62143 0.9727 0.46913 0.0
H293 H 0.56078 0.94172 0.47318 0.0
H294 H 0.44011 0.97938 0.52216 0.0
H295 H 0.49608 0.94172 0.51254 0.0
H296 H 0.58584 0.19731 0.51889 0.0
H297 H 0.63908 0.16122 0.50016 0.0
H298 H 0.50584 0.20468 0.50748 0.0
H299 H 0.4479 0.17259 0.52053 0.0
C300 C 1.02216 0.57372 0.77505 0.0
C301 C 0.99319 0.59176 0.73902 0.0
C302 C 0.95696 0.5029 0.73017 0.0
C303 C 0.99103 0.4834 0.76261 0.0
N304 N 0.06458 0.49943 0.80976 0.0
N305 N 0.94302 0.56952 0.67625 0.0
C306 C 1.02608 0.51859 0.78337 0.0
C307 C 0.96347 0.55515 0.7148 0.0
N308 N 0.04428 0.60912 0.80235 0.0
N309 N 0.91697 0.47231 0.71501 0.0
H310 H 0.94877 0.60666 0.66293 0.0
H311 H 0.92537 0.54282 0.65558 0.0
H312 H 0.90925 0.43469 0.72669 0.0
H313 H 0.88809 0.48649 0.69423 0.0
H314 H 0.06125 0.59819 0.83127 0.0
H315 H 0.04103 0.64977 0.79824 0.0
H316 H 0.09438 0.52289 0.82229 0.0
H317 H 0.06995 0.45934 0.81573 0.0
C318 C 0.49906 0.95562 0.01652 0.0
C319 C 0.47801 0.99243 0.98673 0.0
C320 C 0.56502 1.03435 0.98376 0.0
C321 C 0.58768 0.99283 0.00833 0.0
N322 N 0.57604 0.90535 0.03734 0.0
N323 N 0.49697 0.05773 0.93305 0.0
C324 C 0.55465 0.95089 0.02162 0.0
C325 C 0.51276 1.02917 0.96767 0.0
N326 N 0.46638 0.9266 0.04144 0.0
N327 N 0.5922 0.07983 0.9771 0.0
H328 H 0.46045 0.05263 0.91837 0.0
H329 H 0.52253 0.0817 0.91609 0.0
H330 H 0.62909 0.08688 0.99057 0.0
H331 H 0.57537 0.11272 0.96239 0.0
H332 H 0.48028 0.90266 0.06604 0.0
H333 H 0.42559 0.9311 0.04088 0.0
H334 H 0.55347 0.87224 0.04407 0.0
H335 H 0.61649 0.89843 0.03874 0.0
C336 C 0.17091 0.24021 0.4119 0.0
C337 C 0.21275 0.20551 0.42197 0.0
C338 C 0.22985 0.19085 0.34687 0.0
C339 C 0.19048 0.22827 0.33688 0.0
N340 N 0.12931 0.29543 0.35834 0.0
N341 N 0.28883 0.15576 0.40061 0.0
C342 C 0.16248 0.25497 0.36901 0.0
C343 C 0.2442 0.18292 0.38984 0.0
N344 N 0.13897 0.25806 0.44342 0.0
N345 N 0.25268 0.1625 0.31514 0.0
H346 H 0.30121 0.15129 0.43196 0.0
H347 H 0.31591 0.14197 0.37862 0.0
H348 H 0.24313 0.16846 0.28323 0.0
H349 H 0.27789 0.13068 0.32056 0.0
H350 H 0.10453 0.27943 0.43784 0.0
H351 H 0.14526 0.24818 0.47522 0.0
H352 H 0.11124 0.31973 0.38049 0.0
H353 H 0.12273 0.30706 0.32697 0.0
C354 C 0.82213 0.16547 0.6118 0.0
C355 C 0.84915 0.19342 0.57986 0.0
C356 C 0.89615 0.24459 0.63296 0.0
C357 C 0.87218 0.21385 0.66485 0.0
N358 N 0.81782 0.1418 0.6863 0.0
N359 N 0.91619 0.25373 0.55826 0.0
C360 C 0.83673 0.17317 0.65472 0.0
C361 C 0.88754 0.23136 0.58995 0.0
N362 N 0.78145 0.13315 0.60091 0.0
N363 N 0.92551 0.28737 0.64401 0.0
H364 H 0.90981 0.24483 0.52631 0.0
H365 H 0.94851 0.27786 0.56364 0.0
H366 H 0.93198 0.29818 0.6755 0.0
H367 H 0.94019 0.31429 0.62223 0.0
H368 H 0.75705 0.11502 0.62281 0.0
H369 H 0.76945 0.12773 0.56952 0.0
H370 H 0.7956 0.10816 0.68088 0.0
H371 H 0.82758 0.14767 0.71818 0.0
C372 C 0.86847 0.81437 0.90287 0.0
C373 C 0.84357 0.86104 0.91673 0.0
C374 C 0.84701 0.89806 0.84592 0.0
C375 C 0.86672 0.84963 0.83079 0.0
N376 N 0.88777 0.75816 0.84285 0.0
N377 N 0.79315 0.93857 0.89909 0.0
C378 C 0.87506 0.8065 0.8587 0.0
C379 C 0.82786 0.9003 0.88745 0.0
N380 N 0.887 0.77872 0.93185 0.0
N381 N 0.84893 0.94244 0.82147 0.0
H382 H 0.77439 0.93735 0.9283 0.0
H383 H 0.77795 0.96649 0.87795 0.0
H384 H 0.86663 0.94318 0.79177 0.0
H385 H 0.83869 0.97958 0.83292 0.0
H386 H 0.90995 0.74623 0.92372 0.0
H387 H 0.88253 0.78397 0.96443 0.0
H388 H 0.8901 0.72427 0.86146 0.0
H389 H 0.89135 0.75119 0.8104 0.0
C390 C 0.23391 0.8382 0.10235 0.0
C391 C 0.22558 0.89105 0.09013 0.0
C392 C 0.22264 0.91801 0.1642 0.0
C393 C 0.22161 0.8646 0.17587 0.0
N394 N 0.22386 0.77267 0.15763 0.0
N395 N 0.20535 0.98086 0.10858 0.0
C396 C 0.22766 0.82415 0.14548 0.0
C397 C 0.21925 0.93122 0.12084 0.0
N398 N 0.24668 0.8018 0.07232 0.0
N399 N 0.22516 0.95571 0.19493 0.0
H400 H 0.19939 0.99062 0.07697 0.0
H401 H 0.19499 1.01067 0.12959 0.0
H402 H 0.22692 0.94615 0.22714 0.0
H403 H 0.23034 0.99559 0.18845 0.0
H404 H 0.25725 0.76308 0.07939 0.0
H405 H 0.25078 0.81195 0.0404 0.0
H406 H 0.22232 0.74142 0.13636 0.0
H407 H 0.21913 0.76137 0.18917 0.0
C408 C 1.0013 0.29311 0.01605 0.0
C409 C 1.00747 0.24446 0.03749 0.0
C410 C 0.06615 0.21368 0.98147 0.0
C411 C 0.05646 0.26019 0.95817 0.0
N412 N 1.00486 0.34005 0.94947 0.0
N413 N 1.03348 0.15301 0.03351 0.0
C414 C 1.02145 0.29909 0.97439 0.0
C415 C 0.03628 0.20305 0.01818 0.0
N416 N 0.97624 0.33375 0.03586 0.0
N417 N 0.10389 0.17934 0.96784 0.0
H418 H 1.00981 0.14222 0.05865 0.0
H419 H 0.04954 0.1209 0.01772 0.0
H420 H 0.12629 0.18671 0.94086 0.0
H421 H 0.11633 0.14664 0.98529 0.0
H422 H 0.97605 0.37224 0.02432 0.0
H423 H 0.95787 0.32916 0.06512 0.0
H424 H 0.97465 0.36567 0.95805 0.0
H425 H 1.0182 0.34648 0.91888 0.0
C426 C 0.88117 0.05153 0.22187 0.0
C427 C 0.83373 0.06499 0.20012 0.0
C428 C 0.78346 1.03094 0.25967 0.0
C429 C 0.83064 1.02364 0.28307 0.0
N430 N 0.92208 0.04925 0.29076 0.0
N431 N 0.74029 0.07956 0.20312 0.0
C432 C 0.87899 0.04067 0.26569 0.0
C433 C 0.78498 0.05886 0.22086 0.0
N434 N 0.92752 0.04479 0.20096 0.0
N435 N 0.73756 1.01015 0.27413 0.0
H436 H 0.74097 0.10137 0.17503 0.0
H437 H 0.7041 0.0796 0.21843 0.0
H438 H 0.73585 0.98776 0.30187 0.0
H439 H 0.70269 1.01078 0.25651 0.0
H440 H 0.96151 1.03115 0.21628 0.0
H441 H 0.93072 0.04535 0.16814 0.0
H442 H 0.95663 0.06542 0.27887 0.0
H443 H 0.92103 0.04753 0.32372 0.0
C444 C 0.04834 0.77146 0.51661 0.0
C445 C 0.0662 0.81767 0.53699 0.0
C446 C 0.04642 0.86833 0.47225 0.0
C447 C 1.02087 0.82336 0.45477 0.0
N448 N 0.99317 0.73365 0.46166 0.0
N449 N 0.08063 0.91186 0.5347 0.0
C450 C 1.02081 0.7753 0.47744 0.0
C451 C 0.06495 0.86668 0.51496 0.0
N452 N 0.05796 0.72381 0.53534 0.0
N453 N 0.05596 0.91149 0.44747 0.0
H454 H 0.09559 0.91345 0.56531 0.0
H455 H 0.07654 0.9493 0.52167 0.0
H456 H 0.04769 0.91339 0.41523 0.0
H457 H 0.07824 0.94359 0.45714 0.0
H458 H 0.04986 0.68789 0.52089 0.0
H459 H 0.07891 0.72053 0.56387 0.0
H460 H 0.9875 0.69869 0.47829 0.0
H461 H 0.97195 0.73598 0.43322 0.0
C462 C 0.22502 0.98791 0.73052 0.0
C463 C 0.26991 0.99563 0.70532 0.0
C464 C 0.31283 0.04256 0.76396 0.0
C465 C 0.26534 0.04099 0.78668 0.0
N466 N 0.17419 1.015 0.79118 0.0
N467 N 0.35437 0.03827 0.69577 0.0
C468 C 0.22072 1.01447 0.76985 0.0
C469 C 0.31376 1.02435 0.72153 0.0
N470 N 0.18651 0.95491 0.71621 0.0
N471 N 0.35703 0.06209 0.78302 0.0
H472 H 0.3579 1.0265 0.66448 0.0
H473 H 0.38318 0.06523 0.70459 0.0
H474 H 0.35669 0.0787 0.81325 0.0
H475 H 0.39448 0.05847 0.7701 0.0
H476 H 0.1539 0.9441 0.73389 0.0
H477 H 0.18973 0.93473 0.68751 0.0
H478 H 0.13878 1.00224 0.77809 0.0
H479 H 0.17001 1.03032 0.82151 0.0
C480 C 0.20541 0.17516 0.10034 0.0
C481 C 0.15383 0.16195 0.11403 0.0
C482 C 0.15185 0.08916 0.06193 0.0
C483 C 0.20279 0.10343 0.048 0.0
N484 N 0.27352 0.16568 0.04721 0.0
N485 N 0.08038 0.10127 0.11104 0.0
C486 C 0.22815 0.14812 0.0653 0.0
C487 C 0.12778 0.11753 0.09572 0.0
N488 N 0.23473 0.21028 0.12319 0.0
N489 N 0.12544 0.04949 0.04168 0.0
H490 H 0.0552 0.12491 0.12849 0.0
H491 H 0.06521 0.06375 0.10624 0.0
H492 H 0.14147 1.02743 0.01719 0.0
H493 H 0.08631 0.03992 0.04692 0.0
H494 H 0.27432 0.21759 0.1176 0.0
H495 H 0.22165 0.22778 0.15105 0.0
H496 H 0.2911 0.2014 0.05485 0.0
H497 H 0.29088 0.14694 0.0214 0.0
C498 C 0.97108 0.21011 0.32598 0.0
C499 C 0.94986 0.21035 0.28393 0.0
C500 C 0.86646 0.17525 0.31182 0.0
C501 C 0.89016 0.16792 0.35279 0.0
N502 N 0.96328 0.1852 0.39991 0.0
N503 N 0.87976 0.18503 0.2363 0.0
C504 C 0.94205 0.18715 0.35994 0.0
C505 C 0.89822 0.19083 0.27688 0.0
N506 N 1.01761 0.2348 0.33431 0.0
N507 N 0.81345 0.16944 0.30567 0.0
H508 H 0.90158 0.1941 0.20957 0.0
H509 H 0.84459 0.16651 0.22862 0.0
H510 H 0.78656 0.16046 0.32899 0.0
H511 H 0.79404 0.18063 0.27786 0.0
H512 H 1.03175 0.24279 0.36465 0.0
H513 H 0.04123 0.25066 0.31105 0.0
H514 H 1.0034 0.18797 0.40637 0.0
H515 H 0.94048 0.1809 0.42703 0.0
C516 C 0.91879 0.96038 0.5354 0.0
C517 C 0.86387 0.95663 0.52761 0.0
C518 C 0.85788 0.89171 0.58544 0.0
C519 C 0.91145 0.90093 0.5973 0.0
N520 N 0.99098 0.95118 0.58477 0.0
N521 N 0.77928 0.92998 0.55435 0.0
C522 C 0.94101 0.93788 0.573 0.0
C523 C 0.8329 0.92542 0.55512 0.0
N524 N 0.95085 0.98225 0.50559 0.0
N525 N 0.83006 0.85091 0.6023 0.0
H526 H 0.75911 0.9565 0.53482 0.0
H527 H 0.75527 0.91227 0.57685 0.0
H528 H 0.84475 0.82435 0.62447 0.0
H529 H 0.79317 0.84003 0.5907 0.0
H530 H 0.99169 0.9818 0.50793 0.0
H531 H 0.93751 0.99584 0.47625 0.0
H532 H 1.00946 0.9848 0.57322 0.0
H533 H 1.01387 0.92991 0.6063 0.0
C534 C 0.14546 0.86116 0.79854 0.0
C535 C 0.09091 0.87164 0.79446 0.0
C536 C 0.09635 0.92963 0.85657 0.0
C537 C 0.15267 0.9242 0.85823 0.0
N538 N 0.22957 0.89727 0.81766 0.0
N539 N 1.01825 0.92863 0.81209 0.0
C540 C 0.17703 0.89322 0.8257 0.0
C541 C 0.06779 0.91028 0.82078 0.0
N542 N 0.16783 0.82152 0.77554 0.0
N543 N 0.06864 0.95002 0.88974 0.0
H544 H 0.99626 0.91619 0.78605 0.0
H545 H 1.00166 0.96065 0.82785 0.0
H546 H 0.0848 0.96112 0.91854 0.0
H547 H 1.02766 0.94944 0.89086 0.0
H548 H 0.20618 0.80823 0.781 0.0
H549 H 0.14703 0.79972 0.75303 0.0
H550 H 0.24752 0.87884 0.79203 0.0
H551 H 0.25379 0.92515 0.83152 0.0
C552 C 0.18691 0.95212 0.3831 0.0
C553 C 0.16509 0.90209 0.3932 0.0
C554 C 0.19623 0.91301 0.46738 0.0
C555 C 0.21304 0.9648 0.45763 0.0
N556 N 0.22045 1.03597 0.40752 0.0
N557 N 0.15904 0.83032 0.4442 0.0
C558 C 0.20689 0.98505 0.41595 0.0
C559 C 0.17306 0.88096 0.43501 0.0
N560 N 0.19374 0.96599 0.34153 0.0
N561 N 0.19948 0.89577 0.50854 0.0
H562 H 0.1353 0.80722 0.42514 0.0
H563 H 0.17182 0.80979 0.47096 0.0
H564 H 0.21491 0.9185 0.53313 0.0
H565 H 0.18373 0.86071 0.51963 0.0
H566 H 0.21387 0.9995 0.33191 0.0
H567 H 0.18585 0.94069 0.31633 0.0
H568 H 0.21031 0.05551 0.37953 0.0
H569 H 0.23871 0.06002 0.42978 0.0
C570 C 0.19193 0.16124 0.68647 0.0
C571 C 0.1726 0.15936 0.64375 0.0
C572 C 0.09173 0.20525 0.66672 0.0
C573 C 0.11227 0.20974 0.70864 0.0
N574 N 0.18522 0.19836 0.75714 0.0
N575 N 0.11039 0.1931 0.5921 0.0
C576 C 0.16346 0.18987 0.71794 0.0
C577 C 0.12403 0.18479 0.63366 0.0
N578 N 0.23611 0.13365 0.69803 0.0
N579 N 0.04141 0.22119 0.65808 0.0
H580 H 0.13448 0.1825 0.56689 0.0
H581 H 0.07832 0.21602 0.58255 0.0
H582 H 1.01791 0.23988 0.68029 0.0
H583 H 1.02179 0.21261 0.62981 0.0
H584 H 0.24793 0.12818 0.72938 0.0
H585 H 0.25956 0.11269 0.67721 0.0
H586 H 0.22507 0.19306 0.76392 0.0
H587 H 0.16423 0.2138 0.78257 0.0
C588 C 0.85941 0.1634 0.89248 0.0
C589 C 0.91389 0.15561 0.88386 0.0
C590 C 0.91952 0.09552 0.9456 0.0
C591 C 0.86468 0.10136 0.95294 0.0
N592 N 0.78038 0.12879 0.9248 0.0
N593 N 0.99053 0.09889 0.89554 0.0
C594 C 0.83404 0.13207 0.92403 0.0
C595 C 0.94215 0.11662 0.90794 0.0
N596 N 0.83112 0.19988 0.86986 0.0
N597 N 0.9513 0.07265 0.9757 0.0
H598 H 1.01113 0.113 0.8697 0.0
H599 H 1.0086 0.06581 0.90897 0.0
H600 H 0.938 0.05959 0.00498 0.0
H601 H 0.99215 0.0717 0.97357 0.0
H602 H 0.79378 0.2127 0.87867 0.0
H603 H 0.84559 0.21886 0.84313 0.0
H604 H 0.75591 0.14596 0.90194 0.0
H605 H 0.76033 0.10386 0.94534 0.0
C606 C 1.00295 0.86857 0.14756 0.0
C607 C 0.9905 0.86119 0.19117 0.0
C608 C 0.90451 0.9045 0.17761 0.0
C609 C 0.91569 0.90823 0.13339 0.0
N610 N 0.96903 0.87583 0.07594 0.0
N611 N 0.92259 0.85966 0.24423 0.0
C612 C 0.96305 0.8851 0.11833 0.0
C613 C 0.93934 0.87571 0.20523 0.0
N614 N 0.05329 0.86158 0.13369 0.0
N615 N 0.86161 0.92944 0.194 0.0
H616 H 0.94548 0.83654 0.26456 0.0
H617 H 0.88396 0.86408 0.25448 0.0
H618 H 0.83474 0.95055 0.17576 0.0
H619 H 0.85503 0.93289 0.22642 0.0
H620 H 0.06526 0.87255 0.1034 0.0
H621 H 0.08435 0.8499 0.15323 0.0
H622 H 1.00066 0.85464 0.06368 0.0
H623 H 0.93928 0.88295 0.05366 0.0
loop_
_geom_bond_atom_site_label_1
_geom_bond_atom_site_label_2
_geom_bond_distance
_geom_bond_site_symmetry_2
_ccdc_geom_bond_type
Co0 N4 2.148 . S
Co0 N10 2.128 . S
Co0 N20 2.194 . S
Co0 O25 2.351 . S
Co0 O26 2.155 . S
Co0 O27 2.096 . S
C1 N4 1.301 . S
C1 N5 1.328 1_455 S
C1 H6 0.930 . S
C2 C3 1.333 . S
C2 N4 1.317 1_655 S
C2 H7 0.930 . S
C3 C2 1.333 . S
C3 N5 1.350 . S
C3 H29 0.931 . S
N4 Co0 2.148 . S
N4 C1 1.301 . S
N4 C2 1.317 1_455 S
N5 C1 1.328 1_655 S
N5 C3 1.350 . S
H6 C1 0.930 . S
H7 C2 0.930 . S
C8 O9 1.224 . S
C8 O27 1.247 1_655 S
O9 C8 1.224 . S
N10 Co0 2.128 . S
N10 C11 1.355 . S
N10 C13 1.311 . S
C11 N10 1.355 . S
C11 C12 1.363 . S
C11 H23 0.929 . S
C12 C11 1.363 . S
C12 N14 1.375 . S
C12 H30 0.931 . S
C13 N10 1.311 . S
C13 N14 1.347 . S
C13 H24 0.929 . S
N14 C12 1.375 . S
N14 C13 1.347 . S
C15 C18 1.365 . S
C15 N20 1.328 . S
C15 H21 0.929 . S
C16 C17 1.362 . S
C16 C19 1.378 . S
C16 H31 0.929 . S
C17 C16 1.362 . S
C17 C18 1.366 . S
C18 C15 1.365 . S
C18 C17 1.366 . S
C18 H32 0.930 . S
C19 C16 1.378 . S
C19 N20 1.315 . S
C19 H22 0.930 . S
N20 Co0 2.194 . S
N20 C15 1.328 . S
N20 C19 1.315 . S
H21 C15 0.929 . S
H22 C19 0.930 . S
H23 C11 0.929 . S
H24 C13 0.929 . S
O25 Co0 2.351 . S
O25 C28 1.244 . S
O26 Co0 2.155 . S
O26 C28 1.240 . S
O27 Co0 2.096 . S
O27 C8 1.247 1_455 S
C28 O25 1.244 . S
C28 O26 1.240 . S
H29 C3 0.931 . S
H30 C12 0.931 . S
H31 C16 0.929 . S
H32 C18 0.930 . S
Co33 N37 2.148 . S
Co33 N43 2.128 . S
Co33 N53 2.194 . S
Co33 O58 2.351 . S
Co33 O59 2.155 . S
Co33 O60 2.096 . S
C34 N37 1.301 . S
C34 N38 1.328 1_545 S
C34 H39 0.930 . S
C35 C36 1.333 . S
C35 N37 1.317 1_565 S
C35 H40 0.930 . S
C36 C35 1.333 . S
C36 N38 1.350 . S
C36 H62 0.931 . S
N37 Co33 2.148 . S
N37 C34 1.301 . S
N37 C35 1.317 1_545 S
N38 C34 1.328 1_565 S
N38 C36 1.350 . S
H39 C34 0.930 . S
H40 C35 0.930 . S
C41 O42 1.224 . S
C41 O60 1.247 1_565 S
O42 C41 1.224 . S
N43 Co33 2.128 . S
N43 C44 1.355 . S
N43 C46 1.311 . S
C44 N43 1.355 . S
C44 C45 1.363 . S
C44 H56 0.929 . S
C45 C44 1.363 . S
C45 N47 1.375 . S
C45 H63 0.931 . S
C46 N43 1.311 . S
C46 N47 1.347 . S
C46 H57 0.929 . S
N47 C45 1.375 . S
N47 C46 1.347 . S
C48 C51 1.365 . S
C48 N53 1.328 . S
C48 H54 0.929 . S
C49 C50 1.362 . S
C49 C52 1.378 . S
C49 H64 0.929 . S
C50 C49 1.362 . S
C50 C51 1.366 . S
C51 C48 1.365 . S
C51 C50 1.366 . S
C51 H65 0.930 . S
C52 C49 1.378 . S
C52 N53 1.315 . S
C52 H55 0.930 . S
N53 Co33 2.194 . S
N53 C48 1.328 . S
N53 C52 1.315 . S
H54 C48 0.929 . S
H55 C52 0.930 . S
H56 C44 0.929 . S
H57 C46 0.929 . S
O58 Co33 2.351 . S
O58 C61 1.244 . S
O59 Co33 2.155 . S
O59 C61 1.240 . S
O60 Co33 2.096 . S
O60 C41 1.247 1_545 S
C61 O58 1.244 . S
C61 O59 1.240 . S
H62 C36 0.931 . S
H63 C45 0.931 . S
H64 C49 0.929 . S
H65 C51 0.930 . S
Co66 N70 2.148 . S
Co66 N76 2.128 . S
Co66 N86 2.194 . S
Co66 O91 2.351 . S
Co66 O92 2.155 . S
Co66 O93 2.096 . S
C67 N70 1.301 . S
C67 N71 1.328 1_655 S
C67 H72 0.930 . S
C68 C69 1.333 . S
C68 N70 1.317 1_455 S
C68 H73 0.930 . S
C69 C68 1.333 . S
C69 N71 1.350 . S
C69 H95 0.931 . S
N70 Co66 2.148 . S
N70 C67 1.301 . S
N70 C68 1.317 1_655 S
N71 C67 1.328 1_455 S
N71 C69 1.350 . S
H72 C67 0.930 . S
H73 C68 0.930 . S
C74 O75 1.224 . S
C74 O93 1.247 1_455 S
O75 C74 1.224 . S
N76 Co66 2.128 . S
N76 C77 1.355 . S
N76 C79 1.311 . S
C77 N76 1.355 . S
C77 C78 1.363 . S
C77 H89 0.929 . S
C78 C77 1.363 . S
C78 N80 1.375 . S
C78 H96 0.931 . S
C79 N76 1.311 . S
C79 N80 1.347 . S
C79 H90 0.929 . S
N80 C78 1.375 . S
N80 C79 1.347 . S
C81 C84 1.365 . S
C81 N86 1.328 . S
C81 H87 0.929 . S
C82 C83 1.362 . S
C82 C85 1.378 . S
C82 H97 0.929 . S
C83 C82 1.362 . S
C83 C84 1.366 . S
C84 C81 1.365 . S
C84 C83 1.366 . S
C84 H98 0.930 . S
C85 C82 1.378 . S
C85 N86 1.315 . S
C85 H88 0.930 . S
N86 Co66 2.194 . S
N86 C81 1.328 . S
N86 C85 1.315 . S
H87 C81 0.929 . S
H88 C85 0.930 . S
H89 C77 0.929 . S
H90 C79 0.929 . S
O91 Co66 2.351 . S
O91 C94 1.244 . S
O92 Co66 2.155 . S
O92 C94 1.240 . S
O93 Co66 2.096 . S
O93 C74 1.247 1_655 S
C94 O91 1.244 . S
C94 O92 1.240 . S
H95 C69 0.931 . S
H96 C78 0.931 . S
H97 C82 0.929 . S
H98 C84 0.930 . S
Co99 N103 2.148 . S
Co99 N109 2.128 1_556 S
Co99 N119 2.194 . S
Co99 O124 2.351 . S
Co99 O125 2.155 . S
Co99 O126 2.096 . S
C100 N103 1.301 . S
C100 N104 1.328 1_565 S
C100 H105 0.930 . S
C101 C102 1.333 . S
C101 N103 1.317 1_545 S
C101 H106 0.930 . S
C102 C101 1.333 . S
C102 N104 1.350 . S
C102 H128 0.931 . S
N103 Co99 2.148 . S
N103 C100 1.301 . S
N103 C101 1.317 1_565 S
N104 C100 1.328 1_545 S
N104 C102 1.350 . S
H105 C100 0.930 . S
H106 C101 0.930 . S
C107 O108 1.224 . S
C107 O126 1.247 1_544 S
O108 C107 1.224 . S
N109 Co99 2.128 1_554 S
N109 C110 1.355 . S
N109 C112 1.311 . S
C110 N109 1.355 . S
C110 C111 1.363 . S
C110 H122 0.929 1_554 S
C111 C110 1.363 . S
C111 N113 1.375 . S
C111 H129 0.931 . S
C112 N109 1.311 . S
C112 N113 1.347 . S
C112 H123 0.929 . S
N113 C111 1.375 . S
N113 C112 1.347 . S
C114 C117 1.365 . S
C114 N119 1.328 . S
C114 H120 0.929 . S
C115 C116 1.362 . S
C115 C118 1.378 . S
C115 H130 0.929 1_556 S
C116 C115 1.362 . S
C116 C117 1.366 . S
C117 C114 1.365 . S
C117 C116 1.366 . S
C117 H131 0.930 . S
C118 C115 1.378 . S
C118 N119 1.315 . S
C118 H121 0.930 . S
N119 Co99 2.194 . S
N119 C114 1.328 . S
N119 C118 1.315 . S
H120 C114 0.929 . S
H121 C118 0.930 . S
H122 C110 0.929 1_556 S
H123 C112 0.929 . S
O124 Co99 2.351 . S
O124 C127 1.244 . S
O125 Co99 2.155 . S
O125 C127 1.240 . S
O126 Co99 2.096 . S
O126 C107 1.247 1_566 S
C127 O124 1.244 . S
C127 O125 1.240 . S
H128 C102 0.931 . S
H129 C111 0.931 . S
H130 C115 0.929 1_554 S
H131 C117 0.930 . S
Co132 N136 2.148 . S
Co132 N142 2.128 . S
Co132 N152 2.194 . S
Co132 O157 2.351 . S
Co132 O158 2.155 . S
Co132 O159 2.096 . S
C133 N136 1.301 . S
C133 N137 1.328 1_455 S
C133 H138 0.930 . S
C134 C135 1.333 . S
C134 N136 1.317 1_655 S
C134 H139 0.930 . S
C135 C134 1.333 . S
C135 N137 1.350 . S
C135 H161 0.931 . S
N136 Co132 2.148 . S
N136 C133 1.301 . S
N136 C134 1.317 1_455 S
N137 C133 1.328 1_655 S
N137 C135 1.350 . S
H138 C133 0.930 . S
H139 C134 0.930 . S
C140 O141 1.224 . S
C140 O159 1.247 1_655 S
O141 C140 1.224 . S
N142 Co132 2.128 . S
N142 C143 1.355 . S
N142 C145 1.311 . S
C143 N142 1.355 . S
C143 C144 1.363 . S
C143 H155 0.929 . S
C144 C143 1.363 . S
C144 N146 1.375 . S
C144 H162 0.931 . S
C145 N142 1.311 . S
C145 N146 1.347 . S
C145 H156 0.929 . S
N146 C144 1.375 . S
N146 C145 1.347 . S
C147 C150 1.365 . S
C147 N152 1.328 . S
C147 H153 0.929 . S
C148 C149 1.362 . S
C148 C151 1.378 . S
C148 H163 0.929 . S
C149 C148 1.362 . S
C149 C150 1.366 . S
C150 C147 1.365 . S
C150 C149 1.366 . S
C150 H164 0.930 . S
C151 C148 1.378 . S
C151 N152 1.315 . S
C151 H154 0.930 . S
N152 Co132 2.194 . S
N152 C147 1.328 . S
N152 C151 1.315 . S
H153 C147 0.929 . S
H154 C151 0.930 . S
H155 C143 0.929 . S
H156 C145 0.929 . S
O157 Co132 2.351 . S
O157 C160 1.244 . S
O158 Co132 2.155 . S
O158 C160 1.240 . S
O159 Co132 2.096 . S
O159 C140 1.247 1_455 S
C160 O157 1.244 . S
C160 O158 1.240 . S
H161 C135 0.931 . S
H162 C144 0.931 . S
H163 C148 0.929 . S
H164 C150 0.930 . S
Co165 N169 2.148 . S
Co165 N175 2.128 . S
Co165 N185 2.194 . S
Co165 O190 2.351 . S
Co165 O191 2.155 . S
Co165 O192 2.096 . S
C166 N169 1.301 . S
C166 N170 1.328 1_545 S
C166 H171 0.930 . S
C167 C168 1.333 . S
C167 N169 1.317 1_565 S
C167 H172 0.930 . S
C168 C167 1.333 . S
C168 N170 1.350 . S
C168 H194 0.931 . S
N169 Co165 2.148 . S
N169 C166 1.301 . S
N169 C167 1.317 1_545 S
N170 C166 1.328 1_565 S
N170 C168 1.350 . S
H171 C166 0.930 . S
H172 C167 0.930 . S
C173 O174 1.224 . S
C173 O192 1.247 1_565 S
O174 C173 1.224 . S
N175 Co165 2.128 . S
N175 C176 1.355 . S
N175 C178 1.311 . S
C176 N175 1.355 . S
C176 C177 1.363 . S
C176 H188 0.929 . S
C177 C176 1.363 . S
C177 N179 1.375 . S
C177 H195 0.931 . S
C178 N175 1.311 . S
C178 N179 1.347 . S
C178 H189 0.929 . S
N179 C177 1.375 . S
N179 C178 1.347 . S
C180 C183 1.365 . S
C180 N185 1.328 . S
C180 H186 0.929 . S
C181 C182 1.362 . S
C181 C184 1.378 . S
C181 H196 0.929 . S
C182 C181 1.362 . S
C182 C183 1.366 . S
C183 C180 1.365 . S
C183 C182 1.366 . S
C183 H197 0.930 . S
C184 C181 1.378 . S
C184 N185 1.315 . S
C184 H187 0.930 . S
N185 Co165 2.194 . S
N185 C180 1.328 . S
N185 C184 1.315 . S
H186 C180 0.929 . S
H187 C184 0.930 . S
H188 C176 0.929 . S
H189 C178 0.929 . S
O190 Co165 2.351 . S
O190 C193 1.244 . S
O191 Co165 2.155 . S
O191 C193 1.240 . S
O192 Co165 2.096 . S
O192 C173 1.247 1_545 S
C193 O190 1.244 . S
C193 O191 1.240 . S
H194 C168 0.931 . S
H195 C177 0.931 . S
H196 C181 0.929 . S
H197 C183 0.930 . S
Co198 N202 2.148 . S
Co198 N208 2.128 . S
Co198 N218 2.194 . S
Co198 O223 2.351 . S
Co198 O224 2.155 . S
Co198 O225 2.096 . S
C199 N202 1.301 . S
C199 N203 1.328 1_655 S
C199 H204 0.930 . S
C200 C201 1.333 . S
C200 N202 1.317 1_455 S
C200 H205 0.930 . S
C201 C200 1.333 . S
C201 N203 1.350 . S
C201 H227 0.931 . S
N202 Co198 2.148 . S
N202 C199 1.301 . S
N202 C200 1.317 1_655 S
N203 C199 1.328 1_455 S
N203 C201 1.350 . S
H204 C199 0.930 . S
H205 C200 0.930 . S
C206 O207 1.224 . S
C206 O225 1.247 1_455 S
O207 C206 1.224 . S
N208 Co198 2.128 . S
N208 C209 1.355 . S
N208 C211 1.311 . S
C209 N208 1.355 . S
C209 C210 1.363 . S
C209 H221 0.929 . S
C210 C209 1.363 . S
C210 N212 1.375 . S
C210 H228 0.931 . S
C211 N208 1.311 . S
C211 N212 1.347 . S
C211 H222 0.929 . S
N212 C210 1.375 . S
N212 C211 1.347 . S
C213 C216 1.365 . S
C213 N218 1.328 . S
C213 H219 0.929 . S
C214 C215 1.362 . S
C214 C217 1.378 . S
C214 H229 0.929 . S
C215 C214 1.362 . S
C215 C216 1.366 . S
C216 C213 1.365 . S
C216 C215 1.366 . S
C216 H230 0.930 . S
C217 C214 1.378 . S
C217 N218 1.315 . S
C217 H220 0.930 . S
N218 Co198 2.194 . S
N218 C213 1.328 . S
N218 C217 1.315 . S
H219 C213 0.929 . S
H220 C217 0.930 . S
H221 C209 0.929 . S
H222 C211 0.929 . S
O223 Co198 2.351 . S
O223 C226 1.244 . S
O224 Co198 2.155 . S
O224 C226 1.240 . S
O225 Co198 2.096 . S
O225 C206 1.247 1_655 S
C226 O223 1.244 . S
C226 O224 1.240 . S
H227 C201 0.931 . S
H228 C210 0.931 . S
H229 C214 0.929 . S
H230 C216 0.930 . S
Co231 N235 2.148 . S
Co231 N241 2.128 1_554 S
Co231 N251 2.194 . S
Co231 O256 2.351 . S
Co231 O257 2.155 . S
Co231 O258 2.096 . S
C232 N235 1.301 . S
C232 N236 1.328 1_565 S
C232 H237 0.930 . S
C233 C234 1.333 . S
C233 N235 1.317 1_545 S
C233 H238 0.930 . S
C234 C233 1.333 . S
C234 N236 1.350 . S
C234 H260 0.931 . S
N235 Co231 2.148 . S
N235 C232 1.301 . S
N235 C233 1.317 1_565 S
N236 C232 1.328 1_545 S
N236 C234 1.350 . S
H237 C232 0.930 . S
H238 C233 0.930 . S
C239 O240 1.224 . S
C239 O258 1.247 1_546 S
O240 C239 1.224 . S
N241 Co231 2.128 1_556 S
N241 C242 1.355 . S
N241 C244 1.311 . S
C242 N241 1.355 . S
C242 C243 1.363 . S
C242 H254 0.929 1_556 S
C243 C242 1.363 . S
C243 N245 1.375 . S
C243 H261 0.931 . S
C244 N241 1.311 . S
C244 N245 1.347 . S
C244 H255 0.929 . S
N245 C243 1.375 . S
N245 C244 1.347 . S
C246 C249 1.365 . S
C246 N251 1.328 . S
C246 H252 0.929 . S
C247 C248 1.362 . S
C247 C250 1.378 . S
C247 H262 0.929 1_554 S
C248 C247 1.362 . S
C248 C249 1.366 . S
C249 C246 1.365 . S
C249 C248 1.366 . S
C249 H263 0.930 . S
C250 C247 1.378 . S
C250 N251 1.315 . S
C250 H253 0.930 . S
N251 Co231 2.194 . S
N251 C246 1.328 . S
N251 C250 1.315 . S
H252 C246 0.929 . S
H253 C250 0.930 . S
H254 C242 0.929 1_554 S
H255 C244 0.929 . S
O256 Co231 2.351 . S
O256 C259 1.244 . S
O257 Co231 2.155 . S
O257 C259 1.240 . S
O258 Co231 2.096 . S
O258 C239 1.247 1_564 S
C259 O256 1.244 . S
C259 O257 1.240 . S
H260 C234 0.931 . S
H261 C243 0.931 . S
H262 C247 0.929 1_556 S
H263 C249 0.930 . S
C264 C265 1.363 . S
C264 C270 1.379 . S
C264 N272 1.356 . S
C265 C264 1.363 . S
C265 C271 1.363 . S
C266 C267 1.363 . S
C266 C271 1.379 . S
C266 N273 1.356 . S
C267 C266 1.363 . S
C267 C270 1.363 . S
N268 C270 1.356 . S
N268 H280 0.984 . S
N268 H281 0.985 . S
N269 C271 1.356 . S
N269 H274 0.984 . S
N269 H275 0.985 . S
C270 C264 1.379 . S
C270 C267 1.363 . S
C270 N268 1.356 . S
C271 C265 1.363 . S
C271 C266 1.379 . S
C271 N269 1.356 . S
N272 C264 1.356 . S
N272 H278 0.984 . S
N272 H279 0.984 . S
N273 C266 1.356 . S
N273 H276 0.984 . S
N273 H277 0.985 . S
H274 N269 0.984 . S
H275 N269 0.985 . S
H276 N273 0.984 . S
H277 N273 0.985 . S
H278 N272 0.984 . S
H279 N272 0.984 . S
H280 N268 0.984 . S
H281 N268 0.985 . S
C282 C283 1.363 . S
C282 C288 1.379 . S
C282 N290 1.356 . S
C283 C282 1.363 . S
C283 C289 1.363 . S
C284 C285 1.363 . S
C284 C289 1.379 . S
C284 N291 1.356 . S
C285 C284 1.363 . S
C285 C288 1.363 . S
N286 C288 1.356 . S
N286 H298 0.984 . S
N286 H299 0.985 . S
N287 C289 1.356 . S
N287 H292 0.984 . S
N287 H293 0.985 . S
C288 C282 1.379 . S
C288 C285 1.363 . S
C288 N286 1.356 . S
C289 C283 1.363 . S
C289 C284 1.379 . S
C289 N287 1.356 . S
N290 C282 1.356 . S
N290 H296 0.984 . S
N290 H297 0.984 . S
N291 C284 1.356 . S
N291 H294 0.984 . S
N291 H295 0.985 . S
H292 N287 0.984 . S
H293 N287 0.985 . S
H294 N291 0.984 . S
H295 N291 0.985 . S
H296 N290 0.984 . S
H297 N290 0.984 . S
H298 N286 0.984 . S
H299 N286 0.985 . S
C300 C301 1.363 . S
C300 C306 1.379 . S
C300 N308 1.356 . S
C301 C300 1.363 . S
C301 C307 1.363 . S
C302 C303 1.363 . S
C302 C307 1.379 . S
C302 N309 1.356 . S
C303 C302 1.363 . S
C303 C306 1.363 . S
N304 C306 1.356 . S
N304 H316 0.984 . S
N304 H317 0.985 . S
N305 C307 1.356 . S
N305 H310 0.984 . S
N305 H311 0.985 . S
C306 C300 1.379 . S
C306 C303 1.363 . S
C306 N304 1.356 . S
C307 C301 1.363 . S
C307 C302 1.379 . S
C307 N305 1.356 . S
N308 C300 1.356 . S
N308 H314 0.984 . S
N308 H315 0.984 . S
N309 C302 1.356 . S
N309 H312 0.984 . S
N309 H313 0.985 . S
H310 N305 0.984 . S
H311 N305 0.985 . S
H312 N309 0.984 . S
H313 N309 0.985 . S
H314 N308 0.984 . S
H315 N308 0.984 . S
H316 N304 0.984 . S
H317 N304 0.985 . S
C318 C319 1.363 1_554 S
C318 C324 1.379 . S
C318 N326 1.356 . S
C319 C318 1.363 1_556 S
C319 C325 1.363 . S
C320 C321 1.363 1_556 S
C320 C325 1.379 . S
C320 N327 1.356 . S
C321 C320 1.363 1_554 S
C321 C324 1.363 . S
N322 C324 1.356 . S
N322 H334 0.984 . S
N322 H335 0.985 . S
N323 C325 1.356 . S
N323 H328 0.984 . S
N323 H329 0.985 . S
C324 C318 1.379 . S
C324 C321 1.363 . S
C324 N322 1.356 . S
C325 C319 1.363 . S
C325 C320 1.379 . S
C325 N323 1.356 . S
N326 C318 1.356 . S
N326 H332 0.984 . S
N326 H333 0.984 1_554 S
N327 C320 1.356 . S
N327 H330 0.984 1_556 S
N327 H331 0.985 . S
H328 N323 0.984 . S
H329 N323 0.985 . S
H330 N327 0.984 1_554 S
H331 N327 0.985 . S
H332 N326 0.984 . S
H333 N326 0.984 1_556 S
H334 N322 0.984 . S
H335 N322 0.985 . S
C336 C337 1.363 . S
C336 C342 1.379 . S
C336 N344 1.356 . S
C337 C336 1.363 . S
C337 C343 1.363 . S
C338 C339 1.363 . S
C338 C343 1.379 . S
C338 N345 1.356 . S
C339 C338 1.363 . S
C339 C342 1.363 . S
N340 C342 1.356 . S
N340 H352 0.984 . S
N340 H353 0.985 . S
N341 C343 1.356 . S
N341 H346 0.984 . S
N341 H347 0.985 . S
C342 C336 1.379 . S
C342 C339 1.363 . S
C342 N340 1.356 . S
C343 C337 1.363 . S
C343 C338 1.379 . S
C343 N341 1.356 . S
N344 C336 1.356 . S
N344 H350 0.984 . S
N344 H351 0.984 . S
N345 C338 1.356 . S
N345 H348 0.984 . S
N345 H349 0.985 . S
H346 N341 0.984 . S
H347 N341 0.985 . S
H348 N345 0.984 . S
H349 N345 0.985 . S
H350 N344 0.984 . S
H351 N344 0.984 . S
H352 N340 0.984 . S
H353 N340 0.985 . S
C354 C355 1.363 . S
C354 C360 1.379 . S
C354 N362 1.356 . S
C355 C354 1.363 . S
C355 C361 1.363 . S
C356 C357 1.363 . S
C356 C361 1.379 . S
C356 N363 1.356 . S
C357 C356 1.363 . S
C357 C360 1.363 . S
N358 C360 1.356 . S
N358 H370 0.984 . S
N358 H371 0.985 . S
N359 C361 1.356 . S
N359 H364 0.984 . S
N359 H365 0.985 . S
C360 C354 1.379 . S
C360 C357 1.363 . S
C360 N358 1.356 . S
C361 C355 1.363 . S
C361 C356 1.379 . S
C361 N359 1.356 . S
N362 C354 1.356 . S
N362 H368 0.984 . S
N362 H369 0.984 . S
N363 C356 1.356 . S
N363 H366 0.984 . S
N363 H367 0.985 . S
H364 N359 0.984 . S
H365 N359 0.985 . S
H366 N363 0.984 . S
H367 N363 0.985 . S
H368 N362 0.984 . S
H369 N362 0.984 . S
H370 N358 0.984 . S
H371 N358 0.985 . S
C372 C373 1.363 . S
C372 C378 1.379 . S
C372 N380 1.356 . S
C373 C372 1.363 . S
C373 C379 1.363 . S
C374 C375 1.363 . S
C374 C379 1.379 . S
C374 N381 1.356 . S
C375 C374 1.363 . S
C375 C378 1.363 . S
N376 C378 1.356 . S
N376 H388 0.984 . S
N376 H389 0.985 . S
N377 C379 1.356 . S
N377 H382 0.984 . S
N377 H383 0.985 . S
C378 C372 1.379 . S
C378 C375 1.363 . S
C378 N376 1.356 . S
C379 C373 1.363 . S
C379 C374 1.379 . S
C379 N377 1.356 . S
N380 C372 1.356 . S
N380 H386 0.984 . S
N380 H387 0.984 . S
N381 C374 1.356 . S
N381 H384 0.984 . S
N381 H385 0.985 . S
H382 N377 0.984 . S
H383 N377 0.985 . S
H384 N381 0.984 . S
H385 N381 0.985 . S
H386 N380 0.984 . S
H387 N380 0.984 . S
H388 N376 0.984 . S
H389 N376 0.985 . S
C390 C391 1.363 . S
C390 C396 1.379 . S
C390 N398 1.356 . S
C391 C390 1.363 . S
C391 C397 1.363 . S
C392 C393 1.363 . S
C392 C397 1.379 . S
C392 N399 1.356 . S
C393 C392 1.363 . S
C393 C396 1.363 . S
N394 C396 1.356 . S
N394 H406 0.984 . S
N394 H407 0.985 . S
N395 C397 1.356 . S
N395 H400 0.984 . S
N395 H401 0.985 . S
C396 C390 1.379 . S
C396 C393 1.363 . S
C396 N394 1.356 . S
C397 C391 1.363 . S
C397 C392 1.379 . S
C397 N395 1.356 . S
N398 C390 1.356 . S
N398 H404 0.984 . S
N398 H405 0.984 . S
N399 C392 1.356 . S
N399 H402 0.984 . S
N399 H403 0.985 . S
H400 N395 0.984 . S
H401 N395 0.985 . S
H402 N399 0.984 . S
H403 N399 0.985 . S
H404 N398 0.984 . S
H405 N398 0.984 . S
H406 N394 0.984 . S
H407 N394 0.985 . S
C408 C409 1.363 . S
C408 C414 1.379 1_554 S
C408 N416 1.356 . S
C409 C408 1.363 . S
C409 C415 1.363 1_655 S
C410 C411 1.363 . S
C410 C415 1.379 1_556 S
C410 N417 1.356 . S
C411 C410 1.363 . S
C411 C414 1.363 1_455 S
N412 C414 1.356 . S
N412 H424 0.984 . S
N412 H425 0.985 . S
N413 C415 1.356 . S
N413 H418 0.984 . S
N413 H419 0.985 . S
C414 C408 1.379 1_556 S
C414 C411 1.363 1_655 S
C414 N412 1.356 . S
C415 C409 1.363 1_455 S
C415 C410 1.379 1_554 S
C415 N413 1.356 . S
N416 C408 1.356 . S
N416 H422 0.984 . S
N416 H423 0.984 . S
N417 C410 1.356 . S
N417 H420 0.984 . S
N417 H421 0.985 . S
H418 N413 0.984 . S
H419 N413 0.985 . S
H420 N417 0.984 . S
H421 N417 0.985 . S
H422 N416 0.984 . S
H423 N416 0.984 . S
H424 N412 0.984 . S
H425 N412 0.985 . S
C426 C427 1.363 . S
C426 C432 1.379 . S
C426 N434 1.356 . S
C427 C426 1.363 . S
C427 C433 1.363 1_545 S
C428 C429 1.363 . S
C428 C433 1.379 . S
C428 N435 1.356 . S
C429 C428 1.363 . S
C429 C432 1.363 1_565 S
N430 C432 1.356 . S
N430 H442 0.984 . S
N430 H443 0.983 1_545 S
N431 C433 1.356 . S
N431 H436 0.983 1_565 S
N431 H437 0.985 . S
C432 C426 1.379 . S
C432 C429 1.363 1_545 S
C432 N430 1.356 . S
C433 C427 1.363 1_565 S
C433 C428 1.379 . S
C433 N431 1.356 . S
N434 C426 1.356 . S
N434 H440 0.984 . S
N434 H441 0.984 . S
N435 C428 1.356 . S
N435 H438 0.984 . S
N435 H439 0.985 . S
H436 N431 0.983 1_545 S
H437 N431 0.985 . S
H438 N435 0.984 . S
H439 N435 0.985 . S
H440 N434 0.984 . S
H441 N434 0.984 . S
H442 N430 0.984 . S
H443 N430 0.983 1_565 S
C444 C445 1.363 . S
C444 C450 1.379 . S
C444 N452 1.356 . S
C445 C444 1.363 . S
C445 C451 1.363 1_455 S
C446 C447 1.363 . S
C446 C451 1.379 . S
C446 N453 1.356 . S
C447 C446 1.363 . S
C447 C450 1.363 1_655 S
N448 C450 1.356 . S
N448 H460 0.984 . S
N448 H461 0.985 . S
N449 C451 1.356 . S
N449 H454 0.984 . S
N449 H455 0.985 . S
C450 C444 1.379 . S
C450 C447 1.363 1_455 S
C450 N448 1.356 . S
C451 C445 1.363 1_655 S
C451 C446 1.379 . S
C451 N449 1.356 . S
N452 C444 1.356 . S
N452 H458 0.984 . S
N452 H459 0.984 . S
N453 C446 1.356 . S
N453 H456 0.984 . S
N453 H457 0.985 . S
H454 N449 0.984 . S
H455 N449 0.985 . S
H456 N453 0.984 . S
H457 N453 0.985 . S
H458 N452 0.984 . S
H459 N452 0.984 . S
H460 N448 0.984 . S
H461 N448 0.985 . S
C462 C463 1.363 . S
C462 C468 1.379 . S
C462 N470 1.356 . S
C463 C462 1.363 . S
C463 C469 1.363 1_565 S
C464 C465 1.363 . S
C464 C469 1.379 . S
C464 N471 1.356 . S
C465 C464 1.363 . S
C465 C468 1.363 1_545 S
N466 C468 1.356 . S
N466 H478 0.984 . S
N466 H479 0.985 . S
N467 C469 1.356 . S
N467 H472 0.984 . S
N467 H473 0.985 . S
C468 C462 1.379 . S
C468 C465 1.363 1_565 S
C468 N466 1.356 . S
C469 C463 1.363 1_545 S
C469 C464 1.379 . S
C469 N467 1.356 . S
N470 C462 1.356 . S
N470 H476 0.984 . S
N470 H477 0.984 . S
N471 C464 1.356 . S
N471 H474 0.984 . S
N471 H475 0.985 . S
H472 N467 0.984 . S
H473 N467 0.985 . S
H474 N471 0.984 . S
H475 N471 0.985 . S
H476 N470 0.984 . S
H477 N470 0.984 . S
H478 N466 0.984 . S
H479 N466 0.985 . S
C480 C481 1.363 . S
C480 C486 1.379 . S
C480 N488 1.356 . S
C481 C480 1.363 . S
C481 C487 1.363 . S
C482 C483 1.363 . S
C482 C487 1.379 . S
C482 N489 1.356 . S
C483 C482 1.363 . S
C483 C486 1.363 . S
N484 C486 1.356 . S
N484 H496 0.984 . S
N484 H497 0.993 . S
N485 C487 1.356 . S
N485 H490 0.984 . S
N485 H491 0.985 . S
C486 C480 1.379 . S
C486 C483 1.363 . S
C486 N484 1.356 . S
C487 C481 1.363 . S
C487 C482 1.379 . S
C487 N485 1.356 . S
N488 C480 1.356 . S
N488 H494 0.984 . S
N488 H495 0.984 . S
N489 C482 1.356 . S
N489 H492 0.984 . S
N489 H493 0.985 . S
H490 N485 0.984 . S
H491 N485 0.985 . S
H492 N489 0.984 . S
H493 N489 0.985 . S
H494 N488 0.984 . S
H495 N488 0.984 . S
H496 N484 0.984 . S
H497 N484 0.993 . S
C498 C499 1.363 . S
C498 C504 1.379 . S
C498 N506 1.356 . S
C499 C498 1.363 . S
C499 C505 1.363 . S
C500 C501 1.363 . S
C500 C505 1.379 . S
C500 N507 1.356 . S
C501 C500 1.363 . S
C501 C504 1.363 . S
N502 C504 1.356 . S
N502 H514 0.984 . S
N502 H515 0.985 . S
N503 C505 1.356 . S
N503 H508 0.984 . S
N503 H509 0.985 . S
C504 C498 1.379 . S
C504 C501 1.363 . S
C504 N502 1.356 . S
C505 C499 1.363 . S
C505 C500 1.379 . S
C505 N503 1.356 . S
N506 C498 1.356 . S
N506 H512 0.984 . S
N506 H513 0.984 . S
N507 C500 1.356 . S
N507 H510 0.984 . S
N507 H511 0.985 . S
H508 N503 0.984 . S
H509 N503 0.985 . S
H510 N507 0.984 . S
H511 N507 0.985 . S
H512 N506 0.984 . S
H513 N506 0.984 . S
H514 N502 0.984 . S
H515 N502 0.985 . S
C516 C517 1.363 . S
C516 C522 1.379 . S
C516 N524 1.356 . S
C517 C516 1.363 . S
C517 C523 1.363 . S
C518 C519 1.363 . S
C518 C523 1.379 . S
C518 N525 1.356 . S
C519 C518 1.363 . S
C519 C522 1.363 . S
N520 C522 1.356 . S
N520 H532 0.984 . S
N520 H533 0.985 . S
N521 C523 1.356 . S
N521 H526 0.984 . S
N521 H527 0.985 . S
C522 C516 1.379 . S
C522 C519 1.363 . S
C522 N520 1.356 . S
C523 C517 1.363 . S
C523 C518 1.379 . S
C523 N521 1.356 . S
N524 C516 1.356 . S
N524 H530 0.984 . S
N524 H531 0.984 . S
N525 C518 1.356 . S
N525 H528 0.984 . S
N525 H529 0.985 . S
H526 N521 0.984 . S
H527 N521 0.985 . S
H528 N525 0.984 . S
H529 N525 0.985 . S
H530 N524 0.984 . S
H531 N524 0.984 . S
H532 N520 0.984 . S
H533 N520 0.985 . S
C534 C535 1.363 . S
C534 C540 1.379 . S
C534 N542 1.356 . S
C535 C534 1.363 . S
C535 C541 1.363 . S
C536 C537 1.363 . S
C536 C541 1.379 . S
C536 N543 1.356 . S
C537 C536 1.363 . S
C537 C540 1.363 . S
N538 C540 1.356 . S
N538 H550 0.984 . S
N538 H551 0.985 . S
N539 C541 1.356 . S
N539 H544 0.984 1_455 S
N539 H545 0.985 1_455 S
C540 C534 1.379 . S
C540 C537 1.363 . S
C540 N538 1.356 . S
C541 C535 1.363 . S
C541 C536 1.379 . S
C541 N539 1.356 . S
N542 C534 1.356 . S
N542 H548 0.984 . S
N542 H549 0.984 . S
N543 C536 1.356 . S
N543 H546 0.984 . S
N543 H547 0.985 . S
H544 N539 0.984 1_655 S
H545 N539 0.985 1_655 S
H546 N543 0.984 . S
H547 N543 0.985 . S
H548 N542 0.984 . S
H549 N542 0.984 . S
H550 N538 0.984 . S
H551 N538 0.985 . S
C552 C553 1.363 . S
C552 C558 1.379 . S
C552 N560 1.356 . S
C553 C552 1.363 . S
C553 C559 1.363 . S
C554 C555 1.363 . S
C554 C559 1.379 . S
C554 N561 1.356 . S
C555 C554 1.363 . S
C555 C558 1.363 . S
N556 C558 1.356 . S
N556 H568 0.984 . S
N556 H569 0.985 . S
N557 C559 1.356 . S
N557 H562 0.984 . S
N557 H563 0.985 . S
C558 C552 1.379 . S
C558 C555 1.363 . S
C558 N556 1.356 . S
C559 C553 1.363 . S
C559 C554 1.379 . S
C559 N557 1.356 . S
N560 C552 1.356 . S
N560 H566 0.984 . S
N560 H567 0.984 . S
N561 C554 1.356 . S
N561 H564 0.984 . S
N561 H565 0.985 . S
H562 N557 0.984 . S
H563 N557 0.985 . S
H564 N561 0.984 . S
H565 N561 0.985 . S
H566 N560 0.984 . S
H567 N560 0.984 . S
H568 N556 0.984 . S
H569 N556 0.985 . S
C570 C571 1.363 . S
C570 C576 1.379 . S
C570 N578 1.356 . S
C571 C570 1.363 . S
C571 C577 1.363 . S
C572 C573 1.363 . S
C572 C577 1.379 . S
C572 N579 1.356 . S
C573 C572 1.363 . S
C573 C576 1.363 . S
N574 C576 1.356 . S
N574 H586 0.984 . S
N574 H587 0.985 . S
N575 C577 1.356 . S
N575 H580 0.984 . S
N575 H581 0.985 . S
C576 C570 1.379 . S
C576 C573 1.363 . S
C576 N574 1.356 . S
C577 C571 1.363 . S
C577 C572 1.379 . S
C577 N575 1.356 . S
N578 C570 1.356 . S
N578 H584 0.984 . S
N578 H585 0.984 . S
N579 C572 1.356 . S
N579 H582 0.984 1_455 S
N579 H583 0.985 1_455 S
H580 N575 0.984 . S
H581 N575 0.985 . S
H582 N579 0.984 1_655 S
H583 N579 0.985 1_655 S
H584 N578 0.984 . S
H585 N578 0.984 . S
H586 N574 0.984 . S
H587 N574 0.985 . S
C588 C589 1.363 . S
C588 C594 1.379 . S
C588 N596 1.356 . S
C589 C588 1.363 . S
C589 C595 1.363 . S
C590 C591 1.363 . S
C590 C595 1.379 . S
C590 N597 1.356 . S
C591 C590 1.363 . S
C591 C594 1.363 . S
N592 C594 1.356 . S
N592 H604 0.984 . S
N592 H605 0.985 . S
N593 C595 1.356 . S
N593 H598 0.984 . S
N593 H599 0.985 . S
C594 C588 1.379 . S
C594 C591 1.363 . S
C594 N592 1.356 . S
C595 C589 1.363 . S
C595 C590 1.379 . S
C595 N593 1.356 . S
N596 C588 1.356 . S
N596 H602 0.984 . S
N596 H603 0.984 . S
N597 C590 1.356 . S
N597 H600 0.984 1_556 S
N597 H601 0.985 . S
H598 N593 0.984 . S
H599 N593 0.985 . S
H600 N597 0.984 1_554 S
H601 N597 0.985 . S
H602 N596 0.984 . S
H603 N596 0.984 . S
H604 N592 0.984 . S
H605 N592 0.985 . S
C606 C607 1.363 . S
C606 C612 1.379 . S
C606 N614 1.356 . S
C607 C606 1.363 . S
C607 C613 1.363 . S
C608 C609 1.363 . S
C608 C613 1.379 . S
C608 N615 1.356 . S
C609 C608 1.363 . S
C609 C612 1.363 . S
N610 C612 1.356 . S
N610 H622 0.984 . S
N610 H623 0.985 . S
N611 C613 1.356 . S
N611 H616 0.984 . S
N611 H617 0.985 . S
C612 C606 1.379 . S
C612 C609 1.363 . S
C612 N610 1.356 . S
C613 C607 1.363 . S
C613 C608 1.379 . S
C613 N611 1.356 . S
N614 C606 1.356 . S
N614 H620 0.984 . S
N614 H621 0.984 . S
N615 C608 1.356 . S
N615 H618 0.984 . S
N615 H619 0.985 . S
H616 N611 0.984 . S
H617 N611 0.985 . S
H618 N615 0.984 . S
H619 N615 0.985 . S
H620 N614 0.984 . S
H621 N614 0.984 . S
H622 N610 0.984 . S
H623 N610 0.985 . S
C265 C149 1.490 . S
C267 C17 1.490 . S
C283 C50 1.490 . S
C285 C182 1.490 . S
C301 C83 1.490 . S
C303 C215 1.490 . S
C319 C116 1.490 . S
C321 C248 1.490 . S
C337 N179 0.847 . S
C339 N14 0.847 . S
C355 N47 0.847 . S
C357 N212 0.847 . S
C373 N245 0.847 . S
C375 N80 0.847 . S
C391 N113 0.847 . S
C393 N146 0.847 . S
C409 N5 1.337 . S
C411 N203 1.337 . S
C427 N236 1.337 . S
C429 N38 1.337 . S
C445 N71 1.337 . S
C447 N137 1.337 . S
C463 N170 1.337 . S
C465 N104 1.337 . S
C481 C28 1.948 . S
C483 C107 1.956 . S
C499 C8 1.956 . S
C501 C61 1.948 . S
C517 C41 1.956 . S
C519 C94 1.948 . S
C535 C74 1.956 . S
C537 C127 1.948 . S
C553 C160 1.948 . S
C555 C173 1.956 . S
C571 C193 1.948 . S
C573 C206 1.956 . S
C589 C226 1.948 . S
C591 C239 1.956 . S
C607 C140 1.956 . S
C609 C259 1.948 . S
