# Generated by pormake.
# Topology unc, (4)-cn, num edge types: 1
# Building blocks:
#     Node 0, Type 0, BuildingBlock: UXUYUI_clean_sbu_0, # of connection points: 4
#     Node 1, Type 0, BuildingBlock: UXUYUI_clean_sbu_0, # of connection points: 4
#     Node 2, Type 0, BuildingBlock: UXUYUI_clean_sbu_0, # of connection points: 4
#     Node 3, Type 0, BuildingBlock: UXUYUI_clean_sbu_0, # of connection points: 4
#     Edge 4, Type (0, 0), BuildingBlock: ZUJKAS_clean_linker_0, # of connection points: 2
#     Edge 5, Type (0, 0), BuildingBlock: ZUJKAS_clean_linker_0, # of connection points: 2
#     Edge 6, Type (0, 0), BuildingBlock: ZUJKAS_clean_linker_0, # of connection points: 2
#     Edge 7, Type (0, 0), BuildingBlock: ZUJKAS_clean_linker_0, # of connection points: 2
#     Edge 8, Type (0, 0), BuildingBlock: ZUJKAS_clean_linker_0, # of connection points: 2
#     Edge 9, Type (0, 0), BuildingBlock: ZUJKAS_clean_linker_0, # of connection points: 2
#     Edge 10, Type (0, 0), BuildingBlock: ZUJKAS_clean_linker_0, # of connection points: 2
#     Edge 11, Type (0, 0), BuildingBlock: ZUJKAS_clean_linker_0, # of connection points: 2
# Relax obj value: 0.184
# Max RMSD: 0.213
# Mean RMSD: 0.213
data_MOF--net-unc--node1-UXUYUI_clean_sbu_0--edge1-ZUJKAS_clean_linker_0
_symmetry_space_group_name_H-M    P1
_symmetry_Int_Tables_number       1
_symmetry_cell_setting            triclinic
loop_
_symmetry_equiv_pos_as_xyz
'x, y, z'
_cell_length_a     51.862571
_cell_length_b     51.870048
_cell_length_c     39.177187
_cell_angle_alpha  89.982851
_cell_angle_beta   89.991845
_cell_angle_gamma 89.985886
loop_
_atom_site_label
_atom_site_type_symbol
_atom_site_fract_x
_atom_site_fract_y
_atom_site_fract_z
_atom_type_partial_charge
Li0 Li 0.01845 0.67604 0.00832 0.0
Li1 Li 0.98698 0.64347 0.02597 0.0
Li2 Li 0.00712 0.64147 0.96775 0.0
Li3 Li 0.97415 0.67329 0.98219 0.0
C4 C 0.04852 0.63098 0.02001 0.0
N5 N 0.09869 0.61606 0.03339 0.0
C6 C 0.05503 0.62065 0.05183 0.0
C7 C 0.06746 0.63327 0.99482 0.0
C8 C 0.08052 0.61336 0.05816 0.0
C9 C 0.09273 0.62573 0.00211 0.0
C10 C 0.97494 0.68538 0.06216 0.0
C11 C 0.94025 0.6834 0.1031 0.0
N12 N 0.95654 0.69203 0.12778 0.0
C13 C 0.99127 0.69448 0.08785 0.0
C14 C 0.94915 0.68004 0.06974 0.0
C15 C 0.98163 0.69763 0.12089 0.0
C16 C 0.04759 0.72182 0.00826 0.0
N17 N 0.04484 0.69853 0.02374 0.0
C18 C 0.07889 0.70824 0.0627 0.0
C19 C 0.05985 0.6916 0.05066 0.0
C20 C 0.0823 0.73239 0.04712 0.0
C21 C 0.06636 0.73912 0.01953 0.0
H22 H 0.0351 0.72699 0.98724 0.0
H23 H 0.05664 0.67343 0.06337 0.0
C24 C 0.95752 0.60532 0.06011 0.0
N25 N 0.97618 0.62349 0.06387 0.0
C26 C 0.9504 0.58984 0.08772 0.0
C27 C 0.98162 0.61235 0.12253 0.0
C28 C 0.9882 0.62725 0.09426 0.0
C29 C 0.96271 0.59309 0.11938 0.0
H30 H 0.94855 0.60248 0.03551 0.0
H31 H 0.00317 0.64165 0.09641 0.0
C32 C 0.02181 0.68674 0.93156 0.0
N33 N 0.04977 0.70211 0.87501 0.0
C34 C 0.00912 0.6942 0.90167 0.0
C35 C 0.04873 0.68764 0.93287 0.0
C36 C 0.02358 0.70174 0.87329 0.0
C37 C 0.06252 0.69532 0.90398 0.0
C38 C 0.94759 0.63076 0.966 0.0
C39 C 0.94674 0.62154 0.9325 0.0
C40 C 0.92459 0.63565 0.98343 0.0
C41 C 0.92285 0.6178 0.91678 0.0
C42 C 0.90109 0.63171 0.96681 0.0
N43 N 0.90072 0.62296 0.93409 0.0
C44 C 0.03056 0.5962 0.9437 0.0
C45 C 0.0164 0.62435 0.8999 0.0
C46 C 0.0387 0.57814 0.91961 0.0
N47 N 0.01971 0.61878 0.93351 0.0
C48 C 0.02411 0.60679 0.87493 0.0
C49 C 0.03523 0.58319 0.88467 0.0
H50 H 0.03246 0.59199 0.97061 0.0
H51 H 0.00685 0.64195 0.89245 0.0
C52 C 0.9353 0.71111 0.98478 0.0
N53 N 0.94631 0.69298 0.96445 0.0
C54 C 0.91492 0.72609 0.97265 0.0
C55 C 0.91762 0.70348 0.91882 0.0
C56 C 0.938 0.68901 0.93197 0.0
C57 C 0.90584 0.7224 0.93922 0.0
H58 H 0.94253 0.71415 0.01033 0.0
H59 H 0.94724 0.67461 0.91623 0.0
O60 O 0.02363 0.63829 0.01347 0.0
O61 O 0.98412 0.68188 0.02974 0.0
O62 O 0.00788 0.67941 0.95963 0.0
O63 O 0.97081 0.6348 0.98169 0.0
H64 H 0.0406 0.61841 0.07151 0.0
H65 H 0.06266 0.64038 0.96972 0.0
H66 H 0.08584 0.60552 0.08276 0.0
H67 H 0.10756 0.62745 0.98283 0.0
H68 H 0.92038 0.67917 0.10935 0.0
H69 H 0.0112 0.69893 0.08242 0.0
H70 H 0.93618 0.67328 0.05012 0.0
H71 H 0.9941 0.7045 0.14106 0.0
H72 H 0.09037 0.70254 0.08452 0.0
H73 H 0.06843 0.75752 0.00674 0.0
H74 H 0.93601 0.57498 0.08401 0.0
H75 H 0.99138 0.61577 0.14653 0.0
H76 H 0.98831 0.694 0.90029 0.0
H77 H 0.05891 0.68282 0.95605 0.0
H78 H 0.01399 0.70734 0.84992 0.0
H79 H 0.08336 0.69602 0.90465 0.0
H80 H 0.96431 0.61742 0.91872 0.0
H81 H 0.92487 0.64252 0.00945 0.0
H82 H 0.92192 0.61081 0.89079 0.0
H83 H 0.88315 0.63559 0.97993 0.0
H84 H 0.04731 0.56029 0.92829 0.0
H85 H 0.02045 0.61125 0.84837 0.0
H86 H 0.90676 0.74078 0.98906 0.0
H87 H 0.9111 0.69982 0.89302 0.0
Li88 Li 0.35179 0.98761 0.27432 0.0
Li89 Li 0.31932 0.0197 0.25923 0.0
Li90 Li 0.31826 0.97571 0.23247 0.0
Li91 Li 0.35026 0.0081 0.21659 0.0
C92 C 0.30503 0.97013 0.30709 0.0
N93 N 0.28671 0.93898 0.35901 0.0
C94 C 0.2955 0.98106 0.33717 0.0
C95 C 0.30472 0.94334 0.3032 0.0
C96 C 0.28648 0.965 0.36319 0.0
C97 C 0.29552 0.92792 0.32978 0.0
C98 C 0.35982 0.04684 0.27897 0.0
C99 C 0.35657 0.09318 0.28169 0.0
N100 N 0.36355 0.09241 0.31514 0.0
C101 C 0.36715 0.04651 0.3133 0.0
C102 C 0.35469 0.07036 0.26293 0.0
C103 C 0.36887 0.06976 0.33117 0.0
C104 C 0.39908 0.97011 0.29877 0.0
N105 N 0.37456 0.97552 0.30872 0.0
C106 C 0.38506 0.96633 0.36682 0.0
C107 C 0.36727 0.97373 0.34195 0.0
C108 C 0.41064 0.96097 0.35737 0.0
C109 C 0.4175 0.96266 0.32276 0.0
H110 H 0.40439 0.97198 0.27219 0.0
H111 H 0.34792 0.97883 0.34941 0.0
C112 C 0.28206 0.05919 0.25554 0.0
N113 N 0.29845 0.04669 0.27693 0.0
C114 C 0.26616 0.07879 0.26787 0.0
C115 C 0.28426 0.07222 0.32406 0.0
C116 C 0.29988 0.05283 0.31059 0.0
C117 C 0.26699 0.08543 0.30264 0.0
H118 H 0.28118 0.05383 0.22893 0.0
H119 H 0.31306 0.04254 0.32705 0.0
C120 C 0.36536 0.94689 0.22439 0.0
N121 N 0.38432 0.89747 0.21595 0.0
C122 C 0.37747 0.93985 0.19389 0.0
C123 C 0.36335 0.92889 0.2508 0.0
C124 C 0.38679 0.91475 0.19005 0.0
C125 C 0.37294 0.90399 0.24601 0.0
C126 C 0.30972 0.01893 0.17857 0.0
C127 C 0.302 0.00228 0.15245 0.0
C128 C 0.31527 0.04467 0.17102 0.0
C129 C 0.30031 0.01161 0.11907 0.0
C130 C 0.3134 0.05325 0.13731 0.0
N131 N 0.30604 0.03668 0.11224 0.0
C132 C 0.27193 0.94825 0.22761 0.0
C133 C 0.30495 0.93277 0.19111 0.0
C134 C 0.25473 0.92991 0.21497 0.0
N135 N 0.2965 0.94926 0.21564 0.0
C136 C 0.28844 0.91407 0.17783 0.0
C137 C 0.26292 0.91257 0.18965 0.0
H138 H 0.26568 0.96186 0.24682 0.0
H139 H 0.32428 0.93452 0.1812 0.0
C140 C 0.38659 0.03998 0.18208 0.0
N141 N 0.37056 0.01936 0.17925 0.0
C142 C 0.40209 0.04728 0.15455 0.0
C143 C 0.38402 0.01213 0.12182 0.0
C144 C 0.36891 0.00556 0.14989 0.0
C145 C 0.40112 0.03304 0.12406 0.0
H146 H 0.38766 0.05047 0.20587 0.0
H147 H 0.35595 0.98928 0.1484 0.0
O148 O 0.31377 0.98567 0.28126 0.0
O149 O 0.35772 0.02425 0.26118 0.0
O150 O 0.35619 0.97147 0.22853 0.0
O151 O 0.31188 0.01004 0.21133 0.0
H152 H 0.29518 0.00172 0.34053 0.0
H153 H 0.31115 0.93447 0.27978 0.0
H154 H 0.27926 0.97323 0.38669 0.0
H155 H 0.29525 0.90717 0.3271 0.0
H156 H 0.35246 0.1115 0.26967 0.0
H157 H 0.3713 0.02852 0.32609 0.0
H158 H 0.34908 0.07097 0.23637 0.0
H159 H 0.37439 0.06978 0.3578 0.0
H160 H 0.37909 0.96578 0.3933 0.0
H161 H 0.43697 0.95856 0.31437 0.0
H162 H 0.25341 0.08866 0.25031 0.0
H163 H 0.28533 0.07641 0.3511 0.0
H164 H 0.37959 0.95357 0.17332 0.0
H165 H 0.35489 0.93414 0.27497 0.0
H166 H 0.39603 0.90902 0.16648 0.0
H167 H 0.37146 0.88988 0.26626 0.0
H168 H 0.29751 0.98234 0.15784 0.0
H169 H 0.32121 0.05783 0.19092 0.0
H170 H 0.2945 -0.0011 0.09858 0.0
H171 H 0.31783 0.07308 0.13106 0.0
H172 H 0.23526 0.92928 0.22492 0.0
H173 H 0.29537 0.90141 0.15786 0.0
H174 H 0.41522 0.06337 0.15742 0.0
H175 H 0.3824 0.00087 0.09864 0.0
Li176 Li 0.00671 0.34849 0.52416 0.0
Li177 Li 0.97429 0.31642 0.50769 0.0
Li178 Li 0.01658 0.31662 0.48148 0.0
Li179 Li 0.98668 0.34999 0.46931 0.0
C180 C 0.00431 0.30312 0.56331 0.0
N181 N 0.99589 0.28837 0.63019 0.0
C182 C 0.98774 0.31743 0.58415 0.0
C183 C 0.0166 0.28131 0.57653 0.0
C184 C 0.98373 0.30966 0.61787 0.0
C185 C 0.01209 0.27417 0.6104 0.0
C186 C 0.94721 0.36611 0.50603 0.0
C187 C 0.90588 0.36632 0.47777 0.0
N188 N 0.90257 0.39139 0.48694 0.0
C189 C 0.94338 0.39187 0.5152 0.0
C190 C 0.92831 0.35321 0.48717 0.0
C191 C 0.92069 0.40431 0.5053 0.0
C192 C 0.0141 0.39482 0.55817 0.0
N193 N 0.02021 0.3694 0.55969 0.0
C194 C 0.04337 0.3758 0.6117 0.0
C195 C 0.03513 0.35978 0.58523 0.0
C196 C 0.03641 0.40198 0.61156 0.0
C197 C 0.02194 0.41154 0.584 0.0
H198 H 0.00285 0.40201 0.537 0.0
H199 H 0.04044 0.33963 0.58532 0.0
C200 C 0.94697 0.27002 0.51411 0.0
N201 N 0.94767 0.29498 0.52449 0.0
C202 C 0.92876 0.25311 0.52781 0.0
C203 C 0.91227 0.28809 0.56233 0.0
C204 C 0.93072 0.30431 0.54788 0.0
C205 C 0.91129 0.26205 0.55255 0.0
H206 H 0.96092 0.26315 0.49569 0.0
H207 H 0.93182 0.32426 0.55576 0.0
C208 C 0.04932 0.35883 0.48505 0.0
N209 N 0.10112 0.36838 0.49564 0.0
C210 C 0.0616 0.37879 0.4675 0.0
C211 C 0.06338 0.3437 0.50802 0.0
C212 C 0.08781 0.38332 0.47319 0.0
C213 C 0.08954 0.34884 0.51301 0.0
C214 C 0.98619 0.30785 0.42464 0.0
C215 C 0.00289 0.32321 0.40536 0.0
C216 C 0.9734 0.28726 0.4091 0.0
C217 C 0.0065 0.3177 0.37079 0.0
C218 C 0.97753 0.28237 0.37445 0.0
N219 N 0.99385 0.29756 0.35618 0.0
C220 C 0.04497 0.27081 0.47687 0.0
C221 C 0.05915 0.3036 0.43913 0.0
C222 C 0.06425 0.25421 0.46524 0.0
N223 N 0.04287 0.29497 0.4638 0.0
C224 C 0.07861 0.28762 0.42661 0.0
C225 C 0.08142 0.26256 0.43976 0.0
H226 H 0.0317 0.2645 0.49646 0.0
H227 H 0.05707 0.32292 0.42915 0.0
C228 C 0.98529 0.3981 0.43956 0.0
N229 N 0.97492 0.37419 0.43658 0.0
C230 C 0.97877 0.41738 0.41639 0.0
C231 C 0.9505 0.38721 0.38784 0.0
C232 C 0.9575 0.36849 0.41178 0.0
C233 C 0.96149 0.41195 0.38972 0.0
H234 H -0.0012 0.40209 0.45993 0.0
H235 H 0.94931 0.34935 0.41031 0.0
O236 O 0.00838 0.31009 0.53004 0.0
O237 O 0.96963 0.35377 0.51454 0.0
O238 O 0.02365 0.3543 0.47958 0.0
O239 O 0.98232 0.3127 0.45858 0.0
H240 H 0.97813 0.33442 0.57452 0.0
H241 H 0.02949 0.27002 0.56077 0.0
H242 H 0.97097 0.32057 0.63425 0.0
H243 H 0.02148 0.25733 0.62095 0.0
H244 H 0.89117 0.35661 0.46303 0.0
H245 H 0.95775 0.40218 0.52977 0.0
H246 H 0.93112 0.3334 0.47936 0.0
H247 H 0.91749 0.42425 0.51219 0.0
H248 H 0.0549 0.36776 0.63214 0.0
H249 H 0.01602 0.43155 0.58293 0.0
H250 H 0.92885 0.23311 0.51987 0.0
H251 H 0.89897 0.29581 0.58104 0.0
H252 H 0.05098 0.39066 0.44962 0.0
H253 H 0.05429 0.32812 0.5218 0.0
H254 H 0.09756 0.39871 0.45976 0.0
H255 H 0.10065 0.33729 0.53068 0.0
H256 H 0.01292 0.33926 0.41685 0.0
H257 H 0.96043 0.27518 0.4237 0.0
H258 H 0.01935 0.32943 0.35558 0.0
H259 H 0.96775 0.26649 0.3621 0.0
H260 H 0.06587 0.2352 0.47644 0.0
H261 H 0.09111 0.29476 0.4066 0.0
H262 H 0.98727 0.43632 0.41927 0.0
H263 H 0.93721 0.38215 0.36761 0.0
Li264 Li 0.64335 0.00734 0.77791 0.0
Li265 Li 0.67482 0.97369 0.7654 0.0
Li266 Li 0.67907 0.01682 0.74126 0.0
Li267 Li 0.64563 0.98719 0.7217 0.0
C268 C 0.70105 0.01982 0.80133 0.0
N269 N 0.74427 0.04709 0.82117 0.0
C270 C 0.72461 0.00713 0.80564 0.0
C271 C 0.69944 0.04634 0.80729 0.0
C272 C 0.74624 0.02127 0.81569 0.0
C273 C 0.72153 0.0598 0.81722 0.0
C274 C 0.63313 0.94889 0.78349 0.0
C275 C 0.63486 0.90253 0.78769 0.0
N276 N 0.62829 0.90415 0.82123 0.0
C277 C 0.62633 0.95011 0.81797 0.0
C278 C 0.63733 0.92493 0.76814 0.0
C279 C 0.62399 0.92726 0.83662 0.0
C280 C 0.59462 0.01606 0.80617 0.0
N281 N 0.62018 0.02041 0.81107 0.0
C282 C 0.61167 0.04244 0.86338 0.0
C283 C 0.62899 0.03327 0.83895 0.0
C284 C 0.58511 0.03837 0.85887 0.0
C285 C 0.57663 0.02511 0.82972 0.0
H286 H 0.58826 0.00536 0.78403 0.0
H287 H 0.64946 0.03616 0.84238 0.0
C288 C 0.70746 0.9302 0.76309 0.0
N289 N 0.69339 0.94553 0.78413 0.0
C290 C 0.72186 0.90985 0.77643 0.0
C291 C 0.707 0.92146 0.83289 0.0
C292 C 0.69293 0.94164 0.81843 0.0
C293 C 0.72186 0.90533 0.8118 0.0
H294 H 0.70786 0.93404 0.73601 0.0
H295 H 0.68178 0.95437 0.83456 0.0
C296 C 0.62262 0.04109 0.73626 0.0
N297 N 0.5814 0.07399 0.7464 0.0
C298 C 0.59851 0.03531 0.72226 0.0
C299 C 0.62579 0.06368 0.75527 0.0
C300 C 0.57792 0.05218 0.72768 0.0
C301 C 0.6047 0.08003 0.76018 0.0
C302 C 0.68616 0.97569 0.68511 0.0
C303 C 0.69442 0.99336 0.66048 0.0
C304 C 0.67956 0.95063 0.67531 0.0
C305 C 0.69582 0.98567 0.62636 0.0
C306 C 0.68116 0.94372 0.64092 0.0
N307 N 0.68919 0.96123 0.61736 0.0
C308 C 0.7284 0.03634 0.72571 0.0
C309 C 0.69407 0.06573 0.71665 0.0
C310 C 0.74628 0.05452 0.71436 0.0
N311 N 0.7029 0.04231 0.7268 0.0
C312 C 0.71124 0.08446 0.70499 0.0
C313 C 0.73776 0.07894 0.70366 0.0
H314 H 0.7348 0.01738 0.73345 0.0
H315 H 0.67364 0.06975 0.71706 0.0
C316 C 0.60957 0.95682 0.68491 0.0
N317 N 0.62575 0.97738 0.6833 0.0
C318 C 0.59373 0.95084 0.65721 0.0
C319 C 0.61185 0.9871 0.62669 0.0
C320 C 0.62723 0.99242 0.65499 0.0
C321 C 0.59452 0.96629 0.62775 0.0
H322 H 0.60849 0.94548 0.708 0.0
H323 H 0.64006 0.00885 0.65468 0.0
O324 O 0.67974 0.0064 0.791 0.0
O325 O 0.63598 0.97105 0.76495 0.0
O326 O 0.64292 0.02458 0.73178 0.0
O327 O 0.68426 0.98296 0.71858 0.0
H328 H 0.72626 0.98665 0.80098 0.0
H329 H 0.6814 0.05649 0.80382 0.0
H330 H 0.76463 0.01173 0.81899 0.0
H331 H 0.7206 0.08036 0.82168 0.0
H332 H 0.63824 0.88387 0.77621 0.0
H333 H 0.62314 0.96848 0.83032 0.0
H334 H 0.64281 0.92366 0.74155 0.0
H335 H 0.61884 0.92791 0.86337 0.0
H336 H 0.61893 0.05257 0.88555 0.0
H337 H 0.55636 0.02114 0.82565 0.0
H338 H 0.73343 0.89824 0.75931 0.0
H339 H 0.70629 0.91857 0.86024 0.0
H340 H 0.59562 0.01785 0.70769 0.0
H341 H 0.64424 0.06835 0.76654 0.0
H342 H 0.55913 0.04789 0.71713 0.0
H343 H 0.60684 0.09747 0.77504 0.0
H344 H 0.69948 0.01286 0.66754 0.0
H345 H 0.67288 0.93679 0.69398 0.0
H346 H 0.70209 -0.00084 0.60701 0.0
H347 H 0.67594 0.92445 0.63294 0.0
H348 H 0.76655 0.0495 0.71403 0.0
H349 H 0.70375 0.10282 0.69635 0.0
H350 H 0.58038 0.93486 0.65932 0.0
H351 H 0.61331 -0.00066 0.60438 0.0
H352 H 0.99676 0.57201 0.16453 0.0
H353 H 0.98756 0.54322 0.21218 0.0
H354 H 0.90655 0.54529 0.18768 0.0
H355 H 0.9155 0.57469 0.14002 0.0
H356 H 0.95185 0.55282 0.26922 0.0
H357 H 0.92711 0.46674 0.19043 0.0
H358 H 0.94518 0.4935 0.17316 0.0
H359 H 0.91131 0.49686 0.18114 0.0
C360 C 0.97692 0.56668 0.16946 0.0
C361 C 0.95684 0.57576 0.14853 0.0
C362 C 0.97173 0.5501 0.19659 0.0
C363 C 0.94643 0.54208 0.20323 0.0
C364 C 0.92624 0.5511 0.18263 0.0
H365 H 0.91507 0.42315 0.35909 0.0
H366 H 0.90664 0.45595 0.31526 0.0
C367 C 0.93141 0.56781 0.15542 0.0
C368 C 0.94166 0.52417 0.23183 0.0
H369 H 0.93074 0.46069 0.24965 0.0
C370 C 0.94681 0.53276 0.26506 0.0
C371 C 0.93487 0.49812 0.22623 0.0
C372 C 0.92937 0.48804 0.19086 0.0
C373 C 0.94653 0.51567 0.29276 0.0
C374 C 0.94144 0.48928 0.28686 0.0
C375 C 0.93473 0.48096 0.25396 0.0
C376 C 0.94598 0.46971 0.31361 0.0
C377 C 0.9524 0.52587 0.32797 0.0
C378 C 0.97095 0.46633 0.32653 0.0
C379 C 0.97586 0.4476 0.35117 0.0
C380 C 0.95589 0.43178 0.36341 0.0
C381 C 0.93088 0.43496 0.35007 0.0
C382 C 0.92599 0.45374 0.32523 0.0
H383 H 0.94784 0.54675 0.33 0.0
H384 H 0.94136 0.51527 0.3478 0.0
H385 H 0.97327 0.5234 0.33329 0.0
H386 H 0.98677 0.47801 0.31719 0.0
H387 H 0.99546 0.44525 0.3602 0.0
H388 H 0.40617 0.92964 0.41341 0.0
H389 H 0.43762 0.92377 0.45947 0.0
H390 H 0.49083 0.97395 0.40709 0.0
H391 H 0.45963 0.97992 0.36111 0.0
H392 H 0.51434 0.93002 0.43594 0.0
H393 H 0.45145 0.98176 0.52849 0.0
H394 H 0.43724 0.95422 0.50801 0.0
H395 H 0.44547 0.98213 0.48313 0.0
C396 C 0.42462 0.93934 0.4117 0.0
C397 C 0.43036 0.95538 0.38376 0.0
C398 C 0.44254 0.93595 0.43797 0.0
C399 C 0.46637 0.94872 0.43684 0.0
C400 C 0.47254 0.9639 0.40838 0.0
H401 H 0.56808 0.00224 0.59094 0.0
H402 H 0.53757 0.99501 0.54459 0.0
C403 C 0.45471 0.96723 0.38209 0.0
C404 C 0.48441 0.94763 0.46604 0.0
H405 H 0.49152 0.96711 0.54868 0.0
C406 C 0.50934 0.93788 0.46073 0.0
C407 C 0.4778 0.95817 0.49817 0.0
C408 C 0.45163 0.96987 0.5049 0.0
C409 C 0.52807 0.93887 0.48657 0.0
C410 C 0.52149 0.94961 0.51857 0.0
C411 C 0.4964 0.95879 0.52411 0.0
C412 C 0.54081 0.95344 0.54586 0.0
C413 C 0.55499 0.92943 0.47903 0.0
C414 C 0.55275 0.93241 0.56191 0.0
C415 C 0.57046 0.93649 0.58829 0.0
C416 C 0.57641 0.96168 0.59907 0.0
C417 C 0.56434 0.98264 0.58285 0.0
C418 C 0.54672 0.97854 0.55655 0.0
H419 H 0.55814 0.92627 0.4513 0.0
H420 H 0.56956 0.94341 0.48844 0.0
H421 H 0.55824 0.91085 0.49241 0.0
H422 H 0.54815 0.91287 0.55432 0.0
H423 H 0.57953 0.91996 0.60018 0.0
H424 H 0.0275 0.53115 0.88888 0.0
H425 H 0.03438 0.49892 0.8445 0.0
H426 H 0.06234 0.55799 0.77643 0.0
H427 H 0.05655 0.5903 0.82124 0.0
H428 H 0.00926 0.49966 0.7833 0.0
H429 H 0.11506 0.50073 0.76226 0.0
H430 H 0.10021 0.51454 0.79973 0.0
H431 H 0.10024 0.53197 0.76006 0.0
C432 C 0.03581 0.53724 0.86484 0.0
C433 C 0.0415 0.56334 0.85864 0.0
C434 C 0.03957 0.51879 0.83941 0.0
C435 C 0.04912 0.52601 0.80732 0.0
C436 C 0.05542 0.55191 0.80124 0.0
H437 H 0.05301 0.45213 0.60986 0.0
H438 H 0.05811 0.4815 0.65837 0.0
C439 C 0.05176 0.5704 0.82673 0.0
C440 C 0.05004 0.50688 0.77933 0.0
H441 H 0.08973 0.47846 0.72078 0.0
C442 C 0.0269 0.49484 0.76986 0.0
C443 C 0.07306 0.50082 0.76169 0.0
C444 C 0.09861 0.5125 0.7716 0.0
C445 C 0.02604 0.47718 0.74286 0.0
C446 C 0.04901 0.47114 0.72519 0.0
C447 C 0.0722 0.48314 0.73455 0.0
C448 C 0.04897 0.45272 0.69645 0.0
C449 C 0.00042 0.46558 0.7329 0.0
C450 C 0.04288 0.42673 0.70203 0.0
C451 C 0.03978 0.40999 0.67445 0.0
C452 C 0.04279 0.41897 0.64081 0.0
C453 C 0.05016 0.44476 0.63545 0.0
C454 C 0.05328 0.46149 0.66309 0.0
H455 H 0.98394 0.47632 0.74415 0.0
H456 H -0.00183 0.46531 0.70471 0.0
H457 H -0.0005 0.44539 0.74217 0.0
H458 H 0.03972 0.41961 0.72769 0.0
H459 H 0.03393 0.3903 0.67945 0.0
H460 H 0.41367 0.08062 0.09817 0.0
H461 H 0.44257 0.09005 0.0501 0.0
H462 H 0.45707 0.00872 0.0375 0.0
H463 H 0.42842 -0.0008 0.08519 0.0
H464 H 0.49439 0.07862 0.0418 0.0
H465 H 0.43651 0.03094 0.94164 0.0
H466 H 0.42352 0.03871 0.98315 0.0
H467 H 0.44228 0.00984 0.97709 0.0
C468 C 0.42306 0.06479 0.08511 0.0
C469 C 0.41855 0.03914 0.09517 0.0
C470 C 0.43945 0.0702 0.05764 0.0
C471 C 0.45147 0.05004 0.03981 0.0
C472 C 0.44738 0.02451 0.05027 0.0
H473 H 0.58879 0.03193 0.92771 0.0
H474 H 0.55581 0.04072 0.97058 0.0
C475 C 0.43101 0.0191 0.07755 0.0
C476 C 0.46908 0.05536 0.01095 0.0
H477 H 0.48166 0.03681 0.92919 0.0
C478 C 0.49144 0.06989 0.01694 0.0
C479 C 0.4649 0.04449 0.97832 0.0
C480 C 0.44035 0.03037 0.96953 0.0
C481 C 0.51059 0.07235 0.99181 0.0
C482 C 0.50744 0.05945 0.96026 0.0
C483 C 0.48427 0.04641 0.95354 0.0
C484 C 0.52855 0.05733 0.93491 0.0
C485 C 0.53411 0.08841 -0.00046 0.0
C486 C 0.52414 0.06347 0.90049 0.0
C487 C 0.54287 0.05811 0.87585 0.0
C488 C 0.56635 0.04655 0.88523 0.0
C489 C 0.57106 0.04122 0.91982 0.0
C490 C 0.55225 0.04637 0.94438 0.0
H491 H 0.52953 0.10397 0.01807 0.0
H492 H 0.54911 0.07596 0.01124 0.0
H493 H 0.54218 0.09726 0.97605 0.0
H494 H 0.50594 0.07179 0.89258 0.0
H495 H 0.53884 0.06259 0.84938 0.0
H496 H 0.27208 0.86181 0.17512 0.0
H497 H 0.24229 0.83073 0.14935 0.0
H498 H 0.18305 0.889 0.14574 0.0
H499 H 0.21279 0.9203 0.17086 0.0
H500 H 0.19231 0.81533 0.17493 0.0
H501 H 0.18728 0.86073 0.04661 0.0
H502 H 0.21271 0.86776 0.07671 0.0
H503 H 0.18142 0.88211 0.08187 0.0
C504 C 0.25277 0.86804 0.16858 0.0
C505 C 0.24478 0.8935 0.17491 0.0
C506 C 0.23578 0.85026 0.15404 0.0
C507 C 0.21065 0.85773 0.1453 0.0
C508 C 0.20251 0.88302 0.1519 0.0
H509 H 0.07703 0.78423 0.05742 0.0
H510 H 0.10889 0.81406 0.08109 0.0
C511 C 0.21943 0.90077 0.16656 0.0
C512 C 0.19273 0.83895 0.12978 0.0
H513 H 0.15788 0.82675 0.05772 0.0
C514 C 0.18487 0.81767 0.14924 0.0
C515 C 0.18311 0.84221 0.09631 0.0
C516 C 0.19168 0.86431 0.07396 0.0
C517 C 0.16704 0.79981 0.13638 0.0
C518 C 0.15731 0.80311 0.10292 0.0
C519 C 0.16537 0.8243 0.08337 0.0
C520 C 0.13841 0.78502 0.0879 0.0
C521 C 0.15822 0.77801 0.15907 0.0
C522 C 0.14466 0.75894 0.08332 0.0
C523 C 0.12652 0.74187 0.0698 0.0
C524 C 0.10189 0.75066 0.06031 0.0
C525 C 0.09591 0.77693 0.0642 0.0
C526 C 0.11403 0.79396 0.07785 0.0
H527 H 0.16233 0.78196 0.18641 0.0
H528 H 0.13722 0.77449 0.15609 0.0
H529 H 0.16861 0.76012 0.15184 0.0
H530 H 0.1636 0.75179 0.09016 0.0
H531 H 0.13182 0.72182 0.06656 0.0
H532 H 0.21646 0.09414 0.28606 0.0
H533 H 0.18747 0.12667 0.30969 0.0
H534 H 0.24826 0.15407 0.37533 0.0
H535 H 0.27774 0.122 0.35122 0.0
H536 H 0.19864 0.14317 0.40802 0.0
H537 H 0.19057 0.20661 0.29416 0.0
H538 H 0.18583 0.17279 0.28624 0.0
H539 H 0.21684 0.18414 0.3 0.0
C540 C 0.22387 0.10736 0.30507 0.0
C541 C 0.2495 0.10552 0.31662 0.0
C542 C 0.20723 0.12587 0.31861 0.0
C543 C 0.21586 0.14287 0.34395 0.0
C544 C 0.24132 0.14111 0.3557 0.0
H545 H 0.1311 0.27526 0.42266 0.0
H546 H 0.16474 0.24676 0.40045 0.0
C547 C 0.25806 0.12268 0.34203 0.0
C548 C 0.19793 0.16186 0.35896 0.0
H549 H 0.161 0.2143 0.33943 0.0
C550 C 0.19052 0.15884 0.39316 0.0
C551 C 0.18762 0.18236 0.33949 0.0
C552 C 0.19572 0.18692 0.303 0.0
C553 C 0.17239 0.17541 0.40816 0.0
C554 C 0.16139 0.19533 0.38832 0.0
C555 C 0.16939 0.19884 0.35443 0.0
C556 C 0.14113 0.21243 0.40209 0.0
C557 C 0.16508 0.17152 0.44508 0.0
C558 C 0.1167 0.20252 0.40995 0.0
C559 C 0.09734 0.21876 0.42223 0.0
C560 C 0.10208 0.24524 0.42689 0.0
C561 C 0.12666 0.25506 0.41894 0.0
C562 C 0.14597 0.2388 0.40647 0.0
H563 H 0.17924 0.15917 0.45873 0.0
H564 H 0.16362 0.19032 0.4585 0.0
H565 H 0.14595 0.162 0.4464 0.0
H566 H 0.11253 0.18226 0.40616 0.0
H567 H 0.07852 0.21064 0.42748 0.0
H568 H 0.77927 0.07071 0.6619 0.0
H569 H 0.80899 0.1028 0.63868 0.0
H570 H 0.76753 0.1631 0.69088 0.0
H571 H 0.73794 0.1311 0.71481 0.0
H572 H 0.77723 0.17235 0.61982 0.0
H573 H 0.86551 0.14373 0.69068 0.0
H574 H 0.84915 0.11781 0.66929 0.0
H575 H 0.83354 0.13423 0.70397 0.0
C576 C 0.77671 0.09073 0.66895 0.0
C577 C 0.75626 0.09832 0.69031 0.0
C578 C 0.79368 0.10903 0.65558 0.0
C579 C 0.79056 0.13522 0.66337 0.0
C580 C 0.77023 0.14293 0.68464 0.0
H581 H 0.89879 0.25866 0.62012 0.0
H582 H 0.86851 0.22878 0.64713 0.0
C583 C 0.75329 0.12464 0.69813 0.0
C584 C 0.80801 0.15468 0.64835 0.0
H585 H 0.8709 0.17387 0.64558 0.0
C586 C 0.7977 0.1728 0.62552 0.0
C587 C 0.8346 0.15528 0.65617 0.0
C588 C 0.84641 0.13689 0.68159 0.0
C589 C 0.81345 0.19124 0.60969 0.0
C590 C 0.84019 0.19132 0.61669 0.0
C591 C 0.8504 0.17356 0.64008 0.0
C592 C 0.85792 0.20975 0.60006 0.0
C593 C 0.80138 0.21063 0.58583 0.0
C594 C 0.86205 0.20878 0.56469 0.0
C595 C 0.87926 0.22586 0.54917 0.0
C596 C 0.89265 0.24418 0.5688 0.0
C597 C 0.88847 0.24504 0.60425 0.0
C598 C 0.87133 0.22789 0.61975 0.0
H599 H 0.78015 0.21183 0.58935 0.0
H600 H 0.80981 0.23008 0.58976 0.0
H601 H 0.80521 0.20478 0.55906 0.0
H602 H 0.85213 0.19464 0.54916 0.0
H603 H 0.88199 0.22483 0.52179 0.0
H604 H 0.75089 0.90723 0.87007 0.0
H605 H 0.7798 0.87409 0.89243 0.0
H606 H 0.75953 0.82389 0.80894 0.0
H607 H 0.7298 0.85659 0.787 0.0
H608 H 0.76224 0.79863 0.87238 0.0
H609 H 0.84934 0.85791 0.84731 0.0
H610 H 0.82552 0.87357 0.87333 0.0
H611 H 0.81814 0.8657 0.82972 0.0
C612 C 0.75222 0.88899 0.85675 0.0
C613 C 0.73817 0.88462 0.82659 0.0
C614 C 0.76897 0.87019 0.86937 0.0
C615 C 0.77213 0.84678 0.85196 0.0
C616 C 0.75749 0.84195 0.82256 0.0
H617 H 0.90209 0.74343 0.87536 0.0
H618 H 0.86826 0.7717 0.85339 0.0
C619 C 0.74068 0.86072 0.80994 0.0
C620 C 0.79125 0.82762 0.86387 0.0
H621 H 0.85555 0.81921 0.87842 0.0
C622 C 0.78266 0.80305 0.87366 0.0
C623 C 0.81789 0.83338 0.86494 0.0
C624 C 0.82838 0.85898 0.85297 0.0
C625 C 0.80003 0.78417 0.88512 0.0
C626 C 0.82657 0.79025 0.88728 0.0
C627 C 0.83516 0.81469 0.87697 0.0
C628 C 0.84591 0.7716 0.90002 0.0
C629 C 0.78988 0.75781 0.89429 0.0
C630 C 0.8445 0.76214 0.93352 0.0
C631 C 0.86369 0.74576 0.94607 0.0
C632 C 0.88475 0.73874 0.92542 0.0
C633 C 0.88595 0.74812 0.89177 0.0
C634 C 0.86673 0.76442 0.87924 0.0
H635 H 0.77072 0.75413 0.88257 0.0
H636 H 0.80343 0.74246 0.88597 0.0
H637 H 0.78768 0.75647 0.9224 0.0
H638 H 0.82885 0.76782 0.9502 0.0
H639 H 0.86207 0.73869 0.97199 0.0
loop_
_geom_bond_atom_site_label_1
_geom_bond_atom_site_label_2
_geom_bond_distance
_geom_bond_site_symmetry_2
_ccdc_geom_bond_type
Li0 N17 1.990 . S
Li0 O60 1.956 . S
Li0 O61 1.970 1_455 S
Li0 O62 1.961 1_554 S
Li1 N25 1.990 . S
Li1 O60 1.970 1_655 S
Li1 O61 1.956 . S
Li1 O63 1.961 1_554 S
Li2 N47 1.990 . S
Li2 O60 1.961 1_556 S
Li2 O62 1.956 . S
Li2 O63 1.970 1_455 S
Li3 N53 1.990 . S
Li3 O61 1.961 1_556 S
Li3 O62 1.970 1_655 S
Li3 O63 1.956 . S
C4 C6 1.348 . S
C4 C7 1.356 1_554 S
C4 O60 1.325 . S
N5 C8 1.314 . S
N5 C9 1.279 . S
C6 C4 1.348 . S
C6 C8 1.353 . S
C6 H64 0.929 . S
C7 C4 1.356 1_556 S
C7 C9 1.358 1_556 S
C7 H65 0.930 . S
C8 N5 1.314 . S
C8 C6 1.353 . S
C8 H66 0.930 . S
C9 N5 1.279 . S
C9 C7 1.358 1_554 S
C9 H67 0.930 1_554 S
C10 C13 1.348 1_655 S
C10 C14 1.356 . S
C10 O61 1.325 . S
C11 N12 1.279 . S
C11 C14 1.358 . S
C11 H68 0.930 . S
N12 C11 1.279 . S
N12 C15 1.314 . S
C13 C10 1.348 1_455 S
C13 C15 1.353 1_455 S
C13 H69 0.929 . S
C14 C10 1.356 . S
C14 C11 1.358 . S
C14 H70 0.930 . S
C15 N12 1.314 . S
C15 C13 1.353 1_655 S
C15 H71 0.930 1_655 S
C16 N17 1.314 . S
C16 C21 1.353 . S
C16 H22 0.930 1_554 S
N17 Li0 1.990 . S
N17 C16 1.314 . S
N17 C19 1.279 . S
C18 C19 1.358 . S
C18 C20 1.356 . S
C18 H72 0.930 . S
C19 N17 1.279 . S
C19 C18 1.358 . S
C19 H23 0.930 . S
C20 C18 1.356 . S
C20 C21 1.348 . S
C21 C16 1.353 . S
C21 C20 1.348 . S
C21 H73 0.929 . S
H22 C16 0.930 1_556 S
H23 C19 0.930 . S
C24 N25 1.314 . S
C24 C26 1.353 . S
C24 H30 0.930 . S
N25 Li1 1.990 . S
N25 C24 1.314 . S
N25 C28 1.279 . S
C26 C24 1.353 . S
C26 C29 1.348 . S
C26 H74 0.929 . S
C27 C28 1.358 . S
C27 C29 1.356 . S
C27 H75 0.930 . S
C28 N25 1.279 . S
C28 C27 1.358 . S
C28 H31 0.930 . S
C29 C26 1.348 . S
C29 C27 1.356 . S
H30 C24 0.930 . S
H31 C28 0.930 . S
C32 C34 1.348 1_455 S
C32 C35 1.356 . S
C32 O62 1.325 . S
N33 C36 1.314 . S
N33 C37 1.279 . S
C34 C32 1.348 1_655 S
C34 C36 1.353 1_655 S
C34 H76 0.929 . S
C35 C32 1.356 . S
C35 C37 1.358 . S
C35 H77 0.930 . S
C36 N33 1.314 . S
C36 C34 1.353 1_455 S
C36 H78 0.930 1_455 S
C37 N33 1.279 . S
C37 C35 1.358 . S
C37 H79 0.930 . S
C38 C39 1.348 . S
C38 C40 1.356 1_556 S
C38 O63 1.325 . S
C39 C38 1.348 . S
C39 C41 1.353 . S
C39 H80 0.929 . S
C40 C38 1.356 1_554 S
C40 C42 1.358 1_554 S
C40 H81 0.930 . S
C41 C39 1.353 . S
C41 N43 1.314 . S
C41 H82 0.930 . S
C42 C40 1.358 1_556 S
C42 N43 1.279 . S
C42 H83 0.930 1_556 S
N43 C41 1.314 . S
N43 C42 1.279 . S
C44 C46 1.353 . S
C44 N47 1.314 . S
C44 H50 0.930 . S
C45 N47 1.279 . S
C45 C48 1.358 . S
C45 H51 0.930 . S
C46 C44 1.353 . S
C46 C49 1.348 . S
C46 H84 0.929 . S
N47 Li2 1.990 . S
N47 C44 1.314 . S
N47 C45 1.279 . S
C48 C45 1.358 . S
C48 C49 1.356 . S
C48 H85 0.930 . S
C49 C46 1.348 . S
C49 C48 1.356 . S
H50 C44 0.930 . S
H51 C45 0.930 . S
C52 N53 1.314 . S
C52 C54 1.353 . S
C52 H58 0.930 1_556 S
N53 Li3 1.990 . S
N53 C52 1.314 . S
N53 C56 1.279 . S
C54 C52 1.353 . S
C54 C57 1.348 . S
C54 H86 0.929 . S
C55 C56 1.358 . S
C55 C57 1.356 . S
C55 H87 0.930 . S
C56 N53 1.279 . S
C56 C55 1.358 . S
C56 H59 0.930 . S
C57 C54 1.348 . S
C57 C55 1.356 . S
H58 C52 0.930 1_554 S
H59 C56 0.930 . S
O60 Li0 1.956 . S
O60 Li1 1.970 1_455 S
O60 Li2 1.961 1_554 S
O60 C4 1.325 . S
O61 Li0 1.970 1_655 S
O61 Li1 1.956 . S
O61 Li3 1.961 1_554 S
O61 C10 1.325 . S
O62 Li0 1.961 1_556 S
O62 Li2 1.956 . S
O62 Li3 1.970 1_455 S
O62 C32 1.325 . S
O63 Li1 1.961 1_556 S
O63 Li2 1.970 1_655 S
O63 Li3 1.956 . S
O63 C38 1.325 . S
H64 C6 0.929 . S
H65 C7 0.930 . S
H66 C8 0.930 . S
H67 C9 0.930 1_556 S
H68 C11 0.930 . S
H69 C13 0.929 . S
H70 C14 0.930 . S
H71 C15 0.930 1_455 S
H72 C18 0.930 . S
H73 C21 0.929 . S
H74 C26 0.929 . S
H75 C27 0.930 . S
H76 C34 0.929 . S
H77 C35 0.930 . S
H78 C36 0.930 1_655 S
H79 C37 0.930 . S
H80 C39 0.929 . S
H81 C40 0.930 . S
H82 C41 0.930 . S
H83 C42 0.930 1_554 S
H84 C46 0.929 . S
H85 C48 0.930 . S
H86 C54 0.929 . S
H87 C55 0.930 . S
Li88 N105 1.990 . S
Li88 O148 1.956 . S
Li88 O149 1.970 1_565 S
Li88 O150 1.961 . S
Li89 N113 1.990 . S
Li89 O148 1.970 1_545 S
Li89 O149 1.956 . S
Li89 O151 1.961 . S
Li90 N135 1.990 . S
Li90 O148 1.961 . S
Li90 O150 1.956 . S
Li90 O151 1.970 1_565 S
Li91 N141 1.990 . S
Li91 O149 1.961 . S
Li91 O150 1.970 1_545 S
Li91 O151 1.956 . S
C92 C94 1.348 1_565 S
C92 C95 1.356 . S
C92 O148 1.325 . S
N93 C96 1.314 . S
N93 C97 1.279 . S
C94 C92 1.348 1_545 S
C94 C96 1.353 1_545 S
C94 H152 0.929 . S
C95 C92 1.356 . S
C95 C97 1.358 . S
C95 H153 0.930 . S
C96 N93 1.314 . S
C96 C94 1.353 1_565 S
C96 H154 0.930 1_565 S
C97 N93 1.279 . S
C97 C95 1.358 . S
C97 H155 0.930 . S
C98 C101 1.348 . S
C98 C102 1.356 . S
C98 O149 1.325 . S
C99 N100 1.279 . S
C99 C102 1.358 . S
C99 H156 0.930 . S
N100 C99 1.279 . S
N100 C103 1.314 . S
C101 C98 1.348 . S
C101 C103 1.353 . S
C101 H157 0.929 . S
C102 C98 1.356 . S
C102 C99 1.358 . S
C102 H158 0.930 . S
C103 N100 1.314 . S
C103 C101 1.353 . S
C103 H159 0.930 . S
C104 N105 1.314 . S
C104 C109 1.353 . S
C104 H110 0.930 . S
N105 Li88 1.990 . S
N105 C104 1.314 . S
N105 C107 1.279 . S
C106 C107 1.358 . S
C106 C108 1.356 . S
C106 H160 0.930 . S
C107 N105 1.279 . S
C107 C106 1.358 . S
C107 H111 0.930 . S
C108 C106 1.356 . S
C108 C109 1.348 . S
C109 C104 1.353 . S
C109 C108 1.348 . S
C109 H161 0.929 . S
H110 C104 0.930 . S
H111 C107 0.930 . S
C112 N113 1.314 . S
C112 C114 1.353 . S
C112 H118 0.930 . S
N113 Li89 1.990 . S
N113 C112 1.314 . S
N113 C116 1.279 . S
C114 C112 1.353 . S
C114 C117 1.348 . S
C114 H162 0.929 . S
C115 C116 1.358 . S
C115 C117 1.356 . S
C115 H163 0.930 . S
C116 N113 1.279 . S
C116 C115 1.358 . S
C116 H119 0.930 . S
C117 C114 1.348 . S
C117 C115 1.356 . S
H118 C112 0.930 . S
H119 C116 0.930 . S
C120 C122 1.348 . S
C120 C123 1.356 . S
C120 O150 1.325 . S
N121 C124 1.314 . S
N121 C125 1.279 . S
C122 C120 1.348 . S
C122 C124 1.353 . S
C122 H164 0.929 . S
C123 C120 1.356 . S
C123 C125 1.358 . S
C123 H165 0.930 . S
C124 N121 1.314 . S
C124 C122 1.353 . S
C124 H166 0.930 . S
C125 N121 1.279 . S
C125 C123 1.358 . S
C125 H167 0.930 . S
C126 C127 1.348 1_545 S
C126 C128 1.356 . S
C126 O151 1.325 . S
C127 C126 1.348 1_565 S
C127 C129 1.353 1_565 S
C127 H168 0.929 . S
C128 C126 1.356 . S
C128 C130 1.358 . S
C128 H169 0.930 . S
C129 C127 1.353 1_545 S
C129 N131 1.314 . S
C129 H170 0.930 1_545 S
C130 C128 1.358 . S
C130 N131 1.279 . S
C130 H171 0.930 . S
N131 C129 1.314 . S
N131 C130 1.279 . S
C132 C134 1.353 . S
C132 N135 1.314 . S
C132 H138 0.930 . S
C133 N135 1.279 . S
C133 C136 1.358 . S
C133 H139 0.930 . S
C134 C132 1.353 . S
C134 C137 1.348 . S
C134 H172 0.929 . S
N135 Li90 1.990 . S
N135 C132 1.314 . S
N135 C133 1.279 . S
C136 C133 1.358 . S
C136 C137 1.356 . S
C136 H173 0.930 . S
C137 C134 1.348 . S
C137 C136 1.356 . S
H138 C132 0.930 . S
H139 C133 0.930 . S
C140 N141 1.314 . S
C140 C142 1.353 . S
C140 H146 0.930 . S
N141 Li91 1.990 . S
N141 C140 1.314 . S
N141 C144 1.279 . S
C142 C140 1.353 . S
C142 C145 1.348 . S
C142 H174 0.929 . S
C143 C144 1.358 . S
C143 C145 1.356 . S
C143 H175 0.930 . S
C144 N141 1.279 . S
C144 C143 1.358 . S
C144 H147 0.930 . S
C145 C142 1.348 . S
C145 C143 1.356 . S
H146 C140 0.930 . S
H147 C144 0.930 . S
O148 Li88 1.956 . S
O148 Li89 1.970 1_565 S
O148 Li90 1.961 . S
O148 C92 1.325 . S
O149 Li88 1.970 1_545 S
O149 Li89 1.956 . S
O149 Li91 1.961 . S
O149 C98 1.325 . S
O150 Li88 1.961 . S
O150 Li90 1.956 . S
O150 Li91 1.970 1_565 S
O150 C120 1.325 . S
O151 Li89 1.961 . S
O151 Li90 1.970 1_545 S
O151 Li91 1.956 . S
O151 C126 1.325 . S
H152 C94 0.929 . S
H153 C95 0.930 . S
H154 C96 0.930 1_545 S
H155 C97 0.930 . S
H156 C99 0.930 . S
H157 C101 0.929 . S
H158 C102 0.930 . S
H159 C103 0.930 . S
H160 C106 0.930 . S
H161 C109 0.929 . S
H162 C114 0.929 . S
H163 C115 0.930 . S
H164 C122 0.929 . S
H165 C123 0.930 . S
H166 C124 0.930 . S
H167 C125 0.930 . S
H168 C127 0.929 . S
H169 C128 0.930 . S
H170 C129 0.930 1_565 S
H171 C130 0.930 . S
H172 C134 0.929 . S
H173 C136 0.930 . S
H174 C142 0.929 . S
H175 C143 0.930 . S
Li176 N193 1.990 . S
Li176 O236 1.956 . S
Li176 O237 1.970 1_455 S
Li176 O238 1.961 . S
Li177 N201 1.990 . S
Li177 O236 1.970 1_655 S
Li177 O237 1.956 . S
Li177 O239 1.961 . S
Li178 N223 1.990 . S
Li178 O236 1.961 . S
Li178 O238 1.956 . S
Li178 O239 1.970 1_455 S
Li179 N229 1.990 . S
Li179 O237 1.961 . S
Li179 O238 1.970 1_655 S
Li179 O239 1.956 . S
C180 C182 1.348 1_455 S
C180 C183 1.356 . S
C180 O236 1.325 . S
N181 C184 1.314 . S
N181 C185 1.279 . S
C182 C180 1.348 1_655 S
C182 C184 1.353 1_655 S
C182 H240 0.929 . S
C183 C180 1.356 . S
C183 C185 1.358 . S
C183 H241 0.930 . S
C184 N181 1.314 . S
C184 C182 1.353 1_455 S
C184 H242 0.930 1_455 S
C185 N181 1.279 . S
C185 C183 1.358 . S
C185 H243 0.930 . S
C186 C189 1.348 . S
C186 C190 1.356 . S
C186 O237 1.325 . S
C187 N188 1.279 . S
C187 C190 1.358 . S
C187 H244 0.930 . S
N188 C187 1.279 . S
N188 C191 1.314 . S
C189 C186 1.348 . S
C189 C191 1.353 . S
C189 H245 0.929 . S
C190 C186 1.356 . S
C190 C187 1.358 . S
C190 H246 0.930 . S
C191 N188 1.314 . S
C191 C189 1.353 . S
C191 H247 0.930 . S
C192 N193 1.314 . S
C192 C197 1.353 . S
C192 H198 0.930 . S
N193 Li176 1.990 . S
N193 C192 1.314 . S
N193 C195 1.279 . S
C194 C195 1.358 . S
C194 C196 1.356 . S
C194 H248 0.930 . S
C195 N193 1.279 . S
C195 C194 1.358 . S
C195 H199 0.930 . S
C196 C194 1.356 . S
C196 C197 1.348 . S
C197 C192 1.353 . S
C197 C196 1.348 . S
C197 H249 0.929 . S
H198 C192 0.930 . S
H199 C195 0.930 . S
C200 N201 1.314 . S
C200 C202 1.353 . S
C200 H206 0.930 . S
N201 Li177 1.990 . S
N201 C200 1.314 . S
N201 C204 1.279 . S
C202 C200 1.353 . S
C202 C205 1.348 . S
C202 H250 0.929 . S
C203 C204 1.358 . S
C203 C205 1.356 . S
C203 H251 0.930 . S
C204 N201 1.279 . S
C204 C203 1.358 . S
C204 H207 0.930 . S
C205 C202 1.348 . S
C205 C203 1.356 . S
H206 C200 0.930 . S
H207 C204 0.930 . S
C208 C210 1.348 . S
C208 C211 1.356 . S
C208 O238 1.325 . S
N209 C212 1.314 . S
N209 C213 1.279 . S
C210 C208 1.348 . S
C210 C212 1.353 . S
C210 H252 0.929 . S
C211 C208 1.356 . S
C211 C213 1.358 . S
C211 H253 0.930 . S
C212 N209 1.314 . S
C212 C210 1.353 . S
C212 H254 0.930 . S
C213 N209 1.279 . S
C213 C211 1.358 . S
C213 H255 0.930 . S
C214 C215 1.348 1_655 S
C214 C216 1.356 . S
C214 O239 1.325 . S
C215 C214 1.348 1_455 S
C215 C217 1.353 1_455 S
C215 H256 0.929 . S
C216 C214 1.356 . S
C216 C218 1.358 . S
C216 H257 0.930 . S
C217 C215 1.353 1_655 S
C217 N219 1.314 . S
C217 H258 0.930 1_655 S
C218 C216 1.358 . S
C218 N219 1.279 . S
C218 H259 0.930 . S
N219 C217 1.314 . S
N219 C218 1.279 . S
C220 C222 1.353 . S
C220 N223 1.314 . S
C220 H226 0.930 . S
C221 N223 1.279 . S
C221 C224 1.358 . S
C221 H227 0.930 . S
C222 C220 1.353 . S
C222 C225 1.348 . S
C222 H260 0.929 . S
N223 Li178 1.990 . S
N223 C220 1.314 . S
N223 C221 1.279 . S
C224 C221 1.358 . S
C224 C225 1.356 . S
C224 H261 0.930 . S
C225 C222 1.348 . S
C225 C224 1.356 . S
H226 C220 0.930 . S
H227 C221 0.930 . S
C228 N229 1.314 . S
C228 C230 1.353 . S
C228 H234 0.930 . S
N229 Li179 1.990 . S
N229 C228 1.314 . S
N229 C232 1.279 . S
C230 C228 1.353 . S
C230 C233 1.348 . S
C230 H262 0.929 . S
C231 C232 1.358 . S
C231 C233 1.356 . S
C231 H263 0.930 . S
C232 N229 1.279 . S
C232 C231 1.358 . S
C232 H235 0.930 . S
C233 C230 1.348 . S
C233 C231 1.356 . S
H234 C228 0.930 . S
H235 C232 0.930 . S
O236 Li176 1.956 . S
O236 Li177 1.970 1_455 S
O236 Li178 1.961 . S
O236 C180 1.325 . S
O237 Li176 1.970 1_655 S
O237 Li177 1.956 . S
O237 Li179 1.961 . S
O237 C186 1.325 . S
O238 Li176 1.961 . S
O238 Li178 1.956 . S
O238 Li179 1.970 1_455 S
O238 C208 1.325 . S
O239 Li177 1.961 . S
O239 Li178 1.970 1_655 S
O239 Li179 1.956 . S
O239 C214 1.325 . S
H240 C182 0.929 . S
H241 C183 0.930 . S
H242 C184 0.930 1_655 S
H243 C185 0.930 . S
H244 C187 0.930 . S
H245 C189 0.929 . S
H246 C190 0.930 . S
H247 C191 0.930 . S
H248 C194 0.930 . S
H249 C197 0.929 . S
H250 C202 0.929 . S
H251 C203 0.930 . S
H252 C210 0.929 . S
H253 C211 0.930 . S
H254 C212 0.930 . S
H255 C213 0.930 . S
H256 C215 0.929 . S
H257 C216 0.930 . S
H258 C217 0.930 1_455 S
H259 C218 0.930 . S
H260 C222 0.929 . S
H261 C224 0.930 . S
H262 C230 0.929 . S
H263 C231 0.930 . S
Li264 N281 1.990 . S
Li264 O324 1.956 . S
Li264 O325 1.970 1_545 S
Li264 O326 1.961 . S
Li265 N289 1.990 . S
Li265 O324 1.970 1_565 S
Li265 O325 1.956 . S
Li265 O327 1.961 . S
Li266 N311 1.990 . S
Li266 O324 1.961 . S
Li266 O326 1.956 . S
Li266 O327 1.970 1_545 S
Li267 N317 1.990 . S
Li267 O325 1.961 . S
Li267 O326 1.970 1_565 S
Li267 O327 1.956 . S
C268 C270 1.348 1_545 S
C268 C271 1.356 . S
C268 O324 1.325 . S
N269 C272 1.314 . S
N269 C273 1.279 . S
C270 C268 1.348 1_565 S
C270 C272 1.353 1_565 S
C270 H328 0.929 . S
C271 C268 1.356 . S
C271 C273 1.358 . S
C271 H329 0.930 . S
C272 N269 1.314 . S
C272 C270 1.353 1_545 S
C272 H330 0.930 1_545 S
C273 N269 1.279 . S
C273 C271 1.358 . S
C273 H331 0.930 . S
C274 C277 1.348 . S
C274 C278 1.356 . S
C274 O325 1.325 . S
C275 N276 1.279 . S
C275 C278 1.358 . S
C275 H332 0.930 . S
N276 C275 1.279 . S
N276 C279 1.314 . S
C277 C274 1.348 . S
C277 C279 1.353 . S
C277 H333 0.929 . S
C278 C274 1.356 . S
C278 C275 1.358 . S
C278 H334 0.930 . S
C279 N276 1.314 . S
C279 C277 1.353 . S
C279 H335 0.930 . S
C280 N281 1.314 . S
C280 C285 1.353 . S
C280 H286 0.930 . S
N281 Li264 1.990 . S
N281 C280 1.314 . S
N281 C283 1.279 . S
C282 C283 1.358 . S
C282 C284 1.356 . S
C282 H336 0.930 . S
C283 N281 1.279 . S
C283 C282 1.358 . S
C283 H287 0.930 . S
C284 C282 1.356 . S
C284 C285 1.348 . S
C285 C280 1.353 . S
C285 C284 1.348 . S
C285 H337 0.929 . S
H286 C280 0.930 . S
H287 C283 0.930 . S
C288 N289 1.314 . S
C288 C290 1.353 . S
C288 H294 0.930 . S
N289 Li265 1.990 . S
N289 C288 1.314 . S
N289 C292 1.279 . S
C290 C288 1.353 . S
C290 C293 1.348 . S
C290 H338 0.929 . S
C291 C292 1.358 . S
C291 C293 1.356 . S
C291 H339 0.930 . S
C292 N289 1.279 . S
C292 C291 1.358 . S
C292 H295 0.930 . S
C293 C290 1.348 . S
C293 C291 1.356 . S
H294 C288 0.930 . S
H295 C292 0.930 . S
C296 C298 1.348 . S
C296 C299 1.356 . S
C296 O326 1.325 . S
N297 C300 1.314 . S
N297 C301 1.279 . S
C298 C296 1.348 . S
C298 C300 1.353 . S
C298 H340 0.929 . S
C299 C296 1.356 . S
C299 C301 1.358 . S
C299 H341 0.930 . S
C300 N297 1.314 . S
C300 C298 1.353 . S
C300 H342 0.930 . S
C301 N297 1.279 . S
C301 C299 1.358 . S
C301 H343 0.930 . S
C302 C303 1.348 1_565 S
C302 C304 1.356 . S
C302 O327 1.325 . S
C303 C302 1.348 1_545 S
C303 C305 1.353 1_545 S
C303 H344 0.929 . S
C304 C302 1.356 . S
C304 C306 1.358 . S
C304 H345 0.930 . S
C305 C303 1.353 1_565 S
C305 N307 1.314 . S
C305 H346 0.930 1_565 S
C306 C304 1.358 . S
C306 N307 1.279 . S
C306 H347 0.930 . S
N307 C305 1.314 . S
N307 C306 1.279 . S
C308 C310 1.353 . S
C308 N311 1.314 . S
C308 H314 0.930 . S
C309 N311 1.279 . S
C309 C312 1.358 . S
C309 H315 0.930 . S
C310 C308 1.353 . S
C310 C313 1.348 . S
C310 H348 0.929 . S
N311 Li266 1.990 . S
N311 C308 1.314 . S
N311 C309 1.279 . S
C312 C309 1.358 . S
C312 C313 1.356 . S
C312 H349 0.930 . S
C313 C310 1.348 . S
C313 C312 1.356 . S
H314 C308 0.930 . S
H315 C309 0.930 . S
C316 N317 1.314 . S
C316 C318 1.353 . S
C316 H322 0.930 . S
N317 Li267 1.990 . S
N317 C316 1.314 . S
N317 C320 1.279 . S
C318 C316 1.353 . S
C318 C321 1.348 . S
C318 H350 0.929 . S
C319 C320 1.358 . S
C319 C321 1.356 . S
C319 H351 0.930 . S
C320 N317 1.279 . S
C320 C319 1.358 . S
C320 H323 0.930 . S
C321 C318 1.348 . S
C321 C319 1.356 . S
H322 C316 0.930 . S
H323 C320 0.930 . S
O324 Li264 1.956 . S
O324 Li265 1.970 1_545 S
O324 Li266 1.961 . S
O324 C268 1.325 . S
O325 Li264 1.970 1_565 S
O325 Li265 1.956 . S
O325 Li267 1.961 . S
O325 C274 1.325 . S
O326 Li264 1.961 . S
O326 Li266 1.956 . S
O326 Li267 1.970 1_545 S
O326 C296 1.325 . S
O327 Li265 1.961 . S
O327 Li266 1.970 1_565 S
O327 Li267 1.956 . S
O327 C302 1.325 . S
H328 C270 0.929 . S
H329 C271 0.930 . S
H330 C272 0.930 1_565 S
H331 C273 0.930 . S
H332 C275 0.930 . S
H333 C277 0.929 . S
H334 C278 0.930 . S
H335 C279 0.930 . S
H336 C282 0.930 . S
H337 C285 0.929 . S
H338 C290 0.929 . S
H339 C291 0.930 . S
H340 C298 0.929 . S
H341 C299 0.930 . S
H342 C300 0.930 . S
H343 C301 0.930 . S
H344 C303 0.929 . S
H345 C304 0.930 . S
H346 C305 0.930 1_545 S
H347 C306 0.930 . S
H348 C310 0.929 . S
H349 C312 0.930 . S
H350 C318 0.929 . S
H351 C319 0.930 . S
H352 C360 0.929 1_455 S
H353 C362 0.930 1_455 S
H354 C364 0.930 . S
H355 C367 0.929 . S
H356 C370 0.930 . S
H357 C372 0.960 . S
H358 C372 0.960 . S
H359 C372 0.960 . S
C360 H352 0.929 1_655 S
C360 C361 1.377 . S
C360 C362 1.384 . S
C361 C360 1.377 . S
C361 C367 1.390 . S
C362 H353 0.930 1_655 S
C362 C360 1.384 . S
C362 C363 1.372 . S
C363 C362 1.372 . S
C363 C364 1.400 . S
C363 C368 1.490 . S
C364 H354 0.930 . S
C364 C363 1.400 . S
C364 C367 1.386 . S
H365 C381 0.930 . S
H366 C382 0.931 . S
C367 H355 0.929 . S
C367 C361 1.390 . S
C367 C364 1.386 . S
C368 C363 1.490 . S
C368 C370 1.395 . S
C368 C371 1.403 . S
H369 C375 0.930 . S
C370 H356 0.930 . S
C370 C368 1.395 . S
C370 C373 1.403 . S
C371 C368 1.403 . S
C371 C372 1.524 . S
C371 C375 1.400 . S
C372 H357 0.960 . S
C372 H358 0.960 . S
C372 H359 0.960 . S
C372 C371 1.524 . S
C373 C370 1.403 . S
C373 C374 1.392 . S
C373 C377 1.495 . S
C374 C373 1.392 . S
C374 C375 1.385 . S
C374 C376 1.478 . S
C375 H369 0.930 . S
C375 C371 1.400 . S
C375 C374 1.385 . S
C376 C374 1.478 . S
C376 C378 1.381 . S
C376 C382 1.383 . S
C377 C373 1.495 . S
C377 H383 0.959 . S
C377 H384 0.961 . S
C377 H385 0.960 . S
C378 C376 1.381 . S
C378 C379 1.394 . S
C378 H386 0.930 1_655 S
C379 C378 1.394 . S
C379 C380 1.383 . S
C379 H387 0.929 1_655 S
C380 C379 1.383 . S
C380 C381 1.377 . S
C381 H365 0.930 . S
C381 C380 1.377 . S
C381 C382 1.379 . S
C382 H366 0.931 . S
C382 C376 1.383 . S
C382 C381 1.379 . S
H383 C377 0.959 . S
H384 C377 0.961 . S
H385 C377 0.960 . S
H386 C378 0.930 1_455 S
H387 C379 0.929 1_455 S
H388 C396 0.929 . S
H389 C398 0.930 . S
H390 C400 0.930 1_545 S
H391 C403 0.929 1_545 S
H392 C406 0.930 . S
H393 C408 0.960 . S
H394 C408 0.960 1_565 S
H395 C408 0.960 . S
C396 H388 0.929 . S
C396 C397 1.377 . S
C396 C398 1.384 . S
C397 C396 1.377 . S
C397 C403 1.390 . S
C398 H389 0.930 . S
C398 C396 1.384 . S
C398 C399 1.372 . S
C399 C398 1.372 . S
C399 C400 1.400 . S
C399 C404 1.490 . S
C400 H390 0.930 1_565 S
C400 C399 1.400 . S
C400 C403 1.386 . S
H401 C417 0.930 1_545 S
H402 C418 0.931 1_545 S
C403 H391 0.929 1_565 S
C403 C397 1.390 . S
C403 C400 1.386 . S
C404 C399 1.490 . S
C404 C406 1.395 . S
C404 C407 1.403 . S
H405 C411 0.930 . S
C406 H392 0.930 . S
C406 C404 1.395 . S
C406 C409 1.403 . S
C407 C404 1.403 . S
C407 C408 1.524 1_565 S
C407 C411 1.400 . S
C408 H393 0.960 . S
C408 H394 0.960 1_545 S
C408 H395 0.960 . S
C408 C407 1.524 1_545 S
C409 C406 1.403 . S
C409 C410 1.392 . S
C409 C413 1.495 . S
C410 C409 1.392 . S
C410 C411 1.385 . S
C410 C412 1.478 . S
C411 H405 0.930 . S
C411 C407 1.400 . S
C411 C410 1.385 . S
C412 C410 1.478 . S
C412 C414 1.381 . S
C412 C418 1.383 . S
C413 C409 1.495 . S
C413 H419 0.959 . S
C413 H420 0.961 . S
C413 H421 0.960 . S
C414 C412 1.381 . S
C414 C415 1.394 . S
C414 H422 0.930 . S
C415 C414 1.394 . S
C415 C416 1.383 . S
C415 H423 0.929 . S
C416 C415 1.383 . S
C416 C417 1.377 . S
C417 H401 0.930 1_565 S
C417 C416 1.377 . S
C417 C418 1.379 . S
C418 H402 0.931 1_565 S
C418 C412 1.383 . S
C418 C417 1.379 . S
H419 C413 0.959 . S
H420 C413 0.961 . S
H421 C413 0.960 . S
H422 C414 0.930 . S
H423 C415 0.929 . S
H424 C432 0.929 . S
H425 C434 0.930 . S
H426 C436 0.930 . S
H427 C439 0.929 . S
H428 C442 0.930 1_655 S
H429 C444 0.960 . S
H430 C444 0.960 . S
H431 C444 0.960 . S
C432 H424 0.929 . S
C432 C433 1.377 . S
C432 C434 1.384 . S
C433 C432 1.377 . S
C433 C439 1.390 . S
C434 H425 0.930 . S
C434 C432 1.384 . S
C434 C435 1.372 . S
C435 C434 1.372 . S
C435 C436 1.400 . S
C435 C440 1.490 . S
C436 H426 0.930 . S
C436 C435 1.400 . S
C436 C439 1.386 . S
H437 C453 0.930 . S
H438 C454 0.931 . S
C439 H427 0.929 . S
C439 C433 1.390 . S
C439 C436 1.386 . S
C440 C435 1.490 . S
C440 C442 1.395 . S
C440 C443 1.403 . S
H441 C447 0.930 . S
C442 H428 0.930 1_455 S
C442 C440 1.395 . S
C442 C445 1.407 . S
C443 C440 1.403 . S
C443 C444 1.524 . S
C443 C447 1.400 . S
C444 H429 0.960 . S
C444 H430 0.960 . S
C444 H431 0.960 . S
C444 C443 1.524 . S
C445 C442 1.407 . S
C445 C446 1.425 . S
C445 C449 1.460 1_455 S
C446 C445 1.425 . S
C446 C447 1.385 . S
C446 C448 1.478 . S
C447 H441 0.930 . S
C447 C443 1.400 . S
C447 C446 1.385 . S
C448 C446 1.478 . S
C448 C450 1.381 . S
C448 C454 1.383 . S
C449 C445 1.460 1_655 S
C449 H455 0.959 . S
C449 H456 0.961 . S
C449 H457 0.960 . S
C450 C448 1.381 . S
C450 C451 1.394 . S
C450 H458 0.930 . S
C451 C450 1.394 . S
C451 C452 1.383 . S
C451 H459 0.929 . S
C452 C451 1.383 . S
C452 C453 1.377 . S
C453 H437 0.930 . S
C453 C452 1.377 . S
C453 C454 1.379 . S
C454 H438 0.931 . S
C454 C448 1.383 . S
C454 C453 1.379 . S
H455 C449 0.959 . S
H456 C449 0.961 . S
H457 C449 0.960 . S
H458 C450 0.930 . S
H459 C451 0.929 . S
H460 C468 0.929 . S
H461 C470 0.930 . S
H462 C472 0.930 1_565 S
H463 C475 0.929 1_565 S
H464 C478 0.930 . S
H465 C480 0.960 . S
H466 C480 0.960 . S
H467 C480 0.931 1_565 S
C468 H460 0.929 . S
C468 C469 1.377 . S
C468 C470 1.384 . S
C469 C468 1.377 . S
C469 C475 1.390 . S
C470 H461 0.930 . S
C470 C468 1.384 . S
C470 C471 1.372 . S
C471 C470 1.372 . S
C471 C472 1.400 . S
C471 C476 1.490 . S
C472 H462 0.930 1_545 S
C472 C471 1.400 . S
C472 C475 1.386 . S
H473 C489 0.930 1_565 S
H474 C490 0.931 1_565 S
C475 H463 0.929 1_545 S
C475 C469 1.390 . S
C475 C472 1.386 . S
C476 C471 1.490 . S
C476 C478 1.395 . S
C476 C479 1.403 1_554 S
H477 C483 0.930 . S
C478 H464 0.930 . S
C478 C476 1.395 . S
C478 C481 1.403 . S
C479 C476 1.403 1_556 S
C479 C480 1.524 . S
C479 C483 1.400 . S
C480 H465 0.960 . S
C480 H466 0.960 . S
C480 H467 0.931 1_545 S
C480 C479 1.524 . S
C481 C478 1.403 . S
C481 C482 1.392 1_554 S
C481 C485 1.495 . S
C482 C481 1.392 1_556 S
C482 C483 1.385 . S
C482 C484 1.478 . S
C483 H477 0.930 . S
C483 C479 1.400 . S
C483 C482 1.385 . S
C484 C482 1.478 . S
C484 C486 1.381 . S
C484 C490 1.383 . S
C485 C481 1.495 . S
C485 H491 0.959 . S
C485 H492 0.961 . S
C485 H493 0.960 . S
C486 C484 1.381 . S
C486 C487 1.394 . S
C486 H494 0.930 . S
C487 C486 1.394 . S
C487 C488 1.383 . S
C487 H495 0.929 . S
C488 C487 1.383 . S
C488 C489 1.377 . S
C489 H473 0.930 1_545 S
C489 C488 1.377 . S
C489 C490 1.379 . S
C490 H474 0.931 1_545 S
C490 C484 1.383 . S
C490 C489 1.379 . S
H491 C485 0.959 . S
H492 C485 0.961 . S
H493 C485 0.960 . S
H494 C486 0.930 . S
H495 C487 0.929 . S
H496 C504 0.929 . S
H497 C506 0.930 . S
H498 C508 0.930 . S
H499 C511 0.929 . S
H500 C514 0.930 . S
H501 C516 0.960 . S
H502 C516 0.960 . S
H503 C516 0.960 . S
C504 H496 0.929 . S
C504 C505 1.377 . S
C504 C506 1.384 . S
C505 C504 1.377 . S
C505 C511 1.390 . S
C506 H497 0.930 . S
C506 C504 1.384 . S
C506 C507 1.372 . S
C507 C506 1.372 . S
C507 C508 1.400 . S
C507 C512 1.490 . S
C508 H498 0.930 . S
C508 C507 1.400 . S
C508 C511 1.386 . S
H509 C525 0.930 . S
H510 C526 0.931 . S
C511 H499 0.929 . S
C511 C505 1.390 . S
C511 C508 1.386 . S
C512 C507 1.490 . S
C512 C514 1.395 . S
C512 C515 1.403 . S
H513 C519 0.930 . S
C514 H500 0.930 . S
C514 C512 1.395 . S
C514 C517 1.403 . S
C515 C512 1.403 . S
C515 C516 1.524 . S
C515 C519 1.400 . S
C516 H501 0.960 . S
C516 H502 0.960 . S
C516 H503 0.960 . S
C516 C515 1.524 . S
C517 C514 1.403 . S
C517 C518 1.392 . S
C517 C521 1.495 . S
C518 C517 1.392 . S
C518 C519 1.385 . S
C518 C520 1.478 . S
C519 H513 0.930 . S
C519 C515 1.400 . S
C519 C518 1.385 . S
C520 C518 1.478 . S
C520 C522 1.381 . S
C520 C526 1.383 . S
C521 C517 1.495 . S
C521 H527 0.959 . S
C521 H528 0.961 . S
C521 H529 0.960 . S
C522 C520 1.381 . S
C522 C523 1.394 . S
C522 H530 0.930 . S
C523 C522 1.394 . S
C523 C524 1.383 . S
C523 H531 0.929 . S
C524 C523 1.383 . S
C524 C525 1.377 . S
C525 H509 0.930 . S
C525 C524 1.377 . S
C525 C526 1.379 . S
C526 H510 0.931 . S
C526 C520 1.383 . S
C526 C525 1.379 . S
H527 C521 0.959 . S
H528 C521 0.961 . S
H529 C521 0.960 . S
H530 C522 0.930 . S
H531 C523 0.929 . S
H532 C540 0.929 . S
H533 C542 0.930 . S
H534 C544 0.930 . S
H535 C547 0.929 . S
H536 C550 0.930 . S
H537 C552 0.960 . S
H538 C552 0.960 . S
H539 C552 0.960 . S
C540 H532 0.929 . S
C540 C541 1.377 . S
C540 C542 1.384 . S
C541 C540 1.377 . S
C541 C547 1.390 . S
C542 H533 0.930 . S
C542 C540 1.384 . S
C542 C543 1.372 . S
C543 C542 1.372 . S
C543 C544 1.400 . S
C543 C548 1.490 . S
C544 H534 0.930 . S
C544 C543 1.400 . S
C544 C547 1.386 . S
H545 C561 0.930 . S
H546 C562 0.931 . S
C547 H535 0.929 . S
C547 C541 1.390 . S
C547 C544 1.386 . S
C548 C543 1.490 . S
C548 C550 1.395 . S
C548 C551 1.403 . S
H549 C555 0.930 . S
C550 H536 0.930 . S
C550 C548 1.395 . S
C550 C553 1.403 . S
C551 C548 1.403 . S
C551 C552 1.524 . S
C551 C555 1.400 . S
C552 H537 0.960 . S
C552 H538 0.960 . S
C552 H539 0.960 . S
C552 C551 1.524 . S
C553 C550 1.403 . S
C553 C554 1.392 . S
C553 C557 1.495 . S
C554 C553 1.392 . S
C554 C555 1.385 . S
C554 C556 1.478 . S
C555 H549 0.930 . S
C555 C551 1.400 . S
C555 C554 1.385 . S
C556 C554 1.478 . S
C556 C558 1.381 . S
C556 C562 1.383 . S
C557 C553 1.495 . S
C557 H563 0.959 . S
C557 H564 0.961 . S
C557 H565 0.960 . S
C558 C556 1.381 . S
C558 C559 1.394 . S
C558 H566 0.930 . S
C559 C558 1.394 . S
C559 C560 1.383 . S
C559 H567 0.929 . S
C560 C559 1.383 . S
C560 C561 1.377 . S
C561 H545 0.930 . S
C561 C560 1.377 . S
C561 C562 1.379 . S
C562 H546 0.931 . S
C562 C556 1.383 . S
C562 C561 1.379 . S
H563 C557 0.959 . S
H564 C557 0.961 . S
H565 C557 0.960 . S
H566 C558 0.930 . S
H567 C559 0.929 . S
H568 C576 0.929 . S
H569 C578 0.930 . S
H570 C580 0.930 . S
H571 C583 0.929 . S
H572 C586 0.930 . S
H573 C588 0.960 . S
H574 C588 0.960 . S
H575 C588 0.960 . S
C576 H568 0.929 . S
C576 C577 1.377 . S
C576 C578 1.384 . S
C577 C576 1.377 . S
C577 C583 1.390 . S
C578 H569 0.930 . S
C578 C576 1.384 . S
C578 C579 1.372 . S
C579 C578 1.372 . S
C579 C580 1.400 . S
C579 C584 1.490 . S
C580 H570 0.930 . S
C580 C579 1.400 . S
C580 C583 1.386 . S
H581 C597 0.930 . S
H582 C598 0.931 . S
C583 H571 0.929 . S
C583 C577 1.390 . S
C583 C580 1.386 . S
C584 C579 1.490 . S
C584 C586 1.395 . S
C584 C587 1.403 . S
H585 C591 0.930 . S
C586 H572 0.930 . S
C586 C584 1.395 . S
C586 C589 1.403 . S
C587 C584 1.403 . S
C587 C588 1.524 . S
C587 C591 1.400 . S
C588 H573 0.960 . S
C588 H574 0.960 . S
C588 H575 0.960 . S
C588 C587 1.524 . S
C589 C586 1.403 . S
C589 C590 1.392 . S
C589 C593 1.495 . S
C590 C589 1.392 . S
C590 C591 1.385 . S
C590 C592 1.478 . S
C591 H585 0.930 . S
C591 C587 1.400 . S
C591 C590 1.385 . S
C592 C590 1.478 . S
C592 C594 1.381 . S
C592 C598 1.383 . S
C593 C589 1.495 . S
C593 H599 0.959 . S
C593 H600 0.961 . S
C593 H601 0.960 . S
C594 C592 1.381 . S
C594 C595 1.394 . S
C594 H602 0.930 . S
C595 C594 1.394 . S
C595 C596 1.383 . S
C595 H603 0.929 . S
C596 C595 1.383 . S
C596 C597 1.377 . S
C597 H581 0.930 . S
C597 C596 1.377 . S
C597 C598 1.379 . S
C598 H582 0.931 . S
C598 C592 1.383 . S
C598 C597 1.379 . S
H599 C593 0.959 . S
H600 C593 0.961 . S
H601 C593 0.960 . S
H602 C594 0.930 . S
H603 C595 0.929 . S
H604 C612 0.929 . S
H605 C614 0.930 . S
H606 C616 0.930 . S
H607 C619 0.929 . S
H608 C622 0.930 . S
H609 C624 0.960 . S
H610 C624 0.960 . S
H611 C624 0.960 . S
C612 H604 0.929 . S
C612 C613 1.377 . S
C612 C614 1.384 . S
C613 C612 1.377 . S
C613 C619 1.390 . S
C614 H605 0.930 . S
C614 C612 1.384 . S
C614 C615 1.372 . S
C615 C614 1.372 . S
C615 C616 1.400 . S
C615 C620 1.490 . S
C616 H606 0.930 . S
C616 C615 1.400 . S
C616 C619 1.386 . S
H617 C633 0.930 . S
H618 C634 0.931 . S
C619 H607 0.929 . S
C619 C613 1.390 . S
C619 C616 1.386 . S
C620 C615 1.490 . S
C620 C622 1.395 . S
C620 C623 1.403 . S
H621 C627 0.930 . S
C622 H608 0.930 . S
C622 C620 1.395 . S
C622 C625 1.403 . S
C623 C620 1.403 . S
C623 C624 1.524 . S
C623 C627 1.400 . S
C624 H609 0.960 . S
C624 H610 0.960 . S
C624 H611 0.960 . S
C624 C623 1.524 . S
C625 C622 1.403 . S
C625 C626 1.392 . S
C625 C629 1.495 . S
C626 C625 1.392 . S
C626 C627 1.385 . S
C626 C628 1.478 . S
C627 H621 0.930 . S
C627 C623 1.400 . S
C627 C626 1.385 . S
C628 C626 1.478 . S
C628 C630 1.381 . S
C628 C634 1.383 . S
C629 C625 1.495 . S
C629 H635 0.959 . S
C629 H636 0.961 . S
C629 H637 0.960 . S
C630 C628 1.381 . S
C630 C631 1.394 . S
C630 H638 0.930 . S
C631 C630 1.394 . S
C631 C632 1.383 . S
C631 H639 0.929 . S
C632 C631 1.383 . S
C632 C633 1.377 . S
C633 H617 0.930 . S
C633 C632 1.377 . S
C633 C634 1.379 . S
C634 H618 0.931 . S
C634 C628 1.383 . S
C634 C633 1.379 . S
H635 C629 0.959 . S
H636 C629 0.961 . S
H637 C629 0.960 . S
H638 C630 0.930 . S
H639 C631 0.929 . S
C361 C29 0.700 . S
C380 C233 0.693 . S
C397 C108 0.708 . S
C416 C321 0.725 . S
C433 C49 0.705 . S
C452 C196 0.690 . S
C469 C145 0.709 . S
C488 C284 0.720 . S
C505 C137 1.588 . S
C524 C20 1.574 . S
C541 C117 1.590 . S
C560 C225 1.595 . S
C577 C313 1.589 . S
C596 C205 1.603 . S
C613 C293 1.587 . S
C632 C57 1.601 . S
