# Generated by pormake.
# Topology neb, (4)-cn, num edge types: 1
# Building blocks:
#     Node 0, Type 0, BuildingBlock: ICAMEG_clean_sbu_1, # of connection points: 4
#     Node 1, Type 0, BuildingBlock: ICAMEG_clean_sbu_1, # of connection points: 4
#     Node 2, Type 0, BuildingBlock: ICAMEG_clean_sbu_1, # of connection points: 4
#     Node 3, Type 0, BuildingBlock: ICAMEG_clean_sbu_1, # of connection points: 4
#     Node 4, Type 0, BuildingBlock: ICAMEG_clean_sbu_1, # of connection points: 4
#     Node 5, Type 0, BuildingBlock: ICAMEG_clean_sbu_1, # of connection points: 4
#     Node 6, Type 0, BuildingBlock: ICAMEG_clean_sbu_1, # of connection points: 4
#     Node 7, Type 0, BuildingBlock: ICAMEG_clean_sbu_1, # of connection points: 4
#     Node 8, Type 0, BuildingBlock: ICAMEG_clean_sbu_1, # of connection points: 4
#     Node 9, Type 0, BuildingBlock: ICAMEG_clean_sbu_1, # of connection points: 4
#     Node 10, Type 0, BuildingBlock: ICAMEG_clean_sbu_1, # of connection points: 4
#     Node 11, Type 0, BuildingBlock: ICAMEG_clean_sbu_1, # of connection points: 4
#     Node 12, Type 0, BuildingBlock: ICAMEG_clean_sbu_1, # of connection points: 4
#     Node 13, Type 0, BuildingBlock: ICAMEG_clean_sbu_1, # of connection points: 4
#     Node 14, Type 0, BuildingBlock: ICAMEG_clean_sbu_1, # of connection points: 4
#     Node 15, Type 0, BuildingBlock: ICAMEG_clean_sbu_1, # of connection points: 4
#     Edge 16, Type (0, 0), BuildingBlock: XUDNAN_clean_linker_2, # of connection points: 2
#     Edge 17, Type (0, 0), BuildingBlock: XUDNAN_clean_linker_2, # of connection points: 2
#     Edge 18, Type (0, 0), BuildingBlock: XUDNAN_clean_linker_2, # of connection points: 2
#     Edge 19, Type (0, 0), BuildingBlock: XUDNAN_clean_linker_2, # of connection points: 2
#     Edge 20, Type (0, 0), BuildingBlock: XUDNAN_clean_linker_2, # of connection points: 2
#     Edge 21, Type (0, 0), BuildingBlock: XUDNAN_clean_linker_2, # of connection points: 2
#     Edge 22, Type (0, 0), BuildingBlock: XUDNAN_clean_linker_2, # of connection points: 2
#     Edge 23, Type (0, 0), BuildingBlock: XUDNAN_clean_linker_2, # of connection points: 2
#     Edge 24, Type (0, 0), BuildingBlock: XUDNAN_clean_linker_2, # of connection points: 2
#     Edge 25, Type (0, 0), BuildingBlock: XUDNAN_clean_linker_2, # of connection points: 2
#     Edge 26, Type (0, 0), BuildingBlock: XUDNAN_clean_linker_2, # of connection points: 2
#     Edge 27, Type (0, 0), BuildingBlock: XUDNAN_clean_linker_2, # of connection points: 2
#     Edge 28, Type (0, 0), BuildingBlock: XUDNAN_clean_linker_2, # of connection points: 2
#     Edge 29, Type (0, 0), BuildingBlock: XUDNAN_clean_linker_2, # of connection points: 2
#     Edge 30, Type (0, 0), BuildingBlock: XUDNAN_clean_linker_2, # of connection points: 2
#     Edge 31, Type (0, 0), BuildingBlock: XUDNAN_clean_linker_2, # of connection points: 2
#     Edge 32, Type (0, 0), BuildingBlock: XUDNAN_clean_linker_2, # of connection points: 2
#     Edge 33, Type (0, 0), BuildingBlock: XUDNAN_clean_linker_2, # of connection points: 2
#     Edge 34, Type (0, 0), BuildingBlock: XUDNAN_clean_linker_2, # of connection points: 2
#     Edge 35, Type (0, 0), BuildingBlock: XUDNAN_clean_linker_2, # of connection points: 2
#     Edge 36, Type (0, 0), BuildingBlock: XUDNAN_clean_linker_2, # of connection points: 2
#     Edge 37, Type (0, 0), BuildingBlock: XUDNAN_clean_linker_2, # of connection points: 2
#     Edge 38, Type (0, 0), BuildingBlock: XUDNAN_clean_linker_2, # of connection points: 2
#     Edge 39, Type (0, 0), BuildingBlock: XUDNAN_clean_linker_2, # of connection points: 2
#     Edge 40, Type (0, 0), BuildingBlock: XUDNAN_clean_linker_2, # of connection points: 2
#     Edge 41, Type (0, 0), BuildingBlock: XUDNAN_clean_linker_2, # of connection points: 2
#     Edge 42, Type (0, 0), BuildingBlock: XUDNAN_clean_linker_2, # of connection points: 2
#     Edge 43, Type (0, 0), BuildingBlock: XUDNAN_clean_linker_2, # of connection points: 2
#     Edge 44, Type (0, 0), BuildingBlock: XUDNAN_clean_linker_2, # of connection points: 2
#     Edge 45, Type (0, 0), BuildingBlock: XUDNAN_clean_linker_2, # of connection points: 2
#     Edge 46, Type (0, 0), BuildingBlock: XUDNAN_clean_linker_2, # of connection points: 2
#     Edge 47, Type (0, 0), BuildingBlock: XUDNAN_clean_linker_2, # of connection points: 2
# Relax obj value: 0.005
# Max RMSD: 0.056
# Mean RMSD: 0.056
data_MOF--net-neb--node1-ICAMEG_clean_sbu_1--edge1-XUDNAN_clean_linker_2
_symmetry_space_group_name_H-M    P1
_symmetry_Int_Tables_number       1
_symmetry_cell_setting            triclinic
loop_
_symmetry_equiv_pos_as_xyz
'x, y, z'
_cell_length_a     41.519697
_cell_length_b     24.643126
_cell_length_c     82.39871
_cell_angle_alpha  89.922528
_cell_angle_beta   101.76996
_cell_angle_gamma 90.030933
loop_
_atom_site_label
_atom_site_type_symbol
_atom_site_fract_x
_atom_site_fract_y
_atom_site_fract_z
_atom_type_partial_charge
Co0 Co 0.15858 0.07318 0.4355 0.0
Co1 Co 0.1078 0.15063 0.45432 0.0
O2 O 0.1197 0.08129 0.44537 0.0
C3 C 0.10636 0.99959 0.41533 0.0
O4 O 0.08401 0.01711 0.42322 0.0
C5 C 0.1051 0.07178 0.48134 0.0
O6 O 0.13508 0.05735 0.48035 0.0
O7 O 0.15249 0.15699 0.46892 0.0
O8 O 0.18392 0.12564 0.45188 0.0
H9 H 0.12544 0.34537 0.47187 0.0
H10 H 0.12694 0.97677 0.44785 0.0
O11 O 0.13543 0.0192 0.41853 0.0
H12 H 0.24277 0.97195 0.47725 0.0
H13 H 0.24018 0.97086 0.40953 0.0
H14 H 0.20693 0.15057 0.42663 0.0
H15 H 0.22301 0.04444 0.45708 0.0
H16 H 0.19224 0.98007 0.42271 0.0
O17 O 0.09086 0.10995 0.47215 0.0
H18 H 0.13969 0.25847 0.46032 0.0
H19 H 0.05059 0.18834 0.46813 0.0
H20 H 0.25528 0.14308 0.41367 0.0
H21 H 0.14573 0.90327 0.4677 0.0
H22 H 0.27218 0.05272 0.405 0.0
H23 H 0.20405 0.90047 0.48263 0.0
O24 O 0.14308 0.13411 0.41992 0.0
H25 H 1.00159 0.05682 0.42951 0.0
H26 H 0.06564 0.22579 0.43061 0.0
H27 H 0.01089 0.21946 0.41229 0.0
H28 H 0.9784 0.13456 0.41169 0.0
H29 H 0.05667 0.06457 0.44746 0.0
H30 H 0.03549 0.27441 0.47989 0.0
H31 H 0.07299 0.35375 0.48175 0.0
O32 O 0.12374 0.19267 0.43649 0.0
C33 C 0.18042 0.1509 0.46493 0.0
C34 C 0.10884 0.31114 0.47108 0.0
C35 C 0.05838 0.27128 0.4756 0.0
N36 N 0.09589 0.21849 0.46345 0.0
C37 C 0.11674 0.26185 0.46452 0.0
C38 C 0.0671 0.22261 0.46897 0.0
C39 C 0.07943 0.31579 0.47664 0.0
C40 C 0.15245 0.97548 0.45397 0.0
N41 N 0.17392 0.01446 0.45096 0.0
C42 C 0.16292 0.93388 0.46535 0.0
C43 C 0.19562 0.93242 0.47376 0.0
C44 C 0.21734 0.9725 0.47075 0.0
C45 C 0.20597 0.01351 0.4593 0.0
C46 C 0.2331 0.01044 0.41328 0.0
C47 C 0.21425 0.11106 0.423 0.0
C48 C 0.20591 0.01596 0.4207 0.0
N49 N 0.19688 0.06581 0.42553 0.0
C50 C 0.2416 0.10709 0.41562 0.0
C51 C 0.25105 0.05639 0.41075 0.0
C52 C 0.13371 0.18155 0.42318 0.0
C53 C 0.01552 0.09401 0.42964 0.0
C54 C 0.05188 0.18844 0.43028 0.0
C55 C 0.02078 0.18523 0.41995 0.0
C56 C 1.00254 0.13762 0.41964 0.0
N57 N 0.06451 0.14543 0.44002 0.0
C58 C 0.04671 0.0987 0.43982 0.0
Co59 Co 0.10019 0.07079 0.82838 0.0
Co60 Co 0.15186 0.15881 0.81352 0.0
O61 O 0.1417 0.08618 0.82122 0.0
C62 C 0.15167 1.00245 0.85114 0.0
O63 O 0.1756 0.02418 0.84513 0.0
C64 C 0.17283 0.08273 0.78852 0.0
O65 O 0.14699 0.05165 0.7881 0.0
O66 O 0.10982 0.15905 0.79644 0.0
O67 O 0.07585 0.12136 0.81116 0.0
H68 H 0.12505 0.35143 0.79575 0.0
H69 H 0.14014 0.98053 0.81844 0.0
O70 O 0.12208 0.0182 0.84609 0.0
H71 H 0.03033 0.96277 0.78244 0.0
H72 H 0.01631 0.95301 0.84793 0.0
H73 H 0.04478 0.13929 0.83401 0.0
H74 H 0.04174 0.03574 0.80321 0.0
H75 H 0.06773 0.97121 0.83832 0.0
O76 O 0.17651 0.12581 0.79727 0.0
H77 H 0.11373 0.26042 0.80573 0.0
H78 H 0.2111 0.21045 0.80453 0.0
H79 H 0.99291 0.12276 0.84339 0.0
H80 H 0.12965 0.90651 0.79808 0.0
H81 H 0.97839 0.02906 0.85044 0.0
H82 H 0.07441 0.89724 0.77982 0.0
O83 O 0.10882 0.13158 0.84467 0.0
H84 H 0.25751 0.07732 0.84471 0.0
H85 H 0.18607 0.23864 0.8385 0.0
H86 H 0.23708 0.2381 0.85988 0.0
H87 H 0.27334 0.15697 0.86305 0.0
H88 H 0.20587 0.07937 0.82374 0.0
H89 H 0.22338 0.30075 0.79439 0.0
H90 H 0.18021 0.37208 0.79 0.0
O91 O 0.12908 0.1952 0.82999 0.0
C92 C 0.08093 0.14811 0.79865 0.0
C93 C 0.14408 0.32072 0.79764 0.0
C94 C 0.19924 0.29224 0.79684 0.0
N95 N 0.16174 0.23013 0.80575 0.0
C96 C 0.13784 0.26912 0.80331 0.0
C97 C 0.1921 0.24108 0.80252 0.0
C98 C 0.17502 0.33226 0.7944 0.0
C99 C 0.11588 0.97637 0.81084 0.0
N100 N 0.09147 0.01208 0.81231 0.0
C101 C 0.11015 0.93452 0.79919 0.0
C102 C 0.07919 0.92943 0.78892 0.0
C103 C 0.05446 0.96619 0.79038 0.0
C104 C 0.06111 0.00754 0.80216 0.0
C105 C 0.02234 0.99401 0.84488 0.0
C106 C 0.03857 0.09835 0.83696 0.0
C107 C 0.05149 1.00462 0.83948 0.0
N108 N 0.05924 0.05629 0.83554 0.0
C109 C 0.00919 0.08926 0.8423 0.0
C110 C 1.00107 0.03669 0.84628 0.0
C111 C 0.11679 0.18063 0.84234 0.0
C112 C 0.24186 0.11281 0.84351 0.0
C113 C 0.20127 0.20285 0.84005 0.0
C114 C 0.23035 0.20294 0.85206 0.0
C115 C 0.25071 0.15748 0.8538 0.0
N116 N 0.19256 0.15873 0.83009 0.0
C117 C 0.21257 0.11423 0.83164 0.0
Co118 Co 0.86206 0.89529 0.57343 0.0
Co119 Co 0.93031 0.82342 0.56817 0.0
O120 O 0.90876 0.89177 0.57218 0.0
C121 C 0.89551 0.97964 0.59894 0.0
O122 O 0.92487 0.97289 0.59566 0.0
C123 C 0.95154 0.89825 0.54313 0.0
O124 O 0.92117 0.9152 0.53807 0.0
O125 O 0.89581 0.80923 0.5478 0.0
O126 O 0.85052 0.83936 0.55572 0.0
H127 H 0.93333 0.625 0.55465 0.0
H128 H 0.89898 0.99458 0.5665 0.0
O129 O 0.87093 0.95188 0.59146 0.0
H130 H 0.80277 0.98282 0.5205 0.0
H131 H 0.75685 0.98889 0.57883 0.0
H132 H 0.80975 0.81285 0.57307 0.0
H133 H 0.81154 0.91434 0.54273 0.0
H134 H 0.8153 0.98464 0.57694 0.0
O135 O 0.95824 0.86286 0.55463 0.0
H136 H 0.90709 0.71118 0.55989 0.0
H137 H 0.99949 0.79148 0.56754 0.0
H138 H 0.75115 0.81534 0.57466 0.0
H139 H 0.89092 0.06415 0.5447 0.0
H140 H 0.7243 0.90384 0.57759 0.0
H141 H 0.84251 0.05867 0.52142 0.0
O142 O 0.86843 0.83709 0.5907 0.0
H143 H 0.01286 0.93832 0.60627 0.0
H144 H 0.96204 0.75718 0.59751 0.0
H145 H 1.00352 0.77499 0.62292 0.0
H146 H 0.02934 0.86617 0.62741 0.0
H147 H 0.97089 0.9188 0.58115 0.0
H148 H 0.02667 0.70634 0.56218 0.0
H149 H 0.99355 0.62222 0.55576 0.0
O150 O 0.90414 0.78133 0.58201 0.0
C151 C 0.86456 0.81289 0.54586 0.0
C152 C 0.94804 0.66135 0.55746 0.0
C153 C 1.00041 0.70703 0.56166 0.0
N154 N 0.95174 0.7563 0.56408 0.0
C155 C 0.93333 0.71026 0.56047 0.0
C156 C 0.98486 0.75519 0.56461 0.0
C157 C 0.98182 0.65984 0.55807 0.0
C158 C 0.87748 0.99231 0.55673 0.0
N159 N 0.85532 0.95106 0.55629 0.0
C160 C 0.8732 0.03168 0.54426 0.0
C161 C 0.8461 0.02849 0.53118 0.0
C162 C 0.82381 0.98598 0.53066 0.0
C163 C 0.82892 0.94732 0.54333 0.0
C164 C 0.76826 0.95008 0.57755 0.0
C165 C 0.79824 0.85156 0.57425 0.0
C166 C 0.8014 0.94738 0.57654 0.0
N167 N 0.81594 0.89853 0.57482 0.0
C168 C 0.76504 0.85269 0.57519 0.0
C169 C 0.75001 0.90235 0.57684 0.0
C170 C 0.88331 0.79159 0.59106 0.0
C171 C 1.00173 0.89848 0.60448 0.0
C172 C 0.97274 0.7971 0.5995 0.0
C173 C 0.99643 0.80688 0.61385 0.0
C174 C 0.01095 0.858 0.61635 0.0
N175 N 0.9637 0.83707 0.58796 0.0
C176 C 0.97797 0.88717 0.59028 0.0
Co177 Co 0.89884 0.92287 0.18853 0.0
Co178 Co 0.83159 0.86733 0.20073 0.0
O179 O 0.85539 0.9289 0.19416 0.0
C180 C 0.88856 0.98507 0.15642 0.0
O181 O 0.9028 0.94556 0.14983 0.0
C182 C 0.82839 0.9473 0.22757 0.0
O183 O 0.86018 0.95509 0.2292 0.0
O184 O 0.8706 0.84755 0.21819 0.0
O185 O 0.91333 0.86603 0.2061 0.0
H186 H 0.81894 0.67284 0.21669 0.0
H187 H 0.8733 0.03044 0.19624 0.0
O188 O 0.88442 0.98103 0.17131 0.0
H189 H 0.97649 1.00485 0.23737 0.0
H190 H 1.00244 0.99843 0.17414 0.0
H191 H 0.94238 0.83221 0.18331 0.0
H192 H 0.95746 0.93534 0.21611 0.0
H193 H 0.94783 1.00416 0.18148 0.0
O194 O 0.81359 0.91389 0.21683 0.0
H195 H 0.84785 0.7515 0.20784 0.0
H196 H 0.76487 0.85173 0.20839 0.0
H197 H 0.9969 0.82461 0.176 0.0
H198 H 0.89167 0.10129 0.21716 0.0
H199 H 0.02732 0.90815 0.17136 0.0
H200 H 0.94355 0.08868 0.23797 0.0
O201 O 0.88289 0.86393 0.17193 0.0
H202 H 0.74983 0.99721 0.16822 0.0
H203 H 0.78534 0.80621 0.17448 0.0
H204 H 0.73828 0.83123 0.15232 0.0
H205 H 0.72014 0.92739 0.14912 0.0
H206 H 0.79704 0.97035 0.1901 0.0
H207 H 0.7352 0.77429 0.21741 0.0
H208 H 0.7622 0.68398 0.22155 0.0
O209 O 0.84796 0.81928 0.1847 0.0
C210 C 0.9011 0.84428 0.21759 0.0
C211 C 0.80688 0.71194 0.21489 0.0
C212 C 0.7599 0.7689 0.21531 0.0
N213 N 0.80802 0.80609 0.20751 0.0
C214 C 0.82309 0.75661 0.20983 0.0
C215 C 0.77687 0.81265 0.21025 0.0
C216 C 0.77506 0.71824 0.21763 0.0
C217 C 0.8961 0.02484 0.20512 0.0
N218 N 0.91435 0.97882 0.20487 0.0
C219 C 0.90629 0.06503 0.217 0.0
C220 C 0.93537 0.05789 0.22868 0.0
C221 C 0.95384 0.01085 0.22837 0.0
C222 C 0.94287 0.9715 0.21633 0.0
C223 C 0.98942 0.96174 0.17612 0.0
C224 C 0.95543 0.86875 0.18129 0.0
C225 C 0.95849 0.96473 0.18027 0.0
N226 N 0.94188 0.91855 0.18277 0.0
C227 C 0.98631 0.86419 0.17717 0.0
C228 C 1.00337 0.91107 0.17456 0.0
C229 C 0.8652 0.82249 0.17356 0.0
C230 C 0.75749 0.95518 0.16949 0.0
C231 C 0.77784 0.84812 0.17307 0.0
C232 C 0.75105 0.86205 0.16055 0.0
C233 C 0.74086 0.91599 0.15877 0.0
N234 N 0.79399 0.88673 0.18355 0.0
C235 C 0.78416 0.93971 0.18187 0.0
Co236 Co 0.16564 0.57105 0.93584 0.0
Co237 Co 0.11183 0.65576 0.9507 0.0
O238 O 0.12476 0.58414 0.94369 0.0
C239 C 0.114 0.49993 0.91423 0.0
O240 O 0.09055 0.52121 0.92068 0.0
C241 C 0.10716 0.58527 0.97944 0.0
O242 O 0.13749 0.57005 0.97951 0.0
O243 O 0.15551 0.66569 0.96611 0.0
O244 O 0.18977 0.62364 0.95245 0.0
H245 H 0.12725 0.85439 0.96365 0.0
H246 H 0.12845 0.47943 0.94717 0.0
O247 O 0.1436 0.51663 0.91865 0.0
H248 H 0.24008 0.46939 0.98173 0.0
H249 H 0.24983 0.45713 0.91531 0.0
H250 H 0.21912 0.64213 0.92911 0.0
H251 H 0.22598 0.54033 0.96038 0.0
H252 H 0.19902 0.47301 0.92569 0.0
O253 O 0.0933 0.62026 0.9689 0.0
H254 H 0.14301 0.7645 0.95471 0.0
H255 H 0.05277 0.69765 0.96211 0.0
H256 H 0.27035 0.62796 0.91894 0.0
H257 H 0.14159 0.40758 0.9682 0.0
H258 H 0.28599 0.53492 0.91194 0.0
H259 H 0.19777 0.40217 0.98572 0.0
O260 O 0.15484 0.63095 0.9193 0.0
H261 H 0.00733 0.55676 0.92614 0.0
H262 H 0.07094 0.72496 0.92465 0.0
H263 H 0.01739 0.71441 0.9055 0.0
H264 H 0.9851 0.62986 0.90621 0.0
H265 H 0.06132 0.56861 0.94484 0.0
H266 H 0.03615 0.78675 0.97126 0.0
H267 H 0.07346 0.86595 0.972 0.0
O268 O 0.12949 0.69257 0.93249 0.0
C269 C 0.18442 0.65463 0.964 0.0
C270 C 0.11073 0.82023 0.96333 0.0
C271 C 0.05962 0.78225 0.96763 0.0
N272 N 0.09874 0.72597 0.95778 0.0
C273 C 0.11948 0.76926 0.95824 0.0
C274 C 0.06921 0.73186 0.96247 0.0
C275 C 0.08056 0.82667 0.96803 0.0
C276 C 0.1531 0.47694 0.95445 0.0
N277 N 0.17656 0.51352 0.95221 0.0
C278 C 0.16034 0.43632 0.96648 0.0
C279 C 0.19183 0.43339 0.97633 0.0
C280 C 0.21557 0.47108 0.9741 0.0
C281 C 0.20742 0.51118 0.96197 0.0
C282 C 0.24329 0.49787 0.91832 0.0
C283 C 0.22581 0.60149 0.92617 0.0
C284 C 0.21447 0.50716 0.92415 0.0
N285 N 0.20609 0.5585 0.92803 0.0
C286 C 0.25483 0.59373 0.92038 0.0
C287 C 0.26358 0.54152 0.91644 0.0
C288 C 0.14355 0.67863 0.92069 0.0
C289 C 0.02119 0.59375 0.92569 0.0
C290 C 0.05735 0.68771 0.92485 0.0
C291 C 0.02688 0.68213 0.91406 0.0
C292 C 0.00875 0.63474 0.91449 0.0
N293 N 0.06949 0.64721 0.93574 0.0
C294 C 0.05175 0.60077 0.93629 0.0
Co295 Co 0.09825 0.57851 0.32596 0.0
Co296 Co 0.14841 0.67203 0.31253 0.0
O297 O 0.13955 0.59832 0.3195 0.0
C298 C 0.11967 0.51902 0.35768 0.0
O299 O 0.10227 0.55418 0.36425 0.0
C300 C 0.16901 0.60154 0.2863 0.0
O301 O 0.14209 0.5724 0.28478 0.0
O302 O 0.10634 0.67242 0.29541 0.0
O303 O 0.07276 0.62978 0.30938 0.0
H304 H 0.11908 0.86554 0.29687 0.0
H305 H 0.14091 0.49174 0.31709 0.0
O306 O 0.12293 0.52537 0.3427 0.0
H307 H 0.03568 0.47393 0.27699 0.0
H308 H 0.01501 0.44822 0.34085 0.0
H309 H 0.04154 0.64037 0.33309 0.0
H310 H 0.04282 0.54424 0.29868 0.0
H311 H 0.06682 0.47346 0.33255 0.0
O312 O 0.17362 0.64205 0.29611 0.0
H313 H 0.10901 0.77281 0.30594 0.0
H314 H 0.20672 0.72741 0.30378 0.0
H315 H 0.98946 0.61691 0.34137 0.0
H316 H 0.13466 0.42034 0.29574 0.0
H317 H 0.97591 0.52023 0.34532 0.0
H318 H 0.08177 0.41121 0.27546 0.0
O319 O 0.10464 0.63792 0.34285 0.0
H320 H 0.25363 0.59022 0.34406 0.0
H321 H 0.18188 0.75127 0.33791 0.0
H322 H 0.23262 0.75043 0.35948 0.0
H323 H 0.26902 0.66949 0.36261 0.0
H324 H 0.20232 0.59256 0.32283 0.0
H325 H 0.21775 0.81952 0.29453 0.0
H326 H 0.17379 0.88942 0.29109 0.0
O327 O 0.12499 0.70463 0.32926 0.0
C328 C 0.07757 0.65943 0.29739 0.0
C329 C 0.13846 0.83548 0.29835 0.0
C330 C 0.19381 0.80961 0.29701 0.0
N331 N 0.15728 0.74474 0.30546 0.0
C332 C 0.13292 0.78292 0.30352 0.0
C333 C 0.18738 0.75744 0.30219 0.0
C334 C 0.16914 0.84883 0.2951 0.0
C335 C 0.11769 0.48763 0.30844 0.0
N336 N 0.09221 0.52196 0.30921 0.0
C337 C 0.11435 0.44728 0.29632 0.0
C338 C 0.08469 0.44225 0.28492 0.0
C339 C 0.05883 0.47747 0.28577 0.0
C340 C 0.06307 0.51736 0.29804 0.0
C341 C 0.02063 0.4905 0.33917 0.0
C342 C 0.03585 0.5982 0.33479 0.0
C343 C 0.04993 0.50505 0.33446 0.0
N344 N 0.05727 0.55839 0.33236 0.0
C345 C 0.0063 0.58516 0.33947 0.0
C346 C 0.99871 0.53092 0.34168 0.0
C347 C 0.11228 0.68763 0.34122 0.0
C348 C 0.23795 0.62569 0.34284 0.0
C349 C 0.19727 0.71567 0.33936 0.0
C350 C 0.22614 0.71554 0.35152 0.0
C351 C 0.24656 0.67016 0.35325 0.0
N352 N 0.18893 0.6719 0.3292 0.0
C353 C 0.20887 0.62729 0.33082 0.0
Co354 Co 0.85998 0.42705 0.07556 0.0
Co355 Co 0.92872 0.36152 0.06876 0.0
O356 O 0.90647 0.428 0.0738 0.0
C357 C 0.89174 0.5125 0.10112 0.0
O358 O 0.92094 0.50862 0.09743 0.0
C359 C 0.95055 0.43646 0.04384 0.0
O360 O 0.91988 0.44728 0.03686 0.0
O361 O 0.89476 0.35102 0.0481 0.0
O362 O 0.84931 0.37136 0.05753 0.0
H363 H 0.93346 0.167 0.05117 0.0
H364 H 0.89355 0.52938 0.06832 0.0
O365 O 0.86779 0.48311 0.09379 0.0
H366 H 0.79528 0.51342 0.02363 0.0
H367 H 0.75262 0.50925 0.08272 0.0
H368 H 0.81106 0.33941 0.07576 0.0
H369 H 0.80718 0.4443 0.04561 0.0
H370 H 0.81063 0.51122 0.07994 0.0
O371 O 0.95706 0.40514 0.05642 0.0
H372 H 0.90638 0.25062 0.05788 0.0
H373 H 0.99836 0.33245 0.06822 0.0
H374 H 0.75293 0.3357 0.07824 0.0
H375 H 0.88239 0.59962 0.04674 0.0
H376 H 0.72331 0.42105 0.08177 0.0
H377 H 0.83291 0.59205 0.02413 0.0
O378 O 0.86945 0.36858 0.09268 0.0
H379 H 0.01014 0.4692 0.10976 0.0
H380 H 0.95864 0.28972 0.09712 0.0
H381 H 0.99937 0.30269 0.12311 0.0
H382 H 0.02551 0.39293 0.12956 0.0
H383 H 0.96901 0.45456 0.08396 0.0
H384 H 0.02638 0.24987 0.06143 0.0
H385 H 0.9939 0.16627 0.05291 0.0
O386 O 0.90228 0.31507 0.08129 0.0
C387 C 0.86356 0.35029 0.04674 0.0
C388 C 0.9479 0.20314 0.05489 0.0
C389 C 1.00003 0.24968 0.06063 0.0
N390 N 0.95076 0.29636 0.06351 0.0
C391 C 0.9327 0.25061 0.05874 0.0
C392 C 0.984 0.29639 0.0644 0.0
C393 C 0.9818 0.20277 0.05586 0.0
C394 C 0.87165 0.5261 0.05882 0.0
N395 N 0.85061 0.48335 0.05864 0.0
C396 C 0.86558 0.5659 0.04649 0.0
C397 C 0.83788 0.56156 0.03378 0.0
C398 C 0.81676 0.51749 0.0335 0.0
C399 C 0.82363 0.47848 0.04603 0.0
C400 C 0.76525 0.47179 0.08117 0.0
C401 C 0.79831 0.37678 0.07718 0.0
C402 C 0.79814 0.47262 0.07965 0.0
N403 N 0.81419 0.42549 0.07758 0.0
C404 C 0.7654 0.3744 0.07863 0.0
C405 C 0.74881 0.42229 0.08062 0.0
C406 C 0.88373 0.32322 0.09162 0.0
C407 C 0.99893 0.42969 0.10709 0.0
C408 C 0.96967 0.32924 0.09988 0.0
C409 C 0.99285 0.33627 0.1146 0.0
C410 C 0.00752 0.38689 0.1182 0.0
N411 N 0.96136 0.37143 0.08905 0.0
C412 C 0.97567 0.42114 0.09249 0.0
Co413 Co 0.90597 0.39617 0.68509 0.0
Co414 Co 0.83689 0.33977 0.69604 0.0
O415 O 0.86179 0.40276 0.69063 0.0
C416 C 0.86677 0.46265 0.6576 0.0
O417 O 0.84152 0.43098 0.65794 0.0
C418 C 0.82213 0.42388 0.72138 0.0
O419 O 0.8455 0.45801 0.71966 0.0
O420 O 0.87514 0.31745 0.71356 0.0
O421 O 0.91926 0.34033 0.70305 0.0
H422 H 0.8243 0.14264 0.70909 0.0
H423 H 0.8803 0.50434 0.69192 0.0
O424 O 0.89438 0.45324 0.6672 0.0
H425 H 0.98259 0.48055 0.73382 0.0
H426 H 0.00924 0.46923 0.66988 0.0
H427 H 0.95068 0.3047 0.68199 0.0
H428 H 0.96381 0.40953 0.713 0.0
H429 H 0.95433 0.476 0.67679 0.0
O430 O 0.81781 0.38004 0.71305 0.0
H431 H 0.85371 0.22379 0.7023 0.0
H432 H 0.76834 0.31997 0.70098 0.0
H433 H 0.00568 0.29614 0.67529 0.0
H434 H 0.8984 0.57671 0.71239 0.0
H435 H 0.03534 0.37882 0.66916 0.0
H436 H 0.94984 0.565 0.73357 0.0
O437 O 0.89126 0.33689 0.66837 0.0
H438 H 0.75618 0.47567 0.66579 0.0
H439 H 0.79154 0.28457 0.66789 0.0
H440 H 0.74551 0.31429 0.64587 0.0
H441 H 0.7274 0.41051 0.64476 0.0
H442 H 0.80257 0.4443 0.68737 0.0
H443 H 0.73811 0.23994 0.70789 0.0
H444 H 0.76607 0.15041 0.71195 0.0
O445 O 0.85343 0.29489 0.67958 0.0
C446 C 0.90607 0.31656 0.71387 0.0
C447 C 0.81184 0.18142 0.70735 0.0
C448 C 0.76348 0.23603 0.70669 0.0
N449 N 0.81281 0.27665 0.70125 0.0
C450 C 0.82837 0.22753 0.7035 0.0
C451 C 0.78078 0.28126 0.70284 0.0
C452 C 0.77918 0.18581 0.70896 0.0
C453 C 0.90285 0.49911 0.70101 0.0
N454 N 0.921 0.45279 0.70122 0.0
C455 C 0.91292 0.54016 0.71261 0.0
C456 C 0.94176 0.53353 0.7245 0.0
C457 C 0.96013 0.48614 0.72466 0.0
C458 C 0.9493 0.44596 0.71287 0.0
C459 C 0.99658 0.43292 0.67254 0.0
C460 C 0.96349 0.34089 0.67943 0.0
C461 C 0.96543 0.43648 0.67641 0.0
N462 N 0.94936 0.39079 0.67986 0.0
C463 C 0.9946 0.33578 0.6756 0.0
C464 C 0.01122 0.38218 0.67215 0.0
C465 C 0.87214 0.29684 0.66919 0.0
C466 C 0.76377 0.4336 0.66616 0.0
C467 C 0.78416 0.32652 0.66738 0.0
C468 C 0.75788 0.34311 0.65494 0.0
C469 C 0.74769 0.39706 0.65435 0.0
N470 N 0.79984 0.36255 0.67894 0.0
C471 C 0.78991 0.4155 0.67843 0.0
Co472 Co 0.67241 0.10286 0.93189 0.0
Co473 Co 0.61812 0.17812 0.94974 0.0
O474 O 0.63131 0.10995 0.94018 0.0
C475 C 0.6232 0.0323 0.90783 0.0
O476 O 0.59913 0.03783 0.91583 0.0
C477 C 0.59913 0.08721 0.9712 0.0
O478 O 0.6139 0.05086 0.96371 0.0
O479 O 0.66203 0.18394 0.96533 0.0
O480 O 0.69609 0.14939 0.95017 0.0
H481 H 0.63471 0.37101 0.96936 0.0
H482 H 0.63773 1.00136 0.93957 0.0
O483 O 0.65084 0.05583 0.91276 0.0
H484 H 0.74979 0.98917 0.97333 0.0
H485 H 0.75727 1.00439 0.90716 0.0
H486 H 0.72558 0.17958 0.92813 0.0
H487 H 0.7333 0.0679 0.95518 0.0
H488 H 0.70631 0.01241 0.91794 0.0
O489 O 0.59994 0.13736 0.96734 0.0
H490 H 0.64967 0.28558 0.95721 0.0
H491 H 0.55938 0.21412 0.96275 0.0
H492 H 0.77689 0.17322 0.91758 0.0
H493 H 0.65335 0.92157 0.95719 0.0
H494 H 0.79304 0.08513 0.90698 0.0
H495 H 0.70977 0.91496 0.97437 0.0
O496 O 0.66103 0.16826 0.91757 0.0
H497 H 0.51596 0.08263 0.91958 0.0
H498 H 0.57518 0.25692 0.92792 0.0
H499 H 0.52195 0.25193 0.90825 0.0
H500 H 0.49181 0.1643 0.90404 0.0
H501 H 0.56945 0.08929 0.93885 0.0
H502 H 0.5436 0.29863 0.97509 0.0
H503 H 0.58132 0.37792 0.97839 0.0
O504 O 0.63474 0.2224 0.93255 0.0
C505 C 0.6909 0.17525 0.96274 0.0
C506 C 0.61801 0.3368 0.96793 0.0
C507 C 0.56691 0.29614 0.97118 0.0
N508 N 0.60535 0.245 0.95916 0.0
C509 C 0.62631 0.28836 0.96102 0.0
C510 C 0.57603 0.24833 0.96423 0.0
C511 C 0.58808 0.34063 0.97302 0.0
C512 C 0.66242 0.99877 0.94662 0.0
N513 N 0.68452 0.03944 0.94603 0.0
C514 C 0.67111 0.95345 0.95677 0.0
C515 C 0.70272 0.94982 0.96644 0.0
C516 C 0.72514 0.99145 0.96588 0.0
C517 C 0.71556 0.03614 0.95559 0.0
C518 C 0.75048 0.04302 0.91172 0.0
C519 C 0.73243 0.14109 0.92356 0.0
C520 C 0.72157 0.04789 0.91778 0.0
N521 N 0.71289 0.0965 0.92364 0.0
C522 C 0.76152 0.13774 0.91759 0.0
C523 C 0.77055 0.08832 0.91164 0.0
C524 C 0.64868 0.21397 0.92032 0.0
C525 C 0.52879 0.1211 0.92135 0.0
C526 C 0.56244 0.21855 0.92606 0.0
C527 C 0.53218 0.21603 0.91495 0.0
C528 C 0.51528 0.1669 0.91261 0.0
N529 N 0.57554 0.17351 0.93464 0.0
C530 C 0.55911 0.12519 0.93235 0.0
Co531 Co 0.59158 0.09457 0.32644 0.0
Co532 Co 0.64567 0.18072 0.3127 0.0
O533 O 0.63437 0.1089 0.32063 0.0
C534 C 0.63896 0.02175 0.35086 0.0
O535 O 0.66428 0.02922 0.34384 0.0
C536 C 0.66805 0.10541 0.288 0.0
O537 O 0.6399 0.07926 0.28516 0.0
O538 O 0.60516 0.18048 0.29451 0.0
O539 O 0.56923 0.14232 0.308 0.0
H540 H 0.62201 0.37214 0.29274 0.0
H541 H 0.63452 0.0068 0.31674 0.0
O542 O 0.61156 0.04564 0.34553 0.0
H543 H 0.52506 0.97817 0.28157 0.0
H544 H 0.50466 0.98086 0.34495 0.0
H545 H 0.53455 0.16414 0.32897 0.0
H546 H 0.53451 0.05325 0.30158 0.0
H547 H 0.5579 0.9971 0.33694 0.0
O548 O 0.6726 0.14548 0.29796 0.0
H549 H 0.60874 0.28254 0.30298 0.0
H550 H 0.70694 0.22981 0.30519 0.0
H551 H 0.4809 0.14952 0.33672 0.0
H552 H 0.62604 0.93084 0.29721 0.0
H553 H 0.46565 0.05734 0.34479 0.0
H554 H 0.57094 0.91586 0.27935 0.0
O555 O 0.59789 0.15768 0.34196 0.0
H556 H 0.74673 0.0988 0.3483 0.0
H557 H 0.67782 0.26276 0.33754 0.0
H558 H 0.72635 0.26292 0.36043 0.0
H559 H 0.76132 0.18047 0.3659 0.0
H560 H 0.69764 0.10031 0.32568 0.0
H561 H 0.72118 0.31871 0.29483 0.0
H562 H 0.67859 0.39072 0.2886 0.0
O563 O 0.62071 0.21925 0.32772 0.0
C564 C 0.57573 0.1691 0.29581 0.0
C565 C 0.64081 0.34114 0.29544 0.0
C566 C 0.69644 0.31111 0.29659 0.0
N567 N 0.65705 0.25097 0.30475 0.0
C568 C 0.63346 0.29033 0.30128 0.0
C569 C 0.68819 0.26075 0.30239 0.0
C570 C 0.67254 0.35151 0.29311 0.0
C571 C 0.61027 1.00003 0.30955 0.0
N572 N 0.5848 0.03357 0.31101 0.0
C573 C 0.60569 0.95712 0.29825 0.0
C574 C 0.57482 0.94886 0.28819 0.0
C575 C 0.54909 0.98377 0.28944 0.0
C576 C 0.55462 0.02626 0.30087 0.0
C577 C 0.511 0.0212 0.34144 0.0
C578 C 0.52803 0.12383 0.33237 0.0
C579 C 0.54119 0.03071 0.33695 0.0
N580 N 0.54929 0.0815 0.33239 0.0
C581 C 0.49764 0.11583 0.33679 0.0
C582 C 0.48912 0.06412 0.34134 0.0
C583 C 0.60646 0.20629 0.33951 0.0
C584 C 0.73165 0.13492 0.34607 0.0
C585 C 0.69254 0.22654 0.34 0.0
C586 C 0.72018 0.22696 0.3529 0.0
C587 C 0.73981 0.18074 0.35595 0.0
N588 N 0.68459 0.18141 0.3304 0.0
C589 C 0.70381 0.13602 0.33328 0.0
Co590 Co 0.35272 0.93805 0.07081 0.0
Co591 Co 0.42149 0.87561 0.06295 0.0
O592 O 0.39765 0.94005 0.06728 0.0
C593 C 0.35924 1.00505 0.1017 0.0
O594 O 0.3441 0.96635 0.10819 0.0
C595 C 0.44852 0.90995 0.03354 0.0
O596 O 0.43751 0.86405 0.0264 0.0
O597 O 0.38505 0.85686 0.04401 0.0
O598 O 0.34024 0.87794 0.05412 0.0
H599 H 0.43298 0.67864 0.04956 0.0
H600 H 0.38156 0.04181 0.06216 0.0
O601 O 0.36513 0.99928 0.08718 0.0
H602 H 0.28288 0.01285 0.01831 0.0
H603 H 0.24654 0.02213 0.07906 0.0
H604 H 0.30635 0.85106 0.07564 0.0
H605 H 0.29795 0.9471 0.04115 0.0
H606 H 0.30325 0.02329 0.07421 0.0
O607 O 0.44344 0.92143 0.04793 0.0
H608 H 0.40336 0.76094 0.0552 0.0
H609 H 0.49141 0.85312 0.06092 0.0
H610 H 0.24964 0.84801 0.08042 0.0
H611 H 0.36716 0.10892 0.03963 0.0
H612 H 0.21936 0.934 0.08217 0.0
H613 H 0.31752 0.09462 0.01748 0.0
O614 O 0.36561 0.8828 0.08879 0.0
H615 H 0.50176 1.00207 0.09806 0.0
H616 H 0.45903 0.81485 0.09217 0.0
H617 H 0.50233 0.83873 0.1163 0.0
H618 H 0.5241 0.93288 0.11933 0.0
H619 H 0.45819 0.97662 0.0742 0.0
H620 H 0.52198 0.77183 0.05528 0.0
H621 H 0.49273 0.68378 0.04956 0.0
O622 O 0.40009 0.83008 0.07804 0.0
C623 C 0.35407 0.85445 0.04349 0.0
C624 C 0.446 0.71677 0.05202 0.0
C625 C 0.49595 0.76906 0.05524 0.0
N626 N 0.44562 0.81178 0.05838 0.0
C627 C 0.42935 0.76351 0.05523 0.0
C628 C 0.47852 0.81495 0.05842 0.0
C629 C 0.47952 0.71968 0.05203 0.0
C630 C 0.35977 0.03549 0.05265 0.0
N631 N 0.3405 0.99075 0.05307 0.0
C632 C 0.35181 0.07355 0.03989 0.0
C633 C 0.32398 0.06547 0.02745 0.0
C634 C 0.30454 0.01959 0.0279 0.0
C635 C 0.31327 0.98239 0.04085 0.0
C636 C 0.25948 0.98439 0.07832 0.0
C637 C 0.29332 0.88864 0.07637 0.0
C638 C 0.29159 0.9848 0.0756 0.0
N639 N 0.30809 0.93727 0.07465 0.0
C640 C 0.26122 0.88667 0.07908 0.0
C641 C 0.24424 0.93493 0.08006 0.0
C642 C 0.38168 0.83865 0.08846 0.0
C643 C 0.49256 0.96086 0.09684 0.0
C644 C 0.46824 0.85598 0.09342 0.0
C645 C 0.49284 0.86922 0.1071 0.0
C646 C 0.50506 0.92204 0.10878 0.0
N647 N 0.45625 0.89421 0.0817 0.0
C648 C 0.46798 0.94615 0.08332 0.0
Co649 Co 0.39024 0.92698 0.68475 0.0
Co650 Co 0.33963 0.8439 0.70183 0.0
O651 O 0.35036 0.91446 0.69331 0.0
C652 C 0.36648 0.98479 0.65303 0.0
O653 O 0.38053 0.94601 0.64603 0.0
C654 C 0.33317 0.9218 0.72836 0.0
O655 O 0.36289 0.93833 0.72761 0.0
O656 O 0.38387 0.8395 0.71714 0.0
O657 O 0.41584 0.87459 0.70092 0.0
H658 H 0.36059 0.64916 0.71882 0.0
H659 H 0.35461 0.02131 0.6948 0.0
O660 O 0.36554 0.98121 0.6684 0.0
H661 H 0.46535 0.02843 0.73051 0.0
H662 H 0.47472 0.0417 0.66444 0.0
H663 H 0.44077 0.85558 0.67528 0.0
H664 H 0.45099 0.95659 0.7095 0.0
H665 H 0.4248 0.0258 0.67563 0.0
O666 O 0.32042 0.88227 0.71933 0.0
H667 H 0.37364 0.73783 0.70783 0.0
H668 H 0.28225 0.8014 0.71462 0.0
H669 H 0.49089 0.86968 0.66411 0.0
H670 H 0.3681 0.09426 0.71552 0.0
H671 H 0.50815 0.96329 0.6586 0.0
H672 H 0.42378 0.09802 0.73361 0.0
O673 O 0.37781 0.86618 0.66866 0.0
H674 H 0.23403 0.93449 0.67441 0.0
H675 H 0.29973 0.76666 0.678 0.0
H676 H 0.24595 0.77097 0.6587 0.0
H677 H 0.21262 0.85529 0.65687 0.0
H678 H 0.28813 0.92864 0.6934 0.0
H679 H 0.26834 0.71355 0.72585 0.0
H680 H 0.3076 0.63661 0.72793 0.0
O681 O 0.3577 0.80457 0.68417 0.0
C682 C 0.41208 0.84784 0.71367 0.0
C683 C 0.34324 0.68234 0.71794 0.0
C684 C 0.29149 0.71851 0.7219 0.0
N685 N 0.32864 0.77462 0.71049 0.0
C686 C 0.35046 0.73259 0.71168 0.0
C687 C 0.29954 0.7682 0.71558 0.0
C688 C 0.31352 0.67534 0.72306 0.0
C689 C 0.37904 0.02307 0.70246 0.0
N690 N 0.40203 0.98489 0.70084 0.0
C691 C 0.38647 0.06431 0.71424 0.0
C692 C 0.41769 0.06633 0.72441 0.0
C693 C 0.44102 0.02726 0.72269 0.0
C694 C 0.43269 0.98655 0.7108 0.0
C695 C 0.46747 1.00072 0.6668 0.0
C696 C 0.44811 0.89645 0.67293 0.0
C697 C 0.43924 0.99145 0.67315 0.0
N698 N 0.42984 0.93976 0.67612 0.0
C699 C 0.47653 0.90418 0.6666 0.0
C700 C 0.48621 0.95671 0.66352 0.0
C701 C 0.36867 0.81789 0.67127 0.0
C702 C 0.24829 0.89749 0.67512 0.0
C703 C 0.28549 0.80361 0.6772 0.0
C704 C 0.25499 0.80575 0.66629 0.0
C705 C 0.2363 0.85305 0.66527 0.0
N706 N 0.29702 0.84729 0.68687 0.0
C707 C 0.2789 0.89389 0.68589 0.0
Co708 Co 0.65691 0.59474 0.43036 0.0
Co709 Co 0.61067 0.65855 0.45477 0.0
O710 O 0.61997 0.59543 0.442 0.0
C711 C 0.6019 0.53082 0.40867 0.0
O712 O 0.58055 0.54878 0.4171 0.0
C713 C 0.60677 0.56755 0.47856 0.0
O714 O 0.63582 0.55057 0.47677 0.0
O715 O 0.65643 0.65612 0.46833 0.0
O716 O 0.68461 0.63927 0.44838 0.0
H717 H 0.63612 0.8396 0.48238 0.0
H718 H 0.62638 0.49231 0.43942 0.0
O719 O 0.63149 0.54814 0.41185 0.0
H720 H 0.74445 0.476 0.46414 0.0
H721 H 0.73272 0.51113 0.39673 0.0
H722 H 0.70384 0.67813 0.42343 0.0
H723 H 0.7231 0.55731 0.44811 0.0
H724 H 0.6876 0.51094 0.41207 0.0
O725 O 0.59415 0.60976 0.4709 0.0
H726 H 0.64617 0.76072 0.46573 0.0
H727 H 0.55618 0.68924 0.47172 0.0
H728 H 0.74933 0.67995 0.40832 0.0
H729 H 0.64673 0.41007 0.45512 0.0
H730 H 0.76404 0.59602 0.39484 0.0
H731 H 0.70619 0.40143 0.46767 0.0
O732 O 0.64013 0.66277 0.4181 0.0
H733 H 0.50102 0.57934 0.42815 0.0
H734 H 0.56817 0.7458 0.43636 0.0
H735 H 0.51209 0.74939 0.41932 0.0
H736 H 0.47801 0.66574 0.41517 0.0
H737 H 0.55749 0.5774 0.44484 0.0
H738 H 0.54522 0.76728 0.48848 0.0
H739 H 0.58531 0.84327 0.49387 0.0
O740 O 0.62574 0.70957 0.43884 0.0
C741 C 0.68329 0.65461 0.46304 0.0
C742 C 0.61841 0.80684 0.48007 0.0
C743 C 0.56742 0.76621 0.48351 0.0
N744 N 0.60172 0.72054 0.46766 0.0
C745 C 0.62394 0.76209 0.47063 0.0
C746 C 0.5738 0.72206 0.47404 0.0
C747 C 0.58992 0.80883 0.48653 0.0
C748 C 0.65233 0.48874 0.44456 0.0
N749 N 0.67354 0.52947 0.44255 0.0
C750 C 0.6637 0.44209 0.45356 0.0
C751 C 0.69704 0.43732 0.46064 0.0
C752 C 0.71851 0.47914 0.45867 0.0
C753 C 0.70625 0.52519 0.44959 0.0
C754 C 0.72658 0.54794 0.40258 0.0
C755 C 0.71019 0.64135 0.41768 0.0
C756 C 0.70097 0.54815 0.41124 0.0
N757 N 0.69315 0.59446 0.41872 0.0
C758 C 0.73594 0.64267 0.40911 0.0
C759 C 0.74415 0.59558 0.40152 0.0
C760 C 0.6328 0.70727 0.42446 0.0
C761 C 0.51564 0.61605 0.42983 0.0
C762 C 0.55377 0.70906 0.4344 0.0
C763 C 0.52189 0.71142 0.42484 0.0
C764 C 0.50276 0.66451 0.42254 0.0
N765 N 0.56633 0.66131 0.44144 0.0
C766 C 0.54763 0.61524 0.43931 0.0
Co767 Co 0.5973 0.60846 0.82624 0.0
Co768 Co 0.66212 0.65891 0.81069 0.0
O769 O 0.64028 0.59932 0.81991 0.0
C770 C 0.63999 0.55106 0.85451 0.0
O771 O 0.6636 0.58481 0.85295 0.0
C772 C 0.66791 0.56808 0.78748 0.0
O773 O 0.63736 0.55436 0.78751 0.0
O774 O 0.62235 0.66928 0.79294 0.0
O775 O 0.58154 0.65889 0.80689 0.0
H776 H 0.66769 0.84502 0.78642 0.0
H777 H 0.62251 0.49801 0.82165 0.0
O778 O 0.61142 0.55673 0.84544 0.0
H779 H 0.51648 0.51106 0.78193 0.0
H780 H 0.49772 0.5433 0.84676 0.0
H781 H 0.55319 0.70177 0.82815 0.0
H782 H 0.53697 0.58777 0.80033 0.0
H783 H 0.55109 0.53292 0.83835 0.0
O784 O 0.68112 0.60777 0.79621 0.0
H785 H 0.64163 0.76952 0.79863 0.0
H786 H 0.72826 0.67469 0.80237 0.0
H787 H 0.49972 0.71388 0.83631 0.0
H788 H 0.60275 0.42009 0.80361 0.0
H789 H 0.47161 0.63426 0.8457 0.0
H790 H 0.54941 0.42637 0.78354 0.0
O791 O 0.61393 0.6723 0.84067 0.0
H792 H 0.75079 0.54827 0.84643 0.0
H793 H 0.7049 0.73211 0.83487 0.0
H794 H 0.75335 0.71867 0.85741 0.0
H795 H 0.77668 0.62623 0.86327 0.0
H796 H 0.70205 0.56343 0.82416 0.0
H797 H 0.75513 0.74898 0.79008 0.0
H798 H 0.72485 0.83501 0.78207 0.0
O799 O 0.64466 0.71268 0.82477 0.0
C800 C 0.59229 0.67429 0.79414 0.0
C801 C 0.68118 0.8078 0.78991 0.0
C802 C 0.73024 0.75389 0.79195 0.0
N803 N 0.68347 0.71789 0.80133 0.0
C804 C 0.66658 0.76495 0.79686 0.0
C805 C 0.71486 0.71192 0.79888 0.0
C806 C 0.71324 0.80215 0.78746 0.0
C807 C 0.59912 0.50089 0.81307 0.0
N808 N 0.58086 0.54734 0.81212 0.0
C809 C 0.58812 0.4567 0.80283 0.0
C810 C 0.55822 0.46029 0.79155 0.0
C811 C 0.53975 0.5078 0.79064 0.0
C812 C 0.55154 0.55118 0.80106 0.0
C813 C 0.50971 0.57829 0.84267 0.0
C814 C 0.54104 0.66688 0.83214 0.0
C815 C 0.53998 0.57269 0.83794 0.0
N816 N 0.55516 0.61666 0.83268 0.0
C817 C 0.5108 0.67401 0.83679 0.0
C818 C 0.49506 0.62933 0.84207 0.0
C819 C 0.62936 0.71353 0.8367 0.0
C820 C 0.74092 0.58877 0.84396 0.0
C821 C 0.71474 0.6917 0.83743 0.0
C822 C 0.74227 0.68438 0.85016 0.0
C823 C 0.75539 0.63251 0.85343 0.0
N824 N 0.70067 0.64859 0.8282 0.0
C825 C 0.71343 0.59764 0.83131 0.0
Co826 Co 0.35804 0.42309 0.5715 0.0
Co827 Co 0.42212 0.34397 0.56543 0.0
O828 O 0.40421 0.41452 0.56981 0.0
C829 C 0.36411 0.48847 0.60251 0.0
O830 O 0.34646 0.45107 0.60802 0.0
C831 C 0.4477 0.41505 0.54097 0.0
O832 O 0.41825 0.43589 0.53593 0.0
O833 O 0.38735 0.33638 0.54501 0.0
O834 O 0.34314 0.36512 0.55432 0.0
H835 H 0.41427 0.14654 0.54995 0.0
H836 H 0.39657 0.51919 0.56501 0.0
O837 O 0.37221 0.48225 0.58847 0.0
H838 H 0.30304 0.50898 0.5174 0.0
H839 H 0.25665 0.53065 0.57549 0.0
H840 H 0.30369 0.3475 0.57391 0.0
H841 H 0.30883 0.44209 0.54008 0.0
H842 H 0.31452 0.51883 0.57314 0.0
O843 O 0.45265 0.37946 0.55246 0.0
H844 H 0.39276 0.2361 0.55574 0.0
H845 H 0.48941 0.30168 0.56509 0.0
H846 H 0.24569 0.35746 0.57617 0.0
H847 H 0.39149 0.58729 0.54267 0.0
H848 H 0.22181 0.44957 0.57699 0.0
H849 H 0.3445 0.58236 0.51863 0.0
O850 O 0.36366 0.36654 0.58936 0.0
H851 H 0.50963 0.44394 0.60536 0.0
H852 H 0.44818 0.27209 0.59438 0.0
H853 H 0.48991 0.2822 0.62016 0.0
H854 H 0.52107 0.36855 0.62576 0.0
H855 H 0.46742 0.43226 0.57978 0.0
H856 H 0.51192 0.21296 0.55918 0.0
H857 H 0.47427 0.13452 0.55164 0.0
O858 O 0.39322 0.30563 0.57849 0.0
C859 C 0.35623 0.33969 0.54378 0.0
C860 C 0.43094 0.18038 0.55324 0.0
C861 C 0.48574 0.21768 0.5584 0.0
N862 N 0.43981 0.27407 0.56082 0.0
C863 C 0.41891 0.2312 0.55657 0.0
C864 C 0.47283 0.26789 0.56167 0.0
C865 C 0.4646 0.17368 0.55419 0.0
C866 C 0.37585 0.5171 0.55468 0.0
N867 N 0.35291 0.47692 0.55393 0.0
C868 C 0.37319 0.55564 0.54203 0.0
C869 C 0.34686 0.5528 0.52853 0.0
C870 C 0.3236 0.51162 0.52783 0.0
C871 C 0.32707 0.47375 0.54069 0.0
C872 C 0.26677 0.4903 0.57515 0.0
C873 C 0.29349 0.38772 0.57424 0.0
C874 C 0.29952 0.48336 0.57383 0.0
N875 N 0.31248 0.43251 0.57339 0.0
C876 C 0.26062 0.3931 0.57553 0.0
C877 C 0.24724 0.44479 0.57599 0.0
C878 C 0.37515 0.31868 0.58867 0.0
C879 C 0.49628 0.40607 0.60304 0.0
C880 C 0.46151 0.3099 0.59675 0.0
C881 C 0.48518 0.31532 0.61136 0.0
C882 C 0.50266 0.36377 0.61449 0.0
N883 N 0.4555 0.3515 0.58554 0.0
C884 C 0.47243 0.39919 0.58856 0.0
Co885 Co 0.39958 0.43862 0.1867 0.0
Co886 Co 0.33295 0.37177 0.19611 0.0
O887 O 0.35502 0.4377 0.19106 0.0
C888 C 0.39034 0.50414 0.15546 0.0
O889 O 0.40586 0.46579 0.14907 0.0
C890 C 0.3265 0.44635 0.22351 0.0
O891 O 0.3582 0.45524 0.22526 0.0
O892 O 0.37136 0.35263 0.21391 0.0
O893 O 0.4148 0.37977 0.20356 0.0
H894 H 0.32551 0.17272 0.20811 0.0
H895 H 0.36912 0.54114 0.19504 0.0
O896 O 0.38482 0.49855 0.17007 0.0
H897 H 0.46936 0.51868 0.23838 0.0
H898 H 0.50255 0.52966 0.17662 0.0
H899 H 0.44732 0.35478 0.18127 0.0
H900 H 0.45519 0.45185 0.21583 0.0
H901 H 0.44653 0.52708 0.18236 0.0
O902 O 0.31226 0.41323 0.21248 0.0
H903 H 0.35273 0.2565 0.20151 0.0
H904 H 0.26604 0.34715 0.20223 0.0
H905 H 0.50337 0.35548 0.17558 0.0
H906 H 0.38261 0.60931 0.21725 0.0
H907 H 0.53136 0.44339 0.17321 0.0
H908 H 0.43298 0.59821 0.23917 0.0
O909 O 0.38707 0.38205 0.16908 0.0
H910 H 0.24709 0.49677 0.16431 0.0
H911 H 0.29241 0.3112 0.16781 0.0
H912 H 0.24566 0.33452 0.14525 0.0
H913 H 0.2226 0.42785 0.14343 0.0
H914 H 0.29405 0.47181 0.1866 0.0
H915 H 0.23801 0.26445 0.20905 0.0
H916 H 0.26773 0.17639 0.21194 0.0
O917 O 0.35253 0.3291 0.17981 0.0
C918 C 0.40223 0.35339 0.21412 0.0
C919 C 0.31227 0.21082 0.20684 0.0
C920 C 0.26317 0.26232 0.20739 0.0
N921 N 0.31092 0.30658 0.20137 0.0
C922 C 0.32752 0.25837 0.20306 0.0
C923 C 0.27921 0.30905 0.20357 0.0
C924 C 0.27986 0.21292 0.209 0.0
C925 C 0.39131 0.53634 0.2044 0.0
N926 N 0.41142 0.49264 0.20406 0.0
C927 C 0.39873 0.57495 0.217 0.0
C928 C 0.42695 0.56863 0.22932 0.0
C929 C 0.44735 0.524 0.22889 0.0
C930 C 0.43913 0.48615 0.21611 0.0
C931 C 0.49062 0.49109 0.17763 0.0
C932 C 0.45934 0.3932 0.18026 0.0
C933 C 0.4589 0.48938 0.18087 0.0
N934 N 0.44366 0.44081 0.18214 0.0
C935 C 0.49108 0.39334 0.17704 0.0
C936 C 0.50676 0.44268 0.17571 0.0
C937 C 0.37074 0.33807 0.16932 0.0
C938 C 0.25686 0.45593 0.165 0.0
C939 C 0.28261 0.35196 0.16706 0.0
C940 C 0.25608 0.36489 0.15428 0.0
C941 C 0.24315 0.41725 0.15328 0.0
N942 N 0.29581 0.39005 0.17856 0.0
C943 C 0.28337 0.44153 0.17762 0.0
H944 H 0.28845 0.33 0.5379 0.0
H945 H 0.37411 0.28114 0.51874 0.0
H946 H 0.33831 0.22846 0.49682 0.0
H947 H 0.24594 0.203 0.53109 0.0
H948 H 0.20563 0.23281 0.52506 0.0
H949 H 0.23765 0.26853 0.53904 0.0
H950 H 0.22971 0.35172 0.51943 0.0
H951 H 0.19756 0.3164 0.50539 0.0
H952 H 0.23237 0.34314 0.49801 0.0
H953 H 0.29396 0.18022 0.47725 0.0
H954 H 0.2438 0.13969 0.4609 0.0
H955 H 0.18577 0.21779 0.49258 0.0
C956 C 0.29973 0.30857 0.52904 0.0
C957 C 0.33428 0.31004 0.53009 0.0
C958 C 0.34784 0.28099 0.51825 0.0
C959 C 0.32768 0.25081 0.50573 0.0
C960 C 0.2939 0.24989 0.50515 0.0
C961 C 0.27993 0.27804 0.51644 0.0
C962 C 0.24289 0.26944 0.51311 0.0
C963 C 0.23242 0.24179 0.52796 0.0
C964 C 0.22455 0.32339 0.50872 0.0
C965 C 0.23827 0.23185 0.49821 0.0
C966 C 0.2681 0.22135 0.49387 0.0
C967 C 0.27046 0.18811 0.48054 0.0
C968 C 0.24164 0.16511 0.47133 0.0
C969 C 0.21055 0.17504 0.47542 0.0
C970 C 0.20903 0.20895 0.48914 0.0
H971 H 0.94938 0.97785 0.51891 0.0
H972 H 0.016 0.86714 0.55037 0.0
H973 H 0.06178 0.90035 0.53834 0.0
H974 H 0.98575 0.96505 0.48284 0.0
H975 H 0.98056 0.03557 0.47707 0.0
H976 H 0.9525 1.00361 0.48817 0.0
H977 H 0.96542 0.07731 0.51094 0.0
H978 H 0.99354 0.10946 0.49991 0.0
H979 H 0.0075 0.08916 0.52121 0.0
H980 H 0.1006 0.94352 0.52271 0.0
H981 H 0.13002 0.99527 0.5046 0.0
H982 H 0.03954 0.08006 0.48332 0.0
C983 C 0.97359 0.96061 0.52326 0.0
C984 C 0.97884 0.91959 0.53562 0.0
C985 C 0.01105 0.8984 0.54095 0.0
C986 C 0.03738 0.91705 0.53418 0.0
C987 C 0.03141 0.95725 0.52207 0.0
C988 C 1.00038 0.97899 0.51665 0.0
C989 C 1.00095 0.02193 0.50343 0.0
C990 C 0.97861 0.00554 0.4869 0.0
C991 C 0.99128 0.07777 0.50923 0.0
C992 C 0.03705 0.02059 0.50228 0.0
C993 C 0.05409 0.98288 0.51315 0.0
C994 C 0.08755 0.97338 0.51419 0.0
C995 C 0.10408 1.00303 0.50384 0.0
C996 C 0.08728 0.04205 0.49257 0.0
C997 C 0.05325 0.05091 0.49188 0.0
H998 H 0.27089 0.89814 0.73381 0.0
H999 H 0.35085 0.0143 0.74622 0.0
H1000 H 0.31815 0.06736 0.76236 0.0
H1001 H 0.20475 0.99486 0.72925 0.0
H1002 H 0.17822 0.95201 0.7385 0.0
H1003 H 0.20786 0.92209 0.72799 0.0
H1004 H 0.23268 0.86717 0.75438 0.0
H1005 H 0.20302 0.89672 0.76495 0.0
H1006 H 0.24636 0.90232 0.77374 0.0
H1007 H 0.27699 0.10925 0.77661 0.0
H1008 H 0.23084 0.13579 0.7893 0.0
H1009 H 0.17651 0.99278 0.76845 0.0
C1010 C 0.2816 0.93457 0.74 0.0
C1011 C 0.31362 0.95185 0.73873 0.0
C1012 C 0.32656 0.9999 0.74701 0.0
C1013 C 0.3081 0.03051 0.7562 0.0
C1014 C 0.27666 0.01265 0.75709 0.0
C1015 C 0.2635 0.96567 0.74934 0.0
C1016 C 0.22906 0.95572 0.75244 0.0
C1017 C 0.20346 0.95621 0.73607 0.0
C1018 C 0.22771 0.90231 0.76194 0.0
C1019 C 0.22496 1.00456 0.76311 0.0
C1020 C 0.25277 0.03681 0.76553 0.0
C1021 C 0.25511 0.08426 0.77482 0.0
C1022 C 0.22855 0.09907 0.78197 0.0
C1023 C 0.19974 0.06662 0.77992 0.0
C1024 C 0.19802 0.01867 0.77026 0.0
H1025 H 0.07692 0.21364 0.77056 0.0
H1026 H 0.01684 0.12789 0.79979 0.0
H1027 H 0.96698 0.16035 0.78124 0.0
H1028 H 0.02433 0.33104 0.76204 0.0
H1029 H 0.03003 0.3399 0.7411 0.0
H1030 H 0.06198 0.30903 0.75642 0.0
H1031 H 0.06123 0.22472 0.73761 0.0
H1032 H 0.02931 0.2554 0.72223 0.0
H1033 H 0.02307 0.18913 0.73035 0.0
H1034 H 0.92305 0.20266 0.76028 0.0
H1035 H 0.8875 0.25246 0.73757 0.0
H1036 H 0.97424 0.31147 0.72111 0.0
C1037 C 0.05329 0.20141 0.77298 0.0
C1038 C 0.05119 0.16774 0.78671 0.0
C1039 C 0.01957 0.15324 0.78942 0.0
C1040 C 0.99084 0.17157 0.77893 0.0
C1041 C 0.99372 0.20462 0.76564 0.0
C1042 C 0.02401 0.2195 0.76254 0.0
C1043 C 0.01967 0.25618 0.74739 0.0
C1044 C 0.03491 0.31237 0.75202 0.0
C1045 C 0.03418 0.22977 0.73358 0.0
C1046 C 0.98232 0.25942 0.74259 0.0
C1047 C 0.96797 0.22933 0.75335 0.0
C1048 C 0.93395 0.22634 0.75172 0.0
C1049 C 0.91393 0.25492 0.73876 0.0
C1050 C 0.92786 0.28619 0.72748 0.0
C1051 C 0.96265 0.2881 0.72947 0.0
H1052 H 0.7974 0.80238 0.54038 0.0
H1053 H 0.88187 0.75931 0.51947 0.0
H1054 H 0.84465 0.71344 0.49621 0.0
H1055 H 0.75291 0.67791 0.53025 0.0
H1056 H 0.71325 0.7106 0.52571 0.0
H1057 H 0.74649 0.74038 0.54051 0.0
H1058 H 0.73963 0.8302 0.52385 0.0
H1059 H 0.70636 0.80085 0.50897 0.0
H1060 H 0.74137 0.82934 0.50217 0.0
H1061 H 0.79775 0.675 0.47481 0.0
H1062 H 0.74578 0.64383 0.45743 0.0
H1063 H 0.69198 0.70866 0.4931 0.0
C1064 C 0.8083 0.78341 0.53095 0.0
C1065 C 0.84276 0.78476 0.53179 0.0
C1066 C 0.85567 0.759 0.51914 0.0
C1067 C 0.83468 0.73286 0.50588 0.0
C1068 C 0.80088 0.73247 0.5055 0.0
C1069 C 0.78782 0.75688 0.51776 0.0
C1070 C 0.7507 0.75042 0.5146 0.0
C1071 C 0.74024 0.71788 0.5286 0.0
C1072 C 0.73351 0.80601 0.51226 0.0
C1073 C 0.74476 0.71858 0.49854 0.0
C1074 C 0.77403 0.70895 0.49348 0.0
C1075 C 0.77478 0.68185 0.47876 0.0
C1076 C 0.74496 0.66414 0.46897 0.0
C1077 C 0.71456 0.67289 0.47395 0.0
C1078 C 0.71468 0.70052 0.48901 0.0
H1079 H 0.66919 0.0256 0.26422 0.0
H1080 H 0.73058 0.14577 0.29441 0.0
H1081 H 0.77748 0.11858 0.28235 0.0
H1082 H 0.73212 0.92274 0.26692 0.0
H1083 H 0.71889 0.90033 0.24579 0.0
H1084 H 0.68954 0.92906 0.25671 0.0
H1085 H 0.67297 1.00052 0.23342 0.0
H1086 H 0.70226 0.97194 0.22244 0.0
H1087 H 0.70422 0.04302 0.22769 0.0
H1088 H 0.81846 0.07842 0.26735 0.0
H1089 H 0.85023 0.0283 0.24994 0.0
H1090 H 0.76308 0.93439 0.2291 0.0
C1091 C 0.69247 0.04622 0.26827 0.0
C1092 C 0.6959 0.0881 0.28027 0.0
C1093 C 0.72697 0.11387 0.2852 0.0
C1094 C 0.75395 0.09863 0.27844 0.0
C1095 C 0.74978 0.05745 0.26667 0.0
C1096 C 0.71986 0.03158 0.26157 0.0
C1097 C 0.72225 0.98862 0.24866 0.0
C1098 C 0.71529 0.93182 0.2549 0.0
C1099 C 0.69905 1.00183 0.23207 0.0
C1100 C 0.75809 0.99451 0.24737 0.0
C1101 C 0.77351 0.03439 0.25791 0.0
C1102 C 0.80665 0.04709 0.25902 0.0
C1103 C 0.82453 0.01833 0.24909 0.0
C1104 C 0.8093 0.97734 0.23812 0.0
C1105 C 0.77555 0.96551 0.23732 0.0
H1106 H 0.96924 0.83835 0.22401 0.0
H1107 H 0.88334 0.77724 0.24079 0.0
H1108 H 0.91933 0.72264 0.2621 0.0
H1109 H 0.01684 0.71494 0.23019 0.0
H1110 H 0.05556 0.74866 0.23764 0.0
H1111 H 0.02325 0.78291 0.22337 0.0
H1112 H 0.02579 0.86281 0.24396 0.0
H1113 H 0.05817 0.82891 0.25828 0.0
H1114 H 0.02125 0.8495 0.2649 0.0
H1115 H 0.96353 0.67411 0.28125 0.0
H1116 H 0.0137 0.63718 0.29846 0.0
H1117 H 0.0729 0.73055 0.27051 0.0
C1118 C 0.95795 0.81361 0.23218 0.0
C1119 C 0.92326 0.81233 0.23065 0.0
C1120 C 0.90969 0.77928 0.24166 0.0
C1121 C 0.92997 0.7479 0.25381 0.0
C1122 C 0.96389 0.75009 0.25495 0.0
C1123 C 0.97792 0.78231 0.24456 0.0
C1124 C 0.01528 0.77785 0.24881 0.0
C1125 C 0.0285 0.7547 0.23413 0.0
C1126 C 0.03105 0.83305 0.25431 0.0
C1127 C 0.01995 0.7379 0.26318 0.0
C1128 C 0.98983 0.72241 0.26636 0.0
C1129 C 0.98727 0.686 0.27891 0.0
C1130 C 0.01616 0.66516 0.28864 0.0
C1131 C 0.04763 0.68071 0.28595 0.0
C1132 C 0.0494 0.71754 0.27291 0.0
H1133 H 0.2862 0.84404 0.03631 0.0
H1134 H 0.37458 0.78894 0.02071 0.0
H1135 H 0.34067 0.73199 0.99927 0.0
H1136 H 0.24258 0.71713 0.03048 0.0
H1137 H 0.20296 0.74755 0.0227 0.0
H1138 H 0.23396 0.78457 0.03691 0.0
H1139 H 0.22942 0.86391 0.01594 0.0
H1140 H 0.19833 0.82724 1.00168 0.0
H1141 H 0.23479 0.85077 0.99514 0.0
H1142 H 0.29797 0.68024 0.97984 0.0
H1143 H 0.24899 0.6386 0.96277 0.0
H1144 H 0.18688 0.72715 0.99019 0.0
C1145 C 0.29848 0.82017 0.02836 0.0
C1146 C 0.33324 0.82126 0.03026 0.0
C1147 C 0.34812 0.78919 0.01955 0.0
C1148 C 0.32904 0.75652 0.00732 0.0
C1149 C 0.295 0.75631 1.00584 0.0
C1150 C 0.27975 0.78743 0.01598 0.0
C1151 C 0.24261 0.77987 0.01159 0.0
C1152 C 0.22978 0.75584 0.0263 0.0
C1153 C 0.22526 0.83365 1.00574 0.0
C1154 C 0.23944 0.73945 0.99743 0.0
C1155 C 0.27007 0.72648 0.99442 0.0
C1156 C 0.27385 0.69013 0.98206 0.0
C1157 C 0.24567 0.66658 0.97241 0.0
C1158 C 0.21375 0.67929 0.97504 0.0
C1159 C 0.21077 0.71629 0.98783 0.0
H1160 H 0.04037 0.58954 0.9788 0.0
H1161 H 0.13225 0.52531 0.00706 0.0
H1162 H 0.10223 0.48374 0.02686 0.0
H1163 H 1.00217 0.61903 0.01376 0.0
H1164 H 0.9617 0.59807 1.00322 0.0
H1165 H 0.9904 0.62479 0.99152 0.0
H1166 H 0.98405 0.53782 0.97355 0.0
H1167 H 0.95531 0.51087 0.98517 0.0
H1168 H 0.99144 0.47251 0.9835 0.0
H1169 H 0.06274 0.44893 0.04356 0.0
H1170 H 0.01613 0.41889 0.05548 0.0
H1171 H 0.94854 0.50237 0.01617 0.0
C1172 C 0.05421 0.56708 0.98923 0.0
C1173 C 0.08881 0.56106 0.99142 0.0
C1174 C 0.10585 0.53066 1.00511 0.0
C1175 C 0.08899 0.50696 0.01646 0.0
C1176 C 0.05498 0.51358 0.01394 0.0
C1177 C 0.03768 0.54259 1.00063 0.0
C1178 C 1.001 0.5417 1.00052 0.0
C1179 C 0.98806 0.59933 1.00237 0.0
C1180 C 0.98182 0.51407 0.98475 0.0
C1181 C 1.00041 0.50758 0.01584 0.0
C1182 C 0.03192 0.49223 0.02342 0.0
C1183 C 0.03795 0.46061 0.03772 0.0
C1184 C 0.01116 0.4437 0.0444 0.0
C1185 C 0.97842 0.45792 0.03679 0.0
C1186 C 0.97315 0.49073 0.02233 0.0
H1187 H 0.26222 0.42853 0.22675 0.0
H1188 H 0.34696 0.53197 0.24407 0.0
H1189 H 0.31541 0.5829 0.2613 0.0
H1190 H 0.2001 0.53246 0.22485 0.0
H1191 H 0.17124 0.48893 0.23222 0.0
H1192 H 0.20018 0.46046 0.221 0.0
H1193 H 0.22138 0.39467 0.24535 0.0
H1194 H 0.19247 0.42283 0.25664 0.0
H1195 H 0.23573 0.42162 0.26588 0.0
H1196 H 0.27516 0.62328 0.27647 0.0
H1197 H 0.22943 0.64889 0.28963 0.0
H1198 H 0.16992 0.51892 0.26333 0.0
C1199 C 0.27413 0.46194 0.23415 0.0
C1200 C 0.30719 0.47618 0.23401 0.0
C1201 C 0.32181 0.52003 0.24397 0.0
C1202 C 0.30403 0.54938 0.25378 0.0
C1203 C 0.2716 0.53438 0.25364 0.0
C1204 C 0.25675 0.49155 0.24418 0.0
C1205 C 0.22168 0.48349 0.24659 0.0
C1206 C 0.19683 0.49184 0.23019 0.0
C1207 C 0.21759 0.42732 0.25406 0.0
C1208 C 0.21918 0.52855 0.25886 0.0
C1209 C 0.24829 0.55743 0.26265 0.0
C1210 C 0.25225 0.60095 0.27361 0.0
C1211 C 0.22594 0.61527 0.28101 0.0
C1212 C 0.1958 0.58616 0.27755 0.0
C1213 C 0.19249 0.54216 0.26625 0.0
H1214 H 0.69461 0.23972 0.99092 0.0
H1215 H 0.75509 0.16016 0.9607 0.0
H1216 H 0.80469 0.1965 0.97853 0.0
H1217 H 0.7437 0.36132 0.99867 0.0
H1218 H 0.73895 0.36869 0.01982 0.0
H1219 H 0.7073 0.33579 1.00484 0.0
H1220 H 0.71159 0.2507 0.02366 0.0
H1221 H 0.74315 0.28351 0.03871 0.0
H1222 H 0.75096 0.21825 0.03044 0.0
H1223 H 0.84846 0.24183 0.99916 0.0
H1224 H 0.88343 0.2921 0.02208 0.0
H1225 H 0.79589 0.34276 0.0393 0.0
C1226 C 0.71827 0.22965 0.98813 0.0
C1227 C 0.72055 0.19662 0.97434 0.0
C1228 C 0.75222 0.18496 0.97114 0.0
C1229 C 0.78081 0.20557 0.9812 0.0
C1230 C 0.77773 0.23806 0.99455 0.0
C1231 C 0.74738 0.25002 0.99812 0.0
C1232 C 0.75138 0.28628 0.01329 0.0
C1233 C 0.73432 0.34128 0.00889 0.0
C1234 C 0.73851 0.25798 0.02736 0.0
C1235 C 0.78858 0.29252 0.01757 0.0
C1236 C 0.80325 0.26445 0.00656 0.0
C1237 C 0.8373 0.26404 0.0079 0.0
C1238 C 0.85698 0.29283 0.02095 0.0
C1239 C 0.8426 0.32163 0.03253 0.0
C1240 C 0.80784 0.32139 0.03069 0.0
H1241 H 0.72303 0.60254 0.77677 0.0
H1242 H 0.65755 0.46454 0.77555 0.0
H1243 H 0.69149 0.41259 0.7596 0.0
H1244 H 0.73589 0.58604 0.73505 0.0
H1245 H 0.77835 0.60709 0.74003 0.0
H1246 H 0.74965 0.63285 0.75184 0.0
H1247 H 0.78717 0.59835 0.77889 0.0
H1248 H 0.81595 0.57221 0.76718 0.0
H1249 H 0.79895 0.52784 0.78069 0.0
H1250 H 0.73297 0.37497 0.74471 0.0
H1251 H 0.77607 0.35552 0.72926 0.0
H1252 H 0.81383 0.5196 0.73823 0.0
C1253 C 0.71589 0.56129 0.77319 0.0
C1254 C 0.6877 0.53737 0.77751 0.0
C1255 C 0.67895 0.48365 0.77239 0.0
C1256 C 0.69819 0.45379 0.76339 0.0
C1257 C 0.72587 0.47845 0.75944 0.0
C1258 C 0.73454 0.53117 0.76398 0.0
C1259 C 0.76478 0.54863 0.75753 0.0
C1260 C 0.75667 0.59648 0.74539 0.0
C1261 C 0.79341 0.56257 0.77193 0.0
C1262 C 0.77185 0.49731 0.74868 0.0
C1263 C 0.74921 0.45734 0.75015 0.0
C1264 C 0.75058 0.40614 0.74331 0.0
C1265 C 0.77526 0.39563 0.73445 0.0
C1266 C 0.79825 0.43623 0.73217 0.0
C1267 C 0.79668 0.48768 0.73963 0.0
H1268 H 0.57275 0.98593 0.97413 0.0
H1269 H 0.57648 0.1492 0.99409 0.0
H1270 H 0.53863 0.12176 0.01222 0.0
H1271 H 0.48693 0.96519 0.97273 0.0
H1272 H 0.49117 0.89439 0.97827 0.0
H1273 H 0.52001 0.92584 0.96754 0.0
H1274 H 0.56839 0.89564 0.99089 0.0
H1275 H 0.53972 0.86377 1.00163 0.0
H1276 H 0.56824 0.91384 0.01206 0.0
H1277 H 0.50037 0.07608 0.02839 0.0
H1278 H 0.46351 0.01674 0.0406 0.0
H1279 H 0.48217 0.88462 0.00899 0.0
C1280 C 0.56597 0.01575 0.98248 0.0
C1281 C 0.57794 0.06966 0.9828 0.0
C1282 C 0.56783 0.10764 0.99367 0.0
C1283 C 0.54631 0.09242 1.00402 0.0
C1284 C 0.53471 0.03916 1.00326 0.0
C1285 C 0.54408 1.00145 0.99271 0.0
C1286 C 0.52708 0.94741 0.99383 0.0
C1287 C 0.50499 0.93234 0.9771 0.0
C1288 C 0.55237 0.90252 0.99997 0.0
C1289 C 0.50676 0.96051 0.00669 0.0
C1290 C 0.51171 0.01354 0.01206 0.0
C1291 C 0.49622 0.03458 0.02419 0.0
C1292 C 0.4753 1.00055 0.03106 0.0
C1293 C 0.46965 0.94614 0.02567 0.0
C1294 C 0.48556 0.92619 0.01323 0.0
H1295 H 0.47065 0.35297 0.22236 0.0
H1296 H 0.38397 0.27854 0.23498 0.0
H1297 H 0.41944 0.22214 0.25587 0.0
H1298 H 0.522 0.2325 0.22764 0.0
H1299 H 0.55915 0.26804 0.2369 0.0
H1300 H 0.52731 0.30256 0.22243 0.0
H1301 H 0.52487 0.37719 0.24422 0.0
H1302 H 0.55678 0.34303 0.25874 0.0
H1303 H 0.51805 0.35818 0.26439 0.0
H1304 H 0.46268 0.17447 0.27529 0.0
H1305 H 0.51184 0.13987 0.29371 0.0
H1306 H 0.57307 0.244 0.26986 0.0
C1307 C 0.45912 0.32483 0.22952 0.0
C1308 C 0.4243 0.32044 0.22694 0.0
C1309 C 0.41039 0.28306 0.23666 0.0
C1310 C 0.43038 0.25057 0.24856 0.0
C1311 C 0.46438 0.25584 0.25076 0.0
C1312 C 0.47882 0.29216 0.24166 0.0
C1313 C 0.51619 0.2903 0.24704 0.0
C1314 C 0.5321 0.27227 0.23264 0.0
C1315 C 0.52977 0.34546 0.25401 0.0
C1316 C 0.52032 0.24728 0.26059 0.0
C1317 C 0.48992 0.22805 0.26233 0.0
C1318 C 0.48664 0.18904 0.27404 0.0
C1319 C 0.51503 0.16947 0.28447 0.0
C1320 C 0.54678 0.18863 0.2833 0.0
C1321 C 0.54937 0.22794 0.27102 0.0
H1322 H 0.41888 0.78854 0.74313 0.0
H1323 H 0.47462 0.8547 0.70834 0.0
H1324 H 0.52523 0.81663 0.72482 0.0
H1325 H 0.48162 0.81359 0.78008 0.0
H1326 H 0.47398 0.75161 0.7903 0.0
H1327 H 0.44117 0.78357 0.77574 0.0
H1328 H 0.43146 0.69441 0.75884 0.0
H1329 H 0.4643 0.66226 0.77334 0.0
H1330 H 0.46525 0.66355 0.75157 0.0
H1331 H 0.57009 0.77144 0.74438 0.0
H1332 H 0.60736 0.72381 0.7669 0.0
H1333 H 0.52469 0.68711 0.79006 0.0
C1334 C 0.44173 0.79509 0.73901 0.0
C1335 C 0.44241 0.82483 0.72433 0.0
C1336 C 0.47303 0.83229 0.71945 0.0
C1337 C 0.50214 0.81069 0.72875 0.0
C1338 C 0.50065 0.78163 0.74303 0.0
C1339 C 0.4714 0.77387 0.74826 0.0
C1340 C 0.47725 0.74128 0.7643 0.0
C1341 C 0.46795 0.77451 0.77844 0.0
C1342 C 0.45844 0.68716 0.76186 0.0
C1343 C 0.51423 0.73224 0.76714 0.0
C1344 C 0.52705 0.75572 0.75462 0.0
C1345 C 0.56041 0.75288 0.7543 0.0
C1346 C 0.58141 0.72554 0.76717 0.0
C1347 C 0.56915 0.70145 0.78033 0.0
C1348 C 0.53497 0.70494 0.78023 0.0
H1349 H 0.44973 0.49611 0.51774 0.0
H1350 H 0.50948 0.37112 0.54656 0.0
H1351 H 0.55607 0.39607 0.53381 0.0
H1352 H 0.48161 0.47961 0.48043 0.0
H1353 H 0.48119 0.55112 0.47577 0.0
H1354 H 0.45213 0.52356 0.4871 0.0
H1355 H 0.47199 0.59207 0.51085 0.0
H1356 H 0.50109 0.61986 0.49958 0.0
H1357 H 0.51507 0.59505 0.52041 0.0
H1358 H 0.59644 0.4333 0.51757 0.0
H1359 H 0.62779 0.48243 0.49967 0.0
H1360 H 0.54278 0.58465 0.48176 0.0
C1361 C 0.47259 0.47396 0.52137 0.0
C1362 C 0.4757 0.43145 0.53319 0.0
C1363 C 0.50624 0.40379 0.53758 0.0
C1364 C 0.53297 0.41763 0.53038 0.0
C1365 C 0.52909 0.4595 0.51878 0.0
C1366 C 0.49974 0.48749 0.51434 0.0
C1367 C 0.50234 0.53124 0.50166 0.0
C1368 C 0.47786 0.52073 0.48527 0.0
C1369 C 0.49733 0.58791 0.50854 0.0
C1370 C 0.53762 0.5233 0.49969 0.0
C1371 C 0.55258 0.48157 0.50963 0.0
C1372 C 0.585 0.46622 0.50978 0.0
C1373 C 0.60264 0.49435 0.49954 0.0
C1374 C 0.58796 0.53763 0.48933 0.0
C1375 C 0.55493 0.55203 0.48947 0.0
H1376 H 0.13883 0.78968 0.34681 0.0
H1377 H 0.07089 0.6789 0.36339 0.0
H1378 H 0.05949 0.74866 0.3831 0.0
H1379 H 0.17381 0.84096 0.38748 0.0
H1380 H 0.17953 0.90839 0.38005 0.0
H1381 H 0.18059 0.85076 0.36675 0.0
H1382 H 0.1347 0.89422 0.34448 0.0
H1383 H 0.13327 0.95179 0.35777 0.0
H1384 H 0.09638 0.91353 0.34992 0.0
H1385 H 0.05456 0.83301 0.40052 0.0
H1386 H 0.06154 0.91877 0.41645 0.0
H1387 H 0.13682 0.96969 0.39011 0.0
C1388 C 0.12175 0.77956 0.35462 0.0
C1389 C 0.10583 0.72845 0.35349 0.0
C1390 C 0.08347 0.71758 0.364 0.0
C1391 C 0.07675 0.75708 0.3752 0.0
C1392 C 0.093 0.80696 0.37596 0.0
C1393 C 0.11548 0.81779 0.36613 0.0
C1394 C 0.13114 0.87315 0.36991 0.0
C1395 C 0.16847 0.86799 0.37644 0.0
C1396 C 0.1234 0.91036 0.35461 0.0
C1397 C 0.11382 0.89219 0.38337 0.0
C1398 C 0.09151 0.85387 0.38651 0.0
C1399 C 0.07212 0.86305 0.39821 0.0
C1400 C 0.0761 0.91207 0.40713 0.0
C1401 C 0.09972 0.95095 0.40454 0.0
C1402 C 0.11861 0.94075 0.3924 0.0
H1403 H 0.11275 0.28714 0.42471 0.0
H1404 H 0.15944 0.17893 0.3949 0.0
H1405 H 0.16394 0.2547 0.37581 0.0
H1406 H 0.06492 0.36133 0.39082 0.0
H1407 H 0.06945 0.42518 0.40169 0.0
H1408 H 0.0708 0.3626 0.41311 0.0
H1409 H 0.12767 0.38954 0.43063 0.0
H1410 H 0.12665 0.45204 0.41916 0.0
H1411 H 0.16081 0.40606 0.42035 0.0
H1412 H 0.16248 0.34278 0.35962 0.0
H1413 H 0.15279 0.43392 0.34705 0.0
H1414 H 0.10717 0.48416 0.38755 0.0
C1415 C 0.12393 0.27911 0.41418 0.0
C1416 C 0.13567 0.2267 0.41135 0.0
C1417 C 0.15011 0.21845 0.39736 0.0
C1418 C 0.15291 0.26137 0.38646 0.0
C1419 C 0.14119 0.31247 0.38968 0.0
C1420 C 0.12685 0.32138 0.40316 0.0
C1421 C 0.11542 0.37969 0.40364 0.0
C1422 C 0.07793 0.38233 0.40223 0.0
C1423 C 0.13374 0.40853 0.41938 0.0
C1424 C 0.12539 0.40225 0.38826 0.0
C1425 C 0.14039 0.36294 0.38041 0.0
C1426 C 0.15091 0.37389 0.36571 0.0
C1427 C 0.14538 0.42594 0.35868 0.0
C1428 C 0.12939 0.4666 0.36631 0.0
C1429 C 0.11979 0.45443 0.38145 0.0
H1430 H 0.14516 0.28199 0.84732 0.0
H1431 H 0.07469 0.17696 0.86417 0.0
H1432 H 0.06404 0.24914 0.88325 0.0
H1433 H 0.18025 0.33433 0.88796 0.0
H1434 H 0.18759 0.4008 0.88031 0.0
H1435 H 0.18784 0.34216 0.86731 0.0
H1436 H 0.14339 0.38685 0.84458 0.0
H1437 H 0.14279 0.44545 0.85756 0.0
H1438 H 0.10524 0.409 0.84963 0.0
H1439 H 0.05986 0.33514 0.89988 0.0
H1440 H 0.06774 0.42183 0.91529 0.0
H1441 H 0.14565 0.4658 0.88981 0.0
C1442 C 0.12771 0.27363 0.85508 0.0
C1443 C 0.11087 0.22337 0.85419 0.0
C1444 C 0.088 0.2149 0.86459 0.0
C1445 C 0.08169 0.25581 0.87544 0.0
C1446 C 0.09891 0.30469 0.87602 0.0
C1447 C 0.12193 0.31326 0.86633 0.0
C1448 C 0.13866 0.36792 0.86999 0.0
C1449 C 0.17578 0.36087 0.8768 0.0
C1450 C 0.13212 0.40445 0.85452 0.0
C1451 C 0.12131 0.38911 0.8832 0.0
C1452 C 0.09803 0.35247 0.88629 0.0
C1453 C 0.07821 0.36384 0.89764 0.0
C1454 C 0.08272 0.41336 0.90627 0.0
C1455 C 0.10731 0.45053 0.90378 0.0
C1456 C 0.12673 0.43811 0.89202 0.0
H1457 H 0.11027 0.77534 0.91335 0.0
H1458 H 0.18937 0.67911 0.90092 0.0
H1459 H 0.20174 0.7532 0.88294 0.0
H1460 H 0.08254 0.83034 0.87185 0.0
H1461 H 0.07176 0.89525 0.87927 0.0
H1462 H 0.06975 0.83502 0.89143 0.0
H1463 H 0.10851 0.87991 0.91645 0.0
H1464 H 0.11091 0.94008 0.90431 0.0
H1465 H 0.14801 0.90522 0.91403 0.0
H1466 H 0.20754 0.84049 0.8675 0.0
H1467 H 0.20112 0.92816 0.85255 0.0
H1468 H 0.11527 0.96415 0.87308 0.0
C1469 C 0.13003 0.76951 0.90677 0.0
C1470 C 0.14895 0.72124 0.90869 0.0
C1471 C 0.1745 0.71552 0.89972 0.0
C1472 C 0.18183 0.75757 0.88952 0.0
C1473 C 0.16301 0.80483 0.88811 0.0
C1474 C 0.13716 0.81052 0.89621 0.0
C1475 C 0.11979 0.86444 0.89201 0.0
C1476 C 0.08383 0.85573 0.88311 0.0
C1477 C 0.12195 0.89947 0.90763 0.0
C1478 C 0.14011 0.88844 0.88042 0.0
C1479 C 0.16524 0.85377 0.87853 0.0
C1480 C 0.18778 0.86773 0.86878 0.0
C1481 C 0.18409 0.91782 0.86043 0.0
C1482 C 0.15772 0.95302 0.86164 0.0
C1483 C 0.13565 0.93807 0.87189 0.0
H1484 H 0.91587 0.26448 0.64898 0.0
H1485 H 0.82644 0.21658 0.66505 0.0
H1486 H 0.82411 0.13333 0.64922 0.0
H1487 H 0.89311 0.2059 0.60707 0.0
H1488 H 0.93394 0.18155 0.60684 0.0
H1489 H 0.92848 0.24077 0.6188 0.0
H1490 H 0.96273 0.19542 0.64508 0.0
H1491 H 0.96808 0.13588 0.63322 0.0
H1492 H 0.95058 0.12978 0.65145 0.0
H1493 H 0.8303 0.05459 0.63268 0.0
H1494 H 0.84485 0.98256 0.61498 0.0
H1495 H 0.93151 0.07358 0.6092 0.0
C1496 C 0.89557 0.23685 0.64891 0.0
C1497 C 0.871 0.24848 0.65815 0.0
C1498 C 0.84529 0.21022 0.65796 0.0
C1499 C 0.84376 0.16205 0.64903 0.0
C1500 C 0.86827 0.15152 0.64032 0.0
C1501 C 0.89374 0.18741 0.64006 0.0
C1502 C 0.91712 0.16395 0.6298 0.0
C1503 C 0.91822 0.20021 0.61473 0.0
C1504 C 0.95168 0.15578 0.64053 0.0
C1505 C 0.90059 0.10965 0.6245 0.0
C1506 C 0.87241 0.10393 0.63078 0.0
C1507 C 0.85232 0.05839 0.62765 0.0
C1508 C 0.86084 0.0176 0.61756 0.0
C1509 C 0.88935 0.02212 0.61071 0.0
C1510 C 0.90976 0.06864 0.61441 0.0
H1511 H 0.91203 0.51249 0.64238 0.0
H1512 H 0.81195 0.52622 0.64981 0.0
H1513 H 0.80567 0.61327 0.63444 0.0
H1514 H 0.93351 0.65317 0.6456 0.0
H1515 H 0.95631 0.65199 0.62918 0.0
H1516 H 0.95329 0.59149 0.64108 0.0
H1517 H 0.92953 0.53875 0.61412 0.0
H1518 H 0.93275 0.59897 0.60213 0.0
H1519 H 0.89376 0.56474 0.60009 0.0
H1520 H 0.81186 0.70256 0.61971 0.0
H1521 H 0.82703 0.77952 0.60349 0.0
H1522 H 0.92072 0.70224 0.60304 0.0
C1523 C 0.88877 0.5338 0.6407 0.0
C1524 C 0.86249 0.51276 0.64735 0.0
C1525 C 0.83233 0.54148 0.64476 0.0
C1526 C 0.82862 0.59112 0.63613 0.0
C1527 C 0.85507 0.61105 0.62984 0.0
C1528 C 0.88433 0.58266 0.6317 0.0
C1529 C 0.90837 0.61159 0.62303 0.0
C1530 C 0.93972 0.62803 0.63547 0.0
C1531 C 0.91657 0.57642 0.60901 0.0
C1532 C 0.88826 0.66098 0.6162 0.0
C1533 C 0.8578 0.66043 0.62048 0.0
C1534 C 0.83552 0.70299 0.61612 0.0
C1535 C 0.84442 0.74673 0.60694 0.0
C1536 C 0.87507 0.74722 0.60187 0.0
C1537 C 0.89714 0.70349 0.60665 0.0
H1538 H 0.92534 0.60842 0.11137 0.0
H1539 H 0.84225 0.50976 0.11804 0.0
H1540 H 0.8272 0.57874 0.13665 0.0
H1541 H 0.94583 0.66176 0.15378 0.0
H1542 H 0.95583 0.72877 0.14752 0.0
H1543 H 0.96155 0.67076 0.13511 0.0
H1544 H 0.92472 0.71568 0.10949 0.0
H1545 H 0.91871 0.77365 0.12185 0.0
H1546 H 0.88366 0.73693 0.11056 0.0
H1547 H 0.82033 0.65592 0.15414 0.0
H1548 H 0.82162 0.73887 0.17031 0.0
H1549 H 0.9076 0.79423 0.15241 0.0
C1550 C 0.90428 0.60115 0.11695 0.0
C1551 C 0.88506 0.55335 0.11328 0.0
C1552 C 0.85735 0.54583 0.12062 0.0
C1553 C 0.84857 0.58484 0.13123 0.0
C1554 C 0.86754 0.63166 0.13438 0.0
C1555 C 0.89483 0.64032 0.12755 0.0
C1556 C 0.91016 0.69543 0.13287 0.0
C1557 C 0.94544 0.68877 0.14292 0.0
C1558 C 0.90925 0.73262 0.11779 0.0
C1559 C 0.88714 0.716 0.14373 0.0
C1560 C 0.86291 0.67807 0.14436 0.0
C1561 C 0.83904 0.68615 0.15369 0.0
C1562 C 0.83997 0.73398 0.16282 0.0
C1563 C 0.86442 0.77415 0.16257 0.0
C1564 C 0.88829 0.76497 0.15273 0.0
H1565 H 0.91028 0.02224 0.1289 0.0
H1566 H 0.85013 0.06763 0.16405 0.0
H1567 H 0.84067 0.15776 0.15082 0.0
H1568 H 0.94969 0.14995 0.12844 0.0
H1569 H 0.95065 0.14815 0.10668 0.0
H1570 H 0.95085 0.08577 0.1181 0.0
H1571 H 0.89922 0.05294 0.09717 0.0
H1572 H 0.89903 0.11517 0.08565 0.0
H1573 H 0.8629 0.09491 0.09308 0.0
H1574 H 0.83948 0.24509 0.13432 0.0
H1575 H 0.84698 0.32171 0.11601 0.0
H1576 H 0.90869 0.21967 0.09206 0.0
C1577 C 0.89464 0.05076 0.13365 0.0
C1578 C 0.88075 0.0375 0.14747 0.0
C1579 C 0.86098 0.07659 0.15346 0.0
C1580 C 0.85543 0.128 0.14601 0.0
C1581 C 0.86989 0.14007 0.13259 0.0
C1582 C 0.88906 0.10252 0.12644 0.0
C1583 C 0.90293 0.12651 0.11233 0.0
C1584 C 0.94077 0.12766 0.11665 0.0
C1585 C 0.89025 0.09554 0.0961 0.0
C1586 C 0.88873 0.18338 0.11158 0.0
C1587 C 0.86961 0.19042 0.1233 0.0
C1588 C 0.85434 0.23992 0.12506 0.0
C1589 C 0.85878 0.28331 0.11461 0.0
C1590 C 0.87848 0.27714 0.10256 0.0
C1591 C 0.89347 0.22616 0.10109 0.0
H1592 H 0.5995 0.74092 0.86321 0.0
H1593 H 0.65888 0.80721 0.83006 0.0
H1594 H 0.65863 0.8958 0.84311 0.0
H1595 H 0.54995 0.86329 0.86487 0.0
H1596 H 0.5496 0.85643 0.88662 0.0
H1597 H 0.55258 0.79694 0.87429 0.0
H1598 H 0.60607 0.7685 0.8946 0.0
H1599 H 0.60308 0.82762 0.90703 0.0
H1600 H 0.63992 0.81564 0.89919 0.0
H1601 H 0.65498 0.97616 0.85981 0.0
H1602 H 0.65011 0.04449 0.88092 0.0
H1603 H 0.59284 0.93158 0.90398 0.0
C1604 C 0.61237 0.77412 0.8587 0.0
C1605 C 0.62911 0.7664 0.84548 0.0
C1606 C 0.64573 0.81123 0.84006 0.0
C1607 C 0.64569 0.86224 0.84737 0.0
C1608 C 0.62896 0.86859 0.86019 0.0
C1609 C 0.61273 0.82602 0.86597 0.0
C1610 C 0.59799 0.8445 0.88052 0.0
C1611 C 0.56028 0.84002 0.87632 0.0
C1612 C 0.61265 0.81214 0.89627 0.0
C1613 C 0.609 0.90362 0.88204 0.0
C1614 C 0.6266 0.91634 0.87002 0.0
C1615 C 0.64095 0.96705 0.86919 0.0
C1616 C 0.638 0.00564 0.88121 0.0
C1617 C 0.62069 0.99368 0.8939 0.0
C1618 C 0.60543 0.94227 0.89414 0.0
H1619 H 0.60686 0.30117 0.91158 0.0
H1620 H 0.69886 0.23263 0.90402 0.0
H1621 H 0.7076 0.31301 0.88755 0.0
H1622 H 0.58275 0.35472 0.86969 0.0
H1623 H 0.56319 0.41397 0.8761 0.0
H1624 H 0.5649 0.35201 0.88787 0.0
H1625 H 0.59304 0.40353 0.91435 0.0
H1626 H 0.59167 0.46558 0.90264 0.0
H1627 H 0.63037 0.44095 0.91437 0.0
H1628 H 0.70819 0.40413 0.87351 0.0
H1629 H 0.69638 0.49192 0.85895 0.0
H1630 H 0.60095 0.49686 0.87262 0.0
C1631 C 0.62881 0.30295 0.90646 0.0
C1632 C 0.6524 0.26065 0.90934 0.0
C1633 C 0.68052 0.26442 0.90212 0.0
C1634 C 0.68576 0.31013 0.89278 0.0
C1635 C 0.66226 0.35134 0.89036 0.0
C1636 C 0.63393 0.34758 0.89665 0.0
C1637 C 0.61165 0.39611 0.89141 0.0
C1638 C 0.57867 0.37812 0.88062 0.0
C1639 C 0.60638 0.42845 0.9066 0.0
C1640 C 0.63206 0.42806 0.88136 0.0
C1641 C 0.66146 0.40195 0.8812 0.0
C1642 C 0.68508 0.42459 0.87338 0.0
C1643 C 0.67826 0.47467 0.86524 0.0
C1644 C 0.64777 0.50112 0.86464 0.0
C1645 C 0.62441 0.47739 0.87283 0.0
H1646 H 0.63416 0.30802 0.34363 0.0
H1647 H 0.56242 0.20552 0.36044 0.0
H1648 H 0.55037 0.28018 0.37838 0.0
H1649 H 0.66689 0.36505 0.38365 0.0
H1650 H 0.67458 0.4305 0.37542 0.0
H1651 H 0.6755 0.37036 0.36313 0.0
H1652 H 0.63188 0.41273 0.33952 0.0
H1653 H 0.63058 0.47282 0.3518 0.0
H1654 H 0.59328 0.43573 0.34383 0.0
H1655 H 0.54586 0.36768 0.3943 0.0
H1656 H 0.55409 0.4548 0.40941 0.0
H1657 H 0.6326 0.49597 0.38397 0.0
C1658 C 0.61606 0.30079 0.35112 0.0
C1659 C 0.59935 0.25049 0.3506 0.0
C1660 C 0.57566 0.24346 0.36061 0.0
C1661 C 0.56854 0.28579 0.3708 0.0
C1662 C 0.58567 0.33468 0.37104 0.0
C1663 C 0.60935 0.34191 0.36166 0.0
C1664 C 0.62592 0.3968 0.36492 0.0
C1665 C 0.66291 0.39027 0.37222 0.0
C1666 C 0.62005 0.43157 0.34907 0.0
C1667 C 0.60782 0.41962 0.3776 0.0
C1668 C 0.58429 0.3836 0.38076 0.0
C1669 C 0.5643 0.39602 0.39194 0.0
C1670 C 0.56902 0.44585 0.40039 0.0
C1671 C 0.59394 0.48236 0.39787 0.0
C1672 C 0.61329 0.46904 0.38616 0.0
H1673 H 0.65507 0.72937 0.39528 0.0
H1674 H 0.61173 0.80556 0.43333 0.0
H1675 H 0.61151 0.89304 0.41932 0.0
H1676 H 0.70838 0.84392 0.39047 0.0
H1677 H 0.70346 0.83604 0.36836 0.0
H1678 H 0.70036 0.77777 0.38121 0.0
H1679 H 0.64263 0.75631 0.36364 0.0
H1680 H 0.64564 0.81431 0.35071 0.0
H1681 H 0.6112 0.80791 0.36082 0.0
H1682 H 0.61253 0.97157 0.40091 0.0
H1683 H 0.61664 0.03816 0.37903 0.0
H1684 H 0.66289 0.91677 0.35333 0.0
C1685 C 0.64544 0.76442 0.40061 0.0
C1686 C 0.63296 0.75975 0.41537 0.0
C1687 C 0.62103 0.80712 0.42199 0.0
C1688 C 0.62092 0.85748 0.41415 0.0
C1689 C 0.63327 0.86072 0.39974 0.0
C1690 C 0.64553 0.81578 0.39301 0.0
C1691 C 0.65743 0.83145 0.37734 0.0
C1692 C 0.69462 0.82171 0.37948 0.0
C1693 C 0.63807 0.80066 0.36223 0.0
C1694 C 0.64941 0.89185 0.37627 0.0
C1695 C 0.6354 0.90752 0.38937 0.0
C1696 C 0.62395 0.96012 0.39073 0.0
C1697 C 0.62643 0.99769 0.37828 0.0
C1698 C 0.64074 0.98297 0.36475 0.0
C1699 C 0.65277 0.92948 0.36384 0.0
H1700 H 0.34282 0.23645 0.16754 0.0
H1701 H 0.40498 0.3389 0.14388 0.0
H1702 H 0.40978 0.2644 0.12439 0.0
H1703 H 0.38634 0.112 0.16492 0.0
H1704 H 0.3496 0.07101 0.16099 0.0
H1705 H 0.35086 0.13255 0.17287 0.0
H1706 H 0.29912 0.16798 0.15259 0.0
H1707 H 0.29756 0.1065 0.14067 0.0
H1708 H 0.29908 0.17139 0.13073 0.0
H1709 H 0.40691 0.1782 0.10713 0.0
H1710 H 0.39693 0.08848 0.09371 0.0
H1711 H 0.33778 0.04209 0.12926 0.0
C1712 C 0.35744 0.24359 0.15826 0.0
C1713 C 0.37343 0.294 0.15727 0.0
C1714 C 0.39238 0.30095 0.14492 0.0
C1715 C 0.3953 0.25876 0.1338 0.0
C1716 C 0.37927 0.20965 0.1352 0.0
C1717 C 0.36076 0.20195 0.14716 0.0
C1718 C 0.34602 0.1454 0.14616 0.0
C1719 C 0.35899 0.11335 0.16219 0.0
C1720 C 0.3082 0.14799 0.1423 0.0
C1721 C 0.35899 0.12231 0.13169 0.0
C1722 C 0.37809 0.16002 0.12552 0.0
C1723 C 0.39212 0.14838 0.11192 0.0
C1724 C 0.3863 0.09719 0.10438 0.0
C1725 C 0.36671 0.05788 0.11044 0.0
C1726 C 0.35315 0.07082 0.12439 0.0
H1727 H 0.41209 0.54121 0.12799 0.0
H1728 H 0.35226 0.58737 0.16321 0.0
H1729 H 0.34272 0.67731 0.1498 0.0
H1730 H 0.45134 0.6694 0.12699 0.0
H1731 H 0.45197 0.66649 0.1052 0.0
H1732 H 0.45262 0.60469 0.11695 0.0
H1733 H 0.4009 0.57042 0.09637 0.0
H1734 H 0.40026 0.63203 0.08451 0.0
H1735 H 0.3644 0.61194 0.09221 0.0
H1736 H 0.3407 0.76392 0.13271 0.0
H1737 H 0.34659 0.83895 0.11354 0.0
H1738 H 0.4089 0.73647 0.09008 0.0
C1739 C 0.3966 0.56989 0.13276 0.0
C1740 C 0.38274 0.55685 0.14662 0.0
C1741 C 0.36307 0.59614 0.15259 0.0
C1742 C 0.35751 0.64745 0.14505 0.0
C1743 C 0.37188 0.65921 0.13156 0.0
C1744 C 0.39101 0.62148 0.12547 0.0
C1745 C 0.40452 0.64482 0.11116 0.0
C1746 C 0.44235 0.64644 0.11533 0.0
C1747 C 0.39175 0.6129 0.09511 0.0
C1748 C 0.39008 0.70153 0.11018 0.0
C1749 C 0.37122 0.70908 0.12199 0.0
C1750 C 0.35544 0.75836 0.12342 0.0
C1751 C 0.35898 0.80086 0.11247 0.0
C1752 C 0.3783 0.79406 0.10028 0.0
C1753 C 0.39401 0.74347 0.09925 0.0
H1754 H 0.34768 0.71157 0.67101 0.0
H1755 H 0.39701 0.82517 0.64389 0.0
H1756 H 0.40306 0.75266 0.62407 0.0
H1757 H 0.39644 0.59432 0.66606 0.0
H1758 H 0.3622 0.54793 0.66356 0.0
H1759 H 0.36215 0.60857 0.67574 0.0
H1760 H 0.30625 0.63705 0.65753 0.0
H1761 H 0.30601 0.57636 0.64536 0.0
H1762 H 0.30221 0.64185 0.63538 0.0
H1763 H 0.40351 0.66719 0.607 0.0
H1764 H 0.39634 0.57739 0.5935 0.0
H1765 H 0.34624 0.51975 0.63161 0.0
C1766 C 0.35975 0.72145 0.66091 0.0
C1767 C 0.3718 0.77448 0.65907 0.0
C1768 C 0.38742 0.78517 0.64561 0.0
C1769 C 0.39108 0.7441 0.63429 0.0
C1770 C 0.37897 0.69238 0.63651 0.0
C1771 C 0.36348 0.68104 0.64946 0.0
C1772 C 0.35205 0.62244 0.6489 0.0
C1773 C 0.36924 0.5915 0.66449 0.0
C1774 C 0.3144 0.61926 0.64665 0.0
C1775 C 0.36345 0.6025 0.63358 0.0
C1776 C 0.37907 0.64341 0.62667 0.0
C1777 C 0.39136 0.63489 0.61234 0.0
C1778 C 0.38722 0.58356 0.60477 0.0
C1779 C 0.37081 0.54114 0.61147 0.0
C1780 C 0.35908 0.55098 0.62618 0.0
H1781 H 0.3903 0.21089 0.58781 0.0
H1782 H 0.34203 0.32658 0.61461 0.0
H1783 H 0.33094 0.25244 0.63314 0.0
H1784 H 0.33577 0.09788 0.58983 0.0
H1785 H 0.36856 0.04874 0.59228 0.0
H1786 H 0.37136 0.11062 0.58098 0.0
H1787 H 0.42723 0.13279 0.6003 0.0
H1788 H 0.42477 0.07095 0.61163 0.0
H1789 H 0.42993 0.13494 0.62241 0.0
H1790 H 0.32847 0.16453 0.64985 0.0
H1791 H 0.33452 0.07327 0.66275 0.0
H1792 H 0.38291 0.01695 0.62394 0.0
C1793 C 0.3772 0.22104 0.59749 0.0
C1794 C 0.36713 0.27494 0.59972 0.0
C1795 C 0.35003 0.28576 0.6126 0.0
C1796 C 0.3436 0.24383 0.62318 0.0
C1797 C 0.35414 0.19123 0.62062 0.0
C1798 C 0.37046 0.17993 0.608 0.0
C1799 C 0.3801 0.12072 0.60794 0.0
C1800 C 0.36291 0.09286 0.5918 0.0
C1801 C 0.41773 0.11451 0.61074 0.0
C1802 C 0.36701 0.10013 0.62265 0.0
C1803 C 0.35208 0.14121 0.62985 0.0
C1804 C 0.33975 0.13205 0.64416 0.0
C1805 C 0.34324 0.07999 0.65139 0.0
C1806 C 0.3588 0.03753 0.64427 0.0
C1807 C 0.3703 0.04797 0.62956 0.0
loop_
_geom_bond_atom_site_label_1
_geom_bond_atom_site_label_2
_geom_bond_distance
_geom_bond_site_symmetry_2
_ccdc_geom_bond_type
Co0 O2 2.143 . S
Co0 O8 2.074 . S
Co0 O11 2.093 . S
Co0 O24 2.097 . S
Co0 N41 2.151 . S
Co0 N49 2.214 . S
Co1 O2 2.160 . S
Co1 O7 2.058 . S
Co1 O17 2.057 . S
Co1 O32 2.037 . S
Co1 N36 2.145 . S
Co1 N57 2.257 . S
O2 Co0 2.143 . S
O2 Co1 2.160 . S
C3 O4 1.278 1_565 S
C3 O11 1.224 1_565 S
O4 C3 1.278 1_545 S
C5 O6 1.245 . S
C5 O17 1.232 . S
O6 C5 1.245 . S
O7 Co1 2.058 . S
O7 C33 1.269 . S
O8 Co0 2.074 . S
O8 C33 1.257 . S
H9 C34 0.930 . S
H10 C40 0.930 . S
O11 Co0 2.093 . S
O11 C3 1.224 1_545 S
H12 C44 0.929 . S
H13 C46 0.930 . S
H14 C47 0.930 . S
H15 C45 0.929 . S
H16 C48 0.928 . S
O17 Co1 2.057 . S
O17 C5 1.232 . S
H18 C37 0.929 . S
H19 C38 0.929 . S
H20 C50 0.931 . S
H21 C42 0.929 . S
H22 C51 0.930 . S
H23 C43 0.931 . S
O24 Co0 2.097 . S
O24 C52 1.214 . S
H25 C53 0.929 1_655 S
H26 C54 0.929 . S
H27 C55 0.930 . S
H28 C56 0.929 . S
H29 C58 0.930 . S
H30 C35 0.930 . S
H31 C39 0.930 . S
O32 Co1 2.037 . S
O32 C52 1.234 . S
C33 O7 1.269 . S
C33 O8 1.257 . S
C34 H9 0.930 . S
C34 C37 1.388 . S
C34 C39 1.418 . S
C35 H30 0.930 . S
C35 C38 1.404 . S
C35 C39 1.353 . S
N36 Co1 2.145 . S
N36 C37 1.397 . S
N36 C38 1.334 . S
C37 H18 0.929 . S
C37 C34 1.388 . S
C37 N36 1.397 . S
C38 H19 0.929 . S
C38 C35 1.404 . S
C38 N36 1.334 . S
C39 H31 0.930 . S
C39 C34 1.418 . S
C39 C35 1.353 . S
C40 H10 0.930 . S
C40 N41 1.330 1_565 S
C40 C42 1.446 . S
N41 Co0 2.151 . S
N41 C40 1.330 1_545 S
N41 C45 1.418 . S
C42 H21 0.929 . S
C42 C40 1.446 . S
C42 C43 1.332 . S
C43 H23 0.931 . S
C43 C42 1.332 . S
C43 C44 1.267 . S
C44 H12 0.929 . S
C44 C43 1.267 . S
C44 C45 1.251 1_565 S
C45 H15 0.929 . S
C45 N41 1.418 . S
C45 C44 1.251 1_545 S
C46 H13 0.930 . S
C46 C48 1.406 . S
C46 C51 1.261 . S
C47 H14 0.930 . S
C47 N49 1.325 . S
C47 C50 1.357 . S
C48 H16 0.928 . S
C48 C46 1.406 . S
C48 N49 1.261 . S
N49 Co0 2.214 . S
N49 C47 1.325 . S
N49 C48 1.261 . S
C50 H20 0.931 . S
C50 C47 1.357 . S
C50 C51 1.312 . S
C51 H22 0.930 . S
C51 C46 1.261 . S
C51 C50 1.312 . S
C52 O24 1.214 . S
C52 O32 1.234 . S
C53 H25 0.929 1_455 S
C53 C56 1.391 1_455 S
C53 C58 1.391 . S
C54 H26 0.929 . S
C54 C55 1.390 . S
C54 N57 1.391 . S
C55 H27 0.930 . S
C55 C54 1.390 . S
C55 C56 1.392 1_455 S
C56 H28 0.929 . S
C56 C53 1.391 1_655 S
C56 C55 1.392 1_655 S
N57 Co1 2.257 . S
N57 C54 1.391 . S
N57 C58 1.388 . S
C58 H29 0.930 . S
C58 C53 1.391 . S
C58 N57 1.388 . S
Co59 O61 2.143 . S
Co59 O67 2.074 . S
Co59 O70 2.093 . S
Co59 O83 2.097 . S
Co59 N100 2.151 . S
Co59 N108 2.214 . S
Co60 O61 2.160 . S
Co60 O66 2.058 . S
Co60 O76 2.057 . S
Co60 O91 2.037 . S
Co60 N95 2.145 . S
Co60 N116 2.257 . S
O61 Co59 2.143 . S
O61 Co60 2.160 . S
C62 O63 1.278 1_565 S
C62 O70 1.224 1_565 S
O63 C62 1.278 1_545 S
C64 O65 1.245 . S
C64 O76 1.232 . S
O65 C64 1.245 . S
O66 Co60 2.058 . S
O66 C92 1.269 . S
O67 Co59 2.074 . S
O67 C92 1.257 . S
H68 C93 0.930 . S
H69 C99 0.930 . S
O70 Co59 2.093 . S
O70 C62 1.224 1_545 S
H71 C103 0.929 1_655 S
H72 C105 0.930 . S
H73 C106 0.930 . S
H74 C104 0.929 . S
H75 C107 0.928 . S
O76 Co60 2.057 . S
O76 C64 1.232 . S
H77 C96 0.929 . S
H78 C97 0.929 . S
H79 C109 0.931 1_655 S
H80 C101 0.929 . S
H81 C110 0.930 . S
H82 C102 0.931 . S
O83 Co59 2.097 . S
O83 C111 1.214 . S
H84 C112 0.929 . S
H85 C113 0.929 . S
H86 C114 0.930 . S
H87 C115 0.929 . S
H88 C117 0.930 . S
H89 C94 0.930 . S
H90 C98 0.930 . S
O91 Co60 2.037 . S
O91 C111 1.234 . S
C92 O66 1.269 . S
C92 O67 1.257 . S
C93 H68 0.930 . S
C93 C96 1.388 . S
C93 C98 1.418 . S
C94 H89 0.930 . S
C94 C97 1.404 . S
C94 C98 1.353 . S
N95 Co60 2.145 . S
N95 C96 1.397 . S
N95 C97 1.334 . S
C96 H77 0.929 . S
C96 C93 1.388 . S
C96 N95 1.397 . S
C97 H78 0.929 . S
C97 C94 1.404 . S
C97 N95 1.334 . S
C98 H90 0.930 . S
C98 C93 1.418 . S
C98 C94 1.353 . S
C99 H69 0.930 . S
C99 N100 1.330 1_565 S
C99 C101 1.446 . S
N100 Co59 2.151 . S
N100 C99 1.330 1_545 S
N100 C104 1.418 . S
C101 H80 0.929 . S
C101 C99 1.446 . S
C101 C102 1.332 . S
C102 H82 0.931 . S
C102 C101 1.332 . S
C102 C103 1.267 . S
C103 H71 0.929 1_455 S
C103 C102 1.267 . S
C103 C104 1.251 1_565 S
C104 H74 0.929 . S
C104 N100 1.418 . S
C104 C103 1.251 1_545 S
C105 H72 0.930 . S
C105 C107 1.406 1_655 S
C105 C110 1.261 . S
C106 H73 0.930 . S
C106 N108 1.325 . S
C106 C109 1.357 . S
C107 H75 0.928 . S
C107 C105 1.406 1_455 S
C107 N108 1.261 . S
N108 Co59 2.214 . S
N108 C106 1.325 . S
N108 C107 1.261 . S
C109 H79 0.931 1_455 S
C109 C106 1.357 . S
C109 C110 1.312 1_455 S
C110 H81 0.930 . S
C110 C105 1.261 . S
C110 C109 1.312 1_655 S
C111 O83 1.214 . S
C111 O91 1.234 . S
C112 H84 0.929 . S
C112 C115 1.391 . S
C112 C117 1.391 . S
C113 H85 0.929 . S
C113 C114 1.390 . S
C113 N116 1.391 . S
C114 H86 0.930 . S
C114 C113 1.390 . S
C114 C115 1.392 . S
C115 H87 0.929 . S
C115 C112 1.391 . S
C115 C114 1.392 . S
N116 Co60 2.257 . S
N116 C113 1.391 . S
N116 C117 1.388 . S
C117 H88 0.930 . S
C117 C112 1.391 . S
C117 N116 1.388 . S
Co118 O120 2.143 . S
Co118 O126 2.074 . S
Co118 O129 2.093 . S
Co118 O142 2.097 . S
Co118 N159 2.151 . S
Co118 N167 2.214 . S
Co119 O120 2.160 . S
Co119 O125 2.058 . S
Co119 O135 2.057 . S
Co119 O150 2.037 . S
Co119 N154 2.145 . S
Co119 N175 2.257 . S
O120 Co118 2.143 . S
O120 Co119 2.160 . S
C121 O122 1.278 1_545 S
C121 O129 1.224 1_545 S
O122 C121 1.278 1_565 S
C123 O124 1.245 . S
C123 O135 1.232 . S
O124 C123 1.245 . S
O125 Co119 2.058 . S
O125 C151 1.269 . S
O126 Co118 2.074 . S
O126 C151 1.257 . S
H127 C152 0.930 . S
H128 C158 0.930 . S
O129 Co118 2.093 . S
O129 C121 1.224 1_565 S
H130 C162 0.929 . S
H131 C164 0.930 . S
H132 C165 0.930 . S
H133 C163 0.929 . S
H134 C166 0.928 . S
O135 Co119 2.057 . S
O135 C123 1.232 . S
H136 C155 0.929 . S
H137 C156 0.929 . S
H138 C168 0.931 . S
H139 C160 0.929 . S
H140 C169 0.930 . S
H141 C161 0.931 . S
O142 Co118 2.097 . S
O142 C170 1.214 . S
H143 C171 0.929 1_455 S
H144 C172 0.929 . S
H145 C173 0.930 . S
H146 C174 0.929 . S
H147 C176 0.930 . S
H148 C153 0.930 . S
H149 C157 0.930 . S
O150 Co119 2.037 . S
O150 C170 1.234 . S
C151 O125 1.269 . S
C151 O126 1.257 . S
C152 H127 0.930 . S
C152 C155 1.388 . S
C152 C157 1.418 . S
C153 H148 0.930 . S
C153 C156 1.404 . S
C153 C157 1.353 . S
N154 Co119 2.145 . S
N154 C155 1.397 . S
N154 C156 1.334 . S
C155 H136 0.929 . S
C155 C152 1.388 . S
C155 N154 1.397 . S
C156 H137 0.929 . S
C156 C153 1.404 . S
C156 N154 1.334 . S
C157 H149 0.930 . S
C157 C152 1.418 . S
C157 C153 1.353 . S
C158 H128 0.930 . S
C158 N159 1.330 1_545 S
C158 C160 1.446 . S
N159 Co118 2.151 . S
N159 C158 1.330 1_565 S
N159 C163 1.418 . S
C160 H139 0.929 . S
C160 C158 1.446 . S
C160 C161 1.332 . S
C161 H141 0.931 . S
C161 C160 1.332 . S
C161 C162 1.267 . S
C162 H130 0.929 . S
C162 C161 1.267 . S
C162 C163 1.251 1_545 S
C163 H133 0.929 . S
C163 N159 1.418 . S
C163 C162 1.251 1_565 S
C164 H131 0.930 . S
C164 C166 1.406 . S
C164 C169 1.261 . S
C165 H132 0.930 . S
C165 N167 1.325 . S
C165 C168 1.357 . S
C166 H134 0.928 . S
C166 C164 1.406 . S
C166 N167 1.261 . S
N167 Co118 2.214 . S
N167 C165 1.325 . S
N167 C166 1.261 . S
C168 H138 0.931 . S
C168 C165 1.357 . S
C168 C169 1.312 . S
C169 H140 0.930 . S
C169 C164 1.261 . S
C169 C168 1.312 . S
C170 O142 1.214 . S
C170 O150 1.234 . S
C171 H143 0.929 1_655 S
C171 C174 1.391 1_655 S
C171 C176 1.391 . S
C172 H144 0.929 . S
C172 C173 1.390 . S
C172 N175 1.391 . S
C173 H145 0.930 . S
C173 C172 1.390 . S
C173 C174 1.392 1_655 S
C174 H146 0.929 . S
C174 C171 1.391 1_455 S
C174 C173 1.392 1_455 S
N175 Co119 2.257 . S
N175 C172 1.391 . S
N175 C176 1.388 . S
C176 H147 0.930 . S
C176 C171 1.391 . S
C176 N175 1.388 . S
Co177 O179 2.143 . S
Co177 O185 2.074 . S
Co177 O188 2.093 . S
Co177 O201 2.097 . S
Co177 N218 2.151 . S
Co177 N226 2.214 . S
Co178 O179 2.160 . S
Co178 O184 2.058 . S
Co178 O194 2.057 . S
Co178 O209 2.037 . S
Co178 N213 2.145 . S
Co178 N234 2.257 . S
O179 Co177 2.143 . S
O179 Co178 2.160 . S
C180 O181 1.278 1_545 S
C180 O188 1.224 1_545 S
O181 C180 1.278 1_565 S
C182 O183 1.245 . S
C182 O194 1.232 . S
O183 C182 1.245 . S
O184 Co178 2.058 . S
O184 C210 1.269 . S
O185 Co177 2.074 . S
O185 C210 1.257 . S
H186 C211 0.930 . S
H187 C217 0.930 . S
O188 Co177 2.093 . S
O188 C180 1.224 1_565 S
H189 C221 0.929 1_455 S
H190 C223 0.930 . S
H191 C224 0.930 . S
H192 C222 0.929 . S
H193 C225 0.928 . S
O194 Co178 2.057 . S
O194 C182 1.232 . S
H195 C214 0.929 . S
H196 C215 0.929 . S
H197 C227 0.931 1_455 S
H198 C219 0.929 . S
H199 C228 0.930 . S
H200 C220 0.931 . S
O201 Co177 2.097 . S
O201 C229 1.214 . S
H202 C230 0.929 . S
H203 C231 0.929 . S
H204 C232 0.930 . S
H205 C233 0.929 . S
H206 C235 0.930 . S
H207 C212 0.930 . S
H208 C216 0.930 . S
O209 Co178 2.037 . S
O209 C229 1.234 . S
C210 O184 1.269 . S
C210 O185 1.257 . S
C211 H186 0.930 . S
C211 C214 1.388 . S
C211 C216 1.418 . S
C212 H207 0.930 . S
C212 C215 1.404 . S
C212 C216 1.353 . S
N213 Co178 2.145 . S
N213 C214 1.397 . S
N213 C215 1.334 . S
C214 H195 0.929 . S
C214 C211 1.388 . S
C214 N213 1.397 . S
C215 H196 0.929 . S
C215 C212 1.404 . S
C215 N213 1.334 . S
C216 H208 0.930 . S
C216 C211 1.418 . S
C216 C212 1.353 . S
C217 H187 0.930 . S
C217 N218 1.330 1_545 S
C217 C219 1.446 . S
N218 Co177 2.151 . S
N218 C217 1.330 1_565 S
N218 C222 1.418 . S
C219 H198 0.929 . S
C219 C217 1.446 . S
C219 C220 1.332 . S
C220 H200 0.931 . S
C220 C219 1.332 . S
C220 C221 1.267 . S
C221 H189 0.929 1_655 S
C221 C220 1.267 . S
C221 C222 1.251 1_545 S
C222 H192 0.929 . S
C222 N218 1.418 . S
C222 C221 1.251 1_565 S
C223 H190 0.930 . S
C223 C225 1.406 1_455 S
C223 C228 1.261 . S
C224 H191 0.930 . S
C224 N226 1.325 . S
C224 C227 1.357 . S
C225 H193 0.928 . S
C225 C223 1.406 1_655 S
C225 N226 1.261 . S
N226 Co177 2.214 . S
N226 C224 1.325 . S
N226 C225 1.261 . S
C227 H197 0.931 1_655 S
C227 C224 1.357 . S
C227 C228 1.312 1_655 S
C228 H199 0.930 . S
C228 C223 1.261 . S
C228 C227 1.312 1_455 S
C229 O201 1.214 . S
C229 O209 1.234 . S
C230 H202 0.929 . S
C230 C233 1.391 . S
C230 C235 1.391 . S
C231 H203 0.929 . S
C231 C232 1.390 . S
C231 N234 1.391 . S
C232 H204 0.930 . S
C232 C231 1.390 . S
C232 C233 1.392 . S
C233 H205 0.929 . S
C233 C230 1.391 . S
C233 C232 1.392 . S
N234 Co178 2.257 . S
N234 C231 1.391 . S
N234 C235 1.388 . S
C235 H206 0.930 . S
C235 C230 1.391 . S
C235 N234 1.388 . S
Co236 O238 2.143 . S
Co236 O244 2.074 . S
Co236 O247 2.093 . S
Co236 O260 2.097 . S
Co236 N277 2.151 . S
Co236 N285 2.214 . S
Co237 O238 2.160 . S
Co237 O243 2.058 . S
Co237 O253 2.057 . S
Co237 O268 2.037 . S
Co237 N272 2.145 . S
Co237 N293 2.257 . S
O238 Co236 2.143 . S
O238 Co237 2.160 . S
C239 O240 1.278 . S
C239 O247 1.224 . S
O240 C239 1.278 . S
C241 O242 1.245 . S
C241 O253 1.232 . S
O242 C241 1.245 . S
O243 Co237 2.058 . S
O243 C269 1.269 . S
O244 Co236 2.074 . S
O244 C269 1.257 . S
H245 C270 0.930 . S
H246 C276 0.930 . S
O247 Co236 2.093 . S
O247 C239 1.224 . S
H248 C280 0.929 . S
H249 C282 0.930 . S
H250 C283 0.930 . S
H251 C281 0.929 . S
H252 C284 0.928 . S
O253 Co237 2.057 . S
O253 C241 1.232 . S
H254 C273 0.929 . S
H255 C274 0.929 . S
H256 C286 0.931 . S
H257 C278 0.929 . S
H258 C287 0.930 . S
H259 C279 0.931 . S
O260 Co236 2.097 . S
O260 C288 1.214 . S
H261 C289 0.929 1_655 S
H262 C290 0.929 . S
H263 C291 0.930 . S
H264 C292 0.929 . S
H265 C294 0.930 . S
H266 C271 0.930 . S
H267 C275 0.930 . S
O268 Co237 2.037 . S
O268 C288 1.234 . S
C269 O243 1.269 . S
C269 O244 1.257 . S
C270 H245 0.930 . S
C270 C273 1.388 . S
C270 C275 1.418 . S
C271 H266 0.930 . S
C271 C274 1.404 . S
C271 C275 1.353 . S
N272 Co237 2.145 . S
N272 C273 1.397 . S
N272 C274 1.334 . S
C273 H254 0.929 . S
C273 C270 1.388 . S
C273 N272 1.397 . S
C274 H255 0.929 . S
C274 C271 1.404 . S
C274 N272 1.334 . S
C275 H267 0.930 . S
C275 C270 1.418 . S
C275 C271 1.353 . S
C276 H246 0.930 . S
C276 N277 1.330 . S
C276 C278 1.446 . S
N277 Co236 2.151 . S
N277 C276 1.330 . S
N277 C281 1.418 . S
C278 H257 0.929 . S
C278 C276 1.446 . S
C278 C279 1.332 . S
C279 H259 0.931 . S
C279 C278 1.332 . S
C279 C280 1.267 . S
C280 H248 0.929 . S
C280 C279 1.267 . S
C280 C281 1.251 . S
C281 H251 0.929 . S
C281 N277 1.418 . S
C281 C280 1.251 . S
C282 H249 0.930 . S
C282 C284 1.406 . S
C282 C287 1.261 . S
C283 H250 0.930 . S
C283 N285 1.325 . S
C283 C286 1.357 . S
C284 H252 0.928 . S
C284 C282 1.406 . S
C284 N285 1.261 . S
N285 Co236 2.214 . S
N285 C283 1.325 . S
N285 C284 1.261 . S
C286 H256 0.931 . S
C286 C283 1.357 . S
C286 C287 1.312 . S
C287 H258 0.930 . S
C287 C282 1.261 . S
C287 C286 1.312 . S
C288 O260 1.214 . S
C288 O268 1.234 . S
C289 H261 0.929 1_455 S
C289 C292 1.391 1_455 S
C289 C294 1.391 . S
C290 H262 0.929 . S
C290 C291 1.390 . S
C290 N293 1.391 . S
C291 H263 0.930 . S
C291 C290 1.390 . S
C291 C292 1.392 1_455 S
C292 H264 0.929 . S
C292 C289 1.391 1_655 S
C292 C291 1.392 1_655 S
N293 Co237 2.257 . S
N293 C290 1.391 . S
N293 C294 1.388 . S
C294 H265 0.930 . S
C294 C289 1.391 . S
C294 N293 1.388 . S
Co295 O297 2.143 . S
Co295 O303 2.074 . S
Co295 O306 2.093 . S
Co295 O319 2.097 . S
Co295 N336 2.151 . S
Co295 N344 2.214 . S
Co296 O297 2.160 . S
Co296 O302 2.058 . S
Co296 O312 2.057 . S
Co296 O327 2.037 . S
Co296 N331 2.145 . S
Co296 N352 2.257 . S
O297 Co295 2.143 . S
O297 Co296 2.160 . S
C298 O299 1.278 . S
C298 O306 1.224 . S
O299 C298 1.278 . S
C300 O301 1.245 . S
C300 O312 1.232 . S
O301 C300 1.245 . S
O302 Co296 2.058 . S
O302 C328 1.269 . S
O303 Co295 2.074 . S
O303 C328 1.257 . S
H304 C329 0.930 . S
H305 C335 0.930 . S
O306 Co295 2.093 . S
O306 C298 1.224 . S
H307 C339 0.929 1_655 S
H308 C341 0.930 . S
H309 C342 0.930 . S
H310 C340 0.929 . S
H311 C343 0.928 . S
O312 Co296 2.057 . S
O312 C300 1.232 . S
H313 C332 0.929 . S
H314 C333 0.929 . S
H315 C345 0.931 1_655 S
H316 C337 0.929 . S
H317 C346 0.930 . S
H318 C338 0.931 . S
O319 Co295 2.097 . S
O319 C347 1.214 . S
H320 C348 0.929 . S
H321 C349 0.929 . S
H322 C350 0.930 . S
H323 C351 0.929 . S
H324 C353 0.930 . S
H325 C330 0.930 . S
H326 C334 0.930 . S
O327 Co296 2.037 . S
O327 C347 1.234 . S
C328 O302 1.269 . S
C328 O303 1.257 . S
C329 H304 0.930 . S
C329 C332 1.388 . S
C329 C334 1.418 . S
C330 H325 0.930 . S
C330 C333 1.404 . S
C330 C334 1.353 . S
N331 Co296 2.145 . S
N331 C332 1.397 . S
N331 C333 1.334 . S
C332 H313 0.929 . S
C332 C329 1.388 . S
C332 N331 1.397 . S
C333 H314 0.929 . S
C333 C330 1.404 . S
C333 N331 1.334 . S
C334 H326 0.930 . S
C334 C329 1.418 . S
C334 C330 1.353 . S
C335 H305 0.930 . S
C335 N336 1.330 . S
C335 C337 1.446 . S
N336 Co295 2.151 . S
N336 C335 1.330 . S
N336 C340 1.418 . S
C337 H316 0.929 . S
C337 C335 1.446 . S
C337 C338 1.332 . S
C338 H318 0.931 . S
C338 C337 1.332 . S
C338 C339 1.267 . S
C339 H307 0.929 1_455 S
C339 C338 1.267 . S
C339 C340 1.251 . S
C340 H310 0.929 . S
C340 N336 1.418 . S
C340 C339 1.251 . S
C341 H308 0.930 . S
C341 C343 1.406 1_655 S
C341 C346 1.261 . S
C342 H309 0.930 . S
C342 N344 1.325 . S
C342 C345 1.357 . S
C343 H311 0.928 . S
C343 C341 1.406 1_455 S
C343 N344 1.261 . S
N344 Co295 2.214 . S
N344 C342 1.325 . S
N344 C343 1.261 . S
C345 H315 0.931 1_455 S
C345 C342 1.357 . S
C345 C346 1.312 1_455 S
C346 H317 0.930 . S
C346 C341 1.261 . S
C346 C345 1.312 1_655 S
C347 O319 1.214 . S
C347 O327 1.234 . S
C348 H320 0.929 . S
C348 C351 1.391 . S
C348 C353 1.391 . S
C349 H321 0.929 . S
C349 C350 1.390 . S
C349 N352 1.391 . S
C350 H322 0.930 . S
C350 C349 1.390 . S
C350 C351 1.392 . S
C351 H323 0.929 . S
C351 C348 1.391 . S
C351 C350 1.392 . S
N352 Co296 2.257 . S
N352 C349 1.391 . S
N352 C353 1.388 . S
C353 H324 0.930 . S
C353 C348 1.391 . S
C353 N352 1.388 . S
Co354 O356 2.143 . S
Co354 O362 2.074 . S
Co354 O365 2.093 . S
Co354 O378 2.097 . S
Co354 N395 2.151 . S
Co354 N403 2.214 . S
Co355 O356 2.160 . S
Co355 O361 2.058 . S
Co355 O371 2.057 . S
Co355 O386 2.037 . S
Co355 N390 2.145 . S
Co355 N411 2.257 . S
O356 Co354 2.143 . S
O356 Co355 2.160 . S
C357 O358 1.278 . S
C357 O365 1.224 . S
O358 C357 1.278 . S
C359 O360 1.245 . S
C359 O371 1.232 . S
O360 C359 1.245 . S
O361 Co355 2.058 . S
O361 C387 1.269 . S
O362 Co354 2.074 . S
O362 C387 1.257 . S
H363 C388 0.930 . S
H364 C394 0.930 . S
O365 Co354 2.093 . S
O365 C357 1.224 . S
H366 C398 0.929 . S
H367 C400 0.930 . S
H368 C401 0.930 . S
H369 C399 0.929 . S
H370 C402 0.928 . S
O371 Co355 2.057 . S
O371 C359 1.232 . S
H372 C391 0.929 . S
H373 C392 0.929 . S
H374 C404 0.931 . S
H375 C396 0.929 . S
H376 C405 0.930 . S
H377 C397 0.931 . S
O378 Co354 2.097 . S
O378 C406 1.214 . S
H379 C407 0.929 1_455 S
H380 C408 0.929 . S
H381 C409 0.930 . S
H382 C410 0.929 . S
H383 C412 0.930 . S
H384 C389 0.930 . S
H385 C393 0.930 . S
O386 Co355 2.037 . S
O386 C406 1.234 . S
C387 O361 1.269 . S
C387 O362 1.257 . S
C388 H363 0.930 . S
C388 C391 1.388 . S
C388 C393 1.418 . S
C389 H384 0.930 . S
C389 C392 1.404 . S
C389 C393 1.353 . S
N390 Co355 2.145 . S
N390 C391 1.397 . S
N390 C392 1.334 . S
C391 H372 0.929 . S
C391 C388 1.388 . S
C391 N390 1.397 . S
C392 H373 0.929 . S
C392 C389 1.404 . S
C392 N390 1.334 . S
C393 H385 0.930 . S
C393 C388 1.418 . S
C393 C389 1.353 . S
C394 H364 0.930 . S
C394 N395 1.330 . S
C394 C396 1.446 . S
N395 Co354 2.151 . S
N395 C394 1.330 . S
N395 C399 1.418 . S
C396 H375 0.929 . S
C396 C394 1.446 . S
C396 C397 1.332 . S
C397 H377 0.931 . S
C397 C396 1.332 . S
C397 C398 1.267 . S
C398 H366 0.929 . S
C398 C397 1.267 . S
C398 C399 1.251 . S
C399 H369 0.929 . S
C399 N395 1.418 . S
C399 C398 1.251 . S
C400 H367 0.930 . S
C400 C402 1.406 . S
C400 C405 1.261 . S
C401 H368 0.930 . S
C401 N403 1.325 . S
C401 C404 1.357 . S
C402 H370 0.928 . S
C402 C400 1.406 . S
C402 N403 1.261 . S
N403 Co354 2.214 . S
N403 C401 1.325 . S
N403 C402 1.261 . S
C404 H374 0.931 . S
C404 C401 1.357 . S
C404 C405 1.312 . S
C405 H376 0.930 . S
C405 C400 1.261 . S
C405 C404 1.312 . S
C406 O378 1.214 . S
C406 O386 1.234 . S
C407 H379 0.929 1_655 S
C407 C410 1.391 1_655 S
C407 C412 1.391 . S
C408 H380 0.929 . S
C408 C409 1.390 . S
C408 N411 1.391 . S
C409 H381 0.930 . S
C409 C408 1.390 . S
C409 C410 1.392 1_655 S
C410 H382 0.929 . S
C410 C407 1.391 1_455 S
C410 C409 1.392 1_455 S
N411 Co355 2.257 . S
N411 C408 1.391 . S
N411 C412 1.388 . S
C412 H383 0.930 . S
C412 C407 1.391 . S
C412 N411 1.388 . S
Co413 O415 2.143 . S
Co413 O421 2.074 . S
Co413 O424 2.093 . S
Co413 O437 2.097 . S
Co413 N454 2.151 . S
Co413 N462 2.214 . S
Co414 O415 2.160 . S
Co414 O420 2.058 . S
Co414 O430 2.057 . S
Co414 O445 2.037 . S
Co414 N449 2.145 . S
Co414 N470 2.257 . S
O415 Co413 2.143 . S
O415 Co414 2.160 . S
C416 O417 1.278 . S
C416 O424 1.224 . S
O417 C416 1.278 . S
C418 O419 1.245 . S
C418 O430 1.232 . S
O419 C418 1.245 . S
O420 Co414 2.058 . S
O420 C446 1.269 . S
O421 Co413 2.074 . S
O421 C446 1.257 . S
H422 C447 0.930 . S
H423 C453 0.930 . S
O424 Co413 2.093 . S
O424 C416 1.224 . S
H425 C457 0.929 1_455 S
H426 C459 0.930 . S
H427 C460 0.930 . S
H428 C458 0.929 . S
H429 C461 0.928 . S
O430 Co414 2.057 . S
O430 C418 1.232 . S
H431 C450 0.929 . S
H432 C451 0.929 . S
H433 C463 0.931 1_455 S
H434 C455 0.929 . S
H435 C464 0.930 . S
H436 C456 0.931 . S
O437 Co413 2.097 . S
O437 C465 1.214 . S
H438 C466 0.929 . S
H439 C467 0.929 . S
H440 C468 0.930 . S
H441 C469 0.929 . S
H442 C471 0.930 . S
H443 C448 0.930 . S
H444 C452 0.930 . S
O445 Co414 2.037 . S
O445 C465 1.234 . S
C446 O420 1.269 . S
C446 O421 1.257 . S
C447 H422 0.930 . S
C447 C450 1.388 . S
C447 C452 1.418 . S
C448 H443 0.930 . S
C448 C451 1.404 . S
C448 C452 1.353 . S
N449 Co414 2.145 . S
N449 C450 1.397 . S
N449 C451 1.334 . S
C450 H431 0.929 . S
C450 C447 1.388 . S
C450 N449 1.397 . S
C451 H432 0.929 . S
C451 C448 1.404 . S
C451 N449 1.334 . S
C452 H444 0.930 . S
C452 C447 1.418 . S
C452 C448 1.353 . S
C453 H423 0.930 . S
C453 N454 1.330 . S
C453 C455 1.446 . S
N454 Co413 2.151 . S
N454 C453 1.330 . S
N454 C458 1.418 . S
C455 H434 0.929 . S
C455 C453 1.446 . S
C455 C456 1.332 . S
C456 H436 0.931 . S
C456 C455 1.332 . S
C456 C457 1.267 . S
C457 H425 0.929 1_655 S
C457 C456 1.267 . S
C457 C458 1.251 . S
C458 H428 0.929 . S
C458 N454 1.418 . S
C458 C457 1.251 . S
C459 H426 0.930 . S
C459 C461 1.406 1_455 S
C459 C464 1.261 . S
C460 H427 0.930 . S
C460 N462 1.325 . S
C460 C463 1.357 . S
C461 H429 0.928 . S
C461 C459 1.406 1_655 S
C461 N462 1.261 . S
N462 Co413 2.214 . S
N462 C460 1.325 . S
N462 C461 1.261 . S
C463 H433 0.931 1_655 S
C463 C460 1.357 . S
C463 C464 1.312 1_655 S
C464 H435 0.930 . S
C464 C459 1.261 . S
C464 C463 1.312 1_455 S
C465 O437 1.214 . S
C465 O445 1.234 . S
C466 H438 0.929 . S
C466 C469 1.391 . S
C466 C471 1.391 . S
C467 H439 0.929 . S
C467 C468 1.390 . S
C467 N470 1.391 . S
C468 H440 0.930 . S
C468 C467 1.390 . S
C468 C469 1.392 . S
C469 H441 0.929 . S
C469 C466 1.391 . S
C469 C468 1.392 . S
N470 Co414 2.257 . S
N470 C467 1.391 . S
N470 C471 1.388 . S
C471 H442 0.930 . S
C471 C466 1.391 . S
C471 N470 1.388 . S
Co472 O474 2.143 . S
Co472 O480 2.074 . S
Co472 O483 2.093 . S
Co472 O496 2.097 . S
Co472 N513 2.151 . S
Co472 N521 2.214 . S
Co473 O474 2.160 . S
Co473 O479 2.058 . S
Co473 O489 2.057 . S
Co473 O504 2.037 . S
Co473 N508 2.145 . S
Co473 N529 2.257 . S
O474 Co472 2.143 . S
O474 Co473 2.160 . S
C475 O476 1.278 1_565 S
C475 O483 1.224 1_565 S
O476 C475 1.278 1_545 S
C477 O478 1.245 . S
C477 O489 1.232 . S
O478 C477 1.245 . S
O479 Co473 2.058 . S
O479 C505 1.269 . S
O480 Co472 2.074 . S
O480 C505 1.257 . S
H481 C506 0.930 . S
H482 C512 0.930 . S
O483 Co472 2.093 . S
O483 C475 1.224 1_545 S
H484 C516 0.929 . S
H485 C518 0.930 . S
H486 C519 0.930 . S
H487 C517 0.929 . S
H488 C520 0.928 . S
O489 Co473 2.057 . S
O489 C477 1.232 . S
H490 C509 0.929 . S
H491 C510 0.929 . S
H492 C522 0.931 . S
H493 C514 0.929 . S
H494 C523 0.930 . S
H495 C515 0.931 . S
O496 Co472 2.097 . S
O496 C524 1.214 . S
H497 C525 0.929 . S
H498 C526 0.929 . S
H499 C527 0.930 . S
H500 C528 0.929 . S
H501 C530 0.930 . S
H502 C507 0.930 . S
H503 C511 0.930 . S
O504 Co473 2.037 . S
O504 C524 1.234 . S
C505 O479 1.269 . S
C505 O480 1.257 . S
C506 H481 0.930 . S
C506 C509 1.388 . S
C506 C511 1.418 . S
C507 H502 0.930 . S
C507 C510 1.404 . S
C507 C511 1.353 . S
N508 Co473 2.145 . S
N508 C509 1.397 . S
N508 C510 1.334 . S
C509 H490 0.929 . S
C509 C506 1.388 . S
C509 N508 1.397 . S
C510 H491 0.929 . S
C510 C507 1.404 . S
C510 N508 1.334 . S
C511 H503 0.930 . S
C511 C506 1.418 . S
C511 C507 1.353 . S
C512 H482 0.930 . S
C512 N513 1.330 1_565 S
C512 C514 1.446 . S
N513 Co472 2.151 . S
N513 C512 1.330 1_545 S
N513 C517 1.418 . S
C514 H493 0.929 . S
C514 C512 1.446 . S
C514 C515 1.332 . S
C515 H495 0.931 . S
C515 C514 1.332 . S
C515 C516 1.267 . S
C516 H484 0.929 . S
C516 C515 1.267 . S
C516 C517 1.251 1_565 S
C517 H487 0.929 . S
C517 N513 1.418 . S
C517 C516 1.251 1_545 S
C518 H485 0.930 . S
C518 C520 1.406 . S
C518 C523 1.261 . S
C519 H486 0.930 . S
C519 N521 1.325 . S
C519 C522 1.357 . S
C520 H488 0.928 . S
C520 C518 1.406 . S
C520 N521 1.261 . S
N521 Co472 2.214 . S
N521 C519 1.325 . S
N521 C520 1.261 . S
C522 H492 0.931 . S
C522 C519 1.357 . S
C522 C523 1.312 . S
C523 H494 0.930 . S
C523 C518 1.261 . S
C523 C522 1.312 . S
C524 O496 1.214 . S
C524 O504 1.234 . S
C525 H497 0.929 . S
C525 C528 1.391 . S
C525 C530 1.391 . S
C526 H498 0.929 . S
C526 C527 1.390 . S
C526 N529 1.391 . S
C527 H499 0.930 . S
C527 C526 1.390 . S
C527 C528 1.392 . S
C528 H500 0.929 . S
C528 C525 1.391 . S
C528 C527 1.392 . S
N529 Co473 2.257 . S
N529 C526 1.391 . S
N529 C530 1.388 . S
C530 H501 0.930 . S
C530 C525 1.391 . S
C530 N529 1.388 . S
Co531 O533 2.143 . S
Co531 O539 2.074 . S
Co531 O542 2.093 . S
Co531 O555 2.097 . S
Co531 N572 2.151 . S
Co531 N580 2.214 . S
Co532 O533 2.160 . S
Co532 O538 2.058 . S
Co532 O548 2.057 . S
Co532 O563 2.037 . S
Co532 N567 2.145 . S
Co532 N588 2.257 . S
O533 Co531 2.143 . S
O533 Co532 2.160 . S
C534 O535 1.278 1_565 S
C534 O542 1.224 1_565 S
O535 C534 1.278 1_545 S
C536 O537 1.245 . S
C536 O548 1.232 . S
O537 C536 1.245 . S
O538 Co532 2.058 . S
O538 C564 1.269 . S
O539 Co531 2.074 . S
O539 C564 1.257 . S
H540 C565 0.930 . S
H541 C571 0.930 . S
O542 Co531 2.093 . S
O542 C534 1.224 1_545 S
H543 C575 0.929 . S
H544 C577 0.930 . S
H545 C578 0.930 . S
H546 C576 0.929 . S
H547 C579 0.928 . S
O548 Co532 2.057 . S
O548 C536 1.232 . S
H549 C568 0.929 . S
H550 C569 0.929 . S
H551 C581 0.931 . S
H552 C573 0.929 . S
H553 C582 0.930 . S
H554 C574 0.931 . S
O555 Co531 2.097 . S
O555 C583 1.214 . S
H556 C584 0.929 . S
H557 C585 0.929 . S
H558 C586 0.930 . S
H559 C587 0.929 . S
H560 C589 0.930 . S
H561 C566 0.930 . S
H562 C570 0.930 . S
O563 Co532 2.037 . S
O563 C583 1.234 . S
C564 O538 1.269 . S
C564 O539 1.257 . S
C565 H540 0.930 . S
C565 C568 1.388 . S
C565 C570 1.418 . S
C566 H561 0.930 . S
C566 C569 1.404 . S
C566 C570 1.353 . S
N567 Co532 2.145 . S
N567 C568 1.397 . S
N567 C569 1.334 . S
C568 H549 0.929 . S
C568 C565 1.388 . S
C568 N567 1.397 . S
C569 H550 0.929 . S
C569 C566 1.404 . S
C569 N567 1.334 . S
C570 H562 0.930 . S
C570 C565 1.418 . S
C570 C566 1.353 . S
C571 H541 0.930 . S
C571 N572 1.330 1_565 S
C571 C573 1.446 . S
N572 Co531 2.151 . S
N572 C571 1.330 1_545 S
N572 C576 1.418 . S
C573 H552 0.929 . S
C573 C571 1.446 . S
C573 C574 1.332 . S
C574 H554 0.931 . S
C574 C573 1.332 . S
C574 C575 1.267 . S
C575 H543 0.929 . S
C575 C574 1.267 . S
C575 C576 1.251 1_565 S
C576 H546 0.929 . S
C576 N572 1.418 . S
C576 C575 1.251 1_545 S
C577 H544 0.930 . S
C577 C579 1.406 . S
C577 C582 1.261 . S
C578 H545 0.930 . S
C578 N580 1.325 . S
C578 C581 1.357 . S
C579 H547 0.928 . S
C579 C577 1.406 . S
C579 N580 1.261 . S
N580 Co531 2.214 . S
N580 C578 1.325 . S
N580 C579 1.261 . S
C581 H551 0.931 . S
C581 C578 1.357 . S
C581 C582 1.312 . S
C582 H553 0.930 . S
C582 C577 1.261 . S
C582 C581 1.312 . S
C583 O555 1.214 . S
C583 O563 1.234 . S
C584 H556 0.929 . S
C584 C587 1.391 . S
C584 C589 1.391 . S
C585 H557 0.929 . S
C585 C586 1.390 . S
C585 N588 1.391 . S
C586 H558 0.930 . S
C586 C585 1.390 . S
C586 C587 1.392 . S
C587 H559 0.929 . S
C587 C584 1.391 . S
C587 C586 1.392 . S
N588 Co532 2.257 . S
N588 C585 1.391 . S
N588 C589 1.388 . S
C589 H560 0.930 . S
C589 C584 1.391 . S
C589 N588 1.388 . S
Co590 O592 2.143 . S
Co590 O598 2.074 . S
Co590 O601 2.093 . S
Co590 O614 2.097 . S
Co590 N631 2.151 . S
Co590 N639 2.214 . S
Co591 O592 2.160 . S
Co591 O597 2.058 . S
Co591 O607 2.057 . S
Co591 O622 2.037 . S
Co591 N626 2.145 . S
Co591 N647 2.257 . S
O592 Co590 2.143 . S
O592 Co591 2.160 . S
C593 O594 1.278 1_545 S
C593 O601 1.224 1_545 S
O594 C593 1.278 1_565 S
C595 O596 1.245 . S
C595 O607 1.232 . S
O596 C595 1.245 . S
O597 Co591 2.058 . S
O597 C623 1.269 . S
O598 Co590 2.074 . S
O598 C623 1.257 . S
H599 C624 0.930 . S
H600 C630 0.930 . S
O601 Co590 2.093 . S
O601 C593 1.224 1_565 S
H602 C634 0.929 . S
H603 C636 0.930 . S
H604 C637 0.930 . S
H605 C635 0.929 . S
H606 C638 0.928 . S
O607 Co591 2.057 . S
O607 C595 1.232 . S
H608 C627 0.929 . S
H609 C628 0.929 . S
H610 C640 0.931 . S
H611 C632 0.929 . S
H612 C641 0.930 . S
H613 C633 0.931 . S
O614 Co590 2.097 . S
O614 C642 1.214 . S
H615 C643 0.929 . S
H616 C644 0.929 . S
H617 C645 0.930 . S
H618 C646 0.929 . S
H619 C648 0.930 . S
H620 C625 0.930 . S
H621 C629 0.930 . S
O622 Co591 2.037 . S
O622 C642 1.234 . S
C623 O597 1.269 . S
C623 O598 1.257 . S
C624 H599 0.930 . S
C624 C627 1.388 . S
C624 C629 1.418 . S
C625 H620 0.930 . S
C625 C628 1.404 . S
C625 C629 1.353 . S
N626 Co591 2.145 . S
N626 C627 1.397 . S
N626 C628 1.334 . S
C627 H608 0.929 . S
C627 C624 1.388 . S
C627 N626 1.397 . S
C628 H609 0.929 . S
C628 C625 1.404 . S
C628 N626 1.334 . S
C629 H621 0.930 . S
C629 C624 1.418 . S
C629 C625 1.353 . S
C630 H600 0.930 . S
C630 N631 1.330 1_545 S
C630 C632 1.446 . S
N631 Co590 2.151 . S
N631 C630 1.330 1_565 S
N631 C635 1.418 . S
C632 H611 0.929 . S
C632 C630 1.446 . S
C632 C633 1.332 . S
C633 H613 0.931 . S
C633 C632 1.332 . S
C633 C634 1.267 . S
C634 H602 0.929 . S
C634 C633 1.267 . S
C634 C635 1.251 1_545 S
C635 H605 0.929 . S
C635 N631 1.418 . S
C635 C634 1.251 1_565 S
C636 H603 0.930 . S
C636 C638 1.406 . S
C636 C641 1.261 . S
C637 H604 0.930 . S
C637 N639 1.325 . S
C637 C640 1.357 . S
C638 H606 0.928 . S
C638 C636 1.406 . S
C638 N639 1.261 . S
N639 Co590 2.214 . S
N639 C637 1.325 . S
N639 C638 1.261 . S
C640 H610 0.931 . S
C640 C637 1.357 . S
C640 C641 1.312 . S
C641 H612 0.930 . S
C641 C636 1.261 . S
C641 C640 1.312 . S
C642 O614 1.214 . S
C642 O622 1.234 . S
C643 H615 0.929 . S
C643 C646 1.391 . S
C643 C648 1.391 . S
C644 H616 0.929 . S
C644 C645 1.390 . S
C644 N647 1.391 . S
C645 H617 0.930 . S
C645 C644 1.390 . S
C645 C646 1.392 . S
C646 H618 0.929 . S
C646 C643 1.391 . S
C646 C645 1.392 . S
N647 Co591 2.257 . S
N647 C644 1.391 . S
N647 C648 1.388 . S
C648 H619 0.930 . S
C648 C643 1.391 . S
C648 N647 1.388 . S
Co649 O651 2.143 . S
Co649 O657 2.074 . S
Co649 O660 2.093 . S
Co649 O673 2.097 . S
Co649 N690 2.151 . S
Co649 N698 2.214 . S
Co650 O651 2.160 . S
Co650 O656 2.058 . S
Co650 O666 2.057 . S
Co650 O681 2.037 . S
Co650 N685 2.145 . S
Co650 N706 2.257 . S
O651 Co649 2.143 . S
O651 Co650 2.160 . S
C652 O653 1.278 1_545 S
C652 O660 1.224 1_545 S
O653 C652 1.278 1_565 S
C654 O655 1.245 . S
C654 O666 1.232 . S
O655 C654 1.245 . S
O656 Co650 2.058 . S
O656 C682 1.269 . S
O657 Co649 2.074 . S
O657 C682 1.257 . S
H658 C683 0.930 . S
H659 C689 0.930 . S
O660 Co649 2.093 . S
O660 C652 1.224 1_565 S
H661 C693 0.929 . S
H662 C695 0.930 . S
H663 C696 0.930 . S
H664 C694 0.929 . S
H665 C697 0.928 . S
O666 Co650 2.057 . S
O666 C654 1.232 . S
H667 C686 0.929 . S
H668 C687 0.929 . S
H669 C699 0.931 . S
H670 C691 0.929 . S
H671 C700 0.930 . S
H672 C692 0.931 . S
O673 Co649 2.097 . S
O673 C701 1.214 . S
H674 C702 0.929 . S
H675 C703 0.929 . S
H676 C704 0.930 . S
H677 C705 0.929 . S
H678 C707 0.930 . S
H679 C684 0.930 . S
H680 C688 0.930 . S
O681 Co650 2.037 . S
O681 C701 1.234 . S
C682 O656 1.269 . S
C682 O657 1.257 . S
C683 H658 0.930 . S
C683 C686 1.388 . S
C683 C688 1.418 . S
C684 H679 0.930 . S
C684 C687 1.404 . S
C684 C688 1.353 . S
N685 Co650 2.145 . S
N685 C686 1.397 . S
N685 C687 1.334 . S
C686 H667 0.929 . S
C686 C683 1.388 . S
C686 N685 1.397 . S
C687 H668 0.929 . S
C687 C684 1.404 . S
C687 N685 1.334 . S
C688 H680 0.930 . S
C688 C683 1.418 . S
C688 C684 1.353 . S
C689 H659 0.930 . S
C689 N690 1.330 1_545 S
C689 C691 1.446 . S
N690 Co649 2.151 . S
N690 C689 1.330 1_565 S
N690 C694 1.418 . S
C691 H670 0.929 . S
C691 C689 1.446 . S
C691 C692 1.332 . S
C692 H672 0.931 . S
C692 C691 1.332 . S
C692 C693 1.267 . S
C693 H661 0.929 . S
C693 C692 1.267 . S
C693 C694 1.251 1_545 S
C694 H664 0.929 . S
C694 N690 1.418 . S
C694 C693 1.251 1_565 S
C695 H662 0.930 . S
C695 C697 1.406 . S
C695 C700 1.261 . S
C696 H663 0.930 . S
C696 N698 1.325 . S
C696 C699 1.357 . S
C697 H665 0.928 . S
C697 C695 1.406 . S
C697 N698 1.261 . S
N698 Co649 2.214 . S
N698 C696 1.325 . S
N698 C697 1.261 . S
C699 H669 0.931 . S
C699 C696 1.357 . S
C699 C700 1.312 . S
C700 H671 0.930 . S
C700 C695 1.261 . S
C700 C699 1.312 . S
C701 O673 1.214 . S
C701 O681 1.234 . S
C702 H674 0.929 . S
C702 C705 1.391 . S
C702 C707 1.391 . S
C703 H675 0.929 . S
C703 C704 1.390 . S
C703 N706 1.391 . S
C704 H676 0.930 . S
C704 C703 1.390 . S
C704 C705 1.392 . S
C705 H677 0.929 . S
C705 C702 1.391 . S
C705 C704 1.392 . S
N706 Co650 2.257 . S
N706 C703 1.391 . S
N706 C707 1.388 . S
C707 H678 0.930 . S
C707 C702 1.391 . S
C707 N706 1.388 . S
Co708 O710 2.143 . S
Co708 O716 2.074 . S
Co708 O719 2.093 . S
Co708 O732 2.097 . S
Co708 N749 2.151 . S
Co708 N757 2.214 . S
Co709 O710 2.160 . S
Co709 O715 2.058 . S
Co709 O725 2.057 . S
Co709 O740 2.037 . S
Co709 N744 2.145 . S
Co709 N765 2.257 . S
O710 Co708 2.143 . S
O710 Co709 2.160 . S
C711 O712 1.278 . S
C711 O719 1.224 . S
O712 C711 1.278 . S
C713 O714 1.245 . S
C713 O725 1.232 . S
O714 C713 1.245 . S
O715 Co709 2.058 . S
O715 C741 1.269 . S
O716 Co708 2.074 . S
O716 C741 1.257 . S
H717 C742 0.930 . S
H718 C748 0.930 . S
O719 Co708 2.093 . S
O719 C711 1.224 . S
H720 C752 0.929 . S
H721 C754 0.930 . S
H722 C755 0.930 . S
H723 C753 0.929 . S
H724 C756 0.928 . S
O725 Co709 2.057 . S
O725 C713 1.232 . S
H726 C745 0.929 . S
H727 C746 0.929 . S
H728 C758 0.931 . S
H729 C750 0.929 . S
H730 C759 0.930 . S
H731 C751 0.931 . S
O732 Co708 2.097 . S
O732 C760 1.214 . S
H733 C761 0.929 . S
H734 C762 0.929 . S
H735 C763 0.930 . S
H736 C764 0.929 . S
H737 C766 0.930 . S
H738 C743 0.930 . S
H739 C747 0.930 . S
O740 Co709 2.037 . S
O740 C760 1.234 . S
C741 O715 1.269 . S
C741 O716 1.257 . S
C742 H717 0.930 . S
C742 C745 1.388 . S
C742 C747 1.418 . S
C743 H738 0.930 . S
C743 C746 1.404 . S
C743 C747 1.353 . S
N744 Co709 2.145 . S
N744 C745 1.397 . S
N744 C746 1.334 . S
C745 H726 0.929 . S
C745 C742 1.388 . S
C745 N744 1.397 . S
C746 H727 0.929 . S
C746 C743 1.404 . S
C746 N744 1.334 . S
C747 H739 0.930 . S
C747 C742 1.418 . S
C747 C743 1.353 . S
C748 H718 0.930 . S
C748 N749 1.330 . S
C748 C750 1.446 . S
N749 Co708 2.151 . S
N749 C748 1.330 . S
N749 C753 1.418 . S
C750 H729 0.929 . S
C750 C748 1.446 . S
C750 C751 1.332 . S
C751 H731 0.931 . S
C751 C750 1.332 . S
C751 C752 1.267 . S
C752 H720 0.929 . S
C752 C751 1.267 . S
C752 C753 1.251 . S
C753 H723 0.929 . S
C753 N749 1.418 . S
C753 C752 1.251 . S
C754 H721 0.930 . S
C754 C756 1.406 . S
C754 C759 1.261 . S
C755 H722 0.930 . S
C755 N757 1.325 . S
C755 C758 1.357 . S
C756 H724 0.928 . S
C756 C754 1.406 . S
C756 N757 1.261 . S
N757 Co708 2.214 . S
N757 C755 1.325 . S
N757 C756 1.261 . S
C758 H728 0.931 . S
C758 C755 1.357 . S
C758 C759 1.312 . S
C759 H730 0.930 . S
C759 C754 1.261 . S
C759 C758 1.312 . S
C760 O732 1.214 . S
C760 O740 1.234 . S
C761 H733 0.929 . S
C761 C764 1.391 . S
C761 C766 1.391 . S
C762 H734 0.929 . S
C762 C763 1.390 . S
C762 N765 1.391 . S
C763 H735 0.930 . S
C763 C762 1.390 . S
C763 C764 1.392 . S
C764 H736 0.929 . S
C764 C761 1.391 . S
C764 C763 1.392 . S
N765 Co709 2.257 . S
N765 C762 1.391 . S
N765 C766 1.388 . S
C766 H737 0.930 . S
C766 C761 1.391 . S
C766 N765 1.388 . S
Co767 O769 2.143 . S
Co767 O775 2.074 . S
Co767 O778 2.093 . S
Co767 O791 2.097 . S
Co767 N808 2.151 . S
Co767 N816 2.214 . S
Co768 O769 2.160 . S
Co768 O774 2.058 . S
Co768 O784 2.057 . S
Co768 O799 2.037 . S
Co768 N803 2.145 . S
Co768 N824 2.257 . S
O769 Co767 2.143 . S
O769 Co768 2.160 . S
C770 O771 1.278 . S
C770 O778 1.224 . S
O771 C770 1.278 . S
C772 O773 1.245 . S
C772 O784 1.232 . S
O773 C772 1.245 . S
O774 Co768 2.058 . S
O774 C800 1.269 . S
O775 Co767 2.074 . S
O775 C800 1.257 . S
H776 C801 0.930 . S
H777 C807 0.930 . S
O778 Co767 2.093 . S
O778 C770 1.224 . S
H779 C811 0.929 . S
H780 C813 0.930 . S
H781 C814 0.930 . S
H782 C812 0.929 . S
H783 C815 0.928 . S
O784 Co768 2.057 . S
O784 C772 1.232 . S
H785 C804 0.929 . S
H786 C805 0.929 . S
H787 C817 0.931 . S
H788 C809 0.929 . S
H789 C818 0.930 . S
H790 C810 0.931 . S
O791 Co767 2.097 . S
O791 C819 1.214 . S
H792 C820 0.929 . S
H793 C821 0.929 . S
H794 C822 0.930 . S
H795 C823 0.929 . S
H796 C825 0.930 . S
H797 C802 0.930 . S
H798 C806 0.930 . S
O799 Co768 2.037 . S
O799 C819 1.234 . S
C800 O774 1.269 . S
C800 O775 1.257 . S
C801 H776 0.930 . S
C801 C804 1.388 . S
C801 C806 1.418 . S
C802 H797 0.930 . S
C802 C805 1.404 . S
C802 C806 1.353 . S
N803 Co768 2.145 . S
N803 C804 1.397 . S
N803 C805 1.334 . S
C804 H785 0.929 . S
C804 C801 1.388 . S
C804 N803 1.397 . S
C805 H786 0.929 . S
C805 C802 1.404 . S
C805 N803 1.334 . S
C806 H798 0.930 . S
C806 C801 1.418 . S
C806 C802 1.353 . S
C807 H777 0.930 . S
C807 N808 1.330 . S
C807 C809 1.446 . S
N808 Co767 2.151 . S
N808 C807 1.330 . S
N808 C812 1.418 . S
C809 H788 0.929 . S
C809 C807 1.446 . S
C809 C810 1.332 . S
C810 H790 0.931 . S
C810 C809 1.332 . S
C810 C811 1.267 . S
C811 H779 0.929 . S
C811 C810 1.267 . S
C811 C812 1.251 . S
C812 H782 0.929 . S
C812 N808 1.418 . S
C812 C811 1.251 . S
C813 H780 0.930 . S
C813 C815 1.406 . S
C813 C818 1.261 . S
C814 H781 0.930 . S
C814 N816 1.325 . S
C814 C817 1.357 . S
C815 H783 0.928 . S
C815 C813 1.406 . S
C815 N816 1.261 . S
N816 Co767 2.214 . S
N816 C814 1.325 . S
N816 C815 1.261 . S
C817 H787 0.931 . S
C817 C814 1.357 . S
C817 C818 1.312 . S
C818 H789 0.930 . S
C818 C813 1.261 . S
C818 C817 1.312 . S
C819 O791 1.214 . S
C819 O799 1.234 . S
C820 H792 0.929 . S
C820 C823 1.391 . S
C820 C825 1.391 . S
C821 H793 0.929 . S
C821 C822 1.390 . S
C821 N824 1.391 . S
C822 H794 0.930 . S
C822 C821 1.390 . S
C822 C823 1.392 . S
C823 H795 0.929 . S
C823 C820 1.391 . S
C823 C822 1.392 . S
N824 Co768 2.257 . S
N824 C821 1.391 . S
N824 C825 1.388 . S
C825 H796 0.930 . S
C825 C820 1.391 . S
C825 N824 1.388 . S
Co826 O828 2.143 . S
Co826 O834 2.074 . S
Co826 O837 2.093 . S
Co826 O850 2.097 . S
Co826 N867 2.151 . S
Co826 N875 2.214 . S
Co827 O828 2.160 . S
Co827 O833 2.058 . S
Co827 O843 2.057 . S
Co827 O858 2.037 . S
Co827 N862 2.145 . S
Co827 N883 2.257 . S
O828 Co826 2.143 . S
O828 Co827 2.160 . S
C829 O830 1.278 . S
C829 O837 1.224 . S
O830 C829 1.278 . S
C831 O832 1.245 . S
C831 O843 1.232 . S
O832 C831 1.245 . S
O833 Co827 2.058 . S
O833 C859 1.269 . S
O834 Co826 2.074 . S
O834 C859 1.257 . S
H835 C860 0.930 . S
H836 C866 0.930 . S
O837 Co826 2.093 . S
O837 C829 1.224 . S
H838 C870 0.929 . S
H839 C872 0.930 . S
H840 C873 0.930 . S
H841 C871 0.929 . S
H842 C874 0.928 . S
O843 Co827 2.057 . S
O843 C831 1.232 . S
H844 C863 0.929 . S
H845 C864 0.929 . S
H846 C876 0.931 . S
H847 C868 0.929 . S
H848 C877 0.930 . S
H849 C869 0.931 . S
O850 Co826 2.097 . S
O850 C878 1.214 . S
H851 C879 0.929 . S
H852 C880 0.929 . S
H853 C881 0.930 . S
H854 C882 0.929 . S
H855 C884 0.930 . S
H856 C861 0.930 . S
H857 C865 0.930 . S
O858 Co827 2.037 . S
O858 C878 1.234 . S
C859 O833 1.269 . S
C859 O834 1.257 . S
C860 H835 0.930 . S
C860 C863 1.388 . S
C860 C865 1.418 . S
C861 H856 0.930 . S
C861 C864 1.404 . S
C861 C865 1.353 . S
N862 Co827 2.145 . S
N862 C863 1.397 . S
N862 C864 1.334 . S
C863 H844 0.929 . S
C863 C860 1.388 . S
C863 N862 1.397 . S
C864 H845 0.929 . S
C864 C861 1.404 . S
C864 N862 1.334 . S
C865 H857 0.930 . S
C865 C860 1.418 . S
C865 C861 1.353 . S
C866 H836 0.930 . S
C866 N867 1.330 . S
C866 C868 1.446 . S
N867 Co826 2.151 . S
N867 C866 1.330 . S
N867 C871 1.418 . S
C868 H847 0.929 . S
C868 C866 1.446 . S
C868 C869 1.332 . S
C869 H849 0.931 . S
C869 C868 1.332 . S
C869 C870 1.267 . S
C870 H838 0.929 . S
C870 C869 1.267 . S
C870 C871 1.251 . S
C871 H841 0.929 . S
C871 N867 1.418 . S
C871 C870 1.251 . S
C872 H839 0.930 . S
C872 C874 1.406 . S
C872 C877 1.261 . S
C873 H840 0.930 . S
C873 N875 1.325 . S
C873 C876 1.357 . S
C874 H842 0.928 . S
C874 C872 1.406 . S
C874 N875 1.261 . S
N875 Co826 2.214 . S
N875 C873 1.325 . S
N875 C874 1.261 . S
C876 H846 0.931 . S
C876 C873 1.357 . S
C876 C877 1.312 . S
C877 H848 0.930 . S
C877 C872 1.261 . S
C877 C876 1.312 . S
C878 O850 1.214 . S
C878 O858 1.234 . S
C879 H851 0.929 . S
C879 C882 1.391 . S
C879 C884 1.391 . S
C880 H852 0.929 . S
C880 C881 1.390 . S
C880 N883 1.391 . S
C881 H853 0.930 . S
C881 C880 1.390 . S
C881 C882 1.392 . S
C882 H854 0.929 . S
C882 C879 1.391 . S
C882 C881 1.392 . S
N883 Co827 2.257 . S
N883 C880 1.391 . S
N883 C884 1.388 . S
C884 H855 0.930 . S
C884 C879 1.391 . S
C884 N883 1.388 . S
Co885 O887 2.143 . S
Co885 O893 2.074 . S
Co885 O896 2.093 . S
Co885 O909 2.097 . S
Co885 N926 2.151 . S
Co885 N934 2.214 . S
Co886 O887 2.160 . S
Co886 O892 2.058 . S
Co886 O902 2.057 . S
Co886 O917 2.037 . S
Co886 N921 2.145 . S
Co886 N942 2.257 . S
O887 Co885 2.143 . S
O887 Co886 2.160 . S
C888 O889 1.278 . S
C888 O896 1.224 . S
O889 C888 1.278 . S
C890 O891 1.245 . S
C890 O902 1.232 . S
O891 C890 1.245 . S
O892 Co886 2.058 . S
O892 C918 1.269 . S
O893 Co885 2.074 . S
O893 C918 1.257 . S
H894 C919 0.930 . S
H895 C925 0.930 . S
O896 Co885 2.093 . S
O896 C888 1.224 . S
H897 C929 0.929 . S
H898 C931 0.930 . S
H899 C932 0.930 . S
H900 C930 0.929 . S
H901 C933 0.928 . S
O902 Co886 2.057 . S
O902 C890 1.232 . S
H903 C922 0.929 . S
H904 C923 0.929 . S
H905 C935 0.931 . S
H906 C927 0.929 . S
H907 C936 0.930 . S
H908 C928 0.931 . S
O909 Co885 2.097 . S
O909 C937 1.214 . S
H910 C938 0.929 . S
H911 C939 0.929 . S
H912 C940 0.930 . S
H913 C941 0.929 . S
H914 C943 0.930 . S
H915 C920 0.930 . S
H916 C924 0.930 . S
O917 Co886 2.037 . S
O917 C937 1.234 . S
C918 O892 1.269 . S
C918 O893 1.257 . S
C919 H894 0.930 . S
C919 C922 1.388 . S
C919 C924 1.418 . S
C920 H915 0.930 . S
C920 C923 1.404 . S
C920 C924 1.353 . S
N921 Co886 2.145 . S
N921 C922 1.397 . S
N921 C923 1.334 . S
C922 H903 0.929 . S
C922 C919 1.388 . S
C922 N921 1.397 . S
C923 H904 0.929 . S
C923 C920 1.404 . S
C923 N921 1.334 . S
C924 H916 0.930 . S
C924 C919 1.418 . S
C924 C920 1.353 . S
C925 H895 0.930 . S
C925 N926 1.330 . S
C925 C927 1.446 . S
N926 Co885 2.151 . S
N926 C925 1.330 . S
N926 C930 1.418 . S
C927 H906 0.929 . S
C927 C925 1.446 . S
C927 C928 1.332 . S
C928 H908 0.931 . S
C928 C927 1.332 . S
C928 C929 1.267 . S
C929 H897 0.929 . S
C929 C928 1.267 . S
C929 C930 1.251 . S
C930 H900 0.929 . S
C930 N926 1.418 . S
C930 C929 1.251 . S
C931 H898 0.930 . S
C931 C933 1.406 . S
C931 C936 1.261 . S
C932 H899 0.930 . S
C932 N934 1.325 . S
C932 C935 1.357 . S
C933 H901 0.928 . S
C933 C931 1.406 . S
C933 N934 1.261 . S
N934 Co885 2.214 . S
N934 C932 1.325 . S
N934 C933 1.261 . S
C935 H905 0.931 . S
C935 C932 1.357 . S
C935 C936 1.312 . S
C936 H907 0.930 . S
C936 C931 1.261 . S
C936 C935 1.312 . S
C937 O909 1.214 . S
C937 O917 1.234 . S
C938 H910 0.929 . S
C938 C941 1.391 . S
C938 C943 1.391 . S
C939 H911 0.929 . S
C939 C940 1.390 . S
C939 N942 1.391 . S
C940 H912 0.930 . S
C940 C939 1.390 . S
C940 C941 1.392 . S
C941 H913 0.929 . S
C941 C938 1.391 . S
C941 C940 1.392 . S
N942 Co886 2.257 . S
N942 C939 1.391 . S
N942 C943 1.388 . S
C943 H914 0.930 . S
C943 C938 1.391 . S
C943 N942 1.388 . S
H944 C956 0.930 . S
H945 C958 0.930 . S
H946 C959 0.930 . S
H947 C963 0.959 . S
H948 C963 0.959 . S
H949 C963 0.961 . S
H950 C964 0.960 . S
H951 C964 0.961 . S
H952 C964 0.959 . S
H953 C967 0.929 . S
H954 C968 0.931 . S
H955 C970 0.930 . S
C956 H944 0.930 . S
C956 C957 1.399 . S
C956 C961 1.399 . S
C957 C956 1.399 . S
C957 C958 1.376 . S
C958 H945 0.930 . S
C958 C957 1.376 . S
C958 C959 1.388 . S
C959 H946 0.930 . S
C959 C958 1.388 . S
C959 C960 1.390 . S
C960 C959 1.390 . S
C960 C961 1.394 . S
C960 C966 1.465 . S
C961 C956 1.399 . S
C961 C960 1.394 . S
C961 C962 1.516 . S
C962 C961 1.516 . S
C962 C963 1.502 . S
C962 C964 1.561 . S
C962 C965 1.526 . S
C963 H947 0.959 . S
C963 H948 0.959 . S
C963 H949 0.961 . S
C963 C962 1.502 . S
C964 H950 0.960 . S
C964 H951 0.961 . S
C964 H952 0.959 . S
C964 C962 1.561 . S
C965 C962 1.526 . S
C965 C966 1.396 . S
C965 C970 1.390 . S
C966 C960 1.465 . S
C966 C965 1.396 . S
C966 C967 1.399 . S
C967 H953 0.929 . S
C967 C966 1.399 . S
C967 C968 1.385 . S
C968 H954 0.931 . S
C968 C967 1.385 . S
C968 C969 1.389 . S
C969 C968 1.389 . S
C969 C970 1.387 . S
C970 H955 0.930 . S
C970 C965 1.390 . S
C970 C969 1.387 . S
H971 C983 0.930 . S
H972 C985 0.930 . S
H973 C986 0.930 1_455 S
H974 C990 0.959 . S
H975 C990 0.959 . S
H976 C990 0.961 . S
H977 C991 0.960 1_655 S
H978 C991 0.961 . S
H979 C991 0.959 . S
H980 C994 0.929 . S
H981 C995 0.931 . S
H982 C997 0.930 . S
C983 H971 0.930 . S
C983 C984 1.399 1_545 S
C983 C988 1.399 . S
C984 C983 1.399 1_565 S
C984 C985 1.376 . S
C985 H972 0.930 . S
C985 C984 1.376 . S
C985 C986 1.388 . S
C986 H973 0.930 1_655 S
C986 C985 1.388 . S
C986 C987 1.390 . S
C987 C986 1.390 . S
C987 C988 1.394 1_565 S
C987 C993 1.465 1_655 S
C988 C983 1.399 . S
C988 C987 1.394 1_545 S
C988 C989 1.516 . S
C989 C988 1.516 . S
C989 C990 1.502 . S
C989 C991 1.561 1_655 S
C989 C992 1.526 1_655 S
C990 H974 0.959 . S
C990 H975 0.959 . S
C990 H976 0.961 . S
C990 C989 1.502 . S
C991 H977 0.960 1_455 S
C991 H978 0.961 . S
C991 H979 0.959 . S
C991 C989 1.561 1_455 S
C992 C989 1.526 1_455 S
C992 C993 1.396 1_545 S
C992 C997 1.390 . S
C993 C987 1.465 1_455 S
C993 C992 1.396 1_565 S
C993 C994 1.399 . S
C994 H980 0.929 . S
C994 C993 1.399 . S
C994 C995 1.385 . S
C995 H981 0.931 . S
C995 C994 1.385 . S
C995 C996 1.389 1_565 S
C996 C995 1.389 1_545 S
C996 C997 1.387 . S
C997 H982 0.930 . S
C997 C992 1.390 . S
C997 C996 1.387 . S
H998 C1010 0.930 . S
H999 C1012 0.930 . S
H1000 C1013 0.930 . S
H1001 C1017 0.959 . S
H1002 C1017 0.959 . S
H1003 C1017 0.961 . S
H1004 C1018 0.960 . S
H1005 C1018 0.961 . S
H1006 C1018 0.959 . S
H1007 C1021 0.929 . S
H1008 C1022 0.931 . S
H1009 C1024 0.930 . S
C1010 H998 0.930 . S
C1010 C1011 1.399 . S
C1010 C1015 1.399 . S
C1011 C1010 1.399 . S
C1011 C1012 1.376 1_565 S
C1012 H999 0.930 . S
C1012 C1011 1.376 1_545 S
C1012 C1013 1.388 . S
C1013 H1000 0.930 . S
C1013 C1012 1.388 . S
C1013 C1014 1.390 . S
C1014 C1013 1.390 . S
C1014 C1015 1.394 1_545 S
C1014 C1020 1.465 . S
C1015 C1010 1.399 . S
C1015 C1014 1.394 1_565 S
C1015 C1016 1.516 . S
C1016 C1015 1.516 . S
C1016 C1017 1.502 . S
C1016 C1018 1.561 . S
C1016 C1019 1.526 . S
C1017 H1001 0.959 . S
C1017 H1002 0.959 . S
C1017 H1003 0.961 . S
C1017 C1016 1.502 . S
C1018 H1004 0.960 . S
C1018 H1005 0.961 . S
C1018 H1006 0.959 . S
C1018 C1016 1.561 . S
C1019 C1016 1.526 . S
C1019 C1020 1.396 1_565 S
C1019 C1024 1.390 . S
C1020 C1014 1.465 . S
C1020 C1019 1.396 1_545 S
C1020 C1021 1.399 . S
C1021 H1007 0.929 . S
C1021 C1020 1.399 . S
C1021 C1022 1.385 . S
C1022 H1008 0.931 . S
C1022 C1021 1.385 . S
C1022 C1023 1.389 . S
C1023 C1022 1.389 . S
C1023 C1024 1.387 1_545 S
C1024 H1009 0.930 . S
C1024 C1019 1.390 . S
C1024 C1023 1.387 1_565 S
H1025 C1037 0.930 . S
H1026 C1039 0.930 . S
H1027 C1040 0.930 1_655 S
H1028 C1044 0.959 . S
H1029 C1044 0.959 . S
H1030 C1044 0.961 . S
H1031 C1045 0.960 . S
H1032 C1045 0.961 . S
H1033 C1045 0.959 1_655 S
H1034 C1048 0.929 . S
H1035 C1049 0.931 . S
H1036 C1051 0.930 . S
C1037 H1025 0.930 . S
C1037 C1038 1.399 . S
C1037 C1042 1.399 . S
C1038 C1037 1.399 . S
C1038 C1039 1.376 . S
C1039 H1026 0.930 . S
C1039 C1038 1.376 . S
C1039 C1040 1.388 . S
C1040 H1027 0.930 1_455 S
C1040 C1039 1.388 . S
C1040 C1041 1.390 . S
C1041 C1040 1.390 . S
C1041 C1042 1.394 . S
C1041 C1047 1.465 1_455 S
C1042 C1037 1.399 . S
C1042 C1041 1.394 . S
C1042 C1043 1.516 . S
C1043 C1042 1.516 . S
C1043 C1044 1.502 . S
C1043 C1045 1.561 . S
C1043 C1046 1.526 1_455 S
C1044 H1028 0.959 . S
C1044 H1029 0.959 . S
C1044 H1030 0.961 . S
C1044 C1043 1.502 . S
C1045 H1031 0.960 . S
C1045 H1032 0.961 . S
C1045 H1033 0.959 1_455 S
C1045 C1043 1.561 . S
C1046 C1043 1.526 1_655 S
C1046 C1047 1.396 . S
C1046 C1051 1.390 . S
C1047 C1041 1.465 1_655 S
C1047 C1046 1.396 . S
C1047 C1048 1.399 . S
C1048 H1034 0.929 . S
C1048 C1047 1.399 . S
C1048 C1049 1.385 . S
C1049 H1035 0.931 . S
C1049 C1048 1.385 . S
C1049 C1050 1.389 . S
C1050 C1049 1.389 . S
C1050 C1051 1.387 . S
C1051 H1036 0.930 . S
C1051 C1046 1.390 . S
C1051 C1050 1.387 . S
H1052 C1064 0.930 . S
H1053 C1066 0.930 . S
H1054 C1067 0.930 . S
H1055 C1071 0.959 . S
H1056 C1071 0.959 . S
H1057 C1071 0.961 . S
H1058 C1072 0.960 . S
H1059 C1072 0.961 . S
H1060 C1072 0.959 . S
H1061 C1075 0.929 . S
H1062 C1076 0.931 . S
H1063 C1078 0.930 . S
C1064 H1052 0.930 . S
C1064 C1065 1.399 . S
C1064 C1069 1.399 . S
C1065 C1064 1.399 . S
C1065 C1066 1.376 . S
C1066 H1053 0.930 . S
C1066 C1065 1.376 . S
C1066 C1067 1.388 . S
C1067 H1054 0.930 . S
C1067 C1066 1.388 . S
C1067 C1068 1.390 . S
C1068 C1067 1.390 . S
C1068 C1069 1.394 . S
C1068 C1074 1.465 . S
C1069 C1064 1.399 . S
C1069 C1068 1.394 . S
C1069 C1070 1.516 . S
C1070 C1069 1.516 . S
C1070 C1071 1.502 . S
C1070 C1072 1.561 . S
C1070 C1073 1.526 . S
C1071 H1055 0.959 . S
C1071 H1056 0.959 . S
C1071 H1057 0.961 . S
C1071 C1070 1.502 . S
C1072 H1058 0.960 . S
C1072 H1059 0.961 . S
C1072 H1060 0.959 . S
C1072 C1070 1.561 . S
C1073 C1070 1.526 . S
C1073 C1074 1.396 . S
C1073 C1078 1.390 . S
C1074 C1068 1.465 . S
C1074 C1073 1.396 . S
C1074 C1075 1.399 . S
C1075 H1061 0.929 . S
C1075 C1074 1.399 . S
C1075 C1076 1.385 . S
C1076 H1062 0.931 . S
C1076 C1075 1.385 . S
C1076 C1077 1.389 . S
C1077 C1076 1.389 . S
C1077 C1078 1.387 . S
C1078 H1063 0.930 . S
C1078 C1073 1.390 . S
C1078 C1077 1.387 . S
H1079 C1091 0.930 1_565 S
H1080 C1093 0.930 . S
H1081 C1094 0.930 . S
H1082 C1098 0.959 1_545 S
H1083 C1098 0.959 . S
H1084 C1098 0.961 . S
H1085 C1099 0.960 . S
H1086 C1099 0.961 . S
H1087 C1099 0.959 . S
H1088 C1102 0.929 . S
H1089 C1103 0.931 1_545 S
H1090 C1105 0.930 . S
C1091 H1079 0.930 1_545 S
C1091 C1092 1.399 . S
C1091 C1096 1.399 1_545 S
C1092 C1091 1.399 . S
C1092 C1093 1.376 . S
C1093 H1080 0.930 . S
C1093 C1092 1.376 . S
C1093 C1094 1.388 . S
C1094 H1081 0.930 . S
C1094 C1093 1.388 . S
C1094 C1095 1.390 . S
C1095 C1094 1.390 . S
C1095 C1096 1.394 1_545 S
C1095 C1101 1.465 . S
C1096 C1091 1.399 1_565 S
C1096 C1095 1.394 1_565 S
C1096 C1097 1.516 . S
C1097 C1096 1.516 . S
C1097 C1098 1.502 . S
C1097 C1099 1.561 . S
C1097 C1100 1.526 . S
C1098 H1082 0.959 1_565 S
C1098 H1083 0.959 . S
C1098 H1084 0.961 . S
C1098 C1097 1.502 . S
C1099 H1085 0.960 . S
C1099 H1086 0.961 . S
C1099 H1087 0.959 . S
C1099 C1097 1.561 . S
C1100 C1097 1.526 . S
C1100 C1101 1.396 1_565 S
C1100 C1105 1.390 . S
C1101 C1095 1.465 . S
C1101 C1100 1.396 1_545 S
C1101 C1102 1.399 . S
C1102 H1088 0.929 . S
C1102 C1101 1.399 . S
C1102 C1103 1.385 1_545 S
C1103 H1089 0.931 1_565 S
C1103 C1102 1.385 1_565 S
C1103 C1104 1.389 . S
C1104 C1103 1.389 . S
C1104 C1105 1.387 . S
C1105 H1090 0.930 . S
C1105 C1100 1.390 . S
C1105 C1104 1.387 . S
H1106 C1118 0.930 . S
H1107 C1120 0.930 . S
H1108 C1121 0.930 . S
H1109 C1125 0.959 . S
H1110 C1125 0.959 . S
H1111 C1125 0.961 . S
H1112 C1126 0.960 . S
H1113 C1126 0.961 . S
H1114 C1126 0.959 . S
H1115 C1129 0.929 1_655 S
H1116 C1130 0.931 . S
H1117 C1132 0.930 . S
C1118 H1106 0.930 . S
C1118 C1119 1.399 . S
C1118 C1123 1.399 . S
C1119 C1118 1.399 . S
C1119 C1120 1.376 . S
C1120 H1107 0.930 . S
C1120 C1119 1.376 . S
C1120 C1121 1.388 . S
C1121 H1108 0.930 . S
C1121 C1120 1.388 . S
C1121 C1122 1.390 . S
C1122 C1121 1.390 . S
C1122 C1123 1.394 . S
C1122 C1128 1.465 1_655 S
C1123 C1118 1.399 . S
C1123 C1122 1.394 . S
C1123 C1124 1.516 1_655 S
C1124 C1123 1.516 1_455 S
C1124 C1125 1.502 . S
C1124 C1126 1.561 . S
C1124 C1127 1.526 . S
C1125 H1109 0.959 . S
C1125 H1110 0.959 . S
C1125 H1111 0.961 . S
C1125 C1124 1.502 . S
C1126 H1112 0.960 . S
C1126 H1113 0.961 . S
C1126 H1114 0.959 . S
C1126 C1124 1.561 . S
C1127 C1124 1.526 . S
C1127 C1128 1.396 . S
C1127 C1132 1.390 . S
C1128 C1122 1.465 1_455 S
C1128 C1127 1.396 . S
C1128 C1129 1.399 . S
C1129 H1115 0.929 1_455 S
C1129 C1128 1.399 . S
C1129 C1130 1.385 . S
C1130 H1116 0.931 . S
C1130 C1129 1.385 . S
C1130 C1131 1.389 . S
C1131 C1130 1.389 . S
C1131 C1132 1.387 . S
C1132 H1117 0.930 . S
C1132 C1127 1.390 . S
C1132 C1131 1.387 . S
H1133 C1145 0.930 . S
H1134 C1147 0.930 . S
H1135 C1148 0.930 . S
H1136 C1152 0.959 . S
H1137 C1152 0.959 . S
H1138 C1152 0.961 . S
H1139 C1153 0.960 . S
H1140 C1153 0.961 . S
H1141 C1153 0.959 . S
H1142 C1156 0.929 . S
H1143 C1157 0.931 . S
H1144 C1159 0.930 . S
C1145 H1133 0.930 . S
C1145 C1146 1.399 . S
C1145 C1150 1.399 . S
C1146 C1145 1.399 . S
C1146 C1147 1.376 . S
C1147 H1134 0.930 . S
C1147 C1146 1.376 . S
C1147 C1148 1.388 . S
C1148 H1135 0.930 . S
C1148 C1147 1.388 . S
C1148 C1149 1.390 . S
C1149 C1148 1.390 . S
C1149 C1150 1.394 . S
C1149 C1155 1.465 1_554 S
C1150 C1145 1.399 . S
C1150 C1149 1.394 . S
C1150 C1151 1.516 . S
C1151 C1150 1.516 . S
C1151 C1152 1.502 . S
C1151 C1153 1.561 1_554 S
C1151 C1154 1.526 1_554 S
C1152 H1136 0.959 . S
C1152 H1137 0.959 . S
C1152 H1138 0.961 . S
C1152 C1151 1.502 . S
C1153 H1139 0.960 . S
C1153 H1140 0.961 . S
C1153 H1141 0.959 . S
C1153 C1151 1.561 1_556 S
C1154 C1151 1.526 1_556 S
C1154 C1155 1.396 . S
C1154 C1159 1.390 . S
C1155 C1149 1.465 1_556 S
C1155 C1154 1.396 . S
C1155 C1156 1.399 . S
C1156 H1142 0.929 . S
C1156 C1155 1.399 . S
C1156 C1157 1.385 . S
C1157 H1143 0.931 . S
C1157 C1156 1.385 . S
C1157 C1158 1.389 . S
C1158 C1157 1.389 . S
C1158 C1159 1.387 . S
C1159 H1144 0.930 . S
C1159 C1154 1.390 . S
C1159 C1158 1.387 . S
H1160 C1172 0.930 . S
H1161 C1174 0.930 . S
H1162 C1175 0.930 . S
H1163 C1179 0.959 . S
H1164 C1179 0.969 . S
H1165 C1179 0.961 . S
H1166 C1180 0.960 . S
H1167 C1180 0.961 1_554 S
H1168 C1180 0.959 . S
H1169 C1183 0.915 1_556 S
H1170 C1184 0.931 . S
H1171 C1186 0.930 . S
C1172 H1160 0.930 . S
C1172 C1173 1.399 . S
C1172 C1177 1.399 . S
C1173 C1172 1.399 . S
C1173 C1174 1.376 . S
C1174 H1161 0.930 . S
C1174 C1173 1.376 . S
C1174 C1175 1.388 . S
C1175 H1162 0.930 . S
C1175 C1174 1.388 . S
C1175 C1176 1.390 . S
C1176 C1175 1.390 . S
C1176 C1177 1.394 . S
C1176 C1182 1.465 1_456 S
C1177 C1172 1.399 . S
C1177 C1176 1.394 . S
C1177 C1178 1.516 1_456 S
C1178 C1177 1.516 1_654 S
C1178 C1179 1.502 1_655 S
C1178 C1180 1.561 1_554 S
C1178 C1181 1.526 . S
C1179 H1163 0.959 . S
C1179 H1164 0.969 . S
C1179 H1165 0.961 . S
C1179 C1178 1.502 1_455 S
C1180 H1166 0.960 . S
C1180 H1167 0.961 1_556 S
C1180 H1168 0.959 . S
C1180 C1178 1.561 1_556 S
C1181 C1178 1.526 . S
C1181 C1182 1.396 . S
C1181 C1186 1.390 . S
C1182 C1176 1.465 1_654 S
C1182 C1181 1.396 . S
C1182 C1183 1.399 . S
C1183 H1169 0.915 1_554 S
C1183 C1182 1.399 . S
C1183 C1184 1.385 . S
C1184 H1170 0.931 . S
C1184 C1183 1.385 . S
C1184 C1185 1.389 . S
C1185 C1184 1.389 . S
C1185 C1186 1.387 . S
C1186 H1171 0.930 . S
C1186 C1181 1.390 . S
C1186 C1185 1.387 . S
H1187 C1199 0.930 . S
H1188 C1201 0.930 . S
H1189 C1202 0.930 . S
H1190 C1206 0.959 . S
H1191 C1206 0.959 . S
H1192 C1206 0.961 . S
H1193 C1207 0.960 . S
H1194 C1207 0.961 . S
H1195 C1207 0.959 . S
H1196 C1210 0.929 . S
H1197 C1211 0.931 . S
H1198 C1213 0.930 . S
C1199 H1187 0.930 . S
C1199 C1200 1.399 . S
C1199 C1204 1.399 . S
C1200 C1199 1.399 . S
C1200 C1201 1.376 . S
C1201 H1188 0.930 . S
C1201 C1200 1.376 . S
C1201 C1202 1.388 . S
C1202 H1189 0.930 . S
C1202 C1201 1.388 . S
C1202 C1203 1.390 . S
C1203 C1202 1.390 . S
C1203 C1204 1.394 . S
C1203 C1209 1.465 . S
C1204 C1199 1.399 . S
C1204 C1203 1.394 . S
C1204 C1205 1.516 . S
C1205 C1204 1.516 . S
C1205 C1206 1.502 . S
C1205 C1207 1.561 . S
C1205 C1208 1.526 . S
C1206 H1190 0.959 . S
C1206 H1191 0.959 . S
C1206 H1192 0.961 . S
C1206 C1205 1.502 . S
C1207 H1193 0.960 . S
C1207 H1194 0.961 . S
C1207 H1195 0.959 . S
C1207 C1205 1.561 . S
C1208 C1205 1.526 . S
C1208 C1209 1.396 . S
C1208 C1213 1.390 . S
C1209 C1203 1.465 . S
C1209 C1208 1.396 . S
C1209 C1210 1.399 . S
C1210 H1196 0.929 . S
C1210 C1209 1.399 . S
C1210 C1211 1.385 . S
C1211 H1197 0.931 . S
C1211 C1210 1.385 . S
C1211 C1212 1.389 . S
C1212 C1211 1.389 . S
C1212 C1213 1.387 . S
C1213 H1198 0.930 . S
C1213 C1208 1.390 . S
C1213 C1212 1.387 . S
H1214 C1226 0.930 . S
H1215 C1228 0.930 . S
H1216 C1229 0.930 . S
H1217 C1233 0.959 . S
H1218 C1233 0.959 . S
H1219 C1233 0.961 . S
H1220 C1234 0.960 . S
H1221 C1234 0.961 . S
H1222 C1234 0.959 . S
H1223 C1237 0.929 . S
H1224 C1238 0.931 . S
H1225 C1240 0.930 . S
C1226 H1214 0.930 . S
C1226 C1227 1.399 . S
C1226 C1231 1.399 . S
C1227 C1226 1.399 . S
C1227 C1228 1.376 . S
C1228 H1215 0.930 . S
C1228 C1227 1.376 . S
C1228 C1229 1.388 . S
C1229 H1216 0.930 . S
C1229 C1228 1.388 . S
C1229 C1230 1.390 . S
C1230 C1229 1.390 . S
C1230 C1231 1.394 . S
C1230 C1236 1.465 1_556 S
C1231 C1226 1.399 . S
C1231 C1230 1.394 . S
C1231 C1232 1.536 . S
C1232 C1231 1.536 . S
C1232 C1233 1.527 . S
C1232 C1234 1.530 1_556 S
C1232 C1235 1.510 1_556 S
C1233 H1217 0.959 . S
C1233 H1218 0.959 . S
C1233 H1219 0.961 . S
C1233 C1232 1.527 . S
C1234 H1220 0.960 . S
C1234 H1221 0.961 . S
C1234 H1222 0.959 . S
C1234 C1232 1.530 1_554 S
C1235 C1232 1.510 1_554 S
C1235 C1236 1.396 . S
C1235 C1240 1.390 . S
C1236 C1230 1.465 1_554 S
C1236 C1235 1.396 . S
C1236 C1237 1.399 . S
C1237 H1223 0.929 . S
C1237 C1236 1.399 . S
C1237 C1238 1.385 . S
C1238 H1224 0.931 . S
C1238 C1237 1.385 . S
C1238 C1239 1.389 . S
C1239 C1238 1.389 . S
C1239 C1240 1.387 . S
C1240 H1225 0.930 . S
C1240 C1235 1.390 . S
C1240 C1239 1.387 . S
H1241 C1253 0.930 . S
H1242 C1255 0.930 . S
H1243 C1256 0.930 . S
H1244 C1260 0.959 . S
H1245 C1260 0.959 . S
H1246 C1260 0.961 . S
H1247 C1261 0.960 . S
H1248 C1261 0.961 . S
H1249 C1261 0.959 . S
H1250 C1264 0.929 . S
H1251 C1265 0.931 . S
H1252 C1267 0.930 . S
C1253 H1241 0.930 . S
C1253 C1254 1.399 . S
C1253 C1258 1.399 . S
C1254 C1253 1.399 . S
C1254 C1255 1.376 . S
C1255 H1242 0.930 . S
C1255 C1254 1.376 . S
C1255 C1256 1.388 . S
C1256 H1243 0.930 . S
C1256 C1255 1.388 . S
C1256 C1257 1.390 . S
C1257 C1256 1.390 . S
C1257 C1258 1.394 . S
C1257 C1263 1.465 . S
C1258 C1253 1.399 . S
C1258 C1257 1.394 . S
C1258 C1259 1.516 . S
C1259 C1258 1.516 . S
C1259 C1260 1.502 . S
C1259 C1261 1.561 . S
C1259 C1262 1.526 . S
C1260 H1244 0.959 . S
C1260 H1245 0.959 . S
C1260 H1246 0.961 . S
C1260 C1259 1.502 . S
C1261 H1247 0.960 . S
C1261 H1248 0.961 . S
C1261 H1249 0.959 . S
C1261 C1259 1.561 . S
C1262 C1259 1.526 . S
C1262 C1263 1.396 . S
C1262 C1267 1.390 . S
C1263 C1257 1.465 . S
C1263 C1262 1.396 . S
C1263 C1264 1.399 . S
C1264 H1250 0.929 . S
C1264 C1263 1.399 . S
C1264 C1265 1.385 . S
C1265 H1251 0.931 . S
C1265 C1264 1.385 . S
C1265 C1266 1.389 . S
C1266 C1265 1.389 . S
C1266 C1267 1.387 . S
C1267 H1252 0.930 . S
C1267 C1262 1.390 . S
C1267 C1266 1.387 . S
H1268 C1280 0.930 . S
H1269 C1282 0.930 . S
H1270 C1283 0.930 . S
H1271 C1287 0.959 1_545 S
H1272 C1287 0.959 . S
H1273 C1287 0.961 . S
H1274 C1288 0.960 . S
H1275 C1288 0.961 . S
H1276 C1288 0.959 . S
H1277 C1291 0.929 . S
H1278 C1292 0.931 . S
H1279 C1294 0.930 . S
C1280 H1268 0.930 . S
C1280 C1281 1.399 . S
C1280 C1285 1.396 1_545 S
C1281 C1280 1.399 . S
C1281 C1282 1.376 . S
C1282 H1269 0.930 . S
C1282 C1281 1.376 . S
C1282 C1283 1.388 1_556 S
C1283 H1270 0.930 . S
C1283 C1282 1.388 1_554 S
C1283 C1284 1.390 . S
C1284 C1283 1.390 . S
C1284 C1285 1.391 1_544 S
C1284 C1290 1.465 1_545 S
C1285 C1280 1.396 1_565 S
C1285 C1284 1.391 1_566 S
C1285 C1286 1.523 . S
C1286 C1285 1.523 . S
C1286 C1287 1.502 . S
C1286 C1288 1.561 . S
C1286 C1289 1.526 1_556 S
C1287 H1271 0.959 1_565 S
C1287 H1272 0.959 . S
C1287 H1273 0.961 . S
C1287 C1286 1.502 . S
C1288 H1274 0.960 . S
C1288 H1275 0.961 . S
C1288 H1276 0.959 . S
C1288 C1286 1.561 . S
C1289 C1286 1.526 1_554 S
C1289 C1290 1.396 . S
C1289 C1294 1.390 . S
C1290 C1284 1.465 1_565 S
C1290 C1289 1.396 . S
C1290 C1291 1.399 1_565 S
C1291 H1277 0.929 . S
C1291 C1290 1.399 1_545 S
C1291 C1292 1.385 1_545 S
C1292 H1278 0.931 . S
C1292 C1291 1.385 1_565 S
C1292 C1293 1.389 . S
C1293 C1292 1.389 . S
C1293 C1294 1.387 . S
C1294 H1279 0.930 . S
C1294 C1289 1.390 . S
C1294 C1293 1.387 . S
H1295 C1307 0.930 . S
H1296 C1309 0.930 . S
H1297 C1310 0.930 . S
H1298 C1314 0.959 . S
H1299 C1314 0.959 . S
H1300 C1314 0.961 . S
H1301 C1315 0.960 . S
H1302 C1315 0.961 . S
H1303 C1315 0.959 . S
H1304 C1318 0.929 . S
H1305 C1319 0.931 . S
H1306 C1321 0.930 . S
C1307 H1295 0.930 . S
C1307 C1308 1.399 . S
C1307 C1312 1.399 . S
C1308 C1307 1.399 . S
C1308 C1309 1.376 . S
C1309 H1296 0.930 . S
C1309 C1308 1.376 . S
C1309 C1310 1.388 . S
C1310 H1297 0.930 . S
C1310 C1309 1.388 . S
C1310 C1311 1.390 . S
C1311 C1310 1.390 . S
C1311 C1312 1.394 . S
C1311 C1317 1.465 . S
C1312 C1307 1.399 . S
C1312 C1311 1.394 . S
C1312 C1313 1.516 . S
C1313 C1312 1.516 . S
C1313 C1314 1.502 . S
C1313 C1315 1.561 . S
C1313 C1316 1.526 . S
C1314 H1298 0.959 . S
C1314 H1299 0.959 . S
C1314 H1300 0.961 . S
C1314 C1313 1.502 . S
C1315 H1301 0.960 . S
C1315 H1302 0.961 . S
C1315 H1303 0.959 . S
C1315 C1313 1.561 . S
C1316 C1313 1.526 . S
C1316 C1317 1.396 . S
C1316 C1321 1.390 . S
C1317 C1311 1.465 . S
C1317 C1316 1.396 . S
C1317 C1318 1.399 . S
C1318 H1304 0.929 . S
C1318 C1317 1.399 . S
C1318 C1319 1.385 . S
C1319 H1305 0.931 . S
C1319 C1318 1.385 . S
C1319 C1320 1.389 . S
C1320 C1319 1.389 . S
C1320 C1321 1.387 . S
C1321 H1306 0.930 . S
C1321 C1316 1.390 . S
C1321 C1320 1.387 . S
H1322 C1334 0.930 . S
H1323 C1336 0.930 . S
H1324 C1337 0.930 . S
H1325 C1341 0.959 . S
H1326 C1341 0.959 . S
H1327 C1341 0.961 . S
H1328 C1342 0.960 . S
H1329 C1342 0.961 . S
H1330 C1342 0.959 . S
H1331 C1345 0.929 . S
H1332 C1346 0.931 . S
H1333 C1348 0.930 . S
C1334 H1322 0.930 . S
C1334 C1335 1.399 . S
C1334 C1339 1.399 . S
C1335 C1334 1.399 . S
C1335 C1336 1.376 . S
C1336 H1323 0.930 . S
C1336 C1335 1.376 . S
C1336 C1337 1.388 . S
C1337 H1324 0.930 . S
C1337 C1336 1.388 . S
C1337 C1338 1.390 . S
C1338 C1337 1.390 . S
C1338 C1339 1.394 . S
C1338 C1344 1.465 . S
C1339 C1334 1.399 . S
C1339 C1338 1.394 . S
C1339 C1340 1.516 . S
C1340 C1339 1.516 . S
C1340 C1341 1.502 . S
C1340 C1342 1.561 . S
C1340 C1343 1.526 . S
C1341 H1325 0.959 . S
C1341 H1326 0.959 . S
C1341 H1327 0.961 . S
C1341 C1340 1.502 . S
C1342 H1328 0.960 . S
C1342 H1329 0.961 . S
C1342 H1330 0.959 . S
C1342 C1340 1.561 . S
C1343 C1340 1.526 . S
C1343 C1344 1.396 . S
C1343 C1348 1.390 . S
C1344 C1338 1.465 . S
C1344 C1343 1.396 . S
C1344 C1345 1.399 . S
C1345 H1331 0.929 . S
C1345 C1344 1.399 . S
C1345 C1346 1.385 . S
C1346 H1332 0.931 . S
C1346 C1345 1.385 . S
C1346 C1347 1.389 . S
C1347 C1346 1.389 . S
C1347 C1348 1.387 . S
C1348 H1333 0.930 . S
C1348 C1343 1.390 . S
C1348 C1347 1.387 . S
H1349 C1361 0.930 . S
H1350 C1363 0.930 . S
H1351 C1364 0.930 . S
H1352 C1368 0.959 . S
H1353 C1368 0.959 . S
H1354 C1368 0.961 . S
H1355 C1369 0.960 . S
H1356 C1369 0.961 . S
H1357 C1369 0.959 . S
H1358 C1372 0.929 . S
H1359 C1373 0.931 . S
H1360 C1375 0.930 . S
C1361 H1349 0.930 . S
C1361 C1362 1.399 . S
C1361 C1366 1.399 . S
C1362 C1361 1.399 . S
C1362 C1363 1.376 . S
C1363 H1350 0.930 . S
C1363 C1362 1.376 . S
C1363 C1364 1.388 . S
C1364 H1351 0.930 . S
C1364 C1363 1.388 . S
C1364 C1365 1.390 . S
C1365 C1364 1.390 . S
C1365 C1366 1.394 . S
C1365 C1371 1.465 . S
C1366 C1361 1.399 . S
C1366 C1365 1.394 . S
C1366 C1367 1.516 . S
C1367 C1366 1.516 . S
C1367 C1368 1.502 . S
C1367 C1369 1.561 . S
C1367 C1370 1.526 . S
C1368 H1352 0.959 . S
C1368 H1353 0.959 . S
C1368 H1354 0.961 . S
C1368 C1367 1.502 . S
C1369 H1355 0.960 . S
C1369 H1356 0.961 . S
C1369 H1357 0.959 . S
C1369 C1367 1.561 . S
C1370 C1367 1.526 . S
C1370 C1371 1.396 . S
C1370 C1375 1.390 . S
C1371 C1365 1.465 . S
C1371 C1370 1.396 . S
C1371 C1372 1.399 . S
C1372 H1358 0.929 . S
C1372 C1371 1.399 . S
C1372 C1373 1.385 . S
C1373 H1359 0.931 . S
C1373 C1372 1.385 . S
C1373 C1374 1.389 . S
C1374 C1373 1.389 . S
C1374 C1375 1.387 . S
C1375 H1360 0.930 . S
C1375 C1370 1.390 . S
C1375 C1374 1.387 . S
H1376 C1388 0.930 . S
H1377 C1390 0.930 . S
H1378 C1391 0.930 . S
H1379 C1395 0.959 . S
H1380 C1395 0.959 . S
H1381 C1395 0.961 . S
H1382 C1396 0.960 . S
H1383 C1396 0.961 . S
H1384 C1396 0.959 . S
H1385 C1399 0.929 . S
H1386 C1400 0.931 . S
H1387 C1402 0.930 . S
C1388 H1376 0.930 . S
C1388 C1389 1.399 . S
C1388 C1393 1.399 . S
C1389 C1388 1.399 . S
C1389 C1390 1.376 . S
C1390 H1377 0.930 . S
C1390 C1389 1.376 . S
C1390 C1391 1.388 . S
C1391 H1378 0.930 . S
C1391 C1390 1.388 . S
C1391 C1392 1.390 . S
C1392 C1391 1.390 . S
C1392 C1393 1.394 . S
C1392 C1398 1.465 . S
C1393 C1388 1.399 . S
C1393 C1392 1.394 . S
C1393 C1394 1.516 . S
C1394 C1393 1.516 . S
C1394 C1395 1.502 . S
C1394 C1396 1.561 . S
C1394 C1397 1.526 . S
C1395 H1379 0.959 . S
C1395 H1380 0.959 . S
C1395 H1381 0.961 . S
C1395 C1394 1.502 . S
C1396 H1382 0.960 . S
C1396 H1383 0.961 . S
C1396 H1384 0.959 . S
C1396 C1394 1.561 . S
C1397 C1394 1.526 . S
C1397 C1398 1.396 . S
C1397 C1402 1.390 . S
C1398 C1392 1.465 . S
C1398 C1397 1.396 . S
C1398 C1399 1.399 . S
C1399 H1385 0.929 . S
C1399 C1398 1.399 . S
C1399 C1400 1.385 . S
C1400 H1386 0.931 . S
C1400 C1399 1.385 . S
C1400 C1401 1.389 . S
C1401 C1400 1.389 . S
C1401 C1402 1.387 . S
C1402 H1387 0.930 . S
C1402 C1397 1.390 . S
C1402 C1401 1.387 . S
H1403 C1415 0.930 . S
H1404 C1417 0.930 . S
H1405 C1418 0.930 . S
H1406 C1422 0.959 . S
H1407 C1422 0.959 . S
H1408 C1422 0.961 . S
H1409 C1423 0.960 . S
H1410 C1423 0.961 . S
H1411 C1423 0.959 . S
H1412 C1426 0.929 . S
H1413 C1427 0.931 . S
H1414 C1429 0.930 . S
C1415 H1403 0.930 . S
C1415 C1416 1.399 . S
C1415 C1420 1.399 . S
C1416 C1415 1.399 . S
C1416 C1417 1.376 . S
C1417 H1404 0.930 . S
C1417 C1416 1.376 . S
C1417 C1418 1.388 . S
C1418 H1405 0.930 . S
C1418 C1417 1.388 . S
C1418 C1419 1.390 . S
C1419 C1418 1.390 . S
C1419 C1420 1.394 . S
C1419 C1425 1.465 . S
C1420 C1415 1.399 . S
C1420 C1419 1.394 . S
C1420 C1421 1.516 . S
C1421 C1420 1.516 . S
C1421 C1422 1.502 . S
C1421 C1423 1.561 . S
C1421 C1424 1.526 . S
C1422 H1406 0.959 . S
C1422 H1407 0.959 . S
C1422 H1408 0.961 . S
C1422 C1421 1.502 . S
C1423 H1409 0.960 . S
C1423 H1410 0.961 . S
C1423 H1411 0.959 . S
C1423 C1421 1.561 . S
C1424 C1421 1.526 . S
C1424 C1425 1.396 . S
C1424 C1429 1.390 . S
C1425 C1419 1.465 . S
C1425 C1424 1.396 . S
C1425 C1426 1.399 . S
C1426 H1412 0.929 . S
C1426 C1425 1.399 . S
C1426 C1427 1.385 . S
C1427 H1413 0.931 . S
C1427 C1426 1.385 . S
C1427 C1428 1.389 . S
C1428 C1427 1.389 . S
C1428 C1429 1.387 . S
C1429 H1414 0.930 . S
C1429 C1424 1.390 . S
C1429 C1428 1.387 . S
H1430 C1442 0.930 . S
H1431 C1444 0.930 . S
H1432 C1445 0.930 . S
H1433 C1449 0.959 . S
H1434 C1449 0.959 . S
H1435 C1449 0.961 . S
H1436 C1450 0.960 . S
H1437 C1450 0.961 . S
H1438 C1450 0.959 . S
H1439 C1453 0.929 . S
H1440 C1454 0.931 . S
H1441 C1456 0.930 . S
C1442 H1430 0.930 . S
C1442 C1443 1.399 . S
C1442 C1447 1.399 . S
C1443 C1442 1.399 . S
C1443 C1444 1.376 . S
C1444 H1431 0.930 . S
C1444 C1443 1.376 . S
C1444 C1445 1.388 . S
C1445 H1432 0.930 . S
C1445 C1444 1.388 . S
C1445 C1446 1.390 . S
C1446 C1445 1.390 . S
C1446 C1447 1.394 . S
C1446 C1452 1.465 . S
C1447 C1442 1.399 . S
C1447 C1446 1.394 . S
C1447 C1448 1.516 . S
C1448 C1447 1.516 . S
C1448 C1449 1.502 . S
C1448 C1450 1.561 . S
C1448 C1451 1.526 . S
C1449 H1433 0.959 . S
C1449 H1434 0.959 . S
C1449 H1435 0.961 . S
C1449 C1448 1.502 . S
C1450 H1436 0.960 . S
C1450 H1437 0.961 . S
C1450 H1438 0.959 . S
C1450 C1448 1.561 . S
C1451 C1448 1.526 . S
C1451 C1452 1.396 . S
C1451 C1456 1.390 . S
C1452 C1446 1.465 . S
C1452 C1451 1.396 . S
C1452 C1453 1.399 . S
C1453 H1439 0.929 . S
C1453 C1452 1.399 . S
C1453 C1454 1.385 . S
C1454 H1440 0.931 . S
C1454 C1453 1.385 . S
C1454 C1455 1.389 . S
C1455 C1454 1.389 . S
C1455 C1456 1.387 . S
C1456 H1441 0.930 . S
C1456 C1451 1.390 . S
C1456 C1455 1.387 . S
H1457 C1469 0.930 . S
H1458 C1471 0.930 . S
H1459 C1472 0.930 . S
H1460 C1476 0.959 . S
H1461 C1476 0.959 . S
H1462 C1476 0.961 . S
H1463 C1477 0.960 . S
H1464 C1477 0.961 . S
H1465 C1477 0.959 . S
H1466 C1480 0.929 . S
H1467 C1481 0.931 . S
H1468 C1483 0.930 . S
C1469 H1457 0.930 . S
C1469 C1470 1.399 . S
C1469 C1474 1.399 . S
C1470 C1469 1.399 . S
C1470 C1471 1.376 . S
C1471 H1458 0.930 . S
C1471 C1470 1.376 . S
C1471 C1472 1.388 . S
C1472 H1459 0.930 . S
C1472 C1471 1.388 . S
C1472 C1473 1.390 . S
C1473 C1472 1.390 . S
C1473 C1474 1.394 . S
C1473 C1479 1.465 . S
C1474 C1469 1.399 . S
C1474 C1473 1.394 . S
C1474 C1475 1.516 . S
C1475 C1474 1.516 . S
C1475 C1476 1.502 . S
C1475 C1477 1.561 . S
C1475 C1478 1.526 . S
C1476 H1460 0.959 . S
C1476 H1461 0.959 . S
C1476 H1462 0.961 . S
C1476 C1475 1.502 . S
C1477 H1463 0.960 . S
C1477 H1464 0.961 . S
C1477 H1465 0.959 . S
C1477 C1475 1.561 . S
C1478 C1475 1.526 . S
C1478 C1479 1.396 . S
C1478 C1483 1.390 . S
C1479 C1473 1.465 . S
C1479 C1478 1.396 . S
C1479 C1480 1.399 . S
C1480 H1466 0.929 . S
C1480 C1479 1.399 . S
C1480 C1481 1.385 . S
C1481 H1467 0.931 . S
C1481 C1480 1.385 . S
C1481 C1482 1.389 . S
C1482 C1481 1.389 . S
C1482 C1483 1.387 . S
C1483 H1468 0.930 . S
C1483 C1478 1.390 . S
C1483 C1482 1.387 . S
H1484 C1496 0.930 . S
H1485 C1498 0.930 . S
H1486 C1499 0.930 . S
H1487 C1503 0.959 . S
H1488 C1503 0.959 . S
H1489 C1503 0.961 . S
H1490 C1504 0.960 . S
H1491 C1504 0.961 . S
H1492 C1504 0.959 . S
H1493 C1507 0.929 . S
H1494 C1508 0.931 1_565 S
H1495 C1510 0.930 . S
C1496 H1484 0.930 . S
C1496 C1497 1.399 . S
C1496 C1501 1.399 . S
C1497 C1496 1.399 . S
C1497 C1498 1.376 . S
C1498 H1485 0.930 . S
C1498 C1497 1.376 . S
C1498 C1499 1.388 . S
C1499 H1486 0.930 . S
C1499 C1498 1.388 . S
C1499 C1500 1.390 . S
C1500 C1499 1.390 . S
C1500 C1501 1.394 . S
C1500 C1506 1.465 . S
C1501 C1496 1.399 . S
C1501 C1500 1.394 . S
C1501 C1502 1.516 . S
C1502 C1501 1.516 . S
C1502 C1503 1.502 . S
C1502 C1504 1.561 . S
C1502 C1505 1.526 . S
C1503 H1487 0.959 . S
C1503 H1488 0.959 . S
C1503 H1489 0.961 . S
C1503 C1502 1.502 . S
C1504 H1490 0.960 . S
C1504 H1491 0.961 . S
C1504 H1492 0.959 . S
C1504 C1502 1.561 . S
C1505 C1502 1.526 . S
C1505 C1506 1.396 . S
C1505 C1510 1.390 . S
C1506 C1500 1.465 . S
C1506 C1505 1.396 . S
C1506 C1507 1.399 . S
C1507 H1493 0.929 . S
C1507 C1506 1.399 . S
C1507 C1508 1.385 . S
C1508 H1494 0.931 1_545 S
C1508 C1507 1.385 . S
C1508 C1509 1.389 . S
C1509 C1508 1.389 . S
C1509 C1510 1.387 . S
C1510 H1495 0.930 . S
C1510 C1505 1.390 . S
C1510 C1509 1.387 . S
H1511 C1523 0.930 . S
H1512 C1525 0.930 . S
H1513 C1526 0.930 . S
H1514 C1530 0.959 . S
H1515 C1530 0.959 . S
H1516 C1530 0.961 . S
H1517 C1531 0.960 . S
H1518 C1531 0.961 . S
H1519 C1531 0.959 . S
H1520 C1534 0.929 . S
H1521 C1535 0.931 . S
H1522 C1537 0.930 . S
C1523 H1511 0.930 . S
C1523 C1524 1.399 . S
C1523 C1528 1.399 . S
C1524 C1523 1.399 . S
C1524 C1525 1.376 . S
C1525 H1512 0.930 . S
C1525 C1524 1.376 . S
C1525 C1526 1.388 . S
C1526 H1513 0.930 . S
C1526 C1525 1.388 . S
C1526 C1527 1.390 . S
C1527 C1526 1.390 . S
C1527 C1528 1.394 . S
C1527 C1533 1.465 . S
C1528 C1523 1.399 . S
C1528 C1527 1.394 . S
C1528 C1529 1.516 . S
C1529 C1528 1.516 . S
C1529 C1530 1.502 . S
C1529 C1531 1.561 . S
C1529 C1532 1.526 . S
C1530 H1514 0.959 . S
C1530 H1515 0.959 . S
C1530 H1516 0.961 . S
C1530 C1529 1.502 . S
C1531 H1517 0.960 . S
C1531 H1518 0.961 . S
C1531 H1519 0.959 . S
C1531 C1529 1.561 . S
C1532 C1529 1.526 . S
C1532 C1533 1.396 . S
C1532 C1537 1.390 . S
C1533 C1527 1.465 . S
C1533 C1532 1.396 . S
C1533 C1534 1.399 . S
C1534 H1520 0.929 . S
C1534 C1533 1.399 . S
C1534 C1535 1.385 . S
C1535 H1521 0.931 . S
C1535 C1534 1.385 . S
C1535 C1536 1.389 . S
C1536 C1535 1.389 . S
C1536 C1537 1.387 . S
C1537 H1522 0.930 . S
C1537 C1532 1.390 . S
C1537 C1536 1.387 . S
H1538 C1550 0.930 . S
H1539 C1552 0.930 . S
H1540 C1553 0.930 . S
H1541 C1557 0.959 . S
H1542 C1557 0.959 . S
H1543 C1557 0.961 . S
H1544 C1558 0.960 . S
H1545 C1558 0.961 . S
H1546 C1558 0.959 . S
H1547 C1561 0.929 . S
H1548 C1562 0.931 . S
H1549 C1564 0.930 . S
C1550 H1538 0.930 . S
C1550 C1551 1.399 . S
C1550 C1555 1.399 . S
C1551 C1550 1.399 . S
C1551 C1552 1.376 . S
C1552 H1539 0.930 . S
C1552 C1551 1.376 . S
C1552 C1553 1.388 . S
C1553 H1540 0.930 . S
C1553 C1552 1.388 . S
C1553 C1554 1.390 . S
C1554 C1553 1.390 . S
C1554 C1555 1.394 . S
C1554 C1560 1.465 . S
C1555 C1550 1.399 . S
C1555 C1554 1.394 . S
C1555 C1556 1.516 . S
C1556 C1555 1.516 . S
C1556 C1557 1.502 . S
C1556 C1558 1.561 . S
C1556 C1559 1.526 . S
C1557 H1541 0.959 . S
C1557 H1542 0.959 . S
C1557 H1543 0.961 . S
C1557 C1556 1.502 . S
C1558 H1544 0.960 . S
C1558 H1545 0.961 . S
C1558 H1546 0.959 . S
C1558 C1556 1.561 . S
C1559 C1556 1.526 . S
C1559 C1560 1.396 . S
C1559 C1564 1.390 . S
C1560 C1554 1.465 . S
C1560 C1559 1.396 . S
C1560 C1561 1.399 . S
C1561 H1547 0.929 . S
C1561 C1560 1.399 . S
C1561 C1562 1.385 . S
C1562 H1548 0.931 . S
C1562 C1561 1.385 . S
C1562 C1563 1.389 . S
C1563 C1562 1.389 . S
C1563 C1564 1.387 . S
C1564 H1549 0.930 . S
C1564 C1559 1.390 . S
C1564 C1563 1.387 . S
H1565 C1577 0.930 . S
H1566 C1579 0.930 . S
H1567 C1580 0.930 . S
H1568 C1584 0.959 . S
H1569 C1584 0.959 . S
H1570 C1584 0.961 . S
H1571 C1585 0.960 . S
H1572 C1585 0.961 . S
H1573 C1585 0.959 . S
H1574 C1588 0.929 . S
H1575 C1589 0.931 . S
H1576 C1591 0.930 . S
C1577 H1565 0.930 . S
C1577 C1578 1.399 . S
C1577 C1582 1.399 . S
C1578 C1577 1.399 . S
C1578 C1579 1.376 . S
C1579 H1566 0.930 . S
C1579 C1578 1.376 . S
C1579 C1580 1.388 . S
C1580 H1567 0.930 . S
C1580 C1579 1.388 . S
C1580 C1581 1.390 . S
C1581 C1580 1.390 . S
C1581 C1582 1.394 . S
C1581 C1587 1.465 . S
C1582 C1577 1.399 . S
C1582 C1581 1.394 . S
C1582 C1583 1.516 . S
C1583 C1582 1.516 . S
C1583 C1584 1.502 . S
C1583 C1585 1.561 . S
C1583 C1586 1.526 . S
C1584 H1568 0.959 . S
C1584 H1569 0.959 . S
C1584 H1570 0.961 . S
C1584 C1583 1.502 . S
C1585 H1571 0.960 . S
C1585 H1572 0.961 . S
C1585 H1573 0.959 . S
C1585 C1583 1.561 . S
C1586 C1583 1.526 . S
C1586 C1587 1.396 . S
C1586 C1591 1.390 . S
C1587 C1581 1.465 . S
C1587 C1586 1.396 . S
C1587 C1588 1.399 . S
C1588 H1574 0.929 . S
C1588 C1587 1.399 . S
C1588 C1589 1.385 . S
C1589 H1575 0.931 . S
C1589 C1588 1.385 . S
C1589 C1590 1.389 . S
C1590 C1589 1.389 . S
C1590 C1591 1.387 . S
C1591 H1576 0.930 . S
C1591 C1586 1.390 . S
C1591 C1590 1.387 . S
H1592 C1604 0.930 . S
H1593 C1606 0.930 . S
H1594 C1607 0.930 . S
H1595 C1611 0.959 . S
H1596 C1611 0.959 . S
H1597 C1611 0.961 . S
H1598 C1612 0.960 . S
H1599 C1612 0.961 . S
H1600 C1612 0.959 . S
H1601 C1615 0.929 . S
H1602 C1616 0.931 . S
H1603 C1618 0.930 . S
C1604 H1592 0.930 . S
C1604 C1605 1.399 . S
C1604 C1609 1.399 . S
C1605 C1604 1.399 . S
C1605 C1606 1.376 . S
C1606 H1593 0.930 . S
C1606 C1605 1.376 . S
C1606 C1607 1.388 . S
C1607 H1594 0.930 . S
C1607 C1606 1.388 . S
C1607 C1608 1.390 . S
C1608 C1607 1.390 . S
C1608 C1609 1.394 . S
C1608 C1614 1.465 . S
C1609 C1604 1.399 . S
C1609 C1608 1.394 . S
C1609 C1610 1.516 . S
C1610 C1609 1.516 . S
C1610 C1611 1.502 . S
C1610 C1612 1.561 . S
C1610 C1613 1.526 . S
C1611 H1595 0.959 . S
C1611 H1596 0.959 . S
C1611 H1597 0.961 . S
C1611 C1610 1.502 . S
C1612 H1598 0.960 . S
C1612 H1599 0.961 . S
C1612 H1600 0.959 . S
C1612 C1610 1.561 . S
C1613 C1610 1.526 . S
C1613 C1614 1.396 . S
C1613 C1618 1.390 . S
C1614 C1608 1.465 . S
C1614 C1613 1.396 . S
C1614 C1615 1.399 . S
C1615 H1601 0.929 . S
C1615 C1614 1.399 . S
C1615 C1616 1.385 . S
C1616 H1602 0.931 . S
C1616 C1615 1.385 . S
C1616 C1617 1.389 . S
C1617 C1616 1.389 . S
C1617 C1618 1.387 . S
C1618 H1603 0.930 . S
C1618 C1613 1.390 . S
C1618 C1617 1.387 . S
H1619 C1631 0.930 . S
H1620 C1633 0.930 . S
H1621 C1634 0.930 . S
H1622 C1638 0.959 . S
H1623 C1638 0.959 . S
H1624 C1638 0.961 . S
H1625 C1639 0.960 . S
H1626 C1639 0.961 . S
H1627 C1639 0.959 . S
H1628 C1642 0.929 . S
H1629 C1643 0.931 . S
H1630 C1645 0.930 . S
C1631 H1619 0.930 . S
C1631 C1632 1.399 . S
C1631 C1636 1.399 . S
C1632 C1631 1.399 . S
C1632 C1633 1.376 . S
C1633 H1620 0.930 . S
C1633 C1632 1.376 . S
C1633 C1634 1.388 . S
C1634 H1621 0.930 . S
C1634 C1633 1.388 . S
C1634 C1635 1.390 . S
C1635 C1634 1.390 . S
C1635 C1636 1.394 . S
C1635 C1641 1.465 . S
C1636 C1631 1.399 . S
C1636 C1635 1.394 . S
C1636 C1637 1.516 . S
C1637 C1636 1.516 . S
C1637 C1638 1.502 . S
C1637 C1639 1.561 . S
C1637 C1640 1.526 . S
C1638 H1622 0.959 . S
C1638 H1623 0.959 . S
C1638 H1624 0.961 . S
C1638 C1637 1.502 . S
C1639 H1625 0.960 . S
C1639 H1626 0.961 . S
C1639 H1627 0.959 . S
C1639 C1637 1.561 . S
C1640 C1637 1.526 . S
C1640 C1641 1.396 . S
C1640 C1645 1.390 . S
C1641 C1635 1.465 . S
C1641 C1640 1.396 . S
C1641 C1642 1.399 . S
C1642 H1628 0.929 . S
C1642 C1641 1.399 . S
C1642 C1643 1.385 . S
C1643 H1629 0.931 . S
C1643 C1642 1.385 . S
C1643 C1644 1.389 . S
C1644 C1643 1.389 . S
C1644 C1645 1.387 . S
C1645 H1630 0.930 . S
C1645 C1640 1.390 . S
C1645 C1644 1.387 . S
H1646 C1658 0.930 . S
H1647 C1660 0.930 . S
H1648 C1661 0.930 . S
H1649 C1665 0.959 . S
H1650 C1665 0.959 . S
H1651 C1665 0.961 . S
H1652 C1666 0.960 . S
H1653 C1666 0.961 . S
H1654 C1666 0.959 . S
H1655 C1669 0.929 . S
H1656 C1670 0.931 . S
H1657 C1672 0.930 . S
C1658 H1646 0.930 . S
C1658 C1659 1.399 . S
C1658 C1663 1.399 . S
C1659 C1658 1.399 . S
C1659 C1660 1.376 . S
C1660 H1647 0.930 . S
C1660 C1659 1.376 . S
C1660 C1661 1.388 . S
C1661 H1648 0.930 . S
C1661 C1660 1.388 . S
C1661 C1662 1.390 . S
C1662 C1661 1.390 . S
C1662 C1663 1.394 . S
C1662 C1668 1.465 . S
C1663 C1658 1.399 . S
C1663 C1662 1.394 . S
C1663 C1664 1.516 . S
C1664 C1663 1.516 . S
C1664 C1665 1.502 . S
C1664 C1666 1.561 . S
C1664 C1667 1.526 . S
C1665 H1649 0.959 . S
C1665 H1650 0.959 . S
C1665 H1651 0.961 . S
C1665 C1664 1.502 . S
C1666 H1652 0.960 . S
C1666 H1653 0.961 . S
C1666 H1654 0.959 . S
C1666 C1664 1.561 . S
C1667 C1664 1.526 . S
C1667 C1668 1.396 . S
C1667 C1672 1.390 . S
C1668 C1662 1.465 . S
C1668 C1667 1.396 . S
C1668 C1669 1.399 . S
C1669 H1655 0.929 . S
C1669 C1668 1.399 . S
C1669 C1670 1.385 . S
C1670 H1656 0.931 . S
C1670 C1669 1.385 . S
C1670 C1671 1.389 . S
C1671 C1670 1.389 . S
C1671 C1672 1.387 . S
C1672 H1657 0.930 . S
C1672 C1667 1.390 . S
C1672 C1671 1.387 . S
H1673 C1685 0.930 . S
H1674 C1687 0.930 . S
H1675 C1688 0.930 . S
H1676 C1692 0.959 . S
H1677 C1692 0.959 . S
H1678 C1692 0.961 . S
H1679 C1693 0.960 . S
H1680 C1693 0.961 . S
H1681 C1693 0.959 . S
H1682 C1696 0.929 . S
H1683 C1697 0.916 1_545 S
H1684 C1699 0.930 . S
C1685 H1673 0.930 . S
C1685 C1686 1.399 . S
C1685 C1690 1.399 . S
C1686 C1685 1.399 . S
C1686 C1687 1.376 . S
C1687 H1674 0.930 . S
C1687 C1686 1.376 . S
C1687 C1688 1.388 . S
C1688 H1675 0.930 . S
C1688 C1687 1.388 . S
C1688 C1689 1.390 . S
C1689 C1688 1.390 . S
C1689 C1690 1.394 . S
C1689 C1695 1.465 . S
C1690 C1685 1.399 . S
C1690 C1689 1.394 . S
C1690 C1691 1.516 . S
C1691 C1690 1.516 . S
C1691 C1692 1.502 . S
C1691 C1693 1.561 . S
C1691 C1694 1.526 . S
C1692 H1676 0.959 . S
C1692 H1677 0.959 . S
C1692 H1678 0.961 . S
C1692 C1691 1.502 . S
C1693 H1679 0.960 . S
C1693 H1680 0.961 . S
C1693 H1681 0.959 . S
C1693 C1691 1.561 . S
C1694 C1691 1.526 . S
C1694 C1695 1.396 . S
C1694 C1699 1.390 . S
C1695 C1689 1.465 . S
C1695 C1694 1.396 . S
C1695 C1696 1.399 . S
C1696 H1682 0.929 . S
C1696 C1695 1.399 . S
C1696 C1697 1.385 . S
C1697 H1683 0.916 1_565 S
C1697 C1696 1.385 . S
C1697 C1698 1.389 . S
C1698 C1697 1.389 . S
C1698 C1699 1.387 . S
C1699 H1684 0.930 . S
C1699 C1694 1.390 . S
C1699 C1698 1.387 . S
H1700 C1712 0.930 . S
H1701 C1714 0.930 . S
H1702 C1715 0.930 . S
H1703 C1719 0.959 . S
H1704 C1719 0.959 . S
H1705 C1719 0.961 . S
H1706 C1720 0.960 . S
H1707 C1720 0.961 . S
H1708 C1720 0.959 . S
H1709 C1723 0.929 . S
H1710 C1724 0.931 . S
H1711 C1726 0.930 . S
C1712 H1700 0.930 . S
C1712 C1713 1.399 . S
C1712 C1717 1.399 . S
C1713 C1712 1.399 . S
C1713 C1714 1.376 . S
C1714 H1701 0.930 . S
C1714 C1713 1.376 . S
C1714 C1715 1.388 . S
C1715 H1702 0.930 . S
C1715 C1714 1.388 . S
C1715 C1716 1.390 . S
C1716 C1715 1.390 . S
C1716 C1717 1.394 . S
C1716 C1722 1.465 . S
C1717 C1712 1.399 . S
C1717 C1716 1.394 . S
C1717 C1718 1.516 . S
C1718 C1717 1.516 . S
C1718 C1719 1.502 . S
C1718 C1720 1.561 . S
C1718 C1721 1.526 . S
C1719 H1703 0.959 . S
C1719 H1704 0.959 . S
C1719 H1705 0.961 . S
C1719 C1718 1.502 . S
C1720 H1706 0.960 . S
C1720 H1707 0.961 . S
C1720 H1708 0.959 . S
C1720 C1718 1.561 . S
C1721 C1718 1.526 . S
C1721 C1722 1.396 . S
C1721 C1726 1.390 . S
C1722 C1716 1.465 . S
C1722 C1721 1.396 . S
C1722 C1723 1.399 . S
C1723 H1709 0.929 . S
C1723 C1722 1.399 . S
C1723 C1724 1.385 . S
C1724 H1710 0.931 . S
C1724 C1723 1.385 . S
C1724 C1725 1.389 . S
C1725 C1724 1.389 . S
C1725 C1726 1.387 . S
C1726 H1711 0.930 . S
C1726 C1721 1.390 . S
C1726 C1725 1.387 . S
H1727 C1739 0.930 . S
H1728 C1741 0.930 . S
H1729 C1742 0.930 . S
H1730 C1746 0.959 . S
H1731 C1746 0.959 . S
H1732 C1746 0.961 . S
H1733 C1747 0.960 . S
H1734 C1747 0.961 . S
H1735 C1747 0.959 . S
H1736 C1750 0.929 . S
H1737 C1751 0.931 . S
H1738 C1753 0.930 . S
C1739 H1727 0.930 . S
C1739 C1740 1.399 . S
C1739 C1744 1.399 . S
C1740 C1739 1.399 . S
C1740 C1741 1.376 . S
C1741 H1728 0.930 . S
C1741 C1740 1.376 . S
C1741 C1742 1.388 . S
C1742 H1729 0.930 . S
C1742 C1741 1.388 . S
C1742 C1743 1.390 . S
C1743 C1742 1.390 . S
C1743 C1744 1.394 . S
C1743 C1749 1.465 . S
C1744 C1739 1.399 . S
C1744 C1743 1.394 . S
C1744 C1745 1.516 . S
C1745 C1744 1.516 . S
C1745 C1746 1.502 . S
C1745 C1747 1.561 . S
C1745 C1748 1.526 . S
C1746 H1730 0.959 . S
C1746 H1731 0.959 . S
C1746 H1732 0.961 . S
C1746 C1745 1.502 . S
C1747 H1733 0.960 . S
C1747 H1734 0.961 . S
C1747 H1735 0.959 . S
C1747 C1745 1.561 . S
C1748 C1745 1.526 . S
C1748 C1749 1.396 . S
C1748 C1753 1.390 . S
C1749 C1743 1.465 . S
C1749 C1748 1.396 . S
C1749 C1750 1.399 . S
C1750 H1736 0.929 . S
C1750 C1749 1.399 . S
C1750 C1751 1.385 . S
C1751 H1737 0.931 . S
C1751 C1750 1.385 . S
C1751 C1752 1.389 . S
C1752 C1751 1.389 . S
C1752 C1753 1.387 . S
C1753 H1738 0.930 . S
C1753 C1748 1.390 . S
C1753 C1752 1.387 . S
H1754 C1766 0.930 . S
H1755 C1768 0.930 . S
H1756 C1769 0.930 . S
H1757 C1773 0.959 . S
H1758 C1773 0.959 . S
H1759 C1773 0.961 . S
H1760 C1774 0.960 . S
H1761 C1774 0.961 . S
H1762 C1774 0.959 . S
H1763 C1777 0.929 . S
H1764 C1778 0.931 . S
H1765 C1780 0.930 . S
C1766 H1754 0.930 . S
C1766 C1767 1.399 . S
C1766 C1771 1.399 . S
C1767 C1766 1.399 . S
C1767 C1768 1.376 . S
C1768 H1755 0.930 . S
C1768 C1767 1.376 . S
C1768 C1769 1.388 . S
C1769 H1756 0.930 . S
C1769 C1768 1.388 . S
C1769 C1770 1.390 . S
C1770 C1769 1.390 . S
C1770 C1771 1.394 . S
C1770 C1776 1.465 . S
C1771 C1766 1.399 . S
C1771 C1770 1.394 . S
C1771 C1772 1.516 . S
C1772 C1771 1.516 . S
C1772 C1773 1.502 . S
C1772 C1774 1.561 . S
C1772 C1775 1.526 . S
C1773 H1757 0.959 . S
C1773 H1758 0.959 . S
C1773 H1759 0.961 . S
C1773 C1772 1.502 . S
C1774 H1760 0.960 . S
C1774 H1761 0.961 . S
C1774 H1762 0.959 . S
C1774 C1772 1.561 . S
C1775 C1772 1.526 . S
C1775 C1776 1.396 . S
C1775 C1780 1.390 . S
C1776 C1770 1.465 . S
C1776 C1775 1.396 . S
C1776 C1777 1.399 . S
C1777 H1763 0.929 . S
C1777 C1776 1.399 . S
C1777 C1778 1.385 . S
C1778 H1764 0.931 . S
C1778 C1777 1.385 . S
C1778 C1779 1.389 . S
C1779 C1778 1.389 . S
C1779 C1780 1.387 . S
C1780 H1765 0.930 . S
C1780 C1775 1.390 . S
C1780 C1779 1.387 . S
H1781 C1793 0.930 . S
H1782 C1795 0.930 . S
H1783 C1796 0.930 . S
H1784 C1800 0.959 . S
H1785 C1800 0.959 . S
H1786 C1800 0.961 . S
H1787 C1801 0.960 . S
H1788 C1801 0.961 . S
H1789 C1801 0.959 . S
H1790 C1804 0.929 . S
H1791 C1805 0.931 . S
H1792 C1807 0.930 . S
C1793 H1781 0.930 . S
C1793 C1794 1.399 . S
C1793 C1798 1.399 . S
C1794 C1793 1.399 . S
C1794 C1795 1.376 . S
C1795 H1782 0.930 . S
C1795 C1794 1.376 . S
C1795 C1796 1.388 . S
C1796 H1783 0.930 . S
C1796 C1795 1.388 . S
C1796 C1797 1.390 . S
C1797 C1796 1.390 . S
C1797 C1798 1.394 . S
C1797 C1803 1.465 . S
C1798 C1793 1.399 . S
C1798 C1797 1.394 . S
C1798 C1799 1.516 . S
C1799 C1798 1.516 . S
C1799 C1800 1.502 . S
C1799 C1801 1.561 . S
C1799 C1802 1.526 . S
C1800 H1784 0.959 . S
C1800 H1785 0.959 . S
C1800 H1786 0.961 . S
C1800 C1799 1.502 . S
C1801 H1787 0.960 . S
C1801 H1788 0.961 . S
C1801 H1789 0.959 . S
C1801 C1799 1.561 . S
C1802 C1799 1.526 . S
C1802 C1803 1.396 . S
C1802 C1807 1.390 . S
C1803 C1797 1.465 . S
C1803 C1802 1.396 . S
C1803 C1804 1.399 . S
C1804 H1790 0.929 . S
C1804 C1803 1.399 . S
C1804 C1805 1.385 . S
C1805 H1791 0.931 . S
C1805 C1804 1.385 . S
C1805 C1806 1.389 . S
C1806 C1805 1.389 . S
C1806 C1807 1.387 . S
C1807 H1792 0.930 . S
C1807 C1802 1.390 . S
C1807 C1806 1.387 . S
C957 C859 1.505 . S
C969 C33 1.505 . S
C984 C123 1.499 . S
C996 C5 1.508 . S
C1011 C654 1.506 . S
C1023 C64 1.497 . S
C1038 C92 1.503 . S
C1050 C446 1.507 . S
C1065 C151 1.506 . S
C1077 C741 1.504 . S
C1092 C536 1.497 . S
C1104 C182 1.510 . S
C1119 C210 1.506 . S
C1131 C328 1.504 . S
C1146 C623 1.506 . S
C1158 C269 1.504 . S
C1173 C241 1.511 . S
C1185 C359 1.495 . S
C1200 C890 1.502 . S
C1212 C300 1.500 . S
C1227 C505 1.505 . S
C1239 C387 1.506 . S
C1254 C772 1.510 . S
C1266 C418 1.494 . S
C1281 C477 1.498 . S
C1293 C595 1.508 . S
C1308 C918 1.506 . S
C1320 C564 1.505 . S
C1335 C682 1.504 . S
C1347 C800 1.506 . S
C1362 C831 1.499 . S
C1374 C713 1.508 . S
C1389 C347 1.591 . S
C1401 C3 1.595 . S
C1416 C52 1.591 . S
C1428 C298 1.595 . S
C1443 C111 1.593 . S
C1455 C239 1.591 . S
C1470 C288 1.592 . S
C1482 C62 1.583 . S
C1497 C465 1.591 . S
C1509 C121 1.567 . S
C1524 C416 1.593 . S
C1536 C170 1.591 . S
C1551 C357 1.578 . S
C1563 C229 1.586 . S
C1578 C180 1.595 . S
C1590 C406 1.590 . S
C1605 C819 1.587 . S
C1617 C475 1.565 . S
C1632 C524 1.592 . S
C1644 C770 1.594 . S
C1659 C583 1.592 . S
C1671 C711 1.588 . S
C1686 C760 1.587 . S
C1698 C534 1.565 . S
C1713 C937 1.587 . S
C1725 C593 1.593 . S
C1740 C888 1.595 . S
C1752 C642 1.590 . S
C1767 C701 1.586 . S
C1779 C829 1.577 . S
C1794 C878 1.587 . S
C1806 C652 1.591 . S
