# Generated by pormake.
# Topology wlh, (5)-cn, num edge types: 1
# Building blocks:
#     Node 0, Type 0, BuildingBlock: XOMCOT_clean_sbu_1, # of connection points: 5
#     Node 1, Type 0, BuildingBlock: XOMCOT_clean_sbu_1, # of connection points: 5
#     Node 2, Type 0, BuildingBlock: XOMCOT_clean_sbu_1, # of connection points: 5
#     Node 3, Type 0, BuildingBlock: XOMCOT_clean_sbu_1, # of connection points: 5
#     Node 4, Type 0, BuildingBlock: XOMCOT_clean_sbu_1, # of connection points: 5
#     Node 5, Type 0, BuildingBlock: XOMCOT_clean_sbu_1, # of connection points: 5
#     Node 6, Type 0, BuildingBlock: XOMCOT_clean_sbu_1, # of connection points: 5
#     Node 7, Type 0, BuildingBlock: XOMCOT_clean_sbu_1, # of connection points: 5
#     Node 8, Type 0, BuildingBlock: XOMCOT_clean_sbu_1, # of connection points: 5
#     Node 9, Type 0, BuildingBlock: XOMCOT_clean_sbu_1, # of connection points: 5
#     Node 10, Type 0, BuildingBlock: XOMCOT_clean_sbu_1, # of connection points: 5
#     Node 11, Type 0, BuildingBlock: XOMCOT_clean_sbu_1, # of connection points: 5
#     Node 12, Type 0, BuildingBlock: XOMCOT_clean_sbu_1, # of connection points: 5
#     Node 13, Type 0, BuildingBlock: XOMCOT_clean_sbu_1, # of connection points: 5
#     Node 14, Type 0, BuildingBlock: XOMCOT_clean_sbu_1, # of connection points: 5
#     Node 15, Type 0, BuildingBlock: XOMCOT_clean_sbu_1, # of connection points: 5
#     Node 16, Type 0, BuildingBlock: XOMCOT_clean_sbu_1, # of connection points: 5
#     Node 17, Type 0, BuildingBlock: XOMCOT_clean_sbu_1, # of connection points: 5
#     Node 18, Type 0, BuildingBlock: XOMCOT_clean_sbu_1, # of connection points: 5
#     Node 19, Type 0, BuildingBlock: XOMCOT_clean_sbu_1, # of connection points: 5
#     Node 20, Type 0, BuildingBlock: XOMCOT_clean_sbu_1, # of connection points: 5
#     Node 21, Type 0, BuildingBlock: XOMCOT_clean_sbu_1, # of connection points: 5
#     Node 22, Type 0, BuildingBlock: XOMCOT_clean_sbu_1, # of connection points: 5
#     Node 23, Type 0, BuildingBlock: XOMCOT_clean_sbu_1, # of connection points: 5
#     Node 24, Type 0, BuildingBlock: XOMCOT_clean_sbu_1, # of connection points: 5
#     Node 25, Type 0, BuildingBlock: XOMCOT_clean_sbu_1, # of connection points: 5
#     Node 26, Type 0, BuildingBlock: XOMCOT_clean_sbu_1, # of connection points: 5
#     Node 27, Type 0, BuildingBlock: XOMCOT_clean_sbu_1, # of connection points: 5
#     Node 28, Type 0, BuildingBlock: XOMCOT_clean_sbu_1, # of connection points: 5
#     Node 29, Type 0, BuildingBlock: XOMCOT_clean_sbu_1, # of connection points: 5
#     Node 30, Type 0, BuildingBlock: XOMCOT_clean_sbu_1, # of connection points: 5
#     Node 31, Type 0, BuildingBlock: XOMCOT_clean_sbu_1, # of connection points: 5
#     Node 32, Type 0, BuildingBlock: XOMCOT_clean_sbu_1, # of connection points: 5
#     Node 33, Type 0, BuildingBlock: XOMCOT_clean_sbu_1, # of connection points: 5
#     Node 34, Type 0, BuildingBlock: XOMCOT_clean_sbu_1, # of connection points: 5
#     Node 35, Type 0, BuildingBlock: XOMCOT_clean_sbu_1, # of connection points: 5
#     Edge 36, Type (0, 0), BuildingBlock: XIVTED_clean_linker_0, # of connection points: 2
#     Edge 37, Type (0, 0), BuildingBlock: XIVTED_clean_linker_0, # of connection points: 2
#     Edge 38, Type (0, 0), BuildingBlock: XIVTED_clean_linker_0, # of connection points: 2
#     Edge 39, Type (0, 0), BuildingBlock: XIVTED_clean_linker_0, # of connection points: 2
#     Edge 40, Type (0, 0), BuildingBlock: XIVTED_clean_linker_0, # of connection points: 2
#     Edge 41, Type (0, 0), BuildingBlock: XIVTED_clean_linker_0, # of connection points: 2
#     Edge 42, Type (0, 0), BuildingBlock: XIVTED_clean_linker_0, # of connection points: 2
#     Edge 43, Type (0, 0), BuildingBlock: XIVTED_clean_linker_0, # of connection points: 2
#     Edge 44, Type (0, 0), BuildingBlock: XIVTED_clean_linker_0, # of connection points: 2
#     Edge 45, Type (0, 0), BuildingBlock: XIVTED_clean_linker_0, # of connection points: 2
#     Edge 46, Type (0, 0), BuildingBlock: XIVTED_clean_linker_0, # of connection points: 2
#     Edge 47, Type (0, 0), BuildingBlock: XIVTED_clean_linker_0, # of connection points: 2
#     Edge 48, Type (0, 0), BuildingBlock: XIVTED_clean_linker_0, # of connection points: 2
#     Edge 49, Type (0, 0), BuildingBlock: XIVTED_clean_linker_0, # of connection points: 2
#     Edge 50, Type (0, 0), BuildingBlock: XIVTED_clean_linker_0, # of connection points: 2
#     Edge 51, Type (0, 0), BuildingBlock: XIVTED_clean_linker_0, # of connection points: 2
#     Edge 52, Type (0, 0), BuildingBlock: XIVTED_clean_linker_0, # of connection points: 2
#     Edge 53, Type (0, 0), BuildingBlock: XIVTED_clean_linker_0, # of connection points: 2
#     Edge 54, Type (0, 0), BuildingBlock: XIVTED_clean_linker_0, # of connection points: 2
#     Edge 55, Type (0, 0), BuildingBlock: XIVTED_clean_linker_0, # of connection points: 2
#     Edge 56, Type (0, 0), BuildingBlock: XIVTED_clean_linker_0, # of connection points: 2
#     Edge 57, Type (0, 0), BuildingBlock: XIVTED_clean_linker_0, # of connection points: 2
#     Edge 58, Type (0, 0), BuildingBlock: XIVTED_clean_linker_0, # of connection points: 2
#     Edge 59, Type (0, 0), BuildingBlock: XIVTED_clean_linker_0, # of connection points: 2
#     Edge 60, Type (0, 0), BuildingBlock: XIVTED_clean_linker_0, # of connection points: 2
#     Edge 61, Type (0, 0), BuildingBlock: XIVTED_clean_linker_0, # of connection points: 2
#     Edge 62, Type (0, 0), BuildingBlock: XIVTED_clean_linker_0, # of connection points: 2
#     Edge 63, Type (0, 0), BuildingBlock: XIVTED_clean_linker_0, # of connection points: 2
#     Edge 64, Type (0, 0), BuildingBlock: XIVTED_clean_linker_0, # of connection points: 2
#     Edge 65, Type (0, 0), BuildingBlock: XIVTED_clean_linker_0, # of connection points: 2
#     Edge 66, Type (0, 0), BuildingBlock: XIVTED_clean_linker_0, # of connection points: 2
#     Edge 67, Type (0, 0), BuildingBlock: XIVTED_clean_linker_0, # of connection points: 2
#     Edge 68, Type (0, 0), BuildingBlock: XIVTED_clean_linker_0, # of connection points: 2
#     Edge 69, Type (0, 0), BuildingBlock: XIVTED_clean_linker_0, # of connection points: 2
#     Edge 70, Type (0, 0), BuildingBlock: XIVTED_clean_linker_0, # of connection points: 2
#     Edge 71, Type (0, 0), BuildingBlock: XIVTED_clean_linker_0, # of connection points: 2
#     Edge 72, Type (0, 0), BuildingBlock: XIVTED_clean_linker_0, # of connection points: 2
#     Edge 73, Type (0, 0), BuildingBlock: XIVTED_clean_linker_0, # of connection points: 2
#     Edge 74, Type (0, 0), BuildingBlock: XIVTED_clean_linker_0, # of connection points: 2
#     Edge 75, Type (0, 0), BuildingBlock: XIVTED_clean_linker_0, # of connection points: 2
#     Edge 76, Type (0, 0), BuildingBlock: XIVTED_clean_linker_0, # of connection points: 2
#     Edge 77, Type (0, 0), BuildingBlock: XIVTED_clean_linker_0, # of connection points: 2
#     Edge 78, Type (0, 0), BuildingBlock: XIVTED_clean_linker_0, # of connection points: 2
#     Edge 79, Type (0, 0), BuildingBlock: XIVTED_clean_linker_0, # of connection points: 2
#     Edge 80, Type (0, 0), BuildingBlock: XIVTED_clean_linker_0, # of connection points: 2
#     Edge 81, Type (0, 0), BuildingBlock: XIVTED_clean_linker_0, # of connection points: 2
#     Edge 82, Type (0, 0), BuildingBlock: XIVTED_clean_linker_0, # of connection points: 2
#     Edge 83, Type (0, 0), BuildingBlock: XIVTED_clean_linker_0, # of connection points: 2
#     Edge 84, Type (0, 0), BuildingBlock: XIVTED_clean_linker_0, # of connection points: 2
#     Edge 85, Type (0, 0), BuildingBlock: XIVTED_clean_linker_0, # of connection points: 2
#     Edge 86, Type (0, 0), BuildingBlock: XIVTED_clean_linker_0, # of connection points: 2
#     Edge 87, Type (0, 0), BuildingBlock: XIVTED_clean_linker_0, # of connection points: 2
#     Edge 88, Type (0, 0), BuildingBlock: XIVTED_clean_linker_0, # of connection points: 2
#     Edge 89, Type (0, 0), BuildingBlock: XIVTED_clean_linker_0, # of connection points: 2
#     Edge 90, Type (0, 0), BuildingBlock: XIVTED_clean_linker_0, # of connection points: 2
#     Edge 91, Type (0, 0), BuildingBlock: XIVTED_clean_linker_0, # of connection points: 2
#     Edge 92, Type (0, 0), BuildingBlock: XIVTED_clean_linker_0, # of connection points: 2
#     Edge 93, Type (0, 0), BuildingBlock: XIVTED_clean_linker_0, # of connection points: 2
#     Edge 94, Type (0, 0), BuildingBlock: XIVTED_clean_linker_0, # of connection points: 2
#     Edge 95, Type (0, 0), BuildingBlock: XIVTED_clean_linker_0, # of connection points: 2
#     Edge 96, Type (0, 0), BuildingBlock: XIVTED_clean_linker_0, # of connection points: 2
#     Edge 97, Type (0, 0), BuildingBlock: XIVTED_clean_linker_0, # of connection points: 2
#     Edge 98, Type (0, 0), BuildingBlock: XIVTED_clean_linker_0, # of connection points: 2
#     Edge 99, Type (0, 0), BuildingBlock: XIVTED_clean_linker_0, # of connection points: 2
#     Edge 100, Type (0, 0), BuildingBlock: XIVTED_clean_linker_0, # of connection points: 2
#     Edge 101, Type (0, 0), BuildingBlock: XIVTED_clean_linker_0, # of connection points: 2
#     Edge 102, Type (0, 0), BuildingBlock: XIVTED_clean_linker_0, # of connection points: 2
#     Edge 103, Type (0, 0), BuildingBlock: XIVTED_clean_linker_0, # of connection points: 2
#     Edge 104, Type (0, 0), BuildingBlock: XIVTED_clean_linker_0, # of connection points: 2
#     Edge 105, Type (0, 0), BuildingBlock: XIVTED_clean_linker_0, # of connection points: 2
#     Edge 106, Type (0, 0), BuildingBlock: XIVTED_clean_linker_0, # of connection points: 2
#     Edge 107, Type (0, 0), BuildingBlock: XIVTED_clean_linker_0, # of connection points: 2
#     Edge 108, Type (0, 0), BuildingBlock: XIVTED_clean_linker_0, # of connection points: 2
#     Edge 109, Type (0, 0), BuildingBlock: XIVTED_clean_linker_0, # of connection points: 2
#     Edge 110, Type (0, 0), BuildingBlock: XIVTED_clean_linker_0, # of connection points: 2
#     Edge 111, Type (0, 0), BuildingBlock: XIVTED_clean_linker_0, # of connection points: 2
#     Edge 112, Type (0, 0), BuildingBlock: XIVTED_clean_linker_0, # of connection points: 2
#     Edge 113, Type (0, 0), BuildingBlock: XIVTED_clean_linker_0, # of connection points: 2
#     Edge 114, Type (0, 0), BuildingBlock: XIVTED_clean_linker_0, # of connection points: 2
#     Edge 115, Type (0, 0), BuildingBlock: XIVTED_clean_linker_0, # of connection points: 2
#     Edge 116, Type (0, 0), BuildingBlock: XIVTED_clean_linker_0, # of connection points: 2
#     Edge 117, Type (0, 0), BuildingBlock: XIVTED_clean_linker_0, # of connection points: 2
#     Edge 118, Type (0, 0), BuildingBlock: XIVTED_clean_linker_0, # of connection points: 2
#     Edge 119, Type (0, 0), BuildingBlock: XIVTED_clean_linker_0, # of connection points: 2
#     Edge 120, Type (0, 0), BuildingBlock: XIVTED_clean_linker_0, # of connection points: 2
#     Edge 121, Type (0, 0), BuildingBlock: XIVTED_clean_linker_0, # of connection points: 2
#     Edge 122, Type (0, 0), BuildingBlock: XIVTED_clean_linker_0, # of connection points: 2
#     Edge 123, Type (0, 0), BuildingBlock: XIVTED_clean_linker_0, # of connection points: 2
#     Edge 124, Type (0, 0), BuildingBlock: XIVTED_clean_linker_0, # of connection points: 2
#     Edge 125, Type (0, 0), BuildingBlock: XIVTED_clean_linker_0, # of connection points: 2
# Relax obj value: 0.341
# Max RMSD: 0.231
# Mean RMSD: 0.231
data_MOF--net-wlh--node1-XOMCOT_clean_sbu_1--edge1-XIVTED_clean_linker_0
_symmetry_space_group_name_H-M    P1
_symmetry_Int_Tables_number       1
_symmetry_cell_setting            triclinic
loop_
_symmetry_equiv_pos_as_xyz
'x, y, z'
_cell_length_a     39.491912
_cell_length_b     39.508816
_cell_length_c     154.18081
_cell_angle_alpha  90.002019
_cell_angle_beta   89.964382
_cell_angle_gamma 119.99001
loop_
_atom_site_label
_atom_site_type_symbol
_atom_site_fract_x
_atom_site_fract_y
_atom_site_fract_z
_atom_type_partial_charge
C0 C 0.1491 0.26694 0.19282 0.0
C1 C 0.16664 0.24439 0.19204 0.0
N2 N 0.14199 0.21149 0.18774 0.0
N3 N 0.11372 0.24829 0.18899 0.0
C4 C 0.11032 0.21468 0.18593 0.0
H5 H 0.1616 0.29543 0.19582 0.0
Co6 Co 0.08023 0.26806 0.1873 0.0
C7 C 0.01909 0.19868 0.17769 0.0
O8 O 0.02937 0.21555 0.17005 0.0
N9 N 0.04661 0.288 0.18551 0.0
C10 C 0.9938 0.29434 0.18536 0.0
C11 C 0.00799 0.26979 0.18728 0.0
C12 C 0.05529 0.32371 0.18262 0.0
N13 N 0.02361 0.32841 0.18243 0.0
O14 O 0.0975 0.27831 0.1756 0.0
H15 H 0.99116 0.24058 0.1899 0.0
H16 H 0.08444 0.34609 0.18083 0.0
O17 O 0.03777 0.21675 0.18447 0.0
C18 C 0.12935 0.31049 0.17469 0.0
O19 O 0.14261 0.33465 0.1813 0.0
N20 N 0.06581 0.25945 0.19897 0.0
C21 C 0.0462 0.25012 0.21653 0.0
C22 C 0.04191 0.21846 0.21155 0.0
C23 C 0.05191 0.22374 0.20278 0.0
C24 C 0.07158 0.29091 0.20374 0.0
C25 C 0.06145 0.2868 0.21251 0.0
H26 H 0.049 0.19917 0.19909 0.0
H27 H 0.08375 0.3193 0.2007 0.0
H28 H 0.08571 0.19339 0.1822 0.0
H29 H 0.19518 0.25155 0.19447 0.0
H30 H 0.96368 0.28724 0.18598 0.0
H31 H 0.03146 0.1899 0.2144 0.0
H32 H 0.06515 0.31209 0.21605 0.0
C33 C 0.73824 0.88055 0.19217 0.0
C34 C 0.75913 0.92074 0.19183 0.0
N35 N 0.78919 0.93154 0.18628 0.0
N36 N 0.75531 0.8662 0.18691 0.0
C37 C 0.78598 0.8979 0.18334 0.0
H38 H 0.71262 0.86286 0.19609 0.0
Co39 Co 0.73918 0.81381 0.18542 0.0
C40 C 0.80394 0.81541 0.17546 0.0
O41 O 0.77953 0.78956 0.16989 0.0
N42 N 0.72259 0.76066 0.18407 0.0
C43 C 0.71933 0.70316 0.18552 0.0
C44 C 0.74199 0.74265 0.18684 0.0
C45 C 0.68808 0.73143 0.18112 0.0
N46 N 0.68527 0.69598 0.18192 0.0
O47 O 0.72437 0.81764 0.17387 0.0
H48 H 0.77052 0.75723 0.18986 0.0
H49 H 0.66534 0.73606 0.17852 0.0
O50 O 0.79104 0.8272 0.18164 0.0
C51 C 0.69103 0.81531 0.17365 0.0
O52 O 0.66954 0.80411 0.18073 0.0
N53 N 0.75183 0.81108 0.19691 0.0
C54 C 0.76299 0.80464 0.21447 0.0
C55 C 0.79512 0.82543 0.20897 0.0
C56 C 0.78892 0.82884 0.20019 0.0
C57 C 0.72027 0.79117 0.20219 0.0
C58 C 0.72517 0.78762 0.21103 0.0
H59 H 0.81395 0.84611 0.1961 0.0
H60 H 0.69113 0.77806 0.19949 0.0
H61 H 0.8063 0.89643 0.17886 0.0
H62 H 0.75284 0.94043 0.19545 0.0
H63 H 0.72711 0.68146 0.18731 0.0
H64 H 0.82471 0.83955 0.21146 0.0
H65 H 0.69969 0.77137 0.2151 0.0
C66 C 0.12155 0.85944 0.19252 0.0
C67 C 0.08142 0.84144 0.19178 0.0
N68 N 0.07279 0.86407 0.18678 0.0
N69 N 0.13793 0.89307 0.18797 0.0
C70 C 0.10748 0.89496 0.18452 0.0
H71 H 0.13782 0.84855 0.19604 0.0
Co72 Co 0.19102 0.92693 0.18618 0.0
C73 C 0.19121 0.99159 0.17639 0.0
O74 O 0.21472 0.99113 0.17042 0.0
N75 N 0.24471 0.96104 0.18436 0.0
C76 C 0.30392 0.01378 0.18465 0.0
C77 C 0.26516 0.99907 0.18665 0.0
C78 C 0.2718 0.95322 0.18107 0.0
N79 N 0.3082 0.98488 0.18114 0.0
O80 O 0.18441 0.90737 0.17462 0.0
H81 H 0.2527 0.01509 0.18967 0.0
H82 H 0.26509 0.92463 0.17884 0.0
O83 O 0.18028 0.96756 0.18269 0.0
C84 C 0.18531 0.87558 0.17449 0.0
O85 O 0.19607 0.865 0.18158 0.0
N86 N 0.19646 0.94327 0.1977 0.0
C87 C 0.20658 0.964 0.21519 0.0
C88 C 0.18038 0.96947 0.21002 0.0
C89 C 0.1757 0.95887 0.20128 0.0
C90 C 0.22112 0.93662 0.20263 0.0
C91 C 0.22708 0.9473 0.21135 0.0
H92 H 0.15486 0.96255 0.19745 0.0
H93 H 0.23655 0.92324 0.19975 0.0
H94 H 0.11053 0.91795 0.18022 0.0
H95 H 0.06026 0.8141 0.19475 0.0
H96 H 0.32697 0.04363 0.18563 0.0
H97 H 0.16304 0.98117 0.21273 0.0
H98 H 0.24787 0.94279 0.21501 0.0
C99 C 0.26724 0.14203 0.30269 0.0
C100 C 0.2464 0.16129 0.30364 0.0
N101 N 0.21259 0.13712 0.30772 0.0
N102 N 0.24661 0.10604 0.30618 0.0
C103 C 0.21357 0.10401 0.30922 0.0
H104 H 0.29584 0.15365 0.29978 0.0
Co105 Co 0.26338 0.06995 0.3074 0.0
C106 C 0.19636 0.00411 0.31612 0.0
O107 O 0.21923 0.00242 0.32208 0.0
N108 N 0.28073 0.03382 0.30864 0.0
C109 C 0.28626 0.98078 0.30724 0.0
C110 C 0.26305 0.99684 0.30559 0.0
C111 C 0.31472 0.03962 0.31205 0.0
N112 N 0.31889 0.00778 0.31129 0.0
O113 O 0.27337 0.08447 0.31929 0.0
H114 H 0.23539 0.98274 0.30219 0.0
H115 H 0.3361 0.06674 0.315 0.0
O116 O 0.21076 0.02953 0.3101 0.0
C117 C 0.30581 0.11548 0.32068 0.0
O118 O 0.33178 0.12926 0.31439 0.0
N119 N 0.25466 0.05811 0.2956 0.0
C120 C 0.24559 0.0417 0.27793 0.0
C121 C 0.21397 0.03713 0.28295 0.0
C122 C 0.2191 0.04549 0.2918 0.0
C123 C 0.28612 0.06429 0.29075 0.0
C124 C 0.28209 0.05565 0.28191 0.0
H125 H 0.19451 0.04203 0.29557 0.0
H126 H 0.31439 0.07551 0.2938 0.0
H127 H 0.19106 0.07926 0.31273 0.0
H128 H 0.25526 0.19059 0.30146 0.0
H129 H 0.27995 0.9518 0.30538 0.0
H130 H 0.18537 0.02656 0.28009 0.0
H131 H 0.30732 0.06016 0.2782 0.0
C132 C 0.867 0.13476 0.30243 0.0
C133 C 0.84744 0.09452 0.30299 0.0
N134 N 0.86968 0.08407 0.30762 0.0
N135 N 0.90122 0.14937 0.30671 0.0
C136 C 0.9019 0.11778 0.30983 0.0
H137 H 0.85681 0.15231 0.2992 0.0
Co138 Co 0.93715 0.20186 0.30855 0.0
C139 C 1.00014 0.19853 0.31819 0.0
O140 O 1.00062 0.2224 0.32419 0.0
N141 N 0.97334 0.25498 0.31039 0.0
C142 C 0.02751 0.31298 0.30962 0.0
C143 C 0.01106 0.27387 0.30781 0.0
C144 C 0.96752 0.28334 0.31371 0.0
N145 N 1.00009 0.31905 0.31333 0.0
O146 O 0.91821 0.19558 0.32014 0.0
H147 H 0.02546 0.26019 0.30458 0.0
H148 H 0.93983 0.27793 0.3163 0.0
O149 O 0.97622 0.18857 0.31189 0.0
C150 C 0.88687 0.19728 0.32049 0.0
O151 O 0.87714 0.21043 0.31365 0.0
N152 N 0.95288 0.20686 0.29699 0.0
C153 C 0.97332 0.21658 0.27954 0.0
C154 C 0.97729 0.18926 0.28459 0.0
C155 C 0.96688 0.18481 0.29333 0.0
C156 C 0.94757 0.23259 0.29212 0.0
C157 C 0.95819 0.23838 0.28339 0.0
H158 H 0.96962 0.16329 0.29712 0.0
H159 H 0.93522 0.24888 0.29505 0.0
H160 H 0.92505 0.1193 0.31385 0.0
H161 H 0.81934 0.07453 0.30015 0.0
H162 H 0.0571 0.33527 0.30806 0.0
H163 H 0.98868 0.17176 0.28181 0.0
H164 H 0.95401 0.25921 0.27964 0.0
C165 C 0.87042 0.73887 0.30153 0.0
C166 C 0.91055 0.7587 0.30231 0.0
N167 N 0.9214 0.79248 0.30651 0.0
N168 N 0.85619 0.76003 0.30527 0.0
C169 C 0.88796 0.7925 0.30826 0.0
H170 H 0.85262 0.71062 0.29853 0.0
Co171 Co 0.80364 0.74428 0.30653 0.0
C172 C 0.80518 0.80865 0.31659 0.0
O173 O 0.7792 0.78402 0.32212 0.0
N174 N 0.75041 0.728 0.30769 0.0
C175 C 0.69317 0.72557 0.30639 0.0
C176 C 0.73269 0.74778 0.30497 0.0
C177 C 0.72095 0.69367 0.31067 0.0
N178 N 0.68574 0.69143 0.30997 0.0
O179 O 0.80652 0.72923 0.3181 0.0
H180 H 0.74753 0.77639 0.30199 0.0
H181 H 0.72517 0.6707 0.31329 0.0
O182 O 0.81693 0.79601 0.31036 0.0
C183 C 0.80405 0.69587 0.31847 0.0
O184 O 0.79174 0.67345 0.31155 0.0
N185 N 0.80199 0.75729 0.29503 0.0
C186 C 0.79679 0.76891 0.27744 0.0
C187 C 0.81681 0.80089 0.28302 0.0
C188 C 0.81961 0.79446 0.29181 0.0
C189 C 0.78292 0.72588 0.28969 0.0
C190 C 0.78001 0.73101 0.28083 0.0
H191 H 0.83622 0.81941 0.29596 0.0
H192 H 0.76991 0.69668 0.29235 0.0
H193 H 0.88676 0.81536 0.31185 0.0
H194 H 0.93023 0.74924 0.2999 0.0
H195 H 0.67154 0.73364 0.30471 0.0
H196 H 0.83073 0.83055 0.28057 0.0
H197 H 0.76434 0.70565 0.2767 0.0
C198 C 0.85936 0.73345 0.80106 0.0
C199 C 0.84043 0.75472 0.80173 0.0
N200 N 0.86503 0.78922 0.80549 0.0
N201 N 0.89556 0.75448 0.80442 0.0
C202 C 0.89808 0.78824 0.80708 0.0
H203 H 0.8473 0.70423 0.79847 0.0
Co204 Co 0.93128 0.73745 0.80605 0.0
C205 C 0.99791 0.80575 0.81416 0.0
O206 O 0.9986 0.78375 0.82046 0.0
N207 N 0.96735 0.72013 0.80769 0.0
C208 C 0.02064 0.71499 0.80627 0.0
C209 C 0.00395 0.7374 0.80441 0.0
C210 C 0.96241 0.68709 0.81147 0.0
N211 N 0.99447 0.68321 0.8107 0.0
O212 O 0.91682 0.72993 0.81798 0.0
H213 H 0.01735 0.76416 0.80067 0.0
H214 H 0.93574 0.6661 0.81466 0.0
O215 O 0.9724 0.79066 0.80817 0.0
C216 C 0.88589 0.69716 0.81922 0.0
O217 O 0.87369 0.67124 0.81293 0.0
N218 N 0.94226 0.74275 0.79423 0.0
C219 C 0.95499 0.74399 0.77648 0.0
C220 C 0.96309 0.77832 0.78087 0.0
C221 C 0.95646 0.77709 0.78979 0.0
C222 C 0.93304 0.70892 0.79002 0.0
C223 C 0.9397 0.70895 0.78114 0.0
H224 H 0.96232 0.8036 0.7931 0.0
H225 H 0.92062 0.68177 0.7936 0.0
H226 H 0.9231 0.81123 0.81041 0.0
H227 H 0.81097 0.7456 0.7996 0.0
H228 H 0.04941 0.72116 0.80425 0.0
H229 H 0.97474 0.80589 0.77747 0.0
H230 H 0.93233 0.68173 0.77794 0.0
C231 C 0.27116 0.12614 0.79777 0.0
C232 C 0.24921 0.08593 0.79825 0.0
N233 N 0.21546 0.0764 0.80234 0.0
N234 N 0.2513 0.14167 0.80158 0.0
C235 C 0.21757 0.11062 0.80432 0.0
H236 H 0.30002 0.14305 0.79497 0.0
Co237 Co 0.26936 0.19444 0.8035 0.0
C238 C 0.20272 0.193 0.8125 0.0
O239 O 0.22573 0.21565 0.8187 0.0
N240 N 0.28773 0.2478 0.80545 0.0
C241 C 0.29385 0.30675 0.8046 0.0
C242 C 0.27069 0.26796 0.80256 0.0
C243 C 0.32133 0.27507 0.80919 0.0
N244 N 0.32585 0.31135 0.80878 0.0
O245 O 0.27875 0.18661 0.81525 0.0
H246 H 0.24351 0.25537 0.79898 0.0
H247 H 0.34219 0.26848 0.81212 0.0
O248 O 0.21685 0.18286 0.80626 0.0
C249 C 0.31134 0.18775 0.8162 0.0
O250 O 0.33633 0.20069 0.80972 0.0
N251 N 0.26189 0.20096 0.79181 0.0
C252 C 0.25649 0.21277 0.77421 0.0
C253 C 0.22333 0.18613 0.7789 0.0
C254 C 0.22663 0.18061 0.78773 0.0
C255 C 0.29462 0.22611 0.7873 0.0
C256 C 0.29248 0.23294 0.7785 0.0
H257 H 0.20097 0.1596 0.79124 0.0
H258 H 0.32254 0.24106 0.79059 0.0
H259 H 0.1954 0.11283 0.80799 0.0
H260 H 0.25734 0.06533 0.79577 0.0
H261 H 0.28789 0.32982 0.80289 0.0
H262 H 0.19508 0.16986 0.77577 0.0
H263 H 0.31884 0.25317 0.77505 0.0
C264 C 0.87874 0.14403 0.80038 0.0
C265 C 0.91899 0.16293 0.80072 0.0
N266 N 0.92943 0.1389 0.80456 0.0
N267 N 0.86404 0.10843 0.80404 0.0
C268 C 0.89566 0.10619 0.80653 0.0
H269 H 0.86123 0.15568 0.79778 0.0
Co270 Co 0.81135 0.07346 0.80593 0.0
C271 C 0.81365 0.00915 0.81528 0.0
O272 O 0.79064 0.00912 0.82145 0.0
N273 N 0.75799 0.03843 0.80772 0.0
C274 C 0.69928 0.98512 0.80715 0.0
C275 C 0.73838 1.00033 0.80547 0.0
C276 C 0.73002 0.04582 0.81062 0.0
N277 N 0.69386 0.0138 0.81036 0.0
O278 O 0.81835 0.09115 0.81763 0.0
H279 H 0.75157 0.98465 0.80263 0.0
H280 H 0.73595 0.07445 0.81262 0.0
O281 O 0.82347 0.03326 0.80901 0.0
C282 C 0.81704 0.12254 0.81848 0.0
O283 O 0.80457 0.1345 0.8119 0.0
N284 N 0.8055 0.05904 0.79432 0.0
C285 C 0.79445 0.04379 0.77665 0.0
C286 C 0.81325 0.02846 0.78165 0.0
C287 C 0.81902 0.03688 0.7905 0.0
C288 C 0.78746 0.07442 0.78954 0.0
C289 C 0.78169 0.06725 0.78066 0.0
H290 H 0.83466 0.02584 0.79418 0.0
H291 H 0.77761 0.09247 0.79268 0.0
H292 H 0.89418 0.08169 0.80999 0.0
H293 H 0.939 0.19194 0.7983 0.0
H294 H 0.67674 0.95514 0.80606 0.0
H295 H 0.82409 0.01079 0.77872 0.0
H296 H 0.76704 0.07956 0.77699 0.0
C297 C 0.74023 0.88681 0.69342 0.0
C298 C 0.75866 0.86503 0.69354 0.0
N299 N 0.78612 0.87855 0.68726 0.0
N300 N 0.75637 0.91415 0.68716 0.0
C301 C 0.78392 0.90816 0.68347 0.0
H302 H 0.71664 0.88304 0.69762 0.0
Co303 Co 0.74239 0.95087 0.68416 0.0
C304 C 0.811 0.00751 0.674 0.0
O305 O 0.78884 0.00782 0.66769 0.0
N306 N 0.7279 0.98766 0.68122 0.0
C307 C 0.7256 0.04263 0.68068 0.0
C308 C 0.74808 0.02636 0.68287 0.0
C309 C 0.69317 0.98103 0.67811 0.0
N310 N 0.69089 0.01406 0.6777 0.0
O311 O 0.7304 0.92878 0.67284 0.0
H312 H 0.7768 0.04158 0.6858 0.0
H313 H 0.66975 0.95234 0.67634 0.0
O314 O 0.79556 0.98634 0.68068 0.0
C315 C 0.69759 0.89733 0.67236 0.0
O316 O 0.6732 0.888 0.67892 0.0
N317 N 0.75261 0.97018 0.69545 0.0
C318 C 0.76013 0.99059 0.71287 0.0
C319 C 0.79329 1.00031 0.70783 0.0
C320 C 0.7889 0.98935 0.69913 0.0
C321 C 0.72008 0.96085 0.70022 0.0
C322 C 0.72315 0.97068 0.70899 0.0
H323 H 0.81465 0.99541 0.69548 0.0
H324 H 0.69155 0.94495 0.69723 0.0
H325 H 0.80239 0.92556 0.67817 0.0
H326 H 0.75213 0.84095 0.69787 0.0
H327 H 0.73377 0.07293 0.68157 0.0
H328 H 0.82225 0.015 0.71068 0.0
H329 H 0.6969 0.96266 0.7127 0.0
C330 C 0.1142 0.8427 0.69105 0.0
C331 C 0.13757 0.88265 0.69133 0.0
N332 N 0.12013 0.89894 0.68676 0.0
N333 N 0.08209 0.83369 0.68637 0.0
C334 C 0.08651 0.86833 0.6838 0.0
H335 H 0.12045 0.82145 0.69393 0.0
Co336 Co 0.04373 0.78357 0.68348 0.0
C337 C 0.98915 0.80455 0.67485 0.0
O338 O 0.99627 0.79626 0.66704 0.0
N339 N 0.00576 0.7329 0.68054 0.0
C340 C 0.95035 0.67611 0.67975 0.0
C341 C 0.96671 0.71519 0.68169 0.0
C342 C 0.01246 0.70417 0.67796 0.0
N343 N 0.97925 0.66913 0.67745 0.0
O344 O 0.06186 0.7948 0.67183 0.0
H345 H 0.95126 0.72924 0.6842 0.0
H346 H 0.04139 0.70875 0.67674 0.0
O347 O 0.00671 0.80102 0.68141 0.0
C348 C 0.09256 0.79332 0.67006 0.0
O349 O 0.10442 0.77617 0.6756 0.0
N350 N 0.02789 0.77376 0.69511 0.0
C351 C 0.00702 0.76019 0.71258 0.0
C352 C 0.00826 0.79188 0.7082 0.0
C353 C 0.01887 0.79823 0.69949 0.0
C354 C 0.02802 0.74341 0.69928 0.0
C355 C 0.01727 0.73583 0.70802 0.0
H356 H 0.02077 0.82355 0.69635 0.0
H357 H 0.03656 0.72501 0.69583 0.0
H358 H 0.06557 0.87079 0.67975 0.0
H359 H 0.16557 0.89812 0.69455 0.0
H360 H 0.91976 0.65433 0.6804 0.0
H361 H 0.00201 0.81232 0.71151 0.0
H362 H 0.01687 0.71108 0.71114 0.0
C363 C 0.14321 0.25831 0.68734 0.0
C364 C 0.10298 0.23829 0.68699 0.0
N365 N 0.0913 0.20351 0.68317 0.0
N366 N 0.15662 0.23617 0.68375 0.0
C367 C 0.12434 0.20293 0.68127 0.0
H368 H 0.16164 0.28783 0.68966 0.0
Co369 Co 0.20826 0.25393 0.68087 0.0
C370 C 0.21847 0.1855 0.6823 0.0
O371 O 0.25108 0.20839 0.68649 0.0
N372 N 0.26088 0.27367 0.67738 0.0
C373 C 0.31208 0.28104 0.66972 0.0
C374 C 0.27309 0.25694 0.67142 0.0
C375 C 0.29271 0.30936 0.67868 0.0
N376 N 0.32443 0.31406 0.67431 0.0
O377 O 0.19441 0.25533 0.66915 0.0
H378 H 0.25444 0.22957 0.66816 0.0
H379 H 0.29234 0.33255 0.68228 0.0
O380 O 0.19763 0.19961 0.67941 0.0
C381 C 0.19866 0.28782 0.66658 0.0
O382 O 0.22067 0.31924 0.67121 0.0
N383 N 0.21966 0.25298 0.69286 0.0
C384 C 0.23241 0.24982 0.71064 0.0
C385 C 0.20329 0.21713 0.70627 0.0
C386 C 0.197 0.21949 0.69748 0.0
C387 C 0.24555 0.28608 0.69718 0.0
C388 C 0.25315 0.28497 0.70601 0.0
H389 H 0.17343 0.19407 0.6944 0.0
H390 H 0.2595 0.31384 0.69394 0.0
H391 H 0.12502 0.17983 0.67765 0.0
H392 H 0.08383 0.24879 0.68919 0.0
H393 H 0.3294 0.27569 0.66507 0.0
H394 H 0.18481 0.18993 0.70964 0.0
H395 H 0.27496 0.31145 0.70917 0.0
C396 C 0.79843 0.59897 0.52299 0.0
C397 C 0.81939 0.57973 0.5224 0.0
N398 N 0.79548 0.54364 0.51926 0.0
N399 N 0.76165 0.57512 0.52019 0.0
C400 C 0.76075 0.54161 0.51797 0.0
H401 H 0.80956 0.62886 0.52505 0.0
Co402 Co 0.72432 0.58981 0.51844 0.0
C403 C 0.66 0.5195 0.51039 0.0
O404 O 0.6579 0.54038 0.504 0.0
N405 N 0.68718 0.6053 0.51677 0.0
C406 C 0.63342 0.60967 0.51804 0.0
C407 C 0.64974 0.58661 0.51955 0.0
C408 C 0.69307 0.63982 0.5137 0.0
N409 N 0.6608 0.64329 0.51438 0.0
O410 O 0.73774 0.59601 0.50648 0.0
H411 H 0.63557 0.55858 0.5228 0.0
H412 H 0.72074 0.66236 0.51118 0.0
O413 O 0.68502 0.53602 0.51642 0.0
C414 C 0.76819 0.62805 0.50452 0.0
O415 O 0.78175 0.65676 0.51017 0.0
N416 N 0.71377 0.58535 0.53026 0.0
C417 C 0.70221 0.58741 0.54798 0.0
C418 C 0.68598 0.55164 0.54358 0.0
C419 C 0.69254 0.55115 0.53471 0.0
C420 C 0.7302 0.62034 0.53445 0.0
C421 C 0.72494 0.62208 0.54335 0.0
H422 H 0.68055 0.52325 0.53149 0.0
H423 H 0.74738 0.64704 0.53082 0.0
H424 H 0.73582 0.51677 0.51506 0.0
H425 H 0.84983 0.59141 0.52408 0.0
H426 H 0.60416 0.6028 0.51983 0.0
H427 H 0.66885 0.52427 0.54701 0.0
H428 H 0.73795 0.65023 0.54655 0.0
C429 C 0.40153 0.18899 0.52473 0.0
C430 C 0.42038 0.22922 0.5244 0.0
N431 N 0.4554 0.24201 0.52059 0.0
N432 N 0.42457 0.17672 0.5211 0.0
C433 C 0.45718 0.2097 0.51864 0.0
H434 H 0.37242 0.16979 0.5272 0.0
Co435 Co 0.41021 0.1253 0.51876 0.0
C436 C 0.48083 0.13326 0.51029 0.0
O437 O 0.45978 0.11157 0.50377 0.0
N438 N 0.39512 0.07316 0.51647 0.0
C439 C 0.3915 0.01524 0.51705 0.0
C440 C 0.41395 0.05424 0.51902 0.0
C441 C 0.36112 0.04499 0.51307 0.0
N442 N 0.35812 0.00935 0.51334 0.0
O443 O 0.4033 0.13481 0.50696 0.0
H444 H 0.44162 0.06767 0.52241 0.0
H445 H 0.33864 0.05037 0.51062 0.0
O446 O 0.46438 0.1406 0.51655 0.0
C447 C 0.37095 0.13366 0.50556 0.0
O448 O 0.34341 0.1177 0.51149 0.0
N449 N 0.41505 0.11711 0.53045 0.0
C450 C 0.41432 0.10598 0.54831 0.0
C451 C 0.44971 0.12862 0.54385 0.0
C452 C 0.44944 0.13424 0.53493 0.0
C453 C 0.38043 0.09472 0.53461 0.0
C454 C 0.37936 0.08865 0.54355 0.0
H455 H 0.47683 0.15311 0.53171 0.0
H456 H 0.35342 0.08221 0.53098 0.0
H457 H 0.48108 0.21014 0.51512 0.0
H458 H 0.40919 0.2476 0.52672 0.0
H459 H 0.39858 0.99278 0.5186 0.0
H460 H 0.47744 0.1423 0.54723 0.0
H461 H 0.35131 0.0716 0.54671 0.0
C462 C 0.8122 0.20498 0.5235 0.0
C463 C 0.77189 0.18459 0.52329 0.0
N464 N 0.75976 0.20763 0.51963 0.0
N465 N 0.82524 0.24053 0.51994 0.0
C466 C 0.79259 0.24125 0.51764 0.0
H467 H 0.83088 0.19425 0.52586 0.0
Co468 Co 0.8772 0.2768 0.51758 0.0
C469 C 0.87064 0.34038 0.5092 0.0
O470 O 0.89195 0.34078 0.50261 0.0
N471 N 0.92977 0.31295 0.51518 0.0
C472 C 0.98866 0.3661 0.5156 0.0
C473 C 0.94985 0.35073 0.51768 0.0
C474 C 0.95707 0.30599 0.51167 0.0
N475 N 0.9933 0.33787 0.51185 0.0
O476 O 0.86732 0.26051 0.50578 0.0
H477 H 0.93733 0.36574 0.52111 0.0
H478 H 0.95061 0.27783 0.50921 0.0
O479 O 0.86319 0.31648 0.51543 0.0
C480 C 0.86836 0.22944 0.50418 0.0
O481 O 0.88334 0.21662 0.51006 0.0
N482 N 0.88576 0.29028 0.5293 0.0
C483 C 0.89997 0.30716 0.54694 0.0
C484 C 0.87131 0.31186 0.54259 0.0
C485 C 0.86464 0.30326 0.53377 0.0
C486 C 0.91287 0.28438 0.53342 0.0
C487 C 0.92084 0.29314 0.54222 0.0
H488 H 0.84193 0.3063 0.5306 0.0
H489 H 0.9286 0.27303 0.52984 0.0
H490 H 0.79271 0.26522 0.51422 0.0
H491 H 0.75299 0.15512 0.52561 0.0
H492 H 0.01182 0.39539 0.5171 0.0
H493 H 0.85352 0.32135 0.546 0.0
H494 H 0.94335 0.28918 0.54524 0.0
C495 C 0.92127 0.43779 0.63068 0.0
C496 C 0.90108 0.45783 0.63035 0.0
N497 N 0.87171 0.44187 0.63618 0.0
N498 N 0.90438 0.40907 0.63662 0.0
C499 C 0.87443 0.41235 0.63987 0.0
H500 H 0.94729 0.44446 0.62704 0.0
Co501 Co 0.9224 0.37674 0.64058 0.0
C502 C 0.85228 0.2983 0.64151 0.0
O503 O 0.8732 0.28374 0.63833 0.0
N504 N 0.94171 0.34499 0.64502 0.0
C505 C 0.95021 0.30646 0.65427 0.0
C506 C 0.92787 0.3231 0.65229 0.0
C507 C 0.97368 0.34238 0.64295 0.0
N508 N 0.97911 0.31872 0.64839 0.0
O509 O 0.92512 0.39719 0.65185 0.0
H510 H 0.90356 0.32028 0.6561 0.0
H511 H 0.9937 0.35843 0.63779 0.0
O512 O 0.86832 0.33514 0.64281 0.0
C513 C 0.95783 0.42655 0.65388 0.0
O514 O 0.98839 0.43511 0.649 0.0
N515 N 0.92082 0.35951 0.62906 0.0
C516 C 0.9226 0.34796 0.61123 0.0
C517 C 0.88713 0.33603 0.61548 0.0
C518 C 0.88691 0.34271 0.62434 0.0
C519 C 0.95576 0.37311 0.62489 0.0
C520 C 0.9573 0.36652 0.61603 0.0
H521 H 0.85955 0.33663 0.62723 0.0
H522 H 0.98268 0.39167 0.62828 0.0
H523 H 0.85556 0.3939 0.64501 0.0
H524 H 0.90844 0.48312 0.62635 0.0
H525 H 0.94669 0.28841 0.65986 0.0
H526 H 0.85982 0.32286 0.61193 0.0
H527 H 0.98541 0.37796 0.61285 0.0
C528 C 0.55589 0.48303 0.63171 0.0
C529 C 0.53353 0.44287 0.63164 0.0
N530 N 0.54906 0.42855 0.63735 0.0
N531 N 0.58536 0.49386 0.63742 0.0
C532 C 0.58038 0.46007 0.64076 0.0
H533 H 0.55054 0.50314 0.62801 0.0
Co534 Co 0.62065 0.5446 0.64074 0.0
C535 C 0.67278 0.52034 0.64967 0.0
O536 O 0.65789 0.51792 0.65742 0.0
N537 N 0.6557 0.59575 0.64409 0.0
C538 C 0.70932 0.65296 0.64638 0.0
C539 C 0.69512 0.6143 0.64433 0.0
C540 C 0.64668 0.6237 0.64593 0.0
N541 N 0.67876 0.6589 0.64736 0.0
O542 O 0.60024 0.53142 0.65218 0.0
H543 H 0.71267 0.60106 0.64285 0.0
H544 H 0.61714 0.61862 0.64586 0.0
O545 O 0.65961 0.5299 0.64314 0.0
C546 C 0.56903 0.5327 0.65339 0.0
O547 O 0.55815 0.54893 0.6474 0.0
N548 N 0.63828 0.55693 0.62933 0.0
C549 C 0.65763 0.57415 0.61192 0.0
C550 C 0.66556 0.54775 0.61626 0.0
C551 C 0.655 0.53897 0.62494 0.0
C552 C 0.63017 0.58255 0.6252 0.0
C553 C 0.63958 0.59159 0.61646 0.0
H554 H 0.65902 0.51667 0.628 0.0
H555 H 0.61554 0.59538 0.62867 0.0
H556 H 0.59821 0.45859 0.64589 0.0
H557 H 0.50772 0.42559 0.62774 0.0
H558 H 0.73983 0.67492 0.64704 0.0
H559 H 0.6784 0.53285 0.61287 0.0
H560 H 0.63262 0.61178 0.61327 0.0
C561 C 0.50825 0.08009 0.62973 0.0
C562 C 0.54811 0.09933 0.62865 0.0
N563 N 0.56443 0.12724 0.63478 0.0
N564 N 0.49944 0.09602 0.63647 0.0
C565 C 0.53425 0.12474 0.63942 0.0
H566 H 0.48722 0.05485 0.62611 0.0
Co567 Co 0.45073 0.07545 0.64161 0.0
C568 C 0.4403 0.1431 0.64544 0.0
O569 O 0.40331 0.1216 0.64325 0.0
N570 N 0.40148 0.0531 0.64709 0.0
C571 C 0.35705 0.03897 0.65746 0.0
C572 C 0.39545 0.06271 0.65513 0.0
C573 C 0.36648 0.02219 0.64484 0.0
N574 N 0.33896 0.01344 0.65099 0.0
O575 O 0.47308 0.0701 0.65206 0.0
H576 H 0.41787 0.08523 0.65914 0.0
H577 H 0.3611 0.00544 0.63898 0.0
O578 O 0.46268 0.12829 0.64513 0.0
C579 C 0.47037 0.03696 0.65323 0.0
O580 O 0.44756 0.00799 0.64806 0.0
N581 N 0.43031 0.07946 0.63081 0.0
C582 C 0.41542 0.08194 0.61314 0.0
C583 C 0.43398 0.11623 0.61808 0.0
C584 C 0.44239 0.11451 0.62677 0.0
C585 C 0.41163 0.04568 0.62613 0.0
C586 C 0.40341 0.04615 0.61732 0.0
H587 H 0.4616 0.14182 0.62992 0.0
H588 H 0.40632 0.01853 0.62901 0.0
H589 H 0.53753 0.14159 0.64521 0.0
H590 H 0.5639 0.09244 0.62388 0.0
H591 H 0.34389 0.03923 0.66361 0.0
H592 H 0.44415 0.14461 0.61515 0.0
H593 H 0.39038 0.01904 0.6137 0.0
C594 C 0.5294 0.07486 0.13161 0.0
C595 C 0.51117 0.09672 0.13247 0.0
N596 N 0.53302 0.12699 0.13778 0.0
N597 N 0.56239 0.09133 0.13639 0.0
C598 C 0.56368 0.12291 0.14009 0.0
H599 H 0.51908 0.04839 0.12785 0.0
Co600 Co 0.5958 0.07166 0.1381 0.0
C601 C 0.65918 0.13368 0.14874 0.0
O602 O 0.65868 0.10841 0.15435 0.0
N603 N 0.62941 0.05154 0.13977 0.0
C604 C 0.68202 0.04486 0.13942 0.0
C605 C 0.66772 0.06946 0.13769 0.0
C606 C 0.62101 0.01587 0.14266 0.0
N607 N 0.65259 0.01099 0.14254 0.0
O608 O 0.5743 0.05605 0.14945 0.0
H609 H 0.68423 0.0986 0.13501 0.0
H610 H 0.59209 0.99363 0.14463 0.0
O611 O 0.63569 0.12195 0.14234 0.0
C612 C 0.54214 0.02373 0.14931 0.0
O613 O 0.53204 0.00342 0.14207 0.0
N614 N 0.61416 0.08534 0.12679 0.0
C615 C 0.63851 0.09896 0.10954 0.0
C616 C 0.64774 0.13024 0.11521 0.0
C617 C 0.63489 0.12282 0.12379 0.0
C618 C 0.60402 0.05457 0.12136 0.0
C619 C 0.61595 0.06069 0.11271 0.0
H620 H 0.64159 0.14728 0.12798 0.0
H621 H 0.58662 0.02507 0.1238 0.0
H622 H 0.58599 0.14203 0.14461 0.0
H623 H 0.48421 0.09102 0.12938 0.0
H624 H 0.71198 0.05178 0.13854 0.0
H625 H 0.6651 0.16027 0.11307 0.0
H626 H 0.60717 0.0356 0.10855 0.0
C627 C 0.9316 0.45276 0.13328 0.0
C628 C 0.90933 0.41274 0.13417 0.0
N629 N 0.87755 0.40461 0.13894 0.0
N630 N 0.91395 0.46962 0.13749 0.0
C631 C 0.88117 0.43953 0.1409 0.0
H632 H 0.9591 0.46864 0.12985 0.0
Co633 Co 0.93356 0.52299 0.13881 0.0
C634 C 0.87166 0.5257 0.14909 0.0
O635 O 0.89712 0.55069 0.15464 0.0
N636 N 0.95354 0.57695 0.14007 0.0
C637 C 0.95968 0.63593 0.1393 0.0
C638 C 0.93564 0.59689 0.13761 0.0
C639 C 0.98868 0.60464 0.14312 0.0
N640 N 0.99323 0.64095 0.14276 0.0
O641 O 0.94846 0.51869 0.15032 0.0
H642 H 0.90678 0.58383 0.13477 0.0
H643 H 0.01071 0.59833 0.14544 0.0
O644 O 0.88313 0.51317 0.14278 0.0
C645 C 0.98108 0.51945 0.15044 0.0
O646 O 0.00188 0.52901 0.14327 0.0
N647 N 0.92079 0.52616 0.12735 0.0
C648 C 0.90989 0.53439 0.10984 0.0
C649 C 0.87771 0.51558 0.11543 0.0
C650 C 0.88374 0.51124 0.12418 0.0
C651 C 0.95233 0.5439 0.12198 0.0
C652 C 0.94756 0.54832 0.11318 0.0
H653 H 0.85858 0.49572 0.12834 0.0
H654 H 0.98137 0.55483 0.1246 0.0
H655 H 0.86073 0.44296 0.14494 0.0
H656 H 0.91574 0.39131 0.13144 0.0
H657 H 0.9525 0.65863 0.13816 0.0
H658 H 0.84816 0.5038 0.11303 0.0
H659 H 0.9731 0.56303 0.10905 0.0
C660 C 0.55088 0.48168 0.13651 0.0
C661 C 0.591 0.50067 0.13736 0.0
N662 N 0.60046 0.47681 0.14164 0.0
N663 N 0.53532 0.44616 0.14024 0.0
C664 C 0.56624 0.44417 0.14335 0.0
H665 H 0.53404 0.49301 0.1334 0.0
Co666 Co 0.48242 0.41002 0.14132 0.0
C667 C 0.48231 0.34449 0.15057 0.0
O668 O 0.45659 0.3426 0.15624 0.0
N669 N 0.42889 0.37373 0.14239 0.0
C670 C 0.37078 0.3203 0.14076 0.0
C671 C 0.41026 0.33667 0.13937 0.0
C672 C 0.40007 0.37924 0.14552 0.0
N673 N 0.36433 0.34717 0.14462 0.0
O674 O 0.48555 0.42603 0.15306 0.0
H675 H 0.42444 0.32271 0.13617 0.0
H676 H 0.40515 0.4063 0.14839 0.0
O677 O 0.49448 0.37007 0.14457 0.0
C678 C 0.48327 0.45691 0.15384 0.0
O679 O 0.47172 0.46893 0.14711 0.0
N680 N 0.48057 0.3969 0.12967 0.0
C681 C 0.47338 0.37738 0.11215 0.0
C682 C 0.49985 0.37302 0.11745 0.0
C683 C 0.50306 0.383 0.12621 0.0
C684 C 0.45611 0.40315 0.12457 0.0
C685 C 0.45159 0.39304 0.11581 0.0
H686 H 0.52379 0.37975 0.13018 0.0
H687 H 0.43931 0.41522 0.12737 0.0
H688 H 0.56386 0.41962 0.14696 0.0
H689 H 0.6116 0.52943 0.13491 0.0
H690 H 0.34856 0.29119 0.13885 0.0
H691 H 0.51818 0.36223 0.11487 0.0
H692 H 0.43061 0.39675 0.11202 0.0
C693 C 0.40091 0.18955 0.02557 0.0
C694 C 0.42128 0.16986 0.02456 0.0
N695 N 0.45446 0.19323 0.02018 0.0
N696 N 0.42121 0.22501 0.02182 0.0
C697 C 0.45356 0.22629 0.01856 0.0
H698 H 0.37293 0.17867 0.02874 0.0
Co699 Co 0.40525 0.26169 0.02075 0.0
C700 C 0.47069 0.32613 0.01145 0.0
O701 O 0.44645 0.32673 0.0057 0.0
N702 N 0.38886 0.29856 0.01968 0.0
C703 C 0.38559 0.35278 0.02121 0.0
C704 C 0.40758 0.33539 0.02282 0.0
C705 C 0.35548 0.29418 0.01624 0.0
N706 N 0.35272 0.32681 0.01707 0.0
O707 O 0.39306 0.24641 0.00897 0.0
H708 H 0.43526 0.34859 0.02621 0.0
H709 H 0.33364 0.2676 0.01317 0.0
O710 O 0.45771 0.30141 0.01762 0.0
C711 C 0.36014 0.21555 0.0079 0.0
O712 O 0.33556 0.20254 0.01445 0.0
N713 N 0.41588 0.27415 0.03244 0.0
C714 C 0.42741 0.29308 0.04994 0.0
C715 C 0.45839 0.29708 0.04477 0.0
C716 C 0.45201 0.2874 0.036 0.0
C717 C 0.38499 0.26815 0.03747 0.0
C718 C 0.39024 0.27804 0.04624 0.0
H719 H 0.47611 0.2906 0.03207 0.0
H720 H 0.35629 0.25639 0.0346 0.0
H721 H 0.47571 0.25056 0.01487 0.0
H722 H 0.41263 0.14088 0.02695 0.0
H723 H 0.39298 0.38202 0.02312 0.0
H724 H 0.48745 0.30839 0.04744 0.0
H725 H 0.36549 0.27388 0.05009 0.0
C726 C 0.81346 0.21169 0.01997 0.0
C727 C 0.83182 0.25157 0.01876 0.0
N728 N 0.80541 0.2604 0.01558 0.0
N729 N 0.77578 0.19557 0.01753 0.0
C730 C 0.77179 0.22598 0.01487 0.0
H731 H 0.82679 0.19535 0.02236 0.0
Co732 Co 0.74008 0.14235 0.01719 0.0
C733 C 0.67121 0.13886 0.00888 0.0
O734 O 0.66856 0.11241 0.00332 0.0
N735 N 0.70433 0.08849 0.01692 0.0
C736 C 0.65221 0.03049 0.01962 0.0
C737 C 0.66862 0.07016 0.02066 0.0
C738 C 0.70906 0.05929 0.01371 0.0
N739 N 0.67774 0.02362 0.01526 0.0
O740 O 0.75164 0.14317 0.00519 0.0
H741 H 0.65557 0.08472 0.02407 0.0
H742 H 0.73494 0.06401 0.01031 0.0
O743 O 0.69838 0.15269 0.01452 0.0
C744 C 0.78208 0.14094 0.00359 0.0
O745 O 0.79705 0.13006 0.00987 0.0
N746 N 0.73134 0.14285 0.02904 0.0
C747 C 0.71875 0.1378 0.04689 0.0
C748 C 0.70692 0.15909 0.04165 0.0
C749 C 0.71391 0.16167 0.03274 0.0
C750 C 0.74448 0.12339 0.03403 0.0
C751 C 0.73842 0.1204 0.04298 0.0
H752 H 0.70497 0.17855 0.02885 0.0
H753 H 0.75925 0.10962 0.03101 0.0
H754 H 0.74512 0.22305 0.01222 0.0
H755 H 0.86208 0.27245 0.02019 0.0
H756 H 0.62403 0.00847 0.02208 0.0
H757 H 0.69158 0.17297 0.04434 0.0
H758 H 0.74903 0.10457 0.04678 0.0
C759 C 0.79455 0.5976 0.02452 0.0
C760 C 0.75431 0.57563 0.02431 0.0
N761 N 0.74429 0.54247 0.01992 0.0
N762 N 0.8096 0.57837 0.02024 0.0
C763 C 0.77824 0.54494 0.0175 0.0
H764 H 0.8118 0.62601 0.02749 0.0
Co765 Co 0.86224 0.59717 0.01808 0.0
C766 C 0.86048 0.53344 0.00754 0.0
O767 O 0.8834 0.55791 0.00157 0.0
N768 N 0.91556 0.6166 0.01599 0.0
C769 C 0.97472 0.62293 0.01593 0.0
C770 C 0.93593 0.59841 0.01782 0.0
C771 C 0.94272 0.65233 0.01311 0.0
N772 N 0.97911 0.65702 0.01299 0.0
O773 O 0.85446 0.61075 0.00669 0.0
H774 H 0.92344 0.56926 0.02048 0.0
H775 H 0.93609 0.67485 0.01136 0.0
O776 O 0.8507 0.5461 0.01412 0.0
C777 C 0.85493 0.64318 0.00631 0.0
O778 O 0.86713 0.66624 0.01312 0.0
N779 N 0.86863 0.58525 0.02943 0.0
C780 C 0.87888 0.57413 0.04683 0.0
C781 C 0.85798 0.54203 0.04133 0.0
C782 C 0.85268 0.54818 0.03265 0.0
C783 C 0.88875 0.61681 0.03469 0.0
C784 C 0.89421 0.61193 0.04344 0.0
H785 H 0.83516 0.52305 0.02862 0.0
H786 H 0.9004 0.64593 0.03206 0.0
H787 H 0.77998 0.5232 0.01357 0.0
H788 H 0.73403 0.58325 0.0272 0.0
H789 H 0.99777 0.6159 0.01665 0.0
H790 H 0.84501 0.51241 0.04377 0.0
H791 H 0.91046 0.63743 0.04751 0.0
C792 C 0.47558 0.93121 0.85621 0.0
C793 C 0.49397 0.90946 0.85547 0.0
N794 N 0.46982 0.87622 0.85121 0.0
N795 N 0.4402 0.91175 0.85239 0.0
C796 C 0.43762 0.87843 0.84939 0.0
H797 H 0.48735 0.95957 0.85924 0.0
Co798 Co 0.4053 0.9299 0.85104 0.0
C799 C 0.33855 0.86486 0.84174 0.0
O800 O 0.33601 0.88863 0.83617 0.0
N801 N 0.37009 0.94852 0.84975 0.0
C802 C 0.31712 0.95421 0.8512 0.0
C803 C 0.33332 0.93125 0.85294 0.0
C804 C 0.37558 0.98211 0.84615 0.0
N805 N 0.34372 0.98633 0.84693 0.0
O806 O 0.42316 0.94322 0.83938 0.0
H807 H 0.31924 0.90379 0.85641 0.0
H808 H 0.40237 0.00306 0.84299 0.0
O809 O 0.36482 0.87834 0.84759 0.0
C810 C 0.45449 0.97631 0.83912 0.0
O811 O 0.46459 0.99831 0.84611 0.0
N812 N 0.39101 0.91873 0.86264 0.0
C813 C 0.37407 0.90946 0.88025 0.0
C814 C 0.36174 0.87675 0.87489 0.0
C815 C 0.37104 0.882 0.86608 0.0
C816 C 0.40392 0.95084 0.86778 0.0
C817 C 0.39578 0.94688 0.87665 0.0
H818 H 0.36236 0.85649 0.8621 0.0
H819 H 0.42049 0.97967 0.86496 0.0
H820 H 0.41313 0.85655 0.84572 0.0
H821 H 0.5226 0.91724 0.85795 0.0
H822 H 0.2882 0.94795 0.85313 0.0
H823 H 0.34561 0.84742 0.8775 0.0
H824 H 0.40582 0.9728 0.88061 0.0
C825 C 0.06843 0.54477 0.85934 0.0
C826 C 0.08951 0.5849 0.85848 0.0
N827 N 0.12223 0.59436 0.85394 0.0
N828 N 0.08782 0.52921 0.85534 0.0
C829 C 0.12037 0.56013 0.85209 0.0
H830 H 0.04041 0.52792 0.86251 0.0
Co831 Co 0.07036 0.47642 0.85365 0.0
C832 C 0.13742 0.47799 0.84491 0.0
O833 O 0.1145 0.45512 0.83873 0.0
N834 N 0.05262 0.42302 0.85192 0.0
C835 C 0.04723 0.36443 0.85305 0.0
C836 C 0.07008 0.40344 0.85493 0.0
C837 C 0.01906 0.39517 0.84827 0.0
N838 N 0.015 0.35913 0.84886 0.0
O839 O 0.0612 0.48327 0.84183 0.0
H840 H 0.09731 0.41659 0.85849 0.0
H841 H 0.99788 0.40117 0.84529 0.0
O842 O 0.12319 0.48842 0.85108 0.0
C843 C 0.02844 0.48171 0.84083 0.0
O844 O 0.00345 0.46881 0.84731 0.0
N845 N 0.07743 0.47075 0.86539 0.0
C846 C 0.08223 0.45834 0.88298 0.0
C847 C 0.11535 0.48591 0.87842 0.0
C848 C 0.11237 0.49166 0.86958 0.0
C849 C 0.04463 0.44511 0.86982 0.0
C850 C 0.0465 0.43791 0.8786 0.0
H851 H 0.13801 0.51308 0.86612 0.0
H852 H 0.01692 0.42977 0.86646 0.0
H853 H 0.14172 0.55766 0.84816 0.0
H854 H 0.08148 0.60548 0.86101 0.0
H855 H 0.05349 0.34169 0.85487 0.0
H856 H 0.14334 0.50244 0.88163 0.0
H857 H 0.0202 0.41695 0.88197 0.0
C858 C 0.46085 0.52544 0.85741 0.0
C859 C 0.42057 0.50629 0.85706 0.0
N860 N 0.40995 0.52995 0.85311 0.0
N861 N 0.47536 0.56081 0.85365 0.0
C862 C 0.44362 0.56261 0.85107 0.0
H863 H 0.4785 0.51422 0.86015 0.0
Co864 Co 0.52801 0.59676 0.85192 0.0
C865 C 0.52548 0.65936 0.84203 0.0
O866 O 0.54927 0.65899 0.83612 0.0
N867 N 0.58128 0.63291 0.85021 0.0
C868 C 0.63912 0.68722 0.85107 0.0
C869 C 0.59989 0.67064 0.85277 0.0
C870 C 0.60994 0.6272 0.84703 0.0
N871 N 0.64556 0.65988 0.84746 0.0
O872 O 0.52235 0.57815 0.84032 0.0
H873 H 0.58591 0.68498 0.85589 0.0
H874 H 0.60481 0.59953 0.8445 0.0
O875 O 0.5151 0.63591 0.84844 0.0
C876 C 0.52417 0.54699 0.8396 0.0
O877 O 0.53695 0.53575 0.84625 0.0
N878 N 0.53237 0.61245 0.86347 0.0
C879 C 0.54192 0.63418 0.88083 0.0
C880 C 0.51473 0.63789 0.87568 0.0
C881 C 0.51036 0.62683 0.86698 0.0
C882 C 0.55786 0.60725 0.86846 0.0
C883 C 0.56357 0.61852 0.87715 0.0
H884 H 0.48909 0.62959 0.86311 0.0
H885 H 0.57417 0.59468 0.86564 0.0
H886 H 0.44492 0.58695 0.84758 0.0
H887 H 0.40067 0.47747 0.8596 0.0
H888 H 0.66124 0.71687 0.85263 0.0
H889 H 0.49736 0.64969 0.87833 0.0
H890 H 0.58431 0.61456 0.88098 0.0
C891 C 0.60088 0.81358 0.96795 0.0
C892 C 0.57963 0.83241 0.96893 0.0
N893 N 0.54682 0.80863 0.97338 0.0
N894 N 0.58148 0.77824 0.97179 0.0
C895 C 0.54884 0.77624 0.97508 0.0
H896 H 0.62878 0.82494 0.96471 0.0
Co897 Co 0.59837 0.74219 0.9729 0.0
C898 C 0.5316 0.67597 0.98171 0.0
O899 O 0.55459 0.67333 0.98749 0.0
N900 N 0.61573 0.70595 0.97403 0.0
C901 C 0.62074 0.6527 0.97243 0.0
C902 C 0.59793 0.66923 0.97084 0.0
C903 C 0.64939 0.71108 0.97751 0.0
N904 N 0.65325 0.67907 0.97664 0.0
O905 O 0.60968 0.75725 0.98472 0.0
H906 H 0.57041 0.65559 0.96739 0.0
H907 H 0.67071 0.73782 0.98061 0.0
O908 O 0.54594 0.70193 0.9758 0.0
C909 C 0.6426 0.78821 0.98571 0.0
O910 O 0.6669 0.80098 0.9791 0.0
N911 N 0.58857 0.72998 0.96114 0.0
C912 C 0.57795 0.71238 0.94351 0.0
C913 C 0.54675 0.70798 0.94869 0.0
C914 C 0.55266 0.71696 0.9575 0.0
C915 C 0.61966 0.73622 0.95617 0.0
C916 C 0.61491 0.72706 0.94735 0.0
H917 H 0.5284 0.71375 0.96137 0.0
H918 H 0.64819 0.74763 0.95911 0.0
H919 H 0.52723 0.7519 0.97885 0.0
H920 H 0.58739 0.86104 0.96646 0.0
H921 H 0.61415 0.62379 0.97045 0.0
H922 H 0.51801 0.69799 0.94598 0.0
H923 H 0.63986 0.7308 0.94366 0.0
C924 C 0.20332 0.80115 0.96482 0.0
C925 C 0.18303 0.76099 0.96527 0.0
N926 N 0.20165 0.74975 0.97089 0.0
N927 N 0.2345 0.81501 0.97012 0.0
C928 C 0.23268 0.78306 0.97376 0.0
H929 H 0.19572 0.81919 0.96094 0.0
Co930 Co 0.2693 0.86718 0.97222 0.0
C931 C 0.33066 0.86502 0.98277 0.0
O932 O 0.33044 0.8897 0.98845 0.0
N933 N 0.30433 0.92016 0.97422 0.0
C934 C 0.3576 0.97885 0.9737 0.0
C935 C 0.34235 0.93989 0.97188 0.0
C936 C 0.2971 0.94779 0.97739 0.0
N937 N 0.3291 0.98393 0.97716 0.0
O938 O 0.24757 0.86039 0.98357 0.0
H939 H 0.35784 0.92688 0.96886 0.0
H940 H 0.26882 0.9415 0.97977 0.0
O941 O 0.30754 0.85415 0.97631 0.0
C942 C 0.21572 0.8612 0.98356 0.0
O943 O 0.20632 0.87327 0.9765 0.0
N944 N 0.28771 0.87269 0.9609 0.0
C945 C 0.30851 0.88176 0.94349 0.0
C946 C 0.31975 0.86104 0.94904 0.0
C947 C 0.30854 0.8563 0.95774 0.0
C948 C 0.27642 0.89278 0.9556 0.0
C949 C 0.28646 0.89763 0.94684 0.0
H950 H 0.3161 0.8389 0.96183 0.0
H951 H 0.25922 0.9048 0.9582 0.0
H952 H 0.25303 0.78416 0.9786 0.0
H953 H 0.15681 0.74158 0.96169 0.0
H954 H 0.38721 0.00166 0.97233 0.0
H955 H 0.33613 0.84774 0.94662 0.0
H956 H 0.27725 0.91378 0.94272 0.0
C957 C 0.2067 0.41096 0.96605 0.0
C958 C 0.24688 0.43353 0.96584 0.0
N959 N 0.25752 0.46527 0.97084 0.0
N960 N 0.19232 0.42848 0.97116 0.0
C961 C 0.22394 0.46148 0.97398 0.0
H962 H 0.18916 0.38283 0.96298 0.0
Co963 Co 0.1411 0.40636 0.97488 0.0
C964 C 0.12581 0.47134 0.97718 0.0
O965 O 0.09153 0.44891 0.97358 0.0
N966 N 0.08908 0.38265 0.9791 0.0
C967 C 0.04084 0.36997 0.98839 0.0
C968 C 0.08005 0.39286 0.98678 0.0
C969 C 0.05477 0.35183 0.97643 0.0
N970 N 0.02503 0.34419 0.98188 0.0
O971 O 0.15787 0.3997 0.98597 0.0
H972 H 0.10093 0.41545 0.99102 0.0
H973 H 0.05127 0.33435 0.97078 0.0
O974 O 0.14945 0.4583 0.97824 0.0
C975 C 0.15273 0.3657 0.98735 0.0
O976 O 0.13193 0.3378 0.98176 0.0
N977 N 0.12656 0.41195 0.96352 0.0
C978 C 0.11057 0.41815 0.9461 0.0
C979 C 0.13509 0.4515 0.95098 0.0
C980 C 0.1433 0.44773 0.95958 0.0
C981 C 0.10557 0.37905 0.95868 0.0
C982 C 0.09615 0.38141 0.95004 0.0
H983 H 0.16449 0.47374 0.96293 0.0
H984 H 0.09749 0.35082 0.96138 0.0
H985 H 0.22265 0.4812 0.97867 0.0
H986 H 0.26675 0.42679 0.96243 0.0
H987 H 0.02541 0.37102 0.9941 0.0
H988 H 0.14917 0.48037 0.9481 0.0
H989 H 0.07825 0.35466 0.94648 0.0
C990 C 0.22123 0.3994 0.46345 0.0
C991 C 0.19945 0.41784 0.46319 0.0
N992 N 0.21491 0.44773 0.46889 0.0
N993 N 0.25024 0.41768 0.46927 0.0
C994 C 0.24553 0.44682 0.4725 0.0
H995 H 0.2161 0.37409 0.45971 0.0
Co996 Co 0.28636 0.4034 0.47266 0.0
C997 C 0.34424 0.47418 0.48203 0.0
O998 O 0.34406 0.45358 0.48874 0.0
N999 N 0.32259 0.38859 0.47607 0.0
C1000 C 0.377 0.38528 0.47691 0.0
C1001 C 0.36145 0.40821 0.47456 0.0
C1002 C 0.31517 0.35372 0.47928 0.0
N1003 N 0.34784 0.35081 0.47986 0.0
O1004 O 0.26455 0.3946 0.48403 0.0
H1005 H 0.37721 0.43666 0.47152 0.0
H1006 H 0.28613 0.33053 0.4809 0.0
O1007 O 0.32296 0.45724 0.47546 0.0
C1008 C 0.23269 0.36236 0.48489 0.0
O1009 O 0.22246 0.33602 0.47874 0.0
N1010 N 0.30552 0.41072 0.46133 0.0
C1011 C 0.3296 0.41666 0.44411 0.0
C1012 C 0.33146 0.44888 0.44842 0.0
C1013 C 0.31926 0.44532 0.45702 0.0
C1014 C 0.30269 0.37884 0.45724 0.0
C1015 C 0.31505 0.38128 0.44866 0.0
H1016 H 0.31984 0.47012 0.46013 0.0
H1017 H 0.29071 0.35131 0.46066 0.0
H1018 H 0.26345 0.46625 0.47762 0.0
H1019 H 0.1743 0.40995 0.4591 0.0
H1020 H 0.4072 0.39287 0.4761 0.0
H1021 H 0.34125 0.47643 0.44512 0.0
H1022 H 0.31318 0.35566 0.44565 0.0
C1023 C 0.60015 0.80548 0.46821 0.0
C1024 C 0.57994 0.76521 0.46812 0.0
N1025 N 0.54565 0.75282 0.47224 0.0
N1026 N 0.57861 0.81818 0.47238 0.0
C1027 C 0.54557 0.78544 0.47476 0.0
H1028 H 0.62938 0.82431 0.46576 0.0
Co1029 Co 0.5964 0.86913 0.47585 0.0
C1030 C 0.527 0.87848 0.47598 0.0
O1031 O 0.54867 0.91282 0.47232 0.0
N1032 N 0.6158 0.921 0.47985 0.0
C1033 C 0.62349 0.96937 0.48858 0.0
C1034 C 0.60092 0.93028 0.48676 0.0
C1035 C 0.64881 0.95492 0.4779 0.0
N1036 N 0.65369 0.98484 0.483 0.0
O1037 O 0.59934 0.85343 0.48731 0.0
H1038 H 0.57582 0.90957 0.49048 0.0
H1039 H 0.6701 0.95773 0.47317 0.0
O1040 O 0.54222 0.85742 0.47789 0.0
C1041 C 0.63261 0.85812 0.48934 0.0
O1042 O 0.66259 0.87991 0.4843 0.0
N1043 N 0.59458 0.88258 0.46414 0.0
C1044 C 0.59456 0.89523 0.44633 0.0
C1045 C 0.55985 0.86979 0.45065 0.0
C1046 C 0.56059 0.86329 0.45949 0.0
C1047 C 0.62901 0.9052 0.45989 0.0
C1048 C 0.62957 0.91306 0.45103 0.0
H1049 H 0.53388 0.84129 0.46249 0.0
H1050 H 0.65638 0.91526 0.46321 0.0
H1051 H 0.523 0.78535 0.47876 0.0
H1052 H 0.59001 0.7465 0.46541 0.0
H1053 H 0.61928 0.98472 0.49391 0.0
H1054 H 0.53239 0.85443 0.44717 0.0
H1055 H 0.65724 0.93127 0.44779 0.0
C1056 C 0.18594 0.77099 0.46479 0.0
C1057 C 0.22592 0.7914 0.46391 0.0
N1058 N 0.2412 0.77632 0.46948 0.0
N1059 N 0.17606 0.74296 0.47083 0.0
C1060 C 0.21029 0.74686 0.47358 0.0
H1061 H 0.16547 0.77716 0.46149 0.0
Co1062 Co 0.12672 0.71237 0.47547 0.0
C1063 C 0.1151 0.6329 0.47669 0.0
O1064 O 0.07915 0.61989 0.47397 0.0
N1065 N 0.07666 0.68256 0.48054 0.0
C1066 C 0.03126 0.64654 0.49035 0.0
C1067 C 0.06992 0.66268 0.48809 0.0
C1068 C 0.0417 0.67923 0.47857 0.0
N1069 N 0.01361 0.65712 0.48436 0.0
O1070 O 0.14751 0.73487 0.48647 0.0
H1071 H 0.09204 0.66066 0.49181 0.0
H1072 H 0.03664 0.69343 0.47318 0.0
O1073 O 0.13801 0.66974 0.47768 0.0
C1074 C 0.14381 0.76432 0.48822 0.0
O1075 O 0.12087 0.77133 0.48329 0.0
N1076 N 0.10801 0.69365 0.4642 0.0
C1077 C 0.09272 0.68296 0.44646 0.0
C1078 C 0.11498 0.66894 0.45048 0.0
C1079 C 0.1229 0.67519 0.45931 0.0
C1080 C 0.08758 0.70881 0.46026 0.0
C1081 C 0.07848 0.70273 0.45144 0.0
H1082 H 0.14358 0.66779 0.46199 0.0
H1083 H 0.08108 0.7285 0.46379 0.0
H1084 H 0.21259 0.73005 0.47885 0.0
H1085 H 0.24248 0.81606 0.45965 0.0
H1086 H 0.01761 0.6299 0.49617 0.0
H1087 H 0.12769 0.65482 0.44674 0.0
H1088 H 0.06289 0.71571 0.44843 0.0
C1089 C 0.06755 0.54621 0.3625 0.0
C1090 C 0.08768 0.5261 0.36288 0.0
N1091 N 0.11807 0.54295 0.35732 0.0
N1092 N 0.08528 0.57559 0.35674 0.0
C1093 C 0.11577 0.57274 0.35366 0.0
H1094 H 0.04161 0.53983 0.36614 0.0
Co1095 Co 0.06927 0.61048 0.35343 0.0
C1096 C 0.13961 0.67087 0.34432 0.0
O1097 O 0.11896 0.6695 0.33751 0.0
N1098 N 0.05277 0.64551 0.35012 0.0
C1099 C 0.04762 0.69888 0.34927 0.0
C1100 C 0.07161 0.68444 0.35152 0.0
C1101 C 0.01721 0.63692 0.34713 0.0
N1102 N 0.01319 0.6689 0.34656 0.0
O1103 O 0.06163 0.58956 0.342 0.0
H1104 H 0.10041 0.70112 0.35435 0.0
H1105 H 0.99403 0.60747 0.34586 0.0
O1106 O 0.12291 0.64899 0.35084 0.0
C1107 C 0.02917 0.55792 0.34114 0.0
O1108 O 0.00329 0.54743 0.34742 0.0
N1109 N 0.07497 0.62841 0.3648 0.0
C1110 C 0.0771 0.64864 0.38219 0.0
C1111 C 0.11088 0.65354 0.378 0.0
C1112 C 0.10921 0.64323 0.36929 0.0
C1113 C 0.04175 0.62293 0.36875 0.0
C1114 C 0.04227 0.63337 0.37741 0.0
H1115 H 0.13513 0.64595 0.36626 0.0
H1116 H 0.01458 0.61006 0.36518 0.0
H1117 H 0.13534 0.59156 0.34865 0.0
H1118 H 0.08066 0.50126 0.367 0.0
H1119 H 0.05492 0.7291 0.34974 0.0
H1120 H 0.13816 0.66407 0.38146 0.0
H1121 H 0.01552 0.62929 0.38032 0.0
C1122 C 0.46458 0.53874 0.35807 0.0
C1123 C 0.48321 0.57896 0.35824 0.0
N1124 N 0.45967 0.59013 0.35443 0.0
N1125 N 0.42959 0.52485 0.35417 0.0
C1126 C 0.42738 0.55682 0.35203 0.0
H1127 H 0.47647 0.52081 0.36027 0.0
Co1128 Co 0.39778 0.4737 0.35068 0.0
C1129 C 0.31727 0.45947 0.35141 0.0
O1130 O 0.30745 0.42554 0.35497 0.0
N1131 N 0.36646 0.42168 0.34666 0.0
C1132 C 0.3257 0.37325 0.33796 0.0
C1133 C 0.34226 0.41234 0.33976 0.0
C1134 C 0.36535 0.38771 0.34866 0.0
N1135 N 0.34033 0.35781 0.34356 0.0
O1136 O 0.41457 0.49038 0.33912 0.0
H1137 H 0.33759 0.433 0.33609 0.0
H1138 H 0.38329 0.38469 0.3535 0.0
O1139 O 0.35299 0.48264 0.34927 0.0
C1140 C 0.44249 0.48504 0.33681 0.0
O1141 O 0.45081 0.4629 0.34169 0.0
N1142 N 0.38505 0.45936 0.36242 0.0
C1143 C 0.3781 0.44615 0.38028 0.0
C1144 C 0.36474 0.46935 0.37642 0.0
C1145 C 0.36916 0.47621 0.36752 0.0
C1146 C 0.40066 0.43902 0.3662 0.0
C1147 C 0.39632 0.43086 0.37508 0.0
H1148 H 0.36143 0.49669 0.36485 0.0
H1149 H 0.41865 0.43108 0.36243 0.0
H1150 H 0.4038 0.55591 0.34828 0.0
H1151 H 0.51216 0.59849 0.36076 0.0
H1152 H 0.306 0.35779 0.33266 0.0
H1153 H 0.35173 0.4828 0.38029 0.0
H1154 H 0.40883 0.41451 0.37793 0.0
C1155 C 0.46333 0.93751 0.36077 0.0
C1156 C 0.423 0.9163 0.36045 0.0
N1157 N 0.41246 0.88271 0.35619 0.0
N1158 N 0.47786 0.91733 0.35669 0.0
C1159 C 0.44613 0.88418 0.35395 0.0
H1160 H 0.48097 0.96618 0.3636 0.0
Co1161 Co 0.53009 0.93453 0.35424 0.0
C1162 C 0.52398 0.86566 0.34517 0.0
O1163 O 0.54481 0.88707 0.33859 0.0
N1164 N 0.58282 0.95217 0.35176 0.0
C1165 C 0.64165 0.95775 0.35154 0.0
C1166 C 0.60294 0.93374 0.35359 0.0
C1167 C 0.61004 0.98754 0.34872 0.0
N1168 N 0.64626 0.99181 0.34851 0.0
O1169 O 0.5202 0.94296 0.34259 0.0
H1170 H 0.59049 0.90501 0.35648 0.0
H1171 H 0.60362 0.01025 0.34703 0.0
O1172 O 0.51699 0.88155 0.35158 0.0
C1173 C 0.52088 0.97524 0.34151 0.0
O1174 O 0.53426 0.00095 0.34784 0.0
N1175 N 0.53889 0.92776 0.36583 0.0
C1176 C 0.55574 0.92238 0.38316 0.0
C1177 C 0.52694 0.88952 0.37871 0.0
C1178 C 0.51891 0.89282 0.37004 0.0
C1179 C 0.5658 0.96035 0.37011 0.0
C1180 C 0.5751 0.95823 0.37874 0.0
H1181 H 0.49632 0.86736 0.36676 0.0
H1182 H 0.58058 0.98808 0.36675 0.0
H1183 H 0.44743 0.8621 0.35006 0.0
H1184 H 0.40303 0.92487 0.36311 0.0
H1185 H 0.66452 0.95052 0.3523 0.0
H1186 H 0.51029 0.86152 0.38192 0.0
H1187 H 0.59763 0.98438 0.38186 0.0
H1188 H 0.08725 0.13489 0.18717 0.0
H1189 H 0.23263 0.06516 0.16942 0.0
H1190 H 0.20995 0.21513 0.18302 0.0
H1191 H 0.12876 0.99045 0.18421 0.0
H1192 H 0.21995 0.11947 0.17157 0.0
H1193 H 0.09756 0.0805 0.18338 0.0
C1194 C 0.11631 0.14102 0.1854 0.0
C1195 C 0.14785 0.17946 0.18545 0.0
C1196 C 0.19984 0.09106 0.17427 0.0
C1197 C 0.15981 0.11755 0.18104 0.0
C1198 C 0.20684 0.06003 0.17299 0.0
C1199 C 0.18173 0.02332 0.17666 0.0
C1200 C 0.16715 0.08504 0.17911 0.0
C1201 C 0.14896 0.01835 0.1813 0.0
C1202 C 0.12221 0.11002 0.18328 0.0
C1203 C 0.18501 0.18583 0.18317 0.0
N1204 N 0.14258 0.04883 0.18239 0.0
N1205 N 0.18998 0.15517 0.18102 0.0
H1206 H 0.97967 0.16467 0.19259 0.0
H1207 H 0.83224 0.95818 0.17151 0.0
H1208 H 0.97901 0.1433 0.16511 0.0
H1209 H 0.81776 0.9941 0.19701 0.0
H1210 H 0.88789 0.02395 0.16903 0.0
H1211 H 0.92258 0.10026 0.19436 0.0
C1212 C 0.96764 0.14634 0.18691 0.0
C1213 C 0.98435 0.15938 0.17868 0.0
C1214 C 0.87231 0.01744 0.17513 0.0
C1215 C 0.91847 0.08525 0.18068 0.0
C1216 C 0.84072 0.9799 0.17657 0.0
C1217 C 0.82038 0.97062 0.18449 0.0
C1218 C 0.88388 0.04568 0.1817 0.0
C1219 C 0.83228 1.00001 0.19078 0.0
C1220 C 0.93478 0.10957 0.18793 0.0
C1221 C 0.96704 0.1344 0.17156 0.0
N1222 N 0.86338 0.03606 0.18928 0.0
N1223 N 0.93509 0.09835 0.17273 0.0
H1224 H 0.86558 0.88116 0.18217 0.0
H1225 H 0.00808 0.79446 0.18333 0.0
H1226 H 0.83624 0.77252 0.1695 0.0
H1227 H 0.05071 0.91827 0.18475 0.0
H1228 H 0.94315 0.78381 0.17942 0.0
H1229 H 0.93248 0.89408 0.18418 0.0
C1230 C 0.87339 0.86027 0.17972 0.0
C1231 C 0.84542 0.82577 0.17564 0.0
C1232 C 0.96683 0.81331 0.18054 0.0
C1233 C 0.92155 0.83992 0.17811 0.0
C1234 C 0.00368 0.81933 0.18283 0.0
C1235 C 0.03467 0.85726 0.18437 0.0
C1236 C 0.96081 0.8454 0.17997 0.0
C1237 C 0.02764 0.88861 0.18355 0.0
C1238 C 0.91153 0.86765 0.18087 0.0
C1239 C 0.85703 0.79962 0.17261 0.0
N1240 N 0.99136 0.88196 0.18149 0.0
N1241 N 0.89412 0.80696 0.17401 0.0
H1242 H 0.07298 0.23616 0.32561 0.0
H1243 H 0.13507 0.08517 0.30769 0.0
H1244 H 0.9968 0.13559 0.31009 0.0
H1245 H 0.21925 0.20584 0.31289 0.0
H1246 H 0.08229 0.09836 0.31123 0.0
H1247 H 0.12526 0.2203 0.32372 0.0
C1248 C 0.06708 0.21044 0.32192 0.0
C1249 C 0.03057 0.1872 0.31798 0.0
C1250 C 0.11232 0.12192 0.31162 0.0
C1251 C 0.08999 0.16896 0.31582 0.0
C1252 C 0.1424 0.11438 0.30964 0.0
C1253 C 0.1815 0.14454 0.30996 0.0
C1254 C 0.12141 0.15976 0.31407 0.0
C1255 C 0.18943 0.18196 0.31247 0.0
C1256 C 0.09697 0.20162 0.32079 0.0
C1257 C 0.02459 0.15441 0.3132 0.0
N1258 N 0.15962 0.18853 0.31446 0.0
N1259 N 0.05396 0.14624 0.31226 0.0
H1260 H 0.76499 0.84227 0.32347 0.0
H1261 H 0.92174 0.05881 0.30866 0.0
H1262 H 0.87092 0.86986 0.30971 0.0
H1263 H 0.79917 0.02081 0.31128 0.0
H1264 H 0.90747 0.99227 0.3119 0.0
H1265 H 0.78133 0.9107 0.32197 0.0
C1266 C 0.79197 0.86283 0.32027 0.0
C1267 C 0.81663 0.85042 0.3167 0.0
C1268 C 0.88372 0.99854 0.31179 0.0
C1269 C 0.83539 0.92835 0.31498 0.0
C1270 C 0.89186 0.03646 0.30999 0.0
C1271 C 0.86153 0.04517 0.30967 0.0
C1272 C 0.84505 0.96921 0.31344 0.0
C1273 C 0.82325 0.01509 0.31137 0.0
C1274 C 0.80107 0.9017 0.31935 0.0
C1275 C 0.85102 0.87817 0.31253 0.0
N1276 N 0.81607 0.9784 0.31322 0.0
N1277 N 0.85942 0.91584 0.3118 0.0
H1278 H 0.13771 0.00953 0.30812 0.0
H1279 H 0.98261 0.78336 0.3111 0.0
H1280 H 0.16004 0.93027 0.32302 0.0
H1281 H 0.94913 0.8704 0.30668 0.0
H1282 H 0.04942 0.8357 0.31433 0.0
H1283 H 0.06965 0.95796 0.30643 0.0
C1284 C 0.1282 0.98133 0.31109 0.0
C1285 C 0.15452 0.97413 0.31573 0.0
C1286 C 0.02734 0.84326 0.3127 0.0
C1287 C 0.07687 0.91484 0.31368 0.0
C1288 C 0.98941 0.8135 0.3108 0.0
C1289 C 0.96047 0.82268 0.3086 0.0
C1290 C 0.03647 0.88243 0.31224 0.0
C1291 C 0.97057 0.86213 0.30841 0.0
C1292 C 0.08935 0.95196 0.31013 0.0
C1293 C 0.14062 0.93707 0.31944 0.0
N1294 N 0.00783 0.89059 0.31011 0.0
N1295 N 0.10278 0.90859 0.31825 0.0
H1296 H 0.8749 0.01101 0.80667 0.0
H1297 H 0.79669 0.78346 0.81068 0.0
H1298 H 0.77555 0.93627 0.82269 0.0
H1299 H 0.91705 0.86666 0.80486 0.0
H1300 H 0.78532 0.83788 0.81392 0.0
H1301 H 0.88842 0.95745 0.80484 0.0
C1302 C 0.85611 0.98341 0.80986 0.0
C1303 C 0.82409 0.97809 0.81486 0.0
C1304 C 0.81424 0.84415 0.81198 0.0
C1305 C 0.83898 0.91644 0.81264 0.0
C1306 C 0.82063 0.81319 0.81006 0.0
C1307 C 0.85783 0.82067 0.80748 0.0
C1308 C 0.8451 0.8828 0.81114 0.0
C1309 C 0.88803 0.85968 0.80688 0.0
C1310 C 0.86388 0.95287 0.80882 0.0
C1311 C 0.8007 0.94167 0.81884 0.0
N1312 N 0.88093 0.8893 0.80862 0.0
N1313 N 0.80832 0.91202 0.81756 0.0
H1314 H 0.1383 0.05247 0.80218 0.0
H1315 H 0.07156 0.84039 0.8211 0.0
H1316 H 0.22028 0.01288 0.80712 0.0
H1317 H 0.99633 0.86441 0.80512 0.0
H1318 H 0.1251 0.90726 0.81851 0.0
H1319 H 0.0844 0.98692 0.80565 0.0
C1320 C 0.14488 0.02995 0.80403 0.0
C1321 C 0.18369 0.03793 0.80434 0.0
C1322 C 0.09678 0.89784 0.81562 0.0
C1323 C 0.12241 0.96321 0.8084 0.0
C1324 C 0.06618 0.85986 0.81714 0.0
C1325 C 0.02949 0.84686 0.81331 0.0
C1326 C 0.09039 0.92315 0.81037 0.0
C1327 C 0.02421 0.87321 0.80817 0.0
C1328 C 0.11419 0.9926 0.80597 0.0
C1329 C 0.19071 0.0077 0.80672 0.0
N1330 N 0.05429 0.91016 0.80688 0.0
N1331 N 0.16035 0.97167 0.80872 0.0
H1332 H 0.1431 0.1319 0.80391 0.0
H1333 H 0.99249 0.20782 0.80916 0.0
H1334 H 0.16802 0.23055 0.82018 0.0
H1335 H 0.95507 0.08702 0.80387 0.0
H1336 H 0.05895 0.21996 0.81184 0.0
H1337 H 0.07551 0.11761 0.80251 0.0
C1338 C 0.13428 0.15042 0.80723 0.0
C1339 C 0.16118 0.18244 0.81218 0.0
C1340 C 0.03611 0.19077 0.81014 0.0
C1341 C 0.08413 0.16664 0.81047 0.0
C1342 C 0.99837 0.18394 0.80854 0.0
C1343 C 0.96841 0.14641 0.80627 0.0
C1344 C 0.04403 0.16002 0.80928 0.0
C1345 C 0.97735 0.1163 0.80566 0.0
C1346 C 0.0957 0.14218 0.80644 0.0
C1347 C 0.14815 0.20544 0.81635 0.0
N1348 N 0.01445 0.12382 0.80707 0.0
N1349 N 0.11061 0.19737 0.81532 0.0
H1350 H 0.95178 0.82565 0.66274 0.0
H1351 H 0.81449 0.84535 0.69829 0.0
H1352 H 0.95637 0.80716 0.69021 0.0
H1353 H 0.82051 0.88232 0.67172 0.0
H1354 H 0.86287 0.82607 0.69502 0.0
H1355 H 0.9006 0.84233 0.66551 0.0
C1356 C 0.94213 0.82516 0.66934 0.0
C1357 C 0.95864 0.81528 0.67626 0.0
C1358 C 0.85363 0.83837 0.68989 0.0
C1359 C 0.90009 0.83398 0.67945 0.0
C1360 C 0.82574 0.8491 0.69174 0.0
C1361 C 0.81351 0.86561 0.68528 0.0
C1362 C 0.86941 0.84397 0.68149 0.0
C1363 C 0.82955 0.87025 0.67693 0.0
C1364 C 0.91297 0.8347 0.67091 0.0
C1365 C 0.94495 0.81504 0.68468 0.0
N1366 N 0.8567 0.85949 0.67527 0.0
N1367 N 0.91651 0.82416 0.68602 0.0
H1368 H 0.08969 0.93278 0.67607 0.0
H1369 H 0.25768 0.14908 0.68765 0.0
H1370 H 0.18381 0.96085 0.69417 0.0
H1371 H 0.14884 0.12558 0.67587 0.0
H1372 H 0.23435 0.07947 0.68804 0.0
H1373 H 0.11388 0.0024 0.67418 0.0
C1374 C 0.1153 0.95314 0.67967 0.0
C1375 C 0.13445 0.94017 0.68535 0.0
C1376 C 0.21552 0.08942 0.68534 0.0
C1377 C 0.16254 0.02036 0.68305 0.0
C1378 C 0.22886 0.12929 0.68509 0.0
C1379 C 0.20505 0.14327 0.68178 0.0
C1380 C 0.17803 0.063 0.68224 0.0
C1381 C 0.1681 0.11605 0.6785 0.0
C1382 C 0.12911 0.99307 0.67855 0.0
C1383 C 0.16789 0.96872 0.68969 0.0
N1384 N 0.1556 0.07707 0.67884 0.0
N1385 N 0.18076 0.00725 0.68844 0.0
H1386 H 0.85168 0.0776 0.66552 0.0
H1387 H 0.0603 0.1252 0.68377 0.0
H1388 H 0.86699 0.99967 0.68256 0.0
H1389 H 0.0331 0.21526 0.67751 0.0
H1390 H 0.99247 0.07557 0.68046 0.0
H1391 H 0.92169 0.12532 0.66693 0.0
C1392 C 0.86988 0.07032 0.66944 0.0
C1393 C 0.85359 0.03479 0.67397 0.0
C1394 C 1.00144 0.10621 0.67979 0.0
C1395 C 0.93329 0.08888 0.67557 0.0
C1396 C 0.04003 0.13441 0.68164 0.0
C1397 C 0.05199 0.17422 0.681 0.0
C1398 C 0.9749 0.11797 0.67711 0.0
C1399 C 0.02472 0.18481 0.67822 0.0
C1400 C 0.90966 0.0976 0.67029 0.0
C1401 C 0.87838 0.02688 0.67902 0.0
N1402 N 0.9874 0.15682 0.67635 0.0
N1403 N 0.91701 0.0537 0.67968 0.0
H1404 H 0.74872 0.46574 0.52125 0.0
H1405 H 0.90118 0.41105 0.50091 0.0
H1406 H 0.86382 0.55345 0.51289 0.0
H1407 H 0.81146 0.33658 0.51908 0.0
H1408 H 0.88206 0.46087 0.50293 0.0
H1409 H 0.76562 0.41507 0.51818 0.0
C1410 C 0.77748 0.47423 0.51873 0.0
C1411 C 0.80505 0.51374 0.51738 0.0
C1412 C 0.86654 0.43353 0.50644 0.0
C1413 C 0.82445 0.45615 0.51378 0.0
C1414 C 0.87723 0.40503 0.50525 0.0
C1415 C 0.85794 0.3697 0.50985 0.0
C1416 C 0.8359 0.42628 0.51214 0.0
C1417 C 0.82727 0.3635 0.51544 0.0
C1418 C 0.78716 0.44542 0.51702 0.0
C1419 C 0.84199 0.52332 0.51413 0.0
N1420 N 0.81711 0.39146 0.51641 0.0
N1421 N 0.85061 0.49468 0.51241 0.0
H1422 H 0.44344 0.30078 0.51545 0.0
H1423 H 0.66665 0.46426 0.51963 0.0
H1424 H 0.53372 0.27339 0.52136 0.0
H1425 H 0.58711 0.47941 0.50308 0.0
H1426 H 0.61678 0.39577 0.52169 0.0
H1427 H 0.49408 0.36845 0.51228 0.0
C1428 C 0.47393 0.30915 0.51611 0.0
C1429 C 0.48457 0.28171 0.5187 0.0
C1430 C 0.61036 0.41402 0.51755 0.0
C1431 C 0.54233 0.35859 0.51514 0.0
C1432 C 0.63875 0.4531 0.51639 0.0
C1433 C 0.63099 0.4775 0.51116 0.0
C1434 C 0.57365 0.3994 0.51361 0.0
C1435 C 0.59434 0.4615 0.50712 0.0
C1436 C 0.50273 0.34754 0.51424 0.0
C1437 C 0.52443 0.29373 0.51935 0.0
N1438 N 0.56679 0.42349 0.5085 0.0
N1439 N 0.5519 0.33139 0.51766 0.0
H1440 H 0.73001 0.25597 0.52084 0.0
H1441 H 0.52022 0.10133 0.50227 0.0
H1442 H 0.69948 0.13788 0.51445 0.0
H1443 H 0.53703 0.19362 0.5198 0.0
H1444 H 0.58912 0.12016 0.5042 0.0
H1445 H 0.66215 0.23918 0.51805 0.0
C1446 C 0.70899 0.22658 0.51881 0.0
C1447 C 0.72015 0.19816 0.51792 0.0
C1448 C 0.57766 0.13633 0.50759 0.0
C1449 C 0.64291 0.17893 0.51463 0.0
C1450 C 0.53849 0.1258 0.50645 0.0
C1451 C 0.5229 0.1459 0.5109 0.0
C1452 C 0.60155 0.16765 0.51308 0.0
C1453 C 0.54783 0.17722 0.51628 0.0
C1454 C 0.67036 0.21698 0.51726 0.0
C1455 C 0.69184 0.16042 0.51531 0.0
N1456 N 0.58597 0.18725 0.51719 0.0
N1457 N 0.65452 0.15192 0.5137 0.0
H1458 H 0.69747 0.48204 0.66064 0.0
H1459 H 0.84813 0.48174 0.62584 0.0
H1460 H 0.72022 0.53768 0.63555 0.0
H1461 H 0.83269 0.43169 0.65142 0.0
H1462 H 0.80168 0.50306 0.62948 0.0
H1463 H 0.7475 0.46407 0.65764 0.0
C1464 C 0.71304 0.4906 0.65453 0.0
C1465 C 0.70424 0.51092 0.64829 0.0
C1466 C 0.80845 0.48744 0.63432 0.0
C1467 C 0.76129 0.49042 0.64481 0.0
C1468 C 0.83517 0.47539 0.63224 0.0
C1469 C 0.84433 0.45472 0.6383 0.0
C1470 C 0.79059 0.47879 0.64253 0.0
C1471 C 0.82609 0.44692 0.64648 0.0
C1472 C 0.7415 0.48025 0.65281 0.0
C1473 C 0.72538 0.52131 0.64048 0.0
N1474 N 0.80006 0.45891 0.64834 0.0
N1475 N 0.75273 0.51084 0.63896 0.0
H1476 H 0.40071 0.183 0.64662 0.0
H1477 H 0.59097 0.39492 0.64264 0.0
H1478 H 0.51782 0.20079 0.64602 0.0
H1479 H 0.47354 0.37016 0.63735 0.0
H1480 H 0.56525 0.32575 0.64615 0.0
H1481 H 0.42767 0.2534 0.64574 0.0
C1482 C 0.43217 0.20173 0.6464 0.0
C1483 C 0.45701 0.18586 0.64629 0.0
C1484 C 0.54515 0.33553 0.64425 0.0
C1485 C 0.48812 0.26679 0.64522 0.0
C1486 C 0.55976 0.37498 0.64227 0.0
C1487 C 0.53435 0.38821 0.63963 0.0
C1488 C 0.50479 0.30926 0.64366 0.0
C1489 C 0.49422 0.3611 0.63921 0.0
C1490 C 0.44754 0.24199 0.64586 0.0
C1491 C 0.49756 0.21172 0.64609 0.0
N1492 N 0.48071 0.32297 0.6412 0.0
N1493 N 0.51188 0.25095 0.64548 0.0
H1494 H 0.62075 0.1084 0.63221 0.0
H1495 H 0.79679 0.31925 0.64503 0.0
H1496 H 0.60178 0.20031 0.64168 0.0
H1497 H 0.80985 0.21937 0.63933 0.0
H1498 H 0.72557 0.27689 0.64431 0.0
H1499 H 0.69038 0.14942 0.635 0.0
C1500 C 0.63133 0.13739 0.63484 0.0
C1501 C 0.60551 0.15116 0.63662 0.0
C1502 C 0.7441 0.26427 0.6433 0.0
C1503 C 0.68549 0.19843 0.63992 0.0
C1504 C 0.78473 0.28839 0.64373 0.0
C1505 C 0.80936 0.27291 0.64216 0.0
C1506 C 0.72812 0.22451 0.64124 0.0
C1507 C 0.7921 0.23273 0.64051 0.0
C1508 C 0.67111 0.16073 0.6365 0.0
C1509 C 0.62077 0.18864 0.64022 0.0
N1510 N 0.75266 0.21007 0.64002 0.0
N1511 N 0.65987 0.21117 0.64169 0.0
H1512 H 0.46287 0.12113 0.1411 0.0
H1513 H 0.54825 0.34949 0.14371 0.0
H1514 H 0.58675 0.20286 0.14044 0.0
H1515 H 0.43929 0.26864 0.1561 0.0
H1516 H 0.56154 0.29602 0.14137 0.0
H1517 H 0.4515 0.17456 0.14538 0.0
C1518 C 0.48759 0.15034 0.14185 0.0
C1519 C 0.52577 0.15773 0.14041 0.0
C1520 C 0.53495 0.29007 0.1447 0.0
C1521 C 0.51309 0.2187 0.14524 0.0
C1522 C 0.52734 0.32054 0.14603 0.0
C1523 C 0.49267 0.31345 0.15013 0.0
C1524 C 0.50726 0.25205 0.14729 0.0
C1525 C 0.46652 0.27537 0.15298 0.0
C1526 C 0.48116 0.18066 0.14435 0.0
C1527 C 0.55692 0.19596 0.14155 0.0
N1528 N 0.47408 0.24589 0.15139 0.0
N1529 N 0.54988 0.22512 0.14381 0.0
H1530 H 0.80115 0.38307 0.14044 0.0
H1531 H 0.7328 0.16474 0.15562 0.0
H1532 H 0.88155 0.33976 0.14286 0.0
H1533 H 0.65726 0.19648 0.14202 0.0
H1534 H 0.78676 0.23234 0.15408 0.0
H1535 H 0.74709 0.31789 0.14405 0.0
C1536 C 0.80742 0.35988 0.14181 0.0
C1537 C 0.8458 0.36668 0.14131 0.0
C1538 C 0.75822 0.22446 0.15152 0.0
C1539 C 0.78426 0.29226 0.1455 0.0
C1540 C 0.72739 0.18607 0.15246 0.0
C1541 C 0.69057 0.17504 0.14893 0.0
C1542 C 0.75187 0.25203 0.14717 0.0
C1543 C 0.68524 0.20372 0.14481 0.0
C1544 C 0.7766 0.32272 0.14383 0.0
C1545 C 0.8523 0.33553 0.14308 0.0
N1546 N 0.71553 0.24089 0.14404 0.0
N1547 N 0.82183 0.29963 0.14512 0.0
H1548 H 0.66462 0.54581 0.14581 0.0
H1549 H 0.80885 0.46148 0.14224 0.0
H1550 H 0.62408 0.42332 0.14198 0.0
H1551 H 0.8406 0.56782 0.15625 0.0
H1552 H 0.74173 0.44858 0.14127 0.0
H1553 H 0.73049 0.55671 0.14875 0.0
C1554 C 0.66964 0.52128 0.14559 0.0
C1555 C 0.63898 0.48365 0.14364 0.0
C1556 C 0.76326 0.47452 0.14464 0.0
C1557 C 0.71389 0.49581 0.14694 0.0
C1558 C 0.80159 0.48193 0.14519 0.0
C1559 C 0.83031 0.51576 0.14935 0.0
C1560 C 0.75367 0.50153 0.14809 0.0
C1561 C 0.81926 0.54127 0.15304 0.0
C1562 C 0.70705 0.52743 0.14733 0.0
C1563 C 0.64684 0.45272 0.14353 0.0
N1564 N 0.78185 0.5339 0.15223 0.0
N1565 N 0.68359 0.45955 0.14507 0.0
H1566 H 0.67582 0.20377 0.01624 0.0
H1567 H 0.44702 0.1234 0.01572 0.0
H1568 H 0.59572 0.09709 0.00298 0.0
H1569 H 0.53189 0.2452 0.01939 0.0
H1570 H 0.50031 0.11088 0.01204 0.0
H1571 H 0.62277 0.21775 0.01835 0.0
C1572 C 0.64711 0.18343 0.01371 0.0
C1573 C 0.64015 0.14922 0.00942 0.0
C1574 C 0.50716 0.14036 0.01359 0.0
C1575 C 0.57913 0.16474 0.01196 0.0
C1576 C 0.47687 0.14742 0.01576 0.0
C1577 C 0.48515 0.18535 0.01787 0.0
C1578 C 0.54599 0.17135 0.0137 0.0
C1579 C 0.52425 0.21561 0.01773 0.0
C1580 C 0.61685 0.19146 0.01491 0.0
C1581 C 0.60237 0.12391 0.00628 0.0
N1582 N 0.55324 0.2079 0.01576 0.0
N1583 N 0.57309 0.13195 0.0077 0.0
H1584 H 0.89726 0.49994 -0.00105 0.0
H1585 H 0.75302 0.28515 0.01717 0.0
H1586 H 0.79966 0.47233 0.01585 0.0
H1587 H 0.87138 0.32266 0.00928 0.0
H1588 H 0.76424 0.35076 0.01412 0.0
H1589 H 0.88251 0.43187 9e-05 0.0
C1590 C 0.87243 0.47947 0.00279 0.0
C1591 C 0.84974 0.49183 0.00733 0.0
C1592 C 0.78771 0.34459 0.01303 0.0
C1593 C 0.83275 0.41423 0.00865 0.0
C1594 C 0.78126 0.30713 0.01472 0.0
C1595 C 0.8114 0.29857 0.01352 0.0
C1596 C 0.82442 0.37363 0.01 0.0
C1597 C 0.84758 0.32827 0.0104 0.0
C1598 C 0.86422 0.44078 0.00348 0.0
C1599 C 0.81807 0.46415 0.01227 0.0
N1600 N 0.85309 0.36451 0.00874 0.0
N1601 N 0.81051 0.42669 0.01279 0.0
H1602 H 0.72076 0.46545 0.01952 0.0
H1603 H 0.50339 0.39922 0.0043 0.0
H1604 H 0.67976 0.54733 0.01625 0.0
H1605 H 0.53208 0.32397 0.019 0.0
H1606 H 0.57121 0.4524 0.00585 0.0
H1607 H 0.65446 0.41161 0.01663 0.0
C1608 C 0.69779 0.47203 0.01814 0.0
C1609 C 0.70555 0.51077 0.01815 0.0
C1610 C 0.5626 0.42413 0.00868 0.0
C1611 C 0.63001 0.4496 0.01478 0.0
C1612 C 0.52407 0.39374 0.00774 0.0
C1613 C 0.51215 0.35721 0.01154 0.0
C1614 C 0.58946 0.41766 0.0133 0.0
C1615 C 0.54005 0.35177 0.016 0.0
C1616 C 0.66003 0.44138 0.01653 0.0
C1617 C 0.67476 0.5178 0.01639 0.0
N1618 N 0.57745 0.38166 0.01674 0.0
N1619 N 0.6383 0.48748 0.01473 0.0
H1620 H 0.56449 0.73153 0.83436 0.0
H1621 H 0.41619 0.79921 0.85107 0.0
H1622 H 0.46305 0.65801 0.84996 0.0
H1623 H 0.53832 0.88088 0.84662 0.0
H1624 H 0.42798 0.74524 0.84783 0.0
H1625 H 0.55003 0.78489 0.83592 0.0
C1626 C 0.53887 0.72643 0.83799 0.0
C1627 C 0.51495 0.69035 0.84205 0.0
C1628 C 0.45215 0.775 0.84754 0.0
C1629 C 0.49831 0.75097 0.84382 0.0
C1630 C 0.44542 0.80573 0.84934 0.0
C1631 C 0.4764 0.84446 0.84914 0.0
C1632 C 0.49 0.78308 0.84538 0.0
C1633 C 0.51381 0.85137 0.84694 0.0
C1634 C 0.53085 0.75692 0.83893 0.0
C1635 C 0.48233 0.68541 0.84675 0.0
N1636 N 0.51958 0.82095 0.8451 0.0
N1637 N 0.47492 0.71536 0.8475 0.0
H1638 H 0.34386 0.80448 0.84886 0.0
H1639 H 0.11497 0.65713 0.84971 0.0
H1640 H 0.26271 0.83087 0.83603 0.0
H1641 H 0.19944 0.61913 0.85257 0.0
H1642 H 0.1681 0.72251 0.84571 0.0
H1643 H 0.29093 0.73753 0.85116 0.0
C1644 C 0.31496 0.79606 0.84644 0.0
C1645 C 0.30769 0.82328 0.84222 0.0
C1646 C 0.17491 0.69976 0.84716 0.0
C1647 C 0.24675 0.74682 0.84501 0.0
C1648 C 0.1447 0.66263 0.84951 0.0
C1649 C 0.15289 0.63279 0.85149 0.0
C1650 C 0.21362 0.70723 0.84695 0.0
C1651 C 0.19186 0.64125 0.85103 0.0
C1652 C 0.28476 0.75782 0.84776 0.0
C1653 C 0.26963 0.81074 0.83925 0.0
N1654 N 0.2208 0.67776 0.84889 0.0
N1655 N 0.24042 0.77351 0.8408 0.0
H1656 H 0.34641 0.46089 0.84877 0.0
H1657 H 0.1972 0.53916 0.85345 0.0
H1658 H 0.38469 0.58212 0.85375 0.0
H1659 H 0.17153 0.43929 0.83753 0.0
H1660 H 0.26452 0.55268 0.85503 0.0
H1661 H 0.28002 0.44908 0.84611 0.0
C1662 C 0.34073 0.48493 0.84933 0.0
C1663 C 0.37093 0.5225 0.85148 0.0
C1664 C 0.24421 0.52799 0.85114 0.0
C1665 C 0.29541 0.50928 0.84851 0.0
C1666 C 0.20582 0.52022 0.85025 0.0
C1667 C 0.17881 0.48809 0.84534 0.0
C1668 C 0.25547 0.50298 0.84726 0.0
C1669 C 0.19152 0.46451 0.84133 0.0
C1670 C 0.30304 0.47828 0.84775 0.0
C1671 C 0.36224 0.55281 0.85203 0.0
N1672 N 0.22887 0.47216 0.84245 0.0
N1673 N 0.3252 0.54548 0.85064 0.0
H1674 H 0.40366 0.90568 0.99002 0.0
H1675 H 0.46984 0.75498 0.97409 0.0
H1676 H 0.32813 0.80055 0.97574 0.0
H1677 H 0.55189 0.87754 0.97779 0.0
H1678 H 0.41623 0.76693 0.97757 0.0
H1679 H 0.45701 0.89109 0.98852 0.0
C1680 C 0.39813 0.87921 0.98671 0.0
C1681 C 0.36152 0.85431 0.98297 0.0
C1682 C 0.44598 0.79117 0.97765 0.0
C1683 C 0.42213 0.83757 0.98126 0.0
C1684 C 0.47656 0.78436 0.97571 0.0
C1685 C 0.51529 0.81538 0.97562 0.0
C1686 C 0.4542 0.8292 0.97964 0.0
C1687 C 0.52237 0.85296 0.97769 0.0
C1688 C 0.42862 0.87112 0.9858 0.0
C1689 C 0.356 0.82061 0.97867 0.0
N1690 N 0.49209 0.85885 0.97965 0.0
N1691 N 0.38597 0.81321 0.97794 0.0
H1692 H 0.12847 0.6876 0.97185 0.0
H1693 H 0.20058 0.53361 0.97916 0.0
H1694 H 0.24978 0.72216 0.97549 0.0
H1695 H 0.07955 0.50385 0.97823 0.0
H1696 H 0.21985 0.60309 0.97906 0.0
H1697 H 0.11038 0.62029 0.97515 0.0
C1698 C 0.15129 0.68095 0.97334 0.0
C1699 C 0.19066 0.71039 0.97331 0.0
C1700 C 0.18908 0.58129 0.97899 0.0
C1701 C 0.17028 0.63329 0.97713 0.0
C1702 C 0.17808 0.54166 0.9791 0.0
C1703 C 0.13842 0.51295 0.97859 0.0
C1704 C 0.16016 0.59204 0.97838 0.0
C1705 C 0.11049 0.52499 0.97849 0.0
C1706 C 0.14099 0.64255 0.97529 0.0
C1707 C 0.21906 0.7003 0.97547 0.0
N1708 N 0.1219 0.56353 0.9783 0.0
N1709 N 0.20835 0.66248 0.97721 0.0
H1710 H 0.47246 0.68343 0.9746 0.0
H1711 H 0.32065 0.45683 0.97349 0.0
H1712 H 0.4958 0.60035 0.98752 0.0
H1713 H 0.28313 0.5422 0.97307 0.0
H1714 H 0.3871 0.50882 0.97709 0.0
H1715 H 0.40444 0.63199 0.97257 0.0
C1716 C 0.46316 0.65443 0.97708 0.0
C1717 C 0.48974 0.6461 0.98125 0.0
C1718 C 0.36425 0.51609 0.97624 0.0
C1719 C 0.4123 0.58705 0.97878 0.0
C1720 C 0.32654 0.48658 0.97412 0.0
C1721 C 0.29658 0.49541 0.97295 0.0
C1722 C 0.37217 0.55479 0.97702 0.0
C1723 C 0.30549 0.53429 0.97395 0.0
C1724 C 0.42437 0.62515 0.97593 0.0
C1725 C 0.47616 0.60802 0.98432 0.0
N1726 N 0.34261 0.56268 0.97584 0.0
N1727 N 0.43844 0.5797 0.98292 0.0
H1728 H 0.07271 0.5535 0.47604 0.0
H1729 H 0.25815 0.52286 0.4744 0.0
H1730 H 0.19136 0.64905 0.47824 0.0
H1731 H 0.14054 0.43394 0.46793 0.0
H1732 H 0.23431 0.56815 0.47753 0.0
H1733 H 0.09717 0.50808 0.47496 0.0
C1734 C 0.10397 0.56496 0.47637 0.0
C1735 C 0.13004 0.60525 0.47716 0.0
C1736 C 0.21374 0.5387 0.47544 0.0
C1737 C 0.15835 0.55312 0.47586 0.0
C1738 C 0.22728 0.51277 0.4737 0.0
C1739 C 0.20129 0.47457 0.47086 0.0
C1740 C 0.17388 0.52622 0.47442 0.0
C1741 C 0.16168 0.46323 0.46997 0.0
C1742 C 0.11793 0.53893 0.47573 0.0
C1743 C 0.17022 0.61823 0.47762 0.0
N1744 N 0.14922 0.4889 0.47174 0.0
N1745 N 0.1832 0.59224 0.4769 0.0
H1746 H 0.55791 0.69385 0.47695 0.0
H1747 H 0.33641 0.52877 0.47286 0.0
H1748 H 0.46725 0.72183 0.47209 0.0
H1749 H 0.41556 0.51569 0.48996 0.0
H1750 H 0.38518 0.59799 0.47106 0.0
H1751 H 0.50759 0.62623 0.48023 0.0
C1752 C 0.52737 0.6856 0.47654 0.0
C1753 C 0.51654 0.71318 0.4742 0.0
C1754 C 0.39169 0.58003 0.47526 0.0
C1755 C 0.45911 0.63628 0.47788 0.0
C1756 C 0.36398 0.54059 0.47628 0.0
C1757 C 0.37204 0.51658 0.48157 0.0
C1758 C 0.42808 0.59533 0.47939 0.0
C1759 C 0.40815 0.53331 0.48587 0.0
C1760 C 0.49876 0.64724 0.47848 0.0
C1761 C 0.47664 0.70132 0.47388 0.0
N1762 N 0.43513 0.57161 0.48459 0.0
N1763 N 0.44929 0.66359 0.4756 0.0
H1764 H 0.29987 0.85123 0.46807 0.0
H1765 H 0.46884 0.80286 0.47935 0.0
H1766 H 0.27567 0.73564 0.47517 0.0
H1767 H 0.48796 0.91842 0.47404 0.0
H1768 H 0.39806 0.77739 0.47866 0.0
H1769 H 0.36897 0.87605 0.47081 0.0
C1770 C 0.30916 0.83099 0.47016 0.0
C1771 C 0.28201 0.79121 0.47129 0.0
C1772 C 0.41783 0.80836 0.47773 0.0
C1773 C 0.36141 0.81955 0.47454 0.0
C1774 C 0.45821 0.82293 0.47815 0.0
C1775 C 0.48437 0.86279 0.47667 0.0
C1776 C 0.4037 0.83387 0.47581 0.0
C1777 C 0.46896 0.88743 0.47513 0.0
C1778 C 0.34867 0.84524 0.4718 0.0
C1779 C 0.29567 0.76653 0.47423 0.0
N1780 N 0.42975 0.87255 0.47469 0.0
N1781 N 0.33452 0.78103 0.47569 0.0
H1782 H 0.23871 0.4135 0.35334 0.0
H1783 H 0.19303 0.58921 0.35184 0.0
H1784 H 0.32772 0.53299 0.34838 0.0
H1785 H 0.10898 0.47049 0.35884 0.0
H1786 H 0.24167 0.56912 0.34928 0.0
H1787 H 0.18991 0.43373 0.35397 0.0
C1788 C 0.24801 0.44406 0.35233 0.0
C1789 C 0.28748 0.47165 0.35087 0.0
C1790 C 0.21254 0.54748 0.35135 0.0
C1791 C 0.23142 0.49517 0.35166 0.0
C1792 C 0.18469 0.55887 0.35278 0.0
C1793 C 0.14685 0.5315 0.3556 0.0
C1794 C 0.20243 0.5084 0.35272 0.0
C1795 C 0.13788 0.4927 0.3568 0.0
C1796 C 0.22004 0.45561 0.35271 0.0
C1797 C 0.29762 0.51076 0.34953 0.0
N1798 N 0.16543 0.48236 0.35536 0.0
N1799 N 0.26976 0.52144 0.35002 0.0
H1800 H 0.46334 0.809 0.35446 0.0
H1801 H 0.52942 0.65115 0.34955 0.0
H1802 H 0.55712 0.82717 0.33722 0.0
H1803 H 0.40983 0.61824 0.35504 0.0
H1804 H 0.54376 0.71803 0.34649 0.0
H1805 H 0.44622 0.74069 0.35616 0.0
C1806 C 0.48017 0.79853 0.35099 0.0
C1807 C 0.51167 0.82373 0.34567 0.0
C1808 C 0.51436 0.6961 0.34833 0.0
C1809 C 0.4927 0.74592 0.34775 0.0
C1810 C 0.50629 0.65815 0.35015 0.0
C1811 C 0.46846 0.62938 0.35259 0.0
C1812 C 0.48459 0.70546 0.34915 0.0
C1813 C 0.43931 0.63967 0.35315 0.0
C1814 C 0.47032 0.75956 0.35195 0.0
C1815 C 0.53248 0.80863 0.34133 0.0
N1816 N 0.44806 0.67703 0.35154 0.0
N1817 N 0.52294 0.77076 0.34255 0.0
H1818 H 0.38655 0.80528 0.35642 0.0
H1819 H 0.17721 0.74298 0.33661 0.0
H1820 H 0.35024 0.88967 0.35134 0.0
H1821 H 0.19615 0.66815 0.3539 0.0
H1822 H 0.24479 0.7953 0.33921 0.0
H1823 H 0.32044 0.75258 0.35286 0.0
C1824 C 0.3646 0.81262 0.35452 0.0
C1825 C 0.37362 0.85173 0.35421 0.0
C1826 C 0.2341 0.7673 0.34237 0.0
C1827 C 0.29842 0.7919 0.35002 0.0
C1828 C 0.19577 0.7374 0.34084 0.0
C1829 C 0.18117 0.70128 0.34506 0.0
C1830 C 0.25811 0.76063 0.348 0.0
C1831 C 0.20627 0.69567 0.35055 0.0
C1832 C 0.32698 0.78264 0.35253 0.0
C1833 C 0.34419 0.85982 0.35175 0.0
N1834 N 0.24358 0.72498 0.35184 0.0
N1835 N 0.30788 0.83012 0.34968 0.0
H1836 H 0.34632 0.40451 0.14734 0.0
H1837 H 0.13094 0.25474 0.1644 0.0
H1838 H 0.29657 0.27919 0.14773 0.0
H1839 H 0.19029 0.37908 0.16897 0.0
H1840 H 0.18559 0.26394 0.15523 0.0
H1841 H 0.28429 0.39606 0.15257 0.0
C1842 C 0.32249 0.37521 0.14853 0.0
C1843 C 0.3271 0.34256 0.1472 0.0
C1844 C 0.18628 0.28927 0.15811 0.0
C1845 C 0.25554 0.33269 0.15305 0.0
C1846 C 0.15492 0.28409 0.16326 0.0
C1847 C 0.15634 0.31621 0.1675 0.0
C1848 C 0.21906 0.32681 0.15717 0.0
C1849 C 0.18828 0.35352 0.16588 0.0
C1850 C 0.28691 0.37041 0.15145 0.0
C1851 C 0.29457 0.30526 0.14862 0.0
N1852 N 0.21857 0.35777 0.16092 0.0
N1853 N 0.26031 0.30137 0.15153 0.0
H1854 H 0.62057 0.81006 0.17079 0.0
H1855 H 0.70875 0.99253 0.13849 0.0
H1856 H 0.73856 0.8652 0.1609 0.0
H1857 H 0.6018 0.95168 0.15306 0.0
H1858 H 0.71499 0.93855 0.14432 0.0
H1859 H 0.60783 0.85291 0.16167 0.0
C1860 C 0.6436 0.83067 0.16656 0.0
C1861 C 0.68084 0.83437 0.16669 0.0
C1862 C 0.69002 0.9413 0.14618 0.0
C1863 C 0.66657 0.88399 0.15632 0.0
C1864 C 0.68651 0.97235 0.1429 0.0
C1865 C 0.65496 0.97732 0.14537 0.0
C1866 C 0.6617 0.91474 0.15194 0.0
C1867 C 0.6266 0.94929 0.15093 0.0
C1868 C 0.63634 0.85529 0.1614 0.0
C1869 C 0.70945 0.8614 0.16103 0.0
N1870 N 0.6308 0.91945 0.15406 0.0
N1871 N 0.70188 0.8856 0.15615 0.0
H1872 H 0.1917 0.81129 0.17143 0.0
H1873 H 0.01023 0.71536 0.13888 0.0
H1874 H 0.13446 0.87262 0.1619 0.0
H1875 H 0.05232 0.65048 0.1535 0.0
H1876 H 0.06289 0.77584 0.14495 0.0
H1877 H 0.14953 0.75581 0.16223 0.0
C1878 C 0.17071 0.81338 0.16727 0.0
C1879 C 0.16628 0.84647 0.1675 0.0
C1880 C 0.06067 0.74832 0.14676 0.0
C1881 C 0.11741 0.78267 0.15704 0.0
C1882 C 0.03037 0.71358 0.14335 0.0
C1883 C 0.02611 0.67726 0.14575 0.0
C1884 C 0.08724 0.74696 0.15258 0.0
C1885 C 0.0541 0.67741 0.1514 0.0
C1886 C 0.14648 0.78157 0.16205 0.0
C1887 C 0.13882 0.84766 0.16192 0.0
N1888 N 0.08323 0.71161 0.15465 0.0
N1889 N 0.115 0.81593 0.157 0.0
H1890 H 0.39341 0.33459 0.3465 0.0
H1891 H 0.24705 0.11882 0.32934 0.0
H1892 H 0.27267 0.29183 0.33991 0.0
H1893 H 0.37269 0.17432 0.32771 0.0
H1894 H 0.25405 0.17461 0.3377 0.0
H1895 H 0.38371 0.26904 0.34393 0.0
C1896 C 0.36467 0.31119 0.34469 0.0
C1897 C 0.33388 0.31862 0.3433 0.0
C1898 C 0.28007 0.17409 0.33569 0.0
C1899 C 0.32259 0.24385 0.34036 0.0
C1900 C 0.27612 0.14207 0.331 0.0
C1901 C 0.30939 0.14221 0.32776 0.0
C1902 C 0.31752 0.20619 0.33719 0.0
C1903 C 0.34632 0.17332 0.33002 0.0
C1904 C 0.35919 0.2739 0.34319 0.0
C1905 C 0.29727 0.28736 0.3409 0.0
N1906 N 0.34942 0.20434 0.33451 0.0
N1907 N 0.29269 0.2514 0.33944 0.0
H1908 H 0.65492 0.0534 0.3388 0.0
H1909 H 0.88377 0.14325 0.33221 0.0
H1910 H 0.72099 0.00858 0.35194 0.0
H1911 H 0.81987 0.1991 0.32346 0.0
H1912 H 0.82605 0.09633 0.34041 0.0
H1913 H 0.7159 0.10885 0.33383 0.0
C1914 C 0.68208 0.0552 0.34073 0.0
C1915 C 0.68237 0.02572 0.34577 0.0
C1916 C 0.82492 0.1193 0.33682 0.0
C1917 C 0.75283 0.08941 0.33995 0.0
C1918 C 0.85799 0.1463 0.33219 0.0
C1919 C 0.85652 0.17493 0.32708 0.0
C1920 C 0.79017 0.12087 0.33627 0.0
C1921 C 0.82219 0.17725 0.32724 0.0
C1922 C 0.71707 0.087 0.33786 0.0
C1923 C 0.71892 0.02991 0.34794 0.0
N1924 N 0.79027 0.15027 0.33165 0.0
N1925 N 0.75257 0.06091 0.34495 0.0
H1926 H 0.80163 0.62678 0.3215 0.0
H1927 H 0.99568 0.72598 0.35026 0.0
H1928 H 0.85703 0.74627 0.33038 0.0
H1929 H 0.95138 0.61543 0.33704 0.0
H1930 H 0.93907 0.7296 0.34525 0.0
H1931 H 0.84886 0.6174 0.3298 0.0
C1932 C 0.82322 0.65083 0.32535 0.0
C1933 C 0.82566 0.6875 0.32516 0.0
C1934 C 0.94166 0.70444 0.3435 0.0
C1935 C 0.88029 0.67712 0.33457 0.0
C1936 C 0.97422 0.70245 0.3463 0.0
C1937 C 0.97883 0.67053 0.344 0.0
C1938 C 0.91326 0.67426 0.33838 0.0
C1939 C 0.94923 0.64052 0.33903 0.0
C1940 C 0.85036 0.64551 0.33005 0.0
C1941 C 0.8541 0.71752 0.33033 0.0
N1942 N 0.9179 0.64325 0.33636 0.0
N1943 N 0.8807 0.71183 0.33473 0.0
H1944 H 0.88037 0.75425 0.82815 0.0
H1945 H 0.66485 0.60311 0.84512 0.0
H1946 H 0.82615 0.62911 0.82552 0.0
H1947 H 0.71224 0.72797 0.84372 0.0
H1948 H 0.72761 0.61225 0.84018 0.0
H1949 H 0.82378 0.7452 0.83655 0.0
C1950 C 0.85713 0.72484 0.82957 0.0
C1951 C 0.85783 0.69235 0.82611 0.0
C1952 C 0.72429 0.63766 0.84101 0.0
C1953 C 0.79269 0.68182 0.83553 0.0
C1954 C 0.68827 0.63243 0.84377 0.0
C1955 C 0.68285 0.66475 0.84479 0.0
C1956 C 0.75526 0.67547 0.83925 0.0
C1957 C 0.71486 0.70213 0.84311 0.0
C1958 C 0.82459 0.71969 0.83427 0.0
C1959 C 0.82663 0.65494 0.82804 0.0
N1960 N 0.74953 0.70641 0.84039 0.0
N1961 N 0.79516 0.6507 0.83253 0.0
H1962 H 0.38015 0.19584 0.82192 0.0
H1963 H 0.27537 0.98559 0.8439 0.0
H1964 H 0.25554 0.12767 0.82597 0.0
H1965 H 0.40077 0.06052 0.84291 0.0
H1966 H 0.26771 0.03907 0.83837 0.0
H1967 H 0.38861 0.14947 0.83081 0.0
C1968 C 0.35462 0.17153 0.82485 0.0
C1969 C 0.31709 0.1655 0.82318 0.0
C1970 C 0.29692 0.04392 0.83942 0.0
C1971 C 0.32642 0.11168 0.83319 0.0
C1972 C 0.30138 0.01331 0.84261 0.0
C1973 C 0.33886 0.01822 0.84385 0.0
C1974 C 0.33012 0.0798 0.83738 0.0
C1975 C 0.37131 0.05492 0.84193 0.0
C1976 C 0.35944 0.14493 0.82989 0.0
C1977 C 0.28503 0.13353 0.82712 0.0
N1978 N 0.36618 0.08415 0.83874 0.0
N1979 N 0.29037 0.10745 0.83183 0.0
H1980 H 0.8753 0.12581 0.82875 0.0
H1981 H 0.94063 0.34227 0.8451 0.0
H1982 H 0.80994 0.18447 0.82373 0.0
H1983 H 0.01531 0.29145 0.84567 0.0
H1984 H 0.88772 0.28069 0.8395 0.0
H1985 H 0.92102 0.18148 0.83761 0.0
C1986 C 0.86993 0.14989 0.82971 0.0
C1987 C 0.83893 0.15067 0.82546 0.0
C1988 C 0.91566 0.28301 0.84091 0.0
C1989 C 0.89146 0.21468 0.83543 0.0
C1990 C 0.94608 0.31835 0.84405 0.0
C1991 C 0.98287 0.32248 0.84581 0.0
C1992 C 0.92188 0.25139 0.83952 0.0
C1993 C 0.98758 0.28984 0.84448 0.0
C1994 C 0.89629 0.18186 0.83469 0.0
C1995 C 0.83365 0.18285 0.82685 0.0
N1996 N 0.95757 0.25583 0.84139 0.0
N1997 N 0.85987 0.21372 0.83164 0.0
H1998 H 0.73973 0.73283 0.64496 0.0
H1999 H 0.62977 0.83019 0.66875 0.0
H2000 H 0.62086 0.66863 0.65432 0.0
H2001 H 0.75218 0.8937 0.66196 0.0
H2002 H 0.62322 0.77318 0.66109 0.0
H2003 H 0.74241 0.79367 0.64915 0.0
C2004 C 0.71417 0.73139 0.64789 0.0
C2005 C 0.68013 0.69528 0.64937 0.0
C2006 C 0.65141 0.79973 0.66116 0.0
C2007 C 0.68286 0.76515 0.65406 0.0
C2008 C 0.65512 0.8324 0.66549 0.0
C2009 C 0.69164 0.86663 0.66607 0.0
C2010 C 0.68453 0.80115 0.65743 0.0
C2011 C 0.72345 0.8679 0.66169 0.0
C2012 C 0.71565 0.76626 0.65022 0.0
C2013 C 0.64766 0.69558 0.65301 0.0
N2014 N 0.71928 0.8354 0.65766 0.0
N2015 N 0.64995 0.72989 0.65527 0.0
H2016 H 0.09817 0.86095 0.66393 0.0
H2017 H 0.31347 0.94001 0.64507 0.0
H2018 H 0.15313 0.79029 0.6623 0.0
H2019 H 0.27504 0.01293 0.65736 0.0
H2020 H 0.2477 0.88334 0.64704 0.0
H2021 H 0.15554 0.91472 0.65696 0.0
C2022 C 0.12171 0.85626 0.66185 0.0
C2023 C 0.12111 0.82122 0.66377 0.0
C2024 C 0.25358 0.91189 0.64918 0.0
C2025 C 0.18672 0.88263 0.65585 0.0
C2026 C 0.29094 0.94416 0.64802 0.0
C2027 C 0.2996 0.98099 0.65114 0.0
C2028 C 0.22466 0.91673 0.65335 0.0
C2029 C 0.26953 0.98485 0.65499 0.0
C2030 C 0.15458 0.8871 0.65795 0.0
C2031 C 0.15262 0.81696 0.66099 0.0
N2032 N 0.2334 0.95308 0.65602 0.0
N2033 N 0.18438 0.84748 0.65725 0.0
H2034 H 0.12768 0.22641 0.66171 0.0
H2035 H 0.05417 0.36804 0.64346 0.0
H2036 H 0.20284 0.35063 0.65818 0.0
H2037 H 0.97786 0.25292 0.65378 0.0
H2038 H 0.10973 0.35738 0.64528 0.0
H2039 H 0.07401 0.23119 0.6551 0.0
C2040 C 0.13328 0.25451 0.6593 0.0
C2041 C 0.16973 0.28831 0.66058 0.0
C2042 C 0.08074 0.33428 0.64705 0.0
C2043 C 0.10827 0.29396 0.6531 0.0
C2044 C 0.049 0.34027 0.64597 0.0
C2045 C 0.01141 0.31145 0.64856 0.0
C2046 C 0.07479 0.29912 0.65069 0.0
C2047 C 0.00647 0.27613 0.65185 0.0
C2048 C 0.10247 0.25725 0.6556 0.0
C2049 C 0.1751 0.32393 0.65739 0.0
N2050 N 0.03781 0.27104 0.65287 0.0
N2051 N 0.14458 0.32592 0.65388 0.0
H2052 H 0.77371 0.56608 0.49834 0.0
H2053 H 0.9875 0.70571 0.47921 0.0
H2054 H 0.82606 0.69123 0.49613 0.0
H2055 H 0.9497 0.59206 0.49027 0.0
H2056 H 0.92147 0.69538 0.48126 0.0
H2057 H 0.83064 0.57019 0.49103 0.0
C2058 C 0.7965 0.59426 0.49604 0.0
C2059 C 0.79541 0.62848 0.49791 0.0
C2060 C 0.92753 0.6725 0.48312 0.0
C2061 C 0.8606 0.63333 0.48964 0.0
C2062 C 0.96511 0.67829 0.48192 0.0
C2063 C 0.9741 0.64983 0.48467 0.0
C2064 C 0.8987 0.63785 0.48701 0.0
C2065 C 0.94406 0.61496 0.48821 0.0
C2066 C 0.82917 0.5966 0.49195 0.0
C2067 C 0.82598 0.66423 0.49486 0.0
N2068 N 0.90773 0.61002 0.48932 0.0
N2069 N 0.85759 0.6658 0.49096 0.0
H2070 H 0.28952 0.27451 0.48064 0.0
H2071 H 0.43127 0.19926 0.49816 0.0
H2072 H 0.4133 0.34973 0.485 0.0
H2073 H 0.30537 0.13036 0.49899 0.0
H2074 H 0.42603 0.25115 0.4907 0.0
H2075 H 0.29563 0.21869 0.48518 0.0
C2076 C 0.31797 0.27951 0.48257 0.0
C2077 C 0.35089 0.31725 0.48247 0.0
C2078 C 0.39955 0.22439 0.49238 0.0
C2079 C 0.35815 0.25294 0.48753 0.0
C2080 C 0.40253 0.19454 0.49654 0.0
C2081 C 0.36866 0.16046 0.49921 0.0
C2082 C 0.36248 0.21999 0.49084 0.0
C2083 C 0.3322 0.15623 0.49707 0.0
C2084 C 0.32147 0.24743 0.4851 0.0
C2085 C 0.38711 0.32136 0.48488 0.0
N2086 N 0.33006 0.18577 0.49308 0.0
N2087 N 0.38972 0.28969 0.48733 0.0
H2088 H 0.72973 0.00815 0.47955 0.0
H2089 H 0.80253 0.2243 0.49702 0.0
H2090 H 0.65276 0.05081 0.4872 0.0
H2091 H 0.87416 0.17023 0.49663 0.0
H2092 H 0.75117 0.16762 0.48934 0.0
H2093 H 0.78586 0.07363 0.48188 0.0
C2094 C 0.72461 0.03147 0.48156 0.0
C2095 C 0.68659 0.024 0.48329 0.0
C2096 C 0.7785 0.1686 0.49076 0.0
C2097 C 0.75055 0.09881 0.48598 0.0
C2098 C 0.80801 0.20114 0.49506 0.0
C2099 C 0.84252 0.20175 0.49752 0.0
C2100 C 0.78375 0.13672 0.48887 0.0
C2101 C 0.84783 0.1707 0.49491 0.0
C2102 C 0.75663 0.06876 0.48293 0.0
C2103 C 0.68166 0.05524 0.48595 0.0
N2104 N 0.81856 0.13921 0.49081 0.0
N2105 N 0.71327 0.09121 0.48727 0.0
H2106 H 0.89652 0.43326 0.66018 0.0
H2107 H 0.03598 0.64907 0.67832 0.0
H2108 H 0.02241 0.48893 0.66085 0.0
H2109 H 0.91415 0.60307 0.67202 0.0
H2110 H 0.02969 0.58652 0.67435 0.0
H2111 H 0.9007 0.49051 0.66729 0.0
C2112 C 0.925 0.4571 0.66201 0.0
C2113 C 0.95924 0.45648 0.65985 0.0
C2114 C 0.00431 0.59011 0.67388 0.0
C2115 C 0.96419 0.52221 0.6679 0.0
C2116 C 0.00792 0.62602 0.67608 0.0
C2117 C 0.97566 0.63179 0.67541 0.0
C2118 C 0.96815 0.55953 0.67102 0.0
C2119 C 0.93981 0.60014 0.67268 0.0
C2120 C 0.92736 0.48993 0.666 0.0
C2121 C 0.99531 0.48833 0.66234 0.0
N2122 N 0.93708 0.56548 0.67055 0.0
N2123 N 0.99687 0.52005 0.66616 0.0
H2124 H 0.56457 0.46909 0.66162 0.0
H2125 H 0.34241 0.38994 0.67553 0.0
H2126 H 0.506 0.53619 0.65943 0.0
H2127 H 0.39352 0.3167 0.67191 0.0
H2128 H 0.40673 0.44762 0.67314 0.0
H2129 H 0.50716 0.41762 0.66908 0.0
C2130 C 0.54012 0.47354 0.66294 0.0
C2131 C 0.53982 0.50675 0.65982 0.0
C2132 C 0.40394 0.41893 0.67298 0.0
C2133 C 0.47394 0.44781 0.66822 0.0
C2134 C 0.36727 0.38602 0.67437 0.0
C2135 C 0.36256 0.34846 0.6738 0.0
C2136 C 0.43613 0.41423 0.67104 0.0
C2137 C 0.39578 0.34511 0.67223 0.0
C2138 C 0.5072 0.44397 0.66712 0.0
C2139 C 0.50722 0.51082 0.66165 0.0
N2140 N 0.43109 0.37753 0.67084 0.0
N2141 N 0.47539 0.48147 0.66564 0.0
H2142 H 0.4677 0.96993 0.65868 0.0
H2143 H 0.69136 0.08053 0.67279 0.0
H2144 H 0.53844 0.09555 0.66016 0.0
H2145 H 0.61435 0.95662 0.67655 0.0
H2146 H 0.63548 0.08655 0.66836 0.0
H2147 H 0.52026 0.96431 0.66564 0.0
C2148 C 0.49405 0.99633 0.6606 0.0
C2149 C 0.49874 0.03325 0.65881 0.0
C2150 C 0.63078 0.05808 0.67021 0.0
C2151 C 0.55934 0.02706 0.66662 0.0
C2152 C 0.66277 0.05457 0.67276 0.0
C2153 C 0.65788 0.01794 0.67506 0.0
C2154 C 0.59349 0.02471 0.66985 0.0
C2155 C 0.61992 0.98536 0.67473 0.0
C2156 C 0.5241 0.9931 0.66455 0.0
C2157 C 0.5335 0.06648 0.66144 0.0
N2158 N 0.58929 0.98951 0.67214 0.0
N2159 N 0.56267 0.0626 0.66511 0.0
H2160 H 0.38317 0.04072 0.18501 0.0
H2161 H 0.47517 0.95421 0.15157 0.0
H2162 H 0.31589 0.93542 0.17002 0.0
H2163 H 0.54017 0.0703 0.16235 0.0
H2164 H 0.41949 0.94167 0.16064 0.0
H2165 H 0.44296 0.04725 0.17879 0.0
C2166 C 0.38076 0.01892 0.18042 0.0
C2167 C 0.34402 0.98767 0.17798 0.0
C2168 C 0.44606 0.96973 0.16111 0.0
C2169 C 0.41284 0.99475 0.17096 0.0
C2170 C 0.47799 0.97686 0.15597 0.0
C2171 C 0.51225 0.01351 0.15614 0.0
C2172 C 0.44823 0.9995 0.16646 0.0
C2173 C 0.51431 0.04164 0.16201 0.0
C2174 C 0.41507 0.02259 0.17692 0.0
C2175 C 0.34324 0.95991 0.17216 0.0
N2176 N 0.4825 0.03422 0.16686 0.0
N2177 N 0.37705 0.96424 0.16883 0.0
H2178 H 0.93397 0.47249 0.16361 0.0
H2179 H 0.07615 0.38801 0.17222 0.0
H2180 H 0.0508 0.52303 0.15321 0.0
H2181 H 0.96634 0.34626 0.18567 0.0
H2182 H 0.0697 0.44158 0.16636 0.0
H2183 H 0.94758 0.43072 0.17302 0.0
C2184 C 0.96279 0.47551 0.16346 0.0
C2185 C 0.99115 0.50092 0.15754 0.0
C2186 C 0.04714 0.42089 0.17065 0.0
C2187 C 0.00664 0.45279 0.16814 0.0
C2188 C 0.05087 0.39018 0.17405 0.0
C2189 C 0.02154 0.36197 0.1794 0.0
C2190 C 0.01366 0.42341 0.17254 0.0
C2191 C 0.98931 0.36657 0.18142 0.0
C2192 C 0.97046 0.45146 0.16879 0.0
C2193 C 0.0279 0.50348 0.15759 0.0
N2194 N 0.98605 0.39641 0.17792 0.0
N2195 N 0.03438 0.47934 0.16271 0.0
H2196 H 0.4737 0.51727 0.15916 0.0
H2197 H 0.68625 0.62821 0.17936 0.0
H2198 H 0.54227 0.46192 0.16407 0.0
H2199 H 0.60946 0.67667 0.17902 0.0
H2200 H 0.63193 0.56554 0.1749 0.0
H2201 H 0.51986 0.57336 0.16778 0.0
C2202 C 0.49796 0.51652 0.16225 0.0
C2203 C 0.50435 0.48507 0.16085 0.0
C2204 C 0.62685 0.58978 0.17588 0.0
C2205 C 0.55789 0.54958 0.17051 0.0
C2206 C 0.65798 0.62578 0.17845 0.0
C2207 C 0.65281 0.65826 0.17953 0.0
C2208 C 0.59019 0.58607 0.17427 0.0
C2209 C 0.61529 0.65294 0.17812 0.0
C2210 C 0.52443 0.54865 0.16713 0.0
C2211 C 0.5362 0.48554 0.16499 0.0
N2212 N 0.58556 0.61768 0.17549 0.0
N2213 N 0.56223 0.51768 0.1695 0.0
H2214 H 0.26998 0.99951 0.98009 0.0
H2215 H 0.41563 0.21571 -0.0028 0.0
H2216 H 0.39579 0.05248 0.98067 0.0
H2217 H 0.29171 0.15303 0.00248 0.0
H2218 H 0.40729 0.16169 0.98799 0.0
H2219 H 0.27643 0.06035 0.98557 0.0
C2220 C 0.29896 0.02372 0.98135 0.0
C2221 C 0.33235 0.02034 0.97998 0.0
C2222 C 0.38182 0.16008 0.99104 0.0
C2223 C 0.33986 0.09057 0.98611 0.0
C2224 C 0.38649 0.1911 -0.00377 0.0
C2225 C 0.35433 0.18864 0.00068 0.0
C2226 C 0.34474 0.12654 0.99028 0.0
C2227 C 0.31732 0.1559 -0.00077 0.0
C2228 C 0.30259 0.05863 0.98442 0.0
C2229 C 0.36913 0.0534 0.98156 0.0
N2230 N 0.31358 0.12591 0.99423 0.0
N2231 N 0.37185 0.08696 0.98458 0.0
H2232 H 0.78512 0.20254 0.99482 0.0
H2233 H 0.99967 0.26907 0.9773 0.0
H2234 H 0.83864 0.13053 -0.00394 0.0
H2235 H 0.96028 0.34754 0.98575 0.0
H2236 H 0.93287 0.21387 0.97918 0.0
H2237 H 0.84069 0.25049 0.98627 0.0
C2238 C 0.8078 0.19607 0.99301 0.0
C2239 C 0.80762 0.16278 -0.00376 0.0
C2240 C 0.93874 0.24329 0.98044 0.0
C2241 C 0.8713 0.21764 0.98658 0.0
C2242 C 0.97669 0.27468 0.97933 0.0
C2243 C 0.98532 0.31264 0.98149 0.0
C2244 C 0.90935 0.25018 0.98361 0.0
C2245 C 0.95472 0.31852 0.98416 0.0
C2246 C 0.83969 0.22365 0.9882 0.0
C2247 C 0.83797 0.15609 0.99377 0.0
N2248 N 0.91812 0.28759 0.98521 0.0
N2249 N 0.86895 0.1836 0.98919 0.0
H2250 H 0.86142 0.71276 0.00177 0.0
H2251 H 0.65295 0.61058 0.97913 0.0
H2252 H 0.79656 0.58962 0.99585 0.0
H2253 H 0.72745 0.73586 0.98078 0.0
H2254 H 0.70659 0.60264 0.98444 0.0
H2255 H 0.81509 0.72241 0.99314 0.0
C2256 C 0.83786 0.68787 -0.00151 0.0
C2257 C 0.83273 0.65033 -0.00044 0.0
C2258 C 0.71129 0.63188 0.98357 0.0
C2259 C 0.77896 0.66095 0.98984 0.0
C2260 C 0.68058 0.63652 0.98051 0.0
C2261 C 0.68528 0.67402 0.97954 0.0
C2262 C 0.74705 0.66493 0.98576 0.0
C2263 C 0.72193 0.70635 0.98157 0.0
C2264 C 0.8113 0.69336 0.99359 0.0
C2265 C 0.8017 0.6191 0.99517 0.0
N2266 N 0.75122 0.70104 0.98464 0.0
N2267 N 0.7756 0.62501 0.99062 0.0
H2268 H 0.61991 0.95579 0.8063 0.0
H2269 H 0.51908 0.04663 0.83588 0.0
H2270 H 0.6829 0.06461 0.82036 0.0
H2271 H 0.45913 0.92667 0.82726 0.0
H2272 H 0.57615 0.05839 0.82742 0.0
H2273 H 0.55863 0.94911 0.81154 0.0
C2274 C 0.62113 0.97835 0.81048 0.0
C2275 C 0.65714 0.01065 0.81296 0.0
C2276 C 0.55034 0.02963 0.82727 0.0
C2277 C 0.58647 0.00335 0.81882 0.0
C2278 C 0.51761 0.02293 0.83206 0.0
C2279 C 0.48442 0.98549 0.83235 0.0
C2280 C 0.55003 0.99866 0.82275 0.0
C2281 C 0.4841 0.95598 0.82722 0.0
C2282 C 0.58592 0.97455 0.81341 0.0
C2283 C 0.65623 0.03926 0.81821 0.0
N2284 N 0.51668 0.96305 0.82272 0.0
N2285 N 0.62156 0.03481 0.82099 0.0
H2286 H 0.06309 0.68473 0.81379 0.0
H2287 H 0.95953 0.47278 0.83496 0.0
H2288 H 0.93784 0.60874 0.81461 0.0
H2289 H 0.08425 0.54269 0.83128 0.0
H2290 H 0.95076 0.51937 0.82623 0.0
H2291 H 0.07131 0.63129 0.81914 0.0
C2292 C 0.03724 0.65677 0.815 0.0
C2293 C 0.99964 0.65151 0.81376 0.0
C2294 C 0.98003 0.52424 0.82719 0.0
C2295 C 0.00899 0.59001 0.82001 0.0
C2296 C 0.98503 0.49751 0.83214 0.0
C2297 C 0.02266 0.50397 0.83387 0.0
C2298 C 0.01297 0.55805 0.82406 0.0
C2299 C 0.05469 0.53649 0.83006 0.0
C2300 C 0.04201 0.62621 0.81809 0.0
C2301 C 0.96737 0.61457 0.8156 0.0
N2302 N 0.04915 0.56268 0.82545 0.0
N2303 N 0.9728 0.58537 0.81867 0.0
H2304 H 0.46774 0.54449 0.82882 0.0
H2305 H 0.39936 0.32662 0.81301 0.0
H2306 H 0.52952 0.48322 0.83498 0.0
H2307 H 0.32678 0.37975 0.81189 0.0
H2308 H 0.45241 0.38753 0.81885 0.0
H2309 H 0.4221 0.48887 0.81996 0.0
C2310 C 0.47234 0.51979 0.82813 0.0
C2311 C 0.50232 0.51835 0.8327 0.0
C2312 C 0.42489 0.38583 0.81726 0.0
C2313 C 0.44983 0.45438 0.8227 0.0
C2314 C 0.39436 0.35087 0.81399 0.0
C2315 C 0.3581 0.34757 0.81199 0.0
C2316 C 0.41932 0.41792 0.81854 0.0
C2317 C 0.35405 0.38066 0.81324 0.0
C2318 C 0.44601 0.48786 0.82314 0.0
C2319 C 0.50662 0.48541 0.83162 0.0
N2320 N 0.38416 0.41428 0.81646 0.0
N2321 N 0.48045 0.45458 0.8268 0.0
H2322 H 0.71196 0.8477 0.99151 0.0
H2323 H 0.60914 0.95527 0.01328 0.0
H2324 H 0.58757 0.79215 0.99582 0.0
H2325 H 0.73435 0.00557 0.01156 0.0
H2326 H 0.60092 0.89298 0.00836 0.0
H2327 H 0.72122 0.9025 0.00051 0.0
C2328 C 0.68667 0.84663 0.99453 0.0
C2329 C 0.64895 0.81551 0.99287 0.0
C2330 C 0.63021 0.91755 0.00914 0.0
C2331 C 0.65915 0.87862 0.00299 0.0
C2332 C 0.63497 0.95324 0.01197 0.0
C2333 C 0.67254 0.98608 0.01276 0.0
C2334 C 0.66322 0.91459 0.00703 0.0
C2335 C 0.70481 0.98148 0.01087 0.0
C2336 C 0.69193 0.87803 -0.00036 0.0
C2337 C 0.61719 0.81554 -0.00305 0.0
N2338 N 0.69939 0.94655 0.00803 0.0
N2339 N 0.62294 0.84701 0.0017 0.0
H2340 H 0.0538 0.67534 0.01689 0.0
H2341 H 0.14822 0.86277 0.98595 0.0
H2342 H 0.9874 0.71705 0.00277 0.0
H2343 H 0.21269 0.80958 -0.00406 0.0
H2344 H 0.09164 0.81701 0.99447 0.0
H2345 H 0.11398 0.73045 0.01134 0.0
C2346 C 0.05167 0.69593 0.01263 0.0
C2347 C 0.01509 0.69096 0.01022 0.0
C2348 C 0.11829 0.81563 0.9949 0.0
C2349 C 0.08435 0.75482 0.00397 0.0
C2350 C 0.15074 0.84192 0.99007 0.0
C2351 C 0.18515 0.83976 0.99016 0.0
C2352 C 0.12011 0.78677 -0.00015 0.0
C2353 C 0.18676 0.81228 0.99567 0.0
C2354 C 0.08621 0.72763 0.00951 0.0
C2355 C 0.01464 0.71947 0.00485 0.0
N2356 N 0.15448 0.78649 0.00021 0.0
N2357 N 0.04867 0.74995 0.00187 0.0
H2358 H 0.1434 0.29625 0.99309 0.0
H2359 H 0.35622 0.39621 0.01383 0.0
H2360 H 0.21674 0.42094 -0.00378 0.0
H2361 H 0.27738 0.27145 0.01353 0.0
H2362 H 0.30381 0.40583 0.00838 0.0
H2363 H 0.18971 0.28649 0.00168 0.0
C2364 C 0.16894 0.32157 0.99571 0.0
C2365 C 0.17639 0.35947 0.99388 0.0
C2366 C 0.29788 0.37634 0.00957 0.0
C2367 C 0.22991 0.34855 0.0036 0.0
C2368 C 0.32785 0.37078 0.01271 0.0
C2369 C 0.32149 0.33288 0.0141 0.0
C2370 C 0.26121 0.34381 0.00773 0.0
C2371 C 0.28404 0.30115 0.01241 0.0
C2372 C 0.19544 0.31598 0.0006 0.0
C2373 C 0.20985 0.3912 -0.00253 0.0
N2374 N 0.25544 0.30733 0.00926 0.0
N2375 N 0.23567 0.38504 0.00206 0.0
H2376 H 0.00859 0.27839 0.50932 0.0
H2377 H 0.22865 0.4208 0.49362 0.0
H2378 H 0.06185 0.40401 0.50802 0.0
H2379 H 0.16736 0.29573 0.49006 0.0
H2380 H 0.1717 0.4148 0.50134 0.0
H2381 H 0.06976 0.28408 0.50432 0.0
C2382 C 0.03293 0.30719 0.50796 0.0
C2383 C 0.02962 0.34074 0.50905 0.0
C2384 C 0.17095 0.38862 0.49898 0.0
C2385 C 0.10036 0.34745 0.50344 0.0
C2386 C 0.20363 0.39198 0.49465 0.0
C2387 C 0.20267 0.35869 0.49116 0.0
C2388 C 0.13723 0.35172 0.49986 0.0
C2389 C 0.16925 0.32216 0.49261 0.0
C2390 C 0.06807 0.31041 0.50516 0.0
C2391 C 0.06284 0.37729 0.50735 0.0
N2392 N 0.13778 0.31968 0.49679 0.0
N2393 N 0.09669 0.37963 0.50461 0.0
H2394 H 0.57304 0.7911 0.49646 0.0
H2395 H 0.71861 0.71928 0.51303 0.0
H2396 H 0.69881 0.86277 0.496 0.0
H2397 H 0.59381 0.64374 0.51058 0.0
H2398 H 0.71125 0.77465 0.50873 0.0
H2399 H 0.57943 0.74007 0.50396 0.0
C2400 C 0.60198 0.79653 0.49813 0.0
C2401 C 0.63549 0.83115 0.49554 0.0
C2402 C 0.68544 0.74597 0.50918 0.0
C2403 C 0.64299 0.77259 0.50398 0.0
C2404 C 0.68966 0.71421 0.51156 0.0
C2405 C 0.65683 0.67655 0.51209 0.0
C2406 C 0.64812 0.74016 0.50728 0.0
C2407 C 0.61994 0.67215 0.51031 0.0
C2408 C 0.60562 0.76721 0.50234 0.0
C2409 C 0.67222 0.8364 0.49781 0.0
N2410 N 0.61662 0.7035 0.50794 0.0
N2411 N 0.675 0.80728 0.50182 0.0
H2412 H 0.21233 0.77366 0.49493 0.0
H2413 H 0.28197 0.99055 0.51168 0.0
H2414 H 0.13951 0.82649 0.49456 0.0
H2415 H 0.35894 0.943 0.50903 0.0
H2416 H 0.22737 0.92793 0.50706 0.0
H2417 H 0.26361 0.83199 0.50214 0.0
C2418 C 0.20676 0.79713 0.49654 0.0
C2419 C 0.17167 0.79532 0.49409 0.0
C2420 C 0.2562 0.93117 0.50752 0.0
C2421 C 0.23044 0.86237 0.50221 0.0
C2422 C 0.28754 0.96711 0.5101 0.0
C2423 C 0.32536 0.97235 0.5107 0.0
C2424 C 0.26258 0.90011 0.50553 0.0
C2425 C 0.33037 0.94038 0.50874 0.0
C2426 C 0.23621 0.83059 0.50059 0.0
C2427 C 0.16623 0.82678 0.49627 0.0
N2428 N 0.29942 0.90574 0.50621 0.0
N2429 N 0.19541 0.85911 0.50014 0.0
H2430 H 0.06807 0.38615 0.31692 0.0
H2431 H 0.96108 0.49591 0.33551 0.0
H2432 H 0.94286 0.33742 0.3161 0.0
H2433 H 0.08614 0.55159 0.33234 0.0
H2434 H 0.95369 0.43949 0.32742 0.0
H2435 H 0.07528 0.44801 0.32179 0.0
C2436 C 0.04203 0.38837 0.31767 0.0
C2437 C 0.00471 0.3561 0.31611 0.0
C2438 C 0.98273 0.46427 0.32836 0.0
C2439 C 0.01291 0.42726 0.32182 0.0
C2440 C 0.98696 0.49658 0.33295 0.0
C2441 C 0.02428 0.5284 0.33463 0.0
C2442 C 0.01613 0.46346 0.32554 0.0
C2443 C 0.05681 0.52774 0.33116 0.0
C2444 C 0.04623 0.42386 0.32048 0.0
C2445 C 0.97216 0.36102 0.31735 0.0
N2446 N 0.05202 0.49548 0.32689 0.0
N2447 N 0.97703 0.39578 0.32018 0.0
H2448 H 0.45226 0.55361 0.33003 0.0
H2449 H 0.66438 0.61464 0.31143 0.0
H2450 H 0.5 0.47639 0.3292 0.0
H2451 H 0.6204 0.69455 0.31411 0.0
H2452 H 0.601 0.56134 0.31614 0.0
H2453 H 0.50937 0.60258 0.32203 0.0
C2454 C 0.47424 0.54655 0.32797 0.0
C2455 C 0.47154 0.51098 0.33034 0.0
C2456 C 0.60515 0.59051 0.31565 0.0
C2457 C 0.53728 0.56713 0.32134 0.0
C2458 C 0.6415 0.62107 0.31302 0.0
C2459 C 0.64801 0.65933 0.31244 0.0
C2460 C 0.575 0.59818 0.31774 0.0
C2461 C 0.6168 0.66559 0.3144 0.0
C2462 C 0.50705 0.57468 0.32348 0.0
C2463 C 0.50109 0.50358 0.32757 0.0
N2464 N 0.58179 0.63542 0.31702 0.0
N2465 N 0.5329 0.53156 0.32331 0.0
H2466 H 0.39372 0.06565 0.31432 0.0
H2467 H 0.46119 0.91799 0.33193 0.0
H2468 H 0.31902 0.94023 0.31474 0.0
H2469 H 0.52688 0.04292 0.33561 0.0
H2470 H 0.41426 0.92591 0.32302 0.0
H2471 H 0.44727 0.05791 0.31985 0.0
C2472 C 0.38842 0.03647 0.31558 0.0
C2473 C 0.35144 0.00358 0.31415 0.0
C2474 C 0.43931 0.95164 0.32566 0.0
C2475 C 0.41313 0.9945 0.32037 0.0
C2476 C 0.46634 0.94717 0.33067 0.0
C2477 C 0.49783 0.97987 0.33455 0.0
C2478 C 0.444 0.98905 0.32451 0.0
C2479 C 0.50282 0.01693 0.33279 0.0
C2480 C 0.4192 0.03207 0.31868 0.0
C2481 C 0.34691 0.96646 0.3157 0.0
N2482 N 0.47599 0.02048 0.32797 0.0
N2483 N 0.37727 0.96296 0.31878 0.0
H2484 H 0.01801 0.28527 0.27093 0.0
H2485 H 0.98492 0.18655 0.22438 0.0
H2486 H 0.95389 0.16038 0.26716 0.0
H2487 H 0.08177 0.30166 0.23 0.0
H2488 H 0.96767 0.17813 0.23973 0.0
H2489 H 0.03591 0.29376 0.25554 0.0
C2490 C 0.00764 0.25969 0.26684 0.0
C2491 C 0.98451 0.22209 0.27028 0.0
C2492 C 0.99273 0.20518 0.23758 0.0
C2493 C 0.00464 0.23153 0.25274 0.0
C2494 C 0.00278 0.20999 0.22882 0.0
C2495 C 0.03502 0.24486 0.22585 0.0
C2496 C 0.0147 0.23561 0.24342 0.0
C2497 C 0.05634 0.27451 0.23193 0.0
C2498 C 0.01801 0.26452 0.25809 0.0
C2499 C 0.97206 0.18984 0.26475 0.0
N2500 N 0.04573 0.26925 0.24042 0.0
N2501 N 0.98209 0.1953 0.25623 0.0
H2502 H 0.72838 0.81916 0.22817 0.0
H2503 H 0.81265 0.73535 0.26373 0.0
H2504 H 0.81079 0.78143 0.22187 0.0
H2505 H 0.77306 0.81626 0.27005 0.0
H2506 H 0.80557 0.74515 0.24828 0.0
H2507 H 0.73773 0.81157 0.24361 0.0
C2508 C 0.74837 0.80921 0.23006 0.0
C2509 C 0.76885 0.80085 0.22379 0.0
C2510 C 0.7986 0.76085 0.25306 0.0
C2511 C 0.77947 0.79192 0.24134 0.0
C2512 C 0.80241 0.75512 0.26184 0.0
C2513 C 0.79338 0.77505 0.26812 0.0
C2514 C 0.78502 0.78615 0.25057 0.0
C2515 C 0.78054 0.80058 0.26537 0.0
C2516 C 0.75386 0.80511 0.23884 0.0
C2517 C 0.79468 0.78837 0.22654 0.0
N2518 N 0.77642 0.80519 0.25679 0.0
N2519 N 0.79905 0.78397 0.23513 0.0
H2520 H 0.21991 0.92714 0.22879 0.0
H2521 H 0.21008 0.06307 0.2656 0.0
H2522 H 0.206 0.02649 0.22294 0.0
H2523 H 0.26888 0.99687 0.26916 0.0
H2524 H 0.20045 0.04436 0.25025 0.0
H2525 H 0.23047 0.94695 0.24398 0.0
C2526 C 0.21935 0.95328 0.23066 0.0
C2527 C 0.21225 0.97527 0.22451 0.0
C2528 C 0.21558 0.03408 0.25439 0.0
C2529 C 0.22337 0.99745 0.24198 0.0
C2530 C 0.2209 0.04456 0.26314 0.0
C2531 C 0.24034 0.03149 0.26862 0.0
C2532 C 0.22922 0.00984 0.25116 0.0
C2533 C 0.25405 0.0078 0.26511 0.0
C2534 C 0.22518 0.96441 0.23935 0.0
C2535 C 0.21081 0.00825 0.22742 0.0
N2536 N 0.24799 0.99749 0.25661 0.0
N2537 N 0.2162 0.01827 0.23595 0.0
H2538 H 0.99091 0.71031 0.76776 0.0
H2539 H 0.95106 0.76958 0.72096 0.0
H2540 H 0.9345 0.77854 0.76377 0.0
H2541 H 0.03827 0.73609 0.7255 0.0
H2542 H 0.93749 0.76435 0.73648 0.0
H2543 H 0.00159 0.71113 0.75208 0.0
C2544 C 0.98067 0.72533 0.76356 0.0
C2545 C 0.9619 0.74449 0.76704 0.0
C2546 C 0.95954 0.75808 0.73407 0.0
C2547 C 0.97382 0.74538 0.74917 0.0
C2548 C 0.96743 0.76117 0.72521 0.0
C2549 C 0.99623 0.75373 0.72191 0.0
C2550 C 0.98027 0.74707 0.73969 0.0
C2551 C 0.01565 0.74186 0.72772 0.0
C2552 C 0.98691 0.72592 0.75465 0.0
C2553 C 0.94947 0.76378 0.76135 0.0
N2554 N 0.0074 0.73901 0.73634 0.0
N2555 N 0.95552 0.76362 0.75268 0.0
H2556 H 0.22128 0.15705 0.76171 0.0
H2557 H 0.25091 0.30481 0.72354 0.0
H2558 H 0.28572 0.28197 0.76541 0.0
H2559 H 0.23063 0.18811 0.71914 0.0
H2560 H 0.25869 0.29694 0.73904 0.0
H2561 H 0.21757 0.16729 0.74618 0.0
C2562 C 0.23447 0.18663 0.75924 0.0
C2563 C 0.2538 0.21873 0.76482 0.0
C2564 C 0.2527 0.27321 0.73464 0.0
C2565 C 0.24973 0.23068 0.7471 0.0
C2566 C 0.24847 0.27772 0.72579 0.0
C2567 C 0.23971 0.24694 0.72 0.0
C2568 C 0.24769 0.23756 0.73773 0.0
C2569 C 0.23639 0.21232 0.72335 0.0
C2570 C 0.23261 0.19247 0.75038 0.0
C2571 C 0.27078 0.25648 0.76129 0.0
N2572 N 0.24005 0.20847 0.73199 0.0
N2573 N 0.26815 0.26147 0.75264 0.0
H2574 H 0.76379 0.97309 0.76856 0.0
H2575 H 0.80904 0.06023 0.72074 0.0
H2576 H 0.81172 0.09603 0.76345 0.0
H2577 H 0.72068 0.94118 0.72623 0.0
H2578 H 0.81689 0.07365 0.73637 0.0
H2579 H 0.75433 0.96023 0.75294 0.0
C2580 C 0.77239 0.99733 0.76413 0.0
C2581 C 0.78849 0.03563 0.76725 0.0
C2582 C 0.79565 0.04468 0.73414 0.0
C2583 C 0.778 0.02127 0.74947 0.0
C2584 C 0.79129 0.037 0.72525 0.0
C2585 C 0.76411 0.99962 0.72224 0.0
C2586 C 0.77317 0.01453 0.74002 0.0
C2587 C 0.74167 0.97049 0.72831 0.0
C2588 C 0.76679 0.98999 0.75525 0.0
C2589 C 0.79892 0.06606 0.76128 0.0
N2590 N 0.74692 0.97847 0.73693 0.0
N2591 N 0.79375 0.05826 0.75265 0.0
H2592 H 0.72616 0.59465 0.60356 0.0
H2593 H 0.63268 0.55154 0.55661 0.0
H2594 H 0.6079 0.56909 0.59908 0.0
H2595 H 0.75669 0.62548 0.56062 0.0
H2596 H 0.62233 0.55208 0.57228 0.0
H2597 H 0.73781 0.60118 0.58786 0.0
C2598 C 0.70279 0.5907 0.59925 0.0
C2599 C 0.66607 0.58138 0.60256 0.0
C2600 C 0.65177 0.56839 0.56971 0.0
C2601 C 0.67889 0.58818 0.5847 0.0
C2602 C 0.65767 0.56788 0.56081 0.0
C2603 C 0.69557 0.58844 0.55737 0.0
C2604 C 0.68407 0.589 0.57521 0.0
C2605 C 0.72701 0.60943 0.56304 0.0
C2606 C 0.70946 0.59454 0.59033 0.0
C2607 C 0.63671 0.57661 0.59675 0.0
N2608 N 0.72062 0.60887 0.57172 0.0
N2609 N 0.64361 0.57961 0.58808 0.0
H2610 H 0.35645 0.03202 0.60209 0.0
H2611 H 0.46014 0.16163 0.56019 0.0
H2612 H 0.47001 0.13661 0.60226 0.0
H2613 H 0.36687 0.04165 0.55834 0.0
H2614 H 0.45939 0.15502 0.57587 0.0
H2615 H 0.35514 0.03682 0.58623 0.0
C2616 C 0.38101 0.05597 0.59882 0.0
C2617 C 0.41311 0.08426 0.60356 0.0
C2618 C 0.43915 0.13006 0.57204 0.0
C2619 C 0.41162 0.09003 0.58549 0.0
C2620 C 0.43973 0.13372 0.56306 0.0
C2621 C 0.41382 0.10202 0.5579 0.0
C2622 C 0.41223 0.09456 0.57595 0.0
C2623 C 0.38721 0.06697 0.56206 0.0
C2624 C 0.3802 0.05871 0.58978 0.0
C2625 C 0.44409 0.11472 0.59896 0.0
N2626 N 0.38707 0.06416 0.57085 0.0
N2627 N 0.44247 0.11683 0.59021 0.0
H2628 H 0.95769 0.31544 0.60171 0.0
H2629 H 0.8978 0.3657 0.5561 0.0
H2630 H 0.88936 0.37249 0.59919 0.0
H2631 H 0.91928 0.26937 0.55933 0.0
H2632 H 0.90623 0.3776 0.57168 0.0
H2633 H 0.9557 0.30754 0.58585 0.0
C2634 C 0.94252 0.32647 0.5978 0.0
C2635 C 0.92333 0.34427 0.60171 0.0
C2636 C 0.90919 0.35394 0.56895 0.0
C2637 C 0.92132 0.33584 0.58371 0.0
C2638 C 0.90414 0.34692 0.56006 0.0
C2639 C 0.90734 0.31614 0.55636 0.0
C2640 C 0.91803 0.33041 0.5742 0.0
C2641 C 0.91686 0.29365 0.56184 0.0
C2642 C 0.94125 0.32184 0.58879 0.0
C2643 C 0.90406 0.35813 0.5964 0.0
N2644 N 0.92181 0.3012 0.57049 0.0
N2645 N 0.90361 0.3537 0.58767 0.0
H2646 H 0.69795 0.0731 0.057 0.0
H2647 H 0.64508 0.1568 0.09855 0.0
H2648 H 0.71829 0.19108 0.05833 0.0
H2649 H 0.66295 0.05754 0.09959 0.0
H2650 H 0.66728 0.16771 0.08351 0.0
H2651 H 0.68071 0.06472 0.07234 0.0
C2652 C 0.69926 0.09744 0.06052 0.0
C2653 C 0.70963 0.13289 0.05632 0.0
C2654 C 0.66646 0.14364 0.08705 0.0
C2655 C 0.68893 0.12302 0.07388 0.0
C2656 C 0.65395 0.13746 0.09566 0.0
C2657 C 0.65207 0.10615 0.10038 0.0
C2658 C 0.67678 0.11811 0.08308 0.0
C2659 C 0.66321 0.08163 0.09619 0.0
C2660 C 0.68915 0.0925 0.06927 0.0
C2661 C 0.70985 0.163 0.06122 0.0
N2662 N 0.67491 0.08803 0.08777 0.0
N2663 N 0.69944 0.1573 0.06973 0.0
H2664 H 0.90297 0.52612 0.05376 0.0
H2665 H 0.86506 0.56212 0.1028 0.0
H2666 H 0.86583 0.60813 0.06089 0.0
H2667 H 0.94204 0.51847 0.09583 0.0
H2668 H 0.85722 0.57174 0.08738 0.0
H2669 H 0.91004 0.51567 0.06917 0.0
C2670 C 0.89626 0.54184 0.05859 0.0
C2671 C 0.88391 0.56807 0.05609 0.0
C2672 C 0.87585 0.5601 0.08924 0.0
C2673 C 0.89163 0.55612 0.07365 0.0
C2674 C 0.88011 0.55438 0.09801 0.0
C2675 C 0.90427 0.53957 0.10056 0.0
C2676 C 0.89543 0.55037 0.08299 0.0
C2677 C 0.92341 0.53029 0.09412 0.0
C2678 C 0.90046 0.53602 0.06735 0.0
C2679 C 0.87579 0.58793 0.06257 0.0
N2680 N 0.91844 0.53566 0.08561 0.0
N2681 N 0.87956 0.58137 0.07107 0.0
H2682 H 0.40471 0.33923 0.05829 0.0
H2683 H 0.47536 0.31479 0.10494 0.0
H2684 H 0.46524 0.27501 0.06236 0.0
H2685 H 0.45912 0.41197 0.09823 0.0
H2686 H 0.4652 0.29458 0.08976 0.0
H2687 H 0.41672 0.3603 0.07346 0.0
C2688 C 0.42034 0.32943 0.06241 0.0
C2689 C 0.43401 0.30537 0.05912 0.0
C2690 C 0.46402 0.32039 0.09163 0.0
C2691 C 0.44781 0.32926 0.07639 0.0
C2692 C 0.47004 0.33214 0.10029 0.0
C2693 C 0.46811 0.36521 0.10291 0.0
C2694 C 0.45546 0.3415 0.08557 0.0
C2695 C 0.46019 0.3859 0.09658 0.0
C2696 C 0.42742 0.34165 0.07102 0.0
C2697 C 0.45447 0.29378 0.06467 0.0
N2698 N 0.45395 0.37357 0.08821 0.0
N2699 N 0.46059 0.30567 0.07307 0.0
H2700 H 0.38026 0.9058 0.93633 0.0
H2701 H 0.30268 0.86322 0.88765 0.0
H2702 H 0.26031 0.86692 0.92961 0.0
H2703 H 0.42304 0.94448 0.89398 0.0
H2704 H 0.28663 0.85598 0.90314 0.0
H2705 H 0.39671 0.9122 0.92084 0.0
C2706 C 0.35744 0.89854 0.93158 0.0
C2707 C 0.31895 0.88596 0.9342 0.0
C2708 C 0.31653 0.87542 0.90113 0.0
C2709 C 0.33735 0.89287 0.91659 0.0
C2710 C 0.32571 0.87936 0.89232 0.0
C2711 C 0.36418 0.90452 0.88958 0.0
C2712 C 0.34618 0.89633 0.90722 0.0
C2713 C 0.39296 0.92505 0.89586 0.0
C2714 C 0.36683 0.90236 0.92278 0.0
C2715 C 0.2904 0.87708 0.92783 0.0
N2716 N 0.38342 0.92034 0.90441 0.0
N2717 N 0.30014 0.88048 0.9193 0.0
H2718 H 0.05752 0.38821 0.89095 0.0
H2719 H 0.10049 0.47569 0.9387 0.0
H2720 H 0.11235 0.51185 0.89606 0.0
H2721 H 0.10186 0.36985 0.93232 0.0
H2722 H 0.09274 0.48501 0.92335 0.0
H2723 H 0.06176 0.37667 0.90646 0.0
C2724 C 0.07032 0.41285 0.89536 0.0
C2725 C 0.08473 0.45102 0.89228 0.0
C2726 C 0.09466 0.45973 0.92534 0.0
C2727 C 0.08918 0.43807 0.90991 0.0
C2728 C 0.09924 0.45439 0.9341 0.0
C2729 C 0.10236 0.42214 0.93685 0.0
C2730 C 0.09245 0.4323 0.91927 0.0
C2731 C 0.09925 0.39495 0.93056 0.0
C2732 C 0.07285 0.40628 0.90417 0.0
C2733 C 0.10122 0.48203 0.89821 0.0
N2734 N 0.09448 0.40066 0.92206 0.0
N2735 N 0.10278 0.47486 0.90677 0.0
H2736 H 0.51342 0.65153 0.93584 0.0
H2737 H 0.61081 0.67968 0.88929 0.0
H2738 H 0.62853 0.74765 0.92984 0.0
H2739 H 0.48592 0.61652 0.8932 0.0
H2740 H 0.61961 0.69958 0.90456 0.0
H2741 H 0.50421 0.63343 0.92055 0.0
C2742 C 0.53666 0.66911 0.93132 0.0
C2743 C 0.57183 0.7013 0.93418 0.0
C2744 C 0.5903 0.68147 0.90206 0.0
C2745 C 0.56169 0.67994 0.91667 0.0
C2746 C 0.58529 0.66993 0.89339 0.0
C2747 C 0.54761 0.64646 0.89002 0.0
C2748 C 0.55739 0.66891 0.90741 0.0
C2749 C 0.51545 0.63488 0.89555 0.0
C2750 C 0.53141 0.65855 0.92259 0.0
C2751 C 0.60119 0.72224 0.928 0.0
N2752 N 0.52108 0.64602 0.904 0.0
N2753 N 0.59553 0.71108 0.91955 0.0
H2754 H 0.34768 0.37727 0.38922 0.0
H2755 H 0.38968 0.47937 0.43575 0.0
H2756 H 0.4021 0.5019 0.39282 0.0
H2757 H 0.29657 0.36101 0.43128 0.0
H2758 H 0.40503 0.48567 0.4203 0.0
H2759 H 0.33942 0.36851 0.40502 0.0
C2760 C 0.35818 0.40272 0.39336 0.0
C2761 C 0.37521 0.4403 0.38976 0.0
C2762 C 0.38138 0.45828 0.42273 0.0
C2763 C 0.36628 0.43064 0.4077 0.0
C2764 C 0.37241 0.45468 0.43155 0.0
C2765 C 0.34139 0.41975 0.43485 0.0
C2766 C 0.35954 0.42662 0.41717 0.0
C2767 C 0.32091 0.38841 0.42908 0.0
C2768 C 0.35334 0.39773 0.40233 0.0
C2769 C 0.38835 0.47242 0.39536 0.0
N2770 N 0.33026 0.39264 0.42051 0.0
N2771 N 0.38363 0.46687 0.40406 0.0
H2772 H 0.55766 0.86112 0.39109 0.0
H2773 H 0.62522 0.96412 0.43739 0.0
H2774 H 0.57593 0.97659 0.39626 0.0
H2775 H 0.56269 0.83911 0.43388 0.0
H2776 H 0.61941 0.97221 0.42174 0.0
H2777 H 0.57079 0.85548 0.40632 0.0
C2778 C 0.56424 0.88525 0.39541 0.0
C2779 C 0.56525 0.91925 0.39236 0.0
C2780 C 0.60715 0.94306 0.42441 0.0
C2781 C 0.58132 0.91324 0.40978 0.0
C2782 C 0.61066 0.93847 0.43329 0.0
C2783 C 0.59411 0.90092 0.43688 0.0
C2784 C 0.58756 0.90983 0.41911 0.0
C2785 C 0.57541 0.86854 0.43135 0.0
C2786 C 0.57201 0.88207 0.4041 0.0
C2787 C 0.57516 0.94997 0.39826 0.0
N2788 N 0.57265 0.87373 0.42273 0.0
N2789 N 0.58277 0.94621 0.40669 0.0
H2790 H 0.02531 0.65234 0.43694 0.0
H2791 H 0.13649 0.70828 0.3914 0.0
H2792 H 0.15071 0.70934 0.43448 0.0
H2793 H 0.01961 0.60996 0.39442 0.0
H2794 H 0.13914 0.71949 0.40702 0.0
H2795 H 0.01977 0.64708 0.42102 0.0
C2796 C 0.05157 0.66391 0.43302 0.0
C2797 C 0.08846 0.68085 0.43695 0.0
C2798 C 0.11287 0.69562 0.40422 0.0
C2799 C 0.08251 0.67557 0.41893 0.0
C2800 C 0.11137 0.68902 0.39532 0.0
C2801 C 0.07794 0.65781 0.39156 0.0
C2802 C 0.08057 0.67119 0.40941 0.0
C2803 C 0.04589 0.6346 0.39698 0.0
C2804 C 0.04844 0.66084 0.424 0.0
C2805 C 0.12174 0.69558 0.43166 0.0
N2806 N 0.04804 0.64171 0.40564 0.0
N2807 N 0.11799 0.69266 0.42291 0.0
loop_
_geom_bond_atom_site_label_1
_geom_bond_atom_site_label_2
_geom_bond_distance
_geom_bond_site_symmetry_2
_ccdc_geom_bond_type
C0 C1 1.351 . S
C0 N3 1.368 . S
C0 H5 0.931 . S
C1 C0 1.351 . S
C1 N2 1.373 . S
C1 H29 0.930 . S
N2 C1 1.373 . S
N2 C4 1.340 . S
N3 C0 1.368 . S
N3 C4 1.321 . S
N3 Co6 2.135 . S
C4 N2 1.340 . S
C4 N3 1.321 . S
C4 H28 0.930 . S
H5 C0 0.931 . S
Co6 N3 2.135 . S
Co6 N9 2.121 . S
Co6 O14 2.055 . S
Co6 O17 2.039 . S
Co6 N20 2.140 . S
C7 O8 1.227 . S
C7 O17 1.265 . S
O8 C7 1.227 . S
N9 Co6 2.121 . S
N9 C11 1.375 . S
N9 C12 1.313 . S
C10 C11 1.338 . S
C10 N13 1.377 . S
C10 H30 0.930 1_455 S
C11 N9 1.375 . S
C11 C10 1.338 . S
C11 H15 0.925 1_455 S
C12 N9 1.313 . S
C12 N13 1.344 . S
C12 H16 0.930 . S
N13 C10 1.377 . S
N13 C12 1.344 . S
O14 Co6 2.055 . S
O14 C18 1.253 . S
H15 C11 0.925 1_655 S
H16 C12 0.930 . S
O17 Co6 2.039 . S
O17 C7 1.265 . S
C18 O14 1.253 . S
C18 O19 1.227 . S
O19 C18 1.227 . S
N20 Co6 2.140 . S
N20 C23 1.346 . S
N20 C24 1.345 . S
C21 C22 1.387 . S
C21 C25 1.391 . S
C22 C21 1.387 . S
C22 C23 1.369 . S
C22 H31 0.929 . S
C23 N20 1.346 . S
C23 C22 1.369 . S
C23 H26 0.928 . S
C24 N20 1.345 . S
C24 C25 1.371 . S
C24 H27 0.931 . S
C25 C21 1.391 . S
C25 C24 1.371 . S
C25 H32 0.930 . S
H26 C23 0.928 . S
H27 C24 0.931 . S
H28 C4 0.930 . S
H29 C1 0.930 . S
H30 C10 0.930 1_655 S
H31 C22 0.929 . S
H32 C25 0.930 . S
C33 C34 1.351 . S
C33 N36 1.368 . S
C33 H38 0.931 . S
C34 C33 1.351 . S
C34 N35 1.373 . S
C34 H62 0.930 . S
N35 C34 1.373 . S
N35 C37 1.340 . S
N36 C33 1.368 . S
N36 C37 1.321 . S
N36 Co39 2.135 . S
C37 N35 1.340 . S
C37 N36 1.321 . S
C37 H61 0.930 . S
H38 C33 0.931 . S
Co39 N36 2.135 . S
Co39 N42 2.121 . S
Co39 O47 2.055 . S
Co39 O50 2.039 . S
Co39 N53 2.140 . S
C40 O41 1.227 . S
C40 O50 1.265 . S
O41 C40 1.227 . S
N42 Co39 2.121 . S
N42 C44 1.375 . S
N42 C45 1.313 . S
C43 C44 1.338 . S
C43 N46 1.377 . S
C43 H63 0.930 . S
C44 N42 1.375 . S
C44 C43 1.338 . S
C44 H48 0.931 . S
C45 N42 1.313 . S
C45 N46 1.344 . S
C45 H49 0.930 . S
N46 C43 1.377 . S
N46 C45 1.344 . S
O47 Co39 2.055 . S
O47 C51 1.253 . S
H48 C44 0.931 . S
H49 C45 0.930 . S
O50 Co39 2.039 . S
O50 C40 1.265 . S
C51 O47 1.253 . S
C51 O52 1.227 . S
O52 C51 1.227 . S
N53 Co39 2.140 . S
N53 C56 1.346 . S
N53 C57 1.345 . S
C54 C55 1.387 . S
C54 C58 1.391 . S
C55 C54 1.387 . S
C55 C56 1.369 . S
C55 H64 0.929 . S
C56 N53 1.346 . S
C56 C55 1.369 . S
C56 H59 0.928 . S
C57 N53 1.345 . S
C57 C58 1.371 . S
C57 H60 0.931 . S
C58 C54 1.391 . S
C58 C57 1.371 . S
C58 H65 0.930 . S
H59 C56 0.928 . S
H60 C57 0.931 . S
H61 C37 0.930 . S
H62 C34 0.930 . S
H63 C43 0.930 . S
H64 C55 0.929 . S
H65 C58 0.930 . S
C66 C67 1.351 . S
C66 N69 1.368 . S
C66 H71 0.931 . S
C67 C66 1.351 . S
C67 N68 1.373 . S
C67 H95 0.930 . S
N68 C67 1.373 . S
N68 C70 1.340 . S
N69 C66 1.368 . S
N69 C70 1.321 . S
N69 Co72 2.135 . S
C70 N68 1.340 . S
C70 N69 1.321 . S
C70 H94 0.930 . S
H71 C66 0.931 . S
Co72 N69 2.135 . S
Co72 N75 2.121 . S
Co72 O80 2.055 . S
Co72 O83 2.039 . S
Co72 N86 2.140 . S
C73 O74 1.227 . S
C73 O83 1.265 . S
O74 C73 1.227 . S
N75 Co72 2.121 . S
N75 C77 1.375 . S
N75 C78 1.313 . S
C76 C77 1.338 . S
C76 N79 1.377 . S
C76 H96 0.930 1_565 S
C77 N75 1.375 . S
C77 C76 1.338 . S
C77 H81 0.905 1_565 S
C78 N75 1.313 . S
C78 N79 1.344 . S
C78 H82 0.930 . S
N79 C76 1.377 . S
N79 C78 1.344 . S
O80 Co72 2.055 . S
O80 C84 1.253 . S
H81 C77 0.905 1_545 S
H82 C78 0.930 . S
O83 Co72 2.039 . S
O83 C73 1.265 . S
C84 O80 1.253 . S
C84 O85 1.227 . S
O85 C84 1.227 . S
N86 Co72 2.140 . S
N86 C89 1.346 . S
N86 C90 1.345 . S
C87 C88 1.387 . S
C87 C91 1.391 . S
C88 C87 1.387 . S
C88 C89 1.369 . S
C88 H97 0.929 . S
C89 N86 1.346 . S
C89 C88 1.369 . S
C89 H92 0.928 . S
C90 N86 1.345 . S
C90 C91 1.371 . S
C90 H93 0.931 . S
C91 C87 1.391 . S
C91 C90 1.371 . S
C91 H98 0.930 . S
H92 C89 0.928 . S
H93 C90 0.931 . S
H94 C70 0.930 . S
H95 C67 0.930 . S
H96 C76 0.930 1_545 S
H97 C88 0.929 . S
H98 C91 0.930 . S
C99 C100 1.351 . S
C99 N102 1.368 . S
C99 H104 0.931 . S
C100 C99 1.351 . S
C100 N101 1.373 . S
C100 H128 0.930 . S
N101 C100 1.373 . S
N101 C103 1.340 . S
N102 C99 1.368 . S
N102 C103 1.321 . S
N102 Co105 2.135 . S
C103 N101 1.340 . S
C103 N102 1.321 . S
C103 H127 0.930 . S
H104 C99 0.931 . S
Co105 N102 2.135 . S
Co105 N108 2.121 . S
Co105 O113 2.055 . S
Co105 O116 2.039 . S
Co105 N119 2.140 . S
C106 O107 1.227 . S
C106 O116 1.265 . S
O107 C106 1.227 . S
N108 Co105 2.121 . S
N108 C110 1.375 . S
N108 C111 1.313 . S
C109 C110 1.338 . S
C109 N112 1.377 . S
C109 H129 0.930 1_545 S
C110 N108 1.375 . S
C110 C109 1.338 . S
C110 H114 0.925 1_545 S
C111 N108 1.313 . S
C111 N112 1.344 . S
C111 H115 0.930 . S
N112 C109 1.377 . S
N112 C111 1.344 . S
O113 Co105 2.055 . S
O113 C117 1.253 . S
H114 C110 0.925 1_565 S
H115 C111 0.930 . S
O116 Co105 2.039 . S
O116 C106 1.265 . S
C117 O113 1.253 . S
C117 O118 1.227 . S
O118 C117 1.227 . S
N119 Co105 2.140 . S
N119 C122 1.346 . S
N119 C123 1.345 . S
C120 C121 1.387 . S
C120 C124 1.391 . S
C121 C120 1.387 . S
C121 C122 1.369 . S
C121 H130 0.929 . S
C122 N119 1.346 . S
C122 C121 1.369 . S
C122 H125 0.928 . S
C123 N119 1.345 . S
C123 C124 1.371 . S
C123 H126 0.931 . S
C124 C120 1.391 . S
C124 C123 1.371 . S
C124 H131 0.930 . S
H125 C122 0.928 . S
H126 C123 0.931 . S
H127 C103 0.930 . S
H128 C100 0.930 . S
H129 C109 0.930 1_565 S
H130 C121 0.929 . S
H131 C124 0.930 . S
C132 C133 1.351 . S
C132 N135 1.368 . S
C132 H137 0.931 . S
C133 C132 1.351 . S
C133 N134 1.373 . S
C133 H161 0.930 . S
N134 C133 1.373 . S
N134 C136 1.340 . S
N135 C132 1.368 . S
N135 C136 1.321 . S
N135 Co138 2.135 . S
C136 N134 1.340 . S
C136 N135 1.321 . S
C136 H160 0.930 . S
H137 C132 0.931 . S
Co138 N135 2.135 . S
Co138 N141 2.121 . S
Co138 O146 2.055 . S
Co138 O149 2.039 . S
Co138 N152 2.140 . S
C139 O140 1.227 . S
C139 O149 1.265 . S
O140 C139 1.227 . S
N141 Co138 2.121 . S
N141 C143 1.375 . S
N141 C144 1.313 . S
C142 C143 1.338 . S
C142 N145 1.377 . S
C142 H162 0.930 1_655 S
C143 N141 1.375 . S
C143 C142 1.338 . S
C143 H147 0.906 1_655 S
C144 N141 1.313 . S
C144 N145 1.344 . S
C144 H148 0.930 . S
N145 C142 1.377 . S
N145 C144 1.344 . S
O146 Co138 2.055 . S
O146 C150 1.253 . S
H147 C143 0.906 1_455 S
H148 C144 0.930 . S
O149 Co138 2.039 . S
O149 C139 1.265 . S
C150 O146 1.253 . S
C150 O151 1.227 . S
O151 C150 1.227 . S
N152 Co138 2.140 . S
N152 C155 1.346 . S
N152 C156 1.345 . S
C153 C154 1.387 . S
C153 C157 1.391 . S
C154 C153 1.387 . S
C154 C155 1.369 . S
C154 H163 0.929 . S
C155 N152 1.346 . S
C155 C154 1.369 . S
C155 H158 0.928 . S
C156 N152 1.345 . S
C156 C157 1.371 . S
C156 H159 0.931 . S
C157 C153 1.391 . S
C157 C156 1.371 . S
C157 H164 0.930 . S
H158 C155 0.928 . S
H159 C156 0.931 . S
H160 C136 0.930 . S
H161 C133 0.930 . S
H162 C142 0.930 1_455 S
H163 C154 0.929 . S
H164 C157 0.930 . S
C165 C166 1.351 . S
C165 N168 1.368 . S
C165 H170 0.931 . S
C166 C165 1.351 . S
C166 N167 1.373 . S
C166 H194 0.930 . S
N167 C166 1.373 . S
N167 C169 1.340 . S
N168 C165 1.368 . S
N168 C169 1.321 . S
N168 Co171 2.135 . S
C169 N167 1.340 . S
C169 N168 1.321 . S
C169 H193 0.930 . S
H170 C165 0.931 . S
Co171 N168 2.135 . S
Co171 N174 2.121 . S
Co171 O179 2.055 . S
Co171 O182 2.039 . S
Co171 N185 2.140 . S
C172 O173 1.227 . S
C172 O182 1.265 . S
O173 C172 1.227 . S
N174 Co171 2.121 . S
N174 C176 1.375 . S
N174 C177 1.313 . S
C175 C176 1.338 . S
C175 N178 1.377 . S
C175 H195 0.930 . S
C176 N174 1.375 . S
C176 C175 1.338 . S
C176 H180 0.931 . S
C177 N174 1.313 . S
C177 N178 1.344 . S
C177 H181 0.930 . S
N178 C175 1.377 . S
N178 C177 1.344 . S
O179 Co171 2.055 . S
O179 C183 1.253 . S
H180 C176 0.931 . S
H181 C177 0.930 . S
O182 Co171 2.039 . S
O182 C172 1.265 . S
C183 O179 1.253 . S
C183 O184 1.227 . S
O184 C183 1.227 . S
N185 Co171 2.140 . S
N185 C188 1.346 . S
N185 C189 1.345 . S
C186 C187 1.387 . S
C186 C190 1.391 . S
C187 C186 1.387 . S
C187 C188 1.369 . S
C187 H196 0.929 . S
C188 N185 1.346 . S
C188 C187 1.369 . S
C188 H191 0.928 . S
C189 N185 1.345 . S
C189 C190 1.371 . S
C189 H192 0.931 . S
C190 C186 1.391 . S
C190 C189 1.371 . S
C190 H197 0.930 . S
H191 C188 0.928 . S
H192 C189 0.931 . S
H193 C169 0.930 . S
H194 C166 0.930 . S
H195 C175 0.930 . S
H196 C187 0.929 . S
H197 C190 0.930 . S
C198 C199 1.351 . S
C198 N201 1.368 . S
C198 H203 0.931 . S
C199 C198 1.351 . S
C199 N200 1.373 . S
C199 H227 0.930 . S
N200 C199 1.373 . S
N200 C202 1.340 . S
N201 C198 1.368 . S
N201 C202 1.321 . S
N201 Co204 2.135 . S
C202 N200 1.340 . S
C202 N201 1.321 . S
C202 H226 0.930 . S
H203 C198 0.931 . S
Co204 N201 2.135 . S
Co204 N207 2.121 . S
Co204 O212 2.055 . S
Co204 O215 2.039 . S
Co204 N218 2.140 . S
C205 O206 1.227 . S
C205 O215 1.265 . S
O206 C205 1.227 . S
N207 Co204 2.121 . S
N207 C209 1.375 . S
N207 C210 1.313 . S
C208 C209 1.338 . S
C208 N211 1.377 . S
C208 H228 0.930 1_655 S
C209 N207 1.375 . S
C209 C208 1.338 . S
C209 H213 0.925 1_655 S
C210 N207 1.313 . S
C210 N211 1.344 . S
C210 H214 0.930 . S
N211 C208 1.377 . S
N211 C210 1.344 . S
O212 Co204 2.055 . S
O212 C216 1.253 . S
H213 C209 0.925 1_455 S
H214 C210 0.930 . S
O215 Co204 2.039 . S
O215 C205 1.265 . S
C216 O212 1.253 . S
C216 O217 1.227 . S
O217 C216 1.227 . S
N218 Co204 2.140 . S
N218 C221 1.346 . S
N218 C222 1.345 . S
C219 C220 1.387 . S
C219 C223 1.391 . S
C220 C219 1.387 . S
C220 C221 1.369 . S
C220 H229 0.929 . S
C221 N218 1.346 . S
C221 C220 1.369 . S
C221 H224 0.928 . S
C222 N218 1.345 . S
C222 C223 1.371 . S
C222 H225 0.931 . S
C223 C219 1.391 . S
C223 C222 1.371 . S
C223 H230 0.930 . S
H224 C221 0.928 . S
H225 C222 0.931 . S
H226 C202 0.930 . S
H227 C199 0.930 . S
H228 C208 0.930 1_455 S
H229 C220 0.929 . S
H230 C223 0.930 . S
C231 C232 1.351 . S
C231 N234 1.368 . S
C231 H236 0.931 . S
C232 C231 1.351 . S
C232 N233 1.373 . S
C232 H260 0.930 . S
N233 C232 1.373 . S
N233 C235 1.340 . S
N234 C231 1.368 . S
N234 C235 1.321 . S
N234 Co237 2.135 . S
C235 N233 1.340 . S
C235 N234 1.321 . S
C235 H259 0.930 . S
H236 C231 0.931 . S
Co237 N234 2.135 . S
Co237 N240 2.121 . S
Co237 O245 2.055 . S
Co237 O248 2.039 . S
Co237 N251 2.140 . S
C238 O239 1.227 . S
C238 O248 1.265 . S
O239 C238 1.227 . S
N240 Co237 2.121 . S
N240 C242 1.375 . S
N240 C243 1.313 . S
C241 C242 1.338 . S
C241 N244 1.377 . S
C241 H261 0.930 . S
C242 N240 1.375 . S
C242 C241 1.338 . S
C242 H246 0.931 . S
C243 N240 1.313 . S
C243 N244 1.344 . S
C243 H247 0.930 . S
N244 C241 1.377 . S
N244 C243 1.344 . S
O245 Co237 2.055 . S
O245 C249 1.253 . S
H246 C242 0.931 . S
H247 C243 0.930 . S
O248 Co237 2.039 . S
O248 C238 1.265 . S
C249 O245 1.253 . S
C249 O250 1.227 . S
O250 C249 1.227 . S
N251 Co237 2.140 . S
N251 C254 1.346 . S
N251 C255 1.345 . S
C252 C253 1.387 . S
C252 C256 1.391 . S
C253 C252 1.387 . S
C253 C254 1.369 . S
C253 H262 0.929 . S
C254 N251 1.346 . S
C254 C253 1.369 . S
C254 H257 0.928 . S
C255 N251 1.345 . S
C255 C256 1.371 . S
C255 H258 0.931 . S
C256 C252 1.391 . S
C256 C255 1.371 . S
C256 H263 0.930 . S
H257 C254 0.928 . S
H258 C255 0.931 . S
H259 C235 0.930 . S
H260 C232 0.930 . S
H261 C241 0.930 . S
H262 C253 0.929 . S
H263 C256 0.930 . S
C264 C265 1.351 . S
C264 N267 1.368 . S
C264 H269 0.931 . S
C265 C264 1.351 . S
C265 N266 1.373 . S
C265 H293 0.930 . S
N266 C265 1.373 . S
N266 C268 1.340 . S
N267 C264 1.368 . S
N267 C268 1.321 . S
N267 Co270 2.135 . S
C268 N266 1.340 . S
C268 N267 1.321 . S
C268 H292 0.930 . S
H269 C264 0.931 . S
Co270 N267 2.135 . S
Co270 N273 2.121 . S
Co270 O278 2.055 . S
Co270 O281 2.039 . S
Co270 N284 2.140 . S
C271 O272 1.227 . S
C271 O281 1.265 . S
O272 C271 1.227 . S
N273 Co270 2.121 . S
N273 C275 1.375 . S
N273 C276 1.313 . S
C274 C275 1.338 . S
C274 N277 1.377 . S
C274 H294 0.930 1_545 S
C275 N273 1.375 . S
C275 C274 1.338 . S
C275 H279 0.905 1_545 S
C276 N273 1.313 . S
C276 N277 1.344 . S
C276 H280 0.930 . S
N277 C274 1.377 . S
N277 C276 1.344 . S
O278 Co270 2.055 . S
O278 C282 1.253 . S
H279 C275 0.905 1_565 S
H280 C276 0.930 . S
O281 Co270 2.039 . S
O281 C271 1.265 . S
C282 O278 1.253 . S
C282 O283 1.227 . S
O283 C282 1.227 . S
N284 Co270 2.140 . S
N284 C287 1.346 . S
N284 C288 1.345 . S
C285 C286 1.387 . S
C285 C289 1.391 . S
C286 C285 1.387 . S
C286 C287 1.369 . S
C286 H295 0.929 . S
C287 N284 1.346 . S
C287 C286 1.369 . S
C287 H290 0.928 . S
C288 N284 1.345 . S
C288 C289 1.371 . S
C288 H291 0.931 . S
C289 C285 1.391 . S
C289 C288 1.371 . S
C289 H296 0.930 . S
H290 C287 0.928 . S
H291 C288 0.931 . S
H292 C268 0.930 . S
H293 C265 0.930 . S
H294 C274 0.930 1_565 S
H295 C286 0.929 . S
H296 C289 0.930 . S
C297 C298 1.351 . S
C297 N300 1.368 . S
C297 H302 0.931 . S
C298 C297 1.351 . S
C298 N299 1.373 . S
C298 H326 0.930 . S
N299 C298 1.373 . S
N299 C301 1.340 . S
N300 C297 1.368 . S
N300 C301 1.321 . S
N300 Co303 2.135 . S
C301 N299 1.340 . S
C301 N300 1.321 . S
C301 H325 0.930 . S
H302 C297 0.931 . S
Co303 N300 2.135 . S
Co303 N306 2.121 . S
Co303 O311 2.055 . S
Co303 O314 2.039 . S
Co303 N317 2.140 . S
C304 O305 1.227 . S
C304 O314 1.265 . S
O305 C304 1.227 . S
N306 Co303 2.121 . S
N306 C308 1.375 . S
N306 C309 1.313 . S
C307 C308 1.338 . S
C307 N310 1.377 . S
C307 H327 0.930 1_565 S
C308 N306 1.375 . S
C308 C307 1.338 . S
C308 H312 0.925 1_565 S
C309 N306 1.313 . S
C309 N310 1.344 . S
C309 H313 0.930 . S
N310 C307 1.377 . S
N310 C309 1.344 . S
O311 Co303 2.055 . S
O311 C315 1.253 . S
H312 C308 0.925 1_545 S
H313 C309 0.930 . S
O314 Co303 2.039 . S
O314 C304 1.265 . S
C315 O311 1.253 . S
C315 O316 1.227 . S
O316 C315 1.227 . S
N317 Co303 2.140 . S
N317 C320 1.346 . S
N317 C321 1.345 . S
C318 C319 1.387 . S
C318 C322 1.391 . S
C319 C318 1.387 . S
C319 C320 1.369 . S
C319 H328 0.929 . S
C320 N317 1.346 . S
C320 C319 1.369 . S
C320 H323 0.928 . S
C321 N317 1.345 . S
C321 C322 1.371 . S
C321 H324 0.931 . S
C322 C318 1.391 . S
C322 C321 1.371 . S
C322 H329 0.930 . S
H323 C320 0.928 . S
H324 C321 0.931 . S
H325 C301 0.930 . S
H326 C298 0.930 . S
H327 C307 0.930 1_545 S
H328 C319 0.929 . S
H329 C322 0.930 . S
C330 C331 1.351 . S
C330 N333 1.368 . S
C330 H335 0.931 . S
C331 C330 1.351 . S
C331 N332 1.373 . S
C331 H359 0.930 . S
N332 C331 1.373 . S
N332 C334 1.340 . S
N333 C330 1.368 . S
N333 C334 1.321 . S
N333 Co336 2.135 . S
C334 N332 1.340 . S
C334 N333 1.321 . S
C334 H358 0.930 . S
H335 C330 0.931 . S
Co336 N333 2.135 . S
Co336 N339 2.121 . S
Co336 O344 2.055 . S
Co336 O347 2.039 . S
Co336 N350 2.140 . S
C337 O338 1.227 . S
C337 O347 1.265 . S
O338 C337 1.227 . S
N339 Co336 2.121 . S
N339 C341 1.375 . S
N339 C342 1.313 . S
C340 C341 1.338 . S
C340 N343 1.377 . S
C340 H360 0.930 1_455 S
C341 N339 1.375 . S
C341 C340 1.338 . S
C341 H345 0.906 1_455 S
C342 N339 1.313 . S
C342 N343 1.344 . S
C342 H346 0.930 . S
N343 C340 1.377 . S
N343 C342 1.344 . S
O344 Co336 2.055 . S
O344 C348 1.253 . S
H345 C341 0.906 1_655 S
H346 C342 0.930 . S
O347 Co336 2.039 . S
O347 C337 1.265 . S
C348 O344 1.253 . S
C348 O349 1.227 . S
O349 C348 1.227 . S
N350 Co336 2.140 . S
N350 C353 1.346 . S
N350 C354 1.345 . S
C351 C352 1.387 . S
C351 C355 1.391 . S
C352 C351 1.387 . S
C352 C353 1.369 . S
C352 H361 0.929 . S
C353 N350 1.346 . S
C353 C352 1.369 . S
C353 H356 0.928 . S
C354 N350 1.345 . S
C354 C355 1.371 . S
C354 H357 0.931 . S
C355 C351 1.391 . S
C355 C354 1.371 . S
C355 H362 0.930 . S
H356 C353 0.928 . S
H357 C354 0.931 . S
H358 C334 0.930 . S
H359 C331 0.930 . S
H360 C340 0.930 1_655 S
H361 C352 0.929 . S
H362 C355 0.930 . S
C363 C364 1.351 . S
C363 N366 1.368 . S
C363 H368 0.931 . S
C364 C363 1.351 . S
C364 N365 1.373 . S
C364 H392 0.930 . S
N365 C364 1.373 . S
N365 C367 1.340 . S
N366 C363 1.368 . S
N366 C367 1.321 . S
N366 Co369 2.135 . S
C367 N365 1.340 . S
C367 N366 1.321 . S
C367 H391 0.930 . S
H368 C363 0.931 . S
Co369 N366 2.135 . S
Co369 N372 2.121 . S
Co369 O377 2.055 . S
Co369 O380 2.039 . S
Co369 N383 2.140 . S
C370 O371 1.227 . S
C370 O380 1.265 . S
O371 C370 1.227 . S
N372 Co369 2.121 . S
N372 C374 1.375 . S
N372 C375 1.313 . S
C373 C374 1.338 . S
C373 N376 1.377 . S
C373 H393 0.930 . S
C374 N372 1.375 . S
C374 C373 1.338 . S
C374 H378 0.931 . S
C375 N372 1.313 . S
C375 N376 1.344 . S
C375 H379 0.930 . S
N376 C373 1.377 . S
N376 C375 1.344 . S
O377 Co369 2.055 . S
O377 C381 1.253 . S
H378 C374 0.931 . S
H379 C375 0.930 . S
O380 Co369 2.039 . S
O380 C370 1.265 . S
C381 O377 1.253 . S
C381 O382 1.227 . S
O382 C381 1.227 . S
N383 Co369 2.140 . S
N383 C386 1.346 . S
N383 C387 1.345 . S
C384 C385 1.387 . S
C384 C388 1.391 . S
C385 C384 1.387 . S
C385 C386 1.369 . S
C385 H394 0.929 . S
C386 N383 1.346 . S
C386 C385 1.369 . S
C386 H389 0.928 . S
C387 N383 1.345 . S
C387 C388 1.371 . S
C387 H390 0.931 . S
C388 C384 1.391 . S
C388 C387 1.371 . S
C388 H395 0.930 . S
H389 C386 0.928 . S
H390 C387 0.931 . S
H391 C367 0.930 . S
H392 C364 0.930 . S
H393 C373 0.930 . S
H394 C385 0.929 . S
H395 C388 0.930 . S
C396 C397 1.351 . S
C396 N399 1.368 . S
C396 H401 0.931 . S
C397 C396 1.351 . S
C397 N398 1.373 . S
C397 H425 0.930 . S
N398 C397 1.373 . S
N398 C400 1.340 . S
N399 C396 1.368 . S
N399 C400 1.321 . S
N399 Co402 2.135 . S
C400 N398 1.340 . S
C400 N399 1.321 . S
C400 H424 0.930 . S
H401 C396 0.931 . S
Co402 N399 2.135 . S
Co402 N405 2.121 . S
Co402 O410 2.055 . S
Co402 O413 2.039 . S
Co402 N416 2.140 . S
C403 O404 1.227 . S
C403 O413 1.265 . S
O404 C403 1.227 . S
N405 Co402 2.121 . S
N405 C407 1.375 . S
N405 C408 1.313 . S
C406 C407 1.338 . S
C406 N409 1.377 . S
C406 H426 0.930 . S
C407 N405 1.375 . S
C407 C406 1.338 . S
C407 H411 0.931 . S
C408 N405 1.313 . S
C408 N409 1.344 . S
C408 H412 0.930 . S
N409 C406 1.377 . S
N409 C408 1.344 . S
O410 Co402 2.055 . S
O410 C414 1.253 . S
H411 C407 0.931 . S
H412 C408 0.930 . S
O413 Co402 2.039 . S
O413 C403 1.265 . S
C414 O410 1.253 . S
C414 O415 1.227 . S
O415 C414 1.227 . S
N416 Co402 2.140 . S
N416 C419 1.346 . S
N416 C420 1.345 . S
C417 C418 1.387 . S
C417 C421 1.391 . S
C418 C417 1.387 . S
C418 C419 1.369 . S
C418 H427 0.929 . S
C419 N416 1.346 . S
C419 C418 1.369 . S
C419 H422 0.928 . S
C420 N416 1.345 . S
C420 C421 1.371 . S
C420 H423 0.931 . S
C421 C417 1.391 . S
C421 C420 1.371 . S
C421 H428 0.930 . S
H422 C419 0.928 . S
H423 C420 0.931 . S
H424 C400 0.930 . S
H425 C397 0.930 . S
H426 C406 0.930 . S
H427 C418 0.929 . S
H428 C421 0.930 . S
C429 C430 1.351 . S
C429 N432 1.368 . S
C429 H434 0.931 . S
C430 C429 1.351 . S
C430 N431 1.373 . S
C430 H458 0.930 . S
N431 C430 1.373 . S
N431 C433 1.340 . S
N432 C429 1.368 . S
N432 C433 1.321 . S
N432 Co435 2.135 . S
C433 N431 1.340 . S
C433 N432 1.321 . S
C433 H457 0.930 . S
H434 C429 0.931 . S
Co435 N432 2.135 . S
Co435 N438 2.121 . S
Co435 O443 2.055 . S
Co435 O446 2.039 . S
Co435 N449 2.140 . S
C436 O437 1.227 . S
C436 O446 1.265 . S
O437 C436 1.227 . S
N438 Co435 2.121 . S
N438 C440 1.375 . S
N438 C441 1.313 . S
C439 C440 1.338 . S
C439 N442 1.377 . S
C439 H459 0.930 . S
C440 N438 1.375 . S
C440 C439 1.338 . S
C440 H444 0.931 . S
C441 N438 1.313 . S
C441 N442 1.344 . S
C441 H445 0.930 . S
N442 C439 1.377 . S
N442 C441 1.344 . S
O443 Co435 2.055 . S
O443 C447 1.253 . S
H444 C440 0.931 . S
H445 C441 0.930 . S
O446 Co435 2.039 . S
O446 C436 1.265 . S
C447 O443 1.253 . S
C447 O448 1.227 . S
O448 C447 1.227 . S
N449 Co435 2.140 . S
N449 C452 1.346 . S
N449 C453 1.345 . S
C450 C451 1.387 . S
C450 C454 1.391 . S
C451 C450 1.387 . S
C451 C452 1.369 . S
C451 H460 0.929 . S
C452 N449 1.346 . S
C452 C451 1.369 . S
C452 H455 0.928 . S
C453 N449 1.345 . S
C453 C454 1.371 . S
C453 H456 0.931 . S
C454 C450 1.391 . S
C454 C453 1.371 . S
C454 H461 0.930 . S
H455 C452 0.928 . S
H456 C453 0.931 . S
H457 C433 0.930 . S
H458 C430 0.930 . S
H459 C439 0.930 . S
H460 C451 0.929 . S
H461 C454 0.930 . S
C462 C463 1.351 . S
C462 N465 1.368 . S
C462 H467 0.931 . S
C463 C462 1.351 . S
C463 N464 1.373 . S
C463 H491 0.930 . S
N464 C463 1.373 . S
N464 C466 1.340 . S
N465 C462 1.368 . S
N465 C466 1.321 . S
N465 Co468 2.135 . S
C466 N464 1.340 . S
C466 N465 1.321 . S
C466 H490 0.930 . S
H467 C462 0.931 . S
Co468 N465 2.135 . S
Co468 N471 2.121 . S
Co468 O476 2.055 . S
Co468 O479 2.039 . S
Co468 N482 2.140 . S
C469 O470 1.227 . S
C469 O479 1.265 . S
O470 C469 1.227 . S
N471 Co468 2.121 . S
N471 C473 1.375 . S
N471 C474 1.313 . S
C472 C473 1.338 . S
C472 N475 1.377 . S
C472 H492 0.930 . S
C473 N471 1.375 . S
C473 C472 1.338 . S
C473 H477 0.931 . S
C474 N471 1.313 . S
C474 N475 1.344 . S
C474 H478 0.930 . S
N475 C472 1.377 . S
N475 C474 1.344 . S
O476 Co468 2.055 . S
O476 C480 1.253 . S
H477 C473 0.931 . S
H478 C474 0.930 . S
O479 Co468 2.039 . S
O479 C469 1.265 . S
C480 O476 1.253 . S
C480 O481 1.227 . S
O481 C480 1.227 . S
N482 Co468 2.140 . S
N482 C485 1.346 . S
N482 C486 1.345 . S
C483 C484 1.387 . S
C483 C487 1.391 . S
C484 C483 1.387 . S
C484 C485 1.369 . S
C484 H493 0.929 . S
C485 N482 1.346 . S
C485 C484 1.369 . S
C485 H488 0.928 . S
C486 N482 1.345 . S
C486 C487 1.371 . S
C486 H489 0.931 . S
C487 C483 1.391 . S
C487 C486 1.371 . S
C487 H494 0.930 . S
H488 C485 0.928 . S
H489 C486 0.931 . S
H490 C466 0.930 . S
H491 C463 0.930 . S
H492 C472 0.930 . S
H493 C484 0.929 . S
H494 C487 0.930 . S
C495 C496 1.351 . S
C495 N498 1.368 . S
C495 H500 0.931 . S
C496 C495 1.351 . S
C496 N497 1.373 . S
C496 H524 0.930 . S
N497 C496 1.373 . S
N497 C499 1.340 . S
N498 C495 1.368 . S
N498 C499 1.321 . S
N498 Co501 2.135 . S
C499 N497 1.340 . S
C499 N498 1.321 . S
C499 H523 0.930 . S
H500 C495 0.931 . S
Co501 N498 2.135 . S
Co501 N504 2.121 . S
Co501 O509 2.055 . S
Co501 O512 2.039 . S
Co501 N515 2.140 . S
C502 O503 1.227 . S
C502 O512 1.265 . S
O503 C502 1.227 . S
N504 Co501 2.121 . S
N504 C506 1.375 . S
N504 C507 1.313 . S
C505 C506 1.338 . S
C505 N508 1.377 . S
C505 H525 0.930 . S
C506 N504 1.375 . S
C506 C505 1.338 . S
C506 H510 0.931 . S
C507 N504 1.313 . S
C507 N508 1.344 . S
C507 H511 0.931 1_655 S
N508 C505 1.377 . S
N508 C507 1.344 . S
O509 Co501 2.055 . S
O509 C513 1.253 . S
H510 C506 0.931 . S
H511 C507 0.931 1_455 S
O512 Co501 2.039 . S
O512 C502 1.265 . S
C513 O509 1.253 . S
C513 O514 1.227 . S
O514 C513 1.227 . S
N515 Co501 2.140 . S
N515 C518 1.346 . S
N515 C519 1.345 . S
C516 C517 1.387 . S
C516 C520 1.391 . S
C517 C516 1.387 . S
C517 C518 1.369 . S
C517 H526 0.929 . S
C518 N515 1.346 . S
C518 C517 1.369 . S
C518 H521 0.928 . S
C519 N515 1.345 . S
C519 C520 1.371 . S
C519 H522 0.931 . S
C520 C516 1.391 . S
C520 C519 1.371 . S
C520 H527 0.930 1_655 S
H521 C518 0.928 . S
H522 C519 0.931 . S
H523 C499 0.930 . S
H524 C496 0.930 . S
H525 C505 0.930 . S
H526 C517 0.929 . S
H527 C520 0.930 1_455 S
C528 C529 1.351 . S
C528 N531 1.368 . S
C528 H533 0.931 . S
C529 C528 1.351 . S
C529 N530 1.373 . S
C529 H557 0.930 . S
N530 C529 1.373 . S
N530 C532 1.340 . S
N531 C528 1.368 . S
N531 C532 1.321 . S
N531 Co534 2.135 . S
C532 N530 1.340 . S
C532 N531 1.321 . S
C532 H556 0.930 . S
H533 C528 0.931 . S
Co534 N531 2.135 . S
Co534 N537 2.121 . S
Co534 O542 2.055 . S
Co534 O545 2.039 . S
Co534 N548 2.140 . S
C535 O536 1.227 . S
C535 O545 1.265 . S
O536 C535 1.227 . S
N537 Co534 2.121 . S
N537 C539 1.375 . S
N537 C540 1.313 . S
C538 C539 1.338 . S
C538 N541 1.377 . S
C538 H558 0.930 . S
C539 N537 1.375 . S
C539 C538 1.338 . S
C539 H543 0.931 . S
C540 N537 1.313 . S
C540 N541 1.344 . S
C540 H544 0.930 . S
N541 C538 1.377 . S
N541 C540 1.344 . S
O542 Co534 2.055 . S
O542 C546 1.253 . S
H543 C539 0.931 . S
H544 C540 0.930 . S
O545 Co534 2.039 . S
O545 C535 1.265 . S
C546 O542 1.253 . S
C546 O547 1.227 . S
O547 C546 1.227 . S
N548 Co534 2.140 . S
N548 C551 1.346 . S
N548 C552 1.345 . S
C549 C550 1.387 . S
C549 C553 1.391 . S
C550 C549 1.387 . S
C550 C551 1.369 . S
C550 H559 0.929 . S
C551 N548 1.346 . S
C551 C550 1.369 . S
C551 H554 0.928 . S
C552 N548 1.345 . S
C552 C553 1.371 . S
C552 H555 0.931 . S
C553 C549 1.391 . S
C553 C552 1.371 . S
C553 H560 0.930 . S
H554 C551 0.928 . S
H555 C552 0.931 . S
H556 C532 0.930 . S
H557 C529 0.930 . S
H558 C538 0.930 . S
H559 C550 0.929 . S
H560 C553 0.930 . S
C561 C562 1.351 . S
C561 N564 1.368 . S
C561 H566 0.931 . S
C562 C561 1.351 . S
C562 N563 1.373 . S
C562 H590 0.930 . S
N563 C562 1.373 . S
N563 C565 1.340 . S
N564 C561 1.368 . S
N564 C565 1.321 . S
N564 Co567 2.135 . S
C565 N563 1.340 . S
C565 N564 1.321 . S
C565 H589 0.930 . S
H566 C561 0.931 . S
Co567 N564 2.135 . S
Co567 N570 2.121 . S
Co567 O575 2.055 . S
Co567 O578 2.039 . S
Co567 N581 2.140 . S
C568 O569 1.227 . S
C568 O578 1.265 . S
O569 C568 1.227 . S
N570 Co567 2.121 . S
N570 C572 1.375 . S
N570 C573 1.313 . S
C571 C572 1.338 . S
C571 N574 1.377 . S
C571 H591 0.930 . S
C572 N570 1.375 . S
C572 C571 1.338 . S
C572 H576 0.931 . S
C573 N570 1.313 . S
C573 N574 1.344 . S
C573 H577 0.929 1_545 S
N574 C571 1.377 . S
N574 C573 1.344 . S
O575 Co567 2.055 . S
O575 C579 1.253 . S
H576 C572 0.931 . S
H577 C573 0.929 1_565 S
O578 Co567 2.039 . S
O578 C568 1.265 . S
C579 O575 1.253 . S
C579 O580 1.227 . S
O580 C579 1.227 . S
N581 Co567 2.140 . S
N581 C584 1.346 . S
N581 C585 1.345 . S
C582 C583 1.387 . S
C582 C586 1.391 . S
C583 C582 1.387 . S
C583 C584 1.369 . S
C583 H592 0.929 . S
C584 N581 1.346 . S
C584 C583 1.369 . S
C584 H587 0.928 . S
C585 N581 1.345 . S
C585 C586 1.371 . S
C585 H588 0.931 . S
C586 C582 1.391 . S
C586 C585 1.371 . S
C586 H593 0.930 1_545 S
H587 C584 0.928 . S
H588 C585 0.931 . S
H589 C565 0.930 . S
H590 C562 0.930 . S
H591 C571 0.930 . S
H592 C583 0.929 . S
H593 C586 0.930 1_565 S
C594 C595 1.351 . S
C594 N597 1.368 . S
C594 H599 0.931 . S
C595 C594 1.351 . S
C595 N596 1.373 . S
C595 H623 0.930 . S
N596 C595 1.373 . S
N596 C598 1.340 . S
N597 C594 1.368 . S
N597 C598 1.321 . S
N597 Co600 2.135 . S
C598 N596 1.340 . S
C598 N597 1.321 . S
C598 H622 0.930 . S
H599 C594 0.931 . S
Co600 N597 2.135 . S
Co600 N603 2.121 . S
Co600 O608 2.055 . S
Co600 O611 2.039 . S
Co600 N614 2.140 . S
C601 O602 1.227 . S
C601 O611 1.265 . S
O602 C601 1.227 . S
N603 Co600 2.121 . S
N603 C605 1.375 . S
N603 C606 1.313 . S
C604 C605 1.338 . S
C604 N607 1.377 . S
C604 H624 0.930 . S
C605 N603 1.375 . S
C605 C604 1.338 . S
C605 H609 0.931 . S
C606 N603 1.313 . S
C606 N607 1.344 . S
C606 H610 0.931 1_545 S
N607 C604 1.377 . S
N607 C606 1.344 . S
O608 Co600 2.055 . S
O608 C612 1.253 . S
H609 C605 0.931 . S
H610 C606 0.931 1_565 S
O611 Co600 2.039 . S
O611 C601 1.265 . S
C612 O608 1.253 . S
C612 O613 1.227 . S
O613 C612 1.227 . S
N614 Co600 2.140 . S
N614 C617 1.346 . S
N614 C618 1.345 . S
C615 C616 1.387 . S
C615 C619 1.391 . S
C616 C615 1.387 . S
C616 C617 1.369 . S
C616 H625 0.929 . S
C617 N614 1.346 . S
C617 C616 1.369 . S
C617 H620 0.928 . S
C618 N614 1.345 . S
C618 C619 1.371 . S
C618 H621 0.931 . S
C619 C615 1.391 . S
C619 C618 1.371 . S
C619 H626 0.930 1_545 S
H620 C617 0.928 . S
H621 C618 0.931 . S
H622 C598 0.930 . S
H623 C595 0.930 . S
H624 C604 0.930 . S
H625 C616 0.929 . S
H626 C619 0.930 1_565 S
C627 C628 1.351 . S
C627 N630 1.368 . S
C627 H632 0.931 . S
C628 C627 1.351 . S
C628 N629 1.373 . S
C628 H656 0.930 . S
N629 C628 1.373 . S
N629 C631 1.340 . S
N630 C627 1.368 . S
N630 C631 1.321 . S
N630 Co633 2.135 . S
C631 N629 1.340 . S
C631 N630 1.321 . S
C631 H655 0.930 . S
H632 C627 0.931 . S
Co633 N630 2.135 . S
Co633 N636 2.121 . S
Co633 O641 2.055 . S
Co633 O644 2.039 . S
Co633 N647 2.140 . S
C634 O635 1.227 . S
C634 O644 1.265 . S
O635 C634 1.227 . S
N636 Co633 2.121 . S
N636 C638 1.375 . S
N636 C639 1.313 . S
C637 C638 1.338 . S
C637 N640 1.377 . S
C637 H657 0.930 . S
C638 N636 1.375 . S
C638 C637 1.338 . S
C638 H642 0.931 . S
C639 N636 1.313 . S
C639 N640 1.344 . S
C639 H643 0.929 1_655 S
N640 C637 1.377 . S
N640 C639 1.344 . S
O641 Co633 2.055 . S
O641 C645 1.253 . S
H642 C638 0.931 . S
H643 C639 0.929 1_455 S
O644 Co633 2.039 . S
O644 C634 1.265 . S
C645 O641 1.253 . S
C645 O646 1.227 . S
O646 C645 1.227 . S
N647 Co633 2.140 . S
N647 C650 1.346 . S
N647 C651 1.345 . S
C648 C649 1.387 . S
C648 C652 1.391 . S
C649 C648 1.387 . S
C649 C650 1.369 . S
C649 H658 0.929 . S
C650 N647 1.346 . S
C650 C649 1.369 . S
C650 H653 0.928 . S
C651 N647 1.345 . S
C651 C652 1.371 . S
C651 H654 0.931 . S
C652 C648 1.391 . S
C652 C651 1.371 . S
C652 H659 0.930 1_655 S
H653 C650 0.928 . S
H654 C651 0.931 . S
H655 C631 0.930 . S
H656 C628 0.930 . S
H657 C637 0.930 . S
H658 C649 0.929 . S
H659 C652 0.930 1_455 S
C660 C661 1.351 . S
C660 N663 1.368 . S
C660 H665 0.931 . S
C661 C660 1.351 . S
C661 N662 1.373 . S
C661 H689 0.930 . S
N662 C661 1.373 . S
N662 C664 1.340 . S
N663 C660 1.368 . S
N663 C664 1.321 . S
N663 Co666 2.135 . S
C664 N662 1.340 . S
C664 N663 1.321 . S
C664 H688 0.930 . S
H665 C660 0.931 . S
Co666 N663 2.135 . S
Co666 N669 2.121 . S
Co666 O674 2.055 . S
Co666 O677 2.039 . S
Co666 N680 2.140 . S
C667 O668 1.227 . S
C667 O677 1.265 . S
O668 C667 1.227 . S
N669 Co666 2.121 . S
N669 C671 1.375 . S
N669 C672 1.313 . S
C670 C671 1.338 . S
C670 N673 1.377 . S
C670 H690 0.930 . S
C671 N669 1.375 . S
C671 C670 1.338 . S
C671 H675 0.931 . S
C672 N669 1.313 . S
C672 N673 1.344 . S
C672 H676 0.930 . S
N673 C670 1.377 . S
N673 C672 1.344 . S
O674 Co666 2.055 . S
O674 C678 1.253 . S
H675 C671 0.931 . S
H676 C672 0.930 . S
O677 Co666 2.039 . S
O677 C667 1.265 . S
C678 O674 1.253 . S
C678 O679 1.227 . S
O679 C678 1.227 . S
N680 Co666 2.140 . S
N680 C683 1.346 . S
N680 C684 1.345 . S
C681 C682 1.387 . S
C681 C685 1.391 . S
C682 C681 1.387 . S
C682 C683 1.369 . S
C682 H691 0.929 . S
C683 N680 1.346 . S
C683 C682 1.369 . S
C683 H686 0.928 . S
C684 N680 1.345 . S
C684 C685 1.371 . S
C684 H687 0.931 . S
C685 C681 1.391 . S
C685 C684 1.371 . S
C685 H692 0.930 . S
H686 C683 0.928 . S
H687 C684 0.931 . S
H688 C664 0.930 . S
H689 C661 0.930 . S
H690 C670 0.930 . S
H691 C682 0.929 . S
H692 C685 0.930 . S
C693 C694 1.351 . S
C693 N696 1.368 . S
C693 H698 0.931 . S
C694 C693 1.351 . S
C694 N695 1.373 . S
C694 H722 0.930 . S
N695 C694 1.373 . S
N695 C697 1.340 . S
N696 C693 1.368 . S
N696 C697 1.321 . S
N696 Co699 2.135 . S
C697 N695 1.340 . S
C697 N696 1.321 . S
C697 H721 0.930 . S
H698 C693 0.931 . S
Co699 N696 2.135 . S
Co699 N702 2.121 . S
Co699 O707 2.055 . S
Co699 O710 2.039 . S
Co699 N713 2.140 . S
C700 O701 1.227 . S
C700 O710 1.265 . S
O701 C700 1.227 . S
N702 Co699 2.121 . S
N702 C704 1.375 . S
N702 C705 1.313 . S
C703 C704 1.338 . S
C703 N706 1.377 . S
C703 H723 0.930 . S
C704 N702 1.375 . S
C704 C703 1.338 . S
C704 H708 0.931 . S
C705 N702 1.313 . S
C705 N706 1.344 . S
C705 H709 0.930 . S
N706 C703 1.377 . S
N706 C705 1.344 . S
O707 Co699 2.055 . S
O707 C711 1.253 . S
H708 C704 0.931 . S
H709 C705 0.930 . S
O710 Co699 2.039 . S
O710 C700 1.265 . S
C711 O707 1.253 . S
C711 O712 1.227 . S
O712 C711 1.227 . S
N713 Co699 2.140 . S
N713 C716 1.346 . S
N713 C717 1.345 . S
C714 C715 1.387 . S
C714 C718 1.391 . S
C715 C714 1.387 . S
C715 C716 1.369 . S
C715 H724 0.929 . S
C716 N713 1.346 . S
C716 C715 1.369 . S
C716 H719 0.928 . S
C717 N713 1.345 . S
C717 C718 1.371 . S
C717 H720 0.931 . S
C718 C714 1.391 . S
C718 C717 1.371 . S
C718 H725 0.930 . S
H719 C716 0.928 . S
H720 C717 0.931 . S
H721 C697 0.930 . S
H722 C694 0.930 . S
H723 C703 0.930 . S
H724 C715 0.929 . S
H725 C718 0.930 . S
C726 C727 1.351 . S
C726 N729 1.368 . S
C726 H731 0.931 . S
C727 C726 1.351 . S
C727 N728 1.373 . S
C727 H755 0.930 . S
N728 C727 1.373 . S
N728 C730 1.340 . S
N729 C726 1.368 . S
N729 C730 1.321 . S
N729 Co732 2.135 . S
C730 N728 1.340 . S
C730 N729 1.321 . S
C730 H754 0.930 . S
H731 C726 0.931 . S
Co732 N729 2.135 . S
Co732 N735 2.121 . S
Co732 O740 2.055 . S
Co732 O743 2.039 . S
Co732 N746 2.140 . S
C733 O734 1.227 . S
C733 O743 1.265 . S
O734 C733 1.227 . S
N735 Co732 2.121 . S
N735 C737 1.375 . S
N735 C738 1.313 . S
C736 C737 1.338 . S
C736 N739 1.377 . S
C736 H756 0.930 . S
C737 N735 1.375 . S
C737 C736 1.338 . S
C737 H741 0.931 . S
C738 N735 1.313 . S
C738 N739 1.344 . S
C738 H742 0.930 . S
N739 C736 1.377 . S
N739 C738 1.344 . S
O740 Co732 2.055 . S
O740 C744 1.253 . S
H741 C737 0.931 . S
H742 C738 0.930 . S
O743 Co732 2.039 . S
O743 C733 1.265 . S
C744 O740 1.253 . S
C744 O745 1.227 . S
O745 C744 1.227 . S
N746 Co732 2.140 . S
N746 C749 1.346 . S
N746 C750 1.345 . S
C747 C748 1.387 . S
C747 C751 1.391 . S
C748 C747 1.387 . S
C748 C749 1.369 . S
C748 H757 0.929 . S
C749 N746 1.346 . S
C749 C748 1.369 . S
C749 H752 0.928 . S
C750 N746 1.345 . S
C750 C751 1.371 . S
C750 H753 0.931 . S
C751 C747 1.391 . S
C751 C750 1.371 . S
C751 H758 0.930 . S
H752 C749 0.928 . S
H753 C750 0.931 . S
H754 C730 0.930 . S
H755 C727 0.930 . S
H756 C736 0.930 . S
H757 C748 0.929 . S
H758 C751 0.930 . S
C759 C760 1.351 . S
C759 N762 1.368 . S
C759 H764 0.931 . S
C760 C759 1.351 . S
C760 N761 1.373 . S
C760 H788 0.930 . S
N761 C760 1.373 . S
N761 C763 1.340 . S
N762 C759 1.368 . S
N762 C763 1.321 . S
N762 Co765 2.135 . S
C763 N761 1.340 . S
C763 N762 1.321 . S
C763 H787 0.930 . S
H764 C759 0.931 . S
Co765 N762 2.135 . S
Co765 N768 2.121 . S
Co765 O773 2.055 . S
Co765 O776 2.039 . S
Co765 N779 2.140 . S
C766 O767 1.227 . S
C766 O776 1.265 . S
O767 C766 1.227 . S
N768 Co765 2.121 . S
N768 C770 1.375 . S
N768 C771 1.313 . S
C769 C770 1.338 . S
C769 N772 1.377 . S
C769 H789 0.930 . S
C770 N768 1.375 . S
C770 C769 1.338 . S
C770 H774 0.931 . S
C771 N768 1.313 . S
C771 N772 1.344 . S
C771 H775 0.930 . S
N772 C769 1.377 . S
N772 C771 1.344 . S
O773 Co765 2.055 . S
O773 C777 1.253 . S
H774 C770 0.931 . S
H775 C771 0.930 . S
O776 Co765 2.039 . S
O776 C766 1.265 . S
C777 O773 1.253 . S
C777 O778 1.227 . S
O778 C777 1.227 . S
N779 Co765 2.140 . S
N779 C782 1.346 . S
N779 C783 1.345 . S
C780 C781 1.387 . S
C780 C784 1.391 . S
C781 C780 1.387 . S
C781 C782 1.369 . S
C781 H790 0.929 . S
C782 N779 1.346 . S
C782 C781 1.369 . S
C782 H785 0.928 . S
C783 N779 1.345 . S
C783 C784 1.371 . S
C783 H786 0.931 . S
C784 C780 1.391 . S
C784 C783 1.371 . S
C784 H791 0.930 . S
H785 C782 0.928 . S
H786 C783 0.931 . S
H787 C763 0.930 . S
H788 C760 0.930 . S
H789 C769 0.930 . S
H790 C781 0.929 . S
H791 C784 0.930 . S
C792 C793 1.351 . S
C792 N795 1.368 . S
C792 H797 0.931 . S
C793 C792 1.351 . S
C793 N794 1.373 . S
C793 H821 0.930 . S
N794 C793 1.373 . S
N794 C796 1.340 . S
N795 C792 1.368 . S
N795 C796 1.321 . S
N795 Co798 2.135 . S
C796 N794 1.340 . S
C796 N795 1.321 . S
C796 H820 0.930 . S
H797 C792 0.931 . S
Co798 N795 2.135 . S
Co798 N801 2.121 . S
Co798 O806 2.055 . S
Co798 O809 2.039 . S
Co798 N812 2.140 . S
C799 O800 1.227 . S
C799 O809 1.265 . S
O800 C799 1.227 . S
N801 Co798 2.121 . S
N801 C803 1.375 . S
N801 C804 1.313 . S
C802 C803 1.338 . S
C802 N805 1.377 . S
C802 H822 0.930 . S
C803 N801 1.375 . S
C803 C802 1.338 . S
C803 H807 0.931 . S
C804 N801 1.313 . S
C804 N805 1.344 . S
C804 H808 0.931 1_565 S
N805 C802 1.377 . S
N805 C804 1.344 . S
O806 Co798 2.055 . S
O806 C810 1.253 . S
H807 C803 0.931 . S
H808 C804 0.931 1_545 S
O809 Co798 2.039 . S
O809 C799 1.265 . S
C810 O806 1.253 . S
C810 O811 1.227 . S
O811 C810 1.227 . S
N812 Co798 2.140 . S
N812 C815 1.346 . S
N812 C816 1.345 . S
C813 C814 1.387 . S
C813 C817 1.391 . S
C814 C813 1.387 . S
C814 C815 1.369 . S
C814 H823 0.929 . S
C815 N812 1.346 . S
C815 C814 1.369 . S
C815 H818 0.928 . S
C816 N812 1.345 . S
C816 C817 1.371 . S
C816 H819 0.931 . S
C817 C813 1.391 . S
C817 C816 1.371 . S
C817 H824 0.930 1_565 S
H818 C815 0.928 . S
H819 C816 0.931 . S
H820 C796 0.930 . S
H821 C793 0.930 . S
H822 C802 0.930 . S
H823 C814 0.929 . S
H824 C817 0.930 1_545 S
C825 C826 1.351 . S
C825 N828 1.368 . S
C825 H830 0.931 . S
C826 C825 1.351 . S
C826 N827 1.373 . S
C826 H854 0.930 . S
N827 C826 1.373 . S
N827 C829 1.340 . S
N828 C825 1.368 . S
N828 C829 1.321 . S
N828 Co831 2.135 . S
C829 N827 1.340 . S
C829 N828 1.321 . S
C829 H853 0.930 . S
H830 C825 0.931 . S
Co831 N828 2.135 . S
Co831 N834 2.121 . S
Co831 O839 2.055 . S
Co831 O842 2.039 . S
Co831 N845 2.140 . S
C832 O833 1.227 . S
C832 O842 1.265 . S
O833 C832 1.227 . S
N834 Co831 2.121 . S
N834 C836 1.375 . S
N834 C837 1.313 . S
C835 C836 1.338 . S
C835 N838 1.377 . S
C835 H855 0.930 . S
C836 N834 1.375 . S
C836 C835 1.338 . S
C836 H840 0.931 . S
C837 N834 1.313 . S
C837 N838 1.344 . S
C837 H841 0.929 1_455 S
N838 C835 1.377 . S
N838 C837 1.344 . S
O839 Co831 2.055 . S
O839 C843 1.253 . S
H840 C836 0.931 . S
H841 C837 0.929 1_655 S
O842 Co831 2.039 . S
O842 C832 1.265 . S
C843 O839 1.253 . S
C843 O844 1.227 . S
O844 C843 1.227 . S
N845 Co831 2.140 . S
N845 C848 1.346 . S
N845 C849 1.345 . S
C846 C847 1.387 . S
C846 C850 1.391 . S
C847 C846 1.387 . S
C847 C848 1.369 . S
C847 H856 0.929 . S
C848 N845 1.346 . S
C848 C847 1.369 . S
C848 H851 0.928 . S
C849 N845 1.345 . S
C849 C850 1.371 . S
C849 H852 0.931 . S
C850 C846 1.391 . S
C850 C849 1.371 . S
C850 H857 0.930 1_455 S
H851 C848 0.928 . S
H852 C849 0.931 . S
H853 C829 0.930 . S
H854 C826 0.930 . S
H855 C835 0.930 . S
H856 C847 0.929 . S
H857 C850 0.930 1_655 S
C858 C859 1.351 . S
C858 N861 1.368 . S
C858 H863 0.931 . S
C859 C858 1.351 . S
C859 N860 1.373 . S
C859 H887 0.930 . S
N860 C859 1.373 . S
N860 C862 1.340 . S
N861 C858 1.368 . S
N861 C862 1.321 . S
N861 Co864 2.135 . S
C862 N860 1.340 . S
C862 N861 1.321 . S
C862 H886 0.930 . S
H863 C858 0.931 . S
Co864 N861 2.135 . S
Co864 N867 2.121 . S
Co864 O872 2.055 . S
Co864 O875 2.039 . S
Co864 N878 2.140 . S
C865 O866 1.227 . S
C865 O875 1.265 . S
O866 C865 1.227 . S
N867 Co864 2.121 . S
N867 C869 1.375 . S
N867 C870 1.313 . S
C868 C869 1.338 . S
C868 N871 1.377 . S
C868 H888 0.930 . S
C869 N867 1.375 . S
C869 C868 1.338 . S
C869 H873 0.931 . S
C870 N867 1.313 . S
C870 N871 1.344 . S
C870 H874 0.930 . S
N871 C868 1.377 . S
N871 C870 1.344 . S
O872 Co864 2.055 . S
O872 C876 1.253 . S
H873 C869 0.931 . S
H874 C870 0.930 . S
O875 Co864 2.039 . S
O875 C865 1.265 . S
C876 O872 1.253 . S
C876 O877 1.227 . S
O877 C876 1.227 . S
N878 Co864 2.140 . S
N878 C881 1.346 . S
N878 C882 1.345 . S
C879 C880 1.387 . S
C879 C883 1.391 . S
C880 C879 1.387 . S
C880 C881 1.369 . S
C880 H889 0.929 . S
C881 N878 1.346 . S
C881 C880 1.369 . S
C881 H884 0.928 . S
C882 N878 1.345 . S
C882 C883 1.371 . S
C882 H885 0.931 . S
C883 C879 1.391 . S
C883 C882 1.371 . S
C883 H890 0.930 . S
H884 C881 0.928 . S
H885 C882 0.931 . S
H886 C862 0.930 . S
H887 C859 0.930 . S
H888 C868 0.930 . S
H889 C880 0.929 . S
H890 C883 0.930 . S
C891 C892 1.351 . S
C891 N894 1.368 . S
C891 H896 0.931 . S
C892 C891 1.351 . S
C892 N893 1.373 . S
C892 H920 0.930 . S
N893 C892 1.373 . S
N893 C895 1.340 . S
N894 C891 1.368 . S
N894 C895 1.321 . S
N894 Co897 2.135 . S
C895 N893 1.340 . S
C895 N894 1.321 . S
C895 H919 0.930 . S
H896 C891 0.931 . S
Co897 N894 2.135 . S
Co897 N900 2.121 . S
Co897 O905 2.055 . S
Co897 O908 2.039 . S
Co897 N911 2.140 . S
C898 O899 1.227 . S
C898 O908 1.265 . S
O899 C898 1.227 . S
N900 Co897 2.121 . S
N900 C902 1.375 . S
N900 C903 1.313 . S
C901 C902 1.338 . S
C901 N904 1.377 . S
C901 H921 0.930 . S
C902 N900 1.375 . S
C902 C901 1.338 . S
C902 H906 0.931 . S
C903 N900 1.313 . S
C903 N904 1.344 . S
C903 H907 0.930 . S
N904 C901 1.377 . S
N904 C903 1.344 . S
O905 Co897 2.055 . S
O905 C909 1.253 . S
H906 C902 0.931 . S
H907 C903 0.930 . S
O908 Co897 2.039 . S
O908 C898 1.265 . S
C909 O905 1.253 . S
C909 O910 1.227 . S
O910 C909 1.227 . S
N911 Co897 2.140 . S
N911 C914 1.346 . S
N911 C915 1.345 . S
C912 C913 1.387 . S
C912 C916 1.391 . S
C913 C912 1.387 . S
C913 C914 1.369 . S
C913 H922 0.929 . S
C914 N911 1.346 . S
C914 C913 1.369 . S
C914 H917 0.928 . S
C915 N911 1.345 . S
C915 C916 1.371 . S
C915 H918 0.931 . S
C916 C912 1.391 . S
C916 C915 1.371 . S
C916 H923 0.930 . S
H917 C914 0.928 . S
H918 C915 0.931 . S
H919 C895 0.930 . S
H920 C892 0.930 . S
H921 C901 0.930 . S
H922 C913 0.929 . S
H923 C916 0.930 . S
C924 C925 1.351 . S
C924 N927 1.368 . S
C924 H929 0.931 . S
C925 C924 1.351 . S
C925 N926 1.373 . S
C925 H953 0.930 . S
N926 C925 1.373 . S
N926 C928 1.340 . S
N927 C924 1.368 . S
N927 C928 1.321 . S
N927 Co930 2.135 . S
C928 N926 1.340 . S
C928 N927 1.321 . S
C928 H952 0.930 . S
H929 C924 0.931 . S
Co930 N927 2.135 . S
Co930 N933 2.121 . S
Co930 O938 2.055 . S
Co930 O941 2.039 . S
Co930 N944 2.140 . S
C931 O932 1.227 . S
C931 O941 1.265 . S
O932 C931 1.227 . S
N933 Co930 2.121 . S
N933 C935 1.375 . S
N933 C936 1.313 . S
C934 C935 1.338 . S
C934 N937 1.377 . S
C934 H954 0.930 . S
C935 N933 1.375 . S
C935 C934 1.338 . S
C935 H939 0.931 . S
C936 N933 1.313 . S
C936 N937 1.344 . S
C936 H940 0.930 . S
N937 C934 1.377 . S
N937 C936 1.344 . S
O938 Co930 2.055 . S
O938 C942 1.253 . S
H939 C935 0.931 . S
H940 C936 0.930 . S
O941 Co930 2.039 . S
O941 C931 1.265 . S
C942 O938 1.253 . S
C942 O943 1.227 . S
O943 C942 1.227 . S
N944 Co930 2.140 . S
N944 C947 1.346 . S
N944 C948 1.345 . S
C945 C946 1.387 . S
C945 C949 1.391 . S
C946 C945 1.387 . S
C946 C947 1.369 . S
C946 H955 0.929 . S
C947 N944 1.346 . S
C947 C946 1.369 . S
C947 H950 0.928 . S
C948 N944 1.345 . S
C948 C949 1.371 . S
C948 H951 0.931 . S
C949 C945 1.391 . S
C949 C948 1.371 . S
C949 H956 0.930 . S
H950 C947 0.928 . S
H951 C948 0.931 . S
H952 C928 0.930 . S
H953 C925 0.930 . S
H954 C934 0.930 . S
H955 C946 0.929 . S
H956 C949 0.930 . S
C957 C958 1.351 . S
C957 N960 1.368 . S
C957 H962 0.931 . S
C958 C957 1.351 . S
C958 N959 1.373 . S
C958 H986 0.930 . S
N959 C958 1.373 . S
N959 C961 1.340 . S
N960 C957 1.368 . S
N960 C961 1.321 . S
N960 Co963 2.135 . S
C961 N959 1.340 . S
C961 N960 1.321 . S
C961 H985 0.930 . S
H962 C957 0.931 . S
Co963 N960 2.135 . S
Co963 N966 2.121 . S
Co963 O971 2.055 . S
Co963 O974 2.039 . S
Co963 N977 2.140 . S
C964 O965 1.227 . S
C964 O974 1.265 . S
O965 C964 1.227 . S
N966 Co963 2.121 . S
N966 C968 1.375 . S
N966 C969 1.313 . S
C967 C968 1.338 . S
C967 N970 1.377 . S
C967 H987 0.930 . S
C968 N966 1.375 . S
C968 C967 1.338 . S
C968 H972 0.931 . S
C969 N966 1.313 . S
C969 N970 1.344 . S
C969 H973 0.930 . S
N970 C967 1.377 . S
N970 C969 1.344 . S
O971 Co963 2.055 . S
O971 C975 1.253 . S
H972 C968 0.931 . S
H973 C969 0.930 . S
O974 Co963 2.039 . S
O974 C964 1.265 . S
C975 O971 1.253 . S
C975 O976 1.227 . S
O976 C975 1.227 . S
N977 Co963 2.140 . S
N977 C980 1.346 . S
N977 C981 1.345 . S
C978 C979 1.387 . S
C978 C982 1.391 . S
C979 C978 1.387 . S
C979 C980 1.369 . S
C979 H988 0.929 . S
C980 N977 1.346 . S
C980 C979 1.369 . S
C980 H983 0.928 . S
C981 N977 1.345 . S
C981 C982 1.371 . S
C981 H984 0.931 . S
C982 C978 1.391 . S
C982 C981 1.371 . S
C982 H989 0.930 . S
H983 C980 0.928 . S
H984 C981 0.931 . S
H985 C961 0.930 . S
H986 C958 0.930 . S
H987 C967 0.930 . S
H988 C979 0.929 . S
H989 C982 0.930 . S
C990 C991 1.351 . S
C990 N993 1.368 . S
C990 H995 0.931 . S
C991 C990 1.351 . S
C991 N992 1.373 . S
C991 H1019 0.930 . S
N992 C991 1.373 . S
N992 C994 1.340 . S
N993 C990 1.368 . S
N993 C994 1.321 . S
N993 Co996 2.135 . S
C994 N992 1.340 . S
C994 N993 1.321 . S
C994 H1018 0.930 . S
H995 C990 0.931 . S
Co996 N993 2.135 . S
Co996 N999 2.121 . S
Co996 O1004 2.055 . S
Co996 O1007 2.039 . S
Co996 N1010 2.140 . S
C997 O998 1.227 . S
C997 O1007 1.265 . S
O998 C997 1.227 . S
N999 Co996 2.121 . S
N999 C1001 1.375 . S
N999 C1002 1.313 . S
C1000 C1001 1.338 . S
C1000 N1003 1.377 . S
C1000 H1020 0.930 . S
C1001 N999 1.375 . S
C1001 C1000 1.338 . S
C1001 H1005 0.931 . S
C1002 N999 1.313 . S
C1002 N1003 1.344 . S
C1002 H1006 0.930 . S
N1003 C1000 1.377 . S
N1003 C1002 1.344 . S
O1004 Co996 2.055 . S
O1004 C1008 1.253 . S
H1005 C1001 0.931 . S
H1006 C1002 0.930 . S
O1007 Co996 2.039 . S
O1007 C997 1.265 . S
C1008 O1004 1.253 . S
C1008 O1009 1.227 . S
O1009 C1008 1.227 . S
N1010 Co996 2.140 . S
N1010 C1013 1.346 . S
N1010 C1014 1.345 . S
C1011 C1012 1.387 . S
C1011 C1015 1.391 . S
C1012 C1011 1.387 . S
C1012 C1013 1.369 . S
C1012 H1021 0.929 . S
C1013 N1010 1.346 . S
C1013 C1012 1.369 . S
C1013 H1016 0.928 . S
C1014 N1010 1.345 . S
C1014 C1015 1.371 . S
C1014 H1017 0.931 . S
C1015 C1011 1.391 . S
C1015 C1014 1.371 . S
C1015 H1022 0.930 . S
H1016 C1013 0.928 . S
H1017 C1014 0.931 . S
H1018 C994 0.930 . S
H1019 C991 0.930 . S
H1020 C1000 0.930 . S
H1021 C1012 0.929 . S
H1022 C1015 0.930 . S
C1023 C1024 1.351 . S
C1023 N1026 1.368 . S
C1023 H1028 0.931 . S
C1024 C1023 1.351 . S
C1024 N1025 1.373 . S
C1024 H1052 0.930 . S
N1025 C1024 1.373 . S
N1025 C1027 1.340 . S
N1026 C1023 1.368 . S
N1026 C1027 1.321 . S
N1026 Co1029 2.135 . S
C1027 N1025 1.340 . S
C1027 N1026 1.321 . S
C1027 H1051 0.930 . S
H1028 C1023 0.931 . S
Co1029 N1026 2.135 . S
Co1029 N1032 2.121 . S
Co1029 O1037 2.055 . S
Co1029 O1040 2.039 . S
Co1029 N1043 2.140 . S
C1030 O1031 1.227 . S
C1030 O1040 1.265 . S
O1031 C1030 1.227 . S
N1032 Co1029 2.121 . S
N1032 C1034 1.375 . S
N1032 C1035 1.313 . S
C1033 C1034 1.338 . S
C1033 N1036 1.377 . S
C1033 H1053 0.930 . S
C1034 N1032 1.375 . S
C1034 C1033 1.338 . S
C1034 H1038 0.931 . S
C1035 N1032 1.313 . S
C1035 N1036 1.344 . S
C1035 H1039 0.930 . S
N1036 C1033 1.377 . S
N1036 C1035 1.344 . S
O1037 Co1029 2.055 . S
O1037 C1041 1.253 . S
H1038 C1034 0.931 . S
H1039 C1035 0.930 . S
O1040 Co1029 2.039 . S
O1040 C1030 1.265 . S
C1041 O1037 1.253 . S
C1041 O1042 1.227 . S
O1042 C1041 1.227 . S
N1043 Co1029 2.140 . S
N1043 C1046 1.346 . S
N1043 C1047 1.345 . S
C1044 C1045 1.387 . S
C1044 C1048 1.391 . S
C1045 C1044 1.387 . S
C1045 C1046 1.369 . S
C1045 H1054 0.929 . S
C1046 N1043 1.346 . S
C1046 C1045 1.369 . S
C1046 H1049 0.928 . S
C1047 N1043 1.345 . S
C1047 C1048 1.371 . S
C1047 H1050 0.931 . S
C1048 C1044 1.391 . S
C1048 C1047 1.371 . S
C1048 H1055 0.930 . S
H1049 C1046 0.928 . S
H1050 C1047 0.931 . S
H1051 C1027 0.930 . S
H1052 C1024 0.930 . S
H1053 C1033 0.930 . S
H1054 C1045 0.929 . S
H1055 C1048 0.930 . S
C1056 C1057 1.351 . S
C1056 N1059 1.368 . S
C1056 H1061 0.931 . S
C1057 C1056 1.351 . S
C1057 N1058 1.373 . S
C1057 H1085 0.930 . S
N1058 C1057 1.373 . S
N1058 C1060 1.340 . S
N1059 C1056 1.368 . S
N1059 C1060 1.321 . S
N1059 Co1062 2.135 . S
C1060 N1058 1.340 . S
C1060 N1059 1.321 . S
C1060 H1084 0.930 . S
H1061 C1056 0.931 . S
Co1062 N1059 2.135 . S
Co1062 N1065 2.121 . S
Co1062 O1070 2.055 . S
Co1062 O1073 2.039 . S
Co1062 N1076 2.140 . S
C1063 O1064 1.227 . S
C1063 O1073 1.265 . S
O1064 C1063 1.227 . S
N1065 Co1062 2.121 . S
N1065 C1067 1.375 . S
N1065 C1068 1.313 . S
C1066 C1067 1.338 . S
C1066 N1069 1.377 . S
C1066 H1086 0.930 . S
C1067 N1065 1.375 . S
C1067 C1066 1.338 . S
C1067 H1071 0.931 . S
C1068 N1065 1.313 . S
C1068 N1069 1.344 . S
C1068 H1072 0.930 . S
N1069 C1066 1.377 . S
N1069 C1068 1.344 . S
O1070 Co1062 2.055 . S
O1070 C1074 1.253 . S
H1071 C1067 0.931 . S
H1072 C1068 0.930 . S
O1073 Co1062 2.039 . S
O1073 C1063 1.265 . S
C1074 O1070 1.253 . S
C1074 O1075 1.227 . S
O1075 C1074 1.227 . S
N1076 Co1062 2.140 . S
N1076 C1079 1.346 . S
N1076 C1080 1.345 . S
C1077 C1078 1.387 . S
C1077 C1081 1.391 . S
C1078 C1077 1.387 . S
C1078 C1079 1.369 . S
C1078 H1087 0.929 . S
C1079 N1076 1.346 . S
C1079 C1078 1.369 . S
C1079 H1082 0.928 . S
C1080 N1076 1.345 . S
C1080 C1081 1.371 . S
C1080 H1083 0.931 . S
C1081 C1077 1.391 . S
C1081 C1080 1.371 . S
C1081 H1088 0.930 . S
H1082 C1079 0.928 . S
H1083 C1080 0.931 . S
H1084 C1060 0.930 . S
H1085 C1057 0.930 . S
H1086 C1066 0.930 . S
H1087 C1078 0.929 . S
H1088 C1081 0.930 . S
C1089 C1090 1.351 . S
C1089 N1092 1.368 . S
C1089 H1094 0.931 . S
C1090 C1089 1.351 . S
C1090 N1091 1.373 . S
C1090 H1118 0.930 . S
N1091 C1090 1.373 . S
N1091 C1093 1.340 . S
N1092 C1089 1.368 . S
N1092 C1093 1.321 . S
N1092 Co1095 2.135 . S
C1093 N1091 1.340 . S
C1093 N1092 1.321 . S
C1093 H1117 0.930 . S
H1094 C1089 0.931 . S
Co1095 N1092 2.135 . S
Co1095 N1098 2.121 . S
Co1095 O1103 2.055 . S
Co1095 O1106 2.039 . S
Co1095 N1109 2.140 . S
C1096 O1097 1.227 . S
C1096 O1106 1.265 . S
O1097 C1096 1.227 . S
N1098 Co1095 2.121 . S
N1098 C1100 1.375 . S
N1098 C1101 1.313 . S
C1099 C1100 1.338 . S
C1099 N1102 1.377 . S
C1099 H1119 0.930 . S
C1100 N1098 1.375 . S
C1100 C1099 1.338 . S
C1100 H1104 0.931 . S
C1101 N1098 1.313 . S
C1101 N1102 1.344 . S
C1101 H1105 0.931 1_455 S
N1102 C1099 1.377 . S
N1102 C1101 1.344 . S
O1103 Co1095 2.055 . S
O1103 C1107 1.253 . S
H1104 C1100 0.931 . S
H1105 C1101 0.931 1_655 S
O1106 Co1095 2.039 . S
O1106 C1096 1.265 . S
C1107 O1103 1.253 . S
C1107 O1108 1.227 . S
O1108 C1107 1.227 . S
N1109 Co1095 2.140 . S
N1109 C1112 1.346 . S
N1109 C1113 1.345 . S
C1110 C1111 1.387 . S
C1110 C1114 1.391 . S
C1111 C1110 1.387 . S
C1111 C1112 1.369 . S
C1111 H1120 0.929 . S
C1112 N1109 1.346 . S
C1112 C1111 1.369 . S
C1112 H1115 0.928 . S
C1113 N1109 1.345 . S
C1113 C1114 1.371 . S
C1113 H1116 0.931 . S
C1114 C1110 1.391 . S
C1114 C1113 1.371 . S
C1114 H1121 0.930 1_455 S
H1115 C1112 0.928 . S
H1116 C1113 0.931 . S
H1117 C1093 0.930 . S
H1118 C1090 0.930 . S
H1119 C1099 0.930 . S
H1120 C1111 0.929 . S
H1121 C1114 0.930 1_655 S
C1122 C1123 1.351 . S
C1122 N1125 1.368 . S
C1122 H1127 0.931 . S
C1123 C1122 1.351 . S
C1123 N1124 1.373 . S
C1123 H1151 0.930 . S
N1124 C1123 1.373 . S
N1124 C1126 1.340 . S
N1125 C1122 1.368 . S
N1125 C1126 1.321 . S
N1125 Co1128 2.135 . S
C1126 N1124 1.340 . S
C1126 N1125 1.321 . S
C1126 H1150 0.930 . S
H1127 C1122 0.931 . S
Co1128 N1125 2.135 . S
Co1128 N1131 2.121 . S
Co1128 O1136 2.055 . S
Co1128 O1139 2.039 . S
Co1128 N1142 2.140 . S
C1129 O1130 1.227 . S
C1129 O1139 1.265 . S
O1130 C1129 1.227 . S
N1131 Co1128 2.121 . S
N1131 C1133 1.375 . S
N1131 C1134 1.313 . S
C1132 C1133 1.338 . S
C1132 N1135 1.377 . S
C1132 H1152 0.930 . S
C1133 N1131 1.375 . S
C1133 C1132 1.338 . S
C1133 H1137 0.931 . S
C1134 N1131 1.313 . S
C1134 N1135 1.344 . S
C1134 H1138 0.930 . S
N1135 C1132 1.377 . S
N1135 C1134 1.344 . S
O1136 Co1128 2.055 . S
O1136 C1140 1.253 . S
H1137 C1133 0.931 . S
H1138 C1134 0.930 . S
O1139 Co1128 2.039 . S
O1139 C1129 1.265 . S
C1140 O1136 1.253 . S
C1140 O1141 1.227 . S
O1141 C1140 1.227 . S
N1142 Co1128 2.140 . S
N1142 C1145 1.346 . S
N1142 C1146 1.345 . S
C1143 C1144 1.387 . S
C1143 C1147 1.391 . S
C1144 C1143 1.387 . S
C1144 C1145 1.369 . S
C1144 H1153 0.929 . S
C1145 N1142 1.346 . S
C1145 C1144 1.369 . S
C1145 H1148 0.928 . S
C1146 N1142 1.345 . S
C1146 C1147 1.371 . S
C1146 H1149 0.931 . S
C1147 C1143 1.391 . S
C1147 C1146 1.371 . S
C1147 H1154 0.930 . S
H1148 C1145 0.928 . S
H1149 C1146 0.931 . S
H1150 C1126 0.930 . S
H1151 C1123 0.930 . S
H1152 C1132 0.930 . S
H1153 C1144 0.929 . S
H1154 C1147 0.930 . S
C1155 C1156 1.351 . S
C1155 N1158 1.368 . S
C1155 H1160 0.931 . S
C1156 C1155 1.351 . S
C1156 N1157 1.373 . S
C1156 H1184 0.930 . S
N1157 C1156 1.373 . S
N1157 C1159 1.340 . S
N1158 C1155 1.368 . S
N1158 C1159 1.321 . S
N1158 Co1161 2.135 . S
C1159 N1157 1.340 . S
C1159 N1158 1.321 . S
C1159 H1183 0.930 . S
H1160 C1155 0.931 . S
Co1161 N1158 2.135 . S
Co1161 N1164 2.121 . S
Co1161 O1169 2.055 . S
Co1161 O1172 2.039 . S
Co1161 N1175 2.140 . S
C1162 O1163 1.227 . S
C1162 O1172 1.265 . S
O1163 C1162 1.227 . S
N1164 Co1161 2.121 . S
N1164 C1166 1.375 . S
N1164 C1167 1.313 . S
C1165 C1166 1.338 . S
C1165 N1168 1.377 . S
C1165 H1185 0.930 . S
C1166 N1164 1.375 . S
C1166 C1165 1.338 . S
C1166 H1170 0.931 . S
C1167 N1164 1.313 . S
C1167 N1168 1.344 . S
C1167 H1171 0.929 1_565 S
N1168 C1165 1.377 . S
N1168 C1167 1.344 . S
O1169 Co1161 2.055 . S
O1169 C1173 1.253 . S
H1170 C1166 0.931 . S
H1171 C1167 0.929 1_545 S
O1172 Co1161 2.039 . S
O1172 C1162 1.265 . S
C1173 O1169 1.253 . S
C1173 O1174 1.227 . S
O1174 C1173 1.227 . S
N1175 Co1161 2.140 . S
N1175 C1178 1.346 . S
N1175 C1179 1.345 . S
C1176 C1177 1.387 . S
C1176 C1180 1.391 . S
C1177 C1176 1.387 . S
C1177 C1178 1.369 . S
C1177 H1186 0.929 . S
C1178 N1175 1.346 . S
C1178 C1177 1.369 . S
C1178 H1181 0.928 . S
C1179 N1175 1.345 . S
C1179 C1180 1.371 . S
C1179 H1182 0.931 . S
C1180 C1176 1.391 . S
C1180 C1179 1.371 . S
C1180 H1187 0.930 1_565 S
H1181 C1178 0.928 . S
H1182 C1179 0.931 . S
H1183 C1159 0.930 . S
H1184 C1156 0.930 . S
H1185 C1165 0.930 . S
H1186 C1177 0.929 . S
H1187 C1180 0.930 1_545 S
H1188 C1194 0.930 . S
H1189 C1198 0.930 . S
H1190 C1203 0.929 . S
H1191 C1201 0.929 1_565 S
H1192 C1196 0.929 . S
H1193 C1202 0.929 . S
C1194 H1188 0.930 . S
C1194 C1195 1.367 . S
C1194 C1202 1.378 . S
C1195 C1194 1.367 . S
C1195 C1203 1.433 . S
C1196 H1192 0.929 . S
C1196 C1198 1.378 . S
C1196 C1200 1.350 . S
C1197 C1200 1.463 . S
C1197 C1202 1.350 . S
C1197 N1205 1.427 . S
C1198 H1189 0.930 . S
C1198 C1196 1.378 . S
C1198 C1199 1.367 . S
C1199 C1198 1.367 . S
C1199 C1201 1.433 . S
C1200 C1196 1.350 . S
C1200 C1197 1.463 . S
C1200 N1204 1.427 . S
C1201 H1191 0.929 1_545 S
C1201 C1199 1.433 . S
C1201 N1204 1.384 . S
C1202 H1193 0.929 . S
C1202 C1194 1.378 . S
C1202 C1197 1.350 . S
C1203 H1190 0.929 . S
C1203 C1195 1.433 . S
C1203 N1205 1.384 . S
N1204 C1200 1.427 . S
N1204 C1201 1.384 . S
N1205 C1197 1.427 . S
N1205 C1203 1.384 . S
H1206 C1212 0.930 1_455 S
H1207 C1216 0.930 . S
H1208 C1221 0.929 . S
H1209 C1219 0.929 . S
H1210 C1214 0.929 . S
H1211 C1220 0.929 . S
C1212 H1206 0.930 1_655 S
C1212 C1213 1.367 . S
C1212 C1220 1.378 . S
C1213 C1212 1.367 . S
C1213 C1221 1.433 . S
C1214 H1210 0.929 . S
C1214 C1216 1.378 1_545 S
C1214 C1218 1.350 . S
C1215 C1218 1.463 . S
C1215 C1220 1.350 . S
C1215 N1223 1.427 . S
C1216 H1207 0.930 . S
C1216 C1214 1.378 1_565 S
C1216 C1217 1.367 . S
C1217 C1216 1.367 . S
C1217 C1219 1.433 . S
C1218 C1214 1.350 . S
C1218 C1215 1.463 . S
C1218 N1222 1.427 . S
C1219 H1209 0.929 . S
C1219 C1217 1.433 . S
C1219 N1222 1.384 1_565 S
C1220 H1211 0.929 . S
C1220 C1212 1.378 . S
C1220 C1215 1.350 . S
C1221 H1208 0.929 . S
C1221 C1213 1.433 . S
C1221 N1223 1.384 . S
N1222 C1218 1.427 . S
N1222 C1219 1.384 1_545 S
N1223 C1215 1.427 . S
N1223 C1221 1.384 . S
H1224 C1230 0.930 . S
H1225 C1234 0.930 . S
H1226 C1239 0.929 . S
H1227 C1237 0.929 . S
H1228 C1232 0.929 . S
H1229 C1238 0.929 . S
C1230 H1224 0.930 . S
C1230 C1231 1.367 . S
C1230 C1238 1.378 . S
C1231 C1230 1.367 . S
C1231 C1239 1.433 . S
C1232 H1228 0.929 . S
C1232 C1234 1.378 1_655 S
C1232 C1236 1.350 . S
C1233 C1236 1.463 . S
C1233 C1238 1.350 . S
C1233 N1241 1.427 . S
C1234 H1225 0.930 . S
C1234 C1232 1.378 1_455 S
C1234 C1235 1.367 . S
C1235 C1234 1.367 . S
C1235 C1237 1.433 . S
C1236 C1232 1.350 . S
C1236 C1233 1.463 . S
C1236 N1240 1.427 . S
C1237 H1227 0.929 . S
C1237 C1235 1.433 . S
C1237 N1240 1.384 1_455 S
C1238 H1229 0.929 . S
C1238 C1230 1.378 . S
C1238 C1233 1.350 . S
C1239 H1226 0.929 . S
C1239 C1231 1.433 . S
C1239 N1241 1.384 . S
N1240 C1236 1.427 . S
N1240 C1237 1.384 1_655 S
N1241 C1233 1.427 . S
N1241 C1239 1.384 . S
H1242 C1248 0.930 . S
H1243 C1252 0.930 . S
H1244 C1257 0.929 1_655 S
H1245 C1255 0.929 . S
H1246 C1250 0.929 . S
H1247 C1256 0.929 . S
C1248 H1242 0.930 . S
C1248 C1249 1.367 . S
C1248 C1256 1.378 . S
C1249 C1248 1.367 . S
C1249 C1257 1.433 . S
C1250 H1246 0.929 . S
C1250 C1252 1.378 . S
C1250 C1254 1.350 . S
C1251 C1254 1.463 . S
C1251 C1256 1.350 . S
C1251 N1259 1.427 . S
C1252 H1243 0.930 . S
C1252 C1250 1.378 . S
C1252 C1253 1.367 . S
C1253 C1252 1.367 . S
C1253 C1255 1.433 . S
C1254 C1250 1.350 . S
C1254 C1251 1.463 . S
C1254 N1258 1.427 . S
C1255 H1245 0.929 . S
C1255 C1253 1.433 . S
C1255 N1258 1.384 . S
C1256 H1247 0.929 . S
C1256 C1248 1.378 . S
C1256 C1251 1.350 . S
C1257 H1244 0.929 1_455 S
C1257 C1249 1.433 . S
C1257 N1259 1.384 . S
N1258 C1254 1.427 . S
N1258 C1255 1.384 . S
N1259 C1251 1.427 . S
N1259 C1257 1.384 . S
H1260 C1266 0.930 . S
H1261 C1270 0.930 . S
H1262 C1275 0.929 . S
H1263 C1273 0.929 . S
H1264 C1268 0.929 . S
H1265 C1274 0.929 . S
C1266 H1260 0.930 . S
C1266 C1267 1.367 . S
C1266 C1274 1.378 . S
C1267 C1266 1.367 . S
C1267 C1275 1.433 . S
C1268 H1264 0.929 . S
C1268 C1270 1.378 1_565 S
C1268 C1272 1.350 . S
C1269 C1272 1.463 . S
C1269 C1274 1.350 . S
C1269 N1277 1.427 . S
C1270 H1261 0.930 . S
C1270 C1268 1.378 1_545 S
C1270 C1271 1.367 . S
C1271 C1270 1.367 . S
C1271 C1273 1.433 1_545 S
C1272 C1268 1.350 . S
C1272 C1269 1.463 . S
C1272 N1276 1.427 . S
C1273 H1263 0.929 . S
C1273 C1271 1.433 1_565 S
C1273 N1276 1.384 . S
C1274 H1265 0.929 . S
C1274 C1266 1.378 . S
C1274 C1269 1.350 . S
C1275 H1262 0.929 . S
C1275 C1267 1.433 . S
C1275 N1277 1.384 . S
N1276 C1272 1.427 . S
N1276 C1273 1.384 . S
N1277 C1269 1.427 . S
N1277 C1275 1.384 . S
H1278 C1284 0.930 . S
H1279 C1288 0.930 . S
H1280 C1293 0.929 . S
H1281 C1291 0.929 . S
H1282 C1286 0.929 . S
H1283 C1292 0.929 . S
C1284 H1278 0.930 . S
C1284 C1285 1.367 . S
C1284 C1292 1.378 . S
C1285 C1284 1.367 . S
C1285 C1293 1.433 . S
C1286 H1282 0.929 . S
C1286 C1288 1.378 . S
C1286 C1290 1.350 . S
C1287 C1290 1.463 . S
C1287 C1292 1.350 . S
C1287 N1295 1.427 . S
C1288 H1279 0.930 . S
C1288 C1286 1.378 . S
C1288 C1289 1.367 1_455 S
C1289 C1288 1.367 1_655 S
C1289 C1291 1.433 . S
C1290 C1286 1.350 . S
C1290 C1287 1.463 . S
C1290 N1294 1.427 . S
C1291 H1281 0.929 . S
C1291 C1289 1.433 . S
C1291 N1294 1.384 1_655 S
C1292 H1283 0.929 . S
C1292 C1284 1.378 . S
C1292 C1287 1.350 . S
C1293 H1280 0.929 . S
C1293 C1285 1.433 . S
C1293 N1295 1.384 . S
N1294 C1290 1.427 . S
N1294 C1291 1.384 1_455 S
N1295 C1287 1.427 . S
N1295 C1293 1.384 . S
H1296 C1302 0.930 1_545 S
H1297 C1306 0.930 . S
H1298 C1311 0.929 . S
H1299 C1309 0.929 . S
H1300 C1304 0.929 . S
H1301 C1310 0.929 . S
C1302 H1296 0.930 1_565 S
C1302 C1303 1.367 . S
C1302 C1310 1.378 . S
C1303 C1302 1.367 . S
C1303 C1311 1.433 . S
C1304 H1300 0.929 . S
C1304 C1306 1.378 . S
C1304 C1308 1.350 . S
C1305 C1308 1.463 . S
C1305 C1310 1.350 . S
C1305 N1313 1.427 . S
C1306 H1297 0.930 . S
C1306 C1304 1.378 . S
C1306 C1307 1.367 . S
C1307 C1306 1.367 . S
C1307 C1309 1.433 . S
C1308 C1304 1.350 . S
C1308 C1305 1.463 . S
C1308 N1312 1.427 . S
C1309 H1299 0.929 . S
C1309 C1307 1.433 . S
C1309 N1312 1.384 . S
C1310 H1301 0.929 . S
C1310 C1302 1.378 . S
C1310 C1305 1.350 . S
C1311 H1298 0.929 . S
C1311 C1303 1.433 . S
C1311 N1313 1.384 . S
N1312 C1308 1.427 . S
N1312 C1309 1.384 . S
N1313 C1305 1.427 . S
N1313 C1311 1.384 . S
H1314 C1320 0.930 . S
H1315 C1324 0.930 . S
H1316 C1329 0.929 1_545 S
H1317 C1327 0.929 . S
H1318 C1322 0.929 . S
H1319 C1328 0.929 . S
C1320 H1314 0.930 . S
C1320 C1321 1.367 . S
C1320 C1328 1.378 1_545 S
C1321 C1320 1.367 . S
C1321 C1329 1.433 1_545 S
C1322 H1318 0.929 . S
C1322 C1324 1.378 . S
C1322 C1326 1.350 . S
C1323 C1326 1.463 . S
C1323 C1328 1.350 . S
C1323 N1331 1.427 . S
C1324 H1315 0.930 . S
C1324 C1322 1.378 . S
C1324 C1325 1.367 . S
C1325 C1324 1.367 . S
C1325 C1327 1.433 . S
C1326 C1322 1.350 . S
C1326 C1323 1.463 . S
C1326 N1330 1.427 . S
C1327 H1317 0.929 . S
C1327 C1325 1.433 . S
C1327 N1330 1.384 . S
C1328 H1319 0.929 . S
C1328 C1320 1.378 1_565 S
C1328 C1323 1.350 . S
C1329 H1316 0.929 1_565 S
C1329 C1321 1.433 1_565 S
C1329 N1331 1.384 . S
N1330 C1326 1.427 . S
N1330 C1327 1.384 . S
N1331 C1323 1.427 . S
N1331 C1329 1.384 . S
H1332 C1338 0.930 . S
H1333 C1342 0.930 1_655 S
H1334 C1347 0.929 . S
H1335 C1345 0.929 . S
H1336 C1340 0.929 . S
H1337 C1346 0.929 . S
C1338 H1332 0.930 . S
C1338 C1339 1.367 . S
C1338 C1346 1.378 . S
C1339 C1338 1.367 . S
C1339 C1347 1.433 . S
C1340 H1336 0.929 . S
C1340 C1342 1.378 . S
C1340 C1344 1.350 . S
C1341 C1344 1.463 . S
C1341 C1346 1.350 . S
C1341 N1349 1.427 . S
C1342 H1333 0.930 1_455 S
C1342 C1340 1.378 . S
C1342 C1343 1.367 1_455 S
C1343 C1342 1.367 1_655 S
C1343 C1345 1.433 . S
C1344 C1340 1.350 . S
C1344 C1341 1.463 . S
C1344 N1348 1.427 . S
C1345 H1335 0.929 . S
C1345 C1343 1.433 . S
C1345 N1348 1.384 1_655 S
C1346 H1337 0.929 . S
C1346 C1338 1.378 . S
C1346 C1341 1.350 . S
C1347 H1334 0.929 . S
C1347 C1339 1.433 . S
C1347 N1349 1.384 . S
N1348 C1344 1.427 . S
N1348 C1345 1.384 1_455 S
N1349 C1341 1.427 . S
N1349 C1347 1.384 . S
H1350 C1356 0.930 . S
H1351 C1360 0.930 . S
H1352 C1365 0.929 1_455 S
H1353 C1363 0.929 . S
H1354 C1358 0.929 . S
H1355 C1364 0.929 . S
C1356 H1350 0.930 . S
C1356 C1357 1.367 . S
C1356 C1364 1.378 . S
C1357 C1356 1.367 . S
C1357 C1365 1.433 . S
C1358 H1354 0.929 . S
C1358 C1360 1.378 . S
C1358 C1362 1.350 . S
C1359 C1362 1.463 . S
C1359 C1364 1.350 . S
C1359 N1367 1.427 . S
C1360 H1351 0.930 . S
C1360 C1358 1.378 . S
C1360 C1361 1.367 . S
C1361 C1360 1.367 . S
C1361 C1363 1.433 . S
C1362 C1358 1.350 . S
C1362 C1359 1.463 . S
C1362 N1366 1.427 . S
C1363 H1353 0.929 . S
C1363 C1361 1.433 . S
C1363 N1366 1.384 . S
C1364 H1355 0.929 . S
C1364 C1356 1.378 . S
C1364 C1359 1.350 . S
C1365 H1352 0.929 1_655 S
C1365 C1357 1.433 . S
C1365 N1367 1.384 . S
N1366 C1362 1.427 . S
N1366 C1363 1.384 . S
N1367 C1359 1.427 . S
N1367 C1365 1.384 . S
H1368 C1374 0.930 . S
H1369 C1378 0.930 . S
H1370 C1383 0.929 . S
H1371 C1381 0.929 . S
H1372 C1376 0.929 . S
H1373 C1382 0.929 . S
C1374 H1368 0.930 . S
C1374 C1375 1.367 . S
C1374 C1382 1.378 1_565 S
C1375 C1374 1.367 . S
C1375 C1383 1.433 . S
C1376 H1372 0.929 . S
C1376 C1378 1.378 . S
C1376 C1380 1.350 . S
C1377 C1380 1.463 . S
C1377 C1382 1.350 . S
C1377 N1385 1.427 . S
C1378 H1369 0.930 . S
C1378 C1376 1.378 . S
C1378 C1379 1.367 . S
C1379 C1378 1.367 . S
C1379 C1381 1.433 . S
C1380 C1376 1.350 . S
C1380 C1377 1.463 . S
C1380 N1384 1.427 . S
C1381 H1371 0.929 . S
C1381 C1379 1.433 . S
C1381 N1384 1.384 . S
C1382 H1373 0.929 . S
C1382 C1374 1.378 1_545 S
C1382 C1377 1.350 . S
C1383 H1370 0.929 . S
C1383 C1375 1.433 . S
C1383 N1385 1.384 1_565 S
N1384 C1380 1.427 . S
N1384 C1381 1.384 . S
N1385 C1377 1.427 . S
N1385 C1383 1.384 1_545 S
H1386 C1392 0.930 . S
H1387 C1396 0.930 . S
H1388 C1401 0.929 1_565 S
H1389 C1399 0.929 . S
H1390 C1394 0.929 . S
H1391 C1400 0.929 . S
C1392 H1386 0.930 . S
C1392 C1393 1.367 . S
C1392 C1400 1.378 . S
C1393 C1392 1.367 . S
C1393 C1401 1.433 . S
C1394 H1390 0.929 . S
C1394 C1396 1.378 1_655 S
C1394 C1398 1.350 . S
C1395 C1398 1.463 . S
C1395 C1400 1.350 . S
C1395 N1403 1.427 . S
C1396 H1387 0.930 . S
C1396 C1394 1.378 1_455 S
C1396 C1397 1.367 . S
C1397 C1396 1.367 . S
C1397 C1399 1.433 . S
C1398 C1394 1.350 . S
C1398 C1395 1.463 . S
C1398 N1402 1.427 . S
C1399 H1389 0.929 . S
C1399 C1397 1.433 . S
C1399 N1402 1.384 1_455 S
C1400 H1391 0.929 . S
C1400 C1392 1.378 . S
C1400 C1395 1.350 . S
C1401 H1388 0.929 1_545 S
C1401 C1393 1.433 . S
C1401 N1403 1.384 . S
N1402 C1398 1.427 . S
N1402 C1399 1.384 1_655 S
N1403 C1395 1.427 . S
N1403 C1401 1.384 . S
H1404 C1410 0.930 . S
H1405 C1414 0.930 . S
H1406 C1419 0.929 . S
H1407 C1417 0.929 . S
H1408 C1412 0.929 . S
H1409 C1418 0.929 . S
C1410 H1404 0.930 . S
C1410 C1411 1.367 . S
C1410 C1418 1.378 . S
C1411 C1410 1.367 . S
C1411 C1419 1.433 . S
C1412 H1408 0.929 . S
C1412 C1414 1.378 . S
C1412 C1416 1.350 . S
C1413 C1416 1.463 . S
C1413 C1418 1.350 . S
C1413 N1421 1.427 . S
C1414 H1405 0.930 . S
C1414 C1412 1.378 . S
C1414 C1415 1.367 . S
C1415 C1414 1.367 . S
C1415 C1417 1.433 . S
C1416 C1412 1.350 . S
C1416 C1413 1.463 . S
C1416 N1420 1.427 . S
C1417 H1407 0.929 . S
C1417 C1415 1.433 . S
C1417 N1420 1.384 . S
C1418 H1409 0.929 . S
C1418 C1410 1.378 . S
C1418 C1413 1.350 . S
C1419 H1406 0.929 . S
C1419 C1411 1.433 . S
C1419 N1421 1.384 . S
N1420 C1416 1.427 . S
N1420 C1417 1.384 . S
N1421 C1413 1.427 . S
N1421 C1419 1.384 . S
H1422 C1428 0.930 . S
H1423 C1432 0.930 . S
H1424 C1437 0.929 . S
H1425 C1435 0.929 . S
H1426 C1430 0.929 . S
H1427 C1436 0.929 . S
C1428 H1422 0.930 . S
C1428 C1429 1.367 . S
C1428 C1436 1.378 . S
C1429 C1428 1.367 . S
C1429 C1437 1.433 . S
C1430 H1426 0.929 . S
C1430 C1432 1.378 . S
C1430 C1434 1.350 . S
C1431 C1434 1.463 . S
C1431 C1436 1.350 . S
C1431 N1439 1.427 . S
C1432 H1423 0.930 . S
C1432 C1430 1.378 . S
C1432 C1433 1.367 . S
C1433 C1432 1.367 . S
C1433 C1435 1.433 . S
C1434 C1430 1.350 . S
C1434 C1431 1.463 . S
C1434 N1438 1.427 . S
C1435 H1425 0.929 . S
C1435 C1433 1.433 . S
C1435 N1438 1.384 . S
C1436 H1427 0.929 . S
C1436 C1428 1.378 . S
C1436 C1431 1.350 . S
C1437 H1424 0.929 . S
C1437 C1429 1.433 . S
C1437 N1439 1.384 . S
N1438 C1434 1.427 . S
N1438 C1435 1.384 . S
N1439 C1431 1.427 . S
N1439 C1437 1.384 . S
H1440 C1446 0.930 . S
H1441 C1450 0.930 . S
H1442 C1455 0.929 . S
H1443 C1453 0.929 . S
H1444 C1448 0.929 . S
H1445 C1454 0.929 . S
C1446 H1440 0.930 . S
C1446 C1447 1.367 . S
C1446 C1454 1.378 . S
C1447 C1446 1.367 . S
C1447 C1455 1.433 . S
C1448 H1444 0.929 . S
C1448 C1450 1.378 . S
C1448 C1452 1.350 . S
C1449 C1452 1.463 . S
C1449 C1454 1.350 . S
C1449 N1457 1.427 . S
C1450 H1441 0.930 . S
C1450 C1448 1.378 . S
C1450 C1451 1.367 . S
C1451 C1450 1.367 . S
C1451 C1453 1.433 . S
C1452 C1448 1.350 . S
C1452 C1449 1.463 . S
C1452 N1456 1.427 . S
C1453 H1443 0.929 . S
C1453 C1451 1.433 . S
C1453 N1456 1.384 . S
C1454 H1445 0.929 . S
C1454 C1446 1.378 . S
C1454 C1449 1.350 . S
C1455 H1442 0.929 . S
C1455 C1447 1.433 . S
C1455 N1457 1.384 . S
N1456 C1452 1.427 . S
N1456 C1453 1.384 . S
N1457 C1449 1.427 . S
N1457 C1455 1.384 . S
H1458 C1464 0.930 . S
H1459 C1468 0.930 . S
H1460 C1473 0.929 . S
H1461 C1471 0.929 . S
H1462 C1466 0.929 . S
H1463 C1472 0.929 . S
C1464 H1458 0.930 . S
C1464 C1465 1.367 . S
C1464 C1472 1.378 . S
C1465 C1464 1.367 . S
C1465 C1473 1.433 . S
C1466 H1462 0.929 . S
C1466 C1468 1.378 . S
C1466 C1470 1.350 . S
C1467 C1470 1.463 . S
C1467 C1472 1.350 . S
C1467 N1475 1.427 . S
C1468 H1459 0.930 . S
C1468 C1466 1.378 . S
C1468 C1469 1.367 . S
C1469 C1468 1.367 . S
C1469 C1471 1.433 . S
C1470 C1466 1.350 . S
C1470 C1467 1.463 . S
C1470 N1474 1.427 . S
C1471 H1461 0.929 . S
C1471 C1469 1.433 . S
C1471 N1474 1.384 . S
C1472 H1463 0.929 . S
C1472 C1464 1.378 . S
C1472 C1467 1.350 . S
C1473 H1460 0.929 . S
C1473 C1465 1.433 . S
C1473 N1475 1.384 . S
N1474 C1470 1.427 . S
N1474 C1471 1.384 . S
N1475 C1467 1.427 . S
N1475 C1473 1.384 . S
H1476 C1482 0.930 . S
H1477 C1486 0.930 . S
H1478 C1491 0.929 . S
H1479 C1489 0.929 . S
H1480 C1484 0.929 . S
H1481 C1490 0.929 . S
C1482 H1476 0.930 . S
C1482 C1483 1.367 . S
C1482 C1490 1.378 . S
C1483 C1482 1.367 . S
C1483 C1491 1.433 . S
C1484 H1480 0.929 . S
C1484 C1486 1.378 . S
C1484 C1488 1.350 . S
C1485 C1488 1.463 . S
C1485 C1490 1.350 . S
C1485 N1493 1.427 . S
C1486 H1477 0.930 . S
C1486 C1484 1.378 . S
C1486 C1487 1.367 . S
C1487 C1486 1.367 . S
C1487 C1489 1.433 . S
C1488 C1484 1.350 . S
C1488 C1485 1.463 . S
C1488 N1492 1.427 . S
C1489 H1479 0.929 . S
C1489 C1487 1.433 . S
C1489 N1492 1.384 . S
C1490 H1481 0.929 . S
C1490 C1482 1.378 . S
C1490 C1485 1.350 . S
C1491 H1478 0.929 . S
C1491 C1483 1.433 . S
C1491 N1493 1.384 . S
N1492 C1488 1.427 . S
N1492 C1489 1.384 . S
N1493 C1485 1.427 . S
N1493 C1491 1.384 . S
H1494 C1500 0.930 . S
H1495 C1504 0.930 . S
H1496 C1509 0.929 . S
H1497 C1507 0.929 . S
H1498 C1502 0.929 . S
H1499 C1508 0.929 . S
C1500 H1494 0.930 . S
C1500 C1501 1.367 . S
C1500 C1508 1.378 . S
C1501 C1500 1.367 . S
C1501 C1509 1.433 . S
C1502 H1498 0.929 . S
C1502 C1504 1.378 . S
C1502 C1506 1.350 . S
C1503 C1506 1.463 . S
C1503 C1508 1.350 . S
C1503 N1511 1.427 . S
C1504 H1495 0.930 . S
C1504 C1502 1.378 . S
C1504 C1505 1.367 . S
C1505 C1504 1.367 . S
C1505 C1507 1.433 . S
C1506 C1502 1.350 . S
C1506 C1503 1.463 . S
C1506 N1510 1.427 . S
C1507 H1497 0.929 . S
C1507 C1505 1.433 . S
C1507 N1510 1.384 . S
C1508 H1499 0.929 . S
C1508 C1500 1.378 . S
C1508 C1503 1.350 . S
C1509 H1496 0.929 . S
C1509 C1501 1.433 . S
C1509 N1511 1.384 . S
N1510 C1506 1.427 . S
N1510 C1507 1.384 . S
N1511 C1503 1.427 . S
N1511 C1509 1.384 . S
H1512 C1518 0.930 . S
H1513 C1522 0.930 . S
H1514 C1527 0.929 . S
H1515 C1525 0.929 . S
H1516 C1520 0.929 . S
H1517 C1526 0.929 . S
C1518 H1512 0.930 . S
C1518 C1519 1.367 . S
C1518 C1526 1.378 . S
C1519 C1518 1.367 . S
C1519 C1527 1.433 . S
C1520 H1516 0.929 . S
C1520 C1522 1.378 . S
C1520 C1524 1.350 . S
C1521 C1524 1.463 . S
C1521 C1526 1.350 . S
C1521 N1529 1.427 . S
C1522 H1513 0.930 . S
C1522 C1520 1.378 . S
C1522 C1523 1.367 . S
C1523 C1522 1.367 . S
C1523 C1525 1.433 . S
C1524 C1520 1.350 . S
C1524 C1521 1.463 . S
C1524 N1528 1.427 . S
C1525 H1515 0.929 . S
C1525 C1523 1.433 . S
C1525 N1528 1.384 . S
C1526 H1517 0.929 . S
C1526 C1518 1.378 . S
C1526 C1521 1.350 . S
C1527 H1514 0.929 . S
C1527 C1519 1.433 . S
C1527 N1529 1.384 . S
N1528 C1524 1.427 . S
N1528 C1525 1.384 . S
N1529 C1521 1.427 . S
N1529 C1527 1.384 . S
H1530 C1536 0.930 . S
H1531 C1540 0.930 . S
H1532 C1545 0.929 . S
H1533 C1543 0.929 . S
H1534 C1538 0.929 . S
H1535 C1544 0.929 . S
C1536 H1530 0.930 . S
C1536 C1537 1.367 . S
C1536 C1544 1.378 . S
C1537 C1536 1.367 . S
C1537 C1545 1.433 . S
C1538 H1534 0.929 . S
C1538 C1540 1.378 . S
C1538 C1542 1.350 . S
C1539 C1542 1.463 . S
C1539 C1544 1.350 . S
C1539 N1547 1.427 . S
C1540 H1531 0.930 . S
C1540 C1538 1.378 . S
C1540 C1541 1.367 . S
C1541 C1540 1.367 . S
C1541 C1543 1.433 . S
C1542 C1538 1.350 . S
C1542 C1539 1.463 . S
C1542 N1546 1.427 . S
C1543 H1533 0.929 . S
C1543 C1541 1.433 . S
C1543 N1546 1.384 . S
C1544 H1535 0.929 . S
C1544 C1536 1.378 . S
C1544 C1539 1.350 . S
C1545 H1532 0.929 . S
C1545 C1537 1.433 . S
C1545 N1547 1.384 . S
N1546 C1542 1.427 . S
N1546 C1543 1.384 . S
N1547 C1539 1.427 . S
N1547 C1545 1.384 . S
H1548 C1554 0.930 . S
H1549 C1558 0.930 . S
H1550 C1563 0.929 . S
H1551 C1561 0.929 . S
H1552 C1556 0.929 . S
H1553 C1562 0.929 . S
C1554 H1548 0.930 . S
C1554 C1555 1.367 . S
C1554 C1562 1.378 . S
C1555 C1554 1.367 . S
C1555 C1563 1.433 . S
C1556 H1552 0.929 . S
C1556 C1558 1.378 . S
C1556 C1560 1.350 . S
C1557 C1560 1.463 . S
C1557 C1562 1.350 . S
C1557 N1565 1.427 . S
C1558 H1549 0.930 . S
C1558 C1556 1.378 . S
C1558 C1559 1.367 . S
C1559 C1558 1.367 . S
C1559 C1561 1.433 . S
C1560 C1556 1.350 . S
C1560 C1557 1.463 . S
C1560 N1564 1.427 . S
C1561 H1551 0.929 . S
C1561 C1559 1.433 . S
C1561 N1564 1.384 . S
C1562 H1553 0.929 . S
C1562 C1554 1.378 . S
C1562 C1557 1.350 . S
C1563 H1550 0.929 . S
C1563 C1555 1.433 . S
C1563 N1565 1.384 . S
N1564 C1560 1.427 . S
N1564 C1561 1.384 . S
N1565 C1557 1.427 . S
N1565 C1563 1.384 . S
H1566 C1572 0.930 . S
H1567 C1576 0.930 . S
H1568 C1581 0.929 . S
H1569 C1579 0.929 . S
H1570 C1574 0.929 . S
H1571 C1580 0.929 . S
C1572 H1566 0.930 . S
C1572 C1573 1.367 . S
C1572 C1580 1.378 . S
C1573 C1572 1.367 . S
C1573 C1581 1.433 . S
C1574 H1570 0.929 . S
C1574 C1576 1.378 . S
C1574 C1578 1.350 . S
C1575 C1578 1.463 . S
C1575 C1580 1.350 . S
C1575 N1583 1.427 . S
C1576 H1567 0.930 . S
C1576 C1574 1.378 . S
C1576 C1577 1.367 . S
C1577 C1576 1.367 . S
C1577 C1579 1.433 . S
C1578 C1574 1.350 . S
C1578 C1575 1.463 . S
C1578 N1582 1.427 . S
C1579 H1569 0.929 . S
C1579 C1577 1.433 . S
C1579 N1582 1.384 . S
C1580 H1571 0.929 . S
C1580 C1572 1.378 . S
C1580 C1575 1.350 . S
C1581 H1568 0.929 . S
C1581 C1573 1.433 . S
C1581 N1583 1.384 . S
N1582 C1578 1.427 . S
N1582 C1579 1.384 . S
N1583 C1575 1.427 . S
N1583 C1581 1.384 . S
H1584 C1590 0.930 . S
H1585 C1594 0.930 . S
H1586 C1599 0.929 . S
H1587 C1597 0.929 . S
H1588 C1592 0.929 . S
H1589 C1598 0.929 . S
C1590 H1584 0.930 . S
C1590 C1591 1.367 . S
C1590 C1598 1.378 . S
C1591 C1590 1.367 . S
C1591 C1599 1.433 . S
C1592 H1588 0.929 . S
C1592 C1594 1.378 . S
C1592 C1596 1.350 . S
C1593 C1596 1.463 . S
C1593 C1598 1.350 . S
C1593 N1601 1.427 . S
C1594 H1585 0.930 . S
C1594 C1592 1.378 . S
C1594 C1595 1.367 . S
C1595 C1594 1.367 . S
C1595 C1597 1.433 . S
C1596 C1592 1.350 . S
C1596 C1593 1.463 . S
C1596 N1600 1.427 . S
C1597 H1587 0.929 . S
C1597 C1595 1.433 . S
C1597 N1600 1.384 . S
C1598 H1589 0.929 . S
C1598 C1590 1.378 . S
C1598 C1593 1.350 . S
C1599 H1586 0.929 . S
C1599 C1591 1.433 . S
C1599 N1601 1.384 . S
N1600 C1596 1.427 . S
N1600 C1597 1.384 . S
N1601 C1593 1.427 . S
N1601 C1599 1.384 . S
H1602 C1608 0.930 . S
H1603 C1612 0.930 . S
H1604 C1617 0.929 . S
H1605 C1615 0.929 . S
H1606 C1610 0.929 . S
H1607 C1616 0.929 . S
C1608 H1602 0.930 . S
C1608 C1609 1.367 . S
C1608 C1616 1.378 . S
C1609 C1608 1.367 . S
C1609 C1617 1.433 . S
C1610 H1606 0.929 . S
C1610 C1612 1.378 . S
C1610 C1614 1.350 . S
C1611 C1614 1.463 . S
C1611 C1616 1.350 . S
C1611 N1619 1.427 . S
C1612 H1603 0.930 . S
C1612 C1610 1.378 . S
C1612 C1613 1.367 . S
C1613 C1612 1.367 . S
C1613 C1615 1.433 . S
C1614 C1610 1.350 . S
C1614 C1611 1.463 . S
C1614 N1618 1.427 . S
C1615 H1605 0.929 . S
C1615 C1613 1.433 . S
C1615 N1618 1.384 . S
C1616 H1607 0.929 . S
C1616 C1608 1.378 . S
C1616 C1611 1.350 . S
C1617 H1604 0.929 . S
C1617 C1609 1.433 . S
C1617 N1619 1.384 . S
N1618 C1614 1.427 . S
N1618 C1615 1.384 . S
N1619 C1611 1.427 . S
N1619 C1617 1.384 . S
H1620 C1626 0.930 . S
H1621 C1630 0.930 . S
H1622 C1635 0.929 . S
H1623 C1633 0.929 . S
H1624 C1628 0.929 . S
H1625 C1634 0.929 . S
C1626 H1620 0.930 . S
C1626 C1627 1.367 . S
C1626 C1634 1.378 . S
C1627 C1626 1.367 . S
C1627 C1635 1.433 . S
C1628 H1624 0.929 . S
C1628 C1630 1.378 . S
C1628 C1632 1.350 . S
C1629 C1632 1.463 . S
C1629 C1634 1.350 . S
C1629 N1637 1.427 . S
C1630 H1621 0.930 . S
C1630 C1628 1.378 . S
C1630 C1631 1.367 . S
C1631 C1630 1.367 . S
C1631 C1633 1.433 . S
C1632 C1628 1.350 . S
C1632 C1629 1.463 . S
C1632 N1636 1.427 . S
C1633 H1623 0.929 . S
C1633 C1631 1.433 . S
C1633 N1636 1.384 . S
C1634 H1625 0.929 . S
C1634 C1626 1.378 . S
C1634 C1629 1.350 . S
C1635 H1622 0.929 . S
C1635 C1627 1.433 . S
C1635 N1637 1.384 . S
N1636 C1632 1.427 . S
N1636 C1633 1.384 . S
N1637 C1629 1.427 . S
N1637 C1635 1.384 . S
H1638 C1644 0.930 . S
H1639 C1648 0.930 . S
H1640 C1653 0.929 . S
H1641 C1651 0.929 . S
H1642 C1646 0.929 . S
H1643 C1652 0.929 . S
C1644 H1638 0.930 . S
C1644 C1645 1.367 . S
C1644 C1652 1.378 . S
C1645 C1644 1.367 . S
C1645 C1653 1.433 . S
C1646 H1642 0.929 . S
C1646 C1648 1.378 . S
C1646 C1650 1.350 . S
C1647 C1650 1.463 . S
C1647 C1652 1.350 . S
C1647 N1655 1.427 . S
C1648 H1639 0.930 . S
C1648 C1646 1.378 . S
C1648 C1649 1.367 . S
C1649 C1648 1.367 . S
C1649 C1651 1.433 . S
C1650 C1646 1.350 . S
C1650 C1647 1.463 . S
C1650 N1654 1.427 . S
C1651 H1641 0.929 . S
C1651 C1649 1.433 . S
C1651 N1654 1.384 . S
C1652 H1643 0.929 . S
C1652 C1644 1.378 . S
C1652 C1647 1.350 . S
C1653 H1640 0.929 . S
C1653 C1645 1.433 . S
C1653 N1655 1.384 . S
N1654 C1650 1.427 . S
N1654 C1651 1.384 . S
N1655 C1647 1.427 . S
N1655 C1653 1.384 . S
H1656 C1662 0.930 . S
H1657 C1666 0.930 . S
H1658 C1671 0.929 . S
H1659 C1669 0.929 . S
H1660 C1664 0.929 . S
H1661 C1670 0.929 . S
C1662 H1656 0.930 . S
C1662 C1663 1.367 . S
C1662 C1670 1.378 . S
C1663 C1662 1.367 . S
C1663 C1671 1.433 . S
C1664 H1660 0.929 . S
C1664 C1666 1.378 . S
C1664 C1668 1.350 . S
C1665 C1668 1.463 . S
C1665 C1670 1.350 . S
C1665 N1673 1.427 . S
C1666 H1657 0.930 . S
C1666 C1664 1.378 . S
C1666 C1667 1.367 . S
C1667 C1666 1.367 . S
C1667 C1669 1.433 . S
C1668 C1664 1.350 . S
C1668 C1665 1.463 . S
C1668 N1672 1.427 . S
C1669 H1659 0.929 . S
C1669 C1667 1.433 . S
C1669 N1672 1.384 . S
C1670 H1661 0.929 . S
C1670 C1662 1.378 . S
C1670 C1665 1.350 . S
C1671 H1658 0.929 . S
C1671 C1663 1.433 . S
C1671 N1673 1.384 . S
N1672 C1668 1.427 . S
N1672 C1669 1.384 . S
N1673 C1665 1.427 . S
N1673 C1671 1.384 . S
H1674 C1680 0.930 . S
H1675 C1684 0.930 . S
H1676 C1689 0.929 . S
H1677 C1687 0.929 . S
H1678 C1682 0.929 . S
H1679 C1688 0.929 . S
C1680 H1674 0.930 . S
C1680 C1681 1.367 . S
C1680 C1688 1.378 . S
C1681 C1680 1.367 . S
C1681 C1689 1.433 . S
C1682 H1678 0.929 . S
C1682 C1684 1.378 . S
C1682 C1686 1.350 . S
C1683 C1686 1.463 . S
C1683 C1688 1.350 . S
C1683 N1691 1.427 . S
C1684 H1675 0.930 . S
C1684 C1682 1.378 . S
C1684 C1685 1.367 . S
C1685 C1684 1.367 . S
C1685 C1687 1.433 . S
C1686 C1682 1.350 . S
C1686 C1683 1.463 . S
C1686 N1690 1.427 . S
C1687 H1677 0.929 . S
C1687 C1685 1.433 . S
C1687 N1690 1.384 . S
C1688 H1679 0.929 . S
C1688 C1680 1.378 . S
C1688 C1683 1.350 . S
C1689 H1676 0.929 . S
C1689 C1681 1.433 . S
C1689 N1691 1.384 . S
N1690 C1686 1.427 . S
N1690 C1687 1.384 . S
N1691 C1683 1.427 . S
N1691 C1689 1.384 . S
H1692 C1698 0.930 . S
H1693 C1702 0.930 . S
H1694 C1707 0.929 . S
H1695 C1705 0.929 . S
H1696 C1700 0.929 . S
H1697 C1706 0.929 . S
C1698 H1692 0.930 . S
C1698 C1699 1.367 . S
C1698 C1706 1.378 . S
C1699 C1698 1.367 . S
C1699 C1707 1.433 . S
C1700 H1696 0.929 . S
C1700 C1702 1.378 . S
C1700 C1704 1.350 . S
C1701 C1704 1.463 . S
C1701 C1706 1.350 . S
C1701 N1709 1.427 . S
C1702 H1693 0.930 . S
C1702 C1700 1.378 . S
C1702 C1703 1.367 . S
C1703 C1702 1.367 . S
C1703 C1705 1.433 . S
C1704 C1700 1.350 . S
C1704 C1701 1.463 . S
C1704 N1708 1.427 . S
C1705 H1695 0.929 . S
C1705 C1703 1.433 . S
C1705 N1708 1.384 . S
C1706 H1697 0.929 . S
C1706 C1698 1.378 . S
C1706 C1701 1.350 . S
C1707 H1694 0.929 . S
C1707 C1699 1.433 . S
C1707 N1709 1.384 . S
N1708 C1704 1.427 . S
N1708 C1705 1.384 . S
N1709 C1701 1.427 . S
N1709 C1707 1.384 . S
H1710 C1716 0.930 . S
H1711 C1720 0.930 . S
H1712 C1725 0.929 . S
H1713 C1723 0.929 . S
H1714 C1718 0.929 . S
H1715 C1724 0.929 . S
C1716 H1710 0.930 . S
C1716 C1717 1.367 . S
C1716 C1724 1.378 . S
C1717 C1716 1.367 . S
C1717 C1725 1.433 . S
C1718 H1714 0.929 . S
C1718 C1720 1.378 . S
C1718 C1722 1.350 . S
C1719 C1722 1.463 . S
C1719 C1724 1.350 . S
C1719 N1727 1.427 . S
C1720 H1711 0.930 . S
C1720 C1718 1.378 . S
C1720 C1721 1.367 . S
C1721 C1720 1.367 . S
C1721 C1723 1.433 . S
C1722 C1718 1.350 . S
C1722 C1719 1.463 . S
C1722 N1726 1.427 . S
C1723 H1713 0.929 . S
C1723 C1721 1.433 . S
C1723 N1726 1.384 . S
C1724 H1715 0.929 . S
C1724 C1716 1.378 . S
C1724 C1719 1.350 . S
C1725 H1712 0.929 . S
C1725 C1717 1.433 . S
C1725 N1727 1.384 . S
N1726 C1722 1.427 . S
N1726 C1723 1.384 . S
N1727 C1719 1.427 . S
N1727 C1725 1.384 . S
H1728 C1734 0.930 . S
H1729 C1738 0.930 . S
H1730 C1743 0.929 . S
H1731 C1741 0.929 . S
H1732 C1736 0.929 . S
H1733 C1742 0.929 . S
C1734 H1728 0.930 . S
C1734 C1735 1.367 . S
C1734 C1742 1.378 . S
C1735 C1734 1.367 . S
C1735 C1743 1.433 . S
C1736 H1732 0.929 . S
C1736 C1738 1.378 . S
C1736 C1740 1.350 . S
C1737 C1740 1.463 . S
C1737 C1742 1.350 . S
C1737 N1745 1.427 . S
C1738 H1729 0.930 . S
C1738 C1736 1.378 . S
C1738 C1739 1.367 . S
C1739 C1738 1.367 . S
C1739 C1741 1.433 . S
C1740 C1736 1.350 . S
C1740 C1737 1.463 . S
C1740 N1744 1.427 . S
C1741 H1731 0.929 . S
C1741 C1739 1.433 . S
C1741 N1744 1.384 . S
C1742 H1733 0.929 . S
C1742 C1734 1.378 . S
C1742 C1737 1.350 . S
C1743 H1730 0.929 . S
C1743 C1735 1.433 . S
C1743 N1745 1.384 . S
N1744 C1740 1.427 . S
N1744 C1741 1.384 . S
N1745 C1737 1.427 . S
N1745 C1743 1.384 . S
H1746 C1752 0.930 . S
H1747 C1756 0.930 . S
H1748 C1761 0.929 . S
H1749 C1759 0.929 . S
H1750 C1754 0.929 . S
H1751 C1760 0.929 . S
C1752 H1746 0.930 . S
C1752 C1753 1.367 . S
C1752 C1760 1.378 . S
C1753 C1752 1.367 . S
C1753 C1761 1.433 . S
C1754 H1750 0.929 . S
C1754 C1756 1.378 . S
C1754 C1758 1.350 . S
C1755 C1758 1.463 . S
C1755 C1760 1.350 . S
C1755 N1763 1.427 . S
C1756 H1747 0.930 . S
C1756 C1754 1.378 . S
C1756 C1757 1.367 . S
C1757 C1756 1.367 . S
C1757 C1759 1.433 . S
C1758 C1754 1.350 . S
C1758 C1755 1.463 . S
C1758 N1762 1.427 . S
C1759 H1749 0.929 . S
C1759 C1757 1.433 . S
C1759 N1762 1.384 . S
C1760 H1751 0.929 . S
C1760 C1752 1.378 . S
C1760 C1755 1.350 . S
C1761 H1748 0.929 . S
C1761 C1753 1.433 . S
C1761 N1763 1.384 . S
N1762 C1758 1.427 . S
N1762 C1759 1.384 . S
N1763 C1755 1.427 . S
N1763 C1761 1.384 . S
H1764 C1770 0.930 . S
H1765 C1774 0.930 . S
H1766 C1779 0.929 . S
H1767 C1777 0.929 . S
H1768 C1772 0.929 . S
H1769 C1778 0.929 . S
C1770 H1764 0.930 . S
C1770 C1771 1.367 . S
C1770 C1778 1.378 . S
C1771 C1770 1.367 . S
C1771 C1779 1.433 . S
C1772 H1768 0.929 . S
C1772 C1774 1.378 . S
C1772 C1776 1.350 . S
C1773 C1776 1.463 . S
C1773 C1778 1.350 . S
C1773 N1781 1.427 . S
C1774 H1765 0.930 . S
C1774 C1772 1.378 . S
C1774 C1775 1.367 . S
C1775 C1774 1.367 . S
C1775 C1777 1.433 . S
C1776 C1772 1.350 . S
C1776 C1773 1.463 . S
C1776 N1780 1.427 . S
C1777 H1767 0.929 . S
C1777 C1775 1.433 . S
C1777 N1780 1.384 . S
C1778 H1769 0.929 . S
C1778 C1770 1.378 . S
C1778 C1773 1.350 . S
C1779 H1766 0.929 . S
C1779 C1771 1.433 . S
C1779 N1781 1.384 . S
N1780 C1776 1.427 . S
N1780 C1777 1.384 . S
N1781 C1773 1.427 . S
N1781 C1779 1.384 . S
H1782 C1788 0.930 . S
H1783 C1792 0.930 . S
H1784 C1797 0.929 . S
H1785 C1795 0.929 . S
H1786 C1790 0.929 . S
H1787 C1796 0.929 . S
C1788 H1782 0.930 . S
C1788 C1789 1.367 . S
C1788 C1796 1.378 . S
C1789 C1788 1.367 . S
C1789 C1797 1.433 . S
C1790 H1786 0.929 . S
C1790 C1792 1.378 . S
C1790 C1794 1.350 . S
C1791 C1794 1.463 . S
C1791 C1796 1.350 . S
C1791 N1799 1.427 . S
C1792 H1783 0.930 . S
C1792 C1790 1.378 . S
C1792 C1793 1.367 . S
C1793 C1792 1.367 . S
C1793 C1795 1.433 . S
C1794 C1790 1.350 . S
C1794 C1791 1.463 . S
C1794 N1798 1.427 . S
C1795 H1785 0.929 . S
C1795 C1793 1.433 . S
C1795 N1798 1.384 . S
C1796 H1787 0.929 . S
C1796 C1788 1.378 . S
C1796 C1791 1.350 . S
C1797 H1784 0.929 . S
C1797 C1789 1.433 . S
C1797 N1799 1.384 . S
N1798 C1794 1.427 . S
N1798 C1795 1.384 . S
N1799 C1791 1.427 . S
N1799 C1797 1.384 . S
H1800 C1806 0.930 . S
H1801 C1810 0.930 . S
H1802 C1815 0.929 . S
H1803 C1813 0.929 . S
H1804 C1808 0.929 . S
H1805 C1814 0.929 . S
C1806 H1800 0.930 . S
C1806 C1807 1.367 . S
C1806 C1814 1.378 . S
C1807 C1806 1.367 . S
C1807 C1815 1.433 . S
C1808 H1804 0.929 . S
C1808 C1810 1.378 . S
C1808 C1812 1.350 . S
C1809 C1812 1.463 . S
C1809 C1814 1.350 . S
C1809 N1817 1.427 . S
C1810 H1801 0.930 . S
C1810 C1808 1.378 . S
C1810 C1811 1.367 . S
C1811 C1810 1.367 . S
C1811 C1813 1.433 . S
C1812 C1808 1.350 . S
C1812 C1809 1.463 . S
C1812 N1816 1.427 . S
C1813 H1803 0.929 . S
C1813 C1811 1.433 . S
C1813 N1816 1.384 . S
C1814 H1805 0.929 . S
C1814 C1806 1.378 . S
C1814 C1809 1.350 . S
C1815 H1802 0.929 . S
C1815 C1807 1.433 . S
C1815 N1817 1.384 . S
N1816 C1812 1.427 . S
N1816 C1813 1.384 . S
N1817 C1809 1.427 . S
N1817 C1815 1.384 . S
H1818 C1824 0.930 . S
H1819 C1828 0.930 . S
H1820 C1833 0.929 . S
H1821 C1831 0.929 . S
H1822 C1826 0.929 . S
H1823 C1832 0.929 . S
C1824 H1818 0.930 . S
C1824 C1825 1.367 . S
C1824 C1832 1.378 . S
C1825 C1824 1.367 . S
C1825 C1833 1.433 . S
C1826 H1822 0.929 . S
C1826 C1828 1.378 . S
C1826 C1830 1.350 . S
C1827 C1830 1.463 . S
C1827 C1832 1.350 . S
C1827 N1835 1.427 . S
C1828 H1819 0.930 . S
C1828 C1826 1.378 . S
C1828 C1829 1.367 . S
C1829 C1828 1.367 . S
C1829 C1831 1.433 . S
C1830 C1826 1.350 . S
C1830 C1827 1.463 . S
C1830 N1834 1.427 . S
C1831 H1821 0.929 . S
C1831 C1829 1.433 . S
C1831 N1834 1.384 . S
C1832 H1823 0.929 . S
C1832 C1824 1.378 . S
C1832 C1827 1.350 . S
C1833 H1820 0.929 . S
C1833 C1825 1.433 . S
C1833 N1835 1.384 . S
N1834 C1830 1.427 . S
N1834 C1831 1.384 . S
N1835 C1827 1.427 . S
N1835 C1833 1.384 . S
H1836 C1842 0.930 . S
H1837 C1846 0.930 . S
H1838 C1851 0.929 . S
H1839 C1849 0.929 . S
H1840 C1844 0.929 . S
H1841 C1850 0.929 . S
C1842 H1836 0.930 . S
C1842 C1843 1.367 . S
C1842 C1850 1.378 . S
C1843 C1842 1.367 . S
C1843 C1851 1.433 . S
C1844 H1840 0.929 . S
C1844 C1846 1.378 . S
C1844 C1848 1.350 . S
C1845 C1848 1.463 . S
C1845 C1850 1.350 . S
C1845 N1853 1.427 . S
C1846 H1837 0.930 . S
C1846 C1844 1.378 . S
C1846 C1847 1.367 . S
C1847 C1846 1.367 . S
C1847 C1849 1.433 . S
C1848 C1844 1.350 . S
C1848 C1845 1.463 . S
C1848 N1852 1.427 . S
C1849 H1839 0.929 . S
C1849 C1847 1.433 . S
C1849 N1852 1.384 . S
C1850 H1841 0.929 . S
C1850 C1842 1.378 . S
C1850 C1845 1.350 . S
C1851 H1838 0.929 . S
C1851 C1843 1.433 . S
C1851 N1853 1.384 . S
N1852 C1848 1.427 . S
N1852 C1849 1.384 . S
N1853 C1845 1.427 . S
N1853 C1851 1.384 . S
H1854 C1860 0.930 . S
H1855 C1864 0.930 . S
H1856 C1869 0.929 . S
H1857 C1867 0.929 . S
H1858 C1862 0.929 . S
H1859 C1868 0.929 . S
C1860 H1854 0.930 . S
C1860 C1861 1.367 . S
C1860 C1868 1.378 . S
C1861 C1860 1.367 . S
C1861 C1869 1.433 . S
C1862 H1858 0.929 . S
C1862 C1864 1.378 . S
C1862 C1866 1.350 . S
C1863 C1866 1.463 . S
C1863 C1868 1.350 . S
C1863 N1871 1.427 . S
C1864 H1855 0.930 . S
C1864 C1862 1.378 . S
C1864 C1865 1.367 . S
C1865 C1864 1.367 . S
C1865 C1867 1.433 . S
C1866 C1862 1.350 . S
C1866 C1863 1.463 . S
C1866 N1870 1.427 . S
C1867 H1857 0.929 . S
C1867 C1865 1.433 . S
C1867 N1870 1.384 . S
C1868 H1859 0.929 . S
C1868 C1860 1.378 . S
C1868 C1863 1.350 . S
C1869 H1856 0.929 . S
C1869 C1861 1.433 . S
C1869 N1871 1.384 . S
N1870 C1866 1.427 . S
N1870 C1867 1.384 . S
N1871 C1863 1.427 . S
N1871 C1869 1.384 . S
H1872 C1878 0.930 . S
H1873 C1882 0.930 . S
H1874 C1887 0.929 . S
H1875 C1885 0.929 . S
H1876 C1880 0.929 . S
H1877 C1886 0.929 . S
C1878 H1872 0.930 . S
C1878 C1879 1.367 . S
C1878 C1886 1.378 . S
C1879 C1878 1.367 . S
C1879 C1887 1.433 . S
C1880 H1876 0.929 . S
C1880 C1882 1.378 . S
C1880 C1884 1.350 . S
C1881 C1884 1.463 . S
C1881 C1886 1.350 . S
C1881 N1889 1.427 . S
C1882 H1873 0.930 . S
C1882 C1880 1.378 . S
C1882 C1883 1.367 . S
C1883 C1882 1.367 . S
C1883 C1885 1.433 . S
C1884 C1880 1.350 . S
C1884 C1881 1.463 . S
C1884 N1888 1.427 . S
C1885 H1875 0.929 . S
C1885 C1883 1.433 . S
C1885 N1888 1.384 . S
C1886 H1877 0.929 . S
C1886 C1878 1.378 . S
C1886 C1881 1.350 . S
C1887 H1874 0.929 . S
C1887 C1879 1.433 . S
C1887 N1889 1.384 . S
N1888 C1884 1.427 . S
N1888 C1885 1.384 . S
N1889 C1881 1.427 . S
N1889 C1887 1.384 . S
H1890 C1896 0.930 . S
H1891 C1900 0.930 . S
H1892 C1905 0.929 . S
H1893 C1903 0.929 . S
H1894 C1898 0.929 . S
H1895 C1904 0.929 . S
C1896 H1890 0.930 . S
C1896 C1897 1.367 . S
C1896 C1904 1.378 . S
C1897 C1896 1.367 . S
C1897 C1905 1.433 . S
C1898 H1894 0.929 . S
C1898 C1900 1.378 . S
C1898 C1902 1.350 . S
C1899 C1902 1.463 . S
C1899 C1904 1.350 . S
C1899 N1907 1.427 . S
C1900 H1891 0.930 . S
C1900 C1898 1.378 . S
C1900 C1901 1.367 . S
C1901 C1900 1.367 . S
C1901 C1903 1.433 . S
C1902 C1898 1.350 . S
C1902 C1899 1.463 . S
C1902 N1906 1.427 . S
C1903 H1893 0.929 . S
C1903 C1901 1.433 . S
C1903 N1906 1.384 . S
C1904 H1895 0.929 . S
C1904 C1896 1.378 . S
C1904 C1899 1.350 . S
C1905 H1892 0.929 . S
C1905 C1897 1.433 . S
C1905 N1907 1.384 . S
N1906 C1902 1.427 . S
N1906 C1903 1.384 . S
N1907 C1899 1.427 . S
N1907 C1905 1.384 . S
H1908 C1914 0.930 . S
H1909 C1918 0.930 . S
H1910 C1923 0.929 . S
H1911 C1921 0.929 . S
H1912 C1916 0.929 . S
H1913 C1922 0.929 . S
C1914 H1908 0.930 . S
C1914 C1915 1.367 . S
C1914 C1922 1.378 . S
C1915 C1914 1.367 . S
C1915 C1923 1.433 . S
C1916 H1912 0.929 . S
C1916 C1918 1.378 . S
C1916 C1920 1.350 . S
C1917 C1920 1.463 . S
C1917 C1922 1.350 . S
C1917 N1925 1.427 . S
C1918 H1909 0.930 . S
C1918 C1916 1.378 . S
C1918 C1919 1.367 . S
C1919 C1918 1.367 . S
C1919 C1921 1.433 . S
C1920 C1916 1.350 . S
C1920 C1917 1.463 . S
C1920 N1924 1.427 . S
C1921 H1911 0.929 . S
C1921 C1919 1.433 . S
C1921 N1924 1.384 . S
C1922 H1913 0.929 . S
C1922 C1914 1.378 . S
C1922 C1917 1.350 . S
C1923 H1910 0.929 . S
C1923 C1915 1.433 . S
C1923 N1925 1.384 . S
N1924 C1920 1.427 . S
N1924 C1921 1.384 . S
N1925 C1917 1.427 . S
N1925 C1923 1.384 . S
H1926 C1932 0.930 . S
H1927 C1936 0.930 . S
H1928 C1941 0.929 . S
H1929 C1939 0.929 1_455 S
H1930 C1934 0.929 . S
H1931 C1940 0.929 . S
C1932 H1926 0.930 . S
C1932 C1933 1.367 . S
C1932 C1940 1.378 . S
C1933 C1932 1.367 . S
C1933 C1941 1.433 . S
C1934 H1930 0.929 . S
C1934 C1936 1.378 . S
C1934 C1938 1.350 . S
C1935 C1938 1.463 . S
C1935 C1940 1.350 . S
C1935 N1943 1.427 . S
C1936 H1927 0.930 . S
C1936 C1934 1.378 . S
C1936 C1937 1.367 . S
C1937 C1936 1.367 . S
C1937 C1939 1.433 . S
C1938 C1934 1.350 . S
C1938 C1935 1.463 . S
C1938 N1942 1.427 . S
C1939 H1929 0.929 1_655 S
C1939 C1937 1.433 . S
C1939 N1942 1.384 . S
C1940 H1931 0.929 . S
C1940 C1932 1.378 . S
C1940 C1935 1.350 . S
C1941 H1928 0.929 . S
C1941 C1933 1.433 . S
C1941 N1943 1.384 . S
N1942 C1938 1.427 . S
N1942 C1939 1.384 . S
N1943 C1935 1.427 . S
N1943 C1941 1.384 . S
H1944 C1950 0.930 . S
H1945 C1954 0.930 . S
H1946 C1959 0.929 . S
H1947 C1957 0.929 . S
H1948 C1952 0.929 . S
H1949 C1958 0.929 . S
C1950 H1944 0.930 . S
C1950 C1951 1.367 . S
C1950 C1958 1.378 . S
C1951 C1950 1.367 . S
C1951 C1959 1.433 . S
C1952 H1948 0.929 . S
C1952 C1954 1.378 . S
C1952 C1956 1.350 . S
C1953 C1956 1.463 . S
C1953 C1958 1.350 . S
C1953 N1961 1.427 . S
C1954 H1945 0.930 . S
C1954 C1952 1.378 . S
C1954 C1955 1.367 . S
C1955 C1954 1.367 . S
C1955 C1957 1.433 . S
C1956 C1952 1.350 . S
C1956 C1953 1.463 . S
C1956 N1960 1.427 . S
C1957 H1947 0.929 . S
C1957 C1955 1.433 . S
C1957 N1960 1.384 . S
C1958 H1949 0.929 . S
C1958 C1950 1.378 . S
C1958 C1953 1.350 . S
C1959 H1946 0.929 . S
C1959 C1951 1.433 . S
C1959 N1961 1.384 . S
N1960 C1956 1.427 . S
N1960 C1957 1.384 . S
N1961 C1953 1.427 . S
N1961 C1959 1.384 . S
H1962 C1968 0.930 . S
H1963 C1972 0.930 . S
H1964 C1977 0.929 . S
H1965 C1975 0.929 . S
H1966 C1970 0.929 . S
H1967 C1976 0.929 . S
C1968 H1962 0.930 . S
C1968 C1969 1.367 . S
C1968 C1976 1.378 . S
C1969 C1968 1.367 . S
C1969 C1977 1.433 . S
C1970 H1966 0.929 . S
C1970 C1972 1.378 . S
C1970 C1974 1.350 . S
C1971 C1974 1.463 . S
C1971 C1976 1.350 . S
C1971 N1979 1.427 . S
C1972 H1963 0.930 . S
C1972 C1970 1.378 . S
C1972 C1973 1.367 . S
C1973 C1972 1.367 . S
C1973 C1975 1.433 . S
C1974 C1970 1.350 . S
C1974 C1971 1.463 . S
C1974 N1978 1.427 . S
C1975 H1965 0.929 . S
C1975 C1973 1.433 . S
C1975 N1978 1.384 . S
C1976 H1967 0.929 . S
C1976 C1968 1.378 . S
C1976 C1971 1.350 . S
C1977 H1964 0.929 . S
C1977 C1969 1.433 . S
C1977 N1979 1.384 . S
N1978 C1974 1.427 . S
N1978 C1975 1.384 . S
N1979 C1971 1.427 . S
N1979 C1977 1.384 . S
H1980 C1986 0.930 . S
H1981 C1990 0.930 . S
H1982 C1995 0.929 . S
H1983 C1993 0.929 1_455 S
H1984 C1988 0.929 . S
H1985 C1994 0.929 . S
C1986 H1980 0.930 . S
C1986 C1987 1.367 . S
C1986 C1994 1.378 . S
C1987 C1986 1.367 . S
C1987 C1995 1.433 . S
C1988 H1984 0.929 . S
C1988 C1990 1.378 . S
C1988 C1992 1.350 . S
C1989 C1992 1.463 . S
C1989 C1994 1.350 . S
C1989 N1997 1.427 . S
C1990 H1981 0.930 . S
C1990 C1988 1.378 . S
C1990 C1991 1.367 . S
C1991 C1990 1.367 . S
C1991 C1993 1.433 . S
C1992 C1988 1.350 . S
C1992 C1989 1.463 . S
C1992 N1996 1.427 . S
C1993 H1983 0.929 1_655 S
C1993 C1991 1.433 . S
C1993 N1996 1.384 . S
C1994 H1985 0.929 . S
C1994 C1986 1.378 . S
C1994 C1989 1.350 . S
C1995 H1982 0.929 . S
C1995 C1987 1.433 . S
C1995 N1997 1.384 . S
N1996 C1992 1.427 . S
N1996 C1993 1.384 . S
N1997 C1989 1.427 . S
N1997 C1995 1.384 . S
H1998 C2004 0.930 . S
H1999 C2008 0.930 . S
H2000 C2013 0.929 . S
H2001 C2011 0.929 . S
H2002 C2006 0.929 . S
H2003 C2012 0.929 . S
C2004 H1998 0.930 . S
C2004 C2005 1.367 . S
C2004 C2012 1.378 . S
C2005 C2004 1.367 . S
C2005 C2013 1.433 . S
C2006 H2002 0.929 . S
C2006 C2008 1.378 . S
C2006 C2010 1.350 . S
C2007 C2010 1.463 . S
C2007 C2012 1.350 . S
C2007 N2015 1.427 . S
C2008 H1999 0.930 . S
C2008 C2006 1.378 . S
C2008 C2009 1.367 . S
C2009 C2008 1.367 . S
C2009 C2011 1.433 . S
C2010 C2006 1.350 . S
C2010 C2007 1.463 . S
C2010 N2014 1.427 . S
C2011 H2001 0.929 . S
C2011 C2009 1.433 . S
C2011 N2014 1.384 . S
C2012 H2003 0.929 . S
C2012 C2004 1.378 . S
C2012 C2007 1.350 . S
C2013 H2000 0.929 . S
C2013 C2005 1.433 . S
C2013 N2015 1.384 . S
N2014 C2010 1.427 . S
N2014 C2011 1.384 . S
N2015 C2007 1.427 . S
N2015 C2013 1.384 . S
H2016 C2022 0.930 . S
H2017 C2026 0.930 . S
H2018 C2031 0.929 . S
H2019 C2029 0.929 . S
H2020 C2024 0.929 . S
H2021 C2030 0.929 . S
C2022 H2016 0.930 . S
C2022 C2023 1.367 . S
C2022 C2030 1.378 . S
C2023 C2022 1.367 . S
C2023 C2031 1.433 . S
C2024 H2020 0.929 . S
C2024 C2026 1.378 . S
C2024 C2028 1.350 . S
C2025 C2028 1.463 . S
C2025 C2030 1.350 . S
C2025 N2033 1.427 . S
C2026 H2017 0.930 . S
C2026 C2024 1.378 . S
C2026 C2027 1.367 . S
C2027 C2026 1.367 . S
C2027 C2029 1.433 . S
C2028 C2024 1.350 . S
C2028 C2025 1.463 . S
C2028 N2032 1.427 . S
C2029 H2019 0.929 . S
C2029 C2027 1.433 . S
C2029 N2032 1.384 . S
C2030 H2021 0.929 . S
C2030 C2022 1.378 . S
C2030 C2025 1.350 . S
C2031 H2018 0.929 . S
C2031 C2023 1.433 . S
C2031 N2033 1.384 . S
N2032 C2028 1.427 . S
N2032 C2029 1.384 . S
N2033 C2025 1.427 . S
N2033 C2031 1.384 . S
H2034 C2040 0.930 . S
H2035 C2044 0.930 . S
H2036 C2049 0.929 . S
H2037 C2047 0.929 1_655 S
H2038 C2042 0.929 . S
H2039 C2048 0.929 . S
C2040 H2034 0.930 . S
C2040 C2041 1.367 . S
C2040 C2048 1.378 . S
C2041 C2040 1.367 . S
C2041 C2049 1.433 . S
C2042 H2038 0.929 . S
C2042 C2044 1.378 . S
C2042 C2046 1.350 . S
C2043 C2046 1.463 . S
C2043 C2048 1.350 . S
C2043 N2051 1.427 . S
C2044 H2035 0.930 . S
C2044 C2042 1.378 . S
C2044 C2045 1.367 . S
C2045 C2044 1.367 . S
C2045 C2047 1.433 . S
C2046 C2042 1.350 . S
C2046 C2043 1.463 . S
C2046 N2050 1.427 . S
C2047 H2037 0.929 1_455 S
C2047 C2045 1.433 . S
C2047 N2050 1.384 . S
C2048 H2039 0.929 . S
C2048 C2040 1.378 . S
C2048 C2043 1.350 . S
C2049 H2036 0.929 . S
C2049 C2041 1.433 . S
C2049 N2051 1.384 . S
N2050 C2046 1.427 . S
N2050 C2047 1.384 . S
N2051 C2043 1.427 . S
N2051 C2049 1.384 . S
H2052 C2058 0.930 . S
H2053 C2062 0.930 . S
H2054 C2067 0.929 . S
H2055 C2065 0.929 . S
H2056 C2060 0.929 . S
H2057 C2066 0.929 . S
C2058 H2052 0.930 . S
C2058 C2059 1.367 . S
C2058 C2066 1.378 . S
C2059 C2058 1.367 . S
C2059 C2067 1.433 . S
C2060 H2056 0.929 . S
C2060 C2062 1.378 1_655 S
C2060 C2064 1.350 . S
C2061 C2064 1.463 . S
C2061 C2066 1.350 . S
C2061 N2069 1.427 . S
C2062 H2053 0.930 . S
C2062 C2060 1.378 1_455 S
C2062 C2063 1.367 . S
C2063 C2062 1.367 . S
C2063 C2065 1.433 1_455 S
C2064 C2060 1.350 . S
C2064 C2061 1.463 . S
C2064 N2068 1.427 . S
C2065 H2055 0.929 . S
C2065 C2063 1.433 1_655 S
C2065 N2068 1.384 . S
C2066 H2057 0.929 . S
C2066 C2058 1.378 . S
C2066 C2061 1.350 . S
C2067 H2054 0.929 . S
C2067 C2059 1.433 . S
C2067 N2069 1.384 . S
N2068 C2064 1.427 . S
N2068 C2065 1.384 . S
N2069 C2061 1.427 . S
N2069 C2067 1.384 . S
H2070 C2076 0.930 . S
H2071 C2080 0.930 . S
H2072 C2085 0.929 . S
H2073 C2083 0.929 . S
H2074 C2078 0.929 . S
H2075 C2084 0.929 . S
C2076 H2070 0.930 . S
C2076 C2077 1.367 . S
C2076 C2084 1.378 . S
C2077 C2076 1.367 . S
C2077 C2085 1.433 . S
C2078 H2074 0.929 . S
C2078 C2080 1.378 . S
C2078 C2082 1.350 . S
C2079 C2082 1.463 . S
C2079 C2084 1.350 . S
C2079 N2087 1.427 . S
C2080 H2071 0.930 . S
C2080 C2078 1.378 . S
C2080 C2081 1.367 . S
C2081 C2080 1.367 . S
C2081 C2083 1.433 . S
C2082 C2078 1.350 . S
C2082 C2079 1.463 . S
C2082 N2086 1.427 . S
C2083 H2073 0.929 . S
C2083 C2081 1.433 . S
C2083 N2086 1.384 . S
C2084 H2075 0.929 . S
C2084 C2076 1.378 . S
C2084 C2079 1.350 . S
C2085 H2072 0.929 . S
C2085 C2077 1.433 . S
C2085 N2087 1.384 . S
N2086 C2082 1.427 . S
N2086 C2083 1.384 . S
N2087 C2079 1.427 . S
N2087 C2085 1.384 . S
H2088 C2094 0.930 . S
H2089 C2098 0.930 . S
H2090 C2103 0.929 . S
H2091 C2101 0.929 . S
H2092 C2096 0.929 . S
H2093 C2102 0.929 . S
C2094 H2088 0.930 . S
C2094 C2095 1.367 . S
C2094 C2102 1.378 1_565 S
C2095 C2094 1.367 . S
C2095 C2103 1.433 1_565 S
C2096 H2092 0.929 . S
C2096 C2098 1.378 . S
C2096 C2100 1.350 . S
C2097 C2100 1.463 . S
C2097 C2102 1.350 . S
C2097 N2105 1.427 . S
C2098 H2089 0.930 . S
C2098 C2096 1.378 . S
C2098 C2099 1.367 . S
C2099 C2098 1.367 . S
C2099 C2101 1.433 . S
C2100 C2096 1.350 . S
C2100 C2097 1.463 . S
C2100 N2104 1.427 . S
C2101 H2091 0.929 . S
C2101 C2099 1.433 . S
C2101 N2104 1.384 . S
C2102 H2093 0.929 . S
C2102 C2094 1.378 1_545 S
C2102 C2097 1.350 . S
C2103 H2090 0.929 . S
C2103 C2095 1.433 1_545 S
C2103 N2105 1.384 . S
N2104 C2100 1.427 . S
N2104 C2101 1.384 . S
N2105 C2097 1.427 . S
N2105 C2103 1.384 . S
H2106 C2112 0.930 . S
H2107 C2116 0.930 . S
H2108 C2121 0.929 . S
H2109 C2119 0.910 1_655 S
H2110 C2114 0.929 . S
H2111 C2120 0.929 . S
C2112 H2106 0.930 . S
C2112 C2113 1.367 . S
C2112 C2120 1.378 . S
C2113 C2112 1.367 . S
C2113 C2121 1.433 1_655 S
C2114 H2110 0.929 . S
C2114 C2116 1.378 . S
C2114 C2118 1.350 . S
C2115 C2118 1.463 . S
C2115 C2120 1.350 1_455 S
C2115 N2123 1.427 . S
C2116 H2107 0.930 . S
C2116 C2114 1.378 . S
C2116 C2117 1.367 . S
C2117 C2116 1.367 . S
C2117 C2119 1.449 . S
C2118 C2114 1.350 . S
C2118 C2115 1.463 . S
C2118 N2122 1.427 1_455 S
C2119 H2109 0.910 1_455 S
C2119 C2117 1.449 . S
C2119 N2122 1.389 1_455 S
C2120 H2111 0.929 . S
C2120 C2112 1.378 . S
C2120 C2115 1.350 1_655 S
C2121 H2108 0.929 . S
C2121 C2113 1.433 1_455 S
C2121 N2123 1.384 . S
N2122 C2118 1.427 1_655 S
N2122 C2119 1.389 1_655 S
N2123 C2115 1.427 . S
N2123 C2121 1.384 . S
H2124 C2130 0.930 . S
H2125 C2134 0.930 . S
H2126 C2139 0.929 . S
H2127 C2137 0.929 . S
H2128 C2132 0.929 . S
H2129 C2138 0.929 . S
C2130 H2124 0.930 . S
C2130 C2131 1.367 . S
C2130 C2138 1.378 . S
C2131 C2130 1.367 . S
C2131 C2139 1.433 . S
C2132 H2128 0.929 . S
C2132 C2134 1.378 . S
C2132 C2136 1.350 . S
C2133 C2136 1.463 . S
C2133 C2138 1.350 . S
C2133 N2141 1.427 . S
C2134 H2125 0.930 . S
C2134 C2132 1.378 . S
C2134 C2135 1.367 . S
C2135 C2134 1.367 . S
C2135 C2137 1.433 . S
C2136 C2132 1.350 . S
C2136 C2133 1.463 . S
C2136 N2140 1.427 . S
C2137 H2127 0.929 . S
C2137 C2135 1.433 . S
C2137 N2140 1.384 . S
C2138 H2129 0.929 . S
C2138 C2130 1.378 . S
C2138 C2133 1.350 . S
C2139 H2126 0.929 . S
C2139 C2131 1.433 . S
C2139 N2141 1.384 . S
N2140 C2136 1.427 . S
N2140 C2137 1.384 . S
N2141 C2133 1.427 . S
N2141 C2139 1.384 . S
H2142 C2148 0.930 . S
H2143 C2152 0.930 . S
H2144 C2157 0.929 . S
H2145 C2155 0.929 . S
H2146 C2150 0.929 1_545 S
H2147 C2156 0.929 . S
C2148 H2142 0.930 . S
C2148 C2149 1.367 1_565 S
C2148 C2156 1.378 . S
C2149 C2148 1.367 1_545 S
C2149 C2157 1.433 . S
C2150 H2146 0.929 1_565 S
C2150 C2152 1.378 . S
C2150 C2154 1.350 . S
C2151 C2154 1.463 . S
C2151 C2156 1.350 . S
C2151 N2159 1.427 1_565 S
C2152 H2143 0.930 . S
C2152 C2150 1.378 . S
C2152 C2153 1.367 . S
C2153 C2152 1.367 . S
C2153 C2155 1.433 . S
C2154 C2150 1.350 . S
C2154 C2151 1.463 . S
C2154 N2158 1.427 . S
C2155 H2145 0.929 . S
C2155 C2153 1.433 . S
C2155 N2158 1.384 . S
C2156 H2147 0.929 . S
C2156 C2148 1.378 . S
C2156 C2151 1.350 . S
C2157 H2144 0.929 . S
C2157 C2149 1.433 . S
C2157 N2159 1.384 . S
N2158 C2154 1.427 . S
N2158 C2155 1.384 . S
N2159 C2151 1.427 1_545 S
N2159 C2157 1.384 . S
H2160 C2166 0.930 . S
H2161 C2170 0.930 . S
H2162 C2175 0.929 . S
H2163 C2173 0.929 . S
H2164 C2168 0.929 . S
H2165 C2174 0.929 . S
C2166 H2160 0.930 . S
C2166 C2167 1.367 . S
C2166 C2174 1.378 . S
C2167 C2166 1.367 . S
C2167 C2175 1.433 . S
C2168 H2164 0.929 . S
C2168 C2170 1.378 . S
C2168 C2172 1.350 . S
C2169 C2172 1.463 . S
C2169 C2174 1.350 . S
C2169 N2177 1.427 . S
C2170 H2161 0.930 . S
C2170 C2168 1.378 . S
C2170 C2171 1.367 1_565 S
C2171 C2170 1.367 1_545 S
C2171 C2173 1.433 . S
C2172 C2168 1.350 . S
C2172 C2169 1.463 . S
C2172 N2176 1.427 . S
C2173 H2163 0.929 . S
C2173 C2171 1.433 . S
C2173 N2176 1.384 1_545 S
C2174 H2165 0.929 . S
C2174 C2166 1.378 . S
C2174 C2169 1.350 . S
C2175 H2162 0.929 . S
C2175 C2167 1.433 . S
C2175 N2177 1.384 . S
N2176 C2172 1.427 . S
N2176 C2173 1.384 1_565 S
N2177 C2169 1.427 . S
N2177 C2175 1.384 . S
H2178 C2184 0.930 . S
H2179 C2188 0.930 . S
H2180 C2193 0.929 . S
H2181 C2191 0.929 . S
H2182 C2186 0.929 . S
H2183 C2192 0.929 . S
C2184 H2178 0.930 . S
C2184 C2185 1.367 . S
C2184 C2192 1.378 . S
C2185 C2184 1.367 . S
C2185 C2193 1.433 1_655 S
C2186 H2182 0.929 . S
C2186 C2188 1.378 . S
C2186 C2190 1.350 . S
C2187 C2190 1.463 . S
C2187 C2192 1.350 1_455 S
C2187 N2195 1.427 . S
C2188 H2179 0.930 . S
C2188 C2186 1.378 . S
C2188 C2189 1.367 . S
C2189 C2188 1.367 . S
C2189 C2191 1.433 . S
C2190 C2186 1.350 . S
C2190 C2187 1.463 . S
C2190 N2194 1.427 . S
C2191 H2181 0.929 . S
C2191 C2189 1.433 . S
C2191 N2194 1.384 . S
C2192 H2183 0.929 . S
C2192 C2184 1.378 . S
C2192 C2187 1.350 1_655 S
C2193 H2180 0.929 . S
C2193 C2185 1.433 1_455 S
C2193 N2195 1.384 . S
N2194 C2190 1.427 . S
N2194 C2191 1.384 . S
N2195 C2187 1.427 . S
N2195 C2193 1.384 . S
H2196 C2202 0.930 . S
H2197 C2206 0.930 . S
H2198 C2211 0.929 . S
H2199 C2209 0.929 . S
H2200 C2204 0.929 . S
H2201 C2210 0.929 . S
C2202 H2196 0.930 . S
C2202 C2203 1.367 . S
C2202 C2210 1.378 . S
C2203 C2202 1.367 . S
C2203 C2211 1.433 . S
C2204 H2200 0.929 . S
C2204 C2206 1.378 . S
C2204 C2208 1.350 . S
C2205 C2208 1.463 . S
C2205 C2210 1.350 . S
C2205 N2213 1.427 . S
C2206 H2197 0.930 . S
C2206 C2204 1.378 . S
C2206 C2207 1.367 . S
C2207 C2206 1.367 . S
C2207 C2209 1.433 . S
C2208 C2204 1.350 . S
C2208 C2205 1.463 . S
C2208 N2212 1.427 . S
C2209 H2199 0.929 . S
C2209 C2207 1.433 . S
C2209 N2212 1.384 . S
C2210 H2201 0.929 . S
C2210 C2202 1.378 . S
C2210 C2205 1.350 . S
C2211 H2198 0.929 . S
C2211 C2203 1.433 . S
C2211 N2213 1.384 . S
N2212 C2208 1.427 . S
N2212 C2209 1.384 . S
N2213 C2205 1.427 . S
N2213 C2211 1.384 . S
H2214 C2220 0.930 . S
H2215 C2224 0.930 . S
H2216 C2229 0.929 . S
H2217 C2227 0.929 . S
H2218 C2222 0.929 . S
H2219 C2228 0.929 . S
C2220 H2214 0.930 . S
C2220 C2221 1.367 1_545 S
C2220 C2228 1.378 . S
C2221 C2220 1.367 1_565 S
C2221 C2229 1.433 . S
C2222 H2218 0.929 . S
C2222 C2224 1.378 . S
C2222 C2226 1.350 . S
C2223 C2226 1.463 1_556 S
C2223 C2228 1.350 . S
C2223 N2231 1.431 1_556 S
C2224 H2215 0.930 . S
C2224 C2222 1.378 . S
C2224 C2225 1.367 . S
C2225 C2224 1.367 . S
C2225 C2227 1.433 . S
C2226 C2222 1.350 . S
C2226 C2223 1.463 1_554 S
C2226 N2230 1.430 . S
C2227 H2217 0.929 . S
C2227 C2225 1.433 . S
C2227 N2230 1.388 . S
C2228 H2219 0.929 . S
C2228 C2220 1.378 . S
C2228 C2223 1.350 . S
C2229 H2216 0.929 . S
C2229 C2221 1.433 . S
C2229 N2231 1.389 1_566 S
N2230 C2226 1.430 . S
N2230 C2227 1.388 . S
N2231 C2223 1.431 1_554 S
N2231 C2229 1.389 1_544 S
H2232 C2238 0.930 . S
H2233 C2242 0.930 . S
H2234 C2247 0.929 . S
H2235 C2245 0.929 . S
H2236 C2240 0.929 1_554 S
H2237 C2246 0.929 1_556 S
C2238 H2232 0.930 . S
C2238 C2239 1.367 . S
C2238 C2246 1.378 . S
C2239 C2238 1.367 . S
C2239 C2247 1.433 . S
C2240 H2236 0.929 1_556 S
C2240 C2242 1.378 1_655 S
C2240 C2244 1.350 . S
C2241 C2244 1.463 1_554 S
C2241 C2246 1.350 . S
C2241 N2249 1.427 . S
C2242 H2233 0.930 . S
C2242 C2240 1.378 1_455 S
C2242 C2243 1.367 . S
C2243 C2242 1.367 . S
C2243 C2245 1.433 1_455 S
C2244 C2240 1.350 . S
C2244 C2241 1.463 1_556 S
C2244 N2248 1.427 . S
C2245 H2235 0.929 . S
C2245 C2243 1.433 1_655 S
C2245 N2248 1.384 . S
C2246 H2237 0.929 1_554 S
C2246 C2238 1.378 . S
C2246 C2241 1.350 . S
C2247 H2234 0.929 . S
C2247 C2239 1.433 . S
C2247 N2249 1.384 . S
N2248 C2244 1.427 . S
N2248 C2245 1.384 . S
N2249 C2241 1.427 . S
N2249 C2247 1.384 . S
H2250 C2256 0.930 . S
H2251 C2260 0.930 . S
H2252 C2265 0.929 . S
H2253 C2263 0.929 . S
H2254 C2258 0.929 . S
H2255 C2264 0.929 . S
C2256 H2250 0.930 . S
C2256 C2257 1.367 . S
C2256 C2264 1.378 . S
C2257 C2256 1.367 . S
C2257 C2265 1.433 . S
C2258 H2254 0.929 . S
C2258 C2260 1.378 . S
C2258 C2262 1.350 . S
C2259 C2262 1.463 1_554 S
C2259 C2264 1.350 . S
C2259 N2267 1.427 . S
C2260 H2251 0.930 . S
C2260 C2258 1.378 . S
C2260 C2261 1.367 . S
C2261 C2260 1.367 . S
C2261 C2263 1.433 . S
C2262 C2258 1.350 . S
C2262 C2259 1.463 1_556 S
C2262 N2266 1.427 . S
C2263 H2253 0.929 . S
C2263 C2261 1.433 . S
C2263 N2266 1.384 . S
C2264 H2255 0.929 . S
C2264 C2256 1.378 . S
C2264 C2259 1.350 . S
C2265 H2252 0.929 . S
C2265 C2257 1.433 . S
C2265 N2267 1.384 . S
N2266 C2262 1.427 . S
N2266 C2263 1.384 . S
N2267 C2259 1.427 . S
N2267 C2265 1.384 . S
H2268 C2274 0.930 1_565 S
H2269 C2278 0.930 . S
H2270 C2283 0.929 . S
H2271 C2281 0.929 . S
H2272 C2276 0.929 . S
H2273 C2282 0.929 . S
C2274 H2268 0.930 1_545 S
C2274 C2275 1.367 . S
C2274 C2282 1.378 1_545 S
C2275 C2274 1.367 . S
C2275 C2283 1.433 . S
C2276 H2272 0.929 . S
C2276 C2278 1.378 . S
C2276 C2280 1.350 . S
C2277 C2280 1.463 . S
C2277 C2282 1.350 1_545 S
C2277 N2285 1.427 . S
C2278 H2269 0.930 . S
C2278 C2276 1.378 . S
C2278 C2279 1.367 1_545 S
C2279 C2278 1.367 1_565 S
C2279 C2281 1.433 . S
C2280 C2276 1.350 . S
C2280 C2277 1.463 . S
C2280 N2284 1.427 1_545 S
C2281 H2271 0.929 . S
C2281 C2279 1.433 . S
C2281 N2284 1.384 . S
C2282 H2273 0.929 . S
C2282 C2274 1.378 1_565 S
C2282 C2277 1.350 1_565 S
C2283 H2270 0.929 . S
C2283 C2275 1.433 . S
C2283 N2285 1.384 . S
N2284 C2280 1.427 1_565 S
N2284 C2281 1.384 . S
N2285 C2277 1.427 . S
N2285 C2283 1.384 . S
H2286 C2292 0.922 1_455 S
H2287 C2296 0.930 . S
H2288 C2301 0.929 . S
H2289 C2299 0.929 . S
H2290 C2294 0.929 . S
H2291 C2300 0.929 . S
C2292 H2286 0.922 1_655 S
C2292 C2293 1.391 . S
C2292 C2300 1.363 1_655 S
C2293 C2292 1.391 . S
C2293 C2301 1.433 . S
C2294 H2290 0.929 . S
C2294 C2296 1.378 . S
C2294 C2298 1.350 . S
C2295 C2298 1.463 . S
C2295 C2300 1.350 1_655 S
C2295 N2303 1.427 . S
C2296 H2287 0.930 . S
C2296 C2294 1.378 . S
C2296 C2297 1.367 1_655 S
C2297 C2296 1.367 1_455 S
C2297 C2299 1.433 . S
C2298 C2294 1.350 . S
C2298 C2295 1.463 . S
C2298 N2302 1.427 1_655 S
C2299 H2289 0.929 . S
C2299 C2297 1.433 . S
C2299 N2302 1.384 . S
C2300 H2291 0.929 . S
C2300 C2292 1.363 1_455 S
C2300 C2295 1.350 1_455 S
C2301 H2288 0.929 . S
C2301 C2293 1.433 . S
C2301 N2303 1.384 . S
N2302 C2298 1.427 1_455 S
N2302 C2299 1.384 . S
N2303 C2295 1.427 . S
N2303 C2301 1.384 . S
H2304 C2310 0.930 . S
H2305 C2314 0.930 . S
H2306 C2319 0.929 . S
H2307 C2317 0.929 . S
H2308 C2312 0.929 . S
H2309 C2318 0.929 . S
C2310 H2304 0.930 . S
C2310 C2311 1.367 . S
C2310 C2318 1.378 . S
C2311 C2310 1.367 . S
C2311 C2319 1.433 . S
C2312 H2308 0.929 . S
C2312 C2314 1.378 . S
C2312 C2316 1.350 . S
C2313 C2316 1.463 . S
C2313 C2318 1.350 . S
C2313 N2321 1.427 . S
C2314 H2305 0.930 . S
C2314 C2312 1.378 . S
C2314 C2315 1.367 . S
C2315 C2314 1.367 . S
C2315 C2317 1.433 . S
C2316 C2312 1.350 . S
C2316 C2313 1.463 . S
C2316 N2320 1.427 . S
C2317 H2307 0.929 . S
C2317 C2315 1.433 . S
C2317 N2320 1.384 . S
C2318 H2309 0.929 . S
C2318 C2310 1.378 . S
C2318 C2313 1.350 . S
C2319 H2306 0.929 . S
C2319 C2311 1.433 . S
C2319 N2321 1.384 . S
N2320 C2316 1.427 . S
N2320 C2317 1.384 . S
N2321 C2313 1.427 . S
N2321 C2319 1.384 . S
H2322 C2328 0.930 . S
H2323 C2332 0.930 . S
H2324 C2337 0.929 . S
H2325 C2335 0.929 . S
H2326 C2330 0.979 . S
H2327 C2336 0.954 . S
C2328 H2322 0.930 . S
C2328 C2329 1.367 . S
C2328 C2336 1.362 1_556 S
C2329 C2328 1.367 . S
C2329 C2337 1.433 . S
C2330 H2326 0.979 . S
C2330 C2332 1.347 1_566 S
C2330 C2334 1.332 1_556 S
C2331 C2334 1.463 1_556 S
C2331 C2336 1.341 1_556 S
C2331 N2339 1.427 . S
C2332 H2323 0.930 . S
C2332 C2330 1.347 1_544 S
C2332 C2333 1.367 . S
C2333 C2332 1.367 . S
C2333 C2335 1.433 1_545 S
C2334 C2330 1.332 1_554 S
C2334 C2331 1.463 1_554 S
C2334 N2338 1.427 . S
C2335 H2325 0.929 . S
C2335 C2333 1.433 1_565 S
C2335 N2338 1.384 . S
C2336 H2327 0.954 . S
C2336 C2328 1.362 1_554 S
C2336 C2331 1.341 1_554 S
C2337 H2324 0.929 . S
C2337 C2329 1.433 . S
C2337 N2339 1.384 . S
N2338 C2334 1.427 . S
N2338 C2335 1.384 . S
N2339 C2331 1.427 . S
N2339 C2337 1.384 . S
H2340 C2346 0.930 1_655 S
H2341 C2350 0.930 . S
H2342 C2355 0.929 1_655 S
H2343 C2353 0.929 . S
H2344 C2348 0.864 1_554 S
H2345 C2354 0.929 1_556 S
C2346 H2340 0.930 1_455 S
C2346 C2347 1.367 1_455 S
C2346 C2354 1.378 . S
C2347 C2346 1.367 1_655 S
C2347 C2355 1.433 1_655 S
C2348 H2344 0.864 1_556 S
C2348 C2350 1.378 . S
C2348 C2352 1.350 . S
C2349 C2352 1.463 1_554 S
C2349 C2354 1.350 . S
C2349 N2357 1.427 . S
C2350 H2341 0.930 . S
C2350 C2348 1.378 . S
C2350 C2351 1.367 . S
C2351 C2350 1.367 . S
C2351 C2353 1.433 . S
C2352 C2348 1.350 . S
C2352 C2349 1.463 1_556 S
C2352 N2356 1.427 . S
C2353 H2343 0.929 . S
C2353 C2351 1.433 . S
C2353 N2356 1.384 . S
C2354 H2345 0.929 1_554 S
C2354 C2346 1.378 . S
C2354 C2349 1.350 . S
C2355 H2342 0.929 1_455 S
C2355 C2347 1.433 1_455 S
C2355 N2357 1.384 . S
N2356 C2352 1.427 . S
N2356 C2353 1.384 . S
N2357 C2349 1.427 . S
N2357 C2355 1.384 . S
H2358 C2364 0.930 . S
H2359 C2368 0.930 . S
H2360 C2373 0.929 . S
H2361 C2371 0.929 . S
H2362 C2366 0.929 . S
H2363 C2372 0.929 . S
C2364 H2358 0.930 . S
C2364 C2365 1.367 . S
C2364 C2372 1.378 . S
C2365 C2364 1.367 . S
C2365 C2373 1.433 . S
C2366 H2362 0.929 . S
C2366 C2368 1.378 . S
C2366 C2370 1.350 . S
C2367 C2370 1.463 1_556 S
C2367 C2372 1.350 . S
C2367 N2375 1.427 . S
C2368 H2359 0.930 . S
C2368 C2366 1.378 . S
C2368 C2369 1.367 . S
C2369 C2368 1.367 . S
C2369 C2371 1.433 . S
C2370 C2366 1.350 . S
C2370 C2367 1.463 1_554 S
C2370 N2374 1.427 . S
C2371 H2361 0.929 . S
C2371 C2369 1.433 . S
C2371 N2374 1.384 . S
C2372 H2363 0.929 . S
C2372 C2364 1.378 . S
C2372 C2367 1.350 . S
C2373 H2360 0.929 . S
C2373 C2365 1.433 . S
C2373 N2375 1.384 . S
N2374 C2370 1.427 . S
N2374 C2371 1.384 . S
N2375 C2367 1.427 . S
N2375 C2373 1.384 . S
H2376 C2382 0.930 . S
H2377 C2386 0.930 . S
H2378 C2391 0.929 . S
H2379 C2389 0.929 . S
H2380 C2384 0.929 . S
H2381 C2390 0.929 . S
C2382 H2376 0.930 . S
C2382 C2383 1.367 . S
C2382 C2390 1.378 1_655 S
C2383 C2382 1.367 . S
C2383 C2391 1.433 1_655 S
C2384 H2380 0.929 . S
C2384 C2386 1.378 . S
C2384 C2388 1.350 . S
C2385 C2388 1.463 . S
C2385 C2390 1.350 . S
C2385 N2393 1.427 . S
C2386 H2377 0.930 . S
C2386 C2384 1.378 . S
C2386 C2387 1.367 . S
C2387 C2386 1.367 . S
C2387 C2389 1.433 . S
C2388 C2384 1.350 . S
C2388 C2385 1.463 . S
C2388 N2392 1.427 . S
C2389 H2379 0.929 . S
C2389 C2387 1.433 . S
C2389 N2392 1.384 . S
C2390 H2381 0.929 . S
C2390 C2382 1.378 1_455 S
C2390 C2385 1.350 . S
C2391 H2378 0.929 . S
C2391 C2383 1.433 1_455 S
C2391 N2393 1.384 . S
N2392 C2388 1.427 . S
N2392 C2389 1.384 . S
N2393 C2385 1.427 . S
N2393 C2391 1.384 . S
H2394 C2400 0.930 . S
H2395 C2404 0.930 . S
H2396 C2409 0.929 . S
H2397 C2407 0.929 . S
H2398 C2402 0.929 . S
H2399 C2408 0.929 . S
C2400 H2394 0.930 . S
C2400 C2401 1.367 . S
C2400 C2408 1.378 . S
C2401 C2400 1.367 . S
C2401 C2409 1.433 . S
C2402 H2398 0.929 . S
C2402 C2404 1.378 . S
C2402 C2406 1.350 . S
C2403 C2406 1.463 . S
C2403 C2408 1.350 . S
C2403 N2411 1.427 . S
C2404 H2395 0.930 . S
C2404 C2402 1.378 . S
C2404 C2405 1.367 . S
C2405 C2404 1.367 . S
C2405 C2407 1.433 . S
C2406 C2402 1.350 . S
C2406 C2403 1.463 . S
C2406 N2410 1.427 . S
C2407 H2397 0.929 . S
C2407 C2405 1.433 . S
C2407 N2410 1.384 . S
C2408 H2399 0.929 . S
C2408 C2400 1.378 . S
C2408 C2403 1.350 . S
C2409 H2396 0.929 . S
C2409 C2401 1.433 . S
C2409 N2411 1.384 . S
N2410 C2406 1.427 . S
N2410 C2407 1.384 . S
N2411 C2403 1.427 . S
N2411 C2409 1.384 . S
H2412 C2418 0.930 . S
H2413 C2422 0.930 . S
H2414 C2427 0.929 . S
H2415 C2425 0.929 . S
H2416 C2420 0.929 . S
H2417 C2426 0.929 . S
C2418 H2412 0.930 . S
C2418 C2419 1.367 . S
C2418 C2426 1.378 . S
C2419 C2418 1.367 . S
C2419 C2427 1.433 . S
C2420 H2416 0.929 . S
C2420 C2422 1.378 1_565 S
C2420 C2424 1.350 . S
C2421 C2424 1.463 . S
C2421 C2426 1.350 . S
C2421 N2429 1.427 . S
C2422 H2413 0.930 . S
C2422 C2420 1.378 1_545 S
C2422 C2423 1.367 . S
C2423 C2422 1.367 . S
C2423 C2425 1.433 1_545 S
C2424 C2420 1.350 . S
C2424 C2421 1.463 . S
C2424 N2428 1.427 . S
C2425 H2415 0.929 . S
C2425 C2423 1.433 1_565 S
C2425 N2428 1.384 . S
C2426 H2417 0.929 . S
C2426 C2418 1.378 . S
C2426 C2421 1.350 . S
C2427 H2414 0.929 . S
C2427 C2419 1.433 . S
C2427 N2429 1.384 . S
N2428 C2424 1.427 . S
N2428 C2425 1.384 . S
N2429 C2421 1.427 . S
N2429 C2427 1.384 . S
H2430 C2436 0.930 1_455 S
H2431 C2440 0.930 . S
H2432 C2445 0.929 . S
H2433 C2443 0.929 . S
H2434 C2438 0.929 . S
H2435 C2444 0.929 . S
C2436 H2430 0.930 1_655 S
C2436 C2437 1.367 . S
C2436 C2444 1.378 1_655 S
C2437 C2436 1.367 . S
C2437 C2445 1.433 . S
C2438 H2434 0.929 . S
C2438 C2440 1.378 . S
C2438 C2442 1.350 . S
C2439 C2442 1.463 . S
C2439 C2444 1.350 1_655 S
C2439 N2447 1.427 . S
C2440 H2431 0.930 . S
C2440 C2438 1.378 . S
C2440 C2441 1.367 1_655 S
C2441 C2440 1.367 1_455 S
C2441 C2443 1.433 . S
C2442 C2438 1.350 . S
C2442 C2439 1.463 . S
C2442 N2446 1.427 1_655 S
C2443 H2433 0.929 . S
C2443 C2441 1.433 . S
C2443 N2446 1.384 . S
C2444 H2435 0.929 . S
C2444 C2436 1.378 1_455 S
C2444 C2439 1.350 1_455 S
C2445 H2432 0.929 . S
C2445 C2437 1.433 . S
C2445 N2447 1.384 . S
N2446 C2442 1.427 1_455 S
N2446 C2443 1.384 . S
N2447 C2439 1.427 . S
N2447 C2445 1.384 . S
H2448 C2454 0.930 . S
H2449 C2458 0.930 . S
H2450 C2463 0.929 . S
H2451 C2461 0.929 . S
H2452 C2456 0.929 . S
H2453 C2462 0.929 . S
C2454 H2448 0.930 . S
C2454 C2455 1.367 . S
C2454 C2462 1.378 . S
C2455 C2454 1.367 . S
C2455 C2463 1.433 . S
C2456 H2452 0.929 . S
C2456 C2458 1.378 . S
C2456 C2460 1.350 . S
C2457 C2460 1.463 . S
C2457 C2462 1.350 . S
C2457 N2465 1.427 . S
C2458 H2449 0.930 . S
C2458 C2456 1.378 . S
C2458 C2459 1.367 . S
C2459 C2458 1.367 . S
C2459 C2461 1.433 . S
C2460 C2456 1.350 . S
C2460 C2457 1.463 . S
C2460 N2464 1.427 . S
C2461 H2451 0.929 . S
C2461 C2459 1.433 . S
C2461 N2464 1.384 . S
C2462 H2453 0.929 . S
C2462 C2454 1.378 . S
C2462 C2457 1.350 . S
C2463 H2450 0.929 . S
C2463 C2455 1.433 . S
C2463 N2465 1.384 . S
N2464 C2460 1.427 . S
N2464 C2461 1.384 . S
N2465 C2457 1.427 . S
N2465 C2463 1.384 . S
H2466 C2472 0.930 . S
H2467 C2476 0.930 . S
H2468 C2481 0.929 . S
H2469 C2479 0.929 . S
H2470 C2474 0.929 . S
H2471 C2480 0.929 . S
C2472 H2466 0.930 . S
C2472 C2473 1.367 . S
C2472 C2480 1.378 . S
C2473 C2472 1.367 . S
C2473 C2481 1.433 . S
C2474 H2470 0.929 . S
C2474 C2476 1.378 1_545 S
C2474 C2478 1.350 . S
C2475 C2478 1.463 . S
C2475 C2480 1.350 . S
C2475 N2483 1.427 . S
C2476 H2467 0.930 . S
C2476 C2474 1.378 1_565 S
C2476 C2477 1.367 . S
C2477 C2476 1.367 . S
C2477 C2479 1.433 1_565 S
C2478 C2474 1.350 . S
C2478 C2475 1.463 . S
C2478 N2482 1.427 . S
C2479 H2469 0.929 . S
C2479 C2477 1.433 1_545 S
C2479 N2482 1.384 . S
C2480 H2471 0.929 . S
C2480 C2472 1.378 . S
C2480 C2475 1.350 . S
C2481 H2468 0.929 . S
C2481 C2473 1.433 . S
C2481 N2483 1.384 . S
N2482 C2478 1.427 . S
N2482 C2479 1.384 . S
N2483 C2475 1.427 . S
N2483 C2481 1.384 . S
H2484 C2490 0.930 . S
H2485 C2494 0.930 . S
H2486 C2499 0.929 . S
H2487 C2497 0.929 . S
H2488 C2492 0.914 1_655 S
H2489 C2498 0.916 1_455 S
C2490 H2484 0.930 . S
C2490 C2491 1.367 . S
C2490 C2498 1.391 . S
C2491 C2490 1.367 . S
C2491 C2499 1.433 . S
C2492 H2488 0.914 1_455 S
C2492 C2494 1.392 . S
C2492 C2496 1.351 . S
C2493 C2496 1.463 1_655 S
C2493 C2498 1.351 . S
C2493 N2501 1.427 . S
C2494 H2485 0.930 . S
C2494 C2492 1.392 . S
C2494 C2495 1.367 . S
C2495 C2494 1.367 . S
C2495 C2497 1.433 . S
C2496 C2492 1.351 . S
C2496 C2493 1.463 1_455 S
C2496 N2500 1.427 . S
C2497 H2487 0.929 . S
C2497 C2495 1.433 . S
C2497 N2500 1.384 . S
C2498 H2489 0.916 1_655 S
C2498 C2490 1.391 . S
C2498 C2493 1.351 . S
C2499 H2486 0.929 . S
C2499 C2491 1.433 . S
C2499 N2501 1.384 . S
N2500 C2496 1.427 . S
N2500 C2497 1.384 . S
N2501 C2493 1.427 . S
N2501 C2499 1.384 . S
H2502 C2508 0.930 . S
H2503 C2512 0.930 . S
H2504 C2517 0.929 . S
H2505 C2515 0.929 . S
H2506 C2510 0.929 . S
H2507 C2516 0.929 . S
C2508 H2502 0.930 . S
C2508 C2509 1.367 . S
C2508 C2516 1.378 . S
C2509 C2508 1.367 . S
C2509 C2517 1.433 . S
C2510 H2506 0.929 . S
C2510 C2512 1.378 . S
C2510 C2514 1.350 . S
C2511 C2514 1.463 . S
C2511 C2516 1.350 . S
C2511 N2519 1.427 . S
C2512 H2503 0.930 . S
C2512 C2510 1.378 . S
C2512 C2513 1.367 . S
C2513 C2512 1.367 . S
C2513 C2515 1.433 . S
C2514 C2510 1.350 . S
C2514 C2511 1.463 . S
C2514 N2518 1.427 . S
C2515 H2505 0.929 . S
C2515 C2513 1.433 . S
C2515 N2518 1.384 . S
C2516 H2507 0.929 . S
C2516 C2508 1.378 . S
C2516 C2511 1.350 . S
C2517 H2504 0.929 . S
C2517 C2509 1.433 . S
C2517 N2519 1.384 . S
N2518 C2514 1.427 . S
N2518 C2515 1.384 . S
N2519 C2511 1.427 . S
N2519 C2517 1.384 . S
H2520 C2526 0.930 . S
H2521 C2530 0.930 . S
H2522 C2535 0.929 . S
H2523 C2533 0.929 . S
H2524 C2528 0.929 . S
H2525 C2534 0.929 . S
C2526 H2520 0.930 . S
C2526 C2527 1.367 . S
C2526 C2534 1.378 . S
C2527 C2526 1.367 . S
C2527 C2535 1.433 . S
C2528 H2524 0.929 . S
C2528 C2530 1.378 . S
C2528 C2532 1.350 . S
C2529 C2532 1.463 1_565 S
C2529 C2534 1.350 . S
C2529 N2537 1.427 . S
C2530 H2521 0.930 . S
C2530 C2528 1.378 . S
C2530 C2531 1.367 . S
C2531 C2530 1.367 . S
C2531 C2533 1.433 . S
C2532 C2528 1.350 . S
C2532 C2529 1.463 1_545 S
C2532 N2536 1.427 . S
C2533 H2523 0.929 . S
C2533 C2531 1.433 . S
C2533 N2536 1.384 . S
C2534 H2525 0.929 . S
C2534 C2526 1.378 . S
C2534 C2529 1.350 . S
C2535 H2522 0.929 . S
C2535 C2527 1.433 . S
C2535 N2537 1.384 . S
N2536 C2532 1.427 . S
N2536 C2533 1.384 . S
N2537 C2529 1.427 . S
N2537 C2535 1.384 . S
H2538 C2544 0.930 . S
H2539 C2548 0.930 . S
H2540 C2553 0.929 . S
H2541 C2551 0.929 . S
H2542 C2546 0.929 1_655 S
H2543 C2552 0.929 1_455 S
C2544 H2538 0.930 . S
C2544 C2545 1.367 . S
C2544 C2552 1.378 . S
C2545 C2544 1.367 . S
C2545 C2553 1.433 . S
C2546 H2542 0.929 1_455 S
C2546 C2548 1.378 . S
C2546 C2550 1.350 . S
C2547 C2550 1.463 1_655 S
C2547 C2552 1.350 . S
C2547 N2555 1.427 . S
C2548 H2539 0.930 . S
C2548 C2546 1.378 . S
C2548 C2549 1.367 . S
C2549 C2548 1.367 . S
C2549 C2551 1.433 . S
C2550 C2546 1.350 . S
C2550 C2547 1.463 1_455 S
C2550 N2554 1.427 . S
C2551 H2541 0.929 . S
C2551 C2549 1.433 . S
C2551 N2554 1.384 . S
C2552 H2543 0.929 1_655 S
C2552 C2544 1.378 . S
C2552 C2547 1.350 . S
C2553 H2540 0.929 . S
C2553 C2545 1.433 . S
C2553 N2555 1.384 . S
N2554 C2550 1.427 . S
N2554 C2551 1.384 . S
N2555 C2547 1.427 . S
N2555 C2553 1.384 . S
H2556 C2562 0.930 . S
H2557 C2566 0.930 . S
H2558 C2571 0.929 . S
H2559 C2569 0.929 . S
H2560 C2564 0.929 . S
H2561 C2570 0.929 . S
C2562 H2556 0.930 . S
C2562 C2563 1.367 . S
C2562 C2570 1.378 . S
C2563 C2562 1.367 . S
C2563 C2571 1.433 . S
C2564 H2560 0.929 . S
C2564 C2566 1.378 . S
C2564 C2568 1.350 . S
C2565 C2568 1.463 . S
C2565 C2570 1.350 . S
C2565 N2573 1.427 . S
C2566 H2557 0.930 . S
C2566 C2564 1.378 . S
C2566 C2567 1.367 . S
C2567 C2566 1.367 . S
C2567 C2569 1.433 . S
C2568 C2564 1.350 . S
C2568 C2565 1.463 . S
C2568 N2572 1.427 . S
C2569 H2559 0.929 . S
C2569 C2567 1.433 . S
C2569 N2572 1.384 . S
C2570 H2561 0.929 . S
C2570 C2562 1.378 . S
C2570 C2565 1.350 . S
C2571 H2558 0.929 . S
C2571 C2563 1.433 . S
C2571 N2573 1.384 . S
N2572 C2568 1.427 . S
N2572 C2569 1.384 . S
N2573 C2565 1.427 . S
N2573 C2571 1.384 . S
H2574 C2580 0.930 . S
H2575 C2584 0.930 . S
H2576 C2589 0.929 . S
H2577 C2587 0.929 . S
H2578 C2582 0.901 1_545 S
H2579 C2588 0.906 1_565 S
C2580 H2574 0.930 . S
C2580 C2581 1.367 . S
C2580 C2588 1.390 . S
C2581 C2580 1.367 . S
C2581 C2589 1.433 . S
C2582 H2578 0.901 1_565 S
C2582 C2584 1.392 . S
C2582 C2586 1.363 . S
C2583 C2586 1.463 1_545 S
C2583 C2588 1.361 . S
C2583 N2591 1.427 . S
C2584 H2575 0.930 . S
C2584 C2582 1.392 . S
C2584 C2585 1.367 . S
C2585 C2584 1.367 . S
C2585 C2587 1.433 . S
C2586 C2582 1.363 . S
C2586 C2583 1.463 1_565 S
C2586 N2590 1.427 . S
C2587 H2577 0.929 . S
C2587 C2585 1.433 . S
C2587 N2590 1.384 . S
C2588 H2579 0.906 1_545 S
C2588 C2580 1.390 . S
C2588 C2583 1.361 . S
C2589 H2576 0.929 . S
C2589 C2581 1.433 . S
C2589 N2591 1.384 . S
N2590 C2586 1.427 . S
N2590 C2587 1.384 . S
N2591 C2583 1.427 . S
N2591 C2589 1.384 . S
H2592 C2598 0.930 . S
H2593 C2602 0.930 . S
H2594 C2607 0.929 . S
H2595 C2605 0.929 . S
H2596 C2600 0.929 . S
H2597 C2606 0.929 . S
C2598 H2592 0.930 . S
C2598 C2599 1.367 . S
C2598 C2606 1.378 . S
C2599 C2598 1.367 . S
C2599 C2607 1.433 . S
C2600 H2596 0.929 . S
C2600 C2602 1.378 . S
C2600 C2604 1.350 . S
C2601 C2604 1.463 . S
C2601 C2606 1.350 . S
C2601 N2609 1.427 . S
C2602 H2593 0.930 . S
C2602 C2600 1.378 . S
C2602 C2603 1.367 . S
C2603 C2602 1.367 . S
C2603 C2605 1.433 . S
C2604 C2600 1.350 . S
C2604 C2601 1.463 . S
C2604 N2608 1.427 . S
C2605 H2595 0.929 . S
C2605 C2603 1.433 . S
C2605 N2608 1.384 . S
C2606 H2597 0.929 . S
C2606 C2598 1.378 . S
C2606 C2601 1.350 . S
C2607 H2594 0.929 . S
C2607 C2599 1.433 . S
C2607 N2609 1.384 . S
N2608 C2604 1.427 . S
N2608 C2605 1.384 . S
N2609 C2601 1.427 . S
N2609 C2607 1.384 . S
H2610 C2616 0.930 1_565 S
H2611 C2620 0.930 . S
H2612 C2625 0.929 . S
H2613 C2623 0.929 . S
H2614 C2618 0.929 . S
H2615 C2624 0.929 . S
C2616 H2610 0.930 1_545 S
C2616 C2617 1.367 . S
C2616 C2624 1.378 . S
C2617 C2616 1.367 . S
C2617 C2625 1.433 . S
C2618 H2614 0.929 . S
C2618 C2620 1.378 . S
C2618 C2622 1.350 . S
C2619 C2622 1.463 . S
C2619 C2624 1.350 . S
C2619 N2627 1.427 . S
C2620 H2611 0.930 . S
C2620 C2618 1.378 . S
C2620 C2621 1.367 . S
C2621 C2620 1.367 . S
C2621 C2623 1.433 . S
C2622 C2618 1.350 . S
C2622 C2619 1.463 . S
C2622 N2626 1.427 . S
C2623 H2613 0.929 . S
C2623 C2621 1.433 . S
C2623 N2626 1.384 . S
C2624 H2615 0.929 . S
C2624 C2616 1.378 . S
C2624 C2619 1.350 . S
C2625 H2612 0.929 . S
C2625 C2617 1.433 . S
C2625 N2627 1.384 . S
N2626 C2622 1.427 . S
N2626 C2623 1.384 . S
N2627 C2619 1.427 . S
N2627 C2625 1.384 . S
H2628 C2634 0.930 . S
H2629 C2638 0.930 . S
H2630 C2643 0.929 . S
H2631 C2641 0.929 . S
H2632 C2636 0.929 . S
H2633 C2642 0.929 . S
C2634 H2628 0.930 . S
C2634 C2635 1.367 . S
C2634 C2642 1.378 . S
C2635 C2634 1.367 . S
C2635 C2643 1.433 . S
C2636 H2632 0.929 . S
C2636 C2638 1.378 . S
C2636 C2640 1.350 . S
C2637 C2640 1.463 . S
C2637 C2642 1.350 . S
C2637 N2645 1.427 . S
C2638 H2629 0.930 . S
C2638 C2636 1.378 . S
C2638 C2639 1.367 . S
C2639 C2638 1.367 . S
C2639 C2641 1.433 . S
C2640 C2636 1.350 . S
C2640 C2637 1.463 . S
C2640 N2644 1.427 . S
C2641 H2631 0.929 . S
C2641 C2639 1.433 . S
C2641 N2644 1.384 . S
C2642 H2633 0.929 . S
C2642 C2634 1.378 . S
C2642 C2637 1.350 . S
C2643 H2630 0.929 . S
C2643 C2635 1.433 . S
C2643 N2645 1.384 . S
N2644 C2640 1.427 . S
N2644 C2641 1.384 . S
N2645 C2637 1.427 . S
N2645 C2643 1.384 . S
H2646 C2652 0.930 . S
H2647 C2656 0.930 . S
H2648 C2661 0.929 . S
H2649 C2659 0.929 . S
H2650 C2654 0.929 . S
H2651 C2660 0.929 . S
C2652 H2646 0.930 . S
C2652 C2653 1.367 . S
C2652 C2660 1.378 . S
C2653 C2652 1.367 . S
C2653 C2661 1.433 . S
C2654 H2650 0.929 . S
C2654 C2656 1.378 . S
C2654 C2658 1.350 . S
C2655 C2658 1.463 . S
C2655 C2660 1.350 . S
C2655 N2663 1.427 . S
C2656 H2647 0.930 . S
C2656 C2654 1.378 . S
C2656 C2657 1.367 . S
C2657 C2656 1.367 . S
C2657 C2659 1.433 . S
C2658 C2654 1.350 . S
C2658 C2655 1.463 . S
C2658 N2662 1.427 . S
C2659 H2649 0.929 . S
C2659 C2657 1.433 . S
C2659 N2662 1.384 . S
C2660 H2651 0.929 . S
C2660 C2652 1.378 . S
C2660 C2655 1.350 . S
C2661 H2648 0.929 . S
C2661 C2653 1.433 . S
C2661 N2663 1.384 . S
N2662 C2658 1.427 . S
N2662 C2659 1.384 . S
N2663 C2655 1.427 . S
N2663 C2661 1.384 . S
H2664 C2670 0.930 . S
H2665 C2674 0.930 . S
H2666 C2679 0.929 . S
H2667 C2677 0.929 . S
H2668 C2672 0.929 . S
H2669 C2678 0.929 . S
C2670 H2664 0.930 . S
C2670 C2671 1.367 . S
C2670 C2678 1.378 . S
C2671 C2670 1.367 . S
C2671 C2679 1.433 . S
C2672 H2668 0.929 . S
C2672 C2674 1.378 . S
C2672 C2676 1.350 . S
C2673 C2676 1.463 . S
C2673 C2678 1.350 . S
C2673 N2681 1.427 . S
C2674 H2665 0.930 . S
C2674 C2672 1.378 . S
C2674 C2675 1.367 . S
C2675 C2674 1.367 . S
C2675 C2677 1.433 . S
C2676 C2672 1.350 . S
C2676 C2673 1.463 . S
C2676 N2680 1.427 . S
C2677 H2667 0.929 . S
C2677 C2675 1.433 . S
C2677 N2680 1.384 . S
C2678 H2669 0.929 . S
C2678 C2670 1.378 . S
C2678 C2673 1.350 . S
C2679 H2666 0.929 . S
C2679 C2671 1.433 . S
C2679 N2681 1.384 . S
N2680 C2676 1.427 . S
N2680 C2677 1.384 . S
N2681 C2673 1.427 . S
N2681 C2679 1.384 . S
H2682 C2688 0.930 . S
H2683 C2692 0.930 . S
H2684 C2697 0.929 . S
H2685 C2695 0.929 . S
H2686 C2690 0.929 . S
H2687 C2696 0.929 . S
C2688 H2682 0.930 . S
C2688 C2689 1.367 . S
C2688 C2696 1.378 . S
C2689 C2688 1.367 . S
C2689 C2697 1.433 . S
C2690 H2686 0.929 . S
C2690 C2692 1.378 . S
C2690 C2694 1.350 . S
C2691 C2694 1.463 . S
C2691 C2696 1.350 . S
C2691 N2699 1.427 . S
C2692 H2683 0.930 . S
C2692 C2690 1.378 . S
C2692 C2693 1.367 . S
C2693 C2692 1.367 . S
C2693 C2695 1.433 . S
C2694 C2690 1.350 . S
C2694 C2691 1.463 . S
C2694 N2698 1.427 . S
C2695 H2685 0.929 . S
C2695 C2693 1.433 . S
C2695 N2698 1.384 . S
C2696 H2687 0.929 . S
C2696 C2688 1.378 . S
C2696 C2691 1.350 . S
C2697 H2684 0.929 . S
C2697 C2689 1.433 . S
C2697 N2699 1.384 . S
N2698 C2694 1.427 . S
N2698 C2695 1.384 . S
N2699 C2691 1.427 . S
N2699 C2697 1.384 . S
H2700 C2706 0.930 . S
H2701 C2710 0.930 . S
H2702 C2715 0.929 . S
H2703 C2713 0.929 . S
H2704 C2708 0.929 . S
H2705 C2714 0.929 . S
C2706 H2700 0.930 . S
C2706 C2707 1.367 . S
C2706 C2714 1.378 . S
C2707 C2706 1.367 . S
C2707 C2715 1.433 . S
C2708 H2704 0.929 . S
C2708 C2710 1.378 . S
C2708 C2712 1.350 . S
C2709 C2712 1.463 . S
C2709 C2714 1.350 . S
C2709 N2717 1.427 . S
C2710 H2701 0.930 . S
C2710 C2708 1.378 . S
C2710 C2711 1.367 . S
C2711 C2710 1.367 . S
C2711 C2713 1.433 . S
C2712 C2708 1.350 . S
C2712 C2709 1.463 . S
C2712 N2716 1.427 . S
C2713 H2703 0.929 . S
C2713 C2711 1.433 . S
C2713 N2716 1.384 . S
C2714 H2705 0.929 . S
C2714 C2706 1.378 . S
C2714 C2709 1.350 . S
C2715 H2702 0.929 . S
C2715 C2707 1.433 . S
C2715 N2717 1.384 . S
N2716 C2712 1.427 . S
N2716 C2713 1.384 . S
N2717 C2709 1.427 . S
N2717 C2715 1.384 . S
H2718 C2724 0.930 . S
H2719 C2728 0.930 . S
H2720 C2733 0.929 . S
H2721 C2731 0.929 . S
H2722 C2726 0.929 . S
H2723 C2732 0.929 . S
C2724 H2718 0.930 . S
C2724 C2725 1.367 . S
C2724 C2732 1.378 . S
C2725 C2724 1.367 . S
C2725 C2733 1.433 . S
C2726 H2722 0.929 . S
C2726 C2728 1.378 . S
C2726 C2730 1.350 . S
C2727 C2730 1.463 . S
C2727 C2732 1.350 . S
C2727 N2735 1.427 . S
C2728 H2719 0.930 . S
C2728 C2726 1.378 . S
C2728 C2729 1.367 . S
C2729 C2728 1.367 . S
C2729 C2731 1.433 . S
C2730 C2726 1.350 . S
C2730 C2727 1.463 . S
C2730 N2734 1.427 . S
C2731 H2721 0.929 . S
C2731 C2729 1.433 . S
C2731 N2734 1.384 . S
C2732 H2723 0.929 . S
C2732 C2724 1.378 . S
C2732 C2727 1.350 . S
C2733 H2720 0.929 . S
C2733 C2725 1.433 . S
C2733 N2735 1.384 . S
N2734 C2730 1.427 . S
N2734 C2731 1.384 . S
N2735 C2727 1.427 . S
N2735 C2733 1.384 . S
H2736 C2742 0.930 . S
H2737 C2746 0.930 . S
H2738 C2751 0.929 . S
H2739 C2749 0.929 . S
H2740 C2744 0.929 . S
H2741 C2750 0.929 . S
C2742 H2736 0.930 . S
C2742 C2743 1.367 . S
C2742 C2750 1.378 . S
C2743 C2742 1.367 . S
C2743 C2751 1.433 . S
C2744 H2740 0.929 . S
C2744 C2746 1.378 . S
C2744 C2748 1.350 . S
C2745 C2748 1.463 . S
C2745 C2750 1.350 . S
C2745 N2753 1.427 . S
C2746 H2737 0.930 . S
C2746 C2744 1.378 . S
C2746 C2747 1.367 . S
C2747 C2746 1.367 . S
C2747 C2749 1.433 . S
C2748 C2744 1.350 . S
C2748 C2745 1.463 . S
C2748 N2752 1.427 . S
C2749 H2739 0.929 . S
C2749 C2747 1.433 . S
C2749 N2752 1.384 . S
C2750 H2741 0.929 . S
C2750 C2742 1.378 . S
C2750 C2745 1.350 . S
C2751 H2738 0.929 . S
C2751 C2743 1.433 . S
C2751 N2753 1.384 . S
N2752 C2748 1.427 . S
N2752 C2749 1.384 . S
N2753 C2745 1.427 . S
N2753 C2751 1.384 . S
H2754 C2760 0.930 . S
H2755 C2764 0.930 . S
H2756 C2769 0.929 . S
H2757 C2767 0.929 . S
H2758 C2762 0.929 . S
H2759 C2768 0.929 . S
C2760 H2754 0.930 . S
C2760 C2761 1.367 . S
C2760 C2768 1.378 . S
C2761 C2760 1.367 . S
C2761 C2769 1.433 . S
C2762 H2758 0.929 . S
C2762 C2764 1.378 . S
C2762 C2766 1.350 . S
C2763 C2766 1.463 . S
C2763 C2768 1.350 . S
C2763 N2771 1.427 . S
C2764 H2755 0.930 . S
C2764 C2762 1.378 . S
C2764 C2765 1.367 . S
C2765 C2764 1.367 . S
C2765 C2767 1.433 . S
C2766 C2762 1.350 . S
C2766 C2763 1.463 . S
C2766 N2770 1.427 . S
C2767 H2757 0.929 . S
C2767 C2765 1.433 . S
C2767 N2770 1.384 . S
C2768 H2759 0.929 . S
C2768 C2760 1.378 . S
C2768 C2763 1.350 . S
C2769 H2756 0.929 . S
C2769 C2761 1.433 . S
C2769 N2771 1.384 . S
N2770 C2766 1.427 . S
N2770 C2767 1.384 . S
N2771 C2763 1.427 . S
N2771 C2769 1.384 . S
H2772 C2778 0.930 . S
H2773 C2782 0.930 . S
H2774 C2787 0.929 1_545 S
H2775 C2785 0.929 . S
H2776 C2780 0.929 . S
H2777 C2786 0.929 . S
C2778 H2772 0.930 . S
C2778 C2779 1.367 . S
C2778 C2786 1.378 . S
C2779 C2778 1.367 . S
C2779 C2787 1.433 . S
C2780 H2776 0.929 . S
C2780 C2782 1.378 . S
C2780 C2784 1.350 . S
C2781 C2784 1.463 . S
C2781 C2786 1.350 . S
C2781 N2789 1.427 . S
C2782 H2773 0.930 . S
C2782 C2780 1.378 . S
C2782 C2783 1.367 . S
C2783 C2782 1.367 . S
C2783 C2785 1.433 . S
C2784 C2780 1.350 . S
C2784 C2781 1.463 . S
C2784 N2788 1.427 . S
C2785 H2775 0.929 . S
C2785 C2783 1.433 . S
C2785 N2788 1.384 . S
C2786 H2777 0.929 . S
C2786 C2778 1.378 . S
C2786 C2781 1.350 . S
C2787 H2774 0.929 1_565 S
C2787 C2779 1.433 . S
C2787 N2789 1.384 . S
N2788 C2784 1.427 . S
N2788 C2785 1.384 . S
N2789 C2781 1.427 . S
N2789 C2787 1.384 . S
H2790 C2796 0.930 . S
H2791 C2800 0.930 . S
H2792 C2805 0.929 . S
H2793 C2803 0.929 . S
H2794 C2798 0.929 . S
H2795 C2804 0.929 . S
C2796 H2790 0.930 . S
C2796 C2797 1.367 . S
C2796 C2804 1.378 . S
C2797 C2796 1.367 . S
C2797 C2805 1.433 . S
C2798 H2794 0.929 . S
C2798 C2800 1.378 . S
C2798 C2802 1.350 . S
C2799 C2802 1.463 . S
C2799 C2804 1.350 . S
C2799 N2807 1.427 . S
C2800 H2791 0.930 . S
C2800 C2798 1.378 . S
C2800 C2801 1.367 . S
C2801 C2800 1.367 . S
C2801 C2803 1.433 . S
C2802 C2798 1.350 . S
C2802 C2799 1.463 . S
C2802 N2806 1.427 . S
C2803 H2793 0.929 . S
C2803 C2801 1.433 . S
C2803 N2806 1.384 . S
C2804 H2795 0.929 . S
C2804 C2796 1.378 . S
C2804 C2799 1.350 . S
C2805 H2792 0.929 . S
C2805 C2797 1.433 . S
C2805 N2807 1.384 . S
N2806 C2802 1.427 . S
N2806 C2803 1.384 . S
N2807 C2799 1.427 . S
N2807 C2805 1.384 . S
C1195 N2 1.095 . S
C1199 C73 1.091 1_545 S
C1213 C7 1.073 1_655 S
C1217 N35 1.075 . S
C1231 C40 1.075 . S
C1235 N68 1.076 . S
C1249 C139 1.086 1_455 S
C1253 N101 1.090 . S
C1267 C172 1.083 . S
C1271 N134 1.087 . S
C1285 C106 1.096 1_565 S
C1289 N167 1.097 . S
C1303 C271 1.075 1_565 S
C1307 N200 1.076 . S
C1321 N233 1.078 . S
C1325 C205 1.076 1_455 S
C1339 C238 1.085 . S
C1343 N266 1.085 . S
C1357 C337 1.101 1_655 S
C1361 N299 1.102 . S
C1375 N332 1.075 . S
C1379 C370 1.073 . S
C1393 C304 1.100 1_545 S
C1397 N365 1.103 . S
C1411 N398 1.102 . S
C1415 C469 1.099 . S
C1429 N431 1.075 . S
C1433 C403 1.074 . S
C1447 N464 1.090 . S
C1451 C436 1.086 . S
C1465 C535 1.101 . S
C1469 N497 1.103 . S
C1483 C568 1.092 . S
C1487 N530 1.095 . S
C1501 N563 1.100 . S
C1505 C502 1.099 . S
C1519 N596 1.075 . S
C1523 C667 1.074 . S
C1537 N629 1.101 . S
C1541 C601 1.098 . S
C1555 N662 1.091 . S
C1559 C634 1.091 . S
C1573 C733 1.080 . S
C1577 N695 1.080 . S
C1591 C766 1.093 . S
C1595 N728 1.097 . S
C1609 N761 1.076 . S
C1613 C700 1.073 . S
C1627 C865 1.082 . S
C1631 N794 1.086 . S
C1645 C799 1.090 . S
C1649 N827 1.090 . S
C1663 N860 1.098 . S
C1667 C832 1.097 . S
C1681 C931 1.093 . S
C1685 N893 1.097 . S
C1699 N926 1.103 . S
C1703 C964 1.101 . S
C1717 C898 1.100 . S
C1721 N959 1.101 . S
C1735 C1063 1.076 . S
C1739 N992 1.079 . S
C1753 N1025 1.094 . S
C1757 C997 1.094 . S
C1771 N1058 1.093 . S
C1775 C1030 1.093 . S
C1789 C1129 1.076 . S
C1793 N1091 1.079 . S
C1807 C1162 1.076 . S
C1811 N1124 1.077 . S
C1825 N1157 1.080 . S
C1829 C1096 1.077 . S
C1843 N673 1.424 . S
C1847 C18 1.420 . S
C1861 C51 1.426 . S
C1865 N607 1.418 1_565 S
C1879 C84 1.425 . S
C1883 N640 1.420 1_455 S
C1897 N1135 1.416 . S
C1901 C117 1.426 . S
C1915 N1168 1.416 1_545 S
C1919 C150 1.426 . S
C1933 C183 1.423 . S
C1937 N1102 1.422 1_655 S
C1951 C216 1.426 . S
C1955 N871 1.415 . S
C1969 C249 1.426 . S
C1973 N805 1.419 1_545 S
C1987 C282 1.420 . S
C1991 N838 1.424 1_655 S
C2005 N541 1.420 . S
C2009 C315 1.425 . S
C2023 C348 1.422 . S
C2027 N574 1.421 1_565 S
C2041 C381 1.421 . S
C2045 N508 1.424 1_455 S
C2059 C414 1.423 . S
C2063 N1069 1.420 . S
C2077 N1003 1.424 . S
C2081 C447 1.420 . S
C2095 N1036 1.419 . S
C2099 C480 1.423 . S
C2113 C513 1.421 . S
C2117 N343 1.422 . S
C2131 C546 1.423 . S
C2135 N376 1.420 . S
C2149 C579 1.430 . S
C2153 N310 1.413 . S
C2167 N79 1.420 . S
C2171 C612 1.424 . S
C2185 C645 1.426 . S
C2189 N13 1.417 . S
C2203 C678 1.430 . S
C2207 N46 1.413 . S
C2221 N937 1.424 . S
C2225 C711 1.421 . S
C2239 C744 1.421 . S
C2243 N970 1.421 . S
C2257 C777 1.431 . S
C2261 N904 1.413 . S
C2275 N277 1.413 . S
C2279 C810 1.430 . S
C2293 N211 1.413 . S
C2297 C843 1.431 . S
C2311 C876 1.421 . S
C2315 N244 1.423 . S
C2329 C909 1.429 . S
C2333 N739 1.413 . S
C2347 N772 1.412 . S
C2351 C942 1.430 . S
C2365 C975 1.430 . S
C2369 N706 1.414 . S
C2383 N475 1.424 . S
C2387 C1008 1.420 . S
C2401 C1041 1.426 . S
C2405 N409 1.417 . S
C2419 C1074 1.422 . S
C2423 N442 1.421 . S
C2437 N145 1.412 . S
C2441 C1107 1.431 . S
C2455 C1140 1.420 . S
C2459 N178 1.424 . S
C2473 N112 1.416 . S
C2477 C1173 1.427 . S
C2491 C153 1.538 . S
C2495 C21 1.534 . S
C2509 C54 1.548 . S
C2513 C186 1.551 . S
C2527 C87 1.551 . S
C2531 C120 1.545 . S
C2545 C219 1.540 . S
C2549 C351 1.534 . S
C2563 C252 1.546 . S
C2567 C384 1.551 . S
C2581 C285 1.534 . S
C2585 C318 1.538 . S
C2599 C549 1.534 . S
C2603 C417 1.536 . S
C2617 C582 1.547 . S
C2621 C450 1.539 . S
C2635 C516 1.537 . S
C2639 C483 1.534 . S
C2653 C747 1.548 . S
C2657 C615 1.539 . S
C2671 C780 1.535 . S
C2675 C648 1.535 . S
C2689 C714 1.538 . S
C2693 C681 1.534 . S
C2707 C945 1.536 . S
C2711 C813 1.534 . S
C2725 C846 1.538 . S
C2729 C978 1.534 . S
C2743 C912 1.534 . S
C2747 C879 1.538 . S
C2761 C1143 1.535 . S
C2765 C1011 1.535 . S
C2779 C1176 1.536 . S
C2783 C1044 1.543 . S
C2797 C1077 1.537 . S
C2801 C1110 1.534 . S
