# Generated by pormake.
# Topology zga, (5)-cn, num edge types: 1
# Building blocks:
#     Node 0, Type 0, BuildingBlock: BEQFEK_clean_sbu_0, # of connection points: 5
#     Node 1, Type 0, BuildingBlock: BEQFEK_clean_sbu_0, # of connection points: 5
#     Node 2, Type 0, BuildingBlock: BEQFEK_clean_sbu_0, # of connection points: 5
#     Node 3, Type 0, BuildingBlock: BEQFEK_clean_sbu_0, # of connection points: 5
#     Node 4, Type 0, BuildingBlock: BEQFEK_clean_sbu_0, # of connection points: 5
#     Node 5, Type 0, BuildingBlock: BEQFEK_clean_sbu_0, # of connection points: 5
#     Node 6, Type 0, BuildingBlock: BEQFEK_clean_sbu_0, # of connection points: 5
#     Node 7, Type 0, BuildingBlock: BEQFEK_clean_sbu_0, # of connection points: 5
#     Node 8, Type 0, BuildingBlock: BEQFEK_clean_sbu_0, # of connection points: 5
#     Node 9, Type 0, BuildingBlock: BEQFEK_clean_sbu_0, # of connection points: 5
#     Node 10, Type 0, BuildingBlock: BEQFEK_clean_sbu_0, # of connection points: 5
#     Node 11, Type 0, BuildingBlock: BEQFEK_clean_sbu_0, # of connection points: 5
#     Node 12, Type 0, BuildingBlock: BEQFEK_clean_sbu_0, # of connection points: 5
#     Node 13, Type 0, BuildingBlock: BEQFEK_clean_sbu_0, # of connection points: 5
#     Node 14, Type 0, BuildingBlock: BEQFEK_clean_sbu_0, # of connection points: 5
#     Node 15, Type 0, BuildingBlock: BEQFEK_clean_sbu_0, # of connection points: 5
#     Edge 16, Type (0, 0), BuildingBlock: CIFDUS_clean_linker_0, # of connection points: 2
#     Edge 17, Type (0, 0), BuildingBlock: CIFDUS_clean_linker_0, # of connection points: 2
#     Edge 18, Type (0, 0), BuildingBlock: CIFDUS_clean_linker_0, # of connection points: 2
#     Edge 19, Type (0, 0), BuildingBlock: CIFDUS_clean_linker_0, # of connection points: 2
#     Edge 20, Type (0, 0), BuildingBlock: CIFDUS_clean_linker_0, # of connection points: 2
#     Edge 21, Type (0, 0), BuildingBlock: CIFDUS_clean_linker_0, # of connection points: 2
#     Edge 22, Type (0, 0), BuildingBlock: CIFDUS_clean_linker_0, # of connection points: 2
#     Edge 23, Type (0, 0), BuildingBlock: CIFDUS_clean_linker_0, # of connection points: 2
#     Edge 24, Type (0, 0), BuildingBlock: CIFDUS_clean_linker_0, # of connection points: 2
#     Edge 25, Type (0, 0), BuildingBlock: CIFDUS_clean_linker_0, # of connection points: 2
#     Edge 26, Type (0, 0), BuildingBlock: CIFDUS_clean_linker_0, # of connection points: 2
#     Edge 27, Type (0, 0), BuildingBlock: CIFDUS_clean_linker_0, # of connection points: 2
#     Edge 28, Type (0, 0), BuildingBlock: CIFDUS_clean_linker_0, # of connection points: 2
#     Edge 29, Type (0, 0), BuildingBlock: CIFDUS_clean_linker_0, # of connection points: 2
#     Edge 30, Type (0, 0), BuildingBlock: CIFDUS_clean_linker_0, # of connection points: 2
#     Edge 31, Type (0, 0), BuildingBlock: CIFDUS_clean_linker_0, # of connection points: 2
#     Edge 32, Type (0, 0), BuildingBlock: CIFDUS_clean_linker_0, # of connection points: 2
#     Edge 33, Type (0, 0), BuildingBlock: CIFDUS_clean_linker_0, # of connection points: 2
#     Edge 34, Type (0, 0), BuildingBlock: CIFDUS_clean_linker_0, # of connection points: 2
#     Edge 35, Type (0, 0), BuildingBlock: CIFDUS_clean_linker_0, # of connection points: 2
#     Edge 36, Type (0, 0), BuildingBlock: CIFDUS_clean_linker_0, # of connection points: 2
#     Edge 37, Type (0, 0), BuildingBlock: CIFDUS_clean_linker_0, # of connection points: 2
#     Edge 38, Type (0, 0), BuildingBlock: CIFDUS_clean_linker_0, # of connection points: 2
#     Edge 39, Type (0, 0), BuildingBlock: CIFDUS_clean_linker_0, # of connection points: 2
#     Edge 40, Type (0, 0), BuildingBlock: CIFDUS_clean_linker_0, # of connection points: 2
#     Edge 41, Type (0, 0), BuildingBlock: CIFDUS_clean_linker_0, # of connection points: 2
#     Edge 42, Type (0, 0), BuildingBlock: CIFDUS_clean_linker_0, # of connection points: 2
#     Edge 43, Type (0, 0), BuildingBlock: CIFDUS_clean_linker_0, # of connection points: 2
#     Edge 44, Type (0, 0), BuildingBlock: CIFDUS_clean_linker_0, # of connection points: 2
#     Edge 45, Type (0, 0), BuildingBlock: CIFDUS_clean_linker_0, # of connection points: 2
#     Edge 46, Type (0, 0), BuildingBlock: CIFDUS_clean_linker_0, # of connection points: 2
#     Edge 47, Type (0, 0), BuildingBlock: CIFDUS_clean_linker_0, # of connection points: 2
#     Edge 48, Type (0, 0), BuildingBlock: CIFDUS_clean_linker_0, # of connection points: 2
#     Edge 49, Type (0, 0), BuildingBlock: CIFDUS_clean_linker_0, # of connection points: 2
#     Edge 50, Type (0, 0), BuildingBlock: CIFDUS_clean_linker_0, # of connection points: 2
#     Edge 51, Type (0, 0), BuildingBlock: CIFDUS_clean_linker_0, # of connection points: 2
#     Edge 52, Type (0, 0), BuildingBlock: CIFDUS_clean_linker_0, # of connection points: 2
#     Edge 53, Type (0, 0), BuildingBlock: CIFDUS_clean_linker_0, # of connection points: 2
#     Edge 54, Type (0, 0), BuildingBlock: CIFDUS_clean_linker_0, # of connection points: 2
#     Edge 55, Type (0, 0), BuildingBlock: CIFDUS_clean_linker_0, # of connection points: 2
# Relax obj value: 0.165
# Max RMSD: 0.225
# Mean RMSD: 0.182
data_MOF--net-zga--node1-BEQFEK_clean_sbu_0--edge1-CIFDUS_clean_linker_0
_symmetry_space_group_name_H-M    P1
_symmetry_Int_Tables_number       1
_symmetry_cell_setting            triclinic
loop_
_symmetry_equiv_pos_as_xyz
'x, y, z'
_cell_length_a     46.782132
_cell_length_b     78.781022
_cell_length_c     17.227981
_cell_angle_alpha  91.01238
_cell_angle_beta   90.082997
_cell_angle_gamma 101.35154
loop_
_atom_site_label
_atom_site_type_symbol
_atom_site_fract_x
_atom_site_fract_y
_atom_site_fract_z
_atom_type_partial_charge
Co0 Co 0.11477 0.53976 0.09184 0.0
Co1 Co 0.09436 0.53541 0.26542 0.0
C2 C 0.11203 0.57042 0.19426 0.0
O3 O 0.1172 0.56372 0.12928 0.0
O4 O 0.10344 0.56107 0.25263 0.0
C5 C 0.13373 0.55283 0.94116 0.0
O6 O 0.13502 0.56809 0.97444 0.0
C7 C 0.10277 0.53757 0.4345 0.0
C8 C 0.06689 0.51696 0.47381 0.0
C9 C 0.09083 0.52897 0.50026 0.0
N10 N 0.08679 0.53076 0.37246 0.0
N11 N 0.06515 0.51862 0.39648 0.0
C12 C 0.13037 0.55081 0.42882 0.0
H13 H 0.13922 0.55095 0.36904 0.0
H14 H 0.14684 0.54816 0.47098 0.0
H15 H 0.12565 0.5638 0.44238 0.0
C16 C 0.15825 0.51997 0.14787 0.0
N17 N 0.1352 0.52759 0.15915 0.0
N18 N 0.12595 0.52508 0.23099 0.0
C19 C 0.1424 0.5153 0.26701 0.0
C20 C 0.16365 0.51193 0.216 0.0
C21 C 0.1753 0.52105 0.07412 0.0
H22 H 0.16398 0.51107 0.03235 0.0
H23 H 0.17647 0.53394 0.04799 0.0
H24 H 0.1977 0.51885 0.08439 0.0
O25 O 0.07346 0.52832 0.08545 0.0
O26 O 0.05819 0.52524 0.20699 0.0
H27 H 0.11262 0.50437 0.3559 0.0
H28 H 0.14596 0.49626 0.35361 0.0
C29 C 0.13641 0.50796 0.34627 0.0
H30 H 0.14616 0.51777 0.39058 0.0
H31 H 0.04975 0.51109 0.35975 0.0
O32 O 0.12796 0.53934 0.98233 0.0
C33 C 0.05337 0.52333 0.13429 0.0
Co34 Co 0.14747 0.70619 0.23153 0.0
Co35 Co 0.12946 0.70478 0.058 0.0
C36 C 0.12753 0.67236 0.14405 0.0
O37 O 0.13644 0.68085 0.20597 0.0
O38 O 0.12363 0.68008 0.08191 0.0
C39 C 0.16423 0.69641 0.38109 0.0
O40 O 0.15707 0.68055 0.3529 0.0
C41 C 0.12866 0.69687 0.89157 0.0
C42 C 0.11837 0.72084 0.84369 0.0
C43 C 0.12554 0.70515 0.82287 0.0
N44 N 0.12383 0.7073 0.95056 0.0
N45 N 0.11714 0.72145 0.92162 0.0
C46 C 0.13981 0.68045 0.90129 0.0
H47 H 0.15155 0.68065 0.95728 0.0
H48 H 0.15472 0.67853 0.85331 0.0
H49 H 0.12105 0.66937 0.90048 0.0
C50 C 0.20269 0.7262 0.16844 0.0
N51 N 0.17503 0.71747 0.16018 0.0
N52 N 0.16797 0.71624 0.08616 0.0
C53 C 0.19133 0.72366 0.04441 0.0
C54 C 0.21412 0.7304 0.09516 0.0
C55 C 0.21727 0.73085 0.24541 0.0
H56 H 0.20154 0.73469 0.28709 0.0
H57 H 0.22459 0.71935 0.26855 0.0
H58 H 0.23632 0.74167 0.24054 0.0
O59 O 0.11292 0.71715 0.23415 0.0
O60 O 0.09922 0.71522 0.11058 0.0
H61 H 0.17928 0.73114 0.93201 0.0
H62 H 0.2153 0.72603 0.93553 0.0
C63 C 0.19274 0.72253 0.95764 0.0
H64 H 0.18396 0.70909 0.93817 0.0
H65 H 0.11303 0.73185 0.95521 0.0
O66 O 0.16332 0.70909 0.33738 0.0
C67 C 0.09555 0.71962 0.18066 0.0
Co68 Co 0.85378 0.45174 0.95772 0.0
Co69 Co 0.87281 0.45642 0.78377 0.0
C70 C 0.87039 0.42275 0.86504 0.0
O71 O 0.86132 0.42879 0.92742 0.0
O72 O 0.8755 0.43193 0.80446 0.0
C73 C 0.83051 0.43912 0.109 0.0
O74 O 0.82198 0.42363 0.0777 0.0
C75 C 0.87187 0.45234 0.61132 0.0
C76 C 0.89121 0.47919 0.57953 0.0
C77 C 0.87886 0.46312 0.54803 0.0
N78 N 0.87915 0.46184 0.67678 0.0
N79 N 0.891 0.4778 0.65708 0.0
C80 C 0.85902 0.43337 0.61015 0.0
H81 H 0.86586 0.42716 0.66219 0.0
H82 H 0.83489 0.4315 0.61043 0.0
H83 H 0.86587 0.42697 0.55737 0.0
C84 C 0.80235 0.46426 0.89821 0.0
N85 N 0.82812 0.45938 0.88806 0.0
N86 N 0.83589 0.46124 0.81482 0.0
C87 C 0.81506 0.46729 0.77582 0.0
C88 C 0.79322 0.4695 0.82733 0.0
C89 C 0.78805 0.46497 0.97552 0.0
H90 H 0.80437 0.47151 0.01866 0.0
H91 H 0.77992 0.45156 0.99537 0.0
H92 H 0.76967 0.47194 0.97302 0.0
O93 O 0.89114 0.46803 0.96219 0.0
O94 O 0.90543 0.4718 0.84041 0.0
H95 H 0.83352 0.48127 0.67666 0.0
H96 H 0.79466 0.47324 0.66902 0.0
C97 C 0.81551 0.47033 0.69027 0.0
H98 H 0.81934 0.45859 0.65913 0.0
H99 H 0.89831 0.48787 0.69682 0.0
O100 O 0.84128 0.45179 0.06662 0.0
C101 C 0.90963 0.47497 0.91265 0.0
Co102 Co 0.92082 0.30007 0.90277 0.0
Co103 Co 0.89946 0.29429 0.72873 0.0
C104 C 0.90994 0.32939 0.8055 0.0
O105 O 0.91699 0.32346 0.86959 0.0
O106 O 0.90356 0.31965 0.74562 0.0
C107 C 0.93693 0.314 0.05607 0.0
O108 O 0.93406 0.32874 0.02553 0.0
C109 C 0.9072 0.29699 0.55989 0.0
C110 C 0.87419 0.27482 0.51665 0.0
C111 C 0.89647 0.28796 0.49245 0.0
N112 N 0.89215 0.28936 0.62067 0.0
N113 N 0.87218 0.27628 0.59429 0.0
C114 C 0.93307 0.31149 0.56812 0.0
H115 H 0.94201 0.31212 0.62805 0.0
H116 H 0.95021 0.30983 0.52578 0.0
H117 H 0.92621 0.32391 0.55656 0.0
C118 C 0.96903 0.28431 0.83956 0.0
N119 N 0.94369 0.28985 0.8319 0.0
N120 N 0.93368 0.28642 0.76068 0.0
C121 C 0.95182 0.27803 0.72169 0.0
C122 C 0.97515 0.27671 0.76963 0.0
C123 C 0.98732 0.28687 0.91168 0.0
H124 H 0.97958 0.27598 0.95128 0.0
H125 H 0.98508 0.29909 0.94189 0.0
H126 H 0.0106 0.2872 0.89806 0.0
O127 O 0.88114 0.28587 0.90888 0.0
O128 O 0.86476 0.2828 0.7874 0.0
H129 H 0.9568 0.25874 0.63449 0.0
H130 H 0.95318 0.27944 0.59778 0.0
C131 C 0.94551 0.26977 0.6429 0.0
H132 H 0.92179 0.26488 0.63558 0.0
H133 H 0.85784 0.26798 0.62956 0.0
O134 O 0.93487 0.30064 0.01225 0.0
C135 C 0.861 0.28033 0.85983 0.0
Co136 Co 0.11438 0.04216 0.58358 0.0
Co137 Co 0.09589 0.03835 0.75717 0.0
C138 C 0.11219 0.07319 0.68174 0.0
O139 O 0.11737 0.06644 0.61688 0.0
O140 O 0.1039 0.0639 0.74052 0.0
C141 C 0.14208 0.0513 0.43163 0.0
O142 O 0.15887 0.0651 0.46255 0.0
C143 C 0.10226 0.04128 0.9282 0.0
C144 C 0.06728 0.01964 0.96294 0.0
C145 C 0.08923 0.03256 0.99269 0.0
N146 N 0.08869 0.03365 0.864 0.0
N147 N 0.06778 0.02078 0.88533 0.0
C148 C 0.12643 0.05686 0.92682 0.0
H149 H 0.12702 0.06346 0.87058 0.0
H150 H 0.1476 0.05275 0.93444 0.0
H151 H 0.12381 0.06605 0.97462 0.0
C152 C 0.15845 0.02244 0.63676 0.0
N153 N 0.13577 0.0303 0.64956 0.0
N154 N 0.12747 0.02817 0.72228 0.0
C155 C 0.14433 0.01856 0.7578 0.0
C156 C 0.16466 0.0147 0.70499 0.0
C157 C 0.17435 0.02298 0.56128 0.0
H158 H 0.17742 0.0362 0.5375 0.0
H159 H 0.19594 0.01936 0.56816 0.0
H160 H 0.16101 0.01392 0.51912 0.0
O161 O 0.07309 0.03065 0.58016 0.0
O162 O 0.05935 0.02757 0.70257 0.0
H163 H 0.15088 0.00116 0.84934 0.0
H164 H 0.14774 0.02268 0.88068 0.0
C165 C 0.13952 0.012 0.83872 0.0
H166 H 0.11592 0.00738 0.84875 0.0
H167 H 0.05398 0.01266 0.84674 0.0
O168 O 0.12519 0.0408 0.47412 0.0
C169 C 0.05366 0.02553 0.63047 0.0
Co170 Co 0.15262 0.20806 0.73062 0.0
Co171 Co 0.1309 0.20897 0.56108 0.0
C172 C 0.12941 0.1754 0.63877 0.0
O173 O 0.14106 0.18323 0.69963 0.0
O174 O 0.1234 0.18376 0.58033 0.0
C175 C 0.15187 0.19957 0.88139 0.0
O176 O 0.12893 0.18911 0.85178 0.0
C177 C 0.12321 0.20246 0.39377 0.0
C178 C 0.12051 0.22859 0.3532 0.0
C179 C 0.12144 0.21195 0.3278 0.0
N180 N 0.12355 0.21307 0.45572 0.0
N181 N 0.12135 0.22857 0.43123 0.0
C182 C 0.12837 0.18432 0.39771 0.0
H183 H 0.14439 0.1834 0.44413 0.0
H184 H 0.13652 0.17999 0.34181 0.0
H185 H 0.10752 0.17555 0.4119 0.0
C186 C 0.20739 0.22785 0.66123 0.0
N187 N 0.17915 0.21986 0.65737 0.0
N188 N 0.17047 0.21892 0.58456 0.0
C189 C 0.1932 0.22557 0.5392 0.0
C190 C 0.21736 0.23178 0.58614 0.0
C191 C 0.22408 0.23173 0.73569 0.0
H192 H 0.20934 0.23429 0.78296 0.0
H193 H 0.23331 0.22031 0.75156 0.0
H194 H 0.24213 0.2431 0.72993 0.0
O195 O 0.11813 0.21879 0.74234 0.0
O196 O 0.10385 0.22066 0.6209 0.0
H197 H 0.18271 0.23396 0.42699 0.0
H198 H 0.215 0.22459 0.4284 0.0
C199 C 0.19281 0.22371 0.45246 0.0
H200 H 0.17991 0.21092 0.43506 0.0
H201 H 0.12183 0.23934 0.46772 0.0
O202 O 0.16884 0.2093 0.83603 0.0
C203 C 0.10107 0.2234 0.69318 0.0
Co204 Co 0.85376 0.95114 0.46719 0.0
Co205 Co 0.87177 0.95612 0.29215 0.0
C206 C 0.87085 0.92255 0.37004 0.0
O207 O 0.86248 0.9287 0.43295 0.0
O208 O 0.87489 0.93156 0.30884 0.0
C209 C 0.83723 0.9358 0.61541 0.0
O210 O 0.83946 0.92122 0.58009 0.0
C211 C 0.8665 0.9523 0.12188 0.0
C212 C 0.88966 0.97814 0.08574 0.0
C213 C 0.87335 0.96265 0.05722 0.0
N214 N 0.87772 0.96148 0.18523 0.0
N215 N 0.89201 0.97676 0.163 0.0
C216 C 0.84709 0.93479 0.12543 0.0
H217 H 0.83859 0.93225 0.1851 0.0
H218 H 0.82862 0.93376 0.08398 0.0
H219 H 0.85985 0.92478 0.10954 0.0
C220 C 0.80216 0.96388 0.41097 0.0
N221 N 0.82764 0.95878 0.39876 0.0
N222 N 0.83495 0.96087 0.32525 0.0
C223 C 0.81418 0.9674 0.28827 0.0
C224 C 0.79278 0.96958 0.34133 0.0
C225 C 0.78855 0.96451 0.48925 0.0
H226 H 0.80527 0.971 0.53154 0.0
H227 H 0.78059 0.95109 0.50909 0.0
H228 H 0.77019 0.97152 0.48835 0.0
O229 O 0.89066 0.96801 0.47228 0.0
O230 O 0.90427 0.97138 0.34948 0.0
H231 H 0.83438 0.98065 0.189 0.0
H232 H 0.79501 0.97606 0.18445 0.0
C233 C 0.81442 0.97111 0.20328 0.0
H234 H 0.81447 0.95899 0.17007 0.0
H235 H 0.90231 0.98653 0.20101 0.0
O236 O 0.83999 0.94955 0.57619 0.0
C237 C 0.90878 0.97485 0.42148 0.0
Co238 Co 0.92162 0.80061 0.42226 0.0
Co239 Co 0.90607 0.79456 0.24614 0.0
C240 C 0.91251 0.82954 0.31655 0.0
O241 O 0.91809 0.82367 0.38215 0.0
O242 O 0.90802 0.81977 0.25642 0.0
C243 C 0.92753 0.815 0.57427 0.0
O244 O 0.91496 0.82666 0.54231 0.0
C245 C 0.91093 0.79681 0.07703 0.0
C246 C 0.88992 0.77029 0.03969 0.0
C247 C 0.90446 0.78605 0.0121 0.0
N248 N 0.90086 0.78774 0.13998 0.0
N249 N 0.888 0.77198 0.11724 0.0
C250 C 0.9293 0.81468 0.08082 0.0
H251 H 0.91502 0.82428 0.07469 0.0
H252 H 0.94073 0.81704 0.13758 0.0
H253 H 0.94561 0.81655 0.03347 0.0
C254 C 0.96929 0.78262 0.37705 0.0
N255 N 0.94616 0.78975 0.36019 0.0
N256 N 0.94048 0.78791 0.2854 0.0
C257 C 0.96057 0.78008 0.25166 0.0
C258 C 0.9793 0.77621 0.30868 0.0
C259 C 0.97984 0.7808 0.45797 0.0
H260 H 0.96106 0.77815 0.49818 0.0
H261 H 0.99417 0.79314 0.47675 0.0
H262 H 0.99218 0.77017 0.46157 0.0
O263 O 0.88266 0.78603 0.42588 0.0
O264 O 0.87019 0.7828 0.30135 0.0
H265 H 0.94529 0.76662 0.14596 0.0
H266 H 0.98432 0.77446 0.14917 0.0
C267 C 0.96291 0.77739 0.16581 0.0
H268 H 0.96046 0.7893 0.13579 0.0
H269 H 0.87874 0.76221 0.15496 0.0
O270 O 0.93448 0.80312 0.53173 0.0
C271 C 0.86426 0.78025 0.37289 0.0
Co272 Co 0.6158 0.54661 0.5904 0.0
Co273 Co 0.59927 0.54262 0.76597 0.0
C274 C 0.61038 0.5772 0.69217 0.0
O275 O 0.6151 0.57028 0.62741 0.0
O276 O 0.60445 0.56818 0.75286 0.0
C277 C 0.63401 0.56103 0.44184 0.0
O278 O 0.63428 0.57601 0.47679 0.0
C279 C 0.60625 0.54553 0.93552 0.0
C280 C 0.57782 0.52114 0.97172 0.0
C281 C 0.59725 0.53553 0.0 0.0
N282 N 0.59305 0.53722 0.87237 0.0
N283 N 0.57575 0.52281 0.89454 0.0
C284 C 0.62912 0.56173 0.93198 0.0
H285 H 0.63844 0.56337 0.87276 0.0
H286 H 0.64679 0.5614 0.97467 0.0
H287 H 0.61906 0.57303 0.94601 0.0
C288 C 0.66284 0.52896 0.64054 0.0
N289 N 0.63921 0.53584 0.65515 0.0
N290 N 0.63236 0.53399 0.72902 0.0
C291 C 0.65147 0.52573 0.76379 0.0
C292 C 0.67142 0.52228 0.70889 0.0
C293 C 0.67604 0.52827 0.56177 0.0
H294 H 0.65867 0.52309 0.51888 0.0
H295 H 0.6861 0.54161 0.5444 0.0
H296 H 0.69276 0.52005 0.56064 0.0
O297 O 0.57571 0.53325 0.58705 0.0
O298 O 0.56325 0.53073 0.7109 0.0
H299 H 0.6302 0.51426 0.8655 0.0
H300 H 0.66906 0.51517 0.86531 0.0
C301 C 0.65159 0.52208 0.84879 0.0
H302 H 0.65523 0.53447 0.88189 0.0
H303 H 0.56334 0.5138 0.85658 0.0
O304 O 0.62878 0.54726 0.48114 0.0
C305 C 0.5571 0.52792 0.63924 0.0
Co306 Co 0.64849 0.71197 0.7088 0.0
Co307 Co 0.62908 0.71065 0.53585 0.0
C308 C 0.62363 0.67833 0.62587 0.0
O309 O 0.63478 0.68689 0.68554 0.0
O310 O 0.61949 0.68592 0.56344 0.0
C311 C 0.6645 0.70184 0.85861 0.0
O312 O 0.65645 0.68606 0.83014 0.0
C313 C 0.62641 0.70207 0.36924 0.0
C314 C 0.61955 0.72682 0.32115 0.0
C315 C 0.62463 0.71062 0.30031 0.0
N316 N 0.62307 0.71291 0.42815 0.0
N317 N 0.6183 0.72751 0.39903 0.0
C318 C 0.63503 0.6849 0.37937 0.0
H319 H 0.64585 0.68441 0.4363 0.0
H320 H 0.64997 0.68237 0.33251 0.0
H321 H 0.61516 0.67455 0.37685 0.0
C322 C 0.7046 0.72984 0.64029 0.0
N323 N 0.67637 0.72193 0.63461 0.0
N324 N 0.66872 0.72029 0.56099 0.0
C325 C 0.69215 0.72652 0.51713 0.0
C326 C 0.71568 0.73304 0.56579 0.0
C327 C 0.72009 0.73472 0.7159 0.0
H328 H 0.70492 0.73872 0.75877 0.0
H329 H 0.72768 0.72329 0.73878 0.0
H330 H 0.73911 0.74547 0.70886 0.0
O331 O 0.61517 0.72394 0.71203 0.0
O332 O 0.60253 0.72404 0.58809 0.0
H333 H 0.68062 0.73355 0.40344 0.0
H334 H 0.71522 0.72661 0.40738 0.0
C335 C 0.69276 0.72443 0.43059 0.0
H336 H 0.68224 0.71107 0.41406 0.0
H337 H 0.61571 0.73827 0.43248 0.0
O338 O 0.6648 0.71466 0.81472 0.0
C339 C 0.5992 0.72813 0.65878 0.0
Co340 Co 0.356 0.45128 0.48945 0.0
Co341 Co 0.37398 0.45623 0.31455 0.0
C342 C 0.37221 0.42249 0.39418 0.0
O343 O 0.36406 0.42862 0.45737 0.0
O344 O 0.37633 0.43158 0.33317 0.0
C345 C 0.33711 0.43657 0.63791 0.0
O346 O 0.33715 0.4216 0.60309 0.0
C347 C 0.36512 0.45266 0.1454 0.0
C348 C 0.39534 0.47599 0.1051 0.0
C349 C 0.3743 0.46209 0.07941 0.0
N350 N 0.37979 0.46082 0.20694 0.0
N351 N 0.39814 0.47459 0.18225 0.0
C352 C 0.34096 0.43718 0.15181 0.0
H353 H 0.3328 0.43589 0.21233 0.0
H354 H 0.32286 0.43817 0.11149 0.0
H355 H 0.34938 0.42538 0.13595 0.0
C356 C 0.30417 0.46371 0.43229 0.0
N357 N 0.32977 0.45874 0.42034 0.0
N358 N 0.33774 0.46159 0.34771 0.0
C359 C 0.31777 0.46898 0.31172 0.0
C360 C 0.29564 0.47036 0.36374 0.0
C361 C 0.28856 0.46223 0.50832 0.0
H362 H 0.29918 0.47291 0.54777 0.0
H363 H 0.29015 0.44979 0.53561 0.0
H364 H 0.26526 0.46293 0.50086 0.0
O365 O 0.39342 0.46806 0.49325 0.0
O366 O 0.40664 0.47135 0.37012 0.0
H367 H 0.34502 0.48254 0.2233 0.0
H368 H 0.30901 0.48722 0.22646 0.0
C369 C 0.32176 0.47685 0.23296 0.0
H370 H 0.31428 0.4667 0.18803 0.0
H371 H 0.41178 0.48341 0.21848 0.0
O372 O 0.34233 0.45033 0.59851 0.0
C373 C 0.41142 0.47483 0.44193 0.0
Co374 Co 0.42086 0.29903 0.43042 0.0
Co375 Co 0.40396 0.29485 0.25455 0.0
C376 C 0.41205 0.32922 0.33308 0.0
O377 O 0.41764 0.32274 0.39748 0.0
O378 O 0.40704 0.31998 0.2713 0.0
C379 C 0.44395 0.31162 0.5848 0.0
O380 O 0.45342 0.32708 0.55663 0.0
C381 C 0.40316 0.29756 0.08307 0.0
C382 C 0.38918 0.26992 0.05011 0.0
C383 C 0.39835 0.28621 0.01949 0.0
N384 N 0.39786 0.28824 0.14803 0.0
N385 N 0.38912 0.27178 0.12775 0.0
C386 C 0.41146 0.3169 0.08288 0.0
H387 H 0.3988 0.32246 0.12753 0.0
H388 H 0.43496 0.32092 0.09748 0.0
H389 H 0.40708 0.32215 0.02573 0.0
C390 C 0.46854 0.28182 0.37647 0.0
N391 N 0.44486 0.28877 0.36408 0.0
N392 N 0.43864 0.28791 0.28951 0.0
C393 C 0.45908 0.28116 0.25144 0.0
C394 C 0.47844 0.27671 0.30525 0.0
C395 C 0.48004 0.27915 0.45552 0.0
H396 H 0.4618 0.27617 0.49725 0.0
H397 H 0.49478 0.29126 0.47545 0.0
H398 H 0.49226 0.26843 0.45501 0.0
O399 O 0.38191 0.28471 0.43268 0.0
O400 O 0.36817 0.28269 0.30928 0.0
H401 H 0.44678 0.26902 0.14111 0.0
H402 H 0.48432 0.28015 0.14678 0.0
C403 C 0.46174 0.28064 0.16485 0.0
H404 H 0.45582 0.29235 0.14006 0.0
H405 H 0.38392 0.26175 0.16718 0.0
O406 O 0.43253 0.29918 0.5399 0.0
C407 C 0.36294 0.27947 0.38058 0.0
Co408 Co 0.61591 0.04354 0.08067 0.0
Co409 Co 0.5967 0.04054 0.25492 0.0
C410 C 0.61182 0.07491 0.17672 0.0
O411 O 0.61733 0.06774 0.11312 0.0
O412 O 0.60373 0.06605 0.23698 0.0
C413 C 0.64072 0.05415 0.92867 0.0
O414 O 0.65245 0.06928 0.95951 0.0
C415 C 0.59737 0.04416 0.42751 0.0
C416 C 0.57438 0.01785 0.45759 0.0
C417 C 0.5888 0.0334 0.49004 0.0
N418 N 0.58905 0.03511 0.36147 0.0
N419 N 0.57498 0.0195 0.38013 0.0
C420 C 0.61229 0.06279 0.42989 0.0
H421 H 0.60416 0.06978 0.38211 0.0
H422 H 0.63608 0.06371 0.42206 0.0
H423 H 0.60835 0.06911 0.48584 0.0
C424 C 0.66183 0.02596 0.13921 0.0
N425 N 0.63765 0.03259 0.14912 0.0
N426 N 0.62982 0.03138 0.2225 0.0
C427 C 0.64899 0.02398 0.26179 0.0
C428 C 0.6698 0.02023 0.21031 0.0
C429 C 0.67671 0.02515 0.06283 0.0
H430 H 0.66029 0.02005 0.01739 0.0
H431 H 0.68744 0.03844 0.04643 0.0
H432 H 0.69323 0.01681 0.06518 0.0
O433 O 0.57532 0.03143 0.07634 0.0
O434 O 0.56072 0.02887 0.19821 0.0
H435 H 0.62984 0.01223 0.36519 0.0
H436 H 0.6691 0.01811 0.36926 0.0
C437 C 0.64904 0.02207 0.34809 0.0
H438 H 0.64758 0.03458 0.3764 0.0
H439 H 0.56646 0.0098 0.33971 0.0
O440 O 0.62759 0.04216 0.97151 0.0
C441 C 0.55566 0.02635 0.12592 0.0
Co442 Co 0.64819 0.21007 0.20545 0.0
Co443 Co 0.63074 0.20912 0.0301 0.0
C444 C 0.62888 0.17652 0.11253 0.0
O445 O 0.63693 0.185 0.17527 0.0
O446 O 0.62559 0.18416 0.04946 0.0
C447 C 0.66732 0.20014 0.35598 0.0
O448 O 0.67022 0.18539 0.32329 0.0
C449 C 0.62691 0.20546 0.85713 0.0
C450 C 0.62332 0.23227 0.82959 0.0
C451 C 0.62585 0.21657 0.7957 0.0
N452 N 0.62589 0.21445 0.92397 0.0
N453 N 0.62329 0.23035 0.90682 0.0
C454 C 0.6281 0.18662 0.85299 0.0
H455 H 0.65107 0.18506 0.8582 0.0
H456 H 0.61894 0.18067 0.79718 0.0
H457 H 0.61565 0.17977 0.90165 0.0
C458 C 0.70415 0.23002 0.14282 0.0
N459 N 0.67621 0.2216 0.13554 0.0
N460 N 0.66909 0.22011 0.06154 0.0
C461 C 0.69262 0.22674 0.01907 0.0
C462 C 0.71555 0.23366 0.06886 0.0
C463 C 0.71925 0.23449 0.21917 0.0
H464 H 0.70336 0.23681 0.26391 0.0
H465 H 0.72897 0.22344 0.2377 0.0
H466 H 0.73682 0.24615 0.21463 0.0
O467 O 0.614 0.22105 0.20765 0.0
O468 O 0.59992 0.21884 0.08468 0.0
H469 H 0.68492 0.23379 0.90253 0.0
H470 H 0.71717 0.22464 0.91364 0.0
C471 C 0.69439 0.2239 0.93312 0.0
H472 H 0.68193 0.21089 0.91704 0.0
H473 H 0.62243 0.24008 0.94815 0.0
O474 O 0.66119 0.21212 0.31448 0.0
C475 C 0.59637 0.22332 0.15468 0.0
Co476 Co 0.35861 0.95097 0.94805 0.0
Co477 Co 0.37589 0.95871 0.77526 0.0
C478 C 0.37509 0.9238 0.84568 0.0
O479 O 0.36646 0.9285 0.91129 0.0
O480 O 0.37929 0.93408 0.78871 0.0
C481 C 0.33258 0.93887 0.10141 0.0
O482 O 0.31777 0.92432 0.07153 0.0
C483 C 0.36922 0.95554 0.60474 0.0
C484 C 0.39712 0.98012 0.56911 0.0
C485 C 0.3791 0.96526 0.53988 0.0
N486 N 0.38077 0.9644 0.66859 0.0
N487 N 0.39742 0.97906 0.64677 0.0
C488 C 0.35001 0.93795 0.60684 0.0
H489 H 0.3516 0.93186 0.66363 0.0
H490 H 0.327 0.93918 0.59845 0.0
H491 H 0.35595 0.92951 0.55976 0.0
C492 C 0.30636 0.96418 0.89849 0.0
N493 N 0.33187 0.95932 0.88365 0.0
N494 N 0.33943 0.96299 0.81139 0.0
C495 C 0.31906 0.9705 0.77812 0.0
C496 C 0.29732 0.9714 0.83202 0.0
C497 C 0.29136 0.96212 0.97533 0.0
H498 H 0.29072 0.94883 0.99634 0.0
H499 H 0.26879 0.96446 0.97151 0.0
H500 H 0.30402 0.97134 0.01806 0.0
O501 O 0.3958 0.96763 0.95293 0.0
O502 O 0.40867 0.97376 0.83166 0.0
H503 H 0.3447 0.98597 0.69257 0.0
H504 H 0.30686 0.98746 0.69125 0.0
C505 C 0.32218 0.97855 0.69969 0.0
H506 H 0.31793 0.9682 0.65433 0.0
H507 H 0.40894 0.98837 0.68501 0.0
O508 O 0.34759 0.95007 0.05804 0.0
C509 C 0.4135 0.97574 0.90425 0.0
Co510 Co 0.42271 0.79898 0.96376 0.0
Co511 Co 0.40308 0.79614 0.78961 0.0
C512 C 0.4145 0.83016 0.87713 0.0
O513 O 0.42115 0.82309 0.93877 0.0
O514 O 0.40773 0.82136 0.81463 0.0
C515 C 0.4498 0.8091 0.11669 0.0
O516 O 0.46373 0.8237 0.08764 0.0
C517 C 0.40884 0.79989 0.61919 0.0
C518 C 0.37431 0.77812 0.57964 0.0
C519 C 0.39603 0.79125 0.55261 0.0
N520 N 0.39541 0.79198 0.68166 0.0
N521 N 0.37471 0.77907 0.65746 0.0
C522 C 0.43271 0.8156 0.62452 0.0
H523 H 0.43294 0.82196 0.68241 0.0
H524 H 0.45405 0.81169 0.61632 0.0
H525 H 0.42996 0.82491 0.57884 0.0
C526 C 0.46963 0.78238 0.90021 0.0
N527 N 0.44558 0.78918 0.89197 0.0
N528 N 0.4363 0.78695 0.81971 0.0
C529 C 0.45355 0.778 0.78022 0.0
C530 C 0.47557 0.77497 0.82955 0.0
C531 C 0.48685 0.78351 0.974 0.0
H532 H 0.47671 0.77286 0.01245 0.0
H533 H 0.48653 0.79598 0.00446 0.0
H534 H 0.50979 0.78247 0.96263 0.0
O535 O 0.38238 0.78543 0.96536 0.0
O536 O 0.36752 0.7844 0.84295 0.0
H537 H 0.42321 0.7664 0.69187 0.0
H538 H 0.45749 0.75949 0.68818 0.0
C539 C 0.44703 0.77074 0.69975 0.0
H540 H 0.45508 0.78091 0.65701 0.0
H541 H 0.36112 0.77072 0.69419 0.0
O542 O 0.4347 0.79764 0.07265 0.0
C543 C 0.3627 0.78095 0.91404 0.0
H544 H 0.25793 0.4649 0.2425 0.0
H545 H 0.27777 0.49504 0.45388 0.0
H546 H 0.23835 0.51043 0.42701 0.0
H547 H 0.19965 0.51613 0.34052 0.0
H548 H 0.18002 0.48633 0.12822 0.0
H549 H 0.21858 0.47031 0.15676 0.0
C550 C 0.25351 0.47483 0.28259 0.0
C551 C 0.27052 0.4788 0.35021 0.0
C552 C 0.23122 0.48383 0.2659 0.0
C553 C 0.26461 0.49159 0.40211 0.0
C554 C 0.24229 0.50049 0.38637 0.0
C555 C 0.2037 0.50602 0.30093 0.0
C556 C 0.18715 0.50237 0.23242 0.0
C557 C 0.22565 0.49682 0.31814 0.0
C558 C 0.19278 0.48945 0.18088 0.0
C559 C 0.21465 0.48023 0.19747 0.0
H560 H 0.0944 0.74566 0.285 0.0
H561 H 0.0411 0.71191 0.11869 0.0
H562 H 0.99964 0.72551 0.14902 0.0
H563 H 0.97891 0.74727 0.22099 0.0
H564 H 0.03382 0.78371 0.37383 0.0
H565 H 0.07407 0.76847 0.35289 0.0
C566 C 0.07362 0.74127 0.25585 0.0
C567 C 0.07064 0.72779 0.20005 0.0
C568 C 0.05021 0.74955 0.27161 0.0
C569 C 0.04383 0.72232 0.16169 0.0
C570 C 0.02015 0.73005 0.17913 0.0
C571 C 0.99981 0.75203 0.24888 0.0
C572 C 0.00344 0.76665 0.2985 0.0
C573 C 0.02318 0.74376 0.23348 0.0
C574 C 0.03039 0.77237 0.33598 0.0
C575 C 0.05347 0.76375 0.32348 0.0
H576 H 0.34798 0.75856 0.0319 0.0
H577 H 0.31135 0.78507 0.85126 0.0
H578 H 0.26215 0.77301 0.8964 0.0
H579 H 0.22969 0.75516 0.98773 0.0
H580 H 0.26574 0.72526 0.15605 0.0
H581 H 0.31509 0.73895 0.1177 0.0
C582 C 0.32916 0.76162 0.00241 0.0
C583 C 0.33316 0.77267 0.93853 0.0
C584 C 0.30095 0.75427 0.02734 0.0
C585 C 0.30872 0.77646 0.90021 0.0
C586 C 0.28064 0.76968 0.92628 0.0
C587 C 0.24835 0.75147 0.01531 0.0
C588 C 0.24407 0.73923 0.0746 0.0
C589 C 0.27652 0.75858 0.98975 0.0
C590 C 0.26845 0.73488 0.11113 0.0
C591 C 0.29666 0.74254 0.08856 0.0
H592 H 0.92551 0.48315 0.0624 0.0
H593 H 0.95584 0.49149 0.82676 0.0
H594 H 0.00263 0.50771 0.87505 0.0
H595 H 0.03551 0.51829 0.98386 0.0
H596 H 0.00529 0.50945 0.21935 0.0
H597 H 0.95768 0.4946 0.1709 0.0
C598 C 0.94223 0.48859 0.02132 0.0
C599 C 0.93716 0.48601 0.94094 0.0
C600 C 0.96913 0.49772 0.04942 0.0
C601 C 0.95913 0.49323 0.88886 0.0
C602 C 0.98592 0.50247 0.91645 0.0
C603 C 0.01853 0.51318 0.02479 0.0
C604 C 0.02409 0.51491 0.10525 0.0
C605 C 0.99127 0.50458 0.99659 0.0
C606 C 0.0017 0.50827 0.1572 0.0
C607 C 0.97445 0.49977 0.12954 0.0
H608 H 0.79223 0.49992 0.75879 0.0
H609 H 0.73647 0.45571 0.85887 0.0
H610 H 0.69343 0.46785 0.8283 0.0
H611 H 0.67186 0.4911 0.77236 0.0
H612 H 0.72791 0.53549 0.67439 0.0
H613 H 0.77073 0.52302 0.70233 0.0
C614 C 0.77059 0.49295 0.77344 0.0
C615 C 0.76732 0.47698 0.81074 0.0
C616 C 0.74613 0.49996 0.75526 0.0
C617 C 0.73935 0.46809 0.83049 0.0
C618 C 0.71482 0.47498 0.81266 0.0
C619 C 0.69352 0.498 0.75743 0.0
C620 C 0.69693 0.51418 0.72183 0.0
C621 C 0.71797 0.49089 0.77499 0.0
C622 C 0.7249 0.52297 0.70155 0.0
C623 C 0.74933 0.5159 0.71796 0.0
H624 H 0.07722 0.24677 0.61535 0.0
H625 H 0.0736 0.22036 0.83332 0.0
H626 H 0.03484 0.23493 0.87806 0.0
H627 H 0.00064 0.25446 0.85278 0.0
H628 H 0.00717 0.28231 0.63827 0.0
H629 H 0.04604 0.2679 0.59449 0.0
C630 C 0.06788 0.24418 0.67255 0.0
C631 C 0.07795 0.23237 0.72057 0.0
C632 C 0.04611 0.25286 0.69847 0.0
C633 C 0.06609 0.22937 0.79518 0.0
C634 C 0.04394 0.23769 0.82079 0.0
C635 C 0.01095 0.25756 0.79711 0.0
C636 C 0.00078 0.26921 0.74827 0.0
C637 C 0.03367 0.24941 0.77276 0.0
C638 C 0.01422 0.27308 0.6761 0.0
C639 C 0.0365 0.2649 0.65112 0.0
H640 H 0.72963 0.2563 0.95283 0.0
H641 H 0.76832 0.23041 0.13173 0.0
H642 H 0.817 0.24319 0.08468 0.0
H643 H 0.84842 0.26056 0.98766 0.0
H644 H 0.80857 0.28254 0.79786 0.0
H645 H 0.76029 0.27168 0.85168 0.0
C646 C 0.74868 0.25325 0.981 0.0
C647 C 0.7453 0.24237 0.04553 0.0
C648 C 0.77634 0.25963 0.95047 0.0
C649 C 0.77025 0.23897 0.08277 0.0
C650 C 0.79809 0.24606 0.05513 0.0
C651 C 0.8291 0.26284 0.95798 0.0
C652 C 0.83195 0.2723 0.88891 0.0
C653 C 0.80136 0.2562 0.98826 0.0
C654 C 0.80685 0.27513 0.85063 0.0
C655 C 0.7793 0.26907 0.88171 0.0
H656 H 0.25671 0.96595 0.71773 0.0
H657 H 0.28269 0.99664 0.9247 0.0
H658 H 0.24354 0.01265 0.90422 0.0
H659 H 0.20332 0.01874 0.82397 0.0
H660 H 0.17717 0.98805 0.61704 0.0
H661 H 0.21542 0.97145 0.63952 0.0
C662 C 0.25361 0.9761 0.75834 0.0
C663 C 0.27233 0.98013 0.82268 0.0
C664 C 0.23136 0.98537 0.7455 0.0
C665 C 0.26823 0.99322 0.8753 0.0
C666 C 0.24604 0.00245 0.86325 0.0
C667 C 0.2059 0.00831 0.7843 0.0
C668 C 0.18766 0.00462 0.71884 0.0
C669 C 0.22767 0.99875 0.79814 0.0
C670 C 0.19129 0.99122 0.66727 0.0
C671 C 0.21299 0.98168 0.68039 0.0
H672 H 0.23143 0.25501 0.47136 0.0
H673 H 0.27006 0.22659 0.64091 0.0
H674 H 0.3186 0.23909 0.59281 0.0
H675 H 0.34994 0.25748 0.49976 0.0
H676 H 0.31063 0.28238 0.31853 0.0
H677 H 0.26216 0.27103 0.37107 0.0
C678 C 0.25042 0.2513 0.49703 0.0
C679 C 0.24705 0.23991 0.55985 0.0
C680 C 0.27803 0.25759 0.46576 0.0
C681 C 0.27197 0.23562 0.59372 0.0
C682 C 0.29973 0.24255 0.56541 0.0
C683 C 0.33069 0.26024 0.4714 0.0
C684 C 0.33371 0.27073 0.40552 0.0
C685 C 0.30297 0.25342 0.50104 0.0
C686 C 0.30873 0.27418 0.36884 0.0
C687 C 0.2811 0.26784 0.39931 0.0
H688 H 0.92611 0.98356 0.56995 0.0
H689 H 0.95351 0.99166 0.33181 0.0
H690 H 0.00033 0.0086 0.3759 0.0
H691 H 0.03415 0.01991 0.48169 0.0
H692 H 0.00696 0.01137 0.71977 0.0
H693 H 0.95922 0.99578 0.67559 0.0
C694 C 0.94219 0.9891 0.52747 0.0
C695 C 0.9363 0.98624 0.44759 0.0
C696 C 0.96914 0.99867 0.55315 0.0
C697 C 0.95745 0.9936 0.39361 0.0
C698 C 0.98426 0.00326 0.41876 0.0
C699 C 0.01779 0.0147 0.5241 0.0
C700 C 0.02425 0.01674 0.60402 0.0
C701 C 0.99046 0.00568 0.49837 0.0
C702 C 0.00266 0.00997 0.65795 0.0
C703 C 0.97534 0.00103 0.63275 0.0
H704 H 0.67093 0.99025 0.28318 0.0
H705 H 0.72639 0.03417 0.17994 0.0
H706 H 0.76964 0.02275 0.21511 0.0
H707 H 0.79151 0.00031 0.27578 0.0
H708 H 0.73621 0.95582 0.37499 0.0
H709 H 0.69293 0.96764 0.34348 0.0
C710 C 0.69255 0.99726 0.26856 0.0
C711 C 0.69569 0.01294 0.22896 0.0
C712 C 0.71719 0.99062 0.28914 0.0
C713 C 0.72362 0.02196 0.20976 0.0
C714 C 0.74827 0.01551 0.2303 0.0
C715 C 0.76992 0.99321 0.29007 0.0
C716 C 0.76685 0.9772 0.32692 0.0
C717 C 0.7453 -0.00013 0.27001 0.0
C718 C 0.73895 0.9682 0.3467 0.0
C719 C 0.71428 0.97489 0.32823 0.0
H720 H 0.73148 0.75614 0.45134 0.0
H721 H 0.76737 0.72787 0.62671 0.0
H722 H 0.81671 0.74033 0.58364 0.0
H723 H 0.84955 0.75866 0.49315 0.0
H724 H 0.81296 0.78324 0.30589 0.0
H725 H 0.76376 0.77206 0.35381 0.0
C726 C 0.75007 0.75245 0.47932 0.0
C727 C 0.74573 0.74109 0.54214 0.0
C728 C 0.77816 0.75873 0.45101 0.0
C729 C 0.77009 0.73683 0.57916 0.0
C730 C 0.79829 0.74376 0.55385 0.0
C731 C 0.83073 0.7614 0.46256 0.0
C732 C 0.83472 0.77174 0.39625 0.0
C733 C 0.80255 0.7546 0.48939 0.0
C734 C 0.8103 0.77516 0.35663 0.0
C735 C 0.78224 0.76891 0.3844 0.0
H736 H 0.50844 0.77715 0.69905 0.0
H737 H 0.49532 0.75112 0.91805 0.0
H738 H 0.53357 0.73507 0.88642 0.0
H739 H 0.56963 0.72768 0.79434 0.0
H740 H 0.5785 0.75121 0.56918 0.0
H741 H 0.54235 0.76858 0.6042 0.0
C742 C 0.5137 0.76781 0.73946 0.0
C743 C 0.49916 0.76542 0.811 0.0
C744 C 0.53474 0.75804 0.71934 0.0
C745 C 0.5066 0.7535 0.86332 0.0
C746 C 0.52826 0.74416 0.84489 0.0
C747 C 0.56364 0.73664 0.75306 0.0
C748 C 0.57676 0.73823 0.67945 0.0
C749 C 0.54235 0.74626 0.77287 0.0
C750 C 0.56859 0.74971 0.62609 0.0
C751 C 0.54803 0.75969 0.64617 0.0
H752 H 0.53594 0.52161 0.4925 0.0
H753 H 0.51252 0.51243 0.73274 0.0
H754 H 0.46491 0.4958 0.69273 0.0
H755 H 0.43064 0.48317 0.58962 0.0
H756 H 0.4545 0.49223 0.34951 0.0
H757 H 0.50127 0.50973 0.38985 0.0
C758 C 0.52046 0.51601 0.53631 0.0
C759 C 0.52791 0.51821 0.61555 0.0
C760 C 0.4932 0.50645 0.51299 0.0
C761 C 0.50743 0.51092 0.67134 0.0
C762 C 0.48019 0.5014 0.64853 0.0
C763 C 0.44596 0.48904 0.546 0.0
C764 C 0.43904 0.4863 0.46659 0.0
C765 C 0.47294 0.49899 0.5695 0.0
C766 C 0.45923 0.49405 0.41101 0.0
C767 C 0.48602 0.50405 0.43399 0.0
H768 H 0.4793 0.25011 0.20398 0.0
H769 H 0.53302 0.28354 0.3706 0.0
H770 H 0.57373 0.26914 0.34229 0.0
H771 H 0.59454 0.24776 0.26621 0.0
H772 H 0.54246 0.21701 0.08815 0.0
H773 H 0.50077 0.23005 0.12297 0.0
C774 C 0.50005 0.25444 0.23327 0.0
C775 C 0.50312 0.26788 0.28933 0.0
C776 C 0.52367 0.24668 0.21404 0.0
C777 C 0.52992 0.27304 0.32816 0.0
C778 C 0.55329 0.26492 0.31142 0.0
C779 C 0.57401 0.2439 0.23526 0.0
C780 C 0.57143 0.23139 0.17505 0.0
C781 C 0.55046 0.25181 0.25407 0.0
C782 C 0.54491 0.22666 0.13455 0.0
C783 C 0.5211 0.23406 0.15459 0.0
H784 H 0.4299 0.98274 0.05476 0.0
H785 H 0.45833 0.994 0.8194 0.0
H786 H 0.50438 0.01105 0.86801 0.0
H787 H 0.53708 0.02176 0.97642 0.0
H788 H 0.50903 0.01037 0.21191 0.0
H789 H 0.46206 0.99433 0.16365 0.0
C790 C 0.44607 0.98898 0.0139 0.0
C791 C 0.44067 0.98699 0.9334 0.0
C792 C 0.47254 0.99866 0.04217 0.0
C793 C 0.46188 0.99526 0.88156 0.0
C794 C 0.48825 0.00499 0.9093 0.0
C795 C 0.52073 0.01581 0.01747 0.0
C796 C 0.52669 0.01719 0.09778 0.0
C797 C 0.4939 0.0066 0.98939 0.0
C798 C 0.50508 0.0095 0.14986 0.0
C799 C 0.47823 0.00031 0.12229 0.0
H800 H 0.11581 0.55846 0.58099 0.0
H801 H 0.089 0.50314 0.60272 0.0
H802 H 0.10304 0.5054 0.73945 0.0
H803 H 0.11961 0.52319 0.85455 0.0
H804 H 0.1451 0.57866 0.83479 0.0
H805 H 0.13588 0.57616 0.69501 0.0
C806 C 0.11374 0.54687 0.61505 0.0
C807 C 0.10159 0.53064 0.58146 0.0
C808 C 0.12164 0.54827 0.69406 0.0
C809 C 0.09818 0.5158 0.62728 0.0
C810 C 0.10629 0.51706 0.70542 0.0
C811 C 0.12364 0.53473 0.81963 0.0
C812 C 0.13287 0.55109 0.85534 0.0
C813 C 0.1176 0.53325 0.73972 0.0
C814 C 0.13789 0.56589 0.80895 0.0
C815 C 0.13249 0.56449 0.729 0.0
H816 H 0.15749 0.72552 0.71864 0.0
H817 H 0.11049 0.67337 0.7524 0.0
H818 H 0.12264 0.66524 0.62054 0.0
H819 H 0.143 0.67375 0.49288 0.0
H820 H 0.18802 0.72636 0.45764 0.0
H821 H 0.18093 0.73348 0.59388 0.0
C822 C 0.14996 0.71238 0.69689 0.0
C823 C 0.1331 0.70004 0.74436 0.0
C824 C 0.15689 0.70789 0.62134 0.0
C825 C 0.12369 0.68301 0.71657 0.0
C826 C 0.1306 0.67839 0.64137 0.0
C827 C 0.15186 0.68666 0.51546 0.0
C828 C 0.16581 0.69956 0.46546 0.0
C829 C 0.14684 0.6908 0.59294 0.0
C830 C 0.17705 0.71626 0.49522 0.0
C831 C 0.17283 0.72036 0.57282 0.0
H832 H 0.83412 0.44018 0.47549 0.0
H833 H 0.91117 0.47892 0.43065 0.0
H834 H 0.90188 0.47552 0.29177 0.0
H835 H 0.87238 0.46171 0.18357 0.0
H836 H 0.79766 0.42118 0.22426 0.0
H837 H 0.80589 0.42486 0.36506 0.0
C838 C 0.84944 0.44747 0.43562 0.0
C839 C 0.8737 0.45956 0.46386 0.0
C840 C 0.84424 0.44525 0.35528 0.0
C841 C 0.89241 0.46949 0.4107 0.0
C842 C 0.88713 0.46757 0.33119 0.0
C843 C 0.85767 0.45375 0.22316 0.0
C844 C 0.83414 0.44139 0.19388 0.0
C845 C 0.86307 0.45558 0.303 0.0
C846 C 0.81577 0.43089 0.24574 0.0
C847 C 0.82054 0.43297 0.32601 0.0
H848 H 0.92734 0.28417 0.13755 0.0
H849 H 0.94386 0.33977 0.16699 0.0
H850 H 0.9346 0.33673 0.3061 0.0
H851 H 0.91703 0.31824 0.41686 0.0
H852 H 0.89899 0.2627 0.38552 0.0
H853 H 0.91316 0.26578 0.24951 0.0
C854 C 0.92945 0.29565 0.17448 0.0
C855 C 0.93618 0.31218 0.14164 0.0
C856 C 0.92334 0.29381 0.25404 0.0
C857 C 0.93863 0.32688 0.19058 0.0
C858 C 0.93319 0.32516 0.27017 0.0
C859 C 0.91689 0.30682 0.38087 0.0
C860 C 0.90718 0.29026 0.41159 0.0
C861 C 0.92483 0.30868 0.30224 0.0
C862 C 0.90626 0.2756 0.36323 0.0
C863 C 0.91445 0.27734 0.28548 0.0
H864 H 0.09283 0.03695 0.35705 0.0
H865 H 0.18219 0.06164 0.3167 0.0
H866 H 0.17407 0.05793 0.1758 0.0
H867 H 0.14149 0.04684 0.06583 0.0
H868 H 0.05109 0.02447 0.11 0.0
H869 H 0.06003 0.02774 0.24878 0.0
C870 C 0.11066 0.04144 0.31754 0.0
C871 C 0.13819 0.04932 0.34688 0.0
C872 C 0.10563 0.03966 0.23767 0.0
C873 C 0.16085 0.05545 0.29512 0.0
C874 C 0.15618 0.05332 0.21483 0.0
C875 C 0.12347 0.04318 0.10517 0.0
C876 C 0.09546 0.03571 0.07671 0.0
C877 C 0.12858 0.04545 0.18548 0.0
C878 C 0.07287 0.03027 0.12985 0.0
C879 C 0.0779 0.03216 0.20939 0.0
H880 H 0.16002 0.22811 0.22471 0.0
H881 H 0.09091 0.18359 0.25222 0.0
H882 H 0.09665 0.17469 0.11711 0.0
H883 H 0.11942 0.18059 0.99038 0.0
H884 H 0.18852 0.22524 0.96209 0.0
H885 H 0.1853 0.23287 0.09947 0.0
C886 C 0.14625 0.21649 0.20069 0.0
C887 C 0.12493 0.20654 0.24713 0.0
C888 C 0.14989 0.21143 0.12363 0.0
C889 C 0.10742 0.19138 0.21674 0.0
C890 C 0.11073 0.18631 0.13988 0.0
C891 C 0.13405 0.19188 0.01439 0.0
C892 C 0.15393 0.20245 0.96607 0.0
C893 C 0.1317 0.19634 0.0927 0.0
C894 C 0.17297 0.21691 -0.00185 0.0
C895 C 0.17098 0.22136 0.07647 0.0
H896 H 0.86291 0.93215 0.97244 0.0
H897 H 0.86114 0.98659 0.95827 0.0
H898 H 0.8467 0.98275 0.82229 0.0
H899 H 0.83759 0.96445 0.70559 0.0
H900 H 0.83943 0.91 0.71836 0.0
H901 H 0.84953 0.91322 0.85753 0.0
C902 C 0.85862 0.94308 0.94038 0.0
C903 C 0.86293 0.95961 0.97592 0.0
C904 C 0.85021 0.94079 0.86189 0.0
C905 C 0.8582 0.97373 0.9323 0.0
C906 C 0.84978 0.97156 0.85456 0.0
C907 C 0.83975 0.95321 0.73889 0.0
C908 C 0.83803 0.93705 0.70129 0.0
C909 C 0.84613 0.95521 0.81847 0.0
C910 C 0.84075 0.92262 0.74564 0.0
C911 C 0.84672 0.92447 0.82524 0.0
H912 H 0.90501 0.81576 0.93333 0.0
H913 H 0.92175 0.76404 0.90768 0.0
H914 H 0.93372 0.76913 0.771 0.0
H915 H 0.93657 0.78763 0.65766 0.0
H916 H 0.91836 0.83909 0.68221 0.0
H917 H 0.91094 0.83499 0.82146 0.0
C918 C 0.91196 0.80577 0.89832 0.0
C919 C 0.91285 0.78963 0.9306 0.0
C920 C 0.91866 0.80876 0.8198 0.0
C921 C 0.92086 0.77657 0.88386 0.0
C922 C 0.92783 0.77949 0.80591 0.0
C923 C 0.93148 0.79807 0.69361 0.0
C924 C 0.92789 0.81361 0.65959 0.0
C925 C 0.92646 0.79546 0.77308 0.0
C926 C 0.92114 0.82697 0.70698 0.0
C927 C 0.91675 0.82461 0.78652 0.0
H928 H 0.61245 0.56588 0.08368 0.0
H929 H 0.60435 0.51053 0.09974 0.0
H930 H 0.61825 0.51371 0.23637 0.0
H931 H 0.62947 0.53189 0.35278 0.0
H932 H 0.6371 0.58726 0.33817 0.0
H933 H 0.62788 0.58443 0.1985 0.0
C934 C 0.6145 0.55457 0.11637 0.0
C935 C 0.6076 0.53801 0.08132 0.0
C936 C 0.62251 0.55648 0.19512 0.0
C937 C 0.60939 0.52342 0.12549 0.0
C938 C 0.61747 0.52522 0.20354 0.0
C939 C 0.62955 0.54339 0.319 0.0
C940 C 0.63366 0.55973 0.35609 0.0
C941 C 0.62362 0.54165 0.23921 0.0
C942 C 0.63388 0.5745 0.3112 0.0
C943 C 0.62843 0.57289 0.23135 0.0
H944 H 0.64137 0.6793 0.96924 0.0
H945 H 0.68926 0.7314 0.93692 0.0
H946 H 0.68214 0.73839 0.07333 0.0
H947 H 0.65814 0.73055 0.1974 0.0
H948 H 0.60804 0.67901 0.22814 0.0
H949 H 0.62012 0.67089 0.09619 0.0
C950 C 0.65082 0.69207 0.99245 0.0
C951 C 0.66567 0.70487 0.94319 0.0
C952 C 0.64579 0.69615 0.07005 0.0
C953 C 0.67762 0.72138 0.97384 0.0
C954 C 0.6734 0.72541 0.05156 0.0
C955 C 0.6499 0.71754 0.17505 0.0
C956 C 0.63223 0.70538 0.22184 0.0
C957 C 0.65671 0.71307 0.09935 0.0
C958 C 0.62192 0.68851 0.19307 0.0
C959 C 0.62876 0.6839 0.11774 0.0
H960 H 0.35684 0.43165 0.99748 0.0
H961 H 0.36737 0.48709 0.97975 0.0
H962 H 0.35328 0.48394 0.84324 0.0
H963 H 0.34199 0.46576 0.72689 0.0
H964 H 0.33276 0.41032 0.74216 0.0
H965 H 0.34129 0.41311 0.88219 0.0
C966 C 0.35533 0.44299 0.96432 0.0
C967 C 0.36305 0.45957 -0.00115 0.0
C968 C 0.34746 0.4411 0.88534 0.0
C969 C 0.36174 0.47418 0.95434 0.0
C970 C 0.3536 0.4724 0.87633 0.0
C971 C 0.34139 0.45424 0.76085 0.0
C972 C 0.33705 0.43788 0.7238 0.0
C973 C 0.347 0.45596 0.84086 0.0
C974 C 0.33619 0.42309 0.76902 0.0
C975 C 0.34123 0.42468 0.84913 0.0
H976 H 0.44116 0.31017 0.95124 0.0
H977 H 0.36756 0.26901 0.89993 0.0
H978 H 0.37646 0.27267 0.76141 0.0
H979 H 0.40437 0.28759 0.65567 0.0
H980 H 0.47569 0.33032 0.70323 0.0
H981 H 0.46807 0.32628 0.84331 0.0
C982 C 0.42649 0.30239 0.90987 0.0
C983 C 0.40321 0.28963 0.93595 0.0
C984 C 0.43146 0.30475 0.82998 0.0
C985 C 0.38544 0.27902 0.88134 0.0
C986 C 0.39051 0.28109 0.80217 0.0
C987 C 0.41849 0.29596 0.6965 0.0
C988 C 0.44082 0.30911 0.66929 0.0
C989 C 0.41345 0.29387 0.776 0.0
C990 C 0.45847 0.32006 0.72298 0.0
C991 C 0.45406 0.31776 0.80286 0.0
H992 H 0.63676 0.05338 0.56218 0.0
H993 H 0.55443 0.01931 0.60737 0.0
H994 H 0.56425 0.02199 0.74632 0.0
H995 H 0.59565 0.03398 0.85443 0.0
H996 H 0.67609 0.07002 0.81315 0.0
H997 H 0.66729 0.06688 0.67247 0.0
C998 C 0.6205 0.047 0.60228 0.0
C999 C 0.59452 0.03647 0.5742 0.0
C1000 C 0.62608 0.04881 0.68254 0.0
C1001 C 0.57449 0.02758 0.62735 0.0
C1002 C 0.58008 0.02908 0.70683 0.0
C1003 C 0.61146 0.04105 0.81473 0.0
C1004 C 0.63673 0.05201 0.84383 0.0
C1005 C 0.60581 0.03959 0.73492 0.0
C1006 C 0.6566 0.0614 0.79182 0.0
C1007 C 0.65152 0.05964 0.71162 0.0
H1008 H 0.65997 0.19664 0.72165 0.0
H1009 H 0.60123 0.23153 0.68044 0.0
H1010 H 0.61051 0.23033 0.54165 0.0
H1011 H 0.63518 0.21967 0.43271 0.0
H1012 H 0.69132 0.18316 0.46936 0.0
H1013 H 0.68295 0.18455 0.60987 0.0
C1014 C 0.64849 0.20354 0.68224 0.0
C1015 C 0.62946 0.2139 0.71138 0.0
C1016 C 0.65377 0.20269 0.60204 0.0
C1017 C 0.61583 0.22338 0.65947 0.0
C1018 C 0.62117 0.22275 0.58013 0.0
C1019 C 0.64589 0.21213 0.47137 0.0
C1020 C 0.66422 0.20153 0.44099 0.0
C1021 C 0.64025 0.21258 0.55098 0.0
C1022 C 0.67732 0.19153 0.49167 0.0
C1023 C 0.67243 0.19227 0.57178 0.0
H1024 H 0.33081 0.94517 0.46708 0.0
H1025 H 0.41518 0.97716 0.42232 0.0
H1026 H 0.40756 0.97219 0.28373 0.0
H1027 H 0.37776 0.95876 0.17586 0.0
H1028 H 0.29498 0.92495 0.21696 0.0
H1029 H 0.30163 0.93022 0.35753 0.0
C1030 C 0.34796 0.95064 0.4277 0.0
C1031 C 0.37384 0.96127 0.45595 0.0
C1032 C 0.34372 0.94744 0.3475 0.0
C1033 C 0.39506 0.96891 0.40266 0.0
C1034 C 0.3908 0.96605 0.32322 0.0
C1035 C 0.36101 0.95258 0.21537 0.0
C1036 C 0.33574 0.94164 0.1862 0.0
C1037 C 0.36526 0.95538 0.29517 0.0
C1038 C 0.31457 0.93347 0.23823 0.0
C1039 C 0.31839 0.9365 0.31839 0.0
H1040 H 0.4012 0.7936 0.18822 0.0
H1041 H 0.48887 0.82114 0.23406 0.0
H1042 H 0.48037 0.81808 0.3745 0.0
H1043 H 0.44793 0.8068 0.4826 0.0
H1044 H 0.35882 0.78177 0.43265 0.0
H1045 H 0.3683 0.78434 0.29462 0.0
C1046 C 0.41859 0.79883 0.22888 0.0
C1047 C 0.44578 0.80731 0.2012 0.0
C1048 C 0.41325 0.79749 0.30851 0.0
C1049 C 0.46783 0.81444 0.25437 0.0
C1050 C 0.46293 0.8127 0.33441 0.0
C1051 C 0.43025 0.80239 0.44223 0.0
C1052 C 0.40249 0.79432 0.46902 0.0
C1053 C 0.43563 0.80426 0.36215 0.0
C1054 C 0.38041 0.78802 0.41431 0.0
C1055 C 0.38575 0.78949 0.3351 0.0
H1056 H 0.11156 0.59231 0.07601 0.0
H1057 H 0.11855 0.59114 0.32553 0.0
H1058 H 0.12367 0.62272 0.33264 0.0
H1059 H 0.12677 0.65066 0.26687 0.0
H1060 H 0.118 0.65092 0.01722 0.0
H1061 H 0.11287 0.61965 0.01153 0.0
C1062 C 0.11436 0.59894 0.13206 0.0
C1063 C 0.11498 0.58943 0.20006 0.0
C1064 C 0.11688 0.61693 0.1357 0.0
C1065 C 0.11806 0.59819 0.27228 0.0
C1066 C 0.12101 0.61623 0.27634 0.0
C1067 C 0.12369 0.64387 0.21128 0.0
C1068 C 0.12295 0.65321 0.14255 0.0
C1069 C 0.12052 0.62574 0.20829 0.0
C1070 C 0.11868 0.64415 0.07108 0.0
C1071 C 0.1158 0.62622 0.06763 0.0
H1072 H 0.88505 0.40385 0.74183 0.0
H1073 H 0.87089 0.402 0.98963 0.0
H1074 H 0.884 0.37366 0.9932 0.0
H1075 H 0.89883 0.34923 0.92678 0.0
H1076 H 0.91061 0.34988 0.67845 0.0
H1077 H 0.89944 0.37896 0.67452 0.0
C1078 C 0.88475 0.39723 0.79656 0.0
C1079 C 0.87694 0.4051 0.86527 0.0
C1080 C 0.89213 0.38078 0.79832 0.0
C1081 C 0.87664 0.39628 0.93567 0.0
C1082 C 0.88428 0.38007 0.93796 0.0
C1083 C 0.89935 0.35581 0.87186 0.0
C1084 C 0.90582 0.3475 0.80313 0.0
C1085 C 0.8921 0.37223 0.86978 0.0
C1086 C 0.90581 0.35606 0.73223 0.0
C1087 C 0.89932 0.37264 0.72994 0.0
H1088 H 0.11127 0.09539 0.56411 0.0
H1089 H 0.11943 0.09363 0.81327 0.0
H1090 H 0.12504 0.12514 0.82217 0.0
H1091 H 0.12848 0.1532 0.75859 0.0
H1092 H 0.11837 0.15452 0.50973 0.0
H1093 H 0.11246 0.12313 0.50148 0.0
C1094 C 0.11436 0.10189 0.62041 0.0
C1095 C 0.11522 0.0922 0.68785 0.0
C1096 C 0.11712 0.11992 0.62517 0.0
C1097 C 0.11875 0.1008 0.76045 0.0
C1098 C 0.12198 0.11881 0.76556 0.0
C1099 C 0.12491 0.14662 0.70255 0.0
C1100 C 0.12403 0.15625 0.6348 0.0
C1101 C 0.1213 0.1285 0.69823 0.0
C1102 C 0.11909 0.14748 0.56279 0.0
C1103 C 0.11582 0.12951 0.55795 0.0
H1104 H 0.88503 0.90327 0.247 0.0
H1105 H 0.87319 0.90248 0.49579 0.0
H1106 H 0.88692 0.8744 0.50092 0.0
H1107 H 0.90166 0.84992 0.4361 0.0
H1108 H 0.9119 0.84937 0.1873 0.0
H1109 H 0.89982 0.87821 0.18114 0.0
C1110 C 0.88538 0.89693 0.30225 0.0
C1111 C 0.87793 0.90503 0.37078 0.0
C1112 C 0.89327 0.8806 0.30505 0.0
C1113 C 0.87852 0.89658 0.4419 0.0
C1114 C 0.88656 0.88051 0.44513 0.0
C1115 C 0.90165 0.85615 0.38051 0.0
C1116 C 0.90791 0.84756 0.3124 0.0
C1117 C 0.894 0.87243 0.37723 0.0
C1118 C 0.90726 0.85575 0.24071 0.0
C1119 C 0.90025 0.8722 0.23713 0.0
H1120 H 0.62381 0.6577 0.7515 0.0
H1121 H 0.60924 0.65579 0.50352 0.0
H1122 H 0.60321 0.62438 0.50327 0.0
H1123 H 0.60436 0.59768 0.57168 0.0
H1124 H 0.61823 0.59904 0.81961 0.0
H1125 H 0.62218 0.63053 0.82162 0.0
C1126 C 0.61919 0.65042 0.69743 0.0
C1127 C 0.61728 0.65916 0.62751 0.0
C1128 C 0.61577 0.6323 0.69759 0.0
C1129 C 0.61091 0.64946 0.55817 0.0
C1130 C 0.60754 0.63148 0.55787 0.0
C1131 C 0.6083 0.60484 0.62627 0.0
C1132 C 0.6114 0.59608 0.69526 0.0
C1133 C 0.61037 0.62282 0.62697 0.0
C1134 C 0.61587 0.60551 0.76567 0.0
C1135 C 0.61818 0.6235 0.76679 0.0
H1136 H 0.38802 0.40394 0.27114 0.0
H1137 H 0.37176 0.40139 0.51795 0.0
H1138 H 0.38474 0.37304 0.52125 0.0
H1139 H 0.39997 0.34872 0.45481 0.0
H1140 H 0.41462 0.35031 0.20762 0.0
H1141 H 0.40342 0.37934 0.20411 0.0
C1142 C 0.38724 0.39717 0.32559 0.0
C1143 C 0.37881 0.40484 0.39405 0.0
C1144 C 0.39469 0.38073 0.32729 0.0
C1145 C 0.37796 0.39583 0.46412 0.0
C1146 C 0.38553 0.3796 0.4663 0.0
C1147 C 0.40109 0.35549 0.40027 0.0
C1148 C 0.40823 0.3474 0.33168 0.0
C1149 C 0.39395 0.37195 0.39836 0.0
C1150 C 0.40914 0.35626 0.26129 0.0
C1151 C 0.40266 0.37284 0.2592 0.0
H1152 H 0.62519 0.15543 0.23748 0.0
H1153 H 0.62243 0.15455 0.98673 0.0
H1154 H 0.61692 0.12317 0.98519 0.0
H1155 H 0.61379 0.09609 0.05416 0.0
H1156 H 0.61541 0.09648 0.30472 0.0
H1157 H 0.62045 0.12799 0.30705 0.0
C1158 C 0.62333 0.14837 0.18248 0.0
C1159 C 0.6243 0.15738 0.11233 0.0
C1160 C 0.62004 0.13026 0.1819 0.0
C1161 C 0.62166 0.148 0.04162 0.0
C1162 C 0.6186 0.13003 0.04061 0.0
C1163 C 0.6153 0.10304 0.10942 0.0
C1164 C 0.6144 0.09394 0.17918 0.0
C1165 C 0.61794 0.12106 0.11031 0.0
C1166 C 0.61601 0.10315 0.25018 0.0
C1167 C 0.61895 0.12117 0.25154 0.0
H1168 H 0.40133 0.85015 0.75913 0.0
H1169 H 0.42027 0.85147 0.00504 0.0
H1170 H 0.40917 0.8803 0.0166 0.0
H1171 H 0.39205 0.90462 0.95888 0.0
H1172 H 0.37483 0.90424 0.71276 0.0
H1173 H 0.38708 0.87549 0.69951 0.0
C1174 C 0.40332 0.8568 0.81511 0.0
C1175 C 0.41142 0.84853 0.88114 0.0
C1176 C 0.39685 0.87346 0.82161 0.0
C1177 C 0.41404 0.85744 0.95313 0.0
C1178 C 0.40755 0.87393 0.96002 0.0
C1179 C 0.39082 0.8982 0.90238 0.0
C1180 C 0.38213 0.90639 0.83711 0.0
C1181 C 0.39846 0.88192 0.895 0.0
C1182 C 0.38129 0.89812 0.76397 0.0
C1183 C 0.38834 0.88171 0.75637 0.0
loop_
_geom_bond_atom_site_label_1
_geom_bond_atom_site_label_2
_geom_bond_distance
_geom_bond_site_symmetry_2
_ccdc_geom_bond_type
Co0 O3 1.970 . S
Co0 N17 1.989 . S
Co0 O25 1.967 . S
Co0 O32 1.920 1_554 S
Co1 O4 1.966 . S
Co1 N10 2.022 . S
Co1 N18 1.993 . S
Co1 O26 1.941 . S
C2 O3 1.258 . S
C2 O4 1.263 . S
O3 Co0 1.970 . S
O3 C2 1.258 . S
O4 Co1 1.966 . S
O4 C2 1.263 . S
C5 O6 1.235 . S
C5 O32 1.289 . S
O6 C5 1.235 . S
C7 C9 1.400 . S
C7 N10 1.351 . S
C7 C12 1.501 . S
C8 C9 1.387 . S
C8 N11 1.341 . S
C9 C7 1.400 . S
C9 C8 1.387 . S
N10 Co1 2.022 . S
N10 C7 1.351 . S
N10 N11 1.365 . S
N11 C8 1.341 . S
N11 N10 1.365 . S
N11 H31 0.862 . S
C12 C7 1.501 . S
C12 H13 0.961 . S
C12 H14 0.961 . S
C12 H15 0.960 . S
H13 C12 0.961 . S
H14 C12 0.961 . S
H15 C12 0.960 . S
C16 N17 1.342 . S
C16 C20 1.401 . S
C16 C21 1.499 . S
N17 Co0 1.989 . S
N17 C16 1.342 . S
N17 N18 1.388 . S
N18 Co1 1.993 . S
N18 N17 1.388 . S
N18 C19 1.346 . S
C19 N18 1.346 . S
C19 C20 1.396 . S
C19 C29 1.510 . S
C20 C16 1.401 . S
C20 C19 1.396 . S
C21 C16 1.499 . S
C21 H22 0.959 . S
C21 H23 0.960 . S
C21 H24 0.961 . S
H22 C21 0.959 . S
H23 C21 0.960 . S
H24 C21 0.961 . S
O25 Co0 1.967 . S
O25 C33 1.258 . S
O26 Co1 1.941 . S
O26 C33 1.266 . S
H27 C29 0.959 . S
H28 C29 0.961 . S
C29 C19 1.510 . S
C29 H27 0.959 . S
C29 H28 0.961 . S
C29 H30 0.960 . S
H30 C29 0.960 . S
H31 N11 0.862 . S
O32 Co0 1.920 1_556 S
O32 C5 1.289 . S
C33 O25 1.258 . S
C33 O26 1.266 . S
Co34 O37 1.970 . S
Co34 N51 1.989 . S
Co34 O59 1.967 . S
Co34 O66 1.920 . S
Co35 O38 1.966 . S
Co35 N44 2.022 1_554 S
Co35 N52 1.993 . S
Co35 O60 1.941 . S
C36 O37 1.258 . S
C36 O38 1.263 . S
O37 Co34 1.970 . S
O37 C36 1.258 . S
O38 Co35 1.966 . S
O38 C36 1.263 . S
C39 O40 1.235 . S
C39 O66 1.289 . S
O40 C39 1.235 . S
C41 C43 1.400 . S
C41 N44 1.351 . S
C41 C46 1.501 . S
C42 C43 1.387 . S
C42 N45 1.341 . S
C43 C41 1.400 . S
C43 C42 1.387 . S
N44 Co35 2.022 1_556 S
N44 C41 1.351 . S
N44 N45 1.365 . S
N45 C42 1.341 . S
N45 N44 1.365 . S
N45 H65 0.862 . S
C46 C41 1.501 . S
C46 H47 0.961 . S
C46 H48 0.961 . S
C46 H49 0.960 . S
H47 C46 0.961 . S
H48 C46 0.961 . S
H49 C46 0.960 . S
C50 N51 1.342 . S
C50 C54 1.401 . S
C50 C55 1.499 . S
N51 Co34 1.989 . S
N51 C50 1.342 . S
N51 N52 1.388 . S
N52 Co35 1.993 . S
N52 N51 1.388 . S
N52 C53 1.346 . S
C53 N52 1.346 . S
C53 C54 1.396 . S
C53 C63 1.510 1_554 S
C54 C50 1.401 . S
C54 C53 1.396 . S
C55 C50 1.499 . S
C55 H56 0.959 . S
C55 H57 0.960 . S
C55 H58 0.961 . S
H56 C55 0.959 . S
H57 C55 0.960 . S
H58 C55 0.961 . S
O59 Co34 1.967 . S
O59 C67 1.258 . S
O60 Co35 1.941 . S
O60 C67 1.266 . S
H61 C63 0.959 . S
H62 C63 0.961 . S
C63 C53 1.510 1_556 S
C63 H61 0.959 . S
C63 H62 0.961 . S
C63 H64 0.960 . S
H64 C63 0.960 . S
H65 N45 0.862 . S
O66 Co34 1.920 . S
O66 C39 1.289 . S
C67 O59 1.258 . S
C67 O60 1.266 . S
Co68 O71 1.970 . S
Co68 N85 1.989 . S
Co68 O93 1.967 . S
Co68 O100 1.920 1_556 S
Co69 O72 1.966 . S
Co69 N78 2.022 . S
Co69 N86 1.993 . S
Co69 O94 1.941 . S
C70 O71 1.258 . S
C70 O72 1.263 . S
O71 Co68 1.970 . S
O71 C70 1.258 . S
O72 Co69 1.966 . S
O72 C70 1.263 . S
C73 O74 1.235 . S
C73 O100 1.289 . S
O74 C73 1.235 . S
C75 C77 1.400 . S
C75 N78 1.351 . S
C75 C80 1.501 . S
C76 C77 1.387 . S
C76 N79 1.341 . S
C77 C75 1.400 . S
C77 C76 1.387 . S
N78 Co69 2.022 . S
N78 C75 1.351 . S
N78 N79 1.365 . S
N79 C76 1.341 . S
N79 N78 1.365 . S
N79 H99 0.862 . S
C80 C75 1.501 . S
C80 H81 0.961 . S
C80 H82 0.961 . S
C80 H83 0.960 . S
H81 C80 0.961 . S
H82 C80 0.961 . S
H83 C80 0.960 . S
C84 N85 1.342 . S
C84 C88 1.401 . S
C84 C89 1.499 1_556 S
N85 Co68 1.989 . S
N85 C84 1.342 . S
N85 N86 1.388 . S
N86 Co69 1.993 . S
N86 N85 1.388 . S
N86 C87 1.346 . S
C87 N86 1.346 . S
C87 C88 1.396 . S
C87 C97 1.510 . S
C88 C84 1.401 . S
C88 C87 1.396 . S
C89 C84 1.499 1_554 S
C89 H90 0.959 . S
C89 H91 0.960 . S
C89 H92 0.961 . S
H90 C89 0.959 . S
H91 C89 0.960 . S
H92 C89 0.961 . S
O93 Co68 1.967 . S
O93 C101 1.258 . S
O94 Co69 1.941 . S
O94 C101 1.266 . S
H95 C97 0.959 . S
H96 C97 0.961 . S
C97 C87 1.510 . S
C97 H95 0.959 . S
C97 H96 0.961 . S
C97 H98 0.960 . S
H98 C97 0.960 . S
H99 N79 0.862 . S
O100 Co68 1.920 1_554 S
O100 C73 1.289 . S
C101 O93 1.258 . S
C101 O94 1.266 . S
Co102 O105 1.970 . S
Co102 N119 1.989 . S
Co102 O127 1.967 . S
Co102 O134 1.920 1_556 S
Co103 O106 1.966 . S
Co103 N112 2.022 . S
Co103 N120 1.993 . S
Co103 O128 1.941 . S
C104 O105 1.258 . S
C104 O106 1.263 . S
O105 Co102 1.970 . S
O105 C104 1.258 . S
O106 Co103 1.966 . S
O106 C104 1.263 . S
C107 O108 1.235 . S
C107 O134 1.289 . S
O108 C107 1.235 . S
C109 C111 1.400 . S
C109 N112 1.351 . S
C109 C114 1.501 . S
C110 C111 1.387 . S
C110 N113 1.341 . S
C111 C109 1.400 . S
C111 C110 1.387 . S
N112 Co103 2.022 . S
N112 C109 1.351 . S
N112 N113 1.365 . S
N113 C110 1.341 . S
N113 N112 1.365 . S
N113 H133 0.862 . S
C114 C109 1.501 . S
C114 H115 0.961 . S
C114 H116 0.961 . S
C114 H117 0.960 . S
H115 C114 0.961 . S
H116 C114 0.961 . S
H117 C114 0.960 . S
C118 N119 1.342 . S
C118 C122 1.401 . S
C118 C123 1.499 . S
N119 Co102 1.989 . S
N119 C118 1.342 . S
N119 N120 1.388 . S
N120 Co103 1.993 . S
N120 N119 1.388 . S
N120 C121 1.346 . S
C121 N120 1.346 . S
C121 C122 1.396 . S
C121 C131 1.510 . S
C122 C118 1.401 . S
C122 C121 1.396 . S
C123 C118 1.499 . S
C123 H124 0.959 1_556 S
C123 H125 0.960 1_655 S
C123 H126 0.963 . S
H124 C123 0.959 1_554 S
H125 C123 0.960 1_455 S
H126 C123 0.963 . S
O127 Co102 1.967 . S
O127 C135 1.258 . S
O128 Co103 1.941 . S
O128 C135 1.266 . S
H129 C131 0.959 . S
H130 C131 0.961 . S
C131 C121 1.510 . S
C131 H129 0.959 . S
C131 H130 0.961 . S
C131 H132 0.960 . S
H132 C131 0.960 . S
H133 N113 0.862 . S
O134 Co102 1.920 1_554 S
O134 C107 1.289 . S
C135 O127 1.258 . S
C135 O128 1.266 . S
Co136 O139 1.970 . S
Co136 N153 1.989 . S
Co136 O161 1.967 . S
Co136 O168 1.920 . S
Co137 O140 1.966 . S
Co137 N146 2.022 . S
Co137 N154 1.993 . S
Co137 O162 1.941 . S
C138 O139 1.258 . S
C138 O140 1.263 . S
O139 Co136 1.970 . S
O139 C138 1.258 . S
O140 Co137 1.966 . S
O140 C138 1.263 . S
C141 O142 1.235 . S
C141 O168 1.289 . S
O142 C141 1.235 . S
C143 C145 1.400 1_556 S
C143 N146 1.351 . S
C143 C148 1.501 . S
C144 C145 1.387 1_556 S
C144 N147 1.341 . S
C145 C143 1.400 1_554 S
C145 C144 1.387 1_554 S
N146 Co137 2.022 . S
N146 C143 1.351 . S
N146 N147 1.365 . S
N147 C144 1.341 . S
N147 N146 1.365 . S
N147 H167 0.862 . S
C148 C143 1.501 . S
C148 H149 0.961 . S
C148 H150 0.961 . S
C148 H151 0.960 . S
H149 C148 0.961 . S
H150 C148 0.961 . S
H151 C148 0.960 . S
C152 N153 1.342 . S
C152 C156 1.401 . S
C152 C157 1.499 . S
N153 Co136 1.989 . S
N153 C152 1.342 . S
N153 N154 1.388 . S
N154 Co137 1.993 . S
N154 N153 1.388 . S
N154 C155 1.346 . S
C155 N154 1.346 . S
C155 C156 1.396 . S
C155 C165 1.510 . S
C156 C152 1.401 . S
C156 C155 1.396 . S
C157 C152 1.499 . S
C157 H158 0.959 . S
C157 H159 0.960 . S
C157 H160 0.961 . S
H158 C157 0.959 . S
H159 C157 0.960 . S
H160 C157 0.961 . S
O161 Co136 1.967 . S
O161 C169 1.258 . S
O162 Co137 1.941 . S
O162 C169 1.266 . S
H163 C165 0.959 . S
H164 C165 0.961 . S
C165 C155 1.510 . S
C165 H163 0.959 . S
C165 H164 0.961 . S
C165 H166 0.960 . S
H166 C165 0.960 . S
H167 N147 0.862 . S
O168 Co136 1.920 . S
O168 C141 1.289 . S
C169 O161 1.258 . S
C169 O162 1.266 . S
Co170 O173 1.970 . S
Co170 N187 1.989 . S
Co170 O195 1.967 . S
Co170 O202 1.920 . S
Co171 O174 1.966 . S
Co171 N180 2.022 . S
Co171 N188 1.993 . S
Co171 O196 1.941 . S
C172 O173 1.258 . S
C172 O174 1.263 . S
O173 Co170 1.970 . S
O173 C172 1.258 . S
O174 Co171 1.966 . S
O174 C172 1.263 . S
C175 O176 1.235 . S
C175 O202 1.289 . S
O176 C175 1.235 . S
C177 C179 1.400 . S
C177 N180 1.351 . S
C177 C182 1.501 . S
C178 C179 1.387 . S
C178 N181 1.341 . S
C179 C177 1.400 . S
C179 C178 1.387 . S
N180 Co171 2.022 . S
N180 C177 1.351 . S
N180 N181 1.365 . S
N181 C178 1.341 . S
N181 N180 1.365 . S
N181 H201 0.862 . S
C182 C177 1.501 . S
C182 H183 0.961 . S
C182 H184 0.961 . S
C182 H185 0.960 . S
H183 C182 0.961 . S
H184 C182 0.961 . S
H185 C182 0.960 . S
C186 N187 1.342 . S
C186 C190 1.401 . S
C186 C191 1.499 . S
N187 Co170 1.989 . S
N187 C186 1.342 . S
N187 N188 1.388 . S
N188 Co171 1.993 . S
N188 N187 1.388 . S
N188 C189 1.346 . S
C189 N188 1.346 . S
C189 C190 1.396 . S
C189 C199 1.510 . S
C190 C186 1.401 . S
C190 C189 1.396 . S
C191 C186 1.499 . S
C191 H192 0.959 . S
C191 H193 0.960 . S
C191 H194 0.961 . S
H192 C191 0.959 . S
H193 C191 0.960 . S
H194 C191 0.961 . S
O195 Co170 1.967 . S
O195 C203 1.258 . S
O196 Co171 1.941 . S
O196 C203 1.266 . S
H197 C199 0.959 . S
H198 C199 0.961 . S
C199 C189 1.510 . S
C199 H197 0.959 . S
C199 H198 0.961 . S
C199 H200 0.960 . S
H200 C199 0.960 . S
H201 N181 0.862 . S
O202 Co170 1.920 . S
O202 C175 1.289 . S
C203 O195 1.258 . S
C203 O196 1.266 . S
Co204 O207 1.970 . S
Co204 N221 1.989 . S
Co204 O229 1.967 . S
Co204 O236 1.920 . S
Co205 O208 1.966 . S
Co205 N214 2.022 . S
Co205 N222 1.993 . S
Co205 O230 1.941 . S
C206 O207 1.258 . S
C206 O208 1.263 . S
O207 Co204 1.970 . S
O207 C206 1.258 . S
O208 Co205 1.966 . S
O208 C206 1.263 . S
C209 O210 1.235 . S
C209 O236 1.289 . S
O210 C209 1.235 . S
C211 C213 1.400 . S
C211 N214 1.351 . S
C211 C216 1.501 . S
C212 C213 1.387 . S
C212 N215 1.341 . S
C213 C211 1.400 . S
C213 C212 1.387 . S
N214 Co205 2.022 . S
N214 C211 1.351 . S
N214 N215 1.365 . S
N215 C212 1.341 . S
N215 N214 1.365 . S
N215 H235 0.862 . S
C216 C211 1.501 . S
C216 H217 0.961 . S
C216 H218 0.961 . S
C216 H219 0.960 . S
H217 C216 0.961 . S
H218 C216 0.961 . S
H219 C216 0.960 . S
C220 N221 1.342 . S
C220 C224 1.401 . S
C220 C225 1.499 . S
N221 Co204 1.989 . S
N221 C220 1.342 . S
N221 N222 1.388 . S
N222 Co205 1.993 . S
N222 N221 1.388 . S
N222 C223 1.346 . S
C223 N222 1.346 . S
C223 C224 1.396 . S
C223 C233 1.510 . S
C224 C220 1.401 . S
C224 C223 1.396 . S
C225 C220 1.499 . S
C225 H226 0.959 . S
C225 H227 0.960 . S
C225 H228 0.961 . S
H226 C225 0.959 . S
H227 C225 0.960 . S
H228 C225 0.961 . S
O229 Co204 1.967 . S
O229 C237 1.258 . S
O230 Co205 1.941 . S
O230 C237 1.266 . S
H231 C233 0.959 . S
H232 C233 0.961 . S
C233 C223 1.510 . S
C233 H231 0.959 . S
C233 H232 0.961 . S
C233 H234 0.960 . S
H234 C233 0.960 . S
H235 N215 0.862 . S
O236 Co204 1.920 . S
O236 C209 1.289 . S
C237 O229 1.258 . S
C237 O230 1.266 . S
Co238 O241 1.970 . S
Co238 N255 1.989 . S
Co238 O263 1.967 . S
Co238 O270 1.920 . S
Co239 O242 1.966 . S
Co239 N248 2.022 . S
Co239 N256 1.993 . S
Co239 O264 1.941 . S
C240 O241 1.258 . S
C240 O242 1.263 . S
O241 Co238 1.970 . S
O241 C240 1.258 . S
O242 Co239 1.966 . S
O242 C240 1.263 . S
C243 O244 1.235 . S
C243 O270 1.289 . S
O244 C243 1.235 . S
C245 C247 1.400 . S
C245 N248 1.351 . S
C245 C250 1.501 . S
C246 C247 1.387 . S
C246 N249 1.341 . S
C247 C245 1.400 . S
C247 C246 1.387 . S
N248 Co239 2.022 . S
N248 C245 1.351 . S
N248 N249 1.365 . S
N249 C246 1.341 . S
N249 N248 1.365 . S
N249 H269 0.862 . S
C250 C245 1.501 . S
C250 H251 0.961 . S
C250 H252 0.961 . S
C250 H253 0.960 . S
H251 C250 0.961 . S
H252 C250 0.961 . S
H253 C250 0.960 . S
C254 N255 1.342 . S
C254 C258 1.401 . S
C254 C259 1.499 . S
N255 Co238 1.989 . S
N255 C254 1.342 . S
N255 N256 1.388 . S
N256 Co239 1.993 . S
N256 N255 1.388 . S
N256 C257 1.346 . S
C257 N256 1.346 . S
C257 C258 1.396 . S
C257 C267 1.510 . S
C258 C254 1.401 . S
C258 C257 1.396 . S
C259 C254 1.499 . S
C259 H260 0.959 . S
C259 H261 0.960 1_655 S
C259 H262 0.961 . S
H260 C259 0.959 . S
H261 C259 0.960 1_455 S
H262 C259 0.961 . S
O263 Co238 1.967 . S
O263 C271 1.258 . S
O264 Co239 1.941 . S
O264 C271 1.266 . S
H265 C267 0.959 . S
H266 C267 0.961 . S
C267 C257 1.510 . S
C267 H265 0.959 . S
C267 H266 0.961 . S
C267 H268 0.960 . S
H268 C267 0.960 . S
H269 N249 0.862 . S
O270 Co238 1.920 . S
O270 C243 1.289 . S
C271 O263 1.258 . S
C271 O264 1.266 . S
Co272 O275 1.970 . S
Co272 N289 1.989 . S
Co272 O297 1.967 . S
Co272 O304 1.920 . S
Co273 O276 1.966 . S
Co273 N282 2.022 . S
Co273 N290 1.993 . S
Co273 O298 1.941 . S
C274 O275 1.258 . S
C274 O276 1.263 . S
O275 Co272 1.970 . S
O275 C274 1.258 . S
O276 Co273 1.966 . S
O276 C274 1.263 . S
C277 O278 1.235 . S
C277 O304 1.289 . S
O278 C277 1.235 . S
C279 C281 1.400 1_556 S
C279 N282 1.351 . S
C279 C284 1.501 . S
C280 C281 1.387 1_556 S
C280 N283 1.341 . S
C281 C279 1.400 1_554 S
C281 C280 1.387 1_554 S
N282 Co273 2.022 . S
N282 C279 1.351 . S
N282 N283 1.365 . S
N283 C280 1.341 . S
N283 N282 1.365 . S
N283 H303 0.862 . S
C284 C279 1.501 . S
C284 H285 0.961 . S
C284 H286 0.961 . S
C284 H287 0.960 . S
H285 C284 0.961 . S
H286 C284 0.961 . S
H287 C284 0.960 . S
C288 N289 1.342 . S
C288 C292 1.401 . S
C288 C293 1.499 . S
N289 Co272 1.989 . S
N289 C288 1.342 . S
N289 N290 1.388 . S
N290 Co273 1.993 . S
N290 N289 1.388 . S
N290 C291 1.346 . S
C291 N290 1.346 . S
C291 C292 1.396 . S
C291 C301 1.510 . S
C292 C288 1.401 . S
C292 C291 1.396 . S
C293 C288 1.499 . S
C293 H294 0.959 . S
C293 H295 0.960 . S
C293 H296 0.961 . S
H294 C293 0.959 . S
H295 C293 0.960 . S
H296 C293 0.961 . S
O297 Co272 1.967 . S
O297 C305 1.258 . S
O298 Co273 1.941 . S
O298 C305 1.266 . S
H299 C301 0.959 . S
H300 C301 0.961 . S
C301 C291 1.510 . S
C301 H299 0.959 . S
C301 H300 0.961 . S
C301 H302 0.960 . S
H302 C301 0.960 . S
H303 N283 0.862 . S
O304 Co272 1.920 . S
O304 C277 1.289 . S
C305 O297 1.258 . S
C305 O298 1.266 . S
Co306 O309 1.970 . S
Co306 N323 1.989 . S
Co306 O331 1.967 . S
Co306 O338 1.920 . S
Co307 O310 1.966 . S
Co307 N316 2.022 . S
Co307 N324 1.993 . S
Co307 O332 1.941 . S
C308 O309 1.258 . S
C308 O310 1.263 . S
O309 Co306 1.970 . S
O309 C308 1.258 . S
O310 Co307 1.966 . S
O310 C308 1.263 . S
C311 O312 1.235 . S
C311 O338 1.289 . S
O312 C311 1.235 . S
C313 C315 1.400 . S
C313 N316 1.351 . S
C313 C318 1.501 . S
C314 C315 1.387 . S
C314 N317 1.341 . S
C315 C313 1.400 . S
C315 C314 1.387 . S
N316 Co307 2.022 . S
N316 C313 1.351 . S
N316 N317 1.365 . S
N317 C314 1.341 . S
N317 N316 1.365 . S
N317 H337 0.862 . S
C318 C313 1.501 . S
C318 H319 0.961 . S
C318 H320 0.961 . S
C318 H321 0.960 . S
H319 C318 0.961 . S
H320 C318 0.961 . S
H321 C318 0.960 . S
C322 N323 1.342 . S
C322 C326 1.401 . S
C322 C327 1.499 . S
N323 Co306 1.989 . S
N323 C322 1.342 . S
N323 N324 1.388 . S
N324 Co307 1.993 . S
N324 N323 1.388 . S
N324 C325 1.346 . S
C325 N324 1.346 . S
C325 C326 1.396 . S
C325 C335 1.510 . S
C326 C322 1.401 . S
C326 C325 1.396 . S
C327 C322 1.499 . S
C327 H328 0.959 . S
C327 H329 0.960 . S
C327 H330 0.961 . S
H328 C327 0.959 . S
H329 C327 0.960 . S
H330 C327 0.961 . S
O331 Co306 1.967 . S
O331 C339 1.258 . S
O332 Co307 1.941 . S
O332 C339 1.266 . S
H333 C335 0.959 . S
H334 C335 0.961 . S
C335 C325 1.510 . S
C335 H333 0.959 . S
C335 H334 0.961 . S
C335 H336 0.960 . S
H336 C335 0.960 . S
H337 N317 0.862 . S
O338 Co306 1.920 . S
O338 C311 1.289 . S
C339 O331 1.258 . S
C339 O332 1.266 . S
Co340 O343 1.970 . S
Co340 N357 1.989 . S
Co340 O365 1.967 . S
Co340 O372 1.920 . S
Co341 O344 1.966 . S
Co341 N350 2.022 . S
Co341 N358 1.993 . S
Co341 O366 1.941 . S
C342 O343 1.258 . S
C342 O344 1.263 . S
O343 Co340 1.970 . S
O343 C342 1.258 . S
O344 Co341 1.966 . S
O344 C342 1.263 . S
C345 O346 1.235 . S
C345 O372 1.289 . S
O346 C345 1.235 . S
C347 C349 1.400 . S
C347 N350 1.351 . S
C347 C352 1.501 . S
C348 C349 1.387 . S
C348 N351 1.341 . S
C349 C347 1.400 . S
C349 C348 1.387 . S
N350 Co341 2.022 . S
N350 C347 1.351 . S
N350 N351 1.365 . S
N351 C348 1.341 . S
N351 N350 1.365 . S
N351 H371 0.862 . S
C352 C347 1.501 . S
C352 H353 0.961 . S
C352 H354 0.961 . S
C352 H355 0.960 . S
H353 C352 0.961 . S
H354 C352 0.961 . S
H355 C352 0.960 . S
C356 N357 1.342 . S
C356 C360 1.401 . S
C356 C361 1.499 . S
N357 Co340 1.989 . S
N357 C356 1.342 . S
N357 N358 1.388 . S
N358 Co341 1.993 . S
N358 N357 1.388 . S
N358 C359 1.346 . S
C359 N358 1.346 . S
C359 C360 1.396 . S
C359 C369 1.510 . S
C360 C356 1.401 . S
C360 C359 1.396 . S
C361 C356 1.499 . S
C361 H362 0.959 . S
C361 H363 0.960 . S
C361 H364 0.961 . S
H362 C361 0.959 . S
H363 C361 0.960 . S
H364 C361 0.961 . S
O365 Co340 1.967 . S
O365 C373 1.258 . S
O366 Co341 1.941 . S
O366 C373 1.266 . S
H367 C369 0.959 . S
H368 C369 0.961 . S
C369 C359 1.510 . S
C369 H367 0.959 . S
C369 H368 0.961 . S
C369 H370 0.960 . S
H370 C369 0.960 . S
H371 N351 0.862 . S
O372 Co340 1.920 . S
O372 C345 1.289 . S
C373 O365 1.258 . S
C373 O366 1.266 . S
Co374 O377 1.970 . S
Co374 N391 1.989 . S
Co374 O399 1.967 . S
Co374 O406 1.920 . S
Co375 O378 1.966 . S
Co375 N384 2.022 . S
Co375 N392 1.993 . S
Co375 O400 1.941 . S
C376 O377 1.258 . S
C376 O378 1.263 . S
O377 Co374 1.970 . S
O377 C376 1.258 . S
O378 Co375 1.966 . S
O378 C376 1.263 . S
C379 O380 1.235 . S
C379 O406 1.289 . S
O380 C379 1.235 . S
C381 C383 1.400 . S
C381 N384 1.351 . S
C381 C386 1.501 . S
C382 C383 1.387 . S
C382 N385 1.341 . S
C383 C381 1.400 . S
C383 C382 1.387 . S
N384 Co375 2.022 . S
N384 C381 1.351 . S
N384 N385 1.365 . S
N385 C382 1.341 . S
N385 N384 1.365 . S
N385 H405 0.862 . S
C386 C381 1.501 . S
C386 H387 0.961 . S
C386 H388 0.961 . S
C386 H389 0.960 . S
H387 C386 0.961 . S
H388 C386 0.961 . S
H389 C386 0.960 . S
C390 N391 1.342 . S
C390 C394 1.401 . S
C390 C395 1.499 . S
N391 Co374 1.989 . S
N391 C390 1.342 . S
N391 N392 1.388 . S
N392 Co375 1.993 . S
N392 N391 1.388 . S
N392 C393 1.346 . S
C393 N392 1.346 . S
C393 C394 1.396 . S
C393 C403 1.510 . S
C394 C390 1.401 . S
C394 C393 1.396 . S
C395 C390 1.499 . S
C395 H396 0.959 . S
C395 H397 0.960 . S
C395 H398 0.961 . S
H396 C395 0.959 . S
H397 C395 0.960 . S
H398 C395 0.961 . S
O399 Co374 1.967 . S
O399 C407 1.258 . S
O400 Co375 1.941 . S
O400 C407 1.266 . S
H401 C403 0.959 . S
H402 C403 0.961 . S
C403 C393 1.510 . S
C403 H401 0.959 . S
C403 H402 0.961 . S
C403 H404 0.960 . S
H404 C403 0.960 . S
H405 N385 0.862 . S
O406 Co374 1.920 . S
O406 C379 1.289 . S
C407 O399 1.258 . S
C407 O400 1.266 . S
Co408 O411 1.970 . S
Co408 N425 1.989 . S
Co408 O433 1.967 . S
Co408 O440 1.920 1_554 S
Co409 O412 1.966 . S
Co409 N418 2.022 . S
Co409 N426 1.993 . S
Co409 O434 1.941 . S
C410 O411 1.258 . S
C410 O412 1.263 . S
O411 Co408 1.970 . S
O411 C410 1.258 . S
O412 Co409 1.966 . S
O412 C410 1.263 . S
C413 O414 1.235 . S
C413 O440 1.289 . S
O414 C413 1.235 . S
C415 C417 1.400 . S
C415 N418 1.351 . S
C415 C420 1.501 . S
C416 C417 1.387 . S
C416 N419 1.341 . S
C417 C415 1.400 . S
C417 C416 1.387 . S
N418 Co409 2.022 . S
N418 C415 1.351 . S
N418 N419 1.365 . S
N419 C416 1.341 . S
N419 N418 1.365 . S
N419 H439 0.862 . S
C420 C415 1.501 . S
C420 H421 0.961 . S
C420 H422 0.961 . S
C420 H423 0.960 . S
H421 C420 0.961 . S
H422 C420 0.961 . S
H423 C420 0.960 . S
C424 N425 1.342 . S
C424 C428 1.401 . S
C424 C429 1.499 . S
N425 Co408 1.989 . S
N425 C424 1.342 . S
N425 N426 1.388 . S
N426 Co409 1.993 . S
N426 N425 1.388 . S
N426 C427 1.346 . S
C427 N426 1.346 . S
C427 C428 1.396 . S
C427 C437 1.510 . S
C428 C424 1.401 . S
C428 C427 1.396 . S
C429 C424 1.499 . S
C429 H430 0.959 . S
C429 H431 0.960 . S
C429 H432 0.961 . S
H430 C429 0.959 . S
H431 C429 0.960 . S
H432 C429 0.961 . S
O433 Co408 1.967 . S
O433 C441 1.258 . S
O434 Co409 1.941 . S
O434 C441 1.266 . S
H435 C437 0.959 . S
H436 C437 0.961 . S
C437 C427 1.510 . S
C437 H435 0.959 . S
C437 H436 0.961 . S
C437 H438 0.960 . S
H438 C437 0.960 . S
H439 N419 0.862 . S
O440 Co408 1.920 1_556 S
O440 C413 1.289 . S
C441 O433 1.258 . S
C441 O434 1.266 . S
Co442 O445 1.970 . S
Co442 N459 1.989 . S
Co442 O467 1.967 . S
Co442 O474 1.920 . S
Co443 O446 1.966 . S
Co443 N452 2.022 1_554 S
Co443 N460 1.993 . S
Co443 O468 1.941 . S
C444 O445 1.258 . S
C444 O446 1.263 . S
O445 Co442 1.970 . S
O445 C444 1.258 . S
O446 Co443 1.966 . S
O446 C444 1.263 . S
C447 O448 1.235 . S
C447 O474 1.289 . S
O448 C447 1.235 . S
C449 C451 1.400 . S
C449 N452 1.351 . S
C449 C454 1.501 . S
C450 C451 1.387 . S
C450 N453 1.341 . S
C451 C449 1.400 . S
C451 C450 1.387 . S
N452 Co443 2.022 1_556 S
N452 C449 1.351 . S
N452 N453 1.365 . S
N453 C450 1.341 . S
N453 N452 1.365 . S
N453 H473 0.862 . S
C454 C449 1.501 . S
C454 H455 0.961 . S
C454 H456 0.961 . S
C454 H457 0.960 . S
H455 C454 0.961 . S
H456 C454 0.961 . S
H457 C454 0.960 . S
C458 N459 1.342 . S
C458 C462 1.401 . S
C458 C463 1.499 . S
N459 Co442 1.989 . S
N459 C458 1.342 . S
N459 N460 1.388 . S
N460 Co443 1.993 . S
N460 N459 1.388 . S
N460 C461 1.346 . S
C461 N460 1.346 . S
C461 C462 1.396 . S
C461 C471 1.510 1_554 S
C462 C458 1.401 . S
C462 C461 1.396 . S
C463 C458 1.499 . S
C463 H464 0.959 . S
C463 H465 0.960 . S
C463 H466 0.961 . S
H464 C463 0.959 . S
H465 C463 0.960 . S
H466 C463 0.961 . S
O467 Co442 1.967 . S
O467 C475 1.258 . S
O468 Co443 1.941 . S
O468 C475 1.266 . S
H469 C471 0.959 . S
H470 C471 0.961 . S
C471 C461 1.510 1_556 S
C471 H469 0.959 . S
C471 H470 0.961 . S
C471 H472 0.960 . S
H472 C471 0.960 . S
H473 N453 0.862 . S
O474 Co442 1.920 . S
O474 C447 1.289 . S
C475 O467 1.258 . S
C475 O468 1.266 . S
Co476 O479 1.970 . S
Co476 N493 1.989 . S
Co476 O501 1.967 . S
Co476 O508 1.920 1_556 S
Co477 O480 1.966 . S
Co477 N486 2.022 . S
Co477 N494 1.993 . S
Co477 O502 1.941 . S
C478 O479 1.258 . S
C478 O480 1.263 . S
O479 Co476 1.970 . S
O479 C478 1.258 . S
O480 Co477 1.966 . S
O480 C478 1.263 . S
C481 O482 1.235 . S
C481 O508 1.289 . S
O482 C481 1.235 . S
C483 C485 1.400 . S
C483 N486 1.351 . S
C483 C488 1.501 . S
C484 C485 1.387 . S
C484 N487 1.341 . S
C485 C483 1.400 . S
C485 C484 1.387 . S
N486 Co477 2.022 . S
N486 C483 1.351 . S
N486 N487 1.365 . S
N487 C484 1.341 . S
N487 N486 1.365 . S
N487 H507 0.862 . S
C488 C483 1.501 . S
C488 H489 0.961 . S
C488 H490 0.961 . S
C488 H491 0.960 . S
H489 C488 0.961 . S
H490 C488 0.961 . S
H491 C488 0.960 . S
C492 N493 1.342 . S
C492 C496 1.401 . S
C492 C497 1.499 1_556 S
N493 Co476 1.989 . S
N493 C492 1.342 . S
N493 N494 1.388 . S
N494 Co477 1.993 . S
N494 N493 1.388 . S
N494 C495 1.346 . S
C495 N494 1.346 . S
C495 C496 1.396 . S
C495 C505 1.510 . S
C496 C492 1.401 . S
C496 C495 1.396 . S
C497 C492 1.499 1_554 S
C497 H498 0.959 . S
C497 H499 0.960 . S
C497 H500 0.961 . S
H498 C497 0.959 . S
H499 C497 0.960 . S
H500 C497 0.961 . S
O501 Co476 1.967 . S
O501 C509 1.258 . S
O502 Co477 1.941 . S
O502 C509 1.266 . S
H503 C505 0.959 . S
H504 C505 0.961 . S
C505 C495 1.510 . S
C505 H503 0.959 . S
C505 H504 0.961 . S
C505 H506 0.960 . S
H506 C505 0.960 . S
H507 N487 0.862 . S
O508 Co476 1.920 1_554 S
O508 C481 1.289 . S
C509 O501 1.258 . S
C509 O502 1.266 . S
Co510 O513 1.970 . S
Co510 N527 1.989 . S
Co510 O535 1.967 . S
Co510 O542 1.920 1_556 S
Co511 O514 1.966 . S
Co511 N520 2.022 . S
Co511 N528 1.993 . S
Co511 O536 1.941 . S
C512 O513 1.258 . S
C512 O514 1.263 . S
O513 Co510 1.970 . S
O513 C512 1.258 . S
O514 Co511 1.966 . S
O514 C512 1.263 . S
C515 O516 1.235 . S
C515 O542 1.289 . S
O516 C515 1.235 . S
C517 C519 1.400 . S
C517 N520 1.351 . S
C517 C522 1.501 . S
C518 C519 1.387 . S
C518 N521 1.341 . S
C519 C517 1.400 . S
C519 C518 1.387 . S
N520 Co511 2.022 . S
N520 C517 1.351 . S
N520 N521 1.365 . S
N521 C518 1.341 . S
N521 N520 1.365 . S
N521 H541 0.862 . S
C522 C517 1.501 . S
C522 H523 0.961 . S
C522 H524 0.961 . S
C522 H525 0.960 . S
H523 C522 0.961 . S
H524 C522 0.961 . S
H525 C522 0.960 . S
C526 N527 1.342 . S
C526 C530 1.401 . S
C526 C531 1.499 . S
N527 Co510 1.989 . S
N527 C526 1.342 . S
N527 N528 1.388 . S
N528 Co511 1.993 . S
N528 N527 1.388 . S
N528 C529 1.346 . S
C529 N528 1.346 . S
C529 C530 1.396 . S
C529 C539 1.510 . S
C530 C526 1.401 . S
C530 C529 1.396 . S
C531 C526 1.499 . S
C531 H532 0.959 1_556 S
C531 H533 0.960 . S
C531 H534 0.963 . S
H532 C531 0.959 1_554 S
H533 C531 0.960 . S
H534 C531 0.963 . S
O535 Co510 1.967 . S
O535 C543 1.258 . S
O536 Co511 1.941 . S
O536 C543 1.266 . S
H537 C539 0.959 . S
H538 C539 0.961 . S
C539 C529 1.510 . S
C539 H537 0.959 . S
C539 H538 0.961 . S
C539 H540 0.960 . S
H540 C539 0.960 . S
H541 N521 0.862 . S
O542 Co510 1.920 1_554 S
O542 C515 1.289 . S
C543 O535 1.258 . S
C543 O536 1.266 . S
H544 C550 0.930 . S
H545 C553 0.930 . S
H546 C554 0.930 . S
H547 C555 0.930 . S
H548 C558 0.930 . S
H549 C559 0.930 . S
C550 H544 0.930 . S
C550 C551 1.355 . S
C550 C552 1.415 . S
C551 C550 1.355 . S
C551 C553 1.419 . S
C552 C550 1.415 . S
C552 C557 1.425 . S
C552 C559 1.409 . S
C553 H545 0.930 . S
C553 C551 1.419 . S
C553 C554 1.362 . S
C554 H546 0.930 . S
C554 C553 1.362 . S
C554 C557 1.409 . S
C555 H547 0.930 . S
C555 C556 1.355 . S
C555 C557 1.415 . S
C556 C555 1.355 . S
C556 C558 1.419 . S
C557 C552 1.425 . S
C557 C554 1.409 . S
C557 C555 1.415 . S
C558 H548 0.930 . S
C558 C556 1.419 . S
C558 C559 1.362 . S
C559 H549 0.930 . S
C559 C552 1.409 . S
C559 C558 1.362 . S
H560 C566 0.930 . S
H561 C569 0.930 . S
H562 C570 0.930 . S
H563 C571 0.930 1_655 S
H564 C574 0.930 . S
H565 C575 0.930 . S
C566 H560 0.930 . S
C566 C567 1.355 . S
C566 C568 1.415 . S
C567 C566 1.355 . S
C567 C569 1.419 . S
C568 C566 1.415 . S
C568 C573 1.425 . S
C568 C575 1.409 . S
C569 H561 0.930 . S
C569 C567 1.419 . S
C569 C570 1.362 . S
C570 H562 0.930 . S
C570 C569 1.362 . S
C570 C573 1.409 . S
C571 H563 0.930 1_455 S
C571 C572 1.355 . S
C571 C573 1.415 . S
C572 C571 1.355 . S
C572 C574 1.419 . S
C573 C568 1.425 . S
C573 C570 1.409 . S
C573 C571 1.415 . S
C574 H564 0.930 . S
C574 C572 1.419 . S
C574 C575 1.362 . S
C575 H565 0.930 . S
C575 C568 1.409 . S
C575 C574 1.362 . S
H576 C582 0.930 . S
H577 C585 0.930 . S
H578 C586 0.930 . S
H579 C587 0.930 . S
H580 C590 0.930 . S
H581 C591 0.932 . S
C582 H576 0.930 . S
C582 C583 1.355 . S
C582 C584 1.415 . S
C583 C582 1.355 . S
C583 C585 1.419 . S
C584 C582 1.415 . S
C584 C589 1.425 . S
C584 C591 1.411 . S
C585 H577 0.930 . S
C585 C583 1.419 . S
C585 C586 1.362 . S
C586 H578 0.930 . S
C586 C585 1.362 . S
C586 C589 1.409 . S
C587 H579 0.930 . S
C587 C588 1.355 . S
C587 C589 1.415 1_554 S
C588 C587 1.355 . S
C588 C590 1.419 . S
C589 C584 1.425 . S
C589 C586 1.409 . S
C589 C587 1.415 1_556 S
C590 H580 0.930 . S
C590 C588 1.419 . S
C590 C591 1.359 1_554 S
C591 H581 0.932 . S
C591 C584 1.411 . S
C591 C590 1.359 1_556 S
H592 C598 0.930 . S
H593 C601 0.930 . S
H594 C602 0.930 . S
H595 C603 0.930 . S
H596 C606 0.930 . S
H597 C607 0.930 . S
C598 H592 0.930 . S
C598 C599 1.355 1_554 S
C598 C600 1.415 . S
C599 C598 1.355 1_556 S
C599 C601 1.419 . S
C600 C598 1.415 . S
C600 C605 1.425 . S
C600 C607 1.409 . S
C601 H593 0.930 . S
C601 C599 1.419 . S
C601 C602 1.362 . S
C602 H594 0.930 . S
C602 C601 1.362 . S
C602 C605 1.409 1_556 S
C603 H595 0.930 . S
C603 C604 1.355 . S
C603 C605 1.415 1_455 S
C604 C603 1.355 . S
C604 C606 1.419 1_455 S
C605 C600 1.425 . S
C605 C602 1.409 1_554 S
C605 C603 1.415 1_655 S
C606 H596 0.930 . S
C606 C604 1.419 1_655 S
C606 C607 1.362 . S
C607 H597 0.930 . S
C607 C600 1.409 . S
C607 C606 1.362 . S
H608 C614 0.930 . S
H609 C617 0.930 . S
H610 C618 0.930 . S
H611 C619 0.930 . S
H612 C622 0.930 . S
H613 C623 0.930 . S
C614 H608 0.930 . S
C614 C615 1.355 . S
C614 C616 1.415 . S
C615 C614 1.355 . S
C615 C617 1.419 . S
C616 C614 1.415 . S
C616 C621 1.425 . S
C616 C623 1.409 . S
C617 H609 0.930 . S
C617 C615 1.419 . S
C617 C618 1.362 . S
C618 H610 0.930 . S
C618 C617 1.362 . S
C618 C621 1.409 . S
C619 H611 0.930 . S
C619 C620 1.355 . S
C619 C621 1.415 . S
C620 C619 1.355 . S
C620 C622 1.419 . S
C621 C616 1.425 . S
C621 C618 1.409 . S
C621 C619 1.415 . S
C622 H612 0.930 . S
C622 C620 1.419 . S
C622 C623 1.362 . S
C623 H613 0.930 . S
C623 C616 1.409 . S
C623 C622 1.362 . S
H624 C630 0.930 . S
H625 C633 0.930 . S
H626 C634 0.930 . S
H627 C635 0.930 . S
H628 C638 0.930 . S
H629 C639 0.930 . S
C630 H624 0.930 . S
C630 C631 1.355 . S
C630 C632 1.415 . S
C631 C630 1.355 . S
C631 C633 1.419 . S
C632 C630 1.415 . S
C632 C637 1.425 . S
C632 C639 1.409 . S
C633 H625 0.930 . S
C633 C631 1.419 . S
C633 C634 1.362 . S
C634 H626 0.930 . S
C634 C633 1.362 . S
C634 C637 1.409 . S
C635 H627 0.930 . S
C635 C636 1.355 . S
C635 C637 1.415 . S
C636 C635 1.355 . S
C636 C638 1.419 . S
C637 C632 1.425 . S
C637 C634 1.409 . S
C637 C635 1.415 . S
C638 H628 0.930 . S
C638 C636 1.419 . S
C638 C639 1.362 . S
C639 H629 0.930 . S
C639 C632 1.409 . S
C639 C638 1.362 . S
H640 C646 0.925 1_556 S
H641 C649 0.930 . S
H642 C650 0.930 . S
H643 C651 0.930 . S
H644 C654 0.930 . S
H645 C655 0.930 . S
C646 H640 0.925 1_554 S
C646 C647 1.363 . S
C646 C648 1.410 1_554 S
C647 C646 1.363 . S
C647 C649 1.419 . S
C648 C646 1.410 1_556 S
C648 C653 1.425 . S
C648 C655 1.409 . S
C649 H641 0.930 . S
C649 C647 1.419 . S
C649 C650 1.362 . S
C650 H642 0.930 . S
C650 C649 1.362 . S
C650 C653 1.409 1_554 S
C651 H643 0.930 . S
C651 C652 1.355 . S
C651 C653 1.415 . S
C652 C651 1.355 . S
C652 C654 1.419 . S
C653 C648 1.425 . S
C653 C650 1.409 1_556 S
C653 C651 1.415 . S
C654 H644 0.930 . S
C654 C652 1.419 . S
C654 C655 1.362 . S
C655 H645 0.930 . S
C655 C648 1.409 . S
C655 C654 1.362 . S
H656 C662 0.930 . S
H657 C665 0.930 . S
H658 C666 0.930 . S
H659 C667 0.930 . S
H660 C670 0.930 . S
H661 C671 0.930 . S
C662 H656 0.930 . S
C662 C663 1.355 . S
C662 C664 1.415 . S
C663 C662 1.355 . S
C663 C665 1.419 . S
C664 C662 1.415 . S
C664 C669 1.425 . S
C664 C671 1.409 . S
C665 H657 0.930 . S
C665 C663 1.419 . S
C665 C666 1.362 1_565 S
C666 H658 0.930 . S
C666 C665 1.362 1_545 S
C666 C669 1.409 1_545 S
C667 H659 0.930 . S
C667 C668 1.355 . S
C667 C669 1.415 1_545 S
C668 C667 1.355 . S
C668 C670 1.419 1_545 S
C669 C664 1.425 . S
C669 C666 1.409 1_565 S
C669 C667 1.415 1_565 S
C670 H660 0.930 . S
C670 C668 1.419 1_565 S
C670 C671 1.362 . S
C671 H661 0.930 . S
C671 C664 1.409 . S
C671 C670 1.362 . S
H672 C678 0.930 . S
H673 C681 0.930 . S
H674 C682 0.930 . S
H675 C683 0.930 . S
H676 C686 0.930 . S
H677 C687 0.930 . S
C678 H672 0.930 . S
C678 C679 1.355 . S
C678 C680 1.415 . S
C679 C678 1.355 . S
C679 C681 1.419 . S
C680 C678 1.415 . S
C680 C685 1.425 . S
C680 C687 1.409 . S
C681 H673 0.930 . S
C681 C679 1.419 . S
C681 C682 1.362 . S
C682 H674 0.930 . S
C682 C681 1.362 . S
C682 C685 1.409 . S
C683 H675 0.930 . S
C683 C684 1.355 . S
C683 C685 1.415 . S
C684 C683 1.355 . S
C684 C686 1.419 . S
C685 C680 1.425 . S
C685 C682 1.409 . S
C685 C683 1.415 . S
C686 H676 0.930 . S
C686 C684 1.419 . S
C686 C687 1.362 . S
C687 H677 0.930 . S
C687 C680 1.409 . S
C687 C686 1.362 . S
H688 C694 0.930 . S
H689 C697 0.930 1_545 S
H690 C698 0.930 . S
H691 C699 0.930 . S
H692 C702 0.930 . S
H693 C703 0.930 1_455 S
C694 H688 0.930 . S
C694 C695 1.355 . S
C694 C696 1.415 . S
C695 C694 1.355 . S
C695 C697 1.419 . S
C696 C694 1.415 . S
C696 C701 1.425 1_565 S
C696 C703 1.409 . S
C697 H689 0.930 1_565 S
C697 C695 1.419 . S
C697 C698 1.362 1_565 S
C698 H690 0.930 . S
C698 C697 1.362 1_545 S
C698 C701 1.409 . S
C699 H691 0.930 . S
C699 C700 1.355 1_655 S
C699 C701 1.415 . S
C700 C699 1.355 1_455 S
C700 C702 1.419 1_545 S
C701 C696 1.425 1_545 S
C701 C698 1.409 . S
C701 C699 1.415 . S
C702 H692 0.930 . S
C702 C700 1.419 1_565 S
C702 C703 1.362 1_455 S
C703 H693 0.930 1_655 S
C703 C696 1.409 . S
C703 C702 1.362 1_655 S
H704 C710 0.930 . S
H705 C713 0.930 . S
H706 C714 0.930 . S
H707 C715 0.930 . S
H708 C718 0.930 . S
H709 C719 0.930 . S
C710 H704 0.930 . S
C710 C711 1.355 1_565 S
C710 C712 1.415 . S
C711 C710 1.355 1_545 S
C711 C713 1.419 . S
C712 C710 1.415 . S
C712 C717 1.425 . S
C712 C719 1.409 . S
C713 H705 0.930 . S
C713 C711 1.419 . S
C713 C714 1.362 . S
C714 H706 0.930 . S
C714 C713 1.362 . S
C714 C717 1.409 1_545 S
C715 H707 0.930 . S
C715 C716 1.355 . S
C715 C717 1.415 . S
C716 C715 1.355 . S
C716 C718 1.419 . S
C717 C712 1.425 . S
C717 C714 1.409 1_565 S
C717 C715 1.415 . S
C718 H708 0.930 . S
C718 C716 1.419 . S
C718 C719 1.362 . S
C719 H709 0.930 . S
C719 C712 1.409 . S
C719 C718 1.362 . S
H720 C726 0.930 . S
H721 C729 0.930 . S
H722 C730 0.930 . S
H723 C731 0.930 . S
H724 C734 0.930 . S
H725 C735 0.930 . S
C726 H720 0.930 . S
C726 C727 1.355 . S
C726 C728 1.415 . S
C727 C726 1.355 . S
C727 C729 1.419 . S
C728 C726 1.415 . S
C728 C733 1.425 . S
C728 C735 1.409 . S
C729 H721 0.930 . S
C729 C727 1.419 . S
C729 C730 1.362 . S
C730 H722 0.930 . S
C730 C729 1.362 . S
C730 C733 1.409 . S
C731 H723 0.930 . S
C731 C732 1.355 . S
C731 C733 1.415 . S
C732 C731 1.355 . S
C732 C734 1.419 . S
C733 C728 1.425 . S
C733 C730 1.409 . S
C733 C731 1.415 . S
C734 H724 0.930 . S
C734 C732 1.419 . S
C734 C735 1.362 . S
C735 H725 0.930 . S
C735 C728 1.409 . S
C735 C734 1.362 . S
H736 C742 0.930 . S
H737 C745 0.930 . S
H738 C746 0.930 . S
H739 C747 0.930 . S
H740 C750 0.930 . S
H741 C751 0.930 . S
C742 H736 0.930 . S
C742 C743 1.355 . S
C742 C744 1.415 . S
C743 C742 1.355 . S
C743 C745 1.419 . S
C744 C742 1.415 . S
C744 C749 1.425 . S
C744 C751 1.409 . S
C745 H737 0.930 . S
C745 C743 1.419 . S
C745 C746 1.362 . S
C746 H738 0.930 . S
C746 C745 1.362 . S
C746 C749 1.409 . S
C747 H739 0.930 . S
C747 C748 1.355 . S
C747 C749 1.415 . S
C748 C747 1.355 . S
C748 C750 1.419 . S
C749 C744 1.425 . S
C749 C746 1.409 . S
C749 C747 1.415 . S
C750 H740 0.930 . S
C750 C748 1.419 . S
C750 C751 1.362 . S
C751 H741 0.930 . S
C751 C744 1.409 . S
C751 C750 1.362 . S
H752 C758 0.930 . S
H753 C761 0.930 . S
H754 C762 0.930 . S
H755 C763 0.930 . S
H756 C766 0.930 . S
H757 C767 0.930 . S
C758 H752 0.930 . S
C758 C759 1.355 . S
C758 C760 1.415 . S
C759 C758 1.355 . S
C759 C761 1.419 . S
C760 C758 1.415 . S
C760 C765 1.425 . S
C760 C767 1.409 . S
C761 H753 0.930 . S
C761 C759 1.419 . S
C761 C762 1.362 . S
C762 H754 0.930 . S
C762 C761 1.362 . S
C762 C765 1.409 . S
C763 H755 0.930 . S
C763 C764 1.355 . S
C763 C765 1.415 . S
C764 C763 1.355 . S
C764 C766 1.419 . S
C765 C760 1.425 . S
C765 C762 1.409 . S
C765 C763 1.415 . S
C766 H756 0.930 . S
C766 C764 1.419 . S
C766 C767 1.362 . S
C767 H757 0.930 . S
C767 C760 1.409 . S
C767 C766 1.362 . S
H768 C774 0.930 . S
H769 C777 0.930 . S
H770 C778 0.930 . S
H771 C779 0.930 . S
H772 C782 0.930 . S
H773 C783 0.930 . S
C774 H768 0.930 . S
C774 C775 1.355 . S
C774 C776 1.415 . S
C775 C774 1.355 . S
C775 C777 1.419 . S
C776 C774 1.415 . S
C776 C781 1.425 . S
C776 C783 1.409 . S
C777 H769 0.930 . S
C777 C775 1.419 . S
C777 C778 1.362 . S
C778 H770 0.930 . S
C778 C777 1.362 . S
C778 C781 1.409 . S
C779 H771 0.930 . S
C779 C780 1.355 . S
C779 C781 1.415 . S
C780 C779 1.355 . S
C780 C782 1.419 . S
C781 C776 1.425 . S
C781 C778 1.409 . S
C781 C779 1.415 . S
C782 H772 0.930 . S
C782 C780 1.419 . S
C782 C783 1.362 . S
C783 H773 0.930 . S
C783 C776 1.409 . S
C783 C782 1.362 . S
H784 C790 0.930 . S
H785 C793 0.930 . S
H786 C794 0.930 . S
H787 C795 0.930 1_565 S
H788 C798 0.930 . S
H789 C799 0.930 . S
C790 H784 0.930 . S
C790 C791 1.355 . S
C790 C792 1.415 1_566 S
C791 C790 1.355 . S
C791 C793 1.419 . S
C792 C790 1.415 1_544 S
C792 C797 1.425 1_545 S
C792 C799 1.409 . S
C793 H785 0.930 . S
C793 C791 1.419 . S
C793 C794 1.362 . S
C794 H786 0.930 . S
C794 C793 1.362 . S
C794 C797 1.409 1_556 S
C795 H787 0.930 1_545 S
C795 C796 1.355 . S
C795 C797 1.415 1_545 S
C796 C795 1.355 . S
C796 C798 1.419 . S
C797 C792 1.425 1_565 S
C797 C794 1.409 1_554 S
C797 C795 1.415 1_565 S
C798 H788 0.930 . S
C798 C796 1.419 . S
C798 C799 1.362 . S
C799 H789 0.930 . S
C799 C792 1.409 . S
C799 C798 1.362 . S
H800 C806 0.930 . S
H801 C809 0.930 . S
H802 C810 0.930 . S
H803 C811 0.930 . S
H804 C814 0.930 . S
H805 C815 0.930 . S
C806 H800 0.930 . S
C806 C807 1.355 . S
C806 C808 1.415 . S
C807 C806 1.355 . S
C807 C809 1.419 . S
C808 C806 1.415 . S
C808 C813 1.425 . S
C808 C815 1.409 . S
C809 H801 0.930 . S
C809 C807 1.419 . S
C809 C810 1.362 . S
C810 H802 0.930 . S
C810 C809 1.362 . S
C810 C813 1.409 . S
C811 H803 0.930 . S
C811 C812 1.355 . S
C811 C813 1.415 . S
C812 C811 1.355 . S
C812 C814 1.419 . S
C813 C808 1.425 . S
C813 C810 1.409 . S
C813 C811 1.415 . S
C814 H804 0.930 . S
C814 C812 1.419 . S
C814 C815 1.362 . S
C815 H805 0.930 . S
C815 C808 1.409 . S
C815 C814 1.362 . S
H816 C822 0.930 . S
H817 C825 0.930 . S
H818 C826 0.930 . S
H819 C827 0.930 . S
H820 C830 0.930 . S
H821 C831 0.930 . S
C822 H816 0.930 . S
C822 C823 1.355 . S
C822 C824 1.415 . S
C823 C822 1.355 . S
C823 C825 1.419 . S
C824 C822 1.415 . S
C824 C829 1.425 . S
C824 C831 1.409 . S
C825 H817 0.930 . S
C825 C823 1.419 . S
C825 C826 1.362 . S
C826 H818 0.930 . S
C826 C825 1.362 . S
C826 C829 1.409 . S
C827 H819 0.930 . S
C827 C828 1.355 . S
C827 C829 1.415 . S
C828 C827 1.355 . S
C828 C830 1.419 . S
C829 C824 1.425 . S
C829 C826 1.409 . S
C829 C827 1.415 . S
C830 H820 0.930 . S
C830 C828 1.419 . S
C830 C831 1.362 . S
C831 H821 0.930 . S
C831 C824 1.409 . S
C831 C830 1.362 . S
H832 C838 0.930 . S
H833 C841 0.930 . S
H834 C842 0.930 . S
H835 C843 0.930 . S
H836 C846 0.930 . S
H837 C847 0.930 . S
C838 H832 0.930 . S
C838 C839 1.355 . S
C838 C840 1.415 . S
C839 C838 1.355 . S
C839 C841 1.419 . S
C840 C838 1.415 . S
C840 C845 1.425 . S
C840 C847 1.409 . S
C841 H833 0.930 . S
C841 C839 1.419 . S
C841 C842 1.362 . S
C842 H834 0.930 . S
C842 C841 1.362 . S
C842 C845 1.409 . S
C843 H835 0.930 . S
C843 C844 1.355 . S
C843 C845 1.415 . S
C844 C843 1.355 . S
C844 C846 1.419 . S
C845 C840 1.425 . S
C845 C842 1.409 . S
C845 C843 1.415 . S
C846 H836 0.930 . S
C846 C844 1.419 . S
C846 C847 1.362 . S
C847 H837 0.930 . S
C847 C840 1.409 . S
C847 C846 1.362 . S
H848 C854 0.930 . S
H849 C857 0.930 . S
H850 C858 0.930 . S
H851 C859 0.930 . S
H852 C862 0.930 . S
H853 C863 0.921 1_455 S
C854 H848 0.930 . S
C854 C855 1.355 . S
C854 C856 1.415 . S
C855 C854 1.355 . S
C855 C857 1.419 . S
C856 C854 1.415 . S
C856 C861 1.425 . S
C856 C863 1.409 . S
C857 H849 0.930 . S
C857 C855 1.419 . S
C857 C858 1.362 . S
C858 H850 0.930 . S
C858 C857 1.362 . S
C858 C861 1.409 . S
C859 H851 0.930 . S
C859 C860 1.355 . S
C859 C861 1.415 . S
C860 C859 1.355 . S
C860 C862 1.419 . S
C861 C856 1.425 . S
C861 C858 1.409 . S
C861 C859 1.415 . S
C862 H852 0.930 . S
C862 C860 1.419 . S
C862 C863 1.362 . S
C863 H853 0.921 1_655 S
C863 C856 1.409 . S
C863 C862 1.362 . S
H864 C870 0.930 . S
H865 C873 0.930 . S
H866 C874 0.930 . S
H867 C875 0.930 . S
H868 C878 0.930 . S
H869 C879 0.930 . S
C870 H864 0.930 . S
C870 C871 1.355 . S
C870 C872 1.415 . S
C871 C870 1.355 . S
C871 C873 1.419 . S
C872 C870 1.415 . S
C872 C877 1.425 . S
C872 C879 1.409 . S
C873 H865 0.930 . S
C873 C871 1.419 . S
C873 C874 1.362 . S
C874 H866 0.930 . S
C874 C873 1.362 . S
C874 C877 1.409 . S
C875 H867 0.930 . S
C875 C876 1.355 . S
C875 C877 1.415 . S
C876 C875 1.355 . S
C876 C878 1.419 . S
C877 C872 1.425 . S
C877 C874 1.409 . S
C877 C875 1.415 . S
C878 H868 0.930 . S
C878 C876 1.419 . S
C878 C879 1.362 . S
C879 H869 0.930 . S
C879 C872 1.409 . S
C879 C878 1.362 . S
H880 C886 0.930 . S
H881 C889 0.930 . S
H882 C890 0.930 . S
H883 C891 0.930 . S
H884 C894 0.930 . S
H885 C895 0.930 . S
C886 H880 0.930 . S
C886 C887 1.355 . S
C886 C888 1.415 . S
C887 C886 1.355 . S
C887 C889 1.419 . S
C888 C886 1.415 . S
C888 C893 1.425 . S
C888 C895 1.409 . S
C889 H881 0.930 . S
C889 C887 1.419 . S
C889 C890 1.362 . S
C890 H882 0.930 . S
C890 C889 1.362 . S
C890 C893 1.409 . S
C891 H883 0.930 . S
C891 C892 1.355 . S
C891 C893 1.415 1_556 S
C892 C891 1.355 . S
C892 C894 1.419 . S
C893 C888 1.425 . S
C893 C890 1.409 . S
C893 C891 1.415 1_554 S
C894 H884 0.930 . S
C894 C892 1.419 . S
C894 C895 1.362 1_556 S
C895 H885 0.930 . S
C895 C888 1.409 . S
C895 C894 1.362 1_554 S
H896 C902 0.930 . S
H897 C905 0.930 . S
H898 C906 0.930 . S
H899 C907 0.930 . S
H900 C910 0.930 . S
H901 C911 0.930 . S
C902 H896 0.930 . S
C902 C903 1.355 . S
C902 C904 1.415 . S
C903 C902 1.355 . S
C903 C905 1.419 . S
C904 C902 1.415 . S
C904 C909 1.425 . S
C904 C911 1.409 . S
C905 H897 0.930 . S
C905 C903 1.419 . S
C905 C906 1.362 . S
C906 H898 0.930 . S
C906 C905 1.362 . S
C906 C909 1.409 . S
C907 H899 0.930 . S
C907 C908 1.355 . S
C907 C909 1.415 . S
C908 C907 1.355 . S
C908 C910 1.419 . S
C909 C904 1.425 . S
C909 C906 1.409 . S
C909 C907 1.415 . S
C910 H900 0.930 . S
C910 C908 1.419 . S
C910 C911 1.362 . S
C911 H901 0.930 . S
C911 C904 1.409 . S
C911 C910 1.362 . S
H912 C918 0.930 . S
H913 C921 0.930 1_554 S
H914 C922 0.947 . S
H915 C923 0.930 . S
H916 C926 0.930 . S
H917 C927 0.930 . S
C918 H912 0.930 . S
C918 C919 1.355 . S
C918 C920 1.415 . S
C919 C918 1.355 . S
C919 C921 1.419 . S
C920 C918 1.415 . S
C920 C925 1.425 . S
C920 C927 1.409 . S
C921 H913 0.930 1_556 S
C921 C919 1.419 . S
C921 C922 1.362 . S
C922 H914 0.947 . S
C922 C921 1.362 . S
C922 C925 1.409 . S
C923 H915 0.930 . S
C923 C924 1.355 . S
C923 C925 1.415 . S
C924 C923 1.355 . S
C924 C926 1.419 . S
C925 C920 1.425 . S
C925 C922 1.409 . S
C925 C923 1.415 . S
C926 H916 0.930 . S
C926 C924 1.419 . S
C926 C927 1.362 . S
C927 H917 0.930 . S
C927 C920 1.409 . S
C927 C926 1.362 . S
H928 C934 0.930 . S
H929 C937 0.930 . S
H930 C938 0.930 . S
H931 C939 0.930 . S
H932 C942 0.930 . S
H933 C943 0.930 . S
C934 H928 0.930 . S
C934 C935 1.355 . S
C934 C936 1.415 . S
C935 C934 1.355 . S
C935 C937 1.419 . S
C936 C934 1.415 . S
C936 C941 1.425 . S
C936 C943 1.409 . S
C937 H929 0.930 . S
C937 C935 1.419 . S
C937 C938 1.362 . S
C938 H930 0.930 . S
C938 C937 1.362 . S
C938 C941 1.409 . S
C939 H931 0.930 . S
C939 C940 1.355 . S
C939 C941 1.415 . S
C940 C939 1.355 . S
C940 C942 1.419 . S
C941 C936 1.425 . S
C941 C938 1.409 . S
C941 C939 1.415 . S
C942 H932 0.930 . S
C942 C940 1.419 . S
C942 C943 1.362 . S
C943 H933 0.930 . S
C943 C936 1.409 . S
C943 C942 1.362 . S
H944 C950 0.930 . S
H945 C953 0.930 . S
H946 C954 0.930 . S
H947 C955 0.930 . S
H948 C958 0.930 . S
H949 C959 0.930 . S
C950 H944 0.930 . S
C950 C951 1.355 . S
C950 C952 1.415 1_556 S
C951 C950 1.355 . S
C951 C953 1.419 . S
C952 C950 1.415 1_554 S
C952 C957 1.425 . S
C952 C959 1.409 . S
C953 H945 0.930 . S
C953 C951 1.419 . S
C953 C954 1.362 1_556 S
C954 H946 0.930 . S
C954 C953 1.362 1_554 S
C954 C957 1.409 . S
C955 H947 0.930 . S
C955 C956 1.355 . S
C955 C957 1.415 . S
C956 C955 1.355 . S
C956 C958 1.419 . S
C957 C952 1.425 . S
C957 C954 1.409 . S
C957 C955 1.415 . S
C958 H948 0.930 . S
C958 C956 1.419 . S
C958 C959 1.362 . S
C959 H949 0.930 . S
C959 C952 1.409 . S
C959 C958 1.362 . S
H960 C966 0.930 . S
H961 C969 0.930 1_554 S
H962 C970 0.930 . S
H963 C971 0.930 . S
H964 C974 0.930 . S
H965 C975 0.930 . S
C966 H960 0.930 . S
C966 C967 1.355 . S
C966 C968 1.415 . S
C967 C966 1.355 . S
C967 C969 1.419 . S
C968 C966 1.415 . S
C968 C973 1.425 . S
C968 C975 1.409 . S
C969 H961 0.930 1_556 S
C969 C967 1.419 . S
C969 C970 1.362 . S
C970 H962 0.930 . S
C970 C969 1.362 . S
C970 C973 1.409 . S
C971 H963 0.930 . S
C971 C972 1.355 . S
C971 C973 1.415 . S
C972 C971 1.355 . S
C972 C974 1.419 . S
C973 C968 1.425 . S
C973 C970 1.409 . S
C973 C971 1.415 . S
C974 H964 0.930 . S
C974 C972 1.419 . S
C974 C975 1.362 . S
C975 H965 0.930 . S
C975 C968 1.409 . S
C975 C974 1.362 . S
H976 C982 0.930 . S
H977 C985 0.930 . S
H978 C986 0.930 . S
H979 C987 0.930 . S
H980 C990 0.930 . S
H981 C991 0.930 . S
C982 H976 0.930 . S
C982 C983 1.355 . S
C982 C984 1.415 . S
C983 C982 1.355 . S
C983 C985 1.419 . S
C984 C982 1.415 . S
C984 C989 1.425 . S
C984 C991 1.409 . S
C985 H977 0.930 . S
C985 C983 1.419 . S
C985 C986 1.362 . S
C986 H978 0.930 . S
C986 C985 1.362 . S
C986 C989 1.409 . S
C987 H979 0.930 . S
C987 C988 1.355 . S
C987 C989 1.415 . S
C988 C987 1.355 . S
C988 C990 1.419 . S
C989 C984 1.425 . S
C989 C986 1.409 . S
C989 C987 1.415 . S
C990 H980 0.930 . S
C990 C988 1.419 . S
C990 C991 1.362 . S
C991 H981 0.930 . S
C991 C984 1.409 . S
C991 C990 1.362 . S
H992 C998 0.930 . S
H993 C1001 0.930 . S
H994 C1002 0.930 . S
H995 C1003 0.930 . S
H996 C1006 0.930 . S
H997 C1007 0.930 . S
C998 H992 0.930 . S
C998 C999 1.355 . S
C998 C1000 1.415 . S
C999 C998 1.355 . S
C999 C1001 1.419 . S
C1000 C998 1.415 . S
C1000 C1005 1.425 . S
C1000 C1007 1.409 . S
C1001 H993 0.930 . S
C1001 C999 1.419 . S
C1001 C1002 1.362 . S
C1002 H994 0.930 . S
C1002 C1001 1.362 . S
C1002 C1005 1.409 . S
C1003 H995 0.930 . S
C1003 C1004 1.355 . S
C1003 C1005 1.415 . S
C1004 C1003 1.355 . S
C1004 C1006 1.419 . S
C1005 C1000 1.425 . S
C1005 C1002 1.409 . S
C1005 C1003 1.415 . S
C1006 H996 0.930 . S
C1006 C1004 1.419 . S
C1006 C1007 1.362 . S
C1007 H997 0.930 . S
C1007 C1000 1.409 . S
C1007 C1006 1.362 . S
H1008 C1014 0.930 . S
H1009 C1017 0.930 . S
H1010 C1018 0.930 . S
H1011 C1019 0.930 . S
H1012 C1022 0.930 . S
H1013 C1023 0.930 . S
C1014 H1008 0.930 . S
C1014 C1015 1.355 . S
C1014 C1016 1.415 . S
C1015 C1014 1.355 . S
C1015 C1017 1.419 . S
C1016 C1014 1.415 . S
C1016 C1021 1.425 . S
C1016 C1023 1.409 . S
C1017 H1009 0.930 . S
C1017 C1015 1.419 . S
C1017 C1018 1.362 . S
C1018 H1010 0.930 . S
C1018 C1017 1.362 . S
C1018 C1021 1.409 . S
C1019 H1011 0.930 . S
C1019 C1020 1.355 . S
C1019 C1021 1.415 . S
C1020 C1019 1.355 . S
C1020 C1022 1.419 . S
C1021 C1016 1.425 . S
C1021 C1018 1.409 . S
C1021 C1019 1.415 . S
C1022 H1012 0.930 . S
C1022 C1020 1.419 . S
C1022 C1023 1.362 . S
C1023 H1013 0.930 . S
C1023 C1016 1.409 . S
C1023 C1022 1.362 . S
H1024 C1030 0.930 . S
H1025 C1033 0.930 . S
H1026 C1034 0.930 . S
H1027 C1035 0.930 . S
H1028 C1038 0.930 . S
H1029 C1039 0.930 . S
C1030 H1024 0.930 . S
C1030 C1031 1.355 . S
C1030 C1032 1.415 . S
C1031 C1030 1.355 . S
C1031 C1033 1.419 . S
C1032 C1030 1.415 . S
C1032 C1037 1.425 . S
C1032 C1039 1.409 . S
C1033 H1025 0.930 . S
C1033 C1031 1.419 . S
C1033 C1034 1.362 . S
C1034 H1026 0.930 . S
C1034 C1033 1.362 . S
C1034 C1037 1.409 . S
C1035 H1027 0.930 . S
C1035 C1036 1.355 . S
C1035 C1037 1.415 . S
C1036 C1035 1.355 . S
C1036 C1038 1.419 . S
C1037 C1032 1.425 . S
C1037 C1034 1.409 . S
C1037 C1035 1.415 . S
C1038 H1028 0.930 . S
C1038 C1036 1.419 . S
C1038 C1039 1.362 . S
C1039 H1029 0.930 . S
C1039 C1032 1.409 . S
C1039 C1038 1.362 . S
H1040 C1046 0.930 . S
H1041 C1049 0.930 . S
H1042 C1050 0.930 . S
H1043 C1051 0.930 . S
H1044 C1054 0.930 . S
H1045 C1055 0.930 . S
C1046 H1040 0.930 . S
C1046 C1047 1.355 . S
C1046 C1048 1.415 . S
C1047 C1046 1.355 . S
C1047 C1049 1.419 . S
C1048 C1046 1.415 . S
C1048 C1053 1.425 . S
C1048 C1055 1.409 . S
C1049 H1041 0.930 . S
C1049 C1047 1.419 . S
C1049 C1050 1.362 . S
C1050 H1042 0.930 . S
C1050 C1049 1.362 . S
C1050 C1053 1.409 . S
C1051 H1043 0.930 . S
C1051 C1052 1.355 . S
C1051 C1053 1.415 . S
C1052 C1051 1.355 . S
C1052 C1054 1.419 . S
C1053 C1048 1.425 . S
C1053 C1050 1.409 . S
C1053 C1051 1.415 . S
C1054 H1044 0.930 . S
C1054 C1052 1.419 . S
C1054 C1055 1.362 . S
C1055 H1045 0.930 . S
C1055 C1048 1.409 . S
C1055 C1054 1.362 . S
H1056 C1062 0.930 . S
H1057 C1065 0.930 . S
H1058 C1066 0.930 . S
H1059 C1067 0.930 . S
H1060 C1070 0.930 . S
H1061 C1071 0.930 . S
C1062 H1056 0.930 . S
C1062 C1063 1.355 . S
C1062 C1064 1.415 . S
C1063 C1062 1.355 . S
C1063 C1065 1.419 . S
C1064 C1062 1.415 . S
C1064 C1069 1.425 . S
C1064 C1071 1.409 . S
C1065 H1057 0.930 . S
C1065 C1063 1.419 . S
C1065 C1066 1.362 . S
C1066 H1058 0.930 . S
C1066 C1065 1.362 . S
C1066 C1069 1.409 . S
C1067 H1059 0.930 . S
C1067 C1068 1.355 . S
C1067 C1069 1.415 . S
C1068 C1067 1.355 . S
C1068 C1070 1.419 . S
C1069 C1064 1.425 . S
C1069 C1066 1.409 . S
C1069 C1067 1.415 . S
C1070 H1060 0.930 . S
C1070 C1068 1.419 . S
C1070 C1071 1.362 . S
C1071 H1061 0.930 . S
C1071 C1064 1.409 . S
C1071 C1070 1.362 . S
H1072 C1078 0.930 . S
H1073 C1081 0.930 . S
H1074 C1082 0.930 1_554 S
H1075 C1083 0.930 . S
H1076 C1086 0.930 . S
H1077 C1087 0.930 . S
C1078 H1072 0.930 . S
C1078 C1079 1.355 . S
C1078 C1080 1.415 . S
C1079 C1078 1.355 . S
C1079 C1081 1.419 . S
C1080 C1078 1.415 . S
C1080 C1085 1.425 . S
C1080 C1087 1.409 . S
C1081 H1073 0.930 . S
C1081 C1079 1.419 . S
C1081 C1082 1.362 . S
C1082 H1074 0.930 1_556 S
C1082 C1081 1.362 . S
C1082 C1085 1.409 . S
C1083 H1075 0.930 . S
C1083 C1084 1.355 . S
C1083 C1085 1.415 . S
C1084 C1083 1.355 . S
C1084 C1086 1.419 . S
C1085 C1080 1.425 . S
C1085 C1082 1.409 . S
C1085 C1083 1.415 . S
C1086 H1076 0.930 . S
C1086 C1084 1.419 . S
C1086 C1087 1.362 . S
C1087 H1077 0.930 . S
C1087 C1080 1.409 . S
C1087 C1086 1.362 . S
H1088 C1094 0.930 . S
H1089 C1097 0.930 . S
H1090 C1098 0.930 . S
H1091 C1099 0.930 . S
H1092 C1102 0.930 . S
H1093 C1103 0.930 . S
C1094 H1088 0.930 . S
C1094 C1095 1.355 . S
C1094 C1096 1.415 . S
C1095 C1094 1.355 . S
C1095 C1097 1.419 . S
C1096 C1094 1.415 . S
C1096 C1101 1.425 . S
C1096 C1103 1.409 . S
C1097 H1089 0.930 . S
C1097 C1095 1.419 . S
C1097 C1098 1.362 . S
C1098 H1090 0.930 . S
C1098 C1097 1.362 . S
C1098 C1101 1.409 . S
C1099 H1091 0.930 . S
C1099 C1100 1.355 . S
C1099 C1101 1.415 . S
C1100 C1099 1.355 . S
C1100 C1102 1.419 . S
C1101 C1096 1.425 . S
C1101 C1098 1.409 . S
C1101 C1099 1.415 . S
C1102 H1092 0.930 . S
C1102 C1100 1.419 . S
C1102 C1103 1.362 . S
C1103 H1093 0.930 . S
C1103 C1096 1.409 . S
C1103 C1102 1.362 . S
H1104 C1110 0.930 . S
H1105 C1113 0.930 . S
H1106 C1114 0.930 . S
H1107 C1115 0.930 . S
H1108 C1118 0.930 . S
H1109 C1119 0.930 . S
C1110 H1104 0.930 . S
C1110 C1111 1.355 . S
C1110 C1112 1.415 . S
C1111 C1110 1.355 . S
C1111 C1113 1.419 . S
C1112 C1110 1.415 . S
C1112 C1117 1.425 . S
C1112 C1119 1.409 . S
C1113 H1105 0.930 . S
C1113 C1111 1.419 . S
C1113 C1114 1.362 . S
C1114 H1106 0.930 . S
C1114 C1113 1.362 . S
C1114 C1117 1.409 . S
C1115 H1107 0.930 . S
C1115 C1116 1.355 . S
C1115 C1117 1.415 . S
C1116 C1115 1.355 . S
C1116 C1118 1.419 . S
C1117 C1112 1.425 . S
C1117 C1114 1.409 . S
C1117 C1115 1.415 . S
C1118 H1108 0.930 . S
C1118 C1116 1.419 . S
C1118 C1119 1.362 . S
C1119 H1109 0.930 . S
C1119 C1112 1.409 . S
C1119 C1118 1.362 . S
H1120 C1126 0.930 . S
H1121 C1129 0.930 . S
H1122 C1130 0.930 . S
H1123 C1131 0.930 . S
H1124 C1134 0.930 . S
H1125 C1135 0.930 . S
C1126 H1120 0.930 . S
C1126 C1127 1.355 . S
C1126 C1128 1.415 . S
C1127 C1126 1.355 . S
C1127 C1129 1.419 . S
C1128 C1126 1.415 . S
C1128 C1133 1.425 . S
C1128 C1135 1.409 . S
C1129 H1121 0.930 . S
C1129 C1127 1.419 . S
C1129 C1130 1.362 . S
C1130 H1122 0.930 . S
C1130 C1129 1.362 . S
C1130 C1133 1.409 . S
C1131 H1123 0.930 . S
C1131 C1132 1.355 . S
C1131 C1133 1.415 . S
C1132 C1131 1.355 . S
C1132 C1134 1.419 . S
C1133 C1128 1.425 . S
C1133 C1130 1.409 . S
C1133 C1131 1.415 . S
C1134 H1124 0.930 . S
C1134 C1132 1.419 . S
C1134 C1135 1.362 . S
C1135 H1125 0.930 . S
C1135 C1128 1.409 . S
C1135 C1134 1.362 . S
H1136 C1142 0.930 . S
H1137 C1145 0.930 . S
H1138 C1146 0.930 . S
H1139 C1147 0.930 . S
H1140 C1150 0.930 . S
H1141 C1151 0.930 . S
C1142 H1136 0.930 . S
C1142 C1143 1.355 . S
C1142 C1144 1.415 . S
C1143 C1142 1.355 . S
C1143 C1145 1.419 . S
C1144 C1142 1.415 . S
C1144 C1149 1.425 . S
C1144 C1151 1.409 . S
C1145 H1137 0.930 . S
C1145 C1143 1.419 . S
C1145 C1146 1.362 . S
C1146 H1138 0.930 . S
C1146 C1145 1.362 . S
C1146 C1149 1.409 . S
C1147 H1139 0.930 . S
C1147 C1148 1.355 . S
C1147 C1149 1.415 . S
C1148 C1147 1.355 . S
C1148 C1150 1.419 . S
C1149 C1144 1.425 . S
C1149 C1146 1.409 . S
C1149 C1147 1.415 . S
C1150 H1140 0.930 . S
C1150 C1148 1.419 . S
C1150 C1151 1.362 . S
C1151 H1141 0.930 . S
C1151 C1144 1.409 . S
C1151 C1150 1.362 . S
H1152 C1158 0.930 . S
H1153 C1161 0.930 . S
H1154 C1162 0.930 . S
H1155 C1163 0.930 . S
H1156 C1166 0.930 . S
H1157 C1167 0.930 . S
C1158 H1152 0.930 . S
C1158 C1159 1.355 . S
C1158 C1160 1.415 . S
C1159 C1158 1.355 . S
C1159 C1161 1.419 . S
C1160 C1158 1.415 . S
C1160 C1165 1.425 . S
C1160 C1167 1.409 . S
C1161 H1153 0.930 . S
C1161 C1159 1.419 . S
C1161 C1162 1.362 . S
C1162 H1154 0.930 . S
C1162 C1161 1.362 . S
C1162 C1165 1.409 . S
C1163 H1155 0.930 . S
C1163 C1164 1.355 . S
C1163 C1165 1.415 . S
C1164 C1163 1.355 . S
C1164 C1166 1.419 . S
C1165 C1160 1.425 . S
C1165 C1162 1.409 . S
C1165 C1163 1.415 . S
C1166 H1156 0.930 . S
C1166 C1164 1.419 . S
C1166 C1167 1.362 . S
C1167 H1157 0.930 . S
C1167 C1160 1.409 . S
C1167 C1166 1.362 . S
H1168 C1174 0.930 . S
H1169 C1177 0.930 . S
H1170 C1178 0.930 . S
H1171 C1179 0.930 . S
H1172 C1182 0.930 . S
H1173 C1183 0.930 . S
C1174 H1168 0.930 . S
C1174 C1175 1.355 . S
C1174 C1176 1.415 . S
C1175 C1174 1.355 . S
C1175 C1177 1.419 . S
C1176 C1174 1.415 . S
C1176 C1181 1.425 . S
C1176 C1183 1.409 . S
C1177 H1169 0.930 . S
C1177 C1175 1.419 . S
C1177 C1178 1.362 . S
C1178 H1170 0.930 . S
C1178 C1177 1.362 . S
C1178 C1181 1.409 . S
C1179 H1171 0.930 . S
C1179 C1180 1.355 . S
C1179 C1181 1.415 . S
C1180 C1179 1.355 . S
C1180 C1182 1.419 . S
C1181 C1176 1.425 . S
C1181 C1178 1.409 . S
C1181 C1179 1.415 . S
C1182 H1172 0.930 . S
C1182 C1180 1.419 . S
C1182 C1183 1.362 . S
C1183 H1173 0.930 . S
C1183 C1176 1.409 . S
C1183 C1182 1.362 . S
C551 C360 1.586 . S
C556 C20 1.586 . S
C567 C67 1.626 . S
C572 C258 1.616 1_455 S
C583 C543 1.555 . S
C588 C54 1.530 . S
C599 C101 1.604 . S
C604 C33 1.595 . S
C615 C88 1.590 . S
C620 C292 1.571 . S
C631 C203 1.603 . S
C636 C122 1.589 1_455 S
C647 C462 1.528 . S
C652 C135 1.554 . S
C663 C496 1.597 . S
C668 C156 1.593 . S
C679 C190 1.546 . S
C684 C407 1.565 . S
C695 C237 1.581 . S
C700 C169 1.561 . S
C711 C428 1.561 . S
C716 C224 1.582 . S
C727 C326 1.533 . S
C732 C271 1.557 . S
C743 C530 1.607 . S
C748 C339 1.602 . S
C759 C305 1.568 . S
C764 C373 1.587 . S
C775 C394 1.623 . S
C780 C475 1.619 . S
C791 C509 1.602 . S
C796 C441 1.600 . S
C807 C9 1.236 . S
C812 C5 1.296 . S
C823 C43 1.330 . S
C828 C39 1.348 . S
C839 C77 1.257 . S
C844 C73 1.321 . S
C855 C107 1.279 . S
C860 C111 1.276 . S
C871 C141 1.340 . S
C876 C145 1.280 . S
C887 C179 1.324 . S
C892 C175 1.357 . S
C903 C213 1.246 1_556 S
C908 C209 1.310 . S
C919 C247 1.275 1_556 S
C924 C243 1.278 . S
C935 C281 1.268 . S
C940 C277 1.293 . S
C951 C311 1.326 . S
C956 C315 1.315 . S
C967 C349 1.304 1_556 S
C972 C345 1.292 . S
C983 C383 1.231 1_556 S
C988 C379 1.305 . S
C999 C417 1.230 . S
C1004 C413 1.304 . S
C1015 C451 1.256 . S
C1020 C447 1.342 . S
C1031 C485 1.268 . S
C1036 C481 1.324 . S
C1047 C515 1.310 . S
C1052 C519 1.240 . S
C1063 C2 1.565 . S
C1068 C36 1.600 . S
C1079 C70 1.512 . S
C1084 C104 1.516 . S
C1095 C138 1.558 . S
C1100 C172 1.598 . S
C1111 C206 1.522 . S
C1116 C240 1.523 . S
C1127 C308 1.600 . S
C1132 C274 1.566 . S
C1143 C342 1.512 . S
C1148 C376 1.516 . S
C1159 C444 1.597 . S
C1164 C410 1.572 . S
C1175 C512 1.509 . S
C1180 C478 1.514 . S
