# Generated by pormake.
# Topology vmb, (5)-cn, num edge types: 1
# Building blocks:
#     Node 0, Type 0, BuildingBlock: XOMCOT_clean_sbu_0, # of connection points: 5
#     Node 1, Type 0, BuildingBlock: XOMCOT_clean_sbu_0, # of connection points: 5
#     Node 2, Type 0, BuildingBlock: XOMCOT_clean_sbu_0, # of connection points: 5
#     Node 3, Type 0, BuildingBlock: XOMCOT_clean_sbu_0, # of connection points: 5
#     Node 4, Type 0, BuildingBlock: XOMCOT_clean_sbu_0, # of connection points: 5
#     Node 5, Type 0, BuildingBlock: XOMCOT_clean_sbu_0, # of connection points: 5
#     Node 6, Type 0, BuildingBlock: XOMCOT_clean_sbu_0, # of connection points: 5
#     Node 7, Type 0, BuildingBlock: XOMCOT_clean_sbu_0, # of connection points: 5
#     Edge 8, Type (0, 0), None
#     Edge 9, Type (0, 0), None
#     Edge 10, Type (0, 0), None
#     Edge 11, Type (0, 0), None
#     Edge 12, Type (0, 0), None
#     Edge 13, Type (0, 0), None
#     Edge 14, Type (0, 0), None
#     Edge 15, Type (0, 0), None
#     Edge 16, Type (0, 0), None
#     Edge 17, Type (0, 0), None
#     Edge 18, Type (0, 0), None
#     Edge 19, Type (0, 0), None
#     Edge 20, Type (0, 0), None
#     Edge 21, Type (0, 0), None
#     Edge 22, Type (0, 0), None
#     Edge 23, Type (0, 0), None
#     Edge 24, Type (0, 0), None
#     Edge 25, Type (0, 0), None
#     Edge 26, Type (0, 0), None
#     Edge 27, Type (0, 0), None
# Relax obj value: 0.113
# Max RMSD: 0.192
# Mean RMSD: 0.192
data_MOF--net-vmb--node1-XOMCOT_clean_sbu_0--edge1-none
_symmetry_space_group_name_H-M    P1
_symmetry_Int_Tables_number       1
_symmetry_cell_setting            triclinic
loop_
_symmetry_equiv_pos_as_xyz
'x, y, z'
_cell_length_a     19.884268
_cell_length_b     20.131399
_cell_length_c     15.482688
_cell_angle_alpha  89.999903
_cell_angle_beta   114.58561
_cell_angle_gamma 90.000018
loop_
_atom_site_label
_atom_site_type_symbol
_atom_site_fract_x
_atom_site_fract_y
_atom_site_fract_z
_atom_type_partial_charge
Co0 Co 0.29047 0.0995 0.41406 0.0
C1 C 0.43355 0.0328 0.46761 0.0
C2 C 0.44515 0.13895 0.46733 0.0
C3 C 0.51187 0.11041 0.4806 0.0
N4 N 0.39636 0.09023 0.45923 0.0
N5 N 0.50384 0.04388 0.47996 0.0
H6 H 0.40832 0.98425 0.45905 0.0
H7 H 0.43194 0.19133 0.45835 0.0
C8 C 0.27324 0.241 0.44911 0.0
O9 O 0.22868 0.246 0.35864 0.0
N10 N 0.18363 0.10895 0.36773 0.0
C11 C 0.14557 0.12133 0.4208 0.0
C12 C 0.0711 0.12482 0.36203 0.0
C13 C 0.1318 0.10623 0.27707 0.0
N14 N 0.06325 0.11551 0.27224 0.0
C15 C 0.25319 0.99792 0.51693 0.0
C16 C 0.33412 0.05244 0.69431 0.0
C17 C 0.28903 0.99745 0.68625 0.0
C18 C 0.25 0.96841 0.59707 0.0
C19 C 0.33731 0.07908 0.6134 0.0
N20 N 0.29452 0.0538 0.52587 0.0
H21 H 0.22051 0.97758 0.44731 0.0
H22 H 0.37327 0.121 0.62121 0.0
H23 H 0.17027 0.12777 0.49707 0.0
H24 H 0.1432 0.09745 0.21569 0.0
O25 O 0.27855 0.02438 0.33301 0.0
O26 O 0.28672 0.12934 0.29305 0.0
O27 O 0.30448 0.18613 0.48297 0.0
C28 C 0.28275 0.06638 0.27167 0.0
H29 H 0.56097 0.13647 0.48575 0.0
H30 H 1.02663 0.13441 0.38336 0.0
H31 H 0.36667 0.07483 0.76279 0.0
H32 H 0.21518 0.92538 0.58899 0.0
Co33 Co 0.76929 0.0995 0.04754 0.0
C34 C 0.62621 0.0328 -0.00601 0.0
C35 C 0.61462 0.13895 -0.00572 0.0
C36 C 0.54789 0.11041 -0.01899 0.0
N37 N 0.6634 0.09023 0.00237 0.0
N38 N 0.55593 0.04388 -0.01835 0.0
H39 H 0.65145 0.98424 0.00256 0.0
H40 H 0.62783 0.19133 0.00325 0.0
C41 C 0.78653 0.241 0.01249 0.0
O42 O 0.83108 0.246 0.10296 0.0
N43 N 0.87613 0.10895 0.09387 0.0
C44 C 0.91419 0.12133 0.04081 0.0
C45 C 0.98867 0.12482 0.09957 0.0
C46 C 0.92797 0.10623 0.18453 0.0
N47 N 0.99652 0.11551 0.18936 0.0
C48 C 0.80657 0.99792 0.94467 0.0
C49 C 0.72564 0.05244 0.7673 0.0
C50 C 0.77073 0.99745 0.77536 0.0
C51 C 0.80976 0.96841 0.86454 0.0
C52 C 0.72245 0.07908 0.84821 0.0
N53 N 0.76525 0.0538 0.93573 0.0
H54 H 0.83926 0.97758 0.0143 0.0
H55 H 0.6865 0.121 0.84039 0.0
H56 H 0.88949 0.12777 0.96454 0.0
H57 H 0.91657 0.09745 0.24591 0.0
O58 O 0.78121 0.02438 0.12859 0.0
O59 O 0.77305 0.12934 0.16856 0.0
O60 O 0.75529 0.18613 0.97864 0.0
C61 C 0.77702 0.06638 0.18993 0.0
H62 H 0.4988 0.13647 0.97585 0.0
H63 H 0.03313 0.13441 0.07824 0.0
H64 H 0.69309 0.07483 0.69882 0.0
H65 H 0.84459 0.92538 0.87261 0.0
Co66 Co 0.76929 0.93997 0.54754 0.0
C67 C 0.62623 1.00669 0.4941 0.0
C68 C 0.6146 0.90053 0.49423 0.0
C69 C 0.5479 0.92907 0.48104 0.0
N70 N 0.6634 0.94926 0.50238 0.0
N71 N 0.55597 0.99561 0.48183 0.0
H72 H 0.65148 0.05524 0.50271 0.0
H73 H 0.62779 0.84815 0.50311 0.0
C74 C 0.78651 0.79847 0.51249 0.0
O75 O 0.83107 0.79347 0.60296 0.0
N76 N 0.87613 0.93051 0.59387 0.0
C77 C 0.91419 0.91813 0.5408 0.0
C78 C 0.98867 0.91464 0.59957 0.0
C79 C 0.92797 0.93323 0.68453 0.0
N80 N 0.99652 0.92395 0.68936 0.0
C81 C 0.80658 0.04155 0.44467 0.0
C82 C 0.72563 0.98703 0.2673 0.0
C83 C 0.77073 0.04202 0.27536 0.0
C84 C 0.80977 0.07105 0.36454 0.0
C85 C 0.72245 0.9604 0.34821 0.0
N86 N 0.76525 0.98568 0.43574 0.0
H87 H 0.83927 0.06189 0.5143 0.0
H88 H 0.68649 0.91848 0.34039 0.0
H89 H 0.88949 0.91169 0.46453 0.0
H90 H 0.91657 0.942 0.74591 0.0
O91 O 0.78123 1.01509 0.6286 0.0
O92 O 0.77305 0.91013 0.66856 0.0
O93 O 0.75528 0.85334 0.47863 0.0
C94 C 0.77702 0.97309 0.68993 0.0
H95 H 0.49879 0.90301 0.47585 0.0
H96 H 0.03313 0.90505 0.57824 0.0
H97 H 0.69307 0.96466 0.19881 0.0
H98 H 0.8446 0.11408 0.37261 0.0
Co99 Co 0.29047 0.93997 0.91406 0.0
C100 C 0.43353 1.00669 0.9675 0.0
C101 C 0.44516 0.90053 0.96738 0.0
C102 C 0.51187 0.92907 0.98056 0.0
N103 N 0.39637 0.94926 0.95923 0.0
N104 N 0.5038 0.99561 0.97978 0.0
H105 H 0.40829 0.05524 0.95889 0.0
H106 H 0.43197 0.84815 0.95849 0.0
C107 C 0.27325 0.79847 0.94912 0.0
O108 O 0.2287 0.79347 0.85865 0.0
N109 N 0.18363 0.93051 0.86773 0.0
C110 C 0.14557 0.91813 0.9208 0.0
C111 C 0.0711 0.91464 0.86203 0.0
C112 C 0.1318 0.93323 0.77708 0.0
N113 N 0.06325 0.92395 0.77224 0.0
C114 C 0.25319 0.04155 0.01693 0.0
C115 C 0.33414 0.98703 0.19431 0.0
C116 C 0.28904 0.04202 0.18625 0.0
C117 C 0.25 0.07105 0.09706 0.0
C118 C 0.33732 0.9604 0.1134 0.0
N119 N 0.29452 0.98568 0.02587 0.0
H120 H 0.22049 0.06189 0.9473 0.0
H121 H 0.37328 0.91848 0.12121 0.0
H122 H 0.17027 0.91169 -0.00293 0.0
H123 H 0.1432 0.942 0.71569 0.0
O124 O 0.27854 1.01509 0.833 0.0
O125 O 0.28672 0.91013 0.79305 0.0
O126 O 0.30449 0.85334 -0.01703 0.0
C127 C 0.28275 0.97309 0.77167 0.0
H128 H 0.56097 0.90301 -0.01425 0.0
H129 H 1.02664 0.90505 0.88336 0.0
H130 H 0.36669 0.96466 0.26279 0.0
H131 H 0.21517 0.11408 0.08899 0.0
Co132 Co 0.79047 0.5995 0.41406 0.0
C133 C 0.93355 0.5328 0.46761 0.0
C134 C 0.94515 0.63895 0.46733 0.0
C135 C 1.01187 0.61041 0.4806 0.0
N136 N 0.89636 0.59023 0.45923 0.0
N137 N 1.00384 0.54388 0.47996 0.0
H138 H 0.90832 0.48425 0.45905 0.0
H139 H 0.93194 0.69133 0.45835 0.0
C140 C 0.77324 0.741 0.44911 0.0
O141 O 0.72868 0.746 0.35864 0.0
N142 N 0.68363 0.60895 0.36773 0.0
C143 C 0.64557 0.62133 0.4208 0.0
C144 C 0.5711 0.62482 0.36203 0.0
C145 C 0.6318 0.60623 0.27707 0.0
N146 N 0.56325 0.61551 0.27224 0.0
C147 C 0.75319 0.49792 0.51693 0.0
C148 C 0.83412 0.55244 0.69431 0.0
C149 C 0.78903 0.49745 0.68625 0.0
C150 C 0.75 0.46841 0.59707 0.0
C151 C 0.83731 0.57908 0.6134 0.0
N152 N 0.79452 0.5538 0.52587 0.0
H153 H 0.72051 0.47758 0.44731 0.0
H154 H 0.87327 0.621 0.62121 0.0
H155 H 0.67027 0.62777 0.49707 0.0
H156 H 0.6432 0.59745 0.21569 0.0
O157 O 0.77855 0.52438 0.33301 0.0
O158 O 0.78672 0.62934 0.29305 0.0
O159 O 0.80448 0.68613 0.48297 0.0
C160 C 0.78275 0.56638 0.27167 0.0
H161 H 0.06097 0.63647 0.48575 0.0
H162 H 0.52663 0.63441 0.38336 0.0
H163 H 0.86667 0.57483 0.76279 0.0
H164 H 0.71518 0.42538 0.58899 0.0
Co165 Co 0.26929 0.5995 0.04754 0.0
C166 C 0.12621 0.5328 -0.00601 0.0
C167 C 0.11462 0.63895 -0.00572 0.0
C168 C 0.04789 0.61041 -0.01899 0.0
N169 N 0.1634 0.59023 0.00237 0.0
N170 N 0.05593 0.54388 -0.01835 0.0
H171 H 0.15145 0.48424 0.00256 0.0
H172 H 0.12783 0.69133 0.00325 0.0
C173 C 0.28653 0.741 0.01249 0.0
O174 O 0.33108 0.746 0.10296 0.0
N175 N 0.37613 0.60895 0.09387 0.0
C176 C 0.41419 0.62133 0.04081 0.0
C177 C 0.48867 0.62482 0.09957 0.0
C178 C 0.42797 0.60623 0.18453 0.0
N179 N 0.49652 0.61551 0.18936 0.0
C180 C 0.30657 0.49792 0.94467 0.0
C181 C 0.22564 0.55244 0.7673 0.0
C182 C 0.27073 0.49745 0.77536 0.0
C183 C 0.30976 0.46841 0.86454 0.0
C184 C 0.22245 0.57908 0.84821 0.0
N185 N 0.26525 0.5538 0.93573 0.0
H186 H 0.33926 0.47758 0.0143 0.0
H187 H 0.1865 0.621 0.84039 0.0
H188 H 0.38949 0.62777 0.96454 0.0
H189 H 0.41657 0.59745 0.24591 0.0
O190 O 0.28121 0.52438 0.12859 0.0
O191 O 0.27305 0.62934 0.16856 0.0
O192 O 0.25529 0.68613 0.97864 0.0
C193 C 0.27702 0.56638 0.18993 0.0
H194 H 0.9988 0.63647 0.97585 0.0
H195 H 0.53313 0.63441 0.07824 0.0
H196 H 0.19309 0.57483 0.69882 0.0
H197 H 0.34459 0.42538 0.87261 0.0
Co198 Co 0.26929 0.43997 0.54754 0.0
C199 C 0.12623 0.50669 0.4941 0.0
C200 C 0.1146 0.40053 0.49423 0.0
C201 C 0.0479 0.42907 0.48104 0.0
N202 N 0.1634 0.44926 0.50238 0.0
N203 N 0.05597 0.49561 0.48183 0.0
H204 H 0.15148 0.55524 0.50271 0.0
H205 H 0.12779 0.34815 0.50311 0.0
C206 C 0.28651 0.29847 0.51249 0.0
O207 O 0.33107 0.29347 0.60296 0.0
N208 N 0.37613 0.43051 0.59387 0.0
C209 C 0.41419 0.41813 0.5408 0.0
C210 C 0.48867 0.41464 0.59957 0.0
C211 C 0.42797 0.43323 0.68453 0.0
N212 N 0.49652 0.42395 0.68936 0.0
C213 C 0.30658 0.54155 0.44467 0.0
C214 C 0.22563 0.48703 0.2673 0.0
C215 C 0.27073 0.54202 0.27536 0.0
C216 C 0.30977 0.57105 0.36454 0.0
C217 C 0.22245 0.4604 0.34821 0.0
N218 N 0.26525 0.48568 0.43574 0.0
H219 H 0.33927 0.56189 0.5143 0.0
H220 H 0.18649 0.41848 0.34039 0.0
H221 H 0.38949 0.41169 0.46453 0.0
H222 H 0.41657 0.442 0.74591 0.0
O223 O 0.28123 0.51509 0.6286 0.0
O224 O 0.27305 0.41013 0.66856 0.0
O225 O 0.25528 0.35334 0.47863 0.0
C226 C 0.27702 0.47309 0.68993 0.0
H227 H 0.99879 0.40301 0.47585 0.0
H228 H 0.53313 0.40505 0.57824 0.0
H229 H 0.19307 0.46466 0.19881 0.0
H230 H 0.3446 0.61408 0.37261 0.0
Co231 Co 0.79047 0.43997 0.91406 0.0
C232 C 0.93353 0.50669 0.9675 0.0
C233 C 0.94516 0.40053 0.96738 0.0
C234 C 1.01187 0.42907 0.98056 0.0
N235 N 0.89637 0.44926 0.95923 0.0
N236 N 1.0038 0.49561 0.97978 0.0
H237 H 0.90829 0.55524 0.95889 0.0
H238 H 0.93197 0.34815 0.95849 0.0
C239 C 0.77325 0.29847 0.94912 0.0
O240 O 0.7287 0.29347 0.85865 0.0
N241 N 0.68363 0.43051 0.86773 0.0
C242 C 0.64557 0.41813 0.9208 0.0
C243 C 0.5711 0.41464 0.86203 0.0
C244 C 0.6318 0.43323 0.77708 0.0
N245 N 0.56325 0.42395 0.77224 0.0
C246 C 0.75319 0.54155 0.01693 0.0
C247 C 0.83414 0.48703 0.19431 0.0
C248 C 0.78904 0.54202 0.18625 0.0
C249 C 0.75 0.57105 0.09706 0.0
C250 C 0.83732 0.4604 0.1134 0.0
N251 N 0.79452 0.48568 0.02587 0.0
H252 H 0.72049 0.56189 0.9473 0.0
H253 H 0.87328 0.41848 0.12121 0.0
H254 H 0.67027 0.41169 -0.00293 0.0
H255 H 0.6432 0.442 0.71569 0.0
O256 O 0.77854 0.51509 0.833 0.0
O257 O 0.78672 0.41013 0.79305 0.0
O258 O 0.80449 0.35334 -0.01703 0.0
C259 C 0.78275 0.47309 0.77167 0.0
H260 H 0.06097 0.40301 -0.01425 0.0
H261 H 0.52664 0.40505 0.88336 0.0
H262 H 0.86669 0.46466 0.26279 0.0
H263 H 0.71517 0.61408 0.08899 0.0
loop_
_geom_bond_atom_site_label_1
_geom_bond_atom_site_label_2
_geom_bond_distance
_geom_bond_site_symmetry_2
_ccdc_geom_bond_type
Co0 N4 2.148 . S
Co0 N10 2.128 . S
Co0 N20 2.194 . S
Co0 O25 2.351 1_545 S
Co0 O26 2.155 . S
Co0 O27 2.096 . S
C1 N4 1.301 . S
C1 N5 1.328 . S
C1 H6 0.930 . S
C2 C3 1.333 . S
C2 N4 1.317 . S
C2 H7 0.930 . S
C3 C2 1.333 . S
C3 N5 1.350 . S
C3 H29 0.931 . S
N4 Co0 2.148 . S
N4 C1 1.301 . S
N4 C2 1.317 . S
N5 C1 1.328 . S
N5 C3 1.350 . S
H6 C1 0.930 . S
H7 C2 0.930 . S
C8 O9 1.224 . S
C8 O27 1.247 . S
O9 C8 1.224 . S
N10 Co0 2.128 . S
N10 C11 1.355 . S
N10 C13 1.311 . S
C11 N10 1.355 . S
C11 C12 1.363 . S
C11 H23 0.929 1_545 S
C12 C11 1.363 . S
C12 N14 1.375 . S
C12 H30 0.931 . S
C13 N10 1.311 . S
C13 N14 1.347 . S
C13 H24 0.929 . S
N14 C12 1.375 . S
N14 C13 1.347 . S
C15 C18 1.365 . S
C15 N20 1.328 1_565 S
C15 H21 0.929 . S
C16 C17 1.362 1_545 S
C16 C19 1.378 . S
C16 H31 0.929 . S
C17 C16 1.362 1_565 S
C17 C18 1.366 . S
C18 C15 1.365 . S
C18 C17 1.366 . S
C18 H32 0.930 . S
C19 C16 1.378 . S
C19 N20 1.315 . S
C19 H22 0.930 . S
N20 Co0 2.194 . S
N20 C15 1.328 1_545 S
N20 C19 1.315 . S
H21 C15 0.929 . S
H22 C19 0.930 . S
H23 C11 0.929 1_565 S
H24 C13 0.929 . S
O25 Co0 2.351 1_565 S
O25 C28 1.244 1_565 S
O26 Co0 2.155 . S
O26 C28 1.240 . S
O27 Co0 2.096 . S
O27 C8 1.247 . S
C28 O25 1.244 1_545 S
C28 O26 1.240 . S
H29 C3 0.931 . S
H30 C12 0.931 . S
H31 C16 0.929 . S
H32 C18 0.930 . S
Co33 N37 2.148 . S
Co33 N43 2.128 . S
Co33 N53 2.194 1_554 S
Co33 O58 2.351 1_545 S
Co33 O59 2.155 . S
Co33 O60 2.096 . S
C34 N37 1.301 . S
C34 N38 1.328 1_554 S
C34 H39 0.930 . S
C35 C36 1.333 1_554 S
C35 N37 1.317 . S
C35 H40 0.930 . S
C36 C35 1.333 1_556 S
C36 N38 1.350 . S
C36 H62 0.931 . S
N37 Co33 2.148 . S
N37 C34 1.301 . S
N37 C35 1.317 . S
N38 C34 1.328 1_556 S
N38 C36 1.350 . S
H39 C34 0.930 . S
H40 C35 0.930 . S
C41 O42 1.224 1_554 S
C41 O60 1.247 . S
O42 C41 1.224 1_556 S
N43 Co33 2.128 . S
N43 C44 1.355 . S
N43 C46 1.311 . S
C44 N43 1.355 . S
C44 C45 1.363 . S
C44 H56 0.929 1_545 S
C45 C44 1.363 . S
C45 N47 1.375 . S
C45 H63 0.931 . S
C46 N43 1.311 . S
C46 N47 1.347 . S
C46 H57 0.929 . S
N47 C45 1.375 . S
N47 C46 1.347 . S
C48 C51 1.365 . S
C48 N53 1.328 1_565 S
C48 H54 0.929 1_556 S
C49 C50 1.362 1_545 S
C49 C52 1.378 . S
C49 H64 0.929 . S
C50 C49 1.362 1_565 S
C50 C51 1.366 . S
C51 C48 1.365 . S
C51 C50 1.366 . S
C51 H65 0.930 . S
C52 C49 1.378 . S
C52 N53 1.315 . S
C52 H55 0.930 . S
N53 Co33 2.194 1_556 S
N53 C48 1.328 1_545 S
N53 C52 1.315 . S
H54 C48 0.929 1_554 S
H55 C52 0.930 . S
H56 C44 0.929 1_565 S
H57 C46 0.929 . S
O58 Co33 2.351 1_565 S
O58 C61 1.244 1_565 S
O59 Co33 2.155 . S
O59 C61 1.240 . S
O60 Co33 2.096 . S
O60 C41 1.247 . S
C61 O58 1.244 1_545 S
C61 O59 1.240 . S
H62 C36 0.931 . S
H63 C45 0.931 . S
H64 C49 0.929 . S
H65 C51 0.930 . S
Co66 N70 2.148 . S
Co66 N76 2.128 . S
Co66 N86 2.194 . S
Co66 O91 2.351 1_565 S
Co66 O92 2.155 . S
Co66 O93 2.096 . S
C67 N70 1.301 . S
C67 N71 1.328 . S
C67 H72 0.930 . S
C68 C69 1.333 . S
C68 N70 1.317 . S
C68 H73 0.930 . S
C69 C68 1.333 . S
C69 N71 1.350 . S
C69 H95 0.931 . S
N70 Co66 2.148 . S
N70 C67 1.301 . S
N70 C68 1.317 . S
N71 C67 1.328 . S
N71 C69 1.350 . S
H72 C67 0.930 . S
H73 C68 0.930 . S
C74 O75 1.224 . S
C74 O93 1.247 . S
O75 C74 1.224 . S
N76 Co66 2.128 . S
N76 C77 1.355 . S
N76 C79 1.311 . S
C77 N76 1.355 . S
C77 C78 1.363 . S
C77 H89 0.929 1_565 S
C78 C77 1.363 . S
C78 N80 1.375 . S
C78 H96 0.931 . S
C79 N76 1.311 . S
C79 N80 1.347 . S
C79 H90 0.929 . S
N80 C78 1.375 . S
N80 C79 1.347 . S
C81 C84 1.365 . S
C81 N86 1.328 1_545 S
C81 H87 0.929 . S
C82 C83 1.362 1_565 S
C82 C85 1.378 . S
C82 H97 0.929 . S
C83 C82 1.362 1_545 S
C83 C84 1.366 . S
C84 C81 1.365 . S
C84 C83 1.366 . S
C84 H98 0.930 . S
C85 C82 1.378 . S
C85 N86 1.315 . S
C85 H88 0.930 . S
N86 Co66 2.194 . S
N86 C81 1.328 1_565 S
N86 C85 1.315 . S
H87 C81 0.929 . S
H88 C85 0.930 . S
H89 C77 0.929 1_545 S
H90 C79 0.929 . S
O91 Co66 2.351 1_545 S
O91 C94 1.244 1_545 S
O92 Co66 2.155 . S
O92 C94 1.240 . S
O93 Co66 2.096 . S
O93 C74 1.247 . S
C94 O91 1.244 1_565 S
C94 O92 1.240 . S
H95 C69 0.931 . S
H96 C78 0.931 . S
H97 C82 0.929 . S
H98 C84 0.930 . S
Co99 N103 2.148 . S
Co99 N109 2.128 . S
Co99 N119 2.194 1_556 S
Co99 O124 2.351 1_565 S
Co99 O125 2.155 . S
Co99 O126 2.096 . S
C100 N103 1.301 . S
C100 N104 1.328 1_556 S
C100 H105 0.930 . S
C101 C102 1.333 1_556 S
C101 N103 1.317 . S
C101 H106 0.930 . S
C102 C101 1.333 1_554 S
C102 N104 1.350 . S
C102 H128 0.931 . S
N103 Co99 2.148 . S
N103 C100 1.301 . S
N103 C101 1.317 . S
N104 C100 1.328 1_554 S
N104 C102 1.350 . S
H105 C100 0.930 . S
H106 C101 0.930 . S
C107 O108 1.224 1_556 S
C107 O126 1.247 . S
O108 C107 1.224 1_554 S
N109 Co99 2.128 . S
N109 C110 1.355 . S
N109 C112 1.311 . S
C110 N109 1.355 . S
C110 C111 1.363 . S
C110 H122 0.929 1_565 S
C111 C110 1.363 . S
C111 N113 1.375 . S
C111 H129 0.931 . S
C112 N109 1.311 . S
C112 N113 1.347 . S
C112 H123 0.929 . S
N113 C111 1.375 . S
N113 C112 1.347 . S
C114 C117 1.365 . S
C114 N119 1.328 1_545 S
C114 H120 0.929 1_554 S
C115 C116 1.362 1_565 S
C115 C118 1.378 . S
C115 H130 0.929 . S
C116 C115 1.362 1_545 S
C116 C117 1.366 . S
C117 C114 1.365 . S
C117 C116 1.366 . S
C117 H131 0.930 . S
C118 C115 1.378 . S
C118 N119 1.315 . S
C118 H121 0.930 . S
N119 Co99 2.194 1_554 S
N119 C114 1.328 1_565 S
N119 C118 1.315 . S
H120 C114 0.929 1_556 S
H121 C118 0.930 . S
H122 C110 0.929 1_545 S
H123 C112 0.929 . S
O124 Co99 2.351 1_545 S
O124 C127 1.244 1_545 S
O125 Co99 2.155 . S
O125 C127 1.240 . S
O126 Co99 2.096 . S
O126 C107 1.247 . S
C127 O124 1.244 1_565 S
C127 O125 1.240 . S
H128 C102 0.931 . S
H129 C111 0.931 . S
H130 C115 0.929 . S
H131 C117 0.930 . S
Co132 N136 2.148 . S
Co132 N142 2.128 . S
Co132 N152 2.194 . S
Co132 O157 2.351 . S
Co132 O158 2.155 . S
Co132 O159 2.096 . S
C133 N136 1.301 . S
C133 N137 1.328 . S
C133 H138 0.930 . S
C134 C135 1.333 . S
C134 N136 1.317 . S
C134 H139 0.930 . S
C135 C134 1.333 . S
C135 N137 1.350 . S
C135 H161 0.931 1_655 S
N136 Co132 2.148 . S
N136 C133 1.301 . S
N136 C134 1.317 . S
N137 C133 1.328 . S
N137 C135 1.350 . S
H138 C133 0.930 . S
H139 C134 0.930 . S
C140 O141 1.224 . S
C140 O159 1.247 . S
O141 C140 1.224 . S
N142 Co132 2.128 . S
N142 C143 1.355 . S
N142 C145 1.311 . S
C143 N142 1.355 . S
C143 C144 1.363 . S
C143 H155 0.929 . S
C144 C143 1.363 . S
C144 N146 1.375 . S
C144 H162 0.931 . S
C145 N142 1.311 . S
C145 N146 1.347 . S
C145 H156 0.929 . S
N146 C144 1.375 . S
N146 C145 1.347 . S
C147 C150 1.365 . S
C147 N152 1.328 . S
C147 H153 0.929 . S
C148 C149 1.362 . S
C148 C151 1.378 . S
C148 H163 0.929 . S
C149 C148 1.362 . S
C149 C150 1.366 . S
C150 C147 1.365 . S
C150 C149 1.366 . S
C150 H164 0.930 . S
C151 C148 1.378 . S
C151 N152 1.315 . S
C151 H154 0.930 . S
N152 Co132 2.194 . S
N152 C147 1.328 . S
N152 C151 1.315 . S
H153 C147 0.929 . S
H154 C151 0.930 . S
H155 C143 0.929 . S
H156 C145 0.929 . S
O157 Co132 2.351 . S
O157 C160 1.244 . S
O158 Co132 2.155 . S
O158 C160 1.240 . S
O159 Co132 2.096 . S
O159 C140 1.247 . S
C160 O157 1.244 . S
C160 O158 1.240 . S
H161 C135 0.931 1_455 S
H162 C144 0.931 . S
H163 C148 0.929 . S
H164 C150 0.930 . S
Co165 N169 2.148 . S
Co165 N175 2.128 . S
Co165 N185 2.194 1_554 S
Co165 O190 2.351 . S
Co165 O191 2.155 . S
Co165 O192 2.096 . S
C166 N169 1.301 . S
C166 N170 1.328 1_554 S
C166 H171 0.930 . S
C167 C168 1.333 1_554 S
C167 N169 1.317 . S
C167 H172 0.930 . S
C168 C167 1.333 1_556 S
C168 N170 1.350 . S
C168 H194 0.931 1_455 S
N169 Co165 2.148 . S
N169 C166 1.301 . S
N169 C167 1.317 . S
N170 C166 1.328 1_556 S
N170 C168 1.350 . S
H171 C166 0.930 . S
H172 C167 0.930 . S
C173 O174 1.224 1_554 S
C173 O192 1.247 . S
O174 C173 1.224 1_556 S
N175 Co165 2.128 . S
N175 C176 1.355 . S
N175 C178 1.311 . S
C176 N175 1.355 . S
C176 C177 1.363 . S
C176 H188 0.929 . S
C177 C176 1.363 . S
C177 N179 1.375 . S
C177 H195 0.931 . S
C178 N175 1.311 . S
C178 N179 1.347 . S
C178 H189 0.929 . S
N179 C177 1.375 . S
N179 C178 1.347 . S
C180 C183 1.365 . S
C180 N185 1.328 . S
C180 H186 0.929 1_556 S
C181 C182 1.362 . S
C181 C184 1.378 . S
C181 H196 0.929 . S
C182 C181 1.362 . S
C182 C183 1.366 . S
C183 C180 1.365 . S
C183 C182 1.366 . S
C183 H197 0.930 . S
C184 C181 1.378 . S
C184 N185 1.315 . S
C184 H187 0.930 . S
N185 Co165 2.194 1_556 S
N185 C180 1.328 . S
N185 C184 1.315 . S
H186 C180 0.929 1_554 S
H187 C184 0.930 . S
H188 C176 0.929 . S
H189 C178 0.929 . S
O190 Co165 2.351 . S
O190 C193 1.244 . S
O191 Co165 2.155 . S
O191 C193 1.240 . S
O192 Co165 2.096 . S
O192 C173 1.247 . S
C193 O190 1.244 . S
C193 O191 1.240 . S
H194 C168 0.931 1_655 S
H195 C177 0.931 . S
H196 C181 0.929 . S
H197 C183 0.930 . S
Co198 N202 2.148 . S
Co198 N208 2.128 . S
Co198 N218 2.194 . S
Co198 O223 2.351 . S
Co198 O224 2.155 . S
Co198 O225 2.096 . S
C199 N202 1.301 . S
C199 N203 1.328 . S
C199 H204 0.930 . S
C200 C201 1.333 . S
C200 N202 1.317 . S
C200 H205 0.930 . S
C201 C200 1.333 . S
C201 N203 1.350 . S
C201 H227 0.931 1_455 S
N202 Co198 2.148 . S
N202 C199 1.301 . S
N202 C200 1.317 . S
N203 C199 1.328 . S
N203 C201 1.350 . S
H204 C199 0.930 . S
H205 C200 0.930 . S
C206 O207 1.224 . S
C206 O225 1.247 . S
O207 C206 1.224 . S
N208 Co198 2.128 . S
N208 C209 1.355 . S
N208 C211 1.311 . S
C209 N208 1.355 . S
C209 C210 1.363 . S
C209 H221 0.929 . S
C210 C209 1.363 . S
C210 N212 1.375 . S
C210 H228 0.931 . S
C211 N208 1.311 . S
C211 N212 1.347 . S
C211 H222 0.929 . S
N212 C210 1.375 . S
N212 C211 1.347 . S
C213 C216 1.365 . S
C213 N218 1.328 . S
C213 H219 0.929 . S
C214 C215 1.362 . S
C214 C217 1.378 . S
C214 H229 0.929 . S
C215 C214 1.362 . S
C215 C216 1.366 . S
C216 C213 1.365 . S
C216 C215 1.366 . S
C216 H230 0.930 . S
C217 C214 1.378 . S
C217 N218 1.315 . S
C217 H220 0.930 . S
N218 Co198 2.194 . S
N218 C213 1.328 . S
N218 C217 1.315 . S
H219 C213 0.929 . S
H220 C217 0.930 . S
H221 C209 0.929 . S
H222 C211 0.929 . S
O223 Co198 2.351 . S
O223 C226 1.244 . S
O224 Co198 2.155 . S
O224 C226 1.240 . S
O225 Co198 2.096 . S
O225 C206 1.247 . S
C226 O223 1.244 . S
C226 O224 1.240 . S
H227 C201 0.931 1_655 S
H228 C210 0.931 . S
H229 C214 0.929 . S
H230 C216 0.930 . S
Co231 N235 2.148 . S
Co231 N241 2.128 . S
Co231 N251 2.194 1_556 S
Co231 O256 2.351 . S
Co231 O257 2.155 . S
Co231 O258 2.096 . S
C232 N235 1.301 . S
C232 N236 1.328 1_556 S
C232 H237 0.930 . S
C233 C234 1.333 1_556 S
C233 N235 1.317 . S
C233 H238 0.930 . S
C234 C233 1.333 1_554 S
C234 N236 1.350 . S
C234 H260 0.931 1_655 S
N235 Co231 2.148 . S
N235 C232 1.301 . S
N235 C233 1.317 . S
N236 C232 1.328 1_554 S
N236 C234 1.350 . S
H237 C232 0.930 . S
H238 C233 0.930 . S
C239 O240 1.224 1_556 S
C239 O258 1.247 . S
O240 C239 1.224 1_554 S
N241 Co231 2.128 . S
N241 C242 1.355 . S
N241 C244 1.311 . S
C242 N241 1.355 . S
C242 C243 1.363 . S
C242 H254 0.929 . S
C243 C242 1.363 . S
C243 N245 1.375 . S
C243 H261 0.931 . S
C244 N241 1.311 . S
C244 N245 1.347 . S
C244 H255 0.929 . S
N245 C243 1.375 . S
N245 C244 1.347 . S
C246 C249 1.365 . S
C246 N251 1.328 . S
C246 H252 0.929 1_554 S
C247 C248 1.362 . S
C247 C250 1.378 . S
C247 H262 0.929 . S
C248 C247 1.362 . S
C248 C249 1.366 . S
C249 C246 1.365 . S
C249 C248 1.366 . S
C249 H263 0.930 . S
C250 C247 1.378 . S
C250 N251 1.315 . S
C250 H253 0.930 . S
N251 Co231 2.194 1_554 S
N251 C246 1.328 . S
N251 C250 1.315 . S
H252 C246 0.929 1_556 S
H253 C250 0.930 . S
H254 C242 0.929 . S
H255 C244 0.929 . S
O256 Co231 2.351 . S
O256 C259 1.244 . S
O257 Co231 2.155 . S
O257 C259 1.240 . S
O258 Co231 2.096 . S
O258 C239 1.247 . S
C259 O256 1.244 . S
C259 O257 1.240 . S
H260 C234 0.931 1_455 S
H261 C243 0.931 . S
H262 C247 0.929 . S
H263 C249 0.930 . S
C116 C28 1.117 . S
C61 C83 1.117 . S
C94 C50 1.117 . S
C127 C17 1.118 . S
C160 C248 1.117 . S
C193 C215 1.118 . S
C182 C226 1.117 . S
C259 C149 1.117 . S
N71 N5 3.381 1_565 S
N104 N38 3.381 1_564 S
N137 N203 3.381 1_655 S
N170 N236 3.381 1_456 S
N14 N47 1.845 1_455 S
N113 N80 1.844 1_455 S
N179 N146 1.844 . S
N245 N212 1.845 . S
C206 C8 1.975 . S
C239 C41 1.975 1_556 S
C140 C74 1.975 . S
C107 C173 1.975 1_556 S
