# Generated by pormake.
# Topology wlp, (5)-cn, num edge types: 1
# Building blocks:
#     Node 0, Type 0, BuildingBlock: XOMCOT_clean_sbu_1, # of connection points: 5
#     Node 1, Type 0, BuildingBlock: XOMCOT_clean_sbu_1, # of connection points: 5
#     Node 2, Type 0, BuildingBlock: XOMCOT_clean_sbu_1, # of connection points: 5
#     Node 3, Type 0, BuildingBlock: XOMCOT_clean_sbu_1, # of connection points: 5
#     Node 4, Type 0, BuildingBlock: XOMCOT_clean_sbu_1, # of connection points: 5
#     Node 5, Type 0, BuildingBlock: XOMCOT_clean_sbu_1, # of connection points: 5
#     Node 6, Type 0, BuildingBlock: XOMCOT_clean_sbu_1, # of connection points: 5
#     Node 7, Type 0, BuildingBlock: XOMCOT_clean_sbu_1, # of connection points: 5
#     Node 8, Type 0, BuildingBlock: XOMCOT_clean_sbu_1, # of connection points: 5
#     Node 9, Type 0, BuildingBlock: XOMCOT_clean_sbu_1, # of connection points: 5
#     Node 10, Type 0, BuildingBlock: XOMCOT_clean_sbu_1, # of connection points: 5
#     Node 11, Type 0, BuildingBlock: XOMCOT_clean_sbu_1, # of connection points: 5
#     Node 12, Type 0, BuildingBlock: XOMCOT_clean_sbu_1, # of connection points: 5
#     Node 13, Type 0, BuildingBlock: XOMCOT_clean_sbu_1, # of connection points: 5
#     Node 14, Type 0, BuildingBlock: XOMCOT_clean_sbu_1, # of connection points: 5
#     Node 15, Type 0, BuildingBlock: XOMCOT_clean_sbu_1, # of connection points: 5
#     Node 16, Type 0, BuildingBlock: XOMCOT_clean_sbu_1, # of connection points: 5
#     Node 17, Type 0, BuildingBlock: XOMCOT_clean_sbu_1, # of connection points: 5
#     Node 18, Type 0, BuildingBlock: XOMCOT_clean_sbu_1, # of connection points: 5
#     Node 19, Type 0, BuildingBlock: XOMCOT_clean_sbu_1, # of connection points: 5
#     Node 20, Type 0, BuildingBlock: XOMCOT_clean_sbu_1, # of connection points: 5
#     Node 21, Type 0, BuildingBlock: XOMCOT_clean_sbu_1, # of connection points: 5
#     Node 22, Type 0, BuildingBlock: XOMCOT_clean_sbu_1, # of connection points: 5
#     Node 23, Type 0, BuildingBlock: XOMCOT_clean_sbu_1, # of connection points: 5
#     Node 24, Type 0, BuildingBlock: XOMCOT_clean_sbu_1, # of connection points: 5
#     Node 25, Type 0, BuildingBlock: XOMCOT_clean_sbu_1, # of connection points: 5
#     Node 26, Type 0, BuildingBlock: XOMCOT_clean_sbu_1, # of connection points: 5
#     Node 27, Type 0, BuildingBlock: XOMCOT_clean_sbu_1, # of connection points: 5
#     Node 28, Type 0, BuildingBlock: XOMCOT_clean_sbu_1, # of connection points: 5
#     Node 29, Type 0, BuildingBlock: XOMCOT_clean_sbu_1, # of connection points: 5
#     Node 30, Type 0, BuildingBlock: XOMCOT_clean_sbu_1, # of connection points: 5
#     Node 31, Type 0, BuildingBlock: XOMCOT_clean_sbu_1, # of connection points: 5
#     Node 32, Type 0, BuildingBlock: XOMCOT_clean_sbu_1, # of connection points: 5
#     Node 33, Type 0, BuildingBlock: XOMCOT_clean_sbu_1, # of connection points: 5
#     Node 34, Type 0, BuildingBlock: XOMCOT_clean_sbu_1, # of connection points: 5
#     Node 35, Type 0, BuildingBlock: XOMCOT_clean_sbu_1, # of connection points: 5
#     Edge 36, Type (0, 0), None
#     Edge 37, Type (0, 0), None
#     Edge 38, Type (0, 0), None
#     Edge 39, Type (0, 0), None
#     Edge 40, Type (0, 0), None
#     Edge 41, Type (0, 0), None
#     Edge 42, Type (0, 0), None
#     Edge 43, Type (0, 0), None
#     Edge 44, Type (0, 0), None
#     Edge 45, Type (0, 0), None
#     Edge 46, Type (0, 0), None
#     Edge 47, Type (0, 0), None
#     Edge 48, Type (0, 0), None
#     Edge 49, Type (0, 0), None
#     Edge 50, Type (0, 0), None
#     Edge 51, Type (0, 0), None
#     Edge 52, Type (0, 0), None
#     Edge 53, Type (0, 0), None
#     Edge 54, Type (0, 0), None
#     Edge 55, Type (0, 0), None
#     Edge 56, Type (0, 0), None
#     Edge 57, Type (0, 0), None
#     Edge 58, Type (0, 0), None
#     Edge 59, Type (0, 0), None
#     Edge 60, Type (0, 0), None
#     Edge 61, Type (0, 0), None
#     Edge 62, Type (0, 0), None
#     Edge 63, Type (0, 0), None
#     Edge 64, Type (0, 0), None
#     Edge 65, Type (0, 0), None
#     Edge 66, Type (0, 0), None
#     Edge 67, Type (0, 0), None
#     Edge 68, Type (0, 0), None
#     Edge 69, Type (0, 0), None
#     Edge 70, Type (0, 0), None
#     Edge 71, Type (0, 0), None
#     Edge 72, Type (0, 0), None
#     Edge 73, Type (0, 0), None
#     Edge 74, Type (0, 0), None
#     Edge 75, Type (0, 0), None
#     Edge 76, Type (0, 0), None
#     Edge 77, Type (0, 0), None
#     Edge 78, Type (0, 0), None
#     Edge 79, Type (0, 0), None
#     Edge 80, Type (0, 0), None
#     Edge 81, Type (0, 0), None
#     Edge 82, Type (0, 0), None
#     Edge 83, Type (0, 0), None
#     Edge 84, Type (0, 0), None
#     Edge 85, Type (0, 0), None
#     Edge 86, Type (0, 0), None
#     Edge 87, Type (0, 0), None
#     Edge 88, Type (0, 0), None
#     Edge 89, Type (0, 0), None
#     Edge 90, Type (0, 0), None
#     Edge 91, Type (0, 0), None
#     Edge 92, Type (0, 0), None
#     Edge 93, Type (0, 0), None
#     Edge 94, Type (0, 0), None
#     Edge 95, Type (0, 0), None
#     Edge 96, Type (0, 0), None
#     Edge 97, Type (0, 0), None
#     Edge 98, Type (0, 0), None
#     Edge 99, Type (0, 0), None
#     Edge 100, Type (0, 0), None
#     Edge 101, Type (0, 0), None
#     Edge 102, Type (0, 0), None
#     Edge 103, Type (0, 0), None
#     Edge 104, Type (0, 0), None
#     Edge 105, Type (0, 0), None
#     Edge 106, Type (0, 0), None
#     Edge 107, Type (0, 0), None
#     Edge 108, Type (0, 0), None
#     Edge 109, Type (0, 0), None
#     Edge 110, Type (0, 0), None
#     Edge 111, Type (0, 0), None
#     Edge 112, Type (0, 0), None
#     Edge 113, Type (0, 0), None
#     Edge 114, Type (0, 0), None
#     Edge 115, Type (0, 0), None
#     Edge 116, Type (0, 0), None
#     Edge 117, Type (0, 0), None
#     Edge 118, Type (0, 0), None
#     Edge 119, Type (0, 0), None
#     Edge 120, Type (0, 0), None
#     Edge 121, Type (0, 0), None
#     Edge 122, Type (0, 0), None
#     Edge 123, Type (0, 0), None
#     Edge 124, Type (0, 0), None
#     Edge 125, Type (0, 0), None
# Relax obj value: 0.329
# Max RMSD: 0.192
# Mean RMSD: 0.188
data_MOF--net-wlp--node1-XOMCOT_clean_sbu_1--edge1-none
_symmetry_space_group_name_H-M    P1
_symmetry_Int_Tables_number       1
_symmetry_cell_setting            triclinic
loop_
_symmetry_equiv_pos_as_xyz
'x, y, z'
_cell_length_a     57.354802
_cell_length_b     57.379489
_cell_length_c     10.108713
_cell_angle_alpha  90.025453
_cell_angle_beta   89.950317
_cell_angle_gamma 120.04523
loop_
_atom_site_label
_atom_site_type_symbol
_atom_site_fract_x
_atom_site_fract_y
_atom_site_fract_z
_atom_type_partial_charge
C0 C 0.26567 0.17855 0.36953 0.0
C1 C 0.25024 0.16073 0.46562 0.0
N2 N 0.23313 0.13701 0.40724 0.0
N3 N 0.25771 0.16619 0.25157 0.0
C4 C 0.23785 0.14123 0.2771 0.0
H5 H 0.28047 0.19956 0.38382 0.0
Co6 Co 0.25867 0.18206 0.10106 0.0
C7 C 0.27303 0.14205 0.91066 0.0
O8 O 0.29821 0.15881 0.87898 0.0
N9 N 0.25844 0.19816 0.95099 0.0
C10 C 0.27033 0.22327 0.77083 0.0
C11 C 0.2731 0.20401 0.83854 0.0
C12 C 0.24639 0.21283 0.94801 0.0
N13 N 0.25458 0.22925 0.84517 0.0
O14 O 0.25178 0.21008 0.21895 0.0
H15 H 0.28612 0.1962 0.81203 0.0
H16 H 0.23151 0.2114 1.01821 0.0
O17 O 0.26019 0.15061 0.98682 0.0
C18 C 0.2527 0.23024 0.28608 0.0
O19 O 0.27583 0.25278 0.29435 0.0
N20 N 0.29767 0.2042 0.10606 0.0
C21 C 0.35221 0.23303 1.02277 0.0
C22 C 0.34049 0.20648 0.07201 0.0
C23 C 0.31335 0.19254 0.11324 0.0
C24 C 0.30962 0.23103 0.07673 0.0
C25 C 0.3364 0.24549 1.03172 0.0
H26 H 0.30444 0.17166 0.14237 0.0
H27 H 0.29771 0.24082 0.07476 0.0
H28 H 0.22735 0.1262 0.20148 0.0
H29 H 0.25294 0.16412 0.57129 0.0
H30 H 0.27905 0.23221 0.67617 0.0
H31 H 0.3518 0.19605 0.07553 0.0
H32 H 0.34384 0.26586 0.99773 0.0
C33 C 0.87728 0.09896 0.36962 0.0
C34 C 0.89511 0.10147 0.46599 0.0
N35 N 0.91863 0.10732 0.40747 0.0
N36 N 0.88952 0.10269 0.25168 0.0
C37 C 0.91433 0.10739 0.27735 0.0
H38 H 0.85637 0.09317 0.3839 0.0
Co39 Co 0.87414 0.0882 0.09971 0.0
C40 C 0.91559 0.14155 0.90986 0.0
O41 O 0.89855 0.14928 0.87358 0.0
N42 N 0.85869 0.07227 0.94805 0.0
C43 C 0.83548 0.05803 0.76241 0.0
C44 C 0.85325 0.08052 0.83284 0.0
C45 C 0.84521 0.04552 0.94457 0.0
N46 N 0.82995 0.03659 0.83795 0.0
O47 O 0.84322 0.05437 0.21318 0.0
H48 H 0.86055 0.10121 0.8051 0.0
H49 H 0.84695 0.0326 1.01667 0.0
O50 O 0.90715 0.12052 0.98849 0.0
C51 C 0.84329 0.03514 0.28443 0.0
O52 O 0.86587 0.03468 0.29435 0.0
N53 N 0.85349 0.10651 0.09878 0.0
C54 C 0.82568 0.13308 1.01525 0.0
C55 C 0.85218 0.14753 0.06559 0.0
C56 C 0.86563 0.13389 0.10716 0.0
C57 C 0.82671 0.09204 0.06779 0.0
C58 C 0.81279 0.10477 1.02246 0.0
H59 H 0.88644 0.14549 0.13794 0.0
H60 H 0.81652 0.07029 0.06553 0.0
H61 H 0.92922 0.11132 0.20171 0.0
H62 H 0.89184 0.10121 0.57163 0.0
H63 H 0.82735 0.05731 0.66493 0.0
H64 H 0.8629 0.16928 0.07007 0.0
H65 H 0.79245 0.09212 0.98724 0.0
C66 C 0.96115 0.7933 0.3713 0.0
C67 C 0.95887 0.80868 0.46799 0.0
N68 N 0.95231 0.82588 0.41043 0.0
N69 N 0.95673 0.80137 0.25376 0.0
C70 C 0.95173 0.82125 0.28016 0.0
H71 H 0.96731 0.77846 0.38486 0.0
Co72 Co 0.97161 0.80058 0.10274 0.0
C73 C 0.91719 0.78608 0.91348 0.0
O74 O 0.9089 0.76095 0.88181 0.0
N75 N 0.98792 0.801 0.9522 0.0
C76 C 1.00124 0.78961 0.77072 0.0
C77 C 0.97916 0.78652 0.83931 0.0
C78 C 1.01468 0.81328 0.94867 0.0
N79 N 1.02297 0.80539 0.84492 0.0
O80 O 1.00655 0.80741 0.2196 0.0
H81 H 0.95831 0.77339 0.81302 0.0
H82 H 1.0281 0.82807 1.01922 0.0
O83 O 0.93858 0.79903 0.98944 0.0
C84 C 1.02583 0.80651 0.28628 0.0
O85 O 1.02522 0.78339 0.29468 0.0
N86 N 0.95478 0.76161 0.10705 0.0
C87 C 0.9289 0.70714 1.02336 0.0
C88 C 0.91414 0.71881 0.07419 0.0
C89 C 0.92742 0.74591 0.11559 0.0
C90 C 0.96962 0.7497 0.07621 0.0
C91 C 0.95721 0.72296 1.03094 0.0
H92 H 0.91549 0.75479 0.14586 0.0
H93 H 0.99134 0.76163 0.07331 0.0
H94 H 0.94721 0.83184 0.20504 0.0
H95 H 0.95958 0.80588 0.57355 0.0
H96 H 1.0015 0.78103 0.67571 0.0
H97 H 0.89239 0.70748 0.07877 0.0
H98 H 0.97009 0.71555 0.99572 0.0
C99 C 0.19596 0.2603 0.2747 0.0
C100 C 0.17832 0.24501 0.17755 0.0
N101 N 0.15482 0.22702 0.23519 0.0
N102 N 0.1836 0.25149 0.39216 0.0
C103 C 0.15892 0.23124 0.36549 0.0
H104 H 0.21687 0.27554 0.26131 0.0
Co105 Co 0.19883 0.25203 0.54385 0.0
C106 C 0.1573 0.26392 0.73307 0.0
O107 O 0.17412 0.2888 0.7689 0.0
N108 N 0.21415 0.25122 0.69525 0.0
C109 C 0.23682 0.25952 0.88229 0.0
C110 C 0.21938 0.26462 0.81132 0.0
C111 C 0.22746 0.2378 0.69855 0.0
N112 N 0.24236 0.24367 0.80626 0.0
O113 O 0.22934 0.24859 0.42982 0.0
H114 H 0.21204 0.27796 0.83962 0.0
H115 H 0.22571 0.2232 0.62599 0.0
O116 O 0.16597 0.25144 0.65511 0.0
C117 C 0.22822 0.22876 0.35865 0.0
O118 O 0.20506 0.20624 0.35008 0.0
N119 N 0.21982 0.2911 0.54627 0.0
C120 C 0.24762 0.34559 0.63071 0.0
C121 C 0.2212 0.33351 0.57906 0.0
C122 C 0.20778 0.30641 0.53724 0.0
C123 C 0.24654 0.30339 0.5789 0.0
C124 C 0.26045 0.33011 0.62452 0.0
H125 H 0.18703 0.29725 0.50548 0.0
H126 H 0.25668 0.29181 0.5817 0.0
H127 H 0.144 0.22 0.44059 0.0
H128 H 0.18171 0.24818 0.07206 0.0
H129 H 0.24461 0.26653 0.98071 0.0
H130 H 0.21051 0.34455 0.57352 0.0
H131 H 0.28074 0.33782 0.66046 0.0
C132 C 0.80293 0.94738 0.27252 0.0
C133 C 0.81832 0.94532 0.17504 0.0
N134 N 0.83586 0.93912 0.23172 0.0
N135 N 0.81129 0.9431 0.38957 0.0
C136 C 0.83136 0.93845 0.36214 0.0
H137 H 0.78795 0.95339 0.25986 0.0
Co138 Co 0.8109 0.95813 0.54054 0.0
C139 C 0.79664 0.90379 0.72925 0.0
O140 O 0.77147 0.89533 0.76112 0.0
N141 N 0.81173 0.97459 0.69097 0.0
C142 C 0.80131 0.98828 0.87424 0.0
C143 C 0.79759 0.96604 0.80498 0.0
C144 C 0.82439 1.00136 0.69425 0.0
N145 N 0.81714 1.00989 0.79936 0.0
O146 O 0.81771 0.99298 0.42368 0.0
H147 H 0.78436 0.94525 0.83193 0.0
H148 H 0.83909 1.0146 0.62282 0.0
O149 O 0.80948 0.92522 0.65352 0.0
C150 C 0.81814 1.01285 0.35612 0.0
O151 O 0.79572 1.01364 0.34725 0.0
N152 N 0.77181 0.9414 0.53856 0.0
C153 C 0.71725 0.91545 0.62302 0.0
C154 C 0.72892 0.90077 0.57109 0.0
C155 C 0.75604 0.91406 0.52946 0.0
C156 C 0.75993 0.95621 0.57087 0.0
C157 C 0.73315 0.94376 0.61639 0.0
H158 H 0.76486 0.90214 0.49821 0.0
H159 H 0.77189 0.97793 0.57402 0.0
H160 H 0.84224 0.93418 0.4367 0.0
H161 H 0.81537 0.94602 0.06962 0.0
H162 H 0.79319 0.98873 0.97031 0.0
H163 H 0.71758 0.87904 0.56554 0.0
H164 H 0.72573 0.95659 0.65221 0.0
C165 C 0.11271 0.86304 0.27299 0.0
C166 C 0.11494 0.88052 0.17528 0.0
N167 N 0.12039 0.90404 0.23215 0.0
N168 N 0.11629 0.87553 0.39006 0.0
C169 C 0.12059 0.90012 0.36258 0.0
H170 H 0.1071 0.84215 0.2603 0.0
Co171 Co 0.10162 0.86048 0.54221 0.0
C172 C 0.15508 0.90195 0.73035 0.0
O173 O 0.16301 0.88505 0.76631 0.0
N174 N 0.0855 0.84538 0.69403 0.0
C175 C 0.07103 0.82307 0.88205 0.0
C176 C 0.09362 0.84023 0.8104 0.0
C177 C 0.05875 0.8323 0.6978 0.0
N178 N 0.04965 0.81763 0.80618 0.0
O179 O 0.06761 0.8299 0.42924 0.0
H180 H 0.11429 0.84743 0.83846 0.0
H181 H 0.04595 0.83403 0.62499 0.0
O182 O 0.13394 0.89338 0.65251 0.0
C183 C 0.0489 0.83101 0.35821 0.0
O184 O 0.04959 0.85416 0.34926 0.0
N185 N 0.11967 0.8395 0.54525 0.0
C186 C 0.14649 0.81191 0.63005 0.0
C187 C 0.16077 0.83821 0.577 0.0
C188 C 0.14703 0.85153 0.53502 0.0
C189 C 0.10527 0.81286 0.57925 0.0
C190 C 0.11815 0.79906 0.62507 0.0
H191 H 0.15859 0.87221 0.50224 0.0
H192 H 0.08352 0.80272 0.58292 0.0
H193 H 0.12425 0.9151 0.4372 0.0
H194 H 0.1147 0.87702 0.0699 0.0
H195 H 0.0702 0.81534 0.98068 0.0
H196 H 0.18252 0.84889 0.57054 0.0
H197 H 0.10561 0.77885 0.66213 0.0
C198 C 0.85028 0.88758 0.18529 0.0
C199 C 0.85922 0.91349 0.22773 0.0
N200 N 0.84326 0.92179 0.17278 0.0
N201 N 0.82811 0.87954 0.10988 0.0
C202 C 0.82544 0.90124 0.09978 0.0
H203 H 0.85903 0.87535 0.21127 0.0
Co204 Co 0.80711 0.84784 1.02421 0.0
C205 C 0.8104 0.8895 0.7947 0.0
O206 O 0.83656 0.90029 0.78122 0.0
N207 N 0.78683 0.81604 0.93566 0.0
C208 C 0.76021 0.78371 0.79757 0.0
C209 C 0.76669 0.80856 0.84769 0.0
C210 C 0.79106 0.79517 0.94296 0.0
N211 N 0.77596 0.77553 0.85661 0.0
O212 O 0.81946 0.82799 0.16862 0.0
H213 H 0.75877 0.82114 0.8145 0.0
H214 H 0.80836 0.79631 0.99183 0.0
O215 O 0.79768 0.86917 0.87669 0.0
C216 C 0.82186 0.82446 0.29532 0.0
O217 O 0.81314 0.83544 0.38171 0.0
N218 N 0.77404 0.83899 0.11994 0.0
C219 C 0.71745 0.81255 0.15177 0.0
C220 C 0.73192 0.83915 0.10675 0.0
C221 C 0.75993 0.85187 0.09107 0.0
C222 C 0.7604 0.81407 0.1783 0.0
C223 C 0.73226 0.80047 0.19331 0.0
H224 H 0.76915 0.87103 0.04284 0.0
H225 H 0.77047 0.80288 0.19872 0.0
H226 H 0.80923 0.90169 0.05 0.0
H227 H 0.87455 0.92442 0.30153 0.0
H228 H 0.74789 0.77435 0.71113 0.0
H229 H 0.72151 0.84952 0.07426 0.0
H230 H 0.72209 0.78013 0.23198 0.0
C231 C 0.17086 0.97072 0.18839 0.0
C232 C 0.14509 0.95312 0.23095 0.0
N233 N 0.13732 0.92907 0.17456 0.0
N234 N 0.17935 0.9572 0.11128 0.0
C235 C 0.15803 0.93253 0.10067 0.0
H236 H 0.1827 0.99171 0.21534 0.0
Co237 Co 0.21105 0.96873 1.02382 0.0
C238 C 0.16957 0.9302 0.79395 0.0
O239 O 0.15888 0.94561 0.77941 0.0
N240 N 0.24278 0.98095 0.93363 0.0
C241 C 0.27532 0.98721 0.7955 0.0
C242 C 0.25055 0.96856 0.84551 0.0
C243 C 0.26339 1.00623 0.94089 0.0
N244 N 0.28317 1.01106 0.85484 0.0
O245 O 0.2307 1.00109 0.16833 0.0
H246 H 0.23824 0.94797 0.81257 0.0
H247 H 0.26199 1.02222 0.99006 0.0
O248 O 0.18987 0.93788 0.8762 0.0
C249 C 0.23443 1.00734 0.29475 0.0
O250 O 0.22379 0.98781 0.38216 0.0
N251 N 0.22079 0.94499 0.11771 0.0
C252 C 0.24807 0.91569 0.1503 0.0
C253 C 0.22148 0.90314 0.10476 0.0
C254 C 0.20836 0.91801 0.08851 0.0
C255 C 0.24574 0.95672 0.17586 0.0
C256 C 0.25977 0.94262 0.19125 0.0
H257 H 0.18926 0.90776 0.03988 0.0
H258 H 0.2566 0.978 0.19635 0.0
H259 H 0.158 0.91619 0.04965 0.0
H260 H 0.1339 0.95699 0.30559 0.0
H261 H 0.28487 0.98445 0.70924 0.0
H262 H 0.21143 0.88234 0.07247 0.0
H263 H 0.28009 0.95311 0.23004 0.0
C264 C 0.08814 0.21093 0.19279 0.0
C265 C 0.10571 0.20278 0.23561 0.0
N266 N 0.12973 0.21891 0.17835 0.0
N267 N 0.10165 0.23279 0.11463 0.0
C268 C 0.12629 0.23606 0.10375 0.0
H269 H 0.06718 0.20187 0.2202 0.0
Co270 Co 0.0902 0.25289 1.02631 0.0
C271 C 0.129 0.25004 0.79662 0.0
O272 O 0.11363 0.22393 0.78158 0.0
N273 N 0.07805 0.27231 0.93529 0.0
C274 C 0.0719 0.29847 0.7962 0.0
C275 C 0.09051 0.29238 0.84668 0.0
C276 C 0.05279 0.26767 0.94229 0.0
N277 N 0.04803 0.28258 0.85591 0.0
O278 O 0.05762 0.2402 0.17041 0.0
H279 H 0.1111 0.30061 0.81379 0.0
H280 H 0.03675 0.25034 0.99172 0.0
O281 O 0.12122 0.26256 0.87901 0.0
C282 C 0.05109 0.23765 0.29657 0.0
O283 O 0.07043 0.24648 0.38494 0.0
N284 N 0.11389 0.28643 0.1201 0.0
C285 C 0.1434 0.34305 0.15269 0.0
C286 C 0.1559 0.32892 0.10798 0.0
C287 C 0.14093 0.30092 0.09174 0.0
C288 C 0.10217 0.29975 0.17741 0.0
C289 C 0.11639 0.3279 0.19274 0.0
H290 H 0.15118 0.29199 0.04392 0.0
H291 H 0.08086 0.28935 0.19739 0.0
H292 H 0.14263 0.25223 0.05199 0.0
H293 H 0.10185 0.18785 0.31085 0.0
H294 H 0.07469 0.31071 0.70968 0.0
H295 H 0.17675 0.33959 0.0764 0.0
H296 H 0.10592 0.3378 0.23091 0.0
C297 C 0.9 0.83927 0.45605 0.0
C298 C 0.92597 0.84852 0.41329 0.0
N299 N 0.93464 0.83291 0.46875 0.0
N300 N 0.8923 0.81725 0.53215 0.0
C301 C 0.91424 0.81496 0.54222 0.0
H302 H 0.8875 0.8477 0.42978 0.0
Co303 Co 0.86071 0.79588 0.61825 0.0
C304 C 0.90269 0.79962 0.8478 0.0
O305 O 0.91319 0.82572 0.86177 0.0
N306 N 0.829 0.77524 0.70713 0.0
C307 C 0.79682 0.74816 0.84501 0.0
C308 C 0.82178 0.75507 0.79473 0.0
C309 C 0.80788 0.77909 0.70021 0.0
N310 N 0.78832 0.76369 0.78636 0.0
O311 O 0.84042 0.80786 0.47435 0.0
H312 H 0.83461 0.74739 0.82745 0.0
H313 H 0.80873 0.79628 0.65169 0.0
O314 O 0.88243 0.78679 0.76549 0.0
C315 C 0.83668 0.81006 0.34768 0.0
O316 O 0.84774 0.80145 0.26119 0.0
N317 N 0.85227 0.76303 0.52201 0.0
C318 C 0.82651 0.70658 0.4878 0.0
C319 C 0.8531 0.72125 0.53298 0.0
C320 C 0.86548 0.7492 0.54993 0.0
C321 C 0.82736 0.74922 0.46367 0.0
C322 C 0.81411 0.72114 0.44741 0.0
H323 H 0.88465 0.75859 0.59817 0.0
H324 H 0.81589 0.75902 0.44424 0.0
H325 H 0.91496 0.79892 0.59223 0.0
H326 H 0.93671 0.86382 0.33907 0.0
H327 H 0.78754 0.7357 0.93117 0.0
H328 H 0.86369 0.71101 0.56457 0.0
H329 H 0.79377 0.71081 0.40875 0.0
C330 C 0.21981 0.0713 0.45139 0.0
C331 C 0.21061 0.088 0.40835 0.0
N332 N 0.22604 0.11223 0.4648 0.0
N333 N 0.24166 0.08559 0.52871 0.0
C334 C 0.24385 0.10977 0.53913 0.0
H335 H 0.21147 0.0504 0.42455 0.0
Co336 Co 0.26294 0.0754 0.61569 0.0
C337 C 0.25934 0.11395 0.84512 0.0
O338 O 0.23323 0.0984 0.8597 0.0
N339 N 0.28348 0.0644 0.70541 0.0
C340 C 0.31041 0.05935 0.84421 0.0
C341 C 0.30355 0.07739 0.79348 0.0
C342 C 0.27962 0.03943 0.69878 0.0
N343 N 0.29497 0.03533 0.78521 0.0
O344 O 0.25098 0.04294 0.47219 0.0
H345 H 0.31121 0.0979 0.82614 0.0
H346 H 0.26247 1.02304 0.65003 0.0
O347 O 0.27206 0.1064 0.7626 0.0
C348 C 0.24877 0.0367 0.3458 0.0
O349 O 0.25735 0.05618 0.2583 0.0
N350 N 0.29586 0.09976 0.51953 0.0
C351 C 0.35234 0.13067 0.48522 0.0
C352 C 0.33756 0.14253 0.5295 0.0
C353 C 0.3096 0.12686 0.54648 0.0
C354 C 0.30976 0.08868 0.46211 0.0
C355 C 0.33786 0.1036 0.44586 0.0
H356 H 0.30013 0.13663 0.59386 0.0
H357 H 0.29999 0.06736 0.44324 0.0
H358 H 0.25976 0.12652 0.59002 0.0
H359 H 0.19545 0.08347 0.3334 0.0
H360 H 0.3228 0.06256 0.93061 0.0
H361 H 0.34772 0.16342 0.56028 0.0
H362 H 0.34827 0.09363 0.40789 0.0
C363 C 0.98509 0.15867 0.44869 0.0
C364 C 0.96774 0.13287 0.4058 0.0
N365 N 0.94371 0.12462 0.46368 0.0
N366 N 0.97141 0.1667 0.52756 0.0
C367 C 0.94692 0.1451 0.53864 0.0
H368 H 1.00599 0.17084 0.4208 0.0
Co369 Co 0.98245 0.1982 0.6162 0.0
C370 C 0.94389 0.15627 0.84626 0.0
O371 O 0.95958 0.14593 0.86202 0.0
N372 N 0.99416 0.22969 0.70744 0.0
C373 C 0.99975 0.2619 0.84619 0.0
C374 C 0.98143 0.23707 0.79562 0.0
C375 C 1.01931 0.25055 0.70077 0.0
N376 N 1.0237 0.27016 0.78688 0.0
O377 O 1.01504 0.21849 0.47243 0.0
H378 H 0.96084 0.22449 0.82808 0.0
H379 H 1.03553 0.24953 0.65171 0.0
O380 O 0.95143 0.17647 0.76337 0.0
C381 C 1.02158 0.22269 0.34632 0.0
O382 O 1.00226 0.21212 0.25786 0.0
N383 N 0.95852 0.20762 0.52201 0.0
C384 C 0.92844 0.23403 0.48676 0.0
C385 C 0.91617 0.20742 0.53183 0.0
C386 C 0.93143 0.19474 0.54952 0.0
C387 C 0.97003 0.23263 0.4646 0.0
C388 C 0.95553 0.24622 0.44788 0.0
H389 H 0.92135 0.17556 0.59754 0.0
H390 H 0.99137 0.24383 0.44553 0.0
H391 H 0.93049 0.14469 0.59066 0.0
H392 H 0.97174 0.12197 0.33014 0.0
H393 H 0.99674 0.27129 0.93239 0.0
H394 H 0.89526 0.19701 0.56254 0.0
H395 H 0.96584 0.26658 0.4096 0.0
C396 C 0.93326 0.51243 0.70168 0.0
C397 C 0.91778 0.49476 0.79819 0.0
N398 N 0.90052 0.47102 0.74039 0.0
N399 N 0.9252 0.49996 0.58402 0.0
C400 C 0.90522 0.47509 0.61016 0.0
H401 H 0.94817 0.53342 0.71545 0.0
Co402 Co 0.92608 0.5157 0.4332 0.0
C403 C 0.9404 0.47567 0.24343 0.0
O404 O 0.96557 0.49246 0.21172 0.0
N405 N 0.92577 0.53166 0.28287 0.0
C406 C 0.93736 0.55649 0.10179 0.0
C407 C 0.94032 0.53741 0.1701 0.0
C408 C 0.91359 0.54621 0.27955 0.0
N409 N 0.92159 0.56245 0.17607 0.0
O410 O 0.91931 0.5438 0.55045 0.0
H411 H 0.9534 0.52965 0.1437 0.0
H412 H 0.89877 0.54483 0.35002 0.0
O413 O 0.92753 0.4842 0.31954 0.0
C414 C 0.92016 0.56394 0.61734 0.0
O415 O 0.94326 0.58652 0.62558 0.0
N416 N 0.96508 0.53782 0.43771 0.0
C417 C 1.01965 0.56654 0.35483 0.0
C418 C 1.0079 0.54004 0.40478 0.0
C419 C 0.98075 0.52615 0.44577 0.0
C420 C 0.97705 0.56461 0.40758 0.0
C421 C 1.00383 0.57901 0.36275 0.0
H422 H 0.97182 0.5053 0.47547 0.0
H423 H 0.96514 0.57441 0.405 0.0
H424 H 0.8946 0.46001 0.53488 0.0
H425 H 0.92054 0.49825 0.90378 0.0
H426 H 0.94598 0.56534 1.00686 0.0
H427 H 1.0192 0.5296 0.40908 0.0
H428 H 1.0113 0.59934 0.32817 0.0
C429 C 0.5475 0.43279 0.70171 0.0
C430 C 0.5652 0.43518 0.79834 0.0
N431 N 0.58895 0.44165 0.74056 0.0
N432 N 0.55999 0.43712 0.58406 0.0
C433 C 0.58488 0.44212 0.6103 0.0
H434 H 0.52649 0.42666 0.71542 0.0
Co435 Co 0.5443 0.42223 0.43322 0.0
C436 C 0.58451 0.47665 0.24391 0.0
O437 O 0.56781 0.48514 0.21264 0.0
N438 N 0.5284 0.40593 0.28282 0.0
C439 C 0.50367 0.39268 0.10147 0.0
C440 C 0.52274 0.41473 0.16997 0.0
C441 C 0.51382 0.37918 0.27938 0.0
N442 N 0.49764 0.37094 0.1757 0.0
O443 O 0.51611 0.38733 0.55034 0.0
H444 H 0.53054 0.43558 0.14366 0.0
H445 H 0.51512 0.36574 0.34996 0.0
O446 O 0.57588 0.45521 0.31966 0.0
C447 C 0.49588 0.36808 0.61718 0.0
O448 O 0.47339 0.36874 0.62574 0.0
N449 N 0.52218 0.43909 0.43749 0.0
C450 C 0.49349 0.46491 0.35475 0.0
C451 C 0.51999 0.47968 0.40484 0.0
C452 C 0.53386 0.46643 0.44576 0.0
C453 C 0.49539 0.42423 0.40714 0.0
C454 C 0.48101 0.43661 0.36239 0.0
H455 H 0.5547 0.47837 0.47564 0.0
H456 H 0.48558 0.40252 0.40437 0.0
H457 H 0.59998 0.44658 0.53508 0.0
H458 H 0.56171 0.43456 0.90392 0.0
H459 H 0.49486 0.39246 1.00651 0.0
H460 H 0.53043 0.50143 0.40931 0.0
H461 H 0.46068 0.42372 0.32766 0.0
C462 C 0.62671 0.12785 0.6998 0.0
C463 C 0.6245 0.14327 0.79655 0.0
N464 N 0.618 0.16052 0.73907 0.0
N465 N 0.62225 0.13593 0.58234 0.0
C466 C 0.61733 0.15585 0.60883 0.0
H467 H 0.63291 0.11304 0.71321 0.0
Co468 Co 0.63732 0.13546 0.43146 0.0
C469 C 0.58283 0.1207 0.2423 0.0
O470 O 0.5746 0.09559 0.21034 0.0
N471 N 0.65379 0.13623 0.28101 0.0
C472 C 0.66733 0.12529 0.09882 0.0
C473 C 0.64515 0.12186 0.16773 0.0
C474 C 0.68056 0.14875 0.27752 0.0
N475 N 0.68899 0.14116 0.17324 0.0
O476 O 0.6723 0.14261 0.54846 0.0
H477 H 0.62433 0.1086 0.14131 0.0
H478 H 0.69388 0.1635 0.34848 0.0
O479 O 0.60421 0.13366 0.31822 0.0
C480 C 0.69167 0.14198 0.61555 0.0
O481 O 0.69122 0.11895 0.62518 0.0
N482 N 0.6209 0.09652 0.43494 0.0
C483 C 0.59575 0.04202 0.35179 0.0
C484 C 0.58066 0.05339 0.40187 0.0
C485 C 0.59357 0.08051 0.44299 0.0
C486 C 0.63608 0.08495 0.4044 0.0
C487 C 0.62403 0.05821 0.35949 0.0
H488 H 0.58139 0.08912 0.47297 0.0
H489 H 0.65778 0.09713 0.40177 0.0
H490 H 0.61287 0.16649 0.53374 0.0
H491 H 0.62532 0.14053 0.9021 0.0
H492 H 0.6677 0.11688 1.00349 0.0
H493 H 0.55891 0.0418 0.40627 0.0
H494 H 0.63715 0.05105 0.32475 0.0
C495 C 0.86342 0.59391 0.60497 0.0
C496 C 0.84582 0.57852 0.50789 0.0
N497 N 0.82232 0.56051 0.56556 0.0
N498 N 0.85104 0.58516 0.72245 0.0
C499 C 0.82639 0.56485 0.69582 0.0
H500 H 0.88433 0.60915 0.59158 0.0
Co501 Co 0.8662 0.58563 0.8743 0.0
C502 C 0.8248 0.59757 0.06342 0.0
O503 O 0.84175 0.62235 0.10016 0.0
N504 N 0.8814 0.5847 1.02588 0.0
C505 C 0.90392 0.5928 0.21329 0.0
C506 C 0.88664 0.59807 0.14208 0.0
C507 C 0.89457 0.57113 1.02934 0.0
N508 N 0.90937 0.57687 0.13731 0.0
O509 O 0.89674 0.58222 0.76076 0.0
H510 H 0.87942 0.6115 0.17029 0.0
H511 H 0.8928 0.55656 0.95662 0.0
O512 O 0.83335 0.58506 0.98506 0.0
C513 C 0.89565 0.56241 0.68964 0.0
O514 O 0.87251 0.53988 0.6809 0.0
N515 N 0.88724 0.62468 0.87716 0.0
C516 C 0.91501 0.67902 0.96335 0.0
C517 C 0.88866 0.66707 0.91106 0.0
C518 C 0.87524 0.64003 0.86832 0.0
C519 C 0.91392 0.63688 0.91022 0.0
C520 C 0.92782 0.66353 0.95671 0.0
H521 H 0.85452 0.63094 0.83619 0.0
H522 H 0.92403 0.62526 0.91285 0.0
H523 H 0.81148 0.55361 0.77096 0.0
H524 H 0.84925 0.58159 0.40238 0.0
H525 H 0.91171 0.59978 0.31175 0.0
H526 H 0.878 0.67815 0.90584 0.0
H527 H 0.94807 0.67117 0.99307 0.0
C528 C 0.46537 0.2812 0.604 0.0
C529 C 0.48065 0.27894 0.50637 0.0
N530 N 0.49867 0.27345 0.56335 0.0
N531 N 0.47422 0.2776 0.72112 0.0
C532 C 0.49448 0.27323 0.69375 0.0
H533 H 0.45014 0.28687 0.59121 0.0
Co534 Co 0.47386 0.29228 0.87324 0.0
C535 C 0.46178 0.23888 0.06165 0.0
O536 O 0.43698 0.23105 0.09821 0.0
N537 N 0.4749 0.30841 1.02502 0.0
C538 C 0.46712 0.32292 0.2131 0.0
C539 C 0.46162 0.30032 0.14152 0.0
C540 C 0.48864 0.33516 1.02863 0.0
N541 N 0.4831 0.34428 0.13705 0.0
O542 O 0.47734 0.32629 0.76017 0.0
H543 H 0.44811 0.27967 0.16977 0.0
H544 H 0.5032 0.34793 0.9557 0.0
O545 O 0.47438 0.25998 0.98352 0.0
C546 C 0.49722 0.34498 0.68908 0.0
O547 O 0.51968 0.34426 0.68008 0.0
N548 N 0.43478 0.27424 0.87664 0.0
C549 C 0.38037 0.24742 0.9629 0.0
C550 C 0.39236 0.23315 0.90948 0.0
C551 C 0.41941 0.24688 0.86676 0.0
C552 C 0.42255 0.28863 0.91089 0.0
C553 C 0.39588 0.27576 0.95744 0.0
H554 H 0.42852 0.23533 0.83381 0.0
H555 H 0.43417 0.31037 0.9143 0.0
H556 H 0.50576 0.26955 0.76844 0.0
H557 H 0.47745 0.27922 0.40097 0.0
H558 H 0.46025 0.32377 0.31181 0.0
H559 H 0.38129 0.21141 0.90333 0.0
H560 H 0.38823 0.28829 0.99468 0.0
C561 C 0.77828 0.19875 0.60096 0.0
C562 C 0.78063 0.21625 0.50315 0.0
N563 N 0.78645 0.23991 0.55976 0.0
N564 N 0.78209 0.21133 0.71793 0.0
C565 C 0.78666 0.236 0.69024 0.0
H566 H 0.77249 0.17781 0.58841 0.0
Co567 Co 0.76754 0.19636 0.87047 0.0
C568 C 0.82115 0.23725 0.05875 0.0
O569 O 0.82855 0.21995 0.09472 0.0
N570 N 0.75154 0.18135 1.02269 0.0
C571 C 0.73705 0.15879 0.21009 0.0
C572 C 0.75964 0.17595 0.13848 0.0
C573 C 0.72479 0.16844 1.02685 0.0
N574 N 0.71569 0.15362 0.13474 0.0
O575 O 0.7334 0.16577 0.75825 0.0
H576 H 0.78028 0.18287 0.16594 0.0
H577 H 0.71201 0.17029 0.95431 0.0
O578 O 0.80013 0.22914 0.98046 0.0
C579 C 0.71463 0.16666 0.68677 0.0
O580 O 0.7152 0.18975 0.67648 0.0
N581 N 0.78535 0.17525 0.87242 0.0
C582 C 0.81164 0.14719 0.95645 0.0
C583 C 0.82619 0.17348 0.9038 0.0
C584 C 0.81269 0.18706 0.86206 0.0
C585 C 0.7707 0.14861 0.90574 0.0
C586 C 0.78332 0.13458 0.95139 0.0
H587 H 0.82441 0.20775 0.8296 0.0
H588 H 0.74897 0.13865 0.90941 0.0
H589 H 0.79062 0.25109 0.76472 0.0
H590 H 0.78034 0.21269 0.3978 0.0
H591 H 0.7362 0.15079 0.30807 0.0
H592 H 0.84793 0.18396 0.89764 0.0
H593 H 0.77059 0.1144 0.98842 0.0
C594 C 0.51476 0.22294 0.51959 0.0
C595 C 0.52297 0.24868 0.56244 0.0
N596 N 0.50681 0.25655 0.50575 0.0
N597 N 0.49285 0.21457 0.44191 0.0
C598 C 0.4896 0.23593 0.43128 0.0
H599 H 0.52379 0.21102 0.54691 0.0
Co600 Co 0.47248 0.18288 0.35468 0.0
C601 C 0.47549 0.22433 0.12481 0.0
O602 O 0.50159 0.23491 0.10948 0.0
N603 N 0.45276 0.15117 0.26478 0.0
C604 C 0.42612 0.11866 0.12749 0.0
C605 C 0.43249 0.14348 0.17738 0.0
C606 C 0.45723 0.13045 0.27177 0.0
N607 N 0.44206 0.11067 0.18622 0.0
O608 O 0.48511 0.16313 0.49873 0.0
H609 H 0.4243 0.15587 0.14487 0.0
H610 H 0.47462 0.13174 0.32043 0.0
O611 O 0.46286 0.20411 0.20744 0.0
C612 C 0.48746 0.15931 0.62517 0.0
O613 O 0.47849 0.1699 0.71244 0.0
N614 N 0.43912 0.17332 0.44943 0.0
C615 C 0.38255 0.14619 0.48339 0.0
C616 C 0.39662 0.17276 0.43767 0.0
C617 C 0.42462 0.18581 0.42078 0.0
C618 C 0.42586 0.14839 0.50786 0.0
C619 C 0.39774 0.13446 0.52403 0.0
H620 H 0.43351 0.2049 0.37207 0.0
H621 H 0.43621 0.13746 0.52779 0.0
H622 H 0.47337 0.23605 0.38007 0.0
H623 H 0.53793 0.25976 0.63757 0.0
H624 H 0.41365 0.10911 0.04169 0.0
H625 H 0.3859 0.18283 0.40567 0.0
H626 H 0.38788 0.11415 0.56299 0.0
C627 C 0.8378 0.30621 0.51575 0.0
C628 C 0.81187 0.28897 0.55753 0.0
N629 N 0.80382 0.26479 0.50202 0.0
N630 N 0.84609 0.29232 0.44011 0.0
C631 C 0.82455 0.2678 0.4296 0.0
H632 H 0.84988 0.3272 0.54218 0.0
Co633 Co 0.87775 0.30329 0.35358 0.0
C634 C 0.83609 0.26543 0.12299 0.0
O635 O 0.8259 0.28128 0.1086 0.0
N636 N 0.9095 0.31499 0.26427 0.0
C637 C 0.94187 0.32071 0.12633 0.0
C638 C 0.91698 0.30235 0.17619 0.0
C639 C 0.9304 0.3401 0.27182 0.0
N640 N 0.95008 0.34465 0.18564 0.0
O641 O 0.89768 0.33551 0.49841 0.0
H642 H 0.90439 0.28183 0.14298 0.0
H643 H 0.92928 0.35625 0.321 0.0
O644 O 0.85626 0.27265 0.20553 0.0
C645 C 0.90125 0.34156 0.62503 0.0
O646 O 0.89018 0.32194 0.71177 0.0
N647 N 0.88681 0.27909 0.44798 0.0
C648 C 0.91329 0.24908 0.48349 0.0
C649 C 0.88684 0.23688 0.43615 0.0
C650 C 0.87413 0.25212 0.41833 0.0
C651 C 0.91163 0.29048 0.5075 0.0
C652 C 0.92524 0.27601 0.52442 0.0
H653 H 0.85517 0.24214 0.36829 0.0
H654 H 0.92273 0.31174 0.52803 0.0
H655 H 0.82434 0.25126 0.37973 0.0
H656 H 0.80073 0.29316 0.63109 0.0
H657 H 0.95128 0.31777 0.03997 0.0
H658 H 0.87662 0.21609 0.4037 0.0
H659 H 0.94547 0.28624 0.56439 0.0
C660 C 0.75571 0.54451 0.5237 0.0
C661 C 0.77323 0.53629 0.56656 0.0
N662 N 0.7972 0.55219 0.50837 0.0
N663 N 0.7692 0.56616 0.44429 0.0
C664 C 0.79373 0.56918 0.4326 0.0
H665 H 0.73484 0.53571 0.55242 0.0
Co666 Co 0.75797 0.58663 0.35727 0.0
C667 C 0.79648 0.5838 0.12646 0.0
O668 O 0.78091 0.55775 0.11025 0.0
N669 N 0.74606 0.60643 0.26764 0.0
C670 C 0.74024 0.6331 0.13052 0.0
C671 C 0.75869 0.6267 0.18025 0.0
C672 C 0.72086 0.60196 0.27475 0.0
N673 N 0.71629 0.61717 0.18941 0.0
O674 O 0.72553 0.57404 0.50153 0.0
H675 H 0.77929 0.63489 0.14763 0.0
H676 H 0.70472 0.58457 0.32335 0.0
O677 O 0.78888 0.59631 0.20983 0.0
C678 C 0.71926 0.57187 0.62787 0.0
O679 O 0.73878 0.58109 0.71536 0.0
N680 N 0.78184 0.61988 0.45226 0.0
C681 C 0.81164 0.67638 0.48628 0.0
C682 C 0.82404 0.66217 0.44137 0.0
C683 C 0.80891 0.63419 0.42449 0.0
C684 C 0.77027 0.63327 0.51014 0.0
C685 C 0.78463 0.66136 0.52631 0.0
H686 H 0.81905 0.62516 0.37652 0.0
H687 H 0.74894 0.62304 0.52952 0.0
H688 H 0.81005 0.5852 0.38001 0.0
H689 H 0.7694 0.52158 0.6429 0.0
H690 H 0.74319 0.64558 0.04481 0.0
H691 H 0.84491 0.67277 0.40999 0.0
H692 H 0.77426 0.67134 0.5647 0.0
C693 C 0.56572 0.1739 0.78388 0.0
C694 C 0.5917 0.18318 0.74127 0.0
N695 N 0.60049 0.16775 0.7976 0.0
N696 N 0.55812 0.15202 0.86095 0.0
C697 C 0.58016 0.14993 0.87192 0.0
H698 H 0.55315 0.18219 0.75677 0.0
Co699 Co 0.52648 0.13059 0.94687 0.0
C700 C 0.5683 0.13423 0.17695 0.0
O701 O 0.57871 0.16031 0.19168 0.0
N702 N 0.49478 0.10994 1.03567 0.0
C703 C 0.46274 0.08314 0.17491 0.0
C704 C 0.48761 0.08987 0.12383 0.0
C705 C 0.47373 0.1139 1.02922 0.0
N706 N 0.45427 0.09867 0.11611 0.0
O707 O 0.50615 0.14255 0.80291 0.0
H708 H 0.50042 0.08218 0.15658 0.0
H709 H 0.47461 0.1311 0.98059 0.0
O710 O 0.54814 0.12146 0.09409 0.0
C711 C 0.50233 0.14487 0.67645 0.0
O712 O 0.51337 0.13637 0.58923 0.0
N713 N 0.51814 0.09776 0.85053 0.0
C714 C 0.49286 0.04132 0.81629 0.0
C715 C 0.51949 0.05624 0.86058 0.0
C716 C 0.53162 0.08417 0.87755 0.0
C717 C 0.49317 0.08373 0.79298 0.0
C718 C 0.48013 0.05564 0.77686 0.0
H719 H 0.55086 0.09373 0.92505 0.0
H720 H 0.48155 0.09341 0.77389 0.0
H721 H 0.58102 0.13407 0.92301 0.0
H722 H 0.60234 0.19834 0.6663 0.0
H723 H 0.45356 0.07082 0.26159 0.0
H724 H 0.53033 0.04621 0.89144 0.0
H725 H 0.45974 0.04512 0.73887 0.0
C726 C 0.88696 0.40528 0.78496 0.0
C727 C 0.87777 0.42202 0.74242 0.0
N728 N 0.89334 0.44626 0.7985 0.0
N729 N 0.90891 0.41955 0.86163 0.0
C730 C 0.91118 0.44375 0.8723 0.0
H731 H 0.87854 0.38437 0.75814 0.0
Co732 Co 0.9302 0.40925 0.94761 0.0
C733 C 0.92672 0.44761 0.17771 0.0
O734 O 0.9006 0.43206 0.19216 0.0
N735 N 0.95075 0.39812 1.0364 0.0
C736 C 0.97764 0.39289 0.17468 0.0
C737 C 0.97087 0.41102 0.12432 0.0
C738 C 0.94679 0.37312 1.02938 0.0
N739 N 0.96207 0.36889 0.11572 0.0
O740 O 0.9181 0.37691 0.80354 0.0
H741 H 0.9786 0.43152 0.15726 0.0
H742 H 0.92958 0.3568 0.98065 0.0
O743 O 0.93944 0.44012 0.09498 0.0
C744 C 0.91588 0.37085 0.67696 0.0
O745 O 0.92466 0.39046 0.59012 0.0
N746 N 0.96312 0.43364 0.85136 0.0
C747 C 1.01964 0.46439 0.81831 0.0
C748 C 1.00492 0.47631 0.86269 0.0
C749 C 0.97693 0.46071 0.87902 0.0
C750 C 0.97698 0.42255 0.79357 0.0
C751 C 1.00509 0.43739 0.77799 0.0
H752 H 0.96749 0.47049 0.92662 0.0
H753 H 0.96714 0.40125 0.77409 0.0
H754 H 0.92717 0.46049 0.92292 0.0
H755 H 0.86255 0.41751 0.66785 0.0
H756 H 0.99001 0.39602 0.26104 0.0
H757 H 1.01512 0.49715 0.89413 0.0
H758 H 1.01546 0.42739 0.73987 0.0
C759 C 0.65489 0.49368 0.78602 0.0
C760 C 0.638 0.46778 0.74309 0.0
N761 N 0.61371 0.45928 0.79846 0.0
N762 N 0.64066 0.50153 0.86199 0.0
C763 C 0.6163 0.47973 0.87179 0.0
H764 H 0.67589 0.50601 0.76023 0.0
Co765 Co 0.6512 0.53305 0.94912 0.0
C766 C 0.61258 0.49099 0.17805 0.0
O767 O 0.628 0.48028 0.19156 0.0
N768 N 0.66256 0.56465 0.03908 0.0
C769 C 0.66805 0.59667 0.17879 0.0
C770 C 0.64977 0.57189 0.12759 0.0
C771 C 0.68767 0.58558 1.03264 0.0
N772 N 0.69204 0.60504 0.11968 0.0
O773 O 0.68366 0.55331 0.80541 0.0
H774 H 0.62922 0.55918 0.16031 0.0
H775 H 0.70393 0.58462 0.98362 0.0
O776 O 0.62022 0.51135 0.09617 0.0
C777 C 0.68989 0.55698 0.67895 0.0
O778 O 0.6704 0.54581 0.59163 0.0
N779 N 0.62702 0.54194 0.8537 0.0
C780 C 0.59652 0.56792 0.81931 0.0
C781 C 0.58447 0.54132 0.86432 0.0
C782 C 0.59994 0.52885 0.88144 0.0
C783 C 0.63829 0.56691 0.79594 0.0
C784 C 0.62358 0.58029 0.7797 0.0
H785 H 0.59002 0.50967 0.9295 0.0
H786 H 0.65961 0.57826 0.7765 0.0
H787 H 0.59957 0.47912 0.92189 0.0
H788 H 0.64248 0.45694 0.66911 0.0
H789 H 0.665 0.60588 0.26559 0.0
H790 H 0.56359 0.53076 0.89552 0.0
H791 H 0.6337 0.60065 0.7413 0.0
C792 C 0.60244 0.8477 1.03137 0.0
C793 C 0.58693 0.82989 0.1274 0.0
N794 N 0.56957 0.80629 0.06879 0.0
N795 N 0.59433 0.83541 0.91332 0.0
C796 C 0.57429 0.81053 0.9387 0.0
H797 H 0.61739 0.86866 0.04576 0.0
Co798 Co 0.59529 0.85131 0.76299 0.0
C799 C 0.60878 0.81064 0.5727 0.0
O800 O 0.63401 0.82706 0.54061 0.0
N801 N 0.59507 0.86744 0.61312 0.0
C802 C 0.60659 0.89229 0.4322 0.0
C803 C 0.6095 0.87312 0.50003 0.0
C804 C 0.58303 0.88212 0.6105 0.0
N805 N 0.591 0.89839 0.50708 0.0
O806 O 0.58888 0.8796 0.88103 0.0
H807 H 0.62239 0.86518 0.47294 0.0
H808 H 0.56823 0.88073 0.68114 0.0
O809 O 0.59628 0.81959 0.64877 0.0
C810 C 0.5893 0.89948 0.94868 0.0
O811 O 0.61217 0.9223 0.95694 0.0
N812 N 0.63441 0.87317 0.76666 0.0
C813 C 0.68903 0.90141 0.68286 0.0
C814 C 0.67698 0.87486 0.73255 0.0
C815 C 0.64984 0.86122 0.77391 0.0
C816 C 0.64667 0.90001 0.73665 0.0
C817 C 0.67348 0.91417 0.69151 0.0
H818 H 0.64072 0.84035 0.80345 0.0
H819 H 0.63498 0.91004 0.73471 0.0
H820 H 0.5636 0.79559 0.86295 0.0
H821 H 0.58965 0.83324 0.2331 0.0
H822 H 0.61507 0.90103 0.33688 0.0
H823 H 0.68804 0.86418 0.7365 0.0
H824 H 0.6812 0.93458 0.65742 0.0
C825 C 0.21525 0.76603 1.0339 0.0
C826 C 0.23302 0.76841 0.13009 0.0
N827 N 0.25675 0.77499 0.07183 0.0
N828 N 0.22765 0.7704 0.916 0.0
C829 C 0.25258 0.77546 0.94167 0.0
H830 H 0.19424 0.75987 0.04809 0.0
Co831 Co 0.21179 0.75551 0.76546 0.0
C832 C 0.25193 0.80996 0.5754 0.0
O833 O 0.23524 0.81848 0.54445 0.0
N834 N 0.19567 0.73919 0.61534 0.0
C835 C 0.17057 0.72602 0.43523 0.0
C836 C 0.18987 0.74803 0.50302 0.0
C837 C 0.18093 0.71246 0.6122 0.0
N838 N 0.16451 0.70426 0.5094 0.0
O839 O 0.18371 0.72059 0.88325 0.0
H840 H 0.19775 0.76889 0.47669 0.0
H841 H 0.18229 0.69898 0.6823 0.0
O842 O 0.2433 0.78851 0.65121 0.0
C843 C 0.16349 0.70137 0.95033 0.0
O844 O 0.141 0.70205 0.95873 0.0
N845 N 0.18969 0.77237 0.77083 0.0
C846 C 0.16089 0.79812 0.68903 0.0
C847 C 0.18746 0.81294 0.73801 0.0
C848 C 0.2014 0.79973 0.77849 0.0
C849 C 0.16285 0.75749 0.74165 0.0
C850 C 0.1484 0.76983 0.69737 0.0
H851 H 0.22229 0.81169 0.80751 0.0
H852 H 0.15303 0.73578 0.73932 0.0
H853 H 0.26764 0.77998 0.86612 0.0
H854 H 0.2296 0.76776 0.23575 0.0
H855 H 0.16164 0.72583 0.34065 0.0
H856 H 0.19792 0.83469 0.74194 0.0
H857 H 0.12801 0.75691 0.66348 0.0
C858 C 0.29389 0.46022 1.03496 0.0
C859 C 0.29149 0.47552 0.13162 0.0
N860 N 0.28494 0.49271 0.07396 0.0
N861 N 0.28954 0.46833 0.91735 0.0
C862 C 0.28449 0.48817 0.94367 0.0
H863 H 0.30004 0.44536 0.04863 0.0
Co864 Co 0.30443 0.46743 0.76657 0.0
C865 C 0.24995 0.45304 0.57706 0.0
O866 O 0.24142 0.42782 0.54625 0.0
N867 N 0.32074 0.46771 0.61627 0.0
C868 C 0.33401 0.45602 0.43555 0.0
C869 C 0.31195 0.45313 0.50368 0.0
C870 C 0.3475 0.47984 0.61299 0.0
N871 N 0.35575 0.47177 0.50977 0.0
O872 O 0.33937 0.47429 0.88397 0.0
H873 H 0.29109 0.44008 0.47732 0.0
H874 H 0.36094 0.49469 0.68326 0.0
O875 O 0.27142 0.46592 0.65269 0.0
C876 C 0.35867 0.47346 0.95089 0.0
O877 O 0.35816 0.45038 0.95909 0.0
N878 N 0.28751 0.42844 0.77145 0.0
C879 C 0.26155 0.37383 0.68957 0.0
C880 C 0.24683 0.38562 0.73939 0.0
C881 C 0.26014 0.41279 0.77985 0.0
C882 C 0.30231 0.41645 0.74141 0.0
C883 C 0.28987 0.38964 0.69707 0.0
H884 H 0.24824 0.42173 0.80949 0.0
H885 H 0.32404 0.42834 0.7386 0.0
H886 H 0.27997 0.49875 0.86852 0.0
H887 H 0.29208 0.47265 0.23719 0.0
H888 H 0.33424 0.44737 0.34072 0.0
H889 H 0.22507 0.37434 0.74401 0.0
H890 H 0.30273 0.38215 0.66257 0.0
C891 C 0.53155 0.9283 0.93674 0.0
C892 C 0.5139 0.91305 0.83962 0.0
N893 N 0.49039 0.89507 0.89726 0.0
N894 N 0.51921 0.91948 0.05425 0.0
C895 C 0.49451 0.89924 1.02759 0.0
H896 H 0.55243 0.94359 0.92329 0.0
Co897 Co 0.53456 0.92029 0.20606 0.0
C898 C 0.49285 0.9319 0.39543 0.0
O899 O 0.50964 0.9568 0.43107 0.0
N900 N 0.55002 0.91975 0.35752 0.0
C901 C 0.5729 0.92838 0.54406 0.0
C902 C 0.55526 0.93323 0.47336 0.0
C903 C 0.56352 0.90651 0.3608 0.0
N904 N 0.57855 0.91259 0.46814 0.0
O905 O 0.56532 0.91719 0.09209 0.0
H906 H 0.5478 0.94647 0.50161 0.0
H907 H 0.56181 0.89189 0.28847 0.0
O908 O 0.50153 0.91943 0.3174 0.0
C909 C 0.56458 0.89751 1.0211 0.0
O910 O 0.54165 0.87476 1.01242 0.0
N911 N 0.55517 0.95938 0.2079 0.0
C912 C 0.58225 1.01384 0.2925 0.0
C913 C 0.55587 1.00146 0.24024 0.0
C914 C 0.54281 0.97438 0.19831 0.0
C915 C 0.58188 0.97198 0.24088 0.0
C916 C 0.59544 0.9987 0.28661 0.0
H917 H 0.52206 0.96497 0.16626 0.0
H918 H 0.59228 0.96065 0.24401 0.0
H919 H 0.47958 0.88803 0.10268 0.0
H920 H 0.51726 0.91627 0.73413 0.0
H921 H 0.58076 0.93552 0.64225 0.0
H922 H 0.54492 1.01224 0.23445 0.0
H923 H 0.61574 1.00667 0.32297 0.0
C924 C 0.13316 0.6146 0.93846 0.0
C925 C 0.14851 0.61236 0.84123 0.0
N926 N 0.16645 0.60678 0.89866 0.0
N927 N 0.14189 0.61095 0.05583 0.0
C928 C 0.16215 0.60655 1.02898 0.0
H929 H 0.11795 0.62028 0.92524 0.0
Co930 Co 0.14138 0.62564 0.20768 0.0
C931 C 0.12921 0.5722 0.39678 0.0
O932 O 0.10438 0.56433 0.43299 0.0
N933 N 0.14223 0.64178 0.35924 0.0
C934 C 0.13404 0.65623 0.54643 0.0
C935 C 0.12881 0.63366 0.47535 0.0
C936 C 0.15578 0.66853 0.36264 0.0
N937 N 0.14998 0.67761 0.47043 0.0
O938 O 0.14495 0.65965 0.09395 0.0
H939 H 0.11538 0.61299 0.50363 0.0
H940 H 0.17042 0.68135 0.29008 0.0
O941 O 0.14181 0.59331 0.31865 0.0
C942 C 0.16484 0.67833 1.02278 0.0
O943 O 0.18731 0.67762 1.0141 0.0
N944 N 0.1023 0.6076 0.21011 0.0
C945 C 0.04785 0.58087 0.29536 0.0
C946 C 0.05986 0.56654 0.24304 0.0
C947 C 0.08695 0.58023 0.20081 0.0
C948 C 0.09005 0.62202 0.24324 0.0
C949 C 0.06335 0.60919 0.28928 0.0
H950 H 0.09608 0.56865 0.16867 0.0
H951 H 0.10167 0.64376 0.2462 0.0
H952 H 0.17334 0.60282 0.10398 0.0
H953 H 0.14541 0.61268 0.73575 0.0
H954 H 0.12705 0.65705 0.64489 0.0
H955 H 0.0488 0.5448 0.23738 0.0
H956 H 0.05567 0.62176 0.32569 0.0
C957 C 0.44556 0.53025 0.93878 0.0
C958 C 0.448 0.54788 0.84149 0.0
N959 N 0.45358 0.5714 0.89894 0.0
N960 N 0.44914 0.54263 0.05615 0.0
C961 C 0.45366 0.56732 1.02928 0.0
H962 H 0.43984 0.50934 0.92555 0.0
Co963 Co 0.43442 0.52744 0.208 0.0
C964 C 0.48791 0.5689 0.39681 0.0
O965 O 0.49589 0.55203 0.4326 0.0
N966 N 0.41825 0.51217 0.35956 0.0
C967 C 0.40382 0.48954 0.54677 0.0
C968 C 0.4264 0.50694 0.47565 0.0
C969 C 0.39149 0.4989 0.36301 0.0
N970 N 0.38242 0.48402 0.47083 0.0
O971 O 0.40041 0.49691 0.09429 0.0
H972 H 0.44708 0.51424 0.50384 0.0
H973 H 0.37866 0.50064 0.29045 0.0
O974 O 0.46676 0.56029 0.31898 0.0
C975 C 0.38167 0.49797 1.02322 0.0
O976 O 0.38227 0.52108 1.01452 0.0
N977 N 0.45247 0.50645 0.21048 0.0
C978 C 0.47918 0.47876 0.29547 0.0
C979 C 0.49353 0.50512 0.24324 0.0
C980 C 0.47985 0.5185 0.20112 0.0
C981 C 0.43803 0.47977 0.24357 0.0
C982 C 0.45085 0.46591 0.28947 0.0
H983 H 0.49145 0.53922 0.16898 0.0
H984 H 0.41628 0.46962 0.24658 0.0
H985 H 0.45739 0.58226 0.10425 0.0
H986 H 0.44781 0.54448 0.73603 0.0
H987 H 0.40301 0.48174 0.64519 0.0
H988 H 0.51529 0.51582 0.23755 0.0
H989 H 0.43826 0.44565 0.32584 0.0
C990 C 0.18206 0.55593 0.85618 0.0
C991 C 0.19044 0.58172 0.89882 0.0
N992 N 0.1745 0.58979 0.84139 0.0
N993 N 0.16027 0.54774 0.77778 0.0
C994 C 0.15728 0.56925 0.76655 0.0
H995 H 0.19088 0.54387 0.88416 0.0
Co996 Co 0.13979 0.51608 0.69049 0.0
C997 C 0.14291 0.55764 0.46015 0.0
O998 O 0.16899 0.56819 0.44466 0.0
N999 N 0.11998 0.48438 0.60056 0.0
C1000 C 0.0933 0.45188 0.46335 0.0
C1001 C 0.09977 0.47676 0.51289 0.0
C1002 C 0.12433 0.46359 0.60803 0.0
N1003 N 0.10912 0.44381 0.52259 0.0
O1004 O 0.15227 0.49618 0.83485 0.0
H1005 H 0.09167 0.48921 0.48 0.0
H1006 H 0.14166 0.46481 0.65693 0.0
O1007 O 0.13028 0.53743 0.54297 0.0
C1008 C 0.15445 0.49211 0.9612 0.0
O1009 O 0.1453 0.50247 0.04876 0.0
N1010 N 0.10646 0.50667 0.7851 0.0
C1011 C 0.04986 0.47978 0.81746 0.0
C1012 C 0.06411 0.50642 0.7727 0.0
C1013 C 0.09214 0.51935 0.75665 0.0
C1014 C 0.09301 0.48169 0.84289 0.0
C1015 C 0.06488 0.46787 0.8582 0.0
H1016 H 0.1012 0.53854 0.70873 0.0
H1017 H 0.10325 0.47064 0.86283 0.0
H1018 H 0.14118 0.56952 0.71477 0.0
H1019 H 0.20533 0.59269 0.97438 0.0
H1020 H 0.08086 0.44234 0.3775 0.0
H1021 H 0.05353 0.51664 0.7408 0.0
H1022 H 0.05487 0.44751 0.89654 0.0
C1023 C 0.50431 0.63805 0.85557 0.0
C1024 C 0.47855 0.6205 0.8986 0.0
N1025 N 0.47067 0.59645 0.84194 0.0
N1026 N 0.51268 0.62449 0.77795 0.0
C1027 C 0.49131 0.59984 0.76767 0.0
H1028 H 0.51621 0.65903 0.88244 0.0
Co1029 Co 0.54424 0.63589 0.68943 0.0
C1030 C 0.50243 0.59718 0.46033 0.0
O1031 O 0.49173 0.61258 0.44578 0.0
N1032 N 0.57583 0.64799 0.59826 0.0
C1033 C 0.60822 0.65404 0.45955 0.0
C1034 C 0.58345 0.63549 0.50993 0.0
C1035 C 0.59653 0.67322 0.60519 0.0
N1036 N 0.61625 0.67792 0.51902 0.0
O1037 O 0.56419 0.6684 0.83338 0.0
H1038 H 0.57105 0.61491 0.47721 0.0
H1039 H 0.59527 0.68928 0.65446 0.0
O1040 O 0.52279 0.60492 0.54227 0.0
C1041 C 0.56808 0.67482 0.95962 0.0
O1042 O 0.55736 0.65543 0.0477 0.0
N1043 N 0.55402 0.61218 0.78316 0.0
C1044 C 0.58113 0.58274 0.81679 0.0
C1045 C 0.55454 0.57023 0.77132 0.0
C1046 C 0.54151 0.58517 0.75452 0.0
C1047 C 0.57901 0.6239 0.84097 0.0
C1048 C 0.59294 0.60972 0.85691 0.0
H1049 H 0.52239 0.57493 0.70608 0.0
H1050 H 0.58994 0.6452 0.86093 0.0
H1051 H 0.49118 0.58347 0.71651 0.0
H1052 H 0.46744 0.62441 0.9735 0.0
H1053 H 0.61771 0.65121 0.37321 0.0
H1054 H 0.54441 0.5494 0.7396 0.0
H1055 H 0.61328 0.62019 0.89558 0.0
C1056 C 0.42365 0.8789 0.8541 0.0
C1057 C 0.44126 0.8708 0.89698 0.0
N1058 N 0.46533 0.88711 0.84059 0.0
N1059 N 0.43719 0.90091 0.77692 0.0
C1060 C 0.46192 0.90439 0.76685 0.0
H1061 H 0.40263 0.8697 0.88072 0.0
Co1062 Co 0.42569 0.92093 0.68845 0.0
C1063 C 0.46457 0.91801 0.45926 0.0
O1064 O 0.44925 0.89187 0.44492 0.0
N1065 N 0.41351 0.94032 0.59738 0.0
C1066 C 0.40745 0.96674 0.45967 0.0
C1067 C 0.426 0.96049 0.50931 0.0
C1068 C 0.38828 0.93578 0.60487 0.0
N1069 N 0.38357 0.95084 0.51926 0.0
O1070 O 0.39316 0.90822 0.83255 0.0
H1071 H 0.44659 0.96873 0.47642 0.0
H1072 H 0.37223 0.91844 0.6542 0.0
O1073 O 0.45673 0.93057 0.54113 0.0
C1074 C 0.38682 0.9058 0.95891 0.0
O1075 O 0.4063 0.91476 0.04657 0.0
N1076 N 0.44931 0.9545 0.78212 0.0
C1077 C 0.47834 1.01111 0.8146 0.0
C1078 C 0.49104 0.99723 0.76906 0.0
C1079 C 0.47629 0.96921 0.75287 0.0
C1080 C 0.43744 0.9676 0.84018 0.0
C1081 C 0.45142 0.99573 0.85559 0.0
H1082 H 0.48664 0.96045 0.70432 0.0
H1083 H 0.41615 0.95708 0.86056 0.0
H1084 H 0.47828 0.92075 0.71615 0.0
H1085 H 0.43737 0.85573 0.97147 0.0
H1086 H 0.41028 0.97912 0.37366 0.0
H1087 H 0.51184 1.0081 0.73676 0.0
H1088 H 0.44081 1.00544 0.8944 0.0
C1089 C 0.23265 0.5062 0.11996 0.0
C1090 C 0.2586 0.51537 0.0772 0.0
N1091 N 0.26711 0.49957 0.13187 0.0
N1092 N 0.22479 0.48401 0.19502 0.0
C1093 C 0.2466 0.4815 0.20436 0.0
H1094 H 0.2203 0.51486 0.09487 0.0
Co1095 Co 0.19332 0.463 0.28243 0.0
C1096 C 0.2356 0.46671 0.51092 0.0
O1097 O 0.24637 0.49286 0.52385 0.0
N1098 N 0.16174 0.44273 0.3727 0.0
C1099 C 0.12971 0.41617 0.51252 0.0
C1100 C 0.15454 0.42276 0.46149 0.0
C1101 C 0.14074 0.44677 0.36592 0.0
N1102 N 0.12128 0.43168 0.45307 0.0
O1103 O 0.17299 0.47508 0.13868 0.0
H1104 H 0.1673 0.41503 0.49447 0.0
H1105 H 0.14165 0.46392 0.31661 0.0
O1106 O 0.21515 0.4539 0.42951 0.0
C1107 C 0.16934 0.47764 1.01222 0.0
O1108 O 0.18056 0.46938 0.92484 0.0
N1109 N 0.18441 0.42985 0.1873 0.0
C1110 C 0.15828 0.37328 0.15453 0.0
C1111 C 0.1849 0.38789 0.1993 0.0
C1112 C 0.19745 0.41587 0.21559 0.0
C1113 C 0.15942 0.41609 0.12969 0.0
C1114 C 0.14596 0.38796 0.11428 0.0
H1115 H 0.21665 0.42518 0.2635 0.0
H1116 H 0.14811 0.42606 0.10978 0.0
H1117 H 0.2472 0.46533 0.25371 0.0
H1118 H 0.26949 0.53085 1.00395 0.0
H1119 H 0.12051 0.40395 0.59947 0.0
H1120 H 0.19543 0.3776 0.23092 0.0
H1121 H 0.1256 0.37769 0.07599 0.0
C1122 C 0.555 0.74016 0.11257 0.0
C1123 C 0.54631 0.75725 0.06891 0.0
N1124 N 0.56193 0.78136 0.1261 0.0
N1125 N 0.57672 0.75409 0.1911 0.0
C1126 C 0.57933 0.77845 0.20158 0.0
H1127 H 0.54639 0.71926 0.08533 0.0
Co1128 Co 0.59745 0.74332 0.27913 0.0
C1129 C 0.59464 0.78247 0.50789 0.0
O1130 O 0.56849 0.76731 0.5227 0.0
N1131 N 0.61743 0.73177 0.36983 0.0
C1132 C 0.64399 0.72618 0.50883 0.0
C1133 C 0.63754 0.7445 0.45797 0.0
C1134 C 0.61311 0.70662 0.36343 0.0
N1135 N 0.62827 0.70223 0.44974 0.0
O1136 O 0.58507 0.7107 0.13592 0.0
H1137 H 0.64554 0.76508 0.49039 0.0
H1138 H 0.59583 0.6904 0.31464 0.0
O1139 O 0.60705 0.77451 0.42563 0.0
C1140 C 0.5828 0.70427 1.00974 0.0
O1141 O 0.59172 0.72365 0.92157 0.0
N1142 N 0.63063 0.76722 0.18363 0.0
C1143 C 0.68722 0.79739 0.15213 0.0
C1144 C 0.6727 0.80963 0.19477 0.0
C1145 C 0.64468 0.79433 0.21027 0.0
C1146 C 0.64432 0.75579 0.12749 0.0
C1147 C 0.67247 0.77034 0.11273 0.0
H1148 H 0.63537 0.80439 0.25637 0.0
H1149 H 0.63425 0.73445 0.1086 0.0
H1150 H 0.59525 0.795 0.25342 0.0
H1151 H 0.53139 0.75303 0.99313 0.0
H1152 H 0.65635 0.72919 0.59513 0.0
H1153 H 0.68305 0.83053 0.22543 0.0
H1154 H 0.68268 0.76008 0.07584 0.0
C1155 C 0.32254 0.82737 0.11612 0.0
C1156 C 0.30579 0.80143 0.07334 0.0
N1157 N 0.28153 0.79273 0.12939 0.0
N1158 N 0.30825 0.83504 0.19278 0.0
C1159 C 0.28401 0.8131 0.20308 0.0
H1160 H 0.34349 0.83985 0.08975 0.0
Co1161 Co 0.31864 0.86652 0.28004 0.0
C1162 C 0.28001 0.82432 0.50935 0.0
O1163 O 0.29545 0.81364 0.52302 0.0
N1164 N 0.32987 0.89808 0.37011 0.0
C1165 C 0.33529 0.93008 0.50976 0.0
C1166 C 0.31706 0.90524 0.4589 0.0
C1167 C 0.35492 0.9191 0.36319 0.0
N1168 N 0.35924 0.93856 0.45012 0.0
O1169 O 0.3511 0.88694 0.13611 0.0
H1170 H 0.29656 0.89245 0.49201 0.0
H1171 H 0.3712 0.91824 0.31389 0.0
O1172 O 0.28764 0.84467 0.42731 0.0
C1173 C 0.35741 0.89087 1.00973 0.0
O1174 O 0.33796 0.87992 0.92211 0.0
N1175 N 0.29434 0.87526 0.18474 0.0
C1176 C 0.26358 0.901 0.1519 0.0
C1177 C 0.25166 0.87434 0.19598 0.0
C1178 C 0.26725 0.86198 0.21229 0.0
C1179 C 0.30549 0.90027 0.12761 0.0
C1180 C 0.29065 0.91354 0.11219 0.0
H1181 H 0.25742 0.84272 0.25959 0.0
H1182 H 0.32681 0.91173 0.10817 0.0
H1183 H 0.26726 0.81233 0.25368 0.0
H1184 H 0.31032 0.7907 0.99895 0.0
H1185 H 0.33224 0.93928 0.59662 0.0
H1186 H 0.23078 0.86364 0.22707 0.0
H1187 H 0.30068 0.93394 0.07438 0.0
loop_
_geom_bond_atom_site_label_1
_geom_bond_atom_site_label_2
_geom_bond_distance
_geom_bond_site_symmetry_2
_ccdc_geom_bond_type
C0 C1 1.351 . S
C0 N3 1.368 . S
C0 H5 0.931 . S
C1 C0 1.351 . S
C1 N2 1.373 . S
C1 H29 0.930 . S
N2 C1 1.373 . S
N2 C4 1.340 . S
N3 C0 1.368 . S
N3 C4 1.321 . S
N3 Co6 2.135 . S
C4 N2 1.340 . S
C4 N3 1.321 . S
C4 H28 0.930 . S
H5 C0 0.931 . S
Co6 N3 2.135 . S
Co6 N9 2.121 1_554 S
Co6 O14 2.055 . S
Co6 O17 2.039 1_554 S
Co6 N20 2.140 . S
C7 O8 1.227 . S
C7 O17 1.265 . S
O8 C7 1.227 . S
N9 Co6 2.121 1_556 S
N9 C11 1.375 . S
N9 C12 1.313 . S
C10 C11 1.338 . S
C10 N13 1.377 . S
C10 H30 0.930 . S
C11 N9 1.375 . S
C11 C10 1.338 . S
C11 H15 0.931 . S
C12 N9 1.313 . S
C12 N13 1.344 . S
C12 H16 0.930 . S
N13 C10 1.377 . S
N13 C12 1.344 . S
O14 Co6 2.055 . S
O14 C18 1.253 . S
H15 C11 0.931 . S
H16 C12 0.930 . S
O17 Co6 2.039 1_556 S
O17 C7 1.265 . S
C18 O14 1.253 . S
C18 O19 1.227 . S
O19 C18 1.227 . S
N20 Co6 2.140 . S
N20 C23 1.346 . S
N20 C24 1.345 1_554 S
C21 C22 1.387 1_556 S
C21 C25 1.391 . S
C22 C21 1.387 1_554 S
C22 C23 1.369 . S
C22 H31 0.929 . S
C23 N20 1.346 . S
C23 C22 1.369 . S
C23 H26 0.928 . S
C24 N20 1.345 1_556 S
C24 C25 1.371 . S
C24 H27 0.931 . S
C25 C21 1.391 . S
C25 C24 1.371 . S
C25 H32 0.930 . S
H26 C23 0.928 . S
H27 C24 0.931 . S
H28 C4 0.930 . S
H29 C1 0.930 . S
H30 C10 0.930 . S
H31 C22 0.929 . S
H32 C25 0.930 . S
C33 C34 1.351 . S
C33 N36 1.368 . S
C33 H38 0.931 . S
C34 C33 1.351 . S
C34 N35 1.373 . S
C34 H62 0.930 . S
N35 C34 1.373 . S
N35 C37 1.340 . S
N36 C33 1.368 . S
N36 C37 1.321 . S
N36 Co39 2.135 . S
C37 N35 1.340 . S
C37 N36 1.321 . S
C37 H61 0.930 . S
H38 C33 0.931 . S
Co39 N36 2.135 . S
Co39 N42 2.121 1_554 S
Co39 O47 2.055 . S
Co39 O50 2.039 1_554 S
Co39 N53 2.140 . S
C40 O41 1.227 . S
C40 O50 1.265 . S
O41 C40 1.227 . S
N42 Co39 2.121 1_556 S
N42 C44 1.375 . S
N42 C45 1.313 . S
C43 C44 1.338 . S
C43 N46 1.377 . S
C43 H63 0.930 . S
C44 N42 1.375 . S
C44 C43 1.338 . S
C44 H48 0.931 . S
C45 N42 1.313 . S
C45 N46 1.344 . S
C45 H49 0.909 1_545 S
N46 C43 1.377 . S
N46 C45 1.344 . S
O47 Co39 2.055 . S
O47 C51 1.253 . S
H48 C44 0.931 . S
H49 C45 0.909 1_565 S
O50 Co39 2.039 1_556 S
O50 C40 1.265 . S
C51 O47 1.253 . S
C51 O52 1.227 . S
O52 C51 1.227 . S
N53 Co39 2.140 . S
N53 C56 1.346 . S
N53 C57 1.345 1_554 S
C54 C55 1.387 1_556 S
C54 C58 1.391 . S
C55 C54 1.387 1_554 S
C55 C56 1.369 . S
C55 H64 0.929 . S
C56 N53 1.346 . S
C56 C55 1.369 . S
C56 H59 0.928 . S
C57 N53 1.345 1_556 S
C57 C58 1.371 . S
C57 H60 0.931 . S
C58 C54 1.391 . S
C58 C57 1.371 . S
C58 H65 0.930 . S
H59 C56 0.928 . S
H60 C57 0.931 . S
H61 C37 0.930 . S
H62 C34 0.930 . S
H63 C43 0.930 . S
H64 C55 0.929 . S
H65 C58 0.930 . S
C66 C67 1.351 . S
C66 N69 1.368 . S
C66 H71 0.931 . S
C67 C66 1.351 . S
C67 N68 1.373 . S
C67 H95 0.930 . S
N68 C67 1.373 . S
N68 C70 1.340 . S
N69 C66 1.368 . S
N69 C70 1.321 . S
N69 Co72 2.135 . S
C70 N68 1.340 . S
C70 N69 1.321 . S
C70 H94 0.930 . S
H71 C66 0.931 . S
Co72 N69 2.135 . S
Co72 N75 2.121 1_554 S
Co72 O80 2.055 . S
Co72 O83 2.039 1_554 S
Co72 N86 2.140 . S
C73 O74 1.227 . S
C73 O83 1.265 . S
O74 C73 1.227 . S
N75 Co72 2.121 1_556 S
N75 C77 1.375 . S
N75 C78 1.313 . S
C76 C77 1.338 . S
C76 N79 1.377 . S
C76 H96 0.930 . S
C77 N75 1.375 . S
C77 C76 1.338 . S
C77 H81 0.931 . S
C78 N75 1.313 . S
C78 N79 1.344 . S
C78 H82 0.912 1_655 S
N79 C76 1.377 . S
N79 C78 1.344 . S
O80 Co72 2.055 . S
O80 C84 1.253 . S
H81 C77 0.931 . S
H82 C78 0.912 1_455 S
O83 Co72 2.039 1_556 S
O83 C73 1.265 . S
C84 O80 1.253 . S
C84 O85 1.227 . S
O85 C84 1.227 . S
N86 Co72 2.140 . S
N86 C89 1.346 . S
N86 C90 1.345 1_554 S
C87 C88 1.387 1_556 S
C87 C91 1.391 . S
C88 C87 1.387 1_554 S
C88 C89 1.369 . S
C88 H97 0.929 . S
C89 N86 1.346 . S
C89 C88 1.369 . S
C89 H92 0.928 . S
C90 N86 1.345 1_556 S
C90 C91 1.371 . S
C90 H93 0.931 . S
C91 C87 1.391 . S
C91 C90 1.371 . S
C91 H98 0.930 . S
H92 C89 0.928 . S
H93 C90 0.931 . S
H94 C70 0.930 . S
H95 C67 0.930 . S
H96 C76 0.930 . S
H97 C88 0.929 . S
H98 C91 0.930 . S
C99 C100 1.351 . S
C99 N102 1.368 . S
C99 H104 0.931 . S
C100 C99 1.351 . S
C100 N101 1.373 . S
C100 H128 0.930 . S
N101 C100 1.373 . S
N101 C103 1.340 . S
N102 C99 1.368 . S
N102 C103 1.321 . S
N102 Co105 2.135 . S
C103 N101 1.340 . S
C103 N102 1.321 . S
C103 H127 0.930 . S
H104 C99 0.931 . S
Co105 N102 2.135 . S
Co105 N108 2.121 . S
Co105 O113 2.055 . S
Co105 O116 2.039 . S
Co105 N119 2.140 . S
C106 O107 1.227 . S
C106 O116 1.265 . S
O107 C106 1.227 . S
N108 Co105 2.121 . S
N108 C110 1.375 . S
N108 C111 1.313 . S
C109 C110 1.338 . S
C109 N112 1.377 . S
C109 H129 0.930 . S
C110 N108 1.375 . S
C110 C109 1.338 . S
C110 H114 0.931 . S
C111 N108 1.313 . S
C111 N112 1.344 . S
C111 H115 0.930 . S
N112 C109 1.377 . S
N112 C111 1.344 . S
O113 Co105 2.055 . S
O113 C117 1.253 . S
H114 C110 0.931 . S
H115 C111 0.930 . S
O116 Co105 2.039 . S
O116 C106 1.265 . S
C117 O113 1.253 . S
C117 O118 1.227 . S
O118 C117 1.227 . S
N119 Co105 2.140 . S
N119 C122 1.346 . S
N119 C123 1.345 . S
C120 C121 1.387 . S
C120 C124 1.391 . S
C121 C120 1.387 . S
C121 C122 1.369 . S
C121 H130 0.929 . S
C122 N119 1.346 . S
C122 C121 1.369 . S
C122 H125 0.928 . S
C123 N119 1.345 . S
C123 C124 1.371 . S
C123 H126 0.931 . S
C124 C120 1.391 . S
C124 C123 1.371 . S
C124 H131 0.930 . S
H125 C122 0.928 . S
H126 C123 0.931 . S
H127 C103 0.930 . S
H128 C100 0.930 . S
H129 C109 0.930 . S
H130 C121 0.929 . S
H131 C124 0.930 . S
C132 C133 1.351 . S
C132 N135 1.368 . S
C132 H137 0.931 . S
C133 C132 1.351 . S
C133 N134 1.373 . S
C133 H161 0.930 . S
N134 C133 1.373 . S
N134 C136 1.340 . S
N135 C132 1.368 . S
N135 C136 1.321 . S
N135 Co138 2.135 . S
C136 N134 1.340 . S
C136 N135 1.321 . S
C136 H160 0.930 . S
H137 C132 0.931 . S
Co138 N135 2.135 . S
Co138 N141 2.121 . S
Co138 O146 2.055 . S
Co138 O149 2.039 . S
Co138 N152 2.140 . S
C139 O140 1.227 . S
C139 O149 1.265 . S
O140 C139 1.227 . S
N141 Co138 2.121 . S
N141 C143 1.375 . S
N141 C144 1.313 . S
C142 C143 1.338 . S
C142 N145 1.377 . S
C142 H162 0.930 . S
C143 N141 1.375 . S
C143 C142 1.338 . S
C143 H147 0.931 . S
C144 N141 1.313 . S
C144 N145 1.344 . S
C144 H148 0.912 1_565 S
N145 C142 1.377 . S
N145 C144 1.344 . S
O146 Co138 2.055 . S
O146 C150 1.253 . S
H147 C143 0.931 . S
H148 C144 0.912 1_545 S
O149 Co138 2.039 . S
O149 C139 1.265 . S
C150 O146 1.253 . S
C150 O151 1.227 . S
O151 C150 1.227 . S
N152 Co138 2.140 . S
N152 C155 1.346 . S
N152 C156 1.345 . S
C153 C154 1.387 . S
C153 C157 1.391 . S
C154 C153 1.387 . S
C154 C155 1.369 . S
C154 H163 0.929 . S
C155 N152 1.346 . S
C155 C154 1.369 . S
C155 H158 0.928 . S
C156 N152 1.345 . S
C156 C157 1.371 . S
C156 H159 0.931 . S
C157 C153 1.391 . S
C157 C156 1.371 . S
C157 H164 0.930 . S
H158 C155 0.928 . S
H159 C156 0.931 . S
H160 C136 0.930 . S
H161 C133 0.930 . S
H162 C142 0.930 . S
H163 C154 0.929 . S
H164 C157 0.930 . S
C165 C166 1.351 . S
C165 N168 1.368 . S
C165 H170 0.931 . S
C166 C165 1.351 . S
C166 N167 1.373 . S
C166 H194 0.930 . S
N167 C166 1.373 . S
N167 C169 1.340 . S
N168 C165 1.368 . S
N168 C169 1.321 . S
N168 Co171 2.135 . S
C169 N167 1.340 . S
C169 N168 1.321 . S
C169 H193 0.930 . S
H170 C165 0.931 . S
Co171 N168 2.135 . S
Co171 N174 2.121 . S
Co171 O179 2.055 . S
Co171 O182 2.039 . S
Co171 N185 2.140 . S
C172 O173 1.227 . S
C172 O182 1.265 . S
O173 C172 1.227 . S
N174 Co171 2.121 . S
N174 C176 1.375 . S
N174 C177 1.313 . S
C175 C176 1.338 . S
C175 N178 1.377 . S
C175 H195 0.930 . S
C176 N174 1.375 . S
C176 C175 1.338 . S
C176 H180 0.931 . S
C177 N174 1.313 . S
C177 N178 1.344 . S
C177 H181 0.909 1_455 S
N178 C175 1.377 . S
N178 C177 1.344 . S
O179 Co171 2.055 . S
O179 C183 1.253 . S
H180 C176 0.931 . S
H181 C177 0.909 1_655 S
O182 Co171 2.039 . S
O182 C172 1.265 . S
C183 O179 1.253 . S
C183 O184 1.227 . S
O184 C183 1.227 . S
N185 Co171 2.140 . S
N185 C188 1.346 . S
N185 C189 1.345 . S
C186 C187 1.387 . S
C186 C190 1.391 . S
C187 C186 1.387 . S
C187 C188 1.369 . S
C187 H196 0.929 . S
C188 N185 1.346 . S
C188 C187 1.369 . S
C188 H191 0.928 . S
C189 N185 1.345 . S
C189 C190 1.371 . S
C189 H192 0.931 . S
C190 C186 1.391 . S
C190 C189 1.371 . S
C190 H197 0.930 . S
H191 C188 0.928 . S
H192 C189 0.931 . S
H193 C169 0.930 . S
H194 C166 0.930 . S
H195 C175 0.930 . S
H196 C187 0.929 . S
H197 C190 0.930 . S
C198 C199 1.351 . S
C198 N201 1.368 . S
C198 H203 0.931 . S
C199 C198 1.351 . S
C199 N200 1.373 . S
C199 H227 0.930 . S
N200 C199 1.373 . S
N200 C202 1.340 . S
N201 C198 1.368 . S
N201 C202 1.321 . S
N201 Co204 2.135 . S
C202 N200 1.340 . S
C202 N201 1.321 . S
C202 H226 0.930 . S
H203 C198 0.931 . S
Co204 N201 2.135 . S
Co204 N207 2.121 1_554 S
Co204 O212 2.055 . S
Co204 O215 2.039 1_554 S
Co204 N218 2.140 . S
C205 O206 1.227 . S
C205 O215 1.265 . S
O206 C205 1.227 . S
N207 Co204 2.121 1_556 S
N207 C209 1.375 . S
N207 C210 1.313 . S
C208 C209 1.338 . S
C208 N211 1.377 . S
C208 H228 0.930 . S
C209 N207 1.375 . S
C209 C208 1.338 . S
C209 H213 0.931 . S
C210 N207 1.313 . S
C210 N211 1.344 . S
C210 H214 0.930 . S
N211 C208 1.377 . S
N211 C210 1.344 . S
O212 Co204 2.055 . S
O212 C216 1.253 . S
H213 C209 0.931 . S
H214 C210 0.930 . S
O215 Co204 2.039 1_556 S
O215 C205 1.265 . S
C216 O212 1.253 . S
C216 O217 1.227 . S
O217 C216 1.227 . S
N218 Co204 2.140 . S
N218 C221 1.346 . S
N218 C222 1.345 . S
C219 C220 1.387 . S
C219 C223 1.391 . S
C220 C219 1.387 . S
C220 C221 1.369 . S
C220 H229 0.929 . S
C221 N218 1.346 . S
C221 C220 1.369 . S
C221 H224 0.928 . S
C222 N218 1.345 . S
C222 C223 1.371 . S
C222 H225 0.931 . S
C223 C219 1.391 . S
C223 C222 1.371 . S
C223 H230 0.930 . S
H224 C221 0.928 . S
H225 C222 0.931 . S
H226 C202 0.930 . S
H227 C199 0.930 . S
H228 C208 0.930 . S
H229 C220 0.929 . S
H230 C223 0.930 . S
C231 C232 1.351 . S
C231 N234 1.368 . S
C231 H236 0.931 . S
C232 C231 1.351 . S
C232 N233 1.373 . S
C232 H260 0.930 . S
N233 C232 1.373 . S
N233 C235 1.340 . S
N234 C231 1.368 . S
N234 C235 1.321 . S
N234 Co237 2.135 . S
C235 N233 1.340 . S
C235 N234 1.321 . S
C235 H259 0.930 . S
H236 C231 0.931 . S
Co237 N234 2.135 . S
Co237 N240 2.121 1_554 S
Co237 O245 2.055 . S
Co237 O248 2.039 1_554 S
Co237 N251 2.140 . S
C238 O239 1.227 . S
C238 O248 1.265 . S
O239 C238 1.227 . S
N240 Co237 2.121 1_556 S
N240 C242 1.375 . S
N240 C243 1.313 . S
C241 C242 1.338 . S
C241 N244 1.377 . S
C241 H261 0.930 . S
C242 N240 1.375 . S
C242 C241 1.338 . S
C242 H246 0.931 . S
C243 N240 1.313 . S
C243 N244 1.344 . S
C243 H247 0.954 . S
N244 C241 1.377 . S
N244 C243 1.344 . S
O245 Co237 2.055 . S
O245 C249 1.253 . S
H246 C242 0.931 . S
H247 C243 0.954 . S
O248 Co237 2.039 1_556 S
O248 C238 1.265 . S
C249 O245 1.253 . S
C249 O250 1.227 . S
O250 C249 1.227 . S
N251 Co237 2.140 . S
N251 C254 1.346 . S
N251 C255 1.345 . S
C252 C253 1.387 . S
C252 C256 1.391 . S
C253 C252 1.387 . S
C253 C254 1.369 . S
C253 H262 0.929 . S
C254 N251 1.346 . S
C254 C253 1.369 . S
C254 H257 0.928 . S
C255 N251 1.345 . S
C255 C256 1.371 . S
C255 H258 0.931 . S
C256 C252 1.391 . S
C256 C255 1.371 . S
C256 H263 0.930 . S
H257 C254 0.928 . S
H258 C255 0.931 . S
H259 C235 0.930 . S
H260 C232 0.930 . S
H261 C241 0.930 . S
H262 C253 0.929 . S
H263 C256 0.930 . S
C264 C265 1.351 . S
C264 N267 1.368 . S
C264 H269 0.931 . S
C265 C264 1.351 . S
C265 N266 1.373 . S
C265 H293 0.930 . S
N266 C265 1.373 . S
N266 C268 1.340 . S
N267 C264 1.368 . S
N267 C268 1.321 . S
N267 Co270 2.135 . S
C268 N266 1.340 . S
C268 N267 1.321 . S
C268 H292 0.930 . S
H269 C264 0.931 . S
Co270 N267 2.135 . S
Co270 N273 2.121 1_554 S
Co270 O278 2.055 . S
Co270 O281 2.039 1_554 S
Co270 N284 2.140 . S
C271 O272 1.227 . S
C271 O281 1.265 . S
O272 C271 1.227 . S
N273 Co270 2.121 1_556 S
N273 C275 1.375 . S
N273 C276 1.313 . S
C274 C275 1.338 . S
C274 N277 1.377 . S
C274 H294 0.930 . S
C275 N273 1.375 . S
C275 C274 1.338 . S
C275 H279 0.931 . S
C276 N273 1.313 . S
C276 N277 1.344 . S
C276 H280 0.949 . S
N277 C274 1.377 . S
N277 C276 1.344 . S
O278 Co270 2.055 . S
O278 C282 1.253 . S
H279 C275 0.931 . S
H280 C276 0.949 . S
O281 Co270 2.039 1_556 S
O281 C271 1.265 . S
C282 O278 1.253 . S
C282 O283 1.227 . S
O283 C282 1.227 . S
N284 Co270 2.140 . S
N284 C287 1.346 . S
N284 C288 1.345 . S
C285 C286 1.387 . S
C285 C289 1.391 . S
C286 C285 1.387 . S
C286 C287 1.369 . S
C286 H295 0.929 . S
C287 N284 1.346 . S
C287 C286 1.369 . S
C287 H290 0.928 . S
C288 N284 1.345 . S
C288 C289 1.371 . S
C288 H291 0.931 . S
C289 C285 1.391 . S
C289 C288 1.371 . S
C289 H296 0.930 . S
H290 C287 0.928 . S
H291 C288 0.931 . S
H292 C268 0.930 . S
H293 C265 0.930 . S
H294 C274 0.930 . S
H295 C286 0.929 . S
H296 C289 0.930 . S
C297 C298 1.351 . S
C297 N300 1.368 . S
C297 H302 0.931 . S
C298 C297 1.351 . S
C298 N299 1.373 . S
C298 H326 0.930 . S
N299 C298 1.373 . S
N299 C301 1.340 . S
N300 C297 1.368 . S
N300 C301 1.321 . S
N300 Co303 2.135 . S
C301 N299 1.340 . S
C301 N300 1.321 . S
C301 H325 0.930 . S
H302 C297 0.931 . S
Co303 N300 2.135 . S
Co303 N306 2.121 . S
Co303 O311 2.055 . S
Co303 O314 2.039 . S
Co303 N317 2.140 . S
C304 O305 1.227 . S
C304 O314 1.265 . S
O305 C304 1.227 . S
N306 Co303 2.121 . S
N306 C308 1.375 . S
N306 C309 1.313 . S
C307 C308 1.338 . S
C307 N310 1.377 . S
C307 H327 0.930 . S
C308 N306 1.375 . S
C308 C307 1.338 . S
C308 H312 0.931 . S
C309 N306 1.313 . S
C309 N310 1.344 . S
C309 H313 0.930 . S
N310 C307 1.377 . S
N310 C309 1.344 . S
O311 Co303 2.055 . S
O311 C315 1.253 . S
H312 C308 0.931 . S
H313 C309 0.930 . S
O314 Co303 2.039 . S
O314 C304 1.265 . S
C315 O311 1.253 . S
C315 O316 1.227 . S
O316 C315 1.227 . S
N317 Co303 2.140 . S
N317 C320 1.346 . S
N317 C321 1.345 . S
C318 C319 1.387 . S
C318 C322 1.391 . S
C319 C318 1.387 . S
C319 C320 1.369 . S
C319 H328 0.929 . S
C320 N317 1.346 . S
C320 C319 1.369 . S
C320 H323 0.928 . S
C321 N317 1.345 . S
C321 C322 1.371 . S
C321 H324 0.931 . S
C322 C318 1.391 . S
C322 C321 1.371 . S
C322 H329 0.930 . S
H323 C320 0.928 . S
H324 C321 0.931 . S
H325 C301 0.930 . S
H326 C298 0.930 . S
H327 C307 0.930 . S
H328 C319 0.929 . S
H329 C322 0.930 . S
C330 C331 1.351 . S
C330 N333 1.368 . S
C330 H335 0.931 . S
C331 C330 1.351 . S
C331 N332 1.373 . S
C331 H359 0.930 . S
N332 C331 1.373 . S
N332 C334 1.340 . S
N333 C330 1.368 . S
N333 C334 1.321 . S
N333 Co336 2.135 . S
C334 N332 1.340 . S
C334 N333 1.321 . S
C334 H358 0.930 . S
H335 C330 0.931 . S
Co336 N333 2.135 . S
Co336 N339 2.121 . S
Co336 O344 2.055 . S
Co336 O347 2.039 . S
Co336 N350 2.140 . S
C337 O338 1.227 . S
C337 O347 1.265 . S
O338 C337 1.227 . S
N339 Co336 2.121 . S
N339 C341 1.375 . S
N339 C342 1.313 . S
C340 C341 1.338 . S
C340 N343 1.377 . S
C340 H360 0.930 . S
C341 N339 1.375 . S
C341 C340 1.338 . S
C341 H345 0.931 . S
C342 N339 1.313 . S
C342 N343 1.344 . S
C342 H346 0.949 . S
N343 C340 1.377 . S
N343 C342 1.344 . S
O344 Co336 2.055 . S
O344 C348 1.253 . S
H345 C341 0.931 . S
H346 C342 0.949 . S
O347 Co336 2.039 . S
O347 C337 1.265 . S
C348 O344 1.253 . S
C348 O349 1.227 . S
O349 C348 1.227 . S
N350 Co336 2.140 . S
N350 C353 1.346 . S
N350 C354 1.345 . S
C351 C352 1.387 . S
C351 C355 1.391 . S
C352 C351 1.387 . S
C352 C353 1.369 . S
C352 H361 0.929 . S
C353 N350 1.346 . S
C353 C352 1.369 . S
C353 H356 0.928 . S
C354 N350 1.345 . S
C354 C355 1.371 . S
C354 H357 0.931 . S
C355 C351 1.391 . S
C355 C354 1.371 . S
C355 H362 0.930 . S
H356 C353 0.928 . S
H357 C354 0.931 . S
H358 C334 0.930 . S
H359 C331 0.930 . S
H360 C340 0.930 . S
H361 C352 0.929 . S
H362 C355 0.930 . S
C363 C364 1.351 . S
C363 N366 1.368 . S
C363 H368 0.931 . S
C364 C363 1.351 . S
C364 N365 1.373 . S
C364 H392 0.930 . S
N365 C364 1.373 . S
N365 C367 1.340 . S
N366 C363 1.368 . S
N366 C367 1.321 . S
N366 Co369 2.135 . S
C367 N365 1.340 . S
C367 N366 1.321 . S
C367 H391 0.930 . S
H368 C363 0.931 . S
Co369 N366 2.135 . S
Co369 N372 2.121 . S
Co369 O377 2.055 . S
Co369 O380 2.039 . S
Co369 N383 2.140 . S
C370 O371 1.227 . S
C370 O380 1.265 . S
O371 C370 1.227 . S
N372 Co369 2.121 . S
N372 C374 1.375 . S
N372 C375 1.313 . S
C373 C374 1.338 . S
C373 N376 1.377 . S
C373 H393 0.930 . S
C374 N372 1.375 . S
C374 C373 1.338 . S
C374 H378 0.931 . S
C375 N372 1.313 . S
C375 N376 1.344 . S
C375 H379 0.954 . S
N376 C373 1.377 . S
N376 C375 1.344 . S
O377 Co369 2.055 . S
O377 C381 1.253 . S
H378 C374 0.931 . S
H379 C375 0.954 . S
O380 Co369 2.039 . S
O380 C370 1.265 . S
C381 O377 1.253 . S
C381 O382 1.227 . S
O382 C381 1.227 . S
N383 Co369 2.140 . S
N383 C386 1.346 . S
N383 C387 1.345 . S
C384 C385 1.387 . S
C384 C388 1.391 . S
C385 C384 1.387 . S
C385 C386 1.369 . S
C385 H394 0.929 . S
C386 N383 1.346 . S
C386 C385 1.369 . S
C386 H389 0.928 . S
C387 N383 1.345 . S
C387 C388 1.371 . S
C387 H390 0.931 . S
C388 C384 1.391 . S
C388 C387 1.371 . S
C388 H395 0.930 . S
H389 C386 0.928 . S
H390 C387 0.931 . S
H391 C367 0.930 . S
H392 C364 0.930 . S
H393 C373 0.930 . S
H394 C385 0.929 . S
H395 C388 0.930 . S
C396 C397 1.351 . S
C396 N399 1.368 . S
C396 H401 0.931 . S
C397 C396 1.351 . S
C397 N398 1.373 . S
C397 H425 0.930 . S
N398 C397 1.373 . S
N398 C400 1.340 . S
N399 C396 1.368 . S
N399 C400 1.321 . S
N399 Co402 2.135 . S
C400 N398 1.340 . S
C400 N399 1.321 . S
C400 H424 0.930 . S
H401 C396 0.931 . S
Co402 N399 2.135 . S
Co402 N405 2.121 . S
Co402 O410 2.055 . S
Co402 O413 2.039 . S
Co402 N416 2.140 . S
C403 O404 1.227 . S
C403 O413 1.265 . S
O404 C403 1.227 . S
N405 Co402 2.121 . S
N405 C407 1.375 . S
N405 C408 1.313 . S
C406 C407 1.338 . S
C406 N409 1.377 . S
C406 H426 0.930 1_554 S
C407 N405 1.375 . S
C407 C406 1.338 . S
C407 H411 0.931 . S
C408 N405 1.313 . S
C408 N409 1.344 . S
C408 H412 0.930 . S
N409 C406 1.377 . S
N409 C408 1.344 . S
O410 Co402 2.055 . S
O410 C414 1.253 . S
H411 C407 0.931 . S
H412 C408 0.930 . S
O413 Co402 2.039 . S
O413 C403 1.265 . S
C414 O410 1.253 . S
C414 O415 1.227 . S
O415 C414 1.227 . S
N416 Co402 2.140 . S
N416 C419 1.346 . S
N416 C420 1.345 . S
C417 C418 1.387 . S
C417 C421 1.391 . S
C418 C417 1.387 . S
C418 C419 1.369 . S
C418 H427 0.929 . S
C419 N416 1.346 . S
C419 C418 1.369 . S
C419 H422 0.928 . S
C420 N416 1.345 . S
C420 C421 1.371 . S
C420 H423 0.931 . S
C421 C417 1.391 . S
C421 C420 1.371 . S
C421 H428 0.930 . S
H422 C419 0.928 . S
H423 C420 0.931 . S
H424 C400 0.930 . S
H425 C397 0.930 . S
H426 C406 0.930 1_556 S
H427 C418 0.929 . S
H428 C421 0.930 . S
C429 C430 1.351 . S
C429 N432 1.368 . S
C429 H434 0.931 . S
C430 C429 1.351 . S
C430 N431 1.373 . S
C430 H458 0.930 . S
N431 C430 1.373 . S
N431 C433 1.340 . S
N432 C429 1.368 . S
N432 C433 1.321 . S
N432 Co435 2.135 . S
C433 N431 1.340 . S
C433 N432 1.321 . S
C433 H457 0.930 . S
H434 C429 0.931 . S
Co435 N432 2.135 . S
Co435 N438 2.121 . S
Co435 O443 2.055 . S
Co435 O446 2.039 . S
Co435 N449 2.140 . S
C436 O437 1.227 . S
C436 O446 1.265 . S
O437 C436 1.227 . S
N438 Co435 2.121 . S
N438 C440 1.375 . S
N438 C441 1.313 . S
C439 C440 1.338 . S
C439 N442 1.377 . S
C439 H459 0.930 1_554 S
C440 N438 1.375 . S
C440 C439 1.338 . S
C440 H444 0.931 . S
C441 N438 1.313 . S
C441 N442 1.344 . S
C441 H445 0.930 . S
N442 C439 1.377 . S
N442 C441 1.344 . S
O443 Co435 2.055 . S
O443 C447 1.253 . S
H444 C440 0.931 . S
H445 C441 0.930 . S
O446 Co435 2.039 . S
O446 C436 1.265 . S
C447 O443 1.253 . S
C447 O448 1.227 . S
O448 C447 1.227 . S
N449 Co435 2.140 . S
N449 C452 1.346 . S
N449 C453 1.345 . S
C450 C451 1.387 . S
C450 C454 1.391 . S
C451 C450 1.387 . S
C451 C452 1.369 . S
C451 H460 0.929 . S
C452 N449 1.346 . S
C452 C451 1.369 . S
C452 H455 0.928 . S
C453 N449 1.345 . S
C453 C454 1.371 . S
C453 H456 0.931 . S
C454 C450 1.391 . S
C454 C453 1.371 . S
C454 H461 0.930 . S
H455 C452 0.928 . S
H456 C453 0.931 . S
H457 C433 0.930 . S
H458 C430 0.930 . S
H459 C439 0.930 1_556 S
H460 C451 0.929 . S
H461 C454 0.930 . S
C462 C463 1.351 . S
C462 N465 1.368 . S
C462 H467 0.931 . S
C463 C462 1.351 . S
C463 N464 1.373 . S
C463 H491 0.930 . S
N464 C463 1.373 . S
N464 C466 1.340 . S
N465 C462 1.368 . S
N465 C466 1.321 . S
N465 Co468 2.135 . S
C466 N464 1.340 . S
C466 N465 1.321 . S
C466 H490 0.930 . S
H467 C462 0.931 . S
Co468 N465 2.135 . S
Co468 N471 2.121 . S
Co468 O476 2.055 . S
Co468 O479 2.039 . S
Co468 N482 2.140 . S
C469 O470 1.227 . S
C469 O479 1.265 . S
O470 C469 1.227 . S
N471 Co468 2.121 . S
N471 C473 1.375 . S
N471 C474 1.313 . S
C472 C473 1.338 . S
C472 N475 1.377 . S
C472 H492 0.930 1_554 S
C473 N471 1.375 . S
C473 C472 1.338 . S
C473 H477 0.931 . S
C474 N471 1.313 . S
C474 N475 1.344 . S
C474 H478 0.930 . S
N475 C472 1.377 . S
N475 C474 1.344 . S
O476 Co468 2.055 . S
O476 C480 1.253 . S
H477 C473 0.931 . S
H478 C474 0.930 . S
O479 Co468 2.039 . S
O479 C469 1.265 . S
C480 O476 1.253 . S
C480 O481 1.227 . S
O481 C480 1.227 . S
N482 Co468 2.140 . S
N482 C485 1.346 . S
N482 C486 1.345 . S
C483 C484 1.387 . S
C483 C487 1.391 . S
C484 C483 1.387 . S
C484 C485 1.369 . S
C484 H493 0.929 . S
C485 N482 1.346 . S
C485 C484 1.369 . S
C485 H488 0.928 . S
C486 N482 1.345 . S
C486 C487 1.371 . S
C486 H489 0.931 . S
C487 C483 1.391 . S
C487 C486 1.371 . S
C487 H494 0.930 . S
H488 C485 0.928 . S
H489 C486 0.931 . S
H490 C466 0.930 . S
H491 C463 0.930 . S
H492 C472 0.930 1_556 S
H493 C484 0.929 . S
H494 C487 0.930 . S
C495 C496 1.351 . S
C495 N498 1.368 . S
C495 H500 0.931 . S
C496 C495 1.351 . S
C496 N497 1.373 . S
C496 H524 0.930 . S
N497 C496 1.373 . S
N497 C499 1.340 . S
N498 C495 1.368 . S
N498 C499 1.321 . S
N498 Co501 2.135 . S
C499 N497 1.340 . S
C499 N498 1.321 . S
C499 H523 0.930 . S
H500 C495 0.931 . S
Co501 N498 2.135 . S
Co501 N504 2.121 1_556 S
Co501 O509 2.055 . S
Co501 O512 2.039 . S
Co501 N515 2.140 . S
C502 O503 1.227 . S
C502 O512 1.265 1_554 S
O503 C502 1.227 . S
N504 Co501 2.121 1_554 S
N504 C506 1.375 . S
N504 C507 1.313 . S
C505 C506 1.338 . S
C505 N508 1.377 . S
C505 H525 0.930 . S
C506 N504 1.375 . S
C506 C505 1.338 . S
C506 H510 0.931 . S
C507 N504 1.313 . S
C507 N508 1.344 . S
C507 H511 0.930 1_554 S
N508 C505 1.377 . S
N508 C507 1.344 . S
O509 Co501 2.055 . S
O509 C513 1.253 . S
H510 C506 0.931 . S
H511 C507 0.930 1_556 S
O512 Co501 2.039 . S
O512 C502 1.265 1_556 S
C513 O509 1.253 . S
C513 O514 1.227 . S
O514 C513 1.227 . S
N515 Co501 2.140 . S
N515 C518 1.346 . S
N515 C519 1.345 . S
C516 C517 1.387 . S
C516 C520 1.391 . S
C517 C516 1.387 . S
C517 C518 1.369 . S
C517 H526 0.929 . S
C518 N515 1.346 . S
C518 C517 1.369 . S
C518 H521 0.928 . S
C519 N515 1.345 . S
C519 C520 1.371 . S
C519 H522 0.931 . S
C520 C516 1.391 . S
C520 C519 1.371 . S
C520 H527 0.930 . S
H521 C518 0.928 . S
H522 C519 0.931 . S
H523 C499 0.930 . S
H524 C496 0.930 . S
H525 C505 0.930 . S
H526 C517 0.929 . S
H527 C520 0.930 . S
C528 C529 1.351 . S
C528 N531 1.368 . S
C528 H533 0.931 . S
C529 C528 1.351 . S
C529 N530 1.373 . S
C529 H557 0.930 . S
N530 C529 1.373 . S
N530 C532 1.340 . S
N531 C528 1.368 . S
N531 C532 1.321 . S
N531 Co534 2.135 . S
C532 N530 1.340 . S
C532 N531 1.321 . S
C532 H556 0.930 . S
H533 C528 0.931 . S
Co534 N531 2.135 . S
Co534 N537 2.121 1_556 S
Co534 O542 2.055 . S
Co534 O545 2.039 . S
Co534 N548 2.140 . S
C535 O536 1.227 . S
C535 O545 1.265 1_554 S
O536 C535 1.227 . S
N537 Co534 2.121 1_554 S
N537 C539 1.375 . S
N537 C540 1.313 . S
C538 C539 1.338 . S
C538 N541 1.377 . S
C538 H558 0.930 . S
C539 N537 1.375 . S
C539 C538 1.338 . S
C539 H543 0.931 . S
C540 N537 1.313 . S
C540 N541 1.344 . S
C540 H544 0.930 1_554 S
N541 C538 1.377 . S
N541 C540 1.344 . S
O542 Co534 2.055 . S
O542 C546 1.253 . S
H543 C539 0.931 . S
H544 C540 0.930 1_556 S
O545 Co534 2.039 . S
O545 C535 1.265 1_556 S
C546 O542 1.253 . S
C546 O547 1.227 . S
O547 C546 1.227 . S
N548 Co534 2.140 . S
N548 C551 1.346 . S
N548 C552 1.345 . S
C549 C550 1.387 . S
C549 C553 1.391 . S
C550 C549 1.387 . S
C550 C551 1.369 . S
C550 H559 0.929 . S
C551 N548 1.346 . S
C551 C550 1.369 . S
C551 H554 0.928 . S
C552 N548 1.345 . S
C552 C553 1.371 . S
C552 H555 0.931 . S
C553 C549 1.391 . S
C553 C552 1.371 . S
C553 H560 0.930 . S
H554 C551 0.928 . S
H555 C552 0.931 . S
H556 C532 0.930 . S
H557 C529 0.930 . S
H558 C538 0.930 . S
H559 C550 0.929 . S
H560 C553 0.930 . S
C561 C562 1.351 . S
C561 N564 1.368 . S
C561 H566 0.931 . S
C562 C561 1.351 . S
C562 N563 1.373 . S
C562 H590 0.930 . S
N563 C562 1.373 . S
N563 C565 1.340 . S
N564 C561 1.368 . S
N564 C565 1.321 . S
N564 Co567 2.135 . S
C565 N563 1.340 . S
C565 N564 1.321 . S
C565 H589 0.930 . S
H566 C561 0.931 . S
Co567 N564 2.135 . S
Co567 N570 2.121 1_556 S
Co567 O575 2.055 . S
Co567 O578 2.039 . S
Co567 N581 2.140 . S
C568 O569 1.227 . S
C568 O578 1.265 1_554 S
O569 C568 1.227 . S
N570 Co567 2.121 1_554 S
N570 C572 1.375 . S
N570 C573 1.313 . S
C571 C572 1.338 . S
C571 N574 1.377 . S
C571 H591 0.930 . S
C572 N570 1.375 . S
C572 C571 1.338 . S
C572 H576 0.931 . S
C573 N570 1.313 . S
C573 N574 1.344 . S
C573 H577 0.930 1_554 S
N574 C571 1.377 . S
N574 C573 1.344 . S
O575 Co567 2.055 . S
O575 C579 1.253 . S
H576 C572 0.931 . S
H577 C573 0.930 1_556 S
O578 Co567 2.039 . S
O578 C568 1.265 1_556 S
C579 O575 1.253 . S
C579 O580 1.227 . S
O580 C579 1.227 . S
N581 Co567 2.140 . S
N581 C584 1.346 . S
N581 C585 1.345 . S
C582 C583 1.387 . S
C582 C586 1.391 . S
C583 C582 1.387 . S
C583 C584 1.369 . S
C583 H592 0.929 . S
C584 N581 1.346 . S
C584 C583 1.369 . S
C584 H587 0.928 . S
C585 N581 1.345 . S
C585 C586 1.371 . S
C585 H588 0.931 . S
C586 C582 1.391 . S
C586 C585 1.371 . S
C586 H593 0.930 . S
H587 C584 0.928 . S
H588 C585 0.931 . S
H589 C565 0.930 . S
H590 C562 0.930 . S
H591 C571 0.930 . S
H592 C583 0.929 . S
H593 C586 0.930 . S
C594 C595 1.351 . S
C594 N597 1.368 . S
C594 H599 0.931 . S
C595 C594 1.351 . S
C595 N596 1.373 . S
C595 H623 0.930 . S
N596 C595 1.373 . S
N596 C598 1.340 . S
N597 C594 1.368 . S
N597 C598 1.321 . S
N597 Co600 2.135 . S
C598 N596 1.340 . S
C598 N597 1.321 . S
C598 H622 0.930 . S
H599 C594 0.931 . S
Co600 N597 2.135 . S
Co600 N603 2.121 . S
Co600 O608 2.055 . S
Co600 O611 2.039 . S
Co600 N614 2.140 . S
C601 O602 1.227 . S
C601 O611 1.265 . S
O602 C601 1.227 . S
N603 Co600 2.121 . S
N603 C605 1.375 . S
N603 C606 1.313 . S
C604 C605 1.338 . S
C604 N607 1.377 . S
C604 H624 0.930 1_554 S
C605 N603 1.375 . S
C605 C604 1.338 . S
C605 H609 0.931 . S
C606 N603 1.313 . S
C606 N607 1.344 . S
C606 H610 0.930 . S
N607 C604 1.377 . S
N607 C606 1.344 . S
O608 Co600 2.055 . S
O608 C612 1.253 . S
H609 C605 0.931 . S
H610 C606 0.930 . S
O611 Co600 2.039 . S
O611 C601 1.265 . S
C612 O608 1.253 . S
C612 O613 1.227 . S
O613 C612 1.227 . S
N614 Co600 2.140 . S
N614 C617 1.346 . S
N614 C618 1.345 . S
C615 C616 1.387 . S
C615 C619 1.391 . S
C616 C615 1.387 . S
C616 C617 1.369 . S
C616 H625 0.929 . S
C617 N614 1.346 . S
C617 C616 1.369 . S
C617 H620 0.928 . S
C618 N614 1.345 . S
C618 C619 1.371 . S
C618 H621 0.931 . S
C619 C615 1.391 . S
C619 C618 1.371 . S
C619 H626 0.930 . S
H620 C617 0.928 . S
H621 C618 0.931 . S
H622 C598 0.930 . S
H623 C595 0.930 . S
H624 C604 0.930 1_556 S
H625 C616 0.929 . S
H626 C619 0.930 . S
C627 C628 1.351 . S
C627 N630 1.368 . S
C627 H632 0.931 . S
C628 C627 1.351 . S
C628 N629 1.373 . S
C628 H656 0.930 . S
N629 C628 1.373 . S
N629 C631 1.340 . S
N630 C627 1.368 . S
N630 C631 1.321 . S
N630 Co633 2.135 . S
C631 N629 1.340 . S
C631 N630 1.321 . S
C631 H655 0.930 . S
H632 C627 0.931 . S
Co633 N630 2.135 . S
Co633 N636 2.121 . S
Co633 O641 2.055 . S
Co633 O644 2.039 . S
Co633 N647 2.140 . S
C634 O635 1.227 . S
C634 O644 1.265 . S
O635 C634 1.227 . S
N636 Co633 2.121 . S
N636 C638 1.375 . S
N636 C639 1.313 . S
C637 C638 1.338 . S
C637 N640 1.377 . S
C637 H657 0.930 1_554 S
C638 N636 1.375 . S
C638 C637 1.338 . S
C638 H642 0.931 . S
C639 N636 1.313 . S
C639 N640 1.344 . S
C639 H643 0.930 . S
N640 C637 1.377 . S
N640 C639 1.344 . S
O641 Co633 2.055 . S
O641 C645 1.253 . S
H642 C638 0.931 . S
H643 C639 0.930 . S
O644 Co633 2.039 . S
O644 C634 1.265 . S
C645 O641 1.253 . S
C645 O646 1.227 . S
O646 C645 1.227 . S
N647 Co633 2.140 . S
N647 C650 1.346 . S
N647 C651 1.345 . S
C648 C649 1.387 . S
C648 C652 1.391 . S
C649 C648 1.387 . S
C649 C650 1.369 . S
C649 H658 0.929 . S
C650 N647 1.346 . S
C650 C649 1.369 . S
C650 H653 0.928 . S
C651 N647 1.345 . S
C651 C652 1.371 . S
C651 H654 0.931 . S
C652 C648 1.391 . S
C652 C651 1.371 . S
C652 H659 0.930 . S
H653 C650 0.928 . S
H654 C651 0.931 . S
H655 C631 0.930 . S
H656 C628 0.930 . S
H657 C637 0.930 1_556 S
H658 C649 0.929 . S
H659 C652 0.930 . S
C660 C661 1.351 . S
C660 N663 1.368 . S
C660 H665 0.931 . S
C661 C660 1.351 . S
C661 N662 1.373 . S
C661 H689 0.930 . S
N662 C661 1.373 . S
N662 C664 1.340 . S
N663 C660 1.368 . S
N663 C664 1.321 . S
N663 Co666 2.135 . S
C664 N662 1.340 . S
C664 N663 1.321 . S
C664 H688 0.930 . S
H665 C660 0.931 . S
Co666 N663 2.135 . S
Co666 N669 2.121 . S
Co666 O674 2.055 . S
Co666 O677 2.039 . S
Co666 N680 2.140 . S
C667 O668 1.227 . S
C667 O677 1.265 . S
O668 C667 1.227 . S
N669 Co666 2.121 . S
N669 C671 1.375 . S
N669 C672 1.313 . S
C670 C671 1.338 . S
C670 N673 1.377 . S
C670 H690 0.930 1_554 S
C671 N669 1.375 . S
C671 C670 1.338 . S
C671 H675 0.931 . S
C672 N669 1.313 . S
C672 N673 1.344 . S
C672 H676 0.930 . S
N673 C670 1.377 . S
N673 C672 1.344 . S
O674 Co666 2.055 . S
O674 C678 1.253 . S
H675 C671 0.931 . S
H676 C672 0.930 . S
O677 Co666 2.039 . S
O677 C667 1.265 . S
C678 O674 1.253 . S
C678 O679 1.227 . S
O679 C678 1.227 . S
N680 Co666 2.140 . S
N680 C683 1.346 . S
N680 C684 1.345 . S
C681 C682 1.387 . S
C681 C685 1.391 . S
C682 C681 1.387 . S
C682 C683 1.369 . S
C682 H691 0.929 . S
C683 N680 1.346 . S
C683 C682 1.369 . S
C683 H686 0.928 . S
C684 N680 1.345 . S
C684 C685 1.371 . S
C684 H687 0.931 . S
C685 C681 1.391 . S
C685 C684 1.371 . S
C685 H692 0.930 . S
H686 C683 0.928 . S
H687 C684 0.931 . S
H688 C664 0.930 . S
H689 C661 0.930 . S
H690 C670 0.930 1_556 S
H691 C682 0.929 . S
H692 C685 0.930 . S
C693 C694 1.351 . S
C693 N696 1.368 . S
C693 H698 0.931 . S
C694 C693 1.351 . S
C694 N695 1.373 . S
C694 H722 0.930 . S
N695 C694 1.373 . S
N695 C697 1.340 . S
N696 C693 1.368 . S
N696 C697 1.321 . S
N696 Co699 2.135 . S
C697 N695 1.340 . S
C697 N696 1.321 . S
C697 H721 0.930 . S
H698 C693 0.931 . S
Co699 N696 2.135 . S
Co699 N702 2.121 1_556 S
Co699 O707 2.055 . S
Co699 O710 2.039 . S
Co699 N713 2.140 . S
C700 O701 1.227 1_554 S
C700 O710 1.265 1_554 S
O701 C700 1.227 1_556 S
N702 Co699 2.121 1_554 S
N702 C704 1.375 . S
N702 C705 1.313 . S
C703 C704 1.338 . S
C703 N706 1.377 . S
C703 H723 0.930 . S
C704 N702 1.375 . S
C704 C703 1.338 . S
C704 H708 0.931 . S
C705 N702 1.313 . S
C705 N706 1.344 . S
C705 H709 0.930 1_554 S
N706 C703 1.377 . S
N706 C705 1.344 . S
O707 Co699 2.055 . S
O707 C711 1.253 . S
H708 C704 0.931 . S
H709 C705 0.930 1_556 S
O710 Co699 2.039 . S
O710 C700 1.265 1_556 S
C711 O707 1.253 . S
C711 O712 1.227 . S
O712 C711 1.227 . S
N713 Co699 2.140 . S
N713 C716 1.346 . S
N713 C717 1.345 . S
C714 C715 1.387 . S
C714 C718 1.391 . S
C715 C714 1.387 . S
C715 C716 1.369 . S
C715 H724 0.929 . S
C716 N713 1.346 . S
C716 C715 1.369 . S
C716 H719 0.928 . S
C717 N713 1.345 . S
C717 C718 1.371 . S
C717 H720 0.931 . S
C718 C714 1.391 . S
C718 C717 1.371 . S
C718 H725 0.930 . S
H719 C716 0.928 . S
H720 C717 0.931 . S
H721 C697 0.930 . S
H722 C694 0.930 . S
H723 C703 0.930 . S
H724 C715 0.929 . S
H725 C718 0.930 . S
C726 C727 1.351 . S
C726 N729 1.368 . S
C726 H731 0.931 . S
C727 C726 1.351 . S
C727 N728 1.373 . S
C727 H755 0.930 . S
N728 C727 1.373 . S
N728 C730 1.340 . S
N729 C726 1.368 . S
N729 C730 1.321 . S
N729 Co732 2.135 . S
C730 N728 1.340 . S
C730 N729 1.321 . S
C730 H754 0.930 . S
H731 C726 0.931 . S
Co732 N729 2.135 . S
Co732 N735 2.121 1_556 S
Co732 O740 2.055 . S
Co732 O743 2.039 . S
Co732 N746 2.140 . S
C733 O734 1.227 1_554 S
C733 O743 1.265 1_554 S
O734 C733 1.227 1_556 S
N735 Co732 2.121 1_554 S
N735 C737 1.375 . S
N735 C738 1.313 . S
C736 C737 1.338 . S
C736 N739 1.377 . S
C736 H756 0.930 . S
C737 N735 1.375 . S
C737 C736 1.338 . S
C737 H741 0.931 . S
C738 N735 1.313 . S
C738 N739 1.344 . S
C738 H742 0.930 1_554 S
N739 C736 1.377 . S
N739 C738 1.344 . S
O740 Co732 2.055 . S
O740 C744 1.253 . S
H741 C737 0.931 . S
H742 C738 0.930 1_556 S
O743 Co732 2.039 . S
O743 C733 1.265 1_556 S
C744 O740 1.253 . S
C744 O745 1.227 . S
O745 C744 1.227 . S
N746 Co732 2.140 . S
N746 C749 1.346 . S
N746 C750 1.345 . S
C747 C748 1.387 . S
C747 C751 1.391 . S
C748 C747 1.387 . S
C748 C749 1.369 . S
C748 H757 0.929 . S
C749 N746 1.346 . S
C749 C748 1.369 . S
C749 H752 0.928 . S
C750 N746 1.345 . S
C750 C751 1.371 . S
C750 H753 0.931 . S
C751 C747 1.391 . S
C751 C750 1.371 . S
C751 H758 0.930 . S
H752 C749 0.928 . S
H753 C750 0.931 . S
H754 C730 0.930 . S
H755 C727 0.930 . S
H756 C736 0.930 . S
H757 C748 0.929 . S
H758 C751 0.930 . S
C759 C760 1.351 . S
C759 N762 1.368 . S
C759 H764 0.931 . S
C760 C759 1.351 . S
C760 N761 1.373 . S
C760 H788 0.930 . S
N761 C760 1.373 . S
N761 C763 1.340 . S
N762 C759 1.368 . S
N762 C763 1.321 . S
N762 Co765 2.135 . S
C763 N761 1.340 . S
C763 N762 1.321 . S
C763 H787 0.930 . S
H764 C759 0.931 . S
Co765 N762 2.135 . S
Co765 N768 2.121 1_556 S
Co765 O773 2.055 . S
Co765 O776 2.039 . S
Co765 N779 2.140 . S
C766 O767 1.227 1_554 S
C766 O776 1.265 1_554 S
O767 C766 1.227 1_556 S
N768 Co765 2.121 1_554 S
N768 C770 1.375 . S
N768 C771 1.313 . S
C769 C770 1.338 . S
C769 N772 1.377 . S
C769 H789 0.930 . S
C770 N768 1.375 . S
C770 C769 1.338 . S
C770 H774 0.931 . S
C771 N768 1.313 . S
C771 N772 1.344 . S
C771 H775 0.930 1_554 S
N772 C769 1.377 . S
N772 C771 1.344 . S
O773 Co765 2.055 . S
O773 C777 1.253 . S
H774 C770 0.931 . S
H775 C771 0.930 1_556 S
O776 Co765 2.039 . S
O776 C766 1.265 1_556 S
C777 O773 1.253 . S
C777 O778 1.227 . S
O778 C777 1.227 . S
N779 Co765 2.140 . S
N779 C782 1.346 . S
N779 C783 1.345 . S
C780 C781 1.387 . S
C780 C784 1.391 . S
C781 C780 1.387 . S
C781 C782 1.369 . S
C781 H790 0.929 . S
C782 N779 1.346 . S
C782 C781 1.369 . S
C782 H785 0.928 . S
C783 N779 1.345 . S
C783 C784 1.371 . S
C783 H786 0.931 . S
C784 C780 1.391 . S
C784 C783 1.371 . S
C784 H791 0.930 . S
H785 C782 0.928 . S
H786 C783 0.931 . S
H787 C763 0.930 . S
H788 C760 0.930 . S
H789 C769 0.930 . S
H790 C781 0.929 . S
H791 C784 0.930 . S
C792 C793 1.351 1_556 S
C792 N795 1.368 . S
C792 H797 0.931 . S
C793 C792 1.351 1_554 S
C793 N794 1.373 1_554 S
C793 H821 0.930 . S
N794 C793 1.373 1_556 S
N794 C796 1.340 . S
N795 C792 1.368 . S
N795 C796 1.321 . S
N795 Co798 2.135 . S
C796 N794 1.340 . S
C796 N795 1.321 . S
C796 H820 0.930 . S
H797 C792 0.931 . S
Co798 N795 2.135 . S
Co798 N801 2.121 . S
Co798 O806 2.055 . S
Co798 O809 2.039 . S
Co798 N812 2.140 . S
C799 O800 1.227 . S
C799 O809 1.265 . S
O800 C799 1.227 . S
N801 Co798 2.121 . S
N801 C803 1.375 . S
N801 C804 1.313 . S
C802 C803 1.338 . S
C802 N805 1.377 . S
C802 H822 0.930 . S
C803 N801 1.375 . S
C803 C802 1.338 . S
C803 H807 0.931 . S
C804 N801 1.313 . S
C804 N805 1.344 . S
C804 H808 0.930 . S
N805 C802 1.377 . S
N805 C804 1.344 . S
O806 Co798 2.055 . S
O806 C810 1.253 . S
H807 C803 0.931 . S
H808 C804 0.930 . S
O809 Co798 2.039 . S
O809 C799 1.265 . S
C810 O806 1.253 . S
C810 O811 1.227 . S
O811 C810 1.227 . S
N812 Co798 2.140 . S
N812 C815 1.346 . S
N812 C816 1.345 . S
C813 C814 1.387 . S
C813 C817 1.391 . S
C814 C813 1.387 . S
C814 C815 1.369 . S
C814 H823 0.929 . S
C815 N812 1.346 . S
C815 C814 1.369 . S
C815 H818 0.928 . S
C816 N812 1.345 . S
C816 C817 1.371 . S
C816 H819 0.931 . S
C817 C813 1.391 . S
C817 C816 1.371 . S
C817 H824 0.930 . S
H818 C815 0.928 . S
H819 C816 0.931 . S
H820 C796 0.930 . S
H821 C793 0.930 . S
H822 C802 0.930 . S
H823 C814 0.929 . S
H824 C817 0.930 . S
C825 C826 1.351 1_556 S
C825 N828 1.368 . S
C825 H830 0.931 . S
C826 C825 1.351 1_554 S
C826 N827 1.373 1_554 S
C826 H854 0.930 . S
N827 C826 1.373 1_556 S
N827 C829 1.340 . S
N828 C825 1.368 . S
N828 C829 1.321 . S
N828 Co831 2.135 . S
C829 N827 1.340 . S
C829 N828 1.321 . S
C829 H853 0.930 . S
H830 C825 0.931 . S
Co831 N828 2.135 . S
Co831 N834 2.121 . S
Co831 O839 2.055 . S
Co831 O842 2.039 . S
Co831 N845 2.140 . S
C832 O833 1.227 . S
C832 O842 1.265 . S
O833 C832 1.227 . S
N834 Co831 2.121 . S
N834 C836 1.375 . S
N834 C837 1.313 . S
C835 C836 1.338 . S
C835 N838 1.377 . S
C835 H855 0.930 . S
C836 N834 1.375 . S
C836 C835 1.338 . S
C836 H840 0.931 . S
C837 N834 1.313 . S
C837 N838 1.344 . S
C837 H841 0.930 . S
N838 C835 1.377 . S
N838 C837 1.344 . S
O839 Co831 2.055 . S
O839 C843 1.253 . S
H840 C836 0.931 . S
H841 C837 0.930 . S
O842 Co831 2.039 . S
O842 C832 1.265 . S
C843 O839 1.253 . S
C843 O844 1.227 . S
O844 C843 1.227 . S
N845 Co831 2.140 . S
N845 C848 1.346 . S
N845 C849 1.345 . S
C846 C847 1.387 . S
C846 C850 1.391 . S
C847 C846 1.387 . S
C847 C848 1.369 . S
C847 H856 0.929 . S
C848 N845 1.346 . S
C848 C847 1.369 . S
C848 H851 0.928 . S
C849 N845 1.345 . S
C849 C850 1.371 . S
C849 H852 0.931 . S
C850 C846 1.391 . S
C850 C849 1.371 . S
C850 H857 0.930 . S
H851 C848 0.928 . S
H852 C849 0.931 . S
H853 C829 0.930 . S
H854 C826 0.930 . S
H855 C835 0.930 . S
H856 C847 0.929 . S
H857 C850 0.930 . S
C858 C859 1.351 1_556 S
C858 N861 1.368 . S
C858 H863 0.931 . S
C859 C858 1.351 1_554 S
C859 N860 1.373 1_554 S
C859 H887 0.930 . S
N860 C859 1.373 1_556 S
N860 C862 1.340 . S
N861 C858 1.368 . S
N861 C862 1.321 . S
N861 Co864 2.135 . S
C862 N860 1.340 . S
C862 N861 1.321 . S
C862 H886 0.930 . S
H863 C858 0.931 . S
Co864 N861 2.135 . S
Co864 N867 2.121 . S
Co864 O872 2.055 . S
Co864 O875 2.039 . S
Co864 N878 2.140 . S
C865 O866 1.227 . S
C865 O875 1.265 . S
O866 C865 1.227 . S
N867 Co864 2.121 . S
N867 C869 1.375 . S
N867 C870 1.313 . S
C868 C869 1.338 . S
C868 N871 1.377 . S
C868 H888 0.930 . S
C869 N867 1.375 . S
C869 C868 1.338 . S
C869 H873 0.931 . S
C870 N867 1.313 . S
C870 N871 1.344 . S
C870 H874 0.930 . S
N871 C868 1.377 . S
N871 C870 1.344 . S
O872 Co864 2.055 . S
O872 C876 1.253 . S
H873 C869 0.931 . S
H874 C870 0.930 . S
O875 Co864 2.039 . S
O875 C865 1.265 . S
C876 O872 1.253 . S
C876 O877 1.227 . S
O877 C876 1.227 . S
N878 Co864 2.140 . S
N878 C881 1.346 . S
N878 C882 1.345 . S
C879 C880 1.387 . S
C879 C883 1.391 . S
C880 C879 1.387 . S
C880 C881 1.369 . S
C880 H889 0.929 . S
C881 N878 1.346 . S
C881 C880 1.369 . S
C881 H884 0.928 . S
C882 N878 1.345 . S
C882 C883 1.371 . S
C882 H885 0.931 . S
C883 C879 1.391 . S
C883 C882 1.371 . S
C883 H890 0.930 . S
H884 C881 0.928 . S
H885 C882 0.931 . S
H886 C862 0.930 . S
H887 C859 0.930 . S
H888 C868 0.930 . S
H889 C880 0.929 . S
H890 C883 0.930 . S
C891 C892 1.351 . S
C891 N894 1.368 1_556 S
C891 H896 0.931 . S
C892 C891 1.351 . S
C892 N893 1.373 . S
C892 H920 0.930 . S
N893 C892 1.373 . S
N893 C895 1.340 1_556 S
N894 C891 1.368 1_554 S
N894 C895 1.321 . S
N894 Co897 2.135 . S
C895 N893 1.340 1_554 S
C895 N894 1.321 . S
C895 H919 0.930 . S
H896 C891 0.931 . S
Co897 N894 2.135 . S
Co897 N900 2.121 . S
Co897 O905 2.055 . S
Co897 O908 2.039 . S
Co897 N911 2.140 . S
C898 O899 1.227 . S
C898 O908 1.265 . S
O899 C898 1.227 . S
N900 Co897 2.121 . S
N900 C902 1.375 . S
N900 C903 1.313 . S
C901 C902 1.338 . S
C901 N904 1.377 . S
C901 H921 0.930 . S
C902 N900 1.375 . S
C902 C901 1.338 . S
C902 H906 0.931 . S
C903 N900 1.313 . S
C903 N904 1.344 . S
C903 H907 0.930 . S
N904 C901 1.377 . S
N904 C903 1.344 . S
O905 Co897 2.055 . S
O905 C909 1.253 . S
H906 C902 0.931 . S
H907 C903 0.930 . S
O908 Co897 2.039 . S
O908 C898 1.265 . S
C909 O905 1.253 . S
C909 O910 1.227 . S
O910 C909 1.227 . S
N911 Co897 2.140 . S
N911 C914 1.346 . S
N911 C915 1.345 . S
C912 C913 1.387 . S
C912 C916 1.391 . S
C913 C912 1.387 . S
C913 C914 1.369 . S
C913 H922 0.929 . S
C914 N911 1.346 . S
C914 C913 1.369 . S
C914 H917 0.928 . S
C915 N911 1.345 . S
C915 C916 1.371 . S
C915 H918 0.931 . S
C916 C912 1.391 . S
C916 C915 1.371 . S
C916 H923 0.930 . S
H917 C914 0.928 . S
H918 C915 0.931 . S
H919 C895 0.930 . S
H920 C892 0.930 . S
H921 C901 0.930 . S
H922 C913 0.929 . S
H923 C916 0.930 . S
C924 C925 1.351 . S
C924 N927 1.368 1_556 S
C924 H929 0.931 . S
C925 C924 1.351 . S
C925 N926 1.373 . S
C925 H953 0.930 . S
N926 C925 1.373 . S
N926 C928 1.340 1_556 S
N927 C924 1.368 1_554 S
N927 C928 1.321 . S
N927 Co930 2.135 . S
C928 N926 1.340 1_554 S
C928 N927 1.321 . S
C928 H952 0.930 . S
H929 C924 0.931 . S
Co930 N927 2.135 . S
Co930 N933 2.121 . S
Co930 O938 2.055 . S
Co930 O941 2.039 . S
Co930 N944 2.140 . S
C931 O932 1.227 . S
C931 O941 1.265 . S
O932 C931 1.227 . S
N933 Co930 2.121 . S
N933 C935 1.375 . S
N933 C936 1.313 . S
C934 C935 1.338 . S
C934 N937 1.377 . S
C934 H954 0.930 . S
C935 N933 1.375 . S
C935 C934 1.338 . S
C935 H939 0.931 . S
C936 N933 1.313 . S
C936 N937 1.344 . S
C936 H940 0.930 . S
N937 C934 1.377 . S
N937 C936 1.344 . S
O938 Co930 2.055 . S
O938 C942 1.253 . S
H939 C935 0.931 . S
H940 C936 0.930 . S
O941 Co930 2.039 . S
O941 C931 1.265 . S
C942 O938 1.253 . S
C942 O943 1.227 . S
O943 C942 1.227 . S
N944 Co930 2.140 . S
N944 C947 1.346 . S
N944 C948 1.345 . S
C945 C946 1.387 . S
C945 C949 1.391 . S
C946 C945 1.387 . S
C946 C947 1.369 . S
C946 H955 0.929 . S
C947 N944 1.346 . S
C947 C946 1.369 . S
C947 H950 0.928 . S
C948 N944 1.345 . S
C948 C949 1.371 . S
C948 H951 0.931 . S
C949 C945 1.391 . S
C949 C948 1.371 . S
C949 H956 0.930 . S
H950 C947 0.928 . S
H951 C948 0.931 . S
H952 C928 0.930 . S
H953 C925 0.930 . S
H954 C934 0.930 . S
H955 C946 0.929 . S
H956 C949 0.930 . S
C957 C958 1.351 . S
C957 N960 1.368 1_556 S
C957 H962 0.931 . S
C958 C957 1.351 . S
C958 N959 1.373 . S
C958 H986 0.930 . S
N959 C958 1.373 . S
N959 C961 1.340 1_556 S
N960 C957 1.368 1_554 S
N960 C961 1.321 . S
N960 Co963 2.135 . S
C961 N959 1.340 1_554 S
C961 N960 1.321 . S
C961 H985 0.930 . S
H962 C957 0.931 . S
Co963 N960 2.135 . S
Co963 N966 2.121 . S
Co963 O971 2.055 . S
Co963 O974 2.039 . S
Co963 N977 2.140 . S
C964 O965 1.227 . S
C964 O974 1.265 . S
O965 C964 1.227 . S
N966 Co963 2.121 . S
N966 C968 1.375 . S
N966 C969 1.313 . S
C967 C968 1.338 . S
C967 N970 1.377 . S
C967 H987 0.930 . S
C968 N966 1.375 . S
C968 C967 1.338 . S
C968 H972 0.931 . S
C969 N966 1.313 . S
C969 N970 1.344 . S
C969 H973 0.930 . S
N970 C967 1.377 . S
N970 C969 1.344 . S
O971 Co963 2.055 . S
O971 C975 1.253 . S
H972 C968 0.931 . S
H973 C969 0.930 . S
O974 Co963 2.039 . S
O974 C964 1.265 . S
C975 O971 1.253 . S
C975 O976 1.227 . S
O976 C975 1.227 . S
N977 Co963 2.140 . S
N977 C980 1.346 . S
N977 C981 1.345 . S
C978 C979 1.387 . S
C978 C982 1.391 . S
C979 C978 1.387 . S
C979 C980 1.369 . S
C979 H988 0.929 . S
C980 N977 1.346 . S
C980 C979 1.369 . S
C980 H983 0.928 . S
C981 N977 1.345 . S
C981 C982 1.371 . S
C981 H984 0.931 . S
C982 C978 1.391 . S
C982 C981 1.371 . S
C982 H989 0.930 . S
H983 C980 0.928 . S
H984 C981 0.931 . S
H985 C961 0.930 . S
H986 C958 0.930 . S
H987 C967 0.930 . S
H988 C979 0.929 . S
H989 C982 0.930 . S
C990 C991 1.351 1_556 S
C990 N993 1.368 . S
C990 H995 0.931 1_556 S
C991 C990 1.351 1_554 S
C991 N992 1.374 . S
C991 H1019 0.930 . S
N992 C991 1.374 . S
N992 C994 1.339 1_554 S
N993 C990 1.368 . S
N993 C994 1.321 . S
N993 Co996 2.135 . S
C994 N992 1.339 1_556 S
C994 N993 1.321 . S
C994 H1018 0.930 . S
H995 C990 0.931 1_554 S
Co996 N993 2.135 . S
Co996 N999 2.121 . S
Co996 O1004 2.055 . S
Co996 O1007 2.039 . S
Co996 N1010 2.140 . S
C997 O998 1.227 . S
C997 O1007 1.265 . S
O998 C997 1.227 . S
N999 Co996 2.121 . S
N999 C1001 1.375 . S
N999 C1002 1.313 . S
C1000 C1001 1.338 . S
C1000 N1003 1.377 . S
C1000 H1020 0.930 . S
C1001 N999 1.375 . S
C1001 C1000 1.338 . S
C1001 H1005 0.931 . S
C1002 N999 1.313 . S
C1002 N1003 1.344 . S
C1002 H1006 0.930 . S
N1003 C1000 1.377 . S
N1003 C1002 1.344 . S
O1004 Co996 2.055 . S
O1004 C1008 1.253 . S
H1005 C1001 0.931 . S
H1006 C1002 0.930 . S
O1007 Co996 2.039 . S
O1007 C997 1.265 . S
C1008 O1004 1.253 . S
C1008 O1009 1.227 . S
O1009 C1008 1.227 . S
N1010 Co996 2.140 . S
N1010 C1013 1.346 . S
N1010 C1014 1.345 . S
C1011 C1012 1.387 . S
C1011 C1015 1.391 . S
C1012 C1011 1.387 . S
C1012 C1013 1.369 . S
C1012 H1021 0.929 . S
C1013 N1010 1.346 . S
C1013 C1012 1.369 . S
C1013 H1016 0.928 . S
C1014 N1010 1.345 . S
C1014 C1015 1.371 . S
C1014 H1017 0.931 . S
C1015 C1011 1.391 . S
C1015 C1014 1.371 . S
C1015 H1022 0.930 . S
H1016 C1013 0.928 . S
H1017 C1014 0.931 . S
H1018 C994 0.930 . S
H1019 C991 0.930 . S
H1020 C1000 0.930 . S
H1021 C1012 0.929 . S
H1022 C1015 0.930 . S
C1023 C1024 1.351 1_556 S
C1023 N1026 1.368 . S
C1023 H1028 0.931 1_556 S
C1024 C1023 1.351 1_554 S
C1024 N1025 1.373 . S
C1024 H1052 0.930 . S
N1025 C1024 1.373 . S
N1025 C1027 1.340 1_554 S
N1026 C1023 1.368 . S
N1026 C1027 1.321 . S
N1026 Co1029 2.135 . S
C1027 N1025 1.340 1_556 S
C1027 N1026 1.321 . S
C1027 H1051 0.930 . S
H1028 C1023 0.931 1_554 S
Co1029 N1026 2.135 . S
Co1029 N1032 2.121 . S
Co1029 O1037 2.055 . S
Co1029 O1040 2.039 . S
Co1029 N1043 2.140 . S
C1030 O1031 1.227 . S
C1030 O1040 1.265 . S
O1031 C1030 1.227 . S
N1032 Co1029 2.121 . S
N1032 C1034 1.375 . S
N1032 C1035 1.313 . S
C1033 C1034 1.338 . S
C1033 N1036 1.377 . S
C1033 H1053 0.930 . S
C1034 N1032 1.375 . S
C1034 C1033 1.338 . S
C1034 H1038 0.931 . S
C1035 N1032 1.313 . S
C1035 N1036 1.344 . S
C1035 H1039 0.930 . S
N1036 C1033 1.377 . S
N1036 C1035 1.344 . S
O1037 Co1029 2.055 . S
O1037 C1041 1.253 . S
H1038 C1034 0.931 . S
H1039 C1035 0.930 . S
O1040 Co1029 2.039 . S
O1040 C1030 1.265 . S
C1041 O1037 1.253 . S
C1041 O1042 1.227 . S
O1042 C1041 1.227 . S
N1043 Co1029 2.140 . S
N1043 C1046 1.346 . S
N1043 C1047 1.345 . S
C1044 C1045 1.387 . S
C1044 C1048 1.391 . S
C1045 C1044 1.387 . S
C1045 C1046 1.369 . S
C1045 H1054 0.929 . S
C1046 N1043 1.346 . S
C1046 C1045 1.369 . S
C1046 H1049 0.928 . S
C1047 N1043 1.345 . S
C1047 C1048 1.371 . S
C1047 H1050 0.931 . S
C1048 C1044 1.391 . S
C1048 C1047 1.371 . S
C1048 H1055 0.930 . S
H1049 C1046 0.928 . S
H1050 C1047 0.931 . S
H1051 C1027 0.930 . S
H1052 C1024 0.930 . S
H1053 C1033 0.930 . S
H1054 C1045 0.929 . S
H1055 C1048 0.930 . S
C1056 C1057 1.351 1_556 S
C1056 N1059 1.368 . S
C1056 H1061 0.931 1_556 S
C1057 C1056 1.351 1_554 S
C1057 N1058 1.373 . S
C1057 H1085 0.930 . S
N1058 C1057 1.373 . S
N1058 C1060 1.340 1_554 S
N1059 C1056 1.368 . S
N1059 C1060 1.321 . S
N1059 Co1062 2.135 . S
C1060 N1058 1.340 1_556 S
C1060 N1059 1.321 . S
C1060 H1084 0.930 . S
H1061 C1056 0.931 1_554 S
Co1062 N1059 2.135 . S
Co1062 N1065 2.121 . S
Co1062 O1070 2.055 . S
Co1062 O1073 2.039 . S
Co1062 N1076 2.140 . S
C1063 O1064 1.227 . S
C1063 O1073 1.265 . S
O1064 C1063 1.227 . S
N1065 Co1062 2.121 . S
N1065 C1067 1.375 . S
N1065 C1068 1.313 . S
C1066 C1067 1.338 . S
C1066 N1069 1.377 . S
C1066 H1086 0.930 . S
C1067 N1065 1.375 . S
C1067 C1066 1.338 . S
C1067 H1071 0.931 . S
C1068 N1065 1.313 . S
C1068 N1069 1.344 . S
C1068 H1072 0.930 . S
N1069 C1066 1.377 . S
N1069 C1068 1.344 . S
O1070 Co1062 2.055 . S
O1070 C1074 1.253 . S
H1071 C1067 0.931 . S
H1072 C1068 0.930 . S
O1073 Co1062 2.039 . S
O1073 C1063 1.265 . S
C1074 O1070 1.253 . S
C1074 O1075 1.227 . S
O1075 C1074 1.227 . S
N1076 Co1062 2.140 . S
N1076 C1079 1.346 . S
N1076 C1080 1.345 . S
C1077 C1078 1.387 . S
C1077 C1081 1.391 . S
C1078 C1077 1.387 . S
C1078 C1079 1.369 . S
C1078 H1087 0.929 . S
C1079 N1076 1.346 . S
C1079 C1078 1.369 . S
C1079 H1082 0.928 . S
C1080 N1076 1.345 . S
C1080 C1081 1.371 . S
C1080 H1083 0.931 . S
C1081 C1077 1.391 . S
C1081 C1080 1.371 . S
C1081 H1088 0.930 . S
H1082 C1079 0.928 . S
H1083 C1080 0.931 . S
H1084 C1060 0.930 . S
H1085 C1057 0.930 . S
H1086 C1066 0.930 . S
H1087 C1078 0.929 . S
H1088 C1081 0.930 . S
C1089 C1090 1.351 . S
C1089 N1092 1.368 1_556 S
C1089 H1094 0.931 . S
C1090 C1089 1.351 . S
C1090 N1091 1.373 . S
C1090 H1118 0.930 . S
N1091 C1090 1.373 . S
N1091 C1093 1.340 1_556 S
N1092 C1089 1.368 1_554 S
N1092 C1093 1.321 . S
N1092 Co1095 2.135 . S
C1093 N1091 1.340 1_554 S
C1093 N1092 1.321 . S
C1093 H1117 0.930 . S
H1094 C1089 0.931 . S
Co1095 N1092 2.135 . S
Co1095 N1098 2.121 . S
Co1095 O1103 2.055 . S
Co1095 O1106 2.039 . S
Co1095 N1109 2.140 . S
C1096 O1097 1.227 . S
C1096 O1106 1.265 . S
O1097 C1096 1.227 . S
N1098 Co1095 2.121 . S
N1098 C1100 1.375 . S
N1098 C1101 1.313 . S
C1099 C1100 1.338 . S
C1099 N1102 1.377 . S
C1099 H1119 0.930 . S
C1100 N1098 1.375 . S
C1100 C1099 1.338 . S
C1100 H1104 0.931 . S
C1101 N1098 1.313 . S
C1101 N1102 1.344 . S
C1101 H1105 0.930 . S
N1102 C1099 1.377 . S
N1102 C1101 1.344 . S
O1103 Co1095 2.055 . S
O1103 C1107 1.253 . S
H1104 C1100 0.931 . S
H1105 C1101 0.930 . S
O1106 Co1095 2.039 . S
O1106 C1096 1.265 . S
C1107 O1103 1.253 . S
C1107 O1108 1.227 . S
O1108 C1107 1.227 . S
N1109 Co1095 2.140 . S
N1109 C1112 1.346 . S
N1109 C1113 1.345 . S
C1110 C1111 1.387 . S
C1110 C1114 1.391 . S
C1111 C1110 1.387 . S
C1111 C1112 1.369 . S
C1111 H1120 0.929 . S
C1112 N1109 1.346 . S
C1112 C1111 1.369 . S
C1112 H1115 0.928 . S
C1113 N1109 1.345 . S
C1113 C1114 1.371 . S
C1113 H1116 0.931 . S
C1114 C1110 1.391 . S
C1114 C1113 1.371 . S
C1114 H1121 0.930 . S
H1115 C1112 0.928 . S
H1116 C1113 0.931 . S
H1117 C1093 0.930 . S
H1118 C1090 0.930 . S
H1119 C1099 0.930 . S
H1120 C1111 0.929 . S
H1121 C1114 0.930 . S
C1122 C1123 1.351 . S
C1122 N1125 1.368 1_556 S
C1122 H1127 0.931 . S
C1123 C1122 1.351 . S
C1123 N1124 1.373 . S
C1123 H1151 0.930 . S
N1124 C1123 1.373 . S
N1124 C1126 1.340 1_556 S
N1125 C1122 1.368 1_554 S
N1125 C1126 1.321 . S
N1125 Co1128 2.135 . S
C1126 N1124 1.340 1_554 S
C1126 N1125 1.321 . S
C1126 H1150 0.930 . S
H1127 C1122 0.931 . S
Co1128 N1125 2.135 . S
Co1128 N1131 2.121 . S
Co1128 O1136 2.055 . S
Co1128 O1139 2.039 . S
Co1128 N1142 2.140 . S
C1129 O1130 1.227 . S
C1129 O1139 1.265 . S
O1130 C1129 1.227 . S
N1131 Co1128 2.121 . S
N1131 C1133 1.375 . S
N1131 C1134 1.313 . S
C1132 C1133 1.338 . S
C1132 N1135 1.377 . S
C1132 H1152 0.930 . S
C1133 N1131 1.375 . S
C1133 C1132 1.338 . S
C1133 H1137 0.931 . S
C1134 N1131 1.313 . S
C1134 N1135 1.344 . S
C1134 H1138 0.930 . S
N1135 C1132 1.377 . S
N1135 C1134 1.344 . S
O1136 Co1128 2.055 . S
O1136 C1140 1.253 . S
H1137 C1133 0.931 . S
H1138 C1134 0.930 . S
O1139 Co1128 2.039 . S
O1139 C1129 1.265 . S
C1140 O1136 1.253 . S
C1140 O1141 1.227 . S
O1141 C1140 1.227 . S
N1142 Co1128 2.140 . S
N1142 C1145 1.346 . S
N1142 C1146 1.345 . S
C1143 C1144 1.387 . S
C1143 C1147 1.391 . S
C1144 C1143 1.387 . S
C1144 C1145 1.369 . S
C1144 H1153 0.929 . S
C1145 N1142 1.346 . S
C1145 C1144 1.369 . S
C1145 H1148 0.928 . S
C1146 N1142 1.345 . S
C1146 C1147 1.371 . S
C1146 H1149 0.931 . S
C1147 C1143 1.391 . S
C1147 C1146 1.371 . S
C1147 H1154 0.930 . S
H1148 C1145 0.928 . S
H1149 C1146 0.931 . S
H1150 C1126 0.930 . S
H1151 C1123 0.930 . S
H1152 C1132 0.930 . S
H1153 C1144 0.929 . S
H1154 C1147 0.930 . S
C1155 C1156 1.351 . S
C1155 N1158 1.368 1_556 S
C1155 H1160 0.931 . S
C1156 C1155 1.351 . S
C1156 N1157 1.373 . S
C1156 H1184 0.930 . S
N1157 C1156 1.373 . S
N1157 C1159 1.340 1_556 S
N1158 C1155 1.368 1_554 S
N1158 C1159 1.321 . S
N1158 Co1161 2.135 . S
C1159 N1157 1.340 1_554 S
C1159 N1158 1.321 . S
C1159 H1183 0.930 . S
H1160 C1155 0.931 . S
Co1161 N1158 2.135 . S
Co1161 N1164 2.121 . S
Co1161 O1169 2.055 . S
Co1161 O1172 2.039 . S
Co1161 N1175 2.140 . S
C1162 O1163 1.227 . S
C1162 O1172 1.265 . S
O1163 C1162 1.227 . S
N1164 Co1161 2.121 . S
N1164 C1166 1.375 . S
N1164 C1167 1.313 . S
C1165 C1166 1.338 . S
C1165 N1168 1.377 . S
C1165 H1185 0.930 . S
C1166 N1164 1.375 . S
C1166 C1165 1.338 . S
C1166 H1170 0.931 . S
C1167 N1164 1.313 . S
C1167 N1168 1.344 . S
C1167 H1171 0.930 . S
N1168 C1165 1.377 . S
N1168 C1167 1.344 . S
O1169 Co1161 2.055 . S
O1169 C1173 1.253 . S
H1170 C1166 0.931 . S
H1171 C1167 0.930 . S
O1172 Co1161 2.039 . S
O1172 C1162 1.265 . S
C1173 O1169 1.253 . S
C1173 O1174 1.227 . S
O1174 C1173 1.227 . S
N1175 Co1161 2.140 . S
N1175 C1178 1.346 . S
N1175 C1179 1.345 . S
C1176 C1177 1.387 . S
C1176 C1180 1.391 . S
C1177 C1176 1.387 . S
C1177 C1178 1.369 . S
C1177 H1186 0.929 . S
C1178 N1175 1.346 . S
C1178 C1177 1.369 . S
C1178 H1181 0.928 . S
C1179 N1175 1.345 . S
C1179 C1180 1.371 . S
C1179 H1182 0.931 . S
C1180 C1176 1.391 . S
C1180 C1179 1.371 . S
C1180 H1187 0.930 . S
H1181 C1178 0.928 . S
H1182 C1179 0.931 . S
H1183 C1159 0.930 . S
H1184 C1156 0.930 . S
H1185 C1165 0.930 . S
H1186 C1177 0.929 . S
H1187 C1180 0.930 . S
C337 C7 2.949 . S
C370 C40 2.950 . S
C304 C73 2.950 . S
C271 C106 2.950 . S
C205 C139 2.950 . S
C238 C172 2.950 . S
N134 N200 0.874 . S
N233 N167 0.874 . S
N101 N266 0.874 . S
N68 N299 0.874 . S
N332 N2 0.874 . S
N35 N365 0.874 . S
C733 C403 2.950 . S
C436 C766 2.950 . S
C700 C469 2.950 . S
C667 C502 2.950 . S
C601 C535 2.950 . S
C568 C634 2.950 . S
N596 N530 0.874 . S
N563 N629 0.875 . S
N497 N662 0.874 . S
N695 N464 0.874 . S
N728 N398 0.874 . S
N431 N761 0.874 . S
C799 C1129 2.950 . S
C832 C1162 2.950 . S
C865 C1096 2.950 . S
C898 C1063 2.950 . S
C997 C931 2.950 . S
C1030 C964 2.950 . S
N992 N926 0.874 1_554 S
N959 N1025 0.874 1_556 S
N893 N1058 0.874 1_556 S
N1091 N860 0.874 . S
N1124 N794 0.874 . S
N827 N1157 0.874 . S
C117 C18 3.052 . S
C51 C150 3.052 1_545 S
C84 C183 3.052 1_655 S
N310 N211 0.662 . S
N244 N343 0.661 1_565 S
N376 N277 0.661 1_655 S
C414 C513 3.051 . S
C546 C447 3.051 . S
C480 C579 3.051 . S
N607 N706 0.661 . S
N739 N640 0.661 . S
N772 N673 0.661 . S
C810 C909 3.052 1_556 S
C942 C843 3.052 1_554 S
C876 C975 3.052 1_556 S
N1003 N1102 0.661 . S
N1036 N1135 0.661 . S
N1168 N1069 0.661 . S
N112 N13 0.691 . S
N46 N145 0.691 1_545 S
N178 N79 0.691 1_455 S
C315 C216 2.623 . S
C348 C249 2.624 1_545 S
C381 C282 2.624 1_655 S
N409 N508 0.690 . S
N442 N541 0.691 . S
N574 N475 0.691 . S
C612 C711 2.624 . S
C744 C645 2.623 . S
C777 C678 2.623 . S
N805 N904 0.691 . S
N838 N937 0.691 . S
N970 N871 0.691 . S
C1107 C1008 2.623 1_554 S
C1140 C1041 2.623 1_554 S
C1173 C1074 2.623 1_554 S
C21 C549 1.616 . S
C54 C582 1.616 . S
C516 C87 1.616 . S
C879 C120 1.617 . S
C153 C813 1.617 . S
C186 C846 1.617 . S
C1143 C219 1.659 . S
C1176 C252 1.659 . S
C285 C1110 1.659 . S
C681 C318 1.659 . S
C351 C615 1.659 . S
C648 C384 1.659 . S
C945 C417 1.616 1_455 S
C978 C450 1.616 . S
C483 C912 1.616 1_545 S
C1077 C714 1.659 1_565 S
C747 C1011 1.659 1_655 S
C780 C1044 1.659 . S
