# Generated by pormake.
# Topology xfa, (7)-cn, num edge types: 1
# Building blocks:
#     Node 0, Type 0, BuildingBlock: HICVOG_clean_sbu_0, # of connection points: 7
#     Node 1, Type 0, BuildingBlock: HICVOG_clean_sbu_0, # of connection points: 7
#     Node 2, Type 0, BuildingBlock: HICVOG_clean_sbu_0, # of connection points: 7
#     Node 3, Type 0, BuildingBlock: HICVOG_clean_sbu_0, # of connection points: 7
#     Node 4, Type 0, BuildingBlock: HICVOG_clean_sbu_0, # of connection points: 7
#     Node 5, Type 0, BuildingBlock: HICVOG_clean_sbu_0, # of connection points: 7
#     Node 6, Type 0, BuildingBlock: HICVOG_clean_sbu_0, # of connection points: 7
#     Node 7, Type 0, BuildingBlock: HICVOG_clean_sbu_0, # of connection points: 7
#     Edge 8, Type (0, 0), BuildingBlock: OJICUG_clean_linker_0, # of connection points: 2
#     Edge 9, Type (0, 0), BuildingBlock: OJICUG_clean_linker_0, # of connection points: 2
#     Edge 10, Type (0, 0), BuildingBlock: OJICUG_clean_linker_0, # of connection points: 2
#     Edge 11, Type (0, 0), BuildingBlock: OJICUG_clean_linker_0, # of connection points: 2
#     Edge 12, Type (0, 0), BuildingBlock: OJICUG_clean_linker_0, # of connection points: 2
#     Edge 13, Type (0, 0), BuildingBlock: OJICUG_clean_linker_0, # of connection points: 2
#     Edge 14, Type (0, 0), BuildingBlock: OJICUG_clean_linker_0, # of connection points: 2
#     Edge 15, Type (0, 0), BuildingBlock: OJICUG_clean_linker_0, # of connection points: 2
#     Edge 16, Type (0, 0), BuildingBlock: OJICUG_clean_linker_0, # of connection points: 2
#     Edge 17, Type (0, 0), BuildingBlock: OJICUG_clean_linker_0, # of connection points: 2
#     Edge 18, Type (0, 0), BuildingBlock: OJICUG_clean_linker_0, # of connection points: 2
#     Edge 19, Type (0, 0), BuildingBlock: OJICUG_clean_linker_0, # of connection points: 2
#     Edge 20, Type (0, 0), BuildingBlock: OJICUG_clean_linker_0, # of connection points: 2
#     Edge 21, Type (0, 0), BuildingBlock: OJICUG_clean_linker_0, # of connection points: 2
#     Edge 22, Type (0, 0), BuildingBlock: OJICUG_clean_linker_0, # of connection points: 2
#     Edge 23, Type (0, 0), BuildingBlock: OJICUG_clean_linker_0, # of connection points: 2
#     Edge 24, Type (0, 0), BuildingBlock: OJICUG_clean_linker_0, # of connection points: 2
#     Edge 25, Type (0, 0), BuildingBlock: OJICUG_clean_linker_0, # of connection points: 2
#     Edge 26, Type (0, 0), BuildingBlock: OJICUG_clean_linker_0, # of connection points: 2
#     Edge 27, Type (0, 0), BuildingBlock: OJICUG_clean_linker_0, # of connection points: 2
#     Edge 28, Type (0, 0), BuildingBlock: OJICUG_clean_linker_0, # of connection points: 2
#     Edge 29, Type (0, 0), BuildingBlock: OJICUG_clean_linker_0, # of connection points: 2
#     Edge 30, Type (0, 0), BuildingBlock: OJICUG_clean_linker_0, # of connection points: 2
#     Edge 31, Type (0, 0), BuildingBlock: OJICUG_clean_linker_0, # of connection points: 2
#     Edge 32, Type (0, 0), BuildingBlock: OJICUG_clean_linker_0, # of connection points: 2
#     Edge 33, Type (0, 0), BuildingBlock: OJICUG_clean_linker_0, # of connection points: 2
#     Edge 34, Type (0, 0), BuildingBlock: OJICUG_clean_linker_0, # of connection points: 2
#     Edge 35, Type (0, 0), BuildingBlock: OJICUG_clean_linker_0, # of connection points: 2
# Relax obj value: 0.178
# Max RMSD: 0.225
# Mean RMSD: 0.217
data_MOF--net-xfa--node1-HICVOG_clean_sbu_0--edge1-OJICUG_clean_linker_0
_symmetry_space_group_name_H-M    P1
_symmetry_Int_Tables_number       1
_symmetry_cell_setting            triclinic
loop_
_symmetry_equiv_pos_as_xyz
'x, y, z'
_cell_length_a     33.959141
_cell_length_b     34.248302
_cell_length_c     13.828825
_cell_angle_alpha  90.278502
_cell_angle_beta   89.555513
_cell_angle_gamma 89.946905
loop_
_atom_site_label
_atom_site_type_symbol
_atom_site_fract_x
_atom_site_fract_y
_atom_site_fract_z
_atom_type_partial_charge
Zn0 Zn 0.13144 0.30273 0.36713 0.0
C1 C 0.19552 0.24229 0.18224 0.0
N2 N 0.22305 0.24779 0.24979 0.0
C3 C 0.20196 0.25921 0.32714 0.0
N4 N 0.16317 0.2617 0.3065 0.0
N5 N 0.15892 0.24996 0.21595 0.0
C6 C 0.12232 0.26007 0.97321 0.0
O7 O 0.13239 0.29113 0.02329 0.0
O8 O 0.1336 0.29762 0.51218 0.0
Zn9 Zn 0.10916 0.23192 0.16463 0.0
N10 N 0.1567 0.35118 0.32786 0.0
C11 C 0.17478 0.38743 0.18821 0.0
C12 C 0.15595 0.35573 0.23041 0.0
C13 C 0.17512 0.37779 0.38607 0.0
N14 N 0.1937 0.41349 0.24528 0.0
C15 C 0.19445 0.40994 0.34328 0.0
O16 O 0.06409 0.26754 0.19827 0.0
C17 C 0.05193 0.2942 0.25558 0.0
O18 O 0.07397 0.30811 0.32174 0.0
H19 H 0.14115 0.33439 0.18585 0.0
H20 H 0.1757 0.37344 0.46351 0.0
C21 C 0.0629 0.1623 0.2113 0.0
C22 C 0.05591 0.12741 0.2624 0.0
C23 C 0.12033 0.1308 0.32684 0.0
C24 C 0.1274 0.16481 0.27499 0.0
N25 N 0.0984 0.18059 0.22018 0.0
N26 N 0.08487 0.11298 0.31952 0.0
H27 H 0.04025 0.17511 0.16683 0.0
C28 C 0.12192 0.26692 0.55506 0.0
O29 O 0.1075 0.238 0.5036 0.0
O30 O 0.11091 0.22978 0.01825 0.0
H31 H 0.15576 0.17875 0.27959 0.0
H32 H 0.17467 0.39116 0.11058 0.0
H33 H 0.14285 0.11858 0.37257 0.0
Zn34 Zn 0.33195 0.6053 0.40274 0.0
C35 C 0.30321 0.69647 0.56943 0.0
N36 N 0.31463 0.71774 0.49318 0.0
C37 C 0.32061 0.69071 0.42427 0.0
N38 N 0.31317 0.65428 0.45612 0.0
N39 N 0.3011 0.65806 0.5468 0.0
C40 C 0.29619 0.61639 0.79392 0.0
O41 O 0.32528 0.60177 0.742 0.0
O42 O 0.33408 0.60686 0.25639 0.0
Zn43 Zn 0.26026 0.62588 0.60641 0.0
N44 N 0.38351 0.59484 0.45868 0.0
C45 C 0.43297 0.61658 0.56761 0.0
C46 C 0.39922 0.62372 0.51415 0.0
C47 C 0.40166 0.55939 0.45069 0.0
N48 N 0.45063 0.58117 0.56117 0.0
C49 C 0.43629 0.55233 0.5034 0.0
O50 O 0.25567 0.56874 0.55948 0.0
C51 C 0.27016 0.54754 0.49179 0.0
O52 O 0.29671 0.56045 0.43508 0.0
H53 H 0.38532 0.65199 0.51836 0.0
H54 H 0.38885 0.5368 0.4059 0.0
C55 C 0.18526 0.67002 0.62716 0.0
C56 C 0.15253 0.68879 0.58556 0.0
C57 C 0.17295 0.66605 0.4305 0.0
C58 C 0.20528 0.64779 0.47151 0.0
N59 N 0.21111 0.6503 0.56838 0.0
N60 N 0.14762 0.68625 0.4881 0.0
H61 H 0.19071 0.67205 0.70403 0.0
C62 C 0.30345 0.61807 0.21196 0.0
O63 O 0.27214 0.62813 0.26264 0.0
O64 O 0.26532 0.62813 0.75147 0.0
H65 H 0.22612 0.63208 0.42643 0.0
H66 H 0.44506 0.63896 0.6141 0.0
H67 H 0.16817 0.66455 0.35332 0.0
Zn68 Zn 0.93811 0.75954 0.85607 0.0
C69 C 0.87306 0.81939 0.67466 0.0
N70 N 0.84557 0.81326 0.7429 0.0
C71 C 0.86677 0.80183 0.819 0.0
N72 N 0.90557 0.79983 0.79678 0.0
N73 N 0.90973 0.81207 0.70673 0.0
C74 C 0.94683 0.80264 0.46264 0.0
O75 O 0.9374 0.77136 0.51228 0.0
O76 O 0.93626 0.7652 0.00118 0.0
Zn77 Zn 0.95926 0.83078 0.65424 0.0
N78 N 0.91357 0.71037 0.81921 0.0
C79 C 0.89701 0.67185 0.68192 0.0
C80 C 0.91498 0.70449 0.72206 0.0
C81 C 0.89523 0.68427 0.87908 0.0
N82 N 0.87816 0.64629 0.74062 0.0
C83 C 0.8767 0.65122 0.83835 0.0
O84 O 1.00427 0.79538 0.68447 0.0
C85 C 1.01699 0.76877 0.73997 0.0
O86 O 0.99549 0.75461 0.80734 0.0
H87 H 0.92968 0.72546 0.67612 0.0
H88 H 0.89409 0.68968 0.95622 0.0
C89 C 1.00567 0.89993 0.70476 0.0
C90 C 1.01239 0.93464 0.75739 0.0
C91 C 0.94709 0.93183 0.81904 0.0
C92 C 0.94032 0.898 0.76567 0.0
N93 N 0.96986 0.882 0.71154 0.0
N94 N 0.98283 0.94927 0.81384 0.0
H95 H 1.02877 0.88694 0.6608 0.0
C96 C 0.9469 0.79629 0.04428 0.0
O97 O 0.96019 0.82572 -0.00707 0.0
O98 O 0.95762 0.83314 0.50808 0.0
H99 H 0.91177 0.88432 0.76859 0.0
H100 H 0.8977 0.66701 0.60456 0.0
H101 H 0.92412 0.9442 0.86433 0.0
Zn102 Zn 0.80849 0.43749 0.10924 0.0
C103 C 0.751 0.37147 0.91924 0.0
N104 N 0.75649 0.34433 0.98726 0.0
C105 C 0.76838 0.36541 0.06339 0.0
N106 N 0.77146 0.40371 0.04137 0.0
N107 N 0.75912 0.40779 0.95158 0.0
C108 C 0.77873 0.45281 0.72149 0.0
O109 O 0.80757 0.45251 0.78426 0.0
O110 O 0.79476 0.43715 0.25139 0.0
Zn111 Zn 0.74047 0.45659 0.89939 0.0
N112 N 0.86006 0.41411 0.08355 0.0
C113 C 0.90521 0.4033 0.95367 0.0
C114 C 0.87052 0.4195 0.98954 0.0
C115 C 0.8835 0.39315 0.14451 0.0
N116 N 0.92827 0.38212 0.01327 0.0
C117 C 0.91874 0.37655 0.10796 0.0
O118 O 0.77454 0.50172 0.93529 0.0
C119 C 0.80028 0.51516 -0.00733 0.0
O120 O 0.8141 0.49439 0.06093 0.0
H121 H 0.85152 0.43597 0.94245 0.0
H122 H 0.87448 0.3886 0.21883 0.0
C123 C 0.66865 0.50157 0.94028 0.0
C124 C 0.63424 0.50954 -0.00521 0.0
C125 C 0.63989 0.44776 0.07013 0.0
C126 C 0.67364 0.43982 0.01585 0.0
N127 N 0.68794 0.46699 0.95325 0.0
N128 N 0.62115 0.48233 0.05868 0.0
H129 H 0.68068 0.52307 0.89116 0.0
C130 C 0.81813 0.45119 0.31368 0.0
O131 O 0.85186 0.46593 0.28445 0.0
O132 O 0.74346 0.45454 0.75294 0.0
H133 H 0.68886 0.41253 0.02603 0.0
H134 H 0.91364 0.4072 0.87874 0.0
H135 H 0.62891 0.42684 0.12204 0.0
Zn136 Zn 0.63023 0.26054 0.37137 0.0
C137 C 0.69438 0.3194 0.55309 0.0
N138 N 0.72195 0.31371 0.48475 0.0
C139 C 0.70079 0.3036 0.4072 0.0
N140 N 0.66185 0.30221 0.4284 0.0
N141 N 0.65774 0.31322 0.5197 0.0
C142 C 0.62009 0.30266 0.76505 0.0
O143 O 0.62583 0.27055 0.71454 0.0
O144 O 0.63092 0.26506 0.22588 0.0
Zn145 Zn 0.60851 0.33149 0.57462 0.0
N146 N 0.65684 0.21273 0.4093 0.0
C147 C 0.67777 0.17782 0.54798 0.0
C148 C 0.65765 0.20884 0.50694 0.0
C149 C 0.67494 0.18606 0.34987 0.0
N150 N 0.69635 0.1517 0.4896 0.0
C151 C 0.69556 0.15457 0.39146 0.0
O152 O 0.56358 0.29558 0.54552 0.0
C153 C 0.55141 0.26841 0.4903 0.0
O154 O 0.57316 0.25439 0.42274 0.0
H155 H 0.64311 0.23023 0.55248 0.0
H156 H 0.67429 0.18989 0.27226 0.0
C157 C 0.56144 0.40018 0.52468 0.0
C158 C 0.55518 0.43551 0.47517 0.0
C159 C 0.62155 0.43436 0.42059 0.0
C160 C 0.6278 0.39983 0.47075 0.0
N161 N 0.59759 0.38279 0.51988 0.0
N162 N 0.5855 0.45131 0.42379 0.0
H163 H 0.53785 0.38644 0.56506 0.0
C164 C 0.62513 0.29736 0.18327 0.0
O165 O 0.61794 0.32881 0.23531 0.0
O166 O 0.61176 0.334 0.72063 0.0
H167 H 0.65659 0.3866 0.46993 0.0
H168 H 0.67892 0.17465 0.6257 0.0
H169 H 0.64525 0.44776 0.37993 0.0
Zn170 Zn 0.23725 0.10289 0.83131 0.0
C171 C 0.267 0.1942 0.66791 0.0
N172 N 0.25583 0.21539 0.74508 0.0
C173 C 0.24954 0.18824 0.81284 0.0
N174 N 0.25648 0.1518 0.77941 0.0
N175 N 0.26867 0.15571 0.68892 0.0
C176 C 0.27265 0.11449 0.44075 0.0
O177 O 0.2429 0.10148 0.49264 0.0
O178 O 0.23495 0.10465 0.97771 0.0
Zn179 Zn 0.30954 0.12344 0.62834 0.0
N180 N 0.18545 0.09283 0.77541 0.0
C181 C 0.13552 0.11582 0.66976 0.0
C182 C 0.16974 0.12219 0.72216 0.0
C183 C 0.16689 0.05758 0.78218 0.0
N184 N 0.11745 0.08063 0.67494 0.0
C185 C 0.1318 0.05127 0.73046 0.0
O186 O 0.31439 0.06648 0.67582 0.0
C187 C 0.29961 0.04518 0.74242 0.0
O188 O 0.27261 0.05795 0.79846 0.0
H189 H 0.18391 0.15031 0.71917 0.0
H190 H 0.17966 0.03462 0.8254 0.0
C191 C 0.38442 0.16786 0.60538 0.0
C192 C 0.41743 0.18664 0.64608 0.0
C193 C 0.39803 0.16395 0.80141 0.0
C194 C 0.36542 0.14573 0.76133 0.0
N195 N 0.35894 0.14817 0.66477 0.0
N196 N 0.42297 0.18411 0.74326 0.0
H197 H 0.37848 0.16987 0.52879 0.0
C198 C 0.26588 0.11491 0.02246 0.0
O199 O 0.29753 0.12384 0.97204 0.0
O200 O 0.30401 0.125 0.48324 0.0
H201 H 0.34488 0.13008 0.80696 0.0
H202 H 0.12335 0.13865 0.62526 0.0
H203 H 0.40332 0.16247 0.87834 0.0
Zn204 Zn 0.44061 0.80221 0.87241 0.0
C205 C 0.37605 0.74313 0.0562 0.0
N206 N 0.34851 0.74921 0.9891 0.0
C207 C 0.36974 0.75985 0.91158 0.0
N208 N 0.40862 0.76132 0.9317 0.0
N209 N 0.41275 0.74963 0.02205 0.0
C210 C 0.4504 0.75871 0.26501 0.0
O211 O 0.44184 0.79025 0.21573 0.0
O212 O 0.43954 0.79666 0.727 0.0
Zn213 Zn 0.46221 0.73069 0.07267 0.0
N214 N 0.41458 0.85065 0.91048 0.0
C215 C 0.39491 0.88725 0.04925 0.0
C216 C 0.41449 0.8556 0.00797 0.0
C217 C 0.39622 0.8768 0.85139 0.0
N218 N 0.37607 0.91285 0.99128 0.0
C219 C 0.37611 0.90889 0.89326 0.0
O220 O 0.50693 0.76661 0.04224 0.0
C221 C 0.51928 0.79381 0.98759 0.0
O222 O 0.49767 0.80808 0.92129 0.0
H223 H 0.42917 0.83458 0.0533 0.0
H224 H 0.39626 0.87211 0.77394 0.0
C225 C 0.5087 0.66154 0.01826 0.0
C226 C 0.51514 0.62675 0.96521 0.0
C227 C 0.44966 0.63 0.90719 0.0
C228 C 0.44317 0.66383 0.96109 0.0
N229 N 0.47291 0.67963 0.01368 0.0
N230 N 0.48534 0.61234 0.91041 0.0
H231 H 0.53193 0.67438 0.06103 0.0
C232 C 0.44997 0.76544 0.68365 0.0
O233 O 0.4626 0.73578 0.73478 0.0
O234 O 0.46037 0.72793 0.21909 0.0
H235 H 0.41464 0.67762 0.95987 0.0
H236 H 0.39435 0.89129 0.12688 0.0
H237 H 0.4265 0.61776 0.86325 0.0
Zn238 Zn 0.76019 0.93812 0.12578 0.0
C239 C 0.8196 0.87324 0.30794 0.0
N240 N 0.81332 0.84598 0.23999 0.0
C241 C 0.80208 0.86707 0.16367 0.0
N242 N 0.80039 0.90557 0.1854 0.0
N243 N 0.81257 0.90964 0.27545 0.0
C244 C 0.80338 0.94661 0.51894 0.0
O245 O 0.7719 0.93688 0.46974 0.0
O246 O 0.76598 0.93597 0.98077 0.0
Zn247 Zn 0.83185 0.95861 0.327 0.0
N248 N 0.71056 0.91406 0.16305 0.0
C249 C 0.67061 0.89879 0.29967 0.0
C250 C 0.70351 0.91682 0.25964 0.0
C251 C 0.68543 0.89424 0.10362 0.0
N252 N 0.646 0.8785 0.24143 0.0
C253 C 0.65215 0.87568 0.14423 0.0
O254 O 0.79692 1.00368 0.29541 0.0
C255 C 0.77034 1.01655 0.23966 0.0
O256 O 0.75569 0.99523 0.17303 0.0
H257 H 0.72385 0.93253 0.30532 0.0
H258 H 0.69186 0.89195 0.02703 0.0
C259 C 0.90233 1.00354 0.27867 0.0
C260 C 0.93734 1.01028 0.22591 0.0
C261 C 0.93313 0.94652 0.15912 0.0
C262 C 0.899 0.93969 0.21267 0.0
N263 N 0.88358 0.9685 0.26949 0.0
N264 N 0.95142 0.98153 0.16682 0.0
H265 H 0.88972 1.02605 0.3246 0.0
C266 C 0.79683 0.94776 0.93725 0.0
O267 O 0.8259 0.96234 0.9881 0.0
O268 O 0.83408 0.95735 0.47308 0.0
H269 H 0.88462 0.91172 0.20768 0.0
H270 H 0.66486 0.90051 0.37662 0.0
H271 H 0.94505 0.92418 0.11171 0.0
C272 C 0.25386 0.45101 0.36444 0.0
C273 C 0.21661 0.43976 0.39877 0.0
H274 H 0.30029 0.49278 0.36865 0.0
C275 C 0.1991 0.46142 0.47437 0.0
H276 H 0.2681 0.43479 0.30644 0.0
C277 C 0.21743 0.49545 0.50976 0.0
C278 C 0.25361 0.50813 0.47028 0.0
H279 H 0.17016 0.4536 0.50141 0.0
H280 H 0.20225 0.51291 0.56389 0.0
C281 C 0.27223 0.48446 0.40008 0.0
C282 C 0.06881 0.71583 0.75707 0.0
C283 C 0.05623 0.75138 0.71652 0.0
H284 H 0.11003 0.66801 0.74828 0.0
C285 C 0.07958 0.76832 0.6434 0.0
H286 H 0.05161 0.70193 0.81344 0.0
C287 C 0.11249 0.74886 0.60613 0.0
C288 C 0.12353 0.71222 0.64179 0.0
H289 H 0.07132 0.79583 0.61095 0.0
H290 H 0.12838 0.76175 0.54599 0.0
C291 C 0.10234 0.69644 0.72012 0.0
C292 C 0.79851 0.57764 0.9001 0.0
C293 C 0.81692 0.55446 0.97041 0.0
H294 H 0.80301 0.62641 0.80474 0.0
C295 C 0.85313 0.56729 0.00836 0.0
H296 H 0.77046 0.56917 0.86972 0.0
C297 C 0.87168 0.60093 0.97133 0.0
C298 C 0.85435 0.62202 0.89561 0.0
H299 H 0.86819 0.55017 0.06238 0.0
H300 H 0.90064 0.60884 -0.00284 0.0
C301 C 0.81709 0.61066 0.86285 0.0
C302 C 0.988 0.29479 0.16638 0.0
C303 C 1.01268 0.31204 0.23586 0.0
H304 H 0.93852 0.30176 0.073 0.0
C305 C 1.00148 0.3484 0.27577 0.0
H306 H 0.99525 0.2667 0.13453 0.0
C307 C 0.9682 0.36832 0.24095 0.0
C308 C 0.94571 0.35216 0.16584 0.0
H309 H 1.01974 0.3626 0.32929 0.0
H310 H 0.96185 0.39748 0.26752 0.0
C311 C 0.95522 0.31472 0.1314 0.0
C312 C 0.69916 0.10258 0.26126 0.0
C313 C 0.71734 0.12465 0.33441 0.0
H314 H 0.70164 0.05065 0.17309 0.0
C315 C 0.75504 0.11376 0.36508 0.0
H316 H 0.66989 0.11015 0.23703 0.0
C317 C 0.7732 0.08018 0.32863 0.0
C318 C 0.75394 0.05609 0.26122 0.0
H319 H 0.76982 0.13032 0.42104 0.0
H320 H 0.80164 0.0721 0.35737 0.0
C321 C 0.71731 0.06845 0.22501 0.0
C322 C 0.46752 0.19447 0.51129 0.0
C323 C 0.44596 0.21029 0.58946 0.0
H324 H 0.51813 0.20039 0.41782 0.0
C325 C 0.45635 0.24728 0.62486 0.0
H326 H 0.46038 0.16575 0.48339 0.0
C327 C 0.48888 0.26714 0.5874 0.0
C328 C 0.51256 0.25028 0.51428 0.0
H329 H 0.44023 0.26019 0.68497 0.0
H330 H 0.4966 0.29495 0.61967 0.0
C331 C 0.50067 0.21427 0.47412 0.0
C332 C 0.29762 0.98215 0.83295 0.0
C333 C 0.31647 1.00594 0.76399 0.0
H334 H 0.30173 0.93276 0.92634 0.0
C335 C 0.35316 0.99364 0.72622 0.0
H336 H 0.26919 0.99019 0.86305 0.0
C337 C 0.37172 0.95993 0.76222 0.0
C338 C 0.35391 0.93821 0.83675 0.0
H339 H 0.36854 1.01119 0.6731 0.0
H340 H 0.401 0.95244 0.73661 0.0
C341 C 0.3162 0.94903 0.86921 0.0
C342 C 0.60294 0.86772 0.00953 0.0
C343 C 0.62403 0.85196 0.08732 0.0
H344 H 0.55289 0.86172 0.91612 0.0
C345 C 0.61358 0.81494 0.12185 0.0
H346 H 0.61018 0.89645 0.9823 0.0
C347 C 0.58134 0.795 0.08394 0.0
C348 C 0.55804 0.81184 0.01137 0.0
H349 H 0.62938 0.80208 0.18162 0.0
H350 H 0.5735 0.76717 0.11558 0.0
C351 C 0.57007 0.84786 0.97199 0.0
C352 C 0.20219 0.182 0.95258 0.0
C353 C 0.23529 0.19932 0.90915 0.0
H354 H 0.16422 0.18097 0.07784 0.0
C355 C 0.25326 0.23138 0.95366 0.0
H356 H 0.187 0.15819 0.91728 0.0
C357 C 0.23899 0.24566 0.04103 0.0
C358 C 0.2064 0.22823 0.08572 0.0
H359 H 0.27845 0.24557 0.92048 0.0
H360 H 0.25366 0.27039 0.07414 0.0
C361 C 0.18848 0.19572 0.0424 0.0
C362 C 0.3333 0.74842 0.19847 0.0
C363 C 0.36507 0.72971 0.1528 0.0
H364 H 0.29403 0.74969 0.31937 0.0
C365 C 0.38194 0.69659 0.19509 0.0
H366 H 0.31948 0.77369 0.16613 0.0
C367 C 0.36794 0.68338 0.28474 0.0
C368 C 0.33548 0.70179 0.32883 0.0
H369 H 0.40555 0.68092 0.15891 0.0
H370 H 0.38236 0.65901 0.31923 0.0
C371 C 0.31867 0.73462 0.28559 0.0
C372 C 0.88003 0.86615 0.536 0.0
C373 C 0.86208 0.83364 0.57912 0.0
H374 H 0.88185 0.90347 0.41129 0.0
C375 C 0.82958 0.81615 0.53496 0.0
H376 H 0.90417 0.88099 0.57111 0.0
C377 C 0.81551 0.83032 0.44818 0.0
C378 C 0.83362 0.8623 0.40371 0.0
H379 H 0.81489 0.79142 0.56793 0.0
H380 H 0.79041 0.81607 0.41537 0.0
C381 C 0.86657 0.87971 0.44665 0.0
C382 C 0.73614 0.31284 0.69483 0.0
C383 C 0.70525 0.33252 0.64984 0.0
H384 H 0.77518 0.31077 0.81448 0.0
C385 C 0.6897 0.36659 0.69211 0.0
H386 H 0.74896 0.28684 0.66241 0.0
C387 C 0.70442 0.38009 0.78055 0.0
C388 C 0.73593 0.36057 0.82413 0.0
H389 H 0.66661 0.38282 0.65674 0.0
H390 H 0.69107 0.40532 0.81487 0.0
C391 C 0.75127 0.32667 0.78116 0.0
C392 C 0.13745 0.29595 0.71695 0.0
C393 C 0.12382 0.26421 0.66185 0.0
H394 H 0.14767 0.3195 0.85796 0.0
C395 C 0.11137 0.23027 0.70999 0.0
H396 H 0.14755 0.32245 0.68226 0.0
C397 C 0.11161 0.22848 0.8111 0.0
C398 C 0.12407 0.26074 0.86615 0.0
H399 H 0.10087 0.20524 0.66968 0.0
H400 H 0.10143 0.20207 0.84604 0.0
C401 C 0.13751 0.29425 0.81786 0.0
C402 C 0.33526 0.60721 0.04933 0.0
C403 C 0.30266 0.61948 0.10495 0.0
H404 H 0.3587 0.59635 0.90749 0.0
C405 C 0.26868 0.63238 0.05725 0.0
H406 H 0.36203 0.59745 0.08381 0.0
C407 C 0.26687 0.632 0.95636 0.0
C408 C 0.29897 0.61857 0.9007 0.0
H409 H 0.24315 0.64237 0.09781 0.0
H410 H 0.24002 0.64169 0.92213 0.0
C411 C 0.33338 0.60664 0.94825 0.0
C412 C 0.93252 0.76821 0.30689 0.0
C413 C 0.94505 0.80204 0.35565 0.0
H414 H 0.9231 0.73992 0.17087 0.0
C415 C 0.95652 0.83469 0.30107 0.0
H416 H 0.92314 0.74264 0.34664 0.0
C417 C 0.95668 0.83304 0.1999 0.0
C418 C 0.94512 0.79883 0.15124 0.0
H419 H 0.96598 0.86134 0.3364 0.0
H420 H 0.96642 0.85839 0.15992 0.0
C421 C 0.93249 0.76664 0.20594 0.0
C422 C 0.76918 0.44151 0.44917 0.0
C423 C 0.80753 0.45106 0.41777 0.0
H424 H 0.7297 0.43493 0.57017 0.0
C425 C 0.83593 0.46083 0.48697 0.0
H426 H 0.74662 0.43376 0.39756 0.0
C427 C 0.82635 0.46111 0.58522 0.0
C428 C 0.788 0.45211 0.61681 0.0
H429 H 0.86574 0.46815 0.46538 0.0
H430 H 0.84906 0.46882 0.63647 0.0
C431 C 0.75942 0.4423 0.54788 0.0
C432 C 0.63201 0.26535 0.02065 0.0
C433 C 0.62553 0.29925 0.07618 0.0
H434 H 0.63537 0.23987 0.8794 0.0
C435 C 0.61873 0.33473 0.02829 0.0
H436 H 0.63757 0.23756 0.05507 0.0
C437 C 0.61759 0.33612 0.9272 0.0
C438 C 0.62304 0.30197 0.87187 0.0
H439 H 0.61374 0.36135 0.06891 0.0
H440 H 0.61197 0.36385 0.89256 0.0
C441 C 0.63076 0.26669 0.91975 0.0
C442 C 0.23537 0.10525 0.28607 0.0
C443 C 0.27007 0.11625 0.33389 0.0
H444 H 0.20658 0.09651 0.15027 0.0
C445 C 0.30263 0.12838 0.27843 0.0
H446 H 0.20971 0.09592 0.32665 0.0
C447 C 0.30095 0.12846 0.17752 0.0
C448 C 0.26663 0.11654 0.12954 0.0
H449 H 0.32974 0.13732 0.31284 0.0
H450 H 0.32682 0.13746 0.13716 0.0
C451 C 0.23361 0.10551 0.18494 0.0
C452 C 0.45995 0.72679 0.42658 0.0
C453 C 0.44859 0.75942 0.37214 0.0
H454 H 0.46974 0.70325 0.5676 0.0
C455 C 0.43616 0.79338 0.42114 0.0
H456 H 0.46939 0.70007 0.39111 0.0
C457 C 0.43604 0.79506 0.52211 0.0
C458 C 0.44849 0.76288 0.57665 0.0
H459 H 0.42688 0.81895 0.38154 0.0
H460 H 0.42667 0.82186 0.55731 0.0
C461 C 0.46005 0.72857 0.52778 0.0
C462 C 0.83348 0.95854 0.7812 0.0
C463 C 0.79949 0.94576 0.83034 0.0
H464 H 0.86163 0.96851 0.64431 0.0
C465 C 0.76761 0.9317 0.77616 0.0
H466 H 0.85858 0.96944 0.82078 0.0
C467 C 0.76921 0.93148 0.6752 0.0
C468 C 0.80279 0.94515 0.62595 0.0
H469 H 0.74107 0.92137 0.81163 0.0
H470 H 0.74387 0.92096 0.63582 0.0
C471 C 0.83519 0.95809 0.68004 0.0
C472 C 0.27043 0.24316 0.53547 0.0
C473 C 0.2547 0.20851 0.57334 0.0
H474 H 0.26548 0.2872 0.42566 0.0
C475 C 0.21964 0.19361 0.53538 0.0
H476 H 0.29672 0.2559 0.5663 0.0
C477 C 0.20036 0.21299 0.46157 0.0
C478 C 0.21633 0.24706 0.42179 0.0
H479 H 0.20619 0.16769 0.56521 0.0
H480 H 0.17368 0.20033 0.43313 0.0
C481 C 0.25193 0.26172 0.45792 0.0
C482 C 0.32015 0.76383 0.78025 0.0
C483 C 0.35494 0.74774 0.8171 0.0
H484 H 0.27561 0.75961 0.67077 0.0
C485 C 0.36953 0.71279 0.77786 0.0
H486 H 0.30765 0.79006 0.8121 0.0
C487 C 0.34973 0.69401 0.70357 0.0
C488 C 0.31554 0.71035 0.66466 0.0
H489 H 0.39554 0.6991 0.80693 0.0
H490 H 0.36219 0.66743 0.67399 0.0
C491 C 0.30116 0.74579 0.70229 0.0
C492 C 0.81767 0.79866 0.95354 0.0
C493 C 0.85251 0.81419 0.91435 0.0
H494 H 0.77355 0.80381 0.06554 0.0
C495 C 0.86758 0.84908 0.95208 0.0
H496 H 0.80478 0.7725 0.9229 0.0
C497 C 0.84819 0.8684 0.02695 0.0
C498 C 0.81399 0.85261 0.06817 0.0
H499 H 0.89365 0.86235 0.92133 0.0
H500 H 0.86099 0.89497 0.0551 0.0
C501 C 0.79914 0.81719 0.03224 0.0
C502 C 0.70745 0.35502 0.28583 0.0
C503 C 0.71583 0.31658 0.31343 0.0
H504 H 0.72005 0.40181 0.18931 0.0
C505 C 0.74573 0.29587 0.26518 0.0
H506 H 0.68544 0.37204 0.324 0.0
C507 C 0.76558 0.31292 0.18689 0.0
C508 C 0.75708 0.35152 0.15963 0.0
H509 H 0.75365 0.26671 0.28802 0.0
H510 H 0.78692 0.29579 0.14631 0.0
C511 C 0.72817 0.37251 0.21066 0.0
C512 C 1.00132 0.08852 0.33574 0.0
C513 C 1.01917 0.10459 0.25292 0.0
H514 H 0.96017 0.04675 0.39212 0.0
C515 C 1.00572 0.09321 0.16133 0.0
H516 H 1.01145 0.09662 0.40718 0.0
C517 C 0.97706 0.06406 0.15276 0.0
C518 C 0.96063 0.04657 0.23557 0.0
H519 H 1.01941 0.10466 0.0964 0.0
H520 H 0.96903 0.05387 0.08128 0.0
C521 C 0.9719 0.06013 0.32719 0.0
C522 C 0.50162 0.47386 0.39764 0.0
C523 C 0.51785 0.45763 0.48163 0.0
H524 H 0.46164 0.5159 0.33865 0.0
C525 C 0.50246 0.46865 0.5722 0.0
H526 H 0.51331 0.46604 0.32702 0.0
C527 C 0.47364 0.49781 0.57887 0.0
C528 C 0.45898 0.5156 0.49507 0.0
H529 H 0.51492 0.45707 0.63802 0.0
H530 H 0.46425 0.5079 0.64977 0.0
C531 C 0.47201 0.50224 0.40422 0.0
C532 C 0.09306 0.99775 0.65344 0.0
C533 C 0.10865 1.0148 0.73759 0.0
H534 H 0.05107 0.95769 0.59376 0.0
C535 C 0.09626 1.00092 0.82815 0.0
H536 H 0.10191 1.00824 0.58275 0.0
C537 C 0.06654 0.9727 0.83439 0.0
C538 C 0.0495 0.95711 0.75024 0.0
H539 H 0.1073 1.01401 0.89405 0.0
H540 H 0.0555 0.96441 0.90508 0.0
C541 C 0.06412 0.96875 0.65967 0.0
C542 C 0.59719 0.56547 0.06768 0.0
C543 C 0.61105 0.54588 0.98448 0.0
H544 H 0.55669 0.60756 0.12665 0.0
C545 C 0.59708 0.55732 0.8937 0.0
H546 H 0.60733 0.55694 0.13861 0.0
C547 C 0.5675 0.58571 0.88706 0.0
C548 C 0.5521 0.60383 0.97079 0.0
H549 H 0.60683 0.5423 0.82866 0.0
H550 H 0.5553 0.59218 0.81676 0.0
C551 C 0.56835 0.59455 0.06084 0.0
loop_
_geom_bond_atom_site_label_1
_geom_bond_atom_site_label_2
_geom_bond_distance
_geom_bond_site_symmetry_2
_ccdc_geom_bond_type
Zn0 N4 2.020 . S
Zn0 O8 2.019 . S
Zn0 N10 2.119 . S
Zn0 O18 1.975 . S
C1 N2 1.334 . S
C1 N5 1.336 . S
N2 C1 1.334 . S
N2 C3 1.334 . S
C3 N2 1.334 . S
C3 N4 1.336 . S
N4 Zn0 2.020 . S
N4 C3 1.336 . S
N4 N5 1.354 . S
N5 C1 1.336 . S
N5 N4 1.354 . S
N5 Zn9 2.020 . S
C6 O7 1.244 . S
C6 O30 1.257 . S
O7 C6 1.244 . S
O8 Zn0 2.019 . S
O8 C28 1.257 . S
Zn9 N5 2.020 . S
Zn9 O16 1.975 . S
Zn9 N25 2.119 . S
Zn9 O30 2.019 . S
N10 Zn0 2.119 . S
N10 C12 1.334 . S
N10 C13 1.328 . S
C11 C12 1.391 . S
C11 N14 1.329 . S
C11 H32 0.930 . S
C12 N10 1.334 . S
C12 C11 1.391 . S
C12 H19 0.930 . S
C13 N10 1.328 . S
C13 C15 1.392 . S
C13 H20 0.930 . S
N14 C11 1.329 . S
N14 C15 1.331 . S
C15 C13 1.392 . S
C15 N14 1.331 . S
O16 Zn9 1.975 . S
O16 C17 1.252 . S
C17 O16 1.252 . S
C17 O18 1.252 . S
O18 Zn0 1.975 . S
O18 C17 1.252 . S
H19 C12 0.930 . S
H20 C13 0.930 . S
C21 C22 1.392 . S
C21 N25 1.328 1_655 S
C21 H27 0.930 . S
C22 C21 1.392 . S
C22 N26 1.331 . S
C23 C24 1.391 . S
C23 N26 1.329 . S
C23 H33 0.930 . S
C24 C23 1.391 . S
C24 N25 1.334 1_655 S
C24 H31 0.930 1_655 S
N25 Zn9 2.119 . S
N25 C21 1.328 1_455 S
N25 C24 1.334 1_455 S
N26 C22 1.331 . S
N26 C23 1.329 . S
H27 C21 0.930 . S
C28 O8 1.257 . S
C28 O29 1.244 . S
O29 C28 1.244 . S
O30 C6 1.257 . S
O30 Zn9 2.019 . S
H31 C24 0.930 1_455 S
H32 C11 0.930 . S
H33 C23 0.930 . S
Zn34 N38 2.020 . S
Zn34 O42 2.019 . S
Zn34 N44 2.119 . S
Zn34 O52 1.975 . S
C35 N36 1.334 . S
C35 N39 1.336 . S
N36 C35 1.334 . S
N36 C37 1.334 . S
C37 N36 1.334 . S
C37 N38 1.336 . S
N38 Zn34 2.020 . S
N38 C37 1.336 . S
N38 N39 1.354 . S
N39 C35 1.336 . S
N39 N38 1.354 . S
N39 Zn43 2.020 . S
C40 O41 1.244 . S
C40 O64 1.257 . S
O41 C40 1.244 . S
O42 Zn34 2.019 . S
O42 C62 1.257 . S
Zn43 N39 2.020 . S
Zn43 O50 1.975 . S
Zn43 N59 2.119 . S
Zn43 O64 2.019 . S
N44 Zn34 2.119 . S
N44 C46 1.334 . S
N44 C47 1.328 . S
C45 C46 1.391 . S
C45 N48 1.329 . S
C45 H66 0.930 . S
C46 N44 1.334 . S
C46 C45 1.391 . S
C46 H53 0.930 . S
C47 N44 1.328 . S
C47 C49 1.392 . S
C47 H54 0.930 . S
N48 C45 1.329 . S
N48 C49 1.331 . S
C49 C47 1.392 . S
C49 N48 1.331 . S
O50 Zn43 1.975 . S
O50 C51 1.252 . S
C51 O50 1.252 . S
C51 O52 1.252 . S
O52 Zn34 1.975 . S
O52 C51 1.252 . S
H53 C46 0.930 . S
H54 C47 0.930 . S
C55 C56 1.392 . S
C55 N59 1.328 . S
C55 H61 0.930 . S
C56 C55 1.392 . S
C56 N60 1.331 . S
C57 C58 1.391 . S
C57 N60 1.329 . S
C57 H67 0.930 . S
C58 C57 1.391 . S
C58 N59 1.334 . S
C58 H65 0.930 . S
N59 Zn43 2.119 . S
N59 C55 1.328 . S
N59 C58 1.334 . S
N60 C56 1.331 . S
N60 C57 1.329 . S
H61 C55 0.930 . S
C62 O42 1.257 . S
C62 O63 1.244 . S
O63 C62 1.244 . S
O64 C40 1.257 . S
O64 Zn43 2.019 . S
H65 C58 0.930 . S
H66 C45 0.930 . S
H67 C57 0.930 . S
Zn68 N72 2.020 . S
Zn68 O76 2.019 1_556 S
Zn68 N78 2.119 . S
Zn68 O86 1.975 . S
C69 N70 1.334 . S
C69 N73 1.336 . S
N70 C69 1.334 . S
N70 C71 1.334 . S
C71 N70 1.334 . S
C71 N72 1.336 . S
N72 Zn68 2.020 . S
N72 C71 1.336 . S
N72 N73 1.354 . S
N73 C69 1.336 . S
N73 N72 1.354 . S
N73 Zn77 2.020 . S
C74 O75 1.244 . S
C74 O98 1.257 . S
O75 C74 1.244 . S
O76 Zn68 2.019 1_554 S
O76 C96 1.257 . S
Zn77 N73 2.020 . S
Zn77 O84 1.975 . S
Zn77 N93 2.119 . S
Zn77 O98 2.019 . S
N78 Zn68 2.119 . S
N78 C80 1.334 . S
N78 C81 1.328 . S
C79 C80 1.391 . S
C79 N82 1.329 . S
C79 H100 0.930 . S
C80 N78 1.334 . S
C80 C79 1.391 . S
C80 H87 0.930 . S
C81 N78 1.328 . S
C81 C83 1.392 . S
C81 H88 0.930 1_556 S
N82 C79 1.329 . S
N82 C83 1.331 . S
C83 C81 1.392 . S
C83 N82 1.331 . S
O84 Zn77 1.975 . S
O84 C85 1.252 . S
C85 O84 1.252 . S
C85 O86 1.252 . S
O86 Zn68 1.975 . S
O86 C85 1.252 . S
H87 C80 0.930 . S
H88 C81 0.930 1_554 S
C89 C90 1.392 . S
C89 N93 1.328 1_455 S
C89 H95 0.930 . S
C90 C89 1.392 . S
C90 N94 1.331 . S
C91 C92 1.391 . S
C91 N94 1.329 . S
C91 H101 0.930 . S
C92 C91 1.391 . S
C92 N93 1.334 1_455 S
C92 H99 0.930 1_455 S
N93 Zn77 2.119 . S
N93 C89 1.328 1_655 S
N93 C92 1.334 1_655 S
N94 C90 1.331 . S
N94 C91 1.329 . S
H95 C89 0.930 . S
C96 O76 1.257 . S
C96 O97 1.244 . S
O97 C96 1.244 . S
O98 C74 1.257 . S
O98 Zn77 2.019 . S
H99 C92 0.930 1_655 S
H100 C79 0.930 . S
H101 C91 0.930 . S
Zn102 N106 2.020 . S
Zn102 O110 2.019 . S
Zn102 N112 2.119 . S
Zn102 O120 1.975 . S
C103 N104 1.334 . S
C103 N107 1.336 . S
N104 C103 1.334 . S
N104 C105 1.334 1_556 S
C105 N104 1.334 1_554 S
C105 N106 1.336 . S
N106 Zn102 2.020 . S
N106 C105 1.336 . S
N106 N107 1.354 1_554 S
N107 C103 1.336 . S
N107 N106 1.354 1_556 S
N107 Zn111 2.020 . S
C108 O109 1.244 . S
C108 O132 1.257 . S
O109 C108 1.244 . S
O110 Zn102 2.019 . S
O110 C130 1.257 . S
Zn111 N107 2.020 . S
Zn111 O118 1.975 . S
Zn111 N127 2.119 . S
Zn111 O132 2.019 . S
N112 Zn102 2.119 . S
N112 C114 1.334 1_554 S
N112 C115 1.328 . S
C113 C114 1.391 . S
C113 N116 1.329 1_556 S
C113 H134 0.930 . S
C114 N112 1.334 1_556 S
C114 C113 1.391 . S
C114 H121 0.930 . S
C115 N112 1.328 . S
C115 C117 1.392 . S
C115 H122 0.930 . S
N116 C113 1.329 1_554 S
N116 C117 1.331 . S
C117 C115 1.392 . S
C117 N116 1.331 . S
O118 Zn111 1.975 . S
O118 C119 1.242 1_556 S
C119 O118 1.242 1_554 S
C119 O120 1.262 . S
O120 Zn102 1.975 . S
O120 C119 1.262 . S
H121 C114 0.930 . S
H122 C115 0.930 . S
C123 C124 1.392 . S
C123 N127 1.328 . S
C123 H129 0.930 . S
C124 C123 1.392 . S
C124 N128 1.331 . S
C125 C126 1.391 . S
C125 N128 1.329 1_554 S
C125 H135 0.930 . S
C126 C125 1.391 . S
C126 N127 1.334 1_554 S
C126 H133 0.930 . S
N127 Zn111 2.119 . S
N127 C123 1.328 . S
N127 C126 1.334 1_556 S
N128 C124 1.331 . S
N128 C125 1.329 1_556 S
H129 C123 0.930 . S
C130 O110 1.257 . S
C130 O131 1.244 . S
O131 C130 1.244 . S
O132 C108 1.257 . S
O132 Zn111 2.019 . S
H133 C126 0.930 . S
H134 C113 0.930 . S
H135 C125 0.930 . S
Zn136 N140 2.020 . S
Zn136 O144 2.019 . S
Zn136 N146 2.119 . S
Zn136 O154 1.975 . S
C137 N138 1.334 . S
C137 N141 1.336 . S
N138 C137 1.334 . S
N138 C139 1.334 . S
C139 N138 1.334 . S
C139 N140 1.336 . S
N140 Zn136 2.020 . S
N140 C139 1.336 . S
N140 N141 1.354 . S
N141 C137 1.336 . S
N141 N140 1.354 . S
N141 Zn145 2.020 . S
C142 O143 1.244 . S
C142 O166 1.257 . S
O143 C142 1.244 . S
O144 Zn136 2.019 . S
O144 C164 1.257 . S
Zn145 N141 2.020 . S
Zn145 O152 1.975 . S
Zn145 N161 2.119 . S
Zn145 O166 2.019 . S
N146 Zn136 2.119 . S
N146 C148 1.334 . S
N146 C149 1.328 . S
C147 C148 1.391 . S
C147 N150 1.329 . S
C147 H168 0.930 . S
C148 N146 1.334 . S
C148 C147 1.391 . S
C148 H155 0.930 . S
C149 N146 1.328 . S
C149 C151 1.392 . S
C149 H156 0.930 . S
N150 C147 1.329 . S
N150 C151 1.331 . S
C151 C149 1.392 . S
C151 N150 1.331 . S
O152 Zn145 1.975 . S
O152 C153 1.252 . S
C153 O152 1.252 . S
C153 O154 1.252 . S
O154 Zn136 1.975 . S
O154 C153 1.252 . S
H155 C148 0.930 . S
H156 C149 0.930 . S
C157 C158 1.392 . S
C157 N161 1.328 . S
C157 H163 0.930 . S
C158 C157 1.392 . S
C158 N162 1.331 . S
C159 C160 1.391 . S
C159 N162 1.329 . S
C159 H169 0.930 . S
C160 C159 1.391 . S
C160 N161 1.334 . S
C160 H167 0.930 . S
N161 Zn145 2.119 . S
N161 C157 1.328 . S
N161 C160 1.334 . S
N162 C158 1.331 . S
N162 C159 1.329 . S
H163 C157 0.930 . S
C164 O144 1.257 . S
C164 O165 1.244 . S
O165 C164 1.244 . S
O166 C142 1.257 . S
O166 Zn145 2.019 . S
H167 C160 0.930 . S
H168 C147 0.930 . S
H169 C159 0.930 . S
Zn170 N174 2.020 . S
Zn170 O178 2.019 . S
Zn170 N180 2.119 . S
Zn170 O188 1.975 . S
C171 N172 1.334 . S
C171 N175 1.336 . S
N172 C171 1.334 . S
N172 C173 1.334 . S
C173 N172 1.334 . S
C173 N174 1.336 . S
N174 Zn170 2.020 . S
N174 C173 1.336 . S
N174 N175 1.354 . S
N175 C171 1.336 . S
N175 N174 1.354 . S
N175 Zn179 2.020 . S
C176 O177 1.244 . S
C176 O200 1.257 . S
O177 C176 1.244 . S
O178 Zn170 2.019 . S
O178 C198 1.257 . S
Zn179 N175 2.020 . S
Zn179 O186 1.975 . S
Zn179 N195 2.119 . S
Zn179 O200 2.019 . S
N180 Zn170 2.119 . S
N180 C182 1.334 1_545 S
N180 C183 1.328 1_545 S
C181 C182 1.391 . S
C181 N184 1.329 . S
C181 H202 0.930 . S
C182 N180 1.334 1_565 S
C182 C181 1.391 . S
C182 H189 0.930 1_565 S
C183 N180 1.328 1_565 S
C183 C185 1.392 . S
C183 H190 0.930 . S
N184 C181 1.329 . S
N184 C185 1.331 . S
C185 C183 1.392 . S
C185 N184 1.331 . S
O186 Zn179 1.975 . S
O186 C187 1.252 . S
C187 O186 1.252 . S
C187 O188 1.252 . S
O188 Zn170 1.975 . S
O188 C187 1.252 . S
H189 C182 0.930 1_545 S
H190 C183 0.930 . S
C191 C192 1.392 . S
C191 N195 1.328 . S
C191 H197 0.930 . S
C192 C191 1.392 . S
C192 N196 1.331 . S
C193 C194 1.391 . S
C193 N196 1.329 . S
C193 H203 0.930 . S
C194 C193 1.391 . S
C194 N195 1.334 . S
C194 H201 0.930 . S
N195 Zn179 2.119 . S
N195 C191 1.328 . S
N195 C194 1.334 . S
N196 C192 1.331 . S
N196 C193 1.329 . S
H197 C191 0.930 . S
C198 O178 1.257 . S
C198 O199 1.244 . S
O199 C198 1.244 . S
O200 C176 1.257 . S
O200 Zn179 2.019 . S
H201 C194 0.930 . S
H202 C181 0.930 . S
H203 C193 0.930 . S
Zn204 N208 2.020 . S
Zn204 O212 2.019 . S
Zn204 N214 2.119 . S
Zn204 O222 1.975 . S
C205 N206 1.334 . S
C205 N209 1.336 . S
N206 C205 1.334 . S
N206 C207 1.334 1_554 S
C207 N206 1.334 1_556 S
C207 N208 1.336 . S
N208 Zn204 2.020 . S
N208 C207 1.336 . S
N208 N209 1.354 1_556 S
N209 C205 1.336 . S
N209 N208 1.354 1_554 S
N209 Zn213 2.020 . S
C210 O211 1.244 . S
C210 O234 1.257 . S
O211 C210 1.244 . S
O212 Zn204 2.019 . S
O212 C232 1.257 . S
Zn213 N209 2.020 . S
Zn213 O220 1.975 . S
Zn213 N229 2.119 . S
Zn213 O234 2.019 . S
N214 Zn204 2.119 . S
N214 C216 1.334 1_556 S
N214 C217 1.328 . S
C215 C216 1.391 . S
C215 N218 1.329 1_554 S
C215 H236 0.930 . S
C216 N214 1.334 1_554 S
C216 C215 1.391 . S
C216 H223 0.930 . S
C217 N214 1.328 . S
C217 C219 1.392 . S
C217 H224 0.930 . S
N218 C215 1.329 1_556 S
N218 C219 1.331 . S
C219 C217 1.392 . S
C219 N218 1.331 . S
O220 Zn213 1.975 . S
O220 C221 1.242 1_554 S
C221 O220 1.242 1_556 S
C221 O222 1.262 . S
O222 Zn204 1.975 . S
O222 C221 1.262 . S
H223 C216 0.930 . S
H224 C217 0.930 . S
C225 C226 1.392 . S
C225 N229 1.328 . S
C225 H231 0.930 . S
C226 C225 1.392 . S
C226 N230 1.331 . S
C227 C228 1.391 . S
C227 N230 1.329 1_556 S
C227 H237 0.930 . S
C228 C227 1.391 . S
C228 N229 1.334 1_556 S
C228 H235 0.930 . S
N229 Zn213 2.119 . S
N229 C225 1.328 . S
N229 C228 1.334 1_554 S
N230 C226 1.331 . S
N230 C227 1.329 1_554 S
H231 C225 0.930 . S
C232 O212 1.257 . S
C232 O233 1.244 . S
O233 C232 1.244 . S
O234 C210 1.257 . S
O234 Zn213 2.019 . S
H235 C228 0.930 . S
H236 C215 0.930 . S
H237 C227 0.930 . S
Zn238 N242 2.020 . S
Zn238 O246 2.019 1_554 S
Zn238 N248 2.119 . S
Zn238 O256 1.975 . S
C239 N240 1.334 . S
C239 N243 1.336 . S
N240 C239 1.334 . S
N240 C241 1.334 . S
C241 N240 1.334 . S
C241 N242 1.336 . S
N242 Zn238 2.020 . S
N242 C241 1.336 . S
N242 N243 1.354 . S
N243 C239 1.336 . S
N243 N242 1.354 . S
N243 Zn247 2.020 . S
C244 O245 1.244 . S
C244 O268 1.257 . S
O245 C244 1.244 . S
O246 Zn238 2.019 1_556 S
O246 C266 1.257 . S
Zn247 N243 2.020 . S
Zn247 O254 1.975 . S
Zn247 N263 2.119 . S
Zn247 O268 2.019 . S
N248 Zn238 2.119 . S
N248 C250 1.334 . S
N248 C251 1.328 . S
C249 C250 1.391 . S
C249 N252 1.329 . S
C249 H270 0.930 . S
C250 N248 1.334 . S
C250 C249 1.391 . S
C250 H257 0.930 . S
C251 N248 1.328 . S
C251 C253 1.392 . S
C251 H258 0.930 1_554 S
N252 C249 1.329 . S
N252 C253 1.331 . S
C253 C251 1.392 . S
C253 N252 1.331 . S
O254 Zn247 1.975 . S
O254 C255 1.252 . S
C255 O254 1.252 . S
C255 O256 1.252 . S
O256 Zn238 1.975 . S
O256 C255 1.252 . S
H257 C250 0.930 . S
H258 C251 0.930 1_556 S
C259 C260 1.392 . S
C259 N263 1.328 1_545 S
C259 H265 0.930 . S
C260 C259 1.392 . S
C260 N264 1.331 . S
C261 C262 1.391 . S
C261 N264 1.329 . S
C261 H271 0.930 . S
C262 C261 1.391 . S
C262 N263 1.334 1_545 S
C262 H269 0.930 1_545 S
N263 Zn247 2.119 . S
N263 C259 1.328 1_565 S
N263 C262 1.334 1_565 S
N264 C260 1.331 . S
N264 C261 1.329 . S
H265 C259 0.930 . S
C266 O246 1.257 . S
C266 O267 1.244 . S
O267 C266 1.244 . S
O268 C244 1.257 . S
O268 Zn247 2.019 . S
H269 C262 0.930 1_565 S
H270 C249 0.930 . S
H271 C261 0.930 . S
C272 C273 1.387 . S
C272 H276 0.950 . S
C272 C281 1.390 . S
C273 C272 1.387 . S
C273 C275 1.387 . S
H274 C281 0.950 . S
C275 C273 1.387 . S
C275 C277 1.390 . S
C275 H279 0.950 . S
H276 C272 0.950 . S
C277 C275 1.390 . S
C277 C278 1.387 . S
C277 H280 0.950 . S
C278 C277 1.387 . S
C278 C281 1.387 . S
H279 C275 0.950 . S
H280 C277 0.950 . S
C281 C272 1.390 . S
C281 H274 0.950 . S
C281 C278 1.387 . S
C282 C283 1.387 . S
C282 H286 0.950 . S
C282 C291 1.390 . S
C283 C282 1.387 . S
C283 C285 1.387 . S
H284 C291 0.950 . S
C285 C283 1.387 . S
C285 C287 1.390 . S
C285 H289 0.950 . S
H286 C282 0.950 . S
C287 C285 1.390 . S
C287 C288 1.387 . S
C287 H290 0.950 . S
C288 C287 1.387 . S
C288 C291 1.387 . S
H289 C285 0.950 . S
H290 C287 0.950 . S
C291 C282 1.390 . S
C291 H284 0.950 . S
C291 C288 1.387 . S
C292 C293 1.387 . S
C292 H296 0.950 . S
C292 C301 1.390 . S
C293 C292 1.387 . S
C293 C295 1.387 1_556 S
H294 C301 0.950 . S
C295 C293 1.387 1_554 S
C295 C297 1.390 . S
C295 H299 0.950 . S
H296 C292 0.950 . S
C297 C295 1.390 . S
C297 C298 1.387 1_554 S
C297 H300 0.950 . S
C298 C297 1.387 1_556 S
C298 C301 1.387 . S
H299 C295 0.950 . S
H300 C297 0.950 . S
C301 C292 1.390 . S
C301 H294 0.950 . S
C301 C298 1.387 . S
C302 C303 1.387 . S
C302 H306 0.950 . S
C302 C311 1.390 . S
C303 C302 1.387 . S
C303 C305 1.387 . S
H304 C311 0.950 . S
C305 C303 1.387 . S
C305 C307 1.390 . S
C305 H309 0.950 . S
H306 C302 0.950 . S
C307 C305 1.390 . S
C307 C308 1.387 . S
C307 H310 0.950 . S
C308 C307 1.387 . S
C308 C311 1.387 . S
H309 C305 0.950 . S
H310 C307 0.950 . S
C311 C302 1.390 . S
C311 H304 0.950 . S
C311 C308 1.387 . S
C312 C313 1.387 . S
C312 H316 0.950 . S
C312 C321 1.390 . S
C313 C312 1.387 . S
C313 C315 1.387 . S
H314 C321 0.950 . S
C315 C313 1.387 . S
C315 C317 1.390 . S
C315 H319 0.950 . S
H316 C312 0.950 . S
C317 C315 1.390 . S
C317 C318 1.387 . S
C317 H320 0.950 . S
C318 C317 1.387 . S
C318 C321 1.387 . S
H319 C315 0.950 . S
H320 C317 0.950 . S
C321 C312 1.390 . S
C321 H314 0.950 . S
C321 C318 1.387 . S
C322 C323 1.387 . S
C322 H326 0.950 . S
C322 C331 1.390 . S
C323 C322 1.387 . S
C323 C325 1.387 . S
H324 C331 0.950 . S
C325 C323 1.387 . S
C325 C327 1.390 . S
C325 H329 0.950 . S
H326 C322 0.950 . S
C327 C325 1.390 . S
C327 C328 1.387 . S
C327 H330 0.950 . S
C328 C327 1.387 . S
C328 C331 1.387 . S
H329 C325 0.950 . S
H330 C327 0.950 . S
C331 C322 1.390 . S
C331 H324 0.950 . S
C331 C328 1.387 . S
C332 C333 1.387 . S
C332 H336 0.950 . S
C332 C341 1.390 . S
C333 C332 1.387 . S
C333 C335 1.387 . S
H334 C341 0.950 . S
C335 C333 1.387 . S
C335 C337 1.390 . S
C335 H339 0.950 . S
H336 C332 0.950 . S
C337 C335 1.390 . S
C337 C338 1.387 . S
C337 H340 0.950 . S
C338 C337 1.387 . S
C338 C341 1.387 . S
H339 C335 0.950 . S
H340 C337 0.950 . S
C341 C332 1.390 . S
C341 H334 0.950 . S
C341 C338 1.387 . S
C342 C343 1.387 1_556 S
C342 H346 0.950 . S
C342 C351 1.390 . S
C343 C342 1.387 1_554 S
C343 C345 1.387 . S
H344 C351 0.950 . S
C345 C343 1.387 . S
C345 C347 1.390 . S
C345 H349 0.950 . S
H346 C342 0.950 . S
C347 C345 1.390 . S
C347 C348 1.387 . S
C347 H350 0.950 . S
C348 C347 1.387 . S
C348 C351 1.387 1_554 S
H349 C345 0.950 . S
H350 C347 0.950 . S
C351 C342 1.390 . S
C351 H344 0.950 . S
C351 C348 1.387 1_556 S
C352 C353 1.387 . S
C352 H356 0.950 . S
C352 C361 1.390 1_556 S
C353 C352 1.387 . S
C353 C355 1.387 . S
H354 C361 0.950 . S
C355 C353 1.387 . S
C355 C357 1.390 1_556 S
C355 H359 0.950 . S
H356 C352 0.950 . S
C357 C355 1.390 1_554 S
C357 C358 1.387 . S
C357 H360 0.950 . S
C358 C357 1.387 . S
C358 C361 1.387 . S
H359 C355 0.950 . S
H360 C357 0.950 . S
C361 C352 1.390 1_554 S
C361 H354 0.950 . S
C361 C358 1.387 . S
C362 C363 1.387 . S
C362 H366 0.950 . S
C362 C371 1.390 . S
C363 C362 1.387 . S
C363 C365 1.387 . S
H364 C371 0.950 . S
C365 C363 1.387 . S
C365 C367 1.390 . S
C365 H369 0.950 . S
H366 C362 0.950 . S
C367 C365 1.390 . S
C367 C368 1.387 . S
C367 H370 0.950 . S
C368 C367 1.387 . S
C368 C371 1.387 . S
H369 C365 0.950 . S
H370 C367 0.950 . S
C371 C362 1.390 . S
C371 H364 0.950 . S
C371 C368 1.387 . S
C372 C373 1.387 . S
C372 H376 0.950 . S
C372 C381 1.390 . S
C373 C372 1.387 . S
C373 C375 1.387 . S
H374 C381 0.950 . S
C375 C373 1.387 . S
C375 C377 1.390 . S
C375 H379 0.950 . S
H376 C372 0.950 . S
C377 C375 1.390 . S
C377 C378 1.387 . S
C377 H380 0.950 . S
C378 C377 1.387 . S
C378 C381 1.387 . S
H379 C375 0.950 . S
H380 C377 0.950 . S
C381 C372 1.390 . S
C381 H374 0.950 . S
C381 C378 1.387 . S
C382 C383 1.387 . S
C382 H386 0.950 . S
C382 C391 1.390 . S
C383 C382 1.387 . S
C383 C385 1.387 . S
H384 C391 0.950 . S
C385 C383 1.387 . S
C385 C387 1.390 . S
C385 H389 0.950 . S
H386 C382 0.950 . S
C387 C385 1.390 . S
C387 C388 1.387 . S
C387 H390 0.950 . S
C388 C387 1.387 . S
C388 C391 1.387 . S
H389 C385 0.950 . S
H390 C387 0.950 . S
C391 C382 1.390 . S
C391 H384 0.950 . S
C391 C388 1.387 . S
C392 C393 1.387 . S
C392 H396 0.950 . S
C392 C401 1.390 . S
C393 C392 1.387 . S
C393 C395 1.387 . S
H394 C401 0.950 . S
C395 C393 1.387 . S
C395 C397 1.390 . S
C395 H399 0.950 . S
H396 C392 0.950 . S
C397 C395 1.390 . S
C397 C398 1.387 . S
C397 H400 0.950 . S
C398 C397 1.387 . S
C398 C401 1.387 . S
H399 C395 0.950 . S
H400 C397 0.950 . S
C401 C392 1.390 . S
C401 H394 0.950 . S
C401 C398 1.387 . S
C402 C403 1.387 . S
C402 H406 0.950 . S
C402 C411 1.390 . S
C403 C402 1.387 . S
C403 C405 1.387 . S
H404 C411 0.950 . S
C405 C403 1.387 . S
C405 C407 1.390 . S
C405 H409 0.950 . S
H406 C402 0.950 . S
C407 C405 1.390 . S
C407 C408 1.387 1_554 S
C407 H410 0.950 . S
C408 C407 1.387 1_556 S
C408 C411 1.387 1_556 S
H409 C405 0.950 . S
H410 C407 0.950 . S
C411 C402 1.390 . S
C411 H404 0.950 . S
C411 C408 1.387 1_554 S
C412 C413 1.387 . S
C412 H416 0.950 . S
C412 C421 1.390 . S
C413 C412 1.387 . S
C413 C415 1.387 . S
H414 C421 0.950 . S
C415 C413 1.387 . S
C415 C417 1.390 . S
C415 H419 0.950 1_655 S
H416 C412 0.950 . S
C417 C415 1.390 . S
C417 C418 1.387 . S
C417 H420 0.950 . S
C418 C417 1.387 . S
C418 C421 1.387 . S
H419 C415 0.950 1_455 S
H420 C417 0.950 . S
C421 C412 1.390 . S
C421 H414 0.950 . S
C421 C418 1.387 . S
C422 C423 1.387 . S
C422 H426 0.950 . S
C422 C431 1.390 . S
C423 C422 1.387 . S
C423 C425 1.387 . S
H424 C431 0.950 . S
C425 C423 1.387 . S
C425 C427 1.390 . S
C425 H429 0.950 . S
H426 C422 0.950 . S
C427 C425 1.390 . S
C427 C428 1.387 . S
C427 H430 0.950 . S
C428 C427 1.387 . S
C428 C431 1.387 . S
H429 C425 0.950 . S
H430 C427 0.950 . S
C431 C422 1.390 . S
C431 H424 0.950 . S
C431 C428 1.387 . S
C432 C433 1.387 1_556 S
C432 H436 0.950 . S
C432 C441 1.390 . S
C433 C432 1.387 1_554 S
C433 C435 1.387 1_554 S
H434 C441 0.950 . S
C435 C433 1.387 1_556 S
C435 C437 1.390 . S
C435 H439 0.950 1_556 S
H436 C432 0.950 . S
C437 C435 1.390 . S
C437 C438 1.387 . S
C437 H440 0.950 . S
C438 C437 1.387 . S
C438 C441 1.387 . S
H439 C435 0.950 1_554 S
H440 C437 0.950 . S
C441 C432 1.390 . S
C441 H434 0.950 . S
C441 C438 1.387 . S
C442 C443 1.387 . S
C442 H446 0.950 1_545 S
C442 C451 1.390 . S
C443 C442 1.387 . S
C443 C445 1.387 . S
H444 C451 0.950 1_565 S
C445 C443 1.387 . S
C445 C447 1.390 . S
C445 H449 0.950 . S
H446 C442 0.950 1_565 S
C447 C445 1.390 . S
C447 C448 1.387 . S
C447 H450 0.950 . S
C448 C447 1.387 . S
C448 C451 1.387 . S
H449 C445 0.950 . S
H450 C447 0.950 . S
C451 C442 1.390 . S
C451 H444 0.950 1_545 S
C451 C448 1.387 . S
C452 C453 1.387 . S
C452 H456 0.950 . S
C452 C461 1.390 . S
C453 C452 1.387 . S
C453 C455 1.387 . S
H454 C461 0.950 . S
C455 C453 1.387 . S
C455 C457 1.390 . S
C455 H459 0.950 . S
H456 C452 0.950 . S
C457 C455 1.390 . S
C457 C458 1.387 . S
C457 H460 0.950 . S
C458 C457 1.387 . S
C458 C461 1.387 . S
H459 C455 0.950 . S
H460 C457 0.950 . S
C461 C452 1.390 . S
C461 H454 0.950 . S
C461 C458 1.387 . S
C462 C463 1.387 . S
C462 H466 0.950 . S
C462 C471 1.390 . S
C463 C462 1.387 . S
C463 C465 1.387 . S
H464 C471 0.950 1_545 S
C465 C463 1.387 . S
C465 C467 1.390 . S
C465 H469 0.950 . S
H466 C462 0.950 . S
C467 C465 1.390 . S
C467 C468 1.387 . S
C467 H470 0.950 . S
C468 C467 1.387 . S
C468 C471 1.387 . S
H469 C465 0.950 . S
H470 C467 0.950 . S
C471 C462 1.390 . S
C471 H464 0.950 1_565 S
C471 C468 1.387 . S
C472 C473 1.387 . S
C472 H476 0.950 . S
C472 C481 1.390 . S
C473 C472 1.387 . S
C473 C475 1.387 . S
H474 C481 0.950 . S
C475 C473 1.387 . S
C475 C477 1.390 . S
C475 H479 0.950 . S
H476 C472 0.950 . S
C477 C475 1.390 . S
C477 C478 1.387 . S
C477 H480 0.950 . S
C478 C477 1.387 . S
C478 C481 1.387 . S
H479 C475 0.950 . S
H480 C477 0.950 . S
C481 C472 1.390 . S
C481 H474 0.950 . S
C481 C478 1.387 . S
C482 C483 1.387 . S
C482 H486 0.950 . S
C482 C491 1.390 . S
C483 C482 1.387 . S
C483 C485 1.387 . S
H484 C491 0.950 . S
C485 C483 1.387 . S
C485 C487 1.390 . S
C485 H489 0.950 . S
H486 C482 0.950 . S
C487 C485 1.390 . S
C487 C488 1.387 . S
C487 H490 0.950 . S
C488 C487 1.387 . S
C488 C491 1.387 . S
H489 C485 0.950 . S
H490 C487 0.950 . S
C491 C482 1.390 . S
C491 H484 0.950 . S
C491 C488 1.387 . S
C492 C493 1.387 1_554 S
C492 H496 0.950 . S
C492 C501 1.390 . S
C493 C492 1.387 1_556 S
C493 C495 1.387 . S
H494 C501 0.950 . S
C495 C493 1.387 . S
C495 C497 1.390 . S
C495 H499 0.950 . S
H496 C492 0.950 . S
C497 C495 1.390 . S
C497 C498 1.387 1_556 S
C497 H500 0.950 . S
C498 C497 1.387 1_554 S
C498 C501 1.387 . S
H499 C495 0.950 . S
H500 C497 0.950 . S
C501 C492 1.390 . S
C501 H494 0.950 . S
C501 C498 1.387 . S
C502 C503 1.387 . S
C502 H506 0.950 . S
C502 C511 1.390 . S
C503 C502 1.387 . S
C503 C505 1.387 . S
H504 C511 0.950 . S
C505 C503 1.387 . S
C505 C507 1.390 . S
C505 H509 0.950 . S
H506 C502 0.950 . S
C507 C505 1.390 . S
C507 C508 1.387 . S
C507 H510 0.950 . S
C508 C507 1.387 . S
C508 C511 1.387 . S
H509 C505 0.950 . S
H510 C507 0.950 . S
C511 C502 1.390 . S
C511 H504 0.950 . S
C511 C508 1.387 . S
C512 C513 1.387 . S
C512 H516 0.950 . S
C512 C521 1.390 . S
C513 C512 1.387 . S
C513 C515 1.387 . S
H514 C521 0.950 . S
C515 C513 1.387 . S
C515 C517 1.390 . S
C515 H519 0.950 . S
H516 C512 0.950 . S
C517 C515 1.390 . S
C517 C518 1.387 . S
C517 H520 0.950 . S
C518 C517 1.387 . S
C518 C521 1.387 . S
H519 C515 0.950 . S
H520 C517 0.950 . S
C521 C512 1.390 . S
C521 H514 0.950 . S
C521 C518 1.387 . S
C522 C523 1.387 . S
C522 H526 0.950 . S
C522 C531 1.390 . S
C523 C522 1.387 . S
C523 C525 1.387 . S
H524 C531 0.950 . S
C525 C523 1.387 . S
C525 C527 1.390 . S
C525 H529 0.950 . S
H526 C522 0.950 . S
C527 C525 1.390 . S
C527 C528 1.387 . S
C527 H530 0.950 . S
C528 C527 1.387 . S
C528 C531 1.387 . S
H529 C525 0.950 . S
H530 C527 0.950 . S
C531 C522 1.390 . S
C531 H524 0.950 . S
C531 C528 1.387 . S
C532 C533 1.387 . S
C532 H536 0.950 . S
C532 C541 1.390 . S
C533 C532 1.387 . S
C533 C535 1.387 . S
H534 C541 0.950 . S
C535 C533 1.387 . S
C535 C537 1.390 . S
C535 H539 0.950 . S
H536 C532 0.950 . S
C537 C535 1.390 . S
C537 C538 1.387 . S
C537 H540 0.950 . S
C538 C537 1.387 . S
C538 C541 1.387 . S
H539 C535 0.950 . S
H540 C537 0.950 . S
C541 C532 1.390 . S
C541 H534 0.950 . S
C541 C538 1.387 . S
C542 C543 1.387 1_554 S
C542 H546 0.950 . S
C542 C551 1.390 . S
C543 C542 1.387 1_556 S
C543 C545 1.387 . S
H544 C551 0.950 . S
C545 C543 1.387 . S
C545 C547 1.390 . S
C545 H549 0.950 . S
H546 C542 0.950 . S
C547 C545 1.390 . S
C547 C548 1.387 1_556 S
C547 H550 0.950 . S
C548 C547 1.387 1_554 S
C548 C551 1.387 . S
H549 C545 0.950 . S
H550 C547 0.950 . S
C551 C542 1.390 . S
C551 H544 0.950 . S
C551 C548 1.387 . S
C273 C15 1.672 . S
C278 C51 1.695 . S
C283 C85 1.639 1_455 S
C288 C56 1.563 . S
C293 C119 1.632 1_556 S
C298 C83 1.541 . S
C303 C17 1.745 1_655 S
C308 C117 1.773 . S
C313 C151 1.563 . S
C318 C255 1.639 1_545 S
C323 C192 1.670 . S
C328 C153 1.695 . S
C333 C187 1.745 1_565 S
C338 C219 1.772 . S
C343 C253 1.540 . S
C348 C221 1.631 1_554 S
C353 C173 2.595 . S
C358 C1 2.596 . S
C363 C205 2.418 . S
C368 C37 2.416 . S
C373 C69 2.614 . S
C378 C239 2.613 . S
C383 C137 2.418 . S
C388 C103 2.415 . S
C393 C28 1.205 . S
C398 C6 1.210 1_556 S
C403 C62 1.214 . S
C408 C40 1.209 . S
C413 C74 1.220 . S
C418 C96 1.220 . S
C423 C130 1.218 . S
C428 C108 1.217 . S
C433 C164 1.208 . S
C438 C142 1.214 . S
C443 C176 1.206 . S
C448 C198 1.210 1_554 S
C453 C210 1.217 . S
C458 C232 1.219 . S
C463 C266 1.221 . S
C468 C244 1.220 . S
C473 C171 1.440 . S
C478 C3 1.437 . S
C483 C207 1.528 . S
C488 C35 1.532 . S
C493 C71 1.353 . S
C498 C241 1.351 . S
C503 C139 1.532 . S
C508 C105 1.531 . S
C513 C22 1.579 . S
C518 C260 1.590 . S
C523 C158 1.502 . S
C528 C49 1.501 . S
C533 C185 1.584 . S
C538 C90 1.594 . S
C543 C124 1.927 . S
C548 C226 1.928 . S
