# Generated by pormake.
# Topology uka, (4)-cn, num edge types: 1
# Building blocks:
#     Node 0, Type 0, BuildingBlock: AZAVOO_clean_sbu_0, # of connection points: 4
#     Node 1, Type 0, BuildingBlock: AZAVOO_clean_sbu_0, # of connection points: 4
#     Node 2, Type 0, BuildingBlock: AZAVOO_clean_sbu_0, # of connection points: 4
#     Node 3, Type 0, BuildingBlock: AZAVOO_clean_sbu_0, # of connection points: 4
#     Node 4, Type 0, BuildingBlock: AZAVOO_clean_sbu_0, # of connection points: 4
#     Node 5, Type 0, BuildingBlock: AZAVOO_clean_sbu_0, # of connection points: 4
#     Node 6, Type 0, BuildingBlock: AZAVOO_clean_sbu_0, # of connection points: 4
#     Node 7, Type 0, BuildingBlock: AZAVOO_clean_sbu_0, # of connection points: 4
#     Node 8, Type 0, BuildingBlock: AZAVOO_clean_sbu_0, # of connection points: 4
#     Node 9, Type 0, BuildingBlock: AZAVOO_clean_sbu_0, # of connection points: 4
#     Node 10, Type 0, BuildingBlock: AZAVOO_clean_sbu_0, # of connection points: 4
#     Node 11, Type 0, BuildingBlock: AZAVOO_clean_sbu_0, # of connection points: 4
#     Node 12, Type 0, BuildingBlock: AZAVOO_clean_sbu_0, # of connection points: 4
#     Node 13, Type 0, BuildingBlock: AZAVOO_clean_sbu_0, # of connection points: 4
#     Node 14, Type 0, BuildingBlock: AZAVOO_clean_sbu_0, # of connection points: 4
#     Node 15, Type 0, BuildingBlock: AZAVOO_clean_sbu_0, # of connection points: 4
#     Node 16, Type 0, BuildingBlock: AZAVOO_clean_sbu_0, # of connection points: 4
#     Node 17, Type 0, BuildingBlock: AZAVOO_clean_sbu_0, # of connection points: 4
#     Node 18, Type 0, BuildingBlock: AZAVOO_clean_sbu_0, # of connection points: 4
#     Node 19, Type 0, BuildingBlock: AZAVOO_clean_sbu_0, # of connection points: 4
#     Node 20, Type 0, BuildingBlock: AZAVOO_clean_sbu_0, # of connection points: 4
#     Node 21, Type 0, BuildingBlock: AZAVOO_clean_sbu_0, # of connection points: 4
#     Node 22, Type 0, BuildingBlock: AZAVOO_clean_sbu_0, # of connection points: 4
#     Node 23, Type 0, BuildingBlock: AZAVOO_clean_sbu_0, # of connection points: 4
#     Node 24, Type 0, BuildingBlock: AZAVOO_clean_sbu_0, # of connection points: 4
#     Node 25, Type 0, BuildingBlock: AZAVOO_clean_sbu_0, # of connection points: 4
#     Node 26, Type 0, BuildingBlock: AZAVOO_clean_sbu_0, # of connection points: 4
#     Node 27, Type 0, BuildingBlock: AZAVOO_clean_sbu_0, # of connection points: 4
#     Node 28, Type 0, BuildingBlock: AZAVOO_clean_sbu_0, # of connection points: 4
#     Node 29, Type 0, BuildingBlock: AZAVOO_clean_sbu_0, # of connection points: 4
#     Node 30, Type 0, BuildingBlock: AZAVOO_clean_sbu_0, # of connection points: 4
#     Node 31, Type 0, BuildingBlock: AZAVOO_clean_sbu_0, # of connection points: 4
#     Edge 32, Type (0, 0), BuildingBlock: XIVTED_clean_linker_0, # of connection points: 2
#     Edge 33, Type (0, 0), BuildingBlock: XIVTED_clean_linker_0, # of connection points: 2
#     Edge 34, Type (0, 0), BuildingBlock: XIVTED_clean_linker_0, # of connection points: 2
#     Edge 35, Type (0, 0), BuildingBlock: XIVTED_clean_linker_0, # of connection points: 2
#     Edge 36, Type (0, 0), BuildingBlock: XIVTED_clean_linker_0, # of connection points: 2
#     Edge 37, Type (0, 0), BuildingBlock: XIVTED_clean_linker_0, # of connection points: 2
#     Edge 38, Type (0, 0), BuildingBlock: XIVTED_clean_linker_0, # of connection points: 2
#     Edge 39, Type (0, 0), BuildingBlock: XIVTED_clean_linker_0, # of connection points: 2
#     Edge 40, Type (0, 0), BuildingBlock: XIVTED_clean_linker_0, # of connection points: 2
#     Edge 41, Type (0, 0), BuildingBlock: XIVTED_clean_linker_0, # of connection points: 2
#     Edge 42, Type (0, 0), BuildingBlock: XIVTED_clean_linker_0, # of connection points: 2
#     Edge 43, Type (0, 0), BuildingBlock: XIVTED_clean_linker_0, # of connection points: 2
#     Edge 44, Type (0, 0), BuildingBlock: XIVTED_clean_linker_0, # of connection points: 2
#     Edge 45, Type (0, 0), BuildingBlock: XIVTED_clean_linker_0, # of connection points: 2
#     Edge 46, Type (0, 0), BuildingBlock: XIVTED_clean_linker_0, # of connection points: 2
#     Edge 47, Type (0, 0), BuildingBlock: XIVTED_clean_linker_0, # of connection points: 2
#     Edge 48, Type (0, 0), BuildingBlock: XIVTED_clean_linker_0, # of connection points: 2
#     Edge 49, Type (0, 0), BuildingBlock: XIVTED_clean_linker_0, # of connection points: 2
#     Edge 50, Type (0, 0), BuildingBlock: XIVTED_clean_linker_0, # of connection points: 2
#     Edge 51, Type (0, 0), BuildingBlock: XIVTED_clean_linker_0, # of connection points: 2
#     Edge 52, Type (0, 0), BuildingBlock: XIVTED_clean_linker_0, # of connection points: 2
#     Edge 53, Type (0, 0), BuildingBlock: XIVTED_clean_linker_0, # of connection points: 2
#     Edge 54, Type (0, 0), BuildingBlock: XIVTED_clean_linker_0, # of connection points: 2
#     Edge 55, Type (0, 0), BuildingBlock: XIVTED_clean_linker_0, # of connection points: 2
#     Edge 56, Type (0, 0), BuildingBlock: XIVTED_clean_linker_0, # of connection points: 2
#     Edge 57, Type (0, 0), BuildingBlock: XIVTED_clean_linker_0, # of connection points: 2
#     Edge 58, Type (0, 0), BuildingBlock: XIVTED_clean_linker_0, # of connection points: 2
#     Edge 59, Type (0, 0), BuildingBlock: XIVTED_clean_linker_0, # of connection points: 2
#     Edge 60, Type (0, 0), BuildingBlock: XIVTED_clean_linker_0, # of connection points: 2
#     Edge 61, Type (0, 0), BuildingBlock: XIVTED_clean_linker_0, # of connection points: 2
#     Edge 62, Type (0, 0), BuildingBlock: XIVTED_clean_linker_0, # of connection points: 2
#     Edge 63, Type (0, 0), BuildingBlock: XIVTED_clean_linker_0, # of connection points: 2
#     Edge 64, Type (0, 0), BuildingBlock: XIVTED_clean_linker_0, # of connection points: 2
#     Edge 65, Type (0, 0), BuildingBlock: XIVTED_clean_linker_0, # of connection points: 2
#     Edge 66, Type (0, 0), BuildingBlock: XIVTED_clean_linker_0, # of connection points: 2
#     Edge 67, Type (0, 0), BuildingBlock: XIVTED_clean_linker_0, # of connection points: 2
#     Edge 68, Type (0, 0), BuildingBlock: XIVTED_clean_linker_0, # of connection points: 2
#     Edge 69, Type (0, 0), BuildingBlock: XIVTED_clean_linker_0, # of connection points: 2
#     Edge 70, Type (0, 0), BuildingBlock: XIVTED_clean_linker_0, # of connection points: 2
#     Edge 71, Type (0, 0), BuildingBlock: XIVTED_clean_linker_0, # of connection points: 2
#     Edge 72, Type (0, 0), BuildingBlock: XIVTED_clean_linker_0, # of connection points: 2
#     Edge 73, Type (0, 0), BuildingBlock: XIVTED_clean_linker_0, # of connection points: 2
#     Edge 74, Type (0, 0), BuildingBlock: XIVTED_clean_linker_0, # of connection points: 2
#     Edge 75, Type (0, 0), BuildingBlock: XIVTED_clean_linker_0, # of connection points: 2
#     Edge 76, Type (0, 0), BuildingBlock: XIVTED_clean_linker_0, # of connection points: 2
#     Edge 77, Type (0, 0), BuildingBlock: XIVTED_clean_linker_0, # of connection points: 2
#     Edge 78, Type (0, 0), BuildingBlock: XIVTED_clean_linker_0, # of connection points: 2
#     Edge 79, Type (0, 0), BuildingBlock: XIVTED_clean_linker_0, # of connection points: 2
#     Edge 80, Type (0, 0), BuildingBlock: XIVTED_clean_linker_0, # of connection points: 2
#     Edge 81, Type (0, 0), BuildingBlock: XIVTED_clean_linker_0, # of connection points: 2
#     Edge 82, Type (0, 0), BuildingBlock: XIVTED_clean_linker_0, # of connection points: 2
#     Edge 83, Type (0, 0), BuildingBlock: XIVTED_clean_linker_0, # of connection points: 2
#     Edge 84, Type (0, 0), BuildingBlock: XIVTED_clean_linker_0, # of connection points: 2
#     Edge 85, Type (0, 0), BuildingBlock: XIVTED_clean_linker_0, # of connection points: 2
#     Edge 86, Type (0, 0), BuildingBlock: XIVTED_clean_linker_0, # of connection points: 2
#     Edge 87, Type (0, 0), BuildingBlock: XIVTED_clean_linker_0, # of connection points: 2
#     Edge 88, Type (0, 0), BuildingBlock: XIVTED_clean_linker_0, # of connection points: 2
#     Edge 89, Type (0, 0), BuildingBlock: XIVTED_clean_linker_0, # of connection points: 2
#     Edge 90, Type (0, 0), BuildingBlock: XIVTED_clean_linker_0, # of connection points: 2
#     Edge 91, Type (0, 0), BuildingBlock: XIVTED_clean_linker_0, # of connection points: 2
#     Edge 92, Type (0, 0), BuildingBlock: XIVTED_clean_linker_0, # of connection points: 2
#     Edge 93, Type (0, 0), BuildingBlock: XIVTED_clean_linker_0, # of connection points: 2
#     Edge 94, Type (0, 0), BuildingBlock: XIVTED_clean_linker_0, # of connection points: 2
#     Edge 95, Type (0, 0), BuildingBlock: XIVTED_clean_linker_0, # of connection points: 2
# Relax obj value: 0.272
# Max RMSD: 0.259
# Mean RMSD: 0.247
data_MOF--net-uka--node1-AZAVOO_clean_sbu_0--edge1-XIVTED_clean_linker_0
_symmetry_space_group_name_H-M    P1
_symmetry_Int_Tables_number       1
_symmetry_cell_setting            triclinic
loop_
_symmetry_equiv_pos_as_xyz
'x, y, z'
_cell_length_a     61.095909
_cell_length_b     58.47443
_cell_length_c     42.264912
_cell_angle_alpha  90.050788
_cell_angle_beta   90.165147
_cell_angle_gamma 90.014894
loop_
_atom_site_label
_atom_site_type_symbol
_atom_site_fract_x
_atom_site_fract_y
_atom_site_fract_z
_atom_type_partial_charge
Mg0 Mg 0.11974 0.24903 0.25686 0.0
O1 O 0.08955 0.23157 0.27777 0.0
O2 O 0.06585 0.25811 0.29407 0.0
Mg3 Mg 0.08088 0.29306 0.28204 0.0
C4 C 0.07158 0.23723 0.29093 0.0
C5 C 0.14979 0.20488 0.23661 0.0
O6 O 0.12988 0.21298 0.23617 0.0
O7 O 0.10159 0.25845 0.21072 0.0
O8 O 0.0797 0.28609 0.22883 0.0
O9 O 0.13254 0.24986 0.30662 0.0
O10 O 0.11382 0.27795 0.28425 0.0
C11 C 0.0872 0.27401 0.20614 0.0
C12 C 0.12241 0.26922 0.30925 0.0
O13 O 0.13044 0.21324 0.23649 0.0
Mg14 Mg 0.01212 0.84833 0.52335 0.0
O15 O -0.01016 0.85156 0.56727 0.0
O16 O 0.01144 0.8643 0.60638 0.0
Mg17 Mg 0.04627 0.86938 0.58845 0.0
C18 C -0.00722 0.85778 0.59603 0.0
C19 C -0.0092 0.82686 0.47006 0.0
O20 O 0.01183 0.82214 0.47079 0.0
O21 O 0.01143 0.88699 0.51687 0.0
O22 O 0.03397 0.89812 0.5557 0.0
O23 O 0.02057 0.81299 0.53666 0.0
O24 O 0.03927 0.84314 0.55287 0.0
C25 C 0.02178 0.90262 0.53187 0.0
C26 C 0.03607 0.82135 0.554 0.0
O27 O 0.98342 0.8412 0.49003 0.0
Mg28 Mg 0.37222 0.70979 0.74793 0.0
O29 O 0.38647 0.74476 0.76411 0.0
O30 O 0.42214 0.73839 0.77328 0.0
Mg31 Mg 0.43036 0.70089 0.7659 0.0
C32 C 0.40557 0.75166 0.77225 0.0
C33 C 0.32911 0.73728 0.7489 0.0
O34 O 0.33718 0.74234 0.77688 0.0
O35 O 0.38883 0.71182 0.69941 0.0
O36 O 0.42364 0.70497 0.71304 0.0
O37 O 0.36415 0.70177 0.79805 0.0
O38 O 0.39581 0.69372 0.77526 0.0
C39 C 0.40893 0.70887 0.69225 0.0
C40 C 0.3841 0.69461 0.80053 0.0
O41 O 0.34077 0.72581 0.72974 0.0
Mg42 Mg 0.46374 0.14013 0.03319 0.0
O43 O 0.48532 0.13283 0.07692 0.0
O44 O 0.46302 0.11968 0.11468 0.0
Mg45 Mg 0.42817 0.11694 0.09521 0.0
C46 C 0.48202 0.12555 0.10505 0.0
C47 C 0.49031 0.16586 0.98646 0.0
O48 O 0.47188 0.17691 0.99121 0.0
O49 O 0.46265 0.10181 0.02189 0.0
O50 O 0.43988 0.08988 0.05983 0.0
O51 O 0.45631 0.17466 0.05292 0.0
O52 O 0.4361 0.144 0.0617 0.0
C53 C 0.45176 0.08597 0.03558 0.0
C54 C 0.43994 0.16525 0.06717 0.0
O55 O 0.49344 0.14725 0.00144 0.0
Mg56 Mg 0.10483 0.70907 0.23869 0.0
O57 O 0.08877 0.74345 0.22412 0.0
O58 O 0.05318 0.73565 0.21664 0.0
Mg59 Mg 0.04667 0.69776 0.22374 0.0
C60 C 0.06924 0.74962 0.21716 0.0
C61 C 0.14676 0.7382 0.23519 0.0
O62 O 0.13779 0.74255 0.20755 0.0
O63 O 0.08947 0.71007 0.28809 0.0
O64 O 0.0546 0.70187 0.27628 0.0
O65 O 0.11192 0.70182 0.18809 0.0
O66 O 0.08119 0.69213 0.21227 0.0
C67 C 0.0697 0.70627 0.29628 0.0
C68 C 0.09224 0.69375 0.18644 0.0
O69 O 0.13603 0.72653 0.25522 0.0
Mg70 Mg 0.47217 0.8393 0.45457 0.0
O71 O 0.49379 0.84743 0.41129 0.0
O72 O 0.4712 0.86046 0.37362 0.0
Mg73 Mg 0.4363 0.86243 0.39271 0.0
C74 C 0.4903 0.85486 0.38325 0.0
C75 C 0.49723 0.81365 0.50184 0.0
O76 O 0.47814 0.80391 0.49696 0.0
O77 O 0.47038 0.87738 0.46679 0.0
O78 O 0.44748 0.8893 0.42885 0.0
O79 O 0.46568 0.80489 0.43418 0.0
O80 O 0.44478 0.83512 0.42556 0.0
C81 C 0.45923 0.89315 0.45334 0.0
C82 C 0.44919 0.81404 0.41976 0.0
O83 O 0.50157 0.83197 0.48683 0.0
Mg84 Mg 0.36639 0.26484 0.73381 0.0
O85 O 0.38808 0.23662 0.71182 0.0
O86 O 0.4194 0.25369 0.69775 0.0
Mg87 Mg 0.41794 0.29156 0.71009 0.0
C88 C 0.40725 0.23599 0.69976 0.0
C89 C 0.33126 0.22724 0.73208 0.0
O90 O 0.33863 0.22627 0.70293 0.0
O91 O 0.38651 0.26499 0.77973 0.0
O92 O 0.41716 0.28183 0.7624 0.0
O93 O 0.35376 0.27267 0.68538 0.0
O94 O 0.38224 0.2897 0.70779 0.0
C95 C 0.40582 0.27274 0.78437 0.0
C96 C 0.37 0.28679 0.68334 0.0
O97 O 0.34182 0.23905 0.75226 0.0
Mg98 Mg 0.00757 0.13112 0.95535 0.0
O99 O 0.98563 0.12657 0.9112 0.0
O100 O 0.00761 0.1139 0.87267 0.0
Mg101 Mg 0.04242 0.10986 0.89137 0.0
C102 C -0.01121 0.12008 0.88264 0.0
C103 C 0.9837 0.15355 0.00657 0.0
O104 O 0.00359 0.16197 0.00457 0.0
O105 O 0.0078 0.09264 0.96288 0.0
O106 O 0.03057 0.08135 0.92462 0.0
O107 O 0.01525 0.16643 0.94077 0.0
O108 O 0.03468 0.1364 0.92613 0.0
C109 C 0.01841 0.07701 0.94843 0.0
C110 C 0.03101 0.15806 0.92405 0.0
O111 O 0.97843 0.13724 0.9881 0.0
Mg112 Mg 0.85425 0.78449 0.77493 0.0
O113 O 0.86513 0.76239 0.73311 0.0
O114 O 0.8551 0.77855 0.68733 0.0
Mg115 Mg 0.83758 0.81163 0.70024 0.0
C116 C 0.86421 0.76249 0.70296 0.0
C117 C 0.88028 0.74509 0.80391 0.0
O118 O 0.89357 0.75385 0.78277 0.0
O119 O 0.81928 0.7721 0.76715 0.0
O120 O 0.81048 0.78957 0.72193 0.0
O121 O 0.88575 0.80297 0.77289 0.0
O122 O 0.85682 0.81308 0.74471 0.0
C123 C 0.80572 0.77632 0.74489 0.0
C124 C 0.87753 0.81525 0.75036 0.0
O125 O 0.86168 0.75439 0.80811 0.0
Mg126 Mg 0.98375 0.11747 0.50913 0.0
O127 O -0.00239 0.12942 0.4611 0.0
O128 O 0.97443 0.11819 0.42306 0.0
Mg129 Mg 0.94817 0.09585 0.44588 0.0
C130 C -0.00845 0.12887 0.43212 0.0
C131 C 0.01033 0.14304 0.5566 0.0
O132 O -0.01031 0.14564 0.56445 0.0
O133 O -0.00356 0.08134 0.50098 0.0
O134 O 0.97348 0.06944 0.4631 0.0
O135 O 0.9633 0.14876 0.50935 0.0
O136 O 0.95229 0.11563 0.48963 0.0
C137 C -0.01056 0.06588 0.4821 0.0
C138 C 0.94908 0.13724 0.49316 0.0
O139 O 0.01492 0.12974 0.53376 0.0
Mg140 Mg 0.62161 0.19006 0.28419 0.0
O141 O 0.60938 0.21023 0.2409 0.0
O142 O 0.61777 0.18988 0.19764 0.0
Mg143 Mg 0.63735 0.15875 0.21258 0.0
C144 C 0.60904 0.20723 0.21092 0.0
C145 C 0.60066 0.21711 0.33782 0.0
O146 O 0.59373 0.19608 0.34218 0.0
O147 O 0.65608 0.20284 0.27407 0.0
O148 O 0.66406 0.18325 0.23029 0.0
O149 O 0.59015 0.17136 0.28476 0.0
O150 O 0.61858 0.15985 0.2569 0.0
C151 C 0.66907 0.1979 0.25151 0.0
C152 C 0.59791 0.15814 0.263 0.0
O153 O 0.61432 0.2209 0.3158 0.0
Mg154 Mg 0.47325 0.86873 -0.00124 0.0
O155 O 0.45807 0.86083 0.94984 0.0
O156 O 0.48196 0.87274 0.91344 0.0
Mg157 Mg 0.51142 0.88885 0.9382 0.0
C158 C 0.46385 0.86332 0.92098 0.0
C159 C 0.44302 0.85922 0.05338 0.0
O160 O 0.46091 0.86756 0.06632 0.0
O161 O 0.46486 0.90661 0.99372 0.0
O162 O 0.48981 0.9175 0.95815 0.0
O163 O 0.49007 0.83519 -0.00297 0.0
O164 O 0.50457 0.86746 0.97956 0.0
C165 C 0.47407 0.92205 0.97697 0.0
C166 C 0.50564 0.84554 0.98209 0.0
O167 O 0.44139 0.8594 0.0234 0.0
Mg168 Mg 0.85314 0.2006 0.71105 0.0
O169 O 0.86597 0.21795 0.7564 0.0
O170 O 0.85483 0.19785 0.79854 0.0
Mg171 Mg 0.835 0.16773 0.78029 0.0
C172 C 0.86511 0.21461 0.78624 0.0
C173 C 0.88116 0.24074 0.68678 0.0
O174 O 0.89365 0.23153 0.70866 0.0
O175 O 0.81881 0.21447 0.72113 0.0
O176 O 0.80933 0.19328 0.7628 0.0
O177 O 0.88346 0.18017 0.70936 0.0
O178 O 0.8542 0.16943 0.73612 0.0
C179 C 0.80514 0.20886 0.74256 0.0
C180 C 0.87475 0.16664 0.73 0.0
O181 O 0.86234 0.23215 0.68156 0.0
Mg182 Mg 0.48075 0.11028 0.48387 0.0
O183 O 0.46673 0.12011 0.53271 0.0
O184 O 0.49076 0.10831 0.56916 0.0
Mg185 Mg 0.51888 0.08983 0.54467 0.0
C186 C 0.47296 0.11836 0.56152 0.0
C187 C 0.452 0.12589 0.43099 0.0
O188 O 0.47145 0.12201 0.41888 0.0
O189 O 0.47083 0.07298 0.49071 0.0
O190 O 0.4957 0.06188 0.52645 0.0
O191 O 0.4989 0.1431 0.48418 0.0
O192 O 0.51242 0.11059 0.5025 0.0
C193 C 0.47957 0.05757 0.5081 0.0
C194 C 0.51412 0.13243 0.49958 0.0
O195 O 0.44879 0.12052 0.45973 0.0
Mg196 Mg 0.62756 0.78712 0.20599 0.0
O197 O 0.6164 0.76908 0.25138 0.0
O198 O 0.62455 0.79058 0.29365 0.0
Mg199 Mg 0.64431 0.82068 0.27536 0.0
C200 C 0.616 0.77281 0.28114 0.0
C201 C 0.60152 0.74522 0.18358 0.0
O202 O 0.58863 0.75457 0.20477 0.0
O203 O 0.66203 0.7746 0.21632 0.0
O204 O 0.67053 0.79506 0.25921 0.0
O205 O 0.59623 0.80585 0.20452 0.0
O206 O 0.62506 0.81825 0.23115 0.0
C207 C 0.6752 0.77982 0.23864 0.0
C208 C 0.60431 0.81978 0.22527 0.0
O209 O 0.61977 0.75472 0.17749 0.0
Mg210 Mg -0.0019 0.85967 0.99047 0.0
O211 O 0.01259 0.85445 0.04032 0.0
O212 O 0.98785 0.86624 0.07555 0.0
Mg213 Mg 0.95829 0.88015 0.04852 0.0
C214 C 0.00644 0.85755 0.06888 0.0
C215 C 0.03274 0.85163 0.93893 0.0
O216 O 0.01606 0.85908 0.92215 0.0
O217 O 0.00482 0.89784 0.99326 0.0
O218 O 0.97923 0.90907 0.02767 0.0
O219 O 0.98288 0.82544 0.99401 0.0
O220 O 0.96654 0.8575 0.00876 0.0
C221 C -0.00496 0.91349 0.0089 0.0
C222 C 0.96662 0.83547 0.00786 0.0
O223 O 0.03121 0.85152 0.96889 0.0
Mg224 Mg 0.60587 0.76602 0.75633 0.0
O225 O 0.59041 0.73171 0.77254 0.0
O226 O 0.55461 0.73898 0.77857 0.0
Mg227 Mg 0.54744 0.77652 0.76938 0.0
C228 C 0.57092 0.72535 0.77935 0.0
C229 C 0.649 0.73874 0.76172 0.0
O230 O 0.6408 0.73557 0.79008 0.0
O231 O 0.59083 0.76353 0.70668 0.0
O232 O 0.55577 0.77149 0.71716 0.0
O233 O 0.6125 0.77486 0.80669 0.0
O234 O 0.58178 0.78315 0.78125 0.0
C235 C 0.57111 0.7669 0.69774 0.0
C236 C 0.59266 0.78254 0.80738 0.0
O237 O 0.63745 0.74889 0.74099 0.0
Mg238 Mg 0.50905 0.34106 0.03117 0.0
O239 O 0.48311 0.34311 0.0704 0.0
O240 O 0.49973 0.35722 0.1135 0.0
Mg241 Mg 0.53612 0.36202 0.10292 0.0
C242 C 0.48269 0.34989 0.09916 0.0
C243 C 0.48933 0.31928 0.97466 0.0
O244 O 0.50908 0.31082 0.97849 0.0
O245 O 0.50857 0.37975 0.02564 0.0
O246 O 0.52733 0.391 0.06842 0.0
O247 O 0.51669 0.30578 0.04522 0.0
O248 O 0.53331 0.33607 0.06543 0.0
C249 C 0.51739 0.39541 0.04249 0.0
C250 C 0.53038 0.31421 0.06549 0.0
O251 O 0.483 0.33497 0.99337 0.0
Mg252 Mg 0.86452 0.20732 0.2495 0.0
O253 O 0.88253 0.24013 0.26673 0.0
O254 O 0.91692 0.22899 0.27726 0.0
Mg255 Mg 0.92071 0.19074 0.26989 0.0
C256 C 0.90217 0.2444 0.27568 0.0
C257 C 0.8246 0.23905 0.25066 0.0
O258 O 0.83321 0.24276 0.27872 0.0
O259 O 0.88231 0.20776 0.20181 0.0
O260 O 0.91572 0.19636 0.21691 0.0
O261 O 0.85441 0.20005 0.299 0.0
O262 O 0.88542 0.18815 0.27763 0.0
C263 C 0.90209 0.20238 0.19557 0.0
C264 C 0.87331 0.19044 0.30234 0.0
O265 O 0.83537 0.22727 0.23077 0.0
Mg266 Mg 0.96668 0.62765 0.53205 0.0
O267 O 0.98823 0.62205 0.57622 0.0
O268 O 0.96623 0.60897 0.61441 0.0
Mg269 Mg 0.93189 0.60373 0.59415 0.0
C270 C 0.985 0.61551 0.60472 0.0
C271 C -0.00784 0.65367 0.48531 0.0
O272 O 0.97281 0.66315 0.48872 0.0
O273 O 0.96712 0.58942 0.52172 0.0
O274 O 0.94519 0.57637 0.55993 0.0
O275 O 0.95871 0.66198 0.55042 0.0
O276 O 0.93883 0.63117 0.56043 0.0
C277 C 0.95729 0.57302 0.53573 0.0
C278 C 0.94269 0.65253 0.5654 0.0
O279 O -0.00367 0.63554 0.50084 0.0
Mg280 Mg 0.60627 0.20854 0.73543 0.0
O281 O 0.58919 0.24189 0.71845 0.0
O282 O 0.55403 0.23241 0.71028 0.0
Mg283 Mg 0.54882 0.19445 0.71897 0.0
C284 C 0.56955 0.24703 0.71052 0.0
C285 C 0.64747 0.23895 0.73164 0.0
O286 O 0.63887 0.24208 0.70345 0.0
O287 O 0.58987 0.21018 0.78432 0.0
O288 O 0.55557 0.20024 0.7716 0.0
O289 O 0.61448 0.20021 0.68544 0.0
O290 O 0.58372 0.19 0.70907 0.0
C291 C 0.57009 0.20575 0.79197 0.0
C292 C 0.59511 0.1914 0.68354 0.0
O293 O 0.63671 0.2276 0.75202 0.0
Mg294 Mg 0.97721 0.3363 0.96607 0.0
O295 O -0.00223 0.34131 0.92087 0.0
O296 O 0.97446 0.35175 0.88258 0.0
Mg297 Mg 0.93991 0.35452 0.90275 0.0
C298 C -0.00623 0.34694 0.89218 0.0
C299 C 0.01802 0.3145 -0.0007 0.0
O300 O 0.01267 0.29779 0.97999 0.0
O301 O 0.97516 0.3751 0.97212 0.0
O302 O 0.95149 0.3844 0.93373 0.0
O303 O 0.97026 0.30034 0.95135 0.0
O304 O 0.9494 0.32995 0.93914 0.0
C305 C 0.96383 0.38991 0.95698 0.0
C306 C 0.95361 0.30854 0.93617 0.0
O307 O 0.00767 0.33336 -0.0025 0.0
Mg308 Mg 0.8721 0.75641 0.23872 0.0
O309 O 0.88611 0.72148 0.22227 0.0
O310 O 0.92174 0.72779 0.21313 0.0
Mg311 Mg 0.9302 0.76522 0.22058 0.0
C312 C 0.90514 0.71455 0.21405 0.0
C313 C 0.8288 0.72953 0.23682 0.0
O314 O 0.83705 0.7245 0.209 0.0
O315 O 0.88885 0.75447 0.28739 0.0
O316 O 0.92344 0.76159 0.27331 0.0
O317 O 0.86393 0.76471 0.18858 0.0
O318 O 0.89565 0.77258 0.21154 0.0
C319 C 0.90897 0.75773 0.29433 0.0
C320 C 0.88386 0.77193 0.18627 0.0
O321 O 0.84058 0.74048 0.25653 0.0
Mg322 Mg 0.51177 0.6359 0.4506 0.0
O323 O 0.48894 0.63038 0.40758 0.0
O324 O 0.51033 0.61814 0.36814 0.0
Mg325 Mg 0.5457 0.61541 0.3851 0.0
C326 C 0.49159 0.62378 0.37895 0.0
C327 C 0.48831 0.65823 0.50238 0.0
O328 O 0.50793 0.66717 0.49938 0.0
O329 O 0.5136 0.59746 0.4586 0.0
O330 O 0.53574 0.58666 0.41927 0.0
O331 O 0.51821 0.67136 0.43529 0.0
O332 O 0.53813 0.64179 0.42024 0.0
C333 C 0.52438 0.5821 0.44382 0.0
C334 C 0.53399 0.66336 0.41826 0.0
O335 O 0.48317 0.64147 0.4846 0.0
Mg336 Mg 0.34493 0.28378 0.28433 0.0
O337 O 0.35326 0.26157 0.24144 0.0
O338 O 0.34332 0.27993 0.1972 0.0
Mg339 Mg 0.3282 0.31401 0.212 0.0
C340 C 0.35177 0.26278 0.21135 0.0
C341 C 0.36957 0.25392 0.33177 0.0
O342 O 0.38061 0.27318 0.33144 0.0
O343 O 0.30866 0.27471 0.279 0.0
O344 O 0.29992 0.29467 0.2357 0.0
O345 O 0.37779 0.29891 0.27866 0.0
O346 O 0.34838 0.31305 0.25521 0.0
C347 C 0.29468 0.28139 0.25845 0.0
C348 C 0.36942 0.31233 0.25763 0.0
O349 O 0.35182 0.25265 0.31606 0.0
Mg350 Mg 0.49613 0.61375 0.00571 0.0
O351 O 0.5124 0.6205 0.95733 0.0
O352 O 0.4896 0.60742 0.92004 0.0
Mg353 Mg 0.45987 0.59136 0.94389 0.0
C354 C 0.50739 0.61724 0.92826 0.0
C355 C 0.52601 0.62371 0.06144 0.0
O356 O 0.50824 0.61522 0.07438 0.0
O357 O 0.50522 0.57599 0.00315 0.0
O358 O 0.4816 0.56376 0.96631 0.0
O359 O 0.47888 0.64695 0.00114 0.0
O360 O 0.46531 0.61393 0.98461 0.0
C361 C 0.49687 0.56 0.98637 0.0
C362 C 0.46386 0.63587 0.98584 0.0
O363 O 0.52741 0.62388 0.03146 0.0
Mg364 Mg 0.12359 0.69822 0.77355 0.0
O365 O 0.11265 0.71597 0.72779 0.0
O366 O 0.11987 0.69293 0.68683 0.0
Mg367 Mg 0.13757 0.66173 0.70617 0.0
C368 C 0.11218 0.71148 0.69822 0.0
C369 C 0.12024 0.73394 0.82945 0.0
O370 O 0.1269 0.71635 0.84624 0.0
O371 O 0.15867 0.70791 0.76236 0.0
O372 O 0.16596 0.68529 0.72117 0.0
O373 O 0.09126 0.68148 0.77636 0.0
O374 O 0.1193 0.66649 0.75073 0.0
C375 C 0.17159 0.70081 0.74086 0.0
C376 C 0.09859 0.66617 0.75697 0.0
O377 O 0.11821 0.7318 0.79968 0.0
Mg378 Mg -0.0079 0.35732 0.48992 0.0
O379 O 0.97356 0.3495 0.44365 0.0
O380 O -0.00733 0.36448 0.40373 0.0
Mg381 Mg 0.0229 0.38231 0.42419 0.0
C382 C 0.97622 0.35335 0.41415 0.0
C383 C 0.96423 0.34758 0.5488 0.0
O384 O 0.98152 0.35791 0.56066 0.0
O385 O 0.98044 0.39444 0.48855 0.0
O386 O 0.00117 0.40855 0.44966 0.0
O387 O 0.01211 0.32557 0.48374 0.0
O388 O 0.0216 0.35947 0.46541 0.0
C389 C 0.98689 0.41113 0.47141 0.0
C390 C 0.02561 0.33792 0.46752 0.0
O391 O 0.96274 0.34545 0.51894 0.0
Mg392 Mg 0.35063 0.69345 0.20528 0.0
O393 O 0.36374 0.71308 0.24828 0.0
O394 O 0.35497 0.69477 0.29301 0.0
Mg395 Mg 0.33594 0.66305 0.27828 0.0
C396 C 0.364 0.71132 0.27836 0.0
C397 C 0.37615 0.73403 0.17831 0.0
O398 O 0.38995 0.72458 0.19828 0.0
O399 O 0.3163 0.7063 0.21667 0.0
O400 O 0.30878 0.6869 0.26078 0.0
O401 O 0.38174 0.67435 0.20337 0.0
O402 O 0.35372 0.66344 0.23266 0.0
C403 C 0.30351 0.70137 0.23949 0.0
C404 C 0.37422 0.66135 0.22558 0.0
O405 O 0.35747 0.72485 0.17424 0.0
Mg406 Mg 0.9794 0.61092 0.98293 0.0
O407 O 0.96335 0.61586 0.03199 0.0
O408 O 0.98767 0.60389 0.06798 0.0
Mg409 Mg 0.01814 0.59059 0.043 0.0
C410 C 0.96908 0.61243 0.06075 0.0
C411 C 0.94965 0.62031 0.92773 0.0
O412 O 0.96792 0.61256 0.91536 0.0
O413 O 0.97268 0.57243 0.98492 0.0
O414 O -0.00225 0.56194 0.02074 0.0
O415 O -0.00547 0.64525 0.98796 0.0
O416 O 0.01042 0.61311 0.00324 0.0
C417 C 0.98241 0.55707 0.00128 0.0
C418 C 0.01042 0.63511 0.0026 0.0
O419 O 0.94755 0.61969 0.95762 0.0
Mg420 Mg 0.13127 0.28057 0.71288 0.0
O421 O 0.11766 0.26022 0.75508 0.0
O422 O 0.12697 0.27905 0.79935 0.0
Mg423 Mg 0.14862 0.30896 0.78604 0.0
C424 C 0.11728 0.26262 0.78516 0.0
C425 C 0.11077 0.25692 0.65606 0.0
O426 O 0.10699 0.27876 0.65124 0.0
O427 O 0.16478 0.2654 0.72271 0.0
O428 O 0.17392 0.28307 0.76765 0.0
O429 O 0.10101 0.30111 0.71259 0.0
O430 O 0.12992 0.31021 0.74144 0.0
C431 C 0.178 0.26873 0.74564 0.0
C432 C 0.10938 0.31324 0.73516 0.0
O433 O 0.12231 0.25115 0.67979 0.0
Mg434 Mg 0.49271 0.36838 0.49271 0.0
O435 O 0.50912 0.35825 0.54008 0.0
O436 O 0.49022 0.37513 0.57877 0.0
Mg437 Mg 0.46246 0.39598 0.55715 0.0
C438 C 0.50584 0.36232 0.56943 0.0
C439 C 0.51375 0.34063 0.44239 0.0
O440 O 0.49258 0.34085 0.43675 0.0
O441 O 0.50777 0.4042 0.49503 0.0
O442 O 0.48714 0.41961 0.53315 0.0
O443 O 0.46981 0.33886 0.49735 0.0
O444 O 0.46287 0.37348 0.51559 0.0
C445 C 0.50219 0.42117 0.51234 0.0
C446 C 0.45714 0.35237 0.51316 0.0
O447 O 0.52107 0.35272 0.46508 0.0
H448 H 0.03532 0.13913 0.43152 0.0
H449 H 0.02765 0.23726 0.30477 0.0
H450 H 0.97528 0.15034 0.37982 0.0
H451 H 0.08627 0.19668 0.3146 0.0
H452 H 0.00784 0.20897 0.3368 0.0
H453 H 0.05451 0.16387 0.39372 0.0
C454 C 0.02623 0.1467 0.41213 0.0
C455 C 0.00374 0.14259 0.40864 0.0
C456 C 0.02498 0.20621 0.33155 0.0
C457 C 0.0254 0.17121 0.36596 0.0
C458 C 0.03627 0.2223 0.31335 0.0
C459 C 0.0586 0.21926 0.30688 0.0
C460 C 0.03629 0.18736 0.34413 0.0
C461 C 0.06902 0.19961 0.31874 0.0
C462 C 0.03717 0.16071 0.39057 0.0
C463 C -0.0073 0.15288 0.38314 0.0
N464 N 0.05787 0.18459 0.33719 0.0
N465 N 0.00357 0.16697 0.363 0.0
H466 H 0.06323 0.83298 0.60374 0.0
H467 H 0.09817 0.70397 0.63773 0.0
H468 H 0.03757 0.77502 0.55226 0.0
H469 H 0.10316 0.75679 0.70891 0.0
H470 H 0.0808 0.73134 0.60216 0.0
H471 H 0.08277 0.8066 0.63893 0.0
C472 C 0.06173 0.81478 0.59977 0.0
C473 C 0.04863 0.80619 0.57518 0.0
C474 C 0.08572 0.73694 0.62556 0.0
C475 C 0.07105 0.77608 0.61492 0.0
C476 C 0.09571 0.72136 0.64584 0.0
C477 C 0.10206 0.7281 0.67638 0.0
C478 C 0.08226 0.7595 0.6357 0.0
C479 C 0.09838 0.75085 0.68563 0.0
C480 C 0.07283 0.79976 0.61989 0.0
C481 C 0.04735 0.78241 0.57107 0.0
N482 N 0.08875 0.7658 0.6653 0.0
N483 N 0.05847 0.76821 0.59067 0.0
H484 H 0.42447 0.84057 0.92601 0.0
H485 H 0.43921 0.78081 0.76114 0.0
H486 H 0.47245 0.86229 0.85744 0.0
H487 H 0.37972 0.77406 0.81483 0.0
H488 H 0.44956 0.81361 0.79364 0.0
H489 H 0.40578 0.81883 0.88441 0.0
C490 C 0.43091 0.84109 0.90217 0.0
C491 C 0.45032 0.85301 0.89542 0.0
C492 C 0.43397 0.80538 0.79794 0.0
C493 C 0.42906 0.82802 0.84777 0.0
C494 C 0.42804 0.78672 0.77925 0.0
C495 C 0.40862 0.7748 0.78537 0.0
C496 C 0.4207 0.81174 0.82358 0.0
C497 C 0.39476 0.78296 0.80927 0.0
C498 C 0.42018 0.82871 0.8784 0.0
C499 C 0.45774 0.85314 0.86398 0.0
N500 N 0.40132 0.80063 0.82805 0.0
N501 N 0.44732 0.84056 0.84151 0.0
H502 H 0.33929 0.24598 0.15365 0.0
H503 H 0.45353 0.1993 0.10668 0.0
H504 H 0.38958 0.24043 0.22511 0.0
H505 H 0.39658 0.16017 0.07973 0.0
H506 H 0.43092 0.22084 0.14437 0.0
H507 H 0.36041 0.21988 0.11973 0.0
C508 C 0.35463 0.23906 0.16227 0.0
C509 C 0.36271 0.24519 0.19217 0.0
C510 C 0.42349 0.20745 0.13023 0.0
C511 C 0.38701 0.21627 0.15344 0.0
C512 C 0.43627 0.19531 0.10871 0.0
C513 C 0.4268 0.17803 0.09023 0.0
C514 C 0.40104 0.20269 0.1324 0.0
C515 C 0.40442 0.17336 0.09374 0.0
C516 C 0.36658 0.22424 0.14302 0.0
C517 C 0.38272 0.23591 0.20229 0.0
N518 N 0.39214 0.1859 0.11414 0.0
N519 N 0.39443 0.22221 0.18268 0.0
H520 H 0.03383 0.77645 0.22828 0.0
H521 H 0.04768 0.83878 0.06562 0.0
H522 H 0.09443 0.77448 0.1764 0.0
H523 H -0.00338 0.85577 0.13206 0.0
H524 H 0.06719 0.81866 0.10782 0.0
H525 H 0.02211 0.80913 0.19664 0.0
C526 C 0.04491 0.78337 0.21075 0.0
C527 C 0.06504 0.77276 0.20478 0.0
C528 C 0.05192 0.82716 0.11328 0.0
C529 C 0.05145 0.8096 0.16761 0.0
C530 C 0.04071 0.83861 0.08915 0.0
C531 C 0.02024 0.84865 0.09508 0.0
C532 C 0.04245 0.82548 0.14344 0.0
C533 C 0.01218 0.84805 0.12617 0.0
C534 C 0.03821 0.80198 0.19258 0.0
C535 C 0.0788 0.78228 0.18177 0.0
N536 N 0.02311 0.83631 0.149 0.0
N537 N 0.07152 0.79986 0.16343 0.0
H538 H 0.40264 0.73165 0.26336 0.0
H539 H 0.40593 0.81858 0.40599 0.0
H540 H 0.35262 0.72976 0.33517 0.0
H541 H 0.46354 0.78001 0.38098 0.0
H542 H 0.38431 0.79485 0.36938 0.0
H543 H 0.42364 0.75859 0.29623 0.0
C544 C 0.39599 0.73717 0.28584 0.0
C545 C 0.37599 0.72853 0.29679 0.0
C546 C 0.40172 0.7918 0.37186 0.0
C547 C 0.3995 0.75936 0.33372 0.0
C548 C 0.41402 0.80529 0.3925 0.0
C549 C 0.43642 0.80101 0.3965 0.0
C550 C 0.41213 0.77452 0.35455 0.0
C551 C 0.44623 0.78362 0.37866 0.0
C552 C 0.40797 0.75235 0.30451 0.0
C553 C 0.36808 0.73598 0.32613 0.0
N554 N 0.43401 0.77102 0.35819 0.0
N555 N 0.37982 0.75117 0.34359 0.0
H556 H 0.44922 0.22079 0.6995 0.0
H557 H 0.48403 0.12315 0.624 0.0
H558 H 0.38432 0.20304 0.66743 0.0
H559 H 0.4338 0.14154 0.55652 0.0
H560 H 0.46676 0.14797 0.66299 0.0
H561 H 0.46387 0.18819 0.67035 0.0
C562 C 0.43801 0.20973 0.68675 0.0
C563 C 0.41554 0.21451 0.68593 0.0
C564 C 0.45951 0.14651 0.63966 0.0
C565 C 0.43218 0.17722 0.65236 0.0
C566 C 0.46924 0.13219 0.6174 0.0
C567 C 0.46062 0.13054 0.58661 0.0
C568 C 0.44098 0.15929 0.63121 0.0
C569 C 0.44123 0.14252 0.57976 0.0
C570 C 0.44636 0.19103 0.6703 0.0
C571 C 0.40174 0.19975 0.66887 0.0
N572 N 0.43213 0.15655 0.60184 0.0
N573 N 0.41034 0.18197 0.65216 0.0
H574 H 0.10509 0.21866 0.77036 0.0
H575 H 0.03141 0.20445 0.92364 0.0
H576 H 0.10055 0.2698 0.84382 0.0
H577 H 0.05921 0.14593 0.87606 0.0
H578 H 0.05222 0.22952 0.88895 0.0
H579 H 0.08389 0.19234 0.8037 0.0
C580 C 0.09962 0.22433 0.79342 0.0
C581 C 0.10463 0.24637 0.80445 0.0
C582 C 0.05376 0.21118 0.88611 0.0
C583 C 0.08037 0.21667 0.84219 0.0
C584 C 0.04183 0.19684 0.9058 0.0
C585 C 0.04357 0.17303 0.90273 0.0
C586 C 0.06733 0.20169 0.86287 0.0
C587 C 0.05739 0.16416 0.87926 0.0
C588 C 0.08765 0.20933 0.8124 0.0
C589 C 0.09721 0.2529 0.8345 0.0
N590 N 0.06871 0.17853 0.86003 0.0
N591 N 0.08534 0.23816 0.85223 0.0
H592 H -0.00571 0.86472 0.65998 0.0
H593 H 0.86909 0.8328 0.6907 0.0
H594 H 0.94939 0.84758 0.58442 0.0
H595 H 0.92027 0.82613 0.76066 0.0
H596 H 0.89608 0.84688 0.65287 0.0
H597 H 0.96494 0.85927 0.69805 0.0
C598 C 0.97822 0.86 0.65127 0.0
C599 C 0.97443 0.85634 0.61885 0.0
C600 C 0.90129 0.84251 0.67662 0.0
C601 C 0.94065 0.85015 0.66262 0.0
C602 C 0.88587 0.83447 0.69832 0.0
C603 C 0.89243 0.82771 0.72878 0.0
C604 C 0.92335 0.8442 0.68568 0.0
C605 C 0.91447 0.83079 0.73731 0.0
C606 C 0.96147 0.85686 0.67312 0.0
C607 C 0.95315 0.85037 0.60917 0.0
N608 N 0.92913 0.83867 0.71585 0.0
N609 N 0.93706 0.84734 0.63101 0.0
H610 H 0.95171 0.1807 0.47048 0.0
H611 H 0.85167 0.16922 0.35031 0.0
H612 H 0.91115 0.12027 0.46831 0.0
H613 H 0.9136 0.19986 0.32624 0.0
H614 H 0.86665 0.15924 0.40273 0.0
H615 H 0.9301 0.1967 0.42701 0.0
C616 C 0.93785 0.1711 0.4615 0.0
C617 C 0.93328 0.14905 0.47266 0.0
C618 C 0.8768 0.16829 0.3859 0.0
C619 C 0.90868 0.16721 0.42326 0.0
C620 C 0.86835 0.17391 0.35618 0.0
C621 C 0.88167 0.18487 0.33392 0.0
C622 C 0.8984 0.17441 0.39343 0.0
C623 C 0.90305 0.19086 0.34249 0.0
C624 C 0.92569 0.18016 0.43659 0.0
C625 C 0.91526 0.13725 0.46004 0.0
N626 N 0.91078 0.1856 0.37167 0.0
N627 N 0.90365 0.14642 0.43572 0.0
H628 H 0.52593 0.1322 0.09373 0.0
H629 H 0.55513 0.1483 0.27453 0.0
H630 H 0.48019 0.11777 0.16884 0.0
H631 H 0.60487 0.14002 0.2032 0.0
H632 H 0.52769 0.13567 0.23639 0.0
H633 H 0.55537 0.13443 0.13306 0.0
C634 C 0.52208 0.12931 0.1184 0.0
C635 C 0.50046 0.12502 0.12796 0.0
C636 C 0.54467 0.13635 0.22916 0.0
C637 C 0.53407 0.12765 0.17306 0.0
C638 C 0.56039 0.14355 0.25097 0.0
C639 C 0.58239 0.14581 0.24197 0.0
C640 C 0.55087 0.1317 0.19786 0.0
C641 C 0.58818 0.13911 0.21118 0.0
C642 C 0.53892 0.13048 0.14082 0.0
C643 C 0.49653 0.12126 0.16029 0.0
N644 N 0.57246 0.1328 0.19003 0.0
N645 N 0.51309 0.12294 0.18166 0.0
H646 H 0.50216 0.80168 0.96068 0.0
H647 H 0.6107 0.8063 0.85634 0.0
H648 H 0.54527 0.86016 0.96058 0.0
H649 H 0.55148 0.77216 0.82692 0.0
H650 H 0.59208 0.81871 0.90499 0.0
H651 H 0.52603 0.78294 0.92211 0.0
C652 C 0.5169 0.81035 0.95307 0.0
C653 C 0.52167 0.83258 0.96342 0.0
C654 C 0.58331 0.80834 0.8879 0.0
C655 C 0.54889 0.8113 0.91969 0.0
C656 C 0.59386 0.80129 0.86031 0.0
C657 C 0.58234 0.78872 0.83746 0.0
C658 C 0.56138 0.80218 0.89277 0.0
C659 C 0.56066 0.78242 0.84359 0.0
C660 C 0.53039 0.79972 0.93099 0.0
C661 C 0.54092 0.84311 0.95279 0.0
N662 N 0.55083 0.78924 0.87073 0.0
N663 N 0.55383 0.8324 0.93128 0.0
H664 H 0.86559 0.14509 0.7868 0.0
H665 H -0.00924 0.1136 0.81863 0.0
H666 H 0.91733 0.15548 0.71903 0.0
H667 H 0.94515 0.12883 0.89367 0.0
H668 H 0.96152 0.11904 0.78008 0.0
H669 H 0.89226 0.12917 0.82381 0.0
C670 C 0.88241 0.14385 0.77944 0.0
C671 C 0.88925 0.15234 0.75001 0.0
C672 C 0.95788 0.12098 0.80501 0.0
C673 C 0.91979 0.13366 0.79211 0.0
C674 C 0.97455 0.11784 0.82711 0.0
C675 C 0.97052 0.12106 0.85953 0.0
C676 C 0.93691 0.12721 0.81526 0.0
C677 C 0.94909 0.12643 0.86894 0.0
C678 C 0.89765 0.13473 0.80067 0.0
C679 C 0.91132 0.14957 0.74167 0.0
N680 N 0.93309 0.12948 0.84687 0.0
N681 N 0.92582 0.14065 0.76269 0.0
H682 H 0.61504 0.16921 0.63483 0.0
H683 H 0.51016 0.17583 0.52243 0.0
H684 H 0.55408 0.20059 0.662 0.0
H685 H 0.55338 0.11746 0.52242 0.0
H686 H 0.53262 0.19335 0.56393 0.0
H687 H 0.59822 0.15785 0.58416 0.0
C688 C 0.59818 0.17378 0.62999 0.0
C689 C 0.58569 0.18533 0.65271 0.0
C690 C 0.53736 0.1769 0.55435 0.0
C691 C 0.56678 0.17317 0.5951 0.0
C692 C 0.5247 0.16698 0.53056 0.0
C693 C 0.52986 0.14508 0.51932 0.0
C694 C 0.55543 0.16497 0.56651 0.0
C695 C 0.54877 0.13428 0.5308 0.0
C696 C 0.58866 0.16735 0.60125 0.0
C697 C 0.56402 0.19112 0.64544 0.0
N698 N 0.56086 0.14428 0.554 0.0
N699 N 0.55523 0.185 0.61718 0.0
H700 H 0.56135 0.82924 0.21407 0.0
H701 H 0.53432 0.84826 0.39424 0.0
H702 H 0.61212 0.83989 0.28368 0.0
H703 H 0.48801 0.86297 0.31958 0.0
H704 H 0.56338 0.84574 0.35456 0.0
H705 H 0.53445 0.8429 0.2521 0.0
C706 C 0.56696 0.83472 0.2372 0.0
C707 C 0.58909 0.83279 0.24583 0.0
C708 C 0.5469 0.84985 0.34699 0.0
C709 C 0.55819 0.84807 0.28983 0.0
C710 C 0.53028 0.85119 0.3696 0.0
C711 C 0.5086 0.85559 0.36026 0.0
C712 C 0.54174 0.85259 0.31479 0.0
C713 C 0.5044 0.85938 0.32797 0.0
C714 C 0.55154 0.84251 0.25895 0.0
C715 C 0.59531 0.84046 0.27606 0.0
N716 N 0.52074 0.85748 0.30641 0.0
N717 N 0.57989 0.8473 0.29721 0.0
H718 H 0.86475 0.79614 0.13865 0.0
H719 H 0.97139 0.79194 0.02998 0.0
H720 H 0.92401 0.76044 0.16378 0.0
H721 H 0.92684 0.84923 0.03019 0.0
H722 H 0.94843 0.77291 0.06928 0.0
H723 H 0.8822 0.80862 0.08918 0.0
C724 C 0.88134 0.79078 0.13354 0.0
C725 C 0.89324 0.77777 0.15545 0.0
C726 C 0.94355 0.7895 0.06032 0.0
C727 C 0.91293 0.79141 0.09925 0.0
C728 C 0.95655 0.80031 0.03781 0.0
C729 C 0.95112 0.82231 0.02723 0.0
C730 C 0.92491 0.80067 0.07193 0.0
C731 C 0.93173 0.83239 0.03816 0.0
C732 C 0.89124 0.79789 0.1055 0.0
C733 C 0.91458 0.77105 0.14788 0.0
N734 N 0.91934 0.82154 0.06015 0.0
N735 N 0.9238 0.77799 0.12038 0.0
H736 H 0.54693 0.63952 0.93469 0.0
H737 H 0.53671 0.69695 0.76757 0.0
H738 H 0.5 0.61756 0.86433 0.0
H739 H 0.59536 0.703 0.82386 0.0
H740 H 0.52496 0.66499 0.80052 0.0
H741 H 0.5668 0.66027 0.89349 0.0
C742 C 0.54096 0.63876 0.91056 0.0
C743 C 0.52152 0.62704 0.90315 0.0
C744 C 0.54066 0.67288 0.80531 0.0
C745 C 0.54413 0.6509 0.85594 0.0
C746 C 0.5474 0.69106 0.78639 0.0
C747 C 0.56699 0.70256 0.79307 0.0
C748 C 0.5533 0.66659 0.83173 0.0
C749 C 0.58019 0.69442 0.81784 0.0
C750 C 0.55237 0.65057 0.88701 0.0
C751 C 0.51472 0.62655 0.87135 0.0
N752 N 0.57286 0.67724 0.8368 0.0
N753 N 0.5258 0.6386 0.84909 0.0
H754 H 0.59766 0.2516 0.22493 0.0
H755 H 0.53076 0.26785 0.06487 0.0
H756 H 0.59425 0.20079 0.15083 0.0
H757 H 0.55563 0.32576 0.11732 0.0
H758 H 0.54974 0.24235 0.10111 0.0
H759 H 0.57829 0.27857 0.19019 0.0
C760 C 0.59284 0.24613 0.20143 0.0
C761 C 0.59761 0.22395 0.19069 0.0
C762 C 0.55105 0.26064 0.10472 0.0
C763 C 0.57542 0.25446 0.15131 0.0
C764 C 0.54015 0.27524 0.08412 0.0
C765 C 0.54161 0.299 0.08808 0.0
C766 C 0.56337 0.2698 0.12973 0.0
C767 C 0.55406 0.30756 0.11342 0.0
C768 C 0.5819 0.26152 0.18166 0.0
C769 C 0.59106 0.21775 0.16003 0.0
N770 N 0.56446 0.29292 0.13346 0.0
N771 N 0.5802 0.23287 0.14152 0.0
H772 H 0.87728 0.27263 0.31282 0.0
H773 H 0.93646 0.33299 0.42573 0.0
H774 H 0.94063 0.26703 0.26883 0.0
H775 H 0.98072 0.35005 0.34985 0.0
H776 H 0.91375 0.31188 0.38806 0.0
H777 H 0.89104 0.30476 0.3447 0.0
C778 C 0.89388 0.27859 0.30928 0.0
C779 C 0.90795 0.26708 0.28849 0.0
C780 C 0.92806 0.32079 0.37945 0.0
C781 C 0.92393 0.30317 0.32526 0.0
C782 C 0.9412 0.33267 0.40106 0.0
C783 C 0.96069 0.34314 0.39107 0.0
C784 C 0.93459 0.31919 0.34766 0.0
C785 C 0.96593 0.34217 0.35875 0.0
C786 C 0.90183 0.29664 0.32784 0.0
C787 C 0.92936 0.27532 0.28489 0.0
N788 N 0.9532 0.33003 0.33837 0.0
N789 N 0.93673 0.29275 0.30326 0.0
H790 H 0.90124 0.73943 0.71926 0.0
H791 H 0.89903 0.65019 0.57829 0.0
H792 H 0.85111 0.7431 0.64729 0.0
H793 H 0.9586 0.68462 0.60565 0.0
H794 H 0.87849 0.67523 0.61457 0.0
H795 H 0.91991 0.70983 0.68822 0.0
C796 C 0.89404 0.73377 0.69715 0.0
C797 C 0.87475 0.74374 0.68558 0.0
C798 C 0.89609 0.67702 0.61273 0.0
C799 C 0.89562 0.70983 0.6507 0.0
C800 C 0.90775 0.66278 0.5923 0.0
C801 C 0.93039 0.66562 0.58899 0.0
C802 C 0.90737 0.69354 0.63049 0.0
C803 C 0.94107 0.68215 0.60743 0.0
C804 C 0.90469 0.71702 0.67953 0.0
C805 C 0.8661 0.73594 0.65676 0.0
N806 N 0.92946 0.69547 0.62759 0.0
N807 N 0.87658 0.71929 0.64026 0.0
H808 H 0.50306 0.36619 0.63389 0.0
H809 H 0.53374 0.27292 0.7225 0.0
H810 H 0.53956 0.33161 0.56071 0.0
H811 H 0.59299 0.27176 0.66745 0.0
H812 H 0.52096 0.30561 0.69182 0.0
H813 H 0.52199 0.34328 0.67356 0.0
C814 C 0.51513 0.35388 0.62608 0.0
C815 C 0.51934 0.35052 0.59373 0.0
C816 C 0.5371 0.29881 0.68706 0.0
C817 C 0.54084 0.3239 0.63926 0.0
C818 C 0.54435 0.28009 0.70455 0.0
C819 C 0.5645 0.26984 0.69763 0.0
C820 C 0.54989 0.30706 0.66195 0.0
C821 C 0.57749 0.27946 0.67377 0.0
C822 C 0.52583 0.34069 0.64882 0.0
C823 C 0.53551 0.33456 0.58529 0.0
N824 N 0.56972 0.29725 0.65622 0.0
N825 N 0.54554 0.32169 0.60792 0.0
H826 H 0.96778 0.27268 0.90014 0.0
H827 H 0.8523 0.23102 0.84349 0.0
H828 H 0.91047 0.31271 0.92203 0.0
H829 H 0.90591 0.23217 0.77731 0.0
H830 H 0.87405 0.25455 0.8801 0.0
H831 H 0.94591 0.25048 0.86192 0.0
C832 C 0.95058 0.27663 0.89705 0.0
C833 C 0.9408 0.29444 0.91411 0.0
C834 C 0.88092 0.2497 0.85746 0.0
C835 C 0.91595 0.26916 0.8713 0.0
C836 C 0.86861 0.23633 0.8367 0.0
C837 C 0.87736 0.2299 0.80741 0.0
C838 C 0.90231 0.25593 0.84921 0.0
C839 C 0.89857 0.23707 0.7996 0.0
C840 C 0.93824 0.26414 0.8752 0.0
C841 C 0.91855 0.29911 0.90918 0.0
N842 N 0.91052 0.2495 0.82065 0.0
N843 N 0.90674 0.28634 0.88843 0.0
H844 H 0.97604 0.6083 0.12449 0.0
H845 H 0.87912 0.69355 0.17025 0.0
H846 H 0.9294 0.63478 0.05682 0.0
H847 H 0.93849 0.68475 0.22418 0.0
H848 H 0.89058 0.66224 0.13516 0.0
H849 H 0.95554 0.62655 0.16691 0.0
C850 C 0.96132 0.61768 0.1185 0.0
C851 C 0.95473 0.62038 0.08684 0.0
C852 C 0.90077 0.66676 0.15523 0.0
C853 C 0.93113 0.64132 0.1356 0.0
C854 C 0.89412 0.68439 0.17546 0.0
C855 C 0.90797 0.6917 0.19999 0.0
C856 C 0.92123 0.65632 0.15996 0.0
C857 C 0.92742 0.67961 0.20542 0.0
C858 C 0.94962 0.62809 0.14282 0.0
C859 C 0.93529 0.63249 0.08079 0.0
N860 N 0.93359 0.66267 0.18537 0.0
N861 N 0.92432 0.64278 0.10492 0.0
H862 H 0.60045 0.78001 0.34077 0.0
H863 H 0.56239 0.65189 0.37032 0.0
H864 H 0.60554 0.7282 0.26824 0.0
H865 H 0.53391 0.70979 0.41849 0.0
H866 H 0.58283 0.67829 0.3365 0.0
H867 H 0.58071 0.75287 0.37401 0.0
C868 C 0.59754 0.76288 0.33192 0.0
C869 C 0.60464 0.75633 0.30172 0.0
C870 C 0.57202 0.68511 0.35444 0.0
C871 C 0.58216 0.72527 0.33963 0.0
C872 C 0.56038 0.67009 0.37376 0.0
C873 C 0.54634 0.67865 0.39714 0.0
C874 C 0.56987 0.70877 0.35906 0.0
C875 C 0.54445 0.70243 0.40064 0.0
C876 C 0.58618 0.74747 0.35082 0.0
C877 C 0.60027 0.73396 0.29136 0.0
N878 N 0.5562 0.71667 0.38193 0.0
N879 N 0.58937 0.71914 0.31039 0.0
H880 H 0.45116 0.31722 0.09245 0.0
H881 H 0.3742 0.3559 0.23397 0.0
H882 H 0.46824 0.37657 0.14802 0.0
H883 H 0.39608 0.28634 0.22222 0.0
H884 H 0.39941 0.36766 0.19117 0.0
H885 H 0.42049 0.30988 0.12842 0.0
C886 C 0.44815 0.32899 0.11177 0.0
C887 C 0.46232 0.34739 0.11753 0.0
C888 C 0.39841 0.34983 0.19794 0.0
C889 C 0.42726 0.33931 0.15814 0.0
C890 C 0.38414 0.34317 0.22217 0.0
C891 C 0.38339 0.32023 0.23161 0.0
C892 C 0.41116 0.33321 0.1826 0.0
C893 C 0.39643 0.30424 0.2157 0.0
C894 C 0.43076 0.32473 0.13226 0.0
C895 C 0.45778 0.36205 0.14303 0.0
N896 N 0.40969 0.31099 0.19181 0.0
N897 N 0.44061 0.35768 0.16253 0.0
H898 H 0.4252 0.6198 0.96235 0.0
H899 H 0.42434 0.70664 0.82253 0.0
H900 H 0.46731 0.67906 0.96203 0.0
H901 H 0.36523 0.67137 0.84913 0.0
H902 H 0.44093 0.69575 0.87291 0.0
H903 H 0.40282 0.63749 0.92092 0.0
C904 C 0.4295 0.6367 0.9539 0.0
C905 C 0.44821 0.64793 0.9653 0.0
C906 C 0.42425 0.69057 0.86788 0.0
C907 C 0.42304 0.66795 0.91781 0.0
C908 C 0.41491 0.69651 0.83898 0.0
C909 C 0.39363 0.68942 0.83157 0.0
C910 C 0.41235 0.67704 0.88915 0.0
C911 C 0.3818 0.67695 0.85406 0.0
C912 C 0.41671 0.64678 0.93039 0.0
C913 C 0.45303 0.66983 0.95379 0.0
N914 N 0.39148 0.67074 0.88174 0.0
N915 N 0.44075 0.67896 0.93016 0.0
H916 H 0.05484 0.66102 0.76735 0.0
H917 H 0.02897 0.62138 0.59352 0.0
H918 H 0.10615 0.63939 0.7041 0.0
H919 H 0.98217 0.61416 0.66924 0.0
H920 H 0.05767 0.62849 0.63293 0.0
H921 H 0.02791 0.64397 0.73175 0.0
C922 C 0.06053 0.65252 0.74614 0.0
C923 C 0.08286 0.65224 0.73836 0.0
C924 C 0.04116 0.62501 0.64086 0.0
C925 C 0.05199 0.63298 0.6972 0.0
C926 C 0.02476 0.62105 0.61839 0.0
C927 C 0.00307 0.61734 0.62804 0.0
C928 C 0.03575 0.6257 0.67312 0.0
C929 C -0.00138 0.61699 0.66064 0.0
C930 C 0.04511 0.64276 0.72582 0.0
C931 C 0.08918 0.64067 0.71072 0.0
N932 N 0.01473 0.62146 0.68196 0.0
N933 N 0.07379 0.63189 0.69079 0.0
H934 H 0.05836 0.35999 0.43617 0.0
H935 H 0.10874 0.24587 0.36166 0.0
H936 H 0.03509 0.29234 0.45926 0.0
H937 H 0.11969 0.3138 0.32551 0.0
H938 H 0.08841 0.26242 0.40626 0.0
H939 H 0.08707 0.34302 0.40393 0.0
C940 C 0.05928 0.34154 0.43448 0.0
C941 C 0.04399 0.32758 0.44989 0.0
C942 C 0.09573 0.2737 0.38896 0.0
C943 C 0.07707 0.30798 0.41317 0.0
C944 C 0.10756 0.2643 0.3638 0.0
C945 C 0.1159 0.27858 0.34009 0.0
C946 C 0.09246 0.29749 0.39031 0.0
C947 C 0.1135 0.30227 0.34342 0.0
C948 C 0.07577 0.33185 0.41617 0.0
C949 C 0.04638 0.30375 0.44745 0.0
N950 N 0.10186 0.31098 0.36789 0.0
N951 N 0.06249 0.29468 0.42914 0.0
H952 H 0.44801 0.63137 0.39202 0.0
H953 H 0.41687 0.65157 0.2129 0.0
H954 H 0.49217 0.61665 0.31501 0.0
H955 H 0.36765 0.64216 0.28473 0.0
H956 H 0.44447 0.63774 0.2499 0.0
H957 H 0.41804 0.63497 0.35367 0.0
C958 C 0.45139 0.62869 0.36715 0.0
C959 C 0.47273 0.62394 0.35677 0.0
C960 C 0.42757 0.63846 0.25749 0.0
C961 C 0.43857 0.62816 0.31284 0.0
C962 C 0.41176 0.64636 0.23634 0.0
C963 C 0.38987 0.64864 0.24587 0.0
C964 C 0.42159 0.63312 0.28866 0.0
C965 C 0.38428 0.64131 0.27644 0.0
C966 C 0.43426 0.63066 0.3453 0.0
C967 C 0.47607 0.62049 0.32421 0.0
N968 N 0.4001 0.63431 0.29698 0.0
N969 N 0.45926 0.62296 0.30344 0.0
H970 H 0.00402 0.67722 0.02881 0.0
H971 H 0.11168 0.67322 0.13604 0.0
H972 H 0.05067 0.62195 0.02366 0.0
H973 H 0.05059 0.70253 0.16681 0.0
H974 H 0.09413 0.6623 0.0858 0.0
H975 H 0.02627 0.69503 0.07038 0.0
C976 C 0.01919 0.66912 0.03592 0.0
C977 C 0.02546 0.64799 0.02315 0.0
C978 C 0.08469 0.67125 0.10357 0.0
C979 C 0.05081 0.66819 0.07033 0.0
C980 C 0.09463 0.67746 0.13208 0.0
C981 C 0.08234 0.68824 0.15571 0.0
C982 C 0.06253 0.67646 0.09859 0.0
C983 C 0.0604 0.6936 0.14954 0.0
C984 C 0.03176 0.67919 0.05972 0.0
C985 C 0.04519 0.63813 0.03326 0.0
N986 N 0.05115 0.68764 0.12151 0.0
N987 N 0.05717 0.64827 0.05646 0.0
H988 H 0.11763 0.33079 0.79504 0.0
H989 H -0.00912 0.35395 0.82829 0.0
H990 H 0.06664 0.32408 0.72479 0.0
H991 H 0.03789 0.34032 0.90246 0.0
H992 H 0.02015 0.35146 0.78944 0.0
H993 H 0.09025 0.343 0.83349 0.0
C994 C 0.10082 0.33209 0.78747 0.0
C995 C 0.09443 0.32569 0.75677 0.0
C996 C 0.02409 0.34918 0.81423 0.0
C997 C 0.06302 0.34005 0.80063 0.0
C998 C 0.00738 0.3506 0.83651 0.0
C999 C 0.01183 0.34708 0.86878 0.0
C1000 C 0.04552 0.34429 0.82414 0.0
C1001 C 0.03362 0.34294 0.87785 0.0
C1002 C 0.08516 0.33906 0.80954 0.0
C1003 C 0.07233 0.32841 0.74832 0.0
N1004 N 0.04965 0.34153 0.85562 0.0
N1005 N 0.05743 0.33517 0.77017 0.0
H1006 H 0.42709 0.37665 0.54712 0.0
H1007 H 0.37029 0.2674 0.62445 0.0
H1008 H 0.44436 0.3077 0.52041 0.0
H1009 H 0.38431 0.32993 0.67471 0.0
H1010 H 0.38676 0.2841 0.57654 0.0
H1011 H 0.40021 0.36135 0.58405 0.0
C1012 C 0.42517 0.3583 0.54887 0.0
C1013 C 0.43853 0.34339 0.53151 0.0
C1014 C 0.38576 0.29423 0.59795 0.0
C1015 C 0.40741 0.3259 0.57302 0.0
C1016 C 0.37631 0.28483 0.62507 0.0
C1017 C 0.37614 0.2974 0.6533 0.0
C1018 C 0.3945 0.31642 0.59925 0.0
C1019 C 0.38432 0.31974 0.6533 0.0
C1020 C 0.40973 0.34962 0.56977 0.0
C1021 C 0.43469 0.31978 0.53384 0.0
N1022 N 0.39322 0.32856 0.62665 0.0
N1023 N 0.41961 0.31169 0.5546 0.0
H1024 H 0.25896 0.2987 0.22782 0.0
H1025 H 0.15505 0.25205 0.23362 0.0
H1026 H 0.27834 0.24457 0.29139 0.0
H1027 H 0.18876 0.18942 0.2565 0.0
H1028 H 0.18859 0.27336 0.24413 0.0
H1029 H 0.22228 0.28274 0.2257 0.0
C1030 C 0.25541 0.28361 0.24175 0.0
C1031 C 0.27183 0.27294 0.25977 0.0
C1032 C 0.18874 0.25496 0.24679 0.0
C1033 C 0.22946 0.25468 0.25791 0.0
C1034 C 0.16938 0.24282 0.24147 0.0
C1035 C 0.16906 0.21894 0.24476 0.0
C1036 C 0.20797 0.24309 0.25494 0.0
C1037 C 0.18839 0.20784 0.25382 0.0
C1038 C 0.2343 0.27462 0.2408 0.0
C1039 C 0.2662 0.25341 0.27728 0.0
N1040 N 0.20709 0.21998 0.25859 0.0
N1041 N 0.24555 0.24473 0.27556 0.0
H1042 H 0.04131 0.94036 0.55802 0.0
H1043 H 0.97928 0.02881 0.44519 0.0
H1044 H -0.00255 0.92013 0.48268 0.0
H1045 H 0.01937 0.049 0.52481 0.0
H1046 H -0.01049 -0.01091 0.45441 0.0
H1047 H 0.0367 0.98016 0.54245 0.0
C1048 C 0.03073 0.94423 0.53813 0.0
C1049 C 0.01959 0.92679 0.52182 0.0
C1050 C -0.00377 0.00222 0.4697 0.0
C1051 C 0.01431 0.97253 0.50381 0.0
C1052 C -0.00955 0.02497 0.46441 0.0
C1053 C -0.00175 0.04233 0.48451 0.0
C1054 C 0.00988 -0.0033 0.49532 0.0
C1055 C 0.01282 0.03623 0.50883 0.0
C1056 C 0.02815 0.96702 0.52922 0.0
C1057 C 0.00625 0.93296 0.4961 0.0
N1058 N 0.01799 0.01389 0.51373 0.0
N1059 N 0.0039 0.95533 0.488 0.0
H1060 H 0.29804 0.75581 0.78792 0.0
H1061 H 0.20154 0.69464 0.69363 0.0
H1062 H 0.30586 0.7236 0.69668 0.0
H1063 H 0.19229 0.72987 0.78245 0.0
H1064 H 0.2388 0.70932 0.69139 0.0
H1065 H 0.25842 0.75153 0.78285 0.0
C1066 C 0.29143 0.74824 0.76654 0.0
C1067 C 0.30534 0.73962 0.74297 0.0
C1068 C 0.22859 0.71401 0.71127 0.0
C1069 C 0.26002 0.7344 0.73724 0.0
C1070 C 0.20731 0.70552 0.71266 0.0
C1071 C 0.19383 0.71072 0.73852 0.0
C1072 C 0.23662 0.72767 0.73606 0.0
C1073 C 0.20215 0.72521 0.7622 0.0
C1074 C 0.26879 0.74571 0.76372 0.0
C1075 C 0.29581 0.73018 0.71567 0.0
N1076 N 0.22309 0.73298 0.76057 0.0
N1077 N 0.27377 0.72749 0.71379 0.0
H1078 H 0.42871 0.049 0.0567 0.0
H1079 H 0.48975 0.95935 0.94506 0.0
H1080 H 0.47727 0.06838 0.98761 0.0
H1081 H 0.44428 0.94031 0.01858 0.0
H1082 H 0.48252 -0.00049 0.95632 0.0
H1083 H 0.43165 0.00954 0.03924 0.0
C1084 C 0.43999 0.04502 0.03776 0.0
C1085 C 0.45292 0.06212 0.0238 0.0
C1086 C 0.474 0.98656 0.96983 0.0
C1087 C 0.45632 0.01666 0.00364 0.0
C1088 C 0.47807 0.96356 0.9634 0.0
C1089 C 0.46776 0.94633 0.98113 0.0
C1090 C 0.45952 -0.00754 0.99418 0.0
C1091 C 0.4527 0.95295 0.00441 0.0
C1092 C 0.44162 0.02239 0.02778 0.0
C1093 C 0.46706 0.0558 -0.00082 0.0
N1094 N 0.44917 0.97548 0.01041 0.0
N1095 N 0.46847 0.03353 0.99 0.0
H1096 H 0.17656 0.75482 0.19263 0.0
H1097 H 0.27577 0.70161 0.28998 0.0
H1098 H 0.17138 0.72847 0.28771 0.0
H1099 H 0.28187 0.7268 0.19439 0.0
H1100 H 0.23898 0.71733 0.29239 0.0
H1101 H 0.21634 0.75139 0.19613 0.0
C1102 C 0.18378 0.74877 0.2145 0.0
C1103 C 0.17057 0.74144 0.23969 0.0
C1104 C 0.24838 0.71961 0.27093 0.0
C1105 C 0.21607 0.73723 0.24366 0.0
C1106 C 0.26941 0.71053 0.26947 0.0
C1107 C 0.28182 0.71251 0.2417 0.0
C1108 C 0.23949 0.73061 0.24435 0.0
C1109 C 0.27281 0.72465 0.21615 0.0
C1110 C 0.20652 0.74671 0.21641 0.0
C1111 C 0.18088 0.73395 0.26751 0.0
N1112 N 0.25206 0.73299 0.21794 0.0
N1113 N 0.20299 0.73171 0.26856 0.0
H1114 H 0.48385 0.91036 0.50266 0.0
H1115 H 0.44856 0.03965 0.46783 0.0
H1116 H 0.43614 0.93012 0.43216 0.0
H1117 H 0.49468 0.02032 0.54071 0.0
H1118 H 0.44115 -0.00079 0.45805 0.0
H1119 H 0.48582 0.95024 0.52016 0.0
C1120 C 0.47371 0.92301 0.49098 0.0
C1121 C 0.45998 0.91686 0.46568 0.0
C1122 C 0.45274 0.00384 0.4764 0.0
C1123 C 0.46214 0.96248 0.48557 0.0
C1124 C 0.45693 0.02696 0.48205 0.0
C1125 C 0.47247 0.03346 0.50485 0.0
C1126 C 0.46425 0.98708 0.49353 0.0
C1127 C 0.48273 0.01617 0.52264 0.0
C1128 C 0.47482 0.94577 0.501 0.0
C1129 C 0.44714 0.93401 0.45155 0.0
N1130 N 0.47861 -0.00619 0.51638 0.0
N1131 N 0.44864 0.956 0.46155 0.0
H1132 H 0.20652 0.26525 0.79536 0.0
H1133 H 0.30036 0.21121 0.6904 0.0
H1134 H 0.19682 0.24242 0.69914 0.0
H1135 H 0.30877 0.23209 0.7877 0.0
H1136 H 0.2608 0.21462 0.69662 0.0
H1137 H 0.24209 0.24654 0.79595 0.0
C1138 C 0.21182 0.25621 0.77435 0.0
C1139 C 0.19882 0.25582 0.74692 0.0
C1140 C 0.27127 0.218 0.71681 0.0
C1141 C 0.2397 0.23428 0.74746 0.0
C1142 C 0.2939 0.21592 0.71334 0.0
C1143 C 0.30796 0.22205 0.7383 0.0
C1144 C 0.26271 0.22636 0.74537 0.0
C1145 C 0.2986 0.22771 0.76757 0.0
C1146 C 0.23213 0.24539 0.77478 0.0
C1147 C 0.2064 0.24343 0.72067 0.0
N1148 N 0.27658 0.23021 0.77009 0.0
N1149 N 0.22649 0.23343 0.72143 0.0
H1150 H 0.03936 0.03941 0.92455 0.0
H1151 H 0.97901 0.9513 0.03928 0.0
H1152 H -0.00643 0.05978 -0.00298 0.0
H1153 H 0.02442 0.93105 0.96627 0.0
H1154 H 0.98617 -0.00875 0.02671 0.0
H1155 H 0.03578 -0.00012 0.94176 0.0
C1156 C 0.02856 0.03562 0.94414 0.0
C1157 C 0.01664 0.05301 0.95924 0.0
C1158 C -0.00532 0.97808 0.01357 0.0
C1159 C 0.01252 0.0076 0.9791 0.0
C1160 C -0.00937 0.95521 0.02075 0.0
C1161 C 0.00099 0.93771 0.00362 0.0
C1162 C 0.00916 0.98356 0.98901 0.0
C1163 C 0.01598 0.94392 0.98003 0.0
C1164 C 0.02657 0.01299 0.95398 0.0
C1165 C 0.00301 0.04697 0.98458 0.0
N1166 N 0.01949 0.96633 0.97327 0.0
N1167 N 0.00126 0.02474 0.99363 0.0
H1168 H 0.77583 0.77488 0.69681 0.0
H1169 H 0.68034 0.72535 0.80443 0.0
H1170 H 0.78563 0.75305 0.79342 0.0
H1171 H 0.67198 0.74634 0.70722 0.0
H1172 H 0.71991 0.72942 0.79853 0.0
H1173 H 0.73893 0.75935 0.69825 0.0
C1174 C 0.77025 0.76677 0.71837 0.0
C1175 C 0.78377 0.76562 0.74523 0.0
C1176 C 0.70944 0.73279 0.77836 0.0
C1177 C 0.74133 0.74772 0.747 0.0
C1178 C 0.68682 0.73036 0.78165 0.0
C1179 C 0.67277 0.73597 0.75646 0.0
C1180 C 0.71802 0.74092 0.74971 0.0
C1181 C 0.68214 0.74219 0.72744 0.0
C1182 C 0.74916 0.75778 0.7191 0.0
C1183 C 0.77571 0.75452 0.77225 0.0
N1184 N 0.70415 0.74482 0.72502 0.0
N1185 N 0.7549 0.74623 0.77258 0.0
H1186 H 0.689 0.22607 0.2952 0.0
H1187 H 0.8004 0.23017 0.19736 0.0
H1188 H 0.69803 0.19656 0.20243 0.0
H1189 H 0.79437 0.2544 0.29347 0.0
H1190 H 0.76076 0.22562 0.19485 0.0
H1191 H 0.72551 0.24317 0.29154 0.0
C1192 C 0.69857 0.22329 0.274 0.0
C1193 C 0.69056 0.20951 0.24933 0.0
C1194 C 0.76806 0.23227 0.21635 0.0
C1195 C 0.73221 0.22918 0.24488 0.0
C1196 C 0.79071 0.235 0.21773 0.0
C1197 C 0.80079 0.24215 0.24593 0.0
C1198 C 0.7554 0.23657 0.24342 0.0
C1199 C 0.78735 0.24846 0.2714 0.0
C1200 C 0.71937 0.23312 0.27189 0.0
C1201 C 0.70362 0.20671 0.2223 0.0
N1202 N 0.76536 0.2451 0.26976 0.0
N1203 N 0.72381 0.2163 0.22092 0.0
H1204 H 0.6773 0.25602 0.68943 0.0
H1205 H 0.77693 0.20971 0.79235 0.0
H1206 H 0.67165 0.23144 0.78535 0.0
H1207 H 0.78384 0.23353 0.69625 0.0
H1208 H 0.73957 0.22403 0.79296 0.0
H1209 H 0.71713 0.25482 0.69453 0.0
C1210 C 0.6844 0.25081 0.7118 0.0
C1211 C 0.67108 0.24335 0.7368 0.0
C1212 C 0.74926 0.22636 0.7718 0.0
C1213 C 0.71668 0.24173 0.74263 0.0
C1214 C 0.77063 0.2181 0.77138 0.0
C1215 C 0.78342 0.22003 0.74397 0.0
C1216 C 0.74041 0.23643 0.74449 0.0
C1217 C 0.77448 0.23148 0.71777 0.0
C1218 C 0.70717 0.25005 0.71463 0.0
C1219 C 0.68123 0.237 0.76528 0.0
N1220 N 0.75338 0.23895 0.7185 0.0
N1221 N 0.7034 0.236 0.76724 0.0
H1222 H 0.79744 0.71432 0.19533 0.0
H1223 H 0.7041 0.78098 0.28809 0.0
H1224 H 0.80544 0.74283 0.28892 0.0
H1225 H 0.69453 0.75074 0.19581 0.0
H1226 H 0.73965 0.76242 0.2916 0.0
H1227 H 0.75818 0.72179 0.19849 0.0
C1228 C 0.7909 0.7217 0.21684 0.0
C1229 C 0.80485 0.72845 0.24162 0.0
C1230 C 0.72975 0.75968 0.27065 0.0
C1231 C 0.75998 0.73733 0.24517 0.0
C1232 C 0.70945 0.77041 0.26852 0.0
C1233 C 0.69642 0.76775 0.24136 0.0
C1234 C 0.73727 0.74631 0.24532 0.0
C1235 C 0.70411 0.75348 0.21706 0.0
C1236 C 0.76847 0.72606 0.21854 0.0
C1237 C 0.79539 0.7377 0.26901 0.0
N1238 N 0.72415 0.7435 0.21946 0.0
N1239 N 0.7736 0.74222 0.26982 0.0
H1240 H 0.49747 0.41259 0.98922 0.0
H1241 H 0.52389 0.543 0.03288 0.0
H1242 H 0.53469 0.43325 0.07149 0.0
H1243 H 0.48497 0.52217 0.95236 0.0
H1244 H 0.53099 0.50274 0.04467 0.0
H1245 H 0.49523 0.4526 0.97302 0.0
C1246 C 0.50521 0.4255 0.00387 0.0
C1247 C 0.51615 0.41951 0.03189 0.0
C1248 C 0.52103 0.50702 0.02429 0.0
C1249 C 0.51369 0.46538 0.01342 0.0
C1250 C 0.51705 0.53001 0.01747 0.0
C1251 C 0.50362 0.53601 0.99178 0.0
C1252 C 0.51153 0.48992 0.0053 0.0
C1253 C 0.49523 0.5184 0.97262 0.0
C1254 C 0.50395 0.44836 -0.00543 0.0
C1255 C 0.52596 0.43702 0.0498 0.0
N1256 N 0.49919 0.49619 0.9799 0.0
N1257 N 0.52442 0.45914 0.04032 0.0
H1258 H 0.95961 0.42549 0.51921 0.0
H1259 H 0.98025 0.55822 0.48376 0.0
H1260 H -0.00337 0.45053 0.4395 0.0
H1261 H 0.94035 0.53362 0.56079 0.0
H1262 H 0.98501 0.51882 0.46582 0.0
H1263 H 0.95053 0.46496 0.53312 0.0
C1264 C 0.96565 0.43922 0.50444 0.0
C1265 C 0.97908 0.43462 0.47829 0.0
C1266 C 0.97514 0.52206 0.48658 0.0
C1267 C 0.9689 0.47987 0.49426 0.0
C1268 C 0.97245 0.54458 0.49689 0.0
C1269 C 0.95998 0.5493 0.52395 0.0
C1270 C 0.96536 0.50408 0.50349 0.0
C1271 C 0.95018 0.53086 0.53987 0.0
C1272 C 0.96051 0.46178 0.51245 0.0
C1273 C 0.98638 0.45318 0.46001 0.0
N1274 N 0.95317 0.50909 0.52949 0.0
N1275 N 0.98134 0.47495 0.46848 0.0
H1276 H 0.9878 0.40964 0.00495 0.0
H1277 H 0.95456 0.53766 0.95742 0.0
H1278 H 0.94278 0.42608 0.9293 0.0
H1279 H -0.00226 0.5206 0.03502 0.0
H1280 H 0.94843 0.49679 0.94835 0.0
H1281 H -0.00967 0.45031 0.01776 0.0
C1282 C 0.9784 0.42175 0.99109 0.0
C1283 C 0.96515 0.41437 0.96591 0.0
C1284 C 0.95914 0.50204 0.96748 0.0
C1285 C 0.96798 0.46099 0.98042 0.0
C1286 C 0.9626 0.52538 0.9727 0.0
C1287 C 0.97682 0.53263 -0.00316 0.0
C1288 C 0.97 0.48588 0.9865 0.0
C1289 C 0.98678 0.51589 0.01593 0.0
C1290 C 0.97983 0.44499 -0.00157 0.0
C1291 C 0.95329 0.43091 0.94885 0.0
N1292 N 0.98327 0.49336 0.01023 0.0
N1293 N 0.95506 0.45342 0.95634 0.0
H1294 H 0.49916 0.45909 0.54971 0.0
H1295 H 0.54195 0.54408 0.41565 0.0
H1296 H 0.52524 0.43598 0.46036 0.0
H1297 H 0.5062 0.56557 0.49855 0.0
H1298 H 0.54085 0.50474 0.43481 0.0
H1299 H 0.50748 0.49834 0.53492 0.0
C1300 C 0.50693 0.46222 0.52711 0.0
C1301 C 0.5112 0.4442 0.50602 0.0
C1302 C 0.53333 0.51808 0.44884 0.0
C1303 C 0.52055 0.48928 0.48882 0.0
C1304 C 0.53391 0.54058 0.43793 0.0
C1305 C 0.524 0.55821 0.45541 0.0
C1306 C 0.52286 0.51314 0.47752 0.0
C1307 C 0.51391 0.55257 0.48414 0.0
C1308 C 0.51159 0.48469 0.51865 0.0
C1309 C 0.52155 0.44933 0.47728 0.0
N1310 N 0.51356 0.53052 0.49424 0.0
N1311 N 0.52563 0.47146 0.46934 0.0
H1312 H 0.02966 0.34378 0.04708 0.0
H1313 H 0.09146 0.24876 0.15097 0.0
H1314 H 0.03991 0.2748 0.01375 0.0
H1315 H 0.0659 0.31246 0.18712 0.0
H1316 H 0.07804 0.2594 0.09798 0.0
H1317 H 0.04927 0.33426 0.09562 0.0
C1318 C 0.03627 0.32671 0.04975 0.0
C1319 C 0.03286 0.31 0.02641 0.0
C1320 C 0.07548 0.271 0.11761 0.0
C1321 C 0.05519 0.29886 0.08228 0.0
C1322 C 0.08311 0.26494 0.14781 0.0
C1323 C 0.07961 0.27959 0.17366 0.0
C1324 C 0.0646 0.29198 0.11328 0.0
C1325 C 0.06877 0.30041 0.16811 0.0
C1326 C 0.04739 0.32122 0.07759 0.0
C1327 C 0.04198 0.28818 0.03122 0.0
N1328 N 0.0617 0.30593 0.13867 0.0
N1329 N 0.05256 0.28316 0.05874 0.0
H1330 H 0.88854 0.78144 0.34174 0.0
H1331 H 0.00244 0.79129 0.43261 0.0
H1332 H 0.9461 0.74157 0.32116 0.0
H1333 H 0.94647 0.83241 0.45797 0.0
H1334 H 0.97975 0.76957 0.39656 0.0
H1335 H 0.90656 0.79589 0.3899 0.0
C1336 C 0.90462 0.77507 0.34804 0.0
C1337 C 0.91598 0.76043 0.32748 0.0
C1338 C 0.97226 0.78326 0.40999 0.0
C1339 C 0.93676 0.7772 0.38171 0.0
C1340 C 0.98531 0.79584 0.43057 0.0
C1341 C 0.97643 0.81396 0.44813 0.0
C1342 C 0.95007 0.78885 0.4064 0.0
C1343 C 0.95402 0.81873 0.44464 0.0
C1344 C 0.915 0.78354 0.37525 0.0
C1345 C 0.93687 0.75296 0.33633 0.0
N1346 N 0.9416 0.80637 0.42388 0.0
N1347 N 0.94667 0.76163 0.36252 0.0
H1348 H 0.44418 0.72913 0.66592 0.0
H1349 H 0.4477 0.64238 0.52138 0.0
H1350 H 0.38993 0.68472 0.64393 0.0
H1351 H 0.49409 0.69704 0.53655 0.0
H1352 H 0.42449 0.65881 0.56315 0.0
H1353 H 0.46063 0.71976 0.61512 0.0
C1354 C 0.4355 0.7178 0.64991 0.0
C1355 C 0.41573 0.70769 0.65894 0.0
C1356 C 0.43965 0.66728 0.55699 0.0
C1357 C 0.43483 0.69605 0.60121 0.0
C1358 C 0.45292 0.65786 0.53328 0.0
C1359 C 0.47304 0.66811 0.52583 0.0
C1360 C 0.44666 0.687 0.57323 0.0
C1361 C 0.47892 0.68827 0.54179 0.0
C1362 C 0.44493 0.71231 0.62096 0.0
C1363 C 0.40515 0.69298 0.63756 0.0
N1364 N 0.46592 0.69689 0.56479 0.0
N1365 N 0.41506 0.6872 0.60983 0.0
H1366 H 0.59022 0.18402 0.84156 0.0
H1367 H 0.48803 0.20637 0.95524 0.0
H1368 H 0.53417 0.2253 0.81756 0.0
H1369 H 0.52835 0.14603 0.96373 0.0
H1370 H 0.5112 0.21982 0.91252 0.0
H1371 H 0.57386 0.17643 0.89381 0.0
C1372 C 0.57482 0.19204 0.84771 0.0
C1373 C 0.56347 0.20533 0.82544 0.0
C1374 C 0.51512 0.20371 0.92384 0.0
C1375 C 0.54479 0.19672 0.88453 0.0
C1376 C 0.50187 0.19595 0.94829 0.0
C1377 C 0.50599 0.17478 0.96278 0.0
C1378 C 0.53274 0.1903 0.91361 0.0
C1379 C 0.52444 0.16232 0.95297 0.0
C1380 C 0.56542 0.18751 0.87727 0.0
C1381 C 0.5434 0.21498 0.83415 0.0
N1382 N 0.53706 0.17017 0.92871 0.0
N1383 N 0.53469 0.21044 0.86295 0.0
H1384 H 0.03138 0.63626 0.46322 0.0
H1385 H 0.03595 0.72736 0.32531 0.0
H1386 H -0.01105 0.69512 0.45697 0.0
H1387 H 0.08917 0.68064 0.34248 0.0
H1388 H 0.02059 0.71765 0.37673 0.0
H1389 H 0.05473 0.6532 0.42208 0.0
C1390 C 0.02712 0.6528 0.4535 0.0
C1391 C 0.00797 0.66407 0.4631 0.0
C1392 C 0.03587 0.70979 0.36972 0.0
C1393 C 0.03447 0.68349 0.41634 0.0
C1394 C 0.04467 0.71547 0.34043 0.0
C1395 C 0.06382 0.70483 0.3299 0.0
C1396 C 0.04593 0.69279 0.38822 0.0
C1397 C 0.07444 0.68934 0.35007 0.0
C1398 C 0.04046 0.66249 0.43012 0.0
C1399 C 0.0033 0.68556 0.44991 0.0
N1400 N 0.0651 0.68337 0.37811 0.0
N1401 N 0.01629 0.6944 0.42706 0.0
H1402 H 0.59322 0.78896 0.6505 0.0
H1403 H 0.49335 0.77227 0.53022 0.0
H1404 H 0.53585 0.74818 0.66874 0.0
H1405 H 0.5356 0.83143 0.52692 0.0
H1406 H 0.51542 0.75673 0.57294 0.0
H1407 H 0.57863 0.79791 0.5975 0.0
C1408 C 0.57792 0.78132 0.64292 0.0
C1409 C 0.56564 0.76784 0.66383 0.0
C1410 C 0.52001 0.77303 0.56275 0.0
C1411 C 0.54897 0.77801 0.60387 0.0
C1412 C 0.50739 0.782 0.53833 0.0
C1413 C 0.51236 0.80346 0.52535 0.0
C1414 C 0.53782 0.78556 0.57452 0.0
C1415 C 0.53104 0.81496 0.53652 0.0
C1416 C 0.56953 0.78662 0.61292 0.0
C1417 C 0.54576 0.75867 0.65326 0.0
N1418 N 0.543 0.80597 0.56081 0.0
N1419 N 0.53801 0.764 0.62409 0.0
H1420 H 0.44667 0.25964 0.80065 0.0
H1421 H 0.44645 0.3304 0.9608 0.0
H1422 H 0.38726 0.28746 0.83964 0.0
H1423 H 0.49947 0.28646 0.93151 0.0
H1424 H 0.42381 0.31453 0.91792 0.0
H1425 H 0.46556 0.26792 0.85022 0.0
C1426 C 0.43752 0.26705 0.82006 0.0
C1427 C 0.41544 0.27284 0.81627 0.0
C1428 C 0.44034 0.30827 0.92116 0.0
C1429 C 0.43708 0.28322 0.87269 0.0
C1430 C 0.4533 0.31742 0.94545 0.0
C1431 C 0.47497 0.30996 0.94952 0.0
C1432 C 0.44923 0.29171 0.90077 0.0
C1433 C 0.48295 0.29294 0.92915 0.0
C1434 C 0.4483 0.27189 0.8483 0.0
C1435 C 0.40428 0.28257 0.84191 0.0
N1436 N 0.47016 0.28456 0.90559 0.0
N1437 N 0.41535 0.28788 0.86896 0.0
H1438 H 0.93903 0.22114 0.17236 0.0
H1439 H 0.94228 0.13865 0.02326 0.0
H1440 H 0.88328 0.18044 0.14512 0.0
H1441 H -0.00993 0.19123 0.04286 0.0
H1442 H 0.91887 0.15476 0.06503 0.0
H1443 H 0.95629 0.21236 0.12192 0.0
C1444 C 0.93024 0.21076 0.15528 0.0
C1445 C 0.90976 0.20154 0.16268 0.0
C1446 C 0.93439 0.16285 0.05983 0.0
C1447 C 0.92971 0.19056 0.10533 0.0
C1448 C 0.94777 0.15362 0.03612 0.0
C1449 C 0.96832 0.16336 0.02992 0.0
C1450 C 0.94173 0.18186 0.07734 0.0
C1451 C 0.97455 0.18287 0.0471 0.0
C1452 C 0.94011 0.20561 0.12654 0.0
C1453 C 0.89904 0.18801 0.13999 0.0
N1454 N 0.96143 0.1913 0.07009 0.0
N1455 N 0.90935 0.18253 0.11246 0.0
H1456 H 0.95024 0.6252 0.86361 0.0
H1457 H 0.8632 0.72755 0.85918 0.0
H1458 H 0.91496 0.64714 0.94662 0.0
H1459 H 0.91265 0.71536 0.78842 0.0
H1460 H 0.87646 0.69386 0.88842 0.0
H1461 H 0.93025 0.65324 0.8323 0.0
C1462 C 0.93803 0.63567 0.87521 0.0
C1463 C 0.93452 0.63401 0.90792 0.0
C1464 C 0.88426 0.69856 0.86638 0.0
C1465 C 0.91167 0.66644 0.87211 0.0
C1466 C 0.87671 0.71772 0.84971 0.0
C1467 C 0.887 0.72439 0.82152 0.0
C1468 C 0.90196 0.68588 0.85443 0.0
C1469 C 0.90439 0.71104 0.81025 0.0
C1470 C 0.92669 0.65178 0.85731 0.0
C1471 C 0.91831 0.64794 0.92151 0.0
N1472 N 0.9113 0.6925 0.82672 0.0
N1473 N 0.90764 0.66379 0.9036 0.0
H1474 H 0.07653 0.26409 0.61604 0.0
H1475 H 0.05515 0.13708 0.55969 0.0
H1476 H 0.11737 0.21027 0.6537 0.0
H1477 H 0.00341 0.18369 0.58551 0.0
H1478 H 0.08205 0.16428 0.58204 0.0
H1479 H 0.05367 0.23531 0.59045 0.0
C1480 C 0.08092 0.24624 0.61857 0.0
C1481 C 0.09878 0.23956 0.63732 0.0
C1482 C 0.06476 0.16833 0.58278 0.0
C1483 C 0.07268 0.2066 0.60783 0.0
C1484 C 0.04948 0.15293 0.57008 0.0
C1485 C 0.02704 0.15812 0.5709 0.0
C1486 C 0.05745 0.1892 0.59534 0.0
C1487 C 0.0205 0.17889 0.58457 0.0
C1488 C 0.06778 0.22985 0.60407 0.0
C1489 C 0.10362 0.21611 0.63965 0.0
N1490 N 0.03563 0.19375 0.5959 0.0
N1491 N 0.09058 0.20036 0.62507 0.0
H1492 H 0.50043 0.30455 0.40683 0.0
H1493 H 0.61465 0.26179 0.34411 0.0
H1494 H 0.55893 0.33871 0.43963 0.0
H1495 H 0.56252 0.21582 0.37057 0.0
H1496 H 0.59468 0.29335 0.36991 0.0
H1497 H 0.52302 0.27526 0.38231 0.0
C1498 C 0.51806 0.30605 0.40863 0.0
C1499 C 0.52781 0.32408 0.42547 0.0
C1500 C 0.58785 0.27626 0.37017 0.0
C1501 C 0.55376 0.2905 0.39719 0.0
C1502 C 0.59914 0.25831 0.35548 0.0
C1503 C 0.59021 0.23615 0.35518 0.0
C1504 C 0.56732 0.272 0.38377 0.0
C1505 C 0.57008 0.23257 0.37026 0.0
C1506 C 0.53092 0.28921 0.39478 0.0
C1507 C 0.55078 0.32501 0.42699 0.0
N1508 N 0.5592 0.25034 0.38354 0.0
N1509 N 0.56307 0.30843 0.41288 0.0
H1510 H 0.40846 0.8324 0.03368 0.0
H1511 H 0.40785 0.76411 0.19549 0.0
H1512 H 0.44333 0.85406 0.11749 0.0
H1513 H 0.35911 0.75213 0.12326 0.0
H1514 H 0.42019 0.79776 0.16688 0.0
H1515 H 0.38873 0.80417 0.06562 0.0
C1516 C 0.41167 0.83155 0.05886 0.0
C1517 C 0.42782 0.84541 0.07283 0.0
C1518 C 0.40666 0.78795 0.15731 0.0
C1519 C 0.40556 0.81298 0.10931 0.0
C1520 C 0.39968 0.76861 0.17358 0.0
C1521 C 0.38255 0.75518 0.16158 0.0
C1522 C 0.39672 0.79382 0.12845 0.0
C1523 C 0.37242 0.76202 0.13326 0.0
C1524 C 0.40044 0.81538 0.07705 0.0
C1525 C 0.43125 0.84357 0.10558 0.0
N1526 N 0.37986 0.78074 0.11738 0.0
N1527 N 0.42047 0.82745 0.12255 0.0
H1528 H 0.96471 0.34655 0.6134 0.0
H1529 H 0.86686 0.25602 0.62865 0.0
H1530 H 0.92801 0.32198 0.53281 0.0
H1531 H 0.91529 0.26882 0.70106 0.0
H1532 H 0.8843 0.2853 0.59547 0.0
H1533 H 0.94165 0.3236 0.64799 0.0
C1534 C 0.95165 0.33652 0.60296 0.0
C1535 C 0.94849 0.336 0.57006 0.0
C1536 C 0.89094 0.28179 0.61875 0.0
C1537 C 0.92201 0.30951 0.6097 0.0
C1538 C 0.88096 0.26517 0.63772 0.0
C1539 C 0.88977 0.25984 0.66753 0.0
C1540 C 0.90965 0.29328 0.6299 0.0
C1541 C 0.90808 0.27219 0.6781 0.0
C1542 C 0.93851 0.32335 0.62276 0.0
C1543 C 0.93115 0.32276 0.558 0.0
N1544 N 0.91742 0.28824 0.6593 0.0
N1545 N 0.91866 0.30989 0.5778 0.0
H1546 H 0.41283 0.2454 0.33751 0.0
H1547 H 0.41037 0.13929 0.44853 0.0
H1548 H 0.3497 0.21571 0.35744 0.0
H1549 H 0.4579 0.1461 0.37369 0.0
H1550 H 0.38779 0.16873 0.42248 0.0
H1551 H 0.43044 0.21145 0.3591 0.0
C1552 C 0.40265 0.23177 0.34667 0.0
C1553 C 0.37977 0.23337 0.34579 0.0
C1554 C 0.403 0.16337 0.41165 0.0
C1555 C 0.39991 0.19449 0.37076 0.0
C1556 C 0.41588 0.14664 0.42644 0.0
C1557 C 0.43621 0.14041 0.41349 0.0
C1558 C 0.41081 0.17414 0.38426 0.0
C1559 C 0.44251 0.15046 0.38477 0.0
C1560 C 0.41272 0.21233 0.35873 0.0
C1561 C 0.3674 0.21505 0.35769 0.0
N1562 N 0.43008 0.16711 0.3715 0.0
N1563 N 0.37766 0.19635 0.37014 0.0
H1564 H 0.5263 0.62824 0.1257 0.0
H1565 H 0.61696 0.72714 0.12773 0.0
H1566 H 0.5613 0.64934 0.04206 0.0
H1567 H 0.56961 0.71563 0.2016 0.0
H1568 H 0.60217 0.69392 0.09907 0.0
H1569 H 0.54805 0.65494 0.15698 0.0
C1570 C 0.53878 0.63824 0.11394 0.0
C1571 C 0.54174 0.63677 0.0811 0.0
C1572 C 0.59519 0.69861 0.12169 0.0
C1573 C 0.56662 0.6676 0.11685 0.0
C1574 C 0.60364 0.7175 0.13805 0.0
C1575 C 0.59432 0.72429 0.16689 0.0
C1576 C 0.57754 0.68635 0.13453 0.0
C1577 C 0.57711 0.7112 0.17924 0.0
C1578 C 0.55115 0.65358 0.13183 0.0
C1579 C 0.55833 0.65005 0.06727 0.0
N1580 N 0.56925 0.69294 0.16297 0.0
N1581 N 0.57 0.66513 0.08518 0.0
H1582 H 0.10286 0.7722 0.80181 0.0
H1583 H 0.06576 0.8268 0.96652 0.0
H1584 H 0.11977 0.74384 0.89295 0.0
H1585 H 0.0409 0.84813 0.87548 0.0
H1586 H 0.09146 0.80131 0.93977 0.0
H1587 H 0.08594 0.80474 0.82836 0.0
C1588 C 0.10325 0.77292 0.82742 0.0
C1589 C 0.1125 0.75507 0.84519 0.0
C1590 C 0.08057 0.81179 0.92565 0.0
C1591 C 0.09305 0.79233 0.87575 0.0
C1592 C 0.06595 0.82644 0.94089 0.0
C1593 C 0.05092 0.83939 0.92321 0.0
C1594 C 0.08021 0.81012 0.89251 0.0
C1595 C 0.05201 0.83827 0.89008 0.0
C1596 C 0.09355 0.79152 0.84256 0.0
C1597 C 0.11265 0.75708 0.87829 0.0
N1598 N 0.06622 0.8237 0.87582 0.0
N1599 N 0.10287 0.77526 0.89252 0.0
loop_
_geom_bond_atom_site_label_1
_geom_bond_atom_site_label_2
_geom_bond_distance
_geom_bond_site_symmetry_2
_ccdc_geom_bond_type
Mg0 O1 2.028 . S
Mg0 O7 1.986 . S
Mg0 O9 2.114 . S
Mg0 O10 2.251 . S
Mg0 O13 2.010 . S
O1 Mg0 2.028 . S
O1 C4 1.250 . S
O2 Mg3 2.028 . S
O2 C4 1.248 . S
Mg3 O2 2.028 . S
Mg3 O8 2.032 . S
Mg3 O10 2.079 . S
C4 O1 1.250 . S
C4 O2 1.248 . S
C5 O6 1.264 . S
C5 O13 1.249 . S
O6 C5 1.264 . S
O7 Mg0 1.986 . S
O7 C11 1.246 . S
O8 Mg3 2.032 . S
O8 C11 1.259 . S
O9 Mg0 2.114 . S
O9 C12 1.252 . S
O10 Mg0 2.251 . S
O10 Mg3 2.079 . S
O10 C12 1.273 . S
C11 O7 1.246 . S
C11 O8 1.259 . S
C12 O9 1.252 . S
C12 O10 1.273 . S
O13 Mg0 2.010 . S
O13 C5 1.249 . S
Mg14 O15 2.028 1_455 S
Mg14 O21 1.986 1_455 S
Mg14 O23 2.114 . S
Mg14 O24 2.251 . S
Mg14 O27 2.010 1_455 S
O15 Mg14 2.028 1_655 S
O15 C18 1.250 . S
O16 Mg17 2.028 1_655 S
O16 C18 1.248 . S
Mg17 O16 2.028 1_455 S
Mg17 O22 2.032 . S
Mg17 O24 2.079 . S
C18 O15 1.250 . S
C18 O16 1.248 . S
C19 O20 1.264 . S
C19 O27 1.249 . S
O20 C19 1.264 . S
O21 Mg14 1.986 1_655 S
O21 C25 1.251 . S
O22 Mg17 2.032 . S
O22 C25 1.255 1_455 S
O23 Mg14 2.114 . S
O23 C26 1.252 . S
O24 Mg14 2.251 . S
O24 Mg17 2.079 . S
O24 C26 1.273 . S
C25 O21 1.251 . S
C25 O22 1.255 1_655 S
C26 O23 1.252 . S
C26 O24 1.273 . S
O27 Mg14 2.010 1_655 S
O27 C19 1.249 . S
Mg28 O29 2.028 . S
Mg28 O35 1.986 . S
Mg28 O37 2.114 . S
Mg28 O38 2.251 . S
Mg28 O41 2.010 . S
O29 Mg28 2.028 . S
O29 C32 1.250 . S
O30 Mg31 2.028 . S
O30 C32 1.248 . S
Mg31 O30 2.028 . S
Mg31 O36 2.032 . S
Mg31 O38 2.079 . S
C32 O29 1.250 . S
C32 O30 1.248 . S
C33 O34 1.264 . S
C33 O41 1.249 . S
O34 C33 1.264 . S
O35 Mg28 1.986 . S
O35 C39 1.246 . S
O36 Mg31 2.032 . S
O36 C39 1.259 . S
O37 Mg28 2.114 . S
O37 C40 1.252 . S
O38 Mg28 2.251 . S
O38 Mg31 2.079 . S
O38 C40 1.273 . S
C39 O35 1.246 . S
C39 O36 1.259 . S
C40 O37 1.252 . S
C40 O38 1.273 . S
O41 Mg28 2.010 . S
O41 C33 1.249 . S
Mg42 O43 2.028 . S
Mg42 O49 1.986 . S
Mg42 O51 2.114 . S
Mg42 O52 2.251 . S
Mg42 O55 2.010 1_554 S
O43 Mg42 2.028 . S
O43 C46 1.250 . S
O44 Mg45 2.028 . S
O44 C46 1.248 . S
Mg45 O44 2.028 . S
Mg45 O50 2.032 . S
Mg45 O52 2.079 . S
C46 O43 1.250 . S
C46 O44 1.248 . S
C47 O48 1.264 . S
C47 O55 1.249 . S
O48 C47 1.264 . S
O49 Mg42 1.986 . S
O49 C53 1.246 . S
O50 Mg45 2.032 . S
O50 C53 1.259 . S
O51 Mg42 2.114 . S
O51 C54 1.252 . S
O52 Mg42 2.251 . S
O52 Mg45 2.079 . S
O52 C54 1.273 . S
C53 O49 1.246 . S
C53 O50 1.259 . S
C54 O51 1.252 . S
C54 O52 1.273 . S
O55 Mg42 2.010 1_556 S
O55 C47 1.249 . S
Mg56 O57 2.028 . S
Mg56 O63 1.986 . S
Mg56 O65 2.114 . S
Mg56 O66 2.251 . S
Mg56 O69 2.010 . S
O57 Mg56 2.028 . S
O57 C60 1.250 . S
O58 Mg59 2.028 . S
O58 C60 1.248 . S
Mg59 O58 2.028 . S
Mg59 O64 2.032 . S
Mg59 O66 2.079 . S
C60 O57 1.250 . S
C60 O58 1.248 . S
C61 O62 1.264 . S
C61 O69 1.249 . S
O62 C61 1.264 . S
O63 Mg56 1.986 . S
O63 C67 1.246 . S
O64 Mg59 2.032 . S
O64 C67 1.259 . S
O65 Mg56 2.114 . S
O65 C68 1.252 . S
O66 Mg56 2.251 . S
O66 Mg59 2.079 . S
O66 C68 1.273 . S
C67 O63 1.246 . S
C67 O64 1.259 . S
C68 O65 1.252 . S
C68 O66 1.273 . S
O69 Mg56 2.010 . S
O69 C61 1.249 . S
Mg70 O71 2.028 . S
Mg70 O77 1.986 . S
Mg70 O79 2.114 . S
Mg70 O80 2.251 . S
Mg70 O83 2.010 . S
O71 Mg70 2.028 . S
O71 C74 1.250 . S
O72 Mg73 2.028 . S
O72 C74 1.248 . S
Mg73 O72 2.028 . S
Mg73 O78 2.032 . S
Mg73 O80 2.079 . S
C74 O71 1.250 . S
C74 O72 1.248 . S
C75 O76 1.264 . S
C75 O83 1.249 . S
O76 C75 1.264 . S
O77 Mg70 1.986 . S
O77 C81 1.246 . S
O78 Mg73 2.032 . S
O78 C81 1.259 . S
O79 Mg70 2.114 . S
O79 C82 1.252 . S
O80 Mg70 2.251 . S
O80 Mg73 2.079 . S
O80 C82 1.273 . S
C81 O77 1.246 . S
C81 O78 1.259 . S
C82 O79 1.252 . S
C82 O80 1.273 . S
O83 Mg70 2.010 . S
O83 C75 1.249 . S
Mg84 O85 2.028 . S
Mg84 O91 1.986 . S
Mg84 O93 2.114 . S
Mg84 O94 2.251 . S
Mg84 O97 2.010 . S
O85 Mg84 2.028 . S
O85 C88 1.250 . S
O86 Mg87 2.028 . S
O86 C88 1.248 . S
Mg87 O86 2.028 . S
Mg87 O92 2.032 . S
Mg87 O94 2.079 . S
C88 O85 1.250 . S
C88 O86 1.248 . S
C89 O90 1.264 . S
C89 O97 1.249 . S
O90 C89 1.264 . S
O91 Mg84 1.986 . S
O91 C95 1.246 . S
O92 Mg87 2.032 . S
O92 C95 1.259 . S
O93 Mg84 2.114 . S
O93 C96 1.252 . S
O94 Mg84 2.251 . S
O94 Mg87 2.079 . S
O94 C96 1.273 . S
C95 O91 1.246 . S
C95 O92 1.259 . S
C96 O93 1.252 . S
C96 O94 1.273 . S
O97 Mg84 2.010 . S
O97 C89 1.249 . S
Mg98 O99 2.028 1_455 S
Mg98 O105 1.986 1_455 S
Mg98 O107 2.114 . S
Mg98 O108 2.251 . S
Mg98 O111 2.010 1_456 S
O99 Mg98 2.028 1_655 S
O99 C102 1.250 . S
O100 Mg101 2.028 1_655 S
O100 C102 1.248 . S
Mg101 O100 2.028 1_455 S
Mg101 O106 2.032 . S
Mg101 O108 2.079 . S
C102 O99 1.250 . S
C102 O100 1.248 . S
C103 O104 1.264 . S
C103 O111 1.249 . S
O104 C103 1.264 . S
O105 Mg98 1.986 1_655 S
O105 C109 1.251 . S
O106 Mg101 2.032 . S
O106 C109 1.255 1_455 S
O107 Mg98 2.114 . S
O107 C110 1.252 . S
O108 Mg98 2.251 . S
O108 Mg101 2.079 . S
O108 C110 1.273 . S
C109 O105 1.251 . S
C109 O106 1.255 1_655 S
C110 O107 1.252 . S
C110 O108 1.273 . S
O111 Mg98 2.010 1_654 S
O111 C103 1.249 . S
Mg112 O113 2.028 . S
Mg112 O119 1.986 . S
Mg112 O121 2.114 . S
Mg112 O122 2.251 . S
Mg112 O125 2.010 . S
O113 Mg112 2.028 . S
O113 C116 1.250 . S
O114 Mg115 2.028 . S
O114 C116 1.248 . S
Mg115 O114 2.028 . S
Mg115 O120 2.032 . S
Mg115 O122 2.079 . S
C116 O113 1.250 . S
C116 O114 1.248 . S
C117 O118 1.264 . S
C117 O125 1.249 . S
O118 C117 1.264 . S
O119 Mg112 1.986 . S
O119 C123 1.246 . S
O120 Mg115 2.032 . S
O120 C123 1.259 . S
O121 Mg112 2.114 . S
O121 C124 1.252 . S
O122 Mg112 2.251 . S
O122 Mg115 2.079 . S
O122 C124 1.273 . S
C123 O119 1.246 . S
C123 O120 1.259 . S
C124 O121 1.252 . S
C124 O122 1.273 . S
O125 Mg112 2.010 . S
O125 C117 1.249 . S
Mg126 O127 2.028 . S
Mg126 O133 1.986 . S
Mg126 O135 2.114 1_455 S
Mg126 O136 2.251 1_455 S
Mg126 O139 2.010 . S
O127 Mg126 2.028 . S
O127 C130 1.250 . S
O128 Mg129 2.028 . S
O128 C130 1.248 . S
Mg129 O128 2.028 . S
Mg129 O134 2.032 . S
Mg129 O136 2.079 1_455 S
C130 O127 1.250 . S
C130 O128 1.248 . S
C131 O132 1.264 . S
C131 O139 1.249 . S
O132 C131 1.264 . S
O133 Mg126 1.986 . S
O133 C137 1.246 . S
O134 Mg129 2.032 . S
O134 C137 1.259 . S
O135 Mg126 2.114 1_655 S
O135 C138 1.252 . S
O136 Mg126 2.251 1_655 S
O136 Mg129 2.079 1_655 S
O136 C138 1.273 . S
C137 O133 1.246 . S
C137 O134 1.259 . S
C138 O135 1.252 . S
C138 O136 1.273 . S
O139 Mg126 2.010 . S
O139 C131 1.249 . S
Mg140 O141 2.028 . S
Mg140 O147 1.986 . S
Mg140 O149 2.114 . S
Mg140 O150 2.251 . S
Mg140 O153 2.010 . S
O141 Mg140 2.028 . S
O141 C144 1.250 . S
O142 Mg143 2.028 . S
O142 C144 1.248 . S
Mg143 O142 2.028 . S
Mg143 O148 2.032 . S
Mg143 O150 2.079 . S
C144 O141 1.250 . S
C144 O142 1.248 . S
C145 O146 1.264 . S
C145 O153 1.249 . S
O146 C145 1.264 . S
O147 Mg140 1.986 . S
O147 C151 1.246 . S
O148 Mg143 2.032 . S
O148 C151 1.259 . S
O149 Mg140 2.114 . S
O149 C152 1.252 . S
O150 Mg140 2.251 . S
O150 Mg143 2.079 . S
O150 C152 1.273 . S
C151 O147 1.246 . S
C151 O148 1.259 . S
C152 O149 1.252 . S
C152 O150 1.273 . S
O153 Mg140 2.010 . S
O153 C145 1.249 . S
Mg154 O155 2.028 . S
Mg154 O161 1.986 . S
Mg154 O163 2.114 . S
Mg154 O164 2.251 . S
Mg154 O167 2.010 1_556 S
O155 Mg154 2.028 . S
O155 C158 1.250 . S
O156 Mg157 2.028 . S
O156 C158 1.248 . S
Mg157 O156 2.028 . S
Mg157 O162 2.032 . S
Mg157 O164 2.079 . S
C158 O155 1.250 . S
C158 O156 1.248 . S
C159 O160 1.264 . S
C159 O167 1.249 . S
O160 C159 1.264 . S
O161 Mg154 1.986 . S
O161 C165 1.246 . S
O162 Mg157 2.032 . S
O162 C165 1.259 . S
O163 Mg154 2.114 . S
O163 C166 1.252 . S
O164 Mg154 2.251 . S
O164 Mg157 2.079 . S
O164 C166 1.273 . S
C165 O161 1.246 . S
C165 O162 1.259 . S
C166 O163 1.252 . S
C166 O164 1.273 . S
O167 Mg154 2.010 1_554 S
O167 C159 1.249 . S
Mg168 O169 2.028 . S
Mg168 O175 1.986 . S
Mg168 O177 2.114 . S
Mg168 O178 2.251 . S
Mg168 O181 2.010 . S
O169 Mg168 2.028 . S
O169 C172 1.250 . S
O170 Mg171 2.028 . S
O170 C172 1.248 . S
Mg171 O170 2.028 . S
Mg171 O176 2.032 . S
Mg171 O178 2.079 . S
C172 O169 1.250 . S
C172 O170 1.248 . S
C173 O174 1.264 . S
C173 O181 1.249 . S
O174 C173 1.264 . S
O175 Mg168 1.986 . S
O175 C179 1.246 . S
O176 Mg171 2.032 . S
O176 C179 1.259 . S
O177 Mg168 2.114 . S
O177 C180 1.252 . S
O178 Mg168 2.251 . S
O178 Mg171 2.079 . S
O178 C180 1.273 . S
C179 O175 1.246 . S
C179 O176 1.259 . S
C180 O177 1.252 . S
C180 O178 1.273 . S
O181 Mg168 2.010 . S
O181 C173 1.249 . S
Mg182 O183 2.028 . S
Mg182 O189 1.986 . S
Mg182 O191 2.114 . S
Mg182 O192 2.251 . S
Mg182 O195 2.010 . S
O183 Mg182 2.028 . S
O183 C186 1.250 . S
O184 Mg185 2.028 . S
O184 C186 1.248 . S
Mg185 O184 2.028 . S
Mg185 O190 2.032 . S
Mg185 O192 2.079 . S
C186 O183 1.250 . S
C186 O184 1.248 . S
C187 O188 1.264 . S
C187 O195 1.249 . S
O188 C187 1.264 . S
O189 Mg182 1.986 . S
O189 C193 1.246 . S
O190 Mg185 2.032 . S
O190 C193 1.259 . S
O191 Mg182 2.114 . S
O191 C194 1.252 . S
O192 Mg182 2.251 . S
O192 Mg185 2.079 . S
O192 C194 1.273 . S
C193 O189 1.246 . S
C193 O190 1.259 . S
C194 O191 1.252 . S
C194 O192 1.273 . S
O195 Mg182 2.010 . S
O195 C187 1.249 . S
Mg196 O197 2.028 . S
Mg196 O203 1.986 . S
Mg196 O205 2.114 . S
Mg196 O206 2.251 . S
Mg196 O209 2.010 . S
O197 Mg196 2.028 . S
O197 C200 1.250 . S
O198 Mg199 2.028 . S
O198 C200 1.248 . S
Mg199 O198 2.028 . S
Mg199 O204 2.032 . S
Mg199 O206 2.079 . S
C200 O197 1.250 . S
C200 O198 1.248 . S
C201 O202 1.264 . S
C201 O209 1.249 . S
O202 C201 1.264 . S
O203 Mg196 1.986 . S
O203 C207 1.246 . S
O204 Mg199 2.032 . S
O204 C207 1.259 . S
O205 Mg196 2.114 . S
O205 C208 1.252 . S
O206 Mg196 2.251 . S
O206 Mg199 2.079 . S
O206 C208 1.273 . S
C207 O203 1.246 . S
C207 O204 1.259 . S
C208 O205 1.252 . S
C208 O206 1.273 . S
O209 Mg196 2.010 . S
O209 C201 1.249 . S
Mg210 O211 2.028 . S
Mg210 O217 1.986 . S
Mg210 O219 2.114 1_455 S
Mg210 O220 2.251 1_455 S
Mg210 O223 2.010 1_554 S
O211 Mg210 2.028 . S
O211 C214 1.250 . S
O212 Mg213 2.028 . S
O212 C214 1.248 . S
Mg213 O212 2.028 . S
Mg213 O218 2.032 . S
Mg213 O220 2.079 1_455 S
C214 O211 1.250 . S
C214 O212 1.248 . S
C215 O216 1.264 . S
C215 O223 1.249 . S
O216 C215 1.264 . S
O217 Mg210 1.986 . S
O217 C221 1.246 . S
O218 Mg213 2.032 . S
O218 C221 1.259 . S
O219 Mg210 2.114 1_655 S
O219 C222 1.252 . S
O220 Mg210 2.251 1_655 S
O220 Mg213 2.079 1_655 S
O220 C222 1.273 . S
C221 O217 1.246 . S
C221 O218 1.259 . S
C222 O219 1.252 . S
C222 O220 1.273 . S
O223 Mg210 2.010 1_556 S
O223 C215 1.249 . S
Mg224 O225 2.028 . S
Mg224 O231 1.986 . S
Mg224 O233 2.114 . S
Mg224 O234 2.251 . S
Mg224 O237 2.010 . S
O225 Mg224 2.028 . S
O225 C228 1.250 . S
O226 Mg227 2.028 . S
O226 C228 1.248 . S
Mg227 O226 2.028 . S
Mg227 O232 2.032 . S
Mg227 O234 2.079 . S
C228 O225 1.250 . S
C228 O226 1.248 . S
C229 O230 1.264 . S
C229 O237 1.249 . S
O230 C229 1.264 . S
O231 Mg224 1.986 . S
O231 C235 1.246 . S
O232 Mg227 2.032 . S
O232 C235 1.259 . S
O233 Mg224 2.114 . S
O233 C236 1.252 . S
O234 Mg224 2.251 . S
O234 Mg227 2.079 . S
O234 C236 1.273 . S
C235 O231 1.246 . S
C235 O232 1.259 . S
C236 O233 1.252 . S
C236 O234 1.273 . S
O237 Mg224 2.010 . S
O237 C229 1.249 . S
Mg238 O239 2.028 . S
Mg238 O245 1.986 . S
Mg238 O247 2.114 . S
Mg238 O248 2.251 . S
Mg238 O251 2.010 1_554 S
O239 Mg238 2.028 . S
O239 C242 1.250 . S
O240 Mg241 2.028 . S
O240 C242 1.248 . S
Mg241 O240 2.028 . S
Mg241 O246 2.032 . S
Mg241 O248 2.079 . S
C242 O239 1.250 . S
C242 O240 1.248 . S
C243 O244 1.264 . S
C243 O251 1.249 . S
O244 C243 1.264 . S
O245 Mg238 1.986 . S
O245 C249 1.246 . S
O246 Mg241 2.032 . S
O246 C249 1.259 . S
O247 Mg238 2.114 . S
O247 C250 1.252 . S
O248 Mg238 2.251 . S
O248 Mg241 2.079 . S
O248 C250 1.273 . S
C249 O245 1.246 . S
C249 O246 1.259 . S
C250 O247 1.252 . S
C250 O248 1.273 . S
O251 Mg238 2.010 1_556 S
O251 C243 1.249 . S
Mg252 O253 2.028 . S
Mg252 O259 1.986 . S
Mg252 O261 2.114 . S
Mg252 O262 2.251 . S
Mg252 O265 2.010 . S
O253 Mg252 2.028 . S
O253 C256 1.250 . S
O254 Mg255 2.028 . S
O254 C256 1.248 . S
Mg255 O254 2.028 . S
Mg255 O260 2.032 . S
Mg255 O262 2.079 . S
C256 O253 1.250 . S
C256 O254 1.248 . S
C257 O258 1.264 . S
C257 O265 1.249 . S
O258 C257 1.264 . S
O259 Mg252 1.986 . S
O259 C263 1.246 . S
O260 Mg255 2.032 . S
O260 C263 1.259 . S
O261 Mg252 2.114 . S
O261 C264 1.252 . S
O262 Mg252 2.251 . S
O262 Mg255 2.079 . S
O262 C264 1.273 . S
C263 O259 1.246 . S
C263 O260 1.259 . S
C264 O261 1.252 . S
C264 O262 1.273 . S
O265 Mg252 2.010 . S
O265 C257 1.249 . S
Mg266 O267 2.028 1_655 S
Mg266 O273 1.986 1_655 S
Mg266 O275 2.114 . S
Mg266 O276 2.251 . S
Mg266 O279 2.010 1_655 S
O267 Mg266 2.028 1_455 S
O267 C270 1.250 . S
O268 Mg269 2.028 1_455 S
O268 C270 1.248 . S
Mg269 O268 2.028 1_655 S
Mg269 O274 2.032 . S
Mg269 O276 2.079 . S
C270 O267 1.250 . S
C270 O268 1.248 . S
C271 O272 1.264 . S
C271 O279 1.249 . S
O272 C271 1.264 . S
O273 Mg266 1.986 1_455 S
O273 C277 1.251 . S
O274 Mg269 2.032 . S
O274 C277 1.255 1_655 S
O275 Mg266 2.114 . S
O275 C278 1.252 . S
O276 Mg266 2.251 . S
O276 Mg269 2.079 . S
O276 C278 1.273 . S
C277 O273 1.251 . S
C277 O274 1.255 1_455 S
C278 O275 1.252 . S
C278 O276 1.273 . S
O279 Mg266 2.010 1_455 S
O279 C271 1.249 . S
Mg280 O281 2.028 . S
Mg280 O287 1.986 . S
Mg280 O289 2.114 . S
Mg280 O290 2.251 . S
Mg280 O293 2.010 . S
O281 Mg280 2.028 . S
O281 C284 1.250 . S
O282 Mg283 2.028 . S
O282 C284 1.248 . S
Mg283 O282 2.028 . S
Mg283 O288 2.032 . S
Mg283 O290 2.079 . S
C284 O281 1.250 . S
C284 O282 1.248 . S
C285 O286 1.264 . S
C285 O293 1.249 . S
O286 C285 1.264 . S
O287 Mg280 1.986 . S
O287 C291 1.246 . S
O288 Mg283 2.032 . S
O288 C291 1.259 . S
O289 Mg280 2.114 . S
O289 C292 1.252 . S
O290 Mg280 2.251 . S
O290 Mg283 2.079 . S
O290 C292 1.273 . S
C291 O287 1.246 . S
C291 O288 1.259 . S
C292 O289 1.252 . S
C292 O290 1.273 . S
O293 Mg280 2.010 . S
O293 C285 1.249 . S
Mg294 O295 2.028 1_655 S
Mg294 O301 1.986 1_655 S
Mg294 O303 2.114 . S
Mg294 O304 2.251 . S
Mg294 O307 2.010 1_656 S
O295 Mg294 2.028 1_455 S
O295 C298 1.250 . S
O296 Mg297 2.028 1_455 S
O296 C298 1.248 . S
Mg297 O296 2.028 1_655 S
Mg297 O302 2.032 . S
Mg297 O304 2.079 . S
C298 O295 1.250 . S
C298 O296 1.248 . S
C299 O300 1.264 . S
C299 O307 1.249 . S
O300 C299 1.264 . S
O301 Mg294 1.986 1_455 S
O301 C305 1.251 . S
O302 Mg297 2.032 . S
O302 C305 1.255 1_655 S
O303 Mg294 2.114 . S
O303 C306 1.252 . S
O304 Mg294 2.251 . S
O304 Mg297 2.079 . S
O304 C306 1.273 . S
C305 O301 1.251 . S
C305 O302 1.255 1_455 S
C306 O303 1.252 . S
C306 O304 1.273 . S
O307 Mg294 2.010 1_454 S
O307 C299 1.249 . S
Mg308 O309 2.028 . S
Mg308 O315 1.986 . S
Mg308 O317 2.114 . S
Mg308 O318 2.251 . S
Mg308 O321 2.010 . S
O309 Mg308 2.028 . S
O309 C312 1.250 . S
O310 Mg311 2.028 . S
O310 C312 1.248 . S
Mg311 O310 2.028 . S
Mg311 O316 2.032 . S
Mg311 O318 2.079 . S
C312 O309 1.250 . S
C312 O310 1.248 . S
C313 O314 1.264 . S
C313 O321 1.249 . S
O314 C313 1.264 . S
O315 Mg308 1.986 . S
O315 C319 1.246 . S
O316 Mg311 2.032 . S
O316 C319 1.259 . S
O317 Mg308 2.114 . S
O317 C320 1.252 . S
O318 Mg308 2.251 . S
O318 Mg311 2.079 . S
O318 C320 1.273 . S
C319 O315 1.246 . S
C319 O316 1.259 . S
C320 O317 1.252 . S
C320 O318 1.273 . S
O321 Mg308 2.010 . S
O321 C313 1.249 . S
Mg322 O323 2.028 . S
Mg322 O329 1.986 . S
Mg322 O331 2.114 . S
Mg322 O332 2.251 . S
Mg322 O335 2.010 . S
O323 Mg322 2.028 . S
O323 C326 1.250 . S
O324 Mg325 2.028 . S
O324 C326 1.248 . S
Mg325 O324 2.028 . S
Mg325 O330 2.032 . S
Mg325 O332 2.079 . S
C326 O323 1.250 . S
C326 O324 1.248 . S
C327 O328 1.264 . S
C327 O335 1.249 . S
O328 C327 1.264 . S
O329 Mg322 1.986 . S
O329 C333 1.246 . S
O330 Mg325 2.032 . S
O330 C333 1.259 . S
O331 Mg322 2.114 . S
O331 C334 1.252 . S
O332 Mg322 2.251 . S
O332 Mg325 2.079 . S
O332 C334 1.273 . S
C333 O329 1.246 . S
C333 O330 1.259 . S
C334 O331 1.252 . S
C334 O332 1.273 . S
O335 Mg322 2.010 . S
O335 C327 1.249 . S
Mg336 O337 2.028 . S
Mg336 O343 1.986 . S
Mg336 O345 2.114 . S
Mg336 O346 2.251 . S
Mg336 O349 2.010 . S
O337 Mg336 2.028 . S
O337 C340 1.250 . S
O338 Mg339 2.028 . S
O338 C340 1.248 . S
Mg339 O338 2.028 . S
Mg339 O344 2.032 . S
Mg339 O346 2.079 . S
C340 O337 1.250 . S
C340 O338 1.248 . S
C341 O342 1.264 . S
C341 O349 1.249 . S
O342 C341 1.264 . S
O343 Mg336 1.986 . S
O343 C347 1.246 . S
O344 Mg339 2.032 . S
O344 C347 1.259 . S
O345 Mg336 2.114 . S
O345 C348 1.252 . S
O346 Mg336 2.251 . S
O346 Mg339 2.079 . S
O346 C348 1.273 . S
C347 O343 1.246 . S
C347 O344 1.259 . S
C348 O345 1.252 . S
C348 O346 1.273 . S
O349 Mg336 2.010 . S
O349 C341 1.249 . S
Mg350 O351 2.028 . S
Mg350 O357 1.986 . S
Mg350 O359 2.114 . S
Mg350 O360 2.251 . S
Mg350 O363 2.010 1_556 S
O351 Mg350 2.028 . S
O351 C354 1.250 . S
O352 Mg353 2.028 . S
O352 C354 1.248 . S
Mg353 O352 2.028 . S
Mg353 O358 2.032 . S
Mg353 O360 2.079 . S
C354 O351 1.250 . S
C354 O352 1.248 . S
C355 O356 1.264 . S
C355 O363 1.249 . S
O356 C355 1.264 . S
O357 Mg350 1.986 . S
O357 C361 1.246 . S
O358 Mg353 2.032 . S
O358 C361 1.259 . S
O359 Mg350 2.114 . S
O359 C362 1.252 . S
O360 Mg350 2.251 . S
O360 Mg353 2.079 . S
O360 C362 1.273 . S
C361 O357 1.246 . S
C361 O358 1.259 . S
C362 O359 1.252 . S
C362 O360 1.273 . S
O363 Mg350 2.010 1_554 S
O363 C355 1.249 . S
Mg364 O365 2.028 . S
Mg364 O371 1.986 . S
Mg364 O373 2.114 . S
Mg364 O374 2.251 . S
Mg364 O377 2.010 . S
O365 Mg364 2.028 . S
O365 C368 1.250 . S
O366 Mg367 2.028 . S
O366 C368 1.248 . S
Mg367 O366 2.028 . S
Mg367 O372 2.032 . S
Mg367 O374 2.079 . S
C368 O365 1.250 . S
C368 O366 1.248 . S
C369 O370 1.264 . S
C369 O377 1.249 . S
O370 C369 1.264 . S
O371 Mg364 1.986 . S
O371 C375 1.246 . S
O372 Mg367 2.032 . S
O372 C375 1.259 . S
O373 Mg364 2.114 . S
O373 C376 1.252 . S
O374 Mg364 2.251 . S
O374 Mg367 2.079 . S
O374 C376 1.273 . S
C375 O371 1.246 . S
C375 O372 1.259 . S
C376 O373 1.252 . S
C376 O374 1.273 . S
O377 Mg364 2.010 . S
O377 C369 1.249 . S
Mg378 O379 2.028 . S
Mg378 O385 1.986 . S
Mg378 O387 2.114 1_655 S
Mg378 O388 2.251 1_655 S
Mg378 O391 2.010 . S
O379 Mg378 2.028 . S
O379 C382 1.250 . S
O380 Mg381 2.028 . S
O380 C382 1.248 . S
Mg381 O380 2.028 . S
Mg381 O386 2.032 . S
Mg381 O388 2.079 1_655 S
C382 O379 1.250 . S
C382 O380 1.248 . S
C383 O384 1.264 . S
C383 O391 1.249 . S
O384 C383 1.264 . S
O385 Mg378 1.986 . S
O385 C389 1.246 . S
O386 Mg381 2.032 . S
O386 C389 1.259 . S
O387 Mg378 2.114 1_455 S
O387 C390 1.252 . S
O388 Mg378 2.251 1_455 S
O388 Mg381 2.079 1_455 S
O388 C390 1.273 . S
C389 O385 1.246 . S
C389 O386 1.259 . S
C390 O387 1.252 . S
C390 O388 1.273 . S
O391 Mg378 2.010 . S
O391 C383 1.249 . S
Mg392 O393 2.028 . S
Mg392 O399 1.986 . S
Mg392 O401 2.114 . S
Mg392 O402 2.251 . S
Mg392 O405 2.010 . S
O393 Mg392 2.028 . S
O393 C396 1.250 . S
O394 Mg395 2.028 . S
O394 C396 1.248 . S
Mg395 O394 2.028 . S
Mg395 O400 2.032 . S
Mg395 O402 2.079 . S
C396 O393 1.250 . S
C396 O394 1.248 . S
C397 O398 1.264 . S
C397 O405 1.249 . S
O398 C397 1.264 . S
O399 Mg392 1.986 . S
O399 C403 1.246 . S
O400 Mg395 2.032 . S
O400 C403 1.259 . S
O401 Mg392 2.114 . S
O401 C404 1.252 . S
O402 Mg392 2.251 . S
O402 Mg395 2.079 . S
O402 C404 1.273 . S
C403 O399 1.246 . S
C403 O400 1.259 . S
C404 O401 1.252 . S
C404 O402 1.273 . S
O405 Mg392 2.010 . S
O405 C397 1.249 . S
Mg406 O407 2.028 . S
Mg406 O413 1.986 . S
Mg406 O415 2.114 1_655 S
Mg406 O416 2.251 1_655 S
Mg406 O419 2.010 1_554 S
O407 Mg406 2.028 . S
O407 C410 1.250 . S
O408 Mg409 2.028 . S
O408 C410 1.248 . S
Mg409 O408 2.028 . S
Mg409 O414 2.032 . S
Mg409 O416 2.079 1_655 S
C410 O407 1.250 . S
C410 O408 1.248 . S
C411 O412 1.264 . S
C411 O419 1.249 . S
O412 C411 1.264 . S
O413 Mg406 1.986 . S
O413 C417 1.246 . S
O414 Mg409 2.032 . S
O414 C417 1.259 . S
O415 Mg406 2.114 1_455 S
O415 C418 1.252 . S
O416 Mg406 2.251 1_455 S
O416 Mg409 2.079 1_455 S
O416 C418 1.273 . S
C417 O413 1.246 . S
C417 O414 1.259 . S
C418 O415 1.252 . S
C418 O416 1.273 . S
O419 Mg406 2.010 1_556 S
O419 C411 1.249 . S
Mg420 O421 2.028 . S
Mg420 O427 1.986 . S
Mg420 O429 2.114 . S
Mg420 O430 2.251 . S
Mg420 O433 2.010 . S
O421 Mg420 2.028 . S
O421 C424 1.250 . S
O422 Mg423 2.028 . S
O422 C424 1.248 . S
Mg423 O422 2.028 . S
Mg423 O428 2.032 . S
Mg423 O430 2.079 . S
C424 O421 1.250 . S
C424 O422 1.248 . S
C425 O426 1.264 . S
C425 O433 1.249 . S
O426 C425 1.264 . S
O427 Mg420 1.986 . S
O427 C431 1.246 . S
O428 Mg423 2.032 . S
O428 C431 1.259 . S
O429 Mg420 2.114 . S
O429 C432 1.252 . S
O430 Mg420 2.251 . S
O430 Mg423 2.079 . S
O430 C432 1.273 . S
C431 O427 1.246 . S
C431 O428 1.259 . S
C432 O429 1.252 . S
C432 O430 1.273 . S
O433 Mg420 2.010 . S
O433 C425 1.249 . S
Mg434 O435 2.028 . S
Mg434 O441 1.986 . S
Mg434 O443 2.114 . S
Mg434 O444 2.251 . S
Mg434 O447 2.010 . S
O435 Mg434 2.028 . S
O435 C438 1.250 . S
O436 Mg437 2.028 . S
O436 C438 1.248 . S
Mg437 O436 2.028 . S
Mg437 O442 2.032 . S
Mg437 O444 2.079 . S
C438 O435 1.250 . S
C438 O436 1.248 . S
C439 O440 1.264 . S
C439 O447 1.249 . S
O440 C439 1.264 . S
O441 Mg434 1.986 . S
O441 C445 1.246 . S
O442 Mg437 2.032 . S
O442 C445 1.259 . S
O443 Mg434 2.114 . S
O443 C446 1.252 . S
O444 Mg434 2.251 . S
O444 Mg437 2.079 . S
O444 C446 1.273 . S
C445 O441 1.246 . S
C445 O442 1.259 . S
C446 O443 1.252 . S
C446 O444 1.273 . S
O447 Mg434 2.010 . S
O447 C439 1.249 . S
H448 C454 0.930 . S
H449 C458 0.930 . S
H450 C463 0.929 . S
H451 C461 0.929 . S
H452 C456 0.929 . S
H453 C462 0.929 . S
C454 H448 0.930 . S
C454 C455 1.367 . S
C454 C462 1.378 . S
C455 C454 1.367 . S
C455 C463 1.433 . S
C456 H452 0.929 . S
C456 C458 1.378 . S
C456 C460 1.350 . S
C457 C460 1.463 . S
C457 C462 1.350 . S
C457 N465 1.427 . S
C458 H449 0.930 . S
C458 C456 1.378 . S
C458 C459 1.367 . S
C459 C458 1.367 . S
C459 C461 1.433 . S
C460 C456 1.350 . S
C460 C457 1.463 . S
C460 N464 1.427 . S
C461 H451 0.929 . S
C461 C459 1.433 . S
C461 N464 1.384 . S
C462 H453 0.929 . S
C462 C454 1.378 . S
C462 C457 1.350 . S
C463 H450 0.929 . S
C463 C455 1.433 . S
C463 N465 1.384 . S
N464 C460 1.427 . S
N464 C461 1.384 . S
N465 C457 1.427 . S
N465 C463 1.384 . S
H466 C472 0.930 . S
H467 C476 0.930 . S
H468 C481 0.929 . S
H469 C479 0.929 . S
H470 C474 0.929 . S
H471 C480 0.929 . S
C472 H466 0.930 . S
C472 C473 1.367 . S
C472 C480 1.378 . S
C473 C472 1.367 . S
C473 C481 1.433 . S
C474 H470 0.929 . S
C474 C476 1.378 . S
C474 C478 1.350 . S
C475 C478 1.463 . S
C475 C480 1.350 . S
C475 N483 1.427 . S
C476 H467 0.930 . S
C476 C474 1.378 . S
C476 C477 1.367 . S
C477 C476 1.367 . S
C477 C479 1.433 . S
C478 C474 1.350 . S
C478 C475 1.463 . S
C478 N482 1.427 . S
C479 H469 0.929 . S
C479 C477 1.433 . S
C479 N482 1.384 . S
C480 H471 0.929 . S
C480 C472 1.378 . S
C480 C475 1.350 . S
C481 H468 0.929 . S
C481 C473 1.433 . S
C481 N483 1.384 . S
N482 C478 1.427 . S
N482 C479 1.384 . S
N483 C475 1.427 . S
N483 C481 1.384 . S
H484 C490 0.930 . S
H485 C494 0.930 . S
H486 C499 0.929 . S
H487 C497 0.929 . S
H488 C492 0.929 . S
H489 C498 0.929 . S
C490 H484 0.930 . S
C490 C491 1.367 . S
C490 C498 1.378 . S
C491 C490 1.367 . S
C491 C499 1.433 . S
C492 H488 0.929 . S
C492 C494 1.378 . S
C492 C496 1.350 . S
C493 C496 1.463 . S
C493 C498 1.350 . S
C493 N501 1.427 . S
C494 H485 0.930 . S
C494 C492 1.378 . S
C494 C495 1.367 . S
C495 C494 1.367 . S
C495 C497 1.433 . S
C496 C492 1.350 . S
C496 C493 1.463 . S
C496 N500 1.427 . S
C497 H487 0.929 . S
C497 C495 1.433 . S
C497 N500 1.384 . S
C498 H489 0.929 . S
C498 C490 1.378 . S
C498 C493 1.350 . S
C499 H486 0.929 . S
C499 C491 1.433 . S
C499 N501 1.384 . S
N500 C496 1.427 . S
N500 C497 1.384 . S
N501 C493 1.427 . S
N501 C499 1.384 . S
H502 C508 0.930 . S
H503 C512 0.930 . S
H504 C517 0.929 . S
H505 C515 0.929 . S
H506 C510 0.929 . S
H507 C516 0.929 . S
C508 H502 0.930 . S
C508 C509 1.367 . S
C508 C516 1.378 . S
C509 C508 1.367 . S
C509 C517 1.433 . S
C510 H506 0.929 . S
C510 C512 1.378 . S
C510 C514 1.350 . S
C511 C514 1.463 . S
C511 C516 1.350 . S
C511 N519 1.427 . S
C512 H503 0.930 . S
C512 C510 1.378 . S
C512 C513 1.367 . S
C513 C512 1.367 . S
C513 C515 1.433 . S
C514 C510 1.350 . S
C514 C511 1.463 . S
C514 N518 1.427 . S
C515 H505 0.929 . S
C515 C513 1.433 . S
C515 N518 1.384 . S
C516 H507 0.929 . S
C516 C508 1.378 . S
C516 C511 1.350 . S
C517 H504 0.929 . S
C517 C509 1.433 . S
C517 N519 1.384 . S
N518 C514 1.427 . S
N518 C515 1.384 . S
N519 C511 1.427 . S
N519 C517 1.384 . S
H520 C526 0.930 . S
H521 C530 0.930 . S
H522 C535 0.929 . S
H523 C533 0.929 . S
H524 C528 0.929 . S
H525 C534 0.929 . S
C526 H520 0.930 . S
C526 C527 1.367 . S
C526 C534 1.378 . S
C527 C526 1.367 . S
C527 C535 1.433 . S
C528 H524 0.929 . S
C528 C530 1.378 . S
C528 C532 1.350 . S
C529 C532 1.463 . S
C529 C534 1.350 . S
C529 N537 1.427 . S
C530 H521 0.930 . S
C530 C528 1.378 . S
C530 C531 1.367 . S
C531 C530 1.367 . S
C531 C533 1.433 . S
C532 C528 1.350 . S
C532 C529 1.463 . S
C532 N536 1.427 . S
C533 H523 0.929 . S
C533 C531 1.433 . S
C533 N536 1.384 . S
C534 H525 0.929 . S
C534 C526 1.378 . S
C534 C529 1.350 . S
C535 H522 0.929 . S
C535 C527 1.433 . S
C535 N537 1.384 . S
N536 C532 1.427 . S
N536 C533 1.384 . S
N537 C529 1.427 . S
N537 C535 1.384 . S
H538 C544 0.930 . S
H539 C548 0.930 . S
H540 C553 0.929 . S
H541 C551 0.929 . S
H542 C546 0.929 . S
H543 C552 0.929 . S
C544 H538 0.930 . S
C544 C545 1.367 . S
C544 C552 1.378 . S
C545 C544 1.367 . S
C545 C553 1.433 . S
C546 H542 0.929 . S
C546 C548 1.378 . S
C546 C550 1.350 . S
C547 C550 1.463 . S
C547 C552 1.350 . S
C547 N555 1.427 . S
C548 H539 0.930 . S
C548 C546 1.378 . S
C548 C549 1.367 . S
C549 C548 1.367 . S
C549 C551 1.433 . S
C550 C546 1.350 . S
C550 C547 1.463 . S
C550 N554 1.427 . S
C551 H541 0.929 . S
C551 C549 1.433 . S
C551 N554 1.384 . S
C552 H543 0.929 . S
C552 C544 1.378 . S
C552 C547 1.350 . S
C553 H540 0.929 . S
C553 C545 1.433 . S
C553 N555 1.384 . S
N554 C550 1.427 . S
N554 C551 1.384 . S
N555 C547 1.427 . S
N555 C553 1.384 . S
H556 C562 0.930 . S
H557 C566 0.930 . S
H558 C571 0.929 . S
H559 C569 0.929 . S
H560 C564 0.929 . S
H561 C570 0.929 . S
C562 H556 0.930 . S
C562 C563 1.367 . S
C562 C570 1.378 . S
C563 C562 1.367 . S
C563 C571 1.433 . S
C564 H560 0.929 . S
C564 C566 1.378 . S
C564 C568 1.350 . S
C565 C568 1.463 . S
C565 C570 1.350 . S
C565 N573 1.427 . S
C566 H557 0.930 . S
C566 C564 1.378 . S
C566 C567 1.367 . S
C567 C566 1.367 . S
C567 C569 1.433 . S
C568 C564 1.350 . S
C568 C565 1.463 . S
C568 N572 1.427 . S
C569 H559 0.929 . S
C569 C567 1.433 . S
C569 N572 1.384 . S
C570 H561 0.929 . S
C570 C562 1.378 . S
C570 C565 1.350 . S
C571 H558 0.929 . S
C571 C563 1.433 . S
C571 N573 1.384 . S
N572 C568 1.427 . S
N572 C569 1.384 . S
N573 C565 1.427 . S
N573 C571 1.384 . S
H574 C580 0.930 . S
H575 C584 0.930 . S
H576 C589 0.929 . S
H577 C587 0.929 . S
H578 C582 0.929 . S
H579 C588 0.929 . S
C580 H574 0.930 . S
C580 C581 1.367 . S
C580 C588 1.378 . S
C581 C580 1.367 . S
C581 C589 1.433 . S
C582 H578 0.929 . S
C582 C584 1.378 . S
C582 C586 1.350 . S
C583 C586 1.463 . S
C583 C588 1.350 . S
C583 N591 1.427 . S
C584 H575 0.930 . S
C584 C582 1.378 . S
C584 C585 1.367 . S
C585 C584 1.367 . S
C585 C587 1.433 . S
C586 C582 1.350 . S
C586 C583 1.463 . S
C586 N590 1.427 . S
C587 H577 0.929 . S
C587 C585 1.433 . S
C587 N590 1.384 . S
C588 H579 0.929 . S
C588 C580 1.378 . S
C588 C583 1.350 . S
C589 H576 0.929 . S
C589 C581 1.433 . S
C589 N591 1.384 . S
N590 C586 1.427 . S
N590 C587 1.384 . S
N591 C583 1.427 . S
N591 C589 1.384 . S
H592 C598 0.930 . S
H593 C602 0.930 . S
H594 C607 0.929 . S
H595 C605 0.929 . S
H596 C600 0.929 . S
H597 C606 0.929 . S
C598 H592 0.930 . S
C598 C599 1.367 . S
C598 C606 1.378 . S
C599 C598 1.367 . S
C599 C607 1.433 . S
C600 H596 0.929 . S
C600 C602 1.378 . S
C600 C604 1.350 . S
C601 C604 1.463 . S
C601 C606 1.350 . S
C601 N609 1.427 . S
C602 H593 0.930 . S
C602 C600 1.378 . S
C602 C603 1.367 . S
C603 C602 1.367 . S
C603 C605 1.433 . S
C604 C600 1.350 . S
C604 C601 1.463 . S
C604 N608 1.427 . S
C605 H595 0.929 . S
C605 C603 1.433 . S
C605 N608 1.384 . S
C606 H597 0.929 . S
C606 C598 1.378 . S
C606 C601 1.350 . S
C607 H594 0.929 . S
C607 C599 1.433 . S
C607 N609 1.384 . S
N608 C604 1.427 . S
N608 C605 1.384 . S
N609 C601 1.427 . S
N609 C607 1.384 . S
H610 C616 0.930 . S
H611 C620 0.930 . S
H612 C625 0.929 . S
H613 C623 0.929 . S
H614 C618 0.929 . S
H615 C624 0.929 . S
C616 H610 0.930 . S
C616 C617 1.367 . S
C616 C624 1.378 . S
C617 C616 1.367 . S
C617 C625 1.433 . S
C618 H614 0.929 . S
C618 C620 1.378 . S
C618 C622 1.350 . S
C619 C622 1.463 . S
C619 C624 1.350 . S
C619 N627 1.427 . S
C620 H611 0.930 . S
C620 C618 1.378 . S
C620 C621 1.367 . S
C621 C620 1.367 . S
C621 C623 1.433 . S
C622 C618 1.350 . S
C622 C619 1.463 . S
C622 N626 1.427 . S
C623 H613 0.929 . S
C623 C621 1.433 . S
C623 N626 1.384 . S
C624 H615 0.929 . S
C624 C616 1.378 . S
C624 C619 1.350 . S
C625 H612 0.929 . S
C625 C617 1.433 . S
C625 N627 1.384 . S
N626 C622 1.427 . S
N626 C623 1.384 . S
N627 C619 1.427 . S
N627 C625 1.384 . S
H628 C634 0.930 . S
H629 C638 0.930 . S
H630 C643 0.929 . S
H631 C641 0.929 . S
H632 C636 0.929 . S
H633 C642 0.929 . S
C634 H628 0.930 . S
C634 C635 1.367 . S
C634 C642 1.378 . S
C635 C634 1.367 . S
C635 C643 1.433 . S
C636 H632 0.929 . S
C636 C638 1.378 . S
C636 C640 1.350 . S
C637 C640 1.463 . S
C637 C642 1.350 . S
C637 N645 1.427 . S
C638 H629 0.930 . S
C638 C636 1.378 . S
C638 C639 1.367 . S
C639 C638 1.367 . S
C639 C641 1.433 . S
C640 C636 1.350 . S
C640 C637 1.463 . S
C640 N644 1.427 . S
C641 H631 0.929 . S
C641 C639 1.433 . S
C641 N644 1.384 . S
C642 H633 0.929 . S
C642 C634 1.378 . S
C642 C637 1.350 . S
C643 H630 0.929 . S
C643 C635 1.433 . S
C643 N645 1.384 . S
N644 C640 1.427 . S
N644 C641 1.384 . S
N645 C637 1.427 . S
N645 C643 1.384 . S
H646 C652 0.930 . S
H647 C656 0.930 . S
H648 C661 0.929 . S
H649 C659 0.929 . S
H650 C654 0.929 . S
H651 C660 0.929 . S
C652 H646 0.930 . S
C652 C653 1.367 . S
C652 C660 1.378 . S
C653 C652 1.367 . S
C653 C661 1.433 . S
C654 H650 0.929 . S
C654 C656 1.378 . S
C654 C658 1.350 . S
C655 C658 1.463 . S
C655 C660 1.350 . S
C655 N663 1.427 . S
C656 H647 0.930 . S
C656 C654 1.378 . S
C656 C657 1.367 . S
C657 C656 1.367 . S
C657 C659 1.433 . S
C658 C654 1.350 . S
C658 C655 1.463 . S
C658 N662 1.427 . S
C659 H649 0.929 . S
C659 C657 1.433 . S
C659 N662 1.384 . S
C660 H651 0.929 . S
C660 C652 1.378 . S
C660 C655 1.350 . S
C661 H648 0.929 . S
C661 C653 1.433 . S
C661 N663 1.384 . S
N662 C658 1.427 . S
N662 C659 1.384 . S
N663 C655 1.427 . S
N663 C661 1.384 . S
H664 C670 0.930 . S
H665 C674 0.930 . S
H666 C679 0.929 . S
H667 C677 0.929 . S
H668 C672 0.929 . S
H669 C678 0.929 . S
C670 H664 0.930 . S
C670 C671 1.367 . S
C670 C678 1.378 . S
C671 C670 1.367 . S
C671 C679 1.433 . S
C672 H668 0.929 . S
C672 C674 1.378 . S
C672 C676 1.350 . S
C673 C676 1.463 . S
C673 C678 1.350 . S
C673 N681 1.427 . S
C674 H665 0.930 . S
C674 C672 1.378 . S
C674 C675 1.367 . S
C675 C674 1.367 . S
C675 C677 1.433 . S
C676 C672 1.350 . S
C676 C673 1.463 . S
C676 N680 1.427 . S
C677 H667 0.929 . S
C677 C675 1.433 . S
C677 N680 1.384 . S
C678 H669 0.929 . S
C678 C670 1.378 . S
C678 C673 1.350 . S
C679 H666 0.929 . S
C679 C671 1.433 . S
C679 N681 1.384 . S
N680 C676 1.427 . S
N680 C677 1.384 . S
N681 C673 1.427 . S
N681 C679 1.384 . S
H682 C688 0.930 . S
H683 C692 0.930 . S
H684 C697 0.929 . S
H685 C695 0.929 . S
H686 C690 0.929 . S
H687 C696 0.929 . S
C688 H682 0.930 . S
C688 C689 1.367 . S
C688 C696 1.378 . S
C689 C688 1.367 . S
C689 C697 1.433 . S
C690 H686 0.929 . S
C690 C692 1.378 . S
C690 C694 1.350 . S
C691 C694 1.463 . S
C691 C696 1.350 . S
C691 N699 1.427 . S
C692 H683 0.930 . S
C692 C690 1.378 . S
C692 C693 1.367 . S
C693 C692 1.367 . S
C693 C695 1.433 . S
C694 C690 1.350 . S
C694 C691 1.463 . S
C694 N698 1.427 . S
C695 H685 0.929 . S
C695 C693 1.433 . S
C695 N698 1.384 . S
C696 H687 0.929 . S
C696 C688 1.378 . S
C696 C691 1.350 . S
C697 H684 0.929 . S
C697 C689 1.433 . S
C697 N699 1.384 . S
N698 C694 1.427 . S
N698 C695 1.384 . S
N699 C691 1.427 . S
N699 C697 1.384 . S
H700 C706 0.930 . S
H701 C710 0.930 . S
H702 C715 0.929 . S
H703 C713 0.929 . S
H704 C708 0.929 . S
H705 C714 0.929 . S
C706 H700 0.930 . S
C706 C707 1.367 . S
C706 C714 1.378 . S
C707 C706 1.367 . S
C707 C715 1.433 . S
C708 H704 0.929 . S
C708 C710 1.378 . S
C708 C712 1.350 . S
C709 C712 1.463 . S
C709 C714 1.350 . S
C709 N717 1.427 . S
C710 H701 0.930 . S
C710 C708 1.378 . S
C710 C711 1.367 . S
C711 C710 1.367 . S
C711 C713 1.433 . S
C712 C708 1.350 . S
C712 C709 1.463 . S
C712 N716 1.427 . S
C713 H703 0.929 . S
C713 C711 1.433 . S
C713 N716 1.384 . S
C714 H705 0.929 . S
C714 C706 1.378 . S
C714 C709 1.350 . S
C715 H702 0.929 . S
C715 C707 1.433 . S
C715 N717 1.384 . S
N716 C712 1.427 . S
N716 C713 1.384 . S
N717 C709 1.427 . S
N717 C715 1.384 . S
H718 C724 0.930 . S
H719 C728 0.930 . S
H720 C733 0.929 . S
H721 C731 0.929 . S
H722 C726 0.929 . S
H723 C732 0.929 . S
C724 H718 0.930 . S
C724 C725 1.367 . S
C724 C732 1.378 . S
C725 C724 1.367 . S
C725 C733 1.433 . S
C726 H722 0.929 . S
C726 C728 1.378 . S
C726 C730 1.350 . S
C727 C730 1.463 . S
C727 C732 1.350 . S
C727 N735 1.427 . S
C728 H719 0.930 . S
C728 C726 1.378 . S
C728 C729 1.367 . S
C729 C728 1.367 . S
C729 C731 1.433 . S
C730 C726 1.350 . S
C730 C727 1.463 . S
C730 N734 1.427 . S
C731 H721 0.929 . S
C731 C729 1.433 . S
C731 N734 1.384 . S
C732 H723 0.929 . S
C732 C724 1.378 . S
C732 C727 1.350 . S
C733 H720 0.929 . S
C733 C725 1.433 . S
C733 N735 1.384 . S
N734 C730 1.427 . S
N734 C731 1.384 . S
N735 C727 1.427 . S
N735 C733 1.384 . S
H736 C742 0.930 . S
H737 C746 0.930 . S
H738 C751 0.929 . S
H739 C749 0.929 . S
H740 C744 0.929 . S
H741 C750 0.929 . S
C742 H736 0.930 . S
C742 C743 1.367 . S
C742 C750 1.378 . S
C743 C742 1.367 . S
C743 C751 1.433 . S
C744 H740 0.929 . S
C744 C746 1.378 . S
C744 C748 1.350 . S
C745 C748 1.463 . S
C745 C750 1.350 . S
C745 N753 1.427 . S
C746 H737 0.930 . S
C746 C744 1.378 . S
C746 C747 1.367 . S
C747 C746 1.367 . S
C747 C749 1.433 . S
C748 C744 1.350 . S
C748 C745 1.463 . S
C748 N752 1.427 . S
C749 H739 0.929 . S
C749 C747 1.433 . S
C749 N752 1.384 . S
C750 H741 0.929 . S
C750 C742 1.378 . S
C750 C745 1.350 . S
C751 H738 0.929 . S
C751 C743 1.433 . S
C751 N753 1.384 . S
N752 C748 1.427 . S
N752 C749 1.384 . S
N753 C745 1.427 . S
N753 C751 1.384 . S
H754 C760 0.930 . S
H755 C764 0.930 . S
H756 C769 0.929 . S
H757 C767 0.929 . S
H758 C762 0.929 . S
H759 C768 0.929 . S
C760 H754 0.930 . S
C760 C761 1.367 . S
C760 C768 1.378 . S
C761 C760 1.367 . S
C761 C769 1.433 . S
C762 H758 0.929 . S
C762 C764 1.378 . S
C762 C766 1.350 . S
C763 C766 1.463 . S
C763 C768 1.350 . S
C763 N771 1.427 . S
C764 H755 0.930 . S
C764 C762 1.378 . S
C764 C765 1.367 . S
C765 C764 1.367 . S
C765 C767 1.433 . S
C766 C762 1.350 . S
C766 C763 1.463 . S
C766 N770 1.427 . S
C767 H757 0.929 . S
C767 C765 1.433 . S
C767 N770 1.384 . S
C768 H759 0.929 . S
C768 C760 1.378 . S
C768 C763 1.350 . S
C769 H756 0.929 . S
C769 C761 1.433 . S
C769 N771 1.384 . S
N770 C766 1.427 . S
N770 C767 1.384 . S
N771 C763 1.427 . S
N771 C769 1.384 . S
H772 C778 0.930 . S
H773 C782 0.930 . S
H774 C787 0.929 . S
H775 C785 0.929 . S
H776 C780 0.929 . S
H777 C786 0.929 . S
C778 H772 0.930 . S
C778 C779 1.367 . S
C778 C786 1.378 . S
C779 C778 1.367 . S
C779 C787 1.433 . S
C780 H776 0.929 . S
C780 C782 1.378 . S
C780 C784 1.350 . S
C781 C784 1.463 . S
C781 C786 1.350 . S
C781 N789 1.427 . S
C782 H773 0.930 . S
C782 C780 1.378 . S
C782 C783 1.367 . S
C783 C782 1.367 . S
C783 C785 1.433 . S
C784 C780 1.350 . S
C784 C781 1.463 . S
C784 N788 1.427 . S
C785 H775 0.929 . S
C785 C783 1.433 . S
C785 N788 1.384 . S
C786 H777 0.929 . S
C786 C778 1.378 . S
C786 C781 1.350 . S
C787 H774 0.929 . S
C787 C779 1.433 . S
C787 N789 1.384 . S
N788 C784 1.427 . S
N788 C785 1.384 . S
N789 C781 1.427 . S
N789 C787 1.384 . S
H790 C796 0.930 . S
H791 C800 0.930 . S
H792 C805 0.929 . S
H793 C803 0.929 . S
H794 C798 0.929 . S
H795 C804 0.929 . S
C796 H790 0.930 . S
C796 C797 1.367 . S
C796 C804 1.378 . S
C797 C796 1.367 . S
C797 C805 1.433 . S
C798 H794 0.929 . S
C798 C800 1.378 . S
C798 C802 1.350 . S
C799 C802 1.463 . S
C799 C804 1.350 . S
C799 N807 1.427 . S
C800 H791 0.930 . S
C800 C798 1.378 . S
C800 C801 1.367 . S
C801 C800 1.367 . S
C801 C803 1.433 . S
C802 C798 1.350 . S
C802 C799 1.463 . S
C802 N806 1.427 . S
C803 H793 0.929 . S
C803 C801 1.433 . S
C803 N806 1.384 . S
C804 H795 0.929 . S
C804 C796 1.378 . S
C804 C799 1.350 . S
C805 H792 0.929 . S
C805 C797 1.433 . S
C805 N807 1.384 . S
N806 C802 1.427 . S
N806 C803 1.384 . S
N807 C799 1.427 . S
N807 C805 1.384 . S
H808 C814 0.930 . S
H809 C818 0.930 . S
H810 C823 0.929 . S
H811 C821 0.929 . S
H812 C816 0.929 . S
H813 C822 0.929 . S
C814 H808 0.930 . S
C814 C815 1.367 . S
C814 C822 1.378 . S
C815 C814 1.367 . S
C815 C823 1.433 . S
C816 H812 0.929 . S
C816 C818 1.378 . S
C816 C820 1.350 . S
C817 C820 1.463 . S
C817 C822 1.350 . S
C817 N825 1.427 . S
C818 H809 0.930 . S
C818 C816 1.378 . S
C818 C819 1.367 . S
C819 C818 1.367 . S
C819 C821 1.433 . S
C820 C816 1.350 . S
C820 C817 1.463 . S
C820 N824 1.427 . S
C821 H811 0.929 . S
C821 C819 1.433 . S
C821 N824 1.384 . S
C822 H813 0.929 . S
C822 C814 1.378 . S
C822 C817 1.350 . S
C823 H810 0.929 . S
C823 C815 1.433 . S
C823 N825 1.384 . S
N824 C820 1.427 . S
N824 C821 1.384 . S
N825 C817 1.427 . S
N825 C823 1.384 . S
H826 C832 0.930 . S
H827 C836 0.930 . S
H828 C841 0.929 . S
H829 C839 0.929 . S
H830 C834 0.929 . S
H831 C840 0.929 . S
C832 H826 0.930 . S
C832 C833 1.367 . S
C832 C840 1.378 . S
C833 C832 1.367 . S
C833 C841 1.433 . S
C834 H830 0.929 . S
C834 C836 1.378 . S
C834 C838 1.350 . S
C835 C838 1.463 . S
C835 C840 1.350 . S
C835 N843 1.427 . S
C836 H827 0.930 . S
C836 C834 1.378 . S
C836 C837 1.367 . S
C837 C836 1.367 . S
C837 C839 1.433 . S
C838 C834 1.350 . S
C838 C835 1.463 . S
C838 N842 1.427 . S
C839 H829 0.929 . S
C839 C837 1.433 . S
C839 N842 1.384 . S
C840 H831 0.929 . S
C840 C832 1.378 . S
C840 C835 1.350 . S
C841 H828 0.929 . S
C841 C833 1.433 . S
C841 N843 1.384 . S
N842 C838 1.427 . S
N842 C839 1.384 . S
N843 C835 1.427 . S
N843 C841 1.384 . S
H844 C850 0.930 . S
H845 C854 0.930 . S
H846 C859 0.929 . S
H847 C857 0.929 . S
H848 C852 0.929 . S
H849 C858 0.929 . S
C850 H844 0.930 . S
C850 C851 1.367 . S
C850 C858 1.378 . S
C851 C850 1.367 . S
C851 C859 1.433 . S
C852 H848 0.929 . S
C852 C854 1.378 . S
C852 C856 1.350 . S
C853 C856 1.463 . S
C853 C858 1.350 . S
C853 N861 1.427 . S
C854 H845 0.930 . S
C854 C852 1.378 . S
C854 C855 1.367 . S
C855 C854 1.367 . S
C855 C857 1.433 . S
C856 C852 1.350 . S
C856 C853 1.463 . S
C856 N860 1.427 . S
C857 H847 0.929 . S
C857 C855 1.433 . S
C857 N860 1.384 . S
C858 H849 0.929 . S
C858 C850 1.378 . S
C858 C853 1.350 . S
C859 H846 0.929 . S
C859 C851 1.433 . S
C859 N861 1.384 . S
N860 C856 1.427 . S
N860 C857 1.384 . S
N861 C853 1.427 . S
N861 C859 1.384 . S
H862 C868 0.930 . S
H863 C872 0.930 . S
H864 C877 0.929 . S
H865 C875 0.929 . S
H866 C870 0.929 . S
H867 C876 0.929 . S
C868 H862 0.930 . S
C868 C869 1.367 . S
C868 C876 1.378 . S
C869 C868 1.367 . S
C869 C877 1.433 . S
C870 H866 0.929 . S
C870 C872 1.378 . S
C870 C874 1.350 . S
C871 C874 1.463 . S
C871 C876 1.350 . S
C871 N879 1.427 . S
C872 H863 0.930 . S
C872 C870 1.378 . S
C872 C873 1.367 . S
C873 C872 1.367 . S
C873 C875 1.433 . S
C874 C870 1.350 . S
C874 C871 1.463 . S
C874 N878 1.427 . S
C875 H865 0.929 . S
C875 C873 1.433 . S
C875 N878 1.384 . S
C876 H867 0.929 . S
C876 C868 1.378 . S
C876 C871 1.350 . S
C877 H864 0.929 . S
C877 C869 1.433 . S
C877 N879 1.384 . S
N878 C874 1.427 . S
N878 C875 1.384 . S
N879 C871 1.427 . S
N879 C877 1.384 . S
H880 C886 0.930 . S
H881 C890 0.930 . S
H882 C895 0.929 . S
H883 C893 0.929 . S
H884 C888 0.929 . S
H885 C894 0.929 . S
C886 H880 0.930 . S
C886 C887 1.367 . S
C886 C894 1.378 . S
C887 C886 1.367 . S
C887 C895 1.433 . S
C888 H884 0.929 . S
C888 C890 1.378 . S
C888 C892 1.350 . S
C889 C892 1.463 . S
C889 C894 1.350 . S
C889 N897 1.427 . S
C890 H881 0.930 . S
C890 C888 1.378 . S
C890 C891 1.367 . S
C891 C890 1.367 . S
C891 C893 1.433 . S
C892 C888 1.350 . S
C892 C889 1.463 . S
C892 N896 1.427 . S
C893 H883 0.929 . S
C893 C891 1.433 . S
C893 N896 1.384 . S
C894 H885 0.929 . S
C894 C886 1.378 . S
C894 C889 1.350 . S
C895 H882 0.929 . S
C895 C887 1.433 . S
C895 N897 1.384 . S
N896 C892 1.427 . S
N896 C893 1.384 . S
N897 C889 1.427 . S
N897 C895 1.384 . S
H898 C904 0.930 . S
H899 C908 0.930 . S
H900 C913 0.929 . S
H901 C911 0.929 . S
H902 C906 0.929 . S
H903 C912 0.929 . S
C904 H898 0.930 . S
C904 C905 1.367 . S
C904 C912 1.378 . S
C905 C904 1.367 . S
C905 C913 1.433 . S
C906 H902 0.929 . S
C906 C908 1.378 . S
C906 C910 1.350 . S
C907 C910 1.463 . S
C907 C912 1.350 . S
C907 N915 1.427 . S
C908 H899 0.930 . S
C908 C906 1.378 . S
C908 C909 1.367 . S
C909 C908 1.367 . S
C909 C911 1.433 . S
C910 C906 1.350 . S
C910 C907 1.463 . S
C910 N914 1.427 . S
C911 H901 0.929 . S
C911 C909 1.433 . S
C911 N914 1.384 . S
C912 H903 0.929 . S
C912 C904 1.378 . S
C912 C907 1.350 . S
C913 H900 0.929 . S
C913 C905 1.433 . S
C913 N915 1.384 . S
N914 C910 1.427 . S
N914 C911 1.384 . S
N915 C907 1.427 . S
N915 C913 1.384 . S
H916 C922 0.930 . S
H917 C926 0.930 . S
H918 C931 0.929 . S
H919 C929 0.929 . S
H920 C924 0.929 . S
H921 C930 0.929 . S
C922 H916 0.930 . S
C922 C923 1.367 . S
C922 C930 1.378 . S
C923 C922 1.367 . S
C923 C931 1.433 . S
C924 H920 0.929 . S
C924 C926 1.378 . S
C924 C928 1.350 . S
C925 C928 1.463 . S
C925 C930 1.350 . S
C925 N933 1.427 . S
C926 H917 0.930 . S
C926 C924 1.378 . S
C926 C927 1.367 . S
C927 C926 1.367 . S
C927 C929 1.433 . S
C928 C924 1.350 . S
C928 C925 1.463 . S
C928 N932 1.427 . S
C929 H919 0.929 . S
C929 C927 1.433 . S
C929 N932 1.384 . S
C930 H921 0.929 . S
C930 C922 1.378 . S
C930 C925 1.350 . S
C931 H918 0.929 . S
C931 C923 1.433 . S
C931 N933 1.384 . S
N932 C928 1.427 . S
N932 C929 1.384 . S
N933 C925 1.427 . S
N933 C931 1.384 . S
H934 C940 0.930 . S
H935 C944 0.930 . S
H936 C949 0.929 . S
H937 C947 0.929 . S
H938 C942 0.929 . S
H939 C948 0.929 . S
C940 H934 0.930 . S
C940 C941 1.367 . S
C940 C948 1.378 . S
C941 C940 1.367 . S
C941 C949 1.433 . S
C942 H938 0.929 . S
C942 C944 1.378 . S
C942 C946 1.350 . S
C943 C946 1.463 . S
C943 C948 1.350 . S
C943 N951 1.427 . S
C944 H935 0.930 . S
C944 C942 1.378 . S
C944 C945 1.367 . S
C945 C944 1.367 . S
C945 C947 1.433 . S
C946 C942 1.350 . S
C946 C943 1.463 . S
C946 N950 1.427 . S
C947 H937 0.929 . S
C947 C945 1.433 . S
C947 N950 1.384 . S
C948 H939 0.929 . S
C948 C940 1.378 . S
C948 C943 1.350 . S
C949 H936 0.929 . S
C949 C941 1.433 . S
C949 N951 1.384 . S
N950 C946 1.427 . S
N950 C947 1.384 . S
N951 C943 1.427 . S
N951 C949 1.384 . S
H952 C958 0.930 . S
H953 C962 0.930 . S
H954 C967 0.929 . S
H955 C965 0.929 . S
H956 C960 0.929 . S
H957 C966 0.929 . S
C958 H952 0.930 . S
C958 C959 1.367 . S
C958 C966 1.378 . S
C959 C958 1.367 . S
C959 C967 1.433 . S
C960 H956 0.929 . S
C960 C962 1.378 . S
C960 C964 1.350 . S
C961 C964 1.463 . S
C961 C966 1.350 . S
C961 N969 1.427 . S
C962 H953 0.930 . S
C962 C960 1.378 . S
C962 C963 1.367 . S
C963 C962 1.367 . S
C963 C965 1.433 . S
C964 C960 1.350 . S
C964 C961 1.463 . S
C964 N968 1.427 . S
C965 H955 0.929 . S
C965 C963 1.433 . S
C965 N968 1.384 . S
C966 H957 0.929 . S
C966 C958 1.378 . S
C966 C961 1.350 . S
C967 H954 0.929 . S
C967 C959 1.433 . S
C967 N969 1.384 . S
N968 C964 1.427 . S
N968 C965 1.384 . S
N969 C961 1.427 . S
N969 C967 1.384 . S
H970 C976 0.930 . S
H971 C980 0.930 . S
H972 C985 0.929 . S
H973 C983 0.929 . S
H974 C978 0.929 . S
H975 C984 0.929 . S
C976 H970 0.930 . S
C976 C977 1.367 . S
C976 C984 1.378 . S
C977 C976 1.367 . S
C977 C985 1.433 . S
C978 H974 0.929 . S
C978 C980 1.378 . S
C978 C982 1.350 . S
C979 C982 1.463 . S
C979 C984 1.350 . S
C979 N987 1.427 . S
C980 H971 0.930 . S
C980 C978 1.378 . S
C980 C981 1.367 . S
C981 C980 1.367 . S
C981 C983 1.433 . S
C982 C978 1.350 . S
C982 C979 1.463 . S
C982 N986 1.427 . S
C983 H973 0.929 . S
C983 C981 1.433 . S
C983 N986 1.384 . S
C984 H975 0.929 . S
C984 C976 1.378 . S
C984 C979 1.350 . S
C985 H972 0.929 . S
C985 C977 1.433 . S
C985 N987 1.384 . S
N986 C982 1.427 . S
N986 C983 1.384 . S
N987 C979 1.427 . S
N987 C985 1.384 . S
H988 C994 0.930 . S
H989 C998 0.930 . S
H990 C1003 0.929 . S
H991 C1001 0.929 . S
H992 C996 0.929 . S
H993 C1002 0.929 . S
C994 H988 0.930 . S
C994 C995 1.367 . S
C994 C1002 1.378 . S
C995 C994 1.367 . S
C995 C1003 1.433 . S
C996 H992 0.929 . S
C996 C998 1.378 . S
C996 C1000 1.350 . S
C997 C1000 1.463 . S
C997 C1002 1.350 . S
C997 N1005 1.427 . S
C998 H989 0.930 . S
C998 C996 1.378 . S
C998 C999 1.367 . S
C999 C998 1.367 . S
C999 C1001 1.433 . S
C1000 C996 1.350 . S
C1000 C997 1.463 . S
C1000 N1004 1.427 . S
C1001 H991 0.929 . S
C1001 C999 1.433 . S
C1001 N1004 1.384 . S
C1002 H993 0.929 . S
C1002 C994 1.378 . S
C1002 C997 1.350 . S
C1003 H990 0.929 . S
C1003 C995 1.433 . S
C1003 N1005 1.384 . S
N1004 C1000 1.427 . S
N1004 C1001 1.384 . S
N1005 C997 1.427 . S
N1005 C1003 1.384 . S
H1006 C1012 0.930 . S
H1007 C1016 0.930 . S
H1008 C1021 0.929 . S
H1009 C1019 0.929 . S
H1010 C1014 0.929 . S
H1011 C1020 0.929 . S
C1012 H1006 0.930 . S
C1012 C1013 1.367 . S
C1012 C1020 1.378 . S
C1013 C1012 1.367 . S
C1013 C1021 1.433 . S
C1014 H1010 0.929 . S
C1014 C1016 1.378 . S
C1014 C1018 1.350 . S
C1015 C1018 1.463 . S
C1015 C1020 1.350 . S
C1015 N1023 1.427 . S
C1016 H1007 0.930 . S
C1016 C1014 1.378 . S
C1016 C1017 1.367 . S
C1017 C1016 1.367 . S
C1017 C1019 1.433 . S
C1018 C1014 1.350 . S
C1018 C1015 1.463 . S
C1018 N1022 1.427 . S
C1019 H1009 0.929 . S
C1019 C1017 1.433 . S
C1019 N1022 1.384 . S
C1020 H1011 0.929 . S
C1020 C1012 1.378 . S
C1020 C1015 1.350 . S
C1021 H1008 0.929 . S
C1021 C1013 1.433 . S
C1021 N1023 1.384 . S
N1022 C1018 1.427 . S
N1022 C1019 1.384 . S
N1023 C1015 1.427 . S
N1023 C1021 1.384 . S
H1024 C1030 0.930 . S
H1025 C1034 0.930 . S
H1026 C1039 0.929 . S
H1027 C1037 0.929 . S
H1028 C1032 0.929 . S
H1029 C1038 0.929 . S
C1030 H1024 0.930 . S
C1030 C1031 1.367 . S
C1030 C1038 1.378 . S
C1031 C1030 1.367 . S
C1031 C1039 1.433 . S
C1032 H1028 0.929 . S
C1032 C1034 1.378 . S
C1032 C1036 1.350 . S
C1033 C1036 1.463 . S
C1033 C1038 1.350 . S
C1033 N1041 1.427 . S
C1034 H1025 0.930 . S
C1034 C1032 1.378 . S
C1034 C1035 1.367 . S
C1035 C1034 1.367 . S
C1035 C1037 1.433 . S
C1036 C1032 1.350 . S
C1036 C1033 1.463 . S
C1036 N1040 1.427 . S
C1037 H1027 0.929 . S
C1037 C1035 1.433 . S
C1037 N1040 1.384 . S
C1038 H1029 0.929 . S
C1038 C1030 1.378 . S
C1038 C1033 1.350 . S
C1039 H1026 0.929 . S
C1039 C1031 1.433 . S
C1039 N1041 1.384 . S
N1040 C1036 1.427 . S
N1040 C1037 1.384 . S
N1041 C1033 1.427 . S
N1041 C1039 1.384 . S
H1042 C1048 0.930 . S
H1043 C1052 0.930 . S
H1044 C1057 0.929 . S
H1045 C1055 0.929 . S
H1046 C1050 0.929 . S
H1047 C1056 0.929 . S
C1048 H1042 0.930 . S
C1048 C1049 1.367 . S
C1048 C1056 1.378 . S
C1049 C1048 1.367 . S
C1049 C1057 1.433 1_455 S
C1050 H1046 0.929 . S
C1050 C1052 1.378 . S
C1050 C1054 1.350 1_655 S
C1051 C1054 1.463 1_565 S
C1051 C1056 1.350 . S
C1051 N1059 1.427 1_455 S
C1052 H1043 0.930 . S
C1052 C1050 1.378 . S
C1052 C1053 1.367 1_655 S
C1053 C1052 1.367 1_455 S
C1053 C1055 1.433 . S
C1054 C1050 1.350 1_455 S
C1054 C1051 1.463 1_545 S
C1054 N1058 1.427 . S
C1055 H1045 0.929 . S
C1055 C1053 1.433 . S
C1055 N1058 1.384 . S
C1056 H1047 0.929 . S
C1056 C1048 1.378 . S
C1056 C1051 1.350 . S
C1057 H1044 0.929 . S
C1057 C1049 1.433 1_655 S
C1057 N1059 1.384 . S
N1058 C1054 1.427 . S
N1058 C1055 1.384 . S
N1059 C1051 1.427 1_655 S
N1059 C1057 1.384 . S
H1060 C1066 0.930 . S
H1061 C1070 0.930 . S
H1062 C1075 0.929 . S
H1063 C1073 0.929 . S
H1064 C1068 0.929 . S
H1065 C1074 0.929 . S
C1066 H1060 0.930 . S
C1066 C1067 1.367 . S
C1066 C1074 1.378 . S
C1067 C1066 1.367 . S
C1067 C1075 1.433 . S
C1068 H1064 0.929 . S
C1068 C1070 1.378 . S
C1068 C1072 1.350 . S
C1069 C1072 1.463 . S
C1069 C1074 1.350 . S
C1069 N1077 1.427 . S
C1070 H1061 0.930 . S
C1070 C1068 1.378 . S
C1070 C1071 1.367 . S
C1071 C1070 1.367 . S
C1071 C1073 1.433 . S
C1072 C1068 1.350 . S
C1072 C1069 1.463 . S
C1072 N1076 1.427 . S
C1073 H1063 0.929 . S
C1073 C1071 1.433 . S
C1073 N1076 1.384 . S
C1074 H1065 0.929 . S
C1074 C1066 1.378 . S
C1074 C1069 1.350 . S
C1075 H1062 0.929 . S
C1075 C1067 1.433 . S
C1075 N1077 1.384 . S
N1076 C1072 1.427 . S
N1076 C1073 1.384 . S
N1077 C1069 1.427 . S
N1077 C1075 1.384 . S
H1078 C1084 0.930 . S
H1079 C1088 0.930 . S
H1080 C1093 0.929 . S
H1081 C1091 0.929 . S
H1082 C1086 0.929 . S
H1083 C1092 0.929 . S
C1084 H1078 0.930 . S
C1084 C1085 1.367 . S
C1084 C1092 1.378 . S
C1085 C1084 1.367 . S
C1085 C1093 1.433 1_554 S
C1086 H1082 0.929 . S
C1086 C1088 1.378 . S
C1086 C1090 1.350 . S
C1087 C1090 1.463 1_544 S
C1087 C1092 1.350 . S
C1087 N1095 1.427 1_554 S
C1088 H1079 0.930 . S
C1088 C1086 1.378 . S
C1088 C1089 1.367 . S
C1089 C1088 1.367 . S
C1089 C1091 1.433 1_556 S
C1090 C1086 1.350 . S
C1090 C1087 1.463 1_566 S
C1090 N1094 1.427 1_556 S
C1091 H1081 0.929 . S
C1091 C1089 1.433 1_554 S
C1091 N1094 1.384 . S
C1092 H1083 0.929 . S
C1092 C1084 1.378 . S
C1092 C1087 1.350 . S
C1093 H1080 0.929 . S
C1093 C1085 1.433 1_556 S
C1093 N1095 1.384 . S
N1094 C1090 1.427 1_554 S
N1094 C1091 1.384 . S
N1095 C1087 1.427 1_556 S
N1095 C1093 1.384 . S
H1096 C1102 0.930 . S
H1097 C1106 0.930 . S
H1098 C1111 0.929 . S
H1099 C1109 0.929 . S
H1100 C1104 0.929 . S
H1101 C1110 0.929 . S
C1102 H1096 0.930 . S
C1102 C1103 1.367 . S
C1102 C1110 1.378 . S
C1103 C1102 1.367 . S
C1103 C1111 1.433 . S
C1104 H1100 0.929 . S
C1104 C1106 1.378 . S
C1104 C1108 1.350 . S
C1105 C1108 1.463 . S
C1105 C1110 1.350 . S
C1105 N1113 1.427 . S
C1106 H1097 0.930 . S
C1106 C1104 1.378 . S
C1106 C1107 1.367 . S
C1107 C1106 1.367 . S
C1107 C1109 1.433 . S
C1108 C1104 1.350 . S
C1108 C1105 1.463 . S
C1108 N1112 1.427 . S
C1109 H1099 0.929 . S
C1109 C1107 1.433 . S
C1109 N1112 1.384 . S
C1110 H1101 0.929 . S
C1110 C1102 1.378 . S
C1110 C1105 1.350 . S
C1111 H1098 0.929 . S
C1111 C1103 1.433 . S
C1111 N1113 1.384 . S
N1112 C1108 1.427 . S
N1112 C1109 1.384 . S
N1113 C1105 1.427 . S
N1113 C1111 1.384 . S
H1114 C1120 0.930 . S
H1115 C1124 0.930 . S
H1116 C1129 0.929 . S
H1117 C1127 0.929 . S
H1118 C1122 0.929 . S
H1119 C1128 0.929 . S
C1120 H1114 0.930 . S
C1120 C1121 1.367 . S
C1120 C1128 1.378 . S
C1121 C1120 1.367 . S
C1121 C1129 1.433 . S
C1122 H1118 0.929 . S
C1122 C1124 1.378 . S
C1122 C1126 1.350 . S
C1123 C1126 1.463 1_565 S
C1123 C1128 1.350 . S
C1123 N1131 1.427 . S
C1124 H1115 0.930 . S
C1124 C1122 1.378 . S
C1124 C1125 1.367 . S
C1125 C1124 1.367 . S
C1125 C1127 1.433 . S
C1126 C1122 1.350 . S
C1126 C1123 1.463 1_545 S
C1126 N1130 1.427 . S
C1127 H1117 0.929 . S
C1127 C1125 1.433 . S
C1127 N1130 1.384 . S
C1128 H1119 0.929 . S
C1128 C1120 1.378 . S
C1128 C1123 1.350 . S
C1129 H1116 0.929 . S
C1129 C1121 1.433 . S
C1129 N1131 1.384 . S
N1130 C1126 1.427 . S
N1130 C1127 1.384 . S
N1131 C1123 1.427 . S
N1131 C1129 1.384 . S
H1132 C1138 0.930 . S
H1133 C1142 0.930 . S
H1134 C1147 0.929 . S
H1135 C1145 0.929 . S
H1136 C1140 0.929 . S
H1137 C1146 0.929 . S
C1138 H1132 0.930 . S
C1138 C1139 1.367 . S
C1138 C1146 1.378 . S
C1139 C1138 1.367 . S
C1139 C1147 1.433 . S
C1140 H1136 0.929 . S
C1140 C1142 1.378 . S
C1140 C1144 1.350 . S
C1141 C1144 1.463 . S
C1141 C1146 1.350 . S
C1141 N1149 1.427 . S
C1142 H1133 0.930 . S
C1142 C1140 1.378 . S
C1142 C1143 1.367 . S
C1143 C1142 1.367 . S
C1143 C1145 1.433 . S
C1144 C1140 1.350 . S
C1144 C1141 1.463 . S
C1144 N1148 1.427 . S
C1145 H1135 0.929 . S
C1145 C1143 1.433 . S
C1145 N1148 1.384 . S
C1146 H1137 0.929 . S
C1146 C1138 1.378 . S
C1146 C1141 1.350 . S
C1147 H1134 0.929 . S
C1147 C1139 1.433 . S
C1147 N1149 1.384 . S
N1148 C1144 1.427 . S
N1148 C1145 1.384 . S
N1149 C1141 1.427 . S
N1149 C1147 1.384 . S
H1150 C1156 0.930 . S
H1151 C1160 0.930 . S
H1152 C1165 0.925 1_554 S
H1153 C1163 0.933 . S
H1154 C1158 0.929 . S
H1155 C1164 0.929 . S
C1156 H1150 0.930 . S
C1156 C1157 1.367 . S
C1156 C1164 1.378 . S
C1157 C1156 1.367 . S
C1157 C1165 1.441 1_455 S
C1158 H1154 0.929 . S
C1158 C1160 1.378 . S
C1158 C1162 1.350 1_655 S
C1159 C1162 1.463 1_546 S
C1159 C1164 1.350 . S
C1159 N1167 1.427 1_456 S
C1160 H1151 0.930 . S
C1160 C1158 1.378 . S
C1160 C1161 1.367 1_655 S
C1161 C1160 1.367 1_455 S
C1161 C1163 1.433 . S
C1162 C1158 1.350 1_455 S
C1162 C1159 1.463 1_564 S
C1162 N1166 1.427 1_554 S
C1163 H1153 0.933 . S
C1163 C1161 1.433 . S
C1163 N1166 1.384 1_554 S
C1164 H1155 0.929 . S
C1164 C1156 1.378 . S
C1164 C1159 1.350 . S
C1165 H1152 0.925 1_556 S
C1165 C1157 1.441 1_655 S
C1165 N1167 1.380 1_556 S
N1166 C1162 1.427 1_556 S
N1166 C1163 1.384 1_556 S
N1167 C1159 1.427 1_654 S
N1167 C1165 1.380 1_554 S
H1168 C1174 0.930 . S
H1169 C1178 0.930 . S
H1170 C1183 0.929 . S
H1171 C1181 0.929 . S
H1172 C1176 0.929 . S
H1173 C1182 0.929 . S
C1174 H1168 0.930 . S
C1174 C1175 1.367 . S
C1174 C1182 1.378 . S
C1175 C1174 1.367 . S
C1175 C1183 1.433 . S
C1176 H1172 0.929 . S
C1176 C1178 1.378 . S
C1176 C1180 1.350 . S
C1177 C1180 1.463 . S
C1177 C1182 1.350 . S
C1177 N1185 1.427 . S
C1178 H1169 0.930 . S
C1178 C1176 1.378 . S
C1178 C1179 1.367 . S
C1179 C1178 1.367 . S
C1179 C1181 1.433 . S
C1180 C1176 1.350 . S
C1180 C1177 1.463 . S
C1180 N1184 1.427 . S
C1181 H1171 0.929 . S
C1181 C1179 1.433 . S
C1181 N1184 1.384 . S
C1182 H1173 0.929 . S
C1182 C1174 1.378 . S
C1182 C1177 1.350 . S
C1183 H1170 0.929 . S
C1183 C1175 1.433 . S
C1183 N1185 1.384 . S
N1184 C1180 1.427 . S
N1184 C1181 1.384 . S
N1185 C1177 1.427 . S
N1185 C1183 1.384 . S
H1186 C1192 0.930 . S
H1187 C1196 0.930 . S
H1188 C1201 0.929 . S
H1189 C1199 0.929 . S
H1190 C1194 0.929 . S
H1191 C1200 0.929 . S
C1192 H1186 0.930 . S
C1192 C1193 1.367 . S
C1192 C1200 1.378 . S
C1193 C1192 1.367 . S
C1193 C1201 1.433 . S
C1194 H1190 0.929 . S
C1194 C1196 1.378 . S
C1194 C1198 1.350 . S
C1195 C1198 1.463 . S
C1195 C1200 1.350 . S
C1195 N1203 1.427 . S
C1196 H1187 0.930 . S
C1196 C1194 1.378 . S
C1196 C1197 1.367 . S
C1197 C1196 1.367 . S
C1197 C1199 1.433 . S
C1198 C1194 1.350 . S
C1198 C1195 1.463 . S
C1198 N1202 1.427 . S
C1199 H1189 0.929 . S
C1199 C1197 1.433 . S
C1199 N1202 1.384 . S
C1200 H1191 0.929 . S
C1200 C1192 1.378 . S
C1200 C1195 1.350 . S
C1201 H1188 0.929 . S
C1201 C1193 1.433 . S
C1201 N1203 1.384 . S
N1202 C1198 1.427 . S
N1202 C1199 1.384 . S
N1203 C1195 1.427 . S
N1203 C1201 1.384 . S
H1204 C1210 0.930 . S
H1205 C1214 0.930 . S
H1206 C1219 0.929 . S
H1207 C1217 0.929 . S
H1208 C1212 0.929 . S
H1209 C1218 0.929 . S
C1210 H1204 0.930 . S
C1210 C1211 1.367 . S
C1210 C1218 1.378 . S
C1211 C1210 1.367 . S
C1211 C1219 1.433 . S
C1212 H1208 0.929 . S
C1212 C1214 1.378 . S
C1212 C1216 1.350 . S
C1213 C1216 1.463 . S
C1213 C1218 1.350 . S
C1213 N1221 1.427 . S
C1214 H1205 0.930 . S
C1214 C1212 1.378 . S
C1214 C1215 1.367 . S
C1215 C1214 1.367 . S
C1215 C1217 1.433 . S
C1216 C1212 1.350 . S
C1216 C1213 1.463 . S
C1216 N1220 1.427 . S
C1217 H1207 0.929 . S
C1217 C1215 1.433 . S
C1217 N1220 1.384 . S
C1218 H1209 0.929 . S
C1218 C1210 1.378 . S
C1218 C1213 1.350 . S
C1219 H1206 0.929 . S
C1219 C1211 1.433 . S
C1219 N1221 1.384 . S
N1220 C1216 1.427 . S
N1220 C1217 1.384 . S
N1221 C1213 1.427 . S
N1221 C1219 1.384 . S
H1222 C1228 0.930 . S
H1223 C1232 0.930 . S
H1224 C1237 0.929 . S
H1225 C1235 0.929 . S
H1226 C1230 0.929 . S
H1227 C1236 0.929 . S
C1228 H1222 0.930 . S
C1228 C1229 1.367 . S
C1228 C1236 1.378 . S
C1229 C1228 1.367 . S
C1229 C1237 1.433 . S
C1230 H1226 0.929 . S
C1230 C1232 1.378 . S
C1230 C1234 1.350 . S
C1231 C1234 1.463 . S
C1231 C1236 1.350 . S
C1231 N1239 1.427 . S
C1232 H1223 0.930 . S
C1232 C1230 1.378 . S
C1232 C1233 1.367 . S
C1233 C1232 1.367 . S
C1233 C1235 1.433 . S
C1234 C1230 1.350 . S
C1234 C1231 1.463 . S
C1234 N1238 1.427 . S
C1235 H1225 0.929 . S
C1235 C1233 1.433 . S
C1235 N1238 1.384 . S
C1236 H1227 0.929 . S
C1236 C1228 1.378 . S
C1236 C1231 1.350 . S
C1237 H1224 0.929 . S
C1237 C1229 1.433 . S
C1237 N1239 1.384 . S
N1238 C1234 1.427 . S
N1238 C1235 1.384 . S
N1239 C1231 1.427 . S
N1239 C1237 1.384 . S
H1240 C1246 0.930 . S
H1241 C1250 0.930 1_554 S
H1242 C1255 0.929 . S
H1243 C1253 0.929 . S
H1244 C1248 0.929 . S
H1245 C1254 0.929 . S
C1246 H1240 0.930 . S
C1246 C1247 1.367 1_556 S
C1246 C1254 1.378 . S
C1247 C1246 1.367 1_554 S
C1247 C1255 1.433 . S
C1248 H1244 0.929 . S
C1248 C1250 1.378 1_554 S
C1248 C1252 1.350 1_554 S
C1249 C1252 1.463 1_554 S
C1249 C1254 1.350 1_554 S
C1249 N1257 1.427 . S
C1250 H1241 0.930 1_556 S
C1250 C1248 1.378 1_556 S
C1250 C1251 1.367 . S
C1251 C1250 1.367 . S
C1251 C1253 1.433 . S
C1252 C1248 1.350 1_556 S
C1252 C1249 1.463 1_556 S
C1252 N1256 1.427 . S
C1253 H1243 0.929 . S
C1253 C1251 1.433 . S
C1253 N1256 1.384 . S
C1254 H1245 0.929 . S
C1254 C1246 1.378 . S
C1254 C1249 1.350 1_556 S
C1255 H1242 0.929 . S
C1255 C1247 1.433 . S
C1255 N1257 1.384 . S
N1256 C1252 1.427 . S
N1256 C1253 1.384 . S
N1257 C1249 1.427 . S
N1257 C1255 1.384 . S
H1258 C1264 0.930 . S
H1259 C1268 0.930 . S
H1260 C1273 0.929 . S
H1261 C1271 0.929 . S
H1262 C1266 0.929 . S
H1263 C1272 0.929 . S
C1264 H1258 0.930 . S
C1264 C1265 1.367 . S
C1264 C1272 1.378 . S
C1265 C1264 1.367 . S
C1265 C1273 1.433 1_655 S
C1266 H1262 0.929 . S
C1266 C1268 1.378 . S
C1266 C1270 1.350 1_455 S
C1267 C1270 1.463 . S
C1267 C1272 1.350 . S
C1267 N1275 1.427 1_655 S
C1268 H1259 0.930 . S
C1268 C1266 1.378 . S
C1268 C1269 1.364 1_455 S
C1269 C1268 1.364 1_655 S
C1269 C1271 1.436 . S
C1270 C1266 1.350 1_655 S
C1270 C1267 1.463 . S
C1270 N1274 1.427 . S
C1271 H1261 0.929 . S
C1271 C1269 1.436 . S
C1271 N1274 1.384 . S
C1272 H1263 0.929 . S
C1272 C1264 1.378 . S
C1272 C1267 1.350 . S
C1273 H1260 0.929 . S
C1273 C1265 1.433 1_455 S
C1273 N1275 1.384 . S
N1274 C1270 1.427 . S
N1274 C1271 1.384 . S
N1275 C1267 1.427 1_455 S
N1275 C1273 1.384 . S
H1276 C1282 0.930 . S
H1277 C1286 0.930 . S
H1278 C1291 0.929 . S
H1279 C1289 0.929 . S
H1280 C1284 0.929 . S
H1281 C1290 0.929 . S
C1282 H1276 0.930 . S
C1282 C1283 1.362 1_454 S
C1282 C1290 1.378 . S
C1283 C1282 1.362 1_656 S
C1283 C1291 1.442 . S
C1284 H1280 0.929 . S
C1284 C1286 1.378 . S
C1284 C1288 1.350 1_556 S
C1285 C1288 1.457 1_556 S
C1285 C1290 1.333 1_656 S
C1285 N1293 1.451 . S
C1286 H1277 0.930 . S
C1286 C1284 1.378 . S
C1286 C1287 1.367 1_556 S
C1287 C1286 1.367 1_554 S
C1287 C1289 1.433 . S
C1288 C1284 1.350 1_554 S
C1288 C1285 1.457 1_554 S
C1288 N1292 1.427 . S
C1289 H1279 0.929 . S
C1289 C1287 1.433 . S
C1289 N1292 1.384 . S
C1290 H1281 0.929 . S
C1290 C1282 1.378 . S
C1290 C1285 1.333 1_454 S
C1291 H1278 0.929 . S
C1291 C1283 1.442 . S
C1291 N1293 1.384 . S
N1292 C1288 1.427 . S
N1292 C1289 1.384 . S
N1293 C1285 1.451 . S
N1293 C1291 1.384 . S
H1294 C1300 0.930 . S
H1295 C1304 0.930 . S
H1296 C1309 0.929 . S
H1297 C1307 0.929 . S
H1298 C1302 0.929 . S
H1299 C1308 0.929 . S
C1300 H1294 0.930 . S
C1300 C1301 1.367 . S
C1300 C1308 1.378 . S
C1301 C1300 1.367 . S
C1301 C1309 1.433 . S
C1302 H1298 0.929 . S
C1302 C1304 1.378 . S
C1302 C1306 1.350 . S
C1303 C1306 1.463 . S
C1303 C1308 1.350 . S
C1303 N1311 1.427 . S
C1304 H1295 0.930 . S
C1304 C1302 1.378 . S
C1304 C1305 1.367 . S
C1305 C1304 1.367 . S
C1305 C1307 1.433 . S
C1306 C1302 1.350 . S
C1306 C1303 1.463 . S
C1306 N1310 1.427 . S
C1307 H1297 0.929 . S
C1307 C1305 1.433 . S
C1307 N1310 1.384 . S
C1308 H1299 0.929 . S
C1308 C1300 1.378 . S
C1308 C1303 1.350 . S
C1309 H1296 0.929 . S
C1309 C1301 1.433 . S
C1309 N1311 1.384 . S
N1310 C1306 1.427 . S
N1310 C1307 1.384 . S
N1311 C1303 1.427 . S
N1311 C1309 1.384 . S
H1312 C1318 0.930 . S
H1313 C1322 0.930 . S
H1314 C1327 0.929 . S
H1315 C1325 0.929 . S
H1316 C1320 0.929 . S
H1317 C1326 0.929 . S
C1318 H1312 0.930 . S
C1318 C1319 1.367 . S
C1318 C1326 1.378 . S
C1319 C1318 1.367 . S
C1319 C1327 1.433 . S
C1320 H1316 0.929 . S
C1320 C1322 1.378 . S
C1320 C1324 1.350 . S
C1321 C1324 1.463 . S
C1321 C1326 1.350 . S
C1321 N1329 1.427 . S
C1322 H1313 0.930 . S
C1322 C1320 1.378 . S
C1322 C1323 1.367 . S
C1323 C1322 1.367 . S
C1323 C1325 1.433 . S
C1324 C1320 1.350 . S
C1324 C1321 1.463 . S
C1324 N1328 1.427 . S
C1325 H1315 0.929 . S
C1325 C1323 1.433 . S
C1325 N1328 1.384 . S
C1326 H1317 0.929 . S
C1326 C1318 1.378 . S
C1326 C1321 1.350 . S
C1327 H1314 0.929 . S
C1327 C1319 1.433 . S
C1327 N1329 1.384 . S
N1328 C1324 1.427 . S
N1328 C1325 1.384 . S
N1329 C1321 1.427 . S
N1329 C1327 1.384 . S
H1330 C1336 0.930 . S
H1331 C1340 0.930 . S
H1332 C1345 0.929 . S
H1333 C1343 0.929 . S
H1334 C1338 0.929 . S
H1335 C1344 0.929 . S
C1336 H1330 0.930 . S
C1336 C1337 1.367 . S
C1336 C1344 1.378 . S
C1337 C1336 1.367 . S
C1337 C1345 1.433 . S
C1338 H1334 0.929 . S
C1338 C1340 1.378 . S
C1338 C1342 1.350 . S
C1339 C1342 1.463 . S
C1339 C1344 1.350 . S
C1339 N1347 1.427 . S
C1340 H1331 0.930 . S
C1340 C1338 1.378 . S
C1340 C1341 1.367 . S
C1341 C1340 1.367 . S
C1341 C1343 1.433 . S
C1342 C1338 1.350 . S
C1342 C1339 1.463 . S
C1342 N1346 1.427 . S
C1343 H1333 0.929 . S
C1343 C1341 1.433 . S
C1343 N1346 1.384 . S
C1344 H1335 0.929 . S
C1344 C1336 1.378 . S
C1344 C1339 1.350 . S
C1345 H1332 0.929 . S
C1345 C1337 1.433 . S
C1345 N1347 1.384 . S
N1346 C1342 1.427 . S
N1346 C1343 1.384 . S
N1347 C1339 1.427 . S
N1347 C1345 1.384 . S
H1348 C1354 0.930 . S
H1349 C1358 0.930 . S
H1350 C1363 0.929 . S
H1351 C1361 0.929 . S
H1352 C1356 0.929 . S
H1353 C1362 0.929 . S
C1354 H1348 0.930 . S
C1354 C1355 1.367 . S
C1354 C1362 1.378 . S
C1355 C1354 1.367 . S
C1355 C1363 1.433 . S
C1356 H1352 0.929 . S
C1356 C1358 1.378 . S
C1356 C1360 1.350 . S
C1357 C1360 1.463 . S
C1357 C1362 1.350 . S
C1357 N1365 1.427 . S
C1358 H1349 0.930 . S
C1358 C1356 1.378 . S
C1358 C1359 1.367 . S
C1359 C1358 1.367 . S
C1359 C1361 1.433 . S
C1360 C1356 1.350 . S
C1360 C1357 1.463 . S
C1360 N1364 1.427 . S
C1361 H1351 0.929 . S
C1361 C1359 1.433 . S
C1361 N1364 1.384 . S
C1362 H1353 0.929 . S
C1362 C1354 1.378 . S
C1362 C1357 1.350 . S
C1363 H1350 0.929 . S
C1363 C1355 1.433 . S
C1363 N1365 1.384 . S
N1364 C1360 1.427 . S
N1364 C1361 1.384 . S
N1365 C1357 1.427 . S
N1365 C1363 1.384 . S
H1366 C1372 0.930 . S
H1367 C1376 0.930 . S
H1368 C1381 0.929 . S
H1369 C1379 0.929 . S
H1370 C1374 0.929 . S
H1371 C1380 0.929 . S
C1372 H1366 0.930 . S
C1372 C1373 1.367 . S
C1372 C1380 1.378 . S
C1373 C1372 1.367 . S
C1373 C1381 1.433 . S
C1374 H1370 0.929 . S
C1374 C1376 1.378 . S
C1374 C1378 1.350 . S
C1375 C1378 1.463 . S
C1375 C1380 1.350 . S
C1375 N1383 1.427 . S
C1376 H1367 0.930 . S
C1376 C1374 1.378 . S
C1376 C1377 1.367 . S
C1377 C1376 1.367 . S
C1377 C1379 1.433 . S
C1378 C1374 1.350 . S
C1378 C1375 1.463 . S
C1378 N1382 1.427 . S
C1379 H1369 0.929 . S
C1379 C1377 1.433 . S
C1379 N1382 1.384 . S
C1380 H1371 0.929 . S
C1380 C1372 1.378 . S
C1380 C1375 1.350 . S
C1381 H1368 0.929 . S
C1381 C1373 1.433 . S
C1381 N1383 1.384 . S
N1382 C1378 1.427 . S
N1382 C1379 1.384 . S
N1383 C1375 1.427 . S
N1383 C1381 1.384 . S
H1384 C1390 0.930 . S
H1385 C1394 0.930 . S
H1386 C1399 0.929 . S
H1387 C1397 0.929 . S
H1388 C1392 0.929 . S
H1389 C1398 0.929 . S
C1390 H1384 0.930 . S
C1390 C1391 1.367 . S
C1390 C1398 1.378 . S
C1391 C1390 1.367 . S
C1391 C1399 1.433 . S
C1392 H1388 0.929 . S
C1392 C1394 1.378 . S
C1392 C1396 1.350 . S
C1393 C1396 1.463 . S
C1393 C1398 1.350 . S
C1393 N1401 1.427 . S
C1394 H1385 0.930 . S
C1394 C1392 1.378 . S
C1394 C1395 1.367 . S
C1395 C1394 1.367 . S
C1395 C1397 1.433 . S
C1396 C1392 1.350 . S
C1396 C1393 1.463 . S
C1396 N1400 1.427 . S
C1397 H1387 0.929 . S
C1397 C1395 1.433 . S
C1397 N1400 1.384 . S
C1398 H1389 0.929 . S
C1398 C1390 1.378 . S
C1398 C1393 1.350 . S
C1399 H1386 0.929 . S
C1399 C1391 1.433 . S
C1399 N1401 1.384 . S
N1400 C1396 1.427 . S
N1400 C1397 1.384 . S
N1401 C1393 1.427 . S
N1401 C1399 1.384 . S
H1402 C1408 0.930 . S
H1403 C1412 0.930 . S
H1404 C1417 0.929 . S
H1405 C1415 0.929 . S
H1406 C1410 0.929 . S
H1407 C1416 0.929 . S
C1408 H1402 0.930 . S
C1408 C1409 1.367 . S
C1408 C1416 1.378 . S
C1409 C1408 1.367 . S
C1409 C1417 1.433 . S
C1410 H1406 0.929 . S
C1410 C1412 1.378 . S
C1410 C1414 1.350 . S
C1411 C1414 1.463 . S
C1411 C1416 1.350 . S
C1411 N1419 1.427 . S
C1412 H1403 0.930 . S
C1412 C1410 1.378 . S
C1412 C1413 1.367 . S
C1413 C1412 1.367 . S
C1413 C1415 1.433 . S
C1414 C1410 1.350 . S
C1414 C1411 1.463 . S
C1414 N1418 1.427 . S
C1415 H1405 0.929 . S
C1415 C1413 1.433 . S
C1415 N1418 1.384 . S
C1416 H1407 0.929 . S
C1416 C1408 1.378 . S
C1416 C1411 1.350 . S
C1417 H1404 0.929 . S
C1417 C1409 1.433 . S
C1417 N1419 1.384 . S
N1418 C1414 1.427 . S
N1418 C1415 1.384 . S
N1419 C1411 1.427 . S
N1419 C1417 1.384 . S
H1420 C1426 0.930 . S
H1421 C1430 0.930 . S
H1422 C1435 0.929 . S
H1423 C1433 0.929 . S
H1424 C1428 0.929 . S
H1425 C1434 0.929 . S
C1426 H1420 0.930 . S
C1426 C1427 1.367 . S
C1426 C1434 1.378 . S
C1427 C1426 1.367 . S
C1427 C1435 1.433 . S
C1428 H1424 0.929 . S
C1428 C1430 1.378 . S
C1428 C1432 1.350 . S
C1429 C1432 1.463 . S
C1429 C1434 1.350 . S
C1429 N1437 1.427 . S
C1430 H1421 0.930 . S
C1430 C1428 1.378 . S
C1430 C1431 1.367 . S
C1431 C1430 1.367 . S
C1431 C1433 1.433 . S
C1432 C1428 1.350 . S
C1432 C1429 1.463 . S
C1432 N1436 1.427 . S
C1433 H1423 0.929 . S
C1433 C1431 1.433 . S
C1433 N1436 1.384 . S
C1434 H1425 0.929 . S
C1434 C1426 1.378 . S
C1434 C1429 1.350 . S
C1435 H1422 0.929 . S
C1435 C1427 1.433 . S
C1435 N1437 1.384 . S
N1436 C1432 1.427 . S
N1436 C1433 1.384 . S
N1437 C1429 1.427 . S
N1437 C1435 1.384 . S
H1438 C1444 0.930 . S
H1439 C1448 0.930 . S
H1440 C1453 0.929 . S
H1441 C1451 0.929 . S
H1442 C1446 0.929 . S
H1443 C1452 0.929 . S
C1444 H1438 0.930 . S
C1444 C1445 1.367 . S
C1444 C1452 1.378 . S
C1445 C1444 1.367 . S
C1445 C1453 1.433 . S
C1446 H1442 0.929 . S
C1446 C1448 1.378 . S
C1446 C1450 1.350 . S
C1447 C1450 1.463 . S
C1447 C1452 1.350 . S
C1447 N1455 1.427 . S
C1448 H1439 0.930 . S
C1448 C1446 1.378 . S
C1448 C1449 1.367 . S
C1449 C1448 1.367 . S
C1449 C1451 1.433 . S
C1450 C1446 1.350 . S
C1450 C1447 1.463 . S
C1450 N1454 1.427 . S
C1451 H1441 0.929 . S
C1451 C1449 1.433 . S
C1451 N1454 1.384 . S
C1452 H1443 0.929 . S
C1452 C1444 1.378 . S
C1452 C1447 1.350 . S
C1453 H1440 0.929 . S
C1453 C1445 1.433 . S
C1453 N1455 1.384 . S
N1454 C1450 1.427 . S
N1454 C1451 1.384 . S
N1455 C1447 1.427 . S
N1455 C1453 1.384 . S
H1456 C1462 0.930 . S
H1457 C1466 0.930 . S
H1458 C1471 0.929 . S
H1459 C1469 0.929 . S
H1460 C1464 0.929 . S
H1461 C1470 0.929 . S
C1462 H1456 0.930 . S
C1462 C1463 1.367 . S
C1462 C1470 1.378 . S
C1463 C1462 1.367 . S
C1463 C1471 1.433 . S
C1464 H1460 0.929 . S
C1464 C1466 1.378 . S
C1464 C1468 1.350 . S
C1465 C1468 1.463 . S
C1465 C1470 1.350 . S
C1465 N1473 1.427 . S
C1466 H1457 0.930 . S
C1466 C1464 1.378 . S
C1466 C1467 1.367 . S
C1467 C1466 1.367 . S
C1467 C1469 1.433 . S
C1468 C1464 1.350 . S
C1468 C1465 1.463 . S
C1468 N1472 1.427 . S
C1469 H1459 0.929 . S
C1469 C1467 1.433 . S
C1469 N1472 1.384 . S
C1470 H1461 0.929 . S
C1470 C1462 1.378 . S
C1470 C1465 1.350 . S
C1471 H1458 0.929 . S
C1471 C1463 1.433 . S
C1471 N1473 1.384 . S
N1472 C1468 1.427 . S
N1472 C1469 1.384 . S
N1473 C1465 1.427 . S
N1473 C1471 1.384 . S
H1474 C1480 0.930 . S
H1475 C1484 0.930 . S
H1476 C1489 0.929 . S
H1477 C1487 0.929 . S
H1478 C1482 0.929 . S
H1479 C1488 0.929 . S
C1480 H1474 0.930 . S
C1480 C1481 1.367 . S
C1480 C1488 1.378 . S
C1481 C1480 1.367 . S
C1481 C1489 1.433 . S
C1482 H1478 0.929 . S
C1482 C1484 1.378 . S
C1482 C1486 1.350 . S
C1483 C1486 1.463 . S
C1483 C1488 1.350 . S
C1483 N1491 1.427 . S
C1484 H1475 0.930 . S
C1484 C1482 1.378 . S
C1484 C1485 1.367 . S
C1485 C1484 1.367 . S
C1485 C1487 1.433 . S
C1486 C1482 1.350 . S
C1486 C1483 1.463 . S
C1486 N1490 1.427 . S
C1487 H1477 0.929 . S
C1487 C1485 1.433 . S
C1487 N1490 1.384 . S
C1488 H1479 0.929 . S
C1488 C1480 1.378 . S
C1488 C1483 1.350 . S
C1489 H1476 0.929 . S
C1489 C1481 1.433 . S
C1489 N1491 1.384 . S
N1490 C1486 1.427 . S
N1490 C1487 1.384 . S
N1491 C1483 1.427 . S
N1491 C1489 1.384 . S
H1492 C1498 0.930 . S
H1493 C1502 0.930 . S
H1494 C1507 0.929 . S
H1495 C1505 0.929 . S
H1496 C1500 0.929 . S
H1497 C1506 0.929 . S
C1498 H1492 0.930 . S
C1498 C1499 1.367 . S
C1498 C1506 1.378 . S
C1499 C1498 1.367 . S
C1499 C1507 1.433 . S
C1500 H1496 0.929 . S
C1500 C1502 1.378 . S
C1500 C1504 1.350 . S
C1501 C1504 1.463 . S
C1501 C1506 1.350 . S
C1501 N1509 1.427 . S
C1502 H1493 0.930 . S
C1502 C1500 1.378 . S
C1502 C1503 1.367 . S
C1503 C1502 1.367 . S
C1503 C1505 1.433 . S
C1504 C1500 1.350 . S
C1504 C1501 1.463 . S
C1504 N1508 1.427 . S
C1505 H1495 0.929 . S
C1505 C1503 1.433 . S
C1505 N1508 1.384 . S
C1506 H1497 0.929 . S
C1506 C1498 1.378 . S
C1506 C1501 1.350 . S
C1507 H1494 0.929 . S
C1507 C1499 1.433 . S
C1507 N1509 1.384 . S
N1508 C1504 1.427 . S
N1508 C1505 1.384 . S
N1509 C1501 1.427 . S
N1509 C1507 1.384 . S
H1510 C1516 0.930 . S
H1511 C1520 0.930 . S
H1512 C1525 0.929 . S
H1513 C1523 0.929 . S
H1514 C1518 0.929 . S
H1515 C1524 0.929 . S
C1516 H1510 0.930 . S
C1516 C1517 1.367 . S
C1516 C1524 1.378 . S
C1517 C1516 1.367 . S
C1517 C1525 1.433 . S
C1518 H1514 0.929 . S
C1518 C1520 1.378 . S
C1518 C1522 1.350 . S
C1519 C1522 1.463 . S
C1519 C1524 1.350 . S
C1519 N1527 1.427 . S
C1520 H1511 0.930 . S
C1520 C1518 1.378 . S
C1520 C1521 1.367 . S
C1521 C1520 1.367 . S
C1521 C1523 1.433 . S
C1522 C1518 1.350 . S
C1522 C1519 1.463 . S
C1522 N1526 1.427 . S
C1523 H1513 0.929 . S
C1523 C1521 1.433 . S
C1523 N1526 1.384 . S
C1524 H1515 0.929 . S
C1524 C1516 1.378 . S
C1524 C1519 1.350 . S
C1525 H1512 0.929 . S
C1525 C1517 1.433 . S
C1525 N1527 1.384 . S
N1526 C1522 1.427 . S
N1526 C1523 1.384 . S
N1527 C1519 1.427 . S
N1527 C1525 1.384 . S
H1528 C1534 0.930 . S
H1529 C1538 0.930 . S
H1530 C1543 0.929 . S
H1531 C1541 0.929 . S
H1532 C1536 0.929 . S
H1533 C1542 0.929 . S
C1534 H1528 0.930 . S
C1534 C1535 1.367 . S
C1534 C1542 1.378 . S
C1535 C1534 1.367 . S
C1535 C1543 1.433 . S
C1536 H1532 0.929 . S
C1536 C1538 1.378 . S
C1536 C1540 1.350 . S
C1537 C1540 1.463 . S
C1537 C1542 1.350 . S
C1537 N1545 1.427 . S
C1538 H1529 0.930 . S
C1538 C1536 1.378 . S
C1538 C1539 1.367 . S
C1539 C1538 1.367 . S
C1539 C1541 1.433 . S
C1540 C1536 1.350 . S
C1540 C1537 1.463 . S
C1540 N1544 1.427 . S
C1541 H1531 0.929 . S
C1541 C1539 1.433 . S
C1541 N1544 1.384 . S
C1542 H1533 0.929 . S
C1542 C1534 1.378 . S
C1542 C1537 1.350 . S
C1543 H1530 0.929 . S
C1543 C1535 1.433 . S
C1543 N1545 1.384 . S
N1544 C1540 1.427 . S
N1544 C1541 1.384 . S
N1545 C1537 1.427 . S
N1545 C1543 1.384 . S
H1546 C1552 0.930 . S
H1547 C1556 0.930 . S
H1548 C1561 0.929 . S
H1549 C1559 0.929 . S
H1550 C1554 0.929 . S
H1551 C1560 0.929 . S
C1552 H1546 0.930 . S
C1552 C1553 1.367 . S
C1552 C1560 1.378 . S
C1553 C1552 1.367 . S
C1553 C1561 1.433 . S
C1554 H1550 0.929 . S
C1554 C1556 1.378 . S
C1554 C1558 1.350 . S
C1555 C1558 1.463 . S
C1555 C1560 1.350 . S
C1555 N1563 1.427 . S
C1556 H1547 0.930 . S
C1556 C1554 1.378 . S
C1556 C1557 1.367 . S
C1557 C1556 1.367 . S
C1557 C1559 1.433 . S
C1558 C1554 1.350 . S
C1558 C1555 1.463 . S
C1558 N1562 1.427 . S
C1559 H1549 0.929 . S
C1559 C1557 1.433 . S
C1559 N1562 1.384 . S
C1560 H1551 0.929 . S
C1560 C1552 1.378 . S
C1560 C1555 1.350 . S
C1561 H1548 0.929 . S
C1561 C1553 1.433 . S
C1561 N1563 1.384 . S
N1562 C1558 1.427 . S
N1562 C1559 1.384 . S
N1563 C1555 1.427 . S
N1563 C1561 1.384 . S
H1564 C1570 0.930 . S
H1565 C1574 0.930 . S
H1566 C1579 0.929 . S
H1567 C1577 0.929 . S
H1568 C1572 0.929 . S
H1569 C1578 0.929 . S
C1570 H1564 0.930 . S
C1570 C1571 1.367 . S
C1570 C1578 1.378 . S
C1571 C1570 1.367 . S
C1571 C1579 1.433 . S
C1572 H1568 0.929 . S
C1572 C1574 1.378 . S
C1572 C1576 1.350 . S
C1573 C1576 1.463 . S
C1573 C1578 1.350 . S
C1573 N1581 1.427 . S
C1574 H1565 0.930 . S
C1574 C1572 1.378 . S
C1574 C1575 1.367 . S
C1575 C1574 1.367 . S
C1575 C1577 1.433 . S
C1576 C1572 1.350 . S
C1576 C1573 1.463 . S
C1576 N1580 1.427 . S
C1577 H1567 0.929 . S
C1577 C1575 1.433 . S
C1577 N1580 1.384 . S
C1578 H1569 0.929 . S
C1578 C1570 1.378 . S
C1578 C1573 1.350 . S
C1579 H1566 0.929 . S
C1579 C1571 1.433 . S
C1579 N1581 1.384 . S
N1580 C1576 1.427 . S
N1580 C1577 1.384 . S
N1581 C1573 1.427 . S
N1581 C1579 1.384 . S
H1582 C1588 0.930 . S
H1583 C1592 0.930 . S
H1584 C1597 0.929 . S
H1585 C1595 0.929 . S
H1586 C1590 0.929 . S
H1587 C1596 0.929 . S
C1588 H1582 0.930 . S
C1588 C1589 1.367 . S
C1588 C1596 1.378 . S
C1589 C1588 1.367 . S
C1589 C1597 1.433 . S
C1590 H1586 0.929 . S
C1590 C1592 1.378 . S
C1590 C1594 1.350 . S
C1591 C1594 1.463 . S
C1591 C1596 1.350 . S
C1591 N1599 1.427 . S
C1592 H1583 0.930 . S
C1592 C1590 1.378 . S
C1592 C1593 1.367 . S
C1593 C1592 1.367 . S
C1593 C1595 1.433 . S
C1594 C1590 1.350 . S
C1594 C1591 1.463 . S
C1594 N1598 1.427 . S
C1595 H1585 0.929 . S
C1595 C1593 1.433 . S
C1595 N1598 1.384 . S
C1596 H1587 0.929 . S
C1596 C1588 1.378 . S
C1596 C1591 1.350 . S
C1597 H1584 0.929 . S
C1597 C1589 1.433 . S
C1597 N1599 1.384 . S
N1598 C1594 1.427 . S
N1598 C1595 1.384 . S
N1599 C1591 1.427 . S
N1599 C1597 1.384 . S
C455 C130 1.014 . S
C459 C4 0.990 . S
C473 C26 1.061 . S
C477 C368 1.028 . S
C491 C158 1.018 . S
C495 C32 0.984 . S
C509 C340 1.042 . S
C513 C54 1.055 . S
C527 C60 0.994 . S
C531 C214 1.004 . S
C545 C396 1.027 . S
C549 C82 1.060 . S
C563 C88 0.967 . S
C567 C186 1.019 . S
C581 C424 1.042 . S
C585 C110 1.054 . S
C599 C18 0.917 . S
C603 C124 0.936 . S
C617 C138 0.959 . S
C621 C264 0.973 . S
C635 C46 0.934 . S
C639 C152 0.938 . S
C653 C166 0.958 . S
C657 C236 0.973 . S
C671 C180 0.917 . S
C675 C102 0.917 . S
C689 C292 0.970 . S
C693 C194 0.954 . S
C707 C208 0.936 . S
C711 C74 0.935 . S
C725 C320 0.973 . S
C729 C222 0.957 . S
C743 C354 1.021 . S
C747 C228 0.973 . S
C761 C144 1.051 . S
C765 C250 1.067 . S
C779 C256 0.986 . S
C783 C382 0.995 . S
C797 C116 1.037 . S
C801 C278 1.069 . S
C815 C438 1.021 . S
C819 C284 0.973 . S
C833 C306 1.062 . S
C837 C172 1.051 . S
C851 C410 0.995 . S
C855 C312 0.987 . S
C869 C200 1.028 . S
C873 C334 1.062 . S
C887 C242 0.922 . S
C891 C348 0.938 . S
C905 C362 0.965 . S
C909 C40 0.961 . S
C923 C376 0.936 . S
C927 C270 0.935 . S
C941 C390 0.959 . S
C945 C12 0.964 . S
C959 C326 0.935 . S
C963 C404 0.937 . S
C977 C418 0.956 . S
C981 C68 0.973 . S
C995 C432 0.933 . S
C999 C298 0.914 . S
C1013 C446 0.957 . S
C1017 C96 0.965 . S
C1031 C347 1.239 . S
C1035 C5 1.034 . S
C1049 C25 1.268 1_455 S
C1053 C137 1.268 . S
C1067 C33 0.999 . S
C1071 C375 1.239 . S
C1085 C53 1.270 . S
C1089 C165 1.269 . S
C1103 C61 0.996 . S
C1107 C403 1.239 . S
C1121 C81 1.276 . S
C1125 C193 1.275 . S
C1139 C431 1.237 . S
C1143 C89 1.034 . S
C1157 C109 1.268 1_455 S
C1161 C221 1.268 . S
C1175 C123 1.238 . S
C1179 C229 1.034 . S
C1193 C151 1.240 . S
C1197 C257 1.029 . S
C1211 C285 0.999 . S
C1215 C179 1.239 . S
C1229 C313 1.029 . S
C1233 C207 1.237 . S
C1247 C249 1.276 . S
C1251 C361 1.275 . S
C1265 C389 1.275 . S
C1269 C277 1.275 1_655 S
C1283 C305 1.274 1_655 S
C1287 C417 1.274 . S
C1301 C445 1.270 . S
C1305 C333 1.271 . S
C1319 C299 1.363 . S
C1323 C11 1.428 . S
C1337 C319 1.429 . S
C1341 C19 1.359 . S
C1355 C39 1.420 . S
C1359 C327 1.375 . S
C1373 C291 1.415 . S
C1377 C47 1.374 . S
C1391 C271 1.379 . S
C1395 C67 1.416 . S
C1409 C235 1.424 . S
C1413 C75 1.362 . S
C1427 C95 1.426 . S
C1431 C243 1.366 . S
C1445 C263 1.419 . S
C1449 C103 1.376 . S
C1463 C411 1.273 . S
C1467 C117 1.302 . S
C1481 C425 1.286 . S
C1485 C131 1.272 . S
C1499 C439 1.277 . S
C1503 C145 1.305 . S
C1517 C159 1.278 . S
C1521 C397 1.290 . S
C1535 C383 1.261 . S
C1539 C173 1.288 . S
C1553 C341 1.285 . S
C1557 C187 1.271 . S
C1571 C355 1.277 . S
C1575 C201 1.305 . S
C1589 C369 1.304 . S
C1593 C215 1.287 . S
