# Generated by pormake.
# Topology mer, (4)-cn, num edge types: 1
# Building blocks:
#     Node 0, Type 0, BuildingBlock: QUQFOY_clean_sbu_3, # of connection points: 4
#     Node 1, Type 0, BuildingBlock: QUQFOY_clean_sbu_3, # of connection points: 4
#     Node 2, Type 0, BuildingBlock: QUQFOY_clean_sbu_3, # of connection points: 4
#     Node 3, Type 0, BuildingBlock: QUQFOY_clean_sbu_3, # of connection points: 4
#     Node 4, Type 0, BuildingBlock: QUQFOY_clean_sbu_3, # of connection points: 4
#     Node 5, Type 0, BuildingBlock: QUQFOY_clean_sbu_3, # of connection points: 4
#     Node 6, Type 0, BuildingBlock: QUQFOY_clean_sbu_3, # of connection points: 4
#     Node 7, Type 0, BuildingBlock: QUQFOY_clean_sbu_3, # of connection points: 4
#     Node 8, Type 0, BuildingBlock: QUQFOY_clean_sbu_3, # of connection points: 4
#     Node 9, Type 0, BuildingBlock: QUQFOY_clean_sbu_3, # of connection points: 4
#     Node 10, Type 0, BuildingBlock: QUQFOY_clean_sbu_3, # of connection points: 4
#     Node 11, Type 0, BuildingBlock: QUQFOY_clean_sbu_3, # of connection points: 4
#     Node 12, Type 0, BuildingBlock: QUQFOY_clean_sbu_3, # of connection points: 4
#     Node 13, Type 0, BuildingBlock: QUQFOY_clean_sbu_3, # of connection points: 4
#     Node 14, Type 0, BuildingBlock: QUQFOY_clean_sbu_3, # of connection points: 4
#     Node 15, Type 0, BuildingBlock: QUQFOY_clean_sbu_3, # of connection points: 4
#     Node 16, Type 0, BuildingBlock: QUQFOY_clean_sbu_3, # of connection points: 4
#     Node 17, Type 0, BuildingBlock: QUQFOY_clean_sbu_3, # of connection points: 4
#     Node 18, Type 0, BuildingBlock: QUQFOY_clean_sbu_3, # of connection points: 4
#     Node 19, Type 0, BuildingBlock: QUQFOY_clean_sbu_3, # of connection points: 4
#     Node 20, Type 0, BuildingBlock: QUQFOY_clean_sbu_3, # of connection points: 4
#     Node 21, Type 0, BuildingBlock: QUQFOY_clean_sbu_3, # of connection points: 4
#     Node 22, Type 0, BuildingBlock: QUQFOY_clean_sbu_3, # of connection points: 4
#     Node 23, Type 0, BuildingBlock: QUQFOY_clean_sbu_3, # of connection points: 4
#     Node 24, Type 0, BuildingBlock: QUQFOY_clean_sbu_3, # of connection points: 4
#     Node 25, Type 0, BuildingBlock: QUQFOY_clean_sbu_3, # of connection points: 4
#     Node 26, Type 0, BuildingBlock: QUQFOY_clean_sbu_3, # of connection points: 4
#     Node 27, Type 0, BuildingBlock: QUQFOY_clean_sbu_3, # of connection points: 4
#     Node 28, Type 0, BuildingBlock: QUQFOY_clean_sbu_3, # of connection points: 4
#     Node 29, Type 0, BuildingBlock: QUQFOY_clean_sbu_3, # of connection points: 4
#     Node 30, Type 0, BuildingBlock: QUQFOY_clean_sbu_3, # of connection points: 4
#     Node 31, Type 0, BuildingBlock: QUQFOY_clean_sbu_3, # of connection points: 4
#     Edge 32, Type (0, 0), BuildingBlock: MIFKUJ_clean_linker_0, # of connection points: 2
#     Edge 33, Type (0, 0), BuildingBlock: MIFKUJ_clean_linker_0, # of connection points: 2
#     Edge 34, Type (0, 0), BuildingBlock: MIFKUJ_clean_linker_0, # of connection points: 2
#     Edge 35, Type (0, 0), BuildingBlock: MIFKUJ_clean_linker_0, # of connection points: 2
#     Edge 36, Type (0, 0), BuildingBlock: MIFKUJ_clean_linker_0, # of connection points: 2
#     Edge 37, Type (0, 0), BuildingBlock: MIFKUJ_clean_linker_0, # of connection points: 2
#     Edge 38, Type (0, 0), BuildingBlock: MIFKUJ_clean_linker_0, # of connection points: 2
#     Edge 39, Type (0, 0), BuildingBlock: MIFKUJ_clean_linker_0, # of connection points: 2
#     Edge 40, Type (0, 0), BuildingBlock: MIFKUJ_clean_linker_0, # of connection points: 2
#     Edge 41, Type (0, 0), BuildingBlock: MIFKUJ_clean_linker_0, # of connection points: 2
#     Edge 42, Type (0, 0), BuildingBlock: MIFKUJ_clean_linker_0, # of connection points: 2
#     Edge 43, Type (0, 0), BuildingBlock: MIFKUJ_clean_linker_0, # of connection points: 2
#     Edge 44, Type (0, 0), BuildingBlock: MIFKUJ_clean_linker_0, # of connection points: 2
#     Edge 45, Type (0, 0), BuildingBlock: MIFKUJ_clean_linker_0, # of connection points: 2
#     Edge 46, Type (0, 0), BuildingBlock: MIFKUJ_clean_linker_0, # of connection points: 2
#     Edge 47, Type (0, 0), BuildingBlock: MIFKUJ_clean_linker_0, # of connection points: 2
#     Edge 48, Type (0, 0), BuildingBlock: MIFKUJ_clean_linker_0, # of connection points: 2
#     Edge 49, Type (0, 0), BuildingBlock: MIFKUJ_clean_linker_0, # of connection points: 2
#     Edge 50, Type (0, 0), BuildingBlock: MIFKUJ_clean_linker_0, # of connection points: 2
#     Edge 51, Type (0, 0), BuildingBlock: MIFKUJ_clean_linker_0, # of connection points: 2
#     Edge 52, Type (0, 0), BuildingBlock: MIFKUJ_clean_linker_0, # of connection points: 2
#     Edge 53, Type (0, 0), BuildingBlock: MIFKUJ_clean_linker_0, # of connection points: 2
#     Edge 54, Type (0, 0), BuildingBlock: MIFKUJ_clean_linker_0, # of connection points: 2
#     Edge 55, Type (0, 0), BuildingBlock: MIFKUJ_clean_linker_0, # of connection points: 2
#     Edge 56, Type (0, 0), BuildingBlock: MIFKUJ_clean_linker_0, # of connection points: 2
#     Edge 57, Type (0, 0), BuildingBlock: MIFKUJ_clean_linker_0, # of connection points: 2
#     Edge 58, Type (0, 0), BuildingBlock: MIFKUJ_clean_linker_0, # of connection points: 2
#     Edge 59, Type (0, 0), BuildingBlock: MIFKUJ_clean_linker_0, # of connection points: 2
#     Edge 60, Type (0, 0), BuildingBlock: MIFKUJ_clean_linker_0, # of connection points: 2
#     Edge 61, Type (0, 0), BuildingBlock: MIFKUJ_clean_linker_0, # of connection points: 2
#     Edge 62, Type (0, 0), BuildingBlock: MIFKUJ_clean_linker_0, # of connection points: 2
#     Edge 63, Type (0, 0), BuildingBlock: MIFKUJ_clean_linker_0, # of connection points: 2
#     Edge 64, Type (0, 0), BuildingBlock: MIFKUJ_clean_linker_0, # of connection points: 2
#     Edge 65, Type (0, 0), BuildingBlock: MIFKUJ_clean_linker_0, # of connection points: 2
#     Edge 66, Type (0, 0), BuildingBlock: MIFKUJ_clean_linker_0, # of connection points: 2
#     Edge 67, Type (0, 0), BuildingBlock: MIFKUJ_clean_linker_0, # of connection points: 2
#     Edge 68, Type (0, 0), BuildingBlock: MIFKUJ_clean_linker_0, # of connection points: 2
#     Edge 69, Type (0, 0), BuildingBlock: MIFKUJ_clean_linker_0, # of connection points: 2
#     Edge 70, Type (0, 0), BuildingBlock: MIFKUJ_clean_linker_0, # of connection points: 2
#     Edge 71, Type (0, 0), BuildingBlock: MIFKUJ_clean_linker_0, # of connection points: 2
#     Edge 72, Type (0, 0), BuildingBlock: MIFKUJ_clean_linker_0, # of connection points: 2
#     Edge 73, Type (0, 0), BuildingBlock: MIFKUJ_clean_linker_0, # of connection points: 2
#     Edge 74, Type (0, 0), BuildingBlock: MIFKUJ_clean_linker_0, # of connection points: 2
#     Edge 75, Type (0, 0), BuildingBlock: MIFKUJ_clean_linker_0, # of connection points: 2
#     Edge 76, Type (0, 0), BuildingBlock: MIFKUJ_clean_linker_0, # of connection points: 2
#     Edge 77, Type (0, 0), BuildingBlock: MIFKUJ_clean_linker_0, # of connection points: 2
#     Edge 78, Type (0, 0), BuildingBlock: MIFKUJ_clean_linker_0, # of connection points: 2
#     Edge 79, Type (0, 0), BuildingBlock: MIFKUJ_clean_linker_0, # of connection points: 2
#     Edge 80, Type (0, 0), BuildingBlock: MIFKUJ_clean_linker_0, # of connection points: 2
#     Edge 81, Type (0, 0), BuildingBlock: MIFKUJ_clean_linker_0, # of connection points: 2
#     Edge 82, Type (0, 0), BuildingBlock: MIFKUJ_clean_linker_0, # of connection points: 2
#     Edge 83, Type (0, 0), BuildingBlock: MIFKUJ_clean_linker_0, # of connection points: 2
#     Edge 84, Type (0, 0), BuildingBlock: MIFKUJ_clean_linker_0, # of connection points: 2
#     Edge 85, Type (0, 0), BuildingBlock: MIFKUJ_clean_linker_0, # of connection points: 2
#     Edge 86, Type (0, 0), BuildingBlock: MIFKUJ_clean_linker_0, # of connection points: 2
#     Edge 87, Type (0, 0), BuildingBlock: MIFKUJ_clean_linker_0, # of connection points: 2
#     Edge 88, Type (0, 0), BuildingBlock: MIFKUJ_clean_linker_0, # of connection points: 2
#     Edge 89, Type (0, 0), BuildingBlock: MIFKUJ_clean_linker_0, # of connection points: 2
#     Edge 90, Type (0, 0), BuildingBlock: MIFKUJ_clean_linker_0, # of connection points: 2
#     Edge 91, Type (0, 0), BuildingBlock: MIFKUJ_clean_linker_0, # of connection points: 2
#     Edge 92, Type (0, 0), BuildingBlock: MIFKUJ_clean_linker_0, # of connection points: 2
#     Edge 93, Type (0, 0), BuildingBlock: MIFKUJ_clean_linker_0, # of connection points: 2
#     Edge 94, Type (0, 0), BuildingBlock: MIFKUJ_clean_linker_0, # of connection points: 2
#     Edge 95, Type (0, 0), BuildingBlock: MIFKUJ_clean_linker_0, # of connection points: 2
# Relax obj value: 0.063
# Max RMSD: 0.126
# Mean RMSD: 0.118
data_MOF--net-mer--node1-QUQFOY_clean_sbu_3--edge1-MIFKUJ_clean_linker_0
_symmetry_space_group_name_H-M    P1
_symmetry_Int_Tables_number       1
_symmetry_cell_setting            triclinic
loop_
_symmetry_equiv_pos_as_xyz
'x, y, z'
_cell_length_a     82.782668
_cell_length_b     84.582641
_cell_length_c     72.777287
_cell_angle_alpha  89.977627
_cell_angle_beta   90.054395
_cell_angle_gamma 90.052848
loop_
_atom_site_label
_atom_site_type_symbol
_atom_site_fract_x
_atom_site_fract_y
_atom_site_fract_z
_atom_type_partial_charge
C0 C 0.12646 0.30615 0.32263 0.0
O1 O 0.1362 0.30898 0.33573 0.0
Cd2 Cd 0.13495 0.29583 0.36514 0.0
O3 O 0.115 0.29627 0.32471 0.0
Cd4 Cd 0.10371 0.27892 0.34859 0.0
C5 C 0.13804 0.25714 0.35134 0.0
O6 O 0.10744 0.29658 0.37521 0.0
O7 O 0.09853 0.273 0.38059 0.0
O8 O 0.07704 0.28612 0.33722 0.0
C9 C 0.10225 0.28653 0.38672 0.0
O10 O 0.14413 0.26878 0.36004 0.0
C11 C 0.07212 0.27198 0.33539 0.0
O12 O 0.12386 0.258 0.34461 0.0
O13 O 0.08209 0.26107 0.33926 0.0
C14 C 0.6604 0.11804 0.32395 0.0
O15 O 0.65654 0.12676 0.33743 0.0
Cd16 Cd 0.6733 0.12817 0.36443 0.0
O17 O 0.6725 0.10883 0.32512 0.0
Cd18 Cd 0.69301 0.10019 0.3475 0.0
C19 C 0.70999 0.13616 0.34421 0.0
O20 O 0.67804 0.10216 0.37662 0.0
O21 O 0.70402 0.09989 0.3782 0.0
O22 O 0.68663 0.07327 0.33897 0.0
C23 C 0.69057 0.10034 0.38649 0.0
O24 O 0.69824 0.1409 0.35406 0.0
C25 C 0.70107 0.0691 0.33568 0.0
O26 O 0.7108 0.12184 0.33891 0.0
O27 O 0.71194 0.0796 0.33751 0.0
C28 C 0.85436 0.66101 0.32316 0.0
O29 O 0.84353 0.65817 0.33505 0.0
Cd30 Cd 0.84209 0.67266 0.36348 0.0
O31 O 0.86499 0.67156 0.32612 0.0
Cd32 Cd 0.87256 0.69057 0.35016 0.0
C33 C 0.83708 0.71007 0.34668 0.0
O34 O 0.86839 0.67407 0.37777 0.0
O35 O 0.87294 0.69901 0.38176 0.0
O36 O 0.90056 0.68456 0.34289 0.0
C37 C 0.8712 0.68541 0.38876 0.0
O38 O 0.83097 0.69844 0.35536 0.0
C39 C 0.9048 0.69883 0.34042 0.0
O40 O 0.85189 0.70995 0.34202 0.0
O41 O 0.89393 0.70929 0.34223 0.0
C42 C 0.32028 0.85369 0.32295 0.0
O43 O 0.32276 0.84393 0.3359 0.0
Cd44 Cd 0.30671 0.84427 0.36349 0.0
O45 O 0.30924 0.86406 0.32424 0.0
Cd46 Cd 0.28835 0.87301 0.34585 0.0
C47 C 0.26957 0.83765 0.34398 0.0
O48 O 0.30335 0.87079 0.37498 0.0
O49 O 0.27759 0.87477 0.37653 0.0
O50 O 0.29577 0.89948 0.33653 0.0
C51 C 0.291 0.87357 0.38482 0.0
O52 O 0.28109 0.8327 0.35406 0.0
C53 C 0.28154 0.90409 0.33288 0.0
O54 O 0.26949 0.85179 0.33794 0.0
O55 O 0.27025 0.89407 0.33501 0.0
C56 C 0.13009 0.66562 0.64056 0.0
O57 O 0.14143 0.66334 0.62914 0.0
Cd58 Cd 0.14346 0.67788 0.60088 0.0
O59 O 0.11912 0.67576 0.63729 0.0
Cd60 Cd 0.11192 0.69482 0.61295 0.0
C61 C 0.14657 0.71524 0.61874 0.0
O62 O 0.11782 0.67907 0.58524 0.0
O63 O 0.11413 0.70416 0.58169 0.0
O64 O 0.08391 0.68739 0.61806 0.0
C65 C 0.11614 0.69072 0.57439 0.0
O66 O 0.15317 0.70393 0.60999 0.0
C67 C 0.07875 0.70138 0.62026 0.0
O68 O 0.13164 0.71468 0.62292 0.0
O69 O 0.08911 0.71244 0.61926 0.0
C70 C 0.31686 0.11932 0.63964 0.0
O71 O 0.32126 0.12799 0.6263 0.0
Cd72 Cd 0.30629 0.12855 0.59785 0.0
O73 O 0.30487 0.11003 0.63791 0.0
Cd74 Cd 0.28489 0.10106 0.61531 0.0
C75 C 0.26871 0.13774 0.61484 0.0
O76 O 0.30167 0.10188 0.58755 0.0
O77 O 0.27599 0.09839 0.58391 0.0
O78 O 0.28955 0.07459 0.6269 0.0
C79 C 0.2899 0.09929 0.57674 0.0
O80 O 0.28103 0.14202 0.60562 0.0
C81 C 0.27478 0.07139 0.62977 0.0
O82 O 0.26742 0.12365 0.62083 0.0
O83 O 0.26457 0.08212 0.62599 0.0
C84 C 0.85319 0.31364 0.63795 0.0
O85 O 0.84272 0.31619 0.62555 0.0
Cd86 Cd 0.84133 0.30109 0.59757 0.0
O87 O 0.86395 0.30308 0.63568 0.0
Cd88 Cd 0.87222 0.28378 0.61213 0.0
C89 C 0.83727 0.26347 0.61498 0.0
O90 O 0.86734 0.29854 0.58348 0.0
O91 O 0.87075 0.27326 0.5814 0.0
O92 O 0.90055 0.29075 0.61407 0.0
C93 C 0.86907 0.28644 0.57332 0.0
O94 O 0.83128 0.27502 0.60605 0.0
C95 C 0.90531 0.27748 0.62013 0.0
O96 O 0.85193 0.26381 0.62034 0.0
O97 O 0.89455 0.26705 0.62302 0.0
C98 C 0.66577 0.85729 0.63956 0.0
O99 O 0.66184 0.84884 0.62585 0.0
Cd100 Cd 0.67641 0.84978 0.59724 0.0
O101 O 0.67726 0.86723 0.63829 0.0
Cd102 Cd 0.69676 0.87742 0.61559 0.0
C103 C 0.71442 0.84143 0.61364 0.0
O104 O 0.67991 0.87681 0.58778 0.0
O105 O 0.70546 0.88098 0.58411 0.0
O106 O 0.69105 0.90365 0.62735 0.0
C107 C 0.69152 0.87997 0.57698 0.0
O108 O 0.70216 0.83709 0.60432 0.0
C109 C 0.70565 0.9073 0.63062 0.0
O110 O 0.7153 0.85535 0.62023 0.0
O111 O 0.71627 0.89692 0.62704 0.0
C112 C 0.90763 0.72632 0.6231 0.0
O113 O 0.90189 0.73909 0.61666 0.0
Cd114 Cd 0.87414 0.74145 0.60762 0.0
O115 O 0.89841 0.71458 0.62635 0.0
Cd116 Cd 0.86948 0.70713 0.62548 0.0
C117 C 0.8714 0.70859 0.57938 0.0
O118 O 0.85787 0.73288 0.63287 0.0
O119 O 0.84132 0.71517 0.62277 0.0
O120 O 0.87307 0.69592 0.65587 0.0
C121 C 0.84344 0.72897 0.62913 0.0
O122 O 0.87193 0.72355 0.58133 0.0
C123 C 0.86685 0.68259 0.6521 0.0
O124 O 0.871 0.69947 0.5933 0.0
O125 O 0.86204 0.6805 0.63569 0.0
C126 C 0.30661 0.85882 0.64317 0.0
O127 O 0.31056 0.8504 0.62946 0.0
Cd128 Cd 0.29531 0.85024 0.60146 0.0
O129 O 0.29477 0.86839 0.6421 0.0
Cd130 Cd 0.2748 0.87835 0.61963 0.0
C131 C 0.25734 0.84234 0.61921 0.0
O132 O 0.29201 0.87722 0.59243 0.0
O133 O 0.26668 0.8816 0.58765 0.0
O134 O 0.2815 0.90417 0.63162 0.0
C135 C 0.28079 0.88026 0.58109 0.0
O136 O 0.26965 0.83794 0.61004 0.0
C137 C 0.26705 0.90869 0.63408 0.0
O138 O 0.25622 0.85645 0.62518 0.0
O139 O 0.25594 0.89891 0.63 0.0
C140 C 0.076 0.25012 0.62031 0.0
O141 O 0.08238 0.23872 0.6116 0.0
Cd142 Cd 0.11098 0.23676 0.60593 0.0
O143 O 0.08457 0.26159 0.6261 0.0
Cd144 Cd 0.11296 0.27041 0.62547 0.0
C145 C 0.11503 0.26984 0.57918 0.0
O146 O 0.1249 0.24487 0.63306 0.0
O147 O 0.14152 0.26313 0.62464 0.0
O148 O 0.10777 0.2809 0.65586 0.0
C149 C 0.1394 0.24921 0.63063 0.0
O150 O 0.11655 0.25493 0.5808 0.0
C151 C 0.11392 0.29441 0.65291 0.0
O152 O 0.11191 0.2785 0.59305 0.0
O153 O 0.11936 0.29699 0.63687 0.0
C154 C 0.6744 0.1208 0.64363 0.0
O155 O 0.67053 0.12857 0.62935 0.0
Cd156 Cd 0.68598 0.1279 0.60156 0.0
O157 O 0.68639 0.11137 0.64337 0.0
Cd158 Cd 0.70652 0.10069 0.62153 0.0
C159 C 0.72419 0.13647 0.61856 0.0
O160 O 0.68956 0.10073 0.59403 0.0
O161 O 0.71499 0.09655 0.58979 0.0
O162 O 0.69931 0.07524 0.63413 0.0
C163 C 0.70092 0.09752 0.58298 0.0
O164 O 0.71185 0.14027 0.60905 0.0
C165 C 0.71364 0.07053 0.63701 0.0
O166 O 0.72527 0.12281 0.62585 0.0
O167 O 0.72497 0.08008 0.63301 0.0
C168 C 0.9017 0.24971 0.33419 0.0
O169 O 0.89572 0.23676 0.33983 0.0
Cd170 Cd 0.86792 0.23383 0.34823 0.0
O171 O 0.89276 0.26181 0.33192 0.0
Cd172 Cd 0.86394 0.26944 0.33409 0.0
C173 C 0.86469 0.26415 0.37992 0.0
O174 O 0.8525 0.24444 0.32341 0.0
O175 O 0.83571 0.26113 0.33501 0.0
O176 O 0.86874 0.28338 0.3055 0.0
C177 C 0.83799 0.24799 0.32708 0.0
O178 O 0.86471 0.24941 0.37627 0.0
C179 C 0.86124 0.29586 0.31003 0.0
O180 O 0.86531 0.27438 0.36709 0.0
O181 O 0.85536 0.2963 0.32614 0.0
C182 C 0.67528 0.85302 0.31693 0.0
O183 O 0.67046 0.84432 0.33005 0.0
Cd184 Cd 0.68519 0.84306 0.35842 0.0
O185 O 0.68732 0.86219 0.31914 0.0
Cd186 Cd 0.70604 0.87109 0.34352 0.0
C187 C 0.72378 0.83549 0.34251 0.0
O188 O 0.6879 0.86939 0.37019 0.0
O189 O 0.7133 0.87278 0.3758 0.0
O190 O 0.69851 0.8969 0.33265 0.0
C191 C 0.69898 0.87205 0.38186 0.0
O192 O 0.71103 0.83083 0.35069 0.0
C193 C 0.71269 0.90252 0.33168 0.0
O194 O 0.72525 0.84982 0.33739 0.0
O195 O 0.72423 0.89329 0.33588 0.0
C196 C 0.0748 0.72608 0.3384 0.0
O197 O 0.08087 0.73896 0.34412 0.0
Cd198 Cd 0.109 0.74163 0.35161 0.0
O199 O 0.08375 0.71411 0.3354 0.0
Cd200 Cd 0.11252 0.70642 0.33581 0.0
C201 C 0.11351 0.71026 0.38181 0.0
O202 O 0.12406 0.73173 0.32617 0.0
O203 O 0.14079 0.71431 0.3365 0.0
O204 O 0.10752 0.69433 0.30622 0.0
C205 C 0.13858 0.72784 0.32943 0.0
O206 O 0.11331 0.72509 0.37871 0.0
C207 C 0.11403 0.68115 0.31002 0.0
O208 O 0.11236 0.70038 0.36866 0.0
O209 O 0.11956 0.67947 0.32621 0.0
C210 C 0.30652 0.12511 0.31857 0.0
O211 O 0.30861 0.13458 0.33189 0.0
Cd212 Cd 0.29491 0.13201 0.36079 0.0
O213 O 0.29658 0.11367 0.3198 0.0
Cd214 Cd 0.27749 0.10238 0.34228 0.0
C215 C 0.25565 0.13594 0.34571 0.0
O216 O 0.29483 0.10476 0.36948 0.0
O217 O 0.26999 0.0981 0.37412 0.0
O218 O 0.28694 0.07727 0.33088 0.0
C219 C 0.28396 0.10048 0.3807 0.0
O220 O 0.26754 0.14103 0.35513 0.0
C221 C 0.27313 0.0711 0.32853 0.0
O222 O 0.25625 0.12246 0.3379 0.0
O223 O 0.26096 0.07972 0.33209 0.0
C224 C 0.62745 0.81017 0.82189 0.0
O225 O 0.63773 0.81207 0.83466 0.0
Cd226 Cd 0.6362 0.79801 0.86356 0.0
O227 O 0.61592 0.80037 0.82379 0.0
Cd228 Cd 0.60631 0.78136 0.84678 0.0
C229 C 0.64076 0.76045 0.84763 0.0
O230 O 0.60906 0.79727 0.87511 0.0
O231 O 0.60469 0.77225 0.87818 0.0
O232 O 0.57912 0.78839 0.83725 0.0
C233 C 0.60605 0.7857 0.88569 0.0
O234 O 0.64594 0.77121 0.85834 0.0
C235 C 0.5743 0.77427 0.83499 0.0
O236 O 0.62723 0.76181 0.83946 0.0
O237 O 0.58453 0.76336 0.83784 0.0
C238 C 0.15772 0.62253 0.82577 0.0
O239 O 0.15583 0.63213 0.83899 0.0
Cd240 Cd 0.17157 0.63074 0.86677 0.0
O241 O 0.16827 0.61163 0.82666 0.0
Cd242 Cd 0.18913 0.60206 0.84811 0.0
C243 C 0.20856 0.63732 0.84757 0.0
O244 O 0.17383 0.60368 0.877 0.0
O245 O 0.19942 0.59907 0.87903 0.0
O246 O 0.18316 0.57545 0.83732 0.0
C247 C 0.1859 0.60028 0.88703 0.0
O248 O 0.19743 0.64238 0.85811 0.0
C249 C 0.19771 0.5719 0.83368 0.0
O250 O 0.20799 0.62337 0.84105 0.0
O251 O 0.20829 0.58249 0.83657 0.0
C252 C 0.35287 0.17123 0.82049 0.0
O253 O 0.34323 0.16765 0.83342 0.0
Cd254 Cd 0.3428 0.18149 0.86233 0.0
O255 O 0.36343 0.18202 0.8227 0.0
Cd256 Cd 0.37369 0.2002 0.84636 0.0
C257 C 0.33799 0.21982 0.84699 0.0
O258 O 0.37022 0.18232 0.87265 0.0
O259 O 0.37863 0.20603 0.87845 0.0
O260 O 0.40002 0.19315 0.83429 0.0
C261 C 0.37503 0.19239 0.88434 0.0
O262 O 0.33228 0.20774 0.85521 0.0
C263 C 0.40532 0.20722 0.83342 0.0
O264 O 0.35261 0.22006 0.84154 0.0
O265 O 0.39567 0.21818 0.83811 0.0
C266 C 0.81947 0.3552 0.82205 0.0
O267 O 0.82311 0.34578 0.83499 0.0
Cd268 Cd 0.80743 0.34445 0.86278 0.0
O269 O 0.8077 0.36473 0.82376 0.0
Cd270 Cd 0.78717 0.37248 0.84644 0.0
C271 C 0.77036 0.33629 0.84374 0.0
O272 O 0.8026 0.37035 0.87529 0.0
O273 O 0.77663 0.37257 0.87726 0.0
O274 O 0.79313 0.39967 0.83894 0.0
C275 C 0.79019 0.37208 0.88535 0.0
O276 O 0.78235 0.33173 0.85334 0.0
C277 C 0.77872 0.40368 0.83529 0.0
O278 O 0.76932 0.35056 0.83826 0.0
O279 O 0.768 0.39295 0.83638 0.0
C280 C 0.62489 0.16689 0.143 0.0
O281 O 0.63577 0.16334 0.13144 0.0
Cd282 Cd 0.63871 0.1784 0.10354 0.0
O283 O 0.61482 0.1778 0.13939 0.0
Cd284 Cd 0.60785 0.19594 0.11416 0.0
C285 C 0.64241 0.2162 0.12003 0.0
O286 O 0.61346 0.17931 0.08692 0.0
O287 O 0.60948 0.20429 0.08254 0.0
O288 O 0.57984 0.18879 0.1197 0.0
C289 C 0.61133 0.19063 0.07571 0.0
O290 O 0.64915 0.20443 0.11226 0.0
C291 C 0.57481 0.20287 0.12152 0.0
O292 O 0.62734 0.21602 0.12341 0.0
O293 O 0.58524 0.21382 0.1201 0.0
C294 C 0.81748 0.62553 0.1388 0.0
O295 O 0.8205 0.63505 0.12575 0.0
Cd296 Cd 0.80391 0.63569 0.09861 0.0
O297 O 0.80598 0.61562 0.13739 0.0
Cd298 Cd 0.78528 0.60692 0.1153 0.0
C299 C 0.76694 0.64229 0.11856 0.0
O300 O 0.8008 0.6093 0.08664 0.0
O301 O 0.77502 0.60585 0.08417 0.0
O302 O 0.79233 0.58046 0.12515 0.0
C303 C 0.78866 0.6068 0.07635 0.0
O304 O 0.77842 0.64748 0.1086 0.0
C305 C 0.77794 0.57579 0.12775 0.0
O306 O 0.7668 0.62798 0.12397 0.0
O307 O 0.76675 0.58573 0.12474 0.0
C308 C 0.34931 0.81826 0.13615 0.0
O309 O 0.33829 0.8206 0.12433 0.0
Cd310 Cd 0.337 0.80602 0.09595 0.0
O311 O 0.36026 0.80802 0.13333 0.0
Cd312 Cd 0.36805 0.78879 0.10961 0.0
C313 C 0.33308 0.76858 0.1135 0.0
O314 O 0.36297 0.80403 0.08123 0.0
O315 O 0.367 0.77888 0.07869 0.0
O316 O 0.396 0.79622 0.11494 0.0
C317 C 0.36498 0.79211 0.07085 0.0
O318 O 0.32693 0.78004 0.10456 0.0
C319 C 0.40095 0.78233 0.11837 0.0
O320 O 0.34784 0.76896 0.11848 0.0
O321 O 0.39048 0.77134 0.11798 0.0
C322 C 0.16687 0.35723 0.14167 0.0
O323 O 0.16219 0.34862 0.1284 0.0
Cd324 Cd 0.17723 0.34785 0.10008 0.0
O325 O 0.17871 0.36664 0.1396 0.0
Cd326 Cd 0.19763 0.37603 0.11597 0.0
C327 C 0.21515 0.34023 0.11747 0.0
O328 O 0.18104 0.37406 0.08798 0.0
O329 O 0.20682 0.37708 0.08457 0.0
O330 O 0.19119 0.40274 0.12515 0.0
C331 C 0.19294 0.3763 0.07726 0.0
O332 O 0.20286 0.33542 0.10852 0.0
C333 C 0.20566 0.40708 0.12803 0.0
O334 O 0.21618 0.35453 0.12279 0.0
O335 O 0.21662 0.39677 0.12561 0.0
C336 C 0.40358 0.22423 0.1203 0.0
O337 O 0.39721 0.23691 0.11442 0.0
Cd338 Cd 0.36891 0.23935 0.10802 0.0
O339 O 0.39488 0.21213 0.12369 0.0
Cd340 Cd 0.36617 0.20397 0.12327 0.0
C341 C 0.36482 0.20832 0.07749 0.0
O342 O 0.35546 0.22908 0.13437 0.0
O343 O 0.33796 0.21251 0.12394 0.0
O344 O 0.37382 0.18951 0.15083 0.0
C345 C 0.34075 0.22563 0.1317 0.0
O346 O 0.36409 0.22311 0.08073 0.0
C347 C 0.36448 0.17788 0.14788 0.0
O348 O 0.36688 0.19841 0.09045 0.0
O349 O 0.35634 0.17806 0.13309 0.0
C350 C 0.80367 0.35669 0.14493 0.0
O351 O 0.80715 0.34747 0.13175 0.0
Cd352 Cd 0.79261 0.34762 0.10329 0.0
O353 O 0.79259 0.36702 0.14315 0.0
Cd354 Cd 0.77342 0.37729 0.12 0.0
C355 C 0.75409 0.34223 0.1208 0.0
O356 O 0.79082 0.37443 0.09309 0.0
O357 O 0.76578 0.37991 0.08787 0.0
O358 O 0.78237 0.40261 0.13124 0.0
C359 C 0.77985 0.37772 0.08153 0.0
O360 O 0.7663 0.33711 0.112 0.0
C361 C 0.76847 0.40875 0.13274 0.0
O362 O 0.75346 0.35653 0.12628 0.0
O363 O 0.75645 0.40006 0.12863 0.0
C364 C 0.57123 0.75353 0.12399 0.0
O365 O 0.57666 0.74014 0.11911 0.0
Cd366 Cd 0.60453 0.73658 0.11106 0.0
O367 O 0.58076 0.76521 0.12611 0.0
Cd368 Cd 0.60982 0.77167 0.12519 0.0
C369 C 0.60883 0.76696 0.07946 0.0
O370 O 0.62091 0.74638 0.1356 0.0
O371 O 0.63766 0.76284 0.12327 0.0
O372 O 0.6055 0.78404 0.15467 0.0
C373 C 0.63539 0.74982 0.13152 0.0
O374 O 0.60824 0.75223 0.08316 0.0
C375 C 0.61287 0.7968 0.15097 0.0
O376 O 0.60866 0.77722 0.09227 0.0
O377 O 0.61846 0.79823 0.13479 0.0
C378 C 0.17347 0.62121 0.14566 0.0
O379 O 0.16877 0.62954 0.13217 0.0
Cd380 Cd 0.18332 0.63028 0.10374 0.0
O381 O 0.18573 0.61224 0.14409 0.0
Cd382 Cd 0.20541 0.60339 0.1207 0.0
C383 C 0.22167 0.63978 0.11933 0.0
O384 O 0.18723 0.60351 0.09409 0.0
O385 O 0.21263 0.60042 0.08845 0.0
O386 O 0.19922 0.57768 0.13299 0.0
C387 C 0.19826 0.60079 0.08243 0.0
O388 O 0.20878 0.64354 0.11081 0.0
C389 C 0.21368 0.57287 0.13431 0.0
O390 O 0.22366 0.62581 0.12546 0.0
O391 O 0.22472 0.58252 0.12966 0.0
C392 C 0.40388 0.74878 0.83521 0.0
O393 O 0.39832 0.73595 0.8417 0.0
Cd394 Cd 0.37039 0.7331 0.85009 0.0
O395 O 0.3945 0.7604 0.83205 0.0
Cd396 Cd 0.36564 0.76754 0.83327 0.0
C397 C 0.36603 0.76503 0.87937 0.0
O398 O 0.35428 0.74186 0.82475 0.0
O399 O 0.33757 0.75922 0.83523 0.0
O400 O 0.36973 0.77902 0.80318 0.0
C401 C 0.3398 0.74564 0.82835 0.0
O402 O 0.36648 0.75013 0.87685 0.0
C403 C 0.36324 0.79223 0.80681 0.0
O404 O 0.36658 0.77453 0.86579 0.0
O405 O 0.35804 0.79418 0.82308 0.0
C406 C 0.1701 0.35762 0.81863 0.0
O407 O 0.16637 0.34905 0.83232 0.0
Cd408 Cd 0.18174 0.34918 0.86031 0.0
O409 O 0.18181 0.36735 0.8197 0.0
Cd410 Cd 0.20175 0.37744 0.8421 0.0
C411 C 0.21992 0.34179 0.84297 0.0
O412 O 0.18489 0.3761 0.86971 0.0
O413 O 0.21028 0.38073 0.87381 0.0
O414 O 0.1942 0.4031 0.83036 0.0
C415 C 0.19632 0.37927 0.88074 0.0
O416 O 0.20765 0.33732 0.85218 0.0
C417 C 0.20847 0.40814 0.82786 0.0
O418 O 0.2208 0.35581 0.83663 0.0
O419 O 0.21993 0.3987 0.83172 0.0
C420 C 0.57626 0.2256 0.83823 0.0
O421 O 0.58231 0.23826 0.84464 0.0
Cd422 Cd 0.61013 0.23972 0.85366 0.0
O423 O 0.58512 0.21352 0.8355 0.0
Cd424 Cd 0.61353 0.20464 0.83722 0.0
C425 C 0.61184 0.20754 0.88326 0.0
O426 O 0.62549 0.22988 0.82832 0.0
O427 O 0.64199 0.21204 0.8381 0.0
O428 O 0.6069 0.19313 0.80782 0.0
C429 C 0.63995 0.22572 0.83139 0.0
O430 O 0.61186 0.22242 0.8805 0.0
C431 C 0.61416 0.18013 0.81043 0.0
O432 O 0.6118 0.19789 0.86983 0.0
O433 O 0.62096 0.17821 0.82594 0.0
C434 C 0.80819 0.62004 0.81507 0.0
O435 O 0.81233 0.62935 0.82791 0.0
Cd436 Cd 0.79661 0.63197 0.85521 0.0
O437 O 0.7962 0.61076 0.81714 0.0
Cd438 Cd 0.77684 0.60269 0.84142 0.0
C439 C 0.75832 0.63772 0.83735 0.0
O440 O 0.79375 0.60632 0.86882 0.0
O441 O 0.76816 0.60314 0.87329 0.0
O442 O 0.785 0.57596 0.83499 0.0
C443 C 0.78222 0.60438 0.88006 0.0
O444 O 0.77094 0.6432 0.8451 0.0
C445 C 0.77095 0.57041 0.83234 0.0
O446 O 0.75699 0.62305 0.83374 0.0
O447 O 0.75924 0.58008 0.83345 0.0
H448 H 0.24968 0.16335 0.36396 0.0
H449 H 0.22572 0.17981 0.3626 0.0
H450 H 0.20418 0.14804 0.32323 0.0
H451 H 0.22841 0.13124 0.32448 0.0
H452 H 0.20112 0.18078 0.3141 0.0
H453 H 0.18933 0.14677 0.36411 0.0
H454 H 0.1947 0.13187 0.39258 0.0
H455 H 0.20298 0.17529 0.42165 0.0
H456 H 0.1979 0.19046 0.39329 0.0
H457 H 0.13159 0.23148 0.32935 0.0
H458 H 0.14776 0.20733 0.32618 0.0
H459 H 0.18206 0.2255 0.36551 0.0
H460 H 0.16614 0.24954 0.36873 0.0
H461 H 0.17322 0.19437 0.37232 0.0
H462 H 0.19019 0.22734 0.32089 0.0
H463 H 0.18552 0.24241 0.29235 0.0
H464 H 0.16736 0.20058 0.26602 0.0
H465 H 0.17172 0.18532 0.29451 0.0
C466 C 0.23991 0.15977 0.35496 0.0
C467 C 0.24098 0.14591 0.34437 0.0
C468 C 0.22617 0.16919 0.35427 0.0
C469 C 0.2131 0.16502 0.34301 0.0
C470 C 0.21413 0.15138 0.33209 0.0
C471 C 0.22794 0.1418 0.33286 0.0
C472 C 0.1986 0.17525 0.34285 0.0
C473 C 0.19468 0.18346 0.3267 0.0
C474 C 0.19033 0.1788 0.35934 0.0
C475 C 0.19328 0.16976 0.37652 0.0
C476 C 0.19239 0.15315 0.37654 0.0
C477 C 0.19538 0.14465 0.39267 0.0
C478 C 0.19919 0.15263 0.40891 0.0
C479 C 0.20001 0.16913 0.40906 0.0
C480 C 0.19705 0.17769 0.39297 0.0
C481 C 0.14257 0.23031 0.33733 0.0
C482 C 0.14759 0.24246 0.34927 0.0
C483 C 0.15179 0.21652 0.33547 0.0
C484 C 0.1661 0.21466 0.3456 0.0
C485 C 0.17102 0.22669 0.35762 0.0
C486 C 0.16193 0.24047 0.35937 0.0
C487 C 0.17622 0.20033 0.34377 0.0
C488 C 0.1793 0.19136 0.35959 0.0
C489 C 0.18366 0.19608 0.32699 0.0
C490 C 0.18107 0.20525 0.30989 0.0
C491 C 0.18506 0.2214 0.30907 0.0
C492 C 0.1825 0.22996 0.29289 0.0
C493 C 0.17609 0.22247 0.2774 0.0
C494 C 0.17228 0.20638 0.27804 0.0
C495 C 0.1748 0.19777 0.2942 0.0
H496 H 0.17413 0.22912 0.26489 0.0
H497 H 0.2015 0.14603 0.42138 0.0
H498 H 0.73836 0.12984 0.3263 0.0
H499 H 0.76018 0.14838 0.3192 0.0
H500 H 0.73282 0.18635 0.34353 0.0
H501 H 0.71092 0.16799 0.35058 0.0
H502 H 0.74738 0.19523 0.31114 0.0
H503 H 0.76191 0.16896 0.36771 0.0
H504 H 0.76741 0.14585 0.38741 0.0
H505 H 0.80553 0.13137 0.35116 0.0
H506 H 0.8001 0.1543 0.3311 0.0
H507 H 0.80616 0.25209 0.3354 0.0
H508 H 0.78459 0.23248 0.33371 0.0
H509 H 0.81804 0.19842 0.31145 0.0
H510 H 0.83981 0.21796 0.31337 0.0
H511 H 0.8012 0.18618 0.3393 0.0
H512 H 0.78855 0.21445 0.28448 0.0
H513 H 0.78309 0.23785 0.26526 0.0
H514 H 0.74158 0.24889 0.29815 0.0
H515 H 0.74692 0.22568 0.31775 0.0
C516 C 0.73693 0.14215 0.33004 0.0
C517 C 0.72294 0.14741 0.33913 0.0
C518 C 0.74942 0.15271 0.326 0.0
C519 C 0.74814 0.16868 0.33098 0.0
C520 C 0.73402 0.17406 0.33956 0.0
C521 C 0.72156 0.16352 0.34367 0.0
C522 C 0.76175 0.17973 0.32798 0.0
C523 C 0.75913 0.19334 0.31736 0.0
C524 C 0.77717 0.17699 0.33574 0.0
C525 C 0.78047 0.16323 0.3478 0.0
C526 C 0.77137 0.16077 0.36386 0.0
C527 C 0.7745 0.14772 0.3751 0.0
C528 C 0.78678 0.13712 0.37051 0.0
C529 C 0.796 0.13957 0.35468 0.0
C530 C 0.7929 0.1526 0.34337 0.0
C531 C 0.80891 0.24048 0.32996 0.0
C532 C 0.8247 0.23654 0.32458 0.0
C533 C 0.79653 0.22931 0.3289 0.0
C534 C 0.79968 0.21403 0.32229 0.0
C535 C 0.81536 0.21016 0.31655 0.0
C536 C 0.82777 0.22134 0.31763 0.0
C537 C 0.78682 0.20185 0.32262 0.0
C538 C 0.78955 0.18801 0.33279 0.0
C539 C 0.77151 0.20441 0.31447 0.0
C540 C 0.76822 0.21837 0.30267 0.0
C541 C 0.77833 0.22193 0.28771 0.0
C542 C 0.77524 0.23515 0.27673 0.0
C543 C 0.76201 0.24487 0.2805 0.0
C544 C 0.75183 0.24136 0.29525 0.0
C545 C 0.75487 0.22815 0.30628 0.0
H546 H 0.75965 0.2551 0.27198 0.0
H547 H 0.78918 0.12703 0.37924 0.0
H548 H 0.84661 0.73895 0.3333 0.0
H549 H 0.82958 0.76211 0.32751 0.0
H550 H 0.78756 0.73567 0.34436 0.0
H551 H 0.80437 0.71254 0.35014 0.0
H552 H 0.7821 0.75334 0.31307 0.0
H553 H 0.80565 0.76028 0.37382 0.0
H554 H 0.82833 0.76283 0.39562 0.0
H555 H 0.84602 0.80315 0.36591 0.0
H556 H 0.82354 0.8007 0.34378 0.0
H557 H 0.72248 0.80352 0.34666 0.0
H558 H 0.74401 0.78441 0.34186 0.0
H559 H 0.77634 0.82192 0.3257 0.0
H560 H 0.75471 0.84132 0.33054 0.0
H561 H 0.78999 0.80153 0.35093 0.0
H562 H 0.76344 0.79742 0.29349 0.0
H563 H 0.74051 0.79504 0.27204 0.0
H564 H 0.72845 0.74977 0.29495 0.0
H565 H 0.75117 0.75196 0.31674 0.0
C566 C 0.83372 0.73804 0.33565 0.0
C567 C 0.82685 0.72392 0.34229 0.0
C568 C 0.82404 0.75129 0.33237 0.0
C569 C 0.80734 0.75061 0.33561 0.0
C570 C 0.80042 0.73642 0.34174 0.0
C571 C 0.81007 0.72323 0.34513 0.0
C572 C 0.797 0.76475 0.33338 0.0
C573 C 0.78378 0.76388 0.32134 0.0
C574 C 0.79957 0.7787 0.34372 0.0
C575 C 0.81305 0.78018 0.35702 0.0
C576 C 0.81446 0.7696 0.37184 0.0
C577 C 0.82726 0.77104 0.38427 0.0
C578 C 0.83865 0.78311 0.38211 0.0
C579 C 0.83722 0.79378 0.36754 0.0
C580 C 0.82445 0.79238 0.35505 0.0
C581 C 0.73412 0.80777 0.342 0.0
C582 C 0.73687 0.82397 0.339 0.0
C583 C 0.7464 0.79679 0.33915 0.0
C584 C 0.7617 0.80173 0.33321 0.0
C585 C 0.76457 0.81788 0.33019 0.0
C586 C 0.7522 0.82892 0.33293 0.0
C587 C 0.77475 0.7899 0.33108 0.0
C588 C 0.78848 0.79118 0.34229 0.0
C589 C 0.77267 0.77634 0.31995 0.0
C590 C 0.75898 0.77491 0.30684 0.0
C591 C 0.75584 0.787 0.29405 0.0
C592 C 0.74288 0.78568 0.28181 0.0
C593 C 0.73302 0.77227 0.28214 0.0
C594 C 0.73611 0.76015 0.2947 0.0
C595 C 0.74904 0.76142 0.30699 0.0
H596 H 0.723 0.77127 0.27265 0.0
H597 H 0.84855 0.78421 0.39175 0.0
H598 H 0.13713 0.75858 0.31773 0.0
H599 H 0.15913 0.77797 0.31748 0.0
H600 H 0.19221 0.74227 0.33689 0.0
H601 H 0.17034 0.7229 0.3373 0.0
H602 H 0.19342 0.76899 0.35743 0.0
H603 H 0.19397 0.75537 0.29308 0.0
H604 H 0.18203 0.75194 0.26228 0.0
H605 H 0.16984 0.80125 0.26061 0.0
H606 H 0.18152 0.80493 0.29153 0.0
H607 H 0.26835 0.80583 0.34962 0.0
H608 H 0.24558 0.78812 0.34454 0.0
H609 H 0.21722 0.82706 0.32395 0.0
H610 H 0.24019 0.84493 0.32864 0.0
H611 H 0.21216 0.80042 0.30394 0.0
H612 H 0.21196 0.81446 0.36751 0.0
H613 H 0.22346 0.81829 0.39846 0.0
H614 H 0.23407 0.7687 0.40199 0.0
H615 H 0.22285 0.76461 0.37094 0.0
C616 C 0.14914 0.75483 0.32174 0.0
C617 C 0.152 0.73924 0.32764 0.0
C618 C 0.16169 0.7659 0.32153 0.0
C619 C 0.17729 0.76153 0.32714 0.0
C620 C 0.18024 0.74588 0.33256 0.0
C621 C 0.16773 0.73482 0.33275 0.0
C622 C 0.19037 0.7734 0.32849 0.0
C623 C 0.19765 0.77572 0.34568 0.0
C624 C 0.19545 0.78258 0.3133 0.0
C625 C 0.18846 0.78039 0.2947 0.0
C626 C 0.18861 0.76545 0.28621 0.0
C627 C 0.18192 0.76347 0.26872 0.0
C628 C 0.17514 0.77636 0.25952 0.0
C629 C 0.17508 0.79127 0.26777 0.0
C630 C 0.18174 0.79332 0.28527 0.0
C631 C 0.25732 0.81066 0.34392 0.0
C632 C 0.25602 0.82684 0.33973 0.0
C633 C 0.24429 0.80051 0.34106 0.0
C634 C 0.22961 0.80634 0.33422 0.0
C635 C 0.22843 0.82235 0.32934 0.0
C636 C 0.24154 0.83254 0.33207 0.0
C637 C 0.21544 0.79571 0.3328 0.0
C638 C 0.20789 0.79371 0.31568 0.0
C639 C 0.20999 0.78686 0.3481 0.0
C640 C 0.21668 0.78926 0.36683 0.0
C641 C 0.21685 0.80439 0.37483 0.0
C642 C 0.2233 0.8066 0.3924 0.0
C643 C 0.22952 0.79375 0.40217 0.0
C644 C 0.22926 0.77865 0.3944 0.0
C645 C 0.22284 0.77637 0.37683 0.0
H646 H 0.23451 0.79548 0.41578 0.0
H647 H 0.16997 0.7748 0.24597 0.0
H648 H 0.13625 0.74367 0.63273 0.0
H649 H 0.15265 0.76728 0.6387 0.0
H650 H 0.19535 0.74212 0.62154 0.0
H651 H 0.1792 0.71859 0.61568 0.0
H652 H 0.20102 0.76 0.65205 0.0
H653 H 0.17542 0.76621 0.59212 0.0
H654 H 0.15199 0.76816 0.57127 0.0
H655 H 0.13418 0.80793 0.60179 0.0
H656 H 0.15743 0.80608 0.62296 0.0
H657 H 0.25835 0.81046 0.61408 0.0
H658 H 0.2371 0.79121 0.62003 0.0
H659 H 0.20564 0.82842 0.63892 0.0
H660 H 0.227 0.84794 0.63302 0.0
H661 H 0.19089 0.80767 0.61399 0.0
H662 H 0.22001 0.80462 0.6699 0.0
H663 H 0.24412 0.80295 0.6897 0.0
H664 H 0.25562 0.75754 0.66689 0.0
H665 H 0.23173 0.75905 0.64669 0.0
C666 C 0.14915 0.74313 0.6304 0.0
C667 C 0.15639 0.72928 0.62359 0.0
C668 C 0.15849 0.75664 0.63379 0.0
C669 C 0.17519 0.75647 0.63044 0.0
C670 C 0.18249 0.7425 0.62425 0.0
C671 C 0.1732 0.72907 0.62081 0.0
C672 C 0.18515 0.77094 0.63234 0.0
C673 C 0.19881 0.77044 0.64377 0.0
C674 C 0.18196 0.78476 0.62197 0.0
C675 C 0.16802 0.78587 0.60925 0.0
C676 C 0.16643 0.77528 0.59447 0.0
C677 C 0.15321 0.77639 0.58258 0.0
C678 C 0.14158 0.78813 0.58524 0.0
C679 C 0.14318 0.79882 0.59977 0.0
C680 C 0.15637 0.79775 0.61171 0.0
C681 C 0.24695 0.81461 0.61954 0.0
C682 C 0.24437 0.83075 0.62307 0.0
C683 C 0.23484 0.80356 0.62304 0.0
C684 C 0.21988 0.80839 0.63011 0.0
C685 C 0.21716 0.82448 0.63355 0.0
C686 C 0.22937 0.83558 0.6302 0.0
C687 C 0.20706 0.79647 0.63318 0.0
C688 C 0.19288 0.79743 0.62269 0.0
C689 C 0.20978 0.78308 0.64441 0.0
C690 C 0.22409 0.78199 0.6567 0.0
C691 C 0.22773 0.79432 0.66901 0.0
C692 C 0.24135 0.7934 0.68032 0.0
C693 C 0.2514 0.78015 0.67954 0.0
C694 C 0.24782 0.76779 0.66748 0.0
C695 C 0.23422 0.76866 0.65611 0.0
H696 H 0.26195 0.77947 0.6883 0.0
H697 H 0.13135 0.78897 0.57602 0.0
H698 H 0.23896 0.13198 0.62978 0.0
H699 H 0.21714 0.15092 0.63487 0.0
H700 H 0.24697 0.18839 0.61331 0.0
H701 H 0.2689 0.16957 0.60816 0.0
H702 H 0.23048 0.19696 0.6452 0.0
H703 H 0.21929 0.17305 0.58656 0.0
H704 H 0.21485 0.15085 0.56519 0.0
H705 H 0.17415 0.1355 0.59711 0.0
H706 H 0.1785 0.1575 0.61883 0.0
H707 H 0.1713 0.25472 0.62359 0.0
H708 H 0.19334 0.23555 0.62381 0.0
H709 H 0.16026 0.19909 0.64132 0.0
H710 H 0.13808 0.21816 0.64085 0.0
H711 H 0.17815 0.18936 0.61306 0.0
H712 H 0.18836 0.21427 0.67087 0.0
H713 H 0.19285 0.2365 0.69217 0.0
H714 H 0.23528 0.25005 0.66211 0.0
H715 H 0.23092 0.22801 0.64046 0.0
C716 C 0.24093 0.14426 0.62618 0.0
C717 C 0.25565 0.14925 0.61847 0.0
C718 C 0.22843 0.15504 0.62908 0.0
C719 C 0.23044 0.171 0.62434 0.0
C720 C 0.24522 0.17611 0.61705 0.0
C721 C 0.25769 0.16532 0.61404 0.0
C722 C 0.21696 0.1823 0.62652 0.0
C723 C 0.21908 0.19542 0.63806 0.0
C724 C 0.202 0.18002 0.6175 0.0
C725 C 0.19933 0.16681 0.60444 0.0
C726 C 0.20948 0.16486 0.58912 0.0
C727 C 0.20697 0.15233 0.57692 0.0
C728 C 0.19426 0.14174 0.57982 0.0
C729 C 0.18401 0.14369 0.5949 0.0
C730 C 0.18648 0.15619 0.60715 0.0
C731 C 0.16874 0.24266 0.62766 0.0
C732 C 0.15295 0.23793 0.63215 0.0
C733 C 0.18136 0.23173 0.62786 0.0
C734 C 0.17846 0.21592 0.63272 0.0
C735 C 0.16276 0.21124 0.63754 0.0
C736 C 0.15011 0.22215 0.63731 0.0
C737 C 0.19163 0.2041 0.63176 0.0
C738 C 0.18948 0.19088 0.62037 0.0
C739 C 0.20655 0.2063 0.64093 0.0
C740 C 0.20922 0.21956 0.65394 0.0
C741 C 0.19858 0.22206 0.6687 0.0
C742 C 0.20111 0.23462 0.68086 0.0
C743 C 0.21432 0.2447 0.67847 0.0
C744 C 0.22504 0.24223 0.66394 0.0
C745 C 0.22255 0.2297 0.65173 0.0
H746 H 0.21626 0.25441 0.6879 0.0
H747 H 0.19232 0.13205 0.57036 0.0
H748 H 0.72527 0.16654 0.60519 0.0
H749 H 0.7474 0.18537 0.60706 0.0
H750 H 0.77553 0.1519 0.63829 0.0
H751 H 0.75321 0.1328 0.63661 0.0
H752 H 0.77763 0.18289 0.65198 0.0
H753 H 0.78493 0.15642 0.59505 0.0
H754 H 0.77691 0.14504 0.56522 0.0
H755 H 0.76317 0.19108 0.54589 0.0
H756 H 0.77087 0.20271 0.57571 0.0
H757 H 0.84521 0.23625 0.63371 0.0
H758 H 0.82869 0.21227 0.63691 0.0
H759 H 0.79019 0.23466 0.60663 0.0
H760 H 0.8064 0.25847 0.60338 0.0
H761 H 0.79805 0.20508 0.59328 0.0
H762 H 0.78749 0.23047 0.65204 0.0
H763 H 0.79544 0.24164 0.68201 0.0
H764 H 0.81614 0.1971 0.69771 0.0
H765 H 0.80849 0.18572 0.6677 0.0
C766 C 0.73611 0.16311 0.61253 0.0
C767 C 0.7375 0.14807 0.62062 0.0
C768 C 0.74878 0.17391 0.61354 0.0
C769 C 0.76319 0.16993 0.62255 0.0
C770 C 0.76452 0.15515 0.63118 0.0
C771 C 0.75178 0.14426 0.63017 0.0
C772 C 0.77682 0.18129 0.62245 0.0
C773 C 0.78239 0.18752 0.63917 0.0
C774 C 0.78296 0.18734 0.60572 0.0
C775 C 0.7784 0.18042 0.58768 0.0
C776 C 0.78009 0.16411 0.58449 0.0
C777 C 0.77562 0.15761 0.56757 0.0
C778 C 0.76951 0.16733 0.55368 0.0
C779 C 0.7679 0.18357 0.55667 0.0
C780 C 0.77234 0.19012 0.57357 0.0
C781 C 0.83317 0.23609 0.62787 0.0
C782 C 0.82716 0.24927 0.61823 0.0
C783 C 0.82376 0.2224 0.62974 0.0
C784 C 0.80826 0.22171 0.62195 0.0
C785 C 0.80217 0.23493 0.61265 0.0
C786 C 0.81146 0.24857 0.61086 0.0
C787 C 0.79835 0.20714 0.62277 0.0
C788 C 0.79355 0.20025 0.60611 0.0
C789 C 0.79303 0.20047 0.63954 0.0
C790 C 0.79761 0.20731 0.65755 0.0
C791 C 0.79387 0.22311 0.66182 0.0
C792 C 0.79829 0.22946 0.67882 0.0
C793 C 0.80634 0.2201 0.69173 0.0
C794 C 0.80994 0.20435 0.68768 0.0
C795 C 0.80556 0.19794 0.67068 0.0
H796 H 0.80975 0.22505 0.7049 0.0
H797 H 0.76605 0.16228 0.54059 0.0
H798 H 0.84484 0.76006 0.63939 0.0
H799 H 0.82292 0.77945 0.63856 0.0
H800 H 0.78998 0.74332 0.61985 0.0
H801 H 0.81181 0.72393 0.62047 0.0
H802 H 0.78825 0.7696 0.59893 0.0
H803 H 0.7881 0.75729 0.66351 0.0
H804 H 0.80013 0.75425 0.69432 0.0
H805 H 0.813 0.80343 0.69474 0.0
H806 H 0.80123 0.80673 0.66381 0.0
H807 H 0.71445 0.80973 0.60666 0.0
H808 H 0.73656 0.7911 0.61101 0.0
H809 H 0.76679 0.8287 0.63162 0.0
H810 H 0.74452 0.84744 0.62775 0.0
H811 H 0.77068 0.80252 0.65165 0.0
H812 H 0.77088 0.81509 0.58748 0.0
H813 H 0.75914 0.81843 0.55656 0.0
H814 H 0.74684 0.76912 0.55505 0.0
H815 H 0.75831 0.76553 0.58608 0.0
C816 C 0.83289 0.75622 0.63526 0.0
C817 C 0.83005 0.74048 0.62993 0.0
C818 C 0.82038 0.7673 0.63486 0.0
C819 C 0.80482 0.7628 0.62922 0.0
C820 C 0.80191 0.74704 0.62421 0.0
C821 C 0.81439 0.73597 0.62461 0.0
C822 C 0.79171 0.77463 0.62767 0.0
C823 C 0.78426 0.77665 0.61051 0.0
C824 C 0.78689 0.78417 0.64266 0.0
C825 C 0.79393 0.78222 0.66127 0.0
C826 C 0.79361 0.76743 0.67011 0.0
C827 C 0.80036 0.76566 0.6876 0.0
C828 C 0.80736 0.77863 0.69646 0.0
C829 C 0.80759 0.7934 0.68785 0.0
C830 C 0.80087 0.79522 0.67035 0.0
C831 C 0.72578 0.81407 0.61214 0.0
C832 C 0.72776 0.83011 0.61672 0.0
C833 C 0.73843 0.8034 0.61457 0.0
C834 C 0.75342 0.80856 0.62133 0.0
C835 C 0.75534 0.82448 0.62632 0.0
C836 C 0.74262 0.83517 0.62405 0.0
C837 C 0.76709 0.79734 0.62294 0.0
C838 C 0.77469 0.79548 0.64006 0.0
C839 C 0.77214 0.78797 0.60789 0.0
C840 C 0.76533 0.79008 0.58917 0.0
C841 C 0.76557 0.80498 0.5806 0.0
C842 C 0.75898 0.80692 0.56305 0.0
C843 C 0.75222 0.79401 0.55387 0.0
C844 C 0.75207 0.77912 0.56219 0.0
C845 C 0.75863 0.77712 0.57975 0.0
H846 H 0.74712 0.79553 0.54028 0.0
H847 H 0.81258 0.77724 0.71001 0.0
H848 H 0.64712 0.74468 0.81569 0.0
H849 H 0.66553 0.72226 0.81162 0.0
H850 H 0.67383 0.72105 0.87024 0.0
H851 H 0.65649 0.74412 0.87402 0.0
H852 H 0.70032 0.71862 0.85583 0.0
H853 H 0.65042 0.69205 0.84429 0.0
H854 H 0.62403 0.68723 0.82957 0.0
H855 H 0.64725 0.68214 0.77717 0.0
H856 H 0.67378 0.68713 0.79155 0.0
H857 H 0.72598 0.63175 0.83996 0.0
H858 H 0.70413 0.65131 0.83912 0.0
H859 H 0.73852 0.68756 0.82446 0.0
H860 H 0.7604 0.66828 0.82635 0.0
H861 H 0.68998 0.67134 0.81727 0.0
H862 H 0.73137 0.72097 0.84632 0.0
H863 H 0.75591 0.72355 0.86538 0.0
H864 H 0.74591 0.67876 0.89074 0.0
H865 H 0.72121 0.67601 0.87202 0.0
C866 C 0.65284 0.73949 0.82765 0.0
C867 C 0.65055 0.7461 0.84514 0.0
C868 C 0.66326 0.72661 0.82537 0.0
C869 C 0.67104 0.71979 0.84064 0.0
C870 C 0.66816 0.72612 0.85819 0.0
C871 C 0.65821 0.73927 0.86037 0.0
C872 C 0.68301 0.70679 0.83842 0.0
C873 C 0.69795 0.70829 0.84742 0.0
C874 C 0.67999 0.69313 0.82767 0.0
C875 C 0.66407 0.69011 0.81897 0.0
C876 C 0.64989 0.69001 0.82961 0.0
C877 C 0.63491 0.68723 0.82133 0.0
C878 C 0.63396 0.68442 0.80244 0.0
C879 C 0.648 0.68434 0.7918 0.0
C880 C 0.66301 0.68713 0.80001 0.0
C881 C 0.72878 0.64386 0.83629 0.0
C882 C 0.74485 0.64861 0.83352 0.0
C883 C 0.7163 0.65501 0.83577 0.0
C884 C 0.71974 0.671 0.83221 0.0
C885 C 0.73564 0.6754 0.82779 0.0
C886 C 0.74812 0.66438 0.8288 0.0
C887 C 0.70712 0.68329 0.8347 0.0
C888 C 0.6922 0.68169 0.82569 0.0
C889 C 0.70981 0.69658 0.84614 0.0
C890 C 0.72455 0.69822 0.85762 0.0
C891 C 0.73439 0.7117 0.85601 0.0
C892 C 0.74832 0.71319 0.86675 0.0
C893 C 0.75249 0.7013 0.87921 0.0
C894 C 0.7427 0.68793 0.88103 0.0
C895 C 0.72874 0.6864 0.87036 0.0
H896 H 0.7633 0.70247 0.88749 0.0
H897 H 0.62235 0.68227 0.79606 0.0
H898 H 0.21166 0.66881 0.85509 0.0
H899 H 0.23436 0.68609 0.84771 0.0
H900 H 0.25917 0.64707 0.82213 0.0
H901 H 0.23647 0.6296 0.82948 0.0
H902 H 0.27856 0.66407 0.84608 0.0
H903 H 0.2434 0.67456 0.79545 0.0
H904 H 0.21763 0.68121 0.78033 0.0
H905 H 0.21691 0.72606 0.80793 0.0
H906 H 0.24257 0.71959 0.82344 0.0
H907 H 0.34103 0.71534 0.81523 0.0
H908 H 0.31905 0.69597 0.81446 0.0
H909 H 0.28653 0.73059 0.83733 0.0
H910 H 0.30828 0.75006 0.83779 0.0
H911 H 0.27187 0.71399 0.81103 0.0
H912 H 0.30464 0.70251 0.8643 0.0
H913 H 0.32994 0.69611 0.88061 0.0
H914 H 0.33461 0.65343 0.84914 0.0
H915 H 0.30943 0.65969 0.83247 0.0
C916 C 0.22191 0.66387 0.84785 0.0
C917 C 0.22225 0.64782 0.84287 0.0
C918 C 0.23484 0.6738 0.84356 0.0
C919 C 0.24835 0.66787 0.83422 0.0
C920 C 0.2488 0.65185 0.82929 0.0
C921 C 0.23581 0.64192 0.83347 0.0
C922 C 0.26219 0.67839 0.8302 0.0
C923 C 0.27721 0.67483 0.83809 0.0
C924 C 0.26027 0.69256 0.8201 0.0
C925 C 0.24487 0.69653 0.81072 0.0
C926 C 0.23769 0.68579 0.79841 0.0
C927 C 0.22311 0.68954 0.78975 0.0
C928 C 0.21562 0.70403 0.79319 0.0
C929 C 0.22272 0.71483 0.80528 0.0
C930 C 0.2373 0.71114 0.814 0.0
C931 C 0.32916 0.71885 0.81995 0.0
C932 C 0.32641 0.73418 0.8267 0.0
C933 C 0.31663 0.70776 0.81955 0.0
C934 C 0.30122 0.71178 0.82607 0.0
C935 C 0.29834 0.72723 0.83224 0.0
C936 C 0.31081 0.73833 0.83256 0.0
C937 C 0.28817 0.69982 0.8272 0.0
C938 C 0.27329 0.70311 0.81877 0.0
C939 C 0.29017 0.68546 0.83694 0.0
C940 C 0.30527 0.68166 0.84699 0.0
C941 C 0.31113 0.69182 0.86076 0.0
C942 C 0.32543 0.68821 0.87009 0.0
C943 C 0.3339 0.6744 0.86588 0.0
C944 C 0.32805 0.66414 0.85236 0.0
C945 C 0.31377 0.66771 0.84298 0.0
H946 H 0.34497 0.67162 0.87312 0.0
H947 H 0.20433 0.70691 0.78647 0.0
H948 H 0.30575 0.22211 0.85413 0.0
H949 H 0.28803 0.24456 0.84868 0.0
H950 H 0.32804 0.27126 0.82681 0.0
H951 H 0.34605 0.24873 0.83233 0.0
H952 H 0.30958 0.28857 0.85117 0.0
H953 H 0.30066 0.25767 0.79767 0.0
H954 H 0.29534 0.23345 0.77982 0.0
H955 H 0.24935 0.22824 0.80636 0.0
H956 H 0.25448 0.2523 0.82459 0.0
H957 H 0.24998 0.34755 0.82832 0.0
H958 H 0.27213 0.32859 0.82442 0.0
H959 H 0.24212 0.29157 0.84674 0.0
H960 H 0.22004 0.31025 0.85059 0.0
H961 H 0.2585 0.28183 0.81628 0.0
H962 H 0.26985 0.30995 0.87315 0.0
H963 H 0.27535 0.33375 0.8917 0.0
H964 H 0.31697 0.34404 0.8586 0.0
H965 H 0.31158 0.32038 0.83969 0.0
C966 C 0.31085 0.23271 0.84813 0.0
C967 C 0.32734 0.23358 0.84362 0.0
C968 C 0.30066 0.24553 0.84494 0.0
C969 C 0.30668 0.25949 0.8371 0.0
C970 C 0.32316 0.26054 0.83277 0.0
C971 C 0.3334 0.24765 0.8359 0.0
C972 C 0.29563 0.27299 0.83393 0.0
C973 C 0.29859 0.28726 0.84318 0.0
C974 C 0.28124 0.27119 0.82363 0.0
C975 C 0.27801 0.25677 0.81258 0.0
C976 C 0.28945 0.25131 0.79979 0.0
C977 C 0.28647 0.23761 0.78959 0.0
C978 C 0.27203 0.2293 0.79197 0.0
C979 C 0.26053 0.23469 0.80453 0.0
C980 C 0.26346 0.24837 0.81478 0.0
C981 C 0.24809 0.33535 0.83229 0.0
C982 C 0.23326 0.33044 0.83985 0.0
C983 C 0.26076 0.32456 0.8301 0.0
C984 C 0.25877 0.3087 0.83538 0.0
C985 C 0.24389 0.30374 0.84253 0.0
C986 C 0.2313 0.31448 0.84481 0.0
C987 C 0.27219 0.29718 0.83404 0.0
C988 C 0.26967 0.28328 0.82391 0.0
C989 C 0.28697 0.29933 0.84351 0.0
C990 C 0.29019 0.31353 0.85487 0.0
C991 C 0.28009 0.31737 0.86973 0.0
C992 C 0.2832 0.33081 0.88033 0.0
C993 C 0.29646 0.34043 0.87629 0.0
C994 C 0.30667 0.3366 0.86168 0.0
C995 C 0.3036 0.32317 0.85102 0.0
H996 H 0.29886 0.35083 0.88452 0.0
H997 H 0.26974 0.21869 0.78407 0.0
H998 H 0.67189 0.21988 0.83744 0.0
H999 H 0.69419 0.23879 0.8364 0.0
H1000 H 0.66124 0.27557 0.81967 0.0
H1001 H 0.63883 0.25665 0.82048 0.0
H1002 H 0.69068 0.27705 0.80122 0.0
H1003 H 0.67142 0.2731 0.86342 0.0
H1004 H 0.66357 0.25901 0.89171 0.0
H1005 H 0.71155 0.24024 0.89671 0.0
H1006 H 0.71963 0.25404 0.86829 0.0
H1007 H 0.74072 0.34225 0.82833 0.0
H1008 H 0.71873 0.32339 0.82328 0.0
H1009 H 0.74874 0.28569 0.844 0.0
H1010 H 0.7706 0.30443 0.8494 0.0
H1011 H 0.72014 0.28517 0.85989 0.0
H1012 H 0.73974 0.28921 0.798 0.0
H1013 H 0.74774 0.30306 0.76961 0.0
H1014 H 0.69971 0.32153 0.76385 0.0
H1015 H 0.69146 0.30794 0.79235 0.0
C1016 C 0.6694 0.23195 0.83338 0.0
C1017 C 0.65358 0.23683 0.82925 0.0
C1018 C 0.68214 0.24274 0.8328 0.0
C1019 C 0.6793 0.25861 0.82821 0.0
C1020 C 0.66366 0.26337 0.82328 0.0
C1021 C 0.65088 0.25257 0.82382 0.0
C1022 C 0.69247 0.27037 0.82971 0.0
C1023 C 0.69703 0.27899 0.81407 0.0
C1024 C 0.70087 0.27267 0.84643 0.0
C1025 C 0.69608 0.26449 0.86363 0.0
C1026 C 0.68027 0.26588 0.87048 0.0
C1027 C 0.67578 0.25796 0.88655 0.0
C1028 C 0.68704 0.24871 0.89598 0.0
C1029 C 0.70283 0.2474 0.88939 0.0
C1030 C 0.70738 0.25528 0.8733 0.0
C1031 C 0.74268 0.32992 0.83165 0.0
C1032 C 0.75738 0.32486 0.83937 0.0
C1033 C 0.73013 0.31914 0.82869 0.0
C1034 C 0.73213 0.30312 0.83319 0.0
C1035 C 0.74692 0.29801 0.84048 0.0
C1036 C 0.75941 0.30875 0.84355 0.0
C1037 C 0.71859 0.29176 0.83133 0.0
C1038 C 0.71387 0.28325 0.84698 0.0
C1039 C 0.71012 0.28958 0.81462 0.0
C1040 C 0.71502 0.29768 0.79742 0.0
C1041 C 0.73091 0.29632 0.79076 0.0
C1042 C 0.73549 0.30411 0.77464 0.0
C1043 C 0.72425 0.31321 0.76497 0.0
C1044 C 0.7084 0.31449 0.77137 0.0
C1045 C 0.70376 0.30674 0.7875 0.0
H1046 H 0.72782 0.31923 0.75249 0.0
H1047 H 0.68355 0.24258 0.90842 0.0
H1048 H 0.63168 0.24529 0.13131 0.0
H1049 H 0.64791 0.26903 0.13698 0.0
H1050 H 0.69128 0.24286 0.12473 0.0
H1051 H 0.67524 0.21915 0.11909 0.0
H1052 H 0.69483 0.26232 0.15502 0.0
H1053 H 0.67413 0.26538 0.09244 0.0
H1054 H 0.65247 0.26617 0.06917 0.0
H1055 H 0.63246 0.30748 0.09477 0.0
H1056 H 0.65391 0.30679 0.11836 0.0
H1057 H 0.7549 0.31017 0.11877 0.0
H1058 H 0.73308 0.29158 0.1246 0.0
H1059 H 0.70111 0.33017 0.13778 0.0
H1060 H 0.72312 0.34908 0.13202 0.0
H1061 H 0.6879 0.30801 0.11293 0.0
H1062 H 0.71195 0.3079 0.17186 0.0
H1063 H 0.73406 0.30741 0.19453 0.0
H1064 H 0.74788 0.26112 0.17616 0.0
H1065 H 0.72594 0.26141 0.15321 0.0
C1066 C 0.64469 0.24455 0.12999 0.0
C1067 C 0.65216 0.23034 0.12462 0.0
C1068 C 0.65392 0.25813 0.1332 0.0
C1069 C 0.67077 0.2577 0.13116 0.0
C1070 C 0.67829 0.24342 0.12642 0.0
C1071 C 0.66908 0.2299 0.12309 0.0
C1072 C 0.68068 0.27221 0.13301 0.0
C1073 C 0.69332 0.27233 0.14585 0.0
C1074 C 0.67833 0.28549 0.12146 0.0
C1075 C 0.66548 0.28591 0.10729 0.0
C1076 C 0.66502 0.27454 0.0932 0.0
C1077 C 0.65281 0.27499 0.07994 0.0
C1078 C 0.64106 0.28683 0.08053 0.0
C1079 C 0.64154 0.29829 0.09436 0.0
C1080 C 0.65372 0.29788 0.10767 0.0
C1081 C 0.74327 0.31478 0.12297 0.0
C1082 C 0.74074 0.33112 0.12489 0.0
C1083 C 0.73083 0.3041 0.12642 0.0
C1084 C 0.71555 0.30949 0.13181 0.0
C1085 C 0.71288 0.3258 0.13373 0.0
C1086 C 0.72544 0.33655 0.13047 0.0
C1087 C 0.70239 0.29787 0.13451 0.0
C1088 C 0.68914 0.29824 0.1225 0.0
C1089 C 0.70416 0.28506 0.14685 0.0
C1090 C 0.71732 0.28472 0.16074 0.0
C1091 C 0.71976 0.29766 0.17257 0.0
C1092 C 0.73226 0.29741 0.18548 0.0
C1093 C 0.7424 0.28426 0.18676 0.0
C1094 C 0.74002 0.2713 0.17516 0.0
C1095 C 0.72752 0.27149 0.16221 0.0
H1096 H 0.75209 0.2841 0.19676 0.0
H1097 H 0.63161 0.28717 0.07024 0.0
H1098 H 0.73923 0.63496 0.13732 0.0
H1099 H 0.71661 0.65253 0.14438 0.0
H1100 H 0.74162 0.69127 0.11833 0.0
H1101 H 0.7643 0.67389 0.11134 0.0
H1102 H 0.72705 0.70027 0.15052 0.0
H1103 H 0.71311 0.67135 0.09532 0.0
H1104 H 0.70843 0.64727 0.07696 0.0
H1105 H 0.67158 0.63244 0.11472 0.0
H1106 H 0.6762 0.65635 0.13345 0.0
H1107 H 0.66709 0.75399 0.12282 0.0
H1108 H 0.68898 0.73489 0.12573 0.0
H1109 H 0.65605 0.70119 0.14983 0.0
H1110 H 0.63393 0.72022 0.14665 0.0
H1111 H 0.67356 0.68796 0.1232 0.0
H1112 H 0.68496 0.71913 0.17605 0.0
H1113 H 0.68932 0.74368 0.19362 0.0
H1114 H 0.73069 0.75463 0.16042 0.0
H1115 H 0.72643 0.73027 0.14243 0.0
C1116 C 0.73997 0.64724 0.1332 0.0
C1117 C 0.75352 0.65299 0.12363 0.0
C1118 C 0.72703 0.65725 0.13723 0.0
C1119 C 0.72741 0.67315 0.13174 0.0
C1120 C 0.74111 0.67903 0.1227 0.0
C1121 C 0.75402 0.66904 0.11863 0.0
C1122 C 0.71328 0.68357 0.13459 0.0
C1123 C 0.71536 0.69765 0.14451 0.0
C1124 C 0.69794 0.67988 0.12716 0.0
C1125 C 0.69514 0.66553 0.1159 0.0
C1126 C 0.7041 0.66288 0.09979 0.0
C1127 C 0.70145 0.64928 0.0893 0.0
C1128 C 0.68975 0.63831 0.0947 0.0
C1129 C 0.68066 0.64093 0.11058 0.0
C1130 C 0.68329 0.65451 0.12113 0.0
C1131 C 0.66451 0.74257 0.12889 0.0
C1132 C 0.64878 0.73858 0.13446 0.0
C1133 C 0.67707 0.7317 0.13066 0.0
C1134 C 0.67419 0.71669 0.13821 0.0
C1135 C 0.65853 0.71274 0.14404 0.0
C1136 C 0.64593 0.72362 0.14223 0.0
C1137 C 0.68736 0.70486 0.13886 0.0
C1138 C 0.68513 0.6905 0.12956 0.0
C1139 C 0.70255 0.70832 0.14686 0.0
C1140 C 0.7053 0.7229 0.15781 0.0
C1141 C 0.69493 0.72682 0.17241 0.0
C1142 C 0.69739 0.7407 0.18246 0.0
C1143 C 0.71025 0.75072 0.17812 0.0
C1144 C 0.72072 0.74686 0.16376 0.0
C1145 C 0.7183 0.733 0.15365 0.0
H1146 H 0.71212 0.76147 0.1859 0.0
H1147 H 0.68771 0.62779 0.08656 0.0
H1148 H 0.21923 0.67141 0.1131 0.0
H1149 H 0.24053 0.69119 0.11456 0.0
H1150 H 0.27454 0.65558 0.13193 0.0
H1151 H 0.25306 0.63556 0.13081 0.0
H1152 H 0.27874 0.68404 0.15047 0.0
H1153 H 0.27492 0.66665 0.08831 0.0
H1154 H 0.26112 0.65966 0.05939 0.0
H1155 H 0.24378 0.70728 0.05415 0.0
H1156 H 0.25728 0.71451 0.08319 0.0
H1157 H 0.34263 0.73965 0.12696 0.0
H1158 H 0.32593 0.71585 0.13037 0.0
H1159 H 0.28415 0.74198 0.11216 0.0
H1160 H 0.30063 0.76559 0.1085 0.0
H1161 H 0.28765 0.71493 0.09338 0.0
H1162 H 0.28954 0.73137 0.15729 0.0
H1163 H 0.30331 0.73812 0.18631 0.0
H1164 H 0.32493 0.69201 0.18792 0.0
H1165 H 0.31143 0.68506 0.15876 0.0
C1166 C 0.2312 0.66773 0.11733 0.0
C1167 C 0.23448 0.65185 0.12161 0.0
C1168 C 0.24337 0.67908 0.11814 0.0
C1169 C 0.25917 0.67479 0.123 0.0
C1170 C 0.26242 0.6591 0.12805 0.0
C1171 C 0.25016 0.64768 0.12735 0.0
C1172 C 0.27224 0.68675 0.12197 0.0
C1173 C 0.28093 0.69062 0.13792 0.0
C1174 C 0.27504 0.69534 0.1056 0.0
C1175 C 0.26704 0.6911 0.08799 0.0
C1176 C 0.26809 0.67561 0.08105 0.0
C1177 C 0.26032 0.67161 0.06463 0.0
C1178 C 0.25156 0.68301 0.05495 0.0
C1179 C 0.25057 0.69846 0.06166 0.0
C1180 C 0.2583 0.70252 0.07809 0.0
C1181 C 0.32984 0.74035 0.12388 0.0
C1182 C 0.32299 0.7545 0.11732 0.0
C1183 C 0.32033 0.72675 0.12588 0.0
C1184 C 0.30381 0.72715 0.12148 0.0
C1185 C 0.29689 0.74138 0.1155 0.0
C1186 C 0.30635 0.75489 0.11345 0.0
C1187 C 0.29368 0.7127 0.12206 0.0
C1188 C 0.28563 0.70825 0.10591 0.0
C1189 C 0.29158 0.70359 0.13821 0.0
C1190 C 0.29963 0.70776 0.15574 0.0
C1191 C 0.29734 0.72272 0.16375 0.0
C1192 C 0.30507 0.72658 0.18024 0.0
C1193 C 0.31503 0.71552 0.18892 0.0
C1194 C 0.31724 0.70057 0.18116 0.0
C1195 C 0.30954 0.69667 0.16466 0.0
H1196 H 0.321 0.71853 0.20169 0.0
H1197 H 0.24555 0.67989 0.04225 0.0
H1198 H 0.21552 0.30837 0.11144 0.0
H1199 H 0.23728 0.28981 0.11813 0.0
H1200 H 0.26627 0.32783 0.13992 0.0
H1201 H 0.24455 0.34659 0.1332 0.0
H1202 H 0.28302 0.30901 0.11587 0.0
H1203 H 0.24988 0.30196 0.16891 0.0
H1204 H 0.22455 0.29731 0.18588 0.0
H1205 H 0.21948 0.25194 0.16007 0.0
H1206 H 0.24466 0.25641 0.14273 0.0
H1207 H 0.34364 0.25564 0.14521 0.0
H1208 H 0.32255 0.27582 0.14705 0.0
H1209 H 0.28768 0.24244 0.12605 0.0
H1210 H 0.30861 0.22216 0.12445 0.0
H1211 H 0.27486 0.26047 0.15307 0.0
H1212 H 0.30576 0.26861 0.09767 0.0
H1213 H 0.33065 0.27301 0.07979 0.0
H1214 H 0.33943 0.31616 0.10925 0.0
H1215 H 0.31468 0.31188 0.1275 0.0
C1216 C 0.22649 0.31282 0.11771 0.0
C1217 C 0.22829 0.32898 0.12178 0.0
C1218 C 0.23888 0.30217 0.12162 0.0
C1219 C 0.25329 0.30744 0.12971 0.0
C1220 C 0.25519 0.32355 0.13375 0.0
C1221 C 0.24276 0.33423 0.12992 0.0
C1222 C 0.26656 0.29614 0.13324 0.0
C1223 C 0.28137 0.29856 0.12432 0.0
C1224 C 0.26423 0.28235 0.14394 0.0
C1225 C 0.24911 0.27958 0.15441 0.0
C1226 C 0.2433 0.29104 0.16674 0.0
C1227 C 0.22898 0.28843 0.17645 0.0
C1228 C 0.2204 0.27435 0.17403 0.0
C1229 C 0.22614 0.26284 0.16193 0.0
C1230 C 0.24045 0.2654 0.15217 0.0
C1231 C 0.33144 0.25255 0.14119 0.0
C1232 C 0.3278 0.23737 0.1345 0.0
C1233 C 0.31942 0.2641 0.1422 0.0
C1234 C 0.30362 0.26068 0.13643 0.0
C1235 C 0.29981 0.24533 0.13054 0.0
C1236 C 0.3118 0.23377 0.12956 0.0
C1237 C 0.29123 0.27325 0.13551 0.0
C1238 C 0.27659 0.27105 0.14486 0.0
C1239 C 0.29366 0.28721 0.12512 0.0
C1240 C 0.30848 0.28984 0.11409 0.0
C1241 C 0.31307 0.27897 0.10043 0.0
C1242 C 0.32713 0.28145 0.09022 0.0
C1243 C 0.33664 0.29483 0.09342 0.0
C1244 C 0.33207 0.30578 0.10681 0.0
C1245 C 0.31802 0.30334 0.11709 0.0
H1246 H 0.34753 0.29673 0.08549 0.0
H1247 H 0.20931 0.27235 0.18156 0.0
H1248 H 0.92414 0.22602 0.33567 0.0
H1249 H 0.95334 0.22835 0.33182 0.0
H1250 H 0.94831 0.27831 0.32137 0.0
H1251 H 0.91905 0.27606 0.32485 0.0
H1252 H 0.97051 0.26532 0.29885 0.0
H1253 H 0.959 0.26526 0.36354 0.0
H1254 H 0.94736 0.25501 0.39236 0.0
H1255 H 0.97516 0.21244 0.38686 0.0
H1256 H 0.98681 0.22236 0.35785 0.0
H1257 H 0.04851 0.29288 0.32558 0.0
H1258 H 0.01983 0.28727 0.32096 0.0
H1259 H 0.02877 0.23756 0.32939 0.0
H1260 H 0.05748 0.24306 0.33413 0.0
H1261 H 0.00486 0.24881 0.35136 0.0
H1262 H 0.01834 0.2508 0.28745 0.0
H1263 H 0.03014 0.26223 0.25933 0.0
H1264 H -0.00107 0.30254 0.26408 0.0
H1265 H 0.9871 0.29146 0.29239 0.0
C1266 C 0.92921 0.23749 0.33243 0.0
C1267 C 0.91927 0.25089 0.33075 0.0
C1268 C 0.94591 0.2388 0.33026 0.0
C1269 C 0.953 0.25354 0.32657 0.0
C1270 C 0.94308 0.26682 0.32423 0.0
C1271 C 0.92636 0.26552 0.32631 0.0
C1272 C 0.97079 0.25527 0.32605 0.0
C1273 C 0.97803 0.26183 0.31037 0.0
C1274 C 0.9806 0.25045 0.34097 0.0
C1275 C 0.97363 0.24447 0.35842 0.0
C1276 C 0.96253 0.25366 0.3684 0.0
C1277 C 0.95595 0.24792 0.38478 0.0
C1278 C 0.96048 0.23306 0.39141 0.0
C1279 C 0.97164 0.22393 0.38169 0.0
C1280 C 0.97824 0.22961 0.36529 0.0
C1281 C 0.04442 0.28072 0.32616 0.0
C1282 C 0.05523 0.26842 0.33032 0.0
C1283 C 0.02804 0.27753 0.32343 0.0
C1284 C 0.02221 0.26199 0.32477 0.0
C1285 C 0.03306 0.24963 0.32829 0.0
C1286 C 0.04945 0.25279 0.33095 0.0
C1287 C 0.00462 0.25887 0.32415 0.0
C1288 C -0.00261 0.25211 0.33971 0.0
C1289 C -0.00514 0.26366 0.3092 0.0
C1290 C 0.00193 0.27035 0.29214 0.0
C1291 C 0.01409 0.26216 0.28259 0.0
C1292 C 0.02076 0.26857 0.2666 0.0
C1293 C 0.01532 0.28312 0.25995 0.0
C1294 C 0.00315 0.29127 0.26925 0.0
C1295 C -0.00356 0.28493 0.28526 0.0
H1296 H 0.0205 0.28806 0.24756 0.0
H1297 H 0.95537 0.22864 0.4041 0.0
H1298 H 0.73098 0.05534 0.33315 0.0
H1299 H 0.7369 0.02711 0.32943 0.0
H1300 H 0.68592 0.01736 0.32432 0.0
H1301 H 0.67993 0.04535 0.32824 0.0
H1302 H 0.69985 -0.00061 0.35027 0.0
H1303 H 0.71131 0.01481 0.28762 0.0
H1304 H 0.72524 0.03 0.26342 0.0
H1305 H 0.77091 0.01155 0.28139 0.0
H1306 H 0.75726 -0.00359 0.30587 0.0
H1307 H 0.69029 0.92335 0.31928 0.0
H1308 H 0.69288 0.95196 0.31708 0.0
H1309 H 0.74313 0.9488 0.33223 0.0
H1310 H 0.74067 0.91989 0.33452 0.0
H1311 H 0.734 0.97318 0.30328 0.0
H1312 H 0.72204 0.95672 0.36513 0.0
H1313 H 0.70762 0.94116 0.38866 0.0
H1314 H 0.66262 0.96179 0.37178 0.0
H1315 H 0.67674 0.97732 0.348 0.0
C1316 C 0.72107 0.04719 0.33095 0.0
C1317 C 0.70498 0.05253 0.33115 0.0
C1318 C 0.72448 0.03108 0.32879 0.0
C1319 C 0.71184 0.02015 0.32666 0.0
C1320 C 0.69584 0.0256 0.32606 0.0
C1321 C 0.69244 0.0416 0.32828 0.0
C1322 C 0.71495 0.00292 0.32651 0.0
C1323 C 0.70726 -0.00631 0.33992 0.0
C1324 C 0.72509 -0.00446 0.31342 0.0
C1325 C 0.73329 0.00463 0.29872 0.0
C1326 C 0.72434 0.01411 0.28652 0.0
C1327 C 0.73218 0.02268 0.27273 0.0
C1328 C 0.74896 0.02178 0.27091 0.0
C1329 C 0.75792 0.01226 0.28284 0.0
C1330 C 0.75014 0.00368 0.29667 0.0
C1331 C 0.702 0.92866 0.32183 0.0
C1332 C 0.71523 0.9194 0.32734 0.0
C1333 C 0.70345 0.94501 0.32051 0.0
C1334 C 0.71813 0.95243 0.3247 0.0
C1335 C 0.73171 0.94321 0.32894 0.0
C1336 C 0.73026 0.92675 0.33029 0.0
C1337 C 0.71847 0.9698 0.32666 0.0
C1338 C 0.72682 0.97899 0.31374 0.0
C1339 C 0.70895 0.97726 0.34023 0.0
C1340 C 0.70044 0.96809 0.35469 0.0
C1341 C 0.70905 0.95785 0.36635 0.0
C1342 C 0.70094 0.94905 0.37975 0.0
C1343 C 0.68421 0.95046 0.38167 0.0
C1344 C 0.67557 0.96071 0.37026 0.0
C1345 C 0.68363 0.96953 0.35684 0.0
H1346 H 0.67793 0.94361 0.392 0.0
H1347 H 0.755 0.02842 0.26021 0.0
H1348 H 0.05225 0.74974 0.33958 0.0
H1349 H 0.02297 0.74717 0.33635 0.0
H1350 H 0.02813 0.6969 0.3282 0.0
H1351 H 0.05738 0.69941 0.33092 0.0
H1352 H 0.00608 0.70831 0.3055 0.0
H1353 H 0.01751 0.71263 0.37024 0.0
H1354 H 0.02879 0.72504 0.39811 0.0
H1355 H -8e-05 0.76641 0.38864 0.0
H1356 H 0.98862 0.75431 0.36057 0.0
H1357 H 0.92995 0.67879 0.33395 0.0
H1358 H 0.95837 0.68569 0.32985 0.0
H1359 H 0.94649 0.73521 0.33401 0.0
H1360 H 0.91798 0.7284 0.33822 0.0
H1361 H 0.97131 0.72675 0.35666 0.0
H1362 H 0.95758 0.72019 0.29326 0.0
H1363 H 0.9461 0.70653 0.26632 0.0
H1364 H 0.9791 0.66798 0.27418 0.0
H1365 H -0.00936 0.68131 0.30133 0.0
C1366 C 0.04716 0.73815 0.337 0.0
C1367 C 0.05714 0.72476 0.33564 0.0
C1368 C 0.03042 0.7367 0.3352 0.0
C1369 C 0.02335 0.72181 0.3323 0.0
C1370 C 0.03332 0.7085 0.33044 0.0
C1371 C 0.05005 0.70996 0.33207 0.0
C1372 C 0.00556 0.71992 0.33184 0.0
C1373 C -0.00152 0.71225 0.31673 0.0
C1374 C -0.00439 0.72536 0.34633 0.0
C1375 C 0.00237 0.73264 0.3632 0.0
C1376 C 0.01367 0.72442 0.37403 0.0
C1377 C 0.02005 0.73139 0.38987 0.0
C1378 C 0.01512 0.74653 0.39511 0.0
C1379 C 0.00376 0.7547 0.38455 0.0
C1380 C -0.00264 0.74779 0.36868 0.0
C1381 C 0.93335 0.69116 0.33379 0.0
C1382 C 0.92175 0.70306 0.33646 0.0
C1383 C 0.94958 0.69508 0.33135 0.0
C1384 C 0.9545 0.71096 0.33149 0.0
C1385 C 0.94291 0.72289 0.33382 0.0
C1386 C 0.92665 0.71898 0.33618 0.0
C1387 C 0.97187 0.71499 0.33043 0.0
C1388 C 0.97887 0.72302 0.34529 0.0
C1389 C 0.98175 0.70973 0.31582 0.0
C1390 C 0.97489 0.70171 0.29942 0.0
C1391 C 0.96231 0.70875 0.28933 0.0
C1392 C 0.95581 0.70107 0.274 0.0
C1393 C 0.96184 0.68638 0.26856 0.0
C1394 C 0.97443 0.67936 0.27841 0.0
C1395 C 0.98097 0.68698 0.29376 0.0
H1396 H 0.95679 0.68046 0.25669 0.0
H1397 H 0.02006 0.7519 0.40738 0.0
H1398 H 0.30368 0.92653 0.32389 0.0
H1399 H 0.29901 0.95469 0.31921 0.0
H1400 H 0.24772 0.94753 0.32555 0.0
H1401 H 0.25228 0.91911 0.33005 0.0
H1402 H 0.25561 0.97052 0.29852 0.0
H1403 H 0.26708 0.95913 0.36142 0.0
H1404 H 0.28197 0.94715 0.38726 0.0
H1405 H 0.32453 0.97314 0.37222 0.0
H1406 H 0.30996 0.98509 0.34609 0.0
H1407 H 0.24554 0.05309 0.32661 0.0
H1408 H 0.244 0.02426 0.32306 0.0
H1409 H 0.29567 0.02233 0.31591 0.0
H1410 H 0.29733 0.05093 0.31938 0.0
H1411 H 0.28416 0.00366 0.34453 0.0
H1412 H 0.27208 0.01452 0.28074 0.0
H1413 H 0.25653 0.02637 0.25534 0.0
H1414 H 0.21392 0.00178 0.27316 0.0
H1415 H 0.22919 -0.01005 0.29885 0.0
C1416 C 0.29137 0.93087 0.32403 0.0
C1417 C 0.27836 0.92065 0.3276 0.0
C1418 C 0.28872 0.94696 0.32133 0.0
C1419 C 0.27305 0.95319 0.32235 0.0
C1420 C 0.25991 0.94292 0.32477 0.0
C1421 C 0.26254 0.92672 0.3274 0.0
C1422 C 0.27079 0.97053 0.32258 0.0
C1423 C 0.26163 0.9778 0.30871 0.0
C1424 C 0.27867 0.97996 0.3359 0.0
C1425 C 0.28746 0.97291 0.3517 0.0
C1426 C 0.27965 0.9622 0.36354 0.0
C1427 C 0.28803 0.95543 0.37825 0.0
C1428 C 0.30419 0.95936 0.38136 0.0
C1429 C 0.31201 0.9701 0.36979 0.0
C1430 C 0.30369 0.97689 0.35503 0.0
C1431 C 0.25651 0.04654 0.32389 0.0
C1432 C 0.27157 0.05424 0.32348 0.0
C1433 C 0.2556 0.0301 0.32184 0.0
C1434 C 0.26974 0.02121 0.31933 0.0
C1435 C 0.28464 0.029 0.31792 0.0
C1436 C 0.28555 0.04535 0.31991 0.0
C1437 C 0.26945 0.00374 0.3201 0.0
C1438 C 0.27804 -0.00358 0.33435 0.0
C1439 C 0.2609 -0.00563 0.30726 0.0
C1440 C 0.25173 0.0015 0.29185 0.0
C1441 C 0.25936 0.01177 0.27936 0.0
C1442 C 0.2506 0.01845 0.26488 0.0
C1443 C 0.23423 0.01488 0.26267 0.0
C1444 C 0.2266 0.00457 0.27491 0.0
C1445 C 0.2353 -0.00214 0.28942 0.0
H1446 H 0.22748 0.02006 0.25145 0.0
H1447 H 0.31066 0.9541 0.39276 0.0
H1448 H 0.06343 0.73001 0.61996 0.0
H1449 H 0.03443 0.73496 0.62273 0.0
H1450 H 0.02598 0.68501 0.6302 0.0
H1451 H 0.05487 0.67995 0.62696 0.0
H1452 H 0.00579 0.69642 0.60591 0.0
H1453 H 0.02317 0.71201 0.6662 0.0
H1454 H 0.03948 0.72671 0.68884 0.0
H1455 H 0.02147 0.77065 0.66754 0.0
H1456 H 0.00521 0.75621 0.64459 0.0
H1457 H 0.92431 0.69983 0.63319 0.0
H1458 H 0.95357 0.69653 0.6349 0.0
H1459 H 0.96023 0.74562 0.62079 0.0
H1460 H 0.93092 0.7491 0.61906 0.0
H1461 H 0.98115 0.73522 0.64861 0.0
H1462 H 0.96401 0.71936 0.5882 0.0
H1463 H 0.94764 0.70449 0.56574 0.0
H1464 H 0.96536 0.66071 0.58777 0.0
H1465 H 0.98164 0.67532 0.61056 0.0
C1466 C 0.0554 0.72011 0.62235 0.0
C1467 C 0.06141 0.70459 0.6232 0.0
C1468 C 0.03883 0.72296 0.62401 0.0
C1469 C 0.02804 0.71037 0.62683 0.0
C1470 C 0.03408 0.6949 0.62801 0.0
C1471 C 0.0506 0.69204 0.62619 0.0
C1472 C 0.01036 0.71316 0.62764 0.0
C1473 C 0.00041 0.70473 0.61546 0.0
C1474 C 0.00336 0.72432 0.63974 0.0
C1475 C 0.01309 0.73303 0.65356 0.0
C1476 C 0.02278 0.72481 0.66625 0.0
C1477 C 0.032 0.73309 0.67916 0.0
C1478 C 0.03154 0.7496 0.6796 0.0
C1479 C 0.02183 0.75786 0.66717 0.0
C1480 C 0.0126 0.74963 0.65422 0.0
C1481 C 0.93196 0.70999 0.63062 0.0
C1482 C 0.92527 0.72471 0.62583 0.0
C1483 C 0.94868 0.70806 0.63157 0.0
C1484 C 0.95902 0.72078 0.62774 0.0
C1485 C 0.95242 0.73565 0.62374 0.0
C1486 C 0.93568 0.7376 0.6227 0.0
C1487 C 0.9767 0.71834 0.62707 0.0
C1488 C 0.98661 0.72688 0.63916 0.0
C1489 C 0.98369 0.70724 0.61493 0.0
C1490 C 0.97392 0.69843 0.60121 0.0
C1491 C 0.96431 0.70656 0.58836 0.0
C1492 C 0.95506 0.69818 0.57555 0.0
C1493 C 0.95544 0.68167 0.57536 0.0
C1494 C 0.96507 0.6735 0.58796 0.0
C1495 C 0.97431 0.68182 0.60081 0.0
H1496 H 0.9483 0.67519 0.56543 0.0
H1497 H 0.03869 0.756 0.68961 0.0
H1498 H 0.23759 0.92339 0.63616 0.0
H1499 H 0.23255 0.9514 0.64269 0.0
H1500 H 0.28349 0.95857 0.65216 0.0
H1501 H 0.28856 0.93074 0.64593 0.0
H1502 H 0.26548 0.97597 0.6758 0.0
H1503 H 0.26688 0.96474 0.60988 0.0
H1504 H 0.25722 0.95157 0.5817 0.0
H1505 H 0.20985 0.97091 0.59008 0.0
H1506 H 0.21921 0.98405 0.61846 0.0
H1507 H 0.29416 0.04782 0.64241 0.0
H1508 H 0.28638 0.02091 0.65043 0.0
H1509 H 0.23638 0.03221 0.64006 0.0
H1510 H 0.24413 0.05931 0.63189 0.0
H1511 H 0.24591 0.00613 0.6217 0.0
H1512 H 0.24793 0.02348 0.68338 0.0
H1513 H 0.25883 0.03716 0.71061 0.0
H1514 H 0.30047 0.00695 0.71004 0.0
H1515 H 0.28996 -0.00677 0.68263 0.0
C1516 C 0.24765 0.93089 0.63997 0.0
C1517 C 0.2635 0.92493 0.64029 0.0
C1518 C 0.24476 0.94688 0.64367 0.0
C1519 C 0.25768 0.95708 0.6477 0.0
C1520 C 0.27334 0.9509 0.64911 0.0
C1521 C 0.27624 0.935 0.64541 0.0
C1522 C 0.25543 0.97443 0.64857 0.0
C1523 C 0.26113 0.98261 0.66404 0.0
C1524 C 0.24928 0.98304 0.63343 0.0
C1525 C 0.24367 0.97518 0.61639 0.0
C1526 C 0.25437 0.96608 0.60578 0.0
C1527 C 0.24896 0.95864 0.58976 0.0
C1528 C 0.23291 0.96035 0.58414 0.0
C1529 C 0.22226 0.96956 0.59448 0.0
C1530 C 0.22761 0.977 0.61053 0.0
C1531 C 0.28148 0.04467 0.64209 0.0
C1532 C 0.26976 0.05564 0.63642 0.0
C1533 C 0.27703 0.02931 0.64683 0.0
C1534 C 0.26078 0.02461 0.64604 0.0
C1535 C 0.24897 0.03565 0.64088 0.0
C1536 C 0.25342 0.0511 0.63622 0.0
C1537 C 0.25661 0.00773 0.64865 0.0
C1538 C 0.24972 -0.00041 0.63379 0.0
C1539 C 0.26177 -0.0008 0.66431 0.0
C1540 C 0.26816 0.00734 0.68088 0.0
C1541 C 0.25946 0.01981 0.68898 0.0
C1542 C 0.26557 0.02757 0.70446 0.0
C1543 C 0.28034 0.02293 0.71204 0.0
C1544 C 0.28902 0.01051 0.70416 0.0
C1545 C 0.28298 0.00272 0.68867 0.0
H1546 H 0.28504 0.02896 0.72402 0.0
H1547 H 0.22874 0.95459 0.57173 0.0
H1548 H 0.05273 0.23776 0.59805 0.0
H1549 H 0.02352 0.2413 0.60068 0.0
H1550 H 0.0303 0.26628 0.65186 0.0
H1551 H 0.05956 0.26361 0.64862 0.0
H1552 H 0.00064 0.23346 0.62174 0.0
H1553 H 0.00284 0.29461 0.65748 0.0
H1554 H 0.02094 0.31774 0.65979 0.0
H1555 H 0.04149 0.30654 0.60723 0.0
H1556 H 0.02339 0.28347 0.60452 0.0
H1557 H 0.91928 0.25436 0.64117 0.0
H1558 H 0.94818 0.24872 0.64439 0.0
H1559 H 0.95911 0.287 0.60712 0.0
H1560 H 0.93047 0.29318 0.60474 0.0
H1561 H 0.97986 0.28772 0.63202 0.0
H1562 H 0.95865 0.24601 0.59433 0.0
H1563 H 0.94074 0.22371 0.58639 0.0
H1564 H 0.95838 0.19757 0.63284 0.0
H1565 H 0.97626 0.21982 0.64119 0.0
C1566 C 0.04795 0.24391 0.60991 0.0
C1567 C 0.05836 0.2506 0.62301 0.0
C1568 C 0.03125 0.24589 0.61145 0.0
C1569 C 0.02468 0.25435 0.62628 0.0
C1570 C 0.03507 0.26013 0.64 0.0
C1571 C 0.05178 0.25853 0.6382 0.0
C1572 C 0.00707 0.25776 0.62685 0.0
C1573 C -0.0039 0.24532 0.62404 0.0
C1574 C 0.00108 0.27328 0.62952 0.0
C1575 C 0.01189 0.28722 0.63092 0.0
C1576 C 0.01119 0.29712 0.6464 0.0
C1577 C 0.02145 0.31021 0.64778 0.0
C1578 C 0.0324 0.31357 0.6337 0.0
C1579 C 0.03305 0.30389 0.61816 0.0
C1580 C 0.02281 0.2908 0.61671 0.0
C1581 C 0.92791 0.26161 0.63379 0.0
C1582 C 0.92266 0.27419 0.6227 0.0
C1583 C 0.9444 0.25832 0.63554 0.0
C1584 C 0.95587 0.26727 0.62577 0.0
C1585 C 0.95056 0.27995 0.61487 0.0
C1586 C 0.93416 0.28345 0.61347 0.0
C1587 C 0.97339 0.26347 0.6266 0.0
C1588 C 0.98436 0.27583 0.62982 0.0
C1589 C 0.97938 0.24802 0.62347 0.0
C1590 C 0.96864 0.23464 0.6185 0.0
C1591 C 0.95861 0.23555 0.60293 0.0
C1592 C 0.94849 0.22292 0.59834 0.0
C1593 C 0.94838 0.20925 0.60914 0.0
C1594 C 0.95845 0.20818 0.62451 0.0
C1595 C 0.96858 0.22079 0.62917 0.0
H1596 H 0.94054 0.19948 0.60556 0.0
H1597 H 0.04034 0.3237 0.6348 0.0
H1598 H 0.69146 0.04878 0.64794 0.0
H1599 H 0.69588 0.02093 0.65436 0.0
H1600 H 0.74721 0.02729 0.64708 0.0
H1601 H 0.7428 0.05537 0.64024 0.0
H1602 H 0.73655 0.0036 0.62684 0.0
H1603 H 0.73163 0.0171 0.6896 0.0
H1604 H 0.72022 0.03008 0.71698 0.0
H1605 H 0.6758 0.00457 0.70972 0.0
H1606 H 0.68684 -0.00839 0.68213 0.0
H1607 H 0.73593 0.91966 0.63585 0.0
H1608 H 0.7428 0.94691 0.64428 0.0
H1609 H 0.69211 0.95802 0.64892 0.0
H1610 H 0.68518 0.9309 0.64075 0.0
H1611 H 0.70975 0.97237 0.67585 0.0
H1612 H 0.71265 0.96508 0.60929 0.0
H1613 H 0.72329 0.9527 0.58111 0.0
H1614 H 0.77136 0.96715 0.59575 0.0
H1615 H 0.76099 0.97945 0.62415 0.0
C1616 C 0.70374 0.04436 0.64801 0.0
C1617 C 0.71678 0.05425 0.64346 0.0
C1618 C 0.70627 0.02842 0.65186 0.0
C1619 C 0.7219 0.02203 0.65142 0.0
C1620 C 0.73505 0.03201 0.64759 0.0
C1621 C 0.73252 0.04803 0.64371 0.0
C1622 C 0.72402 0.00465 0.65278 0.0
C1623 C 0.73113 -0.00322 0.63787 0.0
C1624 C 0.71678 -0.00427 0.66703 0.0
C1625 C 0.71008 0.0034 0.68373 0.0
C1626 C 0.7194 0.01432 0.69377 0.0
C1627 C 0.71299 0.02167 0.70934 0.0
C1628 C 0.69729 0.01816 0.71508 0.0
C1629 C 0.68797 0.00727 0.70527 0.0
C1630 C 0.69431 -0.00012 0.68968 0.0
C1631 C 0.72627 0.92786 0.63892 0.0
C1632 C 0.71001 0.92319 0.63744 0.0
C1633 C 0.73022 0.94341 0.64372 0.0
C1634 C 0.71796 0.95451 0.64705 0.0
C1635 C 0.70176 0.94964 0.64645 0.0
C1636 C 0.69782 0.93415 0.64165 0.0
C1637 C 0.72168 0.97149 0.64961 0.0
C1638 C 0.71565 0.97924 0.6652 0.0
C1639 C 0.72988 0.98033 0.63599 0.0
C1640 C 0.73609 0.97298 0.61893 0.0
C1641 C 0.7255 0.9655 0.60656 0.0
C1642 C 0.73148 0.95852 0.59054 0.0
C1643 C 0.748 0.95909 0.58667 0.0
C1644 C 0.75857 0.96668 0.59879 0.0
C1645 C 0.75265 0.97366 0.61484 0.0
H1646 H 0.75261 0.95369 0.57426 0.0
H1647 H 0.69235 0.02387 0.72713 0.0
H1648 H 0.55111 0.79501 0.8238 0.0
H1649 H 0.52228 0.78983 0.82001 0.0
H1650 H 0.53003 0.74063 0.83294 0.0
H1651 H 0.55901 0.74564 0.83627 0.0
H1652 H 0.50741 0.74371 0.80668 0.0
H1653 H 0.51781 0.7664 0.86598 0.0
H1654 H 0.52861 0.78613 0.88772 0.0
H1655 H 0.49926 0.82212 0.86287 0.0
H1656 H 0.48846 0.80264 0.84081 0.0
H1657 H 0.4276 0.72645 0.83935 0.0
H1658 H 0.45673 0.7301 0.83554 0.0
H1659 H 0.44893 0.77862 0.81964 0.0
H1660 H 0.41987 0.77516 0.82347 0.0
H1661 H 0.47151 0.77569 0.8466 0.0
H1662 H 0.46009 0.75192 0.78808 0.0
H1663 H 0.44922 0.73155 0.76722 0.0
H1664 H 0.48018 0.69675 0.7918 0.0
H1665 H 0.49109 0.71687 0.81299 0.0
C1666 C 0.54671 0.78304 0.82559 0.0
C1667 C 0.55727 0.77076 0.83055 0.0
C1668 C 0.53023 0.78011 0.82347 0.0
C1669 C 0.52398 0.76491 0.82659 0.0
C1670 C 0.53461 0.75245 0.83056 0.0
C1671 C 0.55114 0.75535 0.8325 0.0
C1672 C 0.50628 0.76227 0.82691 0.0
C1673 C 0.49956 0.75059 0.81552 0.0
C1674 C 0.49604 0.77138 0.83831 0.0
C1675 C 0.50245 0.7831 0.85163 0.0
C1676 C 0.51375 0.77855 0.86507 0.0
C1677 C 0.51986 0.78968 0.87746 0.0
C1678 C 0.51466 0.80538 0.87664 0.0
C1679 C 0.5033 0.80996 0.86347 0.0
C1680 C 0.49717 0.79888 0.85102 0.0
C1681 C 0.43207 0.73786 0.83489 0.0
C1682 C 0.42141 0.75053 0.8318 0.0
C1683 C 0.44871 0.73989 0.83263 0.0
C1684 C 0.45495 0.75461 0.82723 0.0
C1685 C 0.44433 0.76718 0.82382 0.0
C1686 C 0.42772 0.76515 0.826 0.0
C1687 C 0.4726 0.75724 0.82626 0.0
C1688 C 0.47933 0.76888 0.83764 0.0
C1689 C 0.48281 0.74799 0.81499 0.0
C1690 C 0.47629 0.73588 0.80224 0.0
C1691 C 0.46448 0.7399 0.78914 0.0
C1692 C 0.45833 0.7284 0.77724 0.0
C1693 C 0.46397 0.71286 0.77822 0.0
C1694 C 0.47581 0.70879 0.79107 0.0
C1695 C 0.48199 0.72024 0.80302 0.0
H1696 H 0.4592 0.70397 0.76899 0.0
H1697 H 0.5194 0.81398 0.88625 0.0
H1698 H 0.18623 0.42924 0.81554 0.0
H1699 H 0.19008 0.4573 0.80968 0.0
H1700 H 0.24104 0.45257 0.82093 0.0
H1701 H 0.23721 0.42429 0.82706 0.0
H1702 H 0.22799 0.47574 0.84075 0.0
H1703 H 0.22828 0.46247 0.77772 0.0
H1704 H 0.21951 0.44941 0.74913 0.0
H1705 H 0.17395 0.47351 0.75189 0.0
H1706 H 0.18234 0.48654 0.78065 0.0
H1707 H 0.22802 0.55947 0.82999 0.0
H1708 H 0.23507 0.5321 0.82249 0.0
H1709 H 0.18458 0.52095 0.81558 0.0
H1710 H 0.17743 0.54821 0.82304 0.0
H1711 H 0.20419 0.50644 0.78932 0.0
H1712 H 0.20208 0.51404 0.85569 0.0
H1713 H 0.21034 0.52667 0.88477 0.0
H1714 H 0.2595 0.51273 0.87529 0.0
H1715 H 0.25154 0.50018 0.84602 0.0
C1716 C 0.19832 0.43408 0.81647 0.0
C1717 C 0.2114 0.42458 0.82189 0.0
C1718 C 0.20054 0.45012 0.81295 0.0
C1719 C 0.21588 0.45702 0.81469 0.0
C1720 C 0.22911 0.44746 0.81942 0.0
C1721 C 0.22691 0.43132 0.82289 0.0
C1722 C 0.2175 0.47446 0.81366 0.0
C1723 C 0.22324 0.48246 0.82924 0.0
C1724 C 0.21108 0.48323 0.79878 0.0
C1725 C 0.20594 0.47545 0.78142 0.0
C1726 C 0.21635 0.46491 0.77231 0.0
C1727 C 0.21145 0.45752 0.75606 0.0
C1728 C 0.19618 0.46061 0.74871 0.0
C1729 C 0.18578 0.47113 0.7576 0.0
C1730 C 0.19062 0.47855 0.77386 0.0
C1731 C 0.21844 0.55123 0.82662 0.0
C1732 C 0.20216 0.55592 0.82729 0.0
C1733 C 0.2225 0.53562 0.82234 0.0
C1734 C 0.21033 0.52451 0.81862 0.0
C1735 C 0.19414 0.52937 0.81837 0.0
C1736 C 0.19007 0.54492 0.82275 0.0
C1737 C 0.21417 0.50752 0.8166 0.0
C1738 C 0.20942 0.49968 0.8005 0.0
C1739 C 0.22149 0.49886 0.83099 0.0
C1740 C 0.22626 0.50637 0.84858 0.0
C1741 C 0.21467 0.51379 0.85974 0.0
C1742 C 0.21929 0.52091 0.87627 0.0
C1743 C 0.23545 0.52055 0.88184 0.0
C1744 C 0.247 0.51303 0.87093 0.0
C1745 C 0.24244 0.50591 0.85438 0.0
H1746 H 0.239 0.52607 0.89464 0.0
H1747 H 0.1924 0.45488 0.73613 0.0
H1748 H 0.42727 0.18671 0.81899 0.0
H1749 H 0.45629 0.19091 0.81544 0.0
H1750 H 0.451 0.23898 0.83429 0.0
H1751 H 0.42185 0.23499 0.83743 0.0
H1752 H 0.47371 0.23694 0.80762 0.0
H1753 H 0.46133 0.21009 0.86415 0.0
H1754 H 0.44919 0.18918 0.88333 0.0
H1755 H 0.47701 0.15404 0.85492 0.0
H1756 H 0.48914 0.17473 0.83538 0.0
H1757 H 0.55332 0.24853 0.84336 0.0
H1758 H 0.5242 0.24624 0.8384 0.0
H1759 H 0.53049 0.19843 0.81909 0.0
H1760 H 0.55954 0.20051 0.82417 0.0
H1761 H 0.50733 0.20034 0.84476 0.0
H1762 H 0.52107 0.22804 0.78937 0.0
H1763 H 0.53328 0.24942 0.77099 0.0
H1764 H 0.50327 0.28353 0.79818 0.0
H1765 H 0.49103 0.26237 0.81691 0.0
C1766 C 0.43224 0.19826 0.82208 0.0
C1767 C 0.42233 0.21047 0.82872 0.0
C1768 C 0.44882 0.20063 0.82009 0.0
C1769 C 0.45582 0.21515 0.82499 0.0
C1770 C 0.44583 0.22766 0.83052 0.0
C1771 C 0.42919 0.22535 0.83234 0.0
C1772 C 0.47361 0.21684 0.8258 0.0
C1773 C 0.48107 0.22904 0.81584 0.0
C1774 C 0.48321 0.20639 0.83637 0.0
C1775 C 0.47601 0.19394 0.84818 0.0
C1776 C 0.46477 0.19789 0.86191 0.0
C1777 C 0.4579 0.18608 0.87285 0.0
C1778 C 0.4623 0.17028 0.87031 0.0
C1779 C 0.4736 0.16627 0.85685 0.0
C1780 C 0.48048 0.17804 0.84585 0.0
C1781 C 0.54853 0.23757 0.83791 0.0
C1782 C 0.55876 0.22468 0.83424 0.0
C1783 C 0.53189 0.23632 0.83499 0.0
C1784 C 0.52521 0.2222 0.82826 0.0
C1785 C 0.53542 0.20943 0.82429 0.0
C1786 C 0.55203 0.21065 0.8272 0.0
C1787 C 0.5075 0.22036 0.82646 0.0
C1788 C 0.50002 0.20818 0.83637 0.0
C1789 C 0.49794 0.23089 0.81596 0.0
C1790 C 0.50524 0.24363 0.80466 0.0
C1791 C 0.51716 0.24012 0.79153 0.0
C1792 C 0.52407 0.25219 0.78103 0.0
C1793 C 0.51908 0.26783 0.78345 0.0
C1794 C 0.50714 0.27142 0.79634 0.0
C1795 C 0.5002 0.25938 0.80689 0.0
H1796 H 0.52445 0.27717 0.7753 0.0
H1797 H 0.45697 0.16116 0.8788 0.0
H1798 H 0.79953 0.42839 0.83242 0.0
H1799 H 0.79294 0.45633 0.82968 0.0
H1800 H 0.74224 0.44492 0.82641 0.0
H1801 H 0.74875 0.41666 0.82922 0.0
H1802 H 0.75388 0.47055 0.8015 0.0
H1803 H 0.75236 0.45611 0.86483 0.0
H1804 H 0.76201 0.44298 0.89302 0.0
H1805 H 0.80544 0.47074 0.89164 0.0
H1806 H 0.79618 0.48385 0.86324 0.0
H1807 H 0.74248 0.55435 0.8264 0.0
H1808 H 0.73891 0.52551 0.82443 0.0
H1809 H 0.79038 0.51923 0.8299 0.0
H1810 H 0.79407 0.54772 0.8317 0.0
H1811 H 0.77152 0.502 0.85551 0.0
H1812 H 0.77425 0.51363 0.79004 0.0
H1813 H 0.76488 0.52637 0.76148 0.0
H1814 H 0.71857 0.50401 0.7673 0.0
H1815 H 0.72761 0.49131 0.79606 0.0
C1816 C 0.78698 0.43173 0.83088 0.0
C1817 C 0.77464 0.42033 0.83125 0.0
C1818 C 0.78324 0.44772 0.8293 0.0
C1819 C 0.76711 0.45263 0.82806 0.0
C1820 C 0.75476 0.44129 0.82738 0.0
C1821 C 0.7585 0.4252 0.82904 0.0
C1822 C 0.76345 0.4697 0.82902 0.0
C1823 C 0.75735 0.47745 0.81344 0.0
C1824 C 0.76803 0.47861 0.84461 0.0
C1825 C 0.77361 0.47089 0.86183 0.0
C1826 C 0.76402 0.45933 0.87045 0.0
C1827 C 0.76942 0.45191 0.88649 0.0
C1828 C 0.78434 0.45601 0.8941 0.0
C1829 C 0.79389 0.46757 0.88572 0.0
C1830 C 0.78856 0.47502 0.86967 0.0
C1831 C 0.75302 0.5468 0.82694 0.0
C1832 C 0.76854 0.55329 0.82932 0.0
C1833 C 0.75097 0.53037 0.8258 0.0
C1834 C 0.76439 0.52031 0.82714 0.0
C1835 C 0.77988 0.52683 0.82895 0.0
C1836 C 0.78195 0.54313 0.82994 0.0
C1837 C 0.76257 0.50294 0.82774 0.0
C1838 C 0.76763 0.49512 0.84372 0.0
C1839 C 0.75695 0.49405 0.81257 0.0
C1840 C 0.75152 0.50171 0.79533 0.0
C1841 C 0.76201 0.51157 0.78534 0.0
C1842 C 0.75678 0.51875 0.76909 0.0
C1843 C 0.74112 0.51605 0.76261 0.0
C1844 C 0.73068 0.50613 0.77235 0.0
C1845 C 0.73585 0.49894 0.78863 0.0
H1846 H 0.73709 0.52161 0.75002 0.0
H1847 H 0.7885 0.45024 0.90651 0.0
H1848 H 0.4216 0.19816 0.12873 0.0
H1849 H 0.45087 0.19647 0.13176 0.0
H1850 H 0.45495 0.24651 0.12115 0.0
H1851 H 0.42564 0.24825 0.11765 0.0
H1852 H 0.47612 0.2307 0.1014 0.0
H1853 H 0.46082 0.23105 0.16466 0.0
H1854 H 0.44567 0.22261 0.19212 0.0
H1855 H 0.46553 0.17592 0.18738 0.0
H1856 H 0.48063 0.18401 0.15972 0.0
H1857 H 0.56002 0.23176 0.12204 0.0
H1858 H 0.53106 0.23713 0.12475 0.0
H1859 H 0.52163 0.18718 0.13015 0.0
H1860 H 0.55052 0.1817 0.12753 0.0
H1861 H 0.50356 0.20516 0.15428 0.0
H1862 H 0.51672 0.20436 0.08963 0.0
H1863 H 0.53166 0.21264 0.06195 0.0
H1864 H 0.51556 0.26043 0.06958 0.0
H1865 H 0.5007 0.25246 0.09748 0.0
C1866 C 0.42869 0.20884 0.12716 0.0
C1867 C 0.42127 0.22335 0.12294 0.0
C1868 C 0.44543 0.20787 0.12901 0.0
C1869 C 0.45509 0.2214 0.12694 0.0
C1870 C 0.44772 0.23592 0.12285 0.0
C1871 C 0.43096 0.2369 0.12087 0.0
C1872 C 0.47291 0.22021 0.12815 0.0
C1873 C 0.48213 0.22541 0.11314 0.0
C1874 C 0.48074 0.21301 0.1433 0.0
C1875 C 0.47177 0.20812 0.16002 0.0
C1876 C 0.46187 0.21896 0.16939 0.0
C1877 C 0.4533 0.21424 0.18501 0.0
C1878 C 0.45461 0.19873 0.19147 0.0
C1879 C 0.46452 0.18792 0.18235 0.0
C1880 C 0.47311 0.19258 0.16672 0.0
C1881 C 0.55179 0.22193 0.12397 0.0
C1882 C 0.55752 0.2063 0.12444 0.0
C1883 C 0.53527 0.22502 0.12548 0.0
C1884 C 0.52424 0.21253 0.12747 0.0
C1885 C 0.52997 0.19697 0.12861 0.0
C1886 C 0.54647 0.19387 0.12703 0.0
C1887 C 0.50664 0.21555 0.1275 0.0
C1888 C 0.4975 0.21065 0.14269 0.0
C1889 C 0.49887 0.22305 0.11255 0.0
C1890 C 0.50776 0.22785 0.09576 0.0
C1891 C 0.51648 0.21666 0.0855 0.0
C1892 C 0.52492 0.22129 0.06975 0.0
C1893 C 0.5246 0.23706 0.06404 0.0
C1894 C 0.51582 0.24822 0.07404 0.0
C1895 C 0.50738 0.24365 0.08981 0.0
H1896 H 0.53113 0.24062 0.05185 0.0
H1897 H 0.44795 0.1951 0.20355 0.0
H1898 H 0.79926 0.55406 0.1407 0.0
H1899 H 0.79459 0.52591 0.14563 0.0
H1900 H 0.74442 0.53177 0.13109 0.0
H1901 H 0.74894 0.56018 0.12652 0.0
H1902 H 0.74857 0.50967 0.15888 0.0
H1903 H 0.76972 0.51992 0.09894 0.0
H1904 H 0.78847 0.53144 0.07627 0.0
H1905 H 0.82794 0.50605 0.10065 0.0
H1906 H 0.80946 0.49455 0.12365 0.0
H1907 H 0.7413 0.42726 0.13057 0.0
H1908 H 0.74 0.4561 0.13401 0.0
H1909 H 0.79037 0.45697 0.14922 0.0
H1910 H 0.7918 0.42837 0.14571 0.0
H1911 H 0.78362 0.4759 0.12 0.0
H1912 H 0.76159 0.46557 0.18024 0.0
H1913 H 0.74217 0.45408 0.20219 0.0
H1914 H 0.70339 0.47913 0.17596 0.0
H1915 H 0.72255 0.4906 0.15368 0.0
C1916 C 0.78718 0.54943 0.1388 0.0
C1917 C 0.77452 0.55926 0.13296 0.0
C1918 C 0.78452 0.53334 0.14163 0.0
C1919 C 0.76923 0.52673 0.13836 0.0
C1920 C 0.75631 0.53666 0.13361 0.0
C1921 C 0.75893 0.55285 0.13095 0.0
C1922 C 0.76727 0.50933 0.13832 0.0
C1923 C 0.75607 0.50225 0.15024 0.0
C1924 C 0.77708 0.4997 0.12704 0.0
C1925 C 0.78822 0.50648 0.11311 0.0
C1926 C 0.78242 0.51688 0.09955 0.0
C1927 C 0.79299 0.52339 0.08663 0.0
C1928 C 0.80939 0.5195 0.08705 0.0
C1929 C 0.81524 0.50906 0.10036 0.0
C1930 C 0.80471 0.50253 0.11333 0.0
C1931 C 0.75199 0.43359 0.13502 0.0
C1932 C 0.76671 0.4256 0.13764 0.0
C1933 C 0.75122 0.45004 0.13702 0.0
C1934 C 0.76512 0.45865 0.14178 0.0
C1935 C 0.77953 0.45055 0.14544 0.0
C1936 C 0.78033 0.4342 0.14341 0.0
C1937 C 0.76531 0.47613 0.14101 0.0
C1938 C 0.7761 0.48327 0.12869 0.0
C1939 C 0.755 0.4857 0.15178 0.0
C1940 C 0.74348 0.4788 0.16516 0.0
C1941 C 0.7489 0.46851 0.17904 0.0
C1942 C 0.73794 0.46203 0.19156 0.0
C1943 C 0.72155 0.46583 0.19043 0.0
C1944 C 0.71609 0.47617 0.1768 0.0
C1945 C 0.72699 0.48267 0.16423 0.0
H1946 H 0.71309 0.46081 0.20015 0.0
H1947 H 0.81756 0.52456 0.07703 0.0
H1948 H 0.4156 0.7536 0.12279 0.0
H1949 H 0.44449 0.74839 0.12633 0.0
H1950 H 0.45412 0.79854 0.1256 0.0
H1951 H 0.42533 0.80382 0.12171 0.0
H1952 H 0.47371 0.78357 0.10291 0.0
H1953 H 0.45698 0.77688 0.16531 0.0
H1954 H 0.4407 0.76614 0.19078 0.0
H1955 H 0.457 0.71924 0.17803 0.0
H1956 H 0.47321 0.72967 0.15229 0.0
H1957 H 0.55534 0.7813 0.13008 0.0
H1958 H 0.52622 0.78553 0.13153 0.0
H1959 H 0.5181 0.73551 0.12474 0.0
H1960 H 0.54731 0.73109 0.12322 0.0
H1961 H 0.49793 0.75003 0.15163 0.0
H1962 H 0.51449 0.7574 0.08874 0.0
H1963 H 0.53113 0.76879 0.06395 0.0
H1964 H 0.51523 0.81541 0.07859 0.0
H1965 H 0.49867 0.80431 0.10366 0.0
C1966 C 0.42386 0.76351 0.12355 0.0
C1967 C 0.4182 0.77912 0.12191 0.0
C1968 C 0.44036 0.76052 0.12565 0.0
C1969 C 0.45145 0.77308 0.12634 0.0
C1970 C 0.44577 0.78867 0.12506 0.0
C1971 C 0.42931 0.79167 0.12289 0.0
C1972 C 0.46904 0.77 0.12742 0.0
C1973 C 0.47901 0.77643 0.11373 0.0
C1974 C 0.47591 0.76037 0.14129 0.0
C1975 C 0.46618 0.75405 0.15675 0.0
C1976 C 0.45698 0.76426 0.16783 0.0
C1977 C 0.44779 0.75823 0.18234 0.0
C1978 C 0.44778 0.74201 0.18599 0.0
C1979 C 0.457 0.7318 0.17517 0.0
C1980 C 0.4662 0.73776 0.16063 0.0
C1981 C 0.5474 0.77115 0.12906 0.0
C1982 C 0.55365 0.75586 0.12638 0.0
C1983 C 0.53077 0.77361 0.12987 0.0
C1984 C 0.52007 0.76085 0.12805 0.0
C1985 C 0.52621 0.74549 0.12614 0.0
C1986 C 0.54288 0.74302 0.1252 0.0
C1987 C 0.50248 0.76369 0.12721 0.0
C1988 C 0.49255 0.75719 0.14087 0.0
C1989 C 0.49563 0.77334 0.11339 0.0
C1990 C 0.50546 0.78003 0.0982 0.0
C1991 C 0.51464 0.77009 0.08677 0.0
C1992 C 0.52404 0.77649 0.07265 0.0
C1993 C 0.52427 0.79282 0.06973 0.0
C1994 C 0.51506 0.80277 0.08089 0.0
C1995 C 0.50565 0.79643 0.09505 0.0
H1996 H 0.53156 0.79775 0.0588 0.0
H1997 H 0.44066 0.73737 0.19723 0.0
H1998 H 0.23551 0.42072 0.1326 0.0
H1999 H 0.24138 0.44889 0.13726 0.0
H2000 H 0.1903 0.45881 0.13888 0.0
H2001 H 0.18435 0.4309 0.1342 0.0
H2002 H 0.20645 0.47692 0.11379 0.0
H2003 H 0.21239 0.46065 0.17718 0.0
H2004 H 0.22416 0.44514 0.20255 0.0
H2005 H 0.27114 0.46391 0.19025 0.0
H2006 H 0.25966 0.47937 0.16461 0.0
H2007 H 0.19234 0.55118 0.14719 0.0
H2008 H 0.19633 0.52276 0.14975 0.0
H2009 H 0.2465 0.52828 0.13529 0.0
H2010 H 0.24261 0.557 0.13254 0.0
H2011 H 0.23601 0.50256 0.16516 0.0
H2012 H 0.22943 0.51972 0.10218 0.0
H2013 H 0.21685 0.53578 0.07778 0.0
H2014 H 0.17067 0.51508 0.0898 0.0
H2015 H 0.18295 0.4991 0.11451 0.0
C2016 C 0.22555 0.42889 0.13421 0.0
C2017 C 0.20946 0.42362 0.13287 0.0
C2018 C 0.22893 0.44495 0.13691 0.0
C2019 C 0.21627 0.4559 0.13834 0.0
C2020 C 0.20024 0.45054 0.13771 0.0
C2021 C 0.19687 0.43457 0.13506 0.0
C2022 C 0.21944 0.4731 0.13908 0.0
C2023 C 0.21292 0.48249 0.12504 0.0
C2024 C 0.22831 0.48031 0.15346 0.0
C2025 C 0.2352 0.471 0.16883 0.0
C2026 C 0.22526 0.46134 0.17976 0.0
C2027 C 0.23187 0.45259 0.19422 0.0
C2028 C 0.2484 0.45349 0.19797 0.0
C2029 C 0.25834 0.46319 0.1873 0.0
C2030 C 0.25179 0.47196 0.17281 0.0
C2031 C 0.20433 0.54646 0.14494 0.0
C2032 C 0.21711 0.55629 0.13936 0.0
C2033 C 0.20659 0.53021 0.14651 0.0
C2034 C 0.22165 0.5235 0.14258 0.0
C2035 C 0.2348 0.53333 0.13844 0.0
C2036 C 0.23254 0.54969 0.13681 0.0
C2037 C 0.22266 0.50622 0.14012 0.0
C2038 C 0.2299 0.49687 0.15375 0.0
C2039 C 0.21448 0.49893 0.12533 0.0
C2040 C 0.20709 0.50832 0.11029 0.0
C2041 C 0.21657 0.5187 0.09972 0.0
C2042 C 0.2095 0.52777 0.08582 0.0
C2043 C 0.19296 0.52648 0.08227 0.0
C2044 C 0.18347 0.51608 0.09258 0.0
C2045 C 0.19049 0.507 0.10652 0.0
H2046 H 0.1875 0.53351 0.0715 0.0
H2047 H 0.2535 0.44672 0.20918 0.0
H2048 H 0.08054 0.27516 0.41112 0.0
H2049 H 0.08121 0.27762 0.44451 0.0
H2050 H 0.12413 0.30652 0.44054 0.0
H2051 H 0.1228 0.30486 0.40695 0.0
H2052 H 0.10176 0.26588 0.46509 0.0
H2053 H 0.13065 0.32738 0.47978 0.0
H2054 H 0.12992 0.3545 0.46732 0.0
H2055 H 0.08285 0.34582 0.44459 0.0
H2056 H 0.08321 0.31873 0.45712 0.0
H2057 H 0.13455 0.26069 0.55133 0.0
H2058 H 0.1328 0.26864 0.51914 0.0
H2059 H 0.09501 0.30175 0.53267 0.0
H2060 H 0.0973 0.29432 0.56519 0.0
H2061 H 0.11261 0.3127 0.50427 0.0
H2062 H 0.08528 0.26464 0.51925 0.0
H2063 H 0.08245 0.23793 0.53246 0.0
H2064 H 0.11936 0.22067 0.49624 0.0
H2065 H 0.12257 0.24736 0.483 0.0
C2066 C 0.08989 0.28233 0.4174 0.0
C2067 C 0.10165 0.28977 0.40657 0.0
C2068 C 0.0903 0.28371 0.43647 0.0
C2069 C 0.10275 0.29222 0.44515 0.0
C2070 C 0.11422 0.30014 0.43425 0.0
C2071 C 0.11352 0.29912 0.41506 0.0
C2072 C 0.10461 0.29124 0.46545 0.0
C2073 C 0.10403 0.2762 0.47358 0.0
C2074 C 0.10743 0.30465 0.47671 0.0
C2075 C 0.10704 0.32097 0.46925 0.0
C2076 C 0.12012 0.33128 0.47219 0.0
C2077 C 0.11977 0.34664 0.4651 0.0
C2078 C 0.10637 0.35186 0.45512 0.0
C2079 C 0.09326 0.34174 0.45226 0.0
C2080 C 0.09354 0.32637 0.45933 0.0
C2081 C 0.12614 0.26994 0.54749 0.0
C2082 C 0.11589 0.27675 0.56062 0.0
C2083 C 0.12513 0.27445 0.52911 0.0
C2084 C 0.11345 0.28545 0.52344 0.0
C2085 C 0.10403 0.29316 0.53674 0.0
C2086 C 0.10532 0.2889 0.55528 0.0
C2087 C 0.10989 0.28739 0.50359 0.0
C2088 C 0.11023 0.30251 0.49563 0.0
C2089 C 0.10626 0.27413 0.49246 0.0
C2090 C 0.10425 0.25802 0.50024 0.0
C2091 C 0.09285 0.25517 0.51418 0.0
C2092 C 0.09118 0.24003 0.52167 0.0
C2093 C 0.10074 0.22762 0.51522 0.0
C2094 C 0.11197 0.23031 0.50123 0.0
C2095 C 0.11371 0.24543 0.49372 0.0
H2096 H 0.09943 0.21591 0.52104 0.0
H2097 H 0.10613 0.36376 0.44964 0.0
H2098 H 0.6726 0.10194 0.56426 0.0
H2099 H 0.66873 0.10239 0.53091 0.0
H2100 H 0.71928 0.09204 0.52313 0.0
H2101 H 0.72329 0.09175 0.55637 0.0
H2102 H 0.7096 0.1164 0.50201 0.0
H2103 H 0.69032 0.06389 0.51637 0.0
H2104 H 0.67314 0.04441 0.5323 0.0
H2105 H 0.63068 0.06646 0.51011 0.0
H2106 H 0.64762 0.08621 0.49423 0.0
H2107 H 0.71535 0.09438 0.40998 0.0
H2108 H 0.71472 0.09409 0.44343 0.0
H2109 H 0.66373 0.10456 0.4425 0.0
H2110 H 0.66419 0.1046 0.40877 0.0
H2111 H 0.67107 0.08214 0.46813 0.0
H2112 H 0.69025 0.13353 0.4521 0.0
H2113 H 0.70731 0.153 0.43598 0.0
H2114 H 0.74964 0.1335 0.46146 0.0
H2115 H 0.73286 0.11375 0.47753 0.0
C2116 C 0.68286 0.09964 0.55543 0.0
C2117 C 0.69826 0.09684 0.56293 0.0
C2118 C 0.68062 0.09986 0.53639 0.0
C2119 C 0.69371 0.09718 0.52456 0.0
C2120 C 0.70903 0.09417 0.53203 0.0
C2121 C 0.71129 0.09397 0.55103 0.0
C2122 C 0.69168 0.09804 0.50436 0.0
C2123 C 0.70129 0.1088 0.49458 0.0
C2124 C 0.68041 0.08852 0.49478 0.0
C2125 C 0.67023 0.07663 0.50428 0.0
C2126 C 0.67732 0.06467 0.51501 0.0
C2127 C 0.66762 0.05356 0.52401 0.0
C2128 C 0.65083 0.05423 0.52227 0.0
C2129 C 0.64369 0.06598 0.51147 0.0
C2130 C 0.65333 0.07712 0.50246 0.0
C2131 C 0.70397 0.0966 0.41685 0.0
C2132 C 0.68983 0.09965 0.40675 0.0
C2133 C 0.70365 0.09648 0.43598 0.0
C2134 C 0.68924 0.09959 0.44544 0.0
C2135 C 0.67498 0.10222 0.43543 0.0
C2136 C 0.67528 0.10227 0.4162 0.0
C2137 C 0.6893 0.10022 0.46578 0.0
C2138 C 0.67928 0.08982 0.47558 0.0
C2139 C 0.70016 0.11012 0.47544 0.0
C2140 C 0.7103 0.12208 0.46592 0.0
C2141 C 0.70321 0.13332 0.45417 0.0
C2142 C 0.71283 0.14442 0.44506 0.0
C2143 C 0.72955 0.14447 0.44767 0.0
C2144 C 0.73669 0.13344 0.45945 0.0
C2145 C 0.72712 0.1223 0.46858 0.0
H2146 H 0.73698 0.15307 0.44059 0.0
H2147 H 0.64334 0.04562 0.52924 0.0
H2148 H 0.86247 0.65936 0.40905 0.0
H2149 H 0.86356 0.65656 0.44267 0.0
H2150 H 0.88359 0.70352 0.44705 0.0
H2151 H 0.8825 0.70641 0.4138 0.0
H2152 H 0.89933 0.68179 0.46927 0.0
H2153 H 0.84423 0.69778 0.45345 0.0
H2154 H 0.81789 0.69405 0.43817 0.0
H2155 H 0.81146 0.6499 0.4664 0.0
H2156 H 0.83789 0.65329 0.48167 0.0
H2157 H 0.88007 0.72352 0.54781 0.0
H2158 H 0.8811 0.71257 0.51688 0.0
H2159 H 0.86445 0.66756 0.5373 0.0
H2160 H 0.86355 0.67842 0.56861 0.0
H2161 H 0.84803 0.67957 0.50443 0.0
H2162 H 0.90052 0.66722 0.52573 0.0
H2163 H 0.92636 0.67188 0.54164 0.0
H2164 H 0.93779 0.70905 0.50361 0.0
H2165 H 0.91188 0.70477 0.48761 0.0
C2166 C 0.8672 0.66902 0.41723 0.0
C2167 C 0.87232 0.68314 0.40883 0.0
C2168 C 0.8678 0.6674 0.43637 0.0
C2169 C 0.87365 0.67984 0.44729 0.0
C2170 C 0.87911 0.69375 0.43885 0.0
C2171 C 0.87838 0.69542 0.41985 0.0
C2172 C 0.87351 0.679 0.46759 0.0
C2173 C 0.88814 0.68119 0.47699 0.0
C2174 C 0.85896 0.67769 0.47765 0.0
C2175 C 0.84311 0.67567 0.46849 0.0
C2176 C 0.83726 0.68721 0.45626 0.0
C2177 C 0.82231 0.68517 0.44763 0.0
C2178 C 0.81304 0.67171 0.45125 0.0
C2179 C 0.81868 0.66029 0.46356 0.0
C2180 C 0.83363 0.66227 0.47221 0.0
C2181 C 0.8766 0.71129 0.54579 0.0
C2182 C 0.87174 0.70183 0.56066 0.0
C2183 C 0.87727 0.70504 0.52812 0.0
C2184 C 0.87299 0.68924 0.5249 0.0
C2185 C 0.86786 0.67976 0.53959 0.0
C2186 C 0.8674 0.68597 0.55742 0.0
C2187 C 0.87377 0.68303 0.50596 0.0
C2188 C 0.85929 0.67956 0.49681 0.0
C2189 C 0.88847 0.68314 0.49611 0.0
C2190 C 0.9042 0.68571 0.50551 0.0
C2191 C 0.90849 0.67646 0.52082 0.0
C2192 C 0.92317 0.67903 0.52985 0.0
C2193 C 0.93371 0.69077 0.52366 0.0
C2194 C 0.92961 0.69995 0.50839 0.0
C2195 C 0.91494 0.69744 0.4993 0.0
H2196 H 0.94507 0.69275 0.53068 0.0
H2197 H 0.80146 0.67016 0.44456 0.0
H2198 H 0.25886 0.8861 0.554 0.0
H2199 H 0.26312 0.88486 0.52086 0.0
H2200 H 0.31334 0.87353 0.52962 0.0
H2201 H 0.30922 0.87493 0.56293 0.0
H2202 H 0.30906 0.89488 0.50136 0.0
H2203 H 0.2879 0.84454 0.51924 0.0
H2204 H 0.26896 0.82631 0.53456 0.0
H2205 H 0.22999 0.8441 0.50153 0.0
H2206 H 0.24866 0.86262 0.48619 0.0
H2207 H 0.31747 0.86962 0.40713 0.0
H2208 H 0.31815 0.87062 0.44083 0.0
H2209 H 0.26713 0.88098 0.44167 0.0
H2210 H 0.26632 0.87984 0.40826 0.0
H2211 H 0.27457 0.85802 0.46557 0.0
H2212 H 0.29526 0.90965 0.44941 0.0
H2213 H 0.31403 0.92817 0.43425 0.0
H2214 H 0.35382 0.90791 0.46393 0.0
H2215 H 0.33529 0.88912 0.47908 0.0
C2216 C 0.27084 0.88343 0.54891 0.0
C2217 C 0.28367 0.88048 0.56107 0.0
C2218 C 0.27324 0.88269 0.52997 0.0
C2219 C 0.28848 0.87885 0.52282 0.0
C2220 C 0.30147 0.87644 0.53489 0.0
C2221 C 0.29908 0.87721 0.55389 0.0
C2222 C 0.29061 0.87693 0.50275 0.0
C2223 C 0.30172 0.88664 0.49353 0.0
C2224 C 0.28092 0.86629 0.49258 0.0
C2225 C 0.26967 0.85505 0.50166 0.0
C2226 C 0.27527 0.84465 0.51533 0.0
C2227 C 0.26459 0.83425 0.524 0.0
C2228 C 0.24828 0.83407 0.51905 0.0
C2229 C 0.24263 0.84426 0.50537 0.0
C2230 C 0.25326 0.8547 0.49666 0.0
C2231 C 0.30644 0.87217 0.41453 0.0
C2232 C 0.29184 0.87462 0.40506 0.0
C2233 C 0.30685 0.87278 0.43375 0.0
C2234 C 0.29269 0.87592 0.44373 0.0
C2235 C 0.27817 0.87847 0.43425 0.0
C2236 C 0.27775 0.87785 0.41513 0.0
C2237 C 0.2927 0.87626 0.46408 0.0
C2238 C 0.28203 0.86617 0.47338 0.0
C2239 C 0.30279 0.88655 0.47427 0.0
C2240 C 0.31392 0.89786 0.46521 0.0
C2241 C 0.30803 0.90905 0.45258 0.0
C2242 C 0.31862 0.91962 0.44402 0.0
C2243 C 0.33511 0.91918 0.44808 0.0
C2244 C 0.34104 0.90821 0.46077 0.0
C2245 C 0.3305 0.89761 0.46936 0.0
H2246 H 0.34329 0.92737 0.44144 0.0
H2247 H 0.24002 0.82601 0.52579 0.0
H2248 H 0.11823 0.72817 0.41244 0.0
H2249 H 0.1213 0.71928 0.444 0.0
H2250 H 0.11597 0.67081 0.42661 0.0
H2251 H 0.11274 0.67965 0.39468 0.0
H2252 H 0.09788 0.67771 0.45752 0.0
H2253 H 0.15241 0.68277 0.43905 0.0
H2254 H 0.17615 0.69513 0.42448 0.0
H2255 H 0.17309 0.73421 0.46194 0.0
H2256 H 0.14918 0.72222 0.47656 0.0
H2257 H 0.11665 0.66346 0.55385 0.0
H2258 H 0.11862 0.66137 0.52022 0.0
H2259 H 0.12089 0.7122 0.51615 0.0
H2260 H 0.11884 0.71439 0.54942 0.0
H2261 H 0.14412 0.69682 0.49488 0.0
H2262 H 0.0863 0.69377 0.50825 0.0
H2263 H 0.06231 0.68155 0.52247 0.0
H2264 H 0.07218 0.63801 0.49432 0.0
H2265 H 0.09638 0.64994 0.48011 0.0
C2266 C 0.11772 0.7156 0.41522 0.0
C2267 C 0.11528 0.70462 0.40098 0.0
C2268 C 0.11957 0.71053 0.4333 0.0
C2269 C 0.11912 0.69437 0.4376 0.0
C2270 C 0.11646 0.68333 0.42353 0.0
C2271 C 0.11465 0.68841 0.40532 0.0
C2272 C 0.12104 0.68936 0.45698 0.0
C2273 C 0.10819 0.6815 0.46562 0.0
C2274 C 0.13448 0.69434 0.46753 0.0
C2275 C 0.14894 0.7016 0.45886 0.0
C2276 C 0.15673 0.69405 0.44411 0.0
C2277 C 0.17023 0.70099 0.43585 0.0
C2278 C 0.17611 0.71545 0.44227 0.0
C2279 C 0.16853 0.723 0.45699 0.0
C2280 C 0.15501 0.71612 0.46529 0.0
C2281 C 0.11761 0.67415 0.54574 0.0
C2282 C 0.11755 0.68909 0.55425 0.0
C2283 C 0.11872 0.67294 0.52658 0.0
C2284 C 0.11991 0.68664 0.51576 0.0
C2285 C 0.12006 0.70149 0.52428 0.0
C2286 C 0.1188 0.70272 0.5433 0.0
C2287 C 0.12066 0.68586 0.49547 0.0
C2288 C 0.13405 0.69261 0.48667 0.0
C2289 C 0.10777 0.6798 0.48481 0.0
C2290 C 0.09325 0.67266 0.49333 0.0
C2291 C 0.08344 0.68154 0.50523 0.0
C2292 C 0.06979 0.67468 0.51326 0.0
C2293 C 0.06576 0.65899 0.50935 0.0
C2294 C 0.07534 0.65015 0.49737 0.0
C2295 C 0.08902 0.65695 0.48933 0.0
H2296 H 0.05518 0.6537 0.51557 0.0
H2297 H 0.18656 0.72081 0.43585 0.0
H2298 H 0.31217 0.10652 0.39918 0.0
H2299 H 0.3163 0.1067 0.43256 0.0
H2300 H 0.26654 0.09319 0.44058 0.0
H2301 H 0.26229 0.09307 0.40743 0.0
H2302 H 0.27517 0.11822 0.46185 0.0
H2303 H 0.29663 0.0667 0.44612 0.0
H2304 H 0.31482 0.04841 0.42979 0.0
H2305 H 0.35603 0.07181 0.45321 0.0
H2306 H 0.33807 0.09037 0.46951 0.0
H2307 H 0.26702 0.09184 0.55144 0.0
H2308 H 0.26938 0.09258 0.51812 0.0
H2309 H 0.31942 0.10627 0.52288 0.0
H2310 H 0.31721 0.10536 0.55653 0.0
H2311 H 0.31421 0.08417 0.49521 0.0
H2312 H 0.29268 0.13401 0.51342 0.0
H2313 H 0.27447 0.15204 0.53008 0.0
H2314 H 0.2336 0.13223 0.50191 0.0
H2315 H 0.25154 0.1139 0.48527 0.0
C2316 C 0.30215 0.10349 0.40808 0.0
C2317 C 0.28689 0.09983 0.4007 0.0
C2318 C 0.30454 0.10356 0.42711 0.0
C2319 C 0.29172 0.09993 0.439 0.0
C2320 C 0.27656 0.09608 0.43163 0.0
C2321 C 0.27418 0.09598 0.41267 0.0
C2322 C 0.29376 0.10058 0.45918 0.0
C2323 C 0.28363 0.11071 0.46916 0.0
C2324 C 0.30523 0.0912 0.46862 0.0
C2325 C 0.31602 0.08004 0.45885 0.0
C2326 C 0.30957 0.06803 0.44766 0.0
C2327 C 0.31984 0.0576 0.43844 0.0
C2328 C 0.33658 0.05898 0.44042 0.0
C2329 C 0.34307 0.07077 0.45166 0.0
C2330 C 0.33285 0.08124 0.4609 0.0
C2331 C 0.27857 0.09493 0.54546 0.0
C2332 C 0.29189 0.0987 0.5566 0.0
C2333 C 0.27989 0.09538 0.5264 0.0
C2334 C 0.29449 0.09977 0.51807 0.0
C2335 C 0.30802 0.10295 0.52909 0.0
C2336 C 0.30673 0.10245 0.54827 0.0
C2337 C 0.29523 0.10143 0.49785 0.0
C2338 C 0.30591 0.09184 0.48789 0.0
C2339 C 0.28429 0.11135 0.48836 0.0
C2340 C 0.27346 0.1225 0.49818 0.0
C2341 C 0.2798 0.13342 0.51086 0.0
C2342 C 0.26953 0.14371 0.52029 0.0
C2343 C 0.25289 0.14327 0.51708 0.0
C2344 C 0.24649 0.13256 0.50439 0.0
C2345 C 0.25671 0.12223 0.49493 0.0
H2346 H 0.24496 0.15123 0.52441 0.0
H2347 H 0.34451 0.05089 0.43327 0.0
H2348 H 0.86393 0.29446 0.39354 0.0
H2349 H 0.86264 0.30253 0.42585 0.0
H2350 H 0.86267 0.25355 0.4424 0.0
H2351 H 0.86373 0.2454 0.41038 0.0
H2352 H 0.84025 0.27001 0.46076 0.0
H2353 H 0.89684 0.27649 0.44449 0.0
H2354 H 0.91938 0.2877 0.42654 0.0
H2355 H 0.90538 0.33455 0.44267 0.0
H2356 H 0.88263 0.32361 0.46053 0.0
H2357 H 0.86957 0.26183 0.54939 0.0
H2358 H 0.86669 0.26266 0.51613 0.0
H2359 H 0.86285 0.31348 0.5179 0.0
H2360 H 0.86575 0.31279 0.55153 0.0
H2361 H 0.88368 0.30185 0.48985 0.0
H2362 H 0.82972 0.2943 0.51065 0.0
H2363 H 0.80803 0.28239 0.52929 0.0
H2364 H 0.81738 0.23709 0.50495 0.0
H2365 H 0.83929 0.24866 0.48636 0.0
C2366 C 0.86365 0.28542 0.40407 0.0
C2367 C 0.86395 0.26928 0.39935 0.0
C2368 C 0.86295 0.29006 0.42251 0.0
C2369 C 0.86262 0.27864 0.43651 0.0
C2370 C 0.86284 0.26256 0.43181 0.0
C2371 C 0.86351 0.25793 0.41346 0.0
C2372 C 0.86217 0.28316 0.45617 0.0
C2373 C 0.84975 0.27696 0.46712 0.0
C2374 C 0.87426 0.2927 0.46435 0.0
C2375 C 0.88793 0.29926 0.45364 0.0
C2376 C 0.89849 0.28919 0.44407 0.0
C2377 C 0.91132 0.29549 0.43394 0.0
C2378 C 0.91377 0.31183 0.43341 0.0
C2379 C 0.90344 0.3219 0.44305 0.0
C2380 C 0.89059 0.31566 0.45319 0.0
C2381 C 0.86814 0.27322 0.54278 0.0
C2382 C 0.86779 0.28725 0.5531 0.0
C2383 C 0.86644 0.27366 0.52375 0.0
C2384 C 0.86434 0.28811 0.51462 0.0
C2385 C 0.86438 0.30221 0.52476 0.0
C2386 C 0.866 0.30179 0.54392 0.0
C2387 C 0.86212 0.28815 0.49446 0.0
C2388 C 0.87397 0.29522 0.48342 0.0
C2389 C 0.84953 0.27936 0.48616 0.0
C2390 C 0.83621 0.27235 0.49716 0.0
C2391 C 0.82722 0.28178 0.50934 0.0
C2392 C 0.81488 0.27509 0.5199 0.0
C2393 C 0.81134 0.25899 0.51832 0.0
C2394 C 0.82012 0.24956 0.50615 0.0
C2395 C 0.83249 0.25618 0.49558 0.0
H2396 H 0.80179 0.25383 0.52651 0.0
H2397 H 0.92371 0.31669 0.42556 0.0
H2398 H 0.66404 0.8744 0.55688 0.0
H2399 H 0.66125 0.87501 0.52332 0.0
H2400 H 0.71125 0.88875 0.5183 0.0
H2401 H 0.71409 0.88831 0.55163 0.0
H2402 H 0.69226 0.90538 0.49494 0.0
H2403 H 0.69985 0.85062 0.51272 0.0
H2404 H 0.69299 0.82612 0.52937 0.0
H2405 H 0.64641 0.82521 0.50336 0.0
H2406 H 0.65294 0.84984 0.48673 0.0
H2407 H 0.72 0.88076 0.40879 0.0
H2408 H 0.71449 0.88398 0.44149 0.0
H2409 H 0.66467 0.87112 0.43254 0.0
H2410 H 0.67011 0.86781 0.39961 0.0
H2411 H 0.67846 0.85564 0.46232 0.0
H2412 H 0.67276 0.90853 0.44104 0.0
H2413 H 0.68039 0.93246 0.42378 0.0
H2414 H 0.72372 0.93672 0.45587 0.0
H2415 H 0.71644 0.91269 0.47322 0.0
C2416 C 0.67439 0.87768 0.5486 0.0
C2417 C 0.68932 0.88121 0.55688 0.0
C2418 C 0.67278 0.87798 0.52945 0.0
C2419 C 0.68609 0.8818 0.51833 0.0
C2420 C 0.70083 0.88579 0.52662 0.0
C2421 C 0.70245 0.88546 0.54569 0.0
C2422 C 0.68504 0.88104 0.49801 0.0
C2423 C 0.68927 0.8945 0.4878 0.0
C2424 C 0.68071 0.86697 0.4887 0.0
C2425 C 0.6768 0.85217 0.49867 0.0
C2426 C 0.6881 0.84526 0.51068 0.0
C2427 C 0.68428 0.83134 0.52008 0.0
C2428 C 0.66925 0.82414 0.51747 0.0
C2429 C 0.65803 0.83082 0.5054 0.0
C2430 C 0.66178 0.84476 0.49598 0.0
C2431 C 0.70785 0.87864 0.41373 0.0
C2432 C 0.69548 0.87405 0.40163 0.0
C2433 C 0.70471 0.88057 0.43241 0.0
C2434 C 0.68913 0.87797 0.43937 0.0
C2435 C 0.67675 0.87324 0.42739 0.0
C2436 C 0.67987 0.8714 0.40861 0.0
C2437 C 0.68607 0.87985 0.4593 0.0
C2438 C 0.6811 0.86661 0.46943 0.0
C2439 C 0.68974 0.89412 0.46854 0.0
C2440 C 0.69409 0.90874 0.45836 0.0
C2441 C 0.68396 0.91451 0.44435 0.0
C2442 C 0.68823 0.9281 0.43455 0.0
C2443 C 0.70256 0.93608 0.43868 0.0
C2444 C 0.71263 0.93052 0.45268 0.0
C2445 C 0.70842 0.91693 0.46253 0.0
H2446 H 0.70585 0.94659 0.43104 0.0
H2447 H 0.66632 0.81336 0.52476 0.0
H2448 H 0.60875 0.7972 0.06548 0.0
H2449 H 0.60966 0.80501 0.03303 0.0
H2450 H 0.61131 0.7559 0.01716 0.0
H2451 H 0.61058 0.74803 0.04927 0.0
H2452 H 0.63308 0.77303 -0.00154 0.0
H2453 H 0.57646 0.77706 0.01495 0.0
H2454 H 0.55353 0.78728 0.03298 0.0
H2455 H 0.56497 0.83462 0.01603 0.0
H2456 H 0.58813 0.82467 -0.00191 0.0
H2457 H 0.60308 0.76204 0.91068 0.0
H2458 H 0.60486 0.76389 0.94399 0.0
H2459 H 0.61066 0.81444 0.94016 0.0
H2460 H 0.60901 0.81272 0.90645 0.0
H2461 H 0.58818 0.80256 0.96904 0.0
H2462 H 0.64268 0.79674 0.94818 0.0
H2463 H 0.66442 0.78507 0.92945 0.0
H2464 H 0.65603 0.7398 0.9544 0.0
H2465 H 0.63406 0.75113 0.97308 0.0
C2466 C 0.60935 0.78808 0.05506 0.0
C2467 C 0.60957 0.77198 0.05999 0.0
C2468 C 0.60982 0.79257 0.03654 0.0
C2469 C 0.61049 0.78103 0.0227 0.0
C2470 C 0.61086 0.765 0.02762 0.0
C2471 C 0.61038 0.76052 0.04603 0.0
C2472 C 0.61067 0.78535 0.00297 0.0
C2473 C 0.62328 0.77952 -0.00795 0.0
C2474 C 0.5981 0.79419 -0.00531 0.0
C2475 C 0.58415 0.80015 0.00539 0.0
C2476 C 0.57417 0.78966 0.0152 0.0
C2477 C 0.56112 0.7954 0.02538 0.0
C2478 C 0.55783 0.8116 0.02571 0.0
C2479 C 0.56756 0.82208 0.0158 0.0
C2480 C 0.58065 0.8164 0.00563 0.0
C2481 C 0.60464 0.7736 0.91684 0.0
C2482 C 0.60604 0.78724 0.90591 0.0
C2483 C 0.60566 0.77462 0.93589 0.0
C2484 C 0.60805 0.78927 0.94445 0.0
C2485 C 0.60885 0.80303 0.93372 0.0
C2486 C 0.60795 0.80201 0.91453 0.0
C2487 C 0.61031 0.78978 0.96459 0.0
C2488 C 0.59819 0.79648 0.97556 0.0
C2489 C 0.62326 0.78161 0.97297 0.0
C2490 C 0.63666 0.77479 0.96197 0.0
C2491 C 0.6454 0.78427 0.94959 0.0
C2492 C 0.65777 0.77772 0.93899 0.0
C2493 C 0.66159 0.7617 0.94072 0.0
C2494 C 0.65306 0.75221 0.95308 0.0
C2495 C 0.64066 0.7587 0.9637 0.0
H2496 H 0.67116 0.75665 0.93249 0.0
H2497 H 0.54772 0.81602 0.03359 0.0
H2498 H 0.20995 0.59287 0.91098 0.0
H2499 H 0.20837 0.59091 0.9443 0.0
H2500 H 0.15752 0.60189 0.94225 0.0
H2501 H 0.15905 0.6041 0.90866 0.0
H2502 H 0.17307 0.61893 0.96842 0.0
H2503 H 0.16952 0.56459 0.95182 0.0
H2504 H 0.1772 0.54017 0.93555 0.0
H2505 H 0.2236 0.54085 0.96194 0.0
H2506 H 0.2163 0.56541 0.97818 0.0
H2507 H 0.16907 0.60386 0.06509 0.0
H2508 H 0.1636 0.60177 0.03209 0.0
H2509 H 0.21393 0.59174 0.02217 0.0
H2510 H 0.21946 0.59368 0.05505 0.0
H2511 H 0.1942 0.57241 0.00233 0.0
H2512 H 0.19913 0.62834 0.01524 0.0
H2513 H 0.19211 0.6532 0.031 0.0
H2514 H 0.14336 0.64954 0.0112 0.0
H2515 H 0.15006 0.62452 -0.00449 0.0
C2516 C 0.19839 0.5948 0.91756 0.0
C2517 C 0.18461 0.59862 0.90718 0.0
C2518 C 0.19749 0.59358 0.93662 0.0
C2519 C 0.18278 0.59603 0.94573 0.0
C2520 C 0.16897 0.59987 0.93545 0.0
C2521 C 0.16986 0.6011 0.9163 0.0
C2522 C 0.18217 0.59516 0.96605 0.0
C2523 C 0.17733 0.60862 0.97586 0.0
C2524 C 0.18799 0.5818 0.97572 0.0
C2525 C 0.19238 0.56691 0.96614 0.0
C2526 C 0.1814 0.55959 0.95408 0.0
C2527 C 0.18568 0.54571 0.94487 0.0
C2528 C 0.20089 0.53898 0.94769 0.0
C2529 C 0.21183 0.54608 0.95977 0.0
C2530 C 0.20761 0.55997 0.969 0.0
C2531 C 0.17894 0.60113 0.05588 0.0
C2532 C 0.19471 0.59902 0.06264 0.0
C2533 C 0.17581 0.59998 0.03704 0.0
C2534 C 0.18839 0.59672 0.02469 0.0
C2535 C 0.20405 0.59425 0.03148 0.0
C2536 C 0.2072 0.59544 0.05026 0.0
C2537 C 0.18546 0.5963 0.00462 0.0
C2538 C 0.18964 0.58259 -0.00512 0.0
C2539 C 0.17907 0.60943 -0.00499 0.0
C2540 C 0.17504 0.62447 0.0044 0.0
C2541 C 0.18688 0.63277 0.01438 0.0
C2542 C 0.18297 0.6469 0.02327 0.0
C2543 C 0.16728 0.65292 0.02216 0.0
C2544 C 0.1555 0.64484 0.01209 0.0
C2545 C 0.15934 0.63069 0.00319 0.0
H2546 H 0.16428 0.66387 0.02904 0.0
H2547 H 0.20418 0.52824 0.94053 0.0
H2548 H 0.37763 0.18122 0.06307 0.0
H2549 H 0.38003 0.17441 0.03044 0.0
H2550 H 0.35261 0.216 0.0161 0.0
H2551 H 0.35074 0.22316 0.04849 0.0
H2552 H 0.3614 0.16825 0.00162 0.0
H2553 H 0.36871 0.23428 0.98052 0.0
H2554 H 0.37876 0.25919 -0.00602 0.0
H2555 H 0.40916 0.23302 0.03089 0.0
H2556 H 0.39947 0.20798 0.01747 0.0
H2557 H 0.35188 0.17838 0.9052 0.0
H2558 H 0.35126 0.17681 0.93878 0.0
H2559 H 0.39954 0.19622 0.94107 0.0
H2560 H 0.39951 0.19898 0.90765 0.0
H2561 H 0.38348 0.21136 0.96281 0.0
H2562 H 0.38847 0.15595 0.95411 0.0
H2563 H 0.38229 0.12959 0.94145 0.0
H2564 H 0.33476 0.13156 0.96489 0.0
H2565 H 0.34057 0.15803 0.97749 0.0
C2566 C 0.37194 0.18878 0.05294 0.0
C2567 C 0.36425 0.20287 0.05825 0.0
C2568 C 0.37329 0.18486 0.03433 0.0
C2569 C 0.36683 0.1949 0.02084 0.0
C2570 C 0.35806 0.2083 0.02627 0.0
C2571 C 0.35697 0.21237 0.04477 0.0
C2572 C 0.37026 0.19219 0.0011 0.0
C2573 C 0.36627 0.17761 -0.00693 0.0
C2574 C 0.37718 0.20421 -0.00988 0.0
C2575 C 0.38324 0.21926 -0.00191 0.0
C2576 C 0.37759 0.23385 -0.00855 0.0
C2577 C 0.38322 0.24799 -0.00092 0.0
C2578 C 0.39456 0.24769 0.01332 0.0
C2579 C 0.40034 0.23324 0.0199 0.0
C2580 C 0.39478 0.21907 0.0123 0.0
C2581 C 0.36242 0.18203 0.91296 0.0
C2582 C 0.3757 0.18887 0.90404 0.0
C2583 C 0.36213 0.18103 0.93214 0.0
C2584 C 0.3754 0.18631 0.94259 0.0
C2585 C 0.38908 0.19221 0.93342 0.0
C2586 C 0.38911 0.19373 0.91435 0.0
C2587 C 0.37438 0.18743 0.96296 0.0
C2588 C 0.37878 0.20181 0.97121 0.0
C2589 C 0.36848 0.17497 0.97416 0.0
C2590 C 0.36492 0.15904 0.96663 0.0
C2591 C 0.37666 0.15081 0.95646 0.0
C2592 C 0.37323 0.13584 0.94931 0.0
C2593 C 0.35813 0.12892 0.95233 0.0
C2594 C 0.34644 0.13694 0.96255 0.0
C2595 C 0.34981 0.15192 0.96972 0.0
H2596 H 0.3555 0.11732 0.94679 0.0
H2597 H 0.39888 0.25865 0.01922 0.0
H2598 H 0.75843 0.38421 0.05414 0.0
H2599 H 0.76295 0.38269 0.02108 0.0
H2600 H 0.81254 0.3693 0.03048 0.0
H2601 H 0.80817 0.37096 0.06375 0.0
H2602 H 0.80931 0.39105 0.00225 0.0
H2603 H 0.78615 0.34137 0.01948 0.0
H2604 H 0.7664 0.32378 0.03451 0.0
H2605 H 0.72838 0.34325 0.00134 0.0
H2606 H 0.74787 0.36113 -0.0137 0.0
H2607 H 0.81675 0.36754 0.90734 0.0
H2608 H 0.81762 0.3679 0.94105 0.0
H2609 H 0.76674 0.37887 0.94251 0.0
H2610 H 0.76572 0.37825 0.90909 0.0
H2611 H 0.77363 0.35578 0.96583 0.0
H2612 H 0.79601 0.40704 0.95074 0.0
H2613 H 0.81537 0.42519 0.93596 0.0
H2614 H 0.85451 0.40309 0.96498 0.0
H2615 H 0.83537 0.38466 0.97976 0.0
C2616 C 0.77033 0.381 0.04921 0.0
C2617 C 0.78291 0.37758 0.06155 0.0
C2618 C 0.77287 0.3801 0.03031 0.0
C2619 C 0.78801 0.37564 0.02337 0.0
C2620 C 0.80076 0.3727 0.0356 0.0
C2621 C 0.79823 0.37361 0.05457 0.0
C2622 C 0.79024 0.37373 0.00332 0.0
C2623 C 0.80172 0.38315 -0.00572 0.0
C2624 C 0.7802 0.36353 -0.00704 0.0
C2625 C 0.76847 0.35267 0.00185 0.0
C2626 C 0.77357 0.34197 0.01547 0.0
C2627 C 0.76242 0.33194 0.02398 0.0
C2628 C 0.74614 0.33242 0.01891 0.0
C2629 C 0.74099 0.3429 0.00527 0.0
C2630 C 0.75209 0.35297 -0.00327 0.0
C2631 C 0.80579 0.37009 0.91489 0.0
C2632 C 0.79116 0.37282 0.90559 0.0
C2633 C 0.80631 0.37033 0.93412 0.0
C2634 C 0.79225 0.37347 0.94428 0.0
C2635 C 0.77771 0.37635 0.93495 0.0
C2636 C 0.77717 0.37602 0.91583 0.0
C2637 C 0.79236 0.37346 0.96464 0.0
C2638 C 0.78136 0.36359 0.97377 0.0
C2639 C 0.8028 0.38327 0.97502 0.0
C2640 C 0.81429 0.39436 0.96618 0.0
C2641 C 0.80876 0.40597 0.95385 0.0
C2642 C 0.81969 0.41632 0.9455 0.0
C2643 C 0.83617 0.41526 0.94948 0.0
C2644 C 0.84174 0.40388 0.96188 0.0
C2645 C 0.83086 0.39348 0.97025 0.0
H2646 H 0.84461 0.42329 0.94301 0.0
H2647 H 0.73753 0.32465 0.02552 0.0
H2648 H 0.61841 0.1637 0.05615 0.0
H2649 H 0.61755 0.16038 0.02259 0.0
H2650 H 0.6022 0.20884 0.01665 0.0
H2651 H 0.60303 0.21224 0.04983 0.0
H2652 H 0.58416 0.18833 -0.00438 0.0
H2653 H 0.64086 0.19884 0.00978 0.0
H2654 H 0.66693 0.19287 0.02467 0.0
H2655 H 0.66816 0.14764 -0.00209 0.0
H2656 H 0.64196 0.15329 -0.01696 0.0
H2657 H 0.60537 0.22448 0.91413 0.0
H2658 H 0.60417 0.21508 0.94569 0.0
H2659 H 0.61613 0.16795 0.92774 0.0
H2660 H 0.61726 0.17728 0.89575 0.0
H2661 H 0.63414 0.17945 0.95949 0.0
H2662 H 0.57997 0.17206 0.94006 0.0
H2663 H 0.55435 0.17893 0.92474 0.0
H2664 H 0.54828 0.21837 0.9612 0.0
H2665 H 0.57399 0.2119 0.97656 0.0
C2666 C 0.61483 0.17361 0.04764 0.0
C2667 C 0.61082 0.18824 0.05561 0.0
C2668 C 0.61436 0.1717 0.02852 0.0
C2669 C 0.60981 0.18437 0.01717 0.0
C2670 C 0.60566 0.19889 0.02516 0.0
C2671 C 0.60623 0.20083 0.04415 0.0
C2672 C 0.60955 0.18295 -0.0031 0.0
C2673 C 0.59506 0.18631 -0.0123 0.0
C2674 C 0.62366 0.17976 -0.01341 0.0
C2675 C 0.63937 0.17639 -0.00448 0.0
C2676 C 0.64662 0.18757 0.00721 0.0
C2677 C 0.66143 0.18425 0.01561 0.0
C2678 C 0.66917 0.16986 0.01229 0.0
C2679 C 0.66213 0.15877 0.00051 0.0
C2680 C 0.64731 0.16202 -0.00791 0.0
C2681 C 0.60778 0.2121 0.9168 0.0
C2682 C 0.61138 0.20162 0.9024 0.0
C2683 C 0.60702 0.20674 0.93486 0.0
C2684 C 0.60991 0.19081 0.93898 0.0
C2685 C 0.6138 0.18028 0.92477 0.0
C2686 C 0.61439 0.18562 0.90654 0.0
C2687 C 0.6089 0.18553 0.95832 0.0
C2688 C 0.62312 0.18093 0.96735 0.0
C2689 C 0.59453 0.18759 0.96852 0.0
C2690 C 0.57897 0.19151 0.95942 0.0
C2691 C 0.57323 0.18226 0.94473 0.0
C2692 C 0.55868 0.18608 0.93605 0.0
C2693 C 0.5497 0.19909 0.94198 0.0
C2694 C 0.55524 0.20829 0.95663 0.0
C2695 C 0.5698 0.20454 0.96535 0.0
H2696 H 0.53843 0.20202 0.93524 0.0
H2697 H 0.68064 0.16732 0.0188 0.0
H2698 H 0.8161 0.60881 0.05537 0.0
H2699 H 0.81802 0.60708 0.02181 0.0
H2700 H 0.76639 0.6007 0.01836 0.0
H2701 H 0.7644 0.60217 0.05171 0.0
H2702 H 0.78185 0.58029 -0.00354 0.0
H2703 H 0.78421 0.63645 0.00939 0.0
H2704 H 0.79553 0.66044 0.02375 0.0
H2705 H 0.84105 0.65197 -0.00272 0.0
H2706 H 0.83004 0.6278 -0.01705 0.0
H2707 H 0.75953 0.60089 0.90684 0.0
H2708 H 0.76377 0.59999 0.93997 0.0
H2709 H 0.81508 0.60574 0.93197 0.0
H2710 H 0.8109 0.60689 0.89864 0.0
H2711 H 0.80386 0.62456 0.95936 0.0
H2712 H 0.80025 0.56999 0.94347 0.0
H2713 H 0.78857 0.54631 0.92882 0.0
H2714 H 0.74531 0.55176 0.96069 0.0
H2715 H 0.75664 0.57561 0.97535 0.0
C2716 C 0.80518 0.60701 0.04743 0.0
C2717 C 0.79009 0.60567 0.05617 0.0
C2718 C 0.80629 0.60607 0.02828 0.0
C2719 C 0.79233 0.60387 0.0176 0.0
C2720 C 0.77732 0.60237 0.02634 0.0
C2721 C 0.7762 0.60327 0.04541 0.0
C2722 C 0.79313 0.60324 -0.00273 0.0
C2723 C 0.78658 0.59001 -0.01166 0.0
C2724 C 0.79977 0.6157 -0.01329 0.0
C2725 C 0.80637 0.63023 -0.00471 0.0
C2726 C 0.79667 0.63964 0.00676 0.0
C2727 C 0.80302 0.65328 0.01487 0.0
C2728 C 0.81901 0.6577 0.01148 0.0
C2729 C 0.82867 0.64851 -7e-05 0.0
C2730 C 0.82239 0.63485 -0.00819 0.0
C2731 C 0.77173 0.60195 0.91209 0.0
C2732 C 0.78489 0.6039 0.90012 0.0
C2733 C 0.77414 0.60135 0.93104 0.0
C2734 C 0.78977 0.60255 0.93841 0.0
C2735 C 0.80293 0.60472 0.92654 0.0
C2736 C 0.80053 0.60533 0.90752 0.0
C2737 C 0.79216 0.60181 0.95856 0.0
C2738 C 0.79935 0.61474 0.96746 0.0
C2739 C 0.78609 0.58908 0.96912 0.0
C2740 C 0.77926 0.57465 0.96043 0.0
C2741 C 0.7882 0.5662 0.94727 0.0
C2742 C 0.78165 0.55274 0.93897 0.0
C2743 C 0.7662 0.54755 0.9438 0.0
C2744 C 0.75728 0.55579 0.95696 0.0
C2745 C 0.76377 0.56927 0.96529 0.0
H2746 H 0.76114 0.53712 0.93736 0.0
H2747 H 0.8239 0.66827 0.01776 0.0
H2748 H 0.36512 0.79605 0.89072 0.0
H2749 H 0.36255 0.80585 0.9223 0.0
H2750 H 0.36144 0.75784 0.9423 0.0
H2751 H 0.36382 0.74799 0.91104 0.0
H2752 H 0.33806 0.77565 0.95785 0.0
H2753 H 0.39562 0.78035 0.94463 0.0
H2754 H 0.41909 0.79052 0.9274 0.0
H2755 H 0.40512 0.83816 0.94007 0.0
H2756 H 0.38145 0.82826 0.95719 0.0
H2757 H 0.36545 0.76768 0.04675 0.0
H2758 H 0.36301 0.76869 0.01349 0.0
H2759 H 0.35959 0.81954 0.0155 0.0
H2760 H 0.36201 0.81866 0.04921 0.0
H2761 H 0.38116 0.8073 -0.01218 0.0
H2762 H 0.32656 0.80151 0.00667 0.0
H2763 H 0.30397 0.79059 0.02473 0.0
H2764 H 0.31261 0.74459 0.00184 0.0
H2765 H 0.33541 0.75517 -0.01615 0.0
C2766 C 0.36433 0.78759 0.90186 0.0
C2767 C 0.36469 0.77122 0.89834 0.0
C2768 C 0.36289 0.79322 0.91988 0.0
C2769 C 0.36183 0.78256 0.93462 0.0
C2770 C 0.36215 0.76627 0.93111 0.0
C2771 C 0.36359 0.76065 0.9132 0.0
C2772 C 0.3605 0.78809 0.95387 0.0
C2773 C 0.34746 0.7826 0.9644 0.0
C2774 C 0.37245 0.79766 0.96224 0.0
C2775 C 0.38666 0.80358 0.95196 0.0
C2776 C 0.39748 0.793 0.94359 0.0
C2777 C 0.41083 0.79871 0.93388 0.0
C2778 C 0.41356 0.81498 0.93258 0.0
C2779 C 0.40297 0.82557 0.94105 0.0
C2780 C 0.38959 0.81991 0.95076 0.0
C2781 C 0.36418 0.77912 0.04021 0.0
C2782 C 0.36384 0.7931 0.05063 0.0
C2783 C 0.36274 0.77966 0.02118 0.0
C2784 C 0.36091 0.79416 0.0121 0.0
C2785 C 0.3609 0.80823 0.02233 0.0
C2786 C 0.36225 0.8077 0.04152 0.0
C2787 C 0.35912 0.79423 -0.00812 0.0
C2788 C 0.37151 0.80077 -0.01883 0.0
C2789 C 0.34659 0.78557 -0.01669 0.0
C2790 C 0.33274 0.77915 -0.00606 0.0
C2791 C 0.3237 0.78904 0.00556 0.0
C2792 C 0.31085 0.78291 0.01578 0.0
C2793 C 0.30686 0.7669 0.01444 0.0
C2794 C 0.3157 0.75699 0.00285 0.0
C2795 C 0.32858 0.76306 -0.00739 0.0
H2796 H 0.29692 0.76217 0.02238 0.0
H2797 H 0.4239 0.81938 0.92506 0.0
H2798 H 0.16854 0.37321 0.89996 0.0
H2799 H 0.16525 0.37251 0.93343 0.0
H2800 H 0.21525 0.38575 0.9402 0.0
H2801 H 0.21868 0.38627 0.90693 0.0
H2802 H 0.20755 0.36082 0.96122 0.0
H2803 H 0.18452 0.4121 0.94758 0.0
H2804 H 0.16557 0.43035 0.93229 0.0
H2805 H 0.12541 0.40555 0.95606 0.0
H2806 H 0.14413 0.38702 0.97131 0.0
H2807 H 0.21593 0.38404 0.05224 0.0
H2808 H 0.21358 0.3842 0.0189 0.0
H2809 H 0.16354 0.37036 0.02306 0.0
H2810 H 0.16573 0.37046 0.05673 0.0
H2811 H 0.16822 0.39293 -0.00346 0.0
H2812 H 0.19126 0.34303 0.01224 0.0
H2813 H 0.21016 0.32487 0.02774 0.0
H2814 H 0.2501 0.3467 -7e-05 0.0
H2815 H 0.23147 0.36515 -0.01554 0.0
C2816 C 0.17879 0.37609 0.90861 0.0
C2817 C 0.19388 0.37974 0.90083 0.0
C2818 C 0.17688 0.37572 0.9277 0.0
C2819 C 0.19 0.37912 0.93928 0.0
C2820 C 0.20499 0.38303 0.93151 0.0
C2821 C 0.20691 0.38336 0.91248 0.0
C2822 C 0.18848 0.37806 0.95952 0.0
C2823 C 0.19904 0.36795 0.96895 0.0
C2824 C 0.17696 0.38691 0.96953 0.0
C2825 C 0.16571 0.39807 0.9604 0.0
C2826 C 0.17164 0.41046 0.94942 0.0
C2827 C 0.16094 0.42087 0.94079 0.0
C2828 C 0.14429 0.41909 0.94316 0.0
C2829 C 0.13831 0.40691 0.95421 0.0
C2830 C 0.14895 0.39645 0.96286 0.0
C2831 C 0.20439 0.38107 0.04612 0.0
C2832 C 0.19105 0.37708 0.0571 0.0
C2833 C 0.20308 0.38112 0.02704 0.0
C2834 C 0.18848 0.37699 0.01851 0.0
C2835 C 0.17495 0.37349 0.0294 0.0
C2836 C 0.17622 0.37353 0.04859 0.0
C2837 C 0.18765 0.37607 -0.00179 0.0
C2838 C 0.17661 0.3857 -0.01122 0.0
C2839 C 0.19871 0.36674 -0.01187 0.0
C2840 C 0.20996 0.35555 -0.00272 0.0
C2841 C 0.20408 0.34403 0.00952 0.0
C2842 C 0.21475 0.33367 0.01829 0.0
C2843 C 0.23132 0.33465 0.01485 0.0
C2844 C 0.23726 0.34596 0.00259 0.0
C2845 C 0.22665 0.35636 -0.00621 0.0
H2846 H 0.23956 0.32662 0.02166 0.0
H2847 H 0.13603 0.42716 0.93647 0.0
H2848 H 0.14143 0.33829 0.15179 0.0
H2849 H 0.13224 0.3326 0.18308 0.0
H2850 H 0.16701 0.3658 0.20457 0.0
H2851 H 0.17622 0.37162 0.17349 0.0
H2852 H 0.16928 0.33586 0.21998 0.0
H2853 H 0.12839 0.37463 0.20708 0.0
H2854 H 0.10618 0.38664 0.18934 0.0
H2855 H 0.07768 0.34465 0.19646 0.0
H2856 H 0.09982 0.33229 0.21404 0.0
H2857 H 0.14833 0.32915 0.31338 0.0
H2858 H 0.15308 0.34051 0.28298 0.0
H2859 H 0.11483 0.31169 0.26052 0.0
H2860 H 0.10974 0.30056 0.2909 0.0
H2861 H 0.114 0.34041 0.24571 0.0
H2862 H 0.15423 0.30075 0.25613 0.0
H2863 H 0.1762 0.28721 0.27274 0.0
H2864 H 0.20568 0.32887 0.26882 0.0
H2865 H 0.18378 0.34274 0.25239 0.0
C2866 C 0.14692 0.34459 0.16315 0.0
C2867 C 0.15965 0.35531 0.16014 0.0
C2868 C 0.14163 0.34135 0.181 0.0
C2869 C 0.14899 0.34877 0.1961 0.0
C2870 C 0.16122 0.35994 0.19308 0.0
C2871 C 0.16643 0.36326 0.17528 0.0
C2872 C 0.14498 0.34391 0.21507 0.0
C2873 C 0.15726 0.33711 0.22574 0.0
C2874 C 0.12917 0.34506 0.22227 0.0
C2875 C 0.11583 0.35248 0.21173 0.0
C2876 C 0.11744 0.3679 0.20473 0.0
C2877 C 0.10485 0.37478 0.19473 0.0
C2878 C 0.09054 0.3664 0.19173 0.0
C2879 C 0.08878 0.35112 0.19877 0.0
C2880 C 0.10134 0.34418 0.20877 0.0
C2881 C 0.14084 0.32531 0.30201 0.0
C2882 C 0.12875 0.31384 0.30455 0.0
C2883 C 0.1436 0.33179 0.28463 0.0
C2884 C 0.13447 0.32676 0.26944 0.0
C2885 C 0.12203 0.31573 0.27205 0.0
C2886 C 0.11919 0.30933 0.28943 0.0
C2887 C 0.13834 0.33245 0.25068 0.0
C2888 C 0.12605 0.3393 0.24001 0.0
C2889 C 0.1541 0.33113 0.24333 0.0
C2890 C 0.16729 0.32284 0.25322 0.0
C2891 C 0.16534 0.30707 0.25895 0.0
C2892 C 0.17779 0.29932 0.2683 0.0
C2893 C 0.19231 0.30719 0.27188 0.0
C2894 C 0.19442 0.3228 0.26607 0.0
C2895 C 0.18199 0.33061 0.25673 0.0
H2896 H 0.20194 0.30117 0.27912 0.0
H2897 H 0.0808 0.37175 0.18399 0.0
H2898 H 0.64371 0.14244 0.15541 0.0
H2899 H 0.64449 0.13145 0.18649 0.0
H2900 H 0.60592 0.16266 0.2028 0.0
H2901 H 0.60503 0.17373 0.17185 0.0
H2902 H 0.63215 0.16454 0.22544 0.0
H2903 H 0.59873 0.12397 0.2 0.0
H2904 H 0.59083 0.10341 0.17772 0.0
H2905 H 0.63369 0.07705 0.19054 0.0
H2906 H 0.64197 0.09757 0.21271 0.0
H2907 H 0.63368 0.136 0.3161 0.0
H2908 H 0.62236 0.14153 0.28572 0.0
H2909 H 0.65687 0.10974 0.26117 0.0
H2910 H 0.66794 0.10381 0.29141 0.0
H2911 H 0.62892 0.10801 0.24332 0.0
H2912 H 0.66439 0.14959 0.26444 0.0
H2913 H 0.67381 0.1702 0.28589 0.0
H2914 H 0.62869 0.19471 0.28008 0.0
H2915 H 0.61892 0.1741 0.25876 0.0
C2916 C 0.63524 0.14682 0.16553 0.0
C2917 C 0.62439 0.15904 0.16117 0.0
C2918 C 0.63564 0.14046 0.18326 0.0
C2919 C 0.62521 0.14621 0.1969 0.0
C2920 C 0.61405 0.15806 0.19245 0.0
C2921 C 0.61357 0.16436 0.17473 0.0
C2922 C 0.62695 0.14088 0.21618 0.0
C2923 C 0.63108 0.15222 0.22944 0.0
C2924 C 0.62598 0.12477 0.22123 0.0
C2925 C 0.62103 0.11238 0.20793 0.0
C2926 C 0.60654 0.11386 0.19796 0.0
C2927 C 0.60198 0.1022 0.18537 0.0
C2928 C 0.61177 0.08895 0.18269 0.0
C2929 C 0.62612 0.08732 0.19262 0.0
C2930 C 0.63075 0.09895 0.20522 0.0
C2931 C 0.63867 0.12996 0.30427 0.0
C2932 C 0.65188 0.11965 0.30616 0.0
C2933 C 0.6322 0.13317 0.28692 0.0
C2934 C 0.639 0.1263 0.27115 0.0
C2935 C 0.65147 0.11522 0.27313 0.0
C2936 C 0.65784 0.1119 0.29046 0.0
C2937 C 0.63425 0.13166 0.25251 0.0
C2938 C 0.62966 0.12036 0.23937 0.0
C2939 C 0.63499 0.1478 0.24744 0.0
C2940 C 0.64086 0.16022 0.2602 0.0
C2941 C 0.65644 0.15931 0.26785 0.0
C2942 C 0.66185 0.171 0.27997 0.0
C2943 C 0.65184 0.18373 0.28439 0.0
C2944 C 0.63641 0.18482 0.27667 0.0
C2945 C 0.63094 0.17315 0.26457 0.0
H2946 H 0.65604 0.19278 0.29377 0.0
H2947 H 0.60822 0.07994 0.17293 0.0
H2948 H 0.8381 0.64902 0.14983 0.0
H2949 H 0.84949 0.65282 0.18055 0.0
H2950 H 0.82812 0.60887 0.19828 0.0
H2951 H 0.81673 0.60494 0.16768 0.0
H2952 H 0.83066 0.65623 0.21096 0.0
H2953 H 0.85136 0.59357 0.23327 0.0
H2954 H 0.86375 0.56987 0.21951 0.0
H2955 H 0.88554 0.59851 0.17757 0.0
H2956 H 0.87348 0.62241 0.19123 0.0
H2957 H 0.82848 0.64684 0.30673 0.0
H2958 H 0.82649 0.63822 0.2747 0.0
H2959 H 0.87687 0.64902 0.26654 0.0
H2960 H 0.87894 0.65797 0.29847 0.0
H2961 H 0.86352 0.61917 0.24843 0.0
H2962 H 0.8563 0.67589 0.25424 0.0
H2963 H 0.84422 0.69967 0.26816 0.0
H2964 H 0.7969 0.68361 0.25269 0.0
H2965 H 0.80871 0.65958 0.23895 0.0
C2966 C 0.8361 0.64 0.16015 0.0
C2967 C 0.82638 0.62675 0.15637 0.0
C2968 C 0.84259 0.64221 0.17769 0.0
C2969 C 0.83965 0.63112 0.19164 0.0
C2970 C 0.83067 0.61749 0.18765 0.0
C2971 C 0.82409 0.61532 0.17017 0.0
C2972 C 0.8444 0.63458 0.21082 0.0
C2973 C 0.83798 0.64818 0.21906 0.0
C2974 C 0.85391 0.62406 0.2214 0.0
C2975 C 0.86139 0.60977 0.21321 0.0
C2976 C 0.85886 0.59483 0.22117 0.0
C2977 C 0.86581 0.58135 0.21337 0.0
C2978 C 0.87539 0.58268 0.19765 0.0
C2979 C 0.87807 0.59749 0.18971 0.0
C2980 C 0.87115 0.61101 0.19746 0.0
C2981 C 0.83923 0.64704 0.29825 0.0
C2982 C 0.85383 0.65322 0.30503 0.0
C2983 C 0.83806 0.64212 0.27999 0.0
C2984 C 0.85153 0.64309 0.26835 0.0
C2985 C 0.86639 0.64817 0.2754 0.0
C2986 C 0.86751 0.65335 0.29357 0.0
C2987 C 0.84954 0.64061 0.24842 0.0
C2988 C 0.85637 0.62723 0.24016 0.0
C2989 C 0.84048 0.65135 0.23771 0.0
C2990 C 0.83337 0.66587 0.24574 0.0
C2991 C 0.84331 0.67736 0.25396 0.0
C2992 C 0.83652 0.6909 0.26179 0.0
C2993 C 0.8198 0.69313 0.26136 0.0
C2994 C 0.80985 0.68185 0.25304 0.0
C2995 C 0.81659 0.66828 0.24522 0.0
H2996 H 0.81456 0.70362 0.26743 0.0
H2997 H 0.88075 0.57223 0.19163 0.0
H2998 H 0.37455 0.82777 0.15752 0.0
H2999 H 0.3733 0.83776 0.18905 0.0
H3000 H 0.3212 0.83501 0.18729 0.0
H3001 H 0.32246 0.8262 0.15541 0.0
H3002 H 0.32793 0.85814 0.20668 0.0
H3003 H 0.34753 0.80464 0.2062 0.0
H3004 H 0.36584 0.78285 0.19767 0.0
H3005 H 0.4057 0.8074 0.22249 0.0
H3006 H 0.38764 0.82943 0.23097 0.0
H3007 H 0.32904 0.82639 0.30611 0.0
H3008 H 0.33774 0.82335 0.27427 0.0
H3009 H 0.3402 0.87413 0.26853 0.0
H3010 H 0.33029 0.87714 0.30001 0.0
H3011 H 0.36056 0.82907 0.25283 0.0
H3012 H 0.32894 0.88576 0.2267 0.0
H3013 H 0.30656 0.90346 0.23555 0.0
H3014 H 0.28356 0.86532 0.26442 0.0
H3015 H 0.30569 0.84737 0.25555 0.0
C3016 C 0.36286 0.82963 0.16382 0.0
C3017 C 0.3486 0.82618 0.15414 0.0
C3018 C 0.36213 0.8352 0.18187 0.0
C3019 C 0.34717 0.83673 0.19081 0.0
C3020 C 0.33291 0.83393 0.18079 0.0
C3021 C 0.33362 0.82888 0.16256 0.0
C3022 C 0.34623 0.84037 0.21078 0.0
C3023 C 0.33514 0.85182 0.21673 0.0
C3024 C 0.35542 0.83199 0.22404 0.0
C3025 C 0.36629 0.81875 0.21902 0.0
C3026 C 0.36022 0.80543 0.20973 0.0
C3027 C 0.37055 0.79303 0.20492 0.0
C3028 C 0.38693 0.79376 0.20948 0.0
C3029 C 0.39301 0.80687 0.21892 0.0
C3030 C 0.38274 0.81931 0.22374 0.0
C3031 C 0.33172 0.83688 0.29812 0.0
C3032 C 0.32883 0.85198 0.30536 0.0
C3033 C 0.33671 0.83515 0.27991 0.0
C3034 C 0.33923 0.84852 0.26877 0.0
C3035 C 0.33782 0.86364 0.27662 0.0
C3036 C 0.3323 0.86536 0.29463 0.0
C3037 C 0.34197 0.84653 0.24871 0.0
C3038 C 0.35348 0.8355 0.24275 0.0
C3039 C 0.33254 0.85466 0.23546 0.0
C3040 C 0.31907 0.8653 0.24066 0.0
C3041 C 0.31908 0.88116 0.23489 0.0
C3042 C 0.30644 0.89123 0.23991 0.0
C3043 C 0.29368 0.88553 0.2506 0.0
C3044 C 0.29348 0.86973 0.2562 0.0
C3045 C 0.30607 0.85961 0.25119 0.0
H3046 H 0.28393 0.89336 0.2545 0.0
H3047 H 0.39491 0.78416 0.20574 0.0
H3048 H 0.1469 0.60028 0.80162 0.0
H3049 H 0.13695 0.60484 0.77037 0.0
H3050 H 0.1411 0.65524 0.77875 0.0
H3051 H 0.14981 0.65068 0.81033 0.0
H3052 H 0.11809 0.6512 0.75717 0.0
H3053 H 0.17229 0.63082 0.7586 0.0
H3054 H 0.19374 0.6117 0.76632 0.0
H3055 H 0.16909 0.5757 0.73554 0.0
H3056 H 0.14739 0.59458 0.72782 0.0
H3057 H 0.1565 0.65653 0.66 0.0
H3058 H 0.15727 0.64676 0.6915 0.0
H3059 H 0.1051 0.64598 0.69285 0.0
H3060 H 0.10437 0.65689 0.66169 0.0
H3061 H 0.14953 0.62304 0.70934 0.0
H3062 H 0.09102 0.6529 0.73533 0.0
H3063 H 0.07389 0.67599 0.72825 0.0
H3064 H 0.11472 0.70006 0.70495 0.0
H3065 H 0.13211 0.67719 0.71209 0.0
C3066 C 0.14526 0.61232 0.79687 0.0
C3067 C 0.1492 0.62514 0.80826 0.0
C3068 C 0.13971 0.61493 0.77898 0.0
C3069 C 0.13876 0.63038 0.77194 0.0
C3070 C 0.14177 0.6432 0.78376 0.0
C3071 C 0.14677 0.6406 0.80183 0.0
C3072 C 0.136 0.63328 0.75202 0.0
C3073 C 0.1249 0.64497 0.74672 0.0
C3074 C 0.14508 0.6254 0.7383 0.0
C3075 C 0.15814 0.61405 0.74282 0.0
C3076 C 0.17141 0.6188 0.75357 0.0
C3077 C 0.18361 0.60801 0.75794 0.0
C3078 C 0.18275 0.59248 0.75147 0.0
C3079 C 0.16972 0.58772 0.74057 0.0
C3080 C 0.15747 0.59846 0.73619 0.0
C3081 C 0.1452 0.65413 0.66697 0.0
C3082 C 0.13038 0.65759 0.65852 0.0
C3083 C 0.14563 0.64851 0.68499 0.0
C3084 C 0.13124 0.6459 0.69478 0.0
C3085 C 0.11638 0.64835 0.68585 0.0
C3086 C 0.11596 0.65446 0.66801 0.0
C3087 C 0.13197 0.6413 0.71451 0.0
C3088 C 0.14258 0.62917 0.71976 0.0
C3089 C 0.1231 0.6494 0.72825 0.0
C3090 C 0.11279 0.66326 0.72403 0.0
C3091 C 0.09633 0.66314 0.72873 0.0
C3092 C 0.08658 0.67618 0.72471 0.0
C3093 C 0.0932 0.68946 0.71609 0.0
C3094 C 0.1096 0.68975 0.71156 0.0
C3095 C 0.1194 0.67674 0.71557 0.0
H3096 H 0.08563 0.69954 0.71297 0.0
H3097 H 0.1922 0.58414 0.75487 0.0
H3098 H 0.34027 0.14046 0.65017 0.0
H3099 H 0.34956 0.14575 0.6815 0.0
H3100 H 0.32003 0.10746 0.70166 0.0
H3101 H 0.31066 0.10211 0.67053 0.0
H3102 H 0.31375 0.13541 0.71877 0.0
H3103 H 0.36038 0.10451 0.70321 0.0
H3104 H 0.38396 0.09689 0.68454 0.0
H3105 H 0.40514 0.14263 0.69328 0.0
H3106 H 0.38158 0.15062 0.71179 0.0
H3107 H 0.33501 0.14501 0.81175 0.0
H3108 H 0.3318 0.13289 0.78148 0.0
H3109 H 0.36423 0.16749 0.75823 0.0
H3110 H 0.36788 0.17937 0.78848 0.0
H3111 H 0.36958 0.13962 0.74311 0.0
H3112 H 0.32299 0.17176 0.7553 0.0
H3113 H 0.29932 0.18097 0.77284 0.0
H3114 H 0.27798 0.1348 0.76898 0.0
H3115 H 0.30163 0.12525 0.75161 0.0
C3116 C 0.33602 0.13295 0.66121 0.0
C3117 C 0.32458 0.12099 0.65787 0.0
C3118 C 0.34137 0.13596 0.6791 0.0
C3119 C 0.33544 0.127 0.69387 0.0
C3120 C 0.3247 0.11453 0.69044 0.0
C3121 C 0.31937 0.1115 0.67261 0.0
C3122 C 0.33899 0.13169 0.71303 0.0
C3123 C 0.32595 0.13602 0.72422 0.0
C3124 C 0.35493 0.133 0.71986 0.0
C3125 C 0.36914 0.12821 0.70877 0.0
C3126 C 0.37 0.113 0.70103 0.0
C3127 C 0.38338 0.1086 0.6905 0.0
C3128 C 0.39602 0.11928 0.68769 0.0
C3129 C 0.39533 0.13437 0.69545 0.0
C3130 C 0.38197 0.13883 0.70598 0.0
C3131 C 0.34155 0.14997 0.80022 0.0
C3132 C 0.35157 0.16325 0.80249 0.0
C3133 C 0.33969 0.14305 0.78293 0.0
C3134 C 0.34758 0.14946 0.76755 0.0
C3135 C 0.35802 0.16236 0.7699 0.0
C3136 C 0.36003 0.16918 0.78721 0.0
C3137 C 0.34432 0.14329 0.74886 0.0
C3138 C 0.35739 0.13879 0.73772 0.0
C3139 C 0.3284 0.14204 0.74192 0.0
C3140 C 0.31416 0.14775 0.75234 0.0
C3141 C 0.3133 0.16354 0.75832 0.0
C3142 C 0.29988 0.16882 0.76821 0.0
C3143 C 0.28718 0.15846 0.77207 0.0
C3144 C 0.28785 0.1428 0.76601 0.0
C3145 C 0.30125 0.13745 0.75613 0.0
H3146 H 0.2768 0.16258 0.77972 0.0
H3147 H 0.40637 0.11586 0.67954 0.0
H3148 H 0.82851 0.33218 0.65051 0.0
H3149 H 0.82529 0.34306 0.6814 0.0
H3150 H 0.872 0.32473 0.69669 0.0
H3151 H 0.87534 0.31376 0.66586 0.0
H3152 H 0.82451 0.32465 0.71268 0.0
H3153 H 0.88764 0.35004 0.73011 0.0
H3154 H 0.91042 0.36312 0.71441 0.0
H3155 H 0.87811 0.38097 0.67317 0.0
H3156 H 0.85511 0.36819 0.68875 0.0
H3157 H 0.83587 0.32988 0.80827 0.0
H3158 H 0.84461 0.32608 0.77645 0.0
H3159 H 0.83013 0.37372 0.76336 0.0
H3160 H 0.82104 0.37755 0.79506 0.0
H3161 H 0.8611 0.36141 0.74589 0.0
H3162 H 0.80383 0.35071 0.75437 0.0
H3163 H 0.78085 0.3381 0.77022 0.0
H3164 H 0.80048 0.29223 0.7585 0.0
H3165 H 0.82373 0.3046 0.74284 0.0
C3166 C 0.83823 0.33068 0.66033 0.0
C3167 C 0.85213 0.322 0.65576 0.0
C3168 C 0.83634 0.33687 0.67798 0.0
C3169 C 0.8484 0.33469 0.69129 0.0
C3170 C 0.86261 0.32665 0.68656 0.0
C3171 C 0.86446 0.32033 0.66895 0.0
C3172 C 0.84554 0.3396 0.71051 0.0
C3173 C 0.83248 0.33275 0.71988 0.0
C3174 C 0.85596 0.35013 0.7199 0.0
C3175 C 0.86968 0.35802 0.71051 0.0
C3176 C 0.88539 0.3568 0.71773 0.0
C3177 C 0.89834 0.36416 0.70885 0.0
C3178 C 0.89572 0.37283 0.69277 0.0
C3179 C 0.88013 0.3742 0.68558 0.0
C3180 C 0.86714 0.36688 0.69441 0.0
C3181 C 0.83493 0.33968 0.79875 0.0
C3182 C 0.82764 0.35396 0.80408 0.0
C3183 C 0.83991 0.33749 0.7806 0.0
C3184 C 0.83791 0.34961 0.76765 0.0
C3185 C 0.83179 0.36427 0.77324 0.0
C3186 C 0.82654 0.36639 0.7913 0.0
C3187 C 0.84024 0.34631 0.74793 0.0
C3188 C 0.85316 0.35337 0.73857 0.0
C3189 C 0.82966 0.33603 0.73844 0.0
C3190 C 0.81559 0.32858 0.74762 0.0
C3191 C 0.80331 0.33794 0.75532 0.0
C3192 C 0.79023 0.33084 0.76424 0.0
C3193 C 0.78923 0.31438 0.76542 0.0
C3194 C 0.80128 0.30498 0.75761 0.0
C3195 C 0.81441 0.31203 0.7487 0.0
H3196 H 0.7791 0.30891 0.77235 0.0
H3197 H 0.90577 0.37851 0.68591 0.0
H3198 H 0.64603 0.83286 0.64978 0.0
H3199 H 0.63616 0.82689 0.68069 0.0
H3200 H 0.6582 0.86964 0.7011 0.0
H3201 H 0.66815 0.8757 0.67029 0.0
H3202 H 0.65608 0.82182 0.7105 0.0
H3203 H 0.63493 0.88263 0.73781 0.0
H3204 H 0.62234 0.90706 0.72611 0.0
H3205 H 0.60032 0.88095 0.68212 0.0
H3206 H 0.61259 0.85633 0.6937 0.0
H3207 H 0.65498 0.82313 0.80763 0.0
H3208 H 0.65882 0.83346 0.77647 0.0
H3209 H 0.60827 0.82617 0.76493 0.0
H3210 H 0.60435 0.81558 0.79591 0.0
H3211 H 0.62239 0.85584 0.75068 0.0
H3212 H 0.63001 0.7991 0.75138 0.0
H3213 H 0.64198 0.77435 0.76302 0.0
H3214 H 0.68942 0.79148 0.7498 0.0
H3215 H 0.67772 0.81645 0.73835 0.0
C3216 C 0.64854 0.84114 0.66076 0.0
C3217 C 0.65796 0.85471 0.6576 0.0
C3218 C 0.64294 0.83767 0.67842 0.0
C3219 C 0.64645 0.84782 0.69314 0.0
C3220 C 0.65525 0.86172 0.68988 0.0
C3221 C 0.66097 0.86513 0.67228 0.0
C3222 C 0.64209 0.84326 0.71213 0.0
C3223 C 0.64866 0.82924 0.71924 0.0
C3224 C 0.63242 0.85295 0.72351 0.0
C3225 C 0.62482 0.86766 0.71654 0.0
C3226 C 0.62735 0.88209 0.72568 0.0
C3227 C 0.62028 0.89597 0.71906 0.0
C3228 C 0.61058 0.89557 0.70335 0.0
C3229 C 0.60789 0.88126 0.69425 0.0
C3230 C 0.61493 0.86734 0.70082 0.0
C3231 C 0.64462 0.824 0.79858 0.0
C3232 C 0.62939 0.81843 0.80414 0.0
C3233 C 0.64684 0.82987 0.78081 0.0
C3234 C 0.63383 0.83047 0.76846 0.0
C3235 C 0.61843 0.8258 0.77431 0.0
C3236 C 0.61625 0.81969 0.79196 0.0
C3237 C 0.63657 0.83458 0.74898 0.0
C3238 C 0.62977 0.84847 0.74186 0.0
C3239 C 0.64596 0.82475 0.7375 0.0
C3240 C 0.653 0.8097 0.7442 0.0
C3241 C 0.643 0.79764 0.75111 0.0
C3242 C 0.64973 0.78357 0.75764 0.0
C3243 C 0.66645 0.78136 0.7572 0.0
C3244 C 0.67647 0.79321 0.75016 0.0
C3245 C 0.66979 0.80732 0.74364 0.0
H3246 H 0.67164 0.77045 0.76226 0.0
H3247 H 0.60512 0.90633 0.69824 0.0
H3248 H 0.85061 0.65446 0.6493 0.0
H3249 H 0.84339 0.63652 0.67444 0.0
H3250 H 0.86989 0.6658 0.71253 0.0
H3251 H 0.87728 0.68362 0.68756 0.0
H3252 H 0.87302 0.63431 0.72074 0.0
H3253 H 0.83002 0.67164 0.70582 0.0
H3254 H 0.8101 0.68395 0.68503 0.0
H3255 H 0.78804 0.63868 0.67567 0.0
H3256 H 0.80798 0.62609 0.69624 0.0
H3257 H 0.83495 0.63741 0.80642 0.0
H3258 H 0.84744 0.64049 0.77635 0.0
H3259 H 0.8137 0.607 0.75332 0.0
H3260 H 0.80095 0.60395 0.78344 0.0
H3261 H 0.81425 0.63372 0.73404 0.0
H3262 H 0.85371 0.5978 0.75551 0.0
H3263 H 0.87335 0.58612 0.77705 0.0
H3264 H 0.902 0.62841 0.77481 0.0
H3265 H 0.88241 0.64047 0.75347 0.0
C3266 C 0.85515 0.6569 0.66298 0.0
C3267 C 0.86433 0.67056 0.66653 0.0
C3268 C 0.85101 0.64665 0.6773 0.0
C3269 C 0.85595 0.64996 0.69536 0.0
C3270 C 0.86596 0.66303 0.69869 0.0
C3271 C 0.87008 0.67326 0.68442 0.0
C3272 C 0.84939 0.64098 0.71114 0.0
C3273 C 0.86018 0.63411 0.72369 0.0
C3274 C 0.83259 0.64033 0.71465 0.0
C3275 C 0.8206 0.64791 0.70235 0.0
C3276 C 0.82099 0.66431 0.69921 0.0
C3277 C 0.80969 0.67133 0.68749 0.0
C3278 C 0.79785 0.66209 0.67898 0.0
C3279 C 0.79725 0.64582 0.68223 0.0
C3280 C 0.80854 0.63873 0.69391 0.0
C3281 C 0.83031 0.63051 0.79505 0.0
C3282 C 0.81686 0.62054 0.79731 0.0
C3283 C 0.83757 0.63218 0.77787 0.0
C3284 C 0.8316 0.62385 0.76262 0.0
C3285 C 0.81853 0.61348 0.76494 0.0
C3286 C 0.81127 0.61176 0.78216 0.0
C3287 C 0.83791 0.62746 0.74405 0.0
C3288 C 0.82706 0.6334 0.73094 0.0
C3289 C 0.85465 0.62726 0.7401 0.0
C3290 C 0.86652 0.62007 0.75293 0.0
C3291 C 0.86414 0.60467 0.7597 0.0
C3292 C 0.87527 0.59797 0.77187 0.0
C3293 C 0.8889 0.60652 0.77731 0.0
C3294 C 0.89144 0.6218 0.77058 0.0
C3295 C 0.88033 0.62856 0.75841 0.0
H3296 H 0.89751 0.60131 0.78673 0.0
H3297 H 0.78911 0.66755 0.66992 0.0
H3298 H 0.37505 0.7917 0.77195 0.0
H3299 H 0.36815 0.80936 0.74672 0.0
H3300 H 0.33905 0.83751 0.78338 0.0
H3301 H 0.34581 0.81968 0.80881 0.0
H3302 H 0.32242 0.82856 0.7536 0.0
H3303 H 0.37312 0.85315 0.76428 0.0
H3304 H 0.40244 0.85465 0.76999 0.0
H3305 H 0.4117 0.83288 0.71777 0.0
H3306 H 0.38243 0.83102 0.71184 0.0
H3307 H 0.30043 0.8738 0.67575 0.0
H3308 H 0.31269 0.86841 0.70565 0.0
H3309 H 0.34425 0.83403 0.6807 0.0
H3310 H 0.33219 0.83941 0.65071 0.0
H3311 H 0.35975 0.8515 0.70741 0.0
H3312 H 0.30987 0.82205 0.7001 0.0
H3313 H 0.28065 0.81919 0.69424 0.0
H3314 H 0.27026 0.84927 0.74025 0.0
H3315 H 0.29944 0.85244 0.74625 0.0
C3316 C 0.36741 0.8018 0.77475 0.0
C3317 C 0.36086 0.80424 0.79233 0.0
C3318 C 0.36357 0.81197 0.76033 0.0
C3319 C 0.35318 0.82483 0.7632 0.0
C3320 C 0.34714 0.82769 0.78091 0.0
C3321 C 0.35103 0.81751 0.7954 0.0
C3322 C 0.34723 0.83401 0.74724 0.0
C3323 C 0.33056 0.83398 0.74376 0.0
C3324 C 0.3579 0.84074 0.7342 0.0
C3325 C 0.37555 0.84188 0.73766 0.0
C3326 C 0.3814 0.84858 0.75406 0.0
C3327 C 0.39801 0.84951 0.75733 0.0
C3328 C 0.40892 0.84385 0.74426 0.0
C3329 C 0.40324 0.83727 0.72788 0.0
C3330 C 0.38663 0.8363 0.72454 0.0
C3331 C 0.31013 0.86524 0.67655 0.0
C3332 C 0.3152 0.85688 0.66087 0.0
C3333 C 0.31711 0.86218 0.69366 0.0
C3334 C 0.32922 0.85069 0.69538 0.0
C3335 C 0.3349 0.84295 0.67963 0.0
C3336 C 0.32793 0.84598 0.66252 0.0
C3337 C 0.33505 0.84571 0.71371 0.0
C3338 C 0.35164 0.84647 0.71754 0.0
C3339 C 0.32435 0.83954 0.72707 0.0
C3340 C 0.30682 0.83764 0.72348 0.0
C3341 C 0.30135 0.82815 0.70887 0.0
C3342 C 0.2848 0.82645 0.70555 0.0
C3343 C 0.27361 0.83409 0.71683 0.0
C3344 C 0.27894 0.84339 0.7315 0.0
C3345 C 0.29548 0.84514 0.73488 0.0
H3346 H 0.2608 0.83275 0.71424 0.0
H3347 H 0.42178 0.84458 0.74682 0.0
H3348 H 0.10252 0.292 0.68787 0.0
H3349 H 0.1089 0.30899 0.71388 0.0
H3350 H 0.13596 0.34001 0.67823 0.0
H3351 H 0.12979 0.32283 0.65204 0.0
H3352 H 0.15352 0.33118 0.70686 0.0
H3353 H 0.10125 0.35293 0.6992 0.0
H3354 H 0.07177 0.35299 0.69441 0.0
H3355 H 0.06502 0.32852 0.74553 0.0
H3356 H 0.09447 0.32809 0.75052 0.0
H3357 H 0.17474 0.37412 0.78671 0.0
H3358 H 0.16211 0.36928 0.75689 0.0
H3359 H 0.13323 0.33209 0.78071 0.0
H3360 H 0.14561 0.33696 0.81065 0.0
H3361 H 0.11606 0.34955 0.75555 0.0
H3362 H 0.16822 0.32346 0.75947 0.0
H3363 H 0.19773 0.32268 0.76413 0.0
H3364 H 0.20434 0.3552 0.71943 0.0
H3365 H 0.17483 0.35632 0.71467 0.0
C3366 C 0.10958 0.30259 0.68547 0.0
C3367 C 0.11577 0.30601 0.66794 0.0
C3368 C 0.11312 0.31237 0.70035 0.0
C3369 C 0.12281 0.32584 0.69799 0.0
C3370 C 0.12841 0.32969 0.68034 0.0
C3371 C 0.12487 0.31988 0.6654 0.0
C3372 C 0.12858 0.33467 0.71432 0.0
C3373 C 0.14531 0.3356 0.71727 0.0
C3374 C 0.11787 0.34015 0.72807 0.0
C3375 C 0.10011 0.34041 0.72519 0.0
C3376 C 0.09349 0.34746 0.70937 0.0
C3377 C 0.07678 0.34757 0.70662 0.0
C3378 C 0.06653 0.34075 0.71964 0.0
C3379 C 0.07297 0.33381 0.73546 0.0
C3380 C 0.08968 0.33365 0.73827 0.0
C3381 C 0.16556 0.36503 0.78568 0.0
C3382 C 0.16134 0.35578 0.80103 0.0
C3383 C 0.15836 0.3623 0.76862 0.0
C3384 C 0.14689 0.3502 0.76657 0.0
C3385 C 0.14206 0.34149 0.78202 0.0
C3386 C 0.14922 0.34423 0.7991 0.0
C3387 C 0.1409 0.34567 0.74813 0.0
C3388 C 0.1242 0.3455 0.74487 0.0
C3389 C 0.1516 0.34086 0.73405 0.0
C3390 C 0.16933 0.34013 0.73686 0.0
C3391 C 0.17596 0.33054 0.75073 0.0
C3392 C 0.19268 0.33002 0.75338 0.0
C3393 C 0.2029 0.33893 0.74213 0.0
C3394 C 0.19641 0.34833 0.72816 0.0
C3395 C 0.17969 0.34891 0.72548 0.0
H3396 H 0.21584 0.33851 0.74419 0.0
H3397 H 0.05359 0.34085 0.71749 0.0
H3398 H 0.68225 0.11034 0.67807 0.0
H3399 H 0.66837 0.11624 0.70684 0.0
H3400 H 0.63185 0.14204 0.67697 0.0
H3401 H 0.64588 0.13656 0.64819 0.0
H3402 H 0.64315 0.1591 0.70393 0.0
H3403 H 0.62395 0.10589 0.69838 0.0
H3404 H 0.62633 0.07707 0.69405 0.0
H3405 H 0.65525 0.07367 0.7429 0.0
H3406 H 0.65322 0.1025 0.74739 0.0
H3407 H 0.59635 0.17843 0.7791 0.0
H3408 H 0.60285 0.1635 0.7514 0.0
H3409 H 0.64288 0.14149 0.77945 0.0
H3410 H 0.63621 0.15618 0.80745 0.0
H3411 H 0.62831 0.12142 0.75343 0.0
H3412 H 0.64977 0.17443 0.75705 0.0
H3413 H 0.6479 0.20327 0.76159 0.0
H3414 H 0.61523 0.20679 0.71591 0.0
H3415 H 0.61672 0.17792 0.71128 0.0
C3416 C 0.67115 0.11711 0.67759 0.0
C3417 C 0.66524 0.1231 0.66085 0.0
C3418 C 0.66317 0.12037 0.69405 0.0
C3419 C 0.649 0.12947 0.69405 0.0
C3420 C 0.64278 0.135 0.67729 0.0
C3421 C 0.65083 0.13187 0.66085 0.0
C3422 C 0.64153 0.13453 0.7116 0.0
C3423 C 0.6396 0.1508 0.71456 0.0
C3424 C 0.63738 0.12375 0.72573 0.0
C3425 C 0.63854 0.10639 0.72313 0.0
C3426 C 0.63091 0.09901 0.70812 0.0
C3427 C 0.63218 0.08267 0.70566 0.0
C3428 C 0.64096 0.07355 0.71817 0.0
C3429 C 0.64846 0.08075 0.73321 0.0
C3430 C 0.64723 0.09709 0.73574 0.0
C3431 C 0.60629 0.17011 0.77953 0.0
C3432 C 0.61597 0.16867 0.7953 0.0
C3433 C 0.60997 0.16158 0.7637 0.0
C3434 C 0.62355 0.15168 0.7633 0.0
C3435 C 0.63238 0.14913 0.7795 0.0
C3436 C 0.62859 0.15756 0.79545 0.0
C3437 C 0.6298 0.1459 0.74549 0.0
C3438 C 0.63165 0.12961 0.74259 0.0
C3439 C 0.63397 0.15663 0.73134 0.0
C3440 C 0.63323 0.17401 0.73394 0.0
C3441 C 0.64211 0.18135 0.74806 0.0
C3442 C 0.64112 0.19769 0.75064 0.0
C3443 C 0.63142 0.20685 0.73907 0.0
C3444 C 0.62272 0.19968 0.72487 0.0
C3445 C 0.62364 0.18333 0.72226 0.0
H3446 H 0.63067 0.2195 0.74109 0.0
H3447 H 0.64194 0.0609 0.71623 0.0
H3448 H 0.81999 0.33089 0.1575 0.0
H3449 H 0.83082 0.32668 0.18838 0.0
H3450 H 0.8167 0.37388 0.20379 0.0
H3451 H 0.80545 0.37814 0.17297 0.0
H3452 H 0.85132 0.36015 0.21505 0.0
H3453 H 0.79316 0.35334 0.21924 0.0
H3454 H 0.76705 0.34289 0.20828 0.0
H3455 H 0.78492 0.29544 0.21332 0.0
H3456 H 0.81124 0.30564 0.22403 0.0
H3457 H 0.83843 0.31911 0.31171 0.0
H3458 H 0.82989 0.33647 0.28656 0.0
H3459 H 0.86819 0.31816 0.25256 0.0
H3460 H 0.87667 0.30068 0.27749 0.0
H3461 H 0.81932 0.32332 0.25373 0.0
H3462 H 0.87892 0.34709 0.22167 0.0
H3463 H 0.9054 0.35707 0.23201 0.0
H3464 H 0.88472 0.37095 0.28362 0.0
H3465 H 0.85806 0.36128 0.2735 0.0
C3466 C 0.81939 0.34047 0.16735 0.0
C3467 C 0.81179 0.35481 0.16286 0.0
C3468 C 0.82557 0.33804 0.18495 0.0
C3469 C 0.82449 0.34998 0.19824 0.0
C3470 C 0.81764 0.36458 0.19362 0.0
C3471 C 0.81118 0.36694 0.17608 0.0
C3472 C 0.82942 0.34658 0.21729 0.0
C3473 C 0.84432 0.35224 0.22366 0.0
C3474 C 0.82008 0.33645 0.22846 0.0
C3475 C 0.80421 0.33026 0.22228 0.0
C3476 C 0.79157 0.34069 0.21786 0.0
C3477 C 0.77672 0.33481 0.21172 0.0
C3478 C 0.77434 0.31852 0.21007 0.0
C3479 C 0.78679 0.30806 0.21459 0.0
C3480 C 0.80167 0.31388 0.22072 0.0
C3481 C 0.84529 0.31909 0.29904 0.0
C3482 C 0.85811 0.30844 0.29646 0.0
C3483 C 0.84038 0.32899 0.2847 0.0
C3484 C 0.84843 0.32859 0.26775 0.0
C3485 C 0.86193 0.31876 0.26561 0.0
C3486 C 0.8667 0.30872 0.27982 0.0
C3487 C 0.84148 0.33659 0.25151 0.0
C3488 C 0.82621 0.3316 0.24547 0.0
C3489 C 0.85052 0.34734 0.24072 0.0
C3490 C 0.86649 0.35336 0.24685 0.0
C3491 C 0.87999 0.35235 0.23518 0.0
C3492 C 0.89505 0.35794 0.24102 0.0
C3493 C 0.89675 0.36461 0.25847 0.0
C3494 C 0.8834 0.36574 0.27012 0.0
C3495 C 0.86832 0.36017 0.26435 0.0
H3496 H 0.90842 0.36892 0.26296 0.0
H3497 H 0.76285 0.31399 0.20531 0.0
H3498 H 0.63308 0.82244 0.14943 0.0
H3499 H 0.64201 0.83875 0.17536 0.0
H3500 H 0.60931 0.81369 0.21119 0.0
H3501 H 0.60023 0.79756 0.18543 0.0
H3502 H 0.61138 0.84468 0.22062 0.0
H3503 H 0.64783 0.80139 0.20643 0.0
H3504 H 0.66608 0.78605 0.18646 0.0
H3505 H 0.69611 0.82698 0.17905 0.0
H3506 H 0.67791 0.8426 0.19882 0.0
H3507 H 0.64759 0.83708 0.30796 0.0
H3508 H 0.63547 0.83421 0.27754 0.0
H3509 H 0.67255 0.86401 0.25441 0.0
H3510 H 0.68481 0.86695 0.2848 0.0
H3511 H 0.66916 0.83622 0.23591 0.0
H3512 H 0.63482 0.87766 0.25624 0.0
H3513 H 0.61664 0.89175 0.27745 0.0
H3514 H 0.58257 0.85353 0.27447 0.0
H3515 H 0.60065 0.83909 0.25344 0.0
C3516 C 0.62753 0.82069 0.16275 0.0
C3517 C 0.61613 0.80858 0.16548 0.0
C3518 C 0.63266 0.82997 0.17754 0.0
C3519 C 0.6265 0.82724 0.19524 0.0
C3520 C 0.61425 0.81598 0.19766 0.0
C3521 C 0.60913 0.8067 0.18293 0.0
C3522 C 0.63393 0.83467 0.21161 0.0
C3523 C 0.62401 0.84288 0.22399 0.0
C3524 C 0.65049 0.83257 0.21579 0.0
C3525 C 0.66141 0.82321 0.20388 0.0
C3526 C 0.65825 0.80714 0.20041 0.0
C3527 C 0.6686 0.79839 0.18915 0.0
C3528 C 0.68221 0.80555 0.18144 0.0
C3529 C 0.68554 0.82146 0.185 0.0
C3530 C 0.67522 0.83027 0.19623 0.0
C3531 C 0.65309 0.84317 0.29646 0.0
C3532 C 0.66722 0.85218 0.2988 0.0
C3533 C 0.64607 0.84161 0.2791 0.0
C3534 C 0.65304 0.84902 0.26377 0.0
C3535 C 0.66696 0.85826 0.2661 0.0
C3536 C 0.67394 0.85992 0.28348 0.0
C3537 C 0.64654 0.84594 0.24515 0.0
C3538 C 0.65663 0.83845 0.23237 0.0
C3539 C 0.63012 0.84859 0.24072 0.0
C3540 C 0.61916 0.85724 0.25334 0.0
C3541 C 0.62351 0.8722 0.26021 0.0
C3542 C 0.61321 0.88026 0.27219 0.0
C3543 C 0.59847 0.87352 0.27733 0.0
C3544 C 0.59399 0.85873 0.27047 0.0
C3545 C 0.60425 0.85061 0.2585 0.0
H3546 H 0.59051 0.87978 0.2866 0.0
H3547 H 0.69022 0.79875 0.17274 0.0
H3548 H 0.10192 0.68129 0.27527 0.0
H3549 H 0.10929 0.66388 0.25004 0.0
H3550 H 0.13879 0.63615 0.28681 0.0
H3551 H 0.1316 0.65378 0.31223 0.0
H3552 H 0.15559 0.64558 0.25796 0.0
H3553 H 0.1055 0.61966 0.26599 0.0
H3554 H 0.07616 0.61698 0.27082 0.0
H3555 H 0.0671 0.63995 0.21921 0.0
H3556 H 0.09638 0.64299 0.21418 0.0
H3557 H 0.18023 0.60512 0.1774 0.0
H3558 H 0.16757 0.60852 0.20746 0.0
H3559 H 0.13506 0.64313 0.1845 0.0
H3560 H 0.14747 0.63968 0.15436 0.0
H3561 H 0.11983 0.62381 0.20941 0.0
H3562 H 0.16943 0.65461 0.2056 0.0
H3563 H 0.19875 0.65798 0.20094 0.0
H3564 H 0.20832 0.62579 0.24527 0.0
H3565 H 0.17903 0.62209 0.25003 0.0
C3566 C 0.1097 0.6713 0.27811 0.0
C3567 C 0.11631 0.669 0.29569 0.0
C3568 C 0.11381 0.66126 0.26367 0.0
C3569 C 0.12451 0.64864 0.26655 0.0
C3570 C 0.13047 0.6458 0.28432 0.0
C3571 C 0.12634 0.65586 0.29882 0.0
C3572 C 0.13104 0.63993 0.25052 0.0
C3573 C 0.14778 0.64039 0.2476 0.0
C3574 C 0.12084 0.63342 0.23684 0.0
C3575 C 0.10318 0.63161 0.23975 0.0
C3576 C 0.09726 0.62425 0.25573 0.0
C3577 C 0.08063 0.62265 0.25849 0.0
C3578 C 0.06977 0.62831 0.24534 0.0
C3579 C 0.07553 0.63557 0.22938 0.0
C3580 C 0.09215 0.6372 0.22655 0.0
C3581 C 0.17027 0.61334 0.17868 0.0
C3582 C 0.16499 0.62228 0.16351 0.0
C3583 C 0.16305 0.61525 0.19587 0.0
C3584 C 0.1505 0.6262 0.19822 0.0
C3585 C 0.14472 0.6346 0.18296 0.0
C3586 C 0.15191 0.63269 0.16576 0.0
C3587 C 0.14423 0.62994 0.21676 0.0
C3588 C 0.12759 0.62858 0.22007 0.0
C3589 C 0.15449 0.63565 0.23083 0.0
C3590 C 0.17207 0.63792 0.22801 0.0
C3591 C 0.1778 0.64816 0.21425 0.0
C3592 C 0.1944 0.65015 0.21161 0.0
C3593 C 0.20539 0.64206 0.22276 0.0
C3594 C 0.19979 0.63201 0.23661 0.0
C3595 C 0.1832 0.62997 0.23929 0.0
H3596 H 0.21824 0.64361 0.22069 0.0
H3597 H 0.0569 0.62706 0.24751 0.0
H3598 H 0.31439 0.15322 0.30303 0.0
H3599 H 0.32693 0.15765 0.27315 0.0
H3600 H 0.3319 0.10719 0.26576 0.0
H3601 H 0.31817 0.10278 0.2951 0.0
H3602 H 0.35359 0.15339 0.25895 0.0
H3603 H 0.33182 0.09732 0.22094 0.0
H3604 H 0.30924 0.07824 0.22171 0.0
H3605 H 0.27841 0.11356 0.24542 0.0
H3606 H 0.30074 0.13287 0.24459 0.0
H3607 H 0.38618 0.16536 0.17204 0.0
H3608 H 0.37987 0.15014 0.19977 0.0
H3609 H 0.32935 0.15043 0.18483 0.0
H3610 H 0.33588 0.16433 0.15647 0.0
H3611 H 0.33362 0.12605 0.20308 0.0
H3612 H 0.3491 0.1805 0.21317 0.0
H3613 H 0.36734 0.20357 0.21173 0.0
H3614 H 0.40294 0.17838 0.24313 0.0
H3615 H 0.38496 0.15511 0.24458 0.0
C3616 C 0.31818 0.1431 0.295 0.0
C3617 C 0.31522 0.12768 0.30122 0.0
C3618 C 0.32541 0.14561 0.27794 0.0
C3619 C 0.3302 0.13276 0.26698 0.0
C3620 C 0.32791 0.11732 0.27364 0.0
C3621 C 0.32018 0.1148 0.29045 0.0
C3622 C 0.33721 0.13571 0.24848 0.0
C3623 C 0.34923 0.14734 0.24677 0.0
C3624 C 0.33154 0.12793 0.23247 0.0
C3625 C 0.31801 0.11645 0.23292 0.0
C3626 C 0.32021 0.101 0.22629 0.0
C3627 C 0.30746 0.09016 0.22674 0.0
C3628 C 0.29242 0.09467 0.23368 0.0
C3629 C 0.29008 0.11006 0.24012 0.0
C3630 C 0.30278 0.12095 0.23968 0.0
C3631 C 0.37383 0.16168 0.17447 0.0
C3632 C 0.36148 0.16609 0.1623 0.0
C3633 C 0.37019 0.15312 0.19037 0.0
C3634 C 0.35404 0.14964 0.19479 0.0
C3635 C 0.34189 0.15302 0.18187 0.0
C3636 C 0.34562 0.161 0.16564 0.0
C3637 C 0.34944 0.1442 0.21351 0.0
C3638 C 0.33807 0.13196 0.21531 0.0
C3639 C 0.35501 0.15204 0.22954 0.0
C3640 C 0.36579 0.16603 0.22879 0.0
C3641 C 0.36086 0.17988 0.21968 0.0
C3642 C 0.37114 0.19298 0.21887 0.0
C3643 C 0.38631 0.19242 0.22728 0.0
C3644 C 0.39121 0.17878 0.23658 0.0
C3645 C 0.38098 0.16563 0.23741 0.0
H3646 H 0.39426 0.20257 0.22663 0.0
H3647 H 0.28257 0.08625 0.23404 0.0
loop_
_geom_bond_atom_site_label_1
_geom_bond_atom_site_label_2
_geom_bond_distance
_geom_bond_site_symmetry_2
_ccdc_geom_bond_type
C0 O1 1.306 . S
C0 O3 1.160 . S
O1 C0 1.306 . S
O1 Cd2 2.228 . S
Cd2 O1 2.228 . S
Cd2 O6 2.273 . S
Cd2 O10 2.277 . S
O3 C0 1.160 . S
O3 Cd4 2.203 . S
Cd4 O3 2.203 . S
Cd4 O6 2.411 . S
Cd4 O7 2.333 . S
Cd4 O8 2.352 . S
Cd4 O12 2.277 . S
Cd4 O13 2.356 . S
C5 O10 1.209 . S
C5 O12 1.226 . S
O6 Cd2 2.273 . S
O6 Cd4 2.411 . S
O6 C9 1.320 . S
O7 Cd4 2.333 . S
O7 C9 1.214 . S
O8 Cd4 2.352 . S
O8 C11 1.258 . S
C9 O6 1.320 . S
C9 O7 1.214 . S
O10 Cd2 2.277 . S
O10 C5 1.209 . S
C11 O8 1.258 . S
C11 O13 1.282 . S
O12 Cd4 2.277 . S
O12 C5 1.226 . S
O13 Cd4 2.356 . S
O13 C11 1.282 . S
C14 O15 1.306 . S
C14 O17 1.160 . S
O15 C14 1.306 . S
O15 Cd16 2.228 . S
Cd16 O15 2.228 . S
Cd16 O20 2.273 . S
Cd16 O24 2.277 . S
O17 C14 1.160 . S
O17 Cd18 2.203 . S
Cd18 O17 2.203 . S
Cd18 O20 2.411 . S
Cd18 O21 2.333 . S
Cd18 O22 2.352 . S
Cd18 O26 2.277 . S
Cd18 O27 2.356 . S
C19 O24 1.209 . S
C19 O26 1.226 . S
O20 Cd16 2.273 . S
O20 Cd18 2.411 . S
O20 C23 1.320 . S
O21 Cd18 2.333 . S
O21 C23 1.214 . S
O22 Cd18 2.352 . S
O22 C25 1.258 . S
C23 O20 1.320 . S
C23 O21 1.214 . S
O24 Cd16 2.277 . S
O24 C19 1.209 . S
C25 O22 1.258 . S
C25 O27 1.282 . S
O26 Cd18 2.277 . S
O26 C19 1.226 . S
O27 Cd18 2.356 . S
O27 C25 1.282 . S
C28 O29 1.306 . S
C28 O31 1.160 . S
O29 C28 1.306 . S
O29 Cd30 2.228 . S
Cd30 O29 2.228 . S
Cd30 O34 2.273 . S
Cd30 O38 2.277 . S
O31 C28 1.160 . S
O31 Cd32 2.203 . S
Cd32 O31 2.203 . S
Cd32 O34 2.411 . S
Cd32 O35 2.333 . S
Cd32 O36 2.352 . S
Cd32 O40 2.277 . S
Cd32 O41 2.356 . S
C33 O38 1.209 . S
C33 O40 1.226 . S
O34 Cd30 2.273 . S
O34 Cd32 2.411 . S
O34 C37 1.320 . S
O35 Cd32 2.333 . S
O35 C37 1.214 . S
O36 Cd32 2.352 . S
O36 C39 1.258 . S
C37 O34 1.320 . S
C37 O35 1.214 . S
O38 Cd30 2.277 . S
O38 C33 1.209 . S
C39 O36 1.258 . S
C39 O41 1.282 . S
O40 Cd32 2.277 . S
O40 C33 1.226 . S
O41 Cd32 2.356 . S
O41 C39 1.282 . S
C42 O43 1.306 . S
C42 O45 1.160 . S
O43 C42 1.306 . S
O43 Cd44 2.228 . S
Cd44 O43 2.228 . S
Cd44 O48 2.273 . S
Cd44 O52 2.277 . S
O45 C42 1.160 . S
O45 Cd46 2.203 . S
Cd46 O45 2.203 . S
Cd46 O48 2.411 . S
Cd46 O49 2.333 . S
Cd46 O50 2.352 . S
Cd46 O54 2.277 . S
Cd46 O55 2.356 . S
C47 O52 1.209 . S
C47 O54 1.226 . S
O48 Cd44 2.273 . S
O48 Cd46 2.411 . S
O48 C51 1.320 . S
O49 Cd46 2.333 . S
O49 C51 1.214 . S
O50 Cd46 2.352 . S
O50 C53 1.258 . S
C51 O48 1.320 . S
C51 O49 1.214 . S
O52 Cd44 2.277 . S
O52 C47 1.209 . S
C53 O50 1.258 . S
C53 O55 1.282 . S
O54 Cd46 2.277 . S
O54 C47 1.226 . S
O55 Cd46 2.356 . S
O55 C53 1.282 . S
C56 O57 1.306 . S
C56 O59 1.160 . S
O57 C56 1.306 . S
O57 Cd58 2.228 . S
Cd58 O57 2.228 . S
Cd58 O62 2.273 . S
Cd58 O66 2.277 . S
O59 C56 1.160 . S
O59 Cd60 2.203 . S
Cd60 O59 2.203 . S
Cd60 O62 2.411 . S
Cd60 O63 2.333 . S
Cd60 O64 2.352 . S
Cd60 O68 2.277 . S
Cd60 O69 2.356 . S
C61 O66 1.209 . S
C61 O68 1.226 . S
O62 Cd58 2.273 . S
O62 Cd60 2.411 . S
O62 C65 1.320 . S
O63 Cd60 2.333 . S
O63 C65 1.214 . S
O64 Cd60 2.352 . S
O64 C67 1.258 . S
C65 O62 1.320 . S
C65 O63 1.214 . S
O66 Cd58 2.277 . S
O66 C61 1.209 . S
C67 O64 1.258 . S
C67 O69 1.282 . S
O68 Cd60 2.277 . S
O68 C61 1.226 . S
O69 Cd60 2.356 . S
O69 C67 1.282 . S
C70 O71 1.306 . S
C70 O73 1.160 . S
O71 C70 1.306 . S
O71 Cd72 2.228 . S
Cd72 O71 2.228 . S
Cd72 O76 2.273 . S
Cd72 O80 2.277 . S
O73 C70 1.160 . S
O73 Cd74 2.203 . S
Cd74 O73 2.203 . S
Cd74 O76 2.411 . S
Cd74 O77 2.333 . S
Cd74 O78 2.352 . S
Cd74 O82 2.277 . S
Cd74 O83 2.356 . S
C75 O80 1.209 . S
C75 O82 1.226 . S
O76 Cd72 2.273 . S
O76 Cd74 2.411 . S
O76 C79 1.320 . S
O77 Cd74 2.333 . S
O77 C79 1.214 . S
O78 Cd74 2.352 . S
O78 C81 1.258 . S
C79 O76 1.320 . S
C79 O77 1.214 . S
O80 Cd72 2.277 . S
O80 C75 1.209 . S
C81 O78 1.258 . S
C81 O83 1.282 . S
O82 Cd74 2.277 . S
O82 C75 1.226 . S
O83 Cd74 2.356 . S
O83 C81 1.282 . S
C84 O85 1.306 . S
C84 O87 1.160 . S
O85 C84 1.306 . S
O85 Cd86 2.228 . S
Cd86 O85 2.228 . S
Cd86 O90 2.273 . S
Cd86 O94 2.277 . S
O87 C84 1.160 . S
O87 Cd88 2.203 . S
Cd88 O87 2.203 . S
Cd88 O90 2.411 . S
Cd88 O91 2.333 . S
Cd88 O92 2.352 . S
Cd88 O96 2.277 . S
Cd88 O97 2.356 . S
C89 O94 1.209 . S
C89 O96 1.226 . S
O90 Cd86 2.273 . S
O90 Cd88 2.411 . S
O90 C93 1.320 . S
O91 Cd88 2.333 . S
O91 C93 1.214 . S
O92 Cd88 2.352 . S
O92 C95 1.258 . S
C93 O90 1.320 . S
C93 O91 1.214 . S
O94 Cd86 2.277 . S
O94 C89 1.209 . S
C95 O92 1.258 . S
C95 O97 1.282 . S
O96 Cd88 2.277 . S
O96 C89 1.226 . S
O97 Cd88 2.356 . S
O97 C95 1.282 . S
C98 O99 1.306 . S
C98 O101 1.160 . S
O99 C98 1.306 . S
O99 Cd100 2.228 . S
Cd100 O99 2.228 . S
Cd100 O104 2.273 . S
Cd100 O108 2.277 . S
O101 C98 1.160 . S
O101 Cd102 2.203 . S
Cd102 O101 2.203 . S
Cd102 O104 2.411 . S
Cd102 O105 2.333 . S
Cd102 O106 2.352 . S
Cd102 O110 2.277 . S
Cd102 O111 2.356 . S
C103 O108 1.209 . S
C103 O110 1.226 . S
O104 Cd100 2.273 . S
O104 Cd102 2.411 . S
O104 C107 1.320 . S
O105 Cd102 2.333 . S
O105 C107 1.214 . S
O106 Cd102 2.352 . S
O106 C109 1.258 . S
C107 O104 1.320 . S
C107 O105 1.214 . S
O108 Cd100 2.277 . S
O108 C103 1.209 . S
C109 O106 1.258 . S
C109 O111 1.282 . S
O110 Cd102 2.277 . S
O110 C103 1.226 . S
O111 Cd102 2.356 . S
O111 C109 1.282 . S
C112 O113 1.306 . S
C112 O115 1.160 . S
O113 C112 1.306 . S
O113 Cd114 2.228 . S
Cd114 O113 2.228 . S
Cd114 O118 2.273 . S
Cd114 O122 2.277 . S
O115 C112 1.160 . S
O115 Cd116 2.203 . S
Cd116 O115 2.203 . S
Cd116 O118 2.411 . S
Cd116 O119 2.333 . S
Cd116 O120 2.352 . S
Cd116 O124 2.277 . S
Cd116 O125 2.356 . S
C117 O122 1.209 . S
C117 O124 1.226 . S
O118 Cd114 2.273 . S
O118 Cd116 2.411 . S
O118 C121 1.320 . S
O119 Cd116 2.333 . S
O119 C121 1.214 . S
O120 Cd116 2.352 . S
O120 C123 1.258 . S
C121 O118 1.320 . S
C121 O119 1.214 . S
O122 Cd114 2.277 . S
O122 C117 1.209 . S
C123 O120 1.258 . S
C123 O125 1.282 . S
O124 Cd116 2.277 . S
O124 C117 1.226 . S
O125 Cd116 2.356 . S
O125 C123 1.282 . S
C126 O127 1.306 . S
C126 O129 1.160 . S
O127 C126 1.306 . S
O127 Cd128 2.228 . S
Cd128 O127 2.228 . S
Cd128 O132 2.273 . S
Cd128 O136 2.277 . S
O129 C126 1.160 . S
O129 Cd130 2.203 . S
Cd130 O129 2.203 . S
Cd130 O132 2.411 . S
Cd130 O133 2.333 . S
Cd130 O134 2.352 . S
Cd130 O138 2.277 . S
Cd130 O139 2.356 . S
C131 O136 1.209 . S
C131 O138 1.226 . S
O132 Cd128 2.273 . S
O132 Cd130 2.411 . S
O132 C135 1.320 . S
O133 Cd130 2.333 . S
O133 C135 1.214 . S
O134 Cd130 2.352 . S
O134 C137 1.258 . S
C135 O132 1.320 . S
C135 O133 1.214 . S
O136 Cd128 2.277 . S
O136 C131 1.209 . S
C137 O134 1.258 . S
C137 O139 1.282 . S
O138 Cd130 2.277 . S
O138 C131 1.226 . S
O139 Cd130 2.356 . S
O139 C137 1.282 . S
C140 O141 1.306 . S
C140 O143 1.160 . S
O141 C140 1.306 . S
O141 Cd142 2.228 . S
Cd142 O141 2.228 . S
Cd142 O146 2.273 . S
Cd142 O150 2.277 . S
O143 C140 1.160 . S
O143 Cd144 2.203 . S
Cd144 O143 2.203 . S
Cd144 O146 2.411 . S
Cd144 O147 2.333 . S
Cd144 O148 2.352 . S
Cd144 O152 2.277 . S
Cd144 O153 2.356 . S
C145 O150 1.209 . S
C145 O152 1.226 . S
O146 Cd142 2.273 . S
O146 Cd144 2.411 . S
O146 C149 1.320 . S
O147 Cd144 2.333 . S
O147 C149 1.214 . S
O148 Cd144 2.352 . S
O148 C151 1.258 . S
C149 O146 1.320 . S
C149 O147 1.214 . S
O150 Cd142 2.277 . S
O150 C145 1.209 . S
C151 O148 1.258 . S
C151 O153 1.282 . S
O152 Cd144 2.277 . S
O152 C145 1.226 . S
O153 Cd144 2.356 . S
O153 C151 1.282 . S
C154 O155 1.306 . S
C154 O157 1.160 . S
O155 C154 1.306 . S
O155 Cd156 2.228 . S
Cd156 O155 2.228 . S
Cd156 O160 2.273 . S
Cd156 O164 2.277 . S
O157 C154 1.160 . S
O157 Cd158 2.203 . S
Cd158 O157 2.203 . S
Cd158 O160 2.411 . S
Cd158 O161 2.333 . S
Cd158 O162 2.352 . S
Cd158 O166 2.277 . S
Cd158 O167 2.356 . S
C159 O164 1.209 . S
C159 O166 1.226 . S
O160 Cd156 2.273 . S
O160 Cd158 2.411 . S
O160 C163 1.320 . S
O161 Cd158 2.333 . S
O161 C163 1.214 . S
O162 Cd158 2.352 . S
O162 C165 1.258 . S
C163 O160 1.320 . S
C163 O161 1.214 . S
O164 Cd156 2.277 . S
O164 C159 1.209 . S
C165 O162 1.258 . S
C165 O167 1.282 . S
O166 Cd158 2.277 . S
O166 C159 1.226 . S
O167 Cd158 2.356 . S
O167 C165 1.282 . S
C168 O169 1.306 . S
C168 O171 1.160 . S
O169 C168 1.306 . S
O169 Cd170 2.228 . S
Cd170 O169 2.228 . S
Cd170 O174 2.273 . S
Cd170 O178 2.277 . S
O171 C168 1.160 . S
O171 Cd172 2.203 . S
Cd172 O171 2.203 . S
Cd172 O174 2.411 . S
Cd172 O175 2.333 . S
Cd172 O176 2.352 . S
Cd172 O180 2.277 . S
Cd172 O181 2.356 . S
C173 O178 1.209 . S
C173 O180 1.226 . S
O174 Cd170 2.273 . S
O174 Cd172 2.411 . S
O174 C177 1.320 . S
O175 Cd172 2.333 . S
O175 C177 1.214 . S
O176 Cd172 2.352 . S
O176 C179 1.258 . S
C177 O174 1.320 . S
C177 O175 1.214 . S
O178 Cd170 2.277 . S
O178 C173 1.209 . S
C179 O176 1.258 . S
C179 O181 1.282 . S
O180 Cd172 2.277 . S
O180 C173 1.226 . S
O181 Cd172 2.356 . S
O181 C179 1.282 . S
C182 O183 1.306 . S
C182 O185 1.160 . S
O183 C182 1.306 . S
O183 Cd184 2.228 . S
Cd184 O183 2.228 . S
Cd184 O188 2.273 . S
Cd184 O192 2.277 . S
O185 C182 1.160 . S
O185 Cd186 2.203 . S
Cd186 O185 2.203 . S
Cd186 O188 2.411 . S
Cd186 O189 2.333 . S
Cd186 O190 2.352 . S
Cd186 O194 2.277 . S
Cd186 O195 2.356 . S
C187 O192 1.209 . S
C187 O194 1.226 . S
O188 Cd184 2.273 . S
O188 Cd186 2.411 . S
O188 C191 1.320 . S
O189 Cd186 2.333 . S
O189 C191 1.214 . S
O190 Cd186 2.352 . S
O190 C193 1.258 . S
C191 O188 1.320 . S
C191 O189 1.214 . S
O192 Cd184 2.277 . S
O192 C187 1.209 . S
C193 O190 1.258 . S
C193 O195 1.282 . S
O194 Cd186 2.277 . S
O194 C187 1.226 . S
O195 Cd186 2.356 . S
O195 C193 1.282 . S
C196 O197 1.306 . S
C196 O199 1.160 . S
O197 C196 1.306 . S
O197 Cd198 2.228 . S
Cd198 O197 2.228 . S
Cd198 O202 2.273 . S
Cd198 O206 2.277 . S
O199 C196 1.160 . S
O199 Cd200 2.203 . S
Cd200 O199 2.203 . S
Cd200 O202 2.411 . S
Cd200 O203 2.333 . S
Cd200 O204 2.352 . S
Cd200 O208 2.277 . S
Cd200 O209 2.356 . S
C201 O206 1.209 . S
C201 O208 1.226 . S
O202 Cd198 2.273 . S
O202 Cd200 2.411 . S
O202 C205 1.320 . S
O203 Cd200 2.333 . S
O203 C205 1.214 . S
O204 Cd200 2.352 . S
O204 C207 1.258 . S
C205 O202 1.320 . S
C205 O203 1.214 . S
O206 Cd198 2.277 . S
O206 C201 1.209 . S
C207 O204 1.258 . S
C207 O209 1.282 . S
O208 Cd200 2.277 . S
O208 C201 1.226 . S
O209 Cd200 2.356 . S
O209 C207 1.282 . S
C210 O211 1.306 . S
C210 O213 1.160 . S
O211 C210 1.306 . S
O211 Cd212 2.228 . S
Cd212 O211 2.228 . S
Cd212 O216 2.273 . S
Cd212 O220 2.277 . S
O213 C210 1.160 . S
O213 Cd214 2.203 . S
Cd214 O213 2.203 . S
Cd214 O216 2.411 . S
Cd214 O217 2.333 . S
Cd214 O218 2.352 . S
Cd214 O222 2.277 . S
Cd214 O223 2.356 . S
C215 O220 1.209 . S
C215 O222 1.226 . S
O216 Cd212 2.273 . S
O216 Cd214 2.411 . S
O216 C219 1.320 . S
O217 Cd214 2.333 . S
O217 C219 1.214 . S
O218 Cd214 2.352 . S
O218 C221 1.258 . S
C219 O216 1.320 . S
C219 O217 1.214 . S
O220 Cd212 2.277 . S
O220 C215 1.209 . S
C221 O218 1.258 . S
C221 O223 1.282 . S
O222 Cd214 2.277 . S
O222 C215 1.226 . S
O223 Cd214 2.356 . S
O223 C221 1.282 . S
C224 O225 1.306 . S
C224 O227 1.160 . S
O225 C224 1.306 . S
O225 Cd226 2.228 . S
Cd226 O225 2.228 . S
Cd226 O230 2.273 . S
Cd226 O234 2.277 . S
O227 C224 1.160 . S
O227 Cd228 2.203 . S
Cd228 O227 2.203 . S
Cd228 O230 2.411 . S
Cd228 O231 2.333 . S
Cd228 O232 2.352 . S
Cd228 O236 2.277 . S
Cd228 O237 2.356 . S
C229 O234 1.209 . S
C229 O236 1.226 . S
O230 Cd226 2.273 . S
O230 Cd228 2.411 . S
O230 C233 1.320 . S
O231 Cd228 2.333 . S
O231 C233 1.214 . S
O232 Cd228 2.352 . S
O232 C235 1.258 . S
C233 O230 1.320 . S
C233 O231 1.214 . S
O234 Cd226 2.277 . S
O234 C229 1.209 . S
C235 O232 1.258 . S
C235 O237 1.282 . S
O236 Cd228 2.277 . S
O236 C229 1.226 . S
O237 Cd228 2.356 . S
O237 C235 1.282 . S
C238 O239 1.306 . S
C238 O241 1.160 . S
O239 C238 1.306 . S
O239 Cd240 2.228 . S
Cd240 O239 2.228 . S
Cd240 O244 2.273 . S
Cd240 O248 2.277 . S
O241 C238 1.160 . S
O241 Cd242 2.203 . S
Cd242 O241 2.203 . S
Cd242 O244 2.411 . S
Cd242 O245 2.333 . S
Cd242 O246 2.352 . S
Cd242 O250 2.277 . S
Cd242 O251 2.356 . S
C243 O248 1.209 . S
C243 O250 1.226 . S
O244 Cd240 2.273 . S
O244 Cd242 2.411 . S
O244 C247 1.320 . S
O245 Cd242 2.333 . S
O245 C247 1.214 . S
O246 Cd242 2.352 . S
O246 C249 1.258 . S
C247 O244 1.320 . S
C247 O245 1.214 . S
O248 Cd240 2.277 . S
O248 C243 1.209 . S
C249 O246 1.258 . S
C249 O251 1.282 . S
O250 Cd242 2.277 . S
O250 C243 1.226 . S
O251 Cd242 2.356 . S
O251 C249 1.282 . S
C252 O253 1.306 . S
C252 O255 1.160 . S
O253 C252 1.306 . S
O253 Cd254 2.228 . S
Cd254 O253 2.228 . S
Cd254 O258 2.273 . S
Cd254 O262 2.277 . S
O255 C252 1.160 . S
O255 Cd256 2.203 . S
Cd256 O255 2.203 . S
Cd256 O258 2.411 . S
Cd256 O259 2.333 . S
Cd256 O260 2.352 . S
Cd256 O264 2.277 . S
Cd256 O265 2.356 . S
C257 O262 1.209 . S
C257 O264 1.226 . S
O258 Cd254 2.273 . S
O258 Cd256 2.411 . S
O258 C261 1.320 . S
O259 Cd256 2.333 . S
O259 C261 1.214 . S
O260 Cd256 2.352 . S
O260 C263 1.258 . S
C261 O258 1.320 . S
C261 O259 1.214 . S
O262 Cd254 2.277 . S
O262 C257 1.209 . S
C263 O260 1.258 . S
C263 O265 1.282 . S
O264 Cd256 2.277 . S
O264 C257 1.226 . S
O265 Cd256 2.356 . S
O265 C263 1.282 . S
C266 O267 1.306 . S
C266 O269 1.160 . S
O267 C266 1.306 . S
O267 Cd268 2.228 . S
Cd268 O267 2.228 . S
Cd268 O272 2.273 . S
Cd268 O276 2.277 . S
O269 C266 1.160 . S
O269 Cd270 2.203 . S
Cd270 O269 2.203 . S
Cd270 O272 2.411 . S
Cd270 O273 2.333 . S
Cd270 O274 2.352 . S
Cd270 O278 2.277 . S
Cd270 O279 2.356 . S
C271 O276 1.209 . S
C271 O278 1.226 . S
O272 Cd268 2.273 . S
O272 Cd270 2.411 . S
O272 C275 1.320 . S
O273 Cd270 2.333 . S
O273 C275 1.214 . S
O274 Cd270 2.352 . S
O274 C277 1.258 . S
C275 O272 1.320 . S
C275 O273 1.214 . S
O276 Cd268 2.277 . S
O276 C271 1.209 . S
C277 O274 1.258 . S
C277 O279 1.282 . S
O278 Cd270 2.277 . S
O278 C271 1.226 . S
O279 Cd270 2.356 . S
O279 C277 1.282 . S
C280 O281 1.306 . S
C280 O283 1.160 . S
O281 C280 1.306 . S
O281 Cd282 2.228 . S
Cd282 O281 2.228 . S
Cd282 O286 2.273 . S
Cd282 O290 2.277 . S
O283 C280 1.160 . S
O283 Cd284 2.203 . S
Cd284 O283 2.203 . S
Cd284 O286 2.411 . S
Cd284 O287 2.333 . S
Cd284 O288 2.352 . S
Cd284 O292 2.277 . S
Cd284 O293 2.356 . S
C285 O290 1.209 . S
C285 O292 1.226 . S
O286 Cd282 2.273 . S
O286 Cd284 2.411 . S
O286 C289 1.320 . S
O287 Cd284 2.333 . S
O287 C289 1.214 . S
O288 Cd284 2.352 . S
O288 C291 1.258 . S
C289 O286 1.320 . S
C289 O287 1.214 . S
O290 Cd282 2.277 . S
O290 C285 1.209 . S
C291 O288 1.258 . S
C291 O293 1.282 . S
O292 Cd284 2.277 . S
O292 C285 1.226 . S
O293 Cd284 2.356 . S
O293 C291 1.282 . S
C294 O295 1.306 . S
C294 O297 1.160 . S
O295 C294 1.306 . S
O295 Cd296 2.228 . S
Cd296 O295 2.228 . S
Cd296 O300 2.273 . S
Cd296 O304 2.277 . S
O297 C294 1.160 . S
O297 Cd298 2.203 . S
Cd298 O297 2.203 . S
Cd298 O300 2.411 . S
Cd298 O301 2.333 . S
Cd298 O302 2.352 . S
Cd298 O306 2.277 . S
Cd298 O307 2.356 . S
C299 O304 1.209 . S
C299 O306 1.226 . S
O300 Cd296 2.273 . S
O300 Cd298 2.411 . S
O300 C303 1.320 . S
O301 Cd298 2.333 . S
O301 C303 1.214 . S
O302 Cd298 2.352 . S
O302 C305 1.258 . S
C303 O300 1.320 . S
C303 O301 1.214 . S
O304 Cd296 2.277 . S
O304 C299 1.209 . S
C305 O302 1.258 . S
C305 O307 1.282 . S
O306 Cd298 2.277 . S
O306 C299 1.226 . S
O307 Cd298 2.356 . S
O307 C305 1.282 . S
C308 O309 1.306 . S
C308 O311 1.160 . S
O309 C308 1.306 . S
O309 Cd310 2.228 . S
Cd310 O309 2.228 . S
Cd310 O314 2.273 . S
Cd310 O318 2.277 . S
O311 C308 1.160 . S
O311 Cd312 2.203 . S
Cd312 O311 2.203 . S
Cd312 O314 2.411 . S
Cd312 O315 2.333 . S
Cd312 O316 2.352 . S
Cd312 O320 2.277 . S
Cd312 O321 2.356 . S
C313 O318 1.209 . S
C313 O320 1.226 . S
O314 Cd310 2.273 . S
O314 Cd312 2.411 . S
O314 C317 1.320 . S
O315 Cd312 2.333 . S
O315 C317 1.214 . S
O316 Cd312 2.352 . S
O316 C319 1.258 . S
C317 O314 1.320 . S
C317 O315 1.214 . S
O318 Cd310 2.277 . S
O318 C313 1.209 . S
C319 O316 1.258 . S
C319 O321 1.282 . S
O320 Cd312 2.277 . S
O320 C313 1.226 . S
O321 Cd312 2.356 . S
O321 C319 1.282 . S
C322 O323 1.306 . S
C322 O325 1.160 . S
O323 C322 1.306 . S
O323 Cd324 2.228 . S
Cd324 O323 2.228 . S
Cd324 O328 2.273 . S
Cd324 O332 2.277 . S
O325 C322 1.160 . S
O325 Cd326 2.203 . S
Cd326 O325 2.203 . S
Cd326 O328 2.411 . S
Cd326 O329 2.333 . S
Cd326 O330 2.352 . S
Cd326 O334 2.277 . S
Cd326 O335 2.356 . S
C327 O332 1.209 . S
C327 O334 1.226 . S
O328 Cd324 2.273 . S
O328 Cd326 2.411 . S
O328 C331 1.320 . S
O329 Cd326 2.333 . S
O329 C331 1.214 . S
O330 Cd326 2.352 . S
O330 C333 1.258 . S
C331 O328 1.320 . S
C331 O329 1.214 . S
O332 Cd324 2.277 . S
O332 C327 1.209 . S
C333 O330 1.258 . S
C333 O335 1.282 . S
O334 Cd326 2.277 . S
O334 C327 1.226 . S
O335 Cd326 2.356 . S
O335 C333 1.282 . S
C336 O337 1.306 . S
C336 O339 1.160 . S
O337 C336 1.306 . S
O337 Cd338 2.228 . S
Cd338 O337 2.228 . S
Cd338 O342 2.273 . S
Cd338 O346 2.277 . S
O339 C336 1.160 . S
O339 Cd340 2.203 . S
Cd340 O339 2.203 . S
Cd340 O342 2.411 . S
Cd340 O343 2.333 . S
Cd340 O344 2.352 . S
Cd340 O348 2.277 . S
Cd340 O349 2.356 . S
C341 O346 1.209 . S
C341 O348 1.226 . S
O342 Cd338 2.273 . S
O342 Cd340 2.411 . S
O342 C345 1.320 . S
O343 Cd340 2.333 . S
O343 C345 1.214 . S
O344 Cd340 2.352 . S
O344 C347 1.258 . S
C345 O342 1.320 . S
C345 O343 1.214 . S
O346 Cd338 2.277 . S
O346 C341 1.209 . S
C347 O344 1.258 . S
C347 O349 1.282 . S
O348 Cd340 2.277 . S
O348 C341 1.226 . S
O349 Cd340 2.356 . S
O349 C347 1.282 . S
C350 O351 1.306 . S
C350 O353 1.160 . S
O351 C350 1.306 . S
O351 Cd352 2.228 . S
Cd352 O351 2.228 . S
Cd352 O356 2.273 . S
Cd352 O360 2.277 . S
O353 C350 1.160 . S
O353 Cd354 2.203 . S
Cd354 O353 2.203 . S
Cd354 O356 2.411 . S
Cd354 O357 2.333 . S
Cd354 O358 2.352 . S
Cd354 O362 2.277 . S
Cd354 O363 2.356 . S
C355 O360 1.209 . S
C355 O362 1.226 . S
O356 Cd352 2.273 . S
O356 Cd354 2.411 . S
O356 C359 1.320 . S
O357 Cd354 2.333 . S
O357 C359 1.214 . S
O358 Cd354 2.352 . S
O358 C361 1.258 . S
C359 O356 1.320 . S
C359 O357 1.214 . S
O360 Cd352 2.277 . S
O360 C355 1.209 . S
C361 O358 1.258 . S
C361 O363 1.282 . S
O362 Cd354 2.277 . S
O362 C355 1.226 . S
O363 Cd354 2.356 . S
O363 C361 1.282 . S
C364 O365 1.306 . S
C364 O367 1.160 . S
O365 C364 1.306 . S
O365 Cd366 2.228 . S
Cd366 O365 2.228 . S
Cd366 O370 2.273 . S
Cd366 O374 2.277 . S
O367 C364 1.160 . S
O367 Cd368 2.203 . S
Cd368 O367 2.203 . S
Cd368 O370 2.411 . S
Cd368 O371 2.333 . S
Cd368 O372 2.352 . S
Cd368 O376 2.277 . S
Cd368 O377 2.356 . S
C369 O374 1.209 . S
C369 O376 1.226 . S
O370 Cd366 2.273 . S
O370 Cd368 2.411 . S
O370 C373 1.320 . S
O371 Cd368 2.333 . S
O371 C373 1.214 . S
O372 Cd368 2.352 . S
O372 C375 1.258 . S
C373 O370 1.320 . S
C373 O371 1.214 . S
O374 Cd366 2.277 . S
O374 C369 1.209 . S
C375 O372 1.258 . S
C375 O377 1.282 . S
O376 Cd368 2.277 . S
O376 C369 1.226 . S
O377 Cd368 2.356 . S
O377 C375 1.282 . S
C378 O379 1.306 . S
C378 O381 1.160 . S
O379 C378 1.306 . S
O379 Cd380 2.228 . S
Cd380 O379 2.228 . S
Cd380 O384 2.273 . S
Cd380 O388 2.277 . S
O381 C378 1.160 . S
O381 Cd382 2.203 . S
Cd382 O381 2.203 . S
Cd382 O384 2.411 . S
Cd382 O385 2.333 . S
Cd382 O386 2.352 . S
Cd382 O390 2.277 . S
Cd382 O391 2.356 . S
C383 O388 1.209 . S
C383 O390 1.226 . S
O384 Cd380 2.273 . S
O384 Cd382 2.411 . S
O384 C387 1.320 . S
O385 Cd382 2.333 . S
O385 C387 1.214 . S
O386 Cd382 2.352 . S
O386 C389 1.258 . S
C387 O384 1.320 . S
C387 O385 1.214 . S
O388 Cd380 2.277 . S
O388 C383 1.209 . S
C389 O386 1.258 . S
C389 O391 1.282 . S
O390 Cd382 2.277 . S
O390 C383 1.226 . S
O391 Cd382 2.356 . S
O391 C389 1.282 . S
C392 O393 1.306 . S
C392 O395 1.160 . S
O393 C392 1.306 . S
O393 Cd394 2.228 . S
Cd394 O393 2.228 . S
Cd394 O398 2.273 . S
Cd394 O402 2.277 . S
O395 C392 1.160 . S
O395 Cd396 2.203 . S
Cd396 O395 2.203 . S
Cd396 O398 2.411 . S
Cd396 O399 2.333 . S
Cd396 O400 2.352 . S
Cd396 O404 2.277 . S
Cd396 O405 2.356 . S
C397 O402 1.209 . S
C397 O404 1.226 . S
O398 Cd394 2.273 . S
O398 Cd396 2.411 . S
O398 C401 1.320 . S
O399 Cd396 2.333 . S
O399 C401 1.214 . S
O400 Cd396 2.352 . S
O400 C403 1.258 . S
C401 O398 1.320 . S
C401 O399 1.214 . S
O402 Cd394 2.277 . S
O402 C397 1.209 . S
C403 O400 1.258 . S
C403 O405 1.282 . S
O404 Cd396 2.277 . S
O404 C397 1.226 . S
O405 Cd396 2.356 . S
O405 C403 1.282 . S
C406 O407 1.306 . S
C406 O409 1.160 . S
O407 C406 1.306 . S
O407 Cd408 2.228 . S
Cd408 O407 2.228 . S
Cd408 O412 2.273 . S
Cd408 O416 2.277 . S
O409 C406 1.160 . S
O409 Cd410 2.203 . S
Cd410 O409 2.203 . S
Cd410 O412 2.411 . S
Cd410 O413 2.333 . S
Cd410 O414 2.352 . S
Cd410 O418 2.277 . S
Cd410 O419 2.356 . S
C411 O416 1.209 . S
C411 O418 1.226 . S
O412 Cd408 2.273 . S
O412 Cd410 2.411 . S
O412 C415 1.320 . S
O413 Cd410 2.333 . S
O413 C415 1.214 . S
O414 Cd410 2.352 . S
O414 C417 1.258 . S
C415 O412 1.320 . S
C415 O413 1.214 . S
O416 Cd408 2.277 . S
O416 C411 1.209 . S
C417 O414 1.258 . S
C417 O419 1.282 . S
O418 Cd410 2.277 . S
O418 C411 1.226 . S
O419 Cd410 2.356 . S
O419 C417 1.282 . S
C420 O421 1.306 . S
C420 O423 1.160 . S
O421 C420 1.306 . S
O421 Cd422 2.228 . S
Cd422 O421 2.228 . S
Cd422 O426 2.273 . S
Cd422 O430 2.277 . S
O423 C420 1.160 . S
O423 Cd424 2.203 . S
Cd424 O423 2.203 . S
Cd424 O426 2.411 . S
Cd424 O427 2.333 . S
Cd424 O428 2.352 . S
Cd424 O432 2.277 . S
Cd424 O433 2.356 . S
C425 O430 1.209 . S
C425 O432 1.226 . S
O426 Cd422 2.273 . S
O426 Cd424 2.411 . S
O426 C429 1.320 . S
O427 Cd424 2.333 . S
O427 C429 1.214 . S
O428 Cd424 2.352 . S
O428 C431 1.258 . S
C429 O426 1.320 . S
C429 O427 1.214 . S
O430 Cd422 2.277 . S
O430 C425 1.209 . S
C431 O428 1.258 . S
C431 O433 1.282 . S
O432 Cd424 2.277 . S
O432 C425 1.226 . S
O433 Cd424 2.356 . S
O433 C431 1.282 . S
C434 O435 1.306 . S
C434 O437 1.160 . S
O435 C434 1.306 . S
O435 Cd436 2.228 . S
Cd436 O435 2.228 . S
Cd436 O440 2.273 . S
Cd436 O444 2.277 . S
O437 C434 1.160 . S
O437 Cd438 2.203 . S
Cd438 O437 2.203 . S
Cd438 O440 2.411 . S
Cd438 O441 2.333 . S
Cd438 O442 2.352 . S
Cd438 O446 2.277 . S
Cd438 O447 2.356 . S
C439 O444 1.209 . S
C439 O446 1.226 . S
O440 Cd436 2.273 . S
O440 Cd438 2.411 . S
O440 C443 1.320 . S
O441 Cd438 2.333 . S
O441 C443 1.214 . S
O442 Cd438 2.352 . S
O442 C445 1.258 . S
C443 O440 1.320 . S
C443 O441 1.214 . S
O444 Cd436 2.277 . S
O444 C439 1.209 . S
C445 O442 1.258 . S
C445 O447 1.282 . S
O446 Cd438 2.277 . S
O446 C439 1.226 . S
O447 Cd438 2.356 . S
O447 C445 1.282 . S
H448 C466 0.951 . S
H449 C468 0.951 . S
H450 C470 0.950 . S
H451 C471 0.950 . S
H452 C473 0.950 . S
H453 C476 0.950 . S
H454 C477 0.950 . S
H455 C479 0.950 . S
H456 C480 0.950 . S
H457 C481 0.951 . S
H458 C483 0.951 . S
H459 C485 0.950 . S
H460 C486 0.950 . S
H461 C488 0.950 . S
H462 C491 0.950 . S
H463 C492 0.950 . S
H464 C494 0.950 . S
H465 C495 0.950 . S
C466 H448 0.951 . S
C466 C467 1.366 . S
C466 C468 1.388 . S
C467 C466 1.366 . S
C467 C471 1.385 . S
C468 H449 0.951 . S
C468 C466 1.388 . S
C468 C469 1.366 . S
C469 C468 1.366 . S
C469 C470 1.414 . S
C469 C472 1.499 . S
C470 H450 0.950 . S
C470 C469 1.414 . S
C470 C471 1.374 . S
C471 H451 0.950 . S
C471 C467 1.385 . S
C471 C470 1.374 . S
C472 C469 1.499 . S
C472 C473 1.373 . S
C472 C474 1.389 . S
C473 H452 0.950 . S
C473 C472 1.373 . S
C473 C489 1.377 . S
C474 C472 1.389 . S
C474 C475 1.524 . S
C474 C488 1.377 . S
C475 C474 1.524 . S
C475 C476 1.397 . S
C475 C480 1.363 . S
C476 H453 0.950 . S
C476 C475 1.397 . S
C476 C477 1.334 . S
C477 H454 0.950 . S
C477 C476 1.334 . S
C477 C478 1.287 . S
C478 C477 1.287 . S
C478 C479 1.524 . S
C478 H497 0.913 . S
C479 H455 0.950 . S
C479 C478 1.524 . S
C479 C480 1.415 . S
C480 H456 0.950 . S
C480 C475 1.363 . S
C480 C479 1.415 . S
C481 H457 0.951 . S
C481 C482 1.366 . S
C481 C483 1.388 . S
C482 C481 1.366 . S
C482 C486 1.385 . S
C483 H458 0.951 . S
C483 C481 1.388 . S
C483 C484 1.366 . S
C484 C483 1.366 . S
C484 C485 1.414 . S
C484 C487 1.499 . S
C485 H459 0.950 . S
C485 C484 1.414 . S
C485 C486 1.374 . S
C486 H460 0.950 . S
C486 C482 1.385 . S
C486 C485 1.374 . S
C487 C484 1.499 . S
C487 C488 1.373 . S
C487 C489 1.389 . S
C488 H461 0.950 . S
C488 C474 1.377 . S
C488 C487 1.373 . S
C489 C473 1.377 . S
C489 C487 1.389 . S
C489 C490 1.524 . S
C490 C489 1.524 . S
C490 C491 1.397 . S
C490 C495 1.363 . S
C491 H462 0.950 . S
C491 C490 1.397 . S
C491 C492 1.334 . S
C492 H463 0.950 . S
C492 C491 1.334 . S
C492 C493 1.287 . S
C493 C492 1.287 . S
C493 C494 1.524 . S
C493 H496 0.999 . S
C494 H464 0.950 . S
C494 C493 1.524 . S
C494 C495 1.415 . S
C495 H465 0.950 . S
C495 C490 1.363 . S
C495 C494 1.415 . S
H496 C493 0.999 . S
H497 C478 0.913 . S
H498 C516 0.951 . S
H499 C518 0.951 . S
H500 C520 0.950 . S
H501 C521 0.950 . S
H502 C523 0.950 . S
H503 C526 0.950 . S
H504 C527 0.950 . S
H505 C529 0.950 . S
H506 C530 0.950 . S
H507 C531 0.951 . S
H508 C533 0.951 . S
H509 C535 0.950 . S
H510 C536 0.950 . S
H511 C538 0.950 . S
H512 C541 0.950 . S
H513 C542 0.950 . S
H514 C544 0.950 . S
H515 C545 0.950 . S
C516 H498 0.951 . S
C516 C517 1.366 . S
C516 C518 1.388 . S
C517 C516 1.366 . S
C517 C521 1.385 . S
C518 H499 0.951 . S
C518 C516 1.388 . S
C518 C519 1.366 . S
C519 C518 1.366 . S
C519 C520 1.414 . S
C519 C522 1.499 . S
C520 H500 0.950 . S
C520 C519 1.414 . S
C520 C521 1.374 . S
C521 H501 0.950 . S
C521 C517 1.385 . S
C521 C520 1.374 . S
C522 C519 1.499 . S
C522 C523 1.373 . S
C522 C524 1.389 . S
C523 H502 0.950 . S
C523 C522 1.373 . S
C523 C539 1.377 . S
C524 C522 1.389 . S
C524 C525 1.524 . S
C524 C538 1.377 . S
C525 C524 1.524 . S
C525 C526 1.397 . S
C525 C530 1.363 . S
C526 H503 0.950 . S
C526 C525 1.397 . S
C526 C527 1.334 . S
C527 H504 0.950 . S
C527 C526 1.334 . S
C527 C528 1.287 . S
C528 C527 1.287 . S
C528 C529 1.524 . S
C528 H547 0.913 . S
C529 H505 0.950 . S
C529 C528 1.524 . S
C529 C530 1.415 . S
C530 H506 0.950 . S
C530 C525 1.363 . S
C530 C529 1.415 . S
C531 H507 0.951 . S
C531 C532 1.366 . S
C531 C533 1.388 . S
C532 C531 1.366 . S
C532 C536 1.385 . S
C533 H508 0.951 . S
C533 C531 1.388 . S
C533 C534 1.366 . S
C534 C533 1.366 . S
C534 C535 1.414 . S
C534 C537 1.499 . S
C535 H509 0.950 . S
C535 C534 1.414 . S
C535 C536 1.374 . S
C536 H510 0.950 . S
C536 C532 1.385 . S
C536 C535 1.374 . S
C537 C534 1.499 . S
C537 C538 1.373 . S
C537 C539 1.389 . S
C538 H511 0.950 . S
C538 C524 1.377 . S
C538 C537 1.373 . S
C539 C523 1.377 . S
C539 C537 1.389 . S
C539 C540 1.524 . S
C540 C539 1.524 . S
C540 C541 1.397 . S
C540 C545 1.363 . S
C541 H512 0.950 . S
C541 C540 1.397 . S
C541 C542 1.334 . S
C542 H513 0.950 . S
C542 C541 1.334 . S
C542 C543 1.287 . S
C543 C542 1.287 . S
C543 C544 1.524 . S
C543 H546 0.999 . S
C544 H514 0.950 . S
C544 C543 1.524 . S
C544 C545 1.415 . S
C545 H515 0.950 . S
C545 C540 1.363 . S
C545 C544 1.415 . S
H546 C543 0.999 . S
H547 C528 0.913 . S
H548 C566 0.951 . S
H549 C568 0.951 . S
H550 C570 0.950 . S
H551 C571 0.950 . S
H552 C573 0.950 . S
H553 C576 0.950 . S
H554 C577 0.950 . S
H555 C579 0.950 . S
H556 C580 0.950 . S
H557 C581 0.951 . S
H558 C583 0.951 . S
H559 C585 0.950 . S
H560 C586 0.950 . S
H561 C588 0.950 . S
H562 C591 0.950 . S
H563 C592 0.950 . S
H564 C594 0.950 . S
H565 C595 0.950 . S
C566 H548 0.951 . S
C566 C567 1.366 . S
C566 C568 1.388 . S
C567 C566 1.366 . S
C567 C571 1.385 . S
C568 H549 0.951 . S
C568 C566 1.388 . S
C568 C569 1.366 . S
C569 C568 1.366 . S
C569 C570 1.414 . S
C569 C572 1.499 . S
C570 H550 0.950 . S
C570 C569 1.414 . S
C570 C571 1.374 . S
C571 H551 0.950 . S
C571 C567 1.385 . S
C571 C570 1.374 . S
C572 C569 1.499 . S
C572 C573 1.373 . S
C572 C574 1.389 . S
C573 H552 0.950 . S
C573 C572 1.373 . S
C573 C589 1.377 . S
C574 C572 1.389 . S
C574 C575 1.524 . S
C574 C588 1.377 . S
C575 C574 1.524 . S
C575 C576 1.397 . S
C575 C580 1.363 . S
C576 H553 0.950 . S
C576 C575 1.397 . S
C576 C577 1.334 . S
C577 H554 0.950 . S
C577 C576 1.334 . S
C577 C578 1.287 . S
C578 C577 1.287 . S
C578 C579 1.524 . S
C578 H597 0.913 . S
C579 H555 0.950 . S
C579 C578 1.524 . S
C579 C580 1.415 . S
C580 H556 0.950 . S
C580 C575 1.363 . S
C580 C579 1.415 . S
C581 H557 0.951 . S
C581 C582 1.366 . S
C581 C583 1.388 . S
C582 C581 1.366 . S
C582 C586 1.385 . S
C583 H558 0.951 . S
C583 C581 1.388 . S
C583 C584 1.366 . S
C584 C583 1.366 . S
C584 C585 1.414 . S
C584 C587 1.499 . S
C585 H559 0.950 . S
C585 C584 1.414 . S
C585 C586 1.374 . S
C586 H560 0.950 . S
C586 C582 1.385 . S
C586 C585 1.374 . S
C587 C584 1.499 . S
C587 C588 1.373 . S
C587 C589 1.389 . S
C588 H561 0.950 . S
C588 C574 1.377 . S
C588 C587 1.373 . S
C589 C573 1.377 . S
C589 C587 1.389 . S
C589 C590 1.524 . S
C590 C589 1.524 . S
C590 C591 1.397 . S
C590 C595 1.363 . S
C591 H562 0.950 . S
C591 C590 1.397 . S
C591 C592 1.334 . S
C592 H563 0.950 . S
C592 C591 1.334 . S
C592 C593 1.287 . S
C593 C592 1.287 . S
C593 C594 1.524 . S
C593 H596 0.999 . S
C594 H564 0.950 . S
C594 C593 1.524 . S
C594 C595 1.415 . S
C595 H565 0.950 . S
C595 C590 1.363 . S
C595 C594 1.415 . S
H596 C593 0.999 . S
H597 C578 0.913 . S
H598 C616 0.951 . S
H599 C618 0.951 . S
H600 C620 0.950 . S
H601 C621 0.950 . S
H602 C623 0.950 . S
H603 C626 0.950 . S
H604 C627 0.950 . S
H605 C629 0.950 . S
H606 C630 0.950 . S
H607 C631 0.951 . S
H608 C633 0.951 . S
H609 C635 0.950 . S
H610 C636 0.950 . S
H611 C638 0.950 . S
H612 C641 0.950 . S
H613 C642 0.950 . S
H614 C644 0.950 . S
H615 C645 0.950 . S
C616 H598 0.951 . S
C616 C617 1.366 . S
C616 C618 1.388 . S
C617 C616 1.366 . S
C617 C621 1.385 . S
C618 H599 0.951 . S
C618 C616 1.388 . S
C618 C619 1.366 . S
C619 C618 1.366 . S
C619 C620 1.414 . S
C619 C622 1.499 . S
C620 H600 0.950 . S
C620 C619 1.414 . S
C620 C621 1.374 . S
C621 H601 0.950 . S
C621 C617 1.385 . S
C621 C620 1.374 . S
C622 C619 1.499 . S
C622 C623 1.373 . S
C622 C624 1.389 . S
C623 H602 0.950 . S
C623 C622 1.373 . S
C623 C639 1.377 . S
C624 C622 1.389 . S
C624 C625 1.524 . S
C624 C638 1.377 . S
C625 C624 1.524 . S
C625 C626 1.397 . S
C625 C630 1.363 . S
C626 H603 0.950 . S
C626 C625 1.397 . S
C626 C627 1.334 . S
C627 H604 0.950 . S
C627 C626 1.334 . S
C627 C628 1.287 . S
C628 C627 1.287 . S
C628 C629 1.524 . S
C628 H647 0.913 . S
C629 H605 0.950 . S
C629 C628 1.524 . S
C629 C630 1.415 . S
C630 H606 0.950 . S
C630 C625 1.363 . S
C630 C629 1.415 . S
C631 H607 0.951 . S
C631 C632 1.366 . S
C631 C633 1.388 . S
C632 C631 1.366 . S
C632 C636 1.385 . S
C633 H608 0.951 . S
C633 C631 1.388 . S
C633 C634 1.366 . S
C634 C633 1.366 . S
C634 C635 1.414 . S
C634 C637 1.499 . S
C635 H609 0.950 . S
C635 C634 1.414 . S
C635 C636 1.374 . S
C636 H610 0.950 . S
C636 C632 1.385 . S
C636 C635 1.374 . S
C637 C634 1.499 . S
C637 C638 1.373 . S
C637 C639 1.389 . S
C638 H611 0.950 . S
C638 C624 1.377 . S
C638 C637 1.373 . S
C639 C623 1.377 . S
C639 C637 1.389 . S
C639 C640 1.524 . S
C640 C639 1.524 . S
C640 C641 1.397 . S
C640 C645 1.363 . S
C641 H612 0.950 . S
C641 C640 1.397 . S
C641 C642 1.334 . S
C642 H613 0.950 . S
C642 C641 1.334 . S
C642 C643 1.287 . S
C643 C642 1.287 . S
C643 C644 1.524 . S
C643 H646 0.999 . S
C644 H614 0.950 . S
C644 C643 1.524 . S
C644 C645 1.415 . S
C645 H615 0.950 . S
C645 C640 1.363 . S
C645 C644 1.415 . S
H646 C643 0.999 . S
H647 C628 0.913 . S
H648 C666 0.951 . S
H649 C668 0.951 . S
H650 C670 0.950 . S
H651 C671 0.950 . S
H652 C673 0.950 . S
H653 C676 0.950 . S
H654 C677 0.950 . S
H655 C679 0.950 . S
H656 C680 0.950 . S
H657 C681 0.951 . S
H658 C683 0.951 . S
H659 C685 0.950 . S
H660 C686 0.950 . S
H661 C688 0.950 . S
H662 C691 0.950 . S
H663 C692 0.950 . S
H664 C694 0.950 . S
H665 C695 0.950 . S
C666 H648 0.951 . S
C666 C667 1.366 . S
C666 C668 1.388 . S
C667 C666 1.366 . S
C667 C671 1.385 . S
C668 H649 0.951 . S
C668 C666 1.388 . S
C668 C669 1.366 . S
C669 C668 1.366 . S
C669 C670 1.414 . S
C669 C672 1.499 . S
C670 H650 0.950 . S
C670 C669 1.414 . S
C670 C671 1.374 . S
C671 H651 0.950 . S
C671 C667 1.385 . S
C671 C670 1.374 . S
C672 C669 1.499 . S
C672 C673 1.373 . S
C672 C674 1.389 . S
C673 H652 0.950 . S
C673 C672 1.373 . S
C673 C689 1.377 . S
C674 C672 1.389 . S
C674 C675 1.524 . S
C674 C688 1.377 . S
C675 C674 1.524 . S
C675 C676 1.397 . S
C675 C680 1.363 . S
C676 H653 0.950 . S
C676 C675 1.397 . S
C676 C677 1.334 . S
C677 H654 0.950 . S
C677 C676 1.334 . S
C677 C678 1.287 . S
C678 C677 1.287 . S
C678 C679 1.524 . S
C678 H697 0.913 . S
C679 H655 0.950 . S
C679 C678 1.524 . S
C679 C680 1.415 . S
C680 H656 0.950 . S
C680 C675 1.363 . S
C680 C679 1.415 . S
C681 H657 0.951 . S
C681 C682 1.366 . S
C681 C683 1.388 . S
C682 C681 1.366 . S
C682 C686 1.385 . S
C683 H658 0.951 . S
C683 C681 1.388 . S
C683 C684 1.366 . S
C684 C683 1.366 . S
C684 C685 1.414 . S
C684 C687 1.499 . S
C685 H659 0.950 . S
C685 C684 1.414 . S
C685 C686 1.374 . S
C686 H660 0.950 . S
C686 C682 1.385 . S
C686 C685 1.374 . S
C687 C684 1.499 . S
C687 C688 1.373 . S
C687 C689 1.389 . S
C688 H661 0.950 . S
C688 C674 1.377 . S
C688 C687 1.373 . S
C689 C673 1.377 . S
C689 C687 1.389 . S
C689 C690 1.524 . S
C690 C689 1.524 . S
C690 C691 1.397 . S
C690 C695 1.363 . S
C691 H662 0.950 . S
C691 C690 1.397 . S
C691 C692 1.334 . S
C692 H663 0.950 . S
C692 C691 1.334 . S
C692 C693 1.287 . S
C693 C692 1.287 . S
C693 C694 1.524 . S
C693 H696 0.999 . S
C694 H664 0.950 . S
C694 C693 1.524 . S
C694 C695 1.415 . S
C695 H665 0.950 . S
C695 C690 1.363 . S
C695 C694 1.415 . S
H696 C693 0.999 . S
H697 C678 0.913 . S
H698 C716 0.951 . S
H699 C718 0.951 . S
H700 C720 0.950 . S
H701 C721 0.950 . S
H702 C723 0.950 . S
H703 C726 0.950 . S
H704 C727 0.950 . S
H705 C729 0.950 . S
H706 C730 0.950 . S
H707 C731 0.951 . S
H708 C733 0.951 . S
H709 C735 0.950 . S
H710 C736 0.950 . S
H711 C738 0.950 . S
H712 C741 0.950 . S
H713 C742 0.950 . S
H714 C744 0.950 . S
H715 C745 0.950 . S
C716 H698 0.951 . S
C716 C717 1.366 . S
C716 C718 1.388 . S
C717 C716 1.366 . S
C717 C721 1.385 . S
C718 H699 0.951 . S
C718 C716 1.388 . S
C718 C719 1.366 . S
C719 C718 1.366 . S
C719 C720 1.414 . S
C719 C722 1.499 . S
C720 H700 0.950 . S
C720 C719 1.414 . S
C720 C721 1.374 . S
C721 H701 0.950 . S
C721 C717 1.385 . S
C721 C720 1.374 . S
C722 C719 1.499 . S
C722 C723 1.373 . S
C722 C724 1.389 . S
C723 H702 0.950 . S
C723 C722 1.373 . S
C723 C739 1.377 . S
C724 C722 1.389 . S
C724 C725 1.524 . S
C724 C738 1.377 . S
C725 C724 1.524 . S
C725 C726 1.397 . S
C725 C730 1.363 . S
C726 H703 0.950 . S
C726 C725 1.397 . S
C726 C727 1.334 . S
C727 H704 0.950 . S
C727 C726 1.334 . S
C727 C728 1.287 . S
C728 C727 1.287 . S
C728 C729 1.524 . S
C728 H747 0.913 . S
C729 H705 0.950 . S
C729 C728 1.524 . S
C729 C730 1.415 . S
C730 H706 0.950 . S
C730 C725 1.363 . S
C730 C729 1.415 . S
C731 H707 0.951 . S
C731 C732 1.366 . S
C731 C733 1.388 . S
C732 C731 1.366 . S
C732 C736 1.385 . S
C733 H708 0.951 . S
C733 C731 1.388 . S
C733 C734 1.366 . S
C734 C733 1.366 . S
C734 C735 1.414 . S
C734 C737 1.499 . S
C735 H709 0.950 . S
C735 C734 1.414 . S
C735 C736 1.374 . S
C736 H710 0.950 . S
C736 C732 1.385 . S
C736 C735 1.374 . S
C737 C734 1.499 . S
C737 C738 1.373 . S
C737 C739 1.389 . S
C738 H711 0.950 . S
C738 C724 1.377 . S
C738 C737 1.373 . S
C739 C723 1.377 . S
C739 C737 1.389 . S
C739 C740 1.524 . S
C740 C739 1.524 . S
C740 C741 1.397 . S
C740 C745 1.363 . S
C741 H712 0.950 . S
C741 C740 1.397 . S
C741 C742 1.334 . S
C742 H713 0.950 . S
C742 C741 1.334 . S
C742 C743 1.287 . S
C743 C742 1.287 . S
C743 C744 1.524 . S
C743 H746 0.999 . S
C744 H714 0.950 . S
C744 C743 1.524 . S
C744 C745 1.415 . S
C745 H715 0.950 . S
C745 C740 1.363 . S
C745 C744 1.415 . S
H746 C743 0.999 . S
H747 C728 0.913 . S
H748 C766 0.951 . S
H749 C768 0.951 . S
H750 C770 0.950 . S
H751 C771 0.950 . S
H752 C773 0.950 . S
H753 C776 0.950 . S
H754 C777 0.950 . S
H755 C779 0.950 . S
H756 C780 0.950 . S
H757 C781 0.951 . S
H758 C783 0.951 . S
H759 C785 0.950 . S
H760 C786 0.950 . S
H761 C788 0.950 . S
H762 C791 0.950 . S
H763 C792 0.950 . S
H764 C794 0.950 . S
H765 C795 0.950 . S
C766 H748 0.951 . S
C766 C767 1.366 . S
C766 C768 1.388 . S
C767 C766 1.366 . S
C767 C771 1.385 . S
C768 H749 0.951 . S
C768 C766 1.388 . S
C768 C769 1.366 . S
C769 C768 1.366 . S
C769 C770 1.414 . S
C769 C772 1.499 . S
C770 H750 0.950 . S
C770 C769 1.414 . S
C770 C771 1.374 . S
C771 H751 0.950 . S
C771 C767 1.385 . S
C771 C770 1.374 . S
C772 C769 1.499 . S
C772 C773 1.373 . S
C772 C774 1.389 . S
C773 H752 0.950 . S
C773 C772 1.373 . S
C773 C789 1.377 . S
C774 C772 1.389 . S
C774 C775 1.524 . S
C774 C788 1.377 . S
C775 C774 1.524 . S
C775 C776 1.397 . S
C775 C780 1.363 . S
C776 H753 0.950 . S
C776 C775 1.397 . S
C776 C777 1.334 . S
C777 H754 0.950 . S
C777 C776 1.334 . S
C777 C778 1.287 . S
C778 C777 1.287 . S
C778 C779 1.524 . S
C778 H797 0.913 . S
C779 H755 0.950 . S
C779 C778 1.524 . S
C779 C780 1.415 . S
C780 H756 0.950 . S
C780 C775 1.363 . S
C780 C779 1.415 . S
C781 H757 0.951 . S
C781 C782 1.366 . S
C781 C783 1.388 . S
C782 C781 1.366 . S
C782 C786 1.385 . S
C783 H758 0.951 . S
C783 C781 1.388 . S
C783 C784 1.366 . S
C784 C783 1.366 . S
C784 C785 1.414 . S
C784 C787 1.499 . S
C785 H759 0.950 . S
C785 C784 1.414 . S
C785 C786 1.374 . S
C786 H760 0.950 . S
C786 C782 1.385 . S
C786 C785 1.374 . S
C787 C784 1.499 . S
C787 C788 1.373 . S
C787 C789 1.389 . S
C788 H761 0.950 . S
C788 C774 1.377 . S
C788 C787 1.373 . S
C789 C773 1.377 . S
C789 C787 1.389 . S
C789 C790 1.524 . S
C790 C789 1.524 . S
C790 C791 1.397 . S
C790 C795 1.363 . S
C791 H762 0.950 . S
C791 C790 1.397 . S
C791 C792 1.334 . S
C792 H763 0.950 . S
C792 C791 1.334 . S
C792 C793 1.287 . S
C793 C792 1.287 . S
C793 C794 1.524 . S
C793 H796 0.999 . S
C794 H764 0.950 . S
C794 C793 1.524 . S
C794 C795 1.415 . S
C795 H765 0.950 . S
C795 C790 1.363 . S
C795 C794 1.415 . S
H796 C793 0.999 . S
H797 C778 0.913 . S
H798 C816 0.951 . S
H799 C818 0.951 . S
H800 C820 0.950 . S
H801 C821 0.950 . S
H802 C823 0.950 . S
H803 C826 0.950 . S
H804 C827 0.950 . S
H805 C829 0.950 . S
H806 C830 0.950 . S
H807 C831 0.951 . S
H808 C833 0.951 . S
H809 C835 0.950 . S
H810 C836 0.950 . S
H811 C838 0.950 . S
H812 C841 0.950 . S
H813 C842 0.950 . S
H814 C844 0.950 . S
H815 C845 0.950 . S
C816 H798 0.951 . S
C816 C817 1.366 . S
C816 C818 1.388 . S
C817 C816 1.366 . S
C817 C821 1.385 . S
C818 H799 0.951 . S
C818 C816 1.388 . S
C818 C819 1.366 . S
C819 C818 1.366 . S
C819 C820 1.414 . S
C819 C822 1.499 . S
C820 H800 0.950 . S
C820 C819 1.414 . S
C820 C821 1.374 . S
C821 H801 0.950 . S
C821 C817 1.385 . S
C821 C820 1.374 . S
C822 C819 1.499 . S
C822 C823 1.373 . S
C822 C824 1.389 . S
C823 H802 0.950 . S
C823 C822 1.373 . S
C823 C839 1.377 . S
C824 C822 1.389 . S
C824 C825 1.524 . S
C824 C838 1.377 . S
C825 C824 1.524 . S
C825 C826 1.397 . S
C825 C830 1.363 . S
C826 H803 0.950 . S
C826 C825 1.397 . S
C826 C827 1.334 . S
C827 H804 0.950 . S
C827 C826 1.334 . S
C827 C828 1.287 . S
C828 C827 1.287 . S
C828 C829 1.524 . S
C828 H847 0.913 . S
C829 H805 0.950 . S
C829 C828 1.524 . S
C829 C830 1.415 . S
C830 H806 0.950 . S
C830 C825 1.363 . S
C830 C829 1.415 . S
C831 H807 0.951 . S
C831 C832 1.366 . S
C831 C833 1.388 . S
C832 C831 1.366 . S
C832 C836 1.385 . S
C833 H808 0.951 . S
C833 C831 1.388 . S
C833 C834 1.366 . S
C834 C833 1.366 . S
C834 C835 1.414 . S
C834 C837 1.499 . S
C835 H809 0.950 . S
C835 C834 1.414 . S
C835 C836 1.374 . S
C836 H810 0.950 . S
C836 C832 1.385 . S
C836 C835 1.374 . S
C837 C834 1.499 . S
C837 C838 1.373 . S
C837 C839 1.389 . S
C838 H811 0.950 . S
C838 C824 1.377 . S
C838 C837 1.373 . S
C839 C823 1.377 . S
C839 C837 1.389 . S
C839 C840 1.524 . S
C840 C839 1.524 . S
C840 C841 1.397 . S
C840 C845 1.363 . S
C841 H812 0.950 . S
C841 C840 1.397 . S
C841 C842 1.334 . S
C842 H813 0.950 . S
C842 C841 1.334 . S
C842 C843 1.287 . S
C843 C842 1.287 . S
C843 C844 1.524 . S
C843 H846 0.999 . S
C844 H814 0.950 . S
C844 C843 1.524 . S
C844 C845 1.415 . S
C845 H815 0.950 . S
C845 C840 1.363 . S
C845 C844 1.415 . S
H846 C843 0.999 . S
H847 C828 0.913 . S
H848 C866 0.951 . S
H849 C868 0.951 . S
H850 C870 0.950 . S
H851 C871 0.950 . S
H852 C873 0.950 . S
H853 C876 0.950 . S
H854 C877 0.950 . S
H855 C879 0.950 . S
H856 C880 0.950 . S
H857 C881 0.951 . S
H858 C883 0.951 . S
H859 C885 0.950 . S
H860 C886 0.950 . S
H861 C888 0.950 . S
H862 C891 0.950 . S
H863 C892 0.950 . S
H864 C894 0.950 . S
H865 C895 0.950 . S
C866 H848 0.951 . S
C866 C867 1.366 . S
C866 C868 1.388 . S
C867 C866 1.366 . S
C867 C871 1.385 . S
C868 H849 0.951 . S
C868 C866 1.388 . S
C868 C869 1.366 . S
C869 C868 1.366 . S
C869 C870 1.414 . S
C869 C872 1.499 . S
C870 H850 0.950 . S
C870 C869 1.414 . S
C870 C871 1.374 . S
C871 H851 0.950 . S
C871 C867 1.385 . S
C871 C870 1.374 . S
C872 C869 1.499 . S
C872 C873 1.373 . S
C872 C874 1.389 . S
C873 H852 0.950 . S
C873 C872 1.373 . S
C873 C889 1.377 . S
C874 C872 1.389 . S
C874 C875 1.524 . S
C874 C888 1.377 . S
C875 C874 1.524 . S
C875 C876 1.397 . S
C875 C880 1.363 . S
C876 H853 0.950 . S
C876 C875 1.397 . S
C876 C877 1.334 . S
C877 H854 0.950 . S
C877 C876 1.334 . S
C877 C878 1.287 . S
C878 C877 1.287 . S
C878 C879 1.524 . S
C878 H897 0.913 . S
C879 H855 0.950 . S
C879 C878 1.524 . S
C879 C880 1.415 . S
C880 H856 0.950 . S
C880 C875 1.363 . S
C880 C879 1.415 . S
C881 H857 0.951 . S
C881 C882 1.366 . S
C881 C883 1.388 . S
C882 C881 1.366 . S
C882 C886 1.385 . S
C883 H858 0.951 . S
C883 C881 1.388 . S
C883 C884 1.366 . S
C884 C883 1.366 . S
C884 C885 1.414 . S
C884 C887 1.499 . S
C885 H859 0.950 . S
C885 C884 1.414 . S
C885 C886 1.374 . S
C886 H860 0.950 . S
C886 C882 1.385 . S
C886 C885 1.374 . S
C887 C884 1.499 . S
C887 C888 1.373 . S
C887 C889 1.389 . S
C888 H861 0.950 . S
C888 C874 1.377 . S
C888 C887 1.373 . S
C889 C873 1.377 . S
C889 C887 1.389 . S
C889 C890 1.524 . S
C890 C889 1.524 . S
C890 C891 1.397 . S
C890 C895 1.363 . S
C891 H862 0.950 . S
C891 C890 1.397 . S
C891 C892 1.334 . S
C892 H863 0.950 . S
C892 C891 1.334 . S
C892 C893 1.287 . S
C893 C892 1.287 . S
C893 C894 1.524 . S
C893 H896 0.999 . S
C894 H864 0.950 . S
C894 C893 1.524 . S
C894 C895 1.415 . S
C895 H865 0.950 . S
C895 C890 1.363 . S
C895 C894 1.415 . S
H896 C893 0.999 . S
H897 C878 0.913 . S
H898 C916 0.951 . S
H899 C918 0.951 . S
H900 C920 0.950 . S
H901 C921 0.950 . S
H902 C923 0.950 . S
H903 C926 0.950 . S
H904 C927 0.950 . S
H905 C929 0.950 . S
H906 C930 0.950 . S
H907 C931 0.951 . S
H908 C933 0.951 . S
H909 C935 0.950 . S
H910 C936 0.950 . S
H911 C938 0.950 . S
H912 C941 0.950 . S
H913 C942 0.950 . S
H914 C944 0.950 . S
H915 C945 0.950 . S
C916 H898 0.951 . S
C916 C917 1.366 . S
C916 C918 1.388 . S
C917 C916 1.366 . S
C917 C921 1.385 . S
C918 H899 0.951 . S
C918 C916 1.388 . S
C918 C919 1.366 . S
C919 C918 1.366 . S
C919 C920 1.414 . S
C919 C922 1.499 . S
C920 H900 0.950 . S
C920 C919 1.414 . S
C920 C921 1.374 . S
C921 H901 0.950 . S
C921 C917 1.385 . S
C921 C920 1.374 . S
C922 C919 1.499 . S
C922 C923 1.373 . S
C922 C924 1.389 . S
C923 H902 0.950 . S
C923 C922 1.373 . S
C923 C939 1.377 . S
C924 C922 1.389 . S
C924 C925 1.524 . S
C924 C938 1.377 . S
C925 C924 1.524 . S
C925 C926 1.397 . S
C925 C930 1.363 . S
C926 H903 0.950 . S
C926 C925 1.397 . S
C926 C927 1.334 . S
C927 H904 0.950 . S
C927 C926 1.334 . S
C927 C928 1.287 . S
C928 C927 1.287 . S
C928 C929 1.524 . S
C928 H947 0.913 . S
C929 H905 0.950 . S
C929 C928 1.524 . S
C929 C930 1.415 . S
C930 H906 0.950 . S
C930 C925 1.363 . S
C930 C929 1.415 . S
C931 H907 0.951 . S
C931 C932 1.366 . S
C931 C933 1.388 . S
C932 C931 1.366 . S
C932 C936 1.385 . S
C933 H908 0.951 . S
C933 C931 1.388 . S
C933 C934 1.366 . S
C934 C933 1.366 . S
C934 C935 1.414 . S
C934 C937 1.499 . S
C935 H909 0.950 . S
C935 C934 1.414 . S
C935 C936 1.374 . S
C936 H910 0.950 . S
C936 C932 1.385 . S
C936 C935 1.374 . S
C937 C934 1.499 . S
C937 C938 1.373 . S
C937 C939 1.389 . S
C938 H911 0.950 . S
C938 C924 1.377 . S
C938 C937 1.373 . S
C939 C923 1.377 . S
C939 C937 1.389 . S
C939 C940 1.524 . S
C940 C939 1.524 . S
C940 C941 1.397 . S
C940 C945 1.363 . S
C941 H912 0.950 . S
C941 C940 1.397 . S
C941 C942 1.334 . S
C942 H913 0.950 . S
C942 C941 1.334 . S
C942 C943 1.287 . S
C943 C942 1.287 . S
C943 C944 1.524 . S
C943 H946 0.999 . S
C944 H914 0.950 . S
C944 C943 1.524 . S
C944 C945 1.415 . S
C945 H915 0.950 . S
C945 C940 1.363 . S
C945 C944 1.415 . S
H946 C943 0.999 . S
H947 C928 0.913 . S
H948 C966 0.951 . S
H949 C968 0.951 . S
H950 C970 0.950 . S
H951 C971 0.950 . S
H952 C973 0.950 . S
H953 C976 0.950 . S
H954 C977 0.950 . S
H955 C979 0.950 . S
H956 C980 0.950 . S
H957 C981 0.951 . S
H958 C983 0.951 . S
H959 C985 0.950 . S
H960 C986 0.950 . S
H961 C988 0.950 . S
H962 C991 0.950 . S
H963 C992 0.950 . S
H964 C994 0.950 . S
H965 C995 0.950 . S
C966 H948 0.951 . S
C966 C967 1.366 . S
C966 C968 1.388 . S
C967 C966 1.366 . S
C967 C971 1.385 . S
C968 H949 0.951 . S
C968 C966 1.388 . S
C968 C969 1.366 . S
C969 C968 1.366 . S
C969 C970 1.414 . S
C969 C972 1.499 . S
C970 H950 0.950 . S
C970 C969 1.414 . S
C970 C971 1.374 . S
C971 H951 0.950 . S
C971 C967 1.385 . S
C971 C970 1.374 . S
C972 C969 1.499 . S
C972 C973 1.373 . S
C972 C974 1.389 . S
C973 H952 0.950 . S
C973 C972 1.373 . S
C973 C989 1.377 . S
C974 C972 1.389 . S
C974 C975 1.524 . S
C974 C988 1.377 . S
C975 C974 1.524 . S
C975 C976 1.397 . S
C975 C980 1.363 . S
C976 H953 0.950 . S
C976 C975 1.397 . S
C976 C977 1.334 . S
C977 H954 0.950 . S
C977 C976 1.334 . S
C977 C978 1.287 . S
C978 C977 1.287 . S
C978 C979 1.524 . S
C978 H997 0.913 . S
C979 H955 0.950 . S
C979 C978 1.524 . S
C979 C980 1.415 . S
C980 H956 0.950 . S
C980 C975 1.363 . S
C980 C979 1.415 . S
C981 H957 0.951 . S
C981 C982 1.366 . S
C981 C983 1.388 . S
C982 C981 1.366 . S
C982 C986 1.385 . S
C983 H958 0.951 . S
C983 C981 1.388 . S
C983 C984 1.366 . S
C984 C983 1.366 . S
C984 C985 1.414 . S
C984 C987 1.499 . S
C985 H959 0.950 . S
C985 C984 1.414 . S
C985 C986 1.374 . S
C986 H960 0.950 . S
C986 C982 1.385 . S
C986 C985 1.374 . S
C987 C984 1.499 . S
C987 C988 1.373 . S
C987 C989 1.389 . S
C988 H961 0.950 . S
C988 C974 1.377 . S
C988 C987 1.373 . S
C989 C973 1.377 . S
C989 C987 1.389 . S
C989 C990 1.524 . S
C990 C989 1.524 . S
C990 C991 1.397 . S
C990 C995 1.363 . S
C991 H962 0.950 . S
C991 C990 1.397 . S
C991 C992 1.334 . S
C992 H963 0.950 . S
C992 C991 1.334 . S
C992 C993 1.287 . S
C993 C992 1.287 . S
C993 C994 1.524 . S
C993 H996 0.999 . S
C994 H964 0.950 . S
C994 C993 1.524 . S
C994 C995 1.415 . S
C995 H965 0.950 . S
C995 C990 1.363 . S
C995 C994 1.415 . S
H996 C993 0.999 . S
H997 C978 0.913 . S
H998 C1016 0.951 . S
H999 C1018 0.951 . S
H1000 C1020 0.950 . S
H1001 C1021 0.950 . S
H1002 C1023 0.950 . S
H1003 C1026 0.950 . S
H1004 C1027 0.950 . S
H1005 C1029 0.950 . S
H1006 C1030 0.950 . S
H1007 C1031 0.951 . S
H1008 C1033 0.951 . S
H1009 C1035 0.950 . S
H1010 C1036 0.950 . S
H1011 C1038 0.950 . S
H1012 C1041 0.950 . S
H1013 C1042 0.950 . S
H1014 C1044 0.950 . S
H1015 C1045 0.950 . S
C1016 H998 0.951 . S
C1016 C1017 1.366 . S
C1016 C1018 1.388 . S
C1017 C1016 1.366 . S
C1017 C1021 1.385 . S
C1018 H999 0.951 . S
C1018 C1016 1.388 . S
C1018 C1019 1.366 . S
C1019 C1018 1.366 . S
C1019 C1020 1.414 . S
C1019 C1022 1.499 . S
C1020 H1000 0.950 . S
C1020 C1019 1.414 . S
C1020 C1021 1.374 . S
C1021 H1001 0.950 . S
C1021 C1017 1.385 . S
C1021 C1020 1.374 . S
C1022 C1019 1.499 . S
C1022 C1023 1.373 . S
C1022 C1024 1.389 . S
C1023 H1002 0.950 . S
C1023 C1022 1.373 . S
C1023 C1039 1.377 . S
C1024 C1022 1.389 . S
C1024 C1025 1.524 . S
C1024 C1038 1.377 . S
C1025 C1024 1.524 . S
C1025 C1026 1.397 . S
C1025 C1030 1.363 . S
C1026 H1003 0.950 . S
C1026 C1025 1.397 . S
C1026 C1027 1.334 . S
C1027 H1004 0.950 . S
C1027 C1026 1.334 . S
C1027 C1028 1.287 . S
C1028 C1027 1.287 . S
C1028 C1029 1.524 . S
C1028 H1047 0.913 . S
C1029 H1005 0.950 . S
C1029 C1028 1.524 . S
C1029 C1030 1.415 . S
C1030 H1006 0.950 . S
C1030 C1025 1.363 . S
C1030 C1029 1.415 . S
C1031 H1007 0.951 . S
C1031 C1032 1.366 . S
C1031 C1033 1.388 . S
C1032 C1031 1.366 . S
C1032 C1036 1.385 . S
C1033 H1008 0.951 . S
C1033 C1031 1.388 . S
C1033 C1034 1.366 . S
C1034 C1033 1.366 . S
C1034 C1035 1.414 . S
C1034 C1037 1.499 . S
C1035 H1009 0.950 . S
C1035 C1034 1.414 . S
C1035 C1036 1.374 . S
C1036 H1010 0.950 . S
C1036 C1032 1.385 . S
C1036 C1035 1.374 . S
C1037 C1034 1.499 . S
C1037 C1038 1.373 . S
C1037 C1039 1.389 . S
C1038 H1011 0.950 . S
C1038 C1024 1.377 . S
C1038 C1037 1.373 . S
C1039 C1023 1.377 . S
C1039 C1037 1.389 . S
C1039 C1040 1.524 . S
C1040 C1039 1.524 . S
C1040 C1041 1.397 . S
C1040 C1045 1.363 . S
C1041 H1012 0.950 . S
C1041 C1040 1.397 . S
C1041 C1042 1.334 . S
C1042 H1013 0.950 . S
C1042 C1041 1.334 . S
C1042 C1043 1.287 . S
C1043 C1042 1.287 . S
C1043 C1044 1.524 . S
C1043 H1046 0.999 . S
C1044 H1014 0.950 . S
C1044 C1043 1.524 . S
C1044 C1045 1.415 . S
C1045 H1015 0.950 . S
C1045 C1040 1.363 . S
C1045 C1044 1.415 . S
H1046 C1043 0.999 . S
H1047 C1028 0.913 . S
H1048 C1066 0.951 . S
H1049 C1068 0.951 . S
H1050 C1070 0.950 . S
H1051 C1071 0.950 . S
H1052 C1073 0.950 . S
H1053 C1076 0.950 . S
H1054 C1077 0.950 . S
H1055 C1079 0.950 . S
H1056 C1080 0.950 . S
H1057 C1081 0.951 . S
H1058 C1083 0.951 . S
H1059 C1085 0.950 . S
H1060 C1086 0.950 . S
H1061 C1088 0.950 . S
H1062 C1091 0.950 . S
H1063 C1092 0.950 . S
H1064 C1094 0.950 . S
H1065 C1095 0.950 . S
C1066 H1048 0.951 . S
C1066 C1067 1.366 . S
C1066 C1068 1.388 . S
C1067 C1066 1.366 . S
C1067 C1071 1.385 . S
C1068 H1049 0.951 . S
C1068 C1066 1.388 . S
C1068 C1069 1.366 . S
C1069 C1068 1.366 . S
C1069 C1070 1.414 . S
C1069 C1072 1.499 . S
C1070 H1050 0.950 . S
C1070 C1069 1.414 . S
C1070 C1071 1.374 . S
C1071 H1051 0.950 . S
C1071 C1067 1.385 . S
C1071 C1070 1.374 . S
C1072 C1069 1.499 . S
C1072 C1073 1.373 . S
C1072 C1074 1.389 . S
C1073 H1052 0.950 . S
C1073 C1072 1.373 . S
C1073 C1089 1.377 . S
C1074 C1072 1.389 . S
C1074 C1075 1.524 . S
C1074 C1088 1.377 . S
C1075 C1074 1.524 . S
C1075 C1076 1.397 . S
C1075 C1080 1.363 . S
C1076 H1053 0.950 . S
C1076 C1075 1.397 . S
C1076 C1077 1.334 . S
C1077 H1054 0.950 . S
C1077 C1076 1.334 . S
C1077 C1078 1.287 . S
C1078 C1077 1.287 . S
C1078 C1079 1.524 . S
C1078 H1097 0.913 . S
C1079 H1055 0.950 . S
C1079 C1078 1.524 . S
C1079 C1080 1.415 . S
C1080 H1056 0.950 . S
C1080 C1075 1.363 . S
C1080 C1079 1.415 . S
C1081 H1057 0.951 . S
C1081 C1082 1.366 . S
C1081 C1083 1.388 . S
C1082 C1081 1.366 . S
C1082 C1086 1.385 . S
C1083 H1058 0.951 . S
C1083 C1081 1.388 . S
C1083 C1084 1.366 . S
C1084 C1083 1.366 . S
C1084 C1085 1.414 . S
C1084 C1087 1.499 . S
C1085 H1059 0.950 . S
C1085 C1084 1.414 . S
C1085 C1086 1.374 . S
C1086 H1060 0.950 . S
C1086 C1082 1.385 . S
C1086 C1085 1.374 . S
C1087 C1084 1.499 . S
C1087 C1088 1.373 . S
C1087 C1089 1.389 . S
C1088 H1061 0.950 . S
C1088 C1074 1.377 . S
C1088 C1087 1.373 . S
C1089 C1073 1.377 . S
C1089 C1087 1.389 . S
C1089 C1090 1.524 . S
C1090 C1089 1.524 . S
C1090 C1091 1.397 . S
C1090 C1095 1.363 . S
C1091 H1062 0.950 . S
C1091 C1090 1.397 . S
C1091 C1092 1.334 . S
C1092 H1063 0.950 . S
C1092 C1091 1.334 . S
C1092 C1093 1.287 . S
C1093 C1092 1.287 . S
C1093 C1094 1.524 . S
C1093 H1096 0.999 . S
C1094 H1064 0.950 . S
C1094 C1093 1.524 . S
C1094 C1095 1.415 . S
C1095 H1065 0.950 . S
C1095 C1090 1.363 . S
C1095 C1094 1.415 . S
H1096 C1093 0.999 . S
H1097 C1078 0.913 . S
H1098 C1116 0.951 . S
H1099 C1118 0.951 . S
H1100 C1120 0.950 . S
H1101 C1121 0.950 . S
H1102 C1123 0.950 . S
H1103 C1126 0.950 . S
H1104 C1127 0.950 . S
H1105 C1129 0.950 . S
H1106 C1130 0.950 . S
H1107 C1131 0.951 . S
H1108 C1133 0.951 . S
H1109 C1135 0.950 . S
H1110 C1136 0.950 . S
H1111 C1138 0.950 . S
H1112 C1141 0.950 . S
H1113 C1142 0.950 . S
H1114 C1144 0.950 . S
H1115 C1145 0.950 . S
C1116 H1098 0.951 . S
C1116 C1117 1.366 . S
C1116 C1118 1.388 . S
C1117 C1116 1.366 . S
C1117 C1121 1.385 . S
C1118 H1099 0.951 . S
C1118 C1116 1.388 . S
C1118 C1119 1.366 . S
C1119 C1118 1.366 . S
C1119 C1120 1.414 . S
C1119 C1122 1.499 . S
C1120 H1100 0.950 . S
C1120 C1119 1.414 . S
C1120 C1121 1.374 . S
C1121 H1101 0.950 . S
C1121 C1117 1.385 . S
C1121 C1120 1.374 . S
C1122 C1119 1.499 . S
C1122 C1123 1.373 . S
C1122 C1124 1.389 . S
C1123 H1102 0.950 . S
C1123 C1122 1.373 . S
C1123 C1139 1.377 . S
C1124 C1122 1.389 . S
C1124 C1125 1.524 . S
C1124 C1138 1.377 . S
C1125 C1124 1.524 . S
C1125 C1126 1.397 . S
C1125 C1130 1.363 . S
C1126 H1103 0.950 . S
C1126 C1125 1.397 . S
C1126 C1127 1.334 . S
C1127 H1104 0.950 . S
C1127 C1126 1.334 . S
C1127 C1128 1.287 . S
C1128 C1127 1.287 . S
C1128 C1129 1.524 . S
C1128 H1147 0.913 . S
C1129 H1105 0.950 . S
C1129 C1128 1.524 . S
C1129 C1130 1.415 . S
C1130 H1106 0.950 . S
C1130 C1125 1.363 . S
C1130 C1129 1.415 . S
C1131 H1107 0.951 . S
C1131 C1132 1.366 . S
C1131 C1133 1.388 . S
C1132 C1131 1.366 . S
C1132 C1136 1.385 . S
C1133 H1108 0.951 . S
C1133 C1131 1.388 . S
C1133 C1134 1.366 . S
C1134 C1133 1.366 . S
C1134 C1135 1.414 . S
C1134 C1137 1.499 . S
C1135 H1109 0.950 . S
C1135 C1134 1.414 . S
C1135 C1136 1.374 . S
C1136 H1110 0.950 . S
C1136 C1132 1.385 . S
C1136 C1135 1.374 . S
C1137 C1134 1.499 . S
C1137 C1138 1.373 . S
C1137 C1139 1.389 . S
C1138 H1111 0.950 . S
C1138 C1124 1.377 . S
C1138 C1137 1.373 . S
C1139 C1123 1.377 . S
C1139 C1137 1.389 . S
C1139 C1140 1.524 . S
C1140 C1139 1.524 . S
C1140 C1141 1.397 . S
C1140 C1145 1.363 . S
C1141 H1112 0.950 . S
C1141 C1140 1.397 . S
C1141 C1142 1.334 . S
C1142 H1113 0.950 . S
C1142 C1141 1.334 . S
C1142 C1143 1.287 . S
C1143 C1142 1.287 . S
C1143 C1144 1.524 . S
C1143 H1146 0.999 . S
C1144 H1114 0.950 . S
C1144 C1143 1.524 . S
C1144 C1145 1.415 . S
C1145 H1115 0.950 . S
C1145 C1140 1.363 . S
C1145 C1144 1.415 . S
H1146 C1143 0.999 . S
H1147 C1128 0.913 . S
H1148 C1166 0.951 . S
H1149 C1168 0.951 . S
H1150 C1170 0.950 . S
H1151 C1171 0.950 . S
H1152 C1173 0.950 . S
H1153 C1176 0.950 . S
H1154 C1177 0.950 . S
H1155 C1179 0.950 . S
H1156 C1180 0.950 . S
H1157 C1181 0.951 . S
H1158 C1183 0.951 . S
H1159 C1185 0.950 . S
H1160 C1186 0.950 . S
H1161 C1188 0.950 . S
H1162 C1191 0.950 . S
H1163 C1192 0.950 . S
H1164 C1194 0.950 . S
H1165 C1195 0.950 . S
C1166 H1148 0.951 . S
C1166 C1167 1.366 . S
C1166 C1168 1.388 . S
C1167 C1166 1.366 . S
C1167 C1171 1.385 . S
C1168 H1149 0.951 . S
C1168 C1166 1.388 . S
C1168 C1169 1.366 . S
C1169 C1168 1.366 . S
C1169 C1170 1.414 . S
C1169 C1172 1.499 . S
C1170 H1150 0.950 . S
C1170 C1169 1.414 . S
C1170 C1171 1.374 . S
C1171 H1151 0.950 . S
C1171 C1167 1.385 . S
C1171 C1170 1.374 . S
C1172 C1169 1.499 . S
C1172 C1173 1.373 . S
C1172 C1174 1.389 . S
C1173 H1152 0.950 . S
C1173 C1172 1.373 . S
C1173 C1189 1.377 . S
C1174 C1172 1.389 . S
C1174 C1175 1.524 . S
C1174 C1188 1.377 . S
C1175 C1174 1.524 . S
C1175 C1176 1.397 . S
C1175 C1180 1.363 . S
C1176 H1153 0.950 . S
C1176 C1175 1.397 . S
C1176 C1177 1.334 . S
C1177 H1154 0.950 . S
C1177 C1176 1.334 . S
C1177 C1178 1.287 . S
C1178 C1177 1.287 . S
C1178 C1179 1.524 . S
C1178 H1197 0.913 . S
C1179 H1155 0.950 . S
C1179 C1178 1.524 . S
C1179 C1180 1.415 . S
C1180 H1156 0.950 . S
C1180 C1175 1.363 . S
C1180 C1179 1.415 . S
C1181 H1157 0.951 . S
C1181 C1182 1.366 . S
C1181 C1183 1.388 . S
C1182 C1181 1.366 . S
C1182 C1186 1.385 . S
C1183 H1158 0.951 . S
C1183 C1181 1.388 . S
C1183 C1184 1.366 . S
C1184 C1183 1.366 . S
C1184 C1185 1.414 . S
C1184 C1187 1.499 . S
C1185 H1159 0.950 . S
C1185 C1184 1.414 . S
C1185 C1186 1.374 . S
C1186 H1160 0.950 . S
C1186 C1182 1.385 . S
C1186 C1185 1.374 . S
C1187 C1184 1.499 . S
C1187 C1188 1.373 . S
C1187 C1189 1.389 . S
C1188 H1161 0.950 . S
C1188 C1174 1.377 . S
C1188 C1187 1.373 . S
C1189 C1173 1.377 . S
C1189 C1187 1.389 . S
C1189 C1190 1.524 . S
C1190 C1189 1.524 . S
C1190 C1191 1.397 . S
C1190 C1195 1.363 . S
C1191 H1162 0.950 . S
C1191 C1190 1.397 . S
C1191 C1192 1.334 . S
C1192 H1163 0.950 . S
C1192 C1191 1.334 . S
C1192 C1193 1.287 . S
C1193 C1192 1.287 . S
C1193 C1194 1.524 . S
C1193 H1196 0.999 . S
C1194 H1164 0.950 . S
C1194 C1193 1.524 . S
C1194 C1195 1.415 . S
C1195 H1165 0.950 . S
C1195 C1190 1.363 . S
C1195 C1194 1.415 . S
H1196 C1193 0.999 . S
H1197 C1178 0.913 . S
H1198 C1216 0.951 . S
H1199 C1218 0.951 . S
H1200 C1220 0.950 . S
H1201 C1221 0.950 . S
H1202 C1223 0.950 . S
H1203 C1226 0.950 . S
H1204 C1227 0.950 . S
H1205 C1229 0.950 . S
H1206 C1230 0.950 . S
H1207 C1231 0.951 . S
H1208 C1233 0.951 . S
H1209 C1235 0.950 . S
H1210 C1236 0.950 . S
H1211 C1238 0.950 . S
H1212 C1241 0.950 . S
H1213 C1242 0.950 . S
H1214 C1244 0.950 . S
H1215 C1245 0.950 . S
C1216 H1198 0.951 . S
C1216 C1217 1.366 . S
C1216 C1218 1.388 . S
C1217 C1216 1.366 . S
C1217 C1221 1.385 . S
C1218 H1199 0.951 . S
C1218 C1216 1.388 . S
C1218 C1219 1.366 . S
C1219 C1218 1.366 . S
C1219 C1220 1.414 . S
C1219 C1222 1.499 . S
C1220 H1200 0.950 . S
C1220 C1219 1.414 . S
C1220 C1221 1.374 . S
C1221 H1201 0.950 . S
C1221 C1217 1.385 . S
C1221 C1220 1.374 . S
C1222 C1219 1.499 . S
C1222 C1223 1.373 . S
C1222 C1224 1.389 . S
C1223 H1202 0.950 . S
C1223 C1222 1.373 . S
C1223 C1239 1.377 . S
C1224 C1222 1.389 . S
C1224 C1225 1.524 . S
C1224 C1238 1.377 . S
C1225 C1224 1.524 . S
C1225 C1226 1.397 . S
C1225 C1230 1.363 . S
C1226 H1203 0.950 . S
C1226 C1225 1.397 . S
C1226 C1227 1.334 . S
C1227 H1204 0.950 . S
C1227 C1226 1.334 . S
C1227 C1228 1.287 . S
C1228 C1227 1.287 . S
C1228 C1229 1.524 . S
C1228 H1247 0.913 . S
C1229 H1205 0.950 . S
C1229 C1228 1.524 . S
C1229 C1230 1.415 . S
C1230 H1206 0.950 . S
C1230 C1225 1.363 . S
C1230 C1229 1.415 . S
C1231 H1207 0.951 . S
C1231 C1232 1.366 . S
C1231 C1233 1.388 . S
C1232 C1231 1.366 . S
C1232 C1236 1.385 . S
C1233 H1208 0.951 . S
C1233 C1231 1.388 . S
C1233 C1234 1.366 . S
C1234 C1233 1.366 . S
C1234 C1235 1.414 . S
C1234 C1237 1.499 . S
C1235 H1209 0.950 . S
C1235 C1234 1.414 . S
C1235 C1236 1.374 . S
C1236 H1210 0.950 . S
C1236 C1232 1.385 . S
C1236 C1235 1.374 . S
C1237 C1234 1.499 . S
C1237 C1238 1.373 . S
C1237 C1239 1.389 . S
C1238 H1211 0.950 . S
C1238 C1224 1.377 . S
C1238 C1237 1.373 . S
C1239 C1223 1.377 . S
C1239 C1237 1.389 . S
C1239 C1240 1.524 . S
C1240 C1239 1.524 . S
C1240 C1241 1.397 . S
C1240 C1245 1.363 . S
C1241 H1212 0.950 . S
C1241 C1240 1.397 . S
C1241 C1242 1.334 . S
C1242 H1213 0.950 . S
C1242 C1241 1.334 . S
C1242 C1243 1.287 . S
C1243 C1242 1.287 . S
C1243 C1244 1.524 . S
C1243 H1246 0.999 . S
C1244 H1214 0.950 . S
C1244 C1243 1.524 . S
C1244 C1245 1.415 . S
C1245 H1215 0.950 . S
C1245 C1240 1.363 . S
C1245 C1244 1.415 . S
H1246 C1243 0.999 . S
H1247 C1228 0.913 . S
H1248 C1266 0.951 . S
H1249 C1268 0.951 . S
H1250 C1270 0.950 . S
H1251 C1271 0.950 . S
H1252 C1273 0.950 . S
H1253 C1276 0.950 . S
H1254 C1277 0.950 . S
H1255 C1279 0.950 . S
H1256 C1280 0.950 . S
H1257 C1281 0.951 . S
H1258 C1283 0.951 . S
H1259 C1285 0.950 . S
H1260 C1286 0.950 . S
H1261 C1288 0.950 . S
H1262 C1291 0.950 . S
H1263 C1292 0.950 . S
H1264 C1294 0.950 . S
H1265 C1295 0.950 1_655 S
C1266 H1248 0.951 . S
C1266 C1267 1.366 . S
C1266 C1268 1.388 . S
C1267 C1266 1.366 . S
C1267 C1271 1.385 . S
C1268 H1249 0.951 . S
C1268 C1266 1.388 . S
C1268 C1269 1.366 . S
C1269 C1268 1.366 . S
C1269 C1270 1.414 . S
C1269 C1272 1.499 . S
C1270 H1250 0.950 . S
C1270 C1269 1.414 . S
C1270 C1271 1.374 . S
C1271 H1251 0.950 . S
C1271 C1267 1.385 . S
C1271 C1270 1.374 . S
C1272 C1269 1.499 . S
C1272 C1273 1.373 . S
C1272 C1274 1.389 . S
C1273 H1252 0.950 . S
C1273 C1272 1.373 . S
C1273 C1289 1.377 1_655 S
C1274 C1272 1.389 . S
C1274 C1275 1.524 . S
C1274 C1288 1.377 1_655 S
C1275 C1274 1.524 . S
C1275 C1276 1.397 . S
C1275 C1280 1.363 . S
C1276 H1253 0.950 . S
C1276 C1275 1.397 . S
C1276 C1277 1.334 . S
C1277 H1254 0.950 . S
C1277 C1276 1.334 . S
C1277 C1278 1.287 . S
C1278 C1277 1.287 . S
C1278 C1279 1.524 . S
C1278 H1297 0.913 . S
C1279 H1255 0.950 . S
C1279 C1278 1.524 . S
C1279 C1280 1.415 . S
C1280 H1256 0.950 . S
C1280 C1275 1.363 . S
C1280 C1279 1.415 . S
C1281 H1257 0.951 . S
C1281 C1282 1.366 . S
C1281 C1283 1.388 . S
C1282 C1281 1.366 . S
C1282 C1286 1.385 . S
C1283 H1258 0.951 . S
C1283 C1281 1.388 . S
C1283 C1284 1.366 . S
C1284 C1283 1.366 . S
C1284 C1285 1.414 . S
C1284 C1287 1.499 . S
C1285 H1259 0.950 . S
C1285 C1284 1.414 . S
C1285 C1286 1.374 . S
C1286 H1260 0.950 . S
C1286 C1282 1.385 . S
C1286 C1285 1.374 . S
C1287 C1284 1.499 . S
C1287 C1288 1.373 . S
C1287 C1289 1.389 . S
C1288 H1261 0.950 . S
C1288 C1274 1.377 1_455 S
C1288 C1287 1.373 . S
C1289 C1273 1.377 1_455 S
C1289 C1287 1.389 . S
C1289 C1290 1.524 . S
C1290 C1289 1.524 . S
C1290 C1291 1.397 . S
C1290 C1295 1.363 . S
C1291 H1262 0.950 . S
C1291 C1290 1.397 . S
C1291 C1292 1.334 . S
C1292 H1263 0.950 . S
C1292 C1291 1.334 . S
C1292 C1293 1.287 . S
C1293 C1292 1.287 . S
C1293 C1294 1.524 . S
C1293 H1296 0.999 . S
C1294 H1264 0.950 . S
C1294 C1293 1.524 . S
C1294 C1295 1.415 . S
C1295 H1265 0.950 1_455 S
C1295 C1290 1.363 . S
C1295 C1294 1.415 . S
H1296 C1293 0.999 . S
H1297 C1278 0.913 . S
H1298 C1316 0.951 . S
H1299 C1318 0.951 . S
H1300 C1320 0.950 . S
H1301 C1321 0.950 . S
H1302 C1323 0.950 . S
H1303 C1326 0.950 . S
H1304 C1327 0.950 . S
H1305 C1329 0.950 . S
H1306 C1330 0.950 . S
H1307 C1331 0.951 . S
H1308 C1333 0.951 . S
H1309 C1335 0.950 . S
H1310 C1336 0.950 . S
H1311 C1338 0.950 . S
H1312 C1341 0.950 . S
H1313 C1342 0.950 . S
H1314 C1344 0.950 . S
H1315 C1345 0.950 . S
C1316 H1298 0.951 . S
C1316 C1317 1.366 . S
C1316 C1318 1.388 . S
C1317 C1316 1.366 . S
C1317 C1321 1.385 . S
C1318 H1299 0.951 . S
C1318 C1316 1.388 . S
C1318 C1319 1.366 . S
C1319 C1318 1.366 . S
C1319 C1320 1.414 . S
C1319 C1322 1.499 . S
C1320 H1300 0.950 . S
C1320 C1319 1.414 . S
C1320 C1321 1.374 . S
C1321 H1301 0.950 . S
C1321 C1317 1.385 . S
C1321 C1320 1.374 . S
C1322 C1319 1.499 . S
C1322 C1323 1.373 . S
C1322 C1324 1.389 . S
C1323 H1302 0.950 . S
C1323 C1322 1.373 . S
C1323 C1339 1.377 1_545 S
C1324 C1322 1.389 . S
C1324 C1325 1.524 . S
C1324 C1338 1.377 1_545 S
C1325 C1324 1.524 . S
C1325 C1326 1.397 . S
C1325 C1330 1.363 . S
C1326 H1303 0.950 . S
C1326 C1325 1.397 . S
C1326 C1327 1.334 . S
C1327 H1304 0.950 . S
C1327 C1326 1.334 . S
C1327 C1328 1.287 . S
C1328 C1327 1.287 . S
C1328 C1329 1.524 . S
C1328 H1347 0.913 . S
C1329 H1305 0.950 . S
C1329 C1328 1.524 . S
C1329 C1330 1.415 . S
C1330 H1306 0.950 . S
C1330 C1325 1.363 . S
C1330 C1329 1.415 . S
C1331 H1307 0.951 . S
C1331 C1332 1.366 . S
C1331 C1333 1.388 . S
C1332 C1331 1.366 . S
C1332 C1336 1.385 . S
C1333 H1308 0.951 . S
C1333 C1331 1.388 . S
C1333 C1334 1.366 . S
C1334 C1333 1.366 . S
C1334 C1335 1.414 . S
C1334 C1337 1.499 . S
C1335 H1309 0.950 . S
C1335 C1334 1.414 . S
C1335 C1336 1.374 . S
C1336 H1310 0.950 . S
C1336 C1332 1.385 . S
C1336 C1335 1.374 . S
C1337 C1334 1.499 . S
C1337 C1338 1.373 . S
C1337 C1339 1.389 . S
C1338 H1311 0.950 . S
C1338 C1324 1.377 1_565 S
C1338 C1337 1.373 . S
C1339 C1323 1.377 1_565 S
C1339 C1337 1.389 . S
C1339 C1340 1.524 . S
C1340 C1339 1.524 . S
C1340 C1341 1.397 . S
C1340 C1345 1.363 . S
C1341 H1312 0.950 . S
C1341 C1340 1.397 . S
C1341 C1342 1.334 . S
C1342 H1313 0.950 . S
C1342 C1341 1.334 . S
C1342 C1343 1.287 . S
C1343 C1342 1.287 . S
C1343 C1344 1.524 . S
C1343 H1346 0.999 . S
C1344 H1314 0.950 . S
C1344 C1343 1.524 . S
C1344 C1345 1.415 . S
C1345 H1315 0.950 . S
C1345 C1340 1.363 . S
C1345 C1344 1.415 . S
H1346 C1343 0.999 . S
H1347 C1328 0.913 . S
H1348 C1366 0.951 . S
H1349 C1368 0.951 . S
H1350 C1370 0.950 . S
H1351 C1371 0.950 . S
H1352 C1373 0.950 . S
H1353 C1376 0.950 . S
H1354 C1377 0.950 . S
H1355 C1379 0.950 . S
H1356 C1380 0.950 . S
H1357 C1381 0.951 . S
H1358 C1383 0.951 . S
H1359 C1385 0.950 . S
H1360 C1386 0.950 . S
H1361 C1388 0.950 . S
H1362 C1391 0.950 . S
H1363 C1392 0.950 . S
H1364 C1394 0.950 . S
H1365 C1395 0.950 . S
C1366 H1348 0.951 . S
C1366 C1367 1.366 . S
C1366 C1368 1.388 . S
C1367 C1366 1.366 . S
C1367 C1371 1.385 . S
C1368 H1349 0.951 . S
C1368 C1366 1.388 . S
C1368 C1369 1.366 . S
C1369 C1368 1.366 . S
C1369 C1370 1.414 . S
C1369 C1372 1.499 . S
C1370 H1350 0.950 . S
C1370 C1369 1.414 . S
C1370 C1371 1.374 . S
C1371 H1351 0.950 . S
C1371 C1367 1.385 . S
C1371 C1370 1.374 . S
C1372 C1369 1.499 . S
C1372 C1373 1.373 . S
C1372 C1374 1.389 . S
C1373 H1352 0.950 . S
C1373 C1372 1.373 . S
C1373 C1389 1.377 1_455 S
C1374 C1372 1.389 . S
C1374 C1375 1.524 . S
C1374 C1388 1.377 1_455 S
C1375 C1374 1.524 . S
C1375 C1376 1.397 . S
C1375 C1380 1.363 . S
C1376 H1353 0.950 . S
C1376 C1375 1.397 . S
C1376 C1377 1.334 . S
C1377 H1354 0.950 . S
C1377 C1376 1.334 . S
C1377 C1378 1.287 . S
C1378 C1377 1.287 . S
C1378 C1379 1.524 . S
C1378 H1397 0.913 . S
C1379 H1355 0.950 . S
C1379 C1378 1.524 . S
C1379 C1380 1.415 . S
C1380 H1356 0.950 . S
C1380 C1375 1.363 . S
C1380 C1379 1.415 . S
C1381 H1357 0.951 . S
C1381 C1382 1.366 . S
C1381 C1383 1.388 . S
C1382 C1381 1.366 . S
C1382 C1386 1.385 . S
C1383 H1358 0.951 . S
C1383 C1381 1.388 . S
C1383 C1384 1.366 . S
C1384 C1383 1.366 . S
C1384 C1385 1.414 . S
C1384 C1387 1.499 . S
C1385 H1359 0.950 . S
C1385 C1384 1.414 . S
C1385 C1386 1.374 . S
C1386 H1360 0.950 . S
C1386 C1382 1.385 . S
C1386 C1385 1.374 . S
C1387 C1384 1.499 . S
C1387 C1388 1.373 . S
C1387 C1389 1.389 . S
C1388 H1361 0.950 . S
C1388 C1374 1.377 1_655 S
C1388 C1387 1.373 . S
C1389 C1373 1.377 1_655 S
C1389 C1387 1.389 . S
C1389 C1390 1.524 . S
C1390 C1389 1.524 . S
C1390 C1391 1.397 . S
C1390 C1395 1.363 . S
C1391 H1362 0.950 . S
C1391 C1390 1.397 . S
C1391 C1392 1.334 . S
C1392 H1363 0.950 . S
C1392 C1391 1.334 . S
C1392 C1393 1.287 . S
C1393 C1392 1.287 . S
C1393 C1394 1.524 . S
C1393 H1396 0.999 . S
C1394 H1364 0.950 . S
C1394 C1393 1.524 . S
C1394 C1395 1.415 . S
C1395 H1365 0.950 . S
C1395 C1390 1.363 . S
C1395 C1394 1.415 . S
H1396 C1393 0.999 . S
H1397 C1378 0.913 . S
H1398 C1416 0.951 . S
H1399 C1418 0.951 . S
H1400 C1420 0.950 . S
H1401 C1421 0.950 . S
H1402 C1423 0.950 . S
H1403 C1426 0.950 . S
H1404 C1427 0.950 . S
H1405 C1429 0.950 . S
H1406 C1430 0.950 . S
H1407 C1431 0.951 . S
H1408 C1433 0.951 . S
H1409 C1435 0.950 . S
H1410 C1436 0.950 . S
H1411 C1438 0.950 . S
H1412 C1441 0.950 . S
H1413 C1442 0.950 . S
H1414 C1444 0.950 . S
H1415 C1445 0.950 . S
C1416 H1398 0.951 . S
C1416 C1417 1.366 . S
C1416 C1418 1.388 . S
C1417 C1416 1.366 . S
C1417 C1421 1.385 . S
C1418 H1399 0.951 . S
C1418 C1416 1.388 . S
C1418 C1419 1.366 . S
C1419 C1418 1.366 . S
C1419 C1420 1.414 . S
C1419 C1422 1.499 . S
C1420 H1400 0.950 . S
C1420 C1419 1.414 . S
C1420 C1421 1.374 . S
C1421 H1401 0.950 . S
C1421 C1417 1.385 . S
C1421 C1420 1.374 . S
C1422 C1419 1.499 . S
C1422 C1423 1.373 . S
C1422 C1424 1.389 . S
C1423 H1402 0.950 . S
C1423 C1422 1.373 . S
C1423 C1439 1.377 1_565 S
C1424 C1422 1.389 . S
C1424 C1425 1.524 . S
C1424 C1438 1.377 1_565 S
C1425 C1424 1.524 . S
C1425 C1426 1.397 . S
C1425 C1430 1.363 . S
C1426 H1403 0.950 . S
C1426 C1425 1.397 . S
C1426 C1427 1.334 . S
C1427 H1404 0.950 . S
C1427 C1426 1.334 . S
C1427 C1428 1.287 . S
C1428 C1427 1.287 . S
C1428 C1429 1.524 . S
C1428 H1447 0.913 . S
C1429 H1405 0.950 . S
C1429 C1428 1.524 . S
C1429 C1430 1.415 . S
C1430 H1406 0.950 . S
C1430 C1425 1.363 . S
C1430 C1429 1.415 . S
C1431 H1407 0.951 . S
C1431 C1432 1.366 . S
C1431 C1433 1.388 . S
C1432 C1431 1.366 . S
C1432 C1436 1.385 . S
C1433 H1408 0.951 . S
C1433 C1431 1.388 . S
C1433 C1434 1.366 . S
C1434 C1433 1.366 . S
C1434 C1435 1.414 . S
C1434 C1437 1.499 . S
C1435 H1409 0.950 . S
C1435 C1434 1.414 . S
C1435 C1436 1.374 . S
C1436 H1410 0.950 . S
C1436 C1432 1.385 . S
C1436 C1435 1.374 . S
C1437 C1434 1.499 . S
C1437 C1438 1.373 . S
C1437 C1439 1.389 . S
C1438 H1411 0.950 . S
C1438 C1424 1.377 1_545 S
C1438 C1437 1.373 . S
C1439 C1423 1.377 1_545 S
C1439 C1437 1.389 . S
C1439 C1440 1.524 . S
C1440 C1439 1.524 . S
C1440 C1441 1.397 . S
C1440 C1445 1.363 . S
C1441 H1412 0.950 . S
C1441 C1440 1.397 . S
C1441 C1442 1.334 . S
C1442 H1413 0.950 . S
C1442 C1441 1.334 . S
C1442 C1443 1.287 . S
C1443 C1442 1.287 . S
C1443 C1444 1.524 . S
C1443 H1446 0.999 . S
C1444 H1414 0.950 . S
C1444 C1443 1.524 . S
C1444 C1445 1.415 . S
C1445 H1415 0.950 . S
C1445 C1440 1.363 . S
C1445 C1444 1.415 . S
H1446 C1443 0.999 . S
H1447 C1428 0.913 . S
H1448 C1466 0.951 . S
H1449 C1468 0.951 . S
H1450 C1470 0.950 . S
H1451 C1471 0.950 . S
H1452 C1473 0.950 . S
H1453 C1476 0.950 . S
H1454 C1477 0.950 . S
H1455 C1479 0.950 . S
H1456 C1480 0.931 1_655 S
H1457 C1481 0.951 . S
H1458 C1483 0.951 . S
H1459 C1485 0.950 . S
H1460 C1486 0.950 . S
H1461 C1488 0.950 . S
H1462 C1491 0.950 . S
H1463 C1492 0.950 . S
H1464 C1494 0.950 . S
H1465 C1495 0.950 . S
C1466 H1448 0.951 . S
C1466 C1467 1.366 . S
C1466 C1468 1.388 . S
C1467 C1466 1.366 . S
C1467 C1471 1.385 . S
C1468 H1449 0.951 . S
C1468 C1466 1.388 . S
C1468 C1469 1.366 . S
C1469 C1468 1.366 . S
C1469 C1470 1.414 . S
C1469 C1472 1.499 . S
C1470 H1450 0.950 . S
C1470 C1469 1.414 . S
C1470 C1471 1.374 . S
C1471 H1451 0.950 . S
C1471 C1467 1.385 . S
C1471 C1470 1.374 . S
C1472 C1469 1.499 . S
C1472 C1473 1.373 . S
C1472 C1474 1.389 . S
C1473 H1452 0.950 . S
C1473 C1472 1.373 . S
C1473 C1489 1.377 1_455 S
C1474 C1472 1.389 . S
C1474 C1475 1.524 . S
C1474 C1488 1.377 1_455 S
C1475 C1474 1.524 . S
C1475 C1476 1.397 . S
C1475 C1480 1.363 . S
C1476 H1453 0.950 . S
C1476 C1475 1.397 . S
C1476 C1477 1.334 . S
C1477 H1454 0.950 . S
C1477 C1476 1.334 . S
C1477 C1478 1.287 . S
C1478 C1477 1.287 . S
C1478 C1479 1.524 . S
C1478 H1497 0.913 . S
C1479 H1455 0.950 . S
C1479 C1478 1.524 . S
C1479 C1480 1.415 . S
C1480 H1456 0.931 1_455 S
C1480 C1475 1.363 . S
C1480 C1479 1.415 . S
C1481 H1457 0.951 . S
C1481 C1482 1.366 . S
C1481 C1483 1.388 . S
C1482 C1481 1.366 . S
C1482 C1486 1.385 . S
C1483 H1458 0.951 . S
C1483 C1481 1.388 . S
C1483 C1484 1.366 . S
C1484 C1483 1.366 . S
C1484 C1485 1.414 . S
C1484 C1487 1.499 . S
C1485 H1459 0.950 . S
C1485 C1484 1.414 . S
C1485 C1486 1.374 . S
C1486 H1460 0.950 . S
C1486 C1482 1.385 . S
C1486 C1485 1.374 . S
C1487 C1484 1.499 . S
C1487 C1488 1.373 . S
C1487 C1489 1.389 . S
C1488 H1461 0.950 . S
C1488 C1474 1.377 1_655 S
C1488 C1487 1.373 . S
C1489 C1473 1.377 1_655 S
C1489 C1487 1.389 . S
C1489 C1490 1.524 . S
C1490 C1489 1.524 . S
C1490 C1491 1.397 . S
C1490 C1495 1.363 . S
C1491 H1462 0.950 . S
C1491 C1490 1.397 . S
C1491 C1492 1.334 . S
C1492 H1463 0.950 . S
C1492 C1491 1.334 . S
C1492 C1493 1.287 . S
C1493 C1492 1.287 . S
C1493 C1494 1.524 . S
C1493 H1496 0.999 . S
C1494 H1464 0.950 . S
C1494 C1493 1.524 . S
C1494 C1495 1.415 . S
C1495 H1465 0.950 . S
C1495 C1490 1.363 . S
C1495 C1494 1.415 . S
H1496 C1493 0.999 . S
H1497 C1478 0.913 . S
H1498 C1516 0.951 . S
H1499 C1518 0.951 . S
H1500 C1520 0.950 . S
H1501 C1521 0.950 . S
H1502 C1523 0.950 . S
H1503 C1526 0.950 . S
H1504 C1527 0.950 . S
H1505 C1529 0.950 . S
H1506 C1530 0.950 . S
H1507 C1531 0.951 . S
H1508 C1533 0.951 . S
H1509 C1535 0.950 . S
H1510 C1536 0.950 . S
H1511 C1538 0.950 . S
H1512 C1541 0.950 . S
H1513 C1542 0.950 . S
H1514 C1544 0.950 . S
H1515 C1545 0.950 . S
C1516 H1498 0.951 . S
C1516 C1517 1.366 . S
C1516 C1518 1.388 . S
C1517 C1516 1.366 . S
C1517 C1521 1.385 . S
C1518 H1499 0.951 . S
C1518 C1516 1.388 . S
C1518 C1519 1.366 . S
C1519 C1518 1.366 . S
C1519 C1520 1.414 . S
C1519 C1522 1.499 . S
C1520 H1500 0.950 . S
C1520 C1519 1.414 . S
C1520 C1521 1.374 . S
C1521 H1501 0.950 . S
C1521 C1517 1.385 . S
C1521 C1520 1.374 . S
C1522 C1519 1.499 . S
C1522 C1523 1.373 . S
C1522 C1524 1.389 . S
C1523 H1502 0.950 . S
C1523 C1522 1.373 . S
C1523 C1539 1.377 1_565 S
C1524 C1522 1.389 . S
C1524 C1525 1.524 . S
C1524 C1538 1.377 1_565 S
C1525 C1524 1.524 . S
C1525 C1526 1.397 . S
C1525 C1530 1.363 . S
C1526 H1503 0.950 . S
C1526 C1525 1.397 . S
C1526 C1527 1.334 . S
C1527 H1504 0.950 . S
C1527 C1526 1.334 . S
C1527 C1528 1.287 . S
C1528 C1527 1.287 . S
C1528 C1529 1.524 . S
C1528 H1547 0.913 . S
C1529 H1505 0.950 . S
C1529 C1528 1.524 . S
C1529 C1530 1.415 . S
C1530 H1506 0.950 . S
C1530 C1525 1.363 . S
C1530 C1529 1.415 . S
C1531 H1507 0.951 . S
C1531 C1532 1.366 . S
C1531 C1533 1.388 . S
C1532 C1531 1.366 . S
C1532 C1536 1.385 . S
C1533 H1508 0.951 . S
C1533 C1531 1.388 . S
C1533 C1534 1.366 . S
C1534 C1533 1.366 . S
C1534 C1535 1.414 . S
C1534 C1537 1.499 . S
C1535 H1509 0.950 . S
C1535 C1534 1.414 . S
C1535 C1536 1.374 . S
C1536 H1510 0.950 . S
C1536 C1532 1.385 . S
C1536 C1535 1.374 . S
C1537 C1534 1.499 . S
C1537 C1538 1.373 . S
C1537 C1539 1.389 . S
C1538 H1511 0.950 . S
C1538 C1524 1.377 1_545 S
C1538 C1537 1.373 . S
C1539 C1523 1.377 1_545 S
C1539 C1537 1.389 . S
C1539 C1540 1.524 . S
C1540 C1539 1.524 . S
C1540 C1541 1.397 . S
C1540 C1545 1.363 . S
C1541 H1512 0.950 . S
C1541 C1540 1.397 . S
C1541 C1542 1.334 . S
C1542 H1513 0.950 . S
C1542 C1541 1.334 . S
C1542 C1543 1.287 . S
C1543 C1542 1.287 . S
C1543 C1544 1.524 . S
C1543 H1546 0.999 . S
C1544 H1514 0.950 . S
C1544 C1543 1.524 . S
C1544 C1545 1.415 . S
C1545 H1515 0.950 . S
C1545 C1540 1.363 . S
C1545 C1544 1.415 . S
H1546 C1543 0.999 . S
H1547 C1528 0.913 . S
H1548 C1566 0.951 . S
H1549 C1568 0.951 . S
H1550 C1570 0.950 . S
H1551 C1571 0.950 . S
H1552 C1573 0.950 . S
H1553 C1576 0.950 . S
H1554 C1577 0.950 . S
H1555 C1579 0.950 . S
H1556 C1580 0.950 . S
H1557 C1581 0.951 . S
H1558 C1583 0.951 . S
H1559 C1585 0.950 . S
H1560 C1586 0.950 . S
H1561 C1588 0.950 . S
H1562 C1591 0.950 . S
H1563 C1592 0.950 . S
H1564 C1594 0.950 . S
H1565 C1595 0.950 1_455 S
C1566 H1548 0.951 . S
C1566 C1567 1.366 . S
C1566 C1568 1.388 . S
C1567 C1566 1.366 . S
C1567 C1571 1.385 . S
C1568 H1549 0.951 . S
C1568 C1566 1.388 . S
C1568 C1569 1.366 . S
C1569 C1568 1.366 . S
C1569 C1570 1.414 . S
C1569 C1572 1.499 . S
C1570 H1550 0.950 . S
C1570 C1569 1.414 . S
C1570 C1571 1.374 . S
C1571 H1551 0.950 . S
C1571 C1567 1.385 . S
C1571 C1570 1.374 . S
C1572 C1569 1.499 . S
C1572 C1573 1.373 . S
C1572 C1574 1.389 . S
C1573 H1552 0.950 . S
C1573 C1572 1.373 . S
C1573 C1589 1.377 1_455 S
C1574 C1572 1.389 . S
C1574 C1575 1.524 . S
C1574 C1588 1.377 1_455 S
C1575 C1574 1.524 . S
C1575 C1576 1.397 . S
C1575 C1580 1.363 . S
C1576 H1553 0.950 . S
C1576 C1575 1.397 . S
C1576 C1577 1.334 . S
C1577 H1554 0.950 . S
C1577 C1576 1.334 . S
C1577 C1578 1.287 . S
C1578 C1577 1.287 . S
C1578 C1579 1.524 . S
C1578 H1597 0.913 . S
C1579 H1555 0.950 . S
C1579 C1578 1.524 . S
C1579 C1580 1.415 . S
C1580 H1556 0.950 . S
C1580 C1575 1.363 . S
C1580 C1579 1.415 . S
C1581 H1557 0.951 . S
C1581 C1582 1.366 . S
C1581 C1583 1.388 . S
C1582 C1581 1.366 . S
C1582 C1586 1.385 . S
C1583 H1558 0.951 . S
C1583 C1581 1.388 . S
C1583 C1584 1.366 . S
C1584 C1583 1.366 . S
C1584 C1585 1.414 . S
C1584 C1587 1.499 . S
C1585 H1559 0.950 . S
C1585 C1584 1.414 . S
C1585 C1586 1.374 . S
C1586 H1560 0.950 . S
C1586 C1582 1.385 . S
C1586 C1585 1.374 . S
C1587 C1584 1.499 . S
C1587 C1588 1.373 . S
C1587 C1589 1.389 . S
C1588 H1561 0.950 . S
C1588 C1574 1.377 1_655 S
C1588 C1587 1.373 . S
C1589 C1573 1.377 1_655 S
C1589 C1587 1.389 . S
C1589 C1590 1.524 . S
C1590 C1589 1.524 . S
C1590 C1591 1.397 . S
C1590 C1595 1.363 . S
C1591 H1562 0.950 . S
C1591 C1590 1.397 . S
C1591 C1592 1.334 . S
C1592 H1563 0.950 . S
C1592 C1591 1.334 . S
C1592 C1593 1.287 . S
C1593 C1592 1.287 . S
C1593 C1594 1.524 . S
C1593 H1596 0.999 . S
C1594 H1564 0.950 . S
C1594 C1593 1.524 . S
C1594 C1595 1.415 . S
C1595 H1565 0.950 1_655 S
C1595 C1590 1.363 . S
C1595 C1594 1.415 . S
H1596 C1593 0.999 . S
H1597 C1578 0.913 . S
H1598 C1616 0.951 . S
H1599 C1618 0.951 . S
H1600 C1620 0.950 . S
H1601 C1621 0.950 . S
H1602 C1623 0.950 . S
H1603 C1626 0.950 . S
H1604 C1627 0.950 . S
H1605 C1629 0.950 . S
H1606 C1630 0.950 . S
H1607 C1631 0.951 . S
H1608 C1633 0.951 . S
H1609 C1635 0.950 . S
H1610 C1636 0.950 . S
H1611 C1638 0.950 . S
H1612 C1641 0.950 . S
H1613 C1642 0.950 . S
H1614 C1644 0.950 . S
H1615 C1645 0.950 . S
C1616 H1598 0.951 . S
C1616 C1617 1.366 . S
C1616 C1618 1.388 . S
C1617 C1616 1.366 . S
C1617 C1621 1.385 . S
C1618 H1599 0.951 . S
C1618 C1616 1.388 . S
C1618 C1619 1.366 . S
C1619 C1618 1.366 . S
C1619 C1620 1.414 . S
C1619 C1622 1.499 . S
C1620 H1600 0.950 . S
C1620 C1619 1.414 . S
C1620 C1621 1.374 . S
C1621 H1601 0.950 . S
C1621 C1617 1.385 . S
C1621 C1620 1.374 . S
C1622 C1619 1.499 . S
C1622 C1623 1.373 . S
C1622 C1624 1.389 . S
C1623 H1602 0.950 . S
C1623 C1622 1.373 . S
C1623 C1639 1.377 1_545 S
C1624 C1622 1.389 . S
C1624 C1625 1.524 . S
C1624 C1638 1.377 1_545 S
C1625 C1624 1.524 . S
C1625 C1626 1.397 . S
C1625 C1630 1.363 . S
C1626 H1603 0.950 . S
C1626 C1625 1.397 . S
C1626 C1627 1.334 . S
C1627 H1604 0.950 . S
C1627 C1626 1.334 . S
C1627 C1628 1.287 . S
C1628 C1627 1.287 . S
C1628 C1629 1.524 . S
C1628 H1647 0.913 . S
C1629 H1605 0.950 . S
C1629 C1628 1.524 . S
C1629 C1630 1.415 . S
C1630 H1606 0.950 . S
C1630 C1625 1.363 . S
C1630 C1629 1.415 . S
C1631 H1607 0.951 . S
C1631 C1632 1.366 . S
C1631 C1633 1.388 . S
C1632 C1631 1.366 . S
C1632 C1636 1.385 . S
C1633 H1608 0.951 . S
C1633 C1631 1.388 . S
C1633 C1634 1.366 . S
C1634 C1633 1.366 . S
C1634 C1635 1.414 . S
C1634 C1637 1.499 . S
C1635 H1609 0.950 . S
C1635 C1634 1.414 . S
C1635 C1636 1.374 . S
C1636 H1610 0.950 . S
C1636 C1632 1.385 . S
C1636 C1635 1.374 . S
C1637 C1634 1.499 . S
C1637 C1638 1.373 . S
C1637 C1639 1.389 . S
C1638 H1611 0.950 . S
C1638 C1624 1.377 1_565 S
C1638 C1637 1.373 . S
C1639 C1623 1.377 1_565 S
C1639 C1637 1.389 . S
C1639 C1640 1.524 . S
C1640 C1639 1.524 . S
C1640 C1641 1.397 . S
C1640 C1645 1.363 . S
C1641 H1612 0.950 . S
C1641 C1640 1.397 . S
C1641 C1642 1.334 . S
C1642 H1613 0.950 . S
C1642 C1641 1.334 . S
C1642 C1643 1.287 . S
C1643 C1642 1.287 . S
C1643 C1644 1.524 . S
C1643 H1646 0.999 . S
C1644 H1614 0.950 . S
C1644 C1643 1.524 . S
C1644 C1645 1.415 . S
C1645 H1615 0.950 . S
C1645 C1640 1.363 . S
C1645 C1644 1.415 . S
H1646 C1643 0.999 . S
H1647 C1628 0.913 . S
H1648 C1666 0.951 . S
H1649 C1668 0.951 . S
H1650 C1670 0.950 . S
H1651 C1671 0.950 . S
H1652 C1673 0.950 . S
H1653 C1676 0.950 . S
H1654 C1677 0.950 . S
H1655 C1679 0.950 . S
H1656 C1680 0.950 . S
H1657 C1681 0.951 . S
H1658 C1683 0.951 . S
H1659 C1685 0.950 . S
H1660 C1686 0.950 . S
H1661 C1688 0.950 . S
H1662 C1691 0.950 . S
H1663 C1692 0.950 . S
H1664 C1694 0.950 . S
H1665 C1695 0.950 . S
C1666 H1648 0.951 . S
C1666 C1667 1.366 . S
C1666 C1668 1.388 . S
C1667 C1666 1.366 . S
C1667 C1671 1.385 . S
C1668 H1649 0.951 . S
C1668 C1666 1.388 . S
C1668 C1669 1.366 . S
C1669 C1668 1.366 . S
C1669 C1670 1.414 . S
C1669 C1672 1.499 . S
C1670 H1650 0.950 . S
C1670 C1669 1.414 . S
C1670 C1671 1.374 . S
C1671 H1651 0.950 . S
C1671 C1667 1.385 . S
C1671 C1670 1.374 . S
C1672 C1669 1.499 . S
C1672 C1673 1.373 . S
C1672 C1674 1.389 . S
C1673 H1652 0.950 . S
C1673 C1672 1.373 . S
C1673 C1689 1.377 . S
C1674 C1672 1.389 . S
C1674 C1675 1.524 . S
C1674 C1688 1.377 . S
C1675 C1674 1.524 . S
C1675 C1676 1.397 . S
C1675 C1680 1.363 . S
C1676 H1653 0.950 . S
C1676 C1675 1.397 . S
C1676 C1677 1.334 . S
C1677 H1654 0.950 . S
C1677 C1676 1.334 . S
C1677 C1678 1.287 . S
C1678 C1677 1.287 . S
C1678 C1679 1.524 . S
C1678 H1697 0.913 . S
C1679 H1655 0.950 . S
C1679 C1678 1.524 . S
C1679 C1680 1.415 . S
C1680 H1656 0.950 . S
C1680 C1675 1.363 . S
C1680 C1679 1.415 . S
C1681 H1657 0.951 . S
C1681 C1682 1.366 . S
C1681 C1683 1.388 . S
C1682 C1681 1.366 . S
C1682 C1686 1.385 . S
C1683 H1658 0.951 . S
C1683 C1681 1.388 . S
C1683 C1684 1.366 . S
C1684 C1683 1.366 . S
C1684 C1685 1.414 . S
C1684 C1687 1.499 . S
C1685 H1659 0.950 . S
C1685 C1684 1.414 . S
C1685 C1686 1.374 . S
C1686 H1660 0.950 . S
C1686 C1682 1.385 . S
C1686 C1685 1.374 . S
C1687 C1684 1.499 . S
C1687 C1688 1.373 . S
C1687 C1689 1.389 . S
C1688 H1661 0.950 . S
C1688 C1674 1.377 . S
C1688 C1687 1.373 . S
C1689 C1673 1.377 . S
C1689 C1687 1.389 . S
C1689 C1690 1.524 . S
C1690 C1689 1.524 . S
C1690 C1691 1.397 . S
C1690 C1695 1.363 . S
C1691 H1662 0.950 . S
C1691 C1690 1.397 . S
C1691 C1692 1.334 . S
C1692 H1663 0.950 . S
C1692 C1691 1.334 . S
C1692 C1693 1.287 . S
C1693 C1692 1.287 . S
C1693 C1694 1.524 . S
C1693 H1696 0.999 . S
C1694 H1664 0.950 . S
C1694 C1693 1.524 . S
C1694 C1695 1.415 . S
C1695 H1665 0.950 . S
C1695 C1690 1.363 . S
C1695 C1694 1.415 . S
H1696 C1693 0.999 . S
H1697 C1678 0.913 . S
H1698 C1716 0.951 . S
H1699 C1718 0.951 . S
H1700 C1720 0.950 . S
H1701 C1721 0.950 . S
H1702 C1723 0.950 . S
H1703 C1726 0.950 . S
H1704 C1727 0.950 . S
H1705 C1729 0.950 . S
H1706 C1730 0.950 . S
H1707 C1731 0.951 . S
H1708 C1733 0.951 . S
H1709 C1735 0.950 . S
H1710 C1736 0.950 . S
H1711 C1738 0.950 . S
H1712 C1741 0.950 . S
H1713 C1742 0.950 . S
H1714 C1744 0.950 . S
H1715 C1745 0.950 . S
C1716 H1698 0.951 . S
C1716 C1717 1.366 . S
C1716 C1718 1.388 . S
C1717 C1716 1.366 . S
C1717 C1721 1.385 . S
C1718 H1699 0.951 . S
C1718 C1716 1.388 . S
C1718 C1719 1.366 . S
C1719 C1718 1.366 . S
C1719 C1720 1.414 . S
C1719 C1722 1.499 . S
C1720 H1700 0.950 . S
C1720 C1719 1.414 . S
C1720 C1721 1.374 . S
C1721 H1701 0.950 . S
C1721 C1717 1.385 . S
C1721 C1720 1.374 . S
C1722 C1719 1.499 . S
C1722 C1723 1.373 . S
C1722 C1724 1.389 . S
C1723 H1702 0.950 . S
C1723 C1722 1.373 . S
C1723 C1739 1.377 . S
C1724 C1722 1.389 . S
C1724 C1725 1.524 . S
C1724 C1738 1.377 . S
C1725 C1724 1.524 . S
C1725 C1726 1.397 . S
C1725 C1730 1.363 . S
C1726 H1703 0.950 . S
C1726 C1725 1.397 . S
C1726 C1727 1.334 . S
C1727 H1704 0.950 . S
C1727 C1726 1.334 . S
C1727 C1728 1.287 . S
C1728 C1727 1.287 . S
C1728 C1729 1.524 . S
C1728 H1747 0.913 . S
C1729 H1705 0.950 . S
C1729 C1728 1.524 . S
C1729 C1730 1.415 . S
C1730 H1706 0.950 . S
C1730 C1725 1.363 . S
C1730 C1729 1.415 . S
C1731 H1707 0.951 . S
C1731 C1732 1.366 . S
C1731 C1733 1.388 . S
C1732 C1731 1.366 . S
C1732 C1736 1.385 . S
C1733 H1708 0.951 . S
C1733 C1731 1.388 . S
C1733 C1734 1.366 . S
C1734 C1733 1.366 . S
C1734 C1735 1.414 . S
C1734 C1737 1.499 . S
C1735 H1709 0.950 . S
C1735 C1734 1.414 . S
C1735 C1736 1.374 . S
C1736 H1710 0.950 . S
C1736 C1732 1.385 . S
C1736 C1735 1.374 . S
C1737 C1734 1.499 . S
C1737 C1738 1.373 . S
C1737 C1739 1.389 . S
C1738 H1711 0.950 . S
C1738 C1724 1.377 . S
C1738 C1737 1.373 . S
C1739 C1723 1.377 . S
C1739 C1737 1.389 . S
C1739 C1740 1.524 . S
C1740 C1739 1.524 . S
C1740 C1741 1.397 . S
C1740 C1745 1.363 . S
C1741 H1712 0.950 . S
C1741 C1740 1.397 . S
C1741 C1742 1.334 . S
C1742 H1713 0.950 . S
C1742 C1741 1.334 . S
C1742 C1743 1.287 . S
C1743 C1742 1.287 . S
C1743 C1744 1.524 . S
C1743 H1746 0.999 . S
C1744 H1714 0.950 . S
C1744 C1743 1.524 . S
C1744 C1745 1.415 . S
C1745 H1715 0.950 . S
C1745 C1740 1.363 . S
C1745 C1744 1.415 . S
H1746 C1743 0.999 . S
H1747 C1728 0.913 . S
H1748 C1766 0.951 . S
H1749 C1768 0.951 . S
H1750 C1770 0.950 . S
H1751 C1771 0.950 . S
H1752 C1773 0.950 . S
H1753 C1776 0.950 . S
H1754 C1777 0.950 . S
H1755 C1779 0.950 . S
H1756 C1780 0.950 . S
H1757 C1781 0.951 . S
H1758 C1783 0.951 . S
H1759 C1785 0.950 . S
H1760 C1786 0.950 . S
H1761 C1788 0.950 . S
H1762 C1791 0.950 . S
H1763 C1792 0.950 . S
H1764 C1794 0.950 . S
H1765 C1795 0.950 . S
C1766 H1748 0.951 . S
C1766 C1767 1.366 . S
C1766 C1768 1.388 . S
C1767 C1766 1.366 . S
C1767 C1771 1.385 . S
C1768 H1749 0.951 . S
C1768 C1766 1.388 . S
C1768 C1769 1.366 . S
C1769 C1768 1.366 . S
C1769 C1770 1.414 . S
C1769 C1772 1.499 . S
C1770 H1750 0.950 . S
C1770 C1769 1.414 . S
C1770 C1771 1.374 . S
C1771 H1751 0.950 . S
C1771 C1767 1.385 . S
C1771 C1770 1.374 . S
C1772 C1769 1.499 . S
C1772 C1773 1.373 . S
C1772 C1774 1.389 . S
C1773 H1752 0.950 . S
C1773 C1772 1.373 . S
C1773 C1789 1.377 . S
C1774 C1772 1.389 . S
C1774 C1775 1.524 . S
C1774 C1788 1.377 . S
C1775 C1774 1.524 . S
C1775 C1776 1.397 . S
C1775 C1780 1.363 . S
C1776 H1753 0.950 . S
C1776 C1775 1.397 . S
C1776 C1777 1.334 . S
C1777 H1754 0.950 . S
C1777 C1776 1.334 . S
C1777 C1778 1.287 . S
C1778 C1777 1.287 . S
C1778 C1779 1.524 . S
C1778 H1797 0.913 . S
C1779 H1755 0.950 . S
C1779 C1778 1.524 . S
C1779 C1780 1.415 . S
C1780 H1756 0.950 . S
C1780 C1775 1.363 . S
C1780 C1779 1.415 . S
C1781 H1757 0.951 . S
C1781 C1782 1.366 . S
C1781 C1783 1.388 . S
C1782 C1781 1.366 . S
C1782 C1786 1.385 . S
C1783 H1758 0.951 . S
C1783 C1781 1.388 . S
C1783 C1784 1.366 . S
C1784 C1783 1.366 . S
C1784 C1785 1.414 . S
C1784 C1787 1.499 . S
C1785 H1759 0.950 . S
C1785 C1784 1.414 . S
C1785 C1786 1.374 . S
C1786 H1760 0.950 . S
C1786 C1782 1.385 . S
C1786 C1785 1.374 . S
C1787 C1784 1.499 . S
C1787 C1788 1.373 . S
C1787 C1789 1.389 . S
C1788 H1761 0.950 . S
C1788 C1774 1.377 . S
C1788 C1787 1.373 . S
C1789 C1773 1.377 . S
C1789 C1787 1.389 . S
C1789 C1790 1.524 . S
C1790 C1789 1.524 . S
C1790 C1791 1.397 . S
C1790 C1795 1.363 . S
C1791 H1762 0.950 . S
C1791 C1790 1.397 . S
C1791 C1792 1.334 . S
C1792 H1763 0.950 . S
C1792 C1791 1.334 . S
C1792 C1793 1.287 . S
C1793 C1792 1.287 . S
C1793 C1794 1.524 . S
C1793 H1796 0.999 . S
C1794 H1764 0.950 . S
C1794 C1793 1.524 . S
C1794 C1795 1.415 . S
C1795 H1765 0.950 . S
C1795 C1790 1.363 . S
C1795 C1794 1.415 . S
H1796 C1793 0.999 . S
H1797 C1778 0.913 . S
H1798 C1816 0.951 . S
H1799 C1818 0.951 . S
H1800 C1820 0.950 . S
H1801 C1821 0.950 . S
H1802 C1823 0.950 . S
H1803 C1826 0.950 . S
H1804 C1827 0.950 . S
H1805 C1829 0.950 . S
H1806 C1830 0.950 . S
H1807 C1831 0.951 . S
H1808 C1833 0.951 . S
H1809 C1835 0.950 . S
H1810 C1836 0.950 . S
H1811 C1838 0.950 . S
H1812 C1841 0.950 . S
H1813 C1842 0.950 . S
H1814 C1844 0.950 . S
H1815 C1845 0.950 . S
C1816 H1798 0.951 . S
C1816 C1817 1.366 . S
C1816 C1818 1.388 . S
C1817 C1816 1.366 . S
C1817 C1821 1.385 . S
C1818 H1799 0.951 . S
C1818 C1816 1.388 . S
C1818 C1819 1.366 . S
C1819 C1818 1.366 . S
C1819 C1820 1.414 . S
C1819 C1822 1.499 . S
C1820 H1800 0.950 . S
C1820 C1819 1.414 . S
C1820 C1821 1.374 . S
C1821 H1801 0.950 . S
C1821 C1817 1.385 . S
C1821 C1820 1.374 . S
C1822 C1819 1.499 . S
C1822 C1823 1.373 . S
C1822 C1824 1.389 . S
C1823 H1802 0.950 . S
C1823 C1822 1.373 . S
C1823 C1839 1.377 . S
C1824 C1822 1.389 . S
C1824 C1825 1.524 . S
C1824 C1838 1.377 . S
C1825 C1824 1.524 . S
C1825 C1826 1.397 . S
C1825 C1830 1.363 . S
C1826 H1803 0.950 . S
C1826 C1825 1.397 . S
C1826 C1827 1.334 . S
C1827 H1804 0.950 . S
C1827 C1826 1.334 . S
C1827 C1828 1.287 . S
C1828 C1827 1.287 . S
C1828 C1829 1.524 . S
C1828 H1847 0.913 . S
C1829 H1805 0.950 . S
C1829 C1828 1.524 . S
C1829 C1830 1.415 . S
C1830 H1806 0.950 . S
C1830 C1825 1.363 . S
C1830 C1829 1.415 . S
C1831 H1807 0.951 . S
C1831 C1832 1.366 . S
C1831 C1833 1.388 . S
C1832 C1831 1.366 . S
C1832 C1836 1.385 . S
C1833 H1808 0.951 . S
C1833 C1831 1.388 . S
C1833 C1834 1.366 . S
C1834 C1833 1.366 . S
C1834 C1835 1.414 . S
C1834 C1837 1.499 . S
C1835 H1809 0.950 . S
C1835 C1834 1.414 . S
C1835 C1836 1.374 . S
C1836 H1810 0.950 . S
C1836 C1832 1.385 . S
C1836 C1835 1.374 . S
C1837 C1834 1.499 . S
C1837 C1838 1.373 . S
C1837 C1839 1.389 . S
C1838 H1811 0.950 . S
C1838 C1824 1.377 . S
C1838 C1837 1.373 . S
C1839 C1823 1.377 . S
C1839 C1837 1.389 . S
C1839 C1840 1.524 . S
C1840 C1839 1.524 . S
C1840 C1841 1.397 . S
C1840 C1845 1.363 . S
C1841 H1812 0.950 . S
C1841 C1840 1.397 . S
C1841 C1842 1.334 . S
C1842 H1813 0.950 . S
C1842 C1841 1.334 . S
C1842 C1843 1.287 . S
C1843 C1842 1.287 . S
C1843 C1844 1.524 . S
C1843 H1846 0.999 . S
C1844 H1814 0.950 . S
C1844 C1843 1.524 . S
C1844 C1845 1.415 . S
C1845 H1815 0.950 . S
C1845 C1840 1.363 . S
C1845 C1844 1.415 . S
H1846 C1843 0.999 . S
H1847 C1828 0.913 . S
H1848 C1866 0.951 . S
H1849 C1868 0.951 . S
H1850 C1870 0.950 . S
H1851 C1871 0.950 . S
H1852 C1873 0.950 . S
H1853 C1876 0.950 . S
H1854 C1877 0.950 . S
H1855 C1879 0.950 . S
H1856 C1880 0.950 . S
H1857 C1881 0.951 . S
H1858 C1883 0.951 . S
H1859 C1885 0.950 . S
H1860 C1886 0.950 . S
H1861 C1888 0.950 . S
H1862 C1891 0.950 . S
H1863 C1892 0.950 . S
H1864 C1894 0.950 . S
H1865 C1895 0.950 . S
C1866 H1848 0.951 . S
C1866 C1867 1.366 . S
C1866 C1868 1.388 . S
C1867 C1866 1.366 . S
C1867 C1871 1.385 . S
C1868 H1849 0.951 . S
C1868 C1866 1.388 . S
C1868 C1869 1.366 . S
C1869 C1868 1.366 . S
C1869 C1870 1.414 . S
C1869 C1872 1.499 . S
C1870 H1850 0.950 . S
C1870 C1869 1.414 . S
C1870 C1871 1.374 . S
C1871 H1851 0.950 . S
C1871 C1867 1.385 . S
C1871 C1870 1.374 . S
C1872 C1869 1.499 . S
C1872 C1873 1.373 . S
C1872 C1874 1.389 . S
C1873 H1852 0.950 . S
C1873 C1872 1.373 . S
C1873 C1889 1.377 . S
C1874 C1872 1.389 . S
C1874 C1875 1.524 . S
C1874 C1888 1.377 . S
C1875 C1874 1.524 . S
C1875 C1876 1.397 . S
C1875 C1880 1.363 . S
C1876 H1853 0.950 . S
C1876 C1875 1.397 . S
C1876 C1877 1.334 . S
C1877 H1854 0.950 . S
C1877 C1876 1.334 . S
C1877 C1878 1.287 . S
C1878 C1877 1.287 . S
C1878 C1879 1.524 . S
C1878 H1897 0.913 . S
C1879 H1855 0.950 . S
C1879 C1878 1.524 . S
C1879 C1880 1.415 . S
C1880 H1856 0.950 . S
C1880 C1875 1.363 . S
C1880 C1879 1.415 . S
C1881 H1857 0.951 . S
C1881 C1882 1.366 . S
C1881 C1883 1.388 . S
C1882 C1881 1.366 . S
C1882 C1886 1.385 . S
C1883 H1858 0.951 . S
C1883 C1881 1.388 . S
C1883 C1884 1.366 . S
C1884 C1883 1.366 . S
C1884 C1885 1.414 . S
C1884 C1887 1.499 . S
C1885 H1859 0.950 . S
C1885 C1884 1.414 . S
C1885 C1886 1.374 . S
C1886 H1860 0.950 . S
C1886 C1882 1.385 . S
C1886 C1885 1.374 . S
C1887 C1884 1.499 . S
C1887 C1888 1.373 . S
C1887 C1889 1.389 . S
C1888 H1861 0.950 . S
C1888 C1874 1.377 . S
C1888 C1887 1.373 . S
C1889 C1873 1.377 . S
C1889 C1887 1.389 . S
C1889 C1890 1.524 . S
C1890 C1889 1.524 . S
C1890 C1891 1.397 . S
C1890 C1895 1.363 . S
C1891 H1862 0.950 . S
C1891 C1890 1.397 . S
C1891 C1892 1.334 . S
C1892 H1863 0.950 . S
C1892 C1891 1.334 . S
C1892 C1893 1.287 . S
C1893 C1892 1.287 . S
C1893 C1894 1.524 . S
C1893 H1896 0.999 . S
C1894 H1864 0.950 . S
C1894 C1893 1.524 . S
C1894 C1895 1.415 . S
C1895 H1865 0.950 . S
C1895 C1890 1.363 . S
C1895 C1894 1.415 . S
H1896 C1893 0.999 . S
H1897 C1878 0.913 . S
H1898 C1916 0.951 . S
H1899 C1918 0.951 . S
H1900 C1920 0.950 . S
H1901 C1921 0.950 . S
H1902 C1923 0.950 . S
H1903 C1926 0.950 . S
H1904 C1927 0.950 . S
H1905 C1929 0.950 . S
H1906 C1930 0.950 . S
H1907 C1931 0.951 . S
H1908 C1933 0.951 . S
H1909 C1935 0.950 . S
H1910 C1936 0.950 . S
H1911 C1938 0.950 . S
H1912 C1941 0.950 . S
H1913 C1942 0.950 . S
H1914 C1944 0.950 . S
H1915 C1945 0.950 . S
C1916 H1898 0.951 . S
C1916 C1917 1.366 . S
C1916 C1918 1.388 . S
C1917 C1916 1.366 . S
C1917 C1921 1.385 . S
C1918 H1899 0.951 . S
C1918 C1916 1.388 . S
C1918 C1919 1.366 . S
C1919 C1918 1.366 . S
C1919 C1920 1.414 . S
C1919 C1922 1.499 . S
C1920 H1900 0.950 . S
C1920 C1919 1.414 . S
C1920 C1921 1.374 . S
C1921 H1901 0.950 . S
C1921 C1917 1.385 . S
C1921 C1920 1.374 . S
C1922 C1919 1.499 . S
C1922 C1923 1.373 . S
C1922 C1924 1.389 . S
C1923 H1902 0.950 . S
C1923 C1922 1.373 . S
C1923 C1939 1.377 . S
C1924 C1922 1.389 . S
C1924 C1925 1.524 . S
C1924 C1938 1.377 . S
C1925 C1924 1.524 . S
C1925 C1926 1.397 . S
C1925 C1930 1.363 . S
C1926 H1903 0.950 . S
C1926 C1925 1.397 . S
C1926 C1927 1.334 . S
C1927 H1904 0.950 . S
C1927 C1926 1.334 . S
C1927 C1928 1.287 . S
C1928 C1927 1.287 . S
C1928 C1929 1.524 . S
C1928 H1947 0.913 . S
C1929 H1905 0.950 . S
C1929 C1928 1.524 . S
C1929 C1930 1.415 . S
C1930 H1906 0.950 . S
C1930 C1925 1.363 . S
C1930 C1929 1.415 . S
C1931 H1907 0.951 . S
C1931 C1932 1.366 . S
C1931 C1933 1.388 . S
C1932 C1931 1.366 . S
C1932 C1936 1.385 . S
C1933 H1908 0.951 . S
C1933 C1931 1.388 . S
C1933 C1934 1.366 . S
C1934 C1933 1.366 . S
C1934 C1935 1.414 . S
C1934 C1937 1.499 . S
C1935 H1909 0.950 . S
C1935 C1934 1.414 . S
C1935 C1936 1.374 . S
C1936 H1910 0.950 . S
C1936 C1932 1.385 . S
C1936 C1935 1.374 . S
C1937 C1934 1.499 . S
C1937 C1938 1.373 . S
C1937 C1939 1.389 . S
C1938 H1911 0.950 . S
C1938 C1924 1.377 . S
C1938 C1937 1.373 . S
C1939 C1923 1.377 . S
C1939 C1937 1.389 . S
C1939 C1940 1.524 . S
C1940 C1939 1.524 . S
C1940 C1941 1.397 . S
C1940 C1945 1.363 . S
C1941 H1912 0.950 . S
C1941 C1940 1.397 . S
C1941 C1942 1.334 . S
C1942 H1913 0.950 . S
C1942 C1941 1.334 . S
C1942 C1943 1.287 . S
C1943 C1942 1.287 . S
C1943 C1944 1.524 . S
C1943 H1946 0.999 . S
C1944 H1914 0.950 . S
C1944 C1943 1.524 . S
C1944 C1945 1.415 . S
C1945 H1915 0.950 . S
C1945 C1940 1.363 . S
C1945 C1944 1.415 . S
H1946 C1943 0.999 . S
H1947 C1928 0.913 . S
H1948 C1966 0.951 . S
H1949 C1968 0.951 . S
H1950 C1970 0.950 . S
H1951 C1971 0.950 . S
H1952 C1973 0.950 . S
H1953 C1976 0.950 . S
H1954 C1977 0.950 . S
H1955 C1979 0.950 . S
H1956 C1980 0.950 . S
H1957 C1981 0.951 . S
H1958 C1983 0.951 . S
H1959 C1985 0.950 . S
H1960 C1986 0.950 . S
H1961 C1988 0.950 . S
H1962 C1991 0.950 . S
H1963 C1992 0.950 . S
H1964 C1994 0.950 . S
H1965 C1995 0.950 . S
C1966 H1948 0.951 . S
C1966 C1967 1.366 . S
C1966 C1968 1.388 . S
C1967 C1966 1.366 . S
C1967 C1971 1.385 . S
C1968 H1949 0.951 . S
C1968 C1966 1.388 . S
C1968 C1969 1.366 . S
C1969 C1968 1.366 . S
C1969 C1970 1.414 . S
C1969 C1972 1.499 . S
C1970 H1950 0.950 . S
C1970 C1969 1.414 . S
C1970 C1971 1.374 . S
C1971 H1951 0.950 . S
C1971 C1967 1.385 . S
C1971 C1970 1.374 . S
C1972 C1969 1.499 . S
C1972 C1973 1.373 . S
C1972 C1974 1.389 . S
C1973 H1952 0.950 . S
C1973 C1972 1.373 . S
C1973 C1989 1.377 . S
C1974 C1972 1.389 . S
C1974 C1975 1.524 . S
C1974 C1988 1.377 . S
C1975 C1974 1.524 . S
C1975 C1976 1.397 . S
C1975 C1980 1.363 . S
C1976 H1953 0.950 . S
C1976 C1975 1.397 . S
C1976 C1977 1.334 . S
C1977 H1954 0.950 . S
C1977 C1976 1.334 . S
C1977 C1978 1.287 . S
C1978 C1977 1.287 . S
C1978 C1979 1.524 . S
C1978 H1997 0.913 . S
C1979 H1955 0.950 . S
C1979 C1978 1.524 . S
C1979 C1980 1.415 . S
C1980 H1956 0.950 . S
C1980 C1975 1.363 . S
C1980 C1979 1.415 . S
C1981 H1957 0.951 . S
C1981 C1982 1.366 . S
C1981 C1983 1.388 . S
C1982 C1981 1.366 . S
C1982 C1986 1.385 . S
C1983 H1958 0.951 . S
C1983 C1981 1.388 . S
C1983 C1984 1.366 . S
C1984 C1983 1.366 . S
C1984 C1985 1.414 . S
C1984 C1987 1.499 . S
C1985 H1959 0.950 . S
C1985 C1984 1.414 . S
C1985 C1986 1.374 . S
C1986 H1960 0.950 . S
C1986 C1982 1.385 . S
C1986 C1985 1.374 . S
C1987 C1984 1.499 . S
C1987 C1988 1.373 . S
C1987 C1989 1.389 . S
C1988 H1961 0.950 . S
C1988 C1974 1.377 . S
C1988 C1987 1.373 . S
C1989 C1973 1.377 . S
C1989 C1987 1.389 . S
C1989 C1990 1.524 . S
C1990 C1989 1.524 . S
C1990 C1991 1.397 . S
C1990 C1995 1.363 . S
C1991 H1962 0.950 . S
C1991 C1990 1.397 . S
C1991 C1992 1.334 . S
C1992 H1963 0.950 . S
C1992 C1991 1.334 . S
C1992 C1993 1.287 . S
C1993 C1992 1.287 . S
C1993 C1994 1.524 . S
C1993 H1996 0.999 . S
C1994 H1964 0.950 . S
C1994 C1993 1.524 . S
C1994 C1995 1.415 . S
C1995 H1965 0.950 . S
C1995 C1990 1.363 . S
C1995 C1994 1.415 . S
H1996 C1993 0.999 . S
H1997 C1978 0.913 . S
H1998 C2016 0.951 . S
H1999 C2018 0.951 . S
H2000 C2020 0.950 . S
H2001 C2021 0.950 . S
H2002 C2023 0.950 . S
H2003 C2026 0.950 . S
H2004 C2027 0.950 . S
H2005 C2029 0.950 . S
H2006 C2030 0.950 . S
H2007 C2031 0.951 . S
H2008 C2033 0.951 . S
H2009 C2035 0.950 . S
H2010 C2036 0.950 . S
H2011 C2038 0.950 . S
H2012 C2041 0.950 . S
H2013 C2042 0.950 . S
H2014 C2044 0.950 . S
H2015 C2045 0.950 . S
C2016 H1998 0.951 . S
C2016 C2017 1.366 . S
C2016 C2018 1.388 . S
C2017 C2016 1.366 . S
C2017 C2021 1.385 . S
C2018 H1999 0.951 . S
C2018 C2016 1.388 . S
C2018 C2019 1.366 . S
C2019 C2018 1.366 . S
C2019 C2020 1.414 . S
C2019 C2022 1.499 . S
C2020 H2000 0.950 . S
C2020 C2019 1.414 . S
C2020 C2021 1.374 . S
C2021 H2001 0.950 . S
C2021 C2017 1.385 . S
C2021 C2020 1.374 . S
C2022 C2019 1.499 . S
C2022 C2023 1.373 . S
C2022 C2024 1.389 . S
C2023 H2002 0.950 . S
C2023 C2022 1.373 . S
C2023 C2039 1.377 . S
C2024 C2022 1.389 . S
C2024 C2025 1.524 . S
C2024 C2038 1.377 . S
C2025 C2024 1.524 . S
C2025 C2026 1.397 . S
C2025 C2030 1.363 . S
C2026 H2003 0.950 . S
C2026 C2025 1.397 . S
C2026 C2027 1.334 . S
C2027 H2004 0.950 . S
C2027 C2026 1.334 . S
C2027 C2028 1.287 . S
C2028 C2027 1.287 . S
C2028 C2029 1.524 . S
C2028 H2047 0.913 . S
C2029 H2005 0.950 . S
C2029 C2028 1.524 . S
C2029 C2030 1.415 . S
C2030 H2006 0.950 . S
C2030 C2025 1.363 . S
C2030 C2029 1.415 . S
C2031 H2007 0.951 . S
C2031 C2032 1.366 . S
C2031 C2033 1.388 . S
C2032 C2031 1.366 . S
C2032 C2036 1.385 . S
C2033 H2008 0.951 . S
C2033 C2031 1.388 . S
C2033 C2034 1.366 . S
C2034 C2033 1.366 . S
C2034 C2035 1.414 . S
C2034 C2037 1.499 . S
C2035 H2009 0.950 . S
C2035 C2034 1.414 . S
C2035 C2036 1.374 . S
C2036 H2010 0.950 . S
C2036 C2032 1.385 . S
C2036 C2035 1.374 . S
C2037 C2034 1.499 . S
C2037 C2038 1.373 . S
C2037 C2039 1.389 . S
C2038 H2011 0.950 . S
C2038 C2024 1.377 . S
C2038 C2037 1.373 . S
C2039 C2023 1.377 . S
C2039 C2037 1.389 . S
C2039 C2040 1.524 . S
C2040 C2039 1.524 . S
C2040 C2041 1.397 . S
C2040 C2045 1.363 . S
C2041 H2012 0.950 . S
C2041 C2040 1.397 . S
C2041 C2042 1.334 . S
C2042 H2013 0.950 . S
C2042 C2041 1.334 . S
C2042 C2043 1.287 . S
C2043 C2042 1.287 . S
C2043 C2044 1.524 . S
C2043 H2046 0.999 . S
C2044 H2014 0.950 . S
C2044 C2043 1.524 . S
C2044 C2045 1.415 . S
C2045 H2015 0.950 . S
C2045 C2040 1.363 . S
C2045 C2044 1.415 . S
H2046 C2043 0.999 . S
H2047 C2028 0.913 . S
H2048 C2066 0.951 . S
H2049 C2068 0.951 . S
H2050 C2070 0.950 . S
H2051 C2071 0.950 . S
H2052 C2073 0.950 . S
H2053 C2076 0.950 . S
H2054 C2077 0.950 . S
H2055 C2079 0.950 . S
H2056 C2080 0.950 . S
H2057 C2081 0.951 . S
H2058 C2083 0.951 . S
H2059 C2085 0.950 . S
H2060 C2086 0.950 . S
H2061 C2088 0.950 . S
H2062 C2091 0.950 . S
H2063 C2092 0.950 . S
H2064 C2094 0.950 . S
H2065 C2095 0.950 . S
C2066 H2048 0.951 . S
C2066 C2067 1.366 . S
C2066 C2068 1.388 . S
C2067 C2066 1.366 . S
C2067 C2071 1.385 . S
C2068 H2049 0.951 . S
C2068 C2066 1.388 . S
C2068 C2069 1.366 . S
C2069 C2068 1.366 . S
C2069 C2070 1.414 . S
C2069 C2072 1.499 . S
C2070 H2050 0.950 . S
C2070 C2069 1.414 . S
C2070 C2071 1.374 . S
C2071 H2051 0.950 . S
C2071 C2067 1.385 . S
C2071 C2070 1.374 . S
C2072 C2069 1.499 . S
C2072 C2073 1.373 . S
C2072 C2074 1.389 . S
C2073 H2052 0.950 . S
C2073 C2072 1.373 . S
C2073 C2089 1.377 . S
C2074 C2072 1.389 . S
C2074 C2075 1.524 . S
C2074 C2088 1.377 . S
C2075 C2074 1.524 . S
C2075 C2076 1.397 . S
C2075 C2080 1.363 . S
C2076 H2053 0.950 . S
C2076 C2075 1.397 . S
C2076 C2077 1.334 . S
C2077 H2054 0.950 . S
C2077 C2076 1.334 . S
C2077 C2078 1.287 . S
C2078 C2077 1.287 . S
C2078 C2079 1.524 . S
C2078 H2097 0.913 . S
C2079 H2055 0.950 . S
C2079 C2078 1.524 . S
C2079 C2080 1.415 . S
C2080 H2056 0.950 . S
C2080 C2075 1.363 . S
C2080 C2079 1.415 . S
C2081 H2057 0.951 . S
C2081 C2082 1.366 . S
C2081 C2083 1.388 . S
C2082 C2081 1.366 . S
C2082 C2086 1.385 . S
C2083 H2058 0.951 . S
C2083 C2081 1.388 . S
C2083 C2084 1.366 . S
C2084 C2083 1.366 . S
C2084 C2085 1.414 . S
C2084 C2087 1.499 . S
C2085 H2059 0.950 . S
C2085 C2084 1.414 . S
C2085 C2086 1.374 . S
C2086 H2060 0.950 . S
C2086 C2082 1.385 . S
C2086 C2085 1.374 . S
C2087 C2084 1.499 . S
C2087 C2088 1.373 . S
C2087 C2089 1.389 . S
C2088 H2061 0.950 . S
C2088 C2074 1.377 . S
C2088 C2087 1.373 . S
C2089 C2073 1.377 . S
C2089 C2087 1.389 . S
C2089 C2090 1.524 . S
C2090 C2089 1.524 . S
C2090 C2091 1.397 . S
C2090 C2095 1.363 . S
C2091 H2062 0.950 . S
C2091 C2090 1.397 . S
C2091 C2092 1.334 . S
C2092 H2063 0.950 . S
C2092 C2091 1.334 . S
C2092 C2093 1.287 . S
C2093 C2092 1.287 . S
C2093 C2094 1.524 . S
C2093 H2096 0.999 . S
C2094 H2064 0.950 . S
C2094 C2093 1.524 . S
C2094 C2095 1.415 . S
C2095 H2065 0.950 . S
C2095 C2090 1.363 . S
C2095 C2094 1.415 . S
H2096 C2093 0.999 . S
H2097 C2078 0.913 . S
H2098 C2116 0.951 . S
H2099 C2118 0.951 . S
H2100 C2120 0.950 . S
H2101 C2121 0.950 . S
H2102 C2123 0.950 . S
H2103 C2126 0.950 . S
H2104 C2127 0.950 . S
H2105 C2129 0.950 . S
H2106 C2130 0.950 . S
H2107 C2131 0.951 . S
H2108 C2133 0.951 . S
H2109 C2135 0.950 . S
H2110 C2136 0.950 . S
H2111 C2138 0.950 . S
H2112 C2141 0.950 . S
H2113 C2142 0.950 . S
H2114 C2144 0.950 . S
H2115 C2145 0.950 . S
C2116 H2098 0.951 . S
C2116 C2117 1.366 . S
C2116 C2118 1.388 . S
C2117 C2116 1.366 . S
C2117 C2121 1.385 . S
C2118 H2099 0.951 . S
C2118 C2116 1.388 . S
C2118 C2119 1.366 . S
C2119 C2118 1.366 . S
C2119 C2120 1.414 . S
C2119 C2122 1.499 . S
C2120 H2100 0.950 . S
C2120 C2119 1.414 . S
C2120 C2121 1.374 . S
C2121 H2101 0.950 . S
C2121 C2117 1.385 . S
C2121 C2120 1.374 . S
C2122 C2119 1.499 . S
C2122 C2123 1.373 . S
C2122 C2124 1.389 . S
C2123 H2102 0.950 . S
C2123 C2122 1.373 . S
C2123 C2139 1.377 . S
C2124 C2122 1.389 . S
C2124 C2125 1.524 . S
C2124 C2138 1.377 . S
C2125 C2124 1.524 . S
C2125 C2126 1.397 . S
C2125 C2130 1.363 . S
C2126 H2103 0.950 . S
C2126 C2125 1.397 . S
C2126 C2127 1.334 . S
C2127 H2104 0.950 . S
C2127 C2126 1.334 . S
C2127 C2128 1.287 . S
C2128 C2127 1.287 . S
C2128 C2129 1.524 . S
C2128 H2147 0.913 . S
C2129 H2105 0.950 . S
C2129 C2128 1.524 . S
C2129 C2130 1.415 . S
C2130 H2106 0.950 . S
C2130 C2125 1.363 . S
C2130 C2129 1.415 . S
C2131 H2107 0.951 . S
C2131 C2132 1.366 . S
C2131 C2133 1.388 . S
C2132 C2131 1.366 . S
C2132 C2136 1.385 . S
C2133 H2108 0.951 . S
C2133 C2131 1.388 . S
C2133 C2134 1.366 . S
C2134 C2133 1.366 . S
C2134 C2135 1.414 . S
C2134 C2137 1.499 . S
C2135 H2109 0.950 . S
C2135 C2134 1.414 . S
C2135 C2136 1.374 . S
C2136 H2110 0.950 . S
C2136 C2132 1.385 . S
C2136 C2135 1.374 . S
C2137 C2134 1.499 . S
C2137 C2138 1.373 . S
C2137 C2139 1.389 . S
C2138 H2111 0.950 . S
C2138 C2124 1.377 . S
C2138 C2137 1.373 . S
C2139 C2123 1.377 . S
C2139 C2137 1.389 . S
C2139 C2140 1.524 . S
C2140 C2139 1.524 . S
C2140 C2141 1.397 . S
C2140 C2145 1.363 . S
C2141 H2112 0.950 . S
C2141 C2140 1.397 . S
C2141 C2142 1.334 . S
C2142 H2113 0.950 . S
C2142 C2141 1.334 . S
C2142 C2143 1.287 . S
C2143 C2142 1.287 . S
C2143 C2144 1.524 . S
C2143 H2146 0.999 . S
C2144 H2114 0.950 . S
C2144 C2143 1.524 . S
C2144 C2145 1.415 . S
C2145 H2115 0.950 . S
C2145 C2140 1.363 . S
C2145 C2144 1.415 . S
H2146 C2143 0.999 . S
H2147 C2128 0.913 . S
H2148 C2166 0.951 . S
H2149 C2168 0.951 . S
H2150 C2170 0.950 . S
H2151 C2171 0.950 . S
H2152 C2173 0.950 . S
H2153 C2176 0.950 . S
H2154 C2177 0.950 . S
H2155 C2179 0.950 . S
H2156 C2180 0.950 . S
H2157 C2181 0.951 . S
H2158 C2183 0.951 . S
H2159 C2185 0.950 . S
H2160 C2186 0.950 . S
H2161 C2188 0.950 . S
H2162 C2191 0.950 . S
H2163 C2192 0.950 . S
H2164 C2194 0.950 . S
H2165 C2195 0.950 . S
C2166 H2148 0.951 . S
C2166 C2167 1.366 . S
C2166 C2168 1.388 . S
C2167 C2166 1.366 . S
C2167 C2171 1.385 . S
C2168 H2149 0.951 . S
C2168 C2166 1.388 . S
C2168 C2169 1.366 . S
C2169 C2168 1.366 . S
C2169 C2170 1.414 . S
C2169 C2172 1.499 . S
C2170 H2150 0.950 . S
C2170 C2169 1.414 . S
C2170 C2171 1.374 . S
C2171 H2151 0.950 . S
C2171 C2167 1.385 . S
C2171 C2170 1.374 . S
C2172 C2169 1.499 . S
C2172 C2173 1.373 . S
C2172 C2174 1.389 . S
C2173 H2152 0.950 . S
C2173 C2172 1.373 . S
C2173 C2189 1.377 . S
C2174 C2172 1.389 . S
C2174 C2175 1.524 . S
C2174 C2188 1.377 . S
C2175 C2174 1.524 . S
C2175 C2176 1.397 . S
C2175 C2180 1.363 . S
C2176 H2153 0.950 . S
C2176 C2175 1.397 . S
C2176 C2177 1.334 . S
C2177 H2154 0.950 . S
C2177 C2176 1.334 . S
C2177 C2178 1.287 . S
C2178 C2177 1.287 . S
C2178 C2179 1.524 . S
C2178 H2197 0.913 . S
C2179 H2155 0.950 . S
C2179 C2178 1.524 . S
C2179 C2180 1.415 . S
C2180 H2156 0.950 . S
C2180 C2175 1.363 . S
C2180 C2179 1.415 . S
C2181 H2157 0.951 . S
C2181 C2182 1.366 . S
C2181 C2183 1.388 . S
C2182 C2181 1.366 . S
C2182 C2186 1.385 . S
C2183 H2158 0.951 . S
C2183 C2181 1.388 . S
C2183 C2184 1.366 . S
C2184 C2183 1.366 . S
C2184 C2185 1.414 . S
C2184 C2187 1.499 . S
C2185 H2159 0.950 . S
C2185 C2184 1.414 . S
C2185 C2186 1.374 . S
C2186 H2160 0.950 . S
C2186 C2182 1.385 . S
C2186 C2185 1.374 . S
C2187 C2184 1.499 . S
C2187 C2188 1.373 . S
C2187 C2189 1.389 . S
C2188 H2161 0.950 . S
C2188 C2174 1.377 . S
C2188 C2187 1.373 . S
C2189 C2173 1.377 . S
C2189 C2187 1.389 . S
C2189 C2190 1.524 . S
C2190 C2189 1.524 . S
C2190 C2191 1.397 . S
C2190 C2195 1.363 . S
C2191 H2162 0.950 . S
C2191 C2190 1.397 . S
C2191 C2192 1.334 . S
C2192 H2163 0.950 . S
C2192 C2191 1.334 . S
C2192 C2193 1.287 . S
C2193 C2192 1.287 . S
C2193 C2194 1.524 . S
C2193 H2196 0.999 . S
C2194 H2164 0.950 . S
C2194 C2193 1.524 . S
C2194 C2195 1.415 . S
C2195 H2165 0.950 . S
C2195 C2190 1.363 . S
C2195 C2194 1.415 . S
H2196 C2193 0.999 . S
H2197 C2178 0.913 . S
H2198 C2216 0.951 . S
H2199 C2218 0.951 . S
H2200 C2220 0.950 . S
H2201 C2221 0.950 . S
H2202 C2223 0.950 . S
H2203 C2226 0.950 . S
H2204 C2227 0.950 . S
H2205 C2229 0.950 . S
H2206 C2230 0.950 . S
H2207 C2231 0.951 . S
H2208 C2233 0.951 . S
H2209 C2235 0.950 . S
H2210 C2236 0.950 . S
H2211 C2238 0.950 . S
H2212 C2241 0.950 . S
H2213 C2242 0.950 . S
H2214 C2244 0.950 . S
H2215 C2245 0.950 . S
C2216 H2198 0.951 . S
C2216 C2217 1.366 . S
C2216 C2218 1.388 . S
C2217 C2216 1.366 . S
C2217 C2221 1.385 . S
C2218 H2199 0.951 . S
C2218 C2216 1.388 . S
C2218 C2219 1.366 . S
C2219 C2218 1.366 . S
C2219 C2220 1.414 . S
C2219 C2222 1.499 . S
C2220 H2200 0.950 . S
C2220 C2219 1.414 . S
C2220 C2221 1.374 . S
C2221 H2201 0.950 . S
C2221 C2217 1.385 . S
C2221 C2220 1.374 . S
C2222 C2219 1.499 . S
C2222 C2223 1.373 . S
C2222 C2224 1.389 . S
C2223 H2202 0.950 . S
C2223 C2222 1.373 . S
C2223 C2239 1.377 . S
C2224 C2222 1.389 . S
C2224 C2225 1.524 . S
C2224 C2238 1.377 . S
C2225 C2224 1.524 . S
C2225 C2226 1.397 . S
C2225 C2230 1.363 . S
C2226 H2203 0.950 . S
C2226 C2225 1.397 . S
C2226 C2227 1.334 . S
C2227 H2204 0.950 . S
C2227 C2226 1.334 . S
C2227 C2228 1.287 . S
C2228 C2227 1.287 . S
C2228 C2229 1.524 . S
C2228 H2247 0.913 . S
C2229 H2205 0.950 . S
C2229 C2228 1.524 . S
C2229 C2230 1.415 . S
C2230 H2206 0.950 . S
C2230 C2225 1.363 . S
C2230 C2229 1.415 . S
C2231 H2207 0.951 . S
C2231 C2232 1.366 . S
C2231 C2233 1.388 . S
C2232 C2231 1.366 . S
C2232 C2236 1.385 . S
C2233 H2208 0.951 . S
C2233 C2231 1.388 . S
C2233 C2234 1.366 . S
C2234 C2233 1.366 . S
C2234 C2235 1.414 . S
C2234 C2237 1.499 . S
C2235 H2209 0.950 . S
C2235 C2234 1.414 . S
C2235 C2236 1.374 . S
C2236 H2210 0.950 . S
C2236 C2232 1.385 . S
C2236 C2235 1.374 . S
C2237 C2234 1.499 . S
C2237 C2238 1.373 . S
C2237 C2239 1.389 . S
C2238 H2211 0.950 . S
C2238 C2224 1.377 . S
C2238 C2237 1.373 . S
C2239 C2223 1.377 . S
C2239 C2237 1.389 . S
C2239 C2240 1.524 . S
C2240 C2239 1.524 . S
C2240 C2241 1.397 . S
C2240 C2245 1.363 . S
C2241 H2212 0.950 . S
C2241 C2240 1.397 . S
C2241 C2242 1.334 . S
C2242 H2213 0.950 . S
C2242 C2241 1.334 . S
C2242 C2243 1.287 . S
C2243 C2242 1.287 . S
C2243 C2244 1.524 . S
C2243 H2246 0.999 . S
C2244 H2214 0.950 . S
C2244 C2243 1.524 . S
C2244 C2245 1.415 . S
C2245 H2215 0.950 . S
C2245 C2240 1.363 . S
C2245 C2244 1.415 . S
H2246 C2243 0.999 . S
H2247 C2228 0.913 . S
H2248 C2266 0.951 . S
H2249 C2268 0.951 . S
H2250 C2270 0.950 . S
H2251 C2271 0.950 . S
H2252 C2273 0.950 . S
H2253 C2276 0.950 . S
H2254 C2277 0.950 . S
H2255 C2279 0.950 . S
H2256 C2280 0.950 . S
H2257 C2281 0.951 . S
H2258 C2283 0.951 . S
H2259 C2285 0.950 . S
H2260 C2286 0.950 . S
H2261 C2288 0.950 . S
H2262 C2291 0.950 . S
H2263 C2292 0.950 . S
H2264 C2294 0.950 . S
H2265 C2295 0.950 . S
C2266 H2248 0.951 . S
C2266 C2267 1.366 . S
C2266 C2268 1.388 . S
C2267 C2266 1.366 . S
C2267 C2271 1.385 . S
C2268 H2249 0.951 . S
C2268 C2266 1.388 . S
C2268 C2269 1.366 . S
C2269 C2268 1.366 . S
C2269 C2270 1.414 . S
C2269 C2272 1.499 . S
C2270 H2250 0.950 . S
C2270 C2269 1.414 . S
C2270 C2271 1.374 . S
C2271 H2251 0.950 . S
C2271 C2267 1.385 . S
C2271 C2270 1.374 . S
C2272 C2269 1.499 . S
C2272 C2273 1.373 . S
C2272 C2274 1.389 . S
C2273 H2252 0.950 . S
C2273 C2272 1.373 . S
C2273 C2289 1.377 . S
C2274 C2272 1.389 . S
C2274 C2275 1.524 . S
C2274 C2288 1.377 . S
C2275 C2274 1.524 . S
C2275 C2276 1.397 . S
C2275 C2280 1.363 . S
C2276 H2253 0.950 . S
C2276 C2275 1.397 . S
C2276 C2277 1.334 . S
C2277 H2254 0.950 . S
C2277 C2276 1.334 . S
C2277 C2278 1.287 . S
C2278 C2277 1.287 . S
C2278 C2279 1.524 . S
C2278 H2297 0.913 . S
C2279 H2255 0.950 . S
C2279 C2278 1.524 . S
C2279 C2280 1.415 . S
C2280 H2256 0.950 . S
C2280 C2275 1.363 . S
C2280 C2279 1.415 . S
C2281 H2257 0.951 . S
C2281 C2282 1.366 . S
C2281 C2283 1.388 . S
C2282 C2281 1.366 . S
C2282 C2286 1.385 . S
C2283 H2258 0.951 . S
C2283 C2281 1.388 . S
C2283 C2284 1.366 . S
C2284 C2283 1.366 . S
C2284 C2285 1.414 . S
C2284 C2287 1.499 . S
C2285 H2259 0.950 . S
C2285 C2284 1.414 . S
C2285 C2286 1.374 . S
C2286 H2260 0.950 . S
C2286 C2282 1.385 . S
C2286 C2285 1.374 . S
C2287 C2284 1.499 . S
C2287 C2288 1.373 . S
C2287 C2289 1.389 . S
C2288 H2261 0.950 . S
C2288 C2274 1.377 . S
C2288 C2287 1.373 . S
C2289 C2273 1.377 . S
C2289 C2287 1.389 . S
C2289 C2290 1.524 . S
C2290 C2289 1.524 . S
C2290 C2291 1.397 . S
C2290 C2295 1.363 . S
C2291 H2262 0.950 . S
C2291 C2290 1.397 . S
C2291 C2292 1.334 . S
C2292 H2263 0.950 . S
C2292 C2291 1.334 . S
C2292 C2293 1.287 . S
C2293 C2292 1.287 . S
C2293 C2294 1.524 . S
C2293 H2296 0.999 . S
C2294 H2264 0.950 . S
C2294 C2293 1.524 . S
C2294 C2295 1.415 . S
C2295 H2265 0.950 . S
C2295 C2290 1.363 . S
C2295 C2294 1.415 . S
H2296 C2293 0.999 . S
H2297 C2278 0.913 . S
H2298 C2316 0.951 . S
H2299 C2318 0.951 . S
H2300 C2320 0.950 . S
H2301 C2321 0.950 . S
H2302 C2323 0.950 . S
H2303 C2326 0.950 . S
H2304 C2327 0.950 . S
H2305 C2329 0.950 . S
H2306 C2330 0.950 . S
H2307 C2331 0.951 . S
H2308 C2333 0.951 . S
H2309 C2335 0.950 . S
H2310 C2336 0.950 . S
H2311 C2338 0.950 . S
H2312 C2341 0.950 . S
H2313 C2342 0.950 . S
H2314 C2344 0.950 . S
H2315 C2345 0.950 . S
C2316 H2298 0.951 . S
C2316 C2317 1.366 . S
C2316 C2318 1.388 . S
C2317 C2316 1.366 . S
C2317 C2321 1.385 . S
C2318 H2299 0.951 . S
C2318 C2316 1.388 . S
C2318 C2319 1.366 . S
C2319 C2318 1.366 . S
C2319 C2320 1.414 . S
C2319 C2322 1.499 . S
C2320 H2300 0.950 . S
C2320 C2319 1.414 . S
C2320 C2321 1.374 . S
C2321 H2301 0.950 . S
C2321 C2317 1.385 . S
C2321 C2320 1.374 . S
C2322 C2319 1.499 . S
C2322 C2323 1.373 . S
C2322 C2324 1.389 . S
C2323 H2302 0.950 . S
C2323 C2322 1.373 . S
C2323 C2339 1.377 . S
C2324 C2322 1.389 . S
C2324 C2325 1.524 . S
C2324 C2338 1.377 . S
C2325 C2324 1.524 . S
C2325 C2326 1.397 . S
C2325 C2330 1.363 . S
C2326 H2303 0.950 . S
C2326 C2325 1.397 . S
C2326 C2327 1.334 . S
C2327 H2304 0.950 . S
C2327 C2326 1.334 . S
C2327 C2328 1.287 . S
C2328 C2327 1.287 . S
C2328 C2329 1.524 . S
C2328 H2347 0.913 . S
C2329 H2305 0.950 . S
C2329 C2328 1.524 . S
C2329 C2330 1.415 . S
C2330 H2306 0.950 . S
C2330 C2325 1.363 . S
C2330 C2329 1.415 . S
C2331 H2307 0.951 . S
C2331 C2332 1.366 . S
C2331 C2333 1.388 . S
C2332 C2331 1.366 . S
C2332 C2336 1.385 . S
C2333 H2308 0.951 . S
C2333 C2331 1.388 . S
C2333 C2334 1.366 . S
C2334 C2333 1.366 . S
C2334 C2335 1.414 . S
C2334 C2337 1.499 . S
C2335 H2309 0.950 . S
C2335 C2334 1.414 . S
C2335 C2336 1.374 . S
C2336 H2310 0.950 . S
C2336 C2332 1.385 . S
C2336 C2335 1.374 . S
C2337 C2334 1.499 . S
C2337 C2338 1.373 . S
C2337 C2339 1.389 . S
C2338 H2311 0.950 . S
C2338 C2324 1.377 . S
C2338 C2337 1.373 . S
C2339 C2323 1.377 . S
C2339 C2337 1.389 . S
C2339 C2340 1.524 . S
C2340 C2339 1.524 . S
C2340 C2341 1.397 . S
C2340 C2345 1.363 . S
C2341 H2312 0.950 . S
C2341 C2340 1.397 . S
C2341 C2342 1.334 . S
C2342 H2313 0.950 . S
C2342 C2341 1.334 . S
C2342 C2343 1.287 . S
C2343 C2342 1.287 . S
C2343 C2344 1.524 . S
C2343 H2346 0.999 . S
C2344 H2314 0.950 . S
C2344 C2343 1.524 . S
C2344 C2345 1.415 . S
C2345 H2315 0.950 . S
C2345 C2340 1.363 . S
C2345 C2344 1.415 . S
H2346 C2343 0.999 . S
H2347 C2328 0.913 . S
H2348 C2366 0.951 . S
H2349 C2368 0.951 . S
H2350 C2370 0.950 . S
H2351 C2371 0.950 . S
H2352 C2373 0.950 . S
H2353 C2376 0.950 . S
H2354 C2377 0.950 . S
H2355 C2379 0.950 . S
H2356 C2380 0.950 . S
H2357 C2381 0.951 . S
H2358 C2383 0.951 . S
H2359 C2385 0.950 . S
H2360 C2386 0.950 . S
H2361 C2388 0.950 . S
H2362 C2391 0.950 . S
H2363 C2392 0.950 . S
H2364 C2394 0.950 . S
H2365 C2395 0.950 . S
C2366 H2348 0.951 . S
C2366 C2367 1.366 . S
C2366 C2368 1.388 . S
C2367 C2366 1.366 . S
C2367 C2371 1.385 . S
C2368 H2349 0.951 . S
C2368 C2366 1.388 . S
C2368 C2369 1.366 . S
C2369 C2368 1.366 . S
C2369 C2370 1.414 . S
C2369 C2372 1.499 . S
C2370 H2350 0.950 . S
C2370 C2369 1.414 . S
C2370 C2371 1.374 . S
C2371 H2351 0.950 . S
C2371 C2367 1.385 . S
C2371 C2370 1.374 . S
C2372 C2369 1.499 . S
C2372 C2373 1.373 . S
C2372 C2374 1.389 . S
C2373 H2352 0.950 . S
C2373 C2372 1.373 . S
C2373 C2389 1.377 . S
C2374 C2372 1.389 . S
C2374 C2375 1.524 . S
C2374 C2388 1.377 . S
C2375 C2374 1.524 . S
C2375 C2376 1.397 . S
C2375 C2380 1.363 . S
C2376 H2353 0.950 . S
C2376 C2375 1.397 . S
C2376 C2377 1.334 . S
C2377 H2354 0.950 . S
C2377 C2376 1.334 . S
C2377 C2378 1.287 . S
C2378 C2377 1.287 . S
C2378 C2379 1.524 . S
C2378 H2397 0.913 . S
C2379 H2355 0.950 . S
C2379 C2378 1.524 . S
C2379 C2380 1.415 . S
C2380 H2356 0.950 . S
C2380 C2375 1.363 . S
C2380 C2379 1.415 . S
C2381 H2357 0.951 . S
C2381 C2382 1.366 . S
C2381 C2383 1.388 . S
C2382 C2381 1.366 . S
C2382 C2386 1.385 . S
C2383 H2358 0.951 . S
C2383 C2381 1.388 . S
C2383 C2384 1.366 . S
C2384 C2383 1.366 . S
C2384 C2385 1.414 . S
C2384 C2387 1.499 . S
C2385 H2359 0.950 . S
C2385 C2384 1.414 . S
C2385 C2386 1.374 . S
C2386 H2360 0.950 . S
C2386 C2382 1.385 . S
C2386 C2385 1.374 . S
C2387 C2384 1.499 . S
C2387 C2388 1.373 . S
C2387 C2389 1.389 . S
C2388 H2361 0.950 . S
C2388 C2374 1.377 . S
C2388 C2387 1.373 . S
C2389 C2373 1.377 . S
C2389 C2387 1.389 . S
C2389 C2390 1.524 . S
C2390 C2389 1.524 . S
C2390 C2391 1.397 . S
C2390 C2395 1.363 . S
C2391 H2362 0.950 . S
C2391 C2390 1.397 . S
C2391 C2392 1.334 . S
C2392 H2363 0.950 . S
C2392 C2391 1.334 . S
C2392 C2393 1.287 . S
C2393 C2392 1.287 . S
C2393 C2394 1.524 . S
C2393 H2396 0.999 . S
C2394 H2364 0.950 . S
C2394 C2393 1.524 . S
C2394 C2395 1.415 . S
C2395 H2365 0.950 . S
C2395 C2390 1.363 . S
C2395 C2394 1.415 . S
H2396 C2393 0.999 . S
H2397 C2378 0.913 . S
H2398 C2416 0.951 . S
H2399 C2418 0.951 . S
H2400 C2420 0.950 . S
H2401 C2421 0.950 . S
H2402 C2423 0.950 . S
H2403 C2426 0.950 . S
H2404 C2427 0.950 . S
H2405 C2429 0.950 . S
H2406 C2430 0.950 . S
H2407 C2431 0.951 . S
H2408 C2433 0.951 . S
H2409 C2435 0.950 . S
H2410 C2436 0.950 . S
H2411 C2438 0.950 . S
H2412 C2441 0.950 . S
H2413 C2442 0.950 . S
H2414 C2444 0.950 . S
H2415 C2445 0.950 . S
C2416 H2398 0.951 . S
C2416 C2417 1.366 . S
C2416 C2418 1.388 . S
C2417 C2416 1.366 . S
C2417 C2421 1.385 . S
C2418 H2399 0.951 . S
C2418 C2416 1.388 . S
C2418 C2419 1.366 . S
C2419 C2418 1.366 . S
C2419 C2420 1.414 . S
C2419 C2422 1.499 . S
C2420 H2400 0.950 . S
C2420 C2419 1.414 . S
C2420 C2421 1.374 . S
C2421 H2401 0.950 . S
C2421 C2417 1.385 . S
C2421 C2420 1.374 . S
C2422 C2419 1.499 . S
C2422 C2423 1.373 . S
C2422 C2424 1.389 . S
C2423 H2402 0.950 . S
C2423 C2422 1.373 . S
C2423 C2439 1.377 . S
C2424 C2422 1.389 . S
C2424 C2425 1.524 . S
C2424 C2438 1.377 . S
C2425 C2424 1.524 . S
C2425 C2426 1.397 . S
C2425 C2430 1.363 . S
C2426 H2403 0.950 . S
C2426 C2425 1.397 . S
C2426 C2427 1.334 . S
C2427 H2404 0.950 . S
C2427 C2426 1.334 . S
C2427 C2428 1.287 . S
C2428 C2427 1.287 . S
C2428 C2429 1.524 . S
C2428 H2447 0.913 . S
C2429 H2405 0.950 . S
C2429 C2428 1.524 . S
C2429 C2430 1.415 . S
C2430 H2406 0.950 . S
C2430 C2425 1.363 . S
C2430 C2429 1.415 . S
C2431 H2407 0.951 . S
C2431 C2432 1.366 . S
C2431 C2433 1.388 . S
C2432 C2431 1.366 . S
C2432 C2436 1.385 . S
C2433 H2408 0.951 . S
C2433 C2431 1.388 . S
C2433 C2434 1.366 . S
C2434 C2433 1.366 . S
C2434 C2435 1.414 . S
C2434 C2437 1.499 . S
C2435 H2409 0.950 . S
C2435 C2434 1.414 . S
C2435 C2436 1.374 . S
C2436 H2410 0.950 . S
C2436 C2432 1.385 . S
C2436 C2435 1.374 . S
C2437 C2434 1.499 . S
C2437 C2438 1.373 . S
C2437 C2439 1.389 . S
C2438 H2411 0.950 . S
C2438 C2424 1.377 . S
C2438 C2437 1.373 . S
C2439 C2423 1.377 . S
C2439 C2437 1.389 . S
C2439 C2440 1.524 . S
C2440 C2439 1.524 . S
C2440 C2441 1.397 . S
C2440 C2445 1.363 . S
C2441 H2412 0.950 . S
C2441 C2440 1.397 . S
C2441 C2442 1.334 . S
C2442 H2413 0.950 . S
C2442 C2441 1.334 . S
C2442 C2443 1.287 . S
C2443 C2442 1.287 . S
C2443 C2444 1.524 . S
C2443 H2446 0.999 . S
C2444 H2414 0.950 . S
C2444 C2443 1.524 . S
C2444 C2445 1.415 . S
C2445 H2415 0.950 . S
C2445 C2440 1.363 . S
C2445 C2444 1.415 . S
H2446 C2443 0.999 . S
H2447 C2428 0.913 . S
H2448 C2466 0.951 . S
H2449 C2468 0.951 . S
H2450 C2470 0.950 . S
H2451 C2471 0.950 . S
H2452 C2473 0.950 . S
H2453 C2476 0.950 . S
H2454 C2477 0.950 . S
H2455 C2479 0.950 . S
H2456 C2480 0.979 . S
H2457 C2481 0.951 . S
H2458 C2483 0.951 . S
H2459 C2485 0.950 . S
H2460 C2486 0.950 . S
H2461 C2488 0.950 . S
H2462 C2491 0.950 . S
H2463 C2492 0.950 . S
H2464 C2494 0.950 . S
H2465 C2495 0.950 . S
C2466 H2448 0.951 . S
C2466 C2467 1.366 . S
C2466 C2468 1.388 . S
C2467 C2466 1.366 . S
C2467 C2471 1.385 . S
C2468 H2449 0.951 . S
C2468 C2466 1.388 . S
C2468 C2469 1.366 . S
C2469 C2468 1.366 . S
C2469 C2470 1.414 . S
C2469 C2472 1.499 . S
C2470 H2450 0.950 . S
C2470 C2469 1.414 . S
C2470 C2471 1.374 . S
C2471 H2451 0.950 . S
C2471 C2467 1.385 . S
C2471 C2470 1.374 . S
C2472 C2469 1.499 . S
C2472 C2473 1.373 . S
C2472 C2474 1.389 . S
C2473 H2452 0.950 . S
C2473 C2472 1.373 . S
C2473 C2489 1.377 1_554 S
C2474 C2472 1.389 . S
C2474 C2475 1.524 . S
C2474 C2488 1.377 1_554 S
C2475 C2474 1.524 . S
C2475 C2476 1.397 . S
C2475 C2480 1.363 . S
C2476 H2453 0.950 . S
C2476 C2475 1.397 . S
C2476 C2477 1.334 . S
C2477 H2454 0.950 . S
C2477 C2476 1.334 . S
C2477 C2478 1.287 . S
C2478 C2477 1.287 . S
C2478 C2479 1.524 . S
C2478 H2497 0.913 . S
C2479 H2455 0.950 . S
C2479 C2478 1.524 . S
C2479 C2480 1.415 . S
C2480 H2456 0.979 . S
C2480 C2475 1.363 . S
C2480 C2479 1.415 . S
C2481 H2457 0.951 . S
C2481 C2482 1.366 . S
C2481 C2483 1.388 . S
C2482 C2481 1.366 . S
C2482 C2486 1.385 . S
C2483 H2458 0.951 . S
C2483 C2481 1.388 . S
C2483 C2484 1.366 . S
C2484 C2483 1.366 . S
C2484 C2485 1.414 . S
C2484 C2487 1.499 . S
C2485 H2459 0.950 . S
C2485 C2484 1.414 . S
C2485 C2486 1.374 . S
C2486 H2460 0.950 . S
C2486 C2482 1.385 . S
C2486 C2485 1.374 . S
C2487 C2484 1.499 . S
C2487 C2488 1.373 . S
C2487 C2489 1.389 . S
C2488 H2461 0.950 . S
C2488 C2474 1.377 1_556 S
C2488 C2487 1.373 . S
C2489 C2473 1.377 1_556 S
C2489 C2487 1.389 . S
C2489 C2490 1.524 . S
C2490 C2489 1.524 . S
C2490 C2491 1.397 . S
C2490 C2495 1.363 . S
C2491 H2462 0.950 . S
C2491 C2490 1.397 . S
C2491 C2492 1.334 . S
C2492 H2463 0.950 . S
C2492 C2491 1.334 . S
C2492 C2493 1.287 . S
C2493 C2492 1.287 . S
C2493 C2494 1.524 . S
C2493 H2496 0.999 . S
C2494 H2464 0.950 . S
C2494 C2493 1.524 . S
C2494 C2495 1.415 . S
C2495 H2465 0.950 . S
C2495 C2490 1.363 . S
C2495 C2494 1.415 . S
H2496 C2493 0.999 . S
H2497 C2478 0.913 . S
H2498 C2516 0.951 . S
H2499 C2518 0.951 . S
H2500 C2520 0.950 . S
H2501 C2521 0.950 . S
H2502 C2523 0.950 . S
H2503 C2526 0.950 . S
H2504 C2527 0.950 . S
H2505 C2529 0.950 . S
H2506 C2530 0.950 . S
H2507 C2531 0.951 . S
H2508 C2533 0.951 . S
H2509 C2535 0.950 . S
H2510 C2536 0.950 . S
H2511 C2538 0.950 . S
H2512 C2541 0.950 . S
H2513 C2542 0.950 . S
H2514 C2544 0.950 . S
H2515 C2545 0.950 . S
C2516 H2498 0.951 . S
C2516 C2517 1.366 . S
C2516 C2518 1.388 . S
C2517 C2516 1.366 . S
C2517 C2521 1.385 . S
C2518 H2499 0.951 . S
C2518 C2516 1.388 . S
C2518 C2519 1.366 . S
C2519 C2518 1.366 . S
C2519 C2520 1.414 . S
C2519 C2522 1.499 . S
C2520 H2500 0.950 . S
C2520 C2519 1.414 . S
C2520 C2521 1.374 . S
C2521 H2501 0.950 . S
C2521 C2517 1.385 . S
C2521 C2520 1.374 . S
C2522 C2519 1.499 . S
C2522 C2523 1.373 . S
C2522 C2524 1.389 . S
C2523 H2502 0.950 . S
C2523 C2522 1.373 . S
C2523 C2539 1.377 1_556 S
C2524 C2522 1.389 . S
C2524 C2525 1.524 . S
C2524 C2538 1.377 1_556 S
C2525 C2524 1.524 . S
C2525 C2526 1.397 . S
C2525 C2530 1.363 . S
C2526 H2503 0.950 . S
C2526 C2525 1.397 . S
C2526 C2527 1.334 . S
C2527 H2504 0.950 . S
C2527 C2526 1.334 . S
C2527 C2528 1.287 . S
C2528 C2527 1.287 . S
C2528 C2529 1.524 . S
C2528 H2547 0.913 . S
C2529 H2505 0.950 . S
C2529 C2528 1.524 . S
C2529 C2530 1.415 . S
C2530 H2506 0.950 . S
C2530 C2525 1.363 . S
C2530 C2529 1.415 . S
C2531 H2507 0.951 . S
C2531 C2532 1.366 . S
C2531 C2533 1.388 . S
C2532 C2531 1.366 . S
C2532 C2536 1.385 . S
C2533 H2508 0.951 . S
C2533 C2531 1.388 . S
C2533 C2534 1.366 . S
C2534 C2533 1.366 . S
C2534 C2535 1.414 . S
C2534 C2537 1.499 . S
C2535 H2509 0.950 . S
C2535 C2534 1.414 . S
C2535 C2536 1.374 . S
C2536 H2510 0.950 . S
C2536 C2532 1.385 . S
C2536 C2535 1.374 . S
C2537 C2534 1.499 . S
C2537 C2538 1.373 . S
C2537 C2539 1.389 . S
C2538 H2511 0.950 . S
C2538 C2524 1.377 1_554 S
C2538 C2537 1.373 . S
C2539 C2523 1.377 1_554 S
C2539 C2537 1.389 . S
C2539 C2540 1.524 . S
C2540 C2539 1.524 . S
C2540 C2541 1.397 . S
C2540 C2545 1.363 . S
C2541 H2512 0.950 . S
C2541 C2540 1.397 . S
C2541 C2542 1.334 . S
C2542 H2513 0.950 . S
C2542 C2541 1.334 . S
C2542 C2543 1.287 . S
C2543 C2542 1.287 . S
C2543 C2544 1.524 . S
C2543 H2546 0.999 . S
C2544 H2514 0.950 . S
C2544 C2543 1.524 . S
C2544 C2545 1.415 . S
C2545 H2515 0.950 . S
C2545 C2540 1.363 . S
C2545 C2544 1.415 . S
H2546 C2543 0.999 . S
H2547 C2528 0.913 . S
H2548 C2566 0.951 . S
H2549 C2568 0.951 . S
H2550 C2570 0.950 . S
H2551 C2571 0.950 . S
H2552 C2573 0.950 . S
H2553 C2576 0.950 . S
H2554 C2577 0.950 . S
H2555 C2579 0.950 . S
H2556 C2580 0.950 . S
H2557 C2581 0.951 . S
H2558 C2583 0.951 . S
H2559 C2585 0.950 . S
H2560 C2586 0.950 . S
H2561 C2588 0.950 . S
H2562 C2591 0.950 . S
H2563 C2592 0.950 . S
H2564 C2594 0.950 . S
H2565 C2595 0.950 . S
C2566 H2548 0.951 . S
C2566 C2567 1.366 . S
C2566 C2568 1.388 . S
C2567 C2566 1.366 . S
C2567 C2571 1.385 . S
C2568 H2549 0.951 . S
C2568 C2566 1.388 . S
C2568 C2569 1.366 . S
C2569 C2568 1.366 . S
C2569 C2570 1.414 . S
C2569 C2572 1.499 . S
C2570 H2550 0.950 . S
C2570 C2569 1.414 . S
C2570 C2571 1.374 . S
C2571 H2551 0.950 . S
C2571 C2567 1.385 . S
C2571 C2570 1.374 . S
C2572 C2569 1.499 . S
C2572 C2573 1.373 . S
C2572 C2574 1.389 . S
C2573 H2552 0.950 . S
C2573 C2572 1.373 . S
C2573 C2589 1.377 1_554 S
C2574 C2572 1.389 . S
C2574 C2575 1.524 . S
C2574 C2588 1.377 1_554 S
C2575 C2574 1.524 . S
C2575 C2576 1.397 . S
C2575 C2580 1.363 . S
C2576 H2553 0.950 . S
C2576 C2575 1.397 . S
C2576 C2577 1.334 . S
C2577 H2554 0.950 . S
C2577 C2576 1.334 . S
C2577 C2578 1.287 . S
C2578 C2577 1.287 . S
C2578 C2579 1.524 . S
C2578 H2597 0.913 . S
C2579 H2555 0.950 . S
C2579 C2578 1.524 . S
C2579 C2580 1.415 . S
C2580 H2556 0.950 . S
C2580 C2575 1.363 . S
C2580 C2579 1.415 . S
C2581 H2557 0.951 . S
C2581 C2582 1.366 . S
C2581 C2583 1.388 . S
C2582 C2581 1.366 . S
C2582 C2586 1.385 . S
C2583 H2558 0.951 . S
C2583 C2581 1.388 . S
C2583 C2584 1.366 . S
C2584 C2583 1.366 . S
C2584 C2585 1.414 . S
C2584 C2587 1.499 . S
C2585 H2559 0.950 . S
C2585 C2584 1.414 . S
C2585 C2586 1.374 . S
C2586 H2560 0.950 . S
C2586 C2582 1.385 . S
C2586 C2585 1.374 . S
C2587 C2584 1.499 . S
C2587 C2588 1.373 . S
C2587 C2589 1.389 . S
C2588 H2561 0.950 . S
C2588 C2574 1.377 1_556 S
C2588 C2587 1.373 . S
C2589 C2573 1.377 1_556 S
C2589 C2587 1.389 . S
C2589 C2590 1.524 . S
C2590 C2589 1.524 . S
C2590 C2591 1.397 . S
C2590 C2595 1.363 . S
C2591 H2562 0.950 . S
C2591 C2590 1.397 . S
C2591 C2592 1.334 . S
C2592 H2563 0.950 . S
C2592 C2591 1.334 . S
C2592 C2593 1.287 . S
C2593 C2592 1.287 . S
C2593 C2594 1.524 . S
C2593 H2596 0.999 . S
C2594 H2564 0.950 . S
C2594 C2593 1.524 . S
C2594 C2595 1.415 . S
C2595 H2565 0.950 . S
C2595 C2590 1.363 . S
C2595 C2594 1.415 . S
H2596 C2593 0.999 . S
H2597 C2578 0.913 . S
H2598 C2616 0.951 . S
H2599 C2618 0.951 . S
H2600 C2620 0.950 . S
H2601 C2621 0.950 . S
H2602 C2623 0.950 . S
H2603 C2626 0.950 . S
H2604 C2627 0.950 . S
H2605 C2629 0.950 . S
H2606 C2630 0.950 . S
H2607 C2631 0.951 . S
H2608 C2633 0.951 . S
H2609 C2635 0.950 . S
H2610 C2636 0.950 . S
H2611 C2638 0.950 . S
H2612 C2641 0.950 . S
H2613 C2642 0.950 . S
H2614 C2644 0.950 . S
H2615 C2645 0.950 . S
C2616 H2598 0.951 . S
C2616 C2617 1.366 . S
C2616 C2618 1.388 . S
C2617 C2616 1.366 . S
C2617 C2621 1.385 . S
C2618 H2599 0.951 . S
C2618 C2616 1.388 . S
C2618 C2619 1.366 . S
C2619 C2618 1.366 . S
C2619 C2620 1.414 . S
C2619 C2622 1.499 . S
C2620 H2600 0.950 . S
C2620 C2619 1.414 . S
C2620 C2621 1.374 . S
C2621 H2601 0.950 . S
C2621 C2617 1.385 . S
C2621 C2620 1.374 . S
C2622 C2619 1.499 . S
C2622 C2623 1.373 . S
C2622 C2624 1.389 . S
C2623 H2602 0.950 . S
C2623 C2622 1.373 . S
C2623 C2639 1.377 1_554 S
C2624 C2622 1.389 . S
C2624 C2625 1.524 . S
C2624 C2638 1.377 1_554 S
C2625 C2624 1.524 . S
C2625 C2626 1.397 . S
C2625 C2630 1.363 . S
C2626 H2603 0.950 . S
C2626 C2625 1.397 . S
C2626 C2627 1.334 . S
C2627 H2604 0.950 . S
C2627 C2626 1.334 . S
C2627 C2628 1.287 . S
C2628 C2627 1.287 . S
C2628 C2629 1.524 . S
C2628 H2647 0.913 . S
C2629 H2605 0.950 . S
C2629 C2628 1.524 . S
C2629 C2630 1.415 . S
C2630 H2606 0.950 . S
C2630 C2625 1.363 . S
C2630 C2629 1.415 . S
C2631 H2607 0.951 . S
C2631 C2632 1.366 . S
C2631 C2633 1.388 . S
C2632 C2631 1.366 . S
C2632 C2636 1.385 . S
C2633 H2608 0.951 . S
C2633 C2631 1.388 . S
C2633 C2634 1.366 . S
C2634 C2633 1.366 . S
C2634 C2635 1.414 . S
C2634 C2637 1.499 . S
C2635 H2609 0.950 . S
C2635 C2634 1.414 . S
C2635 C2636 1.374 . S
C2636 H2610 0.950 . S
C2636 C2632 1.385 . S
C2636 C2635 1.374 . S
C2637 C2634 1.499 . S
C2637 C2638 1.373 . S
C2637 C2639 1.389 . S
C2638 H2611 0.950 . S
C2638 C2624 1.377 1_556 S
C2638 C2637 1.373 . S
C2639 C2623 1.377 1_556 S
C2639 C2637 1.389 . S
C2639 C2640 1.524 . S
C2640 C2639 1.524 . S
C2640 C2641 1.397 . S
C2640 C2645 1.363 . S
C2641 H2612 0.950 . S
C2641 C2640 1.397 . S
C2641 C2642 1.334 . S
C2642 H2613 0.950 . S
C2642 C2641 1.334 . S
C2642 C2643 1.287 . S
C2643 C2642 1.287 . S
C2643 C2644 1.524 . S
C2643 H2646 0.999 . S
C2644 H2614 0.950 . S
C2644 C2643 1.524 . S
C2644 C2645 1.415 . S
C2645 H2615 0.950 . S
C2645 C2640 1.363 . S
C2645 C2644 1.415 . S
H2646 C2643 0.999 . S
H2647 C2628 0.913 . S
H2648 C2666 0.951 . S
H2649 C2668 0.951 . S
H2650 C2670 0.950 . S
H2651 C2671 0.950 . S
H2652 C2673 0.950 . S
H2653 C2676 0.950 . S
H2654 C2677 0.950 . S
H2655 C2679 0.950 . S
H2656 C2680 0.950 . S
H2657 C2681 0.951 . S
H2658 C2683 0.951 . S
H2659 C2685 0.950 . S
H2660 C2686 0.950 . S
H2661 C2688 0.950 . S
H2662 C2691 0.950 . S
H2663 C2692 0.950 . S
H2664 C2694 0.950 . S
H2665 C2695 0.950 . S
C2666 H2648 0.951 . S
C2666 C2667 1.366 . S
C2666 C2668 1.388 . S
C2667 C2666 1.366 . S
C2667 C2671 1.385 . S
C2668 H2649 0.951 . S
C2668 C2666 1.388 . S
C2668 C2669 1.366 . S
C2669 C2668 1.366 . S
C2669 C2670 1.414 . S
C2669 C2672 1.499 . S
C2670 H2650 0.950 . S
C2670 C2669 1.414 . S
C2670 C2671 1.374 . S
C2671 H2651 0.950 . S
C2671 C2667 1.385 . S
C2671 C2670 1.374 . S
C2672 C2669 1.499 . S
C2672 C2673 1.373 . S
C2672 C2674 1.389 . S
C2673 H2652 0.950 . S
C2673 C2672 1.373 . S
C2673 C2689 1.377 1_554 S
C2674 C2672 1.389 . S
C2674 C2675 1.524 . S
C2674 C2688 1.377 1_554 S
C2675 C2674 1.524 . S
C2675 C2676 1.397 . S
C2675 C2680 1.363 . S
C2676 H2653 0.950 . S
C2676 C2675 1.397 . S
C2676 C2677 1.334 . S
C2677 H2654 0.950 . S
C2677 C2676 1.334 . S
C2677 C2678 1.287 . S
C2678 C2677 1.287 . S
C2678 C2679 1.524 . S
C2678 H2697 0.913 . S
C2679 H2655 0.950 . S
C2679 C2678 1.524 . S
C2679 C2680 1.415 . S
C2680 H2656 0.950 . S
C2680 C2675 1.363 . S
C2680 C2679 1.415 . S
C2681 H2657 0.951 . S
C2681 C2682 1.366 . S
C2681 C2683 1.388 . S
C2682 C2681 1.366 . S
C2682 C2686 1.385 . S
C2683 H2658 0.951 . S
C2683 C2681 1.388 . S
C2683 C2684 1.366 . S
C2684 C2683 1.366 . S
C2684 C2685 1.414 . S
C2684 C2687 1.499 . S
C2685 H2659 0.950 . S
C2685 C2684 1.414 . S
C2685 C2686 1.374 . S
C2686 H2660 0.950 . S
C2686 C2682 1.385 . S
C2686 C2685 1.374 . S
C2687 C2684 1.499 . S
C2687 C2688 1.373 . S
C2687 C2689 1.389 . S
C2688 H2661 0.950 . S
C2688 C2674 1.377 1_556 S
C2688 C2687 1.373 . S
C2689 C2673 1.377 1_556 S
C2689 C2687 1.389 . S
C2689 C2690 1.524 . S
C2690 C2689 1.524 . S
C2690 C2691 1.397 . S
C2690 C2695 1.363 . S
C2691 H2662 0.950 . S
C2691 C2690 1.397 . S
C2691 C2692 1.334 . S
C2692 H2663 0.950 . S
C2692 C2691 1.334 . S
C2692 C2693 1.287 . S
C2693 C2692 1.287 . S
C2693 C2694 1.524 . S
C2693 H2696 0.999 . S
C2694 H2664 0.950 . S
C2694 C2693 1.524 . S
C2694 C2695 1.415 . S
C2695 H2665 0.950 . S
C2695 C2690 1.363 . S
C2695 C2694 1.415 . S
H2696 C2693 0.999 . S
H2697 C2678 0.913 . S
H2698 C2716 0.951 . S
H2699 C2718 0.951 . S
H2700 C2720 0.950 . S
H2701 C2721 0.950 . S
H2702 C2723 0.950 . S
H2703 C2726 0.950 . S
H2704 C2727 0.950 . S
H2705 C2729 0.950 . S
H2706 C2730 0.950 . S
H2707 C2731 0.951 . S
H2708 C2733 0.951 . S
H2709 C2735 0.950 . S
H2710 C2736 0.950 . S
H2711 C2738 0.950 . S
H2712 C2741 0.950 . S
H2713 C2742 0.950 . S
H2714 C2744 0.950 . S
H2715 C2745 0.950 . S
C2716 H2698 0.951 . S
C2716 C2717 1.366 . S
C2716 C2718 1.388 . S
C2717 C2716 1.366 . S
C2717 C2721 1.385 . S
C2718 H2699 0.951 . S
C2718 C2716 1.388 . S
C2718 C2719 1.366 . S
C2719 C2718 1.366 . S
C2719 C2720 1.414 . S
C2719 C2722 1.499 . S
C2720 H2700 0.950 . S
C2720 C2719 1.414 . S
C2720 C2721 1.374 . S
C2721 H2701 0.950 . S
C2721 C2717 1.385 . S
C2721 C2720 1.374 . S
C2722 C2719 1.499 . S
C2722 C2723 1.373 . S
C2722 C2724 1.389 . S
C2723 H2702 0.950 . S
C2723 C2722 1.373 . S
C2723 C2739 1.377 1_554 S
C2724 C2722 1.389 . S
C2724 C2725 1.524 . S
C2724 C2738 1.377 1_554 S
C2725 C2724 1.524 . S
C2725 C2726 1.397 . S
C2725 C2730 1.363 . S
C2726 H2703 0.950 . S
C2726 C2725 1.397 . S
C2726 C2727 1.334 . S
C2727 H2704 0.950 . S
C2727 C2726 1.334 . S
C2727 C2728 1.287 . S
C2728 C2727 1.287 . S
C2728 C2729 1.524 . S
C2728 H2747 0.913 . S
C2729 H2705 0.950 . S
C2729 C2728 1.524 . S
C2729 C2730 1.415 . S
C2730 H2706 0.950 . S
C2730 C2725 1.363 . S
C2730 C2729 1.415 . S
C2731 H2707 0.951 . S
C2731 C2732 1.366 . S
C2731 C2733 1.388 . S
C2732 C2731 1.366 . S
C2732 C2736 1.385 . S
C2733 H2708 0.951 . S
C2733 C2731 1.388 . S
C2733 C2734 1.366 . S
C2734 C2733 1.366 . S
C2734 C2735 1.414 . S
C2734 C2737 1.499 . S
C2735 H2709 0.950 . S
C2735 C2734 1.414 . S
C2735 C2736 1.374 . S
C2736 H2710 0.950 . S
C2736 C2732 1.385 . S
C2736 C2735 1.374 . S
C2737 C2734 1.499 . S
C2737 C2738 1.373 . S
C2737 C2739 1.389 . S
C2738 H2711 0.950 . S
C2738 C2724 1.377 1_556 S
C2738 C2737 1.373 . S
C2739 C2723 1.377 1_556 S
C2739 C2737 1.389 . S
C2739 C2740 1.524 . S
C2740 C2739 1.524 . S
C2740 C2741 1.397 . S
C2740 C2745 1.363 . S
C2741 H2712 0.950 . S
C2741 C2740 1.397 . S
C2741 C2742 1.334 . S
C2742 H2713 0.950 . S
C2742 C2741 1.334 . S
C2742 C2743 1.287 . S
C2743 C2742 1.287 . S
C2743 C2744 1.524 . S
C2743 H2746 0.999 . S
C2744 H2714 0.950 . S
C2744 C2743 1.524 . S
C2744 C2745 1.415 . S
C2745 H2715 0.950 . S
C2745 C2740 1.363 . S
C2745 C2744 1.415 . S
H2746 C2743 0.999 . S
H2747 C2728 0.913 . S
H2748 C2766 0.951 . S
H2749 C2768 0.951 . S
H2750 C2770 0.950 . S
H2751 C2771 0.950 . S
H2752 C2773 0.950 . S
H2753 C2776 0.950 . S
H2754 C2777 0.950 . S
H2755 C2779 0.950 . S
H2756 C2780 0.950 . S
H2757 C2781 0.951 . S
H2758 C2783 0.951 . S
H2759 C2785 0.950 . S
H2760 C2786 0.950 . S
H2761 C2788 0.950 . S
H2762 C2791 0.950 . S
H2763 C2792 0.950 . S
H2764 C2794 0.950 . S
H2765 C2795 0.950 . S
C2766 H2748 0.951 . S
C2766 C2767 1.366 . S
C2766 C2768 1.388 . S
C2767 C2766 1.366 . S
C2767 C2771 1.385 . S
C2768 H2749 0.951 . S
C2768 C2766 1.388 . S
C2768 C2769 1.366 . S
C2769 C2768 1.366 . S
C2769 C2770 1.414 . S
C2769 C2772 1.499 . S
C2770 H2750 0.950 . S
C2770 C2769 1.414 . S
C2770 C2771 1.374 . S
C2771 H2751 0.950 . S
C2771 C2767 1.385 . S
C2771 C2770 1.374 . S
C2772 C2769 1.499 . S
C2772 C2773 1.373 . S
C2772 C2774 1.389 . S
C2773 H2752 0.950 . S
C2773 C2772 1.373 . S
C2773 C2789 1.377 1_556 S
C2774 C2772 1.389 . S
C2774 C2775 1.524 . S
C2774 C2788 1.377 1_556 S
C2775 C2774 1.524 . S
C2775 C2776 1.397 . S
C2775 C2780 1.363 . S
C2776 H2753 0.950 . S
C2776 C2775 1.397 . S
C2776 C2777 1.334 . S
C2777 H2754 0.950 . S
C2777 C2776 1.334 . S
C2777 C2778 1.287 . S
C2778 C2777 1.287 . S
C2778 C2779 1.524 . S
C2778 H2797 0.913 . S
C2779 H2755 0.950 . S
C2779 C2778 1.524 . S
C2779 C2780 1.415 . S
C2780 H2756 0.950 . S
C2780 C2775 1.363 . S
C2780 C2779 1.415 . S
C2781 H2757 0.951 . S
C2781 C2782 1.366 . S
C2781 C2783 1.388 . S
C2782 C2781 1.366 . S
C2782 C2786 1.385 . S
C2783 H2758 0.951 . S
C2783 C2781 1.388 . S
C2783 C2784 1.366 . S
C2784 C2783 1.366 . S
C2784 C2785 1.414 . S
C2784 C2787 1.499 . S
C2785 H2759 0.950 . S
C2785 C2784 1.414 . S
C2785 C2786 1.374 . S
C2786 H2760 0.950 . S
C2786 C2782 1.385 . S
C2786 C2785 1.374 . S
C2787 C2784 1.499 . S
C2787 C2788 1.373 . S
C2787 C2789 1.389 . S
C2788 H2761 0.950 . S
C2788 C2774 1.377 1_554 S
C2788 C2787 1.373 . S
C2789 C2773 1.377 1_554 S
C2789 C2787 1.389 . S
C2789 C2790 1.524 . S
C2790 C2789 1.524 . S
C2790 C2791 1.397 . S
C2790 C2795 1.363 . S
C2791 H2762 0.950 . S
C2791 C2790 1.397 . S
C2791 C2792 1.334 . S
C2792 H2763 0.950 . S
C2792 C2791 1.334 . S
C2792 C2793 1.287 . S
C2793 C2792 1.287 . S
C2793 C2794 1.524 . S
C2793 H2796 0.999 . S
C2794 H2764 0.950 . S
C2794 C2793 1.524 . S
C2794 C2795 1.415 . S
C2795 H2765 0.950 . S
C2795 C2790 1.363 . S
C2795 C2794 1.415 . S
H2796 C2793 0.999 . S
H2797 C2778 0.913 . S
H2798 C2816 0.951 . S
H2799 C2818 0.951 . S
H2800 C2820 0.950 . S
H2801 C2821 0.950 . S
H2802 C2823 0.950 . S
H2803 C2826 0.950 . S
H2804 C2827 0.950 . S
H2805 C2829 0.950 . S
H2806 C2830 0.950 . S
H2807 C2831 0.951 . S
H2808 C2833 0.951 . S
H2809 C2835 0.950 . S
H2810 C2836 0.950 . S
H2811 C2838 0.950 . S
H2812 C2841 0.950 . S
H2813 C2842 0.950 . S
H2814 C2844 0.950 . S
H2815 C2845 0.950 . S
C2816 H2798 0.951 . S
C2816 C2817 1.366 . S
C2816 C2818 1.388 . S
C2817 C2816 1.366 . S
C2817 C2821 1.385 . S
C2818 H2799 0.951 . S
C2818 C2816 1.388 . S
C2818 C2819 1.366 . S
C2819 C2818 1.366 . S
C2819 C2820 1.414 . S
C2819 C2822 1.499 . S
C2820 H2800 0.950 . S
C2820 C2819 1.414 . S
C2820 C2821 1.374 . S
C2821 H2801 0.950 . S
C2821 C2817 1.385 . S
C2821 C2820 1.374 . S
C2822 C2819 1.499 . S
C2822 C2823 1.373 . S
C2822 C2824 1.389 . S
C2823 H2802 0.950 . S
C2823 C2822 1.373 . S
C2823 C2839 1.377 1_556 S
C2824 C2822 1.389 . S
C2824 C2825 1.524 . S
C2824 C2838 1.377 1_556 S
C2825 C2824 1.524 . S
C2825 C2826 1.397 . S
C2825 C2830 1.363 . S
C2826 H2803 0.950 . S
C2826 C2825 1.397 . S
C2826 C2827 1.334 . S
C2827 H2804 0.950 . S
C2827 C2826 1.334 . S
C2827 C2828 1.287 . S
C2828 C2827 1.287 . S
C2828 C2829 1.524 . S
C2828 H2847 0.913 . S
C2829 H2805 0.950 . S
C2829 C2828 1.524 . S
C2829 C2830 1.415 . S
C2830 H2806 0.950 . S
C2830 C2825 1.363 . S
C2830 C2829 1.415 . S
C2831 H2807 0.951 . S
C2831 C2832 1.366 . S
C2831 C2833 1.388 . S
C2832 C2831 1.366 . S
C2832 C2836 1.385 . S
C2833 H2808 0.951 . S
C2833 C2831 1.388 . S
C2833 C2834 1.366 . S
C2834 C2833 1.366 . S
C2834 C2835 1.414 . S
C2834 C2837 1.499 . S
C2835 H2809 0.950 . S
C2835 C2834 1.414 . S
C2835 C2836 1.374 . S
C2836 H2810 0.950 . S
C2836 C2832 1.385 . S
C2836 C2835 1.374 . S
C2837 C2834 1.499 . S
C2837 C2838 1.373 . S
C2837 C2839 1.389 . S
C2838 H2811 0.950 . S
C2838 C2824 1.377 1_554 S
C2838 C2837 1.373 . S
C2839 C2823 1.377 1_554 S
C2839 C2837 1.389 . S
C2839 C2840 1.524 . S
C2840 C2839 1.524 . S
C2840 C2841 1.397 . S
C2840 C2845 1.363 . S
C2841 H2812 0.950 . S
C2841 C2840 1.397 . S
C2841 C2842 1.334 . S
C2842 H2813 0.950 . S
C2842 C2841 1.334 . S
C2842 C2843 1.287 . S
C2843 C2842 1.287 . S
C2843 C2844 1.524 . S
C2843 H2846 0.999 . S
C2844 H2814 0.950 . S
C2844 C2843 1.524 . S
C2844 C2845 1.415 . S
C2845 H2815 0.950 . S
C2845 C2840 1.363 . S
C2845 C2844 1.415 . S
H2846 C2843 0.999 . S
H2847 C2828 0.913 . S
H2848 C2866 0.951 . S
H2849 C2868 0.951 . S
H2850 C2870 0.950 . S
H2851 C2871 0.950 . S
H2852 C2873 0.950 . S
H2853 C2876 0.950 . S
H2854 C2877 0.950 . S
H2855 C2879 0.950 . S
H2856 C2880 0.950 . S
H2857 C2881 0.951 . S
H2858 C2883 0.951 . S
H2859 C2885 0.950 . S
H2860 C2886 0.950 . S
H2861 C2888 0.950 . S
H2862 C2891 0.950 . S
H2863 C2892 0.950 . S
H2864 C2894 0.950 . S
H2865 C2895 0.950 . S
C2866 H2848 0.951 . S
C2866 C2867 1.366 . S
C2866 C2868 1.388 . S
C2867 C2866 1.366 . S
C2867 C2871 1.385 . S
C2868 H2849 0.951 . S
C2868 C2866 1.388 . S
C2868 C2869 1.366 . S
C2869 C2868 1.366 . S
C2869 C2870 1.414 . S
C2869 C2872 1.499 . S
C2870 H2850 0.950 . S
C2870 C2869 1.414 . S
C2870 C2871 1.374 . S
C2871 H2851 0.950 . S
C2871 C2867 1.385 . S
C2871 C2870 1.374 . S
C2872 C2869 1.499 . S
C2872 C2873 1.373 . S
C2872 C2874 1.389 . S
C2873 H2852 0.950 . S
C2873 C2872 1.373 . S
C2873 C2889 1.377 . S
C2874 C2872 1.389 . S
C2874 C2875 1.524 . S
C2874 C2888 1.377 . S
C2875 C2874 1.524 . S
C2875 C2876 1.397 . S
C2875 C2880 1.363 . S
C2876 H2853 0.950 . S
C2876 C2875 1.397 . S
C2876 C2877 1.334 . S
C2877 H2854 0.950 . S
C2877 C2876 1.334 . S
C2877 C2878 1.287 . S
C2878 C2877 1.287 . S
C2878 C2879 1.524 . S
C2878 H2897 0.913 . S
C2879 H2855 0.950 . S
C2879 C2878 1.524 . S
C2879 C2880 1.415 . S
C2880 H2856 0.950 . S
C2880 C2875 1.363 . S
C2880 C2879 1.415 . S
C2881 H2857 0.951 . S
C2881 C2882 1.366 . S
C2881 C2883 1.388 . S
C2882 C2881 1.366 . S
C2882 C2886 1.385 . S
C2883 H2858 0.951 . S
C2883 C2881 1.388 . S
C2883 C2884 1.366 . S
C2884 C2883 1.366 . S
C2884 C2885 1.414 . S
C2884 C2887 1.499 . S
C2885 H2859 0.950 . S
C2885 C2884 1.414 . S
C2885 C2886 1.374 . S
C2886 H2860 0.950 . S
C2886 C2882 1.385 . S
C2886 C2885 1.374 . S
C2887 C2884 1.499 . S
C2887 C2888 1.373 . S
C2887 C2889 1.389 . S
C2888 H2861 0.950 . S
C2888 C2874 1.377 . S
C2888 C2887 1.373 . S
C2889 C2873 1.377 . S
C2889 C2887 1.389 . S
C2889 C2890 1.524 . S
C2890 C2889 1.524 . S
C2890 C2891 1.397 . S
C2890 C2895 1.363 . S
C2891 H2862 0.950 . S
C2891 C2890 1.397 . S
C2891 C2892 1.334 . S
C2892 H2863 0.950 . S
C2892 C2891 1.334 . S
C2892 C2893 1.287 . S
C2893 C2892 1.287 . S
C2893 C2894 1.524 . S
C2893 H2896 0.999 . S
C2894 H2864 0.950 . S
C2894 C2893 1.524 . S
C2894 C2895 1.415 . S
C2895 H2865 0.950 . S
C2895 C2890 1.363 . S
C2895 C2894 1.415 . S
H2896 C2893 0.999 . S
H2897 C2878 0.913 . S
H2898 C2916 0.951 . S
H2899 C2918 0.951 . S
H2900 C2920 0.950 . S
H2901 C2921 0.950 . S
H2902 C2923 0.950 . S
H2903 C2926 0.950 . S
H2904 C2927 0.950 . S
H2905 C2929 0.950 . S
H2906 C2930 0.950 . S
H2907 C2931 0.951 . S
H2908 C2933 0.951 . S
H2909 C2935 0.950 . S
H2910 C2936 0.950 . S
H2911 C2938 0.950 . S
H2912 C2941 0.950 . S
H2913 C2942 0.950 . S
H2914 C2944 0.950 . S
H2915 C2945 0.950 . S
C2916 H2898 0.951 . S
C2916 C2917 1.366 . S
C2916 C2918 1.388 . S
C2917 C2916 1.366 . S
C2917 C2921 1.385 . S
C2918 H2899 0.951 . S
C2918 C2916 1.388 . S
C2918 C2919 1.366 . S
C2919 C2918 1.366 . S
C2919 C2920 1.414 . S
C2919 C2922 1.499 . S
C2920 H2900 0.950 . S
C2920 C2919 1.414 . S
C2920 C2921 1.374 . S
C2921 H2901 0.950 . S
C2921 C2917 1.385 . S
C2921 C2920 1.374 . S
C2922 C2919 1.499 . S
C2922 C2923 1.373 . S
C2922 C2924 1.389 . S
C2923 H2902 0.950 . S
C2923 C2922 1.373 . S
C2923 C2939 1.377 . S
C2924 C2922 1.389 . S
C2924 C2925 1.524 . S
C2924 C2938 1.377 . S
C2925 C2924 1.524 . S
C2925 C2926 1.397 . S
C2925 C2930 1.363 . S
C2926 H2903 0.950 . S
C2926 C2925 1.397 . S
C2926 C2927 1.334 . S
C2927 H2904 0.950 . S
C2927 C2926 1.334 . S
C2927 C2928 1.287 . S
C2928 C2927 1.287 . S
C2928 C2929 1.524 . S
C2928 H2947 0.913 . S
C2929 H2905 0.950 . S
C2929 C2928 1.524 . S
C2929 C2930 1.415 . S
C2930 H2906 0.950 . S
C2930 C2925 1.363 . S
C2930 C2929 1.415 . S
C2931 H2907 0.951 . S
C2931 C2932 1.366 . S
C2931 C2933 1.388 . S
C2932 C2931 1.366 . S
C2932 C2936 1.385 . S
C2933 H2908 0.951 . S
C2933 C2931 1.388 . S
C2933 C2934 1.366 . S
C2934 C2933 1.366 . S
C2934 C2935 1.414 . S
C2934 C2937 1.499 . S
C2935 H2909 0.950 . S
C2935 C2934 1.414 . S
C2935 C2936 1.374 . S
C2936 H2910 0.950 . S
C2936 C2932 1.385 . S
C2936 C2935 1.374 . S
C2937 C2934 1.499 . S
C2937 C2938 1.373 . S
C2937 C2939 1.389 . S
C2938 H2911 0.950 . S
C2938 C2924 1.377 . S
C2938 C2937 1.373 . S
C2939 C2923 1.377 . S
C2939 C2937 1.389 . S
C2939 C2940 1.524 . S
C2940 C2939 1.524 . S
C2940 C2941 1.397 . S
C2940 C2945 1.363 . S
C2941 H2912 0.950 . S
C2941 C2940 1.397 . S
C2941 C2942 1.334 . S
C2942 H2913 0.950 . S
C2942 C2941 1.334 . S
C2942 C2943 1.287 . S
C2943 C2942 1.287 . S
C2943 C2944 1.524 . S
C2943 H2946 0.999 . S
C2944 H2914 0.950 . S
C2944 C2943 1.524 . S
C2944 C2945 1.415 . S
C2945 H2915 0.950 . S
C2945 C2940 1.363 . S
C2945 C2944 1.415 . S
H2946 C2943 0.999 . S
H2947 C2928 0.913 . S
H2948 C2966 0.951 . S
H2949 C2968 0.951 . S
H2950 C2970 0.950 . S
H2951 C2971 0.950 . S
H2952 C2973 0.950 . S
H2953 C2976 0.950 . S
H2954 C2977 0.950 . S
H2955 C2979 0.950 . S
H2956 C2980 0.950 . S
H2957 C2981 0.951 . S
H2958 C2983 0.951 . S
H2959 C2985 0.950 . S
H2960 C2986 0.950 . S
H2961 C2988 0.950 . S
H2962 C2991 0.950 . S
H2963 C2992 0.950 . S
H2964 C2994 0.950 . S
H2965 C2995 0.950 . S
C2966 H2948 0.951 . S
C2966 C2967 1.366 . S
C2966 C2968 1.388 . S
C2967 C2966 1.366 . S
C2967 C2971 1.385 . S
C2968 H2949 0.951 . S
C2968 C2966 1.388 . S
C2968 C2969 1.366 . S
C2969 C2968 1.366 . S
C2969 C2970 1.414 . S
C2969 C2972 1.499 . S
C2970 H2950 0.950 . S
C2970 C2969 1.414 . S
C2970 C2971 1.374 . S
C2971 H2951 0.950 . S
C2971 C2967 1.385 . S
C2971 C2970 1.374 . S
C2972 C2969 1.499 . S
C2972 C2973 1.373 . S
C2972 C2974 1.389 . S
C2973 H2952 0.950 . S
C2973 C2972 1.373 . S
C2973 C2989 1.377 . S
C2974 C2972 1.389 . S
C2974 C2975 1.524 . S
C2974 C2988 1.377 . S
C2975 C2974 1.524 . S
C2975 C2976 1.397 . S
C2975 C2980 1.363 . S
C2976 H2953 0.950 . S
C2976 C2975 1.397 . S
C2976 C2977 1.334 . S
C2977 H2954 0.950 . S
C2977 C2976 1.334 . S
C2977 C2978 1.287 . S
C2978 C2977 1.287 . S
C2978 C2979 1.524 . S
C2978 H2997 0.913 . S
C2979 H2955 0.950 . S
C2979 C2978 1.524 . S
C2979 C2980 1.415 . S
C2980 H2956 0.950 . S
C2980 C2975 1.363 . S
C2980 C2979 1.415 . S
C2981 H2957 0.951 . S
C2981 C2982 1.366 . S
C2981 C2983 1.388 . S
C2982 C2981 1.366 . S
C2982 C2986 1.385 . S
C2983 H2958 0.951 . S
C2983 C2981 1.388 . S
C2983 C2984 1.366 . S
C2984 C2983 1.366 . S
C2984 C2985 1.414 . S
C2984 C2987 1.499 . S
C2985 H2959 0.950 . S
C2985 C2984 1.414 . S
C2985 C2986 1.374 . S
C2986 H2960 0.950 . S
C2986 C2982 1.385 . S
C2986 C2985 1.374 . S
C2987 C2984 1.499 . S
C2987 C2988 1.373 . S
C2987 C2989 1.389 . S
C2988 H2961 0.950 . S
C2988 C2974 1.377 . S
C2988 C2987 1.373 . S
C2989 C2973 1.377 . S
C2989 C2987 1.389 . S
C2989 C2990 1.524 . S
C2990 C2989 1.524 . S
C2990 C2991 1.397 . S
C2990 C2995 1.363 . S
C2991 H2962 0.950 . S
C2991 C2990 1.397 . S
C2991 C2992 1.334 . S
C2992 H2963 0.950 . S
C2992 C2991 1.334 . S
C2992 C2993 1.287 . S
C2993 C2992 1.287 . S
C2993 C2994 1.524 . S
C2993 H2996 0.999 . S
C2994 H2964 0.950 . S
C2994 C2993 1.524 . S
C2994 C2995 1.415 . S
C2995 H2965 0.950 . S
C2995 C2990 1.363 . S
C2995 C2994 1.415 . S
H2996 C2993 0.999 . S
H2997 C2978 0.913 . S
H2998 C3016 0.951 . S
H2999 C3018 0.951 . S
H3000 C3020 0.950 . S
H3001 C3021 0.950 . S
H3002 C3023 0.950 . S
H3003 C3026 0.950 . S
H3004 C3027 0.950 . S
H3005 C3029 0.950 . S
H3006 C3030 0.950 . S
H3007 C3031 0.951 . S
H3008 C3033 0.951 . S
H3009 C3035 0.950 . S
H3010 C3036 0.950 . S
H3011 C3038 0.950 . S
H3012 C3041 0.950 . S
H3013 C3042 0.950 . S
H3014 C3044 0.950 . S
H3015 C3045 0.950 . S
C3016 H2998 0.951 . S
C3016 C3017 1.366 . S
C3016 C3018 1.388 . S
C3017 C3016 1.366 . S
C3017 C3021 1.385 . S
C3018 H2999 0.951 . S
C3018 C3016 1.388 . S
C3018 C3019 1.366 . S
C3019 C3018 1.366 . S
C3019 C3020 1.414 . S
C3019 C3022 1.499 . S
C3020 H3000 0.950 . S
C3020 C3019 1.414 . S
C3020 C3021 1.374 . S
C3021 H3001 0.950 . S
C3021 C3017 1.385 . S
C3021 C3020 1.374 . S
C3022 C3019 1.499 . S
C3022 C3023 1.373 . S
C3022 C3024 1.389 . S
C3023 H3002 0.950 . S
C3023 C3022 1.373 . S
C3023 C3039 1.377 . S
C3024 C3022 1.389 . S
C3024 C3025 1.524 . S
C3024 C3038 1.377 . S
C3025 C3024 1.524 . S
C3025 C3026 1.397 . S
C3025 C3030 1.363 . S
C3026 H3003 0.950 . S
C3026 C3025 1.397 . S
C3026 C3027 1.334 . S
C3027 H3004 0.950 . S
C3027 C3026 1.334 . S
C3027 C3028 1.287 . S
C3028 C3027 1.287 . S
C3028 C3029 1.524 . S
C3028 H3047 0.913 . S
C3029 H3005 0.950 . S
C3029 C3028 1.524 . S
C3029 C3030 1.415 . S
C3030 H3006 0.950 . S
C3030 C3025 1.363 . S
C3030 C3029 1.415 . S
C3031 H3007 0.951 . S
C3031 C3032 1.366 . S
C3031 C3033 1.388 . S
C3032 C3031 1.366 . S
C3032 C3036 1.385 . S
C3033 H3008 0.951 . S
C3033 C3031 1.388 . S
C3033 C3034 1.366 . S
C3034 C3033 1.366 . S
C3034 C3035 1.414 . S
C3034 C3037 1.499 . S
C3035 H3009 0.950 . S
C3035 C3034 1.414 . S
C3035 C3036 1.374 . S
C3036 H3010 0.950 . S
C3036 C3032 1.385 . S
C3036 C3035 1.374 . S
C3037 C3034 1.499 . S
C3037 C3038 1.373 . S
C3037 C3039 1.389 . S
C3038 H3011 0.950 . S
C3038 C3024 1.377 . S
C3038 C3037 1.373 . S
C3039 C3023 1.377 . S
C3039 C3037 1.389 . S
C3039 C3040 1.524 . S
C3040 C3039 1.524 . S
C3040 C3041 1.397 . S
C3040 C3045 1.363 . S
C3041 H3012 0.950 . S
C3041 C3040 1.397 . S
C3041 C3042 1.334 . S
C3042 H3013 0.950 . S
C3042 C3041 1.334 . S
C3042 C3043 1.287 . S
C3043 C3042 1.287 . S
C3043 C3044 1.524 . S
C3043 H3046 0.999 . S
C3044 H3014 0.950 . S
C3044 C3043 1.524 . S
C3044 C3045 1.415 . S
C3045 H3015 0.950 . S
C3045 C3040 1.363 . S
C3045 C3044 1.415 . S
H3046 C3043 0.999 . S
H3047 C3028 0.913 . S
H3048 C3066 0.951 . S
H3049 C3068 0.951 . S
H3050 C3070 0.950 . S
H3051 C3071 0.950 . S
H3052 C3073 0.950 . S
H3053 C3076 0.950 . S
H3054 C3077 0.950 . S
H3055 C3079 0.950 . S
H3056 C3080 0.950 . S
H3057 C3081 0.951 . S
H3058 C3083 0.951 . S
H3059 C3085 0.950 . S
H3060 C3086 0.950 . S
H3061 C3088 0.950 . S
H3062 C3091 0.950 . S
H3063 C3092 0.950 . S
H3064 C3094 0.950 . S
H3065 C3095 0.950 . S
C3066 H3048 0.951 . S
C3066 C3067 1.366 . S
C3066 C3068 1.388 . S
C3067 C3066 1.366 . S
C3067 C3071 1.385 . S
C3068 H3049 0.951 . S
C3068 C3066 1.388 . S
C3068 C3069 1.366 . S
C3069 C3068 1.366 . S
C3069 C3070 1.414 . S
C3069 C3072 1.499 . S
C3070 H3050 0.950 . S
C3070 C3069 1.414 . S
C3070 C3071 1.374 . S
C3071 H3051 0.950 . S
C3071 C3067 1.385 . S
C3071 C3070 1.374 . S
C3072 C3069 1.499 . S
C3072 C3073 1.373 . S
C3072 C3074 1.389 . S
C3073 H3052 0.950 . S
C3073 C3072 1.373 . S
C3073 C3089 1.377 . S
C3074 C3072 1.389 . S
C3074 C3075 1.524 . S
C3074 C3088 1.377 . S
C3075 C3074 1.524 . S
C3075 C3076 1.397 . S
C3075 C3080 1.363 . S
C3076 H3053 0.950 . S
C3076 C3075 1.397 . S
C3076 C3077 1.334 . S
C3077 H3054 0.950 . S
C3077 C3076 1.334 . S
C3077 C3078 1.287 . S
C3078 C3077 1.287 . S
C3078 C3079 1.524 . S
C3078 H3097 0.913 . S
C3079 H3055 0.950 . S
C3079 C3078 1.524 . S
C3079 C3080 1.415 . S
C3080 H3056 0.950 . S
C3080 C3075 1.363 . S
C3080 C3079 1.415 . S
C3081 H3057 0.951 . S
C3081 C3082 1.366 . S
C3081 C3083 1.388 . S
C3082 C3081 1.366 . S
C3082 C3086 1.385 . S
C3083 H3058 0.951 . S
C3083 C3081 1.388 . S
C3083 C3084 1.366 . S
C3084 C3083 1.366 . S
C3084 C3085 1.414 . S
C3084 C3087 1.499 . S
C3085 H3059 0.950 . S
C3085 C3084 1.414 . S
C3085 C3086 1.374 . S
C3086 H3060 0.950 . S
C3086 C3082 1.385 . S
C3086 C3085 1.374 . S
C3087 C3084 1.499 . S
C3087 C3088 1.373 . S
C3087 C3089 1.389 . S
C3088 H3061 0.950 . S
C3088 C3074 1.377 . S
C3088 C3087 1.373 . S
C3089 C3073 1.377 . S
C3089 C3087 1.389 . S
C3089 C3090 1.524 . S
C3090 C3089 1.524 . S
C3090 C3091 1.397 . S
C3090 C3095 1.363 . S
C3091 H3062 0.950 . S
C3091 C3090 1.397 . S
C3091 C3092 1.334 . S
C3092 H3063 0.950 . S
C3092 C3091 1.334 . S
C3092 C3093 1.287 . S
C3093 C3092 1.287 . S
C3093 C3094 1.524 . S
C3093 H3096 0.999 . S
C3094 H3064 0.950 . S
C3094 C3093 1.524 . S
C3094 C3095 1.415 . S
C3095 H3065 0.950 . S
C3095 C3090 1.363 . S
C3095 C3094 1.415 . S
H3096 C3093 0.999 . S
H3097 C3078 0.913 . S
H3098 C3116 0.951 . S
H3099 C3118 0.951 . S
H3100 C3120 0.950 . S
H3101 C3121 0.950 . S
H3102 C3123 0.950 . S
H3103 C3126 0.950 . S
H3104 C3127 0.950 . S
H3105 C3129 0.950 . S
H3106 C3130 0.950 . S
H3107 C3131 0.951 . S
H3108 C3133 0.951 . S
H3109 C3135 0.950 . S
H3110 C3136 0.950 . S
H3111 C3138 0.950 . S
H3112 C3141 0.950 . S
H3113 C3142 0.950 . S
H3114 C3144 0.950 . S
H3115 C3145 0.950 . S
C3116 H3098 0.951 . S
C3116 C3117 1.366 . S
C3116 C3118 1.388 . S
C3117 C3116 1.366 . S
C3117 C3121 1.385 . S
C3118 H3099 0.951 . S
C3118 C3116 1.388 . S
C3118 C3119 1.366 . S
C3119 C3118 1.366 . S
C3119 C3120 1.414 . S
C3119 C3122 1.499 . S
C3120 H3100 0.950 . S
C3120 C3119 1.414 . S
C3120 C3121 1.374 . S
C3121 H3101 0.950 . S
C3121 C3117 1.385 . S
C3121 C3120 1.374 . S
C3122 C3119 1.499 . S
C3122 C3123 1.373 . S
C3122 C3124 1.389 . S
C3123 H3102 0.950 . S
C3123 C3122 1.373 . S
C3123 C3139 1.377 . S
C3124 C3122 1.389 . S
C3124 C3125 1.524 . S
C3124 C3138 1.377 . S
C3125 C3124 1.524 . S
C3125 C3126 1.397 . S
C3125 C3130 1.363 . S
C3126 H3103 0.950 . S
C3126 C3125 1.397 . S
C3126 C3127 1.334 . S
C3127 H3104 0.950 . S
C3127 C3126 1.334 . S
C3127 C3128 1.287 . S
C3128 C3127 1.287 . S
C3128 C3129 1.524 . S
C3128 H3147 0.913 . S
C3129 H3105 0.950 . S
C3129 C3128 1.524 . S
C3129 C3130 1.415 . S
C3130 H3106 0.950 . S
C3130 C3125 1.363 . S
C3130 C3129 1.415 . S
C3131 H3107 0.951 . S
C3131 C3132 1.366 . S
C3131 C3133 1.388 . S
C3132 C3131 1.366 . S
C3132 C3136 1.385 . S
C3133 H3108 0.951 . S
C3133 C3131 1.388 . S
C3133 C3134 1.366 . S
C3134 C3133 1.366 . S
C3134 C3135 1.414 . S
C3134 C3137 1.499 . S
C3135 H3109 0.950 . S
C3135 C3134 1.414 . S
C3135 C3136 1.374 . S
C3136 H3110 0.950 . S
C3136 C3132 1.385 . S
C3136 C3135 1.374 . S
C3137 C3134 1.499 . S
C3137 C3138 1.373 . S
C3137 C3139 1.389 . S
C3138 H3111 0.950 . S
C3138 C3124 1.377 . S
C3138 C3137 1.373 . S
C3139 C3123 1.377 . S
C3139 C3137 1.389 . S
C3139 C3140 1.524 . S
C3140 C3139 1.524 . S
C3140 C3141 1.397 . S
C3140 C3145 1.363 . S
C3141 H3112 0.950 . S
C3141 C3140 1.397 . S
C3141 C3142 1.334 . S
C3142 H3113 0.950 . S
C3142 C3141 1.334 . S
C3142 C3143 1.287 . S
C3143 C3142 1.287 . S
C3143 C3144 1.524 . S
C3143 H3146 0.999 . S
C3144 H3114 0.950 . S
C3144 C3143 1.524 . S
C3144 C3145 1.415 . S
C3145 H3115 0.950 . S
C3145 C3140 1.363 . S
C3145 C3144 1.415 . S
H3146 C3143 0.999 . S
H3147 C3128 0.913 . S
H3148 C3166 0.951 . S
H3149 C3168 0.951 . S
H3150 C3170 0.950 . S
H3151 C3171 0.950 . S
H3152 C3173 0.950 . S
H3153 C3176 0.950 . S
H3154 C3177 0.950 . S
H3155 C3179 0.950 . S
H3156 C3180 0.950 . S
H3157 C3181 0.951 . S
H3158 C3183 0.951 . S
H3159 C3185 0.950 . S
H3160 C3186 0.950 . S
H3161 C3188 0.950 . S
H3162 C3191 0.950 . S
H3163 C3192 0.950 . S
H3164 C3194 0.950 . S
H3165 C3195 0.950 . S
C3166 H3148 0.951 . S
C3166 C3167 1.366 . S
C3166 C3168 1.388 . S
C3167 C3166 1.366 . S
C3167 C3171 1.385 . S
C3168 H3149 0.951 . S
C3168 C3166 1.388 . S
C3168 C3169 1.366 . S
C3169 C3168 1.366 . S
C3169 C3170 1.414 . S
C3169 C3172 1.499 . S
C3170 H3150 0.950 . S
C3170 C3169 1.414 . S
C3170 C3171 1.374 . S
C3171 H3151 0.950 . S
C3171 C3167 1.385 . S
C3171 C3170 1.374 . S
C3172 C3169 1.499 . S
C3172 C3173 1.373 . S
C3172 C3174 1.389 . S
C3173 H3152 0.950 . S
C3173 C3172 1.373 . S
C3173 C3189 1.377 . S
C3174 C3172 1.389 . S
C3174 C3175 1.524 . S
C3174 C3188 1.377 . S
C3175 C3174 1.524 . S
C3175 C3176 1.397 . S
C3175 C3180 1.363 . S
C3176 H3153 0.950 . S
C3176 C3175 1.397 . S
C3176 C3177 1.334 . S
C3177 H3154 0.950 . S
C3177 C3176 1.334 . S
C3177 C3178 1.287 . S
C3178 C3177 1.287 . S
C3178 C3179 1.524 . S
C3178 H3197 0.913 . S
C3179 H3155 0.950 . S
C3179 C3178 1.524 . S
C3179 C3180 1.415 . S
C3180 H3156 0.950 . S
C3180 C3175 1.363 . S
C3180 C3179 1.415 . S
C3181 H3157 0.951 . S
C3181 C3182 1.366 . S
C3181 C3183 1.388 . S
C3182 C3181 1.366 . S
C3182 C3186 1.385 . S
C3183 H3158 0.951 . S
C3183 C3181 1.388 . S
C3183 C3184 1.366 . S
C3184 C3183 1.366 . S
C3184 C3185 1.414 . S
C3184 C3187 1.499 . S
C3185 H3159 0.950 . S
C3185 C3184 1.414 . S
C3185 C3186 1.374 . S
C3186 H3160 0.950 . S
C3186 C3182 1.385 . S
C3186 C3185 1.374 . S
C3187 C3184 1.499 . S
C3187 C3188 1.373 . S
C3187 C3189 1.389 . S
C3188 H3161 0.950 . S
C3188 C3174 1.377 . S
C3188 C3187 1.373 . S
C3189 C3173 1.377 . S
C3189 C3187 1.389 . S
C3189 C3190 1.524 . S
C3190 C3189 1.524 . S
C3190 C3191 1.397 . S
C3190 C3195 1.363 . S
C3191 H3162 0.950 . S
C3191 C3190 1.397 . S
C3191 C3192 1.334 . S
C3192 H3163 0.950 . S
C3192 C3191 1.334 . S
C3192 C3193 1.287 . S
C3193 C3192 1.287 . S
C3193 C3194 1.524 . S
C3193 H3196 0.999 . S
C3194 H3164 0.950 . S
C3194 C3193 1.524 . S
C3194 C3195 1.415 . S
C3195 H3165 0.950 . S
C3195 C3190 1.363 . S
C3195 C3194 1.415 . S
H3196 C3193 0.999 . S
H3197 C3178 0.913 . S
H3198 C3216 0.951 . S
H3199 C3218 0.951 . S
H3200 C3220 0.950 . S
H3201 C3221 0.950 . S
H3202 C3223 0.950 . S
H3203 C3226 0.950 . S
H3204 C3227 0.950 . S
H3205 C3229 0.950 . S
H3206 C3230 0.950 . S
H3207 C3231 0.951 . S
H3208 C3233 0.951 . S
H3209 C3235 0.950 . S
H3210 C3236 0.950 . S
H3211 C3238 0.950 . S
H3212 C3241 0.950 . S
H3213 C3242 0.950 . S
H3214 C3244 0.950 . S
H3215 C3245 0.950 . S
C3216 H3198 0.951 . S
C3216 C3217 1.366 . S
C3216 C3218 1.388 . S
C3217 C3216 1.366 . S
C3217 C3221 1.385 . S
C3218 H3199 0.951 . S
C3218 C3216 1.388 . S
C3218 C3219 1.366 . S
C3219 C3218 1.366 . S
C3219 C3220 1.414 . S
C3219 C3222 1.499 . S
C3220 H3200 0.950 . S
C3220 C3219 1.414 . S
C3220 C3221 1.374 . S
C3221 H3201 0.950 . S
C3221 C3217 1.385 . S
C3221 C3220 1.374 . S
C3222 C3219 1.499 . S
C3222 C3223 1.373 . S
C3222 C3224 1.389 . S
C3223 H3202 0.950 . S
C3223 C3222 1.373 . S
C3223 C3239 1.377 . S
C3224 C3222 1.389 . S
C3224 C3225 1.524 . S
C3224 C3238 1.377 . S
C3225 C3224 1.524 . S
C3225 C3226 1.397 . S
C3225 C3230 1.363 . S
C3226 H3203 0.950 . S
C3226 C3225 1.397 . S
C3226 C3227 1.334 . S
C3227 H3204 0.950 . S
C3227 C3226 1.334 . S
C3227 C3228 1.287 . S
C3228 C3227 1.287 . S
C3228 C3229 1.524 . S
C3228 H3247 0.913 . S
C3229 H3205 0.950 . S
C3229 C3228 1.524 . S
C3229 C3230 1.415 . S
C3230 H3206 0.950 . S
C3230 C3225 1.363 . S
C3230 C3229 1.415 . S
C3231 H3207 0.951 . S
C3231 C3232 1.366 . S
C3231 C3233 1.388 . S
C3232 C3231 1.366 . S
C3232 C3236 1.385 . S
C3233 H3208 0.951 . S
C3233 C3231 1.388 . S
C3233 C3234 1.366 . S
C3234 C3233 1.366 . S
C3234 C3235 1.414 . S
C3234 C3237 1.499 . S
C3235 H3209 0.950 . S
C3235 C3234 1.414 . S
C3235 C3236 1.374 . S
C3236 H3210 0.950 . S
C3236 C3232 1.385 . S
C3236 C3235 1.374 . S
C3237 C3234 1.499 . S
C3237 C3238 1.373 . S
C3237 C3239 1.389 . S
C3238 H3211 0.950 . S
C3238 C3224 1.377 . S
C3238 C3237 1.373 . S
C3239 C3223 1.377 . S
C3239 C3237 1.389 . S
C3239 C3240 1.524 . S
C3240 C3239 1.524 . S
C3240 C3241 1.397 . S
C3240 C3245 1.363 . S
C3241 H3212 0.950 . S
C3241 C3240 1.397 . S
C3241 C3242 1.334 . S
C3242 H3213 0.950 . S
C3242 C3241 1.334 . S
C3242 C3243 1.287 . S
C3243 C3242 1.287 . S
C3243 C3244 1.524 . S
C3243 H3246 0.999 . S
C3244 H3214 0.950 . S
C3244 C3243 1.524 . S
C3244 C3245 1.415 . S
C3245 H3215 0.950 . S
C3245 C3240 1.363 . S
C3245 C3244 1.415 . S
H3246 C3243 0.999 . S
H3247 C3228 0.913 . S
H3248 C3266 0.951 . S
H3249 C3268 0.951 . S
H3250 C3270 0.950 . S
H3251 C3271 0.950 . S
H3252 C3273 0.950 . S
H3253 C3276 0.950 . S
H3254 C3277 0.950 . S
H3255 C3279 0.950 . S
H3256 C3280 0.950 . S
H3257 C3281 0.951 . S
H3258 C3283 0.951 . S
H3259 C3285 0.950 . S
H3260 C3286 0.950 . S
H3261 C3288 0.950 . S
H3262 C3291 0.950 . S
H3263 C3292 0.950 . S
H3264 C3294 0.950 . S
H3265 C3295 0.950 . S
C3266 H3248 0.951 . S
C3266 C3267 1.366 . S
C3266 C3268 1.388 . S
C3267 C3266 1.366 . S
C3267 C3271 1.385 . S
C3268 H3249 0.951 . S
C3268 C3266 1.388 . S
C3268 C3269 1.366 . S
C3269 C3268 1.366 . S
C3269 C3270 1.414 . S
C3269 C3272 1.499 . S
C3270 H3250 0.950 . S
C3270 C3269 1.414 . S
C3270 C3271 1.374 . S
C3271 H3251 0.950 . S
C3271 C3267 1.385 . S
C3271 C3270 1.374 . S
C3272 C3269 1.499 . S
C3272 C3273 1.373 . S
C3272 C3274 1.389 . S
C3273 H3252 0.950 . S
C3273 C3272 1.373 . S
C3273 C3289 1.377 . S
C3274 C3272 1.389 . S
C3274 C3275 1.524 . S
C3274 C3288 1.377 . S
C3275 C3274 1.524 . S
C3275 C3276 1.397 . S
C3275 C3280 1.363 . S
C3276 H3253 0.950 . S
C3276 C3275 1.397 . S
C3276 C3277 1.334 . S
C3277 H3254 0.950 . S
C3277 C3276 1.334 . S
C3277 C3278 1.287 . S
C3278 C3277 1.287 . S
C3278 C3279 1.524 . S
C3278 H3297 0.913 . S
C3279 H3255 0.950 . S
C3279 C3278 1.524 . S
C3279 C3280 1.415 . S
C3280 H3256 0.950 . S
C3280 C3275 1.363 . S
C3280 C3279 1.415 . S
C3281 H3257 0.951 . S
C3281 C3282 1.366 . S
C3281 C3283 1.388 . S
C3282 C3281 1.366 . S
C3282 C3286 1.385 . S
C3283 H3258 0.951 . S
C3283 C3281 1.388 . S
C3283 C3284 1.366 . S
C3284 C3283 1.366 . S
C3284 C3285 1.414 . S
C3284 C3287 1.499 . S
C3285 H3259 0.950 . S
C3285 C3284 1.414 . S
C3285 C3286 1.374 . S
C3286 H3260 0.950 . S
C3286 C3282 1.385 . S
C3286 C3285 1.374 . S
C3287 C3284 1.499 . S
C3287 C3288 1.373 . S
C3287 C3289 1.389 . S
C3288 H3261 0.950 . S
C3288 C3274 1.377 . S
C3288 C3287 1.373 . S
C3289 C3273 1.377 . S
C3289 C3287 1.389 . S
C3289 C3290 1.524 . S
C3290 C3289 1.524 . S
C3290 C3291 1.397 . S
C3290 C3295 1.363 . S
C3291 H3262 0.950 . S
C3291 C3290 1.397 . S
C3291 C3292 1.334 . S
C3292 H3263 0.950 . S
C3292 C3291 1.334 . S
C3292 C3293 1.287 . S
C3293 C3292 1.287 . S
C3293 C3294 1.524 . S
C3293 H3296 0.999 . S
C3294 H3264 0.950 . S
C3294 C3293 1.524 . S
C3294 C3295 1.415 . S
C3295 H3265 0.950 . S
C3295 C3290 1.363 . S
C3295 C3294 1.415 . S
H3296 C3293 0.999 . S
H3297 C3278 0.913 . S
H3298 C3316 0.951 . S
H3299 C3318 0.951 . S
H3300 C3320 0.950 . S
H3301 C3321 0.950 . S
H3302 C3323 0.950 . S
H3303 C3326 0.950 . S
H3304 C3327 0.950 . S
H3305 C3329 0.950 . S
H3306 C3330 0.950 . S
H3307 C3331 0.951 . S
H3308 C3333 0.951 . S
H3309 C3335 0.950 . S
H3310 C3336 0.950 . S
H3311 C3338 0.950 . S
H3312 C3341 0.950 . S
H3313 C3342 0.950 . S
H3314 C3344 0.950 . S
H3315 C3345 0.950 . S
C3316 H3298 0.951 . S
C3316 C3317 1.366 . S
C3316 C3318 1.388 . S
C3317 C3316 1.366 . S
C3317 C3321 1.385 . S
C3318 H3299 0.951 . S
C3318 C3316 1.388 . S
C3318 C3319 1.366 . S
C3319 C3318 1.366 . S
C3319 C3320 1.414 . S
C3319 C3322 1.499 . S
C3320 H3300 0.950 . S
C3320 C3319 1.414 . S
C3320 C3321 1.374 . S
C3321 H3301 0.950 . S
C3321 C3317 1.385 . S
C3321 C3320 1.374 . S
C3322 C3319 1.499 . S
C3322 C3323 1.373 . S
C3322 C3324 1.389 . S
C3323 H3302 0.950 . S
C3323 C3322 1.373 . S
C3323 C3339 1.377 . S
C3324 C3322 1.389 . S
C3324 C3325 1.524 . S
C3324 C3338 1.377 . S
C3325 C3324 1.524 . S
C3325 C3326 1.397 . S
C3325 C3330 1.363 . S
C3326 H3303 0.950 . S
C3326 C3325 1.397 . S
C3326 C3327 1.334 . S
C3327 H3304 0.950 . S
C3327 C3326 1.334 . S
C3327 C3328 1.287 . S
C3328 C3327 1.287 . S
C3328 C3329 1.524 . S
C3328 H3347 0.913 . S
C3329 H3305 0.950 . S
C3329 C3328 1.524 . S
C3329 C3330 1.415 . S
C3330 H3306 0.950 . S
C3330 C3325 1.363 . S
C3330 C3329 1.415 . S
C3331 H3307 0.951 . S
C3331 C3332 1.366 . S
C3331 C3333 1.388 . S
C3332 C3331 1.366 . S
C3332 C3336 1.385 . S
C3333 H3308 0.951 . S
C3333 C3331 1.388 . S
C3333 C3334 1.366 . S
C3334 C3333 1.366 . S
C3334 C3335 1.414 . S
C3334 C3337 1.499 . S
C3335 H3309 0.950 . S
C3335 C3334 1.414 . S
C3335 C3336 1.374 . S
C3336 H3310 0.950 . S
C3336 C3332 1.385 . S
C3336 C3335 1.374 . S
C3337 C3334 1.499 . S
C3337 C3338 1.373 . S
C3337 C3339 1.389 . S
C3338 H3311 0.950 . S
C3338 C3324 1.377 . S
C3338 C3337 1.373 . S
C3339 C3323 1.377 . S
C3339 C3337 1.389 . S
C3339 C3340 1.524 . S
C3340 C3339 1.524 . S
C3340 C3341 1.397 . S
C3340 C3345 1.363 . S
C3341 H3312 0.950 . S
C3341 C3340 1.397 . S
C3341 C3342 1.334 . S
C3342 H3313 0.950 . S
C3342 C3341 1.334 . S
C3342 C3343 1.287 . S
C3343 C3342 1.287 . S
C3343 C3344 1.524 . S
C3343 H3346 0.999 . S
C3344 H3314 0.950 . S
C3344 C3343 1.524 . S
C3344 C3345 1.415 . S
C3345 H3315 0.950 . S
C3345 C3340 1.363 . S
C3345 C3344 1.415 . S
H3346 C3343 0.999 . S
H3347 C3328 0.913 . S
H3348 C3366 0.951 . S
H3349 C3368 0.951 . S
H3350 C3370 0.950 . S
H3351 C3371 0.950 . S
H3352 C3373 0.950 . S
H3353 C3376 0.950 . S
H3354 C3377 0.950 . S
H3355 C3379 0.950 . S
H3356 C3380 0.950 . S
H3357 C3381 0.951 . S
H3358 C3383 0.951 . S
H3359 C3385 0.950 . S
H3360 C3386 0.950 . S
H3361 C3388 0.950 . S
H3362 C3391 0.950 . S
H3363 C3392 0.950 . S
H3364 C3394 0.950 . S
H3365 C3395 0.950 . S
C3366 H3348 0.951 . S
C3366 C3367 1.366 . S
C3366 C3368 1.388 . S
C3367 C3366 1.366 . S
C3367 C3371 1.385 . S
C3368 H3349 0.951 . S
C3368 C3366 1.388 . S
C3368 C3369 1.366 . S
C3369 C3368 1.366 . S
C3369 C3370 1.414 . S
C3369 C3372 1.499 . S
C3370 H3350 0.950 . S
C3370 C3369 1.414 . S
C3370 C3371 1.374 . S
C3371 H3351 0.950 . S
C3371 C3367 1.385 . S
C3371 C3370 1.374 . S
C3372 C3369 1.499 . S
C3372 C3373 1.373 . S
C3372 C3374 1.389 . S
C3373 H3352 0.950 . S
C3373 C3372 1.373 . S
C3373 C3389 1.377 . S
C3374 C3372 1.389 . S
C3374 C3375 1.524 . S
C3374 C3388 1.377 . S
C3375 C3374 1.524 . S
C3375 C3376 1.397 . S
C3375 C3380 1.363 . S
C3376 H3353 0.950 . S
C3376 C3375 1.397 . S
C3376 C3377 1.334 . S
C3377 H3354 0.950 . S
C3377 C3376 1.334 . S
C3377 C3378 1.287 . S
C3378 C3377 1.287 . S
C3378 C3379 1.524 . S
C3378 H3397 0.913 . S
C3379 H3355 0.950 . S
C3379 C3378 1.524 . S
C3379 C3380 1.415 . S
C3380 H3356 0.950 . S
C3380 C3375 1.363 . S
C3380 C3379 1.415 . S
C3381 H3357 0.951 . S
C3381 C3382 1.366 . S
C3381 C3383 1.388 . S
C3382 C3381 1.366 . S
C3382 C3386 1.385 . S
C3383 H3358 0.951 . S
C3383 C3381 1.388 . S
C3383 C3384 1.366 . S
C3384 C3383 1.366 . S
C3384 C3385 1.414 . S
C3384 C3387 1.499 . S
C3385 H3359 0.950 . S
C3385 C3384 1.414 . S
C3385 C3386 1.374 . S
C3386 H3360 0.950 . S
C3386 C3382 1.385 . S
C3386 C3385 1.374 . S
C3387 C3384 1.499 . S
C3387 C3388 1.373 . S
C3387 C3389 1.389 . S
C3388 H3361 0.950 . S
C3388 C3374 1.377 . S
C3388 C3387 1.373 . S
C3389 C3373 1.377 . S
C3389 C3387 1.389 . S
C3389 C3390 1.524 . S
C3390 C3389 1.524 . S
C3390 C3391 1.397 . S
C3390 C3395 1.363 . S
C3391 H3362 0.950 . S
C3391 C3390 1.397 . S
C3391 C3392 1.334 . S
C3392 H3363 0.950 . S
C3392 C3391 1.334 . S
C3392 C3393 1.287 . S
C3393 C3392 1.287 . S
C3393 C3394 1.524 . S
C3393 H3396 0.999 . S
C3394 H3364 0.950 . S
C3394 C3393 1.524 . S
C3394 C3395 1.415 . S
C3395 H3365 0.950 . S
C3395 C3390 1.363 . S
C3395 C3394 1.415 . S
H3396 C3393 0.999 . S
H3397 C3378 0.913 . S
H3398 C3416 0.951 . S
H3399 C3418 0.951 . S
H3400 C3420 0.950 . S
H3401 C3421 0.950 . S
H3402 C3423 0.950 . S
H3403 C3426 0.950 . S
H3404 C3427 0.950 . S
H3405 C3429 0.950 . S
H3406 C3430 0.950 . S
H3407 C3431 0.951 . S
H3408 C3433 0.951 . S
H3409 C3435 0.950 . S
H3410 C3436 0.950 . S
H3411 C3438 0.950 . S
H3412 C3441 0.950 . S
H3413 C3442 0.950 . S
H3414 C3444 0.950 . S
H3415 C3445 0.950 . S
C3416 H3398 0.951 . S
C3416 C3417 1.366 . S
C3416 C3418 1.388 . S
C3417 C3416 1.366 . S
C3417 C3421 1.385 . S
C3418 H3399 0.951 . S
C3418 C3416 1.388 . S
C3418 C3419 1.366 . S
C3419 C3418 1.366 . S
C3419 C3420 1.414 . S
C3419 C3422 1.499 . S
C3420 H3400 0.950 . S
C3420 C3419 1.414 . S
C3420 C3421 1.374 . S
C3421 H3401 0.950 . S
C3421 C3417 1.385 . S
C3421 C3420 1.374 . S
C3422 C3419 1.499 . S
C3422 C3423 1.373 . S
C3422 C3424 1.389 . S
C3423 H3402 0.950 . S
C3423 C3422 1.373 . S
C3423 C3439 1.377 . S
C3424 C3422 1.389 . S
C3424 C3425 1.524 . S
C3424 C3438 1.377 . S
C3425 C3424 1.524 . S
C3425 C3426 1.397 . S
C3425 C3430 1.363 . S
C3426 H3403 0.950 . S
C3426 C3425 1.397 . S
C3426 C3427 1.334 . S
C3427 H3404 0.950 . S
C3427 C3426 1.334 . S
C3427 C3428 1.287 . S
C3428 C3427 1.287 . S
C3428 C3429 1.524 . S
C3428 H3447 0.913 . S
C3429 H3405 0.950 . S
C3429 C3428 1.524 . S
C3429 C3430 1.415 . S
C3430 H3406 0.950 . S
C3430 C3425 1.363 . S
C3430 C3429 1.415 . S
C3431 H3407 0.951 . S
C3431 C3432 1.366 . S
C3431 C3433 1.388 . S
C3432 C3431 1.366 . S
C3432 C3436 1.385 . S
C3433 H3408 0.951 . S
C3433 C3431 1.388 . S
C3433 C3434 1.366 . S
C3434 C3433 1.366 . S
C3434 C3435 1.414 . S
C3434 C3437 1.499 . S
C3435 H3409 0.950 . S
C3435 C3434 1.414 . S
C3435 C3436 1.374 . S
C3436 H3410 0.950 . S
C3436 C3432 1.385 . S
C3436 C3435 1.374 . S
C3437 C3434 1.499 . S
C3437 C3438 1.373 . S
C3437 C3439 1.389 . S
C3438 H3411 0.950 . S
C3438 C3424 1.377 . S
C3438 C3437 1.373 . S
C3439 C3423 1.377 . S
C3439 C3437 1.389 . S
C3439 C3440 1.524 . S
C3440 C3439 1.524 . S
C3440 C3441 1.397 . S
C3440 C3445 1.363 . S
C3441 H3412 0.950 . S
C3441 C3440 1.397 . S
C3441 C3442 1.334 . S
C3442 H3413 0.950 . S
C3442 C3441 1.334 . S
C3442 C3443 1.287 . S
C3443 C3442 1.287 . S
C3443 C3444 1.524 . S
C3443 H3446 0.999 . S
C3444 H3414 0.950 . S
C3444 C3443 1.524 . S
C3444 C3445 1.415 . S
C3445 H3415 0.950 . S
C3445 C3440 1.363 . S
C3445 C3444 1.415 . S
H3446 C3443 0.999 . S
H3447 C3428 0.913 . S
H3448 C3466 0.951 . S
H3449 C3468 0.951 . S
H3450 C3470 0.950 . S
H3451 C3471 0.950 . S
H3452 C3473 0.950 . S
H3453 C3476 0.950 . S
H3454 C3477 0.950 . S
H3455 C3479 0.950 . S
H3456 C3480 0.950 . S
H3457 C3481 0.951 . S
H3458 C3483 0.951 . S
H3459 C3485 0.950 . S
H3460 C3486 0.950 . S
H3461 C3488 0.950 . S
H3462 C3491 0.950 . S
H3463 C3492 0.950 . S
H3464 C3494 0.950 . S
H3465 C3495 0.950 . S
C3466 H3448 0.951 . S
C3466 C3467 1.366 . S
C3466 C3468 1.388 . S
C3467 C3466 1.366 . S
C3467 C3471 1.385 . S
C3468 H3449 0.951 . S
C3468 C3466 1.388 . S
C3468 C3469 1.366 . S
C3469 C3468 1.366 . S
C3469 C3470 1.414 . S
C3469 C3472 1.499 . S
C3470 H3450 0.950 . S
C3470 C3469 1.414 . S
C3470 C3471 1.374 . S
C3471 H3451 0.950 . S
C3471 C3467 1.385 . S
C3471 C3470 1.374 . S
C3472 C3469 1.499 . S
C3472 C3473 1.373 . S
C3472 C3474 1.389 . S
C3473 H3452 0.950 . S
C3473 C3472 1.373 . S
C3473 C3489 1.377 . S
C3474 C3472 1.389 . S
C3474 C3475 1.524 . S
C3474 C3488 1.377 . S
C3475 C3474 1.524 . S
C3475 C3476 1.397 . S
C3475 C3480 1.363 . S
C3476 H3453 0.950 . S
C3476 C3475 1.397 . S
C3476 C3477 1.334 . S
C3477 H3454 0.950 . S
C3477 C3476 1.334 . S
C3477 C3478 1.287 . S
C3478 C3477 1.287 . S
C3478 C3479 1.524 . S
C3478 H3497 0.913 . S
C3479 H3455 0.950 . S
C3479 C3478 1.524 . S
C3479 C3480 1.415 . S
C3480 H3456 0.950 . S
C3480 C3475 1.363 . S
C3480 C3479 1.415 . S
C3481 H3457 0.951 . S
C3481 C3482 1.366 . S
C3481 C3483 1.388 . S
C3482 C3481 1.366 . S
C3482 C3486 1.385 . S
C3483 H3458 0.951 . S
C3483 C3481 1.388 . S
C3483 C3484 1.366 . S
C3484 C3483 1.366 . S
C3484 C3485 1.414 . S
C3484 C3487 1.499 . S
C3485 H3459 0.950 . S
C3485 C3484 1.414 . S
C3485 C3486 1.374 . S
C3486 H3460 0.950 . S
C3486 C3482 1.385 . S
C3486 C3485 1.374 . S
C3487 C3484 1.499 . S
C3487 C3488 1.373 . S
C3487 C3489 1.389 . S
C3488 H3461 0.950 . S
C3488 C3474 1.377 . S
C3488 C3487 1.373 . S
C3489 C3473 1.377 . S
C3489 C3487 1.389 . S
C3489 C3490 1.524 . S
C3490 C3489 1.524 . S
C3490 C3491 1.397 . S
C3490 C3495 1.363 . S
C3491 H3462 0.950 . S
C3491 C3490 1.397 . S
C3491 C3492 1.334 . S
C3492 H3463 0.950 . S
C3492 C3491 1.334 . S
C3492 C3493 1.287 . S
C3493 C3492 1.287 . S
C3493 C3494 1.524 . S
C3493 H3496 0.999 . S
C3494 H3464 0.950 . S
C3494 C3493 1.524 . S
C3494 C3495 1.415 . S
C3495 H3465 0.950 . S
C3495 C3490 1.363 . S
C3495 C3494 1.415 . S
H3496 C3493 0.999 . S
H3497 C3478 0.913 . S
H3498 C3516 0.951 . S
H3499 C3518 0.951 . S
H3500 C3520 0.950 . S
H3501 C3521 0.950 . S
H3502 C3523 0.950 . S
H3503 C3526 0.950 . S
H3504 C3527 0.950 . S
H3505 C3529 0.950 . S
H3506 C3530 0.950 . S
H3507 C3531 0.951 . S
H3508 C3533 0.951 . S
H3509 C3535 0.950 . S
H3510 C3536 0.950 . S
H3511 C3538 0.950 . S
H3512 C3541 0.950 . S
H3513 C3542 0.950 . S
H3514 C3544 0.950 . S
H3515 C3545 0.950 . S
C3516 H3498 0.951 . S
C3516 C3517 1.366 . S
C3516 C3518 1.388 . S
C3517 C3516 1.366 . S
C3517 C3521 1.385 . S
C3518 H3499 0.951 . S
C3518 C3516 1.388 . S
C3518 C3519 1.366 . S
C3519 C3518 1.366 . S
C3519 C3520 1.414 . S
C3519 C3522 1.499 . S
C3520 H3500 0.950 . S
C3520 C3519 1.414 . S
C3520 C3521 1.374 . S
C3521 H3501 0.950 . S
C3521 C3517 1.385 . S
C3521 C3520 1.374 . S
C3522 C3519 1.499 . S
C3522 C3523 1.373 . S
C3522 C3524 1.389 . S
C3523 H3502 0.950 . S
C3523 C3522 1.373 . S
C3523 C3539 1.377 . S
C3524 C3522 1.389 . S
C3524 C3525 1.524 . S
C3524 C3538 1.377 . S
C3525 C3524 1.524 . S
C3525 C3526 1.397 . S
C3525 C3530 1.363 . S
C3526 H3503 0.950 . S
C3526 C3525 1.397 . S
C3526 C3527 1.334 . S
C3527 H3504 0.950 . S
C3527 C3526 1.334 . S
C3527 C3528 1.287 . S
C3528 C3527 1.287 . S
C3528 C3529 1.524 . S
C3528 H3547 0.913 . S
C3529 H3505 0.950 . S
C3529 C3528 1.524 . S
C3529 C3530 1.415 . S
C3530 H3506 0.950 . S
C3530 C3525 1.363 . S
C3530 C3529 1.415 . S
C3531 H3507 0.951 . S
C3531 C3532 1.366 . S
C3531 C3533 1.388 . S
C3532 C3531 1.366 . S
C3532 C3536 1.385 . S
C3533 H3508 0.951 . S
C3533 C3531 1.388 . S
C3533 C3534 1.366 . S
C3534 C3533 1.366 . S
C3534 C3535 1.414 . S
C3534 C3537 1.499 . S
C3535 H3509 0.950 . S
C3535 C3534 1.414 . S
C3535 C3536 1.374 . S
C3536 H3510 0.950 . S
C3536 C3532 1.385 . S
C3536 C3535 1.374 . S
C3537 C3534 1.499 . S
C3537 C3538 1.373 . S
C3537 C3539 1.389 . S
C3538 H3511 0.950 . S
C3538 C3524 1.377 . S
C3538 C3537 1.373 . S
C3539 C3523 1.377 . S
C3539 C3537 1.389 . S
C3539 C3540 1.524 . S
C3540 C3539 1.524 . S
C3540 C3541 1.397 . S
C3540 C3545 1.363 . S
C3541 H3512 0.950 . S
C3541 C3540 1.397 . S
C3541 C3542 1.334 . S
C3542 H3513 0.950 . S
C3542 C3541 1.334 . S
C3542 C3543 1.287 . S
C3543 C3542 1.287 . S
C3543 C3544 1.524 . S
C3543 H3546 0.999 . S
C3544 H3514 0.950 . S
C3544 C3543 1.524 . S
C3544 C3545 1.415 . S
C3545 H3515 0.950 . S
C3545 C3540 1.363 . S
C3545 C3544 1.415 . S
H3546 C3543 0.999 . S
H3547 C3528 0.913 . S
H3548 C3566 0.951 . S
H3549 C3568 0.951 . S
H3550 C3570 0.950 . S
H3551 C3571 0.950 . S
H3552 C3573 0.950 . S
H3553 C3576 0.950 . S
H3554 C3577 0.950 . S
H3555 C3579 0.950 . S
H3556 C3580 0.950 . S
H3557 C3581 0.951 . S
H3558 C3583 0.951 . S
H3559 C3585 0.950 . S
H3560 C3586 0.950 . S
H3561 C3588 0.950 . S
H3562 C3591 0.950 . S
H3563 C3592 0.950 . S
H3564 C3594 0.950 . S
H3565 C3595 0.950 . S
C3566 H3548 0.951 . S
C3566 C3567 1.366 . S
C3566 C3568 1.388 . S
C3567 C3566 1.366 . S
C3567 C3571 1.385 . S
C3568 H3549 0.951 . S
C3568 C3566 1.388 . S
C3568 C3569 1.366 . S
C3569 C3568 1.366 . S
C3569 C3570 1.414 . S
C3569 C3572 1.499 . S
C3570 H3550 0.950 . S
C3570 C3569 1.414 . S
C3570 C3571 1.374 . S
C3571 H3551 0.950 . S
C3571 C3567 1.385 . S
C3571 C3570 1.374 . S
C3572 C3569 1.499 . S
C3572 C3573 1.373 . S
C3572 C3574 1.389 . S
C3573 H3552 0.950 . S
C3573 C3572 1.373 . S
C3573 C3589 1.377 . S
C3574 C3572 1.389 . S
C3574 C3575 1.524 . S
C3574 C3588 1.377 . S
C3575 C3574 1.524 . S
C3575 C3576 1.397 . S
C3575 C3580 1.363 . S
C3576 H3553 0.950 . S
C3576 C3575 1.397 . S
C3576 C3577 1.334 . S
C3577 H3554 0.950 . S
C3577 C3576 1.334 . S
C3577 C3578 1.287 . S
C3578 C3577 1.287 . S
C3578 C3579 1.524 . S
C3578 H3597 0.913 . S
C3579 H3555 0.950 . S
C3579 C3578 1.524 . S
C3579 C3580 1.415 . S
C3580 H3556 0.950 . S
C3580 C3575 1.363 . S
C3580 C3579 1.415 . S
C3581 H3557 0.951 . S
C3581 C3582 1.366 . S
C3581 C3583 1.388 . S
C3582 C3581 1.366 . S
C3582 C3586 1.385 . S
C3583 H3558 0.951 . S
C3583 C3581 1.388 . S
C3583 C3584 1.366 . S
C3584 C3583 1.366 . S
C3584 C3585 1.414 . S
C3584 C3587 1.499 . S
C3585 H3559 0.950 . S
C3585 C3584 1.414 . S
C3585 C3586 1.374 . S
C3586 H3560 0.950 . S
C3586 C3582 1.385 . S
C3586 C3585 1.374 . S
C3587 C3584 1.499 . S
C3587 C3588 1.373 . S
C3587 C3589 1.389 . S
C3588 H3561 0.950 . S
C3588 C3574 1.377 . S
C3588 C3587 1.373 . S
C3589 C3573 1.377 . S
C3589 C3587 1.389 . S
C3589 C3590 1.524 . S
C3590 C3589 1.524 . S
C3590 C3591 1.397 . S
C3590 C3595 1.363 . S
C3591 H3562 0.950 . S
C3591 C3590 1.397 . S
C3591 C3592 1.334 . S
C3592 H3563 0.950 . S
C3592 C3591 1.334 . S
C3592 C3593 1.287 . S
C3593 C3592 1.287 . S
C3593 C3594 1.524 . S
C3593 H3596 0.999 . S
C3594 H3564 0.950 . S
C3594 C3593 1.524 . S
C3594 C3595 1.415 . S
C3595 H3565 0.950 . S
C3595 C3590 1.363 . S
C3595 C3594 1.415 . S
H3596 C3593 0.999 . S
H3597 C3578 0.913 . S
H3598 C3616 0.951 . S
H3599 C3618 0.951 . S
H3600 C3620 0.950 . S
H3601 C3621 0.950 . S
H3602 C3623 0.950 . S
H3603 C3626 0.950 . S
H3604 C3627 0.950 . S
H3605 C3629 0.950 . S
H3606 C3630 0.950 . S
H3607 C3631 0.951 . S
H3608 C3633 0.951 . S
H3609 C3635 0.950 . S
H3610 C3636 0.950 . S
H3611 C3638 0.950 . S
H3612 C3641 0.950 . S
H3613 C3642 0.950 . S
H3614 C3644 0.950 . S
H3615 C3645 0.950 . S
C3616 H3598 0.951 . S
C3616 C3617 1.366 . S
C3616 C3618 1.388 . S
C3617 C3616 1.366 . S
C3617 C3621 1.385 . S
C3618 H3599 0.951 . S
C3618 C3616 1.388 . S
C3618 C3619 1.366 . S
C3619 C3618 1.366 . S
C3619 C3620 1.414 . S
C3619 C3622 1.499 . S
C3620 H3600 0.950 . S
C3620 C3619 1.414 . S
C3620 C3621 1.374 . S
C3621 H3601 0.950 . S
C3621 C3617 1.385 . S
C3621 C3620 1.374 . S
C3622 C3619 1.499 . S
C3622 C3623 1.373 . S
C3622 C3624 1.389 . S
C3623 H3602 0.950 . S
C3623 C3622 1.373 . S
C3623 C3639 1.377 . S
C3624 C3622 1.389 . S
C3624 C3625 1.524 . S
C3624 C3638 1.377 . S
C3625 C3624 1.524 . S
C3625 C3626 1.397 . S
C3625 C3630 1.363 . S
C3626 H3603 0.950 . S
C3626 C3625 1.397 . S
C3626 C3627 1.334 . S
C3627 H3604 0.950 . S
C3627 C3626 1.334 . S
C3627 C3628 1.287 . S
C3628 C3627 1.287 . S
C3628 C3629 1.524 . S
C3628 H3647 0.913 . S
C3629 H3605 0.950 . S
C3629 C3628 1.524 . S
C3629 C3630 1.415 . S
C3630 H3606 0.950 . S
C3630 C3625 1.363 . S
C3630 C3629 1.415 . S
C3631 H3607 0.951 . S
C3631 C3632 1.366 . S
C3631 C3633 1.388 . S
C3632 C3631 1.366 . S
C3632 C3636 1.385 . S
C3633 H3608 0.951 . S
C3633 C3631 1.388 . S
C3633 C3634 1.366 . S
C3634 C3633 1.366 . S
C3634 C3635 1.414 . S
C3634 C3637 1.499 . S
C3635 H3609 0.950 . S
C3635 C3634 1.414 . S
C3635 C3636 1.374 . S
C3636 H3610 0.950 . S
C3636 C3632 1.385 . S
C3636 C3635 1.374 . S
C3637 C3634 1.499 . S
C3637 C3638 1.373 . S
C3637 C3639 1.389 . S
C3638 H3611 0.950 . S
C3638 C3624 1.377 . S
C3638 C3637 1.373 . S
C3639 C3623 1.377 . S
C3639 C3637 1.389 . S
C3639 C3640 1.524 . S
C3640 C3639 1.524 . S
C3640 C3641 1.397 . S
C3640 C3645 1.363 . S
C3641 H3612 0.950 . S
C3641 C3640 1.397 . S
C3641 C3642 1.334 . S
C3642 H3613 0.950 . S
C3642 C3641 1.334 . S
C3642 C3643 1.287 . S
C3643 C3642 1.287 . S
C3643 C3644 1.524 . S
C3643 H3646 0.999 . S
C3644 H3614 0.950 . S
C3644 C3643 1.524 . S
C3644 C3645 1.415 . S
C3645 H3615 0.950 . S
C3645 C3640 1.363 . S
C3645 C3644 1.415 . S
H3646 C3643 0.999 . S
H3647 C3628 0.913 . S
C467 C215 1.450 . S
C482 C5 1.450 . S
C517 C19 1.446 . S
C532 C177 1.441 . S
C567 C33 1.450 . S
C582 C187 1.450 . S
C617 C205 1.440 . S
C632 C47 1.446 . S
C667 C61 1.450 . S
C682 C131 1.450 . S
C717 C75 1.446 . S
C732 C149 1.441 . S
C767 C159 1.450 . S
C782 C89 1.450 . S
C817 C121 1.441 . S
C832 C103 1.446 . S
C867 C229 1.450 . S
C882 C439 1.450 . S
C917 C243 1.446 . S
C932 C401 1.441 . S
C967 C257 1.450 . S
C982 C411 1.450 . S
C1017 C429 1.441 . S
C1032 C271 1.445 . S
C1067 C285 1.450 . S
C1082 C355 1.450 . S
C1117 C299 1.446 . S
C1132 C373 1.441 . S
C1167 C383 1.450 . S
C1182 C313 1.450 . S
C1217 C327 1.446 . S
C1232 C345 1.441 . S
C1267 C168 1.341 . S
C1282 C11 1.345 . S
C1317 C25 1.350 . S
C1332 C193 1.352 . S
C1367 C196 1.342 . S
C1382 C39 1.345 . S
C1417 C53 1.351 . S
C1432 C221 1.352 . S
C1467 C67 1.346 . S
C1482 C112 1.341 . S
C1517 C137 1.352 . S
C1532 C81 1.350 . S
C1567 C140 1.341 . S
C1582 C95 1.346 . S
C1617 C165 1.351 . S
C1632 C109 1.350 . S
C1667 C235 1.345 . S
C1682 C392 1.341 . S
C1717 C417 1.351 . S
C1732 C249 1.350 . S
C1767 C263 1.345 . S
C1782 C420 1.342 . S
C1817 C277 1.351 . S
C1832 C445 1.352 . S
C1867 C336 1.341 . S
C1882 C291 1.346 . S
C1917 C305 1.350 . S
C1932 C361 1.352 . S
C1967 C319 1.345 . S
C1982 C364 1.342 . S
C2017 C333 1.350 . S
C2032 C389 1.352 . S
C2067 C9 1.247 . S
C2082 C145 1.254 . S
C2117 C163 1.232 . S
C2132 C23 1.231 . S
C2167 C37 1.248 . S
C2182 C117 1.254 . S
C2217 C135 1.233 . S
C2232 C51 1.231 . S
C2267 C201 1.254 . S
C2282 C65 1.248 . S
C2317 C219 1.232 . S
C2332 C79 1.231 . S
C2367 C173 1.254 . S
C2382 C93 1.248 . S
C2417 C107 1.230 . S
C2432 C191 1.233 . S
C2467 C369 1.254 . S
C2482 C233 1.248 . S
C2517 C247 1.231 . S
C2532 C387 1.232 . S
C2567 C341 1.255 . S
C2582 C261 1.247 . S
C2617 C359 1.233 . S
C2632 C275 1.230 . S
C2667 C289 1.248 . S
C2682 C425 1.254 . S
C2717 C303 1.231 . S
C2732 C443 1.233 . S
C2767 C397 1.254 . S
C2782 C317 1.248 . S
C2817 C415 1.232 . S
C2832 C331 1.231 . S
C2867 C322 1.194 . S
C2882 C0 1.195 . S
C2917 C280 1.194 . S
C2932 C14 1.194 . S
C2967 C294 1.194 . S
C2982 C28 1.195 . S
C3017 C308 1.195 . S
C3032 C42 1.194 . S
C3067 C238 1.194 . S
C3082 C56 1.195 . S
C3117 C70 1.194 . S
C3132 C252 1.195 . S
C3167 C84 1.194 . S
C3182 C266 1.194 . S
C3217 C98 1.194 . S
C3232 C224 1.195 . S
C3267 C123 1.056 . S
C3282 C434 1.052 . S
C3317 C403 1.056 . S
C3332 C126 1.053 . S
C3367 C151 1.056 . S
C3382 C406 1.053 . S
C3417 C154 1.053 . S
C3432 C431 1.056 . S
C3467 C350 1.053 . S
C3482 C179 1.056 . S
C3517 C375 1.057 . S
C3532 C182 1.052 . S
C3567 C207 1.056 . S
C3582 C378 1.053 . S
C3617 C210 1.053 . S
C3632 C347 1.056 . S
