# Generated by pormake.
# Topology vbm, (6)-cn, num edge types: 1
# Building blocks:
#     Node 0, Type 0, BuildingBlock: UKALOJ_clean_sbu_0, # of connection points: 6
#     Node 1, Type 0, BuildingBlock: UKALOJ_clean_sbu_0, # of connection points: 6
#     Node 2, Type 0, BuildingBlock: UKALOJ_clean_sbu_0, # of connection points: 6
#     Node 3, Type 0, BuildingBlock: UKALOJ_clean_sbu_0, # of connection points: 6
#     Node 4, Type 0, BuildingBlock: UKALOJ_clean_sbu_0, # of connection points: 6
#     Node 5, Type 0, BuildingBlock: UKALOJ_clean_sbu_0, # of connection points: 6
#     Node 6, Type 0, BuildingBlock: UKALOJ_clean_sbu_0, # of connection points: 6
#     Node 7, Type 0, BuildingBlock: UKALOJ_clean_sbu_0, # of connection points: 6
#     Node 8, Type 0, BuildingBlock: UKALOJ_clean_sbu_0, # of connection points: 6
#     Node 9, Type 0, BuildingBlock: UKALOJ_clean_sbu_0, # of connection points: 6
#     Node 10, Type 0, BuildingBlock: UKALOJ_clean_sbu_0, # of connection points: 6
#     Node 11, Type 0, BuildingBlock: UKALOJ_clean_sbu_0, # of connection points: 6
#     Node 12, Type 0, BuildingBlock: UKALOJ_clean_sbu_0, # of connection points: 6
#     Node 13, Type 0, BuildingBlock: UKALOJ_clean_sbu_0, # of connection points: 6
#     Node 14, Type 0, BuildingBlock: UKALOJ_clean_sbu_0, # of connection points: 6
#     Node 15, Type 0, BuildingBlock: UKALOJ_clean_sbu_0, # of connection points: 6
#     Edge 16, Type (0, 0), None
#     Edge 17, Type (0, 0), None
#     Edge 18, Type (0, 0), None
#     Edge 19, Type (0, 0), None
#     Edge 20, Type (0, 0), None
#     Edge 21, Type (0, 0), None
#     Edge 22, Type (0, 0), None
#     Edge 23, Type (0, 0), None
#     Edge 24, Type (0, 0), None
#     Edge 25, Type (0, 0), None
#     Edge 26, Type (0, 0), None
#     Edge 27, Type (0, 0), None
#     Edge 28, Type (0, 0), None
#     Edge 29, Type (0, 0), None
#     Edge 30, Type (0, 0), None
#     Edge 31, Type (0, 0), None
#     Edge 32, Type (0, 0), None
#     Edge 33, Type (0, 0), None
#     Edge 34, Type (0, 0), None
#     Edge 35, Type (0, 0), None
#     Edge 36, Type (0, 0), None
#     Edge 37, Type (0, 0), None
#     Edge 38, Type (0, 0), None
#     Edge 39, Type (0, 0), None
#     Edge 40, Type (0, 0), None
#     Edge 41, Type (0, 0), None
#     Edge 42, Type (0, 0), None
#     Edge 43, Type (0, 0), None
#     Edge 44, Type (0, 0), None
#     Edge 45, Type (0, 0), None
#     Edge 46, Type (0, 0), None
#     Edge 47, Type (0, 0), None
#     Edge 48, Type (0, 0), None
#     Edge 49, Type (0, 0), None
#     Edge 50, Type (0, 0), None
#     Edge 51, Type (0, 0), None
#     Edge 52, Type (0, 0), None
#     Edge 53, Type (0, 0), None
#     Edge 54, Type (0, 0), None
#     Edge 55, Type (0, 0), None
#     Edge 56, Type (0, 0), None
#     Edge 57, Type (0, 0), None
#     Edge 58, Type (0, 0), None
#     Edge 59, Type (0, 0), None
#     Edge 60, Type (0, 0), None
#     Edge 61, Type (0, 0), None
#     Edge 62, Type (0, 0), None
#     Edge 63, Type (0, 0), None
# Relax obj value: 0.032
# Max RMSD: 0.078
# Mean RMSD: 0.078
data_MOF--net-vbm--node1-UKALOJ_clean_sbu_0--edge1-none
_symmetry_space_group_name_H-M    P1
_symmetry_Int_Tables_number       1
_symmetry_cell_setting            triclinic
loop_
_symmetry_equiv_pos_as_xyz
'x, y, z'
_cell_length_a     27.004134
_cell_length_b     6.7953379
_cell_length_c     47.831903
_cell_angle_alpha  89.994472
_cell_angle_beta   89.932015
_cell_angle_gamma 90.025638
loop_
_atom_site_label
_atom_site_type_symbol
_atom_site_fract_x
_atom_site_fract_y
_atom_site_fract_z
_atom_type_partial_charge
Zn0 Zn 0.10091 0.09018 0.17466 0.0
O1 O 0.02332 0.04297 0.17506 0.0
C2 C 0.10424 0.68722 0.15161 0.0
Zn3 Zn 0.10091 0.09162 0.12786 0.0
C4 C 0.00065 0.01561 0.1521 0.0
O5 O 0.0232 0.04291 0.12905 0.0
C6 C 0.20015 0.18314 0.15031 0.0
O7 O 0.09481 0.40364 0.12778 0.0
O8 O 0.09496 0.39959 0.17392 0.0
N9 N 0.10007 0.06157 0.08501 0.0
C10 C 0.10695 0.17932 0.06267 0.0
C11 C 0.09289 0.88999 0.04703 0.0
N12 N 0.09145 0.88251 0.07509 0.0
N13 N 0.10331 0.074 0.03878 0.0
C14 C 0.08946 0.96444 0.23723 0.0
C15 C 0.11919 0.21384 0.2586 0.0
N16 N 0.10252 0.09736 0.21758 0.0
N17 N 0.12078 0.2522 0.23095 0.0
N18 N 0.09924 0.03501 0.26292 0.0
H19 H 0.04118 0.7776 0.21313 0.0
H20 H 0.04422 0.7184 0.24991 0.0
H21 H 0.09537 0.65925 0.22729 0.0
C22 C 0.06593 0.76897 0.23154 0.0
C23 C 0.11837 0.39405 0.06439 0.0
H24 H 0.0838 0.47433 0.06954 0.0
H25 H 0.13349 0.45016 0.04434 0.0
H26 H 0.14553 0.42137 0.08134 0.0
O27 O 0.17827 0.14625 0.12734 0.0
O28 O 0.17852 0.14547 0.17337 0.0
C29 C 0.09778 0.49404 0.15107 0.0
O30 O 0.10731 0.7782 0.17469 0.0
O31 O 0.10702 0.78183 0.12896 0.0
Zn32 Zn 0.84858 0.87397 0.17463 0.0
O33 O 0.92617 0.92154 0.1751 0.0
C34 C 0.84528 0.277 0.15154 0.0
Zn35 Zn 0.84871 0.87275 0.12786 0.0
C36 C 0.94889 0.94891 0.15213 0.0
O37 O 0.9264 0.92151 0.12911 0.0
C38 C 0.74943 0.78034 0.15026 0.0
O39 O 0.85482 0.56069 0.12772 0.0
O40 O 0.85459 0.5645 0.17387 0.0
N41 N 0.85023 0.90308 0.08512 0.0
C42 C 0.84024 0.78879 0.06281 0.0
C43 C 0.86049 0.07233 0.04715 0.0
N44 N 0.86273 0.07857 0.0752 0.0
N45 N 0.84565 0.89307 0.03894 0.0
C46 C 0.85933 0.00061 0.23721 0.0
C47 C 0.82971 0.75093 0.25861 0.0
N48 N 0.84666 0.86707 0.21758 0.0
N49 N 0.82848 0.71207 0.23097 0.0
N50 N 0.84936 0.93029 0.26291 0.0
H51 H 0.90775 0.18782 0.2132 0.0
H52 H 0.90403 0.24793 0.24993 0.0
H53 H 0.85317 0.30541 0.22709 0.0
C54 C 0.88269 0.19644 0.23151 0.0
C55 C 0.82447 0.57835 0.06456 0.0
H56 H 0.8576 0.48659 0.06865 0.0
H57 H 0.8068 0.52933 0.04482 0.0
H58 H 0.79825 0.55815 0.08221 0.0
O59 O 0.77133 0.81787 0.12728 0.0
O60 O 0.771 0.81816 0.17331 0.0
C61 C 0.85178 0.47018 0.15101 0.0
O62 O 0.84213 0.18594 0.17462 0.0
O63 O 0.84253 0.18246 0.12888 0.0
Zn64 Zn 0.09978 0.87398 0.4235 0.0
O65 O 0.09277 0.56827 0.42373 0.0
C66 C 0.19893 0.77976 0.4009 0.0
Zn67 Zn 0.09985 0.87588 0.37664 0.0
C68 C 0.09569 0.47965 0.40036 0.0
O69 O 0.09292 0.57279 0.37748 0.0
C70 C 0.10415 0.2707 0.39965 0.0
O71 O 0.02237 0.92596 0.37633 0.0
O72 O 0.02213 0.92545 0.42235 0.0
N73 N 0.10157 0.86816 0.33371 0.0
C74 C 0.08916 0.00188 0.31405 0.0
C75 C 0.11826 0.75115 0.29269 0.0
N76 N 0.11943 0.71252 0.32034 0.0
N77 N 0.09904 0.93112 0.28837 0.0
C78 C 0.10685 0.78781 0.48863 0.0
C79 C 0.09115 0.07561 0.50434 0.0
N80 N 0.09888 0.90471 0.46633 0.0
N81 N 0.08922 0.08284 0.47629 0.0
N82 N 0.10292 0.89281 0.51253 0.0
H83 H 0.08512 0.49065 0.48221 0.0
H84 H 0.13557 0.51992 0.50672 0.0
H85 H 0.14605 0.54873 0.46953 0.0
C86 C 0.11943 0.57412 0.48684 0.0
C87 C 0.06625 0.19848 0.31974 0.0
H88 H 0.04116 0.19071 0.33805 0.0
H89 H 0.04504 0.25071 0.30131 0.0
H90 H 0.09602 0.30642 0.32418 0.0
O91 O 0.1072 0.18148 0.3765 0.0
O92 O 0.10684 0.17733 0.42233 0.0
C93 C -0.00035 0.95312 0.39932 0.0
O94 O 0.17706 0.81661 0.42391 0.0
O95 O 0.17732 0.8177 0.37786 0.0
Zn96 Zn 0.84754 0.09146 0.37657 0.0
O97 O 0.92517 0.04533 0.37632 0.0
C98 C 0.84419 0.68855 0.3996 0.0
Zn99 Zn 0.84741 0.09302 0.42338 0.0
C100 C 0.94783 0.01885 0.39931 0.0
O101 O 0.92516 0.04549 0.42233 0.0
C102 C 0.74817 0.18317 0.40077 0.0
O103 O 0.85341 0.40503 0.42347 0.0
O104 O 0.85341 0.40089 0.37733 0.0
N105 N 0.84797 0.06234 0.46623 0.0
C106 C 0.84142 0.17975 0.48864 0.0
C107 C 0.85455 0.88938 0.50413 0.0
N108 N 0.85602 0.88265 0.47607 0.0
N109 N 0.84469 0.07358 0.51247 0.0
C110 C 0.85901 0.96484 0.31402 0.0
C111 C 0.82933 0.21386 0.29255 0.0
N112 N 0.84608 0.09833 0.33362 0.0
N113 N 0.82787 0.25293 0.32018 0.0
N114 N 0.8491 0.03469 0.28831 0.0
H115 H 0.90738 0.7787 0.33815 0.0
H116 H 0.90417 0.71863 0.30141 0.0
H117 H 0.85311 0.65984 0.32411 0.0
C118 C 0.88254 0.76955 0.31978 0.0
C119 C 0.8306 0.39498 0.48702 0.0
H120 H 0.86538 0.47397 0.48187 0.0
H121 H 0.81569 0.4512 0.50711 0.0
H122 H 0.80346 0.42379 0.47012 0.0
O123 O 0.77001 0.14672 0.42377 0.0
O124 O 0.76991 0.14583 0.37773 0.0
C125 C 0.85055 0.49537 0.40016 0.0
O126 O 0.84122 0.7795 0.37652 0.0
O127 O 0.8414 0.78319 0.42225 0.0
Zn128 Zn 0.8494 0.85033 0.92275 0.0
O129 O 0.85521 0.54784 0.9213 0.0
C130 C 0.74917 0.76766 0.90117 0.0
Zn131 Zn 0.84883 0.84735 0.87595 0.0
C132 C 0.85288 0.45289 0.89874 0.0
O133 O 0.85599 0.54048 0.8754 0.0
C134 C 0.84493 0.2438 0.89996 0.0
O135 O 0.92624 0.90512 0.87476 0.0
O136 O 0.92684 0.90481 0.92075 0.0
N137 N 0.84546 0.85119 0.833 0.0
C138 C 0.85719 -0.00924 0.814 0.0
C139 C 0.82769 0.74574 0.79152 0.0
N140 N 0.82732 0.6992 0.81894 0.0
N141 N 0.84663 0.92721 0.78805 0.0
C142 C 0.83705 0.9187 0.98756 0.0
C143 C 0.87436 0.66395 1.00319 0.0
N144 N 0.85444 0.81915 0.96528 0.0
N145 N 0.87748 0.66123 0.97512 0.0
N146 N 0.84839 0.82218 1.01139 0.0
H147 H 0.83395 0.23125 0.98372 0.0
H148 H 0.78366 0.10329 0.96713 0.0
H149 H 0.78518 0.12716 1.00491 0.0
C150 C 0.80795 0.10561 0.98582 0.0
C151 C 0.8802 0.186 0.8205 0.0
H152 H 0.90574 0.17419 0.83852 0.0
H153 H 0.90097 0.2431 0.80218 0.0
H154 H 0.85049 0.29246 0.82571 0.0
O155 O 0.84092 0.14912 0.87733 0.0
O156 O 0.84369 0.15651 0.92348 0.0
C157 C 0.94841 0.94129 0.89765 0.0
O158 O 0.77171 0.80007 0.92407 0.0
O159 O 0.77156 0.79357 0.87803 0.0
Zn160 Zn 0.09816 0.11935 0.87603 0.0
O161 O 0.02054 0.06628 0.87478 0.0
C162 C 0.10096 0.71535 0.89993 0.0
Zn163 Zn 0.09728 0.11726 0.92274 0.0
C164 C -0.00173 0.02973 0.89765 0.0
O165 O 0.01986 0.06462 0.92076 0.0
C166 C 0.1978 0.19646 0.90121 0.0
O167 O 0.09189 0.42612 0.92153 0.0
O168 O 0.09237 0.43254 0.87569 0.0
N169 N 0.09189 0.14647 0.9652 0.0
C170 C 0.11102 0.05062 0.98732 0.0
C171 C 0.07025 0.29599 1.00327 0.0
N172 N 0.06671 0.29864 0.97522 0.0
N173 N 0.09861 0.14382 1.01126 0.0
C174 C 0.08985 0.97648 0.81403 0.0
C175 C 0.12059 0.21938 0.79158 0.0
N176 N 0.10175 0.11573 0.83304 0.0
N177 N 0.12066 0.26645 0.81899 0.0
N178 N 0.1011 0.03888 0.78811 0.0
H179 H 0.04034 0.7961 0.83847 0.0
H180 H 0.04506 0.72756 0.80211 0.0
H181 H 0.09514 0.67404 0.82562 0.0
C182 C 0.06595 0.78279 0.82047 0.0
C183 C 0.14273 0.87065 0.98532 0.0
H184 H 0.16476 0.87328 0.96574 0.0
H185 H 0.16787 0.85993 1.0036 0.0
H186 H 0.11856 0.73854 0.98495 0.0
O187 O 0.17502 0.16605 0.92412 0.0
O188 O 0.17561 0.16887 0.87808 0.0
C189 C 0.0949 0.52208 0.89898 0.0
O190 O 0.10475 0.81118 0.8773 0.0
O191 O 0.10255 0.80461 0.92335 0.0
Zn192 Zn 0.84957 0.11563 0.67521 0.0
O193 O 0.92719 0.06266 0.67662 0.0
C194 C 0.84683 0.71165 0.65133 0.0
Zn195 Zn 0.85058 0.1136 0.62852 0.0
C196 C 0.94948 0.02577 0.65377 0.0
O197 O 0.92798 0.0609 0.63065 0.0
C198 C 0.74997 0.19219 0.64987 0.0
O199 O 0.85598 0.4225 0.62973 0.0
O200 O 0.85536 0.42882 0.67555 0.0
N201 N 0.85628 0.1432 0.58609 0.0
C202 C 0.83693 0.04875 0.56392 0.0
C203 C 0.87832 0.29316 0.54812 0.0
N204 N 0.88185 0.29477 0.57617 0.0
N205 N 0.84957 0.14231 0.54004 0.0
C206 C 0.85786 0.97428 0.73723 0.0
C207 C 0.82692 0.21728 0.75956 0.0
N208 N 0.84579 0.11272 0.71816 0.0
N209 N 0.82677 0.26352 0.73213 0.0
N210 N 0.84657 0.03721 0.76312 0.0
H211 H 0.90741 0.7939 0.71284 0.0
H212 H 0.90298 0.72658 0.74925 0.0
H213 H 0.8528 0.67135 0.72586 0.0
C214 C 0.88192 0.7808 0.73089 0.0
C215 C 0.80481 0.86974 0.56579 0.0
H216 H 0.78306 0.87161 0.58548 0.0
H217 H 0.77941 0.86125 0.5476 0.0
H218 H 0.82867 0.73679 0.56586 0.0
O219 O 0.77286 0.16223 0.62699 0.0
O220 O 0.7721 0.1647 0.67302 0.0
C221 C 0.85289 0.51841 0.65227 0.0
O222 O 0.84299 0.8074 0.67396 0.0
O223 O 0.84529 0.80095 0.6279 0.0
Zn224 Zn 0.09911 0.84684 0.67535 0.0
O225 O 0.02148 0.90043 0.67666 0.0
C226 C 0.10202 0.25091 0.65144 0.0
Zn227 Zn 0.09835 0.84906 0.62863 0.0
C228 C -0.00067 0.93728 0.65379 0.0
O229 O 0.02097 0.90195 0.63069 0.0
C230 C 0.19878 0.76894 0.65004 0.0
O231 O 0.09291 0.54017 0.62988 0.0
O232 O 0.09323 0.5336 0.67571 0.0
N233 N 0.09293 0.8194 0.58617 0.0
C234 C 0.11136 0.91659 0.56395 0.0
C235 C 0.07146 0.6683 0.54821 0.0
N236 N 0.06829 0.66545 0.57628 0.0
N237 N 0.09905 0.82248 0.54007 0.0
C238 C 0.09038 -0.0099 0.7373 0.0
C239 C 0.1209 0.74752 0.75986 0.0
N240 N 0.10252 0.85078 0.71834 0.0
N241 N 0.12128 0.70025 0.73246 0.0
N242 N 0.10138 0.92802 0.76325 0.0
H243 H 0.04106 0.17008 0.71276 0.0
H244 H 0.04538 0.23872 0.74912 0.0
H245 H 0.0957 0.29255 0.7257 0.0
C246 C 0.06648 0.18358 0.7308 0.0
C247 C 0.14233 0.09876 0.56577 0.0
H248 H 0.16505 0.09641 0.58508 0.0
H249 H 0.16677 0.11253 0.5472 0.0
H250 H 0.1176 0.22901 0.56664 0.0
O251 O 0.17606 0.79998 0.62716 0.0
O252 O 0.17659 0.7967 0.6732 0.0
C253 C 0.09588 0.44415 0.65241 0.0
O254 O 0.10581 0.15501 0.67406 0.0
O255 O 0.10367 0.16176 0.62801 0.0
Zn256 Zn 0.60072 0.59394 0.17452 0.0
O257 O 0.52311 0.54672 0.17481 0.0
C258 C 0.6041 0.19107 0.15148 0.0
Zn259 Zn 0.60081 0.59559 0.12771 0.0
C260 C 0.50047 0.51967 0.15183 0.0
O261 O 0.52307 0.54687 0.12879 0.0
C262 C 0.69999 0.68777 0.15026 0.0
O263 O 0.59469 0.90755 0.12762 0.0
O264 O 0.59475 0.90341 0.17378 0.0
N265 N 0.60018 0.56486 0.08486 0.0
C266 C 0.6067 0.68212 0.06243 0.0
C267 C 0.59357 0.39156 0.047 0.0
N268 N 0.59213 0.38506 0.07506 0.0
N269 N 0.60342 0.57573 0.03862 0.0
C270 C 0.58922 0.46622 0.23703 0.0
C271 C 0.61913 0.71437 0.2586 0.0
N272 N 0.60223 0.6001 0.21748 0.0
N273 N 0.6206 0.75416 0.23099 0.0
N274 N 0.59917 0.53536 0.26277 0.0
H275 H 0.54081 0.28069 0.21279 0.0
H276 H 0.5438 0.2203 0.24953 0.0
H277 H 0.59492 0.16125 0.2269 0.0
C278 C 0.56555 0.2712 0.2312 0.0
C279 C 0.61747 0.89743 0.064 0.0
H280 H 0.58268 0.97622 0.06914 0.0
H281 H 0.63234 0.95357 0.04389 0.0
H282 H 0.64461 0.92658 0.08089 0.0
O283 O 0.67818 0.6506 0.12728 0.0
O284 O 0.67834 0.64962 0.17331 0.0
C285 C 0.59763 -0.00211 0.15093 0.0
O286 O 0.60716 0.28203 0.17456 0.0
O287 O 0.60693 0.28572 0.12883 0.0
Zn288 Zn 0.34865 0.37177 0.12766 0.0
O289 O 0.35579 0.06611 0.12745 0.0
C290 C 0.24959 0.27568 0.15027 0.0
Zn291 Zn 0.34859 0.37359 0.17453 0.0
C292 C 0.35281 0.97739 0.15082 0.0
O293 O 0.35563 0.07046 0.1737 0.0
C294 C 0.34423 0.76845 0.15151 0.0
O295 O 0.42606 0.42478 0.17482 0.0
O296 O 0.42627 0.42437 0.1288 0.0
N297 N 0.34686 0.36639 0.21747 0.0
C298 C 0.3593 0.50045 0.23708 0.0
C299 C 0.33 0.25033 0.25852 0.0
N300 N 0.32887 0.21114 0.23089 0.0
N301 N 0.34937 0.4302 0.26279 0.0
C302 C 0.34152 0.28543 0.06255 0.0
C303 C 0.35726 0.57319 0.04681 0.0
N304 N 0.34954 0.40239 0.08484 0.0
N305 N 0.35922 0.58049 0.07486 0.0
N306 N 0.34544 0.39037 0.03864 0.0
H307 H 0.36321 -0.01172 0.06896 0.0
H308 H 0.31268 0.01752 0.0445 0.0
H309 H 0.30234 0.04632 0.0817 0.0
C310 C 0.3289 0.07173 0.06436 0.0
C311 C 0.38229 0.6969 0.23133 0.0
H312 H 0.40731 0.68894 0.213 0.0
H313 H 0.40359 0.74914 0.24973 0.0
H314 H 0.35256 0.80497 0.22692 0.0
O315 O 0.34113 0.67912 0.17465 0.0
O316 O 0.34149 0.67515 0.12882 0.0
C317 C 0.44873 0.45255 0.15183 0.0
O318 O 0.27141 0.31321 0.12726 0.0
O319 O 0.27114 0.31421 0.1733 0.0
Zn320 Zn 0.59949 0.36948 0.42323 0.0
O321 O 0.59249 0.06381 0.42345 0.0
C322 C 0.69865 0.27476 0.40076 0.0
Zn323 Zn 0.59963 0.37124 0.37636 0.0
C324 C 0.59544 0.97507 0.40009 0.0
O325 O 0.59267 0.06806 0.37719 0.0
C326 C 0.60391 0.76612 0.39942 0.0
O327 O 0.52213 0.42144 0.37598 0.0
O328 O 0.5219 0.42076 0.42199 0.0
N329 N 0.60146 0.36478 0.33339 0.0
C330 C 0.58903 0.49943 0.31386 0.0
C331 C 0.61832 0.25007 0.29227 0.0
N332 N 0.61944 0.20998 0.31988 0.0
N333 N 0.59903 0.43013 0.28812 0.0
C334 C 0.60739 0.28504 0.48832 0.0
C335 C 0.58863 0.57011 0.50397 0.0
N336 N 0.59813 0.40024 0.466 0.0
N337 N 0.58656 0.57668 0.47592 0.0
N338 N 0.60243 0.38961 0.51219 0.0
H339 H 0.58841 -0.01551 0.48235 0.0
H340 H 0.63922 0.02264 0.50635 0.0
H341 H 0.64829 0.05121 0.46901 0.0
C342 C 0.62201 0.07338 0.48657 0.0
C343 C 0.56596 0.69552 0.3197 0.0
H344 H 0.54087 0.68681 0.338 0.0
H345 H 0.5447 0.74814 0.30132 0.0
H346 H 0.59564 0.80373 0.3242 0.0
O347 O 0.60703 0.67677 0.37629 0.0
O348 O 0.60655 0.67286 0.42211 0.0
C349 C 0.49942 0.44845 0.39897 0.0
O350 O 0.67675 0.3121 0.42375 0.0
O351 O 0.67711 0.31268 0.3777 0.0
Zn352 Zn 0.34754 0.59371 0.42331 0.0
O353 O 0.35455 0.89939 0.4235 0.0
C354 C 0.24841 0.68788 0.40085 0.0
Zn355 Zn 0.34751 0.59193 0.37643 0.0
C356 C 0.35164 -0.01191 0.40013 0.0
O357 O 0.35441 0.89503 0.37725 0.0
C358 C 0.34321 0.19703 0.39945 0.0
O359 O 0.42499 0.54214 0.37605 0.0
O360 O 0.42516 0.54241 0.42206 0.0
N361 N 0.34591 0.59889 0.33348 0.0
C362 C 0.35877 0.46501 0.31392 0.0
C363 C 0.32936 0.71422 0.29237 0.0
N364 N 0.32786 0.7536 0.32 0.0
N365 N 0.34899 0.53474 0.28819 0.0
C366 C 0.34123 0.68004 0.48852 0.0
C367 C 0.35586 0.39107 0.50411 0.0
N368 N 0.34845 0.56283 0.46615 0.0
N369 N 0.35744 0.38399 0.47605 0.0
N370 N 0.34499 0.57456 0.51238 0.0
H371 H 0.36404 0.97587 0.48197 0.0
H372 H 0.31386 0.94956 0.50681 0.0
H373 H 0.30267 0.92158 0.4697 0.0
C374 C 0.32948 0.89448 0.48682 0.0
C375 C 0.38203 0.26925 0.31974 0.0
H376 H 0.4068 0.27789 0.33814 0.0
H377 H 0.40366 0.21768 0.30141 0.0
H378 H 0.35244 0.16024 0.32407 0.0
O379 O 0.34017 0.28636 0.37631 0.0
O380 O 0.34051 0.29032 0.42214 0.0
C381 C 0.44767 0.51497 0.39901 0.0
O382 O 0.27029 0.65097 0.42382 0.0
O383 O 0.27001 0.65005 0.37777 0.0
Zn384 Zn 0.34894 0.34428 0.87581 0.0
O385 O 0.42655 0.39725 0.87446 0.0
C386 C 0.3461 0.74833 0.89972 0.0
Zn387 Zn 0.34974 0.34649 0.92254 0.0
C388 C 0.44876 0.43383 0.89732 0.0
O389 O 0.42712 0.39894 0.92043 0.0
C390 C 0.24926 0.26737 0.90116 0.0
O391 O 0.35509 0.03763 0.92127 0.0
O392 O 0.35472 0.03108 0.87544 0.0
N393 N 0.35522 0.31679 0.965 0.0
C394 C 0.33689 0.41407 0.98723 0.0
C395 C 0.37673 0.1657 1.00295 0.0
N396 N 0.37983 0.16279 0.97488 0.0
N397 N 0.34923 0.31999 1.0111 0.0
C398 C 0.35766 0.48773 0.81386 0.0
C399 C 0.32695 0.24547 0.7913 0.0
N400 N 0.34546 0.34841 0.83282 0.0
N401 N 0.32658 0.19807 0.8187 0.0
N402 N 0.34663 0.42577 0.7879 0.0
H403 H 0.40708 0.66744 0.8384 0.0
H404 H 0.40277 0.73619 0.80204 0.0
H405 H 0.35249 0.79019 0.82547 0.0
C406 C 0.38165 0.6811 0.82036 0.0
C407 C 0.30599 0.59632 0.98542 0.0
H408 H 0.28322 0.59401 0.96613 0.0
H409 H 0.28159 0.61018 1.004 0.0
H410 H 0.33077 0.72651 0.98452 0.0
O411 O 0.27203 0.29794 0.92404 0.0
O412 O 0.27146 0.29474 0.878 0.0
C413 C 0.35214 0.9416 0.89875 0.0
O414 O 0.34234 0.65241 0.87711 0.0
O415 O 0.3445 0.65916 0.92315 0.0
Zn416 Zn 0.59734 0.61361 0.92254 0.0
O417 O 0.59146 0.91599 0.92115 0.0
C418 C 0.69776 0.69642 0.90113 0.0
Zn419 Zn 0.59832 0.61634 0.87577 0.0
C420 C 0.59406 0.01088 0.89859 0.0
O421 O 0.59121 0.92325 0.87524 0.0
C422 C 0.60203 0.21997 0.8998 0.0
O423 O 0.5209 0.5587 0.87444 0.0
O424 O 0.52001 0.55882 0.92042 0.0
N425 N 0.6021 0.61234 0.83282 0.0
C426 C 0.59037 0.47277 0.81384 0.0
C427 C 0.62049 0.71674 0.79134 0.0
N428 N 0.62063 0.76369 0.81875 0.0
N429 N 0.60132 0.53567 0.7879 0.0
C430 C 0.61118 0.55048 0.98718 0.0
C431 C 0.56954 0.79422 1.00293 0.0
N432 N 0.59166 0.64411 0.96498 0.0
N433 N 0.56593 0.79527 0.97487 0.0
N434 N 0.5985 0.64417 1.01104 0.0
H435 H 0.66544 0.37474 0.96574 0.0
H436 H 0.66871 0.36364 1.00361 0.0
H437 H 0.61974 0.2387 0.98515 0.0
C438 C 0.64348 0.37207 0.98535 0.0
C439 C 0.56704 0.27807 0.82035 0.0
H440 H 0.54151 0.29031 0.8384 0.0
H441 H 0.54618 0.22169 0.80205 0.0
H442 H 0.59657 0.17077 0.8255 0.0
O443 O 0.6062 0.31457 0.87716 0.0
O444 O 0.60313 0.30736 0.92331 0.0
C445 C 0.4986 0.52237 0.89731 0.0
O446 O 0.675 0.66441 0.92401 0.0
O447 O 0.67559 0.67003 0.87797 0.0
Zn448 Zn 0.34977 0.61884 0.67518 0.0
O449 O 0.4274 0.56517 0.67641 0.0
C450 C 0.34691 0.21485 0.65127 0.0
Zn451 Zn 0.35064 0.61678 0.62846 0.0
C452 C 0.44961 0.52826 0.65352 0.0
O453 O 0.42805 0.56362 0.63043 0.0
C454 C 0.25015 0.69697 0.65 0.0
O455 O 0.35611 0.92564 0.6297 0.0
O456 O 0.35565 0.93211 0.67553 0.0
N457 N 0.35604 0.64644 0.58599 0.0
C458 C 0.3371 0.5504 0.56384 0.0
C459 C 0.37758 0.797 0.54797 0.0
N460 N 0.38104 0.79935 0.57603 0.0
N461 N 0.34945 0.64423 0.53993 0.0
C462 C 0.35804 0.47512 0.73713 0.0
C463 C 0.32736 0.71765 0.75967 0.0
N464 N 0.3462 0.61477 0.71817 0.0
N465 N 0.32734 0.76526 0.73228 0.0
N466 N 0.34674 0.53693 0.76307 0.0
H467 H 0.40754 0.29515 0.71265 0.0
H468 H 0.40283 0.22617 0.749 0.0
H469 H 0.35273 0.1728 0.72548 0.0
C470 C 0.38193 0.28157 0.73065 0.0
C471 C 0.30562 0.36964 0.56576 0.0
H472 H 0.28338 0.37197 0.58527 0.0
H473 H 0.2807 0.35806 0.5474 0.0
H474 H 0.32997 0.23816 0.56626 0.0
O475 O 0.2729 0.66611 0.6271 0.0
O476 O 0.27232 0.66898 0.67313 0.0
C477 C 0.35307 0.02161 0.65223 0.0
O478 O 0.34307 0.3107 0.67389 0.0
O479 O 0.34528 0.30406 0.62784 0.0
Zn480 Zn 0.59829 0.34704 0.62835 0.0
O481 O 0.59239 0.04451 0.62981 0.0
C482 C 0.69855 0.26335 0.64987 0.0
Zn483 Zn 0.59895 0.34388 0.67514 0.0
C484 C 0.5948 0.9495 0.65235 0.0
O485 O 0.5917 0.03699 0.67571 0.0
C486 C 0.60287 0.74046 0.65112 0.0
O487 O 0.52153 0.40215 0.67639 0.0
O488 O 0.52087 0.40208 0.6304 0.0
N489 N 0.60243 0.34809 0.7181 0.0
C490 C 0.59065 0.48786 0.73705 0.0
C491 C 0.62053 0.24394 0.7596 0.0
N492 N 0.6208 0.19677 0.73221 0.0
N493 N 0.60148 0.42522 0.763 0.0
C494 C 0.61093 0.41468 0.56358 0.0
C495 C 0.57264 0.16219 0.54792 0.0
N496 N 0.5931 0.31608 0.58584 0.0
N497 N 0.56946 0.15954 0.57599 0.0
N498 N 0.59925 0.31891 0.53974 0.0
H499 H 0.61522 0.72721 0.56711 0.0
H500 H 0.6646 0.59712 0.58421 0.0
H501 H 0.66402 0.61903 0.5464 0.0
C502 C 0.64075 0.59988 0.56534 0.0
C503 C 0.56741 0.68253 0.7305 0.0
H504 H 0.54199 0.67023 0.71244 0.0
H505 H 0.54645 0.73901 0.74879 0.0
H506 H 0.597 0.7898 0.72537 0.0
O507 O 0.60696 0.64572 0.67375 0.0
O508 O 0.6041 0.65324 0.6276 0.0
C509 C 0.49937 0.43884 0.65351 0.0
O510 O 0.676 0.29626 0.62698 0.0
O511 O 0.67622 0.2895 0.67301 0.0
loop_
_geom_bond_atom_site_label_1
_geom_bond_atom_site_label_2
_geom_bond_distance
_geom_bond_site_symmetry_2
_ccdc_geom_bond_type
Zn0 O1 2.055 . S
Zn0 O8 2.046 . S
Zn0 N16 2.036 . S
Zn0 O28 2.053 . S
Zn0 O30 2.066 1_545 S
O1 Zn0 2.055 . S
O1 C4 1.259 . S
C2 O30 1.256 . S
C2 O31 1.244 . S
Zn3 O5 2.046 . S
Zn3 O7 2.055 . S
Zn3 N9 2.036 . S
Zn3 O27 2.066 . S
Zn3 O31 2.053 1_545 S
C4 O1 1.259 . S
C4 O5 1.254 . S
O5 Zn3 2.046 . S
O5 C4 1.254 . S
C6 O27 1.256 . S
C6 O28 1.244 . S
O7 Zn3 2.055 . S
O7 C29 1.259 . S
O8 Zn0 2.046 . S
O8 C29 1.254 . S
N9 Zn3 2.036 . S
N9 C10 1.298 . S
N9 N12 1.398 1_545 S
C10 N9 1.298 . S
C10 N13 1.367 . S
C10 C23 1.481 . S
C11 N12 1.299 . S
C11 N13 1.379 1_565 S
N12 N9 1.398 1_565 S
N12 C11 1.299 . S
N13 C10 1.367 . S
N13 C11 1.379 1_545 S
C14 N16 1.298 . S
C14 N18 1.367 . S
C14 C22 1.481 1_545 S
C15 N17 1.299 . S
C15 N18 1.379 . S
N16 Zn0 2.036 . S
N16 C14 1.298 . S
N16 N17 1.398 . S
N17 C15 1.299 . S
N17 N16 1.398 . S
N18 C14 1.367 . S
N18 C15 1.379 . S
H19 C22 0.980 . S
H20 C22 0.981 . S
H21 C22 0.981 . S
C22 C14 1.481 1_565 S
C22 H19 0.980 . S
C22 H20 0.981 . S
C22 H21 0.981 . S
C23 C10 1.481 . S
C23 H24 0.980 . S
C23 H25 0.981 . S
C23 H26 0.981 . S
H24 C23 0.980 . S
H25 C23 0.981 . S
H26 C23 0.981 . S
O27 Zn3 2.066 . S
O27 C6 1.256 . S
O28 Zn0 2.053 . S
O28 C6 1.244 . S
C29 O7 1.259 . S
C29 O8 1.254 . S
O30 Zn0 2.066 1_565 S
O30 C2 1.256 . S
O31 C2 1.244 . S
O31 Zn3 2.053 1_565 S
Zn32 O33 2.055 . S
Zn32 O40 2.046 . S
Zn32 N48 2.036 . S
Zn32 O60 2.053 . S
Zn32 O62 2.066 1_565 S
O33 Zn32 2.055 . S
O33 C36 1.259 . S
C34 O62 1.256 . S
C34 O63 1.244 . S
Zn35 O37 2.046 . S
Zn35 O39 2.055 . S
Zn35 N41 2.036 . S
Zn35 O59 2.066 . S
Zn35 O63 2.053 1_565 S
C36 O33 1.259 . S
C36 O37 1.254 . S
O37 Zn35 2.046 . S
O37 C36 1.254 . S
C38 O59 1.256 . S
C38 O60 1.244 . S
O39 Zn35 2.055 . S
O39 C61 1.259 . S
O40 Zn32 2.046 . S
O40 C61 1.254 . S
N41 Zn35 2.036 . S
N41 C42 1.298 . S
N41 N44 1.398 1_565 S
C42 N41 1.298 . S
C42 N45 1.367 . S
C42 C55 1.481 . S
C43 N44 1.299 . S
C43 N45 1.379 1_545 S
N44 N41 1.398 1_545 S
N44 C43 1.299 . S
N45 C42 1.367 . S
N45 C43 1.379 1_565 S
C46 N48 1.298 . S
C46 N50 1.367 . S
C46 C54 1.481 1_565 S
C47 N49 1.299 . S
C47 N50 1.379 . S
N48 Zn32 2.036 . S
N48 C46 1.298 . S
N48 N49 1.398 . S
N49 C47 1.299 . S
N49 N48 1.398 . S
N50 C46 1.367 . S
N50 C47 1.379 . S
H51 C54 0.980 . S
H52 C54 0.981 . S
H53 C54 0.981 . S
C54 C46 1.481 1_545 S
C54 H51 0.980 . S
C54 H52 0.981 . S
C54 H53 0.981 . S
C55 C42 1.481 . S
C55 H56 0.980 . S
C55 H57 0.981 . S
C55 H58 0.981 . S
H56 C55 0.980 . S
H57 C55 0.981 . S
H58 C55 0.981 . S
O59 Zn35 2.066 . S
O59 C38 1.256 . S
O60 Zn32 2.053 . S
O60 C38 1.244 . S
C61 O39 1.259 . S
C61 O40 1.254 . S
O62 Zn32 2.066 1_545 S
O62 C34 1.256 . S
O63 C34 1.244 . S
O63 Zn35 2.053 1_545 S
Zn64 O65 2.055 . S
Zn64 O72 2.046 . S
Zn64 N80 2.036 . S
Zn64 O92 2.053 1_565 S
Zn64 O94 2.066 . S
O65 Zn64 2.055 . S
O65 C68 1.259 . S
C66 O94 1.256 . S
C66 O95 1.244 . S
Zn67 O69 2.046 . S
Zn67 O71 2.055 . S
Zn67 N73 2.036 . S
Zn67 O91 2.066 1_565 S
Zn67 O95 2.053 . S
C68 O65 1.259 . S
C68 O69 1.254 . S
O69 Zn67 2.046 . S
O69 C68 1.254 . S
C70 O91 1.256 . S
C70 O92 1.244 . S
O71 Zn67 2.055 . S
O71 C93 1.259 . S
O72 Zn64 2.046 . S
O72 C93 1.254 . S
N73 Zn67 2.036 . S
N73 C74 1.298 . S
N73 N76 1.398 . S
C74 N73 1.298 . S
C74 N77 1.367 . S
C74 C87 1.481 1_565 S
C75 N76 1.299 . S
C75 N77 1.379 . S
N76 N73 1.398 . S
N76 C75 1.299 . S
N77 C74 1.367 . S
N77 C75 1.379 . S
C78 N80 1.298 . S
C78 N82 1.367 . S
C78 C86 1.481 . S
C79 N81 1.299 . S
C79 N82 1.379 1_545 S
N80 Zn64 2.036 . S
N80 C78 1.298 . S
N80 N81 1.398 1_565 S
N81 C79 1.299 . S
N81 N80 1.398 1_545 S
N82 C78 1.367 . S
N82 C79 1.379 1_565 S
H83 C86 0.980 . S
H84 C86 0.981 . S
H85 C86 0.981 . S
C86 C78 1.481 . S
C86 H83 0.980 . S
C86 H84 0.981 . S
C86 H85 0.981 . S
C87 C74 1.481 1_545 S
C87 H88 0.980 . S
C87 H89 0.981 . S
C87 H90 0.981 . S
H88 C87 0.980 . S
H89 C87 0.981 . S
H90 C87 0.981 . S
O91 Zn67 2.066 1_545 S
O91 C70 1.256 . S
O92 Zn64 2.053 1_545 S
O92 C70 1.244 . S
C93 O71 1.259 . S
C93 O72 1.254 . S
O94 Zn64 2.066 . S
O94 C66 1.256 . S
O95 C66 1.244 . S
O95 Zn67 2.053 . S
Zn96 O97 2.055 . S
Zn96 O104 2.046 . S
Zn96 N112 2.036 . S
Zn96 O124 2.053 . S
Zn96 O126 2.066 1_545 S
O97 Zn96 2.055 . S
O97 C100 1.259 . S
C98 O126 1.256 . S
C98 O127 1.244 . S
Zn99 O101 2.046 . S
Zn99 O103 2.055 . S
Zn99 N105 2.036 . S
Zn99 O123 2.066 . S
Zn99 O127 2.053 1_545 S
C100 O97 1.259 . S
C100 O101 1.254 . S
O101 Zn99 2.046 . S
O101 C100 1.254 . S
C102 O123 1.256 . S
C102 O124 1.244 . S
O103 Zn99 2.055 . S
O103 C125 1.259 . S
O104 Zn96 2.046 . S
O104 C125 1.254 . S
N105 Zn99 2.036 . S
N105 C106 1.298 . S
N105 N108 1.398 1_545 S
C106 N105 1.298 . S
C106 N109 1.367 . S
C106 C119 1.481 . S
C107 N108 1.299 . S
C107 N109 1.379 1_565 S
N108 N105 1.398 1_565 S
N108 C107 1.299 . S
N109 C106 1.367 . S
N109 C107 1.379 1_545 S
C110 N112 1.298 . S
C110 N114 1.367 . S
C110 C118 1.481 1_545 S
C111 N113 1.299 . S
C111 N114 1.379 . S
N112 Zn96 2.036 . S
N112 C110 1.298 . S
N112 N113 1.398 . S
N113 C111 1.299 . S
N113 N112 1.398 . S
N114 C110 1.367 . S
N114 C111 1.379 . S
H115 C118 0.980 . S
H116 C118 0.981 . S
H117 C118 0.981 . S
C118 C110 1.481 1_565 S
C118 H115 0.980 . S
C118 H116 0.981 . S
C118 H117 0.981 . S
C119 C106 1.481 . S
C119 H120 0.980 . S
C119 H121 0.981 . S
C119 H122 0.981 . S
H120 C119 0.980 . S
H121 C119 0.981 . S
H122 C119 0.981 . S
O123 Zn99 2.066 . S
O123 C102 1.256 . S
O124 Zn96 2.053 . S
O124 C102 1.244 . S
C125 O103 1.259 . S
C125 O104 1.254 . S
O126 Zn96 2.066 1_565 S
O126 C98 1.256 . S
O127 C98 1.244 . S
O127 Zn99 2.053 1_565 S
Zn128 O129 2.055 . S
Zn128 O136 2.046 . S
Zn128 N144 2.036 . S
Zn128 O156 2.053 1_565 S
Zn128 O158 2.066 . S
O129 Zn128 2.055 . S
O129 C132 1.259 . S
C130 O158 1.256 . S
C130 O159 1.244 . S
Zn131 O133 2.046 . S
Zn131 O135 2.055 . S
Zn131 N137 2.036 . S
Zn131 O155 2.066 1_565 S
Zn131 O159 2.053 . S
C132 O129 1.259 . S
C132 O133 1.254 . S
O133 Zn131 2.046 . S
O133 C132 1.254 . S
C134 O155 1.256 . S
C134 O156 1.244 . S
O135 Zn131 2.055 . S
O135 C157 1.259 . S
O136 Zn128 2.046 . S
O136 C157 1.254 . S
N137 Zn131 2.036 . S
N137 C138 1.298 . S
N137 N140 1.398 . S
C138 N137 1.298 . S
C138 N141 1.367 . S
C138 C151 1.481 1_565 S
C139 N140 1.299 . S
C139 N141 1.379 . S
N140 N137 1.398 . S
N140 C139 1.299 . S
N141 C138 1.367 . S
N141 C139 1.379 . S
C142 N144 1.298 . S
C142 N146 1.367 . S
C142 C150 1.481 . S
C143 N145 1.299 . S
C143 N146 1.379 1_545 S
N144 Zn128 2.036 . S
N144 C142 1.298 . S
N144 N145 1.398 1_565 S
N145 C143 1.299 . S
N145 N144 1.398 1_545 S
N146 C142 1.367 . S
N146 C143 1.379 1_565 S
H147 C150 0.980 . S
H148 C150 0.981 . S
H149 C150 0.981 . S
C150 C142 1.481 . S
C150 H147 0.980 . S
C150 H148 0.981 . S
C150 H149 0.981 . S
C151 C138 1.481 1_545 S
C151 H152 0.980 . S
C151 H153 0.981 . S
C151 H154 0.981 . S
H152 C151 0.980 . S
H153 C151 0.981 . S
H154 C151 0.981 . S
O155 Zn131 2.066 1_545 S
O155 C134 1.256 . S
O156 Zn128 2.053 1_545 S
O156 C134 1.244 . S
C157 O135 1.259 . S
C157 O136 1.254 . S
O158 Zn128 2.066 . S
O158 C130 1.256 . S
O159 C130 1.244 . S
O159 Zn131 2.053 . S
Zn160 O161 2.055 . S
Zn160 O168 2.046 . S
Zn160 N176 2.036 . S
Zn160 O188 2.053 . S
Zn160 O190 2.066 1_545 S
O161 Zn160 2.055 . S
O161 C164 1.259 . S
C162 O190 1.256 . S
C162 O191 1.244 . S
Zn163 O165 2.046 . S
Zn163 O167 2.055 . S
Zn163 N169 2.036 . S
Zn163 O187 2.066 . S
Zn163 O191 2.053 1_545 S
C164 O161 1.259 . S
C164 O165 1.254 . S
O165 Zn163 2.046 . S
O165 C164 1.254 . S
C166 O187 1.256 . S
C166 O188 1.244 . S
O167 Zn163 2.055 . S
O167 C189 1.259 . S
O168 Zn160 2.046 . S
O168 C189 1.254 . S
N169 Zn163 2.036 . S
N169 C170 1.298 . S
N169 N172 1.398 1_545 S
C170 N169 1.298 . S
C170 N173 1.367 . S
C170 C183 1.481 . S
C171 N172 1.299 . S
C171 N173 1.379 1_565 S
N172 N169 1.398 1_565 S
N172 C171 1.299 . S
N173 C170 1.367 . S
N173 C171 1.379 1_545 S
C174 N176 1.298 . S
C174 N178 1.367 . S
C174 C182 1.481 1_545 S
C175 N177 1.299 . S
C175 N178 1.379 . S
N176 Zn160 2.036 . S
N176 C174 1.298 . S
N176 N177 1.398 . S
N177 C175 1.299 . S
N177 N176 1.398 . S
N178 C174 1.367 . S
N178 C175 1.379 . S
H179 C182 0.980 . S
H180 C182 0.981 . S
H181 C182 0.981 . S
C182 C174 1.481 1_565 S
C182 H179 0.980 . S
C182 H180 0.981 . S
C182 H181 0.981 . S
C183 C170 1.481 . S
C183 H184 0.980 . S
C183 H185 0.981 . S
C183 H186 0.981 . S
H184 C183 0.980 . S
H185 C183 0.981 . S
H186 C183 0.981 . S
O187 Zn163 2.066 . S
O187 C166 1.256 . S
O188 Zn160 2.053 . S
O188 C166 1.244 . S
C189 O167 1.259 . S
C189 O168 1.254 . S
O190 Zn160 2.066 1_565 S
O190 C162 1.256 . S
O191 C162 1.244 . S
O191 Zn163 2.053 1_565 S
Zn192 O193 2.055 . S
Zn192 O200 2.046 . S
Zn192 N208 2.036 . S
Zn192 O220 2.053 . S
Zn192 O222 2.066 1_545 S
O193 Zn192 2.055 . S
O193 C196 1.259 . S
C194 O222 1.256 . S
C194 O223 1.244 . S
Zn195 O197 2.046 . S
Zn195 O199 2.055 . S
Zn195 N201 2.036 . S
Zn195 O219 2.066 . S
Zn195 O223 2.053 1_545 S
C196 O193 1.259 . S
C196 O197 1.254 . S
O197 Zn195 2.046 . S
O197 C196 1.254 . S
C198 O219 1.256 . S
C198 O220 1.244 . S
O199 Zn195 2.055 . S
O199 C221 1.259 . S
O200 Zn192 2.046 . S
O200 C221 1.254 . S
N201 Zn195 2.036 . S
N201 C202 1.298 . S
N201 N204 1.398 1_545 S
C202 N201 1.298 . S
C202 N205 1.367 . S
C202 C215 1.481 . S
C203 N204 1.299 . S
C203 N205 1.379 1_565 S
N204 N201 1.398 1_565 S
N204 C203 1.299 . S
N205 C202 1.367 . S
N205 C203 1.379 1_545 S
C206 N208 1.298 . S
C206 N210 1.367 . S
C206 C214 1.481 1_545 S
C207 N209 1.299 . S
C207 N210 1.379 . S
N208 Zn192 2.036 . S
N208 C206 1.298 . S
N208 N209 1.398 . S
N209 C207 1.299 . S
N209 N208 1.398 . S
N210 C206 1.367 . S
N210 C207 1.379 . S
H211 C214 0.980 . S
H212 C214 0.981 . S
H213 C214 0.981 . S
C214 C206 1.481 1_565 S
C214 H211 0.980 . S
C214 H212 0.981 . S
C214 H213 0.981 . S
C215 C202 1.481 . S
C215 H216 0.980 . S
C215 H217 0.981 . S
C215 H218 0.981 . S
H216 C215 0.980 . S
H217 C215 0.981 . S
H218 C215 0.981 . S
O219 Zn195 2.066 . S
O219 C198 1.256 . S
O220 Zn192 2.053 . S
O220 C198 1.244 . S
C221 O199 1.259 . S
C221 O200 1.254 . S
O222 Zn192 2.066 1_565 S
O222 C194 1.256 . S
O223 C194 1.244 . S
O223 Zn195 2.053 1_565 S
Zn224 O225 2.055 . S
Zn224 O232 2.046 . S
Zn224 N240 2.036 . S
Zn224 O252 2.053 . S
Zn224 O254 2.066 1_565 S
O225 Zn224 2.055 . S
O225 C228 1.259 . S
C226 O254 1.256 . S
C226 O255 1.244 . S
Zn227 O229 2.046 . S
Zn227 O231 2.055 . S
Zn227 N233 2.036 . S
Zn227 O251 2.066 . S
Zn227 O255 2.053 1_565 S
C228 O225 1.259 . S
C228 O229 1.254 . S
O229 Zn227 2.046 . S
O229 C228 1.254 . S
C230 O251 1.256 . S
C230 O252 1.244 . S
O231 Zn227 2.055 . S
O231 C253 1.259 . S
O232 Zn224 2.046 . S
O232 C253 1.254 . S
N233 Zn227 2.036 . S
N233 C234 1.298 . S
N233 N236 1.398 1_565 S
C234 N233 1.298 . S
C234 N237 1.367 . S
C234 C247 1.481 . S
C235 N236 1.299 . S
C235 N237 1.379 1_545 S
N236 N233 1.398 1_545 S
N236 C235 1.299 . S
N237 C234 1.367 . S
N237 C235 1.379 1_565 S
C238 N240 1.298 . S
C238 N242 1.367 . S
C238 C246 1.481 1_565 S
C239 N241 1.299 . S
C239 N242 1.379 . S
N240 Zn224 2.036 . S
N240 C238 1.298 . S
N240 N241 1.398 . S
N241 C239 1.299 . S
N241 N240 1.398 . S
N242 C238 1.367 . S
N242 C239 1.379 . S
H243 C246 0.980 . S
H244 C246 0.981 . S
H245 C246 0.981 . S
C246 C238 1.481 1_545 S
C246 H243 0.980 . S
C246 H244 0.981 . S
C246 H245 0.981 . S
C247 C234 1.481 . S
C247 H248 0.980 . S
C247 H249 0.981 . S
C247 H250 0.981 . S
H248 C247 0.980 . S
H249 C247 0.981 . S
H250 C247 0.981 . S
O251 Zn227 2.066 . S
O251 C230 1.256 . S
O252 Zn224 2.053 . S
O252 C230 1.244 . S
C253 O231 1.259 . S
C253 O232 1.254 . S
O254 Zn224 2.066 1_545 S
O254 C226 1.256 . S
O255 C226 1.244 . S
O255 Zn227 2.053 1_545 S
Zn256 O257 2.055 . S
Zn256 O264 2.046 . S
Zn256 N272 2.036 . S
Zn256 O284 2.053 . S
Zn256 O286 2.066 . S
O257 Zn256 2.055 . S
O257 C260 1.259 . S
C258 O286 1.256 . S
C258 O287 1.244 . S
Zn259 O261 2.046 . S
Zn259 O263 2.055 . S
Zn259 N265 2.036 . S
Zn259 O283 2.066 . S
Zn259 O287 2.053 . S
C260 O257 1.259 . S
C260 O261 1.254 . S
O261 Zn259 2.046 . S
O261 C260 1.254 . S
C262 O283 1.256 . S
C262 O284 1.244 . S
O263 Zn259 2.055 . S
O263 C285 1.259 1_565 S
O264 Zn256 2.046 . S
O264 C285 1.254 1_565 S
N265 Zn259 2.036 . S
N265 C266 1.298 . S
N265 N268 1.398 . S
C266 N265 1.298 . S
C266 N269 1.367 . S
C266 C279 1.481 . S
C267 N268 1.299 . S
C267 N269 1.379 . S
N268 N265 1.398 . S
N268 C267 1.299 . S
N269 C266 1.367 . S
N269 C267 1.379 . S
C270 N272 1.298 . S
C270 N274 1.367 . S
C270 C278 1.481 . S
C271 N273 1.299 . S
C271 N274 1.379 . S
N272 Zn256 2.036 . S
N272 C270 1.298 . S
N272 N273 1.398 . S
N273 C271 1.299 . S
N273 N272 1.398 . S
N274 C270 1.367 . S
N274 C271 1.379 . S
H275 C278 0.980 . S
H276 C278 0.981 . S
H277 C278 0.981 . S
C278 C270 1.481 . S
C278 H275 0.980 . S
C278 H276 0.981 . S
C278 H277 0.981 . S
C279 C266 1.481 . S
C279 H280 0.980 1_565 S
C279 H281 0.981 1_565 S
C279 H282 0.981 . S
H280 C279 0.980 1_545 S
H281 C279 0.981 1_545 S
H282 C279 0.981 . S
O283 Zn259 2.066 . S
O283 C262 1.256 . S
O284 Zn256 2.053 . S
O284 C262 1.244 . S
C285 O263 1.259 1_545 S
C285 O264 1.254 1_545 S
O286 Zn256 2.066 . S
O286 C258 1.256 . S
O287 C258 1.244 . S
O287 Zn259 2.053 . S
Zn288 O289 2.055 . S
Zn288 O296 2.046 . S
Zn288 N304 2.036 . S
Zn288 O316 2.053 . S
Zn288 O318 2.066 . S
O289 Zn288 2.055 . S
O289 C292 1.259 1_545 S
C290 O318 1.256 . S
C290 O319 1.244 . S
Zn291 O293 2.046 . S
Zn291 O295 2.055 . S
Zn291 N297 2.036 . S
Zn291 O315 2.066 . S
Zn291 O319 2.053 . S
C292 O289 1.259 1_565 S
C292 O293 1.254 1_565 S
O293 Zn291 2.046 . S
O293 C292 1.254 1_545 S
C294 O315 1.256 . S
C294 O316 1.244 . S
O295 Zn291 2.055 . S
O295 C317 1.259 . S
O296 Zn288 2.046 . S
O296 C317 1.254 . S
N297 Zn291 2.036 . S
N297 C298 1.298 . S
N297 N300 1.398 . S
C298 N297 1.298 . S
C298 N301 1.367 . S
C298 C311 1.481 . S
C299 N300 1.299 . S
C299 N301 1.379 . S
N300 N297 1.398 . S
N300 C299 1.299 . S
N301 C298 1.367 . S
N301 C299 1.379 . S
C302 N304 1.298 . S
C302 N306 1.367 . S
C302 C310 1.481 . S
C303 N305 1.299 . S
C303 N306 1.379 . S
N304 Zn288 2.036 . S
N304 C302 1.298 . S
N304 N305 1.398 . S
N305 C303 1.299 . S
N305 N304 1.398 . S
N306 C302 1.367 . S
N306 C303 1.379 . S
H307 C310 0.980 1_565 S
H308 C310 0.981 1_565 S
H309 C310 0.981 . S
C310 C302 1.481 . S
C310 H307 0.980 1_545 S
C310 H308 0.981 1_545 S
C310 H309 0.981 . S
C311 C298 1.481 . S
C311 H312 0.980 . S
C311 H313 0.981 . S
C311 H314 0.981 . S
H312 C311 0.980 . S
H313 C311 0.981 . S
H314 C311 0.981 . S
O315 Zn291 2.066 . S
O315 C294 1.256 . S
O316 Zn288 2.053 . S
O316 C294 1.244 . S
C317 O295 1.259 . S
C317 O296 1.254 . S
O318 Zn288 2.066 . S
O318 C290 1.256 . S
O319 C290 1.244 . S
O319 Zn291 2.053 . S
Zn320 O321 2.055 . S
Zn320 O328 2.046 . S
Zn320 N336 2.036 . S
Zn320 O348 2.053 . S
Zn320 O350 2.066 . S
O321 Zn320 2.055 . S
O321 C324 1.259 1_545 S
C322 O350 1.256 . S
C322 O351 1.244 . S
Zn323 O325 2.046 . S
Zn323 O327 2.055 . S
Zn323 N329 2.036 . S
Zn323 O347 2.066 . S
Zn323 O351 2.053 . S
C324 O321 1.259 1_565 S
C324 O325 1.254 1_565 S
O325 Zn323 2.046 . S
O325 C324 1.254 1_545 S
C326 O347 1.256 . S
C326 O348 1.244 . S
O327 Zn323 2.055 . S
O327 C349 1.259 . S
O328 Zn320 2.046 . S
O328 C349 1.254 . S
N329 Zn323 2.036 . S
N329 C330 1.298 . S
N329 N332 1.398 . S
C330 N329 1.298 . S
C330 N333 1.367 . S
C330 C343 1.481 . S
C331 N332 1.299 . S
C331 N333 1.379 . S
N332 N329 1.398 . S
N332 C331 1.299 . S
N333 C330 1.367 . S
N333 C331 1.379 . S
C334 N336 1.298 . S
C334 N338 1.367 . S
C334 C342 1.481 . S
C335 N337 1.299 . S
C335 N338 1.379 . S
N336 Zn320 2.036 . S
N336 C334 1.298 . S
N336 N337 1.398 . S
N337 C335 1.299 . S
N337 N336 1.398 . S
N338 C334 1.367 . S
N338 C335 1.379 . S
H339 C342 0.980 1_565 S
H340 C342 0.981 1_565 S
H341 C342 0.981 . S
C342 C334 1.481 . S
C342 H339 0.980 1_545 S
C342 H340 0.981 1_545 S
C342 H341 0.981 . S
C343 C330 1.481 . S
C343 H344 0.980 . S
C343 H345 0.981 . S
C343 H346 0.981 . S
H344 C343 0.980 . S
H345 C343 0.981 . S
H346 C343 0.981 . S
O347 Zn323 2.066 . S
O347 C326 1.256 . S
O348 Zn320 2.053 . S
O348 C326 1.244 . S
C349 O327 1.259 . S
C349 O328 1.254 . S
O350 Zn320 2.066 . S
O350 C322 1.256 . S
O351 C322 1.244 . S
O351 Zn323 2.053 . S
Zn352 O353 2.055 . S
Zn352 O360 2.046 . S
Zn352 N368 2.036 . S
Zn352 O380 2.053 . S
Zn352 O382 2.066 . S
O353 Zn352 2.055 . S
O353 C356 1.259 1_565 S
C354 O382 1.256 . S
C354 O383 1.244 . S
Zn355 O357 2.046 . S
Zn355 O359 2.055 . S
Zn355 N361 2.036 . S
Zn355 O379 2.066 . S
Zn355 O383 2.053 . S
C356 O353 1.259 1_545 S
C356 O357 1.254 1_545 S
O357 Zn355 2.046 . S
O357 C356 1.254 1_565 S
C358 O379 1.256 . S
C358 O380 1.244 . S
O359 Zn355 2.055 . S
O359 C381 1.259 . S
O360 Zn352 2.046 . S
O360 C381 1.254 . S
N361 Zn355 2.036 . S
N361 C362 1.298 . S
N361 N364 1.398 . S
C362 N361 1.298 . S
C362 N365 1.367 . S
C362 C375 1.481 . S
C363 N364 1.299 . S
C363 N365 1.379 . S
N364 N361 1.398 . S
N364 C363 1.299 . S
N365 C362 1.367 . S
N365 C363 1.379 . S
C366 N368 1.298 . S
C366 N370 1.367 . S
C366 C374 1.481 . S
C367 N369 1.299 . S
C367 N370 1.379 . S
N368 Zn352 2.036 . S
N368 C366 1.298 . S
N368 N369 1.398 . S
N369 C367 1.299 . S
N369 N368 1.398 . S
N370 C366 1.367 . S
N370 C367 1.379 . S
H371 C374 0.980 1_545 S
H372 C374 0.981 1_545 S
H373 C374 0.981 . S
C374 C366 1.481 . S
C374 H371 0.980 1_565 S
C374 H372 0.981 1_565 S
C374 H373 0.981 . S
C375 C362 1.481 . S
C375 H376 0.980 . S
C375 H377 0.981 . S
C375 H378 0.981 . S
H376 C375 0.980 . S
H377 C375 0.981 . S
H378 C375 0.981 . S
O379 Zn355 2.066 . S
O379 C358 1.256 . S
O380 Zn352 2.053 . S
O380 C358 1.244 . S
C381 O359 1.259 . S
C381 O360 1.254 . S
O382 Zn352 2.066 . S
O382 C354 1.256 . S
O383 C354 1.244 . S
O383 Zn355 2.053 . S
Zn384 O385 2.055 . S
Zn384 O392 2.046 . S
Zn384 N400 2.036 . S
Zn384 O412 2.053 . S
Zn384 O414 2.066 . S
O385 Zn384 2.055 . S
O385 C388 1.259 . S
C386 O414 1.256 . S
C386 O415 1.244 . S
Zn387 O389 2.046 . S
Zn387 O391 2.055 . S
Zn387 N393 2.036 . S
Zn387 O411 2.066 . S
Zn387 O415 2.053 . S
C388 O385 1.259 . S
C388 O389 1.254 . S
O389 Zn387 2.046 . S
O389 C388 1.254 . S
C390 O411 1.256 . S
C390 O412 1.244 . S
O391 Zn387 2.055 . S
O391 C413 1.259 1_545 S
O392 Zn384 2.046 . S
O392 C413 1.254 1_545 S
N393 Zn387 2.036 . S
N393 C394 1.298 . S
N393 N396 1.398 . S
C394 N393 1.298 . S
C394 N397 1.367 . S
C394 C407 1.481 . S
C395 N396 1.299 . S
C395 N397 1.379 . S
N396 N393 1.398 . S
N396 C395 1.299 . S
N397 C394 1.367 . S
N397 C395 1.379 . S
C398 N400 1.298 . S
C398 N402 1.367 . S
C398 C406 1.481 . S
C399 N401 1.299 . S
C399 N402 1.379 . S
N400 Zn384 2.036 . S
N400 C398 1.298 . S
N400 N401 1.398 . S
N401 C399 1.299 . S
N401 N400 1.398 . S
N402 C398 1.367 . S
N402 C399 1.379 . S
H403 C406 0.980 . S
H404 C406 0.981 . S
H405 C406 0.981 . S
C406 C398 1.481 . S
C406 H403 0.980 . S
C406 H404 0.981 . S
C406 H405 0.981 . S
C407 C394 1.481 . S
C407 H408 0.980 1_545 S
C407 H409 0.981 1_545 S
C407 H410 0.981 . S
H408 C407 0.980 1_565 S
H409 C407 0.981 1_565 S
H410 C407 0.981 . S
O411 Zn387 2.066 . S
O411 C390 1.256 . S
O412 Zn384 2.053 . S
O412 C390 1.244 . S
C413 O391 1.259 1_565 S
C413 O392 1.254 1_565 S
O414 Zn384 2.066 . S
O414 C386 1.256 . S
O415 C386 1.244 . S
O415 Zn387 2.053 . S
Zn416 O417 2.055 . S
Zn416 O424 2.046 . S
Zn416 N432 2.036 . S
Zn416 O444 2.053 . S
Zn416 O446 2.066 . S
O417 Zn416 2.055 . S
O417 C420 1.259 1_565 S
C418 O446 1.256 . S
C418 O447 1.244 . S
Zn419 O421 2.046 . S
Zn419 O423 2.055 . S
Zn419 N425 2.036 . S
Zn419 O443 2.066 . S
Zn419 O447 2.053 . S
C420 O417 1.259 1_545 S
C420 O421 1.254 1_545 S
O421 Zn419 2.046 . S
O421 C420 1.254 1_565 S
C422 O443 1.256 . S
C422 O444 1.244 . S
O423 Zn419 2.055 . S
O423 C445 1.259 . S
O424 Zn416 2.046 . S
O424 C445 1.254 . S
N425 Zn419 2.036 . S
N425 C426 1.298 . S
N425 N428 1.398 . S
C426 N425 1.298 . S
C426 N429 1.367 . S
C426 C439 1.481 . S
C427 N428 1.299 . S
C427 N429 1.379 . S
N428 N425 1.398 . S
N428 C427 1.299 . S
N429 C426 1.367 . S
N429 C427 1.379 . S
C430 N432 1.298 . S
C430 N434 1.367 . S
C430 C438 1.481 . S
C431 N433 1.299 . S
C431 N434 1.379 . S
N432 Zn416 2.036 . S
N432 C430 1.298 . S
N432 N433 1.398 . S
N433 C431 1.299 . S
N433 N432 1.398 . S
N434 C430 1.367 . S
N434 C431 1.379 . S
H435 C438 0.980 1_545 S
H436 C438 0.981 1_545 S
H437 C438 0.981 . S
C438 C430 1.481 . S
C438 H435 0.980 1_565 S
C438 H436 0.981 1_565 S
C438 H437 0.981 . S
C439 C426 1.481 . S
C439 H440 0.980 . S
C439 H441 0.981 . S
C439 H442 0.981 . S
H440 C439 0.980 . S
H441 C439 0.981 . S
H442 C439 0.981 . S
O443 Zn419 2.066 . S
O443 C422 1.256 . S
O444 Zn416 2.053 . S
O444 C422 1.244 . S
C445 O423 1.259 . S
C445 O424 1.254 . S
O446 Zn416 2.066 . S
O446 C418 1.256 . S
O447 C418 1.244 . S
O447 Zn419 2.053 . S
Zn448 O449 2.055 . S
Zn448 O456 2.046 . S
Zn448 N464 2.036 . S
Zn448 O476 2.053 . S
Zn448 O478 2.066 . S
O449 Zn448 2.055 . S
O449 C452 1.259 . S
C450 O478 1.256 . S
C450 O479 1.244 . S
Zn451 O453 2.046 . S
Zn451 O455 2.055 . S
Zn451 N457 2.036 . S
Zn451 O475 2.066 . S
Zn451 O479 2.053 . S
C452 O449 1.259 . S
C452 O453 1.254 . S
O453 Zn451 2.046 . S
O453 C452 1.254 . S
C454 O475 1.256 . S
C454 O476 1.244 . S
O455 Zn451 2.055 . S
O455 C477 1.259 1_565 S
O456 Zn448 2.046 . S
O456 C477 1.254 1_565 S
N457 Zn451 2.036 . S
N457 C458 1.298 . S
N457 N460 1.398 . S
C458 N457 1.298 . S
C458 N461 1.367 . S
C458 C471 1.481 . S
C459 N460 1.299 . S
C459 N461 1.379 . S
N460 N457 1.398 . S
N460 C459 1.299 . S
N461 C458 1.367 . S
N461 C459 1.379 . S
C462 N464 1.298 . S
C462 N466 1.367 . S
C462 C470 1.481 . S
C463 N465 1.299 . S
C463 N466 1.379 . S
N464 Zn448 2.036 . S
N464 C462 1.298 . S
N464 N465 1.398 . S
N465 C463 1.299 . S
N465 N464 1.398 . S
N466 C462 1.367 . S
N466 C463 1.379 . S
H467 C470 0.980 . S
H468 C470 0.981 . S
H469 C470 0.981 . S
C470 C462 1.481 . S
C470 H467 0.980 . S
C470 H468 0.981 . S
C470 H469 0.981 . S
C471 C458 1.481 . S
C471 H472 0.980 1_565 S
C471 H473 0.981 1_565 S
C471 H474 0.981 . S
H472 C471 0.980 1_545 S
H473 C471 0.981 1_545 S
H474 C471 0.981 . S
O475 Zn451 2.066 . S
O475 C454 1.256 . S
O476 Zn448 2.053 . S
O476 C454 1.244 . S
C477 O455 1.259 1_545 S
C477 O456 1.254 1_545 S
O478 Zn448 2.066 . S
O478 C450 1.256 . S
O479 C450 1.244 . S
O479 Zn451 2.053 . S
Zn480 O481 2.055 . S
Zn480 O488 2.046 . S
Zn480 N496 2.036 . S
Zn480 O508 2.053 . S
Zn480 O510 2.066 . S
O481 Zn480 2.055 . S
O481 C484 1.259 1_545 S
C482 O510 1.256 . S
C482 O511 1.244 . S
Zn483 O485 2.046 . S
Zn483 O487 2.055 . S
Zn483 N489 2.036 . S
Zn483 O507 2.066 . S
Zn483 O511 2.053 . S
C484 O481 1.259 1_565 S
C484 O485 1.254 1_565 S
O485 Zn483 2.046 . S
O485 C484 1.254 1_545 S
C486 O507 1.256 . S
C486 O508 1.244 . S
O487 Zn483 2.055 . S
O487 C509 1.259 . S
O488 Zn480 2.046 . S
O488 C509 1.254 . S
N489 Zn483 2.036 . S
N489 C490 1.298 . S
N489 N492 1.398 . S
C490 N489 1.298 . S
C490 N493 1.367 . S
C490 C503 1.481 . S
C491 N492 1.299 . S
C491 N493 1.379 . S
N492 N489 1.398 . S
N492 C491 1.299 . S
N493 C490 1.367 . S
N493 C491 1.379 . S
C494 N496 1.298 . S
C494 N498 1.367 . S
C494 C502 1.481 . S
C495 N497 1.299 . S
C495 N498 1.379 . S
N496 Zn480 2.036 . S
N496 C494 1.298 . S
N496 N497 1.398 . S
N497 C495 1.299 . S
N497 N496 1.398 . S
N498 C494 1.367 . S
N498 C495 1.379 . S
H499 C502 0.980 1_565 S
H500 C502 0.981 1_565 S
H501 C502 0.981 . S
C502 C494 1.481 . S
C502 H499 0.980 1_545 S
C502 H500 0.981 1_545 S
C502 H501 0.981 . S
C503 C490 1.481 . S
C503 H504 0.980 . S
C503 H505 0.981 . S
C503 H506 0.981 . S
H504 C503 0.980 . S
H505 C503 0.981 . S
H506 C503 0.981 . S
O507 Zn483 2.066 . S
O507 C486 1.256 . S
O508 Zn480 2.053 . S
O508 C486 1.244 . S
C509 O487 1.259 . S
C509 O488 1.254 . S
O510 Zn480 2.066 . S
O510 C482 1.256 . S
O511 C482 1.244 . S
O511 Zn483 2.053 . S
C6 C290 1.520 . S
C38 C262 1.520 . S
C354 C66 1.520 . S
C102 C322 1.520 . S
C418 C130 1.520 . S
C390 C166 1.520 . S
C482 C198 1.520 . S
C230 C454 1.520 . S
N77 N18 1.417 1_565 S
N114 N50 1.417 1_545 S
N210 N141 1.417 1_545 S
N178 N242 1.417 1_545 S
N333 N274 1.417 . S
N365 N301 1.417 . S
N402 N466 1.417 . S
N429 N493 1.417 . S
N173 N13 1.358 1_556 S
N146 N45 1.358 1_556 S
N82 N237 1.358 . S
N205 N109 1.358 . S
N269 N434 1.358 1_554 S
N397 N306 1.358 1_556 S
N338 N498 1.358 . S
N461 N370 1.358 . S
C36 C4 1.651 1_665 S
C100 C93 1.651 1_645 S
C164 C157 1.651 1_445 S
C196 C228 1.651 1_645 S
C317 C260 1.651 . S
C381 C349 1.651 . S
C388 C445 1.651 . S
C452 C509 1.651 . S
C2 C29 1.518 . S
C34 C61 1.518 . S
C70 C68 1.518 . S
C125 C98 1.518 . S
C134 C132 1.518 . S
C189 C162 1.518 . S
C194 C221 1.518 . S
C226 C253 1.518 . S
C285 C258 1.518 . S
C294 C292 1.518 . S
C324 C326 1.518 . S
C356 C358 1.518 . S
C386 C413 1.518 . S
C422 C420 1.518 . S
C477 C450 1.518 . S
C486 C484 1.518 . S
