# Generated by pormake.
# Topology wfa, (4)-cn, num edge types: 1
# Building blocks:
#     Node 0, Type 0, BuildingBlock: KOZSID_clean_sbu_0, # of connection points: 4
#     Node 1, Type 0, BuildingBlock: KOZSID_clean_sbu_0, # of connection points: 4
#     Node 2, Type 0, BuildingBlock: KOZSID_clean_sbu_0, # of connection points: 4
#     Node 3, Type 0, BuildingBlock: KOZSID_clean_sbu_0, # of connection points: 4
#     Node 4, Type 0, BuildingBlock: KOZSID_clean_sbu_0, # of connection points: 4
#     Node 5, Type 0, BuildingBlock: KOZSID_clean_sbu_0, # of connection points: 4
#     Node 6, Type 0, BuildingBlock: KOZSID_clean_sbu_0, # of connection points: 4
#     Node 7, Type 0, BuildingBlock: KOZSID_clean_sbu_0, # of connection points: 4
#     Node 8, Type 0, BuildingBlock: KOZSID_clean_sbu_0, # of connection points: 4
#     Node 9, Type 0, BuildingBlock: KOZSID_clean_sbu_0, # of connection points: 4
#     Node 10, Type 0, BuildingBlock: KOZSID_clean_sbu_0, # of connection points: 4
#     Node 11, Type 0, BuildingBlock: KOZSID_clean_sbu_0, # of connection points: 4
#     Node 12, Type 0, BuildingBlock: KOZSID_clean_sbu_0, # of connection points: 4
#     Node 13, Type 0, BuildingBlock: KOZSID_clean_sbu_0, # of connection points: 4
#     Node 14, Type 0, BuildingBlock: KOZSID_clean_sbu_0, # of connection points: 4
#     Node 15, Type 0, BuildingBlock: KOZSID_clean_sbu_0, # of connection points: 4
#     Edge 16, Type (0, 0), BuildingBlock: XUDNAN_clean_linker_2, # of connection points: 2
#     Edge 17, Type (0, 0), BuildingBlock: XUDNAN_clean_linker_2, # of connection points: 2
#     Edge 18, Type (0, 0), BuildingBlock: XUDNAN_clean_linker_2, # of connection points: 2
#     Edge 19, Type (0, 0), BuildingBlock: XUDNAN_clean_linker_2, # of connection points: 2
#     Edge 20, Type (0, 0), BuildingBlock: XUDNAN_clean_linker_2, # of connection points: 2
#     Edge 21, Type (0, 0), BuildingBlock: XUDNAN_clean_linker_2, # of connection points: 2
#     Edge 22, Type (0, 0), BuildingBlock: XUDNAN_clean_linker_2, # of connection points: 2
#     Edge 23, Type (0, 0), BuildingBlock: XUDNAN_clean_linker_2, # of connection points: 2
#     Edge 24, Type (0, 0), BuildingBlock: XUDNAN_clean_linker_2, # of connection points: 2
#     Edge 25, Type (0, 0), BuildingBlock: XUDNAN_clean_linker_2, # of connection points: 2
#     Edge 26, Type (0, 0), BuildingBlock: XUDNAN_clean_linker_2, # of connection points: 2
#     Edge 27, Type (0, 0), BuildingBlock: XUDNAN_clean_linker_2, # of connection points: 2
#     Edge 28, Type (0, 0), BuildingBlock: XUDNAN_clean_linker_2, # of connection points: 2
#     Edge 29, Type (0, 0), BuildingBlock: XUDNAN_clean_linker_2, # of connection points: 2
#     Edge 30, Type (0, 0), BuildingBlock: XUDNAN_clean_linker_2, # of connection points: 2
#     Edge 31, Type (0, 0), BuildingBlock: XUDNAN_clean_linker_2, # of connection points: 2
#     Edge 32, Type (0, 0), BuildingBlock: XUDNAN_clean_linker_2, # of connection points: 2
#     Edge 33, Type (0, 0), BuildingBlock: XUDNAN_clean_linker_2, # of connection points: 2
#     Edge 34, Type (0, 0), BuildingBlock: XUDNAN_clean_linker_2, # of connection points: 2
#     Edge 35, Type (0, 0), BuildingBlock: XUDNAN_clean_linker_2, # of connection points: 2
#     Edge 36, Type (0, 0), BuildingBlock: XUDNAN_clean_linker_2, # of connection points: 2
#     Edge 37, Type (0, 0), BuildingBlock: XUDNAN_clean_linker_2, # of connection points: 2
#     Edge 38, Type (0, 0), BuildingBlock: XUDNAN_clean_linker_2, # of connection points: 2
#     Edge 39, Type (0, 0), BuildingBlock: XUDNAN_clean_linker_2, # of connection points: 2
#     Edge 40, Type (0, 0), BuildingBlock: XUDNAN_clean_linker_2, # of connection points: 2
#     Edge 41, Type (0, 0), BuildingBlock: XUDNAN_clean_linker_2, # of connection points: 2
#     Edge 42, Type (0, 0), BuildingBlock: XUDNAN_clean_linker_2, # of connection points: 2
#     Edge 43, Type (0, 0), BuildingBlock: XUDNAN_clean_linker_2, # of connection points: 2
#     Edge 44, Type (0, 0), BuildingBlock: XUDNAN_clean_linker_2, # of connection points: 2
#     Edge 45, Type (0, 0), BuildingBlock: XUDNAN_clean_linker_2, # of connection points: 2
#     Edge 46, Type (0, 0), BuildingBlock: XUDNAN_clean_linker_2, # of connection points: 2
#     Edge 47, Type (0, 0), BuildingBlock: XUDNAN_clean_linker_2, # of connection points: 2
# Relax obj value: 0.124
# Max RMSD: 0.263
# Mean RMSD: 0.210
data_MOF--net-wfa--node1-KOZSID_clean_sbu_0--edge1-XUDNAN_clean_linker_2
_symmetry_space_group_name_H-M    P1
_symmetry_Int_Tables_number       1
_symmetry_cell_setting            triclinic
loop_
_symmetry_equiv_pos_as_xyz
'x, y, z'
_cell_length_a     59.549416
_cell_length_b     62.007179
_cell_length_c     25.015156
_cell_angle_alpha  88.398842
_cell_angle_beta   88.336361
_cell_angle_gamma 89.059918
loop_
_atom_site_label
_atom_site_type_symbol
_atom_site_fract_x
_atom_site_fract_y
_atom_site_fract_z
_atom_type_partial_charge
C0 C 0.5549 0.02781 0.97375 0.0
C1 C 0.54873 0.04571 0.94285 0.0
C2 C 0.56769 0.05804 0.93558 0.0
C3 C 0.58444 0.04702 0.9622 0.0
N4 N 0.57715 0.02848 0.9851 0.0
Co5 Co 0.59483 0.00882 0.03244 0.0
N6 N 0.61688 0.03132 0.04815 0.0
C7 C 0.62004 0.04947 0.01814 0.0
C8 C 0.63751 0.06147 0.03516 0.0
C9 C 0.64611 0.04996 0.07782 0.0
C10 C 0.63341 0.03146 0.08466 0.0
N11 N 0.61148 0.98889 0.0816 0.0
C12 C 0.6274 0.9929 0.11789 0.0
C13 C 0.63457 0.97381 0.14289 0.0
C14 C 0.62321 0.95741 0.1206 0.0
C15 C 0.60969 0.96726 0.08341 0.0
N16 N 0.57279 0.98648 0.01586 0.0
C17 C 0.57579 0.96506 0.02281 0.0
C18 C 0.55686 0.95375 0.01216 0.0
C19 C 0.54092 0.96902 0.99847 0.0
C20 C 0.55104 0.98894 1.00121 0.0
N21 N 0.61514 1.00048 0.97134 0.0
C22 C 0.64847 1.00161 0.88814 0.0
C23 C 0.62551 1.00365 0.87668 0.0
C24 C 0.60906 1.00277 0.91889 0.0
C25 C 0.65392 0.99664 0.94102 0.0
C26 C 0.63733 0.99629 0.98141 0.0
N27 N 0.57565 0.01794 0.0924 0.0
C28 C 0.55317 0.01055 0.17212 0.0
C29 C 0.54859 0.03265 0.17712 0.0
C30 C 0.55768 0.04711 0.13894 0.0
C31 C 0.5713 0.03949 0.09755 0.0
C32 C 0.56657 1.00347 0.12887 0.0
H33 H 0.57848 0.05121 0.0699 0.0
H34 H 0.5698 0.9864 0.12522 0.0
H35 H 0.59164 1.00534 0.90925 0.0
H36 H 0.64324 0.99433 0.02121 0.0
C37 C 0.60487 0.05563 0.97798 0.0
C38 C 0.53971 0.00994 0.99001 0.0
C39 C 0.63906 0.01357 0.12259 0.0
C40 C 0.59353 0.95709 0.05362 0.0
H41 H 0.5322 0.0496 0.92809 0.0
H42 H 0.56867 0.07387 0.91636 0.0
H43 H 0.64322 0.07684 0.01887 0.0
H44 H 0.66045 0.05441 0.10052 0.0
H45 H 0.64739 0.97186 0.17252 0.0
H46 H 0.62459 0.94035 0.13055 0.0
H47 H 0.55426 0.93661 0.01831 0.0
H48 H 0.52366 0.9658 0.98958 0.0
H49 H 0.62038 1.00718 0.83616 0.0
H50 H 0.6713 0.99437 0.95196 0.0
H51 H 0.54659 0.99894 0.20147 0.0
H52 H 0.55505 0.06436 0.14222 0.0
C53 C 0.55777 0.65152 0.0853 0.0
C54 C 0.57913 0.64417 0.09788 0.0
C55 C 0.59353 0.65332 0.06067 0.0
C56 C 0.58012 0.66566 0.02782 0.0
N57 N 0.55812 0.6654 0.0426 0.0
Co58 Co 0.53251 0.67953 0.00399 0.0
N59 N 0.55307 0.69029 0.94432 0.0
C60 C 0.57547 0.68656 0.93939 0.0
C61 C 0.58537 0.69677 0.8957 0.0
C62 C 0.56838 0.70801 0.87163 0.0
C63 C 0.54899 0.70401 0.90214 0.0
N64 N 0.50702 0.69402 0.96504 0.0
C65 C 0.50729 0.70762 0.92131 0.0
C66 C 0.48586 0.71508 0.90945 0.0
C67 C 0.4716 0.7063 0.94752 0.0
C68 C 0.48504 0.694 0.98036 0.0
N69 N 0.51192 0.66884 0.06324 0.0
C70 C 0.4895 0.67238 0.06813 0.0
C71 C 0.47967 0.66161 0.11108 0.0
C72 C 0.49675 0.65007 0.13417 0.0
C73 C 0.51609 0.65456 0.10388 0.0
N74 N 0.53702 0.7067 0.04408 0.0
C75 C 0.54362 0.73995 0.11818 0.0
C76 C 0.52205 0.73377 0.10477 0.0
C77 C 0.51917 0.71739 0.06795 0.0
C78 C 0.56177 0.73024 0.0904 0.0
C79 C 0.55812 0.71402 0.0535 0.0
N80 N 0.52783 0.6515 0.96703 0.0
C81 C 0.50323 0.62079 0.96154 0.0
C82 C 0.52146 0.60635 0.95596 0.0
C83 C 0.5428 0.61547 0.9487 0.0
C84 C 0.54557 0.63795 0.95397 0.0
C85 C 0.50672 0.64304 0.96573 0.0
H86 H 0.56236 0.64384 0.95077 0.0
H87 H 0.49207 0.65291 0.97162 0.0
H88 H 0.50228 0.71323 0.06081 0.0
H89 H 0.57267 0.70723 0.03402 0.0
C90 C 0.58712 0.67535 0.97931 0.0
C91 C 0.53751 0.64328 0.11154 0.0
C92 C 0.52739 0.71453 0.89081 0.0
C93 C 0.47789 0.68387 0.02844 0.0
H94 H 0.58361 0.63263 0.12919 0.0
H95 H 0.61144 0.65035 0.05626 0.0
H96 H 0.60301 0.69679 0.88404 0.0
H97 H 0.57021 0.71854 0.83657 0.0
H98 H 0.48114 0.72618 0.8774 0.0
H99 H 0.45368 0.70922 0.95195 0.0
H100 H 0.46201 0.66125 0.12253 0.0
H101 H 0.49494 0.63892 0.16799 0.0
H102 H 0.50734 0.74079 0.12441 0.0
H103 H 0.57884 0.73487 0.09765 0.0
H104 H 0.48626 0.61481 0.96534 0.0
H105 H 0.5575 0.60518 0.94313 0.0
C106 C 0.96728 0.50326 0.93421 0.0
C107 C 0.97457 0.4871 0.90017 0.0
C108 C 0.95584 0.47571 0.88742 0.0
C109 C 0.93797 0.48536 0.91391 0.0
N110 N 0.94447 0.50228 0.94171 0.0
Co111 Co 0.9247 0.51901 0.9912 0.0
N112 N 0.90304 0.49542 1.00221 0.0
C113 C 0.90115 0.47884 0.9692 0.0
C114 C 0.88409 0.46524 0.98529 0.0
C115 C 0.8746 0.47407 0.03075 0.0
C116 C 0.88643 0.49262 0.04018 0.0
N117 N 0.90547 0.53652 0.04007 0.0
C118 C 0.88895 0.53047 0.07574 0.0
C119 C 0.88053 0.5483 0.10273 0.0
C120 C 0.89155 0.566 0.08162 0.0
C121 C 0.90631 0.55813 0.04354 0.0
N122 N 0.94672 0.54221 0.98043 0.0
C123 C 0.9428 0.5633 0.98768 0.0
C124 C 0.96174 0.57539 0.97806 0.0
C125 C 0.97856 0.56084 0.96471 0.0
C126 C 0.96898 0.5406 0.96752 0.0
N127 N 0.90664 0.52985 0.93009 0.0
C128 C 0.87809 0.53494 0.84115 0.0
C129 C 0.8694 0.53275 0.89363 0.0
C130 C 0.8837 0.53047 0.93679 0.0
C131 C 0.90175 0.53592 0.8349 0.0
C132 C 0.91567 0.5334 0.87971 0.0
N133 N 0.94143 0.50704 0.05189 0.0
C134 C 0.94857 0.50585 0.14647 0.0
C135 C 0.95383 0.48378 0.14362 0.0
C136 C 0.95579 0.47461 0.09353 0.0
C137 C 0.94857 0.48602 0.04914 0.0
C138 C 0.94297 0.51744 0.0993 0.0
H139 H 0.94699 0.4768 0.01395 0.0
H140 H 0.93828 0.53426 0.10205 0.0
H141 H 0.87581 0.52772 0.97546 0.0
H142 H 0.9337 0.53336 0.87333 0.0
C143 C 0.91734 0.47545 0.92771 0.0
C144 C 0.98133 0.52006 0.95822 0.0
C145 C 0.87978 0.50847 0.08132 0.0
C146 C 0.92344 0.56986 0.01662 0.0
H147 H 0.99138 0.48329 0.88624 0.0
H148 H 0.95567 0.46098 0.8652 0.0
H149 H 0.87929 0.45051 0.96675 0.0
H150 H 0.86025 0.46788 0.05346 0.0
H151 H 0.86774 0.5487 0.13423 0.0
H152 H 0.88957 0.58253 0.09403 0.0
H153 H 0.96359 0.59249 0.98402 0.0
H154 H 0.99599 0.56453 0.95581 0.0
H155 H 0.85153 0.53151 0.90185 0.0
H156 H 0.90961 0.53813 0.79563 0.0
H157 H 0.94735 0.51364 0.18467 0.0
H158 H 0.96042 0.45773 0.08941 0.0
C159 C 0.96728 0.87431 0.11161 0.0
C160 C 0.94626 0.87979 0.13312 0.0
C161 C 0.93079 0.87197 0.09977 0.0
C162 C 0.94318 0.86226 0.05992 0.0
N163 N 0.96562 0.86308 0.06623 0.0
Co164 Co 0.98967 0.85237 0.01528 0.0
N165 N 0.967 0.84166 0.9648 0.0
C166 C 0.94448 0.84432 0.96907 0.0
C167 C 0.93308 0.83381 0.93092 0.0
C168 C 0.94925 0.82333 0.90125 0.0
C169 C 0.96967 0.82804 0.9231 0.0
N170 N 0.01356 0.84125 0.96383 0.0
C171 C 0.01187 0.82773 0.92215 0.0
C172 C 0.03278 0.82256 0.89976 0.0
C173 C 0.04829 0.83259 0.92913 0.0
C174 C 0.03604 0.84331 0.96764 0.0
N175 N 0.01255 0.86264 0.06523 0.0
C176 C 0.03513 0.86116 0.05867 0.0
C177 C 0.04657 0.87032 0.09881 0.0
C178 C 0.03031 0.87846 0.13252 0.0
C179 C 0.0098 0.87389 0.11069 0.0
N180 N 0.98959 0.82372 0.05423 0.0
C181 C 0.99135 0.78869 0.12984 0.0
C182 C 0.01063 0.7958 0.10154 0.0
C183 C 0.00942 0.81317 0.06477 0.0
C184 C 0.97077 0.79811 0.11511 0.0
C185 C 0.97025 0.81525 0.07686 0.0
N186 N 0.98999 0.88213 0.97975 0.0
C187 C 0.01206 0.91471 0.96849 0.0
C188 C 0.99317 0.9281 0.97714 0.0
C189 C 0.97225 0.91798 0.97909 0.0
C190 C 0.97104 0.89516 0.97931 0.0
C191 C 0.01006 0.89212 0.96877 0.0
H192 H 0.95464 0.8884 0.98243 0.0
H193 H 0.02528 0.88309 0.9635 0.0
H194 H 0.02496 0.81827 0.04686 0.0
H195 H 0.95411 0.82196 0.06759 0.0
C196 C 0.93444 0.85371 0.01401 0.0
C197 C 0.98828 0.88157 0.13302 0.0
C198 C 0.99101 0.81834 0.90454 0.0
C199 C 0.04506 0.8524 0.01267 0.0
H200 H 0.94246 0.88916 0.16817 0.0
H201 H 0.91271 0.87387 0.10306 0.0
H202 H 0.91507 0.83278 0.92721 0.0
H203 H 0.9463 0.81272 0.86864 0.0
H204 H 0.03647 0.81186 0.86709 0.0
H205 H 0.06639 0.83109 0.92506 0.0
H206 H 0.06458 0.87152 0.1023 0.0
H207 H 0.03322 0.88728 0.16834 0.0
H208 H 0.02692 0.78848 0.10886 0.0
H209 H 0.95519 0.79304 0.13458 0.0
H210 H 0.02864 0.92158 0.96396 0.0
H211 H 0.95693 0.92746 0.98393 0.0
C212 C 0.05575 1.00237 0.54227 0.0
C213 C 0.04961 0.98607 0.57848 0.0
C214 C 0.06897 0.97441 0.58941 0.0
C215 C 0.08592 0.98421 0.55946 0.0
N216 N 0.07833 1.00145 0.53132 0.0
Co217 Co 0.09561 0.01812 0.47581 0.0
N218 N 0.11857 0.99498 0.46653 0.0
C219 C 0.12256 0.97909 0.50309 0.0
C220 C 0.14065 0.96627 0.48874 0.0
C221 C 0.14866 0.97485 0.44075 0.0
C222 C 0.13493 0.99247 0.4281 0.0
N223 N 0.11134 0.03481 0.41744 0.0
C224 C 0.12708 0.02841 0.3805 0.0
C225 C 0.1329 0.04555 0.3461 0.0
C226 C 0.12117 0.06332 0.36367 0.0
C227 C 0.10859 0.05611 0.40716 0.0
N228 N 0.07287 0.04138 0.48688 0.0
C229 C 0.07522 0.06228 0.47226 0.0
C230 C 0.05571 0.07406 0.48007 0.0
C231 C 0.0401 0.05959 0.49957 0.0
C232 C 0.05098 0.03965 0.50321 0.0
N233 N 0.11577 0.03008 0.53032 0.0
C234 C 0.1507 0.03221 0.60532 0.0
C235 C 0.15453 0.03688 0.55081 0.0
C236 C 0.13728 0.03549 0.51456 0.0
C237 C 0.1282 0.02916 0.62245 0.0
C238 C 0.11095 0.02854 0.58441 0.0
N239 N 0.0767 1.00519 0.42307 0.0
C240 C 0.04686 1.00756 0.35994 0.0
C241 C 0.0436 0.98526 0.36601 0.0
C242 C 0.05831 0.9731 0.39751 0.0
C243 C 0.07466 0.98326 0.42531 0.0
C244 C 0.06368 0.01727 0.3889 0.0
H245 H 0.08474 0.97327 0.45116 0.0
H246 H 0.0655 0.03454 0.38557 0.0
H247 H 0.14242 0.03715 0.47337 0.0
H248 H 0.09404 0.0254 0.5989 0.0
C249 C 0.10708 0.97504 0.54595 0.0
C250 C 0.04022 0.01911 0.52004 0.0
C251 C 0.13903 1.00737 0.38183 0.0
C252 C 0.09243 0.06819 0.43569 0.0
H253 H 0.03287 0.98271 0.59421 0.0
H254 H 0.07016 0.95961 0.6132 0.0
H255 H 0.14701 0.95211 0.50998 0.0
H256 H 0.16317 0.96901 0.41812 0.0
H257 H 0.14483 0.04548 0.31269 0.0
H258 H 0.12154 0.07949 0.34626 0.0
H259 H 0.05248 0.09064 0.46749 0.0
H260 H 0.02253 0.06327 0.50719 0.0
H261 H 0.1713 0.04032 0.53525 0.0
H262 H 0.12409 0.02603 0.66435 0.0
H263 H 0.03605 0.01742 0.33481 0.0
H264 H 0.05688 0.95573 0.40176 0.0
C265 C 0.4832 0.15398 0.43156 0.0
C266 C 0.46256 0.14627 0.41725 0.0
C267 C 0.44689 0.15485 0.45195 0.0
C268 C 0.45885 0.16713 0.48552 0.0
N269 N 0.48111 0.16742 0.47337 0.0
Co270 Co 0.50505 0.18025 0.51671 0.0
N271 N 0.48252 0.1913 0.57137 0.0
C272 C 0.46003 0.18862 0.57143 0.0
C273 C 0.44855 0.20027 0.6095 0.0
C274 C 0.46455 0.21163 0.6342 0.0
C275 C 0.48502 0.20614 0.61 0.0
N276 N 0.52896 0.19258 0.56108 0.0
C277 C 0.52717 0.20633 0.60245 0.0
C278 C 0.54807 0.21146 0.62104 0.0
C279 C 0.56364 0.2013 0.58897 0.0
C280 C 0.55141 0.19044 0.55296 0.0
N281 N 0.52765 0.17053 0.46159 0.0
C282 C 0.55003 0.17375 0.46094 0.0
C283 C 0.56114 0.16535 0.41726 0.0
C284 C 0.54487 0.15578 0.38913 0.0
C285 C 0.5248 0.15877 0.41775 0.0
N286 N 0.50214 0.20829 0.47571 0.0
C287 C 0.49785 0.2446 0.40443 0.0
C288 C 0.51891 0.23755 0.42232 0.0
C289 C 0.52064 0.21966 0.45802 0.0
C290 C 0.479 0.23355 0.42497 0.0
C291 C 0.48148 0.21581 0.46032 0.0
N292 N 0.50776 0.15118 0.55496 0.0
C293 C 0.52733 0.11627 0.55883 0.0
C294 C 0.50749 0.10535 0.57296 0.0
C295 C 0.48842 0.11829 0.58378 0.0
C296 C 0.489 0.14087 0.57534 0.0
C297 C 0.52718 0.13894 0.55084 0.0
H298 H 0.47369 0.14953 0.58315 0.0
H299 H 0.5428 0.14608 0.53878 0.0
H300 H 0.53715 0.21508 0.47026 0.0
H301 H 0.4664 0.2081 0.47383 0.0
C302 C 0.45006 0.17719 0.53112 0.0
C303 C 0.50459 0.14681 0.40769 0.0
C304 C 0.50625 0.21641 0.62231 0.0
C305 C 0.56026 0.18218 0.50523 0.0
H306 H 0.45922 0.13502 0.3863 0.0
H307 H 0.42906 0.15169 0.45401 0.0
H308 H 0.43054 0.20138 0.61632 0.0
H309 H 0.46133 0.22328 0.66495 0.0
H310 H 0.55165 0.22236 0.65265 0.0
H311 H 0.58169 0.20301 0.58929 0.0
H312 H 0.57906 0.16506 0.40863 0.0
H313 H 0.54762 0.1463 0.35376 0.0
H314 H 0.53404 0.24579 0.40898 0.0
H315 H 0.46226 0.23813 0.41271 0.0
H316 H 0.54289 0.10731 0.5523 0.0
H317 H 0.47268 0.111 0.59641 0.0
C318 C 0.46605 0.52506 0.49943 0.0
C319 C 0.47197 0.54362 0.52475 0.0
C320 C 0.45238 0.55541 0.53299 0.0
C321 C 0.43555 0.54347 0.51224 0.0
N322 N 0.44341 0.5249 0.49205 0.0
Co323 Co 0.4257 0.50424 0.45166 0.0
N324 N 0.40168 0.52584 0.4357 0.0
C325 C 0.39798 0.54405 0.46303 0.0
C326 C 0.3795 0.55551 0.44578 0.0
C327 C 0.37089 0.54358 0.40586 0.0
C328 C 0.38462 0.5254 0.40075 0.0
N329 N 0.409 0.48337 0.40974 0.0
C330 C 0.39195 0.48658 0.37519 0.0
C331 C 0.38508 0.46705 0.35582 0.0
C332 C 0.39796 0.45119 0.37978 0.0
C333 C 0.41202 0.4618 0.41234 0.0
N334 N 0.44966 0.48278 0.46887 0.0
C335 C 0.44788 0.46124 0.46713 0.0
C336 C 0.46785 0.45067 0.47754 0.0
C337 C 0.48311 0.4666 0.48556 0.0
C338 C 0.4716 0.48605 0.47947 0.0
N339 N 0.40796 0.49583 0.51722 0.0
C340 C 0.3792 0.49244 0.6095 0.0
C341 C 0.37098 0.49058 0.558 0.0
C342 C 0.3854 0.49235 0.51308 0.0
C343 C 0.40263 0.4947 0.61373 0.0
C344 C 0.41668 0.49625 0.56724 0.0
N345 N 0.44255 0.51332 0.38711 0.0
C346 C 0.47048 0.50649 0.31777 0.0
C347 C 0.47371 0.52875 0.3106 0.0
C348 C 0.45918 0.54289 0.33776 0.0
C349 C 0.44398 0.53492 0.37588 0.0
C350 C 0.45466 0.49906 0.35648 0.0
H351 H 0.43443 0.54651 0.39855 0.0
H352 H 0.45314 0.4819 0.36375 0.0
H353 H 0.37776 0.49188 0.47483 0.0
H354 H 0.43446 0.49863 0.57173 0.0
C355 C 0.41398 0.55116 0.49888 0.0
C356 C 0.48182 0.50738 0.48413 0.0
C357 C 0.37967 0.50721 0.36614 0.0
C358 C 0.42973 0.4524 0.44126 0.0
H359 H 0.48865 0.54832 0.53526 0.0
H360 H 0.45091 0.57146 0.54879 0.0
H361 H 0.37328 0.57092 0.45969 0.0
H362 H 0.35599 0.54761 0.38368 0.0
H363 H 0.37166 0.46446 0.32857 0.0
H364 H 0.39729 0.434 0.37368 0.0
H365 H 0.47141 0.43354 0.4752 0.0
H366 H 0.50077 0.46426 0.49339 0.0
H367 H 0.3533 0.48807 0.55193 0.0
H368 H 0.41003 0.49607 0.65246 0.0
H369 H 0.48102 0.495 0.29644 0.0
H370 H 0.46023 0.56021 0.33151 0.0
C371 C 0.01095 0.37398 0.44727 0.0
C372 C 0.03057 0.37965 0.41938 0.0
C373 C 0.048 0.37238 0.44967 0.0
C374 C 0.03807 0.36262 0.49396 0.0
N375 N 0.01538 0.36297 0.49343 0.0
Co376 Co 0.99437 0.35123 0.55063 0.0
N377 N 0.01988 0.34023 0.59531 0.0
C378 C 0.04203 0.34297 0.58461 0.0
C379 C 0.05562 0.33213 0.62005 0.0
C380 C 0.04131 0.32139 0.65478 0.0
C381 C 0.01973 0.32632 0.63854 0.0
N382 N 0.97348 0.33934 0.60845 0.0
C383 C 0.97769 0.32566 0.65057 0.0
C384 C 0.95817 0.32038 0.67928 0.0
C385 C 0.94092 0.33053 0.65366 0.0
C386 C 0.95085 0.34141 0.61105 0.0
N387 N 0.96857 0.36161 0.50675 0.0
C388 C 0.94644 0.36021 0.52018 0.0
C389 C 0.93264 0.37067 0.48489 0.0
C390 C 0.94675 0.37938 0.4467 0.0
C391 C 0.96852 0.3734 0.46048 0.0
N392 N 0.99419 0.32303 0.51342 0.0
C393 C 0.9925 0.28863 0.44048 0.0
C394 C 0.97319 0.296 0.46851 0.0
C395 C 0.97439 0.31296 0.50443 0.0
C396 C 0.01297 0.2977 0.45367 0.0
C397 C 0.01345 0.31456 0.49021 0.0
N398 N 0.99458 0.38064 0.58411 0.0
C399 C 0.97393 0.41477 0.59037 0.0
C400 C 0.99362 0.42676 0.58394 0.0
C401 C 0.01397 0.41509 0.58497 0.0
C402 C 0.01406 0.39223 0.58566 0.0
C403 C 0.97485 0.39202 0.59227 0.0
H404 H 0.03013 0.38434 0.58435 0.0
H405 H 0.9592 0.384 0.5972 0.0
H406 H 0.95897 0.31824 0.52319 0.0
H407 H 0.02952 0.3211 0.49758 0.0
C408 C 0.04949 0.35331 0.53712 0.0
C409 C 0.98855 0.37976 0.42908 0.0
C410 C 0.99966 0.31648 0.66357 0.0
C411 C 0.93922 0.35091 0.56886 0.0
H412 H 0.03212 0.3884 0.38144 0.0
H413 H 0.06577 0.37422 0.44076 0.0
H414 H 0.07379 0.33117 0.61896 0.0
H415 H 0.04621 0.31051 0.68712 0.0
H416 H 0.95648 0.30966 0.714 0.0
H417 H 0.92314 0.3291 0.66315 0.0
H418 H 0.91455 0.37255 0.48783 0.0
H419 H 0.94146 0.38956 0.41344 0.0
H420 H 0.95696 0.28908 0.46193 0.0
H421 H 0.02853 0.29259 0.43409 0.0
H422 H 0.95771 0.42292 0.59222 0.0
H423 H 0.02978 0.42348 0.58188 0.0
C424 C 0.35809 0.03713 0.0122 0.0
C425 C 0.36662 0.05613 0.03064 0.0
C426 C 0.3493 0.07112 0.02993 0.0
C427 C 0.33111 0.06065 0.01084 0.0
N428 N 0.33597 0.03994 1.0003 0.0
Co429 Co 0.31595 0.01996 0.96416 0.0
N430 N 0.29728 0.04374 0.93321 0.0
C431 C 0.29677 0.06413 0.9503 0.0
C432 C 0.28224 0.07722 0.92206 0.0
C433 C 0.27281 0.06416 0.88554 0.0
C434 C 0.28201 0.04366 0.89366 0.0
N435 N 0.29638 0.99946 0.92867 0.0
C436 C 0.28101 1.00287 0.89011 0.0
C437 C 0.26996 0.98389 0.8803 0.0
C438 C 0.27865 0.96824 0.91406 0.0
C439 C 0.29443 0.97843 0.94284 0.0
N440 N 0.33498 0.99649 0.99454 0.0
C441 C 0.32906 0.97579 1.00191 0.0
C442 C 0.34648 0.96305 0.02043 0.0
C443 C 0.3644 0.97663 0.02431 0.0
C444 C 0.35695 0.99695 0.00772 0.0
N445 N 0.29526 0.01849 0.02765 0.0
C446 C 0.2641 0.01152 0.11348 0.0
C447 C 0.28732 0.01171 0.12225 0.0
C448 C 0.30267 0.01517 0.07866 0.0
C449 C 0.25696 0.01588 0.06157 0.0
C450 C 0.27258 0.01944 0.0198 0.0
N451 N 0.33603 0.02127 0.90119 0.0
C452 C 0.3604 1.00216 0.84035 0.0
C453 C 0.37229 0.02107 0.82821 0.0
C454 C 0.36445 0.04045 0.84972 0.0
C455 C 0.34588 0.04027 0.88522 0.0
C456 C 0.34244 1.00258 0.87713 0.0
H457 H 0.34046 0.05528 0.90244 0.0
H458 H 0.33478 0.98749 0.88886 0.0
H459 H 0.32048 0.01456 0.08586 0.0
H460 H 0.26605 0.02219 0.98061 0.0
C461 C 0.31234 0.07081 0.98757 0.0
C462 C 0.37085 0.01651 0.00606 0.0
C463 C 0.27458 0.02415 0.86674 0.0
C464 C 0.30958 0.96842 0.97828 0.0
H465 H 0.38363 0.05925 0.04165 0.0
H466 H 0.35049 0.08814 0.03775 0.0
H467 H 0.27925 0.09436 0.92647 0.0
H468 H 0.26041 0.06917 0.85682 0.0
H469 H 0.25657 0.98169 0.85273 0.0
H470 H 0.27419 0.95138 0.91671 0.0
H471 H 0.34667 0.9457 0.02668 0.0
H472 H 0.38112 0.9721 0.03674 0.0
H473 H 0.29359 1.00839 0.16189 0.0
H474 H 0.23922 0.01606 0.05293 0.0
H475 H 0.36603 0.98678 0.82493 0.0
H476 H 0.37309 0.05541 0.84078 0.0
C477 C 0.4898 0.43453 0.97172 0.0
C478 C 0.46927 0.44516 0.97915 0.0
C479 C 0.45303 0.43114 0.96593 0.0
C480 C 0.46437 0.4128 0.95075 0.0
N481 N 0.48687 0.41403 0.95497 0.0
Co482 Co 0.50951 0.39153 0.93163 0.0
N483 N 0.48629 0.37401 0.89662 0.0
C484 C 0.46421 0.37903 0.89393 0.0
C485 C 0.45234 0.36489 0.86494 0.0
C486 C 0.46785 0.35004 0.84736 0.0
C487 C 0.48836 0.35592 0.867 0.0
N488 N 0.53195 0.36841 0.91141 0.0
C489 C 0.52972 0.35031 0.88244 0.0
C490 C 0.5498 0.33873 0.87867 0.0
C491 C 0.56528 0.35002 0.90538 0.0
C492 C 0.55383 0.36776 0.92422 0.0
N493 N 0.53297 0.41012 0.96244 0.0
C494 C 0.55516 0.4054 0.96425 0.0
C495 C 0.56786 0.42233 0.97943 0.0
C496 C 0.55298 0.43913 0.98603 0.0
C497 C 0.53197 0.43149 0.97442 0.0
N498 N 0.50437 0.37538 1.00161 0.0
C499 C 0.49815 0.3498 0.0971 0.0
C500 C 0.51915 0.3581 0.08211 0.0
C501 C 0.5218 0.37089 0.03519 0.0
C502 C 0.48021 0.35494 0.06378 0.0
C503 C 0.48364 0.36754 0.01676 0.0
N504 N 0.51518 0.40768 0.86308 0.0
C505 C 0.54526 0.42267 0.80861 0.0
C506 C 0.53385 0.44253 0.80566 0.0
C507 C 0.51121 0.44318 0.82209 0.0
C508 C 0.50194 0.42514 0.849 0.0
C509 C 0.53557 0.40542 0.8369 0.0
H510 H 0.48463 0.42633 0.86203 0.0
H511 H 0.54572 0.3911 0.84041 0.0
H512 H 0.53821 0.37688 0.02704 0.0
H513 H 0.46925 0.37055 0.99318 0.0
C514 C 0.45512 0.39676 0.92057 0.0
C515 C 0.51163 0.44528 0.97421 0.0
C516 C 0.50933 0.34397 0.85579 0.0
C517 C 0.56367 0.38555 0.94684 0.0
H518 H 0.46621 0.4618 0.98917 0.0
H519 H 0.43525 0.43468 0.96277 0.0
H520 H 0.43453 0.36534 0.85741 0.0
H521 H 0.46447 0.33645 0.82277 0.0
H522 H 0.55302 0.32395 0.8575 0.0
H523 H 0.58301 0.34624 0.90859 0.0
H524 H 0.58592 0.42271 0.98283 0.0
H525 H 0.55719 0.45535 0.9966 0.0
H526 H 0.53352 0.35504 0.10696 0.0
H527 H 0.46355 0.34894 0.07336 0.0
H528 H 0.56225 0.42086 0.79245 0.0
H529 H 0.50123 0.45785 0.81781 0.0
C530 C 0.15942 0.48932 0.00873 0.0
C531 C 0.14844 0.47093 0.0273 0.0
C532 C 0.16398 0.4543 0.02531 0.0
C533 C 0.18362 0.46339 0.00596 0.0
N534 N 0.18139 0.48475 0.99654 0.0
Co535 Co 0.20492 0.50381 0.96434 0.0
N536 N 0.22168 0.47936 0.93158 0.0
C537 C 0.2189 0.45842 0.94554 0.0
C538 C 0.23274 0.44488 0.91663 0.0
C539 C 0.24527 0.45814 0.88306 0.0
C540 C 0.23854 0.47919 0.89363 0.0
N541 N 0.22848 0.52314 0.93344 0.0
C542 C 0.24529 0.51942 0.8967 0.0
C543 C 0.25876 0.53743 0.89 0.0
C544 C 0.25021 0.5527 0.92404 0.0
C545 C 0.23207 0.54327 0.94984 0.0
N546 N 0.18715 0.52794 0.99582 0.0
C547 C 0.19482 0.54781 0.00378 0.0
C548 C 0.1779 0.56196 0.01857 0.0
C549 C 0.15845 0.55025 0.01953 0.0
C550 C 0.16448 0.52935 0.00595 0.0
N551 N 0.2232 0.5005 0.02944 0.0
C552 C 0.25193 0.50117 0.11835 0.0
C553 C 0.22855 0.50509 0.12418 0.0
C554 C 0.21453 0.50453 0.07954 0.0
C555 C 0.26013 0.4961 0.06706 0.0
C556 C 0.24576 0.49601 0.02379 0.0
N557 N 0.18733 0.50769 0.89991 0.0
C558 C 0.1677 0.53348 0.84468 0.0
C559 C 0.15122 0.51831 0.83562 0.0
C560 C 0.15516 0.49681 0.85208 0.0
C561 C 0.17375 0.49174 0.88342 0.0
C562 C 0.18546 0.52793 0.87729 0.0
H563 H 0.1758 0.47538 0.89855 0.0
H564 H 0.19624 0.54071 0.88823 0.0
H565 H 0.19679 0.50794 0.08527 0.0
H566 H 0.25335 0.49285 0.98531 0.0
C567 C 0.20164 0.45208 0.98186 0.0
C568 C 0.14874 0.51094 0.00361 0.0
C569 C 0.25052 0.49845 0.87225 0.0
C570 C 0.21616 0.55368 0.98328 0.0
H571 H 0.13091 0.46958 0.0394 0.0
H572 H 0.16078 0.43733 0.03278 0.0
H573 H 0.23347 0.42743 0.91912 0.0
H574 H 0.25833 0.45291 0.85515 0.0
H575 H 0.27352 0.5392 0.86408 0.0
H576 H 0.25624 0.56891 0.92854 0.0
H577 H 0.1792 0.57917 0.02359 0.0
H578 H 0.14178 0.55676 0.02738 0.0
H579 H 0.22107 0.50915 0.16261 0.0
H580 H 0.27771 0.49222 0.05974 0.0
H581 H 0.16583 0.5501 0.83071 0.0
H582 H 0.14308 0.48443 0.84495 0.0
C583 C 0.01886 0.09775 0.01671 0.0
C584 C 0.03957 0.08709 0.01459 0.0
C585 C 0.0553 0.10227 1.00046 0.0
C586 C 0.04348 0.12129 0.99391 0.0
N587 N 0.02131 0.11903 0.00376 0.0
Co588 Co 0.99797 0.14185 0.99308 0.0
N589 N 0.01774 0.1588 0.94284 0.0
C590 C 0.04018 0.15621 0.93749 0.0
C591 C 0.04975 0.17022 0.90044 0.0
C592 C 0.03231 0.18271 0.88186 0.0
C593 C 0.01293 0.17564 0.90885 0.0
N594 N 0.97486 0.16503 0.9843 0.0
C595 C 0.97398 0.1822 0.94926 0.0
C596 C 0.95533 0.19517 0.96075 0.0
C597 C 0.94454 0.18599 0.00487 0.0
C598 C 0.95708 0.16793 0.01808 0.0
N599 N 0.97833 0.1239 0.04102 0.0
C600 C 0.95971 0.1308 0.06726 0.0
C601 C 0.94847 0.1141 0.09306 0.0
C602 C 0.96077 0.09565 0.08174 0.0
C603 C 0.97888 0.10205 0.04943 0.0
N604 N 0.00879 0.15793 0.05481 0.0
C605 C 0.00868 0.18446 0.14493 0.0
C606 C 0.00837 0.16187 0.15111 0.0
C607 C 0.0087 0.14886 0.10549 0.0
C608 C 0.01145 0.19318 0.09306 0.0
C609 C 0.01172 0.17977 0.04898 0.0
N610 N 0.9859 0.12624 0.93335 0.0
C611 C 0.95262 0.10995 0.90195 0.0
C612 C 0.96552 0.09414 0.87654 0.0
C613 C 0.98897 0.09617 0.8743 0.0
C614 C 0.99889 0.11266 0.90267 0.0
C615 C 0.96303 0.12575 0.92986 0.0
H616 H 0.01699 0.11338 0.90306 0.0
H617 H 0.95217 0.13619 0.95266 0.0
H618 H 1.00713 0.13162 0.11131 0.0
H619 H 0.01221 0.18759 0.01014 0.0
C620 C 0.05127 0.13914 0.9639 0.0
C621 C 0.99709 0.08741 0.02975 0.0
C622 C 0.99139 0.18769 0.90785 0.0
C623 C 0.95109 0.15172 0.05638 0.0
H624 H 0.0431 0.07005 0.02008 0.0
H625 H 0.07292 0.0993 0.99101 0.0
H626 H 0.06729 0.17119 0.88813 0.0
H627 H 0.03388 0.19608 0.85334 0.0
H628 H 0.95025 0.20989 0.93988 0.0
H629 H 0.9291 0.19158 0.02418 0.0
H630 H 0.9325 0.11499 0.11474 0.0
H631 H 0.95678 0.07937 0.09507 0.0
H632 H 1.0063 0.15439 0.19054 0.0
H633 H 0.01188 0.21051 0.0863 0.0
H634 H 0.93443 0.10936 0.90307 0.0
H635 H 0.99949 0.08444 0.85376 0.0
C636 C 0.86164 0.98972 0.48097 0.0
C637 C 0.87181 0.96992 0.47069 0.0
C638 C 0.85525 0.95473 0.47582 0.0
C639 C 0.83585 0.96588 0.4893 0.0
N640 N 0.83925 0.98718 0.49211 0.0
Co641 Co 0.8169 0.00878 0.51852 0.0
N642 N 0.79857 0.98661 0.55738 0.0
C643 C 0.7997 0.96532 0.54843 0.0
C644 C 0.78536 0.95369 0.58165 0.0
C645 C 0.77433 0.96865 0.61277 0.0
C646 C 0.78239 0.98875 0.59647 0.0
N647 N 0.79506 0.03075 0.54443 0.0
C648 C 0.77873 0.02935 0.58335 0.0
C649 C 0.76629 0.04847 0.5853 0.0
C650 C 0.77515 0.06211 0.54616 0.0
C651 C 0.79242 0.05063 0.52222 0.0
N652 N 0.83575 0.03054 0.48032 0.0
C653 C 0.82902 0.05044 0.4647 0.0
C654 C 0.8465 0.06237 0.44292 0.0
C655 C 0.86527 0.04911 0.44573 0.0
C656 C 0.85825 0.0298 0.4693 0.0
N657 N 0.79813 1.00577 0.45465 0.0
C658 C 0.76878 1.00659 0.36656 0.0
C659 C 0.79234 1.00822 0.35902 0.0
C660 C 0.80666 1.00761 0.40332 0.0
C661 C 0.7607 1.00376 0.41945 0.0
C662 C 0.77536 1.00363 0.46216 0.0
N663 N 0.8347 0.01215 0.58202 0.0
C664 C 0.8545 0.03552 0.63868 0.0
C665 C 0.8637 0.01767 0.66595 0.0
C666 C 0.85744 0.99698 0.65215 0.0
C667 C 0.84294 0.99455 0.60976 0.0
C668 C 0.83986 0.03243 0.59729 0.0
H669 H 0.83887 0.97845 0.59851 0.0
H670 H 0.83326 0.04649 0.57649 0.0
H671 H 0.82455 0.00918 0.39616 0.0
H672 H 0.76785 1.00234 0.50165 0.0
C673 C 0.81682 0.95675 0.51499 0.0
C674 C 0.87309 0.01084 0.47984 0.0
C675 C 0.7731 0.00959 0.61503 0.0
C676 C 0.80829 0.05874 0.48414 0.0
H677 H 0.88935 0.96645 0.4623 0.0
H678 H 0.85758 0.93739 0.47476 0.0
H679 H 0.78367 0.93634 0.58433 0.0
H680 H 0.76173 0.96504 0.64356 0.0
H681 H 0.75198 0.05203 0.61141 0.0
H682 H 0.76987 0.07855 0.53701 0.0
H683 H 0.84605 0.0792 0.43024 0.0
H684 H 0.88223 0.05328 0.43316 0.0
H685 H 0.79979 0.0105 0.31935 0.0
H686 H 0.74299 1.00166 0.42853 0.0
H687 H 0.85888 0.05178 0.6488 0.0
H688 H 0.86425 0.98284 0.67274 0.0
C689 C 0.53835 0.93523 0.53096 0.0
C690 C 0.55812 0.94677 0.52689 0.0
C691 C 0.57509 0.9327 0.54025 0.0
C692 C 0.56486 0.9134 0.55194 0.0
N693 N 0.54246 0.91413 0.54503 0.0
Co694 Co 0.52092 0.8902 0.56343 0.0
N695 N 0.5442 0.87249 0.60174 0.0
C696 C 0.56583 0.87797 0.60754 0.0
C697 C 0.57782 0.8633 0.63777 0.0
C698 C 0.56286 0.8476 0.65267 0.0
C699 C 0.5425 0.85359 0.63055 0.0
N700 N 0.49954 0.86598 0.57898 0.0
C701 C 0.50216 0.8471 0.60739 0.0
C702 C 0.48272 0.83503 0.60772 0.0
C703 C 0.46741 0.84659 0.57851 0.0
C704 C 0.47823 0.86506 0.56201 0.0
N705 N 0.49729 0.90892 0.52906 0.0
C706 C 0.47573 0.90355 0.52182 0.0
C707 C 0.46243 0.9206 0.50526 0.0
C708 C 0.47612 0.93811 0.50381 0.0
C709 C 0.49704 0.93072 0.51966 0.0
N710 N 0.52916 0.87589 0.49401 0.0
C711 C 0.53894 0.84761 0.40771 0.0
C712 C 0.51734 0.85635 0.41668 0.0
C713 C 0.513 0.87056 0.45876 0.0
C714 C 0.55586 0.85498 0.44037 0.0
C715 C 0.55068 0.86882 0.4827 0.0
N716 N 0.51237 0.90401 0.63179 0.0
C717 C 0.48166 0.91573 0.68894 0.0
C718 C 0.49319 0.9344 0.70046 0.0
C719 C 0.516 0.93538 0.68576 0.0
C720 C 0.52545 0.91954 0.65273 0.0
C721 C 0.49139 0.90093 0.65428 0.0
H722 H 0.54286 0.92109 0.64124 0.0
H723 H 0.48086 0.88808 0.64348 0.0
H724 H 0.49619 0.87649 0.4627 0.0
H725 H 0.56438 0.87317 0.5064 0.0
C726 C 0.57444 0.89667 0.58269 0.0
C727 C 0.51583 0.94525 0.52805 0.0
C728 C 0.52229 0.84039 0.63647 0.0
C729 C 0.46801 0.88306 0.53734 0.0
H730 H 0.5601 0.96384 0.51883 0.0
H731 H 0.59247 0.93667 0.54608 0.0
H732 H 0.59537 0.86389 0.64761 0.0
H733 H 0.56658 0.83328 0.67671 0.0
H734 H 0.47967 0.81971 0.62819 0.0
H735 H 0.45013 0.84245 0.57207 0.0
H736 H 0.44457 0.92057 0.49829 0.0
H737 H 0.4711 0.95462 0.49446 0.0
H738 H 0.50345 0.85174 0.39274 0.0
H739 H 0.57319 0.84989 0.43415 0.0
H740 H 0.46437 0.91353 0.70249 0.0
H741 H 0.52595 0.9491 0.69564 0.0
C742 C 0.66263 0.53702 0.45692 0.0
C743 C 0.65362 0.55562 0.43358 0.0
C744 C 0.6705 0.57057 0.43118 0.0
C745 C 0.6889 0.56032 0.45301 0.0
N746 N 0.68463 0.53982 0.46821 0.0
Co747 Co 0.70547 0.51996 0.50673 0.0
N748 N 0.7238 0.54392 0.53222 0.0
C749 C 0.72355 0.56416 0.51116 0.0
C750 C 0.73853 0.57731 0.53456 0.0
C751 C 0.74912 0.56447 0.572 0.0
C752 C 0.74001 0.54406 0.56958 0.0
N753 N 0.72594 0.49963 0.54511 0.0
C754 C 0.7419 0.50325 0.58152 0.0
C755 C 0.75242 0.48398 0.59686 0.0
C756 C 0.7433 0.46804 0.56775 0.0
C757 C 0.72759 0.47829 0.53657 0.0
N758 N 0.68656 0.49641 0.48164 0.0
C759 C 0.69273 0.47554 0.4788 0.0
C760 C 0.67538 0.4628 0.46397 0.0
C761 C 0.65719 0.47654 0.45776 0.0
C762 C 0.66443 0.49699 0.46921 0.0
N763 N 0.72574 0.51787 0.44236 0.0
C764 C 0.75671 0.51072 0.3562 0.0
C765 C 0.73337 0.51077 0.34843 0.0
C766 C 0.71814 0.5143 0.39215 0.0
C767 C 0.76395 0.51525 0.40722 0.0
C768 C 0.74846 0.51883 0.44902 0.0
N769 N 0.68598 0.52183 0.5706 0.0
C770 C 0.66359 0.50349 0.63835 0.0
C771 C 0.65242 0.52282 0.65099 0.0
C772 C 0.65937 0.54192 0.62474 0.0
C773 C 0.67644 0.54111 0.58515 0.0
C774 C 0.68024 0.50334 0.59821 0.0
H775 H 0.68116 0.55592 0.56456 0.0
H776 H 0.68758 0.48802 0.58759 0.0
H777 H 0.70029 0.51362 0.38574 0.0
H778 H 0.75523 0.52173 0.48734 0.0
C779 C 0.70757 0.5706 0.47331 0.0
C780 C 0.6502 0.51678 0.46714 0.0
C781 C 0.74957 0.52473 0.59718 0.0
C782 C 0.71228 0.46817 0.50398 0.0
H783 H 0.63653 0.55826 0.42106 0.0
H784 H 0.66893 0.5874 0.41897 0.0
H785 H 0.74136 0.59425 0.52571 0.0
H786 H 0.76258 0.56941 0.59689 0.0
H787 H 0.76574 0.48172 0.62508 0.0
H788 H 0.74741 0.45098 0.56979 0.0
H789 H 0.67539 0.44538 0.46202 0.0
H790 H 0.64044 0.47197 0.44745 0.0
H791 H 0.72695 0.50732 0.30958 0.0
H792 H 0.78173 0.51563 0.41526 0.0
H793 H 0.65857 0.48826 0.65695 0.0
H794 H 0.65125 0.55721 0.63358 0.0
C795 C 0.9699 0.59914 0.5759 0.0
C796 C 0.94926 0.58903 0.57667 0.0
C797 C 0.9333 0.60442 0.58926 0.0
C798 C 0.94496 0.62303 0.59587 0.0
N799 N 0.96725 0.62033 0.5879 0.0
Co800 Co 0.99013 0.64284 0.59729 0.0
N801 N 0.96939 0.6606 0.64254 0.0
C802 C 0.94694 0.65841 0.64623 0.0
C803 C 0.93661 0.67299 0.67951 0.0
C804 C 0.95357 0.68535 0.69741 0.0
C805 C 0.97345 0.67763 0.67401 0.0
N806 N 0.01289 0.66563 0.60478 0.0
C807 C 0.01326 0.6827 0.63783 0.0
C808 C 0.03242 0.69477 0.62744 0.0
C809 C 0.04397 0.68529 0.58576 0.0
C810 C 0.03143 0.66788 0.57301 0.0
N811 N 0.01087 0.6243 0.55412 0.0
C812 C 0.02986 0.63086 0.52885 0.0
C813 C 0.04136 0.61422 0.5045 0.0
C814 C 0.0288 0.59609 0.51538 0.0
C815 C 0.01028 0.60263 0.54599 0.0
N816 N 0.98023 0.65861 0.5319 0.0
C817 C 0.97947 0.68409 0.43691 0.0
C818 C 0.98033 0.66148 0.43509 0.0
C819 C 0.98043 0.64899 0.48318 0.0
C820 C 0.97678 0.69342 0.4869 0.0
C821 C 0.97705 0.68053 0.53351 0.0
N822 N 1.00087 0.6276 0.66135 0.0
C823 C 0.03282 0.6135 0.70785 0.0
C824 C 0.01917 0.59929 0.73757 0.0
C825 C 0.99587 0.60054 0.7315 0.0
C826 C 0.98695 0.61539 0.69408 0.0
C827 C 0.02346 0.62714 0.66954 0.0
H828 H 0.969 0.61604 0.68942 0.0
H829 H 0.03497 0.63609 0.64411 0.0
H830 H 0.98226 0.63168 0.48085 0.0
H831 H 0.97661 0.68873 0.57077 0.0
C832 C 0.93655 0.64122 0.62217 0.0
C833 C 0.99164 0.58827 0.5634 0.0
C834 C 0.99503 0.68898 0.67615 0.0
C835 C 0.03816 0.6515 0.53784 0.0
H836 H 0.94601 0.5722 0.57039 0.0
H837 H 0.91553 0.60188 0.59667 0.0
H838 H 0.91889 0.67438 0.6899 0.0
H839 H 0.9514 0.69898 0.72324 0.0
H840 H 0.03744 0.70909 0.64747 0.0
H841 H 0.05995 0.69016 0.56802 0.0
H842 H 0.0575 0.61493 0.48354 0.0
H843 H 0.0328 0.57993 0.50246 0.0
H844 H 0.98245 0.6536 0.39715 0.0
H845 H 0.97606 0.71082 0.49013 0.0
H846 H 0.05095 0.61269 0.71059 0.0
H847 H 0.98484 0.58962 0.75378 0.0
H848 H 0.48886 0.13094 0.31427 0.0
H849 H 0.52904 0.11414 0.45095 0.0
H850 H 0.53905 0.07924 0.41196 0.0
H851 H 0.46906 0.07451 0.28696 0.0
H852 H 0.47203 0.07905 0.21564 0.0
H853 H 0.46453 0.10117 0.25831 0.0
H854 H 0.49849 0.12276 0.21955 0.0
H855 H 0.50594 0.10084 0.17675 0.0
H856 H 0.52625 0.11077 0.22171 0.0
H857 H 0.54738 0.04779 0.35668 0.0
H858 H 0.55864 0.02497 0.28107 0.0
H859 H 0.51366 0.06164 0.17869 0.0
C860 C 0.4987 0.11933 0.33715 0.0
C861 C 0.50738 0.12473 0.3868 0.0
C862 C 0.52145 0.10983 0.41415 0.0
C863 C 0.52709 0.0899 0.39246 0.0
C864 C 0.51805 0.08479 0.3439 0.0
C865 C 0.50429 0.09912 0.3162 0.0
C866 C 0.49989 0.09109 0.26088 0.0
C867 C 0.47489 0.08616 0.25513 0.0
C868 C 0.50815 0.10732 0.21718 0.0
C869 C 0.51405 0.07053 0.26126 0.0
C870 C 0.52386 0.0669 0.31013 0.0
C871 C 0.53931 0.05008 0.3187 0.0
C872 C 0.54555 0.03711 0.27565 0.0
C873 C 0.53678 0.04145 0.22454 0.0
C874 C 0.52021 0.05781 0.21784 0.0
H875 H 0.50024 0.56155 0.33696 0.0
H876 H 0.48893 0.51733 0.20973 0.0
H877 H 0.51409 0.53887 0.14932 0.0
H878 H 0.49024 0.60505 0.26313 0.0
H879 H 0.50991 0.62265 0.29274 0.0
H880 H 0.49888 0.60015 0.33096 0.0
H881 H 0.53926 0.58573 0.34778 0.0
H882 H 0.55051 0.60848 0.30992 0.0
H883 H 0.55842 0.5814 0.29187 0.0
H884 H 0.53387 0.56882 0.09892 0.0
H885 H 0.54072 0.60542 0.06017 0.0
H886 H 0.53464 0.63212 0.21766 0.0
C887 C 0.50359 0.55603 0.29677 0.0
C888 C 0.49253 0.53793 0.27773 0.0
C889 C 0.49741 0.53106 0.2252 0.0
C890 C 0.5117 0.54321 0.19072 0.0
C891 C 0.52094 0.56205 0.20967 0.0
C892 C 0.51703 0.56837 0.26173 0.0
C893 C 0.52433 0.59131 0.26959 0.0
C894 C 0.50467 0.60561 0.29026 0.0
C895 C 0.54433 0.59175 0.307 0.0
C896 C 0.53141 0.59757 0.21294 0.0
C897 C 0.53044 0.58019 0.17952 0.0
C898 C 0.53454 0.58251 0.1246 0.0
C899 C 0.53838 0.60325 0.10295 0.0
C900 C 0.53775 0.62131 0.13612 0.0
C901 C 0.53519 0.61837 0.19186 0.0
H902 H 0.97854 0.48491 0.23671 0.0
H903 H 0.92851 0.44853 0.15594 0.0
H904 H 0.93545 0.41727 0.21559 0.0
H905 H 0.01682 0.44363 0.26544 0.0
H906 H 0.02246 0.45049 0.33325 0.0
H907 H 0.01364 0.47118 0.28601 0.0
H908 H 0.97998 0.48179 0.34851 0.0
H909 H 0.98935 0.46173 0.39672 0.0
H910 H 0.96103 0.4612 0.37332 0.0
H911 H 0.95312 0.38822 0.26823 0.0
H912 H 0.96849 0.36557 0.34154 0.0
H913 H 1.00116 0.42137 0.40311 0.0
C914 C 0.9686 0.47059 0.23295 0.0
C915 C 0.95367 0.46874 0.19046 0.0
C916 C 0.94061 0.44993 0.18719 0.0
C917 C 0.94448 0.43205 0.22056 0.0
C918 C 0.96063 0.43362 0.25895 0.0
C919 C 0.97149 0.45267 0.26795 0.0
C920 C 0.98671 0.4499 0.31548 0.0
C921 C 0.01137 0.45405 0.29902 0.0
C922 C 0.97878 0.46452 0.36122 0.0
C923 C 0.98307 0.42623 0.32999 0.0
C924 C 0.96859 0.41712 0.29529 0.0
C925 C 0.96387 0.39521 0.29705 0.0
C926 C 0.97287 0.38246 0.33818 0.0
C927 C 0.98543 0.39194 0.37812 0.0
C928 C 0.99138 0.4139 0.37304 0.0
H929 H 1.00169 0.92316 0.1221 0.0
H930 H 0.97531 0.87633 0.23799 0.0
H931 H 0.9788 0.90266 0.30987 0.0
H932 H 0.04359 0.94153 0.19786 0.0
H933 H 0.04145 0.96922 0.17429 0.0
H934 H 0.03228 0.94793 0.13346 0.0
H935 H 0.99074 0.9667 0.1316 0.0
H936 H 1.00325 0.98783 0.16865 0.0
H937 H 0.97835 0.97452 0.19433 0.0
H938 H 0.99104 0.93109 0.36978 0.0
H939 H 0.01411 0.95753 0.41403 0.0
H940 H 0.03334 0.98622 0.26002 0.0
C941 C 0.99606 0.91883 0.16249 0.0
C942 C 0.98796 0.89801 0.17493 0.0
C943 C 0.98122 0.89242 0.22803 0.0
C944 C 0.98303 0.9073 0.26883 0.0
C945 C 0.99151 0.92767 0.25559 0.0
C946 C 0.99789 0.93346 0.20365 0.0
C947 C 0.00933 0.95512 0.20112 0.0
C948 C 0.03304 0.95335 0.17516 0.0
C949 C 0.99461 0.97208 0.17217 0.0
C950 C 0.01024 0.95973 0.26004 0.0
C951 C 0.99901 0.94413 0.29063 0.0
C952 C 0.99945 0.94361 0.34622 0.0
C953 C 0.01259 0.95869 0.371 0.0
C954 C 0.0253 0.97394 0.34028 0.0
C955 C 0.0233 0.97508 0.28432 0.0
H956 H 0.38144 1.00103 0.73499 0.0
H957 H 0.4126 0.03613 0.85937 0.0
H958 H 0.4499 0.02223 0.82957 0.0
H959 H 0.40779 0.95593 0.75248 0.0
H960 H 0.41193 0.94807 0.68401 0.0
H961 H 0.38923 0.96608 0.70156 0.0
H962 H 0.40365 0.99492 0.63237 0.0
H963 H 0.42611 0.97665 0.61292 0.0
H964 H 0.43244 1.00343 0.63356 0.0
H965 H 0.48195 0.99693 0.80106 0.0
H966 H 0.50511 0.96538 0.77246 0.0
H967 H 0.45231 0.94764 0.66697 0.0
C968 C 0.39628 1.00663 0.75402 0.0
C969 C 0.39427 0.01947 0.79942 0.0
C970 C 0.41389 0.02642 0.82405 0.0
C971 C 0.43515 0.01854 0.80744 0.0
C972 C 0.43641 1.00422 0.76539 0.0
C973 C 0.41748 0.99895 0.7378 0.0
C974 C 0.42247 0.98108 0.69927 0.0
C975 C 0.40694 0.96166 0.71006 0.0
C976 C 0.42109 0.98953 0.64108 0.0
C977 C 0.4464 0.97568 0.71317 0.0
C978 C 0.45456 0.9895 0.75005 0.0
C979 C 0.47579 0.98621 0.77164 0.0
C980 C 0.48879 0.96824 0.75539 0.0
C981 C 0.48029 0.9537 0.71858 0.0
C982 C 0.45907 0.95798 0.69654 0.0
H983 H 0.6468 0.50065 0.74601 0.0
H984 H 0.61178 0.54247 0.63374 0.0
H985 H 0.57543 0.53186 0.6761 0.0
H986 H 0.61536 0.4588 0.73793 0.0
H987 H 0.61491 0.44968 0.80702 0.0
H988 H 0.6378 0.46558 0.78103 0.0
H989 H 0.63048 0.49323 0.85453 0.0
H990 H 0.60704 0.47796 0.88156 0.0
H991 H 0.60326 0.50599 0.86225 0.0
H992 H 0.544 0.5078 0.70904 0.0
H993 H 0.52055 0.47708 0.74075 0.0
H994 H 0.57571 0.45253 0.83536 0.0
C995 C 0.63149 0.50823 0.73185 0.0
C996 C 0.63198 0.52212 0.68627 0.0
C997 C 0.61172 0.53181 0.66872 0.0
C998 C 0.591 0.52582 0.69247 0.0
C999 C 0.59096 0.5104 0.73412 0.0
C1000 C 0.61078 0.50235 0.75503 0.0
C1001 C 0.60644 0.48407 0.79501 0.0
C1002 C 0.61938 0.46333 0.77923 0.0
C1003 C 0.61212 0.49071 0.85172 0.0
C1004 C 0.5814 0.48171 0.78951 0.0
C1005 C 0.57258 0.49722 0.755 0.0
C1006 C 0.55054 0.49605 0.73761 0.0
C1007 C 0.53735 0.4785 0.75554 0.0
C1008 C 0.5464 0.46232 0.79004 0.0
C1009 C 0.56839 0.46454 0.80853 0.0
H1010 H 0.04854 0.6009 0.8188 0.0
H1011 H 0.01658 0.55734 0.7141 0.0
H1012 H 0.04697 0.53018 0.72891 0.0
H1013 H 0.10158 0.59262 0.77769 0.0
H1014 H 0.11481 0.59296 0.84156 0.0
H1015 H 0.0886 0.60716 0.83217 0.0
H1016 H 0.07013 0.58609 0.91171 0.0
H1017 H 0.09632 0.57197 0.92311 0.0
H1018 H 0.07111 0.55706 0.91375 0.0
H1019 H 0.08523 0.51185 0.7392 0.0
H1020 H 0.12338 0.49924 0.7645 0.0
H1021 H 0.1283 0.55421 0.86698 0.0
C1022 C 0.04733 0.58515 0.80152 0.0
C1023 C 0.03038 0.58099 0.7652 0.0
C1024 C 0.02946 0.56051 0.74217 0.0
C1025 C 0.04679 0.54523 0.74974 0.0
C1026 C 0.06451 0.55065 0.78165 0.0
C1027 C 0.06428 0.56964 0.80949 0.0
C1028 C 0.08559 0.57197 0.84002 0.0
C1029 C 0.09838 0.59238 0.82173 0.0
C1030 C 0.08049 0.57173 0.9007 0.0
C1031 C 0.09817 0.5518 0.82326 0.0
C1032 C 0.08602 0.53984 0.78884 0.0
C1033 C 0.09483 0.52099 0.76655 0.0
C1034 C 0.11644 0.51392 0.78115 0.0
C1035 C 0.1289 0.52582 0.81725 0.0
C1036 C 0.11946 0.54493 0.83842 0.0
H1037 H 0.96704 0.07853 0.7749 0.0
H1038 H 0.93632 0.06852 0.9325 0.0
H1039 H 0.9111 0.04164 0.89713 0.0
H1040 H 0.91958 0.08078 0.70889 0.0
H1041 H 0.92866 0.06678 0.64982 0.0
H1042 H 0.94888 0.08012 0.6885 0.0
H1043 H 0.97147 0.04485 0.6967 0.0
H1044 H 0.95099 0.02936 0.66279 0.0
H1045 H 0.95911 0.02138 0.72906 0.0
H1046 H 0.88515 0.02061 0.84318 0.0
H1047 H 0.85939 0.00913 0.77346 0.0
H1048 H 0.90482 0.03486 0.6507 0.0
C1049 C 0.9557 0.06989 0.80215 0.0
C1050 C 0.9539 0.07522 0.85646 0.0
C1051 C 0.93816 0.06437 0.8908 0.0
C1052 C 0.92382 0.04901 0.87116 0.0
C1053 C 0.92532 0.04466 0.81695 0.0
C1054 C 0.94092 0.05472 0.78286 0.0
C1055 C 0.93667 0.04976 0.72518 0.0
C1056 C 0.93324 0.07058 0.69113 0.0
C1057 C 0.95573 0.03554 0.70204 0.0
C1058 C 0.91524 0.03705 0.73195 0.0
C1059 C 0.90952 0.0334 0.78526 0.0
C1060 C 0.8897 0.023 0.80126 0.0
C1061 C 0.87518 0.01655 0.76163 0.0
C1062 C 0.88041 0.02104 0.70707 0.0
C1063 C 0.9008 0.03103 0.69219 0.0
H1064 H 0.65714 0.9865 0.78438 0.0
H1065 H 0.6826 0.0289 0.90293 0.0
H1066 H 0.71632 0.03548 0.8462 0.0
H1067 H 0.70992 0.9625 0.74653 0.0
H1068 H 0.70467 0.96157 0.67604 0.0
H1069 H 0.68152 0.96075 0.72405 0.0
H1070 H 0.66304 0.99394 0.67698 0.0
H1071 H 0.686 0.9947 0.62844 0.0
H1072 H 0.6789 0.01827 0.66635 0.0
H1073 H 0.74865 0.03591 0.78059 0.0
H1074 H 0.77651 0.03194 0.70608 0.0
H1075 H 0.73073 0.99086 0.62576 0.0
C1076 C 0.66965 0.99745 0.79781 0.0
C1077 C 0.6672 1.00701 0.84865 0.0
C1078 C 0.68413 0.02112 0.86471 0.0
C1079 C 0.7034 0.02503 0.83265 0.0
C1080 C 0.70571 0.01491 0.78381 0.0
C1081 C 0.68923 1.00163 0.76587 0.0
C1082 C 0.69639 0.99266 0.71169 0.0
C1083 C 0.69823 0.9679 0.71478 0.0
C1084 C 0.68011 1.00035 0.66829 0.0
C1085 C 0.71945 1.00274 0.70273 0.0
C1086 C 0.72443 0.01547 0.74507 0.0
C1087 C 0.74488 0.02607 0.74705 0.0
C1088 C 0.76065 0.02369 0.70465 0.0
C1089 C 0.75606 0.01084 0.66054 0.0
C1090 C 0.73499 1.00041 0.65948 0.0
H1091 H 0.5244 0.83252 0.74576 0.0
H1092 H 0.52186 0.80017 0.5949 0.0
H1093 H 0.52234 0.76471 0.64316 0.0
H1094 H 0.5619 0.79385 0.81049 0.0
H1095 H 0.54812 0.79572 0.87536 0.0
H1096 H 0.54753 0.81847 0.82899 0.0
H1097 H 0.50407 0.81946 0.83609 0.0
H1098 H 0.50453 0.79666 0.88233 0.0
H1099 H 0.48868 0.79555 0.82218 0.0
H1100 H 0.52306 0.73259 0.70814 0.0
H1101 H 0.52459 0.70635 0.78471 0.0
H1102 H 0.52663 0.75906 0.89428 0.0
C1103 C 0.52398 0.81791 0.72308 0.0
C1104 C 0.52299 0.81904 0.66653 0.0
C1105 C 0.52252 0.79963 0.63815 0.0
C1106 C 0.52278 0.77944 0.66528 0.0
C1107 C 0.52359 0.77882 0.72104 0.0
C1108 C 0.52424 0.79755 0.74969 0.0
C1109 C 0.52516 0.79231 0.80942 0.0
C1110 C 0.54698 0.80058 0.83241 0.0
C1111 C 0.50437 0.80155 0.83926 0.0
C1112 C 0.52492 0.76777 0.80993 0.0
C1113 C 0.524 0.76033 0.75844 0.0
C1114 C 0.52375 0.73827 0.74855 0.0
C1115 C 0.52459 0.72347 0.79218 0.0
C1116 C 0.52565 0.73068 0.84518 0.0
C1117 C 0.52573 0.75314 0.85409 0.0
H1118 H 0.83315 0.54884 0.8357 0.0
H1119 H 0.88681 0.51967 0.73935 0.0
H1120 H 0.86055 0.51593 0.66602 0.0
H1121 H 0.79062 0.51318 0.7973 0.0
H1122 H 0.76853 0.5334 0.79736 0.0
H1123 H 0.792 0.5359 0.84044 0.0
H1124 H 0.80006 0.57382 0.79905 0.0
H1125 H 0.77657 0.57145 0.75586 0.0
H1126 H 0.80411 0.57707 0.72759 0.0
H1127 H 0.82763 0.51361 0.60358 0.0
H1128 H 0.79112 0.51254 0.55891 0.0
H1129 H 0.75807 0.54088 0.69719 0.0
C1130 C 0.8396 0.54159 0.79944 0.0
C1131 C 0.86248 0.53462 0.79425 0.0
C1132 C 0.86975 0.52563 0.74493 0.0
C1133 C 0.8548 0.52323 0.70285 0.0
C1134 C 0.83238 0.52977 0.7101 0.0
C1135 C 0.82481 0.53879 0.75723 0.0
C1136 C 0.79964 0.54359 0.75586 0.0
C1137 C 0.78695 0.53075 0.80038 0.0
C1138 C 0.79482 0.56793 0.75983 0.0
C1139 C 0.79413 0.53562 0.70083 0.0
C1140 C 0.81334 0.5279 0.6749 0.0
C1141 C 0.81255 0.51959 0.62371 0.0
C1142 C 0.79171 0.51898 0.59865 0.0
C1143 C 0.77168 0.52635 0.62472 0.0
C1144 C 0.77305 0.53501 0.67637 0.0
H1145 H 0.99152 0.77376 0.91756 0.0
H1146 H 0.992 0.82492 0.7962 0.0
H1147 H 0.99352 0.79768 0.72536 0.0
H1148 H 0.02977 0.73731 0.84788 0.0
H1149 H 0.01516 0.71321 0.86938 0.0
H1150 H 0.01399 0.73663 0.91051 0.0
H1151 H 0.97054 0.73651 0.90995 0.0
H1152 H 0.97157 0.71306 0.86893 0.0
H1153 H 0.95657 0.73703 0.84694 0.0
H1154 H 0.99471 0.76472 0.66733 0.0
H1155 H 0.99543 0.72878 0.62663 0.0
H1156 H 0.99449 0.69824 0.78452 0.0
C1157 C 0.9919 0.77913 0.87599 0.0
C1158 C 0.99159 0.80149 0.86222 0.0
C1159 C 0.99217 0.80793 0.8075 0.0
C1160 C 0.99305 0.79254 0.76706 0.0
C1161 C 0.99336 0.77062 0.78175 0.0
C1162 C 0.99278 0.76389 0.83494 0.0
C1163 C 0.99323 0.73931 0.83967 0.0
C1164 C 0.01429 0.73114 0.86858 0.0
C1165 C 0.97169 0.73099 0.86806 0.0
C1166 C 0.9942 0.73326 0.78098 0.0
C1167 C 0.99426 0.75163 0.74831 0.0
C1168 C 0.99483 0.75029 0.69265 0.0
C1169 C 0.99534 0.72978 0.6698 0.0
C1170 C 0.99546 0.71066 0.7022 0.0
C1171 C 0.99475 0.71253 0.75867 0.0
H1172 H 0.15728 0.04444 0.71198 0.0
H1173 H 0.18973 0.01098 0.57972 0.0
H1174 H 0.22416 1.00681 0.63053 0.0
H1175 H 0.20604 0.07287 0.75298 0.0
H1176 H 0.20029 0.06955 0.82384 0.0
H1177 H 0.17749 0.07016 0.77793 0.0
H1178 H 0.16409 0.03313 0.81561 0.0
H1179 H 0.18671 0.03252 0.86201 0.0
H1180 H 0.18357 0.01056 0.81724 0.0
H1181 H 0.25596 1.00696 0.69288 0.0
H1182 H 0.28223 0.00898 0.76722 0.0
H1183 H 0.23039 0.0405 0.86356 0.0
C1184 C 0.17157 0.03611 0.69393 0.0
C1185 C 0.17068 0.02857 0.64076 0.0
C1186 C 0.18991 0.01759 0.61932 0.0
C1187 C 0.20966 0.01498 0.64811 0.0
C1188 C 0.21026 0.0231 0.69929 0.0
C1189 C 0.1917 0.03318 0.72261 0.0
C1190 C 0.19715 0.03999 0.77899 0.0
C1191 C 0.19512 0.06461 0.7837 0.0
C1192 C 0.18197 0.02836 0.82095 0.0
C1193 C 0.22159 0.03232 0.78311 0.0
C1194 C 0.22873 0.02272 0.73634 0.0
C1195 C 0.25054 0.01443 0.72974 0.0
C1196 C 0.26542 0.01572 0.77211 0.0
C1197 C 0.25863 0.0252 0.82089 0.0
C1198 C 0.23631 0.03359 0.82635 0.0
H1199 H 0.49316 0.22704 0.72673 0.0
H1200 H 0.52194 0.25417 0.57919 0.0
H1201 H 0.5259 0.28929 0.62233 0.0
H1202 H 0.46118 0.27561 0.76484 0.0
H1203 H 0.466 0.27166 0.83526 0.0
H1204 H 0.46518 0.24874 0.79266 0.0
H1205 H 0.50463 0.23656 0.82363 0.0
H1206 H 0.50561 0.25951 0.86606 0.0
H1207 H 0.52766 0.25503 0.81651 0.0
H1208 H 0.52784 0.32144 0.68246 0.0
H1209 H 0.52616 0.34841 0.75384 0.0
H1210 H 0.49506 0.30148 0.86261 0.0
C1211 C 0.49993 0.24051 0.70334 0.0
C1212 C 0.50698 0.2379 0.64916 0.0
C1213 C 0.51628 0.2558 0.62046 0.0
C1214 C 0.51862 0.27582 0.64473 0.0
C1215 C 0.51154 0.2779 0.69806 0.0
C1216 C 0.50224 0.26077 0.72701 0.0
C1217 C 0.49605 0.26741 0.78386 0.0
C1218 C 0.47059 0.26576 0.79479 0.0
C1219 C 0.50928 0.25382 0.82494 0.0
C1220 C 0.50344 0.29084 0.78245 0.0
C1221 C 0.51241 0.29652 0.73252 0.0
C1222 C 0.52073 0.31716 0.72154 0.0
C1223 C 0.51976 0.33239 0.7623 0.0
C1224 C 0.51044 0.3271 0.81357 0.0
C1225 C 0.5022 0.30599 0.82368 0.0
H1226 H 0.33569 0.50918 0.61716 0.0
H1227 H 0.38589 0.47516 0.71129 0.0
H1228 H 0.35897 0.47366 0.78838 0.0
H1229 H 0.31098 0.54061 0.724 0.0
H1230 H 0.28276 0.53852 0.70069 0.0
H1231 H 0.30626 0.53766 0.65373 0.0
H1232 H 0.29284 0.50105 0.6201 0.0
H1233 H 0.26932 0.50179 0.66697 0.0
H1234 H 0.28842 0.47893 0.66734 0.0
H1235 H 0.32576 0.47513 0.8555 0.0
H1236 H 0.28965 0.47967 0.90601 0.0
H1237 H 0.26064 0.5117 0.76771 0.0
C1238 C 0.34112 0.50123 0.65373 0.0
C1239 C 0.36317 0.49219 0.65746 0.0
C1240 C 0.36938 0.48244 0.70698 0.0
C1241 C 0.35407 0.48138 0.75108 0.0
C1242 C 0.33247 0.49018 0.74556 0.0
C1243 C 0.32603 0.49997 0.69807 0.0
C1244 C 0.30176 0.50798 0.70219 0.0
C1245 C 0.30037 0.53266 0.69471 0.0
C1246 C 0.28723 0.49677 0.66175 0.0
C1247 C 0.29539 0.50101 0.75929 0.0
C1248 C 0.31339 0.49083 0.78372 0.0
C1249 C 0.3116 0.48301 0.83652 0.0
C1250 C 0.291 0.48558 0.8649 0.0
C1251 C 0.27224 0.49572 0.84058 0.0
C1252 C 0.27461 0.50368 0.78713 0.0
H1253 H 0.99287 0.2727 0.65703 0.0
H1254 H 0.00876 0.32195 0.76861 0.0
H1255 H 1.0071 0.29476 0.84321 0.0
H1256 H 0.95404 0.2436 0.74219 0.0
H1257 H 0.96294 0.21722 0.72068 0.0
H1258 H 0.96597 0.24029 0.6758 0.0
H1259 H 0.00852 0.23194 0.66364 0.0
H1260 H 1.00556 0.20867 0.7079 0.0
H1261 H 0.02563 0.22908 0.72179 0.0
H1262 H 1.00218 0.26231 0.9064 0.0
H1263 H 0.99768 0.22663 0.95221 0.0
H1264 H 0.98601 0.19769 0.80014 0.0
C1265 C 0.99635 0.27759 0.69714 0.0
C1266 C 1.00125 0.29938 0.70714 0.0
C1267 C 1.00532 0.30531 0.76014 0.0
C1268 C 1.00426 0.28998 0.80271 0.0
C1269 C 0.99916 0.26866 0.79177 0.0
C1270 C 0.99556 0.26238 0.74015 0.0
C1271 C 0.99056 0.23838 0.73933 0.0
C1272 C 0.96697 0.23466 0.71825 0.0
C1273 C 0.00865 0.22631 0.7062 0.0
C1274 C 0.99172 0.23216 0.7985 0.0
C1275 C 0.99655 0.24995 0.82806 0.0
C1276 C 0.9984 0.24833 0.88355 0.0
C1277 C 0.99564 0.22804 0.90935 0.0
C1278 C 0.9911 0.2095 0.87995 0.0
C1279 C 0.98908 0.21167 0.82372 0.0
H1280 H 0.1789 0.02932 0.36475 0.0
H1281 H 0.14167 0.9752 0.30962 0.0
H1282 H 0.17145 0.9685 0.24044 0.0
H1283 H 0.1965 0.04906 0.2356 0.0
H1284 H 0.2238 0.05743 0.25554 0.0
H1285 H 0.20069 0.05666 0.30358 0.0
H1286 H 0.22396 0.03149 0.36587 0.0
H1287 H 0.24714 0.0321 0.31789 0.0
H1288 H 0.23563 1.00664 0.34063 0.0
H1289 H 0.20381 0.96932 0.17328 0.0
H1290 H 0.23592 0.97772 0.11196 0.0
H1291 H 0.25264 0.03177 0.20865 0.0
C1292 C 0.17713 0.016 0.33819 0.0
C1293 C 0.15785 1.00284 0.34216 0.0
C1294 C 0.15623 0.98546 0.30711 0.0
C1295 C 0.17308 0.98157 0.26778 0.0
C1296 C 0.1916 0.99514 0.26403 0.0
C1297 C 0.19376 0.01201 0.29832 0.0
C1298 C 0.21476 0.02487 0.28387 0.0
C1299 C 0.20857 0.0484 0.26874 0.0
C1300 C 0.23136 0.0237 0.32981 0.0
C1301 C 0.22394 0.01281 0.23557 0.0
C1302 C 0.21035 0.9956 0.22522 0.0
C1303 C 0.21465 0.9826 0.18142 0.0
C1304 C 0.23297 0.98748 0.14681 0.0
C1305 C 0.24698 1.0052 0.1558 0.0
C1306 C 0.24255 0.01784 0.20138 0.0
H1307 H 0.52536 0.2557 0.31626 0.0
H1308 H 0.46441 0.27574 0.40195 0.0
H1309 H 0.45821 0.30447 0.3338 0.0
H1310 H 0.54303 0.31027 0.27542 0.0
H1311 H 0.55393 0.30211 0.21099 0.0
H1312 H 0.55394 0.28324 0.26711 0.0
H1313 H 0.53165 0.25628 0.21287 0.0
H1314 H 0.53147 0.2751 0.15671 0.0
H1315 H 0.50537 0.26481 0.18443 0.0
H1316 H 0.45748 0.33026 0.2541 0.0
H1317 H 0.4634 0.35225 0.17123 0.0
H1318 H 0.52539 0.31679 0.1375 0.0
C1319 C 0.51088 0.26632 0.32125 0.0
C1320 C 0.49527 0.26312 0.3647 0.0
C1321 C 0.47643 0.27737 0.36883 0.0
C1322 C 0.47281 0.29392 0.33035 0.0
C1323 C 0.48823 0.29633 0.28772 0.0
C1324 C 0.50702 0.28307 0.28313 0.0
C1325 C 0.52087 0.28911 0.23297 0.0
C1326 C 0.54433 0.29663 0.2475 0.0
C1327 C 0.52242 0.27019 0.19448 0.0
C1328 C 0.50683 0.30769 0.20998 0.0
C1329 C 0.48804 0.31153 0.24221 0.0
C1330 C 0.47221 0.32745 0.22873 0.0
C1331 C 0.47565 0.3398 0.18127 0.0
C1332 C 0.49485 0.33636 0.14753 0.0
C1333 C 0.51066 0.32006 0.16255 0.0
H1334 H 0.37146 0.51536 0.25876 0.0
H1335 H 0.33845 0.49782 0.40982 0.0
H1336 H 0.30218 0.4951 0.36435 0.0
H1337 H 0.32482 0.54792 0.20552 0.0
H1338 H 0.32964 0.53927 0.1379 0.0
H1339 H 0.35275 0.5403 0.18265 0.0
H1340 H 0.36216 0.50012 0.16562 0.0
H1341 H 0.33902 0.49894 0.12104 0.0
H1342 H 0.34071 0.48021 0.17725 0.0
H1343 H 0.26949 0.49282 0.30081 0.0
H1344 H 0.24337 0.49193 0.2262 0.0
H1345 H 0.29712 0.51274 0.11637 0.0
C1346 C 0.3565 0.51116 0.28215 0.0
C1347 C 0.35769 0.50693 0.33795 0.0
C1348 C 0.33783 0.50127 0.36719 0.0
C1349 C 0.31718 0.49965 0.34161 0.0
C1350 C 0.3165 0.50382 0.28651 0.0
C1351 C 0.33564 0.5096 0.25716 0.0
C1352 C 0.33032 0.51306 0.19836 0.0
C1353 C 0.33464 0.53654 0.18004 0.0
C1354 C 0.34386 0.49713 0.16352 0.0
C1355 C 0.30534 0.50813 0.1991 0.0
C1356 C 0.29769 0.50282 0.25031 0.0
C1357 C 0.27533 0.49717 0.26063 0.0
C1358 C 0.26047 0.49687 0.21773 0.0
C1359 C 0.26779 0.50225 0.16453 0.0
C1360 C 0.29068 0.50814 0.15585 0.0
H1361 H 0.03231 0.19448 0.23621 0.0
H1362 H 0.97064 0.20836 0.15315 0.0
H1363 H 0.95957 0.2351 0.22066 0.0
H1364 H 0.00874 0.20101 0.37317 0.0
H1365 H 0.03331 0.21394 0.3968 0.0
H1366 H 0.03603 0.19482 0.34392 0.0
H1367 H 0.05613 0.22349 0.28344 0.0
H1368 H 0.05339 0.2427 0.33603 0.0
H1369 H 0.04253 0.24925 0.27095 0.0
H1370 H 0.95555 0.26136 0.29413 0.0
H1371 H 0.95869 0.28579 0.36898 0.0
H1372 H 0.02298 0.25606 0.40784 0.0
C1373 C 0.01635 0.20295 0.23294 0.0
C1374 C 1.00219 0.19917 0.18953 0.0
C1375 C 0.98164 0.21089 0.18608 0.0
C1376 C 0.97522 0.22613 0.22428 0.0
C1377 C 0.98954 0.22974 0.2661 0.0
C1378 C 0.00969 0.21853 0.2709 0.0
C1379 C 0.02219 0.22634 0.319 0.0
C1380 C 0.02525 0.20793 0.3607 0.0
C1381 C 0.04491 0.23602 0.30128 0.0
C1382 C 1.00599 0.2437 0.34 0.0
C1383 C 0.98725 0.24521 0.30882 0.0
C1384 C 0.97005 0.26015 0.31919 0.0
C1385 C 0.97194 0.27392 0.36242 0.0
C1386 C 0.9909 0.2729 0.39562 0.0
C1387 C 0.0082 0.25745 0.38372 0.0
H1388 H 0.64843 0.02417 0.22684 0.0
H1389 H 0.67983 1.00172 0.07996 0.0
H1390 H 0.71641 0.99829 0.12455 0.0
H1391 H 0.6964 0.05554 0.2691 0.0
H1392 H 0.6919 0.04864 0.33903 0.0
H1393 H 0.66847 0.04993 0.29498 0.0
H1394 H 0.6582 0.01078 0.3234 0.0
H1395 H 0.68166 0.00932 0.36726 0.0
H1396 H 0.67903 0.98954 0.31646 0.0
H1397 H 0.7495 0.99543 0.18747 0.0
H1398 H 0.77613 0.99455 0.26115 0.0
H1399 H 0.72393 0.02098 0.36651 0.0
C1400 C 0.66311 0.01881 0.20406 0.0
C1401 C 0.66135 0.01335 0.14972 0.0
C1402 C 0.68087 1.00614 0.12139 0.0
C1403 C 0.7017 1.0041 0.14651 0.0
C1404 C 0.70294 0.00942 0.20022 0.0
C1405 C 0.68418 0.01682 0.22857 0.0
C1406 C 0.69008 0.02126 0.28601 0.0
C1407 C 0.6865 0.04527 0.29798 0.0
C1408 C 0.67643 1.00687 0.32561 0.0
C1409 C 0.71494 0.015 0.28573 0.0
C1410 C 0.72203 1.00817 0.23591 0.0
C1411 C 0.74412 1.001 0.22648 0.0
C1412 C 0.75929 1.00071 0.26885 0.0
C1413 C 0.75259 1.00767 0.32064 0.0
C1414 C 0.72995 0.01511 0.32832 0.0
H1415 H 0.51703 0.84002 0.31198 0.0
H1416 H 0.57121 0.81509 0.41021 0.0
H1417 H 0.57909 0.78682 0.34544 0.0
H1418 H 0.49709 0.78766 0.27782 0.0
H1419 H 0.48977 0.79584 0.21076 0.0
H1420 H 0.4891 0.8153 0.26295 0.0
H1421 H 0.51619 0.83959 0.20642 0.0
H1422 H 0.51699 0.82017 0.15408 0.0
H1423 H 0.54275 0.8286 0.1827 0.0
H1424 H 0.58115 0.76046 0.2707 0.0
H1425 H 0.57586 0.73709 0.19416 0.0
H1426 H 0.51918 0.77715 0.14532 0.0
C1427 C 0.53053 0.82866 0.32036 0.0
C1428 C 0.54369 0.83045 0.36669 0.0
C1429 C 0.56121 0.81494 0.37482 0.0
C1430 C 0.56575 0.79851 0.33826 0.0
C1431 C 0.55253 0.79732 0.29343 0.0
C1432 C 0.53515 0.81186 0.28446 0.0
C1433 C 0.52296 0.80633 0.23398 0.0
C1434 C 0.49827 0.80096 0.24718 0.0
C1435 C 0.52484 0.82477 0.1918 0.0
C1436 C 0.53618 0.78641 0.21621 0.0
C1437 C 0.55329 0.78165 0.25095 0.0
C1438 C 0.56784 0.76409 0.24317 0.0
C1439 C 0.56478 0.75095 0.19912 0.0
C1440 C 0.5472 0.75517 0.16299 0.0
C1441 C 0.53274 0.77329 0.17201 0.0
H1442 H 0.7652 0.52935 0.25467 0.0
H1443 H 0.78822 0.4788 0.36401 0.0
H1444 H 0.82048 0.47111 0.30302 0.0
H1445 H 0.7833 0.50215 0.12886 0.0
H1446 H 0.79204 0.52699 0.09604 0.0
H1447 H 0.76946 0.52724 0.14562 0.0
H1448 H 0.79069 0.55534 0.19879 0.0
H1449 H 0.81339 0.55504 0.14964 0.0
H1450 H 0.81898 0.54932 0.21906 0.0
H1451 H 0.8524 0.47089 0.23433 0.0
H1452 H 0.88086 0.4779 0.16187 0.0
H1453 H 0.8374 0.52759 0.09403 0.0
C1454 C 0.77671 0.51629 0.26491 0.0
C1455 C 0.77399 0.50454 0.31413 0.0
C1456 C 0.78983 0.48795 0.32659 0.0
C1457 C 0.80827 0.48345 0.29213 0.0
C1458 C 0.81085 0.49561 0.24472 0.0
C1459 C 0.79543 0.51159 0.23071 0.0
C1460 C 0.80295 0.52296 0.17857 0.0
C1461 C 0.78592 0.51963 0.13467 0.0
C1462 C 0.80672 0.54709 0.18705 0.0
C1463 C 0.82507 0.51116 0.16618 0.0
C1464 C 0.82927 0.4954 0.20484 0.0
C1465 C 0.84914 0.48306 0.20357 0.0
C1466 C 0.86524 0.48711 0.16224 0.0
C1467 C 0.86154 0.50339 0.1226 0.0
C1468 C 0.84086 0.51518 0.1241 0.0
H1469 H 0.96142 0.75661 0.16721 0.0
H1470 H 0.02545 0.78531 0.20083 0.0
H1471 H 0.02987 0.7601 0.27694 0.0
H1472 H 0.94355 0.74946 0.3056 0.0
H1473 H 0.92999 0.72409 0.29657 0.0
H1474 H 0.93207 0.74354 0.24184 0.0
H1475 H 0.9517 0.71479 0.18288 0.0
H1476 H 0.94979 0.69528 0.23755 0.0
H1477 H 0.9767 0.70114 0.20609 0.0
H1478 H 0.02757 0.73305 0.35122 0.0
H1479 H 0.01759 0.70633 0.42248 0.0
H1480 H 0.95469 0.69452 0.34614 0.0
C1481 C 0.97639 0.7576 0.19046 0.0
C1482 C 0.99333 0.77286 0.17643 0.0
C1483 C 0.01253 0.77347 0.20875 0.0
C1484 C 0.01517 0.75926 0.25271 0.0
C1485 C 0.99842 0.74439 0.26492 0.0
C1486 C 0.97931 0.74345 0.23515 0.0
C1487 C 0.96357 0.72629 0.25893 0.0
C1488 C 0.94095 0.73646 0.2768 0.0
C1489 C 0.96025 0.70831 0.21897 0.0
C1490 C 0.97678 0.71798 0.30684 0.0
C1491 C 0.99691 0.72867 0.30897 0.0
C1492 C 0.01192 0.72449 0.34982 0.0
C1493 C 1.00613 0.70926 0.39009 0.0
C1494 C 0.98552 0.69823 0.38962 0.0
C1495 C 0.97072 0.70248 0.34702 0.0
H1496 H 0.40729 0.03166 0.06517 0.0
H1497 H 0.39238 0.99555 0.92503 0.0
H1498 H 0.43295 0.99099 0.90499 0.0
H1499 H 0.45625 0.06031 0.0073 0.0
H1500 H 0.47191 0.05837 0.0679 0.0
H1501 H 0.44162 0.05916 0.07142 0.0
H1502 H 0.44162 0.02342 0.12725 0.0
H1503 H 0.47189 0.02256 0.12381 0.0
H1504 H 0.45621 1.00007 0.10133 0.0
H1505 H 0.47551 0.99153 0.89697 0.0
H1506 H 0.51664 0.99357 0.90752 0.0
H1507 H 0.50555 0.02861 0.05359 0.0
C1508 C 0.41246 0.02352 0.0291 0.0
C1509 C 0.39617 0.01478 0.99532 0.0
C1510 C 0.40417 1.00288 0.95087 0.0
C1511 C 0.42733 1.00024 0.93903 0.0
C1512 C 0.44283 0.00961 0.97179 0.0
C1513 C 0.43578 0.02081 0.0164 0.0
C1514 C 0.4562 0.02825 0.04646 0.0
C1515 C 0.45651 0.05299 0.04838 0.0
C1516 C 0.45649 0.01796 0.10307 0.0
C1517 C 0.47573 0.01967 0.01157 0.0
C1518 C 0.46751 0.00909 0.96849 0.0
C1519 C 0.48207 0.99981 0.93049 0.0
C1520 C 0.50548 1.00105 0.93681 0.0
C1521 C 0.51453 0.01114 0.98138 0.0
C1522 C 0.49928 0.02082 0.01892 0.0
H1523 H 0.53109 0.47691 0.90671 0.0
H1524 H 0.49539 0.46836 0.05903 0.0
H1525 H 0.49376 0.50792 0.06906 0.0
H1526 H 0.56518 0.5222 0.94822 0.0
H1527 H 0.5645 0.53591 0.88373 0.0
H1528 H 0.56248 0.50694 0.8885 0.0
H1529 H 0.52521 0.50903 0.83773 0.0
H1530 H 0.52748 0.53796 0.83272 0.0
H1531 H 0.50254 0.52594 0.86232 0.0
H1532 H 0.49244 0.54837 0.05851 0.0
H1533 H 0.49738 0.58701 0.03718 0.0
H1534 H 0.53791 0.57107 0.89642 0.0
C1535 C 0.52308 0.48342 0.94229 0.0
C1536 C 0.5128 0.46943 0.98157 0.0
C1537 C 0.50287 0.47865 0.02791 0.0
C1538 C 0.50187 0.50115 0.03391 0.0
C1539 C 0.51143 0.51451 0.99386 0.0
C1540 C 0.52233 0.50604 0.94948 0.0
C1541 C 0.53183 0.52423 0.91344 0.0
C1542 C 0.55754 0.52221 0.90819 0.0
C1543 C 0.52112 0.5243 0.85826 0.0
C1544 C 0.52451 0.5442 0.94444 0.0
C1545 C 0.51232 0.53806 0.99008 0.0
C1546 C 0.50228 0.55331 0.02337 0.0
C1547 C 0.50507 0.57535 0.0106 0.0
C1548 C 0.51822 0.58238 0.96541 0.0
C1549 C 0.52809 0.56639 0.93181 0.0
H1550 H 0.02037 0.49971 0.90919 0.0
H1551 H 0.99904 0.53561 0.04874 0.0
H1552 H 0.03836 0.5369 0.0759 0.0
H1553 H 0.06446 0.46699 0.98876 0.0
H1554 H 0.08253 0.46494 0.93002 0.0
H1555 H 0.05243 0.4657 0.92367 0.0
H1556 H 0.05669 0.49739 0.85704 0.0
H1557 H 0.08658 0.49844 0.86545 0.0
H1558 H 0.06895 0.52188 0.87838 0.0
H1559 H 0.0811 0.53587 0.08634 0.0
H1560 H 0.12238 0.5313 0.08065 0.0
H1561 H 0.11654 0.49454 0.93713 0.0
C1562 C 0.02334 0.50688 0.94688 0.0
C1563 C 1.00571 0.51751 0.97641 0.0
C1564 C 0.01177 0.52764 0.02421 0.0
C1565 C 0.03424 0.52832 0.04049 0.0
C1566 C 0.05103 0.51805 0.01007 0.0
C1567 C 0.04574 0.50686 0.96528 0.0
C1568 C 0.06709 0.4969 0.94027 0.0
C1569 C 0.06659 0.47216 0.94602 0.0
C1570 C 0.07003 0.50407 0.88162 0.0
C1571 C 0.08536 0.50596 0.97469 0.0
C1572 C 0.07559 0.51759 0.0158 0.0
C1573 C 0.08882 0.527 0.05382 0.0
C1574 C 0.11245 0.52463 0.04973 0.0
C1575 C 0.12315 0.51348 0.00702 0.0
C1576 C 0.10913 0.50369 0.96955 0.0
H1577 H 0.97268 0.05889 0.97004 0.0
H1578 H 0.01863 0.06045 0.10072 0.0
H1579 H 0.02331 0.02081 0.09824 0.0
H1580 H 0.94537 1.00731 0.02122 0.0
H1581 H 0.94058 0.99873 0.95428 0.0
H1582 H 0.94108 0.02707 0.96834 0.0
H1583 H 0.97241 0.03158 0.89272 0.0
H1584 H 0.97163 1.00306 0.88149 0.0
H1585 H 0.99771 0.01546 0.8972 0.0
H1586 H 0.0281 0.98205 0.07087 0.0
H1587 H 0.02359 0.94461 0.04291 0.0
H1588 H 0.96951 0.96538 0.94015 0.0
C1589 C 0.98329 0.05078 0.99881 0.0
C1590 C 0.9958 0.063 0.03466 0.0
C1591 C 0.00932 0.05165 0.07209 0.0
C1592 C 0.01216 0.02908 0.07078 0.0
C1593 C 1.00059 0.01765 0.03326 0.0
C1594 C 0.98563 0.02792 0.99949 0.0
C1595 C 0.97422 0.01129 0.96566 0.0
C1596 C 0.9488 0.01109 0.97807 0.0
C1597 C 0.97928 0.01561 0.90572 0.0
C1598 C 0.98547 0.99022 0.98492 0.0
C1599 C 1.00113 0.99455 0.02273 0.0
C1600 C 0.01532 0.97837 0.04276 0.0
C1601 C 0.0127 0.95707 0.02633 0.0
C1602 C 0.99589 0.95164 0.9902 0.0
C1603 C 0.98216 0.96869 0.9689 0.0
H1604 H 0.01017 0.99534 0.46152 0.0
H1605 H 0.0124 0.04064 0.58988 0.0
H1606 H 0.97109 0.04429 0.58996 0.0
H1607 H 0.9638 0.01987 0.3927 0.0
H1608 H 0.95109 0.99489 0.3756 0.0
H1609 H 0.98092 0.99588 0.38507 0.0
H1610 H 0.97762 0.96484 0.45721 0.0
H1611 H 0.94786 0.964 0.44656 0.0
H1612 H 0.95803 0.96781 0.51276 0.0
H1613 H 0.92927 0.04362 0.57599 0.0
H1614 H 0.8899 0.03756 0.55256 0.0
H1615 H 0.91298 0.99215 0.43348 0.0
C1616 C 1.00185 1.0055 0.49074 0.0
C1617 C 0.01477 0.01782 0.52568 0.0
C1618 C 1.00309 0.03107 0.56278 0.0
C1619 C 0.97949 0.03312 0.5634 0.0
C1620 C 0.96726 0.02106 0.52832 0.0
C1621 C 0.97797 1.00724 0.49306 0.0
C1622 C 0.96053 0.99635 0.45937 0.0
C1623 C 0.96432 1.00209 0.39964 0.0
C1624 C 0.96105 0.97179 0.46955 0.0
C1625 C 0.93849 1.00627 0.48106 0.0
C1626 C 0.94291 0.02053 0.5207 0.0
C1627 C 0.92557 0.03208 0.54607 0.0
C1628 C 0.90317 0.02859 0.53215 0.0
C1629 C 0.89778 0.01372 0.49263 0.0
C1630 C 0.916 1.00274 0.46599 0.0
H1631 H 0.53102 0.98312 0.47499 0.0
H1632 H 0.48928 0.96082 0.60858 0.0
H1633 H 0.48302 0.99855 0.63662 0.0
H1634 H 0.55804 0.02738 0.53476 0.0
H1635 H 0.55583 0.04519 0.47683 0.0
H1636 H 0.55713 0.01642 0.46885 0.0
H1637 H 0.52057 0.01907 0.41701 0.0
H1638 H 0.5173 0.04758 0.42744 0.0
H1639 H 0.49533 0.02965 0.44886 0.0
H1640 H 0.48216 0.03951 0.65083 0.0
H1641 H 0.48508 0.07928 0.64769 0.0
H1642 H 0.52732 0.07551 0.50422 0.0
C1643 C 0.52098 0.98615 0.51084 0.0
C1644 C 0.51151 0.96873 0.54147 0.0
C1645 C 0.49739 0.97371 0.58607 0.0
C1646 C 0.49368 0.99516 0.60198 0.0
C1647 C 0.50385 0.01189 0.57211 0.0
C1648 C 0.517 1.00762 0.52703 0.0
C1649 C 0.52471 0.02862 0.49987 0.0
C1650 C 0.55046 0.02944 0.4948 0.0
C1651 C 0.51387 0.03137 0.44502 0.0
C1652 C 0.51528 0.0453 0.53858 0.0
C1653 C 0.50283 0.03532 0.57936 0.0
C1654 C 0.49189 0.0474 0.61896 0.0
C1655 C 0.49363 0.07011 0.61678 0.0
C1656 C 0.50646 0.08088 0.5757 0.0
C1657 C 0.51752 0.06802 0.53638 0.0
H1658 H 0.61501 0.52169 0.54252 0.0
H1659 H 0.62822 0.50936 0.37498 0.0
H1660 H 0.58729 0.50684 0.36111 0.0
H1661 H 0.56716 0.48517 0.56059 0.0
H1662 H 0.55279 0.50283 0.60673 0.0
H1663 H 0.58304 0.50286 0.60016 0.0
H1664 H 0.57999 0.54512 0.5788 0.0
H1665 H 0.54986 0.54327 0.58501 0.0
H1666 H 0.56287 0.55424 0.52444 0.0
H1667 H 0.54447 0.50426 0.366 0.0
H1668 H 0.50395 0.50228 0.38875 0.0
H1669 H 0.51689 0.51725 0.55278 0.0
C1670 C 0.60921 0.51858 0.50289 0.0
C1671 C 0.62499 0.51573 0.45967 0.0
C1672 C 0.61662 0.51159 0.40859 0.0
C1673 C 0.59332 0.51014 0.40041 0.0
C1674 C 0.5782 0.51292 0.44366 0.0
C1675 C 0.5858 0.5171 0.49397 0.0
C1676 C 0.56586 0.51909 0.53367 0.0
C1677 C 0.56728 0.50147 0.57798 0.0
C1678 C 0.56457 0.54176 0.55692 0.0
C1679 C 0.54592 0.51543 0.49806 0.0
C1680 C 0.55351 0.51184 0.44624 0.0
C1681 C 0.53847 0.50734 0.40637 0.0
C1682 C 0.51531 0.50638 0.41957 0.0
C1683 C 0.50682 0.51026 0.472 0.0
C1684 C 0.52256 0.51483 0.51186 0.0
H1685 H 0.01195 0.55522 0.62381 0.0
H1686 H 0.97317 0.56657 0.48197 0.0
H1687 H 0.97031 0.52714 0.47105 0.0
H1688 H 0.04292 0.50672 0.57579 0.0
H1689 H 0.04244 0.49381 0.64128 0.0
H1690 H 0.0421 0.52285 0.63455 0.0
H1691 H 1.00552 0.5231 0.69527 0.0
H1692 H 1.00581 0.49414 0.6989 0.0
H1693 H 0.98147 0.50862 0.67472 0.0
H1694 H 0.96874 0.48614 0.47985 0.0
H1695 H 0.97158 0.44716 0.50265 0.0
H1696 H 0.01307 0.46095 0.63663 0.0
C1697 C 1.00299 0.54933 0.59042 0.0
C1698 C 0.99252 0.56414 0.55412 0.0
C1699 C 0.98121 0.55569 0.51043 0.0
C1700 C 0.97944 0.53324 0.50405 0.0
C1701 C 0.98932 0.51909 0.54132 0.0
C1702 C 1.00114 0.52676 0.58338 0.0
C1703 C 0.01012 0.50789 0.6177 0.0
C1704 C 0.03593 0.50781 0.61735 0.0
C1705 C 1.00014 0.50849 0.67502 0.0
C1706 C 1.0014 0.48849 0.58871 0.0
C1707 C 0.98924 0.4954 0.54502 0.0
C1708 C 0.97843 0.48066 0.51369 0.0
C1709 C 0.98004 0.45846 0.52716 0.0
C1710 C 0.99256 0.45077 0.57138 0.0
C1711 C 1.00356 0.46616 0.60224 0.0
loop_
_geom_bond_atom_site_label_1
_geom_bond_atom_site_label_2
_geom_bond_distance
_geom_bond_site_symmetry_2
_ccdc_geom_bond_type
C0 C1 1.443 . S
C0 N4 1.376 . S
C0 C38 1.391 . S
C1 C0 1.443 . S
C1 C2 1.340 . S
C1 H41 0.961 . S
C2 C1 1.340 . S
C2 C3 1.439 . S
C2 H42 0.950 . S
C3 C2 1.439 . S
C3 N4 1.374 . S
C3 C37 1.395 . S
N4 C0 1.376 . S
N4 C3 1.374 . S
N4 Co5 2.008 . S
Co5 N4 2.008 . S
Co5 N6 1.995 . S
Co5 N11 2.008 1_545 S
Co5 N16 1.995 1_545 S
Co5 N21 2.282 1_545 S
Co5 N27 2.282 . S
N6 Co5 1.995 . S
N6 C7 1.376 . S
N6 C10 1.383 . S
C7 N6 1.376 . S
C7 C8 1.446 . S
C7 C37 1.391 . S
C8 C7 1.446 . S
C8 C9 1.339 . S
C8 H43 0.949 . S
C9 C8 1.339 . S
C9 C10 1.439 . S
C9 H44 0.950 . S
C10 N6 1.383 . S
C10 C9 1.439 . S
C10 C39 1.389 . S
N11 Co5 2.008 1_565 S
N11 C12 1.376 . S
N11 C15 1.374 . S
C12 N11 1.376 . S
C12 C13 1.443 . S
C12 C39 1.391 1_565 S
C13 C12 1.443 . S
C13 C14 1.340 . S
C13 H45 0.951 . S
C14 C13 1.340 . S
C14 C15 1.439 . S
C14 H46 0.950 . S
C15 N11 1.374 . S
C15 C14 1.439 . S
C15 C40 1.395 . S
N16 Co5 1.995 1_565 S
N16 C17 1.376 . S
N16 C20 1.383 . S
C17 N16 1.376 . S
C17 C18 1.446 . S
C17 C40 1.391 . S
C18 C17 1.446 . S
C18 C19 1.339 . S
C18 H47 0.949 . S
C19 C18 1.339 . S
C19 C20 1.439 . S
C19 H48 0.950 . S
C20 N16 1.383 . S
C20 C19 1.439 . S
C20 C38 1.389 1_565 S
N21 Co5 2.282 1_565 S
N21 C24 1.332 . S
N21 C26 1.317 1_565 S
C22 C23 1.386 . S
C22 C25 1.388 . S
C23 C22 1.386 . S
C23 C24 1.382 1_556 S
C23 H49 0.950 . S
C24 N21 1.332 . S
C24 C23 1.382 1_554 S
C24 H35 0.952 . S
C25 C22 1.388 . S
C25 C26 1.373 1_566 S
C25 H50 0.950 1_565 S
C26 N21 1.317 1_545 S
C26 C25 1.373 1_544 S
C26 H36 0.974 . S
N27 Co5 2.282 . S
N27 C31 1.332 . S
N27 C32 1.324 1_545 S
C28 C29 1.388 . S
C28 C32 1.378 1_545 S
C28 H51 0.950 1_545 S
C29 C28 1.388 . S
C29 C30 1.386 . S
C30 C29 1.386 . S
C30 C31 1.382 . S
C30 H52 0.950 . S
C31 N27 1.332 . S
C31 C30 1.382 . S
C31 H33 0.952 . S
C32 N27 1.324 1_565 S
C32 C28 1.378 1_565 S
C32 H34 0.961 . S
H33 C31 0.952 . S
H34 C32 0.961 . S
H35 C24 0.952 . S
H36 C26 0.974 . S
C37 C3 1.395 . S
C37 C7 1.391 . S
C38 C0 1.391 . S
C38 C20 1.389 1_545 S
C39 C10 1.389 . S
C39 C12 1.391 1_545 S
C40 C15 1.395 . S
C40 C17 1.391 . S
H41 C1 0.961 . S
H42 C2 0.950 . S
H43 C8 0.949 . S
H44 C9 0.950 . S
H45 C13 0.951 . S
H46 C14 0.950 . S
H47 C18 0.949 . S
H48 C19 0.950 . S
H49 C23 0.950 . S
H50 C25 0.950 1_545 S
H51 C28 0.950 1_565 S
H52 C30 0.950 . S
C53 C54 1.443 . S
C53 N57 1.376 . S
C53 C91 1.389 . S
C54 C53 1.443 . S
C54 C55 1.340 . S
C54 H94 0.951 . S
C55 C54 1.340 . S
C55 C56 1.439 . S
C55 H95 0.950 . S
C56 C55 1.439 . S
C56 N57 1.374 . S
C56 C90 1.395 . S
N57 C53 1.376 . S
N57 C56 1.374 . S
N57 Co58 2.008 . S
Co58 N57 2.008 . S
Co58 N59 1.995 . S
Co58 N64 2.008 . S
Co58 N69 1.995 . S
Co58 N74 2.282 . S
Co58 N80 2.282 1_554 S
N59 Co58 1.995 . S
N59 C60 1.376 . S
N59 C63 1.383 1_554 S
C60 N59 1.376 . S
C60 C61 1.446 1_554 S
C60 C90 1.391 . S
C61 C60 1.446 1_556 S
C61 C62 1.339 . S
C61 H96 0.949 . S
C62 C61 1.339 . S
C62 C63 1.439 . S
C62 H97 0.950 . S
C63 N59 1.383 1_556 S
C63 C62 1.439 . S
C63 C92 1.392 . S
N64 Co58 2.008 . S
N64 C65 1.376 1_554 S
N64 C68 1.374 . S
C65 N64 1.376 1_556 S
C65 C66 1.443 . S
C65 C92 1.389 . S
C66 C65 1.443 . S
C66 C67 1.340 1_556 S
C66 H98 0.951 . S
C67 C66 1.340 1_554 S
C67 C68 1.439 . S
C67 H99 0.950 . S
C68 N64 1.374 . S
C68 C67 1.439 . S
C68 C93 1.395 . S
N69 Co58 1.995 . S
N69 C70 1.376 . S
N69 C73 1.383 . S
C70 N69 1.376 . S
C70 C71 1.446 . S
C70 C93 1.391 . S
C71 C70 1.446 . S
C71 C72 1.339 . S
C71 H100 0.949 . S
C72 C71 1.339 . S
C72 C73 1.439 . S
C72 H101 0.950 . S
C73 N69 1.383 . S
C73 C72 1.439 . S
C73 C91 1.392 . S
N74 Co58 2.282 . S
N74 C77 1.332 . S
N74 C79 1.332 . S
C75 C76 1.386 . S
C75 C78 1.388 . S
C76 C75 1.386 . S
C76 C77 1.382 . S
C76 H102 0.950 . S
C77 N74 1.332 . S
C77 C76 1.382 . S
C77 H88 0.952 . S
C78 C75 1.388 . S
C78 C79 1.382 . S
C78 H103 0.950 . S
C79 N74 1.332 . S
C79 C78 1.382 . S
C79 H89 0.948 . S
N80 Co58 2.282 1_556 S
N80 C84 1.332 . S
N80 C85 1.332 . S
C81 C82 1.388 . S
C81 C85 1.382 . S
C81 H104 0.950 . S
C82 C81 1.388 . S
C82 C83 1.386 . S
C83 C82 1.386 . S
C83 C84 1.382 . S
C83 H105 0.950 . S
C84 N80 1.332 . S
C84 C83 1.382 . S
C84 H86 0.952 . S
C85 N80 1.332 . S
C85 C81 1.382 . S
C85 H87 0.948 1_556 S
H86 C84 0.952 . S
H87 C85 0.948 1_554 S
H88 C77 0.952 . S
H89 C79 0.948 . S
C90 C56 1.395 . S
C90 C60 1.391 . S
C91 C53 1.389 . S
C91 C73 1.392 . S
C92 C63 1.392 . S
C92 C65 1.389 . S
C93 C68 1.395 . S
C93 C70 1.391 . S
H94 C54 0.951 . S
H95 C55 0.950 . S
H96 C61 0.949 . S
H97 C62 0.950 . S
H98 C66 0.951 . S
H99 C67 0.950 . S
H100 C71 0.949 . S
H101 C72 0.950 . S
H102 C76 0.950 . S
H103 C78 0.950 . S
H104 C81 0.950 . S
H105 C83 0.950 . S
C106 C107 1.443 . S
C106 N110 1.376 . S
C106 C144 1.389 . S
C107 C106 1.443 . S
C107 C108 1.340 . S
C107 H147 0.951 1_554 S
C108 C107 1.340 . S
C108 C109 1.439 . S
C108 H148 0.950 . S
C109 C108 1.439 . S
C109 N110 1.374 . S
C109 C143 1.395 . S
N110 C106 1.376 . S
N110 C109 1.374 . S
N110 Co111 2.008 . S
Co111 N110 2.008 . S
Co111 N112 1.995 . S
Co111 N117 2.008 . S
Co111 N122 1.995 . S
Co111 N127 2.282 . S
Co111 N133 2.282 . S
N112 Co111 1.995 . S
N112 C113 1.376 . S
N112 C116 1.383 . S
C113 N112 1.376 . S
C113 C114 1.446 . S
C113 C143 1.391 . S
C114 C113 1.446 . S
C114 C115 1.339 . S
C114 H149 0.949 . S
C115 C114 1.339 . S
C115 C116 1.439 . S
C115 H150 0.950 . S
C116 N112 1.383 . S
C116 C115 1.439 . S
C116 C145 1.392 . S
N117 Co111 2.008 . S
N117 C118 1.376 . S
N117 C121 1.374 . S
C118 N117 1.376 . S
C118 C119 1.443 . S
C118 C145 1.389 . S
C119 C118 1.443 . S
C119 C120 1.340 . S
C119 H151 0.951 . S
C120 C119 1.340 . S
C120 C121 1.439 . S
C120 H152 0.950 . S
C121 N117 1.374 . S
C121 C120 1.439 . S
C121 C146 1.395 . S
N122 Co111 1.995 . S
N122 C123 1.376 . S
N122 C126 1.383 . S
C123 N122 1.376 . S
C123 C124 1.446 . S
C123 C146 1.391 . S
C124 C123 1.446 . S
C124 C125 1.339 . S
C124 H153 0.949 . S
C125 C124 1.339 . S
C125 C126 1.439 . S
C125 H154 0.950 1_655 S
C126 N122 1.383 . S
C126 C125 1.439 . S
C126 C144 1.392 . S
N127 Co111 2.282 . S
N127 C130 1.332 1_554 S
N127 C132 1.332 1_554 S
C128 C129 1.386 . S
C128 C131 1.388 . S
C129 C128 1.386 . S
C129 C130 1.382 . S
C129 H155 0.950 . S
C130 N127 1.332 1_556 S
C130 C129 1.382 . S
C130 H141 0.952 1_556 S
C131 C128 1.388 . S
C131 C132 1.382 . S
C131 H156 0.950 . S
C132 N127 1.332 1_556 S
C132 C131 1.382 . S
C132 H142 0.948 . S
N133 Co111 2.282 . S
N133 C137 1.332 . S
N133 C138 1.332 . S
C134 C135 1.388 . S
C134 C138 1.382 . S
C134 H157 0.950 . S
C135 C134 1.388 . S
C135 C136 1.386 . S
C136 C135 1.386 . S
C136 C137 1.382 . S
C136 H158 0.950 . S
C137 N133 1.332 . S
C137 C136 1.382 . S
C137 H139 0.952 . S
C138 N133 1.332 . S
C138 C134 1.382 . S
C138 H140 0.948 . S
H139 C137 0.952 . S
H140 C138 0.948 . S
H141 C130 0.952 1_554 S
H142 C132 0.948 . S
C143 C109 1.395 . S
C143 C113 1.391 . S
C144 C106 1.389 . S
C144 C126 1.392 . S
C145 C116 1.392 . S
C145 C118 1.389 . S
C146 C121 1.395 . S
C146 C123 1.391 . S
H147 C107 0.951 1_556 S
H148 C108 0.950 . S
H149 C114 0.949 . S
H150 C115 0.950 . S
H151 C119 0.951 . S
H152 C120 0.950 . S
H153 C124 0.949 . S
H154 C125 0.950 1_455 S
H155 C129 0.950 . S
H156 C131 0.950 . S
H157 C134 0.950 . S
H158 C136 0.950 . S
C159 C160 1.443 . S
C159 N163 1.376 . S
C159 C197 1.389 1_655 S
C160 C159 1.443 . S
C160 C161 1.340 . S
C160 H200 0.951 . S
C161 C160 1.340 . S
C161 C162 1.439 . S
C161 H201 0.950 . S
C162 C161 1.439 . S
C162 N163 1.374 . S
C162 C196 1.395 . S
N163 C159 1.376 . S
N163 C162 1.374 . S
N163 Co164 2.008 1_655 S
Co164 N163 2.008 1_455 S
Co164 N165 1.995 1_455 S
Co164 N170 2.008 1_554 S
Co164 N175 1.995 . S
Co164 N180 2.282 1_455 S
Co164 N186 2.282 1_554 S
N165 Co164 1.995 1_655 S
N165 C166 1.376 . S
N165 C169 1.383 1_554 S
C166 N165 1.376 . S
C166 C167 1.446 1_554 S
C166 C196 1.391 . S
C167 C166 1.446 1_556 S
C167 C168 1.339 . S
C167 H202 0.949 . S
C168 C167 1.339 . S
C168 C169 1.439 . S
C168 H203 0.950 . S
C169 N165 1.383 1_556 S
C169 C168 1.439 . S
C169 C198 1.392 . S
N170 Co164 2.008 1_556 S
N170 C171 1.376 . S
N170 C174 1.374 . S
C171 N170 1.376 . S
C171 C172 1.443 . S
C171 C198 1.389 1_455 S
C172 C171 1.443 . S
C172 C173 1.340 . S
C172 H204 0.951 . S
C173 C172 1.340 . S
C173 C174 1.439 . S
C173 H205 0.950 . S
C174 N170 1.374 . S
C174 C173 1.439 . S
C174 C199 1.395 1_556 S
N175 Co164 1.995 . S
N175 C176 1.376 . S
N175 C179 1.383 . S
C176 N175 1.376 . S
C176 C177 1.446 . S
C176 C199 1.391 . S
C177 C176 1.446 . S
C177 C178 1.339 . S
C177 H206 0.949 . S
C178 C177 1.339 . S
C178 C179 1.439 . S
C178 H207 0.950 . S
C179 N175 1.383 . S
C179 C178 1.439 . S
C179 C197 1.392 . S
N180 Co164 2.282 1_655 S
N180 C183 1.296 1_655 S
N180 C185 1.368 . S
C181 C182 1.388 . S
C181 C184 1.386 1_455 S
C182 C181 1.388 . S
C182 C183 1.382 . S
C182 H208 0.950 . S
C183 N180 1.296 1_455 S
C183 C182 1.382 . S
C183 H194 0.952 . S
C184 C181 1.386 1_655 S
C184 C185 1.382 . S
C184 H209 0.950 . S
C185 N180 1.368 . S
C185 C184 1.382 . S
C185 H195 0.948 . S
N186 Co164 2.282 1_556 S
N186 C190 1.286 1_455 S
N186 C191 1.378 . S
C187 C188 1.386 . S
C187 C191 1.382 . S
C187 H210 0.950 . S
C188 C187 1.386 . S
C188 C189 1.388 1_455 S
C189 C188 1.388 1_655 S
C189 C190 1.382 . S
C189 H211 0.950 . S
C190 N186 1.286 1_655 S
C190 C189 1.382 . S
C190 H192 0.952 . S
C191 N186 1.378 . S
C191 C187 1.382 . S
C191 H193 0.948 . S
H192 C190 0.952 . S
H193 C191 0.948 . S
H194 C183 0.952 . S
H195 C185 0.948 . S
C196 C162 1.395 . S
C196 C166 1.391 . S
C197 C159 1.389 1_455 S
C197 C179 1.392 . S
C198 C169 1.392 . S
C198 C171 1.389 1_655 S
C199 C174 1.395 1_554 S
C199 C176 1.391 . S
H200 C160 0.951 . S
H201 C161 0.950 . S
H202 C167 0.949 . S
H203 C168 0.950 . S
H204 C172 0.951 . S
H205 C173 0.950 . S
H206 C177 0.949 . S
H207 C178 0.950 . S
H208 C182 0.950 . S
H209 C184 0.950 . S
H210 C187 0.950 . S
H211 C189 0.950 . S
C212 C213 1.443 . S
C212 N216 1.376 . S
C212 C250 1.389 . S
C213 C212 1.443 . S
C213 C214 1.340 . S
C213 H253 0.951 . S
C214 C213 1.340 . S
C214 C215 1.439 . S
C214 H254 0.950 . S
C215 C214 1.439 . S
C215 N216 1.374 . S
C215 C249 1.395 . S
N216 C212 1.376 . S
N216 C215 1.374 . S
N216 Co217 2.008 . S
Co217 N216 2.008 . S
Co217 N218 1.995 . S
Co217 N223 2.008 1_565 S
Co217 N228 1.995 1_565 S
Co217 N233 2.282 1_565 S
Co217 N239 2.282 . S
N218 Co217 1.995 . S
N218 C219 1.376 . S
N218 C222 1.383 . S
C219 N218 1.376 . S
C219 C220 1.446 . S
C219 C249 1.391 . S
C220 C219 1.446 . S
C220 C221 1.339 . S
C220 H255 0.949 . S
C221 C220 1.339 . S
C221 C222 1.439 . S
C221 H256 0.950 . S
C222 N218 1.383 . S
C222 C221 1.439 . S
C222 C251 1.392 1_565 S
N223 Co217 2.008 1_545 S
N223 C224 1.376 . S
N223 C227 1.374 . S
C224 N223 1.376 . S
C224 C225 1.443 . S
C224 C251 1.389 . S
C225 C224 1.443 . S
C225 C226 1.340 . S
C225 H257 0.951 . S
C226 C225 1.340 . S
C226 C227 1.439 . S
C226 H258 0.950 . S
C227 N223 1.374 . S
C227 C226 1.439 . S
C227 C252 1.395 . S
N228 Co217 1.995 1_545 S
N228 C229 1.376 . S
N228 C232 1.383 . S
C229 N228 1.376 . S
C229 C230 1.446 . S
C229 C252 1.391 . S
C230 C229 1.446 . S
C230 C231 1.339 . S
C230 H259 0.949 . S
C231 C230 1.339 . S
C231 C232 1.439 . S
C231 H260 0.950 . S
C232 N228 1.383 . S
C232 C231 1.439 . S
C232 C250 1.392 1_545 S
N233 Co217 2.282 1_545 S
N233 C236 1.332 . S
N233 C238 1.332 1_545 S
C234 C235 1.386 . S
C234 C237 1.388 . S
C235 C234 1.386 . S
C235 C236 1.382 . S
C235 H261 0.950 . S
C236 N233 1.332 . S
C236 C235 1.382 . S
C236 H247 0.952 . S
C237 C234 1.388 . S
C237 C238 1.382 1_545 S
C237 H262 0.950 1_545 S
C238 N233 1.332 1_565 S
C238 C237 1.382 1_565 S
C238 H248 0.948 . S
N239 Co217 2.282 . S
N239 C243 1.332 . S
N239 C244 1.307 1_565 S
C240 C241 1.388 . S
C240 C244 1.366 1_565 S
C240 H263 0.950 1_565 S
C241 C240 1.388 . S
C241 C242 1.386 . S
C242 C241 1.386 . S
C242 C243 1.382 . S
C242 H264 0.950 . S
C243 N239 1.332 . S
C243 C242 1.382 . S
C243 H245 0.952 . S
C244 N239 1.307 1_545 S
C244 C240 1.366 1_545 S
C244 H246 0.993 . S
H245 C243 0.952 . S
H246 C244 0.993 . S
H247 C236 0.952 . S
H248 C238 0.948 . S
C249 C215 1.395 . S
C249 C219 1.391 . S
C250 C212 1.389 . S
C250 C232 1.392 1_565 S
C251 C222 1.392 1_545 S
C251 C224 1.389 . S
C252 C227 1.395 . S
C252 C229 1.391 . S
H253 C213 0.951 . S
H254 C214 0.950 . S
H255 C220 0.949 . S
H256 C221 0.950 . S
H257 C225 0.951 . S
H258 C226 0.950 . S
H259 C230 0.949 . S
H260 C231 0.950 . S
H261 C235 0.950 . S
H262 C237 0.950 1_565 S
H263 C240 0.950 1_545 S
H264 C242 0.950 . S
C265 C266 1.443 . S
C265 N269 1.376 . S
C265 C303 1.389 . S
C266 C265 1.443 . S
C266 C267 1.340 . S
C266 H306 0.951 . S
C267 C266 1.340 . S
C267 C268 1.439 . S
C267 H307 0.950 . S
C268 C267 1.439 . S
C268 N269 1.374 . S
C268 C302 1.395 . S
N269 C265 1.376 . S
N269 C268 1.374 . S
N269 Co270 2.008 . S
Co270 N269 2.008 . S
Co270 N271 1.995 . S
Co270 N276 2.008 . S
Co270 N281 1.995 . S
Co270 N286 2.282 . S
Co270 N292 2.282 . S
N271 Co270 1.995 . S
N271 C272 1.376 . S
N271 C275 1.383 . S
C272 N271 1.376 . S
C272 C273 1.446 . S
C272 C302 1.391 . S
C273 C272 1.446 . S
C273 C274 1.339 . S
C273 H308 0.949 . S
C274 C273 1.339 . S
C274 C275 1.439 . S
C274 H309 0.950 . S
C275 N271 1.383 . S
C275 C274 1.439 . S
C275 C304 1.392 . S
N276 Co270 2.008 . S
N276 C277 1.376 . S
N276 C280 1.374 . S
C277 N276 1.376 . S
C277 C278 1.443 . S
C277 C304 1.389 . S
C278 C277 1.443 . S
C278 C279 1.340 . S
C278 H310 0.951 . S
C279 C278 1.340 . S
C279 C280 1.439 . S
C279 H311 0.950 . S
C280 N276 1.374 . S
C280 C279 1.439 . S
C280 C305 1.395 . S
N281 Co270 1.995 . S
N281 C282 1.376 . S
N281 C285 1.383 . S
C282 N281 1.376 . S
C282 C283 1.446 . S
C282 C305 1.391 . S
C283 C282 1.446 . S
C283 C284 1.339 . S
C283 H312 0.949 . S
C284 C283 1.339 . S
C284 C285 1.439 . S
C284 H313 0.950 . S
C285 N281 1.383 . S
C285 C284 1.439 . S
C285 C303 1.392 . S
N286 Co270 2.282 . S
N286 C289 1.332 . S
N286 C291 1.332 . S
C287 C288 1.386 . S
C287 C290 1.388 . S
C288 C287 1.386 . S
C288 C289 1.382 . S
C288 H314 0.950 . S
C289 N286 1.332 . S
C289 C288 1.382 . S
C289 H300 0.952 . S
C290 C287 1.388 . S
C290 C291 1.382 . S
C290 H315 0.950 . S
C291 N286 1.332 . S
C291 C290 1.382 . S
C291 H301 0.948 . S
N292 Co270 2.282 . S
N292 C296 1.332 . S
N292 C297 1.332 . S
C293 C294 1.388 . S
C293 C297 1.382 . S
C293 H316 0.950 . S
C294 C293 1.388 . S
C294 C295 1.386 . S
C295 C294 1.386 . S
C295 C296 1.382 . S
C295 H317 0.950 . S
C296 N292 1.332 . S
C296 C295 1.382 . S
C296 H298 0.952 . S
C297 N292 1.332 . S
C297 C293 1.382 . S
C297 H299 0.948 . S
H298 C296 0.952 . S
H299 C297 0.948 . S
H300 C289 0.952 . S
H301 C291 0.948 . S
C302 C268 1.395 . S
C302 C272 1.391 . S
C303 C265 1.389 . S
C303 C285 1.392 . S
C304 C275 1.392 . S
C304 C277 1.389 . S
C305 C280 1.395 . S
C305 C282 1.391 . S
H306 C266 0.951 . S
H307 C267 0.950 . S
H308 C273 0.949 . S
H309 C274 0.950 . S
H310 C278 0.951 . S
H311 C279 0.950 . S
H312 C283 0.949 . S
H313 C284 0.950 . S
H314 C288 0.950 . S
H315 C290 0.950 . S
H316 C293 0.950 . S
H317 C295 0.950 . S
C318 C319 1.443 . S
C318 N322 1.376 . S
C318 C356 1.389 . S
C319 C318 1.443 . S
C319 C320 1.340 . S
C319 H359 0.951 . S
C320 C319 1.340 . S
C320 C321 1.439 . S
C320 H360 0.950 . S
C321 C320 1.439 . S
C321 N322 1.374 . S
C321 C355 1.395 . S
N322 C318 1.376 . S
N322 C321 1.374 . S
N322 Co323 2.008 . S
Co323 N322 2.008 . S
Co323 N324 1.995 . S
Co323 N329 2.008 . S
Co323 N334 1.995 . S
Co323 N339 2.282 . S
Co323 N345 2.282 . S
N324 Co323 1.995 . S
N324 C325 1.376 . S
N324 C328 1.383 . S
C325 N324 1.376 . S
C325 C326 1.446 . S
C325 C355 1.391 . S
C326 C325 1.446 . S
C326 C327 1.339 . S
C326 H361 0.949 . S
C327 C326 1.339 . S
C327 C328 1.439 . S
C327 H362 0.950 . S
C328 N324 1.383 . S
C328 C327 1.439 . S
C328 C357 1.392 . S
N329 Co323 2.008 . S
N329 C330 1.376 . S
N329 C333 1.374 . S
C330 N329 1.376 . S
C330 C331 1.443 . S
C330 C357 1.389 . S
C331 C330 1.443 . S
C331 C332 1.340 . S
C331 H363 0.951 . S
C332 C331 1.340 . S
C332 C333 1.439 . S
C332 H364 0.950 . S
C333 N329 1.374 . S
C333 C332 1.439 . S
C333 C358 1.395 . S
N334 Co323 1.995 . S
N334 C335 1.376 . S
N334 C338 1.383 . S
C335 N334 1.376 . S
C335 C336 1.446 . S
C335 C358 1.391 . S
C336 C335 1.446 . S
C336 C337 1.339 . S
C336 H365 0.949 . S
C337 C336 1.339 . S
C337 C338 1.439 . S
C337 H366 0.950 . S
C338 N334 1.383 . S
C338 C337 1.439 . S
C338 C356 1.392 . S
N339 Co323 2.282 . S
N339 C342 1.332 . S
N339 C344 1.332 . S
C340 C341 1.386 . S
C340 C343 1.388 . S
C341 C340 1.386 . S
C341 C342 1.382 . S
C341 H367 0.950 . S
C342 N339 1.332 . S
C342 C341 1.382 . S
C342 H353 0.952 . S
C343 C340 1.388 . S
C343 C344 1.382 . S
C343 H368 0.950 . S
C344 N339 1.332 . S
C344 C343 1.382 . S
C344 H354 0.948 . S
N345 Co323 2.282 . S
N345 C349 1.332 . S
N345 C350 1.332 . S
C346 C347 1.388 . S
C346 C350 1.382 . S
C346 H369 0.950 . S
C347 C346 1.388 . S
C347 C348 1.386 . S
C348 C347 1.386 . S
C348 C349 1.382 . S
C348 H370 0.950 . S
C349 N345 1.332 . S
C349 C348 1.382 . S
C349 H351 0.952 . S
C350 N345 1.332 . S
C350 C346 1.382 . S
C350 H352 0.948 . S
H351 C349 0.952 . S
H352 C350 0.948 . S
H353 C342 0.952 . S
H354 C344 0.948 . S
C355 C321 1.395 . S
C355 C325 1.391 . S
C356 C318 1.389 . S
C356 C338 1.392 . S
C357 C328 1.392 . S
C357 C330 1.389 . S
C358 C333 1.395 . S
C358 C335 1.391 . S
H359 C319 0.951 . S
H360 C320 0.950 . S
H361 C326 0.949 . S
H362 C327 0.950 . S
H363 C331 0.951 . S
H364 C332 0.950 . S
H365 C336 0.949 . S
H366 C337 0.950 . S
H367 C341 0.950 . S
H368 C343 0.950 . S
H369 C346 0.950 . S
H370 C348 0.950 . S
C371 C372 1.443 . S
C371 N375 1.376 . S
C371 C409 1.389 1_455 S
C372 C371 1.443 . S
C372 C373 1.340 . S
C372 H412 0.951 . S
C373 C372 1.340 . S
C373 C374 1.439 . S
C373 H413 0.950 . S
C374 C373 1.439 . S
C374 N375 1.374 . S
C374 C408 1.395 . S
N375 C371 1.376 . S
N375 C374 1.374 . S
N375 Co376 2.008 1_455 S
Co376 N375 2.008 1_655 S
Co376 N377 1.995 1_655 S
Co376 N382 2.008 . S
Co376 N387 1.995 . S
Co376 N392 2.283 1_655 S
Co376 N398 2.284 . S
N377 Co376 1.995 1_455 S
N377 C378 1.376 . S
N377 C381 1.383 . S
C378 N377 1.376 . S
C378 C379 1.446 . S
C378 C408 1.391 . S
C379 C378 1.446 . S
C379 C380 1.339 . S
C379 H414 0.949 . S
C380 C379 1.339 . S
C380 C381 1.439 . S
C380 H415 0.950 . S
C381 N377 1.383 . S
C381 C380 1.439 . S
C381 C410 1.392 . S
N382 Co376 2.008 . S
N382 C383 1.376 . S
N382 C386 1.374 . S
C383 N382 1.376 . S
C383 C384 1.443 . S
C383 C410 1.389 1_655 S
C384 C383 1.443 . S
C384 C385 1.340 . S
C384 H416 0.951 . S
C385 C384 1.340 . S
C385 C386 1.439 . S
C385 H417 0.950 . S
C386 N382 1.374 . S
C386 C385 1.439 . S
C386 C411 1.395 . S
N387 Co376 1.995 . S
N387 C388 1.376 . S
N387 C391 1.383 . S
C388 N387 1.376 . S
C388 C389 1.446 . S
C388 C411 1.391 . S
C389 C388 1.446 . S
C389 C390 1.339 . S
C389 H418 0.949 . S
C390 C389 1.339 . S
C390 C391 1.439 . S
C390 H419 0.950 . S
C391 N387 1.383 . S
C391 C390 1.439 . S
C391 C409 1.392 . S
N392 Co376 2.283 1_455 S
N392 C395 1.302 1_455 S
N392 C397 1.361 . S
C393 C394 1.408 . S
C393 C396 1.365 1_655 S
C394 C393 1.408 . S
C394 C395 1.382 . S
C394 H420 0.950 . S
C395 N392 1.302 1_655 S
C395 C394 1.382 . S
C395 H406 0.952 . S
C396 C393 1.365 1_455 S
C396 C397 1.382 . S
C396 H421 0.950 . S
C397 N392 1.361 . S
C397 C396 1.382 . S
C397 H407 0.948 . S
N398 Co376 2.284 . S
N398 C402 1.291 1_655 S
N398 C403 1.371 . S
C399 C400 1.375 1_655 S
C399 C403 1.382 . S
C399 H422 0.950 . S
C400 C399 1.375 1_455 S
C400 C401 1.398 . S
C401 C400 1.398 . S
C401 C402 1.382 . S
C401 H423 0.950 . S
C402 N398 1.291 1_455 S
C402 C401 1.382 . S
C402 H404 0.952 . S
C403 N398 1.371 . S
C403 C399 1.382 . S
C403 H405 0.948 . S
H404 C402 0.952 . S
H405 C403 0.948 . S
H406 C395 0.952 . S
H407 C397 0.948 . S
C408 C374 1.395 . S
C408 C378 1.391 . S
C409 C371 1.389 1_655 S
C409 C391 1.392 . S
C410 C381 1.392 . S
C410 C383 1.389 1_455 S
C411 C386 1.395 . S
C411 C388 1.391 . S
H412 C372 0.951 . S
H413 C373 0.950 . S
H414 C379 0.949 . S
H415 C380 0.950 . S
H416 C384 0.951 . S
H417 C385 0.950 . S
H418 C389 0.949 . S
H419 C390 0.950 . S
H420 C394 0.950 . S
H421 C396 0.950 . S
H422 C399 0.950 . S
H423 C401 0.950 . S
C424 C425 1.443 . S
C424 N428 1.376 1_554 S
C424 C462 1.389 . S
C425 C424 1.443 . S
C425 C426 1.340 1_554 S
C425 H465 0.951 . S
C426 C425 1.340 1_556 S
C426 C427 1.439 . S
C426 H466 0.950 . S
C427 C426 1.439 . S
C427 N428 1.374 . S
C427 C461 1.395 . S
N428 C424 1.376 1_556 S
N428 C427 1.374 . S
N428 Co429 2.008 1_545 S
Co429 N428 2.008 1_565 S
Co429 N430 1.995 1_565 S
Co429 N435 2.008 . S
Co429 N440 1.995 1_556 S
Co429 N445 2.282 1_566 S
Co429 N451 2.282 . S
N430 Co429 1.995 1_545 S
N430 C431 1.376 . S
N430 C434 1.383 . S
C431 N430 1.376 . S
C431 C432 1.446 . S
C431 C461 1.391 . S
C432 C431 1.446 . S
C432 C433 1.339 . S
C432 H467 0.949 . S
C433 C432 1.339 . S
C433 C434 1.439 . S
C433 H468 0.950 . S
C434 N430 1.383 . S
C434 C433 1.439 . S
C434 C463 1.392 1_545 S
N435 Co429 2.008 . S
N435 C436 1.376 . S
N435 C439 1.374 . S
C436 N435 1.376 . S
C436 C437 1.443 . S
C436 C463 1.389 . S
C437 C436 1.443 . S
C437 C438 1.340 . S
C437 H469 0.951 . S
C438 C437 1.340 . S
C438 C439 1.439 . S
C438 H470 0.950 . S
C439 N435 1.374 . S
C439 C438 1.439 . S
C439 C464 1.395 1_556 S
N440 Co429 1.995 1_554 S
N440 C441 1.376 . S
N440 C444 1.383 . S
C441 N440 1.376 . S
C441 C442 1.446 . S
C441 C464 1.391 . S
C442 C441 1.446 . S
C442 C443 1.339 . S
C442 H471 0.949 . S
C443 C442 1.339 . S
C443 C444 1.439 . S
C443 H472 0.950 . S
C444 N440 1.383 . S
C444 C443 1.439 . S
C444 C462 1.392 1_565 S
N445 Co429 2.282 1_544 S
N445 C448 1.332 1_545 S
N445 C450 1.332 . S
C446 C447 1.386 1_545 S
C446 C449 1.388 . S
C447 C446 1.386 1_565 S
C447 C448 1.382 . S
C447 H473 0.950 . S
C448 N445 1.332 1_565 S
C448 C447 1.382 . S
C448 H459 0.952 . S
C449 C446 1.388 . S
C449 C450 1.382 . S
C449 H474 0.950 . S
C450 N445 1.332 . S
C450 C449 1.382 . S
C450 H460 0.948 . S
N451 Co429 2.282 . S
N451 C455 1.332 1_565 S
N451 C456 1.332 . S
C452 C453 1.388 . S
C452 C456 1.382 . S
C452 H475 0.950 . S
C453 C452 1.388 . S
C453 C454 1.386 1_565 S
C454 C453 1.386 1_545 S
C454 C455 1.382 . S
C454 H476 0.950 . S
C455 N451 1.332 1_545 S
C455 C454 1.382 . S
C455 H457 0.952 . S
C456 N451 1.332 . S
C456 C452 1.382 . S
C456 H458 0.948 . S
H457 C455 0.952 . S
H458 C456 0.948 . S
H459 C448 0.952 . S
H460 C450 0.948 . S
C461 C427 1.395 . S
C461 C431 1.391 . S
C462 C424 1.389 . S
C462 C444 1.392 1_545 S
C463 C434 1.392 1_565 S
C463 C436 1.389 . S
C464 C439 1.395 1_554 S
C464 C441 1.391 . S
H465 C425 0.951 . S
H466 C426 0.950 . S
H467 C432 0.949 . S
H468 C433 0.950 . S
H469 C437 0.951 . S
H470 C438 0.950 . S
H471 C442 0.949 . S
H472 C443 0.950 . S
H473 C447 0.950 . S
H474 C449 0.950 . S
H475 C452 0.950 . S
H476 C454 0.950 . S
C477 C478 1.443 . S
C477 N481 1.376 . S
C477 C515 1.389 . S
C478 C477 1.443 . S
C478 C479 1.340 . S
C478 H518 0.951 . S
C479 C478 1.340 . S
C479 C480 1.439 . S
C479 H519 0.950 . S
C480 C479 1.439 . S
C480 N481 1.374 . S
C480 C514 1.395 . S
N481 C477 1.376 . S
N481 C480 1.374 . S
N481 Co482 2.008 . S
Co482 N481 2.008 . S
Co482 N483 1.995 . S
Co482 N488 2.008 . S
Co482 N493 1.995 . S
Co482 N498 2.282 . S
Co482 N504 2.282 . S
N483 Co482 1.995 . S
N483 C484 1.376 . S
N483 C487 1.383 . S
C484 N483 1.376 . S
C484 C485 1.446 . S
C484 C514 1.391 . S
C485 C484 1.446 . S
C485 C486 1.339 . S
C485 H520 0.949 . S
C486 C485 1.339 . S
C486 C487 1.439 . S
C486 H521 0.950 . S
C487 N483 1.383 . S
C487 C486 1.439 . S
C487 C516 1.392 . S
N488 Co482 2.008 . S
N488 C489 1.376 . S
N488 C492 1.374 . S
C489 N488 1.376 . S
C489 C490 1.443 . S
C489 C516 1.389 . S
C490 C489 1.443 . S
C490 C491 1.340 . S
C490 H522 0.951 . S
C491 C490 1.340 . S
C491 C492 1.439 . S
C491 H523 0.950 . S
C492 N488 1.374 . S
C492 C491 1.439 . S
C492 C517 1.395 . S
N493 Co482 1.995 . S
N493 C494 1.376 . S
N493 C497 1.383 . S
C494 N493 1.376 . S
C494 C495 1.446 . S
C494 C517 1.391 . S
C495 C494 1.446 . S
C495 C496 1.339 . S
C495 H524 0.949 . S
C496 C495 1.339 . S
C496 C497 1.439 . S
C496 H525 0.950 . S
C497 N493 1.383 . S
C497 C496 1.439 . S
C497 C515 1.392 . S
N498 Co482 2.282 . S
N498 C501 1.332 . S
N498 C503 1.332 . S
C499 C500 1.386 . S
C499 C502 1.388 . S
C500 C499 1.386 . S
C500 C501 1.382 . S
C500 H526 0.950 1_556 S
C501 N498 1.332 . S
C501 C500 1.382 . S
C501 H512 0.952 . S
C502 C499 1.388 . S
C502 C503 1.382 . S
C502 H527 0.950 . S
C503 N498 1.332 . S
C503 C502 1.382 . S
C503 H513 0.948 . S
N504 Co482 2.282 . S
N504 C508 1.332 . S
N504 C509 1.332 . S
C505 C506 1.388 . S
C505 C509 1.382 . S
C505 H528 0.950 . S
C506 C505 1.388 . S
C506 C507 1.386 . S
C507 C506 1.386 . S
C507 C508 1.382 . S
C507 H529 0.950 . S
C508 N504 1.332 . S
C508 C507 1.382 . S
C508 H510 0.952 . S
C509 N504 1.332 . S
C509 C505 1.382 . S
C509 H511 0.948 . S
H510 C508 0.952 . S
H511 C509 0.948 . S
H512 C501 0.952 . S
H513 C503 0.948 . S
C514 C480 1.395 . S
C514 C484 1.391 . S
C515 C477 1.389 . S
C515 C497 1.392 . S
C516 C487 1.392 . S
C516 C489 1.389 . S
C517 C492 1.395 . S
C517 C494 1.391 . S
H518 C478 0.951 . S
H519 C479 0.950 . S
H520 C485 0.949 . S
H521 C486 0.950 . S
H522 C490 0.951 . S
H523 C491 0.950 . S
H524 C495 0.949 . S
H525 C496 0.950 . S
H526 C500 0.950 1_554 S
H527 C502 0.950 . S
H528 C505 0.950 . S
H529 C507 0.950 . S
C530 C531 1.443 . S
C530 N534 1.376 . S
C530 C568 1.389 1_556 S
C531 C530 1.443 . S
C531 C532 1.340 . S
C531 H571 0.951 1_556 S
C532 C531 1.340 . S
C532 C533 1.439 . S
C532 H572 0.950 . S
C533 C532 1.439 . S
C533 N534 1.374 . S
C533 C567 1.395 . S
N534 C530 1.376 . S
N534 C533 1.374 . S
N534 Co535 2.008 . S
Co535 N534 2.008 . S
Co535 N536 1.995 . S
Co535 N541 2.008 . S
Co535 N546 1.995 . S
Co535 N551 2.282 . S
Co535 N557 2.282 . S
N536 Co535 1.995 . S
N536 C537 1.376 . S
N536 C540 1.383 . S
C537 N536 1.376 . S
C537 C538 1.446 . S
C537 C567 1.391 . S
C538 C537 1.446 . S
C538 C539 1.339 . S
C538 H573 0.949 . S
C539 C538 1.339 . S
C539 C540 1.439 . S
C539 H574 0.950 . S
C540 N536 1.383 . S
C540 C539 1.439 . S
C540 C569 1.392 . S
N541 Co535 2.008 . S
N541 C542 1.376 . S
N541 C545 1.374 . S
C542 N541 1.376 . S
C542 C543 1.443 . S
C542 C569 1.389 . S
C543 C542 1.443 . S
C543 C544 1.340 . S
C543 H575 0.951 . S
C544 C543 1.340 . S
C544 C545 1.439 . S
C544 H576 0.950 . S
C545 N541 1.374 . S
C545 C544 1.439 . S
C545 C570 1.395 . S
N546 Co535 1.995 . S
N546 C547 1.376 . S
N546 C550 1.383 1_556 S
C547 N546 1.376 . S
C547 C548 1.446 1_556 S
C547 C570 1.391 . S
C548 C547 1.446 1_554 S
C548 C549 1.339 . S
C548 H577 0.949 . S
C549 C548 1.339 . S
C549 C550 1.439 . S
C549 H578 0.950 . S
C550 N546 1.383 1_554 S
C550 C549 1.439 . S
C550 C568 1.392 . S
N551 Co535 2.282 . S
N551 C554 1.332 1_556 S
N551 C556 1.332 . S
C552 C553 1.386 . S
C552 C555 1.388 . S
C553 C552 1.386 . S
C553 C554 1.382 . S
C553 H579 0.950 . S
C554 N551 1.332 1_554 S
C554 C553 1.382 . S
C554 H565 0.952 . S
C555 C552 1.388 . S
C555 C556 1.382 1_554 S
C555 H580 0.950 . S
C556 N551 1.332 . S
C556 C555 1.382 1_556 S
C556 H566 0.948 . S
N557 Co535 2.282 . S
N557 C561 1.332 . S
N557 C562 1.332 . S
C558 C559 1.388 . S
C558 C562 1.382 . S
C558 H581 0.950 . S
C559 C558 1.388 . S
C559 C560 1.386 . S
C560 C559 1.386 . S
C560 C561 1.382 . S
C560 H582 0.950 . S
C561 N557 1.332 . S
C561 C560 1.382 . S
C561 H563 0.952 . S
C562 N557 1.332 . S
C562 C558 1.382 . S
C562 H564 0.948 . S
H563 C561 0.952 . S
H564 C562 0.948 . S
H565 C554 0.952 . S
H566 C556 0.948 . S
C567 C533 1.395 . S
C567 C537 1.391 . S
C568 C530 1.389 1_554 S
C568 C550 1.392 . S
C569 C540 1.392 . S
C569 C542 1.389 . S
C570 C545 1.395 . S
C570 C547 1.391 . S
H571 C531 0.951 1_554 S
H572 C532 0.950 . S
H573 C538 0.949 . S
H574 C539 0.950 . S
H575 C543 0.951 . S
H576 C544 0.950 . S
H577 C548 0.949 . S
H578 C549 0.950 . S
H579 C553 0.950 . S
H580 C555 0.950 . S
H581 C558 0.950 . S
H582 C560 0.950 . S
C583 C584 1.443 . S
C583 N587 1.376 . S
C583 C621 1.385 . S
C584 C583 1.443 . S
C584 C585 1.340 . S
C584 H624 0.951 . S
C585 C584 1.340 . S
C585 C586 1.439 . S
C585 H625 0.950 . S
C586 C585 1.439 . S
C586 N587 1.374 . S
C586 C620 1.395 . S
N587 C583 1.376 . S
N587 C586 1.374 . S
N587 Co588 2.008 1_455 S
Co588 N587 2.008 1_655 S
Co588 N589 1.995 1_655 S
Co588 N594 2.008 . S
Co588 N599 1.995 . S
Co588 N604 2.282 1_655 S
Co588 N610 2.282 . S
N589 Co588 1.995 1_455 S
N589 C590 1.376 . S
N589 C593 1.383 . S
C590 N589 1.376 . S
C590 C591 1.446 . S
C590 C620 1.391 . S
C591 C590 1.446 . S
C591 C592 1.339 . S
C591 H626 0.949 . S
C592 C591 1.339 . S
C592 C593 1.439 . S
C592 H627 0.950 . S
C593 N589 1.383 . S
C593 C592 1.439 . S
C593 C622 1.386 1_455 S
N594 Co588 2.008 . S
N594 C595 1.376 . S
N594 C598 1.374 . S
C595 N594 1.376 . S
C595 C596 1.443 . S
C595 C622 1.395 . S
C596 C595 1.443 . S
C596 C597 1.340 . S
C596 H628 0.951 . S
C597 C596 1.340 . S
C597 C598 1.439 . S
C597 H629 0.950 . S
C598 N594 1.374 . S
C598 C597 1.439 . S
C598 C623 1.395 . S
N599 Co588 1.995 . S
N599 C600 1.376 . S
N599 C603 1.383 . S
C600 N599 1.376 . S
C600 C601 1.446 . S
C600 C623 1.391 . S
C601 C600 1.446 . S
C601 C602 1.339 . S
C601 H630 0.949 1_556 S
C602 C601 1.339 . S
C602 C603 1.439 . S
C602 H631 0.950 1_556 S
C603 N599 1.383 . S
C603 C602 1.439 . S
C603 C621 1.395 1_655 S
N604 Co588 2.282 1_455 S
N604 C607 1.332 . S
N604 C609 1.332 . S
C605 C606 1.386 . S
C605 C608 1.388 1_554 S
C606 C605 1.386 . S
C606 C607 1.382 1_554 S
C606 H632 0.950 . S
C607 N604 1.332 . S
C607 C606 1.382 1_556 S
C607 H618 0.952 1_455 S
C608 C605 1.388 1_556 S
C608 C609 1.382 . S
C608 H633 0.950 . S
C609 N604 1.332 . S
C609 C608 1.382 . S
C609 H619 0.948 . S
N610 Co588 2.282 . S
N610 C614 1.332 . S
N610 C615 1.332 . S
C611 C612 1.388 . S
C611 C615 1.382 . S
C611 H634 0.950 . S
C612 C611 1.388 . S
C612 C613 1.386 . S
C613 C612 1.386 . S
C613 C614 1.382 . S
C613 H635 0.950 . S
C614 N610 1.332 . S
C614 C613 1.382 . S
C614 H616 0.952 1_655 S
C615 N610 1.332 . S
C615 C611 1.382 . S
C615 H617 0.948 . S
H616 C614 0.952 1_455 S
H617 C615 0.948 . S
H618 C607 0.952 1_655 S
H619 C609 0.948 . S
C620 C586 1.395 . S
C620 C590 1.391 . S
C621 C583 1.385 . S
C621 C603 1.395 1_455 S
C622 C593 1.386 1_655 S
C622 C595 1.395 . S
C623 C598 1.395 . S
C623 C600 1.391 . S
H624 C584 0.951 . S
H625 C585 0.950 . S
H626 C591 0.949 . S
H627 C592 0.950 . S
H628 C596 0.951 . S
H629 C597 0.950 . S
H630 C601 0.949 1_554 S
H631 C602 0.950 1_554 S
H632 C606 0.950 . S
H633 C608 0.950 . S
H634 C611 0.950 . S
H635 C613 0.950 . S
C636 C637 1.443 . S
C636 N640 1.376 . S
C636 C674 1.389 . S
C637 C636 1.443 . S
C637 C638 1.340 . S
C637 H677 0.951 . S
C638 C637 1.340 . S
C638 C639 1.439 . S
C638 H678 0.950 . S
C639 C638 1.439 . S
C639 N640 1.374 . S
C639 C673 1.395 . S
N640 C636 1.376 . S
N640 C639 1.374 . S
N640 Co641 2.008 1_565 S
Co641 N640 2.008 1_545 S
Co641 N642 1.995 1_545 S
Co641 N647 2.008 . S
Co641 N652 1.995 . S
Co641 N657 2.282 1_545 S
Co641 N663 2.282 . S
N642 Co641 1.995 1_565 S
N642 C643 1.376 . S
N642 C646 1.383 . S
C643 N642 1.376 . S
C643 C644 1.446 . S
C643 C673 1.391 . S
C644 C643 1.446 . S
C644 C645 1.339 . S
C644 H679 0.949 . S
C645 C644 1.339 . S
C645 C646 1.439 . S
C645 H680 0.950 . S
C646 N642 1.383 . S
C646 C645 1.439 . S
C646 C675 1.392 1_565 S
N647 Co641 2.008 . S
N647 C648 1.376 . S
N647 C651 1.374 . S
C648 N647 1.376 . S
C648 C649 1.443 . S
C648 C675 1.389 . S
C649 C648 1.443 . S
C649 C650 1.340 . S
C649 H681 0.951 . S
C650 C649 1.340 . S
C650 C651 1.439 . S
C650 H682 0.950 . S
C651 N647 1.374 . S
C651 C650 1.439 . S
C651 C676 1.395 . S
N652 Co641 1.995 . S
N652 C653 1.376 . S
N652 C656 1.383 . S
C653 N652 1.376 . S
C653 C654 1.446 . S
C653 C676 1.391 . S
C654 C653 1.446 . S
C654 C655 1.339 . S
C654 H683 0.949 . S
C655 C654 1.339 . S
C655 C656 1.439 . S
C655 H684 0.950 . S
C656 N652 1.383 . S
C656 C655 1.439 . S
C656 C674 1.392 1_545 S
N657 Co641 2.282 1_565 S
N657 C660 1.332 1_565 S
N657 C662 1.332 . S
C658 C659 1.386 . S
C658 C661 1.388 . S
C659 C658 1.386 . S
C659 C660 1.382 1_565 S
C659 H685 0.950 1_565 S
C660 N657 1.332 1_545 S
C660 C659 1.382 1_545 S
C660 H671 0.952 . S
C661 C658 1.388 . S
C661 C662 1.382 . S
C661 H686 0.950 . S
C662 N657 1.332 . S
C662 C661 1.382 . S
C662 H672 0.948 . S
N663 Co641 2.282 . S
N663 C667 1.332 1_545 S
N663 C668 1.332 . S
C664 C665 1.388 . S
C664 C668 1.382 . S
C664 H687 0.950 . S
C665 C664 1.388 . S
C665 C666 1.386 . S
C666 C665 1.386 . S
C666 C667 1.382 1_545 S
C666 H688 0.950 1_545 S
C667 N663 1.332 1_565 S
C667 C666 1.382 1_565 S
C667 H669 0.952 . S
C668 N663 1.332 . S
C668 C664 1.382 . S
C668 H670 0.948 . S
H669 C667 0.952 . S
H670 C668 0.948 . S
H671 C660 0.952 . S
H672 C662 0.948 . S
C673 C639 1.395 . S
C673 C643 1.391 . S
C674 C636 1.389 . S
C674 C656 1.392 1_565 S
C675 C646 1.392 1_545 S
C675 C648 1.389 . S
C676 C651 1.395 . S
C676 C653 1.391 . S
H677 C637 0.951 . S
H678 C638 0.950 . S
H679 C644 0.949 . S
H680 C645 0.950 . S
H681 C649 0.951 . S
H682 C650 0.950 . S
H683 C654 0.949 . S
H684 C655 0.950 . S
H685 C659 0.950 1_545 S
H686 C661 0.950 . S
H687 C664 0.950 . S
H688 C666 0.950 1_565 S
C689 C690 1.443 . S
C689 N693 1.376 . S
C689 C727 1.389 . S
C690 C689 1.443 . S
C690 C691 1.340 . S
C690 H730 0.951 . S
C691 C690 1.340 . S
C691 C692 1.439 . S
C691 H731 0.950 . S
C692 C691 1.439 . S
C692 N693 1.374 . S
C692 C726 1.395 . S
N693 C689 1.376 . S
N693 C692 1.374 . S
N693 Co694 2.008 . S
Co694 N693 2.008 . S
Co694 N695 1.995 . S
Co694 N700 2.008 . S
Co694 N705 1.995 . S
Co694 N710 2.282 . S
Co694 N716 2.282 . S
N695 Co694 1.995 . S
N695 C696 1.376 . S
N695 C699 1.383 . S
C696 N695 1.376 . S
C696 C697 1.446 . S
C696 C726 1.391 . S
C697 C696 1.446 . S
C697 C698 1.339 . S
C697 H732 0.949 . S
C698 C697 1.339 . S
C698 C699 1.439 . S
C698 H733 0.950 . S
C699 N695 1.383 . S
C699 C698 1.439 . S
C699 C728 1.392 . S
N700 Co694 2.008 . S
N700 C701 1.376 . S
N700 C704 1.374 . S
C701 N700 1.376 . S
C701 C702 1.443 . S
C701 C728 1.389 . S
C702 C701 1.443 . S
C702 C703 1.340 . S
C702 H734 0.951 . S
C703 C702 1.340 . S
C703 C704 1.439 . S
C703 H735 0.950 . S
C704 N700 1.374 . S
C704 C703 1.439 . S
C704 C729 1.395 . S
N705 Co694 1.995 . S
N705 C706 1.376 . S
N705 C709 1.383 . S
C706 N705 1.376 . S
C706 C707 1.446 . S
C706 C729 1.391 . S
C707 C706 1.446 . S
C707 C708 1.339 . S
C707 H736 0.949 . S
C708 C707 1.339 . S
C708 C709 1.439 . S
C708 H737 0.950 . S
C709 N705 1.383 . S
C709 C708 1.439 . S
C709 C727 1.392 . S
N710 Co694 2.282 . S
N710 C713 1.332 . S
N710 C715 1.332 . S
C711 C712 1.386 . S
C711 C714 1.388 . S
C712 C711 1.386 . S
C712 C713 1.382 . S
C712 H738 0.950 . S
C713 N710 1.332 . S
C713 C712 1.382 . S
C713 H724 0.952 . S
C714 C711 1.388 . S
C714 C715 1.382 . S
C714 H739 0.950 . S
C715 N710 1.332 . S
C715 C714 1.382 . S
C715 H725 0.948 . S
N716 Co694 2.282 . S
N716 C720 1.332 . S
N716 C721 1.332 . S
C717 C718 1.388 . S
C717 C721 1.382 . S
C717 H740 0.950 . S
C718 C717 1.388 . S
C718 C719 1.386 . S
C719 C718 1.386 . S
C719 C720 1.382 . S
C719 H741 0.950 . S
C720 N716 1.332 . S
C720 C719 1.382 . S
C720 H722 0.952 . S
C721 N716 1.332 . S
C721 C717 1.382 . S
C721 H723 0.948 . S
H722 C720 0.952 . S
H723 C721 0.948 . S
H724 C713 0.952 . S
H725 C715 0.948 . S
C726 C692 1.395 . S
C726 C696 1.391 . S
C727 C689 1.389 . S
C727 C709 1.392 . S
C728 C699 1.392 . S
C728 C701 1.389 . S
C729 C704 1.395 . S
C729 C706 1.391 . S
H730 C690 0.951 . S
H731 C691 0.950 . S
H732 C697 0.949 . S
H733 C698 0.950 . S
H734 C702 0.951 . S
H735 C703 0.950 . S
H736 C707 0.949 . S
H737 C708 0.950 . S
H738 C712 0.950 . S
H739 C714 0.950 . S
H740 C717 0.950 . S
H741 C719 0.950 . S
C742 C743 1.443 . S
C742 N746 1.376 . S
C742 C780 1.389 . S
C743 C742 1.443 . S
C743 C744 1.340 . S
C743 H783 0.951 . S
C744 C743 1.340 . S
C744 C745 1.439 . S
C744 H784 0.950 . S
C745 C744 1.439 . S
C745 N746 1.374 . S
C745 C779 1.395 . S
N746 C742 1.376 . S
N746 C745 1.374 . S
N746 Co747 2.008 . S
Co747 N746 2.008 . S
Co747 N748 1.995 . S
Co747 N753 2.008 . S
Co747 N758 1.995 . S
Co747 N763 2.282 . S
Co747 N769 2.282 . S
N748 Co747 1.995 . S
N748 C749 1.376 . S
N748 C752 1.383 . S
C749 N748 1.376 . S
C749 C750 1.446 . S
C749 C779 1.391 . S
C750 C749 1.446 . S
C750 C751 1.339 . S
C750 H785 0.949 . S
C751 C750 1.339 . S
C751 C752 1.439 . S
C751 H786 0.950 . S
C752 N748 1.383 . S
C752 C751 1.439 . S
C752 C781 1.392 . S
N753 Co747 2.008 . S
N753 C754 1.376 . S
N753 C757 1.374 . S
C754 N753 1.376 . S
C754 C755 1.443 . S
C754 C781 1.389 . S
C755 C754 1.443 . S
C755 C756 1.340 . S
C755 H787 0.951 . S
C756 C755 1.340 . S
C756 C757 1.439 . S
C756 H788 0.950 . S
C757 N753 1.374 . S
C757 C756 1.439 . S
C757 C782 1.395 . S
N758 Co747 1.995 . S
N758 C759 1.376 . S
N758 C762 1.383 . S
C759 N758 1.376 . S
C759 C760 1.446 . S
C759 C782 1.391 . S
C760 C759 1.446 . S
C760 C761 1.339 . S
C760 H789 0.949 . S
C761 C760 1.339 . S
C761 C762 1.439 . S
C761 H790 0.950 . S
C762 N758 1.383 . S
C762 C761 1.439 . S
C762 C780 1.392 . S
N763 Co747 2.282 . S
N763 C766 1.332 . S
N763 C768 1.332 . S
C764 C765 1.386 . S
C764 C767 1.388 . S
C765 C764 1.386 . S
C765 C766 1.382 . S
C765 H791 0.950 . S
C766 N763 1.332 . S
C766 C765 1.382 . S
C766 H777 0.952 . S
C767 C764 1.388 . S
C767 C768 1.382 . S
C767 H792 0.950 . S
C768 N763 1.332 . S
C768 C767 1.382 . S
C768 H778 0.948 . S
N769 Co747 2.282 . S
N769 C773 1.332 . S
N769 C774 1.332 . S
C770 C771 1.388 . S
C770 C774 1.382 . S
C770 H793 0.950 . S
C771 C770 1.388 . S
C771 C772 1.386 . S
C772 C771 1.386 . S
C772 C773 1.382 . S
C772 H794 0.950 . S
C773 N769 1.332 . S
C773 C772 1.382 . S
C773 H775 0.952 . S
C774 N769 1.332 . S
C774 C770 1.382 . S
C774 H776 0.948 . S
H775 C773 0.952 . S
H776 C774 0.948 . S
H777 C766 0.952 . S
H778 C768 0.948 . S
C779 C745 1.395 . S
C779 C749 1.391 . S
C780 C742 1.389 . S
C780 C762 1.392 . S
C781 C752 1.392 . S
C781 C754 1.389 . S
C782 C757 1.395 . S
C782 C759 1.391 . S
H783 C743 0.951 . S
H784 C744 0.950 . S
H785 C750 0.949 . S
H786 C751 0.950 . S
H787 C755 0.951 . S
H788 C756 0.950 . S
H789 C760 0.949 . S
H790 C761 0.950 . S
H791 C765 0.950 . S
H792 C767 0.950 . S
H793 C770 0.950 . S
H794 C772 0.950 . S
C795 C796 1.443 . S
C795 N799 1.376 . S
C795 C833 1.389 . S
C796 C795 1.443 . S
C796 C797 1.340 . S
C796 H836 0.951 . S
C797 C796 1.340 . S
C797 C798 1.439 . S
C797 H837 0.950 . S
C798 C797 1.439 . S
C798 N799 1.374 . S
C798 C832 1.395 . S
N799 C795 1.376 . S
N799 C798 1.374 . S
N799 Co800 2.008 1_655 S
Co800 N799 2.008 1_455 S
Co800 N801 1.995 1_455 S
Co800 N806 2.008 . S
Co800 N811 1.995 . S
Co800 N816 2.282 1_455 S
Co800 N822 2.282 . S
N801 Co800 1.995 1_655 S
N801 C802 1.376 . S
N801 C805 1.383 . S
C802 N801 1.376 . S
C802 C803 1.446 . S
C802 C832 1.391 . S
C803 C802 1.446 . S
C803 C804 1.339 . S
C803 H838 0.949 . S
C804 C803 1.339 . S
C804 C805 1.439 . S
C804 H839 0.950 . S
C805 N801 1.383 . S
C805 C804 1.439 . S
C805 C834 1.392 1_655 S
N806 Co800 2.008 . S
N806 C807 1.376 . S
N806 C810 1.374 . S
C807 N806 1.376 . S
C807 C808 1.443 . S
C807 C834 1.389 . S
C808 C807 1.443 . S
C808 C809 1.340 . S
C808 H840 0.951 . S
C809 C808 1.340 . S
C809 C810 1.439 . S
C809 H841 0.950 . S
C810 N806 1.374 . S
C810 C809 1.439 . S
C810 C835 1.395 . S
N811 Co800 1.995 . S
N811 C812 1.376 . S
N811 C815 1.383 . S
C812 N811 1.376 . S
C812 C813 1.446 . S
C812 C835 1.391 . S
C813 C812 1.446 . S
C813 C814 1.339 . S
C813 H842 0.949 . S
C814 C813 1.339 . S
C814 C815 1.439 . S
C814 H843 0.950 . S
C815 N811 1.383 . S
C815 C814 1.439 . S
C815 C833 1.392 1_455 S
N816 Co800 2.282 1_655 S
N816 C819 1.332 . S
N816 C821 1.332 . S
C817 C818 1.386 . S
C817 C820 1.388 . S
C818 C817 1.386 . S
C818 C819 1.382 . S
C818 H844 0.950 . S
C819 N816 1.332 . S
C819 C818 1.382 . S
C819 H830 0.952 1_655 S
C820 C817 1.388 . S
C820 C821 1.382 . S
C820 H845 0.950 . S
C821 N816 1.332 . S
C821 C820 1.382 . S
C821 H831 0.948 . S
N822 Co800 2.282 . S
N822 C826 1.332 . S
N822 C827 1.332 . S
C823 C824 1.388 . S
C823 C827 1.382 . S
C823 H846 0.950 . S
C824 C823 1.388 . S
C824 C825 1.386 . S
C825 C824 1.386 . S
C825 C826 1.382 . S
C825 H847 0.958 . S
C826 N822 1.332 . S
C826 C825 1.382 . S
C826 H828 0.952 1_455 S
C827 N822 1.332 . S
C827 C823 1.382 . S
C827 H829 0.948 . S
H828 C826 0.952 1_655 S
H829 C827 0.948 . S
H830 C819 0.952 1_455 S
H831 C821 0.948 . S
C832 C798 1.395 . S
C832 C802 1.391 . S
C833 C795 1.389 . S
C833 C815 1.392 1_655 S
C834 C805 1.392 1_455 S
C834 C807 1.389 . S
C835 C810 1.395 . S
C835 C812 1.391 . S
H836 C796 0.951 . S
H837 C797 0.950 . S
H838 C803 0.949 . S
H839 C804 0.950 . S
H840 C808 0.951 . S
H841 C809 0.950 . S
H842 C813 0.949 . S
H843 C814 0.950 . S
H844 C818 0.950 . S
H845 C820 0.950 . S
H846 C823 0.950 . S
H847 C825 0.958 . S
H848 C860 0.930 . S
H849 C862 0.930 . S
H850 C863 0.930 . S
H851 C867 0.959 . S
H852 C867 0.959 . S
H853 C867 0.961 . S
H854 C868 0.960 . S
H855 C868 0.961 . S
H856 C868 0.959 . S
H857 C871 0.929 . S
H858 C872 0.931 . S
H859 C874 0.930 . S
C860 H848 0.930 . S
C860 C861 1.399 . S
C860 C865 1.399 . S
C861 C860 1.399 . S
C861 C862 1.376 . S
C862 H849 0.930 . S
C862 C861 1.376 . S
C862 C863 1.388 . S
C863 H850 0.930 . S
C863 C862 1.388 . S
C863 C864 1.390 . S
C864 C863 1.390 . S
C864 C865 1.394 . S
C864 C870 1.465 . S
C865 C860 1.399 . S
C865 C864 1.394 . S
C865 C866 1.516 . S
C866 C865 1.516 . S
C866 C867 1.502 . S
C866 C868 1.561 . S
C866 C869 1.526 . S
C867 H851 0.959 . S
C867 H852 0.959 . S
C867 H853 0.961 . S
C867 C866 1.502 . S
C868 H854 0.960 . S
C868 H855 0.961 . S
C868 H856 0.959 . S
C868 C866 1.561 . S
C869 C866 1.526 . S
C869 C870 1.396 . S
C869 C874 1.390 . S
C870 C864 1.465 . S
C870 C869 1.396 . S
C870 C871 1.399 . S
C871 H857 0.929 . S
C871 C870 1.399 . S
C871 C872 1.385 . S
C872 H858 0.931 . S
C872 C871 1.385 . S
C872 C873 1.389 . S
C873 C872 1.389 . S
C873 C874 1.387 . S
C874 H859 0.930 . S
C874 C869 1.390 . S
C874 C873 1.387 . S
H875 C887 0.930 . S
H876 C889 0.930 . S
H877 C890 0.930 . S
H878 C894 0.959 . S
H879 C894 0.959 . S
H880 C894 0.961 . S
H881 C895 0.960 . S
H882 C895 0.961 . S
H883 C895 0.959 . S
H884 C898 0.929 . S
H885 C899 0.931 . S
H886 C901 0.930 . S
C887 H875 0.930 . S
C887 C888 1.399 . S
C887 C892 1.399 . S
C888 C887 1.399 . S
C888 C889 1.376 . S
C889 H876 0.930 . S
C889 C888 1.376 . S
C889 C890 1.388 . S
C890 H877 0.930 . S
C890 C889 1.388 . S
C890 C891 1.390 . S
C891 C890 1.390 . S
C891 C892 1.394 . S
C891 C897 1.465 . S
C892 C887 1.399 . S
C892 C891 1.394 . S
C892 C893 1.516 . S
C893 C892 1.516 . S
C893 C894 1.502 . S
C893 C895 1.561 . S
C893 C896 1.526 . S
C894 H878 0.959 . S
C894 H879 0.959 . S
C894 H880 0.961 . S
C894 C893 1.502 . S
C895 H881 0.960 . S
C895 H882 0.961 . S
C895 H883 0.959 . S
C895 C893 1.561 . S
C896 C893 1.526 . S
C896 C897 1.396 . S
C896 C901 1.390 . S
C897 C891 1.465 . S
C897 C896 1.396 . S
C897 C898 1.399 . S
C898 H884 0.929 . S
C898 C897 1.399 . S
C898 C899 1.385 . S
C899 H885 0.931 . S
C899 C898 1.385 . S
C899 C900 1.389 . S
C900 C899 1.389 . S
C900 C901 1.387 . S
C901 H886 0.930 . S
C901 C896 1.390 . S
C901 C900 1.387 . S
H902 C914 0.930 1_455 S
H903 C916 0.930 . S
H904 C917 0.930 . S
H905 C921 0.959 . S
H906 C921 0.959 . S
H907 C921 0.961 . S
H908 C922 0.960 . S
H909 C922 0.961 . S
H910 C922 0.959 . S
H911 C925 0.929 . S
H912 C926 0.931 . S
H913 C928 0.930 . S
C914 H902 0.930 1_655 S
C914 C915 1.399 . S
C914 C919 1.399 . S
C915 C914 1.399 . S
C915 C916 1.376 . S
C916 H903 0.930 . S
C916 C915 1.376 . S
C916 C917 1.388 . S
C917 H904 0.930 . S
C917 C916 1.388 . S
C917 C918 1.390 . S
C918 C917 1.390 . S
C918 C919 1.394 . S
C918 C924 1.465 . S
C919 C914 1.399 . S
C919 C918 1.394 . S
C919 C920 1.516 1_655 S
C920 C919 1.516 1_455 S
C920 C921 1.502 . S
C920 C922 1.561 . S
C920 C923 1.526 1_455 S
C921 H905 0.959 . S
C921 H906 0.959 . S
C921 H907 0.961 . S
C921 C920 1.502 . S
C922 H908 0.960 . S
C922 H909 0.961 . S
C922 H910 0.959 . S
C922 C920 1.561 . S
C923 C920 1.526 1_655 S
C923 C924 1.396 . S
C923 C928 1.390 1_655 S
C924 C918 1.465 . S
C924 C923 1.396 . S
C924 C925 1.399 . S
C925 H911 0.929 . S
C925 C924 1.399 . S
C925 C926 1.385 . S
C926 H912 0.931 . S
C926 C925 1.385 . S
C926 C927 1.389 . S
C927 C926 1.389 . S
C927 C928 1.387 1_655 S
C928 H913 0.930 . S
C928 C923 1.390 1_455 S
C928 C927 1.387 1_455 S
H929 C941 0.930 . S
H930 C943 0.930 . S
H931 C944 0.930 . S
H932 C948 0.959 . S
H933 C948 0.959 . S
H934 C948 0.961 . S
H935 C949 0.960 . S
H936 C949 0.967 . S
H937 C949 0.959 . S
H938 C952 0.929 . S
H939 C953 0.931 . S
H940 C955 0.930 . S
C941 H929 0.930 . S
C941 C942 1.399 . S
C941 C946 1.399 . S
C942 C941 1.399 . S
C942 C943 1.376 . S
C943 H930 0.930 . S
C943 C942 1.376 . S
C943 C944 1.388 . S
C944 H931 0.930 . S
C944 C943 1.388 . S
C944 C945 1.390 . S
C945 C944 1.390 . S
C945 C946 1.394 . S
C945 C951 1.465 . S
C946 C941 1.399 . S
C946 C945 1.394 . S
C946 C947 1.516 . S
C947 C946 1.516 . S
C947 C948 1.502 . S
C947 C949 1.561 1_455 S
C947 C950 1.526 . S
C948 H932 0.959 . S
C948 H933 0.959 . S
C948 H934 0.961 . S
C948 C947 1.502 . S
C949 H935 0.960 . S
C949 H936 0.967 . S
C949 H937 0.959 . S
C949 C947 1.561 1_655 S
C950 C947 1.526 . S
C950 C951 1.396 . S
C950 C955 1.390 . S
C951 C945 1.465 . S
C951 C950 1.396 . S
C951 C952 1.399 . S
C952 H938 0.929 . S
C952 C951 1.399 . S
C952 C953 1.385 . S
C953 H939 0.931 . S
C953 C952 1.385 . S
C953 C954 1.389 . S
C954 C953 1.389 . S
C954 C955 1.387 . S
C955 H940 0.930 . S
C955 C950 1.390 . S
C955 C954 1.387 . S
H956 C968 0.930 . S
H957 C970 0.930 . S
H958 C971 0.930 . S
H959 C975 0.959 . S
H960 C975 0.959 . S
H961 C975 0.961 . S
H962 C976 0.960 . S
H963 C976 0.961 . S
H964 C976 0.961 . S
H965 C979 0.929 . S
H966 C980 0.931 . S
H967 C982 0.930 . S
C968 H956 0.930 . S
C968 C969 1.399 . S
C968 C973 1.399 . S
C969 C968 1.399 . S
C969 C970 1.376 . S
C970 H957 0.930 . S
C970 C969 1.376 . S
C970 C971 1.388 . S
C971 H958 0.930 . S
C971 C970 1.388 . S
C971 C972 1.390 . S
C972 C971 1.390 . S
C972 C973 1.394 . S
C972 C978 1.465 . S
C973 C968 1.399 . S
C973 C972 1.394 . S
C973 C974 1.516 . S
C974 C973 1.516 . S
C974 C975 1.502 . S
C974 C976 1.561 . S
C974 C977 1.526 . S
C975 H959 0.959 . S
C975 H960 0.959 . S
C975 H961 0.961 . S
C975 C974 1.502 . S
C976 H962 0.960 . S
C976 H963 0.961 . S
C976 H964 0.961 . S
C976 C974 1.561 . S
C977 C974 1.526 . S
C977 C978 1.396 . S
C977 C982 1.390 . S
C978 C972 1.465 . S
C978 C977 1.396 . S
C978 C979 1.399 . S
C979 H965 0.929 . S
C979 C978 1.399 . S
C979 C980 1.385 . S
C980 H966 0.931 . S
C980 C979 1.385 . S
C980 C981 1.389 . S
C981 C980 1.389 . S
C981 C982 1.387 . S
C982 H967 0.930 . S
C982 C977 1.390 . S
C982 C981 1.387 . S
H983 C995 0.930 . S
H984 C997 0.930 . S
H985 C998 0.930 . S
H986 C1002 0.959 . S
H987 C1002 0.959 . S
H988 C1002 0.961 . S
H989 C1003 0.960 . S
H990 C1003 0.961 . S
H991 C1003 0.959 . S
H992 C1006 0.929 . S
H993 C1007 0.931 . S
H994 C1009 0.930 . S
C995 H983 0.930 . S
C995 C996 1.399 . S
C995 C1000 1.399 . S
C996 C995 1.399 . S
C996 C997 1.376 . S
C997 H984 0.930 . S
C997 C996 1.376 . S
C997 C998 1.388 . S
C998 H985 0.930 . S
C998 C997 1.388 . S
C998 C999 1.390 . S
C999 C998 1.390 . S
C999 C1000 1.394 . S
C999 C1005 1.465 . S
C1000 C995 1.399 . S
C1000 C999 1.394 . S
C1000 C1001 1.516 . S
C1001 C1000 1.516 . S
C1001 C1002 1.502 . S
C1001 C1003 1.561 . S
C1001 C1004 1.526 . S
C1002 H986 0.959 . S
C1002 H987 0.959 . S
C1002 H988 0.961 . S
C1002 C1001 1.502 . S
C1003 H989 0.960 . S
C1003 H990 0.961 . S
C1003 H991 0.959 . S
C1003 C1001 1.561 . S
C1004 C1001 1.526 . S
C1004 C1005 1.396 . S
C1004 C1009 1.390 . S
C1005 C999 1.465 . S
C1005 C1004 1.396 . S
C1005 C1006 1.399 . S
C1006 H992 0.929 . S
C1006 C1005 1.399 . S
C1006 C1007 1.385 . S
C1007 H993 0.931 . S
C1007 C1006 1.385 . S
C1007 C1008 1.389 . S
C1008 C1007 1.389 . S
C1008 C1009 1.387 . S
C1009 H994 0.930 . S
C1009 C1004 1.390 . S
C1009 C1008 1.387 . S
H1010 C1022 0.930 . S
H1011 C1024 0.930 . S
H1012 C1025 0.930 . S
H1013 C1029 0.959 . S
H1014 C1029 0.959 . S
H1015 C1029 0.961 . S
H1016 C1030 0.960 . S
H1017 C1030 0.961 . S
H1018 C1030 0.959 . S
H1019 C1033 0.929 . S
H1020 C1034 0.931 . S
H1021 C1036 0.930 . S
C1022 H1010 0.930 . S
C1022 C1023 1.399 . S
C1022 C1027 1.399 . S
C1023 C1022 1.399 . S
C1023 C1024 1.376 . S
C1024 H1011 0.930 . S
C1024 C1023 1.376 . S
C1024 C1025 1.388 . S
C1025 H1012 0.930 . S
C1025 C1024 1.388 . S
C1025 C1026 1.390 . S
C1026 C1025 1.390 . S
C1026 C1027 1.394 . S
C1026 C1032 1.465 . S
C1027 C1022 1.399 . S
C1027 C1026 1.394 . S
C1027 C1028 1.516 . S
C1028 C1027 1.516 . S
C1028 C1029 1.502 . S
C1028 C1030 1.561 . S
C1028 C1031 1.526 . S
C1029 H1013 0.959 . S
C1029 H1014 0.959 . S
C1029 H1015 0.961 . S
C1029 C1028 1.502 . S
C1030 H1016 0.960 . S
C1030 H1017 0.961 . S
C1030 H1018 0.959 . S
C1030 C1028 1.561 . S
C1031 C1028 1.526 . S
C1031 C1032 1.396 . S
C1031 C1036 1.390 . S
C1032 C1026 1.465 . S
C1032 C1031 1.396 . S
C1032 C1033 1.399 . S
C1033 H1019 0.929 . S
C1033 C1032 1.399 . S
C1033 C1034 1.385 . S
C1034 H1020 0.931 . S
C1034 C1033 1.385 . S
C1034 C1035 1.389 . S
C1035 C1034 1.389 . S
C1035 C1036 1.387 . S
C1036 H1021 0.930 . S
C1036 C1031 1.390 . S
C1036 C1035 1.387 . S
H1037 C1049 0.930 . S
H1038 C1051 0.930 . S
H1039 C1052 0.930 . S
H1040 C1056 0.959 . S
H1041 C1056 0.959 . S
H1042 C1056 0.961 . S
H1043 C1057 0.960 . S
H1044 C1057 0.961 . S
H1045 C1057 0.959 . S
H1046 C1060 0.929 . S
H1047 C1061 0.931 . S
H1048 C1063 0.930 . S
C1049 H1037 0.930 . S
C1049 C1050 1.399 . S
C1049 C1054 1.399 . S
C1050 C1049 1.399 . S
C1050 C1051 1.376 . S
C1051 H1038 0.930 . S
C1051 C1050 1.376 . S
C1051 C1052 1.388 . S
C1052 H1039 0.930 . S
C1052 C1051 1.388 . S
C1052 C1053 1.390 . S
C1053 C1052 1.390 . S
C1053 C1054 1.394 . S
C1053 C1059 1.465 . S
C1054 C1049 1.399 . S
C1054 C1053 1.394 . S
C1054 C1055 1.516 . S
C1055 C1054 1.516 . S
C1055 C1056 1.502 . S
C1055 C1057 1.561 . S
C1055 C1058 1.526 . S
C1056 H1040 0.959 . S
C1056 H1041 0.959 . S
C1056 H1042 0.961 . S
C1056 C1055 1.502 . S
C1057 H1043 0.960 . S
C1057 H1044 0.961 . S
C1057 H1045 0.959 . S
C1057 C1055 1.561 . S
C1058 C1055 1.526 . S
C1058 C1059 1.396 . S
C1058 C1063 1.390 . S
C1059 C1053 1.465 . S
C1059 C1058 1.396 . S
C1059 C1060 1.399 . S
C1060 H1046 0.929 . S
C1060 C1059 1.399 . S
C1060 C1061 1.385 . S
C1061 H1047 0.931 . S
C1061 C1060 1.385 . S
C1061 C1062 1.389 . S
C1062 C1061 1.389 . S
C1062 C1063 1.387 . S
C1063 H1048 0.930 . S
C1063 C1058 1.390 . S
C1063 C1062 1.387 . S
H1064 C1076 0.930 . S
H1065 C1078 0.930 1_545 S
H1066 C1079 0.930 . S
H1067 C1083 0.959 . S
H1068 C1083 0.959 . S
H1069 C1083 0.961 . S
H1070 C1084 0.960 . S
H1071 C1084 0.961 . S
H1072 C1084 0.959 . S
H1073 C1087 0.929 . S
H1074 C1088 0.931 . S
H1075 C1090 0.930 . S
C1076 H1064 0.930 . S
C1076 C1077 1.399 . S
C1076 C1081 1.399 . S
C1077 C1076 1.399 . S
C1077 C1078 1.376 . S
C1078 H1065 0.930 1_565 S
C1078 C1077 1.376 . S
C1078 C1079 1.388 1_565 S
C1079 H1066 0.930 . S
C1079 C1078 1.388 1_545 S
C1079 C1080 1.390 1_545 S
C1080 C1079 1.390 1_565 S
C1080 C1081 1.394 . S
C1080 C1086 1.465 . S
C1081 C1076 1.399 . S
C1081 C1080 1.394 . S
C1081 C1082 1.516 . S
C1082 C1081 1.516 . S
C1082 C1083 1.502 . S
C1082 C1084 1.561 . S
C1082 C1085 1.526 . S
C1083 H1067 0.959 . S
C1083 H1068 0.959 . S
C1083 H1069 0.961 . S
C1083 C1082 1.502 . S
C1084 H1070 0.960 . S
C1084 H1071 0.961 . S
C1084 H1072 0.959 . S
C1084 C1082 1.561 . S
C1085 C1082 1.526 . S
C1085 C1086 1.396 . S
C1085 C1090 1.390 . S
C1086 C1080 1.465 . S
C1086 C1085 1.396 . S
C1086 C1087 1.399 1_565 S
C1087 H1073 0.929 . S
C1087 C1086 1.399 1_545 S
C1087 C1088 1.385 . S
C1088 H1074 0.931 . S
C1088 C1087 1.385 . S
C1088 C1089 1.389 1_545 S
C1089 C1088 1.389 1_565 S
C1089 C1090 1.387 . S
C1090 H1075 0.930 . S
C1090 C1085 1.390 . S
C1090 C1089 1.387 . S
H1091 C1103 0.930 . S
H1092 C1105 0.930 . S
H1093 C1106 0.930 . S
H1094 C1110 0.959 . S
H1095 C1110 0.959 . S
H1096 C1110 0.961 . S
H1097 C1111 0.960 . S
H1098 C1111 0.961 . S
H1099 C1111 0.959 . S
H1100 C1114 0.929 . S
H1101 C1115 0.931 . S
H1102 C1117 0.930 . S
C1103 H1091 0.930 . S
C1103 C1104 1.399 . S
C1103 C1108 1.399 . S
C1104 C1103 1.399 . S
C1104 C1105 1.376 . S
C1105 H1092 0.930 . S
C1105 C1104 1.376 . S
C1105 C1106 1.388 . S
C1106 H1093 0.930 . S
C1106 C1105 1.388 . S
C1106 C1107 1.390 . S
C1107 C1106 1.390 . S
C1107 C1108 1.394 . S
C1107 C1113 1.465 . S
C1108 C1103 1.399 . S
C1108 C1107 1.394 . S
C1108 C1109 1.516 . S
C1109 C1108 1.516 . S
C1109 C1110 1.502 . S
C1109 C1111 1.561 . S
C1109 C1112 1.526 . S
C1110 H1094 0.959 . S
C1110 H1095 0.959 . S
C1110 H1096 0.961 . S
C1110 C1109 1.502 . S
C1111 H1097 0.960 . S
C1111 H1098 0.961 . S
C1111 H1099 0.959 . S
C1111 C1109 1.561 . S
C1112 C1109 1.526 . S
C1112 C1113 1.396 . S
C1112 C1117 1.390 . S
C1113 C1107 1.465 . S
C1113 C1112 1.396 . S
C1113 C1114 1.399 . S
C1114 H1100 0.929 . S
C1114 C1113 1.399 . S
C1114 C1115 1.385 . S
C1115 H1101 0.931 . S
C1115 C1114 1.385 . S
C1115 C1116 1.389 . S
C1116 C1115 1.389 . S
C1116 C1117 1.387 . S
C1117 H1102 0.930 . S
C1117 C1112 1.390 . S
C1117 C1116 1.387 . S
H1118 C1130 0.930 . S
H1119 C1132 0.930 . S
H1120 C1133 0.930 . S
H1121 C1137 0.959 . S
H1122 C1137 0.959 . S
H1123 C1137 0.961 . S
H1124 C1138 0.960 . S
H1125 C1138 0.961 . S
H1126 C1138 0.959 . S
H1127 C1141 0.929 . S
H1128 C1142 0.931 . S
H1129 C1144 0.930 . S
C1130 H1118 0.930 . S
C1130 C1131 1.399 . S
C1130 C1135 1.399 . S
C1131 C1130 1.399 . S
C1131 C1132 1.376 . S
C1132 H1119 0.930 . S
C1132 C1131 1.376 . S
C1132 C1133 1.388 . S
C1133 H1120 0.930 . S
C1133 C1132 1.388 . S
C1133 C1134 1.390 . S
C1134 C1133 1.390 . S
C1134 C1135 1.394 . S
C1134 C1140 1.465 . S
C1135 C1130 1.399 . S
C1135 C1134 1.394 . S
C1135 C1136 1.516 . S
C1136 C1135 1.516 . S
C1136 C1137 1.502 . S
C1136 C1138 1.561 . S
C1136 C1139 1.526 . S
C1137 H1121 0.959 . S
C1137 H1122 0.959 . S
C1137 H1123 0.961 . S
C1137 C1136 1.502 . S
C1138 H1124 0.960 . S
C1138 H1125 0.961 . S
C1138 H1126 0.959 . S
C1138 C1136 1.561 . S
C1139 C1136 1.526 . S
C1139 C1140 1.396 . S
C1139 C1144 1.390 . S
C1140 C1134 1.465 . S
C1140 C1139 1.396 . S
C1140 C1141 1.399 . S
C1141 H1127 0.929 . S
C1141 C1140 1.399 . S
C1141 C1142 1.385 . S
C1142 H1128 0.931 . S
C1142 C1141 1.385 . S
C1142 C1143 1.389 . S
C1143 C1142 1.389 . S
C1143 C1144 1.387 . S
C1144 H1129 0.930 . S
C1144 C1139 1.390 . S
C1144 C1143 1.387 . S
H1145 C1157 0.930 1_455 S
H1146 C1159 0.930 . S
H1147 C1160 0.930 . S
H1148 C1164 0.959 . S
H1149 C1164 0.959 . S
H1150 C1164 0.961 . S
H1151 C1165 0.960 . S
H1152 C1165 0.961 . S
H1153 C1165 0.959 . S
H1154 C1168 0.929 . S
H1155 C1169 0.931 . S
H1156 C1171 0.930 . S
C1157 H1145 0.930 1_655 S
C1157 C1158 1.399 . S
C1157 C1162 1.399 . S
C1158 C1157 1.399 . S
C1158 C1159 1.376 . S
C1159 H1146 0.930 . S
C1159 C1158 1.376 . S
C1159 C1160 1.388 . S
C1160 H1147 0.930 . S
C1160 C1159 1.388 . S
C1160 C1161 1.390 . S
C1161 C1160 1.390 . S
C1161 C1162 1.394 . S
C1161 C1167 1.465 . S
C1162 C1157 1.399 . S
C1162 C1161 1.394 . S
C1162 C1163 1.516 1_655 S
C1163 C1162 1.516 1_455 S
C1163 C1164 1.502 . S
C1163 C1165 1.561 1_455 S
C1163 C1166 1.527 1_455 S
C1164 H1148 0.959 . S
C1164 H1149 0.959 . S
C1164 H1150 0.961 . S
C1164 C1163 1.502 . S
C1165 H1151 0.960 . S
C1165 H1152 0.961 . S
C1165 H1153 0.959 . S
C1165 C1163 1.561 1_655 S
C1166 C1163 1.527 1_655 S
C1166 C1167 1.393 . S
C1166 C1171 1.390 1_655 S
C1167 C1161 1.465 . S
C1167 C1166 1.393 . S
C1167 C1168 1.399 . S
C1168 H1154 0.929 . S
C1168 C1167 1.399 . S
C1168 C1169 1.385 . S
C1169 H1155 0.931 . S
C1169 C1168 1.385 . S
C1169 C1170 1.389 . S
C1170 C1169 1.389 . S
C1170 C1171 1.387 1_655 S
C1171 H1156 0.930 . S
C1171 C1166 1.390 1_455 S
C1171 C1170 1.387 1_455 S
H1172 C1184 0.930 . S
H1173 C1186 0.930 . S
H1174 C1187 0.930 . S
H1175 C1191 0.959 . S
H1176 C1191 0.959 . S
H1177 C1191 0.961 . S
H1178 C1192 0.960 . S
H1179 C1192 0.961 . S
H1180 C1192 0.959 . S
H1181 C1195 0.929 . S
H1182 C1196 0.931 . S
H1183 C1198 0.930 . S
C1184 H1172 0.930 . S
C1184 C1185 1.399 . S
C1184 C1189 1.399 . S
C1185 C1184 1.399 . S
C1185 C1186 1.376 . S
C1186 H1173 0.930 . S
C1186 C1185 1.376 . S
C1186 C1187 1.388 . S
C1187 H1174 0.930 . S
C1187 C1186 1.388 . S
C1187 C1188 1.390 . S
C1188 C1187 1.390 . S
C1188 C1189 1.394 . S
C1188 C1194 1.465 . S
C1189 C1184 1.399 . S
C1189 C1188 1.394 . S
C1189 C1190 1.516 1_545 S
C1190 C1189 1.516 1_565 S
C1190 C1191 1.502 . S
C1190 C1192 1.561 . S
C1190 C1193 1.526 1_565 S
C1191 H1175 0.959 . S
C1191 H1176 0.959 . S
C1191 H1177 0.961 . S
C1191 C1190 1.502 . S
C1192 H1178 0.960 . S
C1192 H1179 0.961 . S
C1192 H1180 0.959 . S
C1192 C1190 1.561 . S
C1193 C1190 1.526 1_545 S
C1193 C1194 1.396 . S
C1193 C1198 1.390 1_545 S
C1194 C1188 1.465 . S
C1194 C1193 1.396 . S
C1194 C1195 1.399 . S
C1195 H1181 0.929 . S
C1195 C1194 1.399 . S
C1195 C1196 1.385 . S
C1196 H1182 0.931 . S
C1196 C1195 1.385 . S
C1196 C1197 1.389 . S
C1197 C1196 1.389 . S
C1197 C1198 1.387 1_545 S
C1198 H1183 0.930 . S
C1198 C1193 1.390 1_565 S
C1198 C1197 1.387 1_565 S
H1199 C1211 0.930 . S
H1200 C1213 0.930 . S
H1201 C1214 0.930 . S
H1202 C1218 0.959 . S
H1203 C1218 0.959 . S
H1204 C1218 0.961 . S
H1205 C1219 0.960 . S
H1206 C1219 0.961 . S
H1207 C1219 0.959 . S
H1208 C1222 0.929 . S
H1209 C1223 0.931 . S
H1210 C1225 0.930 . S
C1211 H1199 0.930 . S
C1211 C1212 1.399 . S
C1211 C1216 1.399 . S
C1212 C1211 1.399 . S
C1212 C1213 1.376 . S
C1213 H1200 0.930 . S
C1213 C1212 1.376 . S
C1213 C1214 1.388 . S
C1214 H1201 0.930 . S
C1214 C1213 1.388 . S
C1214 C1215 1.390 . S
C1215 C1214 1.390 . S
C1215 C1216 1.394 . S
C1215 C1221 1.465 . S
C1216 C1211 1.399 . S
C1216 C1215 1.394 . S
C1216 C1217 1.516 . S
C1217 C1216 1.516 . S
C1217 C1218 1.502 . S
C1217 C1219 1.561 . S
C1217 C1220 1.526 . S
C1218 H1202 0.959 . S
C1218 H1203 0.959 . S
C1218 H1204 0.961 . S
C1218 C1217 1.502 . S
C1219 H1205 0.960 . S
C1219 H1206 0.961 . S
C1219 H1207 0.959 . S
C1219 C1217 1.561 . S
C1220 C1217 1.526 . S
C1220 C1221 1.396 . S
C1220 C1225 1.390 . S
C1221 C1215 1.465 . S
C1221 C1220 1.396 . S
C1221 C1222 1.399 . S
C1222 H1208 0.929 . S
C1222 C1221 1.399 . S
C1222 C1223 1.385 . S
C1223 H1209 0.931 . S
C1223 C1222 1.385 . S
C1223 C1224 1.389 . S
C1224 C1223 1.389 . S
C1224 C1225 1.387 . S
C1225 H1210 0.930 . S
C1225 C1220 1.390 . S
C1225 C1224 1.387 . S
H1226 C1238 0.930 . S
H1227 C1240 0.930 . S
H1228 C1241 0.930 . S
H1229 C1245 0.959 . S
H1230 C1245 0.959 . S
H1231 C1245 0.961 . S
H1232 C1246 0.960 . S
H1233 C1246 0.961 . S
H1234 C1246 0.959 . S
H1235 C1249 0.929 . S
H1236 C1250 0.931 . S
H1237 C1252 0.930 . S
C1238 H1226 0.930 . S
C1238 C1239 1.399 . S
C1238 C1243 1.399 . S
C1239 C1238 1.399 . S
C1239 C1240 1.376 . S
C1240 H1227 0.930 . S
C1240 C1239 1.376 . S
C1240 C1241 1.388 . S
C1241 H1228 0.930 . S
C1241 C1240 1.388 . S
C1241 C1242 1.390 . S
C1242 C1241 1.390 . S
C1242 C1243 1.394 . S
C1242 C1248 1.465 . S
C1243 C1238 1.399 . S
C1243 C1242 1.394 . S
C1243 C1244 1.516 . S
C1244 C1243 1.516 . S
C1244 C1245 1.502 . S
C1244 C1246 1.561 . S
C1244 C1247 1.526 . S
C1245 H1229 0.959 . S
C1245 H1230 0.959 . S
C1245 H1231 0.961 . S
C1245 C1244 1.502 . S
C1246 H1232 0.960 . S
C1246 H1233 0.961 . S
C1246 H1234 0.959 . S
C1246 C1244 1.561 . S
C1247 C1244 1.526 . S
C1247 C1248 1.396 . S
C1247 C1252 1.390 . S
C1248 C1242 1.465 . S
C1248 C1247 1.396 . S
C1248 C1249 1.399 . S
C1249 H1235 0.929 . S
C1249 C1248 1.399 . S
C1249 C1250 1.385 . S
C1250 H1236 0.931 . S
C1250 C1249 1.385 . S
C1250 C1251 1.389 . S
C1251 C1250 1.389 . S
C1251 C1252 1.387 . S
C1252 H1237 0.930 . S
C1252 C1247 1.390 . S
C1252 C1251 1.387 . S
H1253 C1265 0.923 1_655 S
H1254 C1267 0.930 . S
H1255 C1268 0.930 . S
H1256 C1272 0.959 . S
H1257 C1272 0.959 . S
H1258 C1272 0.961 . S
H1259 C1273 0.960 . S
H1260 C1273 0.961 . S
H1261 C1273 0.959 . S
H1262 C1276 0.929 . S
H1263 C1277 0.931 . S
H1264 C1279 0.947 . S
C1265 H1253 0.923 1_455 S
C1265 C1266 1.399 . S
C1265 C1270 1.399 . S
C1266 C1265 1.399 . S
C1266 C1267 1.376 . S
C1267 H1254 0.930 . S
C1267 C1266 1.376 . S
C1267 C1268 1.388 . S
C1268 H1255 0.930 . S
C1268 C1267 1.388 . S
C1268 C1269 1.390 . S
C1269 C1268 1.390 . S
C1269 C1270 1.394 . S
C1269 C1275 1.465 . S
C1270 C1265 1.399 . S
C1270 C1269 1.394 . S
C1270 C1271 1.519 . S
C1271 C1270 1.519 . S
C1271 C1272 1.489 1_455 S
C1271 C1273 1.571 . S
C1271 C1274 1.528 . S
C1272 H1256 0.959 . S
C1272 H1257 0.959 . S
C1272 H1258 0.961 . S
C1272 C1271 1.489 1_655 S
C1273 H1259 0.960 . S
C1273 H1260 0.961 . S
C1273 H1261 0.959 . S
C1273 C1271 1.571 . S
C1274 C1271 1.528 . S
C1274 C1275 1.396 . S
C1274 C1279 1.383 1_455 S
C1275 C1269 1.465 . S
C1275 C1274 1.396 . S
C1275 C1276 1.399 . S
C1276 H1262 0.929 . S
C1276 C1275 1.399 . S
C1276 C1277 1.385 . S
C1277 H1263 0.931 . S
C1277 C1276 1.385 . S
C1277 C1278 1.389 . S
C1278 C1277 1.389 . S
C1278 C1279 1.379 1_455 S
C1279 H1264 0.947 . S
C1279 C1274 1.383 1_655 S
C1279 C1278 1.379 1_655 S
H1280 C1292 0.930 . S
H1281 C1294 0.930 . S
H1282 C1295 0.930 . S
H1283 C1299 0.959 . S
H1284 C1299 0.959 . S
H1285 C1299 0.961 . S
H1286 C1300 0.960 . S
H1287 C1300 0.961 . S
H1288 C1300 0.959 . S
H1289 C1303 0.929 . S
H1290 C1304 0.931 . S
H1291 C1306 0.930 . S
C1292 H1280 0.930 . S
C1292 C1293 1.399 . S
C1292 C1297 1.399 . S
C1293 C1292 1.399 . S
C1293 C1294 1.376 1_545 S
C1294 H1281 0.930 . S
C1294 C1293 1.376 1_565 S
C1294 C1295 1.388 . S
C1295 H1282 0.930 . S
C1295 C1294 1.388 . S
C1295 C1296 1.390 . S
C1296 C1295 1.390 . S
C1296 C1297 1.394 1_565 S
C1296 C1302 1.461 1_565 S
C1297 C1292 1.399 . S
C1297 C1296 1.394 1_545 S
C1297 C1298 1.516 . S
C1298 C1297 1.516 . S
C1298 C1299 1.502 . S
C1298 C1300 1.561 . S
C1298 C1301 1.526 . S
C1299 H1283 0.959 . S
C1299 H1284 0.959 . S
C1299 H1285 0.961 . S
C1299 C1298 1.502 . S
C1300 H1286 0.960 . S
C1300 H1287 0.961 . S
C1300 H1288 0.959 . S
C1300 C1298 1.561 . S
C1301 C1298 1.526 . S
C1301 C1302 1.444 . S
C1301 C1306 1.390 . S
C1302 C1296 1.461 1_545 S
C1302 C1301 1.444 . S
C1302 C1303 1.366 1_545 S
C1303 H1289 0.929 . S
C1303 C1302 1.366 1_565 S
C1303 C1304 1.385 . S
C1304 H1290 0.931 . S
C1304 C1303 1.385 . S
C1304 C1305 1.389 1_565 S
C1305 C1304 1.389 1_545 S
C1305 C1306 1.387 . S
C1306 H1291 0.930 . S
C1306 C1301 1.390 . S
C1306 C1305 1.387 . S
H1307 C1319 0.930 . S
H1308 C1321 0.930 . S
H1309 C1322 0.930 . S
H1310 C1326 0.959 . S
H1311 C1326 0.959 . S
H1312 C1326 0.961 . S
H1313 C1327 0.960 . S
H1314 C1327 0.961 . S
H1315 C1327 0.959 . S
H1316 C1330 0.929 . S
H1317 C1331 0.931 . S
H1318 C1333 0.930 . S
C1319 H1307 0.930 . S
C1319 C1320 1.399 . S
C1319 C1324 1.399 . S
C1320 C1319 1.399 . S
C1320 C1321 1.376 . S
C1321 H1308 0.930 . S
C1321 C1320 1.376 . S
C1321 C1322 1.388 . S
C1322 H1309 0.930 . S
C1322 C1321 1.388 . S
C1322 C1323 1.390 . S
C1323 C1322 1.390 . S
C1323 C1324 1.394 . S
C1323 C1329 1.465 . S
C1324 C1319 1.399 . S
C1324 C1323 1.394 . S
C1324 C1325 1.516 . S
C1325 C1324 1.516 . S
C1325 C1326 1.502 . S
C1325 C1327 1.561 . S
C1325 C1328 1.526 . S
C1326 H1310 0.959 . S
C1326 H1311 0.959 . S
C1326 H1312 0.961 . S
C1326 C1325 1.502 . S
C1327 H1313 0.960 . S
C1327 H1314 0.961 . S
C1327 H1315 0.959 . S
C1327 C1325 1.561 . S
C1328 C1325 1.526 . S
C1328 C1329 1.396 . S
C1328 C1333 1.390 . S
C1329 C1323 1.465 . S
C1329 C1328 1.396 . S
C1329 C1330 1.399 . S
C1330 H1316 0.929 . S
C1330 C1329 1.399 . S
C1330 C1331 1.385 . S
C1331 H1317 0.931 . S
C1331 C1330 1.385 . S
C1331 C1332 1.389 . S
C1332 C1331 1.389 . S
C1332 C1333 1.387 . S
C1333 H1318 0.930 . S
C1333 C1328 1.390 . S
C1333 C1332 1.387 . S
H1334 C1346 0.930 . S
H1335 C1348 0.930 . S
H1336 C1349 0.930 . S
H1337 C1353 0.959 . S
H1338 C1353 0.959 . S
H1339 C1353 0.961 . S
H1340 C1354 0.960 . S
H1341 C1354 0.961 . S
H1342 C1354 0.959 . S
H1343 C1357 0.929 . S
H1344 C1358 0.931 . S
H1345 C1360 0.930 . S
C1346 H1334 0.930 . S
C1346 C1347 1.399 . S
C1346 C1351 1.399 . S
C1347 C1346 1.399 . S
C1347 C1348 1.376 . S
C1348 H1335 0.930 . S
C1348 C1347 1.376 . S
C1348 C1349 1.388 . S
C1349 H1336 0.930 . S
C1349 C1348 1.388 . S
C1349 C1350 1.390 . S
C1350 C1349 1.390 . S
C1350 C1351 1.394 . S
C1350 C1356 1.465 . S
C1351 C1346 1.399 . S
C1351 C1350 1.394 . S
C1351 C1352 1.516 . S
C1352 C1351 1.516 . S
C1352 C1353 1.502 . S
C1352 C1354 1.561 . S
C1352 C1355 1.526 . S
C1353 H1337 0.959 . S
C1353 H1338 0.959 . S
C1353 H1339 0.961 . S
C1353 C1352 1.502 . S
C1354 H1340 0.960 . S
C1354 H1341 0.961 . S
C1354 H1342 0.959 . S
C1354 C1352 1.561 . S
C1355 C1352 1.526 . S
C1355 C1356 1.396 . S
C1355 C1360 1.390 . S
C1356 C1350 1.465 . S
C1356 C1355 1.396 . S
C1356 C1357 1.399 . S
C1357 H1343 0.929 . S
C1357 C1356 1.399 . S
C1357 C1358 1.385 . S
C1358 H1344 0.931 . S
C1358 C1357 1.385 . S
C1358 C1359 1.389 . S
C1359 C1358 1.389 . S
C1359 C1360 1.387 . S
C1360 H1345 0.930 . S
C1360 C1355 1.390 . S
C1360 C1359 1.387 . S
H1361 C1373 0.930 . S
H1362 C1375 0.930 . S
H1363 C1376 0.930 . S
H1364 C1380 0.959 . S
H1365 C1380 0.959 . S
H1366 C1380 0.961 . S
H1367 C1381 0.960 . S
H1368 C1381 0.961 . S
H1369 C1381 0.959 . S
H1370 C1384 0.929 . S
H1371 C1385 0.931 . S
H1372 C1387 0.909 1_655 S
C1373 H1361 0.930 . S
C1373 C1374 1.399 . S
C1373 C1378 1.399 . S
C1374 C1373 1.399 . S
C1374 C1375 1.376 . S
C1375 H1362 0.930 . S
C1375 C1374 1.376 . S
C1375 C1376 1.388 . S
C1376 H1363 0.930 . S
C1376 C1375 1.388 . S
C1376 C1377 1.390 . S
C1377 C1376 1.390 . S
C1377 C1378 1.394 . S
C1377 C1383 1.465 . S
C1378 C1373 1.399 . S
C1378 C1377 1.394 . S
C1378 C1379 1.516 . S
C1379 C1378 1.516 . S
C1379 C1380 1.502 1_455 S
C1379 C1381 1.561 . S
C1379 C1382 1.526 . S
C1380 H1364 0.959 . S
C1380 H1365 0.959 . S
C1380 H1366 0.961 . S
C1380 C1379 1.502 1_655 S
C1381 H1367 0.960 . S
C1381 H1368 0.961 . S
C1381 H1369 0.959 . S
C1381 C1379 1.561 . S
C1382 C1379 1.526 . S
C1382 C1383 1.396 . S
C1382 C1387 1.402 . S
C1383 C1377 1.465 . S
C1383 C1382 1.396 . S
C1383 C1384 1.399 . S
C1384 H1370 0.929 . S
C1384 C1383 1.399 . S
C1384 C1385 1.385 . S
C1385 H1371 0.931 . S
C1385 C1384 1.385 . S
C1385 C1386 1.389 . S
C1386 C1385 1.389 . S
C1386 C1387 1.396 . S
C1387 H1372 0.909 1_455 S
C1387 C1382 1.402 . S
C1387 C1386 1.396 . S
H1388 C1400 0.930 . S
H1389 C1402 0.930 . S
H1390 C1403 0.930 . S
H1391 C1407 0.959 . S
H1392 C1407 0.959 . S
H1393 C1407 0.961 . S
H1394 C1408 0.960 . S
H1395 C1408 0.961 . S
H1396 C1408 0.959 . S
H1397 C1411 0.929 . S
H1398 C1412 0.931 . S
H1399 C1414 0.930 1_545 S
C1400 H1388 0.930 . S
C1400 C1401 1.399 1_545 S
C1400 C1405 1.399 . S
C1401 C1400 1.399 1_565 S
C1401 C1402 1.376 . S
C1402 H1389 0.930 . S
C1402 C1401 1.376 . S
C1402 C1403 1.388 . S
C1403 H1390 0.930 . S
C1403 C1402 1.388 . S
C1403 C1404 1.390 . S
C1404 C1403 1.390 . S
C1404 C1405 1.394 1_565 S
C1404 C1410 1.465 . S
C1405 C1400 1.399 . S
C1405 C1404 1.394 1_545 S
C1405 C1406 1.516 . S
C1406 C1405 1.516 . S
C1406 C1407 1.502 . S
C1406 C1408 1.561 . S
C1406 C1409 1.526 1_545 S
C1407 H1391 0.959 . S
C1407 H1392 0.959 . S
C1407 H1393 0.961 . S
C1407 C1406 1.502 . S
C1408 H1394 0.960 . S
C1408 H1395 0.961 . S
C1408 H1396 0.959 . S
C1408 C1406 1.561 . S
C1409 C1406 1.526 1_565 S
C1409 C1410 1.396 . S
C1409 C1414 1.390 . S
C1410 C1404 1.465 . S
C1410 C1409 1.396 . S
C1410 C1411 1.399 . S
C1411 H1397 0.929 . S
C1411 C1410 1.399 . S
C1411 C1412 1.385 . S
C1412 H1398 0.931 . S
C1412 C1411 1.385 . S
C1412 C1413 1.389 . S
C1413 C1412 1.389 . S
C1413 C1414 1.387 . S
C1414 H1399 0.930 1_565 S
C1414 C1409 1.390 . S
C1414 C1413 1.387 . S
H1415 C1427 0.930 . S
H1416 C1429 0.930 . S
H1417 C1430 0.930 . S
H1418 C1434 0.959 . S
H1419 C1434 0.959 . S
H1420 C1434 0.961 . S
H1421 C1435 0.960 . S
H1422 C1435 0.961 . S
H1423 C1435 0.959 . S
H1424 C1438 0.929 . S
H1425 C1439 0.931 . S
H1426 C1441 0.930 . S
C1427 H1415 0.930 . S
C1427 C1428 1.399 . S
C1427 C1432 1.399 . S
C1428 C1427 1.399 . S
C1428 C1429 1.376 . S
C1429 H1416 0.930 . S
C1429 C1428 1.376 . S
C1429 C1430 1.388 . S
C1430 H1417 0.930 . S
C1430 C1429 1.388 . S
C1430 C1431 1.390 . S
C1431 C1430 1.390 . S
C1431 C1432 1.394 . S
C1431 C1437 1.465 . S
C1432 C1427 1.399 . S
C1432 C1431 1.394 . S
C1432 C1433 1.516 . S
C1433 C1432 1.516 . S
C1433 C1434 1.502 . S
C1433 C1435 1.561 . S
C1433 C1436 1.526 . S
C1434 H1418 0.959 . S
C1434 H1419 0.959 . S
C1434 H1420 0.961 . S
C1434 C1433 1.502 . S
C1435 H1421 0.960 . S
C1435 H1422 0.961 . S
C1435 H1423 0.959 . S
C1435 C1433 1.561 . S
C1436 C1433 1.526 . S
C1436 C1437 1.396 . S
C1436 C1441 1.390 . S
C1437 C1431 1.465 . S
C1437 C1436 1.396 . S
C1437 C1438 1.399 . S
C1438 H1424 0.929 . S
C1438 C1437 1.399 . S
C1438 C1439 1.385 . S
C1439 H1425 0.931 . S
C1439 C1438 1.385 . S
C1439 C1440 1.389 . S
C1440 C1439 1.389 . S
C1440 C1441 1.387 . S
C1441 H1426 0.930 . S
C1441 C1436 1.390 . S
C1441 C1440 1.387 . S
H1442 C1454 0.930 . S
H1443 C1456 0.930 . S
H1444 C1457 0.930 . S
H1445 C1461 0.959 . S
H1446 C1461 0.959 . S
H1447 C1461 0.961 . S
H1448 C1462 0.960 . S
H1449 C1462 0.961 . S
H1450 C1462 0.959 . S
H1451 C1465 0.929 . S
H1452 C1466 0.931 . S
H1453 C1468 0.930 . S
C1454 H1442 0.930 . S
C1454 C1455 1.399 . S
C1454 C1459 1.399 . S
C1455 C1454 1.399 . S
C1455 C1456 1.376 . S
C1456 H1443 0.930 . S
C1456 C1455 1.376 . S
C1456 C1457 1.388 . S
C1457 H1444 0.930 . S
C1457 C1456 1.388 . S
C1457 C1458 1.390 . S
C1458 C1457 1.390 . S
C1458 C1459 1.394 . S
C1458 C1464 1.465 . S
C1459 C1454 1.399 . S
C1459 C1458 1.394 . S
C1459 C1460 1.516 . S
C1460 C1459 1.516 . S
C1460 C1461 1.502 . S
C1460 C1462 1.561 . S
C1460 C1463 1.526 . S
C1461 H1445 0.959 . S
C1461 H1446 0.959 . S
C1461 H1447 0.961 . S
C1461 C1460 1.502 . S
C1462 H1448 0.960 . S
C1462 H1449 0.961 . S
C1462 H1450 0.959 . S
C1462 C1460 1.561 . S
C1463 C1460 1.526 . S
C1463 C1464 1.396 . S
C1463 C1468 1.390 . S
C1464 C1458 1.465 . S
C1464 C1463 1.396 . S
C1464 C1465 1.399 . S
C1465 H1451 0.929 . S
C1465 C1464 1.399 . S
C1465 C1466 1.385 . S
C1466 H1452 0.931 . S
C1466 C1465 1.385 . S
C1466 C1467 1.389 . S
C1467 C1466 1.389 . S
C1467 C1468 1.387 . S
C1468 H1453 0.930 . S
C1468 C1463 1.390 . S
C1468 C1467 1.387 . S
H1469 C1481 0.930 . S
H1470 C1483 0.930 . S
H1471 C1484 0.930 . S
H1472 C1488 0.959 . S
H1473 C1488 0.959 . S
H1474 C1488 0.961 . S
H1475 C1489 0.960 . S
H1476 C1489 0.961 . S
H1477 C1489 0.959 . S
H1478 C1492 0.929 1_455 S
H1479 C1493 0.931 . S
H1480 C1495 0.930 . S
C1481 H1469 0.930 . S
C1481 C1482 1.399 . S
C1481 C1486 1.399 . S
C1482 C1481 1.399 . S
C1482 C1483 1.376 1_655 S
C1483 H1470 0.930 . S
C1483 C1482 1.376 1_455 S
C1483 C1484 1.388 . S
C1484 H1471 0.930 . S
C1484 C1483 1.388 . S
C1484 C1485 1.390 1_455 S
C1485 C1484 1.390 1_655 S
C1485 C1486 1.394 . S
C1485 C1491 1.465 . S
C1486 C1481 1.399 . S
C1486 C1485 1.394 . S
C1486 C1487 1.516 . S
C1487 C1486 1.516 . S
C1487 C1488 1.502 . S
C1487 C1489 1.561 . S
C1487 C1490 1.526 . S
C1488 H1472 0.959 . S
C1488 H1473 0.959 . S
C1488 H1474 0.961 . S
C1488 C1487 1.502 . S
C1489 H1475 0.960 . S
C1489 H1476 0.961 . S
C1489 H1477 0.959 . S
C1489 C1487 1.561 . S
C1490 C1487 1.526 . S
C1490 C1491 1.396 . S
C1490 C1495 1.390 . S
C1491 C1485 1.465 . S
C1491 C1490 1.396 . S
C1491 C1492 1.399 . S
C1492 H1478 0.929 1_655 S
C1492 C1491 1.399 . S
C1492 C1493 1.385 . S
C1493 H1479 0.931 . S
C1493 C1492 1.385 . S
C1493 C1494 1.389 . S
C1494 C1493 1.389 . S
C1494 C1495 1.387 . S
C1495 H1480 0.930 . S
C1495 C1490 1.390 . S
C1495 C1494 1.387 . S
H1496 C1508 0.930 . S
H1497 C1510 0.930 . S
H1498 C1511 0.930 . S
H1499 C1515 0.959 . S
H1500 C1515 0.959 . S
H1501 C1515 0.961 . S
H1502 C1516 0.960 . S
H1503 C1516 0.961 . S
H1504 C1516 0.959 . S
H1505 C1519 0.929 . S
H1506 C1520 0.931 . S
H1507 C1522 0.930 . S
C1508 H1496 0.930 . S
C1508 C1509 1.375 1_545 S
C1508 C1513 1.399 . S
C1509 C1508 1.375 1_565 S
C1509 C1510 1.407 . S
C1510 H1497 0.930 . S
C1510 C1509 1.407 . S
C1510 C1511 1.388 . S
C1511 H1498 0.930 . S
C1511 C1510 1.388 . S
C1511 C1512 1.390 . S
C1512 C1511 1.390 . S
C1512 C1513 1.394 1_565 S
C1512 C1518 1.465 . S
C1513 C1508 1.399 . S
C1513 C1512 1.394 1_545 S
C1513 C1514 1.516 . S
C1514 C1513 1.516 . S
C1514 C1515 1.502 1_554 S
C1514 C1516 1.561 . S
C1514 C1517 1.526 . S
C1515 H1499 0.959 . S
C1515 H1500 0.959 . S
C1515 H1501 0.961 . S
C1515 C1514 1.502 1_556 S
C1516 H1502 0.960 . S
C1516 H1503 0.961 . S
C1516 H1504 0.959 . S
C1516 C1514 1.561 . S
C1517 C1514 1.526 . S
C1517 C1518 1.396 1_545 S
C1517 C1522 1.390 . S
C1518 C1512 1.465 . S
C1518 C1517 1.396 1_565 S
C1518 C1519 1.399 . S
C1519 H1505 0.929 . S
C1519 C1518 1.399 . S
C1519 C1520 1.385 . S
C1520 H1506 0.931 . S
C1520 C1519 1.385 . S
C1520 C1521 1.389 . S
C1521 C1520 1.389 . S
C1521 C1522 1.387 1_565 S
C1522 H1507 0.930 . S
C1522 C1517 1.390 . S
C1522 C1521 1.387 1_545 S
H1523 C1535 0.930 . S
H1524 C1537 0.930 1_554 S
H1525 C1538 0.930 1_554 S
H1526 C1542 0.959 . S
H1527 C1542 0.959 . S
H1528 C1542 0.961 . S
H1529 C1543 0.960 . S
H1530 C1543 0.961 . S
H1531 C1543 0.959 . S
H1532 C1546 0.929 1_554 S
H1533 C1547 0.931 1_554 S
H1534 C1549 0.930 . S
C1535 H1523 0.930 . S
C1535 C1536 1.399 . S
C1535 C1540 1.399 . S
C1536 C1535 1.399 . S
C1536 C1537 1.376 . S
C1537 H1524 0.930 1_556 S
C1537 C1536 1.376 . S
C1537 C1538 1.388 . S
C1538 H1525 0.930 1_556 S
C1538 C1537 1.388 . S
C1538 C1539 1.390 . S
C1539 C1538 1.390 . S
C1539 C1540 1.394 . S
C1539 C1545 1.465 . S
C1540 C1535 1.399 . S
C1540 C1539 1.394 . S
C1540 C1541 1.516 . S
C1541 C1540 1.516 . S
C1541 C1542 1.502 . S
C1541 C1543 1.561 . S
C1541 C1544 1.526 . S
C1542 H1526 0.959 . S
C1542 H1527 0.959 . S
C1542 H1528 0.961 . S
C1542 C1541 1.502 . S
C1543 H1529 0.960 . S
C1543 H1530 0.961 . S
C1543 H1531 0.959 . S
C1543 C1541 1.561 . S
C1544 C1541 1.526 . S
C1544 C1545 1.396 . S
C1544 C1549 1.390 . S
C1545 C1539 1.465 . S
C1545 C1544 1.396 . S
C1545 C1546 1.399 . S
C1546 H1532 0.929 1_556 S
C1546 C1545 1.399 . S
C1546 C1547 1.385 . S
C1547 H1533 0.931 1_556 S
C1547 C1546 1.385 . S
C1547 C1548 1.389 . S
C1548 C1547 1.389 . S
C1548 C1549 1.387 . S
C1549 H1534 0.930 . S
C1549 C1544 1.390 . S
C1549 C1548 1.387 . S
H1550 C1562 0.930 . S
H1551 C1564 0.930 . S
H1552 C1565 0.930 . S
H1553 C1569 0.959 . S
H1554 C1569 0.959 . S
H1555 C1569 0.961 . S
H1556 C1570 0.960 . S
H1557 C1570 0.961 . S
H1558 C1570 0.959 . S
H1559 C1573 0.929 . S
H1560 C1574 0.931 . S
H1561 C1576 0.930 . S
C1562 H1550 0.930 . S
C1562 C1563 1.399 1_556 S
C1562 C1567 1.399 . S
C1563 C1562 1.399 1_554 S
C1563 C1564 1.376 . S
C1564 H1551 0.930 . S
C1564 C1563 1.376 . S
C1564 C1565 1.388 . S
C1565 H1552 0.930 . S
C1565 C1564 1.388 . S
C1565 C1566 1.390 . S
C1566 C1565 1.390 . S
C1566 C1567 1.394 1_554 S
C1566 C1572 1.465 . S
C1567 C1562 1.399 . S
C1567 C1566 1.394 1_556 S
C1567 C1568 1.516 . S
C1568 C1567 1.516 . S
C1568 C1569 1.502 . S
C1568 C1570 1.561 . S
C1568 C1571 1.526 . S
C1569 H1553 0.959 . S
C1569 H1554 0.959 . S
C1569 H1555 0.961 . S
C1569 C1568 1.502 . S
C1570 H1556 0.960 . S
C1570 H1557 0.961 . S
C1570 H1558 0.959 . S
C1570 C1568 1.561 . S
C1571 C1568 1.526 . S
C1571 C1572 1.396 1_556 S
C1571 C1576 1.390 . S
C1572 C1566 1.465 . S
C1572 C1571 1.396 1_554 S
C1572 C1573 1.399 . S
C1573 H1559 0.929 . S
C1573 C1572 1.399 . S
C1573 C1574 1.385 . S
C1574 H1560 0.931 . S
C1574 C1573 1.385 . S
C1574 C1575 1.389 . S
C1575 C1574 1.389 . S
C1575 C1576 1.387 1_554 S
C1576 H1561 0.930 . S
C1576 C1571 1.390 . S
C1576 C1575 1.387 1_556 S
H1577 C1589 0.930 . S
H1578 C1591 0.930 1_554 S
H1579 C1592 0.930 1_554 S
H1580 C1596 0.959 . S
H1581 C1596 0.959 . S
H1582 C1596 0.961 1_545 S
H1583 C1597 0.945 1_545 S
H1584 C1597 0.972 . S
H1585 C1597 0.963 1_455 S
H1586 C1600 0.929 1_554 S
H1587 C1601 0.931 . S
H1588 C1603 0.930 . S
C1589 H1577 0.930 . S
C1589 C1590 1.399 1_655 S
C1589 C1594 1.399 . S
C1590 C1589 1.399 1_455 S
C1590 C1591 1.376 . S
C1591 H1578 0.930 1_556 S
C1591 C1590 1.376 . S
C1591 C1592 1.388 . S
C1592 H1579 0.930 1_556 S
C1592 C1591 1.388 . S
C1592 C1593 1.390 . S
C1593 C1592 1.390 . S
C1593 C1594 1.394 1_455 S
C1593 C1599 1.465 1_545 S
C1594 C1589 1.399 . S
C1594 C1593 1.394 1_655 S
C1594 C1595 1.516 1_545 S
C1595 C1594 1.516 1_565 S
C1595 C1596 1.502 . S
C1595 C1597 1.561 . S
C1595 C1598 1.526 . S
C1596 H1580 0.959 . S
C1596 H1581 0.959 . S
C1596 H1582 0.961 1_565 S
C1596 C1595 1.502 . S
C1597 H1583 0.945 1_565 S
C1597 H1584 0.972 . S
C1597 H1585 0.963 1_655 S
C1597 C1595 1.561 . S
C1598 C1595 1.526 . S
C1598 C1599 1.396 1_655 S
C1598 C1603 1.390 . S
C1599 C1593 1.465 1_565 S
C1599 C1598 1.396 1_455 S
C1599 C1600 1.399 . S
C1600 H1586 0.929 1_556 S
C1600 C1599 1.399 . S
C1600 C1601 1.385 . S
C1601 H1587 0.931 . S
C1601 C1600 1.385 . S
C1601 C1602 1.389 . S
C1602 C1601 1.389 . S
C1602 C1603 1.387 1_455 S
C1603 H1588 0.930 . S
C1603 C1598 1.390 . S
C1603 C1602 1.387 1_655 S
H1604 C1616 0.930 . S
H1605 C1618 0.930 . S
H1606 C1619 0.930 . S
H1607 C1623 0.959 . S
H1608 C1623 0.959 . S
H1609 C1623 0.961 . S
H1610 C1624 0.960 . S
H1611 C1624 0.961 . S
H1612 C1624 0.959 . S
H1613 C1627 0.929 . S
H1614 C1628 0.931 . S
H1615 C1630 0.930 . S
C1616 H1604 0.930 . S
C1616 C1617 1.402 1_565 S
C1616 C1621 1.399 . S
C1617 C1616 1.402 1_545 S
C1617 C1618 1.373 . S
C1618 H1605 0.930 . S
C1618 C1617 1.373 . S
C1618 C1619 1.388 . S
C1619 H1606 0.930 . S
C1619 C1618 1.388 . S
C1619 C1620 1.390 . S
C1620 C1619 1.390 . S
C1620 C1621 1.394 1_545 S
C1620 C1626 1.465 . S
C1621 C1616 1.399 . S
C1621 C1620 1.394 1_565 S
C1621 C1622 1.516 . S
C1622 C1621 1.516 . S
C1622 C1623 1.502 . S
C1622 C1624 1.561 . S
C1622 C1625 1.526 . S
C1623 H1607 0.959 . S
C1623 H1608 0.959 . S
C1623 H1609 0.961 . S
C1623 C1622 1.502 . S
C1624 H1610 0.960 . S
C1624 H1611 0.961 . S
C1624 H1612 0.959 . S
C1624 C1622 1.561 . S
C1625 C1622 1.526 . S
C1625 C1626 1.396 1_565 S
C1625 C1630 1.390 . S
C1626 C1620 1.465 . S
C1626 C1625 1.396 1_545 S
C1626 C1627 1.399 . S
C1627 H1613 0.929 . S
C1627 C1626 1.399 . S
C1627 C1628 1.385 . S
C1628 H1614 0.931 . S
C1628 C1627 1.385 . S
C1628 C1629 1.413 . S
C1629 C1628 1.413 . S
C1629 C1630 1.368 1_545 S
C1630 H1615 0.930 . S
C1630 C1625 1.390 . S
C1630 C1629 1.368 1_565 S
H1631 C1643 0.930 . S
H1632 C1645 0.930 . S
H1633 C1646 0.930 . S
H1634 C1650 0.959 . S
H1635 C1650 0.959 . S
H1636 C1650 0.961 . S
H1637 C1651 0.960 . S
H1638 C1651 0.961 . S
H1639 C1651 0.959 . S
H1640 C1654 0.929 . S
H1641 C1655 0.931 . S
H1642 C1657 0.930 . S
C1643 H1631 0.930 . S
C1643 C1644 1.399 . S
C1643 C1648 1.399 1_565 S
C1644 C1643 1.399 . S
C1644 C1645 1.376 . S
C1645 H1632 0.930 . S
C1645 C1644 1.376 . S
C1645 C1646 1.388 . S
C1646 H1633 0.930 . S
C1646 C1645 1.388 . S
C1646 C1647 1.390 1_565 S
C1647 C1646 1.390 1_545 S
C1647 C1648 1.394 . S
C1647 C1653 1.465 . S
C1648 C1643 1.399 1_545 S
C1648 C1647 1.394 . S
C1648 C1649 1.516 . S
C1649 C1648 1.516 . S
C1649 C1650 1.502 . S
C1649 C1651 1.561 . S
C1649 C1652 1.526 . S
C1650 H1634 0.959 . S
C1650 H1635 0.959 . S
C1650 H1636 0.961 . S
C1650 C1649 1.502 . S
C1651 H1637 0.960 . S
C1651 H1638 0.961 . S
C1651 H1639 0.959 . S
C1651 C1649 1.561 . S
C1652 C1649 1.526 . S
C1652 C1653 1.396 . S
C1652 C1657 1.390 . S
C1653 C1647 1.465 . S
C1653 C1652 1.396 . S
C1653 C1654 1.399 . S
C1654 H1640 0.929 . S
C1654 C1653 1.399 . S
C1654 C1655 1.385 . S
C1655 H1641 0.931 . S
C1655 C1654 1.385 . S
C1655 C1656 1.389 . S
C1656 C1655 1.389 . S
C1656 C1657 1.387 . S
C1657 H1642 0.930 . S
C1657 C1652 1.390 . S
C1657 C1656 1.387 . S
H1658 C1670 0.930 . S
H1659 C1672 0.930 . S
H1660 C1673 0.930 . S
H1661 C1677 0.959 . S
H1662 C1677 0.959 . S
H1663 C1677 0.961 . S
H1664 C1678 0.960 . S
H1665 C1678 0.961 . S
H1666 C1678 0.959 . S
H1667 C1681 0.929 . S
H1668 C1682 0.931 . S
H1669 C1684 0.930 . S
C1670 H1658 0.930 . S
C1670 C1671 1.399 . S
C1670 C1675 1.399 . S
C1671 C1670 1.399 . S
C1671 C1672 1.376 . S
C1672 H1659 0.930 . S
C1672 C1671 1.376 . S
C1672 C1673 1.388 . S
C1673 H1660 0.930 . S
C1673 C1672 1.388 . S
C1673 C1674 1.390 . S
C1674 C1673 1.390 . S
C1674 C1675 1.394 . S
C1674 C1680 1.465 . S
C1675 C1670 1.399 . S
C1675 C1674 1.394 . S
C1675 C1676 1.516 . S
C1676 C1675 1.516 . S
C1676 C1677 1.502 . S
C1676 C1678 1.561 . S
C1676 C1679 1.526 . S
C1677 H1661 0.959 . S
C1677 H1662 0.959 . S
C1677 H1663 0.961 . S
C1677 C1676 1.502 . S
C1678 H1664 0.960 . S
C1678 H1665 0.961 . S
C1678 H1666 0.959 . S
C1678 C1676 1.561 . S
C1679 C1676 1.526 . S
C1679 C1680 1.396 . S
C1679 C1684 1.390 . S
C1680 C1674 1.465 . S
C1680 C1679 1.396 . S
C1680 C1681 1.399 . S
C1681 H1667 0.929 . S
C1681 C1680 1.399 . S
C1681 C1682 1.385 . S
C1682 H1668 0.931 . S
C1682 C1681 1.385 . S
C1682 C1683 1.389 . S
C1683 C1682 1.389 . S
C1683 C1684 1.387 . S
C1684 H1669 0.930 . S
C1684 C1679 1.390 . S
C1684 C1683 1.387 . S
H1685 C1697 0.930 . S
H1686 C1699 0.930 . S
H1687 C1700 0.930 . S
H1688 C1704 0.959 . S
H1689 C1704 0.959 . S
H1690 C1704 0.961 . S
H1691 C1705 0.971 . S
H1692 C1705 0.961 1_455 S
H1693 C1705 0.959 . S
H1694 C1708 0.929 . S
H1695 C1709 0.931 . S
H1696 C1711 0.930 . S
C1697 H1685 0.930 . S
C1697 C1698 1.399 1_455 S
C1697 C1702 1.399 . S
C1698 C1697 1.399 1_655 S
C1698 C1699 1.376 . S
C1699 H1686 0.930 . S
C1699 C1698 1.376 . S
C1699 C1700 1.388 . S
C1700 H1687 0.930 . S
C1700 C1699 1.388 . S
C1700 C1701 1.390 . S
C1701 C1700 1.390 . S
C1701 C1702 1.394 1_655 S
C1701 C1707 1.465 . S
C1702 C1697 1.399 . S
C1702 C1701 1.394 1_455 S
C1702 C1703 1.516 . S
C1703 C1702 1.516 . S
C1703 C1704 1.502 . S
C1703 C1705 1.561 1_455 S
C1703 C1706 1.526 . S
C1704 H1688 0.959 . S
C1704 H1689 0.959 . S
C1704 H1690 0.961 . S
C1704 C1703 1.502 . S
C1705 H1691 0.971 . S
C1705 H1692 0.961 1_655 S
C1705 H1693 0.959 . S
C1705 C1703 1.561 1_655 S
C1706 C1703 1.526 . S
C1706 C1707 1.396 1_455 S
C1706 C1711 1.390 . S
C1707 C1701 1.465 . S
C1707 C1706 1.396 1_655 S
C1707 C1708 1.399 . S
C1708 H1694 0.929 . S
C1708 C1707 1.399 . S
C1708 C1709 1.385 . S
C1709 H1695 0.931 . S
C1709 C1708 1.385 . S
C1709 C1710 1.413 . S
C1710 C1709 1.413 . S
C1710 C1711 1.371 1_655 S
C1711 H1696 0.930 . S
C1711 C1706 1.390 . S
C1711 C1710 1.371 1_455 S
C861 C303 0.871 . S
C873 C29 0.914 . S
C888 C347 1.260 . S
C900 C91 1.217 . S
C915 C135 0.816 . S
C927 C409 0.895 . S
C942 C197 0.442 . S
C954 C241 0.532 . S
C969 C453 0.970 . S
C981 C718 1.037 . S
C996 C771 1.376 . S
C1008 C506 1.433 . S
C1023 C824 1.153 . S
C1035 C559 1.220 . S
C1050 C612 0.623 . S
C1062 C665 0.731 . S
C1077 C22 2.294 . S
C1089 C675 2.383 1_565 S
C1104 C728 2.303 . S
C1116 C92 2.276 . S
C1131 C128 2.687 . S
C1143 C781 2.775 . S
C1158 C198 2.083 . S
C1170 C834 2.083 1_655 S
C1185 C234 2.425 . S
C1197 C463 2.454 1_545 S
C1212 C304 2.552 . S
C1224 C516 2.608 . S
C1239 C340 2.501 . S
C1251 C569 2.535 . S
C1266 C410 1.820 . S
C1278 C622 1.822 1_455 S
C1293 C251 1.459 . S
C1305 C446 1.440 . S
C1320 C287 2.149 . S
C1332 C499 2.123 1_554 S
C1347 C357 2.325 . S
C1359 C552 2.245 . S
C1374 C605 2.074 . S
C1386 C393 2.058 1_455 S
C1401 C39 1.737 1_565 S
C1413 C658 1.775 . S
C1428 C711 2.333 . S
C1440 C75 2.360 . S
C1455 C764 1.886 . S
C1467 C145 1.906 . S
C1482 C181 1.969 1_655 S
C1494 C817 1.946 . S
C1509 C462 1.575 1_565 S
C1521 C38 1.571 1_565 S
C1536 C515 2.122 . S
C1548 C82 2.011 . S
C1563 C144 2.466 1_455 S
C1575 C568 2.445 . S
C1590 C621 2.004 . S
C1602 C188 1.941 . S
C1617 C250 2.007 1_645 S
C1629 C674 1.954 1_545 S
C1644 C727 2.505 . S
C1656 C294 2.494 . S
C1671 C780 1.991 . S
C1683 C356 1.971 . S
C1698 C833 1.604 . S
C1710 C400 1.530 1_655 S
