# Generated by pormake.
# Topology tfs, (6)-cn, num edge types: 1
# Building blocks:
#     Node 0, Type 0, BuildingBlock: UKALOJ_clean_sbu_0, # of connection points: 6
#     Node 1, Type 0, BuildingBlock: UKALOJ_clean_sbu_0, # of connection points: 6
#     Node 2, Type 0, BuildingBlock: UKALOJ_clean_sbu_0, # of connection points: 6
#     Node 3, Type 0, BuildingBlock: UKALOJ_clean_sbu_0, # of connection points: 6
#     Node 4, Type 0, BuildingBlock: UKALOJ_clean_sbu_0, # of connection points: 6
#     Node 5, Type 0, BuildingBlock: UKALOJ_clean_sbu_0, # of connection points: 6
#     Edge 6, Type (0, 0), BuildingBlock: ZUJKAS_clean_linker_0, # of connection points: 2
#     Edge 7, Type (0, 0), BuildingBlock: ZUJKAS_clean_linker_0, # of connection points: 2
#     Edge 8, Type (0, 0), BuildingBlock: ZUJKAS_clean_linker_0, # of connection points: 2
#     Edge 9, Type (0, 0), BuildingBlock: ZUJKAS_clean_linker_0, # of connection points: 2
#     Edge 10, Type (0, 0), BuildingBlock: ZUJKAS_clean_linker_0, # of connection points: 2
#     Edge 11, Type (0, 0), BuildingBlock: ZUJKAS_clean_linker_0, # of connection points: 2
#     Edge 12, Type (0, 0), BuildingBlock: ZUJKAS_clean_linker_0, # of connection points: 2
#     Edge 13, Type (0, 0), BuildingBlock: ZUJKAS_clean_linker_0, # of connection points: 2
#     Edge 14, Type (0, 0), BuildingBlock: ZUJKAS_clean_linker_0, # of connection points: 2
#     Edge 15, Type (0, 0), BuildingBlock: ZUJKAS_clean_linker_0, # of connection points: 2
#     Edge 16, Type (0, 0), BuildingBlock: ZUJKAS_clean_linker_0, # of connection points: 2
#     Edge 17, Type (0, 0), BuildingBlock: ZUJKAS_clean_linker_0, # of connection points: 2
#     Edge 18, Type (0, 0), BuildingBlock: ZUJKAS_clean_linker_0, # of connection points: 2
#     Edge 19, Type (0, 0), BuildingBlock: ZUJKAS_clean_linker_0, # of connection points: 2
#     Edge 20, Type (0, 0), BuildingBlock: ZUJKAS_clean_linker_0, # of connection points: 2
#     Edge 21, Type (0, 0), BuildingBlock: ZUJKAS_clean_linker_0, # of connection points: 2
#     Edge 22, Type (0, 0), BuildingBlock: ZUJKAS_clean_linker_0, # of connection points: 2
#     Edge 23, Type (0, 0), BuildingBlock: ZUJKAS_clean_linker_0, # of connection points: 2
# Relax obj value: 0.219
# Max RMSD: 0.155
# Mean RMSD: 0.155
data_MOF--net-tfs--node1-UKALOJ_clean_sbu_0--edge1-ZUJKAS_clean_linker_0
_symmetry_space_group_name_H-M    P1
_symmetry_Int_Tables_number       1
_symmetry_cell_setting            triclinic
loop_
_symmetry_equiv_pos_as_xyz
'x, y, z'
_cell_length_a     59.896964
_cell_length_b     59.921635
_cell_length_c     19.826317
_cell_angle_alpha  89.978987
_cell_angle_beta   90.041023
_cell_angle_gamma 119.98318
loop_
_atom_site_label
_atom_site_type_symbol
_atom_site_fract_x
_atom_site_fract_y
_atom_site_fract_z
_atom_type_partial_charge
Zn0 Zn 0.18135 0.43906 0.98904 0.0
O1 O 0.18005 0.44107 0.09518 0.0
C2 C 0.23818 0.46527 -0.00714 0.0
Zn3 Zn 0.19474 0.41035 0.9899 0.0
C4 C 0.18539 0.42609 0.12782 0.0
O5 O 0.19141 0.4115 0.0958 0.0
C6 C 0.19061 0.42339 0.85119 0.0
O7 O 0.15606 0.37898 0.98436 0.0
O8 O 0.14314 0.40747 0.98913 0.0
N9 N 0.20949 0.38638 0.00433 0.0
C10 C 0.21091 0.36797 0.96847 0.0
C11 C 0.23168 0.37324 0.05992 0.0
N12 N 0.22239 0.38949 0.06104 0.0
N13 N 0.22489 0.35944 0.00238 0.0
C14 C 0.17488 0.48773 0.00286 0.0
C15 C 0.14652 0.47983 0.92747 0.0
N16 N 0.16761 0.46414 0.97744 0.0
N17 N 0.14981 0.45923 0.93117 0.0
N18 N 0.16199 0.49809 0.97191 0.0
H19 H 0.20539 0.49023 0.06735 0.0
H20 H 0.18642 0.50245 0.1028 0.0
H21 H 0.20957 0.52079 0.03852 0.0
C22 C 0.1954 0.50101 0.0554 0.0
C23 C 0.19748 0.3577 0.90253 0.0
H24 H 0.17979 0.35923 0.89985 0.0
H25 H 0.19234 0.3373 0.89579 0.0
H26 H 0.21048 0.36933 0.86092 0.0
O27 O 0.19781 0.40983 0.88398 0.0
O28 O 0.18279 0.43662 0.883 0.0
C29 C 0.13781 0.3841 0.98586 0.0
O30 O 0.21975 0.4699 0.98815 0.0
O31 O 0.23313 0.44201 -0.00475 0.0
Zn32 Zn 0.74749 0.18409 0.03919 0.0
O33 O 0.74419 0.18119 0.14503 0.0
C34 C 0.78014 0.24052 0.04646 0.0
Zn35 Zn 0.7893 0.19573 0.03972 0.0
C36 C 0.76452 0.18654 0.17774 0.0
O37 O 0.78524 0.19286 0.14586 0.0
C38 C 0.77211 0.19326 0.90119 0.0
O39 O 0.78021 0.15655 0.03483 0.0
O40 O 0.73926 0.14559 0.03385 0.0
N41 N 0.82794 0.20888 0.05225 0.0
C42 C 0.8468 0.2088 0.0151 0.0
C43 C 0.8642 0.23026 0.10445 0.0
N44 N 0.83889 0.22218 0.10769 0.0
N45 N 0.86988 0.22228 0.04677 0.0
C46 C 0.69429 0.18199 0.04938 0.0
C47 C 0.67051 0.14977 0.98699 0.0
N48 N 0.70888 0.17199 0.02824 0.0
N49 N 0.69399 0.15189 0.98977 0.0
N50 N 0.6702 0.16855 0.02361 0.0
H51 H 0.71867 0.2052 0.13101 0.0
H52 H 0.687 0.20199 0.12898 0.0
H53 H 0.71107 0.22221 0.06861 0.0
C54 C 0.70328 0.20404 0.09768 0.0
C55 C 0.84211 0.19441 0.95014 0.0
H56 H 0.8224 0.17739 0.94939 0.0
H57 H 0.85647 0.18805 0.94299 0.0
H58 H 0.84378 0.20723 0.90773 0.0
O59 O 0.79241 0.1984 0.93384 0.0
O60 O 0.7514 0.18708 0.93308 0.0
C61 C 0.75652 0.13914 0.03257 0.0
O62 O 0.75669 0.2228 0.04474 0.0
O63 O 0.79776 0.23462 0.04419 0.0
Zn64 Zn 0.56556 0.7467 0.02771 0.0
O65 O 0.5655 0.74473 0.13364 0.0
C66 C 0.54591 0.7835 0.03294 0.0
Zn67 Zn 0.59738 0.78767 0.02762 0.0
C68 C 0.5811 0.76488 0.16605 0.0
O69 O 0.59639 0.78524 0.13392 0.0
C70 C 0.58184 0.76947 0.88924 0.0
O71 O 0.62437 0.77455 0.02432 0.0
O72 O 0.59287 0.73444 0.02371 0.0
N73 N 0.62737 0.82475 0.03427 0.0
C74 C 0.63088 0.84744 0.01104 0.0
C75 C 0.66478 0.85532 0.06537 0.0
N76 N 0.64847 0.82972 0.06788 0.0
N77 N 0.6542 0.86697 0.03024 0.0
C78 C 0.51222 0.6961 0.04246 0.0
C79 C 0.51834 0.66988 0.98363 0.0
N80 N 0.53676 0.70902 0.02011 0.0
N81 N 0.54051 0.69263 0.98383 0.0
N82 N 0.50018 0.67153 0.01976 0.0
H83 H 0.51563 0.7226 0.12071 0.0
H84 H 0.48589 0.69197 0.12191 0.0
H85 H 0.49111 0.71558 0.05846 0.0
C86 C 0.5006 0.70719 0.08899 0.0
C87 C 0.61206 0.85016 0.96687 0.0
H88 H 0.60029 0.83241 0.93719 0.0
H89 H 0.62224 0.86672 0.93196 0.0
H90 H 0.59888 0.85352 -0.00097 0.0
O91 O 0.59793 0.78936 0.92167 0.0
O92 O 0.56616 0.74929 0.92138 0.0
C93 C 0.61685 0.75062 0.02268 0.0
O94 O 0.53877 0.75965 0.032 0.0
O95 O 0.5698 0.80013 0.03074 0.0
Zn96 Zn 0.82232 0.56377 0.98878 0.0
O97 O 0.82306 0.56276 0.09515 0.0
C98 C 0.76579 0.54354 -0.0069 0.0
Zn99 Zn 0.81314 0.59535 0.98967 0.0
C100 C 0.81931 0.57887 0.12766 0.0
O101 O 0.81517 0.5948 0.09557 0.0
C102 C 0.81617 0.58033 0.85075 0.0
O103 O 0.85327 0.62259 0.98474 0.0
O104 O 0.86186 0.5911 0.98815 0.0
N105 N 0.80584 0.62502 -0.00316 0.0
C106 C 0.78585 0.62777 0.97679 0.0
C107 C 0.81208 0.66206 0.02925 0.0
N108 N 0.82215 0.64638 0.02918 0.0
N109 N 0.78924 0.6508 -0.00305 0.0
C110 C 0.82355 0.51299 0.01416 0.0
C111 C 0.84955 0.51557 0.93711 0.0
N112 N 0.83151 0.53543 0.98137 0.0
N113 N 0.84777 0.53704 0.93388 0.0
N114 N 0.83465 0.50017 0.98727 0.0
H115 H 0.79309 0.51346 0.07212 0.0
H116 H 0.81419 0.50622 0.1189 0.0
H117 H 0.79049 0.48221 0.06379 0.0
C118 C 0.80405 0.50316 0.07 0.0
C119 C 0.76387 0.60851 0.93454 0.0
H120 H 0.77006 0.59755 0.90211 0.0
H121 H 0.75609 0.61822 0.9024 0.0
H122 H 0.74826 0.59467 0.96808 0.0
O123 O 0.81131 0.59565 0.88336 0.0
O124 O 0.82154 0.56524 0.88275 0.0
C125 C 0.86969 0.61505 0.98539 0.0
O126 O 0.78261 0.53662 0.9885 0.0
O127 O 0.77307 0.56744 -0.00466 0.0
Zn128 Zn 0.2626 0.82029 0.95017 0.0
O129 O 0.26457 0.82162 0.05629 0.0
C130 C 0.22681 0.76358 0.95397 0.0
Zn131 Zn 0.22162 0.81066 0.95016 0.0
C132 C 0.2444 0.81702 0.0886 0.0
O133 O 0.2241 0.81207 0.05632 0.0
C134 C 0.23975 0.81397 0.8117 0.0
O135 O 0.23409 0.8508 0.94711 0.0
O136 O 0.27429 0.85974 0.94803 0.0
N137 N 0.18445 0.80299 0.95763 0.0
C138 C 0.16177 0.7832 0.93653 0.0
C139 C 0.15353 0.80898 -0.00939 0.0
N140 N 0.17927 0.81901 -0.00902 0.0
N141 N 0.14205 0.78643 0.95701 0.0
C142 C 0.31546 0.82318 0.97619 0.0
C143 C 0.33814 0.84866 0.89737 0.0
N144 N 0.30032 0.83008 0.94231 0.0
N145 N 0.31451 0.84601 0.89368 0.0
N146 N 0.33934 0.83466 0.94893 0.0
H147 H 0.28522 0.79251 0.03505 0.0
H148 H 0.31295 0.8151 0.08173 0.0
H149 H 0.31485 0.79154 0.02953 0.0
C150 C 0.30646 0.80434 0.03351 0.0
C151 C 0.15915 0.76155 0.89318 0.0
H152 H 0.17662 0.76775 0.86203 0.0
H153 H 0.14205 0.75441 0.8598 0.0
H154 H 0.15664 0.74549 0.92604 0.0
O155 O 0.21963 0.80947 0.84406 0.0
O156 O 0.26005 0.81892 0.84393 0.0
C157 C 0.25799 0.86738 0.94667 0.0
O158 O 0.25055 0.78062 0.95206 0.0
O159 O 0.20993 0.77057 0.95345 0.0
Zn160 Zn 0.44302 0.2611 0.96732 0.0
O161 O 0.44345 0.2632 0.07341 0.0
C162 C 0.46529 0.2263 0.97444 0.0
Zn163 Zn 0.41255 0.2197 0.96722 0.0
C164 C 0.42769 0.24309 0.10568 0.0
O165 O 0.41256 0.2227 0.07339 0.0
C166 C 0.42778 0.23771 0.82883 0.0
O167 O 0.38413 0.23102 0.9595 0.0
O168 O 0.41417 0.27173 0.96456 0.0
N169 N 0.38375 0.18215 0.97445 0.0
C170 C 0.3814 0.15978 0.95236 0.0
C171 C 0.34679 0.15063 0.00476 0.0
N172 N 0.36222 0.17639 0.00692 0.0
N173 N 0.35838 0.13969 0.97107 0.0
C174 C 0.49302 0.31454 -0.00924 0.0
C175 C 0.48977 0.33625 0.91 0.0
N176 N 0.4706 0.29908 0.95864 0.0
N177 N 0.4686 0.31272 0.90885 0.0
N178 N 0.50539 0.33798 0.96106 0.0
H179 H 0.50054 0.31435 0.09597 0.0
H180 H 0.52436 0.31388 0.04199 0.0
H181 H 0.49332 0.28508 0.05353 0.0
C182 C 0.50338 0.30629 0.04852 0.0
C183 C 0.40102 0.15788 0.90965 0.0
H184 H 0.41273 0.17582 0.88067 0.0
H185 H 0.39152 0.14139 0.87422 0.0
H186 H 0.41416 0.15481 0.94279 0.0
O187 O 0.41283 0.21734 0.86127 0.0
O188 O 0.44209 0.25837 0.86098 0.0
C189 C 0.39048 0.25468 0.96023 0.0
O190 O 0.47144 0.24986 0.96997 0.0
O191 O 0.44155 0.20907 0.97497 0.0
H192 H 0.39408 0.29948 0.00373 0.0
H193 H 0.36116 0.31211 -0.00192 0.0
H194 H 0.30967 0.24069 0.89721 0.0
H195 H 0.3421 0.22736 0.90632 0.0
H196 H 0.33964 0.32152 0.89806 0.0
H197 H 0.26234 0.23911 0.03866 0.0
H198 H 0.29473 0.24459 0.03383 0.0
H199 H 0.27261 0.22945 0.96486 0.0
C200 C 0.37566 0.28639 0.98079 0.0
C201 C 0.37057 0.26234 0.95601 0.0
C202 C 0.35685 0.29364 0.97741 0.0
C203 C 0.33266 0.2772 0.94823 0.0
C204 C 0.32779 0.2534 0.9219 0.0
H205 H 0.23922 0.35156 0.87752 0.0
H206 H 0.26116 0.32733 0.85302 0.0
C207 C 0.34642 0.24587 0.92669 0.0
C208 C 0.31297 0.28543 0.94479 0.0
H209 H 0.25152 0.26853 -0.00934 0.0
C210 C 0.32035 0.3099 0.91827 0.0
C211 C 0.28778 0.27032 0.97128 0.0
C212 C 0.27893 0.24453 0.00435 0.0
C213 C 0.30376 0.32012 0.91989 0.0
C214 C 0.27848 0.30495 0.94594 0.0
C215 C 0.27076 0.28007 0.97005 0.0
C216 C 0.26101 0.31564 0.95652 0.0
C217 C 0.31414 0.34764 0.89727 0.0
C218 C 0.25173 0.31544 0.02162 0.0
C219 C 0.23822 0.3283 0.03503 0.0
C220 C 0.23376 0.34188 0.98394 0.0
C221 C 0.24173 0.34087 0.91784 0.0
C222 C 0.25487 0.32749 0.90408 0.0
H223 H 0.33554 0.35841 0.89487 0.0
H224 H 0.30677 0.34775 0.84599 0.0
H225 H 0.30793 0.35807 0.93187 0.0
H226 H 0.25602 0.30638 0.06303 0.0
H227 H 0.23228 0.32869 0.0864 0.0
H228 H 0.11804 0.33441 0.94047 0.0
H229 H 0.0724 0.30115 0.93113 0.0
H230 H 0.05064 0.35336 0.01915 0.0
H231 H 0.0958 0.38678 0.02573 0.0
H232 H 0.03551 0.27622 0.01821 0.0
H233 H 0.0055 0.33153 0.85768 0.0
H234 H 0.03898 0.34218 0.8738 0.0
H235 H 0.02058 0.34965 0.93233 0.0
C236 C 0.10345 0.33876 0.95755 0.0
C237 C 0.11049 0.36331 0.9831 0.0
C238 C 0.07739 0.31977 0.9521 0.0
C239 C 0.05795 0.32494 0.97256 0.0
C240 C 0.06512 0.34915 0.00047 0.0
H241 H 0.90874 0.22913 0.12756 0.0
H242 H 0.95425 0.24998 0.09897 0.0
C243 C 0.09102 0.36821 0.00482 0.0
C244 C 0.03017 0.305 0.96723 0.0
H245 H 0.97162 0.29741 0.92403 0.0
C246 C 0.02157 0.28069 -0.00349 0.0
C247 C 0.01189 0.31029 0.93686 0.0
C248 C 0.01979 0.33473 0.8977 0.0
C249 C 0.99517 0.26236 0.00053 0.0
C250 C 0.97677 0.26884 0.97697 0.0
C251 C 0.9855 0.29243 0.9434 0.0
C252 C 0.94868 0.25283 -0.00801 0.0
C253 C 0.9874 0.23631 0.03033 0.0
C254 C 0.93005 0.24768 0.94189 0.0
C255 C 0.90387 0.23635 0.95872 0.0
C256 C 0.89575 0.22961 0.02592 0.0
C257 C 0.91433 0.2338 0.07525 0.0
C258 C 0.94043 0.24549 0.05871 0.0
H259 H 1.00201 0.2306 0.01882 0.0
H260 H 0.98633 0.23731 0.08603 0.0
H261 H 0.96842 0.22115 0.01098 0.0
H262 H 0.93586 0.25343 0.89013 0.0
H263 H 0.89036 0.23437 0.9198 0.0
H264 H 0.70776 0.09806 0.03677 0.0
H265 H 0.69429 0.0525 0.02862 0.0
H266 H 0.77361 0.07169 0.00793 0.0
H267 H 0.78743 0.11764 0.01729 0.0
H268 H 0.70177 0.02646 0.92407 0.0
H269 H 0.74754 0.01878 0.16063 0.0
H270 H 0.7438 0.04624 0.14228 0.0
H271 H 0.7688 0.04288 0.10186 0.0
C272 C 0.72243 0.09269 0.03077 0.0
C273 C 0.74871 0.11152 0.02804 0.0
C274 C 0.71466 0.06659 0.02597 0.0
C275 C 0.73294 0.05868 0.01838 0.0
C276 C 0.75921 0.07737 0.01502 0.0
H277 H 0.70414 0.90019 0.00372 0.0
H278 H 0.72495 0.94726 -0.00583 0.0
C279 C 0.76706 0.1036 0.02011 0.0
C280 C 0.72409 0.0308 0.01339 0.0
H281 H 0.72496 0.98109 0.09532 0.0
C282 C 0.70696 0.01655 0.96129 0.0
C283 C 0.73095 0.01795 0.06191 0.0
C284 C 0.74861 0.03213 0.12021 0.0
C285 C 0.69614 0.98974 0.95705 0.0
C286 C 0.70242 0.97682 0.00663 0.0
C287 C 0.72019 0.99111 0.05745 0.0
C288 C 0.68973 0.94836 0.00873 0.0
C289 C 0.678 0.97541 0.89973 0.0
C290 C 0.66313 0.9335 0.02066 0.0
C291 C 0.65129 0.90672 0.02642 0.0
C292 C 0.66583 0.89432 0.01984 0.0
C293 C 0.69249 0.90929 0.00815 0.0
C294 C 0.70435 0.93608 0.00269 0.0
H295 H 0.68048 0.98844 0.85695 0.0
H296 H 0.681 0.95963 0.88111 0.0
H297 H 0.65783 0.96673 0.91786 0.0
H298 H 0.65164 0.94268 0.02738 0.0
H299 H 0.63099 0.89588 0.03843 0.0
H300 H 0.80256 0.69998 0.97155 0.0
H301 H 0.77423 0.71864 0.97442 0.0
H302 H 0.70919 0.64352 0.01647 0.0
H303 H 0.73755 0.62515 0.01649 0.0
H304 H 0.73043 0.70752 0.89889 0.0
H305 H 0.70729 0.6875 0.17082 0.0
H306 H 0.73325 0.68529 0.13132 0.0
H307 H 0.70053 0.65941 0.12283 0.0
C308 C 0.78217 0.68752 0.98094 0.0
C309 C 0.77214 0.66107 -0.00756 0.0
C310 C 0.76605 0.69814 0.98249 0.0
C311 C 0.7397 0.68249 -0.00359 0.0
C312 C 0.72954 0.65597 0.00647 0.0
H313 H 0.60696 0.701 0.02744 0.0
H314 H 0.63793 0.68587 0.01982 0.0
C315 C 0.74567 0.64539 0.00518 0.0
C316 C 0.72287 0.69392 0.00148 0.0
H317 H 0.68221 0.70106 0.10831 0.0
C318 C 0.72003 0.70631 0.94477 0.0
C319 C 0.7095 0.69243 0.06164 0.0
C320 C 0.71295 0.68067 0.12534 0.0
C321 C 0.70345 0.71653 0.94599 0.0
C322 C 0.68964 0.71446 0.00563 0.0
C323 C 0.69279 0.70246 0.06262 0.0
C324 C 0.67119 0.72395 0.00948 0.0
C325 C 0.70023 0.72883 0.88309 0.0
C326 C 0.67979 0.75042 0.00688 0.0
C327 C 0.66216 0.75919 0.01151 0.0
C328 C 0.63567 0.74157 0.01878 0.0
C329 C 0.62722 0.71507 0.02171 0.0
C330 C 0.64485 0.70637 0.01739 0.0
H331 H 0.70867 0.7248 0.83803 0.0
H332 H 0.67951 0.72185 0.87333 0.0
H333 H 0.71004 0.75002 0.89023 0.0
H334 H 0.70014 0.76427 0.00172 0.0
H335 H 0.66928 0.77972 0.0092 0.0
H336 H 0.11572 0.73468 0.97454 0.0
H337 H 0.06894 0.70651 0.97286 0.0
H338 H 0.05949 0.77207 0.93272 0.0
H339 H 0.10647 0.80018 0.93179 0.0
H340 H 0.03494 0.71035 0.05947 0.0
H341 H 0.01163 0.71967 0.79335 0.0
H342 H 0.04394 0.72929 0.82091 0.0
H343 H 0.03052 0.74974 0.83667 0.0
C344 C 0.10373 0.74292 0.96283 0.0
C345 C 0.1147 0.76948 0.95119 0.0
C346 C 0.077 0.72689 0.96281 0.0
C347 C 0.06077 0.73714 0.95149 0.0
C348 C 0.07166 0.76367 0.9399 0.0
H349 H 0.89338 0.66749 0.97024 0.0
H350 H 0.93981 0.69807 0.96363 0.0
C351 C 0.09842 0.7797 0.93979 0.0
C352 C 0.03248 0.7203 0.9564 0.0
H353 H 0.97629 0.69742 0.86799 0.0
C354 C 0.02212 0.70746 0.01755 0.0
C355 C 0.01582 0.71675 0.90176 0.0
C356 C 0.02599 0.72939 0.83423 0.0
C357 C 0.99551 0.69115 0.0256 0.0
C358 C 0.9789 0.68736 0.97077 0.0
C359 C 0.98915 0.70046 0.9099 0.0
C360 C 0.95091 0.66903 0.97492 0.0
C361 C 0.98534 0.67825 0.09288 0.0
C362 C 0.94193 0.64264 0.98273 0.0
C363 C 0.91554 0.62517 0.98642 0.0
C364 C 0.89762 0.63378 0.98219 0.0
C365 C 0.9067 0.66027 0.97396 0.0
C366 C 0.93316 0.67774 0.97003 0.0
H367 H 0.99957 0.68802 0.134 0.0
H368 H 0.9672 0.67801 0.10604 0.0
H369 H 0.9811 0.658 0.09007 0.0
H370 H 0.95535 0.63553 0.98554 0.0
H371 H 0.90922 0.60489 -0.00756 0.0
H372 H 0.22877 0.89085 0.93841 0.0
H373 H 0.24417 0.93719 0.93405 0.0
H374 H 0.3227 0.9532 0.94693 0.0
H375 H 0.30762 0.90715 0.95015 0.0
H376 H 0.2731 0.97459 0.02821 0.0
H377 H 0.32555 0.99629 0.7853 0.0
H378 H 0.30283 0.96384 0.81156 0.0
H379 H 0.33527 0.97987 0.84373 0.0
C380 C 0.24932 0.90425 0.93993 0.0
C381 C 0.26697 0.8953 0.94428 0.0
C382 C 0.25807 0.93069 0.93742 0.0
C383 C 0.28459 0.9486 0.93886 0.0
C384 C 0.30219 0.93972 0.94399 0.0
H385 H 0.38309 0.11226 0.98201 0.0
H386 H 0.36397 0.06557 0.96983 0.0
C387 C 0.2935 0.91335 0.94633 0.0
C388 C 0.29397 0.97665 0.93785 0.0
H389 H 0.33468 0.03245 0.85512 0.0
C390 C 0.28631 0.98722 0.98994 0.0
C391 C 0.3112 0.99306 0.88778 0.0
C392 C 0.31901 0.98267 0.82855 0.0
C393 C 0.29616 0.0139 -0.00533 0.0
C394 C 0.31389 0.03033 0.9456 0.0
C395 C 0.32117 0.01975 0.89281 0.0
C396 C 0.32555 0.05864 0.94926 0.0
C397 C 0.28819 0.02443 0.05325 0.0
C398 C 0.31033 0.07016 0.94062 0.0
C399 C 0.32131 0.09684 0.94657 0.0
C400 C 0.34771 0.11247 0.96059 0.0
C401 C 0.36294 0.10086 0.96873 0.0
C402 C 0.35198 0.07418 0.96255 0.0
H403 H 0.27831 0.00977 0.09336 0.0
H404 H 0.30521 0.04141 0.07556 0.0
H405 H 0.27472 0.03077 0.03506 0.0
H406 H 0.28994 0.05849 0.92972 0.0
H407 H 0.30917 0.10535 0.94044 0.0
H408 H 0.25715 0.74313 0.98631 0.0
H409 H 0.24481 0.69771 -0.00749 0.0
H410 H 0.16708 0.67602 0.93512 0.0
H411 H 0.17913 0.72152 0.93088 0.0
H412 H 0.16725 0.64602 0.0354 0.0
H413 H 0.23412 0.6514 0.83504 0.0
H414 H 0.25052 0.67351 0.90262 0.0
H415 H 0.22786 0.67737 0.85129 0.0
C416 C 0.23743 0.72872 0.97479 0.0
C417 C 0.21914 0.73596 0.95761 0.0
C418 C 0.23044 0.70273 0.97803 0.0
C419 C 0.20516 0.68342 0.96284 0.0
C420 C 0.18675 0.69058 0.9467 0.0
H421 H 0.16314 0.52628 0.86518 0.0
H422 H 0.17179 0.57066 0.86501 0.0
C423 C 0.19366 0.7166 0.94424 0.0
C424 C 0.19791 0.6558 0.96417 0.0
H425 H 0.21417 0.61294 0.90026 0.0
C426 C 0.17741 0.63874 0.00559 0.0
C427 C 0.21092 0.64621 0.92452 0.0
C428 C 0.23189 0.66302 0.87534 0.0
C429 C 0.16979 0.61244 0.00913 0.0
C430 C 0.18351 0.60309 0.97159 0.0
C431 C 0.20382 0.62012 0.92964 0.0
C432 C 0.1768 0.5756 0.97316 0.0
C433 C 0.14674 0.5949 0.05179 0.0
C434 C 0.17649 0.56341 0.03403 0.0
C435 C 0.17108 0.53781 0.03427 0.0
C436 C 0.16659 0.52414 0.97346 0.0
C437 C 0.16661 0.53632 0.91282 0.0
C438 C 0.17169 0.56174 0.91264 0.0
H439 H 0.13403 0.6032 0.06037 0.0
H440 H 0.13518 0.57567 0.02794 0.0
H441 H 0.15347 0.59228 0.10176 0.0
H442 H 0.18071 0.57377 0.08134 0.0
H443 H 0.17023 0.52876 0.08204 0.0
H444 H 0.51754 0.25843 0.97315 0.0
H445 H 0.5511 0.24683 0.98462 0.0
H446 H 0.49295 0.16672 0.00281 0.0
H447 H 0.45919 0.17809 -0.00951 0.0
H448 H 0.55996 0.22213 0.09131 0.0
H449 H 0.53977 0.16525 0.8553 0.0
H450 H 0.52674 0.18617 0.87127 0.0
H451 H 0.51248 0.15491 0.91009 0.0
C452 C 0.51183 0.2383 0.9791 0.0
C453 C 0.48563 0.21916 0.98033 0.0
C454 C 0.53107 0.23172 0.98582 0.0
C455 C 0.52456 0.20588 -0.00637 0.0
C456 C 0.49844 0.18673 -0.00459 0.0
H457 H 0.61971 0.13371 0.03619 0.0
H458 H 0.58352 0.14209 0.03357 0.0
C459 C 0.47915 0.19328 0.98861 0.0
C460 C 0.54518 0.19917 0.00141 0.0
H461 H 0.57094 0.16537 0.92894 0.0
C462 C 0.56238 0.20973 0.05579 0.0
C463 C 0.54825 0.18292 0.95514 0.0
C464 C 0.531 0.1718 0.8943 0.0
C465 C 0.58251 0.20442 0.06532 0.0
C466 C 0.58576 0.18842 0.01864 0.0
C467 C 0.56836 0.17757 0.96476 0.0
C468 C 0.60761 0.18341 0.02341 0.0
C469 C 0.59995 0.21575 0.12573 0.0
C470 C 0.63309 0.20379 0.01787 0.0
C471 C 0.65368 0.19902 0.01932 0.0
C472 C 0.6492 0.17377 0.02667 0.0
C473 C 0.62366 0.15336 0.03153 0.0
C474 C 0.60304 0.15813 0.02997 0.0
H475 H 0.59083 0.22147 0.16578 0.0
H476 H 0.60516 0.20185 0.14735 0.0
H477 H 0.61798 0.23323 0.10991 0.0
H478 H 0.63704 0.22335 0.01063 0.0
H479 H 0.67299 0.21499 0.01218 0.0
H480 H 0.48257 0.62101 0.03892 0.0
H481 H 0.43745 0.58615 0.03749 0.0
H482 H 0.4128 0.64199 0.01032 0.0
H483 H 0.45777 0.67663 0.00904 0.0
H484 H 0.39546 0.57686 0.1189 0.0
H485 H 0.37905 0.59286 0.85191 0.0
H486 H 0.41083 0.60725 0.8887 0.0
H487 H 0.39054 0.62087 0.90448 0.0
C488 C 0.46744 0.62576 0.03316 0.0
C489 C 0.47364 0.65154 0.02545 0.0
C490 C 0.44175 0.60591 0.03243 0.0
C491 C 0.42181 0.61147 0.02308 0.0
C492 C 0.4279 0.63725 0.01681 0.0
H493 H 0.25547 0.51701 0.98794 0.0
H494 H 0.29998 0.55239 -0.00267 0.0
C495 C 0.4536 0.65709 0.01739 0.0
C496 C 0.3947 0.59025 0.01861 0.0
H497 H 0.34252 0.5625 0.91357 0.0
C498 C 0.38389 0.57366 0.07399 0.0
C499 C 0.37969 0.58611 0.95983 0.0
C500 C 0.39064 0.60254 0.89757 0.0
C501 C 0.35829 0.55325 0.07256 0.0
C502 C 0.3433 0.54915 0.01384 0.0
C503 C 0.35408 0.56576 0.95855 0.0
C504 C 0.3164 0.52761 0.00852 0.0
C505 C 0.34736 0.5365 0.13428 0.0
C506 C 0.31096 0.50197 0.01072 0.0
C507 C 0.28557 0.4817 0.00518 0.0
C508 C 0.26515 0.48671 -0.0029 0.0
C509 C 0.27073 0.51246 -0.00582 0.0
C510 C 0.29614 0.53271 -0.00043 0.0
H511 H 0.35906 0.54585 0.18003 0.0
H512 H 0.32723 0.53193 0.14359 0.0
H513 H 0.3472 0.5181 0.12619 0.0
H514 H 0.32639 0.49765 0.01632 0.0
H515 H 0.28196 0.4621 0.00741 0.0
H516 H 0.82898 0.46506 0.89484 0.0
H517 H 0.82016 0.42115 0.91529 0.0
H518 H 0.82063 0.43334 0.12984 0.0
H519 H 0.8307 0.47779 0.10943 0.0
H520 H 0.84705 0.40836 0.09398 0.0
H521 H 0.75069 0.36169 0.97374 0.0
H522 H 0.77555 0.38434 0.91902 0.0
H523 H 0.76798 0.39547 -0.00472 0.0
C524 C 0.82724 0.45835 0.94633 0.0
C525 C 0.82975 0.47453 0.00051 0.0
C526 C 0.822 0.43325 0.95794 0.0
C527 C 0.81903 0.42381 0.02399 0.0
C528 C 0.82241 0.44017 0.07843 0.0
H529 H 0.7505 0.25942 0.09587 0.0
H530 H 0.76058 0.30423 0.09854 0.0
C531 C 0.82781 0.46541 0.06677 0.0
C532 C 0.81263 0.39688 0.03571 0.0
H533 H 0.76899 0.33488 -0.00618 0.0
C534 C 0.82987 0.39223 0.07272 0.0
C535 C 0.78998 0.37589 0.0089 0.0
C536 C 0.76985 0.37954 0.97263 0.0
C537 C 0.82549 0.36711 0.08163 0.0
C538 C 0.80358 0.34626 0.0514 0.0
C539 C 0.78594 0.3509 0.01632 0.0
C540 C 0.79853 0.31944 0.05461 0.0
C541 C 0.84423 0.36317 0.12373 0.0
C542 C 0.81654 0.3131 0.02922 0.0
C543 C 0.81083 0.28745 0.02798 0.0
C544 C 0.7868 0.26772 0.05079 0.0
C545 C 0.76895 0.27415 0.07679 0.0
C546 C 0.77476 0.29977 0.07875 0.0
H547 H 0.85482 0.3793 0.15978 0.0
H548 H 0.83424 0.34485 0.15253 0.0
H549 H 0.85864 0.36242 0.09008 0.0
H550 H 0.83473 0.32787 0.00874 0.0
H551 H 0.82491 0.28301 0.00737 0.0
H552 H 0.36987 0.82963 0.85869 0.0
H553 H 0.40632 0.82312 0.88191 0.0
H554 H 0.39431 0.82557 0.09564 0.0
H555 H 0.35842 0.8332 0.0724 0.0
H556 H 0.4464 0.85357 0.0569 0.0
H557 H 0.39781 0.75484 0.95001 0.0
H558 H 0.39903 0.77861 0.89269 0.0
H559 H 0.38073 0.77173 0.96942 0.0
C560 C 0.37507 0.82884 0.91059 0.0
C561 C 0.36087 0.83113 0.96377 0.0
C562 C 0.39575 0.82497 0.92379 0.0
C563 C 0.40257 0.82324 -0.00955 0.0
C564 C 0.38905 0.82646 0.04382 0.0
H565 H 0.49811 0.75713 0.0879 0.0
H566 H 0.46416 0.76833 0.08484 0.0
C567 C 0.36836 0.83044 0.03056 0.0
C568 C 0.42364 0.81778 0.00396 0.0
H569 H 0.44265 0.77383 0.97259 0.0
C570 C 0.44558 0.83607 0.039 0.0
C571 C 0.42229 0.79477 0.98129 0.0
C572 C 0.3986 0.77373 0.94685 0.0
C573 C 0.46656 0.83222 0.05048 0.0
C574 C 0.46563 0.8097 0.02517 0.0
C575 C 0.44343 0.79119 -0.00852 0.0
C576 C 0.48726 0.80459 0.03306 0.0
C577 C 0.48933 0.85211 0.09022 0.0
C578 C 0.51165 0.82142 0.00569 0.0
C579 C 0.53116 0.81505 0.00764 0.0
C580 C 0.52636 0.79155 0.03585 0.0
C581 C 0.50216 0.7751 0.06462 0.0
C582 C 0.48281 0.78156 0.0633 0.0
H583 H 0.48402 0.86402 0.12199 0.0
H584 H 0.49741 0.84289 0.12321 0.0
H585 H 0.50462 0.86518 0.05473 0.0
H586 H 0.51534 0.83902 0.98078 0.0
H587 H 0.54961 0.828 0.98474 0.0
H588 H 0.72501 0.55038 0.02463 0.0
H589 H 0.67948 0.51717 0.03347 0.0
H590 H 0.69858 0.45914 0.97756 0.0
H591 H 0.744 0.49196 0.97048 0.0
H592 H 0.64694 0.48564 0.94092 0.0
H593 H 0.65551 0.42662 0.14212 0.0
H594 H 0.68144 0.45844 0.12147 0.0
H595 H 0.67664 0.4309 0.0732 0.0
C596 C 0.7195 0.53053 0.01442 0.0
C597 C 0.73814 0.5238 -0.00293 0.0
C598 C 0.69349 0.51157 0.01969 0.0
C599 C 0.68567 0.48557 0.00772 0.0
C600 C 0.70421 0.47893 0.98917 0.0
H601 H 0.54148 0.3637 0.86744 0.0
H602 H 0.58449 0.40084 0.88481 0.0
C603 C 0.73018 0.49779 0.9845 0.0
C604 C 0.65802 0.46544 0.0111 0.0
H605 H 0.61699 0.40552 0.074 0.0
C606 C 0.64034 0.46829 0.97077 0.0
C607 C 0.6492 0.44303 0.05123 0.0
C608 C 0.66667 0.43969 0.1 0.0
C609 C 0.61442 0.44877 0.96668 0.0
C610 C 0.60613 0.42546 0.00241 0.0
C611 C 0.62345 0.42319 0.04564 0.0
C612 C 0.58005 0.40278 -0.00732 0.0
C613 C 0.59624 0.45332 0.92382 0.0
C614 C 0.56358 0.39085 0.04785 0.0
C615 C 0.53909 0.36931 0.03796 0.0
C616 C 0.53082 0.35936 0.97284 0.0
C617 C 0.54742 0.37117 0.918 0.0
C618 C 0.57188 0.39248 0.92787 0.0
H619 H 0.60284 0.47421 0.91966 0.0
H620 H 0.59567 0.44595 0.87214 0.0
H621 H 0.57639 0.44328 0.94473 0.0
H622 H 0.56954 0.39841 0.09835 0.0
H623 H 0.52643 0.36084 0.0808 0.0
H624 H 0.20298 0.39539 0.76501 0.0
H625 H 0.20286 0.39629 0.64133 0.0
H626 H 0.17874 0.45308 0.64584 0.0
H627 H 0.17894 0.4525 0.76875 0.0
H628 H 0.15985 0.38567 0.55617 0.0
H629 H 0.24205 0.48488 0.51969 0.0
H630 H 0.23645 0.4675 0.59806 0.0
H631 H 0.21778 0.48247 0.57722 0.0
C632 C 0.19781 0.40818 0.73964 0.0
C633 C 0.19106 0.42393 0.77669 0.0
C634 C 0.19773 0.40864 0.66911 0.0
C635 C 0.19114 0.42502 0.63475 0.0
C636 C 0.18434 0.44068 0.67154 0.0
H637 H 0.17463 0.45522 0.21431 0.0
H638 H 0.175 0.45436 0.338 0.0
C639 C 0.18434 0.44019 0.74182 0.0
C640 C 0.19043 0.42518 0.5603 0.0
H641 H 0.2168 0.46397 0.42296 0.0
C642 C 0.17239 0.4027 0.52689 0.0
C643 C 0.20672 0.44753 0.52261 0.0
C644 C 0.22701 0.47193 0.55604 0.0
C645 C 0.16988 0.4021 0.45649 0.0
C646 C 0.18619 0.42445 0.41875 0.0
C647 C 0.20425 0.44693 0.4522 0.0
C648 C 0.1854 0.42464 0.34428 0.0
C649 C 0.14946 0.37772 0.42325 0.0
C650 C 0.1914 0.40843 0.30724 0.0
C651 C 0.19116 0.40882 0.23698 0.0
C652 C 0.18509 0.4256 0.20232 0.0
C653 C 0.17925 0.44199 0.23956 0.0
C654 C 0.17949 0.44156 0.31009 0.0
H655 H 0.13424 0.36505 0.45955 0.0
H656 H 0.14028 0.38216 0.38061 0.0
H657 H 0.15851 0.36685 0.40308 0.0
H658 H 0.19655 0.39564 0.33274 0.0
H659 H 0.19592 0.39606 0.20989 0.0
H660 H 0.73195 0.18356 0.81817 0.0
H661 H 0.73116 0.18246 0.69514 0.0
H662 H 0.81119 0.20305 0.69208 0.0
H663 H 0.81216 0.20394 0.81557 0.0
H664 H 0.76165 0.22196 0.603 0.0
H665 H 0.77516 0.13709 0.57648 0.0
H666 H 0.76618 0.14552 0.65531 0.0
H667 H 0.79903 0.16296 0.62687 0.0
C668 C 0.74943 0.18788 0.79147 0.0
C669 C 0.7721 0.19369 0.82668 0.0
C670 C 0.74891 0.18725 0.72117 0.0
C671 C 0.77099 0.1923 0.68476 0.0
C672 C 0.79382 0.19863 0.71949 0.0
H673 H 0.8047 0.19627 0.26065 0.0
H674 H 0.80562 0.19766 0.38363 0.0
C675 C 0.79438 0.19927 0.78997 0.0
C676 C 0.76999 0.19101 0.61034 0.0
H677 H 0.77525 0.15842 0.47588 0.0
C678 C 0.76455 0.20805 0.57508 0.0
C679 C 0.77374 0.17277 0.57441 0.0
C680 C 0.77864 0.15337 0.61004 0.0
C681 C 0.76317 0.20762 0.50445 0.0
C682 C 0.7669 0.18936 0.46852 0.0
C683 C 0.77235 0.17234 0.50378 0.0
C684 C 0.76585 0.18802 0.39411 0.0
C685 C 0.75832 0.22705 0.4688 0.0
C686 C 0.743 0.18172 0.35944 0.0
C687 C 0.74238 0.18092 0.28896 0.0
C688 C 0.76458 0.18628 0.25222 0.0
C689 C 0.78727 0.1921 0.28737 0.0
C690 C 0.78786 0.19289 0.35765 0.0
H691 H 0.76189 0.24337 0.50232 0.0
H692 H 0.77074 0.23484 0.42345 0.0
H693 H 0.73791 0.21751 0.45213 0.0
H694 H 0.72568 0.17744 0.38689 0.0
H695 H 0.7246 0.1763 0.26335 0.0
H696 H 0.5506 0.72983 0.80566 0.0
H697 H 0.55088 0.72948 0.68248 0.0
H698 H 0.61226 0.80867 0.68105 0.0
H699 H 0.61235 0.80921 0.80448 0.0
H700 H 0.54328 0.76173 0.5922 0.0
H701 H 0.63991 0.77113 0.56287 0.0
H702 H 0.62252 0.76219 0.64172 0.0
H703 H 0.63911 0.79526 0.61495 0.0
C704 C 0.56419 0.74719 0.77924 0.0
C705 C 0.58158 0.76951 0.81481 0.0
C706 C 0.56429 0.74694 0.70891 0.0
C707 C 0.58183 0.76891 0.67297 0.0
C708 C 0.59891 0.79137 0.70812 0.0
H709 H 0.6124 0.80457 0.24938 0.0
H710 H 0.61189 0.8052 0.37251 0.0
C711 C 0.59884 0.79167 0.77854 0.0
C712 C 0.582 0.76832 0.59857 0.0
H713 H 0.61925 0.77319 0.4631 0.0
C714 C 0.55983 0.76415 0.56384 0.0
C715 C 0.60366 0.77149 0.56209 0.0
C716 C 0.6276 0.77505 0.59715 0.0
C717 C 0.55887 0.76346 0.49319 0.0
C718 C 0.58053 0.76659 0.45671 0.0
C719 C 0.60271 0.77079 0.49145 0.0
C720 C 0.58069 0.76589 0.38231 0.0
C721 C 0.53495 0.75994 0.45813 0.0
C722 C 0.56352 0.74342 0.34732 0.0
C723 C 0.56372 0.74297 0.27691 0.0
C724 C 0.58122 0.76497 0.24049 0.0
C725 C 0.59864 0.78731 0.27591 0.0
C726 C 0.59841 0.78773 0.34622 0.0
H727 H 0.52274 0.76403 0.49233 0.0
H728 H 0.54004 0.77269 0.41333 0.0
H729 H 0.52333 0.73969 0.4407 0.0
H730 H 0.55003 0.72622 0.37451 0.0
H731 H 0.55012 0.72544 0.25109 0.0
H732 H 0.82504 0.54932 0.76779 0.0
H733 H 0.82547 0.54922 0.64479 0.0
H734 H 0.80755 0.61054 0.64179 0.0
H735 H 0.80672 0.61061 0.76535 0.0
H736 H 0.77767 0.56941 0.55246 0.0
H737 H 0.88229 0.60426 0.52536 0.0
H738 H 0.86548 0.57659 0.57897 0.0
H739 H 0.8682 0.60673 0.60347 0.0
C740 C 0.82121 0.56284 0.74112 0.0
C741 C 0.816 0.5801 0.77631 0.0
C742 C 0.82162 0.56283 0.67083 0.0
C743 C 0.81701 0.58018 0.63448 0.0
C744 C 0.81135 0.59714 0.66922 0.0
H745 H 0.81147 0.6106 0.21054 0.0
H746 H 0.81049 0.61037 0.33357 0.0
C747 C 0.8109 0.59716 0.73968 0.0
C748 C 0.8177 0.58026 0.56006 0.0
H749 H 0.85696 0.58934 0.42577 0.0
C750 C 0.79501 0.5739 0.52464 0.0
C751 C 0.84038 0.58606 0.52423 0.0
C752 C 0.86555 0.59403 0.55982 0.0
C753 C 0.79428 0.57276 0.454 0.0
C754 C 0.81694 0.57848 0.41823 0.0
C755 C 0.83962 0.58485 0.45362 0.0
C756 C 0.81764 0.57854 0.34386 0.0
C757 C 0.76919 0.56499 0.41823 0.0
C758 C 0.82262 0.56109 0.3092 0.0
C759 C 0.8233 0.5612 0.23876 0.0
C760 C 0.8192 0.57893 0.20209 0.0
C761 C 0.81459 0.59661 0.23724 0.0
C762 C 0.81388 0.59644 0.30752 0.0
H763 H 0.75241 0.55523 0.4528 0.0
H764 H 0.76963 0.58246 0.39793 0.0
H765 H 0.76633 0.55193 0.37528 0.0
H766 H 0.82573 0.54724 0.33668 0.0
H767 H 0.82693 0.54736 0.21312 0.0
H768 H 0.28388 0.82585 0.17423 0.0
H769 H 0.28281 0.82476 0.29776 0.0
H770 H 0.20369 0.80726 0.29436 0.0
H771 H 0.20442 0.80809 0.17131 0.0
H772 H 0.27102 0.85506 0.3866 0.0
H773 H 0.20234 0.75018 0.41406 0.0
H774 H 0.21924 0.76432 0.33633 0.0
H775 H 0.1916 0.76687 0.35945 0.0
C776 C 0.26625 0.82174 0.19979 0.0
C777 C 0.2442 0.81695 0.16303 0.0
C778 C 0.26568 0.82113 0.27023 0.0
C779 C 0.24306 0.81554 0.30482 0.0
C780 C 0.22117 0.81111 0.26838 0.0
H781 H 0.19999 0.80426 0.72614 0.0
H782 H 0.20095 0.80515 0.6026 0.0
C783 C 0.22169 0.81174 0.19809 0.0
C784 C 0.24242 0.81487 0.37921 0.0
H785 H 0.21287 0.77543 0.51362 0.0
C786 C 0.25844 0.83766 0.41451 0.0
C787 C 0.22586 0.7921 0.41508 0.0
C788 C 0.20892 0.7669 0.37946 0.0
C789 C 0.25802 0.8384 0.48513 0.0
C790 C 0.24148 0.81563 0.52104 0.0
C791 C 0.22546 0.79284 0.48572 0.0
C792 C 0.24088 0.81497 0.59544 0.0
C793 C 0.2749 0.86365 0.52068 0.0
C794 C 0.2629 0.81978 0.63186 0.0
C795 C 0.26245 0.81932 0.70216 0.0
C796 C 0.23988 0.81387 0.73726 0.0
C797 C 0.21769 0.80862 0.70054 0.0
C798 C 0.21818 0.8091 0.63009 0.0
H799 H 0.28125 0.88034 0.48612 0.0
H800 H 0.26464 0.86613 0.5641 0.0
H801 H 0.29236 0.86384 0.54019 0.0
H802 H 0.28043 0.82382 0.60586 0.0
H803 H 0.27983 0.82329 0.72891 0.0
H804 H 0.39856 0.19761 0.74346 0.0
H805 H 0.39905 0.19831 0.6199 0.0
H806 H 0.45834 0.27835 0.62275 0.0
H807 H 0.45816 0.27788 0.74583 0.0
H808 H 0.38963 0.23154 0.53564 0.0
H809 H 0.48712 0.24431 0.49513 0.0
H810 H 0.47012 0.23335 0.57425 0.0
H811 H 0.48603 0.26694 0.55254 0.0
C812 C 0.41181 0.21531 0.71777 0.0
C813 C 0.42836 0.23767 0.75439 0.0
C814 C 0.41205 0.21567 0.64731 0.0
C815 C 0.42895 0.23829 0.6125 0.0
C816 C 0.44548 0.2606 0.64883 0.0
H817 H 0.45809 0.28262 0.19137 0.0
H818 H 0.45765 0.28175 0.31489 0.0
C819 C 0.44525 0.2603 0.71916 0.0
C820 C 0.42868 0.23891 0.5381 0.0
H821 H 0.46604 0.24882 0.39908 0.0
C822 C 0.40625 0.23516 0.50563 0.0
C823 C 0.45049 0.24381 0.49947 0.0
C824 C 0.47476 0.24712 0.53193 0.0
C825 C 0.40518 0.2366 0.43523 0.0
C826 C 0.42698 0.24146 0.39655 0.0
C827 C 0.44941 0.2452 0.42905 0.0
C828 C 0.42674 0.24218 0.32209 0.0
C829 C 0.38094 0.23344 0.40297 0.0
C830 C 0.40965 0.22015 0.28557 0.0
C831 C 0.40979 0.22059 0.21525 0.0
C832 C 0.42719 0.24303 0.18015 0.0
C833 C 0.44438 0.26508 0.21693 0.0
C834 C 0.44419 0.26461 0.2874 0.0
H835 H 0.36889 0.23676 0.4397 0.0
H836 H 0.38557 0.24694 0.35998 0.0
H837 H 0.36932 0.21349 0.38348 0.0
H838 H 0.3964 0.2025 0.31148 0.0
H839 H 0.3964 0.20322 0.18846 0.0
loop_
_geom_bond_atom_site_label_1
_geom_bond_atom_site_label_2
_geom_bond_distance
_geom_bond_site_symmetry_2
_ccdc_geom_bond_type
Zn0 O1 2.055 . S
Zn0 O8 2.046 . S
Zn0 N16 2.036 1_554 S
Zn0 O28 2.053 1_554 S
Zn0 O30 2.066 . S
O1 Zn0 2.055 . S
O1 C4 1.259 . S
C2 O30 1.256 . S
C2 O31 1.244 . S
Zn3 O5 2.046 . S
Zn3 O7 2.055 . S
Zn3 N9 2.036 . S
Zn3 O27 2.066 1_554 S
Zn3 O31 2.053 . S
C4 O1 1.259 . S
C4 O5 1.254 . S
O5 Zn3 2.046 . S
O5 C4 1.254 . S
C6 O27 1.256 . S
C6 O28 1.244 . S
O7 Zn3 2.055 . S
O7 C29 1.259 . S
O8 Zn0 2.046 . S
O8 C29 1.255 . S
N9 Zn3 2.036 . S
N9 C10 1.298 1_554 S
N9 N12 1.398 . S
C10 N9 1.298 1_556 S
C10 N13 1.367 . S
C10 C23 1.481 . S
C11 N12 1.299 . S
C11 N13 1.379 1_554 S
N12 N9 1.398 . S
N12 C11 1.299 . S
N13 C10 1.367 . S
N13 C11 1.379 1_556 S
C14 N16 1.298 1_554 S
C14 N18 1.367 1_554 S
C14 C22 1.481 . S
C15 N17 1.299 . S
C15 N18 1.379 . S
N16 Zn0 2.036 1_556 S
N16 C14 1.298 1_556 S
N16 N17 1.398 . S
N17 C15 1.299 . S
N17 N16 1.398 . S
N18 C14 1.367 1_556 S
N18 C15 1.379 . S
H19 C22 0.980 . S
H20 C22 0.981 . S
H21 C22 0.981 . S
C22 C14 1.481 . S
C22 H19 0.980 . S
C22 H20 0.981 . S
C22 H21 0.981 . S
C23 C10 1.481 . S
C23 H24 0.980 . S
C23 H25 0.981 . S
C23 H26 0.981 . S
H24 C23 0.980 . S
H25 C23 0.981 . S
H26 C23 0.981 . S
O27 Zn3 2.066 1_556 S
O27 C6 1.256 . S
O28 Zn0 2.053 1_556 S
O28 C6 1.244 . S
C29 O7 1.259 . S
C29 O8 1.255 . S
O30 Zn0 2.066 . S
O30 C2 1.256 . S
O31 C2 1.244 . S
O31 Zn3 2.053 . S
Zn32 O33 2.055 . S
Zn32 O40 2.046 . S
Zn32 N48 2.036 1_554 S
Zn32 O60 2.053 1_554 S
Zn32 O62 2.066 . S
O33 Zn32 2.055 . S
O33 C36 1.259 . S
C34 O62 1.256 . S
C34 O63 1.244 . S
Zn35 O37 2.046 . S
Zn35 O39 2.055 . S
Zn35 N41 2.036 . S
Zn35 O59 2.066 1_554 S
Zn35 O63 2.053 . S
C36 O33 1.259 . S
C36 O37 1.254 . S
O37 Zn35 2.046 . S
O37 C36 1.254 . S
C38 O59 1.256 . S
C38 O60 1.244 . S
O39 Zn35 2.055 . S
O39 C61 1.259 . S
O40 Zn32 2.046 . S
O40 C61 1.255 . S
N41 Zn35 2.036 . S
N41 C42 1.298 1_554 S
N41 N44 1.398 . S
C42 N41 1.298 1_556 S
C42 N45 1.367 . S
C42 C55 1.481 . S
C43 N44 1.299 . S
C43 N45 1.379 1_554 S
N44 N41 1.398 . S
N44 C43 1.299 . S
N45 C42 1.367 . S
N45 C43 1.379 1_556 S
C46 N48 1.298 1_554 S
C46 N50 1.367 1_554 S
C46 C54 1.481 . S
C47 N49 1.299 . S
C47 N50 1.379 . S
N48 Zn32 2.036 1_556 S
N48 C46 1.298 1_556 S
N48 N49 1.398 . S
N49 C47 1.299 . S
N49 N48 1.398 . S
N50 C46 1.367 1_556 S
N50 C47 1.379 . S
H51 C54 0.980 . S
H52 C54 0.981 . S
H53 C54 0.981 . S
C54 C46 1.481 . S
C54 H51 0.980 . S
C54 H52 0.981 . S
C54 H53 0.981 . S
C55 C42 1.481 . S
C55 H56 0.980 . S
C55 H57 0.981 . S
C55 H58 0.981 . S
H56 C55 0.980 . S
H57 C55 0.981 . S
H58 C55 0.981 . S
O59 Zn35 2.066 1_556 S
O59 C38 1.256 . S
O60 Zn32 2.053 1_556 S
O60 C38 1.244 . S
C61 O39 1.259 . S
C61 O40 1.255 . S
O62 Zn32 2.066 . S
O62 C34 1.256 . S
O63 C34 1.244 . S
O63 Zn35 2.053 . S
Zn64 O65 2.055 . S
Zn64 O72 2.046 . S
Zn64 N80 2.036 1_554 S
Zn64 O92 2.053 1_554 S
Zn64 O94 2.066 . S
O65 Zn64 2.055 . S
O65 C68 1.259 . S
C66 O94 1.256 . S
C66 O95 1.244 . S
Zn67 O69 2.046 . S
Zn67 O71 2.055 . S
Zn67 N73 2.036 . S
Zn67 O91 2.066 1_554 S
Zn67 O95 2.053 . S
C68 O65 1.259 . S
C68 O69 1.254 . S
O69 Zn67 2.046 . S
O69 C68 1.254 . S
C70 O91 1.256 . S
C70 O92 1.244 . S
O71 Zn67 2.055 . S
O71 C93 1.259 . S
O72 Zn64 2.046 . S
O72 C93 1.255 . S
N73 Zn67 2.036 . S
N73 C74 1.298 1_554 S
N73 N76 1.398 . S
C74 N73 1.298 1_556 S
C74 N77 1.367 . S
C74 C87 1.481 . S
C75 N76 1.299 . S
C75 N77 1.379 1_554 S
N76 N73 1.398 . S
N76 C75 1.299 . S
N77 C74 1.367 . S
N77 C75 1.379 1_556 S
C78 N80 1.298 1_554 S
C78 N82 1.367 1_554 S
C78 C86 1.481 . S
C79 N81 1.299 . S
C79 N82 1.379 . S
N80 Zn64 2.036 1_556 S
N80 C78 1.298 1_556 S
N80 N81 1.398 . S
N81 C79 1.299 . S
N81 N80 1.398 . S
N82 C78 1.367 1_556 S
N82 C79 1.379 . S
H83 C86 0.980 . S
H84 C86 0.981 . S
H85 C86 0.981 . S
C86 C78 1.481 . S
C86 H83 0.980 . S
C86 H84 0.981 . S
C86 H85 0.981 . S
C87 C74 1.481 . S
C87 H88 0.980 . S
C87 H89 0.981 . S
C87 H90 0.981 . S
H88 C87 0.980 . S
H89 C87 0.981 . S
H90 C87 0.981 . S
O91 Zn67 2.066 1_556 S
O91 C70 1.256 . S
O92 Zn64 2.053 1_556 S
O92 C70 1.244 . S
C93 O71 1.259 . S
C93 O72 1.255 . S
O94 Zn64 2.066 . S
O94 C66 1.256 . S
O95 C66 1.244 . S
O95 Zn67 2.053 . S
Zn96 O97 2.055 . S
Zn96 O104 2.046 . S
Zn96 N112 2.036 1_554 S
Zn96 O124 2.053 1_554 S
Zn96 O126 2.066 . S
O97 Zn96 2.055 . S
O97 C100 1.259 . S
C98 O126 1.256 . S
C98 O127 1.244 . S
Zn99 O101 2.046 . S
Zn99 O103 2.055 . S
Zn99 N105 2.036 . S
Zn99 O123 2.066 1_554 S
Zn99 O127 2.053 . S
C100 O97 1.259 . S
C100 O101 1.254 . S
O101 Zn99 2.046 . S
O101 C100 1.254 . S
C102 O123 1.256 . S
C102 O124 1.244 . S
O103 Zn99 2.055 . S
O103 C125 1.259 . S
O104 Zn96 2.046 . S
O104 C125 1.255 . S
N105 Zn99 2.036 . S
N105 C106 1.298 1_554 S
N105 N108 1.398 . S
C106 N105 1.298 1_556 S
C106 N109 1.367 . S
C106 C119 1.481 . S
C107 N108 1.299 . S
C107 N109 1.379 1_554 S
N108 N105 1.398 . S
N108 C107 1.299 . S
N109 C106 1.367 . S
N109 C107 1.379 1_556 S
C110 N112 1.298 1_554 S
C110 N114 1.367 1_554 S
C110 C118 1.481 . S
C111 N113 1.299 . S
C111 N114 1.379 . S
N112 Zn96 2.036 1_556 S
N112 C110 1.298 1_556 S
N112 N113 1.398 . S
N113 C111 1.299 . S
N113 N112 1.398 . S
N114 C110 1.367 1_556 S
N114 C111 1.379 . S
H115 C118 0.980 . S
H116 C118 0.981 . S
H117 C118 0.981 . S
C118 C110 1.481 . S
C118 H115 0.980 . S
C118 H116 0.981 . S
C118 H117 0.981 . S
C119 C106 1.481 . S
C119 H120 0.980 . S
C119 H121 0.981 . S
C119 H122 0.981 . S
H120 C119 0.980 . S
H121 C119 0.981 . S
H122 C119 0.981 . S
O123 Zn99 2.066 1_556 S
O123 C102 1.256 . S
O124 Zn96 2.053 1_556 S
O124 C102 1.244 . S
C125 O103 1.259 . S
C125 O104 1.255 . S
O126 Zn96 2.066 . S
O126 C98 1.256 . S
O127 C98 1.244 . S
O127 Zn99 2.053 . S
Zn128 O129 2.055 . S
Zn128 O136 2.046 . S
Zn128 N144 2.036 1_554 S
Zn128 O156 2.053 1_554 S
Zn128 O158 2.066 . S
O129 Zn128 2.055 . S
O129 C132 1.259 . S
C130 O158 1.256 . S
C130 O159 1.244 . S
Zn131 O133 2.046 . S
Zn131 O135 2.055 . S
Zn131 N137 2.036 . S
Zn131 O155 2.066 1_554 S
Zn131 O159 2.053 . S
C132 O129 1.259 . S
C132 O133 1.254 . S
O133 Zn131 2.046 . S
O133 C132 1.254 . S
C134 O155 1.256 . S
C134 O156 1.244 . S
O135 Zn131 2.055 . S
O135 C157 1.259 . S
O136 Zn128 2.046 . S
O136 C157 1.255 . S
N137 Zn131 2.036 . S
N137 C138 1.298 1_554 S
N137 N140 1.398 . S
C138 N137 1.298 1_556 S
C138 N141 1.367 . S
C138 C151 1.481 . S
C139 N140 1.299 . S
C139 N141 1.379 1_554 S
N140 N137 1.398 . S
N140 C139 1.299 . S
N141 C138 1.367 . S
N141 C139 1.379 1_556 S
C142 N144 1.298 1_554 S
C142 N146 1.367 1_554 S
C142 C150 1.481 . S
C143 N145 1.299 . S
C143 N146 1.379 . S
N144 Zn128 2.036 1_556 S
N144 C142 1.298 1_556 S
N144 N145 1.398 . S
N145 C143 1.299 . S
N145 N144 1.398 . S
N146 C142 1.367 1_556 S
N146 C143 1.379 . S
H147 C150 0.980 . S
H148 C150 0.981 . S
H149 C150 0.981 . S
C150 C142 1.481 . S
C150 H147 0.980 . S
C150 H148 0.981 . S
C150 H149 0.981 . S
C151 C138 1.481 . S
C151 H152 0.980 . S
C151 H153 0.981 . S
C151 H154 0.981 . S
H152 C151 0.980 . S
H153 C151 0.981 . S
H154 C151 0.981 . S
O155 Zn131 2.066 1_556 S
O155 C134 1.256 . S
O156 Zn128 2.053 1_556 S
O156 C134 1.244 . S
C157 O135 1.259 . S
C157 O136 1.255 . S
O158 Zn128 2.066 . S
O158 C130 1.256 . S
O159 C130 1.244 . S
O159 Zn131 2.053 . S
Zn160 O161 2.055 . S
Zn160 O168 2.046 . S
Zn160 N176 2.036 1_554 S
Zn160 O188 2.053 1_554 S
Zn160 O190 2.066 . S
O161 Zn160 2.055 . S
O161 C164 1.259 . S
C162 O190 1.256 . S
C162 O191 1.244 . S
Zn163 O165 2.046 . S
Zn163 O167 2.055 . S
Zn163 N169 2.036 . S
Zn163 O187 2.066 1_554 S
Zn163 O191 2.053 . S
C164 O161 1.259 . S
C164 O165 1.254 . S
O165 Zn163 2.046 . S
O165 C164 1.254 . S
C166 O187 1.256 . S
C166 O188 1.244 . S
O167 Zn163 2.055 . S
O167 C189 1.259 . S
O168 Zn160 2.046 . S
O168 C189 1.255 . S
N169 Zn163 2.036 . S
N169 C170 1.298 1_554 S
N169 N172 1.398 . S
C170 N169 1.298 1_556 S
C170 N173 1.367 . S
C170 C183 1.481 . S
C171 N172 1.299 . S
C171 N173 1.379 1_554 S
N172 N169 1.398 . S
N172 C171 1.299 . S
N173 C170 1.367 . S
N173 C171 1.379 1_556 S
C174 N176 1.298 1_554 S
C174 N178 1.367 1_554 S
C174 C182 1.481 . S
C175 N177 1.299 . S
C175 N178 1.379 . S
N176 Zn160 2.036 1_556 S
N176 C174 1.298 1_556 S
N176 N177 1.398 . S
N177 C175 1.299 . S
N177 N176 1.398 . S
N178 C174 1.367 1_556 S
N178 C175 1.379 . S
H179 C182 0.980 . S
H180 C182 0.981 . S
H181 C182 0.981 . S
C182 C174 1.481 . S
C182 H179 0.980 . S
C182 H180 0.981 . S
C182 H181 0.981 . S
C183 C170 1.481 . S
C183 H184 0.980 . S
C183 H185 0.981 . S
C183 H186 0.981 . S
H184 C183 0.980 . S
H185 C183 0.981 . S
H186 C183 0.981 . S
O187 Zn163 2.066 1_556 S
O187 C166 1.256 . S
O188 Zn160 2.053 1_556 S
O188 C166 1.244 . S
C189 O167 1.259 . S
C189 O168 1.255 . S
O190 Zn160 2.066 . S
O190 C162 1.256 . S
O191 C162 1.244 . S
O191 Zn163 2.053 . S
H192 C200 0.929 . S
H193 C202 0.930 . S
H194 C204 0.930 . S
H195 C207 0.929 . S
H196 C210 0.930 . S
H197 C212 0.960 . S
H198 C212 0.960 . S
H199 C212 0.960 1_556 S
C200 H192 0.929 . S
C200 C201 1.377 1_554 S
C200 C202 1.384 . S
C201 C200 1.377 1_556 S
C201 C207 1.390 . S
C202 H193 0.930 . S
C202 C200 1.384 . S
C202 C203 1.372 1_554 S
C203 C202 1.372 1_556 S
C203 C204 1.400 . S
C203 C208 1.490 . S
C204 H194 0.930 . S
C204 C203 1.400 . S
C204 C207 1.386 . S
H205 C221 0.930 . S
H206 C222 0.931 . S
C207 H195 0.929 . S
C207 C201 1.390 . S
C207 C204 1.386 . S
C208 C203 1.490 . S
C208 C210 1.395 . S
C208 C211 1.403 . S
H209 C215 0.929 1_554 S
C210 H196 0.930 . S
C210 C208 1.395 . S
C210 C213 1.403 . S
C211 C208 1.403 . S
C211 C212 1.524 1_556 S
C211 C215 1.400 . S
C212 H197 0.960 . S
C212 H198 0.960 . S
C212 H199 0.960 1_554 S
C212 C211 1.524 1_554 S
C213 C210 1.403 . S
C213 C214 1.392 . S
C213 C217 1.495 . S
C214 C213 1.392 . S
C214 C215 1.385 . S
C214 C216 1.478 . S
C215 H209 0.929 1_556 S
C215 C211 1.400 . S
C215 C214 1.385 . S
C216 C214 1.478 . S
C216 C218 1.381 1_556 S
C216 C222 1.383 . S
C217 C213 1.495 . S
C217 H223 0.959 . S
C217 H224 0.961 . S
C217 H225 0.960 . S
C218 C216 1.381 1_554 S
C218 C219 1.394 . S
C218 H226 0.930 . S
C219 C218 1.394 . S
C219 C220 1.383 1_554 S
C219 H227 0.929 . S
C220 C219 1.383 1_556 S
C220 C221 1.377 . S
C221 H205 0.930 . S
C221 C220 1.377 . S
C221 C222 1.379 . S
C222 H206 0.931 . S
C222 C216 1.383 . S
C222 C221 1.379 . S
H223 C217 0.959 . S
H224 C217 0.961 . S
H225 C217 0.960 . S
H226 C218 0.930 . S
H227 C219 0.929 . S
H228 C236 0.929 . S
H229 C238 0.930 . S
H230 C240 0.930 . S
H231 C243 0.929 . S
H232 C246 0.930 1_554 S
H233 C248 0.960 . S
H234 C248 0.960 . S
H235 C248 0.960 . S
C236 H228 0.929 . S
C236 C237 1.377 . S
C236 C238 1.384 . S
C237 C236 1.377 . S
C237 C243 1.390 1_556 S
C238 H229 0.930 . S
C238 C236 1.384 . S
C238 C239 1.372 . S
C239 C238 1.372 . S
C239 C240 1.400 1_556 S
C239 C244 1.490 . S
C240 H230 0.930 . S
C240 C239 1.400 1_554 S
C240 C243 1.386 . S
H241 C257 0.930 . S
H242 C258 0.931 . S
C243 H231 0.929 . S
C243 C237 1.390 1_554 S
C243 C240 1.386 . S
C244 C239 1.490 . S
C244 C246 1.395 . S
C244 C247 1.403 . S
H245 C251 0.930 1_655 S
C246 H232 0.930 1_556 S
C246 C244 1.395 . S
C246 C249 1.403 . S
C247 C244 1.403 . S
C247 C248 1.524 . S
C247 C251 1.400 . S
C248 H233 0.960 . S
C248 H234 0.960 . S
C248 H235 0.960 . S
C248 C247 1.524 . S
C249 C246 1.403 . S
C249 C250 1.392 1_455 S
C249 C253 1.495 1_556 S
C250 C249 1.392 1_655 S
C250 C251 1.385 1_655 S
C250 C252 1.478 . S
C251 H245 0.930 1_455 S
C251 C247 1.400 . S
C251 C250 1.385 1_455 S
C252 C250 1.478 . S
C252 C254 1.381 . S
C252 C258 1.383 1_556 S
C253 C249 1.495 1_554 S
C253 H259 0.959 . S
C253 H260 0.961 1_455 S
C253 H261 0.960 1_454 S
C254 C252 1.381 . S
C254 C255 1.394 . S
C254 H262 0.930 . S
C255 C254 1.394 . S
C255 C256 1.383 . S
C255 H263 0.929 . S
C256 C255 1.383 . S
C256 C257 1.377 1_556 S
C257 H241 0.930 . S
C257 C256 1.377 1_554 S
C257 C258 1.379 . S
C258 H242 0.931 . S
C258 C252 1.383 1_554 S
C258 C257 1.379 . S
H259 C253 0.959 . S
H260 C253 0.961 1_655 S
H261 C253 0.960 1_656 S
H262 C254 0.930 . S
H263 C255 0.929 . S
H264 C272 0.929 . S
H265 C274 0.930 . S
H266 C276 0.930 . S
H267 C279 0.929 . S
H268 C282 0.930 . S
H269 C284 0.960 . S
H270 C284 0.960 . S
H271 C284 0.960 . S
C272 H264 0.929 . S
C272 C273 1.377 . S
C272 C274 1.384 . S
C273 C272 1.377 . S
C273 C279 1.390 1_556 S
C274 H265 0.930 . S
C274 C272 1.384 . S
C274 C275 1.372 . S
C275 C274 1.372 . S
C275 C276 1.400 1_556 S
C275 C280 1.490 . S
C276 H266 0.930 . S
C276 C275 1.400 1_554 S
C276 C279 1.386 . S
H277 C293 0.930 1_554 S
H278 C294 0.931 1_554 S
C279 H267 0.929 . S
C279 C273 1.390 1_554 S
C279 C276 1.386 . S
C280 C275 1.490 . S
C280 C282 1.395 . S
C280 C283 1.403 1_556 S
H281 C287 0.930 1_565 S
C282 H268 0.930 . S
C282 C280 1.395 . S
C282 C285 1.403 . S
C283 C280 1.403 1_554 S
C283 C284 1.524 . S
C283 C287 1.400 . S
C284 H269 0.960 . S
C284 H270 0.960 . S
C284 H271 0.960 . S
C284 C283 1.524 . S
C285 C282 1.403 . S
C285 C286 1.392 1_545 S
C285 C289 1.495 . S
C286 C285 1.392 1_565 S
C286 C287 1.385 1_566 S
C286 C288 1.478 . S
C287 H281 0.930 1_545 S
C287 C283 1.400 . S
C287 C286 1.385 1_544 S
C288 C286 1.478 . S
C288 C290 1.381 . S
C288 C294 1.383 . S
C289 C285 1.495 . S
C289 H295 0.959 . S
C289 H296 0.961 1_545 S
C289 H297 0.960 1_545 S
C290 C288 1.381 . S
C290 C291 1.394 . S
C290 H298 0.930 . S
C291 C290 1.394 . S
C291 C292 1.383 . S
C291 H299 0.929 . S
C292 C291 1.383 . S
C292 C293 1.377 . S
C293 H277 0.930 1_556 S
C293 C292 1.377 . S
C293 C294 1.379 . S
C294 H278 0.931 1_556 S
C294 C288 1.383 . S
C294 C293 1.379 . S
H295 C289 0.959 . S
H296 C289 0.961 1_565 S
H297 C289 0.960 1_565 S
H298 C290 0.930 . S
H299 C291 0.929 . S
H300 C308 0.929 . S
H301 C310 0.930 . S
H302 C312 0.930 . S
H303 C315 0.929 . S
H304 C318 0.930 . S
H305 C320 0.960 . S
H306 C320 0.960 . S
H307 C320 0.960 . S
C308 H300 0.929 . S
C308 C309 1.377 1_554 S
C308 C310 1.384 . S
C309 C308 1.377 1_556 S
C309 C315 1.390 . S
C310 H301 0.930 . S
C310 C308 1.384 . S
C310 C311 1.372 1_554 S
C311 C310 1.372 1_556 S
C311 C312 1.400 . S
C311 C316 1.490 . S
C312 H302 0.930 . S
C312 C311 1.400 . S
C312 C315 1.386 . S
H313 C329 0.930 . S
H314 C330 0.931 . S
C315 H303 0.929 . S
C315 C309 1.390 . S
C315 C312 1.386 . S
C316 C311 1.490 . S
C316 C318 1.395 1_556 S
C316 C319 1.403 . S
H317 C323 0.930 . S
C318 H304 0.930 . S
C318 C316 1.395 1_554 S
C318 C321 1.403 . S
C319 C316 1.403 . S
C319 C320 1.524 . S
C319 C323 1.400 . S
C320 H305 0.960 . S
C320 H306 0.960 . S
C320 H307 0.960 . S
C320 C319 1.524 . S
C321 C318 1.403 . S
C321 C322 1.392 1_554 S
C321 C325 1.495 . S
C322 C321 1.392 1_556 S
C322 C323 1.385 . S
C322 C324 1.478 . S
C323 H317 0.930 . S
C323 C319 1.400 . S
C323 C322 1.385 . S
C324 C322 1.478 . S
C324 C326 1.381 1_556 S
C324 C330 1.383 . S
C325 C321 1.495 . S
C325 H331 0.959 . S
C325 H332 0.961 . S
C325 H333 0.960 . S
C326 C324 1.381 1_554 S
C326 C327 1.394 . S
C326 H334 0.930 . S
C327 C326 1.394 . S
C327 C328 1.383 1_554 S
C327 H335 0.929 . S
C328 C327 1.383 1_556 S
C328 C329 1.377 . S
C329 H313 0.930 . S
C329 C328 1.377 . S
C329 C330 1.379 . S
C330 H314 0.931 . S
C330 C324 1.383 . S
C330 C329 1.379 . S
H331 C325 0.959 . S
H332 C325 0.961 . S
H333 C325 0.960 . S
H334 C326 0.930 . S
H335 C327 0.929 . S
H336 C344 0.929 . S
H337 C346 0.930 . S
H338 C348 0.930 . S
H339 C351 0.929 . S
H340 C354 0.930 1_455 S
H341 C356 0.960 1_554 S
H342 C356 0.960 1_455 S
H343 C356 0.960 1_454 S
C344 H336 0.929 . S
C344 C345 1.377 . S
C344 C346 1.384 . S
C345 C344 1.377 . S
C345 C351 1.390 1_556 S
C346 H337 0.930 . S
C346 C344 1.384 . S
C346 C347 1.372 . S
C347 C346 1.372 . S
C347 C348 1.400 1_556 S
C347 C352 1.490 . S
C348 H338 0.930 . S
C348 C347 1.400 1_554 S
C348 C351 1.386 . S
H349 C365 0.930 . S
H350 C366 0.931 . S
C351 H339 0.929 . S
C351 C345 1.390 1_554 S
C351 C348 1.386 . S
C352 C347 1.490 . S
C352 C354 1.395 1_455 S
C352 C355 1.403 1_455 S
H353 C359 0.933 . S
C354 H340 0.930 1_655 S
C354 C352 1.395 1_655 S
C354 C357 1.403 . S
C355 C352 1.403 1_655 S
C355 C356 1.524 . S
C355 C359 1.400 . S
C356 H341 0.960 1_556 S
C356 H342 0.960 1_655 S
C356 H343 0.960 1_656 S
C356 C355 1.524 . S
C357 C354 1.403 . S
C357 C358 1.392 . S
C357 C361 1.495 . S
C358 C357 1.392 . S
C358 C359 1.385 . S
C358 C360 1.478 . S
C359 H353 0.933 . S
C359 C355 1.400 . S
C359 C358 1.385 . S
C360 C358 1.478 . S
C360 C362 1.381 . S
C360 C366 1.383 1_556 S
C361 C357 1.495 . S
C361 H367 0.959 . S
C361 H368 0.961 . S
C361 H369 0.960 . S
C362 C360 1.381 . S
C362 C363 1.394 . S
C362 H370 0.930 . S
C363 C362 1.394 . S
C363 C364 1.383 . S
C363 H371 0.929 . S
C364 C363 1.383 . S
C364 C365 1.377 1_556 S
C365 H349 0.930 . S
C365 C364 1.377 1_554 S
C365 C366 1.379 . S
C366 H350 0.931 . S
C366 C360 1.383 1_554 S
C366 C365 1.379 . S
H367 C361 0.959 . S
H368 C361 0.961 . S
H369 C361 0.960 . S
H370 C362 0.930 . S
H371 C363 0.929 . S
H372 C380 0.929 . S
H373 C382 0.930 . S
H374 C384 0.930 . S
H375 C387 0.929 . S
H376 C390 0.930 . S
H377 C392 0.960 . S
H378 C392 0.960 . S
H379 C392 0.960 . S
C380 H372 0.929 . S
C380 C381 1.377 1_554 S
C380 C382 1.384 . S
C381 C380 1.377 1_556 S
C381 C387 1.390 . S
C382 H373 0.930 . S
C382 C380 1.384 . S
C382 C383 1.372 1_554 S
C383 C382 1.372 1_556 S
C383 C384 1.400 . S
C383 C388 1.490 . S
C384 H374 0.930 . S
C384 C383 1.400 . S
C384 C387 1.386 . S
H385 C401 0.930 . S
H386 C402 0.931 . S
C387 H375 0.929 . S
C387 C381 1.390 . S
C387 C384 1.386 . S
C388 C383 1.490 . S
C388 C390 1.395 1_556 S
C388 C391 1.403 . S
H389 C395 0.930 . S
C390 H376 0.930 . S
C390 C388 1.395 1_554 S
C390 C393 1.403 . S
C391 C388 1.403 . S
C391 C392 1.524 . S
C391 C395 1.400 . S
C392 H377 0.960 . S
C392 H378 0.960 . S
C392 H379 0.960 . S
C392 C391 1.524 . S
C393 C390 1.403 . S
C393 C394 1.392 1_564 S
C393 C397 1.485 1_565 S
C394 C393 1.392 1_546 S
C394 C395 1.385 1_545 S
C394 C396 1.478 . S
C395 H389 0.930 . S
C395 C391 1.400 . S
C395 C394 1.385 1_565 S
C396 C394 1.478 . S
C396 C398 1.381 . S
C396 C402 1.383 . S
C397 C393 1.485 1_545 S
C397 H403 0.947 1_545 S
C397 H404 0.964 . S
C397 H405 0.979 . S
C398 C396 1.381 . S
C398 C399 1.394 . S
C398 H406 0.930 1_556 S
C399 C398 1.394 . S
C399 C400 1.383 . S
C399 H407 0.929 . S
C400 C399 1.383 . S
C400 C401 1.377 . S
C401 H385 0.930 . S
C401 C400 1.377 . S
C401 C402 1.379 . S
C402 H386 0.931 . S
C402 C396 1.383 . S
C402 C401 1.379 . S
H403 C397 0.947 1_565 S
H404 C397 0.964 . S
H405 C397 0.979 . S
H406 C398 0.930 1_554 S
H407 C399 0.929 . S
H408 C416 0.929 . S
H409 C418 0.930 . S
H410 C420 0.930 . S
H411 C423 0.929 . S
H412 C426 0.930 . S
H413 C428 0.960 . S
H414 C428 0.960 . S
H415 C428 0.960 . S
C416 H408 0.929 . S
C416 C417 1.377 . S
C416 C418 1.384 . S
C417 C416 1.377 . S
C417 C423 1.390 1_554 S
C418 H409 0.930 . S
C418 C416 1.384 . S
C418 C419 1.372 . S
C419 C418 1.372 . S
C419 C420 1.400 1_554 S
C419 C424 1.490 . S
C420 H410 0.930 . S
C420 C419 1.400 1_556 S
C420 C423 1.386 . S
H421 C437 0.930 . S
H422 C438 0.931 . S
C423 H411 0.929 . S
C423 C417 1.390 1_556 S
C423 C420 1.386 . S
C424 C419 1.490 . S
C424 C426 1.395 . S
C424 C427 1.403 1_554 S
H425 C431 0.930 . S
C426 H412 0.930 . S
C426 C424 1.395 . S
C426 C429 1.403 . S
C427 C424 1.403 1_556 S
C427 C428 1.524 . S
C427 C431 1.400 . S
C428 H413 0.960 . S
C428 H414 0.960 . S
C428 H415 0.960 . S
C428 C427 1.524 . S
C429 C426 1.403 . S
C429 C430 1.392 . S
C429 C433 1.495 . S
C430 C429 1.392 . S
C430 C431 1.385 1_554 S
C430 C432 1.478 . S
C431 H425 0.930 . S
C431 C427 1.400 . S
C431 C430 1.385 1_556 S
C432 C430 1.478 . S
C432 C434 1.381 . S
C432 C438 1.383 1_554 S
C433 C429 1.495 . S
C433 H439 0.959 . S
C433 H440 0.961 . S
C433 H441 0.960 . S
C434 C432 1.381 . S
C434 C435 1.394 . S
C434 H442 0.930 . S
C435 C434 1.394 . S
C435 C436 1.383 . S
C435 H443 0.929 . S
C436 C435 1.383 . S
C436 C437 1.377 1_554 S
C437 H421 0.930 . S
C437 C436 1.377 1_556 S
C437 C438 1.379 . S
C438 H422 0.931 . S
C438 C432 1.383 1_556 S
C438 C437 1.379 . S
H439 C433 0.959 . S
H440 C433 0.961 . S
H441 C433 0.960 . S
H442 C434 0.930 . S
H443 C435 0.929 . S
H444 C452 0.929 . S
H445 C454 0.930 . S
H446 C456 0.930 . S
H447 C459 0.929 . S
H448 C462 0.930 . S
H449 C464 0.960 . S
H450 C464 0.960 . S
H451 C464 0.960 . S
C452 H444 0.929 . S
C452 C453 1.377 . S
C452 C454 1.384 . S
C453 C452 1.377 . S
C453 C459 1.390 . S
C454 H445 0.930 . S
C454 C452 1.384 . S
C454 C455 1.372 . S
C455 C454 1.372 . S
C455 C456 1.400 . S
C455 C460 1.490 . S
C456 H446 0.930 . S
C456 C455 1.400 . S
C456 C459 1.386 . S
H457 C473 0.930 . S
H458 C474 0.931 . S
C459 H447 0.929 . S
C459 C453 1.390 . S
C459 C456 1.386 . S
C460 C455 1.490 . S
C460 C462 1.395 . S
C460 C463 1.403 1_554 S
H461 C467 0.930 . S
C462 H448 0.930 . S
C462 C460 1.395 . S
C462 C465 1.403 . S
C463 C460 1.403 1_556 S
C463 C464 1.524 . S
C463 C467 1.400 . S
C464 H449 0.960 . S
C464 H450 0.960 . S
C464 H451 0.960 . S
C464 C463 1.524 . S
C465 C462 1.403 . S
C465 C466 1.392 . S
C465 C469 1.495 . S
C466 C465 1.392 . S
C466 C467 1.385 1_554 S
C466 C468 1.478 . S
C467 H461 0.930 . S
C467 C463 1.400 . S
C467 C466 1.385 1_556 S
C468 C466 1.478 . S
C468 C470 1.381 . S
C468 C474 1.383 . S
C469 C465 1.495 . S
C469 H475 0.959 . S
C469 H476 0.961 . S
C469 H477 0.960 . S
C470 C468 1.381 . S
C470 C471 1.394 . S
C470 H478 0.930 . S
C471 C470 1.394 . S
C471 C472 1.383 . S
C471 H479 0.928 1_554 S
C472 C471 1.383 . S
C472 C473 1.377 . S
C473 H457 0.930 . S
C473 C472 1.377 . S
C473 C474 1.379 . S
C474 H458 0.931 . S
C474 C468 1.383 . S
C474 C473 1.379 . S
H475 C469 0.959 . S
H476 C469 0.961 . S
H477 C469 0.960 . S
H478 C470 0.930 . S
H479 C471 0.928 1_556 S
H480 C488 0.929 . S
H481 C490 0.930 . S
H482 C492 0.930 . S
H483 C495 0.929 . S
H484 C498 0.930 . S
H485 C500 0.960 . S
H486 C500 0.960 . S
H487 C500 0.960 . S
C488 H480 0.929 . S
C488 C489 1.377 . S
C488 C490 1.384 . S
C489 C488 1.377 . S
C489 C495 1.390 1_554 S
C490 H481 0.930 . S
C490 C488 1.384 . S
C490 C491 1.372 . S
C491 C490 1.372 . S
C491 C492 1.400 1_554 S
C491 C496 1.490 . S
C492 H482 0.930 . S
C492 C491 1.400 1_556 S
C492 C495 1.386 . S
H493 C509 0.930 . S
H494 C510 0.931 . S
C495 H483 0.929 . S
C495 C489 1.390 1_556 S
C495 C492 1.386 . S
C496 C491 1.490 . S
C496 C498 1.395 . S
C496 C499 1.403 1_554 S
H497 C503 0.930 . S
C498 H484 0.930 . S
C498 C496 1.395 . S
C498 C501 1.403 . S
C499 C496 1.403 1_556 S
C499 C500 1.524 . S
C499 C503 1.400 . S
C500 H485 0.960 . S
C500 H486 0.960 . S
C500 H487 0.960 . S
C500 C499 1.524 . S
C501 C498 1.403 . S
C501 C502 1.392 . S
C501 C505 1.495 . S
C502 C501 1.392 . S
C502 C503 1.385 1_554 S
C502 C504 1.478 . S
C503 H497 0.930 . S
C503 C499 1.400 . S
C503 C502 1.385 1_556 S
C504 C502 1.478 . S
C504 C506 1.381 . S
C504 C510 1.383 1_554 S
C505 C501 1.495 . S
C505 H511 0.959 . S
C505 H512 0.961 . S
C505 H513 0.960 . S
C506 C504 1.381 . S
C506 C507 1.394 . S
C506 H514 0.930 . S
C507 C506 1.394 . S
C507 C508 1.383 . S
C507 H515 0.929 . S
C508 C507 1.383 . S
C508 C509 1.377 1_554 S
C509 H493 0.930 . S
C509 C508 1.377 1_556 S
C509 C510 1.379 . S
C510 H494 0.931 . S
C510 C504 1.383 1_556 S
C510 C509 1.379 . S
H511 C505 0.959 . S
H512 C505 0.961 . S
H513 C505 0.960 . S
H514 C506 0.930 . S
H515 C507 0.929 . S
H516 C524 0.929 . S
H517 C526 0.930 . S
H518 C528 0.930 . S
H519 C531 0.929 . S
H520 C534 0.930 . S
H521 C536 0.960 . S
H522 C536 0.960 . S
H523 C536 0.960 . S
C524 H516 0.929 . S
C524 C525 1.377 1_556 S
C524 C526 1.384 . S
C525 C524 1.377 1_554 S
C525 C531 1.390 . S
C526 H517 0.930 . S
C526 C524 1.384 . S
C526 C527 1.372 1_556 S
C527 C526 1.372 1_554 S
C527 C528 1.400 . S
C527 C532 1.490 . S
C528 H518 0.930 . S
C528 C527 1.400 . S
C528 C531 1.386 . S
H529 C545 0.930 . S
H530 C546 0.931 . S
C531 H519 0.929 . S
C531 C525 1.390 . S
C531 C528 1.386 . S
C532 C527 1.490 . S
C532 C534 1.395 1_554 S
C532 C535 1.403 . S
H533 C539 0.930 . S
C534 H520 0.930 . S
C534 C532 1.395 1_556 S
C534 C537 1.403 . S
C535 C532 1.403 . S
C535 C536 1.524 . S
C535 C539 1.400 . S
C536 H521 0.960 . S
C536 H522 0.960 . S
C536 H523 0.960 . S
C536 C535 1.524 . S
C537 C534 1.403 . S
C537 C538 1.392 1_556 S
C537 C541 1.495 . S
C538 C537 1.392 1_554 S
C538 C539 1.385 . S
C538 C540 1.478 . S
C539 H533 0.930 . S
C539 C535 1.400 . S
C539 C538 1.385 . S
C540 C538 1.478 . S
C540 C542 1.381 1_554 S
C540 C546 1.383 . S
C541 C537 1.495 . S
C541 H547 0.959 . S
C541 H548 0.961 . S
C541 H549 0.960 . S
C542 C540 1.381 1_556 S
C542 C543 1.394 . S
C542 H550 0.930 . S
C543 C542 1.394 . S
C543 C544 1.383 1_556 S
C543 H551 0.929 . S
C544 C543 1.383 1_554 S
C544 C545 1.377 . S
C545 H529 0.930 . S
C545 C544 1.377 . S
C545 C546 1.379 . S
C546 H530 0.931 . S
C546 C540 1.383 . S
C546 C545 1.379 . S
H547 C541 0.959 . S
H548 C541 0.961 . S
H549 C541 0.960 . S
H550 C542 0.930 . S
H551 C543 0.929 . S
H552 C560 0.929 . S
H553 C562 0.930 . S
H554 C564 0.930 . S
H555 C567 0.929 . S
H556 C570 0.930 . S
H557 C572 0.960 . S
H558 C572 0.960 1_556 S
H559 C572 0.960 . S
C560 H552 0.929 . S
C560 C561 1.377 1_556 S
C560 C562 1.384 . S
C561 C560 1.377 1_554 S
C561 C567 1.390 . S
C562 H553 0.930 . S
C562 C560 1.384 . S
C562 C563 1.372 1_556 S
C563 C562 1.372 1_554 S
C563 C564 1.400 . S
C563 C568 1.490 . S
C564 H554 0.930 . S
C564 C563 1.400 . S
C564 C567 1.386 . S
H565 C581 0.930 . S
H566 C582 0.931 . S
C567 H555 0.929 . S
C567 C561 1.390 . S
C567 C564 1.386 . S
C568 C563 1.490 . S
C568 C570 1.395 1_554 S
C568 C571 1.403 . S
H569 C575 0.930 . S
C570 H556 0.930 . S
C570 C568 1.395 1_556 S
C570 C573 1.403 . S
C571 C568 1.403 . S
C571 C572 1.524 . S
C571 C575 1.400 . S
C572 H557 0.960 . S
C572 H558 0.960 1_554 S
C572 H559 0.960 . S
C572 C571 1.524 . S
C573 C570 1.403 . S
C573 C574 1.392 1_556 S
C573 C577 1.495 . S
C574 C573 1.392 1_554 S
C574 C575 1.385 . S
C574 C576 1.478 . S
C575 H569 0.930 . S
C575 C571 1.400 . S
C575 C574 1.385 . S
C576 C574 1.478 . S
C576 C578 1.381 1_554 S
C576 C582 1.383 . S
C577 C573 1.495 . S
C577 H583 0.959 . S
C577 H584 0.961 1_556 S
C577 H585 0.960 . S
C578 C576 1.381 1_556 S
C578 C579 1.394 . S
C578 H586 0.930 . S
C579 C578 1.394 . S
C579 C580 1.383 1_556 S
C579 H587 0.929 . S
C580 C579 1.383 1_554 S
C580 C581 1.377 . S
C581 H565 0.930 . S
C581 C580 1.377 . S
C581 C582 1.379 . S
C582 H566 0.931 . S
C582 C576 1.383 . S
C582 C581 1.379 . S
H583 C577 0.959 . S
H584 C577 0.961 1_554 S
H585 C577 0.960 . S
H586 C578 0.930 . S
H587 C579 0.929 . S
H588 C596 0.929 . S
H589 C598 0.930 . S
H590 C600 0.930 . S
H591 C603 0.929 . S
H592 C606 0.930 . S
H593 C608 0.960 . S
H594 C608 0.960 . S
H595 C608 0.960 . S
C596 H588 0.929 . S
C596 C597 1.377 . S
C596 C598 1.384 . S
C597 C596 1.377 . S
C597 C603 1.390 1_554 S
C598 H589 0.930 . S
C598 C596 1.384 . S
C598 C599 1.372 . S
C599 C598 1.372 . S
C599 C600 1.400 1_554 S
C599 C604 1.490 . S
C600 H590 0.930 . S
C600 C599 1.400 1_556 S
C600 C603 1.386 . S
H601 C617 0.930 . S
H602 C618 0.931 . S
C603 H591 0.929 . S
C603 C597 1.390 1_556 S
C603 C600 1.386 . S
C604 C599 1.490 . S
C604 C606 1.395 1_554 S
C604 C607 1.403 . S
H605 C611 0.930 . S
C606 H592 0.930 . S
C606 C604 1.395 1_556 S
C606 C609 1.403 . S
C607 C604 1.403 . S
C607 C608 1.524 . S
C607 C611 1.400 . S
C608 H593 0.960 . S
C608 H594 0.960 . S
C608 H595 0.960 . S
C608 C607 1.524 . S
C609 C606 1.403 . S
C609 C610 1.392 1_556 S
C609 C613 1.495 . S
C610 C609 1.392 1_554 S
C610 C611 1.385 . S
C610 C612 1.478 . S
C611 H605 0.930 . S
C611 C607 1.400 . S
C611 C610 1.385 . S
C612 C610 1.478 . S
C612 C614 1.381 . S
C612 C618 1.383 1_554 S
C613 C609 1.495 . S
C613 H619 0.959 . S
C613 H620 0.961 . S
C613 H621 0.960 1_556 S
C614 C612 1.381 . S
C614 C615 1.394 . S
C614 H622 0.930 . S
C615 C614 1.394 . S
C615 C616 1.383 . S
C615 H623 0.929 . S
C616 C615 1.383 . S
C616 C617 1.377 1_554 S
C617 H601 0.930 . S
C617 C616 1.377 1_556 S
C617 C618 1.379 . S
C618 H602 0.931 . S
C618 C612 1.383 1_556 S
C618 C617 1.379 . S
H619 C613 0.959 . S
H620 C613 0.961 . S
H621 C613 0.960 1_554 S
H622 C614 0.930 . S
H623 C615 0.929 . S
H624 C632 0.929 . S
H625 C634 0.930 . S
H626 C636 0.930 . S
H627 C639 0.929 . S
H628 C642 0.930 . S
H629 C644 0.960 . S
H630 C644 0.960 . S
H631 C644 0.960 . S
C632 H624 0.929 . S
C632 C633 1.377 . S
C632 C634 1.384 . S
C633 C632 1.377 . S
C633 C639 1.390 . S
C634 H625 0.930 . S
C634 C632 1.384 . S
C634 C635 1.372 . S
C635 C634 1.372 . S
C635 C636 1.400 . S
C635 C640 1.490 . S
C636 H626 0.930 . S
C636 C635 1.400 . S
C636 C639 1.386 . S
H637 C653 0.930 . S
H638 C654 0.931 . S
C639 H627 0.929 . S
C639 C633 1.390 . S
C639 C636 1.386 . S
C640 C635 1.490 . S
C640 C642 1.395 . S
C640 C643 1.403 . S
H641 C647 0.930 . S
C642 H628 0.930 . S
C642 C640 1.395 . S
C642 C645 1.403 . S
C643 C640 1.403 . S
C643 C644 1.524 . S
C643 C647 1.400 . S
C644 H629 0.960 . S
C644 H630 0.960 . S
C644 H631 0.960 . S
C644 C643 1.524 . S
C645 C642 1.403 . S
C645 C646 1.392 . S
C645 C649 1.495 . S
C646 C645 1.392 . S
C646 C647 1.385 . S
C646 C648 1.478 . S
C647 H641 0.930 . S
C647 C643 1.400 . S
C647 C646 1.385 . S
C648 C646 1.478 . S
C648 C650 1.381 . S
C648 C654 1.383 . S
C649 C645 1.495 . S
C649 H655 0.959 . S
C649 H656 0.961 . S
C649 H657 0.960 . S
C650 C648 1.381 . S
C650 C651 1.394 . S
C650 H658 0.930 . S
C651 C650 1.394 . S
C651 C652 1.383 . S
C651 H659 0.929 . S
C652 C651 1.383 . S
C652 C653 1.377 . S
C653 H637 0.930 . S
C653 C652 1.377 . S
C653 C654 1.379 . S
C654 H638 0.931 . S
C654 C648 1.383 . S
C654 C653 1.379 . S
H655 C649 0.959 . S
H656 C649 0.961 . S
H657 C649 0.960 . S
H658 C650 0.930 . S
H659 C651 0.929 . S
H660 C668 0.929 . S
H661 C670 0.930 . S
H662 C672 0.930 . S
H663 C675 0.929 . S
H664 C678 0.930 . S
H665 C680 0.960 . S
H666 C680 0.960 . S
H667 C680 0.960 . S
C668 H660 0.929 . S
C668 C669 1.377 . S
C668 C670 1.384 . S
C669 C668 1.377 . S
C669 C675 1.390 . S
C670 H661 0.930 . S
C670 C668 1.384 . S
C670 C671 1.372 . S
C671 C670 1.372 . S
C671 C672 1.400 . S
C671 C676 1.490 . S
C672 H662 0.930 . S
C672 C671 1.400 . S
C672 C675 1.386 . S
H673 C689 0.930 . S
H674 C690 0.931 . S
C675 H663 0.929 . S
C675 C669 1.390 . S
C675 C672 1.386 . S
C676 C671 1.490 . S
C676 C678 1.395 . S
C676 C679 1.403 . S
H677 C683 0.930 . S
C678 H664 0.930 . S
C678 C676 1.395 . S
C678 C681 1.403 . S
C679 C676 1.403 . S
C679 C680 1.524 . S
C679 C683 1.400 . S
C680 H665 0.960 . S
C680 H666 0.960 . S
C680 H667 0.960 . S
C680 C679 1.524 . S
C681 C678 1.403 . S
C681 C682 1.392 . S
C681 C685 1.495 . S
C682 C681 1.392 . S
C682 C683 1.385 . S
C682 C684 1.478 . S
C683 H677 0.930 . S
C683 C679 1.400 . S
C683 C682 1.385 . S
C684 C682 1.478 . S
C684 C686 1.381 . S
C684 C690 1.383 . S
C685 C681 1.495 . S
C685 H691 0.959 . S
C685 H692 0.961 . S
C685 H693 0.960 . S
C686 C684 1.381 . S
C686 C687 1.394 . S
C686 H694 0.930 . S
C687 C686 1.394 . S
C687 C688 1.383 . S
C687 H695 0.929 . S
C688 C687 1.383 . S
C688 C689 1.377 . S
C689 H673 0.930 . S
C689 C688 1.377 . S
C689 C690 1.379 . S
C690 H674 0.931 . S
C690 C684 1.383 . S
C690 C689 1.379 . S
H691 C685 0.959 . S
H692 C685 0.961 . S
H693 C685 0.960 . S
H694 C686 0.930 . S
H695 C687 0.929 . S
H696 C704 0.929 . S
H697 C706 0.930 . S
H698 C708 0.930 . S
H699 C711 0.929 . S
H700 C714 0.930 . S
H701 C716 0.960 . S
H702 C716 0.960 . S
H703 C716 0.960 . S
C704 H696 0.929 . S
C704 C705 1.377 . S
C704 C706 1.384 . S
C705 C704 1.377 . S
C705 C711 1.390 . S
C706 H697 0.930 . S
C706 C704 1.384 . S
C706 C707 1.372 . S
C707 C706 1.372 . S
C707 C708 1.400 . S
C707 C712 1.490 . S
C708 H698 0.930 . S
C708 C707 1.400 . S
C708 C711 1.386 . S
H709 C725 0.930 . S
H710 C726 0.931 . S
C711 H699 0.929 . S
C711 C705 1.390 . S
C711 C708 1.386 . S
C712 C707 1.490 . S
C712 C714 1.395 . S
C712 C715 1.403 . S
H713 C719 0.930 . S
C714 H700 0.930 . S
C714 C712 1.395 . S
C714 C717 1.403 . S
C715 C712 1.403 . S
C715 C716 1.524 . S
C715 C719 1.400 . S
C716 H701 0.960 . S
C716 H702 0.960 . S
C716 H703 0.960 . S
C716 C715 1.524 . S
C717 C714 1.403 . S
C717 C718 1.392 . S
C717 C721 1.495 . S
C718 C717 1.392 . S
C718 C719 1.385 . S
C718 C720 1.478 . S
C719 H713 0.930 . S
C719 C715 1.400 . S
C719 C718 1.385 . S
C720 C718 1.478 . S
C720 C722 1.381 . S
C720 C726 1.383 . S
C721 C717 1.495 . S
C721 H727 0.959 . S
C721 H728 0.961 . S
C721 H729 0.960 . S
C722 C720 1.381 . S
C722 C723 1.394 . S
C722 H730 0.930 . S
C723 C722 1.394 . S
C723 C724 1.383 . S
C723 H731 0.929 . S
C724 C723 1.383 . S
C724 C725 1.377 . S
C725 H709 0.930 . S
C725 C724 1.377 . S
C725 C726 1.379 . S
C726 H710 0.931 . S
C726 C720 1.383 . S
C726 C725 1.379 . S
H727 C721 0.959 . S
H728 C721 0.961 . S
H729 C721 0.960 . S
H730 C722 0.930 . S
H731 C723 0.929 . S
H732 C740 0.929 . S
H733 C742 0.930 . S
H734 C744 0.930 . S
H735 C747 0.929 . S
H736 C750 0.930 . S
H737 C752 0.960 . S
H738 C752 0.960 . S
H739 C752 0.960 . S
C740 H732 0.929 . S
C740 C741 1.377 . S
C740 C742 1.384 . S
C741 C740 1.377 . S
C741 C747 1.390 . S
C742 H733 0.930 . S
C742 C740 1.384 . S
C742 C743 1.372 . S
C743 C742 1.372 . S
C743 C744 1.400 . S
C743 C748 1.490 . S
C744 H734 0.930 . S
C744 C743 1.400 . S
C744 C747 1.386 . S
H745 C761 0.930 . S
H746 C762 0.931 . S
C747 H735 0.929 . S
C747 C741 1.390 . S
C747 C744 1.386 . S
C748 C743 1.490 . S
C748 C750 1.395 . S
C748 C751 1.403 . S
H749 C755 0.930 . S
C750 H736 0.930 . S
C750 C748 1.395 . S
C750 C753 1.403 . S
C751 C748 1.403 . S
C751 C752 1.524 . S
C751 C755 1.400 . S
C752 H737 0.960 . S
C752 H738 0.960 . S
C752 H739 0.960 . S
C752 C751 1.524 . S
C753 C750 1.403 . S
C753 C754 1.392 . S
C753 C757 1.495 . S
C754 C753 1.392 . S
C754 C755 1.385 . S
C754 C756 1.478 . S
C755 H749 0.930 . S
C755 C751 1.400 . S
C755 C754 1.385 . S
C756 C754 1.478 . S
C756 C758 1.381 . S
C756 C762 1.383 . S
C757 C753 1.495 . S
C757 H763 0.959 . S
C757 H764 0.961 . S
C757 H765 0.960 . S
C758 C756 1.381 . S
C758 C759 1.394 . S
C758 H766 0.930 . S
C759 C758 1.394 . S
C759 C760 1.383 . S
C759 H767 0.929 . S
C760 C759 1.383 . S
C760 C761 1.377 . S
C761 H745 0.930 . S
C761 C760 1.377 . S
C761 C762 1.379 . S
C762 H746 0.931 . S
C762 C756 1.383 . S
C762 C761 1.379 . S
H763 C757 0.959 . S
H764 C757 0.961 . S
H765 C757 0.960 . S
H766 C758 0.930 . S
H767 C759 0.929 . S
H768 C776 0.929 . S
H769 C778 0.930 . S
H770 C780 0.930 . S
H771 C783 0.929 . S
H772 C786 0.930 . S
H773 C788 0.960 . S
H774 C788 0.960 . S
H775 C788 0.960 . S
C776 H768 0.929 . S
C776 C777 1.377 . S
C776 C778 1.384 . S
C777 C776 1.377 . S
C777 C783 1.390 . S
C778 H769 0.930 . S
C778 C776 1.384 . S
C778 C779 1.372 . S
C779 C778 1.372 . S
C779 C780 1.400 . S
C779 C784 1.490 . S
C780 H770 0.930 . S
C780 C779 1.400 . S
C780 C783 1.386 . S
H781 C797 0.930 . S
H782 C798 0.931 . S
C783 H771 0.929 . S
C783 C777 1.390 . S
C783 C780 1.386 . S
C784 C779 1.490 . S
C784 C786 1.395 . S
C784 C787 1.403 . S
H785 C791 0.930 . S
C786 H772 0.930 . S
C786 C784 1.395 . S
C786 C789 1.403 . S
C787 C784 1.403 . S
C787 C788 1.524 . S
C787 C791 1.400 . S
C788 H773 0.960 . S
C788 H774 0.960 . S
C788 H775 0.960 . S
C788 C787 1.524 . S
C789 C786 1.403 . S
C789 C790 1.392 . S
C789 C793 1.495 . S
C790 C789 1.392 . S
C790 C791 1.385 . S
C790 C792 1.478 . S
C791 H785 0.930 . S
C791 C787 1.400 . S
C791 C790 1.385 . S
C792 C790 1.478 . S
C792 C794 1.381 . S
C792 C798 1.383 . S
C793 C789 1.495 . S
C793 H799 0.959 . S
C793 H800 0.961 . S
C793 H801 0.960 . S
C794 C792 1.381 . S
C794 C795 1.394 . S
C794 H802 0.930 . S
C795 C794 1.394 . S
C795 C796 1.383 . S
C795 H803 0.929 . S
C796 C795 1.383 . S
C796 C797 1.377 . S
C797 H781 0.930 . S
C797 C796 1.377 . S
C797 C798 1.379 . S
C798 H782 0.931 . S
C798 C792 1.383 . S
C798 C797 1.379 . S
H799 C793 0.959 . S
H800 C793 0.961 . S
H801 C793 0.960 . S
H802 C794 0.930 . S
H803 C795 0.929 . S
H804 C812 0.929 . S
H805 C814 0.930 . S
H806 C816 0.930 . S
H807 C819 0.929 . S
H808 C822 0.930 . S
H809 C824 0.960 . S
H810 C824 0.960 . S
H811 C824 0.960 . S
C812 H804 0.929 . S
C812 C813 1.377 . S
C812 C814 1.384 . S
C813 C812 1.377 . S
C813 C819 1.390 . S
C814 H805 0.930 . S
C814 C812 1.384 . S
C814 C815 1.372 . S
C815 C814 1.372 . S
C815 C816 1.400 . S
C815 C820 1.490 . S
C816 H806 0.930 . S
C816 C815 1.400 . S
C816 C819 1.386 . S
H817 C833 0.930 . S
H818 C834 0.931 . S
C819 H807 0.929 . S
C819 C813 1.390 . S
C819 C816 1.386 . S
C820 C815 1.490 . S
C820 C822 1.395 . S
C820 C823 1.403 . S
H821 C827 0.930 . S
C822 H808 0.930 . S
C822 C820 1.395 . S
C822 C825 1.403 . S
C823 C820 1.403 . S
C823 C824 1.524 . S
C823 C827 1.400 . S
C824 H809 0.960 . S
C824 H810 0.960 . S
C824 H811 0.960 . S
C824 C823 1.524 . S
C825 C822 1.403 . S
C825 C826 1.392 . S
C825 C829 1.495 . S
C826 C825 1.392 . S
C826 C827 1.385 . S
C826 C828 1.478 . S
C827 H821 0.930 . S
C827 C823 1.400 . S
C827 C826 1.385 . S
C828 C826 1.478 . S
C828 C830 1.381 . S
C828 C834 1.383 . S
C829 C825 1.495 . S
C829 H835 0.959 . S
C829 H836 0.961 . S
C829 H837 0.960 . S
C830 C828 1.381 . S
C830 C831 1.394 . S
C830 H838 0.930 . S
C831 C830 1.394 . S
C831 C832 1.383 . S
C831 H839 0.929 . S
C832 C831 1.383 . S
C832 C833 1.377 . S
C833 H817 0.930 . S
C833 C832 1.377 . S
C833 C834 1.379 . S
C834 H818 0.931 . S
C834 C828 1.383 . S
C834 C833 1.379 . S
H835 C829 0.959 . S
H836 C829 0.961 . S
H837 C829 0.960 . S
H838 C830 0.930 . S
H839 C831 0.929 . S
C201 C189 1.356 1_556 S
C220 N13 1.247 . S
C237 C29 1.359 1_556 S
C256 N45 1.291 . S
C273 C61 1.354 1_556 S
C292 N77 1.302 . S
C309 N109 1.262 . S
C328 C93 1.363 1_556 S
C345 N141 1.279 . S
C364 C125 1.342 1_556 S
C381 C157 1.361 1_556 S
C400 N173 1.244 . S
C417 C130 1.529 . S
C436 N18 1.523 1_554 S
C453 C162 1.527 . S
C472 N50 1.535 1_554 S
C489 N82 1.521 1_554 S
C508 C2 1.532 . S
C525 N114 1.522 1_554 S
C544 C34 1.534 . S
C561 N146 1.522 1_554 S
C580 C66 1.535 . S
C597 C98 1.531 . S
C616 N178 1.508 1_554 S
C633 C6 1.512 . S
C652 C4 1.490 . S
C669 C38 1.515 . S
C688 C36 1.503 . S
C705 C70 1.515 . S
C724 C68 1.504 . S
C741 C102 1.512 . S
C760 C100 1.503 . S
C777 C132 1.507 . S
C796 C134 1.513 . S
C813 C166 1.513 . S
C832 C164 1.488 . S
