# Generated by pormake.
# Topology wmg, (6)-cn, num edge types: 1
# Building blocks:
#     Node 0, Type 0, BuildingBlock: VOLQOD_clean_sbu_1, # of connection points: 6
#     Node 1, Type 0, BuildingBlock: VOLQOD_clean_sbu_1, # of connection points: 6
#     Node 2, Type 0, BuildingBlock: VOLQOD_clean_sbu_1, # of connection points: 6
#     Node 3, Type 0, BuildingBlock: VOLQOD_clean_sbu_1, # of connection points: 6
#     Node 4, Type 0, BuildingBlock: VOLQOD_clean_sbu_1, # of connection points: 6
#     Node 5, Type 0, BuildingBlock: VOLQOD_clean_sbu_1, # of connection points: 6
#     Node 6, Type 0, BuildingBlock: VOLQOD_clean_sbu_1, # of connection points: 6
#     Node 7, Type 0, BuildingBlock: VOLQOD_clean_sbu_1, # of connection points: 6
#     Node 8, Type 0, BuildingBlock: VOLQOD_clean_sbu_1, # of connection points: 6
#     Node 9, Type 0, BuildingBlock: VOLQOD_clean_sbu_1, # of connection points: 6
#     Node 10, Type 0, BuildingBlock: VOLQOD_clean_sbu_1, # of connection points: 6
#     Node 11, Type 0, BuildingBlock: VOLQOD_clean_sbu_1, # of connection points: 6
#     Node 12, Type 0, BuildingBlock: VOLQOD_clean_sbu_1, # of connection points: 6
#     Node 13, Type 0, BuildingBlock: VOLQOD_clean_sbu_1, # of connection points: 6
#     Node 14, Type 0, BuildingBlock: VOLQOD_clean_sbu_1, # of connection points: 6
#     Node 15, Type 0, BuildingBlock: VOLQOD_clean_sbu_1, # of connection points: 6
#     Node 16, Type 0, BuildingBlock: VOLQOD_clean_sbu_1, # of connection points: 6
#     Node 17, Type 0, BuildingBlock: VOLQOD_clean_sbu_1, # of connection points: 6
#     Edge 18, Type (0, 0), None
#     Edge 19, Type (0, 0), None
#     Edge 20, Type (0, 0), None
#     Edge 21, Type (0, 0), None
#     Edge 22, Type (0, 0), None
#     Edge 23, Type (0, 0), None
#     Edge 24, Type (0, 0), None
#     Edge 25, Type (0, 0), None
#     Edge 26, Type (0, 0), None
#     Edge 27, Type (0, 0), None
#     Edge 28, Type (0, 0), None
#     Edge 29, Type (0, 0), None
#     Edge 30, Type (0, 0), None
#     Edge 31, Type (0, 0), None
#     Edge 32, Type (0, 0), None
#     Edge 33, Type (0, 0), None
#     Edge 34, Type (0, 0), None
#     Edge 35, Type (0, 0), None
#     Edge 36, Type (0, 0), None
#     Edge 37, Type (0, 0), None
#     Edge 38, Type (0, 0), None
#     Edge 39, Type (0, 0), None
#     Edge 40, Type (0, 0), None
#     Edge 41, Type (0, 0), None
#     Edge 42, Type (0, 0), None
#     Edge 43, Type (0, 0), None
#     Edge 44, Type (0, 0), None
#     Edge 45, Type (0, 0), None
#     Edge 46, Type (0, 0), None
#     Edge 47, Type (0, 0), None
#     Edge 48, Type (0, 0), None
#     Edge 49, Type (0, 0), None
#     Edge 50, Type (0, 0), None
#     Edge 51, Type (0, 0), None
#     Edge 52, Type (0, 0), None
#     Edge 53, Type (0, 0), None
#     Edge 54, Type (0, 0), None
#     Edge 55, Type (0, 0), None
#     Edge 56, Type (0, 0), None
#     Edge 57, Type (0, 0), None
#     Edge 58, Type (0, 0), None
#     Edge 59, Type (0, 0), None
#     Edge 60, Type (0, 0), None
#     Edge 61, Type (0, 0), None
#     Edge 62, Type (0, 0), None
#     Edge 63, Type (0, 0), None
#     Edge 64, Type (0, 0), None
#     Edge 65, Type (0, 0), None
#     Edge 66, Type (0, 0), None
#     Edge 67, Type (0, 0), None
#     Edge 68, Type (0, 0), None
#     Edge 69, Type (0, 0), None
#     Edge 70, Type (0, 0), None
#     Edge 71, Type (0, 0), None
# Relax obj value: 0.415
# Max RMSD: 0.274
# Mean RMSD: 0.274
data_MOF--net-wmg--node1-VOLQOD_clean_sbu_1--edge1-none
_symmetry_space_group_name_H-M    P1
_symmetry_Int_Tables_number       1
_symmetry_cell_setting            triclinic
loop_
_symmetry_equiv_pos_as_xyz
'x, y, z'
_cell_length_a     32.583137
_cell_length_b     32.583084
_cell_length_c     13.696879
_cell_angle_alpha  90.00434
_cell_angle_beta   89.991105
_cell_angle_gamma 119.99971
loop_
_atom_site_label
_atom_site_type_symbol
_atom_site_fract_x
_atom_site_fract_y
_atom_site_fract_z
_atom_type_partial_charge
O0 O 0.14084 0.31985 0.94274 0.0
Zn1 Zn 0.1775 0.31765 0.05741 0.0
O2 O 0.1677 0.25423 0.05609 0.0
Zn3 Zn 0.13816 0.22102 0.17315 0.0
Zn4 Zn 0.13222 0.22045 0.94553 0.0
Zn5 Zn 0.22378 0.25781 0.02274 0.0
O6 O 0.18805 0.20548 0.2367 0.0
O7 O 0.25068 0.25825 0.14923 0.0
O8 O 0.15989 0.33252 0.19136 0.0
O9 O 0.13968 0.26603 0.27301 0.0
O10 O 0.06404 0.184 0.14124 0.0
O11 O 0.06803 0.20026 0.9819 0.0
O12 O 0.13858 0.16384 0.90235 0.0
O13 O 0.24403 0.36886 0.01681 0.0
O14 O 0.21311 0.19871 0.9503 0.0
O15 O 0.26364 0.3187 0.95108 0.0
C16 C 0.14489 0.30564 0.85808 0.0
C17 C 0.23324 0.23276 0.22503 0.0
C18 C 0.04469 0.18629 0.06063 0.0
C19 C 0.1474 0.3082 0.27031 0.0
C20 C 0.17748 0.16393 0.90923 0.0
C21 C 0.27017 0.36057 0.96075 0.0
O22 O 0.14906 0.26918 0.84523 0.0
O23 O 0.64322 0.81358 0.94274 0.0
Zn24 Zn 0.64541 0.85245 0.05742 0.0
O25 O 0.70882 0.90605 0.05609 0.0
Zn26 Zn 0.74204 0.90974 0.17314 0.0
Zn27 Zn 0.74261 0.90435 0.94553 0.0
Zn28 Zn 0.70526 0.95856 0.02272 0.0
O29 O 0.75758 0.97518 0.23668 0.0
O30 O 0.70482 0.98504 0.14921 0.0
O31 O 0.63054 0.81997 0.19137 0.0
O32 O 0.69703 0.86625 0.27301 0.0
O33 O 0.77906 0.87264 0.14123 0.0
O34 O 0.76279 0.86034 0.9819 0.0
O35 O 0.79922 0.96731 0.90235 0.0
O36 O 0.59419 0.86776 0.01681 0.0
O37 O 0.76436 0.00699 0.95025 0.0
O38 O 0.64436 0.93753 0.95107 0.0
C39 C 0.65742 0.83184 0.85808 0.0
C40 C 0.7303 -0.00691 0.22501 0.0
C41 C 0.77676 0.85099 0.06062 0.0
C42 C 0.65486 0.8318 0.27032 0.0
C43 C 0.79913 0.00613 0.90919 0.0
C44 C 0.60249 0.9022 0.96074 0.0
O45 O 0.69389 0.87247 0.84523 0.0
O46 O 0.14948 0.82223 0.94274 0.0
Zn47 Zn 0.11062 0.78557 0.05742 0.0
O48 O 0.05702 0.79538 0.05611 0.0
Zn49 Zn 0.05333 0.8249 0.17319 0.0
Zn50 Zn 0.05871 0.83087 0.94556 0.0
Zn51 Zn 0.00451 0.73931 0.02274 0.0
O52 O -0.0121 0.77501 0.23673 0.0
O53 O -0.02196 0.71239 0.14922 0.0
O54 O 0.1431 0.80317 0.19136 0.0
O55 O 0.09682 0.82338 0.27304 0.0
O56 O 0.09044 0.89903 0.14128 0.0
O57 O 0.10272 0.89506 0.98193 0.0
O58 O -0.00425 0.82451 0.90238 0.0
O59 O 0.0953 0.71904 0.01679 0.0
O60 O 0.95607 0.74997 0.9503 0.0
O61 O 0.02554 0.69945 0.95106 0.0
C62 C 0.13123 0.81818 0.85808 0.0
C63 C 0.96999 0.72982 0.22504 0.0
C64 C 0.11208 0.91838 0.06067 0.0
C65 C 0.13127 0.81566 0.27032 0.0
C66 C 0.95694 0.78561 0.90924 0.0
C67 C 0.06087 0.69291 0.96072 0.0
O68 O 0.0906 0.81403 0.84525 0.0
O69 O 0.81488 0.65062 0.02194 0.0
Zn70 Zn 0.77821 0.6528 0.90727 0.0
O71 O 0.78801 0.71621 0.90858 0.0
Zn72 Zn 0.81754 0.74943 0.79152 0.0
Zn73 Zn 0.82348 0.75001 0.01915 0.0
Zn74 Zn 0.73191 0.71263 0.94191 0.0
O75 O 0.76765 0.76497 0.72796 0.0
O76 O 0.70502 0.71219 0.81541 0.0
O77 O 0.79582 0.63794 0.77332 0.0
O78 O 0.81602 0.70442 0.69166 0.0
O79 O 0.89166 0.78645 0.82343 0.0
O80 O 0.88768 0.77023 -0.0172 0.0
O81 O 0.81709 0.8066 0.06234 0.0
O82 O 0.71169 0.60158 0.94787 0.0
O83 O 0.74255 0.77171 0.01438 0.0
O84 O 0.69205 0.65173 0.01355 0.0
C85 C 0.81083 0.66482 0.1066 0.0
C86 C 0.72246 0.73769 0.73962 0.0
C87 C 0.91101 0.7842 0.90406 0.0
C88 C 0.8083 0.66225 0.69436 0.0
C89 C 0.77818 0.80648 0.05547 0.0
C90 C 0.68552 0.60986 0.0039 0.0
O91 O 0.80665 0.70128 0.11945 0.0
O92 O 0.31245 0.15686 0.02194 0.0
Zn93 Zn 0.31028 0.118 0.90727 0.0
O94 O 0.24686 0.06438 0.90859 0.0
Zn95 Zn 0.21365 0.0607 0.79153 0.0
Zn96 Zn 0.21306 0.06607 0.01915 0.0
Zn97 Zn 0.25044 0.01188 0.94193 0.0
O98 O 0.1981 -0.00474 0.72798 0.0
O99 O 0.25087 -0.01459 0.81544 0.0
O100 O 0.32514 0.15047 0.77331 0.0
O101 O 0.25866 0.10419 0.69167 0.0
O102 O 0.17662 0.0978 0.82344 0.0
O103 O 0.19286 0.11006 -0.0172 0.0
O104 O 0.15647 0.0031 0.06235 0.0
O105 O 0.3615 0.1027 0.94788 0.0
O106 O 0.19136 0.96344 0.01443 0.0
O107 O 0.31135 0.03292 0.01356 0.0
C108 C 0.29825 0.1386 0.1066 0.0
C109 C 0.22538 0.97735 0.73965 0.0
C110 C 0.17889 0.11941 0.90407 0.0
C111 C 0.30082 0.13864 0.69436 0.0
C112 C 0.15659 0.96431 0.05551 0.0
C113 C 0.35321 0.06825 0.00391 0.0
O114 O 0.26178 0.09797 0.11945 0.0
O115 O 0.80621 0.14818 0.02194 0.0
Zn116 Zn 0.84507 0.18486 0.90727 0.0
O117 O 0.89868 0.17505 0.90857 0.0
Zn118 Zn 0.90236 0.14553 0.79149 0.0
Zn119 Zn 0.89699 0.13956 0.01912 0.0
Zn120 Zn 0.95118 0.23114 0.94191 0.0
O121 O 0.9678 0.19542 0.72793 0.0
O122 O 0.97765 0.25804 0.81542 0.0
O123 O 0.81259 0.16725 0.77332 0.0
O124 O 0.85887 0.14705 0.69164 0.0
O125 O 0.86526 0.0714 0.82339 0.0
O126 O 0.85301 0.07537 -0.01723 0.0
O127 O 0.95997 0.14595 0.06231 0.0
O128 O 0.86037 0.25138 0.94789 0.0
O129 O -0.00038 0.2205 0.01438 0.0
O130 O 0.93015 0.271 0.01357 0.0
C131 C 0.82446 0.15223 0.1066 0.0
C132 C -0.0143 0.24061 0.73961 0.0
C133 C 0.84365 0.05205 0.90402 0.0
C134 C 0.82442 0.15477 0.69436 0.0
C135 C -0.00124 0.18487 0.05546 0.0
C136 C 0.89482 0.27753 0.00393 0.0
O137 O 0.86509 0.15639 0.11943 0.0
O138 O 0.8075 0.65318 0.27607 0.0
Zn139 Zn 0.84417 0.65098 0.39074 0.0
O140 O 0.83436 0.58757 0.38942 0.0
Zn141 Zn 0.80483 0.55435 0.50648 0.0
Zn142 Zn 0.79889 0.55378 0.27886 0.0
Zn143 Zn 0.89044 0.59114 0.35607 0.0
O144 O 0.85472 0.53881 0.57003 0.0
O145 O 0.91734 0.59158 0.48256 0.0
O146 O 0.82655 0.66585 0.52469 0.0
O147 O 0.80635 0.59936 0.60634 0.0
O148 O 0.7307 0.51733 0.47457 0.0
O149 O 0.7347 0.53359 0.31523 0.0
O150 O 0.80525 0.49718 0.23568 0.0
O151 O 0.91069 0.70219 0.35014 0.0
O152 O 0.87978 0.53204 0.28363 0.0
O153 O 0.93031 0.65204 0.28442 0.0
C154 C 0.81156 0.63898 0.1914 0.0
C155 C 0.89991 0.56609 0.55836 0.0
C156 C 0.71136 0.51962 0.39396 0.0
C157 C 0.81407 0.64153 0.60364 0.0
C158 C 0.84415 0.49727 0.24256 0.0
C159 C 0.93685 0.6939 0.2941 0.0
O160 O 0.81573 0.60251 0.17855 0.0
O161 O 0.30989 0.14692 0.27607 0.0
Zn162 Zn 0.31207 0.18578 0.39074 0.0
O163 O 0.37549 0.23939 0.38942 0.0
Zn164 Zn 0.4087 0.24308 0.50647 0.0
Zn165 Zn 0.40928 0.23769 0.27886 0.0
Zn166 Zn 0.37192 0.2919 0.35605 0.0
O167 O 0.42425 0.30851 0.57001 0.0
O168 O 0.37149 0.31837 0.48254 0.0
O169 O 0.29721 0.1533 0.5247 0.0
O170 O 0.3637 0.19959 0.60634 0.0
O171 O 0.44573 0.20597 0.47456 0.0
O172 O 0.42945 0.19368 0.31522 0.0
O173 O 0.46589 0.30065 0.23568 0.0
O174 O 0.26086 0.20109 0.35013 0.0
O175 O 0.43102 0.34033 0.28357 0.0
O176 O 0.31102 0.27086 0.28441 0.0
C177 C 0.32409 0.16517 0.1914 0.0
C178 C 0.39697 0.32642 0.55834 0.0
C179 C 0.44342 0.18432 0.39395 0.0
C180 C 0.32153 0.16513 0.60364 0.0
C181 C 0.4658 0.33946 0.24252 0.0
C182 C 0.26916 0.23553 0.29409 0.0
O183 O 0.36056 0.20581 0.17855 0.0
O184 O 0.81615 0.15557 0.27606 0.0
Zn185 Zn 0.77729 0.1189 0.39074 0.0
O186 O 0.72368 0.12871 0.38944 0.0
Zn187 Zn 0.72 0.15824 0.50651 0.0
Zn188 Zn 0.72538 0.1642 0.27889 0.0
Zn189 Zn 0.67117 0.07264 0.35607 0.0
O190 O 0.65457 0.10835 0.57006 0.0
O191 O 0.6447 0.04573 0.48255 0.0
O192 O 0.80976 0.13651 0.52469 0.0
O193 O 0.76349 0.15671 0.60636 0.0
O194 O 0.7571 0.23236 0.47461 0.0
O195 O 0.76938 0.22839 0.31526 0.0
O196 O 0.66241 0.15784 0.23571 0.0
O197 O 0.76197 0.05238 0.35012 0.0
O198 O 0.62274 0.0833 0.28362 0.0
O199 O 0.6922 0.03278 0.2844 0.0
C200 C 0.7979 0.15152 0.19141 0.0
C201 C 0.63665 0.06316 0.55837 0.0
C202 C 0.77874 0.25171 0.394 0.0
C203 C 0.79794 0.14899 0.60365 0.0
C204 C 0.6236 0.11894 0.24256 0.0
C205 C 0.72753 0.02623 0.29407 0.0
O206 O 0.75727 0.14736 0.17857 0.0
O207 O 0.48155 0.98395 0.35527 0.0
Zn208 Zn 0.44488 -0.01387 0.2406 0.0
O209 O 0.45467 0.04955 0.24192 0.0
Zn210 Zn 0.4842 0.08276 0.12485 0.0
Zn211 Zn 0.49015 0.08334 0.35248 0.0
Zn212 Zn 0.39858 0.04596 0.27524 0.0
O213 O 0.43432 0.09831 0.0613 0.0
O214 O 0.37169 0.04552 0.14874 0.0
O215 O 0.46249 0.97127 0.10665 0.0
O216 O 0.48268 0.03775 0.02499 0.0
O217 O 0.55833 0.11978 0.15676 0.0
O218 O 0.55435 0.10356 0.31613 0.0
O219 O 0.48376 0.13993 0.39568 0.0
O220 O 0.37835 0.93491 0.28121 0.0
O221 O 0.40922 0.10504 0.3477 0.0
O222 O 0.35871 0.98506 0.34689 0.0
C223 C 0.4775 -0.00185 0.43994 0.0
C224 C 0.38913 0.07102 0.07295 0.0
C225 C 0.57768 0.11753 0.23739 0.0
C226 C 0.47497 -0.00442 0.0277 0.0
C227 C 0.44484 0.13981 0.3888 0.0
C228 C 0.35219 0.9432 0.33724 0.0
O229 O 0.47332 0.03462 0.45279 0.0
O230 O -0.02088 0.49019 0.35527 0.0
Zn231 Zn 0.97694 0.45133 0.2406 0.0
O232 O 0.91353 0.39772 0.24192 0.0
Zn233 Zn 0.88032 0.39403 0.12487 0.0
Zn234 Zn 0.87973 0.39941 0.35248 0.0
Zn235 Zn 0.91711 0.34522 0.27527 0.0
O236 O 0.86477 0.32859 0.06132 0.0
O237 O 0.91754 0.31874 0.14877 0.0
O238 O -0.0082 0.48381 0.10664 0.0
O239 O 0.92532 0.43752 0.025 0.0
O240 O 0.84329 0.43113 0.15677 0.0
O241 O 0.85952 0.4434 0.31613 0.0
O242 O 0.82313 0.33644 0.39568 0.0
O243 O 0.02817 0.43604 0.28122 0.0
O244 O 0.85803 0.29678 0.34776 0.0
O245 O -0.02199 0.36625 0.34689 0.0
C246 C 0.96491 0.47194 0.43994 0.0
C247 C 0.89205 0.31069 0.07298 0.0
C248 C 0.84555 0.45275 0.2374 0.0
C249 C 0.96749 0.47198 0.0277 0.0
C250 C 0.82326 0.29764 0.38884 0.0
C251 C 0.01988 0.40159 0.33725 0.0
O252 O 0.92845 0.4313 0.45278 0.0
O253 O 0.47287 0.48151 0.35527 0.0
Zn254 Zn 0.51173 0.51819 0.2406 0.0
O255 O 0.56535 0.50838 0.2419 0.0
Zn256 Zn 0.56903 0.47886 0.12482 0.0
Zn257 Zn 0.56366 0.4729 0.35245 0.0
Zn258 Zn 0.61785 0.56447 0.27525 0.0
O259 O 0.63447 0.52875 0.06127 0.0
O260 O 0.64431 0.59137 0.14875 0.0
O261 O 0.47926 0.50058 0.10665 0.0
O262 O 0.52554 0.48039 0.02497 0.0
O263 O 0.53193 0.40474 0.15672 0.0
O264 O 0.51968 0.4087 0.3161 0.0
O265 O 0.62663 0.47928 0.39564 0.0
O266 O 0.52704 0.58471 0.28123 0.0
O267 O 0.66629 0.55383 0.34771 0.0
O268 O 0.59681 0.60433 0.34691 0.0
C269 C 0.49113 0.48556 0.43993 0.0
C270 C 0.65237 0.57394 0.07295 0.0
C271 C 0.51032 0.38538 0.23735 0.0
C272 C 0.49109 0.4881 0.02769 0.0
C273 C 0.66543 0.5182 0.38879 0.0
C274 C 0.56148 0.61086 0.33727 0.0
O275 O 0.53176 0.48972 0.45276 0.0
O276 O 0.47417 -0.01349 0.6094 0.0
Zn277 Zn 0.51083 0.98432 0.72407 0.0
O278 O 0.50103 0.9209 0.72276 0.0
Zn279 Zn 0.4715 0.88769 0.83982 0.0
Zn280 Zn 0.46555 0.88712 0.6122 0.0
Zn281 Zn 0.55711 0.92447 0.6894 0.0
O282 O 0.52138 0.87214 0.90336 0.0
O283 O 0.58401 0.92492 0.8159 0.0
O284 O 0.49322 -0.00082 0.85802 0.0
O285 O 0.47302 0.9327 0.93967 0.0
O286 O 0.39737 0.85067 0.80791 0.0
O287 O 0.40136 0.86693 0.64856 0.0
O288 O 0.47192 0.83051 0.56902 0.0
O289 O 0.57736 0.03553 0.68347 0.0
O290 O 0.54645 0.86537 0.61696 0.0
O291 O 0.59698 -0.01463 0.61775 0.0
C292 C 0.47822 0.97231 0.52474 0.0
C293 C 0.56657 0.89943 0.8917 0.0
C294 C 0.37803 0.85296 0.7273 0.0
C295 C 0.48074 0.97487 0.93698 0.0
C296 C 0.51082 0.8306 0.5759 0.0
C297 C 0.60351 0.02724 0.62743 0.0
O298 O 0.48239 0.93584 0.51189 0.0
O299 O 0.97655 0.48025 0.6094 0.0
Zn300 Zn -0.02126 0.51911 0.72407 0.0
O301 O 0.04215 0.57272 0.72275 0.0
Zn302 Zn 0.07537 0.57641 0.8398 0.0
Zn303 Zn 0.07595 0.57102 0.6122 0.0
Zn304 Zn 0.03859 0.62523 0.68938 0.0
O305 O 0.09091 0.64184 0.90334 0.0
O306 O 0.03815 0.6517 0.81587 0.0
O307 O 0.96388 0.48663 0.85803 0.0
O308 O 0.03036 0.53292 0.93967 0.0
O309 O 0.11239 0.5393 0.80789 0.0
O310 O 0.09612 0.52701 0.64856 0.0
O311 O 0.13256 0.63398 0.56902 0.0
O312 O 0.92753 0.53442 0.68346 0.0
O313 O 0.09769 0.67366 0.61691 0.0
O314 O 0.97769 0.60419 0.61774 0.0
C315 C -0.00924 0.49851 0.52474 0.0
C316 C 0.06363 0.65975 0.89167 0.0
C317 C 0.11009 0.51765 0.72729 0.0
C318 C -0.01181 0.49847 0.93698 0.0
C319 C 0.13247 0.67279 0.57586 0.0
C320 C 0.93582 0.56887 0.62742 0.0
O321 O 0.02723 0.53914 0.51189 0.0
O322 O 0.48282 0.48891 0.6094 0.0
Zn323 Zn 0.44396 0.45224 0.72407 0.0
O324 O 0.39035 0.46205 0.72277 0.0
Zn325 Zn 0.38666 0.49157 0.83985 0.0
Zn326 Zn 0.39205 0.49754 0.61223 0.0
Zn327 Zn 0.33784 0.40597 0.6894 0.0
O328 O 0.32123 0.44168 0.90339 0.0
O329 O 0.31137 0.37906 0.81589 0.0
O330 O 0.47643 0.46984 0.85802 0.0
O331 O 0.43015 0.49005 0.9397 0.0
O332 O 0.42377 0.5657 0.80795 0.0
O333 O 0.43605 0.56172 0.6486 0.0
O334 O 0.32908 0.49117 0.56905 0.0
O335 O 0.42864 0.38571 0.68345 0.0
O336 O 0.28941 0.41664 0.61696 0.0
O337 O 0.35887 0.36611 0.61773 0.0
C338 C 0.46456 0.48485 0.52474 0.0
C339 C 0.30333 0.39649 0.8917 0.0
C340 C 0.44541 0.58505 0.72734 0.0
C341 C 0.4646 0.48233 0.93698 0.0
C342 C 0.29027 0.45227 0.5759 0.0
C343 C 0.3942 0.35957 0.6274 0.0
O344 O 0.42393 0.48069 0.51191 0.0
O345 O 0.14822 0.31728 0.68861 0.0
Zn346 Zn 0.11155 0.31947 0.57394 0.0
O347 O 0.12134 0.38288 0.57526 0.0
Zn348 Zn 0.15087 0.41609 0.45819 0.0
Zn349 Zn 0.15681 0.41667 0.68582 0.0
Zn350 Zn 0.06524 0.37929 0.60858 0.0
O351 O 0.10098 0.43164 0.39463 0.0
O352 O 0.03836 0.37886 0.48208 0.0
O353 O 0.12916 0.3046 0.43999 0.0
O354 O 0.14935 0.37108 0.35833 0.0
O355 O 0.225 0.45311 0.4901 0.0
O356 O 0.22101 0.43689 0.64947 0.0
O357 O 0.15042 0.47326 0.72901 0.0
O358 O 0.04502 0.26824 0.61455 0.0
O359 O 0.07588 0.43838 0.68105 0.0
O360 O 0.02537 0.31839 0.68021 0.0
C361 C 0.14416 0.33149 0.77328 0.0
C362 C 0.05579 0.40435 0.40629 0.0
C363 C 0.24434 0.45086 0.57073 0.0
C364 C 0.14163 0.32891 0.36104 0.0
C365 C 0.11151 0.47314 0.72214 0.0
C366 C 0.01885 0.27653 0.67055 0.0
O367 O 0.13999 0.36795 0.78613 0.0
O368 O 0.64578 0.82353 0.68861 0.0
Zn369 Zn 0.64361 0.78467 0.57394 0.0
O370 O 0.5802 0.73105 0.57526 0.0
Zn371 Zn 0.54698 0.72736 0.4582 0.0
Zn372 Zn 0.5464 0.73274 0.68582 0.0
Zn373 Zn 0.58378 0.67855 0.6086 0.0
O374 O 0.53143 0.66193 0.39466 0.0
O375 O 0.5842 0.65207 0.4821 0.0
O376 O 0.65847 0.81714 0.43998 0.0
O377 O 0.59199 0.77085 0.35834 0.0
O378 O 0.50996 0.76447 0.49011 0.0
O379 O 0.52619 0.77673 0.64947 0.0
O380 O 0.4898 0.66977 0.72901 0.0
O381 O 0.69484 0.76937 0.61456 0.0
O382 O 0.5247 0.63011 0.6811 0.0
O383 O 0.64468 0.69958 0.68022 0.0
C384 C 0.63158 0.80527 0.77328 0.0
C385 C 0.55872 0.64402 0.40632 0.0
C386 C 0.51222 0.78608 0.57074 0.0
C387 C 0.63416 0.80531 0.36103 0.0
C388 C 0.48992 0.63097 0.72218 0.0
C389 C 0.68655 0.73492 0.67056 0.0
O390 O 0.59511 0.76464 0.78612 0.0
O391 O 0.13954 0.81484 0.68861 0.0
Zn392 Zn 0.1784 0.85152 0.57394 0.0
O393 O 0.23201 0.84172 0.57524 0.0
Zn394 Zn 0.2357 0.8122 0.45816 0.0
Zn395 Zn 0.23033 0.80623 0.68579 0.0
Zn396 Zn 0.28452 0.8978 0.60858 0.0
O397 O 0.30113 0.86209 0.39461 0.0
O398 O 0.31098 0.92471 0.48209 0.0
O399 O 0.14592 0.83391 0.43999 0.0
O400 O 0.19221 0.81372 0.35831 0.0
O401 O 0.19859 0.73807 0.49005 0.0
O402 O 0.18634 0.74203 0.64943 0.0
O403 O 0.2933 0.81262 0.72898 0.0
O404 O 0.1937 0.91804 0.61457 0.0
O405 O 0.33296 0.88717 0.68105 0.0
O406 O 0.26348 0.93767 0.68023 0.0
C407 C 0.15779 0.8189 0.77327 0.0
C408 C 0.31904 0.90727 0.40628 0.0
C409 C 0.17699 0.71871 0.57069 0.0
C410 C 0.15776 0.82143 0.36103 0.0
C411 C 0.3321 0.85154 0.72213 0.0
C412 C 0.22815 0.9442 0.67058 0.0
O413 O 0.19843 0.82306 0.7861 0.0
loop_
_geom_bond_atom_site_label_1
_geom_bond_atom_site_label_2
_geom_bond_distance
_geom_bond_site_symmetry_2
_ccdc_geom_bond_type
O0 Zn1 1.953 1_556 S
O0 C16 1.225 . S
Zn1 O0 1.953 1_554 S
Zn1 O2 1.949 . S
Zn1 O8 1.919 . S
Zn1 O13 1.924 . S
O2 Zn1 1.949 . S
O2 Zn3 1.923 . S
O2 Zn4 1.950 1_554 S
O2 Zn5 1.945 . S
Zn3 O2 1.923 . S
Zn3 O6 1.933 . S
Zn3 O9 1.941 . S
Zn3 O10 1.965 . S
Zn4 O2 1.950 1_556 S
Zn4 O11 1.938 1_556 S
Zn4 O12 1.906 . S
Zn4 O22 1.953 . S
Zn5 O2 1.945 . S
Zn5 O7 1.932 . S
Zn5 O14 1.977 1_554 S
Zn5 O15 1.910 . S
O6 Zn3 1.933 . S
O6 C17 1.226 . S
O7 Zn5 1.932 . S
O7 C17 1.307 . S
O8 Zn1 1.919 . S
O8 C19 1.253 . S
O9 Zn3 1.941 . S
O9 C19 1.283 . S
O10 Zn3 1.965 . S
O10 C18 1.303 . S
O11 Zn4 1.938 1_554 S
O11 C18 1.247 . S
O12 Zn4 1.906 . S
O12 C20 1.304 . S
O13 Zn1 1.924 . S
O13 C21 1.311 . S
O14 Zn5 1.977 1_556 S
O14 C20 1.272 . S
O15 Zn5 1.910 . S
O15 C21 1.231 . S
C16 O0 1.225 . S
C16 O22 1.298 . S
C17 O6 1.226 . S
C17 O7 1.307 . S
C18 O10 1.303 . S
C18 O11 1.247 . S
C19 O8 1.253 . S
C19 O9 1.283 . S
C20 O12 1.304 . S
C20 O14 1.272 . S
C21 O13 1.311 . S
C21 O15 1.231 . S
O22 Zn4 1.953 . S
O22 C16 1.298 . S
O23 Zn24 1.953 1_556 S
O23 C39 1.225 . S
Zn24 O23 1.953 1_554 S
Zn24 O25 1.949 . S
Zn24 O31 1.919 . S
Zn24 O36 1.924 . S
O25 Zn24 1.949 . S
O25 Zn26 1.923 . S
O25 Zn27 1.950 1_554 S
O25 Zn28 1.945 . S
Zn26 O25 1.923 . S
Zn26 O29 1.933 . S
Zn26 O32 1.941 . S
Zn26 O33 1.965 . S
Zn27 O25 1.950 1_556 S
Zn27 O34 1.938 1_556 S
Zn27 O35 1.906 . S
Zn27 O45 1.953 . S
Zn28 O25 1.945 . S
Zn28 O30 1.932 1_565 S
Zn28 O37 1.977 1_564 S
Zn28 O38 1.910 . S
O29 Zn26 1.933 . S
O29 C40 1.233 . S
O30 Zn28 1.932 1_545 S
O30 C40 1.303 1_545 S
O31 Zn24 1.919 . S
O31 C42 1.253 . S
O32 Zn26 1.941 . S
O32 C42 1.283 . S
O33 Zn26 1.965 . S
O33 C41 1.303 . S
O34 Zn27 1.938 1_554 S
O34 C41 1.247 . S
O35 Zn27 1.906 . S
O35 C43 1.304 1_565 S
O36 Zn24 1.924 . S
O36 C44 1.311 . S
O37 Zn28 1.977 1_546 S
O37 C43 1.272 . S
O38 Zn28 1.910 . S
O38 C44 1.231 . S
C39 O23 1.225 . S
C39 O45 1.298 . S
C40 O29 1.233 . S
C40 O30 1.303 1_565 S
C41 O33 1.303 . S
C41 O34 1.247 . S
C42 O31 1.253 . S
C42 O32 1.283 . S
C43 O35 1.304 1_545 S
C43 O37 1.272 . S
C44 O36 1.311 . S
C44 O38 1.231 . S
O45 Zn27 1.953 . S
O45 C39 1.298 . S
O46 Zn47 1.953 1_556 S
O46 C62 1.225 . S
Zn47 O46 1.953 1_554 S
Zn47 O48 1.949 . S
Zn47 O54 1.919 . S
Zn47 O59 1.924 . S
O48 Zn47 1.949 . S
O48 Zn49 1.923 . S
O48 Zn50 1.950 1_554 S
O48 Zn51 1.945 . S
Zn49 O48 1.923 . S
Zn49 O52 1.933 . S
Zn49 O55 1.941 . S
Zn49 O56 1.965 . S
Zn50 O48 1.950 1_556 S
Zn50 O57 1.938 1_556 S
Zn50 O58 1.906 . S
Zn50 O68 1.953 . S
Zn51 O48 1.945 . S
Zn51 O53 1.932 1_455 S
Zn51 O60 1.977 1_454 S
Zn51 O61 1.910 . S
O52 Zn49 1.933 . S
O52 C63 1.229 . S
O53 Zn51 1.932 1_655 S
O53 C63 1.307 1_655 S
O54 Zn47 1.919 . S
O54 C65 1.253 . S
O55 Zn49 1.941 . S
O55 C65 1.283 . S
O56 Zn49 1.965 . S
O56 C64 1.303 . S
O57 Zn50 1.938 1_554 S
O57 C64 1.247 . S
O58 Zn50 1.906 . S
O58 C66 1.304 1_455 S
O59 Zn47 1.924 . S
O59 C67 1.311 . S
O60 Zn51 1.977 1_656 S
O60 C66 1.272 . S
O61 Zn51 1.910 . S
O61 C67 1.231 . S
C62 O46 1.225 . S
C62 O68 1.298 . S
C63 O52 1.229 . S
C63 O53 1.307 1_455 S
C64 O56 1.303 . S
C64 O57 1.247 . S
C65 O54 1.253 . S
C65 O55 1.283 . S
C66 O58 1.304 1_655 S
C66 O60 1.272 . S
C67 O59 1.311 . S
C67 O61 1.231 . S
O68 Zn50 1.953 . S
O68 C62 1.298 . S
O69 Zn70 1.953 1_554 S
O69 C85 1.225 . S
Zn70 O69 1.953 1_556 S
Zn70 O71 1.949 . S
Zn70 O77 1.919 . S
Zn70 O82 1.924 . S
O71 Zn70 1.949 . S
O71 Zn72 1.923 . S
O71 Zn73 1.950 1_556 S
O71 Zn74 1.945 . S
Zn72 O71 1.923 . S
Zn72 O75 1.933 . S
Zn72 O78 1.941 . S
Zn72 O79 1.965 . S
Zn73 O71 1.950 1_554 S
Zn73 O80 1.938 1_554 S
Zn73 O81 1.906 . S
Zn73 O91 1.953 . S
Zn74 O71 1.945 . S
Zn74 O76 1.932 . S
Zn74 O83 1.977 1_556 S
Zn74 O84 1.910 . S
O75 Zn72 1.933 . S
O75 C86 1.226 . S
O76 Zn74 1.932 . S
O76 C86 1.307 . S
O77 Zn70 1.919 . S
O77 C88 1.253 . S
O78 Zn72 1.941 . S
O78 C88 1.283 . S
O79 Zn72 1.965 . S
O79 C87 1.303 . S
O80 Zn73 1.938 1_556 S
O80 C87 1.247 . S
O81 Zn73 1.906 . S
O81 C89 1.304 . S
O82 Zn70 1.924 . S
O82 C90 1.311 . S
O83 Zn74 1.977 1_554 S
O83 C89 1.272 . S
O84 Zn74 1.910 . S
O84 C90 1.231 . S
C85 O69 1.225 . S
C85 O91 1.298 . S
C86 O75 1.226 . S
C86 O76 1.307 . S
C87 O79 1.303 . S
C87 O80 1.247 . S
C88 O77 1.253 . S
C88 O78 1.283 . S
C89 O81 1.304 . S
C89 O83 1.272 . S
C90 O82 1.311 . S
C90 O84 1.231 . S
O91 Zn73 1.953 . S
O91 C85 1.298 . S
O92 Zn93 1.953 1_554 S
O92 C108 1.225 . S
Zn93 O92 1.953 1_556 S
Zn93 O94 1.949 . S
Zn93 O100 1.919 . S
Zn93 O105 1.924 . S
O94 Zn93 1.949 . S
O94 Zn95 1.923 . S
O94 Zn96 1.950 1_556 S
O94 Zn97 1.945 . S
Zn95 O94 1.923 . S
Zn95 O98 1.933 . S
Zn95 O101 1.941 . S
Zn95 O102 1.965 . S
Zn96 O94 1.950 1_554 S
Zn96 O103 1.938 1_554 S
Zn96 O104 1.906 . S
Zn96 O114 1.953 . S
Zn97 O94 1.945 . S
Zn97 O99 1.932 1_545 S
Zn97 O106 1.977 1_546 S
Zn97 O107 1.910 . S
O98 Zn95 1.933 . S
O98 C109 1.233 . S
O99 Zn97 1.932 1_565 S
O99 C109 1.303 1_565 S
O100 Zn93 1.919 . S
O100 C111 1.253 . S
O101 Zn95 1.941 . S
O101 C111 1.283 . S
O102 Zn95 1.965 . S
O102 C110 1.303 . S
O103 Zn96 1.938 1_556 S
O103 C110 1.247 . S
O104 Zn96 1.906 . S
O104 C112 1.304 1_545 S
O105 Zn93 1.924 . S
O105 C113 1.311 . S
O106 Zn97 1.977 1_564 S
O106 C112 1.272 . S
O107 Zn97 1.910 . S
O107 C113 1.231 . S
C108 O92 1.225 . S
C108 O114 1.298 . S
C109 O98 1.233 . S
C109 O99 1.303 1_545 S
C110 O102 1.303 . S
C110 O103 1.247 . S
C111 O100 1.253 . S
C111 O101 1.283 . S
C112 O104 1.304 1_565 S
C112 O106 1.272 . S
C113 O105 1.311 . S
C113 O107 1.231 . S
O114 Zn96 1.953 . S
O114 C108 1.298 . S
O115 Zn116 1.953 1_554 S
O115 C131 1.225 . S
Zn116 O115 1.953 1_556 S
Zn116 O117 1.949 . S
Zn116 O123 1.919 . S
Zn116 O128 1.924 . S
O117 Zn116 1.949 . S
O117 Zn118 1.923 . S
O117 Zn119 1.950 1_556 S
O117 Zn120 1.945 . S
Zn118 O117 1.923 . S
Zn118 O121 1.933 . S
Zn118 O124 1.941 . S
Zn118 O125 1.965 . S
Zn119 O117 1.950 1_554 S
Zn119 O126 1.938 1_554 S
Zn119 O127 1.906 . S
Zn119 O137 1.953 . S
Zn120 O117 1.945 . S
Zn120 O122 1.932 1_655 S
Zn120 O129 1.977 1_656 S
Zn120 O130 1.910 . S
O121 Zn118 1.933 . S
O121 C132 1.229 . S
O122 Zn120 1.932 1_455 S
O122 C132 1.307 1_455 S
O123 Zn116 1.919 . S
O123 C134 1.253 . S
O124 Zn118 1.941 . S
O124 C134 1.283 . S
O125 Zn118 1.965 . S
O125 C133 1.303 . S
O126 Zn119 1.938 1_556 S
O126 C133 1.247 . S
O127 Zn119 1.906 . S
O127 C135 1.304 1_655 S
O128 Zn116 1.924 . S
O128 C136 1.311 . S
O129 Zn120 1.977 1_454 S
O129 C135 1.272 . S
O130 Zn120 1.910 . S
O130 C136 1.231 . S
C131 O115 1.225 . S
C131 O137 1.298 . S
C132 O121 1.229 . S
C132 O122 1.307 1_655 S
C133 O125 1.303 . S
C133 O126 1.247 . S
C134 O123 1.253 . S
C134 O124 1.283 . S
C135 O127 1.304 1_455 S
C135 O129 1.272 . S
C136 O128 1.311 . S
C136 O130 1.231 . S
O137 Zn119 1.953 . S
O137 C131 1.298 . S
O138 Zn139 1.953 . S
O138 C154 1.225 . S
Zn139 O138 1.953 . S
Zn139 O140 1.949 . S
Zn139 O146 1.919 . S
Zn139 O151 1.924 . S
O140 Zn139 1.949 . S
O140 Zn141 1.923 . S
O140 Zn142 1.950 . S
O140 Zn143 1.945 . S
Zn141 O140 1.923 . S
Zn141 O144 1.933 . S
Zn141 O147 1.941 . S
Zn141 O148 1.965 . S
Zn142 O140 1.950 . S
Zn142 O149 1.938 . S
Zn142 O150 1.906 . S
Zn142 O160 1.953 . S
Zn143 O140 1.945 . S
Zn143 O145 1.932 . S
Zn143 O152 1.977 . S
Zn143 O153 1.910 . S
O144 Zn141 1.933 . S
O144 C155 1.226 . S
O145 Zn143 1.932 . S
O145 C155 1.307 . S
O146 Zn139 1.919 . S
O146 C157 1.253 . S
O147 Zn141 1.941 . S
O147 C157 1.283 . S
O148 Zn141 1.965 . S
O148 C156 1.303 . S
O149 Zn142 1.938 . S
O149 C156 1.247 . S
O150 Zn142 1.906 . S
O150 C158 1.304 . S
O151 Zn139 1.924 . S
O151 C159 1.311 . S
O152 Zn143 1.977 . S
O152 C158 1.272 . S
O153 Zn143 1.910 . S
O153 C159 1.231 . S
C154 O138 1.225 . S
C154 O160 1.298 . S
C155 O144 1.226 . S
C155 O145 1.307 . S
C156 O148 1.303 . S
C156 O149 1.247 . S
C157 O146 1.253 . S
C157 O147 1.283 . S
C158 O150 1.304 . S
C158 O152 1.272 . S
C159 O151 1.311 . S
C159 O153 1.231 . S
O160 Zn142 1.953 . S
O160 C154 1.298 . S
O161 Zn162 1.953 . S
O161 C177 1.225 . S
Zn162 O161 1.953 . S
Zn162 O163 1.949 . S
Zn162 O169 1.919 . S
Zn162 O174 1.924 . S
O163 Zn162 1.949 . S
O163 Zn164 1.923 . S
O163 Zn165 1.950 . S
O163 Zn166 1.945 . S
Zn164 O163 1.923 . S
Zn164 O167 1.933 . S
Zn164 O170 1.941 . S
Zn164 O171 1.965 . S
Zn165 O163 1.950 . S
Zn165 O172 1.938 . S
Zn165 O173 1.906 . S
Zn165 O183 1.953 . S
Zn166 O163 1.945 . S
Zn166 O168 1.932 . S
Zn166 O175 1.977 . S
Zn166 O176 1.910 . S
O167 Zn164 1.933 . S
O167 C178 1.226 . S
O168 Zn166 1.932 . S
O168 C178 1.307 . S
O169 Zn162 1.919 . S
O169 C180 1.253 . S
O170 Zn164 1.941 . S
O170 C180 1.283 . S
O171 Zn164 1.965 . S
O171 C179 1.303 . S
O172 Zn165 1.938 . S
O172 C179 1.247 . S
O173 Zn165 1.906 . S
O173 C181 1.304 . S
O174 Zn162 1.924 . S
O174 C182 1.311 . S
O175 Zn166 1.977 . S
O175 C181 1.272 . S
O176 Zn166 1.910 . S
O176 C182 1.231 . S
C177 O161 1.225 . S
C177 O183 1.298 . S
C178 O167 1.226 . S
C178 O168 1.307 . S
C179 O171 1.303 . S
C179 O172 1.247 . S
C180 O169 1.253 . S
C180 O170 1.283 . S
C181 O173 1.304 . S
C181 O175 1.272 . S
C182 O174 1.311 . S
C182 O176 1.231 . S
O183 Zn165 1.953 . S
O183 C177 1.298 . S
O184 Zn185 1.953 . S
O184 C200 1.225 . S
Zn185 O184 1.953 . S
Zn185 O186 1.949 . S
Zn185 O192 1.919 . S
Zn185 O197 1.924 . S
O186 Zn185 1.949 . S
O186 Zn187 1.923 . S
O186 Zn188 1.950 . S
O186 Zn189 1.945 . S
Zn187 O186 1.923 . S
Zn187 O190 1.933 . S
Zn187 O193 1.941 . S
Zn187 O194 1.965 . S
Zn188 O186 1.950 . S
Zn188 O195 1.938 . S
Zn188 O196 1.906 . S
Zn188 O206 1.953 . S
Zn189 O186 1.945 . S
Zn189 O191 1.932 . S
Zn189 O198 1.977 . S
Zn189 O199 1.910 . S
O190 Zn187 1.933 . S
O190 C201 1.226 . S
O191 Zn189 1.932 . S
O191 C201 1.307 . S
O192 Zn185 1.919 . S
O192 C203 1.253 . S
O193 Zn187 1.941 . S
O193 C203 1.283 . S
O194 Zn187 1.965 . S
O194 C202 1.303 . S
O195 Zn188 1.938 . S
O195 C202 1.247 . S
O196 Zn188 1.906 . S
O196 C204 1.304 . S
O197 Zn185 1.924 . S
O197 C205 1.311 . S
O198 Zn189 1.977 . S
O198 C204 1.272 . S
O199 Zn189 1.910 . S
O199 C205 1.231 . S
C200 O184 1.225 . S
C200 O206 1.298 . S
C201 O190 1.226 . S
C201 O191 1.307 . S
C202 O194 1.303 . S
C202 O195 1.247 . S
C203 O192 1.253 . S
C203 O193 1.283 . S
C204 O196 1.304 . S
C204 O198 1.272 . S
C205 O197 1.311 . S
C205 O199 1.231 . S
O206 Zn188 1.953 . S
O206 C200 1.298 . S
O207 Zn208 1.953 . S
O207 C223 1.225 1_565 S
Zn208 O207 1.953 . S
Zn208 O209 1.949 1_565 S
Zn208 O215 1.919 . S
Zn208 O220 1.924 . S
O209 Zn208 1.949 1_545 S
O209 Zn210 1.923 . S
O209 Zn211 1.950 . S
O209 Zn212 1.945 . S
Zn210 O209 1.923 . S
Zn210 O213 1.933 . S
Zn210 O216 1.941 . S
Zn210 O217 1.965 . S
Zn211 O209 1.950 . S
Zn211 O218 1.938 . S
Zn211 O219 1.906 . S
Zn211 O229 1.953 . S
Zn212 O209 1.945 . S
Zn212 O214 1.932 . S
Zn212 O221 1.977 . S
Zn212 O222 1.910 . S
O213 Zn210 1.933 . S
O213 C224 1.226 . S
O214 Zn212 1.932 . S
O214 C224 1.307 . S
O215 Zn208 1.919 . S
O215 C226 1.253 . S
O216 Zn210 1.941 . S
O216 C226 1.283 1_545 S
O217 Zn210 1.965 . S
O217 C225 1.303 . S
O218 Zn211 1.938 . S
O218 C225 1.247 . S
O219 Zn211 1.906 . S
O219 C227 1.304 . S
O220 Zn208 1.924 . S
O220 C228 1.311 . S
O221 Zn212 1.977 . S
O221 C227 1.272 . S
O222 Zn212 1.910 . S
O222 C228 1.231 1_545 S
C223 O207 1.225 1_545 S
C223 O229 1.298 . S
C224 O213 1.226 . S
C224 O214 1.307 . S
C225 O217 1.303 . S
C225 O218 1.247 . S
C226 O215 1.253 . S
C226 O216 1.283 1_565 S
C227 O219 1.304 . S
C227 O221 1.272 . S
C228 O220 1.311 . S
C228 O222 1.231 1_565 S
O229 Zn211 1.953 . S
O229 C223 1.298 . S
O230 Zn231 1.953 . S
O230 C246 1.225 1_455 S
Zn231 O230 1.953 . S
Zn231 O232 1.949 1_455 S
Zn231 O238 1.919 . S
Zn231 O243 1.924 . S
O232 Zn231 1.949 1_655 S
O232 Zn233 1.923 . S
O232 Zn234 1.950 . S
O232 Zn235 1.945 . S
Zn233 O232 1.923 . S
Zn233 O236 1.933 . S
Zn233 O239 1.941 . S
Zn233 O240 1.965 . S
Zn234 O232 1.950 . S
Zn234 O241 1.938 . S
Zn234 O242 1.906 . S
Zn234 O252 1.953 . S
Zn235 O232 1.945 . S
Zn235 O237 1.932 . S
Zn235 O244 1.977 . S
Zn235 O245 1.910 . S
O236 Zn233 1.933 . S
O236 C247 1.226 . S
O237 Zn235 1.932 . S
O237 C247 1.307 . S
O238 Zn231 1.919 . S
O238 C249 1.253 . S
O239 Zn233 1.941 . S
O239 C249 1.283 1_655 S
O240 Zn233 1.965 . S
O240 C248 1.303 . S
O241 Zn234 1.938 . S
O241 C248 1.247 . S
O242 Zn234 1.906 . S
O242 C250 1.304 . S
O243 Zn231 1.924 . S
O243 C251 1.311 . S
O244 Zn235 1.977 . S
O244 C250 1.272 . S
O245 Zn235 1.910 . S
O245 C251 1.231 1_655 S
C246 O230 1.225 1_655 S
C246 O252 1.298 . S
C247 O236 1.226 . S
C247 O237 1.307 . S
C248 O240 1.303 . S
C248 O241 1.247 . S
C249 O238 1.253 . S
C249 O239 1.283 1_455 S
C250 O242 1.304 . S
C250 O244 1.272 . S
C251 O243 1.311 . S
C251 O245 1.231 1_455 S
O252 Zn234 1.953 . S
O252 C246 1.298 . S
O253 Zn254 1.953 . S
O253 C269 1.225 . S
Zn254 O253 1.953 . S
Zn254 O255 1.949 . S
Zn254 O261 1.919 . S
Zn254 O266 1.924 . S
O255 Zn254 1.949 . S
O255 Zn256 1.923 . S
O255 Zn257 1.950 . S
O255 Zn258 1.945 . S
Zn256 O255 1.923 . S
Zn256 O259 1.933 . S
Zn256 O262 1.941 . S
Zn256 O263 1.965 . S
Zn257 O255 1.950 . S
Zn257 O264 1.938 . S
Zn257 O265 1.906 . S
Zn257 O275 1.953 . S
Zn258 O255 1.945 . S
Zn258 O260 1.932 . S
Zn258 O267 1.977 . S
Zn258 O268 1.910 . S
O259 Zn256 1.933 . S
O259 C270 1.226 . S
O260 Zn258 1.932 . S
O260 C270 1.307 . S
O261 Zn254 1.919 . S
O261 C272 1.253 . S
O262 Zn256 1.941 . S
O262 C272 1.283 . S
O263 Zn256 1.965 . S
O263 C271 1.303 . S
O264 Zn257 1.938 . S
O264 C271 1.247 . S
O265 Zn257 1.906 . S
O265 C273 1.304 . S
O266 Zn254 1.924 . S
O266 C274 1.311 . S
O267 Zn258 1.977 . S
O267 C273 1.272 . S
O268 Zn258 1.910 . S
O268 C274 1.231 . S
C269 O253 1.225 . S
C269 O275 1.298 . S
C270 O259 1.226 . S
C270 O260 1.307 . S
C271 O263 1.303 . S
C271 O264 1.247 . S
C272 O261 1.253 . S
C272 O262 1.283 . S
C273 O265 1.304 . S
C273 O267 1.272 . S
C274 O266 1.311 . S
C274 O268 1.231 . S
O275 Zn257 1.953 . S
O275 C269 1.298 . S
O276 Zn277 1.953 . S
O276 C292 1.225 1_545 S
Zn277 O276 1.953 . S
Zn277 O278 1.949 1_545 S
Zn277 O284 1.919 . S
Zn277 O289 1.924 . S
O278 Zn277 1.949 1_565 S
O278 Zn279 1.923 . S
O278 Zn280 1.950 . S
O278 Zn281 1.945 . S
Zn279 O278 1.923 . S
Zn279 O282 1.933 . S
Zn279 O285 1.941 . S
Zn279 O286 1.965 . S
Zn280 O278 1.950 . S
Zn280 O287 1.938 . S
Zn280 O288 1.906 . S
Zn280 O298 1.953 . S
Zn281 O278 1.945 . S
Zn281 O283 1.932 . S
Zn281 O290 1.977 . S
Zn281 O291 1.910 . S
O282 Zn279 1.933 . S
O282 C293 1.226 . S
O283 Zn281 1.932 . S
O283 C293 1.307 . S
O284 Zn277 1.919 . S
O284 C295 1.253 . S
O285 Zn279 1.941 . S
O285 C295 1.283 1_565 S
O286 Zn279 1.965 . S
O286 C294 1.303 . S
O287 Zn280 1.938 . S
O287 C294 1.247 . S
O288 Zn280 1.906 . S
O288 C296 1.304 . S
O289 Zn277 1.924 . S
O289 C297 1.311 . S
O290 Zn281 1.977 . S
O290 C296 1.272 . S
O291 Zn281 1.910 . S
O291 C297 1.231 1_565 S
C292 O276 1.225 1_565 S
C292 O298 1.298 . S
C293 O282 1.226 . S
C293 O283 1.307 . S
C294 O286 1.303 . S
C294 O287 1.247 . S
C295 O284 1.253 . S
C295 O285 1.283 1_545 S
C296 O288 1.304 . S
C296 O290 1.272 . S
C297 O289 1.311 . S
C297 O291 1.231 1_545 S
O298 Zn280 1.953 . S
O298 C292 1.298 . S
O299 Zn300 1.953 . S
O299 C315 1.225 1_655 S
Zn300 O299 1.953 . S
Zn300 O301 1.949 1_655 S
Zn300 O307 1.919 . S
Zn300 O312 1.924 . S
O301 Zn300 1.949 1_455 S
O301 Zn302 1.923 . S
O301 Zn303 1.950 . S
O301 Zn304 1.945 . S
Zn302 O301 1.923 . S
Zn302 O305 1.933 . S
Zn302 O308 1.941 . S
Zn302 O309 1.965 . S
Zn303 O301 1.950 . S
Zn303 O310 1.938 . S
Zn303 O311 1.906 . S
Zn303 O321 1.953 . S
Zn304 O301 1.945 . S
Zn304 O306 1.932 . S
Zn304 O313 1.977 . S
Zn304 O314 1.910 . S
O305 Zn302 1.933 . S
O305 C316 1.226 . S
O306 Zn304 1.932 . S
O306 C316 1.307 . S
O307 Zn300 1.919 . S
O307 C318 1.253 . S
O308 Zn302 1.941 . S
O308 C318 1.283 1_455 S
O309 Zn302 1.965 . S
O309 C317 1.303 . S
O310 Zn303 1.938 . S
O310 C317 1.247 . S
O311 Zn303 1.906 . S
O311 C319 1.304 . S
O312 Zn300 1.924 . S
O312 C320 1.311 . S
O313 Zn304 1.977 . S
O313 C319 1.272 . S
O314 Zn304 1.910 . S
O314 C320 1.231 1_455 S
C315 O299 1.225 1_455 S
C315 O321 1.298 . S
C316 O305 1.226 . S
C316 O306 1.307 . S
C317 O309 1.303 . S
C317 O310 1.247 . S
C318 O307 1.253 . S
C318 O308 1.283 1_655 S
C319 O311 1.304 . S
C319 O313 1.272 . S
C320 O312 1.311 . S
C320 O314 1.231 1_655 S
O321 Zn303 1.953 . S
O321 C315 1.298 . S
O322 Zn323 1.953 . S
O322 C338 1.225 . S
Zn323 O322 1.953 . S
Zn323 O324 1.949 . S
Zn323 O330 1.919 . S
Zn323 O335 1.924 . S
O324 Zn323 1.949 . S
O324 Zn325 1.923 . S
O324 Zn326 1.950 . S
O324 Zn327 1.945 . S
Zn325 O324 1.923 . S
Zn325 O328 1.933 . S
Zn325 O331 1.941 . S
Zn325 O332 1.965 . S
Zn326 O324 1.950 . S
Zn326 O333 1.938 . S
Zn326 O334 1.906 . S
Zn326 O344 1.953 . S
Zn327 O324 1.945 . S
Zn327 O329 1.932 . S
Zn327 O336 1.977 . S
Zn327 O337 1.910 . S
O328 Zn325 1.933 . S
O328 C339 1.226 . S
O329 Zn327 1.932 . S
O329 C339 1.307 . S
O330 Zn323 1.919 . S
O330 C341 1.253 . S
O331 Zn325 1.941 . S
O331 C341 1.283 . S
O332 Zn325 1.965 . S
O332 C340 1.303 . S
O333 Zn326 1.938 . S
O333 C340 1.247 . S
O334 Zn326 1.906 . S
O334 C342 1.304 . S
O335 Zn323 1.924 . S
O335 C343 1.311 . S
O336 Zn327 1.977 . S
O336 C342 1.272 . S
O337 Zn327 1.910 . S
O337 C343 1.231 . S
C338 O322 1.225 . S
C338 O344 1.298 . S
C339 O328 1.226 . S
C339 O329 1.307 . S
C340 O332 1.303 . S
C340 O333 1.247 . S
C341 O330 1.253 . S
C341 O331 1.283 . S
C342 O334 1.304 . S
C342 O336 1.272 . S
C343 O335 1.311 . S
C343 O337 1.231 . S
O344 Zn326 1.953 . S
O344 C338 1.298 . S
O345 Zn346 1.953 . S
O345 C361 1.225 . S
Zn346 O345 1.953 . S
Zn346 O347 1.949 . S
Zn346 O353 1.919 . S
Zn346 O358 1.924 . S
O347 Zn346 1.949 . S
O347 Zn348 1.923 . S
O347 Zn349 1.950 . S
O347 Zn350 1.945 . S
Zn348 O347 1.923 . S
Zn348 O351 1.933 . S
Zn348 O354 1.941 . S
Zn348 O355 1.965 . S
Zn349 O347 1.950 . S
Zn349 O356 1.938 . S
Zn349 O357 1.906 . S
Zn349 O367 1.953 . S
Zn350 O347 1.945 . S
Zn350 O352 1.932 . S
Zn350 O359 1.977 . S
Zn350 O360 1.910 . S
O351 Zn348 1.933 . S
O351 C362 1.226 . S
O352 Zn350 1.932 . S
O352 C362 1.307 . S
O353 Zn346 1.919 . S
O353 C364 1.253 . S
O354 Zn348 1.941 . S
O354 C364 1.283 . S
O355 Zn348 1.965 . S
O355 C363 1.303 . S
O356 Zn349 1.938 . S
O356 C363 1.247 . S
O357 Zn349 1.906 . S
O357 C365 1.304 . S
O358 Zn346 1.924 . S
O358 C366 1.311 . S
O359 Zn350 1.977 . S
O359 C365 1.272 . S
O360 Zn350 1.910 . S
O360 C366 1.231 . S
C361 O345 1.225 . S
C361 O367 1.298 . S
C362 O351 1.226 . S
C362 O352 1.307 . S
C363 O355 1.303 . S
C363 O356 1.247 . S
C364 O353 1.253 . S
C364 O354 1.283 . S
C365 O357 1.304 . S
C365 O359 1.272 . S
C366 O358 1.311 . S
C366 O360 1.231 . S
O367 Zn349 1.953 . S
O367 C361 1.298 . S
O368 Zn369 1.953 . S
O368 C384 1.225 . S
Zn369 O368 1.953 . S
Zn369 O370 1.949 . S
Zn369 O376 1.919 . S
Zn369 O381 1.924 . S
O370 Zn369 1.949 . S
O370 Zn371 1.923 . S
O370 Zn372 1.950 . S
O370 Zn373 1.945 . S
Zn371 O370 1.923 . S
Zn371 O374 1.933 . S
Zn371 O377 1.941 . S
Zn371 O378 1.965 . S
Zn372 O370 1.950 . S
Zn372 O379 1.938 . S
Zn372 O380 1.906 . S
Zn372 O390 1.953 . S
Zn373 O370 1.945 . S
Zn373 O375 1.932 . S
Zn373 O382 1.977 . S
Zn373 O383 1.910 . S
O374 Zn371 1.933 . S
O374 C385 1.226 . S
O375 Zn373 1.932 . S
O375 C385 1.307 . S
O376 Zn369 1.919 . S
O376 C387 1.253 . S
O377 Zn371 1.941 . S
O377 C387 1.283 . S
O378 Zn371 1.965 . S
O378 C386 1.303 . S
O379 Zn372 1.938 . S
O379 C386 1.247 . S
O380 Zn372 1.906 . S
O380 C388 1.304 . S
O381 Zn369 1.924 . S
O381 C389 1.311 . S
O382 Zn373 1.977 . S
O382 C388 1.272 . S
O383 Zn373 1.910 . S
O383 C389 1.231 . S
C384 O368 1.225 . S
C384 O390 1.298 . S
C385 O374 1.226 . S
C385 O375 1.307 . S
C386 O378 1.303 . S
C386 O379 1.247 . S
C387 O376 1.253 . S
C387 O377 1.283 . S
C388 O380 1.304 . S
C388 O382 1.272 . S
C389 O381 1.311 . S
C389 O383 1.231 . S
O390 Zn372 1.953 . S
O390 C384 1.298 . S
O391 Zn392 1.953 . S
O391 C407 1.225 . S
Zn392 O391 1.953 . S
Zn392 O393 1.949 . S
Zn392 O399 1.919 . S
Zn392 O404 1.924 . S
O393 Zn392 1.949 . S
O393 Zn394 1.923 . S
O393 Zn395 1.950 . S
O393 Zn396 1.945 . S
Zn394 O393 1.923 . S
Zn394 O397 1.933 . S
Zn394 O400 1.941 . S
Zn394 O401 1.965 . S
Zn395 O393 1.950 . S
Zn395 O402 1.938 . S
Zn395 O403 1.906 . S
Zn395 O413 1.953 . S
Zn396 O393 1.945 . S
Zn396 O398 1.932 . S
Zn396 O405 1.977 . S
Zn396 O406 1.910 . S
O397 Zn394 1.933 . S
O397 C408 1.226 . S
O398 Zn396 1.932 . S
O398 C408 1.307 . S
O399 Zn392 1.919 . S
O399 C410 1.253 . S
O400 Zn394 1.941 . S
O400 C410 1.283 . S
O401 Zn394 1.965 . S
O401 C409 1.303 . S
O402 Zn395 1.938 . S
O402 C409 1.247 . S
O403 Zn395 1.906 . S
O403 C411 1.304 . S
O404 Zn392 1.924 . S
O404 C412 1.311 . S
O405 Zn396 1.977 . S
O405 C411 1.272 . S
O406 Zn396 1.910 . S
O406 C412 1.231 . S
C407 O391 1.225 . S
C407 O413 1.298 . S
C408 O397 1.226 . S
C408 O398 1.307 . S
C409 O401 1.303 . S
C409 O402 1.247 . S
C410 O399 1.253 . S
C410 O400 1.283 . S
C411 O403 1.304 . S
C411 O405 1.272 . S
C412 O404 1.311 . S
C412 O406 1.231 . S
O413 Zn395 1.953 . S
O413 C407 1.298 . S
C110 C20 1.907 . S
C43 C133 1.908 . S
C87 C66 1.908 . S
C89 C41 1.907 . S
C112 C64 1.908 . S
C18 C135 1.908 . S
C158 C248 1.907 . S
C271 C181 1.908 . S
C225 C204 1.908 . S
C227 C179 1.907 . S
C202 C250 1.908 . S
C273 C156 1.908 . S
C386 C296 1.907 . S
C319 C409 1.908 . S
C363 C342 1.908 . S
C317 C365 1.907 . S
C388 C340 1.908 . S
C294 C411 1.908 . S
C16 C361 1.650 . S
C39 C384 1.650 . S
C407 C62 1.650 . S
C85 C154 1.650 . S
C108 C177 1.650 . S
C200 C131 1.650 . S
C292 C223 1.650 1_565 S
C315 C246 1.650 1_455 S
C338 C269 1.650 . S
C17 C182 1.959 . S
C205 C40 1.954 1_545 S
C159 C63 1.960 1_655 S
C86 C389 1.959 . S
C412 C109 1.954 1_565 S
C132 C366 1.960 1_655 S
C155 C320 1.959 . S
C178 C343 1.959 . S
C201 C297 1.959 . S
C113 C224 1.959 1_556 S
C136 C247 1.959 1_556 S
C90 C270 1.959 1_556 S
C293 C44 1.959 1_556 S
C316 C67 1.959 1_556 S
C21 C339 1.959 1_554 S
C251 C362 1.959 . S
C385 C274 1.959 . S
C228 C408 1.959 . S
C19 C364 1.945 . S
C42 C387 1.945 . S
C65 C410 1.945 . S
C157 C88 1.945 . S
C111 C180 1.945 . S
C203 C134 1.945 . S
C226 C295 1.945 1_564 S
C249 C318 1.945 1_454 S
C341 C272 1.945 1_556 S
