# Generated by pormake.
# Topology upc, (4)-cn, num edge types: 1
# Building blocks:
#     Node 0, Type 0, BuildingBlock: MUDLON_clean_sbu_0, # of connection points: 4
#     Node 1, Type 0, BuildingBlock: MUDLON_clean_sbu_0, # of connection points: 4
#     Node 2, Type 0, BuildingBlock: MUDLON_clean_sbu_0, # of connection points: 4
#     Node 3, Type 0, BuildingBlock: MUDLON_clean_sbu_0, # of connection points: 4
#     Node 4, Type 0, BuildingBlock: MUDLON_clean_sbu_0, # of connection points: 4
#     Node 5, Type 0, BuildingBlock: MUDLON_clean_sbu_0, # of connection points: 4
#     Node 6, Type 0, BuildingBlock: MUDLON_clean_sbu_0, # of connection points: 4
#     Node 7, Type 0, BuildingBlock: MUDLON_clean_sbu_0, # of connection points: 4
#     Node 8, Type 0, BuildingBlock: MUDLON_clean_sbu_0, # of connection points: 4
#     Node 9, Type 0, BuildingBlock: MUDLON_clean_sbu_0, # of connection points: 4
#     Node 10, Type 0, BuildingBlock: MUDLON_clean_sbu_0, # of connection points: 4
#     Node 11, Type 0, BuildingBlock: MUDLON_clean_sbu_0, # of connection points: 4
#     Node 12, Type 0, BuildingBlock: MUDLON_clean_sbu_0, # of connection points: 4
#     Node 13, Type 0, BuildingBlock: MUDLON_clean_sbu_0, # of connection points: 4
#     Node 14, Type 0, BuildingBlock: MUDLON_clean_sbu_0, # of connection points: 4
#     Node 15, Type 0, BuildingBlock: MUDLON_clean_sbu_0, # of connection points: 4
#     Edge 16, Type (0, 0), BuildingBlock: AJUNOK_clean_linker_0, # of connection points: 2
#     Edge 17, Type (0, 0), BuildingBlock: AJUNOK_clean_linker_0, # of connection points: 2
#     Edge 18, Type (0, 0), BuildingBlock: AJUNOK_clean_linker_0, # of connection points: 2
#     Edge 19, Type (0, 0), BuildingBlock: AJUNOK_clean_linker_0, # of connection points: 2
#     Edge 20, Type (0, 0), BuildingBlock: AJUNOK_clean_linker_0, # of connection points: 2
#     Edge 21, Type (0, 0), BuildingBlock: AJUNOK_clean_linker_0, # of connection points: 2
#     Edge 22, Type (0, 0), BuildingBlock: AJUNOK_clean_linker_0, # of connection points: 2
#     Edge 23, Type (0, 0), BuildingBlock: AJUNOK_clean_linker_0, # of connection points: 2
#     Edge 24, Type (0, 0), BuildingBlock: AJUNOK_clean_linker_0, # of connection points: 2
#     Edge 25, Type (0, 0), BuildingBlock: AJUNOK_clean_linker_0, # of connection points: 2
#     Edge 26, Type (0, 0), BuildingBlock: AJUNOK_clean_linker_0, # of connection points: 2
#     Edge 27, Type (0, 0), BuildingBlock: AJUNOK_clean_linker_0, # of connection points: 2
#     Edge 28, Type (0, 0), BuildingBlock: AJUNOK_clean_linker_0, # of connection points: 2
#     Edge 29, Type (0, 0), BuildingBlock: AJUNOK_clean_linker_0, # of connection points: 2
#     Edge 30, Type (0, 0), BuildingBlock: AJUNOK_clean_linker_0, # of connection points: 2
#     Edge 31, Type (0, 0), BuildingBlock: AJUNOK_clean_linker_0, # of connection points: 2
#     Edge 32, Type (0, 0), BuildingBlock: AJUNOK_clean_linker_0, # of connection points: 2
#     Edge 33, Type (0, 0), BuildingBlock: AJUNOK_clean_linker_0, # of connection points: 2
#     Edge 34, Type (0, 0), BuildingBlock: AJUNOK_clean_linker_0, # of connection points: 2
#     Edge 35, Type (0, 0), BuildingBlock: AJUNOK_clean_linker_0, # of connection points: 2
#     Edge 36, Type (0, 0), BuildingBlock: AJUNOK_clean_linker_0, # of connection points: 2
#     Edge 37, Type (0, 0), BuildingBlock: AJUNOK_clean_linker_0, # of connection points: 2
#     Edge 38, Type (0, 0), BuildingBlock: AJUNOK_clean_linker_0, # of connection points: 2
#     Edge 39, Type (0, 0), BuildingBlock: AJUNOK_clean_linker_0, # of connection points: 2
#     Edge 40, Type (0, 0), BuildingBlock: AJUNOK_clean_linker_0, # of connection points: 2
#     Edge 41, Type (0, 0), BuildingBlock: AJUNOK_clean_linker_0, # of connection points: 2
#     Edge 42, Type (0, 0), BuildingBlock: AJUNOK_clean_linker_0, # of connection points: 2
#     Edge 43, Type (0, 0), BuildingBlock: AJUNOK_clean_linker_0, # of connection points: 2
#     Edge 44, Type (0, 0), BuildingBlock: AJUNOK_clean_linker_0, # of connection points: 2
#     Edge 45, Type (0, 0), BuildingBlock: AJUNOK_clean_linker_0, # of connection points: 2
#     Edge 46, Type (0, 0), BuildingBlock: AJUNOK_clean_linker_0, # of connection points: 2
#     Edge 47, Type (0, 0), BuildingBlock: AJUNOK_clean_linker_0, # of connection points: 2
# Relax obj value: 0.269
# Max RMSD: 0.207
# Mean RMSD: 0.207
data_MOF--net-upc--node1-MUDLON_clean_sbu_0--edge1-AJUNOK_clean_linker_0
_symmetry_space_group_name_H-M    P1
_symmetry_Int_Tables_number       1
_symmetry_cell_setting            triclinic
loop_
_symmetry_equiv_pos_as_xyz
'x, y, z'
_cell_length_a     26.70003
_cell_length_b     26.709904
_cell_length_c     31.789899
_cell_angle_alpha  90.104012
_cell_angle_beta   89.366053
_cell_angle_gamma 89.484514
loop_
_atom_site_label
_atom_site_type_symbol
_atom_site_fract_x
_atom_site_fract_y
_atom_site_fract_z
_atom_type_partial_charge
Mg0 Mg 0.06332 0.64587 0.12834 0.0
C1 C 1.00179 0.59408 0.193 0.0
O2 O 0.96777 0.62103 0.17363 0.0
C3 C 0.14454 0.72614 0.13087 0.0
O4 O 0.1057 0.75611 0.12644 0.0
C5 C 0.01969 0.56883 0.06899 0.0
O6 O 0.98397 0.57238 0.09754 0.0
O7 O 0.05818 0.59635 0.07288 0.0
O8 O 0.04743 0.59801 0.18192 0.0
O9 O 1.00481 0.70367 0.12422 0.0
C10 C 0.98303 0.74074 0.14246 0.0
O11 O 0.94606 0.76217 0.12205 0.0
O12 O 0.13776 0.67901 0.13194 0.0
Mg13 Mg 0.90771 0.10545 0.17317 0.0
C14 C 1.0111 0.10729 0.21266 0.0
O15 O 0.0263 0.09387 0.17487 0.0
C16 C 0.82381 0.17034 0.14302 0.0
O17 O 0.80132 0.12713 0.14762 0.0
C18 C 0.97084 0.08259 0.09637 0.0
O19 O 0.97427 0.13153 0.099 0.0
O20 O 0.94217 0.06025 0.12248 0.0
O21 O 0.96617 0.12246 0.21766 0.0
O22 O 0.85434 0.06806 0.21549 0.0
C23 C 0.87206 0.03938 0.24371 0.0
O24 O 0.91987 0.02737 0.24172 0.0
O25 O 0.87052 0.17262 0.15028 0.0
Mg26 Mg 0.43913 0.85678 0.16839 0.0
C27 C 0.51038 0.90787 0.21584 0.0
O28 O 0.53342 0.87911 0.18801 0.0
C29 C 0.3483 0.80138 0.14547 0.0
O30 O 0.38525 0.77195 0.13288 0.0
C31 C 0.46528 0.93619 0.1079 0.0
O32 O 0.43933 0.95893 0.13778 0.0
O33 O 0.47137 0.88884 0.11054 0.0
O34 O 0.4627 0.90971 0.21568 0.0
O35 O 0.47278 0.79043 0.19756 0.0
C36 C 0.44805 0.77388 0.22908 0.0
O37 O 0.40233 0.79109 0.23541 0.0
O38 O 0.3591 0.8432 0.1622 0.0
Mg39 Mg 0.63461 0.43447 0.14093 0.0
C40 C 0.55689 0.47915 0.19195 0.0
O41 O 0.57688 0.51575 0.17008 0.0
C42 C 0.71249 0.35689 0.12075 0.0
O43 O 0.73743 0.39846 0.11448 0.0
C44 C 0.56082 0.46728 0.07458 0.0
O45 O 0.53036 0.44844 0.10299 0.0
O46 O 0.60781 0.46739 0.08164 0.0
O47 O 0.57246 0.43475 0.18508 0.0
O48 O 0.68805 0.4753 0.17995 0.0
C49 C 0.70431 0.44812 0.2099 0.0
O50 O 0.69129 0.40083 0.21079 0.0
O51 O 0.66628 0.36002 0.13073 0.0
Mg52 Mg 0.09938 0.87461 0.37282 0.0
C53 C 0.07222 0.9774 0.34382 0.0
O54 O 0.0352 0.96738 0.36988 0.0
C55 C 0.1784 0.79893 0.39455 0.0
O56 O 0.14008 0.76958 0.38775 0.0
C57 C 0.07747 0.93141 0.44908 0.0
O58 O 0.12138 0.94693 0.43564 0.0
O59 O 0.05708 0.89513 0.42985 0.0
O60 O 0.10671 0.94471 0.33844 0.0
O61 O 0.06635 0.82229 0.32762 0.0
C62 C 0.03543 0.8392 0.30083 0.0
O63 O 0.01972 0.88573 0.30474 0.0
O64 O 0.17247 0.84593 0.39054 0.0
Mg65 Mg 0.67202 0.06137 0.41303 0.0
C66 C 0.63351 0.99646 0.34499 0.0
O67 O 0.6671 0.96695 0.36222 0.0
C68 C 0.74119 0.15039 0.42011 0.0
O69 O 0.77312 0.11461 0.42969 0.0
C70 C 0.59329 1.01489 0.47047 0.0
O71 O 0.59836 0.97875 0.44262 0.0
O72 O 0.62047 0.05359 0.46661 0.0
O73 O 0.6281 0.04077 0.35887 0.0
O74 O 0.73559 1.00983 0.42119 0.0
C75 C 0.77499 0.99054 0.40437 0.0
O76 O 0.79998 0.9581 0.42726 0.0
O77 O 0.69637 0.1389 0.41131 0.0
Mg78 Mg 0.45394 0.62697 0.41252 0.0
C79 C 0.46173 0.54196 0.34673 0.0
O80 O 0.4554 0.51154 0.37873 0.0
C81 C 0.37367 0.70804 0.42678 0.0
O82 O 0.41238 0.73395 0.43925 0.0
C83 C 0.50268 0.54838 0.46857 0.0
O84 O 0.53684 0.55097 0.43861 0.0
O85 O 0.4635 0.57565 0.46567 0.0
O86 O 0.46171 0.58892 0.35293 0.0
O87 O 0.51493 0.68086 0.4134 0.0
C88 C 0.53554 0.70813 0.38524 0.0
O89 O 0.57439 0.73478 0.39627 0.0
O90 O 0.38038 0.66276 0.41542 0.0
Mg91 Mg 0.85467 0.45515 0.4014 0.0
C92 C 0.93722 0.47698 0.33631 0.0
O93 O 0.96793 0.46792 0.36744 0.0
C94 C 0.79669 0.36088 0.42291 0.0
O95 O 0.76334 0.39442 0.43528 0.0
C96 C 0.92909 0.51452 0.45583 0.0
O97 O 0.92305 0.54898 0.42685 0.0
O98 O 0.90476 0.47389 0.45296 0.0
O99 O 0.89045 0.47209 0.3422 0.0
O100 O 0.78683 0.50201 0.40266 0.0
C101 C 0.75479 0.51827 0.37615 0.0
O102 O 0.72029 0.5497 0.39016 0.0
O103 O 0.83828 0.37564 0.40777 0.0
Mg104 Mg 0.90871 0.38831 0.86546 0.0
C105 C 0.98374 0.33986 0.80705 0.0
O106 O 1.00244 0.38494 0.81087 0.0
C107 C 0.98452 0.43462 0.92664 0.0
O108 O 1.01267 0.4361 0.89254 0.0
C109 C 0.82325 0.3208 0.88712 0.0
O110 O 0.86199 0.2913 0.89386 0.0
O111 O 0.83121 0.36553 0.87526 0.0
O112 O 0.94634 0.32823 0.83006 0.0
O113 O 0.91429 0.45082 0.82223 0.0
C114 C 0.92609 0.49466 0.83388 0.0
O115 O 0.9261 0.50567 0.87413 0.0
O116 O 0.94204 0.41329 0.92478 0.0
Mg117 Mg 0.15415 0.94926 0.89793 0.0
C118 C 0.21165 0.01659 0.83693 0.0
O119 O 0.17519 0.04843 0.84552 0.0
C120 C 0.09397 0.96755 0.97629 0.0
O121 O 0.07407 0.9264 0.96145 0.0
C122 C 0.20917 0.85981 0.9303 0.0
O123 O 0.22252 0.89355 0.95802 0.0
O124 O 0.17584 0.87119 0.90358 0.0
O125 O 0.21613 0.97758 0.85952 0.0
O126 O 0.09243 0.96414 0.85573 0.0
C127 C 0.07023 1.00594 0.86177 0.0
O128 O 0.07925 0.03055 0.89658 0.0
O129 O 0.13291 0.9847 0.95792 0.0
Mg130 Mg 0.54362 0.15749 0.91804 0.0
C131 C 0.4652 0.25167 0.90265 0.0
O132 O 0.42333 0.27138 0.91752 0.0
C133 C 0.54349 0.06241 0.97204 0.0
O134 O 0.56216 0.04328 0.9371 0.0
C135 C 0.62319 0.23925 0.91279 0.0
O136 O 0.58422 0.26857 0.91944 0.0
O137 O 0.61733 0.19201 0.91227 0.0
O138 O 0.48136 0.21168 0.92005 0.0
O139 O 0.53066 0.1072 0.86617 0.0
C140 C 0.48938 0.08396 0.86692 0.0
O141 O 0.45826 0.09192 0.89858 0.0
O142 O 0.53538 0.10954 0.97386 0.0
Mg143 Mg 0.407 0.61102 0.86544 0.0
C144 C 0.36497 0.5481 0.79544 0.0
O145 O 0.41304 0.54355 0.78688 0.0
C146 C 0.4688 0.53995 0.9201 0.0
O147 O 0.48423 0.52452 0.88286 0.0
C148 C 0.34191 0.68704 0.91256 0.0
O149 O 0.34286 0.65247 0.94188 0.0
O150 O 0.36825 0.68106 0.87931 0.0
O151 O 0.35136 0.5705 0.82908 0.0
O152 O 0.46957 0.62025 0.8218 0.0
C153 C 0.51557 0.6207 0.83176 0.0
O154 O 0.52751 0.62405 0.87163 0.0
O155 O 0.43457 0.5735 0.92229 0.0
Mg156 Mg 0.96439 0.1472 0.6333 0.0
C157 C 0.0417 0.24248 0.64941 0.0
O158 O 0.07793 0.26555 0.62915 0.0
C159 C 0.98005 0.05147 0.58016 0.0
O160 O 0.96626 0.02904 0.6151 0.0
C161 C 0.88392 0.22324 0.6128 0.0
O162 O 0.9213 0.24182 0.59079 0.0
O163 O 0.89043 0.18196 0.63193 0.0
O164 O 0.02097 0.20614 0.63029 0.0
O165 O 0.97321 0.10248 0.68957 0.0
C166 C 1.013 0.10842 0.71032 0.0
O167 O 0.0469 0.13999 0.69679 0.0
O168 O 0.97986 0.09914 0.57894 0.0
Mg169 Mg 0.35591 0.94631 0.65275 0.0
C170 C 0.26918 0.02913 0.6613 0.0
O171 O 0.24094 0.06247 0.64229 0.0
C172 C 0.43615 0.99613 0.59935 0.0
O173 O 0.42022 0.03476 0.62155 0.0
C174 C 0.29827 0.85874 0.61957 0.0
O175 O 0.29103 0.89175 0.58961 0.0
O176 O 0.32524 0.87095 0.65058 0.0
O177 O 0.29821 1.00182 0.63858 0.0
O178 O 0.38427 0.96437 0.71414 0.0
C179 C 0.43074 0.9697 0.72063 0.0
O180 O 0.46284 0.96085 0.68986 0.0
O181 O 0.41577 0.95381 0.60558 0.0
Mg182 Mg 0.61738 0.39378 0.68853 0.0
C183 C 0.55845 0.36568 0.76663 0.0
O184 O 0.56638 0.41333 0.77396 0.0
C185 C 0.54384 0.43955 0.62411 0.0
O186 O 0.5179 0.45168 0.65806 0.0
C187 C 0.70869 0.35115 0.64138 0.0
O188 O 0.6933 0.38134 0.61151 0.0
O189 O 0.68543 0.35085 0.67649 0.0
O190 O 0.57262 0.34716 0.73143 0.0
O191 O 0.63128 0.46251 0.72327 0.0
C192 C 0.6228 0.50592 0.70848 0.0
O193 O 0.61423 0.51077 0.66809 0.0
O194 O 0.58376 0.41364 0.62811 0.0
Mg195 Mg 0.1468 0.57387 0.6544 0.0
C196 C 0.2276 0.48045 0.66586 0.0
O197 O 0.23778 0.43584 0.65029 0.0
C198 C 0.07191 0.53383 0.59327 0.0
O199 O 0.07547 0.49666 0.62013 0.0
C200 C 0.19586 0.66611 0.61986 0.0
O201 O 0.17288 0.64928 0.58645 0.0
O202 O 0.19267 0.64109 0.65379 0.0
O203 O 0.18993 0.50388 0.65093 0.0
O204 O 0.09655 0.57199 0.70868 0.0
C205 C 0.05016 0.58227 0.7053 0.0
O206 O 0.03274 0.59694 0.66883 0.0
O207 O 0.09848 0.57248 0.59922 0.0
C208 C 0.23763 0.71623 0.1258 0.0
C209 C 0.19574 0.74684 0.13471 0.0
C210 C 0.28645 0.73455 0.129 0.0
C211 C 0.29566 0.78416 0.14175 0.0
H212 H 0.23278 0.67776 0.11589 0.0
H213 H 0.31723 0.7092 0.12167 0.0
S214 S 0.19878 0.87943 0.16996 0.0
N215 N 0.16653 0.82921 0.15745 0.0
N216 N 0.25834 0.86353 0.16384 0.0
C217 C 0.25407 0.8152 0.15104 0.0
C218 C 0.20418 0.7966 0.14739 0.0
C219 C 0.8192 0.26257 0.12898 0.0
C220 C 0.79454 0.21649 0.13326 0.0
C221 C 0.79238 0.30737 0.12338 0.0
C222 C 0.73967 0.30813 0.12207 0.0
H223 H 0.85963 0.2644 0.13087 0.0
H224 H 0.81329 0.34186 0.1214 0.0
S225 S 0.65698 0.19731 0.12791 0.0
N226 N 0.71411 0.17409 0.13287 0.0
N227 N 0.66388 0.25833 0.12261 0.0
C228 C 0.71452 0.26216 0.12469 0.0
C229 C 0.74187 0.2164 0.13018 0.0
C230 C 0.23627 0.7252 0.39999 0.0
C231 C 0.22804 0.77698 0.405 0.0
C232 C 0.28304 0.70332 0.40801 0.0
C233 C 0.32366 0.73215 0.42171 0.0
H234 H 0.2066 0.70125 0.38901 0.0
H235 H 0.28741 0.66342 0.40283 0.0
S236 S 0.32062 0.86892 0.44336 0.0
N237 N 0.26372 0.85628 0.42682 0.0
N238 N 0.35154 0.81512 0.44234 0.0
C239 C 0.31556 0.78382 0.42818 0.0
C240 C 0.26789 0.80623 0.41963 0.0
C241 C 0.73361 0.2923 0.42602 0.0
C242 C 0.78404 0.30689 0.42297 0.0
C243 C 0.72017 0.24172 0.4246 0.0
C244 C 0.75664 0.20359 0.42073 0.0
H245 H 0.70404 0.32016 0.42895 0.0
H246 H 0.68081 0.2325 0.42698 0.0
S247 S 0.89409 0.22166 0.41198 0.0
N248 N 0.87074 0.27893 0.41595 0.0
N249 N 0.84551 0.1839 0.4138 0.0
C250 C 0.80728 0.21756 0.41796 0.0
C251 C 0.82095 0.26916 0.41892 0.0
C252 C 0.76453 0.25386 0.91133 0.0
C253 C 0.77153 0.30148 0.89323 0.0
C254 C 0.71655 0.23397 0.91729 0.0
C255 C 0.67347 0.26102 0.90579 0.0
H256 H 0.79638 0.23156 0.92114 0.0
H257 H 0.7132 0.1973 0.93151 0.0
S258 S 0.67068 0.38529 0.85379 0.0
N259 N 0.73076 0.37391 0.86158 0.0
N260 N 0.64067 0.3366 0.87323 0.0
C261 C 0.67968 0.30838 0.88721 0.0
C262 C 0.72863 0.32857 0.88083 0.0
C263 C 0.29536 0.75055 0.95638 0.0
C264 C 0.30705 0.73029 0.91655 0.0
C265 C 0.26268 0.79179 0.9607 0.0
C266 C 0.23931 0.81326 0.9255 0.0
H267 H 0.31246 0.73516 0.98433 0.0
H268 H 0.25587 0.80715 0.99183 0.0
S269 S 0.25524 0.77215 0.81446 0.0
N270 N 0.2915 0.73374 0.84136 0.0
N271 N 0.22927 0.81024 0.84954 0.0
C272 C 0.24954 0.79233 0.88562 0.0
C273 C 0.28366 0.75115 0.88113 0.0
C274 C 0.78649 0.32688 0.60124 0.0
C275 C 0.75201 0.31694 0.63389 0.0
C276 C 0.82836 0.29577 0.59413 0.0
C277 C 0.83707 0.25299 0.61893 0.0
H278 H 0.7817 0.35952 0.58146 0.0
H279 H 0.85432 0.30571 0.56914 0.0
S280 S 0.75583 0.20821 0.70651 0.0
N281 N 0.72811 0.25997 0.69014 0.0
N282 N 0.80598 0.201 0.67622 0.0
C283 C 0.80192 0.24169 0.65082 0.0
C284 C 0.7597 0.2738 0.65848 0.0
C285 C 0.25006 0.731 0.65365 0.0
C286 C 0.22323 0.71446 0.61841 0.0
C287 C 0.27477 0.77721 0.65351 0.0
C288 C 0.27355 0.809 0.6182 0.0
H289 H 0.25179 0.70828 0.6818 0.0
H290 H 0.29438 0.78832 0.68163 0.0
S291 S 0.20922 0.78306 0.51753 0.0
N292 N 0.19763 0.73356 0.54689 0.0
N293 N 0.24387 0.82003 0.54666 0.0
C294 C 0.24734 0.79268 0.58256 0.0
C295 C 0.2223 0.74558 0.58265 0.0
C296 C 1.00409 0.5206 0.29483 0.0
C297 C 0.95546 0.50069 0.29702 0.0
C298 C 0.01954 0.54955 0.26037 0.0
C299 C 0.98675 0.55988 0.22714 0.0
H300 H 0.02984 0.51547 0.32059 0.0
H301 H 0.05668 0.56555 0.26056 0.0
S302 S 0.85837 0.51041 0.21447 0.0
N303 N 0.87674 0.4887 0.2604 0.0
N304 N 0.90564 0.54364 0.19618 0.0
C305 C 0.93908 0.53806 0.22782 0.0
C306 C 0.9235 0.50825 0.2626 0.0
C307 C 0.07732 0.05243 0.24355 0.0
C308 C 0.03775 0.08704 0.24974 0.0
C309 C 0.09184 0.01967 0.27566 0.0
C310 C 0.06737 0.02055 0.31503 0.0
H311 H 0.09435 0.04741 0.21273 0.0
H312 H 0.11945 0.9909 0.26832 0.0
S313 S 0.97171 0.11333 0.35092 0.0
N314 N 0.98205 0.12724 0.30102 0.0
N315 N 1.00924 0.06558 0.36121 0.0
C316 C 0.0325 0.05923 0.32329 0.0
C317 C 0.01782 0.09266 0.29068 0.0
C318 C 0.61866 0.93583 0.28735 0.0
C319 C 0.6016 0.97703 0.31111 0.0
C320 C 0.58886 0.91449 0.25643 0.0
C321 C 0.54038 0.93296 0.24834 0.0
H322 H 0.65545 0.91973 0.29265 0.0
H323 H 0.60384 0.88254 0.23926 0.0
S324 S 0.47796 0.0405 0.30173 0.0
N325 N 0.53327 0.03617 0.32429 0.0
N326 N 0.47671 0.99527 0.26625 0.0
C327 C 0.52272 0.97429 0.27171 0.0
C328 C 0.55352 0.99662 0.30299 0.0
C329 C 0.52119 0.45892 0.26295 0.0
C330 C 0.5235 0.49114 0.22802 0.0
C331 C 0.49814 0.47436 0.30074 0.0
C332 C 0.47669 0.52248 0.30479 0.0
H333 H 0.53991 0.42279 0.26201 0.0
H334 H 0.49982 0.4495 0.32759 0.0
S335 S 0.46434 0.61698 0.2199 0.0
N336 N 0.49616 0.57035 0.19797 0.0
N337 N 0.45286 0.59928 0.26875 0.0
C338 C 0.4751 0.55328 0.26895 0.0
C339 C 0.49852 0.53762 0.23062 0.0
C340 C 0.96823 0.54855 0.72983 0.0
C341 C 1.01513 0.56885 0.73963 0.0
C342 C 0.93787 0.52718 0.76111 0.0
C343 C 0.9527 0.52673 0.80339 0.0
H344 H 0.95624 0.54625 0.69744 0.0
H345 H 0.9035 0.50909 0.75192 0.0
S346 S 0.06961 0.58019 0.84592 0.0
N347 N 0.07336 0.59051 0.79479 0.0
N348 N 1.01563 0.55182 0.85388 0.0
C349 C 0.99789 0.55009 0.81399 0.0
C350 C 0.02933 0.57075 0.78199 0.0
C351 C 0.032 1.00558 0.79013 0.0
C352 C 0.04717 0.03247 0.82589 0.0
C353 C 0.01812 0.03048 0.75314 0.0
C354 C 0.02024 0.08288 0.75058 0.0
H355 H 0.03242 0.96502 0.79026 0.0
H356 H 1.00821 1.0086 0.72578 0.0
S357 S 0.0526 0.1712 0.83565 0.0
N358 N 0.05899 0.1152 0.85693 0.0
N359 N 0.03467 0.16117 0.78688 0.0
C360 C 0.03309 0.1103 0.78634 0.0
C361 C 0.04602 0.08528 0.82422 0.0
C362 C 0.50677 0.04748 0.79576 0.0
C363 C 0.47566 0.05055 0.83173 0.0
C364 C 0.493 0.01928 0.76066 0.0
C365 C 0.44747 0.99327 0.76007 0.0
H366 H 0.5415 0.06809 0.79412 0.0
H367 H 0.5174 0.01956 0.7332 0.0
S368 S 0.35554 0.98378 0.84804 0.0
N369 N 0.39931 0.02122 0.86596 0.0
N370 N 0.37343 0.96848 0.79981 0.0
C371 C 0.41708 0.99405 0.79648 0.0
C372 C 0.43117 0.02261 0.83234 0.0
C373 C 0.56746 0.57863 0.72651 0.0
C374 C 0.60655 0.54595 0.73805 0.0
C375 C 0.54089 0.60652 0.75688 0.0
C376 C 0.55286 0.60337 0.79983 0.0
H377 H 0.55433 0.57954 0.6944 0.0
H378 H 0.50858 0.6281 0.74694 0.0
S379 S 0.65948 0.53186 0.84472 0.0
N380 N 0.66116 0.51804 0.79408 0.0
N381 N 0.61199 0.57126 0.85121 0.0
C382 C 0.59557 0.57529 0.81104 0.0
C383 C 0.62218 0.5463 0.78012 0.0
C384 C 0.97142 0.80522 0.19881 0.0
C385 C 0.99691 0.76177 0.18453 0.0
C386 C 0.98318 0.82856 0.23684 0.0
C387 C 0.02103 0.80974 0.26296 0.0
H388 H 0.94223 0.82234 0.18016 0.0
H389 H 0.96266 0.86231 0.24541 0.0
S390 S 0.09799 0.69569 0.24223 0.0
N391 N 0.06085 0.69988 0.20118 0.0
N392 N 0.08317 0.74377 0.27275 0.0
C393 C 0.04613 0.76558 0.25002 0.0
C394 C 0.0341 0.74169 0.21089 0.0
C395 C 0.86047 0.98678 0.30782 0.0
C396 C 0.84207 0.0248 0.28156 0.0
C397 C 0.83736 0.97576 0.3464 0.0
C398 C 0.79473 1.0024 0.36117 0.0
H399 H 0.89385 0.96574 0.29896 0.0
H400 H 0.85413 0.9464 0.36516 0.0
S401 S 0.7302 0.10467 0.30351 0.0
N402 N 0.77727 0.08827 0.27215 0.0
N403 N 0.73412 0.06776 0.34498 0.0
C404 C 0.77493 0.03966 0.33463 0.0
C405 C 0.79844 0.05075 0.29485 0.0
C406 C 0.46422 0.70877 0.33408 0.0
C407 C 0.51557 0.71385 0.34184 0.0
C408 C 0.44322 0.7248 0.29603 0.0
C409 C 0.47286 0.74609 0.26384 0.0
H410 H 0.43947 0.69533 0.35841 0.0
H411 H 0.40294 0.72277 0.29274 0.0
S412 S 0.61102 0.75966 0.26547 0.0
N413 N 0.59673 0.73574 0.31188 0.0
N414 N 0.55746 0.76551 0.24043 0.0
C415 C 0.52498 0.74721 0.26967 0.0
C416 C 0.54625 0.73129 0.30863 0.0
C417 C 0.71689 0.51863 0.26107 0.0
C418 C 0.72846 0.46969 0.24769 0.0
C419 C 0.72889 0.53488 0.30184 0.0
C420 C 0.75321 0.50307 0.33084 0.0
H421 H 0.69539 0.54342 0.2411 0.0
H422 H 0.71672 0.57204 0.31138 0.0
S423 S 0.79811 0.37382 0.30838 0.0
N424 N 0.77113 0.3917 0.26442 0.0
N425 N 0.79238 0.42184 0.34088 0.0
C426 C 0.76832 0.4555 0.31641 0.0
C427 C 0.75625 0.43895 0.27493 0.0
C428 C 0.05869 0.2962 0.71187 0.0
C429 C 0.02764 0.26055 0.69262 0.0
C430 C 0.04543 0.31926 0.75001 0.0
C431 C 1.00059 0.30766 0.77119 0.0
H432 H 0.09324 0.30783 0.69681 0.0
H433 H 0.06999 0.34775 0.76225 0.0
S434 S 0.90847 0.21275 0.73764 0.0
N435 N 0.95152 0.2121 0.69995 0.0
N436 N 0.927 0.25466 0.77221 0.0
C437 C 0.97054 0.26982 0.75398 0.0
C438 C 0.9839 0.24656 0.71461 0.0
C439 C 0.25391 0.06837 0.7316 0.0
C440 C 0.26537 0.02505 0.7079 0.0
C441 C 0.24013 0.06559 0.77426 0.0
C442 C 0.23734 0.01936 0.79518 0.0
H443 H 0.25347 0.10474 0.71656 0.0
H444 H 0.22934 0.09982 0.79045 0.0
S445 S 0.26509 0.89474 0.74782 0.0
N446 N 0.27383 0.93461 0.70887 0.0
N447 N 0.24953 0.92914 0.78922 0.0
C448 C 0.2514 0.97589 0.77249 0.0
C449 C 0.26498 0.97879 0.72882 0.0
C450 C 0.4869 0.33092 0.86599 0.0
C451 C 0.49187 0.27847 0.86817 0.0
C452 C 0.50837 0.35833 0.83304 0.0
C453 C 0.53523 0.33454 0.80022 0.0
H454 H 0.46621 0.35125 0.89016 0.0
H455 H 0.50341 0.39863 0.83322 0.0
S456 S 0.55984 0.19794 0.79103 0.0
N457 N 0.52612 0.20384 0.83466 0.0
N458 N 0.56665 0.25521 0.77243 0.0
C459 C 0.54082 0.28209 0.80195 0.0
C460 C 0.51922 0.25413 0.83598 0.0
C461 C 0.34261 0.49583 0.73347 0.0
C462 C 0.32787 0.53123 0.76401 0.0
C463 C 0.30993 0.48075 0.70185 0.0
C464 C 0.26107 0.50077 0.69882 0.0
H465 H 0.37983 0.47934 0.73395 0.0
H466 H 0.32341 0.45306 0.67939 0.0
S467 S 0.20421 0.59572 0.77049 0.0
N468 N 0.26112 0.58675 0.78902 0.0
N469 N 0.19973 0.55827 0.72932 0.0
C470 C 0.24586 0.53662 0.7289 0.0
C471 C 0.27914 0.55173 0.76159 0.0
C472 C 0.97071 0.5033 0.03122 0.0
C473 C 1.01398 0.53306 0.0332 0.0
C474 C 0.96262 0.47036 0.99763 0.0
C475 C 0.99734 0.4655 0.96421 0.0
H476 H 0.94215 0.50579 0.05562 0.0
H477 H 0.92807 0.4494 0.99752 0.0
S478 S 0.11856 0.53238 0.95521 0.0
N479 N 0.09334 0.55365 0.99948 0.0
N480 N 0.07829 0.49175 0.93635 0.0
C481 C 0.04162 0.4939 0.9663 0.0
C482 C 0.04986 0.52761 1.00067 0.0
C483 C 0.02671 0.97455 0.03193 0.0
C484 C 0.06619 0.99696 1.00916 0.0
C485 C 0.99634 1.00227 0.06007 0.0
C486 C 1.00369 0.05385 0.06639 0.0
H487 H 0.01868 0.9352 0.02767 0.0
H488 H 0.96642 0.98314 0.07656 0.0
S489 S 0.10294 0.13048 1.01548 0.0
N490 N 0.11174 0.07382 0.99583 0.0
N491 N 0.0548 0.12595 0.04822 0.0
C492 C 0.04359 0.07663 0.04429 0.0
C493 C 0.07481 0.04823 1.01593 0.0
C494 C 0.48396 0.01927 0.07506 0.0
C495 C 0.48746 0.96658 0.07311 0.0
C496 C 0.50325 0.04968 0.04293 0.0
C497 C 0.52695 0.02898 1.00711 0.0
H498 H 0.46583 0.03757 0.10165 0.0
H499 H 0.49878 0.08987 0.04607 0.0
S500 S 0.54731 0.89303 0.98678 0.0
N501 N 0.51766 0.89499 0.03261 0.0
N502 N 0.55386 0.95189 0.9721 0.0
C503 C 0.53155 0.97627 1.00495 0.0
C504 C 0.51187 0.94521 0.03789 0.0
C505 C 0.46943 0.5271 0.99836 0.0
C506 C 0.49332 0.52105 0.95896 0.0
C507 C 0.49184 0.50996 0.03548 0.0
C508 C 0.53963 0.48721 0.03494 0.0
H509 H 0.43277 0.54467 1.00057 0.0
H510 H 0.4716 0.51484 0.06496 0.0
S511 S 0.6184 0.46225 0.94045 0.0
N512 N 0.56769 0.4899 0.9219 0.0
N513 N 0.61006 0.4592 0.9919 0.0
C514 C 0.5643 0.48145 0.996 0.0
C515 C 0.54107 0.49788 0.95799 0.0
C516 C 0.02117 0.93954 0.51276 0.0
C517 C 0.04935 0.96195 0.48046 0.0
C518 C 0.99783 0.96881 0.54436 0.0
C519 C 1.00095 0.02158 0.54426 0.0
H520 H 0.01858 0.89914 0.51444 0.0
H521 H 0.97786 0.9498 0.5694 0.0
S522 S 0.06547 0.09825 0.46299 0.0
N523 N 0.07599 0.03982 0.4482 0.0
N524 N 0.03146 0.09473 0.50653 0.0
C525 C 0.02703 0.04431 0.5107 0.0
C526 C 0.05141 1.01452 0.47912 0.0
C527 C 0.52638 0.96693 0.50866 0.0
C528 C 0.55475 1.01096 0.50465 0.0
C529 C 0.48862 0.96238 0.53947 0.0
C530 C 0.47726 1.00174 0.56759 0.0
H531 H 0.53306 0.93556 0.48764 0.0
H532 H 0.46782 0.92778 0.54085 0.0
S533 S 0.54135 0.12464 0.5715 0.0
N534 N 0.56942 0.09447 0.53237 0.0
N535 N 0.49857 0.08604 0.59005 0.0
C536 C 0.50567 0.04586 0.5643 0.0
C537 C 0.54433 0.05042 0.53297 0.0
C538 C 0.49041 0.49626 0.57982 0.0
C539 C 0.53106 0.46244 0.5827 0.0
C540 C 0.48066 0.52267 0.54255 0.0
C541 C 0.51126 0.51666 0.50648 0.0
H542 H 0.46649 0.50353 0.60692 0.0
H543 H 0.44965 0.54908 0.54251 0.0
S544 S 0.61974 0.42915 0.49585 0.0
N545 N 0.60007 0.42183 0.54484 0.0
N546 N 0.58193 0.47142 0.47515 0.0
C547 C 0.55087 0.4815 0.50834 0.0
C548 C 0.56069 0.45443 0.54626 0.0
C549 C 0.97098 0.48379 0.52124 0.0
C550 C 0.96536 0.52149 0.4907 0.0
C551 C 1.00544 0.4883 0.55395 0.0
C552 C 0.036 0.53073 0.55779 0.0
H553 H 0.94866 0.45017 0.51995 0.0
H554 H 1.00797 0.45799 0.57644 0.0
S555 S 0.03632 0.64053 0.48622 0.0
N556 N 0.9936 0.6031 0.46655 0.0
N557 N 0.05827 0.61152 0.52805 0.0
C558 C 0.0308 0.56893 0.5276 0.0
C559 C 0.99558 0.56434 0.49414 0.0
loop_
_geom_bond_atom_site_label_1
_geom_bond_atom_site_label_2
_geom_bond_distance
_geom_bond_site_symmetry_2
_ccdc_geom_bond_type
Mg0 O7 2.141 . S
Mg0 O8 2.048 . S
Mg0 O9 2.048 . S
Mg0 O12 2.141 . S
C1 O2 1.313 . S
C1 O8 1.195 1_655 S
O2 C1 1.313 . S
C3 O4 1.245 . S
C3 O12 1.289 . S
O4 C3 1.245 . S
C5 O6 1.245 . S
C5 O7 1.289 . S
O6 C5 1.245 . S
O7 Mg0 2.141 . S
O7 C5 1.289 . S
O8 Mg0 2.048 . S
O8 C1 1.195 1_455 S
O9 Mg0 2.048 . S
O9 C10 1.195 . S
C10 O9 1.195 . S
C10 O11 1.313 . S
O11 C10 1.313 . S
O12 Mg0 2.141 . S
O12 C3 1.289 . S
Mg13 O20 2.141 . S
Mg13 O21 2.048 . S
Mg13 O22 2.048 . S
Mg13 O25 2.141 . S
C14 O15 1.313 . S
C14 O21 1.195 1_565 S
O15 C14 1.313 . S
C16 O17 1.245 . S
C16 O25 1.289 . S
O17 C16 1.245 . S
C18 O19 1.245 . S
C18 O20 1.289 . S
O19 C18 1.245 . S
O20 Mg13 2.141 . S
O20 C18 1.289 . S
O21 Mg13 2.048 . S
O21 C14 1.195 1_545 S
O22 Mg13 2.048 . S
O22 C23 1.195 . S
C23 O22 1.195 . S
C23 O24 1.313 . S
O24 C23 1.313 . S
O25 Mg13 2.141 . S
O25 C16 1.289 . S
Mg26 O33 2.141 . S
Mg26 O34 2.048 . S
Mg26 O35 2.048 . S
Mg26 O38 2.141 . S
C27 O28 1.313 . S
C27 O34 1.195 . S
O28 C27 1.313 . S
C29 O30 1.245 . S
C29 O38 1.289 . S
O30 C29 1.245 . S
C31 O32 1.245 . S
C31 O33 1.289 . S
O32 C31 1.245 . S
O33 Mg26 2.141 . S
O33 C31 1.289 . S
O34 Mg26 2.048 . S
O34 C27 1.195 . S
O35 Mg26 2.048 . S
O35 C36 1.195 . S
C36 O35 1.195 . S
C36 O37 1.313 . S
O37 C36 1.313 . S
O38 Mg26 2.141 . S
O38 C29 1.289 . S
Mg39 O46 2.141 . S
Mg39 O47 2.048 . S
Mg39 O48 2.048 . S
Mg39 O51 2.141 . S
C40 O41 1.313 . S
C40 O47 1.195 . S
O41 C40 1.313 . S
C42 O43 1.245 . S
C42 O51 1.289 . S
O43 C42 1.245 . S
C44 O45 1.245 . S
C44 O46 1.289 . S
O45 C44 1.245 . S
O46 Mg39 2.141 . S
O46 C44 1.289 . S
O47 Mg39 2.048 . S
O47 C40 1.195 . S
O48 Mg39 2.048 . S
O48 C49 1.195 . S
C49 O48 1.195 . S
C49 O50 1.313 . S
O50 C49 1.313 . S
O51 Mg39 2.141 . S
O51 C42 1.289 . S
Mg52 O59 2.141 . S
Mg52 O60 2.048 . S
Mg52 O61 2.048 . S
Mg52 O64 2.141 . S
C53 O54 1.313 . S
C53 O60 1.195 1_655 S
O54 C53 1.313 . S
C55 O56 1.245 . S
C55 O64 1.289 . S
O56 C55 1.245 . S
C57 O58 1.245 . S
C57 O59 1.289 . S
O58 C57 1.245 . S
O59 Mg52 2.141 . S
O59 C57 1.289 . S
O60 Mg52 2.048 . S
O60 C53 1.195 1_455 S
O61 Mg52 2.048 . S
O61 C62 1.195 . S
C62 O61 1.195 . S
C62 O63 1.313 . S
O63 C62 1.313 . S
O64 Mg52 2.141 . S
O64 C55 1.289 . S
Mg65 O72 2.141 . S
Mg65 O73 2.048 . S
Mg65 O74 2.048 . S
Mg65 O77 2.141 . S
C66 O67 1.313 . S
C66 O73 1.195 1_565 S
O67 C66 1.313 . S
C68 O69 1.245 . S
C68 O77 1.289 . S
O69 C68 1.245 . S
C70 O71 1.245 . S
C70 O72 1.289 . S
O71 C70 1.245 . S
O72 Mg65 2.141 . S
O72 C70 1.289 . S
O73 Mg65 2.048 . S
O73 C66 1.195 1_545 S
O74 Mg65 2.048 . S
O74 C75 1.195 . S
C75 O74 1.195 . S
C75 O76 1.313 . S
O76 C75 1.313 . S
O77 Mg65 2.141 . S
O77 C68 1.289 . S
Mg78 O85 2.141 . S
Mg78 O86 2.048 . S
Mg78 O87 2.048 . S
Mg78 O90 2.141 . S
C79 O80 1.313 . S
C79 O86 1.195 . S
O80 C79 1.313 . S
C81 O82 1.245 . S
C81 O90 1.289 . S
O82 C81 1.245 . S
C83 O84 1.245 . S
C83 O85 1.289 . S
O84 C83 1.245 . S
O85 Mg78 2.141 . S
O85 C83 1.289 . S
O86 Mg78 2.048 . S
O86 C79 1.195 . S
O87 Mg78 2.048 . S
O87 C88 1.195 . S
C88 O87 1.195 . S
C88 O89 1.313 . S
O89 C88 1.313 . S
O90 Mg78 2.141 . S
O90 C81 1.289 . S
Mg91 O98 2.141 . S
Mg91 O99 2.048 . S
Mg91 O100 2.048 . S
Mg91 O103 2.141 . S
C92 O93 1.313 . S
C92 O99 1.195 . S
O93 C92 1.313 . S
C94 O95 1.245 . S
C94 O103 1.289 . S
O95 C94 1.245 . S
C96 O97 1.245 . S
C96 O98 1.289 . S
O97 C96 1.245 . S
O98 Mg91 2.141 . S
O98 C96 1.289 . S
O99 Mg91 2.048 . S
O99 C92 1.195 . S
O100 Mg91 2.048 . S
O100 C101 1.195 . S
C101 O100 1.195 . S
C101 O102 1.313 . S
O102 C101 1.313 . S
O103 Mg91 2.141 . S
O103 C94 1.289 . S
Mg104 O111 2.141 . S
Mg104 O112 2.048 . S
Mg104 O113 2.048 . S
Mg104 O116 2.141 . S
C105 O106 1.313 . S
C105 O112 1.195 . S
O106 C105 1.313 . S
C107 O108 1.245 . S
C107 O116 1.289 . S
O108 C107 1.245 . S
C109 O110 1.245 . S
C109 O111 1.289 . S
O110 C109 1.245 . S
O111 Mg104 2.141 . S
O111 C109 1.289 . S
O112 Mg104 2.048 . S
O112 C105 1.195 . S
O113 Mg104 2.048 . S
O113 C114 1.195 1_655 S
C114 O113 1.195 1_455 S
C114 O115 1.313 . S
O115 C114 1.313 . S
O116 Mg104 2.141 . S
O116 C107 1.289 . S
Mg117 O124 2.141 . S
Mg117 O125 2.048 . S
Mg117 O126 2.048 . S
Mg117 O129 2.141 . S
C118 O119 1.313 . S
C118 O125 1.195 . S
O119 C118 1.313 . S
C120 O121 1.245 . S
C120 O129 1.289 . S
O121 C120 1.245 . S
C122 O123 1.245 . S
C122 O124 1.289 . S
O123 C122 1.245 . S
O124 Mg117 2.141 . S
O124 C122 1.289 . S
O125 Mg117 2.048 . S
O125 C118 1.195 . S
O126 Mg117 2.048 . S
O126 C127 1.195 1_565 S
C127 O126 1.195 1_545 S
C127 O128 1.313 . S
O128 C127 1.313 . S
O129 Mg117 2.141 . S
O129 C120 1.289 . S
Mg130 O137 2.141 . S
Mg130 O138 2.048 . S
Mg130 O139 2.048 . S
Mg130 O142 2.141 . S
C131 O132 1.313 . S
C131 O138 1.195 . S
O132 C131 1.313 . S
C133 O134 1.245 . S
C133 O142 1.289 . S
O134 C133 1.245 . S
C135 O136 1.245 . S
C135 O137 1.289 . S
O136 C135 1.245 . S
O137 Mg130 2.141 . S
O137 C135 1.289 . S
O138 Mg130 2.048 . S
O138 C131 1.195 . S
O139 Mg130 2.048 . S
O139 C140 1.195 . S
C140 O139 1.195 . S
C140 O141 1.313 . S
O141 C140 1.313 . S
O142 Mg130 2.141 . S
O142 C133 1.289 . S
Mg143 O150 2.141 . S
Mg143 O151 2.048 . S
Mg143 O152 2.048 . S
Mg143 O155 2.141 . S
C144 O145 1.313 . S
C144 O151 1.195 . S
O145 C144 1.313 . S
C146 O147 1.245 . S
C146 O155 1.289 . S
O147 C146 1.245 . S
C148 O149 1.245 . S
C148 O150 1.289 . S
O149 C148 1.245 . S
O150 Mg143 2.141 . S
O150 C148 1.289 . S
O151 Mg143 2.048 . S
O151 C144 1.195 . S
O152 Mg143 2.048 . S
O152 C153 1.195 . S
C153 O152 1.195 . S
C153 O154 1.313 . S
O154 C153 1.313 . S
O155 Mg143 2.141 . S
O155 C146 1.289 . S
Mg156 O163 2.141 . S
Mg156 O164 2.048 . S
Mg156 O165 2.048 . S
Mg156 O168 2.141 . S
C157 O158 1.313 . S
C157 O164 1.195 . S
O158 C157 1.313 . S
C159 O160 1.245 . S
C159 O168 1.289 . S
O160 C159 1.245 . S
C161 O162 1.245 . S
C161 O163 1.289 . S
O162 C161 1.245 . S
O163 Mg156 2.141 . S
O163 C161 1.289 . S
O164 Mg156 2.048 . S
O164 C157 1.195 . S
O165 Mg156 2.048 . S
O165 C166 1.195 1_655 S
C166 O165 1.195 1_455 S
C166 O167 1.313 . S
O167 C166 1.313 . S
O168 Mg156 2.141 . S
O168 C159 1.289 . S
Mg169 O176 2.141 . S
Mg169 O177 2.048 . S
Mg169 O178 2.048 . S
Mg169 O181 2.141 . S
C170 O171 1.313 . S
C170 O177 1.195 . S
O171 C170 1.313 . S
C172 O173 1.245 . S
C172 O181 1.289 . S
O173 C172 1.245 . S
C174 O175 1.245 . S
C174 O176 1.289 . S
O175 C174 1.245 . S
O176 Mg169 2.141 . S
O176 C174 1.289 . S
O177 Mg169 2.048 . S
O177 C170 1.195 . S
O178 Mg169 2.048 . S
O178 C179 1.195 1_565 S
C179 O178 1.195 1_545 S
C179 O180 1.313 . S
O180 C179 1.313 . S
O181 Mg169 2.141 . S
O181 C172 1.289 . S
Mg182 O189 2.141 . S
Mg182 O190 2.048 . S
Mg182 O191 2.048 . S
Mg182 O194 2.141 . S
C183 O184 1.313 . S
C183 O190 1.195 . S
O184 C183 1.313 . S
C185 O186 1.245 . S
C185 O194 1.289 . S
O186 C185 1.245 . S
C187 O188 1.245 . S
C187 O189 1.289 . S
O188 C187 1.245 . S
O189 Mg182 2.141 . S
O189 C187 1.289 . S
O190 Mg182 2.048 . S
O190 C183 1.195 . S
O191 Mg182 2.048 . S
O191 C192 1.195 . S
C192 O191 1.195 . S
C192 O193 1.313 . S
O193 C192 1.313 . S
O194 Mg182 2.141 . S
O194 C185 1.289 . S
Mg195 O202 2.141 . S
Mg195 O203 2.048 . S
Mg195 O204 2.048 . S
Mg195 O207 2.141 . S
C196 O197 1.313 . S
C196 O203 1.195 . S
O197 C196 1.313 . S
C198 O199 1.245 . S
C198 O207 1.289 . S
O199 C198 1.245 . S
C200 O201 1.245 . S
C200 O202 1.289 . S
O201 C200 1.245 . S
O202 Mg195 2.141 . S
O202 C200 1.289 . S
O203 Mg195 2.048 . S
O203 C196 1.195 . S
O204 Mg195 2.048 . S
O204 C205 1.195 . S
C205 O204 1.195 . S
C205 O206 1.313 . S
O206 C205 1.313 . S
O207 Mg195 2.141 . S
O207 C198 1.289 . S
C208 C209 1.369 . S
C208 C210 1.419 . S
C208 H212 0.930 . S
C209 C208 1.369 . S
C209 C218 1.429 . S
C210 C208 1.419 . S
C210 C211 1.363 . S
C210 H213 0.929 . S
C211 C210 1.363 . S
C211 C217 1.428 . S
H212 C208 0.930 . S
H213 C210 0.929 . S
S214 N215 1.613 . S
S214 N216 1.610 . S
N215 S214 1.613 . S
N215 C218 1.350 . S
N216 S214 1.610 . S
N216 C217 1.351 . S
C217 C211 1.428 . S
C217 N216 1.351 . S
C217 C218 1.434 . S
C218 C209 1.429 . S
C218 N215 1.350 . S
C218 C217 1.434 . S
C219 C220 1.369 . S
C219 C221 1.419 . S
C219 H223 0.930 . S
C220 C219 1.369 . S
C220 C229 1.429 . S
C221 C219 1.419 . S
C221 C222 1.363 . S
C221 H224 0.929 . S
C222 C221 1.363 . S
C222 C228 1.428 . S
H223 C219 0.930 . S
H224 C221 0.929 . S
S225 N226 1.613 . S
S225 N227 1.610 . S
N226 S225 1.613 . S
N226 C229 1.350 . S
N227 S225 1.610 . S
N227 C228 1.351 . S
C228 C222 1.428 . S
C228 N227 1.351 . S
C228 C229 1.434 . S
C229 C220 1.429 . S
C229 N226 1.350 . S
C229 C228 1.434 . S
C230 C231 1.369 . S
C230 C232 1.419 . S
C230 H234 0.930 . S
C231 C230 1.369 . S
C231 C240 1.429 . S
C232 C230 1.419 . S
C232 C233 1.363 . S
C232 H235 0.929 . S
C233 C232 1.363 . S
C233 C239 1.428 . S
H234 C230 0.930 . S
H235 C232 0.929 . S
S236 N237 1.613 . S
S236 N238 1.610 . S
N237 S236 1.613 . S
N237 C240 1.350 . S
N238 S236 1.610 . S
N238 C239 1.351 . S
C239 C233 1.428 . S
C239 N238 1.351 . S
C239 C240 1.434 . S
C240 C231 1.429 . S
C240 N237 1.350 . S
C240 C239 1.434 . S
C241 C242 1.369 . S
C241 C243 1.419 . S
C241 H245 0.930 . S
C242 C241 1.369 . S
C242 C251 1.429 . S
C243 C241 1.419 . S
C243 C244 1.363 . S
C243 H246 0.929 . S
C244 C243 1.363 . S
C244 C250 1.428 . S
H245 C241 0.930 . S
H246 C243 0.929 . S
S247 N248 1.613 . S
S247 N249 1.610 . S
N248 S247 1.613 . S
N248 C251 1.350 . S
N249 S247 1.610 . S
N249 C250 1.351 . S
C250 C244 1.428 . S
C250 N249 1.351 . S
C250 C251 1.434 . S
C251 C242 1.429 . S
C251 N248 1.350 . S
C251 C250 1.434 . S
C252 C253 1.369 . S
C252 C254 1.419 . S
C252 H256 0.930 . S
C253 C252 1.369 . S
C253 C262 1.429 . S
C254 C252 1.419 . S
C254 C255 1.363 . S
C254 H257 0.929 . S
C255 C254 1.363 . S
C255 C261 1.428 . S
H256 C252 0.930 . S
H257 C254 0.929 . S
S258 N259 1.613 . S
S258 N260 1.610 . S
N259 S258 1.613 . S
N259 C262 1.350 . S
N260 S258 1.610 . S
N260 C261 1.351 . S
C261 C255 1.428 . S
C261 N260 1.351 . S
C261 C262 1.434 . S
C262 C253 1.429 . S
C262 N259 1.350 . S
C262 C261 1.434 . S
C263 C264 1.369 . S
C263 C265 1.419 . S
C263 H267 0.930 . S
C264 C263 1.369 . S
C264 C273 1.429 . S
C265 C263 1.419 . S
C265 C266 1.363 . S
C265 H268 0.929 . S
C266 C265 1.363 . S
C266 C272 1.428 . S
H267 C263 0.930 . S
H268 C265 0.929 . S
S269 N270 1.613 . S
S269 N271 1.610 . S
N270 S269 1.613 . S
N270 C273 1.350 . S
N271 S269 1.610 . S
N271 C272 1.351 . S
C272 C266 1.428 . S
C272 N271 1.351 . S
C272 C273 1.434 . S
C273 C264 1.429 . S
C273 N270 1.350 . S
C273 C272 1.434 . S
C274 C275 1.369 . S
C274 C276 1.419 . S
C274 H278 0.930 . S
C275 C274 1.369 . S
C275 C284 1.429 . S
C276 C274 1.419 . S
C276 C277 1.363 . S
C276 H279 0.929 . S
C277 C276 1.363 . S
C277 C283 1.428 . S
H278 C274 0.930 . S
H279 C276 0.929 . S
S280 N281 1.613 . S
S280 N282 1.610 . S
N281 S280 1.613 . S
N281 C284 1.350 . S
N282 S280 1.610 . S
N282 C283 1.351 . S
C283 C277 1.428 . S
C283 N282 1.351 . S
C283 C284 1.434 . S
C284 C275 1.429 . S
C284 N281 1.350 . S
C284 C283 1.434 . S
C285 C286 1.369 . S
C285 C287 1.419 . S
C285 H289 0.930 . S
C286 C285 1.369 . S
C286 C295 1.429 . S
C287 C285 1.419 . S
C287 C288 1.363 . S
C287 H290 0.929 . S
C288 C287 1.363 . S
C288 C294 1.428 . S
H289 C285 0.930 . S
H290 C287 0.929 . S
S291 N292 1.613 . S
S291 N293 1.610 . S
N292 S291 1.613 . S
N292 C295 1.350 . S
N293 S291 1.610 . S
N293 C294 1.351 . S
C294 C288 1.428 . S
C294 N293 1.351 . S
C294 C295 1.434 . S
C295 C286 1.429 . S
C295 N292 1.350 . S
C295 C294 1.434 . S
C296 C297 1.369 . S
C296 C298 1.419 . S
C296 H300 0.930 . S
C297 C296 1.369 . S
C297 C306 1.429 . S
C298 C296 1.419 . S
C298 C299 1.363 . S
C298 H301 0.929 . S
C299 C298 1.363 . S
C299 C305 1.428 . S
H300 C296 0.930 . S
H301 C298 0.929 . S
S302 N303 1.613 . S
S302 N304 1.610 . S
N303 S302 1.613 . S
N303 C306 1.350 . S
N304 S302 1.610 . S
N304 C305 1.351 . S
C305 C299 1.428 . S
C305 N304 1.351 . S
C305 C306 1.434 . S
C306 C297 1.429 . S
C306 N303 1.350 . S
C306 C305 1.434 . S
C307 C308 1.369 . S
C307 C309 1.419 . S
C307 H311 0.930 . S
C308 C307 1.369 . S
C308 C317 1.429 . S
C309 C307 1.419 . S
C309 C310 1.363 . S
C309 H312 0.929 . S
C310 C309 1.363 . S
C310 C316 1.428 . S
H311 C307 0.930 . S
H312 C309 0.929 . S
S313 N314 1.613 . S
S313 N315 1.610 . S
N314 S313 1.613 . S
N314 C317 1.350 . S
N315 S313 1.610 . S
N315 C316 1.351 . S
C316 C310 1.428 . S
C316 N315 1.351 . S
C316 C317 1.434 . S
C317 C308 1.429 . S
C317 N314 1.350 . S
C317 C316 1.434 . S
C318 C319 1.369 . S
C318 C320 1.419 . S
C318 H322 0.930 . S
C319 C318 1.369 . S
C319 C328 1.429 . S
C320 C318 1.419 . S
C320 C321 1.363 . S
C320 H323 0.929 . S
C321 C320 1.363 . S
C321 C327 1.428 . S
H322 C318 0.930 . S
H323 C320 0.929 . S
S324 N325 1.613 . S
S324 N326 1.610 1_545 S
N325 S324 1.613 . S
N325 C328 1.350 1_545 S
N326 S324 1.610 1_565 S
N326 C327 1.351 . S
C327 C321 1.428 . S
C327 N326 1.351 . S
C327 C328 1.434 . S
C328 C319 1.429 . S
C328 N325 1.350 1_565 S
C328 C327 1.434 . S
C329 C330 1.369 . S
C329 C331 1.419 . S
C329 H333 0.930 . S
C330 C329 1.369 . S
C330 C339 1.429 . S
C331 C329 1.419 . S
C331 C332 1.363 . S
C331 H334 0.929 . S
C332 C331 1.363 . S
C332 C338 1.428 . S
H333 C329 0.930 . S
H334 C331 0.929 . S
S335 N336 1.613 . S
S335 N337 1.610 . S
N336 S335 1.613 . S
N336 C339 1.350 . S
N337 S335 1.610 . S
N337 C338 1.351 . S
C338 C332 1.428 . S
C338 N337 1.351 . S
C338 C339 1.434 . S
C339 C330 1.429 . S
C339 N336 1.350 . S
C339 C338 1.434 . S
C340 C341 1.369 . S
C340 C342 1.419 . S
C340 H344 0.930 . S
C341 C340 1.369 . S
C341 C350 1.429 . S
C342 C340 1.419 . S
C342 C343 1.363 . S
C342 H345 0.929 . S
C343 C342 1.363 . S
C343 C349 1.428 . S
H344 C340 0.930 . S
H345 C342 0.929 . S
S346 N347 1.613 . S
S346 N348 1.610 . S
N347 S346 1.613 . S
N347 C350 1.350 . S
N348 S346 1.610 . S
N348 C349 1.351 . S
C349 C343 1.428 . S
C349 N348 1.351 . S
C349 C350 1.434 . S
C350 C341 1.429 . S
C350 N347 1.350 . S
C350 C349 1.434 . S
C351 C352 1.369 . S
C351 C353 1.419 . S
C351 H355 0.930 . S
C352 C351 1.369 . S
C352 C361 1.429 . S
C353 C351 1.419 . S
C353 C354 1.363 . S
C353 H356 0.929 . S
C354 C353 1.363 . S
C354 C360 1.428 . S
H355 C351 0.930 . S
H356 C353 0.929 . S
S357 N358 1.613 . S
S357 N359 1.610 . S
N358 S357 1.613 . S
N358 C361 1.350 . S
N359 S357 1.610 . S
N359 C360 1.351 . S
C360 C354 1.428 . S
C360 N359 1.351 . S
C360 C361 1.434 . S
C361 C352 1.429 . S
C361 N358 1.350 . S
C361 C360 1.434 . S
C362 C363 1.369 . S
C362 C364 1.419 . S
C362 H366 0.930 . S
C363 C362 1.369 . S
C363 C372 1.429 . S
C364 C362 1.419 . S
C364 C365 1.363 . S
C364 H367 0.929 . S
C365 C364 1.363 . S
C365 C371 1.428 . S
H366 C362 0.930 . S
H367 C364 0.929 . S
S368 N369 1.613 . S
S368 N370 1.610 . S
N369 S368 1.613 . S
N369 C372 1.350 . S
N370 S368 1.610 . S
N370 C371 1.351 . S
C371 C365 1.428 . S
C371 N370 1.351 . S
C371 C372 1.434 . S
C372 C363 1.429 . S
C372 N369 1.350 . S
C372 C371 1.434 . S
C373 C374 1.369 . S
C373 C375 1.419 . S
C373 H377 0.930 . S
C374 C373 1.369 . S
C374 C383 1.429 . S
C375 C373 1.419 . S
C375 C376 1.363 . S
C375 H378 0.929 . S
C376 C375 1.363 . S
C376 C382 1.428 . S
H377 C373 0.930 . S
H378 C375 0.929 . S
S379 N380 1.613 . S
S379 N381 1.610 . S
N380 S379 1.613 . S
N380 C383 1.350 . S
N381 S379 1.610 . S
N381 C382 1.351 . S
C382 C376 1.428 . S
C382 N381 1.351 . S
C382 C383 1.434 . S
C383 C374 1.429 . S
C383 N380 1.350 . S
C383 C382 1.434 . S
C384 C385 1.369 . S
C384 C386 1.419 . S
C384 H388 0.930 1_455 S
C385 C384 1.369 . S
C385 C394 1.429 . S
C386 C384 1.419 . S
C386 C387 1.363 . S
C386 H389 0.929 1_455 S
C387 C386 1.363 . S
C387 C393 1.428 . S
H388 C384 0.930 1_655 S
H389 C386 0.929 1_655 S
S390 N391 1.613 . S
S390 N392 1.610 . S
N391 S390 1.613 . S
N391 C394 1.350 . S
N392 S390 1.610 . S
N392 C393 1.351 . S
C393 C387 1.428 . S
C393 N392 1.351 . S
C393 C394 1.434 . S
C394 C385 1.429 . S
C394 N391 1.350 . S
C394 C393 1.434 . S
C395 C396 1.369 . S
C395 C397 1.419 . S
C395 H399 0.930 1_545 S
C396 C395 1.369 . S
C396 C405 1.429 . S
C397 C395 1.419 . S
C397 C398 1.363 . S
C397 H400 0.929 1_545 S
C398 C397 1.363 . S
C398 C404 1.428 . S
H399 C395 0.930 1_565 S
H400 C397 0.929 1_565 S
S401 N402 1.613 . S
S401 N403 1.610 . S
N402 S401 1.613 . S
N402 C405 1.350 . S
N403 S401 1.610 . S
N403 C404 1.351 . S
C404 C398 1.428 . S
C404 N403 1.351 . S
C404 C405 1.434 . S
C405 C396 1.429 . S
C405 N402 1.350 . S
C405 C404 1.434 . S
C406 C407 1.369 . S
C406 C408 1.419 . S
C406 H410 0.930 . S
C407 C406 1.369 . S
C407 C416 1.429 . S
C408 C406 1.419 . S
C408 C409 1.363 . S
C408 H411 0.929 . S
C409 C408 1.363 . S
C409 C415 1.428 . S
H410 C406 0.930 . S
H411 C408 0.929 . S
S412 N413 1.613 . S
S412 N414 1.610 . S
N413 S412 1.613 . S
N413 C416 1.350 . S
N414 S412 1.610 . S
N414 C415 1.351 . S
C415 C409 1.428 . S
C415 N414 1.351 . S
C415 C416 1.434 . S
C416 C407 1.429 . S
C416 N413 1.350 . S
C416 C415 1.434 . S
C417 C418 1.369 . S
C417 C419 1.419 . S
C417 H421 0.930 . S
C418 C417 1.369 . S
C418 C427 1.429 . S
C419 C417 1.419 . S
C419 C420 1.363 . S
C419 H422 0.929 . S
C420 C419 1.363 . S
C420 C426 1.428 . S
H421 C417 0.930 . S
H422 C419 0.929 . S
S423 N424 1.613 . S
S423 N425 1.610 . S
N424 S423 1.613 . S
N424 C427 1.350 . S
N425 S423 1.610 . S
N425 C426 1.351 . S
C426 C420 1.428 . S
C426 N425 1.351 . S
C426 C427 1.434 . S
C427 C418 1.429 . S
C427 N424 1.350 . S
C427 C426 1.434 . S
C428 C429 1.369 . S
C428 C430 1.419 . S
C428 H432 0.930 . S
C429 C428 1.369 . S
C429 C438 1.429 . S
C430 C428 1.419 . S
C430 C431 1.363 . S
C430 H433 0.929 . S
C431 C430 1.363 . S
C431 C437 1.428 . S
H432 C428 0.930 . S
H433 C430 0.929 . S
S434 N435 1.613 . S
S434 N436 1.610 . S
N435 S434 1.613 . S
N435 C438 1.350 . S
N436 S434 1.610 . S
N436 C437 1.351 . S
C437 C431 1.428 . S
C437 N436 1.351 . S
C437 C438 1.434 . S
C438 C429 1.429 . S
C438 N435 1.350 . S
C438 C437 1.434 . S
C439 C440 1.369 . S
C439 C441 1.419 . S
C439 H443 0.930 1_565 S
C440 C439 1.369 . S
C440 C449 1.429 . S
C441 C439 1.419 . S
C441 C442 1.363 . S
C441 H444 0.929 1_565 S
C442 C441 1.363 . S
C442 C448 1.428 . S
H443 C439 0.930 1_545 S
H444 C441 0.929 1_545 S
S445 N446 1.613 . S
S445 N447 1.610 . S
N446 S445 1.613 . S
N446 C449 1.350 . S
N447 S445 1.610 . S
N447 C448 1.351 . S
C448 C442 1.428 . S
C448 N447 1.351 . S
C448 C449 1.434 . S
C449 C440 1.429 . S
C449 N446 1.350 . S
C449 C448 1.434 . S
C450 C451 1.369 . S
C450 C452 1.419 . S
C450 H454 0.930 . S
C451 C450 1.369 . S
C451 C460 1.429 . S
C452 C450 1.419 . S
C452 C453 1.363 . S
C452 H455 0.929 . S
C453 C452 1.363 . S
C453 C459 1.428 . S
H454 C450 0.930 . S
H455 C452 0.929 . S
S456 N457 1.613 . S
S456 N458 1.610 . S
N457 S456 1.613 . S
N457 C460 1.350 . S
N458 S456 1.610 . S
N458 C459 1.351 . S
C459 C453 1.428 . S
C459 N458 1.351 . S
C459 C460 1.434 . S
C460 C451 1.429 . S
C460 N457 1.350 . S
C460 C459 1.434 . S
C461 C462 1.369 . S
C461 C463 1.419 . S
C461 H465 0.930 . S
C462 C461 1.369 . S
C462 C471 1.429 . S
C463 C461 1.419 . S
C463 C464 1.363 . S
C463 H466 0.929 . S
C464 C463 1.363 . S
C464 C470 1.428 . S
H465 C461 0.930 . S
H466 C463 0.929 . S
S467 N468 1.613 . S
S467 N469 1.610 . S
N468 S467 1.613 . S
N468 C471 1.350 . S
N469 S467 1.610 . S
N469 C470 1.351 . S
C470 C464 1.428 . S
C470 N469 1.351 . S
C470 C471 1.434 . S
C471 C462 1.429 . S
C471 N468 1.350 . S
C471 C470 1.434 . S
C472 C473 1.369 1_655 S
C472 C474 1.419 . S
C472 H476 0.930 . S
C473 C472 1.369 1_455 S
C473 C482 1.429 1_554 S
C474 C472 1.419 . S
C474 C475 1.363 1_554 S
C474 H477 0.929 . S
C475 C474 1.363 1_556 S
C475 C481 1.428 1_655 S
H476 C472 0.930 . S
H477 C474 0.929 . S
S478 N479 1.613 . S
S478 N480 1.610 . S
N479 S478 1.613 . S
N479 C482 1.350 . S
N480 S478 1.610 . S
N480 C481 1.351 . S
C481 C475 1.428 1_455 S
C481 N480 1.351 . S
C481 C482 1.434 . S
C482 C473 1.429 1_556 S
C482 N479 1.350 . S
C482 C481 1.434 . S
C483 C484 1.369 1_545 S
C483 C485 1.419 1_456 S
C483 H487 0.930 . S
C484 C483 1.369 1_565 S
C484 C493 1.429 . S
C485 C483 1.419 1_654 S
C485 C486 1.363 . S
C485 H488 0.929 . S
C486 C485 1.363 . S
C486 C492 1.428 1_545 S
H487 C483 0.930 . S
H488 C485 0.929 . S
S489 N490 1.613 1_654 S
S489 N491 1.610 . S
N490 S489 1.613 1_456 S
N490 C493 1.350 . S
N491 S489 1.610 . S
N491 C492 1.351 . S
C492 C486 1.428 1_565 S
C492 N491 1.351 . S
C492 C493 1.434 1_654 S
C493 C484 1.429 . S
C493 N490 1.350 . S
C493 C492 1.434 1_456 S
C494 C495 1.369 1_556 S
C494 C496 1.419 . S
C494 H498 0.930 . S
C495 C494 1.369 1_554 S
C495 C504 1.429 1_565 S
C496 C494 1.419 . S
C496 C497 1.363 1_565 S
C496 H499 0.929 . S
C497 C496 1.363 1_545 S
C497 C503 1.428 1_556 S
H498 C494 0.930 . S
H499 C496 0.929 . S
S500 N501 1.613 . S
S500 N502 1.610 . S
N501 S500 1.613 . S
N501 C504 1.350 . S
N502 S500 1.610 . S
N502 C503 1.351 . S
C503 C497 1.428 1_554 S
C503 N502 1.351 . S
C503 C504 1.434 . S
C504 C495 1.429 1_545 S
C504 N501 1.350 . S
C504 C503 1.434 . S
C505 C506 1.369 1_554 S
C505 C507 1.419 . S
C505 H509 0.930 . S
C506 C505 1.369 1_556 S
C506 C515 1.429 . S
C507 C505 1.419 . S
C507 C508 1.363 . S
C507 H510 0.929 . S
C508 C507 1.363 . S
C508 C514 1.428 1_554 S
H509 C505 0.930 . S
H510 C507 0.929 . S
S511 N512 1.613 . S
S511 N513 1.610 . S
N512 S511 1.613 . S
N512 C515 1.350 . S
N513 S511 1.610 . S
N513 C514 1.351 . S
C514 C508 1.428 1_556 S
C514 N513 1.351 . S
C514 C515 1.434 . S
C515 C506 1.429 . S
C515 N512 1.350 . S
C515 C514 1.434 . S
C516 C517 1.369 . S
C516 C518 1.419 1_465 S
C516 H520 0.930 . S
C517 C516 1.369 . S
C517 C526 1.429 . S
C518 C516 1.419 1_645 S
C518 C519 1.363 . S
C518 H521 0.929 . S
C519 C518 1.363 . S
C519 C525 1.420 1_545 S
H520 C516 0.930 . S
H521 C518 0.929 . S
S522 N523 1.613 . S
S522 N524 1.610 1_455 S
N523 S522 1.613 . S
N523 C526 1.350 . S
N524 S522 1.610 1_655 S
N524 C525 1.352 . S
C525 C519 1.420 1_565 S
C525 N524 1.352 . S
C525 C526 1.442 1_655 S
C526 C517 1.429 . S
C526 N523 1.350 . S
C526 C525 1.442 1_455 S
C527 C528 1.369 1_565 S
C527 C529 1.419 . S
C527 H531 0.930 . S
C528 C527 1.369 1_545 S
C528 C537 1.429 . S
C529 C527 1.419 . S
C529 C530 1.363 . S
C529 H532 0.929 . S
C530 C529 1.363 . S
C530 C536 1.428 1_565 S
H531 C527 0.930 . S
H532 C529 0.929 . S
S533 N534 1.613 . S
S533 N535 1.610 . S
N534 S533 1.613 . S
N534 C537 1.350 . S
N535 S533 1.610 . S
N535 C536 1.351 . S
C536 C530 1.428 1_545 S
C536 N535 1.351 . S
C536 C537 1.434 . S
C537 C528 1.429 . S
C537 N534 1.350 . S
C537 C536 1.434 . S
C538 C539 1.369 . S
C538 C540 1.419 . S
C538 H542 0.930 . S
C539 C538 1.369 . S
C539 C548 1.429 . S
C540 C538 1.419 . S
C540 C541 1.363 . S
C540 H543 0.929 . S
C541 C540 1.363 . S
C541 C547 1.428 . S
H542 C538 0.930 . S
H543 C540 0.929 . S
S544 N545 1.613 . S
S544 N546 1.610 . S
N545 S544 1.613 . S
N545 C548 1.350 . S
N546 S544 1.610 . S
N546 C547 1.351 . S
C547 C541 1.428 . S
C547 N546 1.351 . S
C547 C548 1.434 . S
C548 C539 1.429 . S
C548 N545 1.350 . S
C548 C547 1.434 . S
C549 C550 1.361 1_455 S
C549 C551 1.426 . S
C549 H553 0.931 . S
C550 C549 1.361 1_655 S
C550 C559 1.429 . S
C551 C549 1.426 . S
C551 C552 1.363 . S
C551 H554 0.929 . S
C552 C551 1.363 . S
C552 C558 1.428 1_455 S
H553 C549 0.931 . S
H554 C551 0.929 . S
S555 N556 1.613 . S
S555 N557 1.610 . S
N556 S555 1.613 . S
N556 C559 1.350 . S
N557 S555 1.610 . S
N557 C558 1.351 . S
C558 C552 1.428 1_655 S
C558 N557 1.351 . S
C558 C559 1.434 . S
C559 C550 1.429 . S
C559 N556 1.350 . S
C559 C558 1.434 . S
C209 C3 2.183 . S
C211 C29 2.181 . S
C220 C16 2.183 . S
C222 C42 2.181 . S
C231 C55 2.180 . S
C233 C81 2.182 . S
C242 C94 2.183 . S
C244 C68 2.183 . S
C253 C109 2.182 . S
C255 C135 2.183 . S
C264 C148 2.180 . S
C266 C122 2.181 . S
C275 C187 2.180 . S
C277 C161 2.181 . S
C286 C200 2.183 . S
C288 C174 2.183 . S
C297 C92 1.970 . S
C299 C1 1.977 . S
C308 C14 1.970 . S
C310 C53 1.977 . S
C319 C66 1.974 . S
C321 C27 1.974 . S
C330 C40 1.977 . S
C332 C79 1.972 . S
C341 C205 1.970 . S
C343 C114 1.977 . S
C352 C127 1.978 . S
C354 C166 1.971 . S
C363 C140 1.979 . S
C365 C179 1.970 . S
C374 C192 1.970 . S
C376 C153 1.977 . S
C385 C10 0.793 . S
C387 C62 0.793 . S
C396 C23 0.796 . S
C398 C75 0.791 . S
C407 C88 0.797 . S
C409 C36 0.784 . S
C418 C49 0.798 . S
C420 C101 0.786 . S
C429 C157 0.798 . S
C431 C105 0.785 . S
C440 C170 0.798 . S
C442 C118 0.787 . S
C451 C131 0.798 . S
C453 C183 0.786 . S
C462 C144 0.791 . S
C464 C196 0.795 . S
C473 C5 1.792 . S
C475 C107 1.787 . S
C484 C120 1.792 . S
C486 C18 1.788 . S
C495 C31 1.791 . S
C497 C133 1.788 . S
C506 C146 1.786 . S
C508 C44 1.792 . S
C517 C57 1.790 . S
C519 C159 1.789 . S
C528 C70 1.792 . S
C530 C172 1.787 . S
C539 C185 1.790 . S
C541 C83 1.789 . S
C550 C96 1.787 . S
C552 C198 1.791 . S
