# Generated by pormake.
# Topology xfz, (5)-cn, num edge types: 1
# Building blocks:
#     Node 0, Type 0, BuildingBlock: XOMCOT_clean_sbu_1, # of connection points: 5
#     Node 1, Type 0, BuildingBlock: XOMCOT_clean_sbu_1, # of connection points: 5
#     Node 2, Type 0, BuildingBlock: XOMCOT_clean_sbu_1, # of connection points: 5
#     Node 3, Type 0, BuildingBlock: XOMCOT_clean_sbu_1, # of connection points: 5
#     Node 4, Type 0, BuildingBlock: XOMCOT_clean_sbu_1, # of connection points: 5
#     Node 5, Type 0, BuildingBlock: XOMCOT_clean_sbu_1, # of connection points: 5
#     Node 6, Type 0, BuildingBlock: XOMCOT_clean_sbu_1, # of connection points: 5
#     Node 7, Type 0, BuildingBlock: XOMCOT_clean_sbu_1, # of connection points: 5
#     Node 8, Type 0, BuildingBlock: XOMCOT_clean_sbu_1, # of connection points: 5
#     Node 9, Type 0, BuildingBlock: XOMCOT_clean_sbu_1, # of connection points: 5
#     Node 10, Type 0, BuildingBlock: XOMCOT_clean_sbu_1, # of connection points: 5
#     Node 11, Type 0, BuildingBlock: XOMCOT_clean_sbu_1, # of connection points: 5
#     Node 12, Type 0, BuildingBlock: XOMCOT_clean_sbu_1, # of connection points: 5
#     Node 13, Type 0, BuildingBlock: XOMCOT_clean_sbu_1, # of connection points: 5
#     Node 14, Type 0, BuildingBlock: XOMCOT_clean_sbu_1, # of connection points: 5
#     Node 15, Type 0, BuildingBlock: XOMCOT_clean_sbu_1, # of connection points: 5
#     Edge 16, Type (0, 0), BuildingBlock: TEMPAE_clean_linker_10, # of connection points: 2
#     Edge 17, Type (0, 0), BuildingBlock: TEMPAE_clean_linker_10, # of connection points: 2
#     Edge 18, Type (0, 0), BuildingBlock: TEMPAE_clean_linker_10, # of connection points: 2
#     Edge 19, Type (0, 0), BuildingBlock: TEMPAE_clean_linker_10, # of connection points: 2
#     Edge 20, Type (0, 0), BuildingBlock: TEMPAE_clean_linker_10, # of connection points: 2
#     Edge 21, Type (0, 0), BuildingBlock: TEMPAE_clean_linker_10, # of connection points: 2
#     Edge 22, Type (0, 0), BuildingBlock: TEMPAE_clean_linker_10, # of connection points: 2
#     Edge 23, Type (0, 0), BuildingBlock: TEMPAE_clean_linker_10, # of connection points: 2
#     Edge 24, Type (0, 0), BuildingBlock: TEMPAE_clean_linker_10, # of connection points: 2
#     Edge 25, Type (0, 0), BuildingBlock: TEMPAE_clean_linker_10, # of connection points: 2
#     Edge 26, Type (0, 0), BuildingBlock: TEMPAE_clean_linker_10, # of connection points: 2
#     Edge 27, Type (0, 0), BuildingBlock: TEMPAE_clean_linker_10, # of connection points: 2
#     Edge 28, Type (0, 0), BuildingBlock: TEMPAE_clean_linker_10, # of connection points: 2
#     Edge 29, Type (0, 0), BuildingBlock: TEMPAE_clean_linker_10, # of connection points: 2
#     Edge 30, Type (0, 0), BuildingBlock: TEMPAE_clean_linker_10, # of connection points: 2
#     Edge 31, Type (0, 0), BuildingBlock: TEMPAE_clean_linker_10, # of connection points: 2
#     Edge 32, Type (0, 0), BuildingBlock: TEMPAE_clean_linker_10, # of connection points: 2
#     Edge 33, Type (0, 0), BuildingBlock: TEMPAE_clean_linker_10, # of connection points: 2
#     Edge 34, Type (0, 0), BuildingBlock: TEMPAE_clean_linker_10, # of connection points: 2
#     Edge 35, Type (0, 0), BuildingBlock: TEMPAE_clean_linker_10, # of connection points: 2
#     Edge 36, Type (0, 0), BuildingBlock: TEMPAE_clean_linker_10, # of connection points: 2
#     Edge 37, Type (0, 0), BuildingBlock: TEMPAE_clean_linker_10, # of connection points: 2
#     Edge 38, Type (0, 0), BuildingBlock: TEMPAE_clean_linker_10, # of connection points: 2
#     Edge 39, Type (0, 0), BuildingBlock: TEMPAE_clean_linker_10, # of connection points: 2
#     Edge 40, Type (0, 0), BuildingBlock: TEMPAE_clean_linker_10, # of connection points: 2
#     Edge 41, Type (0, 0), BuildingBlock: TEMPAE_clean_linker_10, # of connection points: 2
#     Edge 42, Type (0, 0), BuildingBlock: TEMPAE_clean_linker_10, # of connection points: 2
#     Edge 43, Type (0, 0), BuildingBlock: TEMPAE_clean_linker_10, # of connection points: 2
#     Edge 44, Type (0, 0), BuildingBlock: TEMPAE_clean_linker_10, # of connection points: 2
#     Edge 45, Type (0, 0), BuildingBlock: TEMPAE_clean_linker_10, # of connection points: 2
#     Edge 46, Type (0, 0), BuildingBlock: TEMPAE_clean_linker_10, # of connection points: 2
#     Edge 47, Type (0, 0), BuildingBlock: TEMPAE_clean_linker_10, # of connection points: 2
#     Edge 48, Type (0, 0), BuildingBlock: TEMPAE_clean_linker_10, # of connection points: 2
#     Edge 49, Type (0, 0), BuildingBlock: TEMPAE_clean_linker_10, # of connection points: 2
#     Edge 50, Type (0, 0), BuildingBlock: TEMPAE_clean_linker_10, # of connection points: 2
#     Edge 51, Type (0, 0), BuildingBlock: TEMPAE_clean_linker_10, # of connection points: 2
#     Edge 52, Type (0, 0), BuildingBlock: TEMPAE_clean_linker_10, # of connection points: 2
#     Edge 53, Type (0, 0), BuildingBlock: TEMPAE_clean_linker_10, # of connection points: 2
#     Edge 54, Type (0, 0), BuildingBlock: TEMPAE_clean_linker_10, # of connection points: 2
#     Edge 55, Type (0, 0), BuildingBlock: TEMPAE_clean_linker_10, # of connection points: 2
# Relax obj value: 0.582
# Max RMSD: 0.323
# Mean RMSD: 0.323
data_MOF--net-xfz--node1-XOMCOT_clean_sbu_1--edge1-TEMPAE_clean_linker_10
_symmetry_space_group_name_H-M    P1
_symmetry_Int_Tables_number       1
_symmetry_cell_setting            triclinic
loop_
_symmetry_equiv_pos_as_xyz
'x, y, z'
_cell_length_a     38.152442
_cell_length_b     38.160538
_cell_length_c     60.834791
_cell_angle_alpha  90.000686
_cell_angle_beta   90.039654
_cell_angle_gamma 89.996594
loop_
_atom_site_label
_atom_site_type_symbol
_atom_site_fract_x
_atom_site_fract_y
_atom_site_fract_z
_atom_type_partial_charge
C0 C 0.21902 0.39549 0.32524 0.0
C1 C 0.21809 0.37196 0.30814 0.0
N2 N 0.18534 0.35897 0.30679 0.0
N3 N 0.18689 0.39765 0.3343 0.0
C4 C 0.16704 0.37469 0.32298 0.0
H5 H 0.24123 0.41126 0.33017 0.0
Co6 Co 0.17555 0.42865 0.35642 0.0
C7 C 0.1011 0.4172 0.36659 0.0
O8 O 0.10932 0.40659 0.38648 0.0
N9 N 0.16474 0.46027 0.37913 0.0
C10 C 0.14178 0.50438 0.39839 0.0
C11 C 0.14414 0.48911 0.37796 0.0
C12 C 0.17424 0.45851 0.40046 0.0
N13 N 0.16056 0.48477 0.41245 0.0
O14 O 0.17929 0.39008 0.37652 0.0
H15 H 0.13113 0.49826 0.36324 0.0
H16 H 0.19079 0.43842 0.40736 0.0
O17 O 0.12534 0.42196 0.35246 0.0
C18 C 0.21088 0.38606 0.38288 0.0
O19 O 0.23362 0.41097 0.37851 0.0
N20 N 0.17439 0.46505 0.33567 0.0
C21 C 0.17692 0.51609 0.30312 0.0
C22 C 0.15425 0.48754 0.30115 0.0
C23 C 0.15337 0.46231 0.31756 0.0
C24 C 0.19719 0.49241 0.33774 0.0
C25 C 0.1984 0.51879 0.32174 0.0
H26 H 0.13622 0.44011 0.31533 0.0
H27 H 0.21449 0.49371 0.35181 0.0
H28 H 0.13913 0.37145 0.32543 0.0
H29 H 0.23925 0.3662 0.29686 0.0
H30 H 0.12679 0.52747 0.40271 0.0
H31 H 0.13729 0.48473 0.28695 0.0
H32 H 0.21638 0.54055 0.32362 0.0
C33 C 0.45583 0.78493 0.66988 0.0
C34 C 0.43101 0.79408 0.68518 0.0
N35 N 0.41852 0.82598 0.67986 0.0
N36 N 0.45888 0.81091 0.65502 0.0
C37 C 0.43588 0.83567 0.66152 0.0
H38 H 0.47066 0.76078 0.66952 0.0
Co39 Co 0.48702 0.80845 0.63039 0.0
C40 C 0.48227 0.8781 0.60916 0.0
O41 O 0.47584 0.86317 0.59011 0.0
N42 N 0.5158 0.8052 0.60557 0.0
C43 C 0.55627 0.81723 0.58046 0.0
C44 C 0.54557 0.82328 0.60167 0.0
C45 C 0.50954 0.78769 0.58671 0.0
N46 N 0.53332 0.79505 0.57095 0.0
O47 O 0.44535 0.80082 0.61303 0.0
H48 H 0.55747 0.84159 0.61301 0.0
H49 H 0.48703 0.77108 0.58421 0.0
O50 O 0.48482 0.85924 0.62641 0.0
C51 C 0.43797 0.76839 0.61526 0.0
O52 O 0.46128 0.74823 0.62495 0.0
N53 N 0.52632 0.8128 0.64833 0.0
C54 C 0.57924 0.81017 0.67968 0.0
C55 C 0.56086 0.84139 0.67583 0.0
C56 C 0.53411 0.84208 0.66026 0.0
C57 C 0.54456 0.78249 0.65137 0.0
C58 C 0.57118 0.78053 0.66708 0.0
H59 H 0.51873 0.86567 0.65872 0.0
H60 H 0.53735 0.75934 0.64215 0.0
H61 H 0.43157 0.86007 0.65287 0.0
H62 H 0.42337 0.77889 0.69942 0.0
H63 H 0.57773 0.83035 0.57226 0.0
H64 H 0.56574 0.86456 0.68566 0.0
H65 H 0.58467 0.75592 0.66976 0.0
C66 C 0.7758 0.60389 0.3148 0.0
C67 C 0.78544 0.62999 0.30045 0.0
N68 N 0.82007 0.63585 0.30288 0.0
N69 N 0.80422 0.59333 0.32614 0.0
C70 C 0.83067 0.61357 0.31879 0.0
H71 H 0.74996 0.59255 0.31646 0.0
Co72 Co 0.80397 0.55788 0.3468 0.0
C73 C 0.87655 0.55748 0.36425 0.0
O74 O 0.86561 0.56698 0.38383 0.0
N75 N 0.80313 0.52201 0.36788 0.0
C76 C 0.81892 0.47594 0.38793 0.0
C77 C 0.82263 0.49248 0.36799 0.0
C78 C 0.78696 0.52209 0.38756 0.0
N79 N 0.79671 0.49491 0.40038 0.0
O80 O 0.80095 0.59353 0.36894 0.0
H81 H 0.84024 0.48464 0.35497 0.0
H82 H 0.76954 0.54254 0.39289 0.0
O83 O 0.85493 0.55636 0.34827 0.0
C84 C 0.76901 0.60187 0.37202 0.0
O85 O 0.74452 0.58264 0.36278 0.0
N86 N 0.80498 0.52476 0.32419 0.0
C87 C 0.80285 0.47925 0.2887 0.0
C88 C 0.8301 0.50341 0.29075 0.0
C89 C 0.83072 0.52596 0.30861 0.0
C90 C 0.77789 0.5016 0.32232 0.0
C91 C 0.77658 0.478 0.30472 0.0
H92 H 0.85159 0.54499 0.30953 0.0
H93 H 0.75717 0.50161 0.33446 0.0
H94 H 0.8574 0.61135 0.32455 0.0
H95 H 0.76868 0.64225 0.28833 0.0
H96 H 0.83365 0.45329 0.39334 0.0
H97 H 0.85074 0.50488 0.27855 0.0
H98 H 0.75513 0.45953 0.30342 0.0
C99 C 0.63301 0.21813 0.65865 0.0
C100 C 0.65681 0.2051 0.67341 0.0
N101 N 0.65086 0.17052 0.67573 0.0
N102 N 0.61219 0.19197 0.65156 0.0
C103 C 0.62379 0.1631 0.66212 0.0
H104 H 0.63027 0.24526 0.6538 0.0
Co105 Co 0.5758 0.2018 0.63266 0.0
C106 C 0.54078 0.13591 0.61986 0.0
O107 O 0.51163 0.15379 0.6225 0.0
N108 N 0.53971 0.21435 0.61291 0.0
C109 C 0.49697 0.24136 0.5945 0.0
C110 C 0.51359 0.23823 0.61452 0.0
C111 C 0.53856 0.2038 0.59172 0.0
N112 N 0.51267 0.2194 0.58034 0.0
O113 O 0.61025 0.21039 0.61006 0.0
H114 H 0.50763 0.25375 0.62882 0.0
H115 H 0.55722 0.18576 0.58453 0.0
O116 O 0.57042 0.15108 0.62367 0.0
C117 C 0.61381 0.24269 0.60508 0.0
O118 O 0.59097 0.26531 0.61281 0.0
N119 N 0.5442 0.1961 0.65637 0.0
C120 C 0.50173 0.19305 0.69358 0.0
C121 C 0.5162 0.16255 0.68472 0.0
C122 C 0.53819 0.16473 0.66659 0.0
C123 C 0.53266 0.22633 0.66592 0.0
C124 C 0.51085 0.22544 0.68442 0.0
H125 H 0.55082 0.14098 0.6613 0.0
H126 H 0.54097 0.25134 0.65941 0.0
H127 H 0.61224 0.13739 0.66028 0.0
H128 H 0.67575 0.22028 0.68264 0.0
H129 H 0.47551 0.25881 0.59054 0.0
H130 H 0.51122 0.1372 0.69212 0.0
H131 H 0.50118 0.24969 0.6914 0.0
C132 C 0.23717 0.61327 0.65894 0.0
C133 C 0.22545 0.63415 0.67578 0.0
N134 N 0.19079 0.62872 0.67811 0.0
N135 N 0.21006 0.59486 0.65071 0.0
C136 C 0.18199 0.60508 0.66253 0.0
H137 H 0.26394 0.61102 0.65326 0.0
Co138 Co 0.21637 0.56298 0.6284 0.0
C139 C 0.14877 0.52785 0.61974 0.0
O140 O 0.16786 0.49929 0.6181 0.0
N141 N 0.22482 0.53167 0.60505 0.0
C142 C 0.24704 0.49367 0.58101 0.0
C143 C 0.24903 0.50615 0.60219 0.0
C144 C 0.20903 0.53449 0.58525 0.0
N145 N 0.22172 0.51152 0.57051 0.0
O146 O 0.21922 0.6019 0.60825 0.0
H147 H 0.26809 0.49773 0.61411 0.0
H148 H 0.18916 0.55386 0.58152 0.0
O149 O 0.1641 0.55741 0.62355 0.0
C150 C 0.2501 0.60725 0.60092 0.0
O151 O 0.27457 0.58401 0.6052 0.0
N152 N 0.21645 0.52664 0.64966 0.0
C153 C 0.2193 0.47388 0.6812 0.0
C154 C 0.18829 0.49243 0.67755 0.0
C155 C 0.1877 0.51935 0.66227 0.0
C156 C 0.24788 0.51167 0.65489 0.0
C157 C 0.24986 0.48454 0.67038 0.0
H158 H 0.16383 0.53419 0.66081 0.0
H159 H 0.27162 0.52106 0.64722 0.0
H160 H 0.15575 0.59513 0.66003 0.0
H161 H 0.24141 0.65084 0.68612 0.0
H162 H 0.26324 0.47341 0.57381 0.0
H163 H 0.16464 0.48643 0.68668 0.0
H164 H 0.27474 0.47195 0.67371 0.0
C165 C 0.54482 0.77205 0.30495 0.0
C166 C 0.56563 0.77542 0.28662 0.0
N167 N 0.58862 0.80144 0.2904 0.0
N168 N 0.55417 0.79657 0.31982 0.0
C169 C 0.58118 0.81388 0.31058 0.0
H170 H 0.52343 0.75376 0.30706 0.0
Co171 Co 0.53269 0.80396 0.34671 0.0
C172 C 0.55087 0.87722 0.35869 0.0
O173 O 0.56587 0.86671 0.37699 0.0
N174 N 0.51101 0.81088 0.3738 0.0
C175 C 0.47929 0.83398 0.40075 0.0
C176 C 0.48599 0.83475 0.37859 0.0
C177 C 0.51866 0.79557 0.3932 0.0
N178 N 0.5 0.80941 0.40989 0.0
O179 O 0.57719 0.79615 0.36077 0.0
H180 H 0.47433 0.85255 0.36684 0.0
H181 H 0.53882 0.77596 0.39533 0.0
O182 O 0.54017 0.8545 0.34484 0.0
C183 C 0.58322 0.76331 0.36064 0.0
O184 O 0.55822 0.74228 0.35375 0.0
N185 N 0.48965 0.80942 0.33232 0.0
C186 C 0.42636 0.81689 0.3104 0.0
C187 C 0.45482 0.83832 0.30517 0.0
C188 C 0.4864 0.83379 0.31603 0.0
C189 C 0.46255 0.78737 0.33717 0.0
C190 C 0.43033 0.79067 0.32629 0.0
H191 H 0.50852 0.84945 0.31094 0.0
H192 H 0.46596 0.76725 0.34951 0.0
H193 H 0.59408 0.83618 0.31804 0.0
H194 H 0.56338 0.76079 0.27143 0.0
H195 H 0.46125 0.8508 0.40953 0.0
H196 H 0.45284 0.85802 0.29238 0.0
H197 H 0.40886 0.77322 0.33028 0.0
C198 C 0.7883 0.47836 0.66885 0.0
C199 C 0.79032 0.45769 0.6873 0.0
N200 N 0.81406 0.43241 0.68343 0.0
N201 N 0.81141 0.46658 0.65376 0.0
C202 C 0.82653 0.43833 0.66306 0.0
H203 H 0.77117 0.50064 0.6666 0.0
Co204 Co 0.81794 0.48475 0.62586 0.0
C205 C 0.89069 0.46627 0.61362 0.0
O206 O 0.87915 0.45193 0.59536 0.0
N207 N 0.82388 0.50331 0.59789 0.0
C208 C 0.84541 0.53275 0.5695 0.0
C209 C 0.84635 0.52895 0.59192 0.0
C210 C 0.8092 0.49237 0.57893 0.0
N211 N 0.82218 0.50955 0.56139 0.0
O212 O 0.81032 0.43846 0.61389 0.0
H213 H 0.86337 0.54303 0.60305 0.0
H214 H 0.7906 0.47106 0.57784 0.0
O215 O 0.8687 0.47753 0.62777 0.0
C216 C 0.7777 0.43138 0.61508 0.0
O217 O 0.75625 0.45609 0.62183 0.0
N218 N 0.8225 0.52947 0.63811 0.0
C219 C 0.81913 0.59149 0.66194 0.0
C220 C 0.84822 0.56934 0.6638 0.0
C221 C 0.84915 0.53816 0.65206 0.0
C222 C 0.79469 0.55147 0.63524 0.0
C223 C 0.79225 0.58265 0.64725 0.0
H224 H 0.87015 0.52015 0.65549 0.0
H225 H 0.77334 0.5437 0.62459 0.0
H226 H 0.84674 0.4228 0.65524 0.0
H227 H 0.77575 0.461 0.70242 0.0
H228 H 0.86109 0.55075 0.55988 0.0
H229 H 0.86892 0.57475 0.67553 0.0
H230 H 0.76914 0.59895 0.64572 0.0
C231 C 0.44066 0.23655 0.32055 0.0
C232 C 0.42085 0.23719 0.30171 0.0
N233 N 0.40398 0.2063 0.29997 0.0
N234 N 0.43636 0.20543 0.33063 0.0
C235 C 0.41376 0.18753 0.31781 0.0
H236 H 0.45762 0.25725 0.32643 0.0
Co237 Co 0.45828 0.19391 0.35677 0.0
C238 C 0.44215 0.1191 0.36454 0.0
O239 O 0.42709 0.12692 0.38332 0.0
N240 N 0.48072 0.18321 0.38323 0.0
C241 C 0.51731 0.16054 0.40789 0.0
C242 C 0.50774 0.16074 0.38612 0.0
C243 C 0.47417 0.1961 0.40347 0.0
N244 N 0.49604 0.18269 0.41871 0.0
O245 O 0.41367 0.19828 0.37132 0.0
H246 H 0.51966 0.14533 0.3732 0.0
H247 H 0.45407 0.21521 0.40706 0.0
O248 O 0.45213 0.14373 0.35181 0.0
C249 C 0.40758 0.23084 0.37402 0.0
O250 O 0.43316 0.25307 0.37011 0.0
N251 N 0.50113 0.19231 0.34184 0.0
C252 C 0.5631 0.19393 0.31799 0.0
C253 C 0.53661 0.17019 0.31256 0.0
C254 C 0.50555 0.17026 0.32439 0.0
C255 C 0.52644 0.21612 0.34719 0.0
C256 C 0.55789 0.21746 0.33533 0.0
H257 H 0.48462 0.15334 0.31895 0.0
H258 H 0.52197 0.23438 0.36049 0.0
H259 H 0.40485 0.16125 0.32143 0.0
H260 H 0.42003 0.25824 0.2898 0.0
H261 H 0.53786 0.14491 0.41529 0.0
H262 H 0.53946 0.15248 0.29874 0.0
H263 H 0.57773 0.2366 0.33957 0.0
C264 C 0.73674 0.90309 0.8333 0.0
C265 C 0.73233 0.87687 0.81809 0.0
N266 N 0.69804 0.86826 0.8174 0.0
N267 N 0.7054 0.91125 0.84204 0.0
C268 C 0.6825 0.88892 0.83261 0.0
H269 H 0.76093 0.91664 0.83698 0.0
Co270 Co 0.69886 0.94739 0.86199 0.0
C271 C 0.62344 0.96539 0.84999 0.0
O272 O 0.63262 0.99221 0.83786 0.0
N273 N 0.69332 0.98313 0.88325 0.0
C274 C 0.67413 0.02792 0.90346 0.0
C275 C 0.6733 0.01237 0.88306 0.0
C276 C 0.70678 0.98234 0.90377 0.0
N277 N 0.69501 0.00866 0.91658 0.0
O278 O 0.69665 0.91177 0.88426 0.0
H279 H 0.65843 0.02182 0.86925 0.0
H280 H 0.72447 0.96243 0.90951 0.0
O281 O 0.64663 0.94602 0.85937 0.0
C282 C 0.72717 0.90191 0.89014 0.0
O283 O 0.75424 0.92069 0.88382 0.0
N284 N 0.7042 0.98083 0.83887 0.0
C285 C 0.71703 0.02616 0.80372 0.0
C286 C 0.69771 0.99551 0.80066 0.0
C287 C 0.69181 0.97324 0.81827 0.0
C288 C 0.72492 0.0097 0.84185 0.0
C289 C 0.73084 0.03335 0.8246 0.0
H290 H 0.67547 0.9507 0.81536 0.0
H291 H 0.73706 0.01458 0.85762 0.0
H292 H 0.65468 0.88933 0.83596 0.0
H293 H 0.75244 0.86696 0.80721 0.0
H294 H 0.65915 0.05065 0.90842 0.0
H295 H 0.68614 0.9893 0.78486 0.0
H296 H 0.74632 0.0567 0.82744 0.0
C297 C 0.9068 0.29334 0.14524 0.0
C298 C 0.88275 0.30496 0.16028 0.0
N299 N 0.88853 0.33932 0.16374 0.0
N300 N 0.92745 0.32024 0.13912 0.0
C301 C 0.91586 0.34803 0.15071 0.0
H302 H 0.90919 0.26687 0.13905 0.0
Co303 Co 0.96169 0.3134 0.11847 0.0
C304 C 0.9942 0.38174 0.10707 0.0
O305 O 0.02408 0.36481 0.10554 0.0
N306 N 0.99566 0.30388 0.09697 0.0
C307 C 0.03613 0.27808 0.07618 0.0
C308 C 0.02288 0.28116 0.09712 0.0
C309 C 0.99316 0.31433 0.07583 0.0
N310 N 0.01727 0.29899 0.0629 0.0
O311 O 0.92489 0.30912 0.09691 0.0
H312 H 0.03153 0.26596 0.11102 0.0
H313 H 0.97249 0.33118 0.06975 0.0
O314 O 0.96621 0.36502 0.1126 0.0
C315 C 0.91922 0.27841 0.08943 0.0
O316 O 0.94273 0.25392 0.09305 0.0
N317 N 0.99537 0.31494 0.14103 0.0
C318 C 0.03715 0.30998 0.17863 0.0
C319 C 0.02638 0.34267 0.17057 0.0
C320 C 1.00462 0.34452 0.15229 0.0
C321 C 1.00458 0.28285 0.14904 0.0
C322 C 0.02596 0.27971 0.16761 0.0
H323 H 0.99406 0.3698 0.14816 0.0
H324 H 0.99437 0.25946 0.1413 0.0
H325 H 0.92706 0.37401 0.14961 0.0
H326 H 0.86316 0.28917 0.1685 0.0
H327 H 0.05691 0.26067 0.07095 0.0
H328 H 0.03398 0.36682 0.17861 0.0
H329 H 0.03258 0.25387 0.17368 0.0
C330 C 0.29169 0.10071 0.82374 0.0
C331 C 0.30774 0.12482 0.81041 0.0
N332 N 0.3426 0.12319 0.81393 0.0
N333 N 0.31622 0.08376 0.83554 0.0
C334 C 0.34701 0.09817 0.82944 0.0
H335 H 0.2639 0.09529 0.82456 0.0
Co336 Co 0.30372 0.04936 0.85514 0.0
C337 C 0.36763 0.01212 0.8691 0.0
O338 O 0.34848 0.98362 0.8673 0.0
N339 N 0.28875 0.0155 0.87568 0.0
C340 C 0.25868 0.97723 0.896 0.0
C341 C 0.26252 0.99159 0.87535 0.0
C342 C 0.29984 0.01545 0.89675 0.0
N343 N 0.28253 0.99217 0.90925 0.0
O344 O 0.29621 0.08559 0.87663 0.0
H345 H 0.24557 0.9861 0.86162 0.0
H346 H 0.31935 0.0334 0.90311 0.0
O347 O 0.35361 0.04215 0.86493 0.0
C348 C 0.264 0.09153 0.88075 0.0
O349 O 0.24032 0.07018 0.87257 0.0
N350 N 0.30934 0.01583 0.83244 0.0
C351 C 0.31624 0.96928 0.79737 0.0
C352 C 0.34523 0.98774 0.80531 0.0
C353 C 0.34108 0.01147 0.82236 0.0
C354 C 0.28019 1.00087 0.82339 0.0
C355 C 0.28308 0.97681 0.80607 0.0
H356 H 0.36365 0.02669 0.82708 0.0
H357 H 0.2545 0.00836 0.82912 0.0
H358 H 0.37211 0.09016 0.836 0.0
H359 H 0.29476 0.14113 0.79833 0.0
H360 H 0.23927 0.95817 0.90105 0.0
H361 H 0.37097 0.98441 0.79807 0.0
H362 H 0.25977 0.96435 0.79959 0.0
C363 C 0.11147 0.72655 0.16078 0.0
C364 C 0.13062 0.71267 0.17779 0.0
N365 N 0.12146 0.67881 0.18008 0.0
N366 N 0.09051 0.70154 0.15232 0.0
C367 C 0.09719 0.67262 0.16437 0.0
H368 H 0.11236 0.75337 0.15506 0.0
Co369 Co 0.0604 0.71103 0.12943 0.0
C370 C 0.02869 0.6441 0.11437 0.0
O371 O 0.99922 0.66155 0.11205 0.0
N372 N 0.03081 0.72275 0.10579 0.0
C373 C 0.99337 0.74829 0.08268 0.0
C374 C 1.00486 0.74679 0.10412 0.0
C375 C 0.03495 0.71063 0.0851 0.0
N376 N 0.01225 0.72527 0.07091 0.0
O377 O 0.10079 0.7166 0.11068 0.0
H378 H 0.99529 0.76315 0.11723 0.0
H379 H 0.0547 0.69165 0.08044 0.0
O380 O 0.05617 0.65996 0.12168 0.0
C381 C 0.10667 0.74835 0.10523 0.0
O382 O 0.08329 0.77228 0.11034 0.0
N383 N 0.02252 0.70847 0.14926 0.0
C384 C 0.97062 0.71138 0.18146 0.0
C385 C 0.98445 0.6792 0.17466 0.0
C386 C 0.01098 0.67835 0.15904 0.0
C387 C 0.01107 0.74013 0.15682 0.0
C388 C 0.98469 0.74226 0.17271 0.0
H389 H 0.02286 0.65336 0.15566 0.0
H390 H 0.02297 0.76394 0.15071 0.0
H391 H 0.08451 0.6476 0.1618 0.0
H392 H 0.14896 0.72669 0.18814 0.0
H393 H 0.97282 0.76495 0.07625 0.0
H394 H 0.97575 0.65484 0.18202 0.0
H395 H 0.97557 0.76769 0.17818 0.0
C396 C 0.74159 0.08992 0.17604 0.0
C397 C 0.73761 0.11203 0.19367 0.0
N398 N 0.70531 0.12627 0.19269 0.0
N399 N 0.71198 0.09015 0.16399 0.0
C400 C 0.69046 0.11277 0.17435 0.0
H401 H 0.76408 0.07351 0.1727 0.0
Co402 Co 0.70481 0.06162 0.13977 0.0
C403 C 0.63214 0.07554 0.12503 0.0
O404 O 0.64351 0.08649 0.10584 0.0
N405 N 0.698 0.03256 0.11529 0.0
C406 C 0.67372 0.99373 0.09268 0.0
C407 C 0.67572 1.00507 0.11405 0.0
C408 C 0.70955 0.03703 0.0945 0.0
N409 N 0.69485 0.01405 0.08041 0.0
O410 O 0.71296 0.1017 0.12124 0.0
H411 H 0.66025 0.99515 0.12757 0.0
H412 H 0.72647 0.0582 0.08938 0.0
O413 O 0.65414 0.06898 0.14031 0.0
C414 C 0.74611 0.1054 0.11992 0.0
O415 O 0.76606 0.08034 0.12789 0.0
N416 N 0.69965 0.02337 0.15877 0.0
C417 C 0.69597 0.96856 0.18894 0.0
C418 C 0.67197 0.99635 0.18968 0.0
C419 C 0.67466 0.02371 0.17479 0.0
C420 C 0.72355 0.99684 0.15776 0.0
C421 C 0.72202 0.96887 0.17265 0.0
H422 H 0.65693 0.04555 0.17655 0.0
H423 H 0.744 0.99755 0.14546 0.0
H424 H 0.66402 0.11828 0.16896 0.0
H425 H 0.75626 0.11559 0.20689 0.0
H426 H 0.65699 0.97302 0.08652 0.0
H427 H 0.65106 0.9971 0.20171 0.0
H428 H 0.74131 0.94812 0.17164 0.0
C429 C 0.08567 0.2825 0.80346 0.0
C430 C 0.11213 0.29063 0.78903 0.0
N431 N 0.1246 0.32256 0.79431 0.0
N432 N 0.08154 0.30921 0.81772 0.0
C433 C 0.10565 0.33322 0.8118 0.0
H434 H 0.07021 0.25874 0.80354 0.0
Co435 Co 0.05044 0.30917 0.841 0.0
C436 C 0.05495 0.38118 0.85962 0.0
O437 O 0.06581 0.36945 0.87875 0.0
N438 N 0.01908 0.30879 0.86471 0.0
C439 C 0.97699 0.32467 0.88802 0.0
C440 C 0.98852 0.32653 0.86662 0.0
C441 C 0.02518 0.29607 0.88503 0.0
N442 N 1.00046 0.30587 0.89954 0.0
O443 O 0.08989 0.30244 0.86033 0.0
H444 H 0.97672 0.3421 0.85374 0.0
H445 H 0.04842 0.28173 0.88965 0.0
O446 O 0.05172 0.36004 0.84351 0.0
C447 C 0.09631 0.26968 0.85914 0.0
O448 O 0.07345 0.24959 0.84899 0.0
N449 N 0.0134 0.31296 0.82105 0.0
C450 C 0.96246 0.31422 0.78834 0.0
C451 C 0.98732 0.3411 0.79 0.0
C452 C 0.0128 0.33973 0.8062 0.0
C453 C 0.98951 0.28643 0.81981 0.0
C454 C 0.96336 0.28674 0.80364 0.0
H455 H 0.03274 0.35981 0.80627 0.0
H456 H 0.99108 0.26474 0.83123 0.0
H457 H 0.10925 0.35802 0.82013 0.0
H458 H 0.12066 0.27488 0.77523 0.0
H459 H 0.95479 0.33848 0.89494 0.0
H460 H 0.9873 0.36308 0.77872 0.0
H461 H 0.94466 0.26544 0.80279 0.0
C462 C 0.27875 0.96891 0.17275 0.0
C463 C 0.27826 0.94778 0.19101 0.0
N464 N 0.30672 0.92693 0.19034 0.0
N465 N 0.30742 0.96145 0.1607 0.0
C466 C 0.324 0.93576 0.17177 0.0
H467 H 0.25932 0.98833 0.16835 0.0
Co468 Co 0.31665 0.98116 0.13359 0.0
C469 C 0.391 0.96392 0.12374 0.0
O470 O 0.38207 0.94806 0.1054 0.0
N471 N 0.32492 1.00115 0.10617 0.0
C472 C 0.34624 0.03294 0.07863 0.0
C473 C 0.34749 0.02715 0.10094 0.0
C474 C 0.31029 0.99168 0.0869 0.0
N475 N 0.32298 0.01037 0.06992 0.0
O476 O 0.31 0.93554 0.12049 0.0
H477 H 0.36435 0.04049 0.11253 0.0
H478 H 0.29083 0.97131 0.08518 0.0
O479 O 0.36715 0.97444 0.13688 0.0
C480 C 0.27714 0.92946 0.11992 0.0
O481 O 0.25561 0.95498 0.12523 0.0
N482 N 0.32071 0.02506 0.14712 0.0
C483 C 0.32325 0.08829 0.16964 0.0
C484 C 0.34619 0.06109 0.17503 0.0
C485 C 0.34402 0.02949 0.16393 0.0
C486 C 0.29771 0.05112 0.14176 0.0
C487 C 0.29843 0.08321 0.15298 0.0
H488 H 0.36026 0.0081 0.16951 0.0
H489 H 0.27838 0.04672 0.12903 0.0
H490 H 0.34785 0.92334 0.16611 0.0
H491 H 0.25886 0.94819 0.20398 0.0
H492 H 0.36203 0.05139 0.06943 0.0
H493 H 0.36476 0.06377 0.18843 0.0
H494 H 0.27977 0.10356 0.14887 0.0
C495 C 0.91492 0.73165 0.81914 0.0
C496 C 0.89253 0.73214 0.80149 0.0
N497 N 0.87787 0.70017 0.79958 0.0
N498 N 0.9144 0.69957 0.82837 0.0
C499 C 0.89142 0.68095 0.81623 0.0
H500 H 0.9315 0.75298 0.82451 0.0
Co501 Co 0.94224 0.68787 0.85222 0.0
C502 C 0.92747 0.61402 0.86273 0.0
O503 O 0.91601 0.62312 0.88227 0.0
N504 N 0.97067 0.67702 0.87642 0.0
C505 C 0.0117 0.65377 0.89802 0.0
C506 C 0.99845 0.65498 0.877 0.0
C507 C 0.96748 0.68862 0.89726 0.0
N508 N 0.99193 0.67481 0.91066 0.0
O509 O 0.90174 0.69407 0.8707 0.0
H510 H 0.00819 0.64028 0.86309 0.0
H511 H 0.94765 0.70683 0.90272 0.0
O512 O 0.93407 0.63775 0.84853 0.0
C513 C 0.899 0.72698 0.87392 0.0
O514 O 0.9257 0.74695 0.86844 0.0
N515 N 0.98079 0.68481 0.83332 0.0
C516 C 0.03417 0.68751 0.80241 0.0
C517 C 0.00604 0.66452 0.79964 0.0
C518 C 0.97957 0.66358 0.81526 0.0
C519 C 0.00803 0.70751 0.83628 0.0
C520 C 0.03554 0.70887 0.82109 0.0
H521 H 0.95738 0.6467 0.81227 0.0
H522 H 0.00806 0.72501 0.85027 0.0
H523 H 0.88556 0.65361 0.81914 0.0
H524 H 0.88898 0.75373 0.79017 0.0
H525 H 0.03351 0.63804 0.9037 0.0
H526 H 1.00428 0.64777 0.78529 0.0
H527 H 0.05696 0.72709 0.82352 0.0
C528 C 0.91504 0.51295 0.34603 0.0
C529 C 0.91084 0.53929 0.36196 0.0
C530 C 0.94518 0.49181 0.3455 0.0
C531 C 0.97249 0.49778 0.36081 0.0
C532 C 0.96912 0.52536 0.37631 0.0
C533 C 0.93811 0.54537 0.37694 0.0
C534 C 0.94716 0.46218 0.32908 0.0
C535 C 0.9981 0.5334 0.39245 0.0
C536 C 0.03757 0.42577 0.3761 0.0
C537 C 0.06647 0.43416 0.36288 0.0
C538 C 0.00635 0.4454 0.37497 0.0
C539 C 1.00435 0.4749 0.36083 0.0
C540 C 0.03318 0.483 0.34711 0.0
C541 C 0.06355 0.46223 0.34803 0.0
C542 C 0.97579 0.43509 0.38933 0.0
C543 C 0.03266 0.51466 0.33221 0.0
H544 H 0.894 0.50767 0.33454 0.0
H545 H 0.93508 0.56564 0.38929 0.0
H546 H 0.97096 0.46485 0.31877 0.0
H547 H 0.94925 0.43682 0.33792 0.0
H548 H 0.92385 0.46123 0.31814 0.0
H549 H 0.99259 0.55729 0.40229 0.0
H550 H 1.0016 0.511 0.40386 0.0
H551 H 0.02326 0.53709 0.3836 0.0
H552 H 0.03958 0.40419 0.38762 0.0
H553 H 0.08577 0.46931 0.33791 0.0
H554 H 0.95156 0.43293 0.37931 0.0
H555 H 0.97116 0.45564 0.40189 0.0
H556 H 0.98031 0.40977 0.39788 0.0
H557 H 0.00978 0.5135 0.32098 0.0
H558 H 0.05688 0.51689 0.32217 0.0
H559 H 0.02987 0.53879 0.34224 0.0
C560 C 0.56419 0.07363 0.61985 0.0
C561 C 0.53721 0.09765 0.61555 0.0
C562 C 0.55816 0.03715 0.61824 0.0
C563 C 0.52434 0.02454 0.61242 0.0
C564 C 0.49752 0.04881 0.60741 0.0
C565 C 0.50437 0.0848 0.60882 0.0
C566 C 0.58765 0.01208 0.62328 0.0
C567 C 0.46104 0.03682 0.60125 0.0
C568 C 0.50581 0.93238 0.59122 0.0
C569 C 0.49278 0.9156 0.61006 0.0
C570 C 0.51784 0.96722 0.59201 0.0
C571 C 0.51616 0.98615 0.61201 0.0
C572 C 0.50317 0.96927 0.63112 0.0
C573 C 0.49201 0.93415 0.62997 0.0
C574 C 0.53196 0.98392 0.57133 0.0
C575 C 0.50012 0.98863 0.65268 0.0
H576 H 0.58958 0.08324 0.62511 0.0
H577 H 0.48335 0.10301 0.60517 0.0
H578 H 0.58142 0.99705 0.63839 0.0
H579 H 0.59064 0.99288 0.60971 0.0
H580 H 0.613 0.02585 0.62577 0.0
H581 H 0.44316 0.05909 0.59769 0.0
H582 H 0.46207 0.01965 0.58656 0.0
H583 H 0.44966 0.02118 0.61487 0.0
H584 H 0.50716 0.91808 0.57585 0.0
H585 H 0.48214 0.92133 0.64462 0.0
H586 H 0.55796 0.99589 0.57457 0.0
H587 H 0.51418 1.00526 0.56593 0.0
H588 H 0.53461 0.96479 0.55767 0.0
H589 H 0.5258 1.00008 0.65731 0.0
H590 H 0.49102 0.97139 0.66624 0.0
H591 H 0.48132 0.01065 0.6509 0.0
C592 C 0.94154 0.49078 0.63521 0.0
C593 C 0.92844 0.47599 0.61571 0.0
C594 C 0.97637 0.50281 0.6367 0.0
C595 C 0.99895 0.49979 0.6183 0.0
C596 C 0.98593 0.48481 0.5986 0.0
C597 C 0.95098 0.47311 0.59756 0.0
C598 C 0.98916 0.51828 0.65809 0.0
C599 C 0.0091 0.48072 0.57865 0.0
C600 C 0.08626 0.54958 0.61516 0.0
C601 C 0.11008 0.52313 0.62088 0.0
C602 C 0.04981 0.54275 0.61465 0.0
C603 C 0.03704 0.5089 0.62024 0.0
C604 C 0.06103 0.48274 0.62688 0.0
C605 C 0.09698 0.49013 0.62706 0.0
C606 C 0.02503 0.57138 0.60755 0.0
C607 C 0.04885 0.44643 0.63326 0.0
H608 H 0.9246 0.49294 0.64941 0.0
H609 H 0.94122 0.46204 0.58233 0.0
H610 H 0.0097 0.50116 0.66527 0.0
H611 H 1.00126 0.54429 0.65515 0.0
H612 H 0.96772 0.5213 0.67029 0.0
H613 H 0.99455 0.47047 0.5642 0.0
H614 H 0.02095 0.50631 0.57421 0.0
H615 H 0.03091 0.46246 0.58244 0.0
H616 H 0.09614 0.57511 0.61042 0.0
H617 H 0.11502 0.46961 0.63195 0.0
H618 H 1.00408 0.57494 0.61999 0.0
H619 H 0.0121 0.5638 0.59191 0.0
H620 H 0.03867 0.5968 0.60508 0.0
H621 H 0.02887 0.44805 0.64646 0.0
H622 H 0.07071 0.42958 0.63909 0.0
H623 H 0.03633 0.43351 0.61892 0.0
C624 C 0.54931 0.93997 0.37153 0.0
C625 C 0.53808 0.91405 0.35675 0.0
C626 C 0.5339 0.97354 0.37167 0.0
C627 C 0.50617 0.9813 0.35691 0.0
C628 C 0.49532 0.95556 0.34161 0.0
C629 C 0.51157 0.92251 0.34159 0.0
C630 C 0.54676 1.00045 0.38797 0.0
C631 C 0.46565 0.96245 0.32573 0.0
C632 C 0.44353 0.05473 0.37356 0.0
C633 C 0.45557 0.08288 0.36079 0.0
C634 C 0.4592 0.02138 0.3721 0.0
C635 C 0.48803 0.01607 0.35777 0.0
C636 C 0.49981 0.04416 0.34451 0.0
C637 C 0.48332 0.07701 0.34605 0.0
C638 C 0.44535 0.99197 0.38623 0.0
C639 C 0.53065 0.03989 0.32918 0.0
H640 H 0.56971 0.93382 0.38333 0.0
H641 H 0.50235 0.90286 0.33019 0.0
H642 H 0.55392 0.02503 0.37933 0.0
H643 H 0.52549 0.00693 0.39971 0.0
H644 H 0.56986 0.99111 0.39742 0.0
H645 H 0.46078 0.93992 0.31457 0.0
H646 H 0.44123 0.96799 0.33501 0.0
H647 H 0.47146 0.98593 0.31563 0.0
H648 H 0.42219 0.05891 0.38502 0.0
H649 H 0.49328 0.09846 0.33629 0.0
H650 H 0.46585 0.98351 0.39803 0.0
H651 H 0.43877 0.96896 0.37586 0.0
H652 H 0.42165 0.99977 0.39563 0.0
H653 H 0.55441 0.033 0.33879 0.0
H654 H 0.53614 0.06408 0.31962 0.0
H655 H 0.52577 0.01809 0.31752 0.0
C656 C 0.57625 0.97414 0.87748 0.0
C657 C 0.58626 0.96378 0.85631 0.0
C658 C 0.54121 0.98303 0.88214 0.0
C659 C 0.51561 0.98086 0.86529 0.0
C660 C 0.52547 0.96862 0.84417 0.0
C661 C 0.56079 0.96083 0.83986 0.0
C662 C 0.53199 0.99655 0.90472 0.0
C663 C 0.49894 0.96493 0.82588 0.0
C664 C 0.41866 0.9743 0.8784 0.0
C665 C 0.40605 0.00729 0.87181 0.0
C666 C 0.45435 0.96585 0.87717 0.0
C667 C 0.47844 0.99119 0.86954 0.0
C668 C 0.46631 0.02539 0.86429 0.0
C669 C 0.43016 0.03303 0.86539 0.0
C670 C 0.46589 0.92901 0.88271 0.0
C671 C 0.49128 0.0534 0.85649 0.0
H672 H 0.59624 0.97762 0.88998 0.0
H673 H 0.56879 0.95366 0.82335 0.0
H674 H 0.52355 0.02432 0.90349 0.0
H675 H 0.50969 0.98156 0.91166 0.0
H676 H 0.55445 0.99493 0.91631 0.0
H677 H 0.51043 0.95295 0.81088 0.0
H678 H 0.4766 0.94853 0.83139 0.0
H679 H 0.4883 0.99107 0.8215 0.0
H680 H 0.40032 0.95428 0.88365 0.0
H681 H 0.42072 0.05853 0.86025 0.0
H682 H 0.4882 0.92949 0.8944 0.0
H683 H 0.47509 0.91569 0.86756 0.0
H684 H 0.4444 0.91319 0.89 0.0
H685 H 0.5143 0.05501 0.86761 0.0
H686 H 0.47859 0.07956 0.85564 0.0
H687 H 0.50114 0.04657 0.83988 0.0
C688 C 0.97468 0.44184 0.1192 0.0
C689 C 0.99566 0.42057 0.10581 0.0
C690 C 0.98057 0.47831 0.12046 0.0
C691 C 0.00774 0.49384 0.1078 0.0
C692 C 0.02802 0.47251 0.09366 0.0
C693 C 0.02187 0.43627 0.09295 0.0
C694 C 0.95841 0.50009 0.13579 0.0
C695 C 0.05672 0.48788 0.07955 0.0
C696 C 1.0031 0.59174 0.09612 0.0
C697 C 0.02723 0.60557 0.11123 0.0
C698 C 0.99682 0.55556 0.09471 0.0
C699 C 0.01475 0.53241 0.10899 0.0
C700 C 0.03979 0.54613 0.124 0.0
C701 C 0.04595 0.58258 0.12483 0.0
C702 C 0.97051 0.5422 0.07815 0.0
C703 C 0.0594 0.52238 0.13955 0.0
H704 H 0.95474 0.42981 0.1294 0.0
H705 H 0.03816 0.41995 0.08253 0.0
H706 H 0.97538 0.51283 0.14827 0.0
H707 H 0.94512 0.52128 0.12649 0.0
H708 H 0.93823 0.48421 0.14439 0.0
H709 H 0.06938 0.4679 0.06891 0.0
H710 H 0.04593 0.50893 0.06893 0.0
H711 H 0.07709 0.49996 0.09013 0.0
H712 H 0.9886 0.60942 0.08552 0.0
H713 H 0.06422 0.59318 0.13676 0.0
H714 H 0.94854 0.52905 0.08678 0.0
H715 H 0.98291 0.52242 0.06729 0.0
H716 H 0.95962 0.56353 0.06775 0.0
H717 H 0.04054 0.50815 0.15018 0.0
H718 H 0.07799 0.53703 0.1502 0.0
H719 H 0.07426 0.5024 0.13014 0.0
C720 C 0.45512 0.96453 0.11374 0.0
C721 C 0.42736 0.97771 0.12641 0.0
C722 C 0.48857 0.98026 0.11432 0.0
C723 C 0.49429 0.01035 0.12754 0.0
C724 C 0.46653 0.0234 0.14061 0.0
C725 C 0.43367 0.0068 0.14002 0.0
C726 C 0.51764 0.96505 0.10047 0.0
C727 C 0.47117 0.05564 0.15472 0.0
C728 C 0.58766 0.0363 0.1429 0.0
C729 C 0.59568 0.06183 0.12703 0.0
C730 C 0.55494 0.01938 0.14324 0.0
C731 C 0.5291 0.0285 0.12754 0.0
C732 C 0.53655 0.05502 0.11188 0.0
C733 C 0.56982 0.07109 0.11168 0.0
C734 C 0.54842 0.99097 0.16003 0.0
C735 C 0.50953 0.06606 0.09513 0.0
H736 H 0.4506 0.94218 0.10312 0.0
H737 H 0.41253 0.01771 0.14961 0.0
H738 H 0.52584 0.98436 0.08785 0.0
H739 H 0.54088 0.95944 0.11087 0.0
H740 H 0.50959 0.9405 0.09204 0.0
H741 H 0.4471 0.06226 0.16412 0.0
H742 H 0.49301 0.0517 0.16651 0.0
H743 H 0.47819 0.07836 0.14423 0.0
H744 H 0.60745 0.02836 0.15461 0.0
H745 H 0.57573 0.09063 0.09929 0.0
H746 H 0.54282 0.96584 0.15155 0.0
H747 H 0.52508 0.99751 0.17009 0.0
H748 H 0.57115 0.98708 0.1712 0.0
H749 H 0.50296 0.04359 0.08432 0.0
H750 H 0.51879 0.0881 0.08471 0.0
H751 H 0.48501 0.07414 0.10352 0.0
C752 C 0.97022 0.57331 0.84455 0.0
C753 C 0.94271 0.5784 0.85957 0.0
C754 C 0.98903 0.54165 0.8438 0.0
C755 C 0.97967 0.51383 0.85804 0.0
C756 C 0.95092 0.51819 0.87256 0.0
C757 C 0.93311 0.55053 0.87336 0.0
C758 C 0.01981 0.53849 0.82833 0.0
C759 C 0.93942 0.48891 0.8876 0.0
C760 C 0.01038 0.42174 0.84325 0.0
C761 C 0.03803 0.41627 0.85814 0.0
C762 C 0.9912 0.45318 0.84308 0.0
C763 C 1.00019 0.48036 0.85788 0.0
C764 C 0.02868 0.47543 0.87257 0.0
C765 C 0.04693 0.44329 0.87273 0.0
C766 C 0.96062 0.45687 0.82747 0.0
C767 C 0.03968 0.50401 0.88827 0.0
H768 H 0.97833 0.59468 0.83404 0.0
H769 H 0.912 0.55419 0.88505 0.0
H770 H 0.04414 0.53384 0.8379 0.0
H771 H 0.01622 0.51568 0.81725 0.0
H772 H 0.02345 0.56235 0.81812 0.0
H773 H 0.91521 0.49559 0.89683 0.0
H774 H 0.93461 0.46471 0.87795 0.0
H775 H 0.96053 0.48297 0.89958 0.0
H776 H 1.00264 0.40085 0.83225 0.0
H777 H 0.06811 0.43924 0.88435 0.0
H778 H 0.96435 0.48006 0.81674 0.0
H779 H 0.93614 0.46116 0.83693 0.0
H780 H 0.95713 0.43337 0.8169 0.0
H781 H 0.04507 0.52854 0.87907 0.0
H782 H 0.06344 0.49682 0.89783 0.0
H783 H 0.01809 0.50966 0.89994 0.0
C784 C 0.22012 0.32283 0.37542 0.0
C785 C 0.22479 0.35161 0.38942 0.0
C786 C 0.24413 0.29483 0.37561 0.0
C787 C 0.27298 0.29572 0.39032 0.0
C788 C 0.27442 0.32219 0.40663 0.0
C789 C 0.25059 0.35016 0.40574 0.0
C790 C 0.24127 0.26705 0.35808 0.0
C791 C 0.30401 0.32371 0.42306 0.0
C792 C 0.34663 0.22748 0.39022 0.0
C793 C 0.37182 0.2448 0.37743 0.0
C794 C 0.31362 0.24302 0.39421 0.0
C795 C 0.30575 0.2762 0.38488 0.0
C796 C 0.33068 0.29272 0.37109 0.0
C797 C 0.36331 0.27698 0.36774 0.0
C798 C 0.2879 0.22463 0.40906 0.0
C799 C 0.32342 0.32771 0.36031 0.0
H800 H 0.20034 0.32409 0.36262 0.0
H801 H 0.25414 0.37246 0.41658 0.0
H802 H 0.25866 0.27408 0.34413 0.0
H803 H 0.24976 0.24113 0.3644 0.0
H804 H 0.21405 0.26486 0.35172 0.0
H805 H 0.29751 0.34095 0.4372 0.0
H806 H 0.31039 0.29716 0.42932 0.0
H807 H 0.32779 0.33429 0.41492 0.0
H808 H 0.35314 0.20251 0.39767 0.0
H809 H 0.38241 0.29013 0.35743 0.0
H810 H 0.26079 0.22685 0.4026 0.0
H811 H 0.28838 0.23722 0.42549 0.0
H812 H 0.29451 0.19647 0.41112 0.0
H813 H 0.29855 0.32661 0.35087 0.0
H814 H 0.34472 0.33581 0.34895 0.0
H815 H 0.32048 0.34825 0.37308 0.0
C816 C 0.28836 0.64388 0.5776 0.0
C817 C 0.26174 0.64209 0.5934 0.0
C818 C 0.31092 0.67287 0.57662 0.0
C819 C 0.30717 0.70018 0.5922 0.0
C820 C 0.27701 0.70089 0.60581 0.0
C821 C 0.25446 0.67169 0.60624 0.0
C822 C 0.34188 0.67152 0.56124 0.0
C823 C 0.27137 0.72995 0.62221 0.0
C824 C 0.39379 0.72137 0.61927 0.0
C825 C 0.40338 0.7532 0.60947 0.0
C826 C 0.36211 0.70487 0.61425 0.0
C827 C 0.33904 0.72033 0.59879 0.0
C828 C 0.34792 0.75307 0.58921 0.0
C829 C 0.38009 0.76925 0.59472 0.0
C830 C 0.35385 0.67025 0.62524 0.0
C831 C 0.3242 0.7705 0.57267 0.0
H832 H 0.2938 0.62106 0.56753 0.0
H833 H 0.23389 0.6704 0.61851 0.0
H834 H 0.34784 0.69791 0.55459 0.0
H835 H 0.36529 0.66228 0.57041 0.0
H836 H 0.33718 0.65326 0.54732 0.0
H837 H 0.24349 0.73153 0.62739 0.0
H838 H 0.28757 0.72483 0.63703 0.0
H839 H 0.27949 0.75561 0.61531 0.0
H840 H 0.41124 0.70903 0.63102 0.0
H841 H 0.38729 0.79394 0.58715 0.0
H842 H 0.3521 0.64921 0.6127 0.0
H843 H 0.32816 0.6717 0.63372 0.0
H844 H 0.37402 0.66256 0.63751 0.0
H845 H 0.32887 0.75879 0.55623 0.0
H846 H 0.32947 0.79907 0.57152 0.0
H847 H 0.29618 0.76647 0.57682 0.0
C848 C 0.62745 0.71678 0.35543 0.0
C849 C 0.61814 0.74839 0.36555 0.0
C850 C 0.65916 0.70014 0.36019 0.0
C851 C 0.6823 0.71515 0.37581 0.0
C852 C 0.67371 0.74779 0.3856 0.0
C853 C 0.64164 0.76422 0.38024 0.0
C854 C 0.66729 0.66576 0.34887 0.0
C855 C 0.69747 0.76468 0.40234 0.0
C856 C 0.73172 0.63756 0.39628 0.0
C857 C 0.75861 0.63623 0.3807 0.0
C858 C 0.70955 0.66682 0.3976 0.0
C859 C 0.71386 0.69462 0.38241 0.0
C860 C 0.74424 0.69557 0.36903 0.0
C861 C 0.76649 0.6662 0.36838 0.0
C862 C 0.67837 0.66531 0.41279 0.0
C863 C 0.75034 0.72497 0.35292 0.0
H864 H 0.6097 0.70478 0.34372 0.0
H865 H 0.63451 0.78873 0.38806 0.0
H866 H 0.69326 0.66708 0.34073 0.0
H867 H 0.66833 0.64433 0.36118 0.0
H868 H 0.64738 0.65877 0.33628 0.0
H869 H 0.69228 0.79323 0.4038 0.0
H870 H 0.69277 0.7525 0.41863 0.0
H871 H 0.72548 0.76068 0.39815 0.0
H872 H 0.7257 0.61429 0.40581 0.0
H873 H 0.7872 0.66504 0.35618 0.0
H874 H 0.65504 0.65637 0.40342 0.0
H875 H 0.67245 0.6916 0.41963 0.0
H876 H 0.6828 0.64673 0.42657 0.0
H877 H 0.73447 0.7202 0.33791 0.0
H878 H 0.77833 0.72656 0.348 0.0
H879 H 0.74214 0.75052 0.35994 0.0
C880 C 0.73505 0.38494 0.62416 0.0
C881 C 0.76347 0.39583 0.61132 0.0
C882 C 0.71747 0.35355 0.61981 0.0
C883 C 0.72821 0.33242 0.60188 0.0
C884 C 0.75819 0.34226 0.58953 0.0
C885 C 0.77568 0.37394 0.59448 0.0
C886 C 0.68613 0.34402 0.63381 0.0
C887 C 0.7707 0.3205 0.5704 0.0
C888 C 0.67888 0.24716 0.60666 0.0
C889 C 0.6472 0.2569 0.59669 0.0
C890 C 0.70802 0.2698 0.60613 0.0
C891 C 0.70524 0.30254 0.59523 0.0
C892 C 0.67506 0.30971 0.58242 0.0
C893 C 0.64623 0.28696 0.58351 0.0
C894 C 0.73992 0.26068 0.61961 0.0
C895 C 0.67119 0.34374 0.57002 0.0
H896 H 0.72596 0.40152 0.63747 0.0
H897 H 0.79771 0.38233 0.58454 0.0
H898 H 0.66192 0.34513 0.6237 0.0
H899 H 0.68876 0.31688 0.64012 0.0
H900 H 0.68284 0.36195 0.64804 0.0
H901 H 0.79849 0.32624 0.56631 0.0
H902 H 0.76795 0.29208 0.57385 0.0
H903 H 0.75447 0.32659 0.55575 0.0
H904 H 0.67971 0.22395 0.61693 0.0
H905 H 0.62177 0.2944 0.5757 0.0
H906 H 0.73798 0.27364 0.6359 0.0
H907 H 0.76424 0.27011 0.61156 0.0
H908 H 0.74197 0.23196 0.62233 0.0
H909 H 0.66515 0.36512 0.5818 0.0
H910 H 0.64969 0.34246 0.55772 0.0
H911 H 0.69592 0.35063 0.56148 0.0
C912 C 0.85877 0.77728 0.87043 0.0
C913 C 0.86528 0.74405 0.87933 0.0
C914 C 0.82831 0.79587 0.87549 0.0
C915 C 0.80356 0.7812 0.8902 0.0
C916 C 0.80923 0.74702 0.89871 0.0
C917 C 0.84009 0.72863 0.89304 0.0
C918 C 0.82329 0.83184 0.86548 0.0
C919 C 0.78356 0.73038 0.91438 0.0
C920 C 0.76022 0.86046 0.91332 0.0
C921 C 0.73421 0.86585 0.89746 0.0
C922 C 0.77967 0.82926 0.91369 0.0
C923 C 0.77357 0.80357 0.89732 0.0
C924 C 0.74372 0.80672 0.88357 0.0
C925 C 0.72414 0.83794 0.88389 0.0
C926 C 0.81032 0.82647 0.92927 0.0
C927 C 0.73573 0.77976 0.86615 0.0
H928 H 0.87773 0.78899 0.85938 0.0
H929 H 0.84499 0.70284 0.89984 0.0
H930 H 0.79765 0.83335 0.85691 0.0
H931 H 0.82334 0.85203 0.8786 0.0
H932 H 0.84419 0.83853 0.85348 0.0
H933 H 0.78662 0.70144 0.91486 0.0
H934 H 0.78833 0.74066 0.93117 0.0
H935 H 0.75612 0.7368 0.90986 0.0
H936 H 0.76789 0.88205 0.92388 0.0
H937 H 0.70405 0.84211 0.87154 0.0
H938 H 0.83464 0.83435 0.92057 0.0
H939 H 0.81375 0.79911 0.93504 0.0
H940 H 0.80697 0.84386 0.94377 0.0
H941 H 0.75205 0.78511 0.85143 0.0
H942 H 0.70775 0.78083 0.8611 0.0
H943 H 0.74194 0.75293 0.872 0.0
C944 C 0.79564 0.14701 0.12115 0.0
C945 C 0.76294 0.13814 0.11228 0.0
C946 C 0.81416 0.17635 0.11384 0.0
C947 C 0.79992 0.19745 0.09688 0.0
C948 C 0.76622 0.1895 0.08833 0.0
C949 C 0.74793 0.15988 0.09625 0.0
C950 C 0.84964 0.18399 0.12389 0.0
C951 C 0.75007 0.21125 0.07029 0.0
C952 C 0.85486 0.27904 0.09629 0.0
C953 C 0.88333 0.26687 0.08388 0.0
C954 C 0.82432 0.25866 0.0984 0.0
C955 C 0.8223 0.22585 0.08755 0.0
C956 C 0.84852 0.21668 0.07211 0.0
C957 C 0.87898 0.23713 0.07066 0.0
C958 C 0.79673 0.2699 0.11468 0.0
C959 C 0.84693 0.18262 0.05957 0.0
H960 H 0.80707 0.13072 0.13388 0.0
H961 H 0.72257 0.15313 0.08941 0.0
H962 H 0.87038 0.18121 0.11122 0.0
H963 H 0.85058 0.21133 0.13007 0.0
H964 H 0.85597 0.16609 0.13773 0.0
H965 H 0.72124 0.20745 0.0694 0.0
H966 H 0.75571 0.23953 0.07264 0.0
H967 H 0.76149 0.20329 0.05428 0.0
H968 H 0.85794 0.30221 0.10643 0.0
H969 H 0.9008 0.22796 0.06078 0.0
H970 H 0.80196 0.2571 0.13073 0.0
H971 H 0.77019 0.26188 0.10918 0.0
H972 H 0.79711 0.29873 0.11724 0.0
H973 H 0.85493 0.16083 0.07057 0.0
H974 H 0.8648 0.18284 0.04515 0.0
H975 H 0.81987 0.17723 0.05383 0.0
C976 C 0.14316 0.2264 0.85337 0.0
C977 C 0.12988 0.25392 0.86608 0.0
C978 C 0.17182 0.20661 0.8604 0.0
C979 C 0.18786 0.2144 0.88083 0.0
C980 C 0.1762 0.24386 0.89309 0.0
C981 C 0.14714 0.26342 0.88553 0.0
C982 C 0.18341 0.17589 0.84644 0.0
C983 C 0.19291 0.25369 0.91468 0.0
C984 C 0.21943 0.12719 0.89997 0.0
C985 C 0.25187 0.12566 0.88926 0.0
C986 C 0.20009 0.1584 0.90055 0.0
C987 C 0.21342 0.18856 0.88988 0.0
C988 C 0.24852 0.18849 0.88226 0.0
C989 C 0.26746 0.15682 0.88195 0.0
C990 C 0.16329 0.15748 0.90961 0.0
C991 C 0.26433 0.22054 0.87171 0.0
H992 H 0.13031 0.21954 0.83805 0.0
H993 H 0.13698 0.28487 0.89533 0.0
H994 H 0.21185 0.17767 0.8429 0.0
H995 H 0.17881 0.15102 0.85545 0.0
H996 H 0.16913 0.17452 0.83054 0.0
H997 H 0.19028 0.28223 0.91787 0.0
H998 H 0.17939 0.23958 0.92818 0.0
H999 H 0.22108 0.24649 0.91516 0.0
H1000 H 0.20762 0.10316 0.90597 0.0
H1001 H 0.2927 0.15583 0.87379 0.0
H1002 H 0.14436 0.15545 0.89579 0.0
H1003 H 0.15736 0.18188 0.91877 0.0
H1004 H 0.1592 0.13471 0.92071 0.0
H1005 H 0.25596 0.2219 0.85426 0.0
H1006 H 0.29343 0.21956 0.87214 0.0
H1007 H 0.25528 0.24479 0.88002 0.0
C1008 C 0.27551 0.87128 0.10011 0.0
C1009 C 0.26237 0.89417 0.11613 0.0
C1010 C 0.25751 0.83998 0.09494 0.0
C1011 C 0.22599 0.83165 0.10619 0.0
C1012 C 0.21426 0.85374 0.1234 0.0
C1013 C 0.23247 0.88464 0.12803 0.0
C1014 C 0.27122 0.81708 0.07669 0.0
C1015 C 0.1812 0.84589 0.13621 0.0
C1016 C 0.14404 0.78998 0.0848 0.0
C1017 C 0.14174 0.76061 0.09851 0.0
C1018 C 0.17418 0.81099 0.08462 0.0
C1019 C 0.2024 0.8027 0.09885 0.0
C1020 C 0.20207 0.77036 0.11033 0.0
C1021 C 0.17159 0.74954 0.11003 0.0
C1022 C 0.17365 0.84463 0.07159 0.0
C1023 C 0.232 0.75995 0.12515 0.0
H1024 H 0.29873 0.87861 0.09093 0.0
H1025 H 0.22268 0.90199 0.14075 0.0
H1026 H 0.26603 0.78896 0.07999 0.0
H1027 H 0.25781 0.82413 0.06112 0.0
H1028 H 0.29984 0.82086 0.07427 0.0
H1029 H 0.17706 0.86454 0.14999 0.0
H1030 H 0.15815 0.84736 0.12511 0.0
H1031 H 0.18221 0.81897 0.14306 0.0
H1032 H 0.12102 0.79836 0.07573 0.0
H1033 H 0.1699 0.72682 0.12069 0.0
H1034 H 0.19953 0.84959 0.06391 0.0
H1035 H 0.16787 0.86686 0.08279 0.0
H1036 H 0.15332 0.84414 0.0585 0.0
H1037 H 0.25756 0.76767 0.11793 0.0
H1038 H 0.23208 0.73128 0.1283 0.0
H1039 H 0.22925 0.77361 0.14116 0.0
C1040 C 0.18372 0.53205 0.2638 0.0
C1041 C 0.17746 0.54257 0.2855 0.0
C1042 C 0.17839 0.55521 0.24626 0.0
C1043 C 0.16592 0.58943 0.2506 0.0
C1044 C 0.16125 0.60071 0.2726 0.0
C1045 C 0.16733 0.57709 0.28988 0.0
C1046 C 0.18427 0.54241 0.22307 0.0
C1047 C 0.14772 0.63694 0.27783 0.0
C1048 C 0.16744 0.65763 0.2052 0.0
C1049 C 0.13312 0.65536 0.19706 0.0
C1050 C 0.17867 0.63616 0.22254 0.0
C1051 C 0.15482 0.61222 0.23209 0.0
C1052 C 0.12018 0.6097 0.22384 0.0
C1053 C 0.10982 0.63117 0.20631 0.0
C1054 C 0.21597 0.63909 0.23066 0.0
C1055 C 0.09389 0.58466 0.23373 0.0
H1056 H 0.19165 0.50526 0.26054 0.0
H1057 H 0.16222 0.58495 0.3067 0.0
H1058 H 0.15868 0.53977 0.21455 0.0
H1059 H 0.20011 0.56162 0.21366 0.0
H1060 H 0.19775 0.51661 0.22265 0.0
H1061 H 0.1485 0.64265 0.29573 0.0
H1062 H 0.16332 0.65708 0.26906 0.0
H1063 H 0.12022 0.63936 0.27207 0.0
H1064 H 0.18554 0.67612 0.19789 0.0
H1065 H 0.08316 0.62978 0.20025 0.0
H1066 H 0.22922 0.61329 0.22938 0.0
H1067 H 0.21618 0.64666 0.24826 0.0
H1068 H 0.23136 0.6587 0.22123 0.0
H1069 H 0.10364 0.55736 0.23238 0.0
H1070 H 0.06787 0.58626 0.22558 0.0
H1071 H 0.0905 0.59042 0.25149 0.0
C1072 C 0.5998 0.78218 0.71445 0.0
C1073 C 0.60393 0.80818 0.69837 0.0
C1074 C 0.61783 0.7843 0.73452 0.0
C1075 C 0.64043 0.81304 0.73842 0.0
C1076 C 0.64699 0.83757 0.72143 0.0
C1077 C 0.62851 0.8349 0.70162 0.0
C1078 C 0.61038 0.75751 0.75215 0.0
C1079 C 0.67136 0.86829 0.72481 0.0
C1080 C 0.64675 0.857 0.79374 0.0
C1081 C 0.68107 0.84861 0.80015 0.0
C1082 C 0.63233 0.84341 0.77439 0.0
C1083 C 0.65275 0.82099 0.761 0.0
C1084 C 0.68627 0.81008 0.76821 0.0
C1085 C 0.7 0.82394 0.78778 0.0
C1086 C 0.59619 0.85532 0.76745 0.0
C1087 C 0.70865 0.78581 0.75455 0.0
H1088 H 0.58067 0.76154 0.71198 0.0
H1089 H 0.63201 0.85472 0.68903 0.0
H1090 H 0.63478 0.74999 0.76088 0.0
H1091 H 0.59227 0.76899 0.76446 0.0
H1092 H 0.59798 0.73354 0.74528 0.0
H1093 H 0.67686 0.88241 0.70922 0.0
H1094 H 0.65933 0.88703 0.73655 0.0
H1095 H 0.69657 0.85942 0.73201 0.0
H1096 H 0.63178 0.87602 0.80299 0.0
H1097 H 0.72618 0.8166 0.79288 0.0
H1098 H 0.57994 0.83256 0.76247 0.0
H1099 H 0.59839 0.87295 0.753 0.0
H1100 H 0.58234 0.86966 0.78076 0.0
H1101 H 0.69272 0.76434 0.74737 0.0
H1102 H 0.73033 0.77418 0.76434 0.0
H1103 H 0.72032 0.80075 0.74073 0.0
C1104 C 0.79816 0.46954 0.24862 0.0
C1105 C 0.80298 0.45563 0.26969 0.0
C1106 C 0.80688 0.44996 0.22995 0.0
C1107 C 0.82137 0.41609 0.2326 0.0
C1108 C 0.82402 0.40112 0.25386 0.0
C1109 C 0.81461 0.42116 0.27224 0.0
C1110 C 0.8031 0.46654 0.20754 0.0
C1111 C 0.83951 0.36514 0.25734 0.0
C1112 C 0.83525 0.35525 0.18416 0.0
C1113 C 0.87081 0.36091 0.17953 0.0
C1114 C 0.81838 0.37376 0.20101 0.0
C1115 C 0.83773 0.39815 0.2136 0.0
C1116 C 0.8734 0.40469 0.20858 0.0
C1117 C 0.88946 0.38609 0.19148 0.0
C1118 C 0.78016 0.36665 0.20565 0.0
C1119 C 0.89495 0.43044 0.22175 0.0
H1120 H 0.78941 0.49643 0.24685 0.0
H1121 H 0.81872 0.41084 0.28866 0.0
H1122 H 0.82936 0.47399 0.20126 0.0
H1123 H 0.79155 0.44771 0.19568 0.0
H1124 H 0.78647 0.49043 0.20804 0.0
H1125 H 0.83617 0.35587 0.27453 0.0
H1126 H 0.82723 0.34586 0.24608 0.0
H1127 H 0.86795 0.36583 0.25353 0.0
H1128 H 0.82074 0.33608 0.17469 0.0
H1129 H 0.91701 0.39018 0.18804 0.0
H1130 H 0.76517 0.39156 0.20579 0.0
H1131 H 0.77736 0.35467 0.22217 0.0
H1132 H 0.76827 0.34874 0.19333 0.0
H1133 H 0.88239 0.45665 0.22148 0.0
H1134 H 0.92212 0.43301 0.21539 0.0
H1135 H 0.89622 0.42186 0.23916 0.0
C1136 C 0.40201 0.1251 0.79789 0.0
C1137 C 0.36918 0.14077 0.80122 0.0
C1138 C 0.42565 0.13874 0.78247 0.0
C1139 C 0.41607 0.16855 0.76997 0.0
C1140 C 0.38426 0.18611 0.77451 0.0
C1141 C 0.36129 0.17211 0.79019 0.0
C1142 C 0.45964 0.11957 0.77834 0.0
C1143 C 0.37317 0.21806 0.76163 0.0
C1144 C 0.48471 0.20838 0.73215 0.0
C1145 C 0.47784 0.19029 0.71258 0.0
C1146 C 0.46436 0.20225 0.75102 0.0
C1147 C 0.43649 0.17779 0.75004 0.0
C1148 C 0.42864 0.16067 0.72998 0.0
C1149 C 0.44954 0.16703 0.71153 0.0
C1150 C 0.47357 0.22078 0.77216 0.0
C1151 C 0.39881 0.13478 0.72813 0.0
H1152 H 0.40846 0.10095 0.8063 0.0
H1153 H 0.33643 0.18495 0.79313 0.0
H1154 H 0.45783 0.10515 0.76253 0.0
H1155 H 0.48174 0.13832 0.77696 0.0
H1156 H 0.46566 0.10043 0.79158 0.0
H1157 H 0.35054 0.23165 0.76934 0.0
H1158 H 0.39518 0.23688 0.76008 0.0
H1159 H 0.3655 0.21002 0.74476 0.0
H1160 H 0.50684 0.22616 0.73294 0.0
H1161 H 0.44416 0.1533 0.69629 0.0
H1162 H 0.48397 0.2015 0.78416 0.0
H1163 H 0.44987 0.23274 0.77959 0.0
H1164 H 0.49357 0.24155 0.76965 0.0
H1165 H 0.40389 0.11194 0.73896 0.0
H1166 H 0.39516 0.12511 0.71105 0.0
H1167 H 0.37398 0.14705 0.73368 0.0
C1168 C 0.23991 0.44442 0.7156 0.0
C1169 C 0.21866 0.44436 0.69682 0.0
C1170 C 0.23297 0.4213 0.73305 0.0
C1171 C 0.20401 0.39818 0.73153 0.0
C1172 C 0.18474 0.39591 0.71169 0.0
C1173 C 0.19247 0.41895 0.69453 0.0
C1174 C 0.25474 0.42367 0.7537 0.0
C1175 C 0.15374 0.37155 0.70927 0.0
C1176 C 0.17669 0.32626 0.77051 0.0
C1177 C 0.14927 0.34282 0.7818 0.0
C1178 C 0.1974 0.34486 0.75545 0.0
C1179 C 0.18987 0.38056 0.75135 0.0
C1180 C 0.16394 0.39796 0.76395 0.0
C1181 C 0.1441 0.37888 0.77913 0.0
C1182 C 0.22556 0.3257 0.74287 0.0
C1183 C 0.15494 0.43601 0.76002 0.0
H1184 H 0.26025 0.46408 0.7173 0.0
H1185 H 0.17642 0.41873 0.67981 0.0
H1186 H 0.24065 0.43974 0.76606 0.0
H1187 H 0.2591 0.39735 0.76094 0.0
H1188 H 0.28054 0.43616 0.75049 0.0
H1189 H 0.14362 0.3708 0.69215 0.0
H1190 H 0.16094 0.34455 0.71425 0.0
H1191 H 0.13224 0.38038 0.72024 0.0
H1192 H 0.18114 0.29849 0.77293 0.0
H1193 H 0.12285 0.3917 0.78778 0.0
H1194 H 0.24903 0.3425 0.74063 0.0
H1195 H 0.21556 0.31878 0.7263 0.0
H1196 H 0.2335 0.30112 0.7513 0.0
H1197 H 0.179 0.45231 0.76005 0.0
H1198 H 0.13663 0.44644 0.77262 0.0
H1199 H 0.14247 0.43885 0.74363 0.0
C1200 C 0.38527 0.79891 0.28097 0.0
C1201 C 0.3937 0.82199 0.29804 0.0
C1202 C 0.36343 0.80983 0.26371 0.0
C1203 C 0.35037 0.84457 0.26369 0.0
C1204 C 0.35527 0.86617 0.28237 0.0
C1205 C 0.37702 0.85454 0.29937 0.0
C1206 C 0.35792 0.78573 0.24436 0.0
C1207 C 0.34153 0.90325 0.28315 0.0
C1208 C 0.3532 0.89775 0.21142 0.0
C1209 C 0.31755 0.90243 0.20694 0.0
C1210 C 0.36418 0.87738 0.22927 0.0
C1211 C 0.3388 0.86101 0.24283 0.0
C1212 C 0.30281 0.86381 0.23758 0.0
C1213 C 0.29257 0.88477 0.21975 0.0
C1214 C 0.40292 0.87512 0.23432 0.0
C1215 C 0.27508 0.84615 0.25136 0.0
H1216 H 0.39845 0.77378 0.27999 0.0
H1217 H 0.38381 0.87226 0.31266 0.0
H1218 H 0.33111 0.78866 0.23753 0.0
H1219 H 0.37682 0.79257 0.23119 0.0
H1220 H 0.36218 0.75788 0.24897 0.0
H1221 H 0.34282 0.91441 0.3 0.0
H1222 H 0.3575 0.92001 0.2721 0.0
H1223 H 0.31402 0.90441 0.27732 0.0
H1224 H 0.37251 0.91154 0.20166 0.0
H1225 H 0.26497 0.88785 0.21603 0.0
H1226 H 0.41109 0.84734 0.23588 0.0
H1227 H 0.40843 0.88815 0.25027 0.0
H1228 H 0.41924 0.88775 0.22145 0.0
H1229 H 0.28329 0.81929 0.25606 0.0
H1230 H 0.24957 0.84466 0.24259 0.0
H1231 H 0.27114 0.86127 0.26673 0.0
C1232 C 0.78739 0.61975 0.69287 0.0
C1233 C 0.81536 0.62028 0.67795 0.0
C1234 C 0.78942 0.63844 0.7127 0.0
C1235 C 0.82011 0.65782 0.71749 0.0
C1236 C 0.84623 0.66199 0.70116 0.0
C1237 C 0.84355 0.64302 0.68155 0.0
C1238 C 0.76062 0.63405 0.72945 0.0
C1239 C 0.87908 0.68299 0.70543 0.0
C1240 C 0.83693 0.71122 0.76892 0.0
C1241 C 0.85779 0.68788 0.78108 0.0
C1242 C 0.82216 0.7012 0.74873 0.0
C1243 C 0.82871 0.66716 0.74055 0.0
C1244 C 0.84757 0.64273 0.75353 0.0
C1245 C 0.86182 0.6534 0.77364 0.0
C1246 C 0.80152 0.72772 0.73565 0.0
C1247 C 0.8549 0.60597 0.74549 0.0
H1248 H 0.76556 0.6021 0.69008 0.0
H1249 H 0.86498 0.64359 0.66985 0.0
H1250 H 0.76835 0.61352 0.74143 0.0
H1251 H 0.75619 0.65868 0.73873 0.0
H1252 H 0.73562 0.62588 0.72161 0.0
H1253 H 0.89401 0.68804 0.69008 0.0
H1254 H 0.87262 0.70846 0.71322 0.0
H1255 H 0.89626 0.66834 0.71694 0.0
H1256 H 0.83314 0.73772 0.77485 0.0
H1257 H 0.87802 0.63529 0.78284 0.0
H1258 H 0.77854 0.71536 0.72759 0.0
H1259 H 0.81842 0.7387 0.7225 0.0
H1260 H 0.79228 0.74973 0.74611 0.0
H1261 H 0.83024 0.59309 0.74019 0.0
H1262 H 0.86746 0.58945 0.7583 0.0
H1263 H 0.87257 0.60703 0.73101 0.0
C1264 C 0.61552 0.1645 0.30297 0.0
C1265 C 0.59474 0.19461 0.30421 0.0
C1266 C 0.63878 0.15964 0.28546 0.0
C1267 C 0.64076 0.18539 0.26873 0.0
C1268 C 0.62236 0.21739 0.27113 0.0
C1269 C 0.5994 0.22165 0.28896 0.0
C1270 C 0.65832 0.12534 0.28371 0.0
C1271 C 0.62406 0.24558 0.25377 0.0
C1272 C 0.70831 0.16597 0.22472 0.0
C1273 C 0.68839 0.14606 0.20984 0.0
C1274 C 0.69287 0.18093 0.24345 0.0
C1275 C 0.6567 0.17583 0.24731 0.0
C1276 C 0.63605 0.15778 0.23161 0.0
C1277 C 0.65215 0.1431 0.21311 0.0
C1278 C 0.71564 0.20036 0.25967 0.0
C1279 C 0.59725 0.15196 0.23504 0.0
H1280 H 0.61162 0.14363 0.31482 0.0
H1281 H 0.58295 0.24477 0.28992 0.0
H1282 H 0.64601 0.10888 0.27079 0.0
H1283 H 0.68596 0.12987 0.27887 0.0
H1284 H 0.65793 0.11049 0.29942 0.0
H1285 H 0.61461 0.27118 0.26014 0.0
H1286 H 0.65119 0.2488 0.24754 0.0
H1287 H 0.60728 0.23795 0.23966 0.0
H1288 H 0.73621 0.16899 0.22207 0.0
H1289 H 0.63652 0.12761 0.20188 0.0
H1290 H 0.72019 0.1836 0.2743 0.0
H1291 H 0.70249 0.22462 0.2654 0.0
H1292 H 0.74149 0.20738 0.25252 0.0
H1293 H 0.59317 0.1342 0.24925 0.0
H1294 H 0.58444 0.14015 0.22039 0.0
H1295 H 0.58399 0.17709 0.23885 0.0
C1296 C 0.70105 0.15431 0.69913 0.0
C1297 C 0.66657 0.1482 0.69205 0.0
C1298 C 0.71533 0.13568 0.71688 0.0
C1299 C 0.69454 0.11045 0.72781 0.0
C1300 C 0.66015 0.10327 0.72023 0.0
C1301 C 0.64662 0.12219 0.7024 0.0
C1302 C 0.75223 0.14368 0.72433 0.0
C1303 C 0.63716 0.07647 0.73145 0.0
C1304 C 0.72971 0.03863 0.76438 0.0
C1305 C 0.72 0.051 0.78521 0.0
C1306 C 0.72398 0.0589 0.74553 0.0
C1307 C 0.70795 0.09215 0.74763 0.0
C1308 C 0.70085 0.10593 0.7688 0.0
C1309 C 0.7071 0.08514 0.78742 0.0
C1310 C 0.73242 0.0435 0.72329 0.0
C1311 C 0.6839 0.14137 0.7717 0.0
H1312 H 0.71667 0.1741 0.69097 0.0
H1313 H 0.61985 0.11768 0.69718 0.0
H1314 H 0.75163 0.1554 0.74101 0.0
H1315 H 0.76781 0.11919 0.72542 0.0
H1316 H 0.7658 0.16216 0.71307 0.0
H1317 H 0.61147 0.07324 0.72308 0.0
H1318 H 0.65055 0.05067 0.73188 0.0
H1319 H 0.63235 0.08449 0.74872 0.0
H1320 H 0.7399 0.01223 0.76275 0.0
H1321 H 0.69937 0.09455 0.80352 0.0
H1322 H 0.74544 0.06321 0.71266 0.0
H1323 H 0.70774 0.03558 0.71501 0.0
H1324 H 0.74962 0.02011 0.72462 0.0
H1325 H 0.69746 0.16138 0.76159 0.0
H1326 H 0.6841 0.15004 0.78914 0.0
H1327 H 0.65628 0.14012 0.76601 0.0
C1328 C 0.17829 0.35117 0.26709 0.0
C1329 C 0.17033 0.34057 0.28854 0.0
C1330 C 0.15845 0.33924 0.24925 0.0
C1331 C 0.13052 0.31554 0.253 0.0
C1332 C 0.12468 0.3021 0.27437 0.0
C1333 C 0.14434 0.3153 0.29202 0.0
C1334 C 0.16517 0.35474 0.2268 0.0
C1335 C 0.09603 0.27581 0.27886 0.0
C1336 C 0.05271 0.33169 0.2161 0.0
C1337 C 0.05875 0.30797 0.19891 0.0
C1338 C 0.07528 0.3335 0.23416 0.0
C1339 C 0.10403 0.31016 0.23548 0.0
C1340 C 0.1088 0.2843 0.21908 0.0
C1341 C 0.0863 0.28376 0.20079 0.0
C1342 C 0.06932 0.36167 0.25124 0.0
C1343 C 0.13849 0.25824 0.22036 0.0
H1344 H 0.1982 0.37099 0.26449 0.0
H1345 H 0.13855 0.30697 0.30866 0.0
H1346 H 0.16621 0.33387 0.21414 0.0
H1347 H 0.14331 0.3726 0.22238 0.0
H1348 H 0.19005 0.36984 0.22622 0.0
H1349 H 0.09984 0.2625 0.29493 0.0
H1350 H 0.07033 0.28939 0.27919 0.0
H1351 H 0.09495 0.25572 0.26569 0.0
H1352 H 0.03071 0.3496 0.2152 0.0
H1353 H 0.09109 0.26523 0.18764 0.0
H1354 H 0.09214 0.3797 0.25165 0.0
H1355 H 0.06688 0.34979 0.2678 0.0
H1356 H 0.04536 0.37735 0.24791 0.0
H1357 H 0.16349 0.27145 0.21615 0.0
H1358 H 0.13465 0.23602 0.20881 0.0
H1359 H 0.14114 0.24775 0.2373 0.0
C1360 C 0.36725 0.83008 0.70423 0.0
C1361 C 0.39433 0.8465 0.69256 0.0
C1362 C 0.34696 0.84884 0.71941 0.0
C1363 C 0.3545 0.88461 0.72323 0.0
C1364 C 0.38006 0.90188 0.71028 0.0
C1365 C 0.39955 0.8826 0.69496 0.0
C1366 C 0.31928 0.82975 0.73246 0.0
C1367 C 0.389 0.94 0.71391 0.0
C1368 C 0.30126 0.94443 0.76033 0.0
C1369 C 0.32151 0.94344 0.77956 0.0
C1370 C 0.31041 0.92387 0.74203 0.0
C1371 C 0.34057 0.90228 0.74312 0.0
C1372 C 0.35967 0.89965 0.763 0.0
C1373 C 0.34972 0.92007 0.781 0.0
C1374 C 0.28903 0.92674 0.72124 0.0
C1375 C 0.39193 0.87685 0.76492 0.0
H1376 H 0.36275 0.80228 0.70199 0.0
H1377 H 0.42051 0.89528 0.68597 0.0
H1378 H 0.32931 0.82439 0.74925 0.0
H1379 H 0.29534 0.84605 0.73416 0.0
H1380 H 0.31205 0.80437 0.72474 0.0
H1381 H 0.40639 0.95048 0.70082 0.0
H1382 H 0.36484 0.95612 0.71452 0.0
H1383 H 0.40253 0.94296 0.72996 0.0
H1384 H 0.27944 0.96254 0.75919 0.0
H1385 H 0.36498 0.91886 0.79603 0.0
H1386 H 0.28474 0.90052 0.71382 0.0
H1387 H 0.30346 0.94284 0.70906 0.0
H1388 H 0.26318 0.93924 0.72427 0.0
H1389 H 0.38572 0.84952 0.76011 0.0
H1390 H 0.40283 0.87661 0.78186 0.0
H1391 H 0.41251 0.88654 0.75356 0.0
C1392 C 0.94767 0.7322 0.21771 0.0
C1393 C 0.94336 0.71189 0.1987 0.0
C1394 C 0.92566 0.72733 0.23596 0.0
C1395 C 0.89903 0.70153 0.23502 0.0
C1396 C 0.89282 0.68317 0.21517 0.0
C1397 C 0.91507 0.68864 0.19724 0.0
C1398 C 0.93268 0.74779 0.25672 0.0
C1399 C 0.86453 0.65561 0.2134 0.0
C1400 C 0.87616 0.64522 0.28384 0.0
C1401 C 0.84196 0.65635 0.28854 0.0
C1402 C 0.89595 0.66143 0.26738 0.0
C1403 C 0.88122 0.68956 0.25534 0.0
C1404 C 0.84774 0.70262 0.26105 0.0
C1405 C 0.8284 0.68572 0.27756 0.0
C1406 C 0.93162 0.64668 0.26181 0.0
C1407 C 0.83148 0.73299 0.24886 0.0
H1408 H 0.96957 0.75021 0.21885 0.0
H1409 H 0.91142 0.67339 0.18237 0.0
H1410 H 0.90779 0.75617 0.26454 0.0
H1411 H 0.94675 0.73084 0.26863 0.0
H1412 H 0.94906 0.77131 0.25351 0.0
H1413 H 0.86078 0.64644 0.19623 0.0
H1414 H 0.87166 0.63271 0.22372 0.0
H1415 H 0.83922 0.66594 0.21959 0.0
H1416 H 0.88676 0.6224 0.29206 0.0
H1417 H 0.80223 0.69481 0.28144 0.0
H1418 H 0.95135 0.66797 0.2609 0.0
H1419 H 0.9306 0.63389 0.24544 0.0
H1420 H 0.94062 0.62703 0.27406 0.0
H1421 H 0.85099 0.75411 0.24615 0.0
H1422 H 0.80864 0.74403 0.25782 0.0
H1423 H 0.82242 0.72399 0.23247 0.0
C1424 C 0.69604 0.90444 0.19844 0.0
C1425 C 0.69267 0.93951 0.20504 0.0
C1426 C 0.68613 0.87705 0.21256 0.0
C1427 C 0.67169 0.88514 0.23338 0.0
C1428 C 0.6711 0.92028 0.24077 0.0
C1429 C 0.68228 0.94692 0.22666 0.0
C1430 C 0.68883 0.8397 0.20461 0.0
C1431 C 0.65569 0.93019 0.2628 0.0
C1432 C 0.59598 0.83243 0.25567 0.0
C1433 C 0.61081 0.81789 0.27456 0.0
C1434 C 0.61609 0.85308 0.24147 0.0
C1435 C 0.65217 0.85826 0.24603 0.0
C1436 C 0.66781 0.84135 0.26429 0.0
C1437 C 0.64663 0.82195 0.27871 0.0
C1438 C 0.59812 0.87133 0.22251 0.0
C1439 C 0.70641 0.84498 0.26918 0.0
H1440 H 0.70441 0.8984 0.18184 0.0
H1441 H 0.68097 0.97391 0.23217 0.0
H1442 H 0.6975 0.82211 0.21809 0.0
H1443 H 0.6627 0.83057 0.19902 0.0
H1444 H 0.7074 0.83725 0.19063 0.0
H1445 H 0.65904 0.95849 0.26655 0.0
H1446 H 0.62725 0.92405 0.26292 0.0
H1447 H 0.66808 0.91476 0.27614 0.0
H1448 H 0.56812 0.82927 0.25278 0.0
H1449 H 0.65783 0.81034 0.29339 0.0
H1450 H 0.61179 0.86542 0.20688 0.0
H1451 H 0.59924 0.90013 0.22498 0.0
H1452 H 0.57021 0.86346 0.22084 0.0
H1453 H 0.72206 0.84463 0.25381 0.0
H1454 H 0.71584 0.8237 0.28016 0.0
H1455 H 0.7113 0.87036 0.27751 0.0
C1456 C 0.90019 0.31173 0.77527 0.0
C1457 C 0.93591 0.31606 0.77065 0.0
C1458 C 0.8747 0.32231 0.75997 0.0
C1459 C 0.88548 0.33828 0.74009 0.0
C1460 C 0.92144 0.33897 0.73444 0.0
C1461 C 0.94617 0.32724 0.74968 0.0
C1462 C 0.83645 0.31919 0.76589 0.0
C1463 C 0.93418 0.35566 0.71338 0.0
C1464 C 0.8299 0.37201 0.69316 0.0
C1465 C 0.8271 0.40741 0.69889 0.0
C1466 C 0.84592 0.34802 0.70748 0.0
C1467 C 0.86083 0.36037 0.72734 0.0
C1468 C 0.85661 0.39596 0.73351 0.0
C1469 C 0.83921 0.41891 0.7193 0.0
C1470 C 0.84831 0.31004 0.70077 0.0
C1471 C 0.87277 0.41049 0.75429 0.0
H1472 H 0.89213 0.30254 0.79135 0.0
H1473 H 0.97384 0.32937 0.74582 0.0
H1474 H 0.8269 0.34463 0.77236 0.0
H1475 H 0.8205 0.31255 0.7512 0.0
H1476 H 0.83216 0.29893 0.77873 0.0
H1477 H 0.96276 0.35187 0.71084 0.0
H1478 H 0.92008 0.3446 0.69905 0.0
H1479 H 0.92871 0.38423 0.7138 0.0
H1480 H 0.81998 0.36332 0.67738 0.0
H1481 H 0.83695 0.44644 0.72348 0.0
H1482 H 0.84797 0.29241 0.71528 0.0
H1483 H 0.87318 0.3056 0.69177 0.0
H1484 H 0.8264 0.30275 0.68963 0.0
H1485 H 0.86382 0.39532 0.76877 0.0
H1486 H 0.86606 0.43851 0.75694 0.0
H1487 H 0.90174 0.40808 0.75345 0.0
C1488 C 0.2982 0.12525 0.19915 0.0
C1489 C 0.32424 0.12005 0.1833 0.0
C1490 C 0.30489 0.14606 0.21772 0.0
C1491 C 0.33833 0.16164 0.22024 0.0
C1492 C 0.36289 0.16001 0.20283 0.0
C1493 C 0.35554 0.13903 0.18453 0.0
C1494 C 0.27776 0.1478 0.23571 0.0
C1495 C 0.39866 0.17666 0.20468 0.0
C1496 C 0.3654 0.21889 0.26832 0.0
C1497 C 0.38343 0.19463 0.28151 0.0
C1498 C 0.34881 0.2084 0.24879 0.0
C1499 C 0.35053 0.17287 0.24231 0.0
C1500 C 0.36712 0.14799 0.25614 0.0
C1501 C 0.38331 0.15919 0.27557 0.0
C1502 C 0.33098 0.23558 0.23465 0.0
C1503 C 0.36947 0.10973 0.24986 0.0
H1504 H 0.27409 0.11027 0.19819 0.0
H1505 H 0.37562 0.13476 0.1722 0.0
H1506 H 0.28443 0.12843 0.24866 0.0
H1507 H 0.2773 0.1741 0.24347 0.0
H1508 H 0.25114 0.14159 0.2294 0.0
H1509 H 0.4122 0.1779 0.18854 0.0
H1510 H 0.39668 0.20355 0.21148 0.0
H1511 H 0.41509 0.16101 0.21611 0.0
H1512 H 0.36485 0.24624 0.27305 0.0
H1513 H 0.3974 0.14036 0.28553 0.0
H1514 H 0.3056 0.22562 0.22829 0.0
H1515 H 0.34777 0.24157 0.22026 0.0
H1516 H 0.32623 0.26034 0.24379 0.0
H1517 H 0.34303 0.09925 0.24608 0.0
H1518 H 0.38131 0.09348 0.26307 0.0
H1519 H 0.38566 0.10687 0.23481 0.0
C1520 C 0.09486 0.67644 0.7893 0.0
C1521 C 0.06114 0.68916 0.7852 0.0
C1522 C 0.1183 0.67073 0.7719 0.0
C1523 C 0.10759 0.67832 0.7501 0.0
C1524 C 0.07444 0.69374 0.7462 0.0
C1525 C 0.05143 0.69869 0.76383 0.0
C1526 C 0.15338 0.65408 0.77667 0.0
C1527 C 0.06226 0.70266 0.72325 0.0
C1528 C 0.17482 0.67547 0.70417 0.0
C1529 C 0.16897 0.64196 0.69546 0.0
C1530 C 0.15493 0.68791 0.72193 0.0
C1531 C 0.12893 0.66607 0.73125 0.0
C1532 C 0.12284 0.63227 0.72244 0.0
C1533 C 0.14284 0.62071 0.70457 0.0
C1534 C 0.16171 0.72428 0.73072 0.0
C1535 C 0.09549 0.60808 0.73206 0.0
H1536 H 0.10202 0.66886 0.80589 0.0
H1537 H 0.02519 0.70854 0.76082 0.0
H1538 H 0.15331 0.62664 0.77062 0.0
H1539 H 0.17463 0.66815 0.76792 0.0
H1540 H 0.15944 0.65382 0.79454 0.0
H1541 H 0.03808 0.71889 0.72336 0.0
H1542 H 0.08301 0.71696 0.71416 0.0
H1543 H 0.05672 0.67814 0.71408 0.0
H1544 H 0.19488 0.69199 0.697 0.0
H1545 H 0.13872 0.59457 0.69812 0.0
H1546 H 0.16947 0.72285 0.74827 0.0
H1547 H 0.13736 0.74012 0.72985 0.0
H1548 H 0.18266 0.73808 0.72145 0.0
H1549 H 0.10118 0.60328 0.7497 0.0
H1550 H 0.09439 0.58244 0.72344 0.0
H1551 H 0.06925 0.62052 0.73108 0.0
C1552 C 0.23617 0.50164 0.53167 0.0
C1553 C 0.21119 0.5082 0.54798 0.0
C1554 C 0.22632 0.49915 0.50955 0.0
C1555 C 0.19054 0.50274 0.50377 0.0
C1556 C 0.16515 0.50916 0.52022 0.0
C1557 C 0.17587 0.51208 0.54217 0.0
C1558 C 0.25416 0.4927 0.49238 0.0
C1559 C 0.12671 0.51246 0.51467 0.0
C1560 C 0.17061 0.52347 0.44413 0.0
C1561 C 0.16502 0.48987 0.43562 0.0
C1562 C 0.17828 0.52824 0.46648 0.0
C1563 C 0.17973 0.49869 0.48053 0.0
C1564 C 0.17256 0.46487 0.47214 0.0
C1565 C 0.16555 0.46087 0.44971 0.0
C1566 C 0.18618 0.56463 0.47487 0.0
C1567 C 0.17321 0.43283 0.48671 0.0
H1568 H 0.26352 0.49912 0.53622 0.0
H1569 H 0.15659 0.51681 0.5549 0.0
H1570 H 0.24903 0.4675 0.48387 0.0
H1571 H 0.25333 0.51367 0.47975 0.0
H1572 H 0.28093 0.49179 0.49955 0.0
H1573 H 0.11038 0.51775 0.52942 0.0
H1574 H 0.12267 0.53394 0.50266 0.0
H1575 H 0.11732 0.48793 0.50684 0.0
H1576 H 0.17037 0.54578 0.43311 0.0
H1577 H 0.16064 0.43497 0.44308 0.0
H1578 H 0.21375 0.56588 0.48063 0.0
H1579 H 0.16923 0.57089 0.48914 0.0
H1580 H 0.18225 0.58498 0.46204 0.0
H1581 H 0.20018 0.42848 0.49298 0.0
H1582 H 0.16459 0.40883 0.47789 0.0
H1583 H 0.15598 0.43681 0.50118 0.0
C1584 C 0.50188 0.83014 0.44808 0.0
C1585 C 0.50484 0.8027 0.43292 0.0
C1586 C 0.50787 0.82451 0.47049 0.0
C1587 C 0.51673 0.7905 0.47794 0.0
C1588 C 0.51957 0.76257 0.46275 0.0
C1589 C 0.51376 0.76907 0.44034 0.0
C1590 C 0.50492 0.85508 0.48618 0.0
C1591 C 0.52852 0.72591 0.47019 0.0
C1592 C 0.55965 0.79115 0.53395 0.0
C1593 C 0.53044 0.7875 0.54777 0.0
C1594 C 0.55601 0.79 0.51102 0.0
C1595 C 0.52244 0.78458 0.50175 0.0
C1596 C 0.4934 0.77799 0.51555 0.0
C1597 C 0.49768 0.77974 0.53838 0.0
C1598 C 0.58764 0.79706 0.49679 0.0
C1599 C 0.45722 0.77166 0.50624 0.0
H1600 H 0.49567 0.85627 0.44233 0.0
H1601 H 0.51583 0.74782 0.4286 0.0
H1602 H 0.48431 0.84973 0.4986 0.0
H1603 H 0.52999 0.85865 0.49516 0.0
H1604 H 0.49839 0.87997 0.47764 0.0
H1605 H 0.53003 0.70717 0.45625 0.0
H1606 H 0.55403 0.72589 0.47895 0.0
H1607 H 0.50846 0.71645 0.48198 0.0
H1608 H 0.58519 0.79626 0.54102 0.0
H1609 H 0.47477 0.777 0.54868 0.0
H1610 H 0.58507 0.82333 0.48913 0.0
H1611 H 0.58933 0.77762 0.48328 0.0
H1612 H 0.61245 0.79636 0.50634 0.0
H1613 H 0.44668 0.79654 0.49951 0.0
H1614 H 0.4387 0.76181 0.51891 0.0
H1615 H 0.45828 0.75249 0.49255 0.0
C1616 C 0.79846 0.46017 0.4347 0.0
C1617 C 0.79148 0.49184 0.4238 0.0
C1618 C 0.79939 0.45858 0.45775 0.0
C1619 C 0.79291 0.48932 0.47008 0.0
C1620 C 0.78307 0.52058 0.45927 0.0
C1621 C 0.78264 0.5215 0.43632 0.0
C1622 C 0.80961 0.42467 0.46879 0.0
C1623 C 0.7757 0.55391 0.47187 0.0
C1624 C 0.78193 0.49066 0.53197 0.0
C1625 C 0.81512 0.50233 0.53864 0.0
C1626 C 0.77455 0.4847 0.50968 0.0
C1627 C 0.80106 0.49056 0.49386 0.0
C1628 C 0.83498 0.50105 0.50063 0.0
C1629 C 0.84155 0.50685 0.52295 0.0
C1630 C 0.7381 0.47357 0.50302 0.0
C1631 C 0.86405 0.50733 0.48424 0.0
H1632 H 0.80449 0.4369 0.42525 0.0
H1633 H 0.77739 0.54628 0.42838 0.0
H1634 H 0.83686 0.42681 0.47504 0.0
H1635 H 0.79242 0.41933 0.48311 0.0
H1636 H 0.80827 0.40206 0.45732 0.0
H1637 H 0.76412 0.57461 0.46127 0.0
H1638 H 0.75754 0.54876 0.48573 0.0
H1639 H 0.80051 0.56411 0.47895 0.0
H1640 H 0.76145 0.48721 0.5441 0.0
H1641 H 0.86746 0.51499 0.52813 0.0
H1642 H 0.73924 0.45132 0.49131 0.0
H1643 H 0.72481 0.49558 0.4945 0.0
H1644 H 0.72193 0.46578 0.51739 0.0
H1645 H 0.86738 0.48407 0.4735 0.0
H1646 H 0.88951 0.51307 0.49235 0.0
H1647 H 0.85713 0.52981 0.4735 0.0
C1648 C 0.52814 0.19365 0.453 0.0
C1649 C 0.49628 0.18999 0.44184 0.0
C1650 C 0.5289 0.19999 0.47568 0.0
C1651 C 0.49699 0.20182 0.4875 0.0
C1652 C 0.46468 0.19822 0.47626 0.0
C1653 C 0.46472 0.19274 0.45346 0.0
C1654 C 0.56386 0.20444 0.48701 0.0
C1655 C 0.43019 0.19923 0.4884 0.0
C1656 C 0.50587 0.18141 0.54815 0.0
C1657 C 0.50551 0.21499 0.55738 0.0
C1658 C 0.50155 0.17665 0.52548 0.0
C1659 C 0.4977 0.20633 0.51172 0.0
C1660 C 0.49663 0.24032 0.52106 0.0
C1661 C 0.50015 0.2442 0.54389 0.0
C1662 C 0.50199 0.13994 0.5162 0.0
C1663 C 0.4933 0.27261 0.50686 0.0
H1664 H 0.55246 0.19187 0.44388 0.0
H1665 H 0.44014 0.18953 0.44476 0.0
H1666 H 0.56433 0.22947 0.4963 0.0
H1667 H 0.56787 0.18297 0.49905 0.0
H1668 H 0.5861 0.20431 0.47523 0.0
H1669 H 0.40737 0.19677 0.47715 0.0
H1670 H 0.4292 0.17754 0.50054 0.0
H1671 H 0.42773 0.2241 0.4977 0.0
H1672 H 0.50972 0.15891 0.55875 0.0
H1673 H 0.50025 0.27014 0.55113 0.0
H1674 H 0.52563 0.13631 0.50585 0.0
H1675 H 0.47878 0.13567 0.50553 0.0
H1676 H 0.50214 0.11966 0.52931 0.0
H1677 H 0.51656 0.27479 0.496 0.0
H1678 H 0.49117 0.29697 0.51677 0.0
H1679 H 0.46993 0.27055 0.49609 0.0
C1680 C 0.70913 0.98278 0.95276 0.0
C1681 C 0.69969 0.01206 0.94005 0.0
C1682 C 0.71119 0.98477 0.97568 0.0
C1683 C 0.70305 0.01666 0.98631 0.0
C1684 C 0.6945 0.04664 0.9737 0.0
C1685 C 0.6931 0.04403 0.95069 0.0
C1686 C 0.72062 0.95224 0.98857 0.0
C1687 C 0.68557 0.08108 0.98454 0.0
C1688 C 0.66761 0.00682 0.04405 0.0
C1689 C 0.69709 0.01485 0.05683 0.0
C1690 C 0.66902 0.00822 0.02107 0.0
C1691 C 0.7008 0.01762 0.01064 0.0
C1692 C 0.73063 0.02603 0.02344 0.0
C1693 C 0.72835 0.0247 0.04644 0.0
C1694 C 0.63656 0.99935 0.00797 0.0
C1695 C 0.76504 0.03575 0.01283 0.0
H1696 H 0.7137 0.95772 0.94498 0.0
H1697 H 0.68631 0.06691 0.94108 0.0
H1698 H 0.74175 0.95809 0.00056 0.0
H1699 H 0.69749 0.94321 -0.00195 0.0
H1700 H 0.72943 0.93047 0.97778 0.0
H1701 H 0.68194 0.10252 0.9724 0.0
H1702 H 0.66102 0.0782 -0.00585 0.0
H1703 H 0.70652 0.08874 -0.00376 0.0
H1704 H 0.6432 0.99996 0.05204 0.0
H1705 H 0.75117 0.03078 0.05634 0.0
H1706 H 0.6415 0.97585 -0.00231 0.0
H1707 H 0.62997 0.02122 -0.00332 0.0
H1708 H 0.61354 0.99406 0.01864 0.0
H1709 H 0.77497 0.01331 0.00306 0.0
H1710 H 0.78528 0.04314 0.02513 0.0
H1711 H 0.76127 0.05798 0.00132 0.0
C1712 C 0.03605 0.3079 0.93313 0.0
C1713 C 1.00327 0.30377 0.92302 0.0
C1714 C 0.03937 0.30716 0.95602 0.0
C1715 C 0.00919 0.30184 0.96906 0.0
C1716 C 0.97602 0.29741 0.95895 0.0
C1717 C 0.97342 0.29875 0.93596 0.0
C1718 C 0.07508 0.31258 0.96623 0.0
C1719 C 0.94337 0.29126 0.97242 0.0
C1720 C 0.02279 0.26933 0.02724 0.0
C1721 C 0.01784 0.30013 0.03936 0.0
C1722 C 0.0199 0.26946 0.00429 0.0
C1723 C 0.01241 0.30128 -0.0067 0.0
C1724 C 0.00827 0.33264 0.00545 0.0
C1725 C 0.01078 0.3316 0.0284 0.0
C1726 C 0.02411 0.23548 -0.00816 0.0
C1727 C 1.00094 0.36717 -0.00578 0.0
H1728 H 0.05904 0.31261 0.92312 0.0
H1729 H 0.94817 0.29556 0.92804 0.0
H1730 H 0.07459 0.33595 0.97707 0.0
H1731 H 0.08207 0.28975 0.97662 0.0
H1732 H 0.09592 0.31625 0.95369 0.0
H1733 H 0.91976 0.28743 0.96199 0.0
H1734 H 0.94685 0.26779 0.98297 0.0
H1735 H 0.93873 0.31389 0.98349 0.0
H1736 H 0.02765 0.24491 0.0358 0.0
H1737 H 0.00713 0.35536 0.03789 0.0
H1738 H 0.04567 0.23784 0.9797 0.0
H1739 H 0.99978 0.22967 0.98252 0.0
H1740 H 0.02986 0.21302 0.00289 0.0
H1741 H 0.02182 0.37296 0.98207 0.0
H1742 H 0.99937 0.38928 0.00606 0.0
H1743 H 0.97583 0.36563 0.98508 0.0
C1744 C 0.30966 0.97142 0.03884 0.0
C1745 C 0.31508 1.00529 0.04709 0.0
C1746 C 0.30301 0.9659 0.01645 0.0
C1747 C 0.30127 0.99504 0.00214 0.0
C1748 C 0.30601 0.02937 0.01048 0.0
C1749 C 0.31321 0.03404 0.03288 0.0
C1750 C 0.29877 0.9289 0.00805 0.0
C1751 C 0.30383 0.06112 -0.00428 0.0
C1752 C 0.32051 0.98698 0.94146 0.0
C1753 C 0.28677 0.9879 0.93247 0.0
C1754 C 0.32554 0.9875 0.96423 0.0
C1755 C 0.29604 0.98976 0.97824 0.0
C1756 C 0.26179 0.98936 0.96924 0.0
C1757 C 0.25756 0.9881 0.94635 0.0
C1758 C 0.36245 0.98709 0.97323 0.0
C1759 C 0.22977 0.99219 0.98369 0.0
H1760 H 0.31159 0.94917 0.04983 0.0
H1761 H 0.31707 0.06019 0.03938 0.0
H1762 H 0.27359 0.92619 -0.0009 0.0
H1763 H 0.32005 0.92284 -0.00378 0.0
H1764 H 0.29951 0.90923 0.02151 0.0
H1765 H 0.30625 0.08606 0.00503 0.0
H1766 H 0.32501 0.06012 0.98325 0.0
H1767 H 0.2785 0.06122 0.98674 0.0
H1768 H 0.34295 0.98658 0.93054 0.0
H1769 H 0.23153 0.9892 0.93924 0.0
H1770 H 0.36504 0.9668 0.98619 0.0
H1771 H 0.36846 0.01277 0.98091 0.0
H1772 H 0.38224 0.9819 0.96024 0.0
H1773 H 0.23063 0.97217 -0.0031 0.0
H1774 H 0.20505 0.9889 0.97425 0.0
H1775 H 0.22937 0.01826 -0.00822 0.0
C1776 C 0.96507 0.68302 0.94693 0.0
C1777 C 0.99516 0.68065 0.93385 0.0
C1778 C 0.96762 0.68943 0.96954 0.0
C1779 C 1.00107 0.69426 0.97912 0.0
C1780 C 0.03159 0.69182 0.96597 0.0
C1781 C 0.02825 0.68464 0.94346 0.0
C1782 C 0.93455 0.69108 0.98314 0.0
C1783 C 0.06764 0.69744 0.9756 0.0
C1784 C 1.00427 0.74467 0.03275 0.0
C1785 C 0.00911 0.71759 0.04795 0.0
C1786 C 1.00212 0.73748 0.0102 0.0
C1787 C 1.00404 0.70231 0.00287 0.0
C1788 C 0.00841 0.67482 0.01825 0.0
C1789 C 0.0113 0.68288 0.04064 0.0
C1790 C 0.99808 0.76749 -0.00579 0.0
C1791 C 0.00973 0.63695 0.01109 0.0
H1792 H 0.93954 0.67943 0.93945 0.0
H1793 H 0.05141 0.68305 0.93321 0.0
H1794 H 0.93603 0.67193 -0.00317 0.0
H1795 H 0.93179 0.71747 0.99057 0.0
H1796 H 0.9107 0.68545 0.97326 0.0
H1797 H 0.08868 0.69475 0.96309 0.0
H1798 H 0.06931 0.72399 0.98297 0.0
H1799 H 0.07253 0.67827 0.98895 0.0
H1800 H 1.00295 0.77149 0.03853 0.0
H1801 H 0.01465 0.66202 0.05255 0.0
H1802 H 0.97325 0.76463 0.98489 0.0
H1803 H 0.0198 0.76704 0.98209 0.0
H1804 H 0.99799 0.79337 0.00257 0.0
H1805 H 0.98548 0.63015 0.00195 0.0
H1806 H 0.01249 0.6187 0.02522 0.0
H1807 H 0.0321 0.63279 -0.00025 0.0
loop_
_geom_bond_atom_site_label_1
_geom_bond_atom_site_label_2
_geom_bond_distance
_geom_bond_site_symmetry_2
_ccdc_geom_bond_type
C0 C1 1.351 . S
C0 N3 1.368 . S
C0 H5 0.931 . S
C1 C0 1.351 . S
C1 N2 1.373 . S
C1 H29 0.930 . S
N2 C1 1.373 . S
N2 C4 1.340 . S
N3 C0 1.368 . S
N3 C4 1.321 . S
N3 Co6 2.135 . S
C4 N2 1.340 . S
C4 N3 1.321 . S
C4 H28 0.930 . S
H5 C0 0.931 . S
Co6 N3 2.135 . S
Co6 N9 2.121 . S
Co6 O14 2.055 . S
Co6 O17 2.039 . S
Co6 N20 2.140 . S
C7 O8 1.227 . S
C7 O17 1.265 . S
O8 C7 1.227 . S
N9 Co6 2.121 . S
N9 C11 1.375 . S
N9 C12 1.313 . S
C10 C11 1.338 . S
C10 N13 1.377 . S
C10 H30 0.930 . S
C11 N9 1.375 . S
C11 C10 1.338 . S
C11 H15 0.931 . S
C12 N9 1.313 . S
C12 N13 1.344 . S
C12 H16 0.930 . S
N13 C10 1.377 . S
N13 C12 1.344 . S
O14 Co6 2.055 . S
O14 C18 1.253 . S
H15 C11 0.931 . S
H16 C12 0.930 . S
O17 Co6 2.039 . S
O17 C7 1.265 . S
C18 O14 1.253 . S
C18 O19 1.227 . S
O19 C18 1.227 . S
N20 Co6 2.140 . S
N20 C23 1.346 . S
N20 C24 1.345 . S
C21 C22 1.387 . S
C21 C25 1.391 . S
C22 C21 1.387 . S
C22 C23 1.369 . S
C22 H31 0.929 . S
C23 N20 1.346 . S
C23 C22 1.369 . S
C23 H26 0.928 . S
C24 N20 1.345 . S
C24 C25 1.371 . S
C24 H27 0.931 . S
C25 C21 1.391 . S
C25 C24 1.371 . S
C25 H32 0.930 . S
H26 C23 0.928 . S
H27 C24 0.931 . S
H28 C4 0.930 . S
H29 C1 0.930 . S
H30 C10 0.930 . S
H31 C22 0.929 . S
H32 C25 0.930 . S
C33 C34 1.351 . S
C33 N36 1.368 . S
C33 H38 0.931 . S
C34 C33 1.351 . S
C34 N35 1.373 . S
C34 H62 0.930 . S
N35 C34 1.373 . S
N35 C37 1.340 . S
N36 C33 1.368 . S
N36 C37 1.321 . S
N36 Co39 2.135 . S
C37 N35 1.340 . S
C37 N36 1.321 . S
C37 H61 0.930 . S
H38 C33 0.931 . S
Co39 N36 2.135 . S
Co39 N42 2.121 . S
Co39 O47 2.055 . S
Co39 O50 2.039 . S
Co39 N53 2.140 . S
C40 O41 1.227 . S
C40 O50 1.265 . S
O41 C40 1.227 . S
N42 Co39 2.121 . S
N42 C44 1.375 . S
N42 C45 1.313 . S
C43 C44 1.338 . S
C43 N46 1.377 . S
C43 H63 0.930 . S
C44 N42 1.375 . S
C44 C43 1.338 . S
C44 H48 0.931 . S
C45 N42 1.313 . S
C45 N46 1.344 . S
C45 H49 0.930 . S
N46 C43 1.377 . S
N46 C45 1.344 . S
O47 Co39 2.055 . S
O47 C51 1.253 . S
H48 C44 0.931 . S
H49 C45 0.930 . S
O50 Co39 2.039 . S
O50 C40 1.265 . S
C51 O47 1.253 . S
C51 O52 1.227 . S
O52 C51 1.227 . S
N53 Co39 2.140 . S
N53 C56 1.346 . S
N53 C57 1.345 . S
C54 C55 1.387 . S
C54 C58 1.391 . S
C55 C54 1.387 . S
C55 C56 1.369 . S
C55 H64 0.929 . S
C56 N53 1.346 . S
C56 C55 1.369 . S
C56 H59 0.928 . S
C57 N53 1.345 . S
C57 C58 1.371 . S
C57 H60 0.931 . S
C58 C54 1.391 . S
C58 C57 1.371 . S
C58 H65 0.930 . S
H59 C56 0.928 . S
H60 C57 0.931 . S
H61 C37 0.930 . S
H62 C34 0.930 . S
H63 C43 0.930 . S
H64 C55 0.929 . S
H65 C58 0.930 . S
C66 C67 1.351 . S
C66 N69 1.368 . S
C66 H71 0.931 . S
C67 C66 1.351 . S
C67 N68 1.373 . S
C67 H95 0.930 . S
N68 C67 1.373 . S
N68 C70 1.340 . S
N69 C66 1.368 . S
N69 C70 1.321 . S
N69 Co72 2.135 . S
C70 N68 1.340 . S
C70 N69 1.321 . S
C70 H94 0.930 . S
H71 C66 0.931 . S
Co72 N69 2.135 . S
Co72 N75 2.121 . S
Co72 O80 2.055 . S
Co72 O83 2.039 . S
Co72 N86 2.140 . S
C73 O74 1.227 . S
C73 O83 1.265 . S
O74 C73 1.227 . S
N75 Co72 2.121 . S
N75 C77 1.375 . S
N75 C78 1.313 . S
C76 C77 1.338 . S
C76 N79 1.377 . S
C76 H96 0.930 . S
C77 N75 1.375 . S
C77 C76 1.338 . S
C77 H81 0.931 . S
C78 N75 1.313 . S
C78 N79 1.344 . S
C78 H82 0.930 . S
N79 C76 1.377 . S
N79 C78 1.344 . S
O80 Co72 2.055 . S
O80 C84 1.253 . S
H81 C77 0.931 . S
H82 C78 0.930 . S
O83 Co72 2.039 . S
O83 C73 1.265 . S
C84 O80 1.253 . S
C84 O85 1.227 . S
O85 C84 1.227 . S
N86 Co72 2.140 . S
N86 C89 1.346 . S
N86 C90 1.345 . S
C87 C88 1.387 . S
C87 C91 1.391 . S
C88 C87 1.387 . S
C88 C89 1.369 . S
C88 H97 0.929 . S
C89 N86 1.346 . S
C89 C88 1.369 . S
C89 H92 0.928 . S
C90 N86 1.345 . S
C90 C91 1.371 . S
C90 H93 0.931 . S
C91 C87 1.391 . S
C91 C90 1.371 . S
C91 H98 0.930 . S
H92 C89 0.928 . S
H93 C90 0.931 . S
H94 C70 0.930 . S
H95 C67 0.930 . S
H96 C76 0.930 . S
H97 C88 0.929 . S
H98 C91 0.930 . S
C99 C100 1.351 . S
C99 N102 1.368 . S
C99 H104 0.931 . S
C100 C99 1.351 . S
C100 N101 1.373 . S
C100 H128 0.930 . S
N101 C100 1.373 . S
N101 C103 1.340 . S
N102 C99 1.368 . S
N102 C103 1.321 . S
N102 Co105 2.135 . S
C103 N101 1.340 . S
C103 N102 1.321 . S
C103 H127 0.930 . S
H104 C99 0.931 . S
Co105 N102 2.135 . S
Co105 N108 2.121 . S
Co105 O113 2.055 . S
Co105 O116 2.039 . S
Co105 N119 2.140 . S
C106 O107 1.227 . S
C106 O116 1.265 . S
O107 C106 1.227 . S
N108 Co105 2.121 . S
N108 C110 1.375 . S
N108 C111 1.313 . S
C109 C110 1.338 . S
C109 N112 1.377 . S
C109 H129 0.930 . S
C110 N108 1.375 . S
C110 C109 1.338 . S
C110 H114 0.931 . S
C111 N108 1.313 . S
C111 N112 1.344 . S
C111 H115 0.930 . S
N112 C109 1.377 . S
N112 C111 1.344 . S
O113 Co105 2.055 . S
O113 C117 1.253 . S
H114 C110 0.931 . S
H115 C111 0.930 . S
O116 Co105 2.039 . S
O116 C106 1.265 . S
C117 O113 1.253 . S
C117 O118 1.227 . S
O118 C117 1.227 . S
N119 Co105 2.140 . S
N119 C122 1.346 . S
N119 C123 1.345 . S
C120 C121 1.387 . S
C120 C124 1.391 . S
C121 C120 1.387 . S
C121 C122 1.369 . S
C121 H130 0.929 . S
C122 N119 1.346 . S
C122 C121 1.369 . S
C122 H125 0.928 . S
C123 N119 1.345 . S
C123 C124 1.371 . S
C123 H126 0.931 . S
C124 C120 1.391 . S
C124 C123 1.371 . S
C124 H131 0.930 . S
H125 C122 0.928 . S
H126 C123 0.931 . S
H127 C103 0.930 . S
H128 C100 0.930 . S
H129 C109 0.930 . S
H130 C121 0.929 . S
H131 C124 0.930 . S
C132 C133 1.351 . S
C132 N135 1.368 . S
C132 H137 0.931 . S
C133 C132 1.351 . S
C133 N134 1.373 . S
C133 H161 0.930 . S
N134 C133 1.373 . S
N134 C136 1.340 . S
N135 C132 1.368 . S
N135 C136 1.321 . S
N135 Co138 2.135 . S
C136 N134 1.340 . S
C136 N135 1.321 . S
C136 H160 0.930 . S
H137 C132 0.931 . S
Co138 N135 2.135 . S
Co138 N141 2.121 . S
Co138 O146 2.055 . S
Co138 O149 2.039 . S
Co138 N152 2.140 . S
C139 O140 1.227 . S
C139 O149 1.265 . S
O140 C139 1.227 . S
N141 Co138 2.121 . S
N141 C143 1.375 . S
N141 C144 1.313 . S
C142 C143 1.338 . S
C142 N145 1.377 . S
C142 H162 0.930 . S
C143 N141 1.375 . S
C143 C142 1.338 . S
C143 H147 0.931 . S
C144 N141 1.313 . S
C144 N145 1.344 . S
C144 H148 0.930 . S
N145 C142 1.377 . S
N145 C144 1.344 . S
O146 Co138 2.055 . S
O146 C150 1.253 . S
H147 C143 0.931 . S
H148 C144 0.930 . S
O149 Co138 2.039 . S
O149 C139 1.265 . S
C150 O146 1.253 . S
C150 O151 1.227 . S
O151 C150 1.227 . S
N152 Co138 2.140 . S
N152 C155 1.346 . S
N152 C156 1.345 . S
C153 C154 1.387 . S
C153 C157 1.391 . S
C154 C153 1.387 . S
C154 C155 1.369 . S
C154 H163 0.929 . S
C155 N152 1.346 . S
C155 C154 1.369 . S
C155 H158 0.928 . S
C156 N152 1.345 . S
C156 C157 1.371 . S
C156 H159 0.931 . S
C157 C153 1.391 . S
C157 C156 1.371 . S
C157 H164 0.930 . S
H158 C155 0.928 . S
H159 C156 0.931 . S
H160 C136 0.930 . S
H161 C133 0.930 . S
H162 C142 0.930 . S
H163 C154 0.929 . S
H164 C157 0.930 . S
C165 C166 1.351 . S
C165 N168 1.368 . S
C165 H170 0.931 . S
C166 C165 1.351 . S
C166 N167 1.373 . S
C166 H194 0.930 . S
N167 C166 1.373 . S
N167 C169 1.340 . S
N168 C165 1.368 . S
N168 C169 1.321 . S
N168 Co171 2.135 . S
C169 N167 1.340 . S
C169 N168 1.321 . S
C169 H193 0.930 . S
H170 C165 0.931 . S
Co171 N168 2.135 . S
Co171 N174 2.121 . S
Co171 O179 2.055 . S
Co171 O182 2.039 . S
Co171 N185 2.140 . S
C172 O173 1.227 . S
C172 O182 1.265 . S
O173 C172 1.227 . S
N174 Co171 2.121 . S
N174 C176 1.375 . S
N174 C177 1.313 . S
C175 C176 1.338 . S
C175 N178 1.377 . S
C175 H195 0.930 . S
C176 N174 1.375 . S
C176 C175 1.338 . S
C176 H180 0.931 . S
C177 N174 1.313 . S
C177 N178 1.344 . S
C177 H181 0.930 . S
N178 C175 1.377 . S
N178 C177 1.344 . S
O179 Co171 2.055 . S
O179 C183 1.253 . S
H180 C176 0.931 . S
H181 C177 0.930 . S
O182 Co171 2.039 . S
O182 C172 1.265 . S
C183 O179 1.253 . S
C183 O184 1.227 . S
O184 C183 1.227 . S
N185 Co171 2.140 . S
N185 C188 1.346 . S
N185 C189 1.345 . S
C186 C187 1.387 . S
C186 C190 1.391 . S
C187 C186 1.387 . S
C187 C188 1.369 . S
C187 H196 0.929 . S
C188 N185 1.346 . S
C188 C187 1.369 . S
C188 H191 0.928 . S
C189 N185 1.345 . S
C189 C190 1.371 . S
C189 H192 0.931 . S
C190 C186 1.391 . S
C190 C189 1.371 . S
C190 H197 0.930 . S
H191 C188 0.928 . S
H192 C189 0.931 . S
H193 C169 0.930 . S
H194 C166 0.930 . S
H195 C175 0.930 . S
H196 C187 0.929 . S
H197 C190 0.930 . S
C198 C199 1.351 . S
C198 N201 1.368 . S
C198 H203 0.931 . S
C199 C198 1.351 . S
C199 N200 1.373 . S
C199 H227 0.930 . S
N200 C199 1.373 . S
N200 C202 1.340 . S
N201 C198 1.368 . S
N201 C202 1.321 . S
N201 Co204 2.135 . S
C202 N200 1.340 . S
C202 N201 1.321 . S
C202 H226 0.930 . S
H203 C198 0.931 . S
Co204 N201 2.135 . S
Co204 N207 2.121 . S
Co204 O212 2.055 . S
Co204 O215 2.039 . S
Co204 N218 2.140 . S
C205 O206 1.227 . S
C205 O215 1.265 . S
O206 C205 1.227 . S
N207 Co204 2.121 . S
N207 C209 1.375 . S
N207 C210 1.313 . S
C208 C209 1.338 . S
C208 N211 1.377 . S
C208 H228 0.930 . S
C209 N207 1.375 . S
C209 C208 1.338 . S
C209 H213 0.931 . S
C210 N207 1.313 . S
C210 N211 1.344 . S
C210 H214 0.930 . S
N211 C208 1.377 . S
N211 C210 1.344 . S
O212 Co204 2.055 . S
O212 C216 1.253 . S
H213 C209 0.931 . S
H214 C210 0.930 . S
O215 Co204 2.039 . S
O215 C205 1.265 . S
C216 O212 1.253 . S
C216 O217 1.227 . S
O217 C216 1.227 . S
N218 Co204 2.140 . S
N218 C221 1.346 . S
N218 C222 1.345 . S
C219 C220 1.387 . S
C219 C223 1.391 . S
C220 C219 1.387 . S
C220 C221 1.369 . S
C220 H229 0.929 . S
C221 N218 1.346 . S
C221 C220 1.369 . S
C221 H224 0.928 . S
C222 N218 1.345 . S
C222 C223 1.371 . S
C222 H225 0.931 . S
C223 C219 1.391 . S
C223 C222 1.371 . S
C223 H230 0.930 . S
H224 C221 0.928 . S
H225 C222 0.931 . S
H226 C202 0.930 . S
H227 C199 0.930 . S
H228 C208 0.930 . S
H229 C220 0.929 . S
H230 C223 0.930 . S
C231 C232 1.351 . S
C231 N234 1.368 . S
C231 H236 0.931 . S
C232 C231 1.351 . S
C232 N233 1.373 . S
C232 H260 0.930 . S
N233 C232 1.373 . S
N233 C235 1.340 . S
N234 C231 1.368 . S
N234 C235 1.321 . S
N234 Co237 2.135 . S
C235 N233 1.340 . S
C235 N234 1.321 . S
C235 H259 0.930 . S
H236 C231 0.931 . S
Co237 N234 2.135 . S
Co237 N240 2.121 . S
Co237 O245 2.055 . S
Co237 O248 2.039 . S
Co237 N251 2.140 . S
C238 O239 1.227 . S
C238 O248 1.265 . S
O239 C238 1.227 . S
N240 Co237 2.121 . S
N240 C242 1.375 . S
N240 C243 1.313 . S
C241 C242 1.338 . S
C241 N244 1.377 . S
C241 H261 0.930 . S
C242 N240 1.375 . S
C242 C241 1.338 . S
C242 H246 0.931 . S
C243 N240 1.313 . S
C243 N244 1.344 . S
C243 H247 0.930 . S
N244 C241 1.377 . S
N244 C243 1.344 . S
O245 Co237 2.055 . S
O245 C249 1.253 . S
H246 C242 0.931 . S
H247 C243 0.930 . S
O248 Co237 2.039 . S
O248 C238 1.265 . S
C249 O245 1.253 . S
C249 O250 1.227 . S
O250 C249 1.227 . S
N251 Co237 2.140 . S
N251 C254 1.346 . S
N251 C255 1.345 . S
C252 C253 1.387 . S
C252 C256 1.391 . S
C253 C252 1.387 . S
C253 C254 1.369 . S
C253 H262 0.929 . S
C254 N251 1.346 . S
C254 C253 1.369 . S
C254 H257 0.928 . S
C255 N251 1.345 . S
C255 C256 1.371 . S
C255 H258 0.931 . S
C256 C252 1.391 . S
C256 C255 1.371 . S
C256 H263 0.930 . S
H257 C254 0.928 . S
H258 C255 0.931 . S
H259 C235 0.930 . S
H260 C232 0.930 . S
H261 C241 0.930 . S
H262 C253 0.929 . S
H263 C256 0.930 . S
C264 C265 1.351 . S
C264 N267 1.368 . S
C264 H269 0.931 . S
C265 C264 1.351 . S
C265 N266 1.373 . S
C265 H293 0.930 . S
N266 C265 1.373 . S
N266 C268 1.340 . S
N267 C264 1.368 . S
N267 C268 1.321 . S
N267 Co270 2.135 . S
C268 N266 1.340 . S
C268 N267 1.321 . S
C268 H292 0.930 . S
H269 C264 0.931 . S
Co270 N267 2.135 . S
Co270 N273 2.121 . S
Co270 O278 2.055 . S
Co270 O281 2.039 . S
Co270 N284 2.140 . S
C271 O272 1.227 . S
C271 O281 1.265 . S
O272 C271 1.227 . S
N273 Co270 2.121 . S
N273 C275 1.375 1_565 S
N273 C276 1.313 . S
C274 C275 1.338 . S
C274 N277 1.381 . S
C274 H294 0.930 . S
C275 N273 1.375 1_545 S
C275 C274 1.338 . S
C275 H279 0.931 . S
C276 N273 1.313 . S
C276 N277 1.338 1_565 S
C276 H280 0.930 . S
N277 C274 1.381 . S
N277 C276 1.338 1_545 S
O278 Co270 2.055 . S
O278 C282 1.253 . S
H279 C275 0.931 . S
H280 C276 0.930 . S
O281 Co270 2.039 . S
O281 C271 1.265 . S
C282 O278 1.253 . S
C282 O283 1.227 . S
O283 C282 1.227 . S
N284 Co270 2.140 . S
N284 C287 1.346 1_565 S
N284 C288 1.345 1_565 S
C285 C286 1.387 . S
C285 C289 1.391 . S
C286 C285 1.387 . S
C286 C287 1.369 . S
C286 H295 0.929 . S
C287 N284 1.346 1_545 S
C287 C286 1.369 . S
C287 H290 0.928 1_545 S
C288 N284 1.345 1_545 S
C288 C289 1.371 . S
C288 H291 0.931 . S
C289 C285 1.391 . S
C289 C288 1.371 . S
C289 H296 0.930 . S
H290 C287 0.928 1_565 S
H291 C288 0.931 . S
H292 C268 0.930 . S
H293 C265 0.930 . S
H294 C274 0.930 . S
H295 C286 0.929 . S
H296 C289 0.930 . S
C297 C298 1.351 . S
C297 N300 1.368 . S
C297 H302 0.931 . S
C298 C297 1.351 . S
C298 N299 1.373 . S
C298 H326 0.930 . S
N299 C298 1.373 . S
N299 C301 1.340 . S
N300 C297 1.368 . S
N300 C301 1.321 . S
N300 Co303 2.135 . S
C301 N299 1.340 . S
C301 N300 1.321 . S
C301 H325 0.930 . S
H302 C297 0.931 . S
Co303 N300 2.135 . S
Co303 N306 2.121 . S
Co303 O311 2.055 . S
Co303 O314 2.039 . S
Co303 N317 2.140 . S
C304 O305 1.227 . S
C304 O314 1.265 . S
O305 C304 1.227 . S
N306 Co303 2.121 . S
N306 C308 1.375 1_655 S
N306 C309 1.313 . S
C307 C308 1.338 . S
C307 N310 1.381 . S
C307 H327 0.930 . S
C308 N306 1.375 1_455 S
C308 C307 1.338 . S
C308 H312 0.931 . S
C309 N306 1.313 . S
C309 N310 1.338 1_655 S
C309 H313 0.930 . S
N310 C307 1.381 . S
N310 C309 1.338 1_455 S
O311 Co303 2.055 . S
O311 C315 1.253 . S
H312 C308 0.931 . S
H313 C309 0.930 . S
O314 Co303 2.039 . S
O314 C304 1.265 . S
C315 O311 1.253 . S
C315 O316 1.227 . S
O316 C315 1.227 . S
N317 Co303 2.140 . S
N317 C320 1.346 1_655 S
N317 C321 1.345 1_655 S
C318 C319 1.387 . S
C318 C322 1.391 . S
C319 C318 1.387 . S
C319 C320 1.369 . S
C319 H328 0.929 . S
C320 N317 1.346 1_455 S
C320 C319 1.369 . S
C320 H323 0.928 1_455 S
C321 N317 1.345 1_455 S
C321 C322 1.371 . S
C321 H324 0.931 . S
C322 C318 1.391 . S
C322 C321 1.371 . S
C322 H329 0.930 . S
H323 C320 0.928 1_655 S
H324 C321 0.931 . S
H325 C301 0.930 . S
H326 C298 0.930 . S
H327 C307 0.930 . S
H328 C319 0.929 . S
H329 C322 0.930 . S
C330 C331 1.351 . S
C330 N333 1.368 . S
C330 H335 0.931 . S
C331 C330 1.351 . S
C331 N332 1.373 . S
C331 H359 0.930 . S
N332 C331 1.373 . S
N332 C334 1.340 . S
N333 C330 1.368 . S
N333 C334 1.321 . S
N333 Co336 2.135 . S
C334 N332 1.340 . S
C334 N333 1.321 . S
C334 H358 0.930 . S
H335 C330 0.931 . S
Co336 N333 2.135 . S
Co336 N339 2.121 . S
Co336 O344 2.055 . S
Co336 O347 2.039 . S
Co336 N350 2.140 . S
C337 O338 1.227 . S
C337 O347 1.265 . S
O338 C337 1.227 . S
N339 Co336 2.121 . S
N339 C341 1.375 1_545 S
N339 C342 1.313 . S
C340 C341 1.338 . S
C340 N343 1.381 . S
C340 H360 0.930 . S
C341 N339 1.375 1_565 S
C341 C340 1.338 . S
C341 H345 0.931 . S
C342 N339 1.313 . S
C342 N343 1.338 1_545 S
C342 H346 0.930 . S
N343 C340 1.381 . S
N343 C342 1.338 1_565 S
O344 Co336 2.055 . S
O344 C348 1.253 . S
H345 C341 0.931 . S
H346 C342 0.930 . S
O347 Co336 2.039 . S
O347 C337 1.265 . S
C348 O344 1.253 . S
C348 O349 1.227 . S
O349 C348 1.227 . S
N350 Co336 2.140 . S
N350 C353 1.346 1_545 S
N350 C354 1.345 1_545 S
C351 C352 1.387 . S
C351 C355 1.391 . S
C352 C351 1.387 . S
C352 C353 1.369 . S
C352 H361 0.929 . S
C353 N350 1.346 1_565 S
C353 C352 1.369 . S
C353 H356 0.928 1_565 S
C354 N350 1.345 1_565 S
C354 C355 1.371 . S
C354 H357 0.931 . S
C355 C351 1.391 . S
C355 C354 1.371 . S
C355 H362 0.930 . S
H356 C353 0.928 1_545 S
H357 C354 0.931 . S
H358 C334 0.930 . S
H359 C331 0.930 . S
H360 C340 0.930 . S
H361 C352 0.929 . S
H362 C355 0.930 . S
C363 C364 1.351 . S
C363 N366 1.368 . S
C363 H368 0.931 . S
C364 C363 1.351 . S
C364 N365 1.373 . S
C364 H392 0.930 . S
N365 C364 1.373 . S
N365 C367 1.340 . S
N366 C363 1.368 . S
N366 C367 1.321 . S
N366 Co369 2.135 . S
C367 N365 1.340 . S
C367 N366 1.321 . S
C367 H391 0.930 . S
H368 C363 0.931 . S
Co369 N366 2.135 . S
Co369 N372 2.121 . S
Co369 O377 2.055 . S
Co369 O380 2.039 . S
Co369 N383 2.140 . S
C370 O371 1.227 . S
C370 O380 1.265 . S
O371 C370 1.227 . S
N372 Co369 2.121 . S
N372 C374 1.375 1_455 S
N372 C375 1.313 . S
C373 C374 1.338 . S
C373 N376 1.381 . S
C373 H393 0.930 . S
C374 N372 1.375 1_655 S
C374 C373 1.338 . S
C374 H378 0.931 . S
C375 N372 1.313 . S
C375 N376 1.338 1_455 S
C375 H379 0.930 . S
N376 C373 1.381 . S
N376 C375 1.338 1_655 S
O377 Co369 2.055 . S
O377 C381 1.253 . S
H378 C374 0.931 . S
H379 C375 0.930 . S
O380 Co369 2.039 . S
O380 C370 1.265 . S
C381 O377 1.253 . S
C381 O382 1.227 . S
O382 C381 1.227 . S
N383 Co369 2.140 . S
N383 C386 1.346 1_455 S
N383 C387 1.345 1_455 S
C384 C385 1.387 . S
C384 C388 1.391 . S
C385 C384 1.387 . S
C385 C386 1.369 . S
C385 H394 0.929 . S
C386 N383 1.346 1_655 S
C386 C385 1.369 . S
C386 H389 0.928 1_655 S
C387 N383 1.345 1_655 S
C387 C388 1.371 . S
C387 H390 0.931 . S
C388 C384 1.391 . S
C388 C387 1.371 . S
C388 H395 0.930 . S
H389 C386 0.928 1_455 S
H390 C387 0.931 . S
H391 C367 0.930 . S
H392 C364 0.930 . S
H393 C373 0.930 . S
H394 C385 0.929 . S
H395 C388 0.930 . S
C396 C397 1.351 . S
C396 N399 1.368 . S
C396 H401 0.931 . S
C397 C396 1.351 . S
C397 N398 1.373 . S
C397 H425 0.930 . S
N398 C397 1.373 . S
N398 C400 1.340 . S
N399 C396 1.368 . S
N399 C400 1.321 . S
N399 Co402 2.135 . S
C400 N398 1.340 . S
C400 N399 1.321 . S
C400 H424 0.930 . S
H401 C396 0.931 . S
Co402 N399 2.135 . S
Co402 N405 2.121 . S
Co402 O410 2.055 . S
Co402 O413 2.039 . S
Co402 N416 2.140 . S
C403 O404 1.227 . S
C403 O413 1.265 . S
O404 C403 1.227 . S
N405 Co402 2.121 . S
N405 C407 1.375 1_545 S
N405 C408 1.313 . S
C406 C407 1.338 . S
C406 N409 1.381 . S
C406 H426 0.930 . S
C407 N405 1.375 1_565 S
C407 C406 1.338 . S
C407 H411 0.931 . S
C408 N405 1.313 . S
C408 N409 1.338 1_545 S
C408 H412 0.930 . S
N409 C406 1.381 . S
N409 C408 1.338 1_565 S
O410 Co402 2.055 . S
O410 C414 1.253 . S
H411 C407 0.931 . S
H412 C408 0.930 . S
O413 Co402 2.039 . S
O413 C403 1.265 . S
C414 O410 1.253 . S
C414 O415 1.227 . S
O415 C414 1.227 . S
N416 Co402 2.140 . S
N416 C419 1.346 1_545 S
N416 C420 1.345 1_545 S
C417 C418 1.387 . S
C417 C421 1.391 . S
C418 C417 1.387 . S
C418 C419 1.369 . S
C418 H427 0.929 . S
C419 N416 1.346 1_565 S
C419 C418 1.369 . S
C419 H422 0.928 1_565 S
C420 N416 1.345 1_565 S
C420 C421 1.371 . S
C420 H423 0.931 . S
C421 C417 1.391 . S
C421 C420 1.371 . S
C421 H428 0.930 . S
H422 C419 0.928 1_545 S
H423 C420 0.931 . S
H424 C400 0.930 . S
H425 C397 0.930 . S
H426 C406 0.930 . S
H427 C418 0.929 . S
H428 C421 0.930 . S
C429 C430 1.351 . S
C429 N432 1.368 . S
C429 H434 0.931 . S
C430 C429 1.351 . S
C430 N431 1.373 . S
C430 H458 0.930 . S
N431 C430 1.373 . S
N431 C433 1.340 . S
N432 C429 1.368 . S
N432 C433 1.321 . S
N432 Co435 2.135 . S
C433 N431 1.340 . S
C433 N432 1.321 . S
C433 H457 0.930 . S
H434 C429 0.931 . S
Co435 N432 2.135 . S
Co435 N438 2.121 . S
Co435 O443 2.055 . S
Co435 O446 2.039 . S
Co435 N449 2.140 . S
C436 O437 1.227 . S
C436 O446 1.265 . S
O437 C436 1.227 . S
N438 Co435 2.121 . S
N438 C440 1.375 1_455 S
N438 C441 1.313 . S
C439 C440 1.338 . S
C439 N442 1.381 . S
C439 H459 0.930 . S
C440 N438 1.375 1_655 S
C440 C439 1.338 . S
C440 H444 0.931 . S
C441 N438 1.313 . S
C441 N442 1.338 1_455 S
C441 H445 0.930 . S
N442 C439 1.381 . S
N442 C441 1.338 1_655 S
O443 Co435 2.055 . S
O443 C447 1.253 . S
H444 C440 0.931 . S
H445 C441 0.930 . S
O446 Co435 2.039 . S
O446 C436 1.265 . S
C447 O443 1.253 . S
C447 O448 1.227 . S
O448 C447 1.227 . S
N449 Co435 2.140 . S
N449 C452 1.346 1_455 S
N449 C453 1.345 1_455 S
C450 C451 1.387 . S
C450 C454 1.391 . S
C451 C450 1.387 . S
C451 C452 1.369 . S
C451 H460 0.929 . S
C452 N449 1.346 1_655 S
C452 C451 1.369 . S
C452 H455 0.928 1_655 S
C453 N449 1.345 1_655 S
C453 C454 1.371 . S
C453 H456 0.931 . S
C454 C450 1.391 . S
C454 C453 1.371 . S
C454 H461 0.930 . S
H455 C452 0.928 1_455 S
H456 C453 0.931 . S
H457 C433 0.930 . S
H458 C430 0.930 . S
H459 C439 0.930 . S
H460 C451 0.929 . S
H461 C454 0.930 . S
C462 C463 1.351 . S
C462 N465 1.368 . S
C462 H467 0.931 . S
C463 C462 1.351 . S
C463 N464 1.373 . S
C463 H491 0.930 . S
N464 C463 1.373 . S
N464 C466 1.340 . S
N465 C462 1.368 . S
N465 C466 1.321 . S
N465 Co468 2.135 . S
C466 N464 1.340 . S
C466 N465 1.321 . S
C466 H490 0.930 . S
H467 C462 0.931 . S
Co468 N465 2.135 . S
Co468 N471 2.121 . S
Co468 O476 2.055 . S
Co468 O479 2.039 . S
Co468 N482 2.140 . S
C469 O470 1.227 . S
C469 O479 1.265 . S
O470 C469 1.227 . S
N471 Co468 2.121 . S
N471 C473 1.375 1_565 S
N471 C474 1.313 . S
C472 C473 1.338 . S
C472 N475 1.381 . S
C472 H492 0.930 . S
C473 N471 1.375 1_545 S
C473 C472 1.338 . S
C473 H477 0.931 . S
C474 N471 1.313 . S
C474 N475 1.338 1_565 S
C474 H478 0.930 . S
N475 C472 1.381 . S
N475 C474 1.338 1_545 S
O476 Co468 2.055 . S
O476 C480 1.253 . S
H477 C473 0.931 . S
H478 C474 0.930 . S
O479 Co468 2.039 . S
O479 C469 1.265 . S
C480 O476 1.253 . S
C480 O481 1.227 . S
O481 C480 1.227 . S
N482 Co468 2.140 . S
N482 C485 1.346 1_565 S
N482 C486 1.345 1_565 S
C483 C484 1.387 . S
C483 C487 1.391 . S
C484 C483 1.387 . S
C484 C485 1.369 . S
C484 H493 0.929 . S
C485 N482 1.346 1_545 S
C485 C484 1.369 . S
C485 H488 0.928 1_545 S
C486 N482 1.345 1_545 S
C486 C487 1.371 . S
C486 H489 0.931 . S
C487 C483 1.391 . S
C487 C486 1.371 . S
C487 H494 0.930 . S
H488 C485 0.928 1_565 S
H489 C486 0.931 . S
H490 C466 0.930 . S
H491 C463 0.930 . S
H492 C472 0.930 . S
H493 C484 0.929 . S
H494 C487 0.930 . S
C495 C496 1.351 . S
C495 N498 1.368 . S
C495 H500 0.931 . S
C496 C495 1.351 . S
C496 N497 1.373 . S
C496 H524 0.930 . S
N497 C496 1.373 . S
N497 C499 1.340 . S
N498 C495 1.368 . S
N498 C499 1.321 . S
N498 Co501 2.135 . S
C499 N497 1.340 . S
C499 N498 1.321 . S
C499 H523 0.930 . S
H500 C495 0.931 . S
Co501 N498 2.135 . S
Co501 N504 2.121 . S
Co501 O509 2.055 . S
Co501 O512 2.039 . S
Co501 N515 2.140 . S
C502 O503 1.227 . S
C502 O512 1.265 . S
O503 C502 1.227 . S
N504 Co501 2.121 . S
N504 C506 1.375 1_655 S
N504 C507 1.313 . S
C505 C506 1.338 . S
C505 N508 1.381 . S
C505 H525 0.930 . S
C506 N504 1.375 1_455 S
C506 C505 1.338 . S
C506 H510 0.931 . S
C507 N504 1.313 . S
C507 N508 1.338 1_655 S
C507 H511 0.930 . S
N508 C505 1.381 . S
N508 C507 1.338 1_455 S
O509 Co501 2.055 . S
O509 C513 1.253 . S
H510 C506 0.931 . S
H511 C507 0.930 . S
O512 Co501 2.039 . S
O512 C502 1.265 . S
C513 O509 1.253 . S
C513 O514 1.227 . S
O514 C513 1.227 . S
N515 Co501 2.140 . S
N515 C518 1.346 1_655 S
N515 C519 1.345 1_655 S
C516 C517 1.387 . S
C516 C520 1.391 . S
C517 C516 1.387 . S
C517 C518 1.369 . S
C517 H526 0.929 . S
C518 N515 1.346 1_455 S
C518 C517 1.369 . S
C518 H521 0.928 1_455 S
C519 N515 1.345 1_455 S
C519 C520 1.371 . S
C519 H522 0.931 . S
C520 C516 1.391 . S
C520 C519 1.371 . S
C520 H527 0.930 . S
H521 C518 0.928 1_655 S
H522 C519 0.931 . S
H523 C499 0.930 . S
H524 C496 0.930 . S
H525 C505 0.930 . S
H526 C517 0.929 . S
H527 C520 0.930 . S
C528 C529 1.391 . S
C528 C530 1.394 . S
C528 H544 0.931 . S
C529 C528 1.391 . S
C529 C533 1.376 . S
C530 C528 1.394 . S
C530 C531 1.369 . S
C530 C534 1.531 . S
C531 C530 1.369 . S
C531 C532 1.410 . S
C531 C539 1.503 1_655 S
C532 C531 1.410 . S
C532 C533 1.392 . S
C532 C535 1.511 1_655 S
C533 C529 1.376 . S
C533 C532 1.392 . S
C533 H545 0.929 . S
C534 C530 1.531 . S
C534 H546 0.960 . S
C534 H547 0.962 . S
C534 H548 0.960 . S
C535 C532 1.511 1_455 S
C535 H549 0.961 . S
C535 H550 0.961 . S
C535 H551 0.961 . S
C536 C537 1.370 . S
C536 C538 1.363 . S
C536 H552 0.931 . S
C537 C536 1.370 . S
C537 C541 1.408 . S
C538 C536 1.363 . S
C538 C539 1.370 . S
C538 C542 1.524 . S
C539 C531 1.503 1_455 S
C539 C538 1.370 . S
C539 C540 1.403 . S
C540 C539 1.403 . S
C540 C541 1.404 . S
C540 C543 1.539 . S
C541 C537 1.408 . S
C541 C540 1.404 . S
C541 H553 0.930 . S
C542 C538 1.524 . S
C542 H554 0.956 1_455 S
C542 H555 0.961 . S
C542 H556 0.961 . S
C543 C540 1.539 . S
C543 H557 0.958 . S
C543 H558 0.961 . S
C543 H559 0.960 . S
H544 C528 0.931 . S
H545 C533 0.929 . S
H546 C534 0.960 . S
H547 C534 0.962 . S
H548 C534 0.960 . S
H549 C535 0.961 . S
H550 C535 0.961 . S
H551 C535 0.961 . S
H552 C536 0.931 . S
H553 C541 0.930 . S
H554 C542 0.956 1_655 S
H555 C542 0.961 . S
H556 C542 0.961 . S
H557 C543 0.958 . S
H558 C543 0.961 . S
H559 C543 0.960 . S
C560 C561 1.391 . S
C560 C562 1.394 . S
C560 H576 0.931 . S
C561 C560 1.391 . S
C561 C565 1.376 . S
C562 C560 1.394 . S
C562 C563 1.369 . S
C562 C566 1.531 1_545 S
C563 C562 1.369 . S
C563 C564 1.410 . S
C563 C571 1.503 1_545 S
C564 C563 1.410 . S
C564 C565 1.392 . S
C564 C567 1.511 . S
C565 C561 1.376 . S
C565 C564 1.392 . S
C565 H577 0.929 . S
C566 C562 1.531 1_565 S
C566 H578 0.960 . S
C566 H579 0.962 . S
C566 H580 0.960 . S
C567 C564 1.511 . S
C567 H581 0.961 . S
C567 H582 0.961 . S
C567 H583 0.961 . S
C568 C569 1.370 . S
C568 C570 1.363 . S
C568 H584 0.931 . S
C569 C568 1.370 . S
C569 C573 1.408 . S
C570 C568 1.363 . S
C570 C571 1.370 . S
C570 C574 1.524 . S
C571 C563 1.503 1_565 S
C571 C570 1.370 . S
C571 C572 1.403 . S
C572 C571 1.403 . S
C572 C573 1.404 . S
C572 C575 1.539 . S
C573 C569 1.408 . S
C573 C572 1.404 . S
C573 H585 0.930 . S
C574 C570 1.524 . S
C574 H586 0.956 . S
C574 H587 0.961 1_565 S
C574 H588 0.961 . S
C575 C572 1.539 . S
C575 H589 0.958 . S
C575 H590 0.961 . S
C575 H591 0.960 1_565 S
H576 C560 0.931 . S
H577 C565 0.929 . S
H578 C566 0.960 . S
H579 C566 0.962 . S
H580 C566 0.960 . S
H581 C567 0.961 . S
H582 C567 0.961 . S
H583 C567 0.961 . S
H584 C568 0.931 . S
H585 C573 0.930 . S
H586 C574 0.956 . S
H587 C574 0.961 1_545 S
H588 C574 0.961 . S
H589 C575 0.958 . S
H590 C575 0.961 . S
H591 C575 0.960 1_545 S
C592 C593 1.391 . S
C592 C594 1.394 . S
C592 H608 0.931 . S
C593 C592 1.391 . S
C593 C597 1.376 . S
C594 C592 1.394 . S
C594 C595 1.369 . S
C594 C598 1.531 . S
C595 C594 1.369 . S
C595 C596 1.410 . S
C595 C603 1.503 1_655 S
C596 C595 1.410 . S
C596 C597 1.392 . S
C596 C599 1.511 1_655 S
C597 C593 1.376 . S
C597 C596 1.392 . S
C597 H609 0.929 . S
C598 C594 1.531 . S
C598 H610 0.960 . S
C598 H611 0.962 . S
C598 H612 0.960 . S
C599 C596 1.511 1_455 S
C599 H613 0.961 . S
C599 H614 0.961 . S
C599 H615 0.961 . S
C600 C601 1.370 . S
C600 C602 1.363 . S
C600 H616 0.931 . S
C601 C600 1.370 . S
C601 C605 1.408 . S
C602 C600 1.363 . S
C602 C603 1.370 . S
C602 C606 1.524 . S
C603 C595 1.503 1_455 S
C603 C602 1.370 . S
C603 C604 1.403 . S
C604 C603 1.403 . S
C604 C605 1.404 . S
C604 C607 1.539 . S
C605 C601 1.408 . S
C605 C604 1.404 . S
C605 H617 0.930 . S
C606 C602 1.524 . S
C606 H618 0.956 1_455 S
C606 H619 0.961 . S
C606 H620 0.961 . S
C607 C604 1.539 . S
C607 H621 0.958 . S
C607 H622 0.961 . S
C607 H623 0.960 . S
H608 C592 0.931 . S
H609 C597 0.929 . S
H610 C598 0.960 . S
H611 C598 0.962 . S
H612 C598 0.960 . S
H613 C599 0.961 . S
H614 C599 0.961 . S
H615 C599 0.961 . S
H616 C600 0.931 . S
H617 C605 0.930 . S
H618 C606 0.956 1_655 S
H619 C606 0.961 . S
H620 C606 0.961 . S
H621 C607 0.958 . S
H622 C607 0.961 . S
H623 C607 0.960 . S
C624 C625 1.391 . S
C624 C626 1.394 . S
C624 H640 0.931 . S
C625 C624 1.391 . S
C625 C629 1.376 . S
C626 C624 1.394 . S
C626 C627 1.369 . S
C626 C630 1.531 1_565 S
C627 C626 1.369 . S
C627 C628 1.410 . S
C627 C635 1.503 1_565 S
C628 C627 1.410 . S
C628 C629 1.392 . S
C628 C631 1.511 . S
C629 C625 1.376 . S
C629 C628 1.392 . S
C629 H641 0.929 . S
C630 C626 1.531 1_545 S
C630 H642 0.960 . S
C630 H643 0.962 . S
C630 H644 0.960 . S
C631 C628 1.511 . S
C631 H645 0.961 . S
C631 H646 0.961 . S
C631 H647 0.961 . S
C632 C633 1.370 . S
C632 C634 1.363 . S
C632 H648 0.931 . S
C633 C632 1.370 . S
C633 C637 1.408 . S
C634 C632 1.363 . S
C634 C635 1.370 . S
C634 C638 1.524 . S
C635 C627 1.503 1_545 S
C635 C634 1.370 . S
C635 C636 1.403 . S
C636 C635 1.403 . S
C636 C637 1.404 . S
C636 C639 1.539 . S
C637 C633 1.408 . S
C637 C636 1.404 . S
C637 H649 0.930 . S
C638 C634 1.524 . S
C638 H650 0.956 . S
C638 H651 0.961 1_545 S
C638 H652 0.961 . S
C639 C636 1.539 . S
C639 H653 0.958 . S
C639 H654 0.961 . S
C639 H655 0.960 . S
H640 C624 0.931 . S
H641 C629 0.929 . S
H642 C630 0.960 . S
H643 C630 0.962 . S
H644 C630 0.960 . S
H645 C631 0.961 . S
H646 C631 0.961 . S
H647 C631 0.961 . S
H648 C632 0.931 . S
H649 C637 0.930 . S
H650 C638 0.956 . S
H651 C638 0.961 1_565 S
H652 C638 0.961 . S
H653 C639 0.958 . S
H654 C639 0.961 . S
H655 C639 0.960 . S
C656 C657 1.391 . S
C656 C658 1.394 1_565 S
C656 H672 0.931 . S
C657 C656 1.391 . S
C657 C661 1.376 . S
C658 C656 1.394 1_545 S
C658 C659 1.369 1_545 S
C658 C662 1.531 . S
C659 C658 1.369 1_565 S
C659 C660 1.410 . S
C659 C667 1.503 1_565 S
C660 C659 1.410 . S
C660 C661 1.392 . S
C660 C663 1.511 . S
C661 C657 1.376 . S
C661 C660 1.392 . S
C661 H673 0.929 . S
C662 C658 1.531 . S
C662 H674 0.960 . S
C662 H675 0.962 . S
C662 H676 0.960 . S
C663 C660 1.511 . S
C663 H677 0.961 . S
C663 H678 0.961 . S
C663 H679 0.961 . S
C664 C665 1.370 . S
C664 C666 1.363 1_545 S
C664 H680 0.931 1_545 S
C665 C664 1.370 . S
C665 C669 1.408 . S
C666 C664 1.363 1_565 S
C666 C667 1.370 1_565 S
C666 C670 1.524 . S
C667 C659 1.503 1_545 S
C667 C666 1.370 1_545 S
C667 C668 1.403 . S
C668 C667 1.403 . S
C668 C669 1.404 . S
C668 C671 1.539 . S
C669 C665 1.408 . S
C669 C668 1.404 . S
C669 H681 0.930 . S
C670 C666 1.524 . S
C670 H682 0.956 . S
C670 H683 0.961 . S
C670 H684 0.961 . S
C671 C668 1.539 . S
C671 H685 0.958 . S
C671 H686 0.961 . S
C671 H687 0.960 . S
H672 C656 0.931 . S
H673 C661 0.929 . S
H674 C662 0.960 . S
H675 C662 0.962 . S
H676 C662 0.960 . S
H677 C663 0.961 . S
H678 C663 0.961 . S
H679 C663 0.961 . S
H680 C664 0.931 1_565 S
H681 C669 0.930 . S
H682 C670 0.956 . S
H683 C670 0.961 . S
H684 C670 0.961 . S
H685 C671 0.958 . S
H686 C671 0.961 . S
H687 C671 0.960 . S
C688 C689 1.391 . S
C688 C690 1.394 . S
C688 H704 0.931 . S
C689 C688 1.391 . S
C689 C693 1.376 . S
C690 C688 1.394 . S
C690 C691 1.369 . S
C690 C694 1.531 . S
C691 C690 1.369 . S
C691 C692 1.410 1_655 S
C691 C699 1.503 1_655 S
C692 C691 1.410 1_455 S
C692 C693 1.392 1_455 S
C692 C695 1.511 . S
C693 C689 1.376 . S
C693 C692 1.392 1_655 S
C693 H705 0.931 . S
C694 C690 1.531 . S
C694 H706 0.960 . S
C694 H707 0.962 . S
C694 H708 0.960 . S
C695 C692 1.511 . S
C695 H709 0.961 . S
C695 H710 0.961 . S
C695 H711 0.961 . S
C696 C697 1.370 . S
C696 C698 1.363 1_455 S
C696 H712 0.931 . S
C697 C696 1.370 . S
C697 C701 1.408 . S
C698 C696 1.363 1_655 S
C698 C699 1.370 1_655 S
C698 C702 1.524 . S
C699 C691 1.503 1_455 S
C699 C698 1.370 1_455 S
C699 C700 1.403 . S
C700 C699 1.403 . S
C700 C701 1.404 . S
C700 C703 1.539 . S
C701 C697 1.408 . S
C701 C700 1.404 . S
C701 H713 0.930 . S
C702 C698 1.524 . S
C702 H714 0.956 . S
C702 H715 0.961 . S
C702 H716 0.961 . S
C703 C700 1.539 . S
C703 H717 0.958 . S
C703 H718 0.961 . S
C703 H719 0.960 . S
H704 C688 0.931 . S
H705 C693 0.931 . S
H706 C694 0.960 . S
H707 C694 0.962 . S
H708 C694 0.960 . S
H709 C695 0.961 . S
H710 C695 0.961 . S
H711 C695 0.961 . S
H712 C696 0.931 . S
H713 C701 0.930 . S
H714 C702 0.956 . S
H715 C702 0.961 . S
H716 C702 0.961 . S
H717 C703 0.958 . S
H718 C703 0.961 . S
H719 C703 0.960 . S
C720 C721 1.391 . S
C720 C722 1.394 . S
C720 H736 0.931 . S
C721 C720 1.391 . S
C721 C725 1.376 . S
C722 C720 1.394 . S
C722 C723 1.369 . S
C722 C726 1.531 . S
C723 C722 1.369 . S
C723 C724 1.410 1_565 S
C723 C731 1.503 1_565 S
C724 C723 1.410 1_545 S
C724 C725 1.392 1_545 S
C724 C727 1.511 . S
C725 C721 1.376 . S
C725 C724 1.392 1_565 S
C725 H737 0.929 1_565 S
C726 C722 1.531 . S
C726 H738 0.960 . S
C726 H739 0.962 . S
C726 H740 0.960 . S
C727 C724 1.511 . S
C727 H741 0.961 . S
C727 H742 0.961 . S
C727 H743 0.961 . S
C728 C729 1.370 . S
C728 C730 1.363 . S
C728 H744 0.931 . S
C729 C728 1.370 . S
C729 C733 1.408 . S
C730 C728 1.363 . S
C730 C731 1.370 . S
C730 C734 1.524 . S
C731 C723 1.503 1_545 S
C731 C730 1.370 . S
C731 C732 1.403 . S
C732 C731 1.403 . S
C732 C733 1.404 . S
C732 C735 1.539 . S
C733 C729 1.408 . S
C733 C732 1.404 . S
C733 H745 0.930 . S
C734 C730 1.524 . S
C734 H746 0.956 1_545 S
C734 H747 0.961 . S
C734 H748 0.961 . S
C735 C732 1.539 . S
C735 H749 0.958 1_545 S
C735 H750 0.961 . S
C735 H751 0.960 . S
H736 C720 0.931 . S
H737 C725 0.929 1_545 S
H738 C726 0.960 . S
H739 C726 0.962 . S
H740 C726 0.960 . S
H741 C727 0.961 . S
H742 C727 0.961 . S
H743 C727 0.961 . S
H744 C728 0.931 . S
H745 C733 0.930 . S
H746 C734 0.956 1_565 S
H747 C734 0.961 . S
H748 C734 0.961 . S
H749 C735 0.958 1_565 S
H750 C735 0.961 . S
H751 C735 0.960 . S
C752 C753 1.391 . S
C752 C754 1.394 1_655 S
C752 H768 0.931 1_655 S
C753 C752 1.391 . S
C753 C757 1.376 . S
C754 C752 1.394 1_455 S
C754 C755 1.369 1_455 S
C754 C758 1.531 . S
C755 C754 1.369 1_655 S
C755 C756 1.410 . S
C755 C763 1.503 1_655 S
C756 C755 1.410 . S
C756 C757 1.392 . S
C756 C759 1.511 . S
C757 C753 1.376 . S
C757 C756 1.392 . S
C757 H769 0.929 . S
C758 C754 1.531 . S
C758 H770 0.960 . S
C758 H771 0.962 . S
C758 H772 0.960 . S
C759 C756 1.511 . S
C759 H773 0.961 . S
C759 H774 0.961 . S
C759 H775 0.961 . S
C760 C761 1.370 . S
C760 C762 1.363 . S
C760 H776 0.931 . S
C761 C760 1.370 . S
C761 C765 1.408 . S
C762 C760 1.363 . S
C762 C763 1.370 . S
C762 C766 1.524 . S
C763 C755 1.503 1_455 S
C763 C762 1.370 . S
C763 C764 1.403 . S
C764 C763 1.403 . S
C764 C765 1.404 . S
C764 C767 1.539 1_455 S
C765 C761 1.408 . S
C765 C764 1.404 . S
C765 H777 0.930 . S
C766 C762 1.524 . S
C766 H778 0.956 . S
C766 H779 0.961 1_455 S
C766 H780 0.961 . S
C767 C764 1.539 1_655 S
C767 H781 0.958 1_655 S
C767 H782 0.961 . S
C767 H783 0.960 . S
H768 C752 0.931 1_455 S
H769 C757 0.929 . S
H770 C758 0.960 . S
H771 C758 0.962 . S
H772 C758 0.960 . S
H773 C759 0.961 . S
H774 C759 0.961 . S
H775 C759 0.961 . S
H776 C760 0.931 . S
H777 C765 0.930 . S
H778 C766 0.956 . S
H779 C766 0.961 1_655 S
H780 C766 0.961 . S
H781 C767 0.958 1_455 S
H782 C767 0.961 . S
H783 C767 0.960 . S
C784 C785 1.391 . S
C784 C786 1.394 . S
C784 H800 0.931 . S
C785 C784 1.391 . S
C785 C789 1.376 . S
C786 C784 1.394 . S
C786 C787 1.369 . S
C786 C790 1.531 . S
C787 C786 1.369 . S
C787 C788 1.410 . S
C787 C795 1.503 . S
C788 C787 1.410 . S
C788 C789 1.392 . S
C788 C791 1.511 . S
C789 C785 1.376 . S
C789 C788 1.392 . S
C789 H801 0.929 . S
C790 C786 1.531 . S
C790 H802 0.960 . S
C790 H803 0.962 . S
C790 H804 0.960 . S
C791 C788 1.511 . S
C791 H805 0.961 . S
C791 H806 0.961 . S
C791 H807 0.961 . S
C792 C793 1.370 . S
C792 C794 1.363 . S
C792 H808 0.931 . S
C793 C792 1.370 . S
C793 C797 1.408 . S
C794 C792 1.363 . S
C794 C795 1.370 . S
C794 C798 1.524 . S
C795 C787 1.503 . S
C795 C794 1.370 . S
C795 C796 1.403 . S
C796 C795 1.403 . S
C796 C797 1.404 . S
C796 C799 1.539 . S
C797 C793 1.408 . S
C797 C796 1.404 . S
C797 H809 0.930 . S
C798 C794 1.524 . S
C798 H810 0.956 . S
C798 H811 0.961 . S
C798 H812 0.961 . S
C799 C796 1.539 . S
C799 H813 0.958 . S
C799 H814 0.961 . S
C799 H815 0.960 . S
H800 C784 0.931 . S
H801 C789 0.929 . S
H802 C790 0.960 . S
H803 C790 0.962 . S
H804 C790 0.960 . S
H805 C791 0.961 . S
H806 C791 0.961 . S
H807 C791 0.961 . S
H808 C792 0.931 . S
H809 C797 0.930 . S
H810 C798 0.956 . S
H811 C798 0.961 . S
H812 C798 0.961 . S
H813 C799 0.958 . S
H814 C799 0.961 . S
H815 C799 0.960 . S
C816 C817 1.391 . S
C816 C818 1.394 . S
C816 H832 0.931 . S
C817 C816 1.391 . S
C817 C821 1.376 . S
C818 C816 1.394 . S
C818 C819 1.369 . S
C818 C822 1.531 . S
C819 C818 1.369 . S
C819 C820 1.410 . S
C819 C827 1.503 . S
C820 C819 1.410 . S
C820 C821 1.392 . S
C820 C823 1.511 . S
C821 C817 1.376 . S
C821 C820 1.392 . S
C821 H833 0.929 . S
C822 C818 1.531 . S
C822 H834 0.960 . S
C822 H835 0.962 . S
C822 H836 0.960 . S
C823 C820 1.511 . S
C823 H837 0.961 . S
C823 H838 0.961 . S
C823 H839 0.961 . S
C824 C825 1.370 . S
C824 C826 1.363 . S
C824 H840 0.931 . S
C825 C824 1.370 . S
C825 C829 1.408 . S
C826 C824 1.363 . S
C826 C827 1.370 . S
C826 C830 1.524 . S
C827 C819 1.503 . S
C827 C826 1.370 . S
C827 C828 1.403 . S
C828 C827 1.403 . S
C828 C829 1.404 . S
C828 C831 1.539 . S
C829 C825 1.408 . S
C829 C828 1.404 . S
C829 H841 0.930 . S
C830 C826 1.524 . S
C830 H842 0.956 . S
C830 H843 0.961 . S
C830 H844 0.961 . S
C831 C828 1.539 . S
C831 H845 0.958 . S
C831 H846 0.961 . S
C831 H847 0.960 . S
H832 C816 0.931 . S
H833 C821 0.929 . S
H834 C822 0.960 . S
H835 C822 0.962 . S
H836 C822 0.960 . S
H837 C823 0.961 . S
H838 C823 0.961 . S
H839 C823 0.961 . S
H840 C824 0.931 . S
H841 C829 0.930 . S
H842 C830 0.956 . S
H843 C830 0.961 . S
H844 C830 0.961 . S
H845 C831 0.958 . S
H846 C831 0.961 . S
H847 C831 0.960 . S
C848 C849 1.391 . S
C848 C850 1.394 . S
C848 H864 0.931 . S
C849 C848 1.391 . S
C849 C853 1.376 . S
C850 C848 1.394 . S
C850 C851 1.369 . S
C850 C854 1.531 . S
C851 C850 1.369 . S
C851 C852 1.410 . S
C851 C859 1.503 . S
C852 C851 1.410 . S
C852 C853 1.392 . S
C852 C855 1.511 . S
C853 C849 1.376 . S
C853 C852 1.392 . S
C853 H865 0.929 . S
C854 C850 1.531 . S
C854 H866 0.960 . S
C854 H867 0.962 . S
C854 H868 0.960 . S
C855 C852 1.511 . S
C855 H869 0.961 . S
C855 H870 0.961 . S
C855 H871 0.961 . S
C856 C857 1.370 . S
C856 C858 1.363 . S
C856 H872 0.931 . S
C857 C856 1.370 . S
C857 C861 1.408 . S
C858 C856 1.363 . S
C858 C859 1.370 . S
C858 C862 1.524 . S
C859 C851 1.503 . S
C859 C858 1.370 . S
C859 C860 1.403 . S
C860 C859 1.403 . S
C860 C861 1.404 . S
C860 C863 1.539 . S
C861 C857 1.408 . S
C861 C860 1.404 . S
C861 H873 0.930 . S
C862 C858 1.524 . S
C862 H874 0.956 . S
C862 H875 0.961 . S
C862 H876 0.961 . S
C863 C860 1.539 . S
C863 H877 0.958 . S
C863 H878 0.961 . S
C863 H879 0.960 . S
H864 C848 0.931 . S
H865 C853 0.929 . S
H866 C854 0.960 . S
H867 C854 0.962 . S
H868 C854 0.960 . S
H869 C855 0.961 . S
H870 C855 0.961 . S
H871 C855 0.961 . S
H872 C856 0.931 . S
H873 C861 0.930 . S
H874 C862 0.956 . S
H875 C862 0.961 . S
H876 C862 0.961 . S
H877 C863 0.958 . S
H878 C863 0.961 . S
H879 C863 0.960 . S
C880 C881 1.391 . S
C880 C882 1.394 . S
C880 H896 0.931 . S
C881 C880 1.391 . S
C881 C885 1.376 . S
C882 C880 1.394 . S
C882 C883 1.369 . S
C882 C886 1.531 . S
C883 C882 1.369 . S
C883 C884 1.410 . S
C883 C891 1.503 . S
C884 C883 1.410 . S
C884 C885 1.392 . S
C884 C887 1.511 . S
C885 C881 1.376 . S
C885 C884 1.392 . S
C885 H897 0.929 . S
C886 C882 1.531 . S
C886 H898 0.960 . S
C886 H899 0.962 . S
C886 H900 0.960 . S
C887 C884 1.511 . S
C887 H901 0.961 . S
C887 H902 0.961 . S
C887 H903 0.961 . S
C888 C889 1.370 . S
C888 C890 1.363 . S
C888 H904 0.931 . S
C889 C888 1.370 . S
C889 C893 1.408 . S
C890 C888 1.363 . S
C890 C891 1.370 . S
C890 C894 1.524 . S
C891 C883 1.503 . S
C891 C890 1.370 . S
C891 C892 1.403 . S
C892 C891 1.403 . S
C892 C893 1.404 . S
C892 C895 1.539 . S
C893 C889 1.408 . S
C893 C892 1.404 . S
C893 H905 0.930 . S
C894 C890 1.524 . S
C894 H906 0.956 . S
C894 H907 0.961 . S
C894 H908 0.961 . S
C895 C892 1.539 . S
C895 H909 0.958 . S
C895 H910 0.961 . S
C895 H911 0.960 . S
H896 C880 0.931 . S
H897 C885 0.929 . S
H898 C886 0.960 . S
H899 C886 0.962 . S
H900 C886 0.960 . S
H901 C887 0.961 . S
H902 C887 0.961 . S
H903 C887 0.961 . S
H904 C888 0.931 . S
H905 C893 0.930 . S
H906 C894 0.956 . S
H907 C894 0.961 . S
H908 C894 0.961 . S
H909 C895 0.958 . S
H910 C895 0.961 . S
H911 C895 0.960 . S
C912 C913 1.391 . S
C912 C914 1.394 . S
C912 H928 0.931 . S
C913 C912 1.391 . S
C913 C917 1.376 . S
C914 C912 1.394 . S
C914 C915 1.369 . S
C914 C918 1.531 . S
C915 C914 1.369 . S
C915 C916 1.410 . S
C915 C923 1.503 . S
C916 C915 1.410 . S
C916 C917 1.392 . S
C916 C919 1.511 . S
C917 C913 1.376 . S
C917 C916 1.392 . S
C917 H929 0.929 . S
C918 C914 1.531 . S
C918 H930 0.960 . S
C918 H931 0.962 . S
C918 H932 0.960 . S
C919 C916 1.511 . S
C919 H933 0.961 . S
C919 H934 0.961 . S
C919 H935 0.961 . S
C920 C921 1.370 . S
C920 C922 1.363 . S
C920 H936 0.931 . S
C921 C920 1.370 . S
C921 C925 1.408 . S
C922 C920 1.363 . S
C922 C923 1.370 . S
C922 C926 1.524 . S
C923 C915 1.503 . S
C923 C922 1.370 . S
C923 C924 1.403 . S
C924 C923 1.403 . S
C924 C925 1.404 . S
C924 C927 1.539 . S
C925 C921 1.408 . S
C925 C924 1.404 . S
C925 H937 0.930 . S
C926 C922 1.524 . S
C926 H938 0.956 . S
C926 H939 0.961 . S
C926 H940 0.961 . S
C927 C924 1.539 . S
C927 H941 0.958 . S
C927 H942 0.961 . S
C927 H943 0.960 . S
H928 C912 0.931 . S
H929 C917 0.929 . S
H930 C918 0.960 . S
H931 C918 0.962 . S
H932 C918 0.960 . S
H933 C919 0.961 . S
H934 C919 0.961 . S
H935 C919 0.961 . S
H936 C920 0.931 . S
H937 C925 0.930 . S
H938 C926 0.956 . S
H939 C926 0.961 . S
H940 C926 0.961 . S
H941 C927 0.958 . S
H942 C927 0.961 . S
H943 C927 0.960 . S
C944 C945 1.391 . S
C944 C946 1.394 . S
C944 H960 0.931 . S
C945 C944 1.391 . S
C945 C949 1.376 . S
C946 C944 1.394 . S
C946 C947 1.369 . S
C946 C950 1.531 . S
C947 C946 1.369 . S
C947 C948 1.410 . S
C947 C955 1.503 . S
C948 C947 1.410 . S
C948 C949 1.392 . S
C948 C951 1.511 . S
C949 C945 1.376 . S
C949 C948 1.392 . S
C949 H961 0.929 . S
C950 C946 1.531 . S
C950 H962 0.960 . S
C950 H963 0.962 . S
C950 H964 0.960 . S
C951 C948 1.511 . S
C951 H965 0.961 . S
C951 H966 0.961 . S
C951 H967 0.961 . S
C952 C953 1.370 . S
C952 C954 1.363 . S
C952 H968 0.931 . S
C953 C952 1.370 . S
C953 C957 1.408 . S
C954 C952 1.363 . S
C954 C955 1.370 . S
C954 C958 1.524 . S
C955 C947 1.503 . S
C955 C954 1.370 . S
C955 C956 1.403 . S
C956 C955 1.403 . S
C956 C957 1.404 . S
C956 C959 1.539 . S
C957 C953 1.408 . S
C957 C956 1.404 . S
C957 H969 0.930 . S
C958 C954 1.524 . S
C958 H970 0.956 . S
C958 H971 0.961 . S
C958 H972 0.961 . S
C959 C956 1.539 . S
C959 H973 0.958 . S
C959 H974 0.961 . S
C959 H975 0.960 . S
H960 C944 0.931 . S
H961 C949 0.929 . S
H962 C950 0.960 . S
H963 C950 0.962 . S
H964 C950 0.960 . S
H965 C951 0.961 . S
H966 C951 0.961 . S
H967 C951 0.961 . S
H968 C952 0.931 . S
H969 C957 0.930 . S
H970 C958 0.956 . S
H971 C958 0.961 . S
H972 C958 0.961 . S
H973 C959 0.958 . S
H974 C959 0.961 . S
H975 C959 0.960 . S
C976 C977 1.391 . S
C976 C978 1.394 . S
C976 H992 0.931 . S
C977 C976 1.391 . S
C977 C981 1.376 . S
C978 C976 1.394 . S
C978 C979 1.369 . S
C978 C982 1.531 . S
C979 C978 1.369 . S
C979 C980 1.410 . S
C979 C987 1.503 . S
C980 C979 1.410 . S
C980 C981 1.392 . S
C980 C983 1.511 . S
C981 C977 1.376 . S
C981 C980 1.392 . S
C981 H993 0.929 . S
C982 C978 1.531 . S
C982 H994 0.960 . S
C982 H995 0.962 . S
C982 H996 0.960 . S
C983 C980 1.511 . S
C983 H997 0.961 . S
C983 H998 0.961 . S
C983 H999 0.961 . S
C984 C985 1.370 . S
C984 C986 1.363 . S
C984 H1000 0.931 . S
C985 C984 1.370 . S
C985 C989 1.408 . S
C986 C984 1.363 . S
C986 C987 1.370 . S
C986 C990 1.524 . S
C987 C979 1.503 . S
C987 C986 1.370 . S
C987 C988 1.403 . S
C988 C987 1.403 . S
C988 C989 1.404 . S
C988 C991 1.539 . S
C989 C985 1.408 . S
C989 C988 1.404 . S
C989 H1001 0.930 . S
C990 C986 1.524 . S
C990 H1002 0.956 . S
C990 H1003 0.961 . S
C990 H1004 0.961 . S
C991 C988 1.539 . S
C991 H1005 0.958 . S
C991 H1006 0.961 . S
C991 H1007 0.960 . S
H992 C976 0.931 . S
H993 C981 0.929 . S
H994 C982 0.960 . S
H995 C982 0.962 . S
H996 C982 0.960 . S
H997 C983 0.961 . S
H998 C983 0.961 . S
H999 C983 0.961 . S
H1000 C984 0.931 . S
H1001 C989 0.930 . S
H1002 C990 0.956 . S
H1003 C990 0.961 . S
H1004 C990 0.961 . S
H1005 C991 0.958 . S
H1006 C991 0.961 . S
H1007 C991 0.960 . S
C1008 C1009 1.391 . S
C1008 C1010 1.394 . S
C1008 H1024 0.931 . S
C1009 C1008 1.391 . S
C1009 C1013 1.376 . S
C1010 C1008 1.394 . S
C1010 C1011 1.369 . S
C1010 C1014 1.531 . S
C1011 C1010 1.369 . S
C1011 C1012 1.410 . S
C1011 C1019 1.503 . S
C1012 C1011 1.410 . S
C1012 C1013 1.392 . S
C1012 C1015 1.511 . S
C1013 C1009 1.376 . S
C1013 C1012 1.392 . S
C1013 H1025 0.929 . S
C1014 C1010 1.531 . S
C1014 H1026 0.960 . S
C1014 H1027 0.962 . S
C1014 H1028 0.960 . S
C1015 C1012 1.511 . S
C1015 H1029 0.961 . S
C1015 H1030 0.961 . S
C1015 H1031 0.961 . S
C1016 C1017 1.370 . S
C1016 C1018 1.363 . S
C1016 H1032 0.931 . S
C1017 C1016 1.370 . S
C1017 C1021 1.408 . S
C1018 C1016 1.363 . S
C1018 C1019 1.370 . S
C1018 C1022 1.524 . S
C1019 C1011 1.503 . S
C1019 C1018 1.370 . S
C1019 C1020 1.403 . S
C1020 C1019 1.403 . S
C1020 C1021 1.404 . S
C1020 C1023 1.539 . S
C1021 C1017 1.408 . S
C1021 C1020 1.404 . S
C1021 H1033 0.930 . S
C1022 C1018 1.524 . S
C1022 H1034 0.956 . S
C1022 H1035 0.961 . S
C1022 H1036 0.961 . S
C1023 C1020 1.539 . S
C1023 H1037 0.958 . S
C1023 H1038 0.961 . S
C1023 H1039 0.960 . S
H1024 C1008 0.931 . S
H1025 C1013 0.929 . S
H1026 C1014 0.960 . S
H1027 C1014 0.962 . S
H1028 C1014 0.960 . S
H1029 C1015 0.961 . S
H1030 C1015 0.961 . S
H1031 C1015 0.961 . S
H1032 C1016 0.931 . S
H1033 C1021 0.930 . S
H1034 C1022 0.956 . S
H1035 C1022 0.961 . S
H1036 C1022 0.961 . S
H1037 C1023 0.958 . S
H1038 C1023 0.961 . S
H1039 C1023 0.960 . S
C1040 C1041 1.391 . S
C1040 C1042 1.394 . S
C1040 H1056 0.931 . S
C1041 C1040 1.391 . S
C1041 C1045 1.376 . S
C1042 C1040 1.394 . S
C1042 C1043 1.369 . S
C1042 C1046 1.531 . S
C1043 C1042 1.369 . S
C1043 C1044 1.410 . S
C1043 C1051 1.503 . S
C1044 C1043 1.410 . S
C1044 C1045 1.392 . S
C1044 C1047 1.511 . S
C1045 C1041 1.376 . S
C1045 C1044 1.392 . S
C1045 H1057 0.929 . S
C1046 C1042 1.531 . S
C1046 H1058 0.960 . S
C1046 H1059 0.962 . S
C1046 H1060 0.960 . S
C1047 C1044 1.511 . S
C1047 H1061 0.961 . S
C1047 H1062 0.961 . S
C1047 H1063 0.961 . S
C1048 C1049 1.370 . S
C1048 C1050 1.363 . S
C1048 H1064 0.931 . S
C1049 C1048 1.370 . S
C1049 C1053 1.408 . S
C1050 C1048 1.363 . S
C1050 C1051 1.370 . S
C1050 C1054 1.524 . S
C1051 C1043 1.503 . S
C1051 C1050 1.370 . S
C1051 C1052 1.403 . S
C1052 C1051 1.403 . S
C1052 C1053 1.404 . S
C1052 C1055 1.539 . S
C1053 C1049 1.408 . S
C1053 C1052 1.404 . S
C1053 H1065 0.930 . S
C1054 C1050 1.524 . S
C1054 H1066 0.956 . S
C1054 H1067 0.961 . S
C1054 H1068 0.961 . S
C1055 C1052 1.539 . S
C1055 H1069 0.958 . S
C1055 H1070 0.961 . S
C1055 H1071 0.960 . S
H1056 C1040 0.931 . S
H1057 C1045 0.929 . S
H1058 C1046 0.960 . S
H1059 C1046 0.962 . S
H1060 C1046 0.960 . S
H1061 C1047 0.961 . S
H1062 C1047 0.961 . S
H1063 C1047 0.961 . S
H1064 C1048 0.931 . S
H1065 C1053 0.930 . S
H1066 C1054 0.956 . S
H1067 C1054 0.961 . S
H1068 C1054 0.961 . S
H1069 C1055 0.958 . S
H1070 C1055 0.961 . S
H1071 C1055 0.960 . S
C1072 C1073 1.391 . S
C1072 C1074 1.394 . S
C1072 H1088 0.931 . S
C1073 C1072 1.391 . S
C1073 C1077 1.376 . S
C1074 C1072 1.394 . S
C1074 C1075 1.369 . S
C1074 C1078 1.531 . S
C1075 C1074 1.369 . S
C1075 C1076 1.410 . S
C1075 C1083 1.503 . S
C1076 C1075 1.410 . S
C1076 C1077 1.392 . S
C1076 C1079 1.511 . S
C1077 C1073 1.376 . S
C1077 C1076 1.392 . S
C1077 H1089 0.929 . S
C1078 C1074 1.531 . S
C1078 H1090 0.960 . S
C1078 H1091 0.962 . S
C1078 H1092 0.960 . S
C1079 C1076 1.511 . S
C1079 H1093 0.961 . S
C1079 H1094 0.961 . S
C1079 H1095 0.961 . S
C1080 C1081 1.370 . S
C1080 C1082 1.363 . S
C1080 H1096 0.931 . S
C1081 C1080 1.370 . S
C1081 C1085 1.408 . S
C1082 C1080 1.363 . S
C1082 C1083 1.370 . S
C1082 C1086 1.524 . S
C1083 C1075 1.503 . S
C1083 C1082 1.370 . S
C1083 C1084 1.403 . S
C1084 C1083 1.403 . S
C1084 C1085 1.404 . S
C1084 C1087 1.539 . S
C1085 C1081 1.408 . S
C1085 C1084 1.404 . S
C1085 H1097 0.930 . S
C1086 C1082 1.524 . S
C1086 H1098 0.956 . S
C1086 H1099 0.961 . S
C1086 H1100 0.961 . S
C1087 C1084 1.539 . S
C1087 H1101 0.958 . S
C1087 H1102 0.961 . S
C1087 H1103 0.960 . S
H1088 C1072 0.931 . S
H1089 C1077 0.929 . S
H1090 C1078 0.960 . S
H1091 C1078 0.962 . S
H1092 C1078 0.960 . S
H1093 C1079 0.961 . S
H1094 C1079 0.961 . S
H1095 C1079 0.961 . S
H1096 C1080 0.931 . S
H1097 C1085 0.930 . S
H1098 C1086 0.956 . S
H1099 C1086 0.961 . S
H1100 C1086 0.961 . S
H1101 C1087 0.958 . S
H1102 C1087 0.961 . S
H1103 C1087 0.960 . S
C1104 C1105 1.391 . S
C1104 C1106 1.394 . S
C1104 H1120 0.931 . S
C1105 C1104 1.391 . S
C1105 C1109 1.376 . S
C1106 C1104 1.394 . S
C1106 C1107 1.369 . S
C1106 C1110 1.531 . S
C1107 C1106 1.369 . S
C1107 C1108 1.410 . S
C1107 C1115 1.503 . S
C1108 C1107 1.410 . S
C1108 C1109 1.392 . S
C1108 C1111 1.511 . S
C1109 C1105 1.376 . S
C1109 C1108 1.392 . S
C1109 H1121 0.929 . S
C1110 C1106 1.531 . S
C1110 H1122 0.960 . S
C1110 H1123 0.962 . S
C1110 H1124 0.960 . S
C1111 C1108 1.511 . S
C1111 H1125 0.961 . S
C1111 H1126 0.961 . S
C1111 H1127 0.961 . S
C1112 C1113 1.370 . S
C1112 C1114 1.363 . S
C1112 H1128 0.931 . S
C1113 C1112 1.370 . S
C1113 C1117 1.408 . S
C1114 C1112 1.363 . S
C1114 C1115 1.370 . S
C1114 C1118 1.524 . S
C1115 C1107 1.503 . S
C1115 C1114 1.370 . S
C1115 C1116 1.403 . S
C1116 C1115 1.403 . S
C1116 C1117 1.404 . S
C1116 C1119 1.539 . S
C1117 C1113 1.408 . S
C1117 C1116 1.404 . S
C1117 H1129 0.930 . S
C1118 C1114 1.524 . S
C1118 H1130 0.956 . S
C1118 H1131 0.961 . S
C1118 H1132 0.961 . S
C1119 C1116 1.539 . S
C1119 H1133 0.958 . S
C1119 H1134 0.961 . S
C1119 H1135 0.960 . S
H1120 C1104 0.931 . S
H1121 C1109 0.929 . S
H1122 C1110 0.960 . S
H1123 C1110 0.962 . S
H1124 C1110 0.960 . S
H1125 C1111 0.961 . S
H1126 C1111 0.961 . S
H1127 C1111 0.961 . S
H1128 C1112 0.931 . S
H1129 C1117 0.930 . S
H1130 C1118 0.956 . S
H1131 C1118 0.961 . S
H1132 C1118 0.961 . S
H1133 C1119 0.958 . S
H1134 C1119 0.961 . S
H1135 C1119 0.960 . S
C1136 C1137 1.391 . S
C1136 C1138 1.394 . S
C1136 H1152 0.931 . S
C1137 C1136 1.391 . S
C1137 C1141 1.376 . S
C1138 C1136 1.394 . S
C1138 C1139 1.369 . S
C1138 C1142 1.531 . S
C1139 C1138 1.369 . S
C1139 C1140 1.410 . S
C1139 C1147 1.503 . S
C1140 C1139 1.410 . S
C1140 C1141 1.392 . S
C1140 C1143 1.511 . S
C1141 C1137 1.376 . S
C1141 C1140 1.392 . S
C1141 H1153 0.929 . S
C1142 C1138 1.531 . S
C1142 H1154 0.960 . S
C1142 H1155 0.962 . S
C1142 H1156 0.960 . S
C1143 C1140 1.511 . S
C1143 H1157 0.961 . S
C1143 H1158 0.961 . S
C1143 H1159 0.961 . S
C1144 C1145 1.370 . S
C1144 C1146 1.363 . S
C1144 H1160 0.931 . S
C1145 C1144 1.370 . S
C1145 C1149 1.408 . S
C1146 C1144 1.363 . S
C1146 C1147 1.370 . S
C1146 C1150 1.524 . S
C1147 C1139 1.503 . S
C1147 C1146 1.370 . S
C1147 C1148 1.403 . S
C1148 C1147 1.403 . S
C1148 C1149 1.404 . S
C1148 C1151 1.539 . S
C1149 C1145 1.408 . S
C1149 C1148 1.404 . S
C1149 H1161 0.930 . S
C1150 C1146 1.524 . S
C1150 H1162 0.956 . S
C1150 H1163 0.961 . S
C1150 H1164 0.961 . S
C1151 C1148 1.539 . S
C1151 H1165 0.958 . S
C1151 H1166 0.961 . S
C1151 H1167 0.960 . S
H1152 C1136 0.931 . S
H1153 C1141 0.929 . S
H1154 C1142 0.960 . S
H1155 C1142 0.962 . S
H1156 C1142 0.960 . S
H1157 C1143 0.961 . S
H1158 C1143 0.961 . S
H1159 C1143 0.961 . S
H1160 C1144 0.931 . S
H1161 C1149 0.930 . S
H1162 C1150 0.956 . S
H1163 C1150 0.961 . S
H1164 C1150 0.961 . S
H1165 C1151 0.958 . S
H1166 C1151 0.961 . S
H1167 C1151 0.960 . S
C1168 C1169 1.391 . S
C1168 C1170 1.394 . S
C1168 H1184 0.931 . S
C1169 C1168 1.391 . S
C1169 C1173 1.376 . S
C1170 C1168 1.394 . S
C1170 C1171 1.369 . S
C1170 C1174 1.531 . S
C1171 C1170 1.369 . S
C1171 C1172 1.410 . S
C1171 C1179 1.503 . S
C1172 C1171 1.410 . S
C1172 C1173 1.392 . S
C1172 C1175 1.511 . S
C1173 C1169 1.376 . S
C1173 C1172 1.392 . S
C1173 H1185 0.929 . S
C1174 C1170 1.531 . S
C1174 H1186 0.960 . S
C1174 H1187 0.962 . S
C1174 H1188 0.960 . S
C1175 C1172 1.511 . S
C1175 H1189 0.961 . S
C1175 H1190 0.961 . S
C1175 H1191 0.961 . S
C1176 C1177 1.370 . S
C1176 C1178 1.363 . S
C1176 H1192 0.931 . S
C1177 C1176 1.370 . S
C1177 C1181 1.408 . S
C1178 C1176 1.363 . S
C1178 C1179 1.370 . S
C1178 C1182 1.524 . S
C1179 C1171 1.503 . S
C1179 C1178 1.370 . S
C1179 C1180 1.403 . S
C1180 C1179 1.403 . S
C1180 C1181 1.404 . S
C1180 C1183 1.539 . S
C1181 C1177 1.408 . S
C1181 C1180 1.404 . S
C1181 H1193 0.930 . S
C1182 C1178 1.524 . S
C1182 H1194 0.956 . S
C1182 H1195 0.961 . S
C1182 H1196 0.961 . S
C1183 C1180 1.539 . S
C1183 H1197 0.958 . S
C1183 H1198 0.961 . S
C1183 H1199 0.960 . S
H1184 C1168 0.931 . S
H1185 C1173 0.929 . S
H1186 C1174 0.960 . S
H1187 C1174 0.962 . S
H1188 C1174 0.960 . S
H1189 C1175 0.961 . S
H1190 C1175 0.961 . S
H1191 C1175 0.961 . S
H1192 C1176 0.931 . S
H1193 C1181 0.930 . S
H1194 C1182 0.956 . S
H1195 C1182 0.961 . S
H1196 C1182 0.961 . S
H1197 C1183 0.958 . S
H1198 C1183 0.961 . S
H1199 C1183 0.960 . S
C1200 C1201 1.391 . S
C1200 C1202 1.394 . S
C1200 H1216 0.931 . S
C1201 C1200 1.391 . S
C1201 C1205 1.376 . S
C1202 C1200 1.394 . S
C1202 C1203 1.369 . S
C1202 C1206 1.531 . S
C1203 C1202 1.369 . S
C1203 C1204 1.410 . S
C1203 C1211 1.503 . S
C1204 C1203 1.410 . S
C1204 C1205 1.392 . S
C1204 C1207 1.511 . S
C1205 C1201 1.376 . S
C1205 C1204 1.392 . S
C1205 H1217 0.929 . S
C1206 C1202 1.531 . S
C1206 H1218 0.960 . S
C1206 H1219 0.962 . S
C1206 H1220 0.960 . S
C1207 C1204 1.511 . S
C1207 H1221 0.961 . S
C1207 H1222 0.961 . S
C1207 H1223 0.961 . S
C1208 C1209 1.370 . S
C1208 C1210 1.363 . S
C1208 H1224 0.931 . S
C1209 C1208 1.370 . S
C1209 C1213 1.408 . S
C1210 C1208 1.363 . S
C1210 C1211 1.370 . S
C1210 C1214 1.524 . S
C1211 C1203 1.503 . S
C1211 C1210 1.370 . S
C1211 C1212 1.403 . S
C1212 C1211 1.403 . S
C1212 C1213 1.404 . S
C1212 C1215 1.539 . S
C1213 C1209 1.408 . S
C1213 C1212 1.404 . S
C1213 H1225 0.930 . S
C1214 C1210 1.524 . S
C1214 H1226 0.956 . S
C1214 H1227 0.961 . S
C1214 H1228 0.961 . S
C1215 C1212 1.539 . S
C1215 H1229 0.958 . S
C1215 H1230 0.961 . S
C1215 H1231 0.960 . S
H1216 C1200 0.931 . S
H1217 C1205 0.929 . S
H1218 C1206 0.960 . S
H1219 C1206 0.962 . S
H1220 C1206 0.960 . S
H1221 C1207 0.961 . S
H1222 C1207 0.961 . S
H1223 C1207 0.961 . S
H1224 C1208 0.931 . S
H1225 C1213 0.930 . S
H1226 C1214 0.956 . S
H1227 C1214 0.961 . S
H1228 C1214 0.961 . S
H1229 C1215 0.958 . S
H1230 C1215 0.961 . S
H1231 C1215 0.960 . S
C1232 C1233 1.391 . S
C1232 C1234 1.394 . S
C1232 H1248 0.931 . S
C1233 C1232 1.391 . S
C1233 C1237 1.376 . S
C1234 C1232 1.394 . S
C1234 C1235 1.369 . S
C1234 C1238 1.531 . S
C1235 C1234 1.369 . S
C1235 C1236 1.410 . S
C1235 C1243 1.503 . S
C1236 C1235 1.410 . S
C1236 C1237 1.392 . S
C1236 C1239 1.511 . S
C1237 C1233 1.376 . S
C1237 C1236 1.392 . S
C1237 H1249 0.929 . S
C1238 C1234 1.531 . S
C1238 H1250 0.960 . S
C1238 H1251 0.962 . S
C1238 H1252 0.960 . S
C1239 C1236 1.511 . S
C1239 H1253 0.961 . S
C1239 H1254 0.961 . S
C1239 H1255 0.961 . S
C1240 C1241 1.370 . S
C1240 C1242 1.363 . S
C1240 H1256 0.931 . S
C1241 C1240 1.370 . S
C1241 C1245 1.408 . S
C1242 C1240 1.363 . S
C1242 C1243 1.370 . S
C1242 C1246 1.524 . S
C1243 C1235 1.503 . S
C1243 C1242 1.370 . S
C1243 C1244 1.403 . S
C1244 C1243 1.403 . S
C1244 C1245 1.404 . S
C1244 C1247 1.539 . S
C1245 C1241 1.408 . S
C1245 C1244 1.404 . S
C1245 H1257 0.930 . S
C1246 C1242 1.524 . S
C1246 H1258 0.956 . S
C1246 H1259 0.961 . S
C1246 H1260 0.961 . S
C1247 C1244 1.539 . S
C1247 H1261 0.958 . S
C1247 H1262 0.961 . S
C1247 H1263 0.960 . S
H1248 C1232 0.931 . S
H1249 C1237 0.929 . S
H1250 C1238 0.960 . S
H1251 C1238 0.962 . S
H1252 C1238 0.960 . S
H1253 C1239 0.961 . S
H1254 C1239 0.961 . S
H1255 C1239 0.961 . S
H1256 C1240 0.931 . S
H1257 C1245 0.930 . S
H1258 C1246 0.956 . S
H1259 C1246 0.961 . S
H1260 C1246 0.961 . S
H1261 C1247 0.958 . S
H1262 C1247 0.961 . S
H1263 C1247 0.960 . S
C1264 C1265 1.391 . S
C1264 C1266 1.394 . S
C1264 H1280 0.931 . S
C1265 C1264 1.391 . S
C1265 C1269 1.376 . S
C1266 C1264 1.394 . S
C1266 C1267 1.369 . S
C1266 C1270 1.531 . S
C1267 C1266 1.369 . S
C1267 C1268 1.410 . S
C1267 C1275 1.503 . S
C1268 C1267 1.410 . S
C1268 C1269 1.392 . S
C1268 C1271 1.511 . S
C1269 C1265 1.376 . S
C1269 C1268 1.392 . S
C1269 H1281 0.929 . S
C1270 C1266 1.531 . S
C1270 H1282 0.960 . S
C1270 H1283 0.962 . S
C1270 H1284 0.960 . S
C1271 C1268 1.511 . S
C1271 H1285 0.961 . S
C1271 H1286 0.961 . S
C1271 H1287 0.961 . S
C1272 C1273 1.370 . S
C1272 C1274 1.363 . S
C1272 H1288 0.931 . S
C1273 C1272 1.370 . S
C1273 C1277 1.408 . S
C1274 C1272 1.363 . S
C1274 C1275 1.370 . S
C1274 C1278 1.524 . S
C1275 C1267 1.503 . S
C1275 C1274 1.370 . S
C1275 C1276 1.403 . S
C1276 C1275 1.403 . S
C1276 C1277 1.404 . S
C1276 C1279 1.539 . S
C1277 C1273 1.408 . S
C1277 C1276 1.404 . S
C1277 H1289 0.930 . S
C1278 C1274 1.524 . S
C1278 H1290 0.956 . S
C1278 H1291 0.961 . S
C1278 H1292 0.961 . S
C1279 C1276 1.539 . S
C1279 H1293 0.958 . S
C1279 H1294 0.961 . S
C1279 H1295 0.960 . S
H1280 C1264 0.931 . S
H1281 C1269 0.929 . S
H1282 C1270 0.960 . S
H1283 C1270 0.962 . S
H1284 C1270 0.960 . S
H1285 C1271 0.961 . S
H1286 C1271 0.961 . S
H1287 C1271 0.961 . S
H1288 C1272 0.931 . S
H1289 C1277 0.930 . S
H1290 C1278 0.956 . S
H1291 C1278 0.961 . S
H1292 C1278 0.961 . S
H1293 C1279 0.958 . S
H1294 C1279 0.961 . S
H1295 C1279 0.960 . S
C1296 C1297 1.391 . S
C1296 C1298 1.394 . S
C1296 H1312 0.931 . S
C1297 C1296 1.391 . S
C1297 C1301 1.376 . S
C1298 C1296 1.394 . S
C1298 C1299 1.369 . S
C1298 C1302 1.531 . S
C1299 C1298 1.369 . S
C1299 C1300 1.410 . S
C1299 C1307 1.503 . S
C1300 C1299 1.410 . S
C1300 C1301 1.392 . S
C1300 C1303 1.511 . S
C1301 C1297 1.376 . S
C1301 C1300 1.392 . S
C1301 H1313 0.929 . S
C1302 C1298 1.531 . S
C1302 H1314 0.960 . S
C1302 H1315 0.962 . S
C1302 H1316 0.960 . S
C1303 C1300 1.511 . S
C1303 H1317 0.961 . S
C1303 H1318 0.961 . S
C1303 H1319 0.961 . S
C1304 C1305 1.370 . S
C1304 C1306 1.363 . S
C1304 H1320 0.931 . S
C1305 C1304 1.370 . S
C1305 C1309 1.408 . S
C1306 C1304 1.363 . S
C1306 C1307 1.370 . S
C1306 C1310 1.524 . S
C1307 C1299 1.503 . S
C1307 C1306 1.370 . S
C1307 C1308 1.403 . S
C1308 C1307 1.403 . S
C1308 C1309 1.404 . S
C1308 C1311 1.539 . S
C1309 C1305 1.408 . S
C1309 C1308 1.404 . S
C1309 H1321 0.930 . S
C1310 C1306 1.524 . S
C1310 H1322 0.956 . S
C1310 H1323 0.961 . S
C1310 H1324 0.961 . S
C1311 C1308 1.539 . S
C1311 H1325 0.958 . S
C1311 H1326 0.961 . S
C1311 H1327 0.960 . S
H1312 C1296 0.931 . S
H1313 C1301 0.929 . S
H1314 C1302 0.960 . S
H1315 C1302 0.962 . S
H1316 C1302 0.960 . S
H1317 C1303 0.961 . S
H1318 C1303 0.961 . S
H1319 C1303 0.961 . S
H1320 C1304 0.931 . S
H1321 C1309 0.930 . S
H1322 C1310 0.956 . S
H1323 C1310 0.961 . S
H1324 C1310 0.961 . S
H1325 C1311 0.958 . S
H1326 C1311 0.961 . S
H1327 C1311 0.960 . S
C1328 C1329 1.391 . S
C1328 C1330 1.394 . S
C1328 H1344 0.931 . S
C1329 C1328 1.391 . S
C1329 C1333 1.376 . S
C1330 C1328 1.394 . S
C1330 C1331 1.369 . S
C1330 C1334 1.531 . S
C1331 C1330 1.369 . S
C1331 C1332 1.410 . S
C1331 C1339 1.503 . S
C1332 C1331 1.410 . S
C1332 C1333 1.392 . S
C1332 C1335 1.511 . S
C1333 C1329 1.376 . S
C1333 C1332 1.392 . S
C1333 H1345 0.929 . S
C1334 C1330 1.531 . S
C1334 H1346 0.960 . S
C1334 H1347 0.962 . S
C1334 H1348 0.960 . S
C1335 C1332 1.511 . S
C1335 H1349 0.961 . S
C1335 H1350 0.961 . S
C1335 H1351 0.961 . S
C1336 C1337 1.370 . S
C1336 C1338 1.363 . S
C1336 H1352 0.931 . S
C1337 C1336 1.370 . S
C1337 C1341 1.408 . S
C1338 C1336 1.363 . S
C1338 C1339 1.370 . S
C1338 C1342 1.524 . S
C1339 C1331 1.503 . S
C1339 C1338 1.370 . S
C1339 C1340 1.403 . S
C1340 C1339 1.403 . S
C1340 C1341 1.404 . S
C1340 C1343 1.539 . S
C1341 C1337 1.408 . S
C1341 C1340 1.404 . S
C1341 H1353 0.930 . S
C1342 C1338 1.524 . S
C1342 H1354 0.956 . S
C1342 H1355 0.961 . S
C1342 H1356 0.961 . S
C1343 C1340 1.539 . S
C1343 H1357 0.958 . S
C1343 H1358 0.961 . S
C1343 H1359 0.960 . S
H1344 C1328 0.931 . S
H1345 C1333 0.929 . S
H1346 C1334 0.960 . S
H1347 C1334 0.962 . S
H1348 C1334 0.960 . S
H1349 C1335 0.961 . S
H1350 C1335 0.961 . S
H1351 C1335 0.961 . S
H1352 C1336 0.931 . S
H1353 C1341 0.930 . S
H1354 C1342 0.956 . S
H1355 C1342 0.961 . S
H1356 C1342 0.961 . S
H1357 C1343 0.958 . S
H1358 C1343 0.961 . S
H1359 C1343 0.960 . S
C1360 C1361 1.391 . S
C1360 C1362 1.394 . S
C1360 H1376 0.931 . S
C1361 C1360 1.391 . S
C1361 C1365 1.376 . S
C1362 C1360 1.394 . S
C1362 C1363 1.369 . S
C1362 C1366 1.531 . S
C1363 C1362 1.369 . S
C1363 C1364 1.410 . S
C1363 C1371 1.503 . S
C1364 C1363 1.410 . S
C1364 C1365 1.392 . S
C1364 C1367 1.511 . S
C1365 C1361 1.376 . S
C1365 C1364 1.392 . S
C1365 H1377 0.929 . S
C1366 C1362 1.531 . S
C1366 H1378 0.960 . S
C1366 H1379 0.962 . S
C1366 H1380 0.960 . S
C1367 C1364 1.511 . S
C1367 H1381 0.961 . S
C1367 H1382 0.961 . S
C1367 H1383 0.961 . S
C1368 C1369 1.370 . S
C1368 C1370 1.363 . S
C1368 H1384 0.931 . S
C1369 C1368 1.370 . S
C1369 C1373 1.408 . S
C1370 C1368 1.363 . S
C1370 C1371 1.370 . S
C1370 C1374 1.524 . S
C1371 C1363 1.503 . S
C1371 C1370 1.370 . S
C1371 C1372 1.403 . S
C1372 C1371 1.403 . S
C1372 C1373 1.404 . S
C1372 C1375 1.539 . S
C1373 C1369 1.408 . S
C1373 C1372 1.404 . S
C1373 H1385 0.930 . S
C1374 C1370 1.524 . S
C1374 H1386 0.956 . S
C1374 H1387 0.961 . S
C1374 H1388 0.961 . S
C1375 C1372 1.539 . S
C1375 H1389 0.958 . S
C1375 H1390 0.961 . S
C1375 H1391 0.960 . S
H1376 C1360 0.931 . S
H1377 C1365 0.929 . S
H1378 C1366 0.960 . S
H1379 C1366 0.962 . S
H1380 C1366 0.960 . S
H1381 C1367 0.961 . S
H1382 C1367 0.961 . S
H1383 C1367 0.961 . S
H1384 C1368 0.931 . S
H1385 C1373 0.930 . S
H1386 C1374 0.956 . S
H1387 C1374 0.961 . S
H1388 C1374 0.961 . S
H1389 C1375 0.958 . S
H1390 C1375 0.961 . S
H1391 C1375 0.960 . S
C1392 C1393 1.391 . S
C1392 C1394 1.394 . S
C1392 H1408 0.931 . S
C1393 C1392 1.391 . S
C1393 C1397 1.376 . S
C1394 C1392 1.394 . S
C1394 C1395 1.369 . S
C1394 C1398 1.531 . S
C1395 C1394 1.369 . S
C1395 C1396 1.410 . S
C1395 C1403 1.503 . S
C1396 C1395 1.410 . S
C1396 C1397 1.392 . S
C1396 C1399 1.511 . S
C1397 C1393 1.376 . S
C1397 C1396 1.392 . S
C1397 H1409 0.929 . S
C1398 C1394 1.531 . S
C1398 H1410 0.960 . S
C1398 H1411 0.962 . S
C1398 H1412 0.960 . S
C1399 C1396 1.511 . S
C1399 H1413 0.961 . S
C1399 H1414 0.961 . S
C1399 H1415 0.961 . S
C1400 C1401 1.370 . S
C1400 C1402 1.363 . S
C1400 H1416 0.931 . S
C1401 C1400 1.370 . S
C1401 C1405 1.408 . S
C1402 C1400 1.363 . S
C1402 C1403 1.370 . S
C1402 C1406 1.524 . S
C1403 C1395 1.503 . S
C1403 C1402 1.370 . S
C1403 C1404 1.403 . S
C1404 C1403 1.403 . S
C1404 C1405 1.404 . S
C1404 C1407 1.539 . S
C1405 C1401 1.408 . S
C1405 C1404 1.404 . S
C1405 H1417 0.930 . S
C1406 C1402 1.524 . S
C1406 H1418 0.956 . S
C1406 H1419 0.961 . S
C1406 H1420 0.961 . S
C1407 C1404 1.539 . S
C1407 H1421 0.958 . S
C1407 H1422 0.961 . S
C1407 H1423 0.960 . S
H1408 C1392 0.931 . S
H1409 C1397 0.929 . S
H1410 C1398 0.960 . S
H1411 C1398 0.962 . S
H1412 C1398 0.960 . S
H1413 C1399 0.961 . S
H1414 C1399 0.961 . S
H1415 C1399 0.961 . S
H1416 C1400 0.931 . S
H1417 C1405 0.930 . S
H1418 C1406 0.956 . S
H1419 C1406 0.961 . S
H1420 C1406 0.961 . S
H1421 C1407 0.958 . S
H1422 C1407 0.961 . S
H1423 C1407 0.960 . S
C1424 C1425 1.391 . S
C1424 C1426 1.394 . S
C1424 H1440 0.931 . S
C1425 C1424 1.391 . S
C1425 C1429 1.376 . S
C1426 C1424 1.394 . S
C1426 C1427 1.369 . S
C1426 C1430 1.531 . S
C1427 C1426 1.369 . S
C1427 C1428 1.410 . S
C1427 C1435 1.503 . S
C1428 C1427 1.410 . S
C1428 C1429 1.392 . S
C1428 C1431 1.511 . S
C1429 C1425 1.376 . S
C1429 C1428 1.392 . S
C1429 H1441 0.929 . S
C1430 C1426 1.531 . S
C1430 H1442 0.960 . S
C1430 H1443 0.962 . S
C1430 H1444 0.960 . S
C1431 C1428 1.511 . S
C1431 H1445 0.961 . S
C1431 H1446 0.961 . S
C1431 H1447 0.961 . S
C1432 C1433 1.370 . S
C1432 C1434 1.363 . S
C1432 H1448 0.931 . S
C1433 C1432 1.370 . S
C1433 C1437 1.408 . S
C1434 C1432 1.363 . S
C1434 C1435 1.370 . S
C1434 C1438 1.524 . S
C1435 C1427 1.503 . S
C1435 C1434 1.370 . S
C1435 C1436 1.403 . S
C1436 C1435 1.403 . S
C1436 C1437 1.404 . S
C1436 C1439 1.539 . S
C1437 C1433 1.408 . S
C1437 C1436 1.404 . S
C1437 H1449 0.930 . S
C1438 C1434 1.524 . S
C1438 H1450 0.956 . S
C1438 H1451 0.961 . S
C1438 H1452 0.961 . S
C1439 C1436 1.539 . S
C1439 H1453 0.958 . S
C1439 H1454 0.961 . S
C1439 H1455 0.960 . S
H1440 C1424 0.931 . S
H1441 C1429 0.929 . S
H1442 C1430 0.960 . S
H1443 C1430 0.962 . S
H1444 C1430 0.960 . S
H1445 C1431 0.961 . S
H1446 C1431 0.961 . S
H1447 C1431 0.961 . S
H1448 C1432 0.931 . S
H1449 C1437 0.930 . S
H1450 C1438 0.956 . S
H1451 C1438 0.961 . S
H1452 C1438 0.961 . S
H1453 C1439 0.958 . S
H1454 C1439 0.961 . S
H1455 C1439 0.960 . S
C1456 C1457 1.391 . S
C1456 C1458 1.394 . S
C1456 H1472 0.931 . S
C1457 C1456 1.391 . S
C1457 C1461 1.376 . S
C1458 C1456 1.394 . S
C1458 C1459 1.369 . S
C1458 C1462 1.531 . S
C1459 C1458 1.369 . S
C1459 C1460 1.410 . S
C1459 C1467 1.503 . S
C1460 C1459 1.410 . S
C1460 C1461 1.392 . S
C1460 C1463 1.511 . S
C1461 C1457 1.376 . S
C1461 C1460 1.392 . S
C1461 H1473 0.929 . S
C1462 C1458 1.531 . S
C1462 H1474 0.960 . S
C1462 H1475 0.962 . S
C1462 H1476 0.960 . S
C1463 C1460 1.511 . S
C1463 H1477 0.961 . S
C1463 H1478 0.961 . S
C1463 H1479 0.961 . S
C1464 C1465 1.370 . S
C1464 C1466 1.363 . S
C1464 H1480 0.931 . S
C1465 C1464 1.370 . S
C1465 C1469 1.408 . S
C1466 C1464 1.363 . S
C1466 C1467 1.370 . S
C1466 C1470 1.524 . S
C1467 C1459 1.503 . S
C1467 C1466 1.370 . S
C1467 C1468 1.403 . S
C1468 C1467 1.403 . S
C1468 C1469 1.404 . S
C1468 C1471 1.539 . S
C1469 C1465 1.408 . S
C1469 C1468 1.404 . S
C1469 H1481 0.930 . S
C1470 C1466 1.524 . S
C1470 H1482 0.956 . S
C1470 H1483 0.961 . S
C1470 H1484 0.961 . S
C1471 C1468 1.539 . S
C1471 H1485 0.958 . S
C1471 H1486 0.961 . S
C1471 H1487 0.960 . S
H1472 C1456 0.931 . S
H1473 C1461 0.929 . S
H1474 C1462 0.960 . S
H1475 C1462 0.962 . S
H1476 C1462 0.960 . S
H1477 C1463 0.961 . S
H1478 C1463 0.961 . S
H1479 C1463 0.961 . S
H1480 C1464 0.931 . S
H1481 C1469 0.930 . S
H1482 C1470 0.956 . S
H1483 C1470 0.961 . S
H1484 C1470 0.961 . S
H1485 C1471 0.958 . S
H1486 C1471 0.961 . S
H1487 C1471 0.960 . S
C1488 C1489 1.391 . S
C1488 C1490 1.394 . S
C1488 H1504 0.931 . S
C1489 C1488 1.391 . S
C1489 C1493 1.376 . S
C1490 C1488 1.394 . S
C1490 C1491 1.369 . S
C1490 C1494 1.531 . S
C1491 C1490 1.369 . S
C1491 C1492 1.410 . S
C1491 C1499 1.503 . S
C1492 C1491 1.410 . S
C1492 C1493 1.392 . S
C1492 C1495 1.511 . S
C1493 C1489 1.376 . S
C1493 C1492 1.392 . S
C1493 H1505 0.929 . S
C1494 C1490 1.531 . S
C1494 H1506 0.960 . S
C1494 H1507 0.962 . S
C1494 H1508 0.960 . S
C1495 C1492 1.511 . S
C1495 H1509 0.961 . S
C1495 H1510 0.961 . S
C1495 H1511 0.961 . S
C1496 C1497 1.370 . S
C1496 C1498 1.363 . S
C1496 H1512 0.931 . S
C1497 C1496 1.370 . S
C1497 C1501 1.408 . S
C1498 C1496 1.363 . S
C1498 C1499 1.370 . S
C1498 C1502 1.524 . S
C1499 C1491 1.503 . S
C1499 C1498 1.370 . S
C1499 C1500 1.403 . S
C1500 C1499 1.403 . S
C1500 C1501 1.404 . S
C1500 C1503 1.539 . S
C1501 C1497 1.408 . S
C1501 C1500 1.404 . S
C1501 H1513 0.930 . S
C1502 C1498 1.524 . S
C1502 H1514 0.956 . S
C1502 H1515 0.961 . S
C1502 H1516 0.961 . S
C1503 C1500 1.539 . S
C1503 H1517 0.958 . S
C1503 H1518 0.961 . S
C1503 H1519 0.960 . S
H1504 C1488 0.931 . S
H1505 C1493 0.929 . S
H1506 C1494 0.960 . S
H1507 C1494 0.962 . S
H1508 C1494 0.960 . S
H1509 C1495 0.961 . S
H1510 C1495 0.961 . S
H1511 C1495 0.961 . S
H1512 C1496 0.931 . S
H1513 C1501 0.930 . S
H1514 C1502 0.956 . S
H1515 C1502 0.961 . S
H1516 C1502 0.961 . S
H1517 C1503 0.958 . S
H1518 C1503 0.961 . S
H1519 C1503 0.960 . S
C1520 C1521 1.391 . S
C1520 C1522 1.394 . S
C1520 H1536 0.931 . S
C1521 C1520 1.391 . S
C1521 C1525 1.376 . S
C1522 C1520 1.394 . S
C1522 C1523 1.369 . S
C1522 C1526 1.531 . S
C1523 C1522 1.369 . S
C1523 C1524 1.410 . S
C1523 C1531 1.503 . S
C1524 C1523 1.410 . S
C1524 C1525 1.392 . S
C1524 C1527 1.511 . S
C1525 C1521 1.376 . S
C1525 C1524 1.392 . S
C1525 H1537 0.929 . S
C1526 C1522 1.531 . S
C1526 H1538 0.960 . S
C1526 H1539 0.962 . S
C1526 H1540 0.960 . S
C1527 C1524 1.511 . S
C1527 H1541 0.961 . S
C1527 H1542 0.961 . S
C1527 H1543 0.961 . S
C1528 C1529 1.370 . S
C1528 C1530 1.363 . S
C1528 H1544 0.931 . S
C1529 C1528 1.370 . S
C1529 C1533 1.408 . S
C1530 C1528 1.363 . S
C1530 C1531 1.370 . S
C1530 C1534 1.524 . S
C1531 C1523 1.503 . S
C1531 C1530 1.370 . S
C1531 C1532 1.403 . S
C1532 C1531 1.403 . S
C1532 C1533 1.404 . S
C1532 C1535 1.539 . S
C1533 C1529 1.408 . S
C1533 C1532 1.404 . S
C1533 H1545 0.930 . S
C1534 C1530 1.524 . S
C1534 H1546 0.956 . S
C1534 H1547 0.961 . S
C1534 H1548 0.961 . S
C1535 C1532 1.539 . S
C1535 H1549 0.958 . S
C1535 H1550 0.961 . S
C1535 H1551 0.960 . S
H1536 C1520 0.931 . S
H1537 C1525 0.929 . S
H1538 C1526 0.960 . S
H1539 C1526 0.962 . S
H1540 C1526 0.960 . S
H1541 C1527 0.961 . S
H1542 C1527 0.961 . S
H1543 C1527 0.961 . S
H1544 C1528 0.931 . S
H1545 C1533 0.930 . S
H1546 C1534 0.956 . S
H1547 C1534 0.961 . S
H1548 C1534 0.961 . S
H1549 C1535 0.958 . S
H1550 C1535 0.961 . S
H1551 C1535 0.960 . S
C1552 C1553 1.391 . S
C1552 C1554 1.394 . S
C1552 H1568 0.931 . S
C1553 C1552 1.391 . S
C1553 C1557 1.376 . S
C1554 C1552 1.394 . S
C1554 C1555 1.369 . S
C1554 C1558 1.531 . S
C1555 C1554 1.369 . S
C1555 C1556 1.410 . S
C1555 C1563 1.503 . S
C1556 C1555 1.410 . S
C1556 C1557 1.392 . S
C1556 C1559 1.511 . S
C1557 C1553 1.376 . S
C1557 C1556 1.392 . S
C1557 H1569 0.929 . S
C1558 C1554 1.531 . S
C1558 H1570 0.960 . S
C1558 H1571 0.962 . S
C1558 H1572 0.960 . S
C1559 C1556 1.511 . S
C1559 H1573 0.961 . S
C1559 H1574 0.961 . S
C1559 H1575 0.961 . S
C1560 C1561 1.370 . S
C1560 C1562 1.363 . S
C1560 H1576 0.931 . S
C1561 C1560 1.370 . S
C1561 C1565 1.408 . S
C1562 C1560 1.363 . S
C1562 C1563 1.370 . S
C1562 C1566 1.524 . S
C1563 C1555 1.503 . S
C1563 C1562 1.370 . S
C1563 C1564 1.403 . S
C1564 C1563 1.403 . S
C1564 C1565 1.404 . S
C1564 C1567 1.539 . S
C1565 C1561 1.408 . S
C1565 C1564 1.404 . S
C1565 H1577 0.930 . S
C1566 C1562 1.524 . S
C1566 H1578 0.956 . S
C1566 H1579 0.961 . S
C1566 H1580 0.961 . S
C1567 C1564 1.539 . S
C1567 H1581 0.958 . S
C1567 H1582 0.961 . S
C1567 H1583 0.960 . S
H1568 C1552 0.931 . S
H1569 C1557 0.929 . S
H1570 C1558 0.960 . S
H1571 C1558 0.962 . S
H1572 C1558 0.960 . S
H1573 C1559 0.961 . S
H1574 C1559 0.961 . S
H1575 C1559 0.961 . S
H1576 C1560 0.931 . S
H1577 C1565 0.930 . S
H1578 C1566 0.956 . S
H1579 C1566 0.961 . S
H1580 C1566 0.961 . S
H1581 C1567 0.958 . S
H1582 C1567 0.961 . S
H1583 C1567 0.960 . S
C1584 C1585 1.391 . S
C1584 C1586 1.394 . S
C1584 H1600 0.931 . S
C1585 C1584 1.391 . S
C1585 C1589 1.376 . S
C1586 C1584 1.394 . S
C1586 C1587 1.369 . S
C1586 C1590 1.531 . S
C1587 C1586 1.369 . S
C1587 C1588 1.410 . S
C1587 C1595 1.503 . S
C1588 C1587 1.410 . S
C1588 C1589 1.392 . S
C1588 C1591 1.511 . S
C1589 C1585 1.376 . S
C1589 C1588 1.392 . S
C1589 H1601 0.929 . S
C1590 C1586 1.531 . S
C1590 H1602 0.960 . S
C1590 H1603 0.962 . S
C1590 H1604 0.960 . S
C1591 C1588 1.511 . S
C1591 H1605 0.961 . S
C1591 H1606 0.961 . S
C1591 H1607 0.961 . S
C1592 C1593 1.370 . S
C1592 C1594 1.363 . S
C1592 H1608 0.931 . S
C1593 C1592 1.370 . S
C1593 C1597 1.408 . S
C1594 C1592 1.363 . S
C1594 C1595 1.370 . S
C1594 C1598 1.524 . S
C1595 C1587 1.503 . S
C1595 C1594 1.370 . S
C1595 C1596 1.403 . S
C1596 C1595 1.403 . S
C1596 C1597 1.404 . S
C1596 C1599 1.539 . S
C1597 C1593 1.408 . S
C1597 C1596 1.404 . S
C1597 H1609 0.930 . S
C1598 C1594 1.524 . S
C1598 H1610 0.956 . S
C1598 H1611 0.961 . S
C1598 H1612 0.961 . S
C1599 C1596 1.539 . S
C1599 H1613 0.958 . S
C1599 H1614 0.961 . S
C1599 H1615 0.960 . S
H1600 C1584 0.931 . S
H1601 C1589 0.929 . S
H1602 C1590 0.960 . S
H1603 C1590 0.962 . S
H1604 C1590 0.960 . S
H1605 C1591 0.961 . S
H1606 C1591 0.961 . S
H1607 C1591 0.961 . S
H1608 C1592 0.931 . S
H1609 C1597 0.930 . S
H1610 C1598 0.956 . S
H1611 C1598 0.961 . S
H1612 C1598 0.961 . S
H1613 C1599 0.958 . S
H1614 C1599 0.961 . S
H1615 C1599 0.960 . S
C1616 C1617 1.391 . S
C1616 C1618 1.394 . S
C1616 H1632 0.931 . S
C1617 C1616 1.391 . S
C1617 C1621 1.376 . S
C1618 C1616 1.394 . S
C1618 C1619 1.369 . S
C1618 C1622 1.531 . S
C1619 C1618 1.369 . S
C1619 C1620 1.410 . S
C1619 C1627 1.503 . S
C1620 C1619 1.410 . S
C1620 C1621 1.392 . S
C1620 C1623 1.511 . S
C1621 C1617 1.376 . S
C1621 C1620 1.392 . S
C1621 H1633 0.929 . S
C1622 C1618 1.531 . S
C1622 H1634 0.960 . S
C1622 H1635 0.962 . S
C1622 H1636 0.960 . S
C1623 C1620 1.511 . S
C1623 H1637 0.961 . S
C1623 H1638 0.961 . S
C1623 H1639 0.961 . S
C1624 C1625 1.370 . S
C1624 C1626 1.363 . S
C1624 H1640 0.931 . S
C1625 C1624 1.370 . S
C1625 C1629 1.408 . S
C1626 C1624 1.363 . S
C1626 C1627 1.370 . S
C1626 C1630 1.524 . S
C1627 C1619 1.503 . S
C1627 C1626 1.370 . S
C1627 C1628 1.403 . S
C1628 C1627 1.403 . S
C1628 C1629 1.404 . S
C1628 C1631 1.539 . S
C1629 C1625 1.408 . S
C1629 C1628 1.404 . S
C1629 H1641 0.930 . S
C1630 C1626 1.524 . S
C1630 H1642 0.956 . S
C1630 H1643 0.961 . S
C1630 H1644 0.961 . S
C1631 C1628 1.539 . S
C1631 H1645 0.958 . S
C1631 H1646 0.961 . S
C1631 H1647 0.960 . S
H1632 C1616 0.931 . S
H1633 C1621 0.929 . S
H1634 C1622 0.960 . S
H1635 C1622 0.962 . S
H1636 C1622 0.960 . S
H1637 C1623 0.961 . S
H1638 C1623 0.961 . S
H1639 C1623 0.961 . S
H1640 C1624 0.931 . S
H1641 C1629 0.930 . S
H1642 C1630 0.956 . S
H1643 C1630 0.961 . S
H1644 C1630 0.961 . S
H1645 C1631 0.958 . S
H1646 C1631 0.961 . S
H1647 C1631 0.960 . S
C1648 C1649 1.391 . S
C1648 C1650 1.394 . S
C1648 H1664 0.931 . S
C1649 C1648 1.391 . S
C1649 C1653 1.376 . S
C1650 C1648 1.394 . S
C1650 C1651 1.369 . S
C1650 C1654 1.531 . S
C1651 C1650 1.369 . S
C1651 C1652 1.410 . S
C1651 C1659 1.503 . S
C1652 C1651 1.410 . S
C1652 C1653 1.392 . S
C1652 C1655 1.511 . S
C1653 C1649 1.376 . S
C1653 C1652 1.392 . S
C1653 H1665 0.929 . S
C1654 C1650 1.531 . S
C1654 H1666 0.960 . S
C1654 H1667 0.962 . S
C1654 H1668 0.960 . S
C1655 C1652 1.511 . S
C1655 H1669 0.961 . S
C1655 H1670 0.961 . S
C1655 H1671 0.961 . S
C1656 C1657 1.370 . S
C1656 C1658 1.363 . S
C1656 H1672 0.931 . S
C1657 C1656 1.370 . S
C1657 C1661 1.408 . S
C1658 C1656 1.363 . S
C1658 C1659 1.370 . S
C1658 C1662 1.524 . S
C1659 C1651 1.503 . S
C1659 C1658 1.370 . S
C1659 C1660 1.403 . S
C1660 C1659 1.403 . S
C1660 C1661 1.404 . S
C1660 C1663 1.539 . S
C1661 C1657 1.408 . S
C1661 C1660 1.404 . S
C1661 H1673 0.930 . S
C1662 C1658 1.524 . S
C1662 H1674 0.956 . S
C1662 H1675 0.961 . S
C1662 H1676 0.961 . S
C1663 C1660 1.539 . S
C1663 H1677 0.958 . S
C1663 H1678 0.961 . S
C1663 H1679 0.960 . S
H1664 C1648 0.931 . S
H1665 C1653 0.929 . S
H1666 C1654 0.960 . S
H1667 C1654 0.962 . S
H1668 C1654 0.960 . S
H1669 C1655 0.961 . S
H1670 C1655 0.961 . S
H1671 C1655 0.961 . S
H1672 C1656 0.931 . S
H1673 C1661 0.930 . S
H1674 C1662 0.956 . S
H1675 C1662 0.961 . S
H1676 C1662 0.961 . S
H1677 C1663 0.958 . S
H1678 C1663 0.961 . S
H1679 C1663 0.960 . S
C1680 C1681 1.391 1_565 S
C1680 C1682 1.394 . S
C1680 H1696 0.931 . S
C1681 C1680 1.391 1_545 S
C1681 C1685 1.376 . S
C1682 C1680 1.394 . S
C1682 C1683 1.369 1_565 S
C1682 C1686 1.531 . S
C1683 C1682 1.369 1_545 S
C1683 C1684 1.410 . S
C1683 C1691 1.503 1_556 S
C1684 C1683 1.410 . S
C1684 C1685 1.392 . S
C1684 C1687 1.511 . S
C1685 C1681 1.376 . S
C1685 C1684 1.392 . S
C1685 H1697 0.929 . S
C1686 C1682 1.531 . S
C1686 H1698 0.960 1_556 S
C1686 H1699 0.962 . S
C1686 H1700 0.960 . S
C1687 C1684 1.511 . S
C1687 H1701 0.961 . S
C1687 H1702 0.961 1_556 S
C1687 H1703 0.961 . S
C1688 C1689 1.370 . S
C1688 C1690 1.363 . S
C1688 H1704 0.931 . S
C1689 C1688 1.370 . S
C1689 C1693 1.408 1_565 S
C1690 C1688 1.363 . S
C1690 C1691 1.370 1_565 S
C1690 C1694 1.524 . S
C1691 C1683 1.503 1_554 S
C1691 C1690 1.370 1_545 S
C1691 C1692 1.403 . S
C1692 C1691 1.403 . S
C1692 C1693 1.404 . S
C1692 C1695 1.539 . S
C1693 C1689 1.408 1_545 S
C1693 C1692 1.404 . S
C1693 H1705 0.930 . S
C1694 C1690 1.524 . S
C1694 H1706 0.954 . S
C1694 H1707 0.961 1_554 S
C1694 H1708 0.961 . S
C1695 C1692 1.539 . S
C1695 H1709 0.958 . S
C1695 H1710 0.961 . S
C1695 H1711 0.960 . S
H1696 C1680 0.931 . S
H1697 C1685 0.929 . S
H1698 C1686 0.960 1_554 S
H1699 C1686 0.962 . S
H1700 C1686 0.960 . S
H1701 C1687 0.961 . S
H1702 C1687 0.961 1_554 S
H1703 C1687 0.961 . S
H1704 C1688 0.931 . S
H1705 C1693 0.930 . S
H1706 C1694 0.954 . S
H1707 C1694 0.961 1_556 S
H1708 C1694 0.961 . S
H1709 C1695 0.958 . S
H1710 C1695 0.961 . S
H1711 C1695 0.960 . S
C1712 C1713 1.391 1_455 S
C1712 C1714 1.394 . S
C1712 H1728 0.931 . S
C1713 C1712 1.391 1_655 S
C1713 C1717 1.376 . S
C1714 C1712 1.394 . S
C1714 C1715 1.369 1_455 S
C1714 C1718 1.531 . S
C1715 C1714 1.369 1_655 S
C1715 C1716 1.410 . S
C1715 C1723 1.503 1_556 S
C1716 C1715 1.410 . S
C1716 C1717 1.392 . S
C1716 C1719 1.511 . S
C1717 C1713 1.376 . S
C1717 C1716 1.392 . S
C1717 H1729 0.929 . S
C1718 C1714 1.531 . S
C1718 H1730 0.960 1_556 S
C1718 H1731 0.962 . S
C1718 H1732 0.960 . S
C1719 C1716 1.511 . S
C1719 H1733 0.961 . S
C1719 H1734 0.961 1_556 S
C1719 H1735 0.961 . S
C1720 C1721 1.370 . S
C1720 C1722 1.363 . S
C1720 H1736 0.931 . S
C1721 C1720 1.370 . S
C1721 C1725 1.408 1_455 S
C1722 C1720 1.363 . S
C1722 C1723 1.370 1_455 S
C1722 C1726 1.524 . S
C1723 C1715 1.503 1_554 S
C1723 C1722 1.370 1_655 S
C1723 C1724 1.403 . S
C1724 C1723 1.403 . S
C1724 C1725 1.404 . S
C1724 C1727 1.539 . S
C1725 C1721 1.408 1_655 S
C1725 C1724 1.404 . S
C1725 H1737 0.930 . S
C1726 C1722 1.524 . S
C1726 H1738 0.957 . S
C1726 H1739 0.961 1_554 S
C1726 H1740 0.961 . S
C1727 C1724 1.539 . S
C1727 H1741 0.958 . S
C1727 H1742 0.961 . S
C1727 H1743 0.960 . S
H1728 C1712 0.931 . S
H1729 C1717 0.929 . S
H1730 C1718 0.960 1_554 S
H1731 C1718 0.962 . S
H1732 C1718 0.960 . S
H1733 C1719 0.961 . S
H1734 C1719 0.961 1_554 S
H1735 C1719 0.961 . S
H1736 C1720 0.931 . S
H1737 C1725 0.930 . S
H1738 C1726 0.957 . S
H1739 C1726 0.961 1_556 S
H1740 C1726 0.961 . S
H1741 C1727 0.958 . S
H1742 C1727 0.961 . S
H1743 C1727 0.960 . S
C1744 C1745 1.391 1_565 S
C1744 C1746 1.394 . S
C1744 H1760 0.931 . S
C1745 C1744 1.391 1_545 S
C1745 C1749 1.376 . S
C1746 C1744 1.394 . S
C1746 C1747 1.346 1_565 S
C1746 C1750 1.531 . S
C1747 C1746 1.346 1_545 S
C1747 C1748 1.433 . S
C1747 C1755 1.503 1_544 S
C1748 C1747 1.433 . S
C1748 C1749 1.392 . S
C1748 C1751 1.511 . S
C1749 C1745 1.376 . S
C1749 C1748 1.392 . S
C1749 H1761 0.929 . S
C1750 C1746 1.531 . S
C1750 H1762 0.926 1_554 S
C1750 H1763 0.962 . S
C1750 H1764 0.960 . S
C1751 C1748 1.511 . S
C1751 H1765 0.961 . S
C1751 H1766 0.961 1_554 S
C1751 H1767 0.961 . S
C1752 C1753 1.370 . S
C1752 C1754 1.363 . S
C1752 H1768 0.931 . S
C1753 C1752 1.370 . S
C1753 C1757 1.407 1_565 S
C1754 C1752 1.363 . S
C1754 C1755 1.371 . S
C1754 C1758 1.524 . S
C1755 C1747 1.503 1_566 S
C1755 C1754 1.371 . S
C1755 C1756 1.402 1_565 S
C1756 C1755 1.402 1_545 S
C1756 C1757 1.404 . S
C1756 C1759 1.539 . S
C1757 C1753 1.407 1_545 S
C1757 C1756 1.404 . S
C1757 H1769 0.931 . S
C1758 C1754 1.524 . S
C1758 H1770 0.968 . S
C1758 H1771 0.961 1_566 S
C1758 H1772 0.961 . S
C1759 C1756 1.539 . S
C1759 H1773 0.958 1_545 S
C1759 H1774 0.961 . S
C1759 H1775 0.989 . S
H1760 C1744 0.931 . S
H1761 C1749 0.929 . S
H1762 C1750 0.926 1_556 S
H1763 C1750 0.962 . S
H1764 C1750 0.960 . S
H1765 C1751 0.961 . S
H1766 C1751 0.961 1_556 S
H1767 C1751 0.961 . S
H1768 C1752 0.931 . S
H1769 C1757 0.931 . S
H1770 C1758 0.968 . S
H1771 C1758 0.961 1_544 S
H1772 C1758 0.961 . S
H1773 C1759 0.958 1_565 S
H1774 C1759 0.961 . S
H1775 C1759 0.989 . S
C1776 C1777 1.391 1_655 S
C1776 C1778 1.394 . S
C1776 H1792 0.931 . S
C1777 C1776 1.391 1_455 S
C1777 C1781 1.376 . S
C1778 C1776 1.394 . S
C1778 C1779 1.369 1_655 S
C1778 C1782 1.531 . S
C1779 C1778 1.369 1_455 S
C1779 C1780 1.410 . S
C1779 C1787 1.503 1_556 S
C1780 C1779 1.410 . S
C1780 C1781 1.392 . S
C1780 C1783 1.511 . S
C1781 C1777 1.376 . S
C1781 C1780 1.392 . S
C1781 H1793 0.929 . S
C1782 C1778 1.531 . S
C1782 H1794 0.960 1_556 S
C1782 H1795 0.962 . S
C1782 H1796 0.960 . S
C1783 C1780 1.511 . S
C1783 H1797 0.961 . S
C1783 H1798 0.961 1_556 S
C1783 H1799 0.961 . S
C1784 C1785 1.370 . S
C1784 C1786 1.363 . S
C1784 H1800 0.931 . S
C1785 C1784 1.370 . S
C1785 C1789 1.408 1_655 S
C1786 C1784 1.363 . S
C1786 C1787 1.370 1_655 S
C1786 C1790 1.524 . S
C1787 C1779 1.503 1_554 S
C1787 C1786 1.370 1_455 S
C1787 C1788 1.403 . S
C1788 C1787 1.403 . S
C1788 C1789 1.404 . S
C1788 C1791 1.539 . S
C1789 C1785 1.408 1_455 S
C1789 C1788 1.404 . S
C1789 H1801 0.930 . S
C1790 C1786 1.524 . S
C1790 H1802 0.955 . S
C1790 H1803 0.961 1_554 S
C1790 H1804 0.961 . S
C1791 C1788 1.539 . S
C1791 H1805 0.958 . S
C1791 H1806 0.961 . S
C1791 H1807 0.960 . S
H1792 C1776 0.931 . S
H1793 C1781 0.929 . S
H1794 C1782 0.960 1_554 S
H1795 C1782 0.962 . S
H1796 C1782 0.960 . S
H1797 C1783 0.961 . S
H1798 C1783 0.961 1_554 S
H1799 C1783 0.961 . S
H1800 C1784 0.931 . S
H1801 C1789 0.930 . S
H1802 C1790 0.955 . S
H1803 C1790 0.961 1_556 S
H1804 C1790 0.961 . S
H1805 C1791 0.958 . S
H1806 C1791 0.961 . S
H1807 C1791 0.960 . S
C529 C73 1.043 . S
C537 C7 1.073 . S
C561 C106 1.041 . S
C569 C40 1.080 . S
C593 C205 1.047 . S
C601 C139 1.071 . S
C625 C172 1.060 . S
C633 C238 1.071 . S
C657 C271 1.037 . S
C665 C337 1.093 . S
C689 C304 1.033 . S
C697 C370 1.092 . S
C721 C469 1.122 . S
C729 C403 1.107 . S
C753 C502 1.133 . S
C761 C436 1.096 . S
C785 C18 1.227 . S
C793 C249 1.234 . S
C817 C150 1.243 . S
C825 C51 1.239 . S
C849 C183 1.222 . S
C857 C84 1.231 . S
C881 C216 1.240 . S
C889 C117 1.239 . S
C913 C513 1.218 . S
C921 C282 1.229 . S
C945 C414 1.244 . S
C953 C315 1.240 . S
C977 C447 1.217 . S
C985 C348 1.229 . S
C1009 C480 1.219 . S
C1017 C381 1.229 . S
C1041 C21 0.707 . S
C1049 N365 0.844 . S
C1073 C54 0.871 . S
C1081 N266 0.800 . S
C1105 C87 0.709 . S
C1113 N299 0.841 . S
C1137 N332 0.874 . S
C1145 C120 0.763 . S
C1169 C153 0.783 . S
C1177 N431 0.829 . S
C1201 C186 0.876 . S
C1209 N464 0.799 . S
C1233 C219 0.720 . S
C1241 N497 0.842 . S
C1265 C252 0.710 . S
C1273 N398 0.844 . S
C1297 N101 0.854 . S
C1305 C285 0.770 . S
C1329 N2 0.764 . S
C1337 C318 0.837 . S
C1361 N35 0.850 . S
C1369 C351 0.773 . S
C1393 C384 0.881 . S
C1401 N68 0.798 . S
C1425 C417 0.849 . S
C1433 N167 0.812 . S
C1457 C450 0.763 . S
C1465 N200 0.834 . S
C1489 C483 0.717 . S
C1497 N233 0.843 . S
C1521 C516 0.733 . S
C1529 N134 0.840 . S
C1553 N145 1.652 . S
C1561 N13 1.662 . S
C1585 N178 1.658 . S
C1593 N46 1.666 . S
C1617 N79 1.648 . S
C1625 N211 1.662 . S
C1649 N244 1.693 . S
C1657 N112 1.690 . S
C1681 N277 1.710 . S
C1689 N409 1.686 . S
C1713 N442 1.645 . S
C1721 N310 1.662 . S
C1745 N475 1.710 . S
C1753 N343 1.691 . S
C1777 N508 1.646 . S
C1785 N376 1.663 . S
