# Generated by pormake.
# Topology fnd, (5)-cn, num edge types: 1
# Building blocks:
#     Node 0, Type 0, BuildingBlock: XOMCOT_clean_sbu_1, # of connection points: 5
#     Node 1, Type 0, BuildingBlock: XOMCOT_clean_sbu_1, # of connection points: 5
#     Node 2, Type 0, BuildingBlock: XOMCOT_clean_sbu_1, # of connection points: 5
#     Node 3, Type 0, BuildingBlock: XOMCOT_clean_sbu_1, # of connection points: 5
#     Node 4, Type 0, BuildingBlock: XOMCOT_clean_sbu_1, # of connection points: 5
#     Node 5, Type 0, BuildingBlock: XOMCOT_clean_sbu_1, # of connection points: 5
#     Node 6, Type 0, BuildingBlock: XOMCOT_clean_sbu_1, # of connection points: 5
#     Node 7, Type 0, BuildingBlock: XOMCOT_clean_sbu_1, # of connection points: 5
#     Node 8, Type 0, BuildingBlock: XOMCOT_clean_sbu_1, # of connection points: 5
#     Node 9, Type 0, BuildingBlock: XOMCOT_clean_sbu_1, # of connection points: 5
#     Node 10, Type 0, BuildingBlock: XOMCOT_clean_sbu_1, # of connection points: 5
#     Node 11, Type 0, BuildingBlock: XOMCOT_clean_sbu_1, # of connection points: 5
#     Node 12, Type 0, BuildingBlock: XOMCOT_clean_sbu_1, # of connection points: 5
#     Node 13, Type 0, BuildingBlock: XOMCOT_clean_sbu_1, # of connection points: 5
#     Node 14, Type 0, BuildingBlock: XOMCOT_clean_sbu_1, # of connection points: 5
#     Node 15, Type 0, BuildingBlock: XOMCOT_clean_sbu_1, # of connection points: 5
#     Node 16, Type 0, BuildingBlock: XOMCOT_clean_sbu_1, # of connection points: 5
#     Node 17, Type 0, BuildingBlock: XOMCOT_clean_sbu_1, # of connection points: 5
#     Edge 18, Type (0, 0), BuildingBlock: KIFKEQ_clean_linker_1, # of connection points: 2
#     Edge 19, Type (0, 0), BuildingBlock: KIFKEQ_clean_linker_1, # of connection points: 2
#     Edge 20, Type (0, 0), BuildingBlock: KIFKEQ_clean_linker_1, # of connection points: 2
#     Edge 21, Type (0, 0), BuildingBlock: KIFKEQ_clean_linker_1, # of connection points: 2
#     Edge 22, Type (0, 0), BuildingBlock: KIFKEQ_clean_linker_1, # of connection points: 2
#     Edge 23, Type (0, 0), BuildingBlock: KIFKEQ_clean_linker_1, # of connection points: 2
#     Edge 24, Type (0, 0), BuildingBlock: KIFKEQ_clean_linker_1, # of connection points: 2
#     Edge 25, Type (0, 0), BuildingBlock: KIFKEQ_clean_linker_1, # of connection points: 2
#     Edge 26, Type (0, 0), BuildingBlock: KIFKEQ_clean_linker_1, # of connection points: 2
#     Edge 27, Type (0, 0), BuildingBlock: KIFKEQ_clean_linker_1, # of connection points: 2
#     Edge 28, Type (0, 0), BuildingBlock: KIFKEQ_clean_linker_1, # of connection points: 2
#     Edge 29, Type (0, 0), BuildingBlock: KIFKEQ_clean_linker_1, # of connection points: 2
#     Edge 30, Type (0, 0), BuildingBlock: KIFKEQ_clean_linker_1, # of connection points: 2
#     Edge 31, Type (0, 0), BuildingBlock: KIFKEQ_clean_linker_1, # of connection points: 2
#     Edge 32, Type (0, 0), BuildingBlock: KIFKEQ_clean_linker_1, # of connection points: 2
#     Edge 33, Type (0, 0), BuildingBlock: KIFKEQ_clean_linker_1, # of connection points: 2
#     Edge 34, Type (0, 0), BuildingBlock: KIFKEQ_clean_linker_1, # of connection points: 2
#     Edge 35, Type (0, 0), BuildingBlock: KIFKEQ_clean_linker_1, # of connection points: 2
#     Edge 36, Type (0, 0), BuildingBlock: KIFKEQ_clean_linker_1, # of connection points: 2
#     Edge 37, Type (0, 0), BuildingBlock: KIFKEQ_clean_linker_1, # of connection points: 2
#     Edge 38, Type (0, 0), BuildingBlock: KIFKEQ_clean_linker_1, # of connection points: 2
#     Edge 39, Type (0, 0), BuildingBlock: KIFKEQ_clean_linker_1, # of connection points: 2
#     Edge 40, Type (0, 0), BuildingBlock: KIFKEQ_clean_linker_1, # of connection points: 2
#     Edge 41, Type (0, 0), BuildingBlock: KIFKEQ_clean_linker_1, # of connection points: 2
#     Edge 42, Type (0, 0), BuildingBlock: KIFKEQ_clean_linker_1, # of connection points: 2
#     Edge 43, Type (0, 0), BuildingBlock: KIFKEQ_clean_linker_1, # of connection points: 2
#     Edge 44, Type (0, 0), BuildingBlock: KIFKEQ_clean_linker_1, # of connection points: 2
#     Edge 45, Type (0, 0), BuildingBlock: KIFKEQ_clean_linker_1, # of connection points: 2
#     Edge 46, Type (0, 0), BuildingBlock: KIFKEQ_clean_linker_1, # of connection points: 2
#     Edge 47, Type (0, 0), BuildingBlock: KIFKEQ_clean_linker_1, # of connection points: 2
#     Edge 48, Type (0, 0), BuildingBlock: KIFKEQ_clean_linker_1, # of connection points: 2
#     Edge 49, Type (0, 0), BuildingBlock: KIFKEQ_clean_linker_1, # of connection points: 2
#     Edge 50, Type (0, 0), BuildingBlock: KIFKEQ_clean_linker_1, # of connection points: 2
#     Edge 51, Type (0, 0), BuildingBlock: KIFKEQ_clean_linker_1, # of connection points: 2
#     Edge 52, Type (0, 0), BuildingBlock: KIFKEQ_clean_linker_1, # of connection points: 2
#     Edge 53, Type (0, 0), BuildingBlock: KIFKEQ_clean_linker_1, # of connection points: 2
#     Edge 54, Type (0, 0), BuildingBlock: KIFKEQ_clean_linker_1, # of connection points: 2
#     Edge 55, Type (0, 0), BuildingBlock: KIFKEQ_clean_linker_1, # of connection points: 2
#     Edge 56, Type (0, 0), BuildingBlock: KIFKEQ_clean_linker_1, # of connection points: 2
#     Edge 57, Type (0, 0), BuildingBlock: KIFKEQ_clean_linker_1, # of connection points: 2
#     Edge 58, Type (0, 0), BuildingBlock: KIFKEQ_clean_linker_1, # of connection points: 2
#     Edge 59, Type (0, 0), BuildingBlock: KIFKEQ_clean_linker_1, # of connection points: 2
#     Edge 60, Type (0, 0), BuildingBlock: KIFKEQ_clean_linker_1, # of connection points: 2
#     Edge 61, Type (0, 0), BuildingBlock: KIFKEQ_clean_linker_1, # of connection points: 2
#     Edge 62, Type (0, 0), BuildingBlock: KIFKEQ_clean_linker_1, # of connection points: 2
# Relax obj value: 0.033
# Max RMSD: 0.083
# Mean RMSD: 0.083
data_MOF--net-fnd--node1-XOMCOT_clean_sbu_1--edge1-KIFKEQ_clean_linker_1
_symmetry_space_group_name_H-M    P1
_symmetry_Int_Tables_number       1
_symmetry_cell_setting            triclinic
loop_
_symmetry_equiv_pos_as_xyz
'x, y, z'
_cell_length_a     84.768205
_cell_length_b     84.620567
_cell_length_c     17.790537
_cell_angle_alpha  90.022716
_cell_angle_beta   89.97122
_cell_angle_gamma 120.03762
loop_
_atom_site_label
_atom_site_type_symbol
_atom_site_fract_x
_atom_site_fract_y
_atom_site_fract_z
_atom_type_partial_charge
C0 C 0.14798 0.26408 0.53095 0.0
C1 C 0.15041 0.26726 0.60694 0.0
N2 N 0.13391 0.25934 0.64035 0.0
N3 N 0.13005 0.25423 0.51572 0.0
C4 C 0.12176 0.25182 0.58335 0.0
H5 H 0.15867 0.26807 0.48959 0.0
Co6 Co 0.12126 0.24508 0.41937 0.0
C7 C 0.08381 0.21511 0.47236 0.0
O8 O 0.0882 0.20235 0.46685 0.0
N9 N 0.1127 0.23636 0.3202 0.0
C10 C 0.09843 0.21861 0.22162 0.0
C11 C 0.1003 0.21926 0.29841 0.0
C12 C 0.11831 0.24576 0.25454 0.0
N13 N 0.10978 0.23532 0.19376 0.0
O14 O 0.11883 0.26627 0.40072 0.0
H15 H 0.09347 0.20763 0.3348 0.0
H16 H 0.12858 0.25998 0.25081 0.0
O17 O 0.09553 0.23172 0.45627 0.0
C18 C 0.13357 0.27974 0.37579 0.0
O19 O 0.14761 0.2775 0.36349 0.0
N20 N 0.12604 0.2255 0.4374 0.0
C21 C 0.14109 0.203 0.46544 0.0
C22 C 0.13063 0.20555 0.5201 0.0
C23 C 0.12356 0.21705 0.50558 0.0
C24 C 0.13633 0.22326 0.38385 0.0
C25 C 0.1437 0.21191 0.39617 0.0
H26 H 0.11616 0.21919 0.54995 0.0
H27 H 0.13968 0.231 0.33221 0.0
H28 H 0.10719 0.24361 0.59127 0.0
H29 H 0.16341 0.27447 0.63537 0.0
H30 H 0.08987 0.20652 0.18875 0.0
H31 H 0.12815 0.19896 0.57444 0.0
H32 H 0.15216 0.2109 0.35296 0.0
C33 C 0.76637 0.88886 0.52546 0.0
C34 C 0.76284 0.88678 0.6014 0.0
N35 N 0.77155 0.87864 0.63132 0.0
N36 N 0.7772 0.88201 0.50732 0.0
C37 C 0.77999 0.87569 0.57296 0.0
H38 H 0.76178 0.89545 0.48616 0.0
Co39 Co 0.786 0.88281 0.41013 0.0
C40 C 0.81792 0.87785 0.45685 0.0
O41 O 0.82967 0.89531 0.44939 0.0
N42 N 0.79427 0.88325 0.30983 0.0
C43 C 0.81145 0.88643 0.20948 0.0
C44 C 0.81133 0.88835 0.28597 0.0
C45 C 0.78438 0.8787 0.24533 0.0
N46 N 0.79448 0.88035 0.18388 0.0
O47 O 0.76556 0.85858 0.39391 0.0
H48 H 0.82328 0.89382 0.3204 0.0
H49 H 0.77003 0.87424 0.24278 0.0
O50 O 0.8009 0.87184 0.4451 0.0
C51 C 0.75144 0.85897 0.37158 0.0
O52 O 0.75278 0.87486 0.35817 0.0
N53 N 0.80472 0.90764 0.42657 0.0
C54 C 0.82628 0.94541 0.45325 0.0
C55 C 0.82432 0.93265 0.50815 0.0
C56 C 0.81328 0.91395 0.49432 0.0
C57 C 0.80632 0.91991 0.37289 0.0
C58 C 0.8172 0.93875 0.38454 0.0
H59 H 0.81168 0.90457 0.53865 0.0
H60 H 0.79849 0.9152 0.32161 0.0
H61 H 0.7885 0.86959 0.57849 0.0
H62 H 0.7552 0.89169 0.63276 0.0
H63 H 0.82325 0.88984 0.17496 0.0
H64 H 0.83107 0.93703 0.56205 0.0
H65 H 0.81776 0.948 0.34121 0.0
C66 C 0.13557 0.87997 0.54351 0.0
C67 C 0.13714 0.87815 0.61951 0.0
N68 N 0.14782 0.89487 0.64913 0.0
N69 N 0.14522 0.89776 0.52463 0.0
C70 C 0.15275 0.90651 0.59006 0.0
H71 H 0.12717 0.86909 0.50496 0.0
Co72 Co 0.14506 0.90658 0.42772 0.0
C73 C 0.15279 0.94387 0.48361 0.0
O74 O 0.13555 0.93923 0.47993 0.0
N75 N 0.14526 0.91525 0.32891 0.0
C76 C 0.14307 0.93046 0.23117 0.0
C77 C 0.1423 0.92889 0.30795 0.0
C78 C 0.14774 0.90871 0.2629 0.0
N79 N 0.14641 0.91772 0.20241 0.0
O80 O 0.16843 0.90845 0.40877 0.0
H81 H 0.13923 0.937 0.34505 0.0
H82 H 0.14992 0.8972 0.25905 0.0
O83 O 0.15776 0.93236 0.46488 0.0
C84 C 0.16586 0.89268 0.3914 0.0
O85 O 0.14899 0.87922 0.38423 0.0
N86 N 0.12072 0.90218 0.44546 0.0
C87 C 0.08306 0.88729 0.47239 0.0
C88 C 0.09595 0.8965 0.52923 0.0
C89 C 0.11456 0.90364 0.51495 0.0
C90 C 0.10829 0.89311 0.38979 0.0
C91 C 0.08961 0.88599 0.40144 0.0
H92 H 0.12396 0.91011 0.5608 0.0
H93 H 0.11263 0.89051 0.33643 0.0
H94 H 0.161 0.92118 0.59489 0.0
H95 H 0.13001 0.86556 0.65108 0.0
H96 H 0.14124 0.9403 0.19916 0.0
H97 H 0.09175 0.89757 0.58556 0.0
H98 H 0.08036 0.8791 0.35527 0.0
C99 C 0.2716 0.1438 0.48778 0.0
C100 C 0.27475 0.14636 0.41177 0.0
N101 N 0.26735 0.12988 0.37821 0.0
N102 N 0.26224 0.12579 0.50273 0.0
C103 C 0.26011 0.11761 0.435 0.0
H104 H 0.27534 0.1544 0.52943 0.0
Co105 Co 0.25359 0.11658 0.5991 0.0
C106 C 0.22291 0.07979 0.54355 0.0
O107 O 0.21058 0.08469 0.55185 0.0
N108 N 0.24545 0.10757 0.69828 0.0
C109 C 0.22853 0.09236 0.79737 0.0
C110 C 0.22886 0.09415 0.72062 0.0
C111 C 0.25488 0.11382 0.76358 0.0
N112 N 0.24492 0.10475 0.82472 0.0
O113 O 0.27464 0.11374 0.6131 0.0
H114 H 0.21732 0.08643 0.68471 0.0
H115 H 0.26874 0.12496 0.76666 0.0
O116 O 0.23963 0.091 0.55986 0.0
C117 C 0.28833 0.12837 0.63758 0.0
O118 O 0.28633 0.14249 0.65221 0.0
N119 N 0.23412 0.12179 0.58585 0.0
C120 C 0.21132 0.13684 0.56617 0.0
C121 C 0.21412 0.12738 0.50771 0.0
C122 C 0.22575 0.1203 0.51818 0.0
C123 C 0.23172 0.13122 0.64291 0.0
C124 C 0.22023 0.13856 0.63472 0.0
H125 H 0.22804 0.11364 0.47115 0.0
H126 H 0.23932 0.13386 0.69455 0.0
H127 H 0.25243 0.10299 0.42691 0.0
H128 H 0.28166 0.15942 0.38346 0.0
H129 H 0.21681 0.08307 0.83055 0.0
H130 H 0.20794 0.12606 0.45309 0.0
H131 H 0.21866 0.14585 0.68148 0.0
C132 C 0.8847 0.13597 0.47528 0.0
C133 C 0.88267 0.1372 0.39909 0.0
N134 N 0.89936 0.14627 0.36769 0.0
N135 N 0.90259 0.14425 0.49212 0.0
C136 C 0.91119 0.15063 0.42549 0.0
H137 H 0.87383 0.1289 0.51559 0.0
Co138 Co 0.91163 0.14456 0.58856 0.0
C139 C 0.94828 0.15063 0.53269 0.0
O140 O 0.94343 0.13343 0.54256 0.0
N141 N 0.92053 0.14531 0.68778 0.0
C142 C 0.93701 0.14603 0.78682 0.0
C143 C 0.93536 0.1445 0.71008 0.0
C144 C 0.91326 0.14705 0.75319 0.0
N145 N 0.92311 0.14765 0.81406 0.0
O146 O 0.91445 0.16844 0.60364 0.0
H147 H 0.94452 0.1427 0.67421 0.0
H148 H 0.90101 0.14793 0.75652 0.0
O149 O 0.93717 0.15624 0.54927 0.0
C150 C 0.89983 0.16743 0.62844 0.0
O151 O 0.88568 0.15124 0.6417 0.0
N152 N 0.9065 0.11989 0.57439 0.0
C153 C 0.89155 0.08204 0.55329 0.0
C154 C 0.90094 0.09441 0.49513 0.0
C155 C 0.90799 0.11314 0.50633 0.0
C156 C 0.8972 0.10793 0.63127 0.0
C157 C 0.88991 0.08911 0.62234 0.0
H158 H 0.91463 0.12218 0.45957 0.0
H159 H 0.89459 0.11278 0.68331 0.0
H160 H 0.92584 0.15774 0.41886 0.0
H161 H 0.86989 0.13105 0.36873 0.0
H162 H 0.94747 0.1456 0.82018 0.0
H163 H 0.90223 0.08966 0.4402 0.0
H164 H 0.8827 0.08014 0.66895 0.0
C165 C 0.89887 0.76058 0.5034 0.0
C166 C 0.90067 0.75983 0.42687 0.0
N167 N 0.89257 0.76822 0.39356 0.0
N168 N 0.88976 0.76947 0.5183 0.0
C169 C 0.88594 0.77383 0.45032 0.0
H170 H 0.9042 0.75535 0.54582 0.0
Co171 Co 0.88601 0.77491 0.61502 0.0
C172 C 0.87814 0.80496 0.60275 0.0
O173 O 0.89047 0.81296 0.65568 0.0
N174 N 0.88173 0.77965 0.71514 0.0
C175 C 0.86575 0.78069 0.81273 0.0
C176 C 0.86598 0.77878 0.73635 0.0
C177 C 0.89054 0.78138 0.78092 0.0
N178 N 0.88117 0.78225 0.84082 0.0
O179 O 0.8625 0.75282 0.61586 0.0
H180 H 0.8549 0.77615 0.69877 0.0
H181 H 0.90313 0.78123 0.78598 0.0
O182 O 0.87489 0.7894 0.57737 0.0
C183 C 0.86218 0.74025 0.65666 0.0
O184 O 0.87692 0.74379 0.69437 0.0
N185 N 0.9101 0.79541 0.6127 0.0
C186 C 0.94755 0.81925 0.58966 0.0
C187 C 0.9345 0.8211 0.54819 0.0
C188 C 0.91591 0.80892 0.55966 0.0
C189 C 0.92266 0.79319 0.65212 0.0
C190 C 0.94138 0.80519 0.64301 0.0
H191 H 0.90634 0.80973 0.52218 0.0
H192 H 0.91828 0.78118 0.68635 0.0
H193 H 0.87907 0.78158 0.4425 0.0
H194 H 0.90748 0.75365 0.39802 0.0
H195 H 0.85462 0.7799 0.84555 0.0
H196 H 0.93862 0.83148 0.50515 0.0
H197 H 0.95094 0.80271 0.67385 0.0
C198 C 0.79638 0.60175 0.88467 0.0
C199 C 0.79584 0.60387 0.9609 0.0
N200 N 0.78487 0.58738 0.99214 0.0
N201 N 0.7856 0.58404 0.86661 0.0
C202 C 0.77873 0.57559 0.93325 0.0
H203 H 0.80457 0.61248 0.84526 0.0
Co204 Co 0.78349 0.57455 0.76946 0.0
C205 C 0.74369 0.54703 0.74724 0.0
O206 O 0.74737 0.53955 0.69024 0.0
N207 N 0.78211 0.56544 0.66988 0.0
C208 C 0.7869 0.5526 0.56944 0.0
C209 C 0.78907 0.55501 0.64581 0.0
C210 C 0.77598 0.56934 0.60587 0.0
N211 N 0.77874 0.56169 0.54407 0.0
O212 O 0.78179 0.59504 0.73006 0.0
H213 H 0.79598 0.5499 0.68044 0.0
H214 H 0.76975 0.5778 0.60433 0.0
O215 O 0.7567 0.56039 0.78262 0.0
C216 C 0.79577 0.60699 0.69419 0.0
O217 O 0.80917 0.60378 0.68112 0.0
N218 N 0.78708 0.55591 0.80967 0.0
C219 C 0.79938 0.53259 0.86021 0.0
C220 C 0.78077 0.52593 0.84626 0.0
C221 C 0.77484 0.53785 0.82156 0.0
C222 C 0.80508 0.56266 0.82495 0.0
C223 C 0.81152 0.5513 0.85017 0.0
H224 H 0.76054 0.53235 0.81142 0.0
H225 H 0.81462 0.57698 0.81531 0.0
H226 H 0.77 0.56098 0.93845 0.0
H227 H 0.80328 0.61669 0.99062 0.0
H228 H 0.79184 0.54547 0.53475 0.0
H229 H 0.77088 0.51163 0.85434 0.0
H230 H 0.82601 0.55708 0.85932 0.0
C231 C 0.42758 0.21024 0.86631 0.0
C232 C 0.42475 0.20765 0.94241 0.0
N233 N 0.43948 0.20821 0.97413 0.0
N234 N 0.44395 0.21226 0.84906 0.0
C235 C 0.45087 0.21088 0.91578 0.0
H236 H 0.4184 0.21098 0.82619 0.0
Co237 Co 0.45373 0.21747 0.75208 0.0
C238 C 0.48325 0.20797 0.75092 0.0
O239 O 0.493 0.22192 0.70664 0.0
N240 N 0.46337 0.22303 0.65085 0.0
C241 C 0.47919 0.23804 0.54871 0.0
C242 C 0.47731 0.23902 0.6248 0.0
C243 C 0.45714 0.21255 0.58778 0.0
N244 N 0.46641 0.22143 0.52509 0.0
O245 O 0.43323 0.19458 0.7189 0.0
H246 H 0.48595 0.25091 0.65809 0.0
H247 H 0.44592 0.19867 0.58705 0.0
O248 O 0.46768 0.20497 0.7741 0.0
C249 C 0.42076 0.19604 0.68478 0.0
O250 O 0.42371 0.21243 0.66812 0.0
N251 N 0.47217 0.24047 0.78717 0.0
C252 C 0.49507 0.27646 0.83408 0.0
C253 C 0.49876 0.26261 0.85439 0.0
C254 C 0.48711 0.24462 0.83033 0.0
C255 C 0.46788 0.25363 0.77098 0.0
C256 C 0.47935 0.27176 0.79219 0.0
H257 H 0.48999 0.23414 0.84795 0.0
H258 H 0.45561 0.25001 0.73953 0.0
H259 H 0.46425 0.2124 0.92159 0.0
H260 H 0.41273 0.20571 0.97172 0.0
H261 H 0.48881 0.24901 0.51306 0.0
H262 H 0.5106 0.2657 0.88815 0.0
H263 H 0.47583 0.282 0.77687 0.0
C264 C 0.82514 0.22964 0.88316 0.0
C265 C 0.82779 0.2302 0.95942 0.0
N266 N 0.82213 0.24106 0.99065 0.0
N267 N 0.81808 0.24028 0.86512 0.0
C268 C 0.8164 0.24709 0.93173 0.0
H269 H 0.8278 0.22154 0.84367 0.0
Co270 Co 0.81073 0.24236 0.768 0.0
C271 C 0.8218 0.28195 0.74827 0.0
O272 O 0.81026 0.2781 0.69266 0.0
N273 N 0.80303 0.24376 0.66838 0.0
C274 C 0.78544 0.23876 0.56775 0.0
C275 C 0.78564 0.23645 0.64402 0.0
C276 C 0.81312 0.25028 0.6046 0.0
N277 N 0.80272 0.24736 0.54268 0.0
O278 O 0.83329 0.24491 0.729 0.0
H279 H 0.77359 0.2292 0.67834 0.0
H280 H 0.82782 0.25682 0.60326 0.0
O281 O 0.82272 0.26908 0.78214 0.0
C282 C 0.83183 0.23126 0.69227 0.0
O283 O 0.81546 0.21752 0.67794 0.0
N284 N 0.78817 0.2379 0.8079 0.0
C285 C 0.75228 0.22403 0.85821 0.0
C286 C 0.76369 0.24284 0.84559 0.0
C287 C 0.78171 0.24956 0.82109 0.0
C288 C 0.77741 0.21971 0.82166 0.0
C289 C 0.75951 0.2125 0.84673 0.0
H290 H 0.79015 0.26401 0.81228 0.0
H291 H 0.78269 0.21063 0.81102 0.0
H292 H 0.81042 0.25572 0.93687 0.0
H293 H 0.83326 0.22288 0.98917 0.0
H294 H 0.77339 0.23357 0.53286 0.0
H295 H 0.75876 0.25227 0.85475 0.0
H296 H 0.75123 0.19789 0.85478 0.0
C297 C 0.92036 0.47595 0.86202 0.0
C298 C 0.92058 0.47815 0.78541 0.0
N299 N 0.91552 0.46194 0.7527 0.0
N300 N 0.91511 0.45842 0.87766 0.0
C301 C 0.91238 0.45022 0.80994 0.0
H302 H 0.92349 0.48637 0.90393 0.0
Co303 Co 0.91155 0.44912 0.97452 0.0
C304 C 0.88406 0.41 0.96002 0.0
O305 O 0.87541 0.41223 1.01674 0.0
N306 N 0.90865 0.44001 0.07373 0.0
C307 C 0.9103 0.42384 0.16918 0.0
C308 C 0.91147 0.42614 0.09269 0.0
C309 C 0.90639 0.4463 0.14062 0.0
N310 N 0.90718 0.43658 0.19938 0.0
O311 O 0.93492 0.45035 0.9702 0.0
H312 H 0.91484 0.41853 0.05337 0.0
H313 H 0.90479 0.45808 0.14717 0.0
O314 O 0.89884 0.42367 0.93559 0.0
C315 C 0.9467 0.46599 0.99556 0.0
O316 O 0.94084 0.47683 0.01974 0.0
N317 N 0.88984 0.45039 0.97857 0.0
C318 C 0.86408 0.46192 0.96611 0.0
C319 C 0.86224 0.447 0.92431 0.0
C320 C 0.87545 0.4417 0.93011 0.0
C321 C 0.89196 0.46512 0.01823 0.0
C322 C 0.87914 0.47085 1.01419 0.0
H323 H 0.87465 0.43146 0.89165 0.0
H324 H 0.9045 0.47351 0.04833 0.0
H325 H 0.90766 0.43584 0.80261 0.0
H326 H 0.92419 0.49072 0.7561 0.0
H327 H 0.91254 0.41416 0.2004 0.0
H328 H 0.85109 0.4399 0.8851 0.0
H329 H 0.88173 0.483 0.04467 0.0
C330 C 0.55062 0.45609 0.88506 0.0
C331 C 0.5479 0.45528 0.80853 0.0
N332 N 0.56392 0.46671 0.7749 0.0
N333 N 0.56827 0.46789 0.89997 0.0
C334 C 0.57598 0.47435 0.83202 0.0
H335 H 0.54054 0.44809 0.92715 0.0
Co336 Co 0.57871 0.47195 0.99546 0.0
C337 C 0.61612 0.47935 0.96115 0.0
O338 O 0.61349 0.46641 1.00896 0.0
N339 N 0.58898 0.47667 0.09411 0.0
C340 C 0.60761 0.49156 0.18966 0.0
C341 C 0.60597 0.48995 0.11304 0.0
C342 C 0.58032 0.47116 0.16143 0.0
N343 N 0.59141 0.47981 0.22054 0.0
O344 O 0.57987 0.49528 0.9982 0.0
H345 H 0.61634 0.49904 0.07424 0.0
H346 H 0.5658 0.46219 0.16708 0.0
O347 O 0.60347 0.48322 0.95046 0.0
C348 C 0.56675 0.4948 0.0353 0.0
O349 O 0.55486 0.47936 0.06718 0.0
N350 N 0.5757 0.44791 0.99208 0.0
C351 C 0.56304 0.41033 0.97235 0.0
C352 C 0.57443 0.42326 0.91886 0.0
C353 C 0.58054 0.44184 0.92963 0.0
C354 C 0.56471 0.43555 0.04466 0.0
C355 C 0.5587 0.41692 0.03706 0.0
H356 H 0.58831 0.4512 0.88512 0.0
H357 H 0.55943 0.43972 0.09057 0.0
H358 H 0.59027 0.48419 0.82457 0.0
H359 H 0.53522 0.44635 0.78004 0.0
H360 H 0.61971 0.50124 0.21983 0.0
H361 H 0.57786 0.4191 0.86673 0.0
H362 H 0.55011 0.40774 0.08072 0.0
C363 C 0.56572 0.0965 0.86254 0.0
C364 C 0.56744 0.09561 0.78597 0.0
N365 N 0.56156 0.10603 0.75267 0.0
N366 N 0.55876 0.10738 0.87759 0.0
C367 C 0.55634 0.11299 0.80964 0.0
H368 H 0.5694 0.08974 0.90485 0.0
Co369 Co 0.55439 0.11246 0.97418 0.0
C370 C 0.54589 0.14221 0.95827 0.0
O371 O 0.55731 0.15063 1.01373 0.0
N372 N 0.5495 0.11696 0.0737 0.0
C373 C 0.53292 0.11714 0.17062 0.0
C374 C 0.53346 0.11551 0.09412 0.0
C375 C 0.55831 0.11906 0.13982 0.0
N376 N 0.54854 0.1193 0.19961 0.0
O377 O 0.53087 0.09038 0.97189 0.0
H378 H 0.52242 0.11262 0.05588 0.0
H379 H 0.57128 0.11971 0.14497 0.0
O380 O 0.54356 0.12685 0.93477 0.0
C381 C 0.53008 0.07759 1.01269 0.0
O382 O 0.5443 0.08098 0.05384 0.0
N383 N 0.57842 0.13275 0.97546 0.0
C384 C 0.61629 0.15585 0.96176 0.0
C385 C 0.60411 0.15938 0.92169 0.0
C386 C 0.58525 0.14745 0.928 0.0
C387 C 0.59011 0.12903 1.0137 0.0
C388 C 0.60896 0.14055 1.00915 0.0
H389 H 0.57636 0.14946 0.8908 0.0
H390 H 0.58484 0.11634 0.04413 0.0
H391 H 0.55074 0.12189 0.80191 0.0
H392 H 0.57289 0.08811 0.75725 0.0
H393 H 0.52144 0.11575 0.20266 0.0
H394 H 0.60909 0.1706 0.88215 0.0
H395 H 0.61772 0.13704 0.04054 0.0
C396 C 0.48386 0.92625 0.14189 0.0
C397 C 0.48659 0.92927 0.21799 0.0
N398 N 0.47023 0.9226 0.25182 0.0
N399 N 0.46587 0.91764 0.12723 0.0
C400 C 0.4579 0.91591 0.19518 0.0
H401 H 0.4943 0.92955 0.09997 0.0
Co402 Co 0.45609 0.90917 0.03113 0.0
C403 C 0.4198 0.8788 0.09063 0.0
O404 O 0.42419 0.86617 0.07885 0.0
N405 N 0.4465 0.90135 0.93244 0.0
C406 C 0.43009 0.88541 0.83358 0.0
C407 C 0.43172 0.88562 0.91041 0.0
C408 C 0.45363 0.91041 0.86697 0.0
N409 N 0.44389 0.90104 0.80587 0.0
O410 O 0.45346 0.93043 0.01966 0.0
H411 H 0.42278 0.87457 0.9466 0.0
H412 H 0.46589 0.92357 0.86393 0.0
O413 O 0.43095 0.89548 0.07338 0.0
C414 C 0.46797 0.94415 0.9946 0.0
O415 O 0.48196 0.94209 0.97843 0.0
N416 N 0.46092 0.88929 0.04172 0.0
C417 C 0.47589 0.86624 0.0584 0.0
C418 C 0.46747 0.86978 0.11895 0.0
C419 C 0.4602 0.8813 0.10961 0.0
C420 C 0.46912 0.88602 0.98231 0.0
C421 C 0.47624 0.87429 0.98888 0.0
H422 H 0.4542 0.88395 0.15799 0.0
H423 H 0.47104 0.8931 0.92974 0.0
H424 H 0.44331 0.90889 0.20357 0.0
H425 H 0.49964 0.93559 0.2462 0.0
H426 H 0.4198 0.87425 0.80067 0.0
H427 H 0.46711 0.86437 0.17441 0.0
H428 H 0.48239 0.87201 0.93985 0.0
C429 C 0.09911 0.56109 0.20538 0.0
C430 C 0.09588 0.55969 0.2816 0.0
N431 N 0.10243 0.5495 0.31146 0.0
N432 N 0.10761 0.55177 0.18687 0.0
C433 C 0.10921 0.54463 0.25267 0.0
H434 H 0.09621 0.5691 0.16638 0.0
Co435 Co 0.1164 0.55167 0.09 0.0
C436 C 0.14319 0.54012 0.14721 0.0
O437 O 0.15719 0.55674 0.14942 0.0
N438 N 0.12474 0.55119 0.99114 0.0
C439 C 0.14119 0.55084 0.89398 0.0
C440 C 0.14059 0.5522 0.9708 0.0
C441 C 0.11613 0.54958 0.92485 0.0
N442 N 0.12579 0.54918 0.86504 0.0
O443 O 0.09393 0.52921 0.06935 0.0
H444 H 0.15131 0.55413 1.00865 0.0
H445 H 0.10297 0.54858 0.92003 0.0
O446 O 0.12755 0.53716 0.12514 0.0
C447 C 0.08188 0.53274 0.04476 0.0
O448 O 0.08639 0.54995 0.03686 0.0
N449 N 0.13748 0.57517 0.10925 0.0
C450 C 0.16233 0.61229 0.13789 0.0
C451 C 0.15806 0.59901 0.19351 0.0
C452 C 0.14551 0.58067 0.17846 0.0
C453 C 0.14146 0.58804 0.05478 0.0
C454 C 0.15403 0.60651 0.06736 0.0
H455 H 0.14211 0.57099 0.22353 0.0
H456 H 0.13417 0.5843 1.00209 0.0
H457 H 0.116 0.53676 0.25819 0.0
H458 H 0.09015 0.56656 0.3132 0.0
H459 H 0.15231 0.55142 0.86176 0.0
H460 H 0.1641 0.6028 0.24894 0.0
H461 H 0.15643 0.6163 0.02333 0.0
C462 C 0.46536 0.54843 0.18553 0.0
C463 C 0.4637 0.54581 0.26212 0.0
N464 N 0.47262 0.56227 0.29584 0.0
N465 N 0.47519 0.56644 0.17095 0.0
C466 C 0.47957 0.57454 0.23922 0.0
H467 H 0.45944 0.53793 0.14292 0.0
Co468 Co 0.47918 0.57611 0.07464 0.0
C469 C 0.48848 0.61451 0.095 0.0
O470 O 0.47632 0.61162 0.0429 0.0
N471 N 0.48369 0.58568 0.97521 0.0
C472 C 0.4998 0.60293 0.8782 0.0
C473 C 0.49931 0.60084 0.95472 0.0
C474 C 0.47526 0.57842 0.90886 0.0
N475 N 0.4847 0.58877 0.84923 0.0
O476 O 0.50227 0.57676 0.07238 0.0
H477 H 0.51025 0.6094 0.99269 0.0
H478 H 0.46298 0.56539 0.90322 0.0
O479 O 0.49105 0.60141 0.1151 0.0
C480 C 0.50201 0.56425 0.0314 0.0
O481 O 0.48702 0.55336 0.99428 0.0
N482 N 0.45547 0.5733 0.07791 0.0
C483 C 0.41816 0.56049 0.09964 0.0
C484 C 0.43133 0.57485 0.14328 0.0
C485 C 0.44986 0.58088 0.13229 0.0
C486 C 0.44275 0.55899 0.03667 0.0
C487 C 0.42413 0.55271 0.04505 0.0
H488 H 0.45951 0.59082 0.17109 0.0
H489 H 0.44687 0.55131 1.00156 0.0
H490 H 0.48708 0.58917 0.24743 0.0
H491 H 0.45643 0.5328 0.29069 0.0
H492 H 0.51098 0.61343 0.846 0.0
H493 H 0.42732 0.58094 0.18744 0.0
H494 H 0.41443 0.54103 1.01261 0.0
C495 C 0.61415 0.79898 0.16087 0.0
C496 C 0.61681 0.79938 0.08465 0.0
N497 N 0.60113 0.78681 0.05225 0.0
N498 N 0.5969 0.78611 0.17735 0.0
C499 C 0.58928 0.77881 0.10987 0.0
H500 H 0.62399 0.80814 0.20131 0.0
Co501 Co 0.58692 0.78332 0.2736 0.0
C502 C 0.55679 0.74452 0.28606 0.0
O503 O 0.54826 0.74938 0.33414 0.0
N504 N 0.57717 0.78131 0.37369 0.0
C505 C 0.56264 0.78486 0.47139 0.0
C506 C 0.56458 0.78586 0.3949 0.0
C507 C 0.58236 0.77725 0.44008 0.0
N508 N 0.57396 0.77966 0.5002 0.0
O509 O 0.60651 0.78013 0.31223 0.0
H510 H 0.55714 0.78992 0.35818 0.0
H511 H 0.59271 0.77342 0.44512 0.0
O512 O 0.57187 0.75668 0.25704 0.0
C513 C 0.61926 0.79401 0.34575 0.0
O514 O 0.61704 0.80805 0.35942 0.0
N515 N 0.56946 0.78853 0.233 0.0
C516 C 0.54823 0.80308 0.17961 0.0
C517 C 0.5422 0.78431 0.17282 0.0
C518 C 0.55307 0.77729 0.1995 0.0
C519 C 0.57586 0.80683 0.23702 0.0
C520 C 0.56541 0.81431 0.21213 0.0
H521 H 0.54833 0.76298 0.19187 0.0
H522 H 0.58905 0.8156 0.26222 0.0
H523 H 0.57507 0.76866 0.10264 0.0
H524 H 0.62921 0.80869 0.05512 0.0
H525 H 0.55383 0.78816 0.50361 0.0
H526 H 0.52932 0.77512 0.14618 0.0
H527 H 0.57071 0.82879 0.21997 0.0
C528 C 0.22206 0.79588 0.1574 0.0
C529 C 0.21932 0.79483 0.08091 0.0
N530 N 0.23553 0.80529 0.04676 0.0
N531 N 0.2399 0.80687 0.17182 0.0
C532 C 0.24774 0.8126 0.10359 0.0
H533 H 0.21182 0.78852 0.19987 0.0
Co534 Co 0.25009 0.81035 0.26733 0.0
C535 C 0.2873 0.81707 0.23713 0.0
O536 O 0.28385 0.80394 0.28523 0.0
N537 N 0.26016 0.81444 0.36616 0.0
C538 C 0.27868 0.82956 0.46159 0.0
C539 C 0.2769 0.82822 0.38509 0.0
C540 C 0.25174 0.8083 0.43359 0.0
N541 N 0.26277 0.81715 0.49264 0.0
O542 O 0.25164 0.83387 0.27281 0.0
H543 H 0.28693 0.8378 0.34634 0.0
H544 H 0.23735 0.79879 0.43957 0.0
O545 O 0.27509 0.82143 0.22368 0.0
C546 C 0.23807 0.83228 0.31024 0.0
O547 O 0.22614 0.81609 0.33627 0.0
N548 N 0.24643 0.78614 0.26197 0.0
C549 C 0.23305 0.74861 0.24028 0.0
C550 C 0.24568 0.76156 0.19015 0.0
C551 C 0.25199 0.78017 0.20134 0.0
C552 C 0.23397 0.77365 0.31056 0.0
C553 C 0.22743 0.75494 0.30178 0.0
H554 H 0.26066 0.78965 0.15882 0.0
H555 H 0.22788 0.77791 0.35308 0.0
H556 H 0.2622 0.8216 0.09582 0.0
H557 H 0.20644 0.78636 0.05292 0.0
H558 H 0.29064 0.83957 0.49156 0.0
H559 H 0.25025 0.75734 0.14125 0.0
H560 H 0.21714 0.74545 0.34026 0.0
C561 C 0.23052 0.42869 0.14418 0.0
C562 C 0.23001 0.42563 0.06811 0.0
N563 N 0.22068 0.43275 0.0347 0.0
N564 N 0.22155 0.43768 0.15944 0.0
C565 C 0.21534 0.43963 0.09179 0.0
H566 H 0.23767 0.42527 0.18555 0.0
Co567 Co 0.22137 0.44667 0.25573 0.0
C568 C 0.211 0.4744 0.19828 0.0
O569 O 0.22769 0.48827 0.19784 0.0
N570 N 0.22094 0.4552 0.35429 0.0
C571 C 0.2226 0.47254 0.45172 0.0
C572 C 0.22366 0.47175 0.3748 0.0
C573 C 0.21843 0.44627 0.42046 0.0
N574 N 0.21928 0.45646 0.48071 0.0
O575 O 0.1984 0.42472 0.2749 0.0
H576 H 0.22683 0.48289 0.33701 0.0
H577 H 0.21611 0.43256 0.42473 0.0
O578 O 0.2077 0.45854 0.21913 0.0
C579 C 0.20016 0.41161 0.30065 0.0
O580 O 0.21663 0.41437 0.31292 0.0
N581 N 0.24519 0.46731 0.23735 0.0
C582 C 0.28239 0.49147 0.20881 0.0
C583 C 0.26922 0.48765 0.15338 0.0
C584 C 0.25081 0.47548 0.16845 0.0
C585 C 0.25795 0.47086 0.29173 0.0
C586 C 0.27649 0.48312 0.27922 0.0
H587 H 0.24118 0.47247 0.12361 0.0
H588 H 0.254 0.46348 0.34428 0.0
H589 H 0.20826 0.44716 0.08388 0.0
H590 H 0.23652 0.4191 0.03963 0.0
H591 H 0.22472 0.48431 0.48376 0.0
H592 H 0.27313 0.49376 0.09808 0.0
H593 H 0.28622 0.48527 0.32309 0.0
H594 H 0.17909 0.1236 0.48844 0.0
H595 H 0.21816 0.17038 0.61586 0.0
H596 H 0.16136 0.13865 0.46571 0.0
H597 H 0.20053 0.1854 0.59308 0.0
H598 H 0.15689 0.2013 0.59762 0.0
H599 H 0.17251 0.1844 0.62405 0.0
H600 H 0.16246 0.16377 0.39659 0.0
H601 H 0.14609 0.18007 0.37105 0.0
C602 C 0.18395 0.13712 0.51142 0.0
C603 C 0.20007 0.14571 0.55425 0.0
C604 C 0.17378 0.14577 0.49828 0.0
C605 C 0.17945 0.16327 0.52756 0.0
C606 C 0.19551 0.1718 0.57074 0.0
C607 C 0.20566 0.16315 0.58391 0.0
C608 C 0.1577 0.19292 0.55347 0.0
C609 C 0.15014 0.19208 0.48211 0.0
C610 C 0.16691 0.1834 0.5684 0.0
C611 C 0.1689 0.17277 0.5124 0.0
C612 C 0.16109 0.17168 0.44137 0.0
C613 C 0.15186 0.18121 0.42642 0.0
H614 H 0.90467 0.06313 0.47378 0.0
H615 H 0.85814 0.05524 0.60313 0.0
H616 H 0.88966 0.03031 0.45052 0.0
H617 H 0.84318 0.02256 0.57987 0.0
H618 H 0.82797 0.96305 0.58509 0.0
H619 H 0.84455 0.99567 0.61068 0.0
H620 H 0.86442 1.00611 0.38214 0.0
H621 H 0.84842 0.97334 0.35737 0.0
C622 C 0.89122 0.05443 0.49704 0.0
C623 C 0.88269 0.0619 0.54066 0.0
C624 C 0.88259 0.03558 0.48361 0.0
C625 C 0.86519 0.0237 0.51338 0.0
C626 C 0.85671 0.03119 0.55716 0.0
C627 C 0.86532 0.05 0.57061 0.0
C628 C 0.8361 0.97224 0.54049 0.0
C629 C 0.83684 0.96546 0.4691 0.0
C630 C 0.84544 0.99102 0.55494 0.0
C631 C 0.85579 1.00362 0.49844 0.0
C632 C 0.85674 0.99685 0.42728 0.0
C633 C 0.84737 0.97803 0.41279 0.0
H634 H 0.97611 0.83595 0.68866 0.0
H635 H 0.9639 0.82806 0.45148 0.0
H636 H 1.00875 0.85319 0.65969 0.0
H637 H 0.99643 0.84529 0.42263 0.0
H638 H 0.05545 0.85521 0.41332 0.0
H639 H 0.02301 0.84013 0.44041 0.0
H640 H 0.03234 0.88282 0.59734 0.0
H641 H 0.06486 0.89845 0.56832 0.0
C642 C 0.98039 0.83798 0.63039 0.0
C643 C 0.96739 0.83068 0.57242 0.0
C644 C 0.99907 0.84794 0.61378 0.0
C645 C 1.00519 0.85058 0.53884 0.0
C646 C 0.99217 0.8434 0.48093 0.0
C647 C 0.97352 0.83368 0.49748 0.0
C648 C 0.05068 0.8617 0.45243 0.0
C649 C 0.063 0.87822 0.48812 0.0
C650 C 0.032 0.85293 0.46827 0.0
C651 C 0.02507 0.86026 0.52102 0.0
C652 C 0.03728 0.87672 0.55697 0.0
C653 C 0.05596 0.88564 0.5404 0.0
H654 H 0.79921 0.84092 0.49304 0.0
H655 H 0.85332 0.88656 0.45486 0.0
H656 H 0.81258 0.82166 0.52335 0.0
H657 H 0.86631 0.86756 0.48336 0.0
H658 H 0.8851 0.8389 0.63967 0.0
H659 H 0.86903 0.85445 0.60223 0.0
H660 H 0.83199 0.80794 0.46859 0.0
H661 H 0.84822 0.79189 0.5075 0.0
C662 C 0.81386 0.84681 0.49065 0.0
C663 C 0.82517 0.8654 0.4728 0.0
C664 C 0.8215 0.83576 0.50748 0.0
C665 C 0.84054 0.84315 0.50674 0.0
C666 C 0.85164 0.86151 0.48609 0.0
C667 C 0.84411 0.87244 0.46971 0.0
C668 C 0.87356 0.83184 0.60222 0.0
C669 C 0.86807 0.81413 0.57625 0.0
C670 C 0.86434 0.84085 0.58052 0.0
C671 C 0.84931 0.83254 0.53185 0.0
C672 C 0.8435 0.81468 0.50636 0.0
C673 C 0.85288 0.80558 0.52809 0.0
H674 H 0.19192 0.05678 0.46978 0.0
H675 H 0.23879 0.05874 0.57479 0.0
H676 H 0.17763 0.02389 0.45753 0.0
H677 H 0.22421 0.02528 0.56222 0.0
H678 H 0.18963 0.96379 0.44894 0.0
H679 H 0.20956 0.99716 0.4599 0.0
H680 H 0.1658 1.00082 0.56676 0.0
H681 H 0.14618 0.96803 0.55624 0.0
C682 C 0.19932 0.05021 0.48941 0.0
C683 C 0.21639 0.06039 0.52431 0.0
C684 C 0.19108 0.03131 0.48251 0.0
C685 C 0.19962 0.02195 0.51032 0.0
C686 C 0.21729 0.03215 0.54052 0.0
C687 C 0.22563 0.05127 0.54756 0.0
C688 C 0.18446 0.97173 0.47613 0.0
C689 C 0.16621 0.96327 0.50063 0.0
C690 C 0.19584 0.9908 0.48227 0.0
C691 C 0.18909 1.00162 0.51275 0.0
C692 C 0.17127 0.99292 0.5415 0.0
C693 C 0.16003 0.97407 0.53557 0.0
H694 H 0.97082 0.14263 0.45564 0.0
H695 H 0.96962 0.18741 0.56659 0.0
H696 H 1.0037 0.16098 0.44326 0.0
H697 H 1.00304 0.206 0.55405 0.0
H698 H 0.05931 0.18402 0.54221 0.0
H699 H 0.02663 0.17125 0.55273 0.0
H700 H 0.03117 0.21973 0.45202 0.0
H701 H 0.06444 0.23278 0.44113 0.0
C702 C 0.97757 0.15653 0.47646 0.0
C703 C 0.96762 0.16345 0.51305 0.0
C704 C 0.99645 0.16703 0.46953 0.0
C705 C 1.006 0.18479 0.49911 0.0
C706 C 0.99602 0.19233 0.53097 0.0
C707 C 0.97692 0.18171 0.53796 0.0
C708 C 0.05348 0.19214 0.52291 0.0
C709 C 0.06449 0.20932 0.48969 0.0
C710 C 0.0347 0.18477 0.52883 0.0
C711 C 0.02628 0.19431 0.50173 0.0
C712 C 0.03731 0.21205 0.47306 0.0
C713 C 0.05632 0.21951 0.46697 0.0
H714 H 0.84917 0.46512 0.8338 0.0
H715 H 0.85095 0.47614 0.07168 0.0
H716 H 0.83159 0.48032 0.81295 0.0
H717 H 0.83342 0.49144 0.05065 0.0
H718 H 0.82534 0.53863 0.96572 0.0
H719 H 0.83893 0.51984 0.99365 0.0
H720 H 0.80268 0.47945 0.83422 0.0
H721 H 0.78941 0.49856 0.8047 0.0
C722 C 0.8455 0.47042 0.88197 0.0
C723 C 0.85159 0.46942 0.95448 0.0
C724 C 0.83541 0.4792 0.86993 0.0
C725 C 0.83117 0.48726 0.93001 0.0
C726 C 0.83671 0.48569 1.00285 0.0
C727 C 0.84676 0.47689 1.01492 0.0
C728 C 0.82023 0.52573 0.93666 0.0
C729 C 0.80635 0.52019 0.88257 0.0
C730 C 0.8279 0.51484 0.95327 0.0
C731 C 0.82195 0.49811 0.9161 0.0
C732 C 0.80774 0.49233 0.86337 0.0
C733 C 0.79998 0.5032 0.84703 0.0
H734 H 0.51264 0.30622 0.74346 0.0
H735 H 0.50443 0.29007 0.97655 0.0
H736 H 0.53078 0.33835 0.78101 0.0
H737 H 0.52216 0.32231 1.01432 0.0
H738 H 0.52955 0.38232 0.01953 0.0
H739 H 0.51529 0.34996 0.9913 0.0
H740 H 0.5619 0.35976 0.85888 0.0
H741 H 0.577 0.39214 0.89095 0.0
C742 C 0.51487 0.30958 0.8027 0.0
C743 C 0.50721 0.29572 0.85717 0.0
C744 C 0.52527 0.32792 0.82415 0.0
C745 C 0.52786 0.3328 0.90054 0.0
C746 C 0.52035 0.31891 0.95507 0.0
C747 C 0.51031 0.30051 0.93355 0.0
C748 C 0.53717 0.37772 0.98633 0.0
C749 C 0.55462 0.39019 0.95796 0.0
C750 C 0.52884 0.35907 0.96971 0.0
C751 C 0.53747 0.35236 0.92287 0.0
C752 C 0.55489 0.36461 0.89479 0.0
C753 C 0.56346 0.38323 0.91284 0.0
H754 H 0.73339 0.19759 0.96338 0.0
H755 H 0.72701 0.23252 0.80449 0.0
H756 H 0.70096 0.18237 0.99167 0.0
H757 H 0.69437 0.21713 0.83226 0.0
H758 H 0.63766 0.19318 0.94474 0.0
H759 H 0.67065 0.211 0.92456 0.0
H760 H 0.67328 0.16134 0.92891 0.0
H761 H 0.64062 0.1437 0.94893 0.0
C762 C 0.72505 0.20203 0.93444 0.0
C763 C 0.73281 0.21616 0.88103 0.0
C764 C 0.7064 0.19326 0.95052 0.0
C765 C 0.69491 0.19829 0.91346 0.0
C766 C 0.70278 0.21294 0.86227 0.0
C767 C 0.72152 0.22179 0.84632 0.0
C768 C 0.6453 0.18609 0.94121 0.0
C769 C 0.63644 0.16699 0.94954 0.0
C770 C 0.66423 0.19631 0.92958 0.0
C771 C 0.67474 0.18767 0.92591 0.0
C772 C 0.66578 0.16856 0.93336 0.0
C773 C 0.64696 0.1584 0.94495 0.0
H774 H 0.46674 0.17545 0.8297 0.0
H775 H 0.51831 0.21571 0.73442 0.0
H776 H 0.48111 0.15828 0.87636 0.0
H777 H 0.53244 0.1988 0.78136 0.0
H778 H 0.555 0.17781 0.96715 0.0
H779 H 0.53889 0.1924 0.91574 0.0
H780 H 0.49807 0.14097 0.82209 0.0
H781 H 0.51446 0.12619 0.87323 0.0
C782 C 0.48106 0.18061 0.81853 0.0
C783 C 0.49136 0.19701 0.77853 0.0
C784 C 0.48924 0.17073 0.84483 0.0
C785 C 0.50791 0.17725 0.83267 0.0
C786 C 0.51807 0.1935 0.79209 0.0
C787 C 0.50991 0.20318 0.76504 0.0
C788 C 0.54262 0.16954 0.9355 0.0
C789 C 0.53606 0.15083 0.92411 0.0
C790 C 0.53341 0.17794 0.9059 0.0
C791 C 0.51722 0.16784 0.86491 0.0
C792 C 0.51047 0.14906 0.85386 0.0
C793 C 0.51991 0.14065 0.88257 0.0
H794 H 0.8518 0.2975 0.84149 0.0
H795 H 0.81544 0.3098 0.71749 0.0
H796 H 0.86826 0.32912 0.88806 0.0
H797 H 0.83158 0.34098 0.76506 0.0
H798 H 0.84847 0.3836 0.95931 0.0
H799 H 0.8347 0.35306 0.90539 0.0
H800 H 0.88743 0.364 0.82763 0.0
H801 H 0.90136 0.39504 0.88056 0.0
C802 C 0.84735 0.30691 0.82405 0.0
C803 C 0.83227 0.30109 0.77589 0.0
C804 C 0.85684 0.325 0.8503 0.0
C805 C 0.85118 0.33746 0.83008 0.0
C806 C 0.83621 0.33165 0.78163 0.0
C807 C 0.82699 0.31377 0.75437 0.0
C808 C 0.85718 0.37958 0.93053 0.0
C809 C 0.87602 0.39175 0.92413 0.0
C810 C 0.84926 0.36209 0.89953 0.0
C811 C 0.85999 0.35616 0.86253 0.0
C812 C 0.87887 0.36823 0.85626 0.0
C813 C 0.8868 0.38599 0.88601 0.0
H814 H 0.63255 0.51432 0.90417 0.0
H815 H 0.64069 0.46832 0.93626 0.0
H816 H 0.66342 0.53194 0.85092 0.0
H817 H 0.67112 0.48569 0.88241 0.0
H818 H 0.71489 0.51452 0.7031 0.0
H819 H 0.68387 0.49917 0.75108 0.0
H820 H 0.69761 0.54423 0.90151 0.0
H821 H 0.72908 0.55973 0.85401 0.0
C822 C 0.64083 0.50793 0.8992 0.0
C823 C 0.63418 0.48992 0.92433 0.0
C824 C 0.65852 0.51805 0.86935 0.0
C825 C 0.66966 0.51017 0.86257 0.0
C826 C 0.66282 0.49209 0.88654 0.0
C827 C 0.64539 0.48216 0.91754 0.0
C828 C 0.71139 0.5213 0.74613 0.0
C829 C 0.72458 0.53836 0.77493 0.0
C830 C 0.69357 0.51244 0.77369 0.0
C831 C 0.68832 0.52047 0.83012 0.0
C832 C 0.70127 0.53778 0.85763 0.0
C833 C 0.71929 0.54659 0.83074 0.0
H834 H 0.46686 0.83738 0.15537 0.0
H835 H 0.50644 0.87013 0.98606 0.0
H836 H 0.48377 0.82181 0.1807 0.0
H837 H 0.52224 0.85336 1.00617 0.0
H838 H 0.5597 0.837 0.11858 0.0
H839 H 0.54178 0.85109 0.08836 0.0
H840 H 0.49253 0.80096 0.14464 0.0
H841 H 0.51074 0.78735 0.18157 0.0
C842 C 0.47906 0.84123 0.12296 0.0
C843 C 0.48523 0.85528 0.069 0.0
C844 C 0.48865 0.83199 0.13667 0.0
C845 C 0.50458 0.83629 0.09603 0.0
C846 C 0.51033 0.84985 0.04012 0.0
C847 C 0.50095 0.8593 0.02739 0.0
C848 C 0.54507 0.82898 0.12574 0.0
C849 C 0.53682 0.81103 0.15386 0.0
C850 C 0.53466 0.83702 0.10683 0.0
C851 C 0.51555 0.82728 0.11377 0.0
C852 C 0.5072 0.80911 0.13961 0.0
C853 C 0.51768 0.80114 0.15972 0.0
H854 H 0.22553 0.72112 0.34088 0.0
H855 H 0.221 0.73077 0.10578 0.0
H856 H 0.21001 0.68832 0.31727 0.0
H857 H 0.20516 0.69806 0.08221 0.0
H858 H 0.18896 0.63871 0.04894 0.0
H859 H 0.20744 0.67136 0.07417 0.0
H860 H 0.18077 0.66348 0.28924 0.0
H861 H 0.16265 0.63088 0.26449 0.0
C862 C 0.22121 0.71623 0.28413 0.0
C863 C 0.22457 0.72862 0.22527 0.0
C864 C 0.21222 0.69739 0.27053 0.0
C865 C 0.20619 0.69038 0.19776 0.0
C866 C 0.20983 0.70284 0.13875 0.0
C867 C 0.21893 0.72168 0.15227 0.0
C868 C 0.18709 0.64397 0.10168 0.0
C869 C 0.17433 0.63213 0.15469 0.0
C870 C 0.19765 0.66273 0.11614 0.0
C871 C 0.19564 0.67021 0.18378 0.0
C872 C 0.18301 0.65828 0.23712 0.0
C873 C 0.17256 0.63952 0.22288 0.0
H874 H 0.39039 0.5509 0.99893 0.0
H875 H 0.40106 0.55144 0.23623 0.0
H876 H 0.35776 0.53587 0.02432 0.0
H877 H 0.36847 0.53578 0.26192 0.0
H878 H 0.30901 0.51869 0.29476 0.0
H879 H 0.34156 0.53694 0.26769 0.0
H880 H 0.3331 0.50777 0.05834 0.0
H881 H 0.30061 0.49016 0.08446 0.0
C882 C 0.38573 0.54777 0.05658 0.0
C883 C 0.39832 0.55241 0.11552 0.0
C884 C 0.36698 0.53902 0.07129 0.0
C885 C 0.36027 0.53439 0.14532 0.0
C886 C 0.37298 0.53934 0.20431 0.0
C887 C 0.39173 0.54831 0.18963 0.0
C888 C 0.31415 0.51628 0.24285 0.0
C889 C 0.3022 0.50304 0.19165 0.0
C890 C 0.33286 0.52667 0.22735 0.0
C891 C 0.34017 0.52392 0.16066 0.0
C892 C 0.3281 0.51067 0.10948 0.0
C893 C 0.30939 0.50047 0.12455 0.0
H894 H 0.13659 0.51238 0.05112 0.0
H895 H 0.15896 0.53463 0.26895 0.0
H896 H 0.14925 0.49186 0.05995 0.0
H897 H 0.17094 0.51368 0.27918 0.0
H898 H 0.18057 0.46429 0.28334 0.0
H899 H 0.15943 0.47617 0.27279 0.0
H900 H 0.18688 0.50507 0.07085 0.0
H901 H 0.20837 0.49386 0.0831 0.0
C902 C 0.14356 0.51233 0.10206 0.0
C903 C 0.14671 0.52492 0.1597 0.0
C904 C 0.15087 0.5007 0.10692 0.0
C905 C 0.16097 0.50115 0.17042 0.0
C906 C 0.16301 0.5129 0.2301 0.0
C907 C 0.15619 0.52487 0.22427 0.0
C908 C 0.18172 0.47277 0.23567 0.0
C909 C 0.19601 0.47813 0.18377 0.0
C910 C 0.16971 0.47961 0.22986 0.0
C911 C 0.17149 0.49144 0.17078 0.0
C912 C 0.18508 0.49581 0.11638 0.0
C913 C 0.19738 0.48943 0.12344 0.0
H914 H 0.57091 0.72744 0.19916 0.0
H915 H 0.52227 0.71751 0.31774 0.0
H916 H 0.55516 0.69543 0.15741 0.0
H917 H 0.50675 0.68596 0.2757 0.0
H918 H 0.47923 0.6409 0.0967 0.0
H919 H 0.49668 0.6719 0.14481 0.0
H920 H 0.53947 0.66166 0.21499 0.0
H921 H 0.52174 0.63019 0.16714 0.0
C922 C 0.55694 0.71847 0.21651 0.0
C923 C 0.54786 0.72511 0.26151 0.0
C924 C 0.54798 0.70014 0.19302 0.0
C925 C 0.52971 0.68822 0.21312 0.0
C926 C 0.52078 0.69484 0.25883 0.0
C927 C 0.52974 0.71297 0.28301 0.0
C928 C 0.49232 0.64515 0.12262 0.0
C929 C 0.49907 0.63304 0.12825 0.0
C930 C 0.5023 0.66293 0.15036 0.0
C931 C 0.51944 0.66922 0.18364 0.0
C932 C 0.52633 0.65719 0.1892 0.0
C933 C 0.51613 0.63917 0.16243 0.0
H934 H 0.40031 0.85195 0.19008 0.0
H935 H 0.39697 0.89182 0.05047 0.0
H936 H 0.36835 0.83858 0.22242 0.0
H937 H 0.36436 0.87781 0.07995 0.0
H938 H 0.30772 0.85375 0.20336 0.0
H939 H 0.34022 0.87066 0.16994 0.0
H940 H 0.34067 0.81982 0.16234 0.0
H941 H 0.30884 0.80337 0.19883 0.0
C942 C 0.39268 0.85789 0.16647 0.0
C943 C 0.4011 0.87284 0.11743 0.0
C944 C 0.37424 0.85009 0.18426 0.0
C945 C 0.36349 0.8567 0.15207 0.0
C946 C 0.37214 0.8723 0.10573 0.0
C947 C 0.39083 0.88036 0.08888 0.0
C948 C 0.31481 0.84627 0.19344 0.0
C949 C 0.30584 0.82728 0.20446 0.0
C950 C 0.33344 0.85594 0.17442 0.0
C951 C 0.34332 0.84672 0.16534 0.0
C952 C 0.33383 0.82756 0.17164 0.0
C953 C 0.31546 0.81804 0.19174 0.0
H954 H 0.14597 0.29922 0.24783 0.0
H955 H 0.12713 0.30133 0.47068 0.0
H956 H 0.15685 0.33173 0.23106 0.0
H957 H 0.13851 0.33419 0.45484 0.0
H958 H 0.17061 0.39048 0.21134 0.0
H959 H 0.1487 0.35775 0.22823 0.0
H960 H 0.1729 0.35905 0.4432 0.0
H961 H 0.19493 0.39139 0.42527 0.0
C962 C 0.14364 0.30658 0.29228 0.0
C963 C 0.13561 0.29781 0.36028 0.0
C964 C 0.14983 0.32518 0.28266 0.0
C965 C 0.14857 0.33554 0.34165 0.0
C966 C 0.13962 0.32653 0.40836 0.0
C967 C 0.133 0.30774 0.41729 0.0
C968 C 0.17082 0.38383 0.26307 0.0
C969 C 0.18441 0.39338 0.31706 0.0
C970 C 0.15837 0.36513 0.2726 0.0
C971 C 0.15906 0.35584 0.33713 0.0
C972 C 0.17185 0.36582 0.39337 0.0
C973 C 0.18452 0.38432 0.38299 0.0
H974 H 0.63789 0.7826 0.25611 0.0
H975 H 0.64195 0.81104 0.46284 0.0
H976 H 0.6706 0.79302 0.26274 0.0
H977 H 0.67439 0.82107 0.47046 0.0
H978 H 0.73236 0.83355 0.47957 0.0
H979 H 0.69935 0.81194 0.47865 0.0
H980 H 0.69661 0.8266 0.24863 0.0
H981 H 0.72931 0.84838 0.25055 0.0
C982 C 0.64561 0.79046 0.30442 0.0
C983 C 0.63742 0.79603 0.35899 0.0
C984 C 0.66434 0.79652 0.30797 0.0
C985 C 0.67508 0.80789 0.36708 0.0
C986 C 0.66649 0.81218 0.42467 0.0
C987 C 0.64792 0.80648 0.42021 0.0
C988 C 0.72476 0.83156 0.42807 0.0
C989 C 0.73333 0.84245 0.36486 0.0
C990 C 0.70588 0.81934 0.42769 0.0
C991 C 0.69537 0.81758 0.36355 0.0
C992 C 0.70431 0.82745 0.29855 0.0
C993 C 0.72304 0.83992 0.29958 0.0
H994 H 0.23795 0.85749 0.21275 0.0
H995 H 0.2306 0.84107 0.4454 0.0
H996 H 0.22414 0.87657 0.238 0.0
H997 H 0.21737 0.86028 0.47107 0.0
H998 H 0.16433 0.86199 0.43997 0.0
H999 H 0.18648 0.85215 0.42412 0.0
H1000 H 0.22323 0.90311 0.31461 0.0
H1001 H 0.20063 0.91319 0.33152 0.0
C1002 C 0.23412 0.8586 0.26977 0.0
C1003 C 0.23519 0.84776 0.32711 0.0
C1004 C 0.2262 0.86949 0.28427 0.0
C1005 C 0.21937 0.86967 0.3563 0.0
C1006 C 0.2222 0.8602 0.41476 0.0
C1007 C 0.22986 0.84926 0.40018 0.0
C1008 C 0.17721 0.87125 0.41327 0.0
C1009 C 0.18075 0.88837 0.3871 0.0
C1010 C 0.18999 0.86565 0.40457 0.0
C1011 C 0.20671 0.87688 0.36857 0.0
C1012 C 0.21047 0.89418 0.34273 0.0
C1013 C 0.19764 0.89999 0.35283 0.0
H1014 H 0.40083 0.16621 0.77441 0.0
H1015 H 0.39916 0.19064 0.56403 0.0
H1016 H 0.36812 0.14407 0.7629 0.0
H1017 H 0.36674 0.16842 0.55166 0.0
H1018 H 0.30878 0.12263 0.53395 0.0
H1019 H 0.34179 0.13435 0.54117 0.0
H1020 H 0.34203 0.15152 0.76986 0.0
H1021 H 0.30934 0.14027 0.76172 0.0
C1022 C 0.39362 0.16641 0.72447 0.0
C1023 C 0.40249 0.18013 0.67014 0.0
C1024 C 0.3749 0.15383 0.71808 0.0
C1025 C 0.36484 0.15451 0.65639 0.0
C1026 C 0.3741 0.16738 0.59941 0.0
C1027 C 0.39266 0.18017 0.60664 0.0
C1028 C 0.31583 0.12829 0.58648 0.0
C1029 C 0.30657 0.13045 0.6475 0.0
C1030 C 0.33472 0.13513 0.59047 0.0
C1031 C 0.34452 0.14388 0.6561 0.0
C1032 C 0.33488 0.14468 0.71888 0.0
C1033 C 0.31617 0.13826 0.71425 0.0
H1034 H 0.83659 0.21528 0.56904 0.0
H1035 H 0.86247 0.24173 0.77706 0.0
H1036 H 0.85894 0.20541 0.55204 0.0
H1037 H 0.88471 0.23146 0.76095 0.0
H1038 H 0.88871 0.17645 0.75507 0.0
H1039 H 0.8774 0.19781 0.76665 0.0
H1040 H 0.89302 0.21485 0.53687 0.0
H1041 H 0.90481 0.19364 0.52619 0.0
C1042 C 0.8474 0.21941 0.61008 0.0
C1043 C 0.8478 0.22925 0.67436 0.0
C1044 C 0.86025 0.21382 0.60021 0.0
C1045 C 0.87356 0.21759 0.65528 0.0
C1046 C 0.87461 0.22835 0.71759 0.0
C1047 C 0.86196 0.23432 0.72659 0.0
C1048 C 0.89039 0.18531 0.70809 0.0
C1049 C 0.89779 0.18358 0.64007 0.0
C1050 C 0.88393 0.19755 0.71467 0.0
C1051 C 0.88427 0.208 0.65264 0.0
C1052 C 0.8926 0.20699 0.58564 0.0
C1053 C 0.89949 0.195 0.57966 0.0
H1054 H 0.78418 0.62698 0.77419 0.0
H1055 H 0.81452 0.62869 0.57664 0.0
H1056 H 0.79536 0.65979 0.76095 0.0
H1057 H 0.82544 0.66124 0.56272 0.0
H1058 H 0.83946 0.71992 0.54163 0.0
H1059 H 0.81794 0.68684 0.54318 0.0
H1060 H 0.82822 0.6854 0.78 0.0
H1061 H 0.84981 0.71811 0.77791 0.0
C1062 C 0.79269 0.63422 0.72649 0.0
C1063 C 0.79857 0.62533 0.67667 0.0
C1064 C 0.79919 0.65301 0.71916 0.0
C1065 C 0.81136 0.66314 0.66098 0.0
C1066 C 0.81598 0.65385 0.60773 0.0
C1067 C 0.80979 0.63521 0.61591 0.0
C1068 C 0.83666 0.71257 0.5943 0.0
C1069 C 0.84631 0.72152 0.65961 0.0
C1070 C 0.82445 0.69365 0.59515 0.0
C1071 C 0.82139 0.68349 0.66173 0.0
C1072 C 0.83009 0.6928 0.72803 0.0
C1073 C 0.84253 0.71154 0.72677 0.0
H1074 H 0.05956 0.49925 0.11165 0.0
H1075 H 0.06178 0.53444 0.93154 0.0
H1076 H 0.02641 0.4799 0.0921 0.0
H1077 H 0.02917 0.51524 0.91162 0.0
H1078 H 0.97338 0.50116 1.00482 0.0
H1079 H 1.006 0.5137 1.00858 0.0
H1080 H 0.99867 0.45956 0.99145 0.0
H1081 H 0.96527 0.44667 0.9871 0.0
C1082 C 0.05309 0.50248 0.06644 0.0
C1083 C 0.06316 0.51849 0.02385 0.0
C1084 C 0.03416 0.49143 0.05521 0.0
C1085 C 0.02517 0.49624 1.00109 0.0
C1086 C 0.03564 0.51134 0.95449 0.0
C1087 C 0.05434 0.52234 0.96595 0.0
C1088 C 0.97855 0.49179 1.00167 0.0
C1089 C 0.96664 0.47287 0.99546 0.0
C1090 C 0.99734 0.49904 1.00347 0.0
C1091 C 1.00495 0.48765 0.9997 0.0
C1092 C 0.99316 0.46865 0.99437 0.0
C1093 C 0.97411 0.4613 0.99143 0.0
H1094 H 0.52693 0.56989 0.14206 0.0
H1095 H 0.51114 0.54948 0.91611 0.0
H1096 H 0.54783 0.5577 0.14495 0.0
H1097 H 0.53196 0.53752 0.91861 0.0
H1098 H 0.55065 0.50288 0.14857 0.0
H1099 H 0.53999 0.52478 0.14757 0.0
H1100 H 0.56426 0.54374 0.92884 0.0
H1101 H 0.57515 0.52173 0.9303 0.0
C1102 C 0.52832 0.56329 0.09234 0.0
C1103 C 0.51732 0.56051 0.02909 0.0
C1104 C 0.54019 0.55623 0.09408 0.0
C1105 C 0.5415 0.54656 0.03209 0.0
C1106 C 0.53145 0.54502 0.96702 0.0
C1107 C 0.51941 0.55178 0.96579 0.0
C1108 C 0.5541 0.51202 0.10099 0.0
C1109 C 0.56362 0.51051 0.03927 0.0
C1110 C 0.54809 0.52468 0.10066 0.0
C1111 C 0.55119 0.53597 0.03802 0.0
C1112 C 0.56159 0.53516 0.97782 0.0
C1113 C 0.56791 0.52266 0.97876 0.0
H1114 H 0.50824 0.05929 0.89229 0.0
H1115 H 0.51752 0.0529 0.12586 0.0
H1116 H 0.4876 0.02618 0.88234 0.0
H1117 H 0.49688 0.02008 0.11641 0.0
H1118 H 0.45513 0.96097 0.08858 0.0
H1119 H 0.46504 0.99369 0.09075 0.0
H1120 H 0.49624 1.00155 0.88832 0.0
H1121 H 0.4866 0.96917 0.88697 0.0
C1122 C 0.50539 0.0509 0.94202 0.0
C1123 C 0.51455 0.05863 1.00972 0.0
C1124 C 0.49368 0.03195 0.93628 0.0
C1125 C 0.49065 0.02047 0.99854 0.0
C1126 C 0.49874 0.02849 0.0676 0.0
C1127 C 0.51066 0.0473 0.0729 0.0
C1128 C 0.46364 0.96964 0.04344 0.0
C1129 C 0.47017 0.96259 0.98779 0.0
C1130 C 0.46941 0.98837 0.04487 0.0
C1131 C 0.48148 1.00025 0.98979 0.0
C1132 C 0.48681 0.99281 0.93111 0.0
C1133 C 0.48136 0.97426 0.93056 0.0
H1134 H 0.10274 0.25256 0.71231 0.0
H1135 H 0.15678 0.26117 0.75146 0.0
H1136 H 0.09655 0.24817 0.84719 0.0
H1137 H 0.15063 0.25683 0.88509 0.0
H1138 H 0.14037 0.26289 0.12951 0.0
H1139 H 0.14584 0.27024 0.99615 0.0
H1140 H 0.09166 0.22626 0.94515 0.0
H1141 H 0.08597 0.21937 0.07854 0.0
C1142 C 0.1133 0.25351 0.74939 0.0
C1143 C 0.1303 0.25733 0.72044 0.0
C1144 C 0.10975 0.25099 0.82684 0.0
C1145 C 0.12312 0.25222 0.87735 0.0
C1146 C 0.14013 0.25616 0.84835 0.0
C1147 C 0.14366 0.25867 0.77122 0.0
C1148 C 0.12951 0.25496 0.09012 0.0
C1149 C 0.11276 0.24042 0.11514 0.0
C1150 C 0.13272 0.25905 1.01336 0.0
C1151 C 0.11925 0.24876 0.95953 0.0
C1152 C 0.10232 0.23458 0.98479 0.0
C1153 C 0.09913 0.23047 0.06145 0.0
H1154 H 0.80139 0.88227 0.70218 0.0
H1155 H 0.74604 0.86967 0.7395 0.0
H1156 H 0.80558 0.88098 0.83681 0.0
H1157 H 0.74983 0.86761 0.87453 0.0
H1158 H 0.77049 0.88783 0.11493 0.0
H1159 H 0.76384 0.8857 0.9805 0.0
H1160 H 0.79889 0.86291 0.94354 0.0
H1161 H 0.80604 0.86591 0.07716 0.0
C1162 C 0.78997 0.87879 0.73922 0.0
C1163 C 0.77339 0.87607 0.7103 0.0
C1164 C 0.79232 0.878 0.81668 0.0
C1165 C 0.77805 0.8742 0.86733 0.0
C1166 C 0.76127 0.87094 0.83784 0.0
C1167 C 0.75902 0.87199 0.76037 0.0
C1168 C 0.77656 0.88219 0.0779 0.0
C1169 C 0.78891 0.87721 0.10622 0.0
C1170 C 0.77273 0.88089 1.00075 0.0
C1171 C 0.78096 0.8743 0.95034 0.0
C1172 C 0.79267 0.86853 0.9798 0.0
C1173 C 0.7967 0.87012 0.05654 0.0
H1174 H 0.14779 0.87335 0.76231 0.0
H1175 H 0.15403 0.9263 0.71688 0.0
H1176 H 0.14855 0.87908 0.89703 0.0
H1177 H 0.15545 0.93229 0.85133 0.0
H1178 H 0.13098 0.92569 0.08582 0.0
H1179 H 0.13356 0.92109 0.95298 0.0
H1180 H 0.16686 0.89712 1.00416 0.0
H1181 H 0.16434 0.90186 0.13847 0.0
C1182 C 0.14951 0.88629 0.78097 0.0
C1183 C 0.15065 0.89927 0.72842 0.0
C1184 C 0.15013 0.88965 0.85835 0.0
C1185 C 0.15186 0.90607 0.88528 0.0
C1186 C 0.15379 0.91936 0.83269 0.0
C1187 C 0.15321 0.91602 0.75535 0.0
C1188 C 0.13908 0.91966 0.06919 0.0
C1189 C 0.1476 0.91433 0.12336 0.0
C1190 C 0.14058 0.91703 0.99259 0.0
C1191 C 0.15061 0.90894 0.96747 0.0
C1192 C 0.15895 0.90333 0.02148 0.0
C1193 C 0.15747 0.906 0.09854 0.0
H1194 H 0.2711 0.13635 0.88862 0.0
H1195 H 0.23046 0.08069 0.94022 0.0
H1196 H 0.27827 0.14228 0.02198 0.0
H1197 H 0.23706 0.08681 0.07342 0.0
H1198 H 0.26259 0.09933 0.30672 0.0
H1199 H 0.25888 0.09312 0.1718 0.0
H1200 H 0.26436 0.14602 0.133 0.0
H1201 H 0.26812 0.15221 0.26682 0.0
C1202 C 0.26377 0.12533 0.92812 0.0
C1203 C 0.25006 0.10808 0.90325 0.0
C1204 C 0.26774 0.12878 1.0049 0.0
C1205 C 0.25815 0.11507 0.05889 0.0
C1206 C 0.24485 0.09768 0.03374 0.0
C1207 C 0.24088 0.09423 0.95711 0.0
C1208 C 0.26299 0.10962 0.2694 0.0
C1209 C 0.26573 0.1263 0.29812 0.0
C1210 C 0.26086 0.10607 0.19192 0.0
C1211 C 0.26136 0.11908 0.14112 0.0
C1212 C 0.26426 0.13581 0.16992 0.0
C1213 C 0.26641 0.13936 0.24713 0.0
H1214 H 0.9482 0.16498 0.92268 0.0
H1215 H 0.89028 0.13424 0.88284 0.0
H1216 H 0.94279 0.16636 0.05619 0.0
H1217 H 0.88469 0.13505 0.01722 0.0
H1218 H 0.88 0.15087 0.25736 0.0
H1219 H 0.88583 0.15277 0.12229 0.0
H1220 H 0.93335 0.14765 0.16302 0.0
H1221 H 0.92773 0.14628 0.29756 0.0
C1222 C 0.93427 0.15842 0.9427 0.0
C1223 C 0.91967 0.14938 0.89228 0.0
C1224 C 0.93114 0.15914 0.01944 0.0
C1225 C 0.91329 0.15063 0.04826 0.0
C1226 C 0.89864 0.14196 0.99735 0.0
C1227 C 0.9018 0.14143 0.92022 0.0
C1228 C 0.89173 0.15024 0.23723 0.0
C1229 C 0.90344 0.1485 0.28825 0.0
C1230 C 0.89504 0.15123 0.15972 0.0
C1231 C 0.91006 0.15033 0.13112 0.0
C1232 C 0.92185 0.14877 0.18253 0.0
C1233 C 0.91864 0.14797 0.25998 0.0
H1234 H 0.9176 0.77275 0.28842 0.0
H1235 H 0.86605 0.77058 0.3188 0.0
H1236 H 0.91645 0.77771 0.15411 0.0
H1237 H 0.86459 0.7751 0.18429 0.0
H1238 H 0.87374 0.79911 0.95211 0.0
H1239 H 0.87768 0.79693 0.0867 0.0
H1240 H 0.90094 0.76257 0.04213 0.0
H1241 H 0.89742 0.7653 0.90735 0.0
C1242 C 0.90593 0.77316 0.26622 0.0
C1243 C 0.89188 0.77123 0.31419 0.0
C1244 C 0.90525 0.77598 0.18914 0.0
C1245 C 0.89043 0.77682 0.15803 0.0
C1246 C 0.8764 0.7749 0.20626 0.0
C1247 C 0.87717 0.77224 0.28342 0.0
C1248 C 0.87982 0.79122 0.97132 0.0
C1249 C 0.88523 0.78234 0.91943 0.0
C1250 C 0.88198 0.78985 0.04841 0.0
C1251 C 0.88942 0.77938 0.07562 0.0
C1252 C 0.89534 0.77093 0.02338 0.0
C1253 C 0.89335 0.77247 0.94607 0.0
H1254 H 0.8044 0.60934 0.10922 0.0
H1255 H 0.75842 0.5561 0.05872 0.0
H1256 H 0.79992 0.60254 0.24185 0.0
H1257 H 0.75419 0.54924 0.19302 0.0
H1258 H 0.77113 0.53786 0.42968 0.0
H1259 H 0.77048 0.54371 0.29575 0.0
H1260 H 0.77914 0.59737 0.34694 0.0
H1261 H 0.78019 0.59161 0.48102 0.0
C1262 C 0.79313 0.59625 0.1258 0.0
C1263 C 0.78177 0.58333 0.0719 0.0
C1264 C 0.79057 0.59237 0.20262 0.0
C1265 C 0.77664 0.57539 0.2284 0.0
C1266 C 0.76515 0.56243 0.17505 0.0
C1267 C 0.76763 0.56637 0.09782 0.0
C1268 C 0.77276 0.55085 0.41235 0.0
C1269 C 0.77588 0.56433 0.46606 0.0
C1270 C 0.77222 0.55414 0.33555 0.0
C1271 C 0.77491 0.57106 0.31039 0.0
C1272 C 0.77725 0.58426 0.36432 0.0
C1273 C 0.77766 0.58091 0.44126 0.0
H1274 H 0.43318 0.19915 0.46353 0.0
H1275 H 0.49042 0.23107 0.41033 0.0
H1276 H 0.4261 0.19321 0.3296 0.0
H1277 H 0.48339 0.2255 0.2767 0.0
H1278 H 0.46536 0.20253 0.04034 0.0
H1279 H 0.4715 0.20282 0.17446 0.0
H1280 H 0.42719 0.21246 0.22421 0.0
H1281 H 0.42118 0.21247 0.09144 0.0
C1282 C 0.44427 0.2046 0.42339 0.0
C1283 C 0.46235 0.2157 0.44756 0.0
C1284 C 0.44022 0.20138 0.34657 0.0
C1285 C 0.45416 0.20904 0.2922 0.0
C1286 C 0.47231 0.21931 0.31682 0.0
C1287 C 0.47634 0.22263 0.39344 0.0
C1288 C 0.45692 0.20475 0.07957 0.0
C1289 C 0.44275 0.20751 0.05387 0.0
C1290 C 0.46043 0.20486 0.15673 0.0
C1291 C 0.44978 0.20758 0.2103 0.0
C1292 C 0.43545 0.20997 0.18478 0.0
C1293 C 0.43202 0.21 0.10794 0.0
H1294 H 0.8314 0.24638 0.47958 0.0
H1295 H 0.78634 0.2547 0.42838 0.0
H1296 H 0.83815 0.24739 0.34541 0.0
H1297 H 0.79279 0.25533 0.29439 0.0
H1298 H 0.81699 0.26734 0.05695 0.0
H1299 H 0.81442 0.27167 0.19119 0.0
H1300 H 0.82267 0.22641 0.24065 0.0
H1301 H 0.82493 0.22183 0.10802 0.0
C1302 C 0.82314 0.24876 0.43983 0.0
C1303 C 0.80825 0.25033 0.46468 0.0
C1304 C 0.82688 0.24914 0.36284 0.0
C1305 C 0.8159 0.25126 0.30892 0.0
C1306 C 0.80159 0.25377 0.33415 0.0
C1307 C 0.79778 0.25325 0.41098 0.0
C1308 C 0.81821 0.25826 0.09616 0.0
C1309 C 0.8212 0.24422 0.0704 0.0
C1310 C 0.81679 0.26079 0.17337 0.0
C1311 C 0.81846 0.24947 0.2269 0.0
C1312 C 0.82168 0.23564 0.20128 0.0
C1313 C 0.82297 0.23301 0.12446 0.0
H1314 H 0.90609 0.47839 0.64557 0.0
H1315 H 0.92003 0.43637 0.67985 0.0
H1316 H 0.90279 0.47194 0.51127 0.0
H1317 H 0.91709 0.43008 0.54529 0.0
H1318 H 0.89445 0.41164 0.31107 0.0
H1319 H 0.89545 0.41744 0.44567 0.0
H1320 H 0.92044 0.4753 0.4016 0.0
H1321 H 0.91905 0.46935 0.26696 0.0
C1322 C 0.90862 0.46788 0.62427 0.0
C1323 C 0.91338 0.45793 0.67336 0.0
C1324 C 0.90674 0.46419 0.5472 0.0
C1325 C 0.9097 0.45051 0.51717 0.0
C1326 C 0.91439 0.4405 0.56646 0.0
C1327 C 0.91613 0.44412 0.64364 0.0
C1328 C 0.90012 0.42558 0.33029 0.0
C1329 C 0.90671 0.44003 0.27845 0.0
C1330 C 0.90077 0.42894 0.40744 0.0
C1331 C 0.90816 0.44686 0.43477 0.0
C1332 C 0.91443 0.46129 0.38269 0.0
C1333 C 0.91364 0.4579 0.30541 0.0
H1334 H 0.5968 0.48004 0.70503 0.0
H1335 H 0.53945 0.45848 0.66122 0.0
H1336 H 0.60282 0.48322 0.57078 0.0
H1337 H 0.54555 0.46139 0.52658 0.0
H1338 H 0.56299 0.45105 0.29096 0.0
H1339 H 0.55584 0.44802 0.42518 0.0
H1340 H 0.60211 0.50161 0.46432 0.0
H1341 H 0.60908 0.50483 0.33111 0.0
C1342 C 0.58546 0.47614 0.66723 0.0
C1343 C 0.5676 0.46903 0.69486 0.0
C1344 C 0.58893 0.47792 0.5899 0.0
C1345 C 0.57466 0.47255 0.53786 0.0
C1346 C 0.55682 0.46543 0.56513 0.0
C1347 C 0.55334 0.46377 0.64257 0.0
C1348 C 0.57153 0.46227 0.32795 0.0
C1349 C 0.58673 0.47811 0.29962 0.0
C1350 C 0.56743 0.46052 0.40498 0.0
C1351 C 0.5785 0.47451 0.45558 0.0
C1352 C 0.59351 0.49042 0.42715 0.0
C1353 C 0.59752 0.49223 0.35039 0.0
H1354 H 0.56318 0.13555 0.68472 0.0
H1355 H 0.55858 0.08327 0.63929 0.0
H1356 H 0.56186 0.14036 0.55025 0.0
H1357 H 0.55716 0.088 0.50516 0.0
H1358 H 0.57001 0.10774 0.2649 0.0
H1359 H 0.5748 0.10597 0.39906 0.0
H1360 H 0.54034 0.12879 0.44817 0.0
H1361 H 0.53621 0.13125 0.31425 0.0
C1362 C 0.56176 0.12503 0.64617 0.0
C1363 C 0.56095 0.109 0.67302 0.0
C1364 C 0.56104 0.12779 0.56897 0.0
C1365 C 0.55943 0.11458 0.51667 0.0
C1366 C 0.55874 0.09863 0.54358 0.0
C1367 C 0.55951 0.09589 0.62068 0.0
C1368 C 0.56375 0.11271 0.30418 0.0
C1369 C 0.55262 0.11954 0.27859 0.0
C1370 C 0.5663 0.11148 0.38126 0.0
C1371 C 0.55783 0.11708 0.43462 0.0
C1372 C 0.54719 0.12446 0.40887 0.0
C1373 C 0.54465 0.12568 0.33194 0.0
H1374 H 0.44069 0.92006 0.32372 0.0
H1375 H 0.49163 0.92143 0.3628 0.0
H1376 H 0.43444 0.91654 0.45857 0.0
H1377 H 0.48536 0.91775 0.49671 0.0
H1378 H 0.47655 0.92498 0.74195 0.0
H1379 H 0.48298 0.93193 0.60872 0.0
H1380 H 0.42642 0.89463 0.5567 0.0
H1381 H 0.41985 0.88839 0.68969 0.0
C1382 C 0.45054 0.91957 0.3609 0.0
C1383 C 0.46669 0.92109 0.33196 0.0
C1384 C 0.44696 0.91753 0.43838 0.0
C1385 C 0.4594 0.91687 0.48906 0.0
C1386 C 0.47561 0.91856 0.45999 0.0
C1387 C 0.47921 0.92066 0.38275 0.0
C1388 C 0.46541 0.91847 0.70237 0.0
C1389 C 0.44768 0.90597 0.72717 0.0
C1390 C 0.46915 0.9223 0.62558 0.0
C1391 C 0.45526 0.91375 0.57137 0.0
C1392 C 0.43746 0.90163 0.59644 0.0
C1393 C 0.43373 0.89784 0.67306 0.0
H1394 H 0.07902 0.54545 0.42312 0.0
H1395 H 0.13053 0.54856 0.37937 0.0
H1396 H 0.08335 0.54373 0.55787 0.0
H1397 H 0.13533 0.54755 0.51373 0.0
H1398 H 0.13409 0.53209 0.75688 0.0
H1399 H 0.12708 0.53021 0.62335 0.0
H1400 H 0.10005 0.56139 0.66078 0.0
H1401 H 0.10654 0.56257 0.79492 0.0
C1402 C 0.09128 0.54576 0.44249 0.0
C1403 C 0.10439 0.54707 0.39059 0.0
C1404 C 0.09386 0.54491 0.51984 0.0
C1405 C 0.10977 0.54561 0.54751 0.0
C1406 C 0.12274 0.54663 0.49513 0.0
C1407 C 0.12003 0.54723 0.41777 0.0
C1408 C 0.12663 0.53852 0.73643 0.0
C1409 C 0.12095 0.54755 0.78642 0.0
C1410 C 0.12266 0.53752 0.65965 0.0
C1411 C 0.11309 0.54577 0.63036 0.0
C1412 C 0.10718 0.5546 0.68086 0.0
C1413 C 0.11095 0.55536 0.75794 0.0
H1414 H 0.49305 0.61292 0.73622 0.0
H1415 H 0.4683 0.55535 0.78337 0.0
H1416 H 0.48929 0.60648 0.60186 0.0
H1417 H 0.46487 0.5488 0.64885 0.0
H1418 H 0.4477 0.5422 0.4024 0.0
H1419 H 0.44937 0.54852 0.53667 0.0
H1420 H 0.50186 0.59702 0.50441 0.0
H1421 H 0.49993 0.59081 0.36998 0.0
C1422 C 0.48681 0.59887 0.71768 0.0
C1423 C 0.48102 0.58466 0.77033 0.0
C1424 C 0.48473 0.59516 0.64064 0.0
C1425 C 0.47695 0.57712 0.61412 0.0
C1426 C 0.47073 0.56285 0.66701 0.0
C1427 C 0.47268 0.56657 0.74424 0.0
C1428 C 0.45964 0.55414 0.42409 0.0
C1429 C 0.4737 0.56599 0.37543 0.0
C1430 C 0.46062 0.55778 0.5012 0.0
C1431 C 0.47574 0.5733 0.53175 0.0
C1432 C 0.48982 0.58512 0.48292 0.0
C1433 C 0.48877 0.58155 0.40575 0.0
H1434 H 0.61601 0.81313 0.94626 0.0
H1435 H 0.57768 0.75576 0.97695 0.0
H1436 H 0.60974 0.81012 0.81215 0.0
H1437 H 0.57128 0.75275 0.84096 0.0
H1438 H 0.58251 0.75668 0.57372 0.0
H1439 H 0.58891 0.75699 0.70921 0.0
H1440 H 0.58099 0.80316 0.7391 0.0
H1441 H 0.57468 0.80284 0.60569 0.0
C1442 C 0.60638 0.79979 0.92426 0.0
C1443 C 0.59739 0.78466 0.97246 0.0
C1444 C 0.6027 0.7981 0.84732 0.0
C1445 C 0.59002 0.78121 0.816 0.0
C1446 C 0.58122 0.76591 0.86357 0.0
C1447 C 0.58475 0.76766 0.9413 0.0
C1448 C 0.58218 0.76686 0.60954 0.0
C1449 C 0.578 0.77966 0.57911 0.0
C1450 C 0.58569 0.76695 0.68694 0.0
C1451 C 0.58545 0.78011 0.73466 0.0
C1452 C 0.58136 0.7929 0.70382 0.0
C1453 C 0.57761 0.79263 0.62736 0.0
H1454 H 0.23461 0.78809 0.56318 0.0
H1455 H 0.2803 0.84214 0.60359 0.0
H1456 H 0.22744 0.78502 0.69748 0.0
H1457 H 0.27339 0.83879 0.73657 0.0
H1458 H 0.26823 0.81721 0.97683 0.0
H1459 H 0.27416 0.81976 0.84259 0.0
H1460 H 0.21713 0.7993 0.79821 0.0
H1461 H 0.2111 0.79714 0.93279 0.0
C1462 C 0.24308 0.79933 0.60016 0.0
C1463 C 0.25817 0.81529 0.57183 0.0
C1464 C 0.23898 0.79755 0.67718 0.0
C1465 C 0.24996 0.8116 0.72767 0.0
C1466 C 0.26487 0.82758 0.69936 0.0
C1467 C 0.26886 0.82944 0.62265 0.0
C1468 C 0.25691 0.81346 0.93907 0.0
C1469 C 0.23915 0.80703 0.96666 0.0
C1470 C 0.26034 0.81486 0.86176 0.0
C1471 C 0.24611 0.80972 0.80978 0.0
C1472 C 0.22835 0.80316 0.83689 0.0
C1473 C 0.22492 0.80193 0.9143 0.0
H1474 H 0.21003 0.47127 0.59638 0.0
H1475 H 0.22505 0.43061 0.54561 0.0
H1476 H 0.20939 0.46463 0.72975 0.0
H1477 H 0.22365 0.42343 0.67879 0.0
H1478 H 0.24277 0.43266 0.92397 0.0
H1479 H 0.24099 0.43716 0.79049 0.0
H1480 H 0.19348 0.44243 0.82756 0.0
H1481 H 0.19528 0.43793 0.96231 0.0
C1482 C 0.21315 0.46087 0.61341 0.0
C1483 C 0.21778 0.45164 0.55965 0.0
C1484 C 0.21254 0.45688 0.69014 0.0
C1485 C 0.21654 0.44353 0.71548 0.0
C1486 C 0.22074 0.43399 0.66163 0.0
C1487 C 0.22135 0.43797 0.58486 0.0
C1488 C 0.23172 0.43446 0.90405 0.0
C1489 C 0.2191 0.43481 0.9546 0.0
C1490 C 0.23071 0.43706 0.82697 0.0
C1491 C 0.21705 0.4401 0.79773 0.0
C1492 C 0.20432 0.44034 0.84803 0.0
C1493 C 0.20534 0.43774 0.92544 0.0
loop_
_geom_bond_atom_site_label_1
_geom_bond_atom_site_label_2
_geom_bond_distance
_geom_bond_site_symmetry_2
_ccdc_geom_bond_type
C0 C1 1.351 . S
C0 N3 1.368 . S
C0 H5 0.931 . S
C1 C0 1.351 . S
C1 N2 1.373 . S
C1 H29 0.930 . S
N2 C1 1.373 . S
N2 C4 1.340 . S
N3 C0 1.368 . S
N3 C4 1.321 . S
N3 Co6 2.135 . S
C4 N2 1.340 . S
C4 N3 1.321 . S
C4 H28 0.930 . S
H5 C0 0.931 . S
Co6 N3 2.135 . S
Co6 N9 2.121 . S
Co6 O14 2.055 . S
Co6 O17 2.039 . S
Co6 N20 2.140 . S
C7 O8 1.227 . S
C7 O17 1.265 . S
O8 C7 1.227 . S
N9 Co6 2.121 . S
N9 C11 1.375 . S
N9 C12 1.313 . S
C10 C11 1.338 . S
C10 N13 1.377 . S
C10 H30 0.930 . S
C11 N9 1.375 . S
C11 C10 1.338 . S
C11 H15 0.931 . S
C12 N9 1.313 . S
C12 N13 1.344 . S
C12 H16 0.930 . S
N13 C10 1.377 . S
N13 C12 1.344 . S
O14 Co6 2.055 . S
O14 C18 1.253 . S
H15 C11 0.931 . S
H16 C12 0.930 . S
O17 Co6 2.039 . S
O17 C7 1.265 . S
C18 O14 1.253 . S
C18 O19 1.227 . S
O19 C18 1.227 . S
N20 Co6 2.140 . S
N20 C23 1.346 . S
N20 C24 1.345 . S
C21 C22 1.387 . S
C21 C25 1.391 . S
C22 C21 1.387 . S
C22 C23 1.369 . S
C22 H31 0.929 . S
C23 N20 1.346 . S
C23 C22 1.369 . S
C23 H26 0.928 . S
C24 N20 1.345 . S
C24 C25 1.371 . S
C24 H27 0.931 . S
C25 C21 1.391 . S
C25 C24 1.371 . S
C25 H32 0.930 . S
H26 C23 0.928 . S
H27 C24 0.931 . S
H28 C4 0.930 . S
H29 C1 0.930 . S
H30 C10 0.930 . S
H31 C22 0.929 . S
H32 C25 0.930 . S
C33 C34 1.351 . S
C33 N36 1.368 . S
C33 H38 0.931 . S
C34 C33 1.351 . S
C34 N35 1.373 . S
C34 H62 0.930 . S
N35 C34 1.373 . S
N35 C37 1.340 . S
N36 C33 1.368 . S
N36 C37 1.321 . S
N36 Co39 2.135 . S
C37 N35 1.340 . S
C37 N36 1.321 . S
C37 H61 0.930 . S
H38 C33 0.931 . S
Co39 N36 2.135 . S
Co39 N42 2.121 . S
Co39 O47 2.055 . S
Co39 O50 2.039 . S
Co39 N53 2.140 . S
C40 O41 1.227 . S
C40 O50 1.265 . S
O41 C40 1.227 . S
N42 Co39 2.121 . S
N42 C44 1.375 . S
N42 C45 1.313 . S
C43 C44 1.338 . S
C43 N46 1.377 . S
C43 H63 0.930 . S
C44 N42 1.375 . S
C44 C43 1.338 . S
C44 H48 0.931 . S
C45 N42 1.313 . S
C45 N46 1.344 . S
C45 H49 0.930 . S
N46 C43 1.377 . S
N46 C45 1.344 . S
O47 Co39 2.055 . S
O47 C51 1.253 . S
H48 C44 0.931 . S
H49 C45 0.930 . S
O50 Co39 2.039 . S
O50 C40 1.265 . S
C51 O47 1.253 . S
C51 O52 1.227 . S
O52 C51 1.227 . S
N53 Co39 2.140 . S
N53 C56 1.346 . S
N53 C57 1.345 . S
C54 C55 1.387 . S
C54 C58 1.391 . S
C55 C54 1.387 . S
C55 C56 1.369 . S
C55 H64 0.929 . S
C56 N53 1.346 . S
C56 C55 1.369 . S
C56 H59 0.928 . S
C57 N53 1.345 . S
C57 C58 1.371 . S
C57 H60 0.931 . S
C58 C54 1.391 . S
C58 C57 1.371 . S
C58 H65 0.930 . S
H59 C56 0.928 . S
H60 C57 0.931 . S
H61 C37 0.930 . S
H62 C34 0.930 . S
H63 C43 0.930 . S
H64 C55 0.929 . S
H65 C58 0.930 . S
C66 C67 1.351 . S
C66 N69 1.368 . S
C66 H71 0.931 . S
C67 C66 1.351 . S
C67 N68 1.373 . S
C67 H95 0.930 . S
N68 C67 1.373 . S
N68 C70 1.340 . S
N69 C66 1.368 . S
N69 C70 1.321 . S
N69 Co72 2.135 . S
C70 N68 1.340 . S
C70 N69 1.321 . S
C70 H94 0.930 . S
H71 C66 0.931 . S
Co72 N69 2.135 . S
Co72 N75 2.121 . S
Co72 O80 2.055 . S
Co72 O83 2.039 . S
Co72 N86 2.140 . S
C73 O74 1.227 . S
C73 O83 1.265 . S
O74 C73 1.227 . S
N75 Co72 2.121 . S
N75 C77 1.375 . S
N75 C78 1.313 . S
C76 C77 1.338 . S
C76 N79 1.377 . S
C76 H96 0.930 . S
C77 N75 1.375 . S
C77 C76 1.338 . S
C77 H81 0.931 . S
C78 N75 1.313 . S
C78 N79 1.344 . S
C78 H82 0.930 . S
N79 C76 1.377 . S
N79 C78 1.344 . S
O80 Co72 2.055 . S
O80 C84 1.253 . S
H81 C77 0.931 . S
H82 C78 0.930 . S
O83 Co72 2.039 . S
O83 C73 1.265 . S
C84 O80 1.253 . S
C84 O85 1.227 . S
O85 C84 1.227 . S
N86 Co72 2.140 . S
N86 C89 1.346 . S
N86 C90 1.345 . S
C87 C88 1.387 . S
C87 C91 1.391 . S
C88 C87 1.387 . S
C88 C89 1.369 . S
C88 H97 0.929 . S
C89 N86 1.346 . S
C89 C88 1.369 . S
C89 H92 0.928 . S
C90 N86 1.345 . S
C90 C91 1.371 . S
C90 H93 0.931 . S
C91 C87 1.391 . S
C91 C90 1.371 . S
C91 H98 0.930 . S
H92 C89 0.928 . S
H93 C90 0.931 . S
H94 C70 0.930 . S
H95 C67 0.930 . S
H96 C76 0.930 . S
H97 C88 0.929 . S
H98 C91 0.930 . S
C99 C100 1.351 . S
C99 N102 1.368 . S
C99 H104 0.931 . S
C100 C99 1.351 . S
C100 N101 1.373 . S
C100 H128 0.930 . S
N101 C100 1.373 . S
N101 C103 1.340 . S
N102 C99 1.368 . S
N102 C103 1.321 . S
N102 Co105 2.135 . S
C103 N101 1.340 . S
C103 N102 1.321 . S
C103 H127 0.930 . S
H104 C99 0.931 . S
Co105 N102 2.135 . S
Co105 N108 2.121 . S
Co105 O113 2.055 . S
Co105 O116 2.039 . S
Co105 N119 2.140 . S
C106 O107 1.227 . S
C106 O116 1.265 . S
O107 C106 1.227 . S
N108 Co105 2.121 . S
N108 C110 1.375 . S
N108 C111 1.313 . S
C109 C110 1.338 . S
C109 N112 1.377 . S
C109 H129 0.930 . S
C110 N108 1.375 . S
C110 C109 1.338 . S
C110 H114 0.931 . S
C111 N108 1.313 . S
C111 N112 1.344 . S
C111 H115 0.930 . S
N112 C109 1.377 . S
N112 C111 1.344 . S
O113 Co105 2.055 . S
O113 C117 1.253 . S
H114 C110 0.931 . S
H115 C111 0.930 . S
O116 Co105 2.039 . S
O116 C106 1.265 . S
C117 O113 1.253 . S
C117 O118 1.227 . S
O118 C117 1.227 . S
N119 Co105 2.140 . S
N119 C122 1.346 . S
N119 C123 1.345 . S
C120 C121 1.387 . S
C120 C124 1.391 . S
C121 C120 1.387 . S
C121 C122 1.369 . S
C121 H130 0.929 . S
C122 N119 1.346 . S
C122 C121 1.369 . S
C122 H125 0.928 . S
C123 N119 1.345 . S
C123 C124 1.371 . S
C123 H126 0.931 . S
C124 C120 1.391 . S
C124 C123 1.371 . S
C124 H131 0.930 . S
H125 C122 0.928 . S
H126 C123 0.931 . S
H127 C103 0.930 . S
H128 C100 0.930 . S
H129 C109 0.930 . S
H130 C121 0.929 . S
H131 C124 0.930 . S
C132 C133 1.351 . S
C132 N135 1.368 . S
C132 H137 0.931 . S
C133 C132 1.351 . S
C133 N134 1.373 . S
C133 H161 0.930 . S
N134 C133 1.373 . S
N134 C136 1.340 . S
N135 C132 1.368 . S
N135 C136 1.321 . S
N135 Co138 2.135 . S
C136 N134 1.340 . S
C136 N135 1.321 . S
C136 H160 0.930 . S
H137 C132 0.931 . S
Co138 N135 2.135 . S
Co138 N141 2.121 . S
Co138 O146 2.055 . S
Co138 O149 2.039 . S
Co138 N152 2.140 . S
C139 O140 1.227 . S
C139 O149 1.265 . S
O140 C139 1.227 . S
N141 Co138 2.121 . S
N141 C143 1.375 . S
N141 C144 1.313 . S
C142 C143 1.338 . S
C142 N145 1.377 . S
C142 H162 0.930 . S
C143 N141 1.375 . S
C143 C142 1.338 . S
C143 H147 0.931 . S
C144 N141 1.313 . S
C144 N145 1.344 . S
C144 H148 0.930 . S
N145 C142 1.377 . S
N145 C144 1.344 . S
O146 Co138 2.055 . S
O146 C150 1.253 . S
H147 C143 0.931 . S
H148 C144 0.930 . S
O149 Co138 2.039 . S
O149 C139 1.265 . S
C150 O146 1.253 . S
C150 O151 1.227 . S
O151 C150 1.227 . S
N152 Co138 2.140 . S
N152 C155 1.346 . S
N152 C156 1.345 . S
C153 C154 1.387 . S
C153 C157 1.391 . S
C154 C153 1.387 . S
C154 C155 1.369 . S
C154 H163 0.929 . S
C155 N152 1.346 . S
C155 C154 1.369 . S
C155 H158 0.928 . S
C156 N152 1.345 . S
C156 C157 1.371 . S
C156 H159 0.931 . S
C157 C153 1.391 . S
C157 C156 1.371 . S
C157 H164 0.930 . S
H158 C155 0.928 . S
H159 C156 0.931 . S
H160 C136 0.930 . S
H161 C133 0.930 . S
H162 C142 0.930 . S
H163 C154 0.929 . S
H164 C157 0.930 . S
C165 C166 1.351 . S
C165 N168 1.368 . S
C165 H170 0.931 . S
C166 C165 1.351 . S
C166 N167 1.373 . S
C166 H194 0.930 . S
N167 C166 1.373 . S
N167 C169 1.340 . S
N168 C165 1.368 . S
N168 C169 1.321 . S
N168 Co171 2.135 . S
C169 N167 1.340 . S
C169 N168 1.321 . S
C169 H193 0.930 . S
H170 C165 0.931 . S
Co171 N168 2.135 . S
Co171 N174 2.121 . S
Co171 O179 2.055 . S
Co171 O182 2.039 . S
Co171 N185 2.140 . S
C172 O173 1.227 . S
C172 O182 1.265 . S
O173 C172 1.227 . S
N174 Co171 2.121 . S
N174 C176 1.375 . S
N174 C177 1.313 . S
C175 C176 1.338 . S
C175 N178 1.377 . S
C175 H195 0.930 . S
C176 N174 1.375 . S
C176 C175 1.338 . S
C176 H180 0.931 . S
C177 N174 1.313 . S
C177 N178 1.344 . S
C177 H181 0.930 . S
N178 C175 1.377 . S
N178 C177 1.344 . S
O179 Co171 2.055 . S
O179 C183 1.253 . S
H180 C176 0.931 . S
H181 C177 0.930 . S
O182 Co171 2.039 . S
O182 C172 1.265 . S
C183 O179 1.253 . S
C183 O184 1.227 . S
O184 C183 1.227 . S
N185 Co171 2.140 . S
N185 C188 1.346 . S
N185 C189 1.345 . S
C186 C187 1.387 . S
C186 C190 1.391 . S
C187 C186 1.387 . S
C187 C188 1.369 . S
C187 H196 0.929 . S
C188 N185 1.346 . S
C188 C187 1.369 . S
C188 H191 0.928 . S
C189 N185 1.345 . S
C189 C190 1.371 . S
C189 H192 0.931 . S
C190 C186 1.391 . S
C190 C189 1.371 . S
C190 H197 0.930 . S
H191 C188 0.928 . S
H192 C189 0.931 . S
H193 C169 0.930 . S
H194 C166 0.930 . S
H195 C175 0.930 . S
H196 C187 0.929 . S
H197 C190 0.930 . S
C198 C199 1.351 . S
C198 N201 1.368 . S
C198 H203 0.931 . S
C199 C198 1.351 . S
C199 N200 1.373 1_556 S
C199 H227 0.930 1_556 S
N200 C199 1.373 1_554 S
N200 C202 1.340 1_554 S
N201 C198 1.368 . S
N201 C202 1.321 . S
N201 Co204 2.135 . S
C202 N200 1.340 1_556 S
C202 N201 1.321 . S
C202 H226 0.930 . S
H203 C198 0.931 . S
Co204 N201 2.135 . S
Co204 N207 2.121 . S
Co204 O212 2.055 . S
Co204 O215 2.039 . S
Co204 N218 2.140 . S
C205 O206 1.227 . S
C205 O215 1.265 . S
O206 C205 1.227 . S
N207 Co204 2.121 . S
N207 C209 1.375 . S
N207 C210 1.313 . S
C208 C209 1.338 . S
C208 N211 1.377 . S
C208 H228 0.930 . S
C209 N207 1.375 . S
C209 C208 1.338 . S
C209 H213 0.931 . S
C210 N207 1.313 . S
C210 N211 1.344 . S
C210 H214 0.930 . S
N211 C208 1.377 . S
N211 C210 1.344 . S
O212 Co204 2.055 . S
O212 C216 1.253 . S
H213 C209 0.931 . S
H214 C210 0.930 . S
O215 Co204 2.039 . S
O215 C205 1.265 . S
C216 O212 1.253 . S
C216 O217 1.227 . S
O217 C216 1.227 . S
N218 Co204 2.140 . S
N218 C221 1.346 . S
N218 C222 1.345 . S
C219 C220 1.387 . S
C219 C223 1.391 . S
C220 C219 1.387 . S
C220 C221 1.369 . S
C220 H229 0.929 . S
C221 N218 1.346 . S
C221 C220 1.369 . S
C221 H224 0.928 . S
C222 N218 1.345 . S
C222 C223 1.371 . S
C222 H225 0.931 . S
C223 C219 1.391 . S
C223 C222 1.371 . S
C223 H230 0.930 . S
H224 C221 0.928 . S
H225 C222 0.931 . S
H226 C202 0.930 . S
H227 C199 0.930 1_554 S
H228 C208 0.930 . S
H229 C220 0.929 . S
H230 C223 0.930 . S
C231 C232 1.351 . S
C231 N234 1.368 . S
C231 H236 0.931 . S
C232 C231 1.351 . S
C232 N233 1.373 1_556 S
C232 H260 0.930 1_556 S
N233 C232 1.373 1_554 S
N233 C235 1.340 1_554 S
N234 C231 1.368 . S
N234 C235 1.321 . S
N234 Co237 2.135 . S
C235 N233 1.340 1_556 S
C235 N234 1.321 . S
C235 H259 0.930 . S
H236 C231 0.931 . S
Co237 N234 2.135 . S
Co237 N240 2.121 . S
Co237 O245 2.055 . S
Co237 O248 2.039 . S
Co237 N251 2.140 . S
C238 O239 1.227 . S
C238 O248 1.265 . S
O239 C238 1.227 . S
N240 Co237 2.121 . S
N240 C242 1.375 . S
N240 C243 1.313 . S
C241 C242 1.338 . S
C241 N244 1.377 . S
C241 H261 0.930 . S
C242 N240 1.375 . S
C242 C241 1.338 . S
C242 H246 0.931 . S
C243 N240 1.313 . S
C243 N244 1.344 . S
C243 H247 0.930 . S
N244 C241 1.377 . S
N244 C243 1.344 . S
O245 Co237 2.055 . S
O245 C249 1.253 . S
H246 C242 0.931 . S
H247 C243 0.930 . S
O248 Co237 2.039 . S
O248 C238 1.265 . S
C249 O245 1.253 . S
C249 O250 1.227 . S
O250 C249 1.227 . S
N251 Co237 2.140 . S
N251 C254 1.346 . S
N251 C255 1.345 . S
C252 C253 1.387 . S
C252 C256 1.391 . S
C253 C252 1.387 . S
C253 C254 1.369 . S
C253 H262 0.929 . S
C254 N251 1.346 . S
C254 C253 1.369 . S
C254 H257 0.928 . S
C255 N251 1.345 . S
C255 C256 1.371 . S
C255 H258 0.931 . S
C256 C252 1.391 . S
C256 C255 1.371 . S
C256 H263 0.930 . S
H257 C254 0.928 . S
H258 C255 0.931 . S
H259 C235 0.930 . S
H260 C232 0.930 1_554 S
H261 C241 0.930 . S
H262 C253 0.929 . S
H263 C256 0.930 . S
C264 C265 1.351 . S
C264 N267 1.368 . S
C264 H269 0.931 . S
C265 C264 1.351 . S
C265 N266 1.373 1_556 S
C265 H293 0.930 1_556 S
N266 C265 1.373 1_554 S
N266 C268 1.340 1_554 S
N267 C264 1.368 . S
N267 C268 1.321 . S
N267 Co270 2.135 . S
C268 N266 1.340 1_556 S
C268 N267 1.321 . S
C268 H292 0.930 . S
H269 C264 0.931 . S
Co270 N267 2.135 . S
Co270 N273 2.121 . S
Co270 O278 2.055 . S
Co270 O281 2.039 . S
Co270 N284 2.140 . S
C271 O272 1.227 . S
C271 O281 1.265 . S
O272 C271 1.227 . S
N273 Co270 2.121 . S
N273 C275 1.375 . S
N273 C276 1.313 . S
C274 C275 1.338 . S
C274 N277 1.377 . S
C274 H294 0.930 . S
C275 N273 1.375 . S
C275 C274 1.338 . S
C275 H279 0.931 . S
C276 N273 1.313 . S
C276 N277 1.344 . S
C276 H280 0.930 . S
N277 C274 1.377 . S
N277 C276 1.344 . S
O278 Co270 2.055 . S
O278 C282 1.253 . S
H279 C275 0.931 . S
H280 C276 0.930 . S
O281 Co270 2.039 . S
O281 C271 1.265 . S
C282 O278 1.253 . S
C282 O283 1.227 . S
O283 C282 1.227 . S
N284 Co270 2.140 . S
N284 C287 1.346 . S
N284 C288 1.345 . S
C285 C286 1.387 . S
C285 C289 1.391 . S
C286 C285 1.387 . S
C286 C287 1.369 . S
C286 H295 0.929 . S
C287 N284 1.346 . S
C287 C286 1.369 . S
C287 H290 0.928 . S
C288 N284 1.345 . S
C288 C289 1.371 . S
C288 H291 0.931 . S
C289 C285 1.391 . S
C289 C288 1.371 . S
C289 H296 0.930 . S
H290 C287 0.928 . S
H291 C288 0.931 . S
H292 C268 0.930 . S
H293 C265 0.930 1_554 S
H294 C274 0.930 . S
H295 C286 0.929 . S
H296 C289 0.930 . S
C297 C298 1.351 . S
C297 N300 1.368 . S
C297 H302 0.931 . S
C298 C297 1.351 . S
C298 N299 1.373 . S
C298 H326 0.930 . S
N299 C298 1.373 . S
N299 C301 1.340 . S
N300 C297 1.368 . S
N300 C301 1.321 . S
N300 Co303 2.135 . S
C301 N299 1.340 . S
C301 N300 1.321 . S
C301 H325 0.930 . S
H302 C297 0.931 . S
Co303 N300 2.135 . S
Co303 N306 2.121 1_556 S
Co303 O311 2.055 . S
Co303 O314 2.039 . S
Co303 N317 2.140 . S
C304 O305 1.227 . S
C304 O314 1.265 . S
O305 C304 1.227 . S
N306 Co303 2.121 1_554 S
N306 C308 1.375 . S
N306 C309 1.313 . S
C307 C308 1.338 . S
C307 N310 1.377 . S
C307 H327 0.930 . S
C308 N306 1.375 . S
C308 C307 1.338 . S
C308 H312 0.931 . S
C309 N306 1.313 . S
C309 N310 1.344 . S
C309 H313 0.930 . S
N310 C307 1.377 . S
N310 C309 1.344 . S
O311 Co303 2.055 . S
O311 C315 1.253 . S
H312 C308 0.931 . S
H313 C309 0.930 . S
O314 Co303 2.039 . S
O314 C304 1.265 . S
C315 O311 1.253 . S
C315 O316 1.227 . S
O316 C315 1.227 . S
N317 Co303 2.140 . S
N317 C320 1.346 . S
N317 C321 1.345 . S
C318 C319 1.387 . S
C318 C322 1.391 . S
C319 C318 1.387 . S
C319 C320 1.369 . S
C319 H328 0.929 . S
C320 N317 1.346 . S
C320 C319 1.369 . S
C320 H323 0.928 . S
C321 N317 1.345 . S
C321 C322 1.371 . S
C321 H324 0.931 . S
C322 C318 1.391 . S
C322 C321 1.371 . S
C322 H329 0.930 . S
H323 C320 0.928 . S
H324 C321 0.931 . S
H325 C301 0.930 . S
H326 C298 0.930 . S
H327 C307 0.930 . S
H328 C319 0.929 . S
H329 C322 0.930 . S
C330 C331 1.351 . S
C330 N333 1.368 . S
C330 H335 0.931 . S
C331 C330 1.351 . S
C331 N332 1.373 . S
C331 H359 0.930 . S
N332 C331 1.373 . S
N332 C334 1.340 . S
N333 C330 1.368 . S
N333 C334 1.321 . S
N333 Co336 2.135 . S
C334 N332 1.340 . S
C334 N333 1.321 . S
C334 H358 0.930 . S
H335 C330 0.931 . S
Co336 N333 2.135 . S
Co336 N339 2.121 1_556 S
Co336 O344 2.055 . S
Co336 O347 2.039 . S
Co336 N350 2.140 . S
C337 O338 1.227 . S
C337 O347 1.265 . S
O338 C337 1.227 . S
N339 Co336 2.121 1_554 S
N339 C341 1.375 . S
N339 C342 1.313 . S
C340 C341 1.338 . S
C340 N343 1.377 . S
C340 H360 0.930 . S
C341 N339 1.375 . S
C341 C340 1.338 . S
C341 H345 0.931 . S
C342 N339 1.313 . S
C342 N343 1.344 . S
C342 H346 0.930 . S
N343 C340 1.377 . S
N343 C342 1.344 . S
O344 Co336 2.055 . S
O344 C348 1.253 . S
H345 C341 0.931 . S
H346 C342 0.930 . S
O347 Co336 2.039 . S
O347 C337 1.265 . S
C348 O344 1.253 . S
C348 O349 1.227 . S
O349 C348 1.227 . S
N350 Co336 2.140 . S
N350 C353 1.346 . S
N350 C354 1.345 . S
C351 C352 1.387 . S
C351 C355 1.391 . S
C352 C351 1.387 . S
C352 C353 1.369 . S
C352 H361 0.929 . S
C353 N350 1.346 . S
C353 C352 1.369 . S
C353 H356 0.928 . S
C354 N350 1.345 . S
C354 C355 1.371 . S
C354 H357 0.931 . S
C355 C351 1.391 . S
C355 C354 1.371 . S
C355 H362 0.930 . S
H356 C353 0.928 . S
H357 C354 0.931 . S
H358 C334 0.930 . S
H359 C331 0.930 . S
H360 C340 0.930 . S
H361 C352 0.929 . S
H362 C355 0.930 . S
C363 C364 1.351 . S
C363 N366 1.368 . S
C363 H368 0.931 . S
C364 C363 1.351 . S
C364 N365 1.373 . S
C364 H392 0.930 . S
N365 C364 1.373 . S
N365 C367 1.340 . S
N366 C363 1.368 . S
N366 C367 1.321 . S
N366 Co369 2.135 . S
C367 N365 1.340 . S
C367 N366 1.321 . S
C367 H391 0.930 . S
H368 C363 0.931 . S
Co369 N366 2.135 . S
Co369 N372 2.121 1_556 S
Co369 O377 2.055 . S
Co369 O380 2.039 . S
Co369 N383 2.140 . S
C370 O371 1.227 . S
C370 O380 1.265 . S
O371 C370 1.227 . S
N372 Co369 2.121 1_554 S
N372 C374 1.375 . S
N372 C375 1.313 . S
C373 C374 1.338 . S
C373 N376 1.377 . S
C373 H393 0.930 . S
C374 N372 1.375 . S
C374 C373 1.338 . S
C374 H378 0.931 . S
C375 N372 1.313 . S
C375 N376 1.344 . S
C375 H379 0.930 . S
N376 C373 1.377 . S
N376 C375 1.344 . S
O377 Co369 2.055 . S
O377 C381 1.253 . S
H378 C374 0.931 . S
H379 C375 0.930 . S
O380 Co369 2.039 . S
O380 C370 1.265 . S
C381 O377 1.253 . S
C381 O382 1.227 . S
O382 C381 1.227 . S
N383 Co369 2.140 . S
N383 C386 1.346 . S
N383 C387 1.345 . S
C384 C385 1.387 . S
C384 C388 1.391 . S
C385 C384 1.387 . S
C385 C386 1.369 . S
C385 H394 0.929 . S
C386 N383 1.346 . S
C386 C385 1.369 . S
C386 H389 0.928 . S
C387 N383 1.345 . S
C387 C388 1.371 . S
C387 H390 0.931 . S
C388 C384 1.391 . S
C388 C387 1.371 . S
C388 H395 0.930 . S
H389 C386 0.928 . S
H390 C387 0.931 . S
H391 C367 0.930 . S
H392 C364 0.930 . S
H393 C373 0.930 . S
H394 C385 0.929 . S
H395 C388 0.930 . S
C396 C397 1.351 . S
C396 N399 1.368 . S
C396 H401 0.931 . S
C397 C396 1.351 . S
C397 N398 1.373 . S
C397 H425 0.930 . S
N398 C397 1.373 . S
N398 C400 1.340 . S
N399 C396 1.368 . S
N399 C400 1.321 . S
N399 Co402 2.135 . S
C400 N398 1.340 . S
C400 N399 1.321 . S
C400 H424 0.930 . S
H401 C396 0.931 . S
Co402 N399 2.135 . S
Co402 N405 2.121 1_554 S
Co402 O410 2.055 . S
Co402 O413 2.039 . S
Co402 N416 2.140 . S
C403 O404 1.227 . S
C403 O413 1.265 . S
O404 C403 1.227 . S
N405 Co402 2.121 1_556 S
N405 C407 1.375 . S
N405 C408 1.313 . S
C406 C407 1.338 . S
C406 N409 1.377 . S
C406 H426 0.930 . S
C407 N405 1.375 . S
C407 C406 1.338 . S
C407 H411 0.931 . S
C408 N405 1.313 . S
C408 N409 1.344 . S
C408 H412 0.930 . S
N409 C406 1.377 . S
N409 C408 1.344 . S
O410 Co402 2.055 . S
O410 C414 1.253 . S
H411 C407 0.931 . S
H412 C408 0.930 . S
O413 Co402 2.039 . S
O413 C403 1.265 . S
C414 O410 1.253 . S
C414 O415 1.227 . S
O415 C414 1.227 . S
N416 Co402 2.140 . S
N416 C419 1.346 . S
N416 C420 1.345 . S
C417 C418 1.387 . S
C417 C421 1.391 . S
C418 C417 1.387 . S
C418 C419 1.369 . S
C418 H427 0.929 . S
C419 N416 1.346 . S
C419 C418 1.369 . S
C419 H422 0.928 . S
C420 N416 1.345 . S
C420 C421 1.371 . S
C420 H423 0.931 . S
C421 C417 1.391 . S
C421 C420 1.371 . S
C421 H428 0.930 . S
H422 C419 0.928 . S
H423 C420 0.931 . S
H424 C400 0.930 . S
H425 C397 0.930 . S
H426 C406 0.930 . S
H427 C418 0.929 . S
H428 C421 0.930 . S
C429 C430 1.351 . S
C429 N432 1.368 . S
C429 H434 0.931 . S
C430 C429 1.351 . S
C430 N431 1.373 . S
C430 H458 0.930 . S
N431 C430 1.373 . S
N431 C433 1.340 . S
N432 C429 1.368 . S
N432 C433 1.321 . S
N432 Co435 2.135 . S
C433 N431 1.340 . S
C433 N432 1.321 . S
C433 H457 0.930 . S
H434 C429 0.931 . S
Co435 N432 2.135 . S
Co435 N438 2.121 1_554 S
Co435 O443 2.055 . S
Co435 O446 2.039 . S
Co435 N449 2.140 . S
C436 O437 1.227 . S
C436 O446 1.265 . S
O437 C436 1.227 . S
N438 Co435 2.121 1_556 S
N438 C440 1.375 . S
N438 C441 1.313 . S
C439 C440 1.338 . S
C439 N442 1.377 . S
C439 H459 0.930 . S
C440 N438 1.375 . S
C440 C439 1.338 . S
C440 H444 0.931 . S
C441 N438 1.313 . S
C441 N442 1.344 . S
C441 H445 0.930 . S
N442 C439 1.377 . S
N442 C441 1.344 . S
O443 Co435 2.055 . S
O443 C447 1.253 . S
H444 C440 0.931 . S
H445 C441 0.930 . S
O446 Co435 2.039 . S
O446 C436 1.265 . S
C447 O443 1.253 . S
C447 O448 1.227 . S
O448 C447 1.227 . S
N449 Co435 2.140 . S
N449 C452 1.346 . S
N449 C453 1.345 . S
C450 C451 1.387 . S
C450 C454 1.391 . S
C451 C450 1.387 . S
C451 C452 1.369 . S
C451 H460 0.929 . S
C452 N449 1.346 . S
C452 C451 1.369 . S
C452 H455 0.928 . S
C453 N449 1.345 . S
C453 C454 1.371 . S
C453 H456 0.931 . S
C454 C450 1.391 . S
C454 C453 1.371 . S
C454 H461 0.930 . S
H455 C452 0.928 . S
H456 C453 0.931 . S
H457 C433 0.930 . S
H458 C430 0.930 . S
H459 C439 0.930 . S
H460 C451 0.929 . S
H461 C454 0.930 . S
C462 C463 1.351 . S
C462 N465 1.368 . S
C462 H467 0.931 . S
C463 C462 1.351 . S
C463 N464 1.373 . S
C463 H491 0.930 . S
N464 C463 1.373 . S
N464 C466 1.340 . S
N465 C462 1.368 . S
N465 C466 1.321 . S
N465 Co468 2.135 . S
C466 N464 1.340 . S
C466 N465 1.321 . S
C466 H490 0.930 . S
H467 C462 0.931 . S
Co468 N465 2.135 . S
Co468 N471 2.121 1_554 S
Co468 O476 2.055 . S
Co468 O479 2.039 . S
Co468 N482 2.140 . S
C469 O470 1.227 . S
C469 O479 1.265 . S
O470 C469 1.227 . S
N471 Co468 2.121 1_556 S
N471 C473 1.375 . S
N471 C474 1.313 . S
C472 C473 1.338 . S
C472 N475 1.377 . S
C472 H492 0.930 . S
C473 N471 1.375 . S
C473 C472 1.338 . S
C473 H477 0.931 . S
C474 N471 1.313 . S
C474 N475 1.344 . S
C474 H478 0.930 . S
N475 C472 1.377 . S
N475 C474 1.344 . S
O476 Co468 2.055 . S
O476 C480 1.253 . S
H477 C473 0.931 . S
H478 C474 0.930 . S
O479 Co468 2.039 . S
O479 C469 1.265 . S
C480 O476 1.253 . S
C480 O481 1.227 . S
O481 C480 1.227 . S
N482 Co468 2.140 . S
N482 C485 1.346 . S
N482 C486 1.345 . S
C483 C484 1.387 . S
C483 C487 1.391 . S
C484 C483 1.387 . S
C484 C485 1.369 . S
C484 H493 0.929 . S
C485 N482 1.346 . S
C485 C484 1.369 . S
C485 H488 0.928 . S
C486 N482 1.345 . S
C486 C487 1.371 . S
C486 H489 0.931 . S
C487 C483 1.391 . S
C487 C486 1.371 . S
C487 H494 0.930 . S
H488 C485 0.928 . S
H489 C486 0.931 . S
H490 C466 0.930 . S
H491 C463 0.930 . S
H492 C472 0.930 . S
H493 C484 0.929 . S
H494 C487 0.930 . S
C495 C496 1.351 . S
C495 N498 1.368 . S
C495 H500 0.931 . S
C496 C495 1.351 . S
C496 N497 1.373 1_554 S
C496 H524 0.930 1_554 S
N497 C496 1.373 1_556 S
N497 C499 1.340 1_556 S
N498 C495 1.368 . S
N498 C499 1.321 . S
N498 Co501 2.135 . S
C499 N497 1.340 1_554 S
C499 N498 1.321 . S
C499 H523 0.930 . S
H500 C495 0.931 . S
Co501 N498 2.135 . S
Co501 N504 2.121 . S
Co501 O509 2.055 . S
Co501 O512 2.039 . S
Co501 N515 2.140 . S
C502 O503 1.227 . S
C502 O512 1.265 . S
O503 C502 1.227 . S
N504 Co501 2.121 . S
N504 C506 1.375 . S
N504 C507 1.313 . S
C505 C506 1.338 . S
C505 N508 1.377 . S
C505 H525 0.930 . S
C506 N504 1.375 . S
C506 C505 1.338 . S
C506 H510 0.931 . S
C507 N504 1.313 . S
C507 N508 1.344 . S
C507 H511 0.930 . S
N508 C505 1.377 . S
N508 C507 1.344 . S
O509 Co501 2.055 . S
O509 C513 1.253 . S
H510 C506 0.931 . S
H511 C507 0.930 . S
O512 Co501 2.039 . S
O512 C502 1.265 . S
C513 O509 1.253 . S
C513 O514 1.227 . S
O514 C513 1.227 . S
N515 Co501 2.140 . S
N515 C518 1.346 . S
N515 C519 1.345 . S
C516 C517 1.387 . S
C516 C520 1.391 . S
C517 C516 1.387 . S
C517 C518 1.369 . S
C517 H526 0.929 . S
C518 N515 1.346 . S
C518 C517 1.369 . S
C518 H521 0.928 . S
C519 N515 1.345 . S
C519 C520 1.371 . S
C519 H522 0.931 . S
C520 C516 1.391 . S
C520 C519 1.371 . S
C520 H527 0.930 . S
H521 C518 0.928 . S
H522 C519 0.931 . S
H523 C499 0.930 . S
H524 C496 0.930 1_556 S
H525 C505 0.930 . S
H526 C517 0.929 . S
H527 C520 0.930 . S
C528 C529 1.351 . S
C528 N531 1.368 . S
C528 H533 0.931 . S
C529 C528 1.351 . S
C529 N530 1.373 1_554 S
C529 H557 0.930 1_554 S
N530 C529 1.373 1_556 S
N530 C532 1.340 1_556 S
N531 C528 1.368 . S
N531 C532 1.321 . S
N531 Co534 2.135 . S
C532 N530 1.340 1_554 S
C532 N531 1.321 . S
C532 H556 0.930 . S
H533 C528 0.931 . S
Co534 N531 2.135 . S
Co534 N537 2.121 . S
Co534 O542 2.055 . S
Co534 O545 2.039 . S
Co534 N548 2.140 . S
C535 O536 1.227 . S
C535 O545 1.265 . S
O536 C535 1.227 . S
N537 Co534 2.121 . S
N537 C539 1.375 . S
N537 C540 1.313 . S
C538 C539 1.338 . S
C538 N541 1.377 . S
C538 H558 0.930 . S
C539 N537 1.375 . S
C539 C538 1.338 . S
C539 H543 0.931 . S
C540 N537 1.313 . S
C540 N541 1.344 . S
C540 H544 0.930 . S
N541 C538 1.377 . S
N541 C540 1.344 . S
O542 Co534 2.055 . S
O542 C546 1.253 . S
H543 C539 0.931 . S
H544 C540 0.930 . S
O545 Co534 2.039 . S
O545 C535 1.265 . S
C546 O542 1.253 . S
C546 O547 1.227 . S
O547 C546 1.227 . S
N548 Co534 2.140 . S
N548 C551 1.346 . S
N548 C552 1.345 . S
C549 C550 1.387 . S
C549 C553 1.391 . S
C550 C549 1.387 . S
C550 C551 1.369 . S
C550 H559 0.929 . S
C551 N548 1.346 . S
C551 C550 1.369 . S
C551 H554 0.928 . S
C552 N548 1.345 . S
C552 C553 1.371 . S
C552 H555 0.931 . S
C553 C549 1.391 . S
C553 C552 1.371 . S
C553 H560 0.930 . S
H554 C551 0.928 . S
H555 C552 0.931 . S
H556 C532 0.930 . S
H557 C529 0.930 1_556 S
H558 C538 0.930 . S
H559 C550 0.929 . S
H560 C553 0.930 . S
C561 C562 1.351 . S
C561 N564 1.368 . S
C561 H566 0.931 . S
C562 C561 1.351 . S
C562 N563 1.373 1_554 S
C562 H590 0.930 1_554 S
N563 C562 1.373 1_556 S
N563 C565 1.340 1_556 S
N564 C561 1.368 . S
N564 C565 1.321 . S
N564 Co567 2.135 . S
C565 N563 1.340 1_554 S
C565 N564 1.321 . S
C565 H589 0.930 . S
H566 C561 0.931 . S
Co567 N564 2.135 . S
Co567 N570 2.121 . S
Co567 O575 2.055 . S
Co567 O578 2.039 . S
Co567 N581 2.140 . S
C568 O569 1.227 . S
C568 O578 1.265 . S
O569 C568 1.227 . S
N570 Co567 2.121 . S
N570 C572 1.375 . S
N570 C573 1.313 . S
C571 C572 1.338 . S
C571 N574 1.377 . S
C571 H591 0.930 . S
C572 N570 1.375 . S
C572 C571 1.338 . S
C572 H576 0.931 . S
C573 N570 1.313 . S
C573 N574 1.344 . S
C573 H577 0.930 . S
N574 C571 1.377 . S
N574 C573 1.344 . S
O575 Co567 2.055 . S
O575 C579 1.253 . S
H576 C572 0.931 . S
H577 C573 0.930 . S
O578 Co567 2.039 . S
O578 C568 1.265 . S
C579 O575 1.253 . S
C579 O580 1.227 . S
O580 C579 1.227 . S
N581 Co567 2.140 . S
N581 C584 1.346 . S
N581 C585 1.345 . S
C582 C583 1.387 . S
C582 C586 1.391 . S
C583 C582 1.387 . S
C583 C584 1.369 . S
C583 H592 0.929 . S
C584 N581 1.346 . S
C584 C583 1.369 . S
C584 H587 0.928 . S
C585 N581 1.345 . S
C585 C586 1.371 . S
C585 H588 0.931 . S
C586 C582 1.391 . S
C586 C585 1.371 . S
C586 H593 0.930 . S
H587 C584 0.928 . S
H588 C585 0.931 . S
H589 C565 0.930 . S
H590 C562 0.930 1_556 S
H591 C571 0.930 . S
H592 C583 0.929 . S
H593 C586 0.930 . S
H594 C602 0.950 . S
H595 C607 0.950 . S
H596 C604 0.950 . S
H597 C606 0.950 . S
H598 C608 0.950 . S
H599 C610 0.950 . S
H600 C612 0.950 . S
H601 C613 0.950 . S
C602 H594 0.950 . S
C602 C603 1.386 . S
C602 C604 1.391 . S
C603 C602 1.386 . S
C603 C607 1.393 . S
C604 H596 0.950 . S
C604 C602 1.391 . S
C604 C605 1.400 . S
C605 C604 1.400 . S
C605 C606 1.398 . S
C605 C611 1.491 . S
C606 H597 0.950 . S
C606 C605 1.398 . S
C606 C607 1.391 . S
C607 H595 0.950 . S
C607 C603 1.393 . S
C607 C606 1.391 . S
C608 H598 0.950 . S
C608 C609 1.386 . S
C608 C610 1.391 . S
C609 C608 1.386 . S
C609 C613 1.393 . S
C610 H599 0.950 . S
C610 C608 1.391 . S
C610 C611 1.400 . S
C611 C605 1.491 . S
C611 C610 1.400 . S
C611 C612 1.398 . S
C612 H600 0.950 . S
C612 C611 1.398 . S
C612 C613 1.391 . S
C613 H601 0.950 . S
C613 C609 1.393 . S
C613 C612 1.391 . S
H614 C622 0.950 . S
H615 C627 0.950 . S
H616 C624 0.950 . S
H617 C626 0.950 . S
H618 C628 0.950 . S
H619 C630 0.950 . S
H620 C632 0.950 . S
H621 C633 0.950 . S
C622 H614 0.950 . S
C622 C623 1.386 . S
C622 C624 1.391 . S
C623 C622 1.386 . S
C623 C627 1.393 . S
C624 H616 0.950 . S
C624 C622 1.391 . S
C624 C625 1.400 . S
C625 C624 1.400 . S
C625 C626 1.398 . S
C625 C631 1.491 1_545 S
C626 H617 0.950 . S
C626 C625 1.398 . S
C626 C627 1.391 . S
C627 H615 0.950 . S
C627 C623 1.393 . S
C627 C626 1.391 . S
C628 H618 0.950 . S
C628 C629 1.386 . S
C628 C630 1.391 . S
C629 C628 1.386 . S
C629 C633 1.393 . S
C630 H619 0.950 . S
C630 C628 1.391 . S
C630 C631 1.400 . S
C631 C625 1.491 1_565 S
C631 C630 1.400 . S
C631 C632 1.398 . S
C632 H620 0.950 . S
C632 C631 1.398 . S
C632 C633 1.391 . S
C633 H621 0.950 . S
C633 C629 1.393 . S
C633 C632 1.391 . S
H634 C642 0.950 . S
H635 C647 0.950 . S
H636 C644 0.950 . S
H637 C646 0.950 . S
H638 C648 0.950 . S
H639 C650 0.950 . S
H640 C652 0.950 . S
H641 C653 0.950 . S
C642 H634 0.950 . S
C642 C643 1.386 . S
C642 C644 1.391 . S
C643 C642 1.386 . S
C643 C647 1.393 . S
C644 H636 0.950 . S
C644 C642 1.391 . S
C644 C645 1.400 . S
C645 C644 1.400 . S
C645 C646 1.398 . S
C645 C651 1.491 1_655 S
C646 H637 0.950 . S
C646 C645 1.398 . S
C646 C647 1.391 . S
C647 H635 0.950 . S
C647 C643 1.393 . S
C647 C646 1.391 . S
C648 H638 0.950 . S
C648 C649 1.386 . S
C648 C650 1.391 . S
C649 C648 1.386 . S
C649 C653 1.393 . S
C650 H639 0.950 . S
C650 C648 1.391 . S
C650 C651 1.400 . S
C651 C645 1.491 1_455 S
C651 C650 1.400 . S
C651 C652 1.398 . S
C652 H640 0.950 . S
C652 C651 1.398 . S
C652 C653 1.391 . S
C653 H641 0.950 . S
C653 C649 1.393 . S
C653 C652 1.391 . S
H654 C662 0.950 . S
H655 C667 0.950 . S
H656 C664 0.950 . S
H657 C666 0.950 . S
H658 C668 0.950 . S
H659 C670 0.950 . S
H660 C672 0.950 . S
H661 C673 0.950 . S
C662 H654 0.950 . S
C662 C663 1.386 . S
C662 C664 1.391 . S
C663 C662 1.386 . S
C663 C667 1.393 . S
C664 H656 0.950 . S
C664 C662 1.391 . S
C664 C665 1.400 . S
C665 C664 1.400 . S
C665 C666 1.398 . S
C665 C671 1.491 . S
C666 H657 0.950 . S
C666 C665 1.398 . S
C666 C667 1.391 . S
C667 H655 0.950 . S
C667 C663 1.393 . S
C667 C666 1.391 . S
C668 H658 0.950 . S
C668 C669 1.386 . S
C668 C670 1.391 . S
C669 C668 1.386 . S
C669 C673 1.393 . S
C670 H659 0.950 . S
C670 C668 1.391 . S
C670 C671 1.400 . S
C671 C665 1.491 . S
C671 C670 1.400 . S
C671 C672 1.398 . S
C672 H660 0.950 . S
C672 C671 1.398 . S
C672 C673 1.391 . S
C673 H661 0.950 . S
C673 C669 1.393 . S
C673 C672 1.391 . S
H674 C682 0.950 . S
H675 C687 0.950 . S
H676 C684 0.950 . S
H677 C686 0.950 . S
H678 C688 0.950 . S
H679 C690 0.950 . S
H680 C692 0.950 . S
H681 C693 0.950 . S
C682 H674 0.950 . S
C682 C683 1.386 . S
C682 C684 1.391 . S
C683 C682 1.386 . S
C683 C687 1.393 . S
C684 H676 0.950 . S
C684 C682 1.391 . S
C684 C685 1.400 . S
C685 C684 1.400 . S
C685 C686 1.398 . S
C685 C691 1.491 1_545 S
C686 H677 0.950 . S
C686 C685 1.398 . S
C686 C687 1.391 . S
C687 H675 0.950 . S
C687 C683 1.393 . S
C687 C686 1.391 . S
C688 H678 0.950 . S
C688 C689 1.386 . S
C688 C690 1.391 . S
C689 C688 1.386 . S
C689 C693 1.393 . S
C690 H679 0.950 . S
C690 C688 1.391 . S
C690 C691 1.400 . S
C691 C685 1.491 1_565 S
C691 C690 1.400 . S
C691 C692 1.398 . S
C692 H680 0.950 . S
C692 C691 1.398 . S
C692 C693 1.391 . S
C693 H681 0.950 . S
C693 C689 1.393 . S
C693 C692 1.391 . S
H694 C702 0.950 . S
H695 C707 0.950 . S
H696 C704 0.950 . S
H697 C706 0.950 . S
H698 C708 0.950 . S
H699 C710 0.950 . S
H700 C712 0.950 . S
H701 C713 0.950 . S
C702 H694 0.950 . S
C702 C703 1.386 . S
C702 C704 1.391 . S
C703 C702 1.386 . S
C703 C707 1.393 . S
C704 H696 0.950 . S
C704 C702 1.391 . S
C704 C705 1.400 . S
C705 C704 1.400 . S
C705 C706 1.398 . S
C705 C711 1.491 1_655 S
C706 H697 0.950 . S
C706 C705 1.398 . S
C706 C707 1.391 . S
C707 H695 0.950 . S
C707 C703 1.393 . S
C707 C706 1.391 . S
C708 H698 0.950 . S
C708 C709 1.386 . S
C708 C710 1.391 . S
C709 C708 1.386 . S
C709 C713 1.393 . S
C710 H699 0.950 . S
C710 C708 1.391 . S
C710 C711 1.400 . S
C711 C705 1.491 1_455 S
C711 C710 1.400 . S
C711 C712 1.398 . S
C712 H700 0.950 . S
C712 C711 1.398 . S
C712 C713 1.391 . S
C713 H701 0.950 . S
C713 C709 1.393 . S
C713 C712 1.391 . S
H714 C722 0.950 . S
H715 C727 0.950 . S
H716 C724 0.950 . S
H717 C726 0.950 . S
H718 C728 0.950 . S
H719 C730 0.950 . S
H720 C732 0.950 . S
H721 C733 0.950 . S
C722 H714 0.950 . S
C722 C723 1.386 . S
C722 C724 1.391 . S
C723 C722 1.386 . S
C723 C727 1.393 . S
C724 H716 0.950 . S
C724 C722 1.391 . S
C724 C725 1.400 . S
C725 C724 1.400 . S
C725 C726 1.398 . S
C725 C731 1.491 . S
C726 H717 0.950 . S
C726 C725 1.398 . S
C726 C727 1.391 . S
C727 H715 0.950 . S
C727 C723 1.393 . S
C727 C726 1.391 . S
C728 H718 0.950 . S
C728 C729 1.386 . S
C728 C730 1.391 . S
C729 C728 1.386 . S
C729 C733 1.393 . S
C730 H719 0.950 . S
C730 C728 1.391 . S
C730 C731 1.400 . S
C731 C725 1.491 . S
C731 C730 1.400 . S
C731 C732 1.398 . S
C732 H720 0.950 . S
C732 C731 1.398 . S
C732 C733 1.391 . S
C733 H721 0.950 . S
C733 C729 1.393 . S
C733 C732 1.391 . S
H734 C742 0.950 . S
H735 C747 0.950 . S
H736 C744 0.950 . S
H737 C746 0.950 . S
H738 C748 0.950 . S
H739 C750 0.950 . S
H740 C752 0.950 . S
H741 C753 0.950 . S
C742 H734 0.950 . S
C742 C743 1.386 . S
C742 C744 1.391 . S
C743 C742 1.386 . S
C743 C747 1.393 . S
C744 H736 0.950 . S
C744 C742 1.391 . S
C744 C745 1.400 . S
C745 C744 1.400 . S
C745 C746 1.398 . S
C745 C751 1.491 . S
C746 H737 0.950 . S
C746 C745 1.398 . S
C746 C747 1.391 . S
C747 H735 0.950 . S
C747 C743 1.393 . S
C747 C746 1.391 . S
C748 H738 0.950 . S
C748 C749 1.386 . S
C748 C750 1.391 . S
C749 C748 1.386 . S
C749 C753 1.393 . S
C750 H739 0.950 . S
C750 C748 1.391 . S
C750 C751 1.400 . S
C751 C745 1.491 . S
C751 C750 1.400 . S
C751 C752 1.398 . S
C752 H740 0.950 . S
C752 C751 1.398 . S
C752 C753 1.391 . S
C753 H741 0.950 . S
C753 C749 1.393 . S
C753 C752 1.391 . S
H754 C762 0.950 . S
H755 C767 0.950 . S
H756 C764 0.950 . S
H757 C766 0.950 . S
H758 C768 0.950 . S
H759 C770 0.950 . S
H760 C772 0.950 . S
H761 C773 0.950 . S
C762 H754 0.950 . S
C762 C763 1.386 . S
C762 C764 1.391 . S
C763 C762 1.386 . S
C763 C767 1.393 . S
C764 H756 0.950 . S
C764 C762 1.391 . S
C764 C765 1.400 . S
C765 C764 1.400 . S
C765 C766 1.398 . S
C765 C771 1.491 . S
C766 H757 0.950 . S
C766 C765 1.398 . S
C766 C767 1.391 . S
C767 H755 0.950 . S
C767 C763 1.393 . S
C767 C766 1.391 . S
C768 H758 0.950 . S
C768 C769 1.386 . S
C768 C770 1.391 . S
C769 C768 1.386 . S
C769 C773 1.393 . S
C770 H759 0.950 . S
C770 C768 1.391 . S
C770 C771 1.400 . S
C771 C765 1.491 . S
C771 C770 1.400 . S
C771 C772 1.398 . S
C772 H760 0.950 . S
C772 C771 1.398 . S
C772 C773 1.391 . S
C773 H761 0.950 . S
C773 C769 1.393 . S
C773 C772 1.391 . S
H774 C782 0.950 . S
H775 C787 0.950 . S
H776 C784 0.950 . S
H777 C786 0.950 . S
H778 C788 0.950 . S
H779 C790 0.950 . S
H780 C792 0.950 . S
H781 C793 0.950 . S
C782 H774 0.950 . S
C782 C783 1.386 . S
C782 C784 1.391 . S
C783 C782 1.386 . S
C783 C787 1.393 . S
C784 H776 0.950 . S
C784 C782 1.391 . S
C784 C785 1.400 . S
C785 C784 1.400 . S
C785 C786 1.398 . S
C785 C791 1.491 . S
C786 H777 0.950 . S
C786 C785 1.398 . S
C786 C787 1.391 . S
C787 H775 0.950 . S
C787 C783 1.393 . S
C787 C786 1.391 . S
C788 H778 0.950 . S
C788 C789 1.386 . S
C788 C790 1.391 . S
C789 C788 1.386 . S
C789 C793 1.393 . S
C790 H779 0.950 . S
C790 C788 1.391 . S
C790 C791 1.400 . S
C791 C785 1.491 . S
C791 C790 1.400 . S
C791 C792 1.398 . S
C792 H780 0.950 . S
C792 C791 1.398 . S
C792 C793 1.391 . S
C793 H781 0.950 . S
C793 C789 1.393 . S
C793 C792 1.391 . S
H794 C802 0.950 . S
H795 C807 0.950 . S
H796 C804 0.950 . S
H797 C806 0.950 . S
H798 C808 0.950 . S
H799 C810 0.950 . S
H800 C812 0.950 . S
H801 C813 0.950 . S
C802 H794 0.950 . S
C802 C803 1.386 . S
C802 C804 1.391 . S
C803 C802 1.386 . S
C803 C807 1.393 . S
C804 H796 0.950 . S
C804 C802 1.391 . S
C804 C805 1.400 . S
C805 C804 1.400 . S
C805 C806 1.398 . S
C805 C811 1.491 . S
C806 H797 0.950 . S
C806 C805 1.398 . S
C806 C807 1.391 . S
C807 H795 0.950 . S
C807 C803 1.393 . S
C807 C806 1.391 . S
C808 H798 0.950 . S
C808 C809 1.386 . S
C808 C810 1.391 . S
C809 C808 1.386 . S
C809 C813 1.393 . S
C810 H799 0.950 . S
C810 C808 1.391 . S
C810 C811 1.400 . S
C811 C805 1.491 . S
C811 C810 1.400 . S
C811 C812 1.398 . S
C812 H800 0.950 . S
C812 C811 1.398 . S
C812 C813 1.391 . S
C813 H801 0.950 . S
C813 C809 1.393 . S
C813 C812 1.391 . S
H814 C822 0.950 . S
H815 C827 0.950 . S
H816 C824 0.950 . S
H817 C826 0.950 . S
H818 C828 0.950 . S
H819 C830 0.950 . S
H820 C832 0.950 . S
H821 C833 0.950 . S
C822 H814 0.950 . S
C822 C823 1.386 . S
C822 C824 1.391 . S
C823 C822 1.386 . S
C823 C827 1.393 . S
C824 H816 0.950 . S
C824 C822 1.391 . S
C824 C825 1.400 . S
C825 C824 1.400 . S
C825 C826 1.398 . S
C825 C831 1.491 . S
C826 H817 0.950 . S
C826 C825 1.398 . S
C826 C827 1.391 . S
C827 H815 0.950 . S
C827 C823 1.393 . S
C827 C826 1.391 . S
C828 H818 0.950 . S
C828 C829 1.386 . S
C828 C830 1.391 . S
C829 C828 1.386 . S
C829 C833 1.393 . S
C830 H819 0.950 . S
C830 C828 1.391 . S
C830 C831 1.400 . S
C831 C825 1.491 . S
C831 C830 1.400 . S
C831 C832 1.398 . S
C832 H820 0.950 . S
C832 C831 1.398 . S
C832 C833 1.391 . S
C833 H821 0.950 . S
C833 C829 1.393 . S
C833 C832 1.391 . S
H834 C842 0.950 . S
H835 C847 0.950 . S
H836 C844 0.950 . S
H837 C846 0.950 . S
H838 C848 0.950 . S
H839 C850 0.950 . S
H840 C852 0.950 . S
H841 C853 0.950 . S
C842 H834 0.950 . S
C842 C843 1.386 . S
C842 C844 1.391 . S
C843 C842 1.386 . S
C843 C847 1.393 . S
C844 H836 0.950 . S
C844 C842 1.391 . S
C844 C845 1.400 . S
C845 C844 1.400 . S
C845 C846 1.398 . S
C845 C851 1.491 . S
C846 H837 0.950 . S
C846 C845 1.398 . S
C846 C847 1.391 . S
C847 H835 0.950 . S
C847 C843 1.393 . S
C847 C846 1.391 . S
C848 H838 0.950 . S
C848 C849 1.386 . S
C848 C850 1.391 . S
C849 C848 1.386 . S
C849 C853 1.393 . S
C850 H839 0.950 . S
C850 C848 1.391 . S
C850 C851 1.400 . S
C851 C845 1.491 . S
C851 C850 1.400 . S
C851 C852 1.398 . S
C852 H840 0.950 . S
C852 C851 1.398 . S
C852 C853 1.391 . S
C853 H841 0.950 . S
C853 C849 1.393 . S
C853 C852 1.391 . S
H854 C862 0.950 . S
H855 C867 0.950 . S
H856 C864 0.950 . S
H857 C866 0.950 . S
H858 C868 0.950 . S
H859 C870 0.950 . S
H860 C872 0.950 . S
H861 C873 0.950 . S
C862 H854 0.950 . S
C862 C863 1.386 . S
C862 C864 1.391 . S
C863 C862 1.386 . S
C863 C867 1.393 . S
C864 H856 0.950 . S
C864 C862 1.391 . S
C864 C865 1.400 . S
C865 C864 1.400 . S
C865 C866 1.398 . S
C865 C871 1.491 . S
C866 H857 0.950 . S
C866 C865 1.398 . S
C866 C867 1.391 . S
C867 H855 0.950 . S
C867 C863 1.393 . S
C867 C866 1.391 . S
C868 H858 0.950 . S
C868 C869 1.386 . S
C868 C870 1.391 . S
C869 C868 1.386 . S
C869 C873 1.393 . S
C870 H859 0.950 . S
C870 C868 1.391 . S
C870 C871 1.400 . S
C871 C865 1.491 . S
C871 C870 1.400 . S
C871 C872 1.398 . S
C872 H860 0.950 . S
C872 C871 1.398 . S
C872 C873 1.391 . S
C873 H861 0.950 . S
C873 C869 1.393 . S
C873 C872 1.391 . S
H874 C882 0.950 . S
H875 C887 0.950 . S
H876 C884 0.950 . S
H877 C886 0.950 . S
H878 C888 0.950 . S
H879 C890 0.950 . S
H880 C892 0.950 . S
H881 C893 0.950 . S
C882 H874 0.950 . S
C882 C883 1.386 . S
C882 C884 1.391 . S
C883 C882 1.386 . S
C883 C887 1.393 . S
C884 H876 0.950 . S
C884 C882 1.391 . S
C884 C885 1.400 . S
C885 C884 1.400 . S
C885 C886 1.398 . S
C885 C891 1.491 . S
C886 H877 0.950 . S
C886 C885 1.398 . S
C886 C887 1.391 . S
C887 H875 0.950 . S
C887 C883 1.393 . S
C887 C886 1.391 . S
C888 H878 0.950 . S
C888 C889 1.386 . S
C888 C890 1.391 . S
C889 C888 1.386 . S
C889 C893 1.393 . S
C890 H879 0.950 . S
C890 C888 1.391 . S
C890 C891 1.400 . S
C891 C885 1.491 . S
C891 C890 1.400 . S
C891 C892 1.398 . S
C892 H880 0.950 . S
C892 C891 1.398 . S
C892 C893 1.391 . S
C893 H881 0.950 . S
C893 C889 1.393 . S
C893 C892 1.391 . S
H894 C902 0.950 . S
H895 C907 0.950 . S
H896 C904 0.950 . S
H897 C906 0.950 . S
H898 C908 0.950 . S
H899 C910 0.950 . S
H900 C912 0.950 . S
H901 C913 0.950 . S
C902 H894 0.950 . S
C902 C903 1.386 . S
C902 C904 1.391 . S
C903 C902 1.386 . S
C903 C907 1.393 . S
C904 H896 0.950 . S
C904 C902 1.391 . S
C904 C905 1.400 . S
C905 C904 1.400 . S
C905 C906 1.398 . S
C905 C911 1.491 . S
C906 H897 0.950 . S
C906 C905 1.398 . S
C906 C907 1.391 . S
C907 H895 0.950 . S
C907 C903 1.393 . S
C907 C906 1.391 . S
C908 H898 0.950 . S
C908 C909 1.386 . S
C908 C910 1.391 . S
C909 C908 1.386 . S
C909 C913 1.393 . S
C910 H899 0.950 . S
C910 C908 1.391 . S
C910 C911 1.400 . S
C911 C905 1.491 . S
C911 C910 1.400 . S
C911 C912 1.398 . S
C912 H900 0.950 . S
C912 C911 1.398 . S
C912 C913 1.391 . S
C913 H901 0.950 . S
C913 C909 1.393 . S
C913 C912 1.391 . S
H914 C922 0.950 . S
H915 C927 0.950 . S
H916 C924 0.950 . S
H917 C926 0.950 . S
H918 C928 0.950 . S
H919 C930 0.950 . S
H920 C932 0.950 . S
H921 C933 0.950 . S
C922 H914 0.950 . S
C922 C923 1.386 . S
C922 C924 1.391 . S
C923 C922 1.386 . S
C923 C927 1.393 . S
C924 H916 0.950 . S
C924 C922 1.391 . S
C924 C925 1.400 . S
C925 C924 1.400 . S
C925 C926 1.398 . S
C925 C931 1.491 . S
C926 H917 0.950 . S
C926 C925 1.398 . S
C926 C927 1.391 . S
C927 H915 0.950 . S
C927 C923 1.393 . S
C927 C926 1.391 . S
C928 H918 0.950 . S
C928 C929 1.386 . S
C928 C930 1.391 . S
C929 C928 1.386 . S
C929 C933 1.393 . S
C930 H919 0.950 . S
C930 C928 1.391 . S
C930 C931 1.400 . S
C931 C925 1.491 . S
C931 C930 1.400 . S
C931 C932 1.398 . S
C932 H920 0.950 . S
C932 C931 1.398 . S
C932 C933 1.391 . S
C933 H921 0.950 . S
C933 C929 1.393 . S
C933 C932 1.391 . S
H934 C942 0.950 . S
H935 C947 0.950 . S
H936 C944 0.950 . S
H937 C946 0.950 . S
H938 C948 0.950 . S
H939 C950 0.950 . S
H940 C952 0.950 . S
H941 C953 0.950 . S
C942 H934 0.950 . S
C942 C943 1.386 . S
C942 C944 1.391 . S
C943 C942 1.386 . S
C943 C947 1.393 . S
C944 H936 0.950 . S
C944 C942 1.391 . S
C944 C945 1.400 . S
C945 C944 1.400 . S
C945 C946 1.398 . S
C945 C951 1.491 . S
C946 H937 0.950 . S
C946 C945 1.398 . S
C946 C947 1.391 . S
C947 H935 0.950 . S
C947 C943 1.393 . S
C947 C946 1.391 . S
C948 H938 0.950 . S
C948 C949 1.386 . S
C948 C950 1.391 . S
C949 C948 1.386 . S
C949 C953 1.393 . S
C950 H939 0.950 . S
C950 C948 1.391 . S
C950 C951 1.400 . S
C951 C945 1.491 . S
C951 C950 1.400 . S
C951 C952 1.398 . S
C952 H940 0.950 . S
C952 C951 1.398 . S
C952 C953 1.391 . S
C953 H941 0.950 . S
C953 C949 1.393 . S
C953 C952 1.391 . S
H954 C962 0.950 . S
H955 C967 0.950 . S
H956 C964 0.950 . S
H957 C966 0.950 . S
H958 C968 0.950 . S
H959 C970 0.950 . S
H960 C972 0.950 . S
H961 C973 0.950 . S
C962 H954 0.950 . S
C962 C963 1.386 . S
C962 C964 1.391 . S
C963 C962 1.386 . S
C963 C967 1.393 . S
C964 H956 0.950 . S
C964 C962 1.391 . S
C964 C965 1.400 . S
C965 C964 1.400 . S
C965 C966 1.398 . S
C965 C971 1.491 . S
C966 H957 0.950 . S
C966 C965 1.398 . S
C966 C967 1.391 . S
C967 H955 0.950 . S
C967 C963 1.393 . S
C967 C966 1.391 . S
C968 H958 0.950 . S
C968 C969 1.386 . S
C968 C970 1.391 . S
C969 C968 1.386 . S
C969 C973 1.393 . S
C970 H959 0.950 . S
C970 C968 1.391 . S
C970 C971 1.400 . S
C971 C965 1.491 . S
C971 C970 1.400 . S
C971 C972 1.398 . S
C972 H960 0.950 . S
C972 C971 1.398 . S
C972 C973 1.391 . S
C973 H961 0.950 . S
C973 C969 1.393 . S
C973 C972 1.391 . S
H974 C982 0.950 . S
H975 C987 0.950 . S
H976 C984 0.950 . S
H977 C986 0.950 . S
H978 C988 0.950 . S
H979 C990 0.950 . S
H980 C992 0.950 . S
H981 C993 0.950 . S
C982 H974 0.950 . S
C982 C983 1.386 . S
C982 C984 1.391 . S
C983 C982 1.386 . S
C983 C987 1.393 . S
C984 H976 0.950 . S
C984 C982 1.391 . S
C984 C985 1.400 . S
C985 C984 1.400 . S
C985 C986 1.398 . S
C985 C991 1.491 . S
C986 H977 0.950 . S
C986 C985 1.398 . S
C986 C987 1.391 . S
C987 H975 0.950 . S
C987 C983 1.393 . S
C987 C986 1.391 . S
C988 H978 0.950 . S
C988 C989 1.386 . S
C988 C990 1.391 . S
C989 C988 1.386 . S
C989 C993 1.393 . S
C990 H979 0.950 . S
C990 C988 1.391 . S
C990 C991 1.400 . S
C991 C985 1.491 . S
C991 C990 1.400 . S
C991 C992 1.398 . S
C992 H980 0.950 . S
C992 C991 1.398 . S
C992 C993 1.391 . S
C993 H981 0.950 . S
C993 C989 1.393 . S
C993 C992 1.391 . S
H994 C1002 0.950 . S
H995 C1007 0.950 . S
H996 C1004 0.950 . S
H997 C1006 0.950 . S
H998 C1008 0.950 . S
H999 C1010 0.950 . S
H1000 C1012 0.950 . S
H1001 C1013 0.950 . S
C1002 H994 0.950 . S
C1002 C1003 1.386 . S
C1002 C1004 1.391 . S
C1003 C1002 1.386 . S
C1003 C1007 1.393 . S
C1004 H996 0.950 . S
C1004 C1002 1.391 . S
C1004 C1005 1.400 . S
C1005 C1004 1.400 . S
C1005 C1006 1.398 . S
C1005 C1011 1.491 . S
C1006 H997 0.950 . S
C1006 C1005 1.398 . S
C1006 C1007 1.391 . S
C1007 H995 0.950 . S
C1007 C1003 1.393 . S
C1007 C1006 1.391 . S
C1008 H998 0.950 . S
C1008 C1009 1.386 . S
C1008 C1010 1.391 . S
C1009 C1008 1.386 . S
C1009 C1013 1.393 . S
C1010 H999 0.950 . S
C1010 C1008 1.391 . S
C1010 C1011 1.400 . S
C1011 C1005 1.491 . S
C1011 C1010 1.400 . S
C1011 C1012 1.398 . S
C1012 H1000 0.950 . S
C1012 C1011 1.398 . S
C1012 C1013 1.391 . S
C1013 H1001 0.950 . S
C1013 C1009 1.393 . S
C1013 C1012 1.391 . S
H1014 C1022 0.950 . S
H1015 C1027 0.950 . S
H1016 C1024 0.950 . S
H1017 C1026 0.950 . S
H1018 C1028 0.950 . S
H1019 C1030 0.950 . S
H1020 C1032 0.950 . S
H1021 C1033 0.950 . S
C1022 H1014 0.950 . S
C1022 C1023 1.386 . S
C1022 C1024 1.391 . S
C1023 C1022 1.386 . S
C1023 C1027 1.393 . S
C1024 H1016 0.950 . S
C1024 C1022 1.391 . S
C1024 C1025 1.400 . S
C1025 C1024 1.400 . S
C1025 C1026 1.398 . S
C1025 C1031 1.491 . S
C1026 H1017 0.950 . S
C1026 C1025 1.398 . S
C1026 C1027 1.391 . S
C1027 H1015 0.950 . S
C1027 C1023 1.393 . S
C1027 C1026 1.391 . S
C1028 H1018 0.950 . S
C1028 C1029 1.386 . S
C1028 C1030 1.391 . S
C1029 C1028 1.386 . S
C1029 C1033 1.393 . S
C1030 H1019 0.950 . S
C1030 C1028 1.391 . S
C1030 C1031 1.400 . S
C1031 C1025 1.491 . S
C1031 C1030 1.400 . S
C1031 C1032 1.398 . S
C1032 H1020 0.950 . S
C1032 C1031 1.398 . S
C1032 C1033 1.391 . S
C1033 H1021 0.950 . S
C1033 C1029 1.393 . S
C1033 C1032 1.391 . S
H1034 C1042 0.950 . S
H1035 C1047 0.950 . S
H1036 C1044 0.950 . S
H1037 C1046 0.950 . S
H1038 C1048 0.950 . S
H1039 C1050 0.950 . S
H1040 C1052 0.950 . S
H1041 C1053 0.950 . S
C1042 H1034 0.950 . S
C1042 C1043 1.386 . S
C1042 C1044 1.391 . S
C1043 C1042 1.386 . S
C1043 C1047 1.393 . S
C1044 H1036 0.950 . S
C1044 C1042 1.391 . S
C1044 C1045 1.400 . S
C1045 C1044 1.400 . S
C1045 C1046 1.398 . S
C1045 C1051 1.491 . S
C1046 H1037 0.950 . S
C1046 C1045 1.398 . S
C1046 C1047 1.391 . S
C1047 H1035 0.950 . S
C1047 C1043 1.393 . S
C1047 C1046 1.391 . S
C1048 H1038 0.950 . S
C1048 C1049 1.386 . S
C1048 C1050 1.391 . S
C1049 C1048 1.386 . S
C1049 C1053 1.393 . S
C1050 H1039 0.950 . S
C1050 C1048 1.391 . S
C1050 C1051 1.400 . S
C1051 C1045 1.491 . S
C1051 C1050 1.400 . S
C1051 C1052 1.398 . S
C1052 H1040 0.950 . S
C1052 C1051 1.398 . S
C1052 C1053 1.391 . S
C1053 H1041 0.950 . S
C1053 C1049 1.393 . S
C1053 C1052 1.391 . S
H1054 C1062 0.950 . S
H1055 C1067 0.950 . S
H1056 C1064 0.950 . S
H1057 C1066 0.950 . S
H1058 C1068 0.950 . S
H1059 C1070 0.950 . S
H1060 C1072 0.950 . S
H1061 C1073 0.950 . S
C1062 H1054 0.950 . S
C1062 C1063 1.386 . S
C1062 C1064 1.391 . S
C1063 C1062 1.386 . S
C1063 C1067 1.393 . S
C1064 H1056 0.950 . S
C1064 C1062 1.391 . S
C1064 C1065 1.400 . S
C1065 C1064 1.400 . S
C1065 C1066 1.398 . S
C1065 C1071 1.491 . S
C1066 H1057 0.950 . S
C1066 C1065 1.398 . S
C1066 C1067 1.391 . S
C1067 H1055 0.950 . S
C1067 C1063 1.393 . S
C1067 C1066 1.391 . S
C1068 H1058 0.950 . S
C1068 C1069 1.386 . S
C1068 C1070 1.391 . S
C1069 C1068 1.386 . S
C1069 C1073 1.393 . S
C1070 H1059 0.950 . S
C1070 C1068 1.391 . S
C1070 C1071 1.400 . S
C1071 C1065 1.491 . S
C1071 C1070 1.400 . S
C1071 C1072 1.398 . S
C1072 H1060 0.950 . S
C1072 C1071 1.398 . S
C1072 C1073 1.391 . S
C1073 H1061 0.950 . S
C1073 C1069 1.393 . S
C1073 C1072 1.391 . S
H1074 C1082 0.950 . S
H1075 C1087 0.950 1_556 S
H1076 C1084 0.950 . S
H1077 C1086 0.950 . S
H1078 C1088 0.950 . S
H1079 C1090 0.950 . S
H1080 C1092 0.950 . S
H1081 C1093 0.950 1_554 S
C1082 H1074 0.950 . S
C1082 C1083 1.386 . S
C1082 C1084 1.391 . S
C1083 C1082 1.386 . S
C1083 C1087 1.393 . S
C1084 H1076 0.950 . S
C1084 C1082 1.391 . S
C1084 C1085 1.400 . S
C1085 C1084 1.400 . S
C1085 C1086 1.398 1_554 S
C1085 C1091 1.491 1_454 S
C1086 H1077 0.950 . S
C1086 C1085 1.398 1_556 S
C1086 C1087 1.391 1_556 S
C1087 H1075 0.950 1_554 S
C1087 C1083 1.393 . S
C1087 C1086 1.391 1_554 S
C1088 H1078 0.950 . S
C1088 C1089 1.386 . S
C1088 C1090 1.391 . S
C1089 C1088 1.386 . S
C1089 C1093 1.393 . S
C1090 H1079 0.950 . S
C1090 C1088 1.391 . S
C1090 C1091 1.400 . S
C1091 C1085 1.491 1_656 S
C1091 C1090 1.400 . S
C1091 C1092 1.398 1_556 S
C1092 H1080 0.950 . S
C1092 C1091 1.398 1_554 S
C1092 C1093 1.391 1_554 S
C1093 H1081 0.950 1_556 S
C1093 C1089 1.393 . S
C1093 C1092 1.391 1_556 S
H1094 C1102 0.950 1_556 S
H1095 C1107 0.950 . S
H1096 C1104 0.950 . S
H1097 C1106 0.950 . S
H1098 C1108 0.950 1_554 S
H1099 C1110 0.950 . S
H1100 C1112 0.950 . S
H1101 C1113 0.950 . S
C1102 H1094 0.950 1_554 S
C1102 C1103 1.386 . S
C1102 C1104 1.391 1_554 S
C1103 C1102 1.386 . S
C1103 C1107 1.393 . S
C1104 H1096 0.950 . S
C1104 C1102 1.391 1_556 S
C1104 C1105 1.400 1_556 S
C1105 C1104 1.400 1_554 S
C1105 C1106 1.398 . S
C1105 C1111 1.491 1_554 S
C1106 H1097 0.950 . S
C1106 C1105 1.398 . S
C1106 C1107 1.391 . S
C1107 H1095 0.950 . S
C1107 C1103 1.393 . S
C1107 C1106 1.391 . S
C1108 H1098 0.950 1_556 S
C1108 C1109 1.386 . S
C1108 C1110 1.391 1_556 S
C1109 C1108 1.386 . S
C1109 C1113 1.393 . S
C1110 H1099 0.950 . S
C1110 C1108 1.391 1_554 S
C1110 C1111 1.400 1_554 S
C1111 C1105 1.491 1_556 S
C1111 C1110 1.400 1_556 S
C1111 C1112 1.398 . S
C1112 H1100 0.950 . S
C1112 C1111 1.398 . S
C1112 C1113 1.391 . S
C1113 H1101 0.950 . S
C1113 C1109 1.393 . S
C1113 C1112 1.391 . S
H1114 C1122 0.950 . S
H1115 C1127 0.950 . S
H1116 C1124 0.950 . S
H1117 C1126 0.950 . S
H1118 C1128 0.950 . S
H1119 C1130 0.950 . S
H1120 C1132 0.950 . S
H1121 C1133 0.950 . S
C1122 H1114 0.950 . S
C1122 C1123 1.386 . S
C1122 C1124 1.391 . S
C1123 C1122 1.386 . S
C1123 C1127 1.393 1_556 S
C1124 H1116 0.950 . S
C1124 C1122 1.391 . S
C1124 C1125 1.400 . S
C1125 C1124 1.400 . S
C1125 C1126 1.398 1_556 S
C1125 C1131 1.491 1_546 S
C1126 H1117 0.950 . S
C1126 C1125 1.398 1_554 S
C1126 C1127 1.391 . S
C1127 H1115 0.950 . S
C1127 C1123 1.393 1_554 S
C1127 C1126 1.391 . S
C1128 H1118 0.950 . S
C1128 C1129 1.386 . S
C1128 C1130 1.391 . S
C1129 C1128 1.386 . S
C1129 C1133 1.393 1_554 S
C1130 H1119 0.950 . S
C1130 C1128 1.391 . S
C1130 C1131 1.400 . S
C1131 C1125 1.491 1_564 S
C1131 C1130 1.400 . S
C1131 C1132 1.398 1_554 S
C1132 H1120 0.950 . S
C1132 C1131 1.398 1_556 S
C1132 C1133 1.391 . S
C1133 H1121 0.950 . S
C1133 C1129 1.393 1_556 S
C1133 C1132 1.391 . S
H1134 C1142 0.950 . S
H1135 C1147 0.950 . S
H1136 C1144 0.950 . S
H1137 C1146 0.950 . S
H1138 C1148 0.950 . S
H1139 C1150 0.950 1_556 S
H1140 C1152 0.950 1_556 S
H1141 C1153 0.950 . S
C1142 H1134 0.950 . S
C1142 C1143 1.386 . S
C1142 C1144 1.391 . S
C1143 C1142 1.386 . S
C1143 C1147 1.393 . S
C1144 H1136 0.950 . S
C1144 C1142 1.391 . S
C1144 C1145 1.400 . S
C1145 C1144 1.400 . S
C1145 C1146 1.398 . S
C1145 C1151 1.491 . S
C1146 H1137 0.950 . S
C1146 C1145 1.398 . S
C1146 C1147 1.391 . S
C1147 H1135 0.950 . S
C1147 C1143 1.393 . S
C1147 C1146 1.391 . S
C1148 H1138 0.950 . S
C1148 C1149 1.386 . S
C1148 C1150 1.391 . S
C1149 C1148 1.386 . S
C1149 C1153 1.393 . S
C1150 H1139 0.950 1_554 S
C1150 C1148 1.391 . S
C1150 C1151 1.400 1_554 S
C1151 C1145 1.491 . S
C1151 C1150 1.400 1_556 S
C1151 C1152 1.398 1_556 S
C1152 H1140 0.950 1_554 S
C1152 C1151 1.398 1_554 S
C1152 C1153 1.391 . S
C1153 H1141 0.950 . S
C1153 C1149 1.393 . S
C1153 C1152 1.391 . S
H1154 C1162 0.950 . S
H1155 C1167 0.950 . S
H1156 C1164 0.950 . S
H1157 C1166 0.950 . S
H1158 C1168 0.950 . S
H1159 C1170 0.950 1_556 S
H1160 C1172 0.950 1_556 S
H1161 C1173 0.950 . S
C1162 H1154 0.950 . S
C1162 C1163 1.386 . S
C1162 C1164 1.391 . S
C1163 C1162 1.386 . S
C1163 C1167 1.393 . S
C1164 H1156 0.950 . S
C1164 C1162 1.391 . S
C1164 C1165 1.400 . S
C1165 C1164 1.400 . S
C1165 C1166 1.398 . S
C1165 C1171 1.491 . S
C1166 H1157 0.950 . S
C1166 C1165 1.398 . S
C1166 C1167 1.391 . S
C1167 H1155 0.950 . S
C1167 C1163 1.393 . S
C1167 C1166 1.391 . S
C1168 H1158 0.950 . S
C1168 C1169 1.386 . S
C1168 C1170 1.391 . S
C1169 C1168 1.386 . S
C1169 C1173 1.393 . S
C1170 H1159 0.950 1_554 S
C1170 C1168 1.391 . S
C1170 C1171 1.400 1_554 S
C1171 C1165 1.491 . S
C1171 C1170 1.400 1_556 S
C1171 C1172 1.398 1_556 S
C1172 H1160 0.950 1_554 S
C1172 C1171 1.398 1_554 S
C1172 C1173 1.391 . S
C1173 H1161 0.950 . S
C1173 C1169 1.393 . S
C1173 C1172 1.391 . S
H1174 C1182 0.950 . S
H1175 C1187 0.950 . S
H1176 C1184 0.950 . S
H1177 C1186 0.950 . S
H1178 C1188 0.950 . S
H1179 C1190 0.950 1_556 S
H1180 C1192 0.950 . S
H1181 C1193 0.950 . S
C1182 H1174 0.950 . S
C1182 C1183 1.386 . S
C1182 C1184 1.391 . S
C1183 C1182 1.386 . S
C1183 C1187 1.393 . S
C1184 H1176 0.950 . S
C1184 C1182 1.391 . S
C1184 C1185 1.400 . S
C1185 C1184 1.400 . S
C1185 C1186 1.398 . S
C1185 C1191 1.491 . S
C1186 H1177 0.950 . S
C1186 C1185 1.398 . S
C1186 C1187 1.391 . S
C1187 H1175 0.950 . S
C1187 C1183 1.393 . S
C1187 C1186 1.391 . S
C1188 H1178 0.950 . S
C1188 C1189 1.386 . S
C1188 C1190 1.391 . S
C1189 C1188 1.386 . S
C1189 C1193 1.393 . S
C1190 H1179 0.950 1_554 S
C1190 C1188 1.391 . S
C1190 C1191 1.400 1_554 S
C1191 C1185 1.491 . S
C1191 C1190 1.400 1_556 S
C1191 C1192 1.398 1_556 S
C1192 H1180 0.950 . S
C1192 C1191 1.398 1_554 S
C1192 C1193 1.391 . S
C1193 H1181 0.950 . S
C1193 C1189 1.393 . S
C1193 C1192 1.391 . S
H1194 C1202 0.950 . S
H1195 C1207 0.950 . S
H1196 C1204 0.950 1_554 S
H1197 C1206 0.950 1_554 S
H1198 C1208 0.950 . S
H1199 C1210 0.950 . S
H1200 C1212 0.950 . S
H1201 C1213 0.950 . S
C1202 H1194 0.950 . S
C1202 C1203 1.386 . S
C1202 C1204 1.391 . S
C1203 C1202 1.386 . S
C1203 C1207 1.393 . S
C1204 H1196 0.950 1_556 S
C1204 C1202 1.391 . S
C1204 C1205 1.400 1_556 S
C1205 C1204 1.400 1_554 S
C1205 C1206 1.398 1_554 S
C1205 C1211 1.491 . S
C1206 H1197 0.950 1_556 S
C1206 C1205 1.398 1_556 S
C1206 C1207 1.391 . S
C1207 H1195 0.950 . S
C1207 C1203 1.393 . S
C1207 C1206 1.391 . S
C1208 H1198 0.950 . S
C1208 C1209 1.386 . S
C1208 C1210 1.391 . S
C1209 C1208 1.386 . S
C1209 C1213 1.393 . S
C1210 H1199 0.950 . S
C1210 C1208 1.391 . S
C1210 C1211 1.400 . S
C1211 C1205 1.491 . S
C1211 C1210 1.400 . S
C1211 C1212 1.398 . S
C1212 H1200 0.950 . S
C1212 C1211 1.398 . S
C1212 C1213 1.391 . S
C1213 H1201 0.950 . S
C1213 C1209 1.393 . S
C1213 C1212 1.391 . S
H1214 C1222 0.950 . S
H1215 C1227 0.950 . S
H1216 C1224 0.950 1_554 S
H1217 C1226 0.950 1_554 S
H1218 C1228 0.950 . S
H1219 C1230 0.950 . S
H1220 C1232 0.950 . S
H1221 C1233 0.950 . S
C1222 H1214 0.950 . S
C1222 C1223 1.386 . S
C1222 C1224 1.391 . S
C1223 C1222 1.386 . S
C1223 C1227 1.393 . S
C1224 H1216 0.950 1_556 S
C1224 C1222 1.391 . S
C1224 C1225 1.400 1_556 S
C1225 C1224 1.400 1_554 S
C1225 C1226 1.398 1_554 S
C1225 C1231 1.491 . S
C1226 H1217 0.950 1_556 S
C1226 C1225 1.398 1_556 S
C1226 C1227 1.391 . S
C1227 H1215 0.950 . S
C1227 C1223 1.393 . S
C1227 C1226 1.391 . S
C1228 H1218 0.950 . S
C1228 C1229 1.386 . S
C1228 C1230 1.391 . S
C1229 C1228 1.386 . S
C1229 C1233 1.393 . S
C1230 H1219 0.950 . S
C1230 C1228 1.391 . S
C1230 C1231 1.400 . S
C1231 C1225 1.491 . S
C1231 C1230 1.400 . S
C1231 C1232 1.398 . S
C1232 H1220 0.950 . S
C1232 C1231 1.398 . S
C1232 C1233 1.391 . S
C1233 H1221 0.950 . S
C1233 C1229 1.393 . S
C1233 C1232 1.391 . S
H1234 C1242 0.950 . S
H1235 C1247 0.950 . S
H1236 C1244 0.950 . S
H1237 C1246 0.950 . S
H1238 C1248 0.950 . S
H1239 C1250 0.950 1_554 S
H1240 C1252 0.950 . S
H1241 C1253 0.950 . S
C1242 H1234 0.950 . S
C1242 C1243 1.386 . S
C1242 C1244 1.391 . S
C1243 C1242 1.386 . S
C1243 C1247 1.393 . S
C1244 H1236 0.950 . S
C1244 C1242 1.391 . S
C1244 C1245 1.400 . S
C1245 C1244 1.400 . S
C1245 C1246 1.398 . S
C1245 C1251 1.491 . S
C1246 H1237 0.950 . S
C1246 C1245 1.398 . S
C1246 C1247 1.391 . S
C1247 H1235 0.950 . S
C1247 C1243 1.393 . S
C1247 C1246 1.391 . S
C1248 H1238 0.950 . S
C1248 C1249 1.386 . S
C1248 C1250 1.391 . S
C1249 C1248 1.386 . S
C1249 C1253 1.393 . S
C1250 H1239 0.950 1_556 S
C1250 C1248 1.391 . S
C1250 C1251 1.400 1_556 S
C1251 C1245 1.491 . S
C1251 C1250 1.400 1_554 S
C1251 C1252 1.398 1_554 S
C1252 H1240 0.950 . S
C1252 C1251 1.398 1_556 S
C1252 C1253 1.391 . S
C1253 H1241 0.950 . S
C1253 C1249 1.393 . S
C1253 C1252 1.391 . S
H1254 C1262 0.950 . S
H1255 C1267 0.950 . S
H1256 C1264 0.950 . S
H1257 C1266 0.950 . S
H1258 C1268 0.950 . S
H1259 C1270 0.950 . S
H1260 C1272 0.950 . S
H1261 C1273 0.950 . S
C1262 H1254 0.950 . S
C1262 C1263 1.386 . S
C1262 C1264 1.391 . S
C1263 C1262 1.386 . S
C1263 C1267 1.393 . S
C1264 H1256 0.950 . S
C1264 C1262 1.391 . S
C1264 C1265 1.400 . S
C1265 C1264 1.400 . S
C1265 C1266 1.398 . S
C1265 C1271 1.491 . S
C1266 H1257 0.950 . S
C1266 C1265 1.398 . S
C1266 C1267 1.391 . S
C1267 H1255 0.950 . S
C1267 C1263 1.393 . S
C1267 C1266 1.391 . S
C1268 H1258 0.950 . S
C1268 C1269 1.386 . S
C1268 C1270 1.391 . S
C1269 C1268 1.386 . S
C1269 C1273 1.393 . S
C1270 H1259 0.950 . S
C1270 C1268 1.391 . S
C1270 C1271 1.400 . S
C1271 C1265 1.491 . S
C1271 C1270 1.400 . S
C1271 C1272 1.398 . S
C1272 H1260 0.950 . S
C1272 C1271 1.398 . S
C1272 C1273 1.391 . S
C1273 H1261 0.950 . S
C1273 C1269 1.393 . S
C1273 C1272 1.391 . S
H1274 C1282 0.950 . S
H1275 C1287 0.950 . S
H1276 C1284 0.950 . S
H1277 C1286 0.950 . S
H1278 C1288 0.950 . S
H1279 C1290 0.950 . S
H1280 C1292 0.950 . S
H1281 C1293 0.950 . S
C1282 H1274 0.950 . S
C1282 C1283 1.386 . S
C1282 C1284 1.391 . S
C1283 C1282 1.386 . S
C1283 C1287 1.393 . S
C1284 H1276 0.950 . S
C1284 C1282 1.391 . S
C1284 C1285 1.400 . S
C1285 C1284 1.400 . S
C1285 C1286 1.398 . S
C1285 C1291 1.491 . S
C1286 H1277 0.950 . S
C1286 C1285 1.398 . S
C1286 C1287 1.391 . S
C1287 H1275 0.950 . S
C1287 C1283 1.393 . S
C1287 C1286 1.391 . S
C1288 H1278 0.950 . S
C1288 C1289 1.386 . S
C1288 C1290 1.391 . S
C1289 C1288 1.386 . S
C1289 C1293 1.393 . S
C1290 H1279 0.950 . S
C1290 C1288 1.391 . S
C1290 C1291 1.400 . S
C1291 C1285 1.491 . S
C1291 C1290 1.400 . S
C1291 C1292 1.398 . S
C1292 H1280 0.950 . S
C1292 C1291 1.398 . S
C1292 C1293 1.391 . S
C1293 H1281 0.950 . S
C1293 C1289 1.393 . S
C1293 C1292 1.391 . S
H1294 C1302 0.950 . S
H1295 C1307 0.950 . S
H1296 C1304 0.950 . S
H1297 C1306 0.950 . S
H1298 C1308 0.950 . S
H1299 C1310 0.950 . S
H1300 C1312 0.950 . S
H1301 C1313 0.950 . S
C1302 H1294 0.950 . S
C1302 C1303 1.386 . S
C1302 C1304 1.391 . S
C1303 C1302 1.386 . S
C1303 C1307 1.393 . S
C1304 H1296 0.950 . S
C1304 C1302 1.391 . S
C1304 C1305 1.400 . S
C1305 C1304 1.400 . S
C1305 C1306 1.398 . S
C1305 C1311 1.491 . S
C1306 H1297 0.950 . S
C1306 C1305 1.398 . S
C1306 C1307 1.391 . S
C1307 H1295 0.950 . S
C1307 C1303 1.393 . S
C1307 C1306 1.391 . S
C1308 H1298 0.950 . S
C1308 C1309 1.386 . S
C1308 C1310 1.391 . S
C1309 C1308 1.386 . S
C1309 C1313 1.393 . S
C1310 H1299 0.950 . S
C1310 C1308 1.391 . S
C1310 C1311 1.400 . S
C1311 C1305 1.491 . S
C1311 C1310 1.400 . S
C1311 C1312 1.398 . S
C1312 H1300 0.950 . S
C1312 C1311 1.398 . S
C1312 C1313 1.391 . S
C1313 H1301 0.950 . S
C1313 C1309 1.393 . S
C1313 C1312 1.391 . S
H1314 C1322 0.950 . S
H1315 C1327 0.950 . S
H1316 C1324 0.950 . S
H1317 C1326 0.950 . S
H1318 C1328 0.950 . S
H1319 C1330 0.950 . S
H1320 C1332 0.950 . S
H1321 C1333 0.950 . S
C1322 H1314 0.950 . S
C1322 C1323 1.386 . S
C1322 C1324 1.391 . S
C1323 C1322 1.386 . S
C1323 C1327 1.393 . S
C1324 H1316 0.950 . S
C1324 C1322 1.391 . S
C1324 C1325 1.400 . S
C1325 C1324 1.400 . S
C1325 C1326 1.398 . S
C1325 C1331 1.491 . S
C1326 H1317 0.950 . S
C1326 C1325 1.398 . S
C1326 C1327 1.391 . S
C1327 H1315 0.950 . S
C1327 C1323 1.393 . S
C1327 C1326 1.391 . S
C1328 H1318 0.950 . S
C1328 C1329 1.386 . S
C1328 C1330 1.391 . S
C1329 C1328 1.386 . S
C1329 C1333 1.393 . S
C1330 H1319 0.950 . S
C1330 C1328 1.391 . S
C1330 C1331 1.400 . S
C1331 C1325 1.491 . S
C1331 C1330 1.400 . S
C1331 C1332 1.398 . S
C1332 H1320 0.950 . S
C1332 C1331 1.398 . S
C1332 C1333 1.391 . S
C1333 H1321 0.950 . S
C1333 C1329 1.393 . S
C1333 C1332 1.391 . S
H1334 C1342 0.950 . S
H1335 C1347 0.950 . S
H1336 C1344 0.950 . S
H1337 C1346 0.950 . S
H1338 C1348 0.950 . S
H1339 C1350 0.950 . S
H1340 C1352 0.950 . S
H1341 C1353 0.950 . S
C1342 H1334 0.950 . S
C1342 C1343 1.386 . S
C1342 C1344 1.391 . S
C1343 C1342 1.386 . S
C1343 C1347 1.393 . S
C1344 H1336 0.950 . S
C1344 C1342 1.391 . S
C1344 C1345 1.400 . S
C1345 C1344 1.400 . S
C1345 C1346 1.398 . S
C1345 C1351 1.491 . S
C1346 H1337 0.950 . S
C1346 C1345 1.398 . S
C1346 C1347 1.391 . S
C1347 H1335 0.950 . S
C1347 C1343 1.393 . S
C1347 C1346 1.391 . S
C1348 H1338 0.950 . S
C1348 C1349 1.386 . S
C1348 C1350 1.391 . S
C1349 C1348 1.386 . S
C1349 C1353 1.393 . S
C1350 H1339 0.950 . S
C1350 C1348 1.391 . S
C1350 C1351 1.400 . S
C1351 C1345 1.491 . S
C1351 C1350 1.400 . S
C1351 C1352 1.398 . S
C1352 H1340 0.950 . S
C1352 C1351 1.398 . S
C1352 C1353 1.391 . S
C1353 H1341 0.950 . S
C1353 C1349 1.393 . S
C1353 C1352 1.391 . S
H1354 C1362 0.950 . S
H1355 C1367 0.950 . S
H1356 C1364 0.950 . S
H1357 C1366 0.950 . S
H1358 C1368 0.950 . S
H1359 C1370 0.950 . S
H1360 C1372 0.950 . S
H1361 C1373 0.950 . S
C1362 H1354 0.950 . S
C1362 C1363 1.386 . S
C1362 C1364 1.391 . S
C1363 C1362 1.386 . S
C1363 C1367 1.393 . S
C1364 H1356 0.950 . S
C1364 C1362 1.391 . S
C1364 C1365 1.400 . S
C1365 C1364 1.400 . S
C1365 C1366 1.398 . S
C1365 C1371 1.491 . S
C1366 H1357 0.950 . S
C1366 C1365 1.398 . S
C1366 C1367 1.391 . S
C1367 H1355 0.950 . S
C1367 C1363 1.393 . S
C1367 C1366 1.391 . S
C1368 H1358 0.950 . S
C1368 C1369 1.386 . S
C1368 C1370 1.391 . S
C1369 C1368 1.386 . S
C1369 C1373 1.393 . S
C1370 H1359 0.950 . S
C1370 C1368 1.391 . S
C1370 C1371 1.400 . S
C1371 C1365 1.491 . S
C1371 C1370 1.400 . S
C1371 C1372 1.398 . S
C1372 H1360 0.950 . S
C1372 C1371 1.398 . S
C1372 C1373 1.391 . S
C1373 H1361 0.950 . S
C1373 C1369 1.393 . S
C1373 C1372 1.391 . S
H1374 C1382 0.950 . S
H1375 C1387 0.950 . S
H1376 C1384 0.950 . S
H1377 C1386 0.950 . S
H1378 C1388 0.950 . S
H1379 C1390 0.950 . S
H1380 C1392 0.950 . S
H1381 C1393 0.950 . S
C1382 H1374 0.950 . S
C1382 C1383 1.386 . S
C1382 C1384 1.391 . S
C1383 C1382 1.386 . S
C1383 C1387 1.393 . S
C1384 H1376 0.950 . S
C1384 C1382 1.391 . S
C1384 C1385 1.400 . S
C1385 C1384 1.400 . S
C1385 C1386 1.398 . S
C1385 C1391 1.491 . S
C1386 H1377 0.950 . S
C1386 C1385 1.398 . S
C1386 C1387 1.391 . S
C1387 H1375 0.950 . S
C1387 C1383 1.393 . S
C1387 C1386 1.391 . S
C1388 H1378 0.950 . S
C1388 C1389 1.386 . S
C1388 C1390 1.391 . S
C1389 C1388 1.386 . S
C1389 C1393 1.393 . S
C1390 H1379 0.950 . S
C1390 C1388 1.391 . S
C1390 C1391 1.400 . S
C1391 C1385 1.491 . S
C1391 C1390 1.400 . S
C1391 C1392 1.398 . S
C1392 H1380 0.950 . S
C1392 C1391 1.398 . S
C1392 C1393 1.391 . S
C1393 H1381 0.950 . S
C1393 C1389 1.393 . S
C1393 C1392 1.391 . S
H1394 C1402 0.950 . S
H1395 C1407 0.950 . S
H1396 C1404 0.950 . S
H1397 C1406 0.950 . S
H1398 C1408 0.950 . S
H1399 C1410 0.950 . S
H1400 C1412 0.950 . S
H1401 C1413 0.950 . S
C1402 H1394 0.950 . S
C1402 C1403 1.386 . S
C1402 C1404 1.391 . S
C1403 C1402 1.386 . S
C1403 C1407 1.393 . S
C1404 H1396 0.950 . S
C1404 C1402 1.391 . S
C1404 C1405 1.400 . S
C1405 C1404 1.400 . S
C1405 C1406 1.398 . S
C1405 C1411 1.491 . S
C1406 H1397 0.950 . S
C1406 C1405 1.398 . S
C1406 C1407 1.391 . S
C1407 H1395 0.950 . S
C1407 C1403 1.393 . S
C1407 C1406 1.391 . S
C1408 H1398 0.950 . S
C1408 C1409 1.386 . S
C1408 C1410 1.391 . S
C1409 C1408 1.386 . S
C1409 C1413 1.393 . S
C1410 H1399 0.950 . S
C1410 C1408 1.391 . S
C1410 C1411 1.400 . S
C1411 C1405 1.491 . S
C1411 C1410 1.400 . S
C1411 C1412 1.398 . S
C1412 H1400 0.950 . S
C1412 C1411 1.398 . S
C1412 C1413 1.391 . S
C1413 H1401 0.950 . S
C1413 C1409 1.393 . S
C1413 C1412 1.391 . S
H1414 C1422 0.950 . S
H1415 C1427 0.950 . S
H1416 C1424 0.950 . S
H1417 C1426 0.950 . S
H1418 C1428 0.950 . S
H1419 C1430 0.950 . S
H1420 C1432 0.950 . S
H1421 C1433 0.950 . S
C1422 H1414 0.950 . S
C1422 C1423 1.386 . S
C1422 C1424 1.391 . S
C1423 C1422 1.386 . S
C1423 C1427 1.393 . S
C1424 H1416 0.950 . S
C1424 C1422 1.391 . S
C1424 C1425 1.400 . S
C1425 C1424 1.400 . S
C1425 C1426 1.398 . S
C1425 C1431 1.491 . S
C1426 H1417 0.950 . S
C1426 C1425 1.398 . S
C1426 C1427 1.391 . S
C1427 H1415 0.950 . S
C1427 C1423 1.393 . S
C1427 C1426 1.391 . S
C1428 H1418 0.950 . S
C1428 C1429 1.386 . S
C1428 C1430 1.391 . S
C1429 C1428 1.386 . S
C1429 C1433 1.393 . S
C1430 H1419 0.950 . S
C1430 C1428 1.391 . S
C1430 C1431 1.400 . S
C1431 C1425 1.491 . S
C1431 C1430 1.400 . S
C1431 C1432 1.398 . S
C1432 H1420 0.950 . S
C1432 C1431 1.398 . S
C1432 C1433 1.391 . S
C1433 H1421 0.950 . S
C1433 C1429 1.393 . S
C1433 C1432 1.391 . S
H1434 C1442 0.950 . S
H1435 C1447 0.950 . S
H1436 C1444 0.950 . S
H1437 C1446 0.950 . S
H1438 C1448 0.950 . S
H1439 C1450 0.950 . S
H1440 C1452 0.950 . S
H1441 C1453 0.950 . S
C1442 H1434 0.950 . S
C1442 C1443 1.386 . S
C1442 C1444 1.391 . S
C1443 C1442 1.386 . S
C1443 C1447 1.393 . S
C1444 H1436 0.950 . S
C1444 C1442 1.391 . S
C1444 C1445 1.400 . S
C1445 C1444 1.400 . S
C1445 C1446 1.398 . S
C1445 C1451 1.491 . S
C1446 H1437 0.950 . S
C1446 C1445 1.398 . S
C1446 C1447 1.391 . S
C1447 H1435 0.950 . S
C1447 C1443 1.393 . S
C1447 C1446 1.391 . S
C1448 H1438 0.950 . S
C1448 C1449 1.386 . S
C1448 C1450 1.391 . S
C1449 C1448 1.386 . S
C1449 C1453 1.393 . S
C1450 H1439 0.950 . S
C1450 C1448 1.391 . S
C1450 C1451 1.400 . S
C1451 C1445 1.491 . S
C1451 C1450 1.400 . S
C1451 C1452 1.398 . S
C1452 H1440 0.950 . S
C1452 C1451 1.398 . S
C1452 C1453 1.391 . S
C1453 H1441 0.950 . S
C1453 C1449 1.393 . S
C1453 C1452 1.391 . S
H1454 C1462 0.950 . S
H1455 C1467 0.950 . S
H1456 C1464 0.950 . S
H1457 C1466 0.950 . S
H1458 C1468 0.950 . S
H1459 C1470 0.950 . S
H1460 C1472 0.950 . S
H1461 C1473 0.950 . S
C1462 H1454 0.950 . S
C1462 C1463 1.386 . S
C1462 C1464 1.391 . S
C1463 C1462 1.386 . S
C1463 C1467 1.393 . S
C1464 H1456 0.950 . S
C1464 C1462 1.391 . S
C1464 C1465 1.400 . S
C1465 C1464 1.400 . S
C1465 C1466 1.398 . S
C1465 C1471 1.491 . S
C1466 H1457 0.950 . S
C1466 C1465 1.398 . S
C1466 C1467 1.391 . S
C1467 H1455 0.950 . S
C1467 C1463 1.393 . S
C1467 C1466 1.391 . S
C1468 H1458 0.950 . S
C1468 C1469 1.386 . S
C1468 C1470 1.391 . S
C1469 C1468 1.386 . S
C1469 C1473 1.393 . S
C1470 H1459 0.950 . S
C1470 C1468 1.391 . S
C1470 C1471 1.400 . S
C1471 C1465 1.491 . S
C1471 C1470 1.400 . S
C1471 C1472 1.398 . S
C1472 H1460 0.950 . S
C1472 C1471 1.398 . S
C1472 C1473 1.391 . S
C1473 H1461 0.950 . S
C1473 C1469 1.393 . S
C1473 C1472 1.391 . S
H1474 C1482 0.950 . S
H1475 C1487 0.950 . S
H1476 C1484 0.950 . S
H1477 C1486 0.950 . S
H1478 C1488 0.950 . S
H1479 C1490 0.950 . S
H1480 C1492 0.950 . S
H1481 C1493 0.950 . S
C1482 H1474 0.950 . S
C1482 C1483 1.386 . S
C1482 C1484 1.391 . S
C1483 C1482 1.386 . S
C1483 C1487 1.393 . S
C1484 H1476 0.950 . S
C1484 C1482 1.391 . S
C1484 C1485 1.400 . S
C1485 C1484 1.400 . S
C1485 C1486 1.398 . S
C1485 C1491 1.491 . S
C1486 H1477 0.950 . S
C1486 C1485 1.398 . S
C1486 C1487 1.391 . S
C1487 H1475 0.950 . S
C1487 C1483 1.393 . S
C1487 C1486 1.391 . S
C1488 H1478 0.950 . S
C1488 C1489 1.386 . S
C1488 C1490 1.391 . S
C1489 C1488 1.386 . S
C1489 C1493 1.393 . S
C1490 H1479 0.950 . S
C1490 C1488 1.391 . S
C1490 C1491 1.400 . S
C1491 C1485 1.491 . S
C1491 C1490 1.400 . S
C1491 C1492 1.398 . S
C1492 H1480 0.950 . S
C1492 C1491 1.398 . S
C1492 C1493 1.391 . S
C1493 H1481 0.950 . S
C1493 C1489 1.393 . S
C1493 C1492 1.391 . S
C603 C120 1.490 . S
C609 C21 1.489 . S
C623 C153 1.490 . S
C629 C54 1.489 . S
C643 C186 1.489 . S
C649 C87 1.490 . S
C663 C40 1.469 . S
C669 C172 1.468 . S
C683 C106 1.461 . S
C689 C73 1.462 . S
C703 C139 1.465 . S
C709 C7 1.464 . S
C723 C318 1.488 . S
C729 C219 1.487 . S
C743 C252 1.489 . S
C749 C351 1.490 . S
C763 C285 1.486 . S
C769 C384 1.485 . S
C783 C238 1.468 . S
C789 C370 1.469 . S
C803 C271 1.468 . S
C809 C304 1.467 . S
C823 C337 1.466 . S
C829 C205 1.467 . S
C843 C417 1.490 . S
C849 C516 1.490 . S
C863 C549 1.487 . S
C869 C450 1.488 . S
C883 C483 1.486 . S
C889 C582 1.488 . S
C903 C436 1.464 . S
C909 C568 1.466 . S
C923 C502 1.467 . S
C929 C469 1.468 . S
C943 C403 1.462 . S
C949 C535 1.461 . S
C963 C18 1.545 . S
C969 C579 1.545 . S
C983 C513 1.548 . S
C989 C51 1.548 . S
C1003 C546 1.551 . S
C1009 C84 1.551 . S
C1023 C249 1.546 . S
C1029 C117 1.546 . S
C1043 C282 1.547 . S
C1049 C150 1.547 . S
C1063 C216 1.547 . S
C1069 C183 1.547 . S
C1083 C447 1.549 . S
C1089 C315 1.549 . S
C1103 C480 1.550 . S
C1109 C348 1.550 . S
C1123 C381 1.546 . S
C1129 C414 1.547 . S
C1143 N2 1.403 . S
C1149 N13 1.405 . S
C1163 N35 1.398 . S
C1169 N46 1.400 . S
C1183 N68 1.411 . S
C1189 N79 1.412 . S
C1203 N112 1.394 . S
C1209 N101 1.392 . S
C1223 N145 1.401 . S
C1229 N134 1.399 . S
C1243 N167 1.411 . S
C1249 N178 1.413 . S
C1263 N200 1.396 . S
C1269 N211 1.398 . S
C1283 N244 1.396 . S
C1289 N233 1.394 . S
C1303 N277 1.397 . S
C1309 N266 1.394 . S
C1323 N299 1.410 . S
C1329 N310 1.411 . S
C1343 N332 1.397 . S
C1349 N343 1.399 . S
C1363 N365 1.397 . S
C1369 N376 1.399 . S
C1383 N398 1.410 . S
C1389 N409 1.412 . S
C1403 N431 1.403 . S
C1409 N442 1.405 . S
C1423 N475 1.398 . S
C1429 N464 1.396 . S
C1443 N497 1.392 . S
C1449 N508 1.394 . S
C1463 N541 1.402 . S
C1469 N530 1.400 . S
C1483 N574 1.408 . S
C1489 N563 1.407 . S
