# Generated by pormake.
# Topology wjr, (5)-cn, num edge types: 1
# Building blocks:
#     Node 0, Type 0, BuildingBlock: BEQFEK_clean_sbu_0, # of connection points: 5
#     Node 1, Type 0, BuildingBlock: BEQFEK_clean_sbu_0, # of connection points: 5
#     Node 2, Type 0, BuildingBlock: BEQFEK_clean_sbu_0, # of connection points: 5
#     Node 3, Type 0, BuildingBlock: BEQFEK_clean_sbu_0, # of connection points: 5
#     Node 4, Type 0, BuildingBlock: BEQFEK_clean_sbu_0, # of connection points: 5
#     Node 5, Type 0, BuildingBlock: BEQFEK_clean_sbu_0, # of connection points: 5
#     Node 6, Type 0, BuildingBlock: BEQFEK_clean_sbu_0, # of connection points: 5
#     Node 7, Type 0, BuildingBlock: BEQFEK_clean_sbu_0, # of connection points: 5
#     Node 8, Type 0, BuildingBlock: BEQFEK_clean_sbu_0, # of connection points: 5
#     Node 9, Type 0, BuildingBlock: BEQFEK_clean_sbu_0, # of connection points: 5
#     Node 10, Type 0, BuildingBlock: BEQFEK_clean_sbu_0, # of connection points: 5
#     Node 11, Type 0, BuildingBlock: BEQFEK_clean_sbu_0, # of connection points: 5
#     Node 12, Type 0, BuildingBlock: BEQFEK_clean_sbu_0, # of connection points: 5
#     Node 13, Type 0, BuildingBlock: BEQFEK_clean_sbu_0, # of connection points: 5
#     Node 14, Type 0, BuildingBlock: BEQFEK_clean_sbu_0, # of connection points: 5
#     Node 15, Type 0, BuildingBlock: BEQFEK_clean_sbu_0, # of connection points: 5
#     Node 16, Type 0, BuildingBlock: BEQFEK_clean_sbu_0, # of connection points: 5
#     Node 17, Type 0, BuildingBlock: BEQFEK_clean_sbu_0, # of connection points: 5
#     Node 18, Type 0, BuildingBlock: BEQFEK_clean_sbu_0, # of connection points: 5
#     Node 19, Type 0, BuildingBlock: BEQFEK_clean_sbu_0, # of connection points: 5
#     Node 20, Type 0, BuildingBlock: BEQFEK_clean_sbu_0, # of connection points: 5
#     Node 21, Type 0, BuildingBlock: BEQFEK_clean_sbu_0, # of connection points: 5
#     Node 22, Type 0, BuildingBlock: BEQFEK_clean_sbu_0, # of connection points: 5
#     Node 23, Type 0, BuildingBlock: BEQFEK_clean_sbu_0, # of connection points: 5
#     Edge 24, Type (0, 0), BuildingBlock: XIVTED_clean_linker_0, # of connection points: 2
#     Edge 25, Type (0, 0), BuildingBlock: XIVTED_clean_linker_0, # of connection points: 2
#     Edge 26, Type (0, 0), BuildingBlock: XIVTED_clean_linker_0, # of connection points: 2
#     Edge 27, Type (0, 0), BuildingBlock: XIVTED_clean_linker_0, # of connection points: 2
#     Edge 28, Type (0, 0), BuildingBlock: XIVTED_clean_linker_0, # of connection points: 2
#     Edge 29, Type (0, 0), BuildingBlock: XIVTED_clean_linker_0, # of connection points: 2
#     Edge 30, Type (0, 0), BuildingBlock: XIVTED_clean_linker_0, # of connection points: 2
#     Edge 31, Type (0, 0), BuildingBlock: XIVTED_clean_linker_0, # of connection points: 2
#     Edge 32, Type (0, 0), BuildingBlock: XIVTED_clean_linker_0, # of connection points: 2
#     Edge 33, Type (0, 0), BuildingBlock: XIVTED_clean_linker_0, # of connection points: 2
#     Edge 34, Type (0, 0), BuildingBlock: XIVTED_clean_linker_0, # of connection points: 2
#     Edge 35, Type (0, 0), BuildingBlock: XIVTED_clean_linker_0, # of connection points: 2
#     Edge 36, Type (0, 0), BuildingBlock: XIVTED_clean_linker_0, # of connection points: 2
#     Edge 37, Type (0, 0), BuildingBlock: XIVTED_clean_linker_0, # of connection points: 2
#     Edge 38, Type (0, 0), BuildingBlock: XIVTED_clean_linker_0, # of connection points: 2
#     Edge 39, Type (0, 0), BuildingBlock: XIVTED_clean_linker_0, # of connection points: 2
#     Edge 40, Type (0, 0), BuildingBlock: XIVTED_clean_linker_0, # of connection points: 2
#     Edge 41, Type (0, 0), BuildingBlock: XIVTED_clean_linker_0, # of connection points: 2
#     Edge 42, Type (0, 0), BuildingBlock: XIVTED_clean_linker_0, # of connection points: 2
#     Edge 43, Type (0, 0), BuildingBlock: XIVTED_clean_linker_0, # of connection points: 2
#     Edge 44, Type (0, 0), BuildingBlock: XIVTED_clean_linker_0, # of connection points: 2
#     Edge 45, Type (0, 0), BuildingBlock: XIVTED_clean_linker_0, # of connection points: 2
#     Edge 46, Type (0, 0), BuildingBlock: XIVTED_clean_linker_0, # of connection points: 2
#     Edge 47, Type (0, 0), BuildingBlock: XIVTED_clean_linker_0, # of connection points: 2
#     Edge 48, Type (0, 0), BuildingBlock: XIVTED_clean_linker_0, # of connection points: 2
#     Edge 49, Type (0, 0), BuildingBlock: XIVTED_clean_linker_0, # of connection points: 2
#     Edge 50, Type (0, 0), BuildingBlock: XIVTED_clean_linker_0, # of connection points: 2
#     Edge 51, Type (0, 0), BuildingBlock: XIVTED_clean_linker_0, # of connection points: 2
#     Edge 52, Type (0, 0), BuildingBlock: XIVTED_clean_linker_0, # of connection points: 2
#     Edge 53, Type (0, 0), BuildingBlock: XIVTED_clean_linker_0, # of connection points: 2
#     Edge 54, Type (0, 0), BuildingBlock: XIVTED_clean_linker_0, # of connection points: 2
#     Edge 55, Type (0, 0), BuildingBlock: XIVTED_clean_linker_0, # of connection points: 2
#     Edge 56, Type (0, 0), BuildingBlock: XIVTED_clean_linker_0, # of connection points: 2
#     Edge 57, Type (0, 0), BuildingBlock: XIVTED_clean_linker_0, # of connection points: 2
#     Edge 58, Type (0, 0), BuildingBlock: XIVTED_clean_linker_0, # of connection points: 2
#     Edge 59, Type (0, 0), BuildingBlock: XIVTED_clean_linker_0, # of connection points: 2
#     Edge 60, Type (0, 0), BuildingBlock: XIVTED_clean_linker_0, # of connection points: 2
#     Edge 61, Type (0, 0), BuildingBlock: XIVTED_clean_linker_0, # of connection points: 2
#     Edge 62, Type (0, 0), BuildingBlock: XIVTED_clean_linker_0, # of connection points: 2
#     Edge 63, Type (0, 0), BuildingBlock: XIVTED_clean_linker_0, # of connection points: 2
#     Edge 64, Type (0, 0), BuildingBlock: XIVTED_clean_linker_0, # of connection points: 2
#     Edge 65, Type (0, 0), BuildingBlock: XIVTED_clean_linker_0, # of connection points: 2
#     Edge 66, Type (0, 0), BuildingBlock: XIVTED_clean_linker_0, # of connection points: 2
#     Edge 67, Type (0, 0), BuildingBlock: XIVTED_clean_linker_0, # of connection points: 2
#     Edge 68, Type (0, 0), BuildingBlock: XIVTED_clean_linker_0, # of connection points: 2
#     Edge 69, Type (0, 0), BuildingBlock: XIVTED_clean_linker_0, # of connection points: 2
#     Edge 70, Type (0, 0), BuildingBlock: XIVTED_clean_linker_0, # of connection points: 2
#     Edge 71, Type (0, 0), BuildingBlock: XIVTED_clean_linker_0, # of connection points: 2
#     Edge 72, Type (0, 0), BuildingBlock: XIVTED_clean_linker_0, # of connection points: 2
#     Edge 73, Type (0, 0), BuildingBlock: XIVTED_clean_linker_0, # of connection points: 2
#     Edge 74, Type (0, 0), BuildingBlock: XIVTED_clean_linker_0, # of connection points: 2
#     Edge 75, Type (0, 0), BuildingBlock: XIVTED_clean_linker_0, # of connection points: 2
#     Edge 76, Type (0, 0), BuildingBlock: XIVTED_clean_linker_0, # of connection points: 2
#     Edge 77, Type (0, 0), BuildingBlock: XIVTED_clean_linker_0, # of connection points: 2
#     Edge 78, Type (0, 0), BuildingBlock: XIVTED_clean_linker_0, # of connection points: 2
#     Edge 79, Type (0, 0), BuildingBlock: XIVTED_clean_linker_0, # of connection points: 2
#     Edge 80, Type (0, 0), BuildingBlock: XIVTED_clean_linker_0, # of connection points: 2
#     Edge 81, Type (0, 0), BuildingBlock: XIVTED_clean_linker_0, # of connection points: 2
#     Edge 82, Type (0, 0), BuildingBlock: XIVTED_clean_linker_0, # of connection points: 2
#     Edge 83, Type (0, 0), BuildingBlock: XIVTED_clean_linker_0, # of connection points: 2
# Relax obj value: 0.369
# Max RMSD: 0.180
# Mean RMSD: 0.180
data_MOF--net-wjr--node1-BEQFEK_clean_sbu_0--edge1-XIVTED_clean_linker_0
_symmetry_space_group_name_H-M    P1
_symmetry_Int_Tables_number       1
_symmetry_cell_setting            triclinic
loop_
_symmetry_equiv_pos_as_xyz
'x, y, z'
_cell_length_a     70.601911
_cell_length_b     70.590701
_cell_length_c     49.097758
_cell_angle_alpha  90.029802
_cell_angle_beta   89.959757
_cell_angle_gamma 119.99049
loop_
_atom_site_label
_atom_site_type_symbol
_atom_site_fract_x
_atom_site_fract_y
_atom_site_fract_z
_atom_type_partial_charge
Co0 Co 0.4655 0.0762 0.1479 0.0
Co1 Co 0.45608 0.10825 0.18133 0.0
C2 C 0.49708 0.10669 0.1901 0.0
O3 O 0.49135 0.09194 0.17193 0.0
O4 O 0.48503 0.11478 0.19624 0.0
C5 C 0.49017 0.06284 0.11466 0.0
O6 O 0.50672 0.08216 0.1209 0.0
C7 C 0.45957 0.1477 0.20703 0.0
C8 C 0.42453 0.13733 0.21169 0.0
C9 C 0.44542 0.15435 0.21704 0.0
N10 N 0.44746 0.12762 0.19624 0.0
N11 N 0.42658 0.1216 0.19896 0.0
C12 C 0.48391 0.15903 0.20976 0.0
H13 H 0.49129 0.15929 0.1897 0.0
H14 H 0.49084 0.1759 0.21771 0.0
H15 H 0.48826 0.14958 0.22398 0.0
C16 C 0.46027 0.1 0.10202 0.0
N17 N 0.46026 0.09615 0.1288 0.0
N18 N 0.45665 0.11006 0.14254 0.0
C19 C 0.4544 0.12337 0.12471 0.0
C20 C 0.4566 0.11734 0.09853 0.0
C21 C 0.46418 0.08755 0.08018 0.0
H22 H 0.45413 0.06974 0.08418 0.0
H23 H 0.48165 0.09204 0.0805 0.0
H24 H 0.46018 0.09121 0.0597 0.0
O25 O 0.43969 0.05598 0.16959 0.0
O26 O 0.43353 0.0787 0.19413 0.0
H27 H 0.43509 0.13533 0.14337 0.0
H28 H 0.45098 0.15133 0.11451 0.0
C29 C 0.45096 0.14189 0.13261 0.0
H30 H 0.46406 0.1529 0.14686 0.0
H31 H 0.41371 0.10655 0.19253 0.0
O32 O 0.47116 0.05759 0.1231 0.0
C33 C 0.42875 0.05937 0.18758 0.0
Co34 Co 0.38861 0.46989 0.14751 0.0
Co35 Co 0.34582 0.45883 0.17918 0.0
C36 C 0.38785 0.49979 0.19079 0.0
O37 O 0.39761 0.49489 0.17268 0.0
O38 O 0.36755 0.48738 0.19583 0.0
C39 C 0.42757 0.4953 0.11556 0.0
O40 O 0.42475 0.51186 0.12159 0.0
C41 C 0.3085 0.45983 0.20527 0.0
C42 C 0.28368 0.42464 0.2038 0.0
C43 C 0.28715 0.44476 0.21259 0.0
N44 N 0.31714 0.44899 0.19262 0.0
N45 N 0.3022 0.42801 0.19176 0.0
C46 C 0.32126 0.48366 0.21214 0.0
H47 H 0.33578 0.48688 0.22436 0.0
H48 H 0.32725 0.4933 0.19306 0.0
H49 H 0.31148 0.48911 0.22396 0.0
C50 C 0.36099 0.46586 0.10048 0.0
N51 N 0.364 0.4651 0.12738 0.0
N52 N 0.3459 0.4606 0.14037 0.0
C53 C 0.33072 0.45835 0.12191 0.0
C54 C 0.3399 0.46174 0.09612 0.0
C55 C 0.37788 0.46987 0.07933 0.0
H56 H 0.38581 0.46011 0.08409 0.0
H57 H 0.39061 0.48743 0.07962 0.0
H58 H 0.37065 0.46554 0.05863 0.0
O59 O 0.38262 0.44356 0.16831 0.0
O60 O 0.35289 0.43634 0.19163 0.0
H61 H 0.29856 0.43688 0.1369 0.0
H62 H 0.29974 0.45546 0.11077 0.0
C63 C 0.3082 0.45378 0.12887 0.0
H64 H 0.30914 0.46521 0.14501 0.0
H65 H 0.30479 0.41594 0.18326 0.0
O66 O 0.41367 0.47626 0.12377 0.0
C67 C 0.36784 0.43203 0.18553 0.0
Co68 Co 0.91572 0.38795 0.14834 0.0
Co69 Co 0.88399 0.34549 0.18048 0.0
C70 C 0.88344 0.38708 0.18928 0.0
O71 O 0.8985 0.39682 0.17161 0.0
O72 O 0.8759 0.36692 0.19499 0.0
C73 C 0.93063 0.42693 0.1157 0.0
O74 O 0.91166 0.42519 0.12155 0.0
C75 C 0.84565 0.3078 0.20617 0.0
C76 C 0.85737 0.28401 0.20713 0.0
C77 C 0.83997 0.28678 0.21443 0.0
N78 N 0.86551 0.3169 0.19442 0.0
N79 N 0.87235 0.30257 0.19502 0.0
C80 C 0.83357 0.31984 0.21131 0.0
H81 H 0.84429 0.33508 0.22271 0.0
H82 H 0.82957 0.32462 0.19153 0.0
H83 H 0.8184 0.30998 0.22322 0.0
C84 C 0.89527 0.35882 0.10156 0.0
N85 N 0.8973 0.36265 0.12849 0.0
N86 N 0.88348 0.34471 0.14157 0.0
C87 C 0.87192 0.32888 0.12309 0.0
C88 C 0.87916 0.33735 0.09723 0.0
C89 C 0.9085 0.37557 0.08045 0.0
H90 H 0.90465 0.38899 0.08129 0.0
H91 H 0.90505 0.36853 0.05962 0.0
H92 H 0.92615 0.38265 0.08499 0.0
O93 O 0.93589 0.38322 0.17111 0.0
O94 O 0.91345 0.35381 0.19497 0.0
H95 H 0.86238 0.29732 0.13929 0.0
H96 H 0.8454 0.29701 0.1116 0.0
C97 C 0.8546 0.30607 0.13 0.0
H98 H 0.84316 0.30652 0.14513 0.0
H99 H 0.88744 0.30562 0.18746 0.0
O100 O 0.93484 0.41245 0.12421 0.0
C101 C 0.93265 0.36904 0.18918 0.0
Co102 Co 0.53558 0.92237 0.14733 0.0
Co103 Co 0.53762 0.88456 0.17758 0.0
C104 C 0.50136 0.89258 0.18888 0.0
O105 O 0.51026 0.90879 0.17258 0.0
O106 O 0.50946 0.88018 0.19267 0.0
C107 C 0.51381 0.9394 0.11531 0.0
O108 O 0.49668 0.91998 0.11956 0.0
C109 C 0.53163 0.84401 0.20335 0.0
C110 C 0.56249 0.8455 0.19094 0.0
C111 C 0.54306 0.83279 0.20468 0.0
N112 N 0.54374 0.86249 0.1891 0.0
N113 N 0.56225 0.86338 0.18206 0.0
C114 C 0.50918 0.83682 0.21393 0.0
H115 H 0.49884 0.83712 0.1971 0.0
H116 H 0.50149 0.82014 0.22277 0.0
H117 H 0.51017 0.84856 0.22969 0.0
C118 C 0.53708 0.8984 0.0991 0.0
N119 N 0.53721 0.90115 0.1262 0.0
N120 N 0.53724 0.88464 0.13858 0.0
C121 C 0.53657 0.8705 0.11947 0.0
C122 C 0.53666 0.87894 0.09398 0.0
C123 C 0.53689 0.91388 0.07844 0.0
H124 H 0.54799 0.931 0.08494 0.0
H125 H 0.52007 0.91126 0.07684 0.0
H126 H 0.54196 0.91117 0.05808 0.0
O127 O 0.5621 0.93908 0.16891 0.0
O128 O 0.56171 0.91251 0.19342 0.0
H129 H 0.55084 0.85093 0.12934 0.0
H130 H 0.52734 0.83757 0.10751 0.0
C131 C 0.5344 0.84871 0.12524 0.0
H132 H 0.5239 0.84117 0.14335 0.0
H133 H 0.57455 0.87605 0.17068 0.0
O134 O 0.53228 0.94357 0.12462 0.0
C135 C 0.56996 0.93274 0.18776 0.0
Co136 Co 0.61197 0.53881 0.14475 0.0
Co137 Co 0.65154 0.54254 0.17765 0.0
C138 C 0.60787 0.5041 0.18525 0.0
O139 O 0.60044 0.51265 0.1686 0.0
O140 O 0.62824 0.51332 0.19066 0.0
C141 C 0.57394 0.51656 0.11098 0.0
O142 O 0.57633 0.49951 0.11534 0.0
C143 C 0.68699 0.5387 0.20508 0.0
C144 C 0.71314 0.57342 0.20404 0.0
C145 C 0.70839 0.55295 0.21309 0.0
N146 N 0.67954 0.55037 0.19187 0.0
N147 N 0.69529 0.57104 0.19124 0.0
C148 C 0.67313 0.51494 0.21176 0.0
H149 H 0.65831 0.51229 0.22285 0.0
H150 H 0.66763 0.50539 0.19256 0.0
H151 H 0.68199 0.50891 0.22447 0.0
C152 C 0.64064 0.54389 0.09846 0.0
N153 N 0.63656 0.54282 0.12531 0.0
N154 N 0.65301 0.54357 0.13881 0.0
C155 C 0.66792 0.54458 0.12074 0.0
C156 C 0.66063 0.54507 0.09466 0.0
C157 C 0.62507 0.54252 0.07685 0.0
H158 H 0.61822 0.55313 0.08236 0.0
H159 H 0.61137 0.52542 0.0755 0.0
H160 H 0.63314 0.54746 0.05664 0.0
O161 O 0.61918 0.56434 0.16735 0.0
O162 O 0.64529 0.56514 0.19315 0.0
H163 H 0.70023 0.56036 0.1371 0.0
H164 H 0.6958 0.54114 0.11019 0.0
C165 C 0.68829 0.54429 0.12825 0.0
H166 H 0.68448 0.53155 0.14392 0.0
H167 H 0.69368 0.58363 0.18244 0.0
O168 O 0.588 0.53503 0.12059 0.0
C169 C 0.63264 0.57248 0.18693 0.0
Co170 Co 0.07771 0.60961 0.1479 0.0
Co171 Co 0.11181 0.65251 0.17739 0.0
C172 C 0.1098 0.60985 0.18838 0.0
O173 O 0.09432 0.60014 0.17125 0.0
O174 O 0.11829 0.63027 0.1932 0.0
C175 C 0.06064 0.56986 0.11642 0.0
O176 O 0.07976 0.57149 0.12078 0.0
C177 C 0.15283 0.68856 0.19965 0.0
C178 C 0.14747 0.71657 0.19354 0.0
C179 C 0.16257 0.71102 0.20278 0.0
N180 N 0.13287 0.68117 0.18883 0.0
N181 N 0.1297 0.69797 0.18548 0.0
C182 C 0.1628 0.67454 0.20492 0.0
H183 H 0.15939 0.66327 0.18749 0.0
H184 H 0.18072 0.68455 0.20808 0.0
H185 H 0.15514 0.66446 0.22333 0.0
C186 C 0.09964 0.63569 0.09925 0.0
N187 N 0.0969 0.63348 0.12638 0.0
N188 N 0.11164 0.65157 0.13838 0.0
C189 C 0.12441 0.66588 0.11898 0.0
C190 C 0.11716 0.65621 0.09368 0.0
C191 C 0.08569 0.61842 0.07904 0.0
H192 H 0.06821 0.6112 0.08464 0.0
H193 H 0.08993 0.60526 0.07944 0.0
H194 H 0.08817 0.62513 0.05808 0.0
O195 O 0.05938 0.61701 0.17065 0.0
O196 O 0.08327 0.64696 0.19261 0.0
H197 H 0.13846 0.69917 0.13146 0.0
H198 H 0.15407 0.69468 0.10583 0.0
C199 C 0.14397 0.68779 0.12444 0.0
H200 H 0.15408 0.68636 0.14068 0.0
H201 H 0.11554 0.69675 0.17715 0.0
O202 O 0.057 0.5846 0.12549 0.0
C203 C 0.06366 0.63213 0.18776 0.0
Co204 Co 0.91948 0.53303 0.34574 0.0
Co205 Co 0.88736 0.54443 0.31591 0.0
C206 C 0.88678 0.50242 0.30487 0.0
O207 O 0.90201 0.50731 0.32214 0.0
O208 O 0.87933 0.51525 0.30006 0.0
C209 C 0.93537 0.50885 0.37652 0.0
O210 O 0.9165 0.49151 0.37062 0.0
C211 C 0.84635 0.54198 0.29775 0.0
C212 C 0.85706 0.57716 0.29442 0.0
C213 C 0.83899 0.55644 0.29174 0.0
N214 N 0.86776 0.55372 0.3038 0.0
N215 N 0.87408 0.5747 0.30152 0.0
C216 C 0.83307 0.51762 0.3 0.0
H217 H 0.84066 0.51154 0.31481 0.0
H218 H 0.81607 0.5124 0.30637 0.0
H219 H 0.83256 0.51029 0.27982 0.0
C220 C 0.89809 0.53838 0.39411 0.0
N221 N 0.90102 0.53898 0.36702 0.0
N222 N 0.88731 0.54378 0.35493 0.0
C223 C 0.87519 0.54646 0.37425 0.0
C224 C 0.88161 0.54301 0.3996 0.0
C225 C 0.91076 0.53327 0.41433 0.0
H226 H 0.92848 0.54326 0.40984 0.0
H227 H 0.90595 0.51577 0.41249 0.0
H228 H 0.90773 0.53657 0.43552 0.0
O229 O 0.93907 0.55848 0.32323 0.0
O230 O 0.9165 0.56626 0.30101 0.0
H231 H 0.86357 0.56644 0.35666 0.0
H232 H 0.84967 0.55279 0.38772 0.0
C233 C 0.8571 0.55112 0.3686 0.0
H234 H 0.84431 0.53762 0.3563 0.0
H235 H 0.88994 0.58736 0.30544 0.0
O236 O 0.93921 0.52755 0.36855 0.0
C237 C 0.93573 0.56997 0.30607 0.0
Co238 Co 0.38371 0.92434 0.35093 0.0
Co239 Co 0.344 0.88689 0.32007 0.0
C240 C 0.38833 0.8946 0.30956 0.0
O241 O 0.39555 0.9107 0.326 0.0
O242 O 0.36787 0.88241 0.30535 0.0
C243 C 0.42221 0.94096 0.38326 0.0
O244 O 0.41954 0.92136 0.37928 0.0
C245 C 0.30975 0.84611 0.2945 0.0
C246 C 0.28026 0.84792 0.30528 0.0
C247 C 0.28715 0.83493 0.29256 0.0
N248 N 0.31595 0.86485 0.30808 0.0
N249 N 0.29827 0.86593 0.31415 0.0
C250 C 0.32511 0.8386 0.28527 0.0
H251 H 0.3356 0.83945 0.3026 0.0
H252 H 0.31621 0.82165 0.27723 0.0
H253 H 0.33599 0.84982 0.2692 0.0
C254 C 0.35795 0.90017 0.39877 0.0
N255 N 0.36066 0.90313 0.37172 0.0
N256 N 0.34407 0.88683 0.35912 0.0
C257 C 0.3304 0.87267 0.37806 0.0
C258 C 0.33878 0.88079 0.40367 0.0
C259 C 0.37354 0.9155 0.4196 0.0
H260 H 0.37987 0.93267 0.41309 0.0
H261 H 0.38753 0.91258 0.42156 0.0
H262 H 0.36556 0.91292 0.43981 0.0
O263 O 0.37421 0.94121 0.32922 0.0
O264 O 0.34817 0.91497 0.30421 0.0
H265 H 0.29676 0.85363 0.36708 0.0
H266 H 0.30595 0.83993 0.3898 0.0
C267 C 0.31063 0.85106 0.37198 0.0
H268 H 0.3138 0.84332 0.35423 0.0
H269 H 0.29849 0.87879 0.32492 0.0
O270 O 0.40815 0.9454 0.37378 0.0
C271 C 0.36023 0.93514 0.31016 0.0
Co272 Co 0.46133 0.38562 0.34565 0.0
Co273 Co 0.45654 0.34521 0.31369 0.0
C274 C 0.49498 0.38863 0.30429 0.0
O275 O 0.4868 0.39644 0.32095 0.0
O276 O 0.48569 0.36812 0.29964 0.0
C277 C 0.48459 0.4239 0.3786 0.0
O278 O 0.50137 0.4212 0.37352 0.0
C279 C 0.46043 0.30752 0.29421 0.0
C280 C 0.42537 0.28293 0.28973 0.0
C281 C 0.44619 0.28577 0.28761 0.0
N282 N 0.44843 0.31696 0.30017 0.0
N283 N 0.42755 0.30223 0.29712 0.0
C284 C 0.48473 0.31865 0.29721 0.0
H285 H 0.49058 0.33266 0.31149 0.0
H286 H 0.48977 0.30696 0.30457 0.0
H287 H 0.49242 0.32496 0.27704 0.0
C288 C 0.45564 0.35758 0.39258 0.0
N289 N 0.45745 0.36142 0.36566 0.0
N290 N 0.45568 0.34428 0.35269 0.0
C291 C 0.45289 0.32897 0.37129 0.0
C292 C 0.45277 0.33698 0.39704 0.0
C293 C 0.45646 0.37335 0.41359 0.0
H294 H 0.47341 0.38731 0.41494 0.0
H295 H 0.45143 0.36562 0.43397 0.0
H296 H 0.44565 0.3798 0.40737 0.0
O297 O 0.43541 0.37813 0.32374 0.0
O298 O 0.4341 0.35161 0.29819 0.0
H299 H 0.44856 0.29758 0.38339 0.0
H300 H 0.46418 0.3091 0.35257 0.0
C301 C 0.45 0.30701 0.36466 0.0
H302 H 0.43504 0.29768 0.35219 0.0
H303 H 0.41472 0.30522 0.30088 0.0
O304 O 0.46587 0.41004 0.36948 0.0
C305 C 0.42699 0.36446 0.3044 0.0
Co306 Co 0.07824 0.46751 0.34887 0.0
Co307 Co 0.10926 0.45555 0.31721 0.0
C308 C 0.11038 0.4979 0.30725 0.0
O309 O 0.09553 0.49312 0.32507 0.0
O310 O 0.11756 0.48493 0.30177 0.0
C311 C 0.06323 0.49226 0.38 0.0
O312 O 0.08197 0.50943 0.37326 0.0
C313 C 0.14925 0.45656 0.29747 0.0
C314 C 0.13713 0.42114 0.29307 0.0
C315 C 0.15569 0.44153 0.29053 0.0
N316 N 0.12789 0.44545 0.30391 0.0
N317 N 0.12073 0.42433 0.30099 0.0
C318 C 0.16335 0.48081 0.30024 0.0
H319 H 0.15613 0.4872 0.3152 0.0
H320 H 0.18013 0.48523 0.30667 0.0
H321 H 0.16434 0.48855 0.28022 0.0
C322 C 0.10002 0.46124 0.39603 0.0
N323 N 0.09676 0.46103 0.36907 0.0
N324 N 0.11001 0.45598 0.35621 0.0
C325 C 0.12215 0.45273 0.37491 0.0
C326 C 0.1162 0.45603 0.40063 0.0
C327 C 0.08801 0.46665 0.41694 0.0
H328 H 0.07016 0.4566 0.41333 0.0
H329 H 0.09271 0.48411 0.41486 0.0
H330 H 0.09174 0.4637 0.43794 0.0
O331 O 0.05788 0.44231 0.32658 0.0
O332 O 0.07974 0.43434 0.30299 0.0
H333 H 0.13262 0.43223 0.356 0.0
H334 H 0.14702 0.44509 0.38713 0.0
C335 C 0.13965 0.44739 0.36836 0.0
H336 H 0.1526 0.46086 0.35618 0.0
H337 H 0.10471 0.41206 0.30503 0.0
O338 O 0.05921 0.47338 0.37259 0.0
C339 C 0.06071 0.43087 0.30882 0.0
Co340 Co 0.60958 0.07461 0.34812 0.0
Co341 Co 0.65258 0.10636 0.31712 0.0
C342 C 0.61102 0.10622 0.30572 0.0
O343 O 0.60115 0.09131 0.32349 0.0
O344 O 0.63129 0.11395 0.30057 0.0
C345 C 0.5707 0.06195 0.37935 0.0
O346 O 0.57415 0.0815 0.37296 0.0
C347 C 0.69114 0.14666 0.29731 0.0
C348 C 0.71529 0.13551 0.29449 0.0
C349 C 0.71283 0.15363 0.29102 0.0
N350 N 0.68135 0.12542 0.30427 0.0
N351 N 0.69582 0.11883 0.30229 0.0
C352 C 0.6803 0.1602 0.29898 0.0
H353 H 0.66654 0.15291 0.31373 0.0
H354 H 0.69221 0.17723 0.30512 0.0
H355 H 0.67364 0.1606 0.27866 0.0
C356 C 0.63676 0.09744 0.3957 0.0
N357 N 0.63411 0.09384 0.36874 0.0
N358 N 0.65235 0.10751 0.3561 0.0
C359 C 0.6673 0.12029 0.37491 0.0
C360 C 0.65778 0.11435 0.40051 0.0
C361 C 0.61941 0.08493 0.41649 0.0
H362 H 0.61122 0.0672 0.4119 0.0
H363 H 0.60698 0.09015 0.41561 0.0
H364 H 0.6263 0.08781 0.43739 0.0
O365 O 0.61528 0.05427 0.3268 0.0
O366 O 0.64522 0.07681 0.30385 0.0
H367 H 0.69876 0.1319 0.35687 0.0
H368 H 0.69911 0.14648 0.38734 0.0
C369 C 0.68984 0.13846 0.36853 0.0
H370 H 0.68876 0.1508 0.35571 0.0
H371 H 0.69251 0.10302 0.30688 0.0
O372 O 0.58423 0.05619 0.37153 0.0
C373 C 0.63006 0.05754 0.30956 0.0
Co374 Co 0.533 0.61086 0.35111 0.0
Co375 Co 0.54133 0.65353 0.3214 0.0
C376 C 0.50078 0.61093 0.31087 0.0
O377 O 0.50673 0.60138 0.328 0.0
O378 O 0.5126 0.6313 0.30588 0.0
C379 C 0.50939 0.57169 0.38257 0.0
O380 O 0.49267 0.5746 0.37809 0.0
C381 C 0.53578 0.68925 0.29942 0.0
C382 C 0.56931 0.71736 0.30374 0.0
C383 C 0.54837 0.71163 0.29552 0.0
N384 N 0.5487 0.68207 0.30966 0.0
N385 N 0.56875 0.69891 0.31196 0.0
C386 C 0.51164 0.67515 0.29542 0.0
H387 H 0.50441 0.66397 0.31306 0.0
H388 H 0.50358 0.68511 0.29304 0.0
H389 H 0.5086 0.66499 0.27691 0.0
C390 C 0.53967 0.63801 0.39959 0.0
N391 N 0.53839 0.63507 0.37247 0.0
N392 N 0.54099 0.65285 0.36038 0.0
C393 C 0.54344 0.66754 0.37972 0.0
C394 C 0.54291 0.65864 0.40506 0.0
C395 C 0.53715 0.62106 0.41984 0.0
H396 H 0.51989 0.60761 0.41985 0.0
H397 H 0.54154 0.62789 0.44073 0.0
H398 H 0.5476 0.61414 0.41382 0.0
O399 O 0.55843 0.61791 0.32798 0.0
O400 O 0.56424 0.64784 0.3061 0.0
H401 H 0.56284 0.70059 0.36642 0.0
H402 H 0.54375 0.69689 0.39306 0.0
C403 C 0.54611 0.68958 0.37425 0.0
H404 H 0.53418 0.68822 0.35861 0.0
H405 H 0.58197 0.69785 0.31964 0.0
O406 O 0.52816 0.58573 0.37373 0.0
C407 C 0.56911 0.63303 0.31078 0.0
Co408 Co 0.53105 0.92079 0.8482 0.0
Co409 Co 0.54101 0.88838 0.81653 0.0
C410 C 0.49969 0.88904 0.80681 0.0
O411 O 0.50519 0.90418 0.82443 0.0
O412 O 0.51193 0.88103 0.80136 0.0
C413 C 0.507 0.93572 0.88061 0.0
O414 O 0.48984 0.91673 0.87465 0.0
C415 C 0.53939 0.84983 0.79051 0.0
C416 C 0.57447 0.85973 0.79172 0.0
C417 C 0.55422 0.84327 0.78305 0.0
N418 N 0.55049 0.86929 0.80312 0.0
N419 N 0.5714 0.87504 0.80384 0.0
C420 C 0.51556 0.83905 0.78377 0.0
H421 H 0.50601 0.83583 0.80287 0.0
H422 H 0.5098 0.82361 0.7723 0.0
H423 H 0.51257 0.85037 0.77125 0.0
C424 C 0.53557 0.89771 0.89525 0.0
N425 N 0.53651 0.9015 0.86836 0.0
N426 N 0.5403 0.88741 0.8554 0.0
C427 C 0.54173 0.87399 0.87387 0.0
C428 C 0.5387 0.8801 0.89965 0.0
C429 C 0.53135 0.91049 0.91632 0.0
H430 H 0.54129 0.92821 0.91184 0.0
H431 H 0.51382 0.90577 0.91567 0.0
H432 H 0.53534 0.90736 0.9371 0.0
O433 O 0.5565 0.9406 0.82593 0.0
O434 O 0.56286 0.91765 0.80226 0.0
H435 H 0.56096 0.86082 0.85831 0.0
H436 H 0.54222 0.84459 0.88501 0.0
C437 C 0.54438 0.85483 0.86685 0.0
H438 H 0.53229 0.84479 0.85102 0.0
H439 H 0.58363 0.88964 0.81228 0.0
O440 O 0.52572 0.94007 0.87206 0.0
C441 C 0.5673 0.93701 0.80799 0.0
Co442 Co 0.60633 0.52484 0.8493 0.0
Co443 Co 0.64921 0.536 0.81785 0.0
C444 C 0.60741 0.4945 0.80702 0.0
O445 O 0.59746 0.4994 0.82491 0.0
O446 O 0.62768 0.50709 0.80195 0.0
C447 C 0.56698 0.50059 0.88148 0.0
O448 O 0.56868 0.48333 0.8757 0.0
C449 C 0.68658 0.53524 0.79164 0.0
C450 C 0.71137 0.57043 0.79346 0.0
C451 C 0.70794 0.55038 0.78442 0.0
N452 N 0.67792 0.54597 0.8045 0.0
N453 N 0.69284 0.56694 0.80557 0.0
C454 C 0.67383 0.51148 0.78442 0.0
H455 H 0.65929 0.50835 0.77233 0.0
H456 H 0.66789 0.50165 0.80337 0.0
H457 H 0.68361 0.50615 0.77236 0.0
C458 C 0.63409 0.52994 0.89656 0.0
N459 N 0.63108 0.53034 0.8696 0.0
N460 N 0.64925 0.53497 0.85674 0.0
C461 C 0.66451 0.5377 0.87534 0.0
C462 C 0.6553 0.53447 0.90111 0.0
C463 C 0.61708 0.52587 0.91755 0.0
H464 H 0.60933 0.53581 0.91283 0.0
H465 H 0.60422 0.50836 0.91695 0.0
H466 H 0.62412 0.52997 0.93836 0.0
O467 O 0.61188 0.55051 0.82742 0.0
O468 O 0.6416 0.55777 0.80407 0.0
H469 H 0.69669 0.55946 0.86065 0.0
H470 H 0.69557 0.54092 0.88678 0.0
C471 C 0.68715 0.54252 0.86859 0.0
H472 H 0.68644 0.53118 0.85246 0.0
H473 H 0.69021 0.57894 0.81423 0.0
O474 O 0.58151 0.51926 0.873 0.0
C475 C 0.62638 0.56176 0.8098 0.0
Co476 Co 0.07837 0.60903 0.84665 0.0
Co477 Co 0.10987 0.6521 0.81566 0.0
C478 C 0.11074 0.61082 0.8053 0.0
O479 O 0.09569 0.60066 0.82288 0.0
O480 O 0.11808 0.63103 0.80012 0.0
C481 C 0.06329 0.56958 0.87864 0.0
O482 O 0.08224 0.57127 0.87285 0.0
C483 C 0.15007 0.691 0.79634 0.0
C484 C 0.13822 0.71455 0.79237 0.0
C485 C 0.15668 0.71255 0.7897 0.0
N486 N 0.1287 0.68085 0.80274 0.0
N487 N 0.1217 0.69496 0.80009 0.0
C488 C 0.16398 0.68062 0.79883 0.0
H489 H 0.15665 0.66689 0.81359 0.0
H490 H 0.18079 0.69281 0.80538 0.0
H491 H 0.16495 0.67401 0.77869 0.0
C492 C 0.10025 0.6366 0.89423 0.0
N493 N 0.09693 0.63383 0.86724 0.0
N494 N 0.11045 0.65214 0.85463 0.0
C495 C 0.12286 0.66726 0.87349 0.0
C496 C 0.11679 0.65779 0.89908 0.0
C497 C 0.0881 0.61909 0.91496 0.0
H498 H 0.07028 0.6111 0.91097 0.0
H499 H 0.09309 0.60653 0.91319 0.0
H500 H 0.09146 0.62575 0.93599 0.0
O501 O 0.05826 0.61424 0.82436 0.0
O502 O 0.08053 0.64417 0.80123 0.0
H503 H 0.13434 0.6985 0.85488 0.0
H504 H 0.14838 0.69936 0.88606 0.0
C505 C 0.14088 0.68989 0.86719 0.0
H506 H 0.15363 0.68897 0.85505 0.0
H507 H 0.10572 0.69132 0.80416 0.0
O508 O 0.05914 0.58411 0.87015 0.0
C509 C 0.06138 0.62872 0.80678 0.0
Co510 Co 0.46579 0.07851 0.85054 0.0
Co511 Co 0.45589 0.11173 0.82094 0.0
C512 C 0.49669 0.11024 0.80901 0.0
O513 O 0.49149 0.09506 0.82645 0.0
O514 O 0.48444 0.1184 0.80449 0.0
C515 C 0.48945 0.06255 0.88178 0.0
O516 O 0.50669 0.08166 0.87648 0.0
C517 C 0.45933 0.15134 0.79632 0.0
C518 C 0.42636 0.14631 0.80489 0.0
C519 C 0.44634 0.16078 0.79338 0.0
N520 N 0.44755 0.13212 0.80921 0.0
N521 N 0.42781 0.12912 0.81402 0.0
C522 C 0.48285 0.1609 0.78859 0.0
H523 H 0.48412 0.15144 0.77133 0.0
H524 H 0.49208 0.15947 0.80599 0.0
H525 H 0.49025 0.17833 0.7826 0.0
C526 C 0.46168 0.10065 0.89908 0.0
N527 N 0.46098 0.0977 0.87197 0.0
N528 N 0.45718 0.11211 0.85989 0.0
C529 C 0.45554 0.1249 0.8792 0.0
C530 C 0.45832 0.11798 0.90453 0.0
C531 C 0.46537 0.08702 0.91938 0.0
H532 H 0.45517 0.06947 0.91409 0.0
H533 H 0.4828 0.09139 0.91868 0.0
H534 H 0.46134 0.08967 0.94037 0.0
O535 O 0.43996 0.05952 0.82826 0.0
O536 O 0.4332 0.08294 0.80635 0.0
H537 H 0.4354 0.13824 0.86805 0.0
H538 H 0.45673 0.15481 0.89184 0.0
C539 C 0.45268 0.14414 0.87363 0.0
H540 H 0.46327 0.15378 0.8564 0.0
H541 H 0.41543 0.11545 0.82396 0.0
O542 O 0.47082 0.05847 0.87325 0.0
C543 C 0.42882 0.06346 0.81123 0.0
Co544 Co 0.38481 0.4637 0.85139 0.0
Co545 Co 0.3426 0.45393 0.8195 0.0
C546 C 0.3845 0.49569 0.81093 0.0
O547 O 0.39413 0.49006 0.82839 0.0
O548 O 0.36432 0.48332 0.80521 0.0
C549 C 0.42387 0.48709 0.88407 0.0
O550 O 0.42228 0.50448 0.87872 0.0
C551 C 0.30599 0.45585 0.79314 0.0
C552 C 0.28097 0.4207 0.79305 0.0
C553 C 0.28483 0.44108 0.78485 0.0
N554 N 0.31417 0.44459 0.80573 0.0
N555 N 0.2991 0.42364 0.80572 0.0
C556 C 0.31909 0.4798 0.78704 0.0
H557 H 0.33311 0.48288 0.77385 0.0
H558 H 0.32586 0.48897 0.8063 0.0
H559 H 0.30932 0.4859 0.77651 0.0
C560 C 0.35634 0.45753 0.89836 0.0
N561 N 0.35969 0.45749 0.87143 0.0
N562 N 0.34194 0.45385 0.85831 0.0
C563 C 0.32673 0.45172 0.87667 0.0
C564 C 0.3354 0.45387 0.90258 0.0
C565 C 0.3733 0.46209 0.91959 0.0
H566 H 0.38101 0.452 0.91559 0.0
H567 H 0.3862 0.47955 0.9184 0.0
H568 H 0.36618 0.45858 0.94039 0.0
O569 O 0.37957 0.43871 0.8283 0.0
O570 O 0.35021 0.43234 0.80483 0.0
H571 H 0.29458 0.4326 0.8604 0.0
H572 H 0.29653 0.45061 0.88777 0.0
C573 C 0.30493 0.44901 0.86953 0.0
H574 H 0.30705 0.46143 0.85415 0.0
H575 H 0.3014 0.41129 0.81391 0.0
O576 O 0.40927 0.46856 0.87531 0.0
C577 C 0.36523 0.42799 0.81029 0.0
Co578 Co 0.91768 0.38762 0.85003 0.0
Co579 Co 0.88529 0.34486 0.81913 0.0
C580 C 0.88463 0.38633 0.80999 0.0
O581 O 0.90002 0.39626 0.82722 0.0
O582 O 0.87695 0.3661 0.80458 0.0
C583 C 0.93351 0.4269 0.88251 0.0
O584 O 0.91441 0.4252 0.8777 0.0
C585 C 0.84491 0.30599 0.79998 0.0
C586 C 0.8568 0.2825 0.79552 0.0
C587 C 0.83832 0.28448 0.79316 0.0
N588 N 0.86631 0.31615 0.80619 0.0
N589 N 0.87332 0.30207 0.80325 0.0
C590 C 0.83096 0.31631 0.80279 0.0
H591 H 0.83815 0.32974 0.818 0.0
H592 H 0.81408 0.30399 0.80894 0.0
H593 H 0.83024 0.32334 0.78288 0.0
C594 C 0.89794 0.35922 0.8977 0.0
N595 N 0.89962 0.36266 0.87068 0.0
N596 N 0.88556 0.34456 0.85808 0.0
C597 C 0.87426 0.329 0.87697 0.0
C598 C 0.88183 0.33784 0.90257 0.0
C599 C 0.91146 0.37621 0.91841 0.0
H600 H 0.90738 0.38946 0.9178 0.0
H601 H 0.90852 0.36932 0.93931 0.0
H602 H 0.92904 0.38345 0.91328 0.0
O603 O 0.9373 0.38248 0.82659 0.0
O604 O 0.91433 0.35277 0.8036 0.0
H605 H 0.86382 0.29788 0.85863 0.0
H606 H 0.84944 0.2966 0.88965 0.0
C607 C 0.85677 0.30611 0.87075 0.0
H608 H 0.8438 0.30647 0.85843 0.0
H609 H 0.88934 0.30573 0.80711 0.0
O610 O 0.93742 0.41236 0.87342 0.0
C611 C 0.93365 0.36806 0.80868 0.0
Co612 Co 0.07787 0.46689 0.64797 0.0
Co613 Co 0.10955 0.45539 0.67859 0.0
C614 C 0.11059 0.49769 0.68874 0.0
O615 O 0.09542 0.49276 0.67135 0.0
O616 O 0.11792 0.48481 0.6939 0.0
C617 C 0.0622 0.49086 0.61613 0.0
O618 O 0.08114 0.50827 0.62149 0.0
C619 C 0.14976 0.45679 0.69806 0.0
C620 C 0.13806 0.42141 0.70173 0.0
C621 C 0.15641 0.44189 0.70475 0.0
N622 N 0.12847 0.44552 0.69133 0.0
N623 N 0.12156 0.42442 0.69378 0.0
C624 C 0.16358 0.48112 0.6959 0.0
H625 H 0.15654 0.48751 0.68072 0.0
H626 H 0.18059 0.48592 0.69006 0.0
H627 H 0.16392 0.48852 0.71597 0.0
C628 C 0.09921 0.4607 0.60012 0.0
N629 N 0.09622 0.46048 0.62716 0.0
N630 N 0.10973 0.45562 0.63964 0.0
C631 C 0.12179 0.4525 0.62065 0.0
C632 C 0.11554 0.45575 0.59509 0.0
C633 C 0.08669 0.46566 0.57951 0.0
H634 H 0.06895 0.45589 0.58401 0.0
H635 H 0.09166 0.48323 0.58088 0.0
H636 H 0.08968 0.46199 0.55849 0.0
O637 O 0.05796 0.4418 0.67078 0.0
O638 O 0.08037 0.43415 0.69355 0.0
H639 H 0.13284 0.4322 0.63866 0.0
H640 H 0.14729 0.4459 0.6079 0.0
C641 C 0.13963 0.44759 0.62681 0.0
H642 H 0.15231 0.46096 0.63939 0.0
H643 H 0.10564 0.41205 0.68949 0.0
O644 O 0.05833 0.47231 0.62475 0.0
C645 C 0.0612 0.43052 0.68835 0.0
Co646 Co 0.60835 0.07966 0.64666 0.0
Co647 Co 0.65107 0.11166 0.67798 0.0
C648 C 0.60906 0.11097 0.68884 0.0
O649 O 0.59919 0.09608 0.671 0.0
O650 O 0.62935 0.11878 0.69384 0.0
C651 C 0.56926 0.06478 0.61438 0.0
O652 O 0.57132 0.08393 0.61992 0.0
C653 C 0.6878 0.15017 0.70418 0.0
C654 C 0.71313 0.14046 0.70299 0.0
C655 C 0.70916 0.15678 0.7118 0.0
N656 N 0.67963 0.13081 0.69136 0.0
N657 N 0.69487 0.12517 0.69064 0.0
C658 C 0.67454 0.16069 0.71112 0.0
H659 H 0.66067 0.14947 0.72431 0.0
H660 H 0.66757 0.16329 0.69218 0.0
H661 H 0.68424 0.17642 0.722 0.0
C662 C 0.6361 0.10232 0.59933 0.0
N663 N 0.63307 0.09895 0.62629 0.0
N664 N 0.65116 0.11272 0.63913 0.0
C665 C 0.66632 0.12543 0.62051 0.0
C666 C 0.65719 0.11919 0.59476 0.0
C667 C 0.61904 0.08959 0.57832 0.0
H668 H 0.61133 0.07185 0.58273 0.0
H669 H 0.60616 0.0942 0.57928 0.0
H670 H 0.62605 0.09283 0.55747 0.0
O671 O 0.61414 0.0597 0.66853 0.0
O672 O 0.64386 0.08236 0.69172 0.0
H673 H 0.69856 0.13673 0.63557 0.0
H674 H 0.69709 0.1536 0.60894 0.0
C675 C 0.68873 0.14367 0.62723 0.0
H676 H 0.68764 0.15429 0.64309 0.0
H677 H 0.69263 0.11065 0.68211 0.0
O678 O 0.58358 0.06039 0.62301 0.0
C679 C 0.62875 0.06308 0.68602 0.0
Co680 Co 0.52596 0.60793 0.65177 0.0
Co681 Co 0.53798 0.65089 0.68335 0.0
C682 C 0.49555 0.60986 0.69323 0.0
O683 O 0.50036 0.59975 0.67549 0.0
O684 O 0.50853 0.62999 0.69869 0.0
C685 C 0.5009 0.56905 0.61927 0.0
O686 O 0.48404 0.57141 0.62517 0.0
C687 C 0.53735 0.69018 0.70237 0.0
C688 C 0.57271 0.71282 0.70849 0.0
C689 C 0.55248 0.71147 0.70983 0.0
N690 N 0.54826 0.67957 0.69677 0.0
N691 N 0.56934 0.69312 0.70072 0.0
C692 C 0.51326 0.68052 0.6983 0.0
H693 H 0.50708 0.66684 0.68346 0.0
H694 H 0.50946 0.69314 0.69107 0.0
H695 H 0.5048 0.67397 0.71802 0.0
C696 C 0.53307 0.63625 0.60453 0.0
N697 N 0.53262 0.63299 0.63153 0.0
N698 N 0.53783 0.65133 0.64439 0.0
C699 C 0.54196 0.66698 0.62568 0.0
C700 C 0.53889 0.65781 0.59995 0.0
C701 C 0.52839 0.61908 0.58353 0.0
H702 H 0.51082 0.60646 0.58449 0.0
H703 H 0.5323 0.62604 0.56267 0.0
H704 H 0.53811 0.61104 0.588 0.0
O705 O 0.55109 0.61252 0.6742 0.0
O706 O 0.55891 0.64236 0.69767 0.0
H707 H 0.5518 0.70008 0.61341 0.0
H708 H 0.53515 0.69046 0.64375 0.0
C709 C 0.54848 0.69015 0.63218 0.0
H710 H 0.56333 0.69746 0.64512 0.0
H711 H 0.58148 0.68905 0.69748 0.0
O712 O 0.51974 0.58305 0.62789 0.0
C713 C 0.56241 0.6268 0.69202 0.0
Co714 Co 0.91655 0.52752 0.64752 0.0
Co715 Co 0.88528 0.53959 0.67821 0.0
C716 C 0.88438 0.49746 0.68933 0.0
O717 O 0.89929 0.50208 0.67163 0.0
O718 O 0.87711 0.51042 0.69431 0.0
C719 C 0.93184 0.50299 0.61613 0.0
O720 O 0.91296 0.48568 0.62207 0.0
C721 C 0.84522 0.53861 0.69758 0.0
C722 C 0.85717 0.57405 0.70112 0.0
C723 C 0.83871 0.55364 0.70415 0.0
N724 N 0.86654 0.54972 0.69091 0.0
N725 N 0.87359 0.57086 0.69329 0.0
C726 C 0.83126 0.5143 0.69544 0.0
H727 H 0.83837 0.50777 0.68051 0.0
H728 H 0.81435 0.50964 0.68928 0.0
H729 H 0.83061 0.5069 0.7156 0.0
C730 C 0.89492 0.53326 0.59971 0.0
N731 N 0.898 0.53363 0.62675 0.0
N732 N 0.88467 0.53876 0.63922 0.0
C733 C 0.87267 0.54193 0.62022 0.0
C734 C 0.87877 0.53844 0.59468 0.0
C735 C 0.90729 0.52804 0.57912 0.0
H736 H 0.92507 0.53801 0.58325 0.0
H737 H 0.90247 0.51054 0.58096 0.0
H738 H 0.90399 0.53127 0.55803 0.0
O739 O 0.93674 0.55303 0.66954 0.0
O740 O 0.91465 0.56109 0.69242 0.0
H741 H 0.86234 0.56287 0.63815 0.0
H742 H 0.84774 0.54931 0.6074 0.0
C743 C 0.85522 0.54743 0.62633 0.0
H744 H 0.84234 0.53426 0.63893 0.0
H745 H 0.88956 0.58314 0.68901 0.0
O746 O 0.93579 0.52169 0.62425 0.0
C747 C 0.93374 0.56463 0.6869 0.0
Co748 Co 0.38669 0.92151 0.64915 0.0
Co749 Co 0.34449 0.88867 0.68077 0.0
C750 C 0.38662 0.88953 0.68997 0.0
O751 O 0.39615 0.90482 0.67252 0.0
O752 O 0.36636 0.88138 0.69551 0.0
C753 C 0.42549 0.93677 0.61617 0.0
O754 O 0.42352 0.9176 0.62128 0.0
C755 C 0.30779 0.84983 0.7066 0.0
C756 C 0.28262 0.85977 0.7064 0.0
C757 C 0.2865 0.84325 0.71454 0.0
N758 N 0.31601 0.86938 0.69426 0.0
N759 N 0.30086 0.87515 0.69411 0.0
C760 C 0.3209 0.839 0.7127 0.0
H761 H 0.33497 0.84997 0.72579 0.0
H762 H 0.3276 0.83652 0.69342 0.0
H763 H 0.31114 0.82316 0.72332 0.0
C764 C 0.35888 0.89858 0.60203 0.0
N765 N 0.36188 0.90225 0.62894 0.0
N766 N 0.34411 0.88798 0.64194 0.0
C767 C 0.32922 0.87458 0.6235 0.0
C768 C 0.33817 0.88093 0.59768 0.0
C769 C 0.37583 0.91128 0.58088 0.0
H770 H 0.38364 0.92903 0.58532 0.0
H771 H 0.38861 0.90654 0.58151 0.0
H772 H 0.36864 0.90808 0.56014 0.0
O773 O 0.38096 0.9411 0.6719 0.0
O774 O 0.35171 0.91778 0.69536 0.0
H775 H 0.29693 0.86097 0.63959 0.0
H776 H 0.2994 0.84513 0.61231 0.0
C777 C 0.30758 0.85522 0.63056 0.0
H778 H 0.3099 0.8451 0.64601 0.0
H779 H 0.30316 0.88982 0.68602 0.0
O780 O 0.41124 0.94108 0.62535 0.0
C781 C 0.36652 0.93724 0.68988 0.0
Co782 Co 0.4622 0.38562 0.64614 0.0
Co783 Co 0.45372 0.34287 0.67558 0.0
C784 C 0.49475 0.3852 0.68549 0.0
O785 O 0.48884 0.39497 0.66861 0.0
O786 O 0.48274 0.36484 0.69045 0.0
C787 C 0.48464 0.42491 0.61398 0.0
O788 O 0.50195 0.42281 0.61756 0.0
C789 C 0.45805 0.30693 0.69935 0.0
C790 C 0.42483 0.27891 0.69238 0.0
C791 C 0.44519 0.28454 0.70273 0.0
N792 N 0.44584 0.31424 0.68729 0.0
N793 N 0.42596 0.29745 0.68344 0.0
C794 C 0.4818 0.32098 0.70592 0.0
H795 H 0.49046 0.33153 0.68818 0.0
H796 H 0.48941 0.31102 0.71127 0.0
H797 H 0.48359 0.33181 0.7233 0.0
C798 C 0.45465 0.35834 0.59753 0.0
N799 N 0.45621 0.36129 0.62466 0.0
N800 N 0.4536 0.34346 0.63662 0.0
C801 C 0.45095 0.32876 0.61718 0.0
C802 C 0.45127 0.33767 0.59192 0.0
C803 C 0.45708 0.37533 0.5774 0.0
H804 H 0.47432 0.38884 0.57742 0.0
H805 H 0.45271 0.36859 0.55648 0.0
H806 H 0.44658 0.38217 0.58354 0.0
O807 O 0.43729 0.37899 0.67 0.0
O808 O 0.43148 0.34906 0.6918 0.0
H809 H 0.4517 0.29998 0.6038 0.0
H810 H 0.45957 0.3078 0.63891 0.0
C811 C 0.44834 0.30671 0.62244 0.0
H812 H 0.43128 0.29535 0.62891 0.0
H813 H 0.41325 0.29864 0.6743 0.0
O814 O 0.46637 0.41052 0.62366 0.0
C815 C 0.42683 0.36404 0.68745 0.0
H816 H 0.45962 0.02193 0.09746 0.0
H817 H 0.54579 0.98126 0.10362 0.0
H818 H 0.52936 0.06492 0.10461 0.0
H819 H 0.47584 0.93827 0.10059 0.0
H820 H 0.54061 0.01208 0.09279 0.0
H821 H 0.46586 0.99169 0.08717 0.0
C822 C 0.47628 0.0251 0.0964 0.0
C823 C 0.49398 0.04586 0.10259 0.0
C824 C 0.5264 0.99586 0.09406 0.0
C825 C 0.50121 0.01125 0.0911 0.0
C826 C 0.52934 0.97823 0.10026 0.0
C827 C 0.51117 0.95723 0.10367 0.0
C828 C 0.50513 0.99249 0.09145 0.0
C829 C 0.49029 0.95424 0.09861 0.0
C830 C 0.47983 0.0078 0.09053 0.0
C831 C 0.51521 0.0491 0.10042 0.0
N832 N 0.48782 0.97175 0.09322 0.0
N833 N 0.51822 0.03187 0.09536 0.0
H834 H 0.53744 0.47848 0.09555 0.0
H835 H 0.46407 0.53441 0.10308 0.0
H836 H 0.56322 0.54818 0.10103 0.0
H837 H 0.4384 0.46462 0.10043 0.0
H838 H 0.5002 0.54008 0.09151 0.0
H839 H 0.50126 0.47356 0.08636 0.0
C840 C 0.53559 0.4928 0.09432 0.0
C841 C 0.55327 0.51372 0.09974 0.0
C842 C 0.48659 0.52352 0.09302 0.0
C843 C 0.51188 0.5082 0.08953 0.0
C844 C 0.46593 0.52027 0.09959 0.0
C845 C 0.4483 0.49902 0.10338 0.0
C846 C 0.48962 0.50538 0.09038 0.0
C847 C 0.45163 0.48132 0.09827 0.0
C848 C 0.5149 0.48997 0.08912 0.0
C849 C 0.54996 0.53169 0.09753 0.0
N850 N 0.47196 0.4849 0.09248 0.0
N851 N 0.52958 0.52848 0.09307 0.0
H852 H 0.06021 0.53216 0.10168 0.0
H853 H 0.93059 0.46486 0.10369 0.0
H854 H 0.0193 0.56151 0.10484 0.0
H855 H 0.97149 0.43549 0.10089 0.0
H856 H 0.96257 0.50033 0.09347 0.0
H857 H 0.028 0.49702 0.0909 0.0
C858 C 0.04453 0.53131 0.09965 0.0
C859 C 0.04235 0.54967 0.10484 0.0
C860 C 0.96448 0.48606 0.09464 0.0
C861 C 0.00541 0.5095 0.09275 0.0
C862 C 0.9462 0.46578 0.10041 0.0
C863 C 0.94848 0.4473 0.10385 0.0
C864 C 0.98517 0.48784 0.09247 0.0
C865 C 0.96906 0.44941 0.09903 0.0
C866 C 0.02612 0.51123 0.09352 0.0
C867 C 0.02167 0.54767 0.10158 0.0
N868 N 0.98668 0.46939 0.09407 0.0
N869 N 0.00394 0.52786 0.0962 0.0
H870 H 0.02279 0.46013 0.3965 0.0
H871 H 0.9758 0.54147 0.39217 0.0
H872 H 0.06269 0.53029 0.38938 0.0
H873 H 0.93597 0.47114 0.38805 0.0
H874 H 0.00739 0.53771 0.40347 0.0
H875 H 0.99109 0.4642 0.40588 0.0
C876 C 0.02499 0.47644 0.39737 0.0
C877 C 0.04532 0.49488 0.39146 0.0
C878 C 0.99168 0.52309 0.40051 0.0
C879 C 0.00903 0.49961 0.40201 0.0
C880 C 0.97361 0.5252 0.39405 0.0
C881 C 0.95332 0.50658 0.38849 0.0
C882 C 0.98948 0.50221 0.4013 0.0
C883 C 0.95138 0.48594 0.39173 0.0
C884 C 0.00684 0.47873 0.40271 0.0
C885 C 0.04725 0.5156 0.39337 0.0
N886 N 0.96934 0.48432 0.39748 0.0
N887 N 0.02923 0.51738 0.39801 0.0
H888 H 0.43317 0.98335 0.39352 0.0
H889 H 0.5594 0.0211 0.39776 0.0
H890 H 0.45862 0.93912 0.39821 0.0
H891 H 0.53417 0.06524 0.38861 0.0
H892 H 0.52274 0.99178 0.40922 0.0
H893 H 0.46968 0.01387 0.40297 0.0
C894 C 0.44636 0.98 0.39699 0.0
C895 C 0.44296 0.95871 0.39439 0.0
C896 C 0.52525 0.00796 0.40514 0.0
C897 C 0.48482 0.9936 0.40501 0.0
C898 C 0.5462 0.02472 0.39858 0.0
C899 C 0.54973 0.04551 0.39156 0.0
C900 C 0.50768 0.01196 0.40443 0.0
C901 C 0.53212 0.04937 0.39345 0.0
C902 C 0.46722 0.99745 0.40238 0.0
C903 C 0.46057 0.95531 0.39955 0.0
N904 N 0.51175 0.03262 0.39923 0.0
N905 N 0.48083 0.97263 0.40414 0.0
H906 H 0.45338 0.43421 0.39298 0.0
H907 H 0.54045 0.56093 0.39588 0.0
H908 H 0.52328 0.46059 0.3916 0.0
H909 H 0.47057 0.53463 0.3941 0.0
H910 H 0.5344 0.52437 0.40516 0.0
H911 H 0.45933 0.47045 0.40422 0.0
C912 C 0.47 0.44756 0.39547 0.0
C913 C 0.48789 0.44449 0.39069 0.0
C914 C 0.52037 0.52663 0.40318 0.0
C915 C 0.4948 0.48606 0.40333 0.0
C916 C 0.52382 0.54752 0.39787 0.0
C917 C 0.50597 0.55074 0.39355 0.0
C918 C 0.49894 0.50881 0.40394 0.0
C919 C 0.48481 0.53284 0.39685 0.0
C920 C 0.47338 0.46826 0.40189 0.0
C921 C 0.50901 0.46228 0.39466 0.0
N922 N 0.48187 0.51256 0.40137 0.0
N923 N 0.5119 0.4824 0.40028 0.0
H924 H 0.45706 0.02192 0.89715 0.0
H925 H 0.53916 0.97604 0.89731 0.0
H926 H 0.52733 0.06234 0.89333 0.0
H927 H 0.46895 0.93569 0.89195 0.0
H928 H 0.53491 0.00738 0.90846 0.0
H929 H 0.46114 0.99042 0.9078 0.0
C930 C 0.47338 0.02426 0.89898 0.0
C931 C 0.49189 0.04468 0.89364 0.0
C932 C 0.52041 0.9916 0.90529 0.0
C933 C 0.49664 0.00863 0.90565 0.0
C934 C 0.52281 0.97367 0.89892 0.0
C935 C 0.50438 0.95334 0.89297 0.0
C936 C 0.49945 0.9892 0.90554 0.0
C937 C 0.48362 0.95115 0.89591 0.0
C938 C 0.47569 0.00624 0.90507 0.0
C939 C 0.51261 0.04682 0.89683 0.0
N940 N 0.48172 0.96898 0.9015 0.0
N941 N 0.51442 0.02891 0.90215 0.0
H942 H 0.4617 0.52475 0.89738 0.0
H943 H 0.52925 0.46273 0.89453 0.0
H944 H 0.43244 0.45446 0.89704 0.0
H945 H 0.55849 0.53301 0.89595 0.0
H946 H 0.49396 0.45931 0.90578 0.0
H947 H 0.49711 0.52801 0.90727 0.0
C948 C 0.46263 0.50999 0.89989 0.0
C949 C 0.4442 0.48932 0.89568 0.0
C950 C 0.50817 0.47549 0.90408 0.0
C951 C 0.48468 0.49292 0.90668 0.0
C952 C 0.52835 0.47745 0.89769 0.0
C953 C 0.54672 0.49817 0.89361 0.0
C954 C 0.50638 0.4944 0.9062 0.0
C955 C 0.54464 0.51668 0.89831 0.0
C956 C 0.48288 0.51185 0.90549 0.0
C957 C 0.44632 0.47075 0.89953 0.0
N958 N 0.52476 0.51435 0.90388 0.0
N959 N 0.46627 0.473 0.90432 0.0
H960 H 0.93389 0.46483 0.89592 0.0
H961 H 0.06337 0.53184 0.89174 0.0
H962 H 0.97467 0.43529 0.8952 0.0
H963 H 0.02259 0.56136 0.89363 0.0
H964 H 0.03151 0.49668 0.90347 0.0
H965 H 0.96618 0.50019 0.90565 0.0
C966 C 0.94955 0.46569 0.89832 0.0
C967 C 0.95168 0.4472 0.89403 0.0
C968 C 0.0296 0.51093 0.90177 0.0
C969 C 0.98871 0.48761 0.90484 0.0
C970 C 0.04782 0.53102 0.8951 0.0
C971 C 0.04551 0.54943 0.891 0.0
C972 C 0.00897 0.50925 0.90415 0.0
C973 C 0.02502 0.54748 0.89597 0.0
C974 C 0.96801 0.4859 0.90382 0.0
C975 C 0.97234 0.44922 0.89773 0.0
N976 N 0.00746 0.52767 0.90181 0.0
N977 N 0.99012 0.46914 0.90243 0.0
H978 H 0.93222 0.46523 0.60399 0.0
H979 H 0.06168 0.52838 0.60298 0.0
H980 H 0.97255 0.53556 0.60138 0.0
H981 H 0.02133 0.45802 0.60243 0.0
H982 H 0.02942 0.53127 0.59236 0.0
H983 H 0.96439 0.46215 0.59338 0.0
C984 C 0.94775 0.48002 0.6007 0.0
C985 C 0.94982 0.50068 0.60428 0.0
C986 C 0.02768 0.51518 0.59411 0.0
C987 C 0.98672 0.4973 0.59244 0.0
C988 C 0.04613 0.51354 0.60014 0.0
C989 C 0.0441 0.49295 0.6043 0.0
C990 C 0.00708 0.4961 0.59245 0.0
C991 C 0.02358 0.47426 0.60001 0.0
C992 C 0.96614 0.47826 0.59467 0.0
C993 C 0.97029 0.51928 0.59942 0.0
N994 N 0.0058 0.47629 0.59481 0.0
N995 N 0.98802 0.51716 0.59424 0.0
H996 H 0.53184 0.06553 0.60146 0.0
H997 H 0.46266 0.93606 0.60166 0.0
H998 H 0.56005 0.02356 0.60037 0.0
H999 H 0.43446 0.97803 0.60285 0.0
H1000 H 0.49808 0.96768 0.59033 0.0
H1001 H 0.49619 0.03389 0.59107 0.0
C1002 C 0.53063 0.04975 0.59853 0.0
C1003 C 0.54883 0.04707 0.60251 0.0
C1004 C 0.48406 0.96991 0.59262 0.0
C1005 C 0.50807 0.01078 0.59092 0.0
C1006 C 0.46381 0.95184 0.59905 0.0
C1007 C 0.44571 0.95451 0.60392 0.0
C1008 C 0.48621 0.9908 0.59123 0.0
C1009 C 0.44811 0.9753 0.59989 0.0
C1010 C 0.51025 0.03166 0.59264 0.0
C1011 C 0.54635 0.02629 0.5981 0.0
N1012 N 0.46807 0.99271 0.59426 0.0
N1013 N 0.52627 0.00887 0.59304 0.0
H1014 H 0.52212 0.46221 0.59881 0.0
H1015 H 0.46235 0.53186 0.60686 0.0
H1016 H 0.4521 0.43424 0.60399 0.0
H1017 H 0.53242 0.55976 0.60313 0.0
H1018 H 0.4579 0.49626 0.5949 0.0
H1019 H 0.52573 0.49785 0.58943 0.0
C1020 C 0.50747 0.46347 0.59749 0.0
C1021 C 0.48683 0.44535 0.60289 0.0
C1022 C 0.47425 0.51025 0.59625 0.0
C1023 C 0.49085 0.48609 0.59245 0.0
C1024 C 0.47679 0.5306 0.60304 0.0
C1025 C 0.49779 0.54867 0.6067 0.0
C1026 C 0.49284 0.50799 0.59328 0.0
C1027 C 0.51591 0.54614 0.60113 0.0
C1028 C 0.50954 0.48384 0.59218 0.0
C1029 C 0.4684 0.44789 0.60055 0.0
N1030 N 0.51302 0.5261 0.59517 0.0
N1031 N 0.47087 0.46796 0.59598 0.0
H1032 H 0.47859 0.2871 0.25496 0.0
H1033 H 0.42668 0.15731 0.26358 0.0
H1034 H 0.42389 0.24409 0.30565 0.0
H1035 H 0.4743 0.19695 0.20295 0.0
H1036 H 0.43078 0.19037 0.28484 0.0
H1037 H 0.48248 0.25572 0.2412 0.0
C1038 C 0.46773 0.27116 0.26362 0.0
C1039 C 0.45088 0.26809 0.28142 0.0
C1040 C 0.44059 0.19195 0.26711 0.0
C1041 C 0.45504 0.23232 0.26567 0.0
C1042 C 0.43826 0.17308 0.25502 0.0
C1043 C 0.45029 0.1745 0.23168 0.0
C1044 C 0.4548 0.21244 0.25549 0.0
C1045 C 0.46504 0.19526 0.22127 0.0
C1046 C 0.46984 0.25327 0.25562 0.0
C1047 C 0.43698 0.24708 0.29168 0.0
N1048 N 0.46675 0.21349 0.23312 0.0
N1049 N 0.43931 0.23002 0.28359 0.0
H1050 H 0.27567 0.47625 0.20453 0.0
H1051 H 0.17358 0.41701 0.3054 0.0
H1052 H 0.26104 0.41993 0.25365 0.0
H1053 H 0.18703 0.47386 0.25808 0.0
H1054 H 0.20791 0.42047 0.28982 0.0
H1055 H 0.24578 0.47846 0.22707 0.0
C1056 C 0.2665 0.4647 0.22052 0.0
C1057 C 0.27092 0.44805 0.22756 0.0
C1058 C 0.20355 0.43237 0.28301 0.0
C1059 C 0.23652 0.45008 0.2528 0.0
C1060 C 0.18392 0.43037 0.29189 0.0
C1061 C 0.17753 0.44521 0.28309 0.0
C1062 C 0.21681 0.44917 0.2648 0.0
C1063 C 0.19154 0.46228 0.26568 0.0
C1064 C 0.24934 0.46583 0.23318 0.0
C1065 C 0.25812 0.43302 0.24769 0.0
N1066 N 0.21048 0.46368 0.25686 0.0
N1067 N 0.24148 0.43435 0.25953 0.0
H1068 H 0.79682 0.27362 0.20426 0.0
H1069 H 0.75505 0.17293 0.30715 0.0
H1070 H 0.83873 0.26177 0.25679 0.0
H1071 H 0.71127 0.18394 0.25714 0.0
H1072 H 0.78545 0.20764 0.29175 0.0
H1073 H 0.7648 0.24322 0.22623 0.0
C1074 C 0.79924 0.26495 0.22085 0.0
C1075 C 0.82037 0.2703 0.22901 0.0
C1076 C 0.76919 0.20265 0.2843 0.0
C1077 C 0.78405 0.23532 0.25363 0.0
C1078 C 0.75184 0.1828 0.29307 0.0
C1079 C 0.73063 0.17563 0.28349 0.0
C1080 C 0.76543 0.21534 0.2654 0.0
C1081 C 0.72733 0.18906 0.26535 0.0
C1082 C 0.781 0.2475 0.2332 0.0
C1083 C 0.82268 0.25813 0.24994 0.0
N1084 N 0.74462 0.20823 0.25666 0.0
N1085 N 0.80476 0.2412 0.26145 0.0
H1086 H 0.54036 0.79676 0.18142 0.0
H1087 H 0.55656 0.75038 0.31711 0.0
H1088 H 0.53305 0.82209 0.25813 0.0
H1089 H 0.52604 0.70763 0.24856 0.0
H1090 H 0.5494 0.77764 0.29593 0.0
H1091 H 0.5361 0.76423 0.20498 0.0
C1092 C 0.53743 0.79519 0.20319 0.0
C1093 C 0.53693 0.81188 0.21798 0.0
C1094 C 0.5439 0.76213 0.28579 0.0
C1095 C 0.53274 0.77533 0.24502 0.0
C1096 C 0.54807 0.74668 0.29776 0.0
C1097 C 0.54178 0.72684 0.2845 0.0
C1098 C 0.53402 0.7579 0.26002 0.0
C1099 C 0.53093 0.72272 0.25945 0.0
C1100 C 0.53496 0.77669 0.21657 0.0
C1101 C 0.53331 0.80936 0.24612 0.0
N1102 N 0.52771 0.73832 0.24772 0.0
N1103 N 0.53177 0.79156 0.2589 0.0
H1104 H 0.71878 0.52055 0.20601 0.0
H1105 H 0.8195 0.57893 0.3089 0.0
H1106 H 0.73317 0.57659 0.25559 0.0
H1107 H 0.80833 0.52423 0.25853 0.0
H1108 H 0.78466 0.57455 0.294 0.0
H1109 H 0.74809 0.51775 0.22934 0.0
C1110 C 0.72775 0.53189 0.22227 0.0
C1111 C 0.72356 0.54875 0.22908 0.0
C1112 C 0.78962 0.5633 0.28637 0.0
C1113 C 0.7572 0.54599 0.25531 0.0
C1114 C 0.80954 0.56583 0.29487 0.0
C1115 C 0.81676 0.55192 0.28494 0.0
C1116 C 0.77691 0.54695 0.26737 0.0
C1117 C 0.80321 0.53512 0.26693 0.0
C1118 C 0.74456 0.53042 0.2354 0.0
C1119 C 0.73597 0.5634 0.24973 0.0
N1120 N 0.78398 0.53324 0.25843 0.0
N1121 N 0.75227 0.56174 0.262 0.0
H1122 H 0.25336 0.79952 0.31622 0.0
H1123 H 0.19343 0.7491 0.18018 0.0
H1124 H 0.28741 0.82285 0.23991 0.0
H1125 H 0.18023 0.70831 0.251 0.0
H1126 H 0.22743 0.77706 0.20147 0.0
H1127 H 0.22567 0.76627 0.29327 0.0
C1128 C 0.25513 0.79737 0.29469 0.0
C1129 C 0.27257 0.81371 0.27981 0.0
C1130 C 0.2173 0.76181 0.21211 0.0
C1131 C 0.24088 0.77631 0.25343 0.0
C1132 C 0.19793 0.74597 0.20006 0.0
C1133 C 0.18422 0.72649 0.21392 0.0
C1134 C 0.22254 0.75837 0.23853 0.0
C1135 C 0.19057 0.72311 0.23966 0.0
C1136 C 0.23944 0.77845 0.28166 0.0
C1137 C 0.27421 0.81042 0.25198 0.0
N1138 N 0.20914 0.73911 0.25141 0.0
N1139 N 0.25827 0.79221 0.23949 0.0
H1140 H 0.57824 0.84157 0.74127 0.0
H1141 H 0.51932 0.71102 0.73999 0.0
H1142 H 0.52262 0.80051 0.79179 0.0
H1143 H 0.57841 0.75392 0.69596 0.0
H1144 H 0.51669 0.74291 0.75428 0.0
H1145 H 0.57505 0.80901 0.71962 0.0
C1146 C 0.56516 0.82563 0.74752 0.0
C1147 C 0.55054 0.82365 0.76808 0.0
C1148 C 0.53006 0.74528 0.7412 0.0
C1149 C 0.54696 0.78626 0.74381 0.0
C1150 C 0.53146 0.72708 0.73286 0.0
C1151 C 0.54906 0.72988 0.71668 0.0
C1152 C 0.5464 0.76632 0.73328 0.0
C1153 C 0.56465 0.75108 0.70859 0.0
C1154 C 0.56333 0.80704 0.73519 0.0
C1155 C 0.53393 0.80268 0.77557 0.0
N1156 N 0.56299 0.76847 0.71704 0.0
N1157 N 0.53267 0.78471 0.76356 0.0
H1158 H 0.82046 0.57786 0.68933 0.0
H1159 H 0.71941 0.51884 0.79183 0.0
H1160 H 0.80789 0.52161 0.73739 0.0
H1161 H 0.73396 0.5755 0.74347 0.0
H1162 H 0.74912 0.51665 0.76876 0.0
H1163 H 0.7863 0.57445 0.70556 0.0
C1164 C 0.81035 0.56463 0.70313 0.0
C1165 C 0.81694 0.54994 0.71194 0.0
C1166 C 0.74559 0.52936 0.76293 0.0
C1167 C 0.77787 0.54605 0.73097 0.0
C1168 C 0.72854 0.53048 0.77591 0.0
C1169 C 0.72413 0.5472 0.76921 0.0
C1170 C 0.75831 0.54519 0.74335 0.0
C1171 C 0.73686 0.56234 0.74915 0.0
C1172 C 0.79083 0.56266 0.71238 0.0
C1173 C 0.80322 0.53305 0.72974 0.0
N1174 N 0.7534 0.56101 0.73699 0.0
N1175 N 0.78438 0.53168 0.7389 0.0
H1176 H 0.26212 0.84178 0.75773 0.0
H1177 H 0.18802 0.71148 0.75729 0.0
H1178 H 0.27456 0.80038 0.70495 0.0
H1179 H 0.17474 0.7549 0.80493 0.0
H1180 H 0.22264 0.74297 0.74245 0.0
H1181 H 0.23295 0.80936 0.7798 0.0
C1182 C 0.25883 0.82578 0.75107 0.0
C1183 C 0.27079 0.82366 0.72973 0.0
C1184 C 0.21226 0.74553 0.75643 0.0
C1185 C 0.23718 0.78642 0.75446 0.0
C1186 C 0.19261 0.72755 0.76508 0.0
C1187 C 0.17858 0.73063 0.78244 0.0
C1188 C 0.21779 0.76663 0.76524 0.0
C1189 C 0.18503 0.75185 0.79138 0.0
C1190 C 0.24219 0.80727 0.76363 0.0
C1191 C 0.26592 0.80263 0.72173 0.0
N1192 N 0.2041 0.76902 0.78261 0.0
N1193 N 0.2493 0.78474 0.73397 0.0
H1194 H 0.4617 0.17423 0.742 0.0
H1195 H 0.46229 0.28719 0.7532 0.0
H1196 H 0.44253 0.19398 0.81523 0.0
H1197 H 0.44048 0.24712 0.68101 0.0
H1198 H 0.46734 0.25894 0.77586 0.0
H1199 H 0.46618 0.20721 0.71903 0.0
C1200 C 0.45891 0.18578 0.75332 0.0
C1201 C 0.45175 0.1816 0.7804 0.0
C1202 C 0.4618 0.25658 0.75491 0.0
C1203 C 0.457 0.21901 0.75465 0.0
C1204 C 0.45904 0.27264 0.74201 0.0
C1205 C 0.45098 0.26928 0.71534 0.0
C1206 C 0.45685 0.23738 0.74074 0.0
C1207 C 0.44667 0.25013 0.70167 0.0
C1208 C 0.46135 0.20443 0.74025 0.0
C1209 C 0.44802 0.19676 0.79426 0.0
N1210 N 0.44969 0.23482 0.71453 0.0
N1211 N 0.45072 0.2149 0.78122 0.0
H1212 H 0.18692 0.4741 0.7381 0.0
H1213 H 0.26136 0.41828 0.74107 0.0
H1214 H 0.17501 0.41792 0.69025 0.0
H1215 H 0.27242 0.47174 0.79373 0.0
H1216 H 0.23261 0.42153 0.71786 0.0
H1217 H 0.22121 0.47721 0.75426 0.0
C1218 C 0.19176 0.46274 0.73053 0.0
C1219 C 0.17821 0.44578 0.71272 0.0
C1220 C 0.24145 0.43277 0.73426 0.0
C1221 C 0.21703 0.44896 0.73146 0.0
C1222 C 0.25785 0.4309 0.74748 0.0
C1223 C 0.26932 0.44489 0.7691 0.0
C1224 C 0.23618 0.44852 0.74304 0.0
C1225 C 0.26418 0.46094 0.77675 0.0
C1226 C 0.21122 0.4644 0.73994 0.0
C1227 C 0.18495 0.43115 0.70411 0.0
N1228 N 0.2478 0.46221 0.76385 0.0
N1229 N 0.20382 0.43303 0.71364 0.0
H1230 H 0.72042 0.19968 0.70397 0.0
H1231 H 0.81996 0.24216 0.80854 0.0
H1232 H 0.73415 0.15784 0.75405 0.0
H1233 H 0.80745 0.2857 0.76014 0.0
H1234 H 0.78585 0.21136 0.79235 0.0
H1235 H 0.74942 0.23167 0.72769 0.0
C1236 C 0.7292 0.19725 0.7204 0.0
C1237 C 0.72481 0.17617 0.72737 0.0
C1238 C 0.79036 0.22765 0.78544 0.0
C1239 C 0.75818 0.21247 0.754 0.0
C1240 C 0.80985 0.24523 0.79468 0.0
C1241 C 0.81646 0.26646 0.78569 0.0
C1242 C 0.7775 0.23123 0.76665 0.0
C1243 C 0.80276 0.26959 0.76784 0.0
C1244 C 0.74584 0.21547 0.73376 0.0
C1245 C 0.73708 0.17386 0.74813 0.0
N1246 N 0.78398 0.25209 0.75863 0.0
N1247 N 0.75324 0.19178 0.76064 0.0
H1248 H 0.40835 0.01603 0.17358 0.0
H1249 H 0.37223 0.97722 0.32331 0.0
H1250 H 0.40993 0.05967 0.2363 0.0
H1251 H 0.35073 0.93211 0.25577 0.0
H1252 H 0.38249 0.00734 0.29141 0.0
H1253 H 0.38419 0.98489 0.20217 0.0
C1254 C 0.40338 0.01907 0.19322 0.0
C1255 C 0.41148 0.0405 0.20275 0.0
C1256 C 0.37506 0.99081 0.28356 0.0
C1257 C 0.38399 0.0049 0.2357 0.0
C1258 C 0.36917 0.97361 0.30178 0.0
C1259 C 0.36087 0.95219 0.29212 0.0
C1260 C 0.37313 0.98663 0.25543 0.0
C1261 C 0.35714 0.9484 0.26406 0.0
C1262 C 0.38949 0.00126 0.20949 0.0
C1263 C 0.40426 0.04344 0.22823 0.0
N1264 N 0.36379 0.96553 0.24661 0.0
N1265 N 0.39126 0.02584 0.24404 0.0
H1266 H 0.34862 0.41322 0.23413 0.0
H1267 H 0.41833 0.35309 0.25066 0.0
H1268 H 0.391 0.41183 0.17168 0.0
H1269 H 0.3993 0.37951 0.31775 0.0
H1270 H 0.39768 0.36326 0.21966 0.0
H1271 H 0.35675 0.38967 0.26251 0.0
C1272 C 0.35927 0.4076 0.22613 0.0
C1273 C 0.36947 0.41481 0.20069 0.0
C1274 C 0.39769 0.36639 0.24126 0.0
C1275 C 0.37866 0.38782 0.23297 0.0
C1276 C 0.40933 0.36047 0.25898 0.0
C1277 C 0.41079 0.3658 0.28674 0.0
C1278 C 0.38723 0.37738 0.25149 0.0
C1279 C 0.39885 0.37542 0.29641 0.0
C1280 C 0.36393 0.39423 0.24238 0.0
C1281 C 0.38307 0.40695 0.19136 0.0
N1282 N 0.38774 0.38111 0.27876 0.0
N1283 N 0.38743 0.39402 0.2076 0.0
H1284 H 0.01773 0.40943 0.32395 0.0
H1285 H 0.97569 0.38979 0.17434 0.0
H1286 H 0.06039 0.41667 0.25688 0.0
H1287 H 0.9324 0.35479 0.24106 0.0
H1288 H 0.00702 0.39909 0.20387 0.0
H1289 H 0.98613 0.38846 0.29437 0.0
C1290 C 0.02042 0.40628 0.30311 0.0
C1291 C 0.04169 0.41497 0.29275 0.0
C1292 C 0.99067 0.38903 0.2119 0.0
C1293 C 0.00568 0.39141 0.25873 0.0
C1294 C 0.97279 0.38379 0.1951 0.0
C1295 C 0.95144 0.3717 0.20537 0.0
C1296 C 0.98717 0.38259 0.23933 0.0
C1297 C 0.94861 0.3642 0.23236 0.0
C1298 C 0.00239 0.39426 0.28627 0.0
C1299 C 0.04426 0.4103 0.26566 0.0
N1300 N 0.96629 0.37016 0.24861 0.0
N1301 N 0.02645 0.39922 0.24938 0.0
H1302 H 0.57741 0.92874 0.24159 0.0
H1303 H 0.64969 0.05819 0.26113 0.0
H1304 H 0.59972 0.97516 0.1754 0.0
H1305 H 0.60604 0.01401 0.32232 0.0
H1306 H 0.64143 0.02674 0.23217 0.0
H1307 H 0.59821 0.9589 0.27344 0.0
C1308 C 0.5872 0.94517 0.23365 0.0
C1309 C 0.5866 0.94953 0.20587 0.0
C1310 C 0.63399 0.02396 0.25215 0.0
C1311 C 0.61027 0.98395 0.24212 0.0
C1312 C 0.63872 0.04188 0.26873 0.0
C1313 C 0.62823 0.03873 0.294 0.0
C1314 C 0.61887 0.00278 0.26104 0.0
C1315 C 0.61422 0.01721 0.3028 0.0
C1316 C 0.59892 0.96237 0.25186 0.0
C1317 C 0.59951 0.97114 0.19672 0.0
N1318 N 0.60979 5e-05 0.28624 0.0
N1319 N 0.61064 0.98759 0.21484 0.0
H1320 H 0.58389 0.65023 0.25999 0.0
H1321 H 0.64624 0.58286 0.23985 0.0
H1322 H 0.59215 0.61259 0.32332 0.0
H1323 H 0.61588 0.59895 0.17449 0.0
H1324 H 0.63713 0.60414 0.27118 0.0
H1325 H 0.60619 0.64175 0.22954 0.0
C1326 C 0.59081 0.64063 0.2677 0.0
C1327 C 0.58588 0.63179 0.29407 0.0
C1328 C 0.63285 0.60333 0.24986 0.0
C1329 C 0.61136 0.62214 0.25946 0.0
C1330 C 0.63814 0.59129 0.23194 0.0
C1331 C 0.63146 0.58882 0.20462 0.0
C1332 C 0.62105 0.61313 0.2403 0.0
C1333 C 0.62101 0.60013 0.1955 0.0
C1334 C 0.60343 0.63572 0.25028 0.0
C1335 C 0.59527 0.61944 0.30299 0.0
N1336 N 0.61592 0.61162 0.21336 0.0
N1337 N 0.6074 0.61481 0.28564 0.0
H1338 H 0.93515 0.58501 0.25486 0.0
H1339 H 0.06532 0.64707 0.23968 0.0
H1340 H 0.97893 0.59169 0.3202 0.0
H1341 H 0.02063 0.61353 0.17361 0.0
H1342 H 0.03398 0.63794 0.26947 0.0
H1343 H 0.96689 0.60664 0.22545 0.0
C1344 C 0.95142 0.59146 0.26321 0.0
C1345 C 0.95444 0.5863 0.28987 0.0
C1346 C 0.03112 0.633 0.24829 0.0
C1347 C 0.99065 0.61107 0.25649 0.0
C1348 C 0.04896 0.63829 0.23126 0.0
C1349 C 0.04551 0.63077 0.20426 0.0
C1350 C 0.00979 0.62044 0.23807 0.0
C1351 C 0.02397 0.61937 0.19442 0.0
C1352 C 0.96949 0.60369 0.2464 0.0
C1353 C 0.9759 0.59504 0.29964 0.0
N1354 N 0.0069 0.6144 0.21138 0.0
N1355 N 0.9932 0.60687 0.28288 0.0
H1356 H 0.59032 0.98018 0.82219 0.0
H1357 H 0.60746 0.01984 0.67182 0.0
H1358 H 0.58046 0.93604 0.75587 0.0
H1359 H 0.64455 0.06378 0.73709 0.0
H1360 H 0.59848 0.9888 0.70178 0.0
H1361 H 0.6115 0.01114 0.79174 0.0
C1362 C 0.59295 0.97702 0.80133 0.0
C1363 C 0.58344 0.95554 0.79144 0.0
C1364 C 0.60895 0.00523 0.70937 0.0
C1365 C 0.60724 0.99082 0.75642 0.0
C1366 C 0.61402 0.02294 0.69232 0.0
C1367 C 0.62656 0.0444 0.7021 0.0
C1368 C 0.61603 0.00902 0.73656 0.0
C1369 C 0.63476 0.04749 0.72876 0.0
C1370 C 0.60509 0.99468 0.78399 0.0
C1371 C 0.58747 0.95235 0.76429 0.0
N1372 N 0.62896 0.02999 0.74528 0.0
N1373 N 0.59867 0.96982 0.74753 0.0
H1374 H 0.64128 0.576 0.75821 0.0
H1375 H 0.57699 0.64179 0.74348 0.0
H1376 H 0.6053 0.58392 0.82409 0.0
H1377 H 0.58359 0.60469 0.67796 0.0
H1378 H 0.59833 0.63137 0.77291 0.0
H1379 H 0.63106 0.59747 0.72873 0.0
C1380 C 0.63168 0.58269 0.76666 0.0
C1381 C 0.62387 0.57796 0.79353 0.0
C1382 C 0.5954 0.62588 0.75193 0.0
C1383 C 0.61235 0.60255 0.76005 0.0
C1384 C 0.58334 0.63187 0.7351 0.0
C1385 C 0.57829 0.62384 0.70836 0.0
C1386 C 0.60277 0.61212 0.74176 0.0
C1387 C 0.58688 0.61099 0.69857 0.0
C1388 C 0.62578 0.59481 0.7498 0.0
C1389 C 0.61142 0.58697 0.8034 0.0
N1390 N 0.59862 0.60542 0.71533 0.0
N1391 N 0.60593 0.59874 0.7866 0.0
H1392 H 0.01834 0.60775 0.82159 0.0
H1393 H 0.9768 0.58617 0.67207 0.0
H1394 H 0.0616 0.64303 0.75497 0.0
H1395 H 0.93369 0.57947 0.73834 0.0
H1396 H 0.00821 0.60787 0.70165 0.0
H1397 H 0.98699 0.59793 0.79184 0.0
C1398 C 0.02122 0.61372 0.80081 0.0
C1399 C 0.04257 0.62602 0.79062 0.0
C1400 C 0.99189 0.60203 0.70955 0.0
C1401 C 0.00685 0.61452 0.75642 0.0
C1402 C 0.97397 0.58959 0.69272 0.0
C1403 C 0.95264 0.58084 0.70288 0.0
C1404 C 0.98843 0.60525 0.73691 0.0
C1405 C 0.94988 0.58587 0.72973 0.0
C1406 C 0.00334 0.60819 0.78389 0.0
C1407 C 0.0454 0.63347 0.76361 0.0
N1408 N 0.96758 0.59736 0.74603 0.0
N1409 N 0.02772 0.62719 0.74724 0.0
H1410 H 0.4151 0.06531 0.75971 0.0
H1411 H 0.35067 0.93546 0.74125 0.0
H1412 H 0.40574 0.02008 0.82443 0.0
H1413 H 0.38736 0.98074 0.67689 0.0
H1414 H 0.3599 0.96651 0.77151 0.0
H1415 H 0.39384 0.03422 0.72925 0.0
C1416 C 0.4081 0.04886 0.76771 0.0
C1417 C 0.41241 0.04523 0.79452 0.0
C1418 C 0.36556 0.96958 0.7506 0.0
C1419 C 0.38811 0.00979 0.75992 0.0
C1420 C 0.36024 0.95191 0.73329 0.0
C1421 C 0.36854 0.95556 0.70664 0.0
C1422 C 0.37895 0.99098 0.74102 0.0
C1423 C 0.38089 0.97722 0.69742 0.0
C1424 C 0.3961 0.03118 0.75029 0.0
C1425 C 0.40302 0.02358 0.80379 0.0
N1426 N 0.38586 0.99414 0.71465 0.0
N1427 N 0.39143 0.00665 0.78645 0.0
H1428 H 0.34847 0.41274 0.75956 0.0
H1429 H 0.41542 0.34992 0.73997 0.0
H1430 H 0.38744 0.40661 0.82291 0.0
H1431 H 0.40227 0.38283 0.67495 0.0
H1432 H 0.39456 0.35977 0.77118 0.0
H1433 H 0.35768 0.39085 0.72943 0.0
C1434 C 0.35857 0.40641 0.76733 0.0
C1435 C 0.36749 0.41178 0.79364 0.0
C1436 C 0.39592 0.36442 0.74994 0.0
C1437 C 0.3779 0.38668 0.75939 0.0
C1438 C 0.40767 0.35871 0.73211 0.0
C1439 C 0.41078 0.36582 0.70495 0.0
C1440 C 0.38695 0.37699 0.74036 0.0
C1441 C 0.40049 0.37727 0.69584 0.0
C1442 C 0.36387 0.39401 0.75009 0.0
C1443 C 0.38048 0.40312 0.80264 0.0
N1444 N 0.38915 0.38264 0.71356 0.0
N1445 N 0.38544 0.39112 0.78546 0.0
H1446 H 0.0621 0.41624 0.73986 0.0
H1447 H 0.93215 0.35318 0.75682 0.0
H1448 H 0.01785 0.40905 0.67486 0.0
H1449 H 0.97703 0.38885 0.82193 0.0
H1450 H 0.96341 0.36284 0.72669 0.0
H1451 H 0.03059 0.39524 0.76984 0.0
C1452 C 0.04576 0.40982 0.73171 0.0
C1453 C 0.04255 0.41463 0.70496 0.0
C1454 C 0.96633 0.36819 0.74772 0.0
C1455 C 0.00664 0.39058 0.73898 0.0
C1456 C 0.94856 0.36262 0.76494 0.0
C1457 C 0.95205 0.37049 0.79179 0.0
C1458 C 0.98766 0.38136 0.7576 0.0
C1459 C 0.97365 0.38271 0.80125 0.0
C1460 C 0.02785 0.39796 0.74885 0.0
C1461 C 0.02103 0.40595 0.69547 0.0
N1462 N 0.99066 0.38788 0.78412 0.0
N1463 N 0.00387 0.39445 0.71253 0.0
H1464 H 0.53277 0.10417 0.17385 0.0
H1465 H 0.5748 0.10753 0.32195 0.0
H1466 H 0.50739 0.1234 0.24185 0.0
H1467 H 0.61704 0.12012 0.25263 0.0
H1468 H 0.54988 0.11334 0.29323 0.0
H1469 H 0.56381 0.10989 0.20193 0.0
C1470 C 0.53388 0.10987 0.1946 0.0
C1471 C 0.51737 0.11313 0.20563 0.0
C1472 C 0.56478 0.11522 0.28439 0.0
C1473 C 0.55266 0.11935 0.23794 0.0
C1474 C 0.57898 0.11185 0.30074 0.0
C1475 C 0.59793 0.11322 0.28958 0.0
C1476 C 0.56926 0.11943 0.2565 0.0
C1477 C 0.60261 0.11894 0.26202 0.0
C1478 C 0.55165 0.11321 0.21056 0.0
C1479 C 0.51972 0.12066 0.23256 0.0
N1480 N 0.58812 0.1214 0.24626 0.0
N1481 N 0.53682 0.12311 0.24798 0.0
H1482 H 0.46511 0.57208 0.32543 0.0
H1483 H 0.42498 0.53718 0.17615 0.0
H1484 H 0.49086 0.6189 0.25975 0.0
H1485 H 0.38115 0.5068 0.24394 0.0
H1486 H 0.44973 0.56709 0.20611 0.0
H1487 H 0.43444 0.54752 0.29627 0.0
C1488 C 0.46415 0.57731 0.30498 0.0
C1489 C 0.48063 0.59749 0.29491 0.0
C1490 C 0.43452 0.55408 0.21432 0.0
C1491 C 0.44584 0.56931 0.26136 0.0
C1492 C 0.42043 0.53699 0.19727 0.0
C1493 C 0.40106 0.51945 0.20764 0.0
C1494 C 0.4295 0.55334 0.2421 0.0
C1495 C 0.39591 0.52003 0.23514 0.0
C1496 C 0.4466 0.56333 0.28842 0.0
C1497 C 0.47851 0.60349 0.26832 0.0
N1498 N 0.41028 0.5365 0.25158 0.0
N1499 N 0.46166 0.58926 0.25225 0.0
H1500 H 0.87027 0.49424 0.25299 0.0
H1501 H 0.86717 0.37967 0.24125 0.0
H1502 H 0.88635 0.46491 0.31955 0.0
H1503 H 0.88437 0.42478 0.17411 0.0
H1504 H 0.86215 0.40525 0.27005 0.0
H1505 H 0.86351 0.46306 0.22408 0.0
C1506 C 0.8719 0.48103 0.26168 0.0
C1507 C 0.87911 0.48224 0.2886 0.0
C1508 C 0.86665 0.40931 0.24887 0.0
C1509 C 0.87122 0.44661 0.25583 0.0
C1510 C 0.86938 0.3947 0.23239 0.0
C1511 C 0.87643 0.40024 0.20534 0.0
C1512 C 0.87059 0.42937 0.23805 0.0
C1513 C 0.87916 0.41999 0.19496 0.0
C1514 C 0.86816 0.46335 0.24516 0.0
C1515 C 0.88106 0.46472 0.2988 0.0
N1516 N 0.87634 0.43391 0.21136 0.0
N1517 N 0.87722 0.44766 0.28238 0.0
H1518 H 0.43166 0.92371 0.30369 0.0
H1519 H 0.47105 0.8563 0.21784 0.0
H1520 H 0.38193 0.85905 0.27847 0.0
H1521 H 0.48922 0.92292 0.19822 0.0
H1522 H 0.44198 0.85427 0.24792 0.0
H1523 H 0.45777 0.92088 0.27411 0.0
C1524 C 0.42623 0.90876 0.29221 0.0
C1525 C 0.40445 0.89164 0.29345 0.0
C1526 C 0.4523 0.86916 0.23672 0.0
C1527 C 0.43456 0.88835 0.25967 0.0
C1528 C 0.46886 0.87038 0.21968 0.0
C1529 C 0.48261 0.88982 0.2055 0.0
C1530 C 0.45007 0.8877 0.24005 0.0
C1531 C 0.47905 0.90757 0.20862 0.0
C1532 C 0.44117 0.90725 0.27524 0.0
C1533 C 0.39852 0.87269 0.27797 0.0
N1534 N 0.46339 0.90618 0.22582 0.0
N1535 N 0.41356 0.8715 0.26165 0.0
H1536 H 0.56379 0.48681 0.18797 0.0
H1537 H 0.52313 0.38093 0.27289 0.0
H1538 H 0.61551 0.47636 0.21744 0.0
H1539 H 0.51032 0.43212 0.29813 0.0
H1540 H 0.55247 0.40756 0.24272 0.0
H1541 H 0.53798 0.45721 0.21711 0.0
C1542 C 0.56973 0.4781 0.2002 0.0
C1543 C 0.59198 0.48429 0.20042 0.0
C1544 C 0.54328 0.41279 0.25523 0.0
C1545 C 0.56223 0.45012 0.23351 0.0
C1546 C 0.52658 0.3977 0.27232 0.0
C1547 C 0.51419 0.40427 0.28802 0.0
C1548 C 0.54699 0.43422 0.25344 0.0
C1549 C 0.51937 0.42622 0.2865 0.0
C1550 C 0.55495 0.46125 0.21685 0.0
C1551 C 0.59855 0.47224 0.21682 0.0
N1552 N 0.53507 0.44025 0.26919 0.0
N1553 N 0.58369 0.45566 0.23287 0.0
H1554 H 0.10749 0.57149 0.17354 0.0
H1555 H 0.11147 0.53559 0.3226 0.0
H1556 H 0.1272 0.61768 0.23981 0.0
H1557 H 0.12501 0.50553 0.25451 0.0
H1558 H 0.11725 0.56595 0.29308 0.0
H1559 H 0.11375 0.54699 0.20257 0.0
C1560 C 0.11342 0.57659 0.1941 0.0
C1561 C 0.11667 0.59656 0.20437 0.0
C1562 C 0.11937 0.55292 0.28472 0.0
C1563 C 0.12347 0.56845 0.2378 0.0
C1564 C 0.11602 0.53558 0.30153 0.0
C1565 C 0.11762 0.51796 0.29092 0.0
C1566 C 0.12379 0.55237 0.25695 0.0
C1567 C 0.12363 0.5188 0.2635 0.0
C1568 C 0.11707 0.56265 0.21061 0.0
C1569 C 0.12448 0.60242 0.23111 0.0
N1570 N 0.12605 0.5355 0.24729 0.0
N1571 N 0.1272 0.58822 0.24711 0.0
H1572 H 0.46296 0.88974 0.82254 0.0
H1573 H 0.42453 0.8912 0.67423 0.0
H1574 H 0.49093 0.8735 0.75453 0.0
H1575 H 0.37953 0.87286 0.74168 0.0
H1576 H 0.44937 0.88516 0.70291 0.0
H1577 H 0.43232 0.88398 0.7936 0.0
C1578 C 0.46247 0.88464 0.80161 0.0
C1579 C 0.47956 0.88223 0.79084 0.0
C1580 C 0.43388 0.88208 0.71128 0.0
C1581 C 0.44483 0.87606 0.75755 0.0
C1582 C 0.41975 0.88559 0.69497 0.0
C1583 C 0.40002 0.88267 0.70568 0.0
C1584 C 0.42852 0.87616 0.73868 0.0
C1585 C 0.39458 0.8753 0.73264 0.0
C1586 C 0.44496 0.88129 0.78515 0.0
C1587 C 0.47808 0.87552 0.76362 0.0
N1588 N 0.40897 0.87273 0.74841 0.0
N1589 N 0.46123 0.8731 0.74772 0.0
H1590 H 0.53053 0.42424 0.67158 0.0
H1591 H 0.57023 0.45693 0.82119 0.0
H1592 H 0.50467 0.37635 0.73608 0.0
H1593 H 0.61453 0.48787 0.75396 0.0
H1594 H 0.54559 0.42738 0.7907 0.0
H1595 H 0.56123 0.44824 0.70107 0.0
C1596 C 0.53148 0.41865 0.69181 0.0
C1597 C 0.51495 0.39834 0.70147 0.0
C1598 C 0.56089 0.44042 0.78274 0.0
C1599 C 0.54976 0.42586 0.73541 0.0
C1600 C 0.57492 0.4573 0.8001 0.0
C1601 C 0.59438 0.4749 0.79003 0.0
C1602 C 0.56606 0.44147 0.75497 0.0
C1603 C 0.5997 0.47457 0.76254 0.0
C1604 C 0.54904 0.43231 0.70857 0.0
C1605 C 0.51705 0.39188 0.72782 0.0
N1606 N 0.58538 0.45835 0.7458 0.0
N1607 N 0.5339 0.40579 0.74409 0.0
H1608 H 0.12711 0.50598 0.74059 0.0
H1609 H 0.12707 0.61897 0.75333 0.0
H1610 H 0.11063 0.53503 0.67408 0.0
H1611 H 0.11076 0.5735 0.81991 0.0
H1612 H 0.13308 0.59417 0.72421 0.0
H1613 H 0.13317 0.53682 0.76968 0.0
C1614 C 0.12526 0.51908 0.73194 0.0
C1615 C 0.11811 0.51785 0.70499 0.0
C1616 C 0.12856 0.58987 0.74534 0.0
C1617 C 0.12517 0.55309 0.73799 0.0
C1618 C 0.12524 0.60403 0.76199 0.0
C1619 C 0.11816 0.59813 0.78897 0.0
C1620 C 0.12517 0.56994 0.75593 0.0
C1621 C 0.11596 0.57853 0.79912 0.0
C1622 C 0.1286 0.53657 0.74857 0.0
C1623 C 0.11588 0.53523 0.69485 0.0
N1624 N 0.11934 0.56507 0.78256 0.0
N1625 N 0.11929 0.55209 0.71139 0.0
H1626 H 0.5045 0.12665 0.75711 0.0
H1627 H 0.61723 0.12669 0.74105 0.0
H1628 H 0.53345 0.10864 0.82222 0.0
H1629 H 0.57091 0.1098 0.67538 0.0
H1630 H 0.59228 0.13179 0.77101 0.0
H1631 H 0.53471 0.13214 0.72718 0.0
C1632 C 0.51744 0.1243 0.76527 0.0
C1633 C 0.51639 0.11697 0.7921 0.0
C1634 C 0.58781 0.12732 0.7499 0.0
C1635 C 0.55093 0.12343 0.75814 0.0
C1636 C 0.60205 0.12453 0.73277 0.0
C1637 C 0.59601 0.11761 0.70577 0.0
C1638 C 0.56764 0.12359 0.73978 0.0
C1639 C 0.57609 0.11492 0.69615 0.0
C1640 C 0.53456 0.12732 0.74815 0.0
C1641 C 0.53353 0.11408 0.80158 0.0
N1642 N 0.56257 0.11785 0.71317 0.0
N1643 N 0.55009 0.11726 0.7846 0.0
H1644 H 0.42277 0.53178 0.82625 0.0
H1645 H 0.45764 0.57372 0.67759 0.0
H1646 H 0.37647 0.50597 0.76005 0.0
H1647 H 0.48828 0.61634 0.74631 0.0
H1648 H 0.42747 0.54882 0.70711 0.0
H1649 H 0.44698 0.56307 0.79773 0.0
C1650 C 0.41757 0.53285 0.80583 0.0
C1651 C 0.39766 0.51616 0.79542 0.0
C1652 C 0.44057 0.56382 0.71563 0.0
C1653 C 0.42544 0.5517 0.76258 0.0
C1654 C 0.4578 0.57801 0.69882 0.0
C1655 C 0.47553 0.59703 0.70959 0.0
C1656 C 0.44135 0.56838 0.74356 0.0
C1657 C 0.4749 0.60185 0.7372 0.0
C1658 C 0.43135 0.55076 0.78962 0.0
C1659 C 0.39168 0.51845 0.76888 0.0
N1660 N 0.45832 0.58737 0.75341 0.0
N1661 N 0.40572 0.53568 0.75317 0.0
H1662 H 0.88326 0.45958 0.67485 0.0
H1663 H 0.88632 0.42451 0.82469 0.0
H1664 H 0.86975 0.49041 0.74209 0.0
H1665 H 0.86711 0.37815 0.75866 0.0
H1666 H 0.88017 0.44888 0.79526 0.0
H1667 H 0.87722 0.42943 0.70491 0.0
C1668 C 0.87867 0.45982 0.69586 0.0
C1669 C 0.87712 0.47757 0.70605 0.0
C1670 C 0.8769 0.4332 0.78737 0.0
C1671 C 0.87068 0.44338 0.74067 0.0
C1672 C 0.88047 0.41931 0.80413 0.0
C1673 C 0.87737 0.39934 0.79404 0.0
C1674 C 0.87074 0.42735 0.76013 0.0
C1675 C 0.8697 0.39339 0.76726 0.0
C1676 C 0.87518 0.44258 0.71298 0.0
C1677 C 0.87108 0.47702 0.73341 0.0
N1678 N 0.86707 0.40754 0.75104 0.0
N1679 N 0.86851 0.46042 0.74994 0.0
H1680 H 0.49229 0.14644 0.07044 0.0
H1681 H 0.42422 0.11656 0.9323 0.0
H1682 H 0.42197 0.11002 0.06696 0.0
H1683 H 0.49314 0.13922 0.93804 0.0
H1684 H 0.42384 0.12454 0.98103 0.0
H1685 H 0.49339 0.15486 0.02189 0.0
C1686 C 0.47708 0.1409 0.05952 0.0
C1687 C 0.45702 0.12765 0.0724 0.0
C1688 C 0.43914 0.12826 0.97147 0.0
C1689 C 0.45806 0.13642 0.01695 0.0
C1690 C 0.43936 0.12382 0.94375 0.0
C1691 C 0.45871 0.12717 0.93154 0.0
C1692 C 0.45846 0.13612 0.98679 0.0
C1693 C 0.47792 0.13639 0.94698 0.0
C1694 C 0.47768 0.14551 0.03183 0.0
C1695 C 0.43771 0.12045 0.05754 0.0
N1696 N 0.47727 0.14034 0.97392 0.0
N1697 N 0.43869 0.12462 0.03038 0.0
H1698 H 0.307 0.42649 0.07024 0.0
H1699 H 0.34256 0.4904 0.92914 0.0
H1700 H 0.3515 0.49561 0.06153 0.0
H1701 H 0.30896 0.42025 0.93605 0.0
H1702 H 0.33579 0.49299 0.97756 0.0
H1703 H 0.29776 0.42452 0.02164 0.0
C1704 C 0.31425 0.44134 0.05819 0.0
C1705 C 0.33007 0.46121 0.06952 0.0
C1706 C 0.32938 0.47698 0.96841 0.0
C1707 C 0.31996 0.45914 0.01435 0.0
C1708 C 0.33311 0.47554 0.9408 0.0
C1709 C 0.32622 0.45511 0.92892 0.0
C1710 C 0.31904 0.45783 0.98421 0.0
C1711 C 0.31437 0.43626 0.9447 0.0
C1712 C 0.30912 0.44022 0.03052 0.0
C1713 C 0.33926 0.48 0.05329 0.0
N1714 N 0.31143 0.43806 0.97175 0.0
N1715 N 0.33428 0.47848 0.0264 0.0
H1716 H 0.84375 0.32991 0.06726 0.0
H1717 H 0.90161 0.32085 0.93316 0.0
H1718 H 0.90027 0.32183 0.06657 0.0
H1719 H 0.84737 0.33258 0.93298 0.0
H1720 H 0.89534 0.31165 0.98166 0.0
H1721 H 0.8387 0.32142 0.0184 0.0
C1722 C 0.85461 0.32559 0.05689 0.0
C1723 C 0.87238 0.32647 0.07062 0.0
C1724 C 0.88445 0.31574 0.97096 0.0
C1725 C 0.86723 0.31742 0.01498 0.0
C1726 C 0.88797 0.32084 0.94331 0.0
C1727 C 0.87493 0.32738 0.9294 0.0
C1728 C 0.86801 0.31763 0.98478 0.0
C1729 C 0.85765 0.32748 0.94323 0.0
C1730 C 0.85187 0.32092 0.02904 0.0
C1731 C 0.88631 0.32117 0.05648 0.0
N1732 N 0.85487 0.32302 0.97035 0.0
N1733 N 0.88363 0.31716 0.0293 0.0
H1734 H 0.50029 0.85718 0.06313 0.0
H1735 H 0.57101 0.87935 0.92915 0.0
H1736 H 0.5693 0.87973 0.06372 0.0
H1737 H 0.50226 0.85806 0.93029 0.0
H1738 H 0.56916 0.87072 0.9779 0.0
H1739 H 0.49898 0.84849 0.01468 0.0
C1740 C 0.51503 0.8597 0.05306 0.0
C1741 C 0.5349 0.8691 0.06707 0.0
C1742 C 0.55434 0.86738 0.96735 0.0
C1743 C 0.53385 0.86 0.0117 0.0
C1744 C 0.5554 0.87215 0.93956 0.0
C1745 C 0.53678 0.86947 0.92606 0.0
C1746 C 0.53454 0.86008 0.98149 0.0
C1747 C 0.51695 0.86036 0.94024 0.0
C1748 C 0.51437 0.85487 0.02543 0.0
C1749 C 0.55369 0.87239 0.05336 0.0
N1750 N 0.5164 0.8563 0.9673 0.0
N1751 N 0.5528 0.86818 0.02621 0.0
H1752 H 0.65677 0.50917 0.06945 0.0
H1753 H 0.68777 0.57054 0.92612 0.0
H1754 H 0.68404 0.57861 0.05977 0.0
H1755 H 0.64448 0.50137 0.93682 0.0
H1756 H 0.69736 0.57364 0.97469 0.0
H1757 H 0.66332 0.50627 0.02093 0.0
C1758 C 0.66485 0.52388 0.05719 0.0
C1759 C 0.66996 0.54414 0.06829 0.0
C1760 C 0.6862 0.5577 0.96625 0.0
C1761 C 0.67698 0.541 0.01304 0.0
C1762 C 0.68086 0.55594 0.9386 0.0
C1763 C 0.66528 0.53571 0.92783 0.0
C1764 C 0.67584 0.53906 0.98297 0.0
C1765 C 0.65653 0.51724 0.94463 0.0
C1766 C 0.66843 0.52224 0.02955 0.0
C1767 C 0.68003 0.56274 0.05174 0.0
N1768 N 0.66173 0.51938 0.97149 0.0
N1769 N 0.68296 0.56071 0.02476 0.0
H1770 H 0.1434 0.64804 0.92779 0.0
H1771 H 0.11702 0.68952 0.06579 0.0
H1772 H 0.11159 0.68649 0.93088 0.0
H1773 H 0.13733 0.6414 0.0602 0.0
H1774 H 0.12503 0.69751 0.017 0.0
H1775 H 0.15185 0.65491 0.97634 0.0
C1776 C 0.13882 0.65851 0.93867 0.0
C1777 C 0.12682 0.66673 0.92567 0.0
C1778 C 0.12823 0.68558 0.0266 0.0
C1779 C 0.13566 0.67406 0.98114 0.0
C1780 C 0.12377 0.68114 0.05436 0.0
C1781 C 0.12643 0.66473 0.06662 0.0
C1782 C 0.13538 0.67348 0.01131 0.0
C1783 C 0.13502 0.65411 0.05121 0.0
C1784 C 0.14347 0.66231 0.96635 0.0
C1785 C 0.12095 0.67998 0.94043 0.0
N1786 N 0.13897 0.65849 0.02425 0.0
N1787 N 0.1251 0.68295 0.96762 0.0
H1788 H 0.88555 0.57716 0.42995 0.0
H1789 H 0.85247 0.5036 0.56334 0.0
H1790 H 0.85739 0.50719 0.43053 0.0
H1791 H 0.88592 0.57397 0.5649 0.0
H1792 H 0.84526 0.50429 0.51474 0.0
H1793 H 0.87729 0.57605 0.47879 0.0
C1794 C 0.87702 0.56153 0.44029 0.0
C1795 C 0.87215 0.54224 0.42656 0.0
C1796 C 0.85376 0.51962 0.52573 0.0
C1797 C 0.86304 0.54078 0.48204 0.0
C1798 C 0.85771 0.51918 0.55345 0.0
C1799 C 0.86976 0.53875 0.56781 0.0
C1800 C 0.86234 0.53983 0.51224 0.0
C1801 C 0.87649 0.55857 0.5543 0.0
C1802 C 0.87243 0.56087 0.4681 0.0
C1803 C 0.86137 0.52237 0.44063 0.0
N1804 N 0.87302 0.55864 0.52705 0.0
N1805 N 0.8574 0.52217 0.4677 0.0
H1806 H 0.30379 0.87709 0.43175 0.0
H1807 H 0.35092 0.85667 0.5688 0.0
H1808 H 0.35632 0.86288 0.43649 0.0
H1809 H 0.30696 0.88229 0.56652 0.0
H1810 H 0.34415 0.84771 0.52036 0.0
H1811 H 0.29636 0.86844 0.4805 0.0
C1812 C 0.31326 0.87147 0.44297 0.0
C1813 C 0.33068 0.8707 0.43048 0.0
C1814 C 0.33554 0.85481 0.53051 0.0
C1815 C 0.32262 0.86113 0.48577 0.0
C1816 C 0.33929 0.85974 0.55814 0.0
C1817 C 0.32948 0.87021 0.57133 0.0
C1818 C 0.32222 0.86081 0.51595 0.0
C1819 C 0.31473 0.87415 0.55684 0.0
C1820 C 0.30914 0.86667 0.47071 0.0
C1821 C 0.34275 0.86364 0.44564 0.0
N1822 N 0.31182 0.8698 0.52968 0.0
N1823 N 0.33865 0.85935 0.4726 0.0
H1824 H 0.41516 0.31522 0.42577 0.0
H1825 H 0.48138 0.33241 0.56345 0.0
H1826 H 0.48384 0.33642 0.42897 0.0
H1827 H 0.41594 0.32195 0.55888 0.0
H1828 H 0.47963 0.3236 0.51475 0.0
H1829 H 0.41221 0.30689 0.47455 0.0
C1830 C 0.42944 0.31739 0.43671 0.0
C1831 C 0.44973 0.32639 0.42368 0.0
C1832 C 0.46546 0.32274 0.52452 0.0
C1833 C 0.44678 0.3177 0.47931 0.0
C1834 C 0.46645 0.32765 0.55223 0.0
C1835 C 0.44879 0.32791 0.5648 0.0
C1836 C 0.4467 0.31821 0.50949 0.0
C1837 C 0.42985 0.32189 0.54966 0.0
C1838 C 0.42784 0.31284 0.46452 0.0
C1839 C 0.46791 0.32935 0.43853 0.0
N1840 N 0.42938 0.31752 0.52267 0.0
N1841 N 0.4661 0.32532 0.46575 0.0
H1842 H 0.14447 0.49115 0.43024 0.0
H1843 H 0.11099 0.4207 0.5663 0.0
H1844 H 0.10802 0.42078 0.43159 0.0
H1845 H 0.13998 0.49072 0.56296 0.0
H1846 H 0.11888 0.42049 0.51754 0.0
H1847 H 0.1524 0.49131 0.47878 0.0
C1848 C 0.13874 0.47573 0.44073 0.0
C1849 C 0.12564 0.45593 0.42724 0.0
C1850 C 0.12401 0.43595 0.52761 0.0
C1851 C 0.13387 0.45587 0.48271 0.0
C1852 C 0.11963 0.43606 0.55537 0.0
C1853 C 0.12482 0.45574 0.56828 0.0
C1854 C 0.13354 0.4557 0.51291 0.0
C1855 C 0.13575 0.47524 0.55349 0.0
C1856 C 0.14309 0.47578 0.46842 0.0
C1857 C 0.11827 0.43633 0.44151 0.0
N1858 N 0.13952 0.47471 0.52648 0.0
N1859 N 0.12217 0.43677 0.4687 0.0
H1860 H 0.68917 0.11222 0.43047 0.0
H1861 H 0.64825 0.14523 0.5635 0.0
H1862 H 0.64555 0.13828 0.43104 0.0
H1863 H 0.68627 0.11294 0.56525 0.0
H1864 H 0.656 0.15234 0.51485 0.0
H1865 H 0.69684 0.12146 0.47903 0.0
C1866 C 0.68178 0.12051 0.44072 0.0
C1867 C 0.6667 0.12448 0.42711 0.0
C1868 C 0.66313 0.14415 0.5259 0.0
C1869 C 0.67496 0.13472 0.48226 0.0
C1870 C 0.65882 0.14027 0.55366 0.0
C1871 C 0.66669 0.12855 0.56808 0.0
C1872 C 0.67497 0.13579 0.51244 0.0
C1873 C 0.68005 0.12214 0.55461 0.0
C1874 C 0.68601 0.12567 0.46838 0.0
C1875 C 0.65726 0.13499 0.44107 0.0
N1876 N 0.68348 0.12549 0.52733 0.0
N1877 N 0.66133 0.1395 0.46799 0.0
H1878 H 0.57655 0.6839 0.57258 0.0
H1879 H 0.51142 0.66208 0.43262 0.0
H1880 H 0.50653 0.65342 0.5664 0.0
H1881 H 0.57785 0.6756 0.43896 0.0
H1882 H 0.5119 0.67024 0.48136 0.0
H1883 H 0.57959 0.69238 0.5237 0.0
C1884 C 0.56191 0.6797 0.561 0.0
C1885 C 0.54129 0.66804 0.57317 0.0
C1886 C 0.52655 0.67192 0.47196 0.0
C1887 C 0.54448 0.67716 0.51764 0.0
C1888 C 0.52629 0.6674 0.44423 0.0
C1889 C 0.54461 0.66819 0.43216 0.0
C1890 C 0.54526 0.67715 0.48751 0.0
C1891 C 0.56345 0.67488 0.44781 0.0
C1892 C 0.5636 0.68435 0.53317 0.0
C1893 C 0.5227 0.66254 0.55751 0.0
N1894 N 0.56323 0.67887 0.47484 0.0
N1895 N 0.52469 0.66691 0.5304 0.0
loop_
_geom_bond_atom_site_label_1
_geom_bond_atom_site_label_2
_geom_bond_distance
_geom_bond_site_symmetry_2
_ccdc_geom_bond_type
Co0 O3 1.970 . S
Co0 N17 1.989 . S
Co0 O25 1.967 . S
Co0 O32 1.920 . S
Co1 O4 1.966 . S
Co1 N10 2.022 . S
Co1 N18 1.993 . S
Co1 O26 1.941 . S
C2 O3 1.258 . S
C2 O4 1.263 . S
O3 Co0 1.970 . S
O3 C2 1.258 . S
O4 Co1 1.966 . S
O4 C2 1.263 . S
C5 O6 1.235 . S
C5 O32 1.289 . S
O6 C5 1.235 . S
C7 C9 1.400 . S
C7 N10 1.351 . S
C7 C12 1.501 . S
C8 C9 1.387 . S
C8 N11 1.341 . S
C9 C7 1.400 . S
C9 C8 1.387 . S
N10 Co1 2.022 . S
N10 C7 1.351 . S
N10 N11 1.365 . S
N11 C8 1.341 . S
N11 N10 1.365 . S
N11 H31 0.862 . S
C12 C7 1.501 . S
C12 H13 0.961 . S
C12 H14 0.961 . S
C12 H15 0.960 . S
H13 C12 0.961 . S
H14 C12 0.961 . S
H15 C12 0.960 . S
C16 N17 1.342 . S
C16 C20 1.401 . S
C16 C21 1.499 . S
N17 Co0 1.989 . S
N17 C16 1.342 . S
N17 N18 1.388 . S
N18 Co1 1.993 . S
N18 N17 1.388 . S
N18 C19 1.346 . S
C19 N18 1.346 . S
C19 C20 1.396 . S
C19 C29 1.510 . S
C20 C16 1.401 . S
C20 C19 1.396 . S
C21 C16 1.499 . S
C21 H22 0.959 . S
C21 H23 0.960 . S
C21 H24 0.961 . S
H22 C21 0.959 . S
H23 C21 0.960 . S
H24 C21 0.961 . S
O25 Co0 1.967 . S
O25 C33 1.258 . S
O26 Co1 1.941 . S
O26 C33 1.266 . S
H27 C29 0.959 . S
H28 C29 0.961 . S
C29 C19 1.510 . S
C29 H27 0.959 . S
C29 H28 0.961 . S
C29 H30 0.960 . S
H30 C29 0.960 . S
H31 N11 0.862 . S
O32 Co0 1.920 . S
O32 C5 1.289 . S
C33 O25 1.258 . S
C33 O26 1.266 . S
Co34 O37 1.970 . S
Co34 N51 1.989 . S
Co34 O59 1.967 . S
Co34 O66 1.920 . S
Co35 O38 1.966 . S
Co35 N44 2.022 . S
Co35 N52 1.993 . S
Co35 O60 1.941 . S
C36 O37 1.258 . S
C36 O38 1.263 . S
O37 Co34 1.970 . S
O37 C36 1.258 . S
O38 Co35 1.966 . S
O38 C36 1.263 . S
C39 O40 1.235 . S
C39 O66 1.289 . S
O40 C39 1.235 . S
C41 C43 1.400 . S
C41 N44 1.351 . S
C41 C46 1.501 . S
C42 C43 1.387 . S
C42 N45 1.341 . S
C43 C41 1.400 . S
C43 C42 1.387 . S
N44 Co35 2.022 . S
N44 C41 1.351 . S
N44 N45 1.365 . S
N45 C42 1.341 . S
N45 N44 1.365 . S
N45 H65 0.862 . S
C46 C41 1.501 . S
C46 H47 0.961 . S
C46 H48 0.961 . S
C46 H49 0.960 . S
H47 C46 0.961 . S
H48 C46 0.961 . S
H49 C46 0.960 . S
C50 N51 1.342 . S
C50 C54 1.401 . S
C50 C55 1.499 . S
N51 Co34 1.989 . S
N51 C50 1.342 . S
N51 N52 1.388 . S
N52 Co35 1.993 . S
N52 N51 1.388 . S
N52 C53 1.346 . S
C53 N52 1.346 . S
C53 C54 1.396 . S
C53 C63 1.510 . S
C54 C50 1.401 . S
C54 C53 1.396 . S
C55 C50 1.499 . S
C55 H56 0.959 . S
C55 H57 0.960 . S
C55 H58 0.961 . S
H56 C55 0.959 . S
H57 C55 0.960 . S
H58 C55 0.961 . S
O59 Co34 1.967 . S
O59 C67 1.258 . S
O60 Co35 1.941 . S
O60 C67 1.266 . S
H61 C63 0.959 . S
H62 C63 0.961 . S
C63 C53 1.510 . S
C63 H61 0.959 . S
C63 H62 0.961 . S
C63 H64 0.960 . S
H64 C63 0.960 . S
H65 N45 0.862 . S
O66 Co34 1.920 . S
O66 C39 1.289 . S
C67 O59 1.258 . S
C67 O60 1.266 . S
Co68 O71 1.970 . S
Co68 N85 1.989 . S
Co68 O93 1.967 . S
Co68 O100 1.920 . S
Co69 O72 1.966 . S
Co69 N78 2.022 . S
Co69 N86 1.993 . S
Co69 O94 1.941 . S
C70 O71 1.258 . S
C70 O72 1.263 . S
O71 Co68 1.970 . S
O71 C70 1.258 . S
O72 Co69 1.966 . S
O72 C70 1.263 . S
C73 O74 1.235 . S
C73 O100 1.289 . S
O74 C73 1.235 . S
C75 C77 1.400 . S
C75 N78 1.351 . S
C75 C80 1.501 . S
C76 C77 1.387 . S
C76 N79 1.341 . S
C77 C75 1.400 . S
C77 C76 1.387 . S
N78 Co69 2.022 . S
N78 C75 1.351 . S
N78 N79 1.365 . S
N79 C76 1.341 . S
N79 N78 1.365 . S
N79 H99 0.862 . S
C80 C75 1.501 . S
C80 H81 0.961 . S
C80 H82 0.961 . S
C80 H83 0.960 . S
H81 C80 0.961 . S
H82 C80 0.961 . S
H83 C80 0.960 . S
C84 N85 1.342 . S
C84 C88 1.401 . S
C84 C89 1.499 . S
N85 Co68 1.989 . S
N85 C84 1.342 . S
N85 N86 1.388 . S
N86 Co69 1.993 . S
N86 N85 1.388 . S
N86 C87 1.346 . S
C87 N86 1.346 . S
C87 C88 1.396 . S
C87 C97 1.510 . S
C88 C84 1.401 . S
C88 C87 1.396 . S
C89 C84 1.499 . S
C89 H90 0.959 . S
C89 H91 0.960 . S
C89 H92 0.961 . S
H90 C89 0.959 . S
H91 C89 0.960 . S
H92 C89 0.961 . S
O93 Co68 1.967 . S
O93 C101 1.258 . S
O94 Co69 1.941 . S
O94 C101 1.266 . S
H95 C97 0.959 . S
H96 C97 0.961 . S
C97 C87 1.510 . S
C97 H95 0.959 . S
C97 H96 0.961 . S
C97 H98 0.960 . S
H98 C97 0.960 . S
H99 N79 0.862 . S
O100 Co68 1.920 . S
O100 C73 1.289 . S
C101 O93 1.258 . S
C101 O94 1.266 . S
Co102 O105 1.970 . S
Co102 N119 1.989 . S
Co102 O127 1.967 . S
Co102 O134 1.920 . S
Co103 O106 1.966 . S
Co103 N112 2.022 . S
Co103 N120 1.993 . S
Co103 O128 1.941 . S
C104 O105 1.258 . S
C104 O106 1.263 . S
O105 Co102 1.970 . S
O105 C104 1.258 . S
O106 Co103 1.966 . S
O106 C104 1.263 . S
C107 O108 1.235 . S
C107 O134 1.289 . S
O108 C107 1.235 . S
C109 C111 1.400 . S
C109 N112 1.351 . S
C109 C114 1.501 . S
C110 C111 1.387 . S
C110 N113 1.341 . S
C111 C109 1.400 . S
C111 C110 1.387 . S
N112 Co103 2.022 . S
N112 C109 1.351 . S
N112 N113 1.365 . S
N113 C110 1.341 . S
N113 N112 1.365 . S
N113 H133 0.862 . S
C114 C109 1.501 . S
C114 H115 0.961 . S
C114 H116 0.961 . S
C114 H117 0.960 . S
H115 C114 0.961 . S
H116 C114 0.961 . S
H117 C114 0.960 . S
C118 N119 1.342 . S
C118 C122 1.401 . S
C118 C123 1.499 . S
N119 Co102 1.989 . S
N119 C118 1.342 . S
N119 N120 1.388 . S
N120 Co103 1.993 . S
N120 N119 1.388 . S
N120 C121 1.346 . S
C121 N120 1.346 . S
C121 C122 1.396 . S
C121 C131 1.510 . S
C122 C118 1.401 . S
C122 C121 1.396 . S
C123 C118 1.499 . S
C123 H124 0.959 . S
C123 H125 0.960 . S
C123 H126 0.961 . S
H124 C123 0.959 . S
H125 C123 0.960 . S
H126 C123 0.961 . S
O127 Co102 1.967 . S
O127 C135 1.258 . S
O128 Co103 1.941 . S
O128 C135 1.266 . S
H129 C131 0.959 . S
H130 C131 0.961 . S
C131 C121 1.510 . S
C131 H129 0.959 . S
C131 H130 0.961 . S
C131 H132 0.960 . S
H132 C131 0.960 . S
H133 N113 0.862 . S
O134 Co102 1.920 . S
O134 C107 1.289 . S
C135 O127 1.258 . S
C135 O128 1.266 . S
Co136 O139 1.970 . S
Co136 N153 1.989 . S
Co136 O161 1.967 . S
Co136 O168 1.920 . S
Co137 O140 1.966 . S
Co137 N146 2.022 . S
Co137 N154 1.993 . S
Co137 O162 1.941 . S
C138 O139 1.258 . S
C138 O140 1.263 . S
O139 Co136 1.970 . S
O139 C138 1.258 . S
O140 Co137 1.966 . S
O140 C138 1.263 . S
C141 O142 1.235 . S
C141 O168 1.289 . S
O142 C141 1.235 . S
C143 C145 1.400 . S
C143 N146 1.351 . S
C143 C148 1.501 . S
C144 C145 1.387 . S
C144 N147 1.341 . S
C145 C143 1.400 . S
C145 C144 1.387 . S
N146 Co137 2.022 . S
N146 C143 1.351 . S
N146 N147 1.365 . S
N147 C144 1.341 . S
N147 N146 1.365 . S
N147 H167 0.862 . S
C148 C143 1.501 . S
C148 H149 0.961 . S
C148 H150 0.961 . S
C148 H151 0.960 . S
H149 C148 0.961 . S
H150 C148 0.961 . S
H151 C148 0.960 . S
C152 N153 1.342 . S
C152 C156 1.401 . S
C152 C157 1.499 . S
N153 Co136 1.989 . S
N153 C152 1.342 . S
N153 N154 1.388 . S
N154 Co137 1.993 . S
N154 N153 1.388 . S
N154 C155 1.346 . S
C155 N154 1.346 . S
C155 C156 1.396 . S
C155 C165 1.510 . S
C156 C152 1.401 . S
C156 C155 1.396 . S
C157 C152 1.499 . S
C157 H158 0.959 . S
C157 H159 0.960 . S
C157 H160 0.961 . S
H158 C157 0.959 . S
H159 C157 0.960 . S
H160 C157 0.961 . S
O161 Co136 1.967 . S
O161 C169 1.258 . S
O162 Co137 1.941 . S
O162 C169 1.266 . S
H163 C165 0.959 . S
H164 C165 0.961 . S
C165 C155 1.510 . S
C165 H163 0.959 . S
C165 H164 0.961 . S
C165 H166 0.960 . S
H166 C165 0.960 . S
H167 N147 0.862 . S
O168 Co136 1.920 . S
O168 C141 1.289 . S
C169 O161 1.258 . S
C169 O162 1.266 . S
Co170 O173 1.970 . S
Co170 N187 1.989 . S
Co170 O195 1.967 . S
Co170 O202 1.920 . S
Co171 O174 1.966 . S
Co171 N180 2.022 . S
Co171 N188 1.993 . S
Co171 O196 1.941 . S
C172 O173 1.258 . S
C172 O174 1.263 . S
O173 Co170 1.970 . S
O173 C172 1.258 . S
O174 Co171 1.966 . S
O174 C172 1.263 . S
C175 O176 1.235 . S
C175 O202 1.289 . S
O176 C175 1.235 . S
C177 C179 1.400 . S
C177 N180 1.351 . S
C177 C182 1.501 . S
C178 C179 1.387 . S
C178 N181 1.341 . S
C179 C177 1.400 . S
C179 C178 1.387 . S
N180 Co171 2.022 . S
N180 C177 1.351 . S
N180 N181 1.365 . S
N181 C178 1.341 . S
N181 N180 1.365 . S
N181 H201 0.862 . S
C182 C177 1.501 . S
C182 H183 0.961 . S
C182 H184 0.961 . S
C182 H185 0.960 . S
H183 C182 0.961 . S
H184 C182 0.961 . S
H185 C182 0.960 . S
C186 N187 1.342 . S
C186 C190 1.401 . S
C186 C191 1.499 . S
N187 Co170 1.989 . S
N187 C186 1.342 . S
N187 N188 1.388 . S
N188 Co171 1.993 . S
N188 N187 1.388 . S
N188 C189 1.346 . S
C189 N188 1.346 . S
C189 C190 1.396 . S
C189 C199 1.510 . S
C190 C186 1.401 . S
C190 C189 1.396 . S
C191 C186 1.499 . S
C191 H192 0.959 . S
C191 H193 0.960 . S
C191 H194 0.961 . S
H192 C191 0.959 . S
H193 C191 0.960 . S
H194 C191 0.961 . S
O195 Co170 1.967 . S
O195 C203 1.258 . S
O196 Co171 1.941 . S
O196 C203 1.266 . S
H197 C199 0.959 . S
H198 C199 0.961 . S
C199 C189 1.510 . S
C199 H197 0.959 . S
C199 H198 0.961 . S
C199 H200 0.960 . S
H200 C199 0.960 . S
H201 N181 0.862 . S
O202 Co170 1.920 . S
O202 C175 1.289 . S
C203 O195 1.258 . S
C203 O196 1.266 . S
Co204 O207 1.970 . S
Co204 N221 1.989 . S
Co204 O229 1.967 . S
Co204 O236 1.920 . S
Co205 O208 1.966 . S
Co205 N214 2.022 . S
Co205 N222 1.993 . S
Co205 O230 1.941 . S
C206 O207 1.258 . S
C206 O208 1.263 . S
O207 Co204 1.970 . S
O207 C206 1.258 . S
O208 Co205 1.966 . S
O208 C206 1.263 . S
C209 O210 1.235 . S
C209 O236 1.289 . S
O210 C209 1.235 . S
C211 C213 1.400 . S
C211 N214 1.351 . S
C211 C216 1.501 . S
C212 C213 1.387 . S
C212 N215 1.341 . S
C213 C211 1.400 . S
C213 C212 1.387 . S
N214 Co205 2.022 . S
N214 C211 1.351 . S
N214 N215 1.365 . S
N215 C212 1.341 . S
N215 N214 1.365 . S
N215 H235 0.862 . S
C216 C211 1.501 . S
C216 H217 0.961 . S
C216 H218 0.961 . S
C216 H219 0.960 . S
H217 C216 0.961 . S
H218 C216 0.961 . S
H219 C216 0.960 . S
C220 N221 1.342 . S
C220 C224 1.401 . S
C220 C225 1.499 . S
N221 Co204 1.989 . S
N221 C220 1.342 . S
N221 N222 1.388 . S
N222 Co205 1.993 . S
N222 N221 1.388 . S
N222 C223 1.346 . S
C223 N222 1.346 . S
C223 C224 1.396 . S
C223 C233 1.510 . S
C224 C220 1.401 . S
C224 C223 1.396 . S
C225 C220 1.499 . S
C225 H226 0.959 . S
C225 H227 0.960 . S
C225 H228 0.961 . S
H226 C225 0.959 . S
H227 C225 0.960 . S
H228 C225 0.961 . S
O229 Co204 1.967 . S
O229 C237 1.258 . S
O230 Co205 1.941 . S
O230 C237 1.266 . S
H231 C233 0.959 . S
H232 C233 0.961 . S
C233 C223 1.510 . S
C233 H231 0.959 . S
C233 H232 0.961 . S
C233 H234 0.960 . S
H234 C233 0.960 . S
H235 N215 0.862 . S
O236 Co204 1.920 . S
O236 C209 1.289 . S
C237 O229 1.258 . S
C237 O230 1.266 . S
Co238 O241 1.970 . S
Co238 N255 1.989 . S
Co238 O263 1.967 . S
Co238 O270 1.920 . S
Co239 O242 1.966 . S
Co239 N248 2.022 . S
Co239 N256 1.993 . S
Co239 O264 1.941 . S
C240 O241 1.258 . S
C240 O242 1.263 . S
O241 Co238 1.970 . S
O241 C240 1.258 . S
O242 Co239 1.966 . S
O242 C240 1.263 . S
C243 O244 1.235 . S
C243 O270 1.289 . S
O244 C243 1.235 . S
C245 C247 1.400 . S
C245 N248 1.351 . S
C245 C250 1.501 . S
C246 C247 1.387 . S
C246 N249 1.341 . S
C247 C245 1.400 . S
C247 C246 1.387 . S
N248 Co239 2.022 . S
N248 C245 1.351 . S
N248 N249 1.365 . S
N249 C246 1.341 . S
N249 N248 1.365 . S
N249 H269 0.862 . S
C250 C245 1.501 . S
C250 H251 0.961 . S
C250 H252 0.961 . S
C250 H253 0.960 . S
H251 C250 0.961 . S
H252 C250 0.961 . S
H253 C250 0.960 . S
C254 N255 1.342 . S
C254 C258 1.401 . S
C254 C259 1.499 . S
N255 Co238 1.989 . S
N255 C254 1.342 . S
N255 N256 1.388 . S
N256 Co239 1.993 . S
N256 N255 1.388 . S
N256 C257 1.346 . S
C257 N256 1.346 . S
C257 C258 1.396 . S
C257 C267 1.510 . S
C258 C254 1.401 . S
C258 C257 1.396 . S
C259 C254 1.499 . S
C259 H260 0.959 . S
C259 H261 0.960 . S
C259 H262 0.961 . S
H260 C259 0.959 . S
H261 C259 0.960 . S
H262 C259 0.961 . S
O263 Co238 1.967 . S
O263 C271 1.258 . S
O264 Co239 1.941 . S
O264 C271 1.266 . S
H265 C267 0.959 . S
H266 C267 0.961 . S
C267 C257 1.510 . S
C267 H265 0.959 . S
C267 H266 0.961 . S
C267 H268 0.960 . S
H268 C267 0.960 . S
H269 N249 0.862 . S
O270 Co238 1.920 . S
O270 C243 1.289 . S
C271 O263 1.258 . S
C271 O264 1.266 . S
Co272 O275 1.970 . S
Co272 N289 1.989 . S
Co272 O297 1.967 . S
Co272 O304 1.920 . S
Co273 O276 1.966 . S
Co273 N282 2.022 . S
Co273 N290 1.993 . S
Co273 O298 1.941 . S
C274 O275 1.258 . S
C274 O276 1.263 . S
O275 Co272 1.970 . S
O275 C274 1.258 . S
O276 Co273 1.966 . S
O276 C274 1.263 . S
C277 O278 1.235 . S
C277 O304 1.289 . S
O278 C277 1.235 . S
C279 C281 1.400 . S
C279 N282 1.351 . S
C279 C284 1.501 . S
C280 C281 1.387 . S
C280 N283 1.341 . S
C281 C279 1.400 . S
C281 C280 1.387 . S
N282 Co273 2.022 . S
N282 C279 1.351 . S
N282 N283 1.365 . S
N283 C280 1.341 . S
N283 N282 1.365 . S
N283 H303 0.862 . S
C284 C279 1.501 . S
C284 H285 0.961 . S
C284 H286 0.961 . S
C284 H287 0.960 . S
H285 C284 0.961 . S
H286 C284 0.961 . S
H287 C284 0.960 . S
C288 N289 1.342 . S
C288 C292 1.401 . S
C288 C293 1.499 . S
N289 Co272 1.989 . S
N289 C288 1.342 . S
N289 N290 1.388 . S
N290 Co273 1.993 . S
N290 N289 1.388 . S
N290 C291 1.346 . S
C291 N290 1.346 . S
C291 C292 1.396 . S
C291 C301 1.510 . S
C292 C288 1.401 . S
C292 C291 1.396 . S
C293 C288 1.499 . S
C293 H294 0.959 . S
C293 H295 0.960 . S
C293 H296 0.961 . S
H294 C293 0.959 . S
H295 C293 0.960 . S
H296 C293 0.961 . S
O297 Co272 1.967 . S
O297 C305 1.258 . S
O298 Co273 1.941 . S
O298 C305 1.266 . S
H299 C301 0.959 . S
H300 C301 0.961 . S
C301 C291 1.510 . S
C301 H299 0.959 . S
C301 H300 0.961 . S
C301 H302 0.960 . S
H302 C301 0.960 . S
H303 N283 0.862 . S
O304 Co272 1.920 . S
O304 C277 1.289 . S
C305 O297 1.258 . S
C305 O298 1.266 . S
Co306 O309 1.970 . S
Co306 N323 1.989 . S
Co306 O331 1.967 . S
Co306 O338 1.920 . S
Co307 O310 1.966 . S
Co307 N316 2.022 . S
Co307 N324 1.993 . S
Co307 O332 1.941 . S
C308 O309 1.258 . S
C308 O310 1.263 . S
O309 Co306 1.970 . S
O309 C308 1.258 . S
O310 Co307 1.966 . S
O310 C308 1.263 . S
C311 O312 1.235 . S
C311 O338 1.289 . S
O312 C311 1.235 . S
C313 C315 1.400 . S
C313 N316 1.351 . S
C313 C318 1.501 . S
C314 C315 1.387 . S
C314 N317 1.341 . S
C315 C313 1.400 . S
C315 C314 1.387 . S
N316 Co307 2.022 . S
N316 C313 1.351 . S
N316 N317 1.365 . S
N317 C314 1.341 . S
N317 N316 1.365 . S
N317 H337 0.862 . S
C318 C313 1.501 . S
C318 H319 0.961 . S
C318 H320 0.961 . S
C318 H321 0.960 . S
H319 C318 0.961 . S
H320 C318 0.961 . S
H321 C318 0.960 . S
C322 N323 1.342 . S
C322 C326 1.401 . S
C322 C327 1.499 . S
N323 Co306 1.989 . S
N323 C322 1.342 . S
N323 N324 1.388 . S
N324 Co307 1.993 . S
N324 N323 1.388 . S
N324 C325 1.346 . S
C325 N324 1.346 . S
C325 C326 1.396 . S
C325 C335 1.510 . S
C326 C322 1.401 . S
C326 C325 1.396 . S
C327 C322 1.499 . S
C327 H328 0.959 . S
C327 H329 0.960 . S
C327 H330 0.961 . S
H328 C327 0.959 . S
H329 C327 0.960 . S
H330 C327 0.961 . S
O331 Co306 1.967 . S
O331 C339 1.258 . S
O332 Co307 1.941 . S
O332 C339 1.266 . S
H333 C335 0.959 . S
H334 C335 0.961 . S
C335 C325 1.510 . S
C335 H333 0.959 . S
C335 H334 0.961 . S
C335 H336 0.960 . S
H336 C335 0.960 . S
H337 N317 0.862 . S
O338 Co306 1.920 . S
O338 C311 1.289 . S
C339 O331 1.258 . S
C339 O332 1.266 . S
Co340 O343 1.970 . S
Co340 N357 1.989 . S
Co340 O365 1.967 . S
Co340 O372 1.920 . S
Co341 O344 1.966 . S
Co341 N350 2.022 . S
Co341 N358 1.993 . S
Co341 O366 1.941 . S
C342 O343 1.258 . S
C342 O344 1.263 . S
O343 Co340 1.970 . S
O343 C342 1.258 . S
O344 Co341 1.966 . S
O344 C342 1.263 . S
C345 O346 1.235 . S
C345 O372 1.289 . S
O346 C345 1.235 . S
C347 C349 1.400 . S
C347 N350 1.351 . S
C347 C352 1.501 . S
C348 C349 1.387 . S
C348 N351 1.341 . S
C349 C347 1.400 . S
C349 C348 1.387 . S
N350 Co341 2.022 . S
N350 C347 1.351 . S
N350 N351 1.365 . S
N351 C348 1.341 . S
N351 N350 1.365 . S
N351 H371 0.862 . S
C352 C347 1.501 . S
C352 H353 0.961 . S
C352 H354 0.961 . S
C352 H355 0.960 . S
H353 C352 0.961 . S
H354 C352 0.961 . S
H355 C352 0.960 . S
C356 N357 1.342 . S
C356 C360 1.401 . S
C356 C361 1.499 . S
N357 Co340 1.989 . S
N357 C356 1.342 . S
N357 N358 1.388 . S
N358 Co341 1.993 . S
N358 N357 1.388 . S
N358 C359 1.346 . S
C359 N358 1.346 . S
C359 C360 1.396 . S
C359 C369 1.510 . S
C360 C356 1.401 . S
C360 C359 1.396 . S
C361 C356 1.499 . S
C361 H362 0.959 . S
C361 H363 0.960 . S
C361 H364 0.961 . S
H362 C361 0.959 . S
H363 C361 0.960 . S
H364 C361 0.961 . S
O365 Co340 1.967 . S
O365 C373 1.258 . S
O366 Co341 1.941 . S
O366 C373 1.266 . S
H367 C369 0.959 . S
H368 C369 0.961 . S
C369 C359 1.510 . S
C369 H367 0.959 . S
C369 H368 0.961 . S
C369 H370 0.960 . S
H370 C369 0.960 . S
H371 N351 0.862 . S
O372 Co340 1.920 . S
O372 C345 1.289 . S
C373 O365 1.258 . S
C373 O366 1.266 . S
Co374 O377 1.970 . S
Co374 N391 1.989 . S
Co374 O399 1.967 . S
Co374 O406 1.920 . S
Co375 O378 1.966 . S
Co375 N384 2.022 . S
Co375 N392 1.993 . S
Co375 O400 1.941 . S
C376 O377 1.258 . S
C376 O378 1.263 . S
O377 Co374 1.970 . S
O377 C376 1.258 . S
O378 Co375 1.966 . S
O378 C376 1.263 . S
C379 O380 1.235 . S
C379 O406 1.289 . S
O380 C379 1.235 . S
C381 C383 1.400 . S
C381 N384 1.351 . S
C381 C386 1.501 . S
C382 C383 1.387 . S
C382 N385 1.341 . S
C383 C381 1.400 . S
C383 C382 1.387 . S
N384 Co375 2.022 . S
N384 C381 1.351 . S
N384 N385 1.365 . S
N385 C382 1.341 . S
N385 N384 1.365 . S
N385 H405 0.862 . S
C386 C381 1.501 . S
C386 H387 0.961 . S
C386 H388 0.961 . S
C386 H389 0.960 . S
H387 C386 0.961 . S
H388 C386 0.961 . S
H389 C386 0.960 . S
C390 N391 1.342 . S
C390 C394 1.401 . S
C390 C395 1.499 . S
N391 Co374 1.989 . S
N391 C390 1.342 . S
N391 N392 1.388 . S
N392 Co375 1.993 . S
N392 N391 1.388 . S
N392 C393 1.346 . S
C393 N392 1.346 . S
C393 C394 1.396 . S
C393 C403 1.510 . S
C394 C390 1.401 . S
C394 C393 1.396 . S
C395 C390 1.499 . S
C395 H396 0.959 . S
C395 H397 0.960 . S
C395 H398 0.961 . S
H396 C395 0.959 . S
H397 C395 0.960 . S
H398 C395 0.961 . S
O399 Co374 1.967 . S
O399 C407 1.258 . S
O400 Co375 1.941 . S
O400 C407 1.266 . S
H401 C403 0.959 . S
H402 C403 0.961 . S
C403 C393 1.510 . S
C403 H401 0.959 . S
C403 H402 0.961 . S
C403 H404 0.960 . S
H404 C403 0.960 . S
H405 N385 0.862 . S
O406 Co374 1.920 . S
O406 C379 1.289 . S
C407 O399 1.258 . S
C407 O400 1.266 . S
Co408 O411 1.970 . S
Co408 N425 1.989 . S
Co408 O433 1.967 . S
Co408 O440 1.920 . S
Co409 O412 1.966 . S
Co409 N418 2.022 . S
Co409 N426 1.993 . S
Co409 O434 1.941 . S
C410 O411 1.258 . S
C410 O412 1.263 . S
O411 Co408 1.970 . S
O411 C410 1.258 . S
O412 Co409 1.966 . S
O412 C410 1.263 . S
C413 O414 1.235 . S
C413 O440 1.289 . S
O414 C413 1.235 . S
C415 C417 1.400 . S
C415 N418 1.351 . S
C415 C420 1.501 . S
C416 C417 1.387 . S
C416 N419 1.341 . S
C417 C415 1.400 . S
C417 C416 1.387 . S
N418 Co409 2.022 . S
N418 C415 1.351 . S
N418 N419 1.365 . S
N419 C416 1.341 . S
N419 N418 1.365 . S
N419 H439 0.862 . S
C420 C415 1.501 . S
C420 H421 0.961 . S
C420 H422 0.961 . S
C420 H423 0.960 . S
H421 C420 0.961 . S
H422 C420 0.961 . S
H423 C420 0.960 . S
C424 N425 1.342 . S
C424 C428 1.401 . S
C424 C429 1.499 . S
N425 Co408 1.989 . S
N425 C424 1.342 . S
N425 N426 1.388 . S
N426 Co409 1.993 . S
N426 N425 1.388 . S
N426 C427 1.346 . S
C427 N426 1.346 . S
C427 C428 1.396 . S
C427 C437 1.510 . S
C428 C424 1.401 . S
C428 C427 1.396 . S
C429 C424 1.499 . S
C429 H430 0.959 . S
C429 H431 0.960 . S
C429 H432 0.961 . S
H430 C429 0.959 . S
H431 C429 0.960 . S
H432 C429 0.961 . S
O433 Co408 1.967 . S
O433 C441 1.258 . S
O434 Co409 1.941 . S
O434 C441 1.266 . S
H435 C437 0.959 . S
H436 C437 0.961 . S
C437 C427 1.510 . S
C437 H435 0.959 . S
C437 H436 0.961 . S
C437 H438 0.960 . S
H438 C437 0.960 . S
H439 N419 0.862 . S
O440 Co408 1.920 . S
O440 C413 1.289 . S
C441 O433 1.258 . S
C441 O434 1.266 . S
Co442 O445 1.970 . S
Co442 N459 1.989 . S
Co442 O467 1.967 . S
Co442 O474 1.920 . S
Co443 O446 1.966 . S
Co443 N452 2.022 . S
Co443 N460 1.993 . S
Co443 O468 1.941 . S
C444 O445 1.258 . S
C444 O446 1.263 . S
O445 Co442 1.970 . S
O445 C444 1.258 . S
O446 Co443 1.966 . S
O446 C444 1.263 . S
C447 O448 1.235 . S
C447 O474 1.289 . S
O448 C447 1.235 . S
C449 C451 1.400 . S
C449 N452 1.351 . S
C449 C454 1.501 . S
C450 C451 1.387 . S
C450 N453 1.341 . S
C451 C449 1.400 . S
C451 C450 1.387 . S
N452 Co443 2.022 . S
N452 C449 1.351 . S
N452 N453 1.365 . S
N453 C450 1.341 . S
N453 N452 1.365 . S
N453 H473 0.862 . S
C454 C449 1.501 . S
C454 H455 0.961 . S
C454 H456 0.961 . S
C454 H457 0.960 . S
H455 C454 0.961 . S
H456 C454 0.961 . S
H457 C454 0.960 . S
C458 N459 1.342 . S
C458 C462 1.401 . S
C458 C463 1.499 . S
N459 Co442 1.989 . S
N459 C458 1.342 . S
N459 N460 1.388 . S
N460 Co443 1.993 . S
N460 N459 1.388 . S
N460 C461 1.346 . S
C461 N460 1.346 . S
C461 C462 1.396 . S
C461 C471 1.510 . S
C462 C458 1.401 . S
C462 C461 1.396 . S
C463 C458 1.499 . S
C463 H464 0.959 . S
C463 H465 0.960 . S
C463 H466 0.961 . S
H464 C463 0.959 . S
H465 C463 0.960 . S
H466 C463 0.961 . S
O467 Co442 1.967 . S
O467 C475 1.258 . S
O468 Co443 1.941 . S
O468 C475 1.266 . S
H469 C471 0.959 . S
H470 C471 0.961 . S
C471 C461 1.510 . S
C471 H469 0.959 . S
C471 H470 0.961 . S
C471 H472 0.960 . S
H472 C471 0.960 . S
H473 N453 0.862 . S
O474 Co442 1.920 . S
O474 C447 1.289 . S
C475 O467 1.258 . S
C475 O468 1.266 . S
Co476 O479 1.970 . S
Co476 N493 1.989 . S
Co476 O501 1.967 . S
Co476 O508 1.920 . S
Co477 O480 1.966 . S
Co477 N486 2.022 . S
Co477 N494 1.993 . S
Co477 O502 1.941 . S
C478 O479 1.258 . S
C478 O480 1.263 . S
O479 Co476 1.970 . S
O479 C478 1.258 . S
O480 Co477 1.966 . S
O480 C478 1.263 . S
C481 O482 1.235 . S
C481 O508 1.289 . S
O482 C481 1.235 . S
C483 C485 1.400 . S
C483 N486 1.351 . S
C483 C488 1.501 . S
C484 C485 1.387 . S
C484 N487 1.341 . S
C485 C483 1.400 . S
C485 C484 1.387 . S
N486 Co477 2.022 . S
N486 C483 1.351 . S
N486 N487 1.365 . S
N487 C484 1.341 . S
N487 N486 1.365 . S
N487 H507 0.862 . S
C488 C483 1.501 . S
C488 H489 0.961 . S
C488 H490 0.961 . S
C488 H491 0.960 . S
H489 C488 0.961 . S
H490 C488 0.961 . S
H491 C488 0.960 . S
C492 N493 1.342 . S
C492 C496 1.401 . S
C492 C497 1.499 . S
N493 Co476 1.989 . S
N493 C492 1.342 . S
N493 N494 1.388 . S
N494 Co477 1.993 . S
N494 N493 1.388 . S
N494 C495 1.346 . S
C495 N494 1.346 . S
C495 C496 1.396 . S
C495 C505 1.510 . S
C496 C492 1.401 . S
C496 C495 1.396 . S
C497 C492 1.499 . S
C497 H498 0.959 . S
C497 H499 0.960 . S
C497 H500 0.961 . S
H498 C497 0.959 . S
H499 C497 0.960 . S
H500 C497 0.961 . S
O501 Co476 1.967 . S
O501 C509 1.258 . S
O502 Co477 1.941 . S
O502 C509 1.266 . S
H503 C505 0.959 . S
H504 C505 0.961 . S
C505 C495 1.510 . S
C505 H503 0.959 . S
C505 H504 0.961 . S
C505 H506 0.960 . S
H506 C505 0.960 . S
H507 N487 0.862 . S
O508 Co476 1.920 . S
O508 C481 1.289 . S
C509 O501 1.258 . S
C509 O502 1.266 . S
Co510 O513 1.970 . S
Co510 N527 1.989 . S
Co510 O535 1.967 . S
Co510 O542 1.920 . S
Co511 O514 1.966 . S
Co511 N520 2.022 . S
Co511 N528 1.993 . S
Co511 O536 1.941 . S
C512 O513 1.258 . S
C512 O514 1.263 . S
O513 Co510 1.970 . S
O513 C512 1.258 . S
O514 Co511 1.966 . S
O514 C512 1.263 . S
C515 O516 1.235 . S
C515 O542 1.289 . S
O516 C515 1.235 . S
C517 C519 1.400 . S
C517 N520 1.351 . S
C517 C522 1.501 . S
C518 C519 1.387 . S
C518 N521 1.341 . S
C519 C517 1.400 . S
C519 C518 1.387 . S
N520 Co511 2.022 . S
N520 C517 1.351 . S
N520 N521 1.365 . S
N521 C518 1.341 . S
N521 N520 1.365 . S
N521 H541 0.862 . S
C522 C517 1.501 . S
C522 H523 0.961 . S
C522 H524 0.961 . S
C522 H525 0.960 . S
H523 C522 0.961 . S
H524 C522 0.961 . S
H525 C522 0.960 . S
C526 N527 1.342 . S
C526 C530 1.401 . S
C526 C531 1.499 . S
N527 Co510 1.989 . S
N527 C526 1.342 . S
N527 N528 1.388 . S
N528 Co511 1.993 . S
N528 N527 1.388 . S
N528 C529 1.346 . S
C529 N528 1.346 . S
C529 C530 1.396 . S
C529 C539 1.510 . S
C530 C526 1.401 . S
C530 C529 1.396 . S
C531 C526 1.499 . S
C531 H532 0.959 . S
C531 H533 0.960 . S
C531 H534 0.961 . S
H532 C531 0.959 . S
H533 C531 0.960 . S
H534 C531 0.961 . S
O535 Co510 1.967 . S
O535 C543 1.258 . S
O536 Co511 1.941 . S
O536 C543 1.266 . S
H537 C539 0.959 . S
H538 C539 0.961 . S
C539 C529 1.510 . S
C539 H537 0.959 . S
C539 H538 0.961 . S
C539 H540 0.960 . S
H540 C539 0.960 . S
H541 N521 0.862 . S
O542 Co510 1.920 . S
O542 C515 1.289 . S
C543 O535 1.258 . S
C543 O536 1.266 . S
Co544 O547 1.970 . S
Co544 N561 1.989 . S
Co544 O569 1.967 . S
Co544 O576 1.920 . S
Co545 O548 1.966 . S
Co545 N554 2.022 . S
Co545 N562 1.993 . S
Co545 O570 1.941 . S
C546 O547 1.258 . S
C546 O548 1.263 . S
O547 Co544 1.970 . S
O547 C546 1.258 . S
O548 Co545 1.966 . S
O548 C546 1.263 . S
C549 O550 1.235 . S
C549 O576 1.289 . S
O550 C549 1.235 . S
C551 C553 1.400 . S
C551 N554 1.351 . S
C551 C556 1.501 . S
C552 C553 1.387 . S
C552 N555 1.341 . S
C553 C551 1.400 . S
C553 C552 1.387 . S
N554 Co545 2.022 . S
N554 C551 1.351 . S
N554 N555 1.365 . S
N555 C552 1.341 . S
N555 N554 1.365 . S
N555 H575 0.862 . S
C556 C551 1.501 . S
C556 H557 0.961 . S
C556 H558 0.961 . S
C556 H559 0.960 . S
H557 C556 0.961 . S
H558 C556 0.961 . S
H559 C556 0.960 . S
C560 N561 1.342 . S
C560 C564 1.401 . S
C560 C565 1.499 . S
N561 Co544 1.989 . S
N561 C560 1.342 . S
N561 N562 1.388 . S
N562 Co545 1.993 . S
N562 N561 1.388 . S
N562 C563 1.346 . S
C563 N562 1.346 . S
C563 C564 1.396 . S
C563 C573 1.510 . S
C564 C560 1.401 . S
C564 C563 1.396 . S
C565 C560 1.499 . S
C565 H566 0.959 . S
C565 H567 0.960 . S
C565 H568 0.961 . S
H566 C565 0.959 . S
H567 C565 0.960 . S
H568 C565 0.961 . S
O569 Co544 1.967 . S
O569 C577 1.258 . S
O570 Co545 1.941 . S
O570 C577 1.266 . S
H571 C573 0.959 . S
H572 C573 0.961 . S
C573 C563 1.510 . S
C573 H571 0.959 . S
C573 H572 0.961 . S
C573 H574 0.960 . S
H574 C573 0.960 . S
H575 N555 0.862 . S
O576 Co544 1.920 . S
O576 C549 1.289 . S
C577 O569 1.258 . S
C577 O570 1.266 . S
Co578 O581 1.970 . S
Co578 N595 1.989 . S
Co578 O603 1.967 . S
Co578 O610 1.920 . S
Co579 O582 1.966 . S
Co579 N588 2.022 . S
Co579 N596 1.993 . S
Co579 O604 1.941 . S
C580 O581 1.258 . S
C580 O582 1.263 . S
O581 Co578 1.970 . S
O581 C580 1.258 . S
O582 Co579 1.966 . S
O582 C580 1.263 . S
C583 O584 1.235 . S
C583 O610 1.289 . S
O584 C583 1.235 . S
C585 C587 1.400 . S
C585 N588 1.351 . S
C585 C590 1.501 . S
C586 C587 1.387 . S
C586 N589 1.341 . S
C587 C585 1.400 . S
C587 C586 1.387 . S
N588 Co579 2.022 . S
N588 C585 1.351 . S
N588 N589 1.365 . S
N589 C586 1.341 . S
N589 N588 1.365 . S
N589 H609 0.862 . S
C590 C585 1.501 . S
C590 H591 0.961 . S
C590 H592 0.961 . S
C590 H593 0.960 . S
H591 C590 0.961 . S
H592 C590 0.961 . S
H593 C590 0.960 . S
C594 N595 1.342 . S
C594 C598 1.401 . S
C594 C599 1.499 . S
N595 Co578 1.989 . S
N595 C594 1.342 . S
N595 N596 1.388 . S
N596 Co579 1.993 . S
N596 N595 1.388 . S
N596 C597 1.346 . S
C597 N596 1.346 . S
C597 C598 1.396 . S
C597 C607 1.510 . S
C598 C594 1.401 . S
C598 C597 1.396 . S
C599 C594 1.499 . S
C599 H600 0.959 . S
C599 H601 0.960 . S
C599 H602 0.961 . S
H600 C599 0.959 . S
H601 C599 0.960 . S
H602 C599 0.961 . S
O603 Co578 1.967 . S
O603 C611 1.258 . S
O604 Co579 1.941 . S
O604 C611 1.266 . S
H605 C607 0.959 . S
H606 C607 0.961 . S
C607 C597 1.510 . S
C607 H605 0.959 . S
C607 H606 0.961 . S
C607 H608 0.960 . S
H608 C607 0.960 . S
H609 N589 0.862 . S
O610 Co578 1.920 . S
O610 C583 1.289 . S
C611 O603 1.258 . S
C611 O604 1.266 . S
Co612 O615 1.970 . S
Co612 N629 1.989 . S
Co612 O637 1.967 . S
Co612 O644 1.920 . S
Co613 O616 1.966 . S
Co613 N622 2.022 . S
Co613 N630 1.993 . S
Co613 O638 1.941 . S
C614 O615 1.258 . S
C614 O616 1.263 . S
O615 Co612 1.970 . S
O615 C614 1.258 . S
O616 Co613 1.966 . S
O616 C614 1.263 . S
C617 O618 1.235 . S
C617 O644 1.289 . S
O618 C617 1.235 . S
C619 C621 1.400 . S
C619 N622 1.351 . S
C619 C624 1.501 . S
C620 C621 1.387 . S
C620 N623 1.341 . S
C621 C619 1.400 . S
C621 C620 1.387 . S
N622 Co613 2.022 . S
N622 C619 1.351 . S
N622 N623 1.365 . S
N623 C620 1.341 . S
N623 N622 1.365 . S
N623 H643 0.862 . S
C624 C619 1.501 . S
C624 H625 0.961 . S
C624 H626 0.961 . S
C624 H627 0.960 . S
H625 C624 0.961 . S
H626 C624 0.961 . S
H627 C624 0.960 . S
C628 N629 1.342 . S
C628 C632 1.401 . S
C628 C633 1.499 . S
N629 Co612 1.989 . S
N629 C628 1.342 . S
N629 N630 1.388 . S
N630 Co613 1.993 . S
N630 N629 1.388 . S
N630 C631 1.346 . S
C631 N630 1.346 . S
C631 C632 1.396 . S
C631 C641 1.510 . S
C632 C628 1.401 . S
C632 C631 1.396 . S
C633 C628 1.499 . S
C633 H634 0.959 . S
C633 H635 0.960 . S
C633 H636 0.961 . S
H634 C633 0.959 . S
H635 C633 0.960 . S
H636 C633 0.961 . S
O637 Co612 1.967 . S
O637 C645 1.258 . S
O638 Co613 1.941 . S
O638 C645 1.266 . S
H639 C641 0.959 . S
H640 C641 0.961 . S
C641 C631 1.510 . S
C641 H639 0.959 . S
C641 H640 0.961 . S
C641 H642 0.960 . S
H642 C641 0.960 . S
H643 N623 0.862 . S
O644 Co612 1.920 . S
O644 C617 1.289 . S
C645 O637 1.258 . S
C645 O638 1.266 . S
Co646 O649 1.970 . S
Co646 N663 1.989 . S
Co646 O671 1.967 . S
Co646 O678 1.920 . S
Co647 O650 1.966 . S
Co647 N656 2.022 . S
Co647 N664 1.993 . S
Co647 O672 1.941 . S
C648 O649 1.258 . S
C648 O650 1.263 . S
O649 Co646 1.970 . S
O649 C648 1.258 . S
O650 Co647 1.966 . S
O650 C648 1.263 . S
C651 O652 1.235 . S
C651 O678 1.289 . S
O652 C651 1.235 . S
C653 C655 1.400 . S
C653 N656 1.351 . S
C653 C658 1.501 . S
C654 C655 1.387 . S
C654 N657 1.341 . S
C655 C653 1.400 . S
C655 C654 1.387 . S
N656 Co647 2.022 . S
N656 C653 1.351 . S
N656 N657 1.365 . S
N657 C654 1.341 . S
N657 N656 1.365 . S
N657 H677 0.862 . S
C658 C653 1.501 . S
C658 H659 0.961 . S
C658 H660 0.961 . S
C658 H661 0.960 . S
H659 C658 0.961 . S
H660 C658 0.961 . S
H661 C658 0.960 . S
C662 N663 1.342 . S
C662 C666 1.401 . S
C662 C667 1.499 . S
N663 Co646 1.989 . S
N663 C662 1.342 . S
N663 N664 1.388 . S
N664 Co647 1.993 . S
N664 N663 1.388 . S
N664 C665 1.346 . S
C665 N664 1.346 . S
C665 C666 1.396 . S
C665 C675 1.510 . S
C666 C662 1.401 . S
C666 C665 1.396 . S
C667 C662 1.499 . S
C667 H668 0.959 . S
C667 H669 0.960 . S
C667 H670 0.961 . S
H668 C667 0.959 . S
H669 C667 0.960 . S
H670 C667 0.961 . S
O671 Co646 1.967 . S
O671 C679 1.258 . S
O672 Co647 1.941 . S
O672 C679 1.266 . S
H673 C675 0.959 . S
H674 C675 0.961 . S
C675 C665 1.510 . S
C675 H673 0.959 . S
C675 H674 0.961 . S
C675 H676 0.960 . S
H676 C675 0.960 . S
H677 N657 0.862 . S
O678 Co646 1.920 . S
O678 C651 1.289 . S
C679 O671 1.258 . S
C679 O672 1.266 . S
Co680 O683 1.970 . S
Co680 N697 1.989 . S
Co680 O705 1.967 . S
Co680 O712 1.920 . S
Co681 O684 1.966 . S
Co681 N690 2.022 . S
Co681 N698 1.993 . S
Co681 O706 1.941 . S
C682 O683 1.258 . S
C682 O684 1.263 . S
O683 Co680 1.970 . S
O683 C682 1.258 . S
O684 Co681 1.966 . S
O684 C682 1.263 . S
C685 O686 1.235 . S
C685 O712 1.289 . S
O686 C685 1.235 . S
C687 C689 1.400 . S
C687 N690 1.351 . S
C687 C692 1.501 . S
C688 C689 1.387 . S
C688 N691 1.341 . S
C689 C687 1.400 . S
C689 C688 1.387 . S
N690 Co681 2.022 . S
N690 C687 1.351 . S
N690 N691 1.365 . S
N691 C688 1.341 . S
N691 N690 1.365 . S
N691 H711 0.862 . S
C692 C687 1.501 . S
C692 H693 0.961 . S
C692 H694 0.961 . S
C692 H695 0.960 . S
H693 C692 0.961 . S
H694 C692 0.961 . S
H695 C692 0.960 . S
C696 N697 1.342 . S
C696 C700 1.401 . S
C696 C701 1.499 . S
N697 Co680 1.989 . S
N697 C696 1.342 . S
N697 N698 1.388 . S
N698 Co681 1.993 . S
N698 N697 1.388 . S
N698 C699 1.346 . S
C699 N698 1.346 . S
C699 C700 1.396 . S
C699 C709 1.510 . S
C700 C696 1.401 . S
C700 C699 1.396 . S
C701 C696 1.499 . S
C701 H702 0.959 . S
C701 H703 0.960 . S
C701 H704 0.961 . S
H702 C701 0.959 . S
H703 C701 0.960 . S
H704 C701 0.961 . S
O705 Co680 1.967 . S
O705 C713 1.258 . S
O706 Co681 1.941 . S
O706 C713 1.266 . S
H707 C709 0.959 . S
H708 C709 0.961 . S
C709 C699 1.510 . S
C709 H707 0.959 . S
C709 H708 0.961 . S
C709 H710 0.960 . S
H710 C709 0.960 . S
H711 N691 0.862 . S
O712 Co680 1.920 . S
O712 C685 1.289 . S
C713 O705 1.258 . S
C713 O706 1.266 . S
Co714 O717 1.970 . S
Co714 N731 1.989 . S
Co714 O739 1.967 . S
Co714 O746 1.920 . S
Co715 O718 1.966 . S
Co715 N724 2.022 . S
Co715 N732 1.993 . S
Co715 O740 1.941 . S
C716 O717 1.258 . S
C716 O718 1.263 . S
O717 Co714 1.970 . S
O717 C716 1.258 . S
O718 Co715 1.966 . S
O718 C716 1.263 . S
C719 O720 1.235 . S
C719 O746 1.289 . S
O720 C719 1.235 . S
C721 C723 1.400 . S
C721 N724 1.351 . S
C721 C726 1.501 . S
C722 C723 1.387 . S
C722 N725 1.341 . S
C723 C721 1.400 . S
C723 C722 1.387 . S
N724 Co715 2.022 . S
N724 C721 1.351 . S
N724 N725 1.365 . S
N725 C722 1.341 . S
N725 N724 1.365 . S
N725 H745 0.862 . S
C726 C721 1.501 . S
C726 H727 0.961 . S
C726 H728 0.961 . S
C726 H729 0.960 . S
H727 C726 0.961 . S
H728 C726 0.961 . S
H729 C726 0.960 . S
C730 N731 1.342 . S
C730 C734 1.401 . S
C730 C735 1.499 . S
N731 Co714 1.989 . S
N731 C730 1.342 . S
N731 N732 1.388 . S
N732 Co715 1.993 . S
N732 N731 1.388 . S
N732 C733 1.346 . S
C733 N732 1.346 . S
C733 C734 1.396 . S
C733 C743 1.510 . S
C734 C730 1.401 . S
C734 C733 1.396 . S
C735 C730 1.499 . S
C735 H736 0.959 . S
C735 H737 0.960 . S
C735 H738 0.961 . S
H736 C735 0.959 . S
H737 C735 0.960 . S
H738 C735 0.961 . S
O739 Co714 1.967 . S
O739 C747 1.258 . S
O740 Co715 1.941 . S
O740 C747 1.266 . S
H741 C743 0.959 . S
H742 C743 0.961 . S
C743 C733 1.510 . S
C743 H741 0.959 . S
C743 H742 0.961 . S
C743 H744 0.960 . S
H744 C743 0.960 . S
H745 N725 0.862 . S
O746 Co714 1.920 . S
O746 C719 1.289 . S
C747 O739 1.258 . S
C747 O740 1.266 . S
Co748 O751 1.970 . S
Co748 N765 1.989 . S
Co748 O773 1.967 . S
Co748 O780 1.920 . S
Co749 O752 1.966 . S
Co749 N758 2.022 . S
Co749 N766 1.993 . S
Co749 O774 1.941 . S
C750 O751 1.258 . S
C750 O752 1.263 . S
O751 Co748 1.970 . S
O751 C750 1.258 . S
O752 Co749 1.966 . S
O752 C750 1.263 . S
C753 O754 1.235 . S
C753 O780 1.289 . S
O754 C753 1.235 . S
C755 C757 1.400 . S
C755 N758 1.351 . S
C755 C760 1.501 . S
C756 C757 1.387 . S
C756 N759 1.341 . S
C757 C755 1.400 . S
C757 C756 1.387 . S
N758 Co749 2.022 . S
N758 C755 1.351 . S
N758 N759 1.365 . S
N759 C756 1.341 . S
N759 N758 1.365 . S
N759 H779 0.862 . S
C760 C755 1.501 . S
C760 H761 0.961 . S
C760 H762 0.961 . S
C760 H763 0.960 . S
H761 C760 0.961 . S
H762 C760 0.961 . S
H763 C760 0.960 . S
C764 N765 1.342 . S
C764 C768 1.401 . S
C764 C769 1.499 . S
N765 Co748 1.989 . S
N765 C764 1.342 . S
N765 N766 1.388 . S
N766 Co749 1.993 . S
N766 N765 1.388 . S
N766 C767 1.346 . S
C767 N766 1.346 . S
C767 C768 1.396 . S
C767 C777 1.510 . S
C768 C764 1.401 . S
C768 C767 1.396 . S
C769 C764 1.499 . S
C769 H770 0.959 . S
C769 H771 0.960 . S
C769 H772 0.961 . S
H770 C769 0.959 . S
H771 C769 0.960 . S
H772 C769 0.961 . S
O773 Co748 1.967 . S
O773 C781 1.258 . S
O774 Co749 1.941 . S
O774 C781 1.266 . S
H775 C777 0.959 . S
H776 C777 0.961 . S
C777 C767 1.510 . S
C777 H775 0.959 . S
C777 H776 0.961 . S
C777 H778 0.960 . S
H778 C777 0.960 . S
H779 N759 0.862 . S
O780 Co748 1.920 . S
O780 C753 1.289 . S
C781 O773 1.258 . S
C781 O774 1.266 . S
Co782 O785 1.970 . S
Co782 N799 1.989 . S
Co782 O807 1.967 . S
Co782 O814 1.920 . S
Co783 O786 1.966 . S
Co783 N792 2.022 . S
Co783 N800 1.993 . S
Co783 O808 1.941 . S
C784 O785 1.258 . S
C784 O786 1.263 . S
O785 Co782 1.970 . S
O785 C784 1.258 . S
O786 Co783 1.966 . S
O786 C784 1.263 . S
C787 O788 1.235 . S
C787 O814 1.289 . S
O788 C787 1.235 . S
C789 C791 1.400 . S
C789 N792 1.351 . S
C789 C794 1.501 . S
C790 C791 1.387 . S
C790 N793 1.341 . S
C791 C789 1.400 . S
C791 C790 1.387 . S
N792 Co783 2.022 . S
N792 C789 1.351 . S
N792 N793 1.365 . S
N793 C790 1.341 . S
N793 N792 1.365 . S
N793 H813 0.862 . S
C794 C789 1.501 . S
C794 H795 0.961 . S
C794 H796 0.961 . S
C794 H797 0.960 . S
H795 C794 0.961 . S
H796 C794 0.961 . S
H797 C794 0.960 . S
C798 N799 1.342 . S
C798 C802 1.401 . S
C798 C803 1.499 . S
N799 Co782 1.989 . S
N799 C798 1.342 . S
N799 N800 1.388 . S
N800 Co783 1.993 . S
N800 N799 1.388 . S
N800 C801 1.346 . S
C801 N800 1.346 . S
C801 C802 1.396 . S
C801 C811 1.510 . S
C802 C798 1.401 . S
C802 C801 1.396 . S
C803 C798 1.499 . S
C803 H804 0.959 . S
C803 H805 0.960 . S
C803 H806 0.961 . S
H804 C803 0.959 . S
H805 C803 0.960 . S
H806 C803 0.961 . S
O807 Co782 1.967 . S
O807 C815 1.258 . S
O808 Co783 1.941 . S
O808 C815 1.266 . S
H809 C811 0.959 . S
H810 C811 0.961 . S
C811 C801 1.510 . S
C811 H809 0.959 . S
C811 H810 0.961 . S
C811 H812 0.960 . S
H812 C811 0.960 . S
H813 N793 0.862 . S
O814 Co782 1.920 . S
O814 C787 1.289 . S
C815 O807 1.258 . S
C815 O808 1.266 . S
H816 C822 0.930 . S
H817 C826 0.930 . S
H818 C831 0.929 . S
H819 C829 0.929 . S
H820 C824 0.929 1_545 S
H821 C830 0.929 1_565 S
C822 H816 0.930 . S
C822 C823 1.367 . S
C822 C830 1.378 . S
C823 C822 1.367 . S
C823 C831 1.433 . S
C824 H820 0.929 1_565 S
C824 C826 1.378 . S
C824 C828 1.350 . S
C825 C828 1.463 1_545 S
C825 C830 1.350 . S
C825 N833 1.427 . S
C826 H817 0.930 . S
C826 C824 1.378 . S
C826 C827 1.367 . S
C827 C826 1.367 . S
C827 C829 1.433 . S
C828 C824 1.350 . S
C828 C825 1.463 1_565 S
C828 N832 1.427 . S
C829 H819 0.929 . S
C829 C827 1.433 . S
C829 N832 1.384 . S
C830 H821 0.929 1_545 S
C830 C822 1.378 . S
C830 C825 1.350 . S
C831 H818 0.929 . S
C831 C823 1.433 . S
C831 N833 1.384 . S
N832 C828 1.427 . S
N832 C829 1.384 . S
N833 C825 1.427 . S
N833 C831 1.384 . S
H834 C840 0.930 . S
H835 C844 0.930 . S
H836 C849 0.929 . S
H837 C847 0.929 . S
H838 C842 0.929 . S
H839 C848 0.929 . S
C840 H834 0.930 . S
C840 C841 1.367 . S
C840 C848 1.378 . S
C841 C840 1.367 . S
C841 C849 1.433 . S
C842 H838 0.929 . S
C842 C844 1.378 . S
C842 C846 1.350 . S
C843 C846 1.463 . S
C843 C848 1.350 . S
C843 N851 1.427 . S
C844 H835 0.930 . S
C844 C842 1.378 . S
C844 C845 1.367 . S
C845 C844 1.367 . S
C845 C847 1.433 . S
C846 C842 1.350 . S
C846 C843 1.463 . S
C846 N850 1.427 . S
C847 H837 0.929 . S
C847 C845 1.433 . S
C847 N850 1.384 . S
C848 H839 0.929 . S
C848 C840 1.378 . S
C848 C843 1.350 . S
C849 H836 0.929 . S
C849 C841 1.433 . S
C849 N851 1.384 . S
N850 C846 1.427 . S
N850 C847 1.384 . S
N851 C843 1.427 . S
N851 C849 1.384 . S
H852 C858 0.930 . S
H853 C862 0.930 . S
H854 C867 0.929 . S
H855 C865 0.929 . S
H856 C860 0.929 . S
H857 C866 0.929 . S
C858 H852 0.930 . S
C858 C859 1.367 . S
C858 C866 1.378 . S
C859 C858 1.367 . S
C859 C867 1.433 . S
C860 H856 0.929 . S
C860 C862 1.378 . S
C860 C864 1.350 . S
C861 C864 1.463 1_455 S
C861 C866 1.350 . S
C861 N869 1.427 . S
C862 H853 0.930 . S
C862 C860 1.378 . S
C862 C863 1.367 . S
C863 C862 1.367 . S
C863 C865 1.433 . S
C864 C860 1.350 . S
C864 C861 1.463 1_655 S
C864 N868 1.427 . S
C865 H855 0.929 . S
C865 C863 1.433 . S
C865 N868 1.384 . S
C866 H857 0.929 . S
C866 C858 1.378 . S
C866 C861 1.350 . S
C867 H854 0.929 . S
C867 C859 1.433 . S
C867 N869 1.384 . S
N868 C864 1.427 . S
N868 C865 1.384 . S
N869 C861 1.427 . S
N869 C867 1.384 . S
H870 C876 0.930 . S
H871 C880 0.930 . S
H872 C885 0.929 . S
H873 C883 0.929 . S
H874 C878 0.929 1_455 S
H875 C884 0.929 1_655 S
C876 H870 0.930 . S
C876 C877 1.367 . S
C876 C884 1.378 . S
C877 C876 1.367 . S
C877 C885 1.433 . S
C878 H874 0.929 1_655 S
C878 C880 1.378 . S
C878 C882 1.350 . S
C879 C882 1.463 1_455 S
C879 C884 1.350 . S
C879 N887 1.427 . S
C880 H871 0.930 . S
C880 C878 1.378 . S
C880 C881 1.367 . S
C881 C880 1.367 . S
C881 C883 1.433 . S
C882 C878 1.350 . S
C882 C879 1.463 1_655 S
C882 N886 1.427 . S
C883 H873 0.929 . S
C883 C881 1.433 . S
C883 N886 1.384 . S
C884 H875 0.929 1_455 S
C884 C876 1.378 . S
C884 C879 1.350 . S
C885 H872 0.929 . S
C885 C877 1.433 . S
C885 N887 1.384 . S
N886 C882 1.427 . S
N886 C883 1.384 . S
N887 C879 1.427 . S
N887 C885 1.384 . S
H888 C894 0.930 . S
H889 C898 0.930 . S
H890 C903 0.929 . S
H891 C901 0.929 . S
H892 C896 0.929 1_565 S
H893 C902 0.929 1_545 S
C894 H888 0.930 . S
C894 C895 1.367 . S
C894 C902 1.378 . S
C895 C894 1.367 . S
C895 C903 1.433 . S
C896 H892 0.929 1_545 S
C896 C898 1.378 . S
C896 C900 1.350 . S
C897 C900 1.463 1_565 S
C897 C902 1.350 . S
C897 N905 1.427 . S
C898 H889 0.930 . S
C898 C896 1.378 . S
C898 C899 1.367 . S
C899 C898 1.367 . S
C899 C901 1.433 . S
C900 C896 1.350 . S
C900 C897 1.463 1_545 S
C900 N904 1.427 . S
C901 H891 0.929 . S
C901 C899 1.433 . S
C901 N904 1.384 . S
C902 H893 0.929 1_565 S
C902 C894 1.378 . S
C902 C897 1.350 . S
C903 H890 0.929 . S
C903 C895 1.433 . S
C903 N905 1.384 . S
N904 C900 1.427 . S
N904 C901 1.384 . S
N905 C897 1.427 . S
N905 C903 1.384 . S
H906 C912 0.930 . S
H907 C916 0.930 . S
H908 C921 0.929 . S
H909 C919 0.929 . S
H910 C914 0.929 . S
H911 C920 0.929 . S
C912 H906 0.930 . S
C912 C913 1.367 . S
C912 C920 1.378 . S
C913 C912 1.367 . S
C913 C921 1.433 . S
C914 H910 0.929 . S
C914 C916 1.378 . S
C914 C918 1.350 . S
C915 C918 1.463 . S
C915 C920 1.350 . S
C915 N923 1.427 . S
C916 H907 0.930 . S
C916 C914 1.378 . S
C916 C917 1.367 . S
C917 C916 1.367 . S
C917 C919 1.433 . S
C918 C914 1.350 . S
C918 C915 1.463 . S
C918 N922 1.427 . S
C919 H909 0.929 . S
C919 C917 1.433 . S
C919 N922 1.384 . S
C920 H911 0.929 . S
C920 C912 1.378 . S
C920 C915 1.350 . S
C921 H908 0.929 . S
C921 C913 1.433 . S
C921 N923 1.384 . S
N922 C918 1.427 . S
N922 C919 1.384 . S
N923 C915 1.427 . S
N923 C921 1.384 . S
H924 C930 0.930 . S
H925 C934 0.930 . S
H926 C939 0.929 . S
H927 C937 0.929 . S
H928 C932 0.929 . S
H929 C938 0.929 . S
C930 H924 0.930 . S
C930 C931 1.367 . S
C930 C938 1.378 . S
C931 C930 1.367 . S
C931 C939 1.433 . S
C932 H928 0.929 . S
C932 C934 1.378 . S
C932 C936 1.350 . S
C933 C936 1.463 1_545 S
C933 C938 1.350 . S
C933 N941 1.427 . S
C934 H925 0.930 . S
C934 C932 1.378 . S
C934 C935 1.367 . S
C935 C934 1.367 . S
C935 C937 1.433 . S
C936 C932 1.350 . S
C936 C933 1.463 1_565 S
C936 N940 1.427 . S
C937 H927 0.929 . S
C937 C935 1.433 . S
C937 N940 1.384 . S
C938 H929 0.929 . S
C938 C930 1.378 . S
C938 C933 1.350 . S
C939 H926 0.929 . S
C939 C931 1.433 . S
C939 N941 1.384 . S
N940 C936 1.427 . S
N940 C937 1.384 . S
N941 C933 1.427 . S
N941 C939 1.384 . S
H942 C948 0.930 . S
H943 C952 0.930 . S
H944 C957 0.929 . S
H945 C955 0.929 . S
H946 C950 0.929 . S
H947 C956 0.929 . S
C948 H942 0.930 . S
C948 C949 1.367 . S
C948 C956 1.378 . S
C949 C948 1.367 . S
C949 C957 1.433 . S
C950 H946 0.929 . S
C950 C952 1.378 . S
C950 C954 1.350 . S
C951 C954 1.463 . S
C951 C956 1.350 . S
C951 N959 1.427 . S
C952 H943 0.930 . S
C952 C950 1.378 . S
C952 C953 1.367 . S
C953 C952 1.367 . S
C953 C955 1.433 . S
C954 C950 1.350 . S
C954 C951 1.463 . S
C954 N958 1.427 . S
C955 H945 0.929 . S
C955 C953 1.433 . S
C955 N958 1.384 . S
C956 H947 0.929 . S
C956 C948 1.378 . S
C956 C951 1.350 . S
C957 H944 0.929 . S
C957 C949 1.433 . S
C957 N959 1.384 . S
N958 C954 1.427 . S
N958 C955 1.384 . S
N959 C951 1.427 . S
N959 C957 1.384 . S
H960 C966 0.930 . S
H961 C970 0.930 . S
H962 C975 0.929 . S
H963 C973 0.929 . S
H964 C968 0.929 . S
H965 C974 0.929 . S
C966 H960 0.930 . S
C966 C967 1.367 . S
C966 C974 1.378 . S
C967 C966 1.367 . S
C967 C975 1.433 . S
C968 H964 0.929 . S
C968 C970 1.378 . S
C968 C972 1.350 . S
C969 C972 1.463 1_655 S
C969 C974 1.350 . S
C969 N977 1.427 . S
C970 H961 0.930 . S
C970 C968 1.378 . S
C970 C971 1.367 . S
C971 C970 1.367 . S
C971 C973 1.433 . S
C972 C968 1.350 . S
C972 C969 1.463 1_455 S
C972 N976 1.427 . S
C973 H963 0.929 . S
C973 C971 1.433 . S
C973 N976 1.384 . S
C974 H965 0.929 . S
C974 C966 1.378 . S
C974 C969 1.350 . S
C975 H962 0.929 . S
C975 C967 1.433 . S
C975 N977 1.384 . S
N976 C972 1.427 . S
N976 C973 1.384 . S
N977 C969 1.427 . S
N977 C975 1.384 . S
H978 C984 0.930 . S
H979 C988 0.930 . S
H980 C993 0.929 . S
H981 C991 0.929 . S
H982 C986 0.929 . S
H983 C992 0.929 . S
C984 H978 0.930 . S
C984 C985 1.367 . S
C984 C992 1.378 . S
C985 C984 1.367 . S
C985 C993 1.433 . S
C986 H982 0.929 . S
C986 C988 1.378 . S
C986 C990 1.350 . S
C987 C990 1.463 1_655 S
C987 C992 1.350 . S
C987 N995 1.427 . S
C988 H979 0.930 . S
C988 C986 1.378 . S
C988 C989 1.367 . S
C989 C988 1.367 . S
C989 C991 1.433 . S
C990 C986 1.350 . S
C990 C987 1.463 1_455 S
C990 N994 1.427 . S
C991 H981 0.929 . S
C991 C989 1.433 . S
C991 N994 1.384 . S
C992 H983 0.929 . S
C992 C984 1.378 . S
C992 C987 1.350 . S
C993 H980 0.929 . S
C993 C985 1.433 . S
C993 N995 1.384 . S
N994 C990 1.427 . S
N994 C991 1.384 . S
N995 C987 1.427 . S
N995 C993 1.384 . S
H996 C1002 0.930 . S
H997 C1006 0.930 . S
H998 C1011 0.929 . S
H999 C1009 0.929 . S
H1000 C1004 0.929 . S
H1001 C1010 0.929 . S
C1002 H996 0.930 . S
C1002 C1003 1.367 . S
C1002 C1010 1.378 . S
C1003 C1002 1.367 . S
C1003 C1011 1.433 . S
C1004 H1000 0.929 . S
C1004 C1006 1.378 . S
C1004 C1008 1.350 . S
C1005 C1008 1.463 1_545 S
C1005 C1010 1.350 . S
C1005 N1013 1.427 . S
C1006 H997 0.930 . S
C1006 C1004 1.378 . S
C1006 C1007 1.367 . S
C1007 C1006 1.367 . S
C1007 C1009 1.433 . S
C1008 C1004 1.350 . S
C1008 C1005 1.463 1_565 S
C1008 N1012 1.427 . S
C1009 H999 0.929 . S
C1009 C1007 1.433 . S
C1009 N1012 1.384 . S
C1010 H1001 0.929 . S
C1010 C1002 1.378 . S
C1010 C1005 1.350 . S
C1011 H998 0.929 . S
C1011 C1003 1.433 . S
C1011 N1013 1.384 . S
N1012 C1008 1.427 . S
N1012 C1009 1.384 . S
N1013 C1005 1.427 . S
N1013 C1011 1.384 . S
H1014 C1020 0.930 . S
H1015 C1024 0.930 . S
H1016 C1029 0.929 . S
H1017 C1027 0.929 . S
H1018 C1022 0.929 . S
H1019 C1028 0.929 . S
C1020 H1014 0.930 . S
C1020 C1021 1.367 . S
C1020 C1028 1.378 . S
C1021 C1020 1.367 . S
C1021 C1029 1.433 . S
C1022 H1018 0.929 . S
C1022 C1024 1.378 . S
C1022 C1026 1.350 . S
C1023 C1026 1.463 . S
C1023 C1028 1.350 . S
C1023 N1031 1.427 . S
C1024 H1015 0.930 . S
C1024 C1022 1.378 . S
C1024 C1025 1.367 . S
C1025 C1024 1.367 . S
C1025 C1027 1.433 . S
C1026 C1022 1.350 . S
C1026 C1023 1.463 . S
C1026 N1030 1.427 . S
C1027 H1017 0.929 . S
C1027 C1025 1.433 . S
C1027 N1030 1.384 . S
C1028 H1019 0.929 . S
C1028 C1020 1.378 . S
C1028 C1023 1.350 . S
C1029 H1016 0.929 . S
C1029 C1021 1.433 . S
C1029 N1031 1.384 . S
N1030 C1026 1.427 . S
N1030 C1027 1.384 . S
N1031 C1023 1.427 . S
N1031 C1029 1.384 . S
H1032 C1038 0.930 . S
H1033 C1042 0.930 . S
H1034 C1047 0.929 . S
H1035 C1045 0.929 . S
H1036 C1040 0.929 . S
H1037 C1046 0.929 . S
C1038 H1032 0.930 . S
C1038 C1039 1.367 . S
C1038 C1046 1.378 . S
C1039 C1038 1.367 . S
C1039 C1047 1.433 . S
C1040 H1036 0.929 . S
C1040 C1042 1.378 . S
C1040 C1044 1.350 . S
C1041 C1044 1.463 . S
C1041 C1046 1.350 . S
C1041 N1049 1.427 . S
C1042 H1033 0.930 . S
C1042 C1040 1.378 . S
C1042 C1043 1.367 . S
C1043 C1042 1.367 . S
C1043 C1045 1.433 . S
C1044 C1040 1.350 . S
C1044 C1041 1.463 . S
C1044 N1048 1.427 . S
C1045 H1035 0.929 . S
C1045 C1043 1.433 . S
C1045 N1048 1.384 . S
C1046 H1037 0.929 . S
C1046 C1038 1.378 . S
C1046 C1041 1.350 . S
C1047 H1034 0.929 . S
C1047 C1039 1.433 . S
C1047 N1049 1.384 . S
N1048 C1044 1.427 . S
N1048 C1045 1.384 . S
N1049 C1041 1.427 . S
N1049 C1047 1.384 . S
H1050 C1056 0.930 . S
H1051 C1060 0.930 . S
H1052 C1065 0.929 . S
H1053 C1063 0.929 . S
H1054 C1058 0.929 . S
H1055 C1064 0.929 . S
C1056 H1050 0.930 . S
C1056 C1057 1.367 . S
C1056 C1064 1.378 . S
C1057 C1056 1.367 . S
C1057 C1065 1.433 . S
C1058 H1054 0.929 . S
C1058 C1060 1.378 . S
C1058 C1062 1.350 . S
C1059 C1062 1.463 . S
C1059 C1064 1.350 . S
C1059 N1067 1.427 . S
C1060 H1051 0.930 . S
C1060 C1058 1.378 . S
C1060 C1061 1.367 . S
C1061 C1060 1.367 . S
C1061 C1063 1.433 . S
C1062 C1058 1.350 . S
C1062 C1059 1.463 . S
C1062 N1066 1.427 . S
C1063 H1053 0.929 . S
C1063 C1061 1.433 . S
C1063 N1066 1.384 . S
C1064 H1055 0.929 . S
C1064 C1056 1.378 . S
C1064 C1059 1.350 . S
C1065 H1052 0.929 . S
C1065 C1057 1.433 . S
C1065 N1067 1.384 . S
N1066 C1062 1.427 . S
N1066 C1063 1.384 . S
N1067 C1059 1.427 . S
N1067 C1065 1.384 . S
H1068 C1074 0.930 . S
H1069 C1078 0.930 . S
H1070 C1083 0.929 . S
H1071 C1081 0.929 . S
H1072 C1076 0.929 . S
H1073 C1082 0.929 . S
C1074 H1068 0.930 . S
C1074 C1075 1.367 . S
C1074 C1082 1.378 . S
C1075 C1074 1.367 . S
C1075 C1083 1.433 . S
C1076 H1072 0.929 . S
C1076 C1078 1.378 . S
C1076 C1080 1.350 . S
C1077 C1080 1.463 . S
C1077 C1082 1.350 . S
C1077 N1085 1.427 . S
C1078 H1069 0.930 . S
C1078 C1076 1.378 . S
C1078 C1079 1.367 . S
C1079 C1078 1.367 . S
C1079 C1081 1.433 . S
C1080 C1076 1.350 . S
C1080 C1077 1.463 . S
C1080 N1084 1.427 . S
C1081 H1071 0.929 . S
C1081 C1079 1.433 . S
C1081 N1084 1.384 . S
C1082 H1073 0.929 . S
C1082 C1074 1.378 . S
C1082 C1077 1.350 . S
C1083 H1070 0.929 . S
C1083 C1075 1.433 . S
C1083 N1085 1.384 . S
N1084 C1080 1.427 . S
N1084 C1081 1.384 . S
N1085 C1077 1.427 . S
N1085 C1083 1.384 . S
H1086 C1092 0.930 . S
H1087 C1096 0.930 . S
H1088 C1101 0.929 . S
H1089 C1099 0.929 . S
H1090 C1094 0.929 . S
H1091 C1100 0.929 . S
C1092 H1086 0.930 . S
C1092 C1093 1.367 . S
C1092 C1100 1.378 . S
C1093 C1092 1.367 . S
C1093 C1101 1.433 . S
C1094 H1090 0.929 . S
C1094 C1096 1.378 . S
C1094 C1098 1.350 . S
C1095 C1098 1.463 . S
C1095 C1100 1.350 . S
C1095 N1103 1.427 . S
C1096 H1087 0.930 . S
C1096 C1094 1.378 . S
C1096 C1097 1.367 . S
C1097 C1096 1.367 . S
C1097 C1099 1.433 . S
C1098 C1094 1.350 . S
C1098 C1095 1.463 . S
C1098 N1102 1.427 . S
C1099 H1089 0.929 . S
C1099 C1097 1.433 . S
C1099 N1102 1.384 . S
C1100 H1091 0.929 . S
C1100 C1092 1.378 . S
C1100 C1095 1.350 . S
C1101 H1088 0.929 . S
C1101 C1093 1.433 . S
C1101 N1103 1.384 . S
N1102 C1098 1.427 . S
N1102 C1099 1.384 . S
N1103 C1095 1.427 . S
N1103 C1101 1.384 . S
H1104 C1110 0.930 . S
H1105 C1114 0.930 . S
H1106 C1119 0.929 . S
H1107 C1117 0.929 . S
H1108 C1112 0.929 . S
H1109 C1118 0.929 . S
C1110 H1104 0.930 . S
C1110 C1111 1.367 . S
C1110 C1118 1.378 . S
C1111 C1110 1.367 . S
C1111 C1119 1.433 . S
C1112 H1108 0.929 . S
C1112 C1114 1.378 . S
C1112 C1116 1.350 . S
C1113 C1116 1.463 . S
C1113 C1118 1.350 . S
C1113 N1121 1.427 . S
C1114 H1105 0.930 . S
C1114 C1112 1.378 . S
C1114 C1115 1.367 . S
C1115 C1114 1.367 . S
C1115 C1117 1.433 . S
C1116 C1112 1.350 . S
C1116 C1113 1.463 . S
C1116 N1120 1.427 . S
C1117 H1107 0.929 . S
C1117 C1115 1.433 . S
C1117 N1120 1.384 . S
C1118 H1109 0.929 . S
C1118 C1110 1.378 . S
C1118 C1113 1.350 . S
C1119 H1106 0.929 . S
C1119 C1111 1.433 . S
C1119 N1121 1.384 . S
N1120 C1116 1.427 . S
N1120 C1117 1.384 . S
N1121 C1113 1.427 . S
N1121 C1119 1.384 . S
H1122 C1128 0.930 . S
H1123 C1132 0.930 . S
H1124 C1137 0.929 . S
H1125 C1135 0.929 . S
H1126 C1130 0.929 . S
H1127 C1136 0.929 . S
C1128 H1122 0.930 . S
C1128 C1129 1.367 . S
C1128 C1136 1.378 . S
C1129 C1128 1.367 . S
C1129 C1137 1.433 . S
C1130 H1126 0.929 . S
C1130 C1132 1.378 . S
C1130 C1134 1.350 . S
C1131 C1134 1.463 . S
C1131 C1136 1.350 . S
C1131 N1139 1.427 . S
C1132 H1123 0.930 . S
C1132 C1130 1.378 . S
C1132 C1133 1.367 . S
C1133 C1132 1.367 . S
C1133 C1135 1.433 . S
C1134 C1130 1.350 . S
C1134 C1131 1.463 . S
C1134 N1138 1.427 . S
C1135 H1125 0.929 . S
C1135 C1133 1.433 . S
C1135 N1138 1.384 . S
C1136 H1127 0.929 . S
C1136 C1128 1.378 . S
C1136 C1131 1.350 . S
C1137 H1124 0.929 . S
C1137 C1129 1.433 . S
C1137 N1139 1.384 . S
N1138 C1134 1.427 . S
N1138 C1135 1.384 . S
N1139 C1131 1.427 . S
N1139 C1137 1.384 . S
H1140 C1146 0.930 . S
H1141 C1150 0.930 . S
H1142 C1155 0.929 . S
H1143 C1153 0.929 . S
H1144 C1148 0.929 . S
H1145 C1154 0.929 . S
C1146 H1140 0.930 . S
C1146 C1147 1.367 . S
C1146 C1154 1.378 . S
C1147 C1146 1.367 . S
C1147 C1155 1.433 . S
C1148 H1144 0.929 . S
C1148 C1150 1.378 . S
C1148 C1152 1.350 . S
C1149 C1152 1.463 . S
C1149 C1154 1.350 . S
C1149 N1157 1.427 . S
C1150 H1141 0.930 . S
C1150 C1148 1.378 . S
C1150 C1151 1.367 . S
C1151 C1150 1.367 . S
C1151 C1153 1.433 . S
C1152 C1148 1.350 . S
C1152 C1149 1.463 . S
C1152 N1156 1.427 . S
C1153 H1143 0.929 . S
C1153 C1151 1.433 . S
C1153 N1156 1.384 . S
C1154 H1145 0.929 . S
C1154 C1146 1.378 . S
C1154 C1149 1.350 . S
C1155 H1142 0.929 . S
C1155 C1147 1.433 . S
C1155 N1157 1.384 . S
N1156 C1152 1.427 . S
N1156 C1153 1.384 . S
N1157 C1149 1.427 . S
N1157 C1155 1.384 . S
H1158 C1164 0.930 . S
H1159 C1168 0.930 . S
H1160 C1173 0.929 . S
H1161 C1171 0.929 . S
H1162 C1166 0.929 . S
H1163 C1172 0.929 . S
C1164 H1158 0.930 . S
C1164 C1165 1.367 . S
C1164 C1172 1.378 . S
C1165 C1164 1.367 . S
C1165 C1173 1.433 . S
C1166 H1162 0.929 . S
C1166 C1168 1.378 . S
C1166 C1170 1.350 . S
C1167 C1170 1.463 . S
C1167 C1172 1.350 . S
C1167 N1175 1.427 . S
C1168 H1159 0.930 . S
C1168 C1166 1.378 . S
C1168 C1169 1.367 . S
C1169 C1168 1.367 . S
C1169 C1171 1.433 . S
C1170 C1166 1.350 . S
C1170 C1167 1.463 . S
C1170 N1174 1.427 . S
C1171 H1161 0.929 . S
C1171 C1169 1.433 . S
C1171 N1174 1.384 . S
C1172 H1163 0.929 . S
C1172 C1164 1.378 . S
C1172 C1167 1.350 . S
C1173 H1160 0.929 . S
C1173 C1165 1.433 . S
C1173 N1175 1.384 . S
N1174 C1170 1.427 . S
N1174 C1171 1.384 . S
N1175 C1167 1.427 . S
N1175 C1173 1.384 . S
H1176 C1182 0.930 . S
H1177 C1186 0.930 . S
H1178 C1191 0.929 . S
H1179 C1189 0.929 . S
H1180 C1184 0.929 . S
H1181 C1190 0.929 . S
C1182 H1176 0.930 . S
C1182 C1183 1.367 . S
C1182 C1190 1.378 . S
C1183 C1182 1.367 . S
C1183 C1191 1.433 . S
C1184 H1180 0.929 . S
C1184 C1186 1.378 . S
C1184 C1188 1.350 . S
C1185 C1188 1.463 . S
C1185 C1190 1.350 . S
C1185 N1193 1.427 . S
C1186 H1177 0.930 . S
C1186 C1184 1.378 . S
C1186 C1187 1.367 . S
C1187 C1186 1.367 . S
C1187 C1189 1.433 . S
C1188 C1184 1.350 . S
C1188 C1185 1.463 . S
C1188 N1192 1.427 . S
C1189 H1179 0.929 . S
C1189 C1187 1.433 . S
C1189 N1192 1.384 . S
C1190 H1181 0.929 . S
C1190 C1182 1.378 . S
C1190 C1185 1.350 . S
C1191 H1178 0.929 . S
C1191 C1183 1.433 . S
C1191 N1193 1.384 . S
N1192 C1188 1.427 . S
N1192 C1189 1.384 . S
N1193 C1185 1.427 . S
N1193 C1191 1.384 . S
H1194 C1200 0.930 . S
H1195 C1204 0.930 . S
H1196 C1209 0.929 . S
H1197 C1207 0.929 . S
H1198 C1202 0.929 . S
H1199 C1208 0.929 . S
C1200 H1194 0.930 . S
C1200 C1201 1.367 . S
C1200 C1208 1.378 . S
C1201 C1200 1.367 . S
C1201 C1209 1.433 . S
C1202 H1198 0.929 . S
C1202 C1204 1.378 . S
C1202 C1206 1.350 . S
C1203 C1206 1.463 . S
C1203 C1208 1.350 . S
C1203 N1211 1.427 . S
C1204 H1195 0.930 . S
C1204 C1202 1.378 . S
C1204 C1205 1.367 . S
C1205 C1204 1.367 . S
C1205 C1207 1.433 . S
C1206 C1202 1.350 . S
C1206 C1203 1.463 . S
C1206 N1210 1.427 . S
C1207 H1197 0.929 . S
C1207 C1205 1.433 . S
C1207 N1210 1.384 . S
C1208 H1199 0.929 . S
C1208 C1200 1.378 . S
C1208 C1203 1.350 . S
C1209 H1196 0.929 . S
C1209 C1201 1.433 . S
C1209 N1211 1.384 . S
N1210 C1206 1.427 . S
N1210 C1207 1.384 . S
N1211 C1203 1.427 . S
N1211 C1209 1.384 . S
H1212 C1218 0.930 . S
H1213 C1222 0.930 . S
H1214 C1227 0.929 . S
H1215 C1225 0.929 . S
H1216 C1220 0.929 . S
H1217 C1226 0.929 . S
C1218 H1212 0.930 . S
C1218 C1219 1.367 . S
C1218 C1226 1.378 . S
C1219 C1218 1.367 . S
C1219 C1227 1.433 . S
C1220 H1216 0.929 . S
C1220 C1222 1.378 . S
C1220 C1224 1.350 . S
C1221 C1224 1.463 . S
C1221 C1226 1.350 . S
C1221 N1229 1.427 . S
C1222 H1213 0.930 . S
C1222 C1220 1.378 . S
C1222 C1223 1.367 . S
C1223 C1222 1.367 . S
C1223 C1225 1.433 . S
C1224 C1220 1.350 . S
C1224 C1221 1.463 . S
C1224 N1228 1.427 . S
C1225 H1215 0.929 . S
C1225 C1223 1.433 . S
C1225 N1228 1.384 . S
C1226 H1217 0.929 . S
C1226 C1218 1.378 . S
C1226 C1221 1.350 . S
C1227 H1214 0.929 . S
C1227 C1219 1.433 . S
C1227 N1229 1.384 . S
N1228 C1224 1.427 . S
N1228 C1225 1.384 . S
N1229 C1221 1.427 . S
N1229 C1227 1.384 . S
H1230 C1236 0.930 . S
H1231 C1240 0.930 . S
H1232 C1245 0.929 . S
H1233 C1243 0.929 . S
H1234 C1238 0.929 . S
H1235 C1244 0.929 . S
C1236 H1230 0.930 . S
C1236 C1237 1.367 . S
C1236 C1244 1.378 . S
C1237 C1236 1.367 . S
C1237 C1245 1.433 . S
C1238 H1234 0.929 . S
C1238 C1240 1.378 . S
C1238 C1242 1.350 . S
C1239 C1242 1.463 . S
C1239 C1244 1.350 . S
C1239 N1247 1.427 . S
C1240 H1231 0.930 . S
C1240 C1238 1.378 . S
C1240 C1241 1.367 . S
C1241 C1240 1.367 . S
C1241 C1243 1.433 . S
C1242 C1238 1.350 . S
C1242 C1239 1.463 . S
C1242 N1246 1.427 . S
C1243 H1233 0.929 . S
C1243 C1241 1.433 . S
C1243 N1246 1.384 . S
C1244 H1235 0.929 . S
C1244 C1236 1.378 . S
C1244 C1239 1.350 . S
C1245 H1232 0.929 . S
C1245 C1237 1.433 . S
C1245 N1247 1.384 . S
N1246 C1242 1.427 . S
N1246 C1243 1.384 . S
N1247 C1239 1.427 . S
N1247 C1245 1.384 . S
H1248 C1254 0.930 . S
H1249 C1258 0.930 . S
H1250 C1263 0.929 . S
H1251 C1261 0.929 . S
H1252 C1256 0.929 1_545 S
H1253 C1262 0.929 1_565 S
C1254 H1248 0.930 . S
C1254 C1255 1.367 . S
C1254 C1262 1.378 . S
C1255 C1254 1.367 . S
C1255 C1263 1.433 . S
C1256 H1252 0.929 1_565 S
C1256 C1258 1.378 . S
C1256 C1260 1.350 . S
C1257 C1260 1.463 1_545 S
C1257 C1262 1.350 . S
C1257 N1265 1.427 . S
C1258 H1249 0.930 . S
C1258 C1256 1.378 . S
C1258 C1259 1.367 . S
C1259 C1258 1.367 . S
C1259 C1261 1.433 . S
C1260 C1256 1.350 . S
C1260 C1257 1.463 1_565 S
C1260 N1264 1.427 . S
C1261 H1251 0.929 . S
C1261 C1259 1.433 . S
C1261 N1264 1.384 . S
C1262 H1253 0.929 1_545 S
C1262 C1254 1.378 . S
C1262 C1257 1.350 . S
C1263 H1250 0.929 . S
C1263 C1255 1.433 . S
C1263 N1265 1.384 . S
N1264 C1260 1.427 . S
N1264 C1261 1.384 . S
N1265 C1257 1.427 . S
N1265 C1263 1.384 . S
H1266 C1272 0.930 . S
H1267 C1276 0.930 . S
H1268 C1281 0.929 . S
H1269 C1279 0.929 . S
H1270 C1274 0.929 . S
H1271 C1280 0.929 . S
C1272 H1266 0.930 . S
C1272 C1273 1.367 . S
C1272 C1280 1.378 . S
C1273 C1272 1.367 . S
C1273 C1281 1.433 . S
C1274 H1270 0.929 . S
C1274 C1276 1.378 . S
C1274 C1278 1.350 . S
C1275 C1278 1.463 . S
C1275 C1280 1.350 . S
C1275 N1283 1.427 . S
C1276 H1267 0.930 . S
C1276 C1274 1.378 . S
C1276 C1277 1.367 . S
C1277 C1276 1.367 . S
C1277 C1279 1.433 . S
C1278 C1274 1.350 . S
C1278 C1275 1.463 . S
C1278 N1282 1.427 . S
C1279 H1269 0.929 . S
C1279 C1277 1.433 . S
C1279 N1282 1.384 . S
C1280 H1271 0.929 . S
C1280 C1272 1.378 . S
C1280 C1275 1.350 . S
C1281 H1268 0.929 . S
C1281 C1273 1.433 . S
C1281 N1283 1.384 . S
N1282 C1278 1.427 . S
N1282 C1279 1.384 . S
N1283 C1275 1.427 . S
N1283 C1281 1.384 . S
H1284 C1290 0.930 . S
H1285 C1294 0.930 . S
H1286 C1299 0.929 . S
H1287 C1297 0.929 . S
H1288 C1292 0.929 . S
H1289 C1298 0.929 . S
C1290 H1284 0.930 . S
C1290 C1291 1.367 . S
C1290 C1298 1.378 . S
C1291 C1290 1.367 . S
C1291 C1299 1.433 . S
C1292 H1288 0.929 . S
C1292 C1294 1.378 . S
C1292 C1296 1.350 . S
C1293 C1296 1.463 1_455 S
C1293 C1298 1.350 . S
C1293 N1301 1.427 . S
C1294 H1285 0.930 . S
C1294 C1292 1.378 . S
C1294 C1295 1.367 . S
C1295 C1294 1.367 . S
C1295 C1297 1.433 . S
C1296 C1292 1.350 . S
C1296 C1293 1.463 1_655 S
C1296 N1300 1.427 . S
C1297 H1287 0.929 . S
C1297 C1295 1.433 . S
C1297 N1300 1.384 . S
C1298 H1289 0.929 . S
C1298 C1290 1.378 . S
C1298 C1293 1.350 . S
C1299 H1286 0.929 . S
C1299 C1291 1.433 . S
C1299 N1301 1.384 . S
N1300 C1296 1.427 . S
N1300 C1297 1.384 . S
N1301 C1293 1.427 . S
N1301 C1299 1.384 . S
H1302 C1308 0.930 . S
H1303 C1312 0.930 . S
H1304 C1317 0.929 . S
H1305 C1315 0.929 . S
H1306 C1310 0.929 . S
H1307 C1316 0.929 . S
C1308 H1302 0.930 . S
C1308 C1309 1.367 . S
C1308 C1316 1.378 . S
C1309 C1308 1.367 . S
C1309 C1317 1.433 . S
C1310 H1306 0.929 . S
C1310 C1312 1.378 . S
C1310 C1314 1.350 . S
C1311 C1314 1.463 1_565 S
C1311 C1316 1.350 . S
C1311 N1319 1.427 . S
C1312 H1303 0.930 . S
C1312 C1310 1.378 . S
C1312 C1313 1.367 . S
C1313 C1312 1.367 . S
C1313 C1315 1.433 . S
C1314 C1310 1.350 . S
C1314 C1311 1.463 1_545 S
C1314 N1318 1.427 . S
C1315 H1305 0.929 . S
C1315 C1313 1.433 . S
C1315 N1318 1.384 . S
C1316 H1307 0.929 . S
C1316 C1308 1.378 . S
C1316 C1311 1.350 . S
C1317 H1304 0.929 . S
C1317 C1309 1.433 . S
C1317 N1319 1.384 . S
N1318 C1314 1.427 . S
N1318 C1315 1.384 . S
N1319 C1311 1.427 . S
N1319 C1317 1.384 . S
H1320 C1326 0.930 . S
H1321 C1330 0.930 . S
H1322 C1335 0.929 . S
H1323 C1333 0.929 . S
H1324 C1328 0.929 . S
H1325 C1334 0.929 . S
C1326 H1320 0.930 . S
C1326 C1327 1.367 . S
C1326 C1334 1.378 . S
C1327 C1326 1.367 . S
C1327 C1335 1.433 . S
C1328 H1324 0.929 . S
C1328 C1330 1.378 . S
C1328 C1332 1.350 . S
C1329 C1332 1.463 . S
C1329 C1334 1.350 . S
C1329 N1337 1.427 . S
C1330 H1321 0.930 . S
C1330 C1328 1.378 . S
C1330 C1331 1.367 . S
C1331 C1330 1.367 . S
C1331 C1333 1.433 . S
C1332 C1328 1.350 . S
C1332 C1329 1.463 . S
C1332 N1336 1.427 . S
C1333 H1323 0.929 . S
C1333 C1331 1.433 . S
C1333 N1336 1.384 . S
C1334 H1325 0.929 . S
C1334 C1326 1.378 . S
C1334 C1329 1.350 . S
C1335 H1322 0.929 . S
C1335 C1327 1.433 . S
C1335 N1337 1.384 . S
N1336 C1332 1.427 . S
N1336 C1333 1.384 . S
N1337 C1329 1.427 . S
N1337 C1335 1.384 . S
H1338 C1344 0.930 . S
H1339 C1348 0.930 . S
H1340 C1353 0.929 . S
H1341 C1351 0.929 . S
H1342 C1346 0.929 . S
H1343 C1352 0.929 . S
C1344 H1338 0.930 . S
C1344 C1345 1.367 . S
C1344 C1352 1.378 . S
C1345 C1344 1.367 . S
C1345 C1353 1.433 . S
C1346 H1342 0.929 . S
C1346 C1348 1.378 . S
C1346 C1350 1.350 . S
C1347 C1350 1.463 1_655 S
C1347 C1352 1.350 . S
C1347 N1355 1.427 . S
C1348 H1339 0.930 . S
C1348 C1346 1.378 . S
C1348 C1349 1.367 . S
C1349 C1348 1.367 . S
C1349 C1351 1.433 . S
C1350 C1346 1.350 . S
C1350 C1347 1.463 1_455 S
C1350 N1354 1.427 . S
C1351 H1341 0.929 . S
C1351 C1349 1.433 . S
C1351 N1354 1.384 . S
C1352 H1343 0.929 . S
C1352 C1344 1.378 . S
C1352 C1347 1.350 . S
C1353 H1340 0.929 . S
C1353 C1345 1.433 . S
C1353 N1355 1.384 . S
N1354 C1350 1.427 . S
N1354 C1351 1.384 . S
N1355 C1347 1.427 . S
N1355 C1353 1.384 . S
H1356 C1362 0.930 . S
H1357 C1366 0.930 . S
H1358 C1371 0.929 . S
H1359 C1369 0.929 . S
H1360 C1364 0.911 1_565 S
H1361 C1370 0.912 1_545 S
C1362 H1356 0.930 . S
C1362 C1363 1.367 . S
C1362 C1370 1.378 . S
C1363 C1362 1.367 . S
C1363 C1371 1.433 . S
C1364 H1360 0.911 1_545 S
C1364 C1366 1.378 . S
C1364 C1368 1.350 . S
C1365 C1368 1.463 1_565 S
C1365 C1370 1.350 . S
C1365 N1373 1.427 . S
C1366 H1357 0.930 . S
C1366 C1364 1.378 . S
C1366 C1367 1.367 . S
C1367 C1366 1.367 . S
C1367 C1369 1.433 . S
C1368 C1364 1.350 . S
C1368 C1365 1.463 1_545 S
C1368 N1372 1.427 . S
C1369 H1359 0.929 . S
C1369 C1367 1.433 . S
C1369 N1372 1.384 . S
C1370 H1361 0.912 1_565 S
C1370 C1362 1.378 . S
C1370 C1365 1.350 . S
C1371 H1358 0.929 . S
C1371 C1363 1.433 . S
C1371 N1373 1.384 . S
N1372 C1368 1.427 . S
N1372 C1369 1.384 . S
N1373 C1365 1.427 . S
N1373 C1371 1.384 . S
H1374 C1380 0.930 . S
H1375 C1384 0.930 . S
H1376 C1389 0.929 . S
H1377 C1387 0.929 . S
H1378 C1382 0.929 . S
H1379 C1388 0.929 . S
C1380 H1374 0.930 . S
C1380 C1381 1.367 . S
C1380 C1388 1.378 . S
C1381 C1380 1.367 . S
C1381 C1389 1.433 . S
C1382 H1378 0.929 . S
C1382 C1384 1.378 . S
C1382 C1386 1.350 . S
C1383 C1386 1.463 . S
C1383 C1388 1.350 . S
C1383 N1391 1.427 . S
C1384 H1375 0.930 . S
C1384 C1382 1.378 . S
C1384 C1385 1.367 . S
C1385 C1384 1.367 . S
C1385 C1387 1.433 . S
C1386 C1382 1.350 . S
C1386 C1383 1.463 . S
C1386 N1390 1.427 . S
C1387 H1377 0.929 . S
C1387 C1385 1.433 . S
C1387 N1390 1.384 . S
C1388 H1379 0.929 . S
C1388 C1380 1.378 . S
C1388 C1383 1.350 . S
C1389 H1376 0.929 . S
C1389 C1381 1.433 . S
C1389 N1391 1.384 . S
N1390 C1386 1.427 . S
N1390 C1387 1.384 . S
N1391 C1383 1.427 . S
N1391 C1389 1.384 . S
H1392 C1398 0.930 . S
H1393 C1402 0.930 . S
H1394 C1407 0.929 . S
H1395 C1405 0.929 . S
H1396 C1400 0.929 . S
H1397 C1406 0.929 . S
C1398 H1392 0.930 . S
C1398 C1399 1.367 . S
C1398 C1406 1.378 . S
C1399 C1398 1.367 . S
C1399 C1407 1.433 . S
C1400 H1396 0.929 . S
C1400 C1402 1.378 . S
C1400 C1404 1.350 . S
C1401 C1404 1.463 1_455 S
C1401 C1406 1.350 . S
C1401 N1409 1.427 . S
C1402 H1393 0.930 . S
C1402 C1400 1.378 . S
C1402 C1403 1.367 . S
C1403 C1402 1.367 . S
C1403 C1405 1.433 . S
C1404 C1400 1.350 . S
C1404 C1401 1.463 1_655 S
C1404 N1408 1.427 . S
C1405 H1395 0.929 . S
C1405 C1403 1.433 . S
C1405 N1408 1.384 . S
C1406 H1397 0.929 . S
C1406 C1398 1.378 . S
C1406 C1401 1.350 . S
C1407 H1394 0.929 . S
C1407 C1399 1.433 . S
C1407 N1409 1.384 . S
N1408 C1404 1.427 . S
N1408 C1405 1.384 . S
N1409 C1401 1.427 . S
N1409 C1407 1.384 . S
H1410 C1416 0.930 . S
H1411 C1420 0.930 . S
H1412 C1425 0.929 . S
H1413 C1423 0.929 . S
H1414 C1418 0.929 . S
H1415 C1424 0.929 . S
C1416 H1410 0.930 . S
C1416 C1417 1.367 . S
C1416 C1424 1.378 . S
C1417 C1416 1.367 . S
C1417 C1425 1.433 . S
C1418 H1414 0.929 . S
C1418 C1420 1.378 . S
C1418 C1422 1.350 . S
C1419 C1422 1.463 1_545 S
C1419 C1424 1.350 . S
C1419 N1427 1.427 . S
C1420 H1411 0.930 . S
C1420 C1418 1.378 . S
C1420 C1421 1.367 . S
C1421 C1420 1.367 . S
C1421 C1423 1.433 . S
C1422 C1418 1.350 . S
C1422 C1419 1.463 1_565 S
C1422 N1426 1.427 . S
C1423 H1413 0.929 . S
C1423 C1421 1.433 . S
C1423 N1426 1.384 . S
C1424 H1415 0.929 . S
C1424 C1416 1.378 . S
C1424 C1419 1.350 . S
C1425 H1412 0.929 . S
C1425 C1417 1.433 . S
C1425 N1427 1.384 . S
N1426 C1422 1.427 . S
N1426 C1423 1.384 . S
N1427 C1419 1.427 . S
N1427 C1425 1.384 . S
H1428 C1434 0.930 . S
H1429 C1438 0.930 . S
H1430 C1443 0.929 . S
H1431 C1441 0.929 . S
H1432 C1436 0.929 . S
H1433 C1442 0.929 . S
C1434 H1428 0.930 . S
C1434 C1435 1.367 . S
C1434 C1442 1.378 . S
C1435 C1434 1.367 . S
C1435 C1443 1.433 . S
C1436 H1432 0.929 . S
C1436 C1438 1.378 . S
C1436 C1440 1.350 . S
C1437 C1440 1.463 . S
C1437 C1442 1.350 . S
C1437 N1445 1.427 . S
C1438 H1429 0.930 . S
C1438 C1436 1.378 . S
C1438 C1439 1.367 . S
C1439 C1438 1.367 . S
C1439 C1441 1.433 . S
C1440 C1436 1.350 . S
C1440 C1437 1.463 . S
C1440 N1444 1.427 . S
C1441 H1431 0.929 . S
C1441 C1439 1.433 . S
C1441 N1444 1.384 . S
C1442 H1433 0.929 . S
C1442 C1434 1.378 . S
C1442 C1437 1.350 . S
C1443 H1430 0.929 . S
C1443 C1435 1.433 . S
C1443 N1445 1.384 . S
N1444 C1440 1.427 . S
N1444 C1441 1.384 . S
N1445 C1437 1.427 . S
N1445 C1443 1.384 . S
H1446 C1452 0.930 . S
H1447 C1456 0.930 . S
H1448 C1461 0.929 . S
H1449 C1459 0.929 . S
H1450 C1454 0.929 . S
H1451 C1460 0.929 . S
C1452 H1446 0.930 . S
C1452 C1453 1.367 . S
C1452 C1460 1.378 . S
C1453 C1452 1.367 . S
C1453 C1461 1.433 . S
C1454 H1450 0.929 . S
C1454 C1456 1.378 . S
C1454 C1458 1.350 . S
C1455 C1458 1.463 1_455 S
C1455 C1460 1.350 . S
C1455 N1463 1.427 . S
C1456 H1447 0.930 . S
C1456 C1454 1.378 . S
C1456 C1457 1.367 . S
C1457 C1456 1.367 . S
C1457 C1459 1.433 . S
C1458 C1454 1.350 . S
C1458 C1455 1.463 1_655 S
C1458 N1462 1.427 . S
C1459 H1449 0.929 . S
C1459 C1457 1.433 . S
C1459 N1462 1.384 . S
C1460 H1451 0.929 . S
C1460 C1452 1.378 . S
C1460 C1455 1.350 . S
C1461 H1448 0.929 . S
C1461 C1453 1.433 . S
C1461 N1463 1.384 . S
N1462 C1458 1.427 . S
N1462 C1459 1.384 . S
N1463 C1455 1.427 . S
N1463 C1461 1.384 . S
H1464 C1470 0.930 . S
H1465 C1474 0.930 . S
H1466 C1479 0.929 . S
H1467 C1477 0.929 . S
H1468 C1472 0.929 . S
H1469 C1478 0.929 . S
C1470 H1464 0.930 . S
C1470 C1471 1.367 . S
C1470 C1478 1.378 . S
C1471 C1470 1.367 . S
C1471 C1479 1.433 . S
C1472 H1468 0.929 . S
C1472 C1474 1.378 . S
C1472 C1476 1.350 . S
C1473 C1476 1.463 . S
C1473 C1478 1.350 . S
C1473 N1481 1.427 . S
C1474 H1465 0.930 . S
C1474 C1472 1.378 . S
C1474 C1475 1.367 . S
C1475 C1474 1.367 . S
C1475 C1477 1.433 . S
C1476 C1472 1.350 . S
C1476 C1473 1.463 . S
C1476 N1480 1.427 . S
C1477 H1467 0.929 . S
C1477 C1475 1.433 . S
C1477 N1480 1.384 . S
C1478 H1469 0.929 . S
C1478 C1470 1.378 . S
C1478 C1473 1.350 . S
C1479 H1466 0.929 . S
C1479 C1471 1.433 . S
C1479 N1481 1.384 . S
N1480 C1476 1.427 . S
N1480 C1477 1.384 . S
N1481 C1473 1.427 . S
N1481 C1479 1.384 . S
H1482 C1488 0.930 . S
H1483 C1492 0.930 . S
H1484 C1497 0.929 . S
H1485 C1495 0.929 . S
H1486 C1490 0.929 . S
H1487 C1496 0.929 . S
C1488 H1482 0.930 . S
C1488 C1489 1.367 . S
C1488 C1496 1.378 . S
C1489 C1488 1.367 . S
C1489 C1497 1.433 . S
C1490 H1486 0.929 . S
C1490 C1492 1.378 . S
C1490 C1494 1.350 . S
C1491 C1494 1.463 . S
C1491 C1496 1.350 . S
C1491 N1499 1.427 . S
C1492 H1483 0.930 . S
C1492 C1490 1.378 . S
C1492 C1493 1.367 . S
C1493 C1492 1.367 . S
C1493 C1495 1.433 . S
C1494 C1490 1.350 . S
C1494 C1491 1.463 . S
C1494 N1498 1.427 . S
C1495 H1485 0.929 . S
C1495 C1493 1.433 . S
C1495 N1498 1.384 . S
C1496 H1487 0.929 . S
C1496 C1488 1.378 . S
C1496 C1491 1.350 . S
C1497 H1484 0.929 . S
C1497 C1489 1.433 . S
C1497 N1499 1.384 . S
N1498 C1494 1.427 . S
N1498 C1495 1.384 . S
N1499 C1491 1.427 . S
N1499 C1497 1.384 . S
H1500 C1506 0.930 . S
H1501 C1510 0.930 . S
H1502 C1515 0.929 . S
H1503 C1513 0.929 . S
H1504 C1508 0.929 . S
H1505 C1514 0.929 . S
C1506 H1500 0.930 . S
C1506 C1507 1.367 . S
C1506 C1514 1.378 . S
C1507 C1506 1.367 . S
C1507 C1515 1.433 . S
C1508 H1504 0.929 . S
C1508 C1510 1.378 . S
C1508 C1512 1.350 . S
C1509 C1512 1.463 . S
C1509 C1514 1.350 . S
C1509 N1517 1.427 . S
C1510 H1501 0.930 . S
C1510 C1508 1.378 . S
C1510 C1511 1.367 . S
C1511 C1510 1.367 . S
C1511 C1513 1.433 . S
C1512 C1508 1.350 . S
C1512 C1509 1.463 . S
C1512 N1516 1.427 . S
C1513 H1503 0.929 . S
C1513 C1511 1.433 . S
C1513 N1516 1.384 . S
C1514 H1505 0.929 . S
C1514 C1506 1.378 . S
C1514 C1509 1.350 . S
C1515 H1502 0.929 . S
C1515 C1507 1.433 . S
C1515 N1517 1.384 . S
N1516 C1512 1.427 . S
N1516 C1513 1.384 . S
N1517 C1509 1.427 . S
N1517 C1515 1.384 . S
H1518 C1524 0.930 . S
H1519 C1528 0.930 . S
H1520 C1533 0.929 . S
H1521 C1531 0.929 . S
H1522 C1526 0.929 . S
H1523 C1532 0.929 . S
C1524 H1518 0.930 . S
C1524 C1525 1.367 . S
C1524 C1532 1.378 . S
C1525 C1524 1.367 . S
C1525 C1533 1.433 . S
C1526 H1522 0.929 . S
C1526 C1528 1.378 . S
C1526 C1530 1.350 . S
C1527 C1530 1.463 . S
C1527 C1532 1.350 . S
C1527 N1535 1.427 . S
C1528 H1519 0.930 . S
C1528 C1526 1.378 . S
C1528 C1529 1.367 . S
C1529 C1528 1.367 . S
C1529 C1531 1.433 . S
C1530 C1526 1.350 . S
C1530 C1527 1.463 . S
C1530 N1534 1.427 . S
C1531 H1521 0.929 . S
C1531 C1529 1.433 . S
C1531 N1534 1.384 . S
C1532 H1523 0.929 . S
C1532 C1524 1.378 . S
C1532 C1527 1.350 . S
C1533 H1520 0.929 . S
C1533 C1525 1.433 . S
C1533 N1535 1.384 . S
N1534 C1530 1.427 . S
N1534 C1531 1.384 . S
N1535 C1527 1.427 . S
N1535 C1533 1.384 . S
H1536 C1542 0.930 . S
H1537 C1546 0.930 . S
H1538 C1551 0.929 . S
H1539 C1549 0.929 . S
H1540 C1544 0.929 . S
H1541 C1550 0.929 . S
C1542 H1536 0.930 . S
C1542 C1543 1.367 . S
C1542 C1550 1.378 . S
C1543 C1542 1.367 . S
C1543 C1551 1.433 . S
C1544 H1540 0.929 . S
C1544 C1546 1.378 . S
C1544 C1548 1.350 . S
C1545 C1548 1.463 . S
C1545 C1550 1.350 . S
C1545 N1553 1.427 . S
C1546 H1537 0.930 . S
C1546 C1544 1.378 . S
C1546 C1547 1.367 . S
C1547 C1546 1.367 . S
C1547 C1549 1.433 . S
C1548 C1544 1.350 . S
C1548 C1545 1.463 . S
C1548 N1552 1.427 . S
C1549 H1539 0.929 . S
C1549 C1547 1.433 . S
C1549 N1552 1.384 . S
C1550 H1541 0.929 . S
C1550 C1542 1.378 . S
C1550 C1545 1.350 . S
C1551 H1538 0.929 . S
C1551 C1543 1.433 . S
C1551 N1553 1.384 . S
N1552 C1548 1.427 . S
N1552 C1549 1.384 . S
N1553 C1545 1.427 . S
N1553 C1551 1.384 . S
H1554 C1560 0.930 . S
H1555 C1564 0.930 . S
H1556 C1569 0.929 . S
H1557 C1567 0.929 . S
H1558 C1562 0.929 . S
H1559 C1568 0.929 . S
C1560 H1554 0.930 . S
C1560 C1561 1.367 . S
C1560 C1568 1.378 . S
C1561 C1560 1.367 . S
C1561 C1569 1.433 . S
C1562 H1558 0.929 . S
C1562 C1564 1.378 . S
C1562 C1566 1.350 . S
C1563 C1566 1.463 . S
C1563 C1568 1.350 . S
C1563 N1571 1.427 . S
C1564 H1555 0.930 . S
C1564 C1562 1.378 . S
C1564 C1565 1.367 . S
C1565 C1564 1.367 . S
C1565 C1567 1.433 . S
C1566 C1562 1.350 . S
C1566 C1563 1.463 . S
C1566 N1570 1.427 . S
C1567 H1557 0.929 . S
C1567 C1565 1.433 . S
C1567 N1570 1.384 . S
C1568 H1559 0.929 . S
C1568 C1560 1.378 . S
C1568 C1563 1.350 . S
C1569 H1556 0.929 . S
C1569 C1561 1.433 . S
C1569 N1571 1.384 . S
N1570 C1566 1.427 . S
N1570 C1567 1.384 . S
N1571 C1563 1.427 . S
N1571 C1569 1.384 . S
H1572 C1578 0.930 . S
H1573 C1582 0.930 . S
H1574 C1587 0.929 . S
H1575 C1585 0.929 . S
H1576 C1580 0.929 . S
H1577 C1586 0.929 . S
C1578 H1572 0.930 . S
C1578 C1579 1.367 . S
C1578 C1586 1.378 . S
C1579 C1578 1.367 . S
C1579 C1587 1.433 . S
C1580 H1576 0.929 . S
C1580 C1582 1.378 . S
C1580 C1584 1.350 . S
C1581 C1584 1.463 . S
C1581 C1586 1.350 . S
C1581 N1589 1.427 . S
C1582 H1573 0.930 . S
C1582 C1580 1.378 . S
C1582 C1583 1.367 . S
C1583 C1582 1.367 . S
C1583 C1585 1.433 . S
C1584 C1580 1.350 . S
C1584 C1581 1.463 . S
C1584 N1588 1.427 . S
C1585 H1575 0.929 . S
C1585 C1583 1.433 . S
C1585 N1588 1.384 . S
C1586 H1577 0.929 . S
C1586 C1578 1.378 . S
C1586 C1581 1.350 . S
C1587 H1574 0.929 . S
C1587 C1579 1.433 . S
C1587 N1589 1.384 . S
N1588 C1584 1.427 . S
N1588 C1585 1.384 . S
N1589 C1581 1.427 . S
N1589 C1587 1.384 . S
H1590 C1596 0.930 . S
H1591 C1600 0.930 . S
H1592 C1605 0.929 . S
H1593 C1603 0.929 . S
H1594 C1598 0.929 . S
H1595 C1604 0.929 . S
C1596 H1590 0.930 . S
C1596 C1597 1.367 . S
C1596 C1604 1.378 . S
C1597 C1596 1.367 . S
C1597 C1605 1.433 . S
C1598 H1594 0.929 . S
C1598 C1600 1.378 . S
C1598 C1602 1.350 . S
C1599 C1602 1.463 . S
C1599 C1604 1.350 . S
C1599 N1607 1.427 . S
C1600 H1591 0.930 . S
C1600 C1598 1.378 . S
C1600 C1601 1.367 . S
C1601 C1600 1.367 . S
C1601 C1603 1.433 . S
C1602 C1598 1.350 . S
C1602 C1599 1.463 . S
C1602 N1606 1.427 . S
C1603 H1593 0.929 . S
C1603 C1601 1.433 . S
C1603 N1606 1.384 . S
C1604 H1595 0.929 . S
C1604 C1596 1.378 . S
C1604 C1599 1.350 . S
C1605 H1592 0.929 . S
C1605 C1597 1.433 . S
C1605 N1607 1.384 . S
N1606 C1602 1.427 . S
N1606 C1603 1.384 . S
N1607 C1599 1.427 . S
N1607 C1605 1.384 . S
H1608 C1614 0.930 . S
H1609 C1618 0.930 . S
H1610 C1623 0.929 . S
H1611 C1621 0.929 . S
H1612 C1616 0.929 . S
H1613 C1622 0.929 . S
C1614 H1608 0.930 . S
C1614 C1615 1.367 . S
C1614 C1622 1.378 . S
C1615 C1614 1.367 . S
C1615 C1623 1.433 . S
C1616 H1612 0.929 . S
C1616 C1618 1.378 . S
C1616 C1620 1.350 . S
C1617 C1620 1.463 . S
C1617 C1622 1.350 . S
C1617 N1625 1.427 . S
C1618 H1609 0.930 . S
C1618 C1616 1.378 . S
C1618 C1619 1.367 . S
C1619 C1618 1.367 . S
C1619 C1621 1.433 . S
C1620 C1616 1.350 . S
C1620 C1617 1.463 . S
C1620 N1624 1.427 . S
C1621 H1611 0.929 . S
C1621 C1619 1.433 . S
C1621 N1624 1.384 . S
C1622 H1613 0.929 . S
C1622 C1614 1.378 . S
C1622 C1617 1.350 . S
C1623 H1610 0.929 . S
C1623 C1615 1.433 . S
C1623 N1625 1.384 . S
N1624 C1620 1.427 . S
N1624 C1621 1.384 . S
N1625 C1617 1.427 . S
N1625 C1623 1.384 . S
H1626 C1632 0.930 . S
H1627 C1636 0.930 . S
H1628 C1641 0.929 . S
H1629 C1639 0.929 . S
H1630 C1634 0.929 . S
H1631 C1640 0.929 . S
C1632 H1626 0.930 . S
C1632 C1633 1.367 . S
C1632 C1640 1.378 . S
C1633 C1632 1.367 . S
C1633 C1641 1.433 . S
C1634 H1630 0.929 . S
C1634 C1636 1.378 . S
C1634 C1638 1.350 . S
C1635 C1638 1.463 . S
C1635 C1640 1.350 . S
C1635 N1643 1.427 . S
C1636 H1627 0.930 . S
C1636 C1634 1.378 . S
C1636 C1637 1.367 . S
C1637 C1636 1.367 . S
C1637 C1639 1.433 . S
C1638 C1634 1.350 . S
C1638 C1635 1.463 . S
C1638 N1642 1.427 . S
C1639 H1629 0.929 . S
C1639 C1637 1.433 . S
C1639 N1642 1.384 . S
C1640 H1631 0.929 . S
C1640 C1632 1.378 . S
C1640 C1635 1.350 . S
C1641 H1628 0.929 . S
C1641 C1633 1.433 . S
C1641 N1643 1.384 . S
N1642 C1638 1.427 . S
N1642 C1639 1.384 . S
N1643 C1635 1.427 . S
N1643 C1641 1.384 . S
H1644 C1650 0.930 . S
H1645 C1654 0.930 . S
H1646 C1659 0.929 . S
H1647 C1657 0.929 . S
H1648 C1652 0.929 . S
H1649 C1658 0.929 . S
C1650 H1644 0.930 . S
C1650 C1651 1.367 . S
C1650 C1658 1.378 . S
C1651 C1650 1.367 . S
C1651 C1659 1.433 . S
C1652 H1648 0.929 . S
C1652 C1654 1.378 . S
C1652 C1656 1.350 . S
C1653 C1656 1.463 . S
C1653 C1658 1.350 . S
C1653 N1661 1.427 . S
C1654 H1645 0.930 . S
C1654 C1652 1.378 . S
C1654 C1655 1.367 . S
C1655 C1654 1.367 . S
C1655 C1657 1.433 . S
C1656 C1652 1.350 . S
C1656 C1653 1.463 . S
C1656 N1660 1.427 . S
C1657 H1647 0.929 . S
C1657 C1655 1.433 . S
C1657 N1660 1.384 . S
C1658 H1649 0.929 . S
C1658 C1650 1.378 . S
C1658 C1653 1.350 . S
C1659 H1646 0.929 . S
C1659 C1651 1.433 . S
C1659 N1661 1.384 . S
N1660 C1656 1.427 . S
N1660 C1657 1.384 . S
N1661 C1653 1.427 . S
N1661 C1659 1.384 . S
H1662 C1668 0.930 . S
H1663 C1672 0.930 . S
H1664 C1677 0.929 . S
H1665 C1675 0.929 . S
H1666 C1670 0.929 . S
H1667 C1676 0.929 . S
C1668 H1662 0.930 . S
C1668 C1669 1.367 . S
C1668 C1676 1.378 . S
C1669 C1668 1.367 . S
C1669 C1677 1.433 . S
C1670 H1666 0.929 . S
C1670 C1672 1.378 . S
C1670 C1674 1.350 . S
C1671 C1674 1.463 . S
C1671 C1676 1.350 . S
C1671 N1679 1.427 . S
C1672 H1663 0.930 . S
C1672 C1670 1.378 . S
C1672 C1673 1.367 . S
C1673 C1672 1.367 . S
C1673 C1675 1.433 . S
C1674 C1670 1.350 . S
C1674 C1671 1.463 . S
C1674 N1678 1.427 . S
C1675 H1665 0.929 . S
C1675 C1673 1.433 . S
C1675 N1678 1.384 . S
C1676 H1667 0.929 . S
C1676 C1668 1.378 . S
C1676 C1671 1.350 . S
C1677 H1664 0.929 . S
C1677 C1669 1.433 . S
C1677 N1679 1.384 . S
N1678 C1674 1.427 . S
N1678 C1675 1.384 . S
N1679 C1671 1.427 . S
N1679 C1677 1.384 . S
H1680 C1686 0.930 . S
H1681 C1690 0.930 . S
H1682 C1695 0.929 . S
H1683 C1693 0.929 . S
H1684 C1688 0.929 . S
H1685 C1694 0.929 . S
C1686 H1680 0.930 . S
C1686 C1687 1.367 . S
C1686 C1694 1.378 . S
C1687 C1686 1.367 . S
C1687 C1695 1.433 . S
C1688 H1684 0.929 . S
C1688 C1690 1.378 . S
C1688 C1692 1.350 . S
C1689 C1692 1.463 1_554 S
C1689 C1694 1.350 . S
C1689 N1697 1.427 . S
C1690 H1681 0.930 . S
C1690 C1688 1.378 . S
C1690 C1691 1.367 . S
C1691 C1690 1.367 . S
C1691 C1693 1.433 . S
C1692 C1688 1.350 . S
C1692 C1689 1.463 1_556 S
C1692 N1696 1.427 . S
C1693 H1683 0.929 . S
C1693 C1691 1.433 . S
C1693 N1696 1.384 . S
C1694 H1685 0.929 . S
C1694 C1686 1.378 . S
C1694 C1689 1.350 . S
C1695 H1682 0.929 . S
C1695 C1687 1.433 . S
C1695 N1697 1.384 . S
N1696 C1692 1.427 . S
N1696 C1693 1.384 . S
N1697 C1689 1.427 . S
N1697 C1695 1.384 . S
H1698 C1704 0.930 . S
H1699 C1708 0.930 . S
H1700 C1713 0.929 . S
H1701 C1711 0.929 . S
H1702 C1706 0.929 . S
H1703 C1712 0.929 . S
C1704 H1698 0.930 . S
C1704 C1705 1.367 . S
C1704 C1712 1.378 . S
C1705 C1704 1.367 . S
C1705 C1713 1.433 . S
C1706 H1702 0.929 . S
C1706 C1708 1.378 . S
C1706 C1710 1.350 . S
C1707 C1710 1.463 1_554 S
C1707 C1712 1.350 . S
C1707 N1715 1.427 . S
C1708 H1699 0.930 . S
C1708 C1706 1.378 . S
C1708 C1709 1.367 . S
C1709 C1708 1.367 . S
C1709 C1711 1.433 . S
C1710 C1706 1.350 . S
C1710 C1707 1.463 1_556 S
C1710 N1714 1.427 . S
C1711 H1701 0.929 . S
C1711 C1709 1.433 . S
C1711 N1714 1.384 . S
C1712 H1703 0.929 . S
C1712 C1704 1.378 . S
C1712 C1707 1.350 . S
C1713 H1700 0.929 . S
C1713 C1705 1.433 . S
C1713 N1715 1.384 . S
N1714 C1710 1.427 . S
N1714 C1711 1.384 . S
N1715 C1707 1.427 . S
N1715 C1713 1.384 . S
H1716 C1722 0.930 . S
H1717 C1726 0.930 . S
H1718 C1731 0.929 . S
H1719 C1729 0.929 . S
H1720 C1724 0.929 . S
H1721 C1730 0.929 . S
C1722 H1716 0.930 . S
C1722 C1723 1.367 . S
C1722 C1730 1.378 . S
C1723 C1722 1.367 . S
C1723 C1731 1.433 . S
C1724 H1720 0.929 . S
C1724 C1726 1.378 . S
C1724 C1728 1.350 . S
C1725 C1728 1.463 1_554 S
C1725 C1730 1.350 . S
C1725 N1733 1.427 . S
C1726 H1717 0.930 . S
C1726 C1724 1.378 . S
C1726 C1727 1.367 . S
C1727 C1726 1.367 . S
C1727 C1729 1.433 . S
C1728 C1724 1.350 . S
C1728 C1725 1.463 1_556 S
C1728 N1732 1.427 . S
C1729 H1719 0.929 . S
C1729 C1727 1.433 . S
C1729 N1732 1.384 . S
C1730 H1721 0.929 . S
C1730 C1722 1.378 . S
C1730 C1725 1.350 . S
C1731 H1718 0.929 . S
C1731 C1723 1.433 . S
C1731 N1733 1.384 . S
N1732 C1728 1.427 . S
N1732 C1729 1.384 . S
N1733 C1725 1.427 . S
N1733 C1731 1.384 . S
H1734 C1740 0.930 . S
H1735 C1744 0.930 . S
H1736 C1749 0.929 . S
H1737 C1747 0.929 . S
H1738 C1742 0.929 . S
H1739 C1748 0.929 . S
C1740 H1734 0.930 . S
C1740 C1741 1.367 . S
C1740 C1748 1.378 . S
C1741 C1740 1.367 . S
C1741 C1749 1.433 . S
C1742 H1738 0.929 . S
C1742 C1744 1.378 . S
C1742 C1746 1.350 . S
C1743 C1746 1.463 1_554 S
C1743 C1748 1.350 . S
C1743 N1751 1.427 . S
C1744 H1735 0.930 . S
C1744 C1742 1.378 . S
C1744 C1745 1.367 . S
C1745 C1744 1.367 . S
C1745 C1747 1.433 . S
C1746 C1742 1.350 . S
C1746 C1743 1.463 1_556 S
C1746 N1750 1.427 . S
C1747 H1737 0.929 . S
C1747 C1745 1.433 . S
C1747 N1750 1.384 . S
C1748 H1739 0.929 . S
C1748 C1740 1.378 . S
C1748 C1743 1.350 . S
C1749 H1736 0.929 . S
C1749 C1741 1.433 . S
C1749 N1751 1.384 . S
N1750 C1746 1.427 . S
N1750 C1747 1.384 . S
N1751 C1743 1.427 . S
N1751 C1749 1.384 . S
H1752 C1758 0.930 . S
H1753 C1762 0.930 . S
H1754 C1767 0.929 . S
H1755 C1765 0.929 . S
H1756 C1760 0.929 . S
H1757 C1766 0.929 . S
C1758 H1752 0.930 . S
C1758 C1759 1.367 . S
C1758 C1766 1.378 . S
C1759 C1758 1.367 . S
C1759 C1767 1.433 . S
C1760 H1756 0.929 . S
C1760 C1762 1.378 . S
C1760 C1764 1.350 . S
C1761 C1764 1.463 1_554 S
C1761 C1766 1.350 . S
C1761 N1769 1.427 . S
C1762 H1753 0.930 . S
C1762 C1760 1.378 . S
C1762 C1763 1.367 . S
C1763 C1762 1.367 . S
C1763 C1765 1.433 . S
C1764 C1760 1.350 . S
C1764 C1761 1.463 1_556 S
C1764 N1768 1.427 . S
C1765 H1755 0.929 . S
C1765 C1763 1.433 . S
C1765 N1768 1.384 . S
C1766 H1757 0.929 . S
C1766 C1758 1.378 . S
C1766 C1761 1.350 . S
C1767 H1754 0.929 . S
C1767 C1759 1.433 . S
C1767 N1769 1.384 . S
N1768 C1764 1.427 . S
N1768 C1765 1.384 . S
N1769 C1761 1.427 . S
N1769 C1767 1.384 . S
H1770 C1776 0.930 . S
H1771 C1780 0.930 . S
H1772 C1785 0.929 . S
H1773 C1783 0.929 . S
H1774 C1778 0.929 . S
H1775 C1784 0.929 . S
C1776 H1770 0.930 . S
C1776 C1777 1.367 . S
C1776 C1784 1.378 . S
C1777 C1776 1.367 . S
C1777 C1785 1.433 . S
C1778 H1774 0.929 . S
C1778 C1780 1.378 . S
C1778 C1782 1.350 . S
C1779 C1782 1.463 1_556 S
C1779 C1784 1.350 . S
C1779 N1787 1.427 . S
C1780 H1771 0.930 . S
C1780 C1778 1.378 . S
C1780 C1781 1.367 . S
C1781 C1780 1.367 . S
C1781 C1783 1.433 . S
C1782 C1778 1.350 . S
C1782 C1779 1.463 1_554 S
C1782 N1786 1.427 . S
C1783 H1773 0.929 . S
C1783 C1781 1.433 . S
C1783 N1786 1.384 . S
C1784 H1775 0.929 . S
C1784 C1776 1.378 . S
C1784 C1779 1.350 . S
C1785 H1772 0.929 . S
C1785 C1777 1.433 . S
C1785 N1787 1.384 . S
N1786 C1782 1.427 . S
N1786 C1783 1.384 . S
N1787 C1779 1.427 . S
N1787 C1785 1.384 . S
H1788 C1794 0.930 . S
H1789 C1798 0.930 . S
H1790 C1803 0.929 . S
H1791 C1801 0.929 . S
H1792 C1796 0.929 . S
H1793 C1802 0.929 . S
C1794 H1788 0.930 . S
C1794 C1795 1.367 . S
C1794 C1802 1.378 . S
C1795 C1794 1.367 . S
C1795 C1803 1.433 . S
C1796 H1792 0.929 . S
C1796 C1798 1.378 . S
C1796 C1800 1.350 . S
C1797 C1800 1.463 . S
C1797 C1802 1.350 . S
C1797 N1805 1.427 . S
C1798 H1789 0.930 . S
C1798 C1796 1.378 . S
C1798 C1799 1.367 . S
C1799 C1798 1.367 . S
C1799 C1801 1.433 . S
C1800 C1796 1.350 . S
C1800 C1797 1.463 . S
C1800 N1804 1.427 . S
C1801 H1791 0.929 . S
C1801 C1799 1.433 . S
C1801 N1804 1.384 . S
C1802 H1793 0.929 . S
C1802 C1794 1.378 . S
C1802 C1797 1.350 . S
C1803 H1790 0.929 . S
C1803 C1795 1.433 . S
C1803 N1805 1.384 . S
N1804 C1800 1.427 . S
N1804 C1801 1.384 . S
N1805 C1797 1.427 . S
N1805 C1803 1.384 . S
H1806 C1812 0.930 . S
H1807 C1816 0.930 . S
H1808 C1821 0.929 . S
H1809 C1819 0.929 . S
H1810 C1814 0.929 . S
H1811 C1820 0.929 . S
C1812 H1806 0.930 . S
C1812 C1813 1.367 . S
C1812 C1820 1.378 . S
C1813 C1812 1.367 . S
C1813 C1821 1.433 . S
C1814 H1810 0.929 . S
C1814 C1816 1.378 . S
C1814 C1818 1.350 . S
C1815 C1818 1.463 . S
C1815 C1820 1.350 . S
C1815 N1823 1.427 . S
C1816 H1807 0.930 . S
C1816 C1814 1.378 . S
C1816 C1817 1.367 . S
C1817 C1816 1.367 . S
C1817 C1819 1.433 . S
C1818 C1814 1.350 . S
C1818 C1815 1.463 . S
C1818 N1822 1.427 . S
C1819 H1809 0.929 . S
C1819 C1817 1.433 . S
C1819 N1822 1.384 . S
C1820 H1811 0.929 . S
C1820 C1812 1.378 . S
C1820 C1815 1.350 . S
C1821 H1808 0.929 . S
C1821 C1813 1.433 . S
C1821 N1823 1.384 . S
N1822 C1818 1.427 . S
N1822 C1819 1.384 . S
N1823 C1815 1.427 . S
N1823 C1821 1.384 . S
H1824 C1830 0.930 . S
H1825 C1834 0.930 . S
H1826 C1839 0.929 . S
H1827 C1837 0.929 . S
H1828 C1832 0.929 . S
H1829 C1838 0.929 . S
C1830 H1824 0.930 . S
C1830 C1831 1.367 . S
C1830 C1838 1.378 . S
C1831 C1830 1.367 . S
C1831 C1839 1.433 . S
C1832 H1828 0.929 . S
C1832 C1834 1.378 . S
C1832 C1836 1.350 . S
C1833 C1836 1.463 . S
C1833 C1838 1.350 . S
C1833 N1841 1.427 . S
C1834 H1825 0.930 . S
C1834 C1832 1.378 . S
C1834 C1835 1.367 . S
C1835 C1834 1.367 . S
C1835 C1837 1.433 . S
C1836 C1832 1.350 . S
C1836 C1833 1.463 . S
C1836 N1840 1.427 . S
C1837 H1827 0.929 . S
C1837 C1835 1.433 . S
C1837 N1840 1.384 . S
C1838 H1829 0.929 . S
C1838 C1830 1.378 . S
C1838 C1833 1.350 . S
C1839 H1826 0.929 . S
C1839 C1831 1.433 . S
C1839 N1841 1.384 . S
N1840 C1836 1.427 . S
N1840 C1837 1.384 . S
N1841 C1833 1.427 . S
N1841 C1839 1.384 . S
H1842 C1848 0.930 . S
H1843 C1852 0.930 . S
H1844 C1857 0.929 . S
H1845 C1855 0.929 . S
H1846 C1850 0.929 . S
H1847 C1856 0.929 . S
C1848 H1842 0.930 . S
C1848 C1849 1.367 . S
C1848 C1856 1.378 . S
C1849 C1848 1.367 . S
C1849 C1857 1.433 . S
C1850 H1846 0.929 . S
C1850 C1852 1.378 . S
C1850 C1854 1.350 . S
C1851 C1854 1.463 . S
C1851 C1856 1.350 . S
C1851 N1859 1.427 . S
C1852 H1843 0.930 . S
C1852 C1850 1.378 . S
C1852 C1853 1.367 . S
C1853 C1852 1.367 . S
C1853 C1855 1.433 . S
C1854 C1850 1.350 . S
C1854 C1851 1.463 . S
C1854 N1858 1.427 . S
C1855 H1845 0.929 . S
C1855 C1853 1.433 . S
C1855 N1858 1.384 . S
C1856 H1847 0.929 . S
C1856 C1848 1.378 . S
C1856 C1851 1.350 . S
C1857 H1844 0.929 . S
C1857 C1849 1.433 . S
C1857 N1859 1.384 . S
N1858 C1854 1.427 . S
N1858 C1855 1.384 . S
N1859 C1851 1.427 . S
N1859 C1857 1.384 . S
H1860 C1866 0.930 . S
H1861 C1870 0.930 . S
H1862 C1875 0.929 . S
H1863 C1873 0.929 . S
H1864 C1868 0.929 . S
H1865 C1874 0.929 . S
C1866 H1860 0.930 . S
C1866 C1867 1.367 . S
C1866 C1874 1.378 . S
C1867 C1866 1.367 . S
C1867 C1875 1.433 . S
C1868 H1864 0.929 . S
C1868 C1870 1.378 . S
C1868 C1872 1.350 . S
C1869 C1872 1.463 . S
C1869 C1874 1.350 . S
C1869 N1877 1.427 . S
C1870 H1861 0.930 . S
C1870 C1868 1.378 . S
C1870 C1871 1.367 . S
C1871 C1870 1.367 . S
C1871 C1873 1.433 . S
C1872 C1868 1.350 . S
C1872 C1869 1.463 . S
C1872 N1876 1.427 . S
C1873 H1863 0.929 . S
C1873 C1871 1.433 . S
C1873 N1876 1.384 . S
C1874 H1865 0.929 . S
C1874 C1866 1.378 . S
C1874 C1869 1.350 . S
C1875 H1862 0.929 . S
C1875 C1867 1.433 . S
C1875 N1877 1.384 . S
N1876 C1872 1.427 . S
N1876 C1873 1.384 . S
N1877 C1869 1.427 . S
N1877 C1875 1.384 . S
H1878 C1884 0.930 . S
H1879 C1888 0.930 . S
H1880 C1893 0.929 . S
H1881 C1891 0.929 . S
H1882 C1886 0.929 . S
H1883 C1892 0.929 . S
C1884 H1878 0.930 . S
C1884 C1885 1.367 . S
C1884 C1892 1.378 . S
C1885 C1884 1.367 . S
C1885 C1893 1.433 . S
C1886 H1882 0.929 . S
C1886 C1888 1.378 . S
C1886 C1890 1.350 . S
C1887 C1890 1.463 . S
C1887 C1892 1.350 . S
C1887 N1895 1.427 . S
C1888 H1879 0.930 . S
C1888 C1886 1.378 . S
C1888 C1889 1.367 . S
C1889 C1888 1.367 . S
C1889 C1891 1.433 . S
C1890 C1886 1.350 . S
C1890 C1887 1.463 . S
C1890 N1894 1.427 . S
C1891 H1881 0.929 . S
C1891 C1889 1.433 . S
C1891 N1894 1.384 . S
C1892 H1883 0.929 . S
C1892 C1884 1.378 . S
C1892 C1887 1.350 . S
C1893 H1880 0.929 . S
C1893 C1885 1.433 . S
C1893 N1895 1.384 . S
N1894 C1890 1.427 . S
N1894 C1891 1.384 . S
N1895 C1887 1.427 . S
N1895 C1893 1.384 . S
C823 C5 0.702 . S
C827 C107 0.704 . S
C841 C141 0.690 . S
C845 C39 0.694 . S
C859 C175 0.689 . S
C863 C73 0.704 . S
C877 C311 0.707 . S
C881 C209 0.697 . S
C895 C243 0.700 . S
C899 C345 0.706 . S
C913 C277 0.693 . S
C917 C379 0.707 . S
C931 C515 0.707 . S
C935 C413 0.692 . S
C949 C549 0.689 . S
C953 C447 0.696 . S
C967 C583 0.701 . S
C971 C481 0.688 . S
C985 C719 0.690 . S
C989 C617 0.694 . S
C1003 C651 0.702 . S
C1007 C753 0.688 . S
C1021 C787 0.704 . S
C1025 C685 0.688 . S
C1039 C281 1.739 . S
C1043 C9 1.731 . S
C1057 C43 1.747 . S
C1061 C315 1.738 . S
C1075 C77 1.746 . S
C1079 C349 1.735 . S
C1093 C111 1.743 . S
C1097 C383 1.745 . S
C1111 C145 1.747 . S
C1115 C213 1.737 . S
C1129 C247 1.745 . S
C1133 C179 1.745 . S
C1147 C417 1.731 . S
C1151 C689 1.736 . S
C1165 C723 1.735 . S
C1169 C451 1.746 . S
C1183 C757 1.731 . S
C1187 C485 1.740 . S
C1201 C519 1.733 . S
C1205 C791 1.734 . S
C1219 C621 1.740 . S
C1223 C553 1.731 . S
C1237 C655 1.747 . S
C1241 C587 1.740 . S
C1255 C33 1.087 . S
C1259 C271 1.092 . S
C1273 C67 1.084 . S
C1277 C305 1.096 . S
C1291 C339 1.097 . S
C1295 C101 1.083 . S
C1309 C135 1.089 . S
C1313 C373 1.093 . S
C1327 C407 1.096 . S
C1331 C169 1.084 . S
C1345 C237 1.082 . S
C1349 C203 1.098 . S
C1363 C441 1.084 . S
C1367 C679 1.095 . S
C1381 C475 1.082 . S
C1385 C713 1.098 . S
C1399 C509 1.097 . S
C1403 C747 1.082 . S
C1417 C543 1.098 . S
C1421 C781 1.082 . S
C1435 C577 1.083 . S
C1439 C815 1.097 . S
C1453 C645 1.093 . S
C1457 C611 1.088 . S
C1471 C2 1.264 . S
C1475 C342 1.263 . S
C1489 C376 1.264 . S
C1493 C36 1.264 . S
C1507 C206 1.276 . S
C1511 C70 1.265 . S
C1525 C240 1.262 . S
C1529 C104 1.272 . S
C1543 C138 1.267 . S
C1547 C274 1.277 . S
C1561 C172 1.265 . S
C1565 C308 1.263 . S
C1579 C410 1.266 . S
C1583 C750 1.262 . S
C1597 C784 1.262 . S
C1601 C444 1.272 . S
C1615 C614 1.270 . S
C1619 C478 1.278 . S
C1633 C512 1.277 . S
C1637 C648 1.273 . S
C1651 C546 1.262 . S
C1655 C682 1.271 . S
C1669 C716 1.271 . S
C1673 C580 1.262 . S
C1687 C20 1.441 . S
C1691 C530 1.443 . S
C1705 C54 1.448 . S
C1709 C564 1.436 . S
C1723 C88 1.444 . S
C1727 C598 1.440 . S
C1741 C122 1.437 . S
C1745 C428 1.448 . S
C1759 C156 1.437 . S
C1763 C462 1.448 . S
C1777 C496 1.437 . S
C1781 C190 1.448 . S
C1795 C224 1.448 . S
C1799 C734 1.436 . S
C1813 C258 1.447 . S
C1817 C768 1.437 . S
C1831 C292 1.438 . S
C1835 C802 1.446 . S
C1849 C326 1.437 . S
C1853 C632 1.448 . S
C1867 C360 1.446 . S
C1871 C666 1.438 . S
C1885 C700 1.438 . S
C1889 C394 1.446 . S
