# Generated by pormake.
# Topology vmb, (5)-cn, num edge types: 1
# Building blocks:
#     Node 0, Type 0, BuildingBlock: XOMCOT_clean_sbu_0, # of connection points: 5
#     Node 1, Type 0, BuildingBlock: XOMCOT_clean_sbu_0, # of connection points: 5
#     Node 2, Type 0, BuildingBlock: XOMCOT_clean_sbu_0, # of connection points: 5
#     Node 3, Type 0, BuildingBlock: XOMCOT_clean_sbu_0, # of connection points: 5
#     Node 4, Type 0, BuildingBlock: XOMCOT_clean_sbu_0, # of connection points: 5
#     Node 5, Type 0, BuildingBlock: XOMCOT_clean_sbu_0, # of connection points: 5
#     Node 6, Type 0, BuildingBlock: XOMCOT_clean_sbu_0, # of connection points: 5
#     Node 7, Type 0, BuildingBlock: XOMCOT_clean_sbu_0, # of connection points: 5
#     Edge 8, Type (0, 0), BuildingBlock: AJUNOK_clean_linker_0, # of connection points: 2
#     Edge 9, Type (0, 0), BuildingBlock: AJUNOK_clean_linker_0, # of connection points: 2
#     Edge 10, Type (0, 0), BuildingBlock: AJUNOK_clean_linker_0, # of connection points: 2
#     Edge 11, Type (0, 0), BuildingBlock: AJUNOK_clean_linker_0, # of connection points: 2
#     Edge 12, Type (0, 0), BuildingBlock: AJUNOK_clean_linker_0, # of connection points: 2
#     Edge 13, Type (0, 0), BuildingBlock: AJUNOK_clean_linker_0, # of connection points: 2
#     Edge 14, Type (0, 0), BuildingBlock: AJUNOK_clean_linker_0, # of connection points: 2
#     Edge 15, Type (0, 0), BuildingBlock: AJUNOK_clean_linker_0, # of connection points: 2
#     Edge 16, Type (0, 0), BuildingBlock: AJUNOK_clean_linker_0, # of connection points: 2
#     Edge 17, Type (0, 0), BuildingBlock: AJUNOK_clean_linker_0, # of connection points: 2
#     Edge 18, Type (0, 0), BuildingBlock: AJUNOK_clean_linker_0, # of connection points: 2
#     Edge 19, Type (0, 0), BuildingBlock: AJUNOK_clean_linker_0, # of connection points: 2
#     Edge 20, Type (0, 0), BuildingBlock: AJUNOK_clean_linker_0, # of connection points: 2
#     Edge 21, Type (0, 0), BuildingBlock: AJUNOK_clean_linker_0, # of connection points: 2
#     Edge 22, Type (0, 0), BuildingBlock: AJUNOK_clean_linker_0, # of connection points: 2
#     Edge 23, Type (0, 0), BuildingBlock: AJUNOK_clean_linker_0, # of connection points: 2
#     Edge 24, Type (0, 0), BuildingBlock: AJUNOK_clean_linker_0, # of connection points: 2
#     Edge 25, Type (0, 0), BuildingBlock: AJUNOK_clean_linker_0, # of connection points: 2
#     Edge 26, Type (0, 0), BuildingBlock: AJUNOK_clean_linker_0, # of connection points: 2
#     Edge 27, Type (0, 0), BuildingBlock: AJUNOK_clean_linker_0, # of connection points: 2
# Relax obj value: 0.123
# Max RMSD: 0.192
# Mean RMSD: 0.192
data_MOF--net-vmb--node1-XOMCOT_clean_sbu_0--edge1-AJUNOK_clean_linker_0
_symmetry_space_group_name_H-M    P1
_symmetry_Int_Tables_number       1
_symmetry_cell_setting            triclinic
loop_
_symmetry_equiv_pos_as_xyz
'x, y, z'
_cell_length_a     28.266624
_cell_length_b     31.954972
_cell_length_c     23.397967
_cell_angle_alpha  89.799436
_cell_angle_beta   114.95049
_cell_angle_gamma 90.056576
loop_
_atom_site_label
_atom_site_type_symbol
_atom_site_fract_x
_atom_site_fract_y
_atom_site_fract_z
_atom_type_partial_charge
Co0 Co 0.30342 0.09972 0.41898 0.0
C1 C 0.40905 0.06811 0.44502 0.0
C2 C 0.41097 0.13413 0.46141 0.0
C3 C 0.46068 0.12088 0.47275 0.0
N4 N 0.37853 0.10091 0.44418 0.0
N5 N 0.4593 0.07928 0.46249 0.0
H6 H 0.39497 0.03644 0.43297 0.0
H7 H 0.39958 0.16599 0.46458 0.0
C8 C 0.28997 0.19171 0.41227 0.0
O9 O 0.27401 0.18869 0.35103 0.0
N10 N 0.22843 0.09737 0.39372 0.0
C11 C 0.20402 0.07123 0.41798 0.0
C12 C 0.1511 0.07511 0.38421 0.0
C13 C 0.18952 0.11599 0.344 0.0
N14 N 0.14185 0.10329 0.33778 0.0
C15 C 0.33582 0.04204 0.52269 0.0
C16 C 0.30195 0.08965 0.59686 0.0
C17 C 0.3217 0.04956 0.61714 0.0
C18 C 0.33935 0.02574 0.5798 0.0
C19 C 0.29887 0.10468 0.53955 0.0
N20 N 0.31531 0.08086 0.50289 0.0
H21 H 0.3475 0.02274 0.49315 0.0
H22 H 0.27981 0.13437 0.5232 0.0
H23 H 0.22303 0.04885 0.45542 0.0
H24 H 0.19575 0.13671 0.3112 0.0
O25 O 0.29888 0.04656 0.37746 0.0
O26 O 0.29231 0.10882 0.33295 0.0
O27 O 0.30513 0.15914 0.44669 0.0
C28 C 0.29292 0.0684 0.32781 0.0
H29 H 0.49474 0.14062 0.48567 0.0
H30 H 0.12178 0.05622 0.39039 0.0
H31 H 0.28628 0.10838 0.62337 0.0
H32 H 0.35439 0.99438 0.59385 0.0
Co33 Co 0.78205 0.08491 0.04031 0.0
C34 C 0.67631 0.05063 0.00707 0.0
C35 C 0.67342 0.11727 -0.00455 0.0
C36 C 0.6238 0.10288 -0.01749 0.0
N37 N 0.70641 0.08437 0.0106 0.0
N38 N 0.62587 0.06094 -0.01062 0.0
H39 H 0.69106 0.01918 0.01996 0.0
H40 H 0.68445 0.14962 -0.0048 0.0
C41 C 0.79074 0.17732 0.04065 0.0
O42 O 0.80201 0.17577 0.10106 0.0
N43 N 0.8575 0.08423 0.07041 0.0
C44 C 0.88491 0.05645 0.05312 0.0
C45 C 0.9372 0.06268 0.08891 0.0
C46 C 0.89383 0.1064 0.11784 0.0
N47 N 0.94291 0.09384 0.12991 0.0
C48 C 0.75568 0.02427 0.94191 0.0
C49 C 0.79386 0.0688 0.86886 0.0
C50 C 0.77482 0.02824 0.8507 0.0
C51 C 0.7544 1.00628 0.88712 0.0
C52 C 0.79367 0.08593 0.92345 0.0
N53 N 0.77502 0.06359 0.95953 0.0
H54 H 0.74285 1.00582 0.97128 0.0
H55 H 0.81145 0.11621 0.93828 0.0
H56 H 0.86825 0.03182 0.01891 0.0
H57 H 0.88461 0.13006 0.1444 0.0
O58 O 0.78656 0.03283 0.08433 0.0
O59 O 0.78875 0.0957 0.12462 0.0
O60 O 0.77935 0.14377 0.00836 0.0
C61 C 0.78889 0.05531 0.13163 0.0
H62 H 0.58897 0.12175 0.96948 0.0
H63 H 0.96861 0.04389 0.08767 0.0
H64 H 0.81064 0.08657 0.84244 0.0
H65 H 0.73843 0.97513 0.87412 0.0
Co66 Co 0.77386 0.92455 0.53801 0.0
C67 C 0.6732 0.9696 0.49933 0.0
C68 C 0.66236 0.90298 0.49431 0.0
C69 C 0.61482 0.9219 0.47961 0.0
N70 N 0.69894 0.9329 0.50635 0.0
N71 N 0.62181 0.96372 0.48344 0.0
H72 H 0.69185 0.99993 0.5067 0.0
H73 H 0.6698 0.86968 0.49802 0.0
C74 C 0.76446 0.84436 0.46163 0.0
O75 O 0.76893 0.86379 0.41472 0.0
N76 N 0.84925 0.91502 0.57133 0.0
C77 C 0.87442 0.89275 0.54356 0.0
C78 C 0.92698 0.8924 0.58179 0.0
C79 C 0.88764 0.92844 0.62614 0.0
N80 N 0.93511 0.91498 0.63336 0.0
C81 C 0.81262 0.97483 0.46639 0.0
C82 C 0.73279 0.96022 0.34903 0.0
C83 C 0.77539 0.98476 0.35363 0.0
C84 C 0.81497 0.99287 0.41338 0.0
C85 C 0.73198 0.94275 0.40345 0.0
N86 N 0.77307 0.94822 0.46086 0.0
H87 H 0.84294 0.98224 0.51222 0.0
H88 H 0.69923 0.92339 0.39888 0.0
H89 H 0.85676 0.87886 0.49757 0.0
H90 H 0.88163 0.94788 0.66018 0.0
O91 O 0.78443 0.97601 0.5845 0.0
O92 O 0.77604 0.91291 0.61963 0.0
O93 O 0.76323 0.86462 0.50793 0.0
C94 C 0.78139 0.95311 0.62902 0.0
H95 H 0.57828 0.90609 0.46959 0.0
H96 H 0.95718 0.87808 0.57145 0.0
H97 H 0.70048 0.9545 0.3038 0.0
H98 H 0.84789 1.01253 0.41907 0.0
Co99 Co 0.29757 0.94349 0.9155 0.0
C100 C 0.40861 0.96582 0.95665 0.0
C101 C 0.39791 0.9001 0.93998 0.0
C102 C 0.44886 0.91013 0.95231 0.0
N103 N 0.37277 0.93497 0.94446 0.0
N104 N 0.45532 0.95175 0.96208 0.0
H105 H 0.3997 0.99868 0.95534 0.0
H106 H 0.38 0.86981 0.92503 0.0
C107 C 0.31193 0.85937 -0.0221 0.0
O108 O 0.35195 0.87485 0.02622 0.0
N109 N 0.22348 0.95397 0.8852 0.0
C110 C 0.20222 0.98603 0.90354 0.0
C111 C 0.1493 0.98593 0.86827 0.0
C112 C 0.18316 0.9353 0.83773 0.0
N113 N 0.13728 0.95458 0.82604 0.0
C114 C 0.33242 0.99594 0.02536 0.0
C115 C 0.27751 0.95522 0.08277 0.0
C116 C 0.30402 0.99218 0.1092 0.0
C117 C 0.33246 1.01226 0.08056 0.0
C118 C 0.27828 0.94004 0.02734 0.0
N119 N 0.30612 0.95998 -0.00046 0.0
H120 H 0.35058 0.01403 0.0014 0.0
H121 H 0.25349 0.9138 0.00467 0.0
H122 H 0.22374 1.00864 0.93938 0.0
H123 H 0.18758 0.90935 0.81078 0.0
O124 O 0.3046 0.99728 0.88181 0.0
O125 O 0.28979 0.93686 0.83062 0.0
O126 O 0.28593 0.88284 0.93073 0.0
C127 C 0.29821 0.97686 0.83093 0.0
H128 H 0.4781 0.88841 0.95214 0.0
H129 H 0.12194 1.00749 0.87352 0.0
H130 H 0.25399 0.9395 0.10278 0.0
H131 H 0.35299 0.04123 0.0994 0.0
Co132 Co 0.79352 0.58327 0.41119 0.0
C133 C 0.90331 0.55635 0.45035 0.0
C134 C 0.89836 0.62311 0.44939 0.0
C135 C 0.94905 0.6119 0.46208 0.0
N136 N 0.86965 0.58819 0.44375 0.0
N137 N 0.95169 0.56991 0.46209 0.0
H138 H 0.89233 0.52374 0.44283 0.0
H139 H 0.88325 0.65462 0.44023 0.0
C140 C 0.80779 0.66583 0.47754 0.0
O141 O 0.84289 0.64882 0.52924 0.0
N142 N 0.71855 0.57739 0.37705 0.0
C143 C 0.69275 0.54502 0.38776 0.0
C144 C 0.64017 0.55078 0.35275 0.0
C145 C 0.68147 0.60207 0.33471 0.0
N146 N 0.6331 0.58646 0.3192 0.0
C147 C 0.82681 0.53193 0.52253 0.0
C148 C 0.76452 0.56989 0.57213 0.0
C149 C 0.79455 0.53513 0.60298 0.0
C150 C 0.82636 0.51631 0.57802 0.0
C151 C 0.7664 0.58471 0.517 0.0
N152 N 0.79787 0.56618 0.4932 0.0
H153 H 0.84869 0.51524 0.50192 0.0
H154 H 0.74102 0.6103 0.49216 0.0
H155 H 0.71106 0.51853 0.4179 0.0
H156 H 0.68981 0.63023 0.31482 0.0
O157 O 0.79707 0.52917 0.37685 0.0
O158 O 0.78894 0.5902 0.32778 0.0
O159 O 0.78587 0.64404 0.42766 0.0
C160 C 0.79342 0.54974 0.32694 0.0
H161 H 0.98045 0.63287 0.46632 0.0
H162 H 0.60953 0.52931 0.34967 0.0
H163 H 0.73932 0.58516 0.59 0.0
H164 H 0.84923 0.48877 0.59998 0.0
Co165 Co 0.273 0.59789 0.03173 0.0
C166 C 0.16552 0.56594 -0.00997 0.0
C167 C 0.16903 0.63072 0.01399 0.0
C168 C 0.11966 0.61578 0.00117 0.0
N169 N 0.1976 0.59961 0.00548 0.0
N170 N 0.1175 0.57488 -0.014 0.0
H171 H 0.17845 0.53452 -0.01174 0.0
H172 H 0.18378 0.66144 0.032 0.0
C173 C 0.24736 0.68471 0.9719 0.0
O174 O 0.20429 0.67149 0.92548 0.0
N175 N 0.348 0.5947 0.05891 0.0
C176 C 0.37333 0.56967 0.03464 0.0
C177 C 0.42605 0.57433 0.06894 0.0
C178 C 0.38606 0.61359 0.10886 0.0
N179 N 0.43411 0.60191 0.11549 0.0
C180 C 0.2484 0.53998 0.93044 0.0
C181 C 0.27702 0.59005 0.85388 0.0
C182 C 0.26197 0.54862 0.83581 0.0
C183 C 0.24769 0.52352 0.87511 0.0
C184 C 0.27825 0.60508 0.91045 0.0
N185 N 0.26295 0.58044 0.94756 0.0
H186 H 0.241 0.5189 0.96164 0.0
H187 H 0.29495 0.63553 0.92582 0.0
H188 H 0.35523 0.54783 -0.00353 0.0
H189 H 0.37885 0.63415 0.14099 0.0
O190 O 0.27466 0.54386 0.06999 0.0
O191 O 0.28287 0.60523 0.11725 0.0
O192 O 0.2767 0.6591 0.01367 0.0
C193 C 0.28028 0.56477 0.12011 0.0
H194 H 0.08856 0.63331 0.00538 0.0
H195 H 0.4562 0.55655 0.06287 0.0
H196 H 0.28955 0.6103 0.82569 0.0
H197 H 0.23869 0.49067 0.86515 0.0
Co198 Co 0.28033 0.44198 0.53617 0.0
C199 C 0.17402 0.4757 0.5042 0.0
C200 C 0.1705 0.41168 0.47567 0.0
C201 C 0.12045 0.42564 0.4605 0.0
N202 N 0.2043 0.44313 0.50309 0.0
N203 N 0.12277 0.46597 0.47826 0.0
H204 H 0.18891 0.50618 0.52332 0.0
H205 H 0.18095 0.3805 0.46756 0.0
C206 C 0.28562 0.34908 0.53586 0.0
O207 O 0.29598 0.3492 0.5961 0.0
N208 N 0.35597 0.44205 0.56898 0.0
C209 C 0.38408 0.47056 0.55392 0.0
C210 C 0.43617 0.46313 0.58925 0.0
C211 C 0.39165 0.41816 0.61475 0.0
N212 N 0.44109 0.43038 0.62775 0.0
C213 C 0.2535 0.50008 0.43393 0.0
C214 C 0.29576 0.45398 0.36674 0.0
C215 C 0.27276 0.49271 0.34323 0.0
C216 C 0.25147 0.51598 0.37736 0.0
C217 C 0.29717 0.43933 0.42344 0.0
N218 N 0.27585 0.46215 0.45604 0.0
H219 H 0.23806 0.51859 0.46065 0.0
H220 H 0.31751 0.41039 0.44227 0.0
H221 H 0.36792 0.49619 0.52114 0.0
H222 H 0.38176 0.39332 0.63921 0.0
O223 O 0.28464 0.49444 0.57873 0.0
O224 O 0.28398 0.4314 0.61897 0.0
O225 O 0.27765 0.38335 0.50549 0.0
C226 C 0.28493 0.47184 0.62518 0.0
H227 H 0.08523 0.40712 0.43946 0.0
H228 H 0.46806 0.48197 0.58932 0.0
H229 H 0.31414 0.43583 0.34265 0.0
H230 H 0.23387 0.54632 0.36072 0.0
Co231 Co 0.80143 0.42815 0.91593 0.0
C232 C 0.90546 0.46512 0.94513 0.0
C233 C 0.9103 0.39825 0.95259 0.0
C234 C 0.95888 0.41393 0.96297 0.0
N235 N 0.8767 0.43045 0.94157 0.0
N236 N 0.95553 0.45598 0.95821 0.0
H237 H 0.88988 0.49652 0.93543 0.0
H238 H 0.90029 0.36554 0.95173 0.0
C239 C 0.79318 0.33496 0.91403 0.0
O240 O 0.77416 0.33628 0.85227 0.0
N241 N 0.72615 0.42747 0.88983 0.0
C242 C 0.7003 0.4532 0.91249 0.0
C243 C 0.64769 0.4477 0.87883 0.0
C244 C 0.68822 0.4077 0.8406 0.0
N245 N 0.63988 0.41905 0.8337 0.0
C246 C 0.83164 0.48465 0.02074 0.0
C247 C 0.79361 0.43609 0.09022 0.0
C248 C 0.81427 0.47557 0.11283 0.0
C249 C 0.83429 0.4997 0.07788 0.0
C250 C 0.79277 0.42184 0.03373 0.0
N251 N 0.81122 0.44613 -0.00067 0.0
H252 H 0.84383 0.50481 -0.00747 0.0
H253 H 0.77331 0.39256 0.01552 0.0
H254 H 0.71809 0.47649 0.94864 0.0
H255 H 0.69552 0.38729 0.80845 0.0
O256 O 0.79393 0.4816 0.87434 0.0
O257 O 0.79149 0.41963 0.83013 0.0
O258 O 0.80741 0.36861 0.94567 0.0
C259 C 0.78973 0.46018 0.82529 0.0
H260 H 0.99385 0.39582 0.973 0.0
H261 H 0.61744 0.46594 0.88392 0.0
H262 H 0.77551 0.41719 0.11398 0.0
H263 H 0.85024 0.53059 0.09347 0.0
C264 C 0.31066 0.98835 0.21917 0.0
C265 C 0.29876 1.01145 0.16359 0.0
C266 C 0.30723 1.00665 0.27169 0.0
C267 C 0.29151 0.04859 0.27015 0.0
H268 H 0.32382 0.95622 0.22252 0.0
H269 H 0.31824 0.9881 0.31421 0.0
S270 S 0.2502 0.12069 0.1328 0.0
N271 N 0.2666 0.07708 0.10806 0.0
N272 N 0.26011 0.11161 0.20649 0.0
C273 C 0.27768 0.07148 0.2139 0.0
C274 C 0.28133 0.05287 0.16067 0.0
C275 C 0.79442 0.06133 0.24068 0.0
C276 C 0.78749 0.03612 0.18854 0.0
C277 C 0.79042 0.0445 0.29384 0.0
C278 C 0.77892 1.00193 0.29664 0.0
H279 H 0.80271 0.09442 0.24041 0.0
H280 H 0.7957 0.06511 0.33274 0.0
S281 S 0.75905 0.92214 0.17391 0.0
N282 N 0.76964 0.96605 0.14379 0.0
N283 N 0.7625 0.93456 0.24399 0.0
C284 C 0.77243 0.97626 0.24524 0.0
C285 C 0.77673 0.9933 0.19119 0.0
C286 C 0.7654 0.01345 0.68543 0.0
C287 C 0.78243 0.97201 0.68677 0.0
C288 C 0.76283 0.03135 0.73855 0.0
C289 C 0.77788 1.00859 0.7951 0.0
H290 H 0.75278 0.03189 0.64259 0.0
H291 H 0.74824 0.06303 0.73502 0.0
S292 S 0.8313 0.90059 0.82483 0.0
N293 N 0.81772 0.90955 0.74999 0.0
N294 N 0.81475 0.94366 0.85071 0.0
C295 C 0.79668 0.96755 0.79757 0.0
C296 C 0.79856 0.94916 0.74319 0.0
C297 C 0.28664 0.97557 0.71961 0.0
C298 C 0.30399 0.99689 0.77738 0.0
C299 C 0.29369 0.99245 0.66857 0.0
C300 C 0.31847 0.03124 0.67345 0.0
H301 H 0.26716 0.9456 0.7135 0.0
H302 H 0.27868 0.97537 0.62453 0.0
S303 S 0.37446 0.09828 0.81552 0.0
N304 N 0.34916 0.05806 0.8374 0.0
N305 N 0.36257 0.08975 0.74111 0.0
C306 C 0.33667 0.05271 0.7311 0.0
C307 C 0.32938 0.03555 0.78317 0.0
C308 C 0.78635 0.5522 0.21762 0.0
C309 C 0.79734 0.52902 0.27294 0.0
C310 C 0.79235 0.53466 0.16656 0.0
C311 C 0.80999 0.4933 0.16887 0.0
H312 H 0.77287 0.58427 0.21348 0.0
H313 H 0.78237 0.55359 0.12455 0.0
S314 S 0.84469 0.41933 0.30324 0.0
N315 N 0.82644 0.4624 0.32719 0.0
N316 N 0.83897 0.4296 0.2314 0.0
C317 C 0.82098 0.4696 0.22385 0.0
C318 C 0.81438 0.48742 0.27584 0.0
C319 C 0.2974 0.56718 0.23313 0.0
C320 C 0.28019 0.54444 0.17658 0.0
C321 C 0.29449 0.55023 0.28664 0.0
C322 C 0.27424 0.50997 0.28549 0.0
H323 H 0.31314 0.59844 0.23615 0.0
H324 H 0.30862 0.56866 0.32942 0.0
S325 S 0.22183 0.43823 0.14865 0.0
N326 N 0.241 0.47991 0.12217 0.0
N327 N 0.23543 0.44806 0.22321 0.0
C328 C 0.25693 0.48679 0.22942 0.0
C329 C 0.25995 0.50403 0.17481 0.0
C330 C 0.30957 0.53899 0.76732 0.0
C331 C 0.26575 0.53039 0.77957 0.0
C332 C 0.31564 0.52008 0.71686 0.0
C333 C 0.27883 0.4912 0.67823 0.0
H334 H 0.33999 0.55981 0.79766 0.0
H335 H 0.34979 0.5274 0.70882 0.0
S336 S 0.15498 0.46089 0.68533 0.0
N337 N 0.18253 0.49392 0.74432 0.0
N338 N 0.19591 0.45656 0.65204 0.0
C339 C 0.23464 0.48269 0.68899 0.0
C340 C 0.22762 0.50272 0.73912 0.0
C341 C 0.83683 0.49285 0.7686 0.0
C342 C 0.78934 0.48088 0.76935 0.0
C343 C 0.83811 0.51079 0.71461 0.0
C344 C 0.79185 0.5176 0.66005 0.0
H345 H 0.87326 0.48773 0.80964 0.0
H346 H 0.87551 0.51936 0.71549 0.0
S347 S 0.65769 0.49097 0.63902 0.0
N348 N 0.69532 0.4765 0.71212 0.0
N349 N 0.69728 0.51049 0.61013 0.0
C350 C 0.74403 0.50601 0.66069 0.0
C351 C 0.7429 0.48746 0.71558 0.0
C352 C 0.5316 0.99031 0.42956 0.0
C353 C 0.58266 0.99474 0.47673 0.0
C354 C 0.49192 0.01844 0.42456 0.0
C355 C 0.50156 0.05207 0.46678 0.0
H356 H 0.52229 0.96476 0.39632 0.0
H357 H 0.4533 0.01379 0.38726 0.0
S358 S 0.62792 0.07579 0.60146 0.0
N359 N 0.64032 0.03442 0.56792 0.0
N360 N 0.56582 0.08714 0.55891 0.0
C361 C 0.55254 0.05692 0.51415 0.0
C362 C 0.59303 0.02831 0.51905 0.0
C363 C 0.50775 0.01607 0.00272 0.0
C364 C 0.49986 0.97772 0.97019 0.0
C365 C 0.54856 0.04324 0.00834 0.0
C366 C 0.58376 0.03293 -0.01744 0.0
H367 H 0.48217 0.02524 0.02426 0.0
H368 H 0.55311 0.07228 0.03381 0.0
S369 S 0.57971 0.93808 0.88995 0.0
N370 N 0.53012 0.93227 0.90905 0.0
N371 N 0.60765 0.98276 0.92177 0.0
C372 C 0.5768 0.99483 0.95023 0.0
C373 C 0.53476 0.96735 0.9436 0.0
C374 C 0.04372 0.54734 0.51648 0.0
C375 C 0.99481 0.54475 0.46466 0.0
C376 C 0.0855 0.52173 0.52054 0.0
C377 C 0.07985 0.49282 0.47267 0.0
H378 H 0.04924 0.56872 0.55459 0.0
H379 H 0.12219 0.52403 0.56194 0.0
S380 S 0.96182 0.47919 0.32278 0.0
N381 N 0.94439 0.51419 0.36203 0.0
N382 N 1.02282 0.46665 0.36886 0.0
C383 C 1.03154 0.49121 0.41958 0.0
C384 C 0.98907 0.51704 0.41575 0.0
C385 C 0.04165 0.5516 0.00567 0.0
C386 C 0.0758 0.54532 -0.02339 0.0
C387 C 1.00241 0.52242 -0.0008 0.0
C388 C 0.9961 0.4855 0.96417 0.0
H389 H 0.04579 0.57885 0.0347 0.0
H390 H 0.97734 0.52837 0.02275 0.0
S391 S 0.07076 0.45592 0.87292 0.0
N392 N 0.09699 0.50067 0.9065 0.0
N393 N 1.02455 0.44552 0.8965 0.0
C394 C 1.02911 0.47907 0.93395 0.0
C395 C 0.06856 0.50902 0.93963 0.0
C396 C 0.08704 0.10864 0.22338 0.0
C397 C 0.09186 0.11022 0.28561 0.0
C398 C 0.03781 0.10598 0.17227 0.0
C399 C 0.99163 0.10522 0.18142 0.0
H400 H 0.12153 0.1066 0.21439 0.0
H401 H 1.03585 0.10258 0.12529 0.0
S402 S 0.98328 0.11406 0.33491 0.0
N403 N 0.04645 0.11539 0.35327 0.0
N404 N 0.95403 0.1098 0.25741 0.0
C405 C 0.99587 0.10986 0.24311 0.0
C406 C 0.04599 0.11243 0.29513 0.0
C407 C 0.07223 0.90353 0.7579 0.0
C408 C 0.08632 0.94513 0.77718 0.0
C409 C 1.0225 0.89378 0.71124 0.0
C410 C 0.98502 0.92521 0.68288 0.0
H411 H 0.09962 0.87832 0.7795 0.0
H412 H 1.01301 0.86144 0.69747 0.0
S413 S 1.00365 0.03918 0.71068 0.0
N414 N 0.05966 0.01832 0.75944 0.0
N415 N 0.96594 0.99945 0.6737 0.0
C416 C 0.99862 0.96682 0.70089 0.0
C417 C 0.04935 0.97693 0.74755 0.0
C418 C 0.48876 0.60147 0.22987 0.0
C419 C 0.48356 0.60861 0.16823 0.0
C420 C 0.53823 0.59701 0.28011 0.0
C421 C 0.58408 0.60013 0.27053 0.0
H422 H 0.45446 0.59616 0.23843 0.0
H423 H 0.54072 0.58896 0.32629 0.0
S424 S 0.59103 0.62384 0.11909 0.0
N425 N 0.52793 0.62275 0.10124 0.0
N426 N 0.62092 0.61448 0.19559 0.0
C427 C 0.57933 0.61056 0.20998 0.0
C428 C 0.52901 0.61471 0.15883 0.0
C429 C 0.58505 0.41371 0.71936 0.0
C430 C 0.59018 0.41108 0.78165 0.0
C431 C 0.53567 0.417 0.66858 0.0
C432 C 0.48965 0.41723 0.67815 0.0
H433 H 0.61939 0.41633 0.7102 0.0
H434 H 0.53349 0.4216 0.62165 0.0
S435 S 0.48213 0.40456 0.83166 0.0
N436 N 0.54524 0.40365 0.84958 0.0
N437 N 0.45253 0.41018 0.75433 0.0
C438 C 0.49419 0.41098 0.7397 0.0
C439 C 0.54446 0.40785 0.79138 0.0
C440 C 0.30634 0.27272 0.53804 0.0
C441 C 0.28515 0.30927 0.50302 0.0
C442 C 0.30818 0.23516 0.50825 0.0
C443 C 0.28871 0.23246 0.44209 0.0
H444 H 0.32227 0.2731 0.58903 0.0
H445 H 0.32516 0.20804 0.53765 0.0
S446 S 0.22739 0.319 0.32833 0.0
N447 N 0.24296 0.3402 0.39814 0.0
N448 N 0.24656 0.26978 0.34236 0.0
C449 C 0.26706 0.26876 0.40639 0.0
C450 C 0.2652 0.30705 0.43675 0.0
C451 C 0.77142 0.25855 0.91299 0.0
C452 C 0.7951 0.29472 0.94742 0.0
C453 C 0.7702 0.22089 0.94347 0.0
C454 C 0.79232 0.21778 0.00975 0.0
H455 H 0.75303 0.25934 0.86195 0.0
H456 H 0.75122 0.19409 0.91465 0.0
S457 S 0.86205 0.30251 0.12218 0.0
N458 N 0.84368 0.32421 0.05199 0.0
N459 N 0.84059 0.25387 0.10888 0.0
C460 C 0.8168 0.25351 0.04483 0.0
C461 C 0.81843 0.29177 0.01382 0.0
C462 C 0.77057 0.73137 0.41653 0.0
C463 C 0.79467 0.71088 0.47526 0.0
C464 C 0.75958 0.7743 0.41252 0.0
C465 C 0.77137 0.79835 0.46698 0.0
H466 H 0.76118 0.71438 0.37311 0.0
H467 H 0.74224 0.78883 0.36633 0.0
S468 S 0.83242 0.75944 0.63226 0.0
N469 N 0.82844 0.7177 0.5891 0.0
N470 N 0.80734 0.79826 0.58172 0.0
C471 C 0.79407 0.77804 0.52604 0.0
C472 C 0.80591 0.73438 0.53014 0.0
C473 C 0.24967 0.79987 0.92946 0.0
C474 C 0.29622 0.81485 -0.0221 0.0
C475 C 0.23403 0.75798 0.92795 0.0
C476 C 0.2643 0.72918 0.97471 0.0
H477 H 0.22486 0.82065 0.89222 0.0
H478 H 0.19794 0.74817 0.88961 0.0
S479 S 0.39004 0.75231 0.11184 0.0
N480 N 0.37261 0.79724 0.07376 0.0
N481 N 0.34353 0.71894 0.07119 0.0
C482 C 0.31101 0.7438 0.02354 0.0
C483 C 0.32684 0.78644 0.02507 0.0
loop_
_geom_bond_atom_site_label_1
_geom_bond_atom_site_label_2
_geom_bond_distance
_geom_bond_site_symmetry_2
_ccdc_geom_bond_type
Co0 N4 2.148 . S
Co0 N10 2.128 . S
Co0 N20 2.194 . S
Co0 O25 2.351 . S
Co0 O26 2.155 . S
Co0 O27 2.096 . S
C1 N4 1.301 . S
C1 N5 1.328 . S
C1 H6 0.930 . S
C2 C3 1.333 . S
C2 N4 1.317 . S
C2 H7 0.930 . S
C3 C2 1.333 . S
C3 N5 1.350 . S
C3 H29 0.931 . S
N4 Co0 2.148 . S
N4 C1 1.301 . S
N4 C2 1.317 . S
N5 C1 1.328 . S
N5 C3 1.350 . S
H6 C1 0.930 . S
H7 C2 0.930 . S
C8 O9 1.224 . S
C8 O27 1.247 . S
O9 C8 1.224 . S
N10 Co0 2.128 . S
N10 C11 1.355 . S
N10 C13 1.311 . S
C11 N10 1.355 . S
C11 C12 1.363 . S
C11 H23 0.929 . S
C12 C11 1.363 . S
C12 N14 1.375 . S
C12 H30 0.931 . S
C13 N10 1.311 . S
C13 N14 1.347 . S
C13 H24 0.929 . S
N14 C12 1.375 . S
N14 C13 1.347 . S
C15 C18 1.365 1_545 S
C15 N20 1.328 . S
C15 H21 0.929 1_545 S
C16 C17 1.362 . S
C16 C19 1.378 . S
C16 H31 0.929 . S
C17 C16 1.362 . S
C17 C18 1.366 1_545 S
C18 C15 1.365 1_565 S
C18 C17 1.366 1_565 S
C18 H32 0.930 . S
C19 C16 1.378 . S
C19 N20 1.315 . S
C19 H22 0.930 . S
N20 Co0 2.194 . S
N20 C15 1.328 . S
N20 C19 1.315 . S
H21 C15 0.929 1_565 S
H22 C19 0.930 . S
H23 C11 0.929 . S
H24 C13 0.929 . S
O25 Co0 2.351 . S
O25 C28 1.244 . S
O26 Co0 2.155 . S
O26 C28 1.240 . S
O27 Co0 2.096 . S
O27 C8 1.247 . S
C28 O25 1.244 . S
C28 O26 1.240 . S
H29 C3 0.931 . S
H30 C12 0.931 . S
H31 C16 0.929 . S
H32 C18 0.930 . S
Co33 N37 2.148 . S
Co33 N43 2.128 . S
Co33 N53 2.207 . S
Co33 O58 2.351 . S
Co33 O59 2.155 . S
Co33 O60 2.096 . S
C34 N37 1.301 . S
C34 N38 1.329 . S
C34 H39 0.930 . S
C35 C36 1.333 1_554 S
C35 N37 1.317 . S
C35 H40 0.930 . S
C36 C35 1.333 1_556 S
C36 N38 1.349 1_556 S
C36 H62 0.931 . S
N37 Co33 2.148 . S
N37 C34 1.301 . S
N37 C35 1.317 . S
N38 C34 1.329 . S
N38 C36 1.349 1_554 S
H39 C34 0.930 . S
H40 C35 0.930 . S
C41 O42 1.224 . S
C41 O60 1.247 . S
O42 C41 1.224 . S
N43 Co33 2.128 . S
N43 C44 1.355 . S
N43 C46 1.311 . S
C44 N43 1.355 . S
C44 C45 1.363 . S
C44 H56 0.929 . S
C45 C44 1.363 . S
C45 N47 1.375 . S
C45 H63 0.931 . S
C46 N43 1.311 . S
C46 N47 1.347 . S
C46 H57 0.929 . S
N47 C45 1.375 . S
N47 C46 1.347 . S
C48 C51 1.365 1_545 S
C48 N53 1.328 1_556 S
C48 H54 0.929 1_546 S
C49 C50 1.362 . S
C49 C52 1.378 . S
C49 H64 0.929 . S
C50 C49 1.362 . S
C50 C51 1.366 1_545 S
C51 C48 1.365 1_565 S
C51 C50 1.366 1_565 S
C51 H65 0.930 . S
C52 C49 1.378 . S
C52 N53 1.301 1_556 S
C52 H55 0.930 . S
N53 Co33 2.207 . S
N53 C48 1.328 1_554 S
N53 C52 1.301 1_554 S
H54 C48 0.929 1_564 S
H55 C52 0.930 . S
H56 C44 0.929 . S
H57 C46 0.929 . S
O58 Co33 2.351 . S
O58 C61 1.244 . S
O59 Co33 2.155 . S
O59 C61 1.240 . S
O60 Co33 2.096 . S
O60 C41 1.247 . S
C61 O58 1.244 . S
C61 O59 1.240 . S
H62 C36 0.931 . S
H63 C45 0.931 . S
H64 C49 0.929 . S
H65 C51 0.930 . S
Co66 N70 2.148 . S
Co66 N76 2.128 . S
Co66 N86 2.194 . S
Co66 O91 2.351 . S
Co66 O92 2.155 . S
Co66 O93 2.096 . S
C67 N70 1.301 . S
C67 N71 1.328 . S
C67 H72 0.930 . S
C68 C69 1.333 . S
C68 N70 1.317 . S
C68 H73 0.930 . S
C69 C68 1.333 . S
C69 N71 1.350 . S
C69 H95 0.931 . S
N70 Co66 2.148 . S
N70 C67 1.301 . S
N70 C68 1.317 . S
N71 C67 1.328 . S
N71 C69 1.350 . S
H72 C67 0.930 . S
H73 C68 0.930 . S
C74 O75 1.224 . S
C74 O93 1.247 . S
O75 C74 1.224 . S
N76 Co66 2.128 . S
N76 C77 1.355 . S
N76 C79 1.311 . S
C77 N76 1.355 . S
C77 C78 1.363 . S
C77 H89 0.929 . S
C78 C77 1.363 . S
C78 N80 1.375 . S
C78 H96 0.931 . S
C79 N76 1.311 . S
C79 N80 1.347 . S
C79 H90 0.929 . S
N80 C78 1.375 . S
N80 C79 1.347 . S
C81 C84 1.365 1_565 S
C81 N86 1.328 . S
C81 H87 0.929 1_565 S
C82 C83 1.362 . S
C82 C85 1.378 . S
C82 H97 0.929 . S
C83 C82 1.362 . S
C83 C84 1.366 1_565 S
C84 C81 1.365 1_545 S
C84 C83 1.366 1_545 S
C84 H98 0.930 . S
C85 C82 1.378 . S
C85 N86 1.315 . S
C85 H88 0.930 . S
N86 Co66 2.194 . S
N86 C81 1.328 . S
N86 C85 1.315 . S
H87 C81 0.929 1_545 S
H88 C85 0.930 . S
H89 C77 0.929 . S
H90 C79 0.929 . S
O91 Co66 2.351 . S
O91 C94 1.244 . S
O92 Co66 2.155 . S
O92 C94 1.240 . S
O93 Co66 2.096 . S
O93 C74 1.247 . S
C94 O91 1.244 . S
C94 O92 1.240 . S
H95 C69 0.931 . S
H96 C78 0.931 . S
H97 C82 0.929 . S
H98 C84 0.930 . S
Co99 N103 2.148 . S
Co99 N109 2.128 . S
Co99 N119 2.207 . S
Co99 O124 2.351 . S
Co99 O125 2.155 . S
Co99 O126 2.096 . S
C100 N103 1.301 . S
C100 N104 1.329 . S
C100 H105 0.930 . S
C101 C102 1.333 1_556 S
C101 N103 1.317 . S
C101 H106 0.930 . S
C102 C101 1.333 1_554 S
C102 N104 1.349 1_554 S
C102 H128 0.931 . S
N103 Co99 2.148 . S
N103 C100 1.301 . S
N103 C101 1.317 . S
N104 C100 1.329 . S
N104 C102 1.349 1_556 S
H105 C100 0.930 . S
H106 C101 0.930 . S
C107 O108 1.224 . S
C107 O126 1.247 . S
O108 C107 1.224 . S
N109 Co99 2.128 . S
N109 C110 1.355 . S
N109 C112 1.311 . S
C110 N109 1.355 . S
C110 C111 1.363 . S
C110 H122 0.929 . S
C111 C110 1.363 . S
C111 N113 1.375 . S
C111 H129 0.931 . S
C112 N109 1.311 . S
C112 N113 1.347 . S
C112 H123 0.929 . S
N113 C111 1.375 . S
N113 C112 1.347 . S
C114 C117 1.365 1_565 S
C114 N119 1.328 1_554 S
C114 H120 0.929 1_564 S
C115 C116 1.362 . S
C115 C118 1.378 . S
C115 H130 0.929 . S
C116 C115 1.362 . S
C116 C117 1.366 1_565 S
C117 C114 1.365 1_545 S
C117 C116 1.366 1_545 S
C117 H131 0.930 . S
C118 C115 1.378 . S
C118 N119 1.301 1_554 S
C118 H121 0.930 . S
N119 Co99 2.207 . S
N119 C114 1.328 1_556 S
N119 C118 1.301 1_556 S
H120 C114 0.929 1_546 S
H121 C118 0.930 . S
H122 C110 0.929 . S
H123 C112 0.929 . S
O124 Co99 2.351 . S
O124 C127 1.244 . S
O125 Co99 2.155 . S
O125 C127 1.240 . S
O126 Co99 2.096 . S
O126 C107 1.247 . S
C127 O124 1.244 . S
C127 O125 1.240 . S
H128 C102 0.931 . S
H129 C111 0.931 . S
H130 C115 0.929 . S
H131 C117 0.930 . S
Co132 N136 2.148 . S
Co132 N142 2.128 . S
Co132 N152 2.194 . S
Co132 O157 2.351 . S
Co132 O158 2.155 . S
Co132 O159 2.096 . S
C133 N136 1.301 . S
C133 N137 1.328 . S
C133 H138 0.930 . S
C134 C135 1.333 . S
C134 N136 1.317 . S
C134 H139 0.930 . S
C135 C134 1.333 . S
C135 N137 1.350 . S
C135 H161 0.931 . S
N136 Co132 2.148 . S
N136 C133 1.301 . S
N136 C134 1.317 . S
N137 C133 1.328 . S
N137 C135 1.350 . S
H138 C133 0.930 . S
H139 C134 0.930 . S
C140 O141 1.224 . S
C140 O159 1.247 . S
O141 C140 1.224 . S
N142 Co132 2.128 . S
N142 C143 1.355 . S
N142 C145 1.311 . S
C143 N142 1.355 . S
C143 C144 1.363 . S
C143 H155 0.929 . S
C144 C143 1.363 . S
C144 N146 1.375 . S
C144 H162 0.931 . S
C145 N142 1.311 . S
C145 N146 1.347 . S
C145 H156 0.929 . S
N146 C144 1.375 . S
N146 C145 1.347 . S
C147 C150 1.365 . S
C147 N152 1.328 . S
C147 H153 0.929 . S
C148 C149 1.362 . S
C148 C151 1.378 . S
C148 H163 0.929 . S
C149 C148 1.362 . S
C149 C150 1.366 . S
C150 C147 1.365 . S
C150 C149 1.366 . S
C150 H164 0.930 . S
C151 C148 1.378 . S
C151 N152 1.315 . S
C151 H154 0.930 . S
N152 Co132 2.194 . S
N152 C147 1.328 . S
N152 C151 1.315 . S
H153 C147 0.929 . S
H154 C151 0.930 . S
H155 C143 0.929 . S
H156 C145 0.929 . S
O157 Co132 2.351 . S
O157 C160 1.244 . S
O158 Co132 2.155 . S
O158 C160 1.240 . S
O159 Co132 2.096 . S
O159 C140 1.247 . S
C160 O157 1.244 . S
C160 O158 1.240 . S
H161 C135 0.931 . S
H162 C144 0.931 . S
H163 C148 0.929 . S
H164 C150 0.930 . S
Co165 N169 2.148 . S
Co165 N175 2.128 . S
Co165 N185 2.207 . S
Co165 O190 2.351 . S
Co165 O191 2.155 . S
Co165 O192 2.096 . S
C166 N169 1.301 . S
C166 N170 1.329 . S
C166 H171 0.930 . S
C167 C168 1.333 1_554 S
C167 N169 1.317 . S
C167 H172 0.930 . S
C168 C167 1.333 1_556 S
C168 N170 1.349 1_556 S
C168 H194 0.931 . S
N169 Co165 2.148 . S
N169 C166 1.301 . S
N169 C167 1.317 . S
N170 C166 1.329 . S
N170 C168 1.349 1_554 S
H171 C166 0.930 . S
H172 C167 0.930 . S
C173 O174 1.224 . S
C173 O192 1.247 . S
O174 C173 1.224 . S
N175 Co165 2.128 . S
N175 C176 1.355 . S
N175 C178 1.311 . S
C176 N175 1.355 . S
C176 C177 1.363 . S
C176 H188 0.929 . S
C177 C176 1.363 . S
C177 N179 1.375 . S
C177 H195 0.931 . S
C178 N175 1.311 . S
C178 N179 1.347 . S
C178 H189 0.929 . S
N179 C177 1.375 . S
N179 C178 1.347 . S
C180 C183 1.365 . S
C180 N185 1.328 1_556 S
C180 H186 0.929 1_556 S
C181 C182 1.362 . S
C181 C184 1.378 . S
C181 H196 0.929 . S
C182 C181 1.362 . S
C182 C183 1.366 . S
C183 C180 1.365 . S
C183 C182 1.366 . S
C183 H197 0.930 . S
C184 C181 1.378 . S
C184 N185 1.301 1_556 S
C184 H187 0.930 . S
N185 Co165 2.207 . S
N185 C180 1.328 1_554 S
N185 C184 1.301 1_554 S
H186 C180 0.929 1_554 S
H187 C184 0.930 . S
H188 C176 0.929 . S
H189 C178 0.929 . S
O190 Co165 2.351 . S
O190 C193 1.244 . S
O191 Co165 2.155 . S
O191 C193 1.240 . S
O192 Co165 2.096 . S
O192 C173 1.247 . S
C193 O190 1.244 . S
C193 O191 1.240 . S
H194 C168 0.931 . S
H195 C177 0.931 . S
H196 C181 0.929 . S
H197 C183 0.930 . S
Co198 N202 2.148 . S
Co198 N208 2.128 . S
Co198 N218 2.194 . S
Co198 O223 2.351 . S
Co198 O224 2.155 . S
Co198 O225 2.096 . S
C199 N202 1.301 . S
C199 N203 1.328 . S
C199 H204 0.930 . S
C200 C201 1.333 . S
C200 N202 1.317 . S
C200 H205 0.930 . S
C201 C200 1.333 . S
C201 N203 1.350 . S
C201 H227 0.931 . S
N202 Co198 2.148 . S
N202 C199 1.301 . S
N202 C200 1.317 . S
N203 C199 1.328 . S
N203 C201 1.350 . S
H204 C199 0.930 . S
H205 C200 0.930 . S
C206 O207 1.224 . S
C206 O225 1.247 . S
O207 C206 1.224 . S
N208 Co198 2.128 . S
N208 C209 1.355 . S
N208 C211 1.311 . S
C209 N208 1.355 . S
C209 C210 1.363 . S
C209 H221 0.929 . S
C210 C209 1.363 . S
C210 N212 1.375 . S
C210 H228 0.931 . S
C211 N208 1.311 . S
C211 N212 1.347 . S
C211 H222 0.929 . S
N212 C210 1.375 . S
N212 C211 1.347 . S
C213 C216 1.365 . S
C213 N218 1.328 . S
C213 H219 0.929 . S
C214 C215 1.362 . S
C214 C217 1.378 . S
C214 H229 0.929 . S
C215 C214 1.362 . S
C215 C216 1.366 . S
C216 C213 1.365 . S
C216 C215 1.366 . S
C216 H230 0.930 . S
C217 C214 1.378 . S
C217 N218 1.315 . S
C217 H220 0.930 . S
N218 Co198 2.194 . S
N218 C213 1.328 . S
N218 C217 1.315 . S
H219 C213 0.929 . S
H220 C217 0.930 . S
H221 C209 0.929 . S
H222 C211 0.929 . S
O223 Co198 2.351 . S
O223 C226 1.244 . S
O224 Co198 2.155 . S
O224 C226 1.240 . S
O225 Co198 2.096 . S
O225 C206 1.247 . S
C226 O223 1.244 . S
C226 O224 1.240 . S
H227 C201 0.931 . S
H228 C210 0.931 . S
H229 C214 0.929 . S
H230 C216 0.930 . S
Co231 N235 2.148 . S
Co231 N241 2.128 . S
Co231 N251 2.207 . S
Co231 O256 2.351 . S
Co231 O257 2.155 . S
Co231 O258 2.096 . S
C232 N235 1.301 . S
C232 N236 1.329 . S
C232 H237 0.930 . S
C233 C234 1.333 1_556 S
C233 N235 1.317 . S
C233 H238 0.930 . S
C234 C233 1.333 1_554 S
C234 N236 1.349 1_554 S
C234 H260 0.931 . S
N235 Co231 2.148 . S
N235 C232 1.301 . S
N235 C233 1.317 . S
N236 C232 1.329 . S
N236 C234 1.349 1_556 S
H237 C232 0.930 . S
H238 C233 0.930 . S
C239 O240 1.224 . S
C239 O258 1.247 . S
O240 C239 1.224 . S
N241 Co231 2.128 . S
N241 C242 1.355 . S
N241 C244 1.311 . S
C242 N241 1.355 . S
C242 C243 1.363 . S
C242 H254 0.929 . S
C243 C242 1.363 . S
C243 N245 1.375 . S
C243 H261 0.931 . S
C244 N241 1.311 . S
C244 N245 1.347 . S
C244 H255 0.929 . S
N245 C243 1.375 . S
N245 C244 1.347 . S
C246 C249 1.365 . S
C246 N251 1.328 1_554 S
C246 H252 0.929 1_554 S
C247 C248 1.362 . S
C247 C250 1.378 . S
C247 H262 0.929 . S
C248 C247 1.362 . S
C248 C249 1.366 . S
C249 C246 1.365 . S
C249 C248 1.366 . S
C249 H263 0.930 . S
C250 C247 1.378 . S
C250 N251 1.301 1_554 S
C250 H253 0.930 . S
N251 Co231 2.207 . S
N251 C246 1.328 1_556 S
N251 C250 1.301 1_556 S
H252 C246 0.929 1_556 S
H253 C250 0.930 . S
H254 C242 0.929 . S
H255 C244 0.929 . S
O256 Co231 2.351 . S
O256 C259 1.244 . S
O257 Co231 2.155 . S
O257 C259 1.240 . S
O258 Co231 2.096 . S
O258 C239 1.247 . S
C259 O256 1.244 . S
C259 O257 1.240 . S
H260 C234 0.931 . S
H261 C243 0.931 . S
H262 C247 0.929 . S
H263 C249 0.930 . S
C264 C265 1.369 1_565 S
C264 C266 1.419 . S
C264 H268 0.930 . S
C265 C264 1.369 1_545 S
C265 C274 1.429 . S
C266 C264 1.419 . S
C266 C267 1.363 1_565 S
C266 H269 0.929 . S
C267 C266 1.363 1_545 S
C267 C273 1.428 . S
H268 C264 0.930 . S
H269 C266 0.929 . S
S270 N271 1.613 . S
S270 N272 1.610 . S
N271 S270 1.613 . S
N271 C274 1.350 . S
N272 S270 1.610 . S
N272 C273 1.351 . S
C273 C267 1.428 . S
C273 N272 1.351 . S
C273 C274 1.434 . S
C274 C265 1.429 . S
C274 N271 1.350 . S
C274 C273 1.434 . S
C275 C276 1.369 . S
C275 C277 1.419 . S
C275 H279 0.930 . S
C276 C275 1.369 . S
C276 C285 1.429 1_545 S
C277 C275 1.419 . S
C277 C278 1.363 . S
C277 H280 0.929 . S
C278 C277 1.363 . S
C278 C284 1.428 1_545 S
H279 C275 0.930 . S
H280 C277 0.929 . S
S281 N282 1.613 . S
S281 N283 1.610 . S
N282 S281 1.613 . S
N282 C285 1.350 . S
N283 S281 1.610 . S
N283 C284 1.351 . S
C284 C278 1.428 1_565 S
C284 N283 1.351 . S
C284 C285 1.434 . S
C285 C276 1.429 1_565 S
C285 N282 1.350 . S
C285 C284 1.434 . S
C286 C287 1.369 1_545 S
C286 C288 1.419 . S
C286 H290 0.930 . S
C287 C286 1.369 1_565 S
C287 C296 1.429 . S
C288 C286 1.419 . S
C288 C289 1.363 1_545 S
C288 H291 0.929 . S
C289 C288 1.363 1_565 S
C289 C295 1.428 . S
H290 C286 0.930 . S
H291 C288 0.929 . S
S292 N293 1.613 . S
S292 N294 1.610 . S
N293 S292 1.613 . S
N293 C296 1.350 . S
N294 S292 1.610 . S
N294 C295 1.351 . S
C295 C289 1.428 . S
C295 N294 1.351 . S
C295 C296 1.434 . S
C296 C287 1.429 . S
C296 N293 1.350 . S
C296 C295 1.434 . S
C297 C298 1.369 . S
C297 C299 1.419 . S
C297 H301 0.930 . S
C298 C297 1.369 . S
C298 C307 1.429 1_565 S
C299 C297 1.419 . S
C299 C300 1.363 . S
C299 H302 0.929 . S
C300 C299 1.363 . S
C300 C306 1.428 1_565 S
H301 C297 0.930 . S
H302 C299 0.929 . S
S303 N304 1.613 . S
S303 N305 1.610 . S
N304 S303 1.613 . S
N304 C307 1.350 . S
N305 S303 1.610 . S
N305 C306 1.351 . S
C306 C300 1.428 1_545 S
C306 N305 1.351 . S
C306 C307 1.434 . S
C307 C298 1.429 1_545 S
C307 N304 1.350 . S
C307 C306 1.434 . S
C308 C309 1.369 . S
C308 C310 1.419 . S
C308 H312 0.930 . S
C309 C308 1.369 . S
C309 C318 1.429 . S
C310 C308 1.419 . S
C310 C311 1.363 . S
C310 H313 0.929 . S
C311 C310 1.363 . S
C311 C317 1.428 . S
H312 C308 0.930 . S
H313 C310 0.929 . S
S314 N315 1.613 . S
S314 N316 1.610 . S
N315 S314 1.613 . S
N315 C318 1.350 . S
N316 S314 1.610 . S
N316 C317 1.351 . S
C317 C311 1.428 . S
C317 N316 1.351 . S
C317 C318 1.434 . S
C318 C309 1.429 . S
C318 N315 1.350 . S
C318 C317 1.434 . S
C319 C320 1.369 . S
C319 C321 1.419 . S
C319 H323 0.930 . S
C320 C319 1.369 . S
C320 C329 1.429 . S
C321 C319 1.419 . S
C321 C322 1.363 . S
C321 H324 0.929 . S
C322 C321 1.363 . S
C322 C328 1.428 . S
H323 C319 0.930 . S
H324 C321 0.929 . S
S325 N326 1.613 . S
S325 N327 1.610 . S
N326 S325 1.613 . S
N326 C329 1.350 . S
N327 S325 1.610 . S
N327 C328 1.351 . S
C328 C322 1.428 . S
C328 N327 1.351 . S
C328 C329 1.434 . S
C329 C320 1.429 . S
C329 N326 1.350 . S
C329 C328 1.434 . S
C330 C331 1.369 . S
C330 C332 1.419 . S
C330 H334 0.930 . S
C331 C330 1.369 . S
C331 C340 1.429 . S
C332 C330 1.419 . S
C332 C333 1.363 . S
C332 H335 0.929 . S
C333 C332 1.363 . S
C333 C339 1.428 . S
H334 C330 0.930 . S
H335 C332 0.929 . S
S336 N337 1.613 . S
S336 N338 1.610 . S
N337 S336 1.613 . S
N337 C340 1.350 . S
N338 S336 1.610 . S
N338 C339 1.351 . S
C339 C333 1.428 . S
C339 N338 1.351 . S
C339 C340 1.434 . S
C340 C331 1.429 . S
C340 N337 1.350 . S
C340 C339 1.434 . S
C341 C342 1.369 . S
C341 C343 1.419 . S
C341 H345 0.930 . S
C342 C341 1.369 . S
C342 C351 1.429 . S
C343 C341 1.419 . S
C343 C344 1.363 . S
C343 H346 0.929 . S
C344 C343 1.363 . S
C344 C350 1.428 . S
H345 C341 0.930 . S
H346 C343 0.929 . S
S347 N348 1.613 . S
S347 N349 1.610 . S
N348 S347 1.613 . S
N348 C351 1.350 . S
N349 S347 1.610 . S
N349 C350 1.351 . S
C350 C344 1.428 . S
C350 N349 1.351 . S
C350 C351 1.434 . S
C351 C342 1.429 . S
C351 N348 1.350 . S
C351 C350 1.434 . S
C352 C353 1.369 . S
C352 C354 1.419 . S
C352 H356 0.930 . S
C353 C352 1.369 . S
C353 C362 1.429 1_565 S
C354 C352 1.419 . S
C354 C355 1.363 1_565 S
C354 H357 0.929 . S
C355 C354 1.363 1_545 S
C355 C361 1.428 . S
H356 C352 0.930 . S
H357 C354 0.929 . S
S358 N359 1.613 . S
S358 N360 1.610 . S
N359 S358 1.613 . S
N359 C362 1.350 . S
N360 S358 1.610 . S
N360 C361 1.351 . S
C361 C355 1.428 . S
C361 N360 1.351 . S
C361 C362 1.434 . S
C362 C353 1.429 1_545 S
C362 N359 1.350 . S
C362 C361 1.434 . S
C363 C364 1.369 . S
C363 C365 1.419 1_565 S
C363 H367 0.930 . S
C364 C363 1.369 . S
C364 C373 1.429 1_554 S
C365 C363 1.419 1_545 S
C365 C366 1.363 1_554 S
C365 H368 0.929 . S
C366 C365 1.363 1_556 S
C366 C372 1.428 . S
H367 C363 0.930 . S
H368 C365 0.929 . S
S369 N370 1.613 . S
S369 N371 1.610 1_565 S
N370 S369 1.613 . S
N370 C373 1.350 . S
N371 S369 1.610 1_545 S
N371 C372 1.351 . S
C372 C366 1.428 . S
C372 N371 1.351 . S
C372 C373 1.434 1_545 S
C373 C364 1.429 1_556 S
C373 N370 1.350 . S
C373 C372 1.434 1_565 S
C374 C375 1.369 1_455 S
C374 C376 1.419 . S
C374 H378 0.930 . S
C375 C374 1.369 1_655 S
C375 C384 1.429 . S
C376 C374 1.419 . S
C376 C377 1.363 . S
C376 H379 0.929 . S
C377 C376 1.363 . S
C377 C383 1.428 1_455 S
H378 C374 0.930 . S
H379 C376 0.929 . S
S380 N381 1.613 . S
S380 N382 1.610 . S
N381 S380 1.613 . S
N381 C384 1.350 . S
N382 S380 1.610 . S
N382 C383 1.351 . S
C383 C377 1.428 1_655 S
C383 N382 1.351 . S
C383 C384 1.434 . S
C384 C375 1.429 . S
C384 N381 1.350 . S
C384 C383 1.434 . S
C385 C386 1.360 1_654 S
C385 C387 1.425 . S
C385 H389 0.933 . S
C386 C385 1.360 1_456 S
C386 C395 1.429 . S
C387 C385 1.425 . S
C387 C388 1.363 . S
C387 H390 0.929 . S
C388 C387 1.363 . S
C388 C394 1.428 1_654 S
H389 C385 0.933 . S
H390 C387 0.929 . S
S391 N392 1.613 . S
S391 N393 1.610 . S
N392 S391 1.613 . S
N392 C395 1.350 . S
N393 S391 1.610 . S
N393 C394 1.351 . S
C394 C388 1.428 1_456 S
C394 N393 1.351 . S
C394 C395 1.434 . S
C395 C386 1.429 . S
C395 N392 1.350 . S
C395 C394 1.434 . S
C396 C397 1.369 . S
C396 C398 1.419 1_455 S
C396 H400 0.930 . S
C397 C396 1.369 . S
C397 C406 1.429 . S
C398 C396 1.419 1_655 S
C398 C399 1.363 . S
C398 H401 0.929 . S
C399 C398 1.363 . S
C399 C405 1.428 . S
H400 C396 0.930 . S
H401 C398 0.929 . S
S402 N403 1.613 1_655 S
S402 N404 1.610 . S
N403 S402 1.613 1_455 S
N403 C406 1.350 . S
N404 S402 1.610 . S
N404 C405 1.351 . S
C405 C399 1.428 . S
C405 N404 1.351 . S
C405 C406 1.434 1_655 S
C406 C397 1.429 . S
C406 N403 1.350 . S
C406 C405 1.434 1_455 S
C407 C408 1.369 . S
C407 C409 1.419 1_455 S
C407 H411 0.930 . S
C408 C407 1.369 . S
C408 C417 1.429 . S
C409 C407 1.419 1_655 S
C409 C410 1.363 . S
C409 H412 0.929 . S
C410 C409 1.363 . S
C410 C416 1.428 . S
H411 C407 0.930 . S
H412 C409 0.929 . S
S413 N414 1.613 . S
S413 N415 1.610 1_455 S
N414 S413 1.613 . S
N414 C417 1.350 . S
N415 S413 1.610 1_655 S
N415 C416 1.351 . S
C416 C410 1.428 . S
C416 N415 1.351 . S
C416 C417 1.434 1_655 S
C417 C408 1.429 . S
C417 N414 1.350 . S
C417 C416 1.434 1_455 S
C418 C419 1.369 . S
C418 C420 1.419 . S
C418 H422 0.930 . S
C419 C418 1.369 . S
C419 C428 1.429 . S
C420 C418 1.419 . S
C420 C421 1.363 . S
C420 H423 0.929 . S
C421 C420 1.363 . S
C421 C427 1.428 . S
H422 C418 0.930 . S
H423 C420 0.929 . S
S424 N425 1.613 . S
S424 N426 1.610 . S
N425 S424 1.613 . S
N425 C428 1.350 . S
N426 S424 1.610 . S
N426 C427 1.351 . S
C427 C421 1.428 . S
C427 N426 1.351 . S
C427 C428 1.434 . S
C428 C419 1.429 . S
C428 N425 1.350 . S
C428 C427 1.434 . S
C429 C430 1.369 . S
C429 C431 1.419 . S
C429 H433 0.930 . S
C430 C429 1.369 . S
C430 C439 1.429 . S
C431 C429 1.419 . S
C431 C432 1.363 . S
C431 H434 0.929 . S
C432 C431 1.363 . S
C432 C438 1.428 . S
H433 C429 0.930 . S
H434 C431 0.929 . S
S435 N436 1.613 . S
S435 N437 1.610 . S
N436 S435 1.613 . S
N436 C439 1.350 . S
N437 S435 1.610 . S
N437 C438 1.351 . S
C438 C432 1.428 . S
C438 N437 1.351 . S
C438 C439 1.434 . S
C439 C430 1.429 . S
C439 N436 1.350 . S
C439 C438 1.434 . S
C440 C441 1.369 . S
C440 C442 1.419 . S
C440 H444 0.930 . S
C441 C440 1.369 . S
C441 C450 1.429 . S
C442 C440 1.419 . S
C442 C443 1.363 . S
C442 H445 0.929 . S
C443 C442 1.363 . S
C443 C449 1.428 . S
H444 C440 0.930 . S
H445 C442 0.929 . S
S446 N447 1.613 . S
S446 N448 1.610 . S
N447 S446 1.613 . S
N447 C450 1.350 . S
N448 S446 1.610 . S
N448 C449 1.351 . S
C449 C443 1.428 . S
C449 N448 1.351 . S
C449 C450 1.434 . S
C450 C441 1.429 . S
C450 N447 1.350 . S
C450 C449 1.434 . S
C451 C452 1.369 . S
C451 C453 1.419 . S
C451 H455 0.930 . S
C452 C451 1.369 . S
C452 C461 1.429 1_556 S
C453 C451 1.419 . S
C453 C454 1.363 1_556 S
C453 H456 0.929 . S
C454 C453 1.363 1_554 S
C454 C460 1.428 . S
H455 C451 0.930 . S
H456 C453 0.929 . S
S457 N458 1.613 . S
S457 N459 1.610 . S
N458 S457 1.613 . S
N458 C461 1.350 . S
N459 S457 1.610 . S
N459 C460 1.351 . S
C460 C454 1.428 . S
C460 N459 1.351 . S
C460 C461 1.434 . S
C461 C452 1.429 1_554 S
C461 N458 1.350 . S
C461 C460 1.434 . S
C462 C463 1.369 . S
C462 C464 1.419 . S
C462 H466 0.930 . S
C463 C462 1.369 . S
C463 C472 1.429 . S
C464 C462 1.419 . S
C464 C465 1.363 . S
C464 H467 0.929 . S
C465 C464 1.363 . S
C465 C471 1.428 . S
H466 C462 0.930 . S
H467 C464 0.929 . S
S468 N469 1.613 . S
S468 N470 1.610 . S
N469 S468 1.613 . S
N469 C472 1.350 . S
N470 S468 1.610 . S
N470 C471 1.351 . S
C471 C465 1.428 . S
C471 N470 1.351 . S
C471 C472 1.434 . S
C472 C463 1.429 . S
C472 N469 1.350 . S
C472 C471 1.434 . S
C473 C474 1.369 . S
C473 C475 1.419 1_556 S
C473 H477 0.930 . S
C474 C473 1.369 . S
C474 C483 1.429 . S
C475 C473 1.419 1_554 S
C475 C476 1.363 . S
C475 H478 0.929 . S
C476 C475 1.363 . S
C476 C482 1.428 . S
H477 C473 0.930 . S
H478 C475 0.929 . S
S479 N480 1.612 1_554 S
S479 N481 1.615 . S
N480 S479 1.612 1_556 S
N480 C483 1.350 . S
N481 S479 1.615 . S
N481 C482 1.351 . S
C482 C476 1.428 . S
C482 N481 1.351 . S
C482 C483 1.434 1_554 S
C483 C474 1.429 . S
C483 N480 1.350 . S
C483 C482 1.434 1_556 S
C265 C116 1.105 1_545 S
C267 C28 1.103 . S
C276 C61 1.108 . S
C278 C83 1.100 1_545 S
C287 C94 1.102 . S
C289 C50 1.105 1_565 S
C298 C127 1.108 . S
C300 C17 1.100 1_565 S
C309 C160 1.108 . S
C311 C248 1.099 . S
C320 C193 1.109 . S
C322 C215 1.099 . S
C331 C182 1.106 . S
C333 C226 1.103 . S
C342 C259 1.106 . S
C344 C149 1.101 . S
C353 N71 2.094 . S
C355 N5 2.098 . S
C364 N104 2.101 1_554 S
C366 N38 2.102 1_556 S
C375 N137 2.094 . S
C377 N203 2.098 . S
C386 N170 2.101 1_556 S
C388 N236 2.102 1_554 S
C397 N14 1.731 . S
C399 N47 1.728 . S
C408 N113 1.728 . S
C410 N80 1.729 . S
C419 N179 1.737 . S
C421 N146 1.733 . S
C430 N245 1.732 . S
C432 N212 1.729 . S
C441 C206 1.570 . S
C443 C8 1.575 . S
C452 C239 1.570 . S
C454 C41 1.575 . S
C463 C140 1.568 . S
C465 C74 1.576 . S
C474 C107 1.576 . S
C476 C173 1.570 . S
