# Generated by pormake.
# Topology fnt, (5)-cn, num edge types: 1
# Building blocks:
#     Node 0, Type 0, BuildingBlock: BEQFEK_clean_sbu_0, # of connection points: 5
#     Node 1, Type 0, BuildingBlock: BEQFEK_clean_sbu_0, # of connection points: 5
#     Node 2, Type 0, BuildingBlock: BEQFEK_clean_sbu_0, # of connection points: 5
#     Node 3, Type 0, BuildingBlock: BEQFEK_clean_sbu_0, # of connection points: 5
#     Node 4, Type 0, BuildingBlock: BEQFEK_clean_sbu_0, # of connection points: 5
#     Node 5, Type 0, BuildingBlock: BEQFEK_clean_sbu_0, # of connection points: 5
#     Edge 6, Type (0, 0), BuildingBlock: EZIPEK_clean_linker_0, # of connection points: 2
#     Edge 7, Type (0, 0), BuildingBlock: EZIPEK_clean_linker_0, # of connection points: 2
#     Edge 8, Type (0, 0), BuildingBlock: EZIPEK_clean_linker_0, # of connection points: 2
#     Edge 9, Type (0, 0), BuildingBlock: EZIPEK_clean_linker_0, # of connection points: 2
#     Edge 10, Type (0, 0), BuildingBlock: EZIPEK_clean_linker_0, # of connection points: 2
#     Edge 11, Type (0, 0), BuildingBlock: EZIPEK_clean_linker_0, # of connection points: 2
#     Edge 12, Type (0, 0), BuildingBlock: EZIPEK_clean_linker_0, # of connection points: 2
#     Edge 13, Type (0, 0), BuildingBlock: EZIPEK_clean_linker_0, # of connection points: 2
#     Edge 14, Type (0, 0), BuildingBlock: EZIPEK_clean_linker_0, # of connection points: 2
#     Edge 15, Type (0, 0), BuildingBlock: EZIPEK_clean_linker_0, # of connection points: 2
#     Edge 16, Type (0, 0), BuildingBlock: EZIPEK_clean_linker_0, # of connection points: 2
#     Edge 17, Type (0, 0), BuildingBlock: EZIPEK_clean_linker_0, # of connection points: 2
#     Edge 18, Type (0, 0), BuildingBlock: EZIPEK_clean_linker_0, # of connection points: 2
#     Edge 19, Type (0, 0), BuildingBlock: EZIPEK_clean_linker_0, # of connection points: 2
#     Edge 20, Type (0, 0), BuildingBlock: EZIPEK_clean_linker_0, # of connection points: 2
# Relax obj value: 0.204
# Max RMSD: 0.166
# Mean RMSD: 0.166
data_MOF--net-fnt--node1-BEQFEK_clean_sbu_0--edge1-EZIPEK_clean_linker_0
_symmetry_space_group_name_H-M    P1
_symmetry_Int_Tables_number       1
_symmetry_cell_setting            triclinic
loop_
_symmetry_equiv_pos_as_xyz
'x, y, z'
_cell_length_a     19.604775
_cell_length_b     19.638563
_cell_length_c     42.183301
_cell_angle_alpha  89.794344
_cell_angle_beta   89.997456
_cell_angle_gamma 120.25309
loop_
_atom_site_label
_atom_site_type_symbol
_atom_site_fract_x
_atom_site_fract_y
_atom_site_fract_z
_atom_type_partial_charge
Co0 Co 0.14796 0.37249 0.07968 0.0
Co1 Co 0.1847 0.35914 1.00755 0.0
C2 C 0.31214 0.43076 0.05699 0.0
O3 O 0.26478 0.41984 0.07971 0.0
O4 O 0.28864 0.41294 0.02851 0.0
C5 C 0.11541 0.33614 0.14803 0.0
O6 O 0.15925 0.30313 0.14615 0.0
C7 C 0.25221 0.31392 0.95459 0.0
C8 C 0.17585 0.3065 0.91466 0.0
C9 C 0.2383 0.29585 0.92267 0.0
N10 N 0.19978 0.33379 0.96517 0.0
N11 N 0.15486 0.32995 0.94106 0.0
C12 C 0.31252 0.30987 0.97494 0.0
H13 H 0.28741 0.28688 0.99878 0.0
H14 H 0.33326 0.27217 0.964 0.0
H15 H 0.36381 0.37023 0.97788 0.0
C16 C 0.05376 0.19682 0.07185 0.0
N17 N 0.10193 0.2706 0.06091 0.0
N18 N 0.11884 0.26625 0.03089 0.0
C19 C 0.08302 0.19012 1.02225 0.0
C20 C 0.04167 0.14463 0.04786 0.0
C21 C 0.01945 0.17492 0.10442 0.0
H22 H 0.06324 0.17335 0.12053 0.0
H23 H 0.96579 0.11547 0.10465 0.0
H24 H 0.00355 0.21809 0.11298 0.0
O25 O 0.10754 0.43073 0.05555 0.0
O26 O 0.12948 0.42014 1.00458 0.0
H27 H 0.07387 0.19052 0.97174 0.0
H28 H 0.04871 0.09598 0.98829 0.0
C29 C 0.08903 0.16057 0.99038 0.0
H30 H 0.15037 0.17362 0.98668 0.0
H31 H 0.10872 0.34176 0.94278 0.0
O32 O 0.10861 0.37024 0.12366 0.0
C33 C 0.1002 0.44222 1.02639 0.0
Co34 Co 0.75032 0.15925 0.41698 0.0
Co35 Co 0.80486 0.19023 0.3451 0.0
C36 C 0.86079 0.3213 0.39252 0.0
O37 O 0.82219 0.27592 0.4156 0.0
O38 O 0.85614 0.29565 0.36446 0.0
C39 C 0.74804 0.13041 0.48614 0.0
O40 O 0.82513 0.1768 0.48547 0.0
C41 C 0.91046 0.25456 0.28892 0.0
C42 C 0.84287 0.16122 0.25378 0.0
C43 C 0.91217 0.23236 0.25784 0.0
N44 N 0.8437 0.19811 0.30276 0.0
N45 N 0.80353 0.14286 0.2815 0.0
C46 C 0.97 0.32861 0.30504 0.0
H47 H 0.94241 0.36434 0.31096 0.0
H48 H -0.01163 0.31342 0.3276 0.0
H49 H 0.02246 0.36409 0.2898 0.0
C50 C 0.8315 0.06464 0.41288 0.0
N51 N 0.80612 0.11111 0.40022 0.0
N52 N 0.82977 0.12611 0.37037 0.0
C53 C 0.87183 0.09117 0.3635 0.0
C54 C 0.87404 0.05158 0.39013 0.0
C55 C 0.81783 0.03432 0.44616 0.0
H56 H 0.86097 0.08115 0.46196 0.0
H57 H 0.82632 0.98278 0.44847 0.0
H58 H 0.75716 0.0166 0.45363 0.0
O59 O 0.65261 0.11896 0.39209 0.0
O60 O 0.68878 0.13696 0.34146 0.0
H61 H 0.86676 0.07151 0.31359 0.0
H62 H 0.94602 0.06685 0.33297 0.0
C63 C 0.91181 0.09781 0.3325 0.0
H64 H 0.95222 0.16085 0.32683 0.0
H65 H 0.74921 0.09229 0.286 0.0
O66 O 0.70948 0.12148 0.46087 0.0
C67 C 0.6357 0.1102 0.36278 0.0
Co68 Co 0.6002 0.78236 0.75678 0.0
Co69 Co 0.60411 0.82198 0.68336 0.0
C70 C 0.52412 0.86919 0.73208 0.0
O71 O 0.53974 0.83794 0.75539 0.0
O72 O 0.54277 0.8639 0.70369 0.0
C73 C 0.58545 0.7661 0.82659 0.0
O74 O 0.52984 0.7846 0.82497 0.0
C75 C 0.62956 0.92217 0.62672 0.0
C76 C 0.65734 0.85909 0.59033 0.0
C77 C 0.65145 0.92568 0.59515 0.0
N78 N 0.62471 0.85738 0.64007 0.0
N79 N 0.64067 0.8197 0.61805 0.0
C80 C 0.61261 0.97853 0.64392 0.0
H81 H 0.5493 0.94779 0.65073 0.0
H82 H 0.64782 -0.00207 0.66607 0.0
H83 H 0.62589 0.03047 0.62902 0.0
C84 C 0.77131 0.88072 0.74752 0.0
N85 N 0.69724 0.84642 0.73636 0.0
N86 N 0.69936 0.86251 0.70586 0.0
C87 C 0.775 0.90765 0.69679 0.0
C88 C 0.82215 0.92039 0.72286 0.0
C89 C 0.79284 0.87584 0.78107 0.0
H90 H 0.76593 0.9013 0.79657 0.0
H91 H 0.85777 0.90841 0.78459 0.0
H92 H 0.76853 0.81317 0.78786 0.0
O93 O 0.55014 0.67916 0.73538 0.0
O94 O 0.55397 0.70578 0.68379 0.0
H95 H 0.78055 0.88637 0.64751 0.0
H96 H 0.86734 0.97277 0.66218 0.0
C97 C 0.80202 0.93711 0.66385 0.0
H98 H 0.77673 0.97386 0.65647 0.0
H99 H 0.64139 0.76761 0.62209 0.0
O100 O 0.62024 0.76371 0.80153 0.0
C101 C 0.53776 0.65724 0.70656 0.0
Co102 Co 0.80018 0.5826 0.08171 0.0
Co103 Co 0.76336 0.59149 1.00937 0.0
C104 C 0.63602 0.51307 0.05952 0.0
O105 O 0.68316 0.52617 0.08251 0.0
O106 O 0.66031 0.53274 0.03117 0.0
C107 C 0.83162 0.61544 0.15059 0.0
O108 O 0.77685 0.63527 0.15077 0.0
C109 C 0.69632 0.64409 0.95918 0.0
C110 C 0.74478 0.62147 0.91578 0.0
C111 C 0.69751 0.6505 0.9264 0.0
N112 N 0.74095 0.61273 0.96756 0.0
N113 N 0.76923 0.59879 0.94148 0.0
C114 C 0.65476 0.66865 0.98223 0.0
H115 H 0.68454 0.68223 1.00563 0.0
H116 H 0.65231 0.72041 0.97303 0.0
H117 H 0.59337 0.61937 0.9856 0.0
C118 C 0.87683 0.75766 0.0737 0.0
N119 N 0.83681 0.6833 0.06263 0.0
N120 N 0.82576 0.68603 0.03183 0.0
C121 C 0.86081 0.76175 1.0224 0.0
C122 C 0.8925 0.80861 0.04863 0.0
C123 C 0.89772 0.78067 0.10756 0.0
H124 H 0.84306 0.76411 0.12107 0.0
H125 H 0.93807 0.84513 0.11006 0.0
H126 H 0.92668 0.74979 0.11763 0.0
O127 O 0.84828 0.53153 0.05724 0.0
O128 O 0.82476 0.53727 1.00606 0.0
H129 H 0.92052 0.84894 0.98582 0.0
H130 H 0.81506 0.79501 0.98306 0.0
C131 C 0.86732 0.78976 0.98891 0.0
H132 H 0.8709 0.748 0.97237 0.0
H133 H 0.80608 0.57475 0.94124 0.0
O134 O 0.84465 0.58979 0.12509 0.0
C135 C 0.85666 0.51928 0.0283 0.0
Co136 Co 0.19896 0.81108 0.41851 0.0
Co137 Co 0.14415 0.77699 0.34681 0.0
C138 C 0.10039 0.64698 0.39405 0.0
O139 O 0.13577 0.69356 0.4171 0.0
O140 O 0.10289 0.6718 0.36592 0.0
C141 C 0.20264 0.84448 0.48753 0.0
O142 O 0.12552 0.79838 0.48783 0.0
C143 C 0.04258 0.706 0.29008 0.0
C144 C 0.09837 0.80626 0.25652 0.0
C145 C 0.03655 0.72948 0.25958 0.0
N146 N 0.10429 0.76699 0.30455 0.0
N147 N 0.13763 0.82632 0.2842 0.0
C148 C -0.00799 0.62687 0.30505 0.0
H149 H 0.02885 0.60009 0.31042 0.0
H150 H 0.96814 0.63404 0.32786 0.0
H151 H 0.94278 0.58684 0.28928 0.0
C152 C 0.10545 0.89392 0.41443 0.0
N153 N 0.13504 0.85088 0.40203 0.0
N154 N 0.1096 0.83246 0.37254 0.0
C155 C 0.06133 0.86062 0.36587 0.0
C156 C 0.05772 0.90025 0.39205 0.0
C157 C 0.12289 0.9304 0.44659 0.0
H158 H 0.08133 0.88687 0.46398 0.0
H159 H 0.11451 0.98219 0.44723 0.0
H160 H 0.18432 0.94958 0.45329 0.0
O161 O 0.29676 0.85925 0.39341 0.0
O162 O 0.26042 0.84151 0.34292 0.0
H163 H 0.0623 0.88411 0.31639 0.0
H164 H 0.97539 0.86989 0.3366 0.0
C165 C 0.01887 0.84963 0.33517 0.0
H166 H -0.01232 0.78647 0.32864 0.0
H167 H 0.18691 0.88095 0.28935 0.0
O168 O 0.23988 0.85063 0.46212 0.0
C169 C 0.3135 0.87054 0.3641 0.0
Co170 Co 0.38237 0.21099 0.75287 0.0
Co171 Co 0.37432 0.1693 0.67974 0.0
C172 C 0.44166 0.10881 0.72901 0.0
O173 O 0.4299 0.14313 0.75212 0.0
O174 O 0.42545 0.11686 0.70053 0.0
C175 C 0.36542 0.19657 0.8223 0.0
O176 O 0.3839 0.14101 0.82082 0.0
C177 C 0.33945 0.06579 0.62378 0.0
C178 C 0.31697 0.13256 0.58709 0.0
C179 C 0.31674 0.06276 0.59236 0.0
N180 N 0.35061 0.13343 0.63663 0.0
N181 N 0.33787 0.17332 0.61441 0.0
C182 C 0.35072 0.00584 0.64133 0.0
H183 H 0.41311 0.03311 0.64907 0.0
H184 H 0.31311 -0.01311 0.66289 0.0
H185 H 0.33605 0.95387 0.62638 0.0
C186 C 0.21117 0.13183 0.74357 0.0
N187 N 0.28434 0.1578 0.73239 0.0
N188 N 0.28029 0.13974 0.7021 0.0
C189 C 0.2041 0.10092 0.69326 0.0
C190 C 0.15875 0.09497 0.71922 0.0
C191 C 0.19152 0.1396 0.77709 0.0
H192 H 0.22354 0.20263 0.78396 0.0
H193 H 0.21115 0.1074 0.79268 0.0
H194 H 0.12717 0.11525 0.78046 0.0
O195 O 0.44341 0.31344 0.73142 0.0
O196 O 0.43662 0.28626 0.67983 0.0
H197 H 0.19849 0.11666 0.64343 0.0
H198 H 0.1093 0.03584 0.65986 0.0
C199 C 0.17475 0.06799 0.66102 0.0
H200 H 0.19608 0.02717 0.65493 0.0
H201 H 0.34195 0.22778 0.61808 0.0
O202 O 0.36506 0.23265 0.79727 0.0
C203 C 0.45738 0.33528 0.70256 0.0
C204 C 0.45324 0.52894 0.07008 0.0
C205 C 0.39376 0.45018 0.06411 0.0
C206 C 0.49295 0.40936 0.06045 0.0
C207 C 0.55265 0.48825 0.06598 0.0
N208 N 0.59102 0.6206 0.08209 0.0
N209 N 0.35315 0.31218 0.06158 0.0
C210 C 0.53304 0.54715 0.07299 0.0
C211 C 0.41253 0.38927 0.06186 0.0
N212 N 0.43375 0.58663 0.07141 0.0
N213 N 0.51341 0.35442 0.05275 0.0
H214 H 0.29353 0.29542 0.06282 0.0
H215 H 0.36268 0.26468 0.06285 0.0
H216 H 0.57176 0.36664 0.05303 0.0
H217 H 0.47342 0.29822 0.04454 0.0
H218 H 0.47495 0.64663 0.07198 0.0
H219 H 0.37551 0.57452 0.07025 0.0
H220 H 0.58009 0.66406 0.09035 0.0
H221 H 0.65035 0.63661 0.08369 0.0
C222 C 0.00332 0.4241 0.39447 0.0
C223 C 0.92326 0.40345 0.39888 0.0
C224 C 0.965 0.54144 0.40961 0.0
C225 C 0.0432 0.56305 0.40042 0.0
N226 N 0.13755 0.52715 0.38284 0.0
N227 N 0.82599 0.44067 0.40975 0.0
C228 C 0.06276 0.5049 0.39274 0.0
C229 C 0.90357 0.46146 0.40674 0.0
N230 N 0.02246 0.36617 0.39267 0.0
N231 N 0.94954 0.59767 0.4207 0.0
H232 H 0.77985 0.38242 0.40833 0.0
H233 H 0.80672 0.4811 0.41176 0.0
H234 H -0.0075 0.65716 0.42226 0.0
H235 H 0.8958 0.58494 0.43066 0.0
H236 H 0.08026 0.37722 0.39238 0.0
H237 H -0.01952 0.30628 0.39434 0.0
H238 H 0.15324 0.48835 0.37306 0.0
H239 H 0.18335 0.58576 0.38285 0.0
C240 C 0.53745 0.06552 0.74426 0.0
C241 C 0.4601 0.04622 0.73561 0.0
C242 C 0.4204 0.90703 0.72989 0.0
C243 C 0.49793 0.92619 0.73817 0.0
N244 N 0.62681 0.01918 0.75891 0.0
N245 N 0.32287 0.94825 0.72827 0.0
C246 C 0.55517 0.00401 0.7475 0.0
C247 C 0.39987 0.96666 0.73097 0.0
N248 N 0.59467 0.14285 0.7477 0.0
N249 N 0.36734 0.83243 0.72005 0.0
H250 H 0.3056 -0.00948 0.72928 0.0
H251 H 0.27536 0.89075 0.72777 0.0
H252 H 0.37941 0.7864 0.72065 0.0
H253 H 0.31312 0.81703 0.70983 0.0
H254 H 0.65445 0.16206 0.75027 0.0
H255 H 0.58291 0.189 0.74615 0.0
H256 H 0.66788 0.07249 0.76908 0.0
H257 H 0.64358 0.97663 0.76038 0.0
C258 C 0.44448 0.51899 0.6888 0.0
C259 C 0.52029 0.57651 0.69943 0.0
C260 C 0.56126 0.47745 0.70323 0.0
C261 C 0.48312 0.41856 0.69571 0.0
N262 N 0.34889 0.3802 0.68174 0.0
N263 N 0.65688 0.61695 0.70885 0.0
C264 C 0.42471 0.43865 0.68782 0.0
C265 C 0.58066 0.5576 0.70424 0.0
N266 N 0.39181 0.54155 0.67965 0.0
N267 N 0.61564 0.45579 0.71065 0.0
H268 H 0.6733 0.67642 0.70923 0.0
H269 H 0.70519 0.60868 0.70998 0.0
H270 H 0.60393 0.39798 0.70831 0.0
H271 H 0.67119 0.4937 0.72001 0.0
H272 H 0.33822 0.50448 0.66863 0.0
H273 H 0.40408 0.59967 0.68111 0.0
H274 H 0.30121 0.38929 0.6797 0.0
H275 H 0.33202 0.32082 0.68009 0.0
C276 C 0.90232 0.42645 1.01111 0.0
C277 C 0.9204 0.50265 1.02062 0.0
C278 C 0.06137 0.54519 1.02438 0.0
C279 C 0.04227 0.4667 1.0183 0.0
N280 N 0.94631 0.33148 1.00586 0.0
N281 N 0.01654 0.63992 0.02842 0.0
C282 C 0.96344 0.40734 1.01085 0.0
C283 C 3e-05 0.56383 1.02477 0.0
N284 N 0.82678 0.37283 1.00236 0.0
N285 N 0.13786 0.60069 0.03106 0.0
H286 H 0.973 0.65562 0.02833 0.0
H287 H 0.07322 0.68864 0.02929 0.0
H288 H 0.18424 0.58923 0.02917 0.0
H289 H 0.15576 0.6571 0.03925 0.0
H290 H 0.81008 0.31832 0.99235 0.0
H291 H 0.78095 0.38526 1.00303 0.0
H292 H 0.88937 0.28343 1.00412 0.0
H293 H -0.01072 0.31518 1.00473 0.0
C294 C 0.4143 0.01347 0.36107 0.0
C295 C 0.39366 0.93395 0.35549 0.0
C296 C 0.53213 0.97422 0.34693 0.0
C297 C 0.55323 0.05325 0.35415 0.0
N298 N 0.51655 0.15197 0.36051 0.0
N299 N 0.42752 0.84064 0.33526 0.0
C300 C 0.49469 0.0741 0.35867 0.0
C301 C 0.45095 0.91512 0.34558 0.0
N302 N 0.35712 0.03028 0.36973 0.0
N303 N 0.58963 0.95473 0.34354 0.0
H304 H 0.3683 0.79624 0.33462 0.0
H305 H 0.46549 0.82457 0.32487 0.0
H306 H 0.6498 -0.00386 0.34375 0.0
H307 H 0.57818 0.897 0.34224 0.0
H308 H 0.36883 0.08505 0.37791 0.0
H309 H 0.29706 -0.01186 0.36983 0.0
H310 H 0.47685 0.17239 0.36129 0.0
H311 H 0.57536 0.19704 0.35861 0.0
C312 C 0.91986 0.01293 0.04566 0.0
C313 C 0.00247 0.05863 0.05019 0.0
C314 C 0.01347 0.9405 0.05248 0.0
C315 C 0.93032 0.89464 0.04984 0.0
N316 N 0.8022 0.88408 0.04934 0.0
N317 N 0.12703 0.06863 0.0633 0.0
C318 C 0.8827 0.9299 0.048 0.0
C319 C 0.04912 0.02322 0.05527 0.0
N320 N 0.87759 0.04888 0.03826 0.0
N321 N 0.05828 0.90513 0.05123 0.0
H322 H 0.15554 0.12986 0.06521 0.0
H323 H 0.16194 0.04543 0.07057 0.0
H324 H 0.03396 0.84425 0.04953 0.0
H325 H 0.1196 0.93621 0.04946 0.0
H326 H 0.81882 0.0184 0.03108 0.0
H327 H 0.90276 0.11 0.03721 0.0
H328 H 0.76462 0.90687 0.05144 0.0
H329 H 0.77276 0.82272 0.05092 0.0
C330 C 0.92838 0.89304 0.39876 0.0
C331 C 0.01139 0.93963 0.39535 0.0
C332 C 0.00401 0.05974 0.39577 0.0
C333 C 0.92067 0.01272 0.39442 0.0
N334 N 0.80217 0.88522 0.39149 0.0
N335 N 0.12898 0.06605 0.38702 0.0
C336 C 0.88222 0.9294 0.39528 0.0
C337 C 0.04969 0.02279 0.39306 0.0
N338 N 0.89408 0.81443 0.40562 0.0
N339 N 0.03919 0.1394 0.40006 0.0
H340 H 0.16482 0.04106 0.38519 0.0
H341 H 0.15825 0.12593 0.38149 0.0
H342 H 0.00722 0.16848 0.40231 0.0
H343 H 0.09935 0.17557 0.40431 0.0
H344 H 0.83461 0.77905 0.41142 0.0
H345 H 0.92651 0.78591 0.40828 0.0
H346 H 0.77204 0.82438 0.38831 0.0
H347 H 0.76618 0.90996 0.38924 0.0
C348 C 0.03052 0.09153 0.72015 0.0
C349 C 0.07268 0.05061 0.72147 0.0
C350 C 0.95044 0.92401 0.72314 0.0
C351 C 0.90836 0.96509 0.72375 0.0
N352 N 0.90555 0.08608 0.72821 0.0
N353 N 0.07625 0.93078 0.72988 0.0
C354 C 0.94758 0.04847 0.72388 0.0
C355 C 0.0337 0.96757 0.72469 0.0
N356 N 0.06962 0.17096 0.71442 0.0
N357 N 0.91092 0.84377 0.71996 0.0
H358 H 0.1378 0.96085 0.7308 0.0
H359 H 0.05065 0.87137 0.73583 0.0
H360 H 0.84948 0.80948 0.71918 0.0
H361 H 0.93891 0.81158 0.71571 0.0
H362 H 0.04122 0.20261 0.70969 0.0
H363 H 0.13088 0.20471 0.7121 0.0
H364 H 0.93164 0.14655 0.73175 0.0
H365 H 0.84428 0.05604 0.73082 0.0
C366 C 0.2411 0.18605 0.89363 0.0
C367 C 0.27828 0.26741 0.90103 0.0
C368 C 0.38518 0.29513 0.86371 0.0
C369 C 0.34159 0.21651 0.85267 0.0
N370 N 0.2278 0.08561 0.85681 0.0
N371 N 0.38424 0.40061 0.8929 0.0
C372 C 0.27013 0.16104 0.86792 0.0
C373 C 0.35055 0.32218 0.88634 0.0
N374 N 0.1784 0.13273 0.91143 0.0
N375 N 0.46042 0.34332 0.85288 0.0
H376 H 0.36162 0.42253 0.90985 0.0
H377 H 0.43156 0.44422 0.88011 0.0
H378 H 0.4875 0.32447 0.83662 0.0
H379 H 0.49862 0.39887 0.86216 0.0
H380 H 0.15374 0.07196 0.90966 0.0
H381 H 0.15477 0.1494 0.92994 0.0
H382 H 0.17033 0.04559 0.86392 0.0
H383 H 0.24833 0.06367 0.83907 0.0
C384 C 0.09941 0.32152 0.20728 0.0
C385 C 0.06786 0.32573 0.17742 0.0
C386 C 0.94576 0.2981 0.20491 0.0
C387 C 0.97082 0.27547 0.23235 0.0
N388 N 0.07076 0.25936 0.25899 0.0
N389 N 0.95225 0.30848 0.14816 0.0
C390 C 0.04777 0.28607 0.23354 0.0
C391 C -0.01092 0.31273 0.17624 0.0
N392 N 0.17902 0.35369 0.21091 0.0
N393 N 0.88044 0.30603 0.20626 0.0
H394 H 0.97754 0.31698 0.12588 0.0
H395 H 0.89207 0.28891 0.14675 0.0
H396 H 0.84815 0.29685 0.22709 0.0
H397 H 0.864 0.33029 0.18784 0.0
H398 H 0.20534 0.35758 0.23281 0.0
H399 H 0.21924 0.38531 0.19289 0.0
H400 H 0.12326 0.25808 0.25936 0.0
H401 H 0.03466 0.23275 0.27865 0.0
C402 C 0.74207 0.11448 0.54535 0.0
C403 C 0.7087 0.08226 0.51531 0.0
C404 C 0.6168 0.95804 0.54251 0.0
C405 C 0.66395 0.98446 0.57007 0.0
N406 N 0.77718 0.08837 0.597 0.0
N407 N 0.61312 0.96549 0.48578 0.0
C408 C 0.72769 0.06318 0.57152 0.0
C409 C 0.64471 0.00231 0.51393 0.0
N410 N 0.78589 0.19429 0.54914 0.0
N411 N 0.54479 0.89049 0.54369 0.0
H412 H 0.62813 -0.00831 0.46358 0.0
H413 H 0.57473 0.90485 0.4842 0.0
H414 H 0.52232 0.85755 0.56448 0.0
H415 H 0.50406 0.87251 0.52523 0.0
H416 H 0.80629 0.2208 0.57115 0.0
H417 H 0.79304 0.23376 0.53105 0.0
H418 H 0.82949 0.14263 0.59748 0.0
H419 H 0.76932 0.05276 0.61658 0.0
C420 C 0.55466 0.67235 0.8724 0.0
C421 C 0.60696 0.74506 0.85733 0.0
C422 C 0.7147 0.76291 0.89216 0.0
C423 C 0.66374 0.68805 0.90604 0.0
N424 N 0.53116 0.58229 0.91602 0.0
N425 N 0.72611 0.87089 0.8599 0.0
C426 C 0.58218 0.64655 0.89848 0.0
C427 C 0.68392 0.79393 0.86942 0.0
N428 N 0.48037 0.62567 0.86056 0.0
N429 N 0.79273 0.80372 0.90035 0.0
H430 H 0.70247 0.89556 0.84461 0.0
H431 H 0.78031 0.91199 0.86953 0.0
H432 H 0.81617 0.7856 0.91851 0.0
H433 H 0.83492 0.85366 0.88829 0.0
H434 H 0.44213 0.56843 0.86835 0.0
H435 H 0.45789 0.64272 0.8417 0.0
H436 H 0.4702 0.55798 0.91511 0.0
H437 H 0.54968 0.55767 0.93354 0.0
C438 C 0.96545 0.65822 0.17676 0.0
C439 C 0.88256 0.63019 0.17924 0.0
C440 C 0.89892 0.65928 0.23627 0.0
C441 C -0.01974 0.68415 0.23379 0.0
N442 N 0.08331 0.68042 0.20432 0.0
N443 N 0.76901 0.5769 0.21405 0.0
C444 C 0.01078 0.67444 0.20489 0.0
C445 C 0.84879 0.62214 0.20988 0.0
N446 N 0.00332 0.6751 0.1481 0.0
N447 N 0.86974 0.67418 0.2631 0.0
H448 H 0.73086 0.54403 0.19576 0.0
H449 H 0.74229 0.56422 0.23633 0.0
H450 H 0.90448 0.70212 0.28284 0.0
H451 H 0.81248 0.66458 0.26463 0.0
H452 H 0.06466 0.70473 0.1461 0.0
H453 H 0.97646 0.66741 0.12621 0.0
H454 H 0.10524 0.66607 0.18451 0.0
H455 H 0.11736 0.69088 0.2247 0.0
C456 C 0.23158 0.92385 0.57128 0.0
C457 C 0.29754 0.001 0.56795 0.0
C458 C 0.30839 0.9757 0.51191 0.0
C459 C 0.24382 0.89651 0.51544 0.0
N460 N 0.16763 0.78984 0.55217 0.0
N461 N 0.41477 0.0884 0.53847 0.0
C462 C 0.21296 0.86883 0.54633 0.0
C463 C 0.34128 0.02273 0.53938 0.0
N464 N 0.18405 0.90367 0.59738 0.0
N465 N 0.33574 0.00942 0.48278 0.0
H466 H 0.44113 0.12324 0.55839 0.0
H467 H 0.45266 0.10267 0.51909 0.0
H468 H 0.3147 0.9818 0.46118 0.0
H469 H 0.37572 0.06945 0.47989 0.0
H470 H 0.13065 0.85066 0.59919 0.0
H471 H 0.19436 0.9424 0.61594 0.0
H472 H 0.14895 0.76672 0.57487 0.0
H473 H 0.15748 0.74747 0.53509 0.0
loop_
_geom_bond_atom_site_label_1
_geom_bond_atom_site_label_2
_geom_bond_distance
_geom_bond_site_symmetry_2
_ccdc_geom_bond_type
Co0 O3 1.970 . S
Co0 N17 1.989 . S
Co0 O25 1.967 . S
Co0 O32 1.920 . S
Co1 O4 1.966 1_556 S
Co1 N10 2.022 . S
Co1 N18 1.993 1_556 S
Co1 O26 1.941 . S
C2 O3 1.258 . S
C2 O4 1.263 . S
O3 Co0 1.970 . S
O3 C2 1.258 . S
O4 Co1 1.966 1_554 S
O4 C2 1.263 . S
C5 O6 1.235 . S
C5 O32 1.289 . S
O6 C5 1.235 . S
C7 C9 1.400 . S
C7 N10 1.351 . S
C7 C12 1.501 . S
C8 C9 1.387 . S
C8 N11 1.341 . S
C9 C7 1.400 . S
C9 C8 1.387 . S
N10 Co1 2.022 . S
N10 C7 1.351 . S
N10 N11 1.365 . S
N11 C8 1.341 . S
N11 N10 1.365 . S
N11 H31 0.862 . S
C12 C7 1.501 . S
C12 H13 0.961 . S
C12 H14 0.961 . S
C12 H15 0.960 . S
H13 C12 0.961 . S
H14 C12 0.961 . S
H15 C12 0.960 . S
C16 N17 1.342 . S
C16 C20 1.401 . S
C16 C21 1.499 . S
N17 Co0 1.989 . S
N17 C16 1.342 . S
N17 N18 1.388 . S
N18 Co1 1.993 1_554 S
N18 N17 1.388 . S
N18 C19 1.346 1_554 S
C19 N18 1.346 1_556 S
C19 C20 1.396 1_556 S
C19 C29 1.510 . S
C20 C16 1.401 . S
C20 C19 1.396 1_554 S
C21 C16 1.499 . S
C21 H22 0.959 . S
C21 H23 0.960 . S
C21 H24 0.961 1_455 S
H22 C21 0.959 . S
H23 C21 0.960 . S
H24 C21 0.961 1_655 S
O25 Co0 1.967 . S
O25 C33 1.258 . S
O26 Co1 1.941 . S
O26 C33 1.266 1_556 S
H27 C29 0.959 . S
H28 C29 0.961 . S
C29 C19 1.510 . S
C29 H27 0.959 . S
C29 H28 0.961 . S
C29 H30 0.960 . S
H30 C29 0.960 . S
H31 N11 0.862 . S
O32 Co0 1.920 . S
O32 C5 1.289 . S
C33 O25 1.258 . S
C33 O26 1.266 1_554 S
Co34 O37 1.970 . S
Co34 N51 1.989 . S
Co34 O59 1.967 . S
Co34 O66 1.920 . S
Co35 O38 1.966 . S
Co35 N44 2.022 . S
Co35 N52 1.993 . S
Co35 O60 1.941 . S
C36 O37 1.258 . S
C36 O38 1.263 . S
O37 Co34 1.970 . S
O37 C36 1.258 . S
O38 Co35 1.966 . S
O38 C36 1.263 . S
C39 O40 1.235 . S
C39 O66 1.289 . S
O40 C39 1.235 . S
C41 C43 1.400 . S
C41 N44 1.351 . S
C41 C46 1.501 . S
C42 C43 1.387 . S
C42 N45 1.341 . S
C43 C41 1.400 . S
C43 C42 1.387 . S
N44 Co35 2.022 . S
N44 C41 1.351 . S
N44 N45 1.365 . S
N45 C42 1.341 . S
N45 N44 1.365 . S
N45 H65 0.862 . S
C46 C41 1.501 . S
C46 H47 0.961 . S
C46 H48 0.961 1_655 S
C46 H49 0.960 . S
H47 C46 0.961 . S
H48 C46 0.961 1_455 S
H49 C46 0.960 . S
C50 N51 1.342 . S
C50 C54 1.401 . S
C50 C55 1.499 . S
N51 Co34 1.989 . S
N51 C50 1.342 . S
N51 N52 1.388 . S
N52 Co35 1.993 . S
N52 N51 1.388 . S
N52 C53 1.346 . S
C53 N52 1.346 . S
C53 C54 1.396 . S
C53 C63 1.510 . S
C54 C50 1.401 . S
C54 C53 1.396 . S
C55 C50 1.499 . S
C55 H56 0.959 . S
C55 H57 0.960 . S
C55 H58 0.961 1_545 S
H56 C55 0.959 . S
H57 C55 0.960 . S
H58 C55 0.961 1_565 S
O59 Co34 1.967 . S
O59 C67 1.258 . S
O60 Co35 1.941 . S
O60 C67 1.266 . S
H61 C63 0.959 . S
H62 C63 0.961 1_455 S
C63 C53 1.510 . S
C63 H61 0.959 . S
C63 H62 0.961 1_655 S
C63 H64 0.960 . S
H64 C63 0.960 . S
H65 N45 0.862 . S
O66 Co34 1.920 . S
O66 C39 1.289 . S
C67 O59 1.258 . S
C67 O60 1.266 . S
Co68 O71 1.970 . S
Co68 N85 1.989 . S
Co68 O93 1.967 . S
Co68 O100 1.920 . S
Co69 O72 1.966 . S
Co69 N78 2.022 . S
Co69 N86 1.993 . S
Co69 O94 1.941 . S
C70 O71 1.258 . S
C70 O72 1.263 . S
O71 Co68 1.970 . S
O71 C70 1.258 . S
O72 Co69 1.966 . S
O72 C70 1.263 . S
C73 O74 1.235 . S
C73 O100 1.289 . S
O74 C73 1.235 . S
C75 C77 1.400 . S
C75 N78 1.351 . S
C75 C80 1.501 . S
C76 C77 1.387 . S
C76 N79 1.341 . S
C77 C75 1.400 . S
C77 C76 1.387 . S
N78 Co69 2.022 . S
N78 C75 1.351 . S
N78 N79 1.365 . S
N79 C76 1.341 . S
N79 N78 1.365 . S
N79 H99 0.862 . S
C80 C75 1.501 . S
C80 H81 0.961 . S
C80 H82 0.961 1_565 S
C80 H83 0.960 . S
H81 C80 0.961 . S
H82 C80 0.961 1_545 S
H83 C80 0.960 . S
C84 N85 1.342 . S
C84 C88 1.401 . S
C84 C89 1.499 . S
N85 Co68 1.989 . S
N85 C84 1.342 . S
N85 N86 1.388 . S
N86 Co69 1.993 . S
N86 N85 1.388 . S
N86 C87 1.346 . S
C87 N86 1.346 . S
C87 C88 1.396 . S
C87 C97 1.510 . S
C88 C84 1.401 . S
C88 C87 1.396 . S
C89 C84 1.499 . S
C89 H90 0.959 . S
C89 H91 0.960 . S
C89 H92 0.961 . S
H90 C89 0.959 . S
H91 C89 0.960 . S
H92 C89 0.961 . S
O93 Co68 1.967 . S
O93 C101 1.258 . S
O94 Co69 1.941 . S
O94 C101 1.266 . S
H95 C97 0.959 . S
H96 C97 0.961 1_545 S
C97 C87 1.510 . S
C97 H95 0.959 . S
C97 H96 0.961 1_565 S
C97 H98 0.960 . S
H98 C97 0.960 . S
H99 N79 0.862 . S
O100 Co68 1.920 . S
O100 C73 1.289 . S
C101 O93 1.258 . S
C101 O94 1.266 . S
Co102 O105 1.970 . S
Co102 N119 1.989 . S
Co102 O127 1.967 . S
Co102 O134 1.920 . S
Co103 O106 1.966 1_556 S
Co103 N112 2.022 . S
Co103 N120 1.993 1_556 S
Co103 O128 1.941 . S
C104 O105 1.258 . S
C104 O106 1.263 . S
O105 Co102 1.970 . S
O105 C104 1.258 . S
O106 Co103 1.966 1_554 S
O106 C104 1.263 . S
C107 O108 1.235 . S
C107 O134 1.289 . S
O108 C107 1.235 . S
C109 C111 1.400 . S
C109 N112 1.351 . S
C109 C114 1.501 . S
C110 C111 1.387 . S
C110 N113 1.341 . S
C111 C109 1.400 . S
C111 C110 1.387 . S
N112 Co103 2.022 . S
N112 C109 1.351 . S
N112 N113 1.365 . S
N113 C110 1.341 . S
N113 N112 1.365 . S
N113 H133 0.862 . S
C114 C109 1.501 . S
C114 H115 0.961 . S
C114 H116 0.961 . S
C114 H117 0.960 . S
H115 C114 0.961 . S
H116 C114 0.961 . S
H117 C114 0.960 . S
C118 N119 1.342 . S
C118 C122 1.401 . S
C118 C123 1.499 . S
N119 Co102 1.989 . S
N119 C118 1.342 . S
N119 N120 1.388 . S
N120 Co103 1.993 1_554 S
N120 N119 1.388 . S
N120 C121 1.346 1_554 S
C121 N120 1.346 1_556 S
C121 C122 1.396 1_556 S
C121 C131 1.510 . S
C122 C118 1.401 . S
C122 C121 1.396 1_554 S
C123 C118 1.499 . S
C123 H124 0.959 . S
C123 H125 0.960 . S
C123 H126 0.961 1_655 S
H124 C123 0.959 . S
H125 C123 0.960 . S
H126 C123 0.961 1_455 S
O127 Co102 1.967 . S
O127 C135 1.258 . S
O128 Co103 1.941 . S
O128 C135 1.266 1_556 S
H129 C131 0.959 . S
H130 C131 0.961 . S
C131 C121 1.510 . S
C131 H129 0.959 . S
C131 H130 0.961 . S
C131 H132 0.960 . S
H132 C131 0.960 . S
H133 N113 0.862 . S
O134 Co102 1.920 . S
O134 C107 1.289 . S
C135 O127 1.258 . S
C135 O128 1.266 1_554 S
Co136 O139 1.970 . S
Co136 N153 1.989 . S
Co136 O161 1.967 . S
Co136 O168 1.920 . S
Co137 O140 1.966 . S
Co137 N146 2.022 . S
Co137 N154 1.993 . S
Co137 O162 1.941 . S
C138 O139 1.258 . S
C138 O140 1.263 . S
O139 Co136 1.970 . S
O139 C138 1.258 . S
O140 Co137 1.966 . S
O140 C138 1.263 . S
C141 O142 1.235 . S
C141 O168 1.289 . S
O142 C141 1.235 . S
C143 C145 1.400 . S
C143 N146 1.351 . S
C143 C148 1.501 . S
C144 C145 1.387 . S
C144 N147 1.341 . S
C145 C143 1.400 . S
C145 C144 1.387 . S
N146 Co137 2.022 . S
N146 C143 1.351 . S
N146 N147 1.365 . S
N147 C144 1.341 . S
N147 N146 1.365 . S
N147 H167 0.862 . S
C148 C143 1.501 . S
C148 H149 0.961 . S
C148 H150 0.961 1_455 S
C148 H151 0.960 . S
H149 C148 0.961 . S
H150 C148 0.961 1_655 S
H151 C148 0.960 . S
C152 N153 1.342 . S
C152 C156 1.401 . S
C152 C157 1.499 . S
N153 Co136 1.989 . S
N153 C152 1.342 . S
N153 N154 1.388 . S
N154 Co137 1.993 . S
N154 N153 1.388 . S
N154 C155 1.346 . S
C155 N154 1.346 . S
C155 C156 1.396 . S
C155 C165 1.510 . S
C156 C152 1.401 . S
C156 C155 1.396 . S
C157 C152 1.499 . S
C157 H158 0.959 . S
C157 H159 0.960 . S
C157 H160 0.961 1_565 S
H158 C157 0.959 . S
H159 C157 0.960 . S
H160 C157 0.961 1_545 S
O161 Co136 1.967 . S
O161 C169 1.258 . S
O162 Co137 1.941 . S
O162 C169 1.266 . S
H163 C165 0.959 . S
H164 C165 0.961 1_655 S
C165 C155 1.510 . S
C165 H163 0.959 . S
C165 H164 0.961 1_455 S
C165 H166 0.960 . S
H166 C165 0.960 . S
H167 N147 0.862 . S
O168 Co136 1.920 . S
O168 C141 1.289 . S
C169 O161 1.258 . S
C169 O162 1.266 . S
Co170 O173 1.970 . S
Co170 N187 1.989 . S
Co170 O195 1.967 . S
Co170 O202 1.920 . S
Co171 O174 1.966 . S
Co171 N180 2.022 . S
Co171 N188 1.993 . S
Co171 O196 1.941 . S
C172 O173 1.258 . S
C172 O174 1.263 . S
O173 Co170 1.970 . S
O173 C172 1.258 . S
O174 Co171 1.966 . S
O174 C172 1.263 . S
C175 O176 1.235 . S
C175 O202 1.289 . S
O176 C175 1.235 . S
C177 C179 1.400 . S
C177 N180 1.351 . S
C177 C182 1.501 . S
C178 C179 1.387 . S
C178 N181 1.341 . S
C179 C177 1.400 . S
C179 C178 1.387 . S
N180 Co171 2.022 . S
N180 C177 1.351 . S
N180 N181 1.365 . S
N181 C178 1.341 . S
N181 N180 1.365 . S
N181 H201 0.862 . S
C182 C177 1.501 . S
C182 H183 0.961 . S
C182 H184 0.961 1_545 S
C182 H185 0.960 . S
H183 C182 0.961 . S
H184 C182 0.961 1_565 S
H185 C182 0.960 . S
C186 N187 1.342 . S
C186 C190 1.401 . S
C186 C191 1.499 . S
N187 Co170 1.989 . S
N187 C186 1.342 . S
N187 N188 1.388 . S
N188 Co171 1.993 . S
N188 N187 1.388 . S
N188 C189 1.346 . S
C189 N188 1.346 . S
C189 C190 1.396 . S
C189 C199 1.510 . S
C190 C186 1.401 . S
C190 C189 1.396 . S
C191 C186 1.499 . S
C191 H192 0.959 . S
C191 H193 0.960 . S
C191 H194 0.961 . S
H192 C191 0.959 . S
H193 C191 0.960 . S
H194 C191 0.961 . S
O195 Co170 1.967 . S
O195 C203 1.258 . S
O196 Co171 1.941 . S
O196 C203 1.266 . S
H197 C199 0.959 . S
H198 C199 0.961 1_565 S
C199 C189 1.510 . S
C199 H197 0.959 . S
C199 H198 0.961 1_545 S
C199 H200 0.960 . S
H200 C199 0.960 . S
H201 N181 0.862 . S
O202 Co170 1.920 . S
O202 C175 1.289 . S
C203 O195 1.258 . S
C203 O196 1.266 . S
C204 C205 1.363 . S
C204 C210 1.379 . S
C204 N212 1.356 . S
C205 C204 1.363 . S
C205 C211 1.363 . S
C206 C207 1.363 . S
C206 C211 1.379 . S
C206 N213 1.356 1_554 S
C207 C206 1.363 . S
C207 C210 1.363 . S
N208 C210 1.356 . S
N208 H220 0.984 . S
N208 H221 0.985 . S
N209 C211 1.356 1_556 S
N209 H214 0.984 . S
N209 H215 0.985 . S
C210 C204 1.379 . S
C210 C207 1.363 . S
C210 N208 1.356 . S
C211 C205 1.363 . S
C211 C206 1.379 . S
C211 N209 1.356 1_554 S
N212 C204 1.356 . S
N212 H218 0.984 . S
N212 H219 0.984 . S
N213 C206 1.356 1_556 S
N213 H216 0.984 . S
N213 H217 0.985 . S
H214 N209 0.984 . S
H215 N209 0.985 . S
H216 N213 0.984 . S
H217 N213 0.985 . S
H218 N212 0.984 . S
H219 N212 0.984 . S
H220 N208 0.984 . S
H221 N208 0.985 . S
C222 C223 1.363 1_455 S
C222 C228 1.379 . S
C222 N230 1.356 1_455 S
C223 C222 1.363 1_655 S
C223 C229 1.363 . S
C224 C225 1.363 1_655 S
C224 C229 1.379 . S
C224 N231 1.356 1_655 S
C225 C224 1.363 1_455 S
C225 C228 1.363 . S
N226 C228 1.356 . S
N226 H238 0.984 . S
N226 H239 0.985 . S
N227 C229 1.356 . S
N227 H232 0.984 . S
N227 H233 0.985 . S
C228 C222 1.379 . S
C228 C225 1.363 . S
C228 N226 1.356 . S
C229 C223 1.363 . S
C229 C224 1.379 . S
C229 N227 1.356 . S
N230 C222 1.356 1_655 S
N230 H236 0.984 1_655 S
N230 H237 0.984 . S
N231 C224 1.356 1_455 S
N231 H234 0.984 . S
N231 H235 0.985 1_455 S
H232 N227 0.984 . S
H233 N227 0.985 . S
H234 N231 0.984 . S
H235 N231 0.985 1_655 S
H236 N230 0.984 1_455 S
H237 N230 0.984 . S
H238 N226 0.984 . S
H239 N226 0.985 . S
C240 C241 1.363 . S
C240 C246 1.379 . S
C240 N248 1.356 . S
C241 C240 1.363 . S
C241 C247 1.363 1_545 S
C242 C243 1.363 . S
C242 C247 1.379 . S
C242 N249 1.356 . S
C243 C242 1.363 . S
C243 C246 1.363 1_565 S
N244 C246 1.356 1_565 S
N244 H256 0.984 1_565 S
N244 H257 0.985 . S
N245 C247 1.356 1_545 S
N245 H250 0.984 . S
N245 H251 0.985 1_545 S
C246 C240 1.379 . S
C246 C243 1.363 1_545 S
C246 N244 1.356 1_545 S
C247 C241 1.363 1_565 S
C247 C242 1.379 . S
C247 N245 1.356 1_565 S
N248 C240 1.356 . S
N248 H254 0.984 . S
N248 H255 0.984 . S
N249 C242 1.356 . S
N249 H252 0.984 . S
N249 H253 0.985 . S
H250 N245 0.984 . S
H251 N245 0.985 1_565 S
H252 N249 0.984 . S
H253 N249 0.985 . S
H254 N248 0.984 . S
H255 N248 0.984 . S
H256 N244 0.984 1_545 S
H257 N244 0.985 . S
C258 C259 1.363 . S
C258 C264 1.379 . S
C258 N266 1.356 . S
C259 C258 1.363 . S
C259 C265 1.363 . S
C260 C261 1.363 . S
C260 C265 1.379 . S
C260 N267 1.356 . S
C261 C260 1.363 . S
C261 C264 1.363 . S
N262 C264 1.356 . S
N262 H274 0.984 . S
N262 H275 0.985 . S
N263 C265 1.356 . S
N263 H268 0.984 . S
N263 H269 0.985 . S
C264 C258 1.379 . S
C264 C261 1.363 . S
C264 N262 1.356 . S
C265 C259 1.363 . S
C265 C260 1.379 . S
C265 N263 1.356 . S
N266 C258 1.356 . S
N266 H272 0.984 . S
N266 H273 0.984 . S
N267 C260 1.356 . S
N267 H270 0.984 . S
N267 H271 0.985 . S
H268 N263 0.984 . S
H269 N263 0.985 . S
H270 N267 0.984 . S
H271 N267 0.985 . S
H272 N266 0.984 . S
H273 N266 0.984 . S
H274 N262 0.984 . S
H275 N262 0.985 . S
C276 C277 1.363 1_556 S
C276 C282 1.379 . S
C276 N284 1.356 . S
C277 C276 1.363 1_554 S
C277 C283 1.363 1_655 S
C278 C279 1.363 . S
C278 C283 1.379 . S
C278 N285 1.356 . S
C279 C278 1.363 . S
C279 C282 1.363 1_454 S
N280 C282 1.356 1_455 S
N280 H292 0.984 1_455 S
N280 H293 0.985 . S
N281 C283 1.356 1_655 S
N281 H286 0.984 . S
N281 H287 0.985 1_655 S
C282 C276 1.379 . S
C282 C279 1.363 1_656 S
C282 N280 1.356 1_655 S
C283 C277 1.363 1_455 S
C283 C278 1.379 . S
C283 N281 1.356 1_455 S
N284 C276 1.356 . S
N284 H290 0.984 . S
N284 H291 0.984 . S
N285 C278 1.356 . S
N285 H288 0.984 . S
N285 H289 0.985 . S
H286 N281 0.984 . S
H287 N281 0.985 1_455 S
H288 N285 0.984 . S
H289 N285 0.985 . S
H290 N284 0.984 . S
H291 N284 0.984 . S
H292 N280 0.984 1_655 S
H293 N280 0.985 . S
C294 C295 1.363 1_545 S
C294 C300 1.379 . S
C294 N302 1.356 1_545 S
C295 C294 1.363 1_565 S
C295 C301 1.363 . S
C296 C297 1.363 1_565 S
C296 C301 1.379 . S
C296 N303 1.356 1_565 S
C297 C296 1.363 1_545 S
C297 C300 1.363 . S
N298 C300 1.356 . S
N298 H310 0.984 . S
N298 H311 0.985 . S
N299 C301 1.356 . S
N299 H304 0.984 . S
N299 H305 0.985 . S
C300 C294 1.379 . S
C300 C297 1.363 . S
C300 N298 1.356 . S
C301 C295 1.363 . S
C301 C296 1.379 . S
C301 N299 1.356 . S
N302 C294 1.356 1_565 S
N302 H308 0.984 1_565 S
N302 H309 0.984 . S
N303 C296 1.356 1_545 S
N303 H306 0.984 . S
N303 H307 0.985 1_545 S
H304 N299 0.984 . S
H305 N299 0.985 . S
H306 N303 0.984 . S
H307 N303 0.985 1_565 S
H308 N302 0.984 1_545 S
H309 N302 0.984 . S
H310 N298 0.984 . S
H311 N298 0.985 . S
C312 C313 1.368 1_655 S
C312 C318 1.379 1_545 S
C312 N320 1.352 1_554 S
C313 C312 1.368 1_455 S
C313 C319 1.363 . S
C314 C315 1.363 1_455 S
C314 C319 1.379 1_565 S
C314 N321 1.356 . S
C315 C314 1.363 1_655 S
C315 C318 1.368 . S
N316 C318 1.352 1_556 S
N316 H328 0.984 . S
N316 H329 0.985 . S
N317 C319 1.356 . S
N317 H322 0.984 . S
N317 H323 0.985 . S
C318 C312 1.379 1_565 S
C318 C315 1.368 . S
C318 N316 1.352 1_554 S
C319 C313 1.363 . S
C319 C314 1.379 1_545 S
C319 N317 1.356 . S
N320 C312 1.352 1_556 S
N320 H326 0.984 . S
N320 H327 0.984 . S
N321 C314 1.356 . S
N321 H324 0.984 . S
N321 H325 0.985 . S
H322 N317 0.984 . S
H323 N317 0.985 . S
H324 N321 0.984 . S
H325 N321 0.985 . S
H326 N320 0.984 . S
H327 N320 0.984 . S
H328 N316 0.984 . S
H329 N316 0.985 . S
C330 C331 1.363 . S
C330 C336 1.379 1_455 S
C330 N338 1.356 . S
C331 C330 1.363 . S
C331 C337 1.363 1_565 S
C332 C333 1.363 . S
C332 C337 1.379 1_655 S
C332 N339 1.356 . S
C333 C332 1.363 . S
C333 C336 1.363 1_545 S
N334 C336 1.356 . S
N334 H346 0.984 . S
N334 H347 0.985 . S
N335 C337 1.356 . S
N335 H340 0.984 . S
N335 H341 0.985 . S
C336 C330 1.379 1_655 S
C336 C333 1.363 1_565 S
C336 N334 1.356 . S
C337 C331 1.363 1_545 S
C337 C332 1.379 1_455 S
C337 N335 1.356 . S
N338 C330 1.356 . S
N338 H344 0.984 1_455 S
N338 H345 0.984 . S
N339 C332 1.356 . S
N339 H342 0.984 . S
N339 H343 0.985 1_655 S
H340 N335 0.984 . S
H341 N335 0.985 . S
H342 N339 0.984 . S
H343 N339 0.985 1_455 S
H344 N338 0.984 1_655 S
H345 N338 0.984 . S
H346 N334 0.984 . S
H347 N334 0.985 . S
C348 C349 1.363 . S
C348 C354 1.379 1_445 S
C348 N356 1.356 . S
C349 C348 1.363 . S
C349 C355 1.363 . S
C350 C351 1.363 . S
C350 C355 1.379 1_665 S
C350 N357 1.356 . S
C351 C350 1.363 . S
C351 C354 1.363 . S
N352 C354 1.356 . S
N352 H364 0.984 1_565 S
N352 H365 0.985 . S
N353 C355 1.356 . S
N353 H358 0.984 . S
N353 H359 0.985 1_545 S
C354 C348 1.379 1_665 S
C354 C351 1.363 . S
C354 N352 1.356 . S
C355 C349 1.363 . S
C355 C350 1.379 1_445 S
C355 N353 1.356 . S
N356 C348 1.356 . S
N356 H362 0.984 . S
N356 H363 0.984 . S
N357 C350 1.356 . S
N357 H360 0.984 . S
N357 H361 0.985 . S
H358 N353 0.984 . S
H359 N353 0.985 1_565 S
H360 N357 0.984 . S
H361 N357 0.985 . S
H362 N356 0.984 . S
H363 N356 0.984 . S
H364 N352 0.984 1_545 S
H365 N352 0.985 . S
C366 C367 1.363 . S
C366 C372 1.379 . S
C366 N374 1.356 . S
C367 C366 1.363 . S
C367 C373 1.363 . S
C368 C369 1.363 . S
C368 C373 1.379 . S
C368 N375 1.356 . S
C369 C368 1.363 . S
C369 C372 1.363 . S
N370 C372 1.356 . S
N370 H382 0.984 . S
N370 H383 0.985 . S
N371 C373 1.356 . S
N371 H376 0.984 . S
N371 H377 0.985 . S
C372 C366 1.379 . S
C372 C369 1.363 . S
C372 N370 1.356 . S
C373 C367 1.363 . S
C373 C368 1.379 . S
C373 N371 1.356 . S
N374 C366 1.356 . S
N374 H380 0.984 . S
N374 H381 0.984 . S
N375 C368 1.356 . S
N375 H378 0.984 . S
N375 H379 0.985 . S
H376 N371 0.984 . S
H377 N371 0.985 . S
H378 N375 0.984 . S
H379 N375 0.985 . S
H380 N374 0.984 . S
H381 N374 0.984 . S
H382 N370 0.984 . S
H383 N370 0.985 . S
C384 C385 1.363 . S
C384 C390 1.379 . S
C384 N392 1.356 . S
C385 C384 1.363 . S
C385 C391 1.363 . S
C386 C387 1.363 1_655 S
C386 C391 1.379 1_655 S
C386 N393 1.356 . S
C387 C386 1.363 1_455 S
C387 C390 1.363 . S
N388 C390 1.356 . S
N388 H400 0.984 . S
N388 H401 0.985 . S
N389 C391 1.356 . S
N389 H394 0.984 . S
N389 H395 0.985 1_455 S
C390 C384 1.379 . S
C390 C387 1.363 . S
C390 N388 1.356 . S
C391 C385 1.363 . S
C391 C386 1.379 1_455 S
C391 N389 1.356 . S
N392 C384 1.356 . S
N392 H398 0.984 . S
N392 H399 0.984 . S
N393 C386 1.356 . S
N393 H396 0.984 . S
N393 H397 0.985 . S
H394 N389 0.984 . S
H395 N389 0.985 1_655 S
H396 N393 0.984 . S
H397 N393 0.985 . S
H398 N392 0.984 . S
H399 N392 0.984 . S
H400 N388 0.984 . S
H401 N388 0.985 . S
C402 C403 1.363 . S
C402 C408 1.379 . S
C402 N410 1.356 . S
C403 C402 1.363 . S
C403 C409 1.363 . S
C404 C405 1.363 . S
C404 C409 1.379 . S
C404 N411 1.356 1_545 S
C405 C404 1.363 . S
C405 C408 1.363 . S
N406 C408 1.356 . S
N406 H418 0.984 . S
N406 H419 0.985 . S
N407 C409 1.356 . S
N407 H412 0.984 . S
N407 H413 0.985 . S
C408 C402 1.379 . S
C408 C405 1.363 . S
C408 N406 1.356 . S
C409 C403 1.363 . S
C409 C404 1.379 . S
C409 N407 1.356 . S
N410 C402 1.356 . S
N410 H416 0.984 . S
N410 H417 0.984 . S
N411 C404 1.356 1_565 S
N411 H414 0.984 . S
N411 H415 0.985 . S
H412 N407 0.984 . S
H413 N407 0.985 . S
H414 N411 0.984 . S
H415 N411 0.985 . S
H416 N410 0.984 . S
H417 N410 0.984 . S
H418 N406 0.984 . S
H419 N406 0.985 . S
C420 C421 1.363 . S
C420 C426 1.379 . S
C420 N428 1.356 . S
C421 C420 1.363 . S
C421 C427 1.363 . S
C422 C423 1.363 . S
C422 C427 1.379 . S
C422 N429 1.356 . S
C423 C422 1.363 . S
C423 C426 1.363 . S
N424 C426 1.356 . S
N424 H436 0.984 . S
N424 H437 0.985 . S
N425 C427 1.356 . S
N425 H430 0.984 . S
N425 H431 0.985 . S
C426 C420 1.379 . S
C426 C423 1.363 . S
C426 N424 1.356 . S
C427 C421 1.363 . S
C427 C422 1.379 . S
C427 N425 1.356 . S
N428 C420 1.356 . S
N428 H434 0.984 . S
N428 H435 0.984 . S
N429 C422 1.356 . S
N429 H432 0.984 . S
N429 H433 0.985 . S
H430 N425 0.984 . S
H431 N425 0.985 . S
H432 N429 0.984 . S
H433 N429 0.985 . S
H434 N428 0.984 . S
H435 N428 0.984 . S
H436 N424 0.984 . S
H437 N424 0.985 . S
C438 C439 1.363 . S
C438 C444 1.379 1_655 S
C438 N446 1.356 . S
C439 C438 1.363 . S
C439 C445 1.363 . S
C440 C441 1.363 . S
C440 C445 1.379 . S
C440 N447 1.356 . S
C441 C440 1.363 . S
C441 C444 1.363 1_655 S
N442 C444 1.356 . S
N442 H454 0.984 . S
N442 H455 0.985 . S
N443 C445 1.356 . S
N443 H448 0.984 . S
N443 H449 0.985 . S
C444 C438 1.379 1_455 S
C444 C441 1.363 1_455 S
C444 N442 1.356 . S
C445 C439 1.363 . S
C445 C440 1.379 . S
C445 N443 1.356 . S
N446 C438 1.356 . S
N446 H452 0.984 1_655 S
N446 H453 0.984 . S
N447 C440 1.356 . S
N447 H450 0.984 . S
N447 H451 0.985 . S
H448 N443 0.984 . S
H449 N443 0.985 . S
H450 N447 0.984 . S
H451 N447 0.985 . S
H452 N446 0.984 1_455 S
H453 N446 0.984 . S
H454 N442 0.984 . S
H455 N442 0.985 . S
C456 C457 1.363 . S
C456 C462 1.379 . S
C456 N464 1.356 . S
C457 C456 1.363 . S
C457 C463 1.363 1_565 S
C458 C459 1.363 . S
C458 C463 1.379 1_565 S
C458 N465 1.356 . S
C459 C458 1.363 . S
C459 C462 1.363 . S
N460 C462 1.356 . S
N460 H472 0.984 . S
N460 H473 0.985 . S
N461 C463 1.356 . S
N461 H466 0.984 . S
N461 H467 0.985 . S
C462 C456 1.379 . S
C462 C459 1.363 . S
C462 N460 1.356 . S
C463 C457 1.363 1_545 S
C463 C458 1.379 1_545 S
C463 N461 1.356 . S
N464 C456 1.356 . S
N464 H470 0.984 . S
N464 H471 0.984 . S
N465 C458 1.356 . S
N465 H468 0.984 . S
N465 H469 0.985 1_565 S
H466 N461 0.984 . S
H467 N461 0.985 . S
H468 N465 0.984 . S
H469 N465 0.985 1_545 S
H470 N464 0.984 . S
H471 N464 0.984 . S
H472 N460 0.984 . S
H473 N460 0.985 . S
C205 C2 1.530 . S
C207 C104 1.530 . S
C223 C36 1.530 . S
C225 C138 1.530 . S
C241 C172 1.530 . S
C243 C70 1.530 . S
C259 C101 1.935 . S
C261 C203 1.935 . S
C277 C135 1.935 . S
C279 C33 1.935 . S
C295 C169 1.935 . S
C297 C67 1.935 . S
C313 C20 0.372 . S
C315 C122 0.372 . S
C331 C156 0.372 . S
C333 C54 0.372 . S
C349 C190 0.371 . S
C351 C88 0.371 . S
C367 C9 1.674 . S
C369 C175 1.699 . S
C385 C5 1.699 . S
C387 C43 1.674 1_455 S
C403 C39 1.699 . S
C405 C77 1.674 1_545 S
C421 C73 1.699 . S
C423 C111 1.674 . S
C439 C107 1.699 . S
C441 C145 1.674 1_655 S
C457 C179 1.674 1_565 S
C459 C141 1.699 . S
