# Generated by pormake.
# Topology crr, (4)-cn, num edge types: 1
# Building blocks:
#     Node 0, Type 0, BuildingBlock: NAWXER_clean_sbu_0, # of connection points: 4
#     Node 1, Type 0, BuildingBlock: NAWXER_clean_sbu_0, # of connection points: 4
#     Node 2, Type 0, BuildingBlock: NAWXER_clean_sbu_0, # of connection points: 4
#     Node 3, Type 0, BuildingBlock: NAWXER_clean_sbu_0, # of connection points: 4
#     Node 4, Type 0, BuildingBlock: NAWXER_clean_sbu_0, # of connection points: 4
#     Node 5, Type 0, BuildingBlock: NAWXER_clean_sbu_0, # of connection points: 4
#     Node 6, Type 0, BuildingBlock: NAWXER_clean_sbu_0, # of connection points: 4
#     Node 7, Type 0, BuildingBlock: NAWXER_clean_sbu_0, # of connection points: 4
#     Node 8, Type 0, BuildingBlock: NAWXER_clean_sbu_0, # of connection points: 4
#     Node 9, Type 0, BuildingBlock: NAWXER_clean_sbu_0, # of connection points: 4
#     Node 10, Type 0, BuildingBlock: NAWXER_clean_sbu_0, # of connection points: 4
#     Node 11, Type 0, BuildingBlock: NAWXER_clean_sbu_0, # of connection points: 4
#     Edge 12, Type (0, 0), BuildingBlock: XUDNAN_clean_linker_2, # of connection points: 2
#     Edge 13, Type (0, 0), BuildingBlock: XUDNAN_clean_linker_2, # of connection points: 2
#     Edge 14, Type (0, 0), BuildingBlock: XUDNAN_clean_linker_2, # of connection points: 2
#     Edge 15, Type (0, 0), BuildingBlock: XUDNAN_clean_linker_2, # of connection points: 2
#     Edge 16, Type (0, 0), BuildingBlock: XUDNAN_clean_linker_2, # of connection points: 2
#     Edge 17, Type (0, 0), BuildingBlock: XUDNAN_clean_linker_2, # of connection points: 2
#     Edge 18, Type (0, 0), BuildingBlock: XUDNAN_clean_linker_2, # of connection points: 2
#     Edge 19, Type (0, 0), BuildingBlock: XUDNAN_clean_linker_2, # of connection points: 2
#     Edge 20, Type (0, 0), BuildingBlock: XUDNAN_clean_linker_2, # of connection points: 2
#     Edge 21, Type (0, 0), BuildingBlock: XUDNAN_clean_linker_2, # of connection points: 2
#     Edge 22, Type (0, 0), BuildingBlock: XUDNAN_clean_linker_2, # of connection points: 2
#     Edge 23, Type (0, 0), BuildingBlock: XUDNAN_clean_linker_2, # of connection points: 2
#     Edge 24, Type (0, 0), BuildingBlock: XUDNAN_clean_linker_2, # of connection points: 2
#     Edge 25, Type (0, 0), BuildingBlock: XUDNAN_clean_linker_2, # of connection points: 2
#     Edge 26, Type (0, 0), BuildingBlock: XUDNAN_clean_linker_2, # of connection points: 2
#     Edge 27, Type (0, 0), BuildingBlock: XUDNAN_clean_linker_2, # of connection points: 2
#     Edge 28, Type (0, 0), BuildingBlock: XUDNAN_clean_linker_2, # of connection points: 2
#     Edge 29, Type (0, 0), BuildingBlock: XUDNAN_clean_linker_2, # of connection points: 2
#     Edge 30, Type (0, 0), BuildingBlock: XUDNAN_clean_linker_2, # of connection points: 2
#     Edge 31, Type (0, 0), BuildingBlock: XUDNAN_clean_linker_2, # of connection points: 2
#     Edge 32, Type (0, 0), BuildingBlock: XUDNAN_clean_linker_2, # of connection points: 2
#     Edge 33, Type (0, 0), BuildingBlock: XUDNAN_clean_linker_2, # of connection points: 2
#     Edge 34, Type (0, 0), BuildingBlock: XUDNAN_clean_linker_2, # of connection points: 2
#     Edge 35, Type (0, 0), BuildingBlock: XUDNAN_clean_linker_2, # of connection points: 2
# Relax obj value: 0.065
# Max RMSD: 0.110
# Mean RMSD: 0.110
data_MOF--net-crr--node1-NAWXER_clean_sbu_0--edge1-XUDNAN_clean_linker_2
_symmetry_space_group_name_H-M    P1
_symmetry_Int_Tables_number       1
_symmetry_cell_setting            triclinic
loop_
_symmetry_equiv_pos_as_xyz
'x, y, z'
_cell_length_a     40.200429
_cell_length_b     39.901769
_cell_length_c     40.017528
_cell_angle_alpha  89.773988
_cell_angle_beta   90.204941
_cell_angle_gamma 90.332727
loop_
_atom_site_label
_atom_site_type_symbol
_atom_site_fract_x
_atom_site_fract_y
_atom_site_fract_z
_atom_type_partial_charge
C0 C 0.10281 0.33136 0.42748 0.0
C1 C 0.17983 0.37781 0.34705 0.0
O2 O 0.13145 0.34393 0.43264 0.0
Zn3 Zn 0.14032 0.35561 0.38724 0.0
O4 O 0.09068 0.33061 0.39781 0.0
Zn5 Zn 0.10637 0.34491 0.34828 0.0
O6 O 0.10637 0.30217 0.32562 0.0
O7 O 0.14412 0.30675 0.36555 0.0
O8 O 0.15291 0.36762 0.33283 0.0
O9 O 0.18268 0.3757 0.37855 0.0
O10 O 0.10478 0.39451 0.37701 0.0
O11 O 0.07255 0.37644 0.33594 0.0
C12 C 0.12973 0.28933 0.34278 0.0
C13 C 0.08007 0.39887 0.3571 0.0
C14 C 0.34356 0.8968 0.71014 0.0
C15 C 0.34982 0.95927 0.60488 0.0
O16 O 0.33217 0.92581 0.70386 0.0
Zn17 Zn 0.34708 0.92807 0.6578 0.0
O18 O 0.35898 0.88088 0.68715 0.0
Zn19 Zn 0.37331 0.88847 0.63566 0.0
O20 O 0.42102 0.8861 0.63877 0.0
O21 O 0.40031 0.93045 0.66381 0.0
O22 O 0.36366 0.93045 0.60242 0.0
O23 O 0.3374 0.96802 0.63261 0.0
O24 O 0.31674 0.88957 0.6345 0.0
O25 O 0.35098 0.85162 0.61439 0.0
C26 C 0.42544 0.91261 0.65566 0.0
C27 C 0.32152 0.8617 0.61932 0.0
C28 C 0.90998 0.57283 0.37391 0.0
C29 C 0.82051 0.65196 0.39545 0.0
O30 O 0.91281 0.60032 0.35757 0.0
Zn31 Zn 0.88561 0.64516 0.34948 0.0
O32 O 0.88423 0.5672 0.39145 0.0
Zn33 Zn 0.86309 0.61036 0.38379 0.0
O34 O 0.84505 0.607 0.33401 0.0
O35 O 0.87205 0.64389 0.30304 0.0
O36 O 0.82305 0.6226 0.40775 0.0
O37 O 0.84193 0.66236 0.37409 0.0
O38 O 0.91816 0.67769 0.36423 0.0
O39 O 0.89862 0.64497 0.40456 0.0
C40 C 0.85007 0.62102 0.30564 0.0
C41 C 0.91767 0.66899 0.39487 0.0
C42 C 0.6494 0.12513 0.71608 0.0
C43 C 0.67092 0.05236 0.61966 0.0
O44 O 0.66561 0.09846 0.72319 0.0
Zn45 Zn 0.68624 0.05599 0.69863 0.0
O46 O 0.64092 0.13082 0.6859 0.0
Zn47 Zn 0.66057 0.09076 0.66648 0.0
O48 O 0.63075 0.05135 0.68743 0.0
O49 O 0.66248 0.01871 0.7188 0.0
O50 O 0.65683 0.08084 0.61856 0.0
O51 O 0.68288 0.04176 0.64746 0.0
O52 O 0.73357 0.06226 0.70688 0.0
O53 O 0.71221 0.10078 0.67357 0.0
C54 C 0.63416 0.02552 0.70627 0.0
C55 C 0.73717 0.08879 0.68952 0.0
C56 C 0.11477 0.64782 0.6931 0.0
C57 C 0.061 0.66701 0.58581 0.0
O58 O 0.13063 0.63555 0.66835 0.0
Zn59 Zn 0.1258 0.63059 0.61574 0.0
O60 O 0.08702 0.66217 0.68813 0.0
Zn61 Zn 0.08585 0.65589 0.64006 0.0
O62 O 0.07881 0.60313 0.63544 0.0
O63 O 0.12293 0.58223 0.61057 0.0
O64 O 0.04944 0.67386 0.61449 0.0
O65 O 0.08843 0.65099 0.58317 0.0
O66 O 0.16509 0.65496 0.60101 0.0
O67 O 0.12663 0.68696 0.62377 0.0
C68 C 0.09471 0.57789 0.62419 0.0
C69 C 0.15497 0.68388 0.6095 0.0
C70 C 0.55907 0.89331 0.35354 0.0
C71 C 0.64914 0.82326 0.39143 0.0
O72 O 0.5584 0.86531 0.36854 0.0
Zn73 Zn 0.60508 0.8599 0.374 0.0
O74 O 0.58704 0.90806 0.34835 0.0
Zn75 Zn 0.63878 0.89676 0.35794 0.0
O76 O 0.65707 0.89672 0.31322 0.0
O77 O 0.62235 0.85489 0.32315 0.0
O78 O 0.6604 0.85089 0.379 0.0
O79 O 0.61799 0.81849 0.39337 0.0
O80 O 0.62019 0.89481 0.41206 0.0
O81 O 0.65311 0.9321 0.38808 0.0
C82 C 0.642 0.87052 0.30316 0.0
C83 C 0.63842 0.92122 0.41397 0.0
C84 C 0.857 0.36857 0.66764 0.0
C85 C 0.9418 0.31339 0.60252 0.0
O86 O 0.85923 0.36611 0.63613 0.0
Zn87 Zn 0.89965 0.34112 0.63508 0.0
O88 O 0.87979 0.3559 0.68633 0.0
Zn89 Zn 0.92532 0.32827 0.67954 0.0
O90 O 0.96017 0.35719 0.69662 0.0
O91 O 0.93718 0.37661 0.6503 0.0
O92 O 0.94786 0.31187 0.63396 0.0
O93 O 0.91562 0.32784 0.59214 0.0
O94 O 0.88597 0.29378 0.6569 0.0
O95 O 0.91638 0.28617 0.70225 0.0
C96 C 0.95876 0.37938 0.6738 0.0
C97 C 0.89416 0.27566 0.68213 0.0
C98 C 0.36546 0.02936 0.30331 0.0
C99 C 0.2663 0.09451 0.32424 0.0
O100 O 0.37229 0.05788 0.31639 0.0
Zn101 Zn 0.34564 0.10135 0.33216 0.0
O102 O 0.33552 0.02202 0.29608 0.0
Zn103 Zn 0.31564 0.06226 0.31268 0.0
O104 O 0.32971 0.10028 0.27676 0.0
O105 O 0.36126 0.13698 0.30313 0.0
O106 O 0.26762 0.06567 0.31098 0.0
O107 O 0.29315 0.1096 0.33303 0.0
O108 O 0.35641 0.10354 0.37905 0.0
O109 O 0.32638 0.05891 0.36599 0.0
C110 C 0.34682 0.12753 0.27647 0.0
C111 C 0.3421 0.07644 0.38787 0.0
C112 C 0.31779 0.42811 0.0802 0.0
C113 C 0.34578 0.31463 0.11723 0.0
O114 O 0.34453 0.42665 0.09769 0.0
Zn115 Zn 0.37581 0.38929 0.1205 0.0
O116 O 0.30279 0.40129 0.07156 0.0
Zn117 Zn 0.33274 0.37076 0.09442 0.0
O118 O 0.32555 0.38594 0.14514 0.0
O119 O 0.37316 0.40373 0.16687 0.0
O120 O 0.32302 0.32289 0.0967 0.0
O121 O 0.36669 0.33687 0.12711 0.0
O122 O 0.41735 0.39277 0.09532 0.0
O123 O 0.37547 0.37549 0.0641 0.0
C124 C 0.34207 0.39798 0.16984 0.0
C125 C 0.406 0.38428 0.06687 0.0
C126 C 0.27678 0.65602 0.87324 0.0
C127 C 0.38651 0.66642 0.9241 0.0
O128 O 0.27684 0.67454 0.89937 0.0
Zn129 Zn 0.31195 0.69258 0.93578 0.0
O130 O 0.30375 0.64283 0.86344 0.0
Zn131 Zn 0.33199 0.66097 0.89775 0.0
O132 O 0.31407 0.63545 0.94097 0.0
O133 O 0.29504 0.67253 0.9769 0.0
O134 O 0.3788 0.65091 0.89749 0.0
O135 O 0.36417 0.68245 0.94021 0.0
O136 O 0.31032 0.74115 0.9277 0.0
O137 O 0.33144 0.71274 0.88579 0.0
C138 C 0.30064 0.64217 0.96911 0.0
C139 C 0.32273 0.74072 0.89848 0.0
C140 C 0.65965 0.73177 0.10314 0.0
C141 C 0.6864 0.63653 0.03157 0.0
O142 O 0.64358 0.70495 0.11054 0.0
Zn143 Zn 0.63827 0.65496 0.09286 0.0
O144 O 0.67859 0.73203 0.07777 0.0
Zn145 Zn 0.67243 0.68522 0.0651 0.0
O146 O 0.62333 0.68221 0.04427 0.0
O147 O 0.59242 0.65188 0.07853 0.0
O148 O 0.69803 0.66616 0.02879 0.0
O149 O 0.66458 0.6299 0.05394 0.0
O150 O 0.65256 0.62937 0.13109 0.0
O151 O 0.6928 0.65919 0.10765 0.0
C152 C 0.59531 0.66866 0.05165 0.0
C153 C 0.68283 0.63883 0.13046 0.0
C154 C 0.63791 0.32404 0.85787 0.0
C155 C 0.66662 0.434 0.90293 0.0
O156 O 0.62313 0.34804 0.84262 0.0
Zn157 Zn 0.61863 0.40129 0.84706 0.0
O158 O 0.65537 0.33036 0.88366 0.0
Zn159 Zn 0.65033 0.37864 0.88338 0.0
O160 O 0.60087 0.38587 0.9002 0.0
O161 O 0.57233 0.40826 0.85877 0.0
O162 O 0.67545 0.40572 0.91461 0.0
O163 O 0.64591 0.43548 0.87852 0.0
O164 O 0.63481 0.41508 0.80361 0.0
O165 O 0.67294 0.39246 0.83656 0.0
C166 C 0.57348 0.39734 0.88861 0.0
C167 C 0.66474 0.40594 0.80857 0.0
H168 H 0.17244 0.25389 0.38154 0.0
H169 H 0.11157 0.246 0.29213 0.0
H170 H 0.1332 0.18874 0.28274 0.0
H171 H 0.24213 0.21845 0.34944 0.0
H172 H 0.25432 0.19729 0.3874 0.0
H173 H 0.22974 0.23461 0.38949 0.0
H174 H 0.18514 0.20244 0.42393 0.0
H175 H 0.2096 0.1648 0.42165 0.0
H176 H 0.16701 0.16452 0.40742 0.0
H177 H 0.16729 0.13516 0.27981 0.0
H178 H 0.21282 0.09347 0.28143 0.0
H179 H 0.2503 0.13809 0.37268 0.0
C180 C 0.16313 0.24001 0.36023 0.0
C181 C 0.14038 0.2544 0.33752 0.0
C182 C 0.12897 0.23538 0.30991 0.0
C183 C 0.14096 0.2028 0.30451 0.0
C184 C 0.1639 0.1896 0.32723 0.0
C185 C 0.17469 0.20773 0.35461 0.0
C186 C 0.20189 0.18988 0.37353 0.0
C187 C 0.23389 0.21132 0.37501 0.0
C188 C 0.1902 0.17981 0.40871 0.0
C189 C 0.20607 0.15954 0.35162 0.0
C190 C 0.18344 0.15918 0.32549 0.0
C191 C 0.18467 0.13486 0.30052 0.0
C192 C 0.21045 0.1112 0.30169 0.0
C193 C 0.23477 0.11267 0.32729 0.0
C194 C 0.23173 0.13632 0.35307 0.0
H195 H 0.32085 0.79395 0.60785 0.0
H196 H 0.25703 0.88122 0.61157 0.0
H197 H 0.20789 0.84496 0.60285 0.0
H198 H 0.27109 0.74532 0.54564 0.0
H199 H 0.27875 0.70617 0.56684 0.0
H200 H 0.30939 0.7393 0.56839 0.0
H201 H 0.30841 0.73709 0.6331 0.0
H202 H 0.2777 0.70415 0.63178 0.0
H203 H 0.26943 0.74202 0.65462 0.0
H204 H 0.16572 0.79962 0.6004 0.0
H205 H 0.13259 0.74771 0.60439 0.0
H206 H 0.22307 0.68891 0.60255 0.0
C207 C 0.29661 0.80551 0.60585 0.0
C208 C 0.29274 0.84045 0.61006 0.0
C209 C 0.26056 0.85454 0.60826 0.0
C210 C 0.23252 0.83417 0.6032 0.0
C211 C 0.23708 0.79975 0.59998 0.0
C212 C 0.26829 0.78545 0.60111 0.0
C213 C 0.26596 0.74749 0.60012 0.0
C214 C 0.28226 0.73377 0.56835 0.0
C215 C 0.28128 0.73178 0.63179 0.0
C216 C 0.22854 0.7427 0.59919 0.0
C217 C 0.21245 0.77325 0.59875 0.0
C218 C 0.17798 0.77555 0.60023 0.0
C219 C 0.1594 0.7459 0.60266 0.0
C220 C 0.17527 0.7143 0.60362 0.0
C221 C 0.21028 0.7127 0.60125 0.0
H222 H 0.71555 0.81835 0.37766 0.0
H223 H 0.63418 0.76648 0.42711 0.0
H224 H 0.67104 0.71856 0.4389 0.0
H225 H 0.74614 0.74895 0.33658 0.0
H226 H 0.78941 0.76045 0.34044 0.0
H227 H 0.75809 0.79242 0.3401 0.0
H228 H 0.77996 0.81479 0.39688 0.0
H229 H 0.81152 0.7829 0.39733 0.0
H230 H 0.78332 0.78658 0.43202 0.0
H231 H 0.71551 0.67397 0.44049 0.0
H232 H 0.76354 0.63663 0.43072 0.0
H233 H 0.81472 0.71803 0.37972 0.0
C234 C 0.70568 0.79728 0.39169 0.0
C235 C 0.67207 0.79623 0.40162 0.0
C236 C 0.65992 0.76787 0.41931 0.0
C237 C 0.68068 0.74056 0.42625 0.0
C238 C 0.71353 0.74205 0.4154 0.0
C239 C 0.72598 0.76977 0.39861 0.0
C240 C 0.76125 0.76409 0.38712 0.0
C241 C 0.76385 0.76661 0.3488 0.0
C242 C 0.78544 0.78854 0.40438 0.0
C243 C 0.76639 0.72856 0.39924 0.0
C244 C 0.73884 0.71633 0.4159 0.0
C245 C 0.7374 0.68342 0.42783 0.0
C246 C 0.76474 0.66239 0.42218 0.0
C247 C 0.79283 0.67437 0.40445 0.0
C248 C 0.79366 0.70805 0.39341 0.0
H249 H 0.84395 0.24898 0.64471 0.0
H250 H 0.90604 0.22833 0.73123 0.0
H251 H 0.87636 0.17432 0.7395 0.0
H252 H 0.76963 0.21848 0.67869 0.0
H253 H 0.7543 0.20168 0.6398 0.0
H254 H 0.7825 0.2368 0.63954 0.0
H255 H 0.82261 0.20392 0.6012 0.0
H256 H 0.79457 0.16853 0.60157 0.0
H257 H 0.8373 0.16331 0.61426 0.0
H258 H 0.83679 0.12365 0.73973 0.0
H259 H 0.78958 0.08379 0.73392 0.0
H260 H 0.7548 0.13917 0.6472 0.0
C261 C 0.85169 0.23303 0.66524 0.0
C262 C 0.87743 0.24287 0.68726 0.0
C263 C 0.88643 0.22129 0.71398 0.0
C264 C 0.8698 0.19051 0.71878 0.0
C265 C 0.8444 0.1817 0.69656 0.0
C266 C 0.83544 0.20249 0.67037 0.0
C267 C 0.80608 0.18865 0.65113 0.0
C268 C 0.77638 0.21283 0.65239 0.0
C269 C 0.81573 0.18062 0.6149 0.0
C270 C 0.79934 0.15705 0.67091 0.0
C271 C 0.82185 0.15309 0.6968 0.0
C272 C 0.81927 0.12638 0.71932 0.0
C273 C 0.79249 0.10377 0.71575 0.0
C274 C 0.76856 0.10833 0.69007 0.0
C275 C 0.77272 0.13486 0.66701 0.0
H276 H 0.37926 0.29583 0.17368 0.0
H277 H 0.31209 0.25763 0.09753 0.0
H278 H 0.30899 0.20337 0.12771 0.0
H279 H 0.42324 0.21735 0.19187 0.0
H280 H 0.4253 0.22595 0.23602 0.0
H281 H 0.42518 0.26005 0.20635 0.0
H282 H 0.3741 0.28567 0.23596 0.0
H283 H 0.37397 0.25166 0.2656 0.0
H284 H 0.3371 0.26053 0.24146 0.0
H285 H 0.31044 0.15462 0.16856 0.0
H286 H 0.31444 0.11646 0.21708 0.0
H287 H 0.3793 0.18779 0.26721 0.0
C288 C 0.3645 0.27583 0.16282 0.0
C289 C 0.34625 0.28086 0.13292 0.0
C290 C 0.32652 0.25428 0.12019 0.0
C291 C 0.32465 0.22337 0.13716 0.0
C292 C 0.34254 0.21953 0.1669 0.0
C293 C 0.36206 0.24511 0.1796 0.0
C294 C 0.37669 0.23577 0.21331 0.0
C295 C 0.41487 0.23471 0.21178 0.0
C296 C 0.36474 0.25983 0.24069 0.0
C297 C 0.36205 0.20102 0.2179 0.0
C298 C 0.34273 0.19193 0.19071 0.0
C299 C 0.32573 0.16141 0.18982 0.0
C300 C 0.32819 0.13986 0.21755 0.0
C301 C 0.34729 0.14899 0.24602 0.0
C302 C 0.36472 0.17987 0.24582 0.0
H303 H 0.26837 0.62311 0.81386 0.0
H304 H 0.21523 0.68081 0.88811 0.0
H305 H 0.16498 0.67954 0.8526 0.0
H306 H 0.23715 0.66434 0.74496 0.0
H307 H 0.23425 0.62793 0.71857 0.0
H308 H 0.26435 0.6292 0.75185 0.0
H309 H 0.24014 0.57399 0.77636 0.0
H310 H 0.20994 0.57249 0.74299 0.0
H311 H 0.1964 0.57127 0.78587 0.0
H312 H 0.1227 0.67793 0.80583 0.0
H313 H 0.09231 0.67543 0.75192 0.0
H314 H 0.17333 0.61821 0.70953 0.0
C315 C 0.24596 0.63481 0.82305 0.0
C316 C 0.24574 0.65199 0.85376 0.0
C317 C 0.216 0.6674 0.86465 0.0
C318 C 0.18726 0.66675 0.84472 0.0
C319 C 0.18857 0.65031 0.81414 0.0
C320 C 0.2171 0.63437 0.80351 0.0
C321 C 0.21301 0.62082 0.76854 0.0
C322 C 0.2387 0.63653 0.74459 0.0
C323 C 0.21498 0.58236 0.76845 0.0
C324 C 0.17818 0.63263 0.76074 0.0
C325 C 0.16424 0.64925 0.78739 0.0
C326 C 0.13312 0.66445 0.78496 0.0
C327 C 0.11606 0.66296 0.75428 0.0
C328 C 0.13037 0.64658 0.72655 0.0
C329 C 0.1615 0.63072 0.73026 0.0
H330 H 0.61995 0.73776 0.15776 0.0
H331 H 0.69663 0.79037 0.10196 0.0
H332 H 0.69822 0.8344 0.14549 0.0
H333 H 0.57711 0.81176 0.19006 0.0
H334 H 0.56899 0.79175 0.22968 0.0
H335 H 0.57163 0.76693 0.19228 0.0
H336 H 0.6173 0.73052 0.2201 0.0
H337 H 0.61505 0.75535 0.25742 0.0
H338 H 0.65428 0.75046 0.23638 0.0
H339 H 0.69434 0.87015 0.1985 0.0
H340 H 0.68469 0.89428 0.25457 0.0
H341 H 0.61121 0.81668 0.27444 0.0
C342 C 0.63668 0.75883 0.1542 0.0
C343 C 0.65808 0.76065 0.12631 0.0
C344 C 0.6798 0.78856 0.12296 0.0
C345 C 0.68091 0.81364 0.14761 0.0
C346 C 0.66004 0.81048 0.17528 0.0
C347 C 0.63816 0.78382 0.17845 0.0
C348 C 0.61971 0.7848 0.21127 0.0
C349 C 0.58213 0.78908 0.20546 0.0
C350 C 0.62704 0.75343 0.23253 0.0
C351 C 0.63499 0.81585 0.22654 0.0
C352 C 0.65803 0.83058 0.20545 0.0
C353 C 0.6761 0.85895 0.21501 0.0
C354 C 0.6705 0.87246 0.24693 0.0
C355 C 0.64717 0.85743 0.26894 0.0
C356 C 0.62914 0.82891 0.25828 0.0
H357 H 0.73112 0.39563 0.81567 0.0
H358 H 0.65631 0.4232 0.74223 0.0
H359 H 0.69946 0.42303 0.69814 0.0
H360 H 0.80109 0.44312 0.77884 0.0
H361 H 0.83035 0.41069 0.78948 0.0
H362 H 0.79445 0.41744 0.8154 0.0
H363 H 0.77736 0.35508 0.80841 0.0
H364 H 0.81304 0.34816 0.78246 0.0
H365 H 0.772 0.33824 0.76698 0.0
H366 H 0.74998 0.41349 0.66148 0.0
H367 H 0.8026 0.39532 0.63565 0.0
H368 H 0.84323 0.37422 0.73411 0.0
C369 C 0.72376 0.40224 0.79044 0.0
C370 C 0.69033 0.40943 0.78236 0.0
C371 C 0.68183 0.41778 0.74899 0.0
C372 C 0.70617 0.41779 0.72384 0.0
C373 C 0.73882 0.40977 0.73265 0.0
C374 C 0.74758 0.4024 0.76526 0.0
C375 C 0.78358 0.39208 0.76814 0.0
C376 C 0.80354 0.41735 0.78921 0.0
C377 C 0.78665 0.35627 0.78232 0.0
C378 C 0.7936 0.39367 0.73185 0.0
C379 C 0.76766 0.40433 0.71174 0.0
C380 C 0.77058 0.40561 0.67706 0.0
C381 C 0.80056 0.3952 0.66263 0.0
C382 C 0.82709 0.38343 0.68288 0.0
C383 C 0.8236 0.38339 0.71793 0.0
H384 H 0.36615 0.83565 0.73018 0.0
H385 H 0.31035 0.92133 0.76517 0.0
H386 H 0.3017 0.89267 0.81959 0.0
H387 H 0.31534 0.7736 0.76661 0.0
H388 H 0.34939 0.74605 0.77648 0.0
H389 H 0.35258 0.77449 0.74165 0.0
H390 H 0.4069 0.79942 0.76668 0.0
H391 H 0.40381 0.77108 0.8017 0.0
H392 H 0.40677 0.8156 0.80868 0.0
H393 H 0.29714 0.85204 0.86988 0.0
H394 H 0.29616 0.80373 0.90924 0.0
H395 H 0.35552 0.7466 0.83955 0.0
C396 C 0.35232 0.84866 0.74929 0.0
C397 C 0.33898 0.8808 0.74336 0.0
C398 C 0.3209 0.89672 0.76913 0.0
C399 C 0.31591 0.88065 0.80014 0.0
C400 C 0.32929 0.84878 0.80499 0.0
C401 C 0.34718 0.8331 0.78014 0.0
C402 C 0.35798 0.79844 0.79065 0.0
C403 C 0.34291 0.77158 0.76748 0.0
C404 C 0.39613 0.79602 0.79201 0.0
C405 C 0.34306 0.7967 0.82519 0.0
C406 C 0.32674 0.8259 0.83334 0.0
C407 C 0.31009 0.82918 0.86376 0.0
C408 C 0.30973 0.80168 0.88603 0.0
C409 C 0.32576 0.77137 0.87756 0.0
C410 C 0.34302 0.76936 0.84695 0.0
H411 H 0.74318 0.66649 0.14544 0.0
H412 H 0.67608 0.5857 0.17375 0.0
H413 H 0.71587 0.56793 0.21758 0.0
H414 H 0.82178 0.62249 0.16143 0.0
H415 H 0.84171 0.65946 0.17804 0.0
H416 H 0.80982 0.66339 0.14651 0.0
H417 H 0.77644 0.70272 0.18523 0.0
H418 H 0.80825 0.69908 0.21671 0.0
H419 H 0.76573 0.6887 0.22673 0.0
H420 H 0.76088 0.56154 0.26045 0.0
H421 H 0.80535 0.56942 0.3022 0.0
H422 H 0.84251 0.65531 0.24647 0.0
C423 C 0.73708 0.64467 0.16044 0.0
C424 C 0.70669 0.62725 0.15606 0.0
C425 C 0.69928 0.59933 0.17668 0.0
C426 C 0.72181 0.58894 0.20145 0.0
C427 C 0.7515 0.60681 0.2052 0.0
C428 C 0.75907 0.63421 0.18539 0.0
C429 C 0.79113 0.65098 0.19641 0.0
C430 C 0.81768 0.64894 0.16896 0.0
C431 C 0.785 0.68752 0.2069 0.0
C432 C 0.80009 0.6292 0.22607 0.0
C433 C 0.77721 0.60354 0.23036 0.0
C434 C 0.77912 0.58132 0.25716 0.0
C435 C 0.80451 0.58604 0.28075 0.0
C436 C 0.82748 0.61296 0.27756 0.0
C437 C 0.82567 0.63422 0.24934 0.0
H438 H 0.62763 0.19054 0.7104 0.0
H439 H 0.65793 0.1154 0.78299 0.0
H440 H 0.65425 0.15713 0.82786 0.0
H441 H 0.67368 0.25682 0.74441 0.0
H442 H 0.64301 0.2887 0.73661 0.0
H443 H 0.64452 0.25222 0.71038 0.0
H444 H 0.58264 0.23929 0.72333 0.0
H445 H 0.58087 0.2759 0.74949 0.0
H446 H 0.5694 0.23545 0.76618 0.0
H447 H 0.65348 0.2081 0.86404 0.0
H448 H 0.65261 0.26462 0.88923 0.0
H449 H 0.62113 0.30642 0.79402 0.0
C450 C 0.63273 0.18269 0.73583 0.0
C451 C 0.64302 0.14962 0.74308 0.0
C452 C 0.65001 0.14055 0.77669 0.0
C453 C 0.64795 0.16407 0.80246 0.0
C454 C 0.6386 0.19663 0.7944 0.0
C455 C 0.63075 0.20593 0.76199 0.0
C456 C 0.6231 0.24304 0.75994 0.0
C457 C 0.64754 0.26125 0.73645 0.0
C458 C 0.58684 0.24875 0.7491 0.0
C459 C 0.62862 0.25315 0.79604 0.0
C460 C 0.63748 0.22599 0.81553 0.0
C461 C 0.646 0.2295 0.84918 0.0
C462 C 0.64554 0.26167 0.86325 0.0
C463 C 0.63642 0.28983 0.84375 0.0
C464 C 0.62755 0.2853 0.8098 0.0
H465 H 0.27537 0.40184 0.17716 0.0
H466 H 0.36768 0.40691 0.23347 0.0
H467 H 0.33531 0.40958 0.28613 0.0
H468 H 0.22509 0.45586 0.23229 0.0
H469 H 0.18858 0.4302 0.22597 0.0
H470 H 0.21905 0.43425 0.19324 0.0
H471 H 0.22469 0.36958 0.1913 0.0
H472 H 0.19451 0.36531 0.22406 0.0
H473 H 0.23514 0.34704 0.229 0.0
H474 H 0.29227 0.40453 0.33254 0.0
H475 H 0.24355 0.39183 0.36801 0.0
H476 H 0.18054 0.38918 0.27977 0.0
C477 C 0.28894 0.40417 0.20048 0.0
C478 C 0.32405 0.40411 0.2013 0.0
C479 C 0.34076 0.40715 0.23232 0.0
C480 C 0.32257 0.40868 0.26228 0.0
C481 C 0.28785 0.40758 0.26052 0.0
C482 C 0.27131 0.40567 0.23027 0.0
C483 C 0.2342 0.40174 0.23474 0.0
C484 C 0.21564 0.43234 0.22073 0.0
C485 C 0.22141 0.36897 0.21885 0.0
C486 C 0.23231 0.4004 0.27235 0.0
C487 C 0.26335 0.40437 0.28691 0.0
C488 C 0.26783 0.4019 0.32138 0.0
C489 C 0.24 0.39465 0.34131 0.0
C490 C 0.20821 0.38954 0.32663 0.0
C491 C 0.20442 0.39315 0.29178 0.0
H492 H 0.93969 0.31685 0.53422 0.0
H493 H 0.0023 0.28629 0.61742 0.0
H494 H 0.04937 0.27931 0.57905 0.0
H495 H 0.98117 0.2617 0.46896 0.0
H496 H 0.97634 0.29383 0.43757 0.0
H497 H 0.94578 0.2892 0.47016 0.0
H498 H 0.95418 0.35164 0.48585 0.0
H499 H 0.98503 0.35636 0.45383 0.0
H500 H 0.99527 0.36659 0.49649 0.0
H501 H 0.09184 0.28816 0.53521 0.0
H502 H 0.12564 0.30635 0.48686 0.0
H503 H 0.03546 0.32853 0.43144 0.0
C504 C 0.96294 0.30746 0.54416 0.0
C505 C 0.96735 0.30223 0.57877 0.0
C506 C -0.0017 0.29043 0.59095 0.0
C507 C 0.02522 0.2863 0.56934 0.0
C508 C 0.02056 0.29342 0.53559 0.0
C509 C 0.99001 0.30302 0.52287 0.0
C510 C 0.99248 0.31259 0.48635 0.0
C511 C 0.97277 0.28784 0.46447 0.0
C512 C 0.98108 0.34894 0.48031 0.0
C513 C 0.0295 0.30894 0.48117 0.0
C514 C 0.04523 0.29748 0.50975 0.0
C515 C 0.07979 0.29611 0.51232 0.0
C516 C 0.09876 0.30677 0.48493 0.0
C517 C 0.08302 0.31841 0.45549 0.0
C518 C 0.04802 0.31892 0.45344 0.0
H519 H 0.34139 0.01181 0.41154 0.0
H520 H 0.34657 0.11541 0.44366 0.0
H521 H 0.34835 0.09669 0.50266 0.0
H522 H 0.29099 0.97972 0.47868 0.0
H523 H 0.31328 0.94079 0.48222 0.0
H524 H 0.31126 0.96233 0.44262 0.0
H525 H 0.37562 0.96298 0.43948 0.0
H526 H 0.37784 0.94141 0.47905 0.0
H527 H 0.39937 0.98077 0.47341 0.0
H528 H 0.34703 0.06669 0.55817 0.0
H529 H 0.34818 0.02758 0.60621 0.0
H530 H 0.3487 0.94329 0.53808 0.0
C531 C 0.34272 0.03052 0.43105 0.0
C532 C 0.34353 0.06509 0.42312 0.0
C533 C 0.34591 0.08882 0.44923 0.0
C534 C 0.34682 0.07842 0.48279 0.0
C535 C 0.34597 0.04417 0.48979 0.0
C536 C 0.34445 0.02054 0.46466 0.0
C537 C 0.34531 0.98526 0.47892 0.0
C538 C 0.3133 0.96589 0.47008 0.0
C539 C 0.37639 0.96651 0.46701 0.0
C540 C 0.34721 0.99273 0.51602 0.0
C541 C 0.34714 0.02687 0.52173 0.0
C542 C 0.34742 0.03992 0.55399 0.0
C543 C 0.34797 0.01752 0.58111 0.0
C544 C 0.3488 0.98245 0.57587 0.0
C545 C 0.34852 0.96999 0.54283 0.0
H546 H 0.99401 0.67048 0.57512 0.0
H547 H 0.08941 0.68694 0.52754 0.0
H548 H 0.06099 0.70105 0.47455 0.0
H549 H 0.96005 0.62685 0.51006 0.0
H550 H 0.91831 0.64243 0.51448 0.0
H551 H 0.94556 0.64118 0.5501 0.0
H552 H 0.93649 0.70479 0.55933 0.0
H553 H 0.90929 0.70621 0.52342 0.0
H554 H 0.94483 0.73386 0.52575 0.0
H555 H 0.02309 0.70627 0.4254 0.0
H556 H 0.97947 0.6955 0.38296 0.0
H557 H 0.90912 0.6729 0.46188 0.0
C558 C 0.00875 0.6781 0.55376 0.0
C559 C 0.04374 0.67805 0.5553 0.0
C560 C 0.06247 0.68697 0.52671 0.0
C561 C 0.04657 0.69535 0.49665 0.0
C562 C 0.01194 0.69447 0.49561 0.0
C563 C 0.99324 0.68584 0.52337 0.0
C564 C 0.95689 0.68159 0.51442 0.0
C565 C 0.94451 0.6459 0.52274 0.0
C566 C 0.93562 0.70821 0.53176 0.0
C567 C 0.95834 0.68764 0.4771 0.0
C568 C 0.99009 0.69613 0.46685 0.0
C569 C -0.00201 0.70023 0.43314 0.0
C570 C 0.97308 0.6942 0.40921 0.0
C571 C 0.94106 0.68348 0.41927 0.0
C572 C 0.9334 0.68137 0.45361 0.0
H573 H 0.65841 0.06592 0.5523 0.0
H574 H 0.68111 0.9854 0.62208 0.0
H575 H 0.67568 0.9444 0.57701 0.0
H576 H 0.59829 0.02139 0.50359 0.0
H577 H 0.6114 0.03805 0.4638 0.0
H578 H 0.61767 0.06219 0.50127 0.0
H579 H 0.68065 0.06678 0.48856 0.0
H580 H 0.67453 0.04285 0.45091 0.0
H581 H 0.70428 0.02916 0.48181 0.0
H582 H 0.66297 0.91128 0.52694 0.0
H583 H 0.6505 0.88785 0.47133 0.0
H584 H 0.6408 0.98838 0.43089 0.0
C585 C 0.66257 0.03971 0.55791 0.0
C586 C 0.67021 0.02903 0.59086 0.0
C587 C 0.67546 0.99443 0.59715 0.0
C588 C 0.67228 0.97078 0.5717 0.0
C589 C 0.66435 0.98195 0.53976 0.0
C590 C 0.66014 0.01554 0.53244 0.0
C591 C 0.6522 0.02032 0.49554 0.0
C592 C 0.61785 0.03644 0.49078 0.0
C593 C 0.67955 0.04101 0.47818 0.0
C594 C 0.65214 0.98415 0.48366 0.0
C595 C 0.65881 0.96255 0.50987 0.0
C596 C 0.65822 0.92789 0.50604 0.0
C597 C 0.65094 0.91482 0.47446 0.0
C598 C 0.64498 0.93631 0.44695 0.0
C599 C 0.64574 0.97147 0.45152 0.0
H600 H 0.43244 0.03915 0.3103 0.0
H601 H 0.35796 0.96204 0.29225 0.0
H602 H 0.40101 0.91862 0.29867 0.0
H603 H 0.50283 0.99521 0.2683 0.0
H604 H 0.5323 0.01026 0.29888 0.0
H605 H 0.49661 0.03523 0.28801 0.0
H606 H 0.48007 0.03741 0.35048 0.0
H607 H 0.51529 0.01203 0.36153 0.0
H608 H 0.47399 0.9988 0.37326 0.0
H609 H 0.44956 0.88386 0.31611 0.0
H610 H 0.5021 0.85988 0.33718 0.0
H611 H 0.54567 0.95952 0.34164 0.0
C612 C 0.42533 0.01319 0.30676 0.0
C613 C 0.39186 0.00395 0.30077 0.0
C614 C 0.38349 0.9697 0.2966 0.0
C615 C 0.40775 0.94485 0.30029 0.0
C616 C 0.44027 0.95478 0.30756 0.0
C617 C 0.44925 0.98814 0.31007 0.0
C618 C 0.48541 0.99209 0.32012 0.0
C619 C 0.50547 0.00921 0.29215 0.0
C620 C 0.48886 0.0112 0.35331 0.0
C621 C 0.49504 0.95571 0.32411 0.0
C622 C 0.46865 0.9346 0.3167 0.0
C623 C 0.47062 0.90006 0.32127 0.0
C624 C 0.50044 0.88673 0.33351 0.0
C625 C 0.52791 0.90789 0.3408 0.0
C626 C 0.5252 0.94276 0.33575 0.0
H627 H 0.02947 0.55923 0.62226 0.0
H628 H 0.12864 0.52064 0.63966 0.0
H629 H 0.10444 0.46596 0.65687 0.0
H630 H 0.98873 0.51873 0.68941 0.0
H631 H 0.95112 0.5095 0.66649 0.0
H632 H 0.97615 0.54533 0.65515 0.0
H633 H 0.98084 0.52347 0.59446 0.0
H634 H 0.9553 0.4879 0.60544 0.0
H635 H 0.99574 0.48159 0.58727 0.0
H636 H 0.06862 0.41727 0.67708 0.0
H637 H 0.02485 0.37484 0.68861 0.0
H638 H 0.94971 0.44394 0.65301 0.0
C639 C 0.04607 0.53908 0.6293 0.0
C640 C 0.08088 0.544 0.62974 0.0
C641 C 0.10191 0.51717 0.63892 0.0
C642 C 0.08837 0.4862 0.649 0.0
C643 C 0.05383 0.48241 0.64908 0.0
C644 C 0.03303 0.50786 0.63861 0.0
C645 C 0.99687 0.49709 0.63981 0.0
C646 C 0.97707 0.51897 0.66417 0.0
C647 C 0.98128 0.49753 0.60465 0.0
C648 C 0.00047 0.4617 0.65298 0.0
C649 C 0.03346 0.45387 0.65879 0.0
C650 C 0.04276 0.42301 0.67226 0.0
C651 C 0.01776 0.39922 0.67904 0.0
C652 C 0.98404 0.40624 0.6717 0.0
C653 C 0.97536 0.43798 0.65878 0.0
H654 H 0.56862 0.04126 0.70412 0.0
H655 H 0.63595 0.95718 0.71271 0.0
H656 H 0.58868 0.91802 0.70407 0.0
H657 H 0.49566 0.99937 0.74504 0.0
H658 H 0.46692 0.01998 0.71718 0.0
H659 H 0.50527 0.0405 0.72881 0.0
H660 H 0.51988 0.04762 0.66616 0.0
H661 H 0.48202 0.02652 0.65429 0.0
H662 H 0.52146 0.01114 0.63978 0.0
H663 H 0.53563 0.88915 0.68487 0.0
H664 H 0.47969 0.87227 0.66476 0.0
H665 H 0.44712 0.97545 0.67154 0.0
C666 C 0.57322 0.01456 0.70527 0.0
C667 C 0.60579 0.00214 0.70925 0.0
C668 C 0.61104 0.96712 0.71023 0.0
C669 C 0.58439 0.94475 0.70509 0.0
C670 C 0.55272 0.95792 0.69973 0.0
C671 C 0.54694 0.99202 0.70067 0.0
C672 C 0.51108 1.00005 0.69251 0.0
C673 C 0.49371 0.0159 0.72269 0.0
C674 C 0.50849 0.02266 0.66134 0.0
C675 C 0.49776 0.96526 0.68564 0.0
C676 C 0.5221 0.94125 0.68983 0.0
C677 C 0.5162 0.90764 0.68225 0.0
C678 C 0.48449 0.89835 0.67058 0.0
C679 C 0.45908 0.92254 0.66689 0.0
C680 C 0.46591 0.95634 0.67464 0.0
H681 H 0.91171 0.5047 0.36294 0.0
H682 H 0.97313 0.59115 0.38657 0.0
H683 H 0.02329 0.55578 0.38573 0.0
H684 H 0.95972 0.44227 0.40958 0.0
H685 H 0.95467 0.4104 0.37815 0.0
H686 H 0.92316 0.44186 0.38336 0.0
H687 H 0.92846 0.45794 0.32077 0.0
H688 H 0.96016 0.42672 0.31546 0.0
H689 H 0.96856 0.46975 0.30433 0.0
H690 H 0.06649 0.51164 0.38279 0.0
H691 H 0.10102 0.46127 0.3747 0.0
H692 H 0.01282 0.40411 0.34792 0.0
C693 C 0.93572 0.51586 0.36842 0.0
C694 C 0.93879 0.55041 0.37517 0.0
C695 C 0.97052 0.5646 0.38146 0.0
C696 C -0.00094 0.54477 0.38109 0.0
C697 C 0.99546 0.51088 0.37383 0.0
C698 C 0.96472 0.49648 0.36736 0.0
C699 C 0.96827 0.45982 0.35828 0.0
C700 C 0.9504 0.43726 0.38387 0.0
C701 C 0.95561 0.45318 0.32259 0.0
C702 C 0.00572 0.45603 0.36063 0.0
C703 C 0.02081 0.48571 0.37011 0.0
C704 C 0.05505 0.48828 0.37511 0.0
C705 C 0.07443 0.45964 0.37045 0.0
C706 C 0.05957 0.42912 0.36025 0.0
C707 C 0.02482 0.42739 0.35507 0.0
H708 H 0.30018 0.44992 0.01789 0.0
H709 H 0.30971 0.48134 0.12093 0.0
H710 H 0.29715 0.53972 0.1044 0.0
H711 H 0.34376 0.51651 0.98574 0.0
H712 H 0.3198 0.52101 0.94785 0.0
H713 H 0.322 0.48095 0.96837 0.0
H714 H 0.25764 0.47841 0.97165 0.0
H715 H 0.25524 0.51852 0.95092 0.0
H716 H 0.23538 0.51235 0.9908 0.0
H717 H 0.29046 0.59551 0.07593 0.0
H718 H 0.29401 0.64422 0.03748 0.0
H719 H 0.29213 0.57658 0.95288 0.0
C720 C 0.29825 0.46896 0.03699 0.0
C721 C 0.30508 0.4613 0.07069 0.0
C722 C 0.30399 0.4869 0.09501 0.0
C723 C 0.29678 0.52003 0.08588 0.0
C724 C 0.29109 0.52716 0.05224 0.0
C725 C 0.29183 0.50233 0.02813 0.0
C726 C 0.28971 0.51721 0.99335 0.0
C727 C 0.32066 0.5084 0.97264 0.0
C728 C 0.25757 0.50595 0.97564 0.0
C729 C 0.28879 0.5542 0.00163 0.0
C730 C 0.28878 0.55947 0.0357 0.0
C731 C 0.28998 0.5917 0.04918 0.0
C732 C 0.29195 0.61922 0.02721 0.0
C733 C 0.29336 0.61416 0.99228 0.0
C734 C 0.29101 0.58124 0.9795 0.0
H735 H 0.40637 0.6669 0.98923 0.0
H736 H 0.44393 0.66499 0.8878 0.0
H737 H 0.50167 0.66702 0.90961 0.0
H738 H 0.46761 0.72173 0.02463 0.0
H739 H 0.47049 0.69915 0.06362 0.0
H740 H 0.43225 0.69845 0.04004 0.0
H741 H 0.43333 0.63352 0.03921 0.0
H742 H 0.47146 0.634 0.06297 0.0
H743 H 0.46957 0.61241 0.02352 0.0
H744 H 0.55484 0.67241 0.94253 0.0
H745 H 0.60034 0.67344 0.98413 0.0
H746 H 0.52816 0.6668 0.06427 0.0
C747 C 0.42681 0.66698 0.97166 0.0
C748 C 0.42091 0.66613 0.93686 0.0
C749 C 0.4481 0.66564 0.91455 0.0
C750 C 0.48087 0.66695 0.9267 0.0
C751 C 0.48586 0.66805 0.9612 0.0
C752 C 0.4596 0.66744 0.98337 0.0
C753 C 0.47172 0.66722 0.01926 0.0
C754 C 0.45981 0.6985 0.03798 0.0
C755 C 0.46088 0.63486 0.03729 0.0
C756 C 0.50896 0.66818 0.01385 0.0
C757 C 0.51655 0.66914 0.98017 0.0
C758 C 0.54922 0.67135 0.96895 0.0
C759 C 0.57485 0.67212 0.99275 0.0
C760 C 0.56769 0.6701 0.02734 0.0
C761 C 0.53429 0.66813 0.03796 0.0
H762 H 0.67504 0.44976 0.96874 0.0
H763 H 0.68582 0.48942 0.86843 0.0
H764 H 0.70204 0.54458 0.89147 0.0
H765 H 0.63452 0.51865 0.99919 0.0
H766 H 0.65246 0.51733 0.04052 0.0
H767 H 0.64887 0.47952 0.01652 0.0
H768 H 0.71225 0.46957 0.02309 0.0
H769 H 0.71601 0.50752 0.04715 0.0
H770 H 0.74118 0.50186 0.01043 0.0
H771 H 0.71104 0.59682 0.92514 0.0
H772 H 0.70627 0.64275 0.9663 0.0
H773 H 0.68599 0.56968 0.04419 0.0
C774 C 0.68195 0.46982 0.95178 0.0
C775 C 0.67983 0.46542 0.91693 0.0
C776 C 0.68766 0.49243 0.89527 0.0
C777 C 0.69709 0.52372 0.90811 0.0
C778 C 0.69821 0.52764 0.94268 0.0
C779 C 0.69063 0.50145 0.96423 0.0
C780 C 0.68886 0.51338 1.00002 0.0
C781 C 0.65412 0.50684 0.01491 0.0
C782 C 0.71621 0.49711 0.02143 0.0
C783 C 0.69545 0.55046 0.99508 0.0
C784 C 0.70174 0.5581 0.962 0.0
C785 C 0.70659 0.5911 0.95121 0.0
C786 C 0.70395 0.61701 0.97471 0.0
C787 C 0.6958 0.60967 0.0083 0.0
C788 C 0.6924 0.57595 0.01864 0.0
H789 H 0.47462 0.38599 0.0615 0.0
H790 H 0.38354 0.38818 0.00287 0.0
H791 H 0.41627 0.39348 0.95127 0.0
H792 H 0.52145 0.44493 0.01111 0.0
H793 H 0.56005 0.42247 0.01498 0.0
H794 H 0.52956 0.41984 0.04778 0.0
H795 H 0.52908 0.35507 0.04309 0.0
H796 H 0.55965 0.35751 0.01037 0.0
H797 H 0.5208 0.3359 0.00317 0.0
H798 H 0.45854 0.39973 0.90584 0.0
H799 H 0.50811 0.40204 0.86941 0.0
H800 H 0.57175 0.393 0.95682 0.0
C801 C 0.46163 0.38765 0.0378 0.0
C802 C 0.42652 0.38668 0.03627 0.0
C803 C 0.41042 0.38866 0.00472 0.0
C804 C 0.42878 0.39185 0.97521 0.0
C805 C 0.46328 0.39274 0.97751 0.0
C806 C 0.47963 0.39037 0.0079 0.0
C807 C 0.51701 0.39073 0.00312 0.0
C808 C 0.53295 0.42131 0.02026 0.0
C809 C 0.53254 0.35784 0.01568 0.0
C810 C 0.51898 0.39365 0.96538 0.0
C811 C 0.48772 0.39516 0.95112 0.0
C812 C 0.4832 0.39842 0.91668 0.0
C813 C 0.51145 0.39981 0.8962 0.0
C814 C 0.54372 0.39749 0.91023 0.0
C815 C 0.54738 0.39453 0.94531 0.0
loop_
_geom_bond_atom_site_label_1
_geom_bond_atom_site_label_2
_geom_bond_distance
_geom_bond_site_symmetry_2
_ccdc_geom_bond_type
C0 O2 1.247 . S
C0 O4 1.258 . S
C1 O8 1.247 . S
C1 O9 1.258 . S
O2 C0 1.247 . S
O2 Zn3 2.028 . S
Zn3 O2 2.028 . S
Zn3 O7 2.035 . S
Zn3 O9 2.035 . S
Zn3 O10 2.028 . S
O4 C0 1.258 . S
O4 Zn5 2.035 . S
Zn5 O4 2.035 . S
Zn5 O6 2.028 . S
Zn5 O8 2.028 . S
Zn5 O11 2.035 . S
O6 Zn5 2.028 . S
O6 C12 1.247 . S
O7 Zn3 2.035 . S
O7 C12 1.258 . S
O8 C1 1.247 . S
O8 Zn5 2.028 . S
O9 C1 1.258 . S
O9 Zn3 2.035 . S
O10 Zn3 2.028 . S
O10 C13 1.247 . S
O11 Zn5 2.035 . S
O11 C13 1.258 . S
C12 O6 1.247 . S
C12 O7 1.258 . S
C13 O10 1.247 . S
C13 O11 1.258 . S
C14 O16 1.247 . S
C14 O18 1.258 . S
C15 O22 1.247 . S
C15 O23 1.258 . S
O16 C14 1.247 . S
O16 Zn17 2.028 . S
Zn17 O16 2.028 . S
Zn17 O21 2.035 . S
Zn17 O23 2.035 . S
Zn17 O24 2.028 . S
O18 C14 1.258 . S
O18 Zn19 2.035 . S
Zn19 O18 2.035 . S
Zn19 O20 2.028 . S
Zn19 O22 2.028 . S
Zn19 O25 2.035 . S
O20 Zn19 2.028 . S
O20 C26 1.247 . S
O21 Zn17 2.035 . S
O21 C26 1.258 . S
O22 C15 1.247 . S
O22 Zn19 2.028 . S
O23 C15 1.258 . S
O23 Zn17 2.035 . S
O24 Zn17 2.028 . S
O24 C27 1.247 . S
O25 Zn19 2.035 . S
O25 C27 1.258 . S
C26 O20 1.247 . S
C26 O21 1.258 . S
C27 O24 1.247 . S
C27 O25 1.258 . S
C28 O30 1.247 . S
C28 O32 1.258 . S
C29 O36 1.247 . S
C29 O37 1.258 . S
O30 C28 1.247 . S
O30 Zn31 2.028 . S
Zn31 O30 2.028 . S
Zn31 O35 2.035 . S
Zn31 O37 2.035 . S
Zn31 O38 2.028 . S
O32 C28 1.258 . S
O32 Zn33 2.035 . S
Zn33 O32 2.035 . S
Zn33 O34 2.028 . S
Zn33 O36 2.028 . S
Zn33 O39 2.035 . S
O34 Zn33 2.028 . S
O34 C40 1.247 . S
O35 Zn31 2.035 . S
O35 C40 1.258 . S
O36 C29 1.247 . S
O36 Zn33 2.028 . S
O37 C29 1.258 . S
O37 Zn31 2.035 . S
O38 Zn31 2.028 . S
O38 C41 1.247 . S
O39 Zn33 2.035 . S
O39 C41 1.258 . S
C40 O34 1.247 . S
C40 O35 1.258 . S
C41 O38 1.247 . S
C41 O39 1.258 . S
C42 O44 1.247 . S
C42 O46 1.258 . S
C43 O50 1.247 . S
C43 O51 1.258 . S
O44 C42 1.247 . S
O44 Zn45 2.028 . S
Zn45 O44 2.028 . S
Zn45 O49 2.035 . S
Zn45 O51 2.035 . S
Zn45 O52 2.028 . S
O46 C42 1.258 . S
O46 Zn47 2.035 . S
Zn47 O46 2.035 . S
Zn47 O48 2.028 . S
Zn47 O50 2.028 . S
Zn47 O53 2.035 . S
O48 Zn47 2.028 . S
O48 C54 1.247 . S
O49 Zn45 2.035 . S
O49 C54 1.258 . S
O50 C43 1.247 . S
O50 Zn47 2.028 . S
O51 C43 1.258 . S
O51 Zn45 2.035 . S
O52 Zn45 2.028 . S
O52 C55 1.247 . S
O53 Zn47 2.035 . S
O53 C55 1.258 . S
C54 O48 1.247 . S
C54 O49 1.258 . S
C55 O52 1.247 . S
C55 O53 1.258 . S
C56 O58 1.247 . S
C56 O60 1.258 . S
C57 O64 1.247 . S
C57 O65 1.258 . S
O58 C56 1.247 . S
O58 Zn59 2.028 . S
Zn59 O58 2.028 . S
Zn59 O63 2.035 . S
Zn59 O65 2.035 . S
Zn59 O66 2.028 . S
O60 C56 1.258 . S
O60 Zn61 2.035 . S
Zn61 O60 2.035 . S
Zn61 O62 2.028 . S
Zn61 O64 2.028 . S
Zn61 O67 2.035 . S
O62 Zn61 2.028 . S
O62 C68 1.247 . S
O63 Zn59 2.035 . S
O63 C68 1.258 . S
O64 C57 1.247 . S
O64 Zn61 2.028 . S
O65 C57 1.258 . S
O65 Zn59 2.035 . S
O66 Zn59 2.028 . S
O66 C69 1.247 . S
O67 Zn61 2.035 . S
O67 C69 1.258 . S
C68 O62 1.247 . S
C68 O63 1.258 . S
C69 O66 1.247 . S
C69 O67 1.258 . S
C70 O72 1.247 . S
C70 O74 1.258 . S
C71 O78 1.247 . S
C71 O79 1.258 . S
O72 C70 1.247 . S
O72 Zn73 2.028 . S
Zn73 O72 2.028 . S
Zn73 O77 2.035 . S
Zn73 O79 2.035 . S
Zn73 O80 2.028 . S
O74 C70 1.258 . S
O74 Zn75 2.035 . S
Zn75 O74 2.035 . S
Zn75 O76 2.028 . S
Zn75 O78 2.028 . S
Zn75 O81 2.035 . S
O76 Zn75 2.028 . S
O76 C82 1.247 . S
O77 Zn73 2.035 . S
O77 C82 1.258 . S
O78 C71 1.247 . S
O78 Zn75 2.028 . S
O79 C71 1.258 . S
O79 Zn73 2.035 . S
O80 Zn73 2.028 . S
O80 C83 1.247 . S
O81 Zn75 2.035 . S
O81 C83 1.258 . S
C82 O76 1.247 . S
C82 O77 1.258 . S
C83 O80 1.247 . S
C83 O81 1.258 . S
C84 O86 1.247 . S
C84 O88 1.258 . S
C85 O92 1.247 . S
C85 O93 1.258 . S
O86 C84 1.247 . S
O86 Zn87 2.028 . S
Zn87 O86 2.028 . S
Zn87 O91 2.035 . S
Zn87 O93 2.035 . S
Zn87 O94 2.028 . S
O88 C84 1.258 . S
O88 Zn89 2.035 . S
Zn89 O88 2.035 . S
Zn89 O90 2.028 . S
Zn89 O92 2.028 . S
Zn89 O95 2.035 . S
O90 Zn89 2.028 . S
O90 C96 1.247 . S
O91 Zn87 2.035 . S
O91 C96 1.258 . S
O92 C85 1.247 . S
O92 Zn89 2.028 . S
O93 C85 1.258 . S
O93 Zn87 2.035 . S
O94 Zn87 2.028 . S
O94 C97 1.247 . S
O95 Zn89 2.035 . S
O95 C97 1.258 . S
C96 O90 1.247 . S
C96 O91 1.258 . S
C97 O94 1.247 . S
C97 O95 1.258 . S
C98 O100 1.247 . S
C98 O102 1.258 . S
C99 O106 1.247 . S
C99 O107 1.258 . S
O100 C98 1.247 . S
O100 Zn101 2.028 . S
Zn101 O100 2.028 . S
Zn101 O105 2.035 . S
Zn101 O107 2.035 . S
Zn101 O108 2.028 . S
O102 C98 1.258 . S
O102 Zn103 2.035 . S
Zn103 O102 2.035 . S
Zn103 O104 2.028 . S
Zn103 O106 2.028 . S
Zn103 O109 2.035 . S
O104 Zn103 2.028 . S
O104 C110 1.247 . S
O105 Zn101 2.035 . S
O105 C110 1.258 . S
O106 C99 1.247 . S
O106 Zn103 2.028 . S
O107 C99 1.258 . S
O107 Zn101 2.035 . S
O108 Zn101 2.028 . S
O108 C111 1.247 . S
O109 Zn103 2.035 . S
O109 C111 1.258 . S
C110 O104 1.247 . S
C110 O105 1.258 . S
C111 O108 1.247 . S
C111 O109 1.258 . S
C112 O114 1.247 . S
C112 O116 1.258 . S
C113 O120 1.247 . S
C113 O121 1.258 . S
O114 C112 1.247 . S
O114 Zn115 2.028 . S
Zn115 O114 2.028 . S
Zn115 O119 2.035 . S
Zn115 O121 2.035 . S
Zn115 O122 2.028 . S
O116 C112 1.258 . S
O116 Zn117 2.035 . S
Zn117 O116 2.035 . S
Zn117 O118 2.028 . S
Zn117 O120 2.028 . S
Zn117 O123 2.035 . S
O118 Zn117 2.028 . S
O118 C124 1.247 . S
O119 Zn115 2.035 . S
O119 C124 1.258 . S
O120 C113 1.247 . S
O120 Zn117 2.028 . S
O121 C113 1.258 . S
O121 Zn115 2.035 . S
O122 Zn115 2.028 . S
O122 C125 1.247 . S
O123 Zn117 2.035 . S
O123 C125 1.258 . S
C124 O118 1.247 . S
C124 O119 1.258 . S
C125 O122 1.247 . S
C125 O123 1.258 . S
C126 O128 1.247 . S
C126 O130 1.258 . S
C127 O134 1.247 . S
C127 O135 1.258 . S
O128 C126 1.247 . S
O128 Zn129 2.028 . S
Zn129 O128 2.028 . S
Zn129 O133 2.035 . S
Zn129 O135 2.035 . S
Zn129 O136 2.028 . S
O130 C126 1.258 . S
O130 Zn131 2.035 . S
Zn131 O130 2.035 . S
Zn131 O132 2.028 . S
Zn131 O134 2.028 . S
Zn131 O137 2.035 . S
O132 Zn131 2.028 . S
O132 C138 1.247 . S
O133 Zn129 2.035 . S
O133 C138 1.258 . S
O134 C127 1.247 . S
O134 Zn131 2.028 . S
O135 C127 1.258 . S
O135 Zn129 2.035 . S
O136 Zn129 2.028 . S
O136 C139 1.247 . S
O137 Zn131 2.035 . S
O137 C139 1.258 . S
C138 O132 1.247 . S
C138 O133 1.258 . S
C139 O136 1.247 . S
C139 O137 1.258 . S
C140 O142 1.247 . S
C140 O144 1.258 . S
C141 O148 1.247 . S
C141 O149 1.258 . S
O142 C140 1.247 . S
O142 Zn143 2.028 . S
Zn143 O142 2.028 . S
Zn143 O147 2.035 . S
Zn143 O149 2.035 . S
Zn143 O150 2.028 . S
O144 C140 1.258 . S
O144 Zn145 2.035 . S
Zn145 O144 2.035 . S
Zn145 O146 2.028 . S
Zn145 O148 2.028 . S
Zn145 O151 2.035 . S
O146 Zn145 2.028 . S
O146 C152 1.247 . S
O147 Zn143 2.035 . S
O147 C152 1.258 . S
O148 C141 1.247 . S
O148 Zn145 2.028 . S
O149 C141 1.258 . S
O149 Zn143 2.035 . S
O150 Zn143 2.028 . S
O150 C153 1.247 . S
O151 Zn145 2.035 . S
O151 C153 1.258 . S
C152 O146 1.247 . S
C152 O147 1.258 . S
C153 O150 1.247 . S
C153 O151 1.258 . S
C154 O156 1.247 . S
C154 O158 1.258 . S
C155 O162 1.247 . S
C155 O163 1.258 . S
O156 C154 1.247 . S
O156 Zn157 2.028 . S
Zn157 O156 2.028 . S
Zn157 O161 2.035 . S
Zn157 O163 2.035 . S
Zn157 O164 2.028 . S
O158 C154 1.258 . S
O158 Zn159 2.035 . S
Zn159 O158 2.035 . S
Zn159 O160 2.028 . S
Zn159 O162 2.028 . S
Zn159 O165 2.035 . S
O160 Zn159 2.028 . S
O160 C166 1.247 . S
O161 Zn157 2.035 . S
O161 C166 1.258 . S
O162 C155 1.247 . S
O162 Zn159 2.028 . S
O163 C155 1.258 . S
O163 Zn157 2.035 . S
O164 Zn157 2.028 . S
O164 C167 1.247 . S
O165 Zn159 2.035 . S
O165 C167 1.258 . S
C166 O160 1.247 . S
C166 O161 1.258 . S
C167 O164 1.247 . S
C167 O165 1.258 . S
H168 C180 0.930 . S
H169 C182 0.930 . S
H170 C183 0.930 . S
H171 C187 0.959 . S
H172 C187 0.959 . S
H173 C187 0.961 . S
H174 C188 0.960 . S
H175 C188 0.961 . S
H176 C188 0.959 . S
H177 C191 0.929 . S
H178 C192 0.931 . S
H179 C194 0.930 . S
C180 H168 0.930 . S
C180 C181 1.399 . S
C180 C185 1.399 . S
C181 C180 1.399 . S
C181 C182 1.376 . S
C182 H169 0.930 . S
C182 C181 1.376 . S
C182 C183 1.388 . S
C183 H170 0.930 . S
C183 C182 1.388 . S
C183 C184 1.390 . S
C184 C183 1.390 . S
C184 C185 1.394 . S
C184 C190 1.465 . S
C185 C180 1.399 . S
C185 C184 1.394 . S
C185 C186 1.516 . S
C186 C185 1.516 . S
C186 C187 1.502 . S
C186 C188 1.561 . S
C186 C189 1.526 . S
C187 H171 0.959 . S
C187 H172 0.959 . S
C187 H173 0.961 . S
C187 C186 1.502 . S
C188 H174 0.960 . S
C188 H175 0.961 . S
C188 H176 0.959 . S
C188 C186 1.561 . S
C189 C186 1.526 . S
C189 C190 1.396 . S
C189 C194 1.390 . S
C190 C184 1.465 . S
C190 C189 1.396 . S
C190 C191 1.399 . S
C191 H177 0.929 . S
C191 C190 1.399 . S
C191 C192 1.385 . S
C192 H178 0.931 . S
C192 C191 1.385 . S
C192 C193 1.389 . S
C193 C192 1.389 . S
C193 C194 1.387 . S
C194 H179 0.930 . S
C194 C189 1.390 . S
C194 C193 1.387 . S
H195 C207 0.930 . S
H196 C209 0.930 . S
H197 C210 0.930 . S
H198 C214 0.959 . S
H199 C214 0.959 . S
H200 C214 0.961 . S
H201 C215 0.960 . S
H202 C215 0.961 . S
H203 C215 0.959 . S
H204 C218 0.929 . S
H205 C219 0.931 . S
H206 C221 0.930 . S
C207 H195 0.930 . S
C207 C208 1.399 . S
C207 C212 1.399 . S
C208 C207 1.399 . S
C208 C209 1.376 . S
C209 H196 0.930 . S
C209 C208 1.376 . S
C209 C210 1.388 . S
C210 H197 0.930 . S
C210 C209 1.388 . S
C210 C211 1.390 . S
C211 C210 1.390 . S
C211 C212 1.394 . S
C211 C217 1.465 . S
C212 C207 1.399 . S
C212 C211 1.394 . S
C212 C213 1.516 . S
C213 C212 1.516 . S
C213 C214 1.502 . S
C213 C215 1.561 . S
C213 C216 1.526 . S
C214 H198 0.959 . S
C214 H199 0.959 . S
C214 H200 0.961 . S
C214 C213 1.502 . S
C215 H201 0.960 . S
C215 H202 0.961 . S
C215 H203 0.959 . S
C215 C213 1.561 . S
C216 C213 1.526 . S
C216 C217 1.396 . S
C216 C221 1.390 . S
C217 C211 1.465 . S
C217 C216 1.396 . S
C217 C218 1.399 . S
C218 H204 0.929 . S
C218 C217 1.399 . S
C218 C219 1.385 . S
C219 H205 0.931 . S
C219 C218 1.385 . S
C219 C220 1.389 . S
C220 C219 1.389 . S
C220 C221 1.387 . S
C221 H206 0.930 . S
C221 C216 1.390 . S
C221 C220 1.387 . S
H222 C234 0.930 . S
H223 C236 0.930 . S
H224 C237 0.930 . S
H225 C241 0.959 . S
H226 C241 0.959 . S
H227 C241 0.961 . S
H228 C242 0.960 . S
H229 C242 0.961 . S
H230 C242 0.959 . S
H231 C245 0.929 . S
H232 C246 0.931 . S
H233 C248 0.930 . S
C234 H222 0.930 . S
C234 C235 1.399 . S
C234 C239 1.399 . S
C235 C234 1.399 . S
C235 C236 1.376 . S
C236 H223 0.930 . S
C236 C235 1.376 . S
C236 C237 1.388 . S
C237 H224 0.930 . S
C237 C236 1.388 . S
C237 C238 1.390 . S
C238 C237 1.390 . S
C238 C239 1.394 . S
C238 C244 1.465 . S
C239 C234 1.399 . S
C239 C238 1.394 . S
C239 C240 1.516 . S
C240 C239 1.516 . S
C240 C241 1.502 . S
C240 C242 1.561 . S
C240 C243 1.526 . S
C241 H225 0.959 . S
C241 H226 0.959 . S
C241 H227 0.961 . S
C241 C240 1.502 . S
C242 H228 0.960 . S
C242 H229 0.961 . S
C242 H230 0.959 . S
C242 C240 1.561 . S
C243 C240 1.526 . S
C243 C244 1.396 . S
C243 C248 1.390 . S
C244 C238 1.465 . S
C244 C243 1.396 . S
C244 C245 1.399 . S
C245 H231 0.929 . S
C245 C244 1.399 . S
C245 C246 1.385 . S
C246 H232 0.931 . S
C246 C245 1.385 . S
C246 C247 1.389 . S
C247 C246 1.389 . S
C247 C248 1.387 . S
C248 H233 0.930 . S
C248 C243 1.390 . S
C248 C247 1.387 . S
H249 C261 0.930 . S
H250 C263 0.930 . S
H251 C264 0.930 . S
H252 C268 0.959 . S
H253 C268 0.959 . S
H254 C268 0.961 . S
H255 C269 0.960 . S
H256 C269 0.961 . S
H257 C269 0.959 . S
H258 C272 0.929 . S
H259 C273 0.931 . S
H260 C275 0.930 . S
C261 H249 0.930 . S
C261 C262 1.399 . S
C261 C266 1.399 . S
C262 C261 1.399 . S
C262 C263 1.376 . S
C263 H250 0.930 . S
C263 C262 1.376 . S
C263 C264 1.388 . S
C264 H251 0.930 . S
C264 C263 1.388 . S
C264 C265 1.390 . S
C265 C264 1.390 . S
C265 C266 1.394 . S
C265 C271 1.465 . S
C266 C261 1.399 . S
C266 C265 1.394 . S
C266 C267 1.516 . S
C267 C266 1.516 . S
C267 C268 1.502 . S
C267 C269 1.561 . S
C267 C270 1.526 . S
C268 H252 0.959 . S
C268 H253 0.959 . S
C268 H254 0.961 . S
C268 C267 1.502 . S
C269 H255 0.960 . S
C269 H256 0.961 . S
C269 H257 0.959 . S
C269 C267 1.561 . S
C270 C267 1.526 . S
C270 C271 1.396 . S
C270 C275 1.390 . S
C271 C265 1.465 . S
C271 C270 1.396 . S
C271 C272 1.399 . S
C272 H258 0.929 . S
C272 C271 1.399 . S
C272 C273 1.385 . S
C273 H259 0.931 . S
C273 C272 1.385 . S
C273 C274 1.389 . S
C274 C273 1.389 . S
C274 C275 1.387 . S
C275 H260 0.930 . S
C275 C270 1.390 . S
C275 C274 1.387 . S
H276 C288 0.930 . S
H277 C290 0.930 . S
H278 C291 0.930 . S
H279 C295 0.959 . S
H280 C295 0.959 . S
H281 C295 0.961 . S
H282 C296 0.960 . S
H283 C296 0.961 . S
H284 C296 0.959 . S
H285 C299 0.929 . S
H286 C300 0.931 . S
H287 C302 0.930 . S
C288 H276 0.930 . S
C288 C289 1.399 . S
C288 C293 1.399 . S
C289 C288 1.399 . S
C289 C290 1.376 . S
C290 H277 0.930 . S
C290 C289 1.376 . S
C290 C291 1.388 . S
C291 H278 0.930 . S
C291 C290 1.388 . S
C291 C292 1.390 . S
C292 C291 1.390 . S
C292 C293 1.394 . S
C292 C298 1.465 . S
C293 C288 1.399 . S
C293 C292 1.394 . S
C293 C294 1.516 . S
C294 C293 1.516 . S
C294 C295 1.502 . S
C294 C296 1.561 . S
C294 C297 1.526 . S
C295 H279 0.959 . S
C295 H280 0.959 . S
C295 H281 0.961 . S
C295 C294 1.502 . S
C296 H282 0.960 . S
C296 H283 0.961 . S
C296 H284 0.959 . S
C296 C294 1.561 . S
C297 C294 1.526 . S
C297 C298 1.396 . S
C297 C302 1.390 . S
C298 C292 1.465 . S
C298 C297 1.396 . S
C298 C299 1.399 . S
C299 H285 0.929 . S
C299 C298 1.399 . S
C299 C300 1.385 . S
C300 H286 0.931 . S
C300 C299 1.385 . S
C300 C301 1.389 . S
C301 C300 1.389 . S
C301 C302 1.387 . S
C302 H287 0.930 . S
C302 C297 1.390 . S
C302 C301 1.387 . S
H303 C315 0.930 . S
H304 C317 0.930 . S
H305 C318 0.930 . S
H306 C322 0.959 . S
H307 C322 0.959 . S
H308 C322 0.961 . S
H309 C323 0.960 . S
H310 C323 0.961 . S
H311 C323 0.959 . S
H312 C326 0.929 . S
H313 C327 0.931 . S
H314 C329 0.930 . S
C315 H303 0.930 . S
C315 C316 1.399 . S
C315 C320 1.399 . S
C316 C315 1.399 . S
C316 C317 1.376 . S
C317 H304 0.930 . S
C317 C316 1.376 . S
C317 C318 1.388 . S
C318 H305 0.930 . S
C318 C317 1.388 . S
C318 C319 1.390 . S
C319 C318 1.390 . S
C319 C320 1.394 . S
C319 C325 1.465 . S
C320 C315 1.399 . S
C320 C319 1.394 . S
C320 C321 1.516 . S
C321 C320 1.516 . S
C321 C322 1.502 . S
C321 C323 1.561 . S
C321 C324 1.526 . S
C322 H306 0.959 . S
C322 H307 0.959 . S
C322 H308 0.961 . S
C322 C321 1.502 . S
C323 H309 0.960 . S
C323 H310 0.961 . S
C323 H311 0.959 . S
C323 C321 1.561 . S
C324 C321 1.526 . S
C324 C325 1.396 . S
C324 C329 1.390 . S
C325 C319 1.465 . S
C325 C324 1.396 . S
C325 C326 1.399 . S
C326 H312 0.929 . S
C326 C325 1.399 . S
C326 C327 1.385 . S
C327 H313 0.931 . S
C327 C326 1.385 . S
C327 C328 1.389 . S
C328 C327 1.389 . S
C328 C329 1.387 . S
C329 H314 0.930 . S
C329 C324 1.390 . S
C329 C328 1.387 . S
H330 C342 0.930 . S
H331 C344 0.930 . S
H332 C345 0.930 . S
H333 C349 0.959 . S
H334 C349 0.959 . S
H335 C349 0.961 . S
H336 C350 0.960 . S
H337 C350 0.961 . S
H338 C350 0.959 . S
H339 C353 0.929 . S
H340 C354 0.931 . S
H341 C356 0.930 . S
C342 H330 0.930 . S
C342 C343 1.399 . S
C342 C347 1.399 . S
C343 C342 1.399 . S
C343 C344 1.376 . S
C344 H331 0.930 . S
C344 C343 1.376 . S
C344 C345 1.388 . S
C345 H332 0.930 . S
C345 C344 1.388 . S
C345 C346 1.390 . S
C346 C345 1.390 . S
C346 C347 1.394 . S
C346 C352 1.465 . S
C347 C342 1.399 . S
C347 C346 1.394 . S
C347 C348 1.516 . S
C348 C347 1.516 . S
C348 C349 1.502 . S
C348 C350 1.561 . S
C348 C351 1.526 . S
C349 H333 0.959 . S
C349 H334 0.959 . S
C349 H335 0.961 . S
C349 C348 1.502 . S
C350 H336 0.960 . S
C350 H337 0.961 . S
C350 H338 0.959 . S
C350 C348 1.561 . S
C351 C348 1.526 . S
C351 C352 1.396 . S
C351 C356 1.390 . S
C352 C346 1.465 . S
C352 C351 1.396 . S
C352 C353 1.399 . S
C353 H339 0.929 . S
C353 C352 1.399 . S
C353 C354 1.385 . S
C354 H340 0.931 . S
C354 C353 1.385 . S
C354 C355 1.389 . S
C355 C354 1.389 . S
C355 C356 1.387 . S
C356 H341 0.930 . S
C356 C351 1.390 . S
C356 C355 1.387 . S
H357 C369 0.930 . S
H358 C371 0.930 . S
H359 C372 0.930 . S
H360 C376 0.959 . S
H361 C376 0.959 . S
H362 C376 0.961 . S
H363 C377 0.960 . S
H364 C377 0.961 . S
H365 C377 0.959 . S
H366 C380 0.929 . S
H367 C381 0.931 . S
H368 C383 0.930 . S
C369 H357 0.930 . S
C369 C370 1.399 . S
C369 C374 1.399 . S
C370 C369 1.399 . S
C370 C371 1.376 . S
C371 H358 0.930 . S
C371 C370 1.376 . S
C371 C372 1.388 . S
C372 H359 0.930 . S
C372 C371 1.388 . S
C372 C373 1.390 . S
C373 C372 1.390 . S
C373 C374 1.394 . S
C373 C379 1.465 . S
C374 C369 1.399 . S
C374 C373 1.394 . S
C374 C375 1.516 . S
C375 C374 1.516 . S
C375 C376 1.502 . S
C375 C377 1.561 . S
C375 C378 1.526 . S
C376 H360 0.959 . S
C376 H361 0.959 . S
C376 H362 0.961 . S
C376 C375 1.502 . S
C377 H363 0.960 . S
C377 H364 0.961 . S
C377 H365 0.959 . S
C377 C375 1.561 . S
C378 C375 1.526 . S
C378 C379 1.396 . S
C378 C383 1.390 . S
C379 C373 1.465 . S
C379 C378 1.396 . S
C379 C380 1.399 . S
C380 H366 0.929 . S
C380 C379 1.399 . S
C380 C381 1.385 . S
C381 H367 0.931 . S
C381 C380 1.385 . S
C381 C382 1.389 . S
C382 C381 1.389 . S
C382 C383 1.387 . S
C383 H368 0.930 . S
C383 C378 1.390 . S
C383 C382 1.387 . S
H384 C396 0.930 . S
H385 C398 0.930 . S
H386 C399 0.930 . S
H387 C403 0.959 . S
H388 C403 0.959 . S
H389 C403 0.961 . S
H390 C404 0.960 . S
H391 C404 0.961 . S
H392 C404 0.959 . S
H393 C407 0.929 . S
H394 C408 0.931 . S
H395 C410 0.930 . S
C396 H384 0.930 . S
C396 C397 1.399 . S
C396 C401 1.399 . S
C397 C396 1.399 . S
C397 C398 1.376 . S
C398 H385 0.930 . S
C398 C397 1.376 . S
C398 C399 1.388 . S
C399 H386 0.930 . S
C399 C398 1.388 . S
C399 C400 1.390 . S
C400 C399 1.390 . S
C400 C401 1.394 . S
C400 C406 1.465 . S
C401 C396 1.399 . S
C401 C400 1.394 . S
C401 C402 1.516 . S
C402 C401 1.516 . S
C402 C403 1.502 . S
C402 C404 1.561 . S
C402 C405 1.526 . S
C403 H387 0.959 . S
C403 H388 0.959 . S
C403 H389 0.961 . S
C403 C402 1.502 . S
C404 H390 0.960 . S
C404 H391 0.961 . S
C404 H392 0.959 . S
C404 C402 1.561 . S
C405 C402 1.526 . S
C405 C406 1.396 . S
C405 C410 1.390 . S
C406 C400 1.465 . S
C406 C405 1.396 . S
C406 C407 1.399 . S
C407 H393 0.929 . S
C407 C406 1.399 . S
C407 C408 1.385 . S
C408 H394 0.931 . S
C408 C407 1.385 . S
C408 C409 1.389 . S
C409 C408 1.389 . S
C409 C410 1.387 . S
C410 H395 0.930 . S
C410 C405 1.390 . S
C410 C409 1.387 . S
H411 C423 0.930 . S
H412 C425 0.930 . S
H413 C426 0.930 . S
H414 C430 0.959 . S
H415 C430 0.959 . S
H416 C430 0.961 . S
H417 C431 0.960 . S
H418 C431 0.961 . S
H419 C431 0.959 . S
H420 C434 0.929 . S
H421 C435 0.931 . S
H422 C437 0.930 . S
C423 H411 0.930 . S
C423 C424 1.399 . S
C423 C428 1.399 . S
C424 C423 1.399 . S
C424 C425 1.376 . S
C425 H412 0.930 . S
C425 C424 1.376 . S
C425 C426 1.388 . S
C426 H413 0.930 . S
C426 C425 1.388 . S
C426 C427 1.390 . S
C427 C426 1.390 . S
C427 C428 1.394 . S
C427 C433 1.465 . S
C428 C423 1.399 . S
C428 C427 1.394 . S
C428 C429 1.516 . S
C429 C428 1.516 . S
C429 C430 1.502 . S
C429 C431 1.561 . S
C429 C432 1.526 . S
C430 H414 0.959 . S
C430 H415 0.959 . S
C430 H416 0.961 . S
C430 C429 1.502 . S
C431 H417 0.960 . S
C431 H418 0.961 . S
C431 H419 0.959 . S
C431 C429 1.561 . S
C432 C429 1.526 . S
C432 C433 1.396 . S
C432 C437 1.390 . S
C433 C427 1.465 . S
C433 C432 1.396 . S
C433 C434 1.399 . S
C434 H420 0.929 . S
C434 C433 1.399 . S
C434 C435 1.385 . S
C435 H421 0.931 . S
C435 C434 1.385 . S
C435 C436 1.389 . S
C436 C435 1.389 . S
C436 C437 1.387 . S
C437 H422 0.930 . S
C437 C432 1.390 . S
C437 C436 1.387 . S
H438 C450 0.930 . S
H439 C452 0.930 . S
H440 C453 0.930 . S
H441 C457 0.959 . S
H442 C457 0.959 . S
H443 C457 0.961 . S
H444 C458 0.960 . S
H445 C458 0.961 . S
H446 C458 0.959 . S
H447 C461 0.929 . S
H448 C462 0.931 . S
H449 C464 0.930 . S
C450 H438 0.930 . S
C450 C451 1.399 . S
C450 C455 1.399 . S
C451 C450 1.399 . S
C451 C452 1.376 . S
C452 H439 0.930 . S
C452 C451 1.376 . S
C452 C453 1.388 . S
C453 H440 0.930 . S
C453 C452 1.388 . S
C453 C454 1.390 . S
C454 C453 1.390 . S
C454 C455 1.394 . S
C454 C460 1.465 . S
C455 C450 1.399 . S
C455 C454 1.394 . S
C455 C456 1.516 . S
C456 C455 1.516 . S
C456 C457 1.502 . S
C456 C458 1.561 . S
C456 C459 1.526 . S
C457 H441 0.959 . S
C457 H442 0.959 . S
C457 H443 0.961 . S
C457 C456 1.502 . S
C458 H444 0.960 . S
C458 H445 0.961 . S
C458 H446 0.959 . S
C458 C456 1.561 . S
C459 C456 1.526 . S
C459 C460 1.396 . S
C459 C464 1.390 . S
C460 C454 1.465 . S
C460 C459 1.396 . S
C460 C461 1.399 . S
C461 H447 0.929 . S
C461 C460 1.399 . S
C461 C462 1.385 . S
C462 H448 0.931 . S
C462 C461 1.385 . S
C462 C463 1.389 . S
C463 C462 1.389 . S
C463 C464 1.387 . S
C464 H449 0.930 . S
C464 C459 1.390 . S
C464 C463 1.387 . S
H465 C477 0.930 . S
H466 C479 0.930 . S
H467 C480 0.930 . S
H468 C484 0.959 . S
H469 C484 0.959 . S
H470 C484 0.961 . S
H471 C485 0.960 . S
H472 C485 0.961 . S
H473 C485 0.959 . S
H474 C488 0.929 . S
H475 C489 0.931 . S
H476 C491 0.930 . S
C477 H465 0.930 . S
C477 C478 1.399 . S
C477 C482 1.399 . S
C478 C477 1.399 . S
C478 C479 1.376 . S
C479 H466 0.930 . S
C479 C478 1.376 . S
C479 C480 1.388 . S
C480 H467 0.930 . S
C480 C479 1.388 . S
C480 C481 1.390 . S
C481 C480 1.390 . S
C481 C482 1.394 . S
C481 C487 1.465 . S
C482 C477 1.399 . S
C482 C481 1.394 . S
C482 C483 1.516 . S
C483 C482 1.516 . S
C483 C484 1.502 . S
C483 C485 1.561 . S
C483 C486 1.526 . S
C484 H468 0.959 . S
C484 H469 0.959 . S
C484 H470 0.961 . S
C484 C483 1.502 . S
C485 H471 0.960 . S
C485 H472 0.961 . S
C485 H473 0.959 . S
C485 C483 1.561 . S
C486 C483 1.526 . S
C486 C487 1.396 . S
C486 C491 1.390 . S
C487 C481 1.465 . S
C487 C486 1.396 . S
C487 C488 1.399 . S
C488 H474 0.929 . S
C488 C487 1.399 . S
C488 C489 1.385 . S
C489 H475 0.931 . S
C489 C488 1.385 . S
C489 C490 1.389 . S
C490 C489 1.389 . S
C490 C491 1.387 . S
C491 H476 0.930 . S
C491 C486 1.390 . S
C491 C490 1.387 . S
H492 C504 0.930 . S
H493 C506 0.930 . S
H494 C507 0.930 . S
H495 C511 0.959 . S
H496 C511 0.959 . S
H497 C511 0.961 . S
H498 C512 0.960 . S
H499 C512 0.961 . S
H500 C512 0.959 . S
H501 C515 0.929 . S
H502 C516 0.931 . S
H503 C518 0.930 . S
C504 H492 0.930 . S
C504 C505 1.399 . S
C504 C509 1.399 . S
C505 C504 1.399 . S
C505 C506 1.376 1_655 S
C506 H493 0.930 . S
C506 C505 1.376 1_455 S
C506 C507 1.388 . S
C507 H494 0.930 . S
C507 C506 1.388 . S
C507 C508 1.390 . S
C508 C507 1.390 . S
C508 C509 1.394 1_455 S
C508 C514 1.465 . S
C509 C504 1.399 . S
C509 C508 1.394 1_655 S
C509 C510 1.516 . S
C510 C509 1.516 . S
C510 C511 1.502 . S
C510 C512 1.561 . S
C510 C513 1.526 . S
C511 H495 0.959 . S
C511 H496 0.959 . S
C511 H497 0.961 . S
C511 C510 1.502 . S
C512 H498 0.960 . S
C512 H499 0.961 . S
C512 H500 0.959 . S
C512 C510 1.561 . S
C513 C510 1.526 . S
C513 C514 1.396 1_655 S
C513 C518 1.390 . S
C514 C508 1.465 . S
C514 C513 1.396 1_455 S
C514 C515 1.399 . S
C515 H501 0.929 . S
C515 C514 1.399 . S
C515 C516 1.385 . S
C516 H502 0.931 . S
C516 C515 1.385 . S
C516 C517 1.389 . S
C517 C516 1.389 . S
C517 C518 1.387 1_455 S
C518 H503 0.930 . S
C518 C513 1.390 . S
C518 C517 1.387 1_655 S
H519 C531 0.930 . S
H520 C533 0.930 . S
H521 C534 0.930 . S
H522 C538 0.959 1_545 S
H523 C538 0.959 . S
H524 C538 0.961 . S
H525 C539 0.960 . S
H526 C539 0.961 . S
H527 C539 0.959 . S
H528 C542 0.929 . S
H529 C543 0.931 . S
H530 C545 0.930 . S
C531 H519 0.930 . S
C531 C532 1.399 1_565 S
C531 C536 1.399 . S
C532 C531 1.399 1_545 S
C532 C533 1.376 . S
C533 H520 0.930 . S
C533 C532 1.376 . S
C533 C534 1.388 . S
C534 H521 0.930 . S
C534 C533 1.388 . S
C534 C535 1.390 . S
C535 C534 1.390 . S
C535 C536 1.394 1_545 S
C535 C541 1.465 . S
C536 C531 1.399 . S
C536 C535 1.394 1_565 S
C536 C537 1.516 . S
C537 C536 1.516 . S
C537 C538 1.502 . S
C537 C539 1.561 . S
C537 C540 1.526 . S
C538 H522 0.959 1_565 S
C538 H523 0.959 . S
C538 H524 0.961 . S
C538 C537 1.502 . S
C539 H525 0.960 . S
C539 H526 0.961 . S
C539 H527 0.959 . S
C539 C537 1.561 . S
C540 C537 1.526 . S
C540 C541 1.396 1_565 S
C540 C545 1.390 . S
C541 C535 1.465 . S
C541 C540 1.396 1_545 S
C541 C542 1.399 . S
C542 H528 0.929 . S
C542 C541 1.399 . S
C542 C543 1.385 . S
C543 H529 0.931 . S
C543 C542 1.385 . S
C543 C544 1.389 1_545 S
C544 C543 1.389 1_565 S
C544 C545 1.387 . S
C545 H530 0.930 . S
C545 C540 1.390 . S
C545 C544 1.387 . S
H546 C558 0.914 1_655 S
H547 C560 0.930 . S
H548 C561 0.930 . S
H549 C565 0.959 . S
H550 C565 0.959 . S
H551 C565 0.961 . S
H552 C566 0.960 . S
H553 C566 0.961 1_655 S
H554 C566 0.959 . S
H555 C569 0.929 . S
H556 C570 0.931 . S
H557 C572 0.930 . S
C558 H546 0.914 1_455 S
C558 C559 1.417 . S
C558 C563 1.398 1_455 S
C559 C558 1.417 . S
C559 C560 1.376 . S
C560 H547 0.930 . S
C560 C559 1.376 . S
C560 C561 1.388 . S
C561 H548 0.930 . S
C561 C560 1.388 . S
C561 C562 1.390 . S
C562 C561 1.390 . S
C562 C563 1.392 1_455 S
C562 C568 1.465 . S
C563 C558 1.398 1_655 S
C563 C562 1.392 1_655 S
C563 C564 1.517 . S
C564 C563 1.517 . S
C564 C565 1.502 . S
C564 C566 1.561 1_655 S
C564 C567 1.526 . S
C565 H549 0.959 . S
C565 H550 0.959 . S
C565 H551 0.961 . S
C565 C564 1.502 . S
C566 H552 0.960 . S
C566 H553 0.961 1_455 S
C566 H554 0.959 . S
C566 C564 1.561 1_455 S
C567 C564 1.526 . S
C567 C568 1.396 1_655 S
C567 C572 1.390 . S
C568 C562 1.465 . S
C568 C567 1.396 1_455 S
C568 C569 1.399 . S
C569 H555 0.929 . S
C569 C568 1.399 . S
C569 C570 1.385 . S
C570 H556 0.931 . S
C570 C569 1.385 . S
C570 C571 1.389 1_455 S
C571 C570 1.389 1_655 S
C571 C572 1.387 . S
C572 H557 0.930 . S
C572 C567 1.390 . S
C572 C571 1.387 . S
H573 C585 0.930 . S
H574 C587 0.930 . S
H575 C588 0.930 . S
H576 C592 0.959 . S
H577 C592 0.959 . S
H578 C592 0.961 . S
H579 C593 0.960 . S
H580 C593 0.961 . S
H581 C593 0.959 . S
H582 C596 0.929 . S
H583 C597 0.931 . S
H584 C599 0.930 . S
C585 H573 0.930 . S
C585 C586 1.399 . S
C585 C590 1.399 . S
C586 C585 1.399 . S
C586 C587 1.376 1_545 S
C587 H574 0.930 . S
C587 C586 1.376 1_565 S
C587 C588 1.388 . S
C588 H575 0.930 . S
C588 C587 1.388 . S
C588 C589 1.390 . S
C589 C588 1.390 . S
C589 C590 1.394 1_565 S
C589 C595 1.465 . S
C590 C585 1.399 . S
C590 C589 1.394 1_545 S
C590 C591 1.516 . S
C591 C590 1.516 . S
C591 C592 1.502 . S
C591 C593 1.561 . S
C591 C594 1.526 . S
C592 H576 0.959 . S
C592 H577 0.959 . S
C592 H578 0.961 . S
C592 C591 1.502 . S
C593 H579 0.960 . S
C593 H580 0.961 . S
C593 H581 0.959 . S
C593 C591 1.561 . S
C594 C591 1.526 . S
C594 C595 1.396 1_545 S
C594 C599 1.390 . S
C595 C589 1.465 . S
C595 C594 1.396 1_565 S
C595 C596 1.399 . S
C596 H582 0.929 . S
C596 C595 1.399 . S
C596 C597 1.385 . S
C597 H583 0.931 . S
C597 C596 1.385 . S
C597 C598 1.389 . S
C598 C597 1.389 . S
C598 C599 1.387 1_565 S
C599 H584 0.930 . S
C599 C594 1.390 . S
C599 C598 1.387 1_545 S
H600 C612 0.930 . S
H601 C614 0.930 . S
H602 C615 0.930 . S
H603 C619 0.959 . S
H604 C619 0.959 . S
H605 C619 0.961 . S
H606 C620 0.960 . S
H607 C620 0.961 . S
H608 C620 0.959 . S
H609 C623 0.929 . S
H610 C624 0.931 . S
H611 C626 0.930 . S
C612 H600 0.930 . S
C612 C613 1.399 . S
C612 C617 1.399 . S
C613 C612 1.399 . S
C613 C614 1.376 1_545 S
C614 H601 0.930 . S
C614 C613 1.376 1_565 S
C614 C615 1.388 . S
C615 H602 0.930 . S
C615 C614 1.388 . S
C615 C616 1.390 . S
C616 C615 1.390 . S
C616 C617 1.394 1_565 S
C616 C622 1.465 . S
C617 C612 1.399 . S
C617 C616 1.394 1_545 S
C617 C618 1.516 . S
C618 C617 1.516 . S
C618 C619 1.502 . S
C618 C620 1.561 . S
C618 C621 1.526 . S
C619 H603 0.959 . S
C619 H604 0.959 . S
C619 H605 0.961 . S
C619 C618 1.502 . S
C620 H606 0.960 . S
C620 H607 0.961 . S
C620 H608 0.959 . S
C620 C618 1.561 . S
C621 C618 1.526 . S
C621 C622 1.396 1_545 S
C621 C626 1.390 . S
C622 C616 1.465 . S
C622 C621 1.396 1_565 S
C622 C623 1.399 . S
C623 H609 0.929 . S
C623 C622 1.399 . S
C623 C624 1.385 . S
C624 H610 0.931 . S
C624 C623 1.385 . S
C624 C625 1.389 . S
C625 C624 1.389 . S
C625 C626 1.387 1_565 S
C626 H611 0.930 . S
C626 C621 1.390 . S
C626 C625 1.387 1_545 S
H627 C639 0.930 . S
H628 C641 0.930 . S
H629 C642 0.930 . S
H630 C646 0.959 . S
H631 C646 0.959 . S
H632 C646 0.961 . S
H633 C647 0.960 1_455 S
H634 C647 0.962 . S
H635 C647 0.959 . S
H636 C650 0.929 . S
H637 C651 0.931 . S
H638 C653 0.917 1_455 S
C639 H627 0.930 . S
C639 C640 1.399 . S
C639 C644 1.399 . S
C640 C639 1.399 . S
C640 C641 1.376 1_455 S
C641 H628 0.930 . S
C641 C640 1.376 1_655 S
C641 C642 1.388 . S
C642 H629 0.930 . S
C642 C641 1.388 . S
C642 C643 1.390 . S
C643 C642 1.390 . S
C643 C644 1.394 1_655 S
C643 C649 1.465 . S
C644 C639 1.399 . S
C644 C643 1.394 1_455 S
C644 C645 1.516 . S
C645 C644 1.516 . S
C645 C646 1.502 . S
C645 C647 1.561 1_455 S
C645 C648 1.532 . S
C646 H630 0.959 . S
C646 H631 0.959 . S
C646 H632 0.961 . S
C646 C645 1.502 . S
C647 H633 0.960 1_655 S
C647 H634 0.962 . S
C647 H635 0.959 . S
C647 C645 1.561 1_655 S
C648 C645 1.532 . S
C648 C649 1.389 1_455 S
C648 C653 1.388 1_455 S
C649 C643 1.465 . S
C649 C648 1.389 1_655 S
C649 C650 1.399 . S
C650 H636 0.929 . S
C650 C649 1.399 . S
C650 C651 1.385 . S
C651 H637 0.931 . S
C651 C650 1.385 . S
C651 C652 1.389 . S
C652 C651 1.389 . S
C652 C653 1.402 . S
C653 H638 0.917 1_655 S
C653 C648 1.388 1_655 S
C653 C652 1.402 . S
H654 C666 0.930 . S
H655 C668 0.930 . S
H656 C669 0.930 . S
H657 C673 0.959 . S
H658 C673 0.959 . S
H659 C673 0.961 . S
H660 C674 0.960 . S
H661 C674 0.961 . S
H662 C674 0.959 . S
H663 C677 0.929 . S
H664 C678 0.931 . S
H665 C680 0.930 1_545 S
C666 H654 0.930 . S
C666 C667 1.399 . S
C666 C671 1.399 . S
C667 C666 1.399 . S
C667 C668 1.376 1_545 S
C668 H655 0.930 . S
C668 C667 1.376 1_565 S
C668 C669 1.388 . S
C669 H656 0.930 . S
C669 C668 1.388 . S
C669 C670 1.390 . S
C670 C669 1.390 . S
C670 C671 1.394 1_565 S
C670 C676 1.465 . S
C671 C666 1.399 . S
C671 C670 1.394 1_545 S
C671 C672 1.516 . S
C672 C671 1.516 . S
C672 C673 1.502 . S
C672 C674 1.561 1_545 S
C672 C675 1.526 1_545 S
C673 H657 0.959 . S
C673 H658 0.959 . S
C673 H659 0.961 . S
C673 C672 1.502 . S
C674 H660 0.960 . S
C674 H661 0.961 . S
C674 H662 0.959 . S
C674 C672 1.561 1_565 S
C675 C672 1.526 1_565 S
C675 C676 1.396 . S
C675 C680 1.390 . S
C676 C670 1.465 . S
C676 C675 1.396 . S
C676 C677 1.399 . S
C677 H663 0.929 . S
C677 C676 1.399 . S
C677 C678 1.385 . S
C678 H664 0.931 . S
C678 C677 1.385 . S
C678 C679 1.389 . S
C679 C678 1.389 . S
C679 C680 1.387 . S
C680 H665 0.930 1_565 S
C680 C675 1.390 . S
C680 C679 1.387 . S
H681 C693 0.930 . S
H682 C695 0.930 . S
H683 C696 0.930 . S
H684 C700 0.959 . S
H685 C700 0.959 . S
H686 C700 0.961 . S
H687 C701 0.960 . S
H688 C701 0.961 . S
H689 C701 0.959 1_455 S
H690 C704 0.929 . S
H691 C705 0.931 . S
H692 C707 0.930 . S
C693 H681 0.930 . S
C693 C694 1.399 . S
C693 C698 1.399 . S
C694 C693 1.399 . S
C694 C695 1.376 1_655 S
C695 H682 0.930 . S
C695 C694 1.376 1_455 S
C695 C696 1.388 . S
C696 H683 0.930 . S
C696 C695 1.388 . S
C696 C697 1.390 . S
C697 C696 1.390 . S
C697 C698 1.394 1_455 S
C697 C703 1.465 . S
C698 C693 1.399 . S
C698 C697 1.394 1_655 S
C698 C699 1.516 . S
C699 C698 1.516 . S
C699 C700 1.502 . S
C699 C701 1.561 . S
C699 C702 1.526 . S
C700 H684 0.959 . S
C700 H685 0.959 . S
C700 H686 0.961 . S
C700 C699 1.502 . S
C701 H687 0.960 . S
C701 H688 0.961 . S
C701 H689 0.959 1_655 S
C701 C699 1.561 . S
C702 C699 1.526 . S
C702 C703 1.396 1_655 S
C702 C707 1.390 . S
C703 C697 1.465 . S
C703 C702 1.396 1_455 S
C703 C704 1.399 . S
C704 H690 0.929 . S
C704 C703 1.399 . S
C704 C705 1.385 . S
C705 H691 0.931 . S
C705 C704 1.385 . S
C705 C706 1.389 . S
C706 C705 1.389 . S
C706 C707 1.387 1_455 S
C707 H692 0.930 . S
C707 C702 1.390 . S
C707 C706 1.387 1_655 S
H708 C720 0.930 . S
H709 C722 0.930 . S
H710 C723 0.930 . S
H711 C727 0.959 . S
H712 C727 0.959 . S
H713 C727 0.961 . S
H714 C728 0.960 . S
H715 C728 0.961 . S
H716 C728 0.959 . S
H717 C731 0.929 . S
H718 C732 0.931 . S
H719 C734 0.930 . S
C720 H708 0.930 . S
C720 C721 1.399 1_556 S
C720 C725 1.399 . S
C721 C720 1.399 1_554 S
C721 C722 1.376 . S
C722 H709 0.930 . S
C722 C721 1.376 . S
C722 C723 1.388 . S
C723 H710 0.930 . S
C723 C722 1.388 . S
C723 C724 1.390 . S
C724 C723 1.390 . S
C724 C725 1.394 1_554 S
C724 C730 1.465 . S
C725 C720 1.399 . S
C725 C724 1.394 1_556 S
C725 C726 1.516 . S
C726 C725 1.516 . S
C726 C727 1.502 . S
C726 C728 1.561 . S
C726 C729 1.526 . S
C727 H711 0.959 . S
C727 H712 0.959 . S
C727 H713 0.961 . S
C727 C726 1.502 . S
C728 H714 0.960 . S
C728 H715 0.961 . S
C728 H716 0.959 . S
C728 C726 1.561 . S
C729 C726 1.526 . S
C729 C730 1.396 1_556 S
C729 C734 1.390 . S
C730 C724 1.465 . S
C730 C729 1.396 1_554 S
C730 C731 1.399 . S
C731 H717 0.929 . S
C731 C730 1.399 . S
C731 C732 1.385 . S
C732 H718 0.931 . S
C732 C731 1.385 . S
C732 C733 1.389 1_554 S
C733 C732 1.389 1_556 S
C733 C734 1.387 . S
C734 H719 0.930 . S
C734 C729 1.390 . S
C734 C733 1.387 . S
H735 C747 0.930 1_554 S
H736 C749 0.930 . S
H737 C750 0.930 . S
H738 C754 0.959 . S
H739 C754 0.959 . S
H740 C754 0.961 . S
H741 C755 0.960 . S
H742 C755 0.953 1_554 S
H743 C755 0.959 . S
H744 C758 0.929 . S
H745 C759 0.931 . S
H746 C761 0.930 . S
C747 H735 0.930 1_556 S
C747 C748 1.399 . S
C747 C752 1.400 . S
C748 C747 1.399 . S
C748 C749 1.376 . S
C749 H736 0.930 . S
C749 C748 1.376 . S
C749 C750 1.388 . S
C750 H737 0.930 . S
C750 C749 1.388 . S
C750 C751 1.390 . S
C751 C750 1.390 . S
C751 C752 1.399 . S
C751 C757 1.465 . S
C752 C747 1.400 . S
C752 C751 1.399 . S
C752 C753 1.511 1_556 S
C753 C752 1.511 1_554 S
C753 C754 1.502 . S
C753 C755 1.561 1_554 S
C753 C756 1.526 . S
C754 H738 0.959 . S
C754 H739 0.959 . S
C754 H740 0.961 . S
C754 C753 1.502 . S
C755 H741 0.960 . S
C755 H742 0.953 1_556 S
C755 H743 0.959 . S
C755 C753 1.561 1_556 S
C756 C753 1.526 . S
C756 C757 1.396 1_554 S
C756 C761 1.390 . S
C757 C751 1.465 . S
C757 C756 1.396 1_556 S
C757 C758 1.399 . S
C758 H744 0.929 . S
C758 C757 1.399 . S
C758 C759 1.385 . S
C759 H745 0.931 . S
C759 C758 1.385 . S
C759 C760 1.389 1_556 S
C760 C759 1.389 1_554 S
C760 C761 1.387 . S
C761 H746 0.930 . S
C761 C756 1.390 . S
C761 C760 1.387 . S
H762 C774 0.930 . S
H763 C776 0.930 . S
H764 C777 0.930 . S
H765 C781 0.959 . S
H766 C781 0.959 . S
H767 C781 0.961 . S
H768 C782 0.960 . S
H769 C782 0.961 . S
H770 C782 0.959 . S
H771 C785 0.929 . S
H772 C786 0.931 . S
H773 C788 0.930 . S
C774 H762 0.930 . S
C774 C775 1.399 1_554 S
C774 C779 1.399 . S
C775 C774 1.399 1_556 S
C775 C776 1.376 . S
C776 H763 0.930 . S
C776 C775 1.376 . S
C776 C777 1.388 . S
C777 H764 0.930 . S
C777 C776 1.388 . S
C777 C778 1.390 . S
C778 C777 1.390 . S
C778 C779 1.394 1_556 S
C778 C784 1.465 . S
C779 C774 1.399 . S
C779 C778 1.394 1_554 S
C779 C780 1.516 . S
C780 C779 1.516 . S
C780 C781 1.502 . S
C780 C782 1.561 . S
C780 C783 1.526 . S
C781 H765 0.959 . S
C781 H766 0.959 . S
C781 H767 0.961 . S
C781 C780 1.502 . S
C782 H768 0.960 . S
C782 H769 0.961 . S
C782 H770 0.959 . S
C782 C780 1.561 . S
C783 C780 1.526 . S
C783 C784 1.396 1_554 S
C783 C788 1.390 . S
C784 C778 1.465 . S
C784 C783 1.396 1_556 S
C784 C785 1.399 . S
C785 H771 0.929 . S
C785 C784 1.399 . S
C785 C786 1.385 . S
C786 H772 0.931 . S
C786 C785 1.385 . S
C786 C787 1.389 1_556 S
C787 C786 1.389 1_554 S
C787 C788 1.387 . S
C788 H773 0.930 . S
C788 C783 1.390 . S
C788 C787 1.387 . S
H789 C801 0.930 . S
H790 C803 0.930 . S
H791 C804 0.930 . S
H792 C808 0.959 . S
H793 C808 0.959 . S
H794 C808 0.961 . S
H795 C809 0.960 . S
H796 C809 0.961 . S
H797 C809 0.959 1_556 S
H798 C812 0.929 . S
H799 C813 0.931 . S
H800 C815 0.930 . S
C801 H789 0.930 . S
C801 C802 1.399 . S
C801 C806 1.399 . S
C802 C801 1.399 . S
C802 C803 1.376 1_554 S
C803 H790 0.930 . S
C803 C802 1.376 1_556 S
C803 C804 1.388 . S
C804 H791 0.930 . S
C804 C803 1.388 . S
C804 C805 1.390 . S
C805 C804 1.390 . S
C805 C806 1.394 1_556 S
C805 C811 1.465 . S
C806 C801 1.399 . S
C806 C805 1.394 1_554 S
C806 C807 1.516 . S
C807 C806 1.516 . S
C807 C808 1.502 . S
C807 C809 1.561 . S
C807 C810 1.526 . S
C808 H792 0.959 . S
C808 H793 0.959 . S
C808 H794 0.961 . S
C808 C807 1.502 . S
C809 H795 0.960 . S
C809 H796 0.961 . S
C809 H797 0.959 1_554 S
C809 C807 1.561 . S
C810 C807 1.526 . S
C810 C811 1.396 1_554 S
C810 C815 1.390 . S
C811 C805 1.465 . S
C811 C810 1.396 1_556 S
C811 C812 1.399 . S
C812 H798 0.929 . S
C812 C811 1.399 . S
C812 C813 1.385 . S
C813 H799 0.931 . S
C813 C812 1.385 . S
C813 C814 1.389 . S
C814 C813 1.389 . S
C814 C815 1.387 1_556 S
C815 H800 0.930 . S
C815 C810 1.390 . S
C815 C814 1.387 1_554 S
C181 C12 1.455 . S
C193 C99 1.453 . S
C208 C27 1.430 . S
C220 C69 1.434 . S
C235 C71 1.425 . S
C247 C29 1.427 . S
C262 C97 1.452 . S
C274 C55 1.448 . S
C289 C113 1.456 . S
C301 C110 1.453 . S
C316 C126 1.455 . S
C328 C56 1.451 . S
C343 C140 1.453 . S
C355 C82 1.455 . S
C370 C167 1.427 . S
C382 C84 1.432 . S
C397 C14 1.427 . S
C409 C139 1.432 . S
C424 C153 1.425 . S
C436 C40 1.430 . S
C451 C42 1.452 . S
C463 C154 1.455 . S
C478 C124 1.436 . S
C490 C1 1.441 . S
C505 C85 1.746 . S
C517 C0 1.700 . S
C532 C111 1.718 . S
C544 C15 1.734 . S
C559 C57 1.705 . S
C571 C41 1.738 . S
C586 C43 1.739 . S
C598 C83 1.700 . S
C613 C98 1.745 . S
C625 C70 1.700 . S
C640 C68 1.743 . S
C652 C96 1.710 . S
C667 C54 1.738 . S
C679 C26 1.709 . S
C694 C28 1.746 . S
C706 C13 1.702 . S
C721 C112 1.701 . S
C733 C138 1.744 . S
C748 C127 1.702 . S
C760 C152 1.735 . S
C775 C155 1.706 . S
C787 C141 1.743 . S
C802 C125 1.743 . S
C814 C166 1.708 . S
