# Generated by pormake.
# Topology umo, (4)-cn, num edge types: 1
# Building blocks:
#     Node 0, Type 0, BuildingBlock: MUDLON_clean_sbu_0, # of connection points: 4
#     Node 1, Type 0, BuildingBlock: MUDLON_clean_sbu_0, # of connection points: 4
#     Node 2, Type 0, BuildingBlock: MUDLON_clean_sbu_0, # of connection points: 4
#     Node 3, Type 0, BuildingBlock: MUDLON_clean_sbu_0, # of connection points: 4
#     Node 4, Type 0, BuildingBlock: MUDLON_clean_sbu_0, # of connection points: 4
#     Node 5, Type 0, BuildingBlock: MUDLON_clean_sbu_0, # of connection points: 4
#     Node 6, Type 0, BuildingBlock: MUDLON_clean_sbu_0, # of connection points: 4
#     Node 7, Type 0, BuildingBlock: MUDLON_clean_sbu_0, # of connection points: 4
#     Node 8, Type 0, BuildingBlock: MUDLON_clean_sbu_0, # of connection points: 4
#     Node 9, Type 0, BuildingBlock: MUDLON_clean_sbu_0, # of connection points: 4
#     Node 10, Type 0, BuildingBlock: MUDLON_clean_sbu_0, # of connection points: 4
#     Node 11, Type 0, BuildingBlock: MUDLON_clean_sbu_0, # of connection points: 4
#     Edge 12, Type (0, 0), BuildingBlock: ZUJKAS_clean_linker_0, # of connection points: 2
#     Edge 13, Type (0, 0), BuildingBlock: ZUJKAS_clean_linker_0, # of connection points: 2
#     Edge 14, Type (0, 0), BuildingBlock: ZUJKAS_clean_linker_0, # of connection points: 2
#     Edge 15, Type (0, 0), BuildingBlock: ZUJKAS_clean_linker_0, # of connection points: 2
#     Edge 16, Type (0, 0), BuildingBlock: ZUJKAS_clean_linker_0, # of connection points: 2
#     Edge 17, Type (0, 0), BuildingBlock: ZUJKAS_clean_linker_0, # of connection points: 2
#     Edge 18, Type (0, 0), BuildingBlock: ZUJKAS_clean_linker_0, # of connection points: 2
#     Edge 19, Type (0, 0), BuildingBlock: ZUJKAS_clean_linker_0, # of connection points: 2
#     Edge 20, Type (0, 0), BuildingBlock: ZUJKAS_clean_linker_0, # of connection points: 2
#     Edge 21, Type (0, 0), BuildingBlock: ZUJKAS_clean_linker_0, # of connection points: 2
#     Edge 22, Type (0, 0), BuildingBlock: ZUJKAS_clean_linker_0, # of connection points: 2
#     Edge 23, Type (0, 0), BuildingBlock: ZUJKAS_clean_linker_0, # of connection points: 2
#     Edge 24, Type (0, 0), BuildingBlock: ZUJKAS_clean_linker_0, # of connection points: 2
#     Edge 25, Type (0, 0), BuildingBlock: ZUJKAS_clean_linker_0, # of connection points: 2
#     Edge 26, Type (0, 0), BuildingBlock: ZUJKAS_clean_linker_0, # of connection points: 2
#     Edge 27, Type (0, 0), BuildingBlock: ZUJKAS_clean_linker_0, # of connection points: 2
#     Edge 28, Type (0, 0), BuildingBlock: ZUJKAS_clean_linker_0, # of connection points: 2
#     Edge 29, Type (0, 0), BuildingBlock: ZUJKAS_clean_linker_0, # of connection points: 2
#     Edge 30, Type (0, 0), BuildingBlock: ZUJKAS_clean_linker_0, # of connection points: 2
#     Edge 31, Type (0, 0), BuildingBlock: ZUJKAS_clean_linker_0, # of connection points: 2
#     Edge 32, Type (0, 0), BuildingBlock: ZUJKAS_clean_linker_0, # of connection points: 2
#     Edge 33, Type (0, 0), BuildingBlock: ZUJKAS_clean_linker_0, # of connection points: 2
#     Edge 34, Type (0, 0), BuildingBlock: ZUJKAS_clean_linker_0, # of connection points: 2
#     Edge 35, Type (0, 0), BuildingBlock: ZUJKAS_clean_linker_0, # of connection points: 2
# Relax obj value: 0.142
# Max RMSD: 0.179
# Mean RMSD: 0.179
data_MOF--net-umo--node1-MUDLON_clean_sbu_0--edge1-ZUJKAS_clean_linker_0
_symmetry_space_group_name_H-M    P1
_symmetry_Int_Tables_number       1
_symmetry_cell_setting            triclinic
loop_
_symmetry_equiv_pos_as_xyz
'x, y, z'
_cell_length_a     64.407439
_cell_length_b     64.460075
_cell_length_c     51.016371
_cell_angle_alpha  90.000724
_cell_angle_beta   90.009774
_cell_angle_gamma 120.03304
loop_
_atom_site_label
_atom_site_type_symbol
_atom_site_fract_x
_atom_site_fract_y
_atom_site_fract_z
_atom_type_partial_charge
Mg0 Mg 0.1696 0.55012 0.41095 0.0
C1 C 0.15944 0.55674 0.46461 0.0
O2 O 0.14785 0.5643 0.44983 0.0
C3 C 0.18659 0.52891 0.3689 0.0
O4 O 0.16348 0.51723 0.36396 0.0
C5 C 0.12637 0.53357 0.37637 0.0
O6 O 0.14196 0.55224 0.36279 0.0
O7 O 0.13306 0.52832 0.39755 0.0
O8 O 0.17075 0.54769 0.45344 0.0
O9 O 0.18061 0.58745 0.40572 0.0
C10 C 0.19601 0.60086 0.38889 0.0
O11 O 0.20392 0.59128 0.37169 0.0
O12 O 0.19424 0.5429 0.38859 0.0
Mg13 Mg 0.62056 0.17029 0.57161 0.0
C14 C 0.62552 0.19145 0.62496 0.0
O15 O 0.6245 0.20766 0.61028 0.0
C16 C 0.6528 0.18451 0.52474 0.0
O17 O 0.63527 0.16339 0.51747 0.0
C18 C 0.58256 0.11888 0.56755 0.0
O19 O 0.57107 0.12746 0.58092 0.0
O20 O 0.6042 0.13294 0.56097 0.0
O21 O 0.6262 0.17412 0.61382 0.0
O22 O 0.59476 0.18189 0.5652 0.0
C23 C 0.59931 0.19932 0.55011 0.0
O24 O 0.61885 0.20856 0.53574 0.0
O25 O 0.65216 0.19212 0.54758 0.0
Mg26 Mg 0.43497 0.61206 0.7369 0.0
C27 C 0.44398 0.60513 0.79282 0.0
O28 O 0.45009 0.59096 0.7808 0.0
C29 C 0.43151 0.6506 0.70679 0.0
O30 O 0.41026 0.63987 0.71792 0.0
C31 C 0.44388 0.57563 0.70948 0.0
O32 O 0.4219 0.56798 0.70123 0.0
O33 O 0.45378 0.59377 0.72449 0.0
O34 O 0.43873 0.61833 0.77905 0.0
O35 O 0.39671 0.589 0.73242 0.0
C36 C 0.38583 0.5695 0.74522 0.0
O37 O 0.39844 0.56239 0.75885 0.0
O38 O 0.44623 0.64353 0.71226 0.0
Mg39 Mg 0.82549 0.4442 0.90335 0.0
C40 C 0.84049 0.45187 0.95991 0.0
O41 O 0.86148 0.46061 0.94844 0.0
C42 C 0.81079 0.46104 0.85615 0.0
O43 O 0.82924 0.4597 0.84733 0.0
C44 C 0.87161 0.45569 0.87541 0.0
O45 O 0.85734 0.43507 0.86402 0.0
O46 O 0.86304 0.46378 0.89239 0.0
O47 O 0.82194 0.44519 0.94576 0.0
O48 O 0.81036 0.40646 0.89553 0.0
C49 C 0.81832 0.39438 0.90706 0.0
O50 O 0.83756 0.40559 0.92181 0.0
O51 O 0.805 0.45626 0.88017 0.0
Mg52 Mg 0.39264 0.83833 0.06418 0.0
C53 C 0.41032 0.84383 0.11773 0.0
O54 O 0.42946 0.85235 0.10277 0.0
C55 C 0.35859 0.82363 0.01923 0.0
O56 O 0.37695 0.84357 1.01051 0.0
C57 C 0.4112 0.89151 0.06718 0.0
O58 O 0.40158 0.88533 0.09062 0.0
O59 O 0.41006 0.87544 0.05184 0.0
O60 O 0.39 0.83631 0.10682 0.0
O61 O 0.41565 0.82362 0.05605 0.0
C62 C 0.41326 0.81035 0.03657 0.0
O63 O 0.39724 0.8067 0.01851 0.0
O64 O 0.35933 0.81698 0.04253 0.0
Mg65 Mg 0.54945 0.38629 0.23663 0.0
C66 C 0.56161 0.40293 0.2903 0.0
O67 O 0.5732 0.42204 0.27547 0.0
C68 C 0.53352 0.35668 0.18888 0.0
O69 O 0.53825 0.37796 0.1808 0.0
C70 C 0.51031 0.39789 0.23038 0.0
O71 O 0.4989 0.37759 0.24334 0.0
O72 O 0.5323 0.40625 0.22479 0.0
O73 O 0.54795 0.3829 0.27921 0.0
O74 O 0.58754 0.40665 0.22897 0.0
C75 C 0.59777 0.39438 0.22555 0.0
O76 O 0.58445 0.37094 0.22428 0.0
O77 O 0.53535 0.35365 0.21325 0.0
Mg78 Mg 0.44456 0.82951 0.45068 0.0
C79 C 0.44331 0.84222 0.39684 0.0
O80 O 0.43587 0.85425 0.41104 0.0
C81 C 0.45574 0.81212 0.49952 0.0
O82 O 0.45619 0.83182 0.50711 0.0
C83 C 0.45398 0.87551 0.47687 0.0
O84 O 0.43078 0.86274 0.48106 0.0
O85 O 0.4644 0.86611 0.46463 0.0
O86 O 0.45032 0.82942 0.40868 0.0
O87 O 0.40643 0.81624 0.45196 0.0
C88 C 0.39266 0.80629 0.47139 0.0
O89 O 0.40184 0.80487 0.49385 0.0
O90 O 0.45202 0.80634 0.4754 0.0
Mg91 Mg 0.61364 0.44821 0.62372 0.0
C92 C 0.59835 0.432 0.56943 0.0
O93 O 0.58059 0.41617 0.58386 0.0
C94 C 0.64418 0.46215 0.67062 0.0
O95 O 0.62251 0.45455 0.67988 0.0
C96 C 0.57126 0.45486 0.63449 0.0
O97 O 0.55969 0.43298 0.62504 0.0
O98 O 0.59397 0.46553 0.63624 0.0
O99 O 0.61633 0.4492 0.58089 0.0
O100 O 0.5939 0.4104 0.63302 0.0
C101 C 0.60642 0.40029 0.63491 0.0
O102 O 0.62989 0.41363 0.63388 0.0
O103 O 0.647 0.46285 0.64588 0.0
Mg104 Mg 0.17217 0.61403 0.79681 0.0
C105 C 0.16269 0.59564 0.74305 0.0
O106 O 0.15247 0.57645 0.75794 0.0
C107 C 0.21323 0.65812 0.82054 0.0
O108 O 0.22488 0.64925 0.80801 0.0
C109 C 0.11869 0.59308 0.79684 0.0
O110 O 0.12403 0.60524 0.77481 0.0
O111 O 0.13546 0.5935 0.81039 0.0
O112 O 0.17274 0.61611 0.75408 0.0
O113 O 0.19146 0.59545 0.80559 0.0
C114 C 0.18238 0.57295 0.80824 0.0
O115 O 0.15899 0.55895 0.8074 0.0
O116 O 0.19057 0.64786 0.81801 0.0
Mg117 Mg 0.55727 0.18129 0.95173 0.0
C118 C 0.55638 0.16777 0.89595 0.0
O119 O 0.55566 0.14959 0.90842 0.0
C120 C 0.55705 0.22141 0.98168 0.0
O121 O 0.57887 0.23267 0.97194 0.0
C122 C 0.53449 0.1385 0.98741 0.0
O123 O 0.5398 0.15558 1.00467 0.0
O124 O 0.53985 0.14409 0.96349 0.0
O125 O 0.55553 0.18402 0.90929 0.0
O126 O 0.5952 0.19836 0.95987 0.0
C127 C 0.60801 0.18908 0.95426 0.0
O128 O 0.59771 0.16717 0.94488 0.0
O129 O 0.54308 0.1997 0.97515 0.0
Mg130 Mg 0.3789 0.55674 0.1185 0.0
C131 C 0.38141 0.54368 0.06257 0.0
O132 O 0.39504 0.53649 0.07389 0.0
C133 C 0.35472 0.5556 0.16805 0.0
O134 O 0.37762 0.56834 0.17394 0.0
C135 C 0.38611 0.51835 0.14272 0.0
O136 O 0.363 0.5091 0.14686 0.0
O137 O 0.39756 0.53839 0.13104 0.0
O138 O 0.37025 0.55103 0.07691 0.0
O139 O 0.40264 0.59501 0.12076 0.0
C140 C 0.41929 0.60515 0.1039 0.0
O141 O 0.42321 0.5918 0.08746 0.0
O142 O 0.34888 0.54761 0.1448 0.0
Mg143 Mg 0.83029 0.37927 0.28529 0.0
C144 C 0.84386 0.39362 0.23038 0.0
O145 O 0.85954 0.41238 0.24377 0.0
C146 C 0.81536 0.34492 0.33042 0.0
O147 O 0.83664 0.36173 0.33827 0.0
C148 C 0.88262 0.39285 0.28834 0.0
O149 O 0.87643 0.3779 0.26851 0.0
O150 O 0.86696 0.39659 0.29898 0.0
O151 O 0.82885 0.375 0.24287 0.0
O152 O 0.81672 0.40355 0.29088 0.0
C153 C 0.79938 0.39862 0.30629 0.0
O154 O 0.79098 0.37937 0.32103 0.0
O155 O 0.80801 0.34677 0.30786 0.0
H156 H 0.23616 0.63492 0.36366 0.0
H157 H 0.26294 0.67583 0.37885 0.0
H158 H 0.21232 0.66698 0.43916 0.0
H159 H 0.18531 0.62607 0.42418 0.0
H160 H 0.24568 0.71865 0.40871 0.0
H161 H 0.28739 0.672 0.4595 0.0
H162 H 0.27944 0.66478 0.42553 0.0
H163 H 0.25631 0.65657 0.44959 0.0
C164 C 0.23031 0.6419 0.37958 0.0
C165 C 0.20885 0.62708 0.39307 0.0
C166 C 0.24561 0.6653 0.38817 0.0
C167 C 0.23958 0.67419 0.4102 0.0
C168 C 0.21716 0.66035 0.42207 0.0
H169 H 0.3574 0.77725 0.50595 0.0
H170 H 0.3158 0.74801 0.49508 0.0
C171 C 0.20184 0.63694 0.41353 0.0
C172 C 0.25831 0.6957 0.42359 0.0
H173 H 0.30819 0.71408 0.46114 0.0
C174 C 0.25927 0.71776 0.42041 0.0
C175 C 0.27556 0.69419 0.43929 0.0
C176 C 0.2747 0.67064 0.44393 0.0
C177 C 0.27794 0.73875 0.43169 0.0
C178 C 0.29606 0.73746 0.44609 0.0
C179 C 0.29428 0.7151 0.45021 0.0
C180 C 0.31853 0.75899 0.45453 0.0
C181 C 0.27816 0.76205 0.42787 0.0
C182 C 0.33355 0.77551 0.43565 0.0
C183 C 0.35723 0.79227 0.44183 0.0
C184 C 0.36647 0.79258 0.46692 0.0
C185 C 0.35088 0.77734 0.4864 0.0
C186 C 0.32709 0.76065 0.48023 0.0
H187 H 0.25966 0.75894 0.42565 0.0
H188 H 0.28698 0.7745 0.44454 0.0
H189 H 0.28813 0.77078 0.40965 0.0
H190 H 0.32759 0.7743 0.41557 0.0
H191 H 0.36871 0.80388 0.42639 0.0
H192 H 0.61186 0.24383 0.53187 0.0
H193 H 0.59721 0.26969 0.54798 0.0
H194 H 0.54263 0.21107 0.59297 0.0
H195 H 0.55781 0.18515 0.57763 0.0
H196 H 0.55594 0.27162 0.55059 0.0
H197 H 0.58297 0.25746 0.64987 0.0
H198 H 0.58975 0.24632 0.62064 0.0
H199 H 0.55977 0.23148 0.63358 0.0
C200 C 0.59639 0.23621 0.5447 0.0
C201 C 0.5864 0.21263 0.55402 0.0
C202 C 0.58797 0.25103 0.55387 0.0
C203 C 0.56929 0.24248 0.57229 0.0
C204 C 0.55752 0.21819 0.57935 0.0
H205 H 0.5589 0.36722 0.62669 0.0
H206 H 0.54219 0.32475 0.61574 0.0
C207 C 0.56613 0.20339 0.57044 0.0
C208 C 0.56471 0.25993 0.58626 0.0
H209 H 0.5755 0.289 0.64494 0.0
C210 C 0.55962 0.27515 0.57136 0.0
C211 C 0.56961 0.26444 0.61339 0.0
C212 C 0.57599 0.24922 0.63037 0.0
C213 C 0.56131 0.29591 0.58231 0.0
C214 C 0.56764 0.30116 0.60905 0.0
C215 C 0.57061 0.28482 0.62447 0.0
C216 C 0.57593 0.32536 0.61991 0.0
C217 C 0.55836 0.31305 0.56462 0.0
C218 C 0.60005 0.33932 0.62737 0.0
C219 C 0.60953 0.36335 0.63393 0.0
C220 C 0.5951 0.37397 0.63305 0.0
C221 C 0.57051 0.35957 0.62737 0.0
C222 C 0.56097 0.33537 0.6209 0.0
H223 H 0.55662 0.30773 0.54367 0.0
H224 H 0.54198 0.31351 0.57033 0.0
H225 H 0.57392 0.33146 0.56665 0.0
H226 H 0.6119 0.33193 0.62686 0.0
H227 H 0.62848 0.37387 0.63845 0.0
H228 H 0.2308 0.59713 0.81419 0.0
H229 H 0.25822 0.58211 0.8068 0.0
H230 H 0.19835 0.51084 0.79489 0.0
H231 H 0.17051 0.52592 0.80179 0.0
H232 H 0.26473 0.54664 0.82972 0.0
H233 H 0.23542 0.5257 0.72551 0.0
H234 H 0.22679 0.543 0.74587 0.0
H235 H 0.21311 0.51124 0.75061 0.0
C236 C 0.22336 0.57818 0.81033 0.0
C237 C 0.19848 0.56278 0.80819 0.0
C238 C 0.23909 0.5696 0.8062 0.0
C239 C 0.23032 0.54546 0.79987 0.0
C240 C 0.20546 0.52963 0.79932 0.0
H241 H 0.35683 0.5293 0.77404 0.0
H242 H 0.31504 0.51477 0.78648 0.0
C243 C 0.18961 0.53825 0.80344 0.0
C244 C 0.24767 0.53793 0.79194 0.0
H245 H 0.27099 0.52678 0.73721 0.0
C246 C 0.26586 0.54167 0.80968 0.0
C247 C 0.24901 0.53152 0.76572 0.0
C248 C 0.23017 0.52772 0.74568 0.0
C249 C 0.2864 0.54121 0.80143 0.0
C250 C 0.28843 0.53624 0.7748 0.0
C251 C 0.2693 0.53052 0.75758 0.0
C252 C 0.3117 0.54122 0.76361 0.0
C253 C 0.30659 0.54811 0.82076 0.0
C254 C 0.32308 0.55983 0.7453 0.0
C255 C 0.34675 0.56794 0.73789 0.0
C256 C 0.35956 0.55767 0.74879 0.0
C257 C 0.34753 0.53778 0.76555 0.0
C258 C 0.3237 0.52953 0.7728 0.0
H259 H 0.30348 0.55493 0.83949 0.0
H260 H 0.30831 0.5322 0.82525 0.0
H261 H 0.32386 0.56215 0.81235 0.0
H262 H 0.31411 0.56904 0.73785 0.0
H263 H 0.35538 0.58315 0.72476 0.0
H264 H 0.77438 0.36648 0.88493 0.0
H265 H 0.74647 0.32443 0.89376 0.0
H266 H 0.80046 0.3198 0.9393 0.0
H267 H 0.82843 0.36244 0.93136 0.0
H268 H 0.74406 0.28185 0.88686 0.0
H269 H 0.74888 0.30299 0.99341 0.0
H270 H 0.763 0.32612 0.969 0.0
H271 H 0.7762 0.30831 0.97807 0.0
C272 C 0.78053 0.35651 0.89651 0.0
C273 C 0.80346 0.36795 0.90792 0.0
C274 C 0.76453 0.33238 0.90148 0.0
C275 C 0.77116 0.31911 0.91775 0.0
C276 C 0.79475 0.32989 0.92729 0.0
H277 H 0.64166 0.17689 0.93984 0.0
H278 H 0.68483 0.20417 0.93405 0.0
C279 C 0.81075 0.35421 0.92258 0.0
C280 C 0.75238 0.29495 0.92644 0.0
H281 H 0.71788 0.2659 0.97966 0.0
C282 C 0.73857 0.27805 0.90721 0.0
C283 C 0.74531 0.29012 0.95306 0.0
C284 C 0.75896 0.30783 0.97463 0.0
C285 C 0.71678 0.25746 0.91352 0.0
C286 C 0.70903 0.25335 0.93994 0.0
C287 C 0.72392 0.26915 0.95945 0.0
C288 C 0.68394 0.23568 0.94705 0.0
C289 C 0.70136 0.24145 0.89156 0.0
C290 C 0.66944 0.24409 0.95768 0.0
C291 C 0.64499 0.22859 0.96138 0.0
C292 C 0.63444 0.20432 0.95435 0.0
C293 C 0.64922 0.19556 0.94519 0.0
C294 C 0.67385 0.21113 0.94169 0.0
H295 H 0.70843 0.24926 0.87193 0.0
H296 H 0.70067 0.22394 0.89276 0.0
H297 H 0.68275 0.23812 0.89326 0.0
H298 H 0.67684 0.26295 0.96205 0.0
H299 H 0.63421 0.23593 0.96868 0.0
H300 H 0.40588 0.7738 1.00351 0.0
H301 H 0.41682 0.74311 1.01184 0.0
H302 H 0.4564 0.78152 0.08051 0.0
H303 H 0.44586 0.81241 0.07228 0.0
H304 H 0.47641 0.75572 0.05065 0.0
H305 H 0.37988 0.70144 0.07749 0.0
H306 H 0.38602 0.71395 0.04502 0.0
H307 H 0.39471 0.73347 0.07299 0.0
C308 C 0.41751 0.77612 0.01994 0.0
C309 C 0.42454 0.79525 0.03757 0.0
C310 C 0.42374 0.75857 0.02465 0.0
C311 C 0.43704 0.75993 0.04702 0.0
C312 C 0.44606 0.78017 0.06318 0.0
H313 H 0.41745 0.63832 0.13556 0.0
H314 H 0.427 0.67875 0.12321 0.0
C315 C 0.43989 0.79773 0.05849 0.0
C316 C 0.43818 0.73874 0.05595 0.0
H317 H 0.40297 0.68265 0.08075 0.0
C318 C 0.46041 0.73967 0.05716 0.0
C319 C 0.4173 0.71811 0.06495 0.0
C320 C 0.39312 0.71661 0.06531 0.0
C321 C 0.46218 0.72018 0.06686 0.0
C322 C 0.44118 0.69941 0.07537 0.0
C323 C 0.41906 0.69866 0.07428 0.0
C324 C 0.44115 0.67777 0.08505 0.0
C325 C 0.48645 0.72208 0.06834 0.0
C326 C 0.44687 0.66423 0.06809 0.0
C327 C 0.44154 0.64113 0.07516 0.0
C328 C 0.43009 0.63114 0.09914 0.0
C329 C 0.42608 0.64544 0.11687 0.0
C330 C 0.43156 0.66856 0.10986 0.0
H331 H 0.50122 0.74102 0.0675 0.0
H332 H 0.48825 0.71377 0.08663 0.0
H333 H 0.48853 0.7124 0.05147 0.0
H334 H 0.45389 0.67083 0.04868 0.0
H335 H 0.44483 0.63055 0.06104 0.0
H336 H 0.75442 0.38452 0.32432 0.0
H337 H 0.72825 0.3994 0.30985 0.0
H338 H 0.78684 0.45625 0.26698 0.0
H339 H 0.81303 0.44083 0.28058 0.0
H340 H 0.72586 0.44024 0.31049 0.0
H341 H 0.74086 0.41909 0.20867 0.0
H342 H 0.7521 0.41099 0.23686 0.0
H343 H 0.76669 0.44158 0.22584 0.0
C344 C 0.76193 0.40049 0.31228 0.0
C345 C 0.78562 0.41114 0.30306 0.0
C346 C 0.74694 0.40903 0.30405 0.0
C347 C 0.75542 0.42852 0.28671 0.0
C348 C 0.77976 0.44076 0.27973 0.0
H349 H 0.63062 0.44124 0.23719 0.0
H350 H 0.67298 0.45736 0.24848 0.0
C351 C 0.79472 0.432 0.28765 0.0
C352 C 0.7379 0.43365 0.27376 0.0
H353 H 0.7092 0.42615 0.21528 0.0
C354 C 0.72247 0.43773 0.28958 0.0
C355 C 0.73359 0.43032 0.24642 0.0
C356 C 0.74902 0.4251 0.22839 0.0
C357 C 0.70171 0.43654 0.27923 0.0
C358 C 0.69668 0.43177 0.25218 0.0
C359 C 0.71321 0.42983 0.23598 0.0
C360 C 0.67254 0.42403 0.24144 0.0
C361 C 0.68437 0.43834 0.2977 0.0
C362 C 0.65872 0.40043 0.23232 0.0
C363 C 0.63476 0.3913 0.22557 0.0
C364 C 0.62407 0.40558 0.22792 0.0
C365 C 0.63833 0.42975 0.23537 0.0
C366 C 0.66246 0.43894 0.24202 0.0
H367 H 0.68954 0.43888 0.31858 0.0
H368 H 0.68386 0.45495 0.29345 0.0
H369 H 0.66599 0.42288 0.29496 0.0
H370 H 0.66617 0.38863 0.23161 0.0
H371 H 0.62436 0.37269 0.2197 0.0
H372 H 0.18177 0.63089 0.70524 0.0
H373 H 0.18193 0.62531 0.65758 0.0
H374 H 0.14501 0.5487 0.66838 0.0
H375 H 0.14442 0.554 0.71555 0.0
H376 H 0.2014 0.60209 0.62803 0.0
H377 H 0.10286 0.55762 0.61511 0.0
H378 H 0.11776 0.57374 0.64455 0.0
H379 H 0.11177 0.54361 0.63957 0.0
C380 C 0.17357 0.61287 0.69741 0.0
C381 C 0.1629 0.5929 0.7142 0.0
C382 C 0.17375 0.60972 0.67021 0.0
C383 C 0.16315 0.58657 0.65943 0.0
C384 C 0.15284 0.5667 0.67621 0.0
H385 H 0.18124 0.5434 0.50224 0.0
H386 H 0.18299 0.55087 0.54962 0.0
C387 C 0.1526 0.5698 0.70324 0.0
C388 C 0.16287 0.58293 0.63067 0.0
H389 H 0.12513 0.5553 0.57915 0.0
C390 C 0.18475 0.592 0.61726 0.0
C391 C 0.14112 0.56994 0.61664 0.0
C392 C 0.11704 0.56086 0.62963 0.0
C393 C 0.18545 0.58803 0.59024 0.0
C394 C 0.16368 0.57426 0.57642 0.0
C395 C 0.14183 0.56557 0.58981 0.0
C396 C 0.16296 0.56961 0.54782 0.0
C397 C 0.20945 0.59897 0.57667 0.0
C398 C 0.15057 0.57702 0.53119 0.0
C399 C 0.14928 0.5725 0.50433 0.0
C400 C 0.16034 0.56044 0.49338 0.0
C401 C 0.1726 0.55279 0.51005 0.0
C402 C 0.17379 0.55724 0.53709 0.0
H403 H 0.22375 0.61379 0.58834 0.0
H404 H 0.21457 0.58503 0.57397 0.0
H405 H 0.20864 0.60599 0.55704 0.0
H406 H 0.142 0.58649 0.53901 0.0
H407 H 0.13971 0.57871 0.49213 0.0
H408 H 0.62223 0.22523 0.65417 0.0
H409 H 0.61213 0.22322 0.70061 0.0
H410 H 0.60987 0.15542 0.70714 0.0
H411 H 0.62037 0.15745 0.66078 0.0
H412 H 0.57093 0.18887 0.72405 0.0
H413 H 0.64991 0.19128 0.77047 0.0
H414 H 0.6498 0.19935 0.73661 0.0
H415 H 0.63596 0.16834 0.74602 0.0
C416 C 0.62002 0.21007 0.66556 0.0
C417 C 0.6222 0.19152 0.65373 0.0
C418 C 0.61415 0.20893 0.69211 0.0
C419 C 0.61046 0.1893 0.70745 0.0
C420 C 0.61312 0.17099 0.69586 0.0
H421 H 0.55957 0.13623 0.86292 0.0
H422 H 0.57179 0.14223 0.817 0.0
C423 C 0.61905 0.17214 0.66929 0.0
C424 C 0.60238 0.18726 0.73509 0.0
H425 H 0.61587 0.17981 0.79788 0.0
C426 C 0.58086 0.18711 0.74024 0.0
C427 C 0.61535 0.18498 0.75619 0.0
C428 C 0.63916 0.18622 0.75214 0.0
C429 C 0.57163 0.18403 0.7658 0.0
C430 C 0.58439 0.18132 0.7868 0.0
C431 C 0.60606 0.1818 0.78171 0.0
C432 C 0.57537 0.17735 0.81416 0.0
C433 C 0.54794 0.18298 0.77003 0.0
C434 C 0.57306 0.19503 0.82778 0.0
C435 C 0.566 0.19165 0.85415 0.0
C436 C 0.56126 0.17056 0.86736 0.0
C437 C 0.56306 0.15269 0.85341 0.0
C438 C 0.57012 0.1561 0.82714 0.0
H439 H 0.53794 0.18012 0.75139 0.0
H440 H 0.53653 0.16838 0.78389 0.0
H441 H 0.55122 0.20017 0.77866 0.0
H442 H 0.57735 0.21172 0.81824 0.0
H443 H 0.56494 0.20582 0.86435 0.0
H444 H 0.40249 0.52881 0.02652 0.0
H445 H 0.41043 0.54026 0.98038 0.0
H446 H 0.37239 0.57921 0.98725 0.0
H447 H 0.36447 0.56798 0.0336 0.0
H448 H 0.37887 0.53353 0.93771 0.0
H449 H 0.43994 0.6299 0.96079 0.0
H450 H 0.43076 0.60665 0.9852 0.0
H451 H 0.41037 0.61635 0.97476 0.0
C452 C 0.39554 0.53957 0.01819 0.0
C453 C 0.38297 0.5476 0.03382 0.0
C454 C 0.40013 0.54612 0.9918 0.0
C455 C 0.3924 0.56095 0.98054 0.0
C456 C 0.37889 0.56811 0.99571 0.0
H457 H 0.42198 0.62399 0.82287 0.0
H458 H 0.40885 0.61414 0.86857 0.0
C459 C 0.3742 0.56148 0.02213 0.0
C460 C 0.39914 0.56932 0.95312 0.0
H461 H 0.43417 0.61906 0.91613 0.0
C462 C 0.39086 0.55224 0.93296 0.0
C463 C 0.41473 0.59376 0.947 0.0
C464 C 0.42467 0.61279 0.96802 0.0
C465 C 0.3979 0.55889 0.90684 0.0
C466 C 0.41408 0.58322 0.90081 0.0
C467 C 0.42186 0.60042 0.92085 0.0
C468 C 0.42372 0.59088 0.87393 0.0
C469 C 0.38786 0.5398 0.88589 0.0
C470 C 0.43725 0.58183 0.86217 0.0
C471 C 0.44479 0.58742 0.83617 0.0
C472 C 0.43911 0.60234 0.8214 0.0
C473 C 0.42666 0.61245 0.83367 0.0
C474 C 0.41907 0.60678 0.85975 0.0
H475 H 0.371 0.52375 0.89236 0.0
H476 H 0.38425 0.54672 0.86754 0.0
H477 H 0.40112 0.53408 0.88146 0.0
H478 H 0.44154 0.56999 0.87297 0.0
H479 H 0.45451 0.57948 0.82743 0.0
H480 H 0.80614 0.36557 0.19771 0.0
H481 H 0.80268 0.37217 0.15083 0.0
H482 H 0.87455 0.43273 0.15143 0.0
H483 H 0.8781 0.42646 0.19806 0.0
H484 H 0.81072 0.41949 0.12932 0.0
H485 H 0.87079 0.38941 0.08716 0.0
H486 H 0.85638 0.37927 0.11867 0.0
H487 H 0.88219 0.40862 0.11539 0.0
C488 C 0.82132 0.38004 0.18773 0.0
C489 C 0.8424 0.39549 0.20157 0.0
C490 C 0.81927 0.38385 0.16102 0.0
C491 C 0.83841 0.40287 0.14771 0.0
C492 C 0.85967 0.41784 0.16132 0.0
H493 H 0.87641 0.46862 0.99614 0.0
H494 H 0.87378 0.4563 0.04185 0.0
C495 C 0.86163 0.41424 0.18798 0.0
C496 C 0.83602 0.40808 0.11995 0.0
H497 H 0.85961 0.41157 0.05916 0.0
C498 C 0.82114 0.41751 0.11384 0.0
C499 C 0.84978 0.40559 0.09996 0.0
C500 C 0.86558 0.395 0.10545 0.0
C501 C 0.82039 0.42545 0.08836 0.0
C502 C 0.83452 0.42338 0.0684 0.0
C503 C 0.84888 0.4133 0.07446 0.0
C504 C 0.83539 0.4322 0.04125 0.0
C505 C 0.80529 0.43692 0.08337 0.0
C506 C 0.81462 0.42305 0.02574 0.0
C507 C 0.81603 0.43031 0.9996 0.0
C508 C 0.83831 0.44658 0.98839 0.0
C509 C 0.85897 0.45607 1.00415 0.0
C510 C 0.85751 0.44898 0.03028 0.0
H511 H 0.80076 0.44288 0.10186 0.0
H512 H 0.81465 0.45261 0.07011 0.0
H513 H 0.78824 0.42367 0.07388 0.0
H514 H 0.79742 0.40971 0.03355 0.0
H515 H 0.79981 0.42244 0.98791 0.0
H516 H 0.37554 0.82997 0.15587 0.0
H517 H 0.3809 0.82906 0.20348 0.0
H518 H 0.45602 0.85366 0.1919 0.0
H519 H 0.451 0.85502 0.14476 0.0
H520 H 0.39795 0.80391 0.23349 0.0
H521 H 0.45711 0.90212 0.24412 0.0
H522 H 0.43955 0.88862 0.215 0.0
H523 H 0.46745 0.88911 0.21999 0.0
C524 C 0.39319 0.83525 0.16351 0.0
C525 C 0.41288 0.8428 0.14652 0.0
C526 C 0.39622 0.83467 0.19068 0.0
C527 C 0.41896 0.84168 0.20124 0.0
C528 C 0.43844 0.84869 0.18425 0.0
H529 H 0.45319 0.81671 0.36043 0.0
H530 H 0.44748 0.81587 0.31274 0.0
C531 C 0.43548 0.84937 0.15724 0.0
C532 C 0.42255 0.8418 0.22999 0.0
H533 H 0.45465 0.87827 0.28081 0.0
C534 C 0.41025 0.82016 0.24391 0.0
C535 C 0.43846 0.86307 0.24355 0.0
C536 C 0.45123 0.88709 0.22998 0.0
C537 C 0.41372 0.81918 0.271 0.0
C538 C 0.43022 0.84034 0.28438 0.0
C539 C 0.44227 0.862 0.27047 0.0
C540 C 0.43424 0.84083 0.3131 0.0
C541 C 0.39931 0.79564 0.28515 0.0
C542 C 0.42945 0.85568 0.32899 0.0
C543 C 0.43293 0.85639 0.35603 0.0
C544 C 0.44135 0.84229 0.36788 0.0
C545 C 0.44663 0.82774 0.35191 0.0
C546 C 0.44317 0.82708 0.3247 0.0
H547 H 0.38354 0.78266 0.2735 0.0
H548 H 0.41081 0.78764 0.28874 0.0
H549 H 0.39293 0.7983 0.30441 0.0
H550 H 0.42267 0.86654 0.32048 0.0
H551 H 0.4287 0.86785 0.36766 0.0
H552 H 0.5941 0.44227 0.31728 0.0
H553 H 0.60155 0.44651 0.36428 0.0
H554 H 0.54542 0.37333 0.37592 0.0
H555 H 0.53819 0.36871 0.32845 0.0
H556 H 0.57229 0.44299 0.40371 0.0
H557 H 0.60016 0.37493 0.41665 0.0
H558 H 0.59736 0.38543 0.38478 0.0
H559 H 0.57113 0.36336 0.4019 0.0
C560 C 0.58332 0.42698 0.32974 0.0
C561 C 0.56555 0.40509 0.31905 0.0
C562 C 0.58764 0.42947 0.35668 0.0
C563 C 0.57431 0.41018 0.37365 0.0
C564 C 0.55634 0.38832 0.36315 0.0
H565 H 0.56507 0.394 0.54137 0.0
H566 H 0.56078 0.3897 0.49393 0.0
C567 C 0.55209 0.38574 0.33605 0.0
C568 C 0.57895 0.41342 0.40234 0.0
H569 H 0.59456 0.39193 0.4555 0.0
C570 C 0.5773 0.43191 0.415 0.0
C571 C 0.5856 0.39903 0.41705 0.0
C572 C 0.58891 0.37972 0.4044 0.0
C573 C 0.58164 0.43609 0.442 0.0
C574 C 0.58802 0.42154 0.45672 0.0
C575 C 0.58975 0.40311 0.44411 0.0
C576 C 0.59161 0.42431 0.48551 0.0
C577 C 0.57876 0.45563 0.45474 0.0
C578 C 0.61067 0.44513 0.49657 0.0
C579 C 0.61326 0.44769 0.52388 0.0
C580 C 0.59677 0.42946 0.5405 0.0
C581 C 0.57802 0.40849 0.52921 0.0
C582 C 0.57554 0.40593 0.50205 0.0
H583 H 0.56949 0.46223 0.44168 0.0
H584 H 0.56847 0.44914 0.47329 0.0
H585 H 0.59673 0.47097 0.45955 0.0
H586 H 0.62346 0.45941 0.48408 0.0
H587 H 0.62793 0.464 0.53195 0.0
H588 H 0.92207 0.39485 0.26561 0.0
H589 H 0.96373 0.41791 0.28043 0.0
H590 H 0.94142 0.44305 0.34715 0.0
H591 H 0.89987 0.42053 0.33221 0.0
H592 H 0.97949 0.47918 0.32207 0.0
H593 H 0.9961 0.40389 0.34062 0.0
H594 H 0.98566 0.40415 0.30806 0.0
H595 H 0.96639 0.39943 0.33564 0.0
C596 C 0.92601 0.40514 0.28355 0.0
C597 C 0.90768 0.40586 0.29775 0.0
C598 C 0.94981 0.4182 0.29206 0.0
C599 C 0.95561 0.43192 0.31508 0.0
C600 C 0.93731 0.43252 0.32937 0.0
H601 H 0.0891 0.49593 0.40153 0.0
H602 H 0.04778 0.47162 0.38623 0.0
C603 C 0.91358 0.41963 0.3208 0.0
C604 C 0.98083 0.44649 0.32381 0.0
H605 H 0.03 0.44317 0.3424 0.0
C606 C 0.99053 0.47131 0.32658 0.0
C607 C 0.99508 0.43612 0.32995 0.0
C608 C 0.98525 0.40941 0.32868 0.0
C609 C 0.01417 0.48611 0.33516 0.0
C610 C 0.02865 0.47585 0.34054 0.0
C611 C 0.0189 0.451 0.33799 0.0
C612 C 0.05378 0.49053 0.34947 0.0
C613 C 0.02323 0.51251 0.33894 0.0
C614 C 0.0709 0.50903 0.33371 0.0
C615 C 0.0945 0.52307 0.34245 0.0
C616 C 0.10144 0.51867 0.36701 0.0
C617 C 0.08433 0.49983 0.38254 0.0
C618 C 0.06072 0.48589 0.37383 0.0
H619 H 0.00825 0.5163 0.34074 0.0
H620 H 0.03465 0.51938 0.35671 0.0
H621 H 0.03419 0.52252 0.32172 0.0
H622 H 0.06602 0.51256 0.31459 0.0
H623 H 0.1073 0.53731 0.32992 0.0
H624 H 0.43748 0.90056 0.50469 0.0
H625 H 0.46055 0.9419 0.52037 0.0
H626 H 0.52487 0.9481 0.48684 0.0
H627 H 0.50197 0.90687 0.47087 0.0
H628 H 0.5013 0.96198 0.55441 0.0
H629 H 0.52209 0.0062 0.45675 0.0
H630 H 0.49879 0.97546 0.46151 0.0
H631 H 0.5297 0.98309 0.46066 0.0
C632 C 0.45652 0.91072 0.50056 0.0
C633 C 0.46787 0.90047 0.48642 0.0
C634 C 0.46965 0.93431 0.50957 0.0
C635 C 0.4943 0.94807 0.50446 0.0
C636 C 0.50576 0.93786 0.49058 0.0
H637 H 0.60118 0.09552 0.54004 0.0
H638 H 0.58034 0.05362 0.52594 0.0
C639 C 0.49266 0.91427 0.48158 0.0
C640 C 0.50808 0.97303 0.51401 0.0
H641 H 0.54042 0.03111 0.49352 0.0
C642 C 0.50984 0.97713 0.54114 0.0
C643 C 0.51924 0.99266 0.49658 0.0
C644 C 0.51727 0.98927 0.46724 0.0
C645 C 0.52268 0.00042 0.55137 0.0
C646 C 0.53361 0.02009 0.53393 0.0
C647 C 0.53202 0.01596 0.5068 0.0
C648 C 0.54637 0.04515 0.54338 0.0
C649 C 0.52476 0.00374 0.58072 0.0
C650 C 0.5341 0.05426 0.5577 0.0
C651 C 0.54595 0.07815 0.56584 0.0
C652 C 0.57024 0.09341 0.5596 0.0
C653 C 0.58248 0.08422 0.54522 0.0
C654 C 0.57061 0.06031 0.53712 0.0
H655 H 0.52131 0.9871 0.59096 0.0
H656 H 0.54283 0.01848 0.58638 0.0
H657 H 0.51128 0.00842 0.58764 0.0
H658 H 0.51525 0.04298 0.56223 0.0
H659 H 0.53597 0.0847 0.57675 0.0
H660 H 0.49073 0.58923 0.7193 0.0
H661 H 0.51231 0.56874 0.70596 0.0
H662 H 0.44816 0.51323 0.66914 0.0
H663 H 0.42656 0.53385 0.68187 0.0
H664 H 0.50337 0.52377 0.71859 0.0
H665 H 0.49724 0.53183 0.61096 0.0
H666 H 0.49033 0.54876 0.63399 0.0
H667 H 0.46868 0.51796 0.62715 0.0
C668 C 0.48123 0.57273 0.70824 0.0
C669 C 0.45696 0.56324 0.70149 0.0
C670 C 0.49359 0.56104 0.70066 0.0
C671 C 0.48194 0.53969 0.68619 0.0
C672 C 0.45764 0.53 0.67974 0.0
H673 H 0.52325 0.43866 0.62972 0.0
H674 H 0.50163 0.45918 0.643 0.0
C675 C 0.44529 0.54174 0.68717 0.0
C676 C 0.49508 0.52725 0.67849 0.0
H677 H 0.51169 0.50636 0.62567 0.0
C678 C 0.50531 0.52007 0.69827 0.0
C679 C 0.49759 0.52248 0.65195 0.0
C680 C 0.48808 0.53085 0.62976 0.0
C681 C 0.51763 0.50787 0.69225 0.0
C682 C 0.51993 0.50293 0.66577 0.0
C683 C 0.50975 0.5101 0.64597 0.0
C684 C 0.53304 0.4905 0.65815 0.0
C685 C 0.52777 0.49998 0.71426 0.0
C686 C 0.55786 0.50147 0.66211 0.0
C687 C 0.57029 0.48986 0.65449 0.0
C688 C 0.55807 0.46707 0.64275 0.0
C689 C 0.53317 0.45616 0.63878 0.0
C690 C 0.52079 0.46785 0.64631 0.0
H691 H 0.52006 0.50053 0.73356 0.0
H692 H 0.52431 0.48151 0.71079 0.0
H693 H 0.54747 0.51213 0.7152 0.0
H694 H 0.56766 0.51912 0.67088 0.0
H695 H 0.58946 0.49879 0.65777 0.0
H696 H 0.07843 0.58445 0.77003 0.0
H697 H 0.0368 0.56124 0.78463 0.0
H698 H 0.06022 0.54719 0.85834 0.0
H699 H 0.10193 0.56992 0.84366 0.0
H700 H 0.02262 0.5071 0.83783 0.0
H701 H 0.00315 0.58168 0.83687 0.0
H702 H 0.01403 0.57769 0.80599 0.0
H703 H 0.03322 0.58656 0.83434 0.0
C704 C 0.07475 0.57651 0.78939 0.0
C705 C 0.0935 0.57913 0.80574 0.0
C706 C 0.05095 0.56336 0.79776 0.0
C707 C 0.04545 0.55287 0.82276 0.0
C708 C 0.0641 0.55526 0.83903 0.0
H709 H 0.90672 0.49638 0.89874 0.0
H710 H 0.94915 0.51934 0.8869 0.0
C711 C 0.08791 0.56827 0.83061 0.0
C712 C 0.02021 0.53889 0.83168 0.0
H713 H 0.96958 0.5423 0.84148 0.0
C714 C 0.01104 0.51482 0.83878 0.0
C715 C 0.00525 0.5491 0.83326 0.0
C716 C 0.01446 0.57524 0.82747 0.0
C717 C 0.98716 0.50052 0.84692 0.0
C718 C 0.97192 0.51045 0.84739 0.0
C719 C 0.98123 0.53465 0.84081 0.0
C720 C 0.94628 0.49611 0.85479 0.0
C721 C 0.97861 0.47505 0.85532 0.0
C722 C 0.93055 0.47553 0.84052 0.0
C723 C 0.90631 0.46227 0.84734 0.0
C724 C 0.89731 0.46954 0.86835 0.0
C725 C 0.91308 0.49029 0.88245 0.0
C726 C 0.93733 0.50345 0.87571 0.0
H727 H 0.99382 0.47248 0.86106 0.0
H728 H 0.96597 0.46983 0.87208 0.0
H729 H 0.96915 0.4628 0.83871 0.0
H730 H 0.93695 0.46987 0.8239 0.0
H731 H 0.8946 0.44648 0.83596 0.0
H732 H 0.51878 0.12034 0.03648 0.0
H733 H 0.49805 0.07823 0.04985 0.0
H734 H 0.50122 0.0571 0.97043 0.0
H735 H 0.5221 0.09912 0.95686 0.0
H736 H 0.45376 0.04038 0.02959 0.0
H737 H 0.52935 0.02323 0.0147 0.0
H738 H 0.53366 0.05309 0.01696 0.0
H739 H 0.52261 0.03623 0.98715 0.0
C740 C 0.51518 0.10676 0.02186 0.0
C741 C 0.52217 0.11309 0.99562 0.0
C742 C 0.50331 0.08272 0.02954 0.0
C743 C 0.4984 0.06464 1.01119 0.0
C744 C 0.50523 0.07085 0.98497 0.0
H745 H 0.42945 0.9098 0.01879 0.0
H746 H 0.44979 0.95181 1.00519 0.0
C747 C 0.51706 0.09487 0.97725 0.0
C748 C 0.48558 0.03921 0.01934 0.0
H749 H 0.49146 0.98963 0.02453 0.0
C750 C 0.46199 0.02926 0.02861 0.0
C751 C 0.4964 0.02483 0.01789 0.0
C752 C 0.52196 0.03486 1.00885 0.0
C753 C 0.44873 0.0051 0.03609 0.0
C754 C 0.45959 0.99072 0.03478 0.0
C755 C 0.48319 0.0007 0.02549 0.0
C756 C 0.44683 0.96528 0.04303 0.0
C757 C 0.42305 0.99508 0.04473 0.0
C758 C 0.43864 0.95897 0.06888 0.0
C759 C 0.4269 0.93497 0.07669 0.0
C760 C 0.4234 0.91688 0.05884 0.0
C761 C 0.43185 0.9233 0.03301 0.0
C762 C 0.44348 0.94729 0.0252 0.0
H763 H 0.41551 0.00628 0.03773 0.0
H764 H 0.41154 0.97651 0.03744 0.0
H765 H 0.42229 0.99471 0.06646 0.0
H766 H 0.44155 0.97263 0.08312 0.0
H767 H 0.42079 0.93066 0.09677 0.0
H768 H 0.43316 0.53151 0.13518 0.0
H769 H 0.45381 0.51052 0.15009 0.0
H770 H 0.3884 0.45598 0.18577 0.0
H771 H 0.36748 0.47663 0.17064 0.0
H772 H 0.4598 0.49935 0.20137 0.0
H773 H 0.40952 0.41703 0.14127 0.0
H774 H 0.40858 0.44409 0.13486 0.0
H775 H 0.39094 0.42435 0.16092 0.0
C776 C 0.42312 0.51499 0.1461 0.0
C777 C 0.39864 0.50567 0.15163 0.0
C778 C 0.43496 0.50304 0.15461 0.0
C779 C 0.42254 0.48154 0.16869 0.0
C780 C 0.39818 0.4723 0.17445 0.0
H781 H 0.46352 0.38491 0.23939 0.0
H782 H 0.44252 0.40577 0.22515 0.0
C783 C 0.38629 0.48419 0.1659 0.0
C784 C 0.43528 0.46914 0.17794 0.0
H785 H 0.43591 0.41663 0.17344 0.0
C786 C 0.45467 0.48131 0.1952 0.0
C787 C 0.42846 0.44559 0.16986 0.0
C788 C 0.40838 0.43203 0.15052 0.0
C789 C 0.46724 0.47039 0.20494 0.0
C790 C 0.46044 0.44686 0.19683 0.0
C791 C 0.44102 0.43467 0.17962 0.0
C792 C 0.47338 0.43459 0.20581 0.0
C793 C 0.48739 0.48396 0.22419 0.0
C794 C 0.49762 0.44382 0.19943 0.0
C795 C 0.50968 0.43198 0.20755 0.0
C796 C 0.49765 0.41061 0.22206 0.0
C797 C 0.47332 0.40136 0.22829 0.0
C798 C 0.46128 0.41322 0.22016 0.0
H799 H 0.48633 0.49901 0.23342 0.0
H800 H 0.4872 0.47192 0.23987 0.0
H801 H 0.50479 0.49157 0.21373 0.0
H802 H 0.50714 0.46005 0.18792 0.0
H803 H 0.52838 0.43951 0.20229 0.0
H804 H 0.17579 0.50293 0.32359 0.0
H805 H 0.20355 0.50439 0.29003 0.0
H806 H 0.26344 0.55464 0.33693 0.0
H807 H 0.23579 0.55324 0.37076 0.0
H808 H 0.23672 0.54616 0.26298 0.0
H809 H 0.28229 0.5046 0.31543 0.0
H810 H 0.25412 0.50133 0.3263 0.0
H811 H 0.28174 0.52852 0.3329 0.0
C812 C 0.19487 0.51405 0.327 0.0
C813 C 0.20355 0.52796 0.34992 0.0
C814 C 0.21071 0.51488 0.30774 0.0
C815 C 0.23555 0.52946 0.31106 0.0
C816 C 0.24434 0.54295 0.33416 0.0
H817 H 0.36225 0.57308 0.21792 0.0
H818 H 0.33243 0.56575 0.25156 0.0
C819 C 0.2285 0.54219 0.35344 0.0
C820 C 0.25214 0.53169 0.28964 0.0
H821 H 0.2994 0.52372 0.2749 0.0
C822 C 0.25032 0.54108 0.26548 0.0
C823 C 0.26987 0.5251 0.29301 0.0
C824 C 0.27208 0.51413 0.31822 0.0
C825 C 0.2662 0.54472 0.2448 0.0
C826 C 0.28407 0.5383 0.24821 0.0
C827 C 0.28569 0.52862 0.2723 0.0
C828 C 0.30192 0.54239 0.22745 0.0
C829 C 0.26422 0.55619 0.21985 0.0
C830 C 0.29472 0.53151 0.2027 0.0
C831 C 0.31178 0.5358 0.18326 0.0
C832 C 0.33637 0.55086 0.18834 0.0
C833 C 0.34348 0.56142 0.21328 0.0
C834 C 0.32645 0.55722 0.2326 0.0
H835 H 0.25374 0.56543 0.22278 0.0
H836 H 0.28224 0.56938 0.21223 0.0
H837 H 0.25492 0.54213 0.20474 0.0
H838 H 0.27591 0.5196 0.19845 0.0
H839 H 0.30572 0.52723 0.16434 0.0
H840 H 0.82691 0.33471 0.37834 0.0
H841 H 0.8 0.30558 0.41051 0.0
H842 H 0.74075 0.28267 0.35688 0.0
H843 H 0.76757 0.31193 0.3245 0.0
H844 H 0.73204 0.29401 0.40798 0.0
H845 H 0.76819 0.23188 0.41118 0.0
H846 H 0.79031 0.26298 0.41506 0.0
H847 H 0.77444 0.25267 0.38455 0.0
C848 C 0.80822 0.32329 0.3732 0.0
C849 C 0.79941 0.32565 0.34881 0.0
C850 C 0.79288 0.30656 0.3916 0.0
C851 C 0.76843 0.2918 0.386 0.0
C852 C 0.75961 0.29382 0.36153 0.0
H853 H 0.66043 0.17222 0.47595 0.0
H854 H 0.689 0.19836 0.44284 0.0
C855 C 0.77497 0.31049 0.34303 0.0
C856 C 0.75188 0.27532 0.40628 0.0
H857 H 0.74026 0.22711 0.44444 0.0
C858 C 0.73376 0.27932 0.41589 0.0
C859 C 0.7541 0.25611 0.41646 0.0
C860 C 0.77266 0.25044 0.40617 0.0
C861 C 0.71802 0.26485 0.4357 0.0
C862 C 0.72064 0.24602 0.44636 0.0
C863 C 0.73849 0.24175 0.43645 0.0
C864 C 0.70443 0.23007 0.46718 0.0
C865 C 0.69849 0.26958 0.44481 0.0
C866 C 0.70403 0.23913 0.4921 0.0
C867 C 0.68775 0.22421 0.51116 0.0
C868 C 0.67156 0.19996 0.50561 0.0
C869 C 0.67256 0.19083 0.48087 0.0
C870 C 0.68889 0.20572 0.4619 0.0
H871 H 0.69565 0.28118 0.43086 0.0
H872 H 0.68129 0.25253 0.44731 0.0
H873 H 0.70356 0.2788 0.46407 0.0
H874 H 0.71613 0.25781 0.49669 0.0
H875 H 0.68748 0.2318 0.53001 0.0
H876 H 0.47027 0.67082 0.67368 0.0
H877 H 0.47754 0.69844 0.63735 0.0
H878 H 0.41297 0.69955 0.65698 0.0
H879 H 0.40529 0.67157 0.6929 0.0
H880 H 0.4155 0.69215 0.60502 0.0
H881 H 0.50135 0.76971 0.63848 0.0
H882 H 0.50176 0.74212 0.63628 0.0
H883 H 0.48253 0.74498 0.65976 0.0
C884 C 0.45777 0.67717 0.67047 0.0
C885 C 0.43721 0.669 0.68625 0.0
C886 C 0.462 0.69305 0.64973 0.0
C887 C 0.44594 0.7013 0.64458 0.0
C888 C 0.42563 0.69345 0.66057 0.0
H889 H 0.46075 0.81894 0.55236 0.0
H890 H 0.45969 0.79142 0.58573 0.0
C891 C 0.4213 0.67749 0.68118 0.0
C892 C 0.44961 0.71731 0.62193 0.0
H893 H 0.4881 0.7723 0.59594 0.0
C894 C 0.4314 0.70966 0.603 0.0
C895 C 0.47031 0.7402 0.61938 0.0
C896 C 0.49003 0.7499 0.63965 0.0
C897 C 0.43313 0.72437 0.58181 0.0
C898 C 0.45393 0.74718 0.57911 0.0
C899 C 0.47228 0.75471 0.59787 0.0
C900 C 0.4561 0.76426 0.55824 0.0
C901 C 0.41224 0.71569 0.56311 0.0
C902 C 0.45498 0.75843 0.53152 0.0
C903 C 0.45541 0.77415 0.51225 0.0
C904 C 0.4572 0.79607 0.51938 0.0
C905 C 0.45926 0.80219 0.5461 0.0
C906 C 0.4587 0.78647 0.56528 0.0
H907 H 0.39563 0.70044 0.57136 0.0
H908 H 0.40858 0.73033 0.55815 0.0
H909 H 0.41659 0.7095 0.5447 0.0
H910 H 0.4535 0.74161 0.52559 0.0
H911 H 0.45396 0.76897 0.49184 0.0
H912 H 0.81943 0.47248 0.8043 0.0
H913 H 0.79375 0.47741 0.77274 0.0
H914 H 0.74272 0.46518 0.83397 0.0
H915 H 0.7685 0.46045 0.86589 0.0
H916 H 0.74735 0.44266 0.76015 0.0
H917 H 0.74949 0.52471 0.79698 0.0
H918 H 0.77109 0.51619 0.80702 0.0
H919 H 0.74161 0.50178 0.82128 0.0
C920 C 0.8029 0.47113 0.81121 0.0
C921 C 0.79603 0.46604 0.83767 0.0
C922 C 0.78823 0.47395 0.79309 0.0
C923 C 0.76643 0.4719 0.801 0.0
C924 C 0.75969 0.4673 0.8275 0.0
H925 H 0.64293 0.46189 0.72404 0.0
H926 H 0.67397 0.46593 0.75444 0.0
C927 C 0.77439 0.46448 0.8457 0.0
C928 C 0.75008 0.47289 0.78114 0.0
H929 H 0.72057 0.50258 0.76404 0.0
C930 C 0.74165 0.45589 0.76085 0.0
C931 C 0.74264 0.49014 0.78213 0.0
C932 C 0.75181 0.50939 0.80287 0.0
C933 C 0.72548 0.45522 0.74194 0.0
C934 C 0.71788 0.47236 0.74302 0.0
C935 C 0.72649 0.48953 0.76316 0.0
C936 C 0.69997 0.47185 0.72428 0.0
C937 C 0.71601 0.43563 0.72154 0.0
C938 C 0.70447 0.47448 0.69718 0.0
C939 C 0.68666 0.47209 0.67962 0.0
C940 C 0.66407 0.46716 0.68892 0.0
C941 C 0.66005 0.46555 0.71615 0.0
C942 C 0.67781 0.46791 0.73361 0.0
H943 H 0.71921 0.42079 0.72709 0.0
H944 H 0.69647 0.42812 0.71847 0.0
H945 H 0.72526 0.44316 0.70264 0.0
H946 H 0.72163 0.47801 0.68957 0.0
H947 H 0.69039 0.47355 0.6588 0.0
H948 H 0.35409 0.8318 0.96763 0.0
H949 H 0.32489 0.80423 0.93614 0.0
H950 H 0.28955 0.75214 0.99747 0.0
H951 H 0.31919 0.77954 0.02919 0.0
H952 H 0.29863 0.73269 0.95586 0.0
H953 H 0.25592 0.78364 0.92112 0.0
H954 H 0.28795 0.80092 0.91854 0.0
H955 H 0.27415 0.79183 0.95035 0.0
C956 C 0.3399 0.81464 0.9746 0.0
C957 C 0.33903 0.80788 1.00098 0.0
C958 C 0.32306 0.79893 0.95653 0.0
C959 C 0.30476 0.77622 0.96445 0.0
C960 C 0.30342 0.76964 0.99093 0.0
H961 H 0.19386 0.67575 0.85602 0.0
H962 H 0.21474 0.70425 0.89163 0.0
C963 C 0.32036 0.78534 1.00905 0.0
C964 C 0.28855 0.75866 0.9446 0.0
H965 H 0.25179 0.75174 0.89295 0.0
C966 C 0.28815 0.73675 0.94234 0.0
C967 C 0.27461 0.76376 0.92711 0.0
C968 C 0.27295 0.78621 0.92957 0.0
C969 C 0.27502 0.72029 0.92247 0.0
C970 C 0.26236 0.7261 0.90394 0.0
C971 C 0.26186 0.7475 0.90686 0.0
C972 C 0.2499 0.71028 0.88123 0.0
C973 C 0.27486 0.69681 0.92153 0.0
C974 C 0.26284 0.70488 0.86302 0.0
C975 C 0.251 0.68861 0.84272 0.0
C976 C 0.22595 0.67754 0.84005 0.0
C977 C 0.21315 0.6839 0.85754 0.0
C978 C 0.22505 0.70016 0.87793 0.0
H979 H 0.27926 0.69216 0.94093 0.0
H980 H 0.25711 0.68195 0.91515 0.0
H981 H 0.28857 0.69829 0.90731 0.0
H982 H 0.28212 0.71295 0.86478 0.0
H983 H 0.26145 0.68431 0.82949 0.0
H984 H 0.52808 0.35831 0.13611 0.0
H985 H 0.52602 0.33005 0.10313 0.0
H986 H 0.52716 0.28412 0.16388 0.0
H987 H 0.52973 0.31273 0.19724 0.0
H988 H 0.56017 0.29299 0.12649 0.0
H989 H 0.47337 0.26561 0.07838 0.0
H990 H 0.49175 0.2976 0.0798 0.0
H991 H 0.48134 0.28062 0.10973 0.0
C992 C 0.5275 0.34202 0.14259 0.0
C993 C 0.52912 0.33783 0.16937 0.0
C994 C 0.52611 0.32574 0.12363 0.0
C995 C 0.52605 0.30474 0.13097 0.0
C996 C 0.527 0.30012 0.15775 0.0
H997 H 0.51608 0.20134 1.01162 0.0
H998 H 0.50705 0.21965 0.04879 0.0
C999 C 0.52841 0.31646 0.17681 0.0
C1000 C 0.52741 0.28901 0.11052 0.0
H1001 H 0.50197 0.26012 0.05306 0.0
C1002 C 0.54723 0.2855 0.11066 0.0
C1003 C 0.5104 0.27894 0.08999 0.0
C1004 C 0.48789 0.28067 0.08959 0.0
C1005 C 0.55112 0.27325 0.09024 0.0
C1006 C 0.53503 0.26468 0.06878 0.0
C1007 C 0.51454 0.26708 0.06927 0.0
C1008 C 0.53969 0.25391 0.04536 0.0
C1009 C 0.57257 0.26973 0.09176 0.0
C1010 C 0.56063 0.26733 0.03057 0.0
C1011 C 0.56584 0.25697 1.00938 0.0
C1012 C 0.5501 0.23298 1.00236 0.0
C1013 C 0.5286 0.21985 0.01651 0.0
C1014 C 0.52343 0.23026 0.03779 0.0
H1015 H 0.57872 0.27073 0.11231 0.0
H1016 H 0.56842 0.25218 0.08335 0.0
H1017 H 0.58759 0.28411 0.08044 0.0
H1018 H 0.57315 0.2858 0.03564 0.0
H1019 H 0.58246 0.26767 0.99881 0.0
loop_
_geom_bond_atom_site_label_1
_geom_bond_atom_site_label_2
_geom_bond_distance
_geom_bond_site_symmetry_2
_ccdc_geom_bond_type
Mg0 O7 2.141 . S
Mg0 O8 2.048 . S
Mg0 O9 2.048 . S
Mg0 O12 2.141 . S
C1 O2 1.313 . S
C1 O8 1.195 . S
O2 C1 1.313 . S
C3 O4 1.245 . S
C3 O12 1.289 . S
O4 C3 1.245 . S
C5 O6 1.245 . S
C5 O7 1.289 . S
O6 C5 1.245 . S
O7 Mg0 2.141 . S
O7 C5 1.289 . S
O8 Mg0 2.048 . S
O8 C1 1.195 . S
O9 Mg0 2.048 . S
O9 C10 1.195 . S
C10 O9 1.195 . S
C10 O11 1.313 . S
O11 C10 1.313 . S
O12 Mg0 2.141 . S
O12 C3 1.289 . S
Mg13 O20 2.141 . S
Mg13 O21 2.048 . S
Mg13 O22 2.048 . S
Mg13 O25 2.141 . S
C14 O15 1.313 . S
C14 O21 1.195 . S
O15 C14 1.313 . S
C16 O17 1.245 . S
C16 O25 1.289 . S
O17 C16 1.245 . S
C18 O19 1.245 . S
C18 O20 1.289 . S
O19 C18 1.245 . S
O20 Mg13 2.141 . S
O20 C18 1.289 . S
O21 Mg13 2.048 . S
O21 C14 1.195 . S
O22 Mg13 2.048 . S
O22 C23 1.195 . S
C23 O22 1.195 . S
C23 O24 1.313 . S
O24 C23 1.313 . S
O25 Mg13 2.141 . S
O25 C16 1.289 . S
Mg26 O33 2.141 . S
Mg26 O34 2.048 . S
Mg26 O35 2.048 . S
Mg26 O38 2.141 . S
C27 O28 1.313 . S
C27 O34 1.195 . S
O28 C27 1.313 . S
C29 O30 1.245 . S
C29 O38 1.289 . S
O30 C29 1.245 . S
C31 O32 1.245 . S
C31 O33 1.289 . S
O32 C31 1.245 . S
O33 Mg26 2.141 . S
O33 C31 1.289 . S
O34 Mg26 2.048 . S
O34 C27 1.195 . S
O35 Mg26 2.048 . S
O35 C36 1.195 . S
C36 O35 1.195 . S
C36 O37 1.313 . S
O37 C36 1.313 . S
O38 Mg26 2.141 . S
O38 C29 1.289 . S
Mg39 O46 2.141 . S
Mg39 O47 2.048 . S
Mg39 O48 2.048 . S
Mg39 O51 2.141 . S
C40 O41 1.313 . S
C40 O47 1.195 . S
O41 C40 1.313 . S
C42 O43 1.245 . S
C42 O51 1.289 . S
O43 C42 1.245 . S
C44 O45 1.245 . S
C44 O46 1.289 . S
O45 C44 1.245 . S
O46 Mg39 2.141 . S
O46 C44 1.289 . S
O47 Mg39 2.048 . S
O47 C40 1.195 . S
O48 Mg39 2.048 . S
O48 C49 1.195 . S
C49 O48 1.195 . S
C49 O50 1.313 . S
O50 C49 1.313 . S
O51 Mg39 2.141 . S
O51 C42 1.289 . S
Mg52 O59 2.141 . S
Mg52 O60 2.048 . S
Mg52 O61 2.048 . S
Mg52 O64 2.141 . S
C53 O54 1.313 . S
C53 O60 1.195 . S
O54 C53 1.313 . S
C55 O56 1.245 . S
C55 O64 1.289 . S
O56 C55 1.245 . S
C57 O58 1.245 . S
C57 O59 1.289 . S
O58 C57 1.245 . S
O59 Mg52 2.141 . S
O59 C57 1.289 . S
O60 Mg52 2.048 . S
O60 C53 1.195 . S
O61 Mg52 2.048 . S
O61 C62 1.195 . S
C62 O61 1.195 . S
C62 O63 1.313 . S
O63 C62 1.313 . S
O64 Mg52 2.141 . S
O64 C55 1.289 . S
Mg65 O72 2.141 . S
Mg65 O73 2.048 . S
Mg65 O74 2.048 . S
Mg65 O77 2.141 . S
C66 O67 1.313 . S
C66 O73 1.195 . S
O67 C66 1.313 . S
C68 O69 1.245 . S
C68 O77 1.289 . S
O69 C68 1.245 . S
C70 O71 1.245 . S
C70 O72 1.289 . S
O71 C70 1.245 . S
O72 Mg65 2.141 . S
O72 C70 1.289 . S
O73 Mg65 2.048 . S
O73 C66 1.195 . S
O74 Mg65 2.048 . S
O74 C75 1.195 . S
C75 O74 1.195 . S
C75 O76 1.313 . S
O76 C75 1.313 . S
O77 Mg65 2.141 . S
O77 C68 1.289 . S
Mg78 O85 2.141 . S
Mg78 O86 2.048 . S
Mg78 O87 2.048 . S
Mg78 O90 2.141 . S
C79 O80 1.313 . S
C79 O86 1.195 . S
O80 C79 1.313 . S
C81 O82 1.245 . S
C81 O90 1.289 . S
O82 C81 1.245 . S
C83 O84 1.245 . S
C83 O85 1.289 . S
O84 C83 1.245 . S
O85 Mg78 2.141 . S
O85 C83 1.289 . S
O86 Mg78 2.048 . S
O86 C79 1.195 . S
O87 Mg78 2.048 . S
O87 C88 1.195 . S
C88 O87 1.195 . S
C88 O89 1.313 . S
O89 C88 1.313 . S
O90 Mg78 2.141 . S
O90 C81 1.289 . S
Mg91 O98 2.141 . S
Mg91 O99 2.048 . S
Mg91 O100 2.048 . S
Mg91 O103 2.141 . S
C92 O93 1.313 . S
C92 O99 1.195 . S
O93 C92 1.313 . S
C94 O95 1.245 . S
C94 O103 1.289 . S
O95 C94 1.245 . S
C96 O97 1.245 . S
C96 O98 1.289 . S
O97 C96 1.245 . S
O98 Mg91 2.141 . S
O98 C96 1.289 . S
O99 Mg91 2.048 . S
O99 C92 1.195 . S
O100 Mg91 2.048 . S
O100 C101 1.195 . S
C101 O100 1.195 . S
C101 O102 1.313 . S
O102 C101 1.313 . S
O103 Mg91 2.141 . S
O103 C94 1.289 . S
Mg104 O111 2.141 . S
Mg104 O112 2.048 . S
Mg104 O113 2.048 . S
Mg104 O116 2.141 . S
C105 O106 1.313 . S
C105 O112 1.195 . S
O106 C105 1.313 . S
C107 O108 1.245 . S
C107 O116 1.289 . S
O108 C107 1.245 . S
C109 O110 1.245 . S
C109 O111 1.289 . S
O110 C109 1.245 . S
O111 Mg104 2.141 . S
O111 C109 1.289 . S
O112 Mg104 2.048 . S
O112 C105 1.195 . S
O113 Mg104 2.048 . S
O113 C114 1.195 . S
C114 O113 1.195 . S
C114 O115 1.313 . S
O115 C114 1.313 . S
O116 Mg104 2.141 . S
O116 C107 1.289 . S
Mg117 O124 2.141 . S
Mg117 O125 2.048 . S
Mg117 O126 2.048 . S
Mg117 O129 2.141 . S
C118 O119 1.313 . S
C118 O125 1.195 . S
O119 C118 1.313 . S
C120 O121 1.245 . S
C120 O129 1.289 . S
O121 C120 1.245 . S
C122 O123 1.245 . S
C122 O124 1.289 . S
O123 C122 1.245 . S
O124 Mg117 2.141 . S
O124 C122 1.289 . S
O125 Mg117 2.048 . S
O125 C118 1.195 . S
O126 Mg117 2.048 . S
O126 C127 1.195 . S
C127 O126 1.195 . S
C127 O128 1.313 . S
O128 C127 1.313 . S
O129 Mg117 2.141 . S
O129 C120 1.289 . S
Mg130 O137 2.141 . S
Mg130 O138 2.048 . S
Mg130 O139 2.048 . S
Mg130 O142 2.141 . S
C131 O132 1.313 . S
C131 O138 1.195 . S
O132 C131 1.313 . S
C133 O134 1.245 . S
C133 O142 1.289 . S
O134 C133 1.245 . S
C135 O136 1.245 . S
C135 O137 1.289 . S
O136 C135 1.245 . S
O137 Mg130 2.141 . S
O137 C135 1.289 . S
O138 Mg130 2.048 . S
O138 C131 1.195 . S
O139 Mg130 2.048 . S
O139 C140 1.195 . S
C140 O139 1.195 . S
C140 O141 1.313 . S
O141 C140 1.313 . S
O142 Mg130 2.141 . S
O142 C133 1.289 . S
Mg143 O150 2.141 . S
Mg143 O151 2.048 . S
Mg143 O152 2.048 . S
Mg143 O155 2.141 . S
C144 O145 1.313 . S
C144 O151 1.195 . S
O145 C144 1.313 . S
C146 O147 1.245 . S
C146 O155 1.289 . S
O147 C146 1.245 . S
C148 O149 1.245 . S
C148 O150 1.289 . S
O149 C148 1.245 . S
O150 Mg143 2.141 . S
O150 C148 1.289 . S
O151 Mg143 2.048 . S
O151 C144 1.195 . S
O152 Mg143 2.048 . S
O152 C153 1.195 . S
C153 O152 1.195 . S
C153 O154 1.313 . S
O154 C153 1.313 . S
O155 Mg143 2.141 . S
O155 C146 1.289 . S
H156 C164 0.929 . S
H157 C166 0.930 . S
H158 C168 0.930 . S
H159 C171 0.929 . S
H160 C174 0.930 . S
H161 C176 0.960 . S
H162 C176 0.960 . S
H163 C176 0.960 . S
C164 H156 0.929 . S
C164 C165 1.377 . S
C164 C166 1.384 . S
C165 C164 1.377 . S
C165 C171 1.390 . S
C166 H157 0.930 . S
C166 C164 1.384 . S
C166 C167 1.372 . S
C167 C166 1.372 . S
C167 C168 1.400 . S
C167 C172 1.490 . S
C168 H158 0.930 . S
C168 C167 1.400 . S
C168 C171 1.386 . S
H169 C185 0.930 . S
H170 C186 0.931 . S
C171 H159 0.929 . S
C171 C165 1.390 . S
C171 C168 1.386 . S
C172 C167 1.490 . S
C172 C174 1.395 . S
C172 C175 1.403 . S
H173 C179 0.930 . S
C174 H160 0.930 . S
C174 C172 1.395 . S
C174 C177 1.403 . S
C175 C172 1.403 . S
C175 C176 1.524 . S
C175 C179 1.400 . S
C176 H161 0.960 . S
C176 H162 0.960 . S
C176 H163 0.960 . S
C176 C175 1.524 . S
C177 C174 1.403 . S
C177 C178 1.392 . S
C177 C181 1.495 . S
C178 C177 1.392 . S
C178 C179 1.385 . S
C178 C180 1.478 . S
C179 H173 0.930 . S
C179 C175 1.400 . S
C179 C178 1.385 . S
C180 C178 1.478 . S
C180 C182 1.381 . S
C180 C186 1.383 . S
C181 C177 1.495 . S
C181 H187 0.959 . S
C181 H188 0.961 . S
C181 H189 0.960 . S
C182 C180 1.381 . S
C182 C183 1.394 . S
C182 H190 0.930 . S
C183 C182 1.394 . S
C183 C184 1.383 . S
C183 H191 0.929 . S
C184 C183 1.383 . S
C184 C185 1.377 . S
C185 H169 0.930 . S
C185 C184 1.377 . S
C185 C186 1.379 . S
C186 H170 0.931 . S
C186 C180 1.383 . S
C186 C185 1.379 . S
H187 C181 0.959 . S
H188 C181 0.961 . S
H189 C181 0.960 . S
H190 C182 0.930 . S
H191 C183 0.929 . S
H192 C200 0.929 . S
H193 C202 0.930 . S
H194 C204 0.930 . S
H195 C207 0.929 . S
H196 C210 0.930 . S
H197 C212 0.960 . S
H198 C212 0.960 . S
H199 C212 0.960 . S
C200 H192 0.929 . S
C200 C201 1.377 . S
C200 C202 1.384 . S
C201 C200 1.377 . S
C201 C207 1.390 . S
C202 H193 0.930 . S
C202 C200 1.384 . S
C202 C203 1.372 . S
C203 C202 1.372 . S
C203 C204 1.400 . S
C203 C208 1.490 . S
C204 H194 0.930 . S
C204 C203 1.400 . S
C204 C207 1.386 . S
H205 C221 0.930 . S
H206 C222 0.931 . S
C207 H195 0.929 . S
C207 C201 1.390 . S
C207 C204 1.386 . S
C208 C203 1.490 . S
C208 C210 1.395 . S
C208 C211 1.403 . S
H209 C215 0.930 . S
C210 H196 0.930 . S
C210 C208 1.395 . S
C210 C213 1.403 . S
C211 C208 1.403 . S
C211 C212 1.524 . S
C211 C215 1.400 . S
C212 H197 0.960 . S
C212 H198 0.960 . S
C212 H199 0.960 . S
C212 C211 1.524 . S
C213 C210 1.403 . S
C213 C214 1.392 . S
C213 C217 1.495 . S
C214 C213 1.392 . S
C214 C215 1.385 . S
C214 C216 1.478 . S
C215 H209 0.930 . S
C215 C211 1.400 . S
C215 C214 1.385 . S
C216 C214 1.478 . S
C216 C218 1.381 . S
C216 C222 1.383 . S
C217 C213 1.495 . S
C217 H223 0.959 . S
C217 H224 0.961 . S
C217 H225 0.960 . S
C218 C216 1.381 . S
C218 C219 1.394 . S
C218 H226 0.930 . S
C219 C218 1.394 . S
C219 C220 1.383 . S
C219 H227 0.929 . S
C220 C219 1.383 . S
C220 C221 1.377 . S
C221 H205 0.930 . S
C221 C220 1.377 . S
C221 C222 1.379 . S
C222 H206 0.931 . S
C222 C216 1.383 . S
C222 C221 1.379 . S
H223 C217 0.959 . S
H224 C217 0.961 . S
H225 C217 0.960 . S
H226 C218 0.930 . S
H227 C219 0.929 . S
H228 C236 0.929 . S
H229 C238 0.930 . S
H230 C240 0.930 . S
H231 C243 0.929 . S
H232 C246 0.930 . S
H233 C248 0.960 . S
H234 C248 0.960 . S
H235 C248 0.960 . S
C236 H228 0.929 . S
C236 C237 1.377 . S
C236 C238 1.384 . S
C237 C236 1.377 . S
C237 C243 1.390 . S
C238 H229 0.930 . S
C238 C236 1.384 . S
C238 C239 1.372 . S
C239 C238 1.372 . S
C239 C240 1.400 . S
C239 C244 1.490 . S
C240 H230 0.930 . S
C240 C239 1.400 . S
C240 C243 1.386 . S
H241 C257 0.930 . S
H242 C258 0.931 . S
C243 H231 0.929 . S
C243 C237 1.390 . S
C243 C240 1.386 . S
C244 C239 1.490 . S
C244 C246 1.395 . S
C244 C247 1.403 . S
H245 C251 0.930 . S
C246 H232 0.930 . S
C246 C244 1.395 . S
C246 C249 1.403 . S
C247 C244 1.403 . S
C247 C248 1.524 . S
C247 C251 1.400 . S
C248 H233 0.960 . S
C248 H234 0.960 . S
C248 H235 0.960 . S
C248 C247 1.524 . S
C249 C246 1.403 . S
C249 C250 1.392 . S
C249 C253 1.495 . S
C250 C249 1.392 . S
C250 C251 1.385 . S
C250 C252 1.478 . S
C251 H245 0.930 . S
C251 C247 1.400 . S
C251 C250 1.385 . S
C252 C250 1.478 . S
C252 C254 1.381 . S
C252 C258 1.383 . S
C253 C249 1.495 . S
C253 H259 0.959 . S
C253 H260 0.961 . S
C253 H261 0.960 . S
C254 C252 1.381 . S
C254 C255 1.394 . S
C254 H262 0.930 . S
C255 C254 1.394 . S
C255 C256 1.383 . S
C255 H263 0.929 . S
C256 C255 1.383 . S
C256 C257 1.377 . S
C257 H241 0.930 . S
C257 C256 1.377 . S
C257 C258 1.379 . S
C258 H242 0.931 . S
C258 C252 1.383 . S
C258 C257 1.379 . S
H259 C253 0.959 . S
H260 C253 0.961 . S
H261 C253 0.960 . S
H262 C254 0.930 . S
H263 C255 0.929 . S
H264 C272 0.929 . S
H265 C274 0.930 . S
H266 C276 0.930 . S
H267 C279 0.929 . S
H268 C282 0.930 . S
H269 C284 0.960 . S
H270 C284 0.960 . S
H271 C284 0.960 . S
C272 H264 0.929 . S
C272 C273 1.377 . S
C272 C274 1.384 . S
C273 C272 1.377 . S
C273 C279 1.390 . S
C274 H265 0.930 . S
C274 C272 1.384 . S
C274 C275 1.372 . S
C275 C274 1.372 . S
C275 C276 1.400 . S
C275 C280 1.490 . S
C276 H266 0.930 . S
C276 C275 1.400 . S
C276 C279 1.386 . S
H277 C293 0.930 . S
H278 C294 0.931 . S
C279 H267 0.929 . S
C279 C273 1.390 . S
C279 C276 1.386 . S
C280 C275 1.490 . S
C280 C282 1.395 . S
C280 C283 1.403 . S
H281 C287 0.930 . S
C282 H268 0.930 . S
C282 C280 1.395 . S
C282 C285 1.403 . S
C283 C280 1.403 . S
C283 C284 1.524 . S
C283 C287 1.400 . S
C284 H269 0.960 . S
C284 H270 0.960 . S
C284 H271 0.960 . S
C284 C283 1.524 . S
C285 C282 1.403 . S
C285 C286 1.392 . S
C285 C289 1.495 . S
C286 C285 1.392 . S
C286 C287 1.385 . S
C286 C288 1.478 . S
C287 H281 0.930 . S
C287 C283 1.400 . S
C287 C286 1.385 . S
C288 C286 1.478 . S
C288 C290 1.381 . S
C288 C294 1.383 . S
C289 C285 1.495 . S
C289 H295 0.959 . S
C289 H296 0.961 . S
C289 H297 0.960 . S
C290 C288 1.381 . S
C290 C291 1.394 . S
C290 H298 0.930 . S
C291 C290 1.394 . S
C291 C292 1.383 . S
C291 H299 0.929 . S
C292 C291 1.383 . S
C292 C293 1.377 . S
C293 H277 0.930 . S
C293 C292 1.377 . S
C293 C294 1.379 . S
C294 H278 0.931 . S
C294 C288 1.383 . S
C294 C293 1.379 . S
H295 C289 0.959 . S
H296 C289 0.961 . S
H297 C289 0.960 . S
H298 C290 0.930 . S
H299 C291 0.929 . S
H300 C308 0.929 . S
H301 C310 0.930 . S
H302 C312 0.930 . S
H303 C315 0.929 . S
H304 C318 0.930 . S
H305 C320 0.960 . S
H306 C320 0.960 . S
H307 C320 0.960 . S
C308 H300 0.929 . S
C308 C309 1.377 . S
C308 C310 1.384 . S
C309 C308 1.377 . S
C309 C315 1.390 . S
C310 H301 0.930 . S
C310 C308 1.384 . S
C310 C311 1.372 . S
C311 C310 1.372 . S
C311 C312 1.400 . S
C311 C316 1.490 . S
C312 H302 0.930 . S
C312 C311 1.400 . S
C312 C315 1.386 . S
H313 C329 0.930 . S
H314 C330 0.931 . S
C315 H303 0.929 . S
C315 C309 1.390 . S
C315 C312 1.386 . S
C316 C311 1.490 . S
C316 C318 1.395 . S
C316 C319 1.403 . S
H317 C323 0.930 . S
C318 H304 0.930 . S
C318 C316 1.395 . S
C318 C321 1.403 . S
C319 C316 1.403 . S
C319 C320 1.524 . S
C319 C323 1.400 . S
C320 H305 0.960 . S
C320 H306 0.960 . S
C320 H307 0.960 . S
C320 C319 1.524 . S
C321 C318 1.403 . S
C321 C322 1.392 . S
C321 C325 1.495 . S
C322 C321 1.392 . S
C322 C323 1.385 . S
C322 C324 1.478 . S
C323 H317 0.930 . S
C323 C319 1.400 . S
C323 C322 1.385 . S
C324 C322 1.478 . S
C324 C326 1.381 . S
C324 C330 1.383 . S
C325 C321 1.495 . S
C325 H331 0.959 . S
C325 H332 0.961 . S
C325 H333 0.960 . S
C326 C324 1.381 . S
C326 C327 1.394 . S
C326 H334 0.930 . S
C327 C326 1.394 . S
C327 C328 1.383 . S
C327 H335 0.929 . S
C328 C327 1.383 . S
C328 C329 1.377 . S
C329 H313 0.930 . S
C329 C328 1.377 . S
C329 C330 1.379 . S
C330 H314 0.931 . S
C330 C324 1.383 . S
C330 C329 1.379 . S
H331 C325 0.959 . S
H332 C325 0.961 . S
H333 C325 0.960 . S
H334 C326 0.930 . S
H335 C327 0.929 . S
H336 C344 0.929 . S
H337 C346 0.930 . S
H338 C348 0.930 . S
H339 C351 0.929 . S
H340 C354 0.930 . S
H341 C356 0.960 . S
H342 C356 0.960 . S
H343 C356 0.960 . S
C344 H336 0.929 . S
C344 C345 1.377 . S
C344 C346 1.384 . S
C345 C344 1.377 . S
C345 C351 1.390 . S
C346 H337 0.930 . S
C346 C344 1.384 . S
C346 C347 1.372 . S
C347 C346 1.372 . S
C347 C348 1.400 . S
C347 C352 1.490 . S
C348 H338 0.930 . S
C348 C347 1.400 . S
C348 C351 1.386 . S
H349 C365 0.930 . S
H350 C366 0.931 . S
C351 H339 0.929 . S
C351 C345 1.390 . S
C351 C348 1.386 . S
C352 C347 1.490 . S
C352 C354 1.395 . S
C352 C355 1.403 . S
H353 C359 0.930 . S
C354 H340 0.930 . S
C354 C352 1.395 . S
C354 C357 1.403 . S
C355 C352 1.403 . S
C355 C356 1.524 . S
C355 C359 1.400 . S
C356 H341 0.960 . S
C356 H342 0.960 . S
C356 H343 0.960 . S
C356 C355 1.524 . S
C357 C354 1.403 . S
C357 C358 1.392 . S
C357 C361 1.495 . S
C358 C357 1.392 . S
C358 C359 1.385 . S
C358 C360 1.478 . S
C359 H353 0.930 . S
C359 C355 1.400 . S
C359 C358 1.385 . S
C360 C358 1.478 . S
C360 C362 1.381 . S
C360 C366 1.383 . S
C361 C357 1.495 . S
C361 H367 0.959 . S
C361 H368 0.961 . S
C361 H369 0.960 . S
C362 C360 1.381 . S
C362 C363 1.394 . S
C362 H370 0.930 . S
C363 C362 1.394 . S
C363 C364 1.383 . S
C363 H371 0.929 . S
C364 C363 1.383 . S
C364 C365 1.377 . S
C365 H349 0.930 . S
C365 C364 1.377 . S
C365 C366 1.379 . S
C366 H350 0.931 . S
C366 C360 1.383 . S
C366 C365 1.379 . S
H367 C361 0.959 . S
H368 C361 0.961 . S
H369 C361 0.960 . S
H370 C362 0.930 . S
H371 C363 0.929 . S
H372 C380 0.929 . S
H373 C382 0.930 . S
H374 C384 0.930 . S
H375 C387 0.929 . S
H376 C390 0.930 . S
H377 C392 0.960 . S
H378 C392 0.960 . S
H379 C392 0.960 . S
C380 H372 0.929 . S
C380 C381 1.377 . S
C380 C382 1.384 . S
C381 C380 1.377 . S
C381 C387 1.390 . S
C382 H373 0.930 . S
C382 C380 1.384 . S
C382 C383 1.372 . S
C383 C382 1.372 . S
C383 C384 1.400 . S
C383 C388 1.490 . S
C384 H374 0.930 . S
C384 C383 1.400 . S
C384 C387 1.386 . S
H385 C401 0.930 . S
H386 C402 0.931 . S
C387 H375 0.929 . S
C387 C381 1.390 . S
C387 C384 1.386 . S
C388 C383 1.490 . S
C388 C390 1.395 . S
C388 C391 1.403 . S
H389 C395 0.930 . S
C390 H376 0.930 . S
C390 C388 1.395 . S
C390 C393 1.403 . S
C391 C388 1.403 . S
C391 C392 1.524 . S
C391 C395 1.400 . S
C392 H377 0.960 . S
C392 H378 0.960 . S
C392 H379 0.960 . S
C392 C391 1.524 . S
C393 C390 1.403 . S
C393 C394 1.392 . S
C393 C397 1.495 . S
C394 C393 1.392 . S
C394 C395 1.385 . S
C394 C396 1.478 . S
C395 H389 0.930 . S
C395 C391 1.400 . S
C395 C394 1.385 . S
C396 C394 1.478 . S
C396 C398 1.381 . S
C396 C402 1.383 . S
C397 C393 1.495 . S
C397 H403 0.959 . S
C397 H404 0.961 . S
C397 H405 0.960 . S
C398 C396 1.381 . S
C398 C399 1.394 . S
C398 H406 0.930 . S
C399 C398 1.394 . S
C399 C400 1.383 . S
C399 H407 0.929 . S
C400 C399 1.383 . S
C400 C401 1.377 . S
C401 H385 0.930 . S
C401 C400 1.377 . S
C401 C402 1.379 . S
C402 H386 0.931 . S
C402 C396 1.383 . S
C402 C401 1.379 . S
H403 C397 0.959 . S
H404 C397 0.961 . S
H405 C397 0.960 . S
H406 C398 0.930 . S
H407 C399 0.929 . S
H408 C416 0.929 . S
H409 C418 0.930 . S
H410 C420 0.930 . S
H411 C423 0.929 . S
H412 C426 0.930 . S
H413 C428 0.960 . S
H414 C428 0.960 . S
H415 C428 0.960 . S
C416 H408 0.929 . S
C416 C417 1.377 . S
C416 C418 1.384 . S
C417 C416 1.377 . S
C417 C423 1.390 . S
C418 H409 0.930 . S
C418 C416 1.384 . S
C418 C419 1.372 . S
C419 C418 1.372 . S
C419 C420 1.400 . S
C419 C424 1.490 . S
C420 H410 0.930 . S
C420 C419 1.400 . S
C420 C423 1.386 . S
H421 C437 0.930 . S
H422 C438 0.931 . S
C423 H411 0.929 . S
C423 C417 1.390 . S
C423 C420 1.386 . S
C424 C419 1.490 . S
C424 C426 1.395 . S
C424 C427 1.403 . S
H425 C431 0.930 . S
C426 H412 0.930 . S
C426 C424 1.395 . S
C426 C429 1.403 . S
C427 C424 1.403 . S
C427 C428 1.524 . S
C427 C431 1.400 . S
C428 H413 0.960 . S
C428 H414 0.960 . S
C428 H415 0.960 . S
C428 C427 1.524 . S
C429 C426 1.403 . S
C429 C430 1.392 . S
C429 C433 1.495 . S
C430 C429 1.392 . S
C430 C431 1.385 . S
C430 C432 1.478 . S
C431 H425 0.930 . S
C431 C427 1.400 . S
C431 C430 1.385 . S
C432 C430 1.478 . S
C432 C434 1.381 . S
C432 C438 1.383 . S
C433 C429 1.495 . S
C433 H439 0.959 . S
C433 H440 0.961 . S
C433 H441 0.960 . S
C434 C432 1.381 . S
C434 C435 1.394 . S
C434 H442 0.930 . S
C435 C434 1.394 . S
C435 C436 1.383 . S
C435 H443 0.929 . S
C436 C435 1.383 . S
C436 C437 1.377 . S
C437 H421 0.930 . S
C437 C436 1.377 . S
C437 C438 1.379 . S
C438 H422 0.931 . S
C438 C432 1.383 . S
C438 C437 1.379 . S
H439 C433 0.959 . S
H440 C433 0.961 . S
H441 C433 0.960 . S
H442 C434 0.930 . S
H443 C435 0.929 . S
H444 C452 0.922 1_554 S
H445 C454 0.930 . S
H446 C456 0.930 . S
H447 C459 0.929 . S
H448 C462 0.930 . S
H449 C464 0.960 . S
H450 C464 0.960 . S
H451 C464 0.960 . S
C452 H444 0.922 1_556 S
C452 C453 1.365 1_556 S
C452 C454 1.404 . S
C453 C452 1.365 1_554 S
C453 C459 1.390 . S
C454 H445 0.930 . S
C454 C452 1.404 . S
C454 C455 1.372 . S
C455 C454 1.372 . S
C455 C456 1.400 . S
C455 C460 1.490 . S
C456 H446 0.930 . S
C456 C455 1.400 . S
C456 C459 1.386 1_556 S
H457 C473 0.930 . S
H458 C474 0.931 . S
C459 H447 0.929 . S
C459 C453 1.390 . S
C459 C456 1.386 1_554 S
C460 C455 1.490 . S
C460 C462 1.395 . S
C460 C463 1.403 . S
H461 C467 0.930 . S
C462 H448 0.930 . S
C462 C460 1.395 . S
C462 C465 1.403 . S
C463 C460 1.403 . S
C463 C464 1.524 . S
C463 C467 1.400 . S
C464 H449 0.960 . S
C464 H450 0.960 . S
C464 H451 0.960 . S
C464 C463 1.524 . S
C465 C462 1.403 . S
C465 C466 1.392 . S
C465 C469 1.495 . S
C466 C465 1.392 . S
C466 C467 1.385 . S
C466 C468 1.478 . S
C467 H461 0.930 . S
C467 C463 1.400 . S
C467 C466 1.385 . S
C468 C466 1.478 . S
C468 C470 1.381 . S
C468 C474 1.383 . S
C469 C465 1.495 . S
C469 H475 0.959 . S
C469 H476 0.961 . S
C469 H477 0.960 . S
C470 C468 1.381 . S
C470 C471 1.394 . S
C470 H478 0.930 . S
C471 C470 1.394 . S
C471 C472 1.383 . S
C471 H479 0.929 . S
C472 C471 1.383 . S
C472 C473 1.377 . S
C473 H457 0.930 . S
C473 C472 1.377 . S
C473 C474 1.379 . S
C474 H458 0.931 . S
C474 C468 1.383 . S
C474 C473 1.379 . S
H475 C469 0.959 . S
H476 C469 0.961 . S
H477 C469 0.960 . S
H478 C470 0.930 . S
H479 C471 0.929 . S
H480 C488 0.929 . S
H481 C490 0.930 . S
H482 C492 0.930 . S
H483 C495 0.929 . S
H484 C498 0.930 . S
H485 C500 0.960 . S
H486 C500 0.960 . S
H487 C500 0.960 . S
C488 H480 0.929 . S
C488 C489 1.377 . S
C488 C490 1.384 . S
C489 C488 1.377 . S
C489 C495 1.390 . S
C490 H481 0.930 . S
C490 C488 1.384 . S
C490 C491 1.372 . S
C491 C490 1.372 . S
C491 C492 1.400 . S
C491 C496 1.490 . S
C492 H482 0.930 . S
C492 C491 1.400 . S
C492 C495 1.386 . S
H493 C509 0.932 . S
H494 C510 0.931 . S
C495 H483 0.929 . S
C495 C489 1.390 . S
C495 C492 1.386 . S
C496 C491 1.490 . S
C496 C498 1.395 . S
C496 C499 1.403 . S
H497 C503 0.930 . S
C498 H484 0.930 . S
C498 C496 1.395 . S
C498 C501 1.403 . S
C499 C496 1.403 . S
C499 C500 1.524 . S
C499 C503 1.400 . S
C500 H485 0.960 . S
C500 H486 0.960 . S
C500 H487 0.960 . S
C500 C499 1.524 . S
C501 C498 1.403 . S
C501 C502 1.392 . S
C501 C505 1.495 . S
C502 C501 1.392 . S
C502 C503 1.385 . S
C502 C504 1.478 . S
C503 H497 0.930 . S
C503 C499 1.400 . S
C503 C502 1.385 . S
C504 C502 1.478 . S
C504 C506 1.381 . S
C504 C510 1.383 . S
C505 C501 1.495 . S
C505 H511 0.959 . S
C505 H512 0.961 . S
C505 H513 0.960 . S
C506 C504 1.381 . S
C506 C507 1.394 1_554 S
C506 H514 0.930 . S
C507 C506 1.394 1_556 S
C507 C508 1.383 . S
C507 H515 0.929 . S
C508 C507 1.383 . S
C508 C509 1.377 1_556 S
C509 H493 0.932 . S
C509 C508 1.377 1_554 S
C509 C510 1.379 . S
C510 H494 0.931 . S
C510 C504 1.383 . S
C510 C509 1.379 . S
H511 C505 0.959 . S
H512 C505 0.961 . S
H513 C505 0.960 . S
H514 C506 0.930 . S
H515 C507 0.929 . S
H516 C524 0.929 . S
H517 C526 0.930 . S
H518 C528 0.930 . S
H519 C531 0.929 . S
H520 C534 0.930 . S
H521 C536 0.960 . S
H522 C536 0.960 . S
H523 C536 0.960 . S
C524 H516 0.929 . S
C524 C525 1.377 . S
C524 C526 1.384 . S
C525 C524 1.377 . S
C525 C531 1.390 . S
C526 H517 0.930 . S
C526 C524 1.384 . S
C526 C527 1.372 . S
C527 C526 1.372 . S
C527 C528 1.400 . S
C527 C532 1.490 . S
C528 H518 0.930 . S
C528 C527 1.400 . S
C528 C531 1.386 . S
H529 C545 0.930 . S
H530 C546 0.931 . S
C531 H519 0.929 . S
C531 C525 1.390 . S
C531 C528 1.386 . S
C532 C527 1.490 . S
C532 C534 1.395 . S
C532 C535 1.403 . S
H533 C539 0.930 . S
C534 H520 0.930 . S
C534 C532 1.395 . S
C534 C537 1.403 . S
C535 C532 1.403 . S
C535 C536 1.524 . S
C535 C539 1.400 . S
C536 H521 0.960 . S
C536 H522 0.960 . S
C536 H523 0.960 . S
C536 C535 1.524 . S
C537 C534 1.403 . S
C537 C538 1.392 . S
C537 C541 1.495 . S
C538 C537 1.392 . S
C538 C539 1.385 . S
C538 C540 1.478 . S
C539 H533 0.930 . S
C539 C535 1.400 . S
C539 C538 1.385 . S
C540 C538 1.478 . S
C540 C542 1.381 . S
C540 C546 1.383 . S
C541 C537 1.495 . S
C541 H547 0.959 . S
C541 H548 0.961 . S
C541 H549 0.960 . S
C542 C540 1.381 . S
C542 C543 1.394 . S
C542 H550 0.930 . S
C543 C542 1.394 . S
C543 C544 1.383 . S
C543 H551 0.929 . S
C544 C543 1.383 . S
C544 C545 1.377 . S
C545 H529 0.930 . S
C545 C544 1.377 . S
C545 C546 1.379 . S
C546 H530 0.931 . S
C546 C540 1.383 . S
C546 C545 1.379 . S
H547 C541 0.959 . S
H548 C541 0.961 . S
H549 C541 0.960 . S
H550 C542 0.930 . S
H551 C543 0.929 . S
H552 C560 0.929 . S
H553 C562 0.930 . S
H554 C564 0.930 . S
H555 C567 0.929 . S
H556 C570 0.930 . S
H557 C572 0.960 . S
H558 C572 0.960 . S
H559 C572 0.960 . S
C560 H552 0.929 . S
C560 C561 1.377 . S
C560 C562 1.384 . S
C561 C560 1.377 . S
C561 C567 1.390 . S
C562 H553 0.930 . S
C562 C560 1.384 . S
C562 C563 1.372 . S
C563 C562 1.372 . S
C563 C564 1.400 . S
C563 C568 1.490 . S
C564 H554 0.930 . S
C564 C563 1.400 . S
C564 C567 1.386 . S
H565 C581 0.930 . S
H566 C582 0.931 . S
C567 H555 0.929 . S
C567 C561 1.390 . S
C567 C564 1.386 . S
C568 C563 1.490 . S
C568 C570 1.395 . S
C568 C571 1.403 . S
H569 C575 0.930 . S
C570 H556 0.930 . S
C570 C568 1.395 . S
C570 C573 1.403 . S
C571 C568 1.403 . S
C571 C572 1.524 . S
C571 C575 1.400 . S
C572 H557 0.960 . S
C572 H558 0.960 . S
C572 H559 0.960 . S
C572 C571 1.524 . S
C573 C570 1.403 . S
C573 C574 1.392 . S
C573 C577 1.495 . S
C574 C573 1.392 . S
C574 C575 1.385 . S
C574 C576 1.478 . S
C575 H569 0.930 . S
C575 C571 1.400 . S
C575 C574 1.385 . S
C576 C574 1.478 . S
C576 C578 1.381 . S
C576 C582 1.383 . S
C577 C573 1.495 . S
C577 H583 0.959 . S
C577 H584 0.961 . S
C577 H585 0.960 . S
C578 C576 1.381 . S
C578 C579 1.394 . S
C578 H586 0.930 . S
C579 C578 1.394 . S
C579 C580 1.383 . S
C579 H587 0.929 . S
C580 C579 1.383 . S
C580 C581 1.377 . S
C581 H565 0.930 . S
C581 C580 1.377 . S
C581 C582 1.379 . S
C582 H566 0.931 . S
C582 C576 1.383 . S
C582 C581 1.379 . S
H583 C577 0.959 . S
H584 C577 0.961 . S
H585 C577 0.960 . S
H586 C578 0.930 . S
H587 C579 0.929 . S
H588 C596 0.929 . S
H589 C598 0.930 . S
H590 C600 0.930 . S
H591 C603 0.929 . S
H592 C606 0.930 . S
H593 C608 0.960 1_455 S
H594 C608 0.960 . S
H595 C608 0.960 . S
C596 H588 0.929 . S
C596 C597 1.377 . S
C596 C598 1.384 . S
C597 C596 1.377 . S
C597 C603 1.390 . S
C598 H589 0.930 . S
C598 C596 1.384 . S
C598 C599 1.372 . S
C599 C598 1.372 . S
C599 C600 1.400 . S
C599 C604 1.490 . S
C600 H590 0.930 . S
C600 C599 1.400 . S
C600 C603 1.386 . S
H601 C617 0.930 . S
H602 C618 0.931 . S
C603 H591 0.929 . S
C603 C597 1.390 . S
C603 C600 1.386 . S
C604 C599 1.490 . S
C604 C606 1.395 . S
C604 C607 1.403 . S
H605 C611 0.930 . S
C606 H592 0.930 . S
C606 C604 1.395 . S
C606 C609 1.403 1_655 S
C607 C604 1.403 . S
C607 C608 1.524 . S
C607 C611 1.400 1_655 S
C608 H593 0.960 1_655 S
C608 H594 0.960 . S
C608 H595 0.960 . S
C608 C607 1.524 . S
C609 C606 1.403 1_455 S
C609 C610 1.392 . S
C609 C613 1.495 . S
C610 C609 1.392 . S
C610 C611 1.385 . S
C610 C612 1.478 . S
C611 H605 0.930 . S
C611 C607 1.400 1_455 S
C611 C610 1.385 . S
C612 C610 1.478 . S
C612 C614 1.381 . S
C612 C618 1.383 . S
C613 C609 1.495 . S
C613 H619 0.959 1_455 S
C613 H620 0.961 . S
C613 H621 0.960 . S
C614 C612 1.381 . S
C614 C615 1.394 . S
C614 H622 0.930 . S
C615 C614 1.394 . S
C615 C616 1.383 . S
C615 H623 0.929 . S
C616 C615 1.383 . S
C616 C617 1.377 . S
C617 H601 0.930 . S
C617 C616 1.377 . S
C617 C618 1.379 . S
C618 H602 0.931 . S
C618 C612 1.383 . S
C618 C617 1.379 . S
H619 C613 0.959 1_655 S
H620 C613 0.961 . S
H621 C613 0.960 . S
H622 C614 0.930 . S
H623 C615 0.929 . S
H624 C632 0.929 . S
H625 C634 0.930 . S
H626 C636 0.930 . S
H627 C639 0.929 . S
H628 C642 0.930 . S
H629 C644 0.960 . S
H630 C644 0.960 1_565 S
H631 C644 0.960 1_565 S
C632 H624 0.929 . S
C632 C633 1.377 . S
C632 C634 1.384 . S
C633 C632 1.377 . S
C633 C639 1.390 . S
C634 H625 0.930 . S
C634 C632 1.384 . S
C634 C635 1.372 . S
C635 C634 1.372 . S
C635 C636 1.400 . S
C635 C640 1.490 . S
C636 H626 0.930 . S
C636 C635 1.400 . S
C636 C639 1.386 . S
H637 C653 0.930 . S
H638 C654 0.931 . S
C639 H627 0.929 . S
C639 C633 1.390 . S
C639 C636 1.386 . S
C640 C635 1.490 . S
C640 C642 1.395 . S
C640 C643 1.419 . S
H641 C647 0.930 . S
C642 H628 0.930 . S
C642 C640 1.395 . S
C642 C645 1.403 . S
C643 C640 1.419 . S
C643 C644 1.524 1_565 S
C643 C647 1.383 1_565 S
C644 H629 0.960 . S
C644 H630 0.960 1_545 S
C644 H631 0.960 1_545 S
C644 C643 1.524 1_545 S
C645 C642 1.403 . S
C645 C646 1.392 1_565 S
C645 C649 1.495 . S
C646 C645 1.392 1_545 S
C646 C647 1.385 . S
C646 C648 1.478 . S
C647 H641 0.930 . S
C647 C643 1.383 1_545 S
C647 C646 1.385 . S
C648 C646 1.478 . S
C648 C650 1.381 . S
C648 C654 1.383 . S
C649 C645 1.495 . S
C649 H655 0.959 . S
C649 H656 0.961 1_565 S
C649 H657 0.960 1_565 S
C650 C648 1.381 . S
C650 C651 1.394 . S
C650 H658 0.930 . S
C651 C650 1.394 . S
C651 C652 1.383 . S
C651 H659 0.929 . S
C652 C651 1.383 . S
C652 C653 1.377 . S
C653 H637 0.930 . S
C653 C652 1.377 . S
C653 C654 1.379 . S
C654 H638 0.931 . S
C654 C648 1.383 . S
C654 C653 1.379 . S
H655 C649 0.959 . S
H656 C649 0.961 1_545 S
H657 C649 0.960 1_545 S
H658 C650 0.930 . S
H659 C651 0.929 . S
H660 C668 0.929 . S
H661 C670 0.930 . S
H662 C672 0.930 . S
H663 C675 0.929 . S
H664 C678 0.930 . S
H665 C680 0.960 . S
H666 C680 0.960 . S
H667 C680 0.960 . S
C668 H660 0.929 . S
C668 C669 1.377 . S
C668 C670 1.384 . S
C669 C668 1.377 . S
C669 C675 1.390 . S
C670 H661 0.930 . S
C670 C668 1.384 . S
C670 C671 1.372 . S
C671 C670 1.372 . S
C671 C672 1.400 . S
C671 C676 1.490 . S
C672 H662 0.930 . S
C672 C671 1.400 . S
C672 C675 1.386 . S
H673 C689 0.930 . S
H674 C690 0.931 . S
C675 H663 0.929 . S
C675 C669 1.390 . S
C675 C672 1.386 . S
C676 C671 1.490 . S
C676 C678 1.395 . S
C676 C679 1.403 . S
H677 C683 0.930 . S
C678 H664 0.930 . S
C678 C676 1.395 . S
C678 C681 1.403 . S
C679 C676 1.403 . S
C679 C680 1.524 . S
C679 C683 1.400 . S
C680 H665 0.960 . S
C680 H666 0.960 . S
C680 H667 0.960 . S
C680 C679 1.524 . S
C681 C678 1.403 . S
C681 C682 1.392 . S
C681 C685 1.495 . S
C682 C681 1.392 . S
C682 C683 1.385 . S
C682 C684 1.478 . S
C683 H677 0.930 . S
C683 C679 1.400 . S
C683 C682 1.385 . S
C684 C682 1.478 . S
C684 C686 1.381 . S
C684 C690 1.383 . S
C685 C681 1.495 . S
C685 H691 0.959 . S
C685 H692 0.961 . S
C685 H693 0.960 . S
C686 C684 1.381 . S
C686 C687 1.394 . S
C686 H694 0.930 . S
C687 C686 1.394 . S
C687 C688 1.383 . S
C687 H695 0.929 . S
C688 C687 1.383 . S
C688 C689 1.377 . S
C689 H673 0.930 . S
C689 C688 1.377 . S
C689 C690 1.379 . S
C690 H674 0.931 . S
C690 C684 1.383 . S
C690 C689 1.379 . S
H691 C685 0.959 . S
H692 C685 0.961 . S
H693 C685 0.960 . S
H694 C686 0.930 . S
H695 C687 0.929 . S
H696 C704 0.929 . S
H697 C706 0.930 . S
H698 C708 0.930 . S
H699 C711 0.929 . S
H700 C714 0.930 . S
H701 C716 0.960 1_655 S
H702 C716 0.960 . S
H703 C716 0.960 . S
C704 H696 0.929 . S
C704 C705 1.377 . S
C704 C706 1.384 . S
C705 C704 1.377 . S
C705 C711 1.390 . S
C706 H697 0.930 . S
C706 C704 1.384 . S
C706 C707 1.372 . S
C707 C706 1.372 . S
C707 C708 1.400 . S
C707 C712 1.490 . S
C708 H698 0.930 . S
C708 C707 1.400 . S
C708 C711 1.386 . S
H709 C725 0.930 . S
H710 C726 0.931 . S
C711 H699 0.929 . S
C711 C705 1.390 . S
C711 C708 1.386 . S
C712 C707 1.490 . S
C712 C714 1.395 . S
C712 C715 1.403 . S
H713 C719 0.930 . S
C714 H700 0.930 . S
C714 C712 1.395 . S
C714 C717 1.403 1_455 S
C715 C712 1.403 . S
C715 C716 1.524 . S
C715 C719 1.400 1_455 S
C716 H701 0.960 1_455 S
C716 H702 0.960 . S
C716 H703 0.960 . S
C716 C715 1.524 . S
C717 C714 1.403 1_655 S
C717 C718 1.392 . S
C717 C721 1.495 . S
C718 C717 1.392 . S
C718 C719 1.385 . S
C718 C720 1.478 . S
C719 H713 0.930 . S
C719 C715 1.400 1_655 S
C719 C718 1.385 . S
C720 C718 1.478 . S
C720 C722 1.381 . S
C720 C726 1.383 . S
C721 C717 1.495 . S
C721 H727 0.959 1_655 S
C721 H728 0.961 . S
C721 H729 0.960 . S
C722 C720 1.381 . S
C722 C723 1.394 . S
C722 H730 0.930 . S
C723 C722 1.394 . S
C723 C724 1.383 . S
C723 H731 0.929 . S
C724 C723 1.383 . S
C724 C725 1.377 . S
C725 H709 0.930 . S
C725 C724 1.377 . S
C725 C726 1.379 . S
C726 H710 0.931 . S
C726 C720 1.383 . S
C726 C725 1.379 . S
H727 C721 0.959 1_455 S
H728 C721 0.961 . S
H729 C721 0.960 . S
H730 C722 0.930 . S
H731 C723 0.929 . S
H732 C740 0.929 . S
H733 C742 0.935 . S
H734 C744 0.930 . S
H735 C747 0.929 . S
H736 C750 0.930 . S
H737 C752 0.914 1_565 S
H738 C752 0.967 . S
H739 C752 0.990 . S
C740 H732 0.929 . S
C740 C741 1.377 . S
C740 C742 1.384 . S
C741 C740 1.377 . S
C741 C747 1.390 . S
C742 H733 0.935 . S
C742 C740 1.384 . S
C742 C743 1.372 . S
C743 C742 1.372 . S
C743 C744 1.400 . S
C743 C748 1.490 . S
C744 H734 0.930 . S
C744 C743 1.400 . S
C744 C747 1.386 . S
H745 C761 0.930 . S
H746 C762 0.931 . S
C747 H735 0.929 . S
C747 C741 1.390 . S
C747 C744 1.386 . S
C748 C743 1.490 . S
C748 C750 1.395 1_556 S
C748 C751 1.403 . S
H749 C755 0.930 . S
C750 H736 0.930 . S
C750 C748 1.395 1_554 S
C750 C753 1.437 . S
C751 C748 1.403 . S
C751 C752 1.536 . S
C751 C755 1.400 1_545 S
C752 H737 0.914 1_545 S
C752 H738 0.967 . S
C752 H739 0.990 . S
C752 C751 1.536 . S
C753 C750 1.437 . S
C753 C754 1.350 1_545 S
C753 C757 1.506 . S
C754 C753 1.350 1_565 S
C754 C755 1.385 1_554 S
C754 C756 1.478 . S
C755 H749 0.930 . S
C755 C751 1.400 1_565 S
C755 C754 1.385 1_556 S
C756 C754 1.478 . S
C756 C758 1.381 . S
C756 C762 1.383 . S
C757 C753 1.506 . S
C757 H763 0.959 . S
C757 H764 0.961 1_545 S
C757 H765 0.960 1_545 S
C758 C756 1.381 . S
C758 C759 1.394 . S
C758 H766 0.930 . S
C759 C758 1.394 . S
C759 C760 1.383 . S
C759 H767 0.929 . S
C760 C759 1.383 . S
C760 C761 1.377 . S
C761 H745 0.930 . S
C761 C760 1.377 . S
C761 C762 1.379 . S
C762 H746 0.931 . S
C762 C756 1.383 . S
C762 C761 1.379 . S
H763 C757 0.959 . S
H764 C757 0.961 1_565 S
H765 C757 0.960 1_565 S
H766 C758 0.930 . S
H767 C759 0.929 . S
H768 C776 0.929 . S
H769 C778 0.930 . S
H770 C780 0.930 . S
H771 C783 0.929 . S
H772 C786 0.930 . S
H773 C788 0.960 . S
H774 C788 0.960 . S
H775 C788 0.960 . S
C776 H768 0.929 . S
C776 C777 1.377 . S
C776 C778 1.384 . S
C777 C776 1.377 . S
C777 C783 1.390 . S
C778 H769 0.930 . S
C778 C776 1.384 . S
C778 C779 1.372 . S
C779 C778 1.372 . S
C779 C780 1.400 . S
C779 C784 1.490 . S
C780 H770 0.930 . S
C780 C779 1.400 . S
C780 C783 1.386 . S
H781 C797 0.930 . S
H782 C798 0.931 . S
C783 H771 0.929 . S
C783 C777 1.390 . S
C783 C780 1.386 . S
C784 C779 1.490 . S
C784 C786 1.395 . S
C784 C787 1.403 . S
H785 C791 0.930 . S
C786 H772 0.930 . S
C786 C784 1.395 . S
C786 C789 1.403 . S
C787 C784 1.403 . S
C787 C788 1.524 . S
C787 C791 1.400 . S
C788 H773 0.960 . S
C788 H774 0.960 . S
C788 H775 0.960 . S
C788 C787 1.524 . S
C789 C786 1.403 . S
C789 C790 1.392 . S
C789 C793 1.495 . S
C790 C789 1.392 . S
C790 C791 1.385 . S
C790 C792 1.478 . S
C791 H785 0.930 . S
C791 C787 1.400 . S
C791 C790 1.385 . S
C792 C790 1.478 . S
C792 C794 1.381 . S
C792 C798 1.383 . S
C793 C789 1.495 . S
C793 H799 0.959 . S
C793 H800 0.961 . S
C793 H801 0.960 . S
C794 C792 1.381 . S
C794 C795 1.394 . S
C794 H802 0.930 . S
C795 C794 1.394 . S
C795 C796 1.383 . S
C795 H803 0.929 . S
C796 C795 1.383 . S
C796 C797 1.377 . S
C797 H781 0.930 . S
C797 C796 1.377 . S
C797 C798 1.379 . S
C798 H782 0.931 . S
C798 C792 1.383 . S
C798 C797 1.379 . S
H799 C793 0.959 . S
H800 C793 0.961 . S
H801 C793 0.960 . S
H802 C794 0.930 . S
H803 C795 0.929 . S
H804 C812 0.929 . S
H805 C814 0.930 . S
H806 C816 0.930 . S
H807 C819 0.929 . S
H808 C822 0.930 . S
H809 C824 0.960 . S
H810 C824 0.960 . S
H811 C824 0.960 . S
C812 H804 0.929 . S
C812 C813 1.377 . S
C812 C814 1.384 . S
C813 C812 1.377 . S
C813 C819 1.390 . S
C814 H805 0.930 . S
C814 C812 1.384 . S
C814 C815 1.372 . S
C815 C814 1.372 . S
C815 C816 1.400 . S
C815 C820 1.490 . S
C816 H806 0.930 . S
C816 C815 1.400 . S
C816 C819 1.386 . S
H817 C833 0.930 . S
H818 C834 0.931 . S
C819 H807 0.929 . S
C819 C813 1.390 . S
C819 C816 1.386 . S
C820 C815 1.490 . S
C820 C822 1.395 . S
C820 C823 1.403 . S
H821 C827 0.930 . S
C822 H808 0.930 . S
C822 C820 1.395 . S
C822 C825 1.403 . S
C823 C820 1.403 . S
C823 C824 1.524 . S
C823 C827 1.400 . S
C824 H809 0.960 . S
C824 H810 0.960 . S
C824 H811 0.960 . S
C824 C823 1.524 . S
C825 C822 1.403 . S
C825 C826 1.392 . S
C825 C829 1.495 . S
C826 C825 1.392 . S
C826 C827 1.385 . S
C826 C828 1.478 . S
C827 H821 0.930 . S
C827 C823 1.400 . S
C827 C826 1.385 . S
C828 C826 1.478 . S
C828 C830 1.381 . S
C828 C834 1.383 . S
C829 C825 1.495 . S
C829 H835 0.959 . S
C829 H836 0.961 . S
C829 H837 0.960 . S
C830 C828 1.381 . S
C830 C831 1.394 . S
C830 H838 0.930 . S
C831 C830 1.394 . S
C831 C832 1.383 . S
C831 H839 0.929 . S
C832 C831 1.383 . S
C832 C833 1.377 . S
C833 H817 0.930 . S
C833 C832 1.377 . S
C833 C834 1.379 . S
C834 H818 0.931 . S
C834 C828 1.383 . S
C834 C833 1.379 . S
H835 C829 0.959 . S
H836 C829 0.961 . S
H837 C829 0.960 . S
H838 C830 0.930 . S
H839 C831 0.929 . S
H840 C848 0.929 . S
H841 C850 0.930 . S
H842 C852 0.930 . S
H843 C855 0.929 . S
H844 C858 0.930 . S
H845 C860 0.960 . S
H846 C860 0.960 . S
H847 C860 0.960 . S
C848 H840 0.929 . S
C848 C849 1.377 . S
C848 C850 1.384 . S
C849 C848 1.377 . S
C849 C855 1.390 . S
C850 H841 0.930 . S
C850 C848 1.384 . S
C850 C851 1.372 . S
C851 C850 1.372 . S
C851 C852 1.400 . S
C851 C856 1.490 . S
C852 H842 0.930 . S
C852 C851 1.400 . S
C852 C855 1.386 . S
H853 C869 0.930 . S
H854 C870 0.931 . S
C855 H843 0.929 . S
C855 C849 1.390 . S
C855 C852 1.386 . S
C856 C851 1.490 . S
C856 C858 1.395 . S
C856 C859 1.403 . S
H857 C863 0.930 . S
C858 H844 0.930 . S
C858 C856 1.395 . S
C858 C861 1.403 . S
C859 C856 1.403 . S
C859 C860 1.524 . S
C859 C863 1.400 . S
C860 H845 0.960 . S
C860 H846 0.960 . S
C860 H847 0.960 . S
C860 C859 1.524 . S
C861 C858 1.403 . S
C861 C862 1.392 . S
C861 C865 1.495 . S
C862 C861 1.392 . S
C862 C863 1.385 . S
C862 C864 1.478 . S
C863 H857 0.930 . S
C863 C859 1.400 . S
C863 C862 1.385 . S
C864 C862 1.478 . S
C864 C866 1.381 . S
C864 C870 1.383 . S
C865 C861 1.495 . S
C865 H871 0.959 . S
C865 H872 0.961 . S
C865 H873 0.960 . S
C866 C864 1.381 . S
C866 C867 1.394 . S
C866 H874 0.930 . S
C867 C866 1.394 . S
C867 C868 1.383 . S
C867 H875 0.929 . S
C868 C867 1.383 . S
C868 C869 1.377 . S
C869 H853 0.930 . S
C869 C868 1.377 . S
C869 C870 1.379 . S
C870 H854 0.931 . S
C870 C864 1.383 . S
C870 C869 1.379 . S
H871 C865 0.959 . S
H872 C865 0.961 . S
H873 C865 0.960 . S
H874 C866 0.930 . S
H875 C867 0.929 . S
H876 C884 0.929 . S
H877 C886 0.930 . S
H878 C888 0.930 . S
H879 C891 0.929 . S
H880 C894 0.930 . S
H881 C896 0.960 . S
H882 C896 0.960 . S
H883 C896 0.960 . S
C884 H876 0.929 . S
C884 C885 1.377 . S
C884 C886 1.384 . S
C885 C884 1.377 . S
C885 C891 1.390 . S
C886 H877 0.930 . S
C886 C884 1.384 . S
C886 C887 1.372 . S
C887 C886 1.372 . S
C887 C888 1.400 . S
C887 C892 1.490 . S
C888 H878 0.930 . S
C888 C887 1.400 . S
C888 C891 1.386 . S
H889 C905 0.930 . S
H890 C906 0.931 . S
C891 H879 0.929 . S
C891 C885 1.390 . S
C891 C888 1.386 . S
C892 C887 1.490 . S
C892 C894 1.395 . S
C892 C895 1.403 . S
H893 C899 0.930 . S
C894 H880 0.930 . S
C894 C892 1.395 . S
C894 C897 1.403 . S
C895 C892 1.403 . S
C895 C896 1.524 . S
C895 C899 1.400 . S
C896 H881 0.960 . S
C896 H882 0.960 . S
C896 H883 0.960 . S
C896 C895 1.524 . S
C897 C894 1.403 . S
C897 C898 1.392 . S
C897 C901 1.495 . S
C898 C897 1.392 . S
C898 C899 1.385 . S
C898 C900 1.478 . S
C899 H893 0.930 . S
C899 C895 1.400 . S
C899 C898 1.385 . S
C900 C898 1.478 . S
C900 C902 1.381 . S
C900 C906 1.383 . S
C901 C897 1.495 . S
C901 H907 0.959 . S
C901 H908 0.961 . S
C901 H909 0.960 . S
C902 C900 1.381 . S
C902 C903 1.394 . S
C902 H910 0.930 . S
C903 C902 1.394 . S
C903 C904 1.383 . S
C903 H911 0.929 . S
C904 C903 1.383 . S
C904 C905 1.377 . S
C905 H889 0.930 . S
C905 C904 1.377 . S
C905 C906 1.379 . S
C906 H890 0.931 . S
C906 C900 1.383 . S
C906 C905 1.379 . S
H907 C901 0.959 . S
H908 C901 0.961 . S
H909 C901 0.960 . S
H910 C902 0.930 . S
H911 C903 0.929 . S
H912 C920 0.929 . S
H913 C922 0.930 . S
H914 C924 0.930 . S
H915 C927 0.929 . S
H916 C930 0.930 . S
H917 C932 0.960 . S
H918 C932 0.960 . S
H919 C932 0.960 . S
C920 H912 0.929 . S
C920 C921 1.377 . S
C920 C922 1.384 . S
C921 C920 1.377 . S
C921 C927 1.390 . S
C922 H913 0.930 . S
C922 C920 1.384 . S
C922 C923 1.372 . S
C923 C922 1.372 . S
C923 C924 1.400 . S
C923 C928 1.490 . S
C924 H914 0.930 . S
C924 C923 1.400 . S
C924 C927 1.386 . S
H925 C941 0.930 . S
H926 C942 0.931 . S
C927 H915 0.929 . S
C927 C921 1.390 . S
C927 C924 1.386 . S
C928 C923 1.490 . S
C928 C930 1.395 . S
C928 C931 1.403 . S
H929 C935 0.930 . S
C930 H916 0.930 . S
C930 C928 1.395 . S
C930 C933 1.403 . S
C931 C928 1.403 . S
C931 C932 1.524 . S
C931 C935 1.400 . S
C932 H917 0.960 . S
C932 H918 0.960 . S
C932 H919 0.960 . S
C932 C931 1.524 . S
C933 C930 1.403 . S
C933 C934 1.392 . S
C933 C937 1.495 . S
C934 C933 1.392 . S
C934 C935 1.385 . S
C934 C936 1.478 . S
C935 H929 0.930 . S
C935 C931 1.400 . S
C935 C934 1.385 . S
C936 C934 1.478 . S
C936 C938 1.381 . S
C936 C942 1.383 . S
C937 C933 1.495 . S
C937 H943 0.959 . S
C937 H944 0.961 . S
C937 H945 0.960 . S
C938 C936 1.381 . S
C938 C939 1.394 . S
C938 H946 0.930 . S
C939 C938 1.394 . S
C939 C940 1.383 . S
C939 H947 0.929 . S
C940 C939 1.383 . S
C940 C941 1.377 . S
C941 H925 0.930 . S
C941 C940 1.377 . S
C941 C942 1.379 . S
C942 H926 0.931 . S
C942 C936 1.383 . S
C942 C941 1.379 . S
H943 C937 0.959 . S
H944 C937 0.961 . S
H945 C937 0.960 . S
H946 C938 0.930 . S
H947 C939 0.929 . S
H948 C956 0.929 . S
H949 C958 0.930 . S
H950 C960 0.930 . S
H951 C963 0.929 1_554 S
H952 C966 0.930 . S
H953 C968 0.960 . S
H954 C968 0.960 . S
H955 C968 0.960 . S
C956 H948 0.929 . S
C956 C957 1.377 1_556 S
C956 C958 1.384 . S
C957 C956 1.377 1_554 S
C957 C963 1.390 1_554 S
C958 H949 0.930 . S
C958 C956 1.384 . S
C958 C959 1.372 . S
C959 C958 1.372 . S
C959 C960 1.400 . S
C959 C964 1.490 . S
C960 H950 0.930 . S
C960 C959 1.400 . S
C960 C963 1.386 . S
H961 C977 0.930 . S
H962 C978 0.931 . S
C963 H951 0.929 1_556 S
C963 C957 1.390 1_556 S
C963 C960 1.386 . S
C964 C959 1.490 . S
C964 C966 1.395 . S
C964 C967 1.403 . S
H965 C971 0.930 . S
C966 H952 0.930 . S
C966 C964 1.395 . S
C966 C969 1.403 . S
C967 C964 1.403 . S
C967 C968 1.524 . S
C967 C971 1.400 . S
C968 H953 0.960 . S
C968 H954 0.960 . S
C968 H955 0.960 . S
C968 C967 1.524 . S
C969 C966 1.403 . S
C969 C970 1.392 . S
C969 C973 1.495 . S
C970 C969 1.392 . S
C970 C971 1.385 . S
C970 C972 1.478 . S
C971 H965 0.930 . S
C971 C967 1.400 . S
C971 C970 1.385 . S
C972 C970 1.478 . S
C972 C974 1.381 . S
C972 C978 1.383 . S
C973 C969 1.495 . S
C973 H979 0.959 . S
C973 H980 0.961 . S
C973 H981 0.960 . S
C974 C972 1.381 . S
C974 C975 1.394 . S
C974 H982 0.930 . S
C975 C974 1.394 . S
C975 C976 1.383 . S
C975 H983 0.929 . S
C976 C975 1.383 . S
C976 C977 1.377 . S
C977 H961 0.930 . S
C977 C976 1.377 . S
C977 C978 1.379 . S
C978 H962 0.931 . S
C978 C972 1.383 . S
C978 C977 1.379 . S
H979 C973 0.959 . S
H980 C973 0.961 . S
H981 C973 0.960 . S
H982 C974 0.930 . S
H983 C975 0.929 . S
H984 C992 0.929 . S
H985 C994 0.930 . S
H986 C996 0.930 . S
H987 C999 0.929 . S
H988 C1002 0.930 . S
H989 C1004 0.960 . S
H990 C1004 0.960 . S
H991 C1004 0.960 . S
C992 H984 0.929 . S
C992 C993 1.377 . S
C992 C994 1.384 . S
C993 C992 1.377 . S
C993 C999 1.390 . S
C994 H985 0.930 . S
C994 C992 1.384 . S
C994 C995 1.372 . S
C995 C994 1.372 . S
C995 C996 1.400 . S
C995 C1000 1.490 . S
C996 H986 0.930 . S
C996 C995 1.400 . S
C996 C999 1.386 . S
H997 C1013 0.930 . S
H998 C1014 0.931 . S
C999 H987 0.929 . S
C999 C993 1.390 . S
C999 C996 1.386 . S
C1000 C995 1.490 . S
C1000 C1002 1.395 . S
C1000 C1003 1.403 . S
H1001 C1007 0.930 . S
C1002 H988 0.930 . S
C1002 C1000 1.395 . S
C1002 C1005 1.403 . S
C1003 C1000 1.403 . S
C1003 C1004 1.524 . S
C1003 C1007 1.400 . S
C1004 H989 0.960 . S
C1004 H990 0.960 . S
C1004 H991 0.960 . S
C1004 C1003 1.524 . S
C1005 C1002 1.403 . S
C1005 C1006 1.392 . S
C1005 C1009 1.495 . S
C1006 C1005 1.392 . S
C1006 C1007 1.385 . S
C1006 C1008 1.478 . S
C1007 H1001 0.930 . S
C1007 C1003 1.400 . S
C1007 C1006 1.385 . S
C1008 C1006 1.478 . S
C1008 C1010 1.381 . S
C1008 C1014 1.383 . S
C1009 C1005 1.495 . S
C1009 H1015 0.959 . S
C1009 H1016 0.961 . S
C1009 H1017 0.960 . S
C1010 C1008 1.381 . S
C1010 C1011 1.394 . S
C1010 H1018 0.930 . S
C1011 C1010 1.394 . S
C1011 C1012 1.383 1_554 S
C1011 H1019 0.929 1_554 S
C1012 C1011 1.383 1_556 S
C1012 C1013 1.377 1_556 S
C1013 H997 0.930 . S
C1013 C1012 1.377 1_554 S
C1013 C1014 1.379 . S
C1014 H998 0.931 . S
C1014 C1008 1.383 . S
C1014 C1013 1.379 . S
H1015 C1009 0.959 . S
H1016 C1009 0.961 . S
H1017 C1009 0.960 . S
H1018 C1010 0.930 . S
H1019 C1011 0.929 1_556 S
C165 C10 1.461 . S
C184 C88 1.455 . S
C201 C23 1.456 . S
C220 C101 1.430 . S
C237 C114 1.461 . S
C256 C36 1.473 . S
C273 C49 1.462 . S
C292 C127 1.462 . S
C309 C62 1.456 . S
C328 C140 1.430 . S
C345 C153 1.456 . S
C364 C75 1.430 . S
C381 C105 1.734 . S
C400 C1 1.710 . S
C417 C14 1.730 . S
C436 C118 1.736 . S
C453 C131 1.731 . S
C472 C27 1.718 . S
C489 C144 1.732 . S
C508 C40 1.725 . S
C525 C53 1.732 . S
C544 C79 1.717 . S
C561 C66 1.727 . S
C580 C92 1.744 . S
C597 C148 1.915 . S
C616 C5 1.903 . S
C633 C83 1.911 . S
C652 C18 1.922 . S
C669 C31 1.912 . S
C688 C96 1.900 . S
C705 C109 1.915 . S
C724 C44 1.902 . S
C741 C122 1.908 . S
C760 C57 1.930 . S
C777 C135 1.917 . S
C796 C70 1.885 . S
C813 C3 1.369 . S
C832 C133 1.359 . S
C849 C146 1.364 . S
C868 C16 1.352 . S
C885 C29 1.368 . S
C904 C81 1.367 . S
C921 C42 1.369 . S
C940 C94 1.353 . S
C957 C55 1.365 . S
C976 C107 1.352 . S
C993 C68 1.365 . S
C1012 C120 1.351 . S
