# Generated by pormake.
# Topology svc, (7)-cn, num edge types: 1
# Building blocks:
#     Node 0, Type 0, BuildingBlock: HICVOG_clean_sbu_0, # of connection points: 7
#     Node 1, Type 0, BuildingBlock: HICVOG_clean_sbu_0, # of connection points: 7
#     Node 2, Type 0, BuildingBlock: HICVOG_clean_sbu_0, # of connection points: 7
#     Node 3, Type 0, BuildingBlock: HICVOG_clean_sbu_0, # of connection points: 7
#     Node 4, Type 0, BuildingBlock: HICVOG_clean_sbu_0, # of connection points: 7
#     Node 5, Type 0, BuildingBlock: HICVOG_clean_sbu_0, # of connection points: 7
#     Node 6, Type 0, BuildingBlock: HICVOG_clean_sbu_0, # of connection points: 7
#     Node 7, Type 0, BuildingBlock: HICVOG_clean_sbu_0, # of connection points: 7
#     Node 8, Type 0, BuildingBlock: HICVOG_clean_sbu_0, # of connection points: 7
#     Node 9, Type 0, BuildingBlock: HICVOG_clean_sbu_0, # of connection points: 7
#     Node 10, Type 0, BuildingBlock: HICVOG_clean_sbu_0, # of connection points: 7
#     Node 11, Type 0, BuildingBlock: HICVOG_clean_sbu_0, # of connection points: 7
#     Node 12, Type 0, BuildingBlock: HICVOG_clean_sbu_0, # of connection points: 7
#     Node 13, Type 0, BuildingBlock: HICVOG_clean_sbu_0, # of connection points: 7
#     Node 14, Type 0, BuildingBlock: HICVOG_clean_sbu_0, # of connection points: 7
#     Node 15, Type 0, BuildingBlock: HICVOG_clean_sbu_0, # of connection points: 7
#     Edge 16, Type (0, 0), BuildingBlock: XIVTED_clean_linker_0, # of connection points: 2
#     Edge 17, Type (0, 0), BuildingBlock: XIVTED_clean_linker_0, # of connection points: 2
#     Edge 18, Type (0, 0), BuildingBlock: XIVTED_clean_linker_0, # of connection points: 2
#     Edge 19, Type (0, 0), BuildingBlock: XIVTED_clean_linker_0, # of connection points: 2
#     Edge 20, Type (0, 0), BuildingBlock: XIVTED_clean_linker_0, # of connection points: 2
#     Edge 21, Type (0, 0), BuildingBlock: XIVTED_clean_linker_0, # of connection points: 2
#     Edge 22, Type (0, 0), BuildingBlock: XIVTED_clean_linker_0, # of connection points: 2
#     Edge 23, Type (0, 0), BuildingBlock: XIVTED_clean_linker_0, # of connection points: 2
#     Edge 24, Type (0, 0), BuildingBlock: XIVTED_clean_linker_0, # of connection points: 2
#     Edge 25, Type (0, 0), BuildingBlock: XIVTED_clean_linker_0, # of connection points: 2
#     Edge 26, Type (0, 0), BuildingBlock: XIVTED_clean_linker_0, # of connection points: 2
#     Edge 27, Type (0, 0), BuildingBlock: XIVTED_clean_linker_0, # of connection points: 2
#     Edge 28, Type (0, 0), BuildingBlock: XIVTED_clean_linker_0, # of connection points: 2
#     Edge 29, Type (0, 0), BuildingBlock: XIVTED_clean_linker_0, # of connection points: 2
#     Edge 30, Type (0, 0), BuildingBlock: XIVTED_clean_linker_0, # of connection points: 2
#     Edge 31, Type (0, 0), BuildingBlock: XIVTED_clean_linker_0, # of connection points: 2
#     Edge 32, Type (0, 0), BuildingBlock: XIVTED_clean_linker_0, # of connection points: 2
#     Edge 33, Type (0, 0), BuildingBlock: XIVTED_clean_linker_0, # of connection points: 2
#     Edge 34, Type (0, 0), BuildingBlock: XIVTED_clean_linker_0, # of connection points: 2
#     Edge 35, Type (0, 0), BuildingBlock: XIVTED_clean_linker_0, # of connection points: 2
#     Edge 36, Type (0, 0), BuildingBlock: XIVTED_clean_linker_0, # of connection points: 2
#     Edge 37, Type (0, 0), BuildingBlock: XIVTED_clean_linker_0, # of connection points: 2
#     Edge 38, Type (0, 0), BuildingBlock: XIVTED_clean_linker_0, # of connection points: 2
#     Edge 39, Type (0, 0), BuildingBlock: XIVTED_clean_linker_0, # of connection points: 2
#     Edge 40, Type (0, 0), BuildingBlock: XIVTED_clean_linker_0, # of connection points: 2
#     Edge 41, Type (0, 0), BuildingBlock: XIVTED_clean_linker_0, # of connection points: 2
#     Edge 42, Type (0, 0), BuildingBlock: XIVTED_clean_linker_0, # of connection points: 2
#     Edge 43, Type (0, 0), BuildingBlock: XIVTED_clean_linker_0, # of connection points: 2
#     Edge 44, Type (0, 0), BuildingBlock: XIVTED_clean_linker_0, # of connection points: 2
#     Edge 45, Type (0, 0), BuildingBlock: XIVTED_clean_linker_0, # of connection points: 2
#     Edge 46, Type (0, 0), BuildingBlock: XIVTED_clean_linker_0, # of connection points: 2
#     Edge 47, Type (0, 0), BuildingBlock: XIVTED_clean_linker_0, # of connection points: 2
#     Edge 48, Type (0, 0), BuildingBlock: XIVTED_clean_linker_0, # of connection points: 2
#     Edge 49, Type (0, 0), BuildingBlock: XIVTED_clean_linker_0, # of connection points: 2
#     Edge 50, Type (0, 0), BuildingBlock: XIVTED_clean_linker_0, # of connection points: 2
#     Edge 51, Type (0, 0), BuildingBlock: XIVTED_clean_linker_0, # of connection points: 2
#     Edge 52, Type (0, 0), BuildingBlock: XIVTED_clean_linker_0, # of connection points: 2
#     Edge 53, Type (0, 0), BuildingBlock: XIVTED_clean_linker_0, # of connection points: 2
#     Edge 54, Type (0, 0), BuildingBlock: XIVTED_clean_linker_0, # of connection points: 2
#     Edge 55, Type (0, 0), BuildingBlock: XIVTED_clean_linker_0, # of connection points: 2
#     Edge 56, Type (0, 0), BuildingBlock: XIVTED_clean_linker_0, # of connection points: 2
#     Edge 57, Type (0, 0), BuildingBlock: XIVTED_clean_linker_0, # of connection points: 2
#     Edge 58, Type (0, 0), BuildingBlock: XIVTED_clean_linker_0, # of connection points: 2
#     Edge 59, Type (0, 0), BuildingBlock: XIVTED_clean_linker_0, # of connection points: 2
#     Edge 60, Type (0, 0), BuildingBlock: XIVTED_clean_linker_0, # of connection points: 2
#     Edge 61, Type (0, 0), BuildingBlock: XIVTED_clean_linker_0, # of connection points: 2
#     Edge 62, Type (0, 0), BuildingBlock: XIVTED_clean_linker_0, # of connection points: 2
#     Edge 63, Type (0, 0), BuildingBlock: XIVTED_clean_linker_0, # of connection points: 2
#     Edge 64, Type (0, 0), BuildingBlock: XIVTED_clean_linker_0, # of connection points: 2
#     Edge 65, Type (0, 0), BuildingBlock: XIVTED_clean_linker_0, # of connection points: 2
#     Edge 66, Type (0, 0), BuildingBlock: XIVTED_clean_linker_0, # of connection points: 2
#     Edge 67, Type (0, 0), BuildingBlock: XIVTED_clean_linker_0, # of connection points: 2
#     Edge 68, Type (0, 0), BuildingBlock: XIVTED_clean_linker_0, # of connection points: 2
#     Edge 69, Type (0, 0), BuildingBlock: XIVTED_clean_linker_0, # of connection points: 2
#     Edge 70, Type (0, 0), BuildingBlock: XIVTED_clean_linker_0, # of connection points: 2
#     Edge 71, Type (0, 0), BuildingBlock: XIVTED_clean_linker_0, # of connection points: 2
# Relax obj value: 0.177
# Max RMSD: 0.250
# Mean RMSD: 0.214
data_MOF--net-svc--node1-HICVOG_clean_sbu_0--edge1-XIVTED_clean_linker_0
_symmetry_space_group_name_H-M    P1
_symmetry_Int_Tables_number       1
_symmetry_cell_setting            triclinic
loop_
_symmetry_equiv_pos_as_xyz
'x, y, z'
_cell_length_a     31.775518
_cell_length_b     28.79572
_cell_length_c     79.620374
_cell_angle_alpha  98.648189
_cell_angle_beta   94.694302
_cell_angle_gamma 90.323936
loop_
_atom_site_label
_atom_site_type_symbol
_atom_site_fract_x
_atom_site_fract_y
_atom_site_fract_z
_atom_type_partial_charge
Zn0 Zn 0.21274 0.40412 0.11193 0.0
C1 C 0.12042 0.34645 0.13173 0.0
N2 N 0.1384 0.30569 0.12601 0.0
C3 C 0.17658 0.3196 0.1223 0.0
N4 N 0.18121 0.36709 0.12521 0.0
N5 N 0.14608 0.38362 0.1315 0.0
C6 C 0.06333 0.46879 0.13195 0.0
O7 O 0.08554 0.46473 0.11861 0.0
O8 O 0.27439 0.39238 0.11492 0.0
Zn9 Zn 0.14117 0.4429 0.14616 0.0
N10 N 0.19103 0.38684 0.08832 0.0
C11 C 0.13275 0.35898 0.06866 0.0
C12 C 0.15042 0.3707 0.08533 0.0
C13 C 0.21465 0.39249 0.07524 0.0
N14 N 0.15612 0.36477 0.0556 0.0
C15 C 0.19667 0.38156 0.05827 0.0
O16 O 0.17003 0.49959 0.13922 0.0
C17 C 0.19337 0.50889 0.12784 0.0
O18 O 0.2084 0.4761 0.11753 0.0
H19 H 0.13169 0.36728 0.09581 0.0
H20 H 0.24687 0.40522 0.07816 0.0
C21 C 0.14285 0.44997 0.1833 0.0
C22 C 0.15757 0.43666 0.19907 0.0
C23 C 0.21004 0.39048 0.18525 0.0
C24 C 0.19532 0.40354 0.16974 0.0
N25 N 0.16203 0.43279 0.16898 0.0
N26 N 0.19082 0.40711 0.19946 0.0
H27 H 0.11585 0.47242 0.1823 0.0
C28 C 0.29102 0.40917 0.12964 0.0
O29 O 0.26613 0.42525 0.14149 0.0
O30 O 0.08046 0.45939 0.14599 0.0
H31 H 0.20978 0.38955 0.1583 0.0
H32 H 0.10054 0.34587 0.06609 0.0
H33 H 0.23631 0.36694 0.18599 0.0
Zn34 Zn 0.87009 0.99997 0.36553 0.0
C35 C 0.93595 0.91156 0.38979 0.0
N36 N 0.96932 0.93222 0.38438 0.0
C37 C 0.95219 0.97005 0.37869 0.0
N38 N 0.91032 0.97209 0.3803 0.0
N39 N 0.90025 0.93587 0.38759 0.0
C40 C 0.80152 0.86765 0.38765 0.0
O41 O 0.8023 0.89311 0.37531 0.0
O42 O 0.89014 0.06411 0.36381 0.0
Zn43 Zn 0.85501 0.93915 0.40227 0.0
N44 N 0.86669 0.9604 0.34355 0.0
C45 C 0.86382 0.88298 0.32804 0.0
C46 C 0.86568 0.9132 0.34347 0.0
C47 C 0.86577 0.97879 0.32876 0.0
N48 N 0.86278 0.90119 0.31326 0.0
C49 C 0.86346 0.94841 0.31306 0.0
O50 O 0.8052 0.98062 0.39718 0.0
C51 C 0.78934 1.00282 0.38558 0.0
O52 O 0.81006 1.00919 0.37304 0.0
H53 H 0.86652 0.89918 0.35533 0.0
H54 H 0.8675 1.01652 0.32938 0.0
C55 C 0.85847 0.94533 0.4384 0.0
C56 C 0.87496 0.95966 0.45536 0.0
C57 C 0.93069 1.00021 0.4452 0.0
C58 C 0.9138 0.98642 0.42846 0.0
N59 N 0.87819 0.9591 0.42541 0.0
N60 N 0.91097 0.98657 0.4582 0.0
H61 H 0.83062 0.92293 0.43539 0.0
C62 C 0.89426 0.08998 0.37824 0.0
O63 O 0.89106 0.07035 0.39197 0.0
O64 O 0.82729 0.87737 0.40076 0.0
H65 H 0.929 0.99725 0.41798 0.0
H66 H 0.86319 0.84531 0.32779 0.0
H67 H 0.95916 1.02173 0.44785 0.0
Zn68 Zn 0.34548 0.60706 0.62092 0.0
C69 C 0.44961 0.56468 0.64552 0.0
N70 N 0.46462 0.60772 0.64449 0.0
C71 C 0.43031 0.62919 0.63855 0.0
N72 N 0.39589 0.60053 0.63578 0.0
N73 N 0.40779 0.56033 0.64069 0.0
C74 C 0.37744 0.44094 0.6294 0.0
O75 O 0.3651 0.47184 0.61956 0.0
O76 O 0.33249 0.67569 0.6218 0.0
Zn77 Zn 0.37115 0.52264 0.65164 0.0
N78 N 0.35889 0.58076 0.59791 0.0
C79 C 0.40104 0.52747 0.58093 0.0
C80 C 0.38932 0.54766 0.59678 0.0
C81 C 0.34024 0.59531 0.5836 0.0
N82 N 0.38248 0.54174 0.56671 0.0
C83 C 0.35249 0.5754 0.56743 0.0
O84 O 0.30744 0.52681 0.64556 0.0
C85 C 0.28022 0.54623 0.63633 0.0
O86 O 0.29157 0.5753 0.62685 0.0
H87 H 0.40471 0.537 0.60809 0.0
H88 H 0.31616 0.62169 0.58488 0.0
C89 C 0.37974 0.51942 0.68867 0.0
C90 C 0.38685 0.54139 0.70581 0.0
C91 C 0.39697 0.61456 0.69615 0.0
C92 C 0.38909 0.59301 0.6794 0.0
N93 N 0.38128 0.54591 0.67588 0.0
N94 N 0.39554 0.58843 0.70885 0.0
H95 H 0.37203 0.48239 0.68542 0.0
C96 C 0.32348 0.69945 0.6358 0.0
O97 O 0.3245 0.67895 0.6495 0.0
O98 O 0.385 0.45488 0.6453 0.0
H99 H 0.38885 0.61398 0.66926 0.0
H100 H 0.425 0.50088 0.57992 0.0
H101 H 0.40357 0.65193 0.69908 0.0
Zn102 Zn 0.64559 0.09351 0.86183 0.0
C103 C 0.70362 0.22082 0.87674 0.0
N104 N 0.67008 0.23423 0.86741 0.0
C105 C 0.64551 0.19542 0.86415 0.0
N106 N 0.66274 0.15937 0.87123 0.0
N107 N 0.69962 0.17532 0.8793 0.0
C108 C 0.81245 0.12571 0.88223 0.0
O109 O 0.78654 0.10081 0.87056 0.0
O110 O 0.58062 0.07965 0.85929 0.0
Zn111 Zn 0.73287 0.14361 0.89605 0.0
N112 N 0.66724 0.086 0.8394 0.0
C113 C 0.72516 0.10794 0.8249 0.0
C114 C 0.70642 0.10564 0.8399 0.0
C115 C 0.64618 0.06714 0.82424 0.0
N116 N 0.7041 0.09008 0.80984 0.0
C117 C 0.66519 0.0695 0.80898 0.0
O118 O 0.72347 0.0723 0.89371 0.0
C119 C 0.70177 0.03724 0.88571 0.0
O120 O 0.67284 0.04245 0.87411 0.0
H121 H 0.72265 0.1205 0.85192 0.0
H122 H 0.61493 0.0518 0.82404 0.0
C123 C 0.73565 0.16067 0.93328 0.0
C124 C 0.72038 0.17993 0.94899 0.0
C125 C 0.66696 0.21856 0.93393 0.0
C126 C 0.68169 0.19892 0.91854 0.0
N127 N 0.716 0.17086 0.91842 0.0
N128 N 0.68643 0.20853 0.94869 0.0
H129 H 0.76182 0.13682 0.93271 0.0
C130 C 0.55941 0.07599 0.87201 0.0
O131 O 0.57863 0.08365 0.88744 0.0
O132 O 0.79687 0.15078 0.89475 0.0
H133 H 0.66535 0.20577 0.90678 0.0
H134 H 0.7561 0.12404 0.82519 0.0
H135 H 0.63984 0.24113 0.93416 0.0
Zn136 Zn 0.13715 0.58823 0.37077 0.0
C137 C 0.19215 0.71455 0.38665 0.0
N138 N 0.15328 0.72864 0.38197 0.0
C139 C 0.13 0.68876 0.37954 0.0
N140 N 0.1532 0.65155 0.38275 0.0
N141 N 0.1923 0.66764 0.38763 0.0
C142 C 0.30178 0.61717 0.38235 0.0
O143 O 0.27181 0.59256 0.37254 0.0
O144 O 0.07219 0.57851 0.37007 0.0
Zn145 Zn 0.23117 0.63346 0.40155 0.0
N146 N 0.15379 0.5889 0.34756 0.0
C147 C 0.20365 0.62187 0.33166 0.0
C148 C 0.18972 0.61448 0.34713 0.0
C149 C 0.13179 0.56866 0.33276 0.0
N150 N 0.18152 0.60269 0.31702 0.0
C151 C 0.14608 0.576 0.31699 0.0
O152 O 0.22197 0.56119 0.39821 0.0
C153 C 0.19948 0.52635 0.39038 0.0
O154 O 0.16758 0.5327 0.38014 0.0
H155 H 0.20744 0.6297 0.35872 0.0
H156 H 0.1034 0.54812 0.33323 0.0
C157 C 0.24689 0.64637 0.43897 0.0
C158 C 0.238 0.66574 0.45568 0.0
C159 C 0.18188 0.70842 0.44413 0.0
C160 C 0.19015 0.68859 0.42777 0.0
N161 N 0.22287 0.65862 0.42535 0.0
N162 N 0.20581 0.69654 0.45761 0.0
H163 H 0.27243 0.62212 0.43676 0.0
C164 C 0.05468 0.57053 0.38324 0.0
O165 O 0.07878 0.56847 0.39732 0.0
O166 O 0.29209 0.6417 0.39614 0.0
H167 H 0.17006 0.69708 0.41716 0.0
H168 H 0.23191 0.64269 0.33127 0.0
H169 H 0.15622 0.73262 0.44613 0.0
Zn170 Zn 0.73619 0.88235 0.60665 0.0
C171 C 0.63972 0.82425 0.62359 0.0
N172 N 0.65822 0.78364 0.61806 0.0
C173 C 0.69733 0.79772 0.61559 0.0
N174 N 0.70201 0.84514 0.61896 0.0
N175 N 0.66609 0.86152 0.62455 0.0
C176 C 0.58187 0.9477 0.62548 0.0
O177 O 0.60313 0.94573 0.61192 0.0
O178 O 0.79743 0.87247 0.61217 0.0
Zn179 Zn 0.6607 0.92083 0.63917 0.0
N180 N 0.7203 0.86354 0.58246 0.0
C181 C 0.66995 0.82616 0.56079 0.0
C182 C 0.68342 0.83889 0.57792 0.0
C183 C 0.7438 0.87714 0.57042 0.0
N184 N 0.6932 0.83976 0.54882 0.0
C185 C 0.72981 0.86522 0.55301 0.0
O186 O 0.68942 0.97808 0.6324 0.0
C187 C 0.71384 0.98716 0.62135 0.0
O188 O 0.73019 0.95418 0.61155 0.0
H189 H 0.66398 0.82985 0.58746 0.0
H190 H 0.77205 0.89833 0.57448 0.0
C191 C 0.66221 0.93132 0.67612 0.0
C192 C 0.67533 0.91887 0.69217 0.0
C193 C 0.72533 0.86726 0.67915 0.0
C194 C 0.71219 0.87954 0.66334 0.0
N195 N 0.68086 0.91108 0.66206 0.0
N196 N 0.70657 0.88697 0.69312 0.0
H197 H 0.63676 0.95559 0.6747 0.0
C198 C 0.81085 0.89143 0.6271 0.0
O199 O 0.78328 0.90868 0.63769 0.0
O200 O 0.6 0.93675 0.6391 0.0
H201 H 0.72632 0.8632 0.65211 0.0
H202 H 0.64078 0.80638 0.55702 0.0
H203 H 0.75001 0.84194 0.68031 0.0
Zn204 Zn 0.3248 0.43714 0.90317 0.0
C205 C 0.37567 0.3265 0.87636 0.0
N206 N 0.3542 0.30372 0.88666 0.0
C207 C 0.3318 0.33788 0.89487 0.0
N208 N 0.33907 0.37944 0.8899 0.0
N209 N 0.36604 0.3728 0.878 0.0
C210 C 0.44788 0.46867 0.8779 0.0
O211 O 0.42734 0.46874 0.8915 0.0
O212 O 0.26227 0.44538 0.90335 0.0
Zn213 Zn 0.37306 0.41857 0.86247 0.0
N214 N 0.34985 0.43641 0.92614 0.0
C215 C 0.41279 0.43796 0.94459 0.0
C216 C 0.39268 0.43852 0.92844 0.0
C217 C 0.32609 0.43244 0.93934 0.0
N218 N 0.38923 0.43446 0.9578 0.0
C219 C 0.34629 0.43131 0.95571 0.0
O220 O 0.33556 0.47613 0.86669 0.0
C221 C 0.33316 0.50521 0.88034 0.0
O222 O 0.34594 0.49437 0.89476 0.0
H223 H 0.41108 0.44027 0.91778 0.0
H224 H 0.29205 0.4306 0.93709 0.0
C225 C 0.36918 0.40731 0.82597 0.0
C226 C 0.35661 0.38576 0.8092 0.0
C227 C 0.32235 0.32504 0.82038 0.0
C228 C 0.33373 0.34734 0.83691 0.0
N229 N 0.35743 0.38763 0.8394 0.0
N230 N 0.33384 0.34478 0.80697 0.0
H231 H 0.38798 0.4394 0.82845 0.0
C232 C 0.24096 0.44694 0.88925 0.0
O233 O 0.25947 0.43735 0.87501 0.0
O234 O 0.43196 0.44669 0.86378 0.0
H235 H 0.32347 0.33268 0.84763 0.0
H236 H 0.44687 0.43994 0.94661 0.0
H237 H 0.30389 0.2927 0.81821 0.0
Zn238 Zn 0.82217 0.12733 0.11679 0.0
C239 C 0.92813 0.08198 0.13842 0.0
N240 N 0.94405 0.12296 0.13544 0.0
C241 C 0.90927 0.14566 0.13071 0.0
N242 N 0.87374 0.11995 0.13075 0.0
N243 N 0.88551 0.08013 0.13596 0.0
C244 C 0.85831 0.96071 0.12802 0.0
O245 O 0.84601 0.98961 0.1174 0.0
O246 O 0.80936 0.19607 0.11834 0.0
Zn247 Zn 0.85003 0.04508 0.14828 0.0
N248 N 0.834 0.10204 0.09351 0.0
C249 C 0.87441 0.0476 0.07617 0.0
C250 C 0.8622 0.0666 0.09208 0.0
C251 C 0.81758 0.11963 0.07943 0.0
N252 N 0.85825 0.06505 0.0622 0.0
C253 C 0.83011 0.10064 0.06321 0.0
O254 O 0.78633 0.04712 0.14201 0.0
C255 C 0.75869 0.06576 0.13271 0.0
O256 O 0.76934 0.09484 0.12312 0.0
H257 H 0.87584 0.05356 0.10323 0.0
H258 H 0.7961 0.14866 0.08098 0.0
C259 C 0.85725 0.0502 0.18565 0.0
C260 C 0.86213 0.07574 0.2023 0.0
C261 C 0.87232 0.14586 0.1907 0.0
C262 C 0.86681 0.12076 0.17435 0.0
N263 N 0.85965 0.07351 0.17205 0.0
N264 N 0.86965 0.12292 0.20422 0.0
H265 H 0.85032 1.01286 0.18346 0.0
C266 C 0.80283 0.21953 0.13272 0.0
O267 O 0.80598 0.19854 0.14631 0.0
O268 O 0.86503 0.9771 0.14377 0.0
H269 H 0.86755 0.13919 0.16356 0.0
H270 H 0.89689 1.01947 0.07494 0.0
H271 H 0.87806 0.18343 0.19265 0.0
Zn272 Zn 0.87467 0.61036 0.87077 0.0
C273 C 0.8363 0.73325 0.89396 0.0
N274 N 0.87431 0.74799 0.89035 0.0
C275 C 0.89342 0.70772 0.88497 0.0
N276 N 0.86843 0.66989 0.88522 0.0
N277 N 0.83268 0.68558 0.89124 0.0
C278 C 0.72225 0.64158 0.88607 0.0
O279 O 0.74745 0.62718 0.87413 0.0
O280 O 0.9356 0.59484 0.87135 0.0
Zn281 Zn 0.80049 0.64724 0.90413 0.0
N282 N 0.85487 0.61942 0.84776 0.0
C283 C 0.8088 0.66111 0.83049 0.0
C284 C 0.82263 0.64981 0.84638 0.0
C285 C 0.87364 0.59922 0.83372 0.0
N286 N 0.82759 0.64135 0.81653 0.0
C287 C 0.85965 0.61045 0.81756 0.0
O288 O 0.80459 0.57518 0.89809 0.0
C289 C 0.82076 0.54288 0.88794 0.0
O290 O 0.84561 0.55299 0.8772 0.0
H291 H 0.80818 0.6658 0.85759 0.0
H292 H 0.89965 0.5757 0.83523 0.0
C293 C 0.79847 0.65504 0.94099 0.0
C294 C 0.81686 0.6643 0.95793 0.0
C295 C 0.88007 0.68951 0.94775 0.0
C296 C 0.86193 0.67992 0.93108 0.0
N297 N 0.82153 0.66306 0.92797 0.0
N298 N 0.8573 0.68133 0.96071 0.0
H299 H 0.76686 0.64032 0.93807 0.0
C300 C 0.95256 0.584 0.8852 0.0
O301 O 0.93003 0.58599 0.8984 0.0
O302 O 0.73859 0.65816 0.90087 0.0
H303 H 0.88031 0.68516 0.92069 0.0
H304 H 0.7834 0.68553 0.82924 0.0
H305 H 0.9122 0.70285 0.95038 0.0
Zn306 Zn 0.20952 0.0938 0.61481 0.0
C307 C 0.15945 0.20103 0.64358 0.0
N308 N 0.18224 0.22558 0.63427 0.0
C309 C 0.20475 0.1922 0.62567 0.0
N310 N 0.1963 0.14955 0.62949 0.0
N311 N 0.16851 0.15462 0.64107 0.0
C312 C 0.08841 0.05829 0.64151 0.0
O313 O 0.11133 0.05413 0.62843 0.0
O314 O 0.27175 0.08889 0.61301 0.0
Zn315 Zn 0.16203 0.10808 0.65625 0.0
N316 N 0.1805 0.09616 0.59254 0.0
C317 C 0.11461 0.0982 0.57628 0.0
C318 C 0.13768 0.09632 0.59175 0.0
C319 C 0.20148 0.09877 0.57843 0.0
N320 N 0.13534 0.10039 0.56219 0.0
C321 C 0.17832 0.10082 0.56262 0.0
O322 O 0.19763 0.0492 0.65094 0.0
C323 C 0.20242 1.02133 0.63719 0.0
O324 O 0.19363 0.03363 0.62264 0.0
H325 H 0.12163 0.09545 0.60313 0.0
H326 H 0.23556 0.10005 0.5798 0.0
C327 C 0.168 0.11753 0.693 0.0
C328 C 0.1827 0.13777 0.70973 0.0
C329 C 0.21987 0.19603 0.69829 0.0
C330 C 0.20605 0.1752 0.68182 0.0
N331 N 0.18002 0.13674 0.67947 0.0
N332 N 0.20804 0.17688 0.71178 0.0
H333 H 0.14722 0.08698 0.69062 0.0
C334 C 0.29371 0.08459 0.62673 0.0
O335 O 0.27541 0.08939 0.64108 0.0
O336 O 0.10257 0.08324 0.65535 0.0
H337 H 0.21631 0.18945 0.67101 0.0
H338 H 0.08046 0.09823 0.57545 0.0
H339 H 0.24032 0.22687 0.70036 0.0
Zn340 Zn 0.68033 0.44288 0.39906 0.0
C341 C 0.57395 0.46884 0.3734 0.0
N342 N 0.56046 0.42873 0.37805 0.0
C343 C 0.59647 0.41079 0.38421 0.0
N344 N 0.63026 0.43873 0.38354 0.0
N345 N 0.61622 0.47465 0.37634 0.0
C346 C 0.63072 0.59544 0.38026 0.0
O347 O 0.64257 0.57232 0.39282 0.0
O348 O 0.70523 0.38033 0.39854 0.0
Zn349 Zn 0.64997 0.50909 0.36316 0.0
N350 N 0.66437 0.46625 0.42182 0.0
C351 C 0.62055 0.51729 0.43879 0.0
C352 C 0.63386 0.49915 0.42294 0.0
C353 C 0.68184 0.45009 0.43601 0.0
N354 N 0.63793 0.50138 0.45293 0.0
C355 C 0.66817 0.46796 0.45214 0.0
O356 O 0.71385 0.5146 0.37001 0.0
C357 C 0.74042 0.50509 0.38187 0.0
O358 O 0.72936 0.4818 0.39323 0.0
H359 H 0.61982 0.51103 0.41157 0.0
H360 H 0.70626 0.42411 0.43467 0.0
C361 C 0.64347 0.50502 0.32659 0.0
C362 C 0.63668 0.48239 0.30957 0.0
C363 C 0.62665 0.40992 0.31979 0.0
C364 C 0.63332 0.43254 0.33652 0.0
N365 N 0.64145 0.47955 0.33961 0.0
N366 N 0.62851 0.43522 0.3068 0.0
H367 H 0.65096 0.54213 0.32963 0.0
C368 C 0.72124 0.36626 0.38462 0.0
O369 O 0.71378 0.38957 0.37174 0.0
O370 O 0.62918 0.57396 0.36512 0.0
H371 H 0.63212 0.41277 0.347 0.0
H372 H 0.59641 0.54366 0.43985 0.0
H373 H 0.62012 0.37251 0.31712 0.0
Zn374 Zn 0.36811 0.95503 0.14793 0.0
C375 C 0.30811 0.8284 0.13333 0.0
N376 N 0.34234 0.81428 0.14201 0.0
C377 C 0.36713 0.85288 0.14518 0.0
N378 N 0.34928 0.88963 0.13869 0.0
N379 N 0.31174 0.87418 0.13109 0.0
C380 C 0.20037 0.92961 0.13261 0.0
O381 O 0.2292 0.95556 0.14259 0.0
O382 O 0.43291 0.96718 0.14794 0.0
Zn383 Zn 0.27507 0.90672 0.11558 0.0
N384 N 0.35234 0.96127 0.17127 0.0
C385 C 0.2975 0.94066 0.18759 0.0
C386 C 0.31263 0.94429 0.17196 0.0
C387 C 0.37769 0.97579 0.18584 0.0
N388 N 0.32272 0.95425 0.20205 0.0
C389 C 0.36242 0.97188 0.20173 0.0
O390 O 0.28629 0.97731 0.1177 0.0
C391 C 0.30828 1.01233 0.12553 0.0
O392 O 0.33799 1.00714 0.13685 0.0
H393 H 0.2933 0.93227 0.16034 0.0
H394 H 0.40945 0.98864 0.18506 0.0
C395 C 0.26208 0.88943 0.07806 0.0
C396 C 0.27216 0.86805 0.06172 0.0
C397 C 0.32702 0.82663 0.07479 0.0
C398 C 0.31768 0.84861 0.09076 0.0
N399 N 0.28492 0.87876 0.09224 0.0
N400 N 0.30425 0.83688 0.06074 0.0
H401 H 0.23663 0.91411 0.07954 0.0
C402 C 0.44789 0.9885 0.13672 0.0
O403 O 0.42152 1.00232 0.12495 0.0
O404 O 0.21217 0.90202 0.11984 0.0
H405 H 0.33678 0.84161 0.1019 0.0
H406 H 0.2661 0.92667 0.18823 0.0
H407 H 0.35264 0.80211 0.07352 0.0
Zn408 Zn 0.88657 0.43512 0.64745 0.0
C409 C 0.8302 0.30751 0.63006 0.0
N410 N 0.8647 0.29306 0.63846 0.0
C411 C 0.88847 0.3323 0.64257 0.0
N412 N 0.86977 0.36983 0.63692 0.0
N413 N 0.8327 0.35414 0.62889 0.0
C414 C 0.72186 0.41222 0.63326 0.0
O415 O 0.75175 0.43751 0.64287 0.0
O416 O 0.95182 0.44825 0.6489 0.0
Zn417 Zn 0.79427 0.38856 0.6146 0.0
N418 N 0.86693 0.43929 0.67028 0.0
C419 C 0.81343 0.41063 0.68557 0.0
C420 C 0.83009 0.415 0.6703 0.0
C421 C 0.88738 0.46095 0.6852 0.0
N422 N 0.83397 0.43127 0.70038 0.0
C423 C 0.87039 0.45659 0.70075 0.0
O424 O 0.80661 0.4588 0.61687 0.0
C425 C 0.82893 0.49347 0.62474 0.0
O426 O 0.85815 0.48789 0.63619 0.0
H427 H 0.81391 0.39831 0.65851 0.0
H428 H 0.91664 0.4802 0.685 0.0
C429 C 0.77708 0.37677 0.57742 0.0
C430 C 0.78498 0.35795 0.56054 0.0
C431 C 0.83949 0.31186 0.57146 0.0
C432 C 0.8323 0.33136 0.588 0.0
N433 N 0.80077 0.36264 0.59078 0.0
N434 N 0.81588 0.32561 0.55821 0.0
H435 H 0.75268 0.40228 0.57998 0.0
C436 C 0.96795 0.46969 0.63794 0.0
O437 O 0.94261 0.483 0.62574 0.0
O438 O 0.73213 0.38481 0.62015 0.0
H439 H 0.85226 0.32184 0.5985 0.0
H440 H 0.78442 0.39088 0.68568 0.0
H441 H 0.86416 0.28654 0.56914 0.0
Zn442 Zn 0.39078 0.0926 0.37442 0.0
C443 C 0.33991 0.21781 0.391 0.0
N444 N 0.37783 0.23304 0.38752 0.0
C445 C 0.39959 0.19327 0.38449 0.0
N446 N 0.37664 0.15506 0.38616 0.0
N447 N 0.33903 0.17024 0.39059 0.0
C448 C 0.22491 0.12143 0.38337 0.0
O449 O 0.24998 0.09817 0.37291 0.0
O450 O 0.4557 0.08434 0.37525 0.0
Zn451 Zn 0.30367 0.13334 0.40293 0.0
N452 N 0.36983 0.09428 0.35079 0.0
C453 C 0.31527 0.12376 0.33317 0.0
C454 C 0.33199 0.11563 0.34911 0.0
C455 C 0.39138 0.07941 0.33686 0.0
N456 N 0.33688 0.10982 0.31938 0.0
C457 C 0.37444 0.08763 0.32065 0.0
O458 O 0.31077 0.06142 0.39814 0.0
C459 C 0.33161 0.02747 0.39082 0.0
O460 O 0.36219 0.03522 0.38205 0.0
H461 H 0.31526 0.12722 0.36017 0.0
H462 H 0.42157 0.06269 0.33843 0.0
C463 C 0.29859 0.13906 0.43979 0.0
C464 C 0.31468 0.15118 0.45697 0.0
C465 C 0.37276 0.19042 0.44796 0.0
C466 C 0.35713 0.17793 0.43106 0.0
N467 N 0.32038 0.15261 0.4272 0.0
N468 N 0.35142 0.17661 0.46044 0.0
H469 H 0.27004 0.11793 0.43639 0.0
C470 C 0.47786 0.07442 0.3883 0.0
O471 O 0.45878 0.06965 0.40199 0.0
O472 O 0.24111 0.14336 0.39753 0.0
H473 H 0.37488 0.18775 0.42114 0.0
H474 H 0.28543 0.14124 0.33176 0.0
H475 H 0.40199 0.21043 0.45115 0.0
Zn476 Zn 0.69117 0.6131 0.11433 0.0
C477 C 0.63905 0.72039 0.1422 0.0
N478 N 0.66186 0.74465 0.13278 0.0
C479 C 0.68493 0.71127 0.1245 0.0
N480 N 0.67688 0.66893 0.12863 0.0
N481 N 0.64877 0.67409 0.14008 0.0
C482 C 0.56704 0.57759 0.13942 0.0
O483 O 0.5876 0.57683 0.12578 0.0
O484 O 0.75373 0.60588 0.11431 0.0
Zn485 Zn 0.64189 0.6266 0.15496 0.0
N486 N 0.66603 0.61702 0.09157 0.0
C487 C 0.60229 0.62053 0.07402 0.0
C488 C 0.62318 0.61695 0.08979 0.0
C489 C 0.68916 0.62139 0.07819 0.0
N490 N 0.62514 0.62449 0.06065 0.0
C491 C 0.66818 0.62511 0.0621 0.0
O492 O 0.67879 0.56892 0.14976 0.0
C493 C 0.68191 0.54155 0.13576 0.0
O494 O 0.66997 0.5543 0.12156 0.0
H495 H 0.60544 0.61469 0.10062 0.0
H496 H 0.72319 0.62288 0.0803 0.0
C497 C 0.64834 0.63069 0.19131 0.0
C498 C 0.66064 0.65004 0.20836 0.0
C499 C 0.69056 0.71588 0.1986 0.0
C500 C 0.67915 0.69605 0.18178 0.0
N501 N 0.65775 0.65423 0.17845 0.0
N502 N 0.68114 0.69251 0.21143 0.0
H503 H 0.63136 0.59746 0.1882 0.0
C504 C 0.7743 0.60432 0.12857 0.0
O505 O 0.7547 0.61269 0.14258 0.0
O506 O 0.58309 0.59963 0.1535 0.0
H507 H 0.68761 0.71383 0.1715 0.0
H508 H 0.56815 0.62048 0.07242 0.0
H509 H 0.70724 0.74935 0.20144 0.0
Zn510 Zn 0.2016 0.9222 0.89329 0.0
C511 C 0.08949 0.9794 0.88692 0.0
N512 N 0.07597 0.94041 0.89234 0.0
C513 C 0.1103 0.91328 0.89189 0.0
N514 N 0.14338 0.93472 0.88641 0.0
N515 N 0.13008 0.976 0.88297 0.0
C516 C 0.14877 0.09618 0.89367 0.0
O517 O 0.15326 0.06478 0.90402 0.0
O518 O 0.21043 0.85281 0.89279 0.0
Zn519 Zn 0.15854 1.01478 0.86933 0.0
N520 N 0.21202 0.95473 0.91654 0.0
C521 C 0.22931 0.0286 0.93353 0.0
C522 C 0.22282 1.00086 0.91765 0.0
C523 C 0.20774 0.93484 0.93084 0.0
N524 N 0.22516 1.00901 0.94776 0.0
C525 C 0.21472 0.96277 0.94706 0.0
O526 O 0.22323 1.01049 0.87002 0.0
C527 C 0.25355 0.98346 0.87327 0.0
O528 O 0.24766 0.94715 0.88025 0.0
H529 H 0.22584 1.01615 0.90622 0.0
H530 H 0.19842 0.89821 0.92951 0.0
C531 C 0.14503 1.01939 0.8327 0.0
C532 C 0.12984 1.00139 0.81576 0.0
C533 C 0.09801 0.93709 0.82582 0.0
C534 C 0.11362 0.95451 0.84238 0.0
N535 N 0.13639 0.9955 0.84563 0.0
N536 N 0.10657 0.96068 0.81299 0.0
H537 H 0.1645 0.05095 0.8356 0.0
C538 C 0.21365 0.8265 0.87864 0.0
O539 O 0.20904 0.84489 0.86448 0.0
O540 O 0.14696 0.08256 0.87766 0.0
H541 H 0.10767 0.93508 0.85255 0.0
H542 H 0.23761 0.06547 0.93456 0.0
H543 H 0.07964 0.90469 0.82313 0.0
H544 H 0.05849 0.3585 0.10772 0.0
H545 H 0.9038 0.21836 0.15585 0.0
H546 H 0.08021 0.33383 0.15968 0.0
H547 H 0.92536 0.18473 0.10277 0.0
H548 H 0.9427 0.29278 0.15732 0.0
H549 H 0.98597 0.32815 0.10689 0.0
C550 C 0.04718 0.34898 0.11924 0.0
C551 C 0.07502 0.34856 0.13381 0.0
C552 C 0.93717 0.27017 0.14516 0.0
C553 C 0.99286 0.31322 0.13285 0.0
C554 C 0.91457 0.22802 0.14425 0.0
C555 C 0.91154 0.19566 0.12916 0.0
C556 C 0.95666 0.27973 0.13084 0.0
C557 C 0.92692 0.20905 0.1146 0.0
C558 C 1.006 0.33135 0.11871 0.0
C559 C 0.05942 0.33487 0.14827 0.0
N560 N 0.94963 0.24979 0.11586 0.0
N561 N 0.01945 0.31694 0.14736 0.0
H562 H 0.97512 0.87716 0.4168 0.0
H563 H 0.0735 0.70603 0.35375 0.0
H564 H 0.9068 0.83524 0.36789 0.0
H565 H 0.08362 0.68299 0.40608 0.0
H566 H 1.00585 0.74442 0.35816 0.0
H567 H 1.00771 0.79987 0.4145 0.0
C568 C 0.96526 0.85068 0.40601 0.0
C569 C 0.93808 0.8623 0.39258 0.0
C570 C 0.02188 0.7292 0.36851 0.0
C571 C 0.97717 0.77511 0.3893 0.0
C572 C 0.06032 0.70695 0.36593 0.0
C573 C 0.08379 0.69111 0.37953 0.0
C574 C 1.00802 0.73747 0.38502 0.0
C575 C 0.06607 0.69439 0.39523 0.0
C576 C 0.98417 0.80668 0.40458 0.0
C577 C 0.9273 0.82731 0.3786 0.0
N578 N 0.02992 0.71867 0.39774 0.0
N579 N 0.94804 0.78585 0.377 0.0
H580 H 0.42905 0.66167 0.60802 0.0
H581 H 0.60276 0.83671 0.65375 0.0
H582 H 0.44269 0.70581 0.66229 0.0
H583 H 0.57523 0.81046 0.59931 0.0
H584 H 0.53161 0.808 0.6572 0.0
H585 H 0.46696 0.73316 0.60417 0.0
C586 C 0.43815 0.68769 0.61905 0.0
C587 C 0.43308 0.67805 0.63548 0.0
C588 C 0.54046 0.80999 0.64448 0.0
C589 C 0.47833 0.7584 0.63137 0.0
C590 C 0.58096 0.82681 0.64257 0.0
C591 C 0.59454 0.82567 0.62625 0.0
C592 C 0.51415 0.79079 0.62992 0.0
C593 C 0.56563 0.81172 0.61211 0.0
C594 C 0.46034 0.72827 0.61692 0.0
C595 C 0.44619 0.71223 0.64941 0.0
N596 N 0.52714 0.79378 0.61424 0.0
N597 N 0.46923 0.75029 0.6471 0.0
H598 H 0.43731 0.3629 0.85913 0.0
H599 H 0.61401 0.2358 0.83708 0.0
H600 H 0.38616 0.23234 0.86948 0.0
H601 H 0.57746 0.16904 0.87859 0.0
H602 H 0.54121 0.26302 0.8327 0.0
H603 H 0.4993 0.32132 0.84888 0.0
C604 C 0.43845 0.32553 0.8588 0.0
C605 C 0.4071 0.30167 0.86567 0.0
C606 C 0.54887 0.24084 0.84233 0.0
C607 C 0.47763 0.25346 0.85397 0.0
C608 C 0.59009 0.22484 0.84469 0.0
C609 C 0.60108 0.19826 0.85774 0.0
C610 C 0.51879 0.23018 0.85319 0.0
C611 C 0.56956 0.1865 0.86769 0.0
C612 C 0.47378 0.30154 0.85283 0.0
C613 C 0.41012 0.25265 0.86475 0.0
N614 N 0.52985 0.20264 0.86525 0.0
N615 N 0.44532 0.23044 0.85953 0.0
H616 H 0.95662 0.69134 0.90796 0.0
H617 H 0.11209 0.84557 0.8645 0.0
H618 H 0.93246 0.72905 0.85782 0.0
H619 H 0.0915 0.86728 0.91784 0.0
H620 H 0.07011 0.77238 0.86071 0.0
H621 H 0.02846 0.72435 0.90949 0.0
C622 C 0.96728 0.70425 0.8969 0.0
C623 C 0.93889 0.70725 0.88268 0.0
C624 C 0.07643 0.79206 0.87338 0.0
C625 C 0.02038 0.74582 0.88448 0.0
C626 C 0.1009 0.83344 0.87561 0.0
C627 C 0.1053 0.86228 0.89153 0.0
C628 C 0.0568 0.77937 0.88724 0.0
C629 C 0.08903 0.84577 0.90541 0.0
C630 C 1.00806 0.72354 0.89786 0.0
C631 C 0.95368 0.72567 0.86891 0.0
N632 N 0.0649 0.80575 0.90291 0.0
N633 N 0.99328 0.74493 0.87023 0.0
H634 H 0.15735 0.29201 0.65828 0.0
H635 H 0.96092 0.36668 0.63277 0.0
H636 H 0.0834 0.16352 0.64953 0.0
H637 H 0.91335 0.2864 0.66881 0.0
H638 H 0.03261 0.34299 0.64097 0.0
H639 H 0.09331 0.33614 0.66428 0.0
C640 C 0.12795 0.27281 0.65833 0.0
C641 C 0.12561 0.22385 0.65332 0.0
C642 C 1.00669 0.33227 0.64765 0.0
C643 C 0.05265 0.27417 0.66017 0.0
C644 C 0.96591 0.34666 0.64321 0.0
C645 C 0.93155 0.33046 0.65074 0.0
C646 C 1.01264 0.29959 0.65904 0.0
C647 C 0.93932 0.30054 0.66303 0.0
C648 C 0.09153 0.29812 0.66166 0.0
C649 C 0.0868 0.20086 0.65363 0.0
N650 N 0.97892 0.28494 0.66646 0.0
N651 N 0.05155 0.22634 0.65673 0.0
H652 H 0.45865 0.19212 0.41066 0.0
H653 H 0.61313 0.33347 0.36252 0.0
H654 H 0.44343 0.2037 0.35725 0.0
H655 H 0.57633 0.37907 0.41311 0.0
H656 H 0.57924 0.2568 0.36263 0.0
H657 H 0.52868 0.22995 0.41264 0.0
C658 C 0.47113 0.20029 0.39915 0.0
C659 C 0.44556 0.1949 0.38376 0.0
C660 C 0.58042 0.28278 0.37402 0.0
C661 C 0.52485 0.23852 0.38598 0.0
C662 C 0.60019 0.32627 0.37406 0.0
C663 C 0.59744 0.36235 0.38785 0.0
C664 C 0.55818 0.27552 0.38794 0.0
C665 C 0.5793 0.35189 0.4023 0.0
C666 C 0.51082 0.22223 0.40034 0.0
C667 C 0.46247 0.20711 0.3693 0.0
N668 N 0.5596 0.3096 0.40188 0.0
N669 N 0.5009 0.2291 0.37081 0.0
H670 H 0.43824 0.88433 0.13345 0.0
H671 H 0.56711 0.68146 0.15186 0.0
H672 H 0.39476 0.80841 0.17154 0.0
H673 H 0.63303 0.81341 0.15363 0.0
H674 H 0.50357 0.72435 0.15969 0.0
H675 H 0.51035 0.86011 0.14054 0.0
C676 C 0.44432 0.86515 0.14406 0.0
C677 C 0.41095 0.85037 0.15251 0.0
C678 C 0.53246 0.7438 0.15893 0.0
C679 C 0.49233 0.81831 0.15941 0.0
C680 C 0.56887 0.71919 0.15463 0.0
C681 C 0.60535 0.74362 0.15199 0.0
C682 C 0.53252 0.79297 0.16006 0.0
C683 C 0.60531 0.79302 0.15525 0.0
C684 C 0.48529 0.85031 0.14783 0.0
C685 C 0.41996 0.82137 0.16501 0.0
N686 N 0.5691 0.8161 0.15859 0.0
N687 N 0.45965 0.8052 0.16779 0.0
H688 H 0.25136 0.03671 0.10064 0.0
H689 H 0.25625 0.31157 0.1376 0.0
H690 H 0.33875 0.09861 0.14246 0.0
H691 H 0.1677 0.24465 0.09731 0.0
H692 H 0.29563 0.23785 0.13636 0.0
H693 H 0.22832 0.11509 0.09651 0.0
C694 C 0.26601 0.06675 0.10892 0.0
C695 C 0.29689 0.06061 0.12205 0.0
C696 C 0.26827 0.23967 0.12745 0.0
C697 C 0.27019 0.15148 0.11737 0.0
C698 C 0.24626 0.28208 0.12795 0.0
C699 C 0.20895 0.28439 0.11738 0.0
C700 C 0.25271 0.19937 0.11633 0.0
C701 C 0.19655 0.24452 0.10556 0.0
C702 C 0.2528 0.11175 0.10652 0.0
C703 C 0.31474 0.10136 0.13222 0.0
N704 N 0.21797 0.20371 0.10549 0.0
N705 N 0.30087 0.14489 0.12979 0.0
H706 H 0.99627 0.96918 0.35081 0.0
H707 H 0.16242 0.1515 0.40427 0.0
H708 H 0.97275 0.05284 0.3985 0.0
H709 H 0.18151 0.07544 0.35456 0.0
H710 H 0.08785 0.12734 0.39999 0.0
H711 H 0.05813 1.01908 0.34921 0.0
C712 C 1.00317 0.99941 0.36055 0.0
C713 C 0.97891 1.00785 0.37455 0.0
C714 C 0.1082 0.11658 0.38989 0.0
C715 C 0.0507 0.06355 0.37339 0.0
C716 C 0.15082 0.13044 0.39233 0.0
C717 C 0.1785 0.11478 0.37989 0.0
C718 C 0.09321 0.08657 0.37496 0.0
C719 C 0.16155 0.08776 0.36464 0.0
C720 C 0.03871 0.02761 0.35977 0.0
C721 C 0.98991 0.04627 0.38721 0.0
N722 N 0.12025 0.07395 0.36272 0.0
N723 N 0.02537 0.07228 0.38647 0.0
H724 H 0.31507 0.75131 0.60964 0.0
H725 H 0.22174 0.97705 0.66522 0.0
H726 H 0.29889 0.75926 0.6633 0.0
H727 H 0.22514 0.95822 0.61049 0.0
H728 H 0.25374 0.89973 0.66542 0.0
H729 H 0.2869 0.83014 0.61042 0.0
C730 C 0.30577 0.7697 0.62161 0.0
C731 C 0.3091 0.74846 0.6364 0.0
C732 C 0.24736 0.91262 0.65339 0.0
C733 C 0.27655 0.83892 0.63738 0.0
C734 C 0.22904 0.9567 0.65326 0.0
C735 C 0.22044 0.97416 0.63781 0.0
C736 C 0.25739 0.88602 0.63798 0.0
C737 C 0.23082 0.94626 0.62272 0.0
C738 C 0.28955 0.81474 0.62205 0.0
C739 C 0.2967 0.77418 0.65157 0.0
N740 N 0.24872 0.90378 0.6232 0.0
N741 N 0.28084 0.818 0.65167 0.0
H742 H 0.49774 0.12272 0.88913 0.0
H743 H 0.32068 0.9259 0.86592 0.0
H744 H 0.5161 1.00465 0.85046 0.0
H745 H 0.2874 0.07198 0.87467 0.0
H746 H 0.39426 0.94974 0.86354 0.0
H747 H 0.4223 0.10145 0.8875 0.0
C748 C 0.48578 0.09247 0.88022 0.0
C749 C 0.51316 0.06556 0.86985 0.0
C750 C 0.3707 0.97648 0.86582 0.0
C751 C 0.4271 0.04007 0.86833 0.0
C752 C 0.32874 0.96294 0.86722 0.0
C753 C 0.29762 0.99695 0.87041 0.0
C754 C 0.38207 0.0244 0.86817 0.0
C755 C 0.31011 0.04449 0.87205 0.0
C756 C 0.44276 0.0804 0.87927 0.0
C757 C 0.49598 0.02658 0.85856 0.0
N758 N 0.35134 0.05678 0.87119 0.0
N759 N 0.45423 1.0145 0.8583 0.0
H760 H 0.35753 0.94366 0.37289 0.0
H761 H 0.19593 0.78443 0.41361 0.0
H762 H 0.27523 0.99696 0.41153 0.0
H763 H 0.26268 0.73009 0.37021 0.0
H764 H 0.23505 0.85885 0.41612 0.0
H765 H 0.33205 0.86352 0.37419 0.0
C766 C 0.33442 0.93868 0.38176 0.0
C767 C 0.31854 0.97773 0.39207 0.0
C768 C 0.24211 0.83044 0.40627 0.0
C769 C 0.28925 0.88525 0.39367 0.0
C770 C 0.22027 0.78744 0.40504 0.0
C771 C 0.22677 0.75024 0.39198 0.0
C772 C 0.2705 0.83718 0.39415 0.0
C773 C 0.2575 0.75719 0.38079 0.0
C774 C 0.31982 0.89273 0.38246 0.0
C775 C 0.28845 0.96845 0.40324 0.0
N776 N 0.27783 0.79984 0.382 0.0
N777 N 0.2749 0.92359 0.40371 0.0
H778 H 0.53083 0.95895 0.6517 0.0
H779 H 0.34152 0.06988 0.59933 0.0
H780 H 0.53509 0.97948 0.59923 0.0
H781 H 0.34593 0.06346 0.65329 0.0
H782 H 0.41205 0.03635 0.59873 0.0
H783 H 0.46166 0.99491 0.65205 0.0
C784 C 0.51713 0.97086 0.64021 0.0
C785 C 0.53881 0.9664 0.62542 0.0
C786 C 0.39763 0.04257 0.61071 0.0
C787 C 0.45968 1.00787 0.62577 0.0
C788 C 0.35747 0.06183 0.61107 0.0
C789 C 0.3378 0.06926 0.62637 0.0
C790 C 0.41804 0.03051 0.62573 0.0
C791 C 0.35986 0.05825 0.6412 0.0
C792 C 0.47769 0.99158 0.64045 0.0
C793 C 0.51948 0.98232 0.61091 0.0
N794 N 0.39869 0.03915 0.64048 0.0
N795 N 0.48096 1.00245 0.61145 0.0
H796 H 0.18491 0.134 0.92513 0.0
H797 H 0.25112 0.35289 0.88476 0.0
H798 H 0.13281 0.1722 0.87743 0.0
H799 H 0.32854 0.29186 0.92229 0.0
H800 H 0.18992 0.31025 0.89142 0.0
H801 H 0.21807 0.21198 0.93251 0.0
C802 C 0.17926 0.15927 0.91644 0.0
C803 C 0.15726 0.1462 0.90037 0.0
C804 C 0.21982 0.30768 0.89878 0.0
C805 C 0.19493 0.23518 0.9088 0.0
C806 C 0.2546 0.33304 0.89526 0.0
C807 C 0.29453 0.32682 0.90331 0.0
C808 C 0.22551 0.27463 0.90999 0.0
C809 C 0.29803 0.2977 0.91591 0.0
C810 C 0.19828 0.20374 0.92068 0.0
C811 C 0.1505 0.1805 0.88974 0.0
N812 N 0.26404 0.27179 0.91864 0.0
N813 N 0.17 0.22319 0.894 0.0
H814 H 0.1295 0.90233 0.11061 0.0
H815 H 0.98421 0.07961 0.16577 0.0
H816 H 0.16763 0.97625 0.16084 0.0
H817 H 0.93947 1.00014 0.11739 0.0
H818 H 0.04711 0.03115 0.1662 0.0
H819 H 0.05657 0.92745 0.11436 0.0
C820 C 0.12248 0.92309 0.12253 0.0
C821 C 0.15497 0.93765 0.13533 0.0
C822 C 0.02311 1.02322 0.15567 0.0
C823 C 0.0716 0.96675 0.13969 0.0
C824 C 0.98688 0.05054 0.15558 0.0
C825 C 0.95624 0.04315 0.14173 0.0
C826 C 0.02947 0.98906 0.14153 0.0
C827 C 0.96188 1.00608 0.12853 0.0
C828 C 0.08082 0.93753 0.12466 0.0
C829 C 0.14387 0.96462 0.1505 0.0
N830 N 0.99816 0.98095 0.12859 0.0
N831 N 0.10343 0.9786 0.15216 0.0
H832 H 0.75565 0.7349 0.87873 0.0
H833 H 0.6646 0.95241 0.87084 0.0
H834 H 0.84338 0.81321 0.91673 0.0
H835 H 0.7634 1.01075 0.90863 0.0
H836 H 0.686 0.87376 0.87518 0.0
H837 H 0.7137 0.80549 0.87786 0.0
C838 C 0.76498 0.76648 0.88748 0.0
C839 C 0.80279 0.76792 0.89798 0.0
C840 C 0.70309 0.90336 0.88266 0.0
C841 C 0.75612 0.8505 0.89651 0.0
C842 C 0.69069 0.94875 0.88016 0.0
C843 C 0.71234 0.98874 0.88925 0.0
C844 C 0.73773 0.89749 0.89434 0.0
C845 C 0.74576 0.98131 0.90121 0.0
C846 C 0.74145 0.80751 0.88674 0.0
C847 C 0.81423 0.81039 0.90855 0.0
N848 N 0.75747 0.9369 0.90327 0.0
N849 N 0.79146 0.84985 0.90738 0.0
H850 H 0.03337 0.05637 0.66622 0.0
H851 H 0.87532 0.87338 0.60636 0.0
H852 H 0.05379 0.99667 0.61451 0.0
H853 H 0.84878 0.94055 0.65653 0.0
H854 H 0.94567 0.9097 0.61088 0.0
H855 H 0.96918 1.00783 0.66424 0.0
C856 C 0.02431 0.03317 0.65445 0.0
C857 C 0.04877 0.03079 0.64047 0.0
C858 C 0.92462 0.91609 0.62098 0.0
C859 C 0.97583 0.97487 0.63818 0.0
C860 C 0.88453 0.89508 0.61845 0.0
C861 C 0.8559 0.90457 0.63098 0.0
C862 C 0.93607 0.94686 0.63612 0.0
C863 C 0.86967 0.93274 0.64644 0.0
C864 C 0.98781 1.00531 0.65335 0.0
C865 C 0.03574 0.99989 0.62557 0.0
N866 N 0.90862 0.95341 0.64849 0.0
N867 N 1.00014 0.97322 0.62482 0.0
H868 H 0.75683 0.32544 0.41098 0.0
H869 H 0.8824 0.14107 0.35191 0.0
H870 H 0.76063 0.32634 0.35692 0.0
H871 H 0.89234 0.15483 0.40686 0.0
H872 H 0.8487 0.21726 0.35378 0.0
H873 H 0.8135 0.26891 0.40999 0.0
C874 C 0.76943 0.3135 0.39887 0.0
C875 C 0.75362 0.33001 0.38395 0.0
C876 C 0.85909 0.2041 0.36545 0.0
C877 C 0.8189 0.26576 0.38276 0.0
C878 C 0.87861 0.16071 0.36439 0.0
C879 C 0.88862 0.1409 0.37924 0.0
C880 C 0.84943 0.22729 0.38144 0.0
C881 C 0.88387 0.16823 0.39507 0.0
C882 C 0.80219 0.28166 0.39835 0.0
C883 C 0.77162 0.31402 0.36868 0.0
N884 N 0.86356 0.20961 0.39574 0.0
N885 N 0.80311 0.28238 0.36844 0.0
H886 H 0.68997 0.09558 0.11403 0.0
H887 H 0.51488 0.95978 0.15713 0.0
H888 H 0.72223 1.00835 0.1526 0.0
H889 H 0.48703 0.03984 0.11606 0.0
H890 H 0.59051 0.97752 0.15629 0.0
H891 H 0.61544 0.07615 0.11521 0.0
C892 C 0.68152 0.07229 0.12276 0.0
C893 C 0.71286 0.05367 0.13322 0.0
C894 C 0.56778 0.99118 0.14747 0.0
C895 C 0.62666 0.03114 0.13467 0.0
C896 C 0.52453 0.98108 0.14796 0.0
C897 C 0.49423 0.99831 0.13667 0.0
C898 C 0.58098 1.01892 0.13565 0.0
C899 C 0.50892 0.02565 0.12503 0.0
C900 C 0.63875 0.06115 0.12342 0.0
C901 C 0.69944 0.02362 0.14426 0.0
N902 N 0.55092 0.03509 0.12487 0.0
N903 N 0.65754 1.0134 0.14471 0.0
H904 H 0.75616 0.29018 0.64328 0.0
H905 H 0.7636 1.02142 0.59903 0.0
H906 H 0.83267 0.24081 0.60234 0.0
H907 H 0.68716 0.06819 0.64048 0.0
H908 H 0.7817 0.10331 0.59764 0.0
H909 H 0.72123 0.21244 0.63939 0.0
C910 C 0.76394 0.26385 0.63283 0.0
C911 C 0.79654 0.27268 0.62278 0.0
C912 C 0.76073 0.0958 0.60698 0.0
C913 C 0.75847 0.18246 0.61886 0.0
C914 C 0.75043 0.04881 0.60782 0.0
C915 C 0.72398 0.03739 0.61999 0.0
C916 C 0.7447 0.13221 0.61841 0.0
C917 C 0.70785 0.07493 0.63094 0.0
C918 C 0.74466 0.21903 0.63085 0.0
C919 C 0.80678 0.23627 0.61001 0.0
N920 N 0.71865 0.12039 0.62997 0.0
N921 N 0.78834 0.19285 0.60857 0.0
H922 H 0.7397 0.04375 0.36179 0.0
H923 H 0.53211 0.047 0.41336 0.0
H924 H 0.73564 0.99628 0.41054 0.0
H925 H 0.5303 0.08495 0.36291 0.0
H926 H 0.60762 0.03279 0.41292 0.0
H927 H 0.66471 0.06354 0.3624 0.0
C928 C 0.72328 0.03777 0.37269 0.0
C929 C 0.74441 1.0182 0.38613 0.0
C930 C 0.59087 0.04428 0.40192 0.0
C931 C 0.65807 0.04074 0.38686 0.0
C932 C 0.54754 0.0525 0.40216 0.0
C933 C 0.52442 0.06704 0.38811 0.0
C934 C 0.61185 0.05068 0.38754 0.0
C935 C 0.54661 0.07355 0.37402 0.0
C936 C 0.68031 0.04897 0.37299 0.0
C937 C 0.72104 1.01121 0.39985 0.0
N938 N 0.58895 0.06529 0.37408 0.0
N939 N 0.67941 1.02234 0.39983 0.0
H940 H 0.87673 0.88923 0.14651 0.0
H941 H 0.69075 0.75324 0.09632 0.0
H942 H 0.83035 0.91567 0.0964 0.0
H943 H 0.76475 0.70125 0.13699 0.0
H944 H 0.75199 0.79959 0.09132 0.0
H945 H 0.84966 0.80873 0.13923 0.0
C946 C 0.86177 0.87776 0.13383 0.0
C947 C 0.85415 0.90964 0.12231 0.0
C948 C 0.75557 0.77641 0.10084 0.0
C949 C 0.82227 0.81806 0.114 0.0
C950 C 0.72061 0.74985 0.10361 0.0
C951 C 0.72317 0.72319 0.11693 0.0
C952 C 0.79242 0.77757 0.11202 0.0
C953 C 0.76207 0.72043 0.12629 0.0
C954 C 0.84634 0.83169 0.12963 0.0
C955 C 0.8356 0.89262 0.1059 0.0
N956 N 0.79495 0.74831 0.12397 0.0
N957 N 0.81907 0.84835 0.10241 0.0
H958 H 0.06479 0.04611 0.91164 0.0
H959 H 0.85446 0.08849 0.85496 0.0
H960 H 0.0447 0.99679 0.85781 0.0
H961 H 0.87593 0.1458 0.90826 0.0
H962 H 0.92815 0.06531 0.85492 0.0
H963 H 1.00133 0.09376 0.90985 0.0
C964 C 0.04788 0.04685 0.8993 0.0
C965 C 0.06059 1.01844 0.88477 0.0
C966 C 0.91706 0.0835 0.8666 0.0
C967 C 0.98671 0.07103 0.8827 0.0
C968 C 0.87484 0.0968 0.86664 0.0
C969 C 0.85873 0.11876 0.88169 0.0
C970 C 0.94361 0.0916 0.88178 0.0
C971 C 0.88688 0.12887 0.89637 0.0
C972 C 1.01137 0.07362 0.89831 0.0
C973 C 0.03676 1.01922 0.86921 0.0
N974 N 0.92774 0.1146 0.89611 0.0
N975 N 1.00072 0.04457 0.86863 0.0
H976 H 0.85988 0.57939 0.64175 0.0
H977 H 0.69331 0.72394 0.59012 0.0
H978 H 0.77412 0.5183 0.59923 0.0
H979 H 0.77356 0.78898 0.63355 0.0
H980 H 0.73273 0.65142 0.59023 0.0
H981 H 0.83741 0.65789 0.63661 0.0
C982 C 0.83669 0.58235 0.63123 0.0
C983 C 0.81866 0.54179 0.62103 0.0
C984 C 0.74259 0.68173 0.59952 0.0
C985 C 0.79286 0.63196 0.61503 0.0
C986 C 0.72043 0.72345 0.59928 0.0
C987 C 0.73051 0.76273 0.61169 0.0
C988 C 0.77469 0.67865 0.61253 0.0
C989 C 0.7653 0.75978 0.62354 0.0
C990 C 0.82387 0.62729 0.62831 0.0
C991 C 0.78875 0.54821 0.60757 0.0
N992 N 0.78565 0.71818 0.62388 0.0
N993 N 0.77673 0.59214 0.60507 0.0
H994 H 0.67823 0.60059 0.85659 0.0
H995 H 0.48593 0.5249 0.9057 0.0
H996 H 0.66394 0.64881 0.90982 0.0
H997 H 0.4979 0.479 0.85215 0.0
H998 H 0.54861 0.57481 0.9069 0.0
H999 H 0.60875 0.5624 0.85396 0.0
C1000 C 0.66018 0.60387 0.86767 0.0
C1001 C 0.67719 0.62739 0.88351 0.0
C1002 C 0.53752 0.55393 0.89487 0.0
C1003 C 0.59792 0.58311 0.88064 0.0
C1004 C 0.50183 0.52517 0.89419 0.0
C1005 C 0.4868 0.49748 0.87881 0.0
C1006 C 0.55853 0.55495 0.88008 0.0
C1007 C 0.50854 0.49957 0.86429 0.0
C1008 C 0.62058 0.58181 0.86617 0.0
C1009 C 0.65224 0.63074 0.89738 0.0
N1010 N 0.54341 0.52772 0.8653 0.0
N1011 N 0.61409 0.60829 0.89567 0.0
H1012 H 0.70251 0.48047 0.10817 0.0
H1013 H 0.78489 0.27956 0.16129 0.0
H1014 H 0.70607 0.49623 0.16307 0.0
H1015 H 0.78924 0.27192 0.10689 0.0
H1016 H 0.75745 0.35918 0.16258 0.0
H1017 H 0.73491 0.40419 0.10782 0.0
C1018 C 0.70993 0.46784 0.12019 0.0
C1019 C 0.70117 0.49479 0.13568 0.0
C1020 C 0.76462 0.34013 0.15038 0.0
C1021 C 0.73872 0.40694 0.13535 0.0
C1022 C 0.78031 0.29468 0.14963 0.0
C1023 C 0.78909 0.26885 0.13393 0.0
C1024 C 0.75754 0.35984 0.13532 0.0
C1025 C 0.78272 0.29034 0.11926 0.0
C1026 C 0.72867 0.4242 0.11997 0.0
C1027 C 0.71205 0.47658 0.15083 0.0
N1028 N 0.76714 0.3344 0.12031 0.0
N1029 N 0.73012 0.43366 0.15028 0.0
H1030 H 0.78067 0.54478 0.35774 0.0
H1031 H 1.01014 0.54535 0.40854 0.0
H1032 H 0.80506 0.49593 0.4062 0.0
H1033 H 0.99214 0.57887 0.35745 0.0
H1034 H 0.93427 0.53209 0.40826 0.0
H1035 H 0.85647 0.5624 0.35781 0.0
C1036 C 0.80177 0.53802 0.36845 0.0
C1037 C 0.78607 0.51874 0.38199 0.0
C1038 C 0.94672 0.54234 0.39707 0.0
C1039 C 0.87327 0.53886 0.38211 0.0
C1040 C 0.99027 0.55002 0.39722 0.0
C1041 C 1.00794 0.56309 0.38296 0.0
C1042 C 0.91998 0.5479 0.38258 0.0
C1043 C 0.98014 0.56859 0.36872 0.0
C1044 C 0.84516 0.54796 0.36844 0.0
C1045 C 0.81532 0.51066 0.39545 0.0
N1046 N 0.93765 0.56099 0.36889 0.0
N1047 N 0.85718 0.5207 0.39515 0.0
H1048 H 0.84901 0.46381 0.86832 0.0
H1049 H 0.69994 0.28485 0.90528 0.0
H1050 H 0.76873 0.50549 0.90892 0.0
H1051 H 0.77638 0.24293 0.86366 0.0
H1052 H 0.734 0.36259 0.91001 0.0
H1053 H 0.83011 0.38155 0.86886 0.0
C1054 C 0.82751 0.45583 0.87741 0.0
C1055 C 0.8103 0.4922 0.88852 0.0
C1056 C 0.74443 0.33608 0.90016 0.0
C1057 C 0.78856 0.39708 0.88924 0.0
C1058 C 0.72565 0.29109 0.89774 0.0
C1059 C 0.73628 0.2565 0.88442 0.0
C1060 C 0.77367 0.34724 0.88897 0.0
C1061 C 0.76813 0.26791 0.87441 0.0
C1062 C 0.8168 0.40861 0.87773 0.0
C1063 C 0.78273 0.47905 0.90003 0.0
N1064 N 0.78521 0.31231 0.87672 0.0
N1065 N 0.77264 0.43285 0.90003 0.0
H1066 H 0.82434 0.58941 0.1567 0.0
H1067 H 0.01742 0.49236 0.104 0.0
H1068 H 0.82418 0.58224 0.10212 0.0
H1069 H 1.01127 0.48781 0.15771 0.0
H1070 H 0.94771 0.52766 0.10309 0.0
H1071 H 0.8947 0.55619 0.15746 0.0
C1072 C 0.83925 0.58122 0.14488 0.0
C1073 C 0.81832 0.58846 0.12931 0.0
C1074 C 0.96159 0.51883 0.11506 0.0
C1075 C 0.89876 0.55001 0.13007 0.0
C1076 C 1.00133 0.4986 0.11558 0.0
C1077 C 0.02021 0.48729 0.13097 0.0
C1078 C 0.94067 0.52793 0.13005 0.0
C1079 C 0.99792 0.49605 0.14558 0.0
C1080 C 0.87937 0.56201 0.14531 0.0
C1081 C 0.83916 0.57713 0.1144 0.0
N1082 N 0.95938 0.51601 0.14477 0.0
N1083 N 0.87823 0.5583 0.11515 0.0
H1084 H 0.77842 0.8277 0.41452 0.0
H1085 H 0.61725 0.65504 0.35673 0.0
H1086 H 0.74257 0.83578 0.36154 0.0
H1087 H 0.6467 0.65351 0.41055 0.0
H1088 H 0.64621 0.73465 0.36016 0.0
H1089 H 0.71811 0.7756 0.41488 0.0
C1090 C 0.75795 0.81825 0.40292 0.0
C1091 C 0.76606 0.83498 0.38783 0.0
C1092 C 0.6454 0.71739 0.37131 0.0
C1093 C 0.69668 0.77586 0.38822 0.0
C1094 C 0.62867 0.67197 0.36937 0.0
C1095 C 0.63173 0.64698 0.38323 0.0
C1096 C 0.66556 0.73718 0.38714 0.0
C1097 C 0.6454 0.67099 0.39939 0.0
C1098 C 0.72314 0.78906 0.4032 0.0
C1099 C 0.73788 0.8228 0.37334 0.0
N1100 N 0.66312 0.71443 0.40084 0.0
N1101 N 0.7047 0.79337 0.37382 0.0
H1102 H 0.64881 0.3862 0.61237 0.0
H1103 H 0.50957 0.56123 0.67148 0.0
H1104 H 0.69232 0.45862 0.66224 0.0
H1105 H 0.45954 0.48389 0.62345 0.0
H1106 H 0.57276 0.51328 0.6702 0.0
H1107 H 0.57659 0.41161 0.61756 0.0
C1108 C 0.64315 0.40671 0.62451 0.0
C1109 C 0.67693 0.4207 0.6368 0.0
C1110 C 0.54761 0.50574 0.66011 0.0
C1111 C 0.59433 0.45011 0.64281 0.0
C1112 C 0.51123 0.53278 0.66098 0.0
C1113 C 0.47894 0.52593 0.64774 0.0
C1114 C 0.55244 0.47229 0.6456 0.0
C1115 C 0.48323 0.48948 0.63415 0.0
C1116 C 0.60188 0.42132 0.62745 0.0
C1117 C 0.66754 0.4474 0.65228 0.0
N1118 N 0.51965 0.4646 0.63326 0.0
N1119 N 0.62744 0.4615 0.65474 0.0
H1120 H 0.34331 0.28846 0.41769 0.0
H1121 H 0.16931 0.44118 0.37214 0.0
H1122 H 0.26399 0.23045 0.37301 0.0
H1123 H 0.26077 0.4982 0.41318 0.0
H1124 H 0.19556 0.36203 0.37449 0.0
H1125 H 0.30429 0.36176 0.41902 0.0
C1126 C 0.3164 0.29044 0.40856 0.0
C1127 C 0.30636 0.25255 0.39549 0.0
C1128 C 0.20964 0.39181 0.38308 0.0
C1129 C 0.26244 0.33817 0.39634 0.0
C1130 C 0.19458 0.43723 0.38177 0.0
C1131 C 0.21276 0.47707 0.39243 0.0
C1132 C 0.2431 0.38562 0.39523 0.0
C1133 C 0.24564 0.46906 0.4046 0.0
C1134 C 0.29453 0.33278 0.40913 0.0
C1135 C 0.27212 0.25809 0.38361 0.0
N1136 N 0.25964 0.42468 0.4056 0.0
N1137 N 0.25179 0.30014 0.38419 0.0
H1138 H 0.34956 0.3973 0.10599 0.0
H1139 H 0.51772 0.56871 0.16543 0.0
H1140 H 0.33555 0.45065 0.15886 0.0
H1141 H 0.52785 0.52138 0.11183 0.0
H1142 H 0.45452 0.51916 0.16405 0.0
H1143 H 0.41987 0.43369 0.10896 0.0
C1144 C 0.36157 0.41589 0.11831 0.0
C1145 C 0.3364 0.42162 0.13213 0.0
C1146 C 0.47064 0.51954 0.1526 0.0
C1147 C 0.41645 0.46395 0.13554 0.0
C1148 C 0.50658 0.54801 0.15336 0.0
C1149 C 0.52788 0.54942 0.13869 0.0
C1150 C 0.45592 0.49231 0.13707 0.0
C1151 C 0.51224 0.52162 0.12343 0.0
C1152 C 0.4016 0.43696 0.11997 0.0
C1153 C 0.35366 0.44587 0.14781 0.0
N1154 N 0.47714 0.49428 0.12301 0.0
N1155 N 0.39243 0.46668 0.14903 0.0
H1156 H 0.22737 0.76156 0.85076 0.0
H1157 H 0.31391 0.56964 0.90727 0.0
H1158 H 0.22905 0.77845 0.90562 0.0
H1159 H 0.30681 0.54639 0.85224 0.0
H1160 H 0.28123 0.64548 0.90656 0.0
H1161 H 0.25396 0.68194 0.8507 0.0
C1162 C 0.23302 0.74845 0.86279 0.0
C1163 C 0.22625 0.77692 0.87824 0.0
C1164 C 0.28675 0.6239 0.89461 0.0
C1165 C 0.25692 0.68589 0.87825 0.0
C1166 C 0.30565 0.58052 0.89499 0.0
C1167 C 0.31354 0.55161 0.87978 0.0
C1168 C 0.27566 0.63895 0.8789 0.0
C1169 C 0.30155 0.56759 0.86429 0.0
C1170 C 0.24828 0.70299 0.86274 0.0
C1171 C 0.23402 0.75795 0.89341 0.0
N1172 N 0.28337 0.61031 0.86425 0.0
N1173 N 0.24915 0.71381 0.89303 0.0
H1174 H 0.03396 0.4405 0.65886 0.0
H1175 H 0.21213 0.57757 0.61767 0.0
H1176 H 1.00857 0.52223 0.61811 0.0
H1177 H 0.24247 0.48855 0.65582 0.0
H1178 H 0.13731 0.5586 0.61842 0.0
H1179 H 0.10988 0.45831 0.65872 0.0
C1180 C 0.04419 0.46223 0.64993 0.0
C1181 C 0.01447 0.47984 0.63849 0.0
C1182 C 0.16025 0.54312 0.62665 0.0
C1183 C 0.1016 0.50055 0.63828 0.0
C1184 C 0.2032 0.55402 0.62622 0.0
C1185 C 0.23412 0.53474 0.63668 0.0
C1186 C 0.14751 0.51269 0.63764 0.0
C1187 C 0.22005 0.50436 0.64749 0.0
C1188 C 0.08762 0.47235 0.64983 0.0
C1189 C 0.02995 0.5077 0.62717 0.0
N1190 N 0.17799 0.49437 0.6477 0.0
N1191 N 0.07207 0.51714 0.62739 0.0
H1192 H 0.30799 0.76323 0.10499 0.0
H1193 H 0.16703 0.589 0.14745 0.0
H1194 H 0.23671 0.80922 0.1479 0.0
H1195 H 0.2414 0.54441 0.10514 0.0
H1196 H 0.18424 0.67088 0.14548 0.0
H1197 H 0.27363 0.68602 0.10166 0.0
C1198 C 0.2832 0.75802 0.11311 0.0
C1199 C 0.27423 0.79356 0.12639 0.0
C1200 C 0.1966 0.64324 0.13655 0.0
C1201 C 0.23678 0.70334 0.12348 0.0
C1202 C 0.1869 0.59626 0.1377 0.0
C1203 C 0.203 0.55925 0.12654 0.0
C1204 C 0.22268 0.65379 0.12414 0.0
C1205 C 0.22838 0.57141 0.11412 0.0
C1206 C 0.26432 0.71329 0.11148 0.0
C1207 C 0.24365 0.78343 0.13716 0.0
N1208 N 0.23753 0.61737 0.11333 0.0
N1209 N 0.22657 0.73919 0.13566 0.0
H1210 H 0.19174 0.46683 0.91602 0.0
H1211 H 1.00556 0.57041 0.85963 0.0
H1212 H 0.19091 0.46587 0.86171 0.0
H1213 H 0.9979 0.55588 0.9125 0.0
H1214 H 0.0752 0.53538 0.86063 0.0
H1215 H 0.12149 0.50109 0.91533 0.0
C1216 C 0.17666 0.4735 0.90394 0.0
C1217 C 0.19719 0.46357 0.8889 0.0
C1218 C 0.05832 0.53986 0.87202 0.0
C1219 C 0.11721 0.50314 0.88805 0.0
C1220 C 0.01861 0.56005 0.87148 0.0
C1221 C 0.99583 0.56586 0.88599 0.0
C1222 C 0.07546 0.5255 0.88719 0.0
C1223 C 0.01434 0.5519 0.901 0.0
C1224 C 0.13663 0.49314 0.90356 0.0
C1225 C 0.17623 0.4729 0.8736 0.0
N1226 N 0.0531 0.53226 0.90121 0.0
N1227 N 0.13747 0.49239 0.87359 0.0
H1228 H 0.34723 0.40045 0.5974 0.0
H1229 H 0.28492 0.17976 0.6372 0.0
H1230 H 0.39604 0.3661 0.64615 0.0
H1231 H 0.20961 0.23713 0.59812 0.0
H1232 H 0.34594 0.2246 0.63149 0.0
H1233 H 0.31908 0.32041 0.58955 0.0
C1234 C 0.35311 0.37574 0.60629 0.0
C1235 C 0.37244 0.39041 0.62275 0.0
C1236 C 0.31664 0.22586 0.62361 0.0
C1237 C 0.34049 0.29902 0.61376 0.0
C1238 C 0.282 0.19946 0.62663 0.0
C1239 C 0.24263 0.20413 0.61785 0.0
C1240 C 0.31126 0.25827 0.61214 0.0
C1241 C 0.23969 0.23256 0.60505 0.0
C1242 C 0.33705 0.33004 0.60175 0.0
C1243 C 0.38012 0.35662 0.63354 0.0
N1244 N 0.27344 0.25944 0.60279 0.0
N1245 N 0.36323 0.31268 0.629 0.0
H1246 H 0.51504 0.46731 0.34655 0.0
H1247 H 0.37444 0.6473 0.40249 0.0
H1248 H 0.5614 0.55008 0.39408 0.0
H1249 H 0.33094 0.56994 0.35338 0.0
H1250 H 0.44669 0.62313 0.39737 0.0
H1251 H 0.45167 0.51544 0.34623 0.0
C1252 C 0.51262 0.497 0.35653 0.0
C1253 C 0.54398 0.50579 0.37007 0.0
C1254 C 0.42141 0.61204 0.3876 0.0
C1255 C 0.47077 0.55949 0.37036 0.0
C1256 C 0.38013 0.62593 0.39052 0.0
C1257 C 0.34642 0.61001 0.37848 0.0
C1258 C 0.429 0.58185 0.37257 0.0
C1259 C 0.35579 0.58251 0.36316 0.0
C1260 C 0.47628 0.52418 0.35648 0.0
C1261 C 0.53874 0.54345 0.38306 0.0
N1262 N 0.39599 0.56883 0.36076 0.0
N1263 N 0.50257 0.56849 0.38303 0.0
H1264 H 0.36871 0.4667 0.98888 0.0
H1265 H 0.17973 0.3391 0.02538 0.0
H1266 H 0.27108 0.38353 0.95686 0.0
H1267 H 0.26546 0.44043 0.05646 0.0
H1268 H 0.2146 0.35227 1.00034 0.0
H1269 H 0.33294 0.45484 0.01391 0.0
C1270 C 0.33958 0.44616 0.98709 0.0
C1271 C 0.32273 0.42649 0.9707 0.0
C1272 C 0.22586 0.37147 0.01266 0.0
C1273 C 0.28174 0.41239 0.99939 0.0
C1274 C 0.20598 0.36397 0.02703 0.0
C1275 C 0.21975 0.3882 0.04324 0.0
C1276 C 0.25992 0.40347 0.01441 0.0
C1277 C 0.25407 0.41993 0.04443 0.0
C1278 C 0.31915 0.43947 1.00141 0.0
C1279 C 0.28487 0.40019 0.96919 0.0
N1280 N 0.27292 0.42656 0.03022 0.0
N1281 N 0.26578 0.39374 0.98336 0.0
H1282 H 0.83345 0.1169 0.23199 0.0
H1283 H 0.88876 0.90328 0.28297 0.0
H1284 H 0.88266 0.9858 0.20836 0.0
H1285 H 0.83346 0.03294 0.30478 0.0
H1286 H 0.88566 0.93146 0.25545 0.0
H1287 H 0.83206 0.08519 0.25854 0.0
C1288 C 0.84381 0.08125 0.23235 0.0
C1289 C 0.8582 0.05403 0.21787 0.0
C1290 C 0.87433 0.95373 0.26628 0.0
C1291 C 0.85686 1.01738 0.24846 0.0
C1292 C 0.87606 0.9377 0.28203 0.0
C1293 C 0.86206 0.966 0.2964 0.0
C1294 C 0.8583 0.99836 0.26482 0.0
C1295 C 0.84581 1.01023 0.29431 0.0
C1296 C 0.84293 0.06313 0.24756 0.0
C1297 C 0.87085 1.00793 0.21911 0.0
N1298 N 0.84449 0.02498 0.27886 0.0
N1299 N 0.87015 0.99114 0.2342 0.0
H1300 H 0.31877 0.6609 0.56167 0.0
H1301 H 0.27659 0.5821 0.46065 0.0
H1302 H 0.34706 0.52316 0.5358 0.0
H1303 H 0.25002 0.72007 0.48673 0.0
H1304 H 0.30546 0.56075 0.48783 0.0
H1305 H 0.29408 0.68331 0.53423 0.0
C1306 C 0.31925 0.63506 0.55032 0.0
C1307 C 0.33467 0.58978 0.55117 0.0
C1308 C 0.29362 0.59583 0.48756 0.0
C1309 C 0.30731 0.61577 0.51954 0.0
C1310 C 0.27754 0.60824 0.47198 0.0
C1311 C 0.26088 0.65307 0.47134 0.0
C1312 C 0.29294 0.6284 0.5026 0.0
C1313 C 0.26221 0.68499 0.48659 0.0
C1314 C 0.30556 0.64811 0.53458 0.0
C1315 C 0.33553 0.55847 0.53583 0.0
N1316 N 0.2777 0.672 0.50156 0.0
N1317 N 0.32206 0.57201 0.5207 0.0
H1318 H 0.66151 0.87546 0.71933 0.0
H1319 H 0.65307 0.11396 0.78143 0.0
H1320 H 0.64882 1.00947 0.7016 0.0
H1321 H 0.63638 0.97947 0.79769 0.0
H1322 H 0.64087 0.07673 0.75176 0.0
H1323 H 0.6429 0.91191 0.74738 0.0
C1324 C 0.65415 0.91247 0.72128 0.0
C1325 C 0.65707 0.9395 0.70812 0.0
C1326 C 0.63876 0.05538 0.76176 0.0
C1327 C 0.63626 0.98173 0.74035 0.0
C1328 C 0.64551 0.0767 0.7787 0.0
C1329 C 0.64568 0.04966 0.79195 0.0
C1330 C 0.63332 1.00639 0.75802 0.0
C1331 C 0.63616 1.00152 0.78781 0.0
C1332 C 0.64335 0.93324 0.7373 0.0
C1333 C 0.64682 0.98719 0.71132 0.0
N1334 N 0.63126 0.98119 0.77116 0.0
N1335 N 0.63762 1.00695 0.7272 0.0
H1336 H 0.85156 0.64064 0.98782 0.0
H1337 H 0.63578 0.65612 0.03303 0.0
H1338 H 0.73124 0.66861 0.96232 0.0
H1339 H 0.75185 0.60535 0.05549 0.0
H1340 H 0.6708 0.66337 1.00751 0.0
H1341 H 0.81607 0.63017 0.01305 0.0
C1342 C 0.81761 0.6444 0.98748 0.0
C1343 C 0.79441 0.65529 0.97282 0.0
C1344 C 0.68861 0.65072 0.01804 0.0
C1345 C 0.75351 0.64357 1.00185 0.0
C1346 C 0.66864 0.64651 0.03271 0.0
C1347 C 0.69071 0.63045 0.04673 0.0
C1348 C 0.7312 0.63895 0.01723 0.0
C1349 C 0.73338 0.61882 0.04535 0.0
C1350 C 0.79737 0.63828 1.00191 0.0
C1351 C 0.75046 0.65951 0.97316 0.0
N1352 N 0.75215 0.6234 0.0309 0.0
N1353 N 0.7315 0.65389 0.98747 0.0
H1354 H 0.16173 0.04568 0.71251 0.0
H1355 H 0.14966 0.09495 0.81386 0.0
H1356 H 0.18219 0.18322 0.74245 0.0
H1357 H 0.13028 0.95864 0.7829 0.0
H1358 H 0.16191 0.12843 0.78814 0.0
H1359 H 0.14887 1.01411 0.73832 0.0
C1360 C 0.16285 0.06958 0.7244 0.0
C1361 C 0.17254 0.11756 0.72513 0.0
C1362 C 0.15509 0.09116 0.78704 0.0
C1363 C 0.15883 0.08094 0.75505 0.0
C1364 C 0.14843 0.07186 0.80177 0.0
C1365 C 0.13912 0.02363 0.80068 0.0
C1366 C 0.1524 0.06213 0.77109 0.0
C1367 C 0.13707 0.996 0.78447 0.0
C1368 C 0.15593 0.05129 0.73925 0.0
C1369 C 0.17484 0.14604 0.7412 0.0
N1370 N 0.14363 1.01557 0.77041 0.0
N1371 N 0.16805 0.12736 0.75548 0.0
H1372 H 0.77178 0.30667 0.52891 0.0
H1373 H 0.67135 0.51656 0.48443 0.0
H1374 H 0.74804 0.44345 0.55665 0.0
H1375 H 0.70247 0.38192 0.4569 0.0
H1376 H 0.69614 0.4896 0.51109 0.0
H1377 H 0.74271 0.33267 0.50272 0.0
C1378 C 0.76011 0.34212 0.52956 0.0
C1379 C 0.76239 0.37276 0.54513 0.0
C1380 C 0.6977 0.46603 0.49921 0.0
C1381 C 0.72914 0.40302 0.51492 0.0
C1382 C 0.68353 0.48136 0.48393 0.0
C1383 C 0.68519 0.4518 0.46825 0.0
C1384 C 0.71348 0.42054 0.49892 0.0
C1385 C 0.70133 0.40655 0.46852 0.0
C1386 C 0.74354 0.35695 0.51454 0.0
C1387 C 0.74648 0.41821 0.54508 0.0
N1388 N 0.71476 0.39238 0.48359 0.0
N1389 N 0.73076 0.432 0.5302 0.0
H1390 H 0.40672 1.00117 0.3095 0.0
H1391 H 0.39977 0.05766 0.214 0.0
H1392 H 0.38585 0.1383 0.29525 0.0
H1393 H 0.37775 0.92052 0.22732 0.0
H1394 H 0.42064 0.08707 0.24417 0.0
H1395 H 0.42193 0.97164 0.28006 0.0
C1396 C 0.4068 0.02538 0.30033 0.0
C1397 C 0.39472 0.0721 0.30472 0.0
C1398 C 0.41241 0.05021 0.2404 0.0
C1399 C 0.41157 0.03868 0.27113 0.0
C1400 C 0.40092 0.0334 0.22318 0.0
C1401 C 0.38691 0.98673 0.21827 0.0
C1402 C 0.41 1.01999 0.25265 0.0
C1403 C 0.38821 0.95683 0.23068 0.0
C1404 C 0.41512 1.00849 0.28351 0.0
C1405 C 0.3947 0.1019 0.2923 0.0
N1406 N 0.39901 0.97405 0.24732 0.0
N1407 N 0.40246 0.08461 0.27603 0.0
H1408 H 0.91196 0.94964 0.48684 0.0
H1409 H 0.69535 0.87848 0.52178 0.0
H1410 H 0.79049 0.94084 0.45779 0.0
H1411 H 0.815 0.8873 0.55217 0.0
H1412 H 0.73058 0.9019 0.49839 0.0
H1413 H 0.87774 0.92815 0.51109 0.0
C1414 C 0.87817 0.94307 0.48551 0.0
C1415 C 0.85433 0.94627 0.47007 0.0
C1416 C 0.74921 0.89893 0.51018 0.0
C1417 C 0.81497 0.92182 0.49784 0.0
C1418 C 0.72909 0.88537 0.52359 0.0
C1419 C 0.75204 0.88103 0.5391 0.0
C1420 C 0.79286 0.90815 0.51213 0.0
C1421 C 0.79572 0.89086 0.54061 0.0
C1422 C 0.8587 0.93074 0.49937 0.0
C1423 C 0.81059 0.93754 0.46917 0.0
N1424 N 0.81472 0.90386 0.52727 0.0
N1425 N 0.79245 0.9257 0.48282 0.0
H1426 H 0.37625 0.58091 0.73835 0.0
H1427 H 0.36523 0.34118 0.77685 0.0
H1428 H 0.39079 0.44518 0.70794 0.0
H1429 H 0.36654 0.47964 0.80663 0.0
H1430 H 0.37422 0.37722 0.75137 0.0
H1431 H 0.37217 0.5429 0.76325 0.0
C1432 C 0.37865 0.54303 0.73681 0.0
C1433 C 0.38367 0.51649 0.72079 0.0
C1434 C 0.37298 0.39958 0.76353 0.0
C1435 C 0.37873 0.47232 0.74967 0.0
C1436 C 0.36782 0.37909 0.77809 0.0
C1437 C 0.36561 0.40726 0.79402 0.0
C1438 C 0.37547 0.44868 0.76486 0.0
C1439 C 0.36904 0.45619 0.79481 0.0
C1440 C 0.37625 0.5213 0.75115 0.0
C1441 C 0.3862 0.46738 0.71983 0.0
N1442 N 0.37359 0.47521 0.78045 0.0
N1443 N 0.38362 0.44689 0.73408 0.0
H1444 H 0.7536 0.14161 0.05522 0.0
H1445 H 0.80103 0.1498 0.95828 0.0
H1446 H 0.8707 0.09761 0.0343 0.0
H1447 H 0.68148 0.18678 0.97851 0.0
H1448 H 0.82813 0.13362 0.98633 0.0
H1449 H 0.72821 0.16312 0.02766 0.0
C1450 C 0.77428 0.13711 0.04497 0.0
C1451 C 0.81449 0.11783 0.04718 0.0
C1452 C 0.79593 0.14521 0.98459 0.0
C1453 C 0.7852 0.1416 0.01543 0.0
C1454 C 0.78021 0.15409 0.96847 0.0
C1455 C 0.73855 0.1692 0.96581 0.0
C1456 C 0.76995 0.15159 0.9982 0.0
C1457 C 0.7138 0.17529 0.97983 0.0
C1458 C 0.75958 0.14902 0.02915 0.0
C1459 C 0.83936 0.11199 0.03321 0.0
N1460 N 0.7298 0.1664 0.99535 0.0
N1461 N 0.82432 0.12369 0.01797 0.0
H1462 H 0.1223 0.62057 0.29027 0.0
H1463 H 0.14923 0.38894 0.22564 0.0
H1464 H 0.12753 0.48306 0.30533 0.0
H1465 H 0.12471 0.52377 0.20982 0.0
H1466 H 0.13022 0.42043 0.25415 0.0
H1467 H 0.11053 0.58437 0.26046 0.0
C1468 C 0.11955 0.58264 0.28728 0.0
C1469 C 0.12582 0.5547 0.30023 0.0
C1470 C 0.12821 0.44298 0.2444 0.0
C1471 C 0.11407 0.51284 0.26608 0.0
C1472 C 0.1392 0.42505 0.2281 0.0
C1473 C 0.13894 0.45383 0.21533 0.0
C1474 C 0.11757 0.49044 0.24813 0.0
C1475 C 0.12527 0.50019 0.21921 0.0
C1476 C 0.11313 0.56194 0.27025 0.0
C1477 C 0.12245 0.50579 0.29572 0.0
N1478 N 0.11584 0.51726 0.23535 0.0
N1479 N 0.11769 0.48635 0.27897 0.0
H1480 H 0.14041 0.12304 0.53283 0.0
H1481 H 0.35296 0.12989 0.48654 0.0
H1482 H 0.26224 0.08601 0.55496 0.0
H1483 H 0.22936 0.14096 0.46078 0.0
H1484 H 0.32002 0.11398 0.51172 0.0
H1485 H 0.17214 0.13001 0.50653 0.0
C1486 C 0.17381 0.11633 0.53229 0.0
C1487 C 0.19847 0.10453 0.54651 0.0
C1488 C 0.30002 0.11944 0.50053 0.0
C1489 C 0.23514 0.11271 0.51609 0.0
C1490 C 0.3188 0.12863 0.48613 0.0
C1491 C 0.29394 0.13677 0.47148 0.0
C1492 C 0.25587 0.11896 0.50047 0.0
C1493 C 0.24983 0.1344 0.47169 0.0
C1494 C 0.19187 0.12032 0.51716 0.0
C1495 C 0.24164 0.09629 0.54474 0.0
N1496 N 0.2322 0.12614 0.48602 0.0
N1497 N 0.25851 0.10079 0.52988 0.0
H1498 H 0.6497 0.68941 0.24104 0.0
H1499 H 0.64946 0.44449 0.27688 0.0
H1500 H 0.65585 0.55446 0.20935 0.0
H1501 H 0.62756 0.57783 0.30759 0.0
H1502 H 0.65243 0.48445 0.25215 0.0
H1503 H 0.64229 0.64939 0.26563 0.0
C1504 C 0.64918 0.65135 0.2392 0.0
C1505 C 0.65302 0.62541 0.223 0.0
C1506 C 0.64706 0.50497 0.26431 0.0
C1507 C 0.64491 0.57926 0.25123 0.0
C1508 C 0.64533 0.48216 0.27852 0.0
C1509 C 0.63883 0.5076 0.29458 0.0
C1510 C 0.64229 0.55381 0.26605 0.0
C1511 C 0.63373 0.55648 0.29572 0.0
C1512 C 0.64489 0.62854 0.25327 0.0
C1513 C 0.65214 0.57613 0.22144 0.0
N1514 N 0.63569 0.5779 0.28167 0.0
N1515 N 0.6484 0.55474 0.23538 0.0
H1516 H 0.23571 0.95142 0.05497 0.0
H1517 H 0.22686 0.87178 0.95406 0.0
H1518 H 0.26215 0.81108 0.03107 0.0
H1519 H 0.19807 1.01161 0.97781 0.0
H1520 H 0.23092 0.84632 0.98203 0.0
H1521 H 0.21261 0.97134 0.02691 0.0
C1522 C 0.23577 0.92441 0.04393 0.0
C1523 C 0.25113 0.87946 0.04546 0.0
C1524 C 0.2232 0.88246 0.98108 0.0
C1525 C 0.22557 0.90247 0.01316 0.0
C1526 C 0.22053 0.89701 0.96503 0.0
C1527 C 0.21222 0.94411 0.96345 0.0
C1528 C 0.21774 0.91518 0.99572 0.0
C1529 C 0.20509 0.9751 0.97834 0.0
C1530 C 0.22291 0.93597 0.02784 0.0
C1531 C 0.25106 0.84635 0.03054 0.0
N1532 N 0.20835 0.96023 0.99381 0.0
N1533 N 0.23894 0.85861 0.01506 0.0
H1534 H 0.89524 0.5488 0.71072 0.0
H1535 H 0.89049 0.52114 0.8091 0.0
H1536 H 0.88518 0.41634 0.72922 0.0
H1537 H 0.8685 0.65122 0.7893 0.0
H1538 H 0.90885 0.48461 0.78092 0.0
H1539 H 0.9064 0.58847 0.74036 0.0
C1540 C 0.89691 0.52795 0.721 0.0
C1541 C 0.88916 0.47934 0.71759 0.0
C1542 C 0.90071 0.52139 0.78284 0.0
C1543 C 0.90104 0.52425 0.75137 0.0
C1544 C 0.8905 0.54239 0.79897 0.0
C1545 C 0.87759 0.58929 0.80156 0.0
C1546 C 0.89814 0.54746 0.76921 0.0
C1547 C 0.8777 0.61478 0.78783 0.0
C1548 C 0.90279 0.55058 0.7379 0.0
C1549 C 0.89086 0.45398 0.73136 0.0
N1550 N 0.88739 0.59348 0.77224 0.0
N1551 N 0.89614 0.47673 0.74763 0.0
loop_
_geom_bond_atom_site_label_1
_geom_bond_atom_site_label_2
_geom_bond_distance
_geom_bond_site_symmetry_2
_ccdc_geom_bond_type
Zn0 N4 2.020 . S
Zn0 O8 2.019 . S
Zn0 N10 2.119 . S
Zn0 O18 1.975 . S
C1 N2 1.334 . S
C1 N5 1.336 . S
N2 C1 1.334 . S
N2 C3 1.334 . S
C3 N2 1.334 . S
C3 N4 1.336 . S
N4 Zn0 2.020 . S
N4 C3 1.336 . S
N4 N5 1.354 . S
N5 C1 1.336 . S
N5 N4 1.354 . S
N5 Zn9 2.020 . S
C6 O7 1.244 . S
C6 O30 1.257 . S
O7 C6 1.244 . S
O8 Zn0 2.019 . S
O8 C28 1.257 . S
Zn9 N5 2.020 . S
Zn9 O16 1.975 . S
Zn9 N25 2.119 . S
Zn9 O30 2.019 . S
N10 Zn0 2.119 . S
N10 C12 1.334 . S
N10 C13 1.328 . S
C11 C12 1.391 . S
C11 N14 1.329 . S
C11 H32 0.930 . S
C12 N10 1.334 . S
C12 C11 1.391 . S
C12 H19 0.930 . S
C13 N10 1.328 . S
C13 C15 1.392 . S
C13 H20 0.930 . S
N14 C11 1.329 . S
N14 C15 1.331 . S
C15 C13 1.392 . S
C15 N14 1.331 . S
O16 Zn9 1.975 . S
O16 C17 1.252 . S
C17 O16 1.252 . S
C17 O18 1.252 . S
O18 Zn0 1.975 . S
O18 C17 1.252 . S
H19 C12 0.930 . S
H20 C13 0.930 . S
C21 C22 1.392 . S
C21 N25 1.328 . S
C21 H27 0.930 . S
C22 C21 1.392 . S
C22 N26 1.331 . S
C23 C24 1.391 . S
C23 N26 1.329 . S
C23 H33 0.930 . S
C24 C23 1.391 . S
C24 N25 1.334 . S
C24 H31 0.930 . S
N25 Zn9 2.119 . S
N25 C21 1.328 . S
N25 C24 1.334 . S
N26 C22 1.331 . S
N26 C23 1.329 . S
H27 C21 0.930 . S
C28 O8 1.257 . S
C28 O29 1.244 . S
O29 C28 1.244 . S
O30 C6 1.257 . S
O30 Zn9 2.019 . S
H31 C24 0.930 . S
H32 C11 0.930 . S
H33 C23 0.930 . S
Zn34 N38 2.020 . S
Zn34 O42 2.019 1_565 S
Zn34 N44 2.119 . S
Zn34 O52 1.975 . S
C35 N36 1.334 . S
C35 N39 1.336 . S
N36 C35 1.334 . S
N36 C37 1.334 . S
C37 N36 1.334 . S
C37 N38 1.336 . S
N38 Zn34 2.020 . S
N38 C37 1.336 . S
N38 N39 1.354 . S
N39 C35 1.336 . S
N39 N38 1.354 . S
N39 Zn43 2.020 . S
C40 O41 1.244 . S
C40 O64 1.257 . S
O41 C40 1.244 . S
O42 Zn34 2.019 1_545 S
O42 C62 1.257 . S
Zn43 N39 2.020 . S
Zn43 O50 1.975 . S
Zn43 N59 2.119 . S
Zn43 O64 2.019 . S
N44 Zn34 2.119 . S
N44 C46 1.334 . S
N44 C47 1.328 . S
C45 C46 1.391 . S
C45 N48 1.329 . S
C45 H66 0.930 . S
C46 N44 1.334 . S
C46 C45 1.391 . S
C46 H53 0.930 . S
C47 N44 1.328 . S
C47 C49 1.392 . S
C47 H54 0.930 1_565 S
N48 C45 1.329 . S
N48 C49 1.331 . S
C49 C47 1.392 . S
C49 N48 1.331 . S
O50 Zn43 1.975 . S
O50 C51 1.252 . S
C51 O50 1.252 . S
C51 O52 1.252 . S
O52 Zn34 1.975 . S
O52 C51 1.252 . S
H53 C46 0.930 . S
H54 C47 0.930 1_545 S
C55 C56 1.392 . S
C55 N59 1.328 . S
C55 H61 0.930 . S
C56 C55 1.392 . S
C56 N60 1.331 . S
C57 C58 1.391 . S
C57 N60 1.329 . S
C57 H67 0.930 1_565 S
C58 C57 1.391 . S
C58 N59 1.334 . S
C58 H65 0.930 . S
N59 Zn43 2.119 . S
N59 C55 1.328 . S
N59 C58 1.334 . S
N60 C56 1.331 . S
N60 C57 1.329 . S
H61 C55 0.930 . S
C62 O42 1.257 . S
C62 O63 1.244 . S
O63 C62 1.244 . S
O64 C40 1.257 . S
O64 Zn43 2.019 . S
H65 C58 0.930 . S
H66 C45 0.930 . S
H67 C57 0.930 1_545 S
Zn68 N72 2.020 . S
Zn68 O76 2.019 . S
Zn68 N78 2.119 . S
Zn68 O86 1.975 . S
C69 N70 1.334 . S
C69 N73 1.336 . S
N70 C69 1.334 . S
N70 C71 1.334 . S
C71 N70 1.334 . S
C71 N72 1.336 . S
N72 Zn68 2.020 . S
N72 C71 1.336 . S
N72 N73 1.354 . S
N73 C69 1.336 . S
N73 N72 1.354 . S
N73 Zn77 2.020 . S
C74 O75 1.244 . S
C74 O98 1.257 . S
O75 C74 1.244 . S
O76 Zn68 2.019 . S
O76 C96 1.257 . S
Zn77 N73 2.020 . S
Zn77 O84 1.975 . S
Zn77 N93 2.119 . S
Zn77 O98 2.019 . S
N78 Zn68 2.119 . S
N78 C80 1.334 . S
N78 C81 1.328 . S
C79 C80 1.391 . S
C79 N82 1.329 . S
C79 H100 0.930 . S
C80 N78 1.334 . S
C80 C79 1.391 . S
C80 H87 0.930 . S
C81 N78 1.328 . S
C81 C83 1.392 . S
C81 H88 0.930 . S
N82 C79 1.329 . S
N82 C83 1.331 . S
C83 C81 1.392 . S
C83 N82 1.331 . S
O84 Zn77 1.975 . S
O84 C85 1.252 . S
C85 O84 1.252 . S
C85 O86 1.252 . S
O86 Zn68 1.975 . S
O86 C85 1.252 . S
H87 C80 0.930 . S
H88 C81 0.930 . S
C89 C90 1.392 . S
C89 N93 1.328 . S
C89 H95 0.930 . S
C90 C89 1.392 . S
C90 N94 1.331 . S
C91 C92 1.391 . S
C91 N94 1.329 . S
C91 H101 0.930 . S
C92 C91 1.391 . S
C92 N93 1.334 . S
C92 H99 0.930 . S
N93 Zn77 2.119 . S
N93 C89 1.328 . S
N93 C92 1.334 . S
N94 C90 1.331 . S
N94 C91 1.329 . S
H95 C89 0.930 . S
C96 O76 1.257 . S
C96 O97 1.244 . S
O97 C96 1.244 . S
O98 C74 1.257 . S
O98 Zn77 2.019 . S
H99 C92 0.930 . S
H100 C79 0.930 . S
H101 C91 0.930 . S
Zn102 N106 2.020 . S
Zn102 O110 2.019 . S
Zn102 N112 2.119 . S
Zn102 O120 1.975 . S
C103 N104 1.334 . S
C103 N107 1.336 . S
N104 C103 1.334 . S
N104 C105 1.334 . S
C105 N104 1.334 . S
C105 N106 1.336 . S
N106 Zn102 2.020 . S
N106 C105 1.336 . S
N106 N107 1.354 . S
N107 C103 1.336 . S
N107 N106 1.354 . S
N107 Zn111 2.020 . S
C108 O109 1.244 . S
C108 O132 1.257 . S
O109 C108 1.244 . S
O110 Zn102 2.019 . S
O110 C130 1.257 . S
Zn111 N107 2.020 . S
Zn111 O118 1.975 . S
Zn111 N127 2.119 . S
Zn111 O132 2.019 . S
N112 Zn102 2.119 . S
N112 C114 1.334 . S
N112 C115 1.328 . S
C113 C114 1.391 . S
C113 N116 1.329 . S
C113 H134 0.930 . S
C114 N112 1.334 . S
C114 C113 1.391 . S
C114 H121 0.930 . S
C115 N112 1.328 . S
C115 C117 1.392 . S
C115 H122 0.930 . S
N116 C113 1.329 . S
N116 C117 1.331 . S
C117 C115 1.392 . S
C117 N116 1.331 . S
O118 Zn111 1.975 . S
O118 C119 1.252 . S
C119 O118 1.252 . S
C119 O120 1.252 . S
O120 Zn102 1.975 . S
O120 C119 1.252 . S
H121 C114 0.930 . S
H122 C115 0.930 . S
C123 C124 1.392 . S
C123 N127 1.328 . S
C123 H129 0.930 . S
C124 C123 1.392 . S
C124 N128 1.331 . S
C125 C126 1.391 . S
C125 N128 1.329 . S
C125 H135 0.930 . S
C126 C125 1.391 . S
C126 N127 1.334 . S
C126 H133 0.930 . S
N127 Zn111 2.119 . S
N127 C123 1.328 . S
N127 C126 1.334 . S
N128 C124 1.331 . S
N128 C125 1.329 . S
H129 C123 0.930 . S
C130 O110 1.257 . S
C130 O131 1.244 . S
O131 C130 1.244 . S
O132 C108 1.257 . S
O132 Zn111 2.019 . S
H133 C126 0.930 . S
H134 C113 0.930 . S
H135 C125 0.930 . S
Zn136 N140 2.020 . S
Zn136 O144 2.019 . S
Zn136 N146 2.119 . S
Zn136 O154 1.975 . S
C137 N138 1.334 . S
C137 N141 1.336 . S
N138 C137 1.334 . S
N138 C139 1.334 . S
C139 N138 1.334 . S
C139 N140 1.336 . S
N140 Zn136 2.020 . S
N140 C139 1.336 . S
N140 N141 1.354 . S
N141 C137 1.336 . S
N141 N140 1.354 . S
N141 Zn145 2.020 . S
C142 O143 1.244 . S
C142 O166 1.257 . S
O143 C142 1.244 . S
O144 Zn136 2.019 . S
O144 C164 1.257 . S
Zn145 N141 2.020 . S
Zn145 O152 1.975 . S
Zn145 N161 2.119 . S
Zn145 O166 2.019 . S
N146 Zn136 2.119 . S
N146 C148 1.334 . S
N146 C149 1.328 . S
C147 C148 1.391 . S
C147 N150 1.329 . S
C147 H168 0.930 . S
C148 N146 1.334 . S
C148 C147 1.391 . S
C148 H155 0.930 . S
C149 N146 1.328 . S
C149 C151 1.392 . S
C149 H156 0.930 . S
N150 C147 1.329 . S
N150 C151 1.331 . S
C151 C149 1.392 . S
C151 N150 1.331 . S
O152 Zn145 1.975 . S
O152 C153 1.252 . S
C153 O152 1.252 . S
C153 O154 1.252 . S
O154 Zn136 1.975 . S
O154 C153 1.252 . S
H155 C148 0.930 . S
H156 C149 0.930 . S
C157 C158 1.392 . S
C157 N161 1.328 . S
C157 H163 0.930 . S
C158 C157 1.392 . S
C158 N162 1.331 . S
C159 C160 1.391 . S
C159 N162 1.329 . S
C159 H169 0.930 . S
C160 C159 1.391 . S
C160 N161 1.334 . S
C160 H167 0.930 . S
N161 Zn145 2.119 . S
N161 C157 1.328 . S
N161 C160 1.334 . S
N162 C158 1.331 . S
N162 C159 1.329 . S
H163 C157 0.930 . S
C164 O144 1.257 . S
C164 O165 1.244 . S
O165 C164 1.244 . S
O166 C142 1.257 . S
O166 Zn145 2.019 . S
H167 C160 0.930 . S
H168 C147 0.930 . S
H169 C159 0.930 . S
Zn170 N174 2.020 . S
Zn170 O178 2.019 . S
Zn170 N180 2.119 . S
Zn170 O188 1.975 . S
C171 N172 1.334 . S
C171 N175 1.336 . S
N172 C171 1.334 . S
N172 C173 1.334 . S
C173 N172 1.334 . S
C173 N174 1.336 . S
N174 Zn170 2.020 . S
N174 C173 1.336 . S
N174 N175 1.354 . S
N175 C171 1.336 . S
N175 N174 1.354 . S
N175 Zn179 2.020 . S
C176 O177 1.244 . S
C176 O200 1.257 . S
O177 C176 1.244 . S
O178 Zn170 2.019 . S
O178 C198 1.257 . S
Zn179 N175 2.020 . S
Zn179 O186 1.975 . S
Zn179 N195 2.119 . S
Zn179 O200 2.019 . S
N180 Zn170 2.119 . S
N180 C182 1.334 . S
N180 C183 1.328 . S
C181 C182 1.391 . S
C181 N184 1.329 . S
C181 H202 0.930 . S
C182 N180 1.334 . S
C182 C181 1.391 . S
C182 H189 0.930 . S
C183 N180 1.328 . S
C183 C185 1.392 . S
C183 H190 0.930 . S
N184 C181 1.329 . S
N184 C185 1.331 . S
C185 C183 1.392 . S
C185 N184 1.331 . S
O186 Zn179 1.975 . S
O186 C187 1.252 . S
C187 O186 1.252 . S
C187 O188 1.252 . S
O188 Zn170 1.975 . S
O188 C187 1.252 . S
H189 C182 0.930 . S
H190 C183 0.930 . S
C191 C192 1.392 . S
C191 N195 1.328 . S
C191 H197 0.930 . S
C192 C191 1.392 . S
C192 N196 1.331 . S
C193 C194 1.391 . S
C193 N196 1.329 . S
C193 H203 0.930 . S
C194 C193 1.391 . S
C194 N195 1.334 . S
C194 H201 0.930 . S
N195 Zn179 2.119 . S
N195 C191 1.328 . S
N195 C194 1.334 . S
N196 C192 1.331 . S
N196 C193 1.329 . S
H197 C191 0.930 . S
C198 O178 1.257 . S
C198 O199 1.244 . S
O199 C198 1.244 . S
O200 C176 1.257 . S
O200 Zn179 2.019 . S
H201 C194 0.930 . S
H202 C181 0.930 . S
H203 C193 0.930 . S
Zn204 N208 2.020 . S
Zn204 O212 2.019 . S
Zn204 N214 2.119 . S
Zn204 O222 1.975 . S
C205 N206 1.334 . S
C205 N209 1.336 . S
N206 C205 1.334 . S
N206 C207 1.334 . S
C207 N206 1.334 . S
C207 N208 1.336 . S
N208 Zn204 2.020 . S
N208 C207 1.336 . S
N208 N209 1.354 . S
N209 C205 1.336 . S
N209 N208 1.354 . S
N209 Zn213 2.020 . S
C210 O211 1.244 . S
C210 O234 1.257 . S
O211 C210 1.244 . S
O212 Zn204 2.019 . S
O212 C232 1.257 . S
Zn213 N209 2.020 . S
Zn213 O220 1.975 . S
Zn213 N229 2.119 . S
Zn213 O234 2.019 . S
N214 Zn204 2.119 . S
N214 C216 1.334 . S
N214 C217 1.328 . S
C215 C216 1.391 . S
C215 N218 1.329 . S
C215 H236 0.930 . S
C216 N214 1.334 . S
C216 C215 1.391 . S
C216 H223 0.930 . S
C217 N214 1.328 . S
C217 C219 1.392 . S
C217 H224 0.930 . S
N218 C215 1.329 . S
N218 C219 1.331 . S
C219 C217 1.392 . S
C219 N218 1.331 . S
O220 Zn213 1.975 . S
O220 C221 1.252 . S
C221 O220 1.252 . S
C221 O222 1.252 . S
O222 Zn204 1.975 . S
O222 C221 1.252 . S
H223 C216 0.930 . S
H224 C217 0.930 . S
C225 C226 1.392 . S
C225 N229 1.328 . S
C225 H231 0.930 . S
C226 C225 1.392 . S
C226 N230 1.331 . S
C227 C228 1.391 . S
C227 N230 1.329 . S
C227 H237 0.930 . S
C228 C227 1.391 . S
C228 N229 1.334 . S
C228 H235 0.930 . S
N229 Zn213 2.119 . S
N229 C225 1.328 . S
N229 C228 1.334 . S
N230 C226 1.331 . S
N230 C227 1.329 . S
H231 C225 0.930 . S
C232 O212 1.257 . S
C232 O233 1.244 . S
O233 C232 1.244 . S
O234 C210 1.257 . S
O234 Zn213 2.019 . S
H235 C228 0.930 . S
H236 C215 0.930 . S
H237 C227 0.930 . S
Zn238 N242 2.020 . S
Zn238 O246 2.019 . S
Zn238 N248 2.119 . S
Zn238 O256 1.975 . S
C239 N240 1.334 . S
C239 N243 1.336 . S
N240 C239 1.334 . S
N240 C241 1.334 . S
C241 N240 1.334 . S
C241 N242 1.336 . S
N242 Zn238 2.020 . S
N242 C241 1.336 . S
N242 N243 1.354 . S
N243 C239 1.336 . S
N243 N242 1.354 . S
N243 Zn247 2.020 . S
C244 O245 1.244 . S
C244 O268 1.257 . S
O245 C244 1.244 . S
O246 Zn238 2.019 . S
O246 C266 1.257 . S
Zn247 N243 2.020 . S
Zn247 O254 1.975 . S
Zn247 N263 2.119 . S
Zn247 O268 2.019 1_545 S
N248 Zn238 2.119 . S
N248 C250 1.334 . S
N248 C251 1.328 . S
C249 C250 1.391 . S
C249 N252 1.329 . S
C249 H270 0.930 . S
C250 N248 1.334 . S
C250 C249 1.391 . S
C250 H257 0.930 . S
C251 N248 1.328 . S
C251 C253 1.392 . S
C251 H258 0.930 . S
N252 C249 1.329 . S
N252 C253 1.331 . S
C253 C251 1.392 . S
C253 N252 1.331 . S
O254 Zn247 1.975 . S
O254 C255 1.252 . S
C255 O254 1.252 . S
C255 O256 1.252 . S
O256 Zn238 1.975 . S
O256 C255 1.252 . S
H257 C250 0.930 . S
H258 C251 0.930 . S
C259 C260 1.392 . S
C259 N263 1.328 . S
C259 H265 0.930 . S
C260 C259 1.392 . S
C260 N264 1.331 . S
C261 C262 1.391 . S
C261 N264 1.329 . S
C261 H271 0.930 . S
C262 C261 1.391 . S
C262 N263 1.334 . S
C262 H269 0.930 . S
N263 Zn247 2.119 . S
N263 C259 1.328 . S
N263 C262 1.334 . S
N264 C260 1.331 . S
N264 C261 1.329 . S
H265 C259 0.930 . S
C266 O246 1.257 . S
C266 O267 1.244 . S
O267 C266 1.244 . S
O268 C244 1.257 . S
O268 Zn247 2.019 1_565 S
H269 C262 0.930 . S
H270 C249 0.930 . S
H271 C261 0.930 . S
Zn272 N276 2.020 . S
Zn272 O280 2.019 . S
Zn272 N282 2.119 . S
Zn272 O290 1.975 . S
C273 N274 1.334 . S
C273 N277 1.336 . S
N274 C273 1.334 . S
N274 C275 1.334 . S
C275 N274 1.334 . S
C275 N276 1.336 . S
N276 Zn272 2.020 . S
N276 C275 1.336 . S
N276 N277 1.354 . S
N277 C273 1.336 . S
N277 N276 1.354 . S
N277 Zn281 2.020 . S
C278 O279 1.244 . S
C278 O302 1.257 . S
O279 C278 1.244 . S
O280 Zn272 2.019 . S
O280 C300 1.257 . S
Zn281 N277 2.020 . S
Zn281 O288 1.975 . S
Zn281 N297 2.119 . S
Zn281 O302 2.019 . S
N282 Zn272 2.119 . S
N282 C284 1.334 . S
N282 C285 1.328 . S
C283 C284 1.391 . S
C283 N286 1.329 . S
C283 H304 0.930 . S
C284 N282 1.334 . S
C284 C283 1.391 . S
C284 H291 0.930 . S
C285 N282 1.328 . S
C285 C287 1.392 . S
C285 H292 0.930 . S
N286 C283 1.329 . S
N286 C287 1.331 . S
C287 C285 1.392 . S
C287 N286 1.331 . S
O288 Zn281 1.975 . S
O288 C289 1.252 . S
C289 O288 1.252 . S
C289 O290 1.252 . S
O290 Zn272 1.975 . S
O290 C289 1.252 . S
H291 C284 0.930 . S
H292 C285 0.930 . S
C293 C294 1.392 . S
C293 N297 1.328 . S
C293 H299 0.930 . S
C294 C293 1.392 . S
C294 N298 1.331 . S
C295 C296 1.391 . S
C295 N298 1.329 . S
C295 H305 0.930 . S
C296 C295 1.391 . S
C296 N297 1.334 . S
C296 H303 0.930 . S
N297 Zn281 2.119 . S
N297 C293 1.328 . S
N297 C296 1.334 . S
N298 C294 1.331 . S
N298 C295 1.329 . S
H299 C293 0.930 . S
C300 O280 1.257 . S
C300 O301 1.244 . S
O301 C300 1.244 . S
O302 C278 1.257 . S
O302 Zn281 2.019 . S
H303 C296 0.930 . S
H304 C283 0.930 . S
H305 C295 0.930 . S
Zn306 N310 2.020 . S
Zn306 O314 2.019 . S
Zn306 N316 2.119 . S
Zn306 O324 1.975 1_545 S
C307 N308 1.334 . S
C307 N311 1.336 . S
N308 C307 1.334 . S
N308 C309 1.334 . S
C309 N308 1.334 . S
C309 N310 1.336 . S
N310 Zn306 2.020 . S
N310 C309 1.336 . S
N310 N311 1.354 . S
N311 C307 1.336 . S
N311 N310 1.354 . S
N311 Zn315 2.020 . S
C312 O313 1.244 . S
C312 O336 1.257 . S
O313 C312 1.244 . S
O314 Zn306 2.019 . S
O314 C334 1.257 . S
Zn315 N311 2.020 . S
Zn315 O322 1.975 1_545 S
Zn315 N331 2.119 . S
Zn315 O336 2.019 . S
N316 Zn306 2.119 . S
N316 C318 1.334 . S
N316 C319 1.328 . S
C317 C318 1.391 . S
C317 N320 1.329 . S
C317 H338 0.930 . S
C318 N316 1.334 . S
C318 C317 1.391 . S
C318 H325 0.930 . S
C319 N316 1.328 . S
C319 C321 1.392 . S
C319 H326 0.930 . S
N320 C317 1.329 . S
N320 C321 1.331 . S
C321 C319 1.392 . S
C321 N320 1.331 . S
O322 Zn315 1.975 1_565 S
O322 C323 1.252 . S
C323 O322 1.252 . S
C323 O324 1.252 . S
O324 Zn306 1.975 1_565 S
O324 C323 1.252 . S
H325 C318 0.930 . S
H326 C319 0.930 . S
C327 C328 1.392 . S
C327 N331 1.328 . S
C327 H333 0.930 . S
C328 C327 1.392 . S
C328 N332 1.331 . S
C329 C330 1.391 . S
C329 N332 1.329 . S
C329 H339 0.930 . S
C330 C329 1.391 . S
C330 N331 1.334 . S
C330 H337 0.930 . S
N331 Zn315 2.119 . S
N331 C327 1.328 . S
N331 C330 1.334 . S
N332 C328 1.331 . S
N332 C329 1.329 . S
H333 C327 0.930 . S
C334 O314 1.257 . S
C334 O335 1.244 . S
O335 C334 1.244 . S
O336 C312 1.257 . S
O336 Zn315 2.019 . S
H337 C330 0.930 . S
H338 C317 0.930 . S
H339 C329 0.930 . S
Zn340 N344 2.020 . S
Zn340 O348 2.019 . S
Zn340 N350 2.119 . S
Zn340 O358 1.975 . S
C341 N342 1.334 . S
C341 N345 1.336 . S
N342 C341 1.334 . S
N342 C343 1.334 . S
C343 N342 1.334 . S
C343 N344 1.336 . S
N344 Zn340 2.020 . S
N344 C343 1.336 . S
N344 N345 1.354 . S
N345 C341 1.336 . S
N345 N344 1.354 . S
N345 Zn349 2.020 . S
C346 O347 1.244 . S
C346 O370 1.257 . S
O347 C346 1.244 . S
O348 Zn340 2.019 . S
O348 C368 1.257 . S
Zn349 N345 2.020 . S
Zn349 O356 1.975 . S
Zn349 N365 2.119 . S
Zn349 O370 2.019 . S
N350 Zn340 2.119 . S
N350 C352 1.334 . S
N350 C353 1.328 . S
C351 C352 1.391 . S
C351 N354 1.329 . S
C351 H372 0.930 . S
C352 N350 1.334 . S
C352 C351 1.391 . S
C352 H359 0.930 . S
C353 N350 1.328 . S
C353 C355 1.392 . S
C353 H360 0.930 . S
N354 C351 1.329 . S
N354 C355 1.331 . S
C355 C353 1.392 . S
C355 N354 1.331 . S
O356 Zn349 1.975 . S
O356 C357 1.252 . S
C357 O356 1.252 . S
C357 O358 1.252 . S
O358 Zn340 1.975 . S
O358 C357 1.252 . S
H359 C352 0.930 . S
H360 C353 0.930 . S
C361 C362 1.392 . S
C361 N365 1.328 . S
C361 H367 0.930 . S
C362 C361 1.392 . S
C362 N366 1.331 . S
C363 C364 1.391 . S
C363 N366 1.329 . S
C363 H373 0.930 . S
C364 C363 1.391 . S
C364 N365 1.334 . S
C364 H371 0.930 . S
N365 Zn349 2.119 . S
N365 C361 1.328 . S
N365 C364 1.334 . S
N366 C362 1.331 . S
N366 C363 1.329 . S
H367 C361 0.930 . S
C368 O348 1.257 . S
C368 O369 1.244 . S
O369 C368 1.244 . S
O370 C346 1.257 . S
O370 Zn349 2.019 . S
H371 C364 0.930 . S
H372 C351 0.930 . S
H373 C363 0.930 . S
Zn374 N378 2.020 . S
Zn374 O382 2.019 . S
Zn374 N384 2.119 . S
Zn374 O392 1.975 . S
C375 N376 1.334 . S
C375 N379 1.336 . S
N376 C375 1.334 . S
N376 C377 1.334 . S
C377 N376 1.334 . S
C377 N378 1.336 . S
N378 Zn374 2.020 . S
N378 C377 1.336 . S
N378 N379 1.354 . S
N379 C375 1.336 . S
N379 N378 1.354 . S
N379 Zn383 2.020 . S
C380 O381 1.244 . S
C380 O404 1.257 . S
O381 C380 1.244 . S
O382 Zn374 2.019 . S
O382 C402 1.257 . S
Zn383 N379 2.020 . S
Zn383 O390 1.975 . S
Zn383 N399 2.119 . S
Zn383 O404 2.019 . S
N384 Zn374 2.119 . S
N384 C386 1.334 . S
N384 C387 1.328 . S
C385 C386 1.391 . S
C385 N388 1.329 . S
C385 H406 0.930 . S
C386 N384 1.334 . S
C386 C385 1.391 . S
C386 H393 0.930 . S
C387 N384 1.328 . S
C387 C389 1.392 . S
C387 H394 0.930 . S
N388 C385 1.329 . S
N388 C389 1.331 . S
C389 C387 1.392 . S
C389 N388 1.331 . S
O390 Zn383 1.975 . S
O390 C391 1.252 1_565 S
C391 O390 1.252 1_545 S
C391 O392 1.252 1_545 S
O392 Zn374 1.975 . S
O392 C391 1.252 1_565 S
H393 C386 0.930 . S
H394 C387 0.930 . S
C395 C396 1.392 . S
C395 N399 1.328 . S
C395 H401 0.930 . S
C396 C395 1.392 . S
C396 N400 1.331 . S
C397 C398 1.391 . S
C397 N400 1.329 . S
C397 H407 0.930 . S
C398 C397 1.391 . S
C398 N399 1.334 . S
C398 H405 0.930 . S
N399 Zn383 2.119 . S
N399 C395 1.328 . S
N399 C398 1.334 . S
N400 C396 1.331 . S
N400 C397 1.329 . S
H401 C395 0.930 . S
C402 O382 1.257 . S
C402 O403 1.244 . S
O403 C402 1.244 . S
O404 C380 1.257 . S
O404 Zn383 2.019 . S
H405 C398 0.930 . S
H406 C385 0.930 . S
H407 C397 0.930 . S
Zn408 N412 2.020 . S
Zn408 O416 2.019 . S
Zn408 N418 2.119 . S
Zn408 O426 1.975 . S
C409 N410 1.334 . S
C409 N413 1.336 . S
N410 C409 1.334 . S
N410 C411 1.334 . S
C411 N410 1.334 . S
C411 N412 1.336 . S
N412 Zn408 2.020 . S
N412 C411 1.336 . S
N412 N413 1.354 . S
N413 C409 1.336 . S
N413 N412 1.354 . S
N413 Zn417 2.020 . S
C414 O415 1.244 . S
C414 O438 1.257 . S
O415 C414 1.244 . S
O416 Zn408 2.019 . S
O416 C436 1.257 . S
Zn417 N413 2.020 . S
Zn417 O424 1.975 . S
Zn417 N433 2.119 . S
Zn417 O438 2.019 . S
N418 Zn408 2.119 . S
N418 C420 1.334 . S
N418 C421 1.328 . S
C419 C420 1.391 . S
C419 N422 1.329 . S
C419 H440 0.930 . S
C420 N418 1.334 . S
C420 C419 1.391 . S
C420 H427 0.930 . S
C421 N418 1.328 . S
C421 C423 1.392 . S
C421 H428 0.930 . S
N422 C419 1.329 . S
N422 C423 1.331 . S
C423 C421 1.392 . S
C423 N422 1.331 . S
O424 Zn417 1.975 . S
O424 C425 1.252 . S
C425 O424 1.252 . S
C425 O426 1.252 . S
O426 Zn408 1.975 . S
O426 C425 1.252 . S
H427 C420 0.930 . S
H428 C421 0.930 . S
C429 C430 1.392 . S
C429 N433 1.328 . S
C429 H435 0.930 . S
C430 C429 1.392 . S
C430 N434 1.331 . S
C431 C432 1.391 . S
C431 N434 1.329 . S
C431 H441 0.930 . S
C432 C431 1.391 . S
C432 N433 1.334 . S
C432 H439 0.930 . S
N433 Zn417 2.119 . S
N433 C429 1.328 . S
N433 C432 1.334 . S
N434 C430 1.331 . S
N434 C431 1.329 . S
H435 C429 0.930 . S
C436 O416 1.257 . S
C436 O437 1.244 . S
O437 C436 1.244 . S
O438 C414 1.257 . S
O438 Zn417 2.019 . S
H439 C432 0.930 . S
H440 C419 0.930 . S
H441 C431 0.930 . S
Zn442 N446 2.020 . S
Zn442 O450 2.019 . S
Zn442 N452 2.119 . S
Zn442 O460 1.975 . S
C443 N444 1.334 . S
C443 N447 1.336 . S
N444 C443 1.334 . S
N444 C445 1.334 . S
C445 N444 1.334 . S
C445 N446 1.336 . S
N446 Zn442 2.020 . S
N446 C445 1.336 . S
N446 N447 1.354 . S
N447 C443 1.336 . S
N447 N446 1.354 . S
N447 Zn451 2.020 . S
C448 O449 1.244 . S
C448 O472 1.257 . S
O449 C448 1.244 . S
O450 Zn442 2.019 . S
O450 C470 1.257 . S
Zn451 N447 2.020 . S
Zn451 O458 1.975 . S
Zn451 N467 2.119 . S
Zn451 O472 2.019 . S
N452 Zn442 2.119 . S
N452 C454 1.334 . S
N452 C455 1.328 . S
C453 C454 1.391 . S
C453 N456 1.329 . S
C453 H474 0.930 . S
C454 N452 1.334 . S
C454 C453 1.391 . S
C454 H461 0.930 . S
C455 N452 1.328 . S
C455 C457 1.392 . S
C455 H462 0.930 . S
N456 C453 1.329 . S
N456 C457 1.331 . S
C457 C455 1.392 . S
C457 N456 1.331 . S
O458 Zn451 1.975 . S
O458 C459 1.252 . S
C459 O458 1.252 . S
C459 O460 1.252 . S
O460 Zn442 1.975 . S
O460 C459 1.252 . S
H461 C454 0.930 . S
H462 C455 0.930 . S
C463 C464 1.392 . S
C463 N467 1.328 . S
C463 H469 0.930 . S
C464 C463 1.392 . S
C464 N468 1.331 . S
C465 C466 1.391 . S
C465 N468 1.329 . S
C465 H475 0.930 . S
C466 C465 1.391 . S
C466 N467 1.334 . S
C466 H473 0.930 . S
N467 Zn451 2.119 . S
N467 C463 1.328 . S
N467 C466 1.334 . S
N468 C464 1.331 . S
N468 C465 1.329 . S
H469 C463 0.930 . S
C470 O450 1.257 . S
C470 O471 1.244 . S
O471 C470 1.244 . S
O472 C448 1.257 . S
O472 Zn451 2.019 . S
H473 C466 0.930 . S
H474 C453 0.930 . S
H475 C465 0.930 . S
Zn476 N480 2.020 . S
Zn476 O484 2.019 . S
Zn476 N486 2.119 . S
Zn476 O494 1.975 . S
C477 N478 1.334 . S
C477 N481 1.336 . S
N478 C477 1.334 . S
N478 C479 1.334 . S
C479 N478 1.334 . S
C479 N480 1.336 . S
N480 Zn476 2.020 . S
N480 C479 1.336 . S
N480 N481 1.354 . S
N481 C477 1.336 . S
N481 N480 1.354 . S
N481 Zn485 2.020 . S
C482 O483 1.244 . S
C482 O506 1.257 . S
O483 C482 1.244 . S
O484 Zn476 2.019 . S
O484 C504 1.257 . S
Zn485 N481 2.020 . S
Zn485 O492 1.975 . S
Zn485 N501 2.119 . S
Zn485 O506 2.019 . S
N486 Zn476 2.119 . S
N486 C488 1.334 . S
N486 C489 1.328 . S
C487 C488 1.391 . S
C487 N490 1.329 . S
C487 H508 0.930 . S
C488 N486 1.334 . S
C488 C487 1.391 . S
C488 H495 0.930 . S
C489 N486 1.328 . S
C489 C491 1.392 . S
C489 H496 0.930 . S
N490 C487 1.329 . S
N490 C491 1.331 . S
C491 C489 1.392 . S
C491 N490 1.331 . S
O492 Zn485 1.975 . S
O492 C493 1.252 . S
C493 O492 1.252 . S
C493 O494 1.252 . S
O494 Zn476 1.975 . S
O494 C493 1.252 . S
H495 C488 0.930 . S
H496 C489 0.930 . S
C497 C498 1.392 . S
C497 N501 1.328 . S
C497 H503 0.930 . S
C498 C497 1.392 . S
C498 N502 1.331 . S
C499 C500 1.391 . S
C499 N502 1.329 . S
C499 H509 0.930 . S
C500 C499 1.391 . S
C500 N501 1.334 . S
C500 H507 0.930 . S
N501 Zn485 2.119 . S
N501 C497 1.328 . S
N501 C500 1.334 . S
N502 C498 1.331 . S
N502 C499 1.329 . S
H503 C497 0.930 . S
C504 O484 1.257 . S
C504 O505 1.244 . S
O505 C504 1.244 . S
O506 C482 1.257 . S
O506 Zn485 2.019 . S
H507 C500 0.930 . S
H508 C487 0.930 . S
H509 C499 0.930 . S
Zn510 N514 2.020 . S
Zn510 O518 2.019 . S
Zn510 N520 2.119 . S
Zn510 O528 1.975 . S
C511 N512 1.334 . S
C511 N515 1.336 . S
N512 C511 1.334 . S
N512 C513 1.334 . S
C513 N512 1.334 . S
C513 N514 1.336 . S
N514 Zn510 2.020 . S
N514 C513 1.336 . S
N514 N515 1.354 . S
N515 C511 1.336 . S
N515 N514 1.354 . S
N515 Zn519 2.020 . S
C516 O517 1.244 . S
C516 O540 1.257 . S
O517 C516 1.244 . S
O518 Zn510 2.019 . S
O518 C538 1.257 . S
Zn519 N515 2.020 . S
Zn519 O526 1.975 . S
Zn519 N535 2.119 . S
Zn519 O540 2.019 1_565 S
N520 Zn510 2.119 . S
N520 C522 1.334 . S
N520 C523 1.328 . S
C521 C522 1.391 . S
C521 N524 1.329 . S
C521 H542 0.930 1_565 S
C522 N520 1.334 . S
C522 C521 1.391 . S
C522 H529 0.930 . S
C523 N520 1.328 . S
C523 C525 1.392 . S
C523 H530 0.930 . S
N524 C521 1.329 . S
N524 C525 1.331 . S
C525 C523 1.392 . S
C525 N524 1.331 . S
O526 Zn519 1.975 . S
O526 C527 1.252 . S
C527 O526 1.252 . S
C527 O528 1.252 . S
O528 Zn510 1.975 . S
O528 C527 1.252 . S
H529 C522 0.930 . S
H530 C523 0.930 . S
C531 C532 1.392 . S
C531 N535 1.328 . S
C531 H537 0.930 1_565 S
C532 C531 1.392 . S
C532 N536 1.331 . S
C533 C534 1.391 . S
C533 N536 1.329 . S
C533 H543 0.930 . S
C534 C533 1.391 . S
C534 N535 1.334 . S
C534 H541 0.930 . S
N535 Zn519 2.119 . S
N535 C531 1.328 . S
N535 C534 1.334 . S
N536 C532 1.331 . S
N536 C533 1.329 . S
H537 C531 0.930 1_545 S
C538 O518 1.257 . S
C538 O539 1.244 . S
O539 C538 1.244 . S
O540 C516 1.257 . S
O540 Zn519 2.019 1_545 S
H541 C534 0.930 . S
H542 C521 0.930 1_545 S
H543 C533 0.930 . S
H544 C550 0.930 . S
H545 C554 0.930 . S
H546 C559 0.929 . S
H547 C557 0.929 . S
H548 C552 0.929 . S
H549 C558 0.929 . S
C550 H544 0.930 . S
C550 C551 1.367 . S
C550 C558 1.378 . S
C551 C550 1.367 . S
C551 C559 1.433 . S
C552 H548 0.929 . S
C552 C554 1.378 . S
C552 C556 1.350 . S
C553 C556 1.463 1_455 S
C553 C558 1.350 . S
C553 N561 1.427 1_455 S
C554 H545 0.930 . S
C554 C552 1.378 . S
C554 C555 1.367 . S
C555 C554 1.367 . S
C555 C557 1.433 . S
C556 C552 1.350 . S
C556 C553 1.463 1_655 S
C556 N560 1.427 . S
C557 H547 0.929 . S
C557 C555 1.433 . S
C557 N560 1.384 . S
C558 H549 0.929 . S
C558 C550 1.378 . S
C558 C553 1.350 . S
C559 H546 0.929 . S
C559 C551 1.433 . S
C559 N561 1.384 1_455 S
N560 C556 1.427 . S
N560 C557 1.384 . S
N561 C553 1.427 1_655 S
N561 C559 1.384 1_655 S
H562 C568 0.930 . S
H563 C572 0.930 . S
H564 C577 0.929 . S
H565 C575 0.929 . S
H566 C570 0.929 . S
H567 C576 0.929 . S
C568 H562 0.930 . S
C568 C569 1.367 . S
C568 C576 1.378 . S
C569 C568 1.367 . S
C569 C577 1.433 . S
C570 H566 0.929 . S
C570 C572 1.378 . S
C570 C574 1.350 . S
C571 C574 1.463 1_655 S
C571 C576 1.350 . S
C571 N579 1.427 . S
C572 H563 0.930 . S
C572 C570 1.378 . S
C572 C573 1.367 . S
C573 C572 1.367 . S
C573 C575 1.433 . S
C574 C570 1.350 . S
C574 C571 1.463 1_455 S
C574 N578 1.427 . S
C575 H565 0.929 . S
C575 C573 1.433 . S
C575 N578 1.384 . S
C576 H567 0.929 . S
C576 C568 1.378 . S
C576 C571 1.350 . S
C577 H564 0.929 . S
C577 C569 1.433 . S
C577 N579 1.384 . S
N578 C574 1.427 . S
N578 C575 1.384 . S
N579 C571 1.427 . S
N579 C577 1.384 . S
H580 C586 0.930 . S
H581 C590 0.930 . S
H582 C595 0.929 . S
H583 C593 0.929 . S
H584 C588 0.929 . S
H585 C594 0.929 . S
C586 H580 0.930 . S
C586 C587 1.367 . S
C586 C594 1.378 . S
C587 C586 1.367 . S
C587 C595 1.433 . S
C588 H584 0.929 . S
C588 C590 1.378 . S
C588 C592 1.350 . S
C589 C592 1.463 . S
C589 C594 1.350 . S
C589 N597 1.427 . S
C590 H581 0.930 . S
C590 C588 1.378 . S
C590 C591 1.367 . S
C591 C590 1.367 . S
C591 C593 1.433 . S
C592 C588 1.350 . S
C592 C589 1.463 . S
C592 N596 1.427 . S
C593 H583 0.929 . S
C593 C591 1.433 . S
C593 N596 1.384 . S
C594 H585 0.929 . S
C594 C586 1.378 . S
C594 C589 1.350 . S
C595 H582 0.929 . S
C595 C587 1.433 . S
C595 N597 1.384 . S
N596 C592 1.427 . S
N596 C593 1.384 . S
N597 C589 1.427 . S
N597 C595 1.384 . S
H598 C604 0.930 . S
H599 C608 0.930 . S
H600 C613 0.929 . S
H601 C611 0.929 . S
H602 C606 0.929 . S
H603 C612 0.929 . S
C604 H598 0.930 . S
C604 C605 1.367 . S
C604 C612 1.378 . S
C605 C604 1.367 . S
C605 C613 1.433 . S
C606 H602 0.929 . S
C606 C608 1.378 . S
C606 C610 1.350 . S
C607 C610 1.463 . S
C607 C612 1.350 . S
C607 N615 1.427 . S
C608 H599 0.930 . S
C608 C606 1.378 . S
C608 C609 1.367 . S
C609 C608 1.367 . S
C609 C611 1.433 . S
C610 C606 1.350 . S
C610 C607 1.463 . S
C610 N614 1.427 . S
C611 H601 0.929 . S
C611 C609 1.433 . S
C611 N614 1.384 . S
C612 H603 0.929 . S
C612 C604 1.378 . S
C612 C607 1.350 . S
C613 H600 0.929 . S
C613 C605 1.433 . S
C613 N615 1.384 . S
N614 C610 1.427 . S
N614 C611 1.384 . S
N615 C607 1.427 . S
N615 C613 1.384 . S
H616 C622 0.930 . S
H617 C626 0.930 . S
H618 C631 0.929 . S
H619 C629 0.929 . S
H620 C624 0.929 . S
H621 C630 0.927 . S
C622 H616 0.930 . S
C622 C623 1.367 . S
C622 C630 1.378 . S
C623 C622 1.367 . S
C623 C631 1.433 . S
C624 H620 0.929 . S
C624 C626 1.378 1_655 S
C624 C628 1.350 . S
C625 C628 1.464 . S
C625 C630 1.350 . S
C625 N633 1.427 . S
C626 H617 0.930 . S
C626 C624 1.378 1_455 S
C626 C627 1.367 . S
C627 C626 1.367 . S
C627 C629 1.433 . S
C628 C624 1.350 . S
C628 C625 1.464 . S
C628 N632 1.426 1_655 S
C629 H619 0.929 . S
C629 C627 1.433 . S
C629 N632 1.384 . S
C630 H621 0.927 . S
C630 C622 1.378 . S
C630 C625 1.350 . S
C631 H618 0.929 . S
C631 C623 1.433 . S
C631 N633 1.384 . S
N632 C628 1.426 1_455 S
N632 C629 1.384 . S
N633 C625 1.427 . S
N633 C631 1.384 . S
H634 C640 0.930 . S
H635 C644 0.930 . S
H636 C649 0.929 . S
H637 C647 0.929 . S
H638 C642 0.927 . S
H639 C648 0.929 . S
C640 H634 0.930 . S
C640 C641 1.367 . S
C640 C648 1.378 . S
C641 C640 1.367 . S
C641 C649 1.433 . S
C642 H638 0.927 . S
C642 C644 1.379 1_455 S
C642 C646 1.350 . S
C643 C646 1.463 . S
C643 C648 1.350 . S
C643 N651 1.427 . S
C644 H635 0.930 . S
C644 C642 1.379 1_655 S
C644 C645 1.367 . S
C645 C644 1.367 . S
C645 C647 1.433 . S
C646 C642 1.350 . S
C646 C643 1.463 . S
C646 N650 1.427 1_455 S
C647 H637 0.929 . S
C647 C645 1.433 . S
C647 N650 1.384 . S
C648 H639 0.929 . S
C648 C640 1.378 . S
C648 C643 1.350 . S
C649 H636 0.929 . S
C649 C641 1.433 . S
C649 N651 1.384 . S
N650 C646 1.427 1_655 S
N650 C647 1.384 . S
N651 C643 1.427 . S
N651 C649 1.384 . S
H652 C658 0.930 . S
H653 C662 0.930 . S
H654 C667 0.929 . S
H655 C665 0.929 . S
H656 C660 0.929 . S
H657 C666 0.929 . S
C658 H652 0.930 . S
C658 C659 1.367 . S
C658 C666 1.378 . S
C659 C658 1.367 . S
C659 C667 1.433 . S
C660 H656 0.929 . S
C660 C662 1.378 . S
C660 C664 1.350 . S
C661 C664 1.463 . S
C661 C666 1.350 . S
C661 N669 1.427 . S
C662 H653 0.930 . S
C662 C660 1.378 . S
C662 C663 1.367 . S
C663 C662 1.367 . S
C663 C665 1.433 . S
C664 C660 1.350 . S
C664 C661 1.463 . S
C664 N668 1.427 . S
C665 H655 0.929 . S
C665 C663 1.433 . S
C665 N668 1.384 . S
C666 H657 0.929 . S
C666 C658 1.378 . S
C666 C661 1.350 . S
C667 H654 0.929 . S
C667 C659 1.433 . S
C667 N669 1.384 . S
N668 C664 1.427 . S
N668 C665 1.384 . S
N669 C661 1.427 . S
N669 C667 1.384 . S
H670 C676 0.930 . S
H671 C680 0.930 . S
H672 C685 0.929 . S
H673 C683 0.929 . S
H674 C678 0.929 . S
H675 C684 0.929 . S
C676 H670 0.930 . S
C676 C677 1.367 . S
C676 C684 1.378 . S
C677 C676 1.367 . S
C677 C685 1.433 . S
C678 H674 0.929 . S
C678 C680 1.378 . S
C678 C682 1.350 . S
C679 C682 1.463 . S
C679 C684 1.350 . S
C679 N687 1.427 . S
C680 H671 0.930 . S
C680 C678 1.378 . S
C680 C681 1.367 . S
C681 C680 1.367 . S
C681 C683 1.433 . S
C682 C678 1.350 . S
C682 C679 1.463 . S
C682 N686 1.427 . S
C683 H673 0.929 . S
C683 C681 1.433 . S
C683 N686 1.384 . S
C684 H675 0.929 . S
C684 C676 1.378 . S
C684 C679 1.350 . S
C685 H672 0.929 . S
C685 C677 1.433 . S
C685 N687 1.384 . S
N686 C682 1.427 . S
N686 C683 1.384 . S
N687 C679 1.427 . S
N687 C685 1.384 . S
H688 C694 0.930 . S
H689 C698 0.930 . S
H690 C703 0.929 . S
H691 C701 0.929 . S
H692 C696 0.929 . S
H693 C702 0.929 . S
C694 H688 0.930 . S
C694 C695 1.367 . S
C694 C702 1.378 . S
C695 C694 1.367 . S
C695 C703 1.433 . S
C696 H692 0.929 . S
C696 C698 1.378 . S
C696 C700 1.350 . S
C697 C700 1.463 . S
C697 C702 1.350 . S
C697 N705 1.427 . S
C698 H689 0.930 . S
C698 C696 1.378 . S
C698 C699 1.367 . S
C699 C698 1.367 . S
C699 C701 1.433 . S
C700 C696 1.350 . S
C700 C697 1.463 . S
C700 N704 1.427 . S
C701 H691 0.929 . S
C701 C699 1.433 . S
C701 N704 1.384 . S
C702 H693 0.929 . S
C702 C694 1.378 . S
C702 C697 1.350 . S
C703 H690 0.929 . S
C703 C695 1.433 . S
C703 N705 1.384 . S
N704 C700 1.427 . S
N704 C701 1.384 . S
N705 C697 1.427 . S
N705 C703 1.384 . S
H706 C712 0.930 . S
H707 C716 0.930 . S
H708 C721 0.929 . S
H709 C719 0.929 . S
H710 C714 0.929 . S
H711 C720 0.929 . S
C712 H706 0.930 . S
C712 C713 1.367 . S
C712 C720 1.378 1_655 S
C713 C712 1.367 . S
C713 C721 1.433 1_565 S
C714 H710 0.929 . S
C714 C716 1.378 . S
C714 C718 1.350 . S
C715 C718 1.463 . S
C715 C720 1.350 1_545 S
C715 N723 1.427 . S
C716 H707 0.930 . S
C716 C714 1.378 . S
C716 C717 1.367 . S
C717 C716 1.367 . S
C717 C719 1.433 . S
C718 C714 1.350 . S
C718 C715 1.463 . S
C718 N722 1.427 . S
C719 H709 0.929 . S
C719 C717 1.433 . S
C719 N722 1.384 . S
C720 H711 0.929 . S
C720 C712 1.378 1_455 S
C720 C715 1.350 1_565 S
C721 H708 0.929 . S
C721 C713 1.433 1_545 S
C721 N723 1.384 1_655 S
N722 C718 1.427 . S
N722 C719 1.384 . S
N723 C715 1.427 . S
N723 C721 1.384 1_455 S
H724 C730 0.930 . S
H725 C734 0.930 . S
H726 C739 0.929 . S
H727 C737 0.929 . S
H728 C732 0.929 . S
H729 C738 0.929 . S
C730 H724 0.930 . S
C730 C731 1.367 . S
C730 C738 1.378 . S
C731 C730 1.367 . S
C731 C739 1.433 . S
C732 H728 0.929 . S
C732 C734 1.378 . S
C732 C736 1.350 . S
C733 C736 1.463 . S
C733 C738 1.350 . S
C733 N741 1.427 . S
C734 H725 0.930 . S
C734 C732 1.378 . S
C734 C735 1.367 . S
C735 C734 1.367 . S
C735 C737 1.433 . S
C736 C732 1.350 . S
C736 C733 1.463 . S
C736 N740 1.427 . S
C737 H727 0.929 . S
C737 C735 1.433 . S
C737 N740 1.384 . S
C738 H729 0.929 . S
C738 C730 1.378 . S
C738 C733 1.350 . S
C739 H726 0.929 . S
C739 C731 1.433 . S
C739 N741 1.384 . S
N740 C736 1.427 . S
N740 C737 1.384 . S
N741 C733 1.427 . S
N741 C739 1.384 . S
H742 C748 0.930 . S
H743 C752 0.930 . S
H744 C757 0.929 . S
H745 C755 0.929 . S
H746 C750 0.929 . S
H747 C756 0.929 . S
C748 H742 0.930 . S
C748 C749 1.367 . S
C748 C756 1.378 . S
C749 C748 1.367 . S
C749 C757 1.433 1_545 S
C750 H746 0.929 . S
C750 C752 1.378 . S
C750 C754 1.350 . S
C751 C754 1.463 1_545 S
C751 C756 1.350 . S
C751 N759 1.427 1_545 S
C752 H743 0.930 . S
C752 C750 1.378 . S
C752 C753 1.367 . S
C753 C752 1.367 . S
C753 C755 1.433 1_565 S
C754 C750 1.350 . S
C754 C751 1.463 1_565 S
C754 N758 1.427 1_565 S
C755 H745 0.929 . S
C755 C753 1.433 1_545 S
C755 N758 1.384 . S
C756 H747 0.929 . S
C756 C748 1.378 . S
C756 C751 1.350 . S
C757 H744 0.929 . S
C757 C749 1.433 1_565 S
C757 N759 1.384 . S
N758 C754 1.427 1_545 S
N758 C755 1.384 . S
N759 C751 1.427 1_565 S
N759 C757 1.384 . S
H760 C766 0.930 . S
H761 C770 0.930 . S
H762 C775 0.929 . S
H763 C773 0.929 . S
H764 C768 0.929 . S
H765 C774 0.929 . S
C766 H760 0.930 . S
C766 C767 1.367 . S
C766 C774 1.378 . S
C767 C766 1.367 . S
C767 C775 1.433 . S
C768 H764 0.929 . S
C768 C770 1.378 . S
C768 C772 1.350 . S
C769 C772 1.463 . S
C769 C774 1.350 . S
C769 N777 1.427 . S
C770 H761 0.930 . S
C770 C768 1.378 . S
C770 C771 1.367 . S
C771 C770 1.367 . S
C771 C773 1.433 . S
C772 C768 1.350 . S
C772 C769 1.463 . S
C772 N776 1.427 . S
C773 H763 0.929 . S
C773 C771 1.433 . S
C773 N776 1.384 . S
C774 H765 0.929 . S
C774 C766 1.378 . S
C774 C769 1.350 . S
C775 H762 0.929 . S
C775 C767 1.433 . S
C775 N777 1.384 . S
N776 C772 1.427 . S
N776 C773 1.384 . S
N777 C769 1.427 . S
N777 C775 1.384 . S
H778 C784 0.930 . S
H779 C788 0.930 . S
H780 C793 0.931 . S
H781 C791 0.929 . S
H782 C786 0.929 . S
H783 C792 0.929 . S
C784 H778 0.930 . S
C784 C785 1.367 . S
C784 C792 1.378 . S
C785 C784 1.367 . S
C785 C793 1.433 . S
C786 H782 0.929 . S
C786 C788 1.378 . S
C786 C790 1.350 . S
C787 C790 1.463 1_565 S
C787 C792 1.350 . S
C787 N795 1.427 1_565 S
C788 H779 0.930 . S
C788 C786 1.378 . S
C788 C789 1.367 . S
C789 C788 1.367 . S
C789 C791 1.433 . S
C790 C786 1.350 . S
C790 C787 1.463 1_545 S
C790 N794 1.427 1_545 S
C791 H781 0.929 . S
C791 C789 1.433 . S
C791 N794 1.384 1_545 S
C792 H783 0.929 . S
C792 C784 1.378 . S
C792 C787 1.350 . S
C793 H780 0.931 . S
C793 C785 1.433 . S
C793 N795 1.384 1_565 S
N794 C790 1.427 1_565 S
N794 C791 1.384 1_565 S
N795 C787 1.427 1_545 S
N795 C793 1.384 1_545 S
H796 C802 0.930 . S
H797 C806 0.930 . S
H798 C811 0.929 . S
H799 C809 0.929 . S
H800 C804 0.929 . S
H801 C810 0.929 . S
C802 H796 0.930 . S
C802 C803 1.367 . S
C802 C810 1.378 . S
C803 C802 1.367 . S
C803 C811 1.433 . S
C804 H800 0.929 . S
C804 C806 1.378 . S
C804 C808 1.350 . S
C805 C808 1.463 . S
C805 C810 1.350 . S
C805 N813 1.427 . S
C806 H797 0.930 . S
C806 C804 1.378 . S
C806 C807 1.367 . S
C807 C806 1.367 . S
C807 C809 1.433 . S
C808 C804 1.350 . S
C808 C805 1.463 . S
C808 N812 1.427 . S
C809 H799 0.929 . S
C809 C807 1.433 . S
C809 N812 1.384 . S
C810 H801 0.929 . S
C810 C802 1.378 . S
C810 C805 1.350 . S
C811 H798 0.929 . S
C811 C803 1.433 . S
C811 N813 1.384 . S
N812 C808 1.427 . S
N812 C809 1.384 . S
N813 C805 1.427 . S
N813 C811 1.384 . S
H814 C820 0.930 . S
H815 C824 0.930 . S
H816 C829 0.929 . S
H817 C827 0.929 . S
H818 C822 0.929 . S
H819 C828 0.929 . S
C820 H814 0.930 . S
C820 C821 1.367 . S
C820 C828 1.378 . S
C821 C820 1.367 . S
C821 C829 1.433 . S
C822 H818 0.929 . S
C822 C824 1.378 1_455 S
C822 C826 1.350 1_545 S
C823 C826 1.463 . S
C823 C828 1.350 . S
C823 N831 1.427 . S
C824 H815 0.930 . S
C824 C822 1.378 1_655 S
C824 C825 1.367 . S
C825 C824 1.367 . S
C825 C827 1.433 . S
C826 C822 1.350 1_565 S
C826 C823 1.463 . S
C826 N830 1.427 1_455 S
C827 H817 0.929 . S
C827 C825 1.433 . S
C827 N830 1.384 1_545 S
C828 H819 0.929 . S
C828 C820 1.378 . S
C828 C823 1.350 . S
C829 H816 0.929 . S
C829 C821 1.433 . S
C829 N831 1.384 . S
N830 C826 1.427 1_655 S
N830 C827 1.384 1_565 S
N831 C823 1.427 . S
N831 C829 1.384 . S
H832 C838 0.930 . S
H833 C842 0.930 . S
H834 C847 0.929 . S
H835 C845 0.929 . S
H836 C840 0.929 . S
H837 C846 0.929 . S
C838 H832 0.930 . S
C838 C839 1.367 . S
C838 C846 1.378 . S
C839 C838 1.367 . S
C839 C847 1.433 . S
C840 H836 0.929 . S
C840 C842 1.378 . S
C840 C844 1.350 . S
C841 C844 1.463 . S
C841 C846 1.350 . S
C841 N849 1.427 . S
C842 H833 0.930 . S
C842 C840 1.378 . S
C842 C843 1.367 . S
C843 C842 1.367 . S
C843 C845 1.433 . S
C844 C840 1.350 . S
C844 C841 1.463 . S
C844 N848 1.427 . S
C845 H835 0.929 . S
C845 C843 1.433 . S
C845 N848 1.384 . S
C846 H837 0.929 . S
C846 C838 1.378 . S
C846 C841 1.350 . S
C847 H834 0.929 . S
C847 C839 1.433 . S
C847 N849 1.384 . S
N848 C844 1.427 . S
N848 C845 1.384 . S
N849 C841 1.427 . S
N849 C847 1.384 . S
H850 C856 0.930 . S
H851 C860 0.930 . S
H852 C865 0.929 . S
H853 C863 0.929 . S
H854 C858 0.929 . S
H855 C864 0.929 1_545 S
C856 H850 0.930 . S
C856 C857 1.367 1_545 S
C856 C864 1.378 1_445 S
C857 C856 1.367 1_565 S
C857 C865 1.433 . S
C858 H854 0.929 . S
C858 C860 1.378 . S
C858 C862 1.350 . S
C859 C862 1.463 . S
C859 C864 1.350 . S
C859 N867 1.427 . S
C860 H851 0.930 . S
C860 C858 1.378 . S
C860 C861 1.367 . S
C861 C860 1.367 . S
C861 C863 1.433 . S
C862 C858 1.350 . S
C862 C859 1.463 . S
C862 N866 1.427 . S
C863 H853 0.929 . S
C863 C861 1.433 . S
C863 N866 1.384 . S
C864 H855 0.929 1_565 S
C864 C856 1.378 1_665 S
C864 C859 1.350 . S
C865 H852 0.929 . S
C865 C857 1.433 . S
C865 N867 1.384 1_455 S
N866 C862 1.427 . S
N866 C863 1.384 . S
N867 C859 1.427 . S
N867 C865 1.384 1_655 S
H868 C874 0.930 . S
H869 C878 0.930 . S
H870 C883 0.929 . S
H871 C881 0.929 . S
H872 C876 0.929 . S
H873 C882 0.929 . S
C874 H868 0.930 . S
C874 C875 1.367 . S
C874 C882 1.378 . S
C875 C874 1.367 . S
C875 C883 1.433 . S
C876 H872 0.929 . S
C876 C878 1.378 . S
C876 C880 1.350 . S
C877 C880 1.463 . S
C877 C882 1.350 . S
C877 N885 1.427 . S
C878 H869 0.930 . S
C878 C876 1.378 . S
C878 C879 1.367 . S
C879 C878 1.367 . S
C879 C881 1.433 . S
C880 C876 1.350 . S
C880 C877 1.463 . S
C880 N884 1.427 . S
C881 H871 0.929 . S
C881 C879 1.433 . S
C881 N884 1.384 . S
C882 H873 0.929 . S
C882 C874 1.378 . S
C882 C877 1.350 . S
C883 H870 0.929 . S
C883 C875 1.433 . S
C883 N885 1.384 . S
N884 C880 1.427 . S
N884 C881 1.384 . S
N885 C877 1.427 . S
N885 C883 1.384 . S
H886 C892 0.930 . S
H887 C896 0.930 . S
H888 C901 0.929 . S
H889 C899 0.929 . S
H890 C894 0.929 . S
H891 C900 0.929 . S
C892 H886 0.930 . S
C892 C893 1.367 . S
C892 C900 1.378 . S
C893 C892 1.367 . S
C893 C901 1.433 . S
C894 H890 0.929 . S
C894 C896 1.378 . S
C894 C898 1.350 1_565 S
C895 C898 1.463 . S
C895 C900 1.350 . S
C895 N903 1.427 . S
C896 H887 0.930 . S
C896 C894 1.378 . S
C896 C897 1.367 . S
C897 C896 1.367 . S
C897 C899 1.433 1_565 S
C898 C894 1.350 1_545 S
C898 C895 1.463 . S
C898 N902 1.427 . S
C899 H889 0.929 . S
C899 C897 1.433 1_545 S
C899 N902 1.384 . S
C900 H891 0.929 . S
C900 C892 1.378 . S
C900 C895 1.350 . S
C901 H888 0.929 . S
C901 C893 1.433 . S
C901 N903 1.384 . S
N902 C898 1.427 . S
N902 C899 1.384 . S
N903 C895 1.427 . S
N903 C901 1.384 . S
H904 C910 0.930 . S
H905 C914 0.930 . S
H906 C919 0.929 . S
H907 C917 0.929 . S
H908 C912 0.929 . S
H909 C918 0.929 . S
C910 H904 0.930 . S
C910 C911 1.367 . S
C910 C918 1.378 . S
C911 C910 1.367 . S
C911 C919 1.433 . S
C912 H908 0.929 . S
C912 C914 1.378 . S
C912 C916 1.350 . S
C913 C916 1.463 . S
C913 C918 1.350 . S
C913 N921 1.427 . S
C914 H905 0.930 . S
C914 C912 1.378 . S
C914 C915 1.367 . S
C915 C914 1.367 . S
C915 C917 1.433 . S
C916 C912 1.350 . S
C916 C913 1.463 . S
C916 N920 1.427 . S
C917 H907 0.929 . S
C917 C915 1.433 . S
C917 N920 1.384 . S
C918 H909 0.929 . S
C918 C910 1.378 . S
C918 C913 1.350 . S
C919 H906 0.929 . S
C919 C911 1.433 . S
C919 N921 1.384 . S
N920 C916 1.427 . S
N920 C917 1.384 . S
N921 C913 1.427 . S
N921 C919 1.384 . S
H922 C928 0.932 . S
H923 C932 0.930 . S
H924 C937 0.929 . S
H925 C935 0.929 . S
H926 C930 0.929 . S
H927 C936 0.929 . S
C928 H922 0.932 . S
C928 C929 1.367 . S
C928 C936 1.378 1_565 S
C929 C928 1.367 . S
C929 C937 1.433 . S
C930 H926 0.929 . S
C930 C932 1.378 . S
C930 C934 1.350 . S
C931 C934 1.463 . S
C931 C936 1.350 1_565 S
C931 N939 1.427 . S
C932 H923 0.930 . S
C932 C930 1.378 . S
C932 C933 1.367 1_565 S
C933 C932 1.367 1_545 S
C933 C935 1.433 . S
C934 C930 1.350 . S
C934 C931 1.463 . S
C934 N938 1.427 1_565 S
C935 H925 0.929 . S
C935 C933 1.433 . S
C935 N938 1.384 . S
C936 H927 0.929 . S
C936 C928 1.378 1_545 S
C936 C931 1.350 1_545 S
C937 H924 0.929 . S
C937 C929 1.433 . S
C937 N939 1.384 . S
N938 C934 1.427 1_545 S
N938 C935 1.384 . S
N939 C931 1.427 . S
N939 C937 1.384 . S
H940 C946 0.930 . S
H941 C950 0.930 . S
H942 C955 0.929 . S
H943 C953 0.929 . S
H944 C948 0.929 . S
H945 C954 0.929 . S
C946 H940 0.930 . S
C946 C947 1.367 . S
C946 C954 1.378 . S
C947 C946 1.367 . S
C947 C955 1.433 . S
C948 H944 0.929 . S
C948 C950 1.378 . S
C948 C952 1.350 . S
C949 C952 1.463 . S
C949 C954 1.350 . S
C949 N957 1.427 . S
C950 H941 0.930 . S
C950 C948 1.378 . S
C950 C951 1.367 . S
C951 C950 1.367 . S
C951 C953 1.433 . S
C952 C948 1.350 . S
C952 C949 1.463 . S
C952 N956 1.427 . S
C953 H943 0.929 . S
C953 C951 1.433 . S
C953 N956 1.384 . S
C954 H945 0.929 . S
C954 C946 1.378 . S
C954 C949 1.350 . S
C955 H942 0.929 . S
C955 C947 1.433 . S
C955 N957 1.384 . S
N956 C952 1.427 . S
N956 C953 1.384 . S
N957 C949 1.427 . S
N957 C955 1.384 . S
H958 C964 0.930 . S
H959 C968 0.930 . S
H960 C973 0.929 . S
H961 C971 0.929 . S
H962 C966 0.929 1_565 S
H963 C972 0.929 . S
C964 H958 0.930 . S
C964 C965 1.367 1_545 S
C964 C972 1.378 1_455 S
C965 C964 1.367 1_565 S
C965 C973 1.433 1_455 S
C966 H962 0.929 1_545 S
C966 C968 1.378 . S
C966 C970 1.350 . S
C967 C970 1.463 . S
C967 C972 1.350 . S
C967 N975 1.427 1_545 S
C968 H959 0.930 . S
C968 C966 1.378 . S
C968 C969 1.367 . S
C969 C968 1.367 . S
C969 C971 1.433 . S
C970 C966 1.350 . S
C970 C967 1.463 . S
C970 N974 1.427 . S
C971 H961 0.929 . S
C971 C969 1.433 . S
C971 N974 1.384 . S
C972 H963 0.929 . S
C972 C964 1.378 1_655 S
C972 C967 1.350 . S
C973 H960 0.929 . S
C973 C965 1.433 1_655 S
C973 N975 1.384 . S
N974 C970 1.427 . S
N974 C971 1.384 . S
N975 C967 1.427 1_565 S
N975 C973 1.384 . S
H976 C982 0.930 . S
H977 C986 0.930 . S
H978 C991 0.929 . S
H979 C989 0.929 . S
H980 C984 0.929 . S
H981 C990 0.929 . S
C982 H976 0.930 . S
C982 C983 1.367 . S
C982 C990 1.378 . S
C983 C982 1.367 . S
C983 C991 1.433 . S
C984 H980 0.929 . S
C984 C986 1.378 . S
C984 C988 1.350 . S
C985 C988 1.463 . S
C985 C990 1.350 . S
C985 N993 1.427 . S
C986 H977 0.930 . S
C986 C984 1.378 . S
C986 C987 1.367 . S
C987 C986 1.367 . S
C987 C989 1.433 . S
C988 C984 1.350 . S
C988 C985 1.463 . S
C988 N992 1.427 . S
C989 H979 0.929 . S
C989 C987 1.433 . S
C989 N992 1.384 . S
C990 H981 0.929 . S
C990 C982 1.378 . S
C990 C985 1.350 . S
C991 H978 0.929 . S
C991 C983 1.433 . S
C991 N993 1.384 . S
N992 C988 1.427 . S
N992 C989 1.384 . S
N993 C985 1.427 . S
N993 C991 1.384 . S
H994 C1000 0.930 . S
H995 C1004 0.930 . S
H996 C1009 0.929 . S
H997 C1007 0.929 . S
H998 C1002 0.929 . S
H999 C1008 0.929 . S
C1000 H994 0.930 . S
C1000 C1001 1.367 . S
C1000 C1008 1.378 . S
C1001 C1000 1.367 . S
C1001 C1009 1.433 . S
C1002 H998 0.929 . S
C1002 C1004 1.378 . S
C1002 C1006 1.350 . S
C1003 C1006 1.463 . S
C1003 C1008 1.350 . S
C1003 N1011 1.427 . S
C1004 H995 0.930 . S
C1004 C1002 1.378 . S
C1004 C1005 1.367 . S
C1005 C1004 1.367 . S
C1005 C1007 1.433 . S
C1006 C1002 1.350 . S
C1006 C1003 1.463 . S
C1006 N1010 1.427 . S
C1007 H997 0.929 . S
C1007 C1005 1.433 . S
C1007 N1010 1.384 . S
C1008 H999 0.929 . S
C1008 C1000 1.378 . S
C1008 C1003 1.350 . S
C1009 H996 0.929 . S
C1009 C1001 1.433 . S
C1009 N1011 1.384 . S
N1010 C1006 1.427 . S
N1010 C1007 1.384 . S
N1011 C1003 1.427 . S
N1011 C1009 1.384 . S
H1012 C1018 0.930 . S
H1013 C1022 0.930 . S
H1014 C1027 0.929 . S
H1015 C1025 0.929 . S
H1016 C1020 0.929 . S
H1017 C1026 0.929 . S
C1018 H1012 0.930 . S
C1018 C1019 1.367 . S
C1018 C1026 1.378 . S
C1019 C1018 1.367 . S
C1019 C1027 1.433 . S
C1020 H1016 0.929 . S
C1020 C1022 1.378 . S
C1020 C1024 1.350 . S
C1021 C1024 1.463 . S
C1021 C1026 1.350 . S
C1021 N1029 1.427 . S
C1022 H1013 0.930 . S
C1022 C1020 1.378 . S
C1022 C1023 1.367 . S
C1023 C1022 1.367 . S
C1023 C1025 1.433 . S
C1024 C1020 1.350 . S
C1024 C1021 1.463 . S
C1024 N1028 1.427 . S
C1025 H1015 0.929 . S
C1025 C1023 1.433 . S
C1025 N1028 1.384 . S
C1026 H1017 0.929 . S
C1026 C1018 1.378 . S
C1026 C1021 1.350 . S
C1027 H1014 0.929 . S
C1027 C1019 1.433 . S
C1027 N1029 1.384 . S
N1028 C1024 1.427 . S
N1028 C1025 1.384 . S
N1029 C1021 1.427 . S
N1029 C1027 1.384 . S
H1030 C1036 0.930 . S
H1031 C1040 0.930 . S
H1032 C1045 0.929 . S
H1033 C1043 0.929 . S
H1034 C1038 0.929 . S
H1035 C1044 0.929 . S
C1036 H1030 0.930 . S
C1036 C1037 1.367 . S
C1036 C1044 1.378 . S
C1037 C1036 1.367 . S
C1037 C1045 1.433 . S
C1038 H1034 0.929 . S
C1038 C1040 1.378 . S
C1038 C1042 1.350 . S
C1039 C1042 1.463 . S
C1039 C1044 1.350 . S
C1039 N1047 1.427 . S
C1040 H1031 0.930 . S
C1040 C1038 1.378 . S
C1040 C1041 1.367 . S
C1041 C1040 1.367 . S
C1041 C1043 1.433 . S
C1042 C1038 1.350 . S
C1042 C1039 1.463 . S
C1042 N1046 1.427 . S
C1043 H1033 0.929 . S
C1043 C1041 1.433 . S
C1043 N1046 1.384 . S
C1044 H1035 0.929 . S
C1044 C1036 1.378 . S
C1044 C1039 1.350 . S
C1045 H1032 0.929 . S
C1045 C1037 1.433 . S
C1045 N1047 1.384 . S
N1046 C1042 1.427 . S
N1046 C1043 1.384 . S
N1047 C1039 1.427 . S
N1047 C1045 1.384 . S
H1048 C1054 0.930 . S
H1049 C1058 0.930 . S
H1050 C1063 0.929 . S
H1051 C1061 0.929 . S
H1052 C1056 0.929 . S
H1053 C1062 0.929 . S
C1054 H1048 0.930 . S
C1054 C1055 1.367 . S
C1054 C1062 1.378 . S
C1055 C1054 1.367 . S
C1055 C1063 1.433 . S
C1056 H1052 0.929 . S
C1056 C1058 1.378 . S
C1056 C1060 1.350 . S
C1057 C1060 1.463 . S
C1057 C1062 1.350 . S
C1057 N1065 1.427 . S
C1058 H1049 0.930 . S
C1058 C1056 1.378 . S
C1058 C1059 1.367 . S
C1059 C1058 1.367 . S
C1059 C1061 1.433 . S
C1060 C1056 1.350 . S
C1060 C1057 1.463 . S
C1060 N1064 1.427 . S
C1061 H1051 0.929 . S
C1061 C1059 1.433 . S
C1061 N1064 1.384 . S
C1062 H1053 0.929 . S
C1062 C1054 1.378 . S
C1062 C1057 1.350 . S
C1063 H1050 0.929 . S
C1063 C1055 1.433 . S
C1063 N1065 1.384 . S
N1064 C1060 1.427 . S
N1064 C1061 1.384 . S
N1065 C1057 1.427 . S
N1065 C1063 1.384 . S
H1066 C1072 0.930 . S
H1067 C1076 0.930 . S
H1068 C1081 0.929 . S
H1069 C1079 0.929 . S
H1070 C1074 0.929 . S
H1071 C1080 0.929 . S
C1072 H1066 0.930 . S
C1072 C1073 1.367 . S
C1072 C1080 1.378 . S
C1073 C1072 1.367 . S
C1073 C1081 1.433 . S
C1074 H1070 0.929 . S
C1074 C1076 1.378 . S
C1074 C1078 1.350 . S
C1075 C1078 1.463 . S
C1075 C1080 1.350 . S
C1075 N1083 1.427 . S
C1076 H1067 0.930 . S
C1076 C1074 1.378 . S
C1076 C1077 1.366 . S
C1077 C1076 1.366 . S
C1077 C1079 1.432 . S
C1078 C1074 1.350 . S
C1078 C1075 1.463 . S
C1078 N1082 1.427 . S
C1079 H1069 0.929 . S
C1079 C1077 1.432 . S
C1079 N1082 1.384 . S
C1080 H1071 0.929 . S
C1080 C1072 1.378 . S
C1080 C1075 1.350 . S
C1081 H1068 0.929 . S
C1081 C1073 1.433 . S
C1081 N1083 1.384 . S
N1082 C1078 1.427 . S
N1082 C1079 1.384 . S
N1083 C1075 1.427 . S
N1083 C1081 1.384 . S
H1084 C1090 0.930 . S
H1085 C1094 0.930 . S
H1086 C1099 0.929 . S
H1087 C1097 0.929 . S
H1088 C1092 0.929 . S
H1089 C1098 0.929 . S
C1090 H1084 0.930 . S
C1090 C1091 1.367 . S
C1090 C1098 1.378 . S
C1091 C1090 1.367 . S
C1091 C1099 1.433 . S
C1092 H1088 0.929 . S
C1092 C1094 1.378 . S
C1092 C1096 1.350 . S
C1093 C1096 1.463 . S
C1093 C1098 1.350 . S
C1093 N1101 1.427 . S
C1094 H1085 0.930 . S
C1094 C1092 1.378 . S
C1094 C1095 1.367 . S
C1095 C1094 1.367 . S
C1095 C1097 1.433 . S
C1096 C1092 1.350 . S
C1096 C1093 1.463 . S
C1096 N1100 1.427 . S
C1097 H1087 0.929 . S
C1097 C1095 1.433 . S
C1097 N1100 1.384 . S
C1098 H1089 0.929 . S
C1098 C1090 1.378 . S
C1098 C1093 1.350 . S
C1099 H1086 0.929 . S
C1099 C1091 1.433 . S
C1099 N1101 1.384 . S
N1100 C1096 1.427 . S
N1100 C1097 1.384 . S
N1101 C1093 1.427 . S
N1101 C1099 1.384 . S
H1102 C1108 0.930 . S
H1103 C1112 0.930 . S
H1104 C1117 0.929 . S
H1105 C1115 0.929 . S
H1106 C1110 0.929 . S
H1107 C1116 0.929 . S
C1108 H1102 0.930 . S
C1108 C1109 1.367 . S
C1108 C1116 1.378 . S
C1109 C1108 1.367 . S
C1109 C1117 1.433 . S
C1110 H1106 0.929 . S
C1110 C1112 1.378 . S
C1110 C1114 1.350 . S
C1111 C1114 1.463 . S
C1111 C1116 1.350 . S
C1111 N1119 1.427 . S
C1112 H1103 0.930 . S
C1112 C1110 1.378 . S
C1112 C1113 1.367 . S
C1113 C1112 1.367 . S
C1113 C1115 1.433 . S
C1114 C1110 1.350 . S
C1114 C1111 1.463 . S
C1114 N1118 1.427 . S
C1115 H1105 0.929 . S
C1115 C1113 1.433 . S
C1115 N1118 1.384 . S
C1116 H1107 0.929 . S
C1116 C1108 1.378 . S
C1116 C1111 1.350 . S
C1117 H1104 0.929 . S
C1117 C1109 1.433 . S
C1117 N1119 1.384 . S
N1118 C1114 1.427 . S
N1118 C1115 1.384 . S
N1119 C1111 1.427 . S
N1119 C1117 1.384 . S
H1120 C1126 0.930 . S
H1121 C1130 0.930 . S
H1122 C1135 0.929 . S
H1123 C1133 0.929 . S
H1124 C1128 0.929 . S
H1125 C1134 0.929 . S
C1126 H1120 0.930 . S
C1126 C1127 1.367 . S
C1126 C1134 1.378 . S
C1127 C1126 1.367 . S
C1127 C1135 1.433 . S
C1128 H1124 0.929 . S
C1128 C1130 1.378 . S
C1128 C1132 1.350 . S
C1129 C1132 1.463 . S
C1129 C1134 1.350 . S
C1129 N1137 1.427 . S
C1130 H1121 0.930 . S
C1130 C1128 1.378 . S
C1130 C1131 1.367 . S
C1131 C1130 1.367 . S
C1131 C1133 1.433 . S
C1132 C1128 1.350 . S
C1132 C1129 1.463 . S
C1132 N1136 1.427 . S
C1133 H1123 0.929 . S
C1133 C1131 1.433 . S
C1133 N1136 1.384 . S
C1134 H1125 0.929 . S
C1134 C1126 1.378 . S
C1134 C1129 1.350 . S
C1135 H1122 0.929 . S
C1135 C1127 1.433 . S
C1135 N1137 1.384 . S
N1136 C1132 1.427 . S
N1136 C1133 1.384 . S
N1137 C1129 1.427 . S
N1137 C1135 1.384 . S
H1138 C1144 0.930 . S
H1139 C1148 0.930 . S
H1140 C1153 0.929 . S
H1141 C1151 0.929 . S
H1142 C1146 0.929 . S
H1143 C1152 0.929 . S
C1144 H1138 0.930 . S
C1144 C1145 1.367 . S
C1144 C1152 1.378 . S
C1145 C1144 1.367 . S
C1145 C1153 1.433 . S
C1146 H1142 0.929 . S
C1146 C1148 1.378 . S
C1146 C1150 1.350 . S
C1147 C1150 1.463 . S
C1147 C1152 1.350 . S
C1147 N1155 1.427 . S
C1148 H1139 0.930 . S
C1148 C1146 1.378 . S
C1148 C1149 1.367 . S
C1149 C1148 1.367 . S
C1149 C1151 1.433 . S
C1150 C1146 1.350 . S
C1150 C1147 1.463 . S
C1150 N1154 1.427 . S
C1151 H1141 0.929 . S
C1151 C1149 1.433 . S
C1151 N1154 1.384 . S
C1152 H1143 0.929 . S
C1152 C1144 1.378 . S
C1152 C1147 1.350 . S
C1153 H1140 0.929 . S
C1153 C1145 1.433 . S
C1153 N1155 1.384 . S
N1154 C1150 1.427 . S
N1154 C1151 1.384 . S
N1155 C1147 1.427 . S
N1155 C1153 1.384 . S
H1156 C1162 0.930 . S
H1157 C1166 0.930 . S
H1158 C1171 0.929 . S
H1159 C1169 0.929 . S
H1160 C1164 0.929 . S
H1161 C1170 0.929 . S
C1162 H1156 0.930 . S
C1162 C1163 1.367 . S
C1162 C1170 1.378 . S
C1163 C1162 1.367 . S
C1163 C1171 1.433 . S
C1164 H1160 0.929 . S
C1164 C1166 1.378 . S
C1164 C1168 1.350 . S
C1165 C1168 1.463 . S
C1165 C1170 1.350 . S
C1165 N1173 1.427 . S
C1166 H1157 0.930 . S
C1166 C1164 1.378 . S
C1166 C1167 1.367 . S
C1167 C1166 1.367 . S
C1167 C1169 1.433 . S
C1168 C1164 1.350 . S
C1168 C1165 1.463 . S
C1168 N1172 1.427 . S
C1169 H1159 0.929 . S
C1169 C1167 1.433 . S
C1169 N1172 1.384 . S
C1170 H1161 0.929 . S
C1170 C1162 1.378 . S
C1170 C1165 1.350 . S
C1171 H1158 0.929 . S
C1171 C1163 1.433 . S
C1171 N1173 1.384 . S
N1172 C1168 1.427 . S
N1172 C1169 1.384 . S
N1173 C1165 1.427 . S
N1173 C1171 1.384 . S
H1174 C1180 0.930 . S
H1175 C1184 0.930 . S
H1176 C1189 0.929 . S
H1177 C1187 0.929 . S
H1178 C1182 0.929 . S
H1179 C1188 0.929 . S
C1180 H1174 0.930 . S
C1180 C1181 1.367 . S
C1180 C1188 1.378 . S
C1181 C1180 1.367 . S
C1181 C1189 1.433 . S
C1182 H1178 0.929 . S
C1182 C1184 1.378 . S
C1182 C1186 1.350 . S
C1183 C1186 1.463 . S
C1183 C1188 1.350 . S
C1183 N1191 1.427 . S
C1184 H1175 0.930 . S
C1184 C1182 1.378 . S
C1184 C1185 1.367 . S
C1185 C1184 1.367 . S
C1185 C1187 1.433 . S
C1186 C1182 1.350 . S
C1186 C1183 1.463 . S
C1186 N1190 1.427 . S
C1187 H1177 0.929 . S
C1187 C1185 1.433 . S
C1187 N1190 1.384 . S
C1188 H1179 0.929 . S
C1188 C1180 1.378 . S
C1188 C1183 1.350 . S
C1189 H1176 0.929 . S
C1189 C1181 1.433 . S
C1189 N1191 1.384 . S
N1190 C1186 1.427 . S
N1190 C1187 1.384 . S
N1191 C1183 1.427 . S
N1191 C1189 1.384 . S
H1192 C1198 0.930 . S
H1193 C1202 0.930 . S
H1194 C1207 0.929 . S
H1195 C1205 0.929 . S
H1196 C1200 0.929 . S
H1197 C1206 0.929 . S
C1198 H1192 0.930 . S
C1198 C1199 1.367 . S
C1198 C1206 1.378 . S
C1199 C1198 1.367 . S
C1199 C1207 1.433 . S
C1200 H1196 0.929 . S
C1200 C1202 1.378 . S
C1200 C1204 1.350 . S
C1201 C1204 1.463 . S
C1201 C1206 1.350 . S
C1201 N1209 1.427 . S
C1202 H1193 0.930 . S
C1202 C1200 1.378 . S
C1202 C1203 1.367 . S
C1203 C1202 1.367 . S
C1203 C1205 1.433 . S
C1204 C1200 1.350 . S
C1204 C1201 1.463 . S
C1204 N1208 1.427 . S
C1205 H1195 0.929 . S
C1205 C1203 1.433 . S
C1205 N1208 1.384 . S
C1206 H1197 0.929 . S
C1206 C1198 1.378 . S
C1206 C1201 1.350 . S
C1207 H1194 0.929 . S
C1207 C1199 1.433 . S
C1207 N1209 1.384 . S
N1208 C1204 1.427 . S
N1208 C1205 1.384 . S
N1209 C1201 1.427 . S
N1209 C1207 1.384 . S
H1210 C1216 0.930 . S
H1211 C1220 0.930 . S
H1212 C1225 0.929 . S
H1213 C1223 0.929 . S
H1214 C1218 0.929 . S
H1215 C1224 0.929 . S
C1216 H1210 0.930 . S
C1216 C1217 1.367 . S
C1216 C1224 1.378 . S
C1217 C1216 1.367 . S
C1217 C1225 1.433 . S
C1218 H1214 0.929 . S
C1218 C1220 1.378 . S
C1218 C1222 1.350 . S
C1219 C1222 1.463 . S
C1219 C1224 1.350 . S
C1219 N1227 1.427 . S
C1220 H1211 0.930 . S
C1220 C1218 1.378 . S
C1220 C1221 1.367 1_455 S
C1221 C1220 1.367 1_655 S
C1221 C1223 1.433 . S
C1222 C1218 1.350 . S
C1222 C1219 1.463 . S
C1222 N1226 1.427 . S
C1223 H1213 0.929 . S
C1223 C1221 1.433 . S
C1223 N1226 1.384 1_655 S
C1224 H1215 0.929 . S
C1224 C1216 1.378 . S
C1224 C1219 1.350 . S
C1225 H1212 0.929 . S
C1225 C1217 1.433 . S
C1225 N1227 1.384 . S
N1226 C1222 1.427 . S
N1226 C1223 1.384 1_455 S
N1227 C1219 1.427 . S
N1227 C1225 1.384 . S
H1228 C1234 0.930 . S
H1229 C1238 0.930 . S
H1230 C1243 0.929 . S
H1231 C1241 0.929 . S
H1232 C1236 0.929 . S
H1233 C1242 0.929 . S
C1234 H1228 0.930 . S
C1234 C1235 1.367 . S
C1234 C1242 1.378 . S
C1235 C1234 1.367 . S
C1235 C1243 1.433 . S
C1236 H1232 0.929 . S
C1236 C1238 1.378 . S
C1236 C1240 1.350 . S
C1237 C1240 1.463 . S
C1237 C1242 1.350 . S
C1237 N1245 1.427 . S
C1238 H1229 0.930 . S
C1238 C1236 1.378 . S
C1238 C1239 1.367 . S
C1239 C1238 1.367 . S
C1239 C1241 1.433 . S
C1240 C1236 1.350 . S
C1240 C1237 1.463 . S
C1240 N1244 1.427 . S
C1241 H1231 0.929 . S
C1241 C1239 1.433 . S
C1241 N1244 1.384 . S
C1242 H1233 0.929 . S
C1242 C1234 1.378 . S
C1242 C1237 1.350 . S
C1243 H1230 0.929 . S
C1243 C1235 1.433 . S
C1243 N1245 1.384 . S
N1244 C1240 1.427 . S
N1244 C1241 1.384 . S
N1245 C1237 1.427 . S
N1245 C1243 1.384 . S
H1246 C1252 0.930 . S
H1247 C1256 0.930 . S
H1248 C1261 0.929 . S
H1249 C1259 0.929 . S
H1250 C1254 0.929 . S
H1251 C1260 0.929 . S
C1252 H1246 0.930 . S
C1252 C1253 1.367 . S
C1252 C1260 1.378 . S
C1253 C1252 1.367 . S
C1253 C1261 1.433 . S
C1254 H1250 0.929 . S
C1254 C1256 1.378 . S
C1254 C1258 1.350 . S
C1255 C1258 1.463 . S
C1255 C1260 1.350 . S
C1255 N1263 1.427 . S
C1256 H1247 0.930 . S
C1256 C1254 1.378 . S
C1256 C1257 1.367 . S
C1257 C1256 1.367 . S
C1257 C1259 1.433 . S
C1258 C1254 1.350 . S
C1258 C1255 1.463 . S
C1258 N1262 1.427 . S
C1259 H1249 0.929 . S
C1259 C1257 1.433 . S
C1259 N1262 1.384 . S
C1260 H1251 0.929 . S
C1260 C1252 1.378 . S
C1260 C1255 1.350 . S
C1261 H1248 0.929 . S
C1261 C1253 1.433 . S
C1261 N1263 1.384 . S
N1262 C1258 1.427 . S
N1262 C1259 1.384 . S
N1263 C1255 1.427 . S
N1263 C1261 1.384 . S
H1264 C1270 0.930 . S
H1265 C1274 0.930 . S
H1266 C1279 0.929 . S
H1267 C1277 0.929 . S
H1268 C1272 0.929 1_556 S
H1269 C1278 0.929 . S
C1270 H1264 0.930 . S
C1270 C1271 1.367 . S
C1270 C1278 1.378 . S
C1271 C1270 1.367 . S
C1271 C1279 1.433 . S
C1272 H1268 0.929 1_554 S
C1272 C1274 1.378 . S
C1272 C1276 1.373 . S
C1273 C1276 1.399 1_556 S
C1273 C1278 1.350 . S
C1273 N1281 1.427 . S
C1274 H1265 0.930 . S
C1274 C1272 1.378 . S
C1274 C1275 1.367 . S
C1275 C1274 1.367 . S
C1275 C1277 1.433 . S
C1276 C1272 1.373 . S
C1276 C1273 1.399 1_554 S
C1276 N1280 1.468 . S
C1277 H1267 0.929 . S
C1277 C1275 1.433 . S
C1277 N1280 1.384 . S
C1278 H1269 0.929 . S
C1278 C1270 1.378 . S
C1278 C1273 1.350 . S
C1279 H1266 0.929 . S
C1279 C1271 1.433 . S
C1279 N1281 1.384 . S
N1280 C1276 1.468 . S
N1280 C1277 1.384 . S
N1281 C1273 1.427 . S
N1281 C1279 1.384 . S
H1282 C1288 0.930 . S
H1283 C1292 0.930 . S
H1284 C1297 0.929 1_565 S
H1285 C1295 0.929 . S
H1286 C1290 0.929 . S
H1287 C1296 0.929 . S
C1288 H1282 0.930 . S
C1288 C1289 1.367 . S
C1288 C1296 1.378 . S
C1289 C1288 1.367 . S
C1289 C1297 1.433 . S
C1290 H1286 0.929 . S
C1290 C1292 1.378 . S
C1290 C1294 1.350 1_565 S
C1291 C1294 1.463 . S
C1291 C1296 1.350 . S
C1291 N1299 1.427 1_545 S
C1292 H1283 0.930 . S
C1292 C1290 1.378 . S
C1292 C1293 1.367 . S
C1293 C1292 1.367 . S
C1293 C1295 1.433 1_565 S
C1294 C1290 1.350 1_545 S
C1294 C1291 1.463 . S
C1294 N1298 1.427 . S
C1295 H1285 0.929 . S
C1295 C1293 1.433 1_545 S
C1295 N1298 1.384 . S
C1296 H1287 0.929 . S
C1296 C1288 1.378 . S
C1296 C1291 1.350 . S
C1297 H1284 0.929 1_545 S
C1297 C1289 1.433 . S
C1297 N1299 1.384 1_545 S
N1298 C1294 1.427 . S
N1298 C1295 1.384 . S
N1299 C1291 1.427 1_565 S
N1299 C1297 1.384 1_565 S
H1300 C1306 0.930 . S
H1301 C1310 0.930 . S
H1302 C1315 0.929 . S
H1303 C1313 0.929 . S
H1304 C1308 0.929 . S
H1305 C1314 0.929 . S
C1306 H1300 0.930 . S
C1306 C1307 1.367 . S
C1306 C1314 1.378 . S
C1307 C1306 1.367 . S
C1307 C1315 1.433 . S
C1308 H1304 0.929 . S
C1308 C1310 1.378 . S
C1308 C1312 1.350 . S
C1309 C1312 1.463 . S
C1309 C1314 1.350 . S
C1309 N1317 1.427 . S
C1310 H1301 0.930 . S
C1310 C1308 1.378 . S
C1310 C1311 1.367 . S
C1311 C1310 1.367 . S
C1311 C1313 1.433 . S
C1312 C1308 1.350 . S
C1312 C1309 1.463 . S
C1312 N1316 1.427 . S
C1313 H1303 0.929 . S
C1313 C1311 1.433 . S
C1313 N1316 1.384 . S
C1314 H1305 0.929 . S
C1314 C1306 1.378 . S
C1314 C1309 1.350 . S
C1315 H1302 0.929 . S
C1315 C1307 1.433 . S
C1315 N1317 1.384 . S
N1316 C1312 1.427 . S
N1316 C1313 1.384 . S
N1317 C1309 1.427 . S
N1317 C1315 1.384 . S
H1318 C1324 0.930 . S
H1319 C1328 0.930 . S
H1320 C1333 0.929 . S
H1321 C1331 0.929 . S
H1322 C1326 0.929 . S
H1323 C1332 0.929 . S
C1324 H1318 0.930 . S
C1324 C1325 1.367 . S
C1324 C1332 1.378 . S
C1325 C1324 1.367 . S
C1325 C1333 1.433 1_565 S
C1326 H1322 0.929 . S
C1326 C1328 1.378 . S
C1326 C1330 1.350 1_545 S
C1327 C1330 1.463 . S
C1327 C1332 1.350 . S
C1327 N1335 1.427 1_565 S
C1328 H1319 0.930 . S
C1328 C1326 1.378 . S
C1328 C1329 1.367 . S
C1329 C1328 1.367 . S
C1329 C1331 1.433 1_545 S
C1330 C1326 1.350 1_565 S
C1330 C1327 1.463 . S
C1330 N1334 1.427 . S
C1331 H1321 0.929 . S
C1331 C1329 1.433 1_565 S
C1331 N1334 1.384 . S
C1332 H1323 0.929 . S
C1332 C1324 1.378 . S
C1332 C1327 1.350 . S
C1333 H1320 0.929 . S
C1333 C1325 1.433 1_545 S
C1333 N1335 1.384 . S
N1334 C1330 1.427 . S
N1334 C1331 1.384 . S
N1335 C1327 1.427 1_545 S
N1335 C1333 1.384 . S
H1336 C1342 0.930 . S
H1337 C1346 0.930 . S
H1338 C1351 0.929 . S
H1339 C1349 0.929 . S
H1340 C1344 0.929 . S
H1341 C1350 0.929 1_554 S
C1342 H1336 0.930 . S
C1342 C1343 1.367 . S
C1342 C1350 1.378 . S
C1343 C1342 1.367 . S
C1343 C1351 1.433 . S
C1344 H1340 0.929 . S
C1344 C1346 1.378 . S
C1344 C1348 1.350 . S
C1345 C1348 1.429 1_556 S
C1345 C1350 1.361 . S
C1345 N1353 1.449 . S
C1346 H1337 0.930 . S
C1346 C1344 1.378 . S
C1346 C1347 1.367 . S
C1347 C1346 1.367 . S
C1347 C1349 1.433 . S
C1348 C1344 1.350 . S
C1348 C1345 1.429 1_554 S
C1348 N1352 1.427 . S
C1349 H1339 0.929 . S
C1349 C1347 1.433 . S
C1349 N1352 1.384 . S
C1350 H1341 0.929 1_556 S
C1350 C1342 1.378 . S
C1350 C1345 1.361 . S
C1351 H1338 0.929 . S
C1351 C1343 1.433 . S
C1351 N1353 1.384 . S
N1352 C1348 1.427 . S
N1352 C1349 1.384 . S
N1353 C1345 1.449 . S
N1353 C1351 1.384 . S
H1354 C1360 0.930 . S
H1355 C1364 0.930 . S
H1356 C1369 0.929 . S
H1357 C1367 0.929 . S
H1358 C1362 0.929 . S
H1359 C1368 0.929 . S
C1360 H1354 0.930 . S
C1360 C1361 1.367 1_565 S
C1360 C1368 1.378 . S
C1361 C1360 1.367 1_545 S
C1361 C1369 1.433 . S
C1362 H1358 0.929 . S
C1362 C1364 1.378 . S
C1362 C1366 1.350 . S
C1363 C1366 1.463 . S
C1363 C1368 1.350 1_545 S
C1363 N1371 1.427 . S
C1364 H1355 0.930 . S
C1364 C1362 1.378 . S
C1364 C1365 1.367 1_545 S
C1365 C1364 1.367 1_565 S
C1365 C1367 1.433 . S
C1366 C1362 1.350 . S
C1366 C1363 1.463 . S
C1366 N1370 1.427 1_545 S
C1367 H1357 0.929 . S
C1367 C1365 1.433 . S
C1367 N1370 1.384 . S
C1368 H1359 0.929 . S
C1368 C1360 1.378 . S
C1368 C1363 1.350 1_565 S
C1369 H1356 0.929 . S
C1369 C1361 1.433 . S
C1369 N1371 1.384 . S
N1370 C1366 1.427 1_565 S
N1370 C1367 1.384 . S
N1371 C1363 1.427 . S
N1371 C1369 1.384 . S
H1372 C1378 0.930 . S
H1373 C1382 0.930 . S
H1374 C1387 0.929 . S
H1375 C1385 0.929 . S
H1376 C1380 0.929 . S
H1377 C1386 0.929 . S
C1378 H1372 0.930 . S
C1378 C1379 1.367 . S
C1378 C1386 1.378 . S
C1379 C1378 1.367 . S
C1379 C1387 1.433 . S
C1380 H1376 0.929 . S
C1380 C1382 1.378 . S
C1380 C1384 1.350 . S
C1381 C1384 1.463 . S
C1381 C1386 1.350 . S
C1381 N1389 1.427 . S
C1382 H1373 0.930 . S
C1382 C1380 1.378 . S
C1382 C1383 1.367 . S
C1383 C1382 1.367 . S
C1383 C1385 1.433 . S
C1384 C1380 1.350 . S
C1384 C1381 1.463 . S
C1384 N1388 1.427 . S
C1385 H1375 0.929 . S
C1385 C1383 1.433 . S
C1385 N1388 1.384 . S
C1386 H1377 0.929 . S
C1386 C1378 1.378 . S
C1386 C1381 1.350 . S
C1387 H1374 0.929 . S
C1387 C1379 1.433 . S
C1387 N1389 1.384 . S
N1388 C1384 1.427 . S
N1388 C1385 1.384 . S
N1389 C1381 1.427 . S
N1389 C1387 1.384 . S
H1390 C1396 0.930 . S
H1391 C1400 0.930 . S
H1392 C1405 0.929 . S
H1393 C1403 0.929 . S
H1394 C1398 0.929 . S
H1395 C1404 0.929 . S
C1396 H1390 0.930 . S
C1396 C1397 1.367 1_565 S
C1396 C1404 1.378 . S
C1397 C1396 1.367 1_545 S
C1397 C1405 1.433 . S
C1398 H1394 0.929 . S
C1398 C1400 1.378 . S
C1398 C1402 1.350 . S
C1399 C1402 1.463 . S
C1399 C1404 1.350 1_545 S
C1399 N1407 1.427 . S
C1400 H1391 0.930 . S
C1400 C1398 1.378 . S
C1400 C1401 1.367 1_545 S
C1401 C1400 1.367 1_565 S
C1401 C1403 1.433 . S
C1402 C1398 1.350 . S
C1402 C1399 1.463 . S
C1402 N1406 1.427 1_545 S
C1403 H1393 0.929 . S
C1403 C1401 1.433 . S
C1403 N1406 1.384 . S
C1404 H1395 0.929 . S
C1404 C1396 1.378 . S
C1404 C1399 1.350 1_565 S
C1405 H1392 0.929 . S
C1405 C1397 1.433 . S
C1405 N1407 1.384 . S
N1406 C1402 1.427 1_565 S
N1406 C1403 1.384 . S
N1407 C1399 1.427 . S
N1407 C1405 1.384 . S
H1408 C1414 0.930 . S
H1409 C1418 0.930 . S
H1410 C1423 0.929 . S
H1411 C1421 0.929 . S
H1412 C1416 0.929 . S
H1413 C1422 0.929 . S
C1414 H1408 0.930 . S
C1414 C1415 1.367 . S
C1414 C1422 1.378 . S
C1415 C1414 1.367 . S
C1415 C1423 1.433 . S
C1416 H1412 0.929 . S
C1416 C1418 1.378 . S
C1416 C1420 1.350 . S
C1417 C1420 1.463 . S
C1417 C1422 1.350 . S
C1417 N1425 1.427 . S
C1418 H1409 0.930 . S
C1418 C1416 1.378 . S
C1418 C1419 1.367 . S
C1419 C1418 1.367 . S
C1419 C1421 1.433 . S
C1420 C1416 1.350 . S
C1420 C1417 1.463 . S
C1420 N1424 1.427 . S
C1421 H1411 0.929 . S
C1421 C1419 1.433 . S
C1421 N1424 1.384 . S
C1422 H1413 0.929 . S
C1422 C1414 1.378 . S
C1422 C1417 1.350 . S
C1423 H1410 0.929 . S
C1423 C1415 1.433 . S
C1423 N1425 1.384 . S
N1424 C1420 1.427 . S
N1424 C1421 1.384 . S
N1425 C1417 1.427 . S
N1425 C1423 1.384 . S
H1426 C1432 0.930 . S
H1427 C1436 0.930 . S
H1428 C1441 0.929 . S
H1429 C1439 0.929 . S
H1430 C1434 0.929 . S
H1431 C1440 0.929 . S
C1432 H1426 0.930 . S
C1432 C1433 1.367 . S
C1432 C1440 1.378 . S
C1433 C1432 1.367 . S
C1433 C1441 1.433 . S
C1434 H1430 0.929 . S
C1434 C1436 1.378 . S
C1434 C1438 1.350 . S
C1435 C1438 1.463 . S
C1435 C1440 1.350 . S
C1435 N1443 1.427 . S
C1436 H1427 0.930 . S
C1436 C1434 1.378 . S
C1436 C1437 1.367 . S
C1437 C1436 1.367 . S
C1437 C1439 1.433 . S
C1438 C1434 1.350 . S
C1438 C1435 1.463 . S
C1438 N1442 1.427 . S
C1439 H1429 0.929 . S
C1439 C1437 1.433 . S
C1439 N1442 1.384 . S
C1440 H1431 0.929 . S
C1440 C1432 1.378 . S
C1440 C1435 1.350 . S
C1441 H1428 0.929 . S
C1441 C1433 1.433 . S
C1441 N1443 1.384 . S
N1442 C1438 1.427 . S
N1442 C1439 1.384 . S
N1443 C1435 1.427 . S
N1443 C1441 1.384 . S
H1444 C1450 0.930 . S
H1445 C1454 0.930 . S
H1446 C1459 0.929 . S
H1447 C1457 0.929 . S
H1448 C1452 0.929 . S
H1449 C1458 0.929 . S
C1450 H1444 0.930 . S
C1450 C1451 1.367 . S
C1450 C1458 1.378 . S
C1451 C1450 1.367 . S
C1451 C1459 1.433 . S
C1452 H1448 0.929 . S
C1452 C1454 1.378 . S
C1452 C1456 1.350 . S
C1453 C1456 1.463 1_554 S
C1453 C1458 1.350 . S
C1453 N1461 1.427 . S
C1454 H1445 0.930 . S
C1454 C1452 1.378 . S
C1454 C1455 1.367 . S
C1455 C1454 1.367 . S
C1455 C1457 1.433 . S
C1456 C1452 1.350 . S
C1456 C1453 1.463 1_556 S
C1456 N1460 1.427 . S
C1457 H1447 0.929 . S
C1457 C1455 1.433 . S
C1457 N1460 1.384 . S
C1458 H1449 0.929 . S
C1458 C1450 1.378 . S
C1458 C1453 1.350 . S
C1459 H1446 0.929 . S
C1459 C1451 1.433 . S
C1459 N1461 1.384 . S
N1460 C1456 1.427 . S
N1460 C1457 1.384 . S
N1461 C1453 1.427 . S
N1461 C1459 1.384 . S
H1462 C1468 0.930 . S
H1463 C1472 0.930 . S
H1464 C1477 0.929 . S
H1465 C1475 0.929 . S
H1466 C1470 0.929 . S
H1467 C1476 0.929 . S
C1468 H1462 0.930 . S
C1468 C1469 1.367 . S
C1468 C1476 1.378 . S
C1469 C1468 1.367 . S
C1469 C1477 1.433 . S
C1470 H1466 0.929 . S
C1470 C1472 1.378 . S
C1470 C1474 1.350 . S
C1471 C1474 1.463 . S
C1471 C1476 1.350 . S
C1471 N1479 1.427 . S
C1472 H1463 0.930 . S
C1472 C1470 1.378 . S
C1472 C1473 1.367 . S
C1473 C1472 1.367 . S
C1473 C1475 1.433 . S
C1474 C1470 1.350 . S
C1474 C1471 1.463 . S
C1474 N1478 1.427 . S
C1475 H1465 0.929 . S
C1475 C1473 1.433 . S
C1475 N1478 1.384 . S
C1476 H1467 0.929 . S
C1476 C1468 1.378 . S
C1476 C1471 1.350 . S
C1477 H1464 0.929 . S
C1477 C1469 1.433 . S
C1477 N1479 1.384 . S
N1478 C1474 1.427 . S
N1478 C1475 1.384 . S
N1479 C1471 1.427 . S
N1479 C1477 1.384 . S
H1480 C1486 0.930 . S
H1481 C1490 0.930 . S
H1482 C1495 0.929 1_565 S
H1483 C1493 0.929 . S
H1484 C1488 0.929 . S
H1485 C1494 0.929 . S
C1486 H1480 0.930 . S
C1486 C1487 1.367 . S
C1486 C1494 1.378 . S
C1487 C1486 1.367 . S
C1487 C1495 1.433 . S
C1488 H1484 0.929 . S
C1488 C1490 1.378 . S
C1488 C1492 1.350 . S
C1489 C1492 1.463 . S
C1489 C1494 1.350 . S
C1489 N1497 1.427 . S
C1490 H1481 0.930 . S
C1490 C1488 1.378 . S
C1490 C1491 1.367 . S
C1491 C1490 1.367 . S
C1491 C1493 1.433 . S
C1492 C1488 1.350 . S
C1492 C1489 1.463 . S
C1492 N1496 1.427 . S
C1493 H1483 0.929 . S
C1493 C1491 1.433 . S
C1493 N1496 1.384 . S
C1494 H1485 0.929 . S
C1494 C1486 1.378 . S
C1494 C1489 1.350 . S
C1495 H1482 0.929 1_545 S
C1495 C1487 1.433 . S
C1495 N1497 1.384 . S
N1496 C1492 1.427 . S
N1496 C1493 1.384 . S
N1497 C1489 1.427 . S
N1497 C1495 1.384 . S
H1498 C1504 0.930 . S
H1499 C1508 0.930 . S
H1500 C1513 0.929 . S
H1501 C1511 0.929 . S
H1502 C1506 0.929 . S
H1503 C1512 0.929 . S
C1504 H1498 0.930 . S
C1504 C1505 1.367 . S
C1504 C1512 1.378 . S
C1505 C1504 1.367 . S
C1505 C1513 1.433 . S
C1506 H1502 0.929 . S
C1506 C1508 1.378 . S
C1506 C1510 1.350 . S
C1507 C1510 1.463 . S
C1507 C1512 1.350 . S
C1507 N1515 1.427 . S
C1508 H1499 0.930 . S
C1508 C1506 1.378 . S
C1508 C1509 1.367 . S
C1509 C1508 1.367 . S
C1509 C1511 1.433 . S
C1510 C1506 1.350 . S
C1510 C1507 1.463 . S
C1510 N1514 1.427 . S
C1511 H1501 0.929 . S
C1511 C1509 1.433 . S
C1511 N1514 1.384 . S
C1512 H1503 0.929 . S
C1512 C1504 1.378 . S
C1512 C1507 1.350 . S
C1513 H1500 0.929 . S
C1513 C1505 1.433 . S
C1513 N1515 1.384 . S
N1514 C1510 1.427 . S
N1514 C1511 1.384 . S
N1515 C1507 1.427 . S
N1515 C1513 1.384 . S
H1516 C1522 0.930 . S
H1517 C1526 0.930 . S
H1518 C1531 0.929 . S
H1519 C1529 0.929 . S
H1520 C1524 0.929 . S
H1521 C1530 0.929 . S
C1522 H1516 0.930 . S
C1522 C1523 1.367 . S
C1522 C1530 1.378 . S
C1523 C1522 1.367 . S
C1523 C1531 1.433 . S
C1524 H1520 0.929 . S
C1524 C1526 1.378 . S
C1524 C1528 1.350 . S
C1525 C1528 1.463 1_554 S
C1525 C1530 1.350 . S
C1525 N1533 1.427 . S
C1526 H1517 0.930 . S
C1526 C1524 1.378 . S
C1526 C1527 1.367 . S
C1527 C1526 1.367 . S
C1527 C1529 1.433 . S
C1528 C1524 1.350 . S
C1528 C1525 1.463 1_556 S
C1528 N1532 1.427 . S
C1529 H1519 0.929 . S
C1529 C1527 1.433 . S
C1529 N1532 1.384 . S
C1530 H1521 0.929 . S
C1530 C1522 1.378 . S
C1530 C1525 1.350 . S
C1531 H1518 0.929 . S
C1531 C1523 1.433 . S
C1531 N1533 1.384 . S
N1532 C1528 1.427 . S
N1532 C1529 1.384 . S
N1533 C1525 1.427 . S
N1533 C1531 1.384 . S
H1534 C1540 0.930 . S
H1535 C1544 0.930 . S
H1536 C1549 0.929 . S
H1537 C1547 0.929 . S
H1538 C1542 0.929 . S
H1539 C1548 0.929 . S
C1540 H1534 0.930 . S
C1540 C1541 1.367 . S
C1540 C1548 1.378 . S
C1541 C1540 1.367 . S
C1541 C1549 1.433 . S
C1542 H1538 0.929 . S
C1542 C1544 1.378 . S
C1542 C1546 1.350 . S
C1543 C1546 1.463 . S
C1543 C1548 1.350 . S
C1543 N1551 1.427 . S
C1544 H1535 0.930 . S
C1544 C1542 1.378 . S
C1544 C1545 1.367 . S
C1545 C1544 1.367 . S
C1545 C1547 1.433 . S
C1546 C1542 1.350 . S
C1546 C1543 1.463 . S
C1546 N1550 1.427 . S
C1547 H1537 0.929 . S
C1547 C1545 1.433 . S
C1547 N1550 1.384 . S
C1548 H1539 0.929 . S
C1548 C1540 1.378 . S
C1548 C1543 1.350 . S
C1549 H1536 0.929 . S
C1549 C1541 1.433 . S
C1549 N1551 1.384 . S
N1550 C1546 1.427 . S
N1550 C1547 1.384 . S
N1551 C1543 1.427 . S
N1551 C1549 1.384 . S
C551 C1 1.548 . S
C555 C241 1.566 . S
C569 C35 1.493 . S
C573 C139 1.526 . S
C587 C71 1.439 . S
C591 C171 1.445 . S
C605 C205 1.586 . S
C609 C105 1.595 . S
C623 C275 1.506 . S
C627 C513 1.537 . S
C641 C307 1.590 . S
C645 C411 1.596 . S
C659 C445 1.487 . S
C663 C343 1.503 . S
C677 C377 1.630 . S
C681 C477 1.615 . S
C695 C391 2.490 . S
C699 C3 2.298 . S
C713 C37 1.838 . S
C717 C448 1.974 . S
C731 C96 1.375 . S
C735 C323 1.369 . S
C749 C130 1.835 . S
C753 C527 1.836 . S
C767 C459 2.008 1_565 S
C771 C137 1.874 . S
C785 C176 0.877 . S
C789 C334 0.868 . S
C803 C516 1.282 . S
C807 C207 1.306 . S
C821 C380 1.816 . S
C825 C239 1.721 . S
C839 C273 2.337 . S
C843 C119 2.532 1_565 S
C857 C312 1.116 1_565 S
C861 C198 1.093 . S
C875 C368 0.802 . S
C879 C62 0.802 . S
C893 C255 1.700 . S
C897 C402 1.702 . S
C911 C409 1.888 . S
C915 C187 2.030 1_545 S
C929 C51 1.401 . S
C933 C470 1.406 . S
C947 C244 1.274 . S
C951 C479 1.276 . S
C965 C511 1.490 . S
C969 C108 1.578 . S
C983 C425 2.289 . S
C987 C173 2.100 . S
C1001 C278 1.092 . S
C1005 C210 1.108 . S
C1019 C493 1.169 . S
C1023 C266 1.175 . S
C1037 C357 1.728 . S
C1041 C164 1.731 1_655 S
C1055 C289 1.920 . S
C1059 C103 1.826 . S
C1073 C504 0.679 . S
C1077 C6 0.674 1_655 S
C1091 C40 0.566 . S
C1095 C346 0.613 . S
C1109 C414 1.624 . S
C1113 C69 1.517 . S
C1127 C443 2.236 . S
C1131 C153 2.418 . S
C1145 C28 1.100 . S
C1149 C482 1.130 . S
C1163 C538 1.415 . S
C1167 C221 1.407 . S
C1181 C436 1.852 1_455 S
C1185 C85 1.848 . S
C1199 C375 1.771 . S
C1203 C17 1.879 . S
C1217 C232 0.661 . S
C1221 C300 0.636 . S
C1235 C74 1.253 . S
C1239 C309 1.262 . S
C1253 C341 1.591 . S
C1257 C142 1.702 . S
C1271 C219 1.584 . S
C1275 C15 1.578 . S
C1289 C260 1.581 . S
C1293 C49 1.589 . S
C1307 C83 1.441 . S
C1311 C158 1.430 . S
C1325 C192 1.822 . S
C1329 C117 1.712 . S
C1343 C294 1.538 . S
C1347 C491 1.551 . S
C1361 C328 1.562 . S
C1365 C532 1.614 . S
C1379 C430 1.730 . S
C1383 C355 1.720 . S
C1397 C457 1.610 . S
C1401 C389 1.564 . S
C1415 C56 1.503 . S
C1419 C185 1.522 . S
C1433 C90 1.607 . S
C1437 C226 1.570 . S
C1451 C253 1.570 . S
C1455 C124 1.614 . S
C1469 C151 1.900 . S
C1473 C22 1.941 . S
C1487 C321 1.650 . S
C1491 C464 1.631 . S
C1505 C498 1.559 . S
C1509 C362 1.654 . S
C1523 C396 1.564 . S
C1527 C525 1.550 . S
C1541 C423 1.753 . S
C1545 C287 1.848 . S
