# Generated by pormake.
# Topology uod, (4)-cn, num edge types: 1
# Building blocks:
#     Node 0, Type 0, BuildingBlock: GALJAG_clean_sbu_0, # of connection points: 4
#     Node 1, Type 0, BuildingBlock: GALJAG_clean_sbu_0, # of connection points: 4
#     Node 2, Type 0, BuildingBlock: GALJAG_clean_sbu_0, # of connection points: 4
#     Node 3, Type 0, BuildingBlock: GALJAG_clean_sbu_0, # of connection points: 4
#     Node 4, Type 0, BuildingBlock: GALJAG_clean_sbu_0, # of connection points: 4
#     Node 5, Type 0, BuildingBlock: GALJAG_clean_sbu_0, # of connection points: 4
#     Node 6, Type 0, BuildingBlock: GALJAG_clean_sbu_0, # of connection points: 4
#     Node 7, Type 0, BuildingBlock: GALJAG_clean_sbu_0, # of connection points: 4
#     Node 8, Type 0, BuildingBlock: GALJAG_clean_sbu_0, # of connection points: 4
#     Node 9, Type 0, BuildingBlock: GALJAG_clean_sbu_0, # of connection points: 4
#     Node 10, Type 0, BuildingBlock: GALJAG_clean_sbu_0, # of connection points: 4
#     Node 11, Type 0, BuildingBlock: GALJAG_clean_sbu_0, # of connection points: 4
#     Node 12, Type 0, BuildingBlock: GALJAG_clean_sbu_0, # of connection points: 4
#     Node 13, Type 0, BuildingBlock: GALJAG_clean_sbu_0, # of connection points: 4
#     Node 14, Type 0, BuildingBlock: GALJAG_clean_sbu_0, # of connection points: 4
#     Node 15, Type 0, BuildingBlock: GALJAG_clean_sbu_0, # of connection points: 4
#     Node 16, Type 0, BuildingBlock: GALJAG_clean_sbu_0, # of connection points: 4
#     Node 17, Type 0, BuildingBlock: GALJAG_clean_sbu_0, # of connection points: 4
#     Node 18, Type 0, BuildingBlock: GALJAG_clean_sbu_0, # of connection points: 4
#     Node 19, Type 0, BuildingBlock: GALJAG_clean_sbu_0, # of connection points: 4
#     Node 20, Type 0, BuildingBlock: GALJAG_clean_sbu_0, # of connection points: 4
#     Node 21, Type 0, BuildingBlock: GALJAG_clean_sbu_0, # of connection points: 4
#     Node 22, Type 0, BuildingBlock: GALJAG_clean_sbu_0, # of connection points: 4
#     Node 23, Type 0, BuildingBlock: GALJAG_clean_sbu_0, # of connection points: 4
#     Node 24, Type 0, BuildingBlock: GALJAG_clean_sbu_0, # of connection points: 4
#     Node 25, Type 0, BuildingBlock: GALJAG_clean_sbu_0, # of connection points: 4
#     Node 26, Type 0, BuildingBlock: GALJAG_clean_sbu_0, # of connection points: 4
#     Node 27, Type 0, BuildingBlock: GALJAG_clean_sbu_0, # of connection points: 4
#     Node 28, Type 0, BuildingBlock: GALJAG_clean_sbu_0, # of connection points: 4
#     Node 29, Type 0, BuildingBlock: GALJAG_clean_sbu_0, # of connection points: 4
#     Node 30, Type 0, BuildingBlock: GALJAG_clean_sbu_0, # of connection points: 4
#     Node 31, Type 0, BuildingBlock: GALJAG_clean_sbu_0, # of connection points: 4
#     Edge 32, Type (0, 0), BuildingBlock: XIVTED_clean_linker_0, # of connection points: 2
#     Edge 33, Type (0, 0), BuildingBlock: XIVTED_clean_linker_0, # of connection points: 2
#     Edge 34, Type (0, 0), BuildingBlock: XIVTED_clean_linker_0, # of connection points: 2
#     Edge 35, Type (0, 0), BuildingBlock: XIVTED_clean_linker_0, # of connection points: 2
#     Edge 36, Type (0, 0), BuildingBlock: XIVTED_clean_linker_0, # of connection points: 2
#     Edge 37, Type (0, 0), BuildingBlock: XIVTED_clean_linker_0, # of connection points: 2
#     Edge 38, Type (0, 0), BuildingBlock: XIVTED_clean_linker_0, # of connection points: 2
#     Edge 39, Type (0, 0), BuildingBlock: XIVTED_clean_linker_0, # of connection points: 2
#     Edge 40, Type (0, 0), BuildingBlock: XIVTED_clean_linker_0, # of connection points: 2
#     Edge 41, Type (0, 0), BuildingBlock: XIVTED_clean_linker_0, # of connection points: 2
#     Edge 42, Type (0, 0), BuildingBlock: XIVTED_clean_linker_0, # of connection points: 2
#     Edge 43, Type (0, 0), BuildingBlock: XIVTED_clean_linker_0, # of connection points: 2
#     Edge 44, Type (0, 0), BuildingBlock: XIVTED_clean_linker_0, # of connection points: 2
#     Edge 45, Type (0, 0), BuildingBlock: XIVTED_clean_linker_0, # of connection points: 2
#     Edge 46, Type (0, 0), BuildingBlock: XIVTED_clean_linker_0, # of connection points: 2
#     Edge 47, Type (0, 0), BuildingBlock: XIVTED_clean_linker_0, # of connection points: 2
#     Edge 48, Type (0, 0), BuildingBlock: XIVTED_clean_linker_0, # of connection points: 2
#     Edge 49, Type (0, 0), BuildingBlock: XIVTED_clean_linker_0, # of connection points: 2
#     Edge 50, Type (0, 0), BuildingBlock: XIVTED_clean_linker_0, # of connection points: 2
#     Edge 51, Type (0, 0), BuildingBlock: XIVTED_clean_linker_0, # of connection points: 2
#     Edge 52, Type (0, 0), BuildingBlock: XIVTED_clean_linker_0, # of connection points: 2
#     Edge 53, Type (0, 0), BuildingBlock: XIVTED_clean_linker_0, # of connection points: 2
#     Edge 54, Type (0, 0), BuildingBlock: XIVTED_clean_linker_0, # of connection points: 2
#     Edge 55, Type (0, 0), BuildingBlock: XIVTED_clean_linker_0, # of connection points: 2
#     Edge 56, Type (0, 0), BuildingBlock: XIVTED_clean_linker_0, # of connection points: 2
#     Edge 57, Type (0, 0), BuildingBlock: XIVTED_clean_linker_0, # of connection points: 2
#     Edge 58, Type (0, 0), BuildingBlock: XIVTED_clean_linker_0, # of connection points: 2
#     Edge 59, Type (0, 0), BuildingBlock: XIVTED_clean_linker_0, # of connection points: 2
#     Edge 60, Type (0, 0), BuildingBlock: XIVTED_clean_linker_0, # of connection points: 2
#     Edge 61, Type (0, 0), BuildingBlock: XIVTED_clean_linker_0, # of connection points: 2
#     Edge 62, Type (0, 0), BuildingBlock: XIVTED_clean_linker_0, # of connection points: 2
#     Edge 63, Type (0, 0), BuildingBlock: XIVTED_clean_linker_0, # of connection points: 2
#     Edge 64, Type (0, 0), BuildingBlock: XIVTED_clean_linker_0, # of connection points: 2
#     Edge 65, Type (0, 0), BuildingBlock: XIVTED_clean_linker_0, # of connection points: 2
#     Edge 66, Type (0, 0), BuildingBlock: XIVTED_clean_linker_0, # of connection points: 2
#     Edge 67, Type (0, 0), BuildingBlock: XIVTED_clean_linker_0, # of connection points: 2
#     Edge 68, Type (0, 0), BuildingBlock: XIVTED_clean_linker_0, # of connection points: 2
#     Edge 69, Type (0, 0), BuildingBlock: XIVTED_clean_linker_0, # of connection points: 2
#     Edge 70, Type (0, 0), BuildingBlock: XIVTED_clean_linker_0, # of connection points: 2
#     Edge 71, Type (0, 0), BuildingBlock: XIVTED_clean_linker_0, # of connection points: 2
#     Edge 72, Type (0, 0), BuildingBlock: XIVTED_clean_linker_0, # of connection points: 2
#     Edge 73, Type (0, 0), BuildingBlock: XIVTED_clean_linker_0, # of connection points: 2
#     Edge 74, Type (0, 0), BuildingBlock: XIVTED_clean_linker_0, # of connection points: 2
#     Edge 75, Type (0, 0), BuildingBlock: XIVTED_clean_linker_0, # of connection points: 2
#     Edge 76, Type (0, 0), BuildingBlock: XIVTED_clean_linker_0, # of connection points: 2
#     Edge 77, Type (0, 0), BuildingBlock: XIVTED_clean_linker_0, # of connection points: 2
#     Edge 78, Type (0, 0), BuildingBlock: XIVTED_clean_linker_0, # of connection points: 2
#     Edge 79, Type (0, 0), BuildingBlock: XIVTED_clean_linker_0, # of connection points: 2
#     Edge 80, Type (0, 0), BuildingBlock: XIVTED_clean_linker_0, # of connection points: 2
#     Edge 81, Type (0, 0), BuildingBlock: XIVTED_clean_linker_0, # of connection points: 2
#     Edge 82, Type (0, 0), BuildingBlock: XIVTED_clean_linker_0, # of connection points: 2
#     Edge 83, Type (0, 0), BuildingBlock: XIVTED_clean_linker_0, # of connection points: 2
#     Edge 84, Type (0, 0), BuildingBlock: XIVTED_clean_linker_0, # of connection points: 2
#     Edge 85, Type (0, 0), BuildingBlock: XIVTED_clean_linker_0, # of connection points: 2
#     Edge 86, Type (0, 0), BuildingBlock: XIVTED_clean_linker_0, # of connection points: 2
#     Edge 87, Type (0, 0), BuildingBlock: XIVTED_clean_linker_0, # of connection points: 2
#     Edge 88, Type (0, 0), BuildingBlock: XIVTED_clean_linker_0, # of connection points: 2
#     Edge 89, Type (0, 0), BuildingBlock: XIVTED_clean_linker_0, # of connection points: 2
#     Edge 90, Type (0, 0), BuildingBlock: XIVTED_clean_linker_0, # of connection points: 2
#     Edge 91, Type (0, 0), BuildingBlock: XIVTED_clean_linker_0, # of connection points: 2
#     Edge 92, Type (0, 0), BuildingBlock: XIVTED_clean_linker_0, # of connection points: 2
#     Edge 93, Type (0, 0), BuildingBlock: XIVTED_clean_linker_0, # of connection points: 2
#     Edge 94, Type (0, 0), BuildingBlock: XIVTED_clean_linker_0, # of connection points: 2
#     Edge 95, Type (0, 0), BuildingBlock: XIVTED_clean_linker_0, # of connection points: 2
# Relax obj value: 0.120
# Max RMSD: 0.152
# Mean RMSD: 0.152
data_MOF--net-uod--node1-GALJAG_clean_sbu_0--edge1-XIVTED_clean_linker_0
_symmetry_space_group_name_H-M    P1
_symmetry_Int_Tables_number       1
_symmetry_cell_setting            triclinic
loop_
_symmetry_equiv_pos_as_xyz
'x, y, z'
_cell_length_a     95.983477
_cell_length_b     28.19195
_cell_length_c     52.874607
_cell_angle_alpha  90.076179
_cell_angle_beta   89.855633
_cell_angle_gamma 89.982449
loop_
_atom_site_label
_atom_site_type_symbol
_atom_site_fract_x
_atom_site_fract_y
_atom_site_fract_z
_atom_type_partial_charge
In0 In 0.05139 0.3622 0.08109 0.0
O1 O 0.04643 0.3795 0.03982 0.0
O2 O 0.03069 0.38905 0.06819 0.0
C3 C 0.07768 0.33599 0.09072 0.0
C4 C 0.05436 0.4492 0.0993 0.0
C5 C 0.03834 0.28207 0.09263 0.0
O6 O 0.07362 0.34363 0.06823 0.0
O7 O 0.06839 0.33999 0.10751 0.0
O8 O 0.03845 0.31734 0.10751 0.0
O9 O 0.04478 0.28765 0.0719 0.0
C10 C 0.03417 0.39338 0.04526 0.0
O11 O 0.04774 0.41776 0.11158 0.0
O12 O 0.05954 0.43597 0.0785 0.0
In13 In 0.20459 0.87772 0.08486 0.0
O14 O 0.21477 0.83128 0.11488 0.0
O15 O 0.20391 0.79881 0.08403 0.0
C16 C 0.21461 0.96313 0.09577 0.0
C17 C 0.21957 0.85525 0.04367 0.0
C18 C 0.17768 0.88815 0.09888 0.0
O19 O 0.21672 0.92758 0.10983 0.0
O20 O 0.20735 0.95543 0.07624 0.0
O21 O 0.18144 0.89245 0.07598 0.0
O22 O 0.18738 0.87838 0.11401 0.0
C23 C 0.2113 0.79357 0.1035 0.0
O24 O 0.20643 0.85003 0.04411 0.0
O25 O 0.2246 0.8757 0.06281 0.0
In26 In 0.05144 0.87771 0.16388 0.0
O27 O 0.04259 0.86475 0.20377 0.0
O28 O 0.03036 0.84773 0.17105 0.0
C29 C 0.07811 0.90198 0.15581 0.0
C30 C 0.05522 0.79018 0.1474 0.0
C31 C 0.03917 0.95831 0.15093 0.0
O32 O 0.07366 0.8937 0.17809 0.0
O33 O 0.06902 0.89962 0.13863 0.0
O34 O 0.0398 0.92313 0.13601 0.0
O35 O 0.0448 0.95254 0.17237 0.0
C36 C 0.03132 0.84761 0.19488 0.0
O37 O 0.04954 0.82153 0.13361 0.0
O38 O 0.05918 0.80372 0.16903 0.0
In39 In 0.20248 0.37254 0.16533 0.0
O40 O 0.20294 0.39255 0.20735 0.0
O41 O 0.22199 0.37626 0.18832 0.0
C42 C 0.17604 0.35798 0.15032 0.0
C43 C 0.20813 0.46047 0.15069 0.0
C44 C 0.21376 0.29073 0.15101 0.0
O45 O 0.17966 0.35211 0.17315 0.0
O46 O 0.18564 0.37155 0.13574 0.0
O47 O 0.2148 0.32783 0.13771 0.0
O48 O 0.20702 0.29515 0.17147 0.0
C49 C 0.21615 0.39112 0.2082 0.0
O50 O 0.21327 0.42507 0.13924 0.0
O51 O 0.1996 0.45104 0.16815 0.0
In52 In 0.95595 0.60011 0.89317 0.0
O53 O 0.96002 0.59152 0.93555 0.0
O54 O 0.97716 0.58937 0.90964 0.0
C55 C 0.92882 0.61686 0.88501 0.0
C56 C 0.95831 0.50792 0.8834 0.0
C57 C 0.96643 0.68103 0.87577 0.0
O58 O 0.93409 0.6198 0.90694 0.0
O59 O 0.93726 0.6058 0.8676 0.0
O60 O 0.9654 0.64483 0.86165 0.0
O61 O 0.96209 0.67601 0.8982 0.0
C62 C 0.97298 0.58479 0.93216 0.0
O63 O 0.96487 0.53829 0.87029 0.0
O64 O 0.94985 0.52479 0.89933 0.0
In65 In 0.80463 0.10762 0.90782 0.0
O66 O 0.80483 0.16962 0.93601 0.0
O67 O 0.79178 0.11057 0.94375 0.0
C68 C 0.83225 0.10075 0.8982 0.0
C69 C 0.79313 0.17047 0.87585 0.0
C70 C 0.79519 0.01838 0.90377 0.0
O71 O 0.82769 0.10968 0.92021 0.0
O72 O 0.82294 0.09457 0.88178 0.0
O73 O 0.79207 0.05046 0.88817 0.0
O74 O 0.80321 0.03122 0.92137 0.0
C75 C 0.79532 0.15218 0.9497 0.0
O76 O 0.78614 0.14977 0.89271 0.0
O77 O 0.80562 0.15718 0.87418 0.0
In78 In 0.96144 0.10987 0.84206 0.0
O79 O 0.96118 0.17517 0.81615 0.0
O80 O 0.97486 0.11845 0.80708 0.0
C81 C 0.93384 0.10292 0.85158 0.0
C82 C 0.9728 0.16917 0.87614 0.0
C83 C 0.97001 0.01936 0.84181 0.0
O84 O 0.93839 0.11429 0.82989 0.0
O85 O 0.94315 0.09449 0.86773 0.0
O86 O 0.97354 0.04844 0.8588 0.0
O87 O 0.96211 0.03598 0.82497 0.0
C88 C 0.97109 0.16039 0.80247 0.0
O89 O 0.97996 0.14911 0.85924 0.0
O90 O 0.96032 0.15565 0.87717 0.0
In91 In 0.79956 0.60295 0.83962 0.0
O92 O 0.79635 0.59233 0.79718 0.0
O93 O 0.77868 0.59049 0.82186 0.0
C94 C 0.82676 0.61985 0.84739 0.0
C95 C 0.79736 0.51169 0.8519 0.0
C96 C 0.78925 0.68427 0.85726 0.0
O97 O 0.82143 0.62215 0.82551 0.0
O98 O 0.81834 0.60952 0.86493 0.0
O99 O 0.79029 0.64793 0.87119 0.0
O100 O 0.79329 0.67905 0.83466 0.0
C101 C 0.78337 0.58501 0.79972 0.0
O102 O 0.79047 0.54308 0.86373 0.0
O103 O 0.80585 0.5272 0.83567 0.0
In104 In 0.05185 0.87904 0.57901 0.0
O105 O 0.04886 0.89989 0.53752 0.0
O106 O 0.03106 0.88025 0.55935 0.0
C107 C 0.07938 0.87594 0.58925 0.0
C108 C 0.04488 0.96329 0.5979 0.0
C109 C 0.0446 0.79188 0.59364 0.0
O110 O 0.07482 0.86856 0.56711 0.0
O111 O 0.07013 0.88507 0.60549 0.0
O112 O 0.04222 0.82813 0.60707 0.0
O113 O 0.05042 0.79983 0.57258 0.0
C114 C 0.0357 0.89636 0.53873 0.0
O115 O 0.04167 0.9253 0.60924 0.0
O116 O 0.05196 0.95832 0.57795 0.0
In117 In 0.21011 0.34875 0.58903 0.0
O118 O 0.21349 0.33975 0.54642 0.0
O119 O 0.23115 0.35094 0.57033 0.0
C120 C 0.18307 0.35703 0.602 0.0
C121 C 0.21522 0.25733 0.59701 0.0
C122 C 0.21845 0.43253 0.60615 0.0
O123 O 0.18716 0.36302 0.57936 0.0
O124 O 0.19257 0.34666 0.61753 0.0
O125 O 0.21956 0.39548 0.6196 0.0
O126 O 0.21316 0.4268 0.58446 0.0
C127 C 0.22667 0.34205 0.5484 0.0
O128 O 0.22083 0.28889 0.61078 0.0
O129 O 0.20649 0.2723 0.58111 0.0
In130 In 0.05606 0.37596 0.6727 0.0
O131 O 0.04478 0.32925 0.64408 0.0
O132 O 0.05545 0.29662 0.67491 0.0
C133 C 0.04887 0.46245 0.65714 0.0
C134 C 0.04033 0.36379 0.7143 0.0
C135 C 0.08348 0.37629 0.66075 0.0
O136 O 0.04619 0.42553 0.64445 0.0
O137 O 0.05516 0.45561 0.67783 0.0
O138 O 0.07934 0.38264 0.6833 0.0
O139 O 0.07387 0.36992 0.64491 0.0
C140 C 0.04786 0.29146 0.65568 0.0
O141 O 0.05336 0.35614 0.71442 0.0
O142 O 0.03572 0.38137 0.69406 0.0
In143 In 0.20777 0.86143 0.64964 0.0
O144 O 0.22722 0.89863 0.6348 0.0
O145 O 0.20834 0.90805 0.61473 0.0
C146 C 0.21618 0.77066 0.64828 0.0
C147 C 0.21654 0.9097 0.69063 0.0
C148 C 0.18023 0.85761 0.63909 0.0
O149 O 0.2199 0.80091 0.63207 0.0
O150 O 0.20813 0.78616 0.66532 0.0
O151 O 0.18465 0.86937 0.66075 0.0
O152 O 0.18964 0.84717 0.62338 0.0
C153 C 0.22097 0.91931 0.61706 0.0
O154 O 0.20778 0.92681 0.67537 0.0
O155 O 0.21955 0.86674 0.68669 0.0
In156 In 0.95419 0.09662 0.39049 0.0
O157 O 0.95833 0.08656 0.43274 0.0
O158 O 0.97559 0.09157 0.40712 0.0
C159 C 0.92707 0.1074 0.37955 0.0
C160 C 0.9581 0.00468 0.3823 0.0
C161 C 0.96304 0.181 0.3748 0.0
O162 O 0.93171 0.11385 0.40177 0.0
O163 O 0.9361 0.09538 0.36331 0.0
O164 O 0.96351 0.14504 0.36034 0.0
O165 O 0.95813 0.17383 0.39669 0.0
C166 C 0.97144 0.08394 0.42944 0.0
O167 O 0.96391 0.03534 0.36816 0.0
O168 O 0.94958 0.02092 0.39836 0.0
In169 In 0.79901 0.64545 0.4087 0.0
O170 O 0.79453 0.64935 0.45124 0.0
O171 O 0.77749 0.64905 0.42524 0.0
C172 C 0.82645 0.63675 0.39897 0.0
C173 C 0.79493 0.7372 0.39919 0.0
C174 C 0.79067 0.5628 0.38941 0.0
O175 O 0.82155 0.63007 0.42101 0.0
O176 O 0.81754 0.64778 0.38247 0.0
O177 O 0.79014 0.60074 0.37662 0.0
O178 O 0.79538 0.56701 0.4116 0.0
C179 C 0.78144 0.65229 0.44793 0.0
O180 O 0.78956 0.70534 0.38535 0.0
O181 O 0.8028 0.72236 0.41656 0.0
In182 In 0.95481 0.61164 0.33739 0.0
O183 O 0.97464 0.64742 0.35106 0.0
O184 O 0.95643 0.65409 0.37366 0.0
C185 C 0.96351 0.52079 0.33702 0.0
C186 C 0.96225 0.66536 0.2974 0.0
C187 C 0.92721 0.61038 0.34841 0.0
O188 O 0.96786 0.55105 0.35268 0.0
O189 O 0.95475 0.53635 0.32133 0.0
O190 O 0.93176 0.62099 0.32669 0.0
O191 O 0.93652 0.59966 0.36417 0.0
C192 C 0.9689 0.66662 0.36995 0.0
O193 O 0.95592 0.68184 0.31637 0.0
O194 O 0.96365 0.6208 0.29741 0.0
In195 In 0.79771 0.13875 0.33124 0.0
O196 O 0.79598 0.07683 0.30354 0.0
O197 O 0.78405 0.13864 0.29605 0.0
C198 C 0.82572 0.1436 0.33653 0.0
C199 C 0.78801 0.07641 0.36563 0.0
C200 C 0.7889 0.22856 0.33682 0.0
O201 O 0.82019 0.12875 0.31629 0.0
O202 O 0.81717 0.15691 0.35318 0.0
O203 O 0.78556 0.19585 0.35195 0.0
O204 O 0.79657 0.2158 0.3186 0.0
C205 C 0.78668 0.09615 0.29021 0.0
O206 O 0.78031 0.09448 0.34899 0.0
O207 O 0.80026 0.09225 0.36593 0.0
In208 In 0.55488 0.38688 0.58681 0.0
O209 O 0.55003 0.40162 0.54521 0.0
O210 O 0.53326 0.3952 0.57166 0.0
C211 C 0.58212 0.36943 0.59338 0.0
C212 C 0.55255 0.4771 0.60162 0.0
C213 C 0.54553 0.30309 0.60282 0.0
O214 O 0.57665 0.36927 0.57156 0.0
O215 O 0.57386 0.3788 0.61134 0.0
O216 O 0.54548 0.33936 0.61701 0.0
O217 O 0.55018 0.30958 0.58069 0.0
C218 C 0.53702 0.40443 0.54933 0.0
O219 O 0.5467 0.44385 0.61378 0.0
O220 O 0.56013 0.46408 0.58337 0.0
In221 In 0.70464 0.87534 0.60211 0.0
O222 O 0.70688 0.83667 0.56366 0.0
O223 O 0.7241 0.83892 0.58891 0.0
C224 C 0.67748 0.89437 0.60955 0.0
C225 C 0.70679 0.80904 0.63788 0.0
C226 C 0.71594 0.96158 0.5981 0.0
O227 O 0.68177 0.8717 0.59029 0.0
O228 O 0.68697 0.90922 0.6241 0.0
O229 O 0.71681 0.93698 0.61801 0.0
O230 O 0.70906 0.943 0.5803 0.0
C231 C 0.71934 0.82432 0.56818 0.0
O232 O 0.71575 0.84169 0.63586 0.0
O233 O 0.69671 0.81159 0.62275 0.0
In234 In 0.55019 0.88183 0.67322 0.0
O235 O 0.55019 0.83856 0.70995 0.0
O236 O 0.5334 0.88597 0.70339 0.0
C237 C 0.57841 0.87699 0.66944 0.0
C238 C 0.53952 0.81481 0.64261 0.0
C239 C 0.54268 0.97 0.65938 0.0
O240 O 0.57238 0.9094 0.68179 0.0
O241 O 0.57031 0.84603 0.66071 0.0
O242 O 0.54087 0.93455 0.64518 0.0
O243 O 0.5482 0.96082 0.6804 0.0
C244 C 0.53852 0.85426 0.71732 0.0
O245 O 0.53482 0.82302 0.66444 0.0
O246 O 0.54889 0.84316 0.63535 0.0
In247 In 0.71029 0.37327 0.64054 0.0
O248 O 0.7152 0.37852 0.68266 0.0
O249 O 0.73127 0.39294 0.65547 0.0
C250 C 0.68377 0.35021 0.63119 0.0
C251 C 0.7082 0.46623 0.63447 0.0
C252 C 0.72246 0.29624 0.62201 0.0
O253 O 0.68887 0.34738 0.6533 0.0
O254 O 0.69219 0.36339 0.61414 0.0
O255 O 0.72067 0.33268 0.60831 0.0
O256 O 0.71808 0.2993 0.64454 0.0
C257 C 0.72761 0.3922 0.67845 0.0
O258 O 0.71623 0.44192 0.62037 0.0
O259 O 0.70081 0.44289 0.6498 0.0
In260 In 0.45291 0.59765 0.40296 0.0
O261 O 0.4578 0.58664 0.44482 0.0
O262 O 0.47457 0.59234 0.41826 0.0
C263 C 0.4255 0.60949 0.39536 0.0
C264 C 0.4565 0.50675 0.39074 0.0
C265 C 0.46129 0.6823 0.38668 0.0
O266 O 0.43078 0.61186 0.41731 0.0
O267 O 0.43406 0.60105 0.37772 0.0
O268 O 0.46174 0.646 0.37251 0.0
O269 O 0.45666 0.6754 0.40879 0.0
C270 C 0.47083 0.58447 0.44078 0.0
O271 O 0.46198 0.53952 0.37764 0.0
O272 O 0.44859 0.52048 0.40838 0.0
In273 In 0.30392 0.10979 0.40602 0.0
O274 O 0.28482 0.1469 0.38988 0.0
O275 O 0.30412 0.15648 0.37112 0.0
C276 C 0.2943 0.02067 0.40619 0.0
C277 C 0.29518 0.15664 0.44769 0.0
C278 C 0.33138 0.10273 0.3948 0.0
O279 O 0.29072 0.05082 0.3898 0.0
O280 O 0.30297 0.0353 0.42236 0.0
O281 O 0.32712 0.12265 0.41485 0.0
O282 O 0.32189 0.08527 0.38127 0.0
C283 C 0.29146 0.16788 0.37267 0.0
O284 O 0.30331 0.1753 0.43176 0.0
O285 O 0.29284 0.11318 0.444 0.0
In286 In 0.45783 0.10972 0.32488 0.0
O287 O 0.45875 0.16249 0.29189 0.0
O288 O 0.47326 0.10576 0.29232 0.0
C289 C 0.42973 0.11846 0.32995 0.0
C290 C 0.47026 0.17005 0.35713 0.0
C291 C 0.46428 0.01914 0.33585 0.0
O292 O 0.43515 0.08941 0.31462 0.0
O293 O 0.43838 0.1444 0.34118 0.0
O294 O 0.46693 0.05297 0.3507 0.0
O295 O 0.45839 0.03104 0.31556 0.0
C296 C 0.46939 0.1437 0.28191 0.0
O297 O 0.45977 0.14563 0.36331 0.0
O298 O 0.47517 0.16058 0.33559 0.0
In299 In 0.29569 0.60251 0.35338 0.0
O300 O 0.29007 0.59797 0.31162 0.0
O301 O 0.27389 0.59236 0.3395 0.0
C302 C 0.3229 0.61667 0.36151 0.0
C303 C 0.2944 0.5093 0.35968 0.0
C304 C 0.28634 0.68365 0.37232 0.0
O305 O 0.31762 0.62129 0.33965 0.0
O306 O 0.31442 0.60548 0.37882 0.0
O307 O 0.28695 0.64655 0.38585 0.0
O308 O 0.29039 0.67916 0.34965 0.0
C309 C 0.27728 0.59014 0.31642 0.0
O310 O 0.28817 0.53709 0.37492 0.0
O311 O 0.30188 0.52912 0.34312 0.0
In312 In 0.551 0.88793 0.08554 0.0
O313 O 0.54031 0.94888 0.10661 0.0
O314 O 0.55466 0.96435 0.07674 0.0
C315 C 0.54203 0.80622 0.10478 0.0
C316 C 0.53533 0.89099 0.04375 0.0
C317 C 0.57808 0.87944 0.09817 0.0
O318 O 0.54121 0.84447 0.11733 0.0
O319 O 0.54735 0.80972 0.08298 0.0
O320 O 0.57382 0.87073 0.07595 0.0
O321 O 0.56873 0.89256 0.11349 0.0
C322 C 0.54605 0.98001 0.09276 0.0
O323 O 0.54855 0.89152 0.04255 0.0
O324 O 0.5303 0.88637 0.0657 0.0
In325 In 0.70881 0.345 0.08788 0.0
O326 O 0.71849 0.28417 0.11043 0.0
O327 O 0.70525 0.26876 0.07893 0.0
C328 C 0.717 0.42812 0.10643 0.0
C329 C 0.7262 0.33823 0.04844 0.0
C330 C 0.68148 0.35354 0.09864 0.0
O331 O 0.71775 0.39055 0.11954 0.0
O332 O 0.71216 0.42322 0.08435 0.0
O333 O 0.68622 0.36189 0.07665 0.0
O334 O 0.69049 0.34076 0.11462 0.0
C335 C 0.71322 0.25307 0.09592 0.0
O336 O 0.71306 0.33741 0.04549 0.0
O337 O 0.73026 0.34568 0.07079 0.0
In338 In 0.5524 0.38057 0.15308 0.0
O339 O 0.53409 0.33959 0.13637 0.0
O340 O 0.55372 0.33355 0.11826 0.0
C341 C 0.54346 0.47053 0.14971 0.0
C342 C 0.54206 0.33657 0.19429 0.0
C343 C 0.58029 0.38489 0.1455 0.0
O344 O 0.54004 0.43886 0.13402 0.0
O345 O 0.55145 0.45683 0.16717 0.0
O346 O 0.57515 0.37007 0.16611 0.0
O347 O 0.57143 0.3984 0.12953 0.0
C348 C 0.54124 0.31995 0.11933 0.0
O349 O 0.55082 0.31708 0.17975 0.0
O350 O 0.5398 0.37974 0.18959 0.0
In351 In 0.70611 0.85401 0.15928 0.0
O352 O 0.72482 0.89431 0.14342 0.0
O353 O 0.70542 0.90178 0.12483 0.0
C354 C 0.71484 0.76374 0.15578 0.0
C355 C 0.71564 0.89869 0.20092 0.0
C356 C 0.67838 0.84968 0.15021 0.0
O357 O 0.71849 0.79545 0.1403 0.0
O358 O 0.7068 0.77764 0.17323 0.0
O359 O 0.68311 0.86344 0.17132 0.0
O360 O 0.68756 0.83732 0.13447 0.0
C361 C 0.71795 0.91464 0.12632 0.0
O362 O 0.70702 0.91763 0.18602 0.0
O363 O 0.71819 0.85562 0.19629 0.0
In364 In 0.46142 0.08068 0.87781 0.0
O365 O 0.46046 0.03177 0.91261 0.0
O366 O 0.47652 0.08347 0.91026 0.0
C367 C 0.43412 0.08044 0.86591 0.0
C368 C 0.47635 0.01293 0.85393 0.0
C369 C 0.46584 0.17469 0.8746 0.0
O370 O 0.43838 0.07517 0.88839 0.0
O371 O 0.44365 0.08492 0.84953 0.0
O372 O 0.46863 0.14699 0.8564 0.0
O373 O 0.46089 0.15481 0.89401 0.0
C374 C 0.47158 0.04832 0.9219 0.0
O375 O 0.48176 0.0509 0.8618 0.0
O376 O 0.46325 0.01211 0.85522 0.0
In377 In 0.30499 0.62647 0.91715 0.0
O378 O 0.29975 0.64719 0.9579 0.0
O379 O 0.28323 0.62649 0.93339 0.0
C380 C 0.33293 0.62716 0.91143 0.0
C381 C 0.2985 0.71059 0.89744 0.0
C382 C 0.29951 0.53834 0.90128 0.0
O383 O 0.32736 0.61991 0.93285 0.0
O384 O 0.32444 0.63377 0.89364 0.0
O385 O 0.29749 0.5744 0.88757 0.0
O386 O 0.30406 0.54689 0.92325 0.0
C387 C 0.28672 0.64329 0.95458 0.0
O388 O 0.29564 0.67237 0.88596 0.0
O389 O 0.30503 0.70588 0.91795 0.0
In390 In 0.46311 0.6232 0.86335 0.0
O391 O 0.48447 0.65036 0.87537 0.0
O392 O 0.46673 0.685 0.89037 0.0
C393 C 0.46735 0.52887 0.86563 0.0
C394 C 0.47173 0.66342 0.81996 0.0
C395 C 0.43573 0.62727 0.8749 0.0
O396 O 0.47013 0.55594 0.88406 0.0
O397 O 0.46258 0.5495 0.84637 0.0
O398 O 0.44022 0.63069 0.85246 0.0
O399 O 0.44507 0.62216 0.89147 0.0
C400 C 0.47976 0.68566 0.88729 0.0
O401 O 0.46211 0.68128 0.83325 0.0
O402 O 0.47575 0.62302 0.82712 0.0
In403 In 0.30483 0.12074 0.81581 0.0
O404 O 0.30009 0.102 0.77466 0.0
O405 O 0.28352 0.12724 0.79798 0.0
C406 C 0.33264 0.11404 0.82275 0.0
C407 C 0.29676 0.03732 0.83462 0.0
C408 C 0.3002 0.20917 0.83217 0.0
O409 O 0.32755 0.12282 0.80116 0.0
O410 O 0.32377 0.10931 0.84016 0.0
O411 O 0.29714 0.17306 0.84522 0.0
O412 O 0.30546 0.20055 0.81069 0.0
C413 C 0.28715 0.10998 0.77694 0.0
O414 O 0.29477 0.07554 0.84671 0.0
O415 O 0.30303 0.04162 0.81378 0.0
H416 H 0.05263 0.75308 0.09993 0.0
H417 H 0.04896 0.48629 0.14622 0.0
H418 H 0.05985 0.71435 0.17779 0.0
H419 H 0.06185 0.52447 0.07063 0.0
H420 H 0.05002 0.57039 0.15823 0.0
H421 H 0.05312 0.66886 0.08845 0.0
C422 C 0.05438 0.72683 0.11453 0.0
C423 C 0.05623 0.74036 0.13977 0.0
C424 C 0.05268 0.56008 0.13908 0.0
C425 C 0.05658 0.64479 0.12697 0.0
C426 C 0.05204 0.51235 0.13225 0.0
C427 C 0.05534 0.49873 0.10748 0.0
C428 C 0.05638 0.594 0.12083 0.0
C429 C 0.05929 0.53362 0.08999 0.0
C430 C 0.05468 0.67898 0.108 0.0
C431 C 0.05845 0.70519 0.15806 0.0
N432 N 0.05958 0.57982 0.09695 0.0
N433 N 0.05844 0.65881 0.15133 0.0
H434 H 0.21676 0.71908 0.07318 0.0
H435 H 0.20482 0.53669 0.18131 0.0
H436 H 0.21579 0.76137 0.15158 0.0
H437 H 0.22116 0.49495 0.10848 0.0
H438 H 0.21039 0.619 0.1717 0.0
H439 H 0.22043 0.63712 0.08607 0.0
C440 C 0.21748 0.71094 0.09317 0.0
C441 C 0.21567 0.74634 0.11147 0.0
C442 C 0.21294 0.59184 0.15794 0.0
C443 C 0.21967 0.65305 0.12631 0.0
C444 C 0.20962 0.54497 0.16328 0.0
C445 C 0.21225 0.50942 0.14534 0.0
C446 C 0.21867 0.60321 0.13431 0.0
C447 C 0.21878 0.52164 0.12258 0.0
C448 C 0.21967 0.66431 0.1005 0.0
C449 C 0.21698 0.73463 0.13702 0.0
N450 N 0.22156 0.56785 0.11749 0.0
N451 N 0.2186 0.6885 0.14378 0.0
H452 H 0.99258 0.23023 0.8585 0.0
H453 H 0.94641 0.43999 0.91241 0.0
H454 H 0.96124 0.21437 0.91648 0.0
H455 H 0.97887 0.4612 0.8569 0.0
H456 H 0.95406 0.35873 0.91786 0.0
H457 H 0.99124 0.31622 0.86346 0.0
C458 C 0.98588 0.24474 0.8731 0.0
C459 C 0.97675 0.21538 0.88673 0.0
C460 C 0.95956 0.38096 0.90446 0.0
C461 C 0.97487 0.31331 0.8919 0.0
C462 C 0.95508 0.42732 0.9011 0.0
C463 C 0.96191 0.45721 0.8839 0.0
C464 C 0.9709 0.3639 0.89035 0.0
C465 C 0.97319 0.43903 0.87006 0.0
C466 C 0.98496 0.29391 0.87562 0.0
C467 C 0.96827 0.23594 0.90531 0.0
N468 N 0.97731 0.3933 0.87348 0.0
N469 N 0.96729 0.28379 0.90695 0.0
H470 H 0.77805 0.46596 0.88173 0.0
H471 H 0.80355 0.21258 0.83371 0.0
H472 H 0.81006 0.44142 0.82569 0.0
H473 H 0.77296 0.23069 0.89285 0.0
H474 H 0.80184 0.29683 0.82409 0.0
H475 H 0.77298 0.38051 0.88177 0.0
C476 C 0.78405 0.44259 0.86961 0.0
C477 C 0.79462 0.46055 0.854 0.0
C478 C 0.79527 0.28234 0.83886 0.0
C479 C 0.78868 0.3637 0.85341 0.0
C480 C 0.79615 0.23414 0.84414 0.0
C481 C 0.78857 0.2151 0.86433 0.0
C482 C 0.78698 0.31166 0.85428 0.0
C483 C 0.77906 0.2443 0.8772 0.0
C484 C 0.78105 0.39405 0.86941 0.0
C485 C 0.80193 0.42904 0.83829 0.0
N486 N 0.77878 0.29159 0.8724 0.0
N487 N 0.79884 0.38225 0.83846 0.0
H488 H 0.03762 0.98996 0.64595 0.0
H489 H 0.03753 0.26503 0.60959 0.0
H490 H 0.0429 0.04341 0.57009 0.0
H491 H 0.04728 0.21131 0.68387 0.0
H492 H 0.03225 0.18386 0.59584 0.0
H493 H 0.03392 0.07156 0.66086 0.0
C494 C 0.03778 0.01882 0.63245 0.0
C495 C 0.04087 0.01047 0.60694 0.0
C496 C 0.03537 0.1901 0.61523 0.0
C497 C 0.03654 0.10286 0.62359 0.0
C498 C 0.03838 0.23622 0.62303 0.0
C499 C 0.04314 0.24438 0.64765 0.0
C500 C 0.03704 0.15238 0.63231 0.0
C501 C 0.04394 0.20615 0.66452 0.0
C502 C 0.03569 0.06517 0.6409 0.0
C503 C 0.04085 0.04873 0.59005 0.0
N504 N 0.04104 0.16162 0.65646 0.0
N505 N 0.03885 0.09343 0.59871 0.0
H506 H 0.21257 0.96087 0.57332 0.0
H507 H 0.23345 0.21164 0.62899 0.0
H508 H 0.24098 0.97802 0.63573 0.0
H509 H 0.20677 0.18922 0.56445 0.0
H510 H 0.23987 0.12727 0.6276 0.0
H511 H 0.21496 0.04498 0.56378 0.0
C512 C 0.21968 0.98214 0.58447 0.0
C513 C 0.22637 0.96293 0.60557 0.0
C514 C 0.23272 0.14108 0.61362 0.0
C515 C 0.22866 0.0594 0.59566 0.0
C516 C 0.22896 0.189 0.61459 0.0
C517 C 0.21933 0.20706 0.5972 0.0
C518 C 0.2268 0.11145 0.5951 0.0
C519 C 0.21401 0.17659 0.57859 0.0
C520 C 0.22095 0.03029 0.57923 0.0
C521 C 0.23554 -0.00824 0.61938 0.0
N522 N 0.21774 0.13033 0.57816 0.0
N523 N 0.23611 0.03905 0.61465 0.0
H524 H 0.94992 0.93947 0.41673 0.0
H525 H 0.98859 0.72527 0.34979 0.0
H526 H 0.97632 0.95631 0.35111 0.0
H527 H 0.96026 0.71154 0.41283 0.0
H528 H 0.98913 0.81093 0.35648 0.0
H529 H 0.95757 0.85795 0.42056 0.0
C530 C 0.95726 0.92583 0.40291 0.0
C531 C 0.96226 0.95444 0.38319 0.0
C532 C 0.98313 0.78905 0.36932 0.0
C533 C 0.97121 0.86062 0.38767 0.0
C534 C 0.98297 0.74001 0.36577 0.0
C535 C 0.97408 0.71155 0.38045 0.0
C536 C 0.9744 0.80928 0.38774 0.0
C537 C 0.96704 0.73243 0.40082 0.0
C538 C 0.96175 0.87928 0.4053 0.0
C539 C 0.97201 0.93511 0.36629 0.0
N540 N 0.9671 0.78025 0.40352 0.0
N541 N 0.97607 0.88906 0.36874 0.0
H542 H 0.77677 0.78015 0.36632 0.0
H543 H 0.80059 0.03836 0.40692 0.0
H544 H 0.80528 0.80948 0.42738 0.0
H545 H 0.76789 0.01263 0.35281 0.0
H546 H 0.79974 0.9551 0.41917 0.0
H547 H 0.7714 0.86508 0.36388 0.0
C548 C 0.78191 0.80446 0.37915 0.0
C549 C 0.79164 0.78798 0.39679 0.0
C550 C 0.79252 0.96774 0.40499 0.0
C551 C 0.78544 0.88461 0.39442 0.0
C552 C 0.79294 0.01538 0.39817 0.0
C553 C 0.78444 0.03204 0.37863 0.0
C554 C 0.78374 0.93651 0.39178 0.0
C555 C 0.77467 0.00099 0.36791 0.0
C556 C 0.77875 0.85279 0.37793 0.0
C557 C 0.79784 0.82075 0.41326 0.0
N558 N 0.77481 0.9543 0.3742 0.0
N559 N 0.79471 0.86749 0.41154 0.0
H560 H 0.52166 0.74467 0.65719 0.0
H561 H 0.56358 0.55253 0.57669 0.0
H562 H 0.5524 0.77948 0.60048 0.0
H563 H 0.53441 0.51657 0.6359 0.0
H564 H 0.55744 0.63579 0.58165 0.0
H565 H 0.52318 0.66146 0.64468 0.0
C566 C 0.52844 0.735 0.64161 0.0
C567 C 0.5371 0.76885 0.63012 0.0
C568 C 0.55235 0.60979 0.59358 0.0
C569 C 0.53913 0.6737 0.61617 0.0
C570 C 0.55594 0.56223 0.59091 0.0
C571 C 0.5496 0.52768 0.60614 0.0
C572 C 0.54236 0.62306 0.61167 0.0
C573 C 0.53966 0.5422 0.624 0.0
C574 C 0.52941 0.6874 0.63466 0.0
C575 C 0.54564 0.75444 0.61 0.0
N576 N 0.53637 0.58892 0.62634 0.0
N577 N 0.54662 0.70775 0.60395 0.0
H578 H 0.68846 0.75548 0.66411 0.0
H579 H 0.72857 0.5265 0.61732 0.0
H580 H 0.73094 0.75946 0.63769 0.0
H581 H 0.68938 0.52317 0.6575 0.0
H582 H 0.73044 0.61155 0.62675 0.0
H583 H 0.68998 0.66946 0.66741 0.0
C584 C 0.69831 0.7382 0.66011 0.0
C585 C 0.70957 0.76412 0.65058 0.0
C586 C 0.72147 0.59206 0.63354 0.0
C587 C 0.71118 0.66594 0.65273 0.0
C588 C 0.72028 0.54385 0.62777 0.0
C589 C 0.70873 0.51813 0.63638 0.0
C590 C 0.71096 0.61437 0.64785 0.0
C591 C 0.69842 0.54185 0.65033 0.0
C592 C 0.69913 0.68906 0.66156 0.0
C593 C 0.72207 0.74041 0.64527 0.0
N594 N 0.69977 0.58862 0.65556 0.0
N595 N 0.72243 0.69226 0.6457 0.0
H596 H 0.44673 0.43332 0.41873 0.0
H597 H 0.489 0.23737 0.34227 0.0
H598 H 0.47512 0.46577 0.3577 0.0
H599 H 0.45851 0.20638 0.40005 0.0
H600 H 0.48791 0.32111 0.35384 0.0
H601 H 0.45388 0.35071 0.41671 0.0
C602 C 0.45442 0.42296 0.40473 0.0
C603 C 0.46019 0.4563 0.38807 0.0
C604 C 0.48169 0.29586 0.36436 0.0
C605 C 0.46858 0.36159 0.38589 0.0
C606 C 0.48242 0.24793 0.35797 0.0
C607 C 0.47357 0.21511 0.36985 0.0
C608 C 0.47205 0.31079 0.38271 0.0
C609 C 0.46534 0.23066 0.39015 0.0
C610 C 0.45859 0.37578 0.40376 0.0
C611 C 0.47026 0.441 0.37063 0.0
N612 N 0.46456 0.27762 0.3956 0.0
N613 N 0.47409 0.39456 0.36988 0.0
H614 H 0.3059 0.44689 0.32677 0.0
H615 H 0.26945 0.22194 0.38811 0.0
H616 H 0.27687 0.45517 0.38914 0.0
H617 H 0.30249 0.21575 0.33272 0.0
H618 H 0.26743 0.30721 0.38087 0.0
H619 H 0.30095 0.3629 0.3226 0.0
C620 C 0.29854 0.4309 0.33976 0.0
C621 C 0.29197 0.45784 0.35866 0.0
C622 C 0.27487 0.28697 0.36982 0.0
C623 C 0.28612 0.36141 0.35376 0.0
C624 C 0.2759 0.23817 0.37367 0.0
C625 C 0.2864 0.21216 0.36138 0.0
C626 C 0.28435 0.30938 0.35352 0.0
C627 C 0.29444 0.23482 0.34289 0.0
C628 C 0.29562 0.38294 0.33719 0.0
C629 C 0.28234 0.43541 0.37462 0.0
N630 N 0.29345 0.28242 0.33989 0.0
N631 N 0.27977 0.38821 0.37194 0.0
H632 H 0.55238 0.27885 0.07734 0.0
H633 H 0.52764 0.02585 0.12443 0.0
H634 H 0.52064 0.25963 0.13432 0.0
H635 H 0.55607 0.04933 0.0623 0.0
H636 H 0.52232 0.11103 0.1248 0.0
H637 H 0.55046 0.19516 0.06632 0.0
C638 C 0.54469 0.25722 0.08698 0.0
C639 C 0.53682 0.2758 0.10698 0.0
C640 C 0.52962 0.09735 0.11094 0.0
C641 C 0.53495 0.17975 0.09529 0.0
C642 C 0.53274 0.0489 0.1109 0.0
C643 C 0.5425 0.03078 0.09365 0.0
C644 C 0.53635 0.12758 0.09365 0.0
C645 C 0.54865 0.06192 0.07623 0.0
C646 C 0.54368 0.20932 0.08087 0.0
C647 C 0.52697 0.24646 0.11884 0.0
N648 N 0.54555 0.10876 0.07681 0.0
N649 N 0.52656 0.19945 0.11327 0.0
H650 H 0.73865 0.97387 0.14206 0.0
H651 H 0.70517 0.18476 0.063 0.0
H652 H 0.7075 0.95639 0.08412 0.0
H653 H 0.72963 0.20615 0.13047 0.0
H654 H 0.71068 0.10073 0.06424 0.0
H655 H 0.74068 0.05772 0.1307 0.0
C656 C 0.73263 0.98727 0.1263 0.0
C657 C 0.72272 0.95856 0.11421 0.0
C658 C 0.71491 0.12371 0.07875 0.0
C659 C 0.72481 0.05409 0.10156 0.0
C660 C 0.71169 0.17171 0.07818 0.0
C661 C 0.71672 0.20228 0.09701 0.0
C662 C 0.72316 0.10585 0.09839 0.0
C663 C 0.72536 0.18356 0.11586 0.0
C664 C 0.73367 0.03522 0.12006 0.0
C665 C 0.71513 0.97761 0.09408 0.0
N666 N 0.72821 0.13627 0.11624 0.0
N667 N 0.71617 0.02444 0.08864 0.0
H668 H 0.47757 0.75934 0.92082 0.0
H669 H 0.47362 0.93778 0.82155 0.0
H670 H 0.49737 0.71739 0.85098 0.0
H671 H 0.49552 0.98495 0.88806 0.0
H672 H 0.4809 0.85597 0.8308 0.0
H673 H 0.48291 0.84252 0.91086 0.0
C674 C 0.48355 0.76748 0.90396 0.0
C675 C 0.48712 0.73154 0.88681 0.0
C676 C 0.4845 0.8846 0.84281 0.0
C677 C 0.49251 0.82601 0.87473 0.0
C678 C 0.48042 0.93111 0.83747 0.0
C679 C 0.48417 0.96802 0.85384 0.0
C680 C 0.49177 0.87506 0.86526 0.0
C681 C 0.49266 0.95746 0.87472 0.0
C682 C 0.48651 0.81479 0.89822 0.0
C683 C 0.49457 0.74403 0.86486 0.0
N684 N 0.49578 0.91165 0.88036 0.0
N685 N 0.49656 0.79045 0.85895 0.0
H686 H 0.28994 0.73536 0.84984 0.0
H687 H 0.28997 0.01224 0.88313 0.0
H688 H 0.29781 0.79255 0.92421 0.0
H689 H 0.2943 0.95611 0.80754 0.0
H690 H 0.28649 0.9313 0.89887 0.0
H691 H 0.28537 0.81604 0.83456 0.0
C692 C 0.29057 0.76484 0.86295 0.0
C693 C 0.29453 0.75768 0.88812 0.0
C694 C 0.28802 0.93689 0.8788 0.0
C695 C 0.28922 0.84924 0.87103 0.0
C696 C 0.28997 0.98295 0.86985 0.0
C697 C 0.2927 0.99046 0.84415 0.0
C698 C 0.28873 0.89853 0.86182 0.0
C699 C 0.2925 0.95154 0.82761 0.0
C700 C 0.28796 0.81072 0.85428 0.0
C701 C 0.29506 0.79681 0.90449 0.0
N702 N 0.29069 0.9071 0.83677 0.0
N703 N 0.29254 0.84102 0.89561 0.0
H704 H 0.96603 0.5506 0.97911 0.0
H705 H 0.04057 0.42719 -0.00203 0.0
H706 H 1.00092 0.57053 0.92859 0.0
H707 H 0.00707 0.41811 0.05234 0.0
H708 H 0.02589 0.47802 0.97154 0.0
H709 H 0.98095 0.50291 0.00671 0.0
C710 C 0.97689 0.54577 0.97411 0.0
C711 C 0.98224 0.56443 0.95153 0.0
C712 C 0.02174 0.46472 0.98922 0.0
C713 C 0.99925 0.50908 0.98255 0.0
C714 C 0.03007 0.43535 0.00415 0.0
C715 C 0.02502 0.41845 0.02733 0.0
C716 C 0.00828 0.47709 -0.00245 0.0
C717 C 0.01138 0.43045 0.03459 0.0
C718 C 0.98537 0.51817 0.9897 0.0
C719 C 0.99635 0.55667 0.9458 0.0
N720 N 1.0035 0.45911 0.0198 0.0
N721 N 1.00433 0.52926 0.96107 0.0
H722 H 0.25837 0.6357 0.9528 0.0
H723 H 0.24737 0.86819 0.03706 0.0
H724 H 0.2915 0.7081 0.99207 0.0
H725 H 0.21307 0.78161 0.01171 0.0
H726 H 0.26359 0.81349 0.01676 0.0
H727 H 0.24149 0.68943 0.9725 0.0
C728 C 0.26206 0.66225 0.96601 0.0
C729 C 0.27637 0.6674 0.97084 0.0
C730 C 0.25252 0.80658 0.01541 0.0
C731 C 0.25716 0.72989 0.99279 0.0
C732 C 0.24323 0.83815 0.02672 0.0
C733 C 0.22884 0.82944 0.02607 0.0
C734 C 0.24742 0.76582 0.00331 0.0
C735 C 0.22408 0.78986 0.01249 0.0
C736 C 0.25243 0.69318 0.97705 0.0
C737 C 0.28057 0.70262 0.98794 0.0
N738 N 0.23336 0.75923 0.00179 0.0
N739 N 0.27103 0.73286 -0.00194 0.0
H740 H 0.02654 0.85501 0.24635 0.0
H741 H 0.97218 0.64401 0.25019 0.0
H742 H 0.01113 0.78827 0.17844 0.0
H743 H 0.97096 0.75583 0.30594 0.0
H744 H 0.98842 0.69175 0.22492 0.0
H745 H 0.00821 0.81387 0.27066 0.0
C746 C 0.01931 0.83192 0.23659 0.0
C747 C 0.02033 0.82511 0.21038 0.0
C748 C 0.98443 0.70603 0.24254 0.0
C749 C 0.99965 0.77777 0.23787 0.0
C750 C 0.97515 0.67892 0.25686 0.0
C751 C 0.97012 0.69625 0.27998 0.0
C752 C 0.98901 0.75012 0.25179 0.0
C753 C 0.97444 0.74148 0.288 0.0
C754 C 0.00885 0.80868 0.25039 0.0
C755 C 0.0107 0.79478 0.19861 0.0
N756 N 0.98381 0.76662 0.27409 0.0
N757 N 1.00087 0.7719 0.21245 0.0
H758 H 0.20693 0.44862 0.24681 0.0
H759 H 0.28354 0.55054 0.27059 0.0
H760 H 0.24427 0.39075 0.21315 0.0
H761 H 0.24912 0.58077 0.32075 0.0
H762 H 0.26817 0.50023 0.2453 0.0
H763 H 0.22143 0.50221 0.27221 0.0
C764 C 0.21817 0.44639 0.24521 0.0
C765 C 0.22442 0.41524 0.22786 0.0
C766 C 0.26395 0.51827 0.26171 0.0
C767 C 0.24095 0.47728 0.25603 0.0
C768 C 0.27266 0.54754 0.27591 0.0
C769 C 0.26759 0.56967 0.2978 0.0
C770 C 0.25006 0.51139 0.2694 0.0
C771 C 0.25344 0.56414 0.30401 0.0
C772 C 0.22642 0.47734 0.25946 0.0
C773 C 0.23901 0.41428 0.22626 0.0
N774 N 0.24517 0.53528 0.28997 0.0
N775 N 0.24677 0.4452 0.23993 0.0
H776 H 0.8001 0.24306 0.96673 0.0
H777 H 0.72113 0.27774 0.00928 0.0
H778 H 0.77014 0.12902 0.96973 0.0
H779 H 0.75396 0.35787 0.0449 0.0
H780 H 0.73873 0.2341 0.98495 0.0
H781 H 0.78313 0.29493 0.98824 0.0
C782 C 0.79008 0.22874 0.97228 0.0
C783 C 0.78657 0.18156 0.96662 0.0
C784 C 0.74204 0.26183 -0.00221 0.0
C785 C 0.76705 0.24095 0.99 0.0
C786 C 0.732 0.28719 0.01137 0.0
C787 C 0.73613 0.32134 0.0291 0.0
C788 C 0.75624 0.27128 0.00173 0.0
C789 C 0.75039 0.33166 0.0314 0.0
C790 C 0.7804 0.25839 0.9843 0.0
C791 C 0.77336 0.16499 0.9739 0.0
N792 N 0.75998 0.30656 0.01794 0.0
N793 N 0.76403 0.19479 0.98491 0.0
H794 H 0.96673 0.25457 0.79125 0.0
H795 H 0.04552 0.29135 0.74712 0.0
H796 H 0.99604 0.14009 0.78051 0.0
H797 H 0.013 0.38626 0.72255 0.0
H798 H 0.02798 0.24329 0.7689 0.0
H799 H 0.98387 0.30967 0.77291 0.0
C800 C 0.97664 0.24089 0.78463 0.0
C801 C 0.97992 0.19259 0.78724 0.0
C802 C 0.02473 0.27508 0.75906 0.0
C803 C 0.99965 0.25548 0.76736 0.0
C804 C 0.03475 0.30291 0.74697 0.0
C805 C 0.03069 0.34274 0.73297 0.0
C806 C 0.01058 0.28754 0.7574 0.0
C807 C 0.01654 0.35568 0.73311 0.0
C808 C 0.98643 0.27237 0.77442 0.0
C809 C 0.993 0.17692 0.77871 0.0
N810 N 0.00696 0.32798 0.74501 0.0
N811 N 1.00243 0.20832 0.76944 0.0
H812 H 0.75514 0.41371 0.67456 0.0
H813 H 0.75549 0.5681 0.80137 0.0
H814 H 0.72024 0.42221 0.72595 0.0
H815 H 0.79168 0.54948 0.75379 0.0
H816 H 0.74211 0.51805 0.77271 0.0
H817 H 0.7687 0.46339 0.70316 0.0
C818 C 0.75041 0.42539 0.69212 0.0
C819 C 0.73654 0.41385 0.69793 0.0
C820 C 0.75294 0.52513 0.7684 0.0
C821 C 0.75191 0.47167 0.73048 0.0
C822 C 0.76056 0.5541 0.78462 0.0
C823 C 0.77473 0.56291 0.77994 0.0
C824 C 0.75952 0.50472 0.74732 0.0
C825 C 0.78077 0.54375 0.75803 0.0
C826 C 0.75813 0.45406 0.70834 0.0
C827 C 0.73092 0.43004 0.72085 0.0
N828 N 0.77315 0.51526 0.74259 0.0
N829 N 0.73859 0.45854 0.73621 0.0
H830 H 0.99977 0.08658 0.42871 0.0
H831 H 0.00735 0.89209 0.53779 0.0
H832 H 0.96506 0.0332 0.47213 0.0
H833 H 0.04243 0.95328 0.49846 0.0
H834 H 0.99167 0.9412 0.51271 0.0
H835 H 0.01558 0.03891 0.45432 0.0
C836 C 0.9955 0.0655 0.444 0.0
C837 C 0.98107 0.06389 0.44835 0.0
C838 C 1.00279 0.94369 0.5094 0.0
C839 C 0.9991 0.00818 0.47731 0.0
C840 C 0.01175 0.91529 0.52354 0.0
C841 C 0.02623 0.91856 0.52019 0.0
C842 C 0.00832 0.97576 0.49177 0.0
C843 C 0.03134 0.94941 0.50155 0.0
C844 C 1.00453 0.03796 0.45847 0.0
C845 C 0.97611 0.0358 0.46829 0.0
N846 N 0.02239 0.97705 0.48815 0.0
N847 N 0.98511 0.00865 0.48188 0.0
H848 H 0.27193 0.12805 0.47293 0.0
H849 H 0.25363 0.36882 0.54069 0.0
H850 H 0.29787 0.25087 0.46036 0.0
H851 H 0.22195 0.2738 0.51297 0.0
H852 H 0.27111 0.3255 0.51573 0.0
H853 H 0.25488 0.17844 0.4943 0.0
C854 C 0.27419 0.16548 0.47512 0.0
C855 C 0.28638 0.18527 0.4649 0.0
C856 C 0.26029 0.31482 0.51475 0.0
C857 C 0.26678 0.24315 0.48911 0.0
C858 C 0.25031 0.33963 0.52879 0.0
C859 C 0.23633 0.32499 0.52868 0.0
C860 C 0.25628 0.27429 0.50121 0.0
C861 C 0.23258 0.28659 0.51329 0.0
C862 C 0.26435 0.19428 0.48699 0.0
C863 C 0.28864 0.23415 0.46808 0.0
N864 N 0.24256 0.26192 0.50055 0.0
N865 N 0.27893 0.26152 0.48001 0.0
H866 H 0.24018 0.88444 0.71552 0.0
H867 H 0.25975 0.13489 0.77192 0.0
H868 H 0.21341 0.00457 0.70149 0.0
H869 H 0.29056 0.03595 0.7444 0.0
H870 H 0.24148 0.08737 0.75149 0.0
H871 H 0.25739 0.93772 0.73406 0.0
C872 C 0.23777 0.92191 0.71685 0.0
C873 C 0.22532 0.94009 0.70691 0.0
C874 C 0.25228 0.07667 0.7496 0.0
C875 C 0.24511 0.00127 0.72784 0.0
C876 C 0.26269 0.10385 0.76105 0.0
C877 C 0.27668 0.0894 0.75973 0.0
C878 C 0.25589 0.03417 0.73743 0.0
C879 C 0.27993 0.04863 0.74569 0.0
C880 C 0.2477 0.95233 0.7271 0.0
C881 C 0.22285 0.98909 0.709 0.0
N882 N 0.26958 0.02194 0.73548 0.0
N883 N 0.23268 0.01812 0.71925 0.0
H884 H 0.75319 0.6587 0.44448 0.0
H885 H 0.74563 0.79313 0.57681 0.0
H886 H 0.78712 0.67897 0.49679 0.0
H887 H 0.71258 0.78581 0.52176 0.0
H888 H 0.76007 0.74354 0.54974 0.0
H889 H 0.73734 0.69562 0.47483 0.0
C890 C 0.75727 0.6702 0.46256 0.0
C891 C 0.77154 0.66608 0.46806 0.0
C892 C 0.74967 0.75261 0.54352 0.0
C893 C 0.75344 0.70899 0.50275 0.0
C894 C 0.7414 0.78111 0.55895 0.0
C895 C 0.7279 0.79405 0.5514 0.0
C896 C 0.74447 0.73675 0.52026 0.0
C897 C 0.72295 0.77697 0.52819 0.0
C898 C 0.74821 0.69154 0.47981 0.0
C899 C 0.77622 0.68149 0.49177 0.0
N900 N 0.73127 0.7493 0.51335 0.0
N901 N 0.76721 0.7027 0.50815 0.0
H902 H 0.73647 0.86724 0.23182 0.0
H903 H 0.76499 0.12851 0.26154 0.0
H904 H 0.71583 -0.00493 0.20727 0.0
H905 H 0.78662 0.00024 0.28235 0.0
H906 H 0.74692 0.08052 0.24138 0.0
H907 H 0.75433 0.91561 0.25223 0.0
C908 C 0.73554 0.90552 0.23117 0.0
C909 C 0.72462 0.92713 0.21784 0.0
C910 C 0.75568 0.06286 0.25015 0.0
C911 C 0.74525 0.9828 0.24063 0.0
C912 C 0.76608 0.09027 0.26144 0.0
C913 C 0.77735 0.06836 0.2736 0.0
C914 C 0.75651 0.01313 0.25115 0.0
C915 C 0.77816 0.01865 0.27308 0.0
C916 C 0.74583 0.93314 0.24259 0.0
C917 C 0.72401 0.97689 0.21745 0.0
N918 N 0.76782 -0.00727 0.26224 0.0
N919 N 0.73424 0.00303 0.22849 0.0
H920 H 0.4991 0.58445 0.43723 0.0
H921 H 0.50878 0.40574 0.55305 0.0
H922 H 0.46533 0.53856 0.48535 0.0
H923 H 0.54265 0.45216 0.50531 0.0
H924 H 0.49267 0.45291 0.52791 0.0
H925 H 0.51531 0.53829 0.46273 0.0
C926 C 0.49513 0.56531 0.45348 0.0
C927 C 0.48085 0.56525 0.4592 0.0
C928 C 0.5036 0.45256 0.52277 0.0
C929 C 0.49931 0.51142 0.48811 0.0
C930 C 0.51279 0.4253 0.53698 0.0
C931 C 0.52708 0.42509 0.53123 0.0
C932 C 0.50871 0.48004 0.5027 0.0
C933 C 0.5317 0.45113 0.51028 0.0
C934 C 0.50439 0.53861 0.46789 0.0
C935 C 0.47628 0.53976 0.48038 0.0
N936 N 0.52255 0.4779 0.49686 0.0
N937 N 0.48548 0.51348 0.49396 0.0
H938 H 0.54323 0.76829 0.73961 0.0
H939 H 0.46887 0.75761 0.8082 0.0
H940 H 0.51394 0.88435 0.73789 0.0
H941 H 0.4942 0.63455 0.79235 0.0
H942 H 0.48581 0.80687 0.78555 0.0
H943 H 0.52643 0.72186 0.76408 0.0
C944 C 0.5334 0.7844 0.74489 0.0
C945 C 0.52996 0.83018 0.73667 0.0
C946 C 0.48755 0.76899 0.78677 0.0
C947 C 0.51058 0.77696 0.76417 0.0
C948 C 0.47781 0.74078 0.79944 0.0
C949 C 0.48007 0.69182 0.802 0.0
C950 C 0.49968 0.7481 0.7768 0.0
C951 C 0.49199 0.67208 0.79071 0.0
C952 C 0.52373 0.75767 0.75856 0.0
C953 C 0.51699 0.84911 0.74382 0.0
N954 N 0.50139 0.70032 0.7788 0.0
N955 N 0.50773 0.82233 0.75704 0.0
H956 H 0.49217 0.10959 0.25682 0.0
H957 H 0.52038 0.36907 0.22308 0.0
H958 H 0.4685 0.23769 0.26914 0.0
H959 H 0.54176 0.24043 0.20161 0.0
H960 H 0.50197 0.32141 0.24242 0.0
H961 H 0.51052 0.1565 0.23674 0.0
C962 C 0.4907 0.14749 0.25479 0.0
C963 C 0.47877 0.16976 0.26462 0.0
C964 C 0.51074 0.30357 0.23366 0.0
C965 C 0.49994 0.22388 0.24235 0.0
C966 C 0.52135 0.33079 0.22288 0.0
C967 C 0.53264 0.30871 0.21073 0.0
C968 C 0.51141 0.25386 0.23231 0.0
C969 C 0.53328 0.25896 0.21088 0.0
C970 C 0.50125 0.17432 0.24355 0.0
C971 C 0.47747 0.21902 0.26167 0.0
N972 N 0.52277 0.23321 0.22135 0.0
N973 N 0.48799 0.24449 0.25105 0.0
H974 H 0.4648 0.96805 0.94902 0.0
H975 H 0.54251 0.93711 0.00024 0.0
H976 H 0.49755 0.07094 0.93801 0.0
H977 H 0.50742 0.87502 0.03912 0.0
H978 H 0.52643 0.97281 0.96981 0.0
H979 H 0.48051 0.92243 0.97659 0.0
C980 C 0.47519 0.98136 0.95268 0.0
C981 C 0.47983 0.02356 0.9414 0.0
C982 C 0.52229 0.95081 0.98483 0.0
C983 C 0.49788 0.97096 0.97192 0.0
C984 C 0.53146 0.92999 0.00198 0.0
C985 C 0.52626 0.90338 0.02226 0.0
C986 C 0.50785 0.94447 0.98785 0.0
C987 C 0.51182 0.89562 0.02379 0.0
C988 C 0.48415 0.95519 0.96819 0.0
C989 C 0.49347 0.03883 0.94644 0.0
N990 N 0.50308 0.91632 0.00688 0.0
N991 N 0.50203 0.01239 0.96113 0.0
H992 H 0.16675 0.36753 0.10198 0.0
H993 H 0.0876 0.30807 0.13644 0.0
H994 H 0.1529 0.32884 0.17686 0.0
H995 H 0.10122 0.34822 0.06165 0.0
H996 H 0.11175 0.30804 0.15051 0.0
H997 H 0.14321 0.3547 0.08617 0.0
C998 C 0.15874 0.35624 0.11513 0.0
C999 C 0.16177 0.3495 0.14085 0.0
C1000 C 0.10951 0.31641 0.13096 0.0
C1001 C 0.13474 0.33458 0.12277 0.0
C1002 C 0.09571 0.31627 0.12286 0.0
C1003 C 0.09239 0.32848 0.09785 0.0
C1004 C 0.12013 0.32916 0.114 0.0
C1005 C 0.10333 0.33859 0.08108 0.0
C1006 C 0.1453 0.34881 0.10604 0.0
C1007 C 0.151 0.33465 0.15694 0.0
N1008 N 0.11671 0.33919 0.08954 0.0
N1009 N 0.13794 0.32787 0.14764 0.0
H1010 H 0.08862 0.93132 0.11072 0.0
H1011 H 0.16792 0.87777 0.14701 0.0
H1012 H 0.10143 0.88747 0.18526 0.0
H1013 H 0.15435 0.91247 0.07154 0.0
H1014 H 0.14404 0.8871 0.16214 0.0
H1015 H 0.1129 0.93196 0.09727 0.0
C1016 C 0.09658 0.92234 0.1244 0.0
C1017 C 0.09297 0.90907 0.14916 0.0
C1018 C 0.14626 0.8928 0.14229 0.0
C1019 C 0.12092 0.90918 0.13367 0.0
C1020 C 0.15991 0.88742 0.13358 0.0
C1021 C 0.16315 0.89415 0.1079 0.0
C1022 C 0.13569 0.9051 0.12523 0.0
C1023 C 0.15233 0.90675 0.09145 0.0
C1024 C 0.11047 0.92254 0.11663 0.0
C1025 C 0.10374 0.89799 0.16602 0.0
N1026 N 0.13908 0.91173 0.1004 0.0
N1027 N 0.11724 0.89791 0.1579 0.0
H1028 H 0.84799 0.63094 0.813 0.0
H1029 H 0.90763 0.63112 0.91914 0.0
H1030 H 0.83971 0.62334 0.89315 0.0
H1031 H 0.91589 0.61847 0.83916 0.0
H1032 H 0.8827 0.63772 0.90989 0.0
H1033 H 0.87298 0.63589 0.82212 0.0
C1034 C 0.85142 0.63069 0.8325 0.0
C1035 C 0.84179 0.62641 0.85233 0.0
C1036 C 0.88998 0.63373 0.89436 0.0
C1037 C 0.87029 0.63197 0.86293 0.0
C1038 C 0.90421 0.63006 0.89964 0.0
C1039 C 0.91382 0.62393 0.87991 0.0
C1040 C 0.88537 0.63141 0.86916 0.0
C1041 C 0.90882 0.62286 0.85497 0.0
C1042 C 0.86568 0.63339 0.83771 0.0
C1043 C 0.8468 0.6263 0.87726 0.0
N1044 N 0.89495 0.62639 0.85032 0.0
N1045 N 0.86069 0.62884 0.88184 0.0
H1046 H 0.92254 0.09022 0.89838 0.0
H1047 H 0.84356 0.09322 0.85109 0.0
H1048 H 0.91104 0.1119 0.82041 0.0
H1049 H 0.85504 0.10574 0.92966 0.0
H1050 H 0.86818 0.09309 0.83948 0.0
H1051 H 0.89792 0.08894 0.90999 0.0
C1052 C 0.91482 0.09456 0.88365 0.0
C1053 C 0.91886 0.10116 0.85834 0.0
C1054 C 0.86534 0.09587 0.85926 0.0
C1055 C 0.89058 0.09964 0.8716 0.0
C1056 C 0.85127 0.09577 0.86595 0.0
C1057 C 0.84723 0.09947 0.89143 0.0
C1058 C 0.87551 0.09929 0.87817 0.0
C1059 C 0.85769 0.10283 0.90981 0.0
C1060 C 0.90076 0.09399 0.89035 0.0
C1061 C 0.9084 0.10674 0.84012 0.0
N1062 N 0.87136 0.10254 0.90282 0.0
N1063 N 0.89473 0.10573 0.8471 0.0
H1064 H 0.16897 0.83453 0.59339 0.0
H1065 H 0.09071 0.89405 0.63536 0.0
H1066 H 0.15758 0.88205 0.66824 0.0
H1067 H 0.10196 0.85191 0.55953 0.0
H1068 H 0.11508 0.88841 0.64774 0.0
H1069 H 0.14452 0.83861 0.58088 0.0
C1070 C 0.16131 0.84565 0.60725 0.0
C1071 C 0.16533 0.858 0.63193 0.0
C1072 C 0.11227 0.88041 0.62838 0.0
C1073 C 0.13727 0.86294 0.61764 0.0
C1074 C 0.09833 0.88365 0.62125 0.0
C1075 C 0.09428 0.87345 0.59633 0.0
C1076 C 0.12233 0.86676 0.6105 0.0
C1077 C 0.10463 0.86017 0.57892 0.0
C1078 C 0.14734 0.84806 0.60006 0.0
C1079 C 0.15495 0.87218 0.64904 0.0
N1080 N 0.11818 0.85715 0.58635 0.0
N1081 N 0.1414 0.87433 0.64156 0.0
H1082 H 0.10694 0.37911 0.69068 0.0
H1083 H 0.15983 0.3712 0.57262 0.0
H1084 H 0.09378 0.37238 0.61279 0.0
H1085 H 0.1728 0.35385 0.65013 0.0
H1086 H 0.13562 0.37788 0.58713 0.0
H1087 H 0.1313 0.37611 0.6764 0.0
C1088 C 0.10917 0.37717 0.67061 0.0
C1089 C 0.09832 0.37586 0.65292 0.0
C1090 C 0.14377 0.37263 0.60096 0.0
C1091 C 0.1261 0.37255 0.63643 0.0
C1092 C 0.15759 0.36888 0.59267 0.0
C1093 C 0.16835 0.36181 0.61016 0.0
C1094 C 0.1407 0.36959 0.62696 0.0
C1095 C 0.16484 0.35911 0.63595 0.0
C1096 C 0.12307 0.37535 0.66246 0.0
C1097 C 0.10181 0.37331 0.62712 0.0
N1098 N 0.15134 0.36304 0.64356 0.0
N1099 N 0.11536 0.37177 0.61968 0.0
H1100 H 0.83901 0.17359 0.37903 0.0
H1101 H 0.91484 0.0903 0.33386 0.0
H1102 H 0.84694 0.1102 0.30608 0.0
H1103 H 0.90552 0.13902 0.40941 0.0
H1104 H 0.89041 0.1014 0.3224 0.0
H1105 H 0.86366 0.16615 0.38924 0.0
C1106 C 0.84597 0.15837 0.36504 0.0
C1107 C 0.84089 0.14241 0.34165 0.0
C1108 C 0.89369 0.10967 0.34148 0.0
C1109 C 0.86923 0.13349 0.35336 0.0
C1110 C 0.90765 0.10335 0.34806 0.0
C1111 C 0.91223 0.1137 0.37267 0.0
C1112 C 0.88421 0.1267 0.35959 0.0
C1113 C 0.90244 0.1305 0.39026 0.0
C1114 C 0.86006 0.15399 0.37095 0.0
C1115 C 0.85041 0.123 0.32432 0.0
N1116 N 0.8889 0.13652 0.38337 0.0
N1117 N 0.86413 0.11896 0.33055 0.0
H1118 H 0.90506 0.63417 0.3184 0.0
H1119 H 0.84835 0.61144 0.42977 0.0
H1120 H 0.91537 0.59136 0.39439 0.0
H1121 H 0.83858 0.65113 0.35305 0.0
H1122 H 0.87295 0.6036 0.41752 0.0
H1123 H 0.88056 0.63993 0.33092 0.0
C1124 C 0.90216 0.62578 0.33769 0.0
C1125 C 0.91226 0.61224 0.35535 0.0
C1126 C 0.8654 0.61401 0.40339 0.0
C1127 C 0.88423 0.61896 0.36993 0.0
C1128 C 0.85137 0.61852 0.41039 0.0
C1129 C 0.8414 0.63196 0.39242 0.0
C1130 C 0.86946 0.62305 0.37825 0.0
C1131 C 0.8459 0.64067 0.36756 0.0
C1132 C 0.88817 0.62914 0.34487 0.0
C1133 C 0.90791 0.6019 0.38014 0.0
N1134 N 0.85955 0.63609 0.36124 0.0
N1135 N 0.89424 0.60556 0.3867 0.0
H1136 H 0.60313 0.35661 0.55859 0.0
H1137 H 0.66239 0.33545 0.66477 0.0
H1138 H 0.59503 0.36036 0.63888 0.0
H1139 H 0.67113 0.34986 0.58506 0.0
H1140 H 0.63744 0.33372 0.6552 0.0
H1141 H 0.62794 0.34425 0.56749 0.0
C1142 C 0.60656 0.3546 0.57805 0.0
C1143 C 0.59704 0.35991 0.59801 0.0
C1144 C 0.64483 0.33687 0.63978 0.0
C1145 C 0.62532 0.34564 0.60836 0.0
C1146 C 0.65907 0.33764 0.64525 0.0
C1147 C 0.66883 0.34318 0.62571 0.0
C1148 C 0.64034 0.34162 0.6146 0.0
C1149 C 0.66395 0.34588 0.60073 0.0
C1150 C 0.62071 0.34756 0.58314 0.0
C1151 C 0.60203 0.35683 0.6229 0.0
N1152 N 0.65005 0.34539 0.59591 0.0
N1153 N 0.61581 0.35007 0.62736 0.0
H1154 H 0.59236 0.81552 0.63873 0.0
H1155 H 0.66573 0.94793 0.6471 0.0
H1156 H 0.59838 0.94188 0.68352 0.0
H1157 H 0.65545 0.84634 0.58899 0.0
H1158 H 0.64167 0.94418 0.66251 0.0
H1159 H 0.6162 0.82242 0.62314 0.0
C1160 C 0.59876 0.84447 0.64553 0.0
C1161 C 0.59336 0.87817 0.66251 0.0
C1162 C 0.64465 0.92305 0.64625 0.0
C1163 C 0.62072 0.88654 0.64445 0.0
C1164 C 0.65836 0.92529 0.63738 0.0
C1165 C 0.66259 0.89743 0.6167 0.0
C1166 C 0.63514 0.89222 0.63459 0.0
C1167 C 0.65263 0.86859 0.6049 0.0
C1168 C 0.61235 0.8486 0.63643 0.0
C1169 C 0.60213 0.91504 0.67053 0.0
N1170 N 0.63941 0.8664 0.61416 0.0
N1171 N 0.61539 0.91827 0.66142 0.0
H1172 H 0.41266 0.61311 0.34951 0.0
H1173 H 0.33573 0.61662 0.4074 0.0
H1174 H 0.40412 0.61913 0.42961 0.0
H1175 H 0.34435 0.62752 0.32749 0.0
H1176 H 0.36069 0.6192 0.41591 0.0
H1177 H 0.38775 0.61974 0.34109 0.0
C1178 C 0.40553 0.61597 0.36536 0.0
C1179 C 0.41046 0.61534 0.39033 0.0
C1180 C 0.35715 0.62134 0.39651 0.0
C1181 C 0.38187 0.62282 0.38079 0.0
C1182 C 0.34289 0.61984 0.39162 0.0
C1183 C 0.33796 0.62164 0.36667 0.0
C1184 C 0.36661 0.62431 0.3763 0.0
C1185 C 0.34771 0.62598 0.347 0.0
C1186 C 0.3913 0.61985 0.36052 0.0
C1187 C 0.40076 0.61937 0.41009 0.0
N1188 N 0.36158 0.62683 0.35223 0.0
N1189 N 0.38691 0.62267 0.40489 0.0
H1190 H 0.40875 0.06125 0.31189 0.0
H1191 H 0.3534 0.15131 0.4154 0.0
H1192 H 0.41678 0.17452 0.36484 0.0
H1193 H 0.34281 0.05586 0.35458 0.0
H1194 H 0.37717 0.15646 0.3986 0.0
H1195 H 0.38477 0.05634 0.32794 0.0
C1196 C 0.40542 0.08545 0.32665 0.0
C1197 C 0.41477 0.11838 0.337 0.0
C1198 C 0.36965 0.13427 0.38897 0.0
C1199 C 0.38748 0.11241 0.35578 0.0
C1200 C 0.35611 0.13109 0.39867 0.0
C1201 C 0.34612 0.10312 0.38639 0.0
C1202 C 0.37325 0.10909 0.3669 0.0
C1203 C 0.35019 0.0779 0.36464 0.0
C1204 C 0.39177 0.08249 0.3359 0.0
C1205 C 0.40993 0.14862 0.35625 0.0
N1206 N 0.36342 0.08148 0.3556 0.0
N1207 N 0.39668 0.14471 0.36511 0.0
H1208 H 0.66664 0.82142 0.10583 0.0
H1209 H 0.5892 0.8992 0.14443 0.0
H1210 H 0.65607 0.88056 0.17869 0.0
H1211 H 0.60045 0.84788 0.07023 0.0
H1212 H 0.61338 0.89002 0.15782 0.0
H1213 H 0.64228 0.82751 0.09324 0.0
C1214 C 0.65917 0.83546 0.11928 0.0
C1215 C 0.66342 0.85056 0.14338 0.0
C1216 C 0.61059 0.88075 0.13861 0.0
C1217 C 0.63541 0.8579 0.12895 0.0
C1218 C 0.59677 0.88599 0.13092 0.0
C1219 C 0.59279 0.87433 0.10613 0.0
C1220 C 0.62056 0.86357 0.12144 0.0
C1221 C 0.60306 0.85738 0.08949 0.0
C1222 C 0.64524 0.83904 0.11202 0.0
C1223 C 0.65326 0.86846 0.15995 0.0
N1224 N 0.61646 0.85249 0.09745 0.0
N1225 N 0.63973 0.87175 0.15241 0.0
H1226 H 0.66939 0.3333 0.14408 0.0
H1227 H 0.59292 0.41435 0.10206 0.0
H1228 H 0.6597 0.38569 0.06954 0.0
H1229 H 0.60197 0.35222 0.17471 0.0
H1230 H 0.61749 0.40772 0.09064 0.0
H1231 H 0.64499 0.34279 0.15616 0.0
C1232 C 0.66212 0.3468 0.13021 0.0
C1233 C 0.66661 0.35869 0.10572 0.0
C1234 C 0.61414 0.39565 0.10912 0.0
C1235 C 0.63857 0.36983 0.11954 0.0
C1236 C 0.6001 0.39955 0.11571 0.0
C1237 C 0.59537 0.38377 0.13941 0.0
C1238 C 0.6236 0.3758 0.12632 0.0
C1239 C 0.60517 0.36488 0.15627 0.0
C1240 C 0.64817 0.35222 0.13716 0.0
C1241 C 0.6567 0.376 0.08859 0.0
N1242 N 0.61881 0.36132 0.14938 0.0
N1243 N 0.64315 0.3811 0.09583 0.0
H1244 H 0.41165 0.07184 0.8975 0.0
H1245 H 0.35475 0.12075 0.78941 0.0
H1246 H 0.42252 0.09532 0.81929 0.0
H1247 H 0.3449 0.0952 0.8679 0.0
H1248 H 0.3796 0.11105 0.79937 0.0
H1249 H 0.38705 0.07926 0.88647 0.0
C1250 C 0.40885 0.07839 0.87797 0.0
C1251 C 0.41916 0.083 0.8593 0.0
C1252 C 0.37197 0.10758 0.81437 0.0
C1253 C 0.39096 0.09181 0.84647 0.0
C1254 C 0.35781 0.11316 0.80869 0.0
C1255 C 0.34774 0.10887 0.82784 0.0
C1256 C 0.37606 0.09765 0.83937 0.0
C1257 C 0.35228 0.09891 0.8525 0.0
C1258 C 0.39479 0.0827 0.87166 0.0
C1259 C 0.41492 0.09152 0.83429 0.0
N1260 N 0.36605 0.09368 0.85752 0.0
N1261 N 0.40115 0.09576 0.8286 0.0
H1262 H 0.42348 0.61733 0.92151 0.0
H1263 H 0.34612 0.64265 0.86674 0.0
H1264 H 0.41378 0.63964 0.84278 0.0
H1265 H 0.35441 0.61376 0.94541 0.0
H1266 H 0.37102 0.64371 0.85837 0.0
H1267 H 0.39849 0.61794 0.93131 0.0
C1268 C 0.41609 0.62245 0.9063 0.0
C1269 C 0.42071 0.6284 0.88127 0.0
C1270 C 0.36746 0.63712 0.8775 0.0
C1271 C 0.39214 0.62912 0.89236 0.0
C1272 C 0.3532 0.63651 0.88232 0.0
C1273 C 0.34816 0.628 0.90684 0.0
C1274 C 0.37688 0.62917 0.8973 0.0
C1275 C 0.35786 0.62039 0.92623 0.0
C1276 C 0.40184 0.62275 0.91191 0.0
C1277 C 0.4107 0.63487 0.86233 0.0
N1278 N 0.37179 0.62112 0.92104 0.0
N1279 N 0.39692 0.63504 0.86827 0.0
H1280 H 0.03423 0.03582 0.18051 0.0
H1281 H 0.03432 0.20454 0.0627 0.0
H1282 H 0.03106 0.98527 0.10366 0.0
H1283 H 0.02929 0.25464 0.13933 0.0
H1284 H 0.02909 0.12422 0.07691 0.0
H1285 H 0.02847 0.11554 0.16601 0.0
C1286 C 0.03211 0.04144 0.16062 0.0
C1287 C 0.03341 0.0043 0.14314 0.0
C1288 C 0.02886 0.15286 0.09057 0.0
C1289 C 0.02698 0.09528 0.12638 0.0
C1290 C 0.03187 0.19869 0.08246 0.0
C1291 C 0.03253 0.2359 0.1 0.0
C1292 C 0.02675 0.14424 0.11646 0.0
C1293 C 0.02908 0.22668 0.12528 0.0
C1294 C 0.02878 0.08691 0.15235 0.0
C1295 C 0.03036 0.01319 0.11768 0.0
N1296 N 0.02661 0.1815 0.13288 0.0
N1297 N 0.02755 0.05806 0.10997 0.0
H1298 H 0.22612 -0.00825 0.14032 0.0
H1299 H 0.22164 0.26526 0.10329 0.0
H1300 H 0.2142 0.04266 0.06651 0.0
H1301 H 0.21786 0.21169 0.17942 0.0
H1302 H 0.22672 0.18469 0.08847 0.0
H1303 H 0.23092 0.07344 0.15325 0.0
C1304 C 0.22474 0.02006 0.12672 0.0
C1305 C 0.21948 0.01081 0.10251 0.0
C1306 C 0.22502 0.19086 0.10847 0.0
C1307 C 0.22499 0.10369 0.11708 0.0
C1308 C 0.22216 0.23667 0.11692 0.0
C1309 C 0.21907 0.24464 0.14249 0.0
C1310 C 0.22491 0.15323 0.12582 0.0
C1311 C 0.21994 0.20667 0.15946 0.0
C1312 C 0.22747 0.06654 0.13411 0.0
C1313 C 0.218 0.04855 0.08552 0.0
N1314 N 0.22265 0.16237 0.15077 0.0
N1315 N 0.22059 0.09358 0.09323 0.0
H1316 H 0.96637 0.71619 0.82749 0.0
H1317 H 0.98603 0.9751 0.8771 0.0
H1318 H 0.97808 0.7503 0.90409 0.0
H1319 H 0.96295 0.94916 0.8085 0.0
H1320 H 0.98959 0.88982 0.88169 0.0
H1321 H 0.97138 0.79852 0.81519 0.0
C1322 C 0.97028 0.74077 0.84154 0.0
C1323 C 0.97161 0.72704 0.86687 0.0
C1324 C 0.98391 0.90284 0.86545 0.0
C1325 C 0.97737 0.82026 0.85309 0.0
C1326 C 0.98187 0.95146 0.86283 0.0
C1327 C 0.97394 0.96897 0.84269 0.0
C1328 C 0.97792 0.87161 0.84786 0.0
C1329 C 0.96895 0.93691 0.82453 0.0
C1330 C 0.97308 0.7876 0.83457 0.0
C1331 C 0.97671 0.75991 0.88443 0.0
N1332 N 0.97086 0.88957 0.82773 0.0
N1333 N 0.9793 0.80514 0.87725 0.0
H1334 H 0.80008 0.94312 0.9351 0.0
H1335 H 0.77914 0.75831 0.83026 0.0
H1336 H 0.77942 0.98179 0.8657 0.0
H1337 H 0.7902 0.71641 0.90602 0.0
H1338 H 0.77658 0.83994 0.84473 0.0
H1339 H 0.79432 0.85997 0.92698 0.0
C1340 C 0.79419 0.93413 0.91831 0.0
C1341 C 0.79043 0.96912 0.90079 0.0
C1342 C 0.77932 0.81288 0.85836 0.0
C1343 C 0.78387 0.87443 0.89137 0.0
C1344 C 0.78079 0.76631 0.85007 0.0
C1345 C 0.78507 0.73098 0.86694 0.0
C1346 C 0.78247 0.82429 0.88356 0.0
C1347 C 0.78696 0.74288 0.89244 0.0
C1348 C 0.79086 0.88674 0.91374 0.0
C1349 C 0.78269 0.95577 0.8795 0.0
N1350 N 0.78593 0.78889 0.89992 0.0
N1351 N 0.77984 0.90936 0.8752 0.0
H1352 H 0.03775 0.7645 0.64152 0.0
H1353 H 0.04069 0.48773 0.60969 0.0
H1354 H 0.04544 0.70948 0.56655 0.0
H1355 H 0.04921 0.54546 0.6837 0.0
H1356 H 0.03678 0.56823 0.59392 0.0
H1357 H 0.03616 0.68317 0.65738 0.0
C1358 C 0.0389 0.73529 0.62835 0.0
C1359 C 0.04188 0.74353 0.60276 0.0
C1360 C 0.0394 0.56314 0.61365 0.0
C1361 C 0.04005 0.6509 0.62071 0.0
C1362 C 0.0416 0.51733 0.62267 0.0
C1363 C 0.04541 0.51018 0.64795 0.0
C1364 C 0.04087 0.60181 0.63015 0.0
C1365 C 0.04642 0.54962 0.664 0.0
C1366 C 0.03805 0.689 0.63743 0.0
C1367 C 0.04326 0.70453 0.58647 0.0
N1368 N 0.0442 0.59389 0.6548 0.0
N1369 N 0.0424 0.65977 0.59576 0.0
H1370 H 0.22745 0.50578 0.5776 0.0
H1371 H 0.20925 0.69766 0.68008 0.0
H1372 H 0.21812 0.46678 0.65463 0.0
H1373 H 0.23215 0.72944 0.61181 0.0
H1374 H 0.21354 0.61302 0.67288 0.0
H1375 H 0.23054 0.58777 0.59099 0.0
C1376 C 0.22624 0.51457 0.59744 0.0
C1377 C 0.22241 0.47991 0.61505 0.0
C1378 C 0.21782 0.63863 0.65975 0.0
C1379 C 0.22564 0.57366 0.63047 0.0
C1380 C 0.21534 0.68684 0.66378 0.0
C1381 C 0.22015 0.72039 0.64626 0.0
C1382 C 0.22502 0.62414 0.6379 0.0
C1383 C 0.22808 0.70466 0.6256 0.0
C1384 C 0.22805 0.5613 0.60511 0.0
C1385 C 0.22107 0.49277 0.64054 0.0
N1386 N 0.23009 0.6576 0.62179 0.0
N1387 N 0.22241 0.53902 0.64748 0.0
H1388 H 0.98305 0.48085 0.3676 0.0
H1389 H 0.97187 0.25202 0.40512 0.0
H1390 H 0.95306 0.4462 0.30978 0.0
H1391 H 0.96352 0.21873 0.32698 0.0
H1392 H 0.97568 0.33438 0.39356 0.0
H1393 H 0.98716 0.39636 0.37427 0.0
C1394 C 0.97738 0.4554 0.35622 0.0
C1395 C 0.96746 0.47039 0.33854 0.0
C1396 C 0.97346 0.30904 0.37873 0.0
C1397 C 0.97179 0.37382 0.34659 0.0
C1398 C 0.97113 0.26204 0.38539 0.0
C1399 C 0.96734 0.22879 0.36695 0.0
C1400 C 0.97182 0.32309 0.35344 0.0
C1401 C 0.96648 0.24347 0.34169 0.0
C1402 C 0.97965 0.40721 0.36018 0.0
C1403 C 0.96063 0.436 0.32391 0.0
N1404 N 0.96842 0.28996 0.3357 0.0
N1405 N 0.9628 0.38914 0.32848 0.0
H1406 H 0.77463 0.26488 0.37702 0.0
H1407 H 0.7893 0.53507 0.33978 0.0
H1408 H 0.79489 0.30581 0.30741 0.0
H1409 H 0.78318 0.48479 0.41603 0.0
H1410 H 0.78549 0.45392 0.32414 0.0
H1411 H 0.77159 0.34855 0.38763 0.0
C1412 C 0.77826 0.2915 0.3638 0.0
C1413 C 0.78523 0.27852 0.34151 0.0
C1414 C 0.78481 0.46096 0.34425 0.0
C1415 C 0.78181 0.37411 0.35356 0.0
C1416 C 0.78692 0.5071 0.35313 0.0
C1417 C 0.7867 0.51623 0.3792 0.0
C1418 C 0.78226 0.42425 0.3616 0.0
C1419 C 0.78361 0.47898 0.39579 0.0
C1420 C 0.77655 0.33919 0.36989 0.0
C1421 C 0.78962 0.31442 0.32495 0.0
N1422 N 0.78156 0.43456 0.38672 0.0
N1423 N 0.78796 0.36075 0.33143 0.0
H1424 H 0.53461 0.00102 0.61269 0.0
H1425 H 0.54024 0.27475 0.65137 0.0
H1426 H 0.54353 0.04998 0.68831 0.0
H1427 H 0.54151 0.22369 0.57441 0.0
H1428 H 0.53625 0.1934 0.66589 0.0
H1429 H 0.53194 0.08353 0.59918 0.0
C1430 C 0.53584 0.02913 0.6265 0.0
C1431 C 0.53948 0.01886 0.65155 0.0
C1432 C 0.53725 0.20016 0.64581 0.0
C1433 C 0.53645 0.11294 0.6363 0.0
C1434 C 0.53949 0.24651 0.63753 0.0
C1435 C 0.54139 0.2557 0.61171 0.0
C1436 C 0.53685 0.16299 0.62809 0.0
C1437 C 0.54027 0.21796 0.59453 0.0
C1438 C 0.53434 0.07614 0.61878 0.0
C1439 C 0.54088 0.05649 0.66873 0.0
N1440 N 0.53817 0.17315 0.60304 0.0
N1441 N 0.53947 0.10195 0.66074 0.0
H1442 H 0.71983 0.2592 0.57439 0.0
H1443 H 0.73408 0.00323 0.63073 0.0
H1444 H 0.73691 0.23046 0.64813 0.0
H1445 H 0.71159 0.0284 0.56146 0.0
H1446 H 0.74144 0.08593 0.63094 0.0
H1447 H 0.72317 0.17542 0.5631 0.0
C1448 C 0.7247 0.23553 0.58785 0.0
C1449 C 0.72786 0.25108 0.61235 0.0
C1450 C 0.73504 0.07332 0.61548 0.0
C1451 C 0.73156 0.15603 0.59983 0.0
C1452 C 0.7308 0.02615 0.61542 0.0
C1453 C 0.72193 0.00945 0.5964 0.0
C1454 C 0.73019 0.10417 0.59661 0.0
C1455 C 0.71824 0.04025 0.57671 0.0
C1456 C 0.72652 0.18778 0.5815 0.0
C1457 C 0.73411 0.21936 0.62919 0.0
N1458 N 0.72217 0.08652 0.57757 0.0
N1459 N 0.73557 0.17314 0.62275 0.0
H1460 H 0.46506 0.71303 0.33802 0.0
H1461 H 0.47381 0.98378 0.3806 0.0
H1462 H 0.46618 0.76005 0.4157 0.0
H1463 H 0.46116 0.94131 0.30564 0.0
H1464 H 0.47624 0.90023 0.3921 0.0
H1465 H 0.46878 0.7952 0.32434 0.0
C1466 C 0.46628 0.74055 0.35216 0.0
C1467 C 0.46514 0.73005 0.37798 0.0
C1468 C 0.47305 0.90924 0.37307 0.0
C1469 C 0.46941 0.82347 0.36259 0.0
C1470 C 0.47169 0.95685 0.3665 0.0
C1471 C 0.46711 0.9693 0.34226 0.0
C1472 C 0.46985 0.87395 0.35523 0.0
C1473 C 0.46457 0.9331 0.32464 0.0
C1474 C 0.46835 0.78733 0.34437 0.0
C1475 C 0.46682 0.76684 0.39558 0.0
N1476 N 0.46588 0.88694 0.33153 0.0
N1477 N 0.4688 0.81199 0.38755 0.0
H1478 H 0.28949 0.71759 0.42048 0.0
H1479 H 0.27558 0.98216 0.37349 0.0
H1480 H 0.27463 0.75578 0.34635 0.0
H1481 H 0.30116 0.94774 0.43795 0.0
H1482 H 0.26909 0.8988 0.36987 0.0
H1483 H 0.28762 0.80117 0.43339 0.0
C1484 C 0.28547 0.74339 0.4072 0.0
C1485 C 0.2824 0.73033 0.38226 0.0
C1486 C 0.276 0.90956 0.38499 0.0
C1487 C 0.28027 0.82502 0.39669 0.0
C1488 C 0.27973 0.95708 0.38703 0.0
C1489 C 0.28915 0.97155 0.40571 0.0
C1490 C 0.28178 0.87627 0.40167 0.0
C1491 C 0.29403 0.93778 0.42302 0.0
C1492 C 0.28449 0.79095 0.41449 0.0
C1493 C 0.27729 0.7648 0.36566 0.0
N1494 N 0.29043 0.89144 0.42038 0.0
N1495 N 0.27651 0.8107 0.3731 0.0
H1496 H 0.52737 0.50832 0.11249 0.0
H1497 H 0.54175 0.77642 0.1541 0.0
H1498 H 0.54979 0.54595 0.18027 0.0
H1499 H 0.53293 0.73087 0.0779 0.0
H1500 H 0.53841 0.6943 0.16865 0.0
H1501 H 0.52291 0.59227 0.10473 0.0
C1502 C 0.53121 0.53424 0.1259 0.0
C1503 C 0.53919 0.52036 0.14678 0.0
C1504 C 0.53697 0.70263 0.14884 0.0
C1505 C 0.53414 0.61627 0.13801 0.0
C1506 C 0.5388 0.74932 0.14059 0.0
C1507 C 0.53778 0.7599 0.11478 0.0
C1508 C 0.53391 0.66697 0.13111 0.0
C1509 C 0.534 0.72381 0.09793 0.0
C1510 C 0.52867 0.5821 0.12146 0.0
C1511 C 0.54377 0.55534 0.16374 0.0
N1512 N 0.53228 0.67886 0.10637 0.0
N1513 N 0.54132 0.6019 0.15883 0.0
H1514 H 0.72566 0.50362 0.07912 0.0
H1515 H 0.70834 0.68835 0.18623 0.0
H1516 H 0.71667 0.45949 0.1555 0.0
H1517 H 0.73022 0.72525 0.11761 0.0
H1518 H 0.71241 0.60432 0.17695 0.0
H1519 H 0.72864 0.58479 0.09397 0.0
C1520 C 0.72449 0.51109 0.09912 0.0
C1521 C 0.72079 0.47518 0.11612 0.0
C1522 C 0.71652 0.63087 0.16417 0.0
C1523 C 0.72392 0.56804 0.13323 0.0
C1524 C 0.71416 0.67876 0.16941 0.0
C1525 C 0.71877 0.71364 0.15244 0.0
C1526 C 0.72337 0.61801 0.14169 0.0
C1527 C 0.72635 0.69944 0.13104 0.0
C1528 C 0.72623 0.55737 0.10762 0.0
C1529 C 0.7195 0.48643 0.14185 0.0
N1530 N 0.72823 0.65267 0.12609 0.0
N1531 N 0.7208 0.53224 0.14962 0.0
H1532 H 0.465 0.23743 0.91375 0.0
H1533 H 0.46611 0.46654 0.82626 0.0
H1534 H 0.4711 0.22998 0.83297 0.0
H1535 H 0.47223 0.4728 0.90701 0.0
H1536 H 0.46731 0.38003 0.8282 0.0
H1537 H 0.46699 0.32369 0.91166 0.0
C1538 C 0.46682 0.25399 0.89556 0.0
C1539 C 0.46783 0.22657 0.87346 0.0
C1540 C 0.46851 0.4003 0.84547 0.0
C1541 C 0.47001 0.32536 0.87093 0.0
C1542 C 0.46779 0.44967 0.8444 0.0
C1543 C 0.46902 0.47682 0.86655 0.0
C1544 C 0.47028 0.37783 0.8689 0.0
C1545 C 0.47123 0.45317 0.8895 0.0
C1546 C 0.468 0.30322 0.89441 0.0
C1547 C 0.47026 0.24984 0.85044 0.0
N1548 N 0.47166 0.40495 0.89013 0.0
N1549 N 0.47113 0.29799 0.84973 0.0
H1550 H 0.30224 0.29204 0.80578 0.0
H1551 H 0.30006 0.45563 0.92816 0.0
H1552 H 0.29393 0.23676 0.88038 0.0
H1553 H 0.29467 0.51056 0.85266 0.0
H1554 H 0.29861 0.37494 0.91123 0.0
H1555 H 0.30036 0.37262 0.82265 0.0
C1556 C 0.29995 0.29691 0.82568 0.0
C1557 C 0.29828 0.25781 0.84175 0.0
C1558 C 0.29761 0.40468 0.89842 0.0
C1559 C 0.29623 0.34962 0.86119 0.0
C1560 C 0.29846 0.45067 0.90805 0.0
C1561 C 0.29753 0.4897 0.89174 0.0
C1562 C 0.29602 0.3978 0.87227 0.0
C1563 C 0.29545 0.48138 0.86587 0.0
C1564 C 0.29883 0.34285 0.83528 0.0
C1565 C 0.29528 0.26602 0.86736 0.0
N1566 N 0.2949 0.43629 0.85688 0.0
N1567 N 0.29448 0.31108 0.87636 0.0
loop_
_geom_bond_atom_site_label_1
_geom_bond_atom_site_label_2
_geom_bond_distance
_geom_bond_site_symmetry_2
_ccdc_geom_bond_type
In0 O1 2.294 . S
In0 O2 2.326 . S
In0 O6 2.266 . S
In0 O7 2.326 . S
In0 O8 2.266 . S
In0 O9 2.326 . S
In0 O11 2.294 . S
In0 O12 2.326 . S
O1 In0 2.294 . S
O1 C10 1.240 . S
O2 In0 2.326 . S
O2 C10 1.252 . S
C3 O6 1.252 . S
C3 O7 1.260 . S
C4 O11 1.240 . S
C4 O12 1.252 . S
C5 O8 1.252 . S
C5 O9 1.260 . S
O6 In0 2.266 . S
O6 C3 1.252 . S
O7 In0 2.326 . S
O7 C3 1.260 . S
O8 In0 2.266 . S
O8 C5 1.252 . S
O9 In0 2.326 . S
O9 C5 1.260 . S
C10 O1 1.240 . S
C10 O2 1.252 . S
O11 In0 2.294 . S
O11 C4 1.240 . S
O12 In0 2.326 . S
O12 C4 1.252 . S
In13 O14 2.294 . S
In13 O15 2.326 . S
In13 O19 2.266 . S
In13 O20 2.326 . S
In13 O21 2.266 . S
In13 O22 2.326 . S
In13 O24 2.294 . S
In13 O25 2.326 . S
O14 In13 2.294 . S
O14 C23 1.240 . S
O15 In13 2.326 . S
O15 C23 1.252 . S
C16 O19 1.252 . S
C16 O20 1.260 . S
C17 O24 1.240 . S
C17 O25 1.252 . S
C18 O21 1.252 . S
C18 O22 1.260 . S
O19 In13 2.266 . S
O19 C16 1.252 . S
O20 In13 2.326 . S
O20 C16 1.260 . S
O21 In13 2.266 . S
O21 C18 1.252 . S
O22 In13 2.326 . S
O22 C18 1.260 . S
C23 O14 1.240 . S
C23 O15 1.252 . S
O24 In13 2.294 . S
O24 C17 1.240 . S
O25 In13 2.326 . S
O25 C17 1.252 . S
In26 O27 2.294 . S
In26 O28 2.326 . S
In26 O32 2.266 . S
In26 O33 2.326 . S
In26 O34 2.266 . S
In26 O35 2.326 . S
In26 O37 2.294 . S
In26 O38 2.326 . S
O27 In26 2.294 . S
O27 C36 1.240 . S
O28 In26 2.326 . S
O28 C36 1.252 . S
C29 O32 1.252 . S
C29 O33 1.260 . S
C30 O37 1.240 . S
C30 O38 1.252 . S
C31 O34 1.252 . S
C31 O35 1.260 . S
O32 In26 2.266 . S
O32 C29 1.252 . S
O33 In26 2.326 . S
O33 C29 1.260 . S
O34 In26 2.266 . S
O34 C31 1.252 . S
O35 In26 2.326 . S
O35 C31 1.260 . S
C36 O27 1.240 . S
C36 O28 1.252 . S
O37 In26 2.294 . S
O37 C30 1.240 . S
O38 In26 2.326 . S
O38 C30 1.252 . S
In39 O40 2.294 . S
In39 O41 2.326 . S
In39 O45 2.266 . S
In39 O46 2.326 . S
In39 O47 2.266 . S
In39 O48 2.326 . S
In39 O50 2.294 . S
In39 O51 2.326 . S
O40 In39 2.294 . S
O40 C49 1.240 . S
O41 In39 2.326 . S
O41 C49 1.252 . S
C42 O45 1.252 . S
C42 O46 1.260 . S
C43 O50 1.240 . S
C43 O51 1.252 . S
C44 O47 1.252 . S
C44 O48 1.260 . S
O45 In39 2.266 . S
O45 C42 1.252 . S
O46 In39 2.326 . S
O46 C42 1.260 . S
O47 In39 2.266 . S
O47 C44 1.252 . S
O48 In39 2.326 . S
O48 C44 1.260 . S
C49 O40 1.240 . S
C49 O41 1.252 . S
O50 In39 2.294 . S
O50 C43 1.240 . S
O51 In39 2.326 . S
O51 C43 1.252 . S
In52 O53 2.294 . S
In52 O54 2.326 . S
In52 O58 2.266 . S
In52 O59 2.326 . S
In52 O60 2.266 . S
In52 O61 2.326 . S
In52 O63 2.294 . S
In52 O64 2.326 . S
O53 In52 2.294 . S
O53 C62 1.240 . S
O54 In52 2.326 . S
O54 C62 1.252 . S
C55 O58 1.252 . S
C55 O59 1.260 . S
C56 O63 1.240 . S
C56 O64 1.252 . S
C57 O60 1.252 . S
C57 O61 1.260 . S
O58 In52 2.266 . S
O58 C55 1.252 . S
O59 In52 2.326 . S
O59 C55 1.260 . S
O60 In52 2.266 . S
O60 C57 1.252 . S
O61 In52 2.326 . S
O61 C57 1.260 . S
C62 O53 1.240 . S
C62 O54 1.252 . S
O63 In52 2.294 . S
O63 C56 1.240 . S
O64 In52 2.326 . S
O64 C56 1.252 . S
In65 O66 2.294 . S
In65 O67 2.326 . S
In65 O71 2.266 . S
In65 O72 2.326 . S
In65 O73 2.266 . S
In65 O74 2.326 . S
In65 O76 2.294 . S
In65 O77 2.326 . S
O66 In65 2.294 . S
O66 C75 1.240 . S
O67 In65 2.326 . S
O67 C75 1.252 . S
C68 O71 1.252 . S
C68 O72 1.260 . S
C69 O76 1.240 . S
C69 O77 1.252 . S
C70 O73 1.252 . S
C70 O74 1.260 . S
O71 In65 2.266 . S
O71 C68 1.252 . S
O72 In65 2.326 . S
O72 C68 1.260 . S
O73 In65 2.266 . S
O73 C70 1.252 . S
O74 In65 2.326 . S
O74 C70 1.260 . S
C75 O66 1.240 . S
C75 O67 1.252 . S
O76 In65 2.294 . S
O76 C69 1.240 . S
O77 In65 2.326 . S
O77 C69 1.252 . S
In78 O79 2.294 . S
In78 O80 2.326 . S
In78 O84 2.266 . S
In78 O85 2.326 . S
In78 O86 2.266 . S
In78 O87 2.326 . S
In78 O89 2.294 . S
In78 O90 2.326 . S
O79 In78 2.294 . S
O79 C88 1.240 . S
O80 In78 2.326 . S
O80 C88 1.252 . S
C81 O84 1.252 . S
C81 O85 1.260 . S
C82 O89 1.240 . S
C82 O90 1.252 . S
C83 O86 1.252 . S
C83 O87 1.260 . S
O84 In78 2.266 . S
O84 C81 1.252 . S
O85 In78 2.326 . S
O85 C81 1.260 . S
O86 In78 2.266 . S
O86 C83 1.252 . S
O87 In78 2.326 . S
O87 C83 1.260 . S
C88 O79 1.240 . S
C88 O80 1.252 . S
O89 In78 2.294 . S
O89 C82 1.240 . S
O90 In78 2.326 . S
O90 C82 1.252 . S
In91 O92 2.294 . S
In91 O93 2.326 . S
In91 O97 2.266 . S
In91 O98 2.326 . S
In91 O99 2.266 . S
In91 O100 2.326 . S
In91 O102 2.294 . S
In91 O103 2.326 . S
O92 In91 2.294 . S
O92 C101 1.240 . S
O93 In91 2.326 . S
O93 C101 1.252 . S
C94 O97 1.252 . S
C94 O98 1.260 . S
C95 O102 1.240 . S
C95 O103 1.252 . S
C96 O99 1.252 . S
C96 O100 1.260 . S
O97 In91 2.266 . S
O97 C94 1.252 . S
O98 In91 2.326 . S
O98 C94 1.260 . S
O99 In91 2.266 . S
O99 C96 1.252 . S
O100 In91 2.326 . S
O100 C96 1.260 . S
C101 O92 1.240 . S
C101 O93 1.252 . S
O102 In91 2.294 . S
O102 C95 1.240 . S
O103 In91 2.326 . S
O103 C95 1.252 . S
In104 O105 2.294 . S
In104 O106 2.326 . S
In104 O110 2.266 . S
In104 O111 2.326 . S
In104 O112 2.266 . S
In104 O113 2.326 . S
In104 O115 2.294 . S
In104 O116 2.326 . S
O105 In104 2.294 . S
O105 C114 1.240 . S
O106 In104 2.326 . S
O106 C114 1.252 . S
C107 O110 1.252 . S
C107 O111 1.260 . S
C108 O115 1.240 . S
C108 O116 1.252 . S
C109 O112 1.252 . S
C109 O113 1.260 . S
O110 In104 2.266 . S
O110 C107 1.252 . S
O111 In104 2.326 . S
O111 C107 1.260 . S
O112 In104 2.266 . S
O112 C109 1.252 . S
O113 In104 2.326 . S
O113 C109 1.260 . S
C114 O105 1.240 . S
C114 O106 1.252 . S
O115 In104 2.294 . S
O115 C108 1.240 . S
O116 In104 2.326 . S
O116 C108 1.252 . S
In117 O118 2.294 . S
In117 O119 2.326 . S
In117 O123 2.266 . S
In117 O124 2.326 . S
In117 O125 2.266 . S
In117 O126 2.326 . S
In117 O128 2.294 . S
In117 O129 2.326 . S
O118 In117 2.294 . S
O118 C127 1.240 . S
O119 In117 2.326 . S
O119 C127 1.252 . S
C120 O123 1.252 . S
C120 O124 1.260 . S
C121 O128 1.240 . S
C121 O129 1.252 . S
C122 O125 1.252 . S
C122 O126 1.260 . S
O123 In117 2.266 . S
O123 C120 1.252 . S
O124 In117 2.326 . S
O124 C120 1.260 . S
O125 In117 2.266 . S
O125 C122 1.252 . S
O126 In117 2.326 . S
O126 C122 1.260 . S
C127 O118 1.240 . S
C127 O119 1.252 . S
O128 In117 2.294 . S
O128 C121 1.240 . S
O129 In117 2.326 . S
O129 C121 1.252 . S
In130 O131 2.294 . S
In130 O132 2.326 . S
In130 O136 2.266 . S
In130 O137 2.326 . S
In130 O138 2.266 . S
In130 O139 2.326 . S
In130 O141 2.294 . S
In130 O142 2.326 . S
O131 In130 2.294 . S
O131 C140 1.240 . S
O132 In130 2.326 . S
O132 C140 1.252 . S
C133 O136 1.252 . S
C133 O137 1.260 . S
C134 O141 1.240 . S
C134 O142 1.252 . S
C135 O138 1.252 . S
C135 O139 1.260 . S
O136 In130 2.266 . S
O136 C133 1.252 . S
O137 In130 2.326 . S
O137 C133 1.260 . S
O138 In130 2.266 . S
O138 C135 1.252 . S
O139 In130 2.326 . S
O139 C135 1.260 . S
C140 O131 1.240 . S
C140 O132 1.252 . S
O141 In130 2.294 . S
O141 C134 1.240 . S
O142 In130 2.326 . S
O142 C134 1.252 . S
In143 O144 2.294 . S
In143 O145 2.326 . S
In143 O149 2.266 . S
In143 O150 2.326 . S
In143 O151 2.266 . S
In143 O152 2.326 . S
In143 O154 2.294 . S
In143 O155 2.326 . S
O144 In143 2.294 . S
O144 C153 1.240 . S
O145 In143 2.326 . S
O145 C153 1.252 . S
C146 O149 1.252 . S
C146 O150 1.260 . S
C147 O154 1.240 . S
C147 O155 1.252 . S
C148 O151 1.252 . S
C148 O152 1.260 . S
O149 In143 2.266 . S
O149 C146 1.252 . S
O150 In143 2.326 . S
O150 C146 1.260 . S
O151 In143 2.266 . S
O151 C148 1.252 . S
O152 In143 2.326 . S
O152 C148 1.260 . S
C153 O144 1.240 . S
C153 O145 1.252 . S
O154 In143 2.294 . S
O154 C147 1.240 . S
O155 In143 2.326 . S
O155 C147 1.252 . S
In156 O157 2.294 . S
In156 O158 2.326 . S
In156 O162 2.266 . S
In156 O163 2.326 . S
In156 O164 2.266 . S
In156 O165 2.326 . S
In156 O167 2.294 . S
In156 O168 2.326 . S
O157 In156 2.294 . S
O157 C166 1.240 . S
O158 In156 2.326 . S
O158 C166 1.252 . S
C159 O162 1.252 . S
C159 O163 1.260 . S
C160 O167 1.240 . S
C160 O168 1.252 . S
C161 O164 1.252 . S
C161 O165 1.260 . S
O162 In156 2.266 . S
O162 C159 1.252 . S
O163 In156 2.326 . S
O163 C159 1.260 . S
O164 In156 2.266 . S
O164 C161 1.252 . S
O165 In156 2.326 . S
O165 C161 1.260 . S
C166 O157 1.240 . S
C166 O158 1.252 . S
O167 In156 2.294 . S
O167 C160 1.240 . S
O168 In156 2.326 . S
O168 C160 1.252 . S
In169 O170 2.294 . S
In169 O171 2.326 . S
In169 O175 2.266 . S
In169 O176 2.326 . S
In169 O177 2.266 . S
In169 O178 2.326 . S
In169 O180 2.294 . S
In169 O181 2.326 . S
O170 In169 2.294 . S
O170 C179 1.240 . S
O171 In169 2.326 . S
O171 C179 1.252 . S
C172 O175 1.252 . S
C172 O176 1.260 . S
C173 O180 1.240 . S
C173 O181 1.252 . S
C174 O177 1.252 . S
C174 O178 1.260 . S
O175 In169 2.266 . S
O175 C172 1.252 . S
O176 In169 2.326 . S
O176 C172 1.260 . S
O177 In169 2.266 . S
O177 C174 1.252 . S
O178 In169 2.326 . S
O178 C174 1.260 . S
C179 O170 1.240 . S
C179 O171 1.252 . S
O180 In169 2.294 . S
O180 C173 1.240 . S
O181 In169 2.326 . S
O181 C173 1.252 . S
In182 O183 2.294 . S
In182 O184 2.326 . S
In182 O188 2.266 . S
In182 O189 2.326 . S
In182 O190 2.266 . S
In182 O191 2.326 . S
In182 O193 2.294 . S
In182 O194 2.326 . S
O183 In182 2.294 . S
O183 C192 1.240 . S
O184 In182 2.326 . S
O184 C192 1.252 . S
C185 O188 1.252 . S
C185 O189 1.260 . S
C186 O193 1.240 . S
C186 O194 1.252 . S
C187 O190 1.252 . S
C187 O191 1.260 . S
O188 In182 2.266 . S
O188 C185 1.252 . S
O189 In182 2.326 . S
O189 C185 1.260 . S
O190 In182 2.266 . S
O190 C187 1.252 . S
O191 In182 2.326 . S
O191 C187 1.260 . S
C192 O183 1.240 . S
C192 O184 1.252 . S
O193 In182 2.294 . S
O193 C186 1.240 . S
O194 In182 2.326 . S
O194 C186 1.252 . S
In195 O196 2.294 . S
In195 O197 2.326 . S
In195 O201 2.266 . S
In195 O202 2.326 . S
In195 O203 2.266 . S
In195 O204 2.326 . S
In195 O206 2.294 . S
In195 O207 2.326 . S
O196 In195 2.294 . S
O196 C205 1.240 . S
O197 In195 2.326 . S
O197 C205 1.252 . S
C198 O201 1.252 . S
C198 O202 1.260 . S
C199 O206 1.240 . S
C199 O207 1.252 . S
C200 O203 1.252 . S
C200 O204 1.260 . S
O201 In195 2.266 . S
O201 C198 1.252 . S
O202 In195 2.326 . S
O202 C198 1.260 . S
O203 In195 2.266 . S
O203 C200 1.252 . S
O204 In195 2.326 . S
O204 C200 1.260 . S
C205 O196 1.240 . S
C205 O197 1.252 . S
O206 In195 2.294 . S
O206 C199 1.240 . S
O207 In195 2.326 . S
O207 C199 1.252 . S
In208 O209 2.294 . S
In208 O210 2.326 . S
In208 O214 2.266 . S
In208 O215 2.326 . S
In208 O216 2.266 . S
In208 O217 2.326 . S
In208 O219 2.294 . S
In208 O220 2.326 . S
O209 In208 2.294 . S
O209 C218 1.240 . S
O210 In208 2.326 . S
O210 C218 1.252 . S
C211 O214 1.252 . S
C211 O215 1.260 . S
C212 O219 1.240 . S
C212 O220 1.252 . S
C213 O216 1.252 . S
C213 O217 1.260 . S
O214 In208 2.266 . S
O214 C211 1.252 . S
O215 In208 2.326 . S
O215 C211 1.260 . S
O216 In208 2.266 . S
O216 C213 1.252 . S
O217 In208 2.326 . S
O217 C213 1.260 . S
C218 O209 1.240 . S
C218 O210 1.252 . S
O219 In208 2.294 . S
O219 C212 1.240 . S
O220 In208 2.326 . S
O220 C212 1.252 . S
In221 O222 2.294 . S
In221 O223 2.326 . S
In221 O227 2.266 . S
In221 O228 2.326 . S
In221 O229 2.266 . S
In221 O230 2.326 . S
In221 O232 2.294 . S
In221 O233 2.326 . S
O222 In221 2.294 . S
O222 C231 1.240 . S
O223 In221 2.326 . S
O223 C231 1.252 . S
C224 O227 1.252 . S
C224 O228 1.260 . S
C225 O232 1.240 . S
C225 O233 1.252 . S
C226 O229 1.252 . S
C226 O230 1.260 . S
O227 In221 2.266 . S
O227 C224 1.252 . S
O228 In221 2.326 . S
O228 C224 1.260 . S
O229 In221 2.266 . S
O229 C226 1.252 . S
O230 In221 2.326 . S
O230 C226 1.260 . S
C231 O222 1.240 . S
C231 O223 1.252 . S
O232 In221 2.294 . S
O232 C225 1.240 . S
O233 In221 2.326 . S
O233 C225 1.252 . S
In234 O235 2.294 . S
In234 O236 2.326 . S
In234 O240 2.266 . S
In234 O241 2.326 . S
In234 O242 2.266 . S
In234 O243 2.326 . S
In234 O245 2.294 . S
In234 O246 2.326 . S
O235 In234 2.294 . S
O235 C244 1.240 . S
O236 In234 2.326 . S
O236 C244 1.252 . S
C237 O240 1.252 . S
C237 O241 1.260 . S
C238 O245 1.240 . S
C238 O246 1.252 . S
C239 O242 1.252 . S
C239 O243 1.260 . S
O240 In234 2.266 . S
O240 C237 1.252 . S
O241 In234 2.326 . S
O241 C237 1.260 . S
O242 In234 2.266 . S
O242 C239 1.252 . S
O243 In234 2.326 . S
O243 C239 1.260 . S
C244 O235 1.240 . S
C244 O236 1.252 . S
O245 In234 2.294 . S
O245 C238 1.240 . S
O246 In234 2.326 . S
O246 C238 1.252 . S
In247 O248 2.294 . S
In247 O249 2.326 . S
In247 O253 2.266 . S
In247 O254 2.326 . S
In247 O255 2.266 . S
In247 O256 2.326 . S
In247 O258 2.294 . S
In247 O259 2.326 . S
O248 In247 2.294 . S
O248 C257 1.240 . S
O249 In247 2.326 . S
O249 C257 1.252 . S
C250 O253 1.252 . S
C250 O254 1.260 . S
C251 O258 1.240 . S
C251 O259 1.252 . S
C252 O255 1.252 . S
C252 O256 1.260 . S
O253 In247 2.266 . S
O253 C250 1.252 . S
O254 In247 2.326 . S
O254 C250 1.260 . S
O255 In247 2.266 . S
O255 C252 1.252 . S
O256 In247 2.326 . S
O256 C252 1.260 . S
C257 O248 1.240 . S
C257 O249 1.252 . S
O258 In247 2.294 . S
O258 C251 1.240 . S
O259 In247 2.326 . S
O259 C251 1.252 . S
In260 O261 2.294 . S
In260 O262 2.326 . S
In260 O266 2.266 . S
In260 O267 2.326 . S
In260 O268 2.266 . S
In260 O269 2.326 . S
In260 O271 2.294 . S
In260 O272 2.326 . S
O261 In260 2.294 . S
O261 C270 1.240 . S
O262 In260 2.326 . S
O262 C270 1.252 . S
C263 O266 1.252 . S
C263 O267 1.260 . S
C264 O271 1.240 . S
C264 O272 1.252 . S
C265 O268 1.252 . S
C265 O269 1.260 . S
O266 In260 2.266 . S
O266 C263 1.252 . S
O267 In260 2.326 . S
O267 C263 1.260 . S
O268 In260 2.266 . S
O268 C265 1.252 . S
O269 In260 2.326 . S
O269 C265 1.260 . S
C270 O261 1.240 . S
C270 O262 1.252 . S
O271 In260 2.294 . S
O271 C264 1.240 . S
O272 In260 2.326 . S
O272 C264 1.252 . S
In273 O274 2.294 . S
In273 O275 2.326 . S
In273 O279 2.266 . S
In273 O280 2.326 . S
In273 O281 2.266 . S
In273 O282 2.326 . S
In273 O284 2.294 . S
In273 O285 2.326 . S
O274 In273 2.294 . S
O274 C283 1.240 . S
O275 In273 2.326 . S
O275 C283 1.252 . S
C276 O279 1.252 . S
C276 O280 1.260 . S
C277 O284 1.240 . S
C277 O285 1.252 . S
C278 O281 1.252 . S
C278 O282 1.260 . S
O279 In273 2.266 . S
O279 C276 1.252 . S
O280 In273 2.326 . S
O280 C276 1.260 . S
O281 In273 2.266 . S
O281 C278 1.252 . S
O282 In273 2.326 . S
O282 C278 1.260 . S
C283 O274 1.240 . S
C283 O275 1.252 . S
O284 In273 2.294 . S
O284 C277 1.240 . S
O285 In273 2.326 . S
O285 C277 1.252 . S
In286 O287 2.294 . S
In286 O288 2.326 . S
In286 O292 2.266 . S
In286 O293 2.326 . S
In286 O294 2.266 . S
In286 O295 2.326 . S
In286 O297 2.294 . S
In286 O298 2.326 . S
O287 In286 2.294 . S
O287 C296 1.240 . S
O288 In286 2.326 . S
O288 C296 1.252 . S
C289 O292 1.252 . S
C289 O293 1.260 . S
C290 O297 1.240 . S
C290 O298 1.252 . S
C291 O294 1.252 . S
C291 O295 1.260 . S
O292 In286 2.266 . S
O292 C289 1.252 . S
O293 In286 2.326 . S
O293 C289 1.260 . S
O294 In286 2.266 . S
O294 C291 1.252 . S
O295 In286 2.326 . S
O295 C291 1.260 . S
C296 O287 1.240 . S
C296 O288 1.252 . S
O297 In286 2.294 . S
O297 C290 1.240 . S
O298 In286 2.326 . S
O298 C290 1.252 . S
In299 O300 2.294 . S
In299 O301 2.326 . S
In299 O305 2.266 . S
In299 O306 2.326 . S
In299 O307 2.266 . S
In299 O308 2.326 . S
In299 O310 2.294 . S
In299 O311 2.326 . S
O300 In299 2.294 . S
O300 C309 1.240 . S
O301 In299 2.326 . S
O301 C309 1.252 . S
C302 O305 1.252 . S
C302 O306 1.260 . S
C303 O310 1.240 . S
C303 O311 1.252 . S
C304 O307 1.252 . S
C304 O308 1.260 . S
O305 In299 2.266 . S
O305 C302 1.252 . S
O306 In299 2.326 . S
O306 C302 1.260 . S
O307 In299 2.266 . S
O307 C304 1.252 . S
O308 In299 2.326 . S
O308 C304 1.260 . S
C309 O300 1.240 . S
C309 O301 1.252 . S
O310 In299 2.294 . S
O310 C303 1.240 . S
O311 In299 2.326 . S
O311 C303 1.252 . S
In312 O313 2.294 . S
In312 O314 2.326 . S
In312 O318 2.266 . S
In312 O319 2.326 . S
In312 O320 2.266 . S
In312 O321 2.326 . S
In312 O323 2.294 . S
In312 O324 2.326 . S
O313 In312 2.294 . S
O313 C322 1.240 . S
O314 In312 2.326 . S
O314 C322 1.252 . S
C315 O318 1.252 . S
C315 O319 1.260 . S
C316 O323 1.240 . S
C316 O324 1.252 . S
C317 O320 1.252 . S
C317 O321 1.260 . S
O318 In312 2.266 . S
O318 C315 1.252 . S
O319 In312 2.326 . S
O319 C315 1.260 . S
O320 In312 2.266 . S
O320 C317 1.252 . S
O321 In312 2.326 . S
O321 C317 1.260 . S
C322 O313 1.240 . S
C322 O314 1.252 . S
O323 In312 2.294 . S
O323 C316 1.240 . S
O324 In312 2.326 . S
O324 C316 1.252 . S
In325 O326 2.294 . S
In325 O327 2.326 . S
In325 O331 2.266 . S
In325 O332 2.326 . S
In325 O333 2.266 . S
In325 O334 2.326 . S
In325 O336 2.294 . S
In325 O337 2.326 . S
O326 In325 2.294 . S
O326 C335 1.240 . S
O327 In325 2.326 . S
O327 C335 1.252 . S
C328 O331 1.252 . S
C328 O332 1.260 . S
C329 O336 1.240 . S
C329 O337 1.252 . S
C330 O333 1.252 . S
C330 O334 1.260 . S
O331 In325 2.266 . S
O331 C328 1.252 . S
O332 In325 2.326 . S
O332 C328 1.260 . S
O333 In325 2.266 . S
O333 C330 1.252 . S
O334 In325 2.326 . S
O334 C330 1.260 . S
C335 O326 1.240 . S
C335 O327 1.252 . S
O336 In325 2.294 . S
O336 C329 1.240 . S
O337 In325 2.326 . S
O337 C329 1.252 . S
In338 O339 2.294 . S
In338 O340 2.326 . S
In338 O344 2.266 . S
In338 O345 2.326 . S
In338 O346 2.266 . S
In338 O347 2.326 . S
In338 O349 2.294 . S
In338 O350 2.326 . S
O339 In338 2.294 . S
O339 C348 1.240 . S
O340 In338 2.326 . S
O340 C348 1.252 . S
C341 O344 1.252 . S
C341 O345 1.260 . S
C342 O349 1.240 . S
C342 O350 1.252 . S
C343 O346 1.252 . S
C343 O347 1.260 . S
O344 In338 2.266 . S
O344 C341 1.252 . S
O345 In338 2.326 . S
O345 C341 1.260 . S
O346 In338 2.266 . S
O346 C343 1.252 . S
O347 In338 2.326 . S
O347 C343 1.260 . S
C348 O339 1.240 . S
C348 O340 1.252 . S
O349 In338 2.294 . S
O349 C342 1.240 . S
O350 In338 2.326 . S
O350 C342 1.252 . S
In351 O352 2.294 . S
In351 O353 2.326 . S
In351 O357 2.266 . S
In351 O358 2.326 . S
In351 O359 2.266 . S
In351 O360 2.326 . S
In351 O362 2.294 . S
In351 O363 2.326 . S
O352 In351 2.294 . S
O352 C361 1.240 . S
O353 In351 2.326 . S
O353 C361 1.252 . S
C354 O357 1.252 . S
C354 O358 1.260 . S
C355 O362 1.240 . S
C355 O363 1.252 . S
C356 O359 1.252 . S
C356 O360 1.260 . S
O357 In351 2.266 . S
O357 C354 1.252 . S
O358 In351 2.326 . S
O358 C354 1.260 . S
O359 In351 2.266 . S
O359 C356 1.252 . S
O360 In351 2.326 . S
O360 C356 1.260 . S
C361 O352 1.240 . S
C361 O353 1.252 . S
O362 In351 2.294 . S
O362 C355 1.240 . S
O363 In351 2.326 . S
O363 C355 1.252 . S
In364 O365 2.294 . S
In364 O366 2.326 . S
In364 O370 2.266 . S
In364 O371 2.326 . S
In364 O372 2.266 . S
In364 O373 2.326 . S
In364 O375 2.294 . S
In364 O376 2.326 . S
O365 In364 2.294 . S
O365 C374 1.240 . S
O366 In364 2.326 . S
O366 C374 1.252 . S
C367 O370 1.252 . S
C367 O371 1.260 . S
C368 O375 1.240 . S
C368 O376 1.252 . S
C369 O372 1.252 . S
C369 O373 1.260 . S
O370 In364 2.266 . S
O370 C367 1.252 . S
O371 In364 2.326 . S
O371 C367 1.260 . S
O372 In364 2.266 . S
O372 C369 1.252 . S
O373 In364 2.326 . S
O373 C369 1.260 . S
C374 O365 1.240 . S
C374 O366 1.252 . S
O375 In364 2.294 . S
O375 C368 1.240 . S
O376 In364 2.326 . S
O376 C368 1.252 . S
In377 O378 2.294 . S
In377 O379 2.326 . S
In377 O383 2.266 . S
In377 O384 2.326 . S
In377 O385 2.266 . S
In377 O386 2.326 . S
In377 O388 2.294 . S
In377 O389 2.326 . S
O378 In377 2.294 . S
O378 C387 1.240 . S
O379 In377 2.326 . S
O379 C387 1.252 . S
C380 O383 1.252 . S
C380 O384 1.260 . S
C381 O388 1.240 . S
C381 O389 1.252 . S
C382 O385 1.252 . S
C382 O386 1.260 . S
O383 In377 2.266 . S
O383 C380 1.252 . S
O384 In377 2.326 . S
O384 C380 1.260 . S
O385 In377 2.266 . S
O385 C382 1.252 . S
O386 In377 2.326 . S
O386 C382 1.260 . S
C387 O378 1.240 . S
C387 O379 1.252 . S
O388 In377 2.294 . S
O388 C381 1.240 . S
O389 In377 2.326 . S
O389 C381 1.252 . S
In390 O391 2.294 . S
In390 O392 2.326 . S
In390 O396 2.266 . S
In390 O397 2.326 . S
In390 O398 2.266 . S
In390 O399 2.326 . S
In390 O401 2.294 . S
In390 O402 2.326 . S
O391 In390 2.294 . S
O391 C400 1.240 . S
O392 In390 2.326 . S
O392 C400 1.252 . S
C393 O396 1.252 . S
C393 O397 1.260 . S
C394 O401 1.240 . S
C394 O402 1.252 . S
C395 O398 1.252 . S
C395 O399 1.260 . S
O396 In390 2.266 . S
O396 C393 1.252 . S
O397 In390 2.326 . S
O397 C393 1.260 . S
O398 In390 2.266 . S
O398 C395 1.252 . S
O399 In390 2.326 . S
O399 C395 1.260 . S
C400 O391 1.240 . S
C400 O392 1.252 . S
O401 In390 2.294 . S
O401 C394 1.240 . S
O402 In390 2.326 . S
O402 C394 1.252 . S
In403 O404 2.294 . S
In403 O405 2.326 . S
In403 O409 2.266 . S
In403 O410 2.326 . S
In403 O411 2.266 . S
In403 O412 2.326 . S
In403 O414 2.294 . S
In403 O415 2.326 . S
O404 In403 2.294 . S
O404 C413 1.240 . S
O405 In403 2.326 . S
O405 C413 1.252 . S
C406 O409 1.252 . S
C406 O410 1.260 . S
C407 O414 1.240 . S
C407 O415 1.252 . S
C408 O411 1.252 . S
C408 O412 1.260 . S
O409 In403 2.266 . S
O409 C406 1.252 . S
O410 In403 2.326 . S
O410 C406 1.260 . S
O411 In403 2.266 . S
O411 C408 1.252 . S
O412 In403 2.326 . S
O412 C408 1.260 . S
C413 O404 1.240 . S
C413 O405 1.252 . S
O414 In403 2.294 . S
O414 C407 1.240 . S
O415 In403 2.326 . S
O415 C407 1.252 . S
H416 C422 0.930 . S
H417 C426 0.930 . S
H418 C431 0.929 . S
H419 C429 0.929 . S
H420 C424 0.929 . S
H421 C430 0.929 . S
C422 H416 0.930 . S
C422 C423 1.367 . S
C422 C430 1.378 . S
C423 C422 1.367 . S
C423 C431 1.433 . S
C424 H420 0.929 . S
C424 C426 1.378 . S
C424 C428 1.350 . S
C425 C428 1.463 . S
C425 C430 1.350 . S
C425 N433 1.427 . S
C426 H417 0.930 . S
C426 C424 1.378 . S
C426 C427 1.367 . S
C427 C426 1.367 . S
C427 C429 1.433 . S
C428 C424 1.350 . S
C428 C425 1.463 . S
C428 N432 1.427 . S
C429 H419 0.929 . S
C429 C427 1.433 . S
C429 N432 1.384 . S
C430 H421 0.929 . S
C430 C422 1.378 . S
C430 C425 1.350 . S
C431 H418 0.929 . S
C431 C423 1.433 . S
C431 N433 1.384 . S
N432 C428 1.427 . S
N432 C429 1.384 . S
N433 C425 1.427 . S
N433 C431 1.384 . S
H434 C440 0.930 . S
H435 C444 0.930 . S
H436 C449 0.929 . S
H437 C447 0.929 . S
H438 C442 0.929 . S
H439 C448 0.929 . S
C440 H434 0.930 . S
C440 C441 1.367 . S
C440 C448 1.378 . S
C441 C440 1.367 . S
C441 C449 1.433 . S
C442 H438 0.929 . S
C442 C444 1.378 . S
C442 C446 1.350 . S
C443 C446 1.463 . S
C443 C448 1.350 . S
C443 N451 1.427 . S
C444 H435 0.930 . S
C444 C442 1.378 . S
C444 C445 1.367 . S
C445 C444 1.367 . S
C445 C447 1.433 . S
C446 C442 1.350 . S
C446 C443 1.463 . S
C446 N450 1.427 . S
C447 H437 0.929 . S
C447 C445 1.433 . S
C447 N450 1.384 . S
C448 H439 0.929 . S
C448 C440 1.378 . S
C448 C443 1.350 . S
C449 H436 0.929 . S
C449 C441 1.433 . S
C449 N451 1.384 . S
N450 C446 1.427 . S
N450 C447 1.384 . S
N451 C443 1.427 . S
N451 C449 1.384 . S
H452 C458 0.930 . S
H453 C462 0.930 . S
H454 C467 0.929 . S
H455 C465 0.929 . S
H456 C460 0.929 . S
H457 C466 0.929 . S
C458 H452 0.930 . S
C458 C459 1.367 . S
C458 C466 1.378 . S
C459 C458 1.367 . S
C459 C467 1.433 . S
C460 H456 0.929 . S
C460 C462 1.378 . S
C460 C464 1.350 . S
C461 C464 1.463 . S
C461 C466 1.350 . S
C461 N469 1.427 . S
C462 H453 0.930 . S
C462 C460 1.378 . S
C462 C463 1.367 . S
C463 C462 1.367 . S
C463 C465 1.433 . S
C464 C460 1.350 . S
C464 C461 1.463 . S
C464 N468 1.427 . S
C465 H455 0.929 . S
C465 C463 1.433 . S
C465 N468 1.384 . S
C466 H457 0.929 . S
C466 C458 1.378 . S
C466 C461 1.350 . S
C467 H454 0.929 . S
C467 C459 1.433 . S
C467 N469 1.384 . S
N468 C464 1.427 . S
N468 C465 1.384 . S
N469 C461 1.427 . S
N469 C467 1.384 . S
H470 C476 0.930 . S
H471 C480 0.930 . S
H472 C485 0.929 . S
H473 C483 0.929 . S
H474 C478 0.929 . S
H475 C484 0.929 . S
C476 H470 0.930 . S
C476 C477 1.367 . S
C476 C484 1.378 . S
C477 C476 1.367 . S
C477 C485 1.433 . S
C478 H474 0.929 . S
C478 C480 1.378 . S
C478 C482 1.350 . S
C479 C482 1.463 . S
C479 C484 1.350 . S
C479 N487 1.427 . S
C480 H471 0.930 . S
C480 C478 1.378 . S
C480 C481 1.367 . S
C481 C480 1.367 . S
C481 C483 1.433 . S
C482 C478 1.350 . S
C482 C479 1.463 . S
C482 N486 1.427 . S
C483 H473 0.929 . S
C483 C481 1.433 . S
C483 N486 1.384 . S
C484 H475 0.929 . S
C484 C476 1.378 . S
C484 C479 1.350 . S
C485 H472 0.929 . S
C485 C477 1.433 . S
C485 N487 1.384 . S
N486 C482 1.427 . S
N486 C483 1.384 . S
N487 C479 1.427 . S
N487 C485 1.384 . S
H488 C494 0.930 . S
H489 C498 0.930 . S
H490 C503 0.929 . S
H491 C501 0.929 . S
H492 C496 0.929 . S
H493 C502 0.929 . S
C494 H488 0.930 . S
C494 C495 1.376 . S
C494 C502 1.378 . S
C495 C494 1.376 . S
C495 C503 1.442 . S
C496 H492 0.929 . S
C496 C498 1.378 . S
C496 C500 1.350 . S
C497 C500 1.463 . S
C497 C502 1.350 . S
C497 N505 1.427 . S
C498 H489 0.930 . S
C498 C496 1.378 . S
C498 C499 1.367 . S
C499 C498 1.367 . S
C499 C501 1.433 . S
C500 C496 1.350 . S
C500 C497 1.463 . S
C500 N504 1.427 . S
C501 H491 0.929 . S
C501 C499 1.433 . S
C501 N504 1.384 . S
C502 H493 0.929 . S
C502 C494 1.378 . S
C502 C497 1.350 . S
C503 H490 0.929 . S
C503 C495 1.442 . S
C503 N505 1.384 . S
N504 C500 1.427 . S
N504 C501 1.384 . S
N505 C497 1.427 . S
N505 C503 1.384 . S
H506 C512 0.930 . S
H507 C516 0.930 . S
H508 C521 0.929 . S
H509 C519 0.929 . S
H510 C514 0.929 . S
H511 C520 0.929 . S
C512 H506 0.930 . S
C512 C513 1.376 . S
C512 C520 1.378 . S
C513 C512 1.376 . S
C513 C521 1.442 . S
C514 H510 0.929 . S
C514 C516 1.378 . S
C514 C518 1.350 . S
C515 C518 1.463 . S
C515 C520 1.350 . S
C515 N523 1.427 . S
C516 H507 0.930 . S
C516 C514 1.378 . S
C516 C517 1.367 . S
C517 C516 1.367 . S
C517 C519 1.433 . S
C518 C514 1.350 . S
C518 C515 1.463 . S
C518 N522 1.427 . S
C519 H509 0.929 . S
C519 C517 1.433 . S
C519 N522 1.384 . S
C520 H511 0.929 . S
C520 C512 1.378 . S
C520 C515 1.350 . S
C521 H508 0.929 . S
C521 C513 1.442 . S
C521 N523 1.384 . S
N522 C518 1.427 . S
N522 C519 1.384 . S
N523 C515 1.427 . S
N523 C521 1.384 . S
H524 C530 0.930 . S
H525 C534 0.930 . S
H526 C539 0.929 . S
H527 C537 0.929 . S
H528 C532 0.929 . S
H529 C538 0.929 . S
C530 H524 0.930 . S
C530 C531 1.376 . S
C530 C538 1.378 . S
C531 C530 1.376 . S
C531 C539 1.442 . S
C532 H528 0.929 . S
C532 C534 1.378 . S
C532 C536 1.350 . S
C533 C536 1.463 . S
C533 C538 1.350 . S
C533 N541 1.427 . S
C534 H525 0.930 . S
C534 C532 1.378 . S
C534 C535 1.367 . S
C535 C534 1.367 . S
C535 C537 1.433 . S
C536 C532 1.350 . S
C536 C533 1.463 . S
C536 N540 1.427 . S
C537 H527 0.929 . S
C537 C535 1.433 . S
C537 N540 1.384 . S
C538 H529 0.929 . S
C538 C530 1.378 . S
C538 C533 1.350 . S
C539 H526 0.929 . S
C539 C531 1.442 . S
C539 N541 1.384 . S
N540 C536 1.427 . S
N540 C537 1.384 . S
N541 C533 1.427 . S
N541 C539 1.384 . S
H542 C548 0.930 . S
H543 C552 0.930 . S
H544 C557 0.929 . S
H545 C555 0.929 . S
H546 C550 0.929 . S
H547 C556 0.929 . S
C548 H542 0.930 . S
C548 C549 1.367 . S
C548 C556 1.378 . S
C549 C548 1.367 . S
C549 C557 1.433 . S
C550 H546 0.929 . S
C550 C552 1.378 . S
C550 C554 1.350 . S
C551 C554 1.463 . S
C551 C556 1.350 . S
C551 N559 1.427 . S
C552 H543 0.930 . S
C552 C550 1.378 . S
C552 C553 1.376 . S
C553 C552 1.376 . S
C553 C555 1.442 . S
C554 C550 1.350 . S
C554 C551 1.463 . S
C554 N558 1.427 . S
C555 H545 0.929 . S
C555 C553 1.442 . S
C555 N558 1.384 . S
C556 H547 0.929 . S
C556 C548 1.378 . S
C556 C551 1.350 . S
C557 H544 0.929 . S
C557 C549 1.433 . S
C557 N559 1.384 . S
N558 C554 1.427 . S
N558 C555 1.384 . S
N559 C551 1.427 . S
N559 C557 1.384 . S
H560 C566 0.930 . S
H561 C570 0.930 . S
H562 C575 0.929 . S
H563 C573 0.929 . S
H564 C568 0.929 . S
H565 C574 0.929 . S
C566 H560 0.930 . S
C566 C567 1.367 . S
C566 C574 1.378 . S
C567 C566 1.367 . S
C567 C575 1.433 . S
C568 H564 0.929 . S
C568 C570 1.378 . S
C568 C572 1.350 . S
C569 C572 1.463 . S
C569 C574 1.350 . S
C569 N577 1.427 . S
C570 H561 0.930 . S
C570 C568 1.378 . S
C570 C571 1.367 . S
C571 C570 1.367 . S
C571 C573 1.433 . S
C572 C568 1.350 . S
C572 C569 1.463 . S
C572 N576 1.427 . S
C573 H563 0.929 . S
C573 C571 1.433 . S
C573 N576 1.384 . S
C574 H565 0.929 . S
C574 C566 1.378 . S
C574 C569 1.350 . S
C575 H562 0.929 . S
C575 C567 1.433 . S
C575 N577 1.384 . S
N576 C572 1.427 . S
N576 C573 1.384 . S
N577 C569 1.427 . S
N577 C575 1.384 . S
H578 C584 0.930 . S
H579 C588 0.930 . S
H580 C593 0.929 . S
H581 C591 0.929 . S
H582 C586 0.929 . S
H583 C592 0.929 . S
C584 H578 0.930 . S
C584 C585 1.367 . S
C584 C592 1.378 . S
C585 C584 1.367 . S
C585 C593 1.433 . S
C586 H582 0.929 . S
C586 C588 1.378 . S
C586 C590 1.350 . S
C587 C590 1.463 . S
C587 C592 1.350 . S
C587 N595 1.427 . S
C588 H579 0.930 . S
C588 C586 1.378 . S
C588 C589 1.367 . S
C589 C588 1.367 . S
C589 C591 1.433 . S
C590 C586 1.350 . S
C590 C587 1.463 . S
C590 N594 1.427 . S
C591 H581 0.929 . S
C591 C589 1.433 . S
C591 N594 1.384 . S
C592 H583 0.929 . S
C592 C584 1.378 . S
C592 C587 1.350 . S
C593 H580 0.929 . S
C593 C585 1.433 . S
C593 N595 1.384 . S
N594 C590 1.427 . S
N594 C591 1.384 . S
N595 C587 1.427 . S
N595 C593 1.384 . S
H596 C602 0.930 . S
H597 C606 0.930 . S
H598 C611 0.929 . S
H599 C609 0.929 . S
H600 C604 0.929 . S
H601 C610 0.929 . S
C602 H596 0.930 . S
C602 C603 1.367 . S
C602 C610 1.378 . S
C603 C602 1.367 . S
C603 C611 1.433 . S
C604 H600 0.929 . S
C604 C606 1.378 . S
C604 C608 1.350 . S
C605 C608 1.463 . S
C605 C610 1.350 . S
C605 N613 1.427 . S
C606 H597 0.930 . S
C606 C604 1.378 . S
C606 C607 1.367 . S
C607 C606 1.367 . S
C607 C609 1.433 . S
C608 C604 1.350 . S
C608 C605 1.463 . S
C608 N612 1.427 . S
C609 H599 0.929 . S
C609 C607 1.433 . S
C609 N612 1.384 . S
C610 H601 0.929 . S
C610 C602 1.378 . S
C610 C605 1.350 . S
C611 H598 0.929 . S
C611 C603 1.433 . S
C611 N613 1.384 . S
N612 C608 1.427 . S
N612 C609 1.384 . S
N613 C605 1.427 . S
N613 C611 1.384 . S
H614 C620 0.930 . S
H615 C624 0.930 . S
H616 C629 0.929 . S
H617 C627 0.929 . S
H618 C622 0.929 . S
H619 C628 0.929 . S
C620 H614 0.930 . S
C620 C621 1.367 . S
C620 C628 1.378 . S
C621 C620 1.367 . S
C621 C629 1.433 . S
C622 H618 0.929 . S
C622 C624 1.378 . S
C622 C626 1.350 . S
C623 C626 1.463 . S
C623 C628 1.350 . S
C623 N631 1.427 . S
C624 H615 0.930 . S
C624 C622 1.378 . S
C624 C625 1.367 . S
C625 C624 1.367 . S
C625 C627 1.433 . S
C626 C622 1.350 . S
C626 C623 1.463 . S
C626 N630 1.427 . S
C627 H617 0.929 . S
C627 C625 1.433 . S
C627 N630 1.384 . S
C628 H619 0.929 . S
C628 C620 1.378 . S
C628 C623 1.350 . S
C629 H616 0.929 . S
C629 C621 1.433 . S
C629 N631 1.384 . S
N630 C626 1.427 . S
N630 C627 1.384 . S
N631 C623 1.427 . S
N631 C629 1.384 . S
H632 C638 0.930 . S
H633 C642 0.930 . S
H634 C647 0.929 . S
H635 C645 0.929 . S
H636 C640 0.929 . S
H637 C646 0.929 . S
C638 H632 0.930 . S
C638 C639 1.367 . S
C638 C646 1.378 . S
C639 C638 1.367 . S
C639 C647 1.433 . S
C640 H636 0.929 . S
C640 C642 1.378 . S
C640 C644 1.350 . S
C641 C644 1.463 . S
C641 C646 1.350 . S
C641 N649 1.427 . S
C642 H633 0.930 . S
C642 C640 1.378 . S
C642 C643 1.376 . S
C643 C642 1.376 . S
C643 C645 1.442 . S
C644 C640 1.350 . S
C644 C641 1.463 . S
C644 N648 1.427 . S
C645 H635 0.929 . S
C645 C643 1.442 . S
C645 N648 1.384 . S
C646 H637 0.929 . S
C646 C638 1.378 . S
C646 C641 1.350 . S
C647 H634 0.929 . S
C647 C639 1.433 . S
C647 N649 1.384 . S
N648 C644 1.427 . S
N648 C645 1.384 . S
N649 C641 1.427 . S
N649 C647 1.384 . S
H650 C656 0.930 . S
H651 C660 0.930 . S
H652 C665 0.929 . S
H653 C663 0.929 . S
H654 C658 0.929 . S
H655 C664 0.929 . S
C656 H650 0.930 . S
C656 C657 1.376 . S
C656 C664 1.378 . S
C657 C656 1.376 . S
C657 C665 1.442 . S
C658 H654 0.929 . S
C658 C660 1.378 . S
C658 C662 1.350 . S
C659 C662 1.463 . S
C659 C664 1.350 . S
C659 N667 1.427 . S
C660 H651 0.930 . S
C660 C658 1.378 . S
C660 C661 1.367 . S
C661 C660 1.367 . S
C661 C663 1.433 . S
C662 C658 1.350 . S
C662 C659 1.463 . S
C662 N666 1.427 . S
C663 H653 0.929 . S
C663 C661 1.433 . S
C663 N666 1.384 . S
C664 H655 0.929 . S
C664 C656 1.378 . S
C664 C659 1.350 . S
C665 H652 0.929 . S
C665 C657 1.442 . S
C665 N667 1.384 . S
N666 C662 1.427 . S
N666 C663 1.384 . S
N667 C659 1.427 . S
N667 C665 1.384 . S
H668 C674 0.930 . S
H669 C678 0.930 . S
H670 C683 0.929 . S
H671 C681 0.929 . S
H672 C676 0.929 . S
H673 C682 0.929 . S
C674 H668 0.930 . S
C674 C675 1.367 . S
C674 C682 1.378 . S
C675 C674 1.367 . S
C675 C683 1.433 . S
C676 H672 0.929 . S
C676 C678 1.378 . S
C676 C680 1.350 . S
C677 C680 1.463 . S
C677 C682 1.350 . S
C677 N685 1.427 . S
C678 H669 0.930 . S
C678 C676 1.378 . S
C678 C679 1.376 . S
C679 C678 1.376 . S
C679 C681 1.442 . S
C680 C676 1.350 . S
C680 C677 1.463 . S
C680 N684 1.427 . S
C681 H671 0.929 . S
C681 C679 1.442 . S
C681 N684 1.384 . S
C682 H673 0.929 . S
C682 C674 1.378 . S
C682 C677 1.350 . S
C683 H670 0.929 . S
C683 C675 1.433 . S
C683 N685 1.384 . S
N684 C680 1.427 . S
N684 C681 1.384 . S
N685 C677 1.427 . S
N685 C683 1.384 . S
H686 C692 0.930 . S
H687 C696 0.930 . S
H688 C701 0.929 . S
H689 C699 0.929 . S
H690 C694 0.929 . S
H691 C700 0.929 . S
C692 H686 0.930 . S
C692 C693 1.367 . S
C692 C700 1.378 . S
C693 C692 1.367 . S
C693 C701 1.433 . S
C694 H690 0.929 . S
C694 C696 1.378 . S
C694 C698 1.350 . S
C695 C698 1.463 . S
C695 C700 1.350 . S
C695 N703 1.427 . S
C696 H687 0.930 . S
C696 C694 1.378 . S
C696 C697 1.376 . S
C697 C696 1.376 . S
C697 C699 1.442 . S
C698 C694 1.350 . S
C698 C695 1.463 . S
C698 N702 1.427 . S
C699 H689 0.929 . S
C699 C697 1.442 . S
C699 N702 1.384 . S
C700 H691 0.929 . S
C700 C692 1.378 . S
C700 C695 1.350 . S
C701 H688 0.929 . S
C701 C693 1.433 . S
C701 N703 1.384 . S
N702 C698 1.427 . S
N702 C699 1.384 . S
N703 C695 1.427 . S
N703 C701 1.384 . S
H704 C710 0.930 . S
H705 C714 0.930 . S
H706 C719 0.929 . S
H707 C717 0.929 . S
H708 C712 0.929 1_556 S
H709 C718 0.929 1_554 S
C710 H704 0.930 . S
C710 C711 1.367 . S
C710 C718 1.378 . S
C711 C710 1.367 . S
C711 C719 1.433 . S
C712 H708 0.929 1_554 S
C712 C714 1.378 . S
C712 C716 1.350 . S
C713 C716 1.463 1_656 S
C713 C718 1.350 . S
C713 N721 1.427 1_655 S
C714 H705 0.930 . S
C714 C712 1.378 . S
C714 C715 1.367 . S
C715 C714 1.367 . S
C715 C717 1.433 . S
C716 C712 1.350 . S
C716 C713 1.463 1_454 S
C716 N720 1.427 1_455 S
C717 H707 0.929 . S
C717 C715 1.433 . S
C717 N720 1.384 1_455 S
C718 H709 0.929 1_556 S
C718 C710 1.378 . S
C718 C713 1.350 . S
C719 H706 0.929 . S
C719 C711 1.433 . S
C719 N721 1.384 1_655 S
N720 C716 1.427 1_655 S
N720 C717 1.384 1_655 S
N721 C713 1.427 1_455 S
N721 C719 1.384 1_455 S
H722 C728 0.930 . S
H723 C732 0.930 . S
H724 C737 0.929 . S
H725 C735 0.929 . S
H726 C730 0.929 . S
H727 C736 0.929 . S
C728 H722 0.930 . S
C728 C729 1.367 . S
C728 C736 1.378 . S
C729 C728 1.367 . S
C729 C737 1.433 . S
C730 H726 0.929 . S
C730 C732 1.378 . S
C730 C734 1.350 . S
C731 C734 1.463 1_556 S
C731 C736 1.350 . S
C731 N739 1.427 . S
C732 H723 0.930 . S
C732 C730 1.378 . S
C732 C733 1.367 . S
C733 C732 1.367 . S
C733 C735 1.433 . S
C734 C730 1.350 . S
C734 C731 1.463 1_554 S
C734 N738 1.427 . S
C735 H725 0.929 . S
C735 C733 1.433 . S
C735 N738 1.384 . S
C736 H727 0.929 . S
C736 C728 1.378 . S
C736 C731 1.350 . S
C737 H724 0.929 . S
C737 C729 1.433 . S
C737 N739 1.384 . S
N738 C734 1.427 . S
N738 C735 1.384 . S
N739 C731 1.427 . S
N739 C737 1.384 . S
H740 C746 0.930 . S
H741 C750 0.930 . S
H742 C755 0.929 . S
H743 C753 0.929 . S
H744 C748 0.929 . S
H745 C754 0.929 . S
C746 H740 0.930 . S
C746 C747 1.367 . S
C746 C754 1.378 . S
C747 C746 1.367 . S
C747 C755 1.433 . S
C748 H744 0.929 . S
C748 C750 1.378 . S
C748 C752 1.350 . S
C749 C752 1.463 1_455 S
C749 C754 1.350 . S
C749 N757 1.427 . S
C750 H741 0.930 . S
C750 C748 1.378 . S
C750 C751 1.367 . S
C751 C750 1.367 . S
C751 C753 1.433 . S
C752 C748 1.350 . S
C752 C749 1.463 1_655 S
C752 N756 1.427 . S
C753 H743 0.929 . S
C753 C751 1.433 . S
C753 N756 1.384 . S
C754 H745 0.929 . S
C754 C746 1.378 . S
C754 C749 1.350 . S
C755 H742 0.929 . S
C755 C747 1.433 . S
C755 N757 1.384 . S
N756 C752 1.427 . S
N756 C753 1.384 . S
N757 C749 1.427 . S
N757 C755 1.384 . S
H758 C764 0.930 . S
H759 C768 0.930 . S
H760 C773 0.929 . S
H761 C771 0.929 . S
H762 C766 0.929 . S
H763 C772 0.929 . S
C764 H758 0.930 . S
C764 C765 1.367 . S
C764 C772 1.378 . S
C765 C764 1.367 . S
C765 C773 1.433 . S
C766 H762 0.929 . S
C766 C768 1.378 . S
C766 C770 1.350 . S
C767 C770 1.463 . S
C767 C772 1.350 . S
C767 N775 1.427 . S
C768 H759 0.930 . S
C768 C766 1.378 . S
C768 C769 1.367 . S
C769 C768 1.367 . S
C769 C771 1.433 . S
C770 C766 1.350 . S
C770 C767 1.463 . S
C770 N774 1.427 . S
C771 H761 0.929 . S
C771 C769 1.433 . S
C771 N774 1.384 . S
C772 H763 0.929 . S
C772 C764 1.378 . S
C772 C767 1.350 . S
C773 H760 0.929 . S
C773 C765 1.433 . S
C773 N775 1.384 . S
N774 C770 1.427 . S
N774 C771 1.384 . S
N775 C767 1.427 . S
N775 C773 1.384 . S
H776 C782 0.930 . S
H777 C786 0.930 . S
H778 C791 0.929 . S
H779 C789 0.929 . S
H780 C784 0.929 . S
H781 C790 0.929 . S
C782 H776 0.930 . S
C782 C783 1.367 . S
C782 C790 1.378 . S
C783 C782 1.367 . S
C783 C791 1.433 . S
C784 H780 0.929 . S
C784 C786 1.378 . S
C784 C788 1.350 . S
C785 C788 1.463 1_556 S
C785 C790 1.350 . S
C785 N793 1.427 . S
C786 H777 0.930 . S
C786 C784 1.378 . S
C786 C787 1.367 . S
C787 C786 1.367 . S
C787 C789 1.433 . S
C788 C784 1.350 . S
C788 C785 1.463 1_554 S
C788 N792 1.427 . S
C789 H779 0.929 . S
C789 C787 1.433 . S
C789 N792 1.384 . S
C790 H781 0.929 . S
C790 C782 1.378 . S
C790 C785 1.350 . S
C791 H778 0.929 . S
C791 C783 1.433 . S
C791 N793 1.384 . S
N792 C788 1.427 . S
N792 C789 1.384 . S
N793 C785 1.427 . S
N793 C791 1.384 . S
H794 C800 0.930 . S
H795 C804 0.930 . S
H796 C809 0.929 . S
H797 C807 0.929 . S
H798 C802 0.929 . S
H799 C808 0.929 . S
C800 H794 0.930 . S
C800 C801 1.367 . S
C800 C808 1.378 . S
C801 C800 1.367 . S
C801 C809 1.433 . S
C802 H798 0.929 . S
C802 C804 1.378 . S
C802 C806 1.350 . S
C803 C806 1.463 1_655 S
C803 C808 1.350 . S
C803 N811 1.427 . S
C804 H795 0.930 . S
C804 C802 1.378 . S
C804 C805 1.367 . S
C805 C804 1.367 . S
C805 C807 1.433 . S
C806 C802 1.350 . S
C806 C803 1.463 1_455 S
C806 N810 1.427 . S
C807 H797 0.929 . S
C807 C805 1.433 . S
C807 N810 1.384 . S
C808 H799 0.929 . S
C808 C800 1.378 . S
C808 C803 1.350 . S
C809 H796 0.929 . S
C809 C801 1.433 . S
C809 N811 1.384 . S
N810 C806 1.427 . S
N810 C807 1.384 . S
N811 C803 1.427 . S
N811 C809 1.384 . S
H812 C818 0.930 . S
H813 C822 0.930 . S
H814 C827 0.929 . S
H815 C825 0.929 . S
H816 C820 0.929 . S
H817 C826 0.929 . S
C818 H812 0.930 . S
C818 C819 1.367 . S
C818 C826 1.378 . S
C819 C818 1.367 . S
C819 C827 1.433 . S
C820 H816 0.929 . S
C820 C822 1.378 . S
C820 C824 1.350 . S
C821 C824 1.463 . S
C821 C826 1.350 . S
C821 N829 1.427 . S
C822 H813 0.930 . S
C822 C820 1.378 . S
C822 C823 1.367 . S
C823 C822 1.367 . S
C823 C825 1.433 . S
C824 C820 1.350 . S
C824 C821 1.463 . S
C824 N828 1.427 . S
C825 H815 0.929 . S
C825 C823 1.433 . S
C825 N828 1.384 . S
C826 H817 0.929 . S
C826 C818 1.378 . S
C826 C821 1.350 . S
C827 H814 0.929 . S
C827 C819 1.433 . S
C827 N829 1.384 . S
N828 C824 1.427 . S
N828 C825 1.384 . S
N829 C821 1.427 . S
N829 C827 1.384 . S
H830 C836 0.930 . S
H831 C840 0.930 . S
H832 C845 0.929 . S
H833 C843 0.929 . S
H834 C838 0.929 1_645 S
H835 C844 0.929 1_465 S
C836 H830 0.930 . S
C836 C837 1.367 . S
C836 C844 1.378 . S
C837 C836 1.367 . S
C837 C845 1.433 . S
C838 H834 0.929 1_465 S
C838 C840 1.378 . S
C838 C842 1.350 . S
C839 C842 1.463 1_645 S
C839 C844 1.350 . S
C839 N847 1.427 . S
C840 H831 0.930 . S
C840 C838 1.378 . S
C840 C841 1.367 . S
C841 C840 1.367 . S
C841 C843 1.433 . S
C842 C838 1.350 . S
C842 C839 1.463 1_465 S
C842 N846 1.427 . S
C843 H833 0.929 . S
C843 C841 1.433 . S
C843 N846 1.384 . S
C844 H835 0.929 1_645 S
C844 C836 1.378 . S
C844 C839 1.350 . S
C845 H832 0.929 . S
C845 C837 1.433 . S
C845 N847 1.384 . S
N846 C842 1.427 . S
N846 C843 1.384 . S
N847 C839 1.427 . S
N847 C845 1.384 . S
H848 C854 0.930 . S
H849 C858 0.930 . S
H850 C863 0.929 . S
H851 C861 0.929 . S
H852 C856 0.929 . S
H853 C862 0.929 . S
C854 H848 0.930 . S
C854 C855 1.367 . S
C854 C862 1.378 . S
C855 C854 1.367 . S
C855 C863 1.433 . S
C856 H852 0.929 . S
C856 C858 1.378 . S
C856 C860 1.350 . S
C857 C860 1.463 . S
C857 C862 1.350 . S
C857 N865 1.427 . S
C858 H849 0.930 . S
C858 C856 1.378 . S
C858 C859 1.367 . S
C859 C858 1.367 . S
C859 C861 1.433 . S
C860 C856 1.350 . S
C860 C857 1.463 . S
C860 N864 1.427 . S
C861 H851 0.929 . S
C861 C859 1.433 . S
C861 N864 1.384 . S
C862 H853 0.929 . S
C862 C854 1.378 . S
C862 C857 1.350 . S
C863 H850 0.929 . S
C863 C855 1.433 . S
C863 N865 1.384 . S
N864 C860 1.427 . S
N864 C861 1.384 . S
N865 C857 1.427 . S
N865 C863 1.384 . S
H866 C872 0.930 . S
H867 C876 0.930 . S
H868 C881 0.929 . S
H869 C879 0.929 . S
H870 C874 0.929 . S
H871 C880 0.929 . S
C872 H866 0.930 . S
C872 C873 1.367 . S
C872 C880 1.378 . S
C873 C872 1.367 . S
C873 C881 1.433 . S
C874 H870 0.929 . S
C874 C876 1.378 . S
C874 C878 1.350 . S
C875 C878 1.463 1_565 S
C875 C880 1.350 . S
C875 N883 1.427 1_565 S
C876 H867 0.930 . S
C876 C874 1.378 . S
C876 C877 1.367 . S
C877 C876 1.367 . S
C877 C879 1.433 . S
C878 C874 1.350 . S
C878 C875 1.463 1_545 S
C878 N882 1.427 1_545 S
C879 H869 0.929 . S
C879 C877 1.433 . S
C879 N882 1.384 1_545 S
C880 H871 0.929 . S
C880 C872 1.378 . S
C880 C875 1.350 . S
C881 H868 0.929 . S
C881 C873 1.433 . S
C881 N883 1.384 1_565 S
N882 C878 1.427 1_565 S
N882 C879 1.384 1_565 S
N883 C875 1.427 1_545 S
N883 C881 1.384 1_545 S
H884 C890 0.930 . S
H885 C894 0.930 . S
H886 C899 0.929 . S
H887 C897 0.929 . S
H888 C892 0.929 . S
H889 C898 0.929 . S
C890 H884 0.930 . S
C890 C891 1.367 . S
C890 C898 1.378 . S
C891 C890 1.367 . S
C891 C899 1.433 . S
C892 H888 0.929 . S
C892 C894 1.378 . S
C892 C896 1.350 . S
C893 C896 1.463 . S
C893 C898 1.350 . S
C893 N901 1.427 . S
C894 H885 0.930 . S
C894 C892 1.378 . S
C894 C895 1.367 . S
C895 C894 1.367 . S
C895 C897 1.433 . S
C896 C892 1.350 . S
C896 C893 1.463 . S
C896 N900 1.427 . S
C897 H887 0.929 . S
C897 C895 1.433 . S
C897 N900 1.384 . S
C898 H889 0.929 . S
C898 C890 1.378 . S
C898 C893 1.350 . S
C899 H886 0.929 . S
C899 C891 1.433 . S
C899 N901 1.384 . S
N900 C896 1.427 . S
N900 C897 1.384 . S
N901 C893 1.427 . S
N901 C899 1.384 . S
H902 C908 0.930 . S
H903 C912 0.930 . S
H904 C917 0.930 . S
H905 C915 0.930 . S
H906 C910 0.929 . S
H907 C916 0.929 . S
C908 H902 0.930 . S
C908 C909 1.367 . S
C908 C916 1.378 . S
C909 C908 1.367 . S
C909 C917 1.433 . S
C910 H906 0.929 . S
C910 C912 1.378 . S
C910 C914 1.350 . S
C911 C914 1.463 1_565 S
C911 C916 1.350 . S
C911 N919 1.427 1_565 S
C912 H903 0.930 . S
C912 C910 1.378 . S
C912 C913 1.367 . S
C913 C912 1.367 . S
C913 C915 1.433 . S
C914 C910 1.350 . S
C914 C911 1.463 1_545 S
C914 N918 1.427 1_545 S
C915 H905 0.930 . S
C915 C913 1.433 . S
C915 N918 1.384 1_545 S
C916 H907 0.929 . S
C916 C908 1.378 . S
C916 C911 1.350 . S
C917 H904 0.930 . S
C917 C909 1.433 . S
C917 N919 1.384 1_565 S
N918 C914 1.427 1_565 S
N918 C915 1.384 1_565 S
N919 C911 1.427 1_545 S
N919 C917 1.384 1_545 S
H920 C926 0.930 . S
H921 C930 0.930 . S
H922 C935 0.929 . S
H923 C933 0.929 . S
H924 C928 0.929 . S
H925 C934 0.929 . S
C926 H920 0.930 . S
C926 C927 1.367 . S
C926 C934 1.378 . S
C927 C926 1.367 . S
C927 C935 1.433 . S
C928 H924 0.929 . S
C928 C930 1.378 . S
C928 C932 1.350 . S
C929 C932 1.463 . S
C929 C934 1.350 . S
C929 N937 1.427 . S
C930 H921 0.930 . S
C930 C928 1.378 . S
C930 C931 1.367 . S
C931 C930 1.367 . S
C931 C933 1.433 . S
C932 C928 1.350 . S
C932 C929 1.463 . S
C932 N936 1.427 . S
C933 H923 0.929 . S
C933 C931 1.433 . S
C933 N936 1.384 . S
C934 H925 0.929 . S
C934 C926 1.378 . S
C934 C929 1.350 . S
C935 H922 0.929 . S
C935 C927 1.433 . S
C935 N937 1.384 . S
N936 C932 1.427 . S
N936 C933 1.384 . S
N937 C929 1.427 . S
N937 C935 1.384 . S
H938 C944 0.930 . S
H939 C948 0.930 . S
H940 C953 0.929 . S
H941 C951 0.929 . S
H942 C946 0.929 . S
H943 C952 0.929 . S
C944 H938 0.930 . S
C944 C945 1.367 . S
C944 C952 1.378 . S
C945 C944 1.367 . S
C945 C953 1.433 . S
C946 H942 0.929 . S
C946 C948 1.378 . S
C946 C950 1.350 . S
C947 C950 1.463 . S
C947 C952 1.350 . S
C947 N955 1.427 . S
C948 H939 0.930 . S
C948 C946 1.378 . S
C948 C949 1.367 . S
C949 C948 1.367 . S
C949 C951 1.433 . S
C950 C946 1.350 . S
C950 C947 1.463 . S
C950 N954 1.427 . S
C951 H941 0.929 . S
C951 C949 1.433 . S
C951 N954 1.384 . S
C952 H943 0.929 . S
C952 C944 1.378 . S
C952 C947 1.350 . S
C953 H940 0.929 . S
C953 C945 1.433 . S
C953 N955 1.384 . S
N954 C950 1.427 . S
N954 C951 1.384 . S
N955 C947 1.427 . S
N955 C953 1.384 . S
H956 C962 0.930 . S
H957 C966 0.930 . S
H958 C971 0.929 . S
H959 C969 0.929 . S
H960 C964 0.929 . S
H961 C970 0.929 . S
C962 H956 0.930 . S
C962 C963 1.367 . S
C962 C970 1.378 . S
C963 C962 1.367 . S
C963 C971 1.433 . S
C964 H960 0.929 . S
C964 C966 1.378 . S
C964 C968 1.350 . S
C965 C968 1.463 . S
C965 C970 1.350 . S
C965 N973 1.427 . S
C966 H957 0.930 . S
C966 C964 1.378 . S
C966 C967 1.367 . S
C967 C966 1.367 . S
C967 C969 1.433 . S
C968 C964 1.350 . S
C968 C965 1.463 . S
C968 N972 1.427 . S
C969 H959 0.929 . S
C969 C967 1.433 . S
C969 N972 1.384 . S
C970 H961 0.929 . S
C970 C962 1.378 . S
C970 C965 1.350 . S
C971 H958 0.929 . S
C971 C963 1.433 . S
C971 N973 1.384 . S
N972 C968 1.427 . S
N972 C969 1.384 . S
N973 C965 1.427 . S
N973 C971 1.384 . S
H974 C980 0.930 . S
H975 C984 0.930 . S
H976 C989 0.929 . S
H977 C987 0.929 . S
H978 C982 0.929 . S
H979 C988 0.929 . S
C980 H974 0.930 . S
C980 C981 1.367 . S
C980 C988 1.378 1_545 S
C981 C980 1.367 . S
C981 C989 1.433 . S
C982 H978 0.929 . S
C982 C984 1.378 1_545 S
C982 C986 1.350 1_545 S
C983 C986 1.463 1_546 S
C983 C988 1.350 1_545 S
C983 N991 1.427 . S
C984 H975 0.930 . S
C984 C982 1.378 1_565 S
C984 C985 1.367 . S
C985 C984 1.367 . S
C985 C987 1.433 . S
C986 C982 1.350 1_565 S
C986 C983 1.463 1_564 S
C986 N990 1.427 . S
C987 H977 0.929 . S
C987 C985 1.433 . S
C987 N990 1.384 . S
C988 H979 0.929 . S
C988 C980 1.378 1_565 S
C988 C983 1.350 1_565 S
C989 H976 0.929 . S
C989 C981 1.433 . S
C989 N991 1.384 . S
N990 C986 1.427 . S
N990 C987 1.384 . S
N991 C983 1.427 . S
N991 C989 1.384 . S
H992 C998 0.930 . S
H993 C1002 0.930 . S
H994 C1007 0.929 . S
H995 C1005 0.929 . S
H996 C1000 0.929 . S
H997 C1006 0.929 . S
C998 H992 0.930 . S
C998 C999 1.367 . S
C998 C1006 1.378 . S
C999 C998 1.367 . S
C999 C1007 1.433 . S
C1000 H996 0.929 . S
C1000 C1002 1.378 . S
C1000 C1004 1.350 . S
C1001 C1004 1.463 . S
C1001 C1006 1.350 . S
C1001 N1009 1.427 . S
C1002 H993 0.930 . S
C1002 C1000 1.378 . S
C1002 C1003 1.367 . S
C1003 C1002 1.367 . S
C1003 C1005 1.433 . S
C1004 C1000 1.350 . S
C1004 C1001 1.463 . S
C1004 N1008 1.427 . S
C1005 H995 0.929 . S
C1005 C1003 1.433 . S
C1005 N1008 1.384 . S
C1006 H997 0.929 . S
C1006 C998 1.378 . S
C1006 C1001 1.350 . S
C1007 H994 0.929 . S
C1007 C999 1.433 . S
C1007 N1009 1.384 . S
N1008 C1004 1.427 . S
N1008 C1005 1.384 . S
N1009 C1001 1.427 . S
N1009 C1007 1.384 . S
H1010 C1016 0.930 . S
H1011 C1020 0.930 . S
H1012 C1025 0.929 . S
H1013 C1023 0.929 . S
H1014 C1018 0.929 . S
H1015 C1024 0.929 . S
C1016 H1010 0.930 . S
C1016 C1017 1.367 . S
C1016 C1024 1.378 . S
C1017 C1016 1.367 . S
C1017 C1025 1.433 . S
C1018 H1014 0.929 . S
C1018 C1020 1.378 . S
C1018 C1022 1.350 . S
C1019 C1022 1.463 . S
C1019 C1024 1.350 . S
C1019 N1027 1.427 . S
C1020 H1011 0.930 . S
C1020 C1018 1.378 . S
C1020 C1021 1.367 . S
C1021 C1020 1.367 . S
C1021 C1023 1.433 . S
C1022 C1018 1.350 . S
C1022 C1019 1.463 . S
C1022 N1026 1.427 . S
C1023 H1013 0.929 . S
C1023 C1021 1.433 . S
C1023 N1026 1.384 . S
C1024 H1015 0.929 . S
C1024 C1016 1.378 . S
C1024 C1019 1.350 . S
C1025 H1012 0.929 . S
C1025 C1017 1.433 . S
C1025 N1027 1.384 . S
N1026 C1022 1.427 . S
N1026 C1023 1.384 . S
N1027 C1019 1.427 . S
N1027 C1025 1.384 . S
H1028 C1034 0.930 . S
H1029 C1038 0.930 . S
H1030 C1043 0.929 . S
H1031 C1041 0.929 . S
H1032 C1036 0.929 . S
H1033 C1042 0.929 . S
C1034 H1028 0.930 . S
C1034 C1035 1.367 . S
C1034 C1042 1.378 . S
C1035 C1034 1.367 . S
C1035 C1043 1.433 . S
C1036 H1032 0.929 . S
C1036 C1038 1.378 . S
C1036 C1040 1.350 . S
C1037 C1040 1.463 . S
C1037 C1042 1.350 . S
C1037 N1045 1.427 . S
C1038 H1029 0.930 . S
C1038 C1036 1.378 . S
C1038 C1039 1.367 . S
C1039 C1038 1.367 . S
C1039 C1041 1.433 . S
C1040 C1036 1.350 . S
C1040 C1037 1.463 . S
C1040 N1044 1.427 . S
C1041 H1031 0.929 . S
C1041 C1039 1.433 . S
C1041 N1044 1.384 . S
C1042 H1033 0.929 . S
C1042 C1034 1.378 . S
C1042 C1037 1.350 . S
C1043 H1030 0.929 . S
C1043 C1035 1.433 . S
C1043 N1045 1.384 . S
N1044 C1040 1.427 . S
N1044 C1041 1.384 . S
N1045 C1037 1.427 . S
N1045 C1043 1.384 . S
H1046 C1052 0.930 . S
H1047 C1056 0.930 . S
H1048 C1061 0.929 . S
H1049 C1059 0.929 . S
H1050 C1054 0.929 . S
H1051 C1060 0.929 . S
C1052 H1046 0.930 . S
C1052 C1053 1.367 . S
C1052 C1060 1.378 . S
C1053 C1052 1.367 . S
C1053 C1061 1.433 . S
C1054 H1050 0.929 . S
C1054 C1056 1.378 . S
C1054 C1058 1.350 . S
C1055 C1058 1.463 . S
C1055 C1060 1.350 . S
C1055 N1063 1.427 . S
C1056 H1047 0.930 . S
C1056 C1054 1.378 . S
C1056 C1057 1.367 . S
C1057 C1056 1.367 . S
C1057 C1059 1.433 . S
C1058 C1054 1.350 . S
C1058 C1055 1.463 . S
C1058 N1062 1.427 . S
C1059 H1049 0.929 . S
C1059 C1057 1.433 . S
C1059 N1062 1.384 . S
C1060 H1051 0.929 . S
C1060 C1052 1.378 . S
C1060 C1055 1.350 . S
C1061 H1048 0.929 . S
C1061 C1053 1.433 . S
C1061 N1063 1.384 . S
N1062 C1058 1.427 . S
N1062 C1059 1.384 . S
N1063 C1055 1.427 . S
N1063 C1061 1.384 . S
H1064 C1070 0.930 . S
H1065 C1074 0.930 . S
H1066 C1079 0.929 . S
H1067 C1077 0.929 . S
H1068 C1072 0.929 . S
H1069 C1078 0.929 . S
C1070 H1064 0.930 . S
C1070 C1071 1.367 . S
C1070 C1078 1.378 . S
C1071 C1070 1.367 . S
C1071 C1079 1.433 . S
C1072 H1068 0.929 . S
C1072 C1074 1.378 . S
C1072 C1076 1.350 . S
C1073 C1076 1.463 . S
C1073 C1078 1.350 . S
C1073 N1081 1.427 . S
C1074 H1065 0.930 . S
C1074 C1072 1.378 . S
C1074 C1075 1.367 . S
C1075 C1074 1.367 . S
C1075 C1077 1.433 . S
C1076 C1072 1.350 . S
C1076 C1073 1.463 . S
C1076 N1080 1.427 . S
C1077 H1067 0.929 . S
C1077 C1075 1.433 . S
C1077 N1080 1.384 . S
C1078 H1069 0.929 . S
C1078 C1070 1.378 . S
C1078 C1073 1.350 . S
C1079 H1066 0.929 . S
C1079 C1071 1.433 . S
C1079 N1081 1.384 . S
N1080 C1076 1.427 . S
N1080 C1077 1.384 . S
N1081 C1073 1.427 . S
N1081 C1079 1.384 . S
H1082 C1088 0.930 . S
H1083 C1092 0.930 . S
H1084 C1097 0.929 . S
H1085 C1095 0.929 . S
H1086 C1090 0.929 . S
H1087 C1096 0.929 . S
C1088 H1082 0.930 . S
C1088 C1089 1.367 . S
C1088 C1096 1.378 . S
C1089 C1088 1.367 . S
C1089 C1097 1.433 . S
C1090 H1086 0.929 . S
C1090 C1092 1.378 . S
C1090 C1094 1.350 . S
C1091 C1094 1.463 . S
C1091 C1096 1.350 . S
C1091 N1099 1.427 . S
C1092 H1083 0.930 . S
C1092 C1090 1.378 . S
C1092 C1093 1.367 . S
C1093 C1092 1.367 . S
C1093 C1095 1.433 . S
C1094 C1090 1.350 . S
C1094 C1091 1.463 . S
C1094 N1098 1.427 . S
C1095 H1085 0.929 . S
C1095 C1093 1.433 . S
C1095 N1098 1.384 . S
C1096 H1087 0.929 . S
C1096 C1088 1.378 . S
C1096 C1091 1.350 . S
C1097 H1084 0.929 . S
C1097 C1089 1.433 . S
C1097 N1099 1.384 . S
N1098 C1094 1.427 . S
N1098 C1095 1.384 . S
N1099 C1091 1.427 . S
N1099 C1097 1.384 . S
H1100 C1106 0.930 . S
H1101 C1110 0.930 . S
H1102 C1115 0.929 . S
H1103 C1113 0.929 . S
H1104 C1108 0.929 . S
H1105 C1114 0.929 . S
C1106 H1100 0.930 . S
C1106 C1107 1.367 . S
C1106 C1114 1.378 . S
C1107 C1106 1.367 . S
C1107 C1115 1.433 . S
C1108 H1104 0.929 . S
C1108 C1110 1.378 . S
C1108 C1112 1.350 . S
C1109 C1112 1.463 . S
C1109 C1114 1.350 . S
C1109 N1117 1.427 . S
C1110 H1101 0.930 . S
C1110 C1108 1.378 . S
C1110 C1111 1.367 . S
C1111 C1110 1.367 . S
C1111 C1113 1.433 . S
C1112 C1108 1.350 . S
C1112 C1109 1.463 . S
C1112 N1116 1.427 . S
C1113 H1103 0.929 . S
C1113 C1111 1.433 . S
C1113 N1116 1.384 . S
C1114 H1105 0.929 . S
C1114 C1106 1.378 . S
C1114 C1109 1.350 . S
C1115 H1102 0.929 . S
C1115 C1107 1.433 . S
C1115 N1117 1.384 . S
N1116 C1112 1.427 . S
N1116 C1113 1.384 . S
N1117 C1109 1.427 . S
N1117 C1115 1.384 . S
H1118 C1124 0.930 . S
H1119 C1128 0.930 . S
H1120 C1133 0.929 . S
H1121 C1131 0.929 . S
H1122 C1126 0.929 . S
H1123 C1132 0.929 . S
C1124 H1118 0.930 . S
C1124 C1125 1.367 . S
C1124 C1132 1.378 . S
C1125 C1124 1.367 . S
C1125 C1133 1.433 . S
C1126 H1122 0.929 . S
C1126 C1128 1.378 . S
C1126 C1130 1.350 . S
C1127 C1130 1.463 . S
C1127 C1132 1.350 . S
C1127 N1135 1.427 . S
C1128 H1119 0.930 . S
C1128 C1126 1.378 . S
C1128 C1129 1.367 . S
C1129 C1128 1.367 . S
C1129 C1131 1.433 . S
C1130 C1126 1.350 . S
C1130 C1127 1.463 . S
C1130 N1134 1.427 . S
C1131 H1121 0.929 . S
C1131 C1129 1.433 . S
C1131 N1134 1.384 . S
C1132 H1123 0.929 . S
C1132 C1124 1.378 . S
C1132 C1127 1.350 . S
C1133 H1120 0.929 . S
C1133 C1125 1.433 . S
C1133 N1135 1.384 . S
N1134 C1130 1.427 . S
N1134 C1131 1.384 . S
N1135 C1127 1.427 . S
N1135 C1133 1.384 . S
H1136 C1142 0.930 . S
H1137 C1146 0.930 . S
H1138 C1151 0.929 . S
H1139 C1149 0.929 . S
H1140 C1144 0.929 . S
H1141 C1150 0.929 . S
C1142 H1136 0.930 . S
C1142 C1143 1.367 . S
C1142 C1150 1.378 . S
C1143 C1142 1.367 . S
C1143 C1151 1.433 . S
C1144 H1140 0.929 . S
C1144 C1146 1.378 . S
C1144 C1148 1.350 . S
C1145 C1148 1.463 . S
C1145 C1150 1.350 . S
C1145 N1153 1.427 . S
C1146 H1137 0.930 . S
C1146 C1144 1.378 . S
C1146 C1147 1.367 . S
C1147 C1146 1.367 . S
C1147 C1149 1.433 . S
C1148 C1144 1.350 . S
C1148 C1145 1.463 . S
C1148 N1152 1.427 . S
C1149 H1139 0.929 . S
C1149 C1147 1.433 . S
C1149 N1152 1.384 . S
C1150 H1141 0.929 . S
C1150 C1142 1.378 . S
C1150 C1145 1.350 . S
C1151 H1138 0.929 . S
C1151 C1143 1.433 . S
C1151 N1153 1.384 . S
N1152 C1148 1.427 . S
N1152 C1149 1.384 . S
N1153 C1145 1.427 . S
N1153 C1151 1.384 . S
H1154 C1160 0.930 . S
H1155 C1164 0.930 . S
H1156 C1169 0.929 . S
H1157 C1167 0.929 . S
H1158 C1162 0.929 . S
H1159 C1168 0.929 . S
C1160 H1154 0.930 . S
C1160 C1161 1.367 . S
C1160 C1168 1.378 . S
C1161 C1160 1.367 . S
C1161 C1169 1.433 . S
C1162 H1158 0.929 . S
C1162 C1164 1.378 . S
C1162 C1166 1.350 . S
C1163 C1166 1.463 . S
C1163 C1168 1.350 . S
C1163 N1171 1.427 . S
C1164 H1155 0.930 . S
C1164 C1162 1.378 . S
C1164 C1165 1.367 . S
C1165 C1164 1.367 . S
C1165 C1167 1.433 . S
C1166 C1162 1.350 . S
C1166 C1163 1.463 . S
C1166 N1170 1.427 . S
C1167 H1157 0.929 . S
C1167 C1165 1.433 . S
C1167 N1170 1.384 . S
C1168 H1159 0.929 . S
C1168 C1160 1.378 . S
C1168 C1163 1.350 . S
C1169 H1156 0.929 . S
C1169 C1161 1.433 . S
C1169 N1171 1.384 . S
N1170 C1166 1.427 . S
N1170 C1167 1.384 . S
N1171 C1163 1.427 . S
N1171 C1169 1.384 . S
H1172 C1178 0.930 . S
H1173 C1182 0.930 . S
H1174 C1187 0.929 . S
H1175 C1185 0.929 . S
H1176 C1180 0.929 . S
H1177 C1186 0.929 . S
C1178 H1172 0.930 . S
C1178 C1179 1.367 . S
C1178 C1186 1.378 . S
C1179 C1178 1.367 . S
C1179 C1187 1.433 . S
C1180 H1176 0.929 . S
C1180 C1182 1.378 . S
C1180 C1184 1.350 . S
C1181 C1184 1.463 . S
C1181 C1186 1.350 . S
C1181 N1189 1.427 . S
C1182 H1173 0.930 . S
C1182 C1180 1.378 . S
C1182 C1183 1.367 . S
C1183 C1182 1.367 . S
C1183 C1185 1.433 . S
C1184 C1180 1.350 . S
C1184 C1181 1.463 . S
C1184 N1188 1.427 . S
C1185 H1175 0.929 . S
C1185 C1183 1.433 . S
C1185 N1188 1.384 . S
C1186 H1177 0.929 . S
C1186 C1178 1.378 . S
C1186 C1181 1.350 . S
C1187 H1174 0.929 . S
C1187 C1179 1.433 . S
C1187 N1189 1.384 . S
N1188 C1184 1.427 . S
N1188 C1185 1.384 . S
N1189 C1181 1.427 . S
N1189 C1187 1.384 . S
H1190 C1196 0.930 . S
H1191 C1200 0.930 . S
H1192 C1205 0.929 . S
H1193 C1203 0.929 . S
H1194 C1198 0.929 . S
H1195 C1204 0.929 . S
C1196 H1190 0.930 . S
C1196 C1197 1.367 . S
C1196 C1204 1.378 . S
C1197 C1196 1.367 . S
C1197 C1205 1.433 . S
C1198 H1194 0.929 . S
C1198 C1200 1.378 . S
C1198 C1202 1.350 . S
C1199 C1202 1.463 . S
C1199 C1204 1.350 . S
C1199 N1207 1.427 . S
C1200 H1191 0.930 . S
C1200 C1198 1.378 . S
C1200 C1201 1.367 . S
C1201 C1200 1.367 . S
C1201 C1203 1.433 . S
C1202 C1198 1.350 . S
C1202 C1199 1.463 . S
C1202 N1206 1.427 . S
C1203 H1193 0.929 . S
C1203 C1201 1.433 . S
C1203 N1206 1.384 . S
C1204 H1195 0.929 . S
C1204 C1196 1.378 . S
C1204 C1199 1.350 . S
C1205 H1192 0.929 . S
C1205 C1197 1.433 . S
C1205 N1207 1.384 . S
N1206 C1202 1.427 . S
N1206 C1203 1.384 . S
N1207 C1199 1.427 . S
N1207 C1205 1.384 . S
H1208 C1214 0.930 . S
H1209 C1218 0.930 . S
H1210 C1223 0.929 . S
H1211 C1221 0.929 . S
H1212 C1216 0.929 . S
H1213 C1222 0.929 . S
C1214 H1208 0.930 . S
C1214 C1215 1.367 . S
C1214 C1222 1.378 . S
C1215 C1214 1.367 . S
C1215 C1223 1.433 . S
C1216 H1212 0.929 . S
C1216 C1218 1.378 . S
C1216 C1220 1.350 . S
C1217 C1220 1.463 . S
C1217 C1222 1.350 . S
C1217 N1225 1.427 . S
C1218 H1209 0.930 . S
C1218 C1216 1.378 . S
C1218 C1219 1.367 . S
C1219 C1218 1.367 . S
C1219 C1221 1.433 . S
C1220 C1216 1.350 . S
C1220 C1217 1.463 . S
C1220 N1224 1.427 . S
C1221 H1211 0.929 . S
C1221 C1219 1.433 . S
C1221 N1224 1.384 . S
C1222 H1213 0.929 . S
C1222 C1214 1.378 . S
C1222 C1217 1.350 . S
C1223 H1210 0.929 . S
C1223 C1215 1.433 . S
C1223 N1225 1.384 . S
N1224 C1220 1.427 . S
N1224 C1221 1.384 . S
N1225 C1217 1.427 . S
N1225 C1223 1.384 . S
H1226 C1232 0.930 . S
H1227 C1236 0.930 . S
H1228 C1241 0.929 . S
H1229 C1239 0.929 . S
H1230 C1234 0.929 . S
H1231 C1240 0.929 . S
C1232 H1226 0.930 . S
C1232 C1233 1.367 . S
C1232 C1240 1.378 . S
C1233 C1232 1.367 . S
C1233 C1241 1.433 . S
C1234 H1230 0.929 . S
C1234 C1236 1.378 . S
C1234 C1238 1.350 . S
C1235 C1238 1.463 . S
C1235 C1240 1.350 . S
C1235 N1243 1.427 . S
C1236 H1227 0.930 . S
C1236 C1234 1.378 . S
C1236 C1237 1.367 . S
C1237 C1236 1.367 . S
C1237 C1239 1.433 . S
C1238 C1234 1.350 . S
C1238 C1235 1.463 . S
C1238 N1242 1.427 . S
C1239 H1229 0.929 . S
C1239 C1237 1.433 . S
C1239 N1242 1.384 . S
C1240 H1231 0.929 . S
C1240 C1232 1.378 . S
C1240 C1235 1.350 . S
C1241 H1228 0.929 . S
C1241 C1233 1.433 . S
C1241 N1243 1.384 . S
N1242 C1238 1.427 . S
N1242 C1239 1.384 . S
N1243 C1235 1.427 . S
N1243 C1241 1.384 . S
H1244 C1250 0.930 . S
H1245 C1254 0.930 . S
H1246 C1259 0.929 . S
H1247 C1257 0.929 . S
H1248 C1252 0.929 . S
H1249 C1258 0.929 . S
C1250 H1244 0.930 . S
C1250 C1251 1.367 . S
C1250 C1258 1.378 . S
C1251 C1250 1.367 . S
C1251 C1259 1.433 . S
C1252 H1248 0.929 . S
C1252 C1254 1.378 . S
C1252 C1256 1.350 . S
C1253 C1256 1.463 . S
C1253 C1258 1.350 . S
C1253 N1261 1.427 . S
C1254 H1245 0.930 . S
C1254 C1252 1.378 . S
C1254 C1255 1.367 . S
C1255 C1254 1.367 . S
C1255 C1257 1.433 . S
C1256 C1252 1.350 . S
C1256 C1253 1.463 . S
C1256 N1260 1.427 . S
C1257 H1247 0.929 . S
C1257 C1255 1.433 . S
C1257 N1260 1.384 . S
C1258 H1249 0.929 . S
C1258 C1250 1.378 . S
C1258 C1253 1.350 . S
C1259 H1246 0.929 . S
C1259 C1251 1.433 . S
C1259 N1261 1.384 . S
N1260 C1256 1.427 . S
N1260 C1257 1.384 . S
N1261 C1253 1.427 . S
N1261 C1259 1.384 . S
H1262 C1268 0.930 . S
H1263 C1272 0.930 . S
H1264 C1277 0.929 . S
H1265 C1275 0.929 . S
H1266 C1270 0.929 . S
H1267 C1276 0.929 . S
C1268 H1262 0.930 . S
C1268 C1269 1.367 . S
C1268 C1276 1.378 . S
C1269 C1268 1.367 . S
C1269 C1277 1.433 . S
C1270 H1266 0.929 . S
C1270 C1272 1.378 . S
C1270 C1274 1.350 . S
C1271 C1274 1.463 . S
C1271 C1276 1.350 . S
C1271 N1279 1.427 . S
C1272 H1263 0.930 . S
C1272 C1270 1.378 . S
C1272 C1273 1.367 . S
C1273 C1272 1.367 . S
C1273 C1275 1.433 . S
C1274 C1270 1.350 . S
C1274 C1271 1.463 . S
C1274 N1278 1.427 . S
C1275 H1265 0.929 . S
C1275 C1273 1.433 . S
C1275 N1278 1.384 . S
C1276 H1267 0.929 . S
C1276 C1268 1.378 . S
C1276 C1271 1.350 . S
C1277 H1264 0.929 . S
C1277 C1269 1.433 . S
C1277 N1279 1.384 . S
N1278 C1274 1.427 . S
N1278 C1275 1.384 . S
N1279 C1271 1.427 . S
N1279 C1277 1.384 . S
H1280 C1286 0.930 . S
H1281 C1290 0.930 . S
H1282 C1295 0.929 . S
H1283 C1293 0.929 . S
H1284 C1288 0.929 . S
H1285 C1294 0.929 . S
C1286 H1280 0.930 . S
C1286 C1287 1.367 . S
C1286 C1294 1.378 . S
C1287 C1286 1.367 . S
C1287 C1295 1.433 . S
C1288 H1284 0.929 . S
C1288 C1290 1.378 . S
C1288 C1292 1.350 . S
C1289 C1292 1.463 . S
C1289 C1294 1.350 . S
C1289 N1297 1.427 . S
C1290 H1281 0.930 . S
C1290 C1288 1.378 . S
C1290 C1291 1.367 . S
C1291 C1290 1.367 . S
C1291 C1293 1.433 . S
C1292 C1288 1.350 . S
C1292 C1289 1.463 . S
C1292 N1296 1.427 . S
C1293 H1283 0.929 . S
C1293 C1291 1.433 . S
C1293 N1296 1.384 . S
C1294 H1285 0.929 . S
C1294 C1286 1.378 . S
C1294 C1289 1.350 . S
C1295 H1282 0.929 . S
C1295 C1287 1.433 . S
C1295 N1297 1.384 . S
N1296 C1292 1.427 . S
N1296 C1293 1.384 . S
N1297 C1289 1.427 . S
N1297 C1295 1.384 . S
H1298 C1304 0.930 . S
H1299 C1308 0.930 . S
H1300 C1313 0.929 . S
H1301 C1311 0.929 . S
H1302 C1306 0.929 . S
H1303 C1312 0.929 . S
C1304 H1298 0.930 . S
C1304 C1305 1.367 . S
C1304 C1312 1.378 . S
C1305 C1304 1.367 . S
C1305 C1313 1.433 . S
C1306 H1302 0.929 . S
C1306 C1308 1.378 . S
C1306 C1310 1.350 . S
C1307 C1310 1.463 . S
C1307 C1312 1.350 . S
C1307 N1315 1.427 . S
C1308 H1299 0.930 . S
C1308 C1306 1.378 . S
C1308 C1309 1.367 . S
C1309 C1308 1.367 . S
C1309 C1311 1.433 . S
C1310 C1306 1.350 . S
C1310 C1307 1.463 . S
C1310 N1314 1.427 . S
C1311 H1301 0.929 . S
C1311 C1309 1.433 . S
C1311 N1314 1.384 . S
C1312 H1303 0.929 . S
C1312 C1304 1.378 . S
C1312 C1307 1.350 . S
C1313 H1300 0.929 . S
C1313 C1305 1.433 . S
C1313 N1315 1.384 . S
N1314 C1310 1.427 . S
N1314 C1311 1.384 . S
N1315 C1307 1.427 . S
N1315 C1313 1.384 . S
H1316 C1322 0.930 . S
H1317 C1326 0.930 . S
H1318 C1331 0.929 . S
H1319 C1329 0.929 . S
H1320 C1324 0.929 . S
H1321 C1330 0.929 . S
C1322 H1316 0.930 . S
C1322 C1323 1.367 . S
C1322 C1330 1.378 . S
C1323 C1322 1.367 . S
C1323 C1331 1.433 . S
C1324 H1320 0.929 . S
C1324 C1326 1.378 . S
C1324 C1328 1.350 . S
C1325 C1328 1.463 . S
C1325 C1330 1.350 . S
C1325 N1333 1.427 . S
C1326 H1317 0.930 . S
C1326 C1324 1.378 . S
C1326 C1327 1.367 . S
C1327 C1326 1.367 . S
C1327 C1329 1.433 . S
C1328 C1324 1.350 . S
C1328 C1325 1.463 . S
C1328 N1332 1.427 . S
C1329 H1319 0.929 . S
C1329 C1327 1.433 . S
C1329 N1332 1.384 . S
C1330 H1321 0.929 . S
C1330 C1322 1.378 . S
C1330 C1325 1.350 . S
C1331 H1318 0.929 . S
C1331 C1323 1.433 . S
C1331 N1333 1.384 . S
N1332 C1328 1.427 . S
N1332 C1329 1.384 . S
N1333 C1325 1.427 . S
N1333 C1331 1.384 . S
H1334 C1340 0.930 . S
H1335 C1344 0.930 . S
H1336 C1349 0.929 . S
H1337 C1347 0.929 . S
H1338 C1342 0.929 . S
H1339 C1348 0.929 . S
C1340 H1334 0.930 . S
C1340 C1341 1.367 . S
C1340 C1348 1.378 . S
C1341 C1340 1.367 . S
C1341 C1349 1.433 . S
C1342 H1338 0.929 . S
C1342 C1344 1.378 . S
C1342 C1346 1.350 . S
C1343 C1346 1.463 . S
C1343 C1348 1.350 . S
C1343 N1351 1.427 . S
C1344 H1335 0.930 . S
C1344 C1342 1.378 . S
C1344 C1345 1.367 . S
C1345 C1344 1.367 . S
C1345 C1347 1.433 . S
C1346 C1342 1.350 . S
C1346 C1343 1.463 . S
C1346 N1350 1.427 . S
C1347 H1337 0.929 . S
C1347 C1345 1.433 . S
C1347 N1350 1.384 . S
C1348 H1339 0.929 . S
C1348 C1340 1.378 . S
C1348 C1343 1.350 . S
C1349 H1336 0.929 . S
C1349 C1341 1.433 . S
C1349 N1351 1.384 . S
N1350 C1346 1.427 . S
N1350 C1347 1.384 . S
N1351 C1343 1.427 . S
N1351 C1349 1.384 . S
H1352 C1358 0.930 . S
H1353 C1362 0.930 . S
H1354 C1367 0.929 . S
H1355 C1365 0.929 . S
H1356 C1360 0.929 . S
H1357 C1366 0.929 . S
C1358 H1352 0.930 . S
C1358 C1359 1.367 . S
C1358 C1366 1.378 . S
C1359 C1358 1.367 . S
C1359 C1367 1.433 . S
C1360 H1356 0.929 . S
C1360 C1362 1.378 . S
C1360 C1364 1.350 . S
C1361 C1364 1.463 . S
C1361 C1366 1.350 . S
C1361 N1369 1.427 . S
C1362 H1353 0.930 . S
C1362 C1360 1.378 . S
C1362 C1363 1.367 . S
C1363 C1362 1.367 . S
C1363 C1365 1.433 . S
C1364 C1360 1.350 . S
C1364 C1361 1.463 . S
C1364 N1368 1.427 . S
C1365 H1355 0.929 . S
C1365 C1363 1.433 . S
C1365 N1368 1.384 . S
C1366 H1357 0.929 . S
C1366 C1358 1.378 . S
C1366 C1361 1.350 . S
C1367 H1354 0.929 . S
C1367 C1359 1.433 . S
C1367 N1369 1.384 . S
N1368 C1364 1.427 . S
N1368 C1365 1.384 . S
N1369 C1361 1.427 . S
N1369 C1367 1.384 . S
H1370 C1376 0.930 . S
H1371 C1380 0.930 . S
H1372 C1385 0.929 . S
H1373 C1383 0.929 . S
H1374 C1378 0.929 . S
H1375 C1384 0.929 . S
C1376 H1370 0.930 . S
C1376 C1377 1.367 . S
C1376 C1384 1.378 . S
C1377 C1376 1.367 . S
C1377 C1385 1.433 . S
C1378 H1374 0.929 . S
C1378 C1380 1.378 . S
C1378 C1382 1.350 . S
C1379 C1382 1.463 . S
C1379 C1384 1.350 . S
C1379 N1387 1.427 . S
C1380 H1371 0.930 . S
C1380 C1378 1.378 . S
C1380 C1381 1.367 . S
C1381 C1380 1.367 . S
C1381 C1383 1.433 . S
C1382 C1378 1.350 . S
C1382 C1379 1.463 . S
C1382 N1386 1.427 . S
C1383 H1373 0.929 . S
C1383 C1381 1.433 . S
C1383 N1386 1.384 . S
C1384 H1375 0.929 . S
C1384 C1376 1.378 . S
C1384 C1379 1.350 . S
C1385 H1372 0.929 . S
C1385 C1377 1.433 . S
C1385 N1387 1.384 . S
N1386 C1382 1.427 . S
N1386 C1383 1.384 . S
N1387 C1379 1.427 . S
N1387 C1385 1.384 . S
H1388 C1394 0.930 . S
H1389 C1398 0.930 . S
H1390 C1403 0.929 . S
H1391 C1401 0.929 . S
H1392 C1396 0.929 . S
H1393 C1402 0.929 . S
C1394 H1388 0.930 . S
C1394 C1395 1.367 . S
C1394 C1402 1.378 . S
C1395 C1394 1.367 . S
C1395 C1403 1.433 . S
C1396 H1392 0.929 . S
C1396 C1398 1.378 . S
C1396 C1400 1.350 . S
C1397 C1400 1.463 . S
C1397 C1402 1.350 . S
C1397 N1405 1.427 . S
C1398 H1389 0.930 . S
C1398 C1396 1.378 . S
C1398 C1399 1.367 . S
C1399 C1398 1.367 . S
C1399 C1401 1.433 . S
C1400 C1396 1.350 . S
C1400 C1397 1.463 . S
C1400 N1404 1.427 . S
C1401 H1391 0.929 . S
C1401 C1399 1.433 . S
C1401 N1404 1.384 . S
C1402 H1393 0.929 . S
C1402 C1394 1.378 . S
C1402 C1397 1.350 . S
C1403 H1390 0.929 . S
C1403 C1395 1.433 . S
C1403 N1405 1.384 . S
N1404 C1400 1.427 . S
N1404 C1401 1.384 . S
N1405 C1397 1.427 . S
N1405 C1403 1.384 . S
H1406 C1412 0.930 . S
H1407 C1416 0.930 . S
H1408 C1421 0.929 . S
H1409 C1419 0.929 . S
H1410 C1414 0.929 . S
H1411 C1420 0.929 . S
C1412 H1406 0.930 . S
C1412 C1413 1.367 . S
C1412 C1420 1.378 . S
C1413 C1412 1.367 . S
C1413 C1421 1.433 . S
C1414 H1410 0.929 . S
C1414 C1416 1.378 . S
C1414 C1418 1.350 . S
C1415 C1418 1.463 . S
C1415 C1420 1.350 . S
C1415 N1423 1.427 . S
C1416 H1407 0.930 . S
C1416 C1414 1.378 . S
C1416 C1417 1.367 . S
C1417 C1416 1.367 . S
C1417 C1419 1.433 . S
C1418 C1414 1.350 . S
C1418 C1415 1.463 . S
C1418 N1422 1.427 . S
C1419 H1409 0.929 . S
C1419 C1417 1.433 . S
C1419 N1422 1.384 . S
C1420 H1411 0.929 . S
C1420 C1412 1.378 . S
C1420 C1415 1.350 . S
C1421 H1408 0.929 . S
C1421 C1413 1.433 . S
C1421 N1423 1.384 . S
N1422 C1418 1.427 . S
N1422 C1419 1.384 . S
N1423 C1415 1.427 . S
N1423 C1421 1.384 . S
H1424 C1430 0.930 . S
H1425 C1434 0.930 . S
H1426 C1439 0.929 . S
H1427 C1437 0.929 . S
H1428 C1432 0.929 . S
H1429 C1438 0.929 . S
C1430 H1424 0.930 . S
C1430 C1431 1.367 . S
C1430 C1438 1.378 . S
C1431 C1430 1.367 . S
C1431 C1439 1.433 . S
C1432 H1428 0.929 . S
C1432 C1434 1.378 . S
C1432 C1436 1.350 . S
C1433 C1436 1.463 . S
C1433 C1438 1.350 . S
C1433 N1441 1.427 . S
C1434 H1425 0.930 . S
C1434 C1432 1.378 . S
C1434 C1435 1.367 . S
C1435 C1434 1.367 . S
C1435 C1437 1.433 . S
C1436 C1432 1.350 . S
C1436 C1433 1.463 . S
C1436 N1440 1.427 . S
C1437 H1427 0.929 . S
C1437 C1435 1.433 . S
C1437 N1440 1.384 . S
C1438 H1429 0.929 . S
C1438 C1430 1.378 . S
C1438 C1433 1.350 . S
C1439 H1426 0.929 . S
C1439 C1431 1.433 . S
C1439 N1441 1.384 . S
N1440 C1436 1.427 . S
N1440 C1437 1.384 . S
N1441 C1433 1.427 . S
N1441 C1439 1.384 . S
H1442 C1448 0.930 . S
H1443 C1452 0.930 . S
H1444 C1457 0.929 . S
H1445 C1455 0.929 . S
H1446 C1450 0.929 . S
H1447 C1456 0.929 . S
C1448 H1442 0.930 . S
C1448 C1449 1.367 . S
C1448 C1456 1.378 . S
C1449 C1448 1.367 . S
C1449 C1457 1.433 . S
C1450 H1446 0.929 . S
C1450 C1452 1.378 . S
C1450 C1454 1.350 . S
C1451 C1454 1.463 . S
C1451 C1456 1.350 . S
C1451 N1459 1.427 . S
C1452 H1443 0.930 . S
C1452 C1450 1.378 . S
C1452 C1453 1.367 . S
C1453 C1452 1.367 . S
C1453 C1455 1.433 . S
C1454 C1450 1.350 . S
C1454 C1451 1.463 . S
C1454 N1458 1.427 . S
C1455 H1445 0.929 . S
C1455 C1453 1.433 . S
C1455 N1458 1.384 . S
C1456 H1447 0.929 . S
C1456 C1448 1.378 . S
C1456 C1451 1.350 . S
C1457 H1444 0.929 . S
C1457 C1449 1.433 . S
C1457 N1459 1.384 . S
N1458 C1454 1.427 . S
N1458 C1455 1.384 . S
N1459 C1451 1.427 . S
N1459 C1457 1.384 . S
H1460 C1466 0.930 . S
H1461 C1470 0.930 . S
H1462 C1475 0.929 . S
H1463 C1473 0.929 . S
H1464 C1468 0.929 . S
H1465 C1474 0.929 . S
C1466 H1460 0.930 . S
C1466 C1467 1.367 . S
C1466 C1474 1.378 . S
C1467 C1466 1.367 . S
C1467 C1475 1.433 . S
C1468 H1464 0.929 . S
C1468 C1470 1.378 . S
C1468 C1472 1.350 . S
C1469 C1472 1.463 . S
C1469 C1474 1.350 . S
C1469 N1477 1.427 . S
C1470 H1461 0.930 . S
C1470 C1468 1.378 . S
C1470 C1471 1.367 . S
C1471 C1470 1.367 . S
C1471 C1473 1.433 . S
C1472 C1468 1.350 . S
C1472 C1469 1.463 . S
C1472 N1476 1.427 . S
C1473 H1463 0.929 . S
C1473 C1471 1.433 . S
C1473 N1476 1.384 . S
C1474 H1465 0.929 . S
C1474 C1466 1.378 . S
C1474 C1469 1.350 . S
C1475 H1462 0.929 . S
C1475 C1467 1.433 . S
C1475 N1477 1.384 . S
N1476 C1472 1.427 . S
N1476 C1473 1.384 . S
N1477 C1469 1.427 . S
N1477 C1475 1.384 . S
H1478 C1484 0.930 . S
H1479 C1488 0.930 . S
H1480 C1493 0.929 . S
H1481 C1491 0.929 . S
H1482 C1486 0.929 . S
H1483 C1492 0.929 . S
C1484 H1478 0.930 . S
C1484 C1485 1.367 . S
C1484 C1492 1.378 . S
C1485 C1484 1.367 . S
C1485 C1493 1.433 . S
C1486 H1482 0.929 . S
C1486 C1488 1.378 . S
C1486 C1490 1.350 . S
C1487 C1490 1.463 . S
C1487 C1492 1.350 . S
C1487 N1495 1.427 . S
C1488 H1479 0.930 . S
C1488 C1486 1.378 . S
C1488 C1489 1.367 . S
C1489 C1488 1.367 . S
C1489 C1491 1.433 . S
C1490 C1486 1.350 . S
C1490 C1487 1.463 . S
C1490 N1494 1.427 . S
C1491 H1481 0.929 . S
C1491 C1489 1.433 . S
C1491 N1494 1.384 . S
C1492 H1483 0.929 . S
C1492 C1484 1.378 . S
C1492 C1487 1.350 . S
C1493 H1480 0.929 . S
C1493 C1485 1.433 . S
C1493 N1495 1.384 . S
N1494 C1490 1.427 . S
N1494 C1491 1.384 . S
N1495 C1487 1.427 . S
N1495 C1493 1.384 . S
H1496 C1502 0.930 . S
H1497 C1506 0.930 . S
H1498 C1511 0.929 . S
H1499 C1509 0.929 . S
H1500 C1504 0.929 . S
H1501 C1510 0.929 . S
C1502 H1496 0.930 . S
C1502 C1503 1.367 . S
C1502 C1510 1.378 . S
C1503 C1502 1.367 . S
C1503 C1511 1.433 . S
C1504 H1500 0.929 . S
C1504 C1506 1.378 . S
C1504 C1508 1.350 . S
C1505 C1508 1.463 . S
C1505 C1510 1.350 . S
C1505 N1513 1.427 . S
C1506 H1497 0.930 . S
C1506 C1504 1.378 . S
C1506 C1507 1.367 . S
C1507 C1506 1.367 . S
C1507 C1509 1.433 . S
C1508 C1504 1.350 . S
C1508 C1505 1.463 . S
C1508 N1512 1.427 . S
C1509 H1499 0.929 . S
C1509 C1507 1.433 . S
C1509 N1512 1.384 . S
C1510 H1501 0.929 . S
C1510 C1502 1.378 . S
C1510 C1505 1.350 . S
C1511 H1498 0.929 . S
C1511 C1503 1.433 . S
C1511 N1513 1.384 . S
N1512 C1508 1.427 . S
N1512 C1509 1.384 . S
N1513 C1505 1.427 . S
N1513 C1511 1.384 . S
H1514 C1520 0.930 . S
H1515 C1524 0.930 . S
H1516 C1529 0.929 . S
H1517 C1527 0.929 . S
H1518 C1522 0.929 . S
H1519 C1528 0.929 . S
C1520 H1514 0.930 . S
C1520 C1521 1.367 . S
C1520 C1528 1.378 . S
C1521 C1520 1.367 . S
C1521 C1529 1.433 . S
C1522 H1518 0.929 . S
C1522 C1524 1.378 . S
C1522 C1526 1.350 . S
C1523 C1526 1.463 . S
C1523 C1528 1.350 . S
C1523 N1531 1.427 . S
C1524 H1515 0.930 . S
C1524 C1522 1.378 . S
C1524 C1525 1.367 . S
C1525 C1524 1.367 . S
C1525 C1527 1.433 . S
C1526 C1522 1.350 . S
C1526 C1523 1.463 . S
C1526 N1530 1.427 . S
C1527 H1517 0.929 . S
C1527 C1525 1.433 . S
C1527 N1530 1.384 . S
C1528 H1519 0.929 . S
C1528 C1520 1.378 . S
C1528 C1523 1.350 . S
C1529 H1516 0.929 . S
C1529 C1521 1.433 . S
C1529 N1531 1.384 . S
N1530 C1526 1.427 . S
N1530 C1527 1.384 . S
N1531 C1523 1.427 . S
N1531 C1529 1.384 . S
H1532 C1538 0.930 . S
H1533 C1542 0.930 . S
H1534 C1547 0.929 . S
H1535 C1545 0.929 . S
H1536 C1540 0.929 . S
H1537 C1546 0.929 . S
C1538 H1532 0.930 . S
C1538 C1539 1.367 . S
C1538 C1546 1.378 . S
C1539 C1538 1.367 . S
C1539 C1547 1.433 . S
C1540 H1536 0.929 . S
C1540 C1542 1.378 . S
C1540 C1544 1.350 . S
C1541 C1544 1.463 . S
C1541 C1546 1.350 . S
C1541 N1549 1.427 . S
C1542 H1533 0.930 . S
C1542 C1540 1.378 . S
C1542 C1543 1.367 . S
C1543 C1542 1.367 . S
C1543 C1545 1.433 . S
C1544 C1540 1.350 . S
C1544 C1541 1.463 . S
C1544 N1548 1.427 . S
C1545 H1535 0.929 . S
C1545 C1543 1.433 . S
C1545 N1548 1.384 . S
C1546 H1537 0.929 . S
C1546 C1538 1.378 . S
C1546 C1541 1.350 . S
C1547 H1534 0.929 . S
C1547 C1539 1.433 . S
C1547 N1549 1.384 . S
N1548 C1544 1.427 . S
N1548 C1545 1.384 . S
N1549 C1541 1.427 . S
N1549 C1547 1.384 . S
H1550 C1556 0.930 . S
H1551 C1560 0.930 . S
H1552 C1565 0.929 . S
H1553 C1563 0.929 . S
H1554 C1558 0.929 . S
H1555 C1564 0.929 . S
C1556 H1550 0.930 . S
C1556 C1557 1.367 . S
C1556 C1564 1.378 . S
C1557 C1556 1.367 . S
C1557 C1565 1.433 . S
C1558 H1554 0.929 . S
C1558 C1560 1.378 . S
C1558 C1562 1.350 . S
C1559 C1562 1.463 . S
C1559 C1564 1.350 . S
C1559 N1567 1.427 . S
C1560 H1551 0.930 . S
C1560 C1558 1.378 . S
C1560 C1561 1.367 . S
C1561 C1560 1.367 . S
C1561 C1563 1.433 . S
C1562 C1558 1.350 . S
C1562 C1559 1.463 . S
C1562 N1566 1.427 . S
C1563 H1553 0.929 . S
C1563 C1561 1.433 . S
C1563 N1566 1.384 . S
C1564 H1555 0.929 . S
C1564 C1556 1.378 . S
C1564 C1559 1.350 . S
C1565 H1552 0.929 . S
C1565 C1557 1.433 . S
C1565 N1567 1.384 . S
N1566 C1562 1.427 . S
N1566 C1563 1.384 . S
N1567 C1559 1.427 . S
N1567 C1565 1.384 . S
C423 C30 0.753 . S
C427 C4 0.746 . S
C441 C23 0.731 . S
C445 C43 0.729 . S
C459 C82 0.738 . S
C463 C56 0.731 . S
C477 C95 0.755 . S
C481 C69 0.749 . S
C495 C108 0.733 1_545 S
C499 C140 0.755 . S
C513 C153 0.735 1_545 S
C517 C121 0.755 . S
C531 C160 0.712 1_565 S
C535 C192 0.733 . S
C549 C173 0.754 . S
C553 C199 0.732 1_565 S
C567 C238 0.736 . S
C571 C212 0.730 . S
C585 C225 0.741 . S
C589 C251 0.750 . S
C603 C264 0.730 . S
C607 C290 0.736 . S
C621 C303 0.736 . S
C625 C283 0.746 . S
C639 C348 0.750 . S
C643 C322 0.739 1_545 S
C657 C361 0.716 1_545 S
C661 C335 0.729 . S
C675 C400 0.755 . S
C679 C368 0.736 1_565 S
C693 C381 0.755 . S
C697 C407 0.735 1_565 S
C711 C62 1.578 . S
C715 C10 1.578 . S
C729 C387 1.579 . S
C733 C17 1.579 . S
C747 C36 1.584 . S
C751 C186 1.584 . S
C765 C49 1.584 . S
C769 C309 1.584 . S
C783 C75 1.575 . S
C787 C329 1.575 . S
C801 C88 1.582 . S
C805 C134 1.582 . S
C819 C257 1.578 . S
C823 C101 1.578 . S
C837 C166 1.576 . S
C841 C114 1.576 . S
C855 C277 1.584 . S
C859 C127 1.584 . S
C873 C147 1.582 . S
C877 C413 1.582 . S
C891 C179 1.576 . S
C895 C231 1.576 . S
C909 C355 1.584 . S
C913 C205 1.584 . S
C927 C270 1.576 . S
C931 C218 1.576 . S
C945 C244 1.575 . S
C949 C394 1.575 . S
C963 C296 1.579 . S
C967 C342 1.579 . S
C981 C374 1.574 . S
C985 C316 1.574 . S
C999 C42 1.558 . S
C1003 C3 1.554 . S
C1017 C29 1.557 . S
C1021 C18 1.554 . S
C1035 C94 1.556 . S
C1039 C55 1.559 . S
C1053 C81 1.554 . S
C1057 C68 1.554 . S
C1071 C148 1.558 . S
C1075 C107 1.554 . S
C1089 C135 1.560 . S
C1093 C120 1.556 . S
C1107 C198 1.554 . S
C1111 C159 1.558 . S
C1125 C187 1.559 . S
C1129 C172 1.559 . S
C1143 C211 1.559 . S
C1147 C250 1.556 . S
C1161 C237 1.554 . S
C1165 C224 1.557 . S
C1179 C263 1.556 . S
C1183 C302 1.553 . S
C1197 C289 1.559 . S
C1201 C278 1.555 . S
C1215 C356 1.554 . S
C1219 C317 1.556 . S
C1233 C330 1.554 . S
C1237 C343 1.557 . S
C1251 C367 1.556 . S
C1255 C406 1.560 . S
C1269 C395 1.558 . S
C1273 C380 1.554 . S
C1287 C31 1.437 1_545 S
C1291 C5 1.439 . S
C1305 C16 1.444 1_545 S
C1309 C44 1.441 . S
C1323 C57 1.439 . S
C1327 C83 1.444 1_565 S
C1341 C70 1.437 1_565 S
C1345 C96 1.441 . S
C1359 C109 1.443 . S
C1363 C133 1.443 . S
C1377 C122 1.439 . S
C1381 C146 1.437 . S
C1395 C185 1.442 . S
C1399 C161 1.437 . S
C1413 C200 1.444 . S
C1417 C174 1.439 . S
C1431 C239 1.438 1_545 S
C1435 C213 1.444 . S
C1449 C252 1.441 . S
C1453 C226 1.444 1_545 S
C1467 C265 1.442 . S
C1471 C291 1.444 1_565 S
C1485 C304 1.440 . S
C1489 C276 1.444 1_565 S
C1503 C341 1.444 . S
C1507 C315 1.441 . S
C1521 C328 1.436 . S
C1525 C354 1.440 . S
C1539 C369 1.439 . S
C1543 C393 1.437 . S
C1557 C408 1.439 . S
C1561 C382 1.436 . S
