# Generated by pormake.
# Topology wkp, (6)-cn, num edge types: 1
# Building blocks:
#     Node 0, Type 0, BuildingBlock: OJICUG_clean_sbu_0, # of connection points: 6
#     Node 1, Type 0, BuildingBlock: OJICUG_clean_sbu_0, # of connection points: 6
#     Node 2, Type 0, BuildingBlock: OJICUG_clean_sbu_0, # of connection points: 6
#     Node 3, Type 0, BuildingBlock: OJICUG_clean_sbu_0, # of connection points: 6
#     Node 4, Type 0, BuildingBlock: OJICUG_clean_sbu_0, # of connection points: 6
#     Node 5, Type 0, BuildingBlock: OJICUG_clean_sbu_0, # of connection points: 6
#     Node 6, Type 0, BuildingBlock: OJICUG_clean_sbu_0, # of connection points: 6
#     Node 7, Type 0, BuildingBlock: OJICUG_clean_sbu_0, # of connection points: 6
#     Node 8, Type 0, BuildingBlock: OJICUG_clean_sbu_0, # of connection points: 6
#     Node 9, Type 0, BuildingBlock: OJICUG_clean_sbu_0, # of connection points: 6
#     Node 10, Type 0, BuildingBlock: OJICUG_clean_sbu_0, # of connection points: 6
#     Node 11, Type 0, BuildingBlock: OJICUG_clean_sbu_0, # of connection points: 6
#     Edge 12, Type (0, 0), BuildingBlock: CIFDUS_clean_linker_0, # of connection points: 2
#     Edge 13, Type (0, 0), BuildingBlock: CIFDUS_clean_linker_0, # of connection points: 2
#     Edge 14, Type (0, 0), BuildingBlock: CIFDUS_clean_linker_0, # of connection points: 2
#     Edge 15, Type (0, 0), BuildingBlock: CIFDUS_clean_linker_0, # of connection points: 2
#     Edge 16, Type (0, 0), BuildingBlock: CIFDUS_clean_linker_0, # of connection points: 2
#     Edge 17, Type (0, 0), BuildingBlock: CIFDUS_clean_linker_0, # of connection points: 2
#     Edge 18, Type (0, 0), BuildingBlock: CIFDUS_clean_linker_0, # of connection points: 2
#     Edge 19, Type (0, 0), BuildingBlock: CIFDUS_clean_linker_0, # of connection points: 2
#     Edge 20, Type (0, 0), BuildingBlock: CIFDUS_clean_linker_0, # of connection points: 2
#     Edge 21, Type (0, 0), BuildingBlock: CIFDUS_clean_linker_0, # of connection points: 2
#     Edge 22, Type (0, 0), BuildingBlock: CIFDUS_clean_linker_0, # of connection points: 2
#     Edge 23, Type (0, 0), BuildingBlock: CIFDUS_clean_linker_0, # of connection points: 2
#     Edge 24, Type (0, 0), BuildingBlock: CIFDUS_clean_linker_0, # of connection points: 2
#     Edge 25, Type (0, 0), BuildingBlock: CIFDUS_clean_linker_0, # of connection points: 2
#     Edge 26, Type (0, 0), BuildingBlock: CIFDUS_clean_linker_0, # of connection points: 2
#     Edge 27, Type (0, 0), BuildingBlock: CIFDUS_clean_linker_0, # of connection points: 2
#     Edge 28, Type (0, 0), BuildingBlock: CIFDUS_clean_linker_0, # of connection points: 2
#     Edge 29, Type (0, 0), BuildingBlock: CIFDUS_clean_linker_0, # of connection points: 2
#     Edge 30, Type (0, 0), BuildingBlock: CIFDUS_clean_linker_0, # of connection points: 2
#     Edge 31, Type (0, 0), BuildingBlock: CIFDUS_clean_linker_0, # of connection points: 2
#     Edge 32, Type (0, 0), BuildingBlock: CIFDUS_clean_linker_0, # of connection points: 2
#     Edge 33, Type (0, 0), BuildingBlock: CIFDUS_clean_linker_0, # of connection points: 2
#     Edge 34, Type (0, 0), BuildingBlock: CIFDUS_clean_linker_0, # of connection points: 2
#     Edge 35, Type (0, 0), BuildingBlock: CIFDUS_clean_linker_0, # of connection points: 2
#     Edge 36, Type (0, 0), BuildingBlock: CIFDUS_clean_linker_0, # of connection points: 2
#     Edge 37, Type (0, 0), BuildingBlock: CIFDUS_clean_linker_0, # of connection points: 2
#     Edge 38, Type (0, 0), BuildingBlock: CIFDUS_clean_linker_0, # of connection points: 2
#     Edge 39, Type (0, 0), BuildingBlock: CIFDUS_clean_linker_0, # of connection points: 2
#     Edge 40, Type (0, 0), BuildingBlock: CIFDUS_clean_linker_0, # of connection points: 2
#     Edge 41, Type (0, 0), BuildingBlock: CIFDUS_clean_linker_0, # of connection points: 2
#     Edge 42, Type (0, 0), BuildingBlock: CIFDUS_clean_linker_0, # of connection points: 2
#     Edge 43, Type (0, 0), BuildingBlock: CIFDUS_clean_linker_0, # of connection points: 2
#     Edge 44, Type (0, 0), BuildingBlock: CIFDUS_clean_linker_0, # of connection points: 2
#     Edge 45, Type (0, 0), BuildingBlock: CIFDUS_clean_linker_0, # of connection points: 2
#     Edge 46, Type (0, 0), BuildingBlock: CIFDUS_clean_linker_0, # of connection points: 2
#     Edge 47, Type (0, 0), BuildingBlock: CIFDUS_clean_linker_0, # of connection points: 2
# Relax obj value: 0.288
# Max RMSD: 0.309
# Mean RMSD: 0.309
data_MOF--net-wkp--node1-OJICUG_clean_sbu_0--edge1-CIFDUS_clean_linker_0
_symmetry_space_group_name_H-M    P1
_symmetry_Int_Tables_number       1
_symmetry_cell_setting            triclinic
loop_
_symmetry_equiv_pos_as_xyz
'x, y, z'
_cell_length_a     38.712554
_cell_length_b     38.77003
_cell_length_c     27.162119
_cell_angle_alpha  89.781603
_cell_angle_beta   89.888564
_cell_angle_gamma 119.88301
loop_
_atom_site_label
_atom_site_type_symbol
_atom_site_fract_x
_atom_site_fract_y
_atom_site_fract_z
_atom_type_partial_charge
Sc0 Sc 0.21543 0.43326 0.00448 0.0
Sc1 Sc 0.19409 0.33388 0.00282 0.0
Sc2 Sc 0.27861 0.40558 0.06462 0.0
O3 O 0.22932 0.39091 0.02415 0.0
C4 C 0.31034 0.48025 0.99323 0.0
C5 C 0.19363 0.38259 0.90757 0.0
C6 C 0.27999 0.34583 0.985 0.0
C7 C 0.12991 0.35772 0.02891 0.0
C8 C 0.24123 0.45388 0.11608 0.0
C9 C 0.22019 0.32068 0.10958 0.0
O10 O 0.27646 0.47745 0.98729 0.0
O11 O 0.18451 0.35083 0.93116 0.0
O12 O 0.29656 0.37137 0.01904 0.0
O13 O 0.15245 0.39429 0.01816 0.0
O14 O 0.26526 0.44044 0.1146 0.0
O15 O 0.19955 0.30774 0.07072 0.0
O16 O 0.22028 0.45272 0.07944 0.0
O17 O 0.14163 0.3324 0.02978 0.0
O18 O 0.24767 0.35651 0.11457 0.0
O19 O 0.20869 0.41644 0.92805 0.0
O20 O 0.31524 0.45568 0.01894 0.0
O21 O 0.24368 0.33152 0.97331 0.0
Sc22 Sc 0.8509 0.27417 0.21182 0.0
Sc23 Sc 0.8469 0.19665 0.14334 0.0
Sc24 Sc 0.7622 0.20556 0.15383 0.0
O25 O 0.81989 0.2255 0.17012 0.0
C26 C 0.76584 0.22788 0.2659 0.0
C27 C 0.89274 0.22788 0.24594 0.0
C28 C 0.76568 0.12582 0.17555 0.0
C29 C 0.91205 0.28467 0.12512 0.0
C30 C 0.79851 0.29953 0.14851 0.0
C31 C 0.79093 0.18958 0.05412 0.0
O32 O 0.80203 0.25574 0.26316 0.0
O33 O 0.88751 0.21124 0.20433 0.0
O34 O 0.74764 0.14428 0.16235 0.0
O35 O 0.9032 0.29657 0.16446 0.0
O36 O 0.76986 0.26416 0.14361 0.0
O37 O 0.81317 0.17923 0.07627 0.0
O38 O 0.83113 0.30764 0.16913 0.0
O39 O 0.89043 0.2499 0.10783 0.0
O40 O 0.77333 0.20527 0.07629 0.0
O41 O 0.8742 0.24569 0.25886 0.0
O42 O 0.74751 0.20499 0.23012 0.0
O43 O 0.8035 0.14228 0.17769 0.0
Sc44 Sc 0.53611 0.76507 0.33605 0.0
Sc45 Sc 0.63105 0.84352 0.30823 0.0
Sc46 Sc 0.5633 0.86206 0.36929 0.0
O47 O 0.57671 0.82348 0.33804 0.0
C48 C 0.48313 0.80551 0.31569 0.0
C49 C 0.57488 0.77726 0.23201 0.0
C50 C 0.61456 0.90982 0.27409 0.0
C51 C 0.61818 0.76645 0.35926 0.0
C52 C 0.52355 0.78773 0.44328 0.0
C53 C 0.6514 0.90118 0.40071 0.0
O54 O 0.4865 0.77484 0.32255 0.0
O55 O 0.60911 0.80058 0.24966 0.0
O56 O 0.59532 0.90709 0.31344 0.0
O57 O 0.58103 0.74808 0.3494 0.0
O58 O 0.5311 0.82221 0.42938 0.0
O59 O 0.66122 0.89115 0.36089 0.0
O60 O 0.52708 0.76362 0.41474 0.0
O61 O 0.64043 0.80376 0.35323 0.0
O62 O 0.61545 0.88647 0.41455 0.0
O63 O 0.54295 0.76432 0.25702 0.0
O64 O 0.51053 0.84044 0.32619 0.0
O65 O 0.62418 0.88414 0.26177 0.0
Sc66 Sc 0.689 0.57193 0.56939 0.0
Sc67 Sc 0.77626 0.63854 0.50573 0.0
Sc68 Sc 0.75673 0.54126 0.53278 0.0
O69 O 0.74085 0.58409 0.53621 0.0
C70 C 0.72325 0.53062 0.64179 0.0
C71 C 0.74922 0.65998 0.60624 0.0
C72 C 0.84165 0.61894 0.54625 0.0
C73 C 0.69075 0.627 0.4813 0.0
C74 C 0.66312 0.49125 0.51436 0.0
C75 C 0.77389 0.57783 0.42408 0.0
O76 O 0.69878 0.54209 0.63008 0.0
O77 O 0.77339 0.66976 0.57011 0.0
O78 O 0.81863 0.58157 0.54732 0.0
O79 O 0.6722 0.60072 0.51409 0.0
O80 O 0.6973 0.49448 0.51739 0.0
O81 O 0.77999 0.61168 0.4383 0.0
O82 O 0.65565 0.51785 0.52919 0.0
O83 O 0.72786 0.64228 0.47389 0.0
O84 O 0.76576 0.54912 0.45369 0.0
O85 O 0.71828 0.62591 0.61112 0.0
O86 O 0.74823 0.53042 0.61134 0.0
O87 O 0.83014 0.64302 0.5333 0.0
Sc88 Sc 0.20221 0.73829 0.70123 0.0
Sc89 Sc 0.1297 0.76678 0.6843 0.0
Sc90 Sc 0.106 0.68029 0.75213 0.0
O91 O 0.14591 0.72847 0.71262 0.0
C92 C 0.15014 0.64444 0.68927 0.0
C93 C 0.18359 0.76265 0.59735 0.0
C94 C 0.0526 0.68311 0.66432 0.0
C95 C 0.21723 0.82535 0.72193 0.0
C96 C 0.18619 0.71232 0.81422 0.0
C97 C 0.08187 0.74391 0.78599 0.0
O98 O 0.18183 0.67755 0.68336 0.0
O99 O 0.15888 0.77158 0.61558 0.0
O100 O 0.0591 0.66495 0.69907 0.0
O101 O 0.22899 0.80027 0.71771 0.0
O102 O 0.14849 0.69202 0.80997 0.0
O103 O 0.09614 0.76587 0.7481 0.0
O104 O 0.20927 0.72983 0.77799 0.0
O105 O 0.18188 0.81762 0.71278 0.0
O106 O 0.08534 0.71349 0.79404 0.0
O107 O 0.20124 0.74873 0.62315 0.0
O108 O 0.12046 0.64073 0.71366 0.0
O109 O 0.07629 0.7194 0.65355 0.0
Sc110 Sc 0.39178 0.10372 0.88838 0.0
Sc111 Sc 0.32863 0.12335 0.81861 0.0
Sc112 Sc 0.42656 0.19906 0.83854 0.0
O113 O 0.38254 0.1423 0.84868 0.0
C114 C 0.43924 0.18394 0.95077 0.0
C115 C 0.30481 0.07342 0.92 0.0
C116 C 0.34871 0.20616 0.85933 0.0
C117 C 0.33949 0.05143 0.79696 0.0
C118 C 0.47114 0.14881 0.82648 0.0
C119 C 0.38582 0.1824 0.73419 0.0
O120 O 0.42653 0.14711 0.9437 0.0
O121 O 0.29607 0.081 0.87766 0.0
O122 O 0.38591 0.22153 0.85047 0.0
O123 O 0.35701 0.05508 0.83798 0.0
O124 O 0.47078 0.1815 0.82527 0.0
O125 O 0.35182 0.16012 0.75357 0.0
O126 O 0.44342 0.11723 0.84586 0.0
O127 O 0.33226 0.07774 0.78018 0.0
O128 O 0.41786 0.19636 0.75898 0.0
O129 O 0.34052 0.08725 0.93387 0.0
O130 O 0.43913 0.20682 0.91701 0.0
O131 O 0.32374 0.16924 0.85508 0.0
Sc132 Sc 0.56477 0.69244 0.79586 0.0
Sc133 Sc 0.63142 0.77965 0.858 0.0
Sc134 Sc 0.53426 0.76066 0.83097 0.0
O135 O 0.57696 0.74441 0.82803 0.0
C136 C 0.52458 0.72729 0.72233 0.0
C137 C 0.65345 0.75282 0.75831 0.0
C138 C 0.61235 0.84579 0.81773 0.0
C139 C 0.61975 0.69384 0.88333 0.0
C140 C 0.48271 0.66672 0.84937 0.0
C141 C 0.57013 0.77655 0.93969 0.0
O142 O 0.53636 0.70313 0.73444 0.0
O143 O 0.66282 0.77782 0.79308 0.0
O144 O 0.57493 0.82277 0.8156 0.0
O145 O 0.59233 0.67492 0.8522 0.0
O146 O 0.48675 0.70125 0.84701 0.0
O147 O 0.60395 0.78214 0.92558 0.0
O148 O 0.50937 0.65912 0.83475 0.0
O149 O 0.63574 0.73113 0.88899 0.0
O150 O 0.54186 0.76953 0.91001 0.0
O151 O 0.61972 0.72127 0.7549 0.0
O152 O 0.52373 0.75201 0.75245 0.0
O153 O 0.636 0.83394 0.83149 0.0
Sc154 Sc 0.76816 0.54654 0.02759 0.0
Sc155 Sc 0.84302 0.64338 0.05351 0.0
Sc156 Sc 0.86586 0.58138 0.98761 0.0
O157 O 0.8254 0.59012 0.0227 0.0
C158 C 0.81663 0.50062 0.04512 0.0
C159 C 0.77889 0.58532 0.13118 0.0
C160 C 0.91173 0.62981 0.08408 0.0
C161 C 0.76397 0.62617 0.00399 0.0
C162 C 0.78974 0.53576 0.91829 0.0
C163 C 0.9007 0.66885 0.95974 0.0
O164 O 0.78374 0.50066 0.0423 0.0
O165 O 0.80018 0.61969 0.11257 0.0
O166 O 0.91071 0.61409 0.04257 0.0
O167 O 0.7474 0.5889 0.0137 0.0
O168 O 0.82593 0.54799 0.92914 0.0
O169 O 0.89111 0.67644 0.00135 0.0
O170 O 0.76488 0.53593 0.949 0.0
O171 O 0.80111 0.65016 0.00964 0.0
O172 O 0.88497 0.63373 0.9433 0.0
O173 O 0.76792 0.55367 0.10672 0.0
O174 O 0.84946 0.52907 0.02955 0.0
O175 O 0.88482 0.63723 0.09842 0.0
Sc176 Sc 0.26638 0.86691 0.1417 0.0
Sc177 Sc 0.19185 0.85795 0.22005 0.0
Sc178 Sc 0.2075 0.77783 0.20618 0.0
O179 O 0.22191 0.8339 0.18886 0.0
C180 C 0.22389 0.78068 0.0917 0.0
C181 C 0.21404 0.90278 0.11544 0.0
C182 C 0.1236 0.77527 0.19157 0.0
C183 C 0.27829 0.92541 0.23174 0.0
C184 C 0.30266 0.82278 0.20225 0.0
C185 C 0.19182 0.80346 0.30789 0.0
O186 O 0.24918 0.81782 0.09114 0.0
O187 O 0.20201 0.89916 0.15974 0.0
O188 O 0.14437 0.75897 0.20237 0.0
O189 O 0.28767 0.91945 0.18863 0.0
O190 O 0.26911 0.79201 0.21146 0.0
O191 O 0.17831 0.82361 0.28702 0.0
O192 O 0.30605 0.85303 0.17964 0.0
O193 O 0.24537 0.90178 0.25251 0.0
O194 O 0.20947 0.78867 0.28402 0.0
O195 O 0.23016 0.88354 0.0993 0.0
O196 O 0.20456 0.76229 0.13008 0.0
O197 O 0.13786 0.81277 0.18894 0.0
Sc198 Sc 0.44747 0.23691 0.33276 0.0
Sc199 Sc 0.3456 0.20299 0.35568 0.0
Sc200 Sc 0.40477 0.29411 0.29433 0.0
O201 O 0.39918 0.24457 0.32751 0.0
C202 C 0.48748 0.33 0.35033 0.0
C203 C 0.40707 0.21049 0.44003 0.0
C204 C 0.34837 0.28436 0.38406 0.0
C205 C 0.37874 0.14903 0.31153 0.0
C206 C 0.45182 0.26735 0.22129 0.0
C207 C 0.31759 0.22777 0.25942 0.0
O208 O 0.48666 0.29704 0.35433 0.0
O209 O 0.37276 0.20178 0.4242 0.0
O210 O 0.37622 0.30635 0.35432 0.0
O211 O 0.41495 0.17599 0.31161 0.0
O212 O 0.43269 0.2854 0.23063 0.0
O213 O 0.31214 0.20124 0.29102 0.0
O214 O 0.4606 0.24956 0.25446 0.0
O215 O 0.35052 0.154 0.32685 0.0
O216 O 0.34873 0.26178 0.25761 0.0
O217 O 0.43735 0.2228 0.41157 0.0
O218 O 0.46058 0.33358 0.32839 0.0
O219 O 0.33405 0.24695 0.38721 0.0
Sc220 Sc 0.11019 0.40646 0.45857 0.0
Sc221 Sc 0.11904 0.33901 0.53416 0.0
Sc222 Sc 0.20223 0.43147 0.50987 0.0
O223 O 0.14404 0.39229 0.50044 0.0
C224 C 0.19266 0.44564 0.3985 0.0
C225 C 0.07184 0.3182 0.43111 0.0
C226 C 0.19938 0.34785 0.49723 0.0
C227 C 0.0523 0.35909 0.54896 0.0
C228 C 0.16176 0.48521 0.5174 0.0
C229 C 0.17996 0.39563 0.61577 0.0
O230 O 0.15707 0.43867 0.40446 0.0
O231 O 0.07693 0.30912 0.47463 0.0
O232 O 0.21774 0.38526 0.50469 0.0
O233 O 0.05838 0.37474 0.5062 0.0
O234 O 0.19252 0.48136 0.51612 0.0
O235 O 0.1554 0.36134 0.5993 0.0
O236 O 0.12789 0.45894 0.50153 0.0
O237 O 0.07632 0.35033 0.5696 0.0
O238 O 0.19701 0.42614 0.58828 0.0
O239 O 0.09006 0.35379 0.41503 0.0
O240 O 0.21205 0.4404 0.43247 0.0
O241 O 0.16166 0.32615 0.50077 0.0
Sc242 Sc 0.74925 0.21026 0.6595 0.0
Sc243 Sc 0.76737 0.13156 0.67829 0.0
Sc244 Sc 0.68269 0.11534 0.61444 0.0
O245 O 0.73288 0.15225 0.65079 0.0
C246 C 0.65527 0.16715 0.6738 0.0
C247 C 0.77039 0.19058 0.76242 0.0
C248 C 0.6829 0.06056 0.70402 0.0
C249 C 0.83134 0.2138 0.63543 0.0
C250 C 0.72021 0.19548 0.54976 0.0
C251 C 0.73623 0.08106 0.57917 0.0
O252 O 0.68935 0.19821 0.67144 0.0
O253 O 0.78189 0.16796 0.74356 0.0
O254 O 0.66722 0.06677 0.66616 0.0
O255 O 0.81178 0.2305 0.6488 0.0
O256 O 0.69368 0.1594 0.55798 0.0
O257 O 0.75576 0.09026 0.61911 0.0
O258 O 0.74495 0.21745 0.58219 0.0
O259 O 0.8178 0.1765 0.63824 0.0
O260 O 0.71255 0.09355 0.56782 0.0
O261 O 0.75399 0.20612 0.73737 0.0
O262 O 0.64848 0.13342 0.65851 0.0
O263 O 0.71831 0.08473 0.71785 0.0
H264 H 0.14965 0.33761 0.68543 0.0
H265 H 0.22765 0.46415 0.66668 0.0
H266 H 0.23808 0.47162 0.75551 0.0
H267 H 0.22477 0.44207 0.8387 0.0
H268 H 0.14687 0.3153 0.85584 0.0
H269 H 0.13662 0.30833 0.76739 0.0
C270 C 0.16906 0.36687 0.70058 0.0
C271 C 0.18783 0.4002 0.6693 0.0
C272 C 0.17483 0.37101 0.75152 0.0
C273 C 0.21286 0.43788 0.68982 0.0
C274 C 0.21878 0.44224 0.74067 0.0
C275 C 0.20538 0.41299 0.82307 0.0
C276 C 0.18667 0.37932 0.85391 0.0
C277 C 0.19978 0.40901 0.7719 0.0
C278 C 0.16185 0.34176 0.83302 0.0
C279 C 0.15592 0.33766 0.78238 0.0
H280 H 0.76694 0.22657 0.98833 0.0
H281 H 0.80721 0.14101 -0.00102 0.0
H282 H 0.80589 0.13518 0.90978 0.0
H283 H 0.79393 0.15441 0.8291 0.0
H284 H 0.75367 0.23989 0.81702 0.0
H285 H 0.75483 0.24596 0.90654 0.0
C286 C 0.77505 0.20639 0.97111 0.0
C287 C 0.78709 0.18425 0.00027 0.0
C288 C 0.77469 0.20345 0.9196 0.0
C289 C 0.79793 0.15851 0.9774 0.0
C290 C 0.79728 0.15518 0.92637 0.0
C291 C 0.78568 0.17464 0.84585 0.0
C292 C 0.77387 0.19672 0.81627 0.0
C293 C 0.786 0.1777 0.89716 0.0
C294 C 0.763 0.22257 0.83886 0.0
C295 C 0.76349 0.22596 0.89007 0.0
H296 H 0.61278 0.76648 0.01098 0.0
H297 H 0.5105 0.78135 0.98954 0.0
H298 H 0.49966 0.77786 0.07888 0.0
H299 H 0.52221 0.77462 0.16355 0.0
H300 H 0.62561 0.76131 0.18228 0.0
H301 H 0.63251 0.75925 0.09327 0.0
C302 C 0.58817 0.76922 0.02561 0.0
C303 C 0.56294 0.77494 0.99354 0.0
C304 C 0.58203 0.76691 0.07658 0.0
C305 C 0.53065 0.77738 0.01339 0.0
C306 C 0.52437 0.77524 0.06446 0.0
C307 C 0.54557 0.77027 0.14796 0.0
C308 C 0.5733 0.76794 0.17924 0.0
C309 C 0.55012 0.77034 0.09648 0.0
C310 C 0.60393 0.76308 0.1588 0.0
C311 C 0.60806 0.76219 0.10798 0.0
H312 H 0.76518 0.62125 0.35239 0.0
H313 H 0.77944 0.51877 0.37452 0.0
H314 H 0.77768 0.50897 0.28516 0.0
H315 H 0.7759 0.53234 0.20025 0.0
H316 H 0.76246 0.63556 0.18095 0.0
H317 H 0.75927 0.64172 0.26982 0.0
C318 C 0.76815 0.59682 0.33788 0.0
C319 C 0.7732 0.57124 0.37019 0.0
C320 C 0.76677 0.59123 0.28688 0.0
C321 C 0.77596 0.53918 0.3505 0.0
C322 C 0.77482 0.5335 0.29941 0.0
C323 C 0.77135 0.55555 0.21565 0.0
C324 C 0.76937 0.58346 0.18415 0.0
C325 C 0.77056 0.55958 0.26716 0.0
C326 C 0.76411 0.61379 0.20448 0.0
C327 C 0.76252 0.61748 0.25528 0.0
H328 H 0.15337 0.79444 0.53381 0.0
H329 H 0.2296 0.74271 0.53944 0.0
H330 H 0.23864 0.7502 0.44995 0.0
H331 H 0.22424 0.77127 0.37001 0.0
H332 H 0.14747 0.82264 0.3674 0.0
H333 H 0.13926 0.81511 0.45601 0.0
C334 C 0.17206 0.78474 0.51577 0.0
C335 C 0.19074 0.768 0.5435 0.0
C336 C 0.17693 0.78892 0.46471 0.0
C337 C 0.21491 0.75579 0.5191 0.0
C338 C 0.22 0.75997 0.4679 0.0
C339 C 0.2056 0.78065 0.38883 0.0
C340 C 0.18652 0.79748 0.36184 0.0
C341 C 0.201 0.7764 0.44029 0.0
C342 C 0.16264 0.80967 0.38697 0.0
C343 C 0.15787 0.80541 0.43778 0.0
H344 H 0.35193 0.19683 0.51053 0.0
H345 H 0.47198 0.21861 0.49285 0.0
H346 H 0.47742 0.21432 0.58249 0.0
H347 H 0.44674 0.2024 0.66653 0.0
H348 H 0.32637 0.18083 0.68033 0.0
H349 H 0.3228 0.18744 0.59188 0.0
C350 C 0.37941 0.20054 0.52589 0.0
C351 C 0.41135 0.20765 0.49445 0.0
C352 C 0.38238 0.19828 0.57719 0.0
C353 C 0.44675 0.21285 0.51582 0.0
C354 C 0.4499 0.21048 0.56721 0.0
C355 C 0.41997 0.19967 0.65016 0.0
C356 C 0.38681 0.19095 0.68042 0.0
C357 C 0.41779 0.20307 0.59841 0.0
C358 C 0.35226 0.18721 0.65829 0.0
C359 C 0.35011 0.19094 0.60751 0.0
H360 H 0.25214 0.28996 0.91434 0.0
H361 H 0.35755 0.3634 -9e-05 0.0
H362 H 0.38992 0.32846 0.96489 0.0
H363 H 0.38551 0.27293 0.91522 0.0
H364 H 0.27711 0.19739 0.83607 0.0
H365 H 0.24849 0.23743 0.86374 0.0
C366 C 0.28235 0.29876 0.92531 0.0
C367 C 0.30221 0.329 0.96014 0.0
C368 C 0.30005 0.2779 0.90649 0.0
C369 C 0.34148 0.34006 0.97332 0.0
C370 C 0.35993 0.32001 0.95348 0.0
C371 C 0.35582 0.26566 0.90375 0.0
C372 C 0.33324 0.23225 0.87404 0.0
C373 C 0.33909 0.28825 0.92087 0.0
C374 C 0.29475 0.22275 0.85948 0.0
C375 C 0.27844 0.24566 0.8751 0.0
H376 H 0.94506 0.26295 0.05282 0.0
H377 H 0.96952 0.36114 0.14866 0.0
H378 H 0.03961 0.39491 0.12332 0.0
H379 H 0.09527 0.39239 0.08119 0.0
H380 H 0.06957 0.28976 0.99359 0.0
H381 H -0.00149 0.26168 0.00879 0.0
C382 C 0.96539 0.29204 0.06778 0.0
C383 C 0.95204 0.30924 0.103 0.0
C384 C 0.00564 0.31017 0.0551 0.0
C385 C 0.97902 0.34709 0.12162 0.0
C386 C 0.01916 0.36628 0.10743 0.0
C387 C 0.07389 0.36409 0.06523 0.0
C388 C 0.08731 0.34282 0.03687 0.0
C389 C 0.03304 0.34744 0.07545 0.0
C390 C 0.05971 0.3062 0.01625 0.0
C391 C 0.01916 0.29026 0.02467 0.0
H392 H 0.68788 0.08644 0.20254 0.0
H393 H 0.78878 0.06984 0.17683 0.0
H394 H 0.74835 -0.00048 0.19842 0.0
H395 H 0.6861 0.94429 0.22952 0.0
H396 H 0.58682 0.9618 0.26231 0.0
H397 H 0.6247 0.03037 0.23167 0.0
C398 C 0.70095 0.06737 0.2013 0.0
C399 C 0.74128 0.0833 0.18828 0.0
C400 C 0.67778 0.02722 0.21455 0.0
C401 C 0.75791 0.05834 0.18722 0.0
C402 C 0.73478 0.01813 0.19927 0.0
C403 C 0.67235 0.96278 0.22881 0.0
C404 C 0.63362 0.94804 0.24755 0.0
C405 C 0.69486 0.00242 0.21346 0.0
C406 C 0.61653 0.97258 0.24767 0.0
C407 C 0.63826 0.01175 0.23054 0.0
H408 H 0.72424 0.69498 0.42802 0.0
H409 H 0.61009 0.59871 0.47585 0.0
H410 H 0.57705 0.63277 0.44019 0.0
H411 H 0.58145 0.6921 0.4001 0.0
H412 H 0.69686 0.78925 0.35738 0.0
H413 H 0.72854 0.75251 0.38686 0.0
C414 C 0.69204 0.681 0.43017 0.0
C415 C 0.66969 0.64432 0.4546 0.0
C416 C 0.67352 0.70117 0.41108 0.0
C417 C 0.62803 0.62696 0.45727 0.0
C418 C 0.60915 0.64649 0.43708 0.0
C419 C 0.61349 0.70509 0.39704 0.0
C420 C 0.63675 0.74346 0.37686 0.0
C421 C 0.63173 0.68399 0.41472 0.0
C422 C 0.67827 0.75998 0.37328 0.0
C423 C 0.69644 0.73893 0.38989 0.0
H424 H 0.02268 0.71646 0.60244 0.0
H425 H -0.00533 0.60433 0.66986 0.0
H426 H 0.92716 0.57384 0.63673 0.0
H427 H 0.87482 0.58064 0.59409 0.0
H428 H 0.90311 0.6942 0.5307 0.0
H429 H 0.97193 0.7225 0.55719 0.0
C430 C 0.00212 0.68518 0.60945 0.0
C431 C 0.01375 0.66281 0.63885 0.0
C432 C 0.96322 0.66821 0.59155 0.0
C433 C -0.0135 0.62232 0.6475 0.0
C434 C 0.94783 0.6049 0.62874 0.0
C435 C 0.8961 0.6115 0.58575 0.0
C436 C 0.8837 0.63531 0.56078 0.0
C437 C 0.93564 0.62783 0.60165 0.0
C438 C 0.91168 0.67527 0.55032 0.0
C439 C 0.95111 0.69149 0.56529 0.0
H440 H 0.34046 0.98418 0.82419 0.0
H441 H 0.29751 0.03218 0.71125 0.0
H442 H 0.25652 0.96615 0.6774 0.0
H443 H 0.22766 0.89408 0.68468 0.0
H444 H 0.27173 0.84557 0.79483 0.0
H445 H 0.31743 0.9126 0.82522 0.0
C446 C 0.32269 0.98034 0.79169 0.0
C447 C 0.3215 0.01301 0.77103 0.0
C448 C 0.29888 0.94216 0.7724 0.0
C449 C 0.29865 0.00752 0.72845 0.0
C450 C 0.27499 0.96972 0.70908 0.0
C451 C 0.24744 0.89838 0.71522 0.0
C452 C 0.24615 0.86542 0.73821 0.0
C453 C 0.27391 0.93676 0.73172 0.0
C454 C 0.27232 0.8709 0.77695 0.0
C455 C 0.29834 0.90907 0.79425 0.0
H456 H 0.6856 0.72731 0.94024 0.0
H457 H 0.59479 0.61365 0.88517 0.0
H458 H 0.63043 0.58191 0.91993 0.0
H459 H 0.69025 0.58767 0.96096 0.0
H460 H 0.78186 0.70307 0.01066 0.0
H461 H 0.74301 0.73278 0.98256 0.0
C462 C 0.67312 0.69546 0.9362 0.0
C463 C 0.63755 0.673 0.90992 0.0
C464 C 0.69426 0.67775 0.95479 0.0
C465 C 0.62213 0.63176 0.90518 0.0
C466 C 0.64261 0.6136 0.92483 0.0
C467 C 0.70153 0.61925 0.96584 0.0
C468 C 0.7391 0.64312 0.9875 0.0
C469 C 0.67919 0.63649 0.94885 0.0
C470 C 0.75334 0.68404 0.99351 0.0
C471 C 0.73105 0.7011 0.97768 0.0
H472 H 0.9419 0.69407 0.14252 0.0
H473 H 0.96531 0.60359 0.08683 0.0
H474 H 0.03283 0.63928 0.12029 0.0
H475 H 0.08719 0.70006 0.15644 0.0
H476 H 0.0647 0.79307 0.20472 0.0
H477 H -0.00539 0.75246 0.18296 0.0
C478 C 0.96143 0.68163 0.13878 0.0
C479 C 0.94885 0.64637 0.11234 0.0
C480 C 0.00051 0.70312 0.15597 0.0
C481 C 0.97457 0.63084 0.10704 0.0
C482 C 0.01314 0.65129 0.12589 0.0
C483 C 0.06676 0.71114 0.16276 0.0
C484 C 0.08096 0.74951 0.18164 0.0
C485 C 0.0268 0.68811 0.14895 0.0
C486 C 0.05442 0.76376 0.1895 0.0
C487 C 0.01438 0.74054 0.1773 0.0
H488 H 0.33489 -0.00465 0.19093 0.0
H489 H 0.27693 0.94115 0.32873 0.0
H490 H 0.30465 0.00629 0.36648 0.0
H491 H 0.33808 0.07868 0.35745 0.0
H492 H 0.39857 0.13381 0.22181 0.0
H493 H 0.37705 0.06827 0.18582 0.0
C494 C 0.32922 -0.00223 0.22953 0.0
C495 C 0.30322 0.9636 0.25663 0.0
C496 C 0.34497 0.03544 0.25105 0.0
C497 C 0.29629 0.96714 0.30676 0.0
C498 C 0.31196 0.00436 0.32841 0.0
C499 C 0.34672 0.0761 0.3202 0.0
C500 C 0.36898 0.11031 0.29174 0.0
C501 C 0.33496 0.03866 0.30036 0.0
C502 C 0.38101 0.10734 0.24393 0.0
C503 C 0.36878 0.07004 0.22348 0.0
H504 H 0.27774 0.38563 0.47221 0.0
H505 H 0.17462 0.26851 0.48898 0.0
H506 H 0.21341 0.23854 0.46028 0.0
H507 H 0.27485 0.24582 0.42525 0.0
H508 H 0.37691 0.36302 0.40443 0.0
H509 H 0.34016 0.39276 0.44082 0.0
C510 C 0.26372 0.35351 0.47005 0.0
C511 C 0.22321 0.32938 0.48248 0.0
C512 C 0.28597 0.33652 0.45288 0.0
C513 C 0.20564 0.28782 0.47931 0.0
C514 C 0.22781 0.27064 0.46299 0.0
C515 C 0.28938 0.27785 0.42941 0.0
C516 C 0.32855 0.30219 0.41208 0.0
C517 C 0.26778 0.29475 0.44901 0.0
C518 C 0.34673 0.34365 0.41732 0.0
C519 C 0.32571 0.36066 0.43797 0.0
H520 H 0.89535 0.2767 0.67562 0.0
H521 H 0.85334 0.20676 0.54356 0.0
H522 H 0.91691 0.25044 0.50234 0.0
H523 H -0.01497 0.30674 0.50527 0.0
H524 H 0.03119 0.37024 0.64085 0.0
H525 H 0.96514 0.33182 0.6795 0.0
C526 C 0.90043 0.27119 0.6379 0.0
C527 C 0.87029 0.23879 0.61242 0.0
C528 C 0.93742 0.29556 0.61518 0.0
C529 C 0.87665 0.23143 0.56371 0.0
C530 C 0.91273 0.25647 0.54016 0.0
C531 C 0.9803 0.31241 0.54304 0.0
C532 C 0.01224 0.34146 0.57016 0.0
C533 C 0.94333 0.28846 0.56564 0.0
C534 C 0.00651 0.34829 0.61935 0.0
C535 C 0.969 0.32614 0.64142 0.0
H536 H 0.57622 0.88103 0.76865 0.0
H537 H 0.68728 0.90644 0.83645 0.0
H538 H 0.7171 0.97592 0.81203 0.0
H539 H 0.71341 0.02846 0.76726 0.0
H540 H 0.60404 0.00352 0.69535 0.0
H541 H 0.57171 0.93512 0.7264 0.0
C542 C 0.60685 0.90182 0.77838 0.0
C543 C 0.62948 0.88831 0.80405 0.0
C544 C 0.62416 0.9419 0.76365 0.0
C545 C 0.66919 0.91576 0.81626 0.0
C546 C 0.68631 0.95563 0.80248 0.0
C547 C 0.68228 0.00838 0.75896 0.0
C548 C 0.66127 0.02124 0.72891 0.0
C549 C 0.66427 0.96889 0.77562 0.0
C550 C 0.62101 -0.00552 0.71834 0.0
C551 C 0.60254 0.95528 0.73589 0.0
H552 H 0.31771 0.54695 0.94855 0.0
H553 H 0.38243 0.4853 0.97994 0.0
H554 H 0.44041 0.53649 0.93649 0.0
H555 H 0.47327 0.59886 0.89038 0.0
H556 H 0.41052 0.66265 0.86117 0.0
H557 H 0.35126 0.61039 0.9027 0.0
C558 C 0.3445 0.54473 0.94588 0.0
C559 C 0.34561 0.51231 0.96764 0.0
C560 C 0.3781 0.57455 0.92107 0.0
C561 C 0.38069 0.51001 0.96394 0.0
C562 C 0.41392 0.53921 0.93888 0.0
C563 C 0.44653 0.60121 0.89268 0.0
C564 C 0.44623 0.63445 0.87248 0.0
C565 C 0.41296 0.57157 0.91735 0.0
C566 C 0.41152 0.63732 0.87647 0.0
C567 C 0.37764 0.60748 0.90022 0.0
H568 H 0.75612 0.42356 0.05487 0.0
H569 H 0.88034 0.50222 0.0881 0.0
H570 H 0.88512 0.44728 0.12388 0.0
H571 H 0.85529 0.37718 0.14362 0.0
H572 H 0.73173 0.29671 0.10933 0.0
H573 H 0.72556 0.35209 0.0761 0.0
C574 C 0.78408 0.42859 0.07025 0.0
C575 C 0.81783 0.46682 0.06849 0.0
C576 C 0.7869 0.39661 0.09037 0.0
C577 C 0.85399 0.47296 0.0884 0.0
C578 C 0.8568 0.4416 0.10902 0.0
C579 C 0.82688 0.37159 0.1291 0.0
C580 C 0.79409 0.3328 0.12899 0.0
C581 C 0.82361 0.40331 0.10977 0.0
C582 C 0.75757 0.32628 0.10978 0.0
C583 C 0.75397 0.35794 0.09081 0.0
H584 H 0.47293 0.8626 0.27288 0.0
H585 H 0.40989 0.73773 0.31074 0.0
H586 H 0.34811 0.73159 0.27826 0.0
H587 H 0.3119 0.76255 0.241 0.0
H588 H 0.37699 0.88759 0.20284 0.0
H589 H 0.43803 0.89258 0.23366 0.0
C590 C 0.4457 0.83398 0.27419 0.0
C591 C 0.44591 0.80079 0.2946 0.0
C592 C 0.41061 0.83067 0.25542 0.0
C593 C 0.41049 0.7638 0.29522 0.0
C594 C 0.37516 0.76029 0.27679 0.0
C595 C 0.33945 0.79084 0.23937 0.0
C596 C 0.33966 0.8246 0.21973 0.0
C597 C 0.37483 0.79365 0.25709 0.0
C598 C 0.37576 0.86101 0.21762 0.0
C599 C 0.4108 0.86402 0.23535 0.0
H600 H 0.60171 0.48773 0.46327 0.0
H601 H 0.65551 0.4178 0.50574 0.0
H602 H 0.60661 0.36207 0.45685 0.0
H603 H 0.54927 0.33376 0.40189 0.0
H604 H 0.49649 0.40442 0.35765 0.0
H605 H 0.54501 0.45976 0.40693 0.0
C606 C 0.60239 0.46009 0.4623 0.0
C607 C 0.63181 0.45661 0.48836 0.0
C608 C 0.57488 0.42864 0.43332 0.0
C609 C 0.63296 0.42102 0.48604 0.0
C610 C 0.60517 0.38927 0.458 0.0
C611 C 0.54845 0.36131 0.40267 0.0
C612 C 0.5192 0.36483 0.37611 0.0
C613 C 0.5762 0.3929 0.43125 0.0
C614 C 0.51872 0.40085 0.3776 0.0
C615 C 0.5463 0.43247 0.406 0.0
H616 H 0.10449 0.488 0.57113 0.0
H617 H 0.22687 0.55903 0.52392 0.0
H618 H 0.23446 0.61413 0.57497 0.0
H619 H 0.20677 0.64131 0.63369 0.0
H620 H 0.08479 0.56979 0.68303 0.0
H621 H 0.07691 0.51514 0.63106 0.0
C622 C 0.1326 0.51581 0.57145 0.0
C623 C 0.16496 0.51979 0.54349 0.0
C624 C 0.13705 0.54684 0.60187 0.0
C625 C 0.20152 0.55551 0.54502 0.0
C626 C 0.20592 0.58686 0.57435 0.0
C627 C 0.17847 0.61373 0.63346 0.0
C628 C 0.14644 0.60975 0.66228 0.0
C629 C 0.17401 0.58265 0.60327 0.0
C630 C 0.11004 0.57367 0.66142 0.0
C631 C 0.10538 0.54249 0.63144 0.0
H632 H 0.53553 0.20839 0.77917 0.0
H633 H 0.48 0.08355 0.81709 0.0
H634 H 0.53099 0.07804 0.77119 0.0
H635 H 0.59094 0.10819 0.71997 0.0
H636 H 0.64798 0.23323 0.68383 0.0
H637 H 0.59642 0.23892 0.72902 0.0
C638 C 0.53465 0.18001 0.77767 0.0
C639 C 0.50389 0.1465 0.80157 0.0
C640 C 0.56407 0.17692 0.75115 0.0
C641 C 0.50332 0.10995 0.79916 0.0
C642 C 0.53238 0.10664 0.77273 0.0
C643 C 0.59184 0.13659 0.72155 0.0
C644 C 0.62294 0.17014 0.69836 0.0
C645 C 0.56269 0.13984 0.74834 0.0
C646 C 0.62421 0.20694 0.70142 0.0
C647 C 0.59484 0.21025 0.7273 0.0
H648 H 0.2283 0.25709 0.09184 0.0
H649 H 0.21282 0.32296 0.20884 0.0
H650 H 0.23249 0.28918 0.26946 0.0
H651 H 0.26855 0.25349 0.28581 0.0
H652 H 0.29517 0.19717 0.16706 0.0
H653 H 0.25608 0.21355 0.11032 0.0
C654 C 0.22762 0.26264 0.13087 0.0
C655 C 0.21886 0.29206 0.14623 0.0
C656 C 0.24167 0.24517 0.1649 0.0
C657 C 0.21915 0.30011 0.19654 0.0
C658 C 0.23074 0.28108 0.23102 0.0
C659 C 0.26416 0.24332 0.24793 0.0
C660 C 0.28391 0.22371 0.23042 0.0
C661 C 0.24413 0.25529 0.21525 0.0
C662 C 0.27941 0.2116 0.18121 0.0
C663 C 0.25755 0.22147 0.14879 0.0
H664 H 0.06508 0.31093 0.33162 0.0
H665 H 0.00075 0.25974 0.46668 0.0
H666 H 0.93833 0.22449 0.4212 0.0
H667 H 0.90096 0.21603 0.34372 0.0
H668 H 0.96655 0.26209 0.20818 0.0
H669 H 0.02941 0.29106 0.2528 0.0
C670 C 0.03754 0.29116 0.35086 0.0
C671 C 0.03737 0.28863 0.40243 0.0
C672 C 0.00186 0.27037 0.32439 0.0
C673 C 0.00161 0.2625 0.42695 0.0
C674 C 0.9658 0.24251 0.401 0.0
C675 C 0.92911 0.23153 0.32407 0.0
C676 C 0.92929 0.23715 0.27296 0.0
C677 C 0.96535 0.24744 0.34988 0.0
C678 C 0.96582 0.25718 0.24759 0.0
C679 C 0.00178 0.274 0.27308 0.0
H680 H 0.73761 0.07403 0.47969 0.0
H681 H 0.72633 0.01217 0.61625 0.0
H682 H 0.70302 0.9498 0.57206 0.0
H683 H 0.67511 0.91132 0.49596 0.0
H684 H 0.6908 0.97353 0.35868 0.0
H685 H 0.72377 0.03739 0.40134 0.0
C686 C 0.73125 0.04709 0.49939 0.0
C687 C 0.73331 0.04743 0.55094 0.0
C688 C 0.7183 0.01138 0.47368 0.0
C689 C 0.72517 0.01253 0.57639 0.0
C690 C 0.71148 0.97678 0.55124 0.0
C691 C 0.68709 0.93901 0.47543 0.0
C692 C 0.68064 0.93809 0.42462 0.0
C693 C 0.70639 0.97557 0.50011 0.0
C694 C 0.69594 0.97387 0.39795 0.0
C695 C 0.7144 0.0103 0.42234 0.0
H696 H 0.73211 0.71667 0.58385 0.0
H697 H 0.76849 0.66874 0.7032 0.0
H698 H 0.75039 0.70438 0.76286 0.0
H699 H 0.71012 0.73567 0.78066 0.0
H700 H 0.66292 0.77276 0.6613 0.0
H701 H 0.69978 0.75595 0.60169 0.0
C702 C 0.73767 0.71565 0.62285 0.0
C703 C 0.75207 0.69088 0.6395 0.0
C704 C 0.72448 0.73382 0.65675 0.0
C705 C 0.75803 0.68831 0.68994 0.0
C706 C 0.74724 0.70828 0.72391 0.0
C707 C 0.70947 0.74162 0.74168 0.0
C708 C 0.6846 0.75588 0.725 0.0
C709 C 0.72844 0.72927 0.70781 0.0
C710 C 0.68255 0.76239 0.67458 0.0
C711 C 0.70324 0.75237 0.64065 0.0
H712 H 0.07442 0.74279 0.88561 0.0
H713 H 0.02012 0.74964 0.75034 0.0
H714 H 0.9582 0.73169 0.794 0.0
H715 H 0.91612 0.701 0.8677 0.0
H716 H 0.97163 0.69897 0.00415 0.0
H717 H 0.03661 0.72875 0.96349 0.0
C718 C 0.0495 0.74192 0.86626 0.0
C719 C 0.05153 0.74717 0.81501 0.0
C720 C 0.01406 0.73186 0.89168 0.0
C721 C 0.01921 0.74598 0.78999 0.0
C722 C -0.01637 0.73524 0.81481 0.0
C723 C 0.94277 0.70862 0.8887 0.0
C724 C 0.93938 0.69777 0.93849 0.0
C725 C 0.98013 0.72621 0.8652 0.0
C726 C 0.97384 0.70745 0.96569 0.0
C727 C 0.01091 0.72411 0.9424 0.0
H728 H 0.29168 0.07103 0.01861 0.0
H729 H 0.25058 0.00073 0.88674 0.0
H730 H 0.21368 0.94018 0.93612 0.0
H731 H 0.20285 0.90662 0.01695 0.0
H732 H 0.2405 0.97736 0.14882 0.0
H733 H 0.26825 0.03825 0.09961 0.0
C734 C 0.27346 0.04258 0.00084 0.0
C735 C 0.27385 0.04021 0.94927 0.0
C736 C 0.25208 0.0079 0.0295 0.0
C737 C 0.25031 0.00327 0.92645 0.0
C738 C 0.22958 0.96857 0.95468 0.0
C739 C 0.21596 0.93537 0.03481 0.0
C740 C 0.21982 0.93754 0.08631 0.0
C741 C 0.2316 0.97037 0.00624 0.0
C742 C 0.23684 0.97491 0.1092 0.0
C743 C 0.25312 0.00981 0.08106 0.0
H744 H 0.16149 0.45815 0.31452 0.0
H745 H 0.26663 0.46003 0.37135 0.0
H746 H 0.29401 0.46955 0.28864 0.0
H747 H 0.28425 0.46813 0.19987 0.0
H748 H 0.17847 0.46411 0.14204 0.0
H749 H 0.15596 0.46585 0.22544 0.0
C750 C 0.19064 0.46122 0.30896 0.0
C751 C 0.21147 0.4575 0.34915 0.0
C752 C 0.20619 0.46626 0.26103 0.0
C753 C 0.24952 0.46216 0.34117 0.0
C754 C 0.26532 0.46762 0.29379 0.0
C755 C 0.25663 0.46841 0.20536 0.0
C756 C 0.23279 0.46521 0.16473 0.0
C757 C 0.24331 0.46833 0.25337 0.0
C758 C 0.1974 0.46632 0.17259 0.0
C759 C 0.18428 0.46696 0.22037 0.0
H760 H 0.68092 0.15556 0.4672 0.0
H761 H 0.77253 0.27077 0.51756 0.0
H762 H 0.7914 0.29269 0.43278 0.0
H763 H 0.78823 0.27617 0.34559 0.0
H764 H 0.69814 0.16042 0.29508 0.0
H765 H 0.67206 0.14207 0.3787 0.0
C766 C 0.7045 0.18573 0.45972 0.0
C767 C 0.72577 0.21113 0.49884 0.0
C768 C 0.71582 0.19799 0.41084 0.0
C769 C 0.75596 0.2503 0.48828 0.0
C770 C 0.76691 0.2629 0.43975 0.0
C771 C 0.76254 0.2471 0.3527 0.0
C772 C 0.74569 0.21948 0.31431 0.0
C773 C 0.74809 0.23648 0.40091 0.0
C774 C 0.71192 0.18222 0.32401 0.0
C775 C 0.69706 0.17159 0.37188 0.0
H776 H 0.51368 0.78346 0.67474 0.0
H777 H 0.51457 0.67381 0.65084 0.0
H778 H 0.50997 0.68063 0.56243 0.0
H779 H 0.51332 0.72127 0.49139 0.0
H780 H 0.51355 0.83152 0.51491 0.0
H781 H 0.50953 0.82045 0.6035 0.0
C782 C 0.51215 0.76067 0.65031 0.0
C783 C 0.51509 0.72852 0.66963 0.0
C784 C 0.51004 0.76497 0.59914 0.0
C785 C 0.51291 0.69922 0.63719 0.0
C786 C 0.5103 0.70306 0.58645 0.0
C787 C 0.51182 0.74259 0.51574 0.0
C788 C 0.51434 0.77743 0.49624 0.0
C789 C 0.51006 0.7364 0.56691 0.0
C790 C 0.51209 0.80456 0.52865 0.0
C791 C 0.50987 0.79835 0.57951 0.0
H792 H 0.72148 0.52326 0.873 0.0
H793 H 0.83182 0.52399 0.84591 0.0
H794 H 0.81863 0.51762 0.75792 0.0
H795 H 0.78006 0.52015 0.68789 0.0
H796 H 0.67039 0.52081 0.71484 0.0
H797 H 0.6789 0.51775 0.80319 0.0
C798 C 0.74229 0.52126 0.84801 0.0
C799 C 0.77787 0.52477 0.86623 0.0
C800 C 0.73489 0.5182 0.7971 0.0
C801 C 0.80439 0.52194 0.83307 0.0
C802 C 0.79694 0.51833 0.78257 0.0
C803 C 0.75759 0.51884 0.71297 0.0
C804 C 0.725 0.52135 0.69452 0.0
C805 C 0.76292 0.51773 0.76402 0.0
C806 C 0.69613 0.51945 0.72782 0.0
C807 C 0.70095 0.51776 0.77852 0.0
H808 H 0.14849 0.67977 0.9012 0.0
H809 H 0.26222 0.76743 0.84054 0.0
H810 H 0.28521 0.79463 0.92229 0.0
H811 H 0.26992 0.79925 0.00909 0.0
H812 H 0.15616 0.71169 0.06949 0.0
H813 H 0.13651 0.6789 0.98985 0.0
C814 C 0.17861 0.70429 0.90589 0.0
C815 C 0.20323 0.72183 0.86449 0.0
C816 C 0.19151 0.72035 0.95295 0.0
C817 C 0.24239 0.75332 0.87155 0.0
C818 C 0.25554 0.76921 0.91834 0.0
C819 C 0.241 0.77276 0.00491 0.0
C820 C 0.21437 0.75836 0.04497 0.0
C821 C 0.22981 0.75394 0.95896 0.0
C822 C 0.17725 0.72356 0.03923 0.0
C823 C 0.16589 0.70479 0.99363 0.0
H824 H 0.44846 0.25312 0.98996 0.0
H825 H 0.45596 0.14871 0.02733 0.0
H826 H 0.46554 0.16796 0.11367 0.0
H827 H 0.46456 0.21041 0.18003 0.0
H828 H 0.45433 0.31333 0.14327 0.0
H829 H 0.45372 0.29901 0.05578 0.0
C830 C 0.45297 0.23495 0.01678 0.0
C831 C 0.45115 0.1993 0.00185 0.0
C832 C 0.45778 0.24582 0.06688 0.0
C833 C 0.45685 0.17613 0.0375 0.0
C834 C 0.46233 0.1871 0.08709 0.0
C835 C 0.46319 0.23029 0.15291 0.0
C836 C 0.45938 0.26286 0.16851 0.0
C837 C 0.46182 0.22132 0.10245 0.0
C838 C 0.45713 0.28795 0.13256 0.0
C839 C 0.45663 0.2797 0.08237 0.0
loop_
_geom_bond_atom_site_label_1
_geom_bond_atom_site_label_2
_geom_bond_distance
_geom_bond_site_symmetry_2
_ccdc_geom_bond_type
Sc0 O3 2.025 . S
Sc0 O10 2.105 1_554 S
Sc0 O13 2.105 . S
Sc0 O16 2.105 . S
Sc0 O19 2.105 1_554 S
Sc1 O3 2.025 1_556 S
Sc1 O11 2.105 . S
Sc1 O15 2.105 1_556 S
Sc1 O17 2.105 1_556 S
Sc1 O21 2.105 . S
Sc2 O3 2.025 . S
Sc2 O12 2.105 1_554 S
Sc2 O14 2.105 . S
Sc2 O18 2.105 . S
Sc2 O20 2.105 . S
O3 Sc0 2.025 . S
O3 Sc1 2.025 1_554 S
O3 Sc2 2.025 . S
C4 O10 1.268 . S
C4 O20 1.268 1_556 S
C5 O11 1.268 . S
C5 O19 1.268 . S
C6 O12 1.268 . S
C6 O21 1.268 . S
C7 O13 1.268 . S
C7 O17 1.268 . S
C8 O14 1.268 . S
C8 O16 1.268 . S
C9 O15 1.268 . S
C9 O18 1.268 . S
O10 Sc0 2.105 1_556 S
O10 C4 1.268 . S
O11 Sc1 2.105 . S
O11 C5 1.268 . S
O12 Sc2 2.105 1_556 S
O12 C6 1.268 . S
O13 Sc0 2.105 . S
O13 C7 1.268 . S
O14 Sc2 2.105 . S
O14 C8 1.268 . S
O15 Sc1 2.105 1_554 S
O15 C9 1.268 . S
O16 Sc0 2.105 . S
O16 C8 1.268 . S
O17 Sc1 2.105 1_554 S
O17 C7 1.268 . S
O18 Sc2 2.105 . S
O18 C9 1.268 . S
O19 Sc0 2.105 1_556 S
O19 C5 1.268 . S
O20 Sc2 2.105 . S
O20 C4 1.268 1_554 S
O21 Sc1 2.105 . S
O21 C6 1.268 . S
Sc22 O25 2.025 . S
Sc22 O32 2.105 . S
Sc22 O35 2.105 . S
Sc22 O38 2.105 . S
Sc22 O41 2.105 . S
Sc23 O25 2.025 . S
Sc23 O33 2.105 . S
Sc23 O37 2.105 . S
Sc23 O39 2.105 . S
Sc23 O43 2.105 . S
Sc24 O25 2.025 . S
Sc24 O34 2.105 . S
Sc24 O36 2.105 . S
Sc24 O40 2.105 . S
Sc24 O42 2.105 . S
O25 Sc22 2.025 . S
O25 Sc23 2.025 . S
O25 Sc24 2.025 . S
C26 O32 1.268 . S
C26 O42 1.268 . S
C27 O33 1.268 . S
C27 O41 1.268 . S
C28 O34 1.268 . S
C28 O43 1.268 . S
C29 O35 1.268 . S
C29 O39 1.268 . S
C30 O36 1.268 . S
C30 O38 1.268 . S
C31 O37 1.268 . S
C31 O40 1.268 . S
O32 Sc22 2.105 . S
O32 C26 1.268 . S
O33 Sc23 2.105 . S
O33 C27 1.268 . S
O34 Sc24 2.105 . S
O34 C28 1.268 . S
O35 Sc22 2.105 . S
O35 C29 1.268 . S
O36 Sc24 2.105 . S
O36 C30 1.268 . S
O37 Sc23 2.105 . S
O37 C31 1.268 . S
O38 Sc22 2.105 . S
O38 C30 1.268 . S
O39 Sc23 2.105 . S
O39 C29 1.268 . S
O40 Sc24 2.105 . S
O40 C31 1.268 . S
O41 Sc22 2.105 . S
O41 C27 1.268 . S
O42 Sc24 2.105 . S
O42 C26 1.268 . S
O43 Sc23 2.105 . S
O43 C28 1.268 . S
Sc44 O47 2.025 . S
Sc44 O54 2.105 . S
Sc44 O57 2.105 . S
Sc44 O60 2.105 . S
Sc44 O63 2.105 . S
Sc45 O47 2.025 . S
Sc45 O55 2.105 . S
Sc45 O59 2.105 . S
Sc45 O61 2.105 . S
Sc45 O65 2.105 . S
Sc46 O47 2.025 . S
Sc46 O56 2.105 . S
Sc46 O58 2.105 . S
Sc46 O62 2.105 . S
Sc46 O64 2.105 . S
O47 Sc44 2.025 . S
O47 Sc45 2.025 . S
O47 Sc46 2.025 . S
C48 O54 1.268 . S
C48 O64 1.268 . S
C49 O55 1.268 . S
C49 O63 1.268 . S
C50 O56 1.268 . S
C50 O65 1.268 . S
C51 O57 1.268 . S
C51 O61 1.268 . S
C52 O58 1.268 . S
C52 O60 1.268 . S
C53 O59 1.268 . S
C53 O62 1.268 . S
O54 Sc44 2.105 . S
O54 C48 1.268 . S
O55 Sc45 2.105 . S
O55 C49 1.268 . S
O56 Sc46 2.105 . S
O56 C50 1.268 . S
O57 Sc44 2.105 . S
O57 C51 1.268 . S
O58 Sc46 2.105 . S
O58 C52 1.268 . S
O59 Sc45 2.105 . S
O59 C53 1.268 . S
O60 Sc44 2.105 . S
O60 C52 1.268 . S
O61 Sc45 2.105 . S
O61 C51 1.268 . S
O62 Sc46 2.105 . S
O62 C53 1.268 . S
O63 Sc44 2.105 . S
O63 C49 1.268 . S
O64 Sc46 2.105 . S
O64 C48 1.268 . S
O65 Sc45 2.105 . S
O65 C50 1.268 . S
Sc66 O69 2.025 . S
Sc66 O76 2.105 . S
Sc66 O79 2.105 . S
Sc66 O82 2.105 . S
Sc66 O85 2.105 . S
Sc67 O69 2.025 . S
Sc67 O77 2.105 . S
Sc67 O81 2.105 . S
Sc67 O83 2.105 . S
Sc67 O87 2.105 . S
Sc68 O69 2.025 . S
Sc68 O78 2.105 . S
Sc68 O80 2.105 . S
Sc68 O84 2.105 . S
Sc68 O86 2.105 . S
O69 Sc66 2.025 . S
O69 Sc67 2.025 . S
O69 Sc68 2.025 . S
C70 O76 1.268 . S
C70 O86 1.268 . S
C71 O77 1.268 . S
C71 O85 1.268 . S
C72 O78 1.268 . S
C72 O87 1.268 . S
C73 O79 1.268 . S
C73 O83 1.268 . S
C74 O80 1.268 . S
C74 O82 1.268 . S
C75 O81 1.268 . S
C75 O84 1.268 . S
O76 Sc66 2.105 . S
O76 C70 1.268 . S
O77 Sc67 2.105 . S
O77 C71 1.268 . S
O78 Sc68 2.105 . S
O78 C72 1.268 . S
O79 Sc66 2.105 . S
O79 C73 1.268 . S
O80 Sc68 2.105 . S
O80 C74 1.268 . S
O81 Sc67 2.105 . S
O81 C75 1.268 . S
O82 Sc66 2.105 . S
O82 C74 1.268 . S
O83 Sc67 2.105 . S
O83 C73 1.268 . S
O84 Sc68 2.105 . S
O84 C75 1.268 . S
O85 Sc66 2.105 . S
O85 C71 1.268 . S
O86 Sc68 2.105 . S
O86 C70 1.268 . S
O87 Sc67 2.105 . S
O87 C72 1.268 . S
Sc88 O91 2.025 . S
Sc88 O98 2.105 . S
Sc88 O101 2.105 . S
Sc88 O104 2.105 . S
Sc88 O107 2.105 . S
Sc89 O91 2.025 . S
Sc89 O99 2.105 . S
Sc89 O103 2.105 . S
Sc89 O105 2.105 . S
Sc89 O109 2.105 . S
Sc90 O91 2.025 . S
Sc90 O100 2.105 . S
Sc90 O102 2.105 . S
Sc90 O106 2.105 . S
Sc90 O108 2.105 . S
O91 Sc88 2.025 . S
O91 Sc89 2.025 . S
O91 Sc90 2.025 . S
C92 O98 1.268 . S
C92 O108 1.268 . S
C93 O99 1.268 . S
C93 O107 1.268 . S
C94 O100 1.268 . S
C94 O109 1.268 . S
C95 O101 1.268 . S
C95 O105 1.268 . S
C96 O102 1.268 . S
C96 O104 1.268 . S
C97 O103 1.268 . S
C97 O106 1.268 . S
O98 Sc88 2.105 . S
O98 C92 1.268 . S
O99 Sc89 2.105 . S
O99 C93 1.268 . S
O100 Sc90 2.105 . S
O100 C94 1.268 . S
O101 Sc88 2.105 . S
O101 C95 1.268 . S
O102 Sc90 2.105 . S
O102 C96 1.268 . S
O103 Sc89 2.105 . S
O103 C97 1.268 . S
O104 Sc88 2.105 . S
O104 C96 1.268 . S
O105 Sc89 2.105 . S
O105 C95 1.268 . S
O106 Sc90 2.105 . S
O106 C97 1.268 . S
O107 Sc88 2.105 . S
O107 C93 1.268 . S
O108 Sc90 2.105 . S
O108 C92 1.268 . S
O109 Sc89 2.105 . S
O109 C94 1.268 . S
Sc110 O113 2.025 . S
Sc110 O120 2.105 . S
Sc110 O123 2.105 . S
Sc110 O126 2.105 . S
Sc110 O129 2.105 . S
Sc111 O113 2.025 . S
Sc111 O121 2.105 . S
Sc111 O125 2.105 . S
Sc111 O127 2.105 . S
Sc111 O131 2.105 . S
Sc112 O113 2.025 . S
Sc112 O122 2.105 . S
Sc112 O124 2.105 . S
Sc112 O128 2.105 . S
Sc112 O130 2.105 . S
O113 Sc110 2.025 . S
O113 Sc111 2.025 . S
O113 Sc112 2.025 . S
C114 O120 1.268 . S
C114 O130 1.268 . S
C115 O121 1.268 . S
C115 O129 1.268 . S
C116 O122 1.268 . S
C116 O131 1.268 . S
C117 O123 1.268 . S
C117 O127 1.268 . S
C118 O124 1.268 . S
C118 O126 1.268 . S
C119 O125 1.268 . S
C119 O128 1.268 . S
O120 Sc110 2.105 . S
O120 C114 1.268 . S
O121 Sc111 2.105 . S
O121 C115 1.268 . S
O122 Sc112 2.105 . S
O122 C116 1.268 . S
O123 Sc110 2.105 . S
O123 C117 1.268 . S
O124 Sc112 2.105 . S
O124 C118 1.268 . S
O125 Sc111 2.105 . S
O125 C119 1.268 . S
O126 Sc110 2.105 . S
O126 C118 1.268 . S
O127 Sc111 2.105 . S
O127 C117 1.268 . S
O128 Sc112 2.105 . S
O128 C119 1.268 . S
O129 Sc110 2.105 . S
O129 C115 1.268 . S
O130 Sc112 2.105 . S
O130 C114 1.268 . S
O131 Sc111 2.105 . S
O131 C116 1.268 . S
Sc132 O135 2.025 . S
Sc132 O142 2.105 . S
Sc132 O145 2.105 . S
Sc132 O148 2.105 . S
Sc132 O151 2.105 . S
Sc133 O135 2.025 . S
Sc133 O143 2.105 . S
Sc133 O147 2.105 . S
Sc133 O149 2.105 . S
Sc133 O153 2.105 . S
Sc134 O135 2.025 . S
Sc134 O144 2.105 . S
Sc134 O146 2.105 . S
Sc134 O150 2.105 . S
Sc134 O152 2.105 . S
O135 Sc132 2.025 . S
O135 Sc133 2.025 . S
O135 Sc134 2.025 . S
C136 O142 1.268 . S
C136 O152 1.268 . S
C137 O143 1.268 . S
C137 O151 1.268 . S
C138 O144 1.268 . S
C138 O153 1.268 . S
C139 O145 1.268 . S
C139 O149 1.268 . S
C140 O146 1.268 . S
C140 O148 1.268 . S
C141 O147 1.268 . S
C141 O150 1.268 . S
O142 Sc132 2.105 . S
O142 C136 1.268 . S
O143 Sc133 2.105 . S
O143 C137 1.268 . S
O144 Sc134 2.105 . S
O144 C138 1.268 . S
O145 Sc132 2.105 . S
O145 C139 1.268 . S
O146 Sc134 2.105 . S
O146 C140 1.268 . S
O147 Sc133 2.105 . S
O147 C141 1.268 . S
O148 Sc132 2.105 . S
O148 C140 1.268 . S
O149 Sc133 2.105 . S
O149 C139 1.268 . S
O150 Sc134 2.105 . S
O150 C141 1.268 . S
O151 Sc132 2.105 . S
O151 C137 1.268 . S
O152 Sc134 2.105 . S
O152 C136 1.268 . S
O153 Sc133 2.105 . S
O153 C138 1.268 . S
Sc154 O157 2.025 . S
Sc154 O164 2.105 . S
Sc154 O167 2.105 . S
Sc154 O170 2.105 1_554 S
Sc154 O173 2.105 . S
Sc155 O157 2.025 . S
Sc155 O165 2.105 . S
Sc155 O169 2.105 1_554 S
Sc155 O171 2.105 . S
Sc155 O175 2.105 . S
Sc156 O157 2.025 1_556 S
Sc156 O166 2.105 1_556 S
Sc156 O168 2.105 . S
Sc156 O172 2.105 . S
Sc156 O174 2.105 1_556 S
O157 Sc154 2.025 . S
O157 Sc155 2.025 . S
O157 Sc156 2.025 1_554 S
C158 O164 1.268 . S
C158 O174 1.268 . S
C159 O165 1.268 . S
C159 O173 1.268 . S
C160 O166 1.268 . S
C160 O175 1.268 . S
C161 O167 1.268 1_556 S
C161 O171 1.268 1_556 S
C162 O168 1.268 . S
C162 O170 1.268 . S
C163 O169 1.268 . S
C163 O172 1.268 . S
O164 Sc154 2.105 . S
O164 C158 1.268 . S
O165 Sc155 2.105 . S
O165 C159 1.268 . S
O166 Sc156 2.105 1_554 S
O166 C160 1.268 . S
O167 Sc154 2.105 . S
O167 C161 1.268 1_554 S
O168 Sc156 2.105 . S
O168 C162 1.268 . S
O169 Sc155 2.105 1_556 S
O169 C163 1.268 . S
O170 Sc154 2.105 1_556 S
O170 C162 1.268 . S
O171 Sc155 2.105 . S
O171 C161 1.268 1_554 S
O172 Sc156 2.105 . S
O172 C163 1.268 . S
O173 Sc154 2.105 . S
O173 C159 1.268 . S
O174 Sc156 2.105 1_554 S
O174 C158 1.268 . S
O175 Sc155 2.105 . S
O175 C160 1.268 . S
Sc176 O179 2.025 . S
Sc176 O186 2.105 . S
Sc176 O189 2.105 . S
Sc176 O192 2.105 . S
Sc176 O195 2.105 . S
Sc177 O179 2.025 . S
Sc177 O187 2.105 . S
Sc177 O191 2.105 . S
Sc177 O193 2.105 . S
Sc177 O197 2.105 . S
Sc178 O179 2.025 . S
Sc178 O188 2.105 . S
Sc178 O190 2.105 . S
Sc178 O194 2.105 . S
Sc178 O196 2.105 . S
O179 Sc176 2.025 . S
O179 Sc177 2.025 . S
O179 Sc178 2.025 . S
C180 O186 1.268 . S
C180 O196 1.268 . S
C181 O187 1.268 . S
C181 O195 1.268 . S
C182 O188 1.268 . S
C182 O197 1.268 . S
C183 O189 1.268 . S
C183 O193 1.268 . S
C184 O190 1.268 . S
C184 O192 1.268 . S
C185 O191 1.268 . S
C185 O194 1.268 . S
O186 Sc176 2.105 . S
O186 C180 1.268 . S
O187 Sc177 2.105 . S
O187 C181 1.268 . S
O188 Sc178 2.105 . S
O188 C182 1.268 . S
O189 Sc176 2.105 . S
O189 C183 1.268 . S
O190 Sc178 2.105 . S
O190 C184 1.268 . S
O191 Sc177 2.105 . S
O191 C185 1.268 . S
O192 Sc176 2.105 . S
O192 C184 1.268 . S
O193 Sc177 2.105 . S
O193 C183 1.268 . S
O194 Sc178 2.105 . S
O194 C185 1.268 . S
O195 Sc176 2.105 . S
O195 C181 1.268 . S
O196 Sc178 2.105 . S
O196 C180 1.268 . S
O197 Sc177 2.105 . S
O197 C182 1.268 . S
Sc198 O201 2.025 . S
Sc198 O208 2.105 . S
Sc198 O211 2.105 . S
Sc198 O214 2.105 . S
Sc198 O217 2.105 . S
Sc199 O201 2.025 . S
Sc199 O209 2.105 . S
Sc199 O213 2.105 . S
Sc199 O215 2.105 . S
Sc199 O219 2.105 . S
Sc200 O201 2.025 . S
Sc200 O210 2.105 . S
Sc200 O212 2.105 . S
Sc200 O216 2.105 . S
Sc200 O218 2.105 . S
O201 Sc198 2.025 . S
O201 Sc199 2.025 . S
O201 Sc200 2.025 . S
C202 O208 1.268 . S
C202 O218 1.268 . S
C203 O209 1.268 . S
C203 O217 1.268 . S
C204 O210 1.268 . S
C204 O219 1.268 . S
C205 O211 1.268 . S
C205 O215 1.268 . S
C206 O212 1.268 . S
C206 O214 1.268 . S
C207 O213 1.268 . S
C207 O216 1.268 . S
O208 Sc198 2.105 . S
O208 C202 1.268 . S
O209 Sc199 2.105 . S
O209 C203 1.268 . S
O210 Sc200 2.105 . S
O210 C204 1.268 . S
O211 Sc198 2.105 . S
O211 C205 1.268 . S
O212 Sc200 2.105 . S
O212 C206 1.268 . S
O213 Sc199 2.105 . S
O213 C207 1.268 . S
O214 Sc198 2.105 . S
O214 C206 1.268 . S
O215 Sc199 2.105 . S
O215 C205 1.268 . S
O216 Sc200 2.105 . S
O216 C207 1.268 . S
O217 Sc198 2.105 . S
O217 C203 1.268 . S
O218 Sc200 2.105 . S
O218 C202 1.268 . S
O219 Sc199 2.105 . S
O219 C204 1.268 . S
Sc220 O223 2.025 . S
Sc220 O230 2.105 . S
Sc220 O233 2.105 . S
Sc220 O236 2.105 . S
Sc220 O239 2.105 . S
Sc221 O223 2.025 . S
Sc221 O231 2.105 . S
Sc221 O235 2.105 . S
Sc221 O237 2.105 . S
Sc221 O241 2.105 . S
Sc222 O223 2.025 . S
Sc222 O232 2.105 . S
Sc222 O234 2.105 . S
Sc222 O238 2.105 . S
Sc222 O240 2.105 . S
O223 Sc220 2.025 . S
O223 Sc221 2.025 . S
O223 Sc222 2.025 . S
C224 O230 1.268 . S
C224 O240 1.268 . S
C225 O231 1.268 . S
C225 O239 1.268 . S
C226 O232 1.268 . S
C226 O241 1.268 . S
C227 O233 1.268 . S
C227 O237 1.268 . S
C228 O234 1.268 . S
C228 O236 1.268 . S
C229 O235 1.268 . S
C229 O238 1.268 . S
O230 Sc220 2.105 . S
O230 C224 1.268 . S
O231 Sc221 2.105 . S
O231 C225 1.268 . S
O232 Sc222 2.105 . S
O232 C226 1.268 . S
O233 Sc220 2.105 . S
O233 C227 1.268 . S
O234 Sc222 2.105 . S
O234 C228 1.268 . S
O235 Sc221 2.105 . S
O235 C229 1.268 . S
O236 Sc220 2.105 . S
O236 C228 1.268 . S
O237 Sc221 2.105 . S
O237 C227 1.268 . S
O238 Sc222 2.105 . S
O238 C229 1.268 . S
O239 Sc220 2.105 . S
O239 C225 1.268 . S
O240 Sc222 2.105 . S
O240 C224 1.268 . S
O241 Sc221 2.105 . S
O241 C226 1.268 . S
Sc242 O245 2.025 . S
Sc242 O252 2.105 . S
Sc242 O255 2.105 . S
Sc242 O258 2.105 . S
Sc242 O261 2.105 . S
Sc243 O245 2.025 . S
Sc243 O253 2.105 . S
Sc243 O257 2.105 . S
Sc243 O259 2.105 . S
Sc243 O263 2.105 . S
Sc244 O245 2.025 . S
Sc244 O254 2.105 . S
Sc244 O256 2.105 . S
Sc244 O260 2.105 . S
Sc244 O262 2.105 . S
O245 Sc242 2.025 . S
O245 Sc243 2.025 . S
O245 Sc244 2.025 . S
C246 O252 1.268 . S
C246 O262 1.268 . S
C247 O253 1.268 . S
C247 O261 1.268 . S
C248 O254 1.268 . S
C248 O263 1.268 . S
C249 O255 1.268 . S
C249 O259 1.268 . S
C250 O256 1.268 . S
C250 O258 1.268 . S
C251 O257 1.268 . S
C251 O260 1.268 . S
O252 Sc242 2.105 . S
O252 C246 1.268 . S
O253 Sc243 2.105 . S
O253 C247 1.268 . S
O254 Sc244 2.105 . S
O254 C248 1.268 . S
O255 Sc242 2.105 . S
O255 C249 1.268 . S
O256 Sc244 2.105 . S
O256 C250 1.268 . S
O257 Sc243 2.105 . S
O257 C251 1.268 . S
O258 Sc242 2.105 . S
O258 C250 1.268 . S
O259 Sc243 2.105 . S
O259 C249 1.268 . S
O260 Sc244 2.105 . S
O260 C251 1.268 . S
O261 Sc242 2.105 . S
O261 C247 1.268 . S
O262 Sc244 2.105 . S
O262 C246 1.268 . S
O263 Sc243 2.105 . S
O263 C248 1.268 . S
H264 C270 0.930 . S
H265 C273 0.930 . S
H266 C274 0.930 . S
H267 C275 0.930 . S
H268 C278 0.930 . S
H269 C279 0.930 . S
C270 H264 0.930 . S
C270 C271 1.355 . S
C270 C272 1.415 . S
C271 C270 1.355 . S
C271 C273 1.419 . S
C272 C270 1.415 . S
C272 C277 1.425 . S
C272 C279 1.409 . S
C273 H265 0.930 . S
C273 C271 1.419 . S
C273 C274 1.362 . S
C274 H266 0.930 . S
C274 C273 1.362 . S
C274 C277 1.409 . S
C275 H267 0.930 . S
C275 C276 1.355 . S
C275 C277 1.415 . S
C276 C275 1.355 . S
C276 C278 1.419 . S
C277 C272 1.425 . S
C277 C274 1.409 . S
C277 C275 1.415 . S
C278 H268 0.930 . S
C278 C276 1.419 . S
C278 C279 1.362 . S
C279 H269 0.930 . S
C279 C272 1.409 . S
C279 C278 1.362 . S
H280 C286 0.930 1_554 S
H281 C289 0.930 . S
H282 C290 0.930 . S
H283 C291 0.930 . S
H284 C294 0.930 . S
H285 C295 0.930 . S
C286 H280 0.930 1_556 S
C286 C287 1.355 1_556 S
C286 C288 1.415 . S
C287 C286 1.355 1_554 S
C287 C289 1.419 . S
C288 C286 1.415 . S
C288 C293 1.425 . S
C288 C295 1.409 . S
C289 H281 0.930 . S
C289 C287 1.419 . S
C289 C290 1.362 1_554 S
C290 H282 0.930 . S
C290 C289 1.362 1_556 S
C290 C293 1.409 . S
C291 H283 0.930 . S
C291 C292 1.355 . S
C291 C293 1.415 . S
C292 C291 1.355 . S
C292 C294 1.419 . S
C293 C288 1.425 . S
C293 C290 1.409 . S
C293 C291 1.415 . S
C294 H284 0.930 . S
C294 C292 1.419 . S
C294 C295 1.362 . S
C295 H285 0.930 . S
C295 C288 1.409 . S
C295 C294 1.362 . S
H296 C302 0.930 . S
H297 C305 0.930 . S
H298 C306 0.930 . S
H299 C307 0.930 . S
H300 C310 0.930 . S
H301 C311 0.930 . S
C302 H296 0.930 . S
C302 C303 1.355 . S
C302 C304 1.415 . S
C303 C302 1.355 . S
C303 C305 1.419 . S
C304 C302 1.415 . S
C304 C309 1.425 . S
C304 C311 1.409 . S
C305 H297 0.930 . S
C305 C303 1.419 . S
C305 C306 1.362 . S
C306 H298 0.930 . S
C306 C305 1.362 . S
C306 C309 1.409 . S
C307 H299 0.930 . S
C307 C308 1.355 . S
C307 C309 1.415 . S
C308 C307 1.355 . S
C308 C310 1.419 . S
C309 C304 1.425 . S
C309 C306 1.409 . S
C309 C307 1.415 . S
C310 H300 0.930 . S
C310 C308 1.419 . S
C310 C311 1.362 . S
C311 H301 0.930 . S
C311 C304 1.409 . S
C311 C310 1.362 . S
H312 C318 0.930 . S
H313 C321 0.930 . S
H314 C322 0.930 . S
H315 C323 0.930 . S
H316 C326 0.930 . S
H317 C327 0.930 . S
C318 H312 0.930 . S
C318 C319 1.355 . S
C318 C320 1.415 . S
C319 C318 1.355 . S
C319 C321 1.419 . S
C320 C318 1.415 . S
C320 C325 1.425 . S
C320 C327 1.409 . S
C321 H313 0.930 . S
C321 C319 1.419 . S
C321 C322 1.362 . S
C322 H314 0.930 . S
C322 C321 1.362 . S
C322 C325 1.409 . S
C323 H315 0.930 . S
C323 C324 1.355 . S
C323 C325 1.415 . S
C324 C323 1.355 . S
C324 C326 1.419 . S
C325 C320 1.425 . S
C325 C322 1.409 . S
C325 C323 1.415 . S
C326 H316 0.930 . S
C326 C324 1.419 . S
C326 C327 1.362 . S
C327 H317 0.930 . S
C327 C320 1.409 . S
C327 C326 1.362 . S
H328 C334 0.930 . S
H329 C337 0.930 . S
H330 C338 0.930 . S
H331 C339 0.930 . S
H332 C342 0.930 . S
H333 C343 0.930 . S
C334 H328 0.930 . S
C334 C335 1.355 . S
C334 C336 1.415 . S
C335 C334 1.355 . S
C335 C337 1.419 . S
C336 C334 1.415 . S
C336 C341 1.425 . S
C336 C343 1.409 . S
C337 H329 0.930 . S
C337 C335 1.419 . S
C337 C338 1.362 . S
C338 H330 0.930 . S
C338 C337 1.362 . S
C338 C341 1.409 . S
C339 H331 0.930 . S
C339 C340 1.355 . S
C339 C341 1.415 . S
C340 C339 1.355 . S
C340 C342 1.419 . S
C341 C336 1.425 . S
C341 C338 1.409 . S
C341 C339 1.415 . S
C342 H332 0.930 . S
C342 C340 1.419 . S
C342 C343 1.362 . S
C343 H333 0.930 . S
C343 C336 1.409 . S
C343 C342 1.362 . S
H344 C350 0.930 . S
H345 C353 0.930 . S
H346 C354 0.930 . S
H347 C355 0.930 . S
H348 C358 0.930 . S
H349 C359 0.930 . S
C350 H344 0.930 . S
C350 C351 1.355 . S
C350 C352 1.415 . S
C351 C350 1.355 . S
C351 C353 1.419 . S
C352 C350 1.415 . S
C352 C357 1.425 . S
C352 C359 1.409 . S
C353 H345 0.930 . S
C353 C351 1.419 . S
C353 C354 1.362 . S
C354 H346 0.930 . S
C354 C353 1.362 . S
C354 C357 1.409 . S
C355 H347 0.930 . S
C355 C356 1.355 . S
C355 C357 1.415 . S
C356 C355 1.355 . S
C356 C358 1.419 . S
C357 C352 1.425 . S
C357 C354 1.409 . S
C357 C355 1.415 . S
C358 H348 0.930 . S
C358 C356 1.419 . S
C358 C359 1.362 . S
C359 H349 0.930 . S
C359 C352 1.409 . S
C359 C358 1.362 . S
H360 C366 0.930 . S
H361 C369 0.930 . S
H362 C370 0.930 . S
H363 C371 0.930 . S
H364 C374 0.930 . S
H365 C375 0.930 . S
C366 H360 0.930 . S
C366 C367 1.355 . S
C366 C368 1.415 . S
C367 C366 1.355 . S
C367 C369 1.419 . S
C368 C366 1.415 . S
C368 C373 1.425 . S
C368 C375 1.409 . S
C369 H361 0.930 . S
C369 C367 1.419 . S
C369 C370 1.362 . S
C370 H362 0.930 . S
C370 C369 1.362 . S
C370 C373 1.409 . S
C371 H363 0.930 . S
C371 C372 1.355 . S
C371 C373 1.415 . S
C372 C371 1.355 . S
C372 C374 1.419 . S
C373 C368 1.425 . S
C373 C370 1.409 . S
C373 C371 1.415 . S
C374 H364 0.930 . S
C374 C372 1.419 . S
C374 C375 1.362 . S
C375 H365 0.930 . S
C375 C368 1.409 . S
C375 C374 1.362 . S
H376 C382 0.930 . S
H377 C385 0.930 1_655 S
H378 C386 0.930 . S
H379 C387 0.930 . S
H380 C390 0.930 . S
H381 C391 0.930 . S
C382 H376 0.930 . S
C382 C383 1.355 . S
C382 C384 1.415 1_655 S
C383 C382 1.355 . S
C383 C385 1.419 1_655 S
C384 C382 1.415 1_455 S
C384 C389 1.425 . S
C384 C391 1.409 . S
C385 H377 0.930 1_455 S
C385 C383 1.419 1_455 S
C385 C386 1.362 . S
C386 H378 0.930 . S
C386 C385 1.362 . S
C386 C389 1.409 . S
C387 H379 0.930 . S
C387 C388 1.355 . S
C387 C389 1.415 . S
C388 C387 1.355 . S
C388 C390 1.419 . S
C389 C384 1.425 . S
C389 C386 1.409 . S
C389 C387 1.415 . S
C390 H380 0.930 . S
C390 C388 1.419 . S
C390 C391 1.362 . S
C391 H381 0.930 . S
C391 C384 1.409 . S
C391 C390 1.362 . S
H392 C398 0.930 . S
H393 C401 0.930 . S
H394 C402 0.930 . S
H395 C403 0.930 . S
H396 C406 0.930 1_565 S
H397 C407 0.930 . S
C398 H392 0.930 . S
C398 C399 1.355 . S
C398 C400 1.415 . S
C399 C398 1.355 . S
C399 C401 1.419 . S
C400 C398 1.415 . S
C400 C405 1.425 . S
C400 C407 1.409 . S
C401 H393 0.930 . S
C401 C399 1.419 . S
C401 C402 1.362 . S
C402 H394 0.930 . S
C402 C401 1.362 . S
C402 C405 1.409 . S
C403 H395 0.930 . S
C403 C404 1.355 . S
C403 C405 1.415 1_565 S
C404 C403 1.355 . S
C404 C406 1.419 1_565 S
C405 C400 1.425 . S
C405 C402 1.409 . S
C405 C403 1.415 1_545 S
C406 H396 0.930 1_545 S
C406 C404 1.419 1_545 S
C406 C407 1.362 . S
C407 H397 0.930 . S
C407 C400 1.409 . S
C407 C406 1.362 . S
H408 C414 0.930 . S
H409 C417 0.930 . S
H410 C418 0.930 . S
H411 C419 0.930 . S
H412 C422 0.930 . S
H413 C423 0.930 . S
C414 H408 0.930 . S
C414 C415 1.355 . S
C414 C416 1.415 . S
C415 C414 1.355 . S
C415 C417 1.419 . S
C416 C414 1.415 . S
C416 C421 1.425 . S
C416 C423 1.409 . S
C417 H409 0.930 . S
C417 C415 1.419 . S
C417 C418 1.362 . S
C418 H410 0.930 . S
C418 C417 1.362 . S
C418 C421 1.409 . S
C419 H411 0.930 . S
C419 C420 1.355 . S
C419 C421 1.415 . S
C420 C419 1.355 . S
C420 C422 1.419 . S
C421 C416 1.425 . S
C421 C418 1.409 . S
C421 C419 1.415 . S
C422 H412 0.930 . S
C422 C420 1.419 . S
C422 C423 1.362 . S
C423 H413 0.930 . S
C423 C416 1.409 . S
C423 C422 1.362 . S
H424 C430 0.930 . S
H425 C433 0.930 . S
H426 C434 0.930 . S
H427 C435 0.930 . S
H428 C438 0.930 . S
H429 C439 0.930 . S
C430 H424 0.930 . S
C430 C431 1.355 . S
C430 C432 1.415 1_455 S
C431 C430 1.355 . S
C431 C433 1.419 . S
C432 C430 1.415 1_655 S
C432 C437 1.425 . S
C432 C439 1.409 . S
C433 H425 0.930 . S
C433 C431 1.419 . S
C433 C434 1.362 1_455 S
C434 H426 0.930 . S
C434 C433 1.362 1_655 S
C434 C437 1.409 . S
C435 H427 0.930 . S
C435 C436 1.355 . S
C435 C437 1.415 . S
C436 C435 1.355 . S
C436 C438 1.419 . S
C437 C432 1.425 . S
C437 C434 1.409 . S
C437 C435 1.415 . S
C438 H428 0.930 . S
C438 C436 1.419 . S
C438 C439 1.362 . S
C439 H429 0.930 . S
C439 C432 1.409 . S
C439 C438 1.362 . S
H440 C446 0.938 1_545 S
H441 C449 0.930 . S
H442 C450 0.930 . S
H443 C451 0.930 . S
H444 C454 0.930 . S
H445 C455 0.930 . S
C446 H440 0.938 1_565 S
C446 C447 1.329 1_565 S
C446 C448 1.433 . S
C447 C446 1.329 1_545 S
C447 C449 1.419 . S
C448 C446 1.433 . S
C448 C453 1.425 . S
C448 C455 1.409 . S
C449 H441 0.930 . S
C449 C447 1.419 . S
C449 C450 1.362 1_545 S
C450 H442 0.930 . S
C450 C449 1.362 1_565 S
C450 C453 1.409 . S
C451 H443 0.930 . S
C451 C452 1.355 . S
C451 C453 1.415 . S
C452 C451 1.355 . S
C452 C454 1.419 . S
C453 C448 1.425 . S
C453 C450 1.409 . S
C453 C451 1.415 . S
C454 H444 0.930 . S
C454 C452 1.419 . S
C454 C455 1.362 . S
C455 H445 0.930 . S
C455 C448 1.409 . S
C455 C454 1.362 . S
H456 C462 0.930 . S
H457 C465 0.930 . S
H458 C466 0.930 . S
H459 C467 0.930 . S
H460 C470 0.930 . S
H461 C471 0.930 . S
C462 H456 0.930 . S
C462 C463 1.355 . S
C462 C464 1.415 . S
C463 C462 1.355 . S
C463 C465 1.419 . S
C464 C462 1.415 . S
C464 C469 1.425 . S
C464 C471 1.409 . S
C465 H457 0.930 . S
C465 C463 1.419 . S
C465 C466 1.362 . S
C466 H458 0.930 . S
C466 C465 1.362 . S
C466 C469 1.409 . S
C467 H459 0.930 . S
C467 C468 1.355 . S
C467 C469 1.415 . S
C468 C467 1.355 . S
C468 C470 1.419 . S
C469 C464 1.425 . S
C469 C466 1.409 . S
C469 C467 1.415 . S
C470 H460 0.930 . S
C470 C468 1.419 . S
C470 C471 1.362 . S
C471 H461 0.930 . S
C471 C464 1.409 . S
C471 C470 1.362 . S
H472 C478 0.925 1_655 S
H473 C481 0.930 . S
H474 C482 0.930 . S
H475 C483 0.930 . S
H476 C486 0.930 . S
H477 C487 0.930 . S
C478 H472 0.925 1_455 S
C478 C479 1.352 1_455 S
C478 C480 1.422 . S
C479 C478 1.352 1_655 S
C479 C481 1.419 . S
C480 C478 1.422 . S
C480 C485 1.425 . S
C480 C487 1.409 . S
C481 H473 0.930 . S
C481 C479 1.419 . S
C481 C482 1.362 1_655 S
C482 H474 0.930 . S
C482 C481 1.362 1_455 S
C482 C485 1.409 . S
C483 H475 0.930 . S
C483 C484 1.355 . S
C483 C485 1.415 . S
C484 C483 1.355 . S
C484 C486 1.419 . S
C485 C480 1.425 . S
C485 C482 1.409 . S
C485 C483 1.415 . S
C486 H476 0.930 . S
C486 C484 1.419 . S
C486 C487 1.362 . S
C487 H477 0.930 . S
C487 C480 1.409 . S
C487 C486 1.362 . S
H488 C494 0.930 . S
H489 C497 0.930 . S
H490 C498 0.930 1_565 S
H491 C499 0.930 . S
H492 C502 0.930 . S
H493 C503 0.930 . S
C494 H488 0.930 . S
C494 C495 1.355 1_545 S
C494 C496 1.415 . S
C495 C494 1.355 1_565 S
C495 C497 1.419 . S
C496 C494 1.415 . S
C496 C501 1.425 . S
C496 C503 1.409 . S
C497 H489 0.930 . S
C497 C495 1.419 . S
C497 C498 1.362 1_565 S
C498 H490 0.930 1_545 S
C498 C497 1.362 1_545 S
C498 C501 1.409 . S
C499 H491 0.930 . S
C499 C500 1.355 . S
C499 C501 1.415 . S
C500 C499 1.355 . S
C500 C502 1.419 . S
C501 C496 1.425 . S
C501 C498 1.409 . S
C501 C499 1.415 . S
C502 H492 0.930 . S
C502 C500 1.419 . S
C502 C503 1.362 . S
C503 H493 0.930 . S
C503 C496 1.409 . S
C503 C502 1.362 . S
H504 C510 0.930 . S
H505 C513 0.930 . S
H506 C514 0.930 . S
H507 C515 0.930 . S
H508 C518 0.930 . S
H509 C519 0.930 . S
C510 H504 0.930 . S
C510 C511 1.355 . S
C510 C512 1.415 . S
C511 C510 1.355 . S
C511 C513 1.419 . S
C512 C510 1.415 . S
C512 C517 1.425 . S
C512 C519 1.409 . S
C513 H505 0.930 . S
C513 C511 1.419 . S
C513 C514 1.362 . S
C514 H506 0.930 . S
C514 C513 1.362 . S
C514 C517 1.409 . S
C515 H507 0.930 . S
C515 C516 1.355 . S
C515 C517 1.415 . S
C516 C515 1.355 . S
C516 C518 1.419 . S
C517 C512 1.425 . S
C517 C514 1.409 . S
C517 C515 1.415 . S
C518 H508 0.930 . S
C518 C516 1.419 . S
C518 C519 1.362 . S
C519 H509 0.930 . S
C519 C512 1.409 . S
C519 C518 1.362 . S
H520 C526 0.930 . S
H521 C529 0.930 . S
H522 C530 0.930 . S
H523 C531 0.930 . S
H524 C534 0.930 . S
H525 C535 0.930 . S
C526 H520 0.930 . S
C526 C527 1.355 . S
C526 C528 1.415 . S
C527 C526 1.355 . S
C527 C529 1.419 . S
C528 C526 1.415 . S
C528 C533 1.425 . S
C528 C535 1.409 . S
C529 H521 0.930 . S
C529 C527 1.419 . S
C529 C530 1.362 . S
C530 H522 0.930 . S
C530 C529 1.362 . S
C530 C533 1.409 . S
C531 H523 0.930 . S
C531 C532 1.355 1_655 S
C531 C533 1.415 . S
C532 C531 1.355 1_455 S
C532 C534 1.419 . S
C533 C528 1.425 . S
C533 C530 1.409 . S
C533 C531 1.415 . S
C534 H524 0.930 . S
C534 C532 1.419 . S
C534 C535 1.362 1_455 S
C535 H525 0.930 . S
C535 C528 1.409 . S
C535 C534 1.362 1_655 S
H536 C542 0.930 . S
H537 C545 0.930 . S
H538 C546 0.930 . S
H539 C547 0.930 . S
H540 C550 0.930 1_545 S
H541 C551 0.930 . S
C542 H536 0.930 . S
C542 C543 1.355 . S
C542 C544 1.415 . S
C543 C542 1.355 . S
C543 C545 1.419 . S
C544 C542 1.415 . S
C544 C549 1.425 . S
C544 C551 1.409 . S
C545 H537 0.930 . S
C545 C543 1.419 . S
C545 C546 1.362 . S
C546 H538 0.930 . S
C546 C545 1.362 . S
C546 C549 1.409 . S
C547 H539 0.930 . S
C547 C548 1.355 . S
C547 C549 1.415 1_545 S
C548 C547 1.355 . S
C548 C550 1.419 1_545 S
C549 C544 1.425 . S
C549 C546 1.409 . S
C549 C547 1.415 1_565 S
C550 H540 0.930 1_565 S
C550 C548 1.419 1_565 S
C550 C551 1.362 . S
C551 H541 0.930 . S
C551 C544 1.409 . S
C551 C550 1.362 . S
H552 C558 0.930 . S
H553 C561 0.930 . S
H554 C562 0.930 . S
H555 C563 0.930 . S
H556 C566 0.930 . S
H557 C567 0.930 . S
C558 H552 0.930 . S
C558 C559 1.355 . S
C558 C560 1.415 . S
C559 C558 1.355 . S
C559 C561 1.419 . S
C560 C558 1.415 . S
C560 C565 1.425 . S
C560 C567 1.409 . S
C561 H553 0.930 . S
C561 C559 1.419 . S
C561 C562 1.362 . S
C562 H554 0.930 . S
C562 C561 1.362 . S
C562 C565 1.409 . S
C563 H555 0.930 . S
C563 C564 1.355 . S
C563 C565 1.415 . S
C564 C563 1.355 . S
C564 C566 1.419 . S
C565 C560 1.425 . S
C565 C562 1.409 . S
C565 C563 1.415 . S
C566 H556 0.930 . S
C566 C564 1.419 . S
C566 C567 1.362 . S
C567 H557 0.930 . S
C567 C560 1.409 . S
C567 C566 1.362 . S
H568 C574 0.930 . S
H569 C577 0.930 . S
H570 C578 0.930 . S
H571 C579 0.930 . S
H572 C582 0.930 . S
H573 C583 0.930 . S
C574 H568 0.930 . S
C574 C575 1.355 . S
C574 C576 1.415 . S
C575 C574 1.355 . S
C575 C577 1.419 . S
C576 C574 1.415 . S
C576 C581 1.425 . S
C576 C583 1.409 . S
C577 H569 0.930 . S
C577 C575 1.419 . S
C577 C578 1.362 . S
C578 H570 0.930 . S
C578 C577 1.362 . S
C578 C581 1.409 . S
C579 H571 0.930 . S
C579 C580 1.355 . S
C579 C581 1.415 . S
C580 C579 1.355 . S
C580 C582 1.419 . S
C581 C576 1.425 . S
C581 C578 1.409 . S
C581 C579 1.415 . S
C582 H572 0.930 . S
C582 C580 1.419 . S
C582 C583 1.362 . S
C583 H573 0.930 . S
C583 C576 1.409 . S
C583 C582 1.362 . S
H584 C590 0.930 . S
H585 C593 0.930 . S
H586 C594 0.930 . S
H587 C595 0.930 . S
H588 C598 0.930 . S
H589 C599 0.930 . S
C590 H584 0.930 . S
C590 C591 1.355 . S
C590 C592 1.415 . S
C591 C590 1.355 . S
C591 C593 1.419 . S
C592 C590 1.415 . S
C592 C597 1.425 . S
C592 C599 1.409 . S
C593 H585 0.930 . S
C593 C591 1.419 . S
C593 C594 1.362 . S
C594 H586 0.930 . S
C594 C593 1.362 . S
C594 C597 1.409 . S
C595 H587 0.930 . S
C595 C596 1.355 . S
C595 C597 1.415 . S
C596 C595 1.355 . S
C596 C598 1.419 . S
C597 C592 1.425 . S
C597 C594 1.409 . S
C597 C595 1.415 . S
C598 H588 0.930 . S
C598 C596 1.419 . S
C598 C599 1.362 . S
C599 H589 0.930 . S
C599 C592 1.409 . S
C599 C598 1.362 . S
H600 C606 0.930 . S
H601 C609 0.930 . S
H602 C610 0.930 . S
H603 C611 0.930 . S
H604 C614 0.930 . S
H605 C615 0.930 . S
C606 H600 0.930 . S
C606 C607 1.355 . S
C606 C608 1.415 . S
C607 C606 1.355 . S
C607 C609 1.419 . S
C608 C606 1.415 . S
C608 C613 1.425 . S
C608 C615 1.409 . S
C609 H601 0.930 . S
C609 C607 1.419 . S
C609 C610 1.362 . S
C610 H602 0.930 . S
C610 C609 1.362 . S
C610 C613 1.409 . S
C611 H603 0.930 . S
C611 C612 1.355 . S
C611 C613 1.415 . S
C612 C611 1.355 . S
C612 C614 1.419 . S
C613 C608 1.425 . S
C613 C610 1.409 . S
C613 C611 1.415 . S
C614 H604 0.930 . S
C614 C612 1.419 . S
C614 C615 1.362 . S
C615 H605 0.930 . S
C615 C608 1.409 . S
C615 C614 1.362 . S
H616 C622 0.930 . S
H617 C625 0.930 . S
H618 C626 0.930 . S
H619 C627 0.930 . S
H620 C630 0.930 . S
H621 C631 0.930 . S
C622 H616 0.930 . S
C622 C623 1.355 . S
C622 C624 1.415 . S
C623 C622 1.355 . S
C623 C625 1.419 . S
C624 C622 1.415 . S
C624 C629 1.425 . S
C624 C631 1.409 . S
C625 H617 0.930 . S
C625 C623 1.419 . S
C625 C626 1.362 . S
C626 H618 0.930 . S
C626 C625 1.362 . S
C626 C629 1.409 . S
C627 H619 0.930 . S
C627 C628 1.355 . S
C627 C629 1.415 . S
C628 C627 1.355 . S
C628 C630 1.419 . S
C629 C624 1.425 . S
C629 C626 1.409 . S
C629 C627 1.415 . S
C630 H620 0.930 . S
C630 C628 1.419 . S
C630 C631 1.362 . S
C631 H621 0.930 . S
C631 C624 1.409 . S
C631 C630 1.362 . S
H632 C638 0.930 . S
H633 C641 0.930 . S
H634 C642 0.930 . S
H635 C643 0.930 . S
H636 C646 0.930 . S
H637 C647 0.930 . S
C638 H632 0.930 . S
C638 C639 1.355 . S
C638 C640 1.415 . S
C639 C638 1.355 . S
C639 C641 1.419 . S
C640 C638 1.415 . S
C640 C645 1.425 . S
C640 C647 1.409 . S
C641 H633 0.930 . S
C641 C639 1.419 . S
C641 C642 1.362 . S
C642 H634 0.930 . S
C642 C641 1.362 . S
C642 C645 1.409 . S
C643 H635 0.930 . S
C643 C644 1.355 . S
C643 C645 1.415 . S
C644 C643 1.355 . S
C644 C646 1.419 . S
C645 C640 1.425 . S
C645 C642 1.409 . S
C645 C643 1.415 . S
C646 H636 0.930 . S
C646 C644 1.419 . S
C646 C647 1.362 . S
C647 H637 0.930 . S
C647 C640 1.409 . S
C647 C646 1.362 . S
H648 C654 0.930 . S
H649 C657 0.930 . S
H650 C658 0.930 . S
H651 C659 0.930 . S
H652 C662 0.930 . S
H653 C663 0.930 . S
C654 H648 0.930 . S
C654 C655 1.355 . S
C654 C656 1.415 . S
C655 C654 1.355 . S
C655 C657 1.419 . S
C656 C654 1.415 . S
C656 C661 1.425 . S
C656 C663 1.409 . S
C657 H649 0.930 . S
C657 C655 1.419 . S
C657 C658 1.362 . S
C658 H650 0.930 . S
C658 C657 1.362 . S
C658 C661 1.409 . S
C659 H651 0.930 . S
C659 C660 1.355 . S
C659 C661 1.415 . S
C660 C659 1.355 . S
C660 C662 1.419 . S
C661 C656 1.425 . S
C661 C658 1.409 . S
C661 C659 1.415 . S
C662 H652 0.930 . S
C662 C660 1.419 . S
C662 C663 1.362 . S
C663 H653 0.930 . S
C663 C656 1.409 . S
C663 C662 1.362 . S
H664 C670 0.930 . S
H665 C673 0.930 . S
H666 C674 0.930 . S
H667 C675 0.930 . S
H668 C678 0.930 . S
H669 C679 0.930 . S
C670 H664 0.930 . S
C670 C671 1.355 . S
C670 C672 1.415 . S
C671 C670 1.355 . S
C671 C673 1.419 . S
C672 C670 1.415 . S
C672 C677 1.425 1_455 S
C672 C679 1.409 . S
C673 H665 0.930 . S
C673 C671 1.419 . S
C673 C674 1.362 1_455 S
C674 H666 0.930 . S
C674 C673 1.362 1_655 S
C674 C677 1.409 . S
C675 H667 0.930 . S
C675 C676 1.355 . S
C675 C677 1.415 . S
C676 C675 1.355 . S
C676 C678 1.419 . S
C677 C672 1.425 1_655 S
C677 C674 1.409 . S
C677 C675 1.415 . S
C678 H668 0.930 . S
C678 C676 1.419 . S
C678 C679 1.362 1_655 S
C679 H669 0.930 . S
C679 C672 1.409 . S
C679 C678 1.362 1_455 S
H680 C686 0.930 . S
H681 C689 0.930 . S
H682 C690 0.930 1_565 S
H683 C691 0.930 . S
H684 C694 0.930 . S
H685 C695 0.930 1_545 S
C686 H680 0.930 . S
C686 C687 1.355 . S
C686 C688 1.415 . S
C687 C686 1.355 . S
C687 C689 1.419 . S
C688 C686 1.415 . S
C688 C693 1.425 1_545 S
C688 C695 1.409 1_545 S
C689 H681 0.930 . S
C689 C687 1.419 . S
C689 C690 1.362 . S
C690 H682 0.930 1_545 S
C690 C689 1.362 . S
C690 C693 1.409 1_545 S
C691 H683 0.930 . S
C691 C692 1.355 . S
C691 C693 1.415 . S
C692 C691 1.355 . S
C692 C694 1.419 . S
C693 C688 1.425 1_565 S
C693 C690 1.409 1_565 S
C693 C691 1.415 . S
C694 H684 0.930 . S
C694 C692 1.419 . S
C694 C695 1.362 . S
C695 H685 0.930 1_565 S
C695 C688 1.409 1_565 S
C695 C694 1.362 . S
H696 C702 0.930 . S
H697 C705 0.930 . S
H698 C706 0.930 . S
H699 C707 0.930 . S
H700 C710 0.930 . S
H701 C711 0.930 . S
C702 H696 0.930 . S
C702 C703 1.355 . S
C702 C704 1.415 . S
C703 C702 1.355 . S
C703 C705 1.419 . S
C704 C702 1.415 . S
C704 C709 1.425 . S
C704 C711 1.409 . S
C705 H697 0.930 . S
C705 C703 1.419 . S
C705 C706 1.362 . S
C706 H698 0.930 . S
C706 C705 1.362 . S
C706 C709 1.409 . S
C707 H699 0.930 . S
C707 C708 1.355 . S
C707 C709 1.415 . S
C708 C707 1.355 . S
C708 C710 1.419 . S
C709 C704 1.425 . S
C709 C706 1.409 . S
C709 C707 1.415 . S
C710 H700 0.930 . S
C710 C708 1.419 . S
C710 C711 1.362 . S
C711 H701 0.930 . S
C711 C704 1.409 . S
C711 C710 1.362 . S
H712 C718 0.930 . S
H713 C721 0.930 . S
H714 C722 0.930 1_655 S
H715 C723 0.930 . S
H716 C726 0.930 . S
H717 C727 0.930 1_455 S
C718 H712 0.930 . S
C718 C719 1.355 . S
C718 C720 1.415 . S
C719 C718 1.355 . S
C719 C721 1.419 . S
C720 C718 1.415 . S
C720 C725 1.425 1_455 S
C720 C727 1.409 1_455 S
C721 H713 0.930 . S
C721 C719 1.419 . S
C721 C722 1.362 . S
C722 H714 0.930 1_455 S
C722 C721 1.362 . S
C722 C725 1.409 1_455 S
C723 H715 0.930 . S
C723 C724 1.355 . S
C723 C725 1.415 . S
C724 C723 1.355 . S
C724 C726 1.419 . S
C725 C720 1.425 1_655 S
C725 C722 1.409 1_655 S
C725 C723 1.415 . S
C726 H716 0.930 . S
C726 C724 1.419 . S
C726 C727 1.362 . S
C727 H717 0.930 1_655 S
C727 C720 1.409 1_655 S
C727 C726 1.362 . S
H728 C734 0.935 . S
H729 C737 0.930 . S
H730 C738 0.930 . S
H731 C739 0.930 . S
H732 C742 0.930 . S
H733 C743 0.930 . S
C734 H728 0.935 . S
C734 C735 1.343 1_554 S
C734 C736 1.421 . S
C735 C734 1.343 1_556 S
C735 C737 1.419 . S
C736 C734 1.421 . S
C736 C741 1.425 1_545 S
C736 C743 1.409 . S
C737 H729 0.930 . S
C737 C735 1.419 . S
C737 C738 1.362 1_545 S
C738 H730 0.930 . S
C738 C737 1.362 1_565 S
C738 C741 1.409 1_556 S
C739 H731 0.930 . S
C739 C740 1.355 . S
C739 C741 1.415 . S
C740 C739 1.355 . S
C740 C742 1.419 . S
C741 C736 1.425 1_565 S
C741 C738 1.409 1_554 S
C741 C739 1.415 . S
C742 H732 0.930 . S
C742 C740 1.419 . S
C742 C743 1.362 1_565 S
C743 H733 0.930 . S
C743 C736 1.409 . S
C743 C742 1.362 1_545 S
H744 C750 0.930 . S
H745 C753 0.930 . S
H746 C754 0.930 . S
H747 C755 0.930 . S
H748 C758 0.930 . S
H749 C759 0.930 . S
C750 H744 0.930 . S
C750 C751 1.355 . S
C750 C752 1.415 . S
C751 C750 1.355 . S
C751 C753 1.419 . S
C752 C750 1.415 . S
C752 C757 1.425 . S
C752 C759 1.409 . S
C753 H745 0.930 . S
C753 C751 1.419 . S
C753 C754 1.362 . S
C754 H746 0.930 . S
C754 C753 1.362 . S
C754 C757 1.409 . S
C755 H747 0.930 . S
C755 C756 1.355 . S
C755 C757 1.415 . S
C756 C755 1.355 . S
C756 C758 1.419 . S
C757 C752 1.425 . S
C757 C754 1.409 . S
C757 C755 1.415 . S
C758 H748 0.930 . S
C758 C756 1.419 . S
C758 C759 1.362 . S
C759 H749 0.930 . S
C759 C752 1.409 . S
C759 C758 1.362 . S
H760 C766 0.930 . S
H761 C769 0.930 . S
H762 C770 0.930 . S
H763 C771 0.930 . S
H764 C774 0.930 . S
H765 C775 0.930 . S
C766 H760 0.930 . S
C766 C767 1.355 . S
C766 C768 1.415 . S
C767 C766 1.355 . S
C767 C769 1.419 . S
C768 C766 1.415 . S
C768 C773 1.425 . S
C768 C775 1.409 . S
C769 H761 0.930 . S
C769 C767 1.419 . S
C769 C770 1.362 . S
C770 H762 0.930 . S
C770 C769 1.362 . S
C770 C773 1.409 . S
C771 H763 0.930 . S
C771 C772 1.355 . S
C771 C773 1.415 . S
C772 C771 1.355 . S
C772 C774 1.419 . S
C773 C768 1.425 . S
C773 C770 1.409 . S
C773 C771 1.415 . S
C774 H764 0.930 . S
C774 C772 1.419 . S
C774 C775 1.362 . S
C775 H765 0.930 . S
C775 C768 1.409 . S
C775 C774 1.362 . S
H776 C782 0.930 . S
H777 C785 0.930 . S
H778 C786 0.930 . S
H779 C787 0.930 . S
H780 C790 0.930 . S
H781 C791 0.930 . S
C782 H776 0.930 . S
C782 C783 1.355 . S
C782 C784 1.415 . S
C783 C782 1.355 . S
C783 C785 1.419 . S
C784 C782 1.415 . S
C784 C789 1.425 . S
C784 C791 1.409 . S
C785 H777 0.930 . S
C785 C783 1.419 . S
C785 C786 1.362 . S
C786 H778 0.930 . S
C786 C785 1.362 . S
C786 C789 1.409 . S
C787 H779 0.930 . S
C787 C788 1.355 . S
C787 C789 1.415 . S
C788 C787 1.355 . S
C788 C790 1.419 . S
C789 C784 1.425 . S
C789 C786 1.409 . S
C789 C787 1.415 . S
C790 H780 0.930 . S
C790 C788 1.419 . S
C790 C791 1.362 . S
C791 H781 0.930 . S
C791 C784 1.409 . S
C791 C790 1.362 . S
H792 C798 0.930 . S
H793 C801 0.930 . S
H794 C802 0.930 . S
H795 C803 0.930 . S
H796 C806 0.930 . S
H797 C807 0.930 . S
C798 H792 0.930 . S
C798 C799 1.355 . S
C798 C800 1.415 . S
C799 C798 1.355 . S
C799 C801 1.419 . S
C800 C798 1.415 . S
C800 C805 1.425 . S
C800 C807 1.409 . S
C801 H793 0.930 . S
C801 C799 1.419 . S
C801 C802 1.362 . S
C802 H794 0.930 . S
C802 C801 1.362 . S
C802 C805 1.409 . S
C803 H795 0.930 . S
C803 C804 1.355 . S
C803 C805 1.415 . S
C804 C803 1.355 . S
C804 C806 1.419 . S
C805 C800 1.425 . S
C805 C802 1.409 . S
C805 C803 1.415 . S
C806 H796 0.930 . S
C806 C804 1.419 . S
C806 C807 1.362 . S
C807 H797 0.930 . S
C807 C800 1.409 . S
C807 C806 1.362 . S
H808 C814 0.930 . S
H809 C817 0.930 . S
H810 C818 0.930 . S
H811 C819 0.930 . S
H812 C822 0.930 . S
H813 C823 0.930 . S
C814 H808 0.930 . S
C814 C815 1.355 . S
C814 C816 1.415 . S
C815 C814 1.355 . S
C815 C817 1.419 . S
C816 C814 1.415 . S
C816 C821 1.425 . S
C816 C823 1.409 . S
C817 H809 0.930 . S
C817 C815 1.419 . S
C817 C818 1.362 . S
C818 H810 0.930 . S
C818 C817 1.362 . S
C818 C821 1.409 . S
C819 H811 0.930 . S
C819 C820 1.355 1_556 S
C819 C821 1.415 . S
C820 C819 1.355 1_554 S
C820 C822 1.419 . S
C821 C816 1.425 . S
C821 C818 1.409 . S
C821 C819 1.415 . S
C822 H812 0.930 . S
C822 C820 1.419 . S
C822 C823 1.362 1_554 S
C823 H813 0.930 . S
C823 C816 1.409 . S
C823 C822 1.362 1_556 S
H824 C830 0.930 . S
H825 C833 0.930 . S
H826 C834 0.930 . S
H827 C835 0.930 . S
H828 C838 0.930 . S
H829 C839 0.930 . S
C830 H824 0.930 . S
C830 C831 1.355 . S
C830 C832 1.415 . S
C831 C830 1.355 . S
C831 C833 1.419 . S
C832 C830 1.415 . S
C832 C837 1.425 . S
C832 C839 1.409 . S
C833 H825 0.930 . S
C833 C831 1.419 . S
C833 C834 1.362 . S
C834 H826 0.930 . S
C834 C833 1.362 . S
C834 C837 1.409 . S
C835 H827 0.930 . S
C835 C836 1.355 . S
C835 C837 1.415 . S
C836 C835 1.355 . S
C836 C838 1.419 . S
C837 C832 1.425 . S
C837 C834 1.409 . S
C837 C835 1.415 . S
C838 H828 0.930 . S
C838 C836 1.419 . S
C838 C839 1.362 . S
C839 H829 0.930 . S
C839 C832 1.409 . S
C839 C838 1.362 . S
C271 C229 1.262 . S
C276 C5 1.263 . S
C287 C31 1.249 . S
C292 C247 1.265 . S
C303 C141 1.262 1_554 S
C308 C49 1.263 . S
C319 C75 1.268 . S
C324 C159 1.250 . S
C335 C93 1.260 . S
C340 C185 1.251 . S
C351 C203 1.260 . S
C356 C119 1.264 . S
C367 C6 1.327 . S
C372 C116 1.393 . S
C383 C29 1.262 . S
C388 C7 1.358 . S
C399 C28 1.358 . S
C404 C50 1.262 . S
C415 C73 1.271 . S
C420 C51 1.363 . S
C431 C94 1.213 . S
C436 C72 1.334 . S
C447 C117 1.218 . S
C452 C95 1.337 . S
C463 C139 1.282 . S
C468 C161 1.369 . S
C479 C160 1.332 . S
C484 C182 1.395 . S
C495 C183 1.293 . S
C500 C205 1.375 . S
C511 C226 1.342 . S
C516 C204 1.230 . S
C527 C249 1.374 . S
C532 C227 1.290 . S
C543 C138 1.375 . S
C548 C248 1.295 . S
C559 C4 1.307 . S
C564 C140 1.312 . S
C575 C158 1.334 . S
C580 C30 1.335 . S
C591 C48 1.322 . S
C596 C184 1.317 . S
C607 C74 1.310 . S
C612 C202 1.305 . S
C623 C228 1.326 . S
C628 C92 1.322 . S
C639 C118 1.334 . S
C644 C246 1.335 . S
C655 C9 1.271 . S
C660 C207 1.253 . S
C671 C225 1.189 . S
C676 C27 1.188 . S
C687 C251 1.236 . S
C692 C53 1.171 . S
C703 C71 1.212 . S
C708 C137 1.278 . S
C719 C97 1.239 . S
C724 C163 1.172 . S
C735 C115 1.192 . S
C740 C181 1.185 . S
C751 C224 1.840 . S
C756 C8 1.852 . S
C767 C250 1.837 . S
C772 C26 1.855 . S
C783 C136 1.843 . S
C788 C52 1.853 . S
C799 C162 1.852 . S
C804 C70 1.844 . S
C815 C96 1.836 . S
C820 C180 1.858 . S
C831 C114 1.857 1_554 S
C836 C206 1.838 . S
