# Generated by pormake.
# Topology umr, (4)-cn, num edge types: 1
# Building blocks:
#     Node 0, Type 0, BuildingBlock: GALJAG_clean_sbu_0, # of connection points: 4
#     Node 1, Type 0, BuildingBlock: GALJAG_clean_sbu_0, # of connection points: 4
#     Node 2, Type 0, BuildingBlock: GALJAG_clean_sbu_0, # of connection points: 4
#     Node 3, Type 0, BuildingBlock: GALJAG_clean_sbu_0, # of connection points: 4
#     Node 4, Type 0, BuildingBlock: GALJAG_clean_sbu_0, # of connection points: 4
#     Node 5, Type 0, BuildingBlock: GALJAG_clean_sbu_0, # of connection points: 4
#     Node 6, Type 0, BuildingBlock: GALJAG_clean_sbu_0, # of connection points: 4
#     Node 7, Type 0, BuildingBlock: GALJAG_clean_sbu_0, # of connection points: 4
#     Node 8, Type 0, BuildingBlock: GALJAG_clean_sbu_0, # of connection points: 4
#     Node 9, Type 0, BuildingBlock: GALJAG_clean_sbu_0, # of connection points: 4
#     Node 10, Type 0, BuildingBlock: GALJAG_clean_sbu_0, # of connection points: 4
#     Node 11, Type 0, BuildingBlock: GALJAG_clean_sbu_0, # of connection points: 4
#     Node 12, Type 0, BuildingBlock: GALJAG_clean_sbu_0, # of connection points: 4
#     Node 13, Type 0, BuildingBlock: GALJAG_clean_sbu_0, # of connection points: 4
#     Node 14, Type 0, BuildingBlock: GALJAG_clean_sbu_0, # of connection points: 4
#     Node 15, Type 0, BuildingBlock: GALJAG_clean_sbu_0, # of connection points: 4
#     Node 16, Type 0, BuildingBlock: GALJAG_clean_sbu_0, # of connection points: 4
#     Node 17, Type 0, BuildingBlock: GALJAG_clean_sbu_0, # of connection points: 4
#     Node 18, Type 0, BuildingBlock: GALJAG_clean_sbu_0, # of connection points: 4
#     Node 19, Type 0, BuildingBlock: GALJAG_clean_sbu_0, # of connection points: 4
#     Node 20, Type 0, BuildingBlock: GALJAG_clean_sbu_0, # of connection points: 4
#     Node 21, Type 0, BuildingBlock: GALJAG_clean_sbu_0, # of connection points: 4
#     Node 22, Type 0, BuildingBlock: GALJAG_clean_sbu_0, # of connection points: 4
#     Node 23, Type 0, BuildingBlock: GALJAG_clean_sbu_0, # of connection points: 4
#     Node 24, Type 0, BuildingBlock: GALJAG_clean_sbu_0, # of connection points: 4
#     Node 25, Type 0, BuildingBlock: GALJAG_clean_sbu_0, # of connection points: 4
#     Node 26, Type 0, BuildingBlock: GALJAG_clean_sbu_0, # of connection points: 4
#     Node 27, Type 0, BuildingBlock: GALJAG_clean_sbu_0, # of connection points: 4
#     Node 28, Type 0, BuildingBlock: GALJAG_clean_sbu_0, # of connection points: 4
#     Node 29, Type 0, BuildingBlock: GALJAG_clean_sbu_0, # of connection points: 4
#     Node 30, Type 0, BuildingBlock: GALJAG_clean_sbu_0, # of connection points: 4
#     Node 31, Type 0, BuildingBlock: GALJAG_clean_sbu_0, # of connection points: 4
#     Edge 32, Type (0, 0), BuildingBlock: KIFKEQ_clean_linker_1, # of connection points: 2
#     Edge 33, Type (0, 0), BuildingBlock: KIFKEQ_clean_linker_1, # of connection points: 2
#     Edge 34, Type (0, 0), BuildingBlock: KIFKEQ_clean_linker_1, # of connection points: 2
#     Edge 35, Type (0, 0), BuildingBlock: KIFKEQ_clean_linker_1, # of connection points: 2
#     Edge 36, Type (0, 0), BuildingBlock: KIFKEQ_clean_linker_1, # of connection points: 2
#     Edge 37, Type (0, 0), BuildingBlock: KIFKEQ_clean_linker_1, # of connection points: 2
#     Edge 38, Type (0, 0), BuildingBlock: KIFKEQ_clean_linker_1, # of connection points: 2
#     Edge 39, Type (0, 0), BuildingBlock: KIFKEQ_clean_linker_1, # of connection points: 2
#     Edge 40, Type (0, 0), BuildingBlock: KIFKEQ_clean_linker_1, # of connection points: 2
#     Edge 41, Type (0, 0), BuildingBlock: KIFKEQ_clean_linker_1, # of connection points: 2
#     Edge 42, Type (0, 0), BuildingBlock: KIFKEQ_clean_linker_1, # of connection points: 2
#     Edge 43, Type (0, 0), BuildingBlock: KIFKEQ_clean_linker_1, # of connection points: 2
#     Edge 44, Type (0, 0), BuildingBlock: KIFKEQ_clean_linker_1, # of connection points: 2
#     Edge 45, Type (0, 0), BuildingBlock: KIFKEQ_clean_linker_1, # of connection points: 2
#     Edge 46, Type (0, 0), BuildingBlock: KIFKEQ_clean_linker_1, # of connection points: 2
#     Edge 47, Type (0, 0), BuildingBlock: KIFKEQ_clean_linker_1, # of connection points: 2
#     Edge 48, Type (0, 0), BuildingBlock: KIFKEQ_clean_linker_1, # of connection points: 2
#     Edge 49, Type (0, 0), BuildingBlock: KIFKEQ_clean_linker_1, # of connection points: 2
#     Edge 50, Type (0, 0), BuildingBlock: KIFKEQ_clean_linker_1, # of connection points: 2
#     Edge 51, Type (0, 0), BuildingBlock: KIFKEQ_clean_linker_1, # of connection points: 2
#     Edge 52, Type (0, 0), BuildingBlock: KIFKEQ_clean_linker_1, # of connection points: 2
#     Edge 53, Type (0, 0), BuildingBlock: KIFKEQ_clean_linker_1, # of connection points: 2
#     Edge 54, Type (0, 0), BuildingBlock: KIFKEQ_clean_linker_1, # of connection points: 2
#     Edge 55, Type (0, 0), BuildingBlock: KIFKEQ_clean_linker_1, # of connection points: 2
#     Edge 56, Type (0, 0), BuildingBlock: KIFKEQ_clean_linker_1, # of connection points: 2
#     Edge 57, Type (0, 0), BuildingBlock: KIFKEQ_clean_linker_1, # of connection points: 2
#     Edge 58, Type (0, 0), BuildingBlock: KIFKEQ_clean_linker_1, # of connection points: 2
#     Edge 59, Type (0, 0), BuildingBlock: KIFKEQ_clean_linker_1, # of connection points: 2
#     Edge 60, Type (0, 0), BuildingBlock: KIFKEQ_clean_linker_1, # of connection points: 2
#     Edge 61, Type (0, 0), BuildingBlock: KIFKEQ_clean_linker_1, # of connection points: 2
#     Edge 62, Type (0, 0), BuildingBlock: KIFKEQ_clean_linker_1, # of connection points: 2
#     Edge 63, Type (0, 0), BuildingBlock: KIFKEQ_clean_linker_1, # of connection points: 2
#     Edge 64, Type (0, 0), BuildingBlock: KIFKEQ_clean_linker_1, # of connection points: 2
#     Edge 65, Type (0, 0), BuildingBlock: KIFKEQ_clean_linker_1, # of connection points: 2
#     Edge 66, Type (0, 0), BuildingBlock: KIFKEQ_clean_linker_1, # of connection points: 2
#     Edge 67, Type (0, 0), BuildingBlock: KIFKEQ_clean_linker_1, # of connection points: 2
#     Edge 68, Type (0, 0), BuildingBlock: KIFKEQ_clean_linker_1, # of connection points: 2
#     Edge 69, Type (0, 0), BuildingBlock: KIFKEQ_clean_linker_1, # of connection points: 2
#     Edge 70, Type (0, 0), BuildingBlock: KIFKEQ_clean_linker_1, # of connection points: 2
#     Edge 71, Type (0, 0), BuildingBlock: KIFKEQ_clean_linker_1, # of connection points: 2
#     Edge 72, Type (0, 0), BuildingBlock: KIFKEQ_clean_linker_1, # of connection points: 2
#     Edge 73, Type (0, 0), BuildingBlock: KIFKEQ_clean_linker_1, # of connection points: 2
#     Edge 74, Type (0, 0), BuildingBlock: KIFKEQ_clean_linker_1, # of connection points: 2
#     Edge 75, Type (0, 0), BuildingBlock: KIFKEQ_clean_linker_1, # of connection points: 2
#     Edge 76, Type (0, 0), BuildingBlock: KIFKEQ_clean_linker_1, # of connection points: 2
#     Edge 77, Type (0, 0), BuildingBlock: KIFKEQ_clean_linker_1, # of connection points: 2
#     Edge 78, Type (0, 0), BuildingBlock: KIFKEQ_clean_linker_1, # of connection points: 2
#     Edge 79, Type (0, 0), BuildingBlock: KIFKEQ_clean_linker_1, # of connection points: 2
#     Edge 80, Type (0, 0), BuildingBlock: KIFKEQ_clean_linker_1, # of connection points: 2
#     Edge 81, Type (0, 0), BuildingBlock: KIFKEQ_clean_linker_1, # of connection points: 2
#     Edge 82, Type (0, 0), BuildingBlock: KIFKEQ_clean_linker_1, # of connection points: 2
#     Edge 83, Type (0, 0), BuildingBlock: KIFKEQ_clean_linker_1, # of connection points: 2
#     Edge 84, Type (0, 0), BuildingBlock: KIFKEQ_clean_linker_1, # of connection points: 2
#     Edge 85, Type (0, 0), BuildingBlock: KIFKEQ_clean_linker_1, # of connection points: 2
#     Edge 86, Type (0, 0), BuildingBlock: KIFKEQ_clean_linker_1, # of connection points: 2
#     Edge 87, Type (0, 0), BuildingBlock: KIFKEQ_clean_linker_1, # of connection points: 2
#     Edge 88, Type (0, 0), BuildingBlock: KIFKEQ_clean_linker_1, # of connection points: 2
#     Edge 89, Type (0, 0), BuildingBlock: KIFKEQ_clean_linker_1, # of connection points: 2
#     Edge 90, Type (0, 0), BuildingBlock: KIFKEQ_clean_linker_1, # of connection points: 2
#     Edge 91, Type (0, 0), BuildingBlock: KIFKEQ_clean_linker_1, # of connection points: 2
#     Edge 92, Type (0, 0), BuildingBlock: KIFKEQ_clean_linker_1, # of connection points: 2
#     Edge 93, Type (0, 0), BuildingBlock: KIFKEQ_clean_linker_1, # of connection points: 2
#     Edge 94, Type (0, 0), BuildingBlock: KIFKEQ_clean_linker_1, # of connection points: 2
#     Edge 95, Type (0, 0), BuildingBlock: KIFKEQ_clean_linker_1, # of connection points: 2
# Relax obj value: 0.027
# Max RMSD: 0.060
# Mean RMSD: 0.060
data_MOF--net-umr--node1-GALJAG_clean_sbu_0--edge1-KIFKEQ_clean_linker_1
_symmetry_space_group_name_H-M    P1
_symmetry_Int_Tables_number       1
_symmetry_cell_setting            triclinic
loop_
_symmetry_equiv_pos_as_xyz
'x, y, z'
_cell_length_a     82.70762
_cell_length_b     82.655903
_cell_length_c     28.671502
_cell_angle_alpha  89.99987
_cell_angle_beta   89.953789
_cell_angle_gamma 89.984576
loop_
_atom_site_label
_atom_site_type_symbol
_atom_site_fract_x
_atom_site_fract_y
_atom_site_fract_z
_atom_type_partial_charge
In0 In 0.14937 0.27414 0.04657 0.0
O1 O 0.14175 0.25389 0.09667 0.0
O2 O 0.15549 0.27361 0.12342 0.0
C3 C 0.14146 0.26289 0.96109 0.0
C4 C 0.12737 0.29702 0.06609 0.0
C5 C 0.18142 0.27701 0.03344 0.0
O6 O 0.14222 0.25375 0.99637 0.0
O7 O 0.14416 0.27761 0.96944 0.0
O8 O 0.17209 0.28913 0.03294 0.0
O9 O 0.17456 0.26363 0.04095 0.0
C10 C 0.14823 0.26051 0.13184 0.0
O11 O 0.14195 0.30047 0.05745 0.0
O12 O 0.12388 0.28219 0.0631 0.0
In13 In 0.96363 0.90069 0.29868 0.0
O14 O 0.93731 0.89378 0.31128 0.0
O15 O 0.95531 0.87538 0.31619 0.0
C16 C 0.96108 0.93271 0.28455 0.0
C17 C 0.97768 0.89948 0.38309 0.0
C18 C 0.97426 0.8924 0.21306 0.0
O19 O 0.94889 0.92349 0.28425 0.0
O20 O 0.97438 0.92577 0.29247 0.0
O21 O 0.98368 0.89346 0.24762 0.0
O22 O 0.95958 0.89494 0.22229 0.0
C23 C 0.94058 0.87914 0.31995 0.0
O24 O 0.98398 0.89276 0.34779 0.0
O25 O 0.96471 0.90703 0.37515 0.0
In26 In 0.33753 0.70936 0.54496 0.0
O27 O 0.34269 0.6827 0.55823 0.0
O28 O 0.36259 0.69905 0.55653 0.0
C29 C 0.30566 0.70724 0.52839 0.0
C30 C 0.33901 0.72255 0.63114 0.0
C31 C 0.34573 0.72106 0.46009 0.0
O32 O 0.31481 0.69501 0.52759 0.0
O33 O 0.31258 0.72042 0.53816 0.0
O34 O 0.3445 0.73011 0.49548 0.0
O35 O 0.34348 0.70625 0.46818 0.0
C36 C 0.35776 0.6847 0.56238 0.0
O37 O 0.34693 0.72832 0.5972 0.0
O38 O 0.33029 0.71054 0.62109 0.0
In39 In 0.52672 0.08619 0.79986 0.0
O40 O 0.55297 0.09376 0.81142 0.0
O41 O 0.53457 0.11179 0.81499 0.0
C42 C 0.52904 0.05407 0.78738 0.0
C43 C 0.51299 0.08776 0.88474 0.0
C44 C 0.5159 0.09389 0.71405 0.0
O45 O 0.54134 0.06315 0.78695 0.0
O46 O 0.51579 0.06121 0.79463 0.0
O47 O 0.50661 0.09337 0.74907 0.0
O48 O 0.53055 0.09105 0.72284 0.0
C49 C 0.54939 0.10841 0.81885 0.0
O50 O 0.50644 0.0941 0.84928 0.0
O51 O 0.52608 0.08039 0.8768 0.0
In52 In 0.15471 0.70683 0.44218 0.0
O53 O 0.14717 0.7268 0.3904 0.0
O54 O 0.15692 0.70478 0.36396 0.0
C55 C 0.14776 0.71817 0.52816 0.0
C56 C 0.13337 0.68278 0.43151 0.0
C57 C 0.18699 0.70531 0.45151 0.0
O58 O 0.14657 0.72701 0.49223 0.0
O59 O 0.15203 0.70379 0.52018 0.0
O60 O 0.17805 0.69302 0.45604 0.0
O61 O 0.17965 0.71824 0.4416 0.0
C62 C 0.15104 0.71849 0.35494 0.0
O63 O 0.14847 0.68042 0.43032 0.0
O64 O 0.12911 0.6972 0.43955 0.0
In65 In 0.52658 0.90252 0.70483 0.0
O66 O 0.50682 0.89279 0.65581 0.0
O67 O 0.52561 0.90731 0.62726 0.0
C68 C 0.51525 0.89521 0.79062 0.0
C69 C 0.55095 0.88179 0.68892 0.0
C70 C 0.52875 0.93471 0.71684 0.0
O71 O 0.50616 0.8955 0.75516 0.0
O72 O 0.52992 0.8982 0.78235 0.0
O73 O 0.54084 0.92548 0.72084 0.0
O74 O 0.51569 0.9277 0.70643 0.0
C75 C 0.51302 0.89912 0.6198 0.0
O76 O 0.55285 0.89694 0.68748 0.0
O77 O 0.53689 0.87717 0.69973 0.0
In78 In 0.33307 0.27849 0.9535 0.0
O79 O 0.33825 0.30478 0.93515 0.0
O80 O 0.35821 0.28922 0.94891 0.0
C81 C 0.30084 0.27991 0.965 0.0
C82 C 0.33688 0.26485 0.86876 0.0
C83 C 0.34025 0.26738 0.03947 0.0
O84 O 0.30975 0.29223 0.96929 0.0
O85 O 0.30819 0.26703 0.95454 0.0
O86 O 0.34027 0.25824 0.00406 0.0
O87 O 0.33707 0.282 0.03102 0.0
C88 C 0.35342 0.30312 0.93713 0.0
O89 O 0.3434 0.25891 0.90483 0.0
O90 O 0.3283 0.2772 0.87606 0.0
In91 In 0.95804 0.08487 0.21406 0.0
O92 O 0.97849 0.09471 0.16717 0.0
O93 O 0.95941 0.08116 0.13635 0.0
C94 C 0.9666 0.09135 0.30291 0.0
C95 C 0.93326 0.10497 0.19725 0.0
C96 C 0.95769 0.05252 0.22176 0.0
O97 O 0.97611 0.09406 0.26915 0.0
O98 O 0.95297 0.08583 0.29139 0.0
O99 O 0.94495 0.06092 0.2236 0.0
O100 O 0.97057 0.06044 0.2156 0.0
C101 C 0.97227 0.08905 0.13024 0.0
O102 O 0.93178 0.08978 0.19541 0.0
O103 O 0.94708 0.10994 0.20915 0.0
In104 In 0.83326 0.71074 0.95045 0.0
O105 O 0.83871 0.68435 0.93444 0.0
O106 O 0.85851 0.70037 0.94626 0.0
C107 C 0.80126 0.70707 0.96365 0.0
C108 C 0.83748 0.7237 0.865 0.0
C109 C 0.84015 0.72434 0.03362 0.0
O110 O 0.81121 0.69592 0.97281 0.0
O111 O 0.80748 0.71982 0.94751 0.0
O112 O 0.83601 0.73266 0.99863 0.0
O113 O 0.84131 0.70937 0.02611 0.0
C114 C 0.85387 0.68626 0.93601 0.0
O115 O 0.84392 0.72984 0.9009 0.0
O116 O 0.82878 0.71148 0.87274 0.0
In117 In 0.02274 0.08793 0.71445 0.0
O118 O 0.00701 0.10227 0.66254 0.0
O119 O 0.01136 0.0775 0.64862 0.0
C120 C 0.01299 0.09666 0.80082 0.0
C121 C 0.04848 0.1059 0.68981 0.0
C122 C 0.02613 0.05631 0.73331 0.0
O123 O 0.0034 0.0962 0.76652 0.0
O124 O 0.02747 0.09325 0.79105 0.0
O125 O 0.03791 0.06492 0.71993 0.0
O126 O 0.0128 0.06367 0.73666 0.0
C127 C 0.00503 0.09052 0.63511 0.0
O128 O 0.04818 0.09075 0.6842 0.0
O129 O 0.03606 0.11177 0.70889 0.0
In130 In 0.65447 0.2811 0.45169 0.0
O131 O 0.64423 0.26138 0.40346 0.0
O132 O 0.65841 0.28026 0.37382 0.0
C133 C 0.64773 0.27005 0.53801 0.0
C134 C 0.6337 0.3055 0.43684 0.0
C135 C 0.68679 0.2822 0.46074 0.0
O136 O 0.64719 0.26097 0.50252 0.0
O137 O 0.65128 0.28459 0.52955 0.0
O138 O 0.67804 0.29459 0.46618 0.0
O139 O 0.67923 0.26943 0.45045 0.0
C140 C 0.65016 0.26766 0.36698 0.0
O141 O 0.64883 0.30739 0.43403 0.0
O142 O 0.6292 0.29151 0.44876 0.0
In143 In 0.45975 0.9012 0.20547 0.0
O144 O 0.47946 0.89179 0.15564 0.0
O145 O 0.46069 0.90661 0.12828 0.0
C146 C 0.47097 0.89352 0.29105 0.0
C147 C 0.43535 0.88064 0.18851 0.0
C148 C 0.45789 0.93333 0.21889 0.0
O149 O 0.48007 0.89376 0.25555 0.0
O150 O 0.45633 0.89667 0.28286 0.0
O151 O 0.44568 0.92422 0.22221 0.0
O152 O 0.4709 0.92622 0.20844 0.0
C153 C 0.47326 0.89846 0.12014 0.0
O154 O 0.43346 0.89581 0.18828 0.0
O155 O 0.44942 0.8759 0.19873 0.0
In156 In 0.838 0.27285 0.54219 0.0
O157 O 0.85294 0.25713 0.59262 0.0
O158 O 0.82839 0.26182 0.60929 0.0
C159 C 0.84598 0.26264 0.45557 0.0
C160 C 0.85576 0.29852 0.56833 0.0
C161 C 0.80624 0.27644 0.52631 0.0
O162 O 0.84522 0.25309 0.48991 0.0
O163 O 0.84322 0.27723 0.4654 0.0
O164 O 0.81571 0.28844 0.5286 0.0
O165 O 0.81284 0.26282 0.53228 0.0
C166 C 0.84151 0.25533 0.62133 0.0
O167 O 0.84068 0.29791 0.57498 0.0
O168 O 0.86166 0.28642 0.54763 0.0
In169 In 0.46085 0.08488 0.30044 0.0
O170 O 0.43452 0.09217 0.31202 0.0
O171 O 0.45269 0.11044 0.31478 0.0
C172 C 0.45844 0.0527 0.28918 0.0
C173 C 0.47464 0.08708 0.38508 0.0
C174 C 0.47171 0.09237 0.21444 0.0
O175 O 0.44619 0.06185 0.2881 0.0
O176 O 0.4717 0.05979 0.29644 0.0
O177 O 0.481 0.0918 0.24939 0.0
O178 O 0.45704 0.08963 0.22334 0.0
C179 C 0.43792 0.10689 0.31893 0.0
O180 O 0.48108 0.0933 0.34923 0.0
O181 O 0.46166 0.07949 0.37764 0.0
In182 In 0.65057 0.70968 0.05327 0.0
O183 O 0.64257 0.72982 0.10321 0.0
O184 O 0.65636 0.71019 0.13033 0.0
C185 C 0.64292 0.72072 0.9675 0.0
C186 C 0.62846 0.68684 0.07121 0.0
C187 C 0.68265 0.70704 0.04092 0.0
O188 O 0.64359 0.72996 0.0026 0.0
O189 O 0.64562 0.70602 0.97615 0.0
O190 O 0.67349 0.69479 0.04151 0.0
O191 O 0.6756 0.72041 0.04706 0.0
C192 C 0.64894 0.72322 0.13857 0.0
O193 O 0.64312 0.68336 0.06361 0.0
O194 O 0.62502 0.70167 0.06809 0.0
In195 In 0.0285 0.90376 0.79936 0.0
O196 O 0.05494 0.89636 0.80875 0.0
O197 O 0.03662 0.87832 0.81455 0.0
C198 C 0.02974 0.93599 0.78805 0.0
C199 C 0.01433 0.90149 0.88358 0.0
C200 C 0.01857 0.89596 0.71288 0.0
O201 O 0.04235 0.92768 0.79497 0.0
O202 O 0.01672 0.92804 0.78741 0.0
O203 O 0.00909 0.8959 0.74751 0.0
O204 O 0.03304 0.89951 0.72231 0.0
C205 C 0.05145 0.88172 0.81697 0.0
O206 O 0.00817 0.8951 0.84763 0.0
O207 O 0.02716 0.90935 0.87639 0.0
In208 In 0.65231 0.77622 0.55384 0.0
O209 O 0.64242 0.75649 0.60271 0.0
O210 O 0.6578 0.77464 0.63089 0.0
C211 C 0.6449 0.76491 0.46825 0.0
C212 C 0.63172 0.80059 0.57122 0.0
C213 C 0.68436 0.77863 0.53996 0.0
O214 O 0.64549 0.75576 0.50356 0.0
O215 O 0.64755 0.77964 0.47664 0.0
O216 O 0.67504 0.79069 0.53696 0.0
O217 O 0.67751 0.76549 0.55052 0.0
C218 C 0.64926 0.76228 0.63845 0.0
O219 O 0.64687 0.80241 0.57254 0.0
O220 O 0.62702 0.78661 0.55978 0.0
In221 In 0.45926 0.40149 0.78836 0.0
O222 O 0.4789 0.39159 0.83766 0.0
O223 O 0.46138 0.40784 0.86489 0.0
C224 C 0.46953 0.39283 0.70261 0.0
C225 C 0.4345 0.38151 0.80691 0.0
C226 C 0.45814 0.43355 0.77297 0.0
O227 O 0.47886 0.39303 0.73755 0.0
O228 O 0.45505 0.39656 0.71137 0.0
O229 O 0.4455 0.42515 0.778 0.0
O230 O 0.47124 0.42578 0.77609 0.0
C231 C 0.47346 0.39899 0.87294 0.0
O232 O 0.43279 0.39668 0.80527 0.0
O233 O 0.44854 0.37647 0.7976 0.0
In234 In 0.83451 0.20891 0.04107 0.0
O235 O 0.8443 0.22918 0.08851 0.0
O236 O 0.82953 0.21074 0.11807 0.0
C237 C 0.84225 0.2171 0.95282 0.0
C238 C 0.85438 0.18424 0.0611 0.0
C239 C 0.8023 0.20875 0.02981 0.0
O240 O 0.84403 0.22692 0.98633 0.0
O241 O 0.83701 0.20335 0.96434 0.0
O242 O 0.81061 0.19593 0.02937 0.0
O243 O 0.81024 0.22161 0.03628 0.0
C244 C 0.83783 0.2233 0.12483 0.0
O245 O 0.83918 0.1827 0.06133 0.0
O246 O 0.85946 0.19802 0.04913 0.0
In247 In 0.02563 0.58442 0.2947 0.0
O248 O 0.00633 0.5951 0.34366 0.0
O249 O 0.02378 0.57889 0.37164 0.0
C250 C 0.01469 0.59262 0.2093 0.0
C251 C 0.05057 0.6041 0.3132 0.0
C252 C 0.02707 0.55229 0.2808 0.0
O253 O 0.00541 0.59176 0.24432 0.0
O254 O 0.02936 0.58976 0.21787 0.0
O255 O 0.03937 0.56127 0.27725 0.0
O256 O 0.01417 0.55953 0.29163 0.0
C257 C 0.01184 0.58798 0.37933 0.0
O258 O 0.05192 0.58889 0.31406 0.0
O259 O 0.03682 0.60931 0.30148 0.0
In260 In 0.65046 0.21478 0.95339 0.0
O261 O 0.64353 0.18832 0.94301 0.0
O262 O 0.6251 0.20624 0.93728 0.0
C263 C 0.68253 0.2123 0.96658 0.0
C264 C 0.64916 0.22818 0.86788 0.0
C265 C 0.6423 0.22597 0.03872 0.0
O266 O 0.67331 0.20012 0.96775 0.0
O267 O 0.67557 0.22558 0.9584 0.0
O268 O 0.64305 0.23513 0.00347 0.0
O269 O 0.64516 0.21128 0.03037 0.0
C270 C 0.62887 0.19147 0.93462 0.0
O271 O 0.6427 0.23488 0.90298 0.0
O272 O 0.65645 0.21511 0.87647 0.0
In273 In 0.02364 0.40044 0.20332 0.0
O274 O 0.00338 0.39293 0.15323 0.0
O275 O 0.02359 0.40588 0.12608 0.0
C276 C 0.01241 0.39284 0.28903 0.0
C277 C 0.04652 0.37828 0.18548 0.0
C278 C 0.02603 0.43261 0.21476 0.0
O279 O 0.00335 0.39297 0.25353 0.0
O280 O 0.02704 0.39605 0.28082 0.0
O281 O 0.03827 0.42346 0.21603 0.0
O282 O 0.01277 0.42552 0.20742 0.0
C283 C 0.01031 0.39894 0.11782 0.0
O284 O 0.04996 0.39295 0.19309 0.0
O285 O 0.0317 0.37482 0.1886 0.0
In286 In 0.83527 0.77705 0.45168 0.0
O287 O 0.84048 0.75638 0.40042 0.0
O288 O 0.83285 0.7792 0.37351 0.0
C289 C 0.84311 0.76559 0.53677 0.0
C290 C 0.85803 0.79949 0.43742 0.0
C291 C 0.80307 0.77956 0.46241 0.0
O292 O 0.84338 0.7567 0.50086 0.0
O293 O 0.83927 0.78011 0.52924 0.0
O294 O 0.81228 0.79172 0.465 0.0
O295 O 0.8101 0.76636 0.45376 0.0
C296 C 0.83732 0.76492 0.36487 0.0
O297 O 0.84336 0.80322 0.44378 0.0
O298 O 0.86117 0.78456 0.43996 0.0
In299 In 0.46229 0.58647 0.71386 0.0
O300 O 0.47506 0.60377 0.66286 0.0
O301 O 0.47829 0.57862 0.65305 0.0
C302 C 0.47109 0.59408 0.80172 0.0
C303 C 0.4356 0.60331 0.69163 0.0
C304 C 0.45961 0.55431 0.72518 0.0
O305 O 0.48072 0.5954 0.76763 0.0
O306 O 0.45708 0.58937 0.79107 0.0
O307 O 0.44792 0.5628 0.71063 0.0
O308 O 0.47243 0.56206 0.73349 0.0
C309 C 0.48107 0.59267 0.63828 0.0
O310 O 0.43802 0.58917 0.67636 0.0
O311 O 0.44633 0.60853 0.71898 0.0
In312 In 0.33572 0.21206 0.45461 0.0
O313 O 0.34361 0.2322 0.4045 0.0
O314 O 0.32965 0.21265 0.37772 0.0
C315 C 0.34378 0.22329 0.53996 0.0
C316 C 0.35752 0.18898 0.43552 0.0
C317 C 0.30369 0.20915 0.46808 0.0
O318 O 0.34273 0.23249 0.50485 0.0
O319 O 0.34127 0.20855 0.53149 0.0
O320 O 0.31304 0.19706 0.46844 0.0
O321 O 0.3105 0.22255 0.46048 0.0
C322 C 0.33709 0.22565 0.36931 0.0
O323 O 0.34289 0.18567 0.44403 0.0
O324 O 0.36113 0.20378 0.43827 0.0
In325 In 0.52399 0.58581 0.21712 0.0
O326 O 0.50312 0.59377 0.16944 0.0
O327 O 0.52265 0.58023 0.14046 0.0
C328 C 0.51631 0.5944 0.30511 0.0
C329 C 0.54707 0.60703 0.19412 0.0
C330 C 0.52515 0.5536 0.22824 0.0
O331 O 0.50598 0.59483 0.27255 0.0
O332 O 0.53026 0.59001 0.29275 0.0
O333 O 0.53778 0.56215 0.22565 0.0
O334 O 0.51201 0.56132 0.22514 0.0
C335 C 0.50951 0.58757 0.1334 0.0
O336 O 0.55029 0.59238 0.2028 0.0
O337 O 0.53241 0.61095 0.19878 0.0
In338 In 0.15277 0.77421 0.94271 0.0
O339 O 0.14525 0.75352 0.89358 0.0
O340 O 0.15743 0.77394 0.86508 0.0
C341 C 0.14615 0.7579 0.02241 0.0
C342 C 0.13126 0.7978 0.92557 0.0
C343 C 0.18376 0.78258 0.95882 0.0
O344 O 0.15508 0.75212 0.99077 0.0
O345 O 0.13997 0.77141 0.01271 0.0
O346 O 0.17215 0.78892 0.98078 0.0
O347 O 0.17972 0.77231 0.92856 0.0
C348 C 0.15072 0.7605 0.85754 0.0
O349 O 0.14583 0.80084 0.93548 0.0
O350 O 0.12755 0.783 0.92596 0.0
In351 In 0.95666 0.40342 0.70235 0.0
O352 O 0.97641 0.39361 0.65346 0.0
O353 O 0.95684 0.40688 0.62415 0.0
C354 C 0.96793 0.39709 0.78866 0.0
C355 C 0.93237 0.38228 0.69104 0.0
C356 C 0.95541 0.43577 0.7105 0.0
O357 O 0.97686 0.3961 0.75292 0.0
O358 O 0.95345 0.4009 0.78045 0.0
O359 O 0.94298 0.427 0.71453 0.0
O360 O 0.96833 0.42821 0.70187 0.0
C361 C 0.96974 0.39912 0.61704 0.0
O362 O 0.9302 0.39739 0.68859 0.0
O363 O 0.94665 0.37798 0.7003 0.0
In364 In 0.3332 0.77689 0.04705 0.0
O365 O 0.33898 0.80285 0.0674 0.0
O366 O 0.35864 0.787 0.05304 0.0
C367 C 0.3014 0.78218 0.03429 0.0
C368 C 0.33669 0.76268 0.13128 0.0
C369 C 0.33987 0.76414 0.96221 0.0
O370 O 0.312 0.79249 0.02336 0.0
O371 O 0.30683 0.76926 0.05169 0.0
O372 O 0.33696 0.75535 0.99733 0.0
O373 O 0.33983 0.77911 0.97044 0.0
C374 C 0.3541 0.80091 0.06562 0.0
O375 O 0.34351 0.75709 0.09516 0.0
O376 O 0.32791 0.77489 0.12422 0.0
In377 In 0.96034 0.58721 0.79407 0.0
O378 O 0.93408 0.59208 0.81286 0.0
O379 O 0.94969 0.61228 0.80269 0.0
C380 C 0.95818 0.55526 0.77789 0.0
C381 C 0.97411 0.58955 0.87904 0.0
C382 C 0.97152 0.59558 0.70904 0.0
O383 O 0.94606 0.56452 0.77569 0.0
O384 O 0.97129 0.56212 0.78865 0.0
O385 O 0.98075 0.59435 0.74401 0.0
O386 O 0.95677 0.5931 0.71757 0.0
C387 C 0.93575 0.60727 0.81334 0.0
O388 O 0.9798 0.59695 0.84406 0.0
O389 O 0.96197 0.58083 0.87049 0.0
In390 In 0.15209 0.20717 0.54769 0.0
O391 O 0.14207 0.22686 0.59649 0.0
O392 O 0.15628 0.20792 0.62556 0.0
C393 C 0.14541 0.21844 0.46152 0.0
C394 C 0.13121 0.18278 0.56154 0.0
C395 C 0.18438 0.20573 0.53767 0.0
O396 O 0.14505 0.22749 0.4971 0.0
O397 O 0.14871 0.20383 0.46986 0.0
O398 O 0.1755 0.19338 0.53349 0.0
O399 O 0.17696 0.21864 0.54741 0.0
C400 C 0.14812 0.22057 0.63274 0.0
O401 O 0.14633 0.18075 0.56339 0.0
O402 O 0.12674 0.19696 0.55143 0.0
In403 In 0.52491 0.40064 0.28898 0.0
O404 O 0.50544 0.39007 0.33777 0.0
O405 O 0.52341 0.40561 0.36624 0.0
C406 C 0.51409 0.3928 0.20305 0.0
C407 C 0.55025 0.38138 0.30721 0.0
C408 C 0.52581 0.43291 0.27739 0.0
O409 O 0.50481 0.39325 0.23813 0.0
O410 O 0.52872 0.39577 0.21184 0.0
O411 O 0.53817 0.42411 0.27223 0.0
O412 O 0.51309 0.42542 0.28846 0.0
C413 C 0.51121 0.39685 0.37369 0.0
O414 O 0.55139 0.39661 0.30677 0.0
O415 O 0.53646 0.3759 0.29684 0.0
H416 H 0.28284 0.30456 0.00166 0.0
H417 H 0.27916 0.25608 0.94648 0.0
H418 H 0.25392 0.30437 0.01914 0.0
H419 H 0.25027 0.25606 0.96231 0.0
H420 H 0.20385 0.25333 0.04432 0.0
H421 H 0.23265 0.25469 0.0278 0.0
H422 H 0.22736 0.30454 0.9847 0.0
H423 H 0.19851 0.30329 0.00291 0.0
C424 C 0.2758 0.29395 0.9928 0.0
C425 C 0.28323 0.2803 0.973 0.0
C426 C 0.25923 0.29386 0.00261 0.0
C427 C 0.24979 0.28015 0.99249 0.0
C428 C 0.25723 0.26668 0.97154 0.0
C429 C 0.27377 0.26673 0.96214 0.0
C430 C 0.20885 0.2646 0.03149 0.0
C431 C 0.19895 0.27819 0.02476 0.0
C432 C 0.22534 0.26535 0.02167 0.0
C433 C 0.23231 0.27967 0.00442 0.0
C434 C 0.22242 0.29336 0.99832 0.0
C435 C 0.20589 0.29264 0.00855 0.0
H436 H 0.98459 0.95517 0.29763 0.0
H437 H 0.93531 0.94968 0.25056 0.0
H438 H 0.98332 0.98401 0.28142 0.0
H439 H 0.93418 0.97852 0.23241 0.0
H440 H 0.93286 0.03362 0.25246 0.0
H441 H 0.93335 0.0046 0.26756 0.0
H442 H 0.98276 0.00246 0.21843 0.0
H443 H 0.98241 0.03156 0.20528 0.0
C444 C 0.9735 0.96014 0.28353 0.0
C445 C 0.96004 0.95021 0.27537 0.0
C446 C 0.97281 0.97666 0.27385 0.0
C447 C 0.95869 0.9836 0.25522 0.0
C448 C 0.94518 0.97362 0.24724 0.0
C449 C 0.94583 0.9571 0.25744 0.0
C450 C 0.94378 0.0269 0.24476 0.0
C451 C 0.95763 0.03482 0.228 0.0
C452 C 0.94405 0.01026 0.25316 0.0
C453 C 0.95812 0.00118 0.2445 0.0
C454 C 0.97182 0.00911 0.22648 0.0
C455 C 0.97161 0.02577 0.21861 0.0
H456 H 0.20878 0.72918 0.43407 0.0
H457 H 0.20481 0.68045 0.48728 0.0
H458 H 0.23761 0.72912 0.45119 0.0
H459 H 0.23358 0.68055 0.506 0.0
H460 H 0.28884 0.68143 0.49418 0.0
H461 H 0.26028 0.68053 0.47286 0.0
H462 H 0.25475 0.73014 0.51802 0.0
H463 H 0.28333 0.73116 0.53774 0.0
C464 C 0.2141 0.71846 0.44946 0.0
C465 C 0.20458 0.70484 0.45948 0.0
C466 C 0.23058 0.71846 0.4596 0.0
C467 C 0.23788 0.70489 0.48042 0.0
C468 C 0.22839 0.69114 0.48956 0.0
C469 C 0.21189 0.6911 0.47903 0.0
C470 C 0.28147 0.69211 0.49958 0.0
C471 C 0.28828 0.70638 0.51747 0.0
C472 C 0.26511 0.69159 0.48756 0.0
C473 C 0.25524 0.70529 0.49348 0.0
C474 C 0.26207 0.71947 0.51209 0.0
C475 C 0.27842 0.72002 0.52375 0.0
H476 H 0.55486 0.03637 0.75634 0.0
H477 H 0.5049 0.03218 0.79852 0.0
H478 H 0.55535 0.00753 0.7375 0.0
H479 H 0.50549 0.0034 0.78137 0.0
H480 H 0.50548 0.95709 0.69912 0.0
H481 H 0.50627 0.98596 0.71544 0.0
H482 H 0.55455 0.98085 0.77126 0.0
H483 H 0.55392 0.95197 0.75329 0.0
C484 C 0.54406 0.02924 0.76205 0.0
C485 C 0.52982 0.03651 0.77864 0.0
C486 C 0.54434 0.01272 0.75144 0.0
C487 C 0.53041 0.00317 0.75752 0.0
C488 C 0.51632 0.01045 0.77522 0.0
C489 C 0.51601 0.02693 0.78542 0.0
C490 C 0.51629 0.96215 0.71465 0.0
C491 C 0.52961 0.95229 0.72511 0.0
C492 C 0.51671 0.97868 0.72433 0.0
C493 C 0.5304 0.98571 0.74517 0.0
C494 C 0.54387 0.97586 0.75484 0.0
C495 C 0.54349 0.95931 0.74476 0.0
H496 H 0.70444 0.73151 0.04526 0.0
H497 H 0.70038 0.68037 0.01637 0.0
H498 H 0.73309 0.73055 0.02668 0.0
H499 H 0.72915 0.67947 0.99651 0.0
H500 H 0.77792 0.7284 0.93848 0.0
H501 H 0.74928 0.72744 0.95731 0.0
H502 H 0.75642 0.68212 0.02964 0.0
H503 H 0.78518 0.6829 0.0096 0.0
C504 C 0.70969 0.72005 0.0349 0.0
C505 C 0.70017 0.70604 0.032 0.0
C506 C 0.72609 0.71952 0.02393 0.0
C507 C 0.73335 0.70498 0.0095 0.0
C508 C 0.72392 0.69084 0.00773 0.0
C509 C 0.70746 0.69136 0.01892 0.0
C510 C 0.77337 0.71817 0.95816 0.0
C511 C 0.78378 0.70577 0.97283 0.0
C512 C 0.75698 0.71768 0.96924 0.0
C513 C 0.75062 0.70482 0.99554 0.0
C514 C 0.76095 0.69215 0.00914 0.0
C515 C 0.7774 0.69261 0.99782 0.0
H516 H 0.05524 0.95686 0.79838 0.0
H517 H 0.00472 0.95494 0.76076 0.0
H518 H 0.05506 0.98622 0.78732 0.0
H519 H 0.00463 0.98397 0.74816 0.0
H520 H 0.00395 0.03723 0.77608 0.0
H521 H 0.00563 0.00838 0.79148 0.0
H522 H 0.05309 0.00702 0.72831 0.0
H523 H 0.05161 0.03618 0.71445 0.0
C524 C 0.04414 0.96271 0.78752 0.0
C525 C 0.02997 0.95366 0.78074 0.0
C526 C 0.04405 0.97949 0.78093 0.0
C527 C 0.0298 0.98748 0.7672 0.0
C528 C 0.01573 0.9783 0.75979 0.0
C529 C 0.0158 0.96162 0.76671 0.0
C530 C 0.01477 0.03079 0.76563 0.0
C531 C 0.0276 0.03891 0.74377 0.0
C532 C 0.01571 0.01422 0.77421 0.0
C533 C 0.02941 0.00532 0.76061 0.0
C534 C 0.04242 0.01353 0.73957 0.0
C535 C 0.04154 0.0302 0.73138 0.0
H536 H 0.70533 0.30611 0.49916 0.0
H537 H 0.70808 0.25854 0.43736 0.0
H538 H 0.73434 0.30526 0.51509 0.0
H539 H 0.73705 0.2579 0.45154 0.0
H540 H 0.78345 0.25294 0.53265 0.0
H541 H 0.75473 0.25507 0.51612 0.0
H542 H 0.76088 0.30554 0.48059 0.0
H543 H 0.78968 0.30348 0.49891 0.0
C544 C 0.71219 0.29558 0.48846 0.0
C545 C 0.70447 0.28234 0.46738 0.0
C546 C 0.72881 0.29511 0.49737 0.0
C547 C 0.73801 0.28144 0.48501 0.0
C548 C 0.73028 0.26845 0.46255 0.0
C549 C 0.71369 0.26886 0.4541 0.0
C550 C 0.77867 0.2645 0.5214 0.0
C551 C 0.78879 0.27803 0.51693 0.0
C552 C 0.76221 0.26571 0.51157 0.0
C553 C 0.7555 0.28044 0.49652 0.0
C554 C 0.76563 0.29405 0.49249 0.0
C555 C 0.78212 0.29286 0.50276 0.0
H556 H 0.48152 0.95546 0.20278 0.0
H557 H 0.43277 0.95077 0.25514 0.0
H558 H 0.48098 0.98429 0.21966 0.0
H559 H 0.43238 0.97961 0.27368 0.0
H560 H 0.48234 0.03063 0.30193 0.0
H561 H 0.48157 0.00179 0.28548 0.0
H562 H 0.43197 0.00625 0.23974 0.0
H563 H 0.43262 0.03514 0.25788 0.0
C564 C 0.4707 0.96061 0.21807 0.0
C565 C 0.45721 0.95088 0.22779 0.0
C566 C 0.47042 0.97711 0.22808 0.0
C567 C 0.4567 0.98425 0.2485 0.0
C568 C 0.44309 0.97454 0.25757 0.0
C569 C 0.44333 0.95801 0.24717 0.0
C570 C 0.47124 0.02543 0.28859 0.0
C571 C 0.45755 0.03511 0.28103 0.0
C572 C 0.47083 0.00892 0.27881 0.0
C573 C 0.45677 0.00172 0.26076 0.0
C574 C 0.44295 0.01138 0.25398 0.0
C575 C 0.44333 0.02792 0.26418 0.0
H576 H 0.70122 0.80425 0.50439 0.0
H577 H 0.70688 0.75515 0.55334 0.0
H578 H 0.72988 0.80509 0.48386 0.0
H579 H 0.73553 0.75613 0.53435 0.0
H580 H 0.78561 0.80507 0.49646 0.0
H581 H 0.75686 0.80541 0.51635 0.0
H582 H 0.75227 0.75627 0.46643 0.0
H583 H 0.78097 0.7558 0.4481 0.0
C584 C 0.70864 0.79371 0.51121 0.0
C585 C 0.70183 0.7796 0.5302 0.0
C586 C 0.72506 0.79421 0.49964 0.0
C587 C 0.73498 0.78063 0.50708 0.0
C588 C 0.72817 0.76668 0.52718 0.0
C589 C 0.71178 0.76615 0.53841 0.0
C590 C 0.77839 0.7944 0.48955 0.0
C591 C 0.78551 0.78038 0.47103 0.0
C592 C 0.76193 0.79461 0.50078 0.0
C593 C 0.7523 0.78081 0.49343 0.0
C594 C 0.75941 0.76698 0.47356 0.0
C595 C 0.77583 0.76674 0.4627 0.0
H596 H 0.48333 0.45283 0.74844 0.0
H597 H 0.43209 0.45388 0.77742 0.0
H598 H 0.48308 0.48187 0.73501 0.0
H599 H 0.4319 0.48316 0.76563 0.0
H600 H 0.4354 0.53369 0.69832 0.0
H601 H 0.43462 0.50429 0.70805 0.0
H602 H 0.48069 0.50604 0.77905 0.0
H603 H 0.48168 0.53513 0.76786 0.0
C604 C 0.47202 0.45931 0.7522 0.0
C605 C 0.45776 0.45113 0.76423 0.0
C606 C 0.47188 0.47598 0.74476 0.0
C607 C 0.4575 0.4849 0.7497 0.0
C608 C 0.44315 0.47665 0.7611 0.0
C609 C 0.44327 0.4599 0.76814 0.0
C610 C 0.44533 0.52773 0.71596 0.0
C611 C 0.45864 0.53666 0.73206 0.0
C612 C 0.44486 0.51092 0.72176 0.0
C613 C 0.45766 0.50277 0.74402 0.0
C614 C 0.4708 0.51184 0.7608 0.0
C615 C 0.47132 0.52855 0.75467 0.0
H616 H 0.70501 0.23566 0.95129 0.0
H617 H 0.69958 0.18666 0.00109 0.0
H618 H 0.7339 0.23439 0.96648 0.0
H619 H 0.72846 0.18555 0.01824 0.0
H620 H 0.78344 0.18388 0.99913 0.0
H621 H 0.75449 0.18443 0.98301 0.0
H622 H 0.75245 0.23421 0.02911 0.0
H623 H 0.78146 0.23379 0.04327 0.0
C624 C 0.71001 0.22464 0.96576 0.0
C625 C 0.70007 0.21126 0.97505 0.0
C626 C 0.72656 0.22394 0.97483 0.0
C627 C 0.73353 0.20991 0.99396 0.0
C628 C 0.72355 0.19647 0.00297 0.0
C629 C 0.70699 0.19712 0.99337 0.0
C630 C 0.77676 0.19491 0.00586 0.0
C631 C 0.78468 0.20881 0.02222 0.0
C632 C 0.76015 0.19521 0.99688 0.0
C633 C 0.75112 0.20939 0.00454 0.0
C634 C 0.75906 0.22319 0.02185 0.0
C635 C 0.77567 0.22293 0.03031 0.0
H636 H 0.05185 0.45026 0.24568 0.0
H637 H 0.00216 0.45466 0.20121 0.0
H638 H 0.05256 0.47924 0.26253 0.0
H639 H 0.00299 0.48358 0.21635 0.0
H640 H 0.05203 0.53458 0.24482 0.0
H641 H 0.05226 0.50566 0.22728 0.0
H642 H 0.0036 0.5015 0.2812 0.0
H643 H 0.00322 0.5304 0.29708 0.0
C644 C 0.04115 0.45747 0.23905 0.0
C645 C 0.02692 0.45022 0.22243 0.0
C646 C 0.04157 0.47407 0.24848 0.0
C647 C 0.02779 0.48373 0.24115 0.0
C648 C 0.01371 0.47646 0.22341 0.0
C649 C 0.01326 0.4599 0.2144 0.0
C650 C 0.04142 0.52744 0.25294 0.0
C651 C 0.02758 0.53472 0.27207 0.0
C652 C 0.04157 0.51087 0.24312 0.0
C653 C 0.02791 0.50126 0.25253 0.0
C654 C 0.01421 0.50858 0.27256 0.0
C655 C 0.01402 0.52513 0.28199 0.0
H656 H 0.28112 0.23274 0.45754 0.0
H657 H 0.2868 0.18283 0.49908 0.0
H658 H 0.25236 0.23124 0.47463 0.0
H659 H 0.258 0.18145 0.51787 0.0
H660 H 0.20595 0.22965 0.55624 0.0
H661 H 0.23483 0.22981 0.54028 0.0
H662 H 0.23141 0.18141 0.48392 0.0
H663 H 0.20251 0.18108 0.50155 0.0
C664 C 0.2762 0.22145 0.47052 0.0
C665 C 0.28618 0.20791 0.4771 0.0
C666 C 0.25973 0.22062 0.48067 0.0
C667 C 0.25288 0.20627 0.49812 0.0
C668 C 0.26286 0.19264 0.5041 0.0
C669 C 0.27935 0.19344 0.49354 0.0
C670 C 0.21139 0.21901 0.5407 0.0
C671 C 0.202 0.20537 0.52997 0.0
C672 C 0.22793 0.21914 0.53121 0.0
C673 C 0.23543 0.2057 0.5103 0.0
C674 C 0.22606 0.19191 0.50041 0.0
C675 C 0.2095 0.19174 0.51031 0.0
H676 H 0.54986 0.45113 0.2388 0.0
H677 H 0.50241 0.4545 0.30102 0.0
H678 H 0.54987 0.4803 0.2257 0.0
H679 H 0.50264 0.48367 0.28985 0.0
H680 H 0.50016 0.53247 0.21936 0.0
H681 H 0.50066 0.50329 0.23025 0.0
H682 H 0.55153 0.50571 0.26437 0.0
H683 H 0.55111 0.53488 0.25147 0.0
C684 C 0.5395 0.45815 0.25005 0.0
C685 C 0.52611 0.45058 0.27073 0.0
C686 C 0.53954 0.47487 0.24281 0.0
C687 C 0.52624 0.48436 0.25658 0.0
C688 C 0.51295 0.47673 0.27792 0.0
C689 C 0.51285 0.46001 0.28464 0.0
C690 C 0.51145 0.52674 0.22908 0.0
C691 C 0.52559 0.53592 0.23463 0.0
C692 C 0.51172 0.51003 0.23565 0.0
C693 C 0.52611 0.50212 0.24851 0.0
C694 C 0.54029 0.51135 0.25388 0.0
C695 C 0.54004 0.52807 0.24676 0.0
H696 H 0.28748 0.80289 0.97226 0.0
H697 H 0.27625 0.76722 0.07751 0.0
H698 H 0.2586 0.80559 0.95447 0.0
H699 H 0.2474 0.77031 0.06058 0.0
H700 H 0.19633 0.79334 0.041 0.0
H701 H 0.22505 0.79545 0.0616 0.0
H702 H 0.2382 0.78154 0.92157 0.0
H703 H 0.20958 0.77894 0.9013 0.0
C704 C 0.27882 0.79584 0.99203 0.0
C705 C 0.28403 0.78478 0.02606 0.0
C706 C 0.26237 0.79738 0.98183 0.0
C707 C 0.2509 0.78821 0.00638 0.0
C708 C 0.25607 0.7776 0.04156 0.0
C709 C 0.27252 0.77577 0.05099 0.0
C710 C 0.20537 0.79099 0.01451 0.0
C711 C 0.20082 0.78593 0.96965 0.0
C712 C 0.22173 0.79214 0.02633 0.0
C713 C 0.2337 0.78867 0.99306 0.0
C714 C 0.22913 0.78438 0.94762 0.0
C715 C 0.21281 0.78284 0.93614 0.0
H716 H 0.97968 0.45709 0.69301 0.0
H717 H 0.93053 0.45427 0.74334 0.0
H718 H 0.97986 0.4861 0.70755 0.0
H719 H 0.93085 0.48327 0.7595 0.0
H720 H 0.93252 0.5384 0.74297 0.0
H721 H 0.93144 0.50962 0.72399 0.0
H722 H 0.98058 0.504 0.77271 0.0
H723 H 0.9818 0.53278 0.79009 0.0
C724 C 0.96892 0.46269 0.70725 0.0
C725 C 0.95511 0.45344 0.7172 0.0
C726 C 0.96905 0.4793 0.71591 0.0
C727 C 0.95543 0.487 0.73515 0.0
C728 C 0.94149 0.47776 0.74424 0.0
C729 C 0.94132 0.46114 0.7352 0.0
C730 C 0.94307 0.53097 0.7496 0.0
C731 C 0.95726 0.5378 0.76786 0.0
C732 C 0.94243 0.51448 0.73894 0.0
C733 C 0.95595 0.50451 0.74661 0.0
C734 C 0.97006 0.51138 0.76547 0.0
C735 C 0.97072 0.52785 0.77578 0.0
H736 H 0.14112 0.28042 0.88058 0.0
H737 H 0.13703 0.23159 0.9329 0.0
H738 H 0.14112 0.27022 0.80088 0.0
H739 H 0.13663 0.22137 0.85299 0.0
H740 H 0.1605 0.2087 0.71346 0.0
H741 H 0.15665 0.21884 0.79218 0.0
H742 H 0.12595 0.25694 0.73919 0.0
H743 H 0.13011 0.24688 0.65971 0.0
C744 C 0.13992 0.26751 0.87502 0.0
C745 C 0.13922 0.25678 0.91302 0.0
C746 C 0.13984 0.26167 0.82926 0.0
C747 C 0.13905 0.24496 0.82048 0.0
C748 C 0.13757 0.23429 0.85855 0.0
C749 C 0.13767 0.24014 0.90434 0.0
C750 C 0.15291 0.21924 0.71851 0.0
C751 C 0.14565 0.22703 0.68034 0.0
C752 C 0.15057 0.22497 0.76378 0.0
C753 C 0.14088 0.23863 0.77215 0.0
C754 C 0.13357 0.24644 0.73393 0.0
C755 C 0.13593 0.24068 0.68844 0.0
H756 H 0.02549 0.91489 0.96376 0.0
H757 H 0.98868 0.88271 0.91077 0.0
H758 H 0.01586 0.91038 0.04278 0.0
H759 H 0.97917 0.8779 0.99045 0.0
H760 H 0.95606 0.89135 0.13402 0.0
H761 H 0.96558 0.89221 0.05366 0.0
H762 H 0.01497 0.88951 0.10215 0.0
H763 H 0.00542 0.88905 0.18274 0.0
C764 C 0.01533 0.90682 0.96903 0.0
C765 C 0.0078 0.89918 0.93106 0.0
C766 C 0.00992 0.90409 0.01442 0.0
C767 C -0.00313 0.89363 0.02302 0.0
C768 C 0.98922 0.88609 0.98496 0.0
C769 C -0.00536 0.88884 0.93937 0.0
C770 C 0.96895 0.8907 0.1275 0.0
C771 C 0.98001 0.8903 0.16467 0.0
C772 C 0.9744 0.89112 0.0814 0.0
C773 C 0.99104 0.89114 0.07151 0.0
C774 C 0.00207 0.88985 0.10868 0.0
C775 C -0.00339 0.88945 0.15481 0.0
H776 H 0.34795 0.70352 0.37987 0.0
H777 H 0.34772 0.7526 0.43152 0.0
H778 H 0.34721 0.71354 0.30002 0.0
H779 H 0.34734 0.76268 0.35142 0.0
H780 H 0.32272 0.77308 0.21159 0.0
H781 H 0.32716 0.76328 0.29041 0.0
H782 H 0.36125 0.72804 0.23814 0.0
H783 H 0.35653 0.73774 0.15856 0.0
C784 C 0.34806 0.71648 0.37414 0.0
C785 C 0.34776 0.72728 0.41202 0.0
C786 C 0.3477 0.72222 0.32829 0.0
C787 C 0.34703 0.73892 0.31924 0.0
C788 C 0.34754 0.74973 0.35718 0.0
C789 C 0.3479 0.74398 0.40308 0.0
C790 C 0.33115 0.76321 0.2168 0.0
C791 C 0.33924 0.75614 0.17879 0.0
C792 C 0.33383 0.7577 0.26214 0.0
C793 C 0.34469 0.74497 0.27077 0.0
C794 C 0.35274 0.73781 0.23269 0.0
C795 C 0.35005 0.74336 0.18713 0.0
H796 H 0.48472 0.09811 0.68483 0.0
H797 H 0.53377 0.09411 0.63426 0.0
H798 H 0.47485 0.09816 0.60458 0.0
H799 H 0.52392 0.09377 0.55424 0.0
H800 H 0.50093 0.10487 0.41257 0.0
H801 H 0.51076 0.10894 0.49221 0.0
H802 H 0.47284 0.07778 0.54414 0.0
H803 H 0.4629 0.07402 0.46514 0.0
C804 C 0.4934 0.09742 0.65657 0.0
C805 C 0.51 0.09599 0.66581 0.0
C806 C 0.48775 0.09732 0.61062 0.0
C807 C 0.49859 0.09576 0.57301 0.0
C808 C 0.51525 0.09509 0.58232 0.0
C809 C 0.52089 0.09521 0.62822 0.0
C810 C 0.49475 0.09889 0.44107 0.0
C811 C 0.48118 0.08911 0.43265 0.0
C812 C 0.50037 0.1012 0.48664 0.0
C813 C 0.4925 0.09379 0.52459 0.0
C814 C 0.47899 0.08395 0.51589 0.0
C815 C 0.47339 0.08165 0.47051 0.0
H816 H 0.16203 0.77382 0.77732 0.0
H817 H 0.13558 0.73257 0.82957 0.0
H818 H 0.15935 0.76364 0.69821 0.0
H819 H 0.13259 0.72245 0.74976 0.0
H820 H 0.1409 0.74909 0.55662 0.0
H821 H 0.13986 0.75922 0.63671 0.0
H822 H 0.14917 0.71099 0.68831 0.0
H823 H 0.14983 0.70087 0.60865 0.0
C824 C 0.15557 0.76258 0.77187 0.0
C825 C 0.14907 0.75395 0.80974 0.0
C826 C 0.15389 0.75683 0.72637 0.0
C827 C 0.14566 0.74229 0.71749 0.0
C828 C 0.13911 0.73364 0.75541 0.0
C829 C 0.1408 0.73943 0.8011 0.0
C830 C 0.14251 0.74065 0.58514 0.0
C831 C 0.14554 0.72422 0.57632 0.0
C832 C 0.14202 0.74645 0.63101 0.0
C833 C 0.14457 0.73593 0.66899 0.0
C834 C 0.147 0.7194 0.66004 0.0
C835 C 0.14748 0.71362 0.61427 0.0
H836 H 0.49971 0.88104 0.0911 0.0
H837 H 0.4612 0.91173 0.04085 0.0
H838 H 0.5097 0.87796 0.01112 0.0
H839 H 0.47126 0.90891 0.96166 0.0
H840 H 0.5328 0.8949 0.87097 0.0
H841 H 0.5227 0.8942 0.95078 0.0
H842 H 0.47389 0.88943 0.89901 0.0
H843 H 0.484 0.89049 0.81898 0.0
C844 C 0.49343 0.88715 0.06305 0.0
C845 C 0.47971 0.89665 0.07227 0.0
C846 C 0.49915 0.88542 0.01728 0.0
C847 C 0.49121 0.89311 0.9799 0.0
C848 C 0.47748 0.90257 0.98938 0.0
C849 C 0.47181 0.9043 0.03494 0.0
C850 C 0.51992 0.89352 0.87661 0.0
C851 C 0.50917 0.89288 0.83869 0.0
C852 C 0.51415 0.89303 0.92241 0.0
C853 C 0.49748 0.8919 0.93135 0.0
C854 C 0.48678 0.89059 0.89333 0.0
C855 C 0.49257 0.89109 0.84748 0.0
H856 H 0.34508 0.23617 0.0682 0.0
H857 H 0.34006 0.28503 0.11964 0.0
H858 H 0.34585 0.22615 0.14835 0.0
H859 H 0.34047 0.27504 0.19952 0.0
H860 H 0.35382 0.25242 0.33996 0.0
H861 H 0.35671 0.26235 0.25997 0.0
H862 H 0.32634 0.22337 0.21096 0.0
H863 H 0.32373 0.21335 0.29033 0.0
C864 C 0.34428 0.24477 0.09661 0.0
C865 C 0.34242 0.26136 0.08764 0.0
C866 C 0.3446 0.23904 0.14252 0.0
C867 C 0.34306 0.24978 0.18038 0.0
C868 C 0.34183 0.26644 0.17127 0.0
C869 C 0.34151 0.27216 0.12543 0.0
C870 C 0.34776 0.24602 0.31203 0.0
C871 C 0.33852 0.23214 0.32143 0.0
C872 C 0.3494 0.2517 0.26624 0.0
C873 C 0.34184 0.24359 0.22898 0.0
C874 C 0.33258 0.22973 0.23862 0.0
C875 C 0.33096 0.22408 0.28424 0.0
H876 H 0.99268 0.06632 0.58199 0.0
H877 H 0.00058 0.11796 0.58328 0.0
H878 H 0.9825 0.0681 0.50224 0.0
H879 H 0.99063 0.11967 0.50273 0.0
H880 H -0.00653 0.10629 0.33933 0.0
H881 H 0.00145 0.10759 0.42178 0.0
H882 H 0.95811 0.08175 0.46017 0.0
H883 H 0.95002 0.08064 0.37853 0.0
C884 C 0.99208 0.07807 0.56534 0.0
C885 C -0.00266 0.09201 0.58884 0.0
C886 C 0.98625 0.07909 0.51975 0.0
C887 C 0.98584 0.09402 0.49638 0.0
C888 C 0.99092 0.10802 0.51998 0.0
C889 C -0.00354 0.10705 0.56608 0.0
C890 C 0.98559 0.10107 0.3655 0.0
C891 C 0.97116 0.09332 0.35247 0.0
C892 C 0.99011 0.10188 0.41258 0.0
C893 C 0.9804 0.09471 0.44718 0.0
C894 C 0.96584 0.08728 0.43415 0.0
C895 C 0.96122 0.0867 0.3874 0.0
H896 H 0.85556 0.71091 0.10804 0.0
H897 H 0.8285 0.75307 0.06576 0.0
H898 H 0.85643 0.721 0.18786 0.0
H899 H 0.82848 0.76279 0.14584 0.0
H900 H 0.84039 0.78307 0.28665 0.0
H901 H 0.84314 0.77387 0.2066 0.0
H902 H 0.84015 0.72421 0.2536 0.0
H903 H 0.83836 0.73357 0.3342 0.0
C904 C 0.84983 0.72237 0.11591 0.0
C905 C 0.842 0.73123 0.08078 0.0
C906 C 0.85016 0.7281 0.16177 0.0
C907 C 0.8424 0.74267 0.17375 0.0
C908 C 0.83484 0.75167 0.13811 0.0
C909 C 0.83479 0.74608 0.09211 0.0
C910 C 0.84038 0.77018 0.27982 0.0
C911 C 0.83908 0.75902 0.31655 0.0
C912 C 0.84185 0.76488 0.23381 0.0
C913 C 0.84174 0.74827 0.22321 0.0
C914 C 0.84055 0.73709 0.26025 0.0
C915 C 0.83939 0.74243 0.30647 0.0
H916 H -0.00067 0.10631 0.10447 0.0
H917 H 0.95999 0.0779 0.04879 0.0
H918 H 0.00935 0.11095 0.02499 0.0
H919 H 0.97001 0.08227 0.97033 0.0
H920 H 0.98234 0.10291 0.83158 0.0
H921 H 0.97283 0.10328 0.91217 0.0
H922 H 0.02172 0.09577 0.9605 0.0
H923 H 0.03126 0.09577 0.87999 0.0
C924 C 0.99287 0.10103 0.07536 0.0
C925 C 0.97889 0.09174 0.0829 0.0
C926 C -0.00141 0.10367 0.0299 0.0
C927 C 0.99038 0.09712 0.99123 0.0
C928 C 0.97644 0.08781 0.9991 0.0
C929 C 0.97078 0.08516 0.04425 0.0
C930 C 0.99108 0.10161 0.85944 0.0
C931 C 0.00751 0.09916 0.84943 0.0
C932 C 0.98563 0.10172 0.90562 0.0
C933 C -0.00351 0.09931 0.94279 0.0
C934 C 0.01305 0.09774 0.93279 0.0
C935 C 0.0185 0.09766 0.8866 0.0
H936 H 0.64196 0.239 0.56667 0.0
H937 H 0.64874 0.28762 0.6183 0.0
H938 H 0.64079 0.22898 0.64678 0.0
H939 H 0.64791 0.2776 0.69815 0.0
H940 H 0.66219 0.21539 0.78906 0.0
H941 H 0.66012 0.2255 0.70966 0.0
H942 H 0.63093 0.26547 0.75823 0.0
H943 H 0.63328 0.25544 0.83827 0.0
C944 C 0.64308 0.24755 0.59511 0.0
C945 C 0.64553 0.26407 0.5862 0.0
C946 C 0.64252 0.24181 0.64099 0.0
C947 C 0.64439 0.25248 0.6789 0.0
C948 C 0.64627 0.26908 0.66986 0.0
C949 C 0.64684 0.2748 0.62404 0.0
C950 C 0.65533 0.22635 0.78287 0.0
C951 C 0.64794 0.23466 0.81995 0.0
C952 C 0.65402 0.23206 0.73724 0.0
C953 C 0.64526 0.24623 0.72749 0.0
C954 C 0.63786 0.25458 0.76462 0.0
C955 C 0.63918 0.24884 0.81042 0.0
H956 H 0.50221 0.8887 0.31932 0.0
H957 H 0.45344 0.89346 0.3715 0.0
H958 H 0.51236 0.8881 0.39931 0.0
H959 H 0.46357 0.89323 0.45123 0.0
H960 H 0.4866 0.88142 0.59227 0.0
H961 H 0.47661 0.87757 0.51261 0.0
H962 H 0.51501 0.90808 0.46053 0.0
H963 H 0.52507 0.91165 0.53943 0.0
C964 C 0.49365 0.88945 0.34786 0.0
C965 C 0.47705 0.89124 0.33912 0.0
C966 C 0.49946 0.88922 0.39368 0.0
C967 C 0.48879 0.8908 0.43171 0.0
C968 C 0.47211 0.89186 0.42287 0.0
C969 C 0.46631 0.89208 0.3771 0.0
C970 C 0.49287 0.88727 0.56371 0.0
C971 C 0.50658 0.89687 0.57212 0.0
C972 C 0.48716 0.88509 0.51812 0.0
C973 C 0.49508 0.89243 0.48011 0.0
C974 C 0.5088 0.90199 0.48878 0.0
C975 C 0.51447 0.90416 0.53415 0.0
H976 H 0.82462 0.21203 0.20499 0.0
H977 H 0.8566 0.24909 0.1523 0.0
H978 H 0.82897 0.22157 0.28396 0.0
H979 H 0.86119 0.25861 0.23228 0.0
H980 H 0.84675 0.28119 0.37695 0.0
H981 H 0.84639 0.27196 0.29618 0.0
H982 H 0.8499 0.22244 0.34327 0.0
H983 H 0.84992 0.23167 0.42416 0.0
C984 C 0.83263 0.22223 0.21029 0.0
C985 C 0.84026 0.22983 0.17236 0.0
C986 C 0.83525 0.2276 0.25573 0.0
C987 C 0.84559 0.24072 0.26457 0.0
C988 C 0.85312 0.24849 0.22659 0.0
C989 C 0.8505 0.24306 0.18085 0.0
C990 C 0.84768 0.26834 0.37003 0.0
C991 C 0.84819 0.25713 0.40691 0.0
C992 C 0.84755 0.26306 0.3237 0.0
C993 C 0.84791 0.24646 0.31328 0.0
C994 C 0.8493 0.23531 0.35018 0.0
C995 C 0.84942 0.24058 0.39651 0.0
H996 H 0.45382 0.09264 0.13474 0.0
H997 H 0.50287 0.09669 0.18509 0.0
H998 H 0.46365 0.0927 0.05464 0.0
H999 H 0.51271 0.09715 0.10478 0.0
H1000 H 0.52488 0.07421 0.9639 0.0
H1001 H 0.51489 0.07725 0.04316 0.0
H1002 H 0.47663 0.10839 0.99338 0.0
H1003 H 0.48651 0.10504 0.91346 0.0
C1004 C 0.4667 0.09382 0.12865 0.0
C1005 C 0.4776 0.09453 0.16618 0.0
C1006 C 0.47232 0.09394 0.0827 0.0
C1007 C 0.48897 0.09477 0.07329 0.0
C1008 C 0.49982 0.09619 0.11088 0.0
C1009 C 0.49419 0.09606 0.15687 0.0
C1010 C 0.51431 0.08169 0.9698 0.0
C1011 C 0.50644 0.08936 0.93245 0.0
C1012 C 0.50868 0.08356 0.01533 0.0
C1013 C 0.49506 0.09319 0.02471 0.0
C1014 C 0.48711 0.10081 0.98728 0.0
C1015 C 0.49275 0.09891 0.94155 0.0
H1016 H 0.6391 0.752 0.93854 0.0
H1017 H 0.64206 0.70292 0.88753 0.0
H1018 H 0.63881 0.76196 0.85836 0.0
H1019 H 0.64211 0.71286 0.80751 0.0
H1020 H 0.63071 0.73647 0.66629 0.0
H1021 H 0.62675 0.72655 0.74603 0.0
H1022 H 0.6591 0.76353 0.79724 0.0
H1023 H 0.66282 0.77351 0.71829 0.0
C1024 C 0.63951 0.74334 0.91021 0.0
C1025 C 0.64073 0.7267 0.91932 0.0
C1026 C 0.63946 0.74904 0.86429 0.0
C1027 C 0.64063 0.73821 0.82653 0.0
C1028 C 0.64108 0.72152 0.83572 0.0
C1029 C 0.64114 0.71583 0.88162 0.0
C1030 C 0.63696 0.74244 0.69467 0.0
C1031 C 0.64709 0.75575 0.68604 0.0
C1032 C 0.63471 0.73676 0.74029 0.0
C1033 C 0.6425 0.74435 0.77806 0.0
C1034 C 0.65265 0.75762 0.76915 0.0
C1035 C 0.65491 0.76324 0.72376 0.0
H1036 H 0.00457 0.88277 0.41159 0.0
H1037 H 0.96565 0.91291 0.46223 0.0
H1038 H 0.01458 0.87972 0.49149 0.0
H1039 H 0.97572 0.91009 0.5414 0.0
H1040 H 0.98777 0.89033 0.6828 0.0
H1041 H 0.97819 0.88965 0.60233 0.0
H1042 H 0.02715 0.89617 0.55316 0.0
H1043 H 0.03675 0.89654 0.63355 0.0
C1044 C -0.00177 0.8888 0.43971 0.0
C1045 C 0.98434 0.89808 0.43069 0.0
C1046 C 0.00395 0.88708 0.48539 0.0
C1047 C -0.00415 0.89454 0.52282 0.0
C1048 C 0.98205 0.90391 0.51353 0.0
C1049 C 0.97637 0.90565 0.46804 0.0
C1050 C -0.0035 0.89138 0.65479 0.0
C1051 C 0.01298 0.89361 0.66445 0.0
C1052 C 0.99101 0.8911 0.60872 0.0
C1053 C 0.00189 0.89305 0.57139 0.0
C1054 C 0.01847 0.89454 0.58108 0.0
C1055 C 0.02396 0.89482 0.62716 0.0
H1056 H 0.64074 0.7336 0.43964 0.0
H1057 H 0.64449 0.78256 0.38809 0.0
H1058 H 0.64013 0.72355 0.35952 0.0
H1059 H 0.6443 0.77254 0.30826 0.0
H1060 H 0.66242 0.71114 0.21764 0.0
H1061 H 0.65956 0.72111 0.29698 0.0
H1062 H 0.62855 0.75957 0.2477 0.0
H1063 H 0.63173 0.74972 0.16774 0.0
C1064 C 0.64129 0.74221 0.41121 0.0
C1065 C 0.64275 0.75885 0.42014 0.0
C1066 C 0.64107 0.73647 0.36532 0.0
C1067 C 0.64234 0.74724 0.32743 0.0
C1068 C 0.64316 0.76392 0.33651 0.0
C1069 C 0.64335 0.76966 0.38233 0.0
C1070 C 0.65501 0.72175 0.22367 0.0
C1071 C 0.64735 0.72969 0.18642 0.0
C1072 C 0.65323 0.72737 0.26928 0.0
C1073 C 0.64372 0.74107 0.27884 0.0
C1074 C 0.63607 0.74905 0.24151 0.0
C1075 C 0.63787 0.74341 0.19573 0.0
H1076 H 0.45168 0.39274 0.62263 0.0
H1077 H 0.50044 0.3868 0.67372 0.0
H1078 H 0.46163 0.39181 0.54256 0.0
H1079 H 0.51036 0.38558 0.59358 0.0
H1080 H 0.48477 0.37907 0.40124 0.0
H1081 H 0.47463 0.37542 0.481 0.0
H1082 H 0.513 0.40599 0.53274 0.0
H1083 H 0.52313 0.40944 0.45391 0.0
C1084 C 0.4645 0.39095 0.61674 0.0
C1085 C 0.47531 0.39001 0.65446 0.0
C1086 C 0.47018 0.39033 0.57082 0.0
C1087 C 0.4868 0.3888 0.56168 0.0
C1088 C 0.49751 0.38705 0.59948 0.0
C1089 C 0.49183 0.38765 0.64539 0.0
C1090 C 0.491 0.38496 0.42977 0.0
C1091 C 0.50471 0.39456 0.42131 0.0
C1092 C 0.48521 0.3829 0.47537 0.0
C1093 C 0.49309 0.39031 0.51327 0.0
C1094 C 0.50682 0.39985 0.50455 0.0
C1095 C 0.51254 0.40195 0.45921 0.0
H1096 H 0.86916 0.2519 0.67273 0.0
H1097 H 0.81797 0.24169 0.67401 0.0
H1098 H 0.87132 0.24184 0.7532 0.0
H1099 H 0.8202 0.23134 0.7535 0.0
H1100 H 0.83397 0.19939 0.87682 0.0
H1101 H 0.83551 0.20729 0.79506 0.0
H1102 H 0.8579 0.25242 0.83435 0.0
H1103 H 0.85613 0.24464 0.91691 0.0
C1104 C 0.85847 0.24722 0.68989 0.0
C1105 C 0.8434 0.24751 0.66724 0.0
C1106 C 0.85968 0.24161 0.73589 0.0
C1107 C 0.84592 0.23585 0.75937 0.0
C1108 C 0.83101 0.23563 0.73603 0.0
C1109 C 0.82973 0.24156 0.69062 0.0
C1110 C 0.83939 0.21094 0.86815 0.0
C1111 C 0.84483 0.22146 0.90333 0.0
C1112 C 0.84024 0.21544 0.82133 0.0
C1113 C 0.84678 0.23045 0.80855 0.0
C1114 C 0.8529 0.24072 0.84341 0.0
C1115 C 0.85181 0.23631 0.89054 0.0
H1116 H 0.98345 0.59637 0.18012 0.0
H1117 H 0.03266 0.59463 0.12982 0.0
H1118 H 0.97369 0.59751 0.0998 0.0
H1119 H 0.02292 0.59546 0.04964 0.0
H1120 H -0.00053 0.60829 0.90916 0.0
H1121 H 0.00911 0.61148 0.98946 0.0
H1122 H 0.97266 0.57781 0.03675 0.0
H1123 H 0.96296 0.57484 0.9573 0.0
C1124 C 0.99218 0.59641 0.15194 0.0
C1125 C 0.0088 0.59528 0.16125 0.0
C1126 C 0.9866 0.59696 0.10593 0.0
C1127 C -0.00247 0.59638 0.0683 0.0
C1128 C 0.01419 0.59603 0.07776 0.0
C1129 C 0.01976 0.59547 0.12374 0.0
C1130 C -0.00644 0.60159 0.93681 0.0
C1131 C 0.98049 0.5913 0.92693 0.0
C1132 C -0.00093 0.6034 0.98273 0.0
C1133 C 0.99155 0.59501 0.01957 0.0
C1134 C 0.97851 0.58471 0.00942 0.0
C1135 C 0.97306 0.58288 0.96373 0.0
H1136 H 0.63174 0.24159 0.34052 0.0
H1137 H 0.6623 0.27951 0.28595 0.0
H1138 H 0.62707 0.23174 0.26106 0.0
H1139 H 0.65795 0.26957 0.20729 0.0
H1140 H 0.63788 0.25725 0.06722 0.0
H1141 H 0.63762 0.26735 0.14727 0.0
H1142 H 0.64194 0.21841 0.19873 0.0
H1143 H 0.6418 0.20832 0.11893 0.0
C1144 C 0.63749 0.24777 0.31162 0.0
C1145 C 0.64741 0.26128 0.31947 0.0
C1146 C 0.63484 0.24213 0.26615 0.0
C1147 C 0.64205 0.24994 0.22774 0.0
C1148 C 0.65194 0.26347 0.23586 0.0
C1149 C 0.65457 0.26907 0.2811 0.0
C1150 C 0.6385 0.24865 0.09568 0.0
C1151 C 0.63999 0.23202 0.0868 0.0
C1152 C 0.63847 0.25443 0.14153 0.0
C1153 C 0.63997 0.2437 0.17943 0.0
C1154 C 0.64065 0.227 0.17047 0.0
C1155 C 0.64065 0.22123 0.12466 0.0
H1156 H 0.95712 0.4104 0.53591 0.0
H1157 H -0.00331 0.38205 0.59049 0.0
H1158 H 0.96737 0.40666 0.45724 0.0
H1159 H 0.00685 0.37796 0.51111 0.0
H1160 H 0.02974 0.39369 0.36973 0.0
H1161 H 0.01942 0.39354 0.44928 0.0
H1162 H 0.97094 0.38669 0.3968 0.0
H1163 H 0.98127 0.38725 0.31698 0.0
C1164 C 0.96798 0.40327 0.53105 0.0
C1165 C 0.97615 0.39658 0.56944 0.0
C1166 C 0.97378 0.40098 0.48582 0.0
C1167 C 0.98787 0.39191 0.47772 0.0
C1168 C -0.00398 0.38512 0.51615 0.0
C1169 C 0.9902 0.38742 0.56159 0.0
C1170 C 0.0169 0.39195 0.37518 0.0
C1171 C 0.00629 0.39062 0.33709 0.0
C1172 C 0.01099 0.39178 0.42085 0.0
C1173 C -0.00567 0.39025 0.42948 0.0
C1174 C 0.98381 0.38819 0.39135 0.0
C1175 C 0.98973 0.38839 0.34562 0.0
H1176 H 0.85579 0.74968 0.83729 0.0
H1177 H 0.82519 0.71148 0.78462 0.0
H1178 H 0.85995 0.75947 0.75754 0.0
H1179 H 0.8291 0.72134 0.70559 0.0
H1180 H 0.8434 0.78296 0.61736 0.0
H1181 H 0.84398 0.77267 0.69687 0.0
H1182 H 0.84921 0.72398 0.64413 0.0
H1183 H 0.8483 0.7343 0.56426 0.0
C1184 C 0.84995 0.7434 0.80874 0.0
C1185 C 0.84011 0.72987 0.81721 0.0
C1186 C 0.85231 0.749 0.76312 0.0
C1187 C 0.84492 0.74113 0.72516 0.0
C1188 C 0.83521 0.72751 0.73384 0.0
C1189 C 0.83284 0.72196 0.77927 0.0
C1190 C 0.84488 0.77007 0.62271 0.0
C1191 C 0.84565 0.75941 0.58457 0.0
C1192 C 0.84532 0.76418 0.66834 0.0
C1193 C 0.8465 0.74749 0.67688 0.0
C1194 C 0.84803 0.73689 0.63868 0.0
C1195 C 0.84761 0.74279 0.59296 0.0
H1196 H 0.48217 0.60389 0.10573 0.0
H1197 H 0.52222 0.57565 0.05331 0.0
H1198 H 0.47256 0.60789 0.0256 0.0
H1199 H 0.51263 0.57948 0.97411 0.0
H1200 H 0.45222 0.59186 0.87942 0.0
H1201 H 0.46103 0.59174 0.96059 0.0
H1202 H 0.51006 0.60113 0.91613 0.0
H1203 H 0.50127 0.60101 0.83483 0.0
C1204 C 0.48884 0.59848 0.0772 0.0
C1205 C 0.50293 0.58946 0.0858 0.0
C1206 C 0.48337 0.60076 0.0314 0.0
C1207 C 0.49196 0.59416 0.9935 0.0
C1208 C 0.50593 0.58503 0.00239 0.0
C1209 C 0.51133 0.5827 0.04791 0.0
C1210 C 0.46485 0.59413 0.88702 0.0
C1211 C 0.4761 0.59629 0.85076 0.0
C1212 C 0.46987 0.59413 0.93356 0.0
C1213 C 0.48626 0.59624 0.94474 0.0
C1214 C 0.49738 0.59919 0.90853 0.0
C1215 C 0.49235 0.59923 0.862 0.0
H1216 H 0.34498 0.20559 0.62004 0.0
H1217 H 0.34756 0.25463 0.56856 0.0
H1218 H 0.34499 0.21561 0.69995 0.0
H1219 H 0.34794 0.26467 0.64865 0.0
H1220 H 0.3557 0.23916 0.84129 0.0
H1221 H 0.36001 0.22933 0.7616 0.0
H1222 H 0.32778 0.26631 0.70964 0.0
H1223 H 0.32375 0.27622 0.7885 0.0
C1224 C 0.34586 0.21851 0.62583 0.0
C1225 C 0.34611 0.22934 0.58802 0.0
C1226 C 0.34594 0.22424 0.67168 0.0
C1227 C 0.34629 0.24095 0.68074 0.0
C1228 C 0.34736 0.25174 0.64286 0.0
C1229 C 0.34726 0.24599 0.59697 0.0
C1230 C 0.34957 0.24515 0.81274 0.0
C1231 C 0.33937 0.25843 0.82115 0.0
C1232 C 0.35201 0.23953 0.76715 0.0
C1233 C 0.34434 0.24712 0.72917 0.0
C1234 C 0.33415 0.26038 0.73786 0.0
C1235 C 0.33171 0.26597 0.78321 0.0
H1236 H 0.50068 0.57219 0.5904 0.0
H1237 H 0.47845 0.61939 0.58275 0.0
H1238 H 0.51034 0.57515 0.51042 0.0
H1239 H 0.48796 0.62225 0.50209 0.0
H1240 H 0.48746 0.60451 0.34267 0.0
H1241 H 0.4806 0.60656 0.42571 0.0
H1242 H 0.52936 0.59292 0.46201 0.0
H1243 H 0.53627 0.59098 0.3796 0.0
C1244 C 0.4981 0.58331 0.57182 0.0
C1245 C 0.48886 0.59557 0.59274 0.0
C1246 C 0.50364 0.58502 0.5261 0.0
C1247 C 0.49983 0.59891 0.50007 0.0
C1248 C 0.49097 0.61139 0.52137 0.0
C1249 C 0.48567 0.60981 0.56754 0.0
C1250 C 0.49676 0.6022 0.36843 0.0
C1251 C 0.51235 0.59745 0.35464 0.0
C1252 C 0.49286 0.60345 0.41587 0.0
C1253 C 0.50445 0.59979 0.45018 0.0
C1254 C 0.52018 0.59566 0.43628 0.0
C1255 C 0.52411 0.59459 0.38906 0.0
H1256 H 0.15266 0.70015 0.27668 0.0
H1257 H 0.14417 0.74909 0.32322 0.0
H1258 H 0.14958 0.70866 0.19613 0.0
H1259 H 0.14173 0.75787 0.24204 0.0
H1260 H 0.12596 0.76698 0.09308 0.0
H1261 H 0.12572 0.75703 0.17318 0.0
H1262 H 0.16365 0.72308 0.13838 0.0
H1263 H 0.16338 0.73263 0.05811 0.0
C1264 C 0.15023 0.71279 0.26962 0.0
C1265 C 0.14877 0.72398 0.30627 0.0
C1266 C 0.14854 0.7177 0.22331 0.0
C1267 C 0.14554 0.734 0.21228 0.0
C1268 C 0.14384 0.74518 0.24911 0.0
C1269 C 0.14535 0.7402 0.29565 0.0
C1270 C 0.13405 0.75721 0.10247 0.0
C1271 C 0.14467 0.75056 0.06929 0.0
C1272 C 0.13404 0.75161 0.14853 0.0
C1273 C 0.14475 0.73932 0.16259 0.0
C1274 C 0.15506 0.7324 0.12889 0.0
C1275 C 0.15495 0.7379 0.08277 0.0
H1276 H 0.95064 0.3991 0.86925 0.0
H1277 H -0.00112 0.39065 0.81684 0.0
H1278 H 0.9608 0.39837 0.94887 0.0
H1279 H 0.00905 0.38957 0.8968 0.0
H1280 H 0.02349 0.4111 0.03838 0.0
H1281 H 0.01327 0.40896 0.95913 0.0
H1282 H 0.97247 0.38128 0.00916 0.0
H1283 H 0.98261 0.38372 0.089 0.0
C1284 C 0.9634 0.39686 0.87478 0.0
C1285 C 0.97399 0.39503 0.83678 0.0
C1286 C 0.96921 0.39635 0.92048 0.0
C1287 C 0.98575 0.394 0.92925 0.0
C1288 C -0.00373 0.39165 0.8912 0.0
C1289 C 0.99045 0.39216 0.84542 0.0
C1290 C 0.01233 0.40456 0.03253 0.0
C1291 C 0.00381 0.39763 0.06995 0.0
C1292 C 0.00655 0.4032 0.98699 0.0
C1293 C 0.9921 0.39486 0.9777 0.0
C1294 C 0.98357 0.3879 0.01518 0.0
C1295 C 0.98938 0.38926 0.06088 0.0
H1296 H 0.34477 0.7813 0.88235 0.0
H1297 H 0.33944 0.73249 0.9338 0.0
H1298 H 0.34553 0.77121 0.80263 0.0
H1299 H 0.34064 0.72228 0.85388 0.0
H1300 H 0.32179 0.71254 0.70659 0.0
H1301 H 0.32347 0.72226 0.78643 0.0
H1302 H 0.3607 0.75611 0.74559 0.0
H1303 H 0.35868 0.74658 0.66499 0.0
C1304 C 0.344 0.76836 0.87665 0.0
C1305 C 0.34195 0.75769 0.91438 0.0
C1306 C 0.34453 0.76257 0.83088 0.0
C1307 C 0.34305 0.74593 0.82166 0.0
C1308 C 0.34153 0.7352 0.85961 0.0
C1309 C 0.34097 0.74102 0.90546 0.0
C1310 C 0.33033 0.72208 0.71457 0.0
C1311 C 0.34007 0.72883 0.67942 0.0
C1312 C 0.33141 0.72755 0.76054 0.0
C1313 C 0.34231 0.7399 0.77268 0.0
C1314 C 0.35206 0.74668 0.73744 0.0
C1315 C 0.35095 0.74121 0.69127 0.0
H1316 H 0.95364 0.59806 0.6296 0.0
H1317 H 0.00288 0.5982 0.67971 0.0
H1318 H 0.9634 0.59791 0.54941 0.0
H1319 H 0.01268 0.59838 0.59932 0.0
H1320 H 0.02243 0.57373 0.45889 0.0
H1321 H 0.01293 0.57804 0.53807 0.0
H1322 H 0.9778 0.61257 0.48774 0.0
H1323 H 0.98723 0.60802 0.40773 0.0
C1324 C 0.96657 0.59837 0.62346 0.0
C1325 C 0.97751 0.59797 0.66095 0.0
C1326 C 0.97215 0.59836 0.57745 0.0
C1327 C 0.98881 0.59794 0.56794 0.0
C1328 C -0.00025 0.5984 0.60551 0.0
C1329 C -0.00584 0.59842 0.65155 0.0
C1330 C 0.01266 0.58224 0.4646 0.0
C1331 C 0.00553 0.5905 0.42704 0.0
C1332 C 0.00733 0.58484 0.51012 0.0
C1333 C -0.00528 0.59578 0.51935 0.0
C1334 C 0.9875 0.60401 0.48174 0.0
C1335 C 0.99288 0.60142 0.43598 0.0
H1336 H 0.16156 0.27291 0.21073 0.0
H1337 H 0.13186 0.23352 0.16122 0.0
H1338 H 0.1592 0.26279 0.29009 0.0
H1339 H 0.12921 0.2235 0.24118 0.0
H1340 H 0.14605 0.2009 0.38118 0.0
H1341 H 0.14567 0.21096 0.30138 0.0
H1342 H 0.13976 0.25974 0.35287 0.0
H1343 H 0.14049 0.24965 0.43296 0.0
C1344 C 0.15448 0.26209 0.21684 0.0
C1345 C 0.14694 0.25397 0.1797 0.0
C1346 C 0.15299 0.25638 0.26245 0.0
C1347 C 0.14391 0.2424 0.27211 0.0
C1348 C 0.13639 0.23424 0.23488 0.0
C1349 C 0.13788 0.23997 0.18912 0.0
C1350 C 0.1445 0.21376 0.37548 0.0
C1351 C 0.1434 0.22451 0.41335 0.0
C1352 C 0.1442 0.21952 0.32968 0.0
C1353 C 0.1428 0.23617 0.32069 0.0
C1354 C 0.14112 0.24687 0.35862 0.0
C1355 C 0.14142 0.24109 0.40449 0.0
H1356 H 0.5321 0.39139 0.12351 0.0
H1357 H 0.48284 0.38952 0.17337 0.0
H1358 H 0.52241 0.39146 0.04323 0.0
H1359 H 0.47313 0.38932 0.09292 0.0
H1360 H 0.46261 0.41337 0.95212 0.0
H1361 H 0.47233 0.4097 0.03136 0.0
H1362 H 0.50846 0.37608 0.98175 0.0
H1363 H 0.49878 0.37994 0.90174 0.0
C1364 C 0.5192 0.39071 0.11729 0.0
C1365 C 0.50821 0.39059 0.15476 0.0
C1366 C 0.51366 0.39068 0.07124 0.0
C1367 C 0.497 0.39057 0.06165 0.0
C1368 C 0.48604 0.38969 0.09917 0.0
C1369 C 0.49159 0.38969 0.14525 0.0
C1370 C 0.47265 0.4052 0.958 0.0
C1371 C 0.47996 0.39697 0.92064 0.0
C1372 C 0.47812 0.40297 0.00355 0.0
C1373 C 0.49106 0.39247 0.013 0.0
C1374 C 0.4985 0.38431 0.97558 0.0
C1375 C 0.49297 0.38651 0.92981 0.0
H1376 H 0.12965 0.32999 0.06167 0.0
H1377 H 0.09853 0.29121 0.10778 0.0
H1378 H 0.11018 0.34978 0.09094 0.0
H1379 H 0.07955 0.31078 0.13911 0.0
H1380 H 0.04072 0.3489 0.14708 0.0
H1381 H 0.06024 0.32973 0.11652 0.0
H1382 H 0.09925 0.36116 0.15995 0.0
H1383 H 0.07949 0.38079 0.18847 0.0
C1384 C 0.11866 0.32573 0.07816 0.0
C1385 C 0.11551 0.3091 0.08211 0.0
C1386 C 0.10758 0.33704 0.09537 0.0
C1387 C 0.09325 0.33191 0.11743 0.0
C1388 C 0.09025 0.31522 0.12148 0.0
C1389 C 0.10117 0.30397 0.10367 0.0
C1390 C 0.05347 0.35167 0.15036 0.0
C1391 C 0.05861 0.36629 0.17029 0.0
C1392 C 0.0647 0.34064 0.133 0.0
C1393 C 0.08138 0.34382 0.13586 0.0
C1394 C 0.08651 0.35841 0.15645 0.0
C1395 C 0.07522 0.36959 0.17322 0.0
H1396 H 0.85609 0.83247 0.44174 0.0
H1397 H 0.88764 0.79329 0.401 0.0
H1398 H 0.87615 0.85201 0.41455 0.0
H1399 H 0.90724 0.8126 0.37173 0.0
H1400 H 0.9461 0.85044 0.3627 0.0
H1401 H 0.92633 0.83176 0.39453 0.0
H1402 H 0.8877 0.86269 0.34553 0.0
H1403 H 0.90768 0.88185 0.31581 0.0
C1404 C 0.86732 0.82807 0.42699 0.0
C1405 C 0.87038 0.8114 0.42372 0.0
C1406 C 0.87875 0.83923 0.41097 0.0
C1407 C 0.89333 0.83391 0.39079 0.0
C1408 C 0.89633 0.81719 0.38786 0.0
C1409 C 0.88504 0.80608 0.40449 0.0
C1410 C 0.93338 0.85321 0.35857 0.0
C1411 C 0.92839 0.86753 0.3366 0.0
C1412 C 0.92201 0.84246 0.37668 0.0
C1413 C 0.90537 0.84564 0.37248 0.0
C1414 C 0.9004 0.85996 0.3501 0.0
C1415 C 0.91182 0.87087 0.33264 0.0
H1416 H 0.39002 0.68694 0.57877 0.0
H1417 H 0.3503 0.65298 0.57911 0.0
H1418 H 0.40781 0.66617 0.6102 0.0
H1419 H 0.3682 0.63212 0.61101 0.0
H1420 H 0.41287 0.59664 0.62482 0.0
H1421 H 0.39334 0.61564 0.59107 0.0
H1422 H 0.40914 0.65246 0.68767 0.0
H1423 H 0.42859 0.63369 0.72101 0.0
C1424 C 0.38513 0.67499 0.5852 0.0
C1425 C 0.36876 0.6716 0.57681 0.0
C1426 C 0.39528 0.66314 0.60349 0.0
C1427 C 0.3893 0.64762 0.61365 0.0
C1428 C 0.3731 0.64399 0.60346 0.0
C1429 C 0.36288 0.65592 0.58532 0.0
C1430 C 0.41197 0.60873 0.6392 0.0
C1431 C 0.42232 0.61374 0.67525 0.0
C1432 C 0.40082 0.61957 0.61991 0.0
C1433 C 0.39995 0.63557 0.63628 0.0
C1434 C 0.4098 0.6403 0.67373 0.0
C1435 C 0.42085 0.6295 0.69302 0.0
H1436 H 0.63191 0.15859 0.93995 0.0
H1437 H 0.59972 0.19651 0.89405 0.0
H1438 H 0.61276 0.13827 0.91214 0.0
H1439 H 0.58103 0.17641 0.86417 0.0
H1440 H 0.54309 0.13754 0.85801 0.0
H1441 H 0.56228 0.1571 0.88812 0.0
H1442 H 0.60183 0.12645 0.84376 0.0
H1443 H 0.5824 0.10641 0.81573 0.0
C1444 C 0.62075 0.16255 0.92381 0.0
C1445 C 0.61721 0.17909 0.91946 0.0
C1446 C 0.60985 0.15094 0.90746 0.0
C1447 C 0.59531 0.15567 0.88587 0.0
C1448 C 0.5919 0.17227 0.88146 0.0
C1449 C 0.60266 0.18383 0.89842 0.0
C1450 C 0.55589 0.13502 0.85449 0.0
C1451 C 0.56128 0.12051 0.83435 0.0
C1452 C 0.56692 0.14627 0.87158 0.0
C1453 C 0.58365 0.14344 0.86819 0.0
C1454 C 0.58904 0.12894 0.84761 0.0
C1455 C 0.57794 0.11752 0.83114 0.0
H1456 H 0.07898 0.59594 0.35542 0.0
H1457 H 0.05132 0.63688 0.30637 0.0
H1458 H 0.09918 0.61429 0.38783 0.0
H1459 H 0.0717 0.65519 0.33729 0.0
H1460 H 0.13959 0.65285 0.39585 0.0
H1461 H 0.11996 0.63333 0.36658 0.0
H1462 H 0.08101 0.66452 0.41174 0.0
H1463 H 0.10064 0.68423 0.43951 0.0
C1464 C 0.07736 0.60886 0.35097 0.0
C1465 C 0.06358 0.61502 0.32854 0.0
C1466 C 0.08893 0.61936 0.36947 0.0
C1467 C 0.08696 0.6362 0.36562 0.0
C1468 C 0.07339 0.64229 0.34186 0.0
C1469 C 0.06179 0.63181 0.32371 0.0
C1470 C 0.12682 0.65542 0.39997 0.0
C1471 C 0.12161 0.67008 0.41961 0.0
C1472 C 0.11558 0.64423 0.3833 0.0
C1473 C 0.09892 0.64747 0.38626 0.0
C1474 C 0.09376 0.66184 0.40789 0.0
C1475 C 0.10499 0.67306 0.4242 0.0
H1476 H 0.59893 0.80016 0.56445 0.0
H1477 H 0.63886 0.82968 0.61109 0.0
H1478 H 0.57994 0.82025 0.59376 0.0
H1479 H 0.61985 0.84959 0.64183 0.0
H1480 H 0.58019 0.88873 0.64971 0.0
H1481 H 0.60005 0.86955 0.61955 0.0
H1482 H 0.57042 0.82984 0.66781 0.0
H1483 H 0.55038 0.849 0.69653 0.0
C1484 C 0.60363 0.81098 0.58089 0.0
C1485 C 0.62035 0.81336 0.58558 0.0
C1486 C 0.59276 0.82242 0.59809 0.0
C1487 C 0.59838 0.83643 0.62068 0.0
C1488 C 0.61513 0.83899 0.62432 0.0
C1489 C 0.62602 0.82758 0.60681 0.0
C1490 C 0.57802 0.8759 0.65419 0.0
C1491 C 0.56373 0.87033 0.67522 0.0
C1492 C 0.5894 0.86491 0.63702 0.0
C1493 C 0.58673 0.84817 0.64081 0.0
C1494 C 0.57267 0.84266 0.66336 0.0
C1495 C 0.56126 0.85363 0.6802 0.0
H1496 H 0.40531 0.38967 0.8447 0.0
H1497 H 0.43468 0.34864 0.80547 0.0
H1498 H 0.38532 0.37143 0.87885 0.0
H1499 H 0.41455 0.33041 0.83817 0.0
H1500 H 0.38613 0.30315 0.94601 0.0
H1501 H 0.40515 0.32273 0.91419 0.0
H1502 H 0.36532 0.35107 0.86082 0.0
H1503 H 0.34626 0.33169 0.89405 0.0
C1504 C 0.40735 0.37674 0.84272 0.0
C1505 C 0.42156 0.37055 0.82267 0.0
C1506 C 0.39591 0.3663 0.86221 0.0
C1507 C 0.39845 0.34948 0.86178 0.0
C1508 C 0.41241 0.34332 0.84013 0.0
C1509 C 0.42388 0.35375 0.82097 0.0
C1510 C 0.38144 0.31367 0.92796 0.0
C1511 C 0.36474 0.31588 0.92232 0.0
C1512 C 0.39233 0.3248 0.90933 0.0
C1513 C 0.38676 0.33832 0.8843 0.0
C1514 C 0.37001 0.34083 0.88011 0.0
C1515 C 0.35909 0.32973 0.89907 0.0
H1516 H 0.88721 0.18425 0.05806 0.0
H1517 H 0.84632 0.15567 0.10284 0.0
H1518 H 0.90554 0.16459 0.09263 0.0
H1519 H 0.86468 0.13615 0.1387 0.0
H1520 H 0.90459 0.09722 0.15588 0.0
H1521 H 0.88503 0.11583 0.12147 0.0
H1522 H 0.91338 0.15638 0.17009 0.0
H1523 H 0.93311 0.1378 0.20323 0.0
C1524 C 0.88216 0.17371 0.07514 0.0
C1525 C 0.86537 0.17149 0.07789 0.0
C1526 C 0.89264 0.16253 0.09535 0.0
C1527 C 0.88655 0.14894 0.11904 0.0
C1528 C 0.86974 0.14646 0.12051 0.0
C1529 C 0.85924 0.15763 0.10003 0.0
C1530 C 0.90652 0.11012 0.15964 0.0
C1531 C 0.9204 0.11609 0.18193 0.0
C1532 C 0.89531 0.12077 0.14 0.0
C1533 C 0.89778 0.13757 0.1425 0.0
C1534 C 0.91133 0.1435 0.16661 0.0
C1535 C 0.92256 0.13287 0.18597 0.0
H1536 H 0.88653 0.68666 0.94571 0.0
H1537 H 0.84711 0.65717 0.89545 0.0
H1538 H 0.90585 0.66691 0.91631 0.0
H1539 H 0.86646 0.6376 0.86458 0.0
H1540 H 0.90674 0.59926 0.85236 0.0
H1541 H 0.88661 0.61766 0.88506 0.0
H1542 H 0.91551 0.6585 0.84119 0.0
H1543 H 0.9358 0.64013 0.80995 0.0
C1544 C 0.88201 0.6759 0.92855 0.0
C1545 C 0.86535 0.67346 0.92265 0.0
C1546 C 0.89306 0.66466 0.91131 0.0
C1547 C 0.88769 0.65081 0.88743 0.0
C1548 C 0.87098 0.64809 0.88302 0.0
C1549 C 0.8599 0.65931 0.90062 0.0
C1550 C 0.90869 0.61218 0.84943 0.0
C1551 C 0.92284 0.61829 0.82883 0.0
C1552 C 0.89716 0.62271 0.86807 0.0
C1553 C 0.89955 0.63954 0.86621 0.0
C1554 C 0.91349 0.6456 0.8442 0.0
C1555 C 0.92504 0.63509 0.82589 0.0
H1556 H 0.13764 0.15263 0.59619 0.0
H1557 H 0.09845 0.18438 0.55687 0.0
H1558 H 0.11812 0.13315 0.62705 0.0
H1559 H 0.07901 0.16487 0.5868 0.0
H1560 H 0.05129 0.13844 0.6993 0.0
H1561 H 0.07173 0.15602 0.66545 0.0
H1562 H 0.09576 0.11446 0.60575 0.0
H1563 H 0.07531 0.09673 0.64046 0.0
C1564 C 0.12486 0.15532 0.59344 0.0
C1565 C 0.11955 0.17007 0.57454 0.0
C1566 C 0.11369 0.14416 0.61102 0.0
C1567 C 0.09706 0.14761 0.60997 0.0
C1568 C 0.09177 0.16204 0.58904 0.0
C1569 C 0.1029 0.17317 0.57158 0.0
C1570 C 0.06099 0.13302 0.67925 0.0
C1571 C 0.06169 0.11623 0.67235 0.0
C1572 C 0.07262 0.14311 0.65952 0.0
C1573 C 0.08521 0.13664 0.63236 0.0
C1574 C 0.08621 0.11978 0.6266 0.0
C1575 C 0.07452 0.10965 0.64639 0.0
H1576 H 0.57922 0.39046 0.34443 0.0
H1577 H 0.55106 0.34849 0.30629 0.0
H1578 H 0.5998 0.3729 0.37848 0.0
H1579 H 0.57179 0.33094 0.33903 0.0
H1580 H 0.60106 0.30489 0.44732 0.0
H1581 H 0.58147 0.32389 0.41557 0.0
H1582 H 0.6204 0.35299 0.36003 0.0
H1583 H 0.64006 0.33415 0.3931 0.0
C1584 C 0.57756 0.37748 0.34268 0.0
C1585 C 0.56352 0.37082 0.32294 0.0
C1586 C 0.58936 0.36742 0.36212 0.0
C1587 C 0.58733 0.35054 0.36201 0.0
C1588 C 0.57353 0.34392 0.34069 0.0
C1589 C 0.56172 0.35395 0.32151 0.0
C1590 C 0.60544 0.31546 0.42884 0.0
C1591 C 0.62206 0.31803 0.42248 0.0
C1592 C 0.59421 0.32626 0.41025 0.0
C1593 C 0.59937 0.3398 0.38457 0.0
C1594 C 0.61604 0.3427 0.37978 0.0
C1595 C 0.62729 0.33192 0.39867 0.0
H1596 H 0.3869 0.8003 0.0584 0.0
H1597 H 0.3472 0.82967 0.10772 0.0
H1598 H 0.40605 0.82001 0.08893 0.0
H1599 H 0.36636 0.84917 0.13969 0.0
H1600 H 0.40607 0.88802 0.15028 0.0
H1601 H 0.38616 0.8692 0.1188 0.0
H1602 H 0.41578 0.82896 0.16329 0.0
H1603 H 0.43588 0.84778 0.1933 0.0
C1604 C 0.38228 0.81101 0.07569 0.0
C1605 C 0.36559 0.81346 0.08076 0.0
C1606 C 0.39324 0.82222 0.09358 0.0
C1607 C 0.38774 0.83607 0.11727 0.0
C1608 C 0.371 0.8387 0.12133 0.0
C1609 C 0.36003 0.82752 0.10311 0.0
C1610 C 0.40823 0.87514 0.15366 0.0
C1611 C 0.42254 0.86934 0.17403 0.0
C1612 C 0.39682 0.86436 0.13572 0.0
C1613 C 0.39946 0.84757 0.13809 0.0
C1614 C 0.41355 0.84182 0.15993 0.0
C1615 C 0.425 0.85259 0.17754 0.0
H1616 H 0.90188 0.38828 0.65844 0.0
H1617 H 0.93429 0.34957 0.69738 0.0
H1618 H 0.88237 0.36838 0.6298 0.0
H1619 H 0.91476 0.32978 0.66962 0.0
H1620 H 0.88819 0.30174 0.55775 0.0
H1621 H 0.90564 0.32237 0.59103 0.0
H1622 H 0.86411 0.34569 0.65315 0.0
H1623 H 0.84649 0.32502 0.61908 0.0
C1624 C 0.9047 0.37553 0.66161 0.0
C1625 C 0.91965 0.37045 0.67965 0.0
C1626 C 0.89353 0.36416 0.64533 0.0
C1627 C 0.89717 0.34756 0.64684 0.0
C1628 C 0.91179 0.34251 0.66708 0.0
C1629 C 0.92292 0.35384 0.68326 0.0
C1630 C 0.88275 0.31131 0.57827 0.0
C1631 C 0.866 0.31175 0.58598 0.0
C1632 C 0.89276 0.32305 0.59766 0.0
C1633 C 0.88626 0.3355 0.62524 0.0
C1634 C 0.86944 0.33623 0.63196 0.0
C1635 C 0.85938 0.32441 0.61255 0.0
H1636 H 0.38648 0.19439 0.39419 0.0
H1637 H 0.35492 0.15606 0.44095 0.0
H1638 H 0.40537 0.17453 0.36391 0.0
H1639 H 0.37429 0.13598 0.41276 0.0
H1640 H 0.40495 0.10446 0.31617 0.0
H1641 H 0.38528 0.12427 0.34426 0.0
H1642 H 0.42444 0.15552 0.38762 0.0
H1643 H 0.44386 0.13619 0.35744 0.0
C1644 C 0.38372 0.18167 0.39867 0.0
C1645 C 0.36929 0.17674 0.42008 0.0
C1646 C 0.39459 0.17025 0.38147 0.0
C1647 C 0.39143 0.15361 0.38604 0.0
C1648 C 0.37701 0.14869 0.40796 0.0
C1649 C 0.36599 0.16016 0.42453 0.0
C1650 C 0.40927 0.11566 0.33135 0.0
C1651 C 0.42589 0.11888 0.33428 0.0
C1652 C 0.39803 0.12694 0.34786 0.0
C1653 C 0.40324 0.14154 0.36821 0.0
C1654 C 0.41993 0.14461 0.37127 0.0
C1655 C 0.4311 0.13349 0.35413 0.0
H1656 H 0.59915 0.69278 0.10965 0.0
H1657 H 0.63088 0.65385 0.06804 0.0
H1658 H 0.57995 0.67335 0.14025 0.0
H1659 H 0.61118 0.63416 0.09661 0.0
H1660 H 0.58 0.60429 0.19694 0.0
H1661 H 0.59985 0.62341 0.1661 0.0
H1662 H 0.56096 0.6541 0.11754 0.0
H1663 H 0.54136 0.63549 0.15045 0.0
C1664 C 0.60188 0.68001 0.10631 0.0
C1665 C 0.61646 0.6748 0.08635 0.0
C1666 C 0.59082 0.66883 0.12368 0.0
C1667 C 0.59394 0.65214 0.12075 0.0
C1668 C 0.60848 0.64692 0.1001 0.0
C1669 C 0.6197 0.65816 0.08333 0.0
C1670 C 0.57579 0.61521 0.17995 0.0
C1671 C 0.5592 0.61853 0.1765 0.0
C1672 C 0.58712 0.62608 0.16188 0.0
C1673 C 0.58203 0.64035 0.13941 0.0
C1674 C 0.56537 0.64346 0.13553 0.0
C1675 C 0.5541 0.63275 0.15425 0.0
H1676 H 0.04546 0.85233 0.85469 0.0
H1677 H 0.08449 0.88395 0.81335 0.0
H1678 H 0.06482 0.83262 0.8829 0.0
H1679 H 0.1041 0.86376 0.8397 0.0
H1680 H 0.1343 0.83064 0.93387 0.0
H1681 H 0.11516 0.85126 0.90765 0.0
H1682 H 0.08357 0.81365 0.85577 0.0
H1683 H 0.10224 0.79323 0.88389 0.0
C1684 C 0.05823 0.85495 0.851 0.0
C1685 C 0.06349 0.86962 0.83159 0.0
C1686 C 0.06936 0.8436 0.86701 0.0
C1687 C 0.08605 0.84651 0.86331 0.0
C1688 C 0.09133 0.86121 0.84364 0.0
C1689 C 0.08013 0.8727 0.82816 0.0
C1690 C 0.12318 0.82685 0.9172 0.0
C1691 C 0.11966 0.81037 0.91126 0.0
C1692 C 0.11228 0.83864 0.90177 0.0
C1693 C 0.09778 0.83413 0.87965 0.0
C1694 C 0.09442 0.81759 0.87354 0.0
C1695 C 0.10517 0.80586 0.8895 0.0
loop_
_geom_bond_atom_site_label_1
_geom_bond_atom_site_label_2
_geom_bond_distance
_geom_bond_site_symmetry_2
_ccdc_geom_bond_type
In0 O1 2.294 . S
In0 O2 2.326 . S
In0 O6 2.266 . S
In0 O7 2.326 1_554 S
In0 O8 2.266 . S
In0 O9 2.326 . S
In0 O11 2.294 . S
In0 O12 2.326 . S
O1 In0 2.294 . S
O1 C10 1.240 . S
O2 In0 2.326 . S
O2 C10 1.252 . S
C3 O6 1.252 1_556 S
C3 O7 1.260 . S
C4 O11 1.240 . S
C4 O12 1.252 . S
C5 O8 1.252 . S
C5 O9 1.260 . S
O6 In0 2.266 . S
O6 C3 1.252 1_554 S
O7 In0 2.326 1_556 S
O7 C3 1.260 . S
O8 In0 2.266 . S
O8 C5 1.252 . S
O9 In0 2.326 . S
O9 C5 1.260 . S
C10 O1 1.240 . S
C10 O2 1.252 . S
O11 In0 2.294 . S
O11 C4 1.240 . S
O12 In0 2.326 . S
O12 C4 1.252 . S
In13 O14 2.294 . S
In13 O15 2.326 . S
In13 O19 2.266 . S
In13 O20 2.326 . S
In13 O21 2.266 . S
In13 O22 2.326 . S
In13 O24 2.294 . S
In13 O25 2.326 . S
O14 In13 2.294 . S
O14 C23 1.240 . S
O15 In13 2.326 . S
O15 C23 1.252 . S
C16 O19 1.252 . S
C16 O20 1.260 . S
C17 O24 1.240 . S
C17 O25 1.252 . S
C18 O21 1.252 . S
C18 O22 1.260 . S
O19 In13 2.266 . S
O19 C16 1.252 . S
O20 In13 2.326 . S
O20 C16 1.260 . S
O21 In13 2.266 . S
O21 C18 1.252 . S
O22 In13 2.326 . S
O22 C18 1.260 . S
C23 O14 1.240 . S
C23 O15 1.252 . S
O24 In13 2.294 . S
O24 C17 1.240 . S
O25 In13 2.326 . S
O25 C17 1.252 . S
In26 O27 2.294 . S
In26 O28 2.326 . S
In26 O32 2.266 . S
In26 O33 2.326 . S
In26 O34 2.266 . S
In26 O35 2.326 . S
In26 O37 2.294 . S
In26 O38 2.326 . S
O27 In26 2.294 . S
O27 C36 1.240 . S
O28 In26 2.326 . S
O28 C36 1.252 . S
C29 O32 1.252 . S
C29 O33 1.260 . S
C30 O37 1.240 . S
C30 O38 1.252 . S
C31 O34 1.252 . S
C31 O35 1.260 . S
O32 In26 2.266 . S
O32 C29 1.252 . S
O33 In26 2.326 . S
O33 C29 1.260 . S
O34 In26 2.266 . S
O34 C31 1.252 . S
O35 In26 2.326 . S
O35 C31 1.260 . S
C36 O27 1.240 . S
C36 O28 1.252 . S
O37 In26 2.294 . S
O37 C30 1.240 . S
O38 In26 2.326 . S
O38 C30 1.252 . S
In39 O40 2.294 . S
In39 O41 2.326 . S
In39 O45 2.266 . S
In39 O46 2.326 . S
In39 O47 2.266 . S
In39 O48 2.326 . S
In39 O50 2.294 . S
In39 O51 2.326 . S
O40 In39 2.294 . S
O40 C49 1.240 . S
O41 In39 2.326 . S
O41 C49 1.252 . S
C42 O45 1.252 . S
C42 O46 1.260 . S
C43 O50 1.240 . S
C43 O51 1.252 . S
C44 O47 1.252 . S
C44 O48 1.260 . S
O45 In39 2.266 . S
O45 C42 1.252 . S
O46 In39 2.326 . S
O46 C42 1.260 . S
O47 In39 2.266 . S
O47 C44 1.252 . S
O48 In39 2.326 . S
O48 C44 1.260 . S
C49 O40 1.240 . S
C49 O41 1.252 . S
O50 In39 2.294 . S
O50 C43 1.240 . S
O51 In39 2.326 . S
O51 C43 1.252 . S
In52 O53 2.294 . S
In52 O54 2.326 . S
In52 O58 2.266 . S
In52 O59 2.326 . S
In52 O60 2.266 . S
In52 O61 2.326 . S
In52 O63 2.294 . S
In52 O64 2.326 . S
O53 In52 2.294 . S
O53 C62 1.240 . S
O54 In52 2.326 . S
O54 C62 1.252 . S
C55 O58 1.252 . S
C55 O59 1.260 . S
C56 O63 1.240 . S
C56 O64 1.252 . S
C57 O60 1.252 . S
C57 O61 1.260 . S
O58 In52 2.266 . S
O58 C55 1.252 . S
O59 In52 2.326 . S
O59 C55 1.260 . S
O60 In52 2.266 . S
O60 C57 1.252 . S
O61 In52 2.326 . S
O61 C57 1.260 . S
C62 O53 1.240 . S
C62 O54 1.252 . S
O63 In52 2.294 . S
O63 C56 1.240 . S
O64 In52 2.326 . S
O64 C56 1.252 . S
In65 O66 2.294 . S
In65 O67 2.326 . S
In65 O71 2.266 . S
In65 O72 2.326 . S
In65 O73 2.266 . S
In65 O74 2.326 . S
In65 O76 2.294 . S
In65 O77 2.326 . S
O66 In65 2.294 . S
O66 C75 1.240 . S
O67 In65 2.326 . S
O67 C75 1.252 . S
C68 O71 1.252 . S
C68 O72 1.260 . S
C69 O76 1.240 . S
C69 O77 1.252 . S
C70 O73 1.252 . S
C70 O74 1.260 . S
O71 In65 2.266 . S
O71 C68 1.252 . S
O72 In65 2.326 . S
O72 C68 1.260 . S
O73 In65 2.266 . S
O73 C70 1.252 . S
O74 In65 2.326 . S
O74 C70 1.260 . S
C75 O66 1.240 . S
C75 O67 1.252 . S
O76 In65 2.294 . S
O76 C69 1.240 . S
O77 In65 2.326 . S
O77 C69 1.252 . S
In78 O79 2.294 . S
In78 O80 2.326 . S
In78 O84 2.266 . S
In78 O85 2.326 . S
In78 O86 2.266 . S
In78 O87 2.326 1_556 S
In78 O89 2.294 . S
In78 O90 2.326 . S
O79 In78 2.294 . S
O79 C88 1.240 . S
O80 In78 2.326 . S
O80 C88 1.252 . S
C81 O84 1.252 . S
C81 O85 1.260 . S
C82 O89 1.240 . S
C82 O90 1.252 . S
C83 O86 1.252 1_554 S
C83 O87 1.260 . S
O84 In78 2.266 . S
O84 C81 1.252 . S
O85 In78 2.326 . S
O85 C81 1.260 . S
O86 In78 2.266 . S
O86 C83 1.252 1_556 S
O87 In78 2.326 1_554 S
O87 C83 1.260 . S
C88 O79 1.240 . S
C88 O80 1.252 . S
O89 In78 2.294 . S
O89 C82 1.240 . S
O90 In78 2.326 . S
O90 C82 1.252 . S
In91 O92 2.294 . S
In91 O93 2.326 . S
In91 O97 2.266 . S
In91 O98 2.326 . S
In91 O99 2.266 . S
In91 O100 2.326 . S
In91 O102 2.294 . S
In91 O103 2.326 . S
O92 In91 2.294 . S
O92 C101 1.240 . S
O93 In91 2.326 . S
O93 C101 1.252 . S
C94 O97 1.252 . S
C94 O98 1.260 . S
C95 O102 1.240 . S
C95 O103 1.252 . S
C96 O99 1.252 . S
C96 O100 1.260 . S
O97 In91 2.266 . S
O97 C94 1.252 . S
O98 In91 2.326 . S
O98 C94 1.260 . S
O99 In91 2.266 . S
O99 C96 1.252 . S
O100 In91 2.326 . S
O100 C96 1.260 . S
C101 O92 1.240 . S
C101 O93 1.252 . S
O102 In91 2.294 . S
O102 C95 1.240 . S
O103 In91 2.326 . S
O103 C95 1.252 . S
In104 O105 2.294 . S
In104 O106 2.326 . S
In104 O110 2.266 . S
In104 O111 2.326 . S
In104 O112 2.266 . S
In104 O113 2.326 1_556 S
In104 O115 2.294 . S
In104 O116 2.326 . S
O105 In104 2.294 . S
O105 C114 1.240 . S
O106 In104 2.326 . S
O106 C114 1.252 . S
C107 O110 1.252 . S
C107 O111 1.260 . S
C108 O115 1.240 . S
C108 O116 1.252 . S
C109 O112 1.252 1_554 S
C109 O113 1.260 . S
O110 In104 2.266 . S
O110 C107 1.252 . S
O111 In104 2.326 . S
O111 C107 1.260 . S
O112 In104 2.266 . S
O112 C109 1.252 1_556 S
O113 In104 2.326 1_554 S
O113 C109 1.260 . S
C114 O105 1.240 . S
C114 O106 1.252 . S
O115 In104 2.294 . S
O115 C108 1.240 . S
O116 In104 2.326 . S
O116 C108 1.252 . S
In117 O118 2.294 . S
In117 O119 2.326 . S
In117 O123 2.266 . S
In117 O124 2.326 . S
In117 O125 2.266 . S
In117 O126 2.326 . S
In117 O128 2.294 . S
In117 O129 2.326 . S
O118 In117 2.294 . S
O118 C127 1.240 . S
O119 In117 2.326 . S
O119 C127 1.252 . S
C120 O123 1.252 . S
C120 O124 1.260 . S
C121 O128 1.240 . S
C121 O129 1.252 . S
C122 O125 1.252 . S
C122 O126 1.260 . S
O123 In117 2.266 . S
O123 C120 1.252 . S
O124 In117 2.326 . S
O124 C120 1.260 . S
O125 In117 2.266 . S
O125 C122 1.252 . S
O126 In117 2.326 . S
O126 C122 1.260 . S
C127 O118 1.240 . S
C127 O119 1.252 . S
O128 In117 2.294 . S
O128 C121 1.240 . S
O129 In117 2.326 . S
O129 C121 1.252 . S
In130 O131 2.294 . S
In130 O132 2.326 . S
In130 O136 2.266 . S
In130 O137 2.326 . S
In130 O138 2.266 . S
In130 O139 2.326 . S
In130 O141 2.294 . S
In130 O142 2.326 . S
O131 In130 2.294 . S
O131 C140 1.240 . S
O132 In130 2.326 . S
O132 C140 1.252 . S
C133 O136 1.252 . S
C133 O137 1.260 . S
C134 O141 1.240 . S
C134 O142 1.252 . S
C135 O138 1.252 . S
C135 O139 1.260 . S
O136 In130 2.266 . S
O136 C133 1.252 . S
O137 In130 2.326 . S
O137 C133 1.260 . S
O138 In130 2.266 . S
O138 C135 1.252 . S
O139 In130 2.326 . S
O139 C135 1.260 . S
C140 O131 1.240 . S
C140 O132 1.252 . S
O141 In130 2.294 . S
O141 C134 1.240 . S
O142 In130 2.326 . S
O142 C134 1.252 . S
In143 O144 2.294 . S
In143 O145 2.326 . S
In143 O149 2.266 . S
In143 O150 2.326 . S
In143 O151 2.266 . S
In143 O152 2.326 . S
In143 O154 2.294 . S
In143 O155 2.326 . S
O144 In143 2.294 . S
O144 C153 1.240 . S
O145 In143 2.326 . S
O145 C153 1.252 . S
C146 O149 1.252 . S
C146 O150 1.260 . S
C147 O154 1.240 . S
C147 O155 1.252 . S
C148 O151 1.252 . S
C148 O152 1.260 . S
O149 In143 2.266 . S
O149 C146 1.252 . S
O150 In143 2.326 . S
O150 C146 1.260 . S
O151 In143 2.266 . S
O151 C148 1.252 . S
O152 In143 2.326 . S
O152 C148 1.260 . S
C153 O144 1.240 . S
C153 O145 1.252 . S
O154 In143 2.294 . S
O154 C147 1.240 . S
O155 In143 2.326 . S
O155 C147 1.252 . S
In156 O157 2.294 . S
In156 O158 2.326 . S
In156 O162 2.266 . S
In156 O163 2.326 . S
In156 O164 2.266 . S
In156 O165 2.326 . S
In156 O167 2.294 . S
In156 O168 2.326 . S
O157 In156 2.294 . S
O157 C166 1.240 . S
O158 In156 2.326 . S
O158 C166 1.252 . S
C159 O162 1.252 . S
C159 O163 1.260 . S
C160 O167 1.240 . S
C160 O168 1.252 . S
C161 O164 1.252 . S
C161 O165 1.260 . S
O162 In156 2.266 . S
O162 C159 1.252 . S
O163 In156 2.326 . S
O163 C159 1.260 . S
O164 In156 2.266 . S
O164 C161 1.252 . S
O165 In156 2.326 . S
O165 C161 1.260 . S
C166 O157 1.240 . S
C166 O158 1.252 . S
O167 In156 2.294 . S
O167 C160 1.240 . S
O168 In156 2.326 . S
O168 C160 1.252 . S
In169 O170 2.294 . S
In169 O171 2.326 . S
In169 O175 2.266 . S
In169 O176 2.326 . S
In169 O177 2.266 . S
In169 O178 2.326 . S
In169 O180 2.294 . S
In169 O181 2.326 . S
O170 In169 2.294 . S
O170 C179 1.240 . S
O171 In169 2.326 . S
O171 C179 1.252 . S
C172 O175 1.252 . S
C172 O176 1.260 . S
C173 O180 1.240 . S
C173 O181 1.252 . S
C174 O177 1.252 . S
C174 O178 1.260 . S
O175 In169 2.266 . S
O175 C172 1.252 . S
O176 In169 2.326 . S
O176 C172 1.260 . S
O177 In169 2.266 . S
O177 C174 1.252 . S
O178 In169 2.326 . S
O178 C174 1.260 . S
C179 O170 1.240 . S
C179 O171 1.252 . S
O180 In169 2.294 . S
O180 C173 1.240 . S
O181 In169 2.326 . S
O181 C173 1.252 . S
In182 O183 2.294 . S
In182 O184 2.326 . S
In182 O188 2.266 . S
In182 O189 2.326 1_554 S
In182 O190 2.266 . S
In182 O191 2.326 . S
In182 O193 2.294 . S
In182 O194 2.326 . S
O183 In182 2.294 . S
O183 C192 1.240 . S
O184 In182 2.326 . S
O184 C192 1.252 . S
C185 O188 1.252 1_556 S
C185 O189 1.260 . S
C186 O193 1.240 . S
C186 O194 1.252 . S
C187 O190 1.252 . S
C187 O191 1.260 . S
O188 In182 2.266 . S
O188 C185 1.252 1_554 S
O189 In182 2.326 1_556 S
O189 C185 1.260 . S
O190 In182 2.266 . S
O190 C187 1.252 . S
O191 In182 2.326 . S
O191 C187 1.260 . S
C192 O183 1.240 . S
C192 O184 1.252 . S
O193 In182 2.294 . S
O193 C186 1.240 . S
O194 In182 2.326 . S
O194 C186 1.252 . S
In195 O196 2.294 . S
In195 O197 2.326 . S
In195 O201 2.266 . S
In195 O202 2.326 . S
In195 O203 2.266 . S
In195 O204 2.326 . S
In195 O206 2.294 . S
In195 O207 2.326 . S
O196 In195 2.294 . S
O196 C205 1.240 . S
O197 In195 2.326 . S
O197 C205 1.252 . S
C198 O201 1.252 . S
C198 O202 1.260 . S
C199 O206 1.240 . S
C199 O207 1.252 . S
C200 O203 1.252 . S
C200 O204 1.260 . S
O201 In195 2.266 . S
O201 C198 1.252 . S
O202 In195 2.326 . S
O202 C198 1.260 . S
O203 In195 2.266 . S
O203 C200 1.252 . S
O204 In195 2.326 . S
O204 C200 1.260 . S
C205 O196 1.240 . S
C205 O197 1.252 . S
O206 In195 2.294 . S
O206 C199 1.240 . S
O207 In195 2.326 . S
O207 C199 1.252 . S
In208 O209 2.294 . S
In208 O210 2.326 . S
In208 O214 2.266 . S
In208 O215 2.326 . S
In208 O216 2.266 . S
In208 O217 2.326 . S
In208 O219 2.294 . S
In208 O220 2.326 . S
O209 In208 2.294 . S
O209 C218 1.240 . S
O210 In208 2.326 . S
O210 C218 1.252 . S
C211 O214 1.252 . S
C211 O215 1.260 . S
C212 O219 1.240 . S
C212 O220 1.252 . S
C213 O216 1.252 . S
C213 O217 1.260 . S
O214 In208 2.266 . S
O214 C211 1.252 . S
O215 In208 2.326 . S
O215 C211 1.260 . S
O216 In208 2.266 . S
O216 C213 1.252 . S
O217 In208 2.326 . S
O217 C213 1.260 . S
C218 O209 1.240 . S
C218 O210 1.252 . S
O219 In208 2.294 . S
O219 C212 1.240 . S
O220 In208 2.326 . S
O220 C212 1.252 . S
In221 O222 2.294 . S
In221 O223 2.326 . S
In221 O227 2.266 . S
In221 O228 2.326 . S
In221 O229 2.266 . S
In221 O230 2.326 . S
In221 O232 2.294 . S
In221 O233 2.326 . S
O222 In221 2.294 . S
O222 C231 1.240 . S
O223 In221 2.326 . S
O223 C231 1.252 . S
C224 O227 1.252 . S
C224 O228 1.260 . S
C225 O232 1.240 . S
C225 O233 1.252 . S
C226 O229 1.252 . S
C226 O230 1.260 . S
O227 In221 2.266 . S
O227 C224 1.252 . S
O228 In221 2.326 . S
O228 C224 1.260 . S
O229 In221 2.266 . S
O229 C226 1.252 . S
O230 In221 2.326 . S
O230 C226 1.260 . S
C231 O222 1.240 . S
C231 O223 1.252 . S
O232 In221 2.294 . S
O232 C225 1.240 . S
O233 In221 2.326 . S
O233 C225 1.252 . S
In234 O235 2.294 . S
In234 O236 2.326 . S
In234 O240 2.266 . S
In234 O241 2.326 1_554 S
In234 O242 2.266 . S
In234 O243 2.326 . S
In234 O245 2.294 . S
In234 O246 2.326 . S
O235 In234 2.294 . S
O235 C244 1.240 . S
O236 In234 2.326 . S
O236 C244 1.252 . S
C237 O240 1.252 1_556 S
C237 O241 1.260 . S
C238 O245 1.240 . S
C238 O246 1.252 . S
C239 O242 1.252 . S
C239 O243 1.260 . S
O240 In234 2.266 . S
O240 C237 1.252 1_554 S
O241 In234 2.326 1_556 S
O241 C237 1.260 . S
O242 In234 2.266 . S
O242 C239 1.252 . S
O243 In234 2.326 . S
O243 C239 1.260 . S
C244 O235 1.240 . S
C244 O236 1.252 . S
O245 In234 2.294 . S
O245 C238 1.240 . S
O246 In234 2.326 . S
O246 C238 1.252 . S
In247 O248 2.294 . S
In247 O249 2.326 . S
In247 O253 2.266 . S
In247 O254 2.326 . S
In247 O255 2.266 . S
In247 O256 2.326 . S
In247 O258 2.294 . S
In247 O259 2.326 . S
O248 In247 2.294 . S
O248 C257 1.240 . S
O249 In247 2.326 . S
O249 C257 1.252 . S
C250 O253 1.252 . S
C250 O254 1.260 . S
C251 O258 1.240 . S
C251 O259 1.252 . S
C252 O255 1.252 . S
C252 O256 1.260 . S
O253 In247 2.266 . S
O253 C250 1.252 . S
O254 In247 2.326 . S
O254 C250 1.260 . S
O255 In247 2.266 . S
O255 C252 1.252 . S
O256 In247 2.326 . S
O256 C252 1.260 . S
C257 O248 1.240 . S
C257 O249 1.252 . S
O258 In247 2.294 . S
O258 C251 1.240 . S
O259 In247 2.326 . S
O259 C251 1.252 . S
In260 O261 2.294 . S
In260 O262 2.326 . S
In260 O266 2.266 . S
In260 O267 2.326 . S
In260 O268 2.266 . S
In260 O269 2.326 1_556 S
In260 O271 2.294 . S
In260 O272 2.326 . S
O261 In260 2.294 . S
O261 C270 1.240 . S
O262 In260 2.326 . S
O262 C270 1.252 . S
C263 O266 1.252 . S
C263 O267 1.260 . S
C264 O271 1.240 . S
C264 O272 1.252 . S
C265 O268 1.252 1_554 S
C265 O269 1.260 . S
O266 In260 2.266 . S
O266 C263 1.252 . S
O267 In260 2.326 . S
O267 C263 1.260 . S
O268 In260 2.266 . S
O268 C265 1.252 1_556 S
O269 In260 2.326 1_554 S
O269 C265 1.260 . S
C270 O261 1.240 . S
C270 O262 1.252 . S
O271 In260 2.294 . S
O271 C264 1.240 . S
O272 In260 2.326 . S
O272 C264 1.252 . S
In273 O274 2.294 . S
In273 O275 2.326 . S
In273 O279 2.266 . S
In273 O280 2.326 . S
In273 O281 2.266 . S
In273 O282 2.326 . S
In273 O284 2.294 . S
In273 O285 2.326 . S
O274 In273 2.294 . S
O274 C283 1.240 . S
O275 In273 2.326 . S
O275 C283 1.252 . S
C276 O279 1.252 . S
C276 O280 1.260 . S
C277 O284 1.240 . S
C277 O285 1.252 . S
C278 O281 1.252 . S
C278 O282 1.260 . S
O279 In273 2.266 . S
O279 C276 1.252 . S
O280 In273 2.326 . S
O280 C276 1.260 . S
O281 In273 2.266 . S
O281 C278 1.252 . S
O282 In273 2.326 . S
O282 C278 1.260 . S
C283 O274 1.240 . S
C283 O275 1.252 . S
O284 In273 2.294 . S
O284 C277 1.240 . S
O285 In273 2.326 . S
O285 C277 1.252 . S
In286 O287 2.294 . S
In286 O288 2.326 . S
In286 O292 2.266 . S
In286 O293 2.326 . S
In286 O294 2.266 . S
In286 O295 2.326 . S
In286 O297 2.294 . S
In286 O298 2.326 . S
O287 In286 2.294 . S
O287 C296 1.240 . S
O288 In286 2.326 . S
O288 C296 1.252 . S
C289 O292 1.252 . S
C289 O293 1.260 . S
C290 O297 1.240 . S
C290 O298 1.252 . S
C291 O294 1.252 . S
C291 O295 1.260 . S
O292 In286 2.266 . S
O292 C289 1.252 . S
O293 In286 2.326 . S
O293 C289 1.260 . S
O294 In286 2.266 . S
O294 C291 1.252 . S
O295 In286 2.326 . S
O295 C291 1.260 . S
C296 O287 1.240 . S
C296 O288 1.252 . S
O297 In286 2.294 . S
O297 C290 1.240 . S
O298 In286 2.326 . S
O298 C290 1.252 . S
In299 O300 2.294 . S
In299 O301 2.326 . S
In299 O305 2.266 . S
In299 O306 2.326 . S
In299 O307 2.266 . S
In299 O308 2.326 . S
In299 O310 2.294 . S
In299 O311 2.326 . S
O300 In299 2.294 . S
O300 C309 1.240 . S
O301 In299 2.326 . S
O301 C309 1.252 . S
C302 O305 1.252 . S
C302 O306 1.260 . S
C303 O310 1.240 . S
C303 O311 1.252 . S
C304 O307 1.252 . S
C304 O308 1.260 . S
O305 In299 2.266 . S
O305 C302 1.252 . S
O306 In299 2.326 . S
O306 C302 1.260 . S
O307 In299 2.266 . S
O307 C304 1.252 . S
O308 In299 2.326 . S
O308 C304 1.260 . S
C309 O300 1.240 . S
C309 O301 1.252 . S
O310 In299 2.294 . S
O310 C303 1.240 . S
O311 In299 2.326 . S
O311 C303 1.252 . S
In312 O313 2.294 . S
In312 O314 2.326 . S
In312 O318 2.266 . S
In312 O319 2.326 . S
In312 O320 2.266 . S
In312 O321 2.326 . S
In312 O323 2.294 . S
In312 O324 2.326 . S
O313 In312 2.294 . S
O313 C322 1.240 . S
O314 In312 2.326 . S
O314 C322 1.252 . S
C315 O318 1.252 . S
C315 O319 1.260 . S
C316 O323 1.240 . S
C316 O324 1.252 . S
C317 O320 1.252 . S
C317 O321 1.260 . S
O318 In312 2.266 . S
O318 C315 1.252 . S
O319 In312 2.326 . S
O319 C315 1.260 . S
O320 In312 2.266 . S
O320 C317 1.252 . S
O321 In312 2.326 . S
O321 C317 1.260 . S
C322 O313 1.240 . S
C322 O314 1.252 . S
O323 In312 2.294 . S
O323 C316 1.240 . S
O324 In312 2.326 . S
O324 C316 1.252 . S
In325 O326 2.294 . S
In325 O327 2.326 . S
In325 O331 2.266 . S
In325 O332 2.326 . S
In325 O333 2.266 . S
In325 O334 2.326 . S
In325 O336 2.294 . S
In325 O337 2.326 . S
O326 In325 2.294 . S
O326 C335 1.240 . S
O327 In325 2.326 . S
O327 C335 1.252 . S
C328 O331 1.252 . S
C328 O332 1.260 . S
C329 O336 1.240 . S
C329 O337 1.252 . S
C330 O333 1.252 . S
C330 O334 1.260 . S
O331 In325 2.266 . S
O331 C328 1.252 . S
O332 In325 2.326 . S
O332 C328 1.260 . S
O333 In325 2.266 . S
O333 C330 1.252 . S
O334 In325 2.326 . S
O334 C330 1.260 . S
C335 O326 1.240 . S
C335 O327 1.252 . S
O336 In325 2.294 . S
O336 C329 1.240 . S
O337 In325 2.326 . S
O337 C329 1.252 . S
In338 O339 2.294 . S
In338 O340 2.326 . S
In338 O344 2.266 . S
In338 O345 2.326 1_556 S
In338 O346 2.266 . S
In338 O347 2.326 . S
In338 O349 2.294 . S
In338 O350 2.326 . S
O339 In338 2.294 . S
O339 C348 1.240 . S
O340 In338 2.326 . S
O340 C348 1.252 . S
C341 O344 1.252 1_554 S
C341 O345 1.260 . S
C342 O349 1.240 . S
C342 O350 1.252 . S
C343 O346 1.252 . S
C343 O347 1.260 . S
O344 In338 2.266 . S
O344 C341 1.252 1_556 S
O345 In338 2.326 1_554 S
O345 C341 1.260 . S
O346 In338 2.266 . S
O346 C343 1.252 . S
O347 In338 2.326 . S
O347 C343 1.260 . S
C348 O339 1.240 . S
C348 O340 1.252 . S
O349 In338 2.294 . S
O349 C342 1.240 . S
O350 In338 2.326 . S
O350 C342 1.252 . S
In351 O352 2.294 . S
In351 O353 2.326 . S
In351 O357 2.266 . S
In351 O358 2.326 . S
In351 O359 2.266 . S
In351 O360 2.326 . S
In351 O362 2.294 . S
In351 O363 2.326 . S
O352 In351 2.294 . S
O352 C361 1.240 . S
O353 In351 2.326 . S
O353 C361 1.252 . S
C354 O357 1.252 . S
C354 O358 1.260 . S
C355 O362 1.240 . S
C355 O363 1.252 . S
C356 O359 1.252 . S
C356 O360 1.260 . S
O357 In351 2.266 . S
O357 C354 1.252 . S
O358 In351 2.326 . S
O358 C354 1.260 . S
O359 In351 2.266 . S
O359 C356 1.252 . S
O360 In351 2.326 . S
O360 C356 1.260 . S
C361 O352 1.240 . S
C361 O353 1.252 . S
O362 In351 2.294 . S
O362 C355 1.240 . S
O363 In351 2.326 . S
O363 C355 1.252 . S
In364 O365 2.294 . S
In364 O366 2.326 . S
In364 O370 2.266 . S
In364 O371 2.326 . S
In364 O372 2.266 . S
In364 O373 2.326 1_554 S
In364 O375 2.294 . S
In364 O376 2.326 . S
O365 In364 2.294 . S
O365 C374 1.240 . S
O366 In364 2.326 . S
O366 C374 1.252 . S
C367 O370 1.252 . S
C367 O371 1.260 . S
C368 O375 1.240 . S
C368 O376 1.252 . S
C369 O372 1.252 1_556 S
C369 O373 1.260 . S
O370 In364 2.266 . S
O370 C367 1.252 . S
O371 In364 2.326 . S
O371 C367 1.260 . S
O372 In364 2.266 . S
O372 C369 1.252 1_554 S
O373 In364 2.326 1_556 S
O373 C369 1.260 . S
C374 O365 1.240 . S
C374 O366 1.252 . S
O375 In364 2.294 . S
O375 C368 1.240 . S
O376 In364 2.326 . S
O376 C368 1.252 . S
In377 O378 2.294 . S
In377 O379 2.326 . S
In377 O383 2.266 . S
In377 O384 2.326 . S
In377 O385 2.266 . S
In377 O386 2.326 . S
In377 O388 2.294 . S
In377 O389 2.326 . S
O378 In377 2.294 . S
O378 C387 1.240 . S
O379 In377 2.326 . S
O379 C387 1.252 . S
C380 O383 1.252 . S
C380 O384 1.260 . S
C381 O388 1.240 . S
C381 O389 1.252 . S
C382 O385 1.252 . S
C382 O386 1.260 . S
O383 In377 2.266 . S
O383 C380 1.252 . S
O384 In377 2.326 . S
O384 C380 1.260 . S
O385 In377 2.266 . S
O385 C382 1.252 . S
O386 In377 2.326 . S
O386 C382 1.260 . S
C387 O378 1.240 . S
C387 O379 1.252 . S
O388 In377 2.294 . S
O388 C381 1.240 . S
O389 In377 2.326 . S
O389 C381 1.252 . S
In390 O391 2.294 . S
In390 O392 2.326 . S
In390 O396 2.266 . S
In390 O397 2.326 . S
In390 O398 2.266 . S
In390 O399 2.326 . S
In390 O401 2.294 . S
In390 O402 2.326 . S
O391 In390 2.294 . S
O391 C400 1.240 . S
O392 In390 2.326 . S
O392 C400 1.252 . S
C393 O396 1.252 . S
C393 O397 1.260 . S
C394 O401 1.240 . S
C394 O402 1.252 . S
C395 O398 1.252 . S
C395 O399 1.260 . S
O396 In390 2.266 . S
O396 C393 1.252 . S
O397 In390 2.326 . S
O397 C393 1.260 . S
O398 In390 2.266 . S
O398 C395 1.252 . S
O399 In390 2.326 . S
O399 C395 1.260 . S
C400 O391 1.240 . S
C400 O392 1.252 . S
O401 In390 2.294 . S
O401 C394 1.240 . S
O402 In390 2.326 . S
O402 C394 1.252 . S
In403 O404 2.294 . S
In403 O405 2.326 . S
In403 O409 2.266 . S
In403 O410 2.326 . S
In403 O411 2.266 . S
In403 O412 2.326 . S
In403 O414 2.294 . S
In403 O415 2.326 . S
O404 In403 2.294 . S
O404 C413 1.240 . S
O405 In403 2.326 . S
O405 C413 1.252 . S
C406 O409 1.252 . S
C406 O410 1.260 . S
C407 O414 1.240 . S
C407 O415 1.252 . S
C408 O411 1.252 . S
C408 O412 1.260 . S
O409 In403 2.266 . S
O409 C406 1.252 . S
O410 In403 2.326 . S
O410 C406 1.260 . S
O411 In403 2.266 . S
O411 C408 1.252 . S
O412 In403 2.326 . S
O412 C408 1.260 . S
C413 O404 1.240 . S
C413 O405 1.252 . S
O414 In403 2.294 . S
O414 C407 1.240 . S
O415 In403 2.326 . S
O415 C407 1.252 . S
H416 C424 0.950 . S
H417 C429 0.950 . S
H418 C426 0.950 . S
H419 C428 0.950 . S
H420 C430 0.950 . S
H421 C432 0.950 . S
H422 C434 0.950 . S
H423 C435 0.950 . S
C424 H416 0.950 . S
C424 C425 1.386 1_554 S
C424 C426 1.391 . S
C425 C424 1.386 1_556 S
C425 C429 1.393 . S
C426 H418 0.950 . S
C426 C424 1.391 . S
C426 C427 1.400 1_554 S
C427 C426 1.400 1_556 S
C427 C428 1.398 . S
C427 C433 1.491 1_556 S
C428 H419 0.950 . S
C428 C427 1.398 . S
C428 C429 1.391 . S
C429 H417 0.950 . S
C429 C425 1.393 . S
C429 C428 1.391 . S
C430 H420 0.950 . S
C430 C431 1.386 1_556 S
C430 C432 1.391 . S
C431 C430 1.386 1_554 S
C431 C435 1.393 . S
C432 H421 0.950 . S
C432 C430 1.391 . S
C432 C433 1.400 1_556 S
C433 C427 1.491 1_554 S
C433 C432 1.400 1_554 S
C433 C434 1.398 . S
C434 H422 0.950 . S
C434 C433 1.398 . S
C434 C435 1.391 . S
C435 H423 0.950 . S
C435 C431 1.393 . S
C435 C434 1.391 . S
H436 C444 0.950 . S
H437 C449 0.950 . S
H438 C446 0.950 . S
H439 C448 0.950 . S
H440 C450 0.950 . S
H441 C452 0.950 . S
H442 C454 0.950 . S
H443 C455 0.950 . S
C444 H436 0.950 . S
C444 C445 1.386 . S
C444 C446 1.391 . S
C445 C444 1.386 . S
C445 C449 1.393 . S
C446 H438 0.950 . S
C446 C444 1.391 . S
C446 C447 1.400 . S
C447 C446 1.400 . S
C447 C448 1.398 . S
C447 C453 1.491 1_565 S
C448 H439 0.950 . S
C448 C447 1.398 . S
C448 C449 1.391 . S
C449 H437 0.950 . S
C449 C445 1.393 . S
C449 C448 1.391 . S
C450 H440 0.950 . S
C450 C451 1.386 . S
C450 C452 1.391 . S
C451 C450 1.386 . S
C451 C455 1.393 . S
C452 H441 0.950 . S
C452 C450 1.391 . S
C452 C453 1.400 . S
C453 C447 1.491 1_545 S
C453 C452 1.400 . S
C453 C454 1.398 . S
C454 H442 0.950 . S
C454 C453 1.398 . S
C454 C455 1.391 . S
C455 H443 0.950 . S
C455 C451 1.393 . S
C455 C454 1.391 . S
H456 C464 0.950 . S
H457 C469 0.950 . S
H458 C466 0.950 . S
H459 C468 0.950 . S
H460 C470 0.950 . S
H461 C472 0.950 . S
H462 C474 0.950 . S
H463 C475 0.950 . S
C464 H456 0.950 . S
C464 C465 1.386 . S
C464 C466 1.391 . S
C465 C464 1.386 . S
C465 C469 1.393 . S
C466 H458 0.950 . S
C466 C464 1.391 . S
C466 C467 1.400 . S
C467 C466 1.400 . S
C467 C468 1.398 . S
C467 C473 1.491 . S
C468 H459 0.950 . S
C468 C467 1.398 . S
C468 C469 1.391 . S
C469 H457 0.950 . S
C469 C465 1.393 . S
C469 C468 1.391 . S
C470 H460 0.950 . S
C470 C471 1.386 . S
C470 C472 1.391 . S
C471 C470 1.386 . S
C471 C475 1.393 . S
C472 H461 0.950 . S
C472 C470 1.391 . S
C472 C473 1.400 . S
C473 C467 1.491 . S
C473 C472 1.400 . S
C473 C474 1.398 . S
C474 H462 0.950 . S
C474 C473 1.398 . S
C474 C475 1.391 . S
C475 H463 0.950 . S
C475 C471 1.393 . S
C475 C474 1.391 . S
H476 C484 0.950 . S
H477 C489 0.950 . S
H478 C486 0.950 . S
H479 C488 0.950 . S
H480 C490 0.950 . S
H481 C492 0.950 . S
H482 C494 0.950 . S
H483 C495 0.950 . S
C484 H476 0.950 . S
C484 C485 1.386 . S
C484 C486 1.391 . S
C485 C484 1.386 . S
C485 C489 1.393 . S
C486 H478 0.950 . S
C486 C484 1.391 . S
C486 C487 1.400 . S
C487 C486 1.400 . S
C487 C488 1.398 . S
C487 C493 1.491 1_545 S
C488 H479 0.950 . S
C488 C487 1.398 . S
C488 C489 1.391 . S
C489 H477 0.950 . S
C489 C485 1.393 . S
C489 C488 1.391 . S
C490 H480 0.950 . S
C490 C491 1.386 . S
C490 C492 1.391 . S
C491 C490 1.386 . S
C491 C495 1.393 . S
C492 H481 0.950 . S
C492 C490 1.391 . S
C492 C493 1.400 . S
C493 C487 1.491 1_565 S
C493 C492 1.400 . S
C493 C494 1.398 . S
C494 H482 0.950 . S
C494 C493 1.398 . S
C494 C495 1.391 . S
C495 H483 0.950 . S
C495 C491 1.393 . S
C495 C494 1.391 . S
H496 C504 0.950 . S
H497 C509 0.950 . S
H498 C506 0.950 . S
H499 C508 0.950 . S
H500 C510 0.950 . S
H501 C512 0.950 . S
H502 C514 0.950 . S
H503 C515 0.950 . S
C504 H496 0.950 . S
C504 C505 1.386 . S
C504 C506 1.391 . S
C505 C504 1.386 . S
C505 C509 1.393 1_554 S
C506 H498 0.950 . S
C506 C504 1.391 . S
C506 C507 1.400 . S
C507 C506 1.400 . S
C507 C508 1.398 1_554 S
C507 C513 1.491 1_554 S
C508 H499 0.950 . S
C508 C507 1.398 1_556 S
C508 C509 1.391 . S
C509 H497 0.950 . S
C509 C505 1.393 1_556 S
C509 C508 1.391 . S
C510 H500 0.950 . S
C510 C511 1.386 . S
C510 C512 1.391 . S
C511 C510 1.386 . S
C511 C515 1.393 1_556 S
C512 H501 0.950 . S
C512 C510 1.391 . S
C512 C513 1.400 . S
C513 C507 1.491 1_556 S
C513 C512 1.400 . S
C513 C514 1.398 1_556 S
C514 H502 0.950 . S
C514 C513 1.398 1_554 S
C514 C515 1.391 . S
C515 H503 0.950 . S
C515 C511 1.393 1_554 S
C515 C514 1.391 . S
H516 C524 0.950 . S
H517 C529 0.950 . S
H518 C526 0.950 . S
H519 C528 0.950 . S
H520 C530 0.950 . S
H521 C532 0.950 . S
H522 C534 0.950 . S
H523 C535 0.950 . S
C524 H516 0.950 . S
C524 C525 1.386 . S
C524 C526 1.391 . S
C525 C524 1.386 . S
C525 C529 1.393 . S
C526 H518 0.950 . S
C526 C524 1.391 . S
C526 C527 1.400 . S
C527 C526 1.400 . S
C527 C528 1.398 . S
C527 C533 1.491 1_565 S
C528 H519 0.950 . S
C528 C527 1.398 . S
C528 C529 1.391 . S
C529 H517 0.950 . S
C529 C525 1.393 . S
C529 C528 1.391 . S
C530 H520 0.950 . S
C530 C531 1.386 . S
C530 C532 1.391 . S
C531 C530 1.386 . S
C531 C535 1.393 . S
C532 H521 0.950 . S
C532 C530 1.391 . S
C532 C533 1.400 . S
C533 C527 1.491 1_545 S
C533 C532 1.400 . S
C533 C534 1.398 . S
C534 H522 0.950 . S
C534 C533 1.398 . S
C534 C535 1.391 . S
C535 H523 0.950 . S
C535 C531 1.393 . S
C535 C534 1.391 . S
H536 C544 0.950 . S
H537 C549 0.950 . S
H538 C546 0.950 . S
H539 C548 0.950 . S
H540 C550 0.950 . S
H541 C552 0.950 . S
H542 C554 0.950 . S
H543 C555 0.950 . S
C544 H536 0.950 . S
C544 C545 1.386 . S
C544 C546 1.391 . S
C545 C544 1.386 . S
C545 C549 1.393 . S
C546 H538 0.950 . S
C546 C544 1.391 . S
C546 C547 1.400 . S
C547 C546 1.400 . S
C547 C548 1.398 . S
C547 C553 1.491 . S
C548 H539 0.950 . S
C548 C547 1.398 . S
C548 C549 1.391 . S
C549 H537 0.950 . S
C549 C545 1.393 . S
C549 C548 1.391 . S
C550 H540 0.950 . S
C550 C551 1.386 . S
C550 C552 1.391 . S
C551 C550 1.386 . S
C551 C555 1.393 . S
C552 H541 0.950 . S
C552 C550 1.391 . S
C552 C553 1.400 . S
C553 C547 1.491 . S
C553 C552 1.400 . S
C553 C554 1.398 . S
C554 H542 0.950 . S
C554 C553 1.398 . S
C554 C555 1.391 . S
C555 H543 0.950 . S
C555 C551 1.393 . S
C555 C554 1.391 . S
H556 C564 0.950 . S
H557 C569 0.950 . S
H558 C566 0.950 . S
H559 C568 0.950 . S
H560 C570 0.950 . S
H561 C572 0.950 . S
H562 C574 0.950 . S
H563 C575 0.950 . S
C564 H556 0.950 . S
C564 C565 1.386 . S
C564 C566 1.391 . S
C565 C564 1.386 . S
C565 C569 1.393 . S
C566 H558 0.950 . S
C566 C564 1.391 . S
C566 C567 1.400 . S
C567 C566 1.400 . S
C567 C568 1.398 . S
C567 C573 1.491 1_565 S
C568 H559 0.950 . S
C568 C567 1.398 . S
C568 C569 1.391 . S
C569 H557 0.950 . S
C569 C565 1.393 . S
C569 C568 1.391 . S
C570 H560 0.950 . S
C570 C571 1.386 . S
C570 C572 1.391 . S
C571 C570 1.386 . S
C571 C575 1.393 . S
C572 H561 0.950 . S
C572 C570 1.391 . S
C572 C573 1.400 . S
C573 C567 1.491 1_545 S
C573 C572 1.400 . S
C573 C574 1.398 . S
C574 H562 0.950 . S
C574 C573 1.398 . S
C574 C575 1.391 . S
C575 H563 0.950 . S
C575 C571 1.393 . S
C575 C574 1.391 . S
H576 C584 0.950 . S
H577 C589 0.950 . S
H578 C586 0.950 . S
H579 C588 0.950 . S
H580 C590 0.950 . S
H581 C592 0.950 . S
H582 C594 0.950 . S
H583 C595 0.950 . S
C584 H576 0.950 . S
C584 C585 1.386 . S
C584 C586 1.391 . S
C585 C584 1.386 . S
C585 C589 1.393 . S
C586 H578 0.950 . S
C586 C584 1.391 . S
C586 C587 1.400 . S
C587 C586 1.400 . S
C587 C588 1.398 . S
C587 C593 1.491 . S
C588 H579 0.950 . S
C588 C587 1.398 . S
C588 C589 1.391 . S
C589 H577 0.950 . S
C589 C585 1.393 . S
C589 C588 1.391 . S
C590 H580 0.950 . S
C590 C591 1.386 . S
C590 C592 1.391 . S
C591 C590 1.386 . S
C591 C595 1.393 . S
C592 H581 0.950 . S
C592 C590 1.391 . S
C592 C593 1.400 . S
C593 C587 1.491 . S
C593 C592 1.400 . S
C593 C594 1.398 . S
C594 H582 0.950 . S
C594 C593 1.398 . S
C594 C595 1.391 . S
C595 H583 0.950 . S
C595 C591 1.393 . S
C595 C594 1.391 . S
H596 C604 0.950 . S
H597 C609 0.950 . S
H598 C606 0.950 . S
H599 C608 0.950 . S
H600 C610 0.950 . S
H601 C612 0.950 . S
H602 C614 0.950 . S
H603 C615 0.950 . S
C604 H596 0.950 . S
C604 C605 1.386 . S
C604 C606 1.391 . S
C605 C604 1.386 . S
C605 C609 1.393 . S
C606 H598 0.950 . S
C606 C604 1.391 . S
C606 C607 1.400 . S
C607 C606 1.400 . S
C607 C608 1.398 . S
C607 C613 1.491 . S
C608 H599 0.950 . S
C608 C607 1.398 . S
C608 C609 1.391 . S
C609 H597 0.950 . S
C609 C605 1.393 . S
C609 C608 1.391 . S
C610 H600 0.950 . S
C610 C611 1.386 . S
C610 C612 1.391 . S
C611 C610 1.386 . S
C611 C615 1.393 . S
C612 H601 0.950 . S
C612 C610 1.391 . S
C612 C613 1.400 . S
C613 C607 1.491 . S
C613 C612 1.400 . S
C613 C614 1.398 . S
C614 H602 0.950 . S
C614 C613 1.398 . S
C614 C615 1.391 . S
C615 H603 0.950 . S
C615 C611 1.393 . S
C615 C614 1.391 . S
H616 C624 0.950 . S
H617 C629 0.950 . S
H618 C626 0.950 . S
H619 C628 0.950 . S
H620 C630 0.950 . S
H621 C632 0.950 . S
H622 C634 0.950 . S
H623 C635 0.950 . S
C624 H616 0.950 . S
C624 C625 1.386 . S
C624 C626 1.391 . S
C625 C624 1.386 . S
C625 C629 1.393 1_556 S
C626 H618 0.950 . S
C626 C624 1.391 . S
C626 C627 1.400 . S
C627 C626 1.400 . S
C627 C628 1.398 1_556 S
C627 C633 1.491 1_556 S
C628 H619 0.950 . S
C628 C627 1.398 1_554 S
C628 C629 1.391 . S
C629 H617 0.950 . S
C629 C625 1.393 1_554 S
C629 C628 1.391 . S
C630 H620 0.950 . S
C630 C631 1.386 . S
C630 C632 1.391 . S
C631 C630 1.386 . S
C631 C635 1.393 1_554 S
C632 H621 0.950 . S
C632 C630 1.391 . S
C632 C633 1.400 . S
C633 C627 1.491 1_554 S
C633 C632 1.400 . S
C633 C634 1.398 1_554 S
C634 H622 0.950 . S
C634 C633 1.398 1_556 S
C634 C635 1.391 . S
C635 H623 0.950 . S
C635 C631 1.393 1_556 S
C635 C634 1.391 . S
H636 C644 0.950 . S
H637 C649 0.950 . S
H638 C646 0.950 . S
H639 C648 0.950 . S
H640 C650 0.950 . S
H641 C652 0.950 . S
H642 C654 0.950 . S
H643 C655 0.950 . S
C644 H636 0.950 . S
C644 C645 1.386 . S
C644 C646 1.391 . S
C645 C644 1.386 . S
C645 C649 1.393 . S
C646 H638 0.950 . S
C646 C644 1.391 . S
C646 C647 1.400 . S
C647 C646 1.400 . S
C647 C648 1.398 . S
C647 C653 1.491 . S
C648 H639 0.950 . S
C648 C647 1.398 . S
C648 C649 1.391 . S
C649 H637 0.950 . S
C649 C645 1.393 . S
C649 C648 1.391 . S
C650 H640 0.950 . S
C650 C651 1.386 . S
C650 C652 1.391 . S
C651 C650 1.386 . S
C651 C655 1.393 . S
C652 H641 0.950 . S
C652 C650 1.391 . S
C652 C653 1.400 . S
C653 C647 1.491 . S
C653 C652 1.400 . S
C653 C654 1.398 . S
C654 H642 0.950 . S
C654 C653 1.398 . S
C654 C655 1.391 . S
C655 H643 0.950 . S
C655 C651 1.393 . S
C655 C654 1.391 . S
H656 C664 0.950 . S
H657 C669 0.950 . S
H658 C666 0.950 . S
H659 C668 0.950 . S
H660 C670 0.950 . S
H661 C672 0.950 . S
H662 C674 0.950 . S
H663 C675 0.950 . S
C664 H656 0.950 . S
C664 C665 1.386 . S
C664 C666 1.391 . S
C665 C664 1.386 . S
C665 C669 1.393 . S
C666 H658 0.950 . S
C666 C664 1.391 . S
C666 C667 1.400 . S
C667 C666 1.400 . S
C667 C668 1.398 . S
C667 C673 1.491 . S
C668 H659 0.950 . S
C668 C667 1.398 . S
C668 C669 1.391 . S
C669 H657 0.950 . S
C669 C665 1.393 . S
C669 C668 1.391 . S
C670 H660 0.950 . S
C670 C671 1.386 . S
C670 C672 1.391 . S
C671 C670 1.386 . S
C671 C675 1.393 . S
C672 H661 0.950 . S
C672 C670 1.391 . S
C672 C673 1.400 . S
C673 C667 1.491 . S
C673 C672 1.400 . S
C673 C674 1.398 . S
C674 H662 0.950 . S
C674 C673 1.398 . S
C674 C675 1.391 . S
C675 H663 0.950 . S
C675 C671 1.393 . S
C675 C674 1.391 . S
H676 C684 0.950 . S
H677 C689 0.950 . S
H678 C686 0.950 . S
H679 C688 0.950 . S
H680 C690 0.950 . S
H681 C692 0.950 . S
H682 C694 0.950 . S
H683 C695 0.950 . S
C684 H676 0.950 . S
C684 C685 1.386 . S
C684 C686 1.391 . S
C685 C684 1.386 . S
C685 C689 1.393 . S
C686 H678 0.950 . S
C686 C684 1.391 . S
C686 C687 1.400 . S
C687 C686 1.400 . S
C687 C688 1.398 . S
C687 C693 1.491 . S
C688 H679 0.950 . S
C688 C687 1.398 . S
C688 C689 1.391 . S
C689 H677 0.950 . S
C689 C685 1.393 . S
C689 C688 1.391 . S
C690 H680 0.950 . S
C690 C691 1.386 . S
C690 C692 1.391 . S
C691 C690 1.386 . S
C691 C695 1.393 . S
C692 H681 0.950 . S
C692 C690 1.391 . S
C692 C693 1.400 . S
C693 C687 1.491 . S
C693 C692 1.400 . S
C693 C694 1.398 . S
C694 H682 0.950 . S
C694 C693 1.398 . S
C694 C695 1.391 . S
C695 H683 0.950 . S
C695 C691 1.393 . S
C695 C694 1.391 . S
H696 C704 0.950 . S
H697 C709 0.950 . S
H698 C706 0.950 . S
H699 C708 0.950 . S
H700 C710 0.950 . S
H701 C712 0.950 . S
H702 C714 0.950 . S
H703 C715 0.950 . S
C704 H696 0.950 . S
C704 C705 1.386 1_556 S
C704 C706 1.391 . S
C705 C704 1.386 1_554 S
C705 C709 1.393 . S
C706 H698 0.950 . S
C706 C704 1.391 . S
C706 C707 1.400 1_556 S
C707 C706 1.400 1_554 S
C707 C708 1.398 . S
C707 C713 1.491 1_554 S
C708 H699 0.950 . S
C708 C707 1.398 . S
C708 C709 1.391 . S
C709 H697 0.950 . S
C709 C705 1.393 . S
C709 C708 1.391 . S
C710 H700 0.950 . S
C710 C711 1.386 1_554 S
C710 C712 1.391 . S
C711 C710 1.386 1_556 S
C711 C715 1.393 . S
C712 H701 0.950 . S
C712 C710 1.391 . S
C712 C713 1.400 1_554 S
C713 C707 1.491 1_556 S
C713 C712 1.400 1_556 S
C713 C714 1.398 . S
C714 H702 0.950 . S
C714 C713 1.398 . S
C714 C715 1.391 . S
C715 H703 0.950 . S
C715 C711 1.393 . S
C715 C714 1.391 . S
H716 C724 0.950 . S
H717 C729 0.950 . S
H718 C726 0.950 . S
H719 C728 0.950 . S
H720 C730 0.950 . S
H721 C732 0.950 . S
H722 C734 0.950 . S
H723 C735 0.950 . S
C724 H716 0.950 . S
C724 C725 1.386 . S
C724 C726 1.391 . S
C725 C724 1.386 . S
C725 C729 1.393 . S
C726 H718 0.950 . S
C726 C724 1.391 . S
C726 C727 1.400 . S
C727 C726 1.400 . S
C727 C728 1.398 . S
C727 C733 1.491 . S
C728 H719 0.950 . S
C728 C727 1.398 . S
C728 C729 1.391 . S
C729 H717 0.950 . S
C729 C725 1.393 . S
C729 C728 1.391 . S
C730 H720 0.950 . S
C730 C731 1.386 . S
C730 C732 1.391 . S
C731 C730 1.386 . S
C731 C735 1.393 . S
C732 H721 0.950 . S
C732 C730 1.391 . S
C732 C733 1.400 . S
C733 C727 1.491 . S
C733 C732 1.400 . S
C733 C734 1.398 . S
C734 H722 0.950 . S
C734 C733 1.398 . S
C734 C735 1.391 . S
C735 H723 0.950 . S
C735 C731 1.393 . S
C735 C734 1.391 . S
H736 C744 0.950 . S
H737 C749 0.950 . S
H738 C746 0.950 . S
H739 C748 0.950 . S
H740 C750 0.950 . S
H741 C752 0.950 . S
H742 C754 0.950 . S
H743 C755 0.950 . S
C744 H736 0.950 . S
C744 C745 1.386 . S
C744 C746 1.391 . S
C745 C744 1.386 . S
C745 C749 1.393 . S
C746 H738 0.950 . S
C746 C744 1.391 . S
C746 C747 1.400 . S
C747 C746 1.400 . S
C747 C748 1.398 . S
C747 C753 1.491 . S
C748 H739 0.950 . S
C748 C747 1.398 . S
C748 C749 1.391 . S
C749 H737 0.950 . S
C749 C745 1.393 . S
C749 C748 1.391 . S
C750 H740 0.950 . S
C750 C751 1.386 . S
C750 C752 1.391 . S
C751 C750 1.386 . S
C751 C755 1.393 . S
C752 H741 0.950 . S
C752 C750 1.391 . S
C752 C753 1.400 . S
C753 C747 1.491 . S
C753 C752 1.400 . S
C753 C754 1.398 . S
C754 H742 0.950 . S
C754 C753 1.398 . S
C754 C755 1.391 . S
C755 H743 0.950 . S
C755 C751 1.393 . S
C755 C754 1.391 . S
H756 C764 0.950 . S
H757 C769 0.950 . S
H758 C766 0.950 . S
H759 C768 0.950 . S
H760 C770 0.950 . S
H761 C772 0.950 . S
H762 C774 0.950 . S
H763 C775 0.950 . S
C764 H756 0.950 . S
C764 C765 1.386 . S
C764 C766 1.391 1_556 S
C765 C764 1.386 . S
C765 C769 1.393 1_455 S
C766 H758 0.950 . S
C766 C764 1.391 1_554 S
C766 C767 1.400 . S
C767 C766 1.400 . S
C767 C768 1.398 1_455 S
C767 C773 1.491 1_455 S
C768 H759 0.950 . S
C768 C767 1.398 1_655 S
C768 C769 1.391 1_554 S
C769 H757 0.950 . S
C769 C765 1.393 1_655 S
C769 C768 1.391 1_556 S
C770 H760 0.950 . S
C770 C771 1.386 . S
C770 C772 1.391 . S
C771 C770 1.386 . S
C771 C775 1.393 1_655 S
C772 H761 0.950 . S
C772 C770 1.391 . S
C772 C773 1.400 . S
C773 C767 1.491 1_655 S
C773 C772 1.400 . S
C773 C774 1.398 1_655 S
C774 H762 0.950 . S
C774 C773 1.398 1_455 S
C774 C775 1.391 . S
C775 H763 0.950 . S
C775 C771 1.393 1_455 S
C775 C774 1.391 . S
H776 C784 0.950 . S
H777 C789 0.950 . S
H778 C786 0.950 . S
H779 C788 0.950 . S
H780 C790 0.950 . S
H781 C792 0.950 . S
H782 C794 0.950 . S
H783 C795 0.950 . S
C784 H776 0.950 . S
C784 C785 1.386 . S
C784 C786 1.391 . S
C785 C784 1.386 . S
C785 C789 1.393 . S
C786 H778 0.950 . S
C786 C784 1.391 . S
C786 C787 1.400 . S
C787 C786 1.400 . S
C787 C788 1.398 . S
C787 C793 1.491 . S
C788 H779 0.950 . S
C788 C787 1.398 . S
C788 C789 1.391 . S
C789 H777 0.950 . S
C789 C785 1.393 . S
C789 C788 1.391 . S
C790 H780 0.950 . S
C790 C791 1.386 . S
C790 C792 1.391 . S
C791 C790 1.386 . S
C791 C795 1.393 . S
C792 H781 0.950 . S
C792 C790 1.391 . S
C792 C793 1.400 . S
C793 C787 1.491 . S
C793 C792 1.400 . S
C793 C794 1.398 . S
C794 H782 0.950 . S
C794 C793 1.398 . S
C794 C795 1.391 . S
C795 H783 0.950 . S
C795 C791 1.393 . S
C795 C794 1.391 . S
H796 C804 0.950 . S
H797 C809 0.950 . S
H798 C806 0.950 . S
H799 C808 0.950 . S
H800 C810 0.950 . S
H801 C812 0.950 . S
H802 C814 0.950 . S
H803 C815 0.950 . S
C804 H796 0.950 . S
C804 C805 1.386 . S
C804 C806 1.391 . S
C805 C804 1.386 . S
C805 C809 1.393 . S
C806 H798 0.950 . S
C806 C804 1.391 . S
C806 C807 1.400 . S
C807 C806 1.400 . S
C807 C808 1.398 . S
C807 C813 1.491 . S
C808 H799 0.950 . S
C808 C807 1.398 . S
C808 C809 1.391 . S
C809 H797 0.950 . S
C809 C805 1.393 . S
C809 C808 1.391 . S
C810 H800 0.950 . S
C810 C811 1.386 . S
C810 C812 1.391 . S
C811 C810 1.386 . S
C811 C815 1.393 . S
C812 H801 0.950 . S
C812 C810 1.391 . S
C812 C813 1.400 . S
C813 C807 1.491 . S
C813 C812 1.400 . S
C813 C814 1.398 . S
C814 H802 0.950 . S
C814 C813 1.398 . S
C814 C815 1.391 . S
C815 H803 0.950 . S
C815 C811 1.393 . S
C815 C814 1.391 . S
H816 C824 0.950 . S
H817 C829 0.950 . S
H818 C826 0.950 . S
H819 C828 0.950 . S
H820 C830 0.950 . S
H821 C832 0.950 . S
H822 C834 0.950 . S
H823 C835 0.950 . S
C824 H816 0.950 . S
C824 C825 1.386 . S
C824 C826 1.391 . S
C825 C824 1.386 . S
C825 C829 1.393 . S
C826 H818 0.950 . S
C826 C824 1.391 . S
C826 C827 1.400 . S
C827 C826 1.400 . S
C827 C828 1.398 . S
C827 C833 1.491 . S
C828 H819 0.950 . S
C828 C827 1.398 . S
C828 C829 1.391 . S
C829 H817 0.950 . S
C829 C825 1.393 . S
C829 C828 1.391 . S
C830 H820 0.950 . S
C830 C831 1.386 . S
C830 C832 1.391 . S
C831 C830 1.386 . S
C831 C835 1.393 . S
C832 H821 0.950 . S
C832 C830 1.391 . S
C832 C833 1.400 . S
C833 C827 1.491 . S
C833 C832 1.400 . S
C833 C834 1.398 . S
C834 H822 0.950 . S
C834 C833 1.398 . S
C834 C835 1.391 . S
C835 H823 0.950 . S
C835 C831 1.393 . S
C835 C834 1.391 . S
H836 C844 0.950 . S
H837 C849 0.950 . S
H838 C846 0.950 . S
H839 C848 0.950 . S
H840 C850 0.950 . S
H841 C852 0.950 . S
H842 C854 0.950 . S
H843 C855 0.950 . S
C844 H836 0.950 . S
C844 C845 1.386 . S
C844 C846 1.391 1_554 S
C845 C844 1.386 . S
C845 C849 1.393 . S
C846 H838 0.950 . S
C846 C844 1.391 1_556 S
C846 C847 1.400 . S
C847 C846 1.400 . S
C847 C848 1.398 . S
C847 C853 1.491 . S
C848 H839 0.950 . S
C848 C847 1.398 . S
C848 C849 1.391 1_556 S
C849 H837 0.950 . S
C849 C845 1.393 . S
C849 C848 1.391 1_554 S
C850 H840 0.950 . S
C850 C851 1.386 . S
C850 C852 1.391 . S
C851 C850 1.386 . S
C851 C855 1.393 . S
C852 H841 0.950 . S
C852 C850 1.391 . S
C852 C853 1.400 . S
C853 C847 1.491 . S
C853 C852 1.400 . S
C853 C854 1.398 . S
C854 H842 0.950 . S
C854 C853 1.398 . S
C854 C855 1.391 . S
C855 H843 0.950 . S
C855 C851 1.393 . S
C855 C854 1.391 . S
H856 C864 0.950 . S
H857 C869 0.950 . S
H858 C866 0.950 . S
H859 C868 0.950 . S
H860 C870 0.950 . S
H861 C872 0.950 . S
H862 C874 0.950 . S
H863 C875 0.950 . S
C864 H856 0.950 . S
C864 C865 1.386 . S
C864 C866 1.391 . S
C865 C864 1.386 . S
C865 C869 1.393 . S
C866 H858 0.950 . S
C866 C864 1.391 . S
C866 C867 1.400 . S
C867 C866 1.400 . S
C867 C868 1.398 . S
C867 C873 1.491 . S
C868 H859 0.950 . S
C868 C867 1.398 . S
C868 C869 1.391 . S
C869 H857 0.950 . S
C869 C865 1.393 . S
C869 C868 1.391 . S
C870 H860 0.950 . S
C870 C871 1.386 . S
C870 C872 1.391 . S
C871 C870 1.386 . S
C871 C875 1.393 . S
C872 H861 0.950 . S
C872 C870 1.391 . S
C872 C873 1.400 . S
C873 C867 1.491 . S
C873 C872 1.400 . S
C873 C874 1.398 . S
C874 H862 0.950 . S
C874 C873 1.398 . S
C874 C875 1.391 . S
C875 H863 0.950 . S
C875 C871 1.393 . S
C875 C874 1.391 . S
H876 C884 0.950 . S
H877 C889 0.950 . S
H878 C886 0.950 . S
H879 C888 0.950 . S
H880 C890 0.950 . S
H881 C892 0.950 . S
H882 C894 0.950 . S
H883 C895 0.950 . S
C884 H876 0.950 . S
C884 C885 1.386 . S
C884 C886 1.391 . S
C885 C884 1.386 . S
C885 C889 1.393 . S
C886 H878 0.950 . S
C886 C884 1.391 . S
C886 C887 1.400 . S
C887 C886 1.400 . S
C887 C888 1.398 . S
C887 C893 1.491 1_455 S
C888 H879 0.950 . S
C888 C887 1.398 . S
C888 C889 1.391 . S
C889 H877 0.950 . S
C889 C885 1.393 . S
C889 C888 1.391 . S
C890 H880 0.950 . S
C890 C891 1.386 . S
C890 C892 1.391 . S
C891 C890 1.386 . S
C891 C895 1.393 . S
C892 H881 0.950 . S
C892 C890 1.391 . S
C892 C893 1.400 . S
C893 C887 1.491 1_655 S
C893 C892 1.400 . S
C893 C894 1.398 . S
C894 H882 0.950 . S
C894 C893 1.398 . S
C894 C895 1.391 . S
C895 H883 0.950 . S
C895 C891 1.393 . S
C895 C894 1.391 . S
H896 C904 0.950 . S
H897 C909 0.950 . S
H898 C906 0.950 . S
H899 C908 0.950 . S
H900 C910 0.950 . S
H901 C912 0.950 . S
H902 C914 0.950 . S
H903 C915 0.950 . S
C904 H896 0.950 . S
C904 C905 1.386 . S
C904 C906 1.391 . S
C905 C904 1.386 . S
C905 C909 1.393 . S
C906 H898 0.950 . S
C906 C904 1.391 . S
C906 C907 1.400 . S
C907 C906 1.400 . S
C907 C908 1.398 . S
C907 C913 1.491 . S
C908 H899 0.950 . S
C908 C907 1.398 . S
C908 C909 1.391 . S
C909 H897 0.950 . S
C909 C905 1.393 . S
C909 C908 1.391 . S
C910 H900 0.950 . S
C910 C911 1.386 . S
C910 C912 1.391 . S
C911 C910 1.386 . S
C911 C915 1.393 . S
C912 H901 0.950 . S
C912 C910 1.391 . S
C912 C913 1.400 . S
C913 C907 1.491 . S
C913 C912 1.400 . S
C913 C914 1.398 . S
C914 H902 0.950 . S
C914 C913 1.398 . S
C914 C915 1.391 . S
C915 H903 0.950 . S
C915 C911 1.393 . S
C915 C914 1.391 . S
H916 C924 0.950 . S
H917 C929 0.950 . S
H918 C926 0.950 . S
H919 C928 0.950 . S
H920 C930 0.950 . S
H921 C932 0.950 . S
H922 C934 0.950 . S
H923 C935 0.950 . S
C924 H916 0.950 . S
C924 C925 1.386 1_455 S
C924 C926 1.391 1_554 S
C925 C924 1.386 1_655 S
C925 C929 1.393 . S
C926 H918 0.950 . S
C926 C924 1.391 1_556 S
C926 C927 1.400 1_455 S
C927 C926 1.400 1_655 S
C927 C928 1.398 . S
C927 C933 1.491 1_655 S
C928 H919 0.950 . S
C928 C927 1.398 . S
C928 C929 1.391 1_556 S
C929 H917 0.950 . S
C929 C925 1.393 . S
C929 C928 1.391 1_554 S
C930 H920 0.950 . S
C930 C931 1.386 1_655 S
C930 C932 1.391 . S
C931 C930 1.386 1_455 S
C931 C935 1.393 . S
C932 H921 0.950 . S
C932 C930 1.391 . S
C932 C933 1.400 1_655 S
C933 C927 1.491 1_455 S
C933 C932 1.400 1_455 S
C933 C934 1.398 . S
C934 H922 0.950 . S
C934 C933 1.398 . S
C934 C935 1.391 . S
C935 H923 0.950 . S
C935 C931 1.393 . S
C935 C934 1.391 . S
H936 C944 0.950 . S
H937 C949 0.950 . S
H938 C946 0.950 . S
H939 C948 0.950 . S
H940 C950 0.950 . S
H941 C952 0.950 . S
H942 C954 0.950 . S
H943 C955 0.950 . S
C944 H936 0.950 . S
C944 C945 1.386 . S
C944 C946 1.391 . S
C945 C944 1.386 . S
C945 C949 1.393 . S
C946 H938 0.950 . S
C946 C944 1.391 . S
C946 C947 1.400 . S
C947 C946 1.400 . S
C947 C948 1.398 . S
C947 C953 1.491 . S
C948 H939 0.950 . S
C948 C947 1.398 . S
C948 C949 1.391 . S
C949 H937 0.950 . S
C949 C945 1.393 . S
C949 C948 1.391 . S
C950 H940 0.950 . S
C950 C951 1.386 . S
C950 C952 1.391 . S
C951 C950 1.386 . S
C951 C955 1.393 . S
C952 H941 0.950 . S
C952 C950 1.391 . S
C952 C953 1.400 . S
C953 C947 1.491 . S
C953 C952 1.400 . S
C953 C954 1.398 . S
C954 H942 0.950 . S
C954 C953 1.398 . S
C954 C955 1.391 . S
C955 H943 0.950 . S
C955 C951 1.393 . S
C955 C954 1.391 . S
H956 C964 0.950 . S
H957 C969 0.950 . S
H958 C966 0.950 . S
H959 C968 0.950 . S
H960 C970 0.950 . S
H961 C972 0.950 . S
H962 C974 0.950 . S
H963 C975 0.950 . S
C964 H956 0.950 . S
C964 C965 1.386 . S
C964 C966 1.391 . S
C965 C964 1.386 . S
C965 C969 1.393 . S
C966 H958 0.950 . S
C966 C964 1.391 . S
C966 C967 1.400 . S
C967 C966 1.400 . S
C967 C968 1.398 . S
C967 C973 1.491 . S
C968 H959 0.950 . S
C968 C967 1.398 . S
C968 C969 1.391 . S
C969 H957 0.950 . S
C969 C965 1.393 . S
C969 C968 1.391 . S
C970 H960 0.950 . S
C970 C971 1.386 . S
C970 C972 1.391 . S
C971 C970 1.386 . S
C971 C975 1.393 . S
C972 H961 0.950 . S
C972 C970 1.391 . S
C972 C973 1.400 . S
C973 C967 1.491 . S
C973 C972 1.400 . S
C973 C974 1.398 . S
C974 H962 0.950 . S
C974 C973 1.398 . S
C974 C975 1.391 . S
C975 H963 0.950 . S
C975 C971 1.393 . S
C975 C974 1.391 . S
H976 C984 0.950 . S
H977 C989 0.950 . S
H978 C986 0.950 . S
H979 C988 0.950 . S
H980 C990 0.950 . S
H981 C992 0.950 . S
H982 C994 0.950 . S
H983 C995 0.950 . S
C984 H976 0.950 . S
C984 C985 1.386 . S
C984 C986 1.391 . S
C985 C984 1.386 . S
C985 C989 1.393 . S
C986 H978 0.950 . S
C986 C984 1.391 . S
C986 C987 1.400 . S
C987 C986 1.400 . S
C987 C988 1.398 . S
C987 C993 1.491 . S
C988 H979 0.950 . S
C988 C987 1.398 . S
C988 C989 1.391 . S
C989 H977 0.950 . S
C989 C985 1.393 . S
C989 C988 1.391 . S
C990 H980 0.950 . S
C990 C991 1.386 . S
C990 C992 1.391 . S
C991 C990 1.386 . S
C991 C995 1.393 . S
C992 H981 0.950 . S
C992 C990 1.391 . S
C992 C993 1.400 . S
C993 C987 1.491 . S
C993 C992 1.400 . S
C993 C994 1.398 . S
C994 H982 0.950 . S
C994 C993 1.398 . S
C994 C995 1.391 . S
C995 H983 0.950 . S
C995 C991 1.393 . S
C995 C994 1.391 . S
H996 C1004 0.950 . S
H997 C1009 0.950 . S
H998 C1006 0.950 . S
H999 C1008 0.950 . S
H1000 C1010 0.950 . S
H1001 C1012 0.950 . S
H1002 C1014 0.950 . S
H1003 C1015 0.950 . S
C1004 H996 0.950 . S
C1004 C1005 1.386 . S
C1004 C1006 1.391 . S
C1005 C1004 1.386 . S
C1005 C1009 1.393 . S
C1006 H998 0.950 . S
C1006 C1004 1.391 . S
C1006 C1007 1.400 . S
C1007 C1006 1.400 . S
C1007 C1008 1.398 . S
C1007 C1013 1.491 . S
C1008 H999 0.950 . S
C1008 C1007 1.398 . S
C1008 C1009 1.391 . S
C1009 H997 0.950 . S
C1009 C1005 1.393 . S
C1009 C1008 1.391 . S
C1010 H1000 0.950 . S
C1010 C1011 1.386 . S
C1010 C1012 1.391 1_556 S
C1011 C1010 1.386 . S
C1011 C1015 1.393 . S
C1012 H1001 0.950 . S
C1012 C1010 1.391 1_554 S
C1012 C1013 1.400 . S
C1013 C1007 1.491 . S
C1013 C1012 1.400 . S
C1013 C1014 1.398 . S
C1014 H1002 0.950 . S
C1014 C1013 1.398 . S
C1014 C1015 1.391 1_554 S
C1015 H1003 0.950 . S
C1015 C1011 1.393 . S
C1015 C1014 1.391 1_556 S
H1016 C1024 0.950 . S
H1017 C1029 0.950 . S
H1018 C1026 0.950 . S
H1019 C1028 0.950 . S
H1020 C1030 0.950 . S
H1021 C1032 0.950 . S
H1022 C1034 0.950 . S
H1023 C1035 0.950 . S
C1024 H1016 0.950 . S
C1024 C1025 1.386 . S
C1024 C1026 1.391 . S
C1025 C1024 1.386 . S
C1025 C1029 1.393 . S
C1026 H1018 0.950 . S
C1026 C1024 1.391 . S
C1026 C1027 1.400 . S
C1027 C1026 1.400 . S
C1027 C1028 1.398 . S
C1027 C1033 1.491 . S
C1028 H1019 0.950 . S
C1028 C1027 1.398 . S
C1028 C1029 1.391 . S
C1029 H1017 0.950 . S
C1029 C1025 1.393 . S
C1029 C1028 1.391 . S
C1030 H1020 0.950 . S
C1030 C1031 1.386 . S
C1030 C1032 1.391 . S
C1031 C1030 1.386 . S
C1031 C1035 1.393 . S
C1032 H1021 0.950 . S
C1032 C1030 1.391 . S
C1032 C1033 1.400 . S
C1033 C1027 1.491 . S
C1033 C1032 1.400 . S
C1033 C1034 1.398 . S
C1034 H1022 0.950 . S
C1034 C1033 1.398 . S
C1034 C1035 1.391 . S
C1035 H1023 0.950 . S
C1035 C1031 1.393 . S
C1035 C1034 1.391 . S
H1036 C1044 0.950 . S
H1037 C1049 0.950 . S
H1038 C1046 0.932 1_455 S
H1039 C1048 0.950 . S
H1040 C1050 0.950 . S
H1041 C1052 0.950 1_655 S
H1042 C1054 0.950 . S
H1043 C1055 0.950 . S
C1044 H1036 0.950 . S
C1044 C1045 1.386 . S
C1044 C1046 1.407 . S
C1045 C1044 1.386 . S
C1045 C1049 1.393 . S
C1046 H1038 0.932 1_655 S
C1046 C1044 1.407 . S
C1046 C1047 1.406 . S
C1047 C1046 1.406 . S
C1047 C1048 1.398 . S
C1047 C1053 1.491 1_655 S
C1048 H1039 0.950 . S
C1048 C1047 1.398 . S
C1048 C1049 1.391 . S
C1049 H1037 0.950 . S
C1049 C1045 1.393 . S
C1049 C1048 1.391 . S
C1050 H1040 0.950 . S
C1050 C1051 1.386 . S
C1050 C1052 1.391 . S
C1051 C1050 1.386 . S
C1051 C1055 1.393 . S
C1052 H1041 0.950 1_455 S
C1052 C1050 1.391 . S
C1052 C1053 1.400 . S
C1053 C1047 1.491 1_455 S
C1053 C1052 1.400 . S
C1053 C1054 1.398 . S
C1054 H1042 0.950 . S
C1054 C1053 1.398 . S
C1054 C1055 1.391 . S
C1055 H1043 0.950 . S
C1055 C1051 1.393 . S
C1055 C1054 1.391 . S
H1056 C1064 0.950 . S
H1057 C1069 0.950 . S
H1058 C1066 0.950 . S
H1059 C1068 0.950 . S
H1060 C1070 0.950 . S
H1061 C1072 0.950 . S
H1062 C1074 0.950 . S
H1063 C1075 0.950 . S
C1064 H1056 0.950 . S
C1064 C1065 1.386 . S
C1064 C1066 1.391 . S
C1065 C1064 1.386 . S
C1065 C1069 1.393 . S
C1066 H1058 0.950 . S
C1066 C1064 1.391 . S
C1066 C1067 1.400 . S
C1067 C1066 1.400 . S
C1067 C1068 1.398 . S
C1067 C1073 1.491 . S
C1068 H1059 0.950 . S
C1068 C1067 1.398 . S
C1068 C1069 1.391 . S
C1069 H1057 0.950 . S
C1069 C1065 1.393 . S
C1069 C1068 1.391 . S
C1070 H1060 0.950 . S
C1070 C1071 1.386 . S
C1070 C1072 1.391 . S
C1071 C1070 1.386 . S
C1071 C1075 1.393 . S
C1072 H1061 0.950 . S
C1072 C1070 1.391 . S
C1072 C1073 1.400 . S
C1073 C1067 1.491 . S
C1073 C1072 1.400 . S
C1073 C1074 1.398 . S
C1074 H1062 0.950 . S
C1074 C1073 1.398 . S
C1074 C1075 1.391 . S
C1075 H1063 0.950 . S
C1075 C1071 1.393 . S
C1075 C1074 1.391 . S
H1076 C1084 0.950 . S
H1077 C1089 0.950 . S
H1078 C1086 0.950 . S
H1079 C1088 0.950 . S
H1080 C1090 0.950 . S
H1081 C1092 0.950 . S
H1082 C1094 0.950 . S
H1083 C1095 0.950 . S
C1084 H1076 0.950 . S
C1084 C1085 1.386 . S
C1084 C1086 1.391 . S
C1085 C1084 1.386 . S
C1085 C1089 1.393 . S
C1086 H1078 0.950 . S
C1086 C1084 1.391 . S
C1086 C1087 1.400 . S
C1087 C1086 1.400 . S
C1087 C1088 1.398 . S
C1087 C1093 1.491 . S
C1088 H1079 0.950 . S
C1088 C1087 1.398 . S
C1088 C1089 1.391 . S
C1089 H1077 0.950 . S
C1089 C1085 1.393 . S
C1089 C1088 1.391 . S
C1090 H1080 0.950 . S
C1090 C1091 1.386 . S
C1090 C1092 1.391 . S
C1091 C1090 1.386 . S
C1091 C1095 1.393 . S
C1092 H1081 0.950 . S
C1092 C1090 1.391 . S
C1092 C1093 1.400 . S
C1093 C1087 1.491 . S
C1093 C1092 1.400 . S
C1093 C1094 1.398 . S
C1094 H1082 0.950 . S
C1094 C1093 1.398 . S
C1094 C1095 1.391 . S
C1095 H1083 0.950 . S
C1095 C1091 1.393 . S
C1095 C1094 1.391 . S
H1096 C1104 0.950 . S
H1097 C1109 0.950 . S
H1098 C1106 0.950 . S
H1099 C1108 0.950 . S
H1100 C1110 0.950 . S
H1101 C1112 0.950 . S
H1102 C1114 0.950 . S
H1103 C1115 0.950 . S
C1104 H1096 0.950 . S
C1104 C1105 1.386 . S
C1104 C1106 1.391 . S
C1105 C1104 1.386 . S
C1105 C1109 1.393 . S
C1106 H1098 0.950 . S
C1106 C1104 1.391 . S
C1106 C1107 1.400 . S
C1107 C1106 1.400 . S
C1107 C1108 1.398 . S
C1107 C1113 1.491 . S
C1108 H1099 0.950 . S
C1108 C1107 1.398 . S
C1108 C1109 1.391 . S
C1109 H1097 0.950 . S
C1109 C1105 1.393 . S
C1109 C1108 1.391 . S
C1110 H1100 0.950 . S
C1110 C1111 1.386 . S
C1110 C1112 1.391 . S
C1111 C1110 1.386 . S
C1111 C1115 1.393 . S
C1112 H1101 0.950 . S
C1112 C1110 1.391 . S
C1112 C1113 1.400 . S
C1113 C1107 1.491 . S
C1113 C1112 1.400 . S
C1113 C1114 1.398 . S
C1114 H1102 0.950 . S
C1114 C1113 1.398 . S
C1114 C1115 1.391 . S
C1115 H1103 0.950 . S
C1115 C1111 1.393 . S
C1115 C1114 1.391 . S
H1116 C1124 0.950 . S
H1117 C1129 0.950 . S
H1118 C1126 0.950 . S
H1119 C1128 0.950 . S
H1120 C1130 0.950 . S
H1121 C1132 0.950 . S
H1122 C1134 0.950 . S
H1123 C1135 0.950 . S
C1124 H1116 0.950 . S
C1124 C1125 1.386 1_655 S
C1124 C1126 1.391 . S
C1125 C1124 1.386 1_455 S
C1125 C1129 1.393 . S
C1126 H1118 0.950 . S
C1126 C1124 1.391 . S
C1126 C1127 1.400 1_655 S
C1127 C1126 1.400 1_455 S
C1127 C1128 1.398 . S
C1127 C1133 1.491 1_455 S
C1128 H1119 0.950 . S
C1128 C1127 1.398 . S
C1128 C1129 1.391 . S
C1129 H1117 0.950 . S
C1129 C1125 1.393 . S
C1129 C1128 1.391 . S
C1130 H1120 0.950 . S
C1130 C1131 1.386 1_455 S
C1130 C1132 1.391 1_556 S
C1131 C1130 1.386 1_655 S
C1131 C1135 1.393 . S
C1132 H1121 0.950 . S
C1132 C1130 1.391 1_554 S
C1132 C1133 1.400 1_455 S
C1133 C1127 1.491 1_655 S
C1133 C1132 1.400 1_655 S
C1133 C1134 1.398 . S
C1134 H1122 0.950 . S
C1134 C1133 1.398 . S
C1134 C1135 1.391 1_554 S
C1135 H1123 0.950 . S
C1135 C1131 1.393 . S
C1135 C1134 1.391 1_556 S
H1136 C1144 0.950 . S
H1137 C1149 0.950 . S
H1138 C1146 0.950 . S
H1139 C1148 0.950 . S
H1140 C1150 0.950 . S
H1141 C1152 0.950 . S
H1142 C1154 0.950 . S
H1143 C1155 0.950 . S
C1144 H1136 0.950 . S
C1144 C1145 1.386 . S
C1144 C1146 1.391 . S
C1145 C1144 1.386 . S
C1145 C1149 1.393 . S
C1146 H1138 0.950 . S
C1146 C1144 1.391 . S
C1146 C1147 1.400 . S
C1147 C1146 1.400 . S
C1147 C1148 1.398 . S
C1147 C1153 1.491 . S
C1148 H1139 0.950 . S
C1148 C1147 1.398 . S
C1148 C1149 1.391 . S
C1149 H1137 0.950 . S
C1149 C1145 1.393 . S
C1149 C1148 1.391 . S
C1150 H1140 0.950 . S
C1150 C1151 1.386 . S
C1150 C1152 1.391 . S
C1151 C1150 1.386 . S
C1151 C1155 1.393 . S
C1152 H1141 0.950 . S
C1152 C1150 1.391 . S
C1152 C1153 1.400 . S
C1153 C1147 1.491 . S
C1153 C1152 1.400 . S
C1153 C1154 1.398 . S
C1154 H1142 0.950 . S
C1154 C1153 1.398 . S
C1154 C1155 1.391 . S
C1155 H1143 0.950 . S
C1155 C1151 1.393 . S
C1155 C1154 1.391 . S
H1156 C1164 0.950 . S
H1157 C1169 0.950 . S
H1158 C1166 0.950 . S
H1159 C1168 0.950 . S
H1160 C1170 0.950 . S
H1161 C1172 0.950 . S
H1162 C1174 0.950 . S
H1163 C1175 0.950 . S
C1164 H1156 0.950 . S
C1164 C1165 1.386 . S
C1164 C1166 1.391 . S
C1165 C1164 1.386 . S
C1165 C1169 1.393 1_655 S
C1166 H1158 0.950 . S
C1166 C1164 1.391 . S
C1166 C1167 1.400 . S
C1167 C1166 1.400 . S
C1167 C1168 1.398 1_655 S
C1167 C1173 1.491 1_655 S
C1168 H1159 0.950 . S
C1168 C1167 1.398 1_455 S
C1168 C1169 1.391 . S
C1169 H1157 0.950 . S
C1169 C1165 1.393 1_455 S
C1169 C1168 1.391 . S
C1170 H1160 0.950 . S
C1170 C1171 1.386 . S
C1170 C1172 1.391 . S
C1171 C1170 1.386 . S
C1171 C1175 1.393 1_455 S
C1172 H1161 0.950 . S
C1172 C1170 1.391 . S
C1172 C1173 1.400 . S
C1173 C1167 1.491 1_455 S
C1173 C1172 1.400 . S
C1173 C1174 1.398 1_455 S
C1174 H1162 0.950 . S
C1174 C1173 1.398 1_655 S
C1174 C1175 1.391 . S
C1175 H1163 0.950 . S
C1175 C1171 1.393 1_655 S
C1175 C1174 1.391 . S
H1176 C1184 0.950 . S
H1177 C1189 0.950 . S
H1178 C1186 0.950 . S
H1179 C1188 0.950 . S
H1180 C1190 0.950 . S
H1181 C1192 0.950 . S
H1182 C1194 0.950 . S
H1183 C1195 0.950 . S
C1184 H1176 0.950 . S
C1184 C1185 1.386 . S
C1184 C1186 1.391 . S
C1185 C1184 1.386 . S
C1185 C1189 1.393 . S
C1186 H1178 0.950 . S
C1186 C1184 1.391 . S
C1186 C1187 1.400 . S
C1187 C1186 1.400 . S
C1187 C1188 1.398 . S
C1187 C1193 1.491 . S
C1188 H1179 0.950 . S
C1188 C1187 1.398 . S
C1188 C1189 1.391 . S
C1189 H1177 0.950 . S
C1189 C1185 1.393 . S
C1189 C1188 1.391 . S
C1190 H1180 0.950 . S
C1190 C1191 1.386 . S
C1190 C1192 1.391 . S
C1191 C1190 1.386 . S
C1191 C1195 1.393 . S
C1192 H1181 0.950 . S
C1192 C1190 1.391 . S
C1192 C1193 1.400 . S
C1193 C1187 1.491 . S
C1193 C1192 1.400 . S
C1193 C1194 1.398 . S
C1194 H1182 0.950 . S
C1194 C1193 1.398 . S
C1194 C1195 1.391 . S
C1195 H1183 0.950 . S
C1195 C1191 1.393 . S
C1195 C1194 1.391 . S
H1196 C1204 0.950 . S
H1197 C1209 0.950 . S
H1198 C1206 0.950 . S
H1199 C1208 0.950 . S
H1200 C1210 0.950 . S
H1201 C1212 0.950 . S
H1202 C1214 0.950 . S
H1203 C1215 0.950 . S
C1204 H1196 0.950 . S
C1204 C1205 1.386 . S
C1204 C1206 1.391 1_554 S
C1205 C1204 1.386 . S
C1205 C1209 1.393 . S
C1206 H1198 0.950 . S
C1206 C1204 1.391 1_556 S
C1206 C1207 1.400 . S
C1207 C1206 1.400 . S
C1207 C1208 1.398 . S
C1207 C1213 1.491 . S
C1208 H1199 0.950 . S
C1208 C1207 1.398 . S
C1208 C1209 1.391 1_556 S
C1209 H1197 0.950 . S
C1209 C1205 1.393 . S
C1209 C1208 1.391 1_554 S
C1210 H1200 0.950 . S
C1210 C1211 1.386 . S
C1210 C1212 1.391 . S
C1211 C1210 1.386 . S
C1211 C1215 1.393 . S
C1212 H1201 0.950 . S
C1212 C1210 1.391 . S
C1212 C1213 1.400 . S
C1213 C1207 1.491 . S
C1213 C1212 1.400 . S
C1213 C1214 1.398 . S
C1214 H1202 0.950 . S
C1214 C1213 1.398 . S
C1214 C1215 1.391 . S
C1215 H1203 0.950 . S
C1215 C1211 1.393 . S
C1215 C1214 1.391 . S
H1216 C1224 0.950 . S
H1217 C1229 0.950 . S
H1218 C1226 0.950 . S
H1219 C1228 0.950 . S
H1220 C1230 0.950 . S
H1221 C1232 0.950 . S
H1222 C1234 0.950 . S
H1223 C1235 0.950 . S
C1224 H1216 0.950 . S
C1224 C1225 1.386 . S
C1224 C1226 1.391 . S
C1225 C1224 1.386 . S
C1225 C1229 1.393 . S
C1226 H1218 0.950 . S
C1226 C1224 1.391 . S
C1226 C1227 1.400 . S
C1227 C1226 1.400 . S
C1227 C1228 1.398 . S
C1227 C1233 1.491 . S
C1228 H1219 0.950 . S
C1228 C1227 1.398 . S
C1228 C1229 1.391 . S
C1229 H1217 0.950 . S
C1229 C1225 1.393 . S
C1229 C1228 1.391 . S
C1230 H1220 0.950 . S
C1230 C1231 1.386 . S
C1230 C1232 1.391 . S
C1231 C1230 1.386 . S
C1231 C1235 1.393 . S
C1232 H1221 0.950 . S
C1232 C1230 1.391 . S
C1232 C1233 1.400 . S
C1233 C1227 1.491 . S
C1233 C1232 1.400 . S
C1233 C1234 1.398 . S
C1234 H1222 0.950 . S
C1234 C1233 1.398 . S
C1234 C1235 1.391 . S
C1235 H1223 0.950 . S
C1235 C1231 1.393 . S
C1235 C1234 1.391 . S
H1236 C1244 0.950 . S
H1237 C1249 0.950 . S
H1238 C1246 0.950 . S
H1239 C1248 0.950 . S
H1240 C1250 0.950 . S
H1241 C1252 0.950 . S
H1242 C1254 0.950 . S
H1243 C1255 0.950 . S
C1244 H1236 0.950 . S
C1244 C1245 1.386 . S
C1244 C1246 1.391 . S
C1245 C1244 1.386 . S
C1245 C1249 1.393 . S
C1246 H1238 0.950 . S
C1246 C1244 1.391 . S
C1246 C1247 1.400 . S
C1247 C1246 1.400 . S
C1247 C1248 1.398 . S
C1247 C1253 1.491 . S
C1248 H1239 0.950 . S
C1248 C1247 1.398 . S
C1248 C1249 1.391 . S
C1249 H1237 0.950 . S
C1249 C1245 1.393 . S
C1249 C1248 1.391 . S
C1250 H1240 0.950 . S
C1250 C1251 1.386 . S
C1250 C1252 1.391 . S
C1251 C1250 1.386 . S
C1251 C1255 1.393 . S
C1252 H1241 0.950 . S
C1252 C1250 1.391 . S
C1252 C1253 1.400 . S
C1253 C1247 1.491 . S
C1253 C1252 1.400 . S
C1253 C1254 1.398 . S
C1254 H1242 0.950 . S
C1254 C1253 1.398 . S
C1254 C1255 1.391 . S
C1255 H1243 0.950 . S
C1255 C1251 1.393 . S
C1255 C1254 1.391 . S
H1256 C1264 0.950 . S
H1257 C1269 0.950 . S
H1258 C1266 0.950 . S
H1259 C1268 0.950 . S
H1260 C1270 0.950 . S
H1261 C1272 0.950 . S
H1262 C1274 0.950 . S
H1263 C1275 0.950 . S
C1264 H1256 0.950 . S
C1264 C1265 1.386 . S
C1264 C1266 1.391 . S
C1265 C1264 1.386 . S
C1265 C1269 1.393 . S
C1266 H1258 0.950 . S
C1266 C1264 1.391 . S
C1266 C1267 1.400 . S
C1267 C1266 1.400 . S
C1267 C1268 1.398 . S
C1267 C1273 1.491 . S
C1268 H1259 0.950 . S
C1268 C1267 1.398 . S
C1268 C1269 1.391 . S
C1269 H1257 0.950 . S
C1269 C1265 1.393 . S
C1269 C1268 1.391 . S
C1270 H1260 0.950 . S
C1270 C1271 1.386 . S
C1270 C1272 1.391 . S
C1271 C1270 1.386 . S
C1271 C1275 1.393 . S
C1272 H1261 0.950 . S
C1272 C1270 1.391 . S
C1272 C1273 1.400 . S
C1273 C1267 1.491 . S
C1273 C1272 1.400 . S
C1273 C1274 1.398 . S
C1274 H1262 0.950 . S
C1274 C1273 1.398 . S
C1274 C1275 1.391 . S
C1275 H1263 0.950 . S
C1275 C1271 1.393 . S
C1275 C1274 1.391 . S
H1276 C1284 0.950 . S
H1277 C1289 0.949 . S
H1278 C1286 0.950 . S
H1279 C1288 0.950 . S
H1280 C1290 0.950 . S
H1281 C1292 0.950 . S
H1282 C1294 0.950 . S
H1283 C1295 0.959 . S
C1284 H1276 0.950 . S
C1284 C1285 1.386 . S
C1284 C1286 1.391 . S
C1285 C1284 1.386 . S
C1285 C1289 1.394 1_655 S
C1286 H1278 0.950 . S
C1286 C1284 1.391 . S
C1286 C1287 1.400 . S
C1287 C1286 1.400 . S
C1287 C1288 1.398 1_655 S
C1287 C1293 1.491 1_655 S
C1288 H1279 0.950 . S
C1288 C1287 1.398 1_455 S
C1288 C1289 1.390 . S
C1289 H1277 0.949 . S
C1289 C1285 1.394 1_455 S
C1289 C1288 1.390 . S
C1290 H1280 0.950 . S
C1290 C1291 1.386 . S
C1290 C1292 1.391 1_554 S
C1291 C1290 1.386 . S
C1291 C1295 1.378 1_455 S
C1292 H1281 0.950 . S
C1292 C1290 1.391 1_556 S
C1292 C1293 1.400 . S
C1293 C1287 1.491 1_455 S
C1293 C1292 1.400 . S
C1293 C1294 1.398 1_455 S
C1294 H1282 0.950 . S
C1294 C1293 1.398 1_655 S
C1294 C1295 1.396 1_556 S
C1295 H1283 0.959 . S
C1295 C1291 1.378 1_655 S
C1295 C1294 1.396 1_554 S
H1296 C1304 0.950 . S
H1297 C1309 0.950 . S
H1298 C1306 0.950 . S
H1299 C1308 0.950 . S
H1300 C1310 0.950 . S
H1301 C1312 0.950 . S
H1302 C1314 0.950 . S
H1303 C1315 0.950 . S
C1304 H1296 0.950 . S
C1304 C1305 1.386 . S
C1304 C1306 1.391 . S
C1305 C1304 1.386 . S
C1305 C1309 1.393 . S
C1306 H1298 0.950 . S
C1306 C1304 1.391 . S
C1306 C1307 1.400 . S
C1307 C1306 1.400 . S
C1307 C1308 1.398 . S
C1307 C1313 1.491 . S
C1308 H1299 0.950 . S
C1308 C1307 1.398 . S
C1308 C1309 1.391 . S
C1309 H1297 0.950 . S
C1309 C1305 1.393 . S
C1309 C1308 1.391 . S
C1310 H1300 0.950 . S
C1310 C1311 1.386 . S
C1310 C1312 1.391 . S
C1311 C1310 1.386 . S
C1311 C1315 1.393 . S
C1312 H1301 0.950 . S
C1312 C1310 1.391 . S
C1312 C1313 1.400 . S
C1313 C1307 1.491 . S
C1313 C1312 1.400 . S
C1313 C1314 1.398 . S
C1314 H1302 0.950 . S
C1314 C1313 1.398 . S
C1314 C1315 1.391 . S
C1315 H1303 0.950 . S
C1315 C1311 1.393 . S
C1315 C1314 1.391 . S
H1316 C1324 0.950 . S
H1317 C1329 0.950 . S
H1318 C1326 0.950 . S
H1319 C1328 0.942 1_455 S
H1320 C1330 0.950 . S
H1321 C1332 0.950 . S
H1322 C1334 0.951 1_655 S
H1323 C1335 0.950 . S
C1324 H1316 0.950 . S
C1324 C1325 1.386 . S
C1324 C1326 1.391 . S
C1325 C1324 1.386 . S
C1325 C1329 1.393 . S
C1326 H1318 0.950 . S
C1326 C1324 1.391 . S
C1326 C1327 1.400 . S
C1327 C1326 1.400 . S
C1327 C1328 1.401 . S
C1327 C1333 1.491 1_655 S
C1328 H1319 0.942 1_655 S
C1328 C1327 1.401 . S
C1328 C1329 1.396 . S
C1329 H1317 0.950 . S
C1329 C1325 1.393 . S
C1329 C1328 1.396 . S
C1330 H1320 0.950 . S
C1330 C1331 1.386 . S
C1330 C1332 1.391 . S
C1331 C1330 1.386 . S
C1331 C1335 1.393 . S
C1332 H1321 0.950 . S
C1332 C1330 1.391 . S
C1332 C1333 1.400 . S
C1333 C1327 1.491 1_455 S
C1333 C1332 1.400 . S
C1333 C1334 1.398 . S
C1334 H1322 0.951 1_455 S
C1334 C1333 1.398 . S
C1334 C1335 1.390 . S
C1335 H1323 0.950 . S
C1335 C1331 1.393 . S
C1335 C1334 1.390 . S
H1336 C1344 0.950 . S
H1337 C1349 0.950 . S
H1338 C1346 0.950 . S
H1339 C1348 0.950 . S
H1340 C1350 0.950 . S
H1341 C1352 0.950 . S
H1342 C1354 0.950 . S
H1343 C1355 0.950 . S
C1344 H1336 0.950 . S
C1344 C1345 1.386 . S
C1344 C1346 1.391 . S
C1345 C1344 1.386 . S
C1345 C1349 1.393 . S
C1346 H1338 0.950 . S
C1346 C1344 1.391 . S
C1346 C1347 1.400 . S
C1347 C1346 1.400 . S
C1347 C1348 1.398 . S
C1347 C1353 1.491 . S
C1348 H1339 0.950 . S
C1348 C1347 1.398 . S
C1348 C1349 1.391 . S
C1349 H1337 0.950 . S
C1349 C1345 1.393 . S
C1349 C1348 1.391 . S
C1350 H1340 0.950 . S
C1350 C1351 1.386 . S
C1350 C1352 1.391 . S
C1351 C1350 1.386 . S
C1351 C1355 1.393 . S
C1352 H1341 0.950 . S
C1352 C1350 1.391 . S
C1352 C1353 1.400 . S
C1353 C1347 1.491 . S
C1353 C1352 1.400 . S
C1353 C1354 1.398 . S
C1354 H1342 0.950 . S
C1354 C1353 1.398 . S
C1354 C1355 1.391 . S
C1355 H1343 0.950 . S
C1355 C1351 1.393 . S
C1355 C1354 1.391 . S
H1356 C1364 0.950 . S
H1357 C1369 0.950 . S
H1358 C1366 0.950 . S
H1359 C1368 0.950 . S
H1360 C1370 0.950 . S
H1361 C1372 0.950 . S
H1362 C1374 0.950 . S
H1363 C1375 0.950 . S
C1364 H1356 0.950 . S
C1364 C1365 1.386 . S
C1364 C1366 1.391 . S
C1365 C1364 1.386 . S
C1365 C1369 1.393 . S
C1366 H1358 0.950 . S
C1366 C1364 1.391 . S
C1366 C1367 1.400 . S
C1367 C1366 1.400 . S
C1367 C1368 1.398 . S
C1367 C1373 1.491 . S
C1368 H1359 0.950 . S
C1368 C1367 1.398 . S
C1368 C1369 1.391 . S
C1369 H1357 0.950 . S
C1369 C1365 1.393 . S
C1369 C1368 1.391 . S
C1370 H1360 0.950 . S
C1370 C1371 1.386 . S
C1370 C1372 1.391 1_556 S
C1371 C1370 1.386 . S
C1371 C1375 1.393 . S
C1372 H1361 0.950 . S
C1372 C1370 1.391 1_554 S
C1372 C1373 1.400 . S
C1373 C1367 1.491 . S
C1373 C1372 1.400 . S
C1373 C1374 1.398 . S
C1374 H1362 0.950 . S
C1374 C1373 1.398 . S
C1374 C1375 1.391 1_554 S
C1375 H1363 0.950 . S
C1375 C1371 1.393 . S
C1375 C1374 1.391 1_556 S
H1376 C1384 0.950 . S
H1377 C1389 0.950 . S
H1378 C1386 0.950 . S
H1379 C1388 0.950 . S
H1380 C1390 0.950 . S
H1381 C1392 0.950 . S
H1382 C1394 0.950 . S
H1383 C1395 0.950 . S
C1384 H1376 0.950 . S
C1384 C1385 1.386 . S
C1384 C1386 1.391 . S
C1385 C1384 1.386 . S
C1385 C1389 1.393 . S
C1386 H1378 0.950 . S
C1386 C1384 1.391 . S
C1386 C1387 1.400 . S
C1387 C1386 1.400 . S
C1387 C1388 1.398 . S
C1387 C1393 1.491 . S
C1388 H1379 0.950 . S
C1388 C1387 1.398 . S
C1388 C1389 1.391 . S
C1389 H1377 0.950 . S
C1389 C1385 1.393 . S
C1389 C1388 1.391 . S
C1390 H1380 0.950 . S
C1390 C1391 1.386 . S
C1390 C1392 1.391 . S
C1391 C1390 1.386 . S
C1391 C1395 1.393 . S
C1392 H1381 0.950 . S
C1392 C1390 1.391 . S
C1392 C1393 1.400 . S
C1393 C1387 1.491 . S
C1393 C1392 1.400 . S
C1393 C1394 1.398 . S
C1394 H1382 0.950 . S
C1394 C1393 1.398 . S
C1394 C1395 1.391 . S
C1395 H1383 0.950 . S
C1395 C1391 1.393 . S
C1395 C1394 1.391 . S
H1396 C1404 0.950 . S
H1397 C1409 0.950 . S
H1398 C1406 0.950 . S
H1399 C1408 0.950 . S
H1400 C1410 0.950 . S
H1401 C1412 0.950 . S
H1402 C1414 0.950 . S
H1403 C1415 0.950 . S
C1404 H1396 0.950 . S
C1404 C1405 1.386 . S
C1404 C1406 1.391 . S
C1405 C1404 1.386 . S
C1405 C1409 1.393 . S
C1406 H1398 0.950 . S
C1406 C1404 1.391 . S
C1406 C1407 1.400 . S
C1407 C1406 1.400 . S
C1407 C1408 1.398 . S
C1407 C1413 1.491 . S
C1408 H1399 0.950 . S
C1408 C1407 1.398 . S
C1408 C1409 1.391 . S
C1409 H1397 0.950 . S
C1409 C1405 1.393 . S
C1409 C1408 1.391 . S
C1410 H1400 0.950 . S
C1410 C1411 1.386 . S
C1410 C1412 1.391 . S
C1411 C1410 1.386 . S
C1411 C1415 1.393 . S
C1412 H1401 0.950 . S
C1412 C1410 1.391 . S
C1412 C1413 1.400 . S
C1413 C1407 1.491 . S
C1413 C1412 1.400 . S
C1413 C1414 1.398 . S
C1414 H1402 0.950 . S
C1414 C1413 1.398 . S
C1414 C1415 1.391 . S
C1415 H1403 0.950 . S
C1415 C1411 1.393 . S
C1415 C1414 1.391 . S
H1416 C1424 0.950 . S
H1417 C1429 0.950 . S
H1418 C1426 0.950 . S
H1419 C1428 0.950 . S
H1420 C1430 0.950 . S
H1421 C1432 0.950 . S
H1422 C1434 0.950 . S
H1423 C1435 0.950 . S
C1424 H1416 0.950 . S
C1424 C1425 1.386 . S
C1424 C1426 1.391 . S
C1425 C1424 1.386 . S
C1425 C1429 1.393 . S
C1426 H1418 0.950 . S
C1426 C1424 1.391 . S
C1426 C1427 1.400 . S
C1427 C1426 1.400 . S
C1427 C1428 1.398 . S
C1427 C1433 1.491 . S
C1428 H1419 0.950 . S
C1428 C1427 1.398 . S
C1428 C1429 1.391 . S
C1429 H1417 0.950 . S
C1429 C1425 1.393 . S
C1429 C1428 1.391 . S
C1430 H1420 0.950 . S
C1430 C1431 1.386 . S
C1430 C1432 1.391 . S
C1431 C1430 1.386 . S
C1431 C1435 1.393 . S
C1432 H1421 0.950 . S
C1432 C1430 1.391 . S
C1432 C1433 1.400 . S
C1433 C1427 1.491 . S
C1433 C1432 1.400 . S
C1433 C1434 1.398 . S
C1434 H1422 0.950 . S
C1434 C1433 1.398 . S
C1434 C1435 1.391 . S
C1435 H1423 0.950 . S
C1435 C1431 1.393 . S
C1435 C1434 1.391 . S
H1436 C1444 0.950 . S
H1437 C1449 0.950 . S
H1438 C1446 0.950 . S
H1439 C1448 0.950 . S
H1440 C1450 0.950 . S
H1441 C1452 0.950 . S
H1442 C1454 0.950 . S
H1443 C1455 0.950 . S
C1444 H1436 0.950 . S
C1444 C1445 1.386 . S
C1444 C1446 1.391 . S
C1445 C1444 1.386 . S
C1445 C1449 1.393 . S
C1446 H1438 0.950 . S
C1446 C1444 1.391 . S
C1446 C1447 1.400 . S
C1447 C1446 1.400 . S
C1447 C1448 1.398 . S
C1447 C1453 1.491 . S
C1448 H1439 0.950 . S
C1448 C1447 1.398 . S
C1448 C1449 1.391 . S
C1449 H1437 0.950 . S
C1449 C1445 1.393 . S
C1449 C1448 1.391 . S
C1450 H1440 0.950 . S
C1450 C1451 1.386 . S
C1450 C1452 1.391 . S
C1451 C1450 1.386 . S
C1451 C1455 1.393 . S
C1452 H1441 0.950 . S
C1452 C1450 1.391 . S
C1452 C1453 1.400 . S
C1453 C1447 1.491 . S
C1453 C1452 1.400 . S
C1453 C1454 1.398 . S
C1454 H1442 0.950 . S
C1454 C1453 1.398 . S
C1454 C1455 1.391 . S
C1455 H1443 0.950 . S
C1455 C1451 1.393 . S
C1455 C1454 1.391 . S
H1456 C1464 0.950 . S
H1457 C1469 0.950 . S
H1458 C1466 0.950 . S
H1459 C1468 0.950 . S
H1460 C1470 0.950 . S
H1461 C1472 0.950 . S
H1462 C1474 0.950 . S
H1463 C1475 0.950 . S
C1464 H1456 0.950 . S
C1464 C1465 1.386 . S
C1464 C1466 1.391 . S
C1465 C1464 1.386 . S
C1465 C1469 1.393 . S
C1466 H1458 0.950 . S
C1466 C1464 1.391 . S
C1466 C1467 1.400 . S
C1467 C1466 1.400 . S
C1467 C1468 1.398 . S
C1467 C1473 1.491 . S
C1468 H1459 0.950 . S
C1468 C1467 1.398 . S
C1468 C1469 1.391 . S
C1469 H1457 0.950 . S
C1469 C1465 1.393 . S
C1469 C1468 1.391 . S
C1470 H1460 0.950 . S
C1470 C1471 1.386 . S
C1470 C1472 1.391 . S
C1471 C1470 1.386 . S
C1471 C1475 1.393 . S
C1472 H1461 0.950 . S
C1472 C1470 1.391 . S
C1472 C1473 1.400 . S
C1473 C1467 1.491 . S
C1473 C1472 1.400 . S
C1473 C1474 1.398 . S
C1474 H1462 0.950 . S
C1474 C1473 1.398 . S
C1474 C1475 1.391 . S
C1475 H1463 0.950 . S
C1475 C1471 1.393 . S
C1475 C1474 1.391 . S
H1476 C1484 0.950 . S
H1477 C1489 0.950 . S
H1478 C1486 0.950 . S
H1479 C1488 0.950 . S
H1480 C1490 0.950 . S
H1481 C1492 0.950 . S
H1482 C1494 0.950 . S
H1483 C1495 0.950 . S
C1484 H1476 0.950 . S
C1484 C1485 1.386 . S
C1484 C1486 1.391 . S
C1485 C1484 1.386 . S
C1485 C1489 1.393 . S
C1486 H1478 0.950 . S
C1486 C1484 1.391 . S
C1486 C1487 1.400 . S
C1487 C1486 1.400 . S
C1487 C1488 1.398 . S
C1487 C1493 1.491 . S
C1488 H1479 0.950 . S
C1488 C1487 1.398 . S
C1488 C1489 1.391 . S
C1489 H1477 0.950 . S
C1489 C1485 1.393 . S
C1489 C1488 1.391 . S
C1490 H1480 0.950 . S
C1490 C1491 1.386 . S
C1490 C1492 1.391 . S
C1491 C1490 1.386 . S
C1491 C1495 1.393 . S
C1492 H1481 0.950 . S
C1492 C1490 1.391 . S
C1492 C1493 1.400 . S
C1493 C1487 1.491 . S
C1493 C1492 1.400 . S
C1493 C1494 1.398 . S
C1494 H1482 0.950 . S
C1494 C1493 1.398 . S
C1494 C1495 1.391 . S
C1495 H1483 0.950 . S
C1495 C1491 1.393 . S
C1495 C1494 1.391 . S
H1496 C1504 0.950 . S
H1497 C1509 0.950 . S
H1498 C1506 0.950 . S
H1499 C1508 0.950 . S
H1500 C1510 0.950 . S
H1501 C1512 0.950 . S
H1502 C1514 0.950 . S
H1503 C1515 0.950 . S
C1504 H1496 0.950 . S
C1504 C1505 1.386 . S
C1504 C1506 1.391 . S
C1505 C1504 1.386 . S
C1505 C1509 1.393 . S
C1506 H1498 0.950 . S
C1506 C1504 1.391 . S
C1506 C1507 1.400 . S
C1507 C1506 1.400 . S
C1507 C1508 1.398 . S
C1507 C1513 1.491 . S
C1508 H1499 0.950 . S
C1508 C1507 1.398 . S
C1508 C1509 1.391 . S
C1509 H1497 0.950 . S
C1509 C1505 1.393 . S
C1509 C1508 1.391 . S
C1510 H1500 0.950 . S
C1510 C1511 1.386 . S
C1510 C1512 1.391 . S
C1511 C1510 1.386 . S
C1511 C1515 1.393 . S
C1512 H1501 0.950 . S
C1512 C1510 1.391 . S
C1512 C1513 1.400 . S
C1513 C1507 1.491 . S
C1513 C1512 1.400 . S
C1513 C1514 1.398 . S
C1514 H1502 0.950 . S
C1514 C1513 1.398 . S
C1514 C1515 1.391 . S
C1515 H1503 0.950 . S
C1515 C1511 1.393 . S
C1515 C1514 1.391 . S
H1516 C1524 0.950 . S
H1517 C1529 0.950 . S
H1518 C1526 0.950 . S
H1519 C1528 0.950 . S
H1520 C1530 0.950 . S
H1521 C1532 0.950 . S
H1522 C1534 0.950 . S
H1523 C1535 0.950 . S
C1524 H1516 0.950 . S
C1524 C1525 1.386 . S
C1524 C1526 1.391 . S
C1525 C1524 1.386 . S
C1525 C1529 1.393 . S
C1526 H1518 0.950 . S
C1526 C1524 1.391 . S
C1526 C1527 1.400 . S
C1527 C1526 1.400 . S
C1527 C1528 1.398 . S
C1527 C1533 1.491 . S
C1528 H1519 0.950 . S
C1528 C1527 1.398 . S
C1528 C1529 1.391 . S
C1529 H1517 0.950 . S
C1529 C1525 1.393 . S
C1529 C1528 1.391 . S
C1530 H1520 0.950 . S
C1530 C1531 1.386 . S
C1530 C1532 1.391 . S
C1531 C1530 1.386 . S
C1531 C1535 1.393 . S
C1532 H1521 0.950 . S
C1532 C1530 1.391 . S
C1532 C1533 1.400 . S
C1533 C1527 1.491 . S
C1533 C1532 1.400 . S
C1533 C1534 1.398 . S
C1534 H1522 0.950 . S
C1534 C1533 1.398 . S
C1534 C1535 1.391 . S
C1535 H1523 0.950 . S
C1535 C1531 1.393 . S
C1535 C1534 1.391 . S
H1536 C1544 0.950 . S
H1537 C1549 0.950 . S
H1538 C1546 0.950 . S
H1539 C1548 0.950 . S
H1540 C1550 0.950 . S
H1541 C1552 0.950 . S
H1542 C1554 0.950 . S
H1543 C1555 0.950 . S
C1544 H1536 0.950 . S
C1544 C1545 1.386 . S
C1544 C1546 1.391 . S
C1545 C1544 1.386 . S
C1545 C1549 1.393 . S
C1546 H1538 0.950 . S
C1546 C1544 1.391 . S
C1546 C1547 1.400 . S
C1547 C1546 1.400 . S
C1547 C1548 1.398 . S
C1547 C1553 1.491 . S
C1548 H1539 0.950 . S
C1548 C1547 1.398 . S
C1548 C1549 1.391 . S
C1549 H1537 0.950 . S
C1549 C1545 1.393 . S
C1549 C1548 1.391 . S
C1550 H1540 0.950 . S
C1550 C1551 1.386 . S
C1550 C1552 1.391 . S
C1551 C1550 1.386 . S
C1551 C1555 1.393 . S
C1552 H1541 0.950 . S
C1552 C1550 1.391 . S
C1552 C1553 1.400 . S
C1553 C1547 1.491 . S
C1553 C1552 1.400 . S
C1553 C1554 1.398 . S
C1554 H1542 0.950 . S
C1554 C1553 1.398 . S
C1554 C1555 1.391 . S
C1555 H1543 0.950 . S
C1555 C1551 1.393 . S
C1555 C1554 1.391 . S
H1556 C1564 0.950 . S
H1557 C1569 0.950 . S
H1558 C1566 0.950 . S
H1559 C1568 0.950 . S
H1560 C1570 0.950 . S
H1561 C1572 0.950 . S
H1562 C1574 0.950 . S
H1563 C1575 0.950 . S
C1564 H1556 0.950 . S
C1564 C1565 1.386 . S
C1564 C1566 1.391 . S
C1565 C1564 1.386 . S
C1565 C1569 1.393 . S
C1566 H1558 0.950 . S
C1566 C1564 1.391 . S
C1566 C1567 1.400 . S
C1567 C1566 1.400 . S
C1567 C1568 1.398 . S
C1567 C1573 1.491 . S
C1568 H1559 0.950 . S
C1568 C1567 1.398 . S
C1568 C1569 1.391 . S
C1569 H1557 0.950 . S
C1569 C1565 1.393 . S
C1569 C1568 1.391 . S
C1570 H1560 0.950 . S
C1570 C1571 1.386 . S
C1570 C1572 1.391 . S
C1571 C1570 1.386 . S
C1571 C1575 1.393 . S
C1572 H1561 0.950 . S
C1572 C1570 1.391 . S
C1572 C1573 1.400 . S
C1573 C1567 1.491 . S
C1573 C1572 1.400 . S
C1573 C1574 1.398 . S
C1574 H1562 0.950 . S
C1574 C1573 1.398 . S
C1574 C1575 1.391 . S
C1575 H1563 0.950 . S
C1575 C1571 1.393 . S
C1575 C1574 1.391 . S
H1576 C1584 0.950 . S
H1577 C1589 0.950 . S
H1578 C1586 0.950 . S
H1579 C1588 0.950 . S
H1580 C1590 0.950 . S
H1581 C1592 0.950 . S
H1582 C1594 0.950 . S
H1583 C1595 0.950 . S
C1584 H1576 0.950 . S
C1584 C1585 1.386 . S
C1584 C1586 1.391 . S
C1585 C1584 1.386 . S
C1585 C1589 1.393 . S
C1586 H1578 0.950 . S
C1586 C1584 1.391 . S
C1586 C1587 1.400 . S
C1587 C1586 1.400 . S
C1587 C1588 1.398 . S
C1587 C1593 1.491 . S
C1588 H1579 0.950 . S
C1588 C1587 1.398 . S
C1588 C1589 1.391 . S
C1589 H1577 0.950 . S
C1589 C1585 1.393 . S
C1589 C1588 1.391 . S
C1590 H1580 0.950 . S
C1590 C1591 1.386 . S
C1590 C1592 1.391 . S
C1591 C1590 1.386 . S
C1591 C1595 1.393 . S
C1592 H1581 0.950 . S
C1592 C1590 1.391 . S
C1592 C1593 1.400 . S
C1593 C1587 1.491 . S
C1593 C1592 1.400 . S
C1593 C1594 1.398 . S
C1594 H1582 0.950 . S
C1594 C1593 1.398 . S
C1594 C1595 1.391 . S
C1595 H1583 0.950 . S
C1595 C1591 1.393 . S
C1595 C1594 1.391 . S
H1596 C1604 0.950 . S
H1597 C1609 0.950 . S
H1598 C1606 0.950 . S
H1599 C1608 0.950 . S
H1600 C1610 0.950 . S
H1601 C1612 0.950 . S
H1602 C1614 0.950 . S
H1603 C1615 0.950 . S
C1604 H1596 0.950 . S
C1604 C1605 1.386 . S
C1604 C1606 1.391 . S
C1605 C1604 1.386 . S
C1605 C1609 1.393 . S
C1606 H1598 0.950 . S
C1606 C1604 1.391 . S
C1606 C1607 1.400 . S
C1607 C1606 1.400 . S
C1607 C1608 1.398 . S
C1607 C1613 1.491 . S
C1608 H1599 0.950 . S
C1608 C1607 1.398 . S
C1608 C1609 1.391 . S
C1609 H1597 0.950 . S
C1609 C1605 1.393 . S
C1609 C1608 1.391 . S
C1610 H1600 0.950 . S
C1610 C1611 1.386 . S
C1610 C1612 1.391 . S
C1611 C1610 1.386 . S
C1611 C1615 1.393 . S
C1612 H1601 0.950 . S
C1612 C1610 1.391 . S
C1612 C1613 1.400 . S
C1613 C1607 1.491 . S
C1613 C1612 1.400 . S
C1613 C1614 1.398 . S
C1614 H1602 0.950 . S
C1614 C1613 1.398 . S
C1614 C1615 1.391 . S
C1615 H1603 0.950 . S
C1615 C1611 1.393 . S
C1615 C1614 1.391 . S
H1616 C1624 0.950 . S
H1617 C1629 0.950 . S
H1618 C1626 0.950 . S
H1619 C1628 0.950 . S
H1620 C1630 0.950 . S
H1621 C1632 0.950 . S
H1622 C1634 0.950 . S
H1623 C1635 0.950 . S
C1624 H1616 0.950 . S
C1624 C1625 1.386 . S
C1624 C1626 1.391 . S
C1625 C1624 1.386 . S
C1625 C1629 1.393 . S
C1626 H1618 0.950 . S
C1626 C1624 1.391 . S
C1626 C1627 1.400 . S
C1627 C1626 1.400 . S
C1627 C1628 1.398 . S
C1627 C1633 1.491 . S
C1628 H1619 0.950 . S
C1628 C1627 1.398 . S
C1628 C1629 1.391 . S
C1629 H1617 0.950 . S
C1629 C1625 1.393 . S
C1629 C1628 1.391 . S
C1630 H1620 0.950 . S
C1630 C1631 1.386 . S
C1630 C1632 1.391 . S
C1631 C1630 1.386 . S
C1631 C1635 1.393 . S
C1632 H1621 0.950 . S
C1632 C1630 1.391 . S
C1632 C1633 1.400 . S
C1633 C1627 1.491 . S
C1633 C1632 1.400 . S
C1633 C1634 1.398 . S
C1634 H1622 0.950 . S
C1634 C1633 1.398 . S
C1634 C1635 1.391 . S
C1635 H1623 0.950 . S
C1635 C1631 1.393 . S
C1635 C1634 1.391 . S
H1636 C1644 0.950 . S
H1637 C1649 0.950 . S
H1638 C1646 0.950 . S
H1639 C1648 0.950 . S
H1640 C1650 0.950 . S
H1641 C1652 0.950 . S
H1642 C1654 0.950 . S
H1643 C1655 0.950 . S
C1644 H1636 0.950 . S
C1644 C1645 1.386 . S
C1644 C1646 1.391 . S
C1645 C1644 1.386 . S
C1645 C1649 1.393 . S
C1646 H1638 0.950 . S
C1646 C1644 1.391 . S
C1646 C1647 1.400 . S
C1647 C1646 1.400 . S
C1647 C1648 1.398 . S
C1647 C1653 1.491 . S
C1648 H1639 0.950 . S
C1648 C1647 1.398 . S
C1648 C1649 1.391 . S
C1649 H1637 0.950 . S
C1649 C1645 1.393 . S
C1649 C1648 1.391 . S
C1650 H1640 0.950 . S
C1650 C1651 1.386 . S
C1650 C1652 1.391 . S
C1651 C1650 1.386 . S
C1651 C1655 1.393 . S
C1652 H1641 0.950 . S
C1652 C1650 1.391 . S
C1652 C1653 1.400 . S
C1653 C1647 1.491 . S
C1653 C1652 1.400 . S
C1653 C1654 1.398 . S
C1654 H1642 0.950 . S
C1654 C1653 1.398 . S
C1654 C1655 1.391 . S
C1655 H1643 0.950 . S
C1655 C1651 1.393 . S
C1655 C1654 1.391 . S
H1656 C1664 0.950 . S
H1657 C1669 0.950 . S
H1658 C1666 0.950 . S
H1659 C1668 0.950 . S
H1660 C1670 0.950 . S
H1661 C1672 0.950 . S
H1662 C1674 0.950 . S
H1663 C1675 0.950 . S
C1664 H1656 0.950 . S
C1664 C1665 1.386 . S
C1664 C1666 1.391 . S
C1665 C1664 1.386 . S
C1665 C1669 1.393 . S
C1666 H1658 0.950 . S
C1666 C1664 1.391 . S
C1666 C1667 1.400 . S
C1667 C1666 1.400 . S
C1667 C1668 1.398 . S
C1667 C1673 1.491 . S
C1668 H1659 0.950 . S
C1668 C1667 1.398 . S
C1668 C1669 1.391 . S
C1669 H1657 0.950 . S
C1669 C1665 1.393 . S
C1669 C1668 1.391 . S
C1670 H1660 0.950 . S
C1670 C1671 1.386 . S
C1670 C1672 1.391 . S
C1671 C1670 1.386 . S
C1671 C1675 1.393 . S
C1672 H1661 0.950 . S
C1672 C1670 1.391 . S
C1672 C1673 1.400 . S
C1673 C1667 1.491 . S
C1673 C1672 1.400 . S
C1673 C1674 1.398 . S
C1674 H1662 0.950 . S
C1674 C1673 1.398 . S
C1674 C1675 1.391 . S
C1675 H1663 0.950 . S
C1675 C1671 1.393 . S
C1675 C1674 1.391 . S
H1676 C1684 0.950 . S
H1677 C1689 0.950 . S
H1678 C1686 0.950 . S
H1679 C1688 0.950 . S
H1680 C1690 0.950 . S
H1681 C1692 0.950 . S
H1682 C1694 0.950 . S
H1683 C1695 0.950 . S
C1684 H1676 0.950 . S
C1684 C1685 1.386 . S
C1684 C1686 1.391 . S
C1685 C1684 1.386 . S
C1685 C1689 1.393 . S
C1686 H1678 0.950 . S
C1686 C1684 1.391 . S
C1686 C1687 1.400 . S
C1687 C1686 1.400 . S
C1687 C1688 1.398 . S
C1687 C1693 1.491 . S
C1688 H1679 0.950 . S
C1688 C1687 1.398 . S
C1688 C1689 1.391 . S
C1689 H1677 0.950 . S
C1689 C1685 1.393 . S
C1689 C1688 1.391 . S
C1690 H1680 0.950 . S
C1690 C1691 1.386 . S
C1690 C1692 1.391 . S
C1691 C1690 1.386 . S
C1691 C1695 1.393 . S
C1692 H1681 0.950 . S
C1692 C1690 1.391 . S
C1692 C1693 1.400 . S
C1693 C1687 1.491 . S
C1693 C1692 1.400 . S
C1693 C1694 1.398 . S
C1694 H1682 0.950 . S
C1694 C1693 1.398 . S
C1694 C1695 1.391 . S
C1695 H1683 0.950 . S
C1695 C1691 1.393 . S
C1695 C1694 1.391 . S
C425 C81 1.506 . S
C431 C5 1.503 . S
C445 C16 1.502 . S
C451 C96 1.503 . S
C465 C57 1.502 . S
C471 C29 1.503 . S
C485 C42 1.503 . S
C491 C70 1.506 . S
C505 C187 1.505 . S
C511 C107 1.502 . S
C525 C198 1.502 . S
C531 C122 1.505 . S
C545 C135 1.502 . S
C551 C161 1.504 . S
C565 C148 1.506 . S
C571 C172 1.502 . S
C585 C213 1.506 . S
C591 C291 1.502 . S
C605 C226 1.505 . S
C611 C304 1.502 . S
C625 C263 1.501 . S
C631 C239 1.504 . S
C645 C278 1.506 . S
C651 C252 1.502 . S
C665 C317 1.506 . S
C671 C395 1.502 . S
C685 C408 1.504 . S
C691 C330 1.502 . S
C705 C367 1.502 . S
C711 C343 1.506 . S
C725 C356 1.504 . S
C731 C380 1.506 . S
C745 C3 1.349 . S
C751 C400 1.358 . S
C765 C199 1.353 . S
C771 C18 1.353 . S
C785 C31 1.343 . S
C791 C368 1.352 . S
C805 C44 1.354 . S
C811 C173 1.354 . S
C825 C348 1.358 . S
C831 C55 1.348 . S
C845 C153 1.351 . S
C851 C68 1.345 . S
C865 C83 1.355 . S
C871 C322 1.355 . S
C885 C127 1.358 . S
C891 C94 1.351 . S
C905 C109 1.352 . S
C911 C296 1.358 . S
C925 C101 1.351 . S
C931 C120 1.351 . S
C945 C133 1.350 . S
C951 C264 1.358 . S
C965 C146 1.346 . S
C971 C75 1.357 . S
C985 C244 1.355 . S
C991 C159 1.343 . S
C1005 C174 1.355 . S
C1011 C43 1.355 . S
C1025 C185 1.346 . S
C1031 C218 1.357 . S
C1045 C17 1.357 . S
C1051 C200 1.353 . S
C1065 C211 1.345 . S
C1071 C192 1.351 . S
C1085 C224 1.350 . S
C1091 C413 1.358 . S
C1105 C166 1.351 . S
C1111 C237 1.350 . S
C1125 C250 1.353 . S
C1131 C381 1.353 . S
C1145 C140 1.352 . S
C1151 C265 1.343 . S
C1165 C361 1.355 . S
C1171 C276 1.355 . S
C1185 C108 1.351 . S
C1191 C289 1.347 . S
C1205 C335 1.351 . S
C1211 C302 1.348 . S
C1225 C315 1.347 . S
C1231 C82 1.351 . S
C1245 C309 1.351 . S
C1251 C328 1.348 . S
C1265 C62 1.351 . S
C1271 C341 1.344 . S
C1285 C354 1.351 . S
C1291 C283 1.351 . S
C1305 C369 1.354 . S
C1311 C30 1.356 . S
C1325 C382 1.352 . S
C1331 C257 1.358 . S
C1345 C10 1.353 . S
C1351 C393 1.342 . S
C1365 C406 1.355 . S
C1371 C231 1.356 . S
C1385 C4 1.452 . S
C1391 C277 1.450 . S
C1405 C290 1.454 . S
C1411 C23 1.453 . S
C1425 C36 1.448 . S
C1431 C303 1.449 . S
C1445 C270 1.454 . S
C1451 C49 1.454 . S
C1465 C251 1.450 . S
C1471 C56 1.451 . S
C1485 C212 1.448 . S
C1491 C69 1.448 . S
C1505 C225 1.453 . S
C1511 C88 1.452 . S
C1525 C238 1.448 . S
C1531 C95 1.448 . S
C1545 C114 1.452 . S
C1551 C387 1.453 . S
C1565 C394 1.448 . S
C1571 C121 1.448 . S
C1585 C407 1.448 . S
C1591 C134 1.448 . S
C1605 C374 1.452 . S
C1611 C147 1.453 . S
C1625 C355 1.448 . S
C1631 C160 1.448 . S
C1645 C316 1.452 . S
C1651 C179 1.453 . S
C1665 C186 1.454 . S
C1671 C329 1.454 . S
C1685 C205 1.451 . S
C1691 C342 1.452 . S
