# Generated by pormake.
# Topology nfc, (4)-cn, num edge types: 1
# Building blocks:
#     Node 0, Type 0, BuildingBlock: KOZSID_clean_sbu_0, # of connection points: 4
#     Node 1, Type 0, BuildingBlock: KOZSID_clean_sbu_0, # of connection points: 4
#     Node 2, Type 0, BuildingBlock: KOZSID_clean_sbu_0, # of connection points: 4
#     Node 3, Type 0, BuildingBlock: KOZSID_clean_sbu_0, # of connection points: 4
#     Node 4, Type 0, BuildingBlock: KOZSID_clean_sbu_0, # of connection points: 4
#     Node 5, Type 0, BuildingBlock: KOZSID_clean_sbu_0, # of connection points: 4
#     Node 6, Type 0, BuildingBlock: KOZSID_clean_sbu_0, # of connection points: 4
#     Node 7, Type 0, BuildingBlock: KOZSID_clean_sbu_0, # of connection points: 4
#     Node 8, Type 0, BuildingBlock: KOZSID_clean_sbu_0, # of connection points: 4
#     Node 9, Type 0, BuildingBlock: KOZSID_clean_sbu_0, # of connection points: 4
#     Node 10, Type 0, BuildingBlock: KOZSID_clean_sbu_0, # of connection points: 4
#     Node 11, Type 0, BuildingBlock: KOZSID_clean_sbu_0, # of connection points: 4
#     Node 12, Type 0, BuildingBlock: KOZSID_clean_sbu_0, # of connection points: 4
#     Node 13, Type 0, BuildingBlock: KOZSID_clean_sbu_0, # of connection points: 4
#     Node 14, Type 0, BuildingBlock: KOZSID_clean_sbu_0, # of connection points: 4
#     Node 15, Type 0, BuildingBlock: KOZSID_clean_sbu_0, # of connection points: 4
#     Edge 16, Type (0, 0), BuildingBlock: XUDNAN_clean_linker_2, # of connection points: 2
#     Edge 17, Type (0, 0), BuildingBlock: XUDNAN_clean_linker_2, # of connection points: 2
#     Edge 18, Type (0, 0), BuildingBlock: XUDNAN_clean_linker_2, # of connection points: 2
#     Edge 19, Type (0, 0), BuildingBlock: XUDNAN_clean_linker_2, # of connection points: 2
#     Edge 20, Type (0, 0), BuildingBlock: XUDNAN_clean_linker_2, # of connection points: 2
#     Edge 21, Type (0, 0), BuildingBlock: XUDNAN_clean_linker_2, # of connection points: 2
#     Edge 22, Type (0, 0), BuildingBlock: XUDNAN_clean_linker_2, # of connection points: 2
#     Edge 23, Type (0, 0), BuildingBlock: XUDNAN_clean_linker_2, # of connection points: 2
#     Edge 24, Type (0, 0), BuildingBlock: XUDNAN_clean_linker_2, # of connection points: 2
#     Edge 25, Type (0, 0), BuildingBlock: XUDNAN_clean_linker_2, # of connection points: 2
#     Edge 26, Type (0, 0), BuildingBlock: XUDNAN_clean_linker_2, # of connection points: 2
#     Edge 27, Type (0, 0), BuildingBlock: XUDNAN_clean_linker_2, # of connection points: 2
#     Edge 28, Type (0, 0), BuildingBlock: XUDNAN_clean_linker_2, # of connection points: 2
#     Edge 29, Type (0, 0), BuildingBlock: XUDNAN_clean_linker_2, # of connection points: 2
#     Edge 30, Type (0, 0), BuildingBlock: XUDNAN_clean_linker_2, # of connection points: 2
#     Edge 31, Type (0, 0), BuildingBlock: XUDNAN_clean_linker_2, # of connection points: 2
#     Edge 32, Type (0, 0), BuildingBlock: XUDNAN_clean_linker_2, # of connection points: 2
#     Edge 33, Type (0, 0), BuildingBlock: XUDNAN_clean_linker_2, # of connection points: 2
#     Edge 34, Type (0, 0), BuildingBlock: XUDNAN_clean_linker_2, # of connection points: 2
#     Edge 35, Type (0, 0), BuildingBlock: XUDNAN_clean_linker_2, # of connection points: 2
#     Edge 36, Type (0, 0), BuildingBlock: XUDNAN_clean_linker_2, # of connection points: 2
#     Edge 37, Type (0, 0), BuildingBlock: XUDNAN_clean_linker_2, # of connection points: 2
#     Edge 38, Type (0, 0), BuildingBlock: XUDNAN_clean_linker_2, # of connection points: 2
#     Edge 39, Type (0, 0), BuildingBlock: XUDNAN_clean_linker_2, # of connection points: 2
#     Edge 40, Type (0, 0), BuildingBlock: XUDNAN_clean_linker_2, # of connection points: 2
#     Edge 41, Type (0, 0), BuildingBlock: XUDNAN_clean_linker_2, # of connection points: 2
#     Edge 42, Type (0, 0), BuildingBlock: XUDNAN_clean_linker_2, # of connection points: 2
#     Edge 43, Type (0, 0), BuildingBlock: XUDNAN_clean_linker_2, # of connection points: 2
#     Edge 44, Type (0, 0), BuildingBlock: XUDNAN_clean_linker_2, # of connection points: 2
#     Edge 45, Type (0, 0), BuildingBlock: XUDNAN_clean_linker_2, # of connection points: 2
#     Edge 46, Type (0, 0), BuildingBlock: XUDNAN_clean_linker_2, # of connection points: 2
#     Edge 47, Type (0, 0), BuildingBlock: XUDNAN_clean_linker_2, # of connection points: 2
# Relax obj value: 0.075
# Max RMSD: 0.147
# Mean RMSD: 0.115
data_MOF--net-nfc--node1-KOZSID_clean_sbu_0--edge1-XUDNAN_clean_linker_2
_symmetry_space_group_name_H-M    P1
_symmetry_Int_Tables_number       1
_symmetry_cell_setting            triclinic
loop_
_symmetry_equiv_pos_as_xyz
'x, y, z'
_cell_length_a     43.066366
_cell_length_b     43.239127
_cell_length_c     35.34164
_cell_angle_alpha  84.200575
_cell_angle_beta   86.16216
_cell_angle_gamma 84.863348
loop_
_atom_site_label
_atom_site_type_symbol
_atom_site_fract_x
_atom_site_fract_y
_atom_site_fract_z
_atom_type_partial_charge
C0 C 0.97675 0.0253 0.08928 0.0
C1 C 0.95364 0.04603 0.10393 0.0
C2 C 0.93866 0.06139 0.07372 0.0
C3 C 0.95298 0.04917 0.04209 0.0
N4 N 0.97588 0.02645 0.05015 0.0
Co5 Co 1.00209 0.00361 0.01023 0.0
N6 N 0.9806 0.02712 0.96519 0.0
C7 C 0.95617 0.04874 0.96855 0.0
C8 C 0.94372 0.05956 0.93453 0.0
C9 C 0.96093 0.04372 0.90762 0.0
C10 C 0.98337 0.02408 0.92646 0.0
N11 N 0.029 0.98151 0.97027 0.0
C12 C 0.02876 0.98324 0.93105 0.0
C13 C 0.05309 0.96389 0.91631 0.0
C14 C 0.0682 0.94874 0.94654 0.0
C15 C 0.05285 0.95985 0.97827 0.0
N16 N 0.02297 0.97945 0.0553 0.0
C17 C 0.04591 0.95627 0.05208 0.0
C18 C 0.05736 0.9443 0.0863 0.0
C19 C 0.0409 0.96082 0.11317 0.0
C20 C 0.01996 0.98212 0.0941 0.0
N21 N 0.97146 0.97175 0.01171 0.0
C22 C 0.92849 0.9304 0.99561 0.0
C23 C 0.96022 0.92075 0.99677 0.0
C24 C 0.98111 0.94147 1.00564 0.0
C25 C 0.91823 0.95992 1.00638 0.0
C26 C 0.93996 0.98005 0.01439 0.0
N27 N 0.03256 0.03551 0.00871 0.0
C28 C 0.08361 0.0488 0.02256 0.0
C29 C 0.07271 0.08014 0.02342 0.0
C30 C 0.04222 0.08917 0.01307 0.0
C31 C 0.0228 0.06664 1.00543 0.0
C32 C 0.06334 0.02707 0.01499 0.0
H33 H 0.99961 0.07482 0.99855 0.0
H34 H 0.07285 0.00348 0.01586 0.0
H35 H 0.00504 0.93285 1.00589 0.0
H36 H 0.93069 0.00258 0.02109 0.0
C37 C 0.94502 0.05779 1.00436 0.0
C38 C 0.99867 0.00514 0.11423 0.0
C39 C 0.00597 0.00226 0.90617 0.0
C40 C 0.05867 0.94892 0.01615 0.0
H41 H 0.94801 0.04972 0.13351 0.0
H42 H 0.91947 0.07931 0.07473 0.0
H43 H 0.92396 0.07652 0.92991 0.0
H44 H 0.9568 0.04598 0.8776 0.0
H45 H 0.0592 0.96072 0.88669 0.0
H46 H 0.08775 0.93121 0.94551 0.0
H47 H 0.0764 0.9265 0.09102 0.0
H48 H 0.04471 0.95802 0.14328 0.0
H49 H 0.96901 0.89763 0.98972 0.0
H50 H 0.89372 0.96819 1.00636 0.0
H51 H 0.10742 0.04082 0.02896 0.0
H52 H 0.0327 0.11323 0.01286 0.0
C53 C 0.24538 0.78955 0.31454 0.0
C54 C 0.25813 0.81495 0.32675 0.0
C55 C 0.28694 0.81651 0.30853 0.0
C56 C 0.29011 0.79224 0.28612 0.0
N57 N 0.26496 0.77531 0.28866 0.0
Co58 Co 0.25985 0.73803 0.2607 0.0
N59 N 0.30246 0.74031 0.23412 0.0
C60 C 0.32315 0.76144 0.23783 0.0
C61 C 0.35023 0.75749 0.21555 0.0
C62 C 0.3466 0.73246 0.19616 0.0
C63 C 0.31737 0.72259 0.20777 0.0
N64 N 0.25482 0.70061 0.23291 0.0
C65 C 0.27435 0.68652 0.20688 0.0
C66 C 0.26156 0.66134 0.19423 0.0
C67 C 0.2329 0.65947 0.21282 0.0
C68 C 0.22981 0.68351 0.23563 0.0
N69 N 0.21713 0.7359 0.28708 0.0
C70 C 0.19649 0.71471 0.28334 0.0
C71 C 0.16948 0.71849 0.30574 0.0
C72 C 0.17301 0.74352 0.32513 0.0
C73 C 0.20206 0.75378 0.31321 0.0
N74 N 0.24181 0.76564 0.21821 0.0
C75 C 0.22428 0.79656 0.14859 0.0
C76 C 0.20724 0.77278 0.16665 0.0
C77 C 0.2162 0.75788 0.20145 0.0
C78 C 0.24776 0.80719 0.16794 0.0
C79 C 0.25598 0.79155 0.20277 0.0
N80 N 0.27789 0.71046 0.30322 0.0
C81 C 0.27064 0.67066 0.35525 0.0
C82 C 0.29444 0.6813 0.37408 0.0
C83 C 0.3126 0.70363 0.35461 0.0
C84 C 0.30404 0.71773 0.31927 0.0
C85 C 0.26299 0.68534 0.31973 0.0
H86 H 0.31782 0.73566 0.30663 0.0
H87 H 0.24382 0.67717 0.30734 0.0
H88 H 0.20311 0.73912 0.21315 0.0
H89 H 0.27491 0.79981 0.21556 0.0
C90 C 0.31634 0.78489 0.26226 0.0
C91 C 0.2146 0.77999 0.32843 0.0
C92 C 0.30479 0.69649 0.19258 0.0
C93 C 0.20348 0.69101 0.25925 0.0
H94 H 0.24771 0.83079 0.34676 0.0
H95 H 0.30359 0.83337 0.31127 0.0
H96 H 0.37014 0.7713 0.21347 0.0
H97 H 0.36349 0.72267 0.17561 0.0
H98 H 0.27178 0.64609 0.17344 0.0
H99 H 0.21616 0.64278 0.20977 0.0
H100 H 0.14976 0.70442 0.30811 0.0
H101 H 0.15622 0.75286 0.34607 0.0
H102 H 0.18845 0.76429 0.15274 0.0
H103 H 0.26138 0.82577 0.15493 0.0
H104 H 0.25622 0.65306 0.36913 0.0
H105 H 0.33183 0.71192 0.36792 0.0
C106 C 0.44222 0.98375 0.55826 0.0
C107 C 0.41807 0.99927 0.57867 0.0
C108 C 0.42274 0.03029 0.57333 0.0
C109 C 0.44925 0.03218 0.54977 0.0
N110 N 0.4618 0.00426 0.53949 0.0
Co111 Co 0.5004 0.99754 0.50472 0.0
N112 N 0.50919 0.04298 0.49983 0.0
C113 C 0.49223 0.06549 0.51798 0.0
C114 C 0.50483 0.09368 0.51321 0.0
C115 C 0.53133 0.08914 0.49032 0.0
C116 C 0.53321 0.05845 0.48136 0.0
N117 N 0.53842 0.99095 0.46906 0.0
C118 C 0.55702 0.01173 0.44885 0.0
C119 C 0.57654 0.997 0.42197 0.0
C120 C 0.57162 0.9661 0.42683 0.0
C121 C 0.54871 0.96351 0.45542 0.0
N122 N 0.49221 0.95192 0.51058 0.0
C123 C 0.51012 0.92898 0.49435 0.0
C124 C 0.50062 0.89975 0.50472 0.0
C125 C 0.47525 0.90408 0.5295 0.0
C126 C 0.47045 0.93589 0.53272 0.0
N127 N 0.4744 0.00542 0.45985 0.0
C128 C 0.44582 0.02094 0.39014 0.0
C129 C 0.46329 0.99236 0.3976 0.0
C130 C 0.47672 0.98495 0.43249 0.0
C131 C 0.44097 0.04053 0.41951 0.0
C132 C 0.45541 0.03241 0.45381 0.0
N133 N 0.52641 0.98972 0.5494 0.0
C134 C 0.56559 0.95803 0.58534 0.0
C135 C 0.55827 0.97512 0.61675 0.0
C136 C 0.5357 1.00036 0.61316 0.0
C137 C 0.52038 0.00725 0.57957 0.0
C138 C 0.54964 0.96587 0.55198 0.0
H139 H 0.5031 0.02638 0.57921 0.0
H140 H 0.55604 0.952 0.52895 0.0
H141 H 0.48975 0.96292 0.43601 0.0
H142 H 0.4515 0.04877 0.47453 0.0
C143 C 0.46461 0.0593 0.53963 0.0
C144 C 0.44543 0.94945 0.55813 0.0
C145 C 0.5578 0.04529 0.45458 0.0
C146 C 0.53539 0.93584 0.46888 0.0
H147 H 0.39919 0.98915 0.59602 0.0
H148 H 0.40886 0.04916 0.58594 0.0
H149 H 0.496 0.11498 0.52534 0.0
H150 H 0.54745 0.10665 0.48179 0.0
H151 H 0.59259 0.00736 0.40056 0.0
H152 H 0.58289 0.94779 0.41072 0.0
H153 H 0.51105 0.87783 0.49556 0.0
H154 H 0.46203 0.88577 0.54386 0.0
H155 H 0.46806 0.97614 0.37612 0.0
H156 H 0.42678 0.06248 0.41586 0.0
H157 H 0.58321 0.9385 0.58662 0.0
H158 H 0.52874 0.0141 0.63676 0.0
C159 C 0.28154 0.19112 0.78553 0.0
C160 C 0.2704 0.16215 0.79608 0.0
C161 C 0.23935 0.16519 0.78957 0.0
C162 C 0.23328 0.19568 0.77546 0.0
N163 N 0.2586 0.21233 0.77237 0.0
Co164 Co 0.25991 0.2575 0.75314 0.0
N165 N 0.2135 0.26282 0.74789 0.0
C166 C 0.19307 0.24093 0.75746 0.0
C167 C 0.16272 0.2512 0.75073 0.0
C168 C 0.16379 0.28146 0.73577 0.0
C169 C 0.19489 0.28787 0.73409 0.0
N170 N 0.26144 0.30236 0.73231 0.0
C171 C 0.23851 0.32334 0.71858 0.0
C172 C 0.25012 0.35137 0.70429 0.0
C173 C 0.28152 0.34793 0.70873 0.0
C174 C 0.2873 0.3181 0.72533 0.0
N175 N 0.30612 0.25259 0.76024 0.0
C176 C 0.32634 0.27494 0.7526 0.0
C177 C 0.35621 0.26536 0.76225 0.0
C178 C 0.35499 0.23518 0.77749 0.0
C179 C 0.32431 0.22805 0.77617 0.0
N180 N 0.26661 0.24577 0.69998 0.0
C181 C 0.27035 0.24108 0.62073 0.0
C182 C 0.29466 0.25203 0.6385 0.0
C183 C 0.29235 0.25416 0.67769 0.0
C184 C 0.24547 0.22973 0.64394 0.0
C185 C 0.24433 0.23185 0.68329 0.0
N186 N 0.25323 0.26954 0.80595 0.0
C187 C 0.26705 0.30009 0.85491 0.0
C188 C 0.24732 0.28465 0.88212 0.0
C189 C 0.23013 0.26179 0.8702 0.0
C190 C 0.23344 0.25463 0.83229 0.0
C191 C 0.26937 0.29249 0.8174 0.0
H192 H 0.21996 0.2368 0.82497 0.0
H193 H 0.2848 0.30522 0.79829 0.0
H194 H 0.31134 0.26362 0.68891 0.0
H195 H 0.22464 0.22304 0.69936 0.0
C196 C 0.20359 0.21016 0.76895 0.0
C197 C 0.31374 0.19757 0.79012 0.0
C198 C 0.20564 0.31767 0.71775 0.0
C199 C 0.31657 0.30449 0.73561 0.0
H200 H 0.28321 0.1412 0.80815 0.0
H201 H 0.22291 0.14756 0.79573 0.0
H202 H 0.1424 0.23795 0.755 0.0
H203 H 0.14402 0.29685 0.72629 0.0
H204 H 0.23724 0.37206 0.69163 0.0
H205 H 0.29817 0.3651 0.70067 0.0
H206 H 0.37645 0.27875 0.75872 0.0
H207 H 0.37447 0.22011 0.7884 0.0
H208 H 0.31518 0.25978 0.62212 0.0
H209 H 0.2262 0.22052 0.63181 0.0
H210 H 0.28136 0.31761 0.86252 0.0
H211 H 0.21411 0.24945 0.88992 0.0
C212 C 0.98102 0.98139 0.59399 0.0
C213 C 0.95795 0.9643 0.61302 0.0
C214 C 0.94187 0.95314 0.58597 0.0
C215 C 0.95548 0.96411 0.55166 0.0
N216 N 0.97939 0.98164 0.555 0.0
Co217 Co 0.00282 0.00371 0.51012 0.0
N218 N 0.97607 0.99069 0.4702 0.0
C219 C 0.95091 0.9742 0.4785 0.0
C220 C 0.93644 0.96813 0.44697 0.0
C221 C 0.95346 0.98131 0.41644 0.0
C222 C 0.97787 0.99447 0.43081 0.0
N223 N 0.027 0.02481 0.46516 0.0
C224 C 0.02563 0.02448 0.4262 0.0
C225 C 0.05042 0.03899 0.40707 0.0
C226 C 0.06747 0.04903 0.43399 0.0
C227 C 0.05273 0.03986 0.46832 0.0
N228 N 0.02868 0.01796 0.55019 0.0
C229 C 0.05277 0.03596 0.54204 0.0
C230 C 0.06609 0.04354 0.57366 0.0
C231 C 0.0492 0.03009 0.6041 0.0
C232 C 0.02618 0.015 0.58958 0.0
N233 N 0.0318 0.96544 0.50508 0.0
C234 C 0.07433 0.91581 0.48367 0.0
C235 C 0.0847 0.9415 0.49849 0.0
C236 C 0.06326 0.96585 0.50889 0.0
C237 C 0.0422 0.91427 0.4823 0.0
C238 C 0.02146 0.93882 0.49391 0.0
N239 N 0.97416 0.04195 0.51537 0.0
C240 C 0.96889 0.09534 0.53105 0.0
C241 C 0.93847 0.09204 0.54638 0.0
C242 C 0.92491 0.06467 0.54147 0.0
C243 C 0.94305 0.04009 0.52572 0.0
C244 C 0.98597 0.07037 0.51496 0.0
H245 H 0.93193 0.01922 0.52428 0.0
H246 H 0.00929 0.07396 0.50441 0.0
H247 H 0.07296 0.98504 0.51894 0.0
H248 H 0.99722 0.93598 0.49273 0.0
C249 C 0.9436 0.96213 0.51606 0.0
C250 C 0.00298 0.99774 0.61471 0.0
C251 C 1.0022 0.00999 0.40558 0.0
C252 C 0.06283 0.04435 0.50413 0.0
H253 H 0.9524 0.96105 0.64337 0.0
H254 H 0.92157 0.93988 0.59078 0.0
H255 H 0.91633 0.95492 0.44619 0.0
H256 H 0.9486 0.98082 0.3869 0.0
H257 H 0.05622 0.04144 0.37674 0.0
H258 H 0.08863 0.06095 0.42911 0.0
H259 H 0.08588 0.05718 0.5745 0.0
H260 H 0.05359 0.0312 0.63368 0.0
H261 H 0.10943 0.94348 0.50055 0.0
H262 H 0.0331 0.89429 0.47204 0.0
H263 H 0.97997 0.11659 0.5331 0.0
H264 H 0.90118 0.06133 0.55225 0.0
C265 C 0.26945 0.80749 0.70649 0.0
C266 C 0.25533 0.83393 0.68702 0.0
C267 C 0.2238 0.83231 0.69298 0.0
C268 C 0.22028 0.80514 0.71585 0.0
N269 N 0.24764 0.78911 0.7248 0.0
Co270 Co 0.25214 0.74868 0.75881 0.0
N271 N 0.20554 0.74625 0.76755 0.0
C272 C 0.18344 0.76701 0.75207 0.0
C273 C 0.15351 0.75996 0.76283 0.0
C274 C 0.15654 0.73307 0.78666 0.0
C275 C 0.18829 0.72503 0.78916 0.0
N276 N 0.25671 0.7087 0.79353 0.0
C277 C 0.23496 0.6912 0.81344 0.0
C278 C 0.24915 0.66535 0.83407 0.0
C279 C 0.28063 0.66665 0.82754 0.0
C280 C 0.28409 0.69305 0.80324 0.0
N281 N 0.29869 0.75068 0.74943 0.0
C282 C 0.32078 0.72889 0.76292 0.0
C283 C 0.35069 0.73552 0.75142 0.0
C284 C 0.34766 0.76322 0.7292 0.0
C285 C 0.31593 0.77221 0.72851 0.0
N286 N 0.25238 0.77263 0.80353 0.0
C287 C 0.24803 0.79931 0.8728 0.0
C288 C 0.27333 0.77844 0.86365 0.0
C289 C 0.27514 0.76563 0.82899 0.0
C290 C 0.22638 0.80883 0.84552 0.0
C291 C 0.22905 0.79529 0.81109 0.0
N292 N 0.25195 0.72462 0.71403 0.0
C293 C 0.27542 0.68416 0.67622 0.0
C294 C 0.25755 0.6961 0.64587 0.0
C295 C 0.23508 0.72081 0.65112 0.0
C296 C 0.2325 0.73444 0.68533 0.0
C297 C 0.27221 0.69868 0.70992 0.0
H298 H 0.21528 0.75347 0.68733 0.0
H299 H 0.28711 0.68904 0.73162 0.0
H300 H 0.29454 0.74923 0.8241 0.0
H301 H 0.21135 0.80264 0.79175 0.0
C302 C 0.19164 0.79368 0.72895 0.0
C303 C 0.30368 0.8014 0.70727 0.0
C304 C 0.2007 0.69757 0.81355 0.0
C305 C 0.31268 0.70323 0.7879 0.0
H306 H 0.26663 0.85259 0.67034 0.0
H307 H 0.20559 0.84902 0.68196 0.0
H308 H 0.13199 0.77312 0.7548 0.0
H309 H 0.13748 0.72098 0.80098 0.0
H310 H 0.23788 0.64722 0.85182 0.0
H311 H 0.29886 0.65012 0.83889 0.0
H312 H 0.3722 0.72194 0.75864 0.0
H313 H 0.3667 0.77547 0.71508 0.0
H314 H 0.29091 0.77093 0.88395 0.0
H315 H 0.20649 0.82512 0.85159 0.0
H316 H 0.29302 0.66487 0.67327 0.0
H317 H 0.2203 0.73032 0.62838 0.0
C318 C 0.44689 0.01765 0.95595 0.0
C319 C 0.41976 0.00576 0.9467 0.0
C320 C 0.42004 0.97603 0.9638 0.0
C321 C 0.4471 0.97147 0.98263 0.0
N322 N 0.46412 0.99656 0.97884 0.0
Co323 Co 0.50499 0.99983 1.00193 0.0
N324 N 0.50558 0.95581 0.02667 0.0
C325 C 0.48373 0.93551 0.02467 0.0
C326 C 0.48986 0.90732 0.04532 0.0
C327 C 0.51719 0.90972 0.06177 0.0
C328 C 0.52629 0.93935 0.05002 0.0
N329 N 0.54589 0.00309 0.02494 0.0
C330 C 0.56286 0.98218 0.04832 0.0
C331 C 0.59008 0.99397 0.05744 0.0
C332 C 0.5901 0.0235 0.03977 0.0
C333 C 0.56312 0.02803 0.02077 0.0
N334 N 0.50434 0.0439 0.97732 0.0
C335 C 0.52623 0.06418 0.97927 0.0
C336 C 0.51989 0.09252 0.95904 0.0
C337 C 0.49234 0.09028 0.94302 0.0
C338 C 0.48331 0.06059 0.95458 0.0
N339 N 0.48233 0.01499 0.04814 0.0
C340 C 0.45385 0.033 0.11757 0.0
C341 C 0.47864 0.04848 0.09928 0.0
C342 C 0.49223 0.03933 0.06479 0.0
C343 C 0.44261 0.00934 0.09947 0.0
C344 C 0.45709 1.00076 0.06512 0.0
N345 N 0.5277 0.98463 0.95571 0.0
C346 C 0.56732 0.99037 0.90427 0.0
C347 C 0.55667 0.96609 0.88675 0.0
C348 C 0.53221 0.95031 0.90533 0.0
C349 C 0.51832 0.95977 0.93956 0.0
C350 C 0.55261 0.99919 0.93839 0.0
H351 H 0.49954 0.94706 0.95189 0.0
H352 H 0.56149 0.01823 0.94973 0.0
H353 H 0.51124 0.05182 0.05266 0.0
H354 H 0.44781 0.98215 0.05329 0.0
C355 C 0.45721 0.9439 1.00404 0.0
C356 C 0.45514 0.04906 0.9421 0.0
C357 C 0.55415 0.95111 0.063 0.0
C358 C 0.55292 0.05568 0.99957 0.0
H359 H 0.40162 0.01738 0.92932 0.0
H360 H 0.4026 0.95967 0.96261 0.0
H361 H 0.47586 0.88754 0.04855 0.0
H362 H 0.52882 0.89181 0.08074 0.0
H363 H 0.60799 0.98247 0.07525 0.0
H364 H 0.60757 0.03984 0.04093 0.0
H365 H 0.53386 0.11232 0.95589 0.0
H366 H 0.48048 0.10837 0.92451 0.0
H367 H 0.48852 0.06677 0.11216 0.0
H368 H 0.42305 0.99703 0.11205 0.0
H369 H 0.58657 0.00299 0.89137 0.0
H370 H 0.52282 0.93153 0.89283 0.0
C371 C 0.21171 0.2527 0.33355 0.0
C372 C 0.18662 0.26484 0.3556 0.0
C373 C 0.1702 0.28642 0.33207 0.0
C374 C 0.18628 0.28616 0.29722 0.0
N375 N 0.21138 0.26502 0.29681 0.0
Co376 Co 0.24351 0.25882 0.25399 0.0
N377 N 0.22318 0.29461 0.22123 0.0
C378 C 0.19711 0.31287 0.23051 0.0
C379 C 0.18719 0.33374 0.20117 0.0
C380 C 0.20767 0.32807 0.17107 0.0
C381 C 0.22924 0.30409 0.18392 0.0
N382 N 0.27593 0.25276 0.21148 0.0
C383 C 0.27736 0.26676 0.17542 0.0
C384 C 0.30347 0.25524 0.15441 0.0
C385 C 0.31852 0.23241 0.17769 0.0
C386 C 0.30094 0.23145 0.21153 0.0
N387 N 0.26351 0.22286 0.28669 0.0
C388 C 0.28841 0.20329 0.2771 0.0
C389 C 0.29805 0.1825 0.30681 0.0
C390 C 0.27871 0.18986 0.33743 0.0
C391 C 0.25837 0.21473 0.32445 0.0
N392 N 0.21743 0.23037 0.23188 0.0
C393 C 0.18468 0.19974 0.18281 0.0
C394 C 0.21484 0.18846 0.19207 0.0
C395 C 0.23068 0.20399 0.21668 0.0
C396 C 0.17006 0.22452 0.20138 0.0
C397 C 0.18654 0.23895 0.2263 0.0
N398 N 0.26969 0.28751 0.27535 0.0
C399 C 0.31938 0.29922 0.29608 0.0
C400 C 0.30689 0.32885 0.30429 0.0
C401 C 0.2754 0.33724 0.29858 0.0
C402 C 0.2573 0.31628 0.28455 0.0
C403 C 0.30055 0.27914 0.28145 0.0
H404 H 0.23335 0.32388 0.28137 0.0
H405 H 0.31152 0.25705 0.27511 0.0
H406 H 0.25405 0.19508 0.22153 0.0
H407 H 0.17418 0.25782 0.23938 0.0
C408 C 0.18085 0.30798 0.26593 0.0
C409 C 0.23729 0.2325 0.34956 0.0
C410 C 0.25347 0.28933 0.1591 0.0
C411 C 0.30535 0.20869 0.24223 0.0
H412 H 0.18179 0.25976 0.38595 0.0
H413 H 0.15013 0.30183 0.33999 0.0
H414 H 0.16663 0.35009 0.20113 0.0
H415 H 0.20596 0.33955 0.14258 0.0
H416 H 0.31025 0.26186 0.12486 0.0
H417 H 0.33901 0.21737 0.17027 0.0
H418 H 0.31817 0.16559 0.3069 0.0
H419 H 0.28045 0.1794 0.36644 0.0
H420 H 0.22675 0.16879 0.17886 0.0
H421 H 0.14621 0.2332 0.196 0.0
H422 H 0.34376 0.29186 0.30001 0.0
H423 H 0.2647 0.35987 0.30515 0.0
C424 C 0.71021 0.31778 0.80473 0.0
C425 C 0.71663 0.34604 0.81681 0.0
C426 C 0.74797 0.3484 0.80981 0.0
C427 C 0.75897 0.3216 0.79397 0.0
N428 N 0.73652 0.30257 0.78995 0.0
Co429 Co 0.74321 0.26095 0.76956 0.0
N430 N 0.78594 0.2692 0.74795 0.0
C431 C 0.80258 0.29241 0.75597 0.0
C432 C 0.83041 0.29373 0.73491 0.0
C433 C 0.83164 0.26963 0.71247 0.0
C434 C 0.80458 0.25452 0.72159 0.0
N435 N 0.75007 0.21924 0.74949 0.0
C436 C 0.77248 0.20794 0.72441 0.0
C437 C 0.76916 0.17682 0.72006 0.0
C438 C 0.74389 0.16846 0.74307 0.0
C439 C 0.73326 0.19469 0.76034 0.0
N440 N 0.70038 0.25267 0.79091 0.0
C441 C 0.68859 0.22461 0.79586 0.0
C442 C 0.6584 0.22579 0.81098 0.0
C443 C 0.65076 0.25643 0.8166 0.0
C444 C 0.67695 0.27226 0.80489 0.0
N445 N 0.72603 0.27868 0.72168 0.0
C446 C 0.70864 0.29881 0.64805 0.0
C447 C 0.69721 0.27204 0.66765 0.0
C448 C 0.70601 0.2625 0.70449 0.0
C449 C 0.72709 0.31659 0.66701 0.0
C450 C 0.73557 0.30608 0.70386 0.0
N451 N 0.76047 0.2429 0.81743 0.0
C452 C 0.75525 0.23462 0.88565 0.0
C453 C 0.78153 0.2131 0.88598 0.0
C454 C 0.79789 0.20768 0.85143 0.0
C455 C 0.78688 0.22274 0.81741 0.0
C456 C 0.74525 0.24932 0.85126 0.0
H457 H 0.79944 0.21757 0.79111 0.0
H458 H 0.72484 0.26548 0.8522 0.0
H459 H 0.6977 0.24124 0.71834 0.0
H460 H 0.75099 0.3194 0.71714 0.0
C461 C 0.78922 0.31537 0.77845 0.0
C462 C 0.67988 0.30463 0.81256 0.0
C463 C 0.79892 0.2248 0.70728 0.0
C464 C 0.70533 0.19841 0.7824 0.0
H465 H 0.70056 0.36288 0.83023 0.0
H466 H 0.76107 0.36759 0.81513 0.0
H467 H 0.84723 0.31091 0.73473 0.0
H468 H 0.85048 0.26377 0.69195 0.0
H469 H 0.78373 0.16148 0.70262 0.0
H470 H 0.73401 0.14612 0.74613 0.0
H471 H 0.64357 0.20673 0.81681 0.0
H472 H 0.62875 0.2659 0.8291 0.0
H473 H 0.68259 0.25787 0.654 0.0
H474 H 0.7365 0.33737 0.65269 0.0
H475 H 0.74242 0.24009 0.9119 0.0
H476 H 0.81849 0.19138 0.85061 0.0
C477 C 0.76842 0.68111 0.29478 0.0
C478 C 0.75717 0.65275 0.30841 0.0
C479 C 0.72581 0.65582 0.30377 0.0
C480 C 0.71966 0.68578 0.28778 0.0
N481 N 0.74527 0.70197 0.28138 0.0
Co482 Co 0.74622 0.74711 0.2615 0.0
N483 N 0.70009 0.75145 0.25404 0.0
C484 C 0.68018 0.72877 0.26112 0.0
C485 C 0.65032 0.73801 0.25114 0.0
C486 C 0.65124 0.76829 0.23618 0.0
C487 C 0.68174 0.77581 0.23797 0.0
N488 N 0.74695 0.79252 0.24313 0.0
C489 C 0.72389 0.81344 0.2297 0.0
C490 C 0.73462 0.84266 0.2197 0.0
C491 C 0.76555 0.84007 0.22679 0.0
C492 C 0.77196 0.80957 0.24066 0.0
N493 N 0.79257 0.7424 0.26717 0.0
C494 C 0.81268 0.76468 0.25817 0.0
C495 C 0.84309 0.75475 0.26498 0.0
C496 C 0.84242 0.72431 0.27938 0.0
C497 C 0.81146 0.71746 0.28071 0.0
N498 N 0.7534 0.73584 0.20839 0.0
C499 C 0.75959 0.72224 0.13169 0.0
C500 C 0.77604 0.74541 0.14416 0.0
C501 C 0.7727 0.75173 0.18237 0.0
C502 C 0.74054 0.70565 0.15856 0.0
C503 C 0.73798 0.71261 0.19634 0.0
N504 N 0.73899 0.75813 0.31491 0.0
C505 C 0.75883 0.77556 0.37097 0.0
C506 C 0.73425 0.7635 0.39408 0.0
C507 C 0.71083 0.75108 0.37628 0.0
C508 C 0.71362 0.74864 0.33712 0.0
C509 C 0.7605 0.77302 0.3317 0.0
H510 H 0.69528 0.7382 0.32582 0.0
H511 H 0.77994 0.78243 0.31576 0.0
H512 H 0.7857 0.76974 0.19015 0.0
H513 H 0.72294 0.69917 0.21517 0.0
C514 C 0.6903 0.69911 0.27749 0.0
C515 C 0.80113 0.68724 0.29614 0.0
C516 C 0.69205 0.80641 0.22408 0.0
C517 C 0.8018 0.79543 0.24711 0.0
H518 H 0.77025 0.63208 0.32081 0.0
H519 H 0.70941 0.63834 0.31133 0.0
H520 H 0.63033 0.72429 0.25411 0.0
H521 H 0.63171 0.78314 0.225 0.0
H522 H 0.72166 0.86348 0.2075 0.0
H523 H 0.78173 0.85797 0.221 0.0
H524 H 0.86321 0.76831 0.26108 0.0
H525 H 0.86236 0.70906 0.28862 0.0
H526 H 0.79151 0.75859 0.12461 0.0
H527 H 0.72693 0.68776 0.15043 0.0
H528 H 0.77746 0.78577 0.38313 0.0
H529 H 0.69059 0.74258 0.39257 0.0
C530 C 0.76763 0.30631 0.20357 0.0
C531 C 0.75191 0.33055 0.18187 0.0
C532 C 0.72086 0.32589 0.18649 0.0
C533 C 0.71914 0.29932 0.21099 0.0
N534 N 0.7472 0.28671 0.22245 0.0
Co535 Co 0.75405 0.24842 0.25939 0.0
N536 N 0.70869 0.23919 0.26246 0.0
C537 C 0.68622 0.25571 0.24214 0.0
C538 C 0.65821 0.24273 0.24586 0.0
C539 C 0.66283 0.21644 0.27033 0.0
C540 C 0.69334 0.21514 0.28131 0.0
N541 N 0.76065 0.21099 0.29763 0.0
C542 C 0.73982 0.19262 0.31809 0.0
C543 C 0.75437 0.17407 0.34735 0.0
C544 C 0.78521 0.17941 0.34396 0.0
C545 C 0.78793 0.20162 0.31377 0.0
N546 N 0.79971 0.2567 0.25479 0.0
C547 C 0.8227 0.23897 0.27289 0.0
C548 C 0.85198 0.24822 0.26286 0.0
C549 C 0.84762 0.2732 0.23631 0.0
C550 C 0.81573 0.2781 0.23183 0.0
N551 N 0.74591 0.27473 0.30248 0.0
C552 C 0.73058 0.30024 0.37184 0.0
C553 C 0.7607 0.28725 0.36341 0.0
C554 C 0.76794 0.27513 0.32861 0.0
C555 C 0.70908 0.30326 0.34367 0.0
C556 C 0.71728 0.29053 0.30917 0.0
N557 N 0.76225 0.22207 0.21665 0.0
C558 C 0.79523 0.18355 0.18419 0.0
C559 C 0.77869 0.19084 0.15136 0.0
C560 C 0.75287 0.21275 0.1525 0.0
C561 C 0.74514 0.22793 0.1851 0.0
C562 C 0.78632 0.19903 0.21663 0.0
H563 H 0.72587 0.24512 0.18358 0.0
H564 H 0.79966 0.19263 0.24101 0.0
H565 H 0.79119 0.26513 0.32438 0.0
H566 H 0.69965 0.29267 0.28909 0.0
C567 C 0.69219 0.28364 0.22025 0.0
C568 C 0.80201 0.30302 0.20482 0.0
C569 C 0.70635 0.19129 0.31059 0.0
C570 C 0.81565 0.21465 0.30043 0.0
H571 H 0.7619 0.34946 0.16411 0.0
H572 H 0.70186 0.33974 0.17271 0.0
H573 H 0.63694 0.25126 0.23217 0.0
H574 H 0.64546 0.20015 0.27869 0.0
H575 H 0.74392 0.15842 0.36938 0.0
H576 H 0.8034 0.16881 0.36196 0.0
H577 H 0.87393 0.23798 0.27355 0.0
H578 H 0.86597 0.28617 0.22176 0.0
H579 H 0.77827 0.28526 0.38429 0.0
H580 H 0.68558 0.31369 0.34905 0.0
H581 H 0.8152 0.16643 0.18462 0.0
H582 H 0.73951 0.21946 0.12762 0.0
C583 C 0.72743 0.74083 0.83844 0.0
C584 C 0.70002 0.74812 0.85983 0.0
C585 C 0.68189 0.76868 0.83705 0.0
C586 C 0.6991 0.77262 0.80311 0.0
N587 N 0.72689 0.7553 0.80264 0.0
Co588 Co 0.75985 0.75478 0.75988 0.0
N589 N 0.73474 0.78753 0.72787 0.0
C590 C 0.70728 0.80311 0.73795 0.0
C591 C 0.69465 0.82226 0.70851 0.0
C592 C 0.71479 0.8179 0.67757 0.0
C593 C 0.73854 0.79635 0.69011 0.0
N594 N 0.79246 0.75398 0.71671 0.0
C595 C 0.79022 0.76605 0.68005 0.0
C596 C 0.81673 0.75798 0.65758 0.0
C597 C 0.83622 0.7393 0.68079 0.0
C598 C 0.82041 0.73704 0.71585 0.0
N599 N 0.78528 0.72227 0.79195 0.0
C600 C 0.81382 0.7085 0.78234 0.0
C601 C 0.8265 0.68892 0.81124 0.0
C602 C 0.80515 0.69078 0.84138 0.0
C603 C 0.78042 0.71135 0.82901 0.0
N604 N 0.73944 0.72192 0.73801 0.0
C605 C 0.71102 0.67627 0.70442 0.0
C606 C 0.74274 0.67243 0.71116 0.0
C607 C 0.75642 0.69545 0.72764 0.0
C608 C 0.69365 0.70317 0.71498 0.0
C609 C 0.70817 0.72541 0.73192 0.0
N610 N 0.78026 0.78746 0.78242 0.0
C611 C 0.82546 0.80195 0.81132 0.0
C612 C 0.80697 0.82374 0.83142 0.0
C613 C 0.77548 0.8292 0.82359 0.0
C614 C 0.76278 0.81114 0.79889 0.0
C615 C 0.81179 0.78454 0.78675 0.0
H616 H 0.73854 0.816 0.79481 0.0
H617 H 0.82704 0.76792 0.77296 0.0
H618 H 0.78082 0.69148 0.73134 0.0
H619 H 0.69367 0.74535 0.73958 0.0
C620 C 0.69137 0.79483 0.77282 0.0
C621 C 0.75408 0.72176 0.85414 0.0
C622 C 0.76201 0.78188 0.66457 0.0
C623 C 0.82911 0.71615 0.74689 0.0
H624 H 0.69424 0.74023 0.88931 0.0
H625 H 0.65946 0.78041 0.84486 0.0
H626 H 0.67229 0.83587 0.70878 0.0
H627 H 0.71154 0.82793 0.64864 0.0
H628 H 0.8207 0.76369 0.62721 0.0
H629 H 0.85833 0.72716 0.6725 0.0
H630 H 0.84916 0.67587 0.81092 0.0
H631 H 0.80815 0.67916 0.86961 0.0
H632 H 0.7571 0.65199 0.70309 0.0
H633 H 0.66889 0.70689 0.71058 0.0
H634 H 0.85011 0.79712 0.81582 0.0
H635 H 0.76044 0.84682 0.83715 0.0
C636 C 0.47541 0.50827 0.56699 0.0
C637 C 0.45152 0.52811 0.5818 0.0
C638 C 0.44608 0.55223 0.55442 0.0
C639 C 0.46668 0.54565 0.52448 0.0
N640 N 0.48459 0.51848 0.53086 0.0
Co641 Co 0.51782 0.50011 0.49531 0.0
N642 N 0.51079 0.53622 0.45564 0.0
C643 C 0.49165 0.56249 0.45894 0.0
C644 C 0.48962 0.58148 0.42554 0.0
C645 C 0.50774 0.56597 0.39912 0.0
C646 C 0.51993 0.53835 0.41808 0.0
N647 N 0.55071 0.48174 0.45943 0.0
C648 C 0.5568 0.49025 0.422 0.0
C649 C 0.58018 0.47055 0.40615 0.0
C650 C 0.5884 0.44795 0.43444 0.0
C651 C 0.56958 0.45526 0.46571 0.0
N652 N 0.52506 0.46394 0.5348 0.0
C653 C 0.54623 0.43901 0.53222 0.0
C654 C 0.54707 0.41889 0.56472 0.0
C655 C 0.52553 0.43194 0.58978 0.0
C656 C 0.51254 0.45933 0.57095 0.0
N657 N 0.48626 0.47811 0.47267 0.0
C658 C 0.44463 0.44967 0.43173 0.0
C659 C 0.47154 0.43286 0.44534 0.0
C660 C 0.49188 0.44744 0.46571 0.0
C661 C 0.43809 0.48032 0.44096 0.0
C662 C 0.45897 0.49392 0.46132 0.0
N663 N 0.54952 0.5222 0.5182 0.0
C664 C 0.59904 0.52079 0.54715 0.0
C665 C 0.59139 0.55031 0.55957 0.0
C666 C 0.56311 0.56622 0.54914 0.0
C667 C 0.54286 0.55197 0.52836 0.0
C668 C 0.578 0.50733 0.52678 0.0
H669 H 0.52167 0.56529 0.52176 0.0
H670 H 0.58518 0.4846 0.51907 0.0
H671 H 0.51249 0.4338 0.47446 0.0
H672 H 0.45291 0.51755 0.46671 0.0
C673 C 0.47126 0.56546 0.49111 0.0
C674 C 0.48995 0.48121 0.58923 0.0
C675 C 0.53729 0.51314 0.39923 0.0
C676 C 0.56633 0.43605 0.49976 0.0
H677 H 0.4399 0.52585 0.60994 0.0
H678 H 0.42974 0.5726 0.55653 0.0
H679 H 0.47473 0.60281 0.4203 0.0
H680 H 0.51018 0.57356 0.3691 0.0
H681 H 0.5887 0.4713 0.37657 0.0
H682 H 0.60459 0.42754 0.43182 0.0
H683 H 0.5623 0.3978 0.57001 0.0
H684 H 0.52072 0.42269 0.61895 0.0
H685 H 0.47761 0.40901 0.439 0.0
H686 H 0.41705 0.49401 0.43214 0.0
H687 H 0.62108 0.50782 0.55345 0.0
H688 H 0.556 0.58918 0.55798 0.0
C689 C 0.94332 0.48003 0.05951 0.0
C690 C 0.91757 0.49289 0.07998 0.0
C691 C 0.91946 0.52442 0.07634 0.0
C692 C 0.94605 0.52924 0.05375 0.0
N693 N 0.96141 0.5027 0.04264 0.0
Co694 Co 1.00105 0.5003 0.00865 0.0
N695 N 0.00416 0.54683 1.00411 0.0
C696 C 0.98383 0.56778 0.02073 0.0
C697 C 0.99104 0.59804 0.01247 0.0
C698 C 0.01763 0.59648 0.98919 0.0
C699 C 0.02541 0.56518 0.98457 0.0
N700 N 0.04044 0.49796 0.97419 0.0
C701 C 0.05825 0.52069 0.95685 0.0
C702 C 0.08342 0.50795 0.93532 0.0
C703 C 0.08146 0.47643 0.93878 0.0
C704 C 0.05536 0.4715 0.96224 0.0
N705 N 0.99817 0.45372 0.01361 0.0
C706 C 0.01901 0.4327 0.99789 0.0
C707 C 0.01216 0.40239 0.00684 0.0
C708 C 0.98534 0.404 0.02974 0.0
C709 C 0.97703 0.43537 0.03337 0.0
N710 N 0.97593 0.50503 0.96315 0.0
C711 C 0.94784 0.51712 0.89339 0.0
C712 C 0.96941 0.49148 0.89982 0.0
C713 C 0.98277 0.48566 0.93485 0.0
C714 C 0.93861 0.53532 0.9231 0.0
C715 C 0.95285 0.52881 0.95775 0.0
N716 N 0.02629 0.49556 0.05409 0.0
C717 C 0.06756 0.46817 0.09062 0.0
C718 C 0.05813 0.48484 0.12179 0.0
C719 C 0.03345 0.50801 0.1178 0.0
C720 C 0.01818 0.51309 0.08393 0.0
C721 C 0.0515 0.47394 0.05727 0.0
H722 H 0.99941 0.53082 0.08293 0.0
H723 H 0.05966 0.46021 0.03479 0.0
H724 H 0.99937 0.466 0.93781 0.0
H725 H 0.94556 0.54394 0.97916 0.0
C726 C 0.95758 0.55831 0.04298 0.0
C727 C 0.94901 0.44619 0.05644 0.0
C728 C 0.05294 0.55446 0.96061 0.0
C729 C 0.04458 0.44227 0.97435 0.0
H730 H 0.89918 0.48079 0.09581 0.0
H731 H 0.90333 0.5418 0.08874 0.0
H732 H 0.97823 0.61886 0.02187 0.0
H733 H 0.02973 0.61625 0.97663 0.0
H734 H 0.10153 0.52013 0.91901 0.0
H735 H 0.09736 0.4591 0.92593 0.0
H736 H 0.02518 0.38154 0.99786 0.0
H737 H 0.97337 0.38423 0.04255 0.0
H738 H 0.97679 0.47663 0.87737 0.0
H739 H 0.92173 0.55534 0.91902 0.0
H740 H 0.08695 0.4504 0.09207 0.0
H741 H 0.02499 0.52144 0.14121 0.0
C742 C 0.46587 0.56702 0.00942 0.0
C743 C 0.47754 0.59614 1.00611 0.0
C744 C 0.50792 0.59202 0.99267 0.0
C745 C 0.51313 0.56077 0.98861 0.0
N746 N 0.48778 0.54469 0.99818 0.0
Co747 Co 0.48551 0.49857 0.99804 0.0
N748 N 0.53142 0.49191 0.98387 0.0
C749 C 0.55227 0.5138 0.97953 0.0
C750 C 0.582 0.50244 0.96906 0.0
C751 C 0.57996 0.47151 0.96591 0.0
C752 C 0.5489 0.46586 0.9744 0.0
N753 N 0.48304 0.45254 0.99676 0.0
C754 C 0.50491 0.4304 0.98488 0.0
C755 C 0.49268 0.40174 0.98516 0.0
C756 C 0.46197 0.40595 0.99718 0.0
C757 C 0.45712 0.43683 1.00335 0.0
N758 N 0.4398 0.5051 0.01358 0.0
C759 C 0.41912 0.48306 0.0194 0.0
C760 C 0.38983 0.49415 0.03193 0.0
C761 C 0.39203 0.52504 0.03513 0.0
C762 C 0.4227 0.53097 0.02435 0.0
N763 N 0.47664 0.50433 0.94318 0.0
C764 C 0.47104 0.49894 0.86515 0.0
C765 C 0.4474 0.49051 0.89226 0.0
C766 C 0.45068 0.49328 0.93071 0.0
C767 C 0.49604 0.51308 0.87749 0.0
C768 C 0.498 0.51611 0.91625 0.0
N769 N 0.4944 0.49249 0.05276 0.0
C770 C 0.48076 0.47109 0.11689 0.0
C771 C 0.50305 0.4874 0.13173 0.0
C772 C 0.52152 0.50572 0.10591 0.0
C773 C 0.51664 0.50814 0.06697 0.0
C774 C 0.47728 0.47349 0.07775 0.0
H775 H 0.5309 0.52308 0.04897 0.0
H776 H 0.46015 0.46017 0.06847 0.0
H777 H 0.43228 0.48533 0.94973 0.0
H778 H 0.51764 0.52699 0.92383 0.0
C779 C 0.54241 0.54534 0.98093 0.0
C780 C 0.4346 0.56136 0.02577 0.0
C781 C 0.53686 0.43587 0.97092 0.0
C782 C 0.42826 0.45197 0.01372 0.0
H783 H 0.46573 0.61793 0.01392 0.0
H784 H 0.52466 0.60947 0.98826 0.0
H785 H 0.60242 0.51537 0.96281 0.0
H786 H 0.59895 0.45519 0.95708 0.0
H787 H 0.50445 0.3802 0.97648 0.0
H788 H 0.44496 0.38876 0.99993 0.0
H789 H 0.36949 0.48119 0.0387 0.0
H790 H 0.37332 0.54128 0.0449 0.0
H791 H 0.4267 0.48096 0.88413 0.0
H792 H 0.51482 0.5206 0.85776 0.0
H793 H 0.46537 0.45691 0.13525 0.0
H794 H 0.53971 0.51827 0.11547 0.0
C795 C 0.94639 0.51461 0.4587 0.0
C796 C 0.92047 0.50023 0.45023 0.0
C797 C 0.92326 0.47064 0.46782 0.0
C798 C 0.95046 0.46866 0.48624 0.0
N799 N 0.96528 0.49521 0.48158 0.0
Co800 Co 0.00491 0.50264 0.50498 0.0
N801 N 0.00936 0.45873 0.53013 0.0
C802 C 0.99005 0.43608 0.52763 0.0
C803 C 0.99885 0.40835 0.5479 0.0
C804 C 0.02541 0.41348 0.56442 0.0
C805 C 0.03139 0.44419 0.55313 0.0
N806 N 0.0442 0.51025 0.52906 0.0
C807 C 0.06261 0.4911 0.55277 0.0
C808 C 0.08762 0.506 0.56298 0.0
C809 C 0.08475 0.53564 0.54557 0.0
C810 C 0.05835 0.53719 0.52566 0.0
N811 N 1.00082 0.54635 0.47917 0.0
C812 C 0.02087 0.56857 0.48037 0.0
C813 C 0.01275 0.5959 0.45887 0.0
C814 C 0.98595 0.59091 0.44278 0.0
C815 C 0.97906 0.56073 0.45567 0.0
N816 N 0.98008 0.51657 0.55034 0.0
C817 C 0.95062 0.5328 0.61976 0.0
C818 C 0.97099 0.55233 0.59889 0.0
C819 C 0.98527 0.54388 0.56447 0.0
C820 C 0.94345 0.50618 0.604 0.0
C821 C 0.95828 0.49861 0.56941 0.0
N822 N 0.02982 0.48873 0.45963 0.0
C823 C 0.07041 0.49692 0.40997 0.0
C824 C 0.06141 0.47255 0.39128 0.0
C825 C 0.0375 0.45527 0.40847 0.0
C826 C 0.02222 0.46364 0.44244 0.0
C827 C 0.0545 0.50449 0.4439 0.0
H828 H 0.00376 0.44999 0.45365 0.0
H829 H 0.06219 0.52362 0.45631 0.0
H830 H 1.00111 0.55939 0.55046 0.0
H831 H 0.95248 0.4776 0.55939 0.0
C832 C 0.96306 0.44199 0.50737 0.0
C833 C 0.95193 0.54667 0.44417 0.0
C834 C 0.05767 0.45867 0.56612 0.0
C835 C 0.04681 0.56326 0.50257 0.0
H836 H 0.90146 0.51007 0.43307 0.0
H837 H 0.9074 0.45268 0.46716 0.0
H838 H 0.98706 0.38708 0.55084 0.0
H839 H 0.03859 0.3966 0.58312 0.0
H840 H 0.10615 0.49638 0.58101 0.0
H841 H 0.10023 0.55383 0.547 0.0
H842 H 0.02492 0.61694 0.45526 0.0
H843 H 0.97308 0.6076 0.42355 0.0
H844 H 0.97679 0.57352 0.60975 0.0
H845 H 0.92783 0.49029 0.61922 0.0
H846 H 0.08916 0.51067 0.39797 0.0
H847 H 0.0295 0.4363 0.39491 0.0
H848 H 0.99595 0.96247 0.18313 0.0
H849 H 0.00597 0.05983 0.14572 0.0
H850 H 0.00656 0.07109 0.21279 0.0
H851 H 0.94743 0.9739 0.26991 0.0
H852 H 0.96625 0.94166 0.29857 0.0
H853 H 0.96594 0.9407 0.24771 0.0
H854 H 0.0261 0.93188 0.24313 0.0
H855 H 0.02656 0.9326 0.29402 0.0
H856 H 0.0489 0.95884 0.26253 0.0
H857 H 0.0037 0.07293 0.28664 0.0
H858 H 1.00251 0.06439 0.35685 0.0
H859 H 0.99949 0.96516 0.35047 0.0
C860 C 0.99864 0.98618 0.1888 0.0
C861 C 1.00061 0.01028 0.1575 0.0
C862 C 0.00387 0.04077 0.16785 0.0
C863 C 0.00433 0.04746 0.20643 0.0
C864 C 1.00203 0.02351 0.23615 0.0
C865 C 0.9997 0.99328 0.22779 0.0
C866 C 0.99851 0.97178 0.26553 0.0
C867 C 0.9677 0.95606 0.27073 0.0
C868 C 0.02669 0.94731 0.26635 0.0
C869 C 1.00025 0.99452 0.29626 0.0
C870 C 1.00199 0.02433 0.27842 0.0
C871 C 0.00282 0.04948 0.30042 0.0
C872 C 1.00228 0.04432 0.34088 0.0
C873 C 1.00149 0.01405 0.36082 0.0
C874 C 1.00023 0.9888 0.33728 0.0
H875 H 0.29455 0.72387 0.42436 0.0
H876 H 0.29403 0.62441 0.41736 0.0
H877 H 0.28732 0.61619 0.48795 0.0
H878 H 0.33397 0.72092 0.51375 0.0
H879 H 0.30952 0.75404 0.52873 0.0
H880 H 0.31878 0.7507 0.47877 0.0
H881 H 0.25963 0.75593 0.46715 0.0
H882 H 0.2501 0.7586 0.51708 0.0
H883 H 0.23456 0.72896 0.49321 0.0
H884 H 0.27738 0.6202 0.55969 0.0
H885 H 0.26401 0.63612 0.62487 0.0
H886 H 0.26861 0.73305 0.58122 0.0
C887 C 0.29427 0.70019 0.43768 0.0
C888 C 0.29563 0.67465 0.41571 0.0
C889 C 0.29354 0.64417 0.43399 0.0
C890 C 0.28972 0.63935 0.47391 0.0
C891 C 0.28773 0.66532 0.4947 0.0
C892 C 0.28998 0.69512 0.47702 0.0
C893 C 0.28419 0.71958 0.50475 0.0
C894 C 0.31336 0.73734 0.50662 0.0
C895 C 0.25542 0.74207 0.49495 0.0
C896 C 0.27807 0.699 0.54097 0.0
C897 C 0.28051 0.66775 0.53496 0.0
C898 C 0.27549 0.6446 0.56468 0.0
C899 C 0.26789 0.65377 0.60144 0.0
C900 C 0.26491 0.68576 0.60763 0.0
C901 C 0.2702 0.70846 0.57702 0.0
H902 H 0.57173 0.0081 0.8269 0.0
H903 H 0.56737 0.90888 0.85805 0.0
H904 H 0.57834 0.89915 0.79061 0.0
H905 H 0.53178 0.01303 0.74903 0.0
H906 H 0.55391 0.04124 0.7204 0.0
H907 H 0.55294 0.03971 0.77136 0.0
H908 H 0.61339 0.03214 0.7695 0.0
H909 H 0.61461 0.03387 0.71822 0.0
H910 H 0.63364 1.00081 0.74529 0.0
H911 H 0.57901 0.90151 0.71949 0.0
H912 H 0.56876 0.91587 0.65184 0.0
H913 H 0.5762 0.01314 0.66714 0.0
C914 C 0.57451 0.98416 0.81991 0.0
C915 C 0.56879 0.95926 0.84783 0.0
C916 C 0.57145 0.92838 0.83712 0.0
C917 C 0.578 0.92259 0.79892 0.0
C918 C 0.58236 0.94787 0.77188 0.0
C919 C 0.58115 0.97803 0.78204 0.0
C920 C 0.58255 0.00153 0.74737 0.0
C921 C 0.55358 0.02523 0.74704 0.0
C922 C 0.61286 0.01805 0.74496 0.0
C923 C 0.58267 0.98009 0.71611 0.0
C924 C 0.58327 0.94915 0.73066 0.0
C925 C 0.57947 0.92555 0.70762 0.0
C926 C 0.57379 0.93392 0.66913 0.0
C927 C 0.5717 0.96564 0.6542 0.0
C928 C 0.57767 0.9887 0.67773 0.0
H929 H 0.24041 0.24438 0.9475 0.0
H930 H 0.2501 0.34186 0.90868 0.0
H931 H 0.25275 0.35344 0.97506 0.0
H932 H 0.19026 0.26002 0.03345 0.0
H933 H 0.20769 0.22642 0.06114 0.0
H934 H 0.20561 0.22604 0.01046 0.0
H935 H 0.26556 0.21251 1.00445 0.0
H936 H 0.26767 0.21347 0.05503 0.0
H937 H 0.29112 0.23778 0.02231 0.0
H938 H 0.25895 0.35382 0.04486 0.0
H939 H 0.26211 0.3438 0.11484 0.0
H940 H 0.24356 0.24758 0.10911 0.0
C941 C 0.24241 0.26831 0.95287 0.0
C942 C 0.24552 0.29208 0.92254 0.0
C943 C 0.24851 0.323 0.93114 0.0
C944 C 0.24981 0.32992 0.96883 0.0
C945 C 0.24749 0.30582 0.99784 0.0
C946 C 0.24325 0.27576 0.99044 0.0
C947 C 0.24143 0.25419 0.02699 0.0
C948 C 0.20933 0.2409 0.03337 0.0
C949 C 0.26803 0.22794 0.02718 0.0
C950 C 0.24575 0.2768 0.05591 0.0
C951 C 0.24945 0.30641 0.03844 0.0
C952 C 0.25544 0.3309 0.05898 0.0
C953 C 0.2572 0.32506 0.09855 0.0
C954 C 0.25239 0.2952 0.11707 0.0
C955 C 0.24685 0.27074 0.09545 0.0
H956 H 1.00206 0.04277 0.67024 0.0
H957 H 0.00694 0.943 0.66298 0.0
H958 H 0.00629 0.93419 0.73313 0.0
H959 H 0.05447 0.03764 0.7499 0.0
H960 H 0.03379 0.06962 0.77247 0.0
H961 H 0.03331 0.06857 0.72164 0.0
H962 H 0.97305 0.07319 0.72685 0.0
H963 H 0.97334 0.07405 0.77773 0.0
H964 H 0.95279 0.04526 0.75842 0.0
H965 H 0.00296 0.93568 0.8071 0.0
H966 H 1.00266 0.94689 0.87426 0.0
H967 H 0.00561 0.04535 0.83757 0.0
C968 C 0.00316 0.01897 0.68323 0.0
C969 C 0.00389 0.99359 0.65946 0.0
C970 C 0.00551 0.96312 0.67913 0.0
C971 C 0.00532 0.95781 0.71957 0.0
C972 C 0.00416 0.98306 0.7418 0.0
C973 C 0.0036 0.01314 0.72421 0.0
C974 C 0.00368 0.036 0.75515 0.0
C975 C 0.03306 0.05404 0.74945 0.0
C976 C 0.97395 0.05847 0.75449 0.0
C977 C 0.00414 0.01426 0.79269 0.0
C978 C 0.00406 0.98378 0.78408 0.0
C979 C 0.00349 0.95953 0.81363 0.0
C980 C 0.00343 0.9662 0.85227 0.0
C981 C 0.00448 0.99701 0.86286 0.0
C982 C 0.00468 0.02138 0.83173 0.0
H983 H 0.7349 0.25942 0.43433 0.0
H984 H 0.70499 0.35546 0.39769 0.0
H985 H 0.69255 0.36573 0.46531 0.0
H986 H 0.67587 0.24931 0.51253 0.0
H987 H 0.70243 0.2247 0.54208 0.0
H988 H 0.70714 0.22521 0.49099 0.0
H989 H 0.7643 0.23928 0.49277 0.0
H990 H 0.75978 0.23879 0.54377 0.0
H991 H 0.77204 0.27308 0.51546 0.0
H992 H 0.68861 0.36577 0.53805 0.0
H993 H 0.69026 0.35488 0.60832 0.0
H994 H 0.72057 0.25813 0.59469 0.0
C995 C 0.72555 0.28257 0.44061 0.0
C996 C 0.72111 0.3068 0.41125 0.0
C997 C 0.70851 0.33671 0.42012 0.0
C998 C 0.70145 0.34267 0.45829 0.0
C999 C 0.70665 0.31824 0.48678 0.0
C1000 C 0.71806 0.2887 0.47818 0.0
C1001 C 0.72223 0.26645 0.51354 0.0
C1002 C 0.70062 0.23985 0.51485 0.0
C1003 C 0.75662 0.25367 0.51655 0.0
C1004 C 0.71209 0.28818 0.54366 0.0
C1005 C 0.70319 0.31799 0.52793 0.0
C1006 C 0.69498 0.34239 0.55064 0.0
C1007 C 0.69605 0.33607 0.59037 0.0
C1008 C 0.70494 0.30557 0.60672 0.0
C1009 C 0.71278 0.28144 0.58296 0.0
H1010 H 0.4365 0.99098 0.17665 0.0
H1011 H 0.44538 0.08984 0.14735 0.0
H1012 H 0.43475 0.09901 0.21493 0.0
H1013 H 0.37383 1.00064 0.25686 0.0
H1014 H 0.39067 0.96642 0.284 0.0
H1015 H 0.39283 0.96869 0.23268 0.0
H1016 H 0.45297 0.95775 0.23269 0.0
H1017 H 0.45111 0.95581 0.28375 0.0
H1018 H 0.47524 0.98281 0.25609 0.0
H1019 H 0.43414 0.09562 0.28583 0.0
H1020 H 0.44184 0.08037 0.35361 0.0
H1021 H 0.42783 0.98448 0.33708 0.0
C1022 C 0.43484 0.01479 0.18405 0.0
C1023 C 0.44184 0.03966 0.1566 0.0
C1024 C 0.44048 0.07032 0.16789 0.0
C1025 C 0.43412 0.07581 0.20618 0.0
C1026 C 0.42853 0.05054 0.23272 0.0
C1027 C 0.42823 0.02069 0.22202 0.0
C1028 C 0.42498 0.99705 0.25638 0.0
C1029 C 0.39371 0.98234 0.25754 0.0
C1030 C 0.45273 0.97191 0.25726 0.0
C1031 C 0.42551 0.01798 0.2881 0.0
C1032 C 0.42706 0.04881 0.27394 0.0
C1033 C 0.43188 0.07174 0.29741 0.0
C1034 C 0.43608 0.06279 0.33611 0.0
C1035 C 0.43541 0.03113 0.35109 0.0
C1036 C 0.42874 0.00883 0.32678 0.0
H1037 H 0.76266 0.76423 0.06761 0.0
H1038 H 0.76076 0.66528 0.10351 0.0
H1039 H 0.75926 0.65454 0.03656 0.0
H1040 H 0.71148 0.76787 0.99294 0.0
H1041 H 0.73265 0.79484 0.96102 0.0
H1042 H 0.73448 0.79498 0.01176 0.0
H1043 H 0.79483 0.78698 1.00481 0.0
H1044 H 0.79322 0.78677 0.95404 0.0
H1045 H 0.81317 0.7544 0.98125 0.0
H1046 H 0.75464 0.65464 0.96635 0.0
H1047 H 0.75133 0.66557 0.89643 0.0
H1048 H 0.75925 0.76367 0.90561 0.0
C1049 C 0.76253 0.74023 0.06141 0.0
C1050 C 0.76153 0.71564 0.09102 0.0
C1051 C 0.7609 0.68462 0.08151 0.0
C1052 C 0.76024 0.67822 0.04352 0.0
C1053 C 0.76059 0.70303 0.0152 0.0
C1054 C 0.76213 0.73337 0.02356 0.0
C1055 C 0.76206 0.75577 0.98765 0.0
C1056 C 0.73346 0.77977 0.98841 0.0
C1057 C 0.79264 0.77192 0.98159 0.0
C1058 C 0.75981 0.73326 0.95795 0.0
C1059 C 0.7589 0.70296 0.97447 0.0
C1060 C 0.75577 0.6782 0.953 0.0
C1061 C 0.75388 0.68454 0.91349 0.0
C1062 C 0.75549 0.71527 0.89603 0.0
C1063 C 0.75828 0.73993 0.91852 0.0
H1064 H 0.50627 0.5201 0.63906 0.0
H1065 H 0.46009 0.43589 0.63309 0.0
H1066 H 0.45039 0.43107 0.70335 0.0
H1067 H 0.54333 0.49694 0.72688 0.0
H1068 H 0.5371 0.53508 0.74379 0.0
H1069 H 0.54101 0.53127 0.69338 0.0
H1070 H 0.48765 0.56318 0.68472 0.0
H1071 H 0.48358 0.56713 0.7351 0.0
H1072 H 0.45351 0.55068 0.71233 0.0
H1073 H 0.44729 0.43488 0.77381 0.0
H1074 H 0.44834 0.44791 0.83977 0.0
H1075 H 0.49288 0.53239 0.79922 0.0
C1076 C 0.49418 0.50066 0.65275 0.0
C1077 C 0.48422 0.47806 0.6312 0.0
C1078 C 0.46817 0.45309 0.64955 0.0
C1079 C 0.46256 0.45026 0.68924 0.0
C1080 C 0.4728 0.47289 0.70982 0.0
C1081 C 0.48805 0.49774 0.69221 0.0
C1082 C 0.49591 0.51929 0.72076 0.0
C1083 C 0.53145 0.52071 0.72122 0.0
C1084 C 0.47915 0.552 0.71275 0.0
C1085 C 0.48281 0.50259 0.75728 0.0
C1086 C 0.46979 0.4758 0.75031 0.0
C1087 C 0.457 0.45604 0.77959 0.0
C1088 C 0.45745 0.46387 0.81702 0.0
C1089 C 0.47023 0.49152 0.82498 0.0
C1090 C 0.48305 0.51105 0.79443 0.0
H1091 H 0.74469 0.18443 0.94144 0.0
H1092 H 0.84005 0.20669 0.91343 0.0
H1093 H 0.85336 0.18915 0.97966 0.0
H1094 H 0.73564 0.21634 0.02249 0.0
H1095 H 0.7117 0.18835 0.04862 0.0
H1096 H 0.71221 0.19333 0.99766 0.0
H1097 H 0.72849 0.13435 0.99498 0.0
H1098 H 0.72797 0.12916 0.0463 0.0
H1099 H 0.76262 0.1169 0.01836 0.0
H1100 H 0.85273 0.18214 0.05064 0.0
H1101 H 0.83805 0.18758 0.11852 0.0
H1102 H 0.74326 0.16891 0.1007 0.0
C1103 C 0.76863 0.18452 0.94903 0.0
C1104 C 0.79138 0.19684 0.9226 0.0
C1105 C 0.82242 0.19694 0.93329 0.0
C1106 C 0.83015 0.18696 0.97081 0.0
C1107 C 0.80668 0.17643 0.99689 0.0
C1108 C 0.7766 0.17471 0.98621 0.0
C1109 C 0.75441 0.16754 0.02032 0.0
C1110 C 0.72692 0.19291 0.02238 0.0
C1111 C 0.74269 0.13505 0.01996 0.0
C1112 C 0.77605 0.16809 0.05214 0.0
C1113 C 0.80635 0.17223 0.03817 0.0
C1114 C 0.82937 0.1779 0.06199 0.0
C1115 C 0.82086 0.18085 0.10058 0.0
C1116 C 0.78954 0.17854 0.11471 0.0
C1117 C 0.76741 0.17046 0.09057 0.0
H1118 H 0.07102 0.52465 0.17312 0.0
H1119 H 0.07495 0.42646 0.15569 0.0
H1120 H 0.08815 0.4126 0.22233 0.0
H1121 H 0.13131 0.51791 0.2482 0.0
H1122 H 0.10847 0.54679 0.27403 0.0
H1123 H 0.1082 0.54912 0.22281 0.0
H1124 H 0.0478 0.54974 0.2279 0.0
H1125 H 0.04791 0.54733 0.27884 0.0
H1126 H 0.02965 0.51858 0.25642 0.0
H1127 H 0.089 0.40921 0.29294 0.0
H1128 H 0.07788 0.41682 0.36103 0.0
H1129 H 0.07151 0.51705 0.33284 0.0
C1130 C 0.07553 0.50024 0.18304 0.0
C1131 C 0.07202 0.47668 0.15916 0.0
C1132 C 0.07806 0.44498 0.1732 0.0
C1133 C 0.08553 0.43686 0.21111 0.0
C1134 C 0.08718 0.46068 0.23448 0.0
C1135 C 0.08269 0.49179 0.22083 0.0
C1136 C 0.08093 0.51281 0.25273 0.0
C1137 C 0.1089 0.53284 0.24923 0.0
C1138 C 0.04973 0.53328 0.25404 0.0
C1139 C 0.08301 0.48863 0.28668 0.0
C1140 C 0.08744 0.45871 0.2756 0.0
C1141 C 0.08635 0.43252 0.30199 0.0
C1142 C 0.07978 0.43704 0.34054 0.0
C1143 C 0.07411 0.46752 0.35219 0.0
C1144 C 0.07672 0.4935 0.32495 0.0
H1145 H 0.77038 0.81722 0.59634 0.0
H1146 H 0.735 0.73123 0.64798 0.0
H1147 H 0.72196 0.71808 0.58466 0.0
H1148 H 0.71284 0.8342 0.52385 0.0
H1149 H 0.74067 0.84933 0.48788 0.0
H1150 H 0.74584 0.85254 0.53747 0.0
H1151 H 0.80129 0.82425 0.5307 0.0
H1152 H 0.79627 0.82086 0.48115 0.0
H1153 H 0.80616 0.78646 0.51266 0.0
H1154 H 0.71536 0.71323 0.51591 0.0
H1155 H 0.71494 0.71669 0.44606 0.0
H1156 H 0.75336 0.80685 0.43831 0.0
C1157 C 0.75963 0.79583 0.59406 0.0
C1158 C 0.7534 0.77519 0.62661 0.0
C1159 C 0.73965 0.74724 0.62308 0.0
C1160 C 0.73223 0.73965 0.58734 0.0
C1161 C 0.73878 0.76036 0.55555 0.0
C1162 C 0.75208 0.78791 0.5585 0.0
C1163 C 0.75742 0.8056 0.51967 0.0
C1164 C 0.73803 0.8373 0.51707 0.0
C1165 C 0.79236 0.80951 0.51052 0.0
C1166 C 0.74541 0.78352 0.49443 0.0
C1167 C 0.73469 0.75765 0.51577 0.0
C1168 C 0.72332 0.73356 0.4989 0.0
C1169 C 0.72296 0.7359 0.45911 0.0
C1170 C 0.73375 0.76224 0.43643 0.0
C1171 C 0.74503 0.78636 0.45461 0.0
H1172 H 0.52125 0.53269 0.17385 0.0
H1173 H 0.49341 0.43773 0.18546 0.0
H1174 H 0.496 0.43582 0.25483 0.0
H1175 H 0.57871 0.51742 0.2448 0.0
H1176 H 0.57144 0.55554 0.26161 0.0
H1177 H 0.56527 0.55033 0.21284 0.0
H1178 H 0.50833 0.57466 0.22172 0.0
H1179 H 0.51419 0.57954 0.27071 0.0
H1180 H 0.48269 0.55799 0.25924 0.0
H1181 H 0.50026 0.44433 0.32304 0.0
H1182 H 0.51222 0.46053 0.38506 0.0
H1183 H 0.54406 0.54674 0.32873 0.0
C1184 C 0.51607 0.51125 0.19066 0.0
C1185 C 0.50653 0.48558 0.17369 0.0
C1186 C 0.49974 0.45821 0.1974 0.0
C1187 C 0.50137 0.45674 0.23699 0.0
C1188 C 0.51046 0.48255 0.25258 0.0
C1189 C 0.51831 0.50905 0.23017 0.0
C1190 C 0.5291 0.53284 0.25403 0.0
C1191 C 0.56316 0.5394 0.24264 0.0
C1192 C 0.50727 0.56304 0.25125 0.0
C1193 C 0.52611 0.51549 0.29335 0.0
C1194 C 0.51475 0.48675 0.29187 0.0
C1195 C 0.50935 0.46669 0.32452 0.0
C1196 C 0.51613 0.47609 0.35958 0.0
C1197 C 0.52848 0.50508 0.36172 0.0
C1198 C 0.5337 0.52492 0.3281 0.0
H1199 H 0.22872 0.75681 0.09467 0.0
H1200 H 0.21775 0.85541 0.11011 0.0
H1201 H 0.22027 0.86796 0.03973 0.0
H1202 H 0.28533 0.76297 0.01966 0.0
H1203 H 0.27207 0.73244 0.99521 0.0
H1204 H 0.26576 0.73176 0.04611 0.0
H1205 H 0.20622 0.72953 0.04055 0.0
H1206 H 0.21238 0.72981 0.98962 0.0
H1207 H 0.18528 0.75883 0.00976 0.0
H1208 H 0.2255 0.8686 0.96664 0.0
H1209 H 0.23562 0.85736 0.899 0.0
H1210 H 0.24603 0.75839 0.93519 0.0
C1211 C 0.22588 0.78106 0.08326 0.0
C1212 C 0.22217 0.8052 0.10744 0.0
C1213 C 0.22004 0.83668 0.09169 0.0
C1214 C 0.22147 0.84393 0.05194 0.0
C1215 C 0.2255 0.81936 0.02881 0.0
C1216 C 0.22782 0.78857 0.04411 0.0
C1217 C 0.23464 0.76629 0.01392 0.0
C1218 C 0.26632 0.74727 0.01904 0.0
C1219 C 0.20804 0.74486 0.01344 0.0
C1220 C 0.23574 0.78924 0.97899 0.0
C1221 C 0.23016 0.81976 0.98778 0.0
C1222 C 0.22997 0.84479 0.95951 0.0
C1223 C 0.23571 0.83828 0.92135 0.0
C1224 C 0.24204 0.80711 0.91234 0.0
C1225 C 0.24184 0.78247 0.94153 0.0
H1226 H 0.98521 0.53766 0.83423 0.0
H1227 H 0.89001 0.51645 0.86541 0.0
H1228 H 0.8775 0.52544 0.79726 0.0
H1229 H 0.96746 0.59805 0.75343 0.0
H1230 H 1.00224 0.58507 0.72622 0.0
H1231 H 1.0017 0.58187 0.77751 0.0
H1232 H 0.01834 0.52267 0.77826 0.0
H1233 H 0.01885 0.52564 0.72718 0.0
H1234 H 0.99519 0.49832 0.75501 0.0
H1235 H 0.87857 0.52848 0.725 0.0
H1236 H 0.89234 0.52726 0.65589 0.0
H1237 H 0.98667 0.54764 0.674 0.0
C1238 C 0.96152 0.5358 0.82664 0.0
C1239 C 0.93843 0.52659 0.85448 0.0
C1240 C 0.90777 0.52384 0.84408 0.0
C1241 C 0.90056 0.52891 0.80562 0.0
C1242 C 0.92423 0.53717 0.77846 0.0
C1243 C 0.95399 0.54102 0.78872 0.0
C1244 C 0.9761 0.5472 0.75438 0.0
C1245 C 0.98753 0.58001 0.7528 0.0
C1246 C 0.00372 0.52195 0.75368 0.0
C1247 C 0.95455 0.54501 0.723 0.0
C1248 C 0.92464 0.53952 0.73722 0.0
C1249 C 0.90169 0.53352 0.71351 0.0
C1250 C 0.90973 0.53271 0.6744 0.0
C1251 C 0.94041 0.53788 0.65961 0.0
C1252 C 0.96275 0.54467 0.68426 0.0
H1253 H 0.22848 0.19555 0.41657 0.0
H1254 H 0.26715 0.28079 0.3678 0.0
H1255 H 0.28178 0.29119 0.43161 0.0
H1256 H 0.1953 0.2249 0.50223 0.0
H1257 H 0.2042 0.1894 0.53225 0.0
H1258 H 0.19825 0.18779 0.48256 0.0
H1259 H 0.25256 0.15754 0.47374 0.0
H1260 H 0.25864 0.15894 0.52347 0.0
H1261 H 0.28669 0.17384 0.48762 0.0
H1262 H 0.28954 0.29363 0.50039 0.0
H1263 H 0.29087 0.28813 0.57016 0.0
H1264 H 0.24852 0.20016 0.57514 0.0
C1265 C 0.24031 0.21616 0.41956 0.0
C1266 C 0.24696 0.23739 0.38771 0.0
C1267 C 0.2621 0.26435 0.39218 0.0
C1268 C 0.27045 0.27037 0.42817 0.0
C1269 C 0.26344 0.24913 0.45925 0.0
C1270 C 0.24882 0.22252 0.45538 0.0
C1271 C 0.24327 0.20401 0.49366 0.0
C1272 C 0.20817 0.20139 0.50323 0.0
C1273 C 0.26137 0.17166 0.49467 0.0
C1274 C 0.25669 0.22459 0.51966 0.0
C1275 C 0.26828 0.2504 0.49913 0.0
C1276 C 0.28096 0.27329 0.51677 0.0
C1277 C 0.28182 0.26979 0.5565 0.0
C1278 C 0.27022 0.24346 0.57838 0.0
C1279 C 0.25755 0.22057 0.55944 0.0
H1280 H 0.11015 0.06927 0.08365 0.0
H1281 H 0.07783 0.14193 0.9979 0.0
H1282 H 0.10524 0.18013 0.02782 0.0
H1283 H 0.10114 0.11382 0.16061 0.0
H1284 H 0.13565 0.09653 0.18328 0.0
H1285 H 0.11586 0.07438 0.15332 0.0
H1286 H 0.16704 0.06471 0.11174 0.0
H1287 H 0.18714 0.08656 0.14185 0.0
H1288 H 0.18765 0.09746 0.09123 0.0
H1289 H 0.13229 0.21107 0.07038 0.0
H1290 H 0.15904 0.23204 0.12087 0.0
H1291 H 0.1752 0.13867 0.17712 0.0
C1292 C 0.10955 0.09299 0.07039 0.0
C1293 C 0.09193 0.10256 0.03828 0.0
C1294 C 0.09099 0.1341 0.02264 0.0
C1295 C 0.10661 0.15592 0.03931 0.0
C1296 C 0.12324 0.14575 0.07139 0.0
C1297 C 0.12508 0.11496 0.08652 0.0
C1298 C 0.14323 0.11024 0.12217 0.0
C1299 C 0.12274 0.09803 0.15688 0.0
C1300 C 0.17304 0.08846 0.11638 0.0
C1301 C 0.15085 0.14333 0.12519 0.0
C1302 C 0.13915 0.16347 0.09561 0.0
C1303 C 0.14181 0.19548 0.09344 0.0
C1304 C 0.15681 0.20718 0.12229 0.0
C1305 C 0.16907 0.18688 0.15267 0.0
C1306 C 0.16628 0.15456 0.15391 0.0
H1307 H 0.07646 0.89393 0.41347 0.0
H1308 H 0.12405 0.88407 0.51882 0.0
H1309 H 0.16393 0.84628 0.49162 0.0
H1310 H 0.09193 0.81326 0.39015 0.0
H1311 H 0.09815 0.82435 0.33985 0.0
H1312 H 0.07211 0.84856 0.36873 0.0
H1313 H 0.10369 0.89595 0.34609 0.0
H1314 H 0.12988 0.87191 0.31727 0.0
H1315 H 0.1451 0.89313 0.35228 0.0
H1316 H 0.19933 0.81038 0.45216 0.0
H1317 H 0.22866 0.78109 0.40244 0.0
H1318 H 0.15951 0.81658 0.32189 0.0
C1319 C 0.09497 0.88332 0.43101 0.0
C1320 C 0.09703 0.89156 0.4684 0.0
C1321 C 0.12204 0.87791 0.49017 0.0
C1322 C 0.14471 0.85641 0.47499 0.0
C1323 C 0.14222 0.84904 0.43785 0.0
C1324 C 0.11804 0.8622 0.41608 0.0
C1325 C 0.12176 0.85184 0.37617 0.0
C1326 C 0.09435 0.8334 0.36828 0.0
C1327 C 0.12533 0.87988 0.34619 0.0
C1328 C 0.15186 0.83093 0.3788 0.0
C1329 C 0.16314 0.82934 0.41474 0.0
C1330 C 0.1907 0.81149 0.42395 0.0
C1331 C 0.20721 0.795 0.39564 0.0
C1332 C 0.19627 0.79675 0.35856 0.0
C1333 C 0.16823 0.81488 0.35014 0.0
H1334 H 0.3185 0.82266 0.63061 0.0
H1335 H 0.33962 0.83518 0.74589 0.0
H1336 H 0.37701 0.87365 0.72088 0.0
H1337 H 0.39746 0.82837 0.58874 0.0
H1338 H 0.38566 0.84938 0.54466 0.0
H1339 H 0.36002 0.82331 0.57133 0.0
H1340 H 0.31612 0.86811 0.57316 0.0
H1341 H 0.3416 0.89431 0.54639 0.0
H1342 H 0.32352 0.90394 0.59166 0.0
H1343 H 0.41304 0.91127 0.68302 0.0
H1344 H 0.44434 0.94396 0.63608 0.0
H1345 H 0.40134 0.90805 0.54406 0.0
C1346 C 0.33088 0.83369 0.65056 0.0
C1347 C 0.32579 0.82577 0.69056 0.0
C1348 C 0.34285 0.84069 0.71538 0.0
C1349 C 0.36424 0.86267 0.70131 0.0
C1350 C 0.36882 0.86987 0.66195 0.0
C1351 C 0.35261 0.8558 0.63683 0.0
C1352 C 0.36232 0.86758 0.59576 0.0
C1353 C 0.37725 0.84055 0.57383 0.0
C1354 C 0.33421 0.88449 0.57555 0.0
C1355 C 0.38643 0.89038 0.60165 0.0
C1356 C 0.38973 0.89133 0.64016 0.0
C1357 C 0.41051 0.91059 0.65286 0.0
C1358 C 0.42828 0.92921 0.6259 0.0
C1359 C 0.42563 0.92883 0.58616 0.0
C1360 C 0.4042 0.90896 0.57411 0.0
H1361 H 0.3349 0.1898 0.86233 0.0
H1362 H 0.34317 0.14903 0.75478 0.0
H1363 H 0.38072 0.10692 0.78156 0.0
H1364 H 0.41582 0.17322 0.88523 0.0
H1365 H 0.40687 0.16436 0.9355 0.0
H1366 H 0.381 0.19134 0.90774 0.0
H1367 H 0.33482 0.15812 0.92993 0.0
H1368 H 0.36052 0.13106 0.95779 0.0
H1369 H 0.33806 0.11726 0.92263 0.0
H1370 H 0.4173 0.06928 0.82024 0.0
H1371 H 0.44972 0.03835 0.8683 0.0
H1372 H 0.41733 0.10293 0.95129 0.0
C1373 C 0.34475 0.17195 0.84458 0.0
C1374 C 0.33633 0.17242 0.80656 0.0
C1375 C 0.34947 0.14885 0.78397 0.0
C1376 C 0.37076 0.12495 0.79895 0.0
C1377 C 0.37863 0.12499 0.83662 0.0
C1378 C 0.366 0.14784 0.85918 0.0
C1379 C 0.37813 0.14227 0.89887 0.0
C1380 C 0.39655 0.16942 0.90732 0.0
C1381 C 0.35128 0.13685 0.92908 0.0
C1382 C 0.39949 0.11271 0.89517 0.0
C1383 C 0.39951 0.10319 0.85896 0.0
C1384 C 0.41744 0.07652 0.84865 0.0
C1385 C 0.43575 0.05911 0.87603 0.0
C1386 C 0.43596 0.06835 0.91327 0.0
C1387 C 0.41759 0.0955 0.9229 0.0
H1388 H 0.93691 0.90386 0.92882 0.0
H1389 H 0.87055 0.91558 0.02514 0.0
H1390 H 0.83235 0.88826 0.99423 0.0
H1391 H 0.88226 0.91931 0.85839 0.0
H1392 H 0.90074 0.89137 0.82767 0.0
H1393 H 0.92376 0.9091 0.85887 0.0
H1394 H 0.94414 0.85449 0.88884 0.0
H1395 H 0.92143 0.83653 0.85744 0.0
H1396 H 0.91661 0.82716 0.90824 0.0
H1397 H 0.80106 0.86118 0.95157 0.0
H1398 H 0.77879 0.83672 0.90057 0.0
H1399 H 0.86508 0.84567 0.83086 0.0
C1400 C 0.91462 0.89996 0.94381 0.0
C1401 C 0.90673 0.91133 0.97955 0.0
C1402 C 0.87699 0.90679 0.99781 0.0
C1403 C 0.85524 0.89133 0.98051 0.0
C1404 C 0.86359 0.88087 0.94488 0.0
C1405 C 0.89258 0.88499 0.92676 0.0
C1406 C 0.8952 0.87322 0.88769 0.0
C1407 C 0.90081 0.89984 0.85632 0.0
C1408 C 0.92087 0.84624 0.88544 0.0
C1409 C 0.86307 0.86195 0.88652 0.0
C1410 C 0.84525 0.86636 0.91983 0.0
C1411 C 0.81476 0.85776 0.92529 0.0
C1412 C 0.80221 0.84417 0.89597 0.0
C1413 C 0.82007 0.83947 0.86151 0.0
C1414 C 0.85087 0.84864 0.8569 0.0
H1415 H 0.79762 0.20111 0.63774 0.0
H1416 H 0.85757 0.20694 0.73008 0.0
H1417 H 0.90049 0.17725 0.6962 0.0
H1418 H 0.8238 0.12147 0.62483 0.0
H1419 H 0.82108 0.12587 0.57386 0.0
H1420 H 0.79594 0.15044 0.60323 0.0
H1421 H 0.81557 0.19951 0.5641 0.0
H1422 H 0.84086 0.17512 0.53461 0.0
H1423 H 0.85687 0.2042 0.55896 0.0
H1424 H 0.93681 0.14729 0.65299 0.0
H1425 H 0.96289 0.11318 0.60652 0.0
H1426 H 0.87856 0.12143 0.54434 0.0
C1427 C 0.81998 0.19644 0.65039 0.0
C1428 C 0.82474 0.20731 0.68583 0.0
C1429 C 0.85387 0.19981 0.70232 0.0
C1430 C 0.87831 0.18285 0.68338 0.0
C1431 C 0.87305 0.17274 0.64835 0.0
C1432 C 0.84449 0.17873 0.63224 0.0
C1433 C 0.8444 0.16274 0.59588 0.0
C1434 C 0.81985 0.1387 0.59969 0.0
C1435 C 0.83911 0.18683 0.56134 0.0
C1436 C 0.87737 0.14694 0.59412 0.0
C1437 C 0.89355 0.15353 0.62442 0.0
C1438 C 0.92441 0.14195 0.62913 0.0
C1439 C 0.93909 0.12275 0.60246 0.0
C1440 C 0.92284 0.11487 0.57172 0.0
C1441 C 0.89154 0.12718 0.56752 0.0
H1442 H 0.64391 0.194 0.34425 0.0
H1443 H 0.72374 0.12811 0.3228 0.0
H1444 H 0.69694 0.08674 0.36147 0.0
H1445 H 0.61396 0.16282 0.4349 0.0
H1446 H 0.5735 0.16604 0.42374 0.0
H1447 H 0.5999 0.1923 0.39885 0.0
H1448 H 0.58579 0.17599 0.33416 0.0
H1449 H 0.55887 0.15016 0.35881 0.0
H1450 H 0.58928 0.13524 0.32627 0.0
H1451 H 0.66345 0.05436 0.41198 0.0
H1452 H 0.62122 0.02818 0.44917 0.0
H1453 H 0.55577 0.10715 0.41662 0.0
C1454 C 0.65572 0.1708 0.34668 0.0
C1455 C 0.68712 0.16531 0.33113 0.0
C1456 C 0.70076 0.13404 0.33572 0.0
C1457 C 0.68548 0.11006 0.35756 0.0
C1458 C 0.65516 0.11653 0.37296 0.0
C1459 C 0.63972 0.14571 0.36588 0.0
C1460 C 0.60552 0.14496 0.38098 0.0
C1461 C 0.59777 0.16791 0.41142 0.0
C1462 C 0.58356 0.152 0.3481 0.0
C1463 C 0.60452 0.11112 0.39858 0.0
C1464 C 0.63388 0.09569 0.39499 0.0
C1465 C 0.64004 0.06577 0.41317 0.0
C1466 C 0.61559 0.05086 0.43415 0.0
C1467 C 0.58421 0.06439 0.43512 0.0
C1468 C 0.57903 0.09543 0.41692 0.0
H1469 H 0.67273 0.81242 0.15107 0.0
H1470 H 0.66116 0.85546 0.25709 0.0
H1471 H 0.6241 0.89684 0.22779 0.0
H1472 H 0.67068 0.88376 0.08878 0.0
H1473 H 0.64936 0.86907 0.05319 0.0
H1474 H 0.67438 0.84266 0.08273 0.0
H1475 H 0.62795 0.80956 0.10408 0.0
H1476 H 0.60276 0.83587 0.07461 0.0
H1477 H 0.59249 0.828 0.12472 0.0
H1478 H 0.58859 0.93363 0.18668 0.0
H1479 H 0.55747 0.96349 0.13654 0.0
H1480 H 0.59237 0.89708 0.05674 0.0
C1481 C 0.66224 0.83059 0.16796 0.0
C1482 C 0.66961 0.83099 0.20625 0.0
C1483 C 0.65567 0.85498 0.2277 0.0
C1484 C 0.63465 0.87847 0.21129 0.0
C1485 C 0.62786 0.87758 0.17337 0.0
C1486 C 0.64124 0.85428 0.15193 0.0
C1487 C 0.63023 0.85896 0.11168 0.0
C1488 C 0.65781 0.86391 0.08237 0.0
C1489 C 0.61229 0.83146 0.10329 0.0
C1490 C 0.60864 0.88855 0.11375 0.0
C1491 C 0.60754 0.89885 0.14965 0.0
C1492 C 0.58926 0.92575 0.15851 0.0
C1493 C 0.5717 0.94255 0.12997 0.0
C1494 C 0.57255 0.93246 0.09304 0.0
C1495 C 0.59128 0.90513 0.08488 0.0
H1496 H 0.60432 0.61175 0.55898 0.0
H1497 H 0.62508 0.51947 0.61703 0.0
H1498 H 0.65911 0.54147 0.65885 0.0
H1499 H 0.68041 0.6397 0.5634 0.0
H1500 H 0.66514 0.67864 0.57233 0.0
H1501 H 0.64348 0.65553 0.54549 0.0
H1502 H 0.59531 0.66303 0.59271 0.0
H1503 H 0.61679 0.6862 0.61966 0.0
H1504 H 0.59933 0.65238 0.6429 0.0
H1505 H 0.69054 0.57327 0.69479 0.0
H1506 H 0.71583 0.61343 0.72397 0.0
H1507 H 0.67286 0.68523 0.64469 0.0
C1508 C 0.61591 0.59614 0.58054 0.0
C1509 C 0.61222 0.56377 0.58434 0.0
C1510 C 0.62805 0.54421 0.61286 0.0
C1511 C 0.64728 0.5565 0.63698 0.0
C1512 C 0.65036 0.58845 0.63245 0.0
C1513 C 0.63505 0.60805 0.60507 0.0
C1514 C 0.64167 0.64167 0.60693 0.0
C1515 C 0.65869 0.65464 0.56983 0.0
C1516 C 0.61148 0.66201 0.61611 0.0
C1517 C 0.66292 0.63787 0.63982 0.0
C1518 C 0.66784 0.60695 0.6539 0.0
C1519 C 0.68687 0.59757 0.68404 0.0
C1520 C 0.70119 0.62047 0.70032 0.0
C1521 C 0.69614 0.65231 0.68662 0.0
C1522 C 0.67678 0.66105 0.65596 0.0
H1523 H 0.55687 0.43506 0.89584 0.0
H1524 H 0.56329 0.38176 1.00598 0.0
H1525 H 0.59898 0.34136 0.9768 0.0
H1526 H 0.5586 0.36899 0.83921 0.0
H1527 H 0.58214 0.3868 0.80032 0.0
H1528 H 0.55632 0.41086 0.82963 0.0
H1529 H 0.60281 0.44092 0.84429 0.0
H1530 H 0.62878 0.41698 0.81505 0.0
H1531 H 0.6369 0.41962 0.86394 0.0
H1532 H 0.63547 0.30819 0.93634 0.0
H1533 H 0.67032 0.28389 0.88716 0.0
H1534 H 0.64004 0.35807 0.80251 0.0
C1535 C 0.56567 0.41467 0.91356 0.0
C1536 C 0.55726 0.4111 0.95299 0.0
C1537 C 0.56934 0.38451 0.97565 0.0
C1538 C 0.58959 0.36159 0.95932 0.0
C1539 C 0.5975 0.36571 0.92032 0.0
C1540 C 0.58593 0.39156 0.89767 0.0
C1541 C 0.59879 0.39069 0.85671 0.0
C1542 C 0.57238 0.38924 0.82989 0.0
C1543 C 0.61796 0.41872 0.84428 0.0
C1544 C 0.61951 0.36037 0.85985 0.0
C1545 C 0.61839 0.34638 0.89684 0.0
C1546 C 0.63627 0.31874 0.90723 0.0
C1547 C 0.65589 0.30506 0.87916 0.0
C1548 C 0.65734 0.31887 0.84109 0.0
C1549 C 0.63888 0.34686 0.83132 0.0
H1550 H 0.84445 0.34601 0.21896 0.0
H1551 H 0.80614 0.30559 0.12686 0.0
H1552 H 0.83848 0.33731 0.08004 0.0
H1553 H 0.8488 0.4242 0.17065 0.0
H1554 H 0.88518 0.43058 0.18983 0.0
H1555 H 0.85905 0.40487 0.21627 0.0
H1556 H 0.90336 0.36033 0.21929 0.0
H1557 H 0.92964 0.38593 0.19295 0.0
H1558 H 0.92354 0.34922 0.17575 0.0
H1559 H 0.8757 0.3739 0.04229 0.0
H1560 H 0.91402 0.4115 0.0175 0.0
H1561 H 0.9297 0.42899 0.13294 0.0
C1562 C 0.84295 0.34378 0.18892 0.0
C1563 C 0.82249 0.32298 0.17682 0.0
C1564 C 0.82134 0.32117 0.13709 0.0
C1565 C 0.83977 0.33918 0.11019 0.0
C1566 C 0.85964 0.35932 0.12296 0.0
C1567 C 0.86137 0.36174 0.16146 0.0
C1568 C 0.88478 0.38522 0.16745 0.0
C1569 C 0.86848 0.41285 0.18723 0.0
C1570 C 0.91194 0.36922 0.19022 0.0
C1571 C 0.89595 0.3956 0.12646 0.0
C1572 C 0.88106 0.38031 0.10127 0.0
C1573 C 0.8874 0.38588 0.06194 0.0
C1574 C 0.90933 0.40736 0.048 0.0
C1575 C 0.92515 0.42344 0.07293 0.0
C1576 C 0.91811 0.4173 0.11289 0.0
H1577 H 0.91214 0.59914 0.4538 0.0
H1578 H 0.94428 0.53383 0.37155 0.0
H1579 H 0.90878 0.56214 0.32492 0.0
H1580 H 0.8316 0.60948 0.42996 0.0
H1581 H 0.8272 0.65057 0.436 0.0
H1582 H 0.85491 0.62507 0.46286 0.0
H1583 H 0.89918 0.65961 0.43672 0.0
H1584 H 0.87157 0.68527 0.40989 0.0
H1585 H 0.90602 0.66776 0.38596 0.0
H1586 H 0.86924 0.59738 0.28752 0.0
H1587 H 0.82983 0.63799 0.26146 0.0
H1588 H 0.82424 0.6813 0.36721 0.0
C1589 C 0.91165 0.59096 0.42589 0.0
C1590 C 0.93081 0.56432 0.41611 0.0
C1591 C 0.92967 0.55416 0.37945 0.0
C1592 C 0.90961 0.57008 0.35287 0.0
C1593 C 0.89093 0.59626 0.36334 0.0
C1594 C 0.89189 0.60675 0.39891 0.0
C1595 C 0.86972 0.63574 0.40278 0.0
C1596 C 0.84436 0.62985 0.4348 0.0
C1597 C 0.8877 0.66375 0.40921 0.0
C1598 C 0.85604 0.63986 0.36395 0.0
C1599 C 0.86853 0.61677 0.34165 0.0
C1600 C 0.85937 0.61557 0.30471 0.0
C1601 C 0.83702 0.63861 0.29015 0.0
C1602 C 0.82417 0.6625 0.31242 0.0
C1603 C 0.83379 0.66313 0.34975 0.0
H1604 H 0.34646 0.31895 0.36281 0.0
H1605 H 0.31165 0.38925 0.276 0.0
H1606 H 0.34438 0.4272 0.29807 0.0
H1607 H 0.34745 0.37063 0.43579 0.0
H1608 H 0.38256 0.35165 0.45551 0.0
H1609 H 0.35741 0.32963 0.4319 0.0
H1610 H 0.40399 0.31236 0.38633 0.0
H1611 H 0.42928 0.3344 0.40976 0.0
H1612 H 0.42581 0.34153 0.35902 0.0
H1613 H 0.38077 0.45718 0.32892 0.0
H1614 H 0.41667 0.47863 0.36894 0.0
H1615 H 0.42629 0.38969 0.438 0.0
C1616 C 0.34601 0.34227 0.34833 0.0
C1617 C 0.32669 0.35127 0.31767 0.0
C1618 C 0.32622 0.38207 0.29969 0.0
C1619 C 0.34481 0.40367 0.31188 0.0
C1620 C 0.36355 0.39414 0.34224 0.0
C1621 C 0.36418 0.36427 0.36042 0.0
C1622 C 0.38552 0.36046 0.39328 0.0
C1623 C 0.36713 0.35264 0.43137 0.0
C1624 C 0.41276 0.33572 0.38668 0.0
C1625 C 0.39675 0.39288 0.39069 0.0
C1626 C 0.38394 0.41181 0.36085 0.0
C1627 C 0.39078 0.44269 0.35257 0.0
C1628 C 0.41102 0.45471 0.37568 0.0
C1629 C 0.42399 0.43601 0.40698 0.0
C1630 C 0.4169 0.40456 0.41424 0.0
H1631 H 0.41879 0.56353 0.10163 0.0
H1632 H 0.40539 0.61442 0.99118 0.0
H1633 H 0.3709 0.65503 0.02178 0.0
H1634 H 0.34041 0.57849 0.14037 0.0
H1635 H 0.35173 0.58235 0.18775 0.0
H1636 H 0.37591 0.55798 0.15719 0.0
H1637 H 0.42333 0.58902 0.16563 0.0
H1638 H 0.39933 0.61345 0.1963 0.0
H1639 H 0.4202 0.63078 0.15474 0.0
H1640 H 0.33731 0.68962 0.06468 0.0
H1641 H 0.30731 0.71565 0.11676 0.0
H1642 H 0.34227 0.64194 0.1991 0.0
C1643 C 0.40867 0.5834 0.08408 0.0
C1644 C 0.4148 0.58625 0.04422 0.0
C1645 C 0.40107 0.61221 0.02185 0.0
C1646 C 0.38147 0.63524 0.03897 0.0
C1647 C 0.37582 0.63181 0.07845 0.0
C1648 C 0.38904 0.60654 0.10073 0.0
C1649 C 0.3789 0.60813 0.14245 0.0
C1650 C 0.36065 0.58007 0.15783 0.0
C1651 C 0.40712 0.61049 0.16617 0.0
C1652 C 0.35786 0.6382 0.14021 0.0
C1653 C 0.3564 0.65154 0.10304 0.0
C1654 C 0.33833 0.67939 0.09386 0.0
C1655 C 0.32141 0.69399 0.12345 0.0
C1656 C 0.32266 0.68064 0.16156 0.0
C1657 C 0.34106 0.65245 0.17004 0.0
H1658 H 0.15591 0.65721 0.79867 0.0
H1659 H 0.19724 0.69376 0.89147 0.0
H1660 H 0.16482 0.66184 0.93794 0.0
H1661 H 0.07707 0.6541 0.8442 0.0
H1662 H 0.07003 0.61819 0.82565 0.0
H1663 H 0.09613 0.64412 0.79956 0.0
H1664 H 0.13992 0.59912 0.79941 0.0
H1665 H 0.11398 0.57311 0.82564 0.0
H1666 H 0.15101 0.57839 0.84397 0.0
H1667 H 0.12781 0.62499 0.97529 0.0
H1668 H 0.08949 0.58731 0.99979 0.0
H1669 H 0.07079 0.57346 0.88407 0.0
C1670 C 0.15796 0.65861 0.8288 0.0
C1671 C 0.17936 0.67832 0.84122 0.0
C1672 C 0.18125 0.67908 0.88103 0.0
C1673 C 0.16282 0.66091 0.90773 0.0
C1674 C 0.14219 0.64167 0.89468 0.0
C1675 C 0.13957 0.64042 0.85609 0.0
C1676 C 0.1156 0.61754 0.84986 0.0
C1677 C 0.08808 0.6345 0.82855 0.0
C1678 C 0.13105 0.59043 0.82844 0.0
C1679 C 0.10521 0.60613 0.89081 0.0
C1680 C 0.12091 0.62044 0.91618 0.0
C1681 C 0.11544 0.61379 0.95551 0.0
C1682 C 0.09353 0.59226 0.96929 0.0
C1683 C 0.07686 0.57718 0.94421 0.0
C1684 C 0.08305 0.58437 0.90423 0.0
H1685 H 0.10073 0.40882 0.55575 0.0
H1686 H 0.06096 0.46894 0.64051 0.0
H1687 H 0.09505 0.4401 0.68838 0.0
H1688 H 0.10708 0.33782 0.61885 0.0
H1689 H 0.14351 0.32298 0.59658 0.0
H1690 H 0.11641 0.3487 0.56906 0.0
H1691 H 0.15968 0.38617 0.54969 0.0
H1692 H 0.18688 0.36059 0.57722 0.0
H1693 H 0.17986 0.40099 0.58622 0.0
H1694 H 0.13343 0.40441 0.72705 0.0
H1695 H 0.17269 0.36397 0.75383 0.0
H1696 H 0.18725 0.32655 0.64435 0.0
C1697 C 0.09933 0.4158 0.58444 0.0
C1698 C 0.07835 0.44106 0.59465 0.0
C1699 C 0.07699 0.44967 0.63232 0.0
C1700 C 0.09623 0.43343 0.65959 0.0
C1701 C 0.1167 0.40858 0.64872 0.0
C1702 C 0.11834 0.39975 0.61206 0.0
C1703 C 0.14209 0.37198 0.60789 0.0
C1704 C 0.12632 0.3437 0.59749 0.0
C1705 C 0.16871 0.38045 0.57851 0.0
C1706 C 0.15354 0.36653 0.6479 0.0
C1707 C 0.13865 0.38797 0.671 0.0
C1708 C 0.14524 0.38757 0.70919 0.0
C1709 C 0.16752 0.36464 0.72417 0.0
C1710 C 0.18286 0.34246 0.70104 0.0
C1711 C 0.17582 0.34345 0.66245 0.0
loop_
_geom_bond_atom_site_label_1
_geom_bond_atom_site_label_2
_geom_bond_distance
_geom_bond_site_symmetry_2
_ccdc_geom_bond_type
C0 C1 1.443 . S
C0 N4 1.376 . S
C0 C38 1.389 1_545 S
C1 C0 1.443 . S
C1 C2 1.340 . S
C1 H41 0.951 . S
C2 C1 1.340 . S
C2 C3 1.439 . S
C2 H42 0.950 . S
C3 C2 1.439 . S
C3 N4 1.374 . S
C3 C37 1.395 1_554 S
N4 C0 1.376 . S
N4 C3 1.374 . S
N4 Co5 2.008 1_655 S
Co5 N4 2.008 1_455 S
Co5 N6 1.995 1_454 S
Co5 N11 2.008 1_544 S
Co5 N16 1.995 1_545 S
Co5 N21 2.282 1_444 S
Co5 N27 2.282 . S
N6 Co5 1.995 1_656 S
N6 C7 1.376 . S
N6 C10 1.383 . S
C7 N6 1.376 . S
C7 C8 1.446 . S
C7 C37 1.391 . S
C8 C7 1.446 . S
C8 C9 1.339 . S
C8 H43 0.949 . S
C9 C8 1.339 . S
C9 C10 1.439 . S
C9 H44 0.950 . S
C10 N6 1.383 . S
C10 C9 1.439 . S
C10 C39 1.392 1_655 S
N11 Co5 2.008 1_566 S
N11 C12 1.376 . S
N11 C15 1.374 . S
C12 N11 1.376 . S
C12 C13 1.443 . S
C12 C39 1.389 1_565 S
C13 C12 1.443 . S
C13 C14 1.340 . S
C13 H45 0.951 . S
C14 C13 1.340 . S
C14 C15 1.439 . S
C14 H46 0.950 . S
C15 N11 1.374 . S
C15 C14 1.439 . S
C15 C40 1.395 1_556 S
N16 Co5 1.995 1_565 S
N16 C17 1.376 . S
N16 C20 1.383 . S
C17 N16 1.376 . S
C17 C18 1.446 . S
C17 C40 1.391 . S
C18 C17 1.446 . S
C18 C19 1.339 . S
C18 H47 0.949 . S
C19 C18 1.339 . S
C19 C20 1.439 . S
C19 H48 0.950 . S
C20 N16 1.383 . S
C20 C19 1.439 . S
C20 C38 1.392 1_455 S
N21 Co5 2.282 1_666 S
N21 C24 1.332 . S
N21 C26 1.332 . S
C22 C23 1.386 . S
C22 C25 1.388 . S
C23 C22 1.386 . S
C23 C24 1.382 . S
C23 H49 0.950 . S
C24 N21 1.332 . S
C24 C23 1.382 . S
C24 H35 0.952 . S
C25 C22 1.388 . S
C25 C26 1.382 . S
C25 H50 0.950 . S
C26 N21 1.332 . S
C26 C25 1.382 . S
C26 H36 0.912 1_565 S
N27 Co5 2.282 . S
N27 C31 1.332 . S
N27 C32 1.332 . S
C28 C29 1.388 . S
C28 C32 1.382 . S
C28 H51 0.950 . S
C29 C28 1.388 . S
C29 C30 1.386 . S
C30 C29 1.386 . S
C30 C31 1.382 . S
C30 H52 0.950 . S
C31 N27 1.332 . S
C31 C30 1.382 . S
C31 H33 0.952 . S
C32 N27 1.332 . S
C32 C28 1.382 . S
C32 H34 0.921 1_545 S
H33 C31 0.952 . S
H34 C32 0.921 1_565 S
H35 C24 0.952 . S
H36 C26 0.912 1_545 S
C37 C3 1.395 1_556 S
C37 C7 1.391 . S
C38 C0 1.389 1_565 S
C38 C20 1.392 1_655 S
C39 C10 1.392 1_455 S
C39 C12 1.389 1_545 S
C40 C15 1.395 1_554 S
C40 C17 1.391 . S
H41 C1 0.951 . S
H42 C2 0.950 . S
H43 C8 0.949 . S
H44 C9 0.950 . S
H45 C13 0.951 . S
H46 C14 0.950 . S
H47 C18 0.949 . S
H48 C19 0.950 . S
H49 C23 0.950 . S
H50 C25 0.950 . S
H51 C28 0.950 . S
H52 C30 0.950 . S
C53 C54 1.443 . S
C53 N57 1.376 . S
C53 C91 1.389 . S
C54 C53 1.443 . S
C54 C55 1.340 . S
C54 H94 0.951 . S
C55 C54 1.340 . S
C55 C56 1.439 . S
C55 H95 0.950 . S
C56 C55 1.439 . S
C56 N57 1.374 . S
C56 C90 1.395 . S
N57 C53 1.376 . S
N57 C56 1.374 . S
N57 Co58 2.008 . S
Co58 N57 2.008 . S
Co58 N59 1.995 . S
Co58 N64 2.008 . S
Co58 N69 1.995 . S
Co58 N74 2.282 . S
Co58 N80 2.282 . S
N59 Co58 1.995 . S
N59 C60 1.376 . S
N59 C63 1.383 . S
C60 N59 1.376 . S
C60 C61 1.446 . S
C60 C90 1.391 . S
C61 C60 1.446 . S
C61 C62 1.339 . S
C61 H96 0.949 . S
C62 C61 1.339 . S
C62 C63 1.439 . S
C62 H97 0.950 . S
C63 N59 1.383 . S
C63 C62 1.439 . S
C63 C92 1.392 . S
N64 Co58 2.008 . S
N64 C65 1.376 . S
N64 C68 1.374 . S
C65 N64 1.376 . S
C65 C66 1.443 . S
C65 C92 1.389 . S
C66 C65 1.443 . S
C66 C67 1.340 . S
C66 H98 0.951 . S
C67 C66 1.340 . S
C67 C68 1.439 . S
C67 H99 0.950 . S
C68 N64 1.374 . S
C68 C67 1.439 . S
C68 C93 1.395 . S
N69 Co58 1.995 . S
N69 C70 1.376 . S
N69 C73 1.383 . S
C70 N69 1.376 . S
C70 C71 1.446 . S
C70 C93 1.391 . S
C71 C70 1.446 . S
C71 C72 1.339 . S
C71 H100 0.949 . S
C72 C71 1.339 . S
C72 C73 1.439 . S
C72 H101 0.950 . S
C73 N69 1.383 . S
C73 C72 1.439 . S
C73 C91 1.392 . S
N74 Co58 2.282 . S
N74 C77 1.332 . S
N74 C79 1.332 . S
C75 C76 1.386 . S
C75 C78 1.388 . S
C76 C75 1.386 . S
C76 C77 1.382 . S
C76 H102 0.950 . S
C77 N74 1.332 . S
C77 C76 1.382 . S
C77 H88 0.952 . S
C78 C75 1.388 . S
C78 C79 1.382 . S
C78 H103 0.950 . S
C79 N74 1.332 . S
C79 C78 1.382 . S
C79 H89 0.948 . S
N80 Co58 2.282 . S
N80 C84 1.332 . S
N80 C85 1.332 . S
C81 C82 1.388 . S
C81 C85 1.382 . S
C81 H104 0.950 . S
C82 C81 1.388 . S
C82 C83 1.386 . S
C83 C82 1.386 . S
C83 C84 1.382 . S
C83 H105 0.950 . S
C84 N80 1.332 . S
C84 C83 1.382 . S
C84 H86 0.952 . S
C85 N80 1.332 . S
C85 C81 1.382 . S
C85 H87 0.948 . S
H86 C84 0.952 . S
H87 C85 0.948 . S
H88 C77 0.952 . S
H89 C79 0.948 . S
C90 C56 1.395 . S
C90 C60 1.391 . S
C91 C53 1.389 . S
C91 C73 1.392 . S
C92 C63 1.392 . S
C92 C65 1.389 . S
C93 C68 1.395 . S
C93 C70 1.391 . S
H94 C54 0.951 . S
H95 C55 0.950 . S
H96 C61 0.949 . S
H97 C62 0.950 . S
H98 C66 0.951 . S
H99 C67 0.950 . S
H100 C71 0.949 . S
H101 C72 0.950 . S
H102 C76 0.950 . S
H103 C78 0.950 . S
H104 C81 0.950 . S
H105 C83 0.950 . S
C106 C107 1.443 . S
C106 N110 1.376 1_565 S
C106 C144 1.389 . S
C107 C106 1.443 . S
C107 C108 1.340 1_565 S
C107 H147 0.951 . S
C108 C107 1.340 1_545 S
C108 C109 1.439 . S
C108 H148 0.950 . S
C109 C108 1.439 . S
C109 N110 1.374 . S
C109 C143 1.395 . S
N110 C106 1.376 1_545 S
N110 C109 1.374 . S
N110 Co111 2.008 . S
Co111 N110 2.008 . S
Co111 N112 1.995 . S
Co111 N117 2.008 1_545 S
Co111 N122 1.995 1_545 S
Co111 N127 2.282 1_545 S
Co111 N133 2.282 . S
N112 Co111 1.995 . S
N112 C113 1.376 . S
N112 C116 1.383 . S
C113 N112 1.376 . S
C113 C114 1.446 . S
C113 C143 1.391 . S
C114 C113 1.446 . S
C114 C115 1.339 . S
C114 H149 0.949 . S
C115 C114 1.339 . S
C115 C116 1.439 . S
C115 H150 0.950 . S
C116 N112 1.383 . S
C116 C115 1.439 . S
C116 C145 1.392 . S
N117 Co111 2.008 1_565 S
N117 C118 1.376 1_565 S
N117 C121 1.374 . S
C118 N117 1.376 1_545 S
C118 C119 1.443 . S
C118 C145 1.389 . S
C119 C118 1.443 . S
C119 C120 1.340 1_545 S
C119 H151 0.951 . S
C120 C119 1.340 1_565 S
C120 C121 1.439 . S
C120 H152 0.950 . S
C121 N117 1.374 . S
C121 C120 1.439 . S
C121 C146 1.395 . S
N122 Co111 1.995 1_565 S
N122 C123 1.376 . S
N122 C126 1.383 . S
C123 N122 1.376 . S
C123 C124 1.446 . S
C123 C146 1.391 . S
C124 C123 1.446 . S
C124 C125 1.339 . S
C124 H153 0.949 . S
C125 C124 1.339 . S
C125 C126 1.439 . S
C125 H154 0.950 . S
C126 N122 1.383 . S
C126 C125 1.439 . S
C126 C144 1.392 . S
N127 Co111 2.282 1_565 S
N127 C130 1.332 . S
N127 C132 1.332 1_565 S
C128 C129 1.386 . S
C128 C131 1.388 1_565 S
C129 C128 1.386 . S
C129 C130 1.382 . S
C129 H155 0.950 . S
C130 N127 1.332 . S
C130 C129 1.382 . S
C130 H141 0.952 . S
C131 C128 1.388 1_545 S
C131 C132 1.382 . S
C131 H156 0.950 . S
C132 N127 1.332 1_545 S
C132 C131 1.382 . S
C132 H142 0.948 . S
N133 Co111 2.282 . S
N133 C137 1.332 . S
N133 C138 1.332 1_545 S
C134 C135 1.388 1_565 S
C134 C138 1.382 . S
C134 H157 0.950 . S
C135 C134 1.388 1_545 S
C135 C136 1.386 . S
C136 C135 1.386 . S
C136 C137 1.382 . S
C136 H158 0.950 . S
C137 N133 1.332 . S
C137 C136 1.382 . S
C137 H139 0.952 . S
C138 N133 1.332 1_565 S
C138 C134 1.382 . S
C138 H140 0.948 . S
H139 C137 0.952 . S
H140 C138 0.948 . S
H141 C130 0.952 . S
H142 C132 0.948 . S
C143 C109 1.395 . S
C143 C113 1.391 . S
C144 C106 1.389 . S
C144 C126 1.392 . S
C145 C116 1.392 . S
C145 C118 1.389 . S
C146 C121 1.395 . S
C146 C123 1.391 . S
H147 C107 0.951 . S
H148 C108 0.950 . S
H149 C114 0.949 . S
H150 C115 0.950 . S
H151 C119 0.951 . S
H152 C120 0.950 . S
H153 C124 0.949 . S
H154 C125 0.950 . S
H155 C129 0.950 . S
H156 C131 0.950 . S
H157 C134 0.950 . S
H158 C136 0.950 . S
C159 C160 1.443 . S
C159 N163 1.376 . S
C159 C197 1.389 . S
C160 C159 1.443 . S
C160 C161 1.340 . S
C160 H200 0.951 . S
C161 C160 1.340 . S
C161 C162 1.439 . S
C161 H201 0.950 . S
C162 C161 1.439 . S
C162 N163 1.374 . S
C162 C196 1.395 . S
N163 C159 1.376 . S
N163 C162 1.374 . S
N163 Co164 2.008 . S
Co164 N163 2.008 . S
Co164 N165 1.995 . S
Co164 N170 2.008 . S
Co164 N175 1.995 . S
Co164 N180 2.282 . S
Co164 N186 2.282 . S
N165 Co164 1.995 . S
N165 C166 1.376 . S
N165 C169 1.383 . S
C166 N165 1.376 . S
C166 C167 1.446 . S
C166 C196 1.391 . S
C167 C166 1.446 . S
C167 C168 1.339 . S
C167 H202 0.949 . S
C168 C167 1.339 . S
C168 C169 1.439 . S
C168 H203 0.950 . S
C169 N165 1.383 . S
C169 C168 1.439 . S
C169 C198 1.392 . S
N170 Co164 2.008 . S
N170 C171 1.376 . S
N170 C174 1.374 . S
C171 N170 1.376 . S
C171 C172 1.443 . S
C171 C198 1.389 . S
C172 C171 1.443 . S
C172 C173 1.340 . S
C172 H204 0.951 . S
C173 C172 1.340 . S
C173 C174 1.439 . S
C173 H205 0.950 . S
C174 N170 1.374 . S
C174 C173 1.439 . S
C174 C199 1.395 . S
N175 Co164 1.995 . S
N175 C176 1.376 . S
N175 C179 1.383 . S
C176 N175 1.376 . S
C176 C177 1.446 . S
C176 C199 1.391 . S
C177 C176 1.446 . S
C177 C178 1.339 . S
C177 H206 0.949 . S
C178 C177 1.339 . S
C178 C179 1.439 . S
C178 H207 0.950 . S
C179 N175 1.383 . S
C179 C178 1.439 . S
C179 C197 1.392 . S
N180 Co164 2.282 . S
N180 C183 1.332 . S
N180 C185 1.332 . S
C181 C182 1.386 . S
C181 C184 1.388 . S
C182 C181 1.386 . S
C182 C183 1.382 . S
C182 H208 0.950 . S
C183 N180 1.332 . S
C183 C182 1.382 . S
C183 H194 0.952 . S
C184 C181 1.388 . S
C184 C185 1.382 . S
C184 H209 0.950 . S
C185 N180 1.332 . S
C185 C184 1.382 . S
C185 H195 0.948 . S
N186 Co164 2.282 . S
N186 C190 1.332 . S
N186 C191 1.332 . S
C187 C188 1.388 . S
C187 C191 1.382 . S
C187 H210 0.950 . S
C188 C187 1.388 . S
C188 C189 1.386 . S
C189 C188 1.386 . S
C189 C190 1.382 . S
C189 H211 0.950 . S
C190 N186 1.332 . S
C190 C189 1.382 . S
C190 H192 0.952 . S
C191 N186 1.332 . S
C191 C187 1.382 . S
C191 H193 0.948 . S
H192 C190 0.952 . S
H193 C191 0.948 . S
H194 C183 0.952 . S
H195 C185 0.948 . S
C196 C162 1.395 . S
C196 C166 1.391 . S
C197 C159 1.389 . S
C197 C179 1.392 . S
C198 C169 1.392 . S
C198 C171 1.389 . S
C199 C174 1.395 . S
C199 C176 1.391 . S
H200 C160 0.951 . S
H201 C161 0.950 . S
H202 C167 0.949 . S
H203 C168 0.950 . S
H204 C172 0.951 . S
H205 C173 0.950 . S
H206 C177 0.949 . S
H207 C178 0.950 . S
H208 C182 0.950 . S
H209 C184 0.950 . S
H210 C187 0.950 . S
H211 C189 0.950 . S
C212 C213 1.443 . S
C212 N216 1.376 . S
C212 C250 1.389 1_655 S
C213 C212 1.443 . S
C213 C214 1.340 . S
C213 H253 0.951 . S
C214 C213 1.340 . S
C214 C215 1.439 . S
C214 H254 0.950 . S
C215 C214 1.439 . S
C215 N216 1.374 . S
C215 C249 1.395 . S
N216 C212 1.376 . S
N216 C215 1.374 . S
N216 Co217 2.008 1_665 S
Co217 N216 2.008 1_445 S
Co217 N218 1.995 1_445 S
Co217 N223 2.008 . S
Co217 N228 1.995 . S
Co217 N233 2.282 1_545 S
Co217 N239 2.282 1_455 S
N218 Co217 1.995 1_665 S
N218 C219 1.376 . S
N218 C222 1.383 . S
C219 N218 1.376 . S
C219 C220 1.446 . S
C219 C249 1.391 . S
C220 C219 1.446 . S
C220 C221 1.339 . S
C220 H255 0.949 . S
C221 C220 1.339 . S
C221 C222 1.439 . S
C221 H256 0.950 . S
C222 N218 1.383 . S
C222 C221 1.439 . S
C222 C251 1.392 1_565 S
N223 Co217 2.008 . S
N223 C224 1.376 . S
N223 C227 1.374 . S
C224 N223 1.376 . S
C224 C225 1.443 . S
C224 C251 1.389 1_455 S
C225 C224 1.443 . S
C225 C226 1.340 . S
C225 H257 0.951 . S
C226 C225 1.340 . S
C226 C227 1.439 . S
C226 H258 0.950 . S
C227 N223 1.374 . S
C227 C226 1.439 . S
C227 C252 1.395 . S
N228 Co217 1.995 . S
N228 C229 1.376 . S
N228 C232 1.383 . S
C229 N228 1.376 . S
C229 C230 1.446 . S
C229 C252 1.391 . S
C230 C229 1.446 . S
C230 C231 1.339 . S
C230 H259 0.949 . S
C231 C230 1.339 . S
C231 C232 1.439 . S
C231 H260 0.950 . S
C232 N228 1.383 . S
C232 C231 1.439 . S
C232 C250 1.392 1_545 S
N233 Co217 2.282 1_565 S
N233 C236 1.332 . S
N233 C238 1.332 . S
C234 C235 1.386 . S
C234 C237 1.388 . S
C235 C234 1.386 . S
C235 C236 1.382 . S
C235 H261 0.950 . S
C236 N233 1.332 . S
C236 C235 1.382 . S
C236 H247 0.952 . S
C237 C234 1.388 . S
C237 C238 1.382 . S
C237 H262 0.950 . S
C238 N233 1.332 . S
C238 C237 1.382 . S
C238 H248 0.948 . S
N239 Co217 2.282 1_655 S
N239 C243 1.332 . S
N239 C244 1.332 . S
C240 C241 1.388 . S
C240 C244 1.382 . S
C240 H263 0.950 . S
C241 C240 1.388 . S
C241 C242 1.386 . S
C242 C241 1.386 . S
C242 C243 1.382 . S
C242 H264 0.950 . S
C243 N239 1.332 . S
C243 C242 1.382 . S
C243 H245 0.952 . S
C244 N239 1.332 . S
C244 C240 1.382 . S
C244 H246 0.948 . S
H245 C243 0.952 . S
H246 C244 0.948 . S
H247 C236 0.952 . S
H248 C238 0.948 . S
C249 C215 1.395 . S
C249 C219 1.391 . S
C250 C212 1.389 1_455 S
C250 C232 1.392 1_565 S
C251 C222 1.392 1_545 S
C251 C224 1.389 1_655 S
C252 C227 1.395 . S
C252 C229 1.391 . S
H253 C213 0.951 . S
H254 C214 0.950 . S
H255 C220 0.949 . S
H256 C221 0.950 . S
H257 C225 0.951 . S
H258 C226 0.950 . S
H259 C230 0.949 . S
H260 C231 0.950 . S
H261 C235 0.950 . S
H262 C237 0.950 . S
H263 C240 0.950 . S
H264 C242 0.950 . S
C265 C266 1.443 . S
C265 N269 1.376 . S
C265 C303 1.389 . S
C266 C265 1.443 . S
C266 C267 1.340 . S
C266 H306 0.951 . S
C267 C266 1.340 . S
C267 C268 1.439 . S
C267 H307 0.950 . S
C268 C267 1.439 . S
C268 N269 1.374 . S
C268 C302 1.395 . S
N269 C265 1.376 . S
N269 C268 1.374 . S
N269 Co270 2.008 . S
Co270 N269 2.008 . S
Co270 N271 1.995 . S
Co270 N276 2.008 . S
Co270 N281 1.995 . S
Co270 N286 2.282 . S
Co270 N292 2.282 . S
N271 Co270 1.995 . S
N271 C272 1.376 . S
N271 C275 1.383 . S
C272 N271 1.376 . S
C272 C273 1.446 . S
C272 C302 1.391 . S
C273 C272 1.446 . S
C273 C274 1.339 . S
C273 H308 0.949 . S
C274 C273 1.339 . S
C274 C275 1.439 . S
C274 H309 0.950 . S
C275 N271 1.383 . S
C275 C274 1.439 . S
C275 C304 1.392 . S
N276 Co270 2.008 . S
N276 C277 1.376 . S
N276 C280 1.374 . S
C277 N276 1.376 . S
C277 C278 1.443 . S
C277 C304 1.389 . S
C278 C277 1.443 . S
C278 C279 1.340 . S
C278 H310 0.951 . S
C279 C278 1.340 . S
C279 C280 1.439 . S
C279 H311 0.950 . S
C280 N276 1.374 . S
C280 C279 1.439 . S
C280 C305 1.395 . S
N281 Co270 1.995 . S
N281 C282 1.376 . S
N281 C285 1.383 . S
C282 N281 1.376 . S
C282 C283 1.446 . S
C282 C305 1.391 . S
C283 C282 1.446 . S
C283 C284 1.339 . S
C283 H312 0.949 . S
C284 C283 1.339 . S
C284 C285 1.439 . S
C284 H313 0.950 . S
C285 N281 1.383 . S
C285 C284 1.439 . S
C285 C303 1.392 . S
N286 Co270 2.282 . S
N286 C289 1.332 . S
N286 C291 1.332 . S
C287 C288 1.386 . S
C287 C290 1.388 . S
C288 C287 1.386 . S
C288 C289 1.382 . S
C288 H314 0.950 . S
C289 N286 1.332 . S
C289 C288 1.382 . S
C289 H300 0.952 . S
C290 C287 1.388 . S
C290 C291 1.382 . S
C290 H315 0.950 . S
C291 N286 1.332 . S
C291 C290 1.382 . S
C291 H301 0.948 . S
N292 Co270 2.282 . S
N292 C296 1.332 . S
N292 C297 1.332 . S
C293 C294 1.388 . S
C293 C297 1.382 . S
C293 H316 0.950 . S
C294 C293 1.388 . S
C294 C295 1.386 . S
C295 C294 1.386 . S
C295 C296 1.382 . S
C295 H317 0.950 . S
C296 N292 1.332 . S
C296 C295 1.382 . S
C296 H298 0.952 . S
C297 N292 1.332 . S
C297 C293 1.382 . S
C297 H299 0.948 . S
H298 C296 0.952 . S
H299 C297 0.948 . S
H300 C289 0.952 . S
H301 C291 0.948 . S
C302 C268 1.395 . S
C302 C272 1.391 . S
C303 C265 1.389 . S
C303 C285 1.392 . S
C304 C275 1.392 . S
C304 C277 1.389 . S
C305 C280 1.395 . S
C305 C282 1.391 . S
H306 C266 0.951 . S
H307 C267 0.950 . S
H308 C273 0.949 . S
H309 C274 0.950 . S
H310 C278 0.951 . S
H311 C279 0.950 . S
H312 C283 0.949 . S
H313 C284 0.950 . S
H314 C288 0.950 . S
H315 C290 0.950 . S
H316 C293 0.950 . S
H317 C295 0.950 . S
C318 C319 1.443 . S
C318 N322 1.363 1_545 S
C318 C356 1.389 . S
C319 C318 1.443 . S
C319 C320 1.340 1_545 S
C319 H359 0.951 . S
C320 C319 1.340 1_565 S
C320 C321 1.439 . S
C320 H360 0.950 . S
C321 C320 1.439 . S
C321 N322 1.391 . S
C321 C355 1.395 1_556 S
N322 C318 1.363 1_565 S
N322 C321 1.391 . S
N322 Co323 2.006 1_566 S
Co323 N322 2.006 1_544 S
Co323 N324 1.995 1_545 S
Co323 N329 2.005 . S
Co323 N334 1.995 1_554 S
Co323 N339 2.282 . S
Co323 N345 2.282 1_544 S
N324 Co323 1.995 1_565 S
N324 C325 1.376 . S
N324 C328 1.383 . S
C325 N324 1.376 . S
C325 C326 1.446 . S
C325 C355 1.391 . S
C326 C325 1.446 . S
C326 C327 1.339 . S
C326 H361 0.949 . S
C327 C326 1.339 . S
C327 C328 1.439 . S
C327 H362 0.950 . S
C328 N324 1.383 . S
C328 C327 1.439 . S
C328 C357 1.392 . S
N329 Co323 2.005 . S
N329 C330 1.357 1_545 S
N329 C333 1.398 . S
C330 N329 1.357 1_565 S
C330 C331 1.443 . S
C330 C357 1.389 . S
C331 C330 1.443 . S
C331 C332 1.340 1_565 S
C331 H363 0.951 . S
C332 C331 1.340 1_545 S
C332 C333 1.439 . S
C332 H364 0.950 . S
C333 N329 1.398 . S
C333 C332 1.439 . S
C333 C358 1.395 1_554 S
N334 Co323 1.995 1_556 S
N334 C335 1.376 . S
N334 C338 1.383 . S
C335 N334 1.376 . S
C335 C336 1.446 . S
C335 C358 1.391 . S
C336 C335 1.446 . S
C336 C337 1.339 . S
C336 H365 0.949 . S
C337 C336 1.339 . S
C337 C338 1.439 . S
C337 H366 0.950 . S
C338 N334 1.383 . S
C338 C337 1.439 . S
C338 C356 1.392 . S
N339 Co323 2.282 . S
N339 C342 1.332 . S
N339 C344 1.332 1_545 S
C340 C341 1.386 . S
C340 C343 1.388 1_545 S
C341 C340 1.386 . S
C341 C342 1.382 . S
C341 H367 0.950 . S
C342 N339 1.332 . S
C342 C341 1.382 . S
C342 H353 0.952 . S
C343 C340 1.388 1_565 S
C343 C344 1.382 . S
C343 H368 0.950 . S
C344 N339 1.332 1_565 S
C344 C343 1.382 . S
C344 H354 0.948 . S
N345 Co323 2.282 1_566 S
N345 C349 1.332 . S
N345 C350 1.332 1_565 S
C346 C347 1.388 1_545 S
C346 C350 1.382 . S
C346 H369 0.950 . S
C347 C346 1.388 1_565 S
C347 C348 1.386 . S
C348 C347 1.386 . S
C348 C349 1.382 . S
C348 H370 0.950 . S
C349 N345 1.332 . S
C349 C348 1.382 . S
C349 H351 0.952 . S
C350 N345 1.332 1_545 S
C350 C346 1.382 . S
C350 H352 0.948 . S
H351 C349 0.952 . S
H352 C350 0.948 . S
H353 C342 0.952 . S
H354 C344 0.948 . S
C355 C321 1.395 1_554 S
C355 C325 1.391 . S
C356 C318 1.389 . S
C356 C338 1.392 . S
C357 C328 1.392 . S
C357 C330 1.389 . S
C358 C333 1.395 1_556 S
C358 C335 1.391 . S
H359 C319 0.951 . S
H360 C320 0.950 . S
H361 C326 0.949 . S
H362 C327 0.950 . S
H363 C331 0.951 . S
H364 C332 0.950 . S
H365 C336 0.949 . S
H366 C337 0.950 . S
H367 C341 0.950 . S
H368 C343 0.950 . S
H369 C346 0.950 . S
H370 C348 0.950 . S
C371 C372 1.443 . S
C371 N375 1.376 . S
C371 C409 1.389 . S
C372 C371 1.443 . S
C372 C373 1.340 . S
C372 H412 0.951 . S
C373 C372 1.340 . S
C373 C374 1.439 . S
C373 H413 0.950 . S
C374 C373 1.439 . S
C374 N375 1.374 . S
C374 C408 1.395 . S
N375 C371 1.376 . S
N375 C374 1.374 . S
N375 Co376 2.008 . S
Co376 N375 2.008 . S
Co376 N377 1.995 . S
Co376 N382 2.008 . S
Co376 N387 1.995 . S
Co376 N392 2.282 . S
Co376 N398 2.282 . S
N377 Co376 1.995 . S
N377 C378 1.376 . S
N377 C381 1.383 . S
C378 N377 1.376 . S
C378 C379 1.446 . S
C378 C408 1.391 . S
C379 C378 1.446 . S
C379 C380 1.339 . S
C379 H414 0.949 . S
C380 C379 1.339 . S
C380 C381 1.439 . S
C380 H415 0.950 . S
C381 N377 1.383 . S
C381 C380 1.439 . S
C381 C410 1.392 . S
N382 Co376 2.008 . S
N382 C383 1.376 . S
N382 C386 1.374 . S
C383 N382 1.376 . S
C383 C384 1.443 . S
C383 C410 1.389 . S
C384 C383 1.443 . S
C384 C385 1.340 . S
C384 H416 0.951 . S
C385 C384 1.340 . S
C385 C386 1.439 . S
C385 H417 0.950 . S
C386 N382 1.374 . S
C386 C385 1.439 . S
C386 C411 1.395 . S
N387 Co376 1.995 . S
N387 C388 1.376 . S
N387 C391 1.383 . S
C388 N387 1.376 . S
C388 C389 1.446 . S
C388 C411 1.391 . S
C389 C388 1.446 . S
C389 C390 1.339 . S
C389 H418 0.949 . S
C390 C389 1.339 . S
C390 C391 1.439 . S
C390 H419 0.950 . S
C391 N387 1.383 . S
C391 C390 1.439 . S
C391 C409 1.392 . S
N392 Co376 2.282 . S
N392 C395 1.332 . S
N392 C397 1.332 . S
C393 C394 1.386 . S
C393 C396 1.388 . S
C394 C393 1.386 . S
C394 C395 1.382 . S
C394 H420 0.950 . S
C395 N392 1.332 . S
C395 C394 1.382 . S
C395 H406 0.952 . S
C396 C393 1.388 . S
C396 C397 1.382 . S
C396 H421 0.950 . S
C397 N392 1.332 . S
C397 C396 1.382 . S
C397 H407 0.948 . S
N398 Co376 2.282 . S
N398 C402 1.332 . S
N398 C403 1.332 . S
C399 C400 1.388 . S
C399 C403 1.382 . S
C399 H422 0.950 . S
C400 C399 1.388 . S
C400 C401 1.386 . S
C401 C400 1.386 . S
C401 C402 1.382 . S
C401 H423 0.950 . S
C402 N398 1.332 . S
C402 C401 1.382 . S
C402 H404 0.952 . S
C403 N398 1.332 . S
C403 C399 1.382 . S
C403 H405 0.948 . S
H404 C402 0.952 . S
H405 C403 0.948 . S
H406 C395 0.952 . S
H407 C397 0.948 . S
C408 C374 1.395 . S
C408 C378 1.391 . S
C409 C371 1.389 . S
C409 C391 1.392 . S
C410 C381 1.392 . S
C410 C383 1.389 . S
C411 C386 1.395 . S
C411 C388 1.391 . S
H412 C372 0.951 . S
H413 C373 0.950 . S
H414 C379 0.949 . S
H415 C380 0.950 . S
H416 C384 0.951 . S
H417 C385 0.950 . S
H418 C389 0.949 . S
H419 C390 0.950 . S
H420 C394 0.950 . S
H421 C396 0.950 . S
H422 C399 0.950 . S
H423 C401 0.950 . S
C424 C425 1.443 . S
C424 N428 1.376 . S
C424 C462 1.389 . S
C425 C424 1.443 . S
C425 C426 1.340 . S
C425 H465 0.951 . S
C426 C425 1.340 . S
C426 C427 1.439 . S
C426 H466 0.950 . S
C427 C426 1.439 . S
C427 N428 1.374 . S
C427 C461 1.395 . S
N428 C424 1.376 . S
N428 C427 1.374 . S
N428 Co429 2.008 . S
Co429 N428 2.008 . S
Co429 N430 1.995 . S
Co429 N435 2.008 . S
Co429 N440 1.995 . S
Co429 N445 2.282 . S
Co429 N451 2.282 . S
N430 Co429 1.995 . S
N430 C431 1.376 . S
N430 C434 1.383 . S
C431 N430 1.376 . S
C431 C432 1.446 . S
C431 C461 1.391 . S
C432 C431 1.446 . S
C432 C433 1.339 . S
C432 H467 0.949 . S
C433 C432 1.339 . S
C433 C434 1.439 . S
C433 H468 0.950 . S
C434 N430 1.383 . S
C434 C433 1.439 . S
C434 C463 1.392 . S
N435 Co429 2.008 . S
N435 C436 1.376 . S
N435 C439 1.374 . S
C436 N435 1.376 . S
C436 C437 1.443 . S
C436 C463 1.389 . S
C437 C436 1.443 . S
C437 C438 1.340 . S
C437 H469 0.951 . S
C438 C437 1.340 . S
C438 C439 1.439 . S
C438 H470 0.950 . S
C439 N435 1.374 . S
C439 C438 1.439 . S
C439 C464 1.395 . S
N440 Co429 1.995 . S
N440 C441 1.376 . S
N440 C444 1.383 . S
C441 N440 1.376 . S
C441 C442 1.446 . S
C441 C464 1.391 . S
C442 C441 1.446 . S
C442 C443 1.339 . S
C442 H471 0.949 . S
C443 C442 1.339 . S
C443 C444 1.439 . S
C443 H472 0.950 . S
C444 N440 1.383 . S
C444 C443 1.439 . S
C444 C462 1.392 . S
N445 Co429 2.282 . S
N445 C448 1.332 . S
N445 C450 1.332 . S
C446 C447 1.386 . S
C446 C449 1.388 . S
C447 C446 1.386 . S
C447 C448 1.382 . S
C447 H473 0.950 . S
C448 N445 1.332 . S
C448 C447 1.382 . S
C448 H459 0.952 . S
C449 C446 1.388 . S
C449 C450 1.382 . S
C449 H474 0.950 . S
C450 N445 1.332 . S
C450 C449 1.382 . S
C450 H460 0.948 . S
N451 Co429 2.282 . S
N451 C455 1.332 . S
N451 C456 1.332 . S
C452 C453 1.388 . S
C452 C456 1.382 . S
C452 H475 0.950 . S
C453 C452 1.388 . S
C453 C454 1.386 . S
C454 C453 1.386 . S
C454 C455 1.382 . S
C454 H476 0.950 . S
C455 N451 1.332 . S
C455 C454 1.382 . S
C455 H457 0.952 . S
C456 N451 1.332 . S
C456 C452 1.382 . S
C456 H458 0.948 . S
H457 C455 0.952 . S
H458 C456 0.948 . S
H459 C448 0.952 . S
H460 C450 0.948 . S
C461 C427 1.395 . S
C461 C431 1.391 . S
C462 C424 1.389 . S
C462 C444 1.392 . S
C463 C434 1.392 . S
C463 C436 1.389 . S
C464 C439 1.395 . S
C464 C441 1.391 . S
H465 C425 0.951 . S
H466 C426 0.950 . S
H467 C432 0.949 . S
H468 C433 0.950 . S
H469 C437 0.951 . S
H470 C438 0.950 . S
H471 C442 0.949 . S
H472 C443 0.950 . S
H473 C447 0.950 . S
H474 C449 0.950 . S
H475 C452 0.950 . S
H476 C454 0.950 . S
C477 C478 1.443 . S
C477 N481 1.376 . S
C477 C515 1.389 . S
C478 C477 1.443 . S
C478 C479 1.340 . S
C478 H518 0.951 . S
C479 C478 1.340 . S
C479 C480 1.439 . S
C479 H519 0.950 . S
C480 C479 1.439 . S
C480 N481 1.374 . S
C480 C514 1.395 . S
N481 C477 1.376 . S
N481 C480 1.374 . S
N481 Co482 2.008 . S
Co482 N481 2.008 . S
Co482 N483 1.995 . S
Co482 N488 2.008 . S
Co482 N493 1.995 . S
Co482 N498 2.282 . S
Co482 N504 2.282 . S
N483 Co482 1.995 . S
N483 C484 1.376 . S
N483 C487 1.383 . S
C484 N483 1.376 . S
C484 C485 1.446 . S
C484 C514 1.391 . S
C485 C484 1.446 . S
C485 C486 1.339 . S
C485 H520 0.949 . S
C486 C485 1.339 . S
C486 C487 1.439 . S
C486 H521 0.950 . S
C487 N483 1.383 . S
C487 C486 1.439 . S
C487 C516 1.392 . S
N488 Co482 2.008 . S
N488 C489 1.376 . S
N488 C492 1.374 . S
C489 N488 1.376 . S
C489 C490 1.443 . S
C489 C516 1.389 . S
C490 C489 1.443 . S
C490 C491 1.340 . S
C490 H522 0.951 . S
C491 C490 1.340 . S
C491 C492 1.439 . S
C491 H523 0.950 . S
C492 N488 1.374 . S
C492 C491 1.439 . S
C492 C517 1.395 . S
N493 Co482 1.995 . S
N493 C494 1.376 . S
N493 C497 1.383 . S
C494 N493 1.376 . S
C494 C495 1.446 . S
C494 C517 1.391 . S
C495 C494 1.446 . S
C495 C496 1.339 . S
C495 H524 0.949 . S
C496 C495 1.339 . S
C496 C497 1.439 . S
C496 H525 0.950 . S
C497 N493 1.383 . S
C497 C496 1.439 . S
C497 C515 1.392 . S
N498 Co482 2.282 . S
N498 C501 1.332 . S
N498 C503 1.332 . S
C499 C500 1.386 . S
C499 C502 1.388 . S
C500 C499 1.386 . S
C500 C501 1.382 . S
C500 H526 0.950 . S
C501 N498 1.332 . S
C501 C500 1.382 . S
C501 H512 0.952 . S
C502 C499 1.388 . S
C502 C503 1.382 . S
C502 H527 0.950 . S
C503 N498 1.332 . S
C503 C502 1.382 . S
C503 H513 0.948 . S
N504 Co482 2.282 . S
N504 C508 1.332 . S
N504 C509 1.332 . S
C505 C506 1.388 . S
C505 C509 1.382 . S
C505 H528 0.950 . S
C506 C505 1.388 . S
C506 C507 1.386 . S
C507 C506 1.386 . S
C507 C508 1.382 . S
C507 H529 0.950 . S
C508 N504 1.332 . S
C508 C507 1.382 . S
C508 H510 0.952 . S
C509 N504 1.332 . S
C509 C505 1.382 . S
C509 H511 0.948 . S
H510 C508 0.952 . S
H511 C509 0.948 . S
H512 C501 0.952 . S
H513 C503 0.948 . S
C514 C480 1.395 . S
C514 C484 1.391 . S
C515 C477 1.389 . S
C515 C497 1.392 . S
C516 C487 1.392 . S
C516 C489 1.389 . S
C517 C492 1.395 . S
C517 C494 1.391 . S
H518 C478 0.951 . S
H519 C479 0.950 . S
H520 C485 0.949 . S
H521 C486 0.950 . S
H522 C490 0.951 . S
H523 C491 0.950 . S
H524 C495 0.949 . S
H525 C496 0.950 . S
H526 C500 0.950 . S
H527 C502 0.950 . S
H528 C505 0.950 . S
H529 C507 0.950 . S
C530 C531 1.443 . S
C530 N534 1.376 . S
C530 C568 1.389 . S
C531 C530 1.443 . S
C531 C532 1.340 . S
C531 H571 0.951 . S
C532 C531 1.340 . S
C532 C533 1.439 . S
C532 H572 0.950 . S
C533 C532 1.439 . S
C533 N534 1.374 . S
C533 C567 1.395 . S
N534 C530 1.376 . S
N534 C533 1.374 . S
N534 Co535 2.008 . S
Co535 N534 2.008 . S
Co535 N536 1.995 . S
Co535 N541 2.008 . S
Co535 N546 1.995 . S
Co535 N551 2.282 . S
Co535 N557 2.282 . S
N536 Co535 1.995 . S
N536 C537 1.376 . S
N536 C540 1.383 . S
C537 N536 1.376 . S
C537 C538 1.446 . S
C537 C567 1.391 . S
C538 C537 1.446 . S
C538 C539 1.339 . S
C538 H573 0.949 . S
C539 C538 1.339 . S
C539 C540 1.439 . S
C539 H574 0.950 . S
C540 N536 1.383 . S
C540 C539 1.439 . S
C540 C569 1.392 . S
N541 Co535 2.008 . S
N541 C542 1.376 . S
N541 C545 1.374 . S
C542 N541 1.376 . S
C542 C543 1.443 . S
C542 C569 1.389 . S
C543 C542 1.443 . S
C543 C544 1.340 . S
C543 H575 0.951 . S
C544 C543 1.340 . S
C544 C545 1.439 . S
C544 H576 0.950 . S
C545 N541 1.374 . S
C545 C544 1.439 . S
C545 C570 1.395 . S
N546 Co535 1.995 . S
N546 C547 1.376 . S
N546 C550 1.383 . S
C547 N546 1.376 . S
C547 C548 1.446 . S
C547 C570 1.391 . S
C548 C547 1.446 . S
C548 C549 1.339 . S
C548 H577 0.949 . S
C549 C548 1.339 . S
C549 C550 1.439 . S
C549 H578 0.950 . S
C550 N546 1.383 . S
C550 C549 1.439 . S
C550 C568 1.392 . S
N551 Co535 2.282 . S
N551 C554 1.332 . S
N551 C556 1.332 . S
C552 C553 1.386 . S
C552 C555 1.388 . S
C553 C552 1.386 . S
C553 C554 1.382 . S
C553 H579 0.950 . S
C554 N551 1.332 . S
C554 C553 1.382 . S
C554 H565 0.952 . S
C555 C552 1.388 . S
C555 C556 1.382 . S
C555 H580 0.950 . S
C556 N551 1.332 . S
C556 C555 1.382 . S
C556 H566 0.948 . S
N557 Co535 2.282 . S
N557 C561 1.332 . S
N557 C562 1.332 . S
C558 C559 1.388 . S
C558 C562 1.382 . S
C558 H581 0.950 . S
C559 C558 1.388 . S
C559 C560 1.386 . S
C560 C559 1.386 . S
C560 C561 1.382 . S
C560 H582 0.950 . S
C561 N557 1.332 . S
C561 C560 1.382 . S
C561 H563 0.952 . S
C562 N557 1.332 . S
C562 C558 1.382 . S
C562 H564 0.948 . S
H563 C561 0.952 . S
H564 C562 0.948 . S
H565 C554 0.952 . S
H566 C556 0.948 . S
C567 C533 1.395 . S
C567 C537 1.391 . S
C568 C530 1.389 . S
C568 C550 1.392 . S
C569 C540 1.392 . S
C569 C542 1.389 . S
C570 C545 1.395 . S
C570 C547 1.391 . S
H571 C531 0.951 . S
H572 C532 0.950 . S
H573 C538 0.949 . S
H574 C539 0.950 . S
H575 C543 0.951 . S
H576 C544 0.950 . S
H577 C548 0.949 . S
H578 C549 0.950 . S
H579 C553 0.950 . S
H580 C555 0.950 . S
H581 C558 0.950 . S
H582 C560 0.950 . S
C583 C584 1.443 . S
C583 N587 1.376 . S
C583 C621 1.389 . S
C584 C583 1.443 . S
C584 C585 1.340 . S
C584 H624 0.951 . S
C585 C584 1.340 . S
C585 C586 1.439 . S
C585 H625 0.950 . S
C586 C585 1.439 . S
C586 N587 1.374 . S
C586 C620 1.395 . S
N587 C583 1.376 . S
N587 C586 1.374 . S
N587 Co588 2.008 . S
Co588 N587 2.008 . S
Co588 N589 1.995 . S
Co588 N594 2.008 . S
Co588 N599 1.995 . S
Co588 N604 2.282 . S
Co588 N610 2.282 . S
N589 Co588 1.995 . S
N589 C590 1.376 . S
N589 C593 1.383 . S
C590 N589 1.376 . S
C590 C591 1.446 . S
C590 C620 1.391 . S
C591 C590 1.446 . S
C591 C592 1.339 . S
C591 H626 0.949 . S
C592 C591 1.339 . S
C592 C593 1.439 . S
C592 H627 0.950 . S
C593 N589 1.383 . S
C593 C592 1.439 . S
C593 C622 1.392 . S
N594 Co588 2.008 . S
N594 C595 1.376 . S
N594 C598 1.374 . S
C595 N594 1.376 . S
C595 C596 1.443 . S
C595 C622 1.389 . S
C596 C595 1.443 . S
C596 C597 1.340 . S
C596 H628 0.951 . S
C597 C596 1.340 . S
C597 C598 1.439 . S
C597 H629 0.950 . S
C598 N594 1.374 . S
C598 C597 1.439 . S
C598 C623 1.395 . S
N599 Co588 1.995 . S
N599 C600 1.376 . S
N599 C603 1.383 . S
C600 N599 1.376 . S
C600 C601 1.446 . S
C600 C623 1.391 . S
C601 C600 1.446 . S
C601 C602 1.339 . S
C601 H630 0.949 . S
C602 C601 1.339 . S
C602 C603 1.439 . S
C602 H631 0.950 . S
C603 N599 1.383 . S
C603 C602 1.439 . S
C603 C621 1.392 . S
N604 Co588 2.282 . S
N604 C607 1.332 . S
N604 C609 1.332 . S
C605 C606 1.386 . S
C605 C608 1.388 . S
C606 C605 1.386 . S
C606 C607 1.382 . S
C606 H632 0.950 . S
C607 N604 1.332 . S
C607 C606 1.382 . S
C607 H618 0.952 . S
C608 C605 1.388 . S
C608 C609 1.382 . S
C608 H633 0.950 . S
C609 N604 1.332 . S
C609 C608 1.382 . S
C609 H619 0.948 . S
N610 Co588 2.282 . S
N610 C614 1.332 . S
N610 C615 1.332 . S
C611 C612 1.388 . S
C611 C615 1.382 . S
C611 H634 0.950 . S
C612 C611 1.388 . S
C612 C613 1.386 . S
C613 C612 1.386 . S
C613 C614 1.382 . S
C613 H635 0.950 . S
C614 N610 1.332 . S
C614 C613 1.382 . S
C614 H616 0.952 . S
C615 N610 1.332 . S
C615 C611 1.382 . S
C615 H617 0.948 . S
H616 C614 0.952 . S
H617 C615 0.948 . S
H618 C607 0.952 . S
H619 C609 0.948 . S
C620 C586 1.395 . S
C620 C590 1.391 . S
C621 C583 1.389 . S
C621 C603 1.392 . S
C622 C593 1.392 . S
C622 C595 1.389 . S
C623 C598 1.395 . S
C623 C600 1.391 . S
H624 C584 0.951 . S
H625 C585 0.950 . S
H626 C591 0.949 . S
H627 C592 0.950 . S
H628 C596 0.951 . S
H629 C597 0.950 . S
H630 C601 0.949 . S
H631 C602 0.950 . S
H632 C606 0.950 . S
H633 C608 0.950 . S
H634 C611 0.950 . S
H635 C613 0.950 . S
C636 C637 1.443 . S
C636 N640 1.376 . S
C636 C674 1.389 . S
C637 C636 1.443 . S
C637 C638 1.340 . S
C637 H677 0.951 . S
C638 C637 1.340 . S
C638 C639 1.439 . S
C638 H678 0.950 . S
C639 C638 1.439 . S
C639 N640 1.374 . S
C639 C673 1.395 . S
N640 C636 1.376 . S
N640 C639 1.374 . S
N640 Co641 2.008 . S
Co641 N640 2.008 . S
Co641 N642 1.995 . S
Co641 N647 2.008 . S
Co641 N652 1.995 . S
Co641 N657 2.282 . S
Co641 N663 2.282 . S
N642 Co641 1.995 . S
N642 C643 1.376 . S
N642 C646 1.383 . S
C643 N642 1.376 . S
C643 C644 1.446 . S
C643 C673 1.391 . S
C644 C643 1.446 . S
C644 C645 1.339 . S
C644 H679 0.949 . S
C645 C644 1.339 . S
C645 C646 1.439 . S
C645 H680 0.950 . S
C646 N642 1.383 . S
C646 C645 1.439 . S
C646 C675 1.392 . S
N647 Co641 2.008 . S
N647 C648 1.376 . S
N647 C651 1.374 . S
C648 N647 1.376 . S
C648 C649 1.443 . S
C648 C675 1.389 . S
C649 C648 1.443 . S
C649 C650 1.340 . S
C649 H681 0.951 . S
C650 C649 1.340 . S
C650 C651 1.439 . S
C650 H682 0.950 . S
C651 N647 1.374 . S
C651 C650 1.439 . S
C651 C676 1.395 . S
N652 Co641 1.995 . S
N652 C653 1.376 . S
N652 C656 1.383 . S
C653 N652 1.376 . S
C653 C654 1.446 . S
C653 C676 1.391 . S
C654 C653 1.446 . S
C654 C655 1.339 . S
C654 H683 0.949 . S
C655 C654 1.339 . S
C655 C656 1.439 . S
C655 H684 0.950 . S
C656 N652 1.383 . S
C656 C655 1.439 . S
C656 C674 1.392 . S
N657 Co641 2.282 . S
N657 C660 1.332 . S
N657 C662 1.332 . S
C658 C659 1.386 . S
C658 C661 1.388 . S
C659 C658 1.386 . S
C659 C660 1.382 . S
C659 H685 0.950 . S
C660 N657 1.332 . S
C660 C659 1.382 . S
C660 H671 0.952 . S
C661 C658 1.388 . S
C661 C662 1.382 . S
C661 H686 0.950 . S
C662 N657 1.332 . S
C662 C661 1.382 . S
C662 H672 0.948 . S
N663 Co641 2.282 . S
N663 C667 1.332 . S
N663 C668 1.332 . S
C664 C665 1.388 . S
C664 C668 1.382 . S
C664 H687 0.950 . S
C665 C664 1.388 . S
C665 C666 1.386 . S
C666 C665 1.386 . S
C666 C667 1.382 . S
C666 H688 0.950 . S
C667 N663 1.332 . S
C667 C666 1.382 . S
C667 H669 0.952 . S
C668 N663 1.332 . S
C668 C664 1.382 . S
C668 H670 0.948 . S
H669 C667 0.952 . S
H670 C668 0.948 . S
H671 C660 0.952 . S
H672 C662 0.948 . S
C673 C639 1.395 . S
C673 C643 1.391 . S
C674 C636 1.389 . S
C674 C656 1.392 . S
C675 C646 1.392 . S
C675 C648 1.389 . S
C676 C651 1.395 . S
C676 C653 1.391 . S
H677 C637 0.951 . S
H678 C638 0.950 . S
H679 C644 0.949 . S
H680 C645 0.950 . S
H681 C649 0.951 . S
H682 C650 0.950 . S
H683 C654 0.949 . S
H684 C655 0.950 . S
H685 C659 0.950 . S
H686 C661 0.950 . S
H687 C664 0.950 . S
H688 C666 0.950 . S
C689 C690 1.443 . S
C689 N693 1.376 . S
C689 C727 1.389 . S
C690 C689 1.443 . S
C690 C691 1.340 . S
C690 H730 0.951 . S
C691 C690 1.340 . S
C691 C692 1.439 . S
C691 H731 0.950 . S
C692 C691 1.439 . S
C692 N693 1.374 . S
C692 C726 1.395 . S
N693 C689 1.376 . S
N693 C692 1.374 . S
N693 Co694 2.008 1_655 S
Co694 N693 2.008 1_455 S
Co694 N695 1.997 1_454 S
Co694 N700 2.008 1_554 S
Co694 N705 1.998 . S
Co694 N710 2.282 1_454 S
Co694 N716 2.282 . S
N695 Co694 1.997 1_656 S
N695 C696 1.397 . S
N695 C699 1.360 1_655 S
C696 N695 1.397 . S
C696 C697 1.446 . S
C696 C726 1.391 1_556 S
C697 C696 1.446 . S
C697 C698 1.339 1_655 S
C697 H732 0.949 . S
C698 C697 1.339 1_455 S
C698 C699 1.439 . S
C698 H733 0.950 . S
C699 N695 1.360 1_455 S
C699 C698 1.439 . S
C699 C728 1.392 . S
N700 Co694 2.008 1_556 S
N700 C701 1.376 . S
N700 C704 1.374 . S
C701 N700 1.376 . S
C701 C702 1.443 . S
C701 C728 1.389 . S
C702 C701 1.443 . S
C702 C703 1.340 . S
C702 H734 0.951 . S
C703 C702 1.340 . S
C703 C704 1.439 . S
C703 H735 0.950 . S
C704 N700 1.374 . S
C704 C703 1.439 . S
C704 C729 1.395 . S
N705 Co694 1.998 . S
N705 C706 1.403 . S
N705 C709 1.354 1_455 S
C706 N705 1.403 . S
C706 C707 1.446 . S
C706 C729 1.391 1_554 S
C707 C706 1.446 . S
C707 C708 1.339 1_455 S
C707 H736 0.949 . S
C708 C707 1.339 1_655 S
C708 C709 1.439 . S
C708 H737 0.950 . S
C709 N705 1.354 1_655 S
C709 C708 1.439 . S
C709 C727 1.392 . S
N710 Co694 2.282 1_656 S
N710 C713 1.332 1_655 S
N710 C715 1.332 . S
C711 C712 1.386 1_655 S
C711 C714 1.388 . S
C712 C711 1.386 1_455 S
C712 C713 1.382 . S
C712 H738 0.950 . S
C713 N710 1.332 1_455 S
C713 C712 1.382 . S
C713 H724 0.952 . S
C714 C711 1.388 . S
C714 C715 1.382 . S
C714 H739 0.950 . S
C715 N710 1.332 . S
C715 C714 1.382 . S
C715 H725 0.948 . S
N716 Co694 2.282 . S
N716 C720 1.332 1_455 S
N716 C721 1.332 . S
C717 C718 1.388 . S
C717 C721 1.382 . S
C717 H740 0.950 . S
C718 C717 1.388 . S
C718 C719 1.386 1_455 S
C719 C718 1.386 1_655 S
C719 C720 1.382 . S
C719 H741 0.950 . S
C720 N716 1.332 1_655 S
C720 C719 1.382 . S
C720 H722 0.952 . S
C721 N716 1.332 . S
C721 C717 1.382 . S
C721 H723 0.948 . S
H722 C720 0.952 . S
H723 C721 0.948 . S
H724 C713 0.952 . S
H725 C715 0.948 . S
C726 C692 1.395 . S
C726 C696 1.391 1_554 S
C727 C689 1.389 . S
C727 C709 1.392 . S
C728 C699 1.392 . S
C728 C701 1.389 . S
C729 C704 1.395 . S
C729 C706 1.391 1_556 S
H730 C690 0.951 . S
H731 C691 0.950 . S
H732 C697 0.949 . S
H733 C698 0.950 . S
H734 C702 0.951 . S
H735 C703 0.950 . S
H736 C707 0.949 . S
H737 C708 0.950 . S
H738 C712 0.950 . S
H739 C714 0.950 . S
H740 C717 0.950 . S
H741 C719 0.950 . S
C742 C743 1.443 . S
C742 N746 1.376 . S
C742 C780 1.389 . S
C743 C742 1.443 . S
C743 C744 1.340 . S
C743 H783 0.951 . S
C744 C743 1.340 . S
C744 C745 1.439 . S
C744 H784 0.950 . S
C745 C744 1.439 . S
C745 N746 1.374 . S
C745 C779 1.395 1_554 S
N746 C742 1.376 . S
N746 C745 1.374 . S
N746 Co747 2.008 . S
Co747 N746 2.008 . S
Co747 N748 1.995 1_554 S
Co747 N753 2.008 1_554 S
Co747 N758 1.995 . S
Co747 N763 2.282 1_554 S
Co747 N769 2.282 . S
N748 Co747 1.995 1_556 S
N748 C749 1.376 . S
N748 C752 1.383 . S
C749 N748 1.376 . S
C749 C750 1.446 . S
C749 C779 1.391 . S
C750 C749 1.446 . S
C750 C751 1.339 . S
C750 H785 0.949 . S
C751 C750 1.339 . S
C751 C752 1.439 . S
C751 H786 0.950 . S
C752 N748 1.383 . S
C752 C751 1.439 . S
C752 C781 1.392 . S
N753 Co747 2.008 1_556 S
N753 C754 1.376 . S
N753 C757 1.374 . S
C754 N753 1.376 . S
C754 C755 1.443 . S
C754 C781 1.389 . S
C755 C754 1.443 . S
C755 C756 1.340 . S
C755 H787 0.951 . S
C756 C755 1.340 . S
C756 C757 1.439 . S
C756 H788 0.950 . S
C757 N753 1.374 . S
C757 C756 1.439 . S
C757 C782 1.395 1_556 S
N758 Co747 1.995 . S
N758 C759 1.376 . S
N758 C762 1.383 . S
C759 N758 1.376 . S
C759 C760 1.446 . S
C759 C782 1.391 . S
C760 C759 1.446 . S
C760 C761 1.339 . S
C760 H789 0.949 . S
C761 C760 1.339 . S
C761 C762 1.439 . S
C761 H790 0.950 . S
C762 N758 1.383 . S
C762 C761 1.439 . S
C762 C780 1.392 . S
N763 Co747 2.282 1_556 S
N763 C766 1.332 . S
N763 C768 1.332 . S
C764 C765 1.386 . S
C764 C767 1.388 . S
C765 C764 1.386 . S
C765 C766 1.382 . S
C765 H791 0.950 . S
C766 N763 1.332 . S
C766 C765 1.382 . S
C766 H777 0.952 . S
C767 C764 1.388 . S
C767 C768 1.382 . S
C767 H792 0.950 . S
C768 N763 1.332 . S
C768 C767 1.382 . S
C768 H778 0.948 . S
N769 Co747 2.282 . S
N769 C773 1.332 . S
N769 C774 1.332 . S
C770 C771 1.388 . S
C770 C774 1.382 . S
C770 H793 0.950 . S
C771 C770 1.388 . S
C771 C772 1.386 . S
C772 C771 1.386 . S
C772 C773 1.382 . S
C772 H794 0.950 . S
C773 N769 1.332 . S
C773 C772 1.382 . S
C773 H775 0.952 . S
C774 N769 1.332 . S
C774 C770 1.382 . S
C774 H776 0.948 . S
H775 C773 0.952 . S
H776 C774 0.948 . S
H777 C766 0.952 . S
H778 C768 0.948 . S
C779 C745 1.395 1_556 S
C779 C749 1.391 . S
C780 C742 1.389 . S
C780 C762 1.392 . S
C781 C752 1.392 . S
C781 C754 1.389 . S
C782 C757 1.395 1_554 S
C782 C759 1.391 . S
H783 C743 0.951 . S
H784 C744 0.950 . S
H785 C750 0.949 . S
H786 C751 0.950 . S
H787 C755 0.951 . S
H788 C756 0.950 . S
H789 C760 0.949 . S
H790 C761 0.950 . S
H791 C765 0.950 . S
H792 C767 0.950 . S
H793 C770 0.950 . S
H794 C772 0.950 . S
C795 C796 1.443 . S
C795 N799 1.376 . S
C795 C833 1.389 . S
C796 C795 1.443 . S
C796 C797 1.340 . S
C796 H836 0.951 . S
C797 C796 1.340 . S
C797 C798 1.439 . S
C797 H837 0.950 . S
C798 C797 1.439 . S
C798 N799 1.374 . S
C798 C832 1.395 . S
N799 C795 1.376 . S
N799 C798 1.374 . S
N799 Co800 2.008 1_655 S
Co800 N799 2.008 1_455 S
Co800 N801 1.995 . S
Co800 N806 2.008 . S
Co800 N811 1.995 1_455 S
Co800 N816 2.282 1_455 S
Co800 N822 2.282 . S
N801 Co800 1.995 . S
N801 C802 1.376 1_455 S
N801 C805 1.383 . S
C802 N801 1.376 1_655 S
C802 C803 1.446 . S
C802 C832 1.391 . S
C803 C802 1.446 . S
C803 C804 1.339 1_655 S
C803 H838 0.949 . S
C804 C803 1.339 1_455 S
C804 C805 1.439 . S
C804 H839 0.950 . S
C805 N801 1.383 . S
C805 C804 1.439 . S
C805 C834 1.392 . S
N806 Co800 2.008 . S
N806 C807 1.376 . S
N806 C810 1.374 . S
C807 N806 1.376 . S
C807 C808 1.443 . S
C807 C834 1.389 . S
C808 C807 1.443 . S
C808 C809 1.340 . S
C808 H840 0.951 . S
C809 C808 1.340 . S
C809 C810 1.439 . S
C809 H841 0.950 . S
C810 N806 1.374 . S
C810 C809 1.439 . S
C810 C835 1.395 . S
N811 Co800 1.995 1_655 S
N811 C812 1.376 1_655 S
N811 C815 1.383 . S
C812 N811 1.376 1_455 S
C812 C813 1.446 . S
C812 C835 1.391 . S
C813 C812 1.446 . S
C813 C814 1.339 1_455 S
C813 H842 0.949 . S
C814 C813 1.339 1_655 S
C814 C815 1.439 . S
C814 H843 0.950 . S
C815 N811 1.383 . S
C815 C814 1.439 . S
C815 C833 1.392 . S
N816 Co800 2.282 1_655 S
N816 C819 1.332 1_655 S
N816 C821 1.332 . S
C817 C818 1.386 1_655 S
C817 C820 1.388 . S
C818 C817 1.386 1_455 S
C818 C819 1.382 . S
C818 H844 0.950 . S
C819 N816 1.332 1_455 S
C819 C818 1.382 . S
C819 H830 0.952 . S
C820 C817 1.388 . S
C820 C821 1.382 . S
C820 H845 0.950 . S
C821 N816 1.332 . S
C821 C820 1.382 . S
C821 H831 0.948 . S
N822 Co800 2.282 . S
N822 C826 1.332 1_455 S
N822 C827 1.332 . S
C823 C824 1.388 . S
C823 C827 1.382 . S
C823 H846 0.950 . S
C824 C823 1.388 . S
C824 C825 1.386 1_455 S
C825 C824 1.386 1_655 S
C825 C826 1.382 . S
C825 H847 0.950 . S
C826 N822 1.332 1_655 S
C826 C825 1.382 . S
C826 H828 0.952 . S
C827 N822 1.332 . S
C827 C823 1.382 . S
C827 H829 0.948 . S
H828 C826 0.952 . S
H829 C827 0.948 . S
H830 C819 0.952 . S
H831 C821 0.948 . S
C832 C798 1.395 . S
C832 C802 1.391 . S
C833 C795 1.389 . S
C833 C815 1.392 . S
C834 C805 1.392 . S
C834 C807 1.389 . S
C835 C810 1.395 . S
C835 C812 1.391 . S
H836 C796 0.951 . S
H837 C797 0.950 . S
H838 C803 0.949 . S
H839 C804 0.950 . S
H840 C808 0.951 . S
H841 C809 0.950 . S
H842 C813 0.949 . S
H843 C814 0.950 . S
H844 C818 0.950 . S
H845 C820 0.950 . S
H846 C823 0.950 . S
H847 C825 0.950 . S
H848 C860 0.930 . S
H849 C862 0.930 . S
H850 C863 0.930 . S
H851 C867 0.959 . S
H852 C867 0.959 . S
H853 C867 0.961 . S
H854 C868 0.960 . S
H855 C868 0.961 . S
H856 C868 0.959 . S
H857 C871 0.929 . S
H858 C872 0.931 . S
H859 C874 0.930 . S
C860 H848 0.930 . S
C860 C861 1.399 . S
C860 C865 1.399 . S
C861 C860 1.399 . S
C861 C862 1.376 1_665 S
C862 H849 0.930 . S
C862 C861 1.376 1_445 S
C862 C863 1.388 . S
C863 H850 0.930 . S
C863 C862 1.388 . S
C863 C864 1.384 1_455 S
C864 C863 1.384 1_655 S
C864 C865 1.404 1_545 S
C864 C870 1.464 . S
C865 C860 1.399 . S
C865 C864 1.404 1_565 S
C865 C866 1.516 . S
C866 C865 1.516 . S
C866 C867 1.502 . S
C866 C868 1.561 1_655 S
C866 C869 1.526 . S
C867 H851 0.959 . S
C867 H852 0.959 . S
C867 H853 0.961 . S
C867 C866 1.502 . S
C868 H854 0.960 . S
C868 H855 0.961 . S
C868 H856 0.959 . S
C868 C866 1.561 1_455 S
C869 C866 1.526 . S
C869 C870 1.396 1_565 S
C869 C874 1.390 . S
C870 C864 1.464 . S
C870 C869 1.396 1_545 S
C870 C871 1.399 1_655 S
C871 H857 0.929 . S
C871 C870 1.399 1_455 S
C871 C872 1.385 . S
C872 H858 0.931 . S
C872 C871 1.385 . S
C872 C873 1.389 1_455 S
C873 C872 1.389 1_655 S
C873 C874 1.387 1_545 S
C874 H859 0.930 . S
C874 C869 1.390 . S
C874 C873 1.387 1_565 S
H875 C887 0.930 . S
H876 C889 0.930 . S
H877 C890 0.930 . S
H878 C894 0.959 . S
H879 C894 0.959 . S
H880 C894 0.961 . S
H881 C895 0.960 . S
H882 C895 0.961 . S
H883 C895 0.959 . S
H884 C898 0.929 . S
H885 C899 0.931 . S
H886 C901 0.930 . S
C887 H875 0.930 . S
C887 C888 1.399 . S
C887 C892 1.399 . S
C888 C887 1.399 . S
C888 C889 1.376 . S
C889 H876 0.930 . S
C889 C888 1.376 . S
C889 C890 1.388 . S
C890 H877 0.930 . S
C890 C889 1.388 . S
C890 C891 1.390 . S
C891 C890 1.390 . S
C891 C892 1.394 . S
C891 C897 1.465 . S
C892 C887 1.399 . S
C892 C891 1.394 . S
C892 C893 1.516 . S
C893 C892 1.516 . S
C893 C894 1.502 . S
C893 C895 1.561 . S
C893 C896 1.526 . S
C894 H878 0.959 . S
C894 H879 0.959 . S
C894 H880 0.961 . S
C894 C893 1.502 . S
C895 H881 0.960 . S
C895 H882 0.961 . S
C895 H883 0.959 . S
C895 C893 1.561 . S
C896 C893 1.526 . S
C896 C897 1.396 . S
C896 C901 1.390 . S
C897 C891 1.465 . S
C897 C896 1.396 . S
C897 C898 1.399 . S
C898 H884 0.929 . S
C898 C897 1.399 . S
C898 C899 1.385 . S
C899 H885 0.931 . S
C899 C898 1.385 . S
C899 C900 1.389 . S
C900 C899 1.389 . S
C900 C901 1.387 . S
C901 H886 0.930 . S
C901 C896 1.390 . S
C901 C900 1.387 . S
H902 C914 0.930 . S
H903 C916 0.930 . S
H904 C917 0.930 . S
H905 C921 0.959 . S
H906 C921 0.959 . S
H907 C921 0.961 . S
H908 C922 0.960 . S
H909 C922 0.961 . S
H910 C922 0.959 . S
H911 C925 0.929 . S
H912 C926 0.931 . S
H913 C928 0.930 . S
C914 H902 0.930 . S
C914 C915 1.399 1_545 S
C914 C919 1.399 . S
C915 C914 1.399 1_565 S
C915 C916 1.376 . S
C916 H903 0.930 . S
C916 C915 1.376 . S
C916 C917 1.388 . S
C917 H904 0.930 . S
C917 C916 1.388 . S
C917 C918 1.390 . S
C918 C917 1.390 . S
C918 C919 1.394 1_565 S
C918 C924 1.465 . S
C919 C914 1.399 . S
C919 C918 1.394 1_545 S
C919 C920 1.516 . S
C920 C919 1.516 . S
C920 C921 1.502 . S
C920 C922 1.561 . S
C920 C923 1.526 . S
C921 H905 0.959 . S
C921 H906 0.959 . S
C921 H907 0.961 . S
C921 C920 1.502 . S
C922 H908 0.960 . S
C922 H909 0.961 . S
C922 H910 0.959 . S
C922 C920 1.561 . S
C923 C920 1.526 . S
C923 C924 1.396 1_545 S
C923 C928 1.390 . S
C924 C918 1.465 . S
C924 C923 1.396 1_565 S
C924 C925 1.399 . S
C925 H911 0.929 . S
C925 C924 1.399 . S
C925 C926 1.385 . S
C926 H912 0.931 . S
C926 C925 1.385 . S
C926 C927 1.389 1_565 S
C927 C926 1.389 1_545 S
C927 C928 1.387 . S
C928 H913 0.930 . S
C928 C923 1.390 . S
C928 C927 1.387 . S
H929 C941 0.930 . S
H930 C943 0.930 . S
H931 C944 0.930 . S
H932 C948 0.959 . S
H933 C948 0.959 . S
H934 C948 0.961 . S
H935 C949 0.960 . S
H936 C949 0.961 . S
H937 C949 0.959 . S
H938 C952 0.929 . S
H939 C953 0.931 . S
H940 C955 0.930 . S
C941 H929 0.930 . S
C941 C942 1.399 . S
C941 C946 1.399 . S
C942 C941 1.399 . S
C942 C943 1.376 . S
C943 H930 0.930 . S
C943 C942 1.376 . S
C943 C944 1.388 . S
C944 H931 0.930 . S
C944 C943 1.388 . S
C944 C945 1.390 . S
C945 C944 1.390 . S
C945 C946 1.394 . S
C945 C951 1.465 1_556 S
C946 C941 1.399 . S
C946 C945 1.394 . S
C946 C947 1.516 1_556 S
C947 C946 1.516 1_554 S
C947 C948 1.502 . S
C947 C949 1.561 . S
C947 C950 1.526 . S
C948 H932 0.959 . S
C948 H933 0.959 . S
C948 H934 0.961 . S
C948 C947 1.502 . S
C949 H935 0.960 . S
C949 H936 0.961 . S
C949 H937 0.959 . S
C949 C947 1.561 . S
C950 C947 1.526 . S
C950 C951 1.396 . S
C950 C955 1.390 . S
C951 C945 1.465 1_554 S
C951 C950 1.396 . S
C951 C952 1.399 . S
C952 H938 0.929 . S
C952 C951 1.399 . S
C952 C953 1.385 . S
C953 H939 0.931 . S
C953 C952 1.385 . S
C953 C954 1.389 . S
C954 C953 1.389 . S
C954 C955 1.387 . S
C955 H940 0.930 . S
C955 C950 1.390 . S
C955 C954 1.387 . S
H956 C968 0.930 . S
H957 C970 0.930 . S
H958 C971 0.930 . S
H959 C975 0.959 . S
H960 C975 0.959 . S
H961 C975 0.961 . S
H962 C976 0.960 . S
H963 C976 0.951 1_455 S
H964 C976 0.959 . S
H965 C979 0.929 . S
H966 C980 0.931 . S
H967 C982 0.930 . S
C968 H956 0.930 . S
C968 C969 1.399 1_545 S
C968 C973 1.399 . S
C969 C968 1.399 1_565 S
C969 C970 1.376 1_455 S
C970 H957 0.930 . S
C970 C969 1.376 1_655 S
C970 C971 1.388 . S
C971 H958 0.930 . S
C971 C970 1.388 . S
C971 C972 1.396 . S
C972 C971 1.396 . S
C972 C973 1.387 1_665 S
C972 C978 1.464 1_655 S
C973 C968 1.399 . S
C973 C972 1.387 1_445 S
C973 C974 1.516 . S
C974 C973 1.516 . S
C974 C975 1.502 . S
C974 C976 1.561 1_455 S
C974 C977 1.526 . S
C975 H959 0.959 . S
C975 H960 0.959 . S
C975 H961 0.961 . S
C975 C974 1.502 . S
C976 H962 0.960 . S
C976 H963 0.951 1_655 S
C976 H964 0.959 . S
C976 C974 1.561 1_655 S
C977 C974 1.526 . S
C977 C978 1.396 1_545 S
C977 C982 1.390 . S
C978 C972 1.464 1_455 S
C978 C977 1.396 1_565 S
C978 C979 1.399 1_455 S
C979 H965 0.929 . S
C979 C978 1.399 1_655 S
C979 C980 1.385 . S
C980 H966 0.931 . S
C980 C979 1.385 . S
C980 C981 1.389 1_665 S
C981 C980 1.389 1_445 S
C981 C982 1.387 . S
C982 H967 0.930 . S
C982 C977 1.390 . S
C982 C981 1.387 . S
H983 C995 0.930 . S
H984 C997 0.930 . S
H985 C998 0.930 . S
H986 C1002 0.959 . S
H987 C1002 0.959 . S
H988 C1002 0.961 . S
H989 C1003 0.960 . S
H990 C1003 0.961 . S
H991 C1003 0.959 . S
H992 C1006 0.929 . S
H993 C1007 0.931 . S
H994 C1009 0.930 . S
C995 H983 0.930 . S
C995 C996 1.399 . S
C995 C1000 1.399 . S
C996 C995 1.399 . S
C996 C997 1.376 . S
C997 H984 0.930 . S
C997 C996 1.376 . S
C997 C998 1.388 . S
C998 H985 0.930 . S
C998 C997 1.388 . S
C998 C999 1.390 . S
C999 C998 1.390 . S
C999 C1000 1.394 . S
C999 C1005 1.465 . S
C1000 C995 1.399 . S
C1000 C999 1.394 . S
C1000 C1001 1.516 . S
C1001 C1000 1.516 . S
C1001 C1002 1.502 . S
C1001 C1003 1.561 . S
C1001 C1004 1.526 . S
C1002 H986 0.959 . S
C1002 H987 0.959 . S
C1002 H988 0.961 . S
C1002 C1001 1.502 . S
C1003 H989 0.960 . S
C1003 H990 0.961 . S
C1003 H991 0.959 . S
C1003 C1001 1.561 . S
C1004 C1001 1.526 . S
C1004 C1005 1.396 . S
C1004 C1009 1.390 . S
C1005 C999 1.465 . S
C1005 C1004 1.396 . S
C1005 C1006 1.399 . S
C1006 H992 0.929 . S
C1006 C1005 1.399 . S
C1006 C1007 1.385 . S
C1007 H993 0.931 . S
C1007 C1006 1.385 . S
C1007 C1008 1.389 . S
C1008 C1007 1.389 . S
C1008 C1009 1.387 . S
C1009 H994 0.930 . S
C1009 C1004 1.390 . S
C1009 C1008 1.387 . S
H1010 C1022 0.930 . S
H1011 C1024 0.930 . S
H1012 C1025 0.930 . S
H1013 C1029 0.959 . S
H1014 C1029 0.959 . S
H1015 C1029 0.961 . S
H1016 C1030 0.960 . S
H1017 C1030 0.961 . S
H1018 C1030 0.959 . S
H1019 C1033 0.929 . S
H1020 C1034 0.931 . S
H1021 C1036 0.930 . S
C1022 H1010 0.930 . S
C1022 C1023 1.399 1_565 S
C1022 C1027 1.399 . S
C1023 C1022 1.399 1_545 S
C1023 C1024 1.376 . S
C1024 H1011 0.930 . S
C1024 C1023 1.376 . S
C1024 C1025 1.388 . S
C1025 H1012 0.930 . S
C1025 C1024 1.388 . S
C1025 C1026 1.390 . S
C1026 C1025 1.390 . S
C1026 C1027 1.394 1_545 S
C1026 C1032 1.465 . S
C1027 C1022 1.399 . S
C1027 C1026 1.394 1_565 S
C1027 C1028 1.516 . S
C1028 C1027 1.516 . S
C1028 C1029 1.502 . S
C1028 C1030 1.561 . S
C1028 C1031 1.526 . S
C1029 H1013 0.959 . S
C1029 H1014 0.959 . S
C1029 H1015 0.961 . S
C1029 C1028 1.502 . S
C1030 H1016 0.960 . S
C1030 H1017 0.961 . S
C1030 H1018 0.959 . S
C1030 C1028 1.561 . S
C1031 C1028 1.526 . S
C1031 C1032 1.396 1_565 S
C1031 C1036 1.390 . S
C1032 C1026 1.465 . S
C1032 C1031 1.396 1_545 S
C1032 C1033 1.399 . S
C1033 H1019 0.929 . S
C1033 C1032 1.399 . S
C1033 C1034 1.385 . S
C1034 H1020 0.931 . S
C1034 C1033 1.385 . S
C1034 C1035 1.389 1_545 S
C1035 C1034 1.389 1_565 S
C1035 C1036 1.387 . S
C1036 H1021 0.930 . S
C1036 C1031 1.390 . S
C1036 C1035 1.387 . S
H1037 C1049 0.930 . S
H1038 C1051 0.930 . S
H1039 C1052 0.930 . S
H1040 C1056 0.959 . S
H1041 C1056 0.959 . S
H1042 C1056 0.961 1_554 S
H1043 C1057 0.960 . S
H1044 C1057 0.961 . S
H1045 C1057 0.959 . S
H1046 C1060 0.929 . S
H1047 C1061 0.931 . S
H1048 C1063 0.930 . S
C1049 H1037 0.930 . S
C1049 C1050 1.399 . S
C1049 C1054 1.399 . S
C1050 C1049 1.399 . S
C1050 C1051 1.376 . S
C1051 H1038 0.930 . S
C1051 C1050 1.376 . S
C1051 C1052 1.388 . S
C1052 H1039 0.930 . S
C1052 C1051 1.388 . S
C1052 C1053 1.390 . S
C1053 C1052 1.390 . S
C1053 C1054 1.394 . S
C1053 C1059 1.465 1_554 S
C1054 C1049 1.399 . S
C1054 C1053 1.394 . S
C1054 C1055 1.516 1_554 S
C1055 C1054 1.516 1_556 S
C1055 C1056 1.502 . S
C1055 C1057 1.561 . S
C1055 C1058 1.526 . S
C1056 H1040 0.959 . S
C1056 H1041 0.959 . S
C1056 H1042 0.961 1_556 S
C1056 C1055 1.502 . S
C1057 H1043 0.960 . S
C1057 H1044 0.961 . S
C1057 H1045 0.959 . S
C1057 C1055 1.561 . S
C1058 C1055 1.526 . S
C1058 C1059 1.396 . S
C1058 C1063 1.390 . S
C1059 C1053 1.465 1_556 S
C1059 C1058 1.396 . S
C1059 C1060 1.399 . S
C1060 H1046 0.929 . S
C1060 C1059 1.399 . S
C1060 C1061 1.385 . S
C1061 H1047 0.931 . S
C1061 C1060 1.385 . S
C1061 C1062 1.389 . S
C1062 C1061 1.389 . S
C1062 C1063 1.387 . S
C1063 H1048 0.930 . S
C1063 C1058 1.390 . S
C1063 C1062 1.387 . S
H1064 C1076 0.930 . S
H1065 C1078 0.930 . S
H1066 C1079 0.930 . S
H1067 C1083 0.959 . S
H1068 C1083 0.959 . S
H1069 C1083 0.961 . S
H1070 C1084 0.960 . S
H1071 C1084 0.961 . S
H1072 C1084 0.959 . S
H1073 C1087 0.929 . S
H1074 C1088 0.931 . S
H1075 C1090 0.930 . S
C1076 H1064 0.930 . S
C1076 C1077 1.399 . S
C1076 C1081 1.399 . S
C1077 C1076 1.399 . S
C1077 C1078 1.376 . S
C1078 H1065 0.930 . S
C1078 C1077 1.376 . S
C1078 C1079 1.388 . S
C1079 H1066 0.930 . S
C1079 C1078 1.388 . S
C1079 C1080 1.390 . S
C1080 C1079 1.390 . S
C1080 C1081 1.394 . S
C1080 C1086 1.465 . S
C1081 C1076 1.399 . S
C1081 C1080 1.394 . S
C1081 C1082 1.516 . S
C1082 C1081 1.516 . S
C1082 C1083 1.502 . S
C1082 C1084 1.561 . S
C1082 C1085 1.526 . S
C1083 H1067 0.959 . S
C1083 H1068 0.959 . S
C1083 H1069 0.961 . S
C1083 C1082 1.502 . S
C1084 H1070 0.960 . S
C1084 H1071 0.961 . S
C1084 H1072 0.959 . S
C1084 C1082 1.561 . S
C1085 C1082 1.526 . S
C1085 C1086 1.396 . S
C1085 C1090 1.390 . S
C1086 C1080 1.465 . S
C1086 C1085 1.396 . S
C1086 C1087 1.399 . S
C1087 H1073 0.929 . S
C1087 C1086 1.399 . S
C1087 C1088 1.385 . S
C1088 H1074 0.931 . S
C1088 C1087 1.385 . S
C1088 C1089 1.389 . S
C1089 C1088 1.389 . S
C1089 C1090 1.387 . S
C1090 H1075 0.930 . S
C1090 C1085 1.390 . S
C1090 C1089 1.387 . S
H1091 C1103 0.930 . S
H1092 C1105 0.930 . S
H1093 C1106 0.930 . S
H1094 C1110 0.959 . S
H1095 C1110 0.959 . S
H1096 C1110 0.961 1_556 S
H1097 C1111 0.960 1_556 S
H1098 C1111 0.961 . S
H1099 C1111 0.959 . S
H1100 C1114 0.929 . S
H1101 C1115 0.931 . S
H1102 C1117 0.930 . S
C1103 H1091 0.930 . S
C1103 C1104 1.399 . S
C1103 C1108 1.399 . S
C1104 C1103 1.399 . S
C1104 C1105 1.376 . S
C1105 H1092 0.930 . S
C1105 C1104 1.376 . S
C1105 C1106 1.388 . S
C1106 H1093 0.930 . S
C1106 C1105 1.388 . S
C1106 C1107 1.390 . S
C1107 C1106 1.390 . S
C1107 C1108 1.394 . S
C1107 C1113 1.465 1_556 S
C1108 C1103 1.399 . S
C1108 C1107 1.394 . S
C1108 C1109 1.516 1_556 S
C1109 C1108 1.516 1_554 S
C1109 C1110 1.502 . S
C1109 C1111 1.561 . S
C1109 C1112 1.526 . S
C1110 H1094 0.959 . S
C1110 H1095 0.959 . S
C1110 H1096 0.961 1_554 S
C1110 C1109 1.502 . S
C1111 H1097 0.960 1_554 S
C1111 H1098 0.961 . S
C1111 H1099 0.959 . S
C1111 C1109 1.561 . S
C1112 C1109 1.526 . S
C1112 C1113 1.396 . S
C1112 C1117 1.390 . S
C1113 C1107 1.465 1_554 S
C1113 C1112 1.396 . S
C1113 C1114 1.399 . S
C1114 H1100 0.929 . S
C1114 C1113 1.399 . S
C1114 C1115 1.385 . S
C1115 H1101 0.931 . S
C1115 C1114 1.385 . S
C1115 C1116 1.389 . S
C1116 C1115 1.389 . S
C1116 C1117 1.387 . S
C1117 H1102 0.930 . S
C1117 C1112 1.390 . S
C1117 C1116 1.387 . S
H1118 C1130 0.930 . S
H1119 C1132 0.930 . S
H1120 C1133 0.930 . S
H1121 C1137 0.959 . S
H1122 C1137 0.959 . S
H1123 C1137 0.961 . S
H1124 C1138 0.960 . S
H1125 C1138 0.961 . S
H1126 C1138 0.959 . S
H1127 C1141 0.929 . S
H1128 C1142 0.931 . S
H1129 C1144 0.930 . S
C1130 H1118 0.930 . S
C1130 C1131 1.399 . S
C1130 C1135 1.399 . S
C1131 C1130 1.399 . S
C1131 C1132 1.376 1_455 S
C1132 H1119 0.930 . S
C1132 C1131 1.376 1_655 S
C1132 C1133 1.388 . S
C1133 H1120 0.930 . S
C1133 C1132 1.388 . S
C1133 C1134 1.394 . S
C1134 C1133 1.394 . S
C1134 C1135 1.390 1_655 S
C1134 C1140 1.464 1_655 S
C1135 C1130 1.399 . S
C1135 C1134 1.390 1_455 S
C1135 C1136 1.516 . S
C1136 C1135 1.516 . S
C1136 C1137 1.502 . S
C1136 C1138 1.561 1_455 S
C1136 C1139 1.526 . S
C1137 H1121 0.959 . S
C1137 H1122 0.959 . S
C1137 H1123 0.961 . S
C1137 C1136 1.502 . S
C1138 H1124 0.960 . S
C1138 H1125 0.961 . S
C1138 H1126 0.959 . S
C1138 C1136 1.561 1_655 S
C1139 C1136 1.526 . S
C1139 C1140 1.396 . S
C1139 C1144 1.390 . S
C1140 C1134 1.464 1_455 S
C1140 C1139 1.396 . S
C1140 C1141 1.399 1_455 S
C1141 H1127 0.929 . S
C1141 C1140 1.399 1_655 S
C1141 C1142 1.385 . S
C1142 H1128 0.931 . S
C1142 C1141 1.385 . S
C1142 C1143 1.389 1_655 S
C1143 C1142 1.389 1_455 S
C1143 C1144 1.387 . S
C1144 H1129 0.930 . S
C1144 C1139 1.390 . S
C1144 C1143 1.387 . S
H1145 C1157 0.930 . S
H1146 C1159 0.930 . S
H1147 C1160 0.930 . S
H1148 C1164 0.959 . S
H1149 C1164 0.959 . S
H1150 C1164 0.961 . S
H1151 C1165 0.960 . S
H1152 C1165 0.961 . S
H1153 C1165 0.959 . S
H1154 C1168 0.929 . S
H1155 C1169 0.931 . S
H1156 C1171 0.930 . S
C1157 H1145 0.930 . S
C1157 C1158 1.399 . S
C1157 C1162 1.399 . S
C1158 C1157 1.399 . S
C1158 C1159 1.376 . S
C1159 H1146 0.930 . S
C1159 C1158 1.376 . S
C1159 C1160 1.388 . S
C1160 H1147 0.930 . S
C1160 C1159 1.388 . S
C1160 C1161 1.390 . S
C1161 C1160 1.390 . S
C1161 C1162 1.394 . S
C1161 C1167 1.465 . S
C1162 C1157 1.399 . S
C1162 C1161 1.394 . S
C1162 C1163 1.516 . S
C1163 C1162 1.516 . S
C1163 C1164 1.502 . S
C1163 C1165 1.561 . S
C1163 C1166 1.526 . S
C1164 H1148 0.959 . S
C1164 H1149 0.959 . S
C1164 H1150 0.961 . S
C1164 C1163 1.502 . S
C1165 H1151 0.960 . S
C1165 H1152 0.961 . S
C1165 H1153 0.959 . S
C1165 C1163 1.561 . S
C1166 C1163 1.526 . S
C1166 C1167 1.396 . S
C1166 C1171 1.390 . S
C1167 C1161 1.465 . S
C1167 C1166 1.396 . S
C1167 C1168 1.399 . S
C1168 H1154 0.929 . S
C1168 C1167 1.399 . S
C1168 C1169 1.385 . S
C1169 H1155 0.931 . S
C1169 C1168 1.385 . S
C1169 C1170 1.389 . S
C1170 C1169 1.389 . S
C1170 C1171 1.387 . S
C1171 H1156 0.930 . S
C1171 C1166 1.390 . S
C1171 C1170 1.387 . S
H1172 C1184 0.930 . S
H1173 C1186 0.930 . S
H1174 C1187 0.930 . S
H1175 C1191 0.959 . S
H1176 C1191 0.959 . S
H1177 C1191 0.961 . S
H1178 C1192 0.960 . S
H1179 C1192 0.961 . S
H1180 C1192 0.959 . S
H1181 C1195 0.929 . S
H1182 C1196 0.931 . S
H1183 C1198 0.930 . S
C1184 H1172 0.930 . S
C1184 C1185 1.399 . S
C1184 C1189 1.399 . S
C1185 C1184 1.399 . S
C1185 C1186 1.376 . S
C1186 H1173 0.930 . S
C1186 C1185 1.376 . S
C1186 C1187 1.388 . S
C1187 H1174 0.930 . S
C1187 C1186 1.388 . S
C1187 C1188 1.390 . S
C1188 C1187 1.390 . S
C1188 C1189 1.394 . S
C1188 C1194 1.465 . S
C1189 C1184 1.399 . S
C1189 C1188 1.394 . S
C1189 C1190 1.516 . S
C1190 C1189 1.516 . S
C1190 C1191 1.502 . S
C1190 C1192 1.561 . S
C1190 C1193 1.526 . S
C1191 H1175 0.959 . S
C1191 H1176 0.959 . S
C1191 H1177 0.961 . S
C1191 C1190 1.502 . S
C1192 H1178 0.960 . S
C1192 H1179 0.961 . S
C1192 H1180 0.959 . S
C1192 C1190 1.561 . S
C1193 C1190 1.526 . S
C1193 C1194 1.396 . S
C1193 C1198 1.390 . S
C1194 C1188 1.465 . S
C1194 C1193 1.396 . S
C1194 C1195 1.399 . S
C1195 H1181 0.929 . S
C1195 C1194 1.399 . S
C1195 C1196 1.385 . S
C1196 H1182 0.931 . S
C1196 C1195 1.385 . S
C1196 C1197 1.389 . S
C1197 C1196 1.389 . S
C1197 C1198 1.387 . S
C1198 H1183 0.930 . S
C1198 C1193 1.390 . S
C1198 C1197 1.387 . S
H1199 C1211 0.930 . S
H1200 C1213 0.930 . S
H1201 C1214 0.930 . S
H1202 C1218 0.959 . S
H1203 C1218 0.959 1_556 S
H1204 C1218 0.961 . S
H1205 C1219 0.960 . S
H1206 C1219 0.961 1_556 S
H1207 C1219 0.959 . S
H1208 C1222 0.929 . S
H1209 C1223 0.931 . S
H1210 C1225 0.930 . S
C1211 H1199 0.930 . S
C1211 C1212 1.399 . S
C1211 C1216 1.399 . S
C1212 C1211 1.399 . S
C1212 C1213 1.376 . S
C1213 H1200 0.930 . S
C1213 C1212 1.376 . S
C1213 C1214 1.388 . S
C1214 H1201 0.930 . S
C1214 C1213 1.388 . S
C1214 C1215 1.390 . S
C1215 C1214 1.390 . S
C1215 C1216 1.394 . S
C1215 C1221 1.465 1_554 S
C1216 C1211 1.399 . S
C1216 C1215 1.394 . S
C1216 C1217 1.516 . S
C1217 C1216 1.516 . S
C1217 C1218 1.502 . S
C1217 C1219 1.561 . S
C1217 C1220 1.526 1_554 S
C1218 H1202 0.959 . S
C1218 H1203 0.959 1_554 S
C1218 H1204 0.961 . S
C1218 C1217 1.502 . S
C1219 H1205 0.960 . S
C1219 H1206 0.961 1_554 S
C1219 H1207 0.959 . S
C1219 C1217 1.561 . S
C1220 C1217 1.526 1_556 S
C1220 C1221 1.396 . S
C1220 C1225 1.390 . S
C1221 C1215 1.465 1_556 S
C1221 C1220 1.396 . S
C1221 C1222 1.399 . S
C1222 H1208 0.929 . S
C1222 C1221 1.399 . S
C1222 C1223 1.385 . S
C1223 H1209 0.931 . S
C1223 C1222 1.385 . S
C1223 C1224 1.389 . S
C1224 C1223 1.389 . S
C1224 C1225 1.387 . S
C1225 H1210 0.930 . S
C1225 C1220 1.390 . S
C1225 C1224 1.387 . S
H1226 C1238 0.930 . S
H1227 C1240 0.930 . S
H1228 C1241 0.930 . S
H1229 C1245 0.959 . S
H1230 C1245 0.959 . S
H1231 C1245 0.961 . S
H1232 C1246 0.960 . S
H1233 C1246 0.961 . S
H1234 C1246 0.959 . S
H1235 C1249 0.929 . S
H1236 C1250 0.931 . S
H1237 C1252 0.930 1_455 S
C1238 H1226 0.930 . S
C1238 C1239 1.399 1_455 S
C1238 C1243 1.399 1_455 S
C1239 C1238 1.399 1_655 S
C1239 C1240 1.376 . S
C1240 H1227 0.930 . S
C1240 C1239 1.376 . S
C1240 C1241 1.388 . S
C1241 H1228 0.930 . S
C1241 C1240 1.388 . S
C1241 C1242 1.390 . S
C1242 C1241 1.390 . S
C1242 C1243 1.394 . S
C1242 C1248 1.465 . S
C1243 C1238 1.399 1_655 S
C1243 C1242 1.394 . S
C1243 C1244 1.516 1_655 S
C1244 C1243 1.516 1_455 S
C1244 C1245 1.502 . S
C1244 C1246 1.561 1_455 S
C1244 C1247 1.526 1_455 S
C1245 H1229 0.959 . S
C1245 H1230 0.959 . S
C1245 H1231 0.961 . S
C1245 C1244 1.502 . S
C1246 H1232 0.960 . S
C1246 H1233 0.961 . S
C1246 H1234 0.959 . S
C1246 C1244 1.561 1_655 S
C1247 C1244 1.526 1_655 S
C1247 C1248 1.396 . S
C1247 C1252 1.390 . S
C1248 C1242 1.465 . S
C1248 C1247 1.396 . S
C1248 C1249 1.399 . S
C1249 H1235 0.929 . S
C1249 C1248 1.399 . S
C1249 C1250 1.385 . S
C1250 H1236 0.931 . S
C1250 C1249 1.385 . S
C1250 C1251 1.389 . S
C1251 C1250 1.389 . S
C1251 C1252 1.387 . S
C1252 H1237 0.930 1_655 S
C1252 C1247 1.390 . S
C1252 C1251 1.387 . S
H1253 C1265 0.930 . S
H1254 C1267 0.930 . S
H1255 C1268 0.930 . S
H1256 C1272 0.959 . S
H1257 C1272 0.959 . S
H1258 C1272 0.961 . S
H1259 C1273 0.960 . S
H1260 C1273 0.961 . S
H1261 C1273 0.959 . S
H1262 C1276 0.929 . S
H1263 C1277 0.931 . S
H1264 C1279 0.930 . S
C1265 H1253 0.930 . S
C1265 C1266 1.399 . S
C1265 C1270 1.399 . S
C1266 C1265 1.399 . S
C1266 C1267 1.376 . S
C1267 H1254 0.930 . S
C1267 C1266 1.376 . S
C1267 C1268 1.388 . S
C1268 H1255 0.930 . S
C1268 C1267 1.388 . S
C1268 C1269 1.390 . S
C1269 C1268 1.390 . S
C1269 C1270 1.394 . S
C1269 C1275 1.465 . S
C1270 C1265 1.399 . S
C1270 C1269 1.394 . S
C1270 C1271 1.516 . S
C1271 C1270 1.516 . S
C1271 C1272 1.502 . S
C1271 C1273 1.561 . S
C1271 C1274 1.526 . S
C1272 H1256 0.959 . S
C1272 H1257 0.959 . S
C1272 H1258 0.961 . S
C1272 C1271 1.502 . S
C1273 H1259 0.960 . S
C1273 H1260 0.961 . S
C1273 H1261 0.959 . S
C1273 C1271 1.561 . S
C1274 C1271 1.526 . S
C1274 C1275 1.396 . S
C1274 C1279 1.390 . S
C1275 C1269 1.465 . S
C1275 C1274 1.396 . S
C1275 C1276 1.399 . S
C1276 H1262 0.929 . S
C1276 C1275 1.399 . S
C1276 C1277 1.385 . S
C1277 H1263 0.931 . S
C1277 C1276 1.385 . S
C1277 C1278 1.389 . S
C1278 C1277 1.389 . S
C1278 C1279 1.387 . S
C1279 H1264 0.930 . S
C1279 C1274 1.390 . S
C1279 C1278 1.387 . S
H1280 C1292 0.930 . S
H1281 C1294 0.930 . S
H1282 C1295 0.930 . S
H1283 C1299 0.959 . S
H1284 C1299 0.959 . S
H1285 C1299 0.961 . S
H1286 C1300 0.960 . S
H1287 C1300 0.961 . S
H1288 C1300 0.959 . S
H1289 C1303 0.929 . S
H1290 C1304 0.931 . S
H1291 C1306 0.930 . S
C1292 H1280 0.930 . S
C1292 C1293 1.399 . S
C1292 C1297 1.399 . S
C1293 C1292 1.399 . S
C1293 C1294 1.376 . S
C1294 H1281 0.930 . S
C1294 C1293 1.376 . S
C1294 C1295 1.388 . S
C1295 H1282 0.930 . S
C1295 C1294 1.388 . S
C1295 C1296 1.390 . S
C1296 C1295 1.390 . S
C1296 C1297 1.394 . S
C1296 C1302 1.465 . S
C1297 C1292 1.399 . S
C1297 C1296 1.394 . S
C1297 C1298 1.516 . S
C1298 C1297 1.516 . S
C1298 C1299 1.502 . S
C1298 C1300 1.561 . S
C1298 C1301 1.526 . S
C1299 H1283 0.959 . S
C1299 H1284 0.959 . S
C1299 H1285 0.961 . S
C1299 C1298 1.502 . S
C1300 H1286 0.960 . S
C1300 H1287 0.961 . S
C1300 H1288 0.959 . S
C1300 C1298 1.561 . S
C1301 C1298 1.526 . S
C1301 C1302 1.396 . S
C1301 C1306 1.390 . S
C1302 C1296 1.465 . S
C1302 C1301 1.396 . S
C1302 C1303 1.399 . S
C1303 H1289 0.929 . S
C1303 C1302 1.399 . S
C1303 C1304 1.385 . S
C1304 H1290 0.931 . S
C1304 C1303 1.385 . S
C1304 C1305 1.389 . S
C1305 C1304 1.389 . S
C1305 C1306 1.387 . S
C1306 H1291 0.930 . S
C1306 C1301 1.390 . S
C1306 C1305 1.387 . S
H1307 C1319 0.930 . S
H1308 C1321 0.930 . S
H1309 C1322 0.930 . S
H1310 C1326 0.959 . S
H1311 C1326 0.959 . S
H1312 C1326 0.961 . S
H1313 C1327 0.960 . S
H1314 C1327 0.961 . S
H1315 C1327 0.959 . S
H1316 C1330 0.929 . S
H1317 C1331 0.931 . S
H1318 C1333 0.930 . S
C1319 H1307 0.930 . S
C1319 C1320 1.399 . S
C1319 C1324 1.399 . S
C1320 C1319 1.399 . S
C1320 C1321 1.376 . S
C1321 H1308 0.930 . S
C1321 C1320 1.376 . S
C1321 C1322 1.388 . S
C1322 H1309 0.930 . S
C1322 C1321 1.388 . S
C1322 C1323 1.390 . S
C1323 C1322 1.390 . S
C1323 C1324 1.394 . S
C1323 C1329 1.465 . S
C1324 C1319 1.399 . S
C1324 C1323 1.394 . S
C1324 C1325 1.516 . S
C1325 C1324 1.516 . S
C1325 C1326 1.502 . S
C1325 C1327 1.561 . S
C1325 C1328 1.526 . S
C1326 H1310 0.959 . S
C1326 H1311 0.959 . S
C1326 H1312 0.961 . S
C1326 C1325 1.502 . S
C1327 H1313 0.960 . S
C1327 H1314 0.961 . S
C1327 H1315 0.959 . S
C1327 C1325 1.561 . S
C1328 C1325 1.526 . S
C1328 C1329 1.396 . S
C1328 C1333 1.390 . S
C1329 C1323 1.465 . S
C1329 C1328 1.396 . S
C1329 C1330 1.399 . S
C1330 H1316 0.929 . S
C1330 C1329 1.399 . S
C1330 C1331 1.385 . S
C1331 H1317 0.931 . S
C1331 C1330 1.385 . S
C1331 C1332 1.389 . S
C1332 C1331 1.389 . S
C1332 C1333 1.387 . S
C1333 H1318 0.930 . S
C1333 C1328 1.390 . S
C1333 C1332 1.387 . S
H1334 C1346 0.930 . S
H1335 C1348 0.930 . S
H1336 C1349 0.930 . S
H1337 C1353 0.959 . S
H1338 C1353 0.959 . S
H1339 C1353 0.961 . S
H1340 C1354 0.960 . S
H1341 C1354 0.961 . S
H1342 C1354 0.959 . S
H1343 C1357 0.929 . S
H1344 C1358 0.931 . S
H1345 C1360 0.930 . S
C1346 H1334 0.930 . S
C1346 C1347 1.399 . S
C1346 C1351 1.399 . S
C1347 C1346 1.399 . S
C1347 C1348 1.376 . S
C1348 H1335 0.930 . S
C1348 C1347 1.376 . S
C1348 C1349 1.388 . S
C1349 H1336 0.930 . S
C1349 C1348 1.388 . S
C1349 C1350 1.390 . S
C1350 C1349 1.390 . S
C1350 C1351 1.394 . S
C1350 C1356 1.465 . S
C1351 C1346 1.399 . S
C1351 C1350 1.394 . S
C1351 C1352 1.516 . S
C1352 C1351 1.516 . S
C1352 C1353 1.502 . S
C1352 C1354 1.561 . S
C1352 C1355 1.526 . S
C1353 H1337 0.959 . S
C1353 H1338 0.959 . S
C1353 H1339 0.961 . S
C1353 C1352 1.502 . S
C1354 H1340 0.960 . S
C1354 H1341 0.961 . S
C1354 H1342 0.959 . S
C1354 C1352 1.561 . S
C1355 C1352 1.526 . S
C1355 C1356 1.396 . S
C1355 C1360 1.390 . S
C1356 C1350 1.465 . S
C1356 C1355 1.396 . S
C1356 C1357 1.399 . S
C1357 H1343 0.929 . S
C1357 C1356 1.399 . S
C1357 C1358 1.385 . S
C1358 H1344 0.931 . S
C1358 C1357 1.385 . S
C1358 C1359 1.389 . S
C1359 C1358 1.389 . S
C1359 C1360 1.387 . S
C1360 H1345 0.930 . S
C1360 C1355 1.390 . S
C1360 C1359 1.387 . S
H1361 C1373 0.930 . S
H1362 C1375 0.930 . S
H1363 C1376 0.930 . S
H1364 C1380 0.959 . S
H1365 C1380 0.959 . S
H1366 C1380 0.961 . S
H1367 C1381 0.960 . S
H1368 C1381 0.961 . S
H1369 C1381 0.959 . S
H1370 C1384 0.929 . S
H1371 C1385 0.931 . S
H1372 C1387 0.930 . S
C1373 H1361 0.930 . S
C1373 C1374 1.399 . S
C1373 C1378 1.399 . S
C1374 C1373 1.399 . S
C1374 C1375 1.376 . S
C1375 H1362 0.930 . S
C1375 C1374 1.376 . S
C1375 C1376 1.388 . S
C1376 H1363 0.930 . S
C1376 C1375 1.388 . S
C1376 C1377 1.390 . S
C1377 C1376 1.390 . S
C1377 C1378 1.394 . S
C1377 C1383 1.465 . S
C1378 C1373 1.399 . S
C1378 C1377 1.394 . S
C1378 C1379 1.516 . S
C1379 C1378 1.516 . S
C1379 C1380 1.502 . S
C1379 C1381 1.561 . S
C1379 C1382 1.526 . S
C1380 H1364 0.959 . S
C1380 H1365 0.959 . S
C1380 H1366 0.961 . S
C1380 C1379 1.502 . S
C1381 H1367 0.960 . S
C1381 H1368 0.961 . S
C1381 H1369 0.959 . S
C1381 C1379 1.561 . S
C1382 C1379 1.526 . S
C1382 C1383 1.396 . S
C1382 C1387 1.390 . S
C1383 C1377 1.465 . S
C1383 C1382 1.396 . S
C1383 C1384 1.399 . S
C1384 H1370 0.929 . S
C1384 C1383 1.399 . S
C1384 C1385 1.385 . S
C1385 H1371 0.931 . S
C1385 C1384 1.385 . S
C1385 C1386 1.389 . S
C1386 C1385 1.389 . S
C1386 C1387 1.387 . S
C1387 H1372 0.930 . S
C1387 C1382 1.390 . S
C1387 C1386 1.387 . S
H1388 C1400 0.930 . S
H1389 C1402 0.930 . S
H1390 C1403 0.930 . S
H1391 C1407 0.959 . S
H1392 C1407 0.959 . S
H1393 C1407 0.961 . S
H1394 C1408 0.960 . S
H1395 C1408 0.961 . S
H1396 C1408 0.959 . S
H1397 C1411 0.929 . S
H1398 C1412 0.931 . S
H1399 C1414 0.930 . S
C1400 H1388 0.930 . S
C1400 C1401 1.399 . S
C1400 C1405 1.399 . S
C1401 C1400 1.399 . S
C1401 C1402 1.376 . S
C1402 H1389 0.930 . S
C1402 C1401 1.376 . S
C1402 C1403 1.388 . S
C1403 H1390 0.930 . S
C1403 C1402 1.388 . S
C1403 C1404 1.390 . S
C1404 C1403 1.390 . S
C1404 C1405 1.394 . S
C1404 C1410 1.465 . S
C1405 C1400 1.399 . S
C1405 C1404 1.394 . S
C1405 C1406 1.516 . S
C1406 C1405 1.516 . S
C1406 C1407 1.502 . S
C1406 C1408 1.561 . S
C1406 C1409 1.526 . S
C1407 H1391 0.959 . S
C1407 H1392 0.959 . S
C1407 H1393 0.961 . S
C1407 C1406 1.502 . S
C1408 H1394 0.960 . S
C1408 H1395 0.961 . S
C1408 H1396 0.959 . S
C1408 C1406 1.561 . S
C1409 C1406 1.526 . S
C1409 C1410 1.396 . S
C1409 C1414 1.390 . S
C1410 C1404 1.465 . S
C1410 C1409 1.396 . S
C1410 C1411 1.399 . S
C1411 H1397 0.929 . S
C1411 C1410 1.399 . S
C1411 C1412 1.385 . S
C1412 H1398 0.931 . S
C1412 C1411 1.385 . S
C1412 C1413 1.389 . S
C1413 C1412 1.389 . S
C1413 C1414 1.387 . S
C1414 H1399 0.930 . S
C1414 C1409 1.390 . S
C1414 C1413 1.387 . S
H1415 C1427 0.930 . S
H1416 C1429 0.930 . S
H1417 C1430 0.930 . S
H1418 C1434 0.959 . S
H1419 C1434 0.959 . S
H1420 C1434 0.961 . S
H1421 C1435 0.960 . S
H1422 C1435 0.961 . S
H1423 C1435 0.959 . S
H1424 C1438 0.929 . S
H1425 C1439 0.931 . S
H1426 C1441 0.930 . S
C1427 H1415 0.930 . S
C1427 C1428 1.399 . S
C1427 C1432 1.399 . S
C1428 C1427 1.399 . S
C1428 C1429 1.376 . S
C1429 H1416 0.930 . S
C1429 C1428 1.376 . S
C1429 C1430 1.388 . S
C1430 H1417 0.930 . S
C1430 C1429 1.388 . S
C1430 C1431 1.390 . S
C1431 C1430 1.390 . S
C1431 C1432 1.394 . S
C1431 C1437 1.465 . S
C1432 C1427 1.399 . S
C1432 C1431 1.394 . S
C1432 C1433 1.516 . S
C1433 C1432 1.516 . S
C1433 C1434 1.502 . S
C1433 C1435 1.561 . S
C1433 C1436 1.526 . S
C1434 H1418 0.959 . S
C1434 H1419 0.959 . S
C1434 H1420 0.961 . S
C1434 C1433 1.502 . S
C1435 H1421 0.960 . S
C1435 H1422 0.961 . S
C1435 H1423 0.959 . S
C1435 C1433 1.561 . S
C1436 C1433 1.526 . S
C1436 C1437 1.396 . S
C1436 C1441 1.390 . S
C1437 C1431 1.465 . S
C1437 C1436 1.396 . S
C1437 C1438 1.399 . S
C1438 H1424 0.929 . S
C1438 C1437 1.399 . S
C1438 C1439 1.385 . S
C1439 H1425 0.931 . S
C1439 C1438 1.385 . S
C1439 C1440 1.389 . S
C1440 C1439 1.389 . S
C1440 C1441 1.387 . S
C1441 H1426 0.930 . S
C1441 C1436 1.390 . S
C1441 C1440 1.387 . S
H1442 C1454 0.930 . S
H1443 C1456 0.930 . S
H1444 C1457 0.930 . S
H1445 C1461 0.959 . S
H1446 C1461 0.959 . S
H1447 C1461 0.961 . S
H1448 C1462 0.960 . S
H1449 C1462 0.961 . S
H1450 C1462 0.959 . S
H1451 C1465 0.929 . S
H1452 C1466 0.931 . S
H1453 C1468 0.930 . S
C1454 H1442 0.930 . S
C1454 C1455 1.399 . S
C1454 C1459 1.399 . S
C1455 C1454 1.399 . S
C1455 C1456 1.376 . S
C1456 H1443 0.930 . S
C1456 C1455 1.376 . S
C1456 C1457 1.388 . S
C1457 H1444 0.930 . S
C1457 C1456 1.388 . S
C1457 C1458 1.390 . S
C1458 C1457 1.390 . S
C1458 C1459 1.394 . S
C1458 C1464 1.465 . S
C1459 C1454 1.399 . S
C1459 C1458 1.394 . S
C1459 C1460 1.516 . S
C1460 C1459 1.516 . S
C1460 C1461 1.502 . S
C1460 C1462 1.561 . S
C1460 C1463 1.526 . S
C1461 H1445 0.959 . S
C1461 H1446 0.959 . S
C1461 H1447 0.961 . S
C1461 C1460 1.502 . S
C1462 H1448 0.960 . S
C1462 H1449 0.961 . S
C1462 H1450 0.959 . S
C1462 C1460 1.561 . S
C1463 C1460 1.526 . S
C1463 C1464 1.396 . S
C1463 C1468 1.390 . S
C1464 C1458 1.465 . S
C1464 C1463 1.396 . S
C1464 C1465 1.399 . S
C1465 H1451 0.929 . S
C1465 C1464 1.399 . S
C1465 C1466 1.385 . S
C1466 H1452 0.931 . S
C1466 C1465 1.385 . S
C1466 C1467 1.389 . S
C1467 C1466 1.389 . S
C1467 C1468 1.387 . S
C1468 H1453 0.930 . S
C1468 C1463 1.390 . S
C1468 C1467 1.387 . S
H1469 C1481 0.930 . S
H1470 C1483 0.930 . S
H1471 C1484 0.930 . S
H1472 C1488 0.959 . S
H1473 C1488 0.959 . S
H1474 C1488 0.961 . S
H1475 C1489 0.960 . S
H1476 C1489 0.961 . S
H1477 C1489 0.959 . S
H1478 C1492 0.929 . S
H1479 C1493 0.931 . S
H1480 C1495 0.930 . S
C1481 H1469 0.930 . S
C1481 C1482 1.399 . S
C1481 C1486 1.399 . S
C1482 C1481 1.399 . S
C1482 C1483 1.376 . S
C1483 H1470 0.930 . S
C1483 C1482 1.376 . S
C1483 C1484 1.388 . S
C1484 H1471 0.930 . S
C1484 C1483 1.388 . S
C1484 C1485 1.390 . S
C1485 C1484 1.390 . S
C1485 C1486 1.394 . S
C1485 C1491 1.465 . S
C1486 C1481 1.399 . S
C1486 C1485 1.394 . S
C1486 C1487 1.516 . S
C1487 C1486 1.516 . S
C1487 C1488 1.502 . S
C1487 C1489 1.561 . S
C1487 C1490 1.526 . S
C1488 H1472 0.959 . S
C1488 H1473 0.959 . S
C1488 H1474 0.961 . S
C1488 C1487 1.502 . S
C1489 H1475 0.960 . S
C1489 H1476 0.961 . S
C1489 H1477 0.959 . S
C1489 C1487 1.561 . S
C1490 C1487 1.526 . S
C1490 C1491 1.396 . S
C1490 C1495 1.390 . S
C1491 C1485 1.465 . S
C1491 C1490 1.396 . S
C1491 C1492 1.399 . S
C1492 H1478 0.929 . S
C1492 C1491 1.399 . S
C1492 C1493 1.385 . S
C1493 H1479 0.931 . S
C1493 C1492 1.385 . S
C1493 C1494 1.389 . S
C1494 C1493 1.389 . S
C1494 C1495 1.387 . S
C1495 H1480 0.930 . S
C1495 C1490 1.390 . S
C1495 C1494 1.387 . S
H1496 C1508 0.930 . S
H1497 C1510 0.930 . S
H1498 C1511 0.930 . S
H1499 C1515 0.959 . S
H1500 C1515 0.959 . S
H1501 C1515 0.961 . S
H1502 C1516 0.960 . S
H1503 C1516 0.961 . S
H1504 C1516 0.959 . S
H1505 C1519 0.929 . S
H1506 C1520 0.931 . S
H1507 C1522 0.930 . S
C1508 H1496 0.930 . S
C1508 C1509 1.399 . S
C1508 C1513 1.399 . S
C1509 C1508 1.399 . S
C1509 C1510 1.376 . S
C1510 H1497 0.930 . S
C1510 C1509 1.376 . S
C1510 C1511 1.388 . S
C1511 H1498 0.930 . S
C1511 C1510 1.388 . S
C1511 C1512 1.390 . S
C1512 C1511 1.390 . S
C1512 C1513 1.394 . S
C1512 C1518 1.465 . S
C1513 C1508 1.399 . S
C1513 C1512 1.394 . S
C1513 C1514 1.516 . S
C1514 C1513 1.516 . S
C1514 C1515 1.502 . S
C1514 C1516 1.561 . S
C1514 C1517 1.526 . S
C1515 H1499 0.959 . S
C1515 H1500 0.959 . S
C1515 H1501 0.961 . S
C1515 C1514 1.502 . S
C1516 H1502 0.960 . S
C1516 H1503 0.961 . S
C1516 H1504 0.959 . S
C1516 C1514 1.561 . S
C1517 C1514 1.526 . S
C1517 C1518 1.396 . S
C1517 C1522 1.390 . S
C1518 C1512 1.465 . S
C1518 C1517 1.396 . S
C1518 C1519 1.399 . S
C1519 H1505 0.929 . S
C1519 C1518 1.399 . S
C1519 C1520 1.385 . S
C1520 H1506 0.931 . S
C1520 C1519 1.385 . S
C1520 C1521 1.389 . S
C1521 C1520 1.389 . S
C1521 C1522 1.387 . S
C1522 H1507 0.930 . S
C1522 C1517 1.390 . S
C1522 C1521 1.387 . S
H1523 C1535 0.930 . S
H1524 C1537 0.930 . S
H1525 C1538 0.930 . S
H1526 C1542 0.959 . S
H1527 C1542 0.959 . S
H1528 C1542 0.961 . S
H1529 C1543 0.960 . S
H1530 C1543 0.961 . S
H1531 C1543 0.959 . S
H1532 C1546 0.929 . S
H1533 C1547 0.931 . S
H1534 C1549 0.930 . S
C1535 H1523 0.930 . S
C1535 C1536 1.399 . S
C1535 C1540 1.399 . S
C1536 C1535 1.399 . S
C1536 C1537 1.376 . S
C1537 H1524 0.930 . S
C1537 C1536 1.376 . S
C1537 C1538 1.388 . S
C1538 H1525 0.930 . S
C1538 C1537 1.388 . S
C1538 C1539 1.390 . S
C1539 C1538 1.390 . S
C1539 C1540 1.394 . S
C1539 C1545 1.465 . S
C1540 C1535 1.399 . S
C1540 C1539 1.394 . S
C1540 C1541 1.516 . S
C1541 C1540 1.516 . S
C1541 C1542 1.502 . S
C1541 C1543 1.561 . S
C1541 C1544 1.526 . S
C1542 H1526 0.959 . S
C1542 H1527 0.959 . S
C1542 H1528 0.961 . S
C1542 C1541 1.502 . S
C1543 H1529 0.960 . S
C1543 H1530 0.961 . S
C1543 H1531 0.959 . S
C1543 C1541 1.561 . S
C1544 C1541 1.526 . S
C1544 C1545 1.396 . S
C1544 C1549 1.390 . S
C1545 C1539 1.465 . S
C1545 C1544 1.396 . S
C1545 C1546 1.399 . S
C1546 H1532 0.929 . S
C1546 C1545 1.399 . S
C1546 C1547 1.385 . S
C1547 H1533 0.931 . S
C1547 C1546 1.385 . S
C1547 C1548 1.389 . S
C1548 C1547 1.389 . S
C1548 C1549 1.387 . S
C1549 H1534 0.930 . S
C1549 C1544 1.390 . S
C1549 C1548 1.387 . S
H1550 C1562 0.930 . S
H1551 C1564 0.930 . S
H1552 C1565 0.930 . S
H1553 C1569 0.959 . S
H1554 C1569 0.959 . S
H1555 C1569 0.961 . S
H1556 C1570 0.960 . S
H1557 C1570 0.961 . S
H1558 C1570 0.959 . S
H1559 C1573 0.929 . S
H1560 C1574 0.931 . S
H1561 C1576 0.930 . S
C1562 H1550 0.930 . S
C1562 C1563 1.399 . S
C1562 C1567 1.399 . S
C1563 C1562 1.399 . S
C1563 C1564 1.376 . S
C1564 H1551 0.930 . S
C1564 C1563 1.376 . S
C1564 C1565 1.388 . S
C1565 H1552 0.930 . S
C1565 C1564 1.388 . S
C1565 C1566 1.390 . S
C1566 C1565 1.390 . S
C1566 C1567 1.394 . S
C1566 C1572 1.465 . S
C1567 C1562 1.399 . S
C1567 C1566 1.394 . S
C1567 C1568 1.516 . S
C1568 C1567 1.516 . S
C1568 C1569 1.502 . S
C1568 C1570 1.561 . S
C1568 C1571 1.526 . S
C1569 H1553 0.959 . S
C1569 H1554 0.959 . S
C1569 H1555 0.961 . S
C1569 C1568 1.502 . S
C1570 H1556 0.960 . S
C1570 H1557 0.961 . S
C1570 H1558 0.959 . S
C1570 C1568 1.561 . S
C1571 C1568 1.526 . S
C1571 C1572 1.396 . S
C1571 C1576 1.390 . S
C1572 C1566 1.465 . S
C1572 C1571 1.396 . S
C1572 C1573 1.399 . S
C1573 H1559 0.929 . S
C1573 C1572 1.399 . S
C1573 C1574 1.385 . S
C1574 H1560 0.931 . S
C1574 C1573 1.385 . S
C1574 C1575 1.389 . S
C1575 C1574 1.389 . S
C1575 C1576 1.387 . S
C1576 H1561 0.930 . S
C1576 C1571 1.390 . S
C1576 C1575 1.387 . S
H1577 C1589 0.930 . S
H1578 C1591 0.930 . S
H1579 C1592 0.930 . S
H1580 C1596 0.959 . S
H1581 C1596 0.959 . S
H1582 C1596 0.961 . S
H1583 C1597 0.960 . S
H1584 C1597 0.961 . S
H1585 C1597 0.959 . S
H1586 C1600 0.929 . S
H1587 C1601 0.931 . S
H1588 C1603 0.930 . S
C1589 H1577 0.930 . S
C1589 C1590 1.399 . S
C1589 C1594 1.399 . S
C1590 C1589 1.399 . S
C1590 C1591 1.376 . S
C1591 H1578 0.930 . S
C1591 C1590 1.376 . S
C1591 C1592 1.388 . S
C1592 H1579 0.930 . S
C1592 C1591 1.388 . S
C1592 C1593 1.390 . S
C1593 C1592 1.390 . S
C1593 C1594 1.394 . S
C1593 C1599 1.465 . S
C1594 C1589 1.399 . S
C1594 C1593 1.394 . S
C1594 C1595 1.516 . S
C1595 C1594 1.516 . S
C1595 C1596 1.502 . S
C1595 C1597 1.561 . S
C1595 C1598 1.526 . S
C1596 H1580 0.959 . S
C1596 H1581 0.959 . S
C1596 H1582 0.961 . S
C1596 C1595 1.502 . S
C1597 H1583 0.960 . S
C1597 H1584 0.961 . S
C1597 H1585 0.959 . S
C1597 C1595 1.561 . S
C1598 C1595 1.526 . S
C1598 C1599 1.396 . S
C1598 C1603 1.390 . S
C1599 C1593 1.465 . S
C1599 C1598 1.396 . S
C1599 C1600 1.399 . S
C1600 H1586 0.929 . S
C1600 C1599 1.399 . S
C1600 C1601 1.385 . S
C1601 H1587 0.931 . S
C1601 C1600 1.385 . S
C1601 C1602 1.389 . S
C1602 C1601 1.389 . S
C1602 C1603 1.387 . S
C1603 H1588 0.930 . S
C1603 C1598 1.390 . S
C1603 C1602 1.387 . S
H1604 C1616 0.930 . S
H1605 C1618 0.930 . S
H1606 C1619 0.930 . S
H1607 C1623 0.959 . S
H1608 C1623 0.959 . S
H1609 C1623 0.961 . S
H1610 C1624 0.960 . S
H1611 C1624 0.961 . S
H1612 C1624 0.959 . S
H1613 C1627 0.929 . S
H1614 C1628 0.931 . S
H1615 C1630 0.930 . S
C1616 H1604 0.930 . S
C1616 C1617 1.399 . S
C1616 C1621 1.399 . S
C1617 C1616 1.399 . S
C1617 C1618 1.376 . S
C1618 H1605 0.930 . S
C1618 C1617 1.376 . S
C1618 C1619 1.388 . S
C1619 H1606 0.930 . S
C1619 C1618 1.388 . S
C1619 C1620 1.390 . S
C1620 C1619 1.390 . S
C1620 C1621 1.394 . S
C1620 C1626 1.465 . S
C1621 C1616 1.399 . S
C1621 C1620 1.394 . S
C1621 C1622 1.516 . S
C1622 C1621 1.516 . S
C1622 C1623 1.502 . S
C1622 C1624 1.561 . S
C1622 C1625 1.526 . S
C1623 H1607 0.959 . S
C1623 H1608 0.959 . S
C1623 H1609 0.961 . S
C1623 C1622 1.502 . S
C1624 H1610 0.960 . S
C1624 H1611 0.961 . S
C1624 H1612 0.959 . S
C1624 C1622 1.561 . S
C1625 C1622 1.526 . S
C1625 C1626 1.396 . S
C1625 C1630 1.390 . S
C1626 C1620 1.465 . S
C1626 C1625 1.396 . S
C1626 C1627 1.399 . S
C1627 H1613 0.929 . S
C1627 C1626 1.399 . S
C1627 C1628 1.385 . S
C1628 H1614 0.931 . S
C1628 C1627 1.385 . S
C1628 C1629 1.389 . S
C1629 C1628 1.389 . S
C1629 C1630 1.387 . S
C1630 H1615 0.930 . S
C1630 C1625 1.390 . S
C1630 C1629 1.387 . S
H1631 C1643 0.930 . S
H1632 C1645 0.930 . S
H1633 C1646 0.930 . S
H1634 C1650 0.959 . S
H1635 C1650 0.959 . S
H1636 C1650 0.961 . S
H1637 C1651 0.960 . S
H1638 C1651 0.961 . S
H1639 C1651 0.959 . S
H1640 C1654 0.929 . S
H1641 C1655 0.931 . S
H1642 C1657 0.930 . S
C1643 H1631 0.930 . S
C1643 C1644 1.399 . S
C1643 C1648 1.399 . S
C1644 C1643 1.399 . S
C1644 C1645 1.376 . S
C1645 H1632 0.930 . S
C1645 C1644 1.376 . S
C1645 C1646 1.388 . S
C1646 H1633 0.930 . S
C1646 C1645 1.388 . S
C1646 C1647 1.390 . S
C1647 C1646 1.390 . S
C1647 C1648 1.394 . S
C1647 C1653 1.465 . S
C1648 C1643 1.399 . S
C1648 C1647 1.394 . S
C1648 C1649 1.516 . S
C1649 C1648 1.516 . S
C1649 C1650 1.502 . S
C1649 C1651 1.561 . S
C1649 C1652 1.526 . S
C1650 H1634 0.959 . S
C1650 H1635 0.959 . S
C1650 H1636 0.961 . S
C1650 C1649 1.502 . S
C1651 H1637 0.960 . S
C1651 H1638 0.961 . S
C1651 H1639 0.959 . S
C1651 C1649 1.561 . S
C1652 C1649 1.526 . S
C1652 C1653 1.396 . S
C1652 C1657 1.390 . S
C1653 C1647 1.465 . S
C1653 C1652 1.396 . S
C1653 C1654 1.399 . S
C1654 H1640 0.929 . S
C1654 C1653 1.399 . S
C1654 C1655 1.385 . S
C1655 H1641 0.931 . S
C1655 C1654 1.385 . S
C1655 C1656 1.389 . S
C1656 C1655 1.389 . S
C1656 C1657 1.387 . S
C1657 H1642 0.930 . S
C1657 C1652 1.390 . S
C1657 C1656 1.387 . S
H1658 C1670 0.930 . S
H1659 C1672 0.930 . S
H1660 C1673 0.930 . S
H1661 C1677 0.959 . S
H1662 C1677 0.959 . S
H1663 C1677 0.961 . S
H1664 C1678 0.960 . S
H1665 C1678 0.961 . S
H1666 C1678 0.959 . S
H1667 C1681 0.929 . S
H1668 C1682 0.931 . S
H1669 C1684 0.930 . S
C1670 H1658 0.930 . S
C1670 C1671 1.399 . S
C1670 C1675 1.399 . S
C1671 C1670 1.399 . S
C1671 C1672 1.376 . S
C1672 H1659 0.930 . S
C1672 C1671 1.376 . S
C1672 C1673 1.388 . S
C1673 H1660 0.930 . S
C1673 C1672 1.388 . S
C1673 C1674 1.390 . S
C1674 C1673 1.390 . S
C1674 C1675 1.394 . S
C1674 C1680 1.465 . S
C1675 C1670 1.399 . S
C1675 C1674 1.394 . S
C1675 C1676 1.516 . S
C1676 C1675 1.516 . S
C1676 C1677 1.502 . S
C1676 C1678 1.561 . S
C1676 C1679 1.526 . S
C1677 H1661 0.959 . S
C1677 H1662 0.959 . S
C1677 H1663 0.961 . S
C1677 C1676 1.502 . S
C1678 H1664 0.960 . S
C1678 H1665 0.961 . S
C1678 H1666 0.959 . S
C1678 C1676 1.561 . S
C1679 C1676 1.526 . S
C1679 C1680 1.396 . S
C1679 C1684 1.390 . S
C1680 C1674 1.465 . S
C1680 C1679 1.396 . S
C1680 C1681 1.399 . S
C1681 H1667 0.929 . S
C1681 C1680 1.399 . S
C1681 C1682 1.385 . S
C1682 H1668 0.931 . S
C1682 C1681 1.385 . S
C1682 C1683 1.389 . S
C1683 C1682 1.389 . S
C1683 C1684 1.387 . S
C1684 H1669 0.930 . S
C1684 C1679 1.390 . S
C1684 C1683 1.387 . S
H1685 C1697 0.930 . S
H1686 C1699 0.930 . S
H1687 C1700 0.930 . S
H1688 C1704 0.959 . S
H1689 C1704 0.959 . S
H1690 C1704 0.961 . S
H1691 C1705 0.960 . S
H1692 C1705 0.961 . S
H1693 C1705 0.959 . S
H1694 C1708 0.929 . S
H1695 C1709 0.931 . S
H1696 C1711 0.930 . S
C1697 H1685 0.930 . S
C1697 C1698 1.399 . S
C1697 C1702 1.399 . S
C1698 C1697 1.399 . S
C1698 C1699 1.376 . S
C1699 H1686 0.930 . S
C1699 C1698 1.376 . S
C1699 C1700 1.388 . S
C1700 H1687 0.930 . S
C1700 C1699 1.388 . S
C1700 C1701 1.390 . S
C1701 C1700 1.390 . S
C1701 C1702 1.394 . S
C1701 C1707 1.465 . S
C1702 C1697 1.399 . S
C1702 C1701 1.394 . S
C1702 C1703 1.516 . S
C1703 C1702 1.516 . S
C1703 C1704 1.502 . S
C1703 C1705 1.561 . S
C1703 C1706 1.526 . S
C1704 H1688 0.959 . S
C1704 H1689 0.959 . S
C1704 H1690 0.961 . S
C1704 C1703 1.502 . S
C1705 H1691 0.960 . S
C1705 H1692 0.961 . S
C1705 H1693 0.959 . S
C1705 C1703 1.561 . S
C1706 C1703 1.526 . S
C1706 C1707 1.396 . S
C1706 C1711 1.390 . S
C1707 C1701 1.465 . S
C1707 C1706 1.396 . S
C1707 C1708 1.399 . S
C1708 H1694 0.929 . S
C1708 C1707 1.399 . S
C1708 C1709 1.385 . S
C1709 H1695 0.931 . S
C1709 C1708 1.385 . S
C1709 C1710 1.389 . S
C1710 C1709 1.389 . S
C1710 C1711 1.387 . S
C1711 H1696 0.930 . S
C1711 C1706 1.390 . S
C1711 C1710 1.387 . S
C861 C38 2.137 . S
C873 C251 2.149 . S
C888 C82 0.523 . S
C900 C294 0.562 . S
C915 C347 0.549 . S
C927 C135 0.480 . S
C942 C188 1.309 . S
C954 C410 1.330 . S
C969 C250 2.148 . S
C981 C39 2.139 . S
C996 C552 0.561 . S
C1008 C446 0.558 . S
C1023 C340 0.530 . S
C1035 C128 0.481 . S
C1050 C499 1.331 . S
C1062 C621 1.318 . S
C1077 C674 1.365 . S
C1089 C764 1.341 . S
C1104 C453 0.520 . S
C1116 C559 0.489 . S
C1131 C718 0.488 . S
C1143 C824 0.532 . S
C1158 C622 1.348 . S
C1170 C506 1.336 . S
C1185 C771 1.355 . S
C1197 C675 1.334 . S
C1212 C75 0.541 . S
C1224 C287 0.483 . S
C1239 C711 0.482 . S
C1251 C817 0.548 . S
C1266 C409 1.333 . S
C1278 C181 1.347 . S
C1293 C29 1.225 . S
C1305 C393 1.169 . S
C1320 C234 1.465 . S
C1332 C91 1.437 . S
C1347 C303 1.983 . S
C1359 C144 1.987 . S
C1374 C197 1.658 . S
C1386 C356 1.640 . S
C1401 C22 1.225 . S
C1413 C612 1.177 . S
C1428 C463 1.465 . S
C1440 C241 1.433 . S
C1455 C569 1.983 . S
C1467 C145 1.984 . S
C1482 C516 1.662 . S
C1494 C357 1.641 . S
C1509 C665 1.184 . S
C1521 C605 1.235 . S
C1536 C781 1.499 . S
C1548 C462 1.463 . S
C1563 C568 1.989 . S
C1575 C727 1.996 . S
C1590 C833 1.639 . S
C1602 C515 1.663 . S
C1617 C400 1.240 . S
C1629 C658 1.184 . S
C1644 C780 1.472 . S
C1656 C92 1.482 . S
C1671 C304 1.987 . S
C1683 C728 1.993 . S
C1698 C834 1.639 . S
C1710 C198 1.659 . S
