# Generated by pormake.
# Topology yfq, (5)-cn, num edge types: 1
# Building blocks:
#     Node 0, Type 0, BuildingBlock: XOMCOT_clean_sbu_1, # of connection points: 5
#     Node 1, Type 0, BuildingBlock: XOMCOT_clean_sbu_1, # of connection points: 5
#     Node 2, Type 0, BuildingBlock: XOMCOT_clean_sbu_1, # of connection points: 5
#     Node 3, Type 0, BuildingBlock: XOMCOT_clean_sbu_1, # of connection points: 5
#     Node 4, Type 0, BuildingBlock: XOMCOT_clean_sbu_1, # of connection points: 5
#     Node 5, Type 0, BuildingBlock: XOMCOT_clean_sbu_1, # of connection points: 5
#     Node 6, Type 0, BuildingBlock: XOMCOT_clean_sbu_1, # of connection points: 5
#     Node 7, Type 0, BuildingBlock: XOMCOT_clean_sbu_1, # of connection points: 5
#     Node 8, Type 0, BuildingBlock: XOMCOT_clean_sbu_1, # of connection points: 5
#     Node 9, Type 0, BuildingBlock: XOMCOT_clean_sbu_1, # of connection points: 5
#     Node 10, Type 0, BuildingBlock: XOMCOT_clean_sbu_1, # of connection points: 5
#     Node 11, Type 0, BuildingBlock: XOMCOT_clean_sbu_1, # of connection points: 5
#     Node 12, Type 0, BuildingBlock: XOMCOT_clean_sbu_1, # of connection points: 5
#     Node 13, Type 0, BuildingBlock: XOMCOT_clean_sbu_1, # of connection points: 5
#     Node 14, Type 0, BuildingBlock: XOMCOT_clean_sbu_1, # of connection points: 5
#     Node 15, Type 0, BuildingBlock: XOMCOT_clean_sbu_1, # of connection points: 5
#     Node 16, Type 0, BuildingBlock: XOMCOT_clean_sbu_1, # of connection points: 5
#     Node 17, Type 0, BuildingBlock: XOMCOT_clean_sbu_1, # of connection points: 5
#     Node 18, Type 0, BuildingBlock: XOMCOT_clean_sbu_1, # of connection points: 5
#     Node 19, Type 0, BuildingBlock: XOMCOT_clean_sbu_1, # of connection points: 5
#     Node 20, Type 0, BuildingBlock: XOMCOT_clean_sbu_1, # of connection points: 5
#     Node 21, Type 0, BuildingBlock: XOMCOT_clean_sbu_1, # of connection points: 5
#     Node 22, Type 0, BuildingBlock: XOMCOT_clean_sbu_1, # of connection points: 5
#     Node 23, Type 0, BuildingBlock: XOMCOT_clean_sbu_1, # of connection points: 5
#     Node 24, Type 0, BuildingBlock: XOMCOT_clean_sbu_1, # of connection points: 5
#     Node 25, Type 0, BuildingBlock: XOMCOT_clean_sbu_1, # of connection points: 5
#     Node 26, Type 0, BuildingBlock: XOMCOT_clean_sbu_1, # of connection points: 5
#     Node 27, Type 0, BuildingBlock: XOMCOT_clean_sbu_1, # of connection points: 5
#     Node 28, Type 0, BuildingBlock: XOMCOT_clean_sbu_1, # of connection points: 5
#     Node 29, Type 0, BuildingBlock: XOMCOT_clean_sbu_1, # of connection points: 5
#     Node 30, Type 0, BuildingBlock: XOMCOT_clean_sbu_1, # of connection points: 5
#     Node 31, Type 0, BuildingBlock: XOMCOT_clean_sbu_1, # of connection points: 5
#     Edge 32, Type (0, 0), BuildingBlock: TEMPAE_clean_linker_10, # of connection points: 2
#     Edge 33, Type (0, 0), BuildingBlock: TEMPAE_clean_linker_10, # of connection points: 2
#     Edge 34, Type (0, 0), BuildingBlock: TEMPAE_clean_linker_10, # of connection points: 2
#     Edge 35, Type (0, 0), BuildingBlock: TEMPAE_clean_linker_10, # of connection points: 2
#     Edge 36, Type (0, 0), BuildingBlock: TEMPAE_clean_linker_10, # of connection points: 2
#     Edge 37, Type (0, 0), BuildingBlock: TEMPAE_clean_linker_10, # of connection points: 2
#     Edge 38, Type (0, 0), BuildingBlock: TEMPAE_clean_linker_10, # of connection points: 2
#     Edge 39, Type (0, 0), BuildingBlock: TEMPAE_clean_linker_10, # of connection points: 2
#     Edge 40, Type (0, 0), BuildingBlock: TEMPAE_clean_linker_10, # of connection points: 2
#     Edge 41, Type (0, 0), BuildingBlock: TEMPAE_clean_linker_10, # of connection points: 2
#     Edge 42, Type (0, 0), BuildingBlock: TEMPAE_clean_linker_10, # of connection points: 2
#     Edge 43, Type (0, 0), BuildingBlock: TEMPAE_clean_linker_10, # of connection points: 2
#     Edge 44, Type (0, 0), BuildingBlock: TEMPAE_clean_linker_10, # of connection points: 2
#     Edge 45, Type (0, 0), BuildingBlock: TEMPAE_clean_linker_10, # of connection points: 2
#     Edge 46, Type (0, 0), BuildingBlock: TEMPAE_clean_linker_10, # of connection points: 2
#     Edge 47, Type (0, 0), BuildingBlock: TEMPAE_clean_linker_10, # of connection points: 2
#     Edge 48, Type (0, 0), BuildingBlock: TEMPAE_clean_linker_10, # of connection points: 2
#     Edge 49, Type (0, 0), BuildingBlock: TEMPAE_clean_linker_10, # of connection points: 2
#     Edge 50, Type (0, 0), BuildingBlock: TEMPAE_clean_linker_10, # of connection points: 2
#     Edge 51, Type (0, 0), BuildingBlock: TEMPAE_clean_linker_10, # of connection points: 2
#     Edge 52, Type (0, 0), BuildingBlock: TEMPAE_clean_linker_10, # of connection points: 2
#     Edge 53, Type (0, 0), BuildingBlock: TEMPAE_clean_linker_10, # of connection points: 2
#     Edge 54, Type (0, 0), BuildingBlock: TEMPAE_clean_linker_10, # of connection points: 2
#     Edge 55, Type (0, 0), BuildingBlock: TEMPAE_clean_linker_10, # of connection points: 2
#     Edge 56, Type (0, 0), BuildingBlock: TEMPAE_clean_linker_10, # of connection points: 2
#     Edge 57, Type (0, 0), BuildingBlock: TEMPAE_clean_linker_10, # of connection points: 2
#     Edge 58, Type (0, 0), BuildingBlock: TEMPAE_clean_linker_10, # of connection points: 2
#     Edge 59, Type (0, 0), BuildingBlock: TEMPAE_clean_linker_10, # of connection points: 2
#     Edge 60, Type (0, 0), BuildingBlock: TEMPAE_clean_linker_10, # of connection points: 2
#     Edge 61, Type (0, 0), BuildingBlock: TEMPAE_clean_linker_10, # of connection points: 2
#     Edge 62, Type (0, 0), BuildingBlock: TEMPAE_clean_linker_10, # of connection points: 2
#     Edge 63, Type (0, 0), BuildingBlock: TEMPAE_clean_linker_10, # of connection points: 2
#     Edge 64, Type (0, 0), BuildingBlock: TEMPAE_clean_linker_10, # of connection points: 2
#     Edge 65, Type (0, 0), BuildingBlock: TEMPAE_clean_linker_10, # of connection points: 2
#     Edge 66, Type (0, 0), BuildingBlock: TEMPAE_clean_linker_10, # of connection points: 2
#     Edge 67, Type (0, 0), BuildingBlock: TEMPAE_clean_linker_10, # of connection points: 2
#     Edge 68, Type (0, 0), BuildingBlock: TEMPAE_clean_linker_10, # of connection points: 2
#     Edge 69, Type (0, 0), BuildingBlock: TEMPAE_clean_linker_10, # of connection points: 2
#     Edge 70, Type (0, 0), BuildingBlock: TEMPAE_clean_linker_10, # of connection points: 2
#     Edge 71, Type (0, 0), BuildingBlock: TEMPAE_clean_linker_10, # of connection points: 2
#     Edge 72, Type (0, 0), BuildingBlock: TEMPAE_clean_linker_10, # of connection points: 2
#     Edge 73, Type (0, 0), BuildingBlock: TEMPAE_clean_linker_10, # of connection points: 2
#     Edge 74, Type (0, 0), BuildingBlock: TEMPAE_clean_linker_10, # of connection points: 2
#     Edge 75, Type (0, 0), BuildingBlock: TEMPAE_clean_linker_10, # of connection points: 2
#     Edge 76, Type (0, 0), BuildingBlock: TEMPAE_clean_linker_10, # of connection points: 2
#     Edge 77, Type (0, 0), BuildingBlock: TEMPAE_clean_linker_10, # of connection points: 2
#     Edge 78, Type (0, 0), BuildingBlock: TEMPAE_clean_linker_10, # of connection points: 2
#     Edge 79, Type (0, 0), BuildingBlock: TEMPAE_clean_linker_10, # of connection points: 2
#     Edge 80, Type (0, 0), BuildingBlock: TEMPAE_clean_linker_10, # of connection points: 2
#     Edge 81, Type (0, 0), BuildingBlock: TEMPAE_clean_linker_10, # of connection points: 2
#     Edge 82, Type (0, 0), BuildingBlock: TEMPAE_clean_linker_10, # of connection points: 2
#     Edge 83, Type (0, 0), BuildingBlock: TEMPAE_clean_linker_10, # of connection points: 2
#     Edge 84, Type (0, 0), BuildingBlock: TEMPAE_clean_linker_10, # of connection points: 2
#     Edge 85, Type (0, 0), BuildingBlock: TEMPAE_clean_linker_10, # of connection points: 2
#     Edge 86, Type (0, 0), BuildingBlock: TEMPAE_clean_linker_10, # of connection points: 2
#     Edge 87, Type (0, 0), BuildingBlock: TEMPAE_clean_linker_10, # of connection points: 2
#     Edge 88, Type (0, 0), BuildingBlock: TEMPAE_clean_linker_10, # of connection points: 2
#     Edge 89, Type (0, 0), BuildingBlock: TEMPAE_clean_linker_10, # of connection points: 2
#     Edge 90, Type (0, 0), BuildingBlock: TEMPAE_clean_linker_10, # of connection points: 2
#     Edge 91, Type (0, 0), BuildingBlock: TEMPAE_clean_linker_10, # of connection points: 2
#     Edge 92, Type (0, 0), BuildingBlock: TEMPAE_clean_linker_10, # of connection points: 2
#     Edge 93, Type (0, 0), BuildingBlock: TEMPAE_clean_linker_10, # of connection points: 2
#     Edge 94, Type (0, 0), BuildingBlock: TEMPAE_clean_linker_10, # of connection points: 2
#     Edge 95, Type (0, 0), BuildingBlock: TEMPAE_clean_linker_10, # of connection points: 2
#     Edge 96, Type (0, 0), BuildingBlock: TEMPAE_clean_linker_10, # of connection points: 2
#     Edge 97, Type (0, 0), BuildingBlock: TEMPAE_clean_linker_10, # of connection points: 2
#     Edge 98, Type (0, 0), BuildingBlock: TEMPAE_clean_linker_10, # of connection points: 2
#     Edge 99, Type (0, 0), BuildingBlock: TEMPAE_clean_linker_10, # of connection points: 2
#     Edge 100, Type (0, 0), BuildingBlock: TEMPAE_clean_linker_10, # of connection points: 2
#     Edge 101, Type (0, 0), BuildingBlock: TEMPAE_clean_linker_10, # of connection points: 2
#     Edge 102, Type (0, 0), BuildingBlock: TEMPAE_clean_linker_10, # of connection points: 2
#     Edge 103, Type (0, 0), BuildingBlock: TEMPAE_clean_linker_10, # of connection points: 2
#     Edge 104, Type (0, 0), BuildingBlock: TEMPAE_clean_linker_10, # of connection points: 2
#     Edge 105, Type (0, 0), BuildingBlock: TEMPAE_clean_linker_10, # of connection points: 2
#     Edge 106, Type (0, 0), BuildingBlock: TEMPAE_clean_linker_10, # of connection points: 2
#     Edge 107, Type (0, 0), BuildingBlock: TEMPAE_clean_linker_10, # of connection points: 2
#     Edge 108, Type (0, 0), BuildingBlock: TEMPAE_clean_linker_10, # of connection points: 2
#     Edge 109, Type (0, 0), BuildingBlock: TEMPAE_clean_linker_10, # of connection points: 2
#     Edge 110, Type (0, 0), BuildingBlock: TEMPAE_clean_linker_10, # of connection points: 2
#     Edge 111, Type (0, 0), BuildingBlock: TEMPAE_clean_linker_10, # of connection points: 2
# Relax obj value: 0.542
# Max RMSD: 0.297
# Mean RMSD: 0.297
data_MOF--net-yfq--node1-XOMCOT_clean_sbu_1--edge1-TEMPAE_clean_linker_10
_symmetry_space_group_name_H-M    P1
_symmetry_Int_Tables_number       1
_symmetry_cell_setting            triclinic
loop_
_symmetry_equiv_pos_as_xyz
'x, y, z'
_cell_length_a     52.862715
_cell_length_b     52.871852
_cell_length_c     60.495034
_cell_angle_alpha  89.994181
_cell_angle_beta   90.007195
_cell_angle_gamma 89.970898
loop_
_atom_site_label
_atom_site_type_symbol
_atom_site_fract_x
_atom_site_fract_y
_atom_site_fract_z
_atom_type_partial_charge
C0 C 0.18172 0.2001 0.29314 0.0
C1 C 0.18512 0.21885 0.30844 0.0
N2 N 0.16556 0.23509 0.30685 0.0
N3 N 0.16017 0.20445 0.28193 0.0
C4 C 0.15057 0.22588 0.29063 0.0
H5 H 0.1942 0.18424 0.29019 0.0
Co6 Co 0.15129 0.18326 0.25935 0.0
C7 C 0.09891 0.19538 0.24507 0.0
O8 O 0.09522 0.17085 0.24367 0.0
N9 N 0.1441 0.16101 0.23601 0.0
C10 C 0.13604 0.12754 0.2149 0.0
C11 C 0.14306 0.13547 0.23564 0.0
C12 C 0.13868 0.16803 0.21506 0.0
N13 N 0.13318 0.1481 0.20205 0.0
O14 O 0.17145 0.20364 0.24028 0.0
H15 H 0.14665 0.12309 0.24942 0.0
H16 H 0.13731 0.18755 0.2098 0.0
O17 O 0.12044 0.20377 0.25181 0.0
C18 C 0.1939 0.19593 0.23661 0.0
O19 O 0.19917 0.17195 0.23994 0.0
N20 N 0.13353 0.16354 0.28003 0.0
C21 C 0.11586 0.13804 0.31723 0.0
C22 C 0.10269 0.15881 0.30879 0.0
C23 C 0.11229 0.17184 0.29071 0.0
C24 C 0.147 0.14375 0.2885 0.0
C25 C 0.1384 0.13053 0.30705 0.0
H26 H 0.10347 0.18957 0.28664 0.0
H27 H 0.1652 0.13899 0.28145 0.0
H28 H 0.13314 0.23459 0.28515 0.0
H29 H 0.20046 0.22003 0.32025 0.0
H30 H 0.13287 0.10819 0.20976 0.0
H31 H 0.08597 0.16599 0.31706 0.0
H32 H 0.14954 0.11511 0.31373 0.0
C33 C 0.08597 0.9133 0.56189 0.0
C34 C 0.06689 0.9191 0.57641 0.0
N35 N 0.04596 0.90667 0.56994 0.0
N36 N 0.07704 0.89727 0.54645 0.0
C37 C 0.0526 0.89339 0.55181 0.0
H38 H 0.10477 0.92136 0.56177 0.0
Co39 Co 0.09445 0.89113 0.52082 0.0
C40 C 0.08099 0.83965 0.50591 0.0
O41 O 0.10514 0.83712 0.50122 0.0
N42 N 0.11248 0.88695 0.49417 0.0
C43 C 0.14159 0.88858 0.46764 0.0
C44 C 0.13686 0.89256 0.48967 0.0
C45 C 0.10254 0.88086 0.47423 0.0
N46 N 0.11999 0.88102 0.45792 0.0
O47 O 0.07104 0.9129 0.50615 0.0
H48 H 0.15032 0.90036 0.50111 0.0
H49 H 0.0828 0.87626 0.47181 0.0
O50 O 0.073 0.86084 0.51375 0.0
C51 C 0.0771 0.93602 0.50356 0.0
O52 O 0.10073 0.94283 0.5066 0.0
N53 N 0.11734 0.87064 0.5373 0.0
C54 C 0.14874 0.84184 0.56455 0.0
C55 C 0.12346 0.83517 0.56147 0.0
C56 C 0.10793 0.85027 0.54857 0.0
C57 C 0.14133 0.87879 0.54186 0.0
C58 C 0.15761 0.86439 0.55523 0.0
H59 H 0.08803 0.84583 0.5484 0.0
H60 H 0.14753 0.8971 0.53625 0.0
H61 H 0.03949 0.88265 0.54177 0.0
H62 H 0.06808 0.93193 0.59032 0.0
H63 H 0.15936 0.89202 0.45929 0.0
H64 H 0.11541 0.81888 0.56978 0.0
H65 H 0.17662 0.87099 0.55856 0.0
C66 C 0.32575 0.7979 0.7828 0.0
C67 C 0.31714 0.78196 0.79911 0.0
N68 N 0.33287 0.76193 0.80022 0.0
N69 N 0.34678 0.78795 0.77373 0.0
C70 C 0.35043 0.76589 0.78441 0.0
H71 H 0.31771 0.81598 0.77826 0.0
Co72 Co 0.36564 0.80334 0.75184 0.0
C73 C 0.40425 0.76469 0.73963 0.0
O74 O 0.39514 0.76302 0.71948 0.0
N75 N 0.38448 0.81915 0.72954 0.0
C76 C 0.41741 0.83375 0.71052 0.0
C77 C 0.40959 0.82398 0.73039 0.0
C78 C 0.37739 0.82666 0.7091 0.0
N79 N 0.39712 0.83544 0.69722 0.0
O80 O 0.34709 0.78349 0.73096 0.0
H81 H 0.42164 0.82001 0.74441 0.0
H82 H 0.35842 0.82485 0.70264 0.0
O83 O 0.3927 0.77813 0.75396 0.0
C84 C 0.32537 0.7926 0.72628 0.0
O85 O 0.32124 0.81668 0.73026 0.0
N86 N 0.38191 0.82289 0.77346 0.0
C87 C 0.4021 0.85143 0.8079 0.0
C88 C 0.40452 0.82508 0.80767 0.0
C89 C 0.39416 0.8112 0.7905 0.0
C90 C 0.37922 0.84856 0.77327 0.0
C91 C 0.3895 0.86333 0.79031 0.0
H92 H 0.39562 0.79089 0.79136 0.0
H93 H 0.36888 0.85755 0.75999 0.0
H94 H 0.36614 0.75332 0.78115 0.0
H95 H 0.30147 0.78559 0.81019 0.0
H96 H 0.43655 0.83898 0.70607 0.0
H97 H 0.41453 0.81512 0.82065 0.0
H98 H 0.3873 0.88369 0.78992 0.0
C99 C 0.45051 0.10392 0.04027 0.0
C100 C 0.47045 0.09811 0.05379 0.0
N101 N 0.48959 0.11396 0.04901 0.0
N102 N 0.45698 0.1234 0.0271 0.0
C103 C 0.48095 0.12929 0.0328 0.0
H104 H 0.43266 0.09398 0.03942 0.0
Co105 Co 0.43642 0.13187 0.00389 0.0
C106 C 0.44874 0.18402 0.98927 0.0
O107 O 0.4243 0.18714 0.98636 0.0
N108 N 0.41494 0.13849 0.97979 0.0
C109 C 0.38238 0.14102 0.95654 0.0
C110 C 0.38942 0.13777 0.97821 0.0
C111 C 0.42287 0.14193 0.95876 0.0
N112 N 0.40349 0.14364 0.94438 0.0
O113 O 0.4573 0.11115 0.98559 0.0
H114 H 0.3764 0.13436 0.99155 0.0
H115 H 0.4426 0.14245 0.95401 0.0
O116 O 0.45707 0.16269 -0.00342 0.0
C117 C 0.44891 0.08889 0.98224 0.0
O118 O 0.42546 0.08367 0.98779 0.0
N119 N 0.41595 0.15017 0.0237 0.0
C120 C 0.38768 0.17036 0.05841 0.0
C121 C 0.41 0.18208 0.05136 0.0
C122 C 0.42422 0.1713 0.0345 0.0
C123 C 0.39497 0.13777 0.03115 0.0
C124 C 0.38025 0.14775 0.04826 0.0
H125 H 0.44263 0.17923 0.03135 0.0
H126 H 0.39022 0.11944 0.0244 0.0
H127 H 0.49219 0.14362 0.02464 0.0
H128 H 0.4709 0.08334 0.06619 0.0
H129 H 0.36324 0.14116 0.95019 0.0
H130 H 0.41728 0.19866 0.05974 0.0
H131 H 0.36367 0.13757 0.05386 0.0
C132 C 0.14211 0.80894 0.19884 0.0
C133 C 0.14907 0.78994 0.18475 0.0
N134 N 0.13532 0.76931 0.18972 0.0
N135 N 0.12406 0.80039 0.21267 0.0
C136 C 0.12012 0.77612 0.20667 0.0
H137 H 0.15014 0.82773 0.19938 0.0
Co138 Co 0.11387 0.82004 0.2361 0.0
C139 C 0.06574 0.79883 0.25458 0.0
O140 O 0.06005 0.82155 0.26174 0.0
N141 N 0.1053 0.84125 0.26013 0.0
C142 C 0.09463 0.87434 0.28093 0.0
C143 C 0.09653 0.86531 0.25976 0.0
C144 C 0.10861 0.83625 0.28192 0.0
N145 N 0.10229 0.85609 0.29486 0.0
O146 O 0.13847 0.8026 0.25379 0.0
H147 H 0.09173 0.87606 0.24524 0.0
H148 H 0.11596 0.81855 0.28819 0.0
O149 O 0.08681 0.79518 0.24438 0.0
C150 C 0.16008 0.81305 0.25167 0.0
O151 O 0.16094 0.83589 0.24312 0.0
N152 N 0.092 0.83735 0.21674 0.0
C153 C 0.06804 0.86144 0.18135 0.0
C154 C 0.05739 0.83995 0.19121 0.0
C155 C 0.06998 0.82779 0.20839 0.0
C156 C 0.10272 0.8582 0.20729 0.0
C157 C 0.09091 0.87077 0.18977 0.0
H158 H 0.06249 0.80991 0.21369 0.0
H159 H 0.12095 0.86471 0.21308 0.0
H160 H 0.10703 0.76351 0.21489 0.0
H161 H 0.16289 0.79128 0.1716 0.0
H162 H 0.08806 0.89296 0.28569 0.0
H163 H 0.03983 0.83195 0.1852 0.0
H164 H 0.10015 0.88693 0.18232 0.0
C165 C 0.46042 0.93211 0.4504 0.0
C166 C 0.47842 0.93292 0.43412 0.0
N167 N 0.48955 0.91006 0.43305 0.0
N168 N 0.46033 0.90895 0.45967 0.0
C169 C 0.47835 0.89585 0.44881 0.0
H170 H 0.44772 0.94728 0.45494 0.0
Co171 Co 0.43763 0.9013 0.48164 0.0
C172 C 0.44697 0.84872 0.49683 0.0
O173 O 0.42223 0.84703 0.49829 0.0
N174 N 0.41394 0.89537 0.50444 0.0
C175 C 0.37936 0.88803 0.52451 0.0
C176 C 0.38841 0.89344 0.50375 0.0
C177 C 0.41974 0.89196 0.52604 0.0
N178 N 0.39912 0.88714 0.53844 0.0
O179 O 0.45763 0.92174 0.50108 0.0
H180 H 0.37674 0.89537 0.48928 0.0
H181 H 0.43889 0.89184 0.5324 0.0
O182 O 0.45686 0.86979 0.49043 0.0
C183 C 0.44975 0.94423 0.50439 0.0
O184 O 0.42606 0.94958 0.4998 0.0
N185 N 0.41833 0.88323 0.46051 0.0
C186 C 0.39121 0.86152 0.42584 0.0
C187 C 0.41289 0.84981 0.43413 0.0
C188 C 0.42658 0.86131 0.45089 0.0
C189 C 0.39836 0.89591 0.4514 0.0
C190 C 0.3842 0.8852 0.43419 0.0
H191 H 0.44439 0.85282 0.45521 0.0
H192 H 0.39352 0.91456 0.45743 0.0
H193 H 0.48285 0.87623 0.45203 0.0
H194 H 0.48214 0.94867 0.42316 0.0
H195 H 0.3598 0.88486 0.52904 0.0
H196 H 0.41977 0.83223 0.42713 0.0
H197 H 0.36806 0.89526 0.42752 0.0
C198 C 0.34409 0.18886 0.69007 0.0
C199 C 0.3331 0.20491 0.67499 0.0
N200 N 0.34708 0.22617 0.67411 0.0
N201 N 0.36482 0.20003 0.69857 0.0
C202 C 0.36624 0.2227 0.68852 0.0
H203 H 0.33711 0.17049 0.69503 0.0
Co204 Co 0.38291 0.18723 0.72198 0.0
C205 C 0.42233 0.22533 0.73117 0.0
O206 O 0.41211 0.22963 0.75061 0.0
N207 N 0.40081 0.17397 0.74595 0.0
C208 C 0.43186 0.15901 0.76706 0.0
C209 C 0.42506 0.16583 0.74596 0.0
C210 C 0.39331 0.1719 0.76718 0.0
N211 N 0.41186 0.16301 0.78036 0.0
O212 O 0.3653 0.21086 0.7403 0.0
H213 H 0.43731 0.1656 0.73164 0.0
H214 H 0.37473 0.17711 0.77303 0.0
O215 O 0.41108 0.21074 0.71752 0.0
C216 C 0.34315 0.20392 0.746 0.0
O217 O 0.33695 0.17999 0.74385 0.0
N218 N 0.39821 0.16407 0.70288 0.0
C219 C 0.41681 0.13006 0.67204 0.0
C220 C 0.42084 0.15597 0.66943 0.0
C221 C 0.41118 0.17269 0.68488 0.0
C222 C 0.39377 0.13883 0.70561 0.0
C223 C 0.40312 0.12127 0.69029 0.0
H224 H 0.41346 0.19267 0.68184 0.0
H225 H 0.3827 0.13238 0.71956 0.0
H226 H 0.38039 0.23681 0.69236 0.0
H227 H 0.31624 0.20122 0.66535 0.0
H228 H 0.45033 0.15255 0.77235 0.0
H229 H 0.43107 0.16325 0.65526 0.0
H230 H 0.39961 0.10125 0.69254 0.0
C231 C 0.05242 0.0945 0.96064 0.0
C232 C 0.04461 0.08344 0.94128 0.0
N233 N 0.02458 0.09651 0.93381 0.0
N234 N 0.03794 0.11498 0.96505 0.0
C235 C 0.02059 0.11508 0.94867 0.0
H236 H 0.06631 0.08659 0.97177 0.0
Co237 Co 0.03674 0.1302 0.99286 0.0
C238 C 0.01186 0.17217 0.96662 0.0
O239 O 0.02763 0.1693 0.95001 0.0
N240 N 0.03532 0.14355 0.02091 0.0
C241 C 0.02191 0.15837 0.05307 0.0
C242 C 0.01495 0.15243 0.0318 0.0
C243 C 0.05431 0.14407 0.03572 0.0
N244 N 0.04672 0.15304 0.05556 0.0
O245 O 0.00937 0.10788 -0.00077 0.0
H246 H 0.99608 0.15359 0.02498 0.0
H247 H 0.07321 0.13755 0.03196 0.0
O248 O 0.01291 0.15699 0.98315 0.0
C249 C 0.01522 0.08698 0.00836 0.0
O250 O 0.03772 0.08461 0.01734 0.0
N251 N 0.06476 0.15121 0.9862 0.0
C252 C 0.09886 0.17871 0.96134 0.0
C253 C 0.08015 0.19126 0.97361 0.0
C254 C 0.06358 0.17703 0.98662 0.0
C255 C 0.08619 0.13973 0.97874 0.0
C256 C 0.10334 0.15307 0.96574 0.0
H257 H 0.04823 0.18655 -0.00501 0.0
H258 H 0.08908 0.1198 0.9813 0.0
H259 H 0.00383 0.12677 0.94868 0.0
H260 H 0.05233 0.0665 0.93383 0.0
H261 H 0.0093 0.16496 0.06593 0.0
H262 H 0.07667 0.2113 0.97146 0.0
H263 H 0.11864 0.14301 0.95771 0.0
C264 C 0.82921 0.81847 0.68535 0.0
C265 C 0.82406 0.80164 0.66873 0.0
N266 N 0.84257 0.78414 0.66846 0.0
N267 N 0.85082 0.81167 0.69551 0.0
C268 C 0.85859 0.79059 0.68496 0.0
H269 H 0.81792 0.83473 0.68988 0.0
Co270 Co 0.86179 0.82976 0.71952 0.0
C271 C 0.91462 0.81581 0.72938 0.0
O272 O 0.91785 0.84018 0.73258 0.0
N273 N 0.87098 0.84884 0.74474 0.0
C274 C 0.88043 0.87871 0.76941 0.0
C275 C 0.87407 0.87403 0.74779 0.0
C276 C 0.87495 0.83882 0.76506 0.0
N277 N 0.88089 0.85654 0.7802 0.0
O278 O 0.84172 0.8079 0.7374 0.0
H279 H 0.87177 0.88853 0.73552 0.0
H280 H 0.8739 0.81879 0.76862 0.0
O281 O 0.89247 0.80752 0.72413 0.0
C282 C 0.81951 0.8151 0.74259 0.0
O283 O 0.81349 0.83905 0.74023 0.0
N284 N 0.87997 0.85095 0.69983 0.0
C285 C 0.90564 0.88096 0.66949 0.0
C286 C 0.91229 0.85566 0.67237 0.0
C287 C 0.8987 0.8408 0.68698 0.0
C288 C 0.87114 0.87464 0.69506 0.0
C289 C 0.88419 0.89039 0.68026 0.0
H290 H 0.90329 0.82096 0.68764 0.0
H291 H 0.85394 0.88137 0.70274 0.0
H292 H 0.87548 0.78015 0.68931 0.0
H293 H 0.80831 0.8026 0.65733 0.0
H294 H 0.88387 0.89706 0.77676 0.0
H295 H 0.92784 0.84736 0.66321 0.0
H296 H 0.87779 0.90958 0.67743 0.0
C297 C 0.9799 0.08756 0.46007 0.0
C298 C 1.00151 0.08267 0.44839 0.0
N299 N 0.01645 0.10327 0.44939 0.0
N300 N 0.98117 0.11103 0.46861 0.0
C301 C 0.00367 0.12025 0.46186 0.0
H302 H 0.96379 0.07511 0.46168 0.0
Co303 Co 0.95466 0.12365 0.48488 0.0
C304 C 0.96533 0.1769 0.4966 0.0
O305 O 0.94143 0.18135 0.49207 0.0
N306 N 0.92703 0.13494 0.50187 0.0
C307 C 0.88935 0.14504 0.51583 0.0
C308 C 0.90205 0.13688 0.49728 0.0
C309 C 0.92885 0.14166 0.52334 0.0
N310 N 0.90637 0.14822 0.5321 0.0
O311 O 0.96715 0.10456 0.50943 0.0
H312 H 0.89321 0.13237 0.48173 0.0
H313 H 0.94643 0.14137 0.53252 0.0
O314 O 0.97437 0.15444 0.49403 0.0
C315 C 0.95625 0.08306 0.5101 0.0
O316 O 0.93401 0.08099 0.50053 0.0
N317 N 0.94275 0.13948 0.45919 0.0
C318 C 0.92879 0.15325 0.4164 0.0
C319 C 0.94837 0.16591 0.4274 0.0
C320 C 0.9555 0.15832 0.44848 0.0
C321 C 0.92434 0.12628 0.4484 0.0
C322 C 0.91663 0.13319 0.42715 0.0
H323 H 0.97219 0.16685 0.45542 0.0
H324 H 0.91625 0.10965 0.45603 0.0
H325 H 0.01019 0.1392 0.46545 0.0
H326 H 0.00517 0.06584 0.43871 0.0
H327 H 0.86918 0.14818 0.51729 0.0
H328 H 0.95846 0.18139 0.41966 0.0
H329 H 0.90192 0.12244 0.41897 0.0
C330 C 0.67962 0.2026 0.18911 0.0
C331 C 0.68141 0.2231 0.17534 0.0
N332 N 0.66209 0.2389 0.1799 0.0
N333 N 0.65927 0.20539 0.20222 0.0
C334 C 0.64892 0.22772 0.19637 0.0
H335 H 0.69234 0.18658 0.18963 0.0
Co336 Co 0.65242 0.1821 0.2238 0.0
C337 C 0.59958 0.18897 0.23817 0.0
O338 O 0.59831 0.16417 0.23693 0.0
N339 N 0.64731 0.15807 0.24641 0.0
C340 C 0.64551 0.12389 0.26796 0.0
C341 C 0.65146 0.13283 0.2472 0.0
C342 C 0.63982 0.16402 0.26713 0.0
N343 N 0.63786 0.1436 0.28028 0.0
O344 O 0.67243 0.20211 0.24332 0.0
H345 H 0.65872 0.12139 0.23392 0.0
H346 H 0.63575 0.18313 0.2725 0.0
O347 O 0.62054 0.20011 0.23324 0.0
C348 C 0.69541 0.19519 0.24538 0.0
O349 O 0.7017 0.17217 0.23932 0.0
N350 N 0.6344 0.16299 0.20249 0.0
C351 C 0.61159 0.13821 0.16703 0.0
C352 C 0.602 0.16114 0.17477 0.0
C353 C 0.61414 0.1736 0.19187 0.0
C354 C 0.64519 0.14161 0.194 0.0
C355 C 0.63384 0.1286 0.17638 0.0
H356 H 0.60758 0.19235 0.19588 0.0
H357 H 0.66332 0.13528 0.20007 0.0
H358 H 0.6322 0.23564 0.20402 0.0
H359 H 0.69539 0.22575 0.16247 0.0
H360 H 0.64649 0.10445 0.27349 0.0
H361 H 0.58574 0.16994 0.167 0.0
H362 H 0.64251 0.11156 0.16994 0.0
C363 C 0.57773 0.89019 0.92112 0.0
C364 C 0.56127 0.8897 0.90359 0.0
N365 N 0.53777 0.88678 0.91166 0.0
N366 N 0.56463 0.88693 0.94006 0.0
C367 C 0.5402 0.88522 0.93379 0.0
H368 H 0.59794 0.89306 0.92016 0.0
Co369 Co 0.57853 0.88802 0.96813 0.0
C370 C 0.56125 0.83981 0.98892 0.0
O371 O 0.58452 0.83684 -0.00382 0.0
N372 N 0.59282 0.89096 -0.00357 0.0
C373 C 0.61776 0.90357 0.02397 0.0
C374 C 0.61412 0.90382 0.0015 0.0
C375 C 0.58292 0.88483 0.01634 0.0
N376 N 0.59817 0.89135 0.03329 0.0
O377 O 0.55421 0.91327 0.97625 0.0
H378 H 0.6258 0.9139 0.98986 0.0
H379 H 0.56447 0.8764 0.01851 0.0
O380 O 0.55555 0.85991 0.97798 0.0
C381 C 0.5603 0.93479 0.96835 0.0
O382 O 0.58163 0.93669 0.9573 0.0
N383 N 0.60342 0.86436 0.95872 0.0
C384 C 0.63855 0.83458 0.93606 0.0
C385 C 0.61354 0.82652 0.93862 0.0
C386 C 0.59619 0.84195 0.94933 0.0
C387 C 0.62778 0.87253 0.95624 0.0
C388 C 0.64573 0.85784 0.9451 0.0
H389 H 0.57653 0.83664 0.94836 0.0
H390 H 0.63298 0.89141 0.96094 0.0
H391 H 0.52456 0.88303 0.94518 0.0
H392 H 0.56605 0.89188 0.88629 0.0
H393 H 0.63365 0.91173 0.03271 0.0
H394 H 0.60685 0.80937 0.93074 0.0
H395 H 0.66463 0.8652 0.94254 0.0
C396 C 0.8623 0.16916 0.80082 0.0
C397 C 0.85379 0.18654 0.81589 0.0
N398 N 0.86285 0.20932 0.81003 0.0
N399 N 0.87674 0.18093 0.78561 0.0
C400 C 0.87691 0.2055 0.79172 0.0
H401 H 0.8565 0.14959 0.79994 0.0
Co402 Co 0.8834 0.16612 0.75876 0.0
C403 C 0.93392 0.18372 0.74344 0.0
O404 O 0.93737 0.1608 0.73561 0.0
N405 N 0.88819 0.15051 0.73112 0.0
C406 C 0.89048 0.12266 0.70365 0.0
C407 C 0.88783 0.12562 0.726 0.0
C408 C 0.89032 0.16227 0.71131 0.0
N409 N 0.89216 0.1457 0.69441 0.0
O410 O 0.86091 0.19015 0.74566 0.0
H411 H 0.88511 0.1102 0.73732 0.0
H412 H 0.8908 0.18262 0.70941 0.0
O413 O 0.91302 0.18907 0.75336 0.0
C414 C 0.83825 0.1828 0.74251 0.0
O415 O 0.83301 0.15861 0.74432 0.0
N416 N 0.90392 0.14209 0.77343 0.0
C417 C 0.92861 0.10702 0.80032 0.0
C418 C 0.93924 0.1308 0.79625 0.0
C419 C 0.92623 0.14831 0.78347 0.0
C420 C 0.8927 0.11946 0.77818 0.0
C421 C 0.90487 0.10144 0.79135 0.0
H422 H 0.9335 0.16731 0.78312 0.0
H423 H 0.87363 0.11581 0.77255 0.0
H424 H 0.885 0.22053 0.78184 0.0
H425 H 0.84093 0.18301 0.82947 0.0
H426 H 0.89038 0.10485 0.69482 0.0
H427 H 0.95667 0.13654 0.80424 0.0
H428 H 0.89546 0.08377 0.79513 0.0
C429 C 0.56612 0.1143 0.54033 0.0
C430 C 0.54834 0.10484 0.5545 0.0
N431 N 0.52619 0.11621 0.55 0.0
N432 N 0.55529 0.13162 0.52696 0.0
C433 C 0.53083 0.13256 0.53333 0.0
H434 H 0.58547 0.10787 0.53899 0.0
Co435 Co 0.57218 0.14264 0.50216 0.0
C436 C 0.5502 0.19225 0.48766 0.0
O437 O 0.57225 0.19776 0.47897 0.0
N438 N 0.59066 0.15202 0.47659 0.0
C439 C 0.62139 0.1644 0.45388 0.0
C440 C 0.61438 0.1616 0.47547 0.0
C441 C 0.58386 0.14904 0.45512 0.0
N442 N 0.60222 0.15657 0.44099 0.0
O443 O 0.55194 0.11944 0.48539 0.0
H444 H 0.62632 0.16649 0.48922 0.0
H445 H 0.56575 0.14162 0.44993 0.0
O446 O 0.54709 0.17076 0.49733 0.0
C447 C 0.56165 0.09742 0.48682 0.0
O448 O 0.58534 0.09567 0.49325 0.0
N449 N 0.59241 0.16294 0.52053 0.0
C450 C 0.62206 0.18446 0.55371 0.0
C451 C 0.59962 0.19615 0.54671 0.0
C452 C 0.58472 0.18474 0.53061 0.0
C453 C 0.61412 0.15122 0.52722 0.0
C454 C 0.62942 0.1618 0.54359 0.0
H455 H 0.56647 0.19294 0.52747 0.0
H456 H 0.61931 0.13323 0.52001 0.0
H457 H 0.5165 0.14387 0.52523 0.0
H458 H 0.55133 0.09053 0.56704 0.0
H459 H 0.6396 0.17107 0.44816 0.0
H460 H 0.5931 0.2136 0.55415 0.0
H461 H 0.64625 0.1518 0.54885 0.0
C462 C 0.65681 0.80091 0.27851 0.0
C463 C 0.66691 0.7861 0.29492 0.0
N464 N 0.65471 0.76372 0.29489 0.0
N465 N 0.63837 0.78795 0.26817 0.0
C466 C 0.63766 0.76527 0.2783 0.0
H467 H 0.66199 0.82022 0.27474 0.0
Co468 Co 0.61923 0.80128 0.24546 0.0
C469 C 0.58345 0.76151 0.23185 0.0
O470 O 0.59218 0.76315 0.21156 0.0
N471 N 0.60032 0.81546 0.22249 0.0
C472 C 0.56816 0.83031 0.20271 0.0
C473 C 0.57509 0.81956 0.22245 0.0
C474 C 0.60831 0.82405 0.20269 0.0
N475 N 0.58909 0.83313 0.19027 0.0
O476 O 0.64016 0.7826 0.22536 0.0
H477 H 0.56245 0.81475 0.23587 0.0
H478 H 0.62787 0.82383 0.19752 0.0
O479 O 0.59436 0.77393 0.24724 0.0
C480 C 0.66157 0.79353 0.22353 0.0
O481 O 0.66275 0.81774 0.2284 0.0
N482 N 0.60079 0.81985 0.26619 0.0
C483 C 0.58096 0.84803 0.30074 0.0
C484 C 0.57909 0.8217 0.30086 0.0
C485 C 0.58912 0.80792 0.28343 0.0
C486 C 0.60248 0.84559 0.26562 0.0
C487 C 0.59228 0.8602 0.28273 0.0
H488 H 0.58871 0.78756 0.28453 0.0
H489 H 0.61246 0.85472 0.25221 0.0
H490 H 0.62435 0.75051 0.27407 0.0
H491 H 0.68098 0.79198 0.30686 0.0
H492 H 0.54908 0.83513 0.19776 0.0
H493 H 0.5705 0.81182 0.31465 0.0
H494 H 0.5941 0.8806 0.28234 0.0
C495 C 0.92678 0.90961 0.03526 0.0
C496 C 0.93894 0.91996 0.05319 0.0
N497 N 0.96267 0.91069 0.05379 0.0
N498 N 0.94271 0.89374 0.02479 0.0
C499 C 0.96456 0.89509 0.03622 0.0
H500 H 0.90726 0.91263 0.03062 0.0
Co501 Co 0.93358 0.87393 0.00083 0.0
C502 C 0.97884 0.84309 0.99004 0.0
O503 O 0.98022 0.85316 0.97022 0.0
N504 N 0.92395 0.8542 0.97649 0.0
C505 C 0.91715 0.82106 0.9546 0.0
C506 C 0.92324 0.82865 0.97564 0.0
C507 C 0.9177 0.86169 0.95585 0.0
N508 N 0.91364 0.8419 0.94223 0.0
O509 O 0.95106 0.89764 0.98238 0.0
H510 H 0.92751 0.81625 0.98936 0.0
H511 H 0.91704 0.88121 0.95058 0.0
O512 O 0.96323 0.85215 0.00405 0.0
C513 C 0.93681 0.91689 0.97964 0.0
O514 O 0.91256 0.9142 0.98386 0.0
N515 N 0.91571 0.85258 0.01999 0.0
C516 C 0.88825 0.82594 0.05136 0.0
C517 C 0.91426 0.82919 0.05384 0.0
C518 C 0.92765 0.84261 0.03803 0.0
C519 C 0.89025 0.84966 0.01729 0.0
C520 C 0.87607 0.83596 0.03276 0.0
H521 H 0.94756 0.8457 0.04084 0.0
H522 H 0.88088 0.85833 0.00331 0.0
H523 H 0.98097 0.88352 0.03268 0.0
H524 H 0.93064 0.93242 0.0654 0.0
H525 H 0.91558 0.80176 0.94877 0.0
H526 H 0.92412 0.8217 0.06813 0.0
H527 H 0.85585 0.83378 0.03056 0.0
C528 C 0.66328 0.68535 0.79697 0.0
C529 C 0.67387 0.70061 0.81281 0.0
N530 N 0.66228 0.72328 0.81196 0.0
N531 N 0.64515 0.69834 0.78621 0.0
C532 C 0.64495 0.72143 0.79562 0.0
H533 H 0.66837 0.66594 0.79349 0.0
Co534 Co 0.62752 0.68511 0.76261 0.0
C535 C 0.59126 0.72499 0.74942 0.0
O536 O 0.60273 0.72721 0.73026 0.0
N537 N 0.61018 0.67116 0.73876 0.0
C538 C 0.57902 0.65788 0.71703 0.0
C539 C 0.58519 0.66585 0.73793 0.0
C540 C 0.61889 0.6658 0.71834 0.0
N541 N 0.60026 0.65789 0.70479 0.0
O542 O 0.64793 0.70571 0.7436 0.0
H543 H 0.57208 0.66848 0.75145 0.0
H544 H 0.6382 0.66889 0.71309 0.0
O545 O 0.60096 0.71092 0.76436 0.0
C546 C 0.67012 0.6965 0.74177 0.0
O547 O 0.67362 0.67278 0.74753 0.0
N548 N 0.60942 0.66475 0.7822 0.0
C549 C 0.58702 0.63438 0.81393 0.0
C550 C 0.58441 0.66061 0.8149 0.0
C551 C 0.59598 0.67552 0.79902 0.0
C552 C 0.61234 0.63914 0.78104 0.0
C553 C 0.60106 0.6234 0.79684 0.0
H554 H 0.59482 0.69579 0.80082 0.0
H555 H 0.62378 0.63098 0.76804 0.0
H556 H 0.63241 0.73656 0.79061 0.0
H557 H 0.68832 0.69517 0.82456 0.0
H558 H 0.5603 0.65313 0.7111 0.0
H559 H 0.57392 0.66954 0.82818 0.0
H560 H 0.6035 0.60309 0.79591 0.0
C561 C 0.54903 0.42638 0.03751 0.0
C562 C 0.53027 0.42908 0.05289 0.0
N563 N 0.5138 0.40984 0.0504 0.0
N564 N 0.54447 0.40563 0.02527 0.0
C565 C 0.52286 0.39586 0.03344 0.0
H566 H 0.56547 0.43837 0.03574 0.0
Co567 Co 0.56652 0.39631 0.00336 0.0
C568 C 0.55107 0.3458 0.98619 0.0
O569 O 0.57527 0.34076 0.98405 0.0
N570 N 0.58985 0.38853 0.98081 0.0
C571 C 0.62428 0.37885 0.96139 0.0
C572 C 0.61513 0.38473 0.98199 0.0
C573 C 0.58436 0.38581 0.9591 0.0
N574 N 0.60487 0.37944 0.94706 0.0
O575 O 0.5495 0.41972 0.98424 0.0
H576 H 0.62654 0.38578 -0.00331 0.0
H577 H 0.5654 0.3872 0.95243 0.0
O578 O 0.54413 0.36754 0.99374 0.0
C579 C 0.5601 0.44132 0.98564 0.0
O580 O 0.58333 0.44219 0.99337 0.0
N581 N 0.58324 0.37571 0.02413 0.0
C582 C 0.60668 0.35233 0.05997 0.0
C583 C 0.58488 0.34194 0.05057 0.0
C584 C 0.573 0.35432 0.03317 0.0
C585 C 0.60357 0.38688 0.03402 0.0
C586 C 0.61588 0.37531 0.0518 0.0
H587 H 0.55481 0.34728 0.02813 0.0
H588 H 0.60995 0.40519 0.02833 0.0
H589 H 0.51433 0.37859 0.02746 0.0
H590 H 0.52968 0.44329 0.06576 0.0
H591 H 0.64369 0.3743 0.95728 0.0
H592 H 0.57639 0.32496 0.05732 0.0
H593 H 0.63222 0.38432 0.05919 0.0
C594 C 0.87012 0.31024 0.28996 0.0
C595 C 0.86878 0.29243 0.30635 0.0
N596 N 0.88348 0.27279 0.30044 0.0
N597 N 0.88581 0.30196 0.27396 0.0
C598 C 0.8935 0.27888 0.28066 0.0
H599 H 0.86059 0.32833 0.28984 0.0
Co600 Co 0.89288 0.32144 0.24959 0.0
C601 C 0.9407 0.30201 0.2291 0.0
O602 O 0.94508 0.32481 0.22142 0.0
N603 N 0.8985 0.34224 0.22478 0.0
C604 C 0.90631 0.37483 0.20253 0.0
C605 C 0.9054 0.36685 0.22408 0.0
C606 C 0.89498 0.33588 0.20331 0.0
N607 N 0.89979 0.35533 0.18945 0.0
O608 O 0.86777 0.30255 0.23375 0.0
H609 H 0.90947 0.37868 0.23812 0.0
H610 H 0.88939 0.31719 0.19793 0.0
O611 O 0.92031 0.29773 0.2401 0.0
C612 C 0.84598 0.31198 0.23751 0.0
O613 O 0.84486 0.33449 0.24668 0.0
N614 N 0.91541 0.34014 0.26731 0.0
C615 C 0.93823 0.36293 0.3038 0.0
C616 C 0.94975 0.34245 0.29318 0.0
C617 C 0.93778 0.33094 0.27535 0.0
C618 C 0.9042 0.36044 0.27724 0.0
C619 C 0.91536 0.37226 0.29544 0.0
H620 H 0.94564 0.31336 0.26975 0.0
H621 H 0.88569 0.36654 0.27177 0.0
H622 H 0.9067 0.26713 0.27168 0.0
H623 H 0.85817 0.29391 0.3216 0.0
H624 H 0.91083 0.39376 0.19698 0.0
H625 H 0.9669 0.33405 0.29971 0.0
H626 H 0.90569 0.38784 0.30343 0.0
C627 C 0.94491 0.60145 0.5433 0.0
C628 C 0.9562 0.58802 0.56005 0.0
N629 N 0.98136 0.59172 0.55884 0.0
N630 N 0.96277 0.61408 0.53186 0.0
C631 C 0.98481 0.60709 0.54125 0.0
H632 H 0.92484 0.60237 0.5399 0.0
Co633 Co 0.95604 0.63349 0.50689 0.0
C634 C 0.99806 0.6691 0.52682 0.0
O635 O 1.00279 0.65785 0.54571 0.0
N636 N 0.94858 0.65202 0.48153 0.0
C637 C 0.93752 0.68379 0.4595 0.0
C638 C 0.94498 0.67728 0.48047 0.0
C639 C 0.94318 0.64356 0.46101 0.0
N640 N 0.93635 0.66254 0.4473 0.0
O641 O 0.98087 0.61387 0.49155 0.0
H642 H 0.94669 0.69008 0.49433 0.0
H643 H 0.94317 0.62379 0.45644 0.0
O644 O 0.98158 0.65985 0.51358 0.0
C645 C 0.97354 0.59179 0.48601 0.0
O646 O 0.94918 0.58684 0.48646 0.0
N647 N 0.93121 0.65142 0.52268 0.0
C648 C 0.89362 0.67308 0.54854 0.0
C649 C 0.9187 0.67294 0.5557 0.0
C650 C 0.93716 0.66197 0.54259 0.0
C651 C 0.90673 0.65125 0.51542 0.0
C652 C 0.8875 0.66242 0.52806 0.0
H653 H 0.95599 0.66078 0.54914 0.0
H654 H 0.90204 0.64208 0.49997 0.0
H655 H 1.00309 0.61314 0.53532 0.0
H656 H 0.94649 0.57749 0.57284 0.0
H657 H 0.93292 0.70263 0.45376 0.0
H658 H 0.92391 0.68091 0.57157 0.0
H659 H 0.86814 0.66221 0.5222 0.0
C660 C 0.67856 0.31667 0.69876 0.0
C661 C 0.69069 0.30584 0.68104 0.0
N662 N 0.68286 0.28167 0.67934 0.0
N663 N 0.66295 0.29948 0.70793 0.0
C664 C 0.66625 0.27824 0.696 0.0
H665 H 0.68025 0.33609 0.70419 0.0
Co666 Co 0.64165 0.30594 0.73152 0.0
C667 C 0.60946 0.26036 0.73549 0.0
O668 O 0.61894 0.25565 0.75515 0.0
N669 N 0.62072 0.31299 0.75553 0.0
C670 C 0.58692 0.31952 0.77662 0.0
C671 C 0.59515 0.31283 0.75591 0.0
C672 C 0.62759 0.32034 0.77601 0.0
N673 N 0.60737 0.3243 0.78919 0.0
O674 O 0.66287 0.28451 0.74916 0.0
H675 H 0.58321 0.30852 0.7419 0.0
H676 H 0.64704 0.32267 0.7812 0.0
O677 O 0.61914 0.27796 0.72379 0.0
C678 C 0.68421 0.29467 0.75331 0.0
O679 O 0.68654 0.31917 0.75024 0.0
N680 N 0.62219 0.32726 0.71341 0.0
C681 C 0.59417 0.3582 0.68553 0.0
C682 C 0.59996 0.33345 0.67934 0.0
C683 C 0.6139 0.31828 0.6935 0.0
C684 C 0.61743 0.35168 0.71945 0.0
C685 C 0.60289 0.36746 0.70585 0.0
H686 H 0.61819 0.29924 0.68826 0.0
H687 H 0.62466 0.35884 0.73497 0.0
H688 H 0.65542 0.26112 0.69852 0.0
H689 H 0.70332 0.3153 0.66964 0.0
H690 H 0.56744 0.32136 0.78189 0.0
H691 H 0.59336 0.32574 0.66378 0.0
H692 H 0.59865 0.38661 0.711 0.0
C693 C 0.91649 0.41071 0.92388 0.0
C694 C 0.93619 0.41377 0.90934 0.0
N695 N 0.9569 0.40305 0.91832 0.0
N696 N 0.92475 0.39774 0.94164 0.0
C697 C 0.94951 0.39354 0.93794 0.0
H698 H 0.89734 0.41752 0.92176 0.0
Co699 Co 0.90531 0.39086 0.96595 0.0
C700 C 0.91723 0.33849 0.97936 0.0
O701 O 0.89272 0.33617 0.98247 0.0
N702 N 0.88532 0.38588 0.99129 0.0
C703 C 0.85534 0.38897 0.01701 0.0
C704 C 0.86121 0.39311 -0.00483 0.0
C705 C 0.89397 0.37858 0.01136 0.0
N706 N 0.876 0.37971 0.02715 0.0
O707 O 0.92738 0.41215 0.98258 0.0
H708 H 0.84899 0.40252 0.98357 0.0
H709 H 0.91349 0.37356 0.01453 0.0
O710 O 0.92618 0.36014 0.97351 0.0
C711 C 0.92119 0.43528 0.98491 0.0
O712 O 0.89809 0.44232 0.97979 0.0
N713 N 0.88395 0.37067 0.94755 0.0
C714 C 0.85645 0.34218 0.91707 0.0
C715 C 0.88189 0.33702 0.92097 0.0
C716 C 0.8954 0.35189 0.93558 0.0
C717 C 0.85958 0.3773 0.94255 0.0
C718 C 0.84525 0.363 0.92749 0.0
H719 H 0.9155 0.34856 0.93665 0.0
H720 H 0.85153 0.39439 0.94912 0.0
H721 H 0.9618 0.38351 0.94927 0.0
H722 H 0.93543 0.42318 0.89346 0.0
H723 H 0.83746 0.39318 0.02491 0.0
H724 H 0.89157 0.32199 0.91216 0.0
H725 H 0.82593 0.36834 0.92379 0.0
C726 C 0.83208 0.67797 0.19235 0.0
C727 C 0.82844 0.69399 0.17486 0.0
N728 N 0.84696 0.71143 0.17522 0.0
N729 N 0.85272 0.68529 0.20371 0.0
C730 C 0.86157 0.70575 0.19287 0.0
H731 H 0.8202 0.66214 0.19686 0.0
Co732 Co 0.86058 0.6689 0.22945 0.0
C733 C 0.91207 0.68461 0.2435 0.0
O734 O 0.91601 0.66059 0.24798 0.0
N735 N 0.86647 0.65149 0.25609 0.0
C736 C 0.86805 0.62229 0.28258 0.0
C737 C 0.86302 0.6267 0.26064 0.0
C738 C 0.87268 0.66184 0.27581 0.0
N739 N 0.87434 0.64441 0.29201 0.0
O740 O 0.83869 0.69202 0.24436 0.0
H741 H 0.85676 0.61251 0.24913 0.0
H742 H 0.87595 0.68186 0.27825 0.0
O743 O 0.89056 0.69146 0.23543 0.0
C744 C 0.81608 0.68482 0.24807 0.0
O745 O 0.81077 0.66059 0.24687 0.0
N746 N 0.88045 0.64613 0.21273 0.0
C747 C 0.90397 0.61449 0.18203 0.0
C748 C 0.91393 0.63833 0.18684 0.0
C749 C 0.90144 0.65414 0.20151 0.0
C750 C 0.86967 0.62349 0.20727 0.0
C751 C 0.8813 0.60715 0.19212 0.0
H752 H 0.90796 0.67339 0.20253 0.0
H753 H 0.85116 0.61873 0.21356 0.0
H754 H 0.87791 0.71655 0.19804 0.0
H755 H 0.8135 0.69279 0.16266 0.0
H756 H 0.86747 0.60416 0.29089 0.0
H757 H 0.93044 0.64541 0.17819 0.0
H758 H 0.87233 0.5894 0.18785 0.0
C759 C 0.55987 0.60742 0.44578 0.0
C760 C 0.54175 0.59855 0.43147 0.0
N761 N 0.51988 0.61052 0.436 0.0
N762 N 0.54939 0.62484 0.45922 0.0
C763 C 0.52501 0.62643 0.45285 0.0
H764 H 0.57932 0.60117 0.44673 0.0
Co765 Co 0.56565 0.63848 0.48338 0.0
C766 C 0.53039 0.67591 0.50238 0.0
O767 O 0.5328 0.66468 0.52164 0.0
N768 N 0.58266 0.65186 0.5077 0.0
C769 C 0.60031 0.67909 0.53092 0.0
C770 C 0.59009 0.67609 0.51026 0.0
C771 C 0.589 0.6404 0.52684 0.0
N772 N 0.59956 0.65662 0.54145 0.0
O773 O 0.54535 0.61686 0.50173 0.0
H774 H 0.58721 0.69095 0.49823 0.0
H775 H 0.58531 0.62069 0.53016 0.0
O776 O 0.54105 0.66627 0.48539 0.0
C777 C 0.55438 0.59449 0.50086 0.0
O778 O 0.57732 0.59156 0.49286 0.0
N779 N 0.58597 0.65734 0.46449 0.0
C780 C 0.61765 0.6791 0.43323 0.0
C781 C 0.59256 0.68729 0.43546 0.0
C782 C 0.57687 0.67592 0.451 0.0
C783 C 0.6104 0.64934 0.46282 0.0
C784 C 0.62666 0.65997 0.44717 0.0
H785 H 0.55722 0.6814 0.45141 0.0
H786 H 0.61702 0.63409 0.47324 0.0
H787 H 0.5111 0.63842 0.46077 0.0
H788 H 0.54447 0.58466 0.41854 0.0
H789 H 0.60642 0.69687 0.53795 0.0
H790 H 0.58473 0.70149 0.42451 0.0
H791 H 0.64586 0.65301 0.4457 0.0
C792 C 0.356 0.30417 0.2085 0.0
C793 C 0.34684 0.28793 0.19272 0.0
N794 N 0.36072 0.26659 0.19341 0.0
N795 N 0.37539 0.29303 0.21919 0.0
C796 C 0.37792 0.27016 0.20961 0.0
H797 H 0.34914 0.32304 0.21188 0.0
Co798 Co 0.39244 0.30808 0.24232 0.0
C799 C 0.42778 0.27005 0.25967 0.0
O800 O 0.41859 0.27375 0.27959 0.0
N801 N 0.40951 0.32401 0.26559 0.0
C802 C 0.44002 0.34095 0.28612 0.0
C803 C 0.43427 0.33039 0.26602 0.0
C804 C 0.40065 0.33092 0.28562 0.0
N805 N 0.41885 0.34118 0.29844 0.0
O806 O 0.37048 0.29022 0.26204 0.0
H807 H 0.44758 0.32692 0.25281 0.0
H808 H 0.38129 0.32833 0.29088 0.0
O809 O 0.4175 0.28101 0.24316 0.0
C810 C 0.34932 0.30179 0.26279 0.0
O811 O 0.34906 0.32588 0.25741 0.0
N812 N 0.41148 0.32613 0.2219 0.0
C813 C 0.43009 0.35352 0.18641 0.0
C814 C 0.44048 0.32995 0.19175 0.0
C815 C 0.43063 0.3163 0.2094 0.0
C816 C 0.4019 0.34951 0.21752 0.0
C817 C 0.41081 0.36354 0.19961 0.0
H818 H 0.43782 0.29751 0.21218 0.0
H819 H 0.38634 0.35667 0.22731 0.0
H820 H 0.39219 0.25646 0.21421 0.0
H821 H 0.33191 0.29195 0.18098 0.0
H822 H 0.45853 0.34716 0.29152 0.0
H823 H 0.45514 0.32155 0.18161 0.0
H824 H 0.40235 0.38168 0.19578 0.0
C825 C 0.43649 0.60263 0.95201 0.0
C826 C 0.45382 0.59526 0.93651 0.0
N827 N 0.47352 0.61132 0.93745 0.0
N828 N 0.44513 0.62326 0.96264 0.0
C829 C 0.46777 0.62833 0.95336 0.0
H830 H 0.41899 0.59303 0.95592 0.0
Co831 Co 0.42817 0.6344 0.98715 0.0
C832 C 0.44686 0.68596 -0.00048 0.0
O833 O 0.4243 0.69079 0.0075 0.0
N834 N 0.4095 0.64382 0.01265 0.0
C835 C 0.37799 0.65505 0.03509 0.0
C836 C 0.38557 0.65301 0.01356 0.0
C837 C 0.41596 0.64064 0.03418 0.0
N838 N 0.39701 0.64712 0.04805 0.0
O839 O 0.45084 0.61418 0.00429 0.0
H840 H 0.37395 0.65829 -0.00029 0.0
H841 H 0.43388 0.633 0.03965 0.0
O842 O 0.45128 0.66429 0.99063 0.0
C843 C 0.44441 0.59122 0.00736 0.0
O844 O 0.42056 0.58494 0.00467 0.0
N845 N 0.40613 0.65211 0.96835 0.0
C846 C 0.37379 0.67106 0.93594 0.0
C847 C 0.39604 0.68391 0.94156 0.0
C848 C 0.41224 0.67385 0.95739 0.0
C849 C 0.38498 0.63886 0.96254 0.0
C850 C 0.36834 0.64814 0.94651 0.0
H851 H 0.43023 0.68298 0.95962 0.0
H852 H 0.38114 0.62087 0.97037 0.0
H853 H 0.48025 0.64331 0.95878 0.0
H854 H 0.4521 0.5793 0.92539 0.0
H855 H 0.35982 0.66187 0.0408 0.0
H856 H 0.40162 0.70096 0.93289 0.0
H857 H 0.35163 0.63735 0.94223 0.0
C858 C 0.14803 0.67801 0.69241 0.0
C859 C 0.15964 0.69198 0.67612 0.0
N860 N 0.15141 0.71599 0.6778 0.0
N861 N 0.1327 0.69327 0.70422 0.0
C862 C 0.13505 0.71628 0.69487 0.0
H863 H 0.15132 0.65825 0.69605 0.0
Co864 Co 0.11751 0.68474 0.73066 0.0
C865 C 0.08422 0.728 0.74146 0.0
O866 O 0.0959 0.73035 0.76052 0.0
N867 N 0.10241 0.67577 0.75742 0.0
C868 C 0.07295 0.66743 0.78255 0.0
C869 C 0.07729 0.67296 0.76075 0.0
C870 C 0.11302 0.67137 0.77737 0.0
N871 N 0.09542 0.66647 0.79296 0.0
O872 O 0.14122 0.70682 0.74511 0.0
H873 H 0.06294 0.67531 0.74817 0.0
H874 H 0.13311 0.67251 0.7806 0.0
O875 O 0.09232 0.71184 0.72745 0.0
C876 C 0.16276 0.69593 0.74572 0.0
O877 O 0.1635 0.67137 0.74239 0.0
N878 N 0.0964 0.6623 0.71568 0.0
C879 C 0.06927 0.62705 0.69122 0.0
C880 C 0.06644 0.65301 0.68725 0.0
C881 C 0.08042 0.67031 0.69943 0.0
C882 C 0.09955 0.63713 0.71982 0.0
C883 C 0.08612 0.61904 0.70767 0.0
H884 H 0.07914 0.69004 0.69506 0.0
H885 H 0.11296 0.6311 0.73226 0.0
H886 H 0.1259 0.73317 0.70108 0.0
H887 H 0.17312 0.68513 0.66405 0.0
H888 H 0.05469 0.66446 0.79023 0.0
H889 H 0.05433 0.65989 0.6741 0.0
H890 H 0.08909 0.59911 0.71089 0.0
C891 C 0.0697 0.4156 0.45397 0.0
C892 C 0.05198 0.41879 0.43774 0.0
N893 N 0.03438 0.4006 0.44001 0.0
N894 N 0.06332 0.39562 0.46658 0.0
C895 C 0.04173 0.38662 0.45761 0.0
H896 H 0.08648 0.42696 0.45631 0.0
Co897 Co 0.08329 0.38722 0.49038 0.0
C898 C 0.06505 0.33856 0.50922 0.0
O899 O 0.08881 0.33321 0.51352 0.0
N900 N 0.10451 0.38055 0.51468 0.0
C901 C 0.13766 0.37512 0.53686 0.0
C902 C 0.12997 0.37822 0.51534 0.0
C903 C 0.0973 0.37935 0.53612 0.0
N904 N 0.11706 0.3757 0.54987 0.0
O905 O 0.06554 0.41231 0.50722 0.0
H906 H 0.1425 0.37898 0.50133 0.0
H907 H 0.07786 0.38114 0.54153 0.0
O908 O 0.05944 0.35975 0.4999 0.0
C909 C 0.07732 0.43329 0.50568 0.0
O910 O 0.10089 0.43278 0.49875 0.0
N911 N 0.10111 0.36496 0.47181 0.0
C912 C 0.12488 0.34099 0.43643 0.0
C913 C 0.10324 0.33054 0.44604 0.0
C914 C 0.09118 0.3432 0.46319 0.0
C915 C 0.12191 0.37565 0.46227 0.0
C916 C 0.13429 0.36386 0.44465 0.0
H917 H 0.07288 0.3363 0.46796 0.0
H918 H 0.12813 0.39415 0.4676 0.0
H919 H 0.03169 0.37023 0.46372 0.0
H920 H 0.05253 0.43283 0.42472 0.0
H921 H 0.15691 0.37237 0.54248 0.0
H922 H 0.09465 0.31361 0.43929 0.0
H923 H 0.15052 0.37289 0.43711 0.0
C924 C 0.32742 0.70266 0.30364 0.0
C925 C 0.32443 0.72356 0.31678 0.0
N926 N 0.34275 0.74024 0.31166 0.0
N927 N 0.34757 0.70609 0.29038 0.0
C928 C 0.35664 0.72918 0.29559 0.0
H929 H 0.31536 0.68614 0.30332 0.0
Co930 Co 0.35434 0.68349 0.26821 0.0
C931 C 0.40795 0.68867 0.25561 0.0
O932 O 0.40779 0.6638 0.25581 0.0
N933 N 0.35934 0.66024 0.2449 0.0
C934 C 0.36074 0.62682 0.22254 0.0
C935 C 0.35479 0.63514 0.24342 0.0
C936 C 0.36701 0.66678 0.22434 0.0
N937 N 0.3686 0.64677 0.21057 0.0
O938 O 0.33545 0.70499 0.24892 0.0
H939 H 0.34693 0.62337 0.25617 0.0
H940 H 0.37179 0.68596 0.21973 0.0
O941 O 0.38731 0.70068 0.2601 0.0
C942 C 0.31251 0.69849 0.24577 0.0
O943 O 0.30565 0.67532 0.25081 0.0
N944 N 0.37113 0.66283 0.28925 0.0
C945 C 0.39477 0.63413 0.32187 0.0
C946 C 0.4038 0.65815 0.31642 0.0
C947 C 0.39122 0.6725 0.30072 0.0
C948 C 0.36031 0.64078 0.29625 0.0
C949 C 0.37216 0.62572 0.3123 0.0
H950 H 0.39765 0.69162 0.29807 0.0
H951 H 0.34201 0.63521 0.29003 0.0
H952 H 0.37256 0.73798 0.28739 0.0
H953 H 0.31007 0.72617 0.32933 0.0
H954 H 0.35867 0.60767 0.21648 0.0
H955 H 0.42021 0.66605 0.32464 0.0
H956 H 0.36378 0.6079 0.31721 0.0
C957 C 0.05356 0.58306 0.04455 0.0
C958 C 0.03592 0.57383 0.05909 0.0
N959 N 0.01458 0.5875 0.05678 0.0
N960 N 0.04336 0.60238 0.03308 0.0
C961 C 0.01958 0.60472 0.04087 0.0
H962 H 0.07269 0.57622 0.04244 0.0
Co963 Co 0.06051 0.61887 0.01077 0.0
C964 C 0.02438 0.65725 0.99417 0.0
O965 O 0.02369 0.64614 0.97476 0.0
N966 N 0.07833 0.63515 0.98821 0.0
C967 C 0.09661 0.66536 0.96836 0.0
C968 C 0.08602 0.65949 0.98839 0.0
C969 C 0.08467 0.62657 0.96793 0.0
N970 N 0.0957 0.64466 0.95539 0.0
O971 O 0.04104 0.59958 0.99001 0.0
H972 H 0.08314 0.67254 0.00192 0.0
H973 H 0.08062 0.60761 0.96228 0.0
O974 O 0.03636 0.64685 0.01007 0.0
C975 C 0.04901 0.57686 0.98895 0.0
O976 O 0.0718 0.57198 -0.00349 0.0
N977 N 0.07951 0.63585 0.03217 0.0
C978 C 0.10747 0.65742 0.06606 0.0
C979 C 0.08158 0.66219 0.06426 0.0
C980 C 0.06784 0.65091 0.04743 0.0
C981 C 0.10472 0.63065 0.03383 0.0
C982 C 0.11922 0.64133 0.05082 0.0
H983 H 0.04763 0.65377 0.0472 0.0
H984 H 0.11349 0.61795 0.02209 0.0
H985 H 0.00624 0.61875 0.03507 0.0
H986 H 0.03886 0.55887 0.07104 0.0
H987 H 0.10308 0.68392 0.96339 0.0
H988 H 0.07193 0.67412 0.07615 0.0
H989 H 0.13922 0.63712 0.05206 0.0
C990 C 0.17385 0.29078 0.79994 0.0
C991 C 0.17539 0.27546 0.81813 0.0
N992 N 0.15274 0.26434 0.82115 0.0
N993 N 0.15043 0.28928 0.79126 0.0
C994 C 0.13796 0.27286 0.80445 0.0
H995 H 0.18841 0.30361 0.79439 0.0
Co996 Co 0.14006 0.31158 0.76948 0.0
C997 C 0.09008 0.29472 0.75198 0.0
O998 O 0.08433 0.31875 0.74975 0.0
N999 N 0.1312 0.33512 0.74738 0.0
C1000 C 0.12307 0.37034 0.72859 0.0
C1001 C 0.12763 0.36034 0.74915 0.0
C1002 C 0.12923 0.33043 0.72546 0.0
N1003 N 0.12398 0.35149 0.71365 0.0
O1004 O 0.16342 0.29563 0.74955 0.0
H1005 H 0.12874 0.3712 0.76417 0.0
H1006 H 0.13128 0.31174 0.7184 0.0
O1007 O 0.11179 0.28848 0.76004 0.0
C1008 C 0.18407 0.30808 0.74868 0.0
O1009 O 0.18426 0.33112 0.75687 0.0
N1010 N 0.11972 0.32772 0.79071 0.0
C1011 C 0.09846 0.34979 0.8282 0.0
C1012 C 0.08646 0.32961 0.81754 0.0
C1013 C 0.09759 0.31852 0.79916 0.0
C1014 C 0.13201 0.34695 0.80126 0.0
C1015 C 0.12146 0.35868 0.8198 0.0
H1016 H 0.08889 0.30162 0.79294 0.0
H1017 H 0.15046 0.35283 0.79547 0.0
H1018 H 0.11816 0.26827 0.80254 0.0
H1019 H 0.19139 0.2742 0.82925 0.0
H1020 H 0.12009 0.39016 0.72494 0.0
H1021 H 0.0687 0.32205 0.82358 0.0
H1022 H 0.13154 0.37395 0.82785 0.0
C1023 C 0.43014 0.42189 0.56024 0.0
C1024 C 0.44642 0.42405 0.57777 0.0
N1025 N 0.46464 0.40648 0.57541 0.0
N1026 N 0.43806 0.40308 0.54693 0.0
C1027 C 0.45915 0.39389 0.55657 0.0
H1028 H 0.41381 0.43366 0.55701 0.0
Co1029 Co 0.42217 0.39772 0.52048 0.0
C1030 C 0.4374 0.34695 0.50373 0.0
O1031 O 0.41362 0.34409 0.49787 0.0
N1032 N 0.40537 0.3943 0.49327 0.0
C1033 C 0.37709 0.3956 0.46604 0.0
C1034 C 0.3807 0.3981 0.48839 0.0
C1035 C 0.41644 0.39034 0.47341 0.0
N1036 N 0.39959 0.3906 0.45668 0.0
O1037 O 0.44607 0.42018 0.50716 0.0
H1038 H 0.36605 0.40302 0.49995 0.0
H1039 H 0.43657 0.38752 0.47127 0.0
O1040 O 0.44422 0.36763 0.51332 0.0
C1041 C 0.43862 0.44273 0.50354 0.0
O1042 O 0.41447 0.44809 0.50562 0.0
N1043 N 0.39839 0.37732 0.5354 0.0
C1044 C 0.36365 0.35143 0.56157 0.0
C1045 C 0.38759 0.34126 0.55743 0.0
C1046 C 0.40497 0.35491 0.54508 0.0
C1047 C 0.37583 0.38838 0.54072 0.0
C1048 C 0.35792 0.37559 0.55359 0.0
H1049 H 0.42406 0.34783 0.54443 0.0
H1050 H 0.37214 0.40768 0.53582 0.0
H1051 H 0.47071 0.37899 0.54961 0.0
H1052 H 0.44501 0.4375 0.59121 0.0
H1053 H 0.35924 0.39713 0.45737 0.0
H1054 H 0.39334 0.32345 0.56477 0.0
H1055 H 0.34014 0.38464 0.55767 0.0
C1056 C 0.08326 0.13971 0.07832 0.0
C1057 C 0.06133 0.15442 0.07569 0.0
C1058 C 0.09672 0.13968 0.09827 0.0
C1059 C 0.08786 0.15441 0.11617 0.0
C1060 C 0.06617 0.1698 0.11354 0.0
C1061 C 0.05329 0.16977 0.09328 0.0
C1062 C 0.11995 0.12321 0.10044 0.0
C1063 C 0.05608 0.18566 0.13235 0.0
C1064 C 0.10375 0.13201 0.17395 0.0
C1065 C 0.1228 0.14899 0.18013 0.0
C1066 C 0.09226 0.13358 0.15315 0.0
C1067 C 0.10027 0.15242 0.13808 0.0
C1068 C 0.11982 0.16937 0.14406 0.0
C1069 C 0.13074 0.16756 0.16514 0.0
C1070 C 0.07121 0.11538 0.14747 0.0
C1071 C 0.12906 0.18944 0.12827 0.0
H1072 H 0.0896 0.12755 0.06505 0.0
H1073 H 0.03674 0.18161 0.09134 0.0
H1074 H 0.13604 0.13439 0.10701 0.0
H1075 H 0.1162 0.10772 0.11236 0.0
H1076 H 0.12567 0.1147 0.08441 0.0
H1077 H 0.03964 0.19743 0.12732 0.0
H1078 H 0.05015 0.17318 0.14616 0.0
H1079 H 0.07112 0.19829 0.1388 0.0
H1080 H 0.09729 0.11795 0.18568 0.0
H1081 H 0.14559 0.18058 0.16992 0.0
H1082 H 0.07614 0.10456 0.13236 0.0
H1083 H 0.0536 0.12605 0.14387 0.0
H1084 H 0.06733 0.10178 0.16104 0.0
H1085 H 0.13546 0.18056 0.11262 0.0
H1086 H 0.14492 0.20067 0.13526 0.0
H1087 H 0.11336 0.20251 0.12406 0.0
C1088 C 0.09264 0.87751 0.42485 0.0
C1089 C 0.11644 0.87494 0.43487 0.0
C1090 C 0.08934 0.87264 0.40221 0.0
C1091 C 0.11037 0.86516 0.38928 0.0
C1092 C 0.13427 0.86186 0.39939 0.0
C1093 C 0.13698 0.86669 0.42205 0.0
C1094 C 0.06353 0.87628 0.39199 0.0
C1095 C 0.15717 0.85392 0.38616 0.0
C1096 C 0.1005 0.83692 0.33208 0.0
C1097 C 0.10434 0.85809 0.31853 0.0
C1098 C 0.10209 0.83893 0.35521 0.0
C1099 C 0.10788 0.86261 0.36491 0.0
C1100 C 0.11189 0.88398 0.35127 0.0
C1101 C 0.11001 0.88146 0.32829 0.0
C1102 C 0.09751 0.81578 0.36925 0.0
C1103 C 0.1184 0.90951 0.36095 0.0
H1104 H 0.0767 0.88404 0.43452 0.0
H1105 H 0.1553 0.86407 0.42972 0.0
H1106 H 0.06407 0.89242 0.38028 0.0
H1107 H 0.05806 0.85925 0.38242 0.0
H1108 H 0.04873 0.88008 0.4046 0.0
H1109 H 0.1741 0.85092 0.39672 0.0
H1110 H 0.15317 0.83618 0.37702 0.0
H1111 H 0.16167 0.86866 0.37371 0.0
H1112 H 0.09585 0.8189 0.32459 0.0
H1113 H 0.1134 0.89777 0.31788 0.0
H1114 H 0.08172 0.81937 0.38092 0.0
H1115 H 0.11455 0.81158 0.37932 0.0
H1116 H 0.09287 0.79885 0.35917 0.0
H1117 H 0.10335 0.91563 0.37256 0.0
H1118 H 0.12069 0.92428 0.34805 0.0
H1119 H 0.13625 0.90817 0.37053 0.0
C1120 C 0.41612 0.83485 0.6602 0.0
C1121 C 0.39705 0.84321 0.67449 0.0
C1122 C 0.41635 0.8421 0.63791 0.0
C1123 C 0.39739 0.85868 0.62994 0.0
C1124 C 0.37823 0.86745 0.64442 0.0
C1125 C 0.37809 0.85928 0.66651 0.0
C1126 C 0.43666 0.83176 0.62286 0.0
C1127 C 0.35806 0.8856 0.63664 0.0
C1128 C 0.41261 0.89399 0.57687 0.0
C1129 C 0.39849 0.88032 0.56138 0.0
C1130 C 0.41195 0.88755 0.59938 0.0
C1131 C 0.39743 0.86648 0.60633 0.0
C1132 C 0.38338 0.85245 0.59063 0.0
C1133 C 0.38381 0.85979 0.56836 0.0
C1134 C 0.42669 0.90331 0.61572 0.0
C1135 C 0.36828 0.82943 0.59727 0.0
H1136 H 0.43058 0.82218 0.66643 0.0
H1137 H 0.36351 0.86583 0.67772 0.0
H1138 H 0.42785 0.82155 0.6088 0.0
H1139 H 0.44794 0.84749 0.61581 0.0
H1140 H 0.44968 0.81862 0.63158 0.0
H1141 H 0.34509 0.89135 0.65019 0.0
H1142 H 0.36699 0.90281 0.62962 0.0
H1143 H 0.34672 0.87678 0.62329 0.0
H1144 H 0.42378 0.90996 0.57135 0.0
H1145 H 0.37318 0.8491 0.55623 0.0
H1146 H 0.44139 0.89155 0.62381 0.0
H1147 H 0.4139 0.91033 0.62891 0.0
H1148 H 0.43605 0.91977 0.60776 0.0
H1149 H 0.38092 0.81527 0.60512 0.0
H1150 H 0.35867 0.82043 0.58296 0.0
H1151 H 0.35376 0.8347 0.60968 0.0
C1152 C 0.39662 0.17683 0.81684 0.0
C1153 C 0.41103 0.16015 0.80397 0.0
C1154 C 0.39578 0.17445 0.83989 0.0
C1155 C 0.40954 0.15479 0.85026 0.0
C1156 C 0.42416 0.1379 0.83736 0.0
C1157 C 0.42483 0.14087 0.81433 0.0
C1158 C 0.38021 0.19299 0.85315 0.0
C1159 C 0.43886 0.11655 0.84786 0.0
C1160 C 0.42438 0.16098 0.91135 0.0
C1161 C 0.4051 0.14637 0.9208 0.0
C1162 C 0.42609 0.1639 0.88836 0.0
C1163 C 0.40824 0.15166 0.87458 0.0
C1164 C 0.38888 0.1367 0.88405 0.0
C1165 C 0.38748 0.13434 0.90708 0.0
C1166 C 0.44681 0.18025 0.87884 0.0
C1167 C 0.36968 0.12315 0.86985 0.0
H1168 H 0.38631 0.19202 0.8089 0.0
H1169 H 0.4358 0.12787 0.80436 0.0
H1170 H 0.36528 0.18278 0.86244 0.0
H1171 H 0.39236 0.20269 0.86548 0.0
H1172 H 0.37104 0.20753 0.84257 0.0
H1173 H 0.44944 0.10518 0.83548 0.0
H1174 H 0.4525 0.12419 0.86009 0.0
H1175 H 0.42577 0.10385 0.85693 0.0
H1176 H 0.43783 0.17049 0.92199 0.0
H1177 H 0.3728 0.12275 0.91438 0.0
H1178 H 0.43839 0.19599 0.86917 0.0
H1179 H 0.45864 0.16901 0.86731 0.0
H1180 H 0.45922 0.18838 0.89184 0.0
H1181 H 0.35885 0.13707 0.8599 0.0
H1182 H 0.35613 0.11185 0.87981 0.0
H1183 H 0.37945 0.11035 0.85808 0.0
C1184 C 0.92001 0.82568 0.90453 0.0
C1185 C 0.90838 0.84285 0.91896 0.0
C1186 C 0.91574 0.82692 0.88168 0.0
C1187 C 0.89903 0.84544 0.87317 0.0
C1188 C 0.88683 0.8625 0.88775 0.0
C1189 C 0.8919 0.86117 0.91048 0.0
C1190 C 0.92954 0.80879 0.86661 0.0
C1191 C 0.86852 0.8822 0.87932 0.0
C1192 C 0.90515 0.8669 0.81361 0.0
C1193 C 0.8861 0.85284 0.80327 0.0
C1194 C 0.90994 0.86424 0.83628 0.0
C1195 C 0.89488 0.84752 0.84895 0.0
C1196 C 0.87565 0.83317 0.83855 0.0
C1197 C 0.87168 0.83581 0.81572 0.0
C1198 C 0.93101 0.87943 0.84668 0.0
C1199 C 0.85891 0.81551 0.8516 0.0
H1200 H 0.93299 0.81173 0.91113 0.0
H1201 H 0.88277 0.87425 0.92172 0.0
H1202 H 0.91579 0.7978 0.85665 0.0
H1203 H 0.94155 0.81954 0.85486 0.0
H1204 H 0.94172 0.79536 0.8759 0.0
H1205 H 0.85969 0.89318 0.89295 0.0
H1206 H 0.87847 0.89554 0.86817 0.0
H1207 H 0.85333 0.87301 0.86953 0.0
H1208 H 0.91644 0.87986 0.80385 0.0
H1209 H 0.85678 0.82516 0.80768 0.0
H1210 H 0.94438 0.86664 0.85534 0.0
H1211 H 0.92312 0.89254 0.85922 0.0
H1212 H 0.9417 0.89068 0.8343 0.0
H1213 H 0.87058 0.80114 0.86024 0.0
H1214 H 0.84492 0.8056 0.84098 0.0
H1215 H 0.84856 0.82631 0.86447 0.0
C1216 C 0.90737 0.13354 0.6576 0.0
C1217 C 0.89485 0.15095 0.6712 0.0
C1218 C 0.90847 0.13695 0.63471 0.0
C1219 C 0.89692 0.15847 0.62514 0.0
C1220 C 0.88509 0.17671 0.63881 0.0
C1221 C 0.88415 0.1727 0.66177 0.0
C1222 C 0.92146 0.11711 0.62073 0.0
C1223 C 0.87281 0.19999 0.62914 0.0
C1224 C 0.91995 0.16833 0.56676 0.0
C1225 C 0.90171 0.15487 0.55476 0.0
C1226 C 0.91758 0.17162 0.58965 0.0
C1227 C 0.89658 0.16092 0.60072 0.0
C1228 C 0.87718 0.14895 0.58843 0.0
C1229 C 0.87995 0.14615 0.56552 0.0
C1230 C 0.93843 0.18491 0.60212 0.0
C1231 C 0.85453 0.13725 0.59966 0.0
H1232 H 0.91618 0.11703 0.66488 0.0
H1233 H 0.87436 0.18614 0.67222 0.0
H1234 H 0.90766 0.10857 0.6091 0.0
H1235 H 0.93664 0.12591 0.61069 0.0
H1236 H 0.92992 0.10175 0.63086 0.0
H1237 H 0.86674 0.21356 0.64213 0.0
H1238 H 0.88602 0.20971 0.61772 0.0
H1239 H 0.85596 0.1944 0.61936 0.0
H1240 H 0.93651 0.17557 0.55831 0.0
H1241 H 0.86586 0.13573 0.55625 0.0
H1242 H 0.95008 0.17071 0.611 0.0
H1243 H 0.93045 0.19797 0.61466 0.0
H1244 H 0.951 0.19581 0.5909 0.0
H1245 H 0.86058 0.12011 0.60885 0.0
H1246 H 0.83965 0.13169 0.58763 0.0
H1247 H 0.84621 0.15056 0.61181 0.0
C1248 C 0.60862 0.15875 0.30896 0.0
C1249 C 0.62887 0.14322 0.30268 0.0
C1250 C 0.60059 0.15987 0.33103 0.0
C1251 C 0.61353 0.1455 0.34721 0.0
C1252 C 0.63343 0.12909 0.34079 0.0
C1253 C 0.64069 0.12797 0.31851 0.0
C1254 C 0.57893 0.17714 0.33712 0.0
C1255 C 0.64794 0.11376 0.35761 0.0
C1256 C 0.61838 0.1717 0.40522 0.0
C1257 C 0.60258 0.15536 0.41718 0.0
C1258 C 0.62163 0.16897 0.3824 0.0
C1259 C 0.60832 0.14974 0.37106 0.0
C1260 C 0.59121 0.13407 0.38275 0.0
C1261 C 0.58863 0.13696 0.40575 0.0
C1262 C 0.64008 0.18612 0.37058 0.0
C1263 C 0.5763 0.11371 0.37109 0.0
H1264 H 0.59918 0.17016 0.29656 0.0
H1265 H 0.65637 0.11603 0.31358 0.0
H1266 H 0.5652 0.16709 0.34785 0.0
H1267 H 0.58622 0.19353 0.34662 0.0
H1268 H 0.56882 0.18439 0.32231 0.0
H1269 H 0.66165 0.1006 0.34975 0.0
H1270 H 0.65849 0.12668 0.36874 0.0
H1271 H 0.63475 0.10263 0.36802 0.0
H1272 H 0.62867 0.18642 0.4138 0.0
H1273 H 0.57643 0.12424 0.41484 0.0
H1274 H 0.63047 0.19611 0.35681 0.0
H1275 H 0.65557 0.17467 0.36326 0.0
H1276 H 0.64857 0.20045 0.38177 0.0
H1277 H 0.56677 0.12157 0.35626 0.0
H1278 H 0.56181 0.10505 0.38202 0.0
H1279 H 0.58932 0.09862 0.36535 0.0
C1280 C 0.58138 0.86326 0.06232 0.0
C1281 C 0.59509 0.88491 0.05627 0.0
C1282 C 0.57975 0.85563 0.08446 0.0
C1283 C 0.59224 0.86991 0.10095 0.0
C1284 C 0.60565 0.89206 0.09507 0.0
C1285 C 0.60686 0.89933 0.07279 0.0
C1286 C 0.56518 0.83192 0.09011 0.0
C1287 C 0.61918 0.90776 0.11224 0.0
C1288 C 0.57203 0.86013 0.16049 0.0
C1289 C 0.59041 0.84306 0.16811 0.0
C1290 C 0.5725 0.86923 0.13872 0.0
C1291 C 0.59191 0.86116 0.12426 0.0
C1292 C 0.61076 0.84427 0.1319 0.0
C1293 C 0.60974 0.83537 0.15372 0.0
C1294 C 0.55208 0.88722 0.13112 0.0
C1295 C 0.63179 0.83528 0.11693 0.0
H1296 H 0.57256 0.85177 0.04967 0.0
H1297 H 0.61718 0.91624 0.06831 0.0
H1298 H 0.57821 0.81757 0.09717 0.0
H1299 H 0.55069 0.8361 0.10287 0.0
H1300 H 0.55563 0.82359 0.07546 0.0
H1301 H 0.62806 0.92493 0.10504 0.0
H1302 H 0.60577 0.91368 0.12536 0.0
H1303 H 0.63414 0.89626 0.12028 0.0
H1304 H 0.55728 0.8665 0.17158 0.0
H1305 H 0.6238 0.82193 0.15933 0.0
H1306 H 0.54138 0.8787 0.11721 0.0
H1307 H 0.56069 0.90498 0.1249 0.0
H1308 H 0.53856 0.892 0.14455 0.0
H1309 H 0.62371 0.82475 0.10273 0.0
H1310 H 0.64543 0.82278 0.12564 0.0
H1311 H 0.64223 0.85173 0.11011 0.0
C1312 C 0.59419 0.6316 0.57575 0.0
C1313 C 0.60503 0.65218 0.56452 0.0
C1314 C 0.59621 0.62932 0.59877 0.0
C1315 C 0.60892 0.64831 0.61088 0.0
C1316 C 0.62136 0.66816 0.59961 0.0
C1317 C 0.61955 0.66964 0.57655 0.0
C1318 C 0.58326 0.6075 0.61022 0.0
C1319 C 0.63499 0.6889 0.61198 0.0
C1320 C 0.58323 0.66405 0.66753 0.0
C1321 C 0.60198 0.65417 0.68137 0.0
C1322 C 0.58525 0.66206 0.64455 0.0
C1323 C 0.60632 0.6494 0.63525 0.0
C1324 C 0.62501 0.63874 0.64919 0.0
C1325 C 0.62277 0.64157 0.67218 0.0
C1326 C 0.56515 0.67411 0.63023 0.0
C1327 C 0.64737 0.62458 0.63982 0.0
H1328 H 0.58299 0.61785 0.56685 0.0
H1329 H 0.62876 0.68513 0.56807 0.0
H1330 H 0.5956 0.59944 0.62328 0.0
H1331 H 0.56572 0.61434 0.61833 0.0
H1332 H 0.57807 0.59222 0.59846 0.0
H1333 H 0.64578 0.70153 0.60073 0.0
H1334 H 0.621 0.70052 0.62115 0.0
H1335 H 0.64822 0.68078 0.6243 0.0
H1336 H 0.56737 0.67411 0.67472 0.0
H1337 H 0.63714 0.63384 0.68302 0.0
H1338 H 0.55632 0.65965 0.61942 0.0
H1339 H 0.57386 0.68855 0.61931 0.0
H1340 H 0.55003 0.68331 0.64013 0.0
H1341 H 0.64075 0.60934 0.62862 0.0
H1342 H 0.65933 0.61606 0.65296 0.0
H1343 H 0.65923 0.63756 0.62984 0.0
C1344 C 0.59052 0.38484 0.90863 0.0
C1345 C 0.60553 0.37223 0.92419 0.0
C1346 C 0.59097 0.37779 0.88627 0.0
C1347 C 0.60644 0.35731 0.87951 0.0
C1348 C 0.6215 0.34441 0.89522 0.0
C1349 C 0.62101 0.35218 0.91735 0.0
C1350 C 0.57495 0.39221 0.86989 0.0
C1351 C 0.63783 0.32217 0.88872 0.0
C1352 C 0.58926 0.32299 0.82659 0.0
C1353 C 0.60736 0.33244 0.81183 0.0
C1354 C 0.58877 0.3309 0.84869 0.0
C1355 C 0.60656 0.34902 0.85607 0.0
C1356 C 0.62477 0.35879 0.84118 0.0
C1357 C 0.62509 0.35019 0.81925 0.0
C1358 C 0.56939 0.31967 0.86419 0.0
C1359 C 0.6438 0.37841 0.8484 0.0
H1360 H 0.57871 0.40045 0.91396 0.0
H1361 H 0.6323 0.34217 0.92947 0.0
H1362 H 0.58704 0.39982 0.85646 0.0
H1363 H 0.56099 0.37932 0.86213 0.0
H1364 H 0.5646 0.40816 0.87772 0.0
H1365 H 0.64836 0.31417 0.90299 0.0
H1366 H 0.6259 0.30705 0.88144 0.0
H1367 H 0.65165 0.32798 0.8759 0.0
H1368 H 0.57574 0.30906 0.82086 0.0
H1369 H 0.63887 0.35771 0.80774 0.0
H1370 H 0.55737 0.33486 0.87123 0.0
H1371 H 0.57906 0.3102 0.87822 0.0
H1372 H 0.55699 0.30566 0.85583 0.0
H1373 H 0.63385 0.39521 0.85514 0.0
H1374 H 0.65624 0.38459 0.83463 0.0
H1375 H 0.65583 0.37069 0.86184 0.0
C1376 C 0.87995 0.34044 0.15482 0.0
C1377 C 0.89762 0.3558 0.16571 0.0
C1378 C 0.87643 0.34224 0.13186 0.0
C1379 C 0.89094 0.35982 0.11957 0.0
C1380 C 0.90938 0.37475 0.13037 0.0
C1381 C 0.91251 0.37252 0.15328 0.0
C1382 C 0.85664 0.32595 0.12087 0.0
C1383 C 0.92532 0.39363 0.11783 0.0
C1384 C 0.89623 0.35534 0.0571 0.0
C1385 C 0.87896 0.37391 0.05027 0.0
C1386 C 0.89988 0.35003 0.07961 0.0
C1387 C 0.88599 0.36372 0.09563 0.0
C1388 C 0.86821 0.38217 0.08883 0.0
C1389 C 0.86489 0.38701 0.06623 0.0
C1390 C 0.91888 0.33009 0.08625 0.0
C1391 C 0.85316 0.39729 0.10544 0.0
H1392 H 0.86826 0.32763 0.16433 0.0
H1393 H 0.92656 0.38405 0.16153 0.0
H1394 H 0.84121 0.33808 0.11438 0.0
H1395 H 0.86495 0.31573 0.10659 0.0
H1396 H 0.84833 0.31191 0.13244 0.0
H1397 H 0.9396 0.40298 0.12854 0.0
H1398 H 0.93528 0.38413 0.10399 0.0
H1399 H 0.91298 0.40842 0.11054 0.0
H1400 H 0.90684 0.34488 0.0448 0.0
H1401 H 0.85174 0.40158 0.06108 0.0
H1402 H 0.90981 0.31583 0.09711 0.0
H1403 H 0.93442 0.33892 0.09585 0.0
H1404 H 0.92719 0.32026 0.07173 0.0
H1405 H 0.84282 0.3844 0.11674 0.0
H1406 H 0.83929 0.41013 0.09742 0.0
H1407 H 0.86616 0.40881 0.11572 0.0
C1408 C 0.87212 0.63397 0.33159 0.0
C1409 C 0.88268 0.6482 0.31438 0.0
C1410 C 0.88083 0.6366 0.35335 0.0
C1411 C 0.90084 0.65361 0.35791 0.0
C1412 C 0.91155 0.66808 0.34058 0.0
C1413 C 0.90218 0.66533 0.31901 0.0
C1414 C 0.86866 0.62115 0.37146 0.0
C1415 C 0.93312 0.68617 0.34475 0.0
C1416 C 0.90876 0.6766 0.41688 0.0
C1417 C 0.92774 0.66044 0.42481 0.0
C1418 C 0.89989 0.67465 0.39512 0.0
C1419 C 0.91047 0.65626 0.38086 0.0
C1420 C 0.92984 0.64005 0.38869 0.0
C1421 C 0.93812 0.64222 0.41066 0.0
C1422 C 0.87894 0.69201 0.38747 0.0
C1423 C 0.94179 0.62041 0.37388 0.0
H1424 H 0.8569 0.62089 0.32799 0.0
H1425 H 0.91059 0.67604 0.30562 0.0
H1426 H 0.88298 0.60872 0.37932 0.0
H1427 H 0.86116 0.63384 0.38451 0.0
H1428 H 0.85295 0.60918 0.3652 0.0
H1429 H 0.9395 0.69579 0.32941 0.0
H1430 H 0.9273 0.70075 0.35691 0.0
H1431 H 0.94941 0.67582 0.35199 0.0
H1432 H 0.90044 0.69046 0.42789 0.0
H1433 H 0.95297 0.62991 0.41672 0.0
H1434 H 0.86231 0.68067 0.38227 0.0
H1435 H 0.88524 0.70304 0.37288 0.0
H1436 H 0.87289 0.70542 0.40058 0.0
H1437 H 0.92724 0.60674 0.36826 0.0
H1438 H 0.95716 0.60981 0.38231 0.0
H1439 H 0.94969 0.6296 0.3589 0.0
C1440 C 0.42263 0.36759 0.42761 0.0
C1441 C 0.40427 0.38537 0.43374 0.0
C1442 C 0.42602 0.36088 0.40538 0.0
C1443 C 0.41079 0.37242 0.38898 0.0
C1444 C 0.39275 0.39094 0.39502 0.0
C1445 C 0.38965 0.39713 0.41737 0.0
C1446 C 0.44534 0.34093 0.39954 0.0
C1447 C 0.37635 0.40381 0.37795 0.0
C1448 C 0.4318 0.36893 0.32913 0.0
C1449 C 0.4166 0.34926 0.32105 0.0
C1450 C 0.43014 0.3767 0.35124 0.0
C1451 C 0.41297 0.36439 0.36557 0.0
C1452 C 0.3976 0.3445 0.35753 0.0
C1453 C 0.39956 0.33722 0.33533 0.0
C1454 C 0.44666 0.39812 0.35923 0.0
C1455 C 0.37917 0.33082 0.3724 0.0
H1456 H 0.43372 0.35827 0.44028 0.0
H1457 H 0.3757 0.41113 0.4221 0.0
H1458 H 0.4357 0.32429 0.3922 0.0
H1459 H 0.45868 0.34831 0.38694 0.0
H1460 H 0.45635 0.33455 0.41416 0.0
H1461 H 0.36411 0.4187 0.38529 0.0
H1462 H 0.38832 0.41254 0.36496 0.0
H1463 H 0.36408 0.38963 0.36972 0.0
H1464 H 0.44479 0.37843 0.31806 0.0
H1465 H 0.38811 0.32174 0.32924 0.0
H1466 H 0.4587 0.39159 0.37313 0.0
H1467 H 0.4347 0.41376 0.36558 0.0
H1468 H 0.45909 0.40565 0.34596 0.0
H1469 H 0.3894 0.32231 0.38659 0.0
H1470 H 0.36876 0.31562 0.36359 0.0
H1471 H 0.36523 0.34441 0.37925 0.0
C1472 C 0.41737 0.65039 0.08468 0.0
C1473 C 0.39612 0.64487 0.07171 0.0
C1474 C 0.41577 0.65029 0.10788 0.0
C1475 C 0.39244 0.64429 0.11816 0.0
C1476 C 0.37126 0.63776 0.10507 0.0
C1477 C 0.37337 0.63819 0.08204 0.0
C1478 C 0.43871 0.6574 0.12136 0.0
C1479 C 0.34612 0.63094 0.11537 0.0
C1480 C 0.38655 0.62473 0.17818 0.0
C1481 C 0.37657 0.64674 0.18778 0.0
C1482 C 0.39303 0.62397 0.15571 0.0
C1483 C 0.38951 0.6458 0.14253 0.0
C1484 C 0.38049 0.66839 0.1523 0.0
C1485 C 0.37406 0.66857 0.17478 0.0
C1486 C 0.40264 0.59954 0.14588 0.0
C1487 C 0.37649 0.69208 0.13878 0.0
H1488 H 0.43492 0.65566 0.07666 0.0
H1489 H 0.35708 0.63342 0.072 0.0
H1490 H 0.43506 0.67541 0.13021 0.0
H1491 H 0.44255 0.64276 0.13407 0.0
H1492 H 0.45586 0.65976 0.11095 0.0
H1493 H 0.33184 0.62529 0.10283 0.0
H1494 H 0.34857 0.61514 0.12725 0.0
H1495 H 0.33862 0.64734 0.12475 0.0
H1496 H 0.3891 0.60795 0.1882 0.0
H1497 H 0.36622 0.68561 0.18195 0.0
H1498 H 0.42013 0.60296 0.1362 0.0
H1499 H 0.3883 0.59179 0.13433 0.0
H1500 H 0.40668 0.58507 0.15872 0.0
H1501 H 0.39368 0.69646 0.12898 0.0
H1502 H 0.37182 0.7087 0.14924 0.0
H1503 H 0.36077 0.68904 0.12692 0.0
C1504 C 0.11792 0.66166 0.9227 0.0
C1505 C 0.10154 0.64372 0.93208 0.0
C1506 C 0.12044 0.66392 0.89972 0.0
C1507 C 0.1066 0.64753 0.88576 0.0
C1508 C 0.09174 0.628 0.8951 0.0
C1509 C 0.08925 0.62642 0.91814 0.0
C1510 C 0.13645 0.68504 0.89041 0.0
C1511 C 0.07702 0.60986 0.88074 0.0
C1512 C 0.08241 0.67325 0.83138 0.0
C1513 C 0.09927 0.66253 0.81619 0.0
C1514 C 0.08499 0.66887 0.85407 0.0
C1515 C 0.10473 0.65303 0.86175 0.0
C1516 C 0.12205 0.64236 0.84651 0.0
C1517 C 0.11924 0.64746 0.82383 0.0
C1518 C 0.06641 0.68104 0.8698 0.0
C1519 C 0.14307 0.6251 0.8541 0.0
H1520 H 0.12808 0.67464 0.9333 0.0
H1521 H 0.07655 0.61248 0.92506 0.0
H1522 H 0.14876 0.67796 0.87692 0.0
H1523 H 0.12394 0.69978 0.88325 0.0
H1524 H 0.14852 0.69399 0.90325 0.0
H1525 H 0.0696 0.59355 0.89033 0.0
H1526 H 0.06078 0.61992 0.87314 0.0
H1527 H 0.08904 0.6026 0.86711 0.0
H1528 H 0.06722 0.68521 0.82543 0.0
H1529 H 0.13213 0.63907 0.81199 0.0
H1530 H 0.07668 0.69231 0.8824 0.0
H1531 H 0.05559 0.66621 0.87869 0.0
H1532 H 0.05277 0.69363 0.86117 0.0
H1533 H 0.15467 0.63457 0.86693 0.0
H1534 H 0.15563 0.61928 0.84028 0.0
H1535 H 0.13488 0.60788 0.86174 0.0
C1536 C 0.1074 0.37427 0.68106 0.0
C1537 C 0.12079 0.35374 0.69003 0.0
C1538 C 0.10536 0.3776 0.65813 0.0
C1539 C 0.11672 0.35982 0.64376 0.0
C1540 C 0.12953 0.3386 0.65263 0.0
C1541 C 0.13152 0.33588 0.67565 0.0
C1542 C 0.09161 0.40053 0.6493 0.0
C1543 C 0.14171 0.31912 0.6378 0.0
C1544 C 0.09649 0.35921 0.58347 0.0
C1545 C 0.11643 0.37238 0.57345 0.0
C1546 C 0.09633 0.35484 0.60637 0.0
C1547 C 0.11643 0.3642 0.6195 0.0
C1548 C 0.1364 0.37785 0.60947 0.0
C1549 C 0.13622 0.38163 0.58654 0.0
C1550 C 0.07489 0.33993 0.61645 0.0
C1551 C 0.15798 0.38845 0.62296 0.0
H1552 H 0.09855 0.38787 0.69195 0.0
H1553 H 0.14208 0.32009 0.68231 0.0
H1554 H 0.10497 0.41259 0.63986 0.0
H1555 H 0.07646 0.39463 0.63772 0.0
H1556 H 0.08303 0.4121 0.66267 0.0
H1557 H 0.14932 0.30278 0.64724 0.0
H1558 H 0.12782 0.31204 0.62553 0.0
H1559 H 0.15746 0.32793 0.62844 0.0
H1560 H 0.08136 0.35176 0.57329 0.0
H1561 H 0.15148 0.39206 0.57882 0.0
H1562 H 0.06525 0.35139 0.62929 0.0
H1563 H 0.08244 0.32278 0.62472 0.0
H1564 H 0.06068 0.33402 0.60394 0.0
H1565 H 0.15054 0.4014 0.63585 0.0
H1566 H 0.17183 0.39897 0.61265 0.0
H1567 H 0.16806 0.3729 0.63157 0.0
C1568 C 0.96447 0.26533 0.2459 0.0
C1569 C 0.9623 0.28391 0.22943 0.0
C1570 C 0.98688 0.25112 0.24834 0.0
C1571 C 0.00757 0.25539 0.23386 0.0
C1572 C 0.00509 0.27346 0.21673 0.0
C1573 C 0.98261 0.28749 0.21478 0.0
C1574 C 0.98867 0.232 0.2668 0.0
C1575 C 0.02642 0.27838 0.20068 0.0
C1576 C 0.0743 0.23566 0.25159 0.0
C1577 C 0.07685 0.2122 0.24101 0.0
C1578 C 0.05184 0.24993 0.24948 0.0
C1579 C 0.03164 0.24066 0.23627 0.0
C1580 C 0.03453 0.21735 0.22507 0.0
C1581 C 0.05695 0.20343 0.22766 0.0
C1582 C 0.04951 0.27467 0.26173 0.0
C1583 C 0.01378 0.2069 0.21053 0.0
H1584 H 0.9491 0.26262 0.25747 0.0
H1585 H 0.98115 0.30176 0.20197 0.0
H1586 H 0.99317 0.21305 0.25998 0.0
H1587 H 0.0043 0.23724 0.27816 0.0
H1588 H 0.97086 0.23067 0.27649 0.0
H1589 H 0.02128 0.29262 0.18794 0.0
H1590 H 0.04331 0.28523 0.20976 0.0
H1591 H 0.03186 0.26056 0.19224 0.0
H1592 H 0.08947 0.24244 0.26208 0.0
H1593 H 0.05883 0.18539 0.21929 0.0
H1594 H 0.03325 0.27384 0.2733 0.0
H1595 H 0.04571 0.29025 0.2499 0.0
H1596 H 0.06686 0.2793 0.27128 0.0
H1597 H 0.99647 0.20366 0.2205 0.0
H1598 H 0.01925 0.18881 0.20251 0.0
H1599 H 0.00887 0.22077 0.19746 0.0
C1600 C 1.00278 0.70817 0.50326 0.0
C1601 C 0.00899 0.69465 0.52249 0.0
C1602 C 0.01167 0.73293 0.49974 0.0
C1603 C 0.02789 0.7443 0.5155 0.0
C1604 C 0.03457 0.73064 0.5348 0.0
C1605 C 0.02492 0.70614 0.53813 0.0
C1606 C 0.00388 0.74683 0.47902 0.0
C1607 C 0.0523 0.74175 0.55179 0.0
C1608 C 0.07508 0.79404 0.49685 0.0
C1609 C 0.06512 0.81638 0.50595 0.0
C1610 C 0.06282 0.77071 0.49938 0.0
C1611 C 0.03966 0.76952 0.51102 0.0
C1612 C 0.02872 0.79217 0.51927 0.0
C1613 C 0.04165 0.81536 0.51675 0.0
C1614 C 0.07536 0.74713 0.49046 0.0
C1615 C 0.0038 0.79177 0.5314 0.0
H1616 H 0.99097 0.69944 0.49084 0.0
H1617 H 0.02998 0.69596 0.55304 0.0
H1618 H 0.99634 0.76581 0.48328 0.0
H1619 H 0.0206 0.74973 0.46825 0.0
H1620 H 0.98927 0.73638 0.46949 0.0
H1621 H 0.05514 0.72899 0.56618 0.0
H1622 H 0.07098 0.74556 0.54411 0.0
H1623 H 0.04482 0.76008 0.55786 0.0
H1624 H 0.09309 0.79454 0.4883 0.0
H1625 H 0.0338 0.83246 0.52386 0.0
H1626 H 0.06219 0.73674 0.47947 0.0
H1627 H 0.08027 0.7343 0.50434 0.0
H1628 H 0.0929 0.7514 0.48106 0.0
H1629 H 0.98939 0.78147 0.52155 0.0
H1630 H 0.99667 0.81112 0.53496 0.0
H1631 H 0.00602 0.78151 0.54728 0.0
C1632 C 0.44292 0.73889 0.73047 0.0
C1633 C 0.43082 0.75664 0.74409 0.0
C1634 C 0.4689 0.7335 0.7329 0.0
C1635 C 0.48338 0.74665 0.74896 0.0
C1636 C 0.47116 0.76423 0.76303 0.0
C1637 C 0.44507 0.76877 0.7606 0.0
C1638 C 0.48098 0.71412 0.71792 0.0
C1639 C 0.48583 0.77909 0.78006 0.0
C1640 C 0.5478 0.72 0.76567 0.0
C1641 C 0.5643 0.73297 0.75141 0.0
C1642 C 0.52153 0.72436 0.76519 0.0
C1643 C 0.51142 0.74263 0.7505 0.0
C1644 C 0.52811 0.75664 0.73683 0.0
C1645 C 0.55425 0.75141 0.73723 0.0
C1646 C 0.5045 0.70862 0.77976 0.0
C1647 C 0.51828 0.77678 0.72136 0.0
H1648 H 0.43213 0.72943 0.71767 0.0
H1649 H 0.43613 0.78279 0.77104 0.0
H1650 H 0.49487 0.7235 0.7069 0.0
H1651 H 0.49146 0.69993 0.72787 0.0
H1652 H 0.46684 0.70412 0.70752 0.0
H1653 H 0.47341 0.7914 0.79026 0.0
H1654 H 0.49627 0.76609 0.79119 0.0
H1655 H 0.50007 0.79114 0.77167 0.0
H1656 H 0.55523 0.70548 0.77651 0.0
H1657 H 0.5668 0.76151 0.72615 0.0
H1658 H 0.49171 0.69705 0.7693 0.0
H1659 H 0.49241 0.72102 0.7901 0.0
H1660 H 0.51534 0.69577 0.79078 0.0
H1661 H 0.50623 0.76799 0.70847 0.0
H1662 H 0.53381 0.7873 0.71308 0.0
H1663 H 0.50631 0.79045 0.73055 0.0
C1664 C 0.45717 0.22662 0.97321 0.0
C1665 C 0.46518 0.2067 0.98691 0.0
C1666 C 0.47027 0.2497 0.97239 0.0
C1667 C 0.49194 0.25327 0.98577 0.0
C1668 C 0.50047 0.23306 -0.00064 0.0
C1669 C 0.48708 0.20994 -0.00033 0.0
C1670 C 0.46072 0.27041 0.95735 0.0
C1671 C 0.52344 0.23607 0.01393 0.0
C1672 C 0.53943 0.30428 0.96968 0.0
C1673 C 0.5333 0.32414 0.98412 0.0
C1674 C 0.52594 0.28139 0.96984 0.0
C1675 C 0.5059 0.27795 0.98506 0.0
C1676 C 0.49911 0.29821 -0.00069 0.0
C1677 C 0.51277 0.32114 -0.00144 0.0
C1678 C 0.53357 0.26063 0.95403 0.0
C1679 C 0.47794 0.29536 0.01586 0.0
H1680 H 0.44031 0.22425 0.96322 0.0
H1681 H 0.49322 0.19478 0.01048 0.0
H1682 H 0.45562 0.28733 0.96725 0.0
H1683 H 0.47583 0.27619 0.94567 0.0
H1684 H 0.44388 0.26447 0.94766 0.0
H1685 H 0.5276 0.21869 0.0236 0.0
H1686 H 0.54021 0.24077 0.00371 0.0
H1687 H 0.52048 0.252 0.02559 0.0
H1688 H 0.55532 0.30644 0.95849 0.0
H1689 H 0.50818 0.3362 0.01003 0.0
H1690 H 0.51705 0.2546 0.94403 0.0
H1691 H 0.54014 0.24387 0.96345 0.0
H1692 H 0.54893 0.26663 0.94264 0.0
H1693 H 0.46009 0.29043 0.00724 0.0
H1694 H 0.47484 0.31286 0.02565 0.0
H1695 H 0.48232 0.27962 0.02738 0.0
C1696 C 0.95428 0.69525 0.25941 0.0
C1697 C 0.93382 0.70229 0.24589 0.0
C1698 C 0.97626 0.71007 0.26082 0.0
C1699 C 0.9781 0.73263 0.24834 0.0
C1700 C 0.95739 0.74009 0.23484 0.0
C1701 C 0.93544 0.72489 0.23384 0.0
C1702 C 0.99758 0.70149 0.27567 0.0
C1703 C 0.95854 0.76403 0.22132 0.0
C1704 C 0.02425 0.7829 0.26853 0.0
C1705 C 0.04502 0.77972 0.2543 0.0
C1706 C 1.00252 0.76776 0.26675 0.0
C1707 C 1.00129 0.74881 0.25026 0.0
C1708 C 0.02244 0.74499 0.23616 0.0
C1709 C 0.04409 0.76043 0.23839 0.0
C1710 C 0.98068 0.77235 0.28234 0.0
C1711 C 0.02197 0.72494 0.21843 0.0
H1712 H 0.95319 0.67792 0.26894 0.0
H1713 H 0.91985 0.73036 0.22322 0.0
H1714 H 0.01514 0.69904 0.26586 0.0
H1715 H 1.00146 0.7161 0.28838 0.0
H1716 H 0.99327 0.68337 0.28417 0.0
H1717 H 0.94113 0.76702 0.21137 0.0
H1718 H 0.96122 0.78057 0.23236 0.0
H1719 H 0.97504 0.76336 0.20999 0.0
H1720 H 0.02476 0.7977 0.28092 0.0
H1721 H 0.05985 0.75801 0.22713 0.0
H1722 H 0.97626 0.75479 0.29162 0.0
H1723 H 0.96352 0.77752 0.27281 0.0
H1724 H 0.9847 0.78767 0.29441 0.0
H1725 H 0.01856 0.70611 0.22595 0.0
H1726 H 0.03993 0.7242 0.20889 0.0
H1727 H 0.00616 0.72866 0.20681 0.0
C1728 C 0.51714 0.71651 0.52047 0.0
C1729 C 0.51942 0.70186 0.5012 0.0
C1730 C 0.508 0.74149 0.51973 0.0
C1731 C 0.50043 0.75214 0.49928 0.0
C1732 C 0.50289 0.73753 0.47971 0.0
C1733 C 0.51256 0.71269 0.48088 0.0
C1734 C 0.50604 0.75637 0.54097 0.0
C1735 C 0.49459 0.74786 0.45761 0.0
C1736 C 0.44865 0.80192 0.50225 0.0
C1737 C 0.46175 0.82467 0.4984 0.0
C1738 C 0.46099 0.77845 0.50226 0.0
C1739 C 0.48741 0.77735 0.49879 0.0
C1740 C 0.501 0.80019 0.4953 0.0
C1741 C 0.48799 0.8236 0.49496 0.0
C1742 C 0.44556 0.75472 0.50579 0.0
C1743 C 0.52926 0.79986 0.49191 0.0
H1744 H 0.5228 0.70854 0.53622 0.0
H1745 H 0.51437 0.70161 0.46589 0.0
H1746 H 0.51522 0.77511 0.53904 0.0
H1747 H 0.48585 0.75981 0.54497 0.0
H1748 H 0.51493 0.74637 0.55513 0.0
H1749 H 0.49915 0.73481 0.44379 0.0
H1750 H 0.47385 0.75115 0.45779 0.0
H1751 H 0.50378 0.76636 0.45442 0.0
H1752 H 0.42838 0.80226 0.50492 0.0
H1753 H 0.49831 0.84095 0.4919 0.0
H1754 H 0.45211 0.74476 0.52088 0.0
H1755 H 0.44822 0.7416 0.49166 0.0
H1756 H 0.42503 0.75873 0.50756 0.0
H1757 H 0.53861 0.79064 0.50622 0.0
H1758 H 0.53719 0.81918 0.48988 0.0
H1759 H 0.534 0.78855 0.47703 0.0
C1760 C 0.46423 0.21809 0.71256 0.0
C1761 C 0.44936 0.23207 0.72745 0.0
C1762 C 0.49062 0.22145 0.71143 0.0
C1763 C 0.50249 0.23951 0.72525 0.0
C1764 C 0.48742 0.25452 0.73955 0.0
C1765 C 0.46113 0.25046 0.74062 0.0
C1766 C 0.50591 0.20483 0.69615 0.0
C1767 C 0.49918 0.27438 0.75425 0.0
C1768 C 0.57132 0.23343 0.74347 0.0
C1769 C 0.58338 0.25147 0.7301 0.0
C1770 C 0.54527 0.22845 0.74129 0.0
C1771 C 0.53072 0.24209 0.7256 0.0
C1772 C 0.54301 0.25938 0.71132 0.0
C1773 C 0.56916 0.26364 0.71357 0.0
C1774 C 0.53307 0.20942 0.75654 0.0
C1775 C 0.52832 0.27454 0.6945 0.0
H1776 H 0.45544 0.20361 0.70248 0.0
H1777 H 0.44985 0.26136 0.75215 0.0
H1778 H 0.51833 0.21653 0.68549 0.0
H1779 H 0.51835 0.19229 0.70606 0.0
H1780 H 0.49374 0.19287 0.68543 0.0
H1781 H 0.48474 0.28571 0.7632 0.0
H1782 H 0.51168 0.26517 0.7666 0.0
H1783 H 0.51111 0.28737 0.74431 0.0
H1784 H 0.58205 0.22382 0.75622 0.0
H1785 H 0.57811 0.27764 0.70313 0.0
H1786 H 0.52137 0.19591 0.74693 0.0
H1787 H 0.5203 0.21932 0.76824 0.0
H1788 H 0.54727 0.19858 0.76623 0.0
H1789 H 0.51639 0.26191 0.68423 0.0
H1790 H 0.54089 0.28565 0.68344 0.0
H1791 H 0.51544 0.28783 0.70317 0.0
C1792 C 0.99187 0.21057 0.94955 0.0
C1793 C 0.99738 0.19622 0.96847 0.0
C1794 C 0.98009 0.2344 0.95118 0.0
C1795 C 0.97416 0.24445 0.97228 0.0
C1796 C 0.97996 0.23016 0.99144 0.0
C1797 C 0.99123 0.20617 0.9893 0.0
C1798 C 0.9737 0.24867 0.9303 0.0
C1799 C 0.9743 0.24024 0.01427 0.0
C1800 C 0.95911 0.31521 0.97718 0.0
C1801 C 0.93261 0.31488 0.97825 0.0
C1802 C 0.97303 0.29245 0.97545 0.0
C1803 C 0.96009 0.26894 0.97428 0.0
C1804 C 0.93337 0.26865 0.97512 0.0
C1805 C 0.92007 0.29145 0.97731 0.0
C1806 C 1.00153 0.29353 0.97493 0.0
C1807 C 0.9187 0.24419 0.97346 0.0
H1808 H 0.9967 0.20311 0.9334 0.0
H1809 H 0.99589 0.19553 0.00404 0.0
H1810 H 0.95296 0.25169 0.9293 0.0
H1811 H 0.98272 0.2676 0.93054 0.0
H1812 H 0.97996 0.23849 0.91519 0.0
H1813 H 0.98145 0.22756 0.02752 0.0
H1814 H 0.98299 0.25919 0.01638 0.0
H1815 H 0.95359 0.24253 0.01638 0.0
H1816 H 0.96896 0.33317 0.9778 0.0
H1817 H 0.89959 0.29082 0.97783 0.0
H1818 H 0.00863 0.2854 0.95921 0.0
H1819 H 0.00944 0.28193 0.98857 0.0
H1820 H 0.00878 0.31317 0.97653 0.0
H1821 H 0.92368 0.2342 0.95792 0.0
H1822 H 0.89791 0.24726 0.97374 0.0
H1823 H 0.9238 0.23151 0.98737 0.0
C1824 C 0.96067 0.81156 0.72206 0.0
C1825 C 0.93782 0.79992 0.72817 0.0
C1826 C 0.98377 0.79857 0.7228 0.0
C1827 C 0.98435 0.77314 0.73001 0.0
C1828 C 0.96123 0.76083 0.73537 0.0
C1829 C 0.93815 0.77434 0.73426 0.0
C1830 C 0.00772 0.81247 0.7166 0.0
C1831 C 0.96103 0.73372 0.7431 0.0
C1832 C 0.04572 0.73733 0.71814 0.0
C1833 C 0.059 0.74018 0.73811 0.0
C1834 C 0.02114 0.74721 0.71545 0.0
C1835 C 0.00941 0.76031 0.73314 0.0
C1836 C 0.02267 0.76315 0.75336 0.0
C1837 C 0.04722 0.75315 0.75557 0.0
C1838 C 0.00785 0.74394 0.69355 0.0
C1839 C 0.01102 0.77705 0.77264 0.0
H1840 H 0.9606 0.83121 0.71692 0.0
H1841 H 0.92059 0.76524 0.73898 0.0
H1842 H 0.02 0.81445 0.73137 0.0
H1843 H 0.0185 0.80157 0.70408 0.0
H1844 H 0.00385 0.83164 0.70987 0.0
H1845 H 0.94151 0.7262 0.74488 0.0
H1846 H 0.9716 0.72159 0.73132 0.0
H1847 H 0.97073 0.73232 0.75932 0.0
H1848 H 0.05452 0.72734 0.70453 0.0
H1849 H 0.05709 0.75531 0.77115 0.0
H1850 H 0.00485 0.76269 0.68575 0.0
H1851 H 0.98893 0.73536 0.6961 0.0
H1852 H 0.01878 0.73186 0.68194 0.0
H1853 H 0.00789 0.79716 0.76814 0.0
H1854 H 0.02312 0.77636 0.78764 0.0
H1855 H 0.99229 0.76882 0.7767 0.0
C1856 C 0.02877 0.31323 0.49396 0.0
C1857 C 0.04679 0.3173 0.51059 0.0
C1858 C 0.01553 0.29013 0.4926 0.0
C1859 C 0.02011 0.27084 0.50845 0.0
C1860 C 0.03727 0.2755 0.52594 0.0
C1861 C 0.05051 0.29852 0.52667 0.0
C1862 C 0.99745 0.28594 0.47364 0.0
C1863 C 0.04232 0.25584 0.5435 0.0
C1864 C 0.97056 0.21901 0.51418 0.0
C1865 C 0.98132 0.19905 0.5021 0.0
C1866 C 0.98319 0.24217 0.51678 0.0
C1867 C 0.00709 0.24575 0.50674 0.0
C1868 C 0.01843 0.22538 0.49503 0.0
C1869 C 0.00548 0.20215 0.493 0.0
C1870 C 0.97061 0.26304 0.52982 0.0
C1871 C 0.04382 0.22844 0.48397 0.0
H1872 H 0.0261 0.32746 0.48129 0.0
H1873 H 0.06446 0.30156 0.53955 0.0
H1874 H 0.00421 0.26995 0.46331 0.0
H1875 H 0.97849 0.28071 0.48002 0.0
H1876 H 0.99552 0.30296 0.46299 0.0
H1877 H 0.05497 0.263 0.55676 0.0
H1878 H 0.02428 0.24957 0.55111 0.0
H1879 H 0.05124 0.23896 0.5359 0.0
H1880 H 0.95186 0.21666 0.52126 0.0
H1881 H 0.01366 0.18692 0.48336 0.0
H1882 H 0.9664 0.27925 0.51877 0.0
H1883 H 0.98353 0.27001 0.54292 0.0
H1884 H 0.95268 0.25674 0.53765 0.0
H1885 H 0.04273 0.24366 0.47137 0.0
H1886 H 0.05025 0.21075 0.4758 0.0
H1887 H 0.05824 0.23422 0.49629 0.0
C1888 C 0.4696 0.25625 0.27502 0.0
C1889 C 0.45305 0.25809 0.25694 0.0
C1890 C 0.49442 0.24712 0.27244 0.0
C1891 C 0.50287 0.23922 0.25133 0.0
C1892 C 0.48621 0.24091 0.23302 0.0
C1893 C 0.46159 0.25047 0.23601 0.0
C1894 C 0.51158 0.24582 0.29237 0.0
C1895 C 0.49424 0.23223 0.2103 0.0
C1896 C 0.5735 0.22917 0.24002 0.0
C1897 C 0.57574 0.20294 0.24294 0.0
C1898 C 0.54998 0.24142 0.24298 0.0
C1899 C 0.52827 0.22707 0.2488 0.0
C1900 C 0.53065 0.20073 0.25214 0.0
C1901 C 0.55424 0.18911 0.24935 0.0
C1902 C 0.54826 0.26963 0.23958 0.0
C1903 C 0.5081 0.1846 0.25825 0.0
H1904 H 0.46336 0.26247 0.2912 0.0
H1905 H 0.44895 0.25186 0.22195 0.0
H1906 H 0.51644 0.22584 0.29599 0.0
H1907 H 0.52956 0.25591 0.28893 0.0
H1908 H 0.50274 0.25422 0.30733 0.0
H1909 H 0.47944 0.23571 0.19763 0.0
H1910 H 0.5118 0.24212 0.20523 0.0
H1911 H 0.49851 0.21168 0.21067 0.0
H1912 H 0.58994 0.24 0.23505 0.0
H1913 H 0.55566 0.16886 0.25187 0.0
H1914 H 0.54017 0.27875 0.25451 0.0
H1915 H 0.53533 0.27383 0.22561 0.0
H1916 H 0.56699 0.27825 0.23604 0.0
H1917 H 0.49969 0.19136 0.27398 0.0
H1918 H 0.51312 0.16431 0.26018 0.0
H1919 H 0.4933 0.18623 0.24532 0.0
C1920 C 0.54925 0.79819 0.00551 0.0
C1921 C 0.54348 0.81805 0.99091 0.0
C1922 C 0.53438 0.77619 0.00648 0.0
C1923 C 0.51307 0.77376 0.99248 0.0
C1924 C 0.50693 0.79383 0.97782 0.0
C1925 C 0.52215 0.81576 0.97724 0.0
C1926 C 0.54153 0.75553 0.02256 0.0
C1927 C 0.48433 0.79206 0.96266 0.0
C1928 C 0.48566 0.70736 0.98354 0.0
C1929 C 0.46522 0.70733 -0.00166 0.0
C1930 C 0.50131 0.72887 0.98127 0.0
C1931 C 0.49651 0.7508 0.99418 0.0
C1932 C 0.47619 0.75061 0.00939 0.0
C1933 C 0.4609 0.72901 0.01126 0.0
C1934 C 0.52282 0.72825 0.9649 0.0
C1935 C 0.47046 0.77333 0.02369 0.0
H1936 H 0.56563 0.79973 0.0162 0.0
H1937 H 0.51768 0.83084 0.96575 0.0
H1938 H 0.52587 0.75236 0.03445 0.0
H1939 H 0.54459 0.7375 0.01357 0.0
H1940 H 0.55896 0.76011 0.03201 0.0
H1941 H 0.48243 0.80894 0.95184 0.0
H1942 H 0.48593 0.77498 0.9521 0.0
H1943 H 0.46679 0.79004 0.97257 0.0
H1944 H 0.48905 0.69083 0.97336 0.0
H1945 H 0.44527 0.72924 0.02286 0.0
H1946 H 0.54102 0.7316 0.97355 0.0
H1947 H 0.52046 0.74366 0.95261 0.0
H1948 H 0.52398 0.70992 0.95597 0.0
H1949 H 0.48708 0.77792 0.03414 0.0
H1950 H 0.45388 0.77022 0.03464 0.0
H1951 H 0.46664 0.79007 0.01314 0.0
C1952 C 0.97683 0.19606 0.72989 0.0
C1953 C 0.95612 0.2011 0.74379 0.0
C1954 C 0.99922 0.21029 0.73109 0.0
C1955 C 1.00124 0.23016 0.74665 0.0
C1956 C 0.9803 0.23563 0.76058 0.0
C1957 C 0.95796 0.2211 0.75894 0.0
C1958 C 0.0208 0.20396 0.71568 0.0
C1959 C 0.98163 0.25667 0.77739 0.0
C1960 C 0.06749 0.25412 0.76182 0.0
C1961 C 0.06917 0.27618 0.74904 0.0
C1962 C 0.0455 0.23894 0.76129 0.0
C1963 C 0.02484 0.24588 0.74752 0.0
C1964 C 0.0269 0.26769 0.73409 0.0
C1965 C 0.0489 0.28253 0.73507 0.0
C1966 C 0.0441 0.21583 0.77586 0.0
C1967 C 0.00565 0.27567 0.71892 0.0
H1968 H 0.97564 0.18071 0.71806 0.0
H1969 H 0.94221 0.22499 0.7699 0.0
H1970 H 0.02544 0.22063 0.70529 0.0
H1971 H 0.03798 0.19924 0.72537 0.0
H1972 H 0.01634 0.18778 0.70463 0.0
H1973 H 0.96398 0.25828 0.78726 0.0
H1974 H 0.99772 0.25338 0.78881 0.0
H1975 H 0.9851 0.27497 0.76893 0.0
H1976 H 0.08288 0.24928 0.77288 0.0
H1977 H 0.05005 0.29953 0.7251 0.0
H1978 H 0.04041 0.19878 0.76567 0.0
H1979 H 0.02809 0.21776 0.78761 0.0
H1980 H 0.06178 0.21281 0.78544 0.0
H1981 H 1.00112 0.26018 0.7072 0.0
H1982 H 0.01038 0.29291 0.70926 0.0
H1983 H 0.98833 0.27949 0.72871 0.0
C1984 C 0.47735 0.32268 0.51324 0.0
C1985 C 0.4546 0.32469 0.50141 0.0
C1986 C 0.49233 0.30056 0.51196 0.0
C1987 C 0.48448 0.28002 0.49845 0.0
C1988 C 0.46164 0.28212 0.48639 0.0
C1989 C 0.44709 0.30429 0.48802 0.0
C1990 C 0.51658 0.29916 0.52504 0.0
C1991 C 0.45257 0.26097 0.47159 0.0
C1992 C 0.53404 0.23451 0.47578 0.0
C1993 C 0.53142 0.21324 0.48953 0.0
C1994 C 0.51905 0.25622 0.47862 0.0
C1995 C 0.50077 0.25694 0.4957 0.0
C1996 C 0.49756 0.23534 0.5094 0.0
C1997 C 0.51288 0.21372 0.50614 0.0
C1998 C 0.52301 0.27854 0.46341 0.0
C1999 C 0.47821 0.23524 0.52772 0.0
H2000 H 0.48324 0.33818 0.52377 0.0
H2001 H 0.42963 0.30558 0.47869 0.0
H2002 H 0.51637 0.28226 0.53591 0.0
H2003 H 0.53288 0.29705 0.51363 0.0
H2004 H 0.51962 0.31624 0.5354 0.0
H2005 H 0.43398 0.26521 0.46386 0.0
H2006 H 0.46658 0.25755 0.45827 0.0
H2007 H 0.45086 0.24318 0.4812 0.0
H2008 H 0.54822 0.23439 0.46284 0.0
H2009 H 0.51088 0.19755 0.51701 0.0
H2010 H 0.52819 0.29551 0.4732 0.0
H2011 H 0.50519 0.28298 0.45454 0.0
H2012 H 0.5381 0.27503 0.451 0.0
H2013 H 0.48228 0.25078 0.53952 0.0
H2014 H 0.47796 0.21705 0.53691 0.0
H2015 H 0.45908 0.23873 0.52082 0.0
C2016 C 0.45489 0.68643 0.25209 0.0
C2017 C 0.43289 0.70143 0.2526 0.0
C2018 C 0.47896 0.69704 0.24932 0.0
C2019 C 0.48145 0.72348 0.24676 0.0
C2020 C 0.45944 0.73892 0.24739 0.0
C2021 C 0.43538 0.72772 0.25041 0.0
C2022 C 0.50177 0.67978 0.24899 0.0
C2023 C 0.46133 0.7672 0.24464 0.0
C2024 C 0.54777 0.74937 0.25733 0.0
C2025 C 0.55781 0.75067 0.23586 0.0
C2026 C 0.52273 0.74136 0.26109 0.0
C2027 C 0.5072 0.73448 0.24296 0.0
C2028 C 0.5172 0.7358 0.22126 0.0
C2029 C 0.54232 0.74376 0.21799 0.0
C2030 C 0.51301 0.73992 0.28452 0.0
C2031 C 0.5014 0.72856 0.20145 0.0
H2032 H 0.45346 0.6661 0.25395 0.0
H2033 H 0.41859 0.73948 0.25084 0.0
H2034 H 0.51153 0.68124 0.2328 0.0
H2035 H 0.51548 0.68562 0.26189 0.0
H2036 H 0.49667 0.65965 0.25182 0.0
H2037 H 0.44262 0.77665 0.24593 0.0
H2038 H 0.47411 0.77519 0.2574 0.0
H2039 H 0.4697 0.77171 0.22829 0.0
H2040 H 0.55947 0.75469 0.27127 0.0
H2041 H 0.54967 0.74493 0.2013 0.0
H2042 H 0.5087 0.71998 0.2888 0.0
H2043 H 0.49515 0.75078 0.2861 0.0
H2044 H 0.52688 0.74737 0.29668 0.0
H2045 H 0.49651 0.70818 0.20231 0.0
H2046 H 0.51135 0.73216 0.18559 0.0
H2047 H 0.48336 0.73931 0.20148 0.0
C2048 C 0.02957 0.70041 0.01074 0.0
C2049 C 0.01677 0.68427 -0.00393 0.0
C2050 C 0.02502 0.72663 0.01086 0.0
C2051 C 0.00671 0.73702 -0.00363 0.0
C2052 C 0.99312 0.7207 0.98203 0.0
C2053 C 0.9986 0.69462 0.98181 0.0
C2054 C 0.04039 0.74331 0.02603 0.0
C2055 C 0.97292 0.73083 0.96676 0.0
C2056 C 0.97778 0.80127 0.00968 0.0
C2057 C 0.98895 0.81706 0.99374 0.0
C2058 C 0.98359 0.77537 0.01089 0.0
C2059 C 1.00163 0.76491 -0.00377 0.0
C2060 C 0.01407 0.78097 0.98091 0.0
C2061 C 0.00734 0.80675 0.97964 0.0
C2062 C 0.96943 0.75898 0.02718 0.0
C2063 C 0.034 0.77078 0.96542 0.0
H2064 H 0.04397 0.69273 0.02156 0.0
H2065 H 0.9887 0.6823 0.97039 0.0
H2066 H 0.05118 0.75728 0.0161 0.0
H2067 H 0.02771 0.75414 0.03715 0.0
H2068 H 0.05391 0.73231 0.0363 0.0
H2069 H 0.96314 0.71555 0.95752 0.0
H2070 H 0.95865 0.74161 0.97637 0.0
H2071 H 0.98146 0.7441 0.95468 0.0
H2072 H 0.96338 0.80877 0.02053 0.0
H2073 H 0.01611 0.81871 0.96727 0.0
H2074 H 0.9829 0.74851 0.03785 0.0
H2075 H 0.95808 0.74471 0.01808 0.0
H2076 H 0.95652 0.77013 0.0379 0.0
H2077 H 0.04844 0.75999 0.97482 0.0
H2078 H 0.04359 0.78606 0.95601 0.0
H2079 H 0.02518 0.75753 0.95348 0.0
C2080 C 0.13616 0.26258 0.32735 0.0
C2081 C 0.16091 0.25617 0.32129 0.0
C2082 C 0.13164 0.27991 0.34444 0.0
C2083 C 0.1524 0.29093 0.35567 0.0
C2084 C 0.17734 0.28608 0.34841 0.0
C2085 C 0.18129 0.2688 0.33123 0.0
C2086 C 0.10472 0.28492 0.35154 0.0
C2087 C 0.19995 0.29764 0.35984 0.0
C2088 C 0.13804 0.34309 0.39688 0.0
C2089 C 0.13557 0.32912 0.41645 0.0
C2090 C 0.14422 0.33108 0.37691 0.0
C2091 C 0.14813 0.3046 0.37673 0.0
C2092 C 0.14685 0.29067 0.39669 0.0
C2093 C 0.14045 0.30312 0.41631 0.0
C2094 C 0.14532 0.34647 0.35592 0.0
C2095 C 0.15126 0.26244 0.39721 0.0
H2096 H 0.12037 0.25289 0.31972 0.0
H2097 H 0.20043 0.26437 0.32615 0.0
H2098 H 0.10112 0.27551 0.36763 0.0
H2099 H 0.10153 0.30548 0.35391 0.0
H2100 H 0.09078 0.27772 0.33932 0.0
H2101 H 0.21767 0.29485 0.35027 0.0
H2102 H 0.19705 0.31819 0.36251 0.0
H2103 H 0.20236 0.28876 0.37633 0.0
H2104 H 0.1339 0.36318 0.39699 0.0
H2105 H 0.13858 0.29241 0.43152 0.0
H2106 H 0.12905 0.34143 0.3452 0.0
H2107 H 0.16281 0.34213 0.34653 0.0
H2108 H 0.14464 0.36712 0.35924 0.0
H2109 H 0.13642 0.25273 0.38739 0.0
H2110 H 0.15094 0.25471 0.41429 0.0
H2111 H 0.16978 0.25781 0.38959 0.0
C2112 C 0.94717 0.89928 0.6608 0.0
C2113 C 0.92171 0.89649 0.65505 0.0
C2114 C 0.96518 0.90594 0.64494 0.0
C2115 C 0.95737 0.91012 0.62285 0.0
C2116 C 0.93126 0.91011 0.61754 0.0
C2117 C 0.91361 0.90301 0.63378 0.0
C2118 C 0.9928 0.90581 0.65139 0.0
C2119 C 0.92217 0.91535 0.59436 0.0
C2120 C 0.01245 0.93154 0.58787 0.0
C2121 C 0.02144 0.9083 0.57996 0.0
C2122 C 0.98999 0.93292 0.60012 0.0
C2123 C 0.97685 0.91037 0.6052 0.0
C2124 C 0.98507 0.88707 0.59604 0.0
C2125 C 0.00716 0.8864 0.58326 0.0
C2126 C 0.98129 0.95825 0.60874 0.0
C2127 C 0.9717 0.86251 0.60117 0.0
H2128 H 0.95327 0.89409 0.67732 0.0
H2129 H 0.89386 0.90065 0.62938 0.0
H2130 H 1.00239 0.88946 0.64348 0.0
H2131 H 1.0023 0.92324 0.64549 0.0
H2132 H 0.99547 0.90437 0.66956 0.0
H2133 H 0.90184 0.9207 0.59414 0.0
H2134 H 0.93337 0.9307 0.58657 0.0
H2135 H 0.92454 0.8981 0.58414 0.0
H2136 H 0.02331 0.94857 0.5848 0.0
H2137 H 0.01421 0.86851 0.57704 0.0
H2138 H 0.98729 0.96036 0.62622 0.0
H2139 H 0.96036 0.95977 0.60823 0.0
H2140 H 0.98957 0.97409 0.59909 0.0
H2141 H 0.97393 0.85802 0.61899 0.0
H2142 H 0.97931 0.84644 0.59137 0.0
H2143 H 0.95116 0.86426 0.59779 0.0
C2144 C 0.35154 0.66477 0.89989 0.0
C2145 C 0.35809 0.68068 0.91753 0.0
C2146 C 0.34207 0.67487 0.88008 0.0
C2147 C 0.33933 0.70139 0.878 0.0
C2148 C 0.34353 0.71718 0.89654 0.0
C2149 C 0.35282 0.70659 0.91612 0.0
C2150 C 0.33728 0.6574 0.86082 0.0
C2151 C 0.34065 0.74556 0.89509 0.0
C2152 C 0.3573 0.73447 0.82509 0.0
C2153 C 0.33385 0.7434 0.81761 0.0
C2154 C 0.35909 0.71948 0.84406 0.0
C2155 C 0.33684 0.71315 0.85585 0.0
C2156 C 0.31294 0.72065 0.84761 0.0
C2157 C 0.31173 0.73585 0.82859 0.0
C2158 C 0.38501 0.71188 0.85228 0.0
C2159 C 0.28879 0.71383 0.85948 0.0
H2160 H 0.35556 0.6447 0.90094 0.0
H2161 H 0.35745 0.71881 0.92993 0.0
H2162 H 0.32018 0.66327 0.8515 0.0
H2163 H 0.35359 0.65824 0.8493 0.0
H2164 H 0.33492 0.63748 0.86629 0.0
H2165 H 0.34148 0.7547 0.9116 0.0
H2166 H 0.35609 0.75343 0.88473 0.0
H2167 H 0.32246 0.75063 0.88711 0.0
H2168 H 0.3745 0.74043 0.8169 0.0
H2169 H 0.29354 0.7424 0.82263 0.0
H2170 H 0.3857 0.69124 0.85551 0.0
H2171 H 0.38907 0.72167 0.86812 0.0
H2172 H 0.40021 0.7167 0.84032 0.0
H2173 H 0.28922 0.69384 0.86506 0.0
H2174 H 0.27189 0.71674 0.84886 0.0
H2175 H 0.28677 0.72586 0.8744 0.0
C2176 C 0.52497 0.09185 0.06686 0.0
C2177 C 0.51365 0.11451 0.05998 0.0
C2178 C 0.54546 0.09197 0.08155 0.0
C2179 C 0.55447 0.11533 0.08974 0.0
C2180 C 0.54462 0.1383 0.08121 0.0
C2181 C 0.52434 0.13759 0.06627 0.0
C2182 C 0.55591 0.0671 0.08972 0.0
C2183 C 0.55381 0.16363 0.08946 0.0
C2184 C 0.57269 0.12156 0.14972 0.0
C2185 C 0.59871 0.12604 0.14823 0.0
C2186 C 0.55834 0.11654 0.13083 0.0
C2187 C 0.5704 0.1159 0.10993 0.0
C2188 C 0.59705 0.11827 0.10856 0.0
C2189 C 0.61098 0.12343 0.12784 0.0
C2190 C 0.53 0.11387 0.13311 0.0
C2191 C 0.61061 0.11719 0.08664 0.0
H2192 H 0.51698 0.07399 0.06152 0.0
H2193 H 0.51558 0.15507 0.06086 0.0
H2194 H 0.57681 0.06792 0.09122 0.0
H2195 H 0.54814 0.06304 0.10639 0.0
H2196 H 0.55074 0.05121 0.07859 0.0
H2197 H 0.54661 0.17951 0.0792 0.0
H2198 H 0.54727 0.16648 0.10672 0.0
H2199 H 0.57477 0.16428 0.08957 0.0
H2200 H 0.56334 0.12357 0.16559 0.0
H2201 H 0.63111 0.12711 0.12673 0.0
H2202 H 0.5234 0.09642 0.12474 0.0
H2203 H 0.5205 0.13014 0.12501 0.0
H2204 H 0.52387 0.11318 0.15067 0.0
H2205 H 0.60273 0.10202 0.07601 0.0
H2206 H 0.63123 0.11394 0.08879 0.0
H2207 H 0.60798 0.1354 0.07783 0.0
C2208 C 0.12352 0.69562 0.08463 0.0
C2209 C 0.12129 0.6693 0.08436 0.0
C2210 C 0.12982 0.70837 0.1041 0.0
C2211 C 0.13378 0.69433 0.12377 0.0
C2212 C 0.13355 0.66756 0.12312 0.0
C2213 C 0.12717 0.65528 0.1033 0.0
C2214 C 0.13018 0.73695 0.10399 0.0
C2215 C 0.13804 0.65197 0.14363 0.0
C2216 C 0.15841 0.73716 0.16852 0.0
C2217 C 0.13566 0.74599 0.17761 0.0
C2218 C 0.15845 0.71817 0.15238 0.0
C2219 C 0.13514 0.7081 0.14509 0.0
C2220 C 0.11238 0.7151 0.15589 0.0
C2221 C 0.11295 0.73397 0.17217 0.0
C2222 C 0.18318 0.71069 0.14176 0.0
C2223 C 0.08713 0.70457 0.14875 0.0
H2224 H 0.1187 0.7063 0.0699 0.0
H2225 H 0.12505 0.63488 0.10301 0.0
H2226 H 0.11407 0.74424 0.11388 0.0
H2227 H 0.14784 0.74406 0.11169 0.0
H2228 H 0.12874 0.74483 0.08701 0.0
H2229 H 0.14279 0.63205 0.1395 0.0
H2230 H 0.15353 0.66008 0.15378 0.0
H2231 H 0.12065 0.65196 0.15388 0.0
H2232 H 0.17605 0.74612 0.1732 0.0
H2233 H 0.0954 0.74076 0.17928 0.0
H2234 H 0.18519 0.72072 0.12575 0.0
H2235 H 0.1837 0.69008 0.13833 0.0
H2236 H 0.19961 0.71573 0.15234 0.0
H2237 H 0.08198 0.71258 0.13239 0.0
H2238 H 0.07184 0.70926 0.16068 0.0
H2239 H 0.08816 0.68373 0.14692 0.0
C2240 C 0.55026 0.87716 0.31857 0.0
C2241 C 0.57194 0.86216 0.32009 0.0
C2242 C 0.5388 0.88678 0.33771 0.0
C2243 C 0.54962 0.8814 0.35864 0.0
C2244 C 0.57249 0.8676 0.36002 0.0
C2245 C 0.58327 0.8579 0.34067 0.0
C2246 C 0.51431 0.90128 0.33565 0.0
C2247 C 0.58479 0.86186 0.38199 0.0
C2248 C 0.52455 0.91869 0.40742 0.0
C2249 C 0.50666 0.90185 0.41611 0.0
C2250 C 0.5393 0.91205 0.38907 0.0
C2251 C 0.53576 0.88813 0.37909 0.0
C2252 C 0.51828 0.87074 0.38824 0.0
C2253 C 0.50403 0.87778 0.40676 0.0
C2254 C 0.55813 0.93084 0.38 0.0
C2255 C 0.5139 0.84507 0.37796 0.0
H2256 H 0.54152 0.88015 0.30256 0.0
H2257 H 0.60009 0.8462 0.34164 0.0
H2258 H 0.49868 0.89003 0.34295 0.0
H2259 H 0.51542 0.91931 0.34497 0.0
H2260 H 0.5095 0.90557 0.31817 0.0
H2261 H 0.60403 0.85372 0.37999 0.0
H2262 H 0.58616 0.87926 0.39216 0.0
H2263 H 0.573 0.84813 0.39126 0.0
H2264 H 0.52669 0.93722 0.41484 0.0
H2265 H 0.48996 0.8649 0.4133 0.0
H2266 H 0.55219 0.93696 0.36325 0.0
H2267 H 0.57702 0.9219 0.37836 0.0
H2268 H 0.55989 0.94787 0.39066 0.0
H2269 H 0.50671 0.84739 0.36085 0.0
H2270 H 0.50009 0.83355 0.38747 0.0
H2271 H 0.53198 0.83447 0.37693 0.0
C2272 C 0.36371 0.26066 0.65133 0.0
C2273 C 0.34298 0.24769 0.6601 0.0
C2274 C 0.36032 0.28019 0.63604 0.0
C2275 C 0.33548 0.28713 0.62956 0.0
C2276 C 0.31437 0.27509 0.63934 0.0
C2277 C 0.3184 0.25525 0.65437 0.0
C2278 C 0.38344 0.29252 0.62602 0.0
C2279 C 0.28762 0.28228 0.63333 0.0
C2280 C 0.34143 0.34752 0.59756 0.0
C2281 C 0.3467 0.33758 0.57661 0.0
C2282 C 0.33413 0.33147 0.6149 0.0
C2283 C 0.33239 0.30513 0.61097 0.0
C2284 C 0.33408 0.29577 0.5891 0.0
C2285 C 0.34131 0.3122 0.57212 0.0
C2286 C 0.33151 0.34223 0.63787 0.0
C2287 C 0.33177 0.2679 0.5841 0.0
H2288 H 0.38269 0.25472 0.65566 0.0
H2289 H 0.30233 0.24552 0.66153 0.0
H2290 H 0.38409 0.28859 0.608 0.0
H2291 H 0.38252 0.31333 0.62815 0.0
H2292 H 0.40131 0.2856 0.63356 0.0
H2293 H 0.2741 0.27687 0.64658 0.0
H2294 H 0.28589 0.30288 0.63019 0.0
H2295 H 0.28206 0.2722 0.61801 0.0
H2296 H 0.34554 0.36723 0.60097 0.0
H2297 H 0.34519 0.30469 0.55578 0.0
H2298 H 0.34951 0.33946 0.647 0.0
H2299 H 0.31633 0.33241 0.64719 0.0
H2300 H 0.3273 0.36282 0.63743 0.0
H2301 H 0.34917 0.25804 0.58972 0.0
H2302 H 0.32937 0.26431 0.56612 0.0
H2303 H 0.31552 0.25953 0.59306 0.0
C2304 C 0.99832 0.11107 0.90303 0.0
C2305 C 0.00946 0.09113 0.91467 0.0
C2306 C 0.98414 0.10658 0.88395 0.0
C2307 C 0.98081 0.0814 0.87642 0.0
C2308 C 0.99142 0.06105 0.88844 0.0
C2309 C 0.00592 0.0662 0.90736 0.0
C2310 C 0.9732 0.12893 0.87161 0.0
C2311 C 0.98804 0.03396 0.88117 0.0
C2312 C 0.92733 0.08395 0.83609 0.0
C2313 C 0.94072 0.09058 0.81697 0.0
C2314 C 0.9403 0.07714 0.85542 0.0
C2315 C 0.96707 0.07723 0.85538 0.0
C2316 C 0.98033 0.08003 0.83522 0.0
C2317 C 0.96692 0.08674 0.81616 0.0
C2318 C 0.92549 0.07333 0.87647 0.0
C2319 C 0.00885 0.07955 0.83438 0.0
H2320 H 1.00129 0.13032 0.90857 0.0
H2321 H 0.01426 0.05072 0.91656 0.0
H2322 H 0.9811 0.12967 0.85463 0.0
H2323 H 0.95238 0.12689 0.87011 0.0
H2324 H 0.97729 0.14721 0.87992 0.0
H2325 H 0.99146 0.02054 0.89499 0.0
H2326 H 0.96877 0.03067 0.8745 0.0
H2327 H 1.00178 0.02967 0.86783 0.0
H2328 H 0.90701 0.08672 0.8367 0.0
H2329 H 0.97717 0.09143 0.80118 0.0
H2330 H 0.92542 0.09123 0.88606 0.0
H2331 H 0.9343 0.05851 0.88693 0.0
H2332 H 0.90556 0.06799 0.873 0.0
H2333 H 0.01632 0.09765 0.84101 0.0
H2334 H 0.01593 0.07721 0.81721 0.0
H2335 H 0.01646 0.06402 0.84475 0.0
C2336 C 0.8696 0.75741 0.6451 0.0
C2337 C 0.84547 0.76434 0.6524 0.0
C2338 C 0.87265 0.74026 0.62766 0.0
C2339 C 0.85099 0.72969 0.6174 0.0
C2340 C 0.82658 0.73578 0.62531 0.0
C2341 C 0.82411 0.75313 0.64271 0.0
C2342 C 0.89906 0.73416 0.61973 0.0
C2343 C 0.80312 0.72457 0.615 0.0
C2344 C 0.86701 0.70944 0.55937 0.0
C2345 C 0.87463 0.6845 0.56314 0.0
C2346 C 0.85679 0.72394 0.5766 0.0
C2347 C 0.85429 0.71304 0.5979 0.0
C2348 C 0.85935 0.68701 0.601 0.0
C2349 C 0.86966 0.67303 0.58353 0.0
C2350 C 0.85141 0.7516 0.5726 0.0
C2351 C 0.85659 0.67459 0.62334 0.0
H2352 H 0.8861 0.76622 0.65241 0.0
H2353 H 0.80543 0.75819 0.6486 0.0
H2354 H 0.90225 0.71343 0.62012 0.0
H2355 H 0.90135 0.74043 0.60234 0.0
H2356 H 0.91388 0.74344 0.62992 0.0
H2357 H 0.78574 0.72935 0.62445 0.0
H2358 H 0.80096 0.73178 0.59788 0.0
H2359 H 0.80481 0.70369 0.61395 0.0
H2360 H 0.87122 0.71826 0.54361 0.0
H2361 H 0.87585 0.65373 0.58634 0.0
H2362 H 0.86672 0.76314 0.58007 0.0
H2363 H 0.83338 0.75729 0.58055 0.0
H2364 H 0.85037 0.75609 0.55468 0.0
H2365 H 0.87276 0.68012 0.63399 0.0
H2366 H 0.85638 0.65363 0.62201 0.0
H2367 H 0.83899 0.68088 0.63168 0.0
C2368 C 0.04312 0.13149 0.42695 0.0
C2369 C 0.03843 0.1075 0.43587 0.0
C2370 C 0.06055 0.13462 0.40972 0.0
C2371 C 0.07342 0.11321 0.40124 0.0
C2372 C 0.07065 0.08945 0.41167 0.0
C2373 C 0.05322 0.08691 0.42897 0.0
C2374 C 0.06336 0.1604 0.39926 0.0
C2375 C 0.08427 0.06626 0.40331 0.0
C2376 C 0.082 0.11812 0.33951 0.0
C2377 C 0.10702 0.12647 0.33797 0.0
C2378 C 0.07135 0.11218 0.36002 0.0
C2379 C 0.08609 0.115 0.37943 0.0
C2380 C 0.11189 0.12186 0.37781 0.0
C2381 C 0.12214 0.12748 0.35697 0.0
C2382 C 0.04384 0.10451 0.361 0.0
C2383 C 0.12816 0.12507 0.39812 0.0
H2384 H 0.03183 0.14749 0.43219 0.0
H2385 H 0.05011 0.06846 0.43628 0.0
H2386 H 0.08358 0.16478 0.39622 0.0
H2387 H 0.05355 0.16057 0.38304 0.0
H2388 H 0.05511 0.17558 0.40973 0.0
H2389 H 0.08382 0.05059 0.41555 0.0
H2390 H 0.07504 0.05961 0.3879 0.0
H2391 H 0.10426 0.07066 0.39929 0.0
H2392 H 0.07043 0.11737 0.32472 0.0
H2393 H 0.14144 0.13425 0.3557 0.0
H2394 H 0.03266 0.11972 0.36904 0.0
H2395 H 0.04157 0.08714 0.37109 0.0
H2396 H 0.03578 0.10099 0.34432 0.0
H2397 H 0.12297 0.14297 0.40655 0.0
H2398 H 0.1486 0.12583 0.39391 0.0
H2399 H 0.12497 0.10943 0.41002 0.0
C2400 C 0.62369 0.31362 0.07779 0.0
C2401 C 0.6186 0.33955 0.07899 0.0
C2402 C 0.63224 0.30033 0.09632 0.0
C2403 C 0.63556 0.3133 0.11659 0.0
C2404 C 0.63128 0.3397 0.11773 0.0
C2405 C 0.62289 0.35259 0.0988 0.0
C2406 C 0.63694 0.27222 0.09435 0.0
C2407 C 0.63452 0.35407 0.1391 0.0
C2408 C 0.63015 0.26779 0.16437 0.0
C2409 C 0.65557 0.26125 0.16761 0.0
C2410 C 0.62338 0.28644 0.14899 0.0
C2411 C 0.64253 0.29866 0.13658 0.0
C2412 C 0.66827 0.2937 0.1412 0.0
C2413 C 0.67448 0.27508 0.15675 0.0
C2414 C 0.59569 0.29149 0.14473 0.0
C2415 C 0.68923 0.30649 0.12847 0.0
H2416 H 0.62052 0.30365 0.06237 0.0
H2417 H 0.61868 0.37264 0.09973 0.0
H2418 H 0.65638 0.26759 0.09996 0.0
H2419 H 0.62359 0.26178 0.10516 0.0
H2420 H 0.63458 0.26528 0.07713 0.0
H2421 H 0.63304 0.37484 0.13667 0.0
H2422 H 0.61972 0.34811 0.15101 0.0
H2423 H 0.65311 0.3497 0.1467 0.0
H2424 H 0.61545 0.25721 0.17272 0.0
H2425 H 0.69418 0.27053 0.15969 0.0
H2426 H 0.59016 0.28283 0.12873 0.0
H2427 H 0.59205 0.3121 0.1435 0.0
H2428 H 0.58346 0.28348 0.15792 0.0
H2429 H 0.69001 0.29857 0.11149 0.0
H2430 H 0.70798 0.30364 0.13639 0.0
H2431 H 0.6856 0.32708 0.12695 0.0
C2432 C 0.51381 0.86921 0.88081 0.0
C2433 C 0.51501 0.88551 0.89893 0.0
C2434 C 0.4921 0.868 0.86767 0.0
C2435 C 0.47136 0.88411 0.87244 0.0
C2436 C 0.47262 0.90093 0.89062 0.0
C2437 C 0.49442 0.90116 0.90392 0.0
C2438 C 0.49134 0.84928 0.84879 0.0
C2439 C 0.45121 0.91888 0.89576 0.0
C2440 C 0.4304 0.8859 0.82163 0.0
C2441 C 0.41404 0.86574 0.82617 0.0
C2442 C 0.44745 0.89449 0.83778 0.0
C2443 C 0.44828 0.88223 0.85859 0.0
C2444 C 0.42972 0.86402 0.86403 0.0
C2445 C 0.41257 0.85625 0.84779 0.0
C2446 C 0.46635 0.91469 0.83169 0.0
C2447 C 0.42993 0.85034 0.88595 0.0
H2448 H 0.52987 0.85715 0.87719 0.0
H2449 H 0.49574 0.914 0.91784 0.0
H2450 H 0.47488 0.83644 0.85071 0.0
H2451 H 0.48902 0.85944 0.83288 0.0
H2452 H 0.50879 0.83761 0.84783 0.0
H2453 H 0.45503 0.93049 0.91069 0.0
H2454 H 0.4481 0.93173 0.88151 0.0
H2455 H 0.43337 0.90824 0.89833 0.0
H2456 H 0.43144 0.89349 0.80501 0.0
H2457 H 0.39938 0.84112 0.85148 0.0
H2458 H 0.48455 0.90565 0.82708 0.0
H2459 H 0.47002 0.92744 0.84589 0.0
H2460 H 0.45974 0.92615 0.81742 0.0
H2461 H 0.44551 0.83625 0.88597 0.0
H2462 H 0.41187 0.8402 0.88903 0.0
H2463 H 0.4334 0.86363 0.89979 0.0
C2464 C 0.84211 0.30023 0.90488 0.0
C2465 C 0.84328 0.32624 0.9008 0.0
C2466 C 0.83997 0.28301 0.88744 0.0
C2467 C 0.83861 0.29218 0.86547 0.0
C2468 C 0.83643 0.31851 0.86158 0.0
C2469 C 0.83905 0.33537 0.8794 0.0
C2470 C 0.84234 0.2551 0.89242 0.0
C2471 C 0.834 0.329 0.83849 0.0
C2472 C 0.8753 0.24934 0.82716 0.0
C2473 C 0.8563 0.2329 0.82015 0.0
C2474 C 0.86952 0.26997 0.84082 0.0
C2475 C 0.84401 0.27445 0.84702 0.0
C2476 C 0.82452 0.25924 0.83812 0.0
C2477 C 0.83096 0.23831 0.82507 0.0
C2478 C 0.89093 0.28565 0.85006 0.0
C2479 C 0.79707 0.26409 0.84351 0.0
H2480 H 0.84556 0.29331 0.92149 0.0
H2481 H 0.84017 0.35554 0.87629 0.0
H2482 H 0.82766 0.24418 0.88347 0.0
H2483 H 0.86107 0.24821 0.8867 0.0
H2484 H 0.8406 0.25103 0.91037 0.0
H2485 H 0.82573 0.34832 0.83865 0.0
H2486 H 0.85302 0.33014 0.83082 0.0
H2487 H 0.8221 0.31659 0.82797 0.0
H2488 H 0.89482 0.24497 0.82322 0.0
H2489 H 0.81629 0.22568 0.81916 0.0
H2490 H 0.89238 0.28251 0.86816 0.0
H2491 H 0.88722 0.30606 0.8474 0.0
H2492 H 0.90942 0.28081 0.8424 0.0
H2493 H 0.79315 0.25815 0.86075 0.0
H2494 H 0.78419 0.2535 0.83234 0.0
H2495 H 0.79271 0.28458 0.84228 0.0
C2496 C 0.4897 0.13283 0.57012 0.0
C2497 C 0.50311 0.11215 0.56184 0.0
C2498 C 0.47129 0.12945 0.5865 0.0
C2499 C 0.46593 0.10469 0.59429 0.0
C2500 C 0.47733 0.08356 0.584 0.0
C2501 C 0.49616 0.08759 0.56808 0.0
C2502 C 0.4595 0.15255 0.59699 0.0
C2503 C 0.4713 0.05686 0.59103 0.0
C2504 C 0.45342 0.10917 0.65515 0.0
C2505 C 0.42732 0.1132 0.65514 0.0
C2506 C 0.46615 0.10351 0.6355 0.0
C2507 C 0.45223 0.10175 0.61553 0.0
C2508 C 0.42548 0.10236 0.61608 0.0
C2509 C 0.41325 0.10842 0.63599 0.0
C2510 C 0.49472 0.10276 0.63572 0.0
C2511 C 0.40992 0.09952 0.59533 0.0
H2512 H 0.49522 0.15175 0.5652 0.0
H2513 H 0.5064 0.07161 0.5613 0.0
H2514 H 0.43865 0.15054 0.59776 0.0
H2515 H 0.46651 0.15457 0.6142 0.0
H2516 H 0.46408 0.17017 0.5878 0.0
H2517 H 0.47623 0.04302 0.5779 0.0
H2518 H 0.48242 0.05208 0.60601 0.0
H2519 H 0.45096 0.05481 0.59519 0.0
H2520 H 0.46416 0.1132 0.67002 0.0
H2521 H 0.39301 0.11182 0.63606 0.0
H2522 H 0.50222 0.1202 0.62788 0.0
H2523 H 0.5018 0.08639 0.62608 0.0
H2524 H 0.50241 0.10151 0.65278 0.0
H2525 H 0.40887 0.11801 0.5867 0.0
H2526 H 0.39031 0.0934 0.5992 0.0
H2527 H 0.41861 0.08567 0.58383 0.0
C2528 C 0.63369 0.73217 0.31839 0.0
C2529 C 0.65571 0.74505 0.31217 0.0
C2530 C 0.63284 0.71809 0.33795 0.0
C2531 C 0.65457 0.71689 0.3516 0.0
C2532 C 0.67753 0.72784 0.3444 0.0
C2533 C 0.67782 0.74187 0.32471 0.0
C2534 C 0.60799 0.70644 0.34492 0.0
C2535 C 0.70124 0.72646 0.35824 0.0
C2536 C 0.63366 0.71516 0.41093 0.0
C2537 C 0.63315 0.6891 0.41492 0.0
C2538 C 0.6429 0.72471 0.39095 0.0
C2539 C 0.65174 0.70768 0.3746 0.0
C2540 C 0.65361 0.68157 0.37943 0.0
C2541 C 0.64422 0.67252 0.39964 0.0
C2542 C 0.64094 0.75277 0.38657 0.0
C2543 C 0.66334 0.66292 0.36258 0.0
H2544 H 0.61651 0.73454 0.30888 0.0
H2545 H 0.69506 0.75131 0.31965 0.0
H2546 H 0.61082 0.68658 0.35029 0.0
H2547 H 0.60019 0.71707 0.3592 0.0
H2548 H 0.59376 0.70671 0.3314 0.0
H2549 H 0.71841 0.7306 0.34829 0.0
H2550 H 0.70005 0.7406 0.37175 0.0
H2551 H 0.70333 0.70755 0.36596 0.0
H2552 H 0.62543 0.72797 0.42296 0.0
H2553 H 0.64382 0.65233 0.40273 0.0
H2554 H 0.6257 0.75633 0.37433 0.0
H2555 H 0.65885 0.76006 0.37947 0.0
H2556 H 0.63655 0.76364 0.40182 0.0
H2557 H 0.64823 0.65894 0.35033 0.0
H2558 H 0.66896 0.64475 0.3704 0.0
H2559 H 0.67979 0.67074 0.35346 0.0
C2560 C 0.05468 0.89919 0.15885 0.0
C2561 C 0.05597 0.87286 0.16157 0.0
C2562 C 0.04189 0.90986 0.14073 0.0
C2563 C 0.02989 0.89377 0.12525 0.0
C2564 C 0.03193 0.86721 0.12751 0.0
C2565 C 0.04517 0.85712 0.14547 0.0
C2566 C 0.04055 0.93826 0.13854 0.0
C2567 C 0.01936 0.84934 0.11138 0.0
C2568 C 0.97092 0.91122 0.09373 0.0
C2569 C 0.98006 0.91187 0.072 0.0
C2570 C 0.98733 0.90723 0.11156 0.0
C2571 C 0.01353 0.90421 0.10753 0.0
C2572 C 0.02312 0.90714 0.08584 0.0
C2573 C 0.00618 0.91068 0.06824 0.0
C2574 C 0.97628 0.90392 0.1344 0.0
C2575 C 0.05101 0.90472 0.08097 0.0
H2576 H 0.06302 0.91147 0.1712 0.0
H2577 H 0.04681 0.83677 0.14703 0.0
H2578 H 0.0451 0.94411 0.12138 0.0
H2579 H 0.02103 0.94477 0.14212 0.0
H2580 H 0.0537 0.94796 0.15008 0.0
H2581 H 0.02319 0.82917 0.11532 0.0
H2582 H 0.99858 0.85238 0.11157 0.0
H2583 H 0.02605 0.85318 0.09434 0.0
H2584 H 0.95072 0.91192 0.09666 0.0
H2585 H 0.01323 0.91155 0.05144 0.0
H2586 H 0.98716 0.91498 0.14673 0.0
H2587 H 0.97751 0.88371 0.13925 0.0
H2588 H 0.95613 0.90985 0.13518 0.0
H2589 H 0.06239 0.91481 0.09361 0.0
H2590 H 0.05586 0.91231 0.06438 0.0
H2591 H 0.05653 0.88448 0.0815 0.0
C2592 C 0.68906 0.74795 0.83738 0.0
C2593 C 0.66548 0.74364 0.82742 0.0
C2594 C 0.69157 0.76517 0.85489 0.0
C2595 C 0.66987 0.778 0.86271 0.0
C2596 C 0.64637 0.77489 0.85176 0.0
C2597 C 0.64452 0.75781 0.83417 0.0
C2598 C 0.71706 0.76845 0.86574 0.0
C2599 C 0.62273 0.78831 0.85953 0.0
C2600 C 0.65614 0.79419 0.92183 0.0
C2601 C 0.65502 0.8206 0.92059 0.0
C2602 C 0.66381 0.77986 0.90358 0.0
C2603 C 0.67053 0.79238 0.88374 0.0
C2604 C 0.67265 0.81905 0.88342 0.0
C2605 C 0.66476 0.83295 0.90193 0.0
C2606 C 0.66172 0.75141 0.90474 0.0
C2607 C 0.68046 0.83303 0.86278 0.0
H2608 H 0.70541 0.73732 0.83186 0.0
H2609 H 0.62627 0.75443 0.8266 0.0
H2610 H 0.7203 0.78846 0.87048 0.0
H2611 H 0.71778 0.75692 0.88104 0.0
H2612 H 0.73267 0.7622 0.85473 0.0
H2613 H 0.60639 0.78504 0.84834 0.0
H2614 H 0.61757 0.78153 0.8763 0.0
H2615 H 0.62613 0.80896 0.86068 0.0
H2616 H 0.6489 0.78471 0.93642 0.0
H2617 H 0.66392 0.85341 0.90094 0.0
H2618 H 0.67846 0.74231 0.89708 0.0
H2619 H 0.64476 0.7452 0.89538 0.0
H2620 H 0.65992 0.74457 0.92204 0.0
H2621 H 0.69584 0.82287 0.85401 0.0
H2622 H 0.68688 0.85256 0.86659 0.0
H2623 H 0.66406 0.8343 0.85138 0.0
C2624 C 0.4206 0.37137 0.14928 0.0
C2625 C 0.4382 0.36631 0.16602 0.0
C2626 C 0.4286 0.37996 0.12849 0.0
C2627 C 0.45472 0.38377 0.12467 0.0
C2628 C 0.47239 0.37982 0.14195 0.0
C2629 C 0.46389 0.3709 0.1624 0.0
C2630 C 0.40932 0.38367 0.11037 0.0
C2631 C 0.50038 0.38414 0.13862 0.0
C2632 C 0.48788 0.37812 0.06982 0.0
C2633 C 0.4939 0.40349 0.06564 0.0
C2634 C 0.47294 0.37149 0.08804 0.0
C2635 C 0.46415 0.39068 0.10244 0.0
C2636 C 0.46806 0.41639 0.09706 0.0
C2637 C 0.48273 0.42248 0.07856 0.0
C2638 C 0.46855 0.34384 0.09296 0.0
C2639 C 0.45884 0.43741 0.11192 0.0
H2640 H 0.40073 0.36743 0.15212 0.0
H2641 H 0.47738 0.36695 0.17546 0.0
H2642 H 0.41233 0.40198 0.10182 0.0
H2643 H 0.41153 0.3685 0.09784 0.0
H2644 H 0.38963 0.38307 0.11678 0.0
H2645 H 0.51132 0.38176 0.15416 0.0
H2646 H 0.50778 0.37056 0.12621 0.0
H2647 H 0.50378 0.40347 0.13213 0.0
H2648 H 0.49627 0.36331 0.05988 0.0
H2649 H 0.48667 0.44216 0.07495 0.0
H2650 H 0.4487 0.34054 0.09814 0.0
H2651 H 0.48098 0.33789 0.1068 0.0
H2652 H 0.47276 0.33168 0.07843 0.0
H2653 H 0.43911 0.43392 0.11734 0.0
H2654 H 0.45974 0.45614 0.10364 0.0
H2655 H 0.47083 0.43812 0.12697 0.0
C2656 C 0.93965 0.16915 0.37875 0.0
C2657 C 0.92118 0.16154 0.394 0.0
C2658 C 0.93302 0.18283 0.35982 0.0
C2659 C 0.90727 0.18857 0.35596 0.0
C2660 C 0.88835 0.17805 0.36974 0.0
C2661 C 0.89555 0.16476 0.38878 0.0
C2662 C 0.95381 0.19364 0.34555 0.0
C2663 C 0.86064 0.18317 0.36575 0.0
C2664 C 0.89419 0.25502 0.33646 0.0
C2665 C 0.88952 0.25142 0.31395 0.0
C2666 C 0.90006 0.23463 0.35018 0.0
C2667 C 0.90078 0.20991 0.34118 0.0
C2668 C 0.89585 0.20607 0.31842 0.0
C2669 C 0.89061 0.22706 0.30493 0.0
C2670 C 0.90568 0.23965 0.3743 0.0
C2671 C 0.89604 0.17993 0.30842 0.0
H2672 H 0.95948 0.16588 0.38237 0.0
H2673 H 0.88116 0.15867 0.40038 0.0
H2674 H 0.94875 0.19266 0.32779 0.0
H2675 H 0.95657 0.21387 0.34981 0.0
H2676 H 0.97206 0.18361 0.34811 0.0
H2677 H 0.84845 0.16942 0.37465 0.0
H2678 H 0.85592 0.20245 0.37173 0.0
H2679 H 0.85614 0.18239 0.34785 0.0
H2680 H 0.89368 0.27399 0.34323 0.0
H2681 H 0.88683 0.22447 0.28747 0.0
H2682 H 0.92479 0.23246 0.37855 0.0
H2683 H 0.89185 0.22951 0.38486 0.0
H2684 H 0.90487 0.26011 0.37844 0.0
H2685 H 0.91541 0.17192 0.30916 0.0
H2686 H 0.8897 0.18001 0.29091 0.0
H2687 H 0.88355 0.16713 0.31802 0.0
C2688 C 0.01924 0.60283 0.58026 0.0
C2689 C 0.99947 0.58592 0.57588 0.0
C2690 C 0.03277 0.60157 0.60008 0.0
C2691 C 0.02668 0.58261 0.61574 0.0
C2692 C 0.00913 0.56348 0.61014 0.0
C2693 C 0.99549 0.56549 0.5903 0.0
C2694 C 0.05154 0.62232 0.60523 0.0
C2695 C 1.00309 0.54215 0.62583 0.0
C2696 C 0.06991 0.59091 0.66461 0.0
C2697 C 0.05613 0.609 0.67654 0.0
C2698 C 0.05933 0.57928 0.6459 0.0
C2699 C 0.03475 0.58636 0.639 0.0
C2700 C 0.01976 0.60211 0.6527 0.0
C2701 C 0.03065 0.61313 0.67142 0.0
C2702 C 0.07541 0.56152 0.63236 0.0
C2703 C 0.99327 0.60988 0.64621 0.0
H2704 H 0.02269 0.61849 0.56918 0.0
H2705 H 0.98078 0.55186 0.58664 0.0
H2706 H 0.04385 0.63464 0.61849 0.0
H2707 H 0.06956 0.61417 0.61131 0.0
H2708 H 0.05569 0.6343 0.59058 0.0
H2709 H 0.99628 0.52522 0.61672 0.0
H2710 H 0.01981 0.53681 0.63589 0.0
H2711 H 0.98784 0.5482 0.63726 0.0
H2712 H 0.08959 0.58749 0.66871 0.0
H2713 H 0.01987 0.62671 0.68101 0.0
H2714 H 0.08533 0.57238 0.61929 0.0
H2715 H 0.06368 0.54685 0.62417 0.0
H2716 H 0.08995 0.55211 0.64276 0.0
H2717 H 0.99412 0.62253 0.63157 0.0
H2718 H 0.98336 0.62007 0.65974 0.0
H2719 H 0.98189 0.5931 0.64159 0.0
C2720 C 0.68541 0.23908 0.66333 0.0
C2721 C 0.68548 0.26537 0.66054 0.0
C2722 C 0.68133 0.22297 0.64528 0.0
C2723 C 0.67665 0.23361 0.6242 0.0
C2724 C 0.67944 0.25997 0.62095 0.0
C2725 C 0.68403 0.27555 0.63921 0.0
C2726 C 0.67951 0.19486 0.64921 0.0
C2727 C 0.67452 0.2721 0.59877 0.0
C2728 C 0.66316 0.19547 0.57233 0.0
C2729 C 0.63661 0.19518 0.57246 0.0
C2730 C 0.67675 0.20683 0.58965 0.0
C2731 C 0.66337 0.21852 0.60714 0.0
C2732 C 0.63662 0.21746 0.6077 0.0
C2733 C 0.62364 0.20553 0.59052 0.0
C2734 C 0.70527 0.20704 0.58881 0.0
C2735 C 0.62155 0.22969 0.62608 0.0
H2736 H 0.68702 0.23126 0.67983 0.0
H2737 H 0.68404 0.29589 0.63703 0.0
H2738 H 0.65931 0.18938 0.65063 0.0
H2739 H 0.68777 0.18414 0.63518 0.0
H2740 H 0.68929 0.18922 0.66471 0.0
H2741 H 0.6812 0.29201 0.59822 0.0
H2742 H 0.68392 0.26136 0.58535 0.0
H2743 H 0.65387 0.27194 0.59539 0.0
H2744 H 0.67332 0.18744 0.55844 0.0
H2745 H 0.60317 0.20458 0.59113 0.0
H2746 H 0.71344 0.20326 0.60538 0.0
H2747 H 0.7119 0.22599 0.5835 0.0
H2748 H 0.71273 0.19282 0.57696 0.0
H2749 H 0.62722 0.22168 0.64229 0.0
H2750 H 0.60084 0.22699 0.62404 0.0
H2751 H 0.62551 0.2503 0.62657 0.0
C2752 C 0.07505 0.34562 0.86366 0.0
C2753 C 0.08643 0.36128 0.84783 0.0
C2754 C 0.05782 0.35546 0.87892 0.0
C2755 C 0.0523 0.38164 0.87851 0.0
C2756 C 0.06642 0.39797 0.86468 0.0
C2757 C 0.08326 0.38754 0.84925 0.0
C2758 C 0.04344 0.3374 0.89362 0.0
C2759 C 0.06189 0.42614 0.86464 0.0
C2760 C 0.98271 0.39473 0.8856 0.0
C2761 C 0.9812 0.40026 0.90814 0.0
C2762 C 0.00598 0.38956 0.87565 0.0
C2763 C 0.02836 0.39056 0.88852 0.0
C2764 C 0.0271 0.39759 0.91106 0.0
C2765 C 0.00337 0.40192 0.92074 0.0
C2766 C 0.00639 0.38175 0.8516 0.0
C2767 C 0.05052 0.39966 0.9252 0.0
H2768 H 0.07823 0.32537 0.86304 0.0
H2769 H 0.09236 0.39974 0.83725 0.0
H2770 H 0.04256 0.34469 0.91077 0.0
H2771 H 0.02371 0.33562 0.88751 0.0
H2772 H 0.05213 0.31826 0.89389 0.0
H2773 H 0.07789 0.43653 0.85694 0.0
H2774 H 0.04448 0.43038 0.85508 0.0
H2775 H 0.05904 0.43326 0.88172 0.0
H2776 H 0.96548 0.39324 0.87599 0.0
H2777 H 1.00209 0.40647 0.93817 0.0
H2778 H 0.01384 0.36219 0.8501 0.0
H2779 H 0.01913 0.39433 0.84207 0.0
H2780 H 0.98731 0.3824 0.84391 0.0
H2781 H 0.05542 0.38071 0.93181 0.0
H2782 H 0.04739 0.41251 0.93947 0.0
H2783 H 0.06692 0.40664 0.91551 0.0
C2784 C 0.87477 0.73735 0.15189 0.0
C2785 C 0.85048 0.73123 0.1593 0.0
C2786 C 0.8782 0.75446 0.13445 0.0
C2787 C 0.85678 0.7659 0.12449 0.0
C2788 C 0.83228 0.76066 0.13263 0.0
C2789 C 0.82942 0.74322 0.14988 0.0
C2790 C 0.90465 0.75954 0.12613 0.0
C2791 C 0.80909 0.77291 0.12274 0.0
C2792 C 0.8727 0.82316 0.08981 0.0
C2793 C 0.8745 0.81236 0.06875 0.0
C2794 C 0.86534 0.80858 0.10802 0.0
C2795 C 0.86016 0.78256 0.10501 0.0
C2796 C 0.86054 0.77197 0.08348 0.0
C2797 C 0.86767 0.78712 0.0655 0.0
C2798 C 0.86478 0.82062 0.13065 0.0
C2799 C 0.85521 0.74426 0.07966 0.0
H2800 H 0.89098 0.72789 0.1591 0.0
H2801 H 0.81065 0.7387 0.1559 0.0
H2802 H 0.90635 0.7532 0.10871 0.0
H2803 H 0.90863 0.78014 0.12645 0.0
H2804 H 0.91929 0.74969 0.13612 0.0
H2805 H 0.79163 0.76833 0.13214 0.0
H2806 H 0.8114 0.79376 0.12229 0.0
H2807 H 0.80663 0.76644 0.10543 0.0
H2808 H 0.87831 0.84271 0.09216 0.0
H2809 H 0.86953 0.77884 0.04918 0.0
H2810 H 0.88106 0.81369 0.14052 0.0
H2811 H 0.84728 0.81525 0.13962 0.0
H2812 H 0.86585 0.84158 0.12975 0.0
H2813 H 0.87048 0.73275 0.08724 0.0
H2814 H 0.85409 0.73954 0.06179 0.0
H2815 H 0.83719 0.73873 0.08769 0.0
C2816 C 0.43492 0.61618 0.33564 0.0
C2817 C 0.40883 0.61928 0.33845 0.0
C2818 C 0.45035 0.60929 0.35339 0.0
C2819 C 0.43929 0.60515 0.37439 0.0
C2820 C 0.41262 0.60531 0.37666 0.0
C2821 C 0.39758 0.61259 0.35857 0.0
C2822 C 0.4787 0.60916 0.35013 0.0
C2823 C 0.40012 0.60004 0.39858 0.0
C2824 C 0.48892 0.58475 0.41562 0.0
C2825 C 0.49664 0.60827 0.42393 0.0
C2826 C 0.4684 0.58294 0.40099 0.0
C2827 C 0.45593 0.60528 0.39414 0.0
C2828 C 0.46256 0.62882 0.40376 0.0
C2829 C 0.48272 0.62995 0.41873 0.0
C2830 C 0.46129 0.55739 0.3918 0.0
C2831 C 0.44985 0.65316 0.39683 0.0
H2832 H 0.44347 0.62111 0.31991 0.0
H2833 H 0.37735 0.61495 0.36068 0.0
H2834 H 0.48715 0.62552 0.35894 0.0
H2835 H 0.48712 0.59173 0.35719 0.0
H2836 H 0.48405 0.61038 0.3324 0.0
H2837 H 0.37991 0.5948 0.39647 0.0
H2838 H 0.41001 0.58462 0.40754 0.0
H2839 H 0.401 0.61726 0.40904 0.0
H2840 H 0.49944 0.5679 0.42008 0.0
H2841 H 0.48875 0.64809 0.42518 0.0
H2842 H 0.47036 0.55481 0.37542 0.0
H2843 H 0.44053 0.55582 0.38949 0.0
H2844 H 0.46777 0.54183 0.40279 0.0
H2845 H 0.45468 0.65741 0.37936 0.0
H2846 H 0.45577 0.66946 0.4072 0.0
H2847 H 0.42899 0.65128 0.39786 0.0
C2848 C 0.37056 0.20676 0.07968 0.0
C2849 C 0.37424 0.18062 0.07789 0.0
C2850 C 0.36366 0.21772 0.09983 0.0
C2851 C 0.36016 0.20206 0.11857 0.0
C2852 C 0.36131 0.17544 0.11631 0.0
C2853 C 0.36849 0.16498 0.09592 0.0
C2854 C 0.36238 0.24621 0.10148 0.0
C2855 C 0.35702 0.15814 0.13578 0.0
C2856 C 0.38244 0.23558 0.16995 0.0
C2857 C 0.3599 0.24641 0.17755 0.0
C2858 C 0.3825 0.21948 0.15159 0.0
C2859 C 0.35939 0.21391 0.14077 0.0
C2860 C 0.33633 0.22295 0.14961 0.0
C2861 C 0.33688 0.23934 0.16784 0.0
C2862 C 0.40756 0.21021 0.1427 0.0
C2863 C 0.31126 0.21681 0.13898 0.0
H2864 H 0.37456 0.2188 0.06559 0.0
H2865 H 0.37131 0.14472 0.09458 0.0
H2866 H 0.34472 0.25215 0.1099 0.0
H2867 H 0.37851 0.25318 0.11152 0.0
H2868 H 0.36317 0.25546 0.085 0.0
H2869 H 0.35308 0.13843 0.13041 0.0
H2870 H 0.37419 0.15794 0.14632 0.0
H2871 H 0.34104 0.16492 0.14609 0.0
H2872 H 0.40025 0.24109 0.17738 0.0
H2873 H 0.3194 0.24737 0.17402 0.0
H2874 H 0.41155 0.21958 0.12666 0.0
H2875 H 0.40688 0.18955 0.13966 0.0
H2876 H 0.42347 0.21427 0.15417 0.0
H2877 H 0.30849 0.22909 0.1243 0.0
H2878 H 0.29524 0.22008 0.15052 0.0
H2879 H 0.31074 0.19688 0.13327 0.0
C2880 C 0.58782 0.61598 0.85144 0.0
C2881 C 0.57507 0.61938 0.83139 0.0
C2882 C 0.57441 0.61 0.87074 0.0
C2883 C 0.54776 0.60783 0.86975 0.0
C2884 C 0.53523 0.6089 0.84906 0.0
C2885 C 0.54912 0.61474 0.83005 0.0
C2886 C 0.58847 0.60848 0.89241 0.0
C2887 C 0.50683 0.60648 0.84728 0.0
C2888 C 0.5049 0.58709 0.91626 0.0
C2889 C 0.49548 0.61045 0.92354 0.0
C2890 C 0.5235 0.58583 0.89981 0.0
C2891 C 0.53248 0.6085 0.89027 0.0
C2892 C 0.52435 0.63217 0.89872 0.0
C2893 C 0.506 0.63283 0.91541 0.0
C2894 C 0.53222 0.56028 0.89171 0.0
C2895 C 0.53362 0.65681 0.88903 0.0
H2896 H 0.60791 0.62001 0.85235 0.0
H2897 H 0.5394 0.61782 0.81449 0.0
H2898 H 0.58622 0.62659 0.90147 0.0
H2899 H 0.58072 0.59321 0.903 0.0
H2900 H 0.60901 0.60509 0.88985 0.0
H2901 H 0.50044 0.60488 0.82984 0.0
H2902 H 0.5001 0.58968 0.85654 0.0
H2903 H 0.49776 0.6234 0.85473 0.0
H2904 H 0.49711 0.56975 0.92295 0.0
H2905 H 0.49867 0.65085 0.92107 0.0
H2906 H 0.55293 0.56019 0.88876 0.0
H2907 H 0.52281 0.55593 0.87576 0.0
H2908 H 0.52751 0.54501 0.90364 0.0
H2909 H 0.55459 0.65707 0.88839 0.0
H2910 H 0.52708 0.67346 0.89868 0.0
H2911 H 0.5266 0.65873 0.87182 0.0
C2912 C 0.17146 0.83531 0.60013 0.0
C2913 C 0.1641 0.82598 0.57945 0.0
C2914 C 0.17687 0.81858 0.61756 0.0
C2915 C 0.17441 0.79221 0.61407 0.0
C2916 C 0.17042 0.78289 0.59241 0.0
C2917 C 0.16538 0.79997 0.57531 0.0
C2918 C 0.18224 0.82918 0.64023 0.0
C2919 C 0.168 0.75492 0.58783 0.0
C2920 C 0.18308 0.7404 0.65687 0.0
C2921 C 0.15803 0.73685 0.66381 0.0
C2922 C 0.18927 0.75967 0.64183 0.0
C2923 C 0.16975 0.77504 0.63307 0.0
C2924 C 0.14458 0.77207 0.64079 0.0
C2925 C 0.13914 0.75319 0.65628 0.0
C2926 C 0.21644 0.76277 0.63473 0.0
C2927 C 0.12307 0.78788 0.63181 0.0
H2928 H 0.17052 0.85548 0.6033 0.0
H2929 H 0.15983 0.79287 0.55919 0.0
H2930 H 0.16448 0.82948 0.65 0.0
H2931 H 0.1961 0.81721 0.64921 0.0
H2932 H 0.18961 0.84882 0.63926 0.0
H2933 H 0.16856 0.75071 0.56984 0.0
H2934 H 0.18336 0.74423 0.59611 0.0
H2935 H 0.14973 0.74799 0.59453 0.0
H2936 H 0.19774 0.72796 0.66311 0.0
H2937 H 0.11982 0.75032 0.66171 0.0
H2938 H 0.22109 0.78292 0.63158 0.0
H2939 H 0.21961 0.75213 0.61918 0.0
H2940 H 0.22967 0.75523 0.64741 0.0
H2941 H 0.12727 0.80829 0.63391 0.0
H2942 H 0.10481 0.7837 0.64012 0.0
H2943 H 0.12081 0.78428 0.61384 0.0
C2944 C 0.9334 0.37435 0.34367 0.0
C2945 C 0.94884 0.37228 0.32489 0.0
C2946 C 0.94386 0.37969 0.36447 0.0
C2947 C 0.97031 0.38307 0.36642 0.0
C2948 C 0.98583 0.38191 0.34736 0.0
C2949 C 0.97489 0.37649 0.32683 0.0
C2950 C 0.92678 0.38078 0.38445 0.0
C2951 C 0.01411 0.38571 0.34873 0.0
C2952 C 1.00259 0.41629 0.41383 0.0
C2953 C 0.01408 0.39593 0.42477 0.0
C2954 C 0.98669 0.41232 0.39567 0.0
C2955 C 0.98219 0.38735 0.38832 0.0
C2956 C 0.99198 0.36661 0.40047 0.0
C2957 C 0.00785 0.37117 0.41864 0.0
C2958 C 0.97636 0.43492 0.38335 0.0
C2959 C 0.98736 0.33967 0.39327 0.0
H2960 H 0.91328 0.37071 0.34225 0.0
H2961 H 0.98678 0.37502 0.31229 0.0
H2962 H 0.93109 0.36469 0.39559 0.0
H2963 H 0.93018 0.39841 0.39394 0.0
H2964 H 0.90644 0.3799 0.37986 0.0
H2965 H 0.02334 0.38494 0.33224 0.0
H2966 H 0.01841 0.40427 0.35641 0.0
H2967 H 0.02262 0.37088 0.35938 0.0
H2968 H 0.00701 0.43544 0.41891 0.0
H2969 H 0.01674 0.35542 0.42707 0.0
H2970 H 0.95605 0.43222 0.3794 0.0
H2971 H 0.98661 0.43705 0.36745 0.0
H2972 H 0.97853 0.45272 0.39292 0.0
H2973 H 0.96707 0.33669 0.3894 0.0
H2974 H 0.9932 0.32582 0.40611 0.0
H2975 H 0.99827 0.33578 0.37797 0.0
C2976 C 0.32692 0.77794 0.33105 0.0
C2977 C 0.34727 0.76392 0.32262 0.0
C2978 C 0.331 0.79833 0.3454 0.0
C2979 C 0.35602 0.8046 0.35157 0.0
C2980 C 0.37669 0.79194 0.34153 0.0
C2981 C 0.37203 0.77175 0.32707 0.0
C2982 C 0.3085 0.81174 0.35533 0.0
C2983 C 0.40369 0.79814 0.34759 0.0
C2984 C 0.37401 0.86084 0.38732 0.0
C2985 C 0.37722 0.84895 0.40782 0.0
C2986 C 0.36568 0.847 0.36886 0.0
C2987 C 0.36061 0.82083 0.37117 0.0
C2988 C 0.36215 0.8093 0.39226 0.0
C2989 C 0.37042 0.82354 0.41032 0.0
C2990 C 0.3639 0.85999 0.34671 0.0
C2991 C 0.35666 0.7815 0.39553 0.0
H2992 H 0.30775 0.77224 0.32715 0.0
H2993 H 0.38776 0.76095 0.32053 0.0
H2994 H 0.30549 0.80486 0.37246 0.0
H2995 H 0.31183 0.83243 0.35619 0.0
H2996 H 0.29094 0.8082 0.34572 0.0
H2997 H 0.41748 0.78898 0.33628 0.0
H2998 H 0.40681 0.81888 0.34725 0.0
H2999 H 0.40755 0.79154 0.36468 0.0
H3000 H 0.37944 0.88049 0.38542 0.0
H3001 H 0.37277 0.81449 0.42628 0.0
H3002 H 0.34666 0.85394 0.33769 0.0
H3003 H 0.38047 0.85462 0.33647 0.0
H3004 H 0.36368 0.88091 0.34841 0.0
H3005 H 0.33778 0.77669 0.38873 0.0
H3006 H 0.35718 0.77591 0.41323 0.0
H3007 H 0.37087 0.77005 0.38645 0.0
C3008 C 0.94233 0.59596 0.16494 0.0
C3009 C 0.91609 0.59943 0.16442 0.0
C3010 C 0.95556 0.58889 0.14591 0.0
C3011 C 0.94212 0.58509 0.12593 0.0
C3012 C 0.91534 0.5858 0.12595 0.0
C3013 C 0.90256 0.59309 0.14529 0.0
C3014 C 0.98412 0.58808 0.1467 0.0
C3015 C 0.90033 0.5812 0.10513 0.0
C3016 C 0.98073 0.60846 0.07767 0.0
C3017 C 0.99276 0.5862 0.07089 0.0
C3018 C 0.9627 0.60805 0.09462 0.0
C3019 C 0.9564 0.58475 0.10482 0.0
C3020 C 0.96683 0.56195 0.09666 0.0
C3021 C 0.9851 0.56298 0.07986 0.0
C3022 C 0.95198 0.63284 0.10281 0.0
C3023 C 0.96007 0.53669 0.10665 0.0
H3024 H 0.9527 0.60067 0.17986 0.0
H3025 H 0.88223 0.59583 0.14488 0.0
H3026 H 0.99132 0.5707 0.13859 0.0
H3027 H 0.99189 0.60453 0.13754 0.0
H3028 H 0.99144 0.5887 0.16391 0.0
H3029 H 0.88025 0.57669 0.10886 0.0
H3030 H 0.90077 0.59846 0.09471 0.0
H3031 H 0.90862 0.5655 0.09534 0.0
H3032 H 0.98669 0.62642 0.07081 0.0
H3033 H 0.99407 0.54569 0.07427 0.0
H3034 H 0.9594 0.63685 0.11962 0.0
H3035 H 0.93108 0.63174 0.10403 0.0
H3036 H 0.95702 0.64893 0.09185 0.0
H3037 H 0.97048 0.53422 0.12242 0.0
H3038 H 0.96519 0.52079 0.0955 0.0
H3039 H 0.93956 0.53565 0.1104 0.0
C3040 C 0.11837 0.21584 0.94175 0.0
C3041 C 0.11004 0.19069 0.94148 0.0
C3042 C 0.12616 0.22782 0.92216 0.0
C3043 C 0.12514 0.21441 0.9019 0.0
C3044 C 0.11707 0.18894 0.90162 0.0
C3045 C 0.10972 0.17738 0.9214 0.0
C3046 C 0.13503 0.25494 0.92307 0.0
C3047 C 0.1154 0.1741 0.88032 0.0
C3048 C 0.12033 0.25165 0.8484 0.0
C3049 C 0.14525 0.25037 0.84051 0.0
C3050 C 0.11351 0.24004 0.86839 0.0
C3051 C 0.1321 0.22702 0.88084 0.0
C3052 C 0.15717 0.22538 0.87285 0.0
C3053 C 0.16338 0.2369 0.85271 0.0
C3054 C 0.08647 0.24191 0.87629 0.0
C3055 C 0.17751 0.21166 0.88567 0.0
H3056 H 0.11857 0.22617 0.95723 0.0
H3057 H 0.10266 0.15814 0.92098 0.0
H3058 H 0.15411 0.25658 0.91557 0.0
H3059 H 0.12209 0.26708 0.91327 0.0
H3060 H 0.13579 0.26232 0.94025 0.0
H3061 H 0.10931 0.15424 0.88305 0.0
H3062 H 0.10171 0.18332 0.86898 0.0
H3063 H 0.13401 0.17393 0.87186 0.0
H3064 H 0.10629 0.26233 0.83931 0.0
H3065 H 0.18257 0.23554 0.84657 0.0
H3066 H 0.08581 0.25166 0.89252 0.0
H3067 H 0.0785 0.2227 0.87871 0.0
H3068 H 0.07423 0.25239 0.8645 0.0
H3069 H 0.17926 0.21991 0.90246 0.0
H3070 H 0.19625 0.21265 0.8774 0.0
H3071 H 0.17228 0.19149 0.88772 0.0
C3072 C 0.58589 0.37803 0.64913 0.0
C3073 C 0.57798 0.37326 0.67081 0.0
C3074 C 0.56874 0.38667 0.63318 0.0
C3075 C 0.54306 0.39003 0.63907 0.0
C3076 C 0.53536 0.38671 0.66132 0.0
C3077 C 0.55305 0.37847 0.67703 0.0
C3078 C 0.57776 0.39049 0.60973 0.0
C3079 C 0.50809 0.38995 0.66818 0.0
C3080 C 0.49716 0.42305 0.60056 0.0
C3081 C 0.48554 0.40243 0.59012 0.0
C3082 C 0.51641 0.41938 0.61616 0.0
C3083 C 0.52385 0.39448 0.62164 0.0
C3084 C 0.5125 0.37359 0.61081 0.0
C3085 C 0.49359 0.37786 0.595 0.0
C3086 C 0.52849 0.44209 0.627 0.0
C3087 C 0.51984 0.34671 0.61636 0.0
H3088 H 0.60523 0.37377 0.64443 0.0
H3089 H 0.547 0.37435 0.69378 0.0
H3090 H 0.57044 0.375 0.59914 0.0
H3091 H 0.5704 0.40855 0.60295 0.0
H3092 H 0.59873 0.39059 0.60858 0.0
H3093 H 0.50569 0.38902 0.68641 0.0
H3094 H 0.50059 0.40831 0.66221 0.0
H3095 H 0.49648 0.3748 0.66056 0.0
H3096 H 0.49114 0.44207 0.59648 0.0
H3097 H 0.48442 0.36197 0.58701 0.0
H3098 H 0.54935 0.44129 0.62502 0.0
H3099 H 0.52447 0.44193 0.64499 0.0
H3100 H 0.52151 0.46021 0.61997 0.0
H3101 H 0.5404 0.34392 0.61364 0.0
H3102 H 0.50935 0.33263 0.60627 0.0
H3103 H 0.51602 0.34291 0.63409 0.0
C3104 C 0.21391 0.23465 0.25205 0.0
C3105 C 0.21502 0.2142 0.23732 0.0
C3106 C 0.2356 0.24878 0.25711 0.0
C3107 C 0.25867 0.24329 0.2462 0.0
C3108 C 0.25947 0.22373 0.23018 0.0
C3109 C 0.23779 0.20893 0.2264 0.0
C3110 C 0.23406 0.26885 0.27484 0.0
C3111 C 0.28331 0.21815 0.21732 0.0
C3112 C 0.30716 0.29607 0.24537 0.0
C3113 C 0.32553 0.28728 0.2603 0.0
C3114 C 0.28573 0.28166 0.24029 0.0
C3115 C 0.28175 0.2584 0.25124 0.0
C3116 C 0.29976 0.24976 0.26694 0.0
C3117 C 0.32181 0.26404 0.27089 0.0
C3118 C 0.26772 0.29104 0.2227 0.0
C3119 C 0.29572 0.22546 0.27953 0.0
H3120 H 0.19642 0.23865 0.2607 0.0
H3121 H 0.2387 0.19303 0.21512 0.0
H3122 H 0.23921 0.28757 0.26791 0.0
H3123 H 0.21487 0.27023 0.28223 0.0
H3124 H 0.24781 0.26455 0.28819 0.0
H3125 H 0.28002 0.20431 0.2038 0.0
H3126 H 0.29104 0.23581 0.21005 0.0
H3127 H 0.29794 0.21038 0.22856 0.0
H3128 H 0.31004 0.31385 0.23682 0.0
H3129 H 0.33601 0.25717 0.28235 0.0
H3130 H 0.24866 0.29411 0.22987 0.0
H3131 H 0.26575 0.27658 0.20951 0.0
H3132 H 0.27416 0.30901 0.21503 0.0
H3133 H 0.27691 0.2257 0.28769 0.0
H3134 H 0.3105 0.22232 0.2923 0.0
H3135 H 0.2959 0.20921 0.26794 0.0
C3136 C 0.06035 0.97782 0.49104 0.0
C3137 C 0.05729 0.95573 0.50352 0.0
C3138 C 0.04309 0.99797 0.49293 0.0
C3139 C 0.02303 0.99639 0.50844 0.0
C3140 C 0.01993 0.97406 0.5211 0.0
C3141 C 0.03688 0.95386 0.51822 0.0
C3142 C 0.04633 0.02093 0.47833 0.0
C3143 C 0.99942 0.9718 0.53837 0.0
C3144 C 0.99414 0.05976 0.52505 0.0
C3145 C 0.9718 0.05986 0.51257 0.0
C3146 C 0.01047 0.03869 0.52472 0.0
C3147 C 0.00485 0.0178 0.51084 0.0
C3148 C 0.98213 0.01771 0.49852 0.0
C3149 C 0.96567 0.03842 0.49993 0.0
C3150 C 0.03397 0.03896 0.53886 0.0
C3151 C 0.97567 0.99619 0.48308 0.0
H3152 H 0.07626 0.97932 0.47981 0.0
H3153 H 0.03484 0.93705 0.52828 0.0
H3154 H 0.02855 0.02475 0.46914 0.0
H3155 H 0.05034 0.03782 0.48861 0.0
H3156 H 0.06195 0.01856 0.46623 0.0
H3157 H 0.99709 0.95202 0.54422 0.0
H3158 H 0.0044 0.98383 0.55276 0.0
H3159 H 0.98098 0.97856 0.53195 0.0
H3160 H 0.99897 0.07624 0.53483 0.0
H3161 H 0.94861 0.03835 0.49 0.0
H3162 H 0.051 0.03976 0.52818 0.0
H3163 H 0.03518 0.02128 0.5487 0.0
H3164 H 0.03437 0.05538 0.55031 0.0
H3165 H 0.99076 0.99412 0.47045 0.0
H3166 H 0.95734 0.99912 0.47448 0.0
H3167 H 0.97472 0.97814 0.49238 0.0
C3168 C 0.20301 0.70245 0.72544 0.0
C3169 C 0.18622 0.71058 0.74196 0.0
C3170 C 0.22544 0.7156 0.72095 0.0
C3171 C 0.23182 0.73699 0.7338 0.0
C3172 C 0.21487 0.74543 0.75048 0.0
C3173 C 0.19198 0.73235 0.7541 0.0
C3174 C 0.24234 0.70651 0.70244 0.0
C3175 C 0.22118 0.76796 0.76475 0.0
C3176 C 0.30166 0.75411 0.738 0.0
C3177 C 0.30305 0.7758 0.72472 0.0
C3178 C 0.2786 0.7414 0.74116 0.0
C3179 C 0.25655 0.75001 0.73013 0.0
C3180 C 0.25823 0.77096 0.71559 0.0
C3181 C 0.28134 0.78392 0.71343 0.0
C3182 C 0.27761 0.71943 0.75709 0.0
C3183 C 0.23545 0.78018 0.70284 0.0
H3184 H 0.1984 0.68588 0.7157 0.0
H3185 H 0.17895 0.73871 0.76678 0.0
H3186 H 0.24605 0.72218 0.69067 0.0
H3187 H 0.26086 0.70042 0.70923 0.0
H3188 H 0.23392 0.69044 0.69318 0.0
H3189 H 0.20617 0.77201 0.7771 0.0
H3190 H 0.23925 0.76454 0.77362 0.0
H3191 H 0.22389 0.78496 0.75428 0.0
H3192 H 0.31824 0.74802 0.74709 0.0
H3193 H 0.28231 0.80082 0.70332 0.0
H3194 H 0.27072 0.70223 0.7485 0.0
H3195 H 0.26404 0.72365 0.7706 0.0
H3196 H 0.29636 0.71525 0.76455 0.0
H3197 H 0.22633 0.76424 0.69396 0.0
H3198 H 0.24045 0.79506 0.69064 0.0
H3199 H 0.22125 0.78803 0.71446 0.0
C3200 C 0.5454 0.97631 0.95399 0.0
C3201 C 0.5434 0.95706 0.96986 0.0
C3202 C 0.53012 0.99797 0.95498 0.0
C3203 C 0.51272 1.00078 0.97256 0.0
C3204 C 0.51059 0.98141 0.98869 0.0
C3205 C 0.52576 0.95958 0.987 0.0
C3206 C 0.53258 0.01782 0.93715 0.0
C3207 C 0.49255 0.98392 0.00791 0.0
C3208 C 0.49081 0.06762 0.98617 0.0
C3209 C 0.46632 0.06778 0.97729 0.0
C3210 C 0.50606 0.04588 0.98491 0.0
C3211 C 0.49681 0.02403 0.97399 0.0
C3212 C 0.47245 0.02448 0.96426 0.0
C3213 C 0.45735 0.04623 0.96633 0.0
C3214 C 0.53171 0.04602 -0.00411 0.0
C3215 C 0.46216 1.00186 0.95196 0.0
H3216 H 0.55882 0.97435 0.94054 0.0
H3217 H 0.52424 0.94479 -0.00066 0.0
H3218 H 0.51395 0.02108 0.92918 0.0
H3219 H 0.53863 0.03604 0.94453 0.0
H3220 H 0.54645 0.01239 0.9242 0.0
H3221 H 0.49346 0.96742 0.01925 0.0
H3222 H 0.49698 1.00131 0.01742 0.0
H3223 H 0.47288 0.98584 0.00175 0.0
H3224 H 0.49758 0.08407 -0.0049 0.0
H3225 H 0.43834 0.04629 0.95959 0.0
H3226 H 0.54667 0.04205 0.98352 0.0
H3227 H 0.53263 0.03082 0.00853 0.0
H3228 H 0.53594 0.06438 0.00402 0.0
H3229 H 0.4755 0.99612 0.93871 0.0
H3230 H 0.44339 0.00572 0.9444 0.0
H3231 H 0.46026 0.98559 0.96341 0.0
C3232 C 0.29351 0.73958 0.2572 0.0
C3233 C 0.29252 0.71792 0.24386 0.0
C3234 C 0.27239 0.75556 0.25938 0.0
C3235 C 0.25004 0.75025 0.24729 0.0
C3236 C 0.24944 0.72906 0.23293 0.0
C3237 C 0.27049 0.71284 0.23178 0.0
C3238 C 0.27366 0.77747 0.27535 0.0
C3239 C 0.22637 0.72325 0.2191 0.0
C3240 C 0.18582 0.77614 0.26549 0.0
C3241 C 0.18359 0.79771 0.25218 0.0
C3242 C 0.20771 0.76092 0.2646 0.0
C3243 C 0.22736 0.76694 0.24949 0.0
C3244 C 0.22507 0.78866 0.236 0.0
C3245 C 0.20345 0.80392 0.23774 0.0
C3246 C 0.20973 0.73827 0.27968 0.0
C3247 C 0.24509 0.79537 0.21918 0.0
H3248 H 0.3103 0.74323 0.26697 0.0
H3249 H 0.26962 0.69593 0.22167 0.0
H3250 H 0.26951 0.79547 0.26665 0.0
H3251 H 0.25905 0.77509 0.28836 0.0
H3252 H 0.29246 0.77908 0.28343 0.0
H3253 H 0.22962 0.7072 0.20759 0.0
H3254 H 0.2102 0.71847 0.23 0.0
H3255 H 0.22083 0.74012 0.2093 0.0
H3256 H 0.17051 0.77123 0.2766 0.0
H3257 H 0.20171 0.8203 0.22707 0.0
H3258 H 0.22775 0.73901 0.28908 0.0
H3259 H 0.20999 0.72066 0.26973 0.0
H3260 H 0.19376 0.73721 0.29158 0.0
H3261 H 0.26363 0.79801 0.22744 0.0
H3262 H 0.24044 0.8129 0.2099 0.0
H3263 H 0.2473 0.77963 0.20719 0.0
C3264 C 0.52455 0.07032 0.47572 0.0
C3265 C 0.54518 0.075 0.48964 0.0
C3266 C 0.50922 0.04878 0.47888 0.0
C3267 C 0.51411 0.03221 0.49688 0.0
C3268 C 0.53441 0.03749 0.51138 0.0
C3269 C 0.54992 0.05848 0.50734 0.0
C3270 C 0.48802 0.04355 0.46283 0.0
C3271 C 0.53965 0.02109 0.5313 0.0
C3272 C 0.46059 0.98859 0.51507 0.0
C3273 C 0.468 0.96544 0.5058 0.0
C3274 C 0.47577 0.01031 0.51291 0.0
C3275 C 0.4984 0.00907 0.5004 0.0
C3276 C 0.50619 0.98558 0.49137 0.0
C3277 C 0.49115 0.96397 0.49454 0.0
C3278 C 0.46722 0.0347 0.52353 0.0
C3279 C 0.52992 0.98347 0.4776 0.0
H3280 H 0.52078 0.08316 0.46214 0.0
H3281 H 0.56554 0.06231 0.51845 0.0
H3282 H 0.49057 0.02455 0.45534 0.0
H3283 H 0.46965 0.04341 0.47168 0.0
H3284 H 0.4871 0.05783 0.44938 0.0
H3285 H 0.5555 0.02845 0.54151 0.0
H3286 H 0.52249 0.01988 0.54182 0.0
H3287 H 0.54437 1.00159 0.52595 0.0
H3288 H 0.44264 0.98984 0.52366 0.0
H3289 H 0.4968 0.94624 0.48702 0.0
H3290 H 0.46129 0.04827 0.51054 0.0
H3291 H 0.48301 0.04354 0.53281 0.0
H3292 H 0.45109 0.03177 0.53502 0.0
H3293 H 0.52875 0.99655 0.46329 0.0
H3294 H 0.53304 0.96397 0.47131 0.0
H3295 H 0.54662 0.98916 0.48752 0.0
C3296 C 0.23024 0.30434 0.75596 0.0
C3297 C 0.20857 0.29498 0.74529 0.0
C3298 C 0.25305 0.29083 0.75591 0.0
C3299 C 0.2546 0.2677 0.74428 0.0
C3300 C 0.2332 0.25873 0.73248 0.0
C3301 C 0.21025 0.27226 0.73346 0.0
C3302 C 0.27512 0.30075 0.7692 0.0
C3303 C 0.23441 0.23457 0.71924 0.0
C3304 C 0.32071 0.24238 0.73261 0.0
C3305 C 0.32256 0.22263 0.74799 0.0
C3306 C 0.29854 0.25692 0.73089 0.0
C3307 C 0.27821 0.25231 0.74559 0.0
C3308 C 0.28058 0.23324 0.76194 0.0
C3309 C 0.30251 0.21823 0.76258 0.0
C3310 C 0.29648 0.27637 0.71269 0.0
C3311 C 0.25979 0.22839 0.77853 0.0
H3312 H 0.22912 0.32175 0.76537 0.0
H3313 H 0.1936 0.26496 0.72518 0.0
H3314 H 0.27999 0.28703 0.78243 0.0
H3315 H 0.29205 0.3028 0.75854 0.0
H3316 H 0.27099 0.31933 0.77698 0.0
H3317 H 0.2171 0.23161 0.70915 0.0
H3318 H 0.25109 0.23483 0.70811 0.0
H3319 H 0.23668 0.21822 0.73055 0.0
H3320 H 0.336 0.24552 0.72103 0.0
H3321 H 0.30386 0.20277 0.77431 0.0
H3322 H 0.31434 0.2783 0.70315 0.0
H3323 H 0.29137 0.29511 0.71961 0.0
H3324 H 0.28115 0.27085 0.70111 0.0
H3325 H 0.25473 0.24621 0.78715 0.0
H3326 H 0.26532 0.21408 0.79108 0.0
H3327 H 0.24258 0.22161 0.76989 0.0
C3328 C 0.97331 0.94719 0.97506 0.0
C3329 C 0.94753 0.94287 0.97898 0.0
C3330 C 0.98382 0.97149 0.97782 0.0
C3331 C 0.96834 0.99167 0.98532 0.0
C3332 C 0.94218 0.98755 0.98854 0.0
C3333 C 0.93207 0.96338 0.985 0.0
C3334 C 0.01164 0.97538 0.97342 0.0
C3335 C 0.92505 0.00834 -0.0031 0.0
C3336 C 1.00034 0.04376 0.01853 0.0
C3337 C 1.00058 0.06383 0.00344 0.0
C3338 C 0.98954 0.02034 0.01293 0.0
C3339 C 0.97961 0.0166 0.9914 0.0
C3340 C 0.97976 0.03689 0.97609 0.0
C3341 C 0.9899 0.06037 0.98242 0.0
C3342 C 0.9889 0.99953 0.03004 0.0
C3343 C 0.97017 0.03355 0.95275 0.0
H3344 H 0.98537 0.9315 0.97035 0.0
H3345 H 0.91212 0.96036 0.98816 0.0
H3346 H 0.01452 0.99228 0.96283 0.0
H3347 H 0.02167 0.97884 0.98923 0.0
H3348 H 0.02039 0.95873 0.96522 0.0
H3349 H 0.90495 1.0023 -0.00214 0.0
H3350 H 0.93126 0.01431 0.01363 0.0
H3351 H 0.92629 0.02514 0.98598 0.0
H3352 H 0.00879 0.04635 0.0347 0.0
H3353 H 0.99057 0.07567 0.97051 0.0
H3354 H 1.00036 0.98321 0.02434 0.0
H3355 H 0.96922 0.9927 0.03229 0.0
H3356 H 0.9963 0.00586 0.04631 0.0
H3357 H 0.98315 0.02078 0.94361 0.0
H3358 H 0.96902 0.05181 0.94371 0.0
H3359 H 0.95121 0.02461 0.95268 0.0
C3360 C 0.79874 0.77539 0.7301 0.0
C3361 C 0.79899 0.79628 0.74438 0.0
C3362 C 0.77757 0.75944 0.72882 0.0
C3363 C 0.7565 0.76393 0.74274 0.0
C3364 C 0.75704 0.78451 0.75776 0.0
C3365 C 0.77809 0.80078 0.75805 0.0
C3366 C 0.77752 0.73816 0.71217 0.0
C3367 C 0.73536 0.78941 0.77344 0.0
C3368 C 0.69206 0.7358 0.72831 0.0
C3369 C 0.69232 0.71348 0.74075 0.0
C3370 C 0.71302 0.75226 0.72845 0.0
C3371 C 0.73422 0.74665 0.742 0.0
C3372 C 0.73427 0.72432 0.75487 0.0
C3373 C 0.71354 0.70787 0.75382 0.0
C3374 C 0.71255 0.77558 0.71407 0.0
C3375 C 0.75604 0.71801 0.7701 0.0
H3376 H 0.81464 0.77222 0.71912 0.0
H3377 H 0.77821 0.81708 0.76893 0.0
H3378 H 0.7761 0.71971 0.7208 0.0
H3379 H 0.76077 0.73984 0.7012 0.0
H3380 H 0.79484 0.73805 0.70176 0.0
H3381 H 0.73923 0.80548 0.78478 0.0
H3382 H 0.71791 0.79363 0.76395 0.0
H3383 H 0.73155 0.77227 0.78349 0.0
H3384 H 0.6756 0.74023 0.71833 0.0
H3385 H 0.71362 0.69091 0.7639 0.0
H3386 H 0.72929 0.77571 0.703 0.0
H3387 H 0.71365 0.79278 0.72452 0.0
H3388 H 0.69516 0.77668 0.7038 0.0
H3389 H 0.77372 0.71585 0.76042 0.0
H3390 H 0.75275 0.7003 0.77956 0.0
H3391 H 0.75907 0.7337 0.78199 0.0
C3392 C 0.82026 0.27539 0.22313 0.0
C3393 C 0.82302 0.2959 0.23758 0.0
C3394 C 0.79876 0.25966 0.22425 0.0
C3395 C 0.78013 0.26406 0.24073 0.0
C3396 C 0.78304 0.28465 0.25543 0.0
C3397 C 0.80419 0.30047 0.25346 0.0
C3398 C 0.79599 0.23832 0.20788 0.0
C3399 C 0.76414 0.28959 0.27366 0.0
C3400 C 0.71369 0.23695 0.235 0.0
C3401 C 0.71567 0.21434 0.24701 0.0
C3402 C 0.73462 0.25309 0.2325 0.0
C3403 C 0.75781 0.24695 0.24297 0.0
C3404 C 0.75952 0.22468 0.25594 0.0
C3405 C 0.73858 0.20837 0.2574 0.0
C3406 C 0.73214 0.27621 0.218 0.0
C3407 C 0.78358 0.21789 0.26802 0.0
H3408 H 0.83478 0.27177 0.21088 0.0
H3409 H 0.8064 0.31602 0.26498 0.0
H3410 H 0.79647 0.21991 0.21667 0.0
H3411 H 0.77741 0.23964 0.19941 0.0
H3412 H 0.81121 0.23842 0.19522 0.0
H3413 H 0.76935 0.3062 0.28394 0.0
H3414 H 0.74509 0.29291 0.26654 0.0
H3415 H 0.76275 0.27275 0.28454 0.0
H3416 H 0.69618 0.24133 0.2265 0.0
H3417 H 0.74019 0.19075 0.26646 0.0
H3418 H 0.74656 0.27559 0.20467 0.0
H3419 H 0.73572 0.29354 0.22783 0.0
H3420 H 0.71311 0.27774 0.2103 0.0
H3421 H 0.79898 0.21439 0.25596 0.0
H3422 H 0.78132 0.20076 0.27848 0.0
H3423 H 0.78963 0.23386 0.27868 0.0
C3424 C 0.81785 0.22251 0.75591 0.0
C3425 C 0.81719 0.20119 0.74214 0.0
C3426 C 0.7964 0.23793 0.75859 0.0
C3427 C 0.77399 0.23228 0.7467 0.0
C3428 C 0.7736 0.21133 0.7321 0.0
C3429 C 0.79506 0.19575 0.73033 0.0
C3430 C 0.79744 0.25967 0.77474 0.0
C3431 C 0.75045 0.20523 0.71847 0.0
C3432 C 0.70972 0.25713 0.76572 0.0
C3433 C 0.70732 0.27898 0.75284 0.0
C3434 C 0.7317 0.2421 0.76441 0.0
C3435 C 0.75109 0.24856 0.74918 0.0
C3436 C 0.7484 0.27042 0.7359 0.0
C3437 C 0.72679 0.28556 0.73818 0.0
C3438 C 0.73423 0.21935 0.77931 0.0
C3439 C 0.76811 0.27756 0.71894 0.0
H3440 H 0.83475 0.22645 0.76544 0.0
H3441 H 0.79451 0.17917 0.71979 0.0
H3442 H 0.79137 0.27749 0.76666 0.0
H3443 H 0.78414 0.25603 0.78857 0.0
H3444 H 0.8167 0.26246 0.78168 0.0
H3445 H 0.75371 0.18915 0.70699 0.0
H3446 H 0.73442 0.20039 0.72951 0.0
H3447 H 0.74468 0.22201 0.70866 0.0
H3448 H 0.69461 0.25203 0.77698 0.0
H3449 H 0.72475 0.30222 0.72789 0.0
H3450 H 0.75205 0.22061 0.78894 0.0
H3451 H 0.73527 0.20186 0.76923 0.0
H3452 H 0.71812 0.21762 0.791 0.0
H3453 H 0.78658 0.2809 0.72714 0.0
H3454 H 0.76284 0.29483 0.70954 0.0
H3455 H 0.7708 0.26178 0.70707 0.0
C3456 C 0.68725 0.75435 0.21562 0.0
C3457 C 0.68515 0.7784 0.22516 0.0
C3458 C 0.70912 0.73952 0.21891 0.0
C3459 C 0.72881 0.74857 0.23278 0.0
C3460 C 0.72659 0.77275 0.24256 0.0
C3461 C 0.70509 0.78749 0.23831 0.0
C3462 C 0.71111 0.71412 0.20767 0.0
C3463 C 0.74659 0.7828 0.2581 0.0
C3464 C 0.77297 0.69989 0.25877 0.0
C3465 C 0.79502 0.70311 0.24626 0.0
C3466 C 0.75146 0.71495 0.25491 0.0
C3467 C 0.75165 0.73278 0.23739 0.0
C3468 C 0.77393 0.73602 0.22468 0.0
C3469 C 0.79549 0.72151 0.22957 0.0
C3470 C 0.72849 0.71166 0.26947 0.0
C3471 C 0.77477 0.75422 0.20545 0.0
H3472 H 0.67184 0.74719 0.20559 0.0
H3473 H 0.70348 0.80585 0.24614 0.0
H3474 H 0.72907 0.71292 0.19823 0.0
H3475 H 0.71147 0.69887 0.22025 0.0
H3476 H 0.69507 0.71059 0.19621 0.0
H3477 H 0.74176 0.8018 0.2647 0.0
H3478 H 0.74902 0.76961 0.27221 0.0
H3479 H 0.76506 0.78403 0.24948 0.0
H3480 H 0.77253 0.68547 0.27152 0.0
H3481 H 0.81234 0.72365 0.21953 0.0
H3482 H 0.71233 0.7047 0.25949 0.0
H3483 H 0.7228 0.73014 0.27664 0.0
H3484 H 0.73192 0.69811 0.28319 0.0
H3485 H 0.77102 0.77375 0.21126 0.0
H3486 H 0.75972 0.74936 0.19338 0.0
H3487 H 0.79331 0.75394 0.19681 0.0
C3488 C 0.48458 0.57352 0.99215 0.0
C3489 C 0.46372 0.57096 0.00632 0.0
C3490 C 0.50041 0.55285 0.98745 0.0
C3491 C 0.49592 0.52927 -0.00214 0.0
C3492 C 0.47556 0.52693 0.01299 0.0
C3493 C 0.45937 0.54764 0.01664 0.0
C3494 C 0.52138 0.55602 0.97072 0.0
C3495 C 0.47071 0.50246 0.02515 0.0
C3496 C 0.5222 0.46741 0.97453 0.0
C3497 C 0.54447 0.46461 0.98685 0.0
C3498 C 0.50662 0.48885 0.97733 0.0
C3499 C 0.51295 0.50727 0.99349 0.0
C3500 C 0.53539 0.50441 0.00595 0.0
C3501 C 0.55104 0.48344 0.00219 0.0
C3502 C 0.48329 0.49168 0.96318 0.0
C3503 C 0.54247 0.52305 0.02384 0.0
H3504 H 0.48777 0.59136 0.98381 0.0
H3505 H 0.44314 0.54556 0.02744 0.0
H3506 H 0.53987 0.55098 0.97818 0.0
H3507 H 0.51822 0.54296 0.95663 0.0
H3508 H 0.52253 0.57566 0.96426 0.0
H3509 H 0.45508 0.5042 0.03733 0.0
H3510 H 0.4658 0.48734 0.0132 0.0
H3511 H 0.48808 0.49634 0.03397 0.0
H3512 H 0.51701 0.4529 0.96271 0.0
H3513 H 0.568 0.48127 0.01209 0.0
H3514 H 0.48323 0.5105 0.95505 0.0
H3515 H 0.46612 0.49061 0.97367 0.0
H3516 H 0.48205 0.47682 0.95025 0.0
H3517 H 0.54447 0.54229 0.01676 0.0
H3518 H 0.56046 0.51794 0.03224 0.0
H3519 H 0.52722 0.52391 0.03643 0.0
C3520 C 0.01367 0.57119 0.49862 0.0
C3521 C 0.99151 0.57025 0.48589 0.0
C3522 C 0.02779 0.5492 0.50291 0.0
C3523 C 0.02037 0.52596 0.49323 0.0
C3524 C 0.99898 0.52527 0.47913 0.0
C3525 C 0.98453 0.54731 0.476 0.0
C3526 C 0.05004 0.55065 0.51851 0.0
C3527 C 0.99107 0.50117 0.46767 0.0
C3528 C 0.07048 0.47494 0.4877 0.0
C3529 C 0.06318 0.4574 0.50392 0.0
C3530 C 0.05662 0.49712 0.48398 0.0
C3531 C 0.03536 0.5025 0.49734 0.0
C3532 C 0.02823 0.48522 0.51421 0.0
C3533 C 0.04195 0.46255 0.517 0.0
C3534 C 0.06434 0.51444 0.46529 0.0
C3535 C 0.00613 0.49069 0.52925 0.0
H3536 H 0.01929 0.58883 0.50622 0.0
H3537 H 0.96745 0.54648 0.4661 0.0
H3538 H 0.04721 0.53734 0.53249 0.0
H3539 H 0.06761 0.54486 0.50988 0.0
H3540 H 0.05277 0.56998 0.52532 0.0
H3541 H 0.9751 0.50423 0.45603 0.0
H3542 H 0.00726 0.49309 0.45835 0.0
H3543 H 0.98525 0.48691 0.48011 0.0
H3544 H 0.08663 0.47089 0.47723 0.0
H3545 H 0.03625 0.44901 0.5295 0.0
H3546 H 0.06881 0.53354 0.47177 0.0
H3547 H 0.04841 0.51659 0.45347 0.0
H3548 H 0.08108 0.50726 0.45613 0.0
H3549 H 0.00846 0.50956 0.53704 0.0
H3550 H 0.0041 0.47626 0.54248 0.0
H3551 H 0.98837 0.49124 0.5195 0.0
C3552 C 0.03216 0.53622 0.00313 0.0
C3553 C 0.03066 0.55584 0.98756 0.0
C3554 C 0.01425 0.51671 0.00359 0.0
C3555 C 0.99482 0.51619 0.98753 0.0
C3556 C 0.9934 0.53576 0.9715 0.0
C3557 C 0.01108 0.5557 0.972 0.0
C3558 C 0.01591 0.49688 0.02152 0.0
C3559 C 0.97334 0.5355 0.95375 0.0
C3560 C 0.96433 0.45208 0.97712 0.0
C3561 C 0.9409 0.45484 0.98771 0.0
C3562 C 0.98184 0.47205 0.97659 0.0
C3563 C 0.97614 0.49503 0.98757 0.0
C3564 C 0.95288 0.49753 -0.00098 0.0
C3565 C 0.93532 0.47757 -0.00144 0.0
C3566 C 0.00614 0.46881 0.96377 0.0
C3567 C 0.94651 0.52131 0.01168 0.0
H3568 H 0.047 0.53653 0.0155 0.0
H3569 H 0.00984 0.57095 0.96006 0.0
H3570 H 0.99787 0.49614 0.03087 0.0
H3571 H 0.01889 0.47795 0.01407 0.0
H3572 H 0.03155 0.50065 0.03334 0.0
H3573 H 0.97543 0.5515 0.94198 0.0
H3574 H 0.97429 0.51748 0.94438 0.0
H3575 H 0.9543 0.53656 0.96139 0.0
H3576 H 0.96851 0.43471 0.96833 0.0
H3577 H 0.91714 0.47975 0.00664 0.0
H3578 H 0.02262 0.47093 0.97496 0.0
H3579 H 0.00765 0.48377 0.95097 0.0
H3580 H 0.00738 0.45006 0.95556 0.0
H3581 H 0.96164 0.52551 0.02386 0.0
H3582 H 0.92821 0.51977 0.0206 0.0
H3583 H 0.94547 0.53762 0.00019 0.0
C3584 C 0.47877 0.46383 0.51482 0.0
C3585 C 0.45695 0.4637 0.50167 0.0
C3586 C 0.49446 0.48527 0.51577 0.0
C3587 C 0.48859 0.50676 0.50272 0.0
C3588 C 0.46697 0.50635 0.48887 0.0
C3589 C 0.45115 0.48499 0.48885 0.0
C3590 C 0.517 0.48512 0.5311 0.0
C3591 C 0.46054 0.52847 0.4741 0.0
C3592 C 0.51667 0.57147 0.51649 0.0
C3593 C 0.53775 0.57204 0.50248 0.0
C3594 C 0.50074 0.55009 0.51714 0.0
C3595 C 0.50559 0.52929 0.50291 0.0
C3596 C 0.52666 0.53006 0.48853 0.0
C3597 C 0.54261 0.55121 0.48873 0.0
C3598 C 0.47876 0.54972 0.53304 0.0
C3599 C 0.5321 0.50875 0.47258 0.0
H3600 H 0.48296 0.44759 0.52514 0.0
H3601 H 0.43416 0.48493 0.4788 0.0
H3602 H 0.53469 0.48737 0.52145 0.0
H3603 H 0.51583 0.50135 0.54269 0.0
H3604 H 0.51831 0.46737 0.54088 0.0
H3605 H 0.44355 0.52482 0.46377 0.0
H3606 H 0.45705 0.54558 0.48425 0.0
H3607 H 0.47672 0.53275 0.46301 0.0
H3608 H 0.51282 0.58757 0.52706 0.0
H3609 H 0.55858 0.55172 0.4775 0.0
H3610 H 0.4799 0.5327 0.54373 0.0
H3611 H 0.46071 0.54856 0.52375 0.0
H3612 H 0.47825 0.56681 0.54372 0.0
H3613 H 0.53521 0.49087 0.48178 0.0
H3614 H 0.549 0.51251 0.46218 0.0
H3615 H 0.51558 0.50578 0.46156 0.0
loop_
_geom_bond_atom_site_label_1
_geom_bond_atom_site_label_2
_geom_bond_distance
_geom_bond_site_symmetry_2
_ccdc_geom_bond_type
C0 C1 1.351 . S
C0 N3 1.368 . S
C0 H5 0.931 . S
C1 C0 1.351 . S
C1 N2 1.373 . S
C1 H29 0.930 . S
N2 C1 1.373 . S
N2 C4 1.340 . S
N3 C0 1.368 . S
N3 C4 1.321 . S
N3 Co6 2.135 . S
C4 N2 1.340 . S
C4 N3 1.321 . S
C4 H28 0.930 . S
H5 C0 0.931 . S
Co6 N3 2.135 . S
Co6 N9 2.121 . S
Co6 O14 2.055 . S
Co6 O17 2.039 . S
Co6 N20 2.140 . S
C7 O8 1.227 . S
C7 O17 1.265 . S
O8 C7 1.227 . S
N9 Co6 2.121 . S
N9 C11 1.375 . S
N9 C12 1.313 . S
C10 C11 1.338 . S
C10 N13 1.377 . S
C10 H30 0.930 . S
C11 N9 1.375 . S
C11 C10 1.338 . S
C11 H15 0.931 . S
C12 N9 1.313 . S
C12 N13 1.344 . S
C12 H16 0.930 . S
N13 C10 1.377 . S
N13 C12 1.344 . S
O14 Co6 2.055 . S
O14 C18 1.253 . S
H15 C11 0.931 . S
H16 C12 0.930 . S
O17 Co6 2.039 . S
O17 C7 1.265 . S
C18 O14 1.253 . S
C18 O19 1.227 . S
O19 C18 1.227 . S
N20 Co6 2.140 . S
N20 C23 1.346 . S
N20 C24 1.345 . S
C21 C22 1.387 . S
C21 C25 1.391 . S
C22 C21 1.387 . S
C22 C23 1.369 . S
C22 H31 0.929 . S
C23 N20 1.346 . S
C23 C22 1.369 . S
C23 H26 0.928 . S
C24 N20 1.345 . S
C24 C25 1.371 . S
C24 H27 0.931 . S
C25 C21 1.391 . S
C25 C24 1.371 . S
C25 H32 0.930 . S
H26 C23 0.928 . S
H27 C24 0.931 . S
H28 C4 0.930 . S
H29 C1 0.930 . S
H30 C10 0.930 . S
H31 C22 0.929 . S
H32 C25 0.930 . S
C33 C34 1.351 . S
C33 N36 1.368 . S
C33 H38 0.931 . S
C34 C33 1.351 . S
C34 N35 1.373 . S
C34 H62 0.930 . S
N35 C34 1.373 . S
N35 C37 1.340 . S
N36 C33 1.368 . S
N36 C37 1.321 . S
N36 Co39 2.135 . S
C37 N35 1.340 . S
C37 N36 1.321 . S
C37 H61 0.930 . S
H38 C33 0.931 . S
Co39 N36 2.135 . S
Co39 N42 2.121 . S
Co39 O47 2.055 . S
Co39 O50 2.039 . S
Co39 N53 2.140 . S
C40 O41 1.227 . S
C40 O50 1.265 . S
O41 C40 1.227 . S
N42 Co39 2.121 . S
N42 C44 1.375 . S
N42 C45 1.313 . S
C43 C44 1.338 . S
C43 N46 1.377 . S
C43 H63 0.930 . S
C44 N42 1.375 . S
C44 C43 1.338 . S
C44 H48 0.931 . S
C45 N42 1.313 . S
C45 N46 1.344 . S
C45 H49 0.930 . S
N46 C43 1.377 . S
N46 C45 1.344 . S
O47 Co39 2.055 . S
O47 C51 1.253 . S
H48 C44 0.931 . S
H49 C45 0.930 . S
O50 Co39 2.039 . S
O50 C40 1.265 . S
C51 O47 1.253 . S
C51 O52 1.227 . S
O52 C51 1.227 . S
N53 Co39 2.140 . S
N53 C56 1.346 . S
N53 C57 1.345 . S
C54 C55 1.387 . S
C54 C58 1.391 . S
C55 C54 1.387 . S
C55 C56 1.369 . S
C55 H64 0.929 . S
C56 N53 1.346 . S
C56 C55 1.369 . S
C56 H59 0.928 . S
C57 N53 1.345 . S
C57 C58 1.371 . S
C57 H60 0.931 . S
C58 C54 1.391 . S
C58 C57 1.371 . S
C58 H65 0.930 . S
H59 C56 0.928 . S
H60 C57 0.931 . S
H61 C37 0.930 . S
H62 C34 0.930 . S
H63 C43 0.930 . S
H64 C55 0.929 . S
H65 C58 0.930 . S
C66 C67 1.351 . S
C66 N69 1.368 . S
C66 H71 0.931 . S
C67 C66 1.351 . S
C67 N68 1.373 . S
C67 H95 0.930 . S
N68 C67 1.373 . S
N68 C70 1.340 . S
N69 C66 1.368 . S
N69 C70 1.321 . S
N69 Co72 2.135 . S
C70 N68 1.340 . S
C70 N69 1.321 . S
C70 H94 0.930 . S
H71 C66 0.931 . S
Co72 N69 2.135 . S
Co72 N75 2.121 . S
Co72 O80 2.055 . S
Co72 O83 2.039 . S
Co72 N86 2.140 . S
C73 O74 1.227 . S
C73 O83 1.265 . S
O74 C73 1.227 . S
N75 Co72 2.121 . S
N75 C77 1.375 . S
N75 C78 1.313 . S
C76 C77 1.338 . S
C76 N79 1.377 . S
C76 H96 0.930 . S
C77 N75 1.375 . S
C77 C76 1.338 . S
C77 H81 0.931 . S
C78 N75 1.313 . S
C78 N79 1.344 . S
C78 H82 0.930 . S
N79 C76 1.377 . S
N79 C78 1.344 . S
O80 Co72 2.055 . S
O80 C84 1.253 . S
H81 C77 0.931 . S
H82 C78 0.930 . S
O83 Co72 2.039 . S
O83 C73 1.265 . S
C84 O80 1.253 . S
C84 O85 1.227 . S
O85 C84 1.227 . S
N86 Co72 2.140 . S
N86 C89 1.346 . S
N86 C90 1.345 . S
C87 C88 1.387 . S
C87 C91 1.391 . S
C88 C87 1.387 . S
C88 C89 1.369 . S
C88 H97 0.929 . S
C89 N86 1.346 . S
C89 C88 1.369 . S
C89 H92 0.928 . S
C90 N86 1.345 . S
C90 C91 1.371 . S
C90 H93 0.931 . S
C91 C87 1.391 . S
C91 C90 1.371 . S
C91 H98 0.930 . S
H92 C89 0.928 . S
H93 C90 0.931 . S
H94 C70 0.930 . S
H95 C67 0.930 . S
H96 C76 0.930 . S
H97 C88 0.929 . S
H98 C91 0.930 . S
C99 C100 1.351 . S
C99 N102 1.368 . S
C99 H104 0.931 . S
C100 C99 1.351 . S
C100 N101 1.373 . S
C100 H128 0.930 . S
N101 C100 1.373 . S
N101 C103 1.340 . S
N102 C99 1.368 . S
N102 C103 1.321 . S
N102 Co105 2.135 . S
C103 N101 1.340 . S
C103 N102 1.321 . S
C103 H127 0.930 . S
H104 C99 0.931 . S
Co105 N102 2.135 . S
Co105 N108 2.121 1_554 S
Co105 O113 2.055 . S
Co105 O116 2.039 . S
Co105 N119 2.140 . S
C106 O107 1.227 . S
C106 O116 1.265 . S
O107 C106 1.227 . S
N108 Co105 2.121 1_556 S
N108 C110 1.375 . S
N108 C111 1.313 . S
C109 C110 1.338 . S
C109 N112 1.377 . S
C109 H129 0.930 . S
C110 N108 1.375 . S
C110 C109 1.338 . S
C110 H114 0.931 . S
C111 N108 1.313 . S
C111 N112 1.344 . S
C111 H115 0.930 . S
N112 C109 1.377 . S
N112 C111 1.344 . S
O113 Co105 2.055 . S
O113 C117 1.253 . S
H114 C110 0.931 . S
H115 C111 0.930 . S
O116 Co105 2.039 . S
O116 C106 1.265 . S
C117 O113 1.253 . S
C117 O118 1.227 . S
O118 C117 1.227 . S
N119 Co105 2.140 . S
N119 C122 1.346 . S
N119 C123 1.345 . S
C120 C121 1.387 . S
C120 C124 1.391 . S
C121 C120 1.387 . S
C121 C122 1.369 . S
C121 H130 0.929 . S
C122 N119 1.346 . S
C122 C121 1.369 . S
C122 H125 0.928 . S
C123 N119 1.345 . S
C123 C124 1.371 . S
C123 H126 0.931 . S
C124 C120 1.391 . S
C124 C123 1.371 . S
C124 H131 0.930 . S
H125 C122 0.928 . S
H126 C123 0.931 . S
H127 C103 0.930 . S
H128 C100 0.930 . S
H129 C109 0.930 . S
H130 C121 0.929 . S
H131 C124 0.930 . S
C132 C133 1.351 . S
C132 N135 1.368 . S
C132 H137 0.931 . S
C133 C132 1.351 . S
C133 N134 1.373 . S
C133 H161 0.930 . S
N134 C133 1.373 . S
N134 C136 1.340 . S
N135 C132 1.368 . S
N135 C136 1.321 . S
N135 Co138 2.135 . S
C136 N134 1.340 . S
C136 N135 1.321 . S
C136 H160 0.930 . S
H137 C132 0.931 . S
Co138 N135 2.135 . S
Co138 N141 2.121 . S
Co138 O146 2.055 . S
Co138 O149 2.039 . S
Co138 N152 2.140 . S
C139 O140 1.227 . S
C139 O149 1.265 . S
O140 C139 1.227 . S
N141 Co138 2.121 . S
N141 C143 1.375 . S
N141 C144 1.313 . S
C142 C143 1.338 . S
C142 N145 1.377 . S
C142 H162 0.930 . S
C143 N141 1.375 . S
C143 C142 1.338 . S
C143 H147 0.931 . S
C144 N141 1.313 . S
C144 N145 1.344 . S
C144 H148 0.930 . S
N145 C142 1.377 . S
N145 C144 1.344 . S
O146 Co138 2.055 . S
O146 C150 1.253 . S
H147 C143 0.931 . S
H148 C144 0.930 . S
O149 Co138 2.039 . S
O149 C139 1.265 . S
C150 O146 1.253 . S
C150 O151 1.227 . S
O151 C150 1.227 . S
N152 Co138 2.140 . S
N152 C155 1.346 . S
N152 C156 1.345 . S
C153 C154 1.387 . S
C153 C157 1.391 . S
C154 C153 1.387 . S
C154 C155 1.369 . S
C154 H163 0.929 . S
C155 N152 1.346 . S
C155 C154 1.369 . S
C155 H158 0.928 . S
C156 N152 1.345 . S
C156 C157 1.371 . S
C156 H159 0.931 . S
C157 C153 1.391 . S
C157 C156 1.371 . S
C157 H164 0.930 . S
H158 C155 0.928 . S
H159 C156 0.931 . S
H160 C136 0.930 . S
H161 C133 0.930 . S
H162 C142 0.930 . S
H163 C154 0.929 . S
H164 C157 0.930 . S
C165 C166 1.351 . S
C165 N168 1.368 . S
C165 H170 0.931 . S
C166 C165 1.351 . S
C166 N167 1.373 . S
C166 H194 0.930 . S
N167 C166 1.373 . S
N167 C169 1.340 . S
N168 C165 1.368 . S
N168 C169 1.321 . S
N168 Co171 2.135 . S
C169 N167 1.340 . S
C169 N168 1.321 . S
C169 H193 0.930 . S
H170 C165 0.931 . S
Co171 N168 2.135 . S
Co171 N174 2.121 . S
Co171 O179 2.055 . S
Co171 O182 2.039 . S
Co171 N185 2.140 . S
C172 O173 1.227 . S
C172 O182 1.265 . S
O173 C172 1.227 . S
N174 Co171 2.121 . S
N174 C176 1.375 . S
N174 C177 1.313 . S
C175 C176 1.338 . S
C175 N178 1.377 . S
C175 H195 0.930 . S
C176 N174 1.375 . S
C176 C175 1.338 . S
C176 H180 0.931 . S
C177 N174 1.313 . S
C177 N178 1.344 . S
C177 H181 0.930 . S
N178 C175 1.377 . S
N178 C177 1.344 . S
O179 Co171 2.055 . S
O179 C183 1.253 . S
H180 C176 0.931 . S
H181 C177 0.930 . S
O182 Co171 2.039 . S
O182 C172 1.265 . S
C183 O179 1.253 . S
C183 O184 1.227 . S
O184 C183 1.227 . S
N185 Co171 2.140 . S
N185 C188 1.346 . S
N185 C189 1.345 . S
C186 C187 1.387 . S
C186 C190 1.391 . S
C187 C186 1.387 . S
C187 C188 1.369 . S
C187 H196 0.929 . S
C188 N185 1.346 . S
C188 C187 1.369 . S
C188 H191 0.928 . S
C189 N185 1.345 . S
C189 C190 1.371 . S
C189 H192 0.931 . S
C190 C186 1.391 . S
C190 C189 1.371 . S
C190 H197 0.930 . S
H191 C188 0.928 . S
H192 C189 0.931 . S
H193 C169 0.930 . S
H194 C166 0.930 . S
H195 C175 0.930 . S
H196 C187 0.929 . S
H197 C190 0.930 . S
C198 C199 1.351 . S
C198 N201 1.368 . S
C198 H203 0.931 . S
C199 C198 1.351 . S
C199 N200 1.373 . S
C199 H227 0.930 . S
N200 C199 1.373 . S
N200 C202 1.340 . S
N201 C198 1.368 . S
N201 C202 1.321 . S
N201 Co204 2.135 . S
C202 N200 1.340 . S
C202 N201 1.321 . S
C202 H226 0.930 . S
H203 C198 0.931 . S
Co204 N201 2.135 . S
Co204 N207 2.121 . S
Co204 O212 2.055 . S
Co204 O215 2.039 . S
Co204 N218 2.140 . S
C205 O206 1.227 . S
C205 O215 1.265 . S
O206 C205 1.227 . S
N207 Co204 2.121 . S
N207 C209 1.375 . S
N207 C210 1.313 . S
C208 C209 1.338 . S
C208 N211 1.377 . S
C208 H228 0.930 . S
C209 N207 1.375 . S
C209 C208 1.338 . S
C209 H213 0.931 . S
C210 N207 1.313 . S
C210 N211 1.344 . S
C210 H214 0.930 . S
N211 C208 1.377 . S
N211 C210 1.344 . S
O212 Co204 2.055 . S
O212 C216 1.253 . S
H213 C209 0.931 . S
H214 C210 0.930 . S
O215 Co204 2.039 . S
O215 C205 1.265 . S
C216 O212 1.253 . S
C216 O217 1.227 . S
O217 C216 1.227 . S
N218 Co204 2.140 . S
N218 C221 1.346 . S
N218 C222 1.345 . S
C219 C220 1.387 . S
C219 C223 1.391 . S
C220 C219 1.387 . S
C220 C221 1.369 . S
C220 H229 0.929 . S
C221 N218 1.346 . S
C221 C220 1.369 . S
C221 H224 0.928 . S
C222 N218 1.345 . S
C222 C223 1.371 . S
C222 H225 0.931 . S
C223 C219 1.391 . S
C223 C222 1.371 . S
C223 H230 0.930 . S
H224 C221 0.928 . S
H225 C222 0.931 . S
H226 C202 0.930 . S
H227 C199 0.930 . S
H228 C208 0.930 . S
H229 C220 0.929 . S
H230 C223 0.930 . S
C231 C232 1.351 . S
C231 N234 1.368 . S
C231 H236 0.931 . S
C232 C231 1.351 . S
C232 N233 1.373 . S
C232 H260 0.930 . S
N233 C232 1.373 . S
N233 C235 1.340 . S
N234 C231 1.368 . S
N234 C235 1.321 . S
N234 Co237 2.135 . S
C235 N233 1.340 . S
C235 N234 1.321 . S
C235 H259 0.930 . S
H236 C231 0.931 . S
Co237 N234 2.135 . S
Co237 N240 2.121 1_556 S
Co237 O245 2.055 . S
Co237 O248 2.039 . S
Co237 N251 2.140 . S
C238 O239 1.227 . S
C238 O248 1.265 . S
O239 C238 1.227 . S
N240 Co237 2.121 1_554 S
N240 C242 1.375 . S
N240 C243 1.313 . S
C241 C242 1.338 . S
C241 N244 1.377 . S
C241 H261 0.930 . S
C242 N240 1.375 . S
C242 C241 1.338 . S
C242 H246 0.931 . S
C243 N240 1.313 . S
C243 N244 1.344 . S
C243 H247 0.930 . S
N244 C241 1.377 . S
N244 C243 1.344 . S
O245 Co237 2.055 . S
O245 C249 1.253 . S
H246 C242 0.931 . S
H247 C243 0.930 . S
O248 Co237 2.039 . S
O248 C238 1.265 . S
C249 O245 1.253 . S
C249 O250 1.227 . S
O250 C249 1.227 . S
N251 Co237 2.140 . S
N251 C254 1.346 . S
N251 C255 1.345 . S
C252 C253 1.387 . S
C252 C256 1.391 . S
C253 C252 1.387 . S
C253 C254 1.369 . S
C253 H262 0.929 . S
C254 N251 1.346 . S
C254 C253 1.369 . S
C254 H257 0.928 . S
C255 N251 1.345 . S
C255 C256 1.371 . S
C255 H258 0.931 . S
C256 C252 1.391 . S
C256 C255 1.371 . S
C256 H263 0.930 . S
H257 C254 0.928 . S
H258 C255 0.931 . S
H259 C235 0.930 . S
H260 C232 0.930 . S
H261 C241 0.930 . S
H262 C253 0.929 . S
H263 C256 0.930 . S
C264 C265 1.351 . S
C264 N267 1.368 . S
C264 H269 0.931 . S
C265 C264 1.351 . S
C265 N266 1.373 . S
C265 H293 0.930 . S
N266 C265 1.373 . S
N266 C268 1.340 . S
N267 C264 1.368 . S
N267 C268 1.321 . S
N267 Co270 2.135 . S
C268 N266 1.340 . S
C268 N267 1.321 . S
C268 H292 0.930 . S
H269 C264 0.931 . S
Co270 N267 2.135 . S
Co270 N273 2.121 . S
Co270 O278 2.055 . S
Co270 O281 2.039 . S
Co270 N284 2.140 . S
C271 O272 1.227 . S
C271 O281 1.265 . S
O272 C271 1.227 . S
N273 Co270 2.121 . S
N273 C275 1.375 . S
N273 C276 1.313 . S
C274 C275 1.338 . S
C274 N277 1.377 . S
C274 H294 0.930 . S
C275 N273 1.375 . S
C275 C274 1.338 . S
C275 H279 0.931 . S
C276 N273 1.313 . S
C276 N277 1.344 . S
C276 H280 0.930 . S
N277 C274 1.377 . S
N277 C276 1.344 . S
O278 Co270 2.055 . S
O278 C282 1.253 . S
H279 C275 0.931 . S
H280 C276 0.930 . S
O281 Co270 2.039 . S
O281 C271 1.265 . S
C282 O278 1.253 . S
C282 O283 1.227 . S
O283 C282 1.227 . S
N284 Co270 2.140 . S
N284 C287 1.346 . S
N284 C288 1.345 . S
C285 C286 1.387 . S
C285 C289 1.391 . S
C286 C285 1.387 . S
C286 C287 1.369 . S
C286 H295 0.929 . S
C287 N284 1.346 . S
C287 C286 1.369 . S
C287 H290 0.928 . S
C288 N284 1.345 . S
C288 C289 1.371 . S
C288 H291 0.931 . S
C289 C285 1.391 . S
C289 C288 1.371 . S
C289 H296 0.930 . S
H290 C287 0.928 . S
H291 C288 0.931 . S
H292 C268 0.930 . S
H293 C265 0.930 . S
H294 C274 0.930 . S
H295 C286 0.929 . S
H296 C289 0.930 . S
C297 C298 1.351 . S
C297 N300 1.368 . S
C297 H302 0.931 . S
C298 C297 1.351 . S
C298 N299 1.373 . S
C298 H326 0.930 . S
N299 C298 1.373 . S
N299 C301 1.340 . S
N300 C297 1.368 . S
N300 C301 1.321 . S
N300 Co303 2.135 . S
C301 N299 1.340 . S
C301 N300 1.321 . S
C301 H325 0.930 . S
H302 C297 0.931 . S
Co303 N300 2.135 . S
Co303 N306 2.121 . S
Co303 O311 2.055 . S
Co303 O314 2.039 . S
Co303 N317 2.140 . S
C304 O305 1.227 . S
C304 O314 1.265 . S
O305 C304 1.227 . S
N306 Co303 2.121 . S
N306 C308 1.375 . S
N306 C309 1.313 . S
C307 C308 1.338 . S
C307 N310 1.377 . S
C307 H327 0.930 . S
C308 N306 1.375 . S
C308 C307 1.338 . S
C308 H312 0.931 . S
C309 N306 1.313 . S
C309 N310 1.344 . S
C309 H313 0.930 . S
N310 C307 1.377 . S
N310 C309 1.344 . S
O311 Co303 2.055 . S
O311 C315 1.253 . S
H312 C308 0.931 . S
H313 C309 0.930 . S
O314 Co303 2.039 . S
O314 C304 1.265 . S
C315 O311 1.253 . S
C315 O316 1.227 . S
O316 C315 1.227 . S
N317 Co303 2.140 . S
N317 C320 1.346 . S
N317 C321 1.345 . S
C318 C319 1.387 . S
C318 C322 1.391 . S
C319 C318 1.387 . S
C319 C320 1.369 . S
C319 H328 0.929 . S
C320 N317 1.346 . S
C320 C319 1.369 . S
C320 H323 0.928 . S
C321 N317 1.345 . S
C321 C322 1.371 . S
C321 H324 0.931 . S
C322 C318 1.391 . S
C322 C321 1.371 . S
C322 H329 0.930 . S
H323 C320 0.928 . S
H324 C321 0.931 . S
H325 C301 0.930 . S
H326 C298 0.930 . S
H327 C307 0.930 . S
H328 C319 0.929 . S
H329 C322 0.930 . S
C330 C331 1.351 . S
C330 N333 1.368 . S
C330 H335 0.931 . S
C331 C330 1.351 . S
C331 N332 1.373 . S
C331 H359 0.930 . S
N332 C331 1.373 . S
N332 C334 1.340 . S
N333 C330 1.368 . S
N333 C334 1.321 . S
N333 Co336 2.135 . S
C334 N332 1.340 . S
C334 N333 1.321 . S
C334 H358 0.930 . S
H335 C330 0.931 . S
Co336 N333 2.135 . S
Co336 N339 2.121 . S
Co336 O344 2.055 . S
Co336 O347 2.039 . S
Co336 N350 2.140 . S
C337 O338 1.227 . S
C337 O347 1.265 . S
O338 C337 1.227 . S
N339 Co336 2.121 . S
N339 C341 1.375 . S
N339 C342 1.313 . S
C340 C341 1.338 . S
C340 N343 1.377 . S
C340 H360 0.930 . S
C341 N339 1.375 . S
C341 C340 1.338 . S
C341 H345 0.931 . S
C342 N339 1.313 . S
C342 N343 1.344 . S
C342 H346 0.930 . S
N343 C340 1.377 . S
N343 C342 1.344 . S
O344 Co336 2.055 . S
O344 C348 1.253 . S
H345 C341 0.931 . S
H346 C342 0.930 . S
O347 Co336 2.039 . S
O347 C337 1.265 . S
C348 O344 1.253 . S
C348 O349 1.227 . S
O349 C348 1.227 . S
N350 Co336 2.140 . S
N350 C353 1.346 . S
N350 C354 1.345 . S
C351 C352 1.387 . S
C351 C355 1.391 . S
C352 C351 1.387 . S
C352 C353 1.369 . S
C352 H361 0.929 . S
C353 N350 1.346 . S
C353 C352 1.369 . S
C353 H356 0.928 . S
C354 N350 1.345 . S
C354 C355 1.371 . S
C354 H357 0.931 . S
C355 C351 1.391 . S
C355 C354 1.371 . S
C355 H362 0.930 . S
H356 C353 0.928 . S
H357 C354 0.931 . S
H358 C334 0.930 . S
H359 C331 0.930 . S
H360 C340 0.930 . S
H361 C352 0.929 . S
H362 C355 0.930 . S
C363 C364 1.351 . S
C363 N366 1.368 . S
C363 H368 0.931 . S
C364 C363 1.351 . S
C364 N365 1.373 . S
C364 H392 0.930 . S
N365 C364 1.373 . S
N365 C367 1.340 . S
N366 C363 1.368 . S
N366 C367 1.321 . S
N366 Co369 2.135 . S
C367 N365 1.340 . S
C367 N366 1.321 . S
C367 H391 0.930 . S
H368 C363 0.931 . S
Co369 N366 2.135 . S
Co369 N372 2.121 1_556 S
Co369 O377 2.055 . S
Co369 O380 2.039 . S
Co369 N383 2.140 . S
C370 O371 1.227 . S
C370 O380 1.265 . S
O371 C370 1.227 . S
N372 Co369 2.121 1_554 S
N372 C374 1.375 . S
N372 C375 1.313 . S
C373 C374 1.338 . S
C373 N376 1.377 . S
C373 H393 0.930 . S
C374 N372 1.375 . S
C374 C373 1.338 . S
C374 H378 0.931 . S
C375 N372 1.313 . S
C375 N376 1.344 . S
C375 H379 0.930 . S
N376 C373 1.377 . S
N376 C375 1.344 . S
O377 Co369 2.055 . S
O377 C381 1.253 . S
H378 C374 0.931 . S
H379 C375 0.930 . S
O380 Co369 2.039 . S
O380 C370 1.265 . S
C381 O377 1.253 . S
C381 O382 1.227 . S
O382 C381 1.227 . S
N383 Co369 2.140 . S
N383 C386 1.346 . S
N383 C387 1.345 . S
C384 C385 1.387 . S
C384 C388 1.391 . S
C385 C384 1.387 . S
C385 C386 1.369 . S
C385 H394 0.929 . S
C386 N383 1.346 . S
C386 C385 1.369 . S
C386 H389 0.928 . S
C387 N383 1.345 . S
C387 C388 1.371 . S
C387 H390 0.931 . S
C388 C384 1.391 . S
C388 C387 1.371 . S
C388 H395 0.930 . S
H389 C386 0.928 . S
H390 C387 0.931 . S
H391 C367 0.930 . S
H392 C364 0.930 . S
H393 C373 0.930 . S
H394 C385 0.929 . S
H395 C388 0.930 . S
C396 C397 1.351 . S
C396 N399 1.368 . S
C396 H401 0.931 . S
C397 C396 1.351 . S
C397 N398 1.373 . S
C397 H425 0.930 . S
N398 C397 1.373 . S
N398 C400 1.340 . S
N399 C396 1.368 . S
N399 C400 1.321 . S
N399 Co402 2.135 . S
C400 N398 1.340 . S
C400 N399 1.321 . S
C400 H424 0.930 . S
H401 C396 0.931 . S
Co402 N399 2.135 . S
Co402 N405 2.121 . S
Co402 O410 2.055 . S
Co402 O413 2.039 . S
Co402 N416 2.140 . S
C403 O404 1.227 . S
C403 O413 1.265 . S
O404 C403 1.227 . S
N405 Co402 2.121 . S
N405 C407 1.375 . S
N405 C408 1.313 . S
C406 C407 1.338 . S
C406 N409 1.377 . S
C406 H426 0.930 . S
C407 N405 1.375 . S
C407 C406 1.338 . S
C407 H411 0.931 . S
C408 N405 1.313 . S
C408 N409 1.344 . S
C408 H412 0.930 . S
N409 C406 1.377 . S
N409 C408 1.344 . S
O410 Co402 2.055 . S
O410 C414 1.253 . S
H411 C407 0.931 . S
H412 C408 0.930 . S
O413 Co402 2.039 . S
O413 C403 1.265 . S
C414 O410 1.253 . S
C414 O415 1.227 . S
O415 C414 1.227 . S
N416 Co402 2.140 . S
N416 C419 1.346 . S
N416 C420 1.345 . S
C417 C418 1.387 . S
C417 C421 1.391 . S
C418 C417 1.387 . S
C418 C419 1.369 . S
C418 H427 0.929 . S
C419 N416 1.346 . S
C419 C418 1.369 . S
C419 H422 0.928 . S
C420 N416 1.345 . S
C420 C421 1.371 . S
C420 H423 0.931 . S
C421 C417 1.391 . S
C421 C420 1.371 . S
C421 H428 0.930 . S
H422 C419 0.928 . S
H423 C420 0.931 . S
H424 C400 0.930 . S
H425 C397 0.930 . S
H426 C406 0.930 . S
H427 C418 0.929 . S
H428 C421 0.930 . S
C429 C430 1.351 . S
C429 N432 1.368 . S
C429 H434 0.931 . S
C430 C429 1.351 . S
C430 N431 1.373 . S
C430 H458 0.930 . S
N431 C430 1.373 . S
N431 C433 1.340 . S
N432 C429 1.368 . S
N432 C433 1.321 . S
N432 Co435 2.135 . S
C433 N431 1.340 . S
C433 N432 1.321 . S
C433 H457 0.930 . S
H434 C429 0.931 . S
Co435 N432 2.135 . S
Co435 N438 2.121 . S
Co435 O443 2.055 . S
Co435 O446 2.039 . S
Co435 N449 2.140 . S
C436 O437 1.227 . S
C436 O446 1.265 . S
O437 C436 1.227 . S
N438 Co435 2.121 . S
N438 C440 1.375 . S
N438 C441 1.313 . S
C439 C440 1.338 . S
C439 N442 1.377 . S
C439 H459 0.930 . S
C440 N438 1.375 . S
C440 C439 1.338 . S
C440 H444 0.931 . S
C441 N438 1.313 . S
C441 N442 1.344 . S
C441 H445 0.930 . S
N442 C439 1.377 . S
N442 C441 1.344 . S
O443 Co435 2.055 . S
O443 C447 1.253 . S
H444 C440 0.931 . S
H445 C441 0.930 . S
O446 Co435 2.039 . S
O446 C436 1.265 . S
C447 O443 1.253 . S
C447 O448 1.227 . S
O448 C447 1.227 . S
N449 Co435 2.140 . S
N449 C452 1.346 . S
N449 C453 1.345 . S
C450 C451 1.387 . S
C450 C454 1.391 . S
C451 C450 1.387 . S
C451 C452 1.369 . S
C451 H460 0.929 . S
C452 N449 1.346 . S
C452 C451 1.369 . S
C452 H455 0.928 . S
C453 N449 1.345 . S
C453 C454 1.371 . S
C453 H456 0.931 . S
C454 C450 1.391 . S
C454 C453 1.371 . S
C454 H461 0.930 . S
H455 C452 0.928 . S
H456 C453 0.931 . S
H457 C433 0.930 . S
H458 C430 0.930 . S
H459 C439 0.930 . S
H460 C451 0.929 . S
H461 C454 0.930 . S
C462 C463 1.351 . S
C462 N465 1.368 . S
C462 H467 0.931 . S
C463 C462 1.351 . S
C463 N464 1.373 . S
C463 H491 0.930 . S
N464 C463 1.373 . S
N464 C466 1.340 . S
N465 C462 1.368 . S
N465 C466 1.321 . S
N465 Co468 2.135 . S
C466 N464 1.340 . S
C466 N465 1.321 . S
C466 H490 0.930 . S
H467 C462 0.931 . S
Co468 N465 2.135 . S
Co468 N471 2.121 . S
Co468 O476 2.055 . S
Co468 O479 2.039 . S
Co468 N482 2.140 . S
C469 O470 1.227 . S
C469 O479 1.265 . S
O470 C469 1.227 . S
N471 Co468 2.121 . S
N471 C473 1.375 . S
N471 C474 1.313 . S
C472 C473 1.338 . S
C472 N475 1.377 . S
C472 H492 0.930 . S
C473 N471 1.375 . S
C473 C472 1.338 . S
C473 H477 0.931 . S
C474 N471 1.313 . S
C474 N475 1.344 . S
C474 H478 0.930 . S
N475 C472 1.377 . S
N475 C474 1.344 . S
O476 Co468 2.055 . S
O476 C480 1.253 . S
H477 C473 0.931 . S
H478 C474 0.930 . S
O479 Co468 2.039 . S
O479 C469 1.265 . S
C480 O476 1.253 . S
C480 O481 1.227 . S
O481 C480 1.227 . S
N482 Co468 2.140 . S
N482 C485 1.346 . S
N482 C486 1.345 . S
C483 C484 1.387 . S
C483 C487 1.391 . S
C484 C483 1.387 . S
C484 C485 1.369 . S
C484 H493 0.929 . S
C485 N482 1.346 . S
C485 C484 1.369 . S
C485 H488 0.928 . S
C486 N482 1.345 . S
C486 C487 1.371 . S
C486 H489 0.931 . S
C487 C483 1.391 . S
C487 C486 1.371 . S
C487 H494 0.930 . S
H488 C485 0.928 . S
H489 C486 0.931 . S
H490 C466 0.930 . S
H491 C463 0.930 . S
H492 C472 0.930 . S
H493 C484 0.929 . S
H494 C487 0.930 . S
C495 C496 1.351 . S
C495 N498 1.368 . S
C495 H500 0.931 . S
C496 C495 1.351 . S
C496 N497 1.373 . S
C496 H524 0.930 . S
N497 C496 1.373 . S
N497 C499 1.340 . S
N498 C495 1.368 . S
N498 C499 1.321 . S
N498 Co501 2.135 . S
C499 N497 1.340 . S
C499 N498 1.321 . S
C499 H523 0.930 . S
H500 C495 0.931 . S
Co501 N498 2.135 . S
Co501 N504 2.121 1_554 S
Co501 O509 2.055 . S
Co501 O512 2.039 . S
Co501 N515 2.140 . S
C502 O503 1.227 . S
C502 O512 1.265 . S
O503 C502 1.227 . S
N504 Co501 2.121 1_556 S
N504 C506 1.375 . S
N504 C507 1.313 . S
C505 C506 1.338 . S
C505 N508 1.377 . S
C505 H525 0.930 . S
C506 N504 1.375 . S
C506 C505 1.338 . S
C506 H510 0.931 . S
C507 N504 1.313 . S
C507 N508 1.344 . S
C507 H511 0.930 . S
N508 C505 1.377 . S
N508 C507 1.344 . S
O509 Co501 2.055 . S
O509 C513 1.253 . S
H510 C506 0.931 . S
H511 C507 0.930 . S
O512 Co501 2.039 . S
O512 C502 1.265 . S
C513 O509 1.253 . S
C513 O514 1.227 . S
O514 C513 1.227 . S
N515 Co501 2.140 . S
N515 C518 1.346 . S
N515 C519 1.345 . S
C516 C517 1.387 . S
C516 C520 1.391 . S
C517 C516 1.387 . S
C517 C518 1.369 . S
C517 H526 0.929 . S
C518 N515 1.346 . S
C518 C517 1.369 . S
C518 H521 0.928 . S
C519 N515 1.345 . S
C519 C520 1.371 . S
C519 H522 0.931 . S
C520 C516 1.391 . S
C520 C519 1.371 . S
C520 H527 0.930 . S
H521 C518 0.928 . S
H522 C519 0.931 . S
H523 C499 0.930 . S
H524 C496 0.930 . S
H525 C505 0.930 . S
H526 C517 0.929 . S
H527 C520 0.930 . S
C528 C529 1.351 . S
C528 N531 1.368 . S
C528 H533 0.931 . S
C529 C528 1.351 . S
C529 N530 1.373 . S
C529 H557 0.930 . S
N530 C529 1.373 . S
N530 C532 1.340 . S
N531 C528 1.368 . S
N531 C532 1.321 . S
N531 Co534 2.135 . S
C532 N530 1.340 . S
C532 N531 1.321 . S
C532 H556 0.930 . S
H533 C528 0.931 . S
Co534 N531 2.135 . S
Co534 N537 2.121 . S
Co534 O542 2.055 . S
Co534 O545 2.039 . S
Co534 N548 2.140 . S
C535 O536 1.227 . S
C535 O545 1.265 . S
O536 C535 1.227 . S
N537 Co534 2.121 . S
N537 C539 1.375 . S
N537 C540 1.313 . S
C538 C539 1.338 . S
C538 N541 1.377 . S
C538 H558 0.930 . S
C539 N537 1.375 . S
C539 C538 1.338 . S
C539 H543 0.931 . S
C540 N537 1.313 . S
C540 N541 1.344 . S
C540 H544 0.930 . S
N541 C538 1.377 . S
N541 C540 1.344 . S
O542 Co534 2.055 . S
O542 C546 1.253 . S
H543 C539 0.931 . S
H544 C540 0.930 . S
O545 Co534 2.039 . S
O545 C535 1.265 . S
C546 O542 1.253 . S
C546 O547 1.227 . S
O547 C546 1.227 . S
N548 Co534 2.140 . S
N548 C551 1.346 . S
N548 C552 1.345 . S
C549 C550 1.387 . S
C549 C553 1.391 . S
C550 C549 1.387 . S
C550 C551 1.369 . S
C550 H559 0.929 . S
C551 N548 1.346 . S
C551 C550 1.369 . S
C551 H554 0.928 . S
C552 N548 1.345 . S
C552 C553 1.371 . S
C552 H555 0.931 . S
C553 C549 1.391 . S
C553 C552 1.371 . S
C553 H560 0.930 . S
H554 C551 0.928 . S
H555 C552 0.931 . S
H556 C532 0.930 . S
H557 C529 0.930 . S
H558 C538 0.930 . S
H559 C550 0.929 . S
H560 C553 0.930 . S
C561 C562 1.351 . S
C561 N564 1.368 . S
C561 H566 0.931 . S
C562 C561 1.351 . S
C562 N563 1.373 . S
C562 H590 0.930 . S
N563 C562 1.373 . S
N563 C565 1.340 . S
N564 C561 1.368 . S
N564 C565 1.321 . S
N564 Co567 2.135 . S
C565 N563 1.340 . S
C565 N564 1.321 . S
C565 H589 0.930 . S
H566 C561 0.931 . S
Co567 N564 2.135 . S
Co567 N570 2.121 1_554 S
Co567 O575 2.055 . S
Co567 O578 2.039 . S
Co567 N581 2.140 . S
C568 O569 1.227 . S
C568 O578 1.265 . S
O569 C568 1.227 . S
N570 Co567 2.121 1_556 S
N570 C572 1.375 . S
N570 C573 1.313 . S
C571 C572 1.338 . S
C571 N574 1.377 . S
C571 H591 0.930 . S
C572 N570 1.375 . S
C572 C571 1.338 . S
C572 H576 0.931 . S
C573 N570 1.313 . S
C573 N574 1.344 . S
C573 H577 0.930 . S
N574 C571 1.377 . S
N574 C573 1.344 . S
O575 Co567 2.055 . S
O575 C579 1.253 . S
H576 C572 0.931 . S
H577 C573 0.930 . S
O578 Co567 2.039 . S
O578 C568 1.265 . S
C579 O575 1.253 . S
C579 O580 1.227 . S
O580 C579 1.227 . S
N581 Co567 2.140 . S
N581 C584 1.346 . S
N581 C585 1.345 . S
C582 C583 1.387 . S
C582 C586 1.391 . S
C583 C582 1.387 . S
C583 C584 1.369 . S
C583 H592 0.929 . S
C584 N581 1.346 . S
C584 C583 1.369 . S
C584 H587 0.928 . S
C585 N581 1.345 . S
C585 C586 1.371 . S
C585 H588 0.931 . S
C586 C582 1.391 . S
C586 C585 1.371 . S
C586 H593 0.930 . S
H587 C584 0.928 . S
H588 C585 0.931 . S
H589 C565 0.930 . S
H590 C562 0.930 . S
H591 C571 0.930 . S
H592 C583 0.929 . S
H593 C586 0.930 . S
C594 C595 1.351 . S
C594 N597 1.368 . S
C594 H599 0.931 . S
C595 C594 1.351 . S
C595 N596 1.373 . S
C595 H623 0.930 . S
N596 C595 1.373 . S
N596 C598 1.340 . S
N597 C594 1.368 . S
N597 C598 1.321 . S
N597 Co600 2.135 . S
C598 N596 1.340 . S
C598 N597 1.321 . S
C598 H622 0.930 . S
H599 C594 0.931 . S
Co600 N597 2.135 . S
Co600 N603 2.121 . S
Co600 O608 2.055 . S
Co600 O611 2.039 . S
Co600 N614 2.140 . S
C601 O602 1.227 . S
C601 O611 1.265 . S
O602 C601 1.227 . S
N603 Co600 2.121 . S
N603 C605 1.375 . S
N603 C606 1.313 . S
C604 C605 1.338 . S
C604 N607 1.377 . S
C604 H624 0.930 . S
C605 N603 1.375 . S
C605 C604 1.338 . S
C605 H609 0.931 . S
C606 N603 1.313 . S
C606 N607 1.344 . S
C606 H610 0.930 . S
N607 C604 1.377 . S
N607 C606 1.344 . S
O608 Co600 2.055 . S
O608 C612 1.253 . S
H609 C605 0.931 . S
H610 C606 0.930 . S
O611 Co600 2.039 . S
O611 C601 1.265 . S
C612 O608 1.253 . S
C612 O613 1.227 . S
O613 C612 1.227 . S
N614 Co600 2.140 . S
N614 C617 1.346 . S
N614 C618 1.345 . S
C615 C616 1.387 . S
C615 C619 1.391 . S
C616 C615 1.387 . S
C616 C617 1.369 . S
C616 H625 0.929 . S
C617 N614 1.346 . S
C617 C616 1.369 . S
C617 H620 0.928 . S
C618 N614 1.345 . S
C618 C619 1.371 . S
C618 H621 0.931 . S
C619 C615 1.391 . S
C619 C618 1.371 . S
C619 H626 0.930 . S
H620 C617 0.928 . S
H621 C618 0.931 . S
H622 C598 0.930 . S
H623 C595 0.930 . S
H624 C604 0.930 . S
H625 C616 0.929 . S
H626 C619 0.930 . S
C627 C628 1.351 . S
C627 N630 1.368 . S
C627 H632 0.931 . S
C628 C627 1.351 . S
C628 N629 1.373 . S
C628 H656 0.930 . S
N629 C628 1.373 . S
N629 C631 1.340 . S
N630 C627 1.368 . S
N630 C631 1.321 . S
N630 Co633 2.135 . S
C631 N629 1.340 . S
C631 N630 1.321 . S
C631 H655 0.930 . S
H632 C627 0.931 . S
Co633 N630 2.135 . S
Co633 N636 2.121 . S
Co633 O641 2.055 . S
Co633 O644 2.039 . S
Co633 N647 2.140 . S
C634 O635 1.227 . S
C634 O644 1.265 . S
O635 C634 1.227 . S
N636 Co633 2.121 . S
N636 C638 1.375 . S
N636 C639 1.313 . S
C637 C638 1.338 . S
C637 N640 1.377 . S
C637 H657 0.930 . S
C638 N636 1.375 . S
C638 C637 1.338 . S
C638 H642 0.931 . S
C639 N636 1.313 . S
C639 N640 1.344 . S
C639 H643 0.930 . S
N640 C637 1.377 . S
N640 C639 1.344 . S
O641 Co633 2.055 . S
O641 C645 1.253 . S
H642 C638 0.931 . S
H643 C639 0.930 . S
O644 Co633 2.039 . S
O644 C634 1.265 . S
C645 O641 1.253 . S
C645 O646 1.227 . S
O646 C645 1.227 . S
N647 Co633 2.140 . S
N647 C650 1.346 . S
N647 C651 1.345 . S
C648 C649 1.387 . S
C648 C652 1.391 . S
C649 C648 1.387 . S
C649 C650 1.369 . S
C649 H658 0.929 . S
C650 N647 1.346 . S
C650 C649 1.369 . S
C650 H653 0.928 . S
C651 N647 1.345 . S
C651 C652 1.371 . S
C651 H654 0.931 . S
C652 C648 1.391 . S
C652 C651 1.371 . S
C652 H659 0.930 . S
H653 C650 0.928 . S
H654 C651 0.931 . S
H655 C631 0.930 . S
H656 C628 0.930 . S
H657 C637 0.930 . S
H658 C649 0.929 . S
H659 C652 0.930 . S
C660 C661 1.351 . S
C660 N663 1.368 . S
C660 H665 0.931 . S
C661 C660 1.351 . S
C661 N662 1.373 . S
C661 H689 0.930 . S
N662 C661 1.373 . S
N662 C664 1.340 . S
N663 C660 1.368 . S
N663 C664 1.321 . S
N663 Co666 2.135 . S
C664 N662 1.340 . S
C664 N663 1.321 . S
C664 H688 0.930 . S
H665 C660 0.931 . S
Co666 N663 2.135 . S
Co666 N669 2.121 . S
Co666 O674 2.055 . S
Co666 O677 2.039 . S
Co666 N680 2.140 . S
C667 O668 1.227 . S
C667 O677 1.265 . S
O668 C667 1.227 . S
N669 Co666 2.121 . S
N669 C671 1.375 . S
N669 C672 1.313 . S
C670 C671 1.338 . S
C670 N673 1.377 . S
C670 H690 0.930 . S
C671 N669 1.375 . S
C671 C670 1.338 . S
C671 H675 0.931 . S
C672 N669 1.313 . S
C672 N673 1.344 . S
C672 H676 0.930 . S
N673 C670 1.377 . S
N673 C672 1.344 . S
O674 Co666 2.055 . S
O674 C678 1.253 . S
H675 C671 0.931 . S
H676 C672 0.930 . S
O677 Co666 2.039 . S
O677 C667 1.265 . S
C678 O674 1.253 . S
C678 O679 1.227 . S
O679 C678 1.227 . S
N680 Co666 2.140 . S
N680 C683 1.346 . S
N680 C684 1.345 . S
C681 C682 1.387 . S
C681 C685 1.391 . S
C682 C681 1.387 . S
C682 C683 1.369 . S
C682 H691 0.929 . S
C683 N680 1.346 . S
C683 C682 1.369 . S
C683 H686 0.928 . S
C684 N680 1.345 . S
C684 C685 1.371 . S
C684 H687 0.931 . S
C685 C681 1.391 . S
C685 C684 1.371 . S
C685 H692 0.930 . S
H686 C683 0.928 . S
H687 C684 0.931 . S
H688 C664 0.930 . S
H689 C661 0.930 . S
H690 C670 0.930 . S
H691 C682 0.929 . S
H692 C685 0.930 . S
C693 C694 1.351 . S
C693 N696 1.368 . S
C693 H698 0.931 . S
C694 C693 1.351 . S
C694 N695 1.373 . S
C694 H722 0.930 . S
N695 C694 1.373 . S
N695 C697 1.340 . S
N696 C693 1.368 . S
N696 C697 1.321 . S
N696 Co699 2.135 . S
C697 N695 1.340 . S
C697 N696 1.321 . S
C697 H721 0.930 . S
H698 C693 0.931 . S
Co699 N696 2.135 . S
Co699 N702 2.121 1_556 S
Co699 O707 2.055 . S
Co699 O710 2.039 . S
Co699 N713 2.140 . S
C700 O701 1.227 . S
C700 O710 1.265 . S
O701 C700 1.227 . S
N702 Co699 2.121 1_554 S
N702 C704 1.375 . S
N702 C705 1.313 . S
C703 C704 1.338 . S
C703 N706 1.377 . S
C703 H723 0.930 . S
C704 N702 1.375 . S
C704 C703 1.338 . S
C704 H708 0.931 . S
C705 N702 1.313 . S
C705 N706 1.344 . S
C705 H709 0.930 . S
N706 C703 1.377 . S
N706 C705 1.344 . S
O707 Co699 2.055 . S
O707 C711 1.253 . S
H708 C704 0.931 . S
H709 C705 0.930 . S
O710 Co699 2.039 . S
O710 C700 1.265 . S
C711 O707 1.253 . S
C711 O712 1.227 . S
O712 C711 1.227 . S
N713 Co699 2.140 . S
N713 C716 1.346 . S
N713 C717 1.345 . S
C714 C715 1.387 . S
C714 C718 1.391 . S
C715 C714 1.387 . S
C715 C716 1.369 . S
C715 H724 0.929 . S
C716 N713 1.346 . S
C716 C715 1.369 . S
C716 H719 0.928 . S
C717 N713 1.345 . S
C717 C718 1.371 . S
C717 H720 0.931 . S
C718 C714 1.391 . S
C718 C717 1.371 . S
C718 H725 0.930 . S
H719 C716 0.928 . S
H720 C717 0.931 . S
H721 C697 0.930 . S
H722 C694 0.930 . S
H723 C703 0.930 . S
H724 C715 0.929 . S
H725 C718 0.930 . S
C726 C727 1.351 . S
C726 N729 1.368 . S
C726 H731 0.931 . S
C727 C726 1.351 . S
C727 N728 1.373 . S
C727 H755 0.930 . S
N728 C727 1.373 . S
N728 C730 1.340 . S
N729 C726 1.368 . S
N729 C730 1.321 . S
N729 Co732 2.135 . S
C730 N728 1.340 . S
C730 N729 1.321 . S
C730 H754 0.930 . S
H731 C726 0.931 . S
Co732 N729 2.135 . S
Co732 N735 2.121 . S
Co732 O740 2.055 . S
Co732 O743 2.039 . S
Co732 N746 2.140 . S
C733 O734 1.227 . S
C733 O743 1.265 . S
O734 C733 1.227 . S
N735 Co732 2.121 . S
N735 C737 1.375 . S
N735 C738 1.313 . S
C736 C737 1.338 . S
C736 N739 1.377 . S
C736 H756 0.930 . S
C737 N735 1.375 . S
C737 C736 1.338 . S
C737 H741 0.931 . S
C738 N735 1.313 . S
C738 N739 1.344 . S
C738 H742 0.930 . S
N739 C736 1.377 . S
N739 C738 1.344 . S
O740 Co732 2.055 . S
O740 C744 1.253 . S
H741 C737 0.931 . S
H742 C738 0.930 . S
O743 Co732 2.039 . S
O743 C733 1.265 . S
C744 O740 1.253 . S
C744 O745 1.227 . S
O745 C744 1.227 . S
N746 Co732 2.140 . S
N746 C749 1.346 . S
N746 C750 1.345 . S
C747 C748 1.387 . S
C747 C751 1.391 . S
C748 C747 1.387 . S
C748 C749 1.369 . S
C748 H757 0.929 . S
C749 N746 1.346 . S
C749 C748 1.369 . S
C749 H752 0.928 . S
C750 N746 1.345 . S
C750 C751 1.371 . S
C750 H753 0.931 . S
C751 C747 1.391 . S
C751 C750 1.371 . S
C751 H758 0.930 . S
H752 C749 0.928 . S
H753 C750 0.931 . S
H754 C730 0.930 . S
H755 C727 0.930 . S
H756 C736 0.930 . S
H757 C748 0.929 . S
H758 C751 0.930 . S
C759 C760 1.351 . S
C759 N762 1.368 . S
C759 H764 0.931 . S
C760 C759 1.351 . S
C760 N761 1.373 . S
C760 H788 0.930 . S
N761 C760 1.373 . S
N761 C763 1.340 . S
N762 C759 1.368 . S
N762 C763 1.321 . S
N762 Co765 2.135 . S
C763 N761 1.340 . S
C763 N762 1.321 . S
C763 H787 0.930 . S
H764 C759 0.931 . S
Co765 N762 2.135 . S
Co765 N768 2.121 . S
Co765 O773 2.055 . S
Co765 O776 2.039 . S
Co765 N779 2.140 . S
C766 O767 1.227 . S
C766 O776 1.265 . S
O767 C766 1.227 . S
N768 Co765 2.121 . S
N768 C770 1.375 . S
N768 C771 1.313 . S
C769 C770 1.338 . S
C769 N772 1.377 . S
C769 H789 0.930 . S
C770 N768 1.375 . S
C770 C769 1.338 . S
C770 H774 0.931 . S
C771 N768 1.313 . S
C771 N772 1.344 . S
C771 H775 0.930 . S
N772 C769 1.377 . S
N772 C771 1.344 . S
O773 Co765 2.055 . S
O773 C777 1.253 . S
H774 C770 0.931 . S
H775 C771 0.930 . S
O776 Co765 2.039 . S
O776 C766 1.265 . S
C777 O773 1.253 . S
C777 O778 1.227 . S
O778 C777 1.227 . S
N779 Co765 2.140 . S
N779 C782 1.346 . S
N779 C783 1.345 . S
C780 C781 1.387 . S
C780 C784 1.391 . S
C781 C780 1.387 . S
C781 C782 1.369 . S
C781 H790 0.929 . S
C782 N779 1.346 . S
C782 C781 1.369 . S
C782 H785 0.928 . S
C783 N779 1.345 . S
C783 C784 1.371 . S
C783 H786 0.931 . S
C784 C780 1.391 . S
C784 C783 1.371 . S
C784 H791 0.930 . S
H785 C782 0.928 . S
H786 C783 0.931 . S
H787 C763 0.930 . S
H788 C760 0.930 . S
H789 C769 0.930 . S
H790 C781 0.929 . S
H791 C784 0.930 . S
C792 C793 1.351 . S
C792 N795 1.368 . S
C792 H797 0.931 . S
C793 C792 1.351 . S
C793 N794 1.373 . S
C793 H821 0.930 . S
N794 C793 1.373 . S
N794 C796 1.340 . S
N795 C792 1.368 . S
N795 C796 1.321 . S
N795 Co798 2.135 . S
C796 N794 1.340 . S
C796 N795 1.321 . S
C796 H820 0.930 . S
H797 C792 0.931 . S
Co798 N795 2.135 . S
Co798 N801 2.121 . S
Co798 O806 2.055 . S
Co798 O809 2.039 . S
Co798 N812 2.140 . S
C799 O800 1.227 . S
C799 O809 1.265 . S
O800 C799 1.227 . S
N801 Co798 2.121 . S
N801 C803 1.375 . S
N801 C804 1.313 . S
C802 C803 1.338 . S
C802 N805 1.377 . S
C802 H822 0.930 . S
C803 N801 1.375 . S
C803 C802 1.338 . S
C803 H807 0.931 . S
C804 N801 1.313 . S
C804 N805 1.344 . S
C804 H808 0.930 . S
N805 C802 1.377 . S
N805 C804 1.344 . S
O806 Co798 2.055 . S
O806 C810 1.253 . S
H807 C803 0.931 . S
H808 C804 0.930 . S
O809 Co798 2.039 . S
O809 C799 1.265 . S
C810 O806 1.253 . S
C810 O811 1.227 . S
O811 C810 1.227 . S
N812 Co798 2.140 . S
N812 C815 1.346 . S
N812 C816 1.345 . S
C813 C814 1.387 . S
C813 C817 1.391 . S
C814 C813 1.387 . S
C814 C815 1.369 . S
C814 H823 0.929 . S
C815 N812 1.346 . S
C815 C814 1.369 . S
C815 H818 0.928 . S
C816 N812 1.345 . S
C816 C817 1.371 . S
C816 H819 0.931 . S
C817 C813 1.391 . S
C817 C816 1.371 . S
C817 H824 0.930 . S
H818 C815 0.928 . S
H819 C816 0.931 . S
H820 C796 0.930 . S
H821 C793 0.930 . S
H822 C802 0.930 . S
H823 C814 0.929 . S
H824 C817 0.930 . S
C825 C826 1.351 . S
C825 N828 1.368 . S
C825 H830 0.931 . S
C826 C825 1.351 . S
C826 N827 1.373 . S
C826 H854 0.930 . S
N827 C826 1.373 . S
N827 C829 1.340 . S
N828 C825 1.368 . S
N828 C829 1.321 . S
N828 Co831 2.135 . S
C829 N827 1.340 . S
C829 N828 1.321 . S
C829 H853 0.930 . S
H830 C825 0.931 . S
Co831 N828 2.135 . S
Co831 N834 2.121 1_556 S
Co831 O839 2.055 . S
Co831 O842 2.039 . S
Co831 N845 2.140 . S
C832 O833 1.227 . S
C832 O842 1.265 . S
O833 C832 1.227 . S
N834 Co831 2.121 1_554 S
N834 C836 1.375 . S
N834 C837 1.313 . S
C835 C836 1.338 . S
C835 N838 1.377 . S
C835 H855 0.930 . S
C836 N834 1.375 . S
C836 C835 1.338 . S
C836 H840 0.931 . S
C837 N834 1.313 . S
C837 N838 1.344 . S
C837 H841 0.930 . S
N838 C835 1.377 . S
N838 C837 1.344 . S
O839 Co831 2.055 . S
O839 C843 1.253 . S
H840 C836 0.931 . S
H841 C837 0.930 . S
O842 Co831 2.039 . S
O842 C832 1.265 . S
C843 O839 1.253 . S
C843 O844 1.227 . S
O844 C843 1.227 . S
N845 Co831 2.140 . S
N845 C848 1.346 . S
N845 C849 1.345 . S
C846 C847 1.387 . S
C846 C850 1.391 . S
C847 C846 1.387 . S
C847 C848 1.369 . S
C847 H856 0.929 . S
C848 N845 1.346 . S
C848 C847 1.369 . S
C848 H851 0.928 . S
C849 N845 1.345 . S
C849 C850 1.371 . S
C849 H852 0.931 . S
C850 C846 1.391 . S
C850 C849 1.371 . S
C850 H857 0.930 . S
H851 C848 0.928 . S
H852 C849 0.931 . S
H853 C829 0.930 . S
H854 C826 0.930 . S
H855 C835 0.930 . S
H856 C847 0.929 . S
H857 C850 0.930 . S
C858 C859 1.351 . S
C858 N861 1.368 . S
C858 H863 0.931 . S
C859 C858 1.351 . S
C859 N860 1.373 . S
C859 H887 0.930 . S
N860 C859 1.373 . S
N860 C862 1.340 . S
N861 C858 1.368 . S
N861 C862 1.321 . S
N861 Co864 2.135 . S
C862 N860 1.340 . S
C862 N861 1.321 . S
C862 H886 0.930 . S
H863 C858 0.931 . S
Co864 N861 2.135 . S
Co864 N867 2.121 . S
Co864 O872 2.055 . S
Co864 O875 2.039 . S
Co864 N878 2.140 . S
C865 O866 1.227 . S
C865 O875 1.265 . S
O866 C865 1.227 . S
N867 Co864 2.121 . S
N867 C869 1.375 . S
N867 C870 1.313 . S
C868 C869 1.338 . S
C868 N871 1.377 . S
C868 H888 0.930 . S
C869 N867 1.375 . S
C869 C868 1.338 . S
C869 H873 0.931 . S
C870 N867 1.313 . S
C870 N871 1.344 . S
C870 H874 0.930 . S
N871 C868 1.377 . S
N871 C870 1.344 . S
O872 Co864 2.055 . S
O872 C876 1.253 . S
H873 C869 0.931 . S
H874 C870 0.930 . S
O875 Co864 2.039 . S
O875 C865 1.265 . S
C876 O872 1.253 . S
C876 O877 1.227 . S
O877 C876 1.227 . S
N878 Co864 2.140 . S
N878 C881 1.346 . S
N878 C882 1.345 . S
C879 C880 1.387 . S
C879 C883 1.391 . S
C880 C879 1.387 . S
C880 C881 1.369 . S
C880 H889 0.929 . S
C881 N878 1.346 . S
C881 C880 1.369 . S
C881 H884 0.928 . S
C882 N878 1.345 . S
C882 C883 1.371 . S
C882 H885 0.931 . S
C883 C879 1.391 . S
C883 C882 1.371 . S
C883 H890 0.930 . S
H884 C881 0.928 . S
H885 C882 0.931 . S
H886 C862 0.930 . S
H887 C859 0.930 . S
H888 C868 0.930 . S
H889 C880 0.929 . S
H890 C883 0.930 . S
C891 C892 1.351 . S
C891 N894 1.368 . S
C891 H896 0.931 . S
C892 C891 1.351 . S
C892 N893 1.373 . S
C892 H920 0.930 . S
N893 C892 1.373 . S
N893 C895 1.340 . S
N894 C891 1.368 . S
N894 C895 1.321 . S
N894 Co897 2.135 . S
C895 N893 1.340 . S
C895 N894 1.321 . S
C895 H919 0.930 . S
H896 C891 0.931 . S
Co897 N894 2.135 . S
Co897 N900 2.121 . S
Co897 O905 2.055 . S
Co897 O908 2.039 . S
Co897 N911 2.140 . S
C898 O899 1.227 . S
C898 O908 1.265 . S
O899 C898 1.227 . S
N900 Co897 2.121 . S
N900 C902 1.375 . S
N900 C903 1.313 . S
C901 C902 1.338 . S
C901 N904 1.377 . S
C901 H921 0.930 . S
C902 N900 1.375 . S
C902 C901 1.338 . S
C902 H906 0.931 . S
C903 N900 1.313 . S
C903 N904 1.344 . S
C903 H907 0.930 . S
N904 C901 1.377 . S
N904 C903 1.344 . S
O905 Co897 2.055 . S
O905 C909 1.253 . S
H906 C902 0.931 . S
H907 C903 0.930 . S
O908 Co897 2.039 . S
O908 C898 1.265 . S
C909 O905 1.253 . S
C909 O910 1.227 . S
O910 C909 1.227 . S
N911 Co897 2.140 . S
N911 C914 1.346 . S
N911 C915 1.345 . S
C912 C913 1.387 . S
C912 C916 1.391 . S
C913 C912 1.387 . S
C913 C914 1.369 . S
C913 H922 0.929 . S
C914 N911 1.346 . S
C914 C913 1.369 . S
C914 H917 0.928 . S
C915 N911 1.345 . S
C915 C916 1.371 . S
C915 H918 0.931 . S
C916 C912 1.391 . S
C916 C915 1.371 . S
C916 H923 0.930 . S
H917 C914 0.928 . S
H918 C915 0.931 . S
H919 C895 0.930 . S
H920 C892 0.930 . S
H921 C901 0.930 . S
H922 C913 0.929 . S
H923 C916 0.930 . S
C924 C925 1.351 . S
C924 N927 1.368 . S
C924 H929 0.931 . S
C925 C924 1.351 . S
C925 N926 1.373 . S
C925 H953 0.930 . S
N926 C925 1.373 . S
N926 C928 1.340 . S
N927 C924 1.368 . S
N927 C928 1.321 . S
N927 Co930 2.135 . S
C928 N926 1.340 . S
C928 N927 1.321 . S
C928 H952 0.930 . S
H929 C924 0.931 . S
Co930 N927 2.135 . S
Co930 N933 2.121 . S
Co930 O938 2.055 . S
Co930 O941 2.039 . S
Co930 N944 2.140 . S
C931 O932 1.227 . S
C931 O941 1.265 . S
O932 C931 1.227 . S
N933 Co930 2.121 . S
N933 C935 1.375 . S
N933 C936 1.313 . S
C934 C935 1.338 . S
C934 N937 1.377 . S
C934 H954 0.930 . S
C935 N933 1.375 . S
C935 C934 1.338 . S
C935 H939 0.931 . S
C936 N933 1.313 . S
C936 N937 1.344 . S
C936 H940 0.930 . S
N937 C934 1.377 . S
N937 C936 1.344 . S
O938 Co930 2.055 . S
O938 C942 1.253 . S
H939 C935 0.931 . S
H940 C936 0.930 . S
O941 Co930 2.039 . S
O941 C931 1.265 . S
C942 O938 1.253 . S
C942 O943 1.227 . S
O943 C942 1.227 . S
N944 Co930 2.140 . S
N944 C947 1.346 . S
N944 C948 1.345 . S
C945 C946 1.387 . S
C945 C949 1.391 . S
C946 C945 1.387 . S
C946 C947 1.369 . S
C946 H955 0.929 . S
C947 N944 1.346 . S
C947 C946 1.369 . S
C947 H950 0.928 . S
C948 N944 1.345 . S
C948 C949 1.371 . S
C948 H951 0.931 . S
C949 C945 1.391 . S
C949 C948 1.371 . S
C949 H956 0.930 . S
H950 C947 0.928 . S
H951 C948 0.931 . S
H952 C928 0.930 . S
H953 C925 0.930 . S
H954 C934 0.930 . S
H955 C946 0.929 . S
H956 C949 0.930 . S
C957 C958 1.351 . S
C957 N960 1.368 . S
C957 H962 0.931 . S
C958 C957 1.351 . S
C958 N959 1.373 . S
C958 H986 0.930 . S
N959 C958 1.373 . S
N959 C961 1.340 . S
N960 C957 1.368 . S
N960 C961 1.321 . S
N960 Co963 2.135 . S
C961 N959 1.340 . S
C961 N960 1.321 . S
C961 H985 0.930 . S
H962 C957 0.931 . S
Co963 N960 2.135 . S
Co963 N966 2.121 1_554 S
Co963 O971 2.055 . S
Co963 O974 2.039 . S
Co963 N977 2.140 . S
C964 O965 1.227 . S
C964 O974 1.265 . S
O965 C964 1.227 . S
N966 Co963 2.121 1_556 S
N966 C968 1.375 . S
N966 C969 1.313 . S
C967 C968 1.338 . S
C967 N970 1.377 . S
C967 H987 0.930 . S
C968 N966 1.375 . S
C968 C967 1.338 . S
C968 H972 0.931 . S
C969 N966 1.313 . S
C969 N970 1.344 . S
C969 H973 0.930 . S
N970 C967 1.377 . S
N970 C969 1.344 . S
O971 Co963 2.055 . S
O971 C975 1.253 . S
H972 C968 0.931 . S
H973 C969 0.930 . S
O974 Co963 2.039 . S
O974 C964 1.265 . S
C975 O971 1.253 . S
C975 O976 1.227 . S
O976 C975 1.227 . S
N977 Co963 2.140 . S
N977 C980 1.346 . S
N977 C981 1.345 . S
C978 C979 1.387 . S
C978 C982 1.391 . S
C979 C978 1.387 . S
C979 C980 1.369 . S
C979 H988 0.929 . S
C980 N977 1.346 . S
C980 C979 1.369 . S
C980 H983 0.928 . S
C981 N977 1.345 . S
C981 C982 1.371 . S
C981 H984 0.931 . S
C982 C978 1.391 . S
C982 C981 1.371 . S
C982 H989 0.930 . S
H983 C980 0.928 . S
H984 C981 0.931 . S
H985 C961 0.930 . S
H986 C958 0.930 . S
H987 C967 0.930 . S
H988 C979 0.929 . S
H989 C982 0.930 . S
C990 C991 1.351 . S
C990 N993 1.368 . S
C990 H995 0.931 . S
C991 C990 1.351 . S
C991 N992 1.373 . S
C991 H1019 0.930 . S
N992 C991 1.373 . S
N992 C994 1.340 . S
N993 C990 1.368 . S
N993 C994 1.321 . S
N993 Co996 2.135 . S
C994 N992 1.340 . S
C994 N993 1.321 . S
C994 H1018 0.930 . S
H995 C990 0.931 . S
Co996 N993 2.135 . S
Co996 N999 2.121 . S
Co996 O1004 2.055 . S
Co996 O1007 2.039 . S
Co996 N1010 2.140 . S
C997 O998 1.227 . S
C997 O1007 1.265 . S
O998 C997 1.227 . S
N999 Co996 2.121 . S
N999 C1001 1.375 . S
N999 C1002 1.313 . S
C1000 C1001 1.338 . S
C1000 N1003 1.377 . S
C1000 H1020 0.930 . S
C1001 N999 1.375 . S
C1001 C1000 1.338 . S
C1001 H1005 0.931 . S
C1002 N999 1.313 . S
C1002 N1003 1.344 . S
C1002 H1006 0.930 . S
N1003 C1000 1.377 . S
N1003 C1002 1.344 . S
O1004 Co996 2.055 . S
O1004 C1008 1.253 . S
H1005 C1001 0.931 . S
H1006 C1002 0.930 . S
O1007 Co996 2.039 . S
O1007 C997 1.265 . S
C1008 O1004 1.253 . S
C1008 O1009 1.227 . S
O1009 C1008 1.227 . S
N1010 Co996 2.140 . S
N1010 C1013 1.346 . S
N1010 C1014 1.345 . S
C1011 C1012 1.387 . S
C1011 C1015 1.391 . S
C1012 C1011 1.387 . S
C1012 C1013 1.369 . S
C1012 H1021 0.929 . S
C1013 N1010 1.346 . S
C1013 C1012 1.369 . S
C1013 H1016 0.928 . S
C1014 N1010 1.345 . S
C1014 C1015 1.371 . S
C1014 H1017 0.931 . S
C1015 C1011 1.391 . S
C1015 C1014 1.371 . S
C1015 H1022 0.930 . S
H1016 C1013 0.928 . S
H1017 C1014 0.931 . S
H1018 C994 0.930 . S
H1019 C991 0.930 . S
H1020 C1000 0.930 . S
H1021 C1012 0.929 . S
H1022 C1015 0.930 . S
C1023 C1024 1.351 . S
C1023 N1026 1.368 . S
C1023 H1028 0.931 . S
C1024 C1023 1.351 . S
C1024 N1025 1.373 . S
C1024 H1052 0.930 . S
N1025 C1024 1.373 . S
N1025 C1027 1.340 . S
N1026 C1023 1.368 . S
N1026 C1027 1.321 . S
N1026 Co1029 2.135 . S
C1027 N1025 1.340 . S
C1027 N1026 1.321 . S
C1027 H1051 0.930 . S
H1028 C1023 0.931 . S
Co1029 N1026 2.135 . S
Co1029 N1032 2.121 . S
Co1029 O1037 2.055 . S
Co1029 O1040 2.039 . S
Co1029 N1043 2.140 . S
C1030 O1031 1.227 . S
C1030 O1040 1.265 . S
O1031 C1030 1.227 . S
N1032 Co1029 2.121 . S
N1032 C1034 1.375 . S
N1032 C1035 1.313 . S
C1033 C1034 1.338 . S
C1033 N1036 1.377 . S
C1033 H1053 0.930 . S
C1034 N1032 1.375 . S
C1034 C1033 1.338 . S
C1034 H1038 0.931 . S
C1035 N1032 1.313 . S
C1035 N1036 1.344 . S
C1035 H1039 0.930 . S
N1036 C1033 1.377 . S
N1036 C1035 1.344 . S
O1037 Co1029 2.055 . S
O1037 C1041 1.253 . S
H1038 C1034 0.931 . S
H1039 C1035 0.930 . S
O1040 Co1029 2.039 . S
O1040 C1030 1.265 . S
C1041 O1037 1.253 . S
C1041 O1042 1.227 . S
O1042 C1041 1.227 . S
N1043 Co1029 2.140 . S
N1043 C1046 1.346 . S
N1043 C1047 1.345 . S
C1044 C1045 1.387 . S
C1044 C1048 1.391 . S
C1045 C1044 1.387 . S
C1045 C1046 1.369 . S
C1045 H1054 0.929 . S
C1046 N1043 1.346 . S
C1046 C1045 1.369 . S
C1046 H1049 0.928 . S
C1047 N1043 1.345 . S
C1047 C1048 1.371 . S
C1047 H1050 0.931 . S
C1048 C1044 1.391 . S
C1048 C1047 1.371 . S
C1048 H1055 0.930 . S
H1049 C1046 0.928 . S
H1050 C1047 0.931 . S
H1051 C1027 0.930 . S
H1052 C1024 0.930 . S
H1053 C1033 0.930 . S
H1054 C1045 0.929 . S
H1055 C1048 0.930 . S
C1056 C1057 1.391 . S
C1056 C1058 1.394 . S
C1056 H1072 0.931 . S
C1057 C1056 1.391 . S
C1057 C1061 1.376 . S
C1058 C1056 1.394 . S
C1058 C1059 1.369 . S
C1058 C1062 1.531 . S
C1059 C1058 1.369 . S
C1059 C1060 1.410 . S
C1059 C1067 1.503 . S
C1060 C1059 1.410 . S
C1060 C1061 1.392 . S
C1060 C1063 1.511 . S
C1061 C1057 1.376 . S
C1061 C1060 1.392 . S
C1061 H1073 0.929 . S
C1062 C1058 1.531 . S
C1062 H1074 0.960 . S
C1062 H1075 0.962 . S
C1062 H1076 0.960 . S
C1063 C1060 1.511 . S
C1063 H1077 0.961 . S
C1063 H1078 0.961 . S
C1063 H1079 0.961 . S
C1064 C1065 1.370 . S
C1064 C1066 1.363 . S
C1064 H1080 0.931 . S
C1065 C1064 1.370 . S
C1065 C1069 1.408 . S
C1066 C1064 1.363 . S
C1066 C1067 1.370 . S
C1066 C1070 1.524 . S
C1067 C1059 1.503 . S
C1067 C1066 1.370 . S
C1067 C1068 1.403 . S
C1068 C1067 1.403 . S
C1068 C1069 1.404 . S
C1068 C1071 1.539 . S
C1069 C1065 1.408 . S
C1069 C1068 1.404 . S
C1069 H1081 0.930 . S
C1070 C1066 1.524 . S
C1070 H1082 0.956 . S
C1070 H1083 0.961 . S
C1070 H1084 0.961 . S
C1071 C1068 1.539 . S
C1071 H1085 0.958 . S
C1071 H1086 0.961 . S
C1071 H1087 0.960 . S
H1072 C1056 0.931 . S
H1073 C1061 0.929 . S
H1074 C1062 0.960 . S
H1075 C1062 0.962 . S
H1076 C1062 0.960 . S
H1077 C1063 0.961 . S
H1078 C1063 0.961 . S
H1079 C1063 0.961 . S
H1080 C1064 0.931 . S
H1081 C1069 0.930 . S
H1082 C1070 0.956 . S
H1083 C1070 0.961 . S
H1084 C1070 0.961 . S
H1085 C1071 0.958 . S
H1086 C1071 0.961 . S
H1087 C1071 0.960 . S
C1088 C1089 1.391 . S
C1088 C1090 1.394 . S
C1088 H1104 0.931 . S
C1089 C1088 1.391 . S
C1089 C1093 1.376 . S
C1090 C1088 1.394 . S
C1090 C1091 1.369 . S
C1090 C1094 1.531 . S
C1091 C1090 1.369 . S
C1091 C1092 1.410 . S
C1091 C1099 1.503 . S
C1092 C1091 1.410 . S
C1092 C1093 1.392 . S
C1092 C1095 1.511 . S
C1093 C1089 1.376 . S
C1093 C1092 1.392 . S
C1093 H1105 0.929 . S
C1094 C1090 1.531 . S
C1094 H1106 0.960 . S
C1094 H1107 0.962 . S
C1094 H1108 0.960 . S
C1095 C1092 1.511 . S
C1095 H1109 0.961 . S
C1095 H1110 0.961 . S
C1095 H1111 0.961 . S
C1096 C1097 1.370 . S
C1096 C1098 1.363 . S
C1096 H1112 0.931 . S
C1097 C1096 1.370 . S
C1097 C1101 1.408 . S
C1098 C1096 1.363 . S
C1098 C1099 1.370 . S
C1098 C1102 1.524 . S
C1099 C1091 1.503 . S
C1099 C1098 1.370 . S
C1099 C1100 1.403 . S
C1100 C1099 1.403 . S
C1100 C1101 1.404 . S
C1100 C1103 1.539 . S
C1101 C1097 1.408 . S
C1101 C1100 1.404 . S
C1101 H1113 0.930 . S
C1102 C1098 1.524 . S
C1102 H1114 0.956 . S
C1102 H1115 0.961 . S
C1102 H1116 0.961 . S
C1103 C1100 1.539 . S
C1103 H1117 0.958 . S
C1103 H1118 0.961 . S
C1103 H1119 0.960 . S
H1104 C1088 0.931 . S
H1105 C1093 0.929 . S
H1106 C1094 0.960 . S
H1107 C1094 0.962 . S
H1108 C1094 0.960 . S
H1109 C1095 0.961 . S
H1110 C1095 0.961 . S
H1111 C1095 0.961 . S
H1112 C1096 0.931 . S
H1113 C1101 0.930 . S
H1114 C1102 0.956 . S
H1115 C1102 0.961 . S
H1116 C1102 0.961 . S
H1117 C1103 0.958 . S
H1118 C1103 0.961 . S
H1119 C1103 0.960 . S
C1120 C1121 1.391 . S
C1120 C1122 1.394 . S
C1120 H1136 0.931 . S
C1121 C1120 1.391 . S
C1121 C1125 1.376 . S
C1122 C1120 1.394 . S
C1122 C1123 1.369 . S
C1122 C1126 1.531 . S
C1123 C1122 1.369 . S
C1123 C1124 1.410 . S
C1123 C1131 1.503 . S
C1124 C1123 1.410 . S
C1124 C1125 1.392 . S
C1124 C1127 1.511 . S
C1125 C1121 1.376 . S
C1125 C1124 1.392 . S
C1125 H1137 0.929 . S
C1126 C1122 1.531 . S
C1126 H1138 0.960 . S
C1126 H1139 0.962 . S
C1126 H1140 0.960 . S
C1127 C1124 1.511 . S
C1127 H1141 0.961 . S
C1127 H1142 0.961 . S
C1127 H1143 0.961 . S
C1128 C1129 1.370 . S
C1128 C1130 1.363 . S
C1128 H1144 0.931 . S
C1129 C1128 1.370 . S
C1129 C1133 1.408 . S
C1130 C1128 1.363 . S
C1130 C1131 1.370 . S
C1130 C1134 1.524 . S
C1131 C1123 1.503 . S
C1131 C1130 1.370 . S
C1131 C1132 1.403 . S
C1132 C1131 1.403 . S
C1132 C1133 1.404 . S
C1132 C1135 1.539 . S
C1133 C1129 1.408 . S
C1133 C1132 1.404 . S
C1133 H1145 0.930 . S
C1134 C1130 1.524 . S
C1134 H1146 0.956 . S
C1134 H1147 0.961 . S
C1134 H1148 0.961 . S
C1135 C1132 1.539 . S
C1135 H1149 0.958 . S
C1135 H1150 0.961 . S
C1135 H1151 0.960 . S
H1136 C1120 0.931 . S
H1137 C1125 0.929 . S
H1138 C1126 0.960 . S
H1139 C1126 0.962 . S
H1140 C1126 0.960 . S
H1141 C1127 0.961 . S
H1142 C1127 0.961 . S
H1143 C1127 0.961 . S
H1144 C1128 0.931 . S
H1145 C1133 0.930 . S
H1146 C1134 0.956 . S
H1147 C1134 0.961 . S
H1148 C1134 0.961 . S
H1149 C1135 0.958 . S
H1150 C1135 0.961 . S
H1151 C1135 0.960 . S
C1152 C1153 1.391 . S
C1152 C1154 1.394 . S
C1152 H1168 0.931 . S
C1153 C1152 1.391 . S
C1153 C1157 1.376 . S
C1154 C1152 1.394 . S
C1154 C1155 1.369 . S
C1154 C1158 1.531 . S
C1155 C1154 1.369 . S
C1155 C1156 1.410 . S
C1155 C1163 1.503 . S
C1156 C1155 1.410 . S
C1156 C1157 1.392 . S
C1156 C1159 1.511 . S
C1157 C1153 1.376 . S
C1157 C1156 1.392 . S
C1157 H1169 0.929 . S
C1158 C1154 1.531 . S
C1158 H1170 0.960 . S
C1158 H1171 0.962 . S
C1158 H1172 0.960 . S
C1159 C1156 1.511 . S
C1159 H1173 0.961 . S
C1159 H1174 0.961 . S
C1159 H1175 0.961 . S
C1160 C1161 1.370 . S
C1160 C1162 1.363 . S
C1160 H1176 0.931 . S
C1161 C1160 1.370 . S
C1161 C1165 1.408 . S
C1162 C1160 1.363 . S
C1162 C1163 1.370 . S
C1162 C1166 1.524 . S
C1163 C1155 1.503 . S
C1163 C1162 1.370 . S
C1163 C1164 1.403 . S
C1164 C1163 1.403 . S
C1164 C1165 1.404 . S
C1164 C1167 1.539 . S
C1165 C1161 1.408 . S
C1165 C1164 1.404 . S
C1165 H1177 0.930 . S
C1166 C1162 1.524 . S
C1166 H1178 0.956 . S
C1166 H1179 0.961 . S
C1166 H1180 0.961 . S
C1167 C1164 1.539 . S
C1167 H1181 0.958 . S
C1167 H1182 0.961 . S
C1167 H1183 0.960 . S
H1168 C1152 0.931 . S
H1169 C1157 0.929 . S
H1170 C1158 0.960 . S
H1171 C1158 0.962 . S
H1172 C1158 0.960 . S
H1173 C1159 0.961 . S
H1174 C1159 0.961 . S
H1175 C1159 0.961 . S
H1176 C1160 0.931 . S
H1177 C1165 0.930 . S
H1178 C1166 0.956 . S
H1179 C1166 0.961 . S
H1180 C1166 0.961 . S
H1181 C1167 0.958 . S
H1182 C1167 0.961 . S
H1183 C1167 0.960 . S
C1184 C1185 1.391 . S
C1184 C1186 1.394 . S
C1184 H1200 0.931 . S
C1185 C1184 1.391 . S
C1185 C1189 1.376 . S
C1186 C1184 1.394 . S
C1186 C1187 1.369 . S
C1186 C1190 1.531 . S
C1187 C1186 1.369 . S
C1187 C1188 1.410 . S
C1187 C1195 1.503 . S
C1188 C1187 1.410 . S
C1188 C1189 1.392 . S
C1188 C1191 1.511 . S
C1189 C1185 1.376 . S
C1189 C1188 1.392 . S
C1189 H1201 0.929 . S
C1190 C1186 1.531 . S
C1190 H1202 0.960 . S
C1190 H1203 0.962 . S
C1190 H1204 0.960 . S
C1191 C1188 1.511 . S
C1191 H1205 0.961 . S
C1191 H1206 0.961 . S
C1191 H1207 0.961 . S
C1192 C1193 1.370 . S
C1192 C1194 1.363 . S
C1192 H1208 0.931 . S
C1193 C1192 1.370 . S
C1193 C1197 1.408 . S
C1194 C1192 1.363 . S
C1194 C1195 1.370 . S
C1194 C1198 1.524 . S
C1195 C1187 1.503 . S
C1195 C1194 1.370 . S
C1195 C1196 1.403 . S
C1196 C1195 1.403 . S
C1196 C1197 1.404 . S
C1196 C1199 1.539 . S
C1197 C1193 1.408 . S
C1197 C1196 1.404 . S
C1197 H1209 0.930 . S
C1198 C1194 1.524 . S
C1198 H1210 0.956 . S
C1198 H1211 0.961 . S
C1198 H1212 0.961 . S
C1199 C1196 1.539 . S
C1199 H1213 0.958 . S
C1199 H1214 0.961 . S
C1199 H1215 0.960 . S
H1200 C1184 0.931 . S
H1201 C1189 0.929 . S
H1202 C1190 0.960 . S
H1203 C1190 0.962 . S
H1204 C1190 0.960 . S
H1205 C1191 0.961 . S
H1206 C1191 0.961 . S
H1207 C1191 0.961 . S
H1208 C1192 0.931 . S
H1209 C1197 0.930 . S
H1210 C1198 0.956 . S
H1211 C1198 0.961 . S
H1212 C1198 0.961 . S
H1213 C1199 0.958 . S
H1214 C1199 0.961 . S
H1215 C1199 0.960 . S
C1216 C1217 1.391 . S
C1216 C1218 1.394 . S
C1216 H1232 0.931 . S
C1217 C1216 1.391 . S
C1217 C1221 1.376 . S
C1218 C1216 1.394 . S
C1218 C1219 1.369 . S
C1218 C1222 1.531 . S
C1219 C1218 1.369 . S
C1219 C1220 1.410 . S
C1219 C1227 1.503 . S
C1220 C1219 1.410 . S
C1220 C1221 1.392 . S
C1220 C1223 1.511 . S
C1221 C1217 1.376 . S
C1221 C1220 1.392 . S
C1221 H1233 0.929 . S
C1222 C1218 1.531 . S
C1222 H1234 0.960 . S
C1222 H1235 0.962 . S
C1222 H1236 0.960 . S
C1223 C1220 1.511 . S
C1223 H1237 0.961 . S
C1223 H1238 0.961 . S
C1223 H1239 0.961 . S
C1224 C1225 1.370 . S
C1224 C1226 1.363 . S
C1224 H1240 0.931 . S
C1225 C1224 1.370 . S
C1225 C1229 1.408 . S
C1226 C1224 1.363 . S
C1226 C1227 1.370 . S
C1226 C1230 1.524 . S
C1227 C1219 1.503 . S
C1227 C1226 1.370 . S
C1227 C1228 1.403 . S
C1228 C1227 1.403 . S
C1228 C1229 1.404 . S
C1228 C1231 1.539 . S
C1229 C1225 1.408 . S
C1229 C1228 1.404 . S
C1229 H1241 0.930 . S
C1230 C1226 1.524 . S
C1230 H1242 0.956 . S
C1230 H1243 0.961 . S
C1230 H1244 0.961 . S
C1231 C1228 1.539 . S
C1231 H1245 0.958 . S
C1231 H1246 0.961 . S
C1231 H1247 0.960 . S
H1232 C1216 0.931 . S
H1233 C1221 0.929 . S
H1234 C1222 0.960 . S
H1235 C1222 0.962 . S
H1236 C1222 0.960 . S
H1237 C1223 0.961 . S
H1238 C1223 0.961 . S
H1239 C1223 0.961 . S
H1240 C1224 0.931 . S
H1241 C1229 0.930 . S
H1242 C1230 0.956 . S
H1243 C1230 0.961 . S
H1244 C1230 0.961 . S
H1245 C1231 0.958 . S
H1246 C1231 0.961 . S
H1247 C1231 0.960 . S
C1248 C1249 1.391 . S
C1248 C1250 1.394 . S
C1248 H1264 0.931 . S
C1249 C1248 1.391 . S
C1249 C1253 1.376 . S
C1250 C1248 1.394 . S
C1250 C1251 1.369 . S
C1250 C1254 1.531 . S
C1251 C1250 1.369 . S
C1251 C1252 1.410 . S
C1251 C1259 1.503 . S
C1252 C1251 1.410 . S
C1252 C1253 1.392 . S
C1252 C1255 1.511 . S
C1253 C1249 1.376 . S
C1253 C1252 1.392 . S
C1253 H1265 0.929 . S
C1254 C1250 1.531 . S
C1254 H1266 0.960 . S
C1254 H1267 0.962 . S
C1254 H1268 0.960 . S
C1255 C1252 1.511 . S
C1255 H1269 0.961 . S
C1255 H1270 0.961 . S
C1255 H1271 0.961 . S
C1256 C1257 1.370 . S
C1256 C1258 1.363 . S
C1256 H1272 0.931 . S
C1257 C1256 1.370 . S
C1257 C1261 1.408 . S
C1258 C1256 1.363 . S
C1258 C1259 1.370 . S
C1258 C1262 1.524 . S
C1259 C1251 1.503 . S
C1259 C1258 1.370 . S
C1259 C1260 1.403 . S
C1260 C1259 1.403 . S
C1260 C1261 1.404 . S
C1260 C1263 1.539 . S
C1261 C1257 1.408 . S
C1261 C1260 1.404 . S
C1261 H1273 0.930 . S
C1262 C1258 1.524 . S
C1262 H1274 0.956 . S
C1262 H1275 0.961 . S
C1262 H1276 0.961 . S
C1263 C1260 1.539 . S
C1263 H1277 0.958 . S
C1263 H1278 0.961 . S
C1263 H1279 0.960 . S
H1264 C1248 0.931 . S
H1265 C1253 0.929 . S
H1266 C1254 0.960 . S
H1267 C1254 0.962 . S
H1268 C1254 0.960 . S
H1269 C1255 0.961 . S
H1270 C1255 0.961 . S
H1271 C1255 0.961 . S
H1272 C1256 0.931 . S
H1273 C1261 0.930 . S
H1274 C1262 0.956 . S
H1275 C1262 0.961 . S
H1276 C1262 0.961 . S
H1277 C1263 0.958 . S
H1278 C1263 0.961 . S
H1279 C1263 0.960 . S
C1280 C1281 1.391 . S
C1280 C1282 1.394 . S
C1280 H1296 0.931 . S
C1281 C1280 1.391 . S
C1281 C1285 1.376 . S
C1282 C1280 1.394 . S
C1282 C1283 1.369 . S
C1282 C1286 1.531 . S
C1283 C1282 1.369 . S
C1283 C1284 1.410 . S
C1283 C1291 1.503 . S
C1284 C1283 1.410 . S
C1284 C1285 1.392 . S
C1284 C1287 1.511 . S
C1285 C1281 1.376 . S
C1285 C1284 1.392 . S
C1285 H1297 0.929 . S
C1286 C1282 1.531 . S
C1286 H1298 0.960 . S
C1286 H1299 0.962 . S
C1286 H1300 0.960 . S
C1287 C1284 1.511 . S
C1287 H1301 0.961 . S
C1287 H1302 0.961 . S
C1287 H1303 0.961 . S
C1288 C1289 1.370 . S
C1288 C1290 1.363 . S
C1288 H1304 0.931 . S
C1289 C1288 1.370 . S
C1289 C1293 1.408 . S
C1290 C1288 1.363 . S
C1290 C1291 1.370 . S
C1290 C1294 1.524 . S
C1291 C1283 1.503 . S
C1291 C1290 1.370 . S
C1291 C1292 1.403 . S
C1292 C1291 1.403 . S
C1292 C1293 1.404 . S
C1292 C1295 1.539 . S
C1293 C1289 1.408 . S
C1293 C1292 1.404 . S
C1293 H1305 0.930 . S
C1294 C1290 1.524 . S
C1294 H1306 0.956 . S
C1294 H1307 0.961 . S
C1294 H1308 0.961 . S
C1295 C1292 1.539 . S
C1295 H1309 0.958 . S
C1295 H1310 0.961 . S
C1295 H1311 0.960 . S
H1296 C1280 0.931 . S
H1297 C1285 0.929 . S
H1298 C1286 0.960 . S
H1299 C1286 0.962 . S
H1300 C1286 0.960 . S
H1301 C1287 0.961 . S
H1302 C1287 0.961 . S
H1303 C1287 0.961 . S
H1304 C1288 0.931 . S
H1305 C1293 0.930 . S
H1306 C1294 0.956 . S
H1307 C1294 0.961 . S
H1308 C1294 0.961 . S
H1309 C1295 0.958 . S
H1310 C1295 0.961 . S
H1311 C1295 0.960 . S
C1312 C1313 1.391 . S
C1312 C1314 1.394 . S
C1312 H1328 0.931 . S
C1313 C1312 1.391 . S
C1313 C1317 1.376 . S
C1314 C1312 1.394 . S
C1314 C1315 1.369 . S
C1314 C1318 1.531 . S
C1315 C1314 1.369 . S
C1315 C1316 1.410 . S
C1315 C1323 1.503 . S
C1316 C1315 1.410 . S
C1316 C1317 1.392 . S
C1316 C1319 1.511 . S
C1317 C1313 1.376 . S
C1317 C1316 1.392 . S
C1317 H1329 0.929 . S
C1318 C1314 1.531 . S
C1318 H1330 0.960 . S
C1318 H1331 0.962 . S
C1318 H1332 0.960 . S
C1319 C1316 1.511 . S
C1319 H1333 0.961 . S
C1319 H1334 0.961 . S
C1319 H1335 0.961 . S
C1320 C1321 1.370 . S
C1320 C1322 1.363 . S
C1320 H1336 0.931 . S
C1321 C1320 1.370 . S
C1321 C1325 1.408 . S
C1322 C1320 1.363 . S
C1322 C1323 1.370 . S
C1322 C1326 1.524 . S
C1323 C1315 1.503 . S
C1323 C1322 1.370 . S
C1323 C1324 1.403 . S
C1324 C1323 1.403 . S
C1324 C1325 1.404 . S
C1324 C1327 1.539 . S
C1325 C1321 1.408 . S
C1325 C1324 1.404 . S
C1325 H1337 0.930 . S
C1326 C1322 1.524 . S
C1326 H1338 0.956 . S
C1326 H1339 0.961 . S
C1326 H1340 0.961 . S
C1327 C1324 1.539 . S
C1327 H1341 0.958 . S
C1327 H1342 0.961 . S
C1327 H1343 0.960 . S
H1328 C1312 0.931 . S
H1329 C1317 0.929 . S
H1330 C1318 0.960 . S
H1331 C1318 0.962 . S
H1332 C1318 0.960 . S
H1333 C1319 0.961 . S
H1334 C1319 0.961 . S
H1335 C1319 0.961 . S
H1336 C1320 0.931 . S
H1337 C1325 0.930 . S
H1338 C1326 0.956 . S
H1339 C1326 0.961 . S
H1340 C1326 0.961 . S
H1341 C1327 0.958 . S
H1342 C1327 0.961 . S
H1343 C1327 0.960 . S
C1344 C1345 1.391 . S
C1344 C1346 1.394 . S
C1344 H1360 0.931 . S
C1345 C1344 1.391 . S
C1345 C1349 1.376 . S
C1346 C1344 1.394 . S
C1346 C1347 1.369 . S
C1346 C1350 1.531 . S
C1347 C1346 1.369 . S
C1347 C1348 1.410 . S
C1347 C1355 1.503 . S
C1348 C1347 1.410 . S
C1348 C1349 1.392 . S
C1348 C1351 1.511 . S
C1349 C1345 1.376 . S
C1349 C1348 1.392 . S
C1349 H1361 0.929 . S
C1350 C1346 1.531 . S
C1350 H1362 0.960 . S
C1350 H1363 0.962 . S
C1350 H1364 0.960 . S
C1351 C1348 1.511 . S
C1351 H1365 0.961 . S
C1351 H1366 0.961 . S
C1351 H1367 0.961 . S
C1352 C1353 1.370 . S
C1352 C1354 1.363 . S
C1352 H1368 0.931 . S
C1353 C1352 1.370 . S
C1353 C1357 1.408 . S
C1354 C1352 1.363 . S
C1354 C1355 1.370 . S
C1354 C1358 1.524 . S
C1355 C1347 1.503 . S
C1355 C1354 1.370 . S
C1355 C1356 1.403 . S
C1356 C1355 1.403 . S
C1356 C1357 1.404 . S
C1356 C1359 1.539 . S
C1357 C1353 1.408 . S
C1357 C1356 1.404 . S
C1357 H1369 0.930 . S
C1358 C1354 1.524 . S
C1358 H1370 0.956 . S
C1358 H1371 0.961 . S
C1358 H1372 0.961 . S
C1359 C1356 1.539 . S
C1359 H1373 0.958 . S
C1359 H1374 0.961 . S
C1359 H1375 0.960 . S
H1360 C1344 0.931 . S
H1361 C1349 0.929 . S
H1362 C1350 0.960 . S
H1363 C1350 0.962 . S
H1364 C1350 0.960 . S
H1365 C1351 0.961 . S
H1366 C1351 0.961 . S
H1367 C1351 0.961 . S
H1368 C1352 0.931 . S
H1369 C1357 0.930 . S
H1370 C1358 0.956 . S
H1371 C1358 0.961 . S
H1372 C1358 0.961 . S
H1373 C1359 0.958 . S
H1374 C1359 0.961 . S
H1375 C1359 0.960 . S
C1376 C1377 1.391 . S
C1376 C1378 1.394 . S
C1376 H1392 0.931 . S
C1377 C1376 1.391 . S
C1377 C1381 1.376 . S
C1378 C1376 1.394 . S
C1378 C1379 1.369 . S
C1378 C1382 1.531 . S
C1379 C1378 1.369 . S
C1379 C1380 1.410 . S
C1379 C1387 1.503 . S
C1380 C1379 1.410 . S
C1380 C1381 1.392 . S
C1380 C1383 1.511 . S
C1381 C1377 1.376 . S
C1381 C1380 1.392 . S
C1381 H1393 0.929 . S
C1382 C1378 1.531 . S
C1382 H1394 0.960 . S
C1382 H1395 0.962 . S
C1382 H1396 0.960 . S
C1383 C1380 1.511 . S
C1383 H1397 0.961 . S
C1383 H1398 0.961 . S
C1383 H1399 0.961 . S
C1384 C1385 1.370 . S
C1384 C1386 1.363 . S
C1384 H1400 0.931 . S
C1385 C1384 1.370 . S
C1385 C1389 1.408 . S
C1386 C1384 1.363 . S
C1386 C1387 1.370 . S
C1386 C1390 1.524 . S
C1387 C1379 1.503 . S
C1387 C1386 1.370 . S
C1387 C1388 1.403 . S
C1388 C1387 1.403 . S
C1388 C1389 1.404 . S
C1388 C1391 1.539 . S
C1389 C1385 1.408 . S
C1389 C1388 1.404 . S
C1389 H1401 0.930 . S
C1390 C1386 1.524 . S
C1390 H1402 0.956 . S
C1390 H1403 0.961 . S
C1390 H1404 0.961 . S
C1391 C1388 1.539 . S
C1391 H1405 0.958 . S
C1391 H1406 0.961 . S
C1391 H1407 0.960 . S
H1392 C1376 0.931 . S
H1393 C1381 0.929 . S
H1394 C1382 0.960 . S
H1395 C1382 0.962 . S
H1396 C1382 0.960 . S
H1397 C1383 0.961 . S
H1398 C1383 0.961 . S
H1399 C1383 0.961 . S
H1400 C1384 0.931 . S
H1401 C1389 0.930 . S
H1402 C1390 0.956 . S
H1403 C1390 0.961 . S
H1404 C1390 0.961 . S
H1405 C1391 0.958 . S
H1406 C1391 0.961 . S
H1407 C1391 0.960 . S
C1408 C1409 1.391 . S
C1408 C1410 1.394 . S
C1408 H1424 0.931 . S
C1409 C1408 1.391 . S
C1409 C1413 1.376 . S
C1410 C1408 1.394 . S
C1410 C1411 1.369 . S
C1410 C1414 1.531 . S
C1411 C1410 1.369 . S
C1411 C1412 1.410 . S
C1411 C1419 1.503 . S
C1412 C1411 1.410 . S
C1412 C1413 1.392 . S
C1412 C1415 1.511 . S
C1413 C1409 1.376 . S
C1413 C1412 1.392 . S
C1413 H1425 0.929 . S
C1414 C1410 1.531 . S
C1414 H1426 0.960 . S
C1414 H1427 0.962 . S
C1414 H1428 0.960 . S
C1415 C1412 1.511 . S
C1415 H1429 0.961 . S
C1415 H1430 0.961 . S
C1415 H1431 0.961 . S
C1416 C1417 1.370 . S
C1416 C1418 1.363 . S
C1416 H1432 0.931 . S
C1417 C1416 1.370 . S
C1417 C1421 1.408 . S
C1418 C1416 1.363 . S
C1418 C1419 1.370 . S
C1418 C1422 1.524 . S
C1419 C1411 1.503 . S
C1419 C1418 1.370 . S
C1419 C1420 1.403 . S
C1420 C1419 1.403 . S
C1420 C1421 1.404 . S
C1420 C1423 1.539 . S
C1421 C1417 1.408 . S
C1421 C1420 1.404 . S
C1421 H1433 0.930 . S
C1422 C1418 1.524 . S
C1422 H1434 0.956 . S
C1422 H1435 0.961 . S
C1422 H1436 0.961 . S
C1423 C1420 1.539 . S
C1423 H1437 0.958 . S
C1423 H1438 0.961 . S
C1423 H1439 0.960 . S
H1424 C1408 0.931 . S
H1425 C1413 0.929 . S
H1426 C1414 0.960 . S
H1427 C1414 0.962 . S
H1428 C1414 0.960 . S
H1429 C1415 0.961 . S
H1430 C1415 0.961 . S
H1431 C1415 0.961 . S
H1432 C1416 0.931 . S
H1433 C1421 0.930 . S
H1434 C1422 0.956 . S
H1435 C1422 0.961 . S
H1436 C1422 0.961 . S
H1437 C1423 0.958 . S
H1438 C1423 0.961 . S
H1439 C1423 0.960 . S
C1440 C1441 1.391 . S
C1440 C1442 1.394 . S
C1440 H1456 0.931 . S
C1441 C1440 1.391 . S
C1441 C1445 1.376 . S
C1442 C1440 1.394 . S
C1442 C1443 1.369 . S
C1442 C1446 1.531 . S
C1443 C1442 1.369 . S
C1443 C1444 1.410 . S
C1443 C1451 1.503 . S
C1444 C1443 1.410 . S
C1444 C1445 1.392 . S
C1444 C1447 1.511 . S
C1445 C1441 1.376 . S
C1445 C1444 1.392 . S
C1445 H1457 0.929 . S
C1446 C1442 1.531 . S
C1446 H1458 0.960 . S
C1446 H1459 0.962 . S
C1446 H1460 0.960 . S
C1447 C1444 1.511 . S
C1447 H1461 0.961 . S
C1447 H1462 0.961 . S
C1447 H1463 0.961 . S
C1448 C1449 1.370 . S
C1448 C1450 1.363 . S
C1448 H1464 0.931 . S
C1449 C1448 1.370 . S
C1449 C1453 1.408 . S
C1450 C1448 1.363 . S
C1450 C1451 1.370 . S
C1450 C1454 1.524 . S
C1451 C1443 1.503 . S
C1451 C1450 1.370 . S
C1451 C1452 1.403 . S
C1452 C1451 1.403 . S
C1452 C1453 1.404 . S
C1452 C1455 1.539 . S
C1453 C1449 1.408 . S
C1453 C1452 1.404 . S
C1453 H1465 0.930 . S
C1454 C1450 1.524 . S
C1454 H1466 0.956 . S
C1454 H1467 0.961 . S
C1454 H1468 0.961 . S
C1455 C1452 1.539 . S
C1455 H1469 0.958 . S
C1455 H1470 0.961 . S
C1455 H1471 0.960 . S
H1456 C1440 0.931 . S
H1457 C1445 0.929 . S
H1458 C1446 0.960 . S
H1459 C1446 0.962 . S
H1460 C1446 0.960 . S
H1461 C1447 0.961 . S
H1462 C1447 0.961 . S
H1463 C1447 0.961 . S
H1464 C1448 0.931 . S
H1465 C1453 0.930 . S
H1466 C1454 0.956 . S
H1467 C1454 0.961 . S
H1468 C1454 0.961 . S
H1469 C1455 0.958 . S
H1470 C1455 0.961 . S
H1471 C1455 0.960 . S
C1472 C1473 1.391 . S
C1472 C1474 1.394 . S
C1472 H1488 0.931 . S
C1473 C1472 1.391 . S
C1473 C1477 1.376 . S
C1474 C1472 1.394 . S
C1474 C1475 1.369 . S
C1474 C1478 1.531 . S
C1475 C1474 1.369 . S
C1475 C1476 1.410 . S
C1475 C1483 1.503 . S
C1476 C1475 1.410 . S
C1476 C1477 1.392 . S
C1476 C1479 1.511 . S
C1477 C1473 1.376 . S
C1477 C1476 1.392 . S
C1477 H1489 0.929 . S
C1478 C1474 1.531 . S
C1478 H1490 0.960 . S
C1478 H1491 0.962 . S
C1478 H1492 0.960 . S
C1479 C1476 1.511 . S
C1479 H1493 0.961 . S
C1479 H1494 0.961 . S
C1479 H1495 0.961 . S
C1480 C1481 1.370 . S
C1480 C1482 1.363 . S
C1480 H1496 0.931 . S
C1481 C1480 1.370 . S
C1481 C1485 1.408 . S
C1482 C1480 1.363 . S
C1482 C1483 1.370 . S
C1482 C1486 1.524 . S
C1483 C1475 1.503 . S
C1483 C1482 1.370 . S
C1483 C1484 1.403 . S
C1484 C1483 1.403 . S
C1484 C1485 1.404 . S
C1484 C1487 1.539 . S
C1485 C1481 1.408 . S
C1485 C1484 1.404 . S
C1485 H1497 0.930 . S
C1486 C1482 1.524 . S
C1486 H1498 0.956 . S
C1486 H1499 0.961 . S
C1486 H1500 0.961 . S
C1487 C1484 1.539 . S
C1487 H1501 0.958 . S
C1487 H1502 0.961 . S
C1487 H1503 0.960 . S
H1488 C1472 0.931 . S
H1489 C1477 0.929 . S
H1490 C1478 0.960 . S
H1491 C1478 0.962 . S
H1492 C1478 0.960 . S
H1493 C1479 0.961 . S
H1494 C1479 0.961 . S
H1495 C1479 0.961 . S
H1496 C1480 0.931 . S
H1497 C1485 0.930 . S
H1498 C1486 0.956 . S
H1499 C1486 0.961 . S
H1500 C1486 0.961 . S
H1501 C1487 0.958 . S
H1502 C1487 0.961 . S
H1503 C1487 0.960 . S
C1504 C1505 1.391 . S
C1504 C1506 1.394 . S
C1504 H1520 0.931 . S
C1505 C1504 1.391 . S
C1505 C1509 1.376 . S
C1506 C1504 1.394 . S
C1506 C1507 1.369 . S
C1506 C1510 1.531 . S
C1507 C1506 1.369 . S
C1507 C1508 1.410 . S
C1507 C1515 1.503 . S
C1508 C1507 1.410 . S
C1508 C1509 1.392 . S
C1508 C1511 1.511 . S
C1509 C1505 1.376 . S
C1509 C1508 1.392 . S
C1509 H1521 0.929 . S
C1510 C1506 1.531 . S
C1510 H1522 0.960 . S
C1510 H1523 0.962 . S
C1510 H1524 0.960 . S
C1511 C1508 1.511 . S
C1511 H1525 0.961 . S
C1511 H1526 0.961 . S
C1511 H1527 0.961 . S
C1512 C1513 1.370 . S
C1512 C1514 1.363 . S
C1512 H1528 0.931 . S
C1513 C1512 1.370 . S
C1513 C1517 1.408 . S
C1514 C1512 1.363 . S
C1514 C1515 1.370 . S
C1514 C1518 1.524 . S
C1515 C1507 1.503 . S
C1515 C1514 1.370 . S
C1515 C1516 1.403 . S
C1516 C1515 1.403 . S
C1516 C1517 1.404 . S
C1516 C1519 1.539 . S
C1517 C1513 1.408 . S
C1517 C1516 1.404 . S
C1517 H1529 0.930 . S
C1518 C1514 1.524 . S
C1518 H1530 0.956 . S
C1518 H1531 0.961 . S
C1518 H1532 0.961 . S
C1519 C1516 1.539 . S
C1519 H1533 0.958 . S
C1519 H1534 0.961 . S
C1519 H1535 0.960 . S
H1520 C1504 0.931 . S
H1521 C1509 0.929 . S
H1522 C1510 0.960 . S
H1523 C1510 0.962 . S
H1524 C1510 0.960 . S
H1525 C1511 0.961 . S
H1526 C1511 0.961 . S
H1527 C1511 0.961 . S
H1528 C1512 0.931 . S
H1529 C1517 0.930 . S
H1530 C1518 0.956 . S
H1531 C1518 0.961 . S
H1532 C1518 0.961 . S
H1533 C1519 0.958 . S
H1534 C1519 0.961 . S
H1535 C1519 0.960 . S
C1536 C1537 1.391 . S
C1536 C1538 1.394 . S
C1536 H1552 0.931 . S
C1537 C1536 1.391 . S
C1537 C1541 1.376 . S
C1538 C1536 1.394 . S
C1538 C1539 1.369 . S
C1538 C1542 1.531 . S
C1539 C1538 1.369 . S
C1539 C1540 1.410 . S
C1539 C1547 1.503 . S
C1540 C1539 1.410 . S
C1540 C1541 1.392 . S
C1540 C1543 1.511 . S
C1541 C1537 1.376 . S
C1541 C1540 1.392 . S
C1541 H1553 0.929 . S
C1542 C1538 1.531 . S
C1542 H1554 0.960 . S
C1542 H1555 0.962 . S
C1542 H1556 0.960 . S
C1543 C1540 1.511 . S
C1543 H1557 0.961 . S
C1543 H1558 0.961 . S
C1543 H1559 0.961 . S
C1544 C1545 1.370 . S
C1544 C1546 1.363 . S
C1544 H1560 0.931 . S
C1545 C1544 1.370 . S
C1545 C1549 1.408 . S
C1546 C1544 1.363 . S
C1546 C1547 1.370 . S
C1546 C1550 1.524 . S
C1547 C1539 1.503 . S
C1547 C1546 1.370 . S
C1547 C1548 1.403 . S
C1548 C1547 1.403 . S
C1548 C1549 1.404 . S
C1548 C1551 1.539 . S
C1549 C1545 1.408 . S
C1549 C1548 1.404 . S
C1549 H1561 0.930 . S
C1550 C1546 1.524 . S
C1550 H1562 0.956 . S
C1550 H1563 0.961 . S
C1550 H1564 0.961 . S
C1551 C1548 1.539 . S
C1551 H1565 0.958 . S
C1551 H1566 0.961 . S
C1551 H1567 0.960 . S
H1552 C1536 0.931 . S
H1553 C1541 0.929 . S
H1554 C1542 0.960 . S
H1555 C1542 0.962 . S
H1556 C1542 0.960 . S
H1557 C1543 0.961 . S
H1558 C1543 0.961 . S
H1559 C1543 0.961 . S
H1560 C1544 0.931 . S
H1561 C1549 0.930 . S
H1562 C1550 0.956 . S
H1563 C1550 0.961 . S
H1564 C1550 0.961 . S
H1565 C1551 0.958 . S
H1566 C1551 0.961 . S
H1567 C1551 0.960 . S
C1568 C1569 1.391 . S
C1568 C1570 1.394 . S
C1568 H1584 0.931 . S
C1569 C1568 1.391 . S
C1569 C1573 1.376 . S
C1570 C1568 1.394 . S
C1570 C1571 1.369 . S
C1570 C1574 1.531 . S
C1571 C1570 1.369 . S
C1571 C1572 1.410 . S
C1571 C1579 1.503 1_655 S
C1572 C1571 1.410 . S
C1572 C1573 1.392 . S
C1572 C1575 1.511 . S
C1573 C1569 1.376 . S
C1573 C1572 1.392 . S
C1573 H1585 0.929 . S
C1574 C1570 1.531 . S
C1574 H1586 0.960 . S
C1574 H1587 0.962 . S
C1574 H1588 0.960 . S
C1575 C1572 1.511 . S
C1575 H1589 0.961 . S
C1575 H1590 0.961 1_655 S
C1575 H1591 0.961 . S
C1576 C1577 1.370 . S
C1576 C1578 1.363 . S
C1576 H1592 0.931 . S
C1577 C1576 1.370 . S
C1577 C1581 1.408 . S
C1578 C1576 1.363 . S
C1578 C1579 1.370 . S
C1578 C1582 1.524 . S
C1579 C1571 1.503 1_455 S
C1579 C1578 1.370 . S
C1579 C1580 1.403 . S
C1580 C1579 1.403 . S
C1580 C1581 1.404 . S
C1580 C1583 1.539 . S
C1581 C1577 1.408 . S
C1581 C1580 1.404 . S
C1581 H1593 0.930 . S
C1582 C1578 1.524 . S
C1582 H1594 0.956 . S
C1582 H1595 0.961 . S
C1582 H1596 0.961 . S
C1583 C1580 1.539 . S
C1583 H1597 0.958 1_455 S
C1583 H1598 0.961 . S
C1583 H1599 0.960 1_455 S
H1584 C1568 0.931 . S
H1585 C1573 0.929 . S
H1586 C1574 0.960 . S
H1587 C1574 0.962 . S
H1588 C1574 0.960 . S
H1589 C1575 0.961 . S
H1590 C1575 0.961 1_455 S
H1591 C1575 0.961 . S
H1592 C1576 0.931 . S
H1593 C1581 0.930 . S
H1594 C1582 0.956 . S
H1595 C1582 0.961 . S
H1596 C1582 0.961 . S
H1597 C1583 0.958 1_655 S
H1598 C1583 0.961 . S
H1599 C1583 0.960 1_655 S
C1600 C1601 1.391 1_455 S
C1600 C1602 1.394 . S
C1600 H1616 0.931 . S
C1601 C1600 1.391 1_655 S
C1601 C1605 1.376 . S
C1602 C1600 1.394 . S
C1602 C1603 1.369 1_455 S
C1602 C1606 1.531 . S
C1603 C1602 1.369 1_655 S
C1603 C1604 1.410 . S
C1603 C1611 1.503 1_655 S
C1604 C1603 1.410 . S
C1604 C1605 1.392 . S
C1604 C1607 1.511 . S
C1605 C1601 1.376 . S
C1605 C1604 1.392 . S
C1605 H1617 0.929 . S
C1606 C1602 1.531 . S
C1606 H1618 0.960 . S
C1606 H1619 0.962 . S
C1606 H1620 0.960 . S
C1607 C1604 1.511 . S
C1607 H1621 0.961 . S
C1607 H1622 0.961 . S
C1607 H1623 0.961 . S
C1608 C1609 1.370 . S
C1608 C1610 1.363 . S
C1608 H1624 0.931 . S
C1609 C1608 1.370 . S
C1609 C1613 1.408 . S
C1610 C1608 1.363 . S
C1610 C1611 1.370 . S
C1610 C1614 1.524 . S
C1611 C1603 1.503 1_455 S
C1611 C1610 1.370 . S
C1611 C1612 1.403 1_455 S
C1612 C1611 1.403 1_655 S
C1612 C1613 1.404 1_655 S
C1612 C1615 1.539 . S
C1613 C1609 1.408 . S
C1613 C1612 1.404 1_455 S
C1613 H1625 0.930 . S
C1614 C1610 1.524 . S
C1614 H1626 0.956 . S
C1614 H1627 0.961 . S
C1614 H1628 0.961 . S
C1615 C1612 1.539 . S
C1615 H1629 0.958 . S
C1615 H1630 0.961 . S
C1615 H1631 0.960 . S
H1616 C1600 0.931 . S
H1617 C1605 0.929 . S
H1618 C1606 0.960 . S
H1619 C1606 0.962 . S
H1620 C1606 0.960 . S
H1621 C1607 0.961 . S
H1622 C1607 0.961 . S
H1623 C1607 0.961 . S
H1624 C1608 0.931 . S
H1625 C1613 0.930 . S
H1626 C1614 0.956 . S
H1627 C1614 0.961 . S
H1628 C1614 0.961 . S
H1629 C1615 0.958 . S
H1630 C1615 0.961 . S
H1631 C1615 0.960 . S
C1632 C1633 1.391 . S
C1632 C1634 1.394 . S
C1632 H1648 0.931 . S
C1633 C1632 1.391 . S
C1633 C1637 1.376 . S
C1634 C1632 1.394 . S
C1634 C1635 1.369 . S
C1634 C1638 1.531 . S
C1635 C1634 1.369 . S
C1635 C1636 1.410 . S
C1635 C1643 1.503 . S
C1636 C1635 1.410 . S
C1636 C1637 1.392 . S
C1636 C1639 1.511 . S
C1637 C1633 1.376 . S
C1637 C1636 1.392 . S
C1637 H1649 0.929 . S
C1638 C1634 1.531 . S
C1638 H1650 0.960 . S
C1638 H1651 0.962 . S
C1638 H1652 0.960 . S
C1639 C1636 1.511 . S
C1639 H1653 0.961 . S
C1639 H1654 0.961 . S
C1639 H1655 0.961 . S
C1640 C1641 1.370 . S
C1640 C1642 1.363 . S
C1640 H1656 0.931 . S
C1641 C1640 1.370 . S
C1641 C1645 1.408 . S
C1642 C1640 1.363 . S
C1642 C1643 1.370 . S
C1642 C1646 1.524 . S
C1643 C1635 1.503 . S
C1643 C1642 1.370 . S
C1643 C1644 1.403 . S
C1644 C1643 1.403 . S
C1644 C1645 1.404 . S
C1644 C1647 1.539 . S
C1645 C1641 1.408 . S
C1645 C1644 1.404 . S
C1645 H1657 0.930 . S
C1646 C1642 1.524 . S
C1646 H1658 0.956 . S
C1646 H1659 0.961 . S
C1646 H1660 0.961 . S
C1647 C1644 1.539 . S
C1647 H1661 0.958 . S
C1647 H1662 0.961 . S
C1647 H1663 0.960 . S
H1648 C1632 0.931 . S
H1649 C1637 0.929 . S
H1650 C1638 0.960 . S
H1651 C1638 0.962 . S
H1652 C1638 0.960 . S
H1653 C1639 0.961 . S
H1654 C1639 0.961 . S
H1655 C1639 0.961 . S
H1656 C1640 0.931 . S
H1657 C1645 0.930 . S
H1658 C1646 0.956 . S
H1659 C1646 0.961 . S
H1660 C1646 0.961 . S
H1661 C1647 0.958 . S
H1662 C1647 0.961 . S
H1663 C1647 0.960 . S
C1664 C1665 1.391 . S
C1664 C1666 1.394 . S
C1664 H1680 0.931 1_554 S
C1665 C1664 1.391 . S
C1665 C1669 1.376 . S
C1666 C1664 1.394 . S
C1666 C1667 1.369 . S
C1666 C1670 1.531 1_554 S
C1667 C1666 1.369 . S
C1667 C1668 1.410 . S
C1667 C1675 1.503 . S
C1668 C1667 1.410 . S
C1668 C1669 1.392 . S
C1668 C1671 1.511 . S
C1669 C1665 1.376 . S
C1669 C1668 1.392 . S
C1669 H1681 0.929 . S
C1670 C1666 1.531 1_556 S
C1670 H1682 0.960 . S
C1670 H1683 0.962 . S
C1670 H1684 0.960 . S
C1671 C1668 1.511 . S
C1671 H1685 0.961 . S
C1671 H1686 0.961 . S
C1671 H1687 0.961 . S
C1672 C1673 1.370 . S
C1672 C1674 1.363 . S
C1672 H1688 0.931 1_554 S
C1673 C1672 1.370 . S
C1673 C1677 1.408 . S
C1674 C1672 1.363 . S
C1674 C1675 1.370 . S
C1674 C1678 1.524 1_554 S
C1675 C1667 1.503 . S
C1675 C1674 1.370 . S
C1675 C1676 1.403 . S
C1676 C1675 1.403 . S
C1676 C1677 1.404 . S
C1676 C1679 1.539 . S
C1677 C1673 1.408 . S
C1677 C1676 1.404 . S
C1677 H1689 0.930 . S
C1678 C1674 1.524 1_556 S
C1678 H1690 0.956 . S
C1678 H1691 0.961 . S
C1678 H1692 0.961 . S
C1679 C1676 1.539 . S
C1679 H1693 0.958 . S
C1679 H1694 0.961 . S
C1679 H1695 0.960 . S
H1680 C1664 0.931 1_556 S
H1681 C1669 0.929 . S
H1682 C1670 0.960 . S
H1683 C1670 0.962 . S
H1684 C1670 0.960 . S
H1685 C1671 0.961 . S
H1686 C1671 0.961 . S
H1687 C1671 0.961 . S
H1688 C1672 0.931 1_556 S
H1689 C1677 0.930 . S
H1690 C1678 0.956 . S
H1691 C1678 0.961 . S
H1692 C1678 0.961 . S
H1693 C1679 0.958 . S
H1694 C1679 0.961 . S
H1695 C1679 0.960 . S
C1696 C1697 1.391 . S
C1696 C1698 1.394 . S
C1696 H1712 0.931 . S
C1697 C1696 1.391 . S
C1697 C1701 1.376 . S
C1698 C1696 1.394 . S
C1698 C1699 1.369 . S
C1698 C1702 1.531 . S
C1699 C1698 1.369 . S
C1699 C1700 1.410 . S
C1699 C1707 1.503 1_655 S
C1700 C1699 1.410 . S
C1700 C1701 1.392 . S
C1700 C1703 1.511 . S
C1701 C1697 1.376 . S
C1701 C1700 1.392 . S
C1701 H1713 0.929 . S
C1702 C1698 1.531 . S
C1702 H1714 0.960 1_655 S
C1702 H1715 0.962 1_655 S
C1702 H1716 0.960 . S
C1703 C1700 1.511 . S
C1703 H1717 0.961 . S
C1703 H1718 0.961 . S
C1703 H1719 0.961 . S
C1704 C1705 1.370 . S
C1704 C1706 1.363 . S
C1704 H1720 0.931 . S
C1705 C1704 1.370 . S
C1705 C1709 1.408 . S
C1706 C1704 1.363 . S
C1706 C1707 1.370 . S
C1706 C1710 1.524 . S
C1707 C1699 1.503 1_455 S
C1707 C1706 1.370 . S
C1707 C1708 1.403 . S
C1708 C1707 1.403 . S
C1708 C1709 1.404 . S
C1708 C1711 1.539 . S
C1709 C1705 1.408 . S
C1709 C1708 1.404 . S
C1709 H1721 0.930 . S
C1710 C1706 1.524 . S
C1710 H1722 0.956 . S
C1710 H1723 0.961 . S
C1710 H1724 0.961 . S
C1711 C1708 1.539 . S
C1711 H1725 0.958 . S
C1711 H1726 0.961 . S
C1711 H1727 0.960 1_455 S
H1712 C1696 0.931 . S
H1713 C1701 0.929 . S
H1714 C1702 0.960 1_455 S
H1715 C1702 0.962 1_455 S
H1716 C1702 0.960 . S
H1717 C1703 0.961 . S
H1718 C1703 0.961 . S
H1719 C1703 0.961 . S
H1720 C1704 0.931 . S
H1721 C1709 0.930 . S
H1722 C1710 0.956 . S
H1723 C1710 0.961 . S
H1724 C1710 0.961 . S
H1725 C1711 0.958 . S
H1726 C1711 0.961 . S
H1727 C1711 0.960 1_655 S
C1728 C1729 1.391 . S
C1728 C1730 1.394 . S
C1728 H1744 0.931 . S
C1729 C1728 1.391 . S
C1729 C1733 1.376 . S
C1730 C1728 1.394 . S
C1730 C1731 1.369 . S
C1730 C1734 1.531 . S
C1731 C1730 1.369 . S
C1731 C1732 1.410 . S
C1731 C1739 1.503 . S
C1732 C1731 1.410 . S
C1732 C1733 1.392 . S
C1732 C1735 1.511 . S
C1733 C1729 1.376 . S
C1733 C1732 1.392 . S
C1733 H1745 0.929 . S
C1734 C1730 1.531 . S
C1734 H1746 0.960 . S
C1734 H1747 0.962 . S
C1734 H1748 0.960 . S
C1735 C1732 1.511 . S
C1735 H1749 0.961 . S
C1735 H1750 0.961 . S
C1735 H1751 0.961 . S
C1736 C1737 1.370 . S
C1736 C1738 1.363 . S
C1736 H1752 0.931 . S
C1737 C1736 1.370 . S
C1737 C1741 1.408 . S
C1738 C1736 1.363 . S
C1738 C1739 1.370 . S
C1738 C1742 1.524 . S
C1739 C1731 1.503 . S
C1739 C1738 1.370 . S
C1739 C1740 1.403 . S
C1740 C1739 1.403 . S
C1740 C1741 1.404 . S
C1740 C1743 1.539 . S
C1741 C1737 1.408 . S
C1741 C1740 1.404 . S
C1741 H1753 0.930 . S
C1742 C1738 1.524 . S
C1742 H1754 0.956 . S
C1742 H1755 0.961 . S
C1742 H1756 0.961 . S
C1743 C1740 1.539 . S
C1743 H1757 0.958 . S
C1743 H1758 0.961 . S
C1743 H1759 0.960 . S
H1744 C1728 0.931 . S
H1745 C1733 0.929 . S
H1746 C1734 0.960 . S
H1747 C1734 0.962 . S
H1748 C1734 0.960 . S
H1749 C1735 0.961 . S
H1750 C1735 0.961 . S
H1751 C1735 0.961 . S
H1752 C1736 0.931 . S
H1753 C1741 0.930 . S
H1754 C1742 0.956 . S
H1755 C1742 0.961 . S
H1756 C1742 0.961 . S
H1757 C1743 0.958 . S
H1758 C1743 0.961 . S
H1759 C1743 0.960 . S
C1760 C1761 1.391 . S
C1760 C1762 1.394 . S
C1760 H1776 0.931 . S
C1761 C1760 1.391 . S
C1761 C1765 1.376 . S
C1762 C1760 1.394 . S
C1762 C1763 1.369 . S
C1762 C1766 1.531 . S
C1763 C1762 1.369 . S
C1763 C1764 1.410 . S
C1763 C1771 1.503 . S
C1764 C1763 1.410 . S
C1764 C1765 1.392 . S
C1764 C1767 1.511 . S
C1765 C1761 1.376 . S
C1765 C1764 1.392 . S
C1765 H1777 0.929 . S
C1766 C1762 1.531 . S
C1766 H1778 0.960 . S
C1766 H1779 0.962 . S
C1766 H1780 0.960 . S
C1767 C1764 1.511 . S
C1767 H1781 0.961 . S
C1767 H1782 0.961 . S
C1767 H1783 0.961 . S
C1768 C1769 1.370 . S
C1768 C1770 1.363 . S
C1768 H1784 0.931 . S
C1769 C1768 1.370 . S
C1769 C1773 1.408 . S
C1770 C1768 1.363 . S
C1770 C1771 1.370 . S
C1770 C1774 1.524 . S
C1771 C1763 1.503 . S
C1771 C1770 1.370 . S
C1771 C1772 1.403 . S
C1772 C1771 1.403 . S
C1772 C1773 1.404 . S
C1772 C1775 1.539 . S
C1773 C1769 1.408 . S
C1773 C1772 1.404 . S
C1773 H1785 0.930 . S
C1774 C1770 1.524 . S
C1774 H1786 0.956 . S
C1774 H1787 0.961 . S
C1774 H1788 0.961 . S
C1775 C1772 1.539 . S
C1775 H1789 0.958 . S
C1775 H1790 0.961 . S
C1775 H1791 0.960 . S
H1776 C1760 0.931 . S
H1777 C1765 0.929 . S
H1778 C1766 0.960 . S
H1779 C1766 0.962 . S
H1780 C1766 0.960 . S
H1781 C1767 0.961 . S
H1782 C1767 0.961 . S
H1783 C1767 0.961 . S
H1784 C1768 0.931 . S
H1785 C1773 0.930 . S
H1786 C1774 0.956 . S
H1787 C1774 0.961 . S
H1788 C1774 0.961 . S
H1789 C1775 0.958 . S
H1790 C1775 0.961 . S
H1791 C1775 0.960 . S
C1792 C1793 1.391 . S
C1792 C1794 1.394 . S
C1792 H1808 0.931 . S
C1793 C1792 1.391 . S
C1793 C1797 1.376 1_455 S
C1794 C1792 1.394 . S
C1794 C1795 1.369 . S
C1794 C1798 1.531 . S
C1795 C1794 1.369 . S
C1795 C1796 1.410 1_455 S
C1795 C1803 1.503 1_455 S
C1796 C1795 1.410 1_655 S
C1796 C1797 1.392 . S
C1796 C1799 1.511 . S
C1797 C1793 1.376 1_655 S
C1797 C1796 1.392 . S
C1797 H1809 0.929 . S
C1798 C1794 1.531 . S
C1798 H1810 0.960 . S
C1798 H1811 0.962 . S
C1798 H1812 0.960 . S
C1799 C1796 1.511 . S
C1799 H1813 0.961 . S
C1799 H1814 0.961 . S
C1799 H1815 0.961 . S
C1800 C1801 1.370 1_554 S
C1800 C1802 1.365 . S
C1800 H1816 0.931 . S
C1801 C1800 1.370 1_556 S
C1801 C1805 1.408 . S
C1802 C1800 1.365 . S
C1802 C1803 1.349 1_554 S
C1802 C1806 1.545 1_655 S
C1803 C1795 1.503 1_655 S
C1803 C1802 1.349 1_556 S
C1803 C1804 1.403 . S
C1804 C1803 1.403 . S
C1804 C1805 1.404 . S
C1804 C1807 1.539 . S
C1805 C1801 1.408 . S
C1805 C1804 1.404 . S
C1805 H1817 0.930 . S
C1806 C1802 1.545 1_455 S
C1806 H1818 0.956 . S
C1806 H1819 0.961 1_455 S
C1806 H1820 0.961 . S
C1807 C1804 1.539 . S
C1807 H1821 0.958 . S
C1807 H1822 0.961 . S
C1807 H1823 0.960 . S
H1808 C1792 0.931 . S
H1809 C1797 0.929 . S
H1810 C1798 0.960 . S
H1811 C1798 0.962 . S
H1812 C1798 0.960 . S
H1813 C1799 0.961 . S
H1814 C1799 0.961 . S
H1815 C1799 0.961 . S
H1816 C1800 0.931 . S
H1817 C1805 0.930 . S
H1818 C1806 0.956 . S
H1819 C1806 0.961 1_655 S
H1820 C1806 0.961 . S
H1821 C1807 0.958 . S
H1822 C1807 0.961 . S
H1823 C1807 0.960 . S
C1824 C1825 1.391 . S
C1824 C1826 1.394 . S
C1824 H1840 0.931 . S
C1825 C1824 1.391 . S
C1825 C1829 1.376 . S
C1826 C1824 1.394 . S
C1826 C1827 1.369 . S
C1826 C1830 1.531 1_655 S
C1827 C1826 1.369 . S
C1827 C1828 1.410 . S
C1827 C1835 1.503 1_655 S
C1828 C1827 1.410 . S
C1828 C1829 1.392 . S
C1828 C1831 1.511 . S
C1829 C1825 1.376 . S
C1829 C1828 1.392 . S
C1829 H1841 0.929 . S
C1830 C1826 1.531 1_455 S
C1830 H1842 0.960 . S
C1830 H1843 0.962 . S
C1830 H1844 0.960 1_455 S
C1831 C1828 1.511 . S
C1831 H1845 0.961 . S
C1831 H1846 0.961 . S
C1831 H1847 0.961 . S
C1832 C1833 1.370 . S
C1832 C1834 1.363 . S
C1832 H1848 0.931 . S
C1833 C1832 1.370 . S
C1833 C1837 1.408 . S
C1834 C1832 1.363 . S
C1834 C1835 1.370 . S
C1834 C1838 1.524 . S
C1835 C1827 1.503 1_455 S
C1835 C1834 1.370 . S
C1835 C1836 1.403 . S
C1836 C1835 1.403 . S
C1836 C1837 1.404 . S
C1836 C1839 1.539 . S
C1837 C1833 1.408 . S
C1837 C1836 1.404 . S
C1837 H1849 0.930 . S
C1838 C1834 1.524 . S
C1838 H1850 0.956 . S
C1838 H1851 0.961 1_455 S
C1838 H1852 0.961 . S
C1839 C1836 1.539 . S
C1839 H1853 0.958 . S
C1839 H1854 0.961 . S
C1839 H1855 0.960 1_455 S
H1840 C1824 0.931 . S
H1841 C1829 0.929 . S
H1842 C1830 0.960 . S
H1843 C1830 0.962 . S
H1844 C1830 0.960 1_655 S
H1845 C1831 0.961 . S
H1846 C1831 0.961 . S
H1847 C1831 0.961 . S
H1848 C1832 0.931 . S
H1849 C1837 0.930 . S
H1850 C1838 0.956 . S
H1851 C1838 0.961 1_655 S
H1852 C1838 0.961 . S
H1853 C1839 0.958 . S
H1854 C1839 0.961 . S
H1855 C1839 0.960 1_655 S
C1856 C1857 1.391 . S
C1856 C1858 1.394 1_455 S
C1856 H1872 0.931 1_455 S
C1857 C1856 1.391 . S
C1857 C1861 1.376 . S
C1858 C1856 1.394 1_655 S
C1858 C1859 1.369 1_655 S
C1858 C1862 1.531 . S
C1859 C1858 1.369 1_455 S
C1859 C1860 1.410 . S
C1859 C1867 1.503 1_455 S
C1860 C1859 1.410 . S
C1860 C1861 1.392 . S
C1860 C1863 1.511 . S
C1861 C1857 1.376 . S
C1861 C1860 1.392 . S
C1861 H1873 0.929 . S
C1862 C1858 1.531 . S
C1862 H1874 0.960 . S
C1862 H1875 0.962 . S
C1862 H1876 0.960 . S
C1863 C1860 1.511 . S
C1863 H1877 0.961 . S
C1863 H1878 0.961 . S
C1863 H1879 0.961 . S
C1864 C1865 1.370 . S
C1864 C1866 1.363 . S
C1864 H1880 0.931 . S
C1865 C1864 1.370 . S
C1865 C1869 1.408 . S
C1866 C1864 1.363 . S
C1866 C1867 1.370 . S
C1866 C1870 1.524 . S
C1867 C1859 1.503 1_655 S
C1867 C1866 1.370 . S
C1867 C1868 1.403 1_655 S
C1868 C1867 1.403 1_455 S
C1868 C1869 1.404 1_455 S
C1868 C1871 1.539 . S
C1869 C1865 1.408 . S
C1869 C1868 1.404 1_655 S
C1869 H1881 0.930 1_655 S
C1870 C1866 1.524 . S
C1870 H1882 0.956 . S
C1870 H1883 0.961 . S
C1870 H1884 0.961 . S
C1871 C1868 1.539 . S
C1871 H1885 0.958 . S
C1871 H1886 0.961 . S
C1871 H1887 0.960 . S
H1872 C1856 0.931 1_655 S
H1873 C1861 0.929 . S
H1874 C1862 0.960 . S
H1875 C1862 0.962 . S
H1876 C1862 0.960 . S
H1877 C1863 0.961 . S
H1878 C1863 0.961 . S
H1879 C1863 0.961 . S
H1880 C1864 0.931 . S
H1881 C1869 0.930 1_455 S
H1882 C1870 0.956 . S
H1883 C1870 0.961 . S
H1884 C1870 0.961 . S
H1885 C1871 0.958 . S
H1886 C1871 0.961 . S
H1887 C1871 0.960 . S
C1888 C1889 1.391 . S
C1888 C1890 1.394 . S
C1888 H1904 0.931 . S
C1889 C1888 1.391 . S
C1889 C1893 1.376 . S
C1890 C1888 1.394 . S
C1890 C1891 1.369 . S
C1890 C1894 1.531 . S
C1891 C1890 1.369 . S
C1891 C1892 1.410 . S
C1891 C1899 1.503 . S
C1892 C1891 1.410 . S
C1892 C1893 1.392 . S
C1892 C1895 1.511 . S
C1893 C1889 1.376 . S
C1893 C1892 1.392 . S
C1893 H1905 0.929 . S
C1894 C1890 1.531 . S
C1894 H1906 0.960 . S
C1894 H1907 0.962 . S
C1894 H1908 0.960 . S
C1895 C1892 1.511 . S
C1895 H1909 0.961 . S
C1895 H1910 0.961 . S
C1895 H1911 0.961 . S
C1896 C1897 1.370 . S
C1896 C1898 1.363 . S
C1896 H1912 0.931 . S
C1897 C1896 1.370 . S
C1897 C1901 1.408 . S
C1898 C1896 1.363 . S
C1898 C1899 1.370 . S
C1898 C1902 1.524 . S
C1899 C1891 1.503 . S
C1899 C1898 1.370 . S
C1899 C1900 1.403 . S
C1900 C1899 1.403 . S
C1900 C1901 1.404 . S
C1900 C1903 1.539 . S
C1901 C1897 1.408 . S
C1901 C1900 1.404 . S
C1901 H1913 0.930 . S
C1902 C1898 1.524 . S
C1902 H1914 0.956 . S
C1902 H1915 0.961 . S
C1902 H1916 0.961 . S
C1903 C1900 1.539 . S
C1903 H1917 0.958 . S
C1903 H1918 0.961 . S
C1903 H1919 0.960 . S
H1904 C1888 0.931 . S
H1905 C1893 0.929 . S
H1906 C1894 0.960 . S
H1907 C1894 0.962 . S
H1908 C1894 0.960 . S
H1909 C1895 0.961 . S
H1910 C1895 0.961 . S
H1911 C1895 0.961 . S
H1912 C1896 0.931 . S
H1913 C1901 0.930 . S
H1914 C1902 0.956 . S
H1915 C1902 0.961 . S
H1916 C1902 0.961 . S
H1917 C1903 0.958 . S
H1918 C1903 0.961 . S
H1919 C1903 0.960 . S
C1920 C1921 1.391 . S
C1920 C1922 1.394 . S
C1920 H1936 0.931 . S
C1921 C1920 1.391 . S
C1921 C1925 1.376 . S
C1922 C1920 1.394 . S
C1922 C1923 1.369 . S
C1922 C1926 1.531 . S
C1923 C1922 1.369 . S
C1923 C1924 1.410 . S
C1923 C1931 1.503 . S
C1924 C1923 1.410 . S
C1924 C1925 1.392 . S
C1924 C1927 1.511 . S
C1925 C1921 1.376 . S
C1925 C1924 1.392 . S
C1925 H1937 0.929 . S
C1926 C1922 1.531 . S
C1926 H1938 0.960 1_556 S
C1926 H1939 0.962 . S
C1926 H1940 0.944 1_556 S
C1927 C1924 1.511 . S
C1927 H1941 0.961 . S
C1927 H1942 0.961 . S
C1927 H1943 0.961 1_556 S
C1928 C1929 1.370 . S
C1928 C1930 1.363 . S
C1928 H1944 0.931 . S
C1929 C1928 1.370 . S
C1929 C1933 1.408 1_556 S
C1930 C1928 1.363 . S
C1930 C1931 1.370 . S
C1930 C1934 1.524 . S
C1931 C1923 1.503 . S
C1931 C1930 1.370 . S
C1931 C1932 1.403 1_556 S
C1932 C1931 1.403 1_554 S
C1932 C1933 1.404 . S
C1932 C1935 1.539 . S
C1933 C1929 1.408 1_554 S
C1933 C1932 1.404 . S
C1933 H1945 0.930 . S
C1934 C1930 1.524 . S
C1934 H1946 0.956 . S
C1934 H1947 0.961 . S
C1934 H1948 0.961 . S
C1935 C1932 1.539 . S
C1935 H1949 0.958 . S
C1935 H1950 0.961 . S
C1935 H1951 0.960 . S
H1936 C1920 0.931 . S
H1937 C1925 0.929 . S
H1938 C1926 0.960 1_554 S
H1939 C1926 0.962 . S
H1940 C1926 0.944 1_554 S
H1941 C1927 0.961 . S
H1942 C1927 0.961 . S
H1943 C1927 0.961 1_554 S
H1944 C1928 0.931 . S
H1945 C1933 0.930 . S
H1946 C1934 0.956 . S
H1947 C1934 0.961 . S
H1948 C1934 0.961 . S
H1949 C1935 0.958 . S
H1950 C1935 0.961 . S
H1951 C1935 0.960 . S
C1952 C1953 1.391 . S
C1952 C1954 1.394 . S
C1952 H1968 0.931 . S
C1953 C1952 1.391 . S
C1953 C1957 1.376 . S
C1954 C1952 1.394 . S
C1954 C1955 1.369 . S
C1954 C1958 1.531 . S
C1955 C1954 1.369 . S
C1955 C1956 1.410 . S
C1955 C1963 1.503 1_655 S
C1956 C1955 1.410 . S
C1956 C1957 1.392 . S
C1956 C1959 1.511 . S
C1957 C1953 1.376 . S
C1957 C1956 1.392 . S
C1957 H1969 0.929 . S
C1958 C1954 1.531 . S
C1958 H1970 0.960 1_655 S
C1958 H1971 0.962 1_655 S
C1958 H1972 0.960 . S
C1959 C1956 1.511 . S
C1959 H1973 0.961 . S
C1959 H1974 0.961 . S
C1959 H1975 0.961 . S
C1960 C1961 1.370 . S
C1960 C1962 1.363 . S
C1960 H1976 0.931 . S
C1961 C1960 1.370 . S
C1961 C1965 1.408 . S
C1962 C1960 1.363 . S
C1962 C1963 1.370 . S
C1962 C1966 1.524 . S
C1963 C1955 1.503 1_455 S
C1963 C1962 1.370 . S
C1963 C1964 1.403 . S
C1964 C1963 1.403 . S
C1964 C1965 1.404 . S
C1964 C1967 1.539 . S
C1965 C1961 1.408 . S
C1965 C1964 1.404 . S
C1965 H1977 0.930 . S
C1966 C1962 1.524 . S
C1966 H1978 0.956 . S
C1966 H1979 0.961 . S
C1966 H1980 0.961 . S
C1967 C1964 1.539 . S
C1967 H1981 0.958 . S
C1967 H1982 0.961 . S
C1967 H1983 0.960 1_455 S
H1968 C1952 0.931 . S
H1969 C1957 0.929 . S
H1970 C1958 0.960 1_455 S
H1971 C1958 0.962 1_455 S
H1972 C1958 0.960 . S
H1973 C1959 0.961 . S
H1974 C1959 0.961 . S
H1975 C1959 0.961 . S
H1976 C1960 0.931 . S
H1977 C1965 0.930 . S
H1978 C1966 0.956 . S
H1979 C1966 0.961 . S
H1980 C1966 0.961 . S
H1981 C1967 0.958 . S
H1982 C1967 0.961 . S
H1983 C1967 0.960 1_655 S
C1984 C1985 1.391 . S
C1984 C1986 1.394 . S
C1984 H2000 0.931 . S
C1985 C1984 1.391 . S
C1985 C1989 1.376 . S
C1986 C1984 1.394 . S
C1986 C1987 1.369 . S
C1986 C1990 1.531 . S
C1987 C1986 1.369 . S
C1987 C1988 1.410 . S
C1987 C1995 1.503 . S
C1988 C1987 1.410 . S
C1988 C1989 1.392 . S
C1988 C1991 1.511 . S
C1989 C1985 1.376 . S
C1989 C1988 1.392 . S
C1989 H2001 0.929 . S
C1990 C1986 1.531 . S
C1990 H2002 0.960 . S
C1990 H2003 0.962 . S
C1990 H2004 0.960 . S
C1991 C1988 1.511 . S
C1991 H2005 0.961 . S
C1991 H2006 0.961 . S
C1991 H2007 0.961 . S
C1992 C1993 1.370 . S
C1992 C1994 1.363 . S
C1992 H2008 0.931 . S
C1993 C1992 1.370 . S
C1993 C1997 1.408 . S
C1994 C1992 1.363 . S
C1994 C1995 1.370 . S
C1994 C1998 1.524 . S
C1995 C1987 1.503 . S
C1995 C1994 1.370 . S
C1995 C1996 1.403 . S
C1996 C1995 1.403 . S
C1996 C1997 1.404 . S
C1996 C1999 1.539 . S
C1997 C1993 1.408 . S
C1997 C1996 1.404 . S
C1997 H2009 0.930 . S
C1998 C1994 1.524 . S
C1998 H2010 0.956 . S
C1998 H2011 0.961 . S
C1998 H2012 0.961 . S
C1999 C1996 1.539 . S
C1999 H2013 0.958 . S
C1999 H2014 0.961 . S
C1999 H2015 0.960 . S
H2000 C1984 0.931 . S
H2001 C1989 0.929 . S
H2002 C1990 0.960 . S
H2003 C1990 0.962 . S
H2004 C1990 0.960 . S
H2005 C1991 0.961 . S
H2006 C1991 0.961 . S
H2007 C1991 0.961 . S
H2008 C1992 0.931 . S
H2009 C1997 0.930 . S
H2010 C1998 0.956 . S
H2011 C1998 0.961 . S
H2012 C1998 0.961 . S
H2013 C1999 0.958 . S
H2014 C1999 0.961 . S
H2015 C1999 0.960 . S
C2016 C2017 1.391 . S
C2016 C2018 1.394 . S
C2016 H2032 0.931 . S
C2017 C2016 1.391 . S
C2017 C2021 1.376 . S
C2018 C2016 1.394 . S
C2018 C2019 1.369 . S
C2018 C2022 1.531 . S
C2019 C2018 1.369 . S
C2019 C2020 1.410 . S
C2019 C2027 1.503 . S
C2020 C2019 1.410 . S
C2020 C2021 1.392 . S
C2020 C2023 1.511 . S
C2021 C2017 1.376 . S
C2021 C2020 1.392 . S
C2021 H2033 0.929 . S
C2022 C2018 1.531 . S
C2022 H2034 0.960 . S
C2022 H2035 0.962 . S
C2022 H2036 0.960 . S
C2023 C2020 1.511 . S
C2023 H2037 0.961 . S
C2023 H2038 0.961 . S
C2023 H2039 0.961 . S
C2024 C2025 1.370 . S
C2024 C2026 1.363 . S
C2024 H2040 0.931 . S
C2025 C2024 1.370 . S
C2025 C2029 1.408 . S
C2026 C2024 1.363 . S
C2026 C2027 1.370 . S
C2026 C2030 1.524 . S
C2027 C2019 1.503 . S
C2027 C2026 1.370 . S
C2027 C2028 1.403 . S
C2028 C2027 1.403 . S
C2028 C2029 1.404 . S
C2028 C2031 1.539 . S
C2029 C2025 1.408 . S
C2029 C2028 1.404 . S
C2029 H2041 0.930 . S
C2030 C2026 1.524 . S
C2030 H2042 0.956 . S
C2030 H2043 0.961 . S
C2030 H2044 0.961 . S
C2031 C2028 1.539 . S
C2031 H2045 0.958 . S
C2031 H2046 0.961 . S
C2031 H2047 0.960 . S
H2032 C2016 0.931 . S
H2033 C2021 0.929 . S
H2034 C2022 0.960 . S
H2035 C2022 0.962 . S
H2036 C2022 0.960 . S
H2037 C2023 0.961 . S
H2038 C2023 0.961 . S
H2039 C2023 0.961 . S
H2040 C2024 0.931 . S
H2041 C2029 0.930 . S
H2042 C2030 0.956 . S
H2043 C2030 0.961 . S
H2044 C2030 0.961 . S
H2045 C2031 0.958 . S
H2046 C2031 0.961 . S
H2047 C2031 0.960 . S
C2048 C2049 1.391 . S
C2048 C2050 1.394 . S
C2048 H2064 0.931 . S
C2049 C2048 1.391 . S
C2049 C2053 1.376 1_554 S
C2050 C2048 1.394 . S
C2050 C2051 1.369 . S
C2050 C2054 1.534 . S
C2051 C2050 1.369 . S
C2051 C2052 1.410 1_554 S
C2051 C2059 1.499 1_455 S
C2052 C2051 1.410 1_556 S
C2052 C2053 1.392 . S
C2052 C2055 1.511 . S
C2053 C2049 1.376 1_556 S
C2053 C2052 1.392 . S
C2053 H2065 0.929 . S
C2054 C2050 1.534 . S
C2054 H2066 0.963 . S
C2054 H2067 0.949 1_455 S
C2054 H2068 0.966 . S
C2055 C2052 1.511 . S
C2055 H2069 0.961 . S
C2055 H2070 0.961 . S
C2055 H2071 0.961 . S
C2056 C2057 1.370 . S
C2056 C2058 1.363 . S
C2056 H2072 0.931 . S
C2057 C2056 1.370 . S
C2057 C2061 1.408 1_655 S
C2058 C2056 1.363 . S
C2058 C2059 1.384 . S
C2058 C2062 1.524 . S
C2059 C2051 1.499 1_655 S
C2059 C2058 1.384 . S
C2059 C2060 1.394 1_655 S
C2060 C2059 1.394 1_455 S
C2060 C2061 1.404 . S
C2060 C2063 1.539 . S
C2061 C2057 1.408 1_455 S
C2061 C2060 1.404 . S
C2061 H2073 0.930 . S
C2062 C2058 1.524 . S
C2062 H2074 0.956 . S
C2062 H2075 0.961 1_554 S
C2062 H2076 0.961 . S
C2063 C2060 1.539 . S
C2063 H2077 0.958 . S
C2063 H2078 0.961 . S
C2063 H2079 0.960 . S
H2064 C2048 0.931 . S
H2065 C2053 0.929 . S
H2066 C2054 0.963 . S
H2067 C2054 0.949 1_655 S
H2068 C2054 0.966 . S
H2069 C2055 0.961 . S
H2070 C2055 0.961 . S
H2071 C2055 0.961 . S
H2072 C2056 0.931 . S
H2073 C2061 0.930 . S
H2074 C2062 0.956 . S
H2075 C2062 0.961 1_556 S
H2076 C2062 0.961 . S
H2077 C2063 0.958 . S
H2078 C2063 0.961 . S
H2079 C2063 0.960 . S
C2080 C2081 1.391 . S
C2080 C2082 1.394 . S
C2080 H2096 0.931 . S
C2081 C2080 1.391 . S
C2081 C2085 1.376 . S
C2082 C2080 1.394 . S
C2082 C2083 1.369 . S
C2082 C2086 1.531 . S
C2083 C2082 1.369 . S
C2083 C2084 1.410 . S
C2083 C2091 1.503 . S
C2084 C2083 1.410 . S
C2084 C2085 1.392 . S
C2084 C2087 1.511 . S
C2085 C2081 1.376 . S
C2085 C2084 1.392 . S
C2085 H2097 0.929 . S
C2086 C2082 1.531 . S
C2086 H2098 0.960 . S
C2086 H2099 0.962 . S
C2086 H2100 0.960 . S
C2087 C2084 1.511 . S
C2087 H2101 0.961 . S
C2087 H2102 0.961 . S
C2087 H2103 0.961 . S
C2088 C2089 1.370 . S
C2088 C2090 1.363 . S
C2088 H2104 0.931 . S
C2089 C2088 1.370 . S
C2089 C2093 1.408 . S
C2090 C2088 1.363 . S
C2090 C2091 1.370 . S
C2090 C2094 1.524 . S
C2091 C2083 1.503 . S
C2091 C2090 1.370 . S
C2091 C2092 1.403 . S
C2092 C2091 1.403 . S
C2092 C2093 1.404 . S
C2092 C2095 1.539 . S
C2093 C2089 1.408 . S
C2093 C2092 1.404 . S
C2093 H2105 0.930 . S
C2094 C2090 1.524 . S
C2094 H2106 0.956 . S
C2094 H2107 0.961 . S
C2094 H2108 0.961 . S
C2095 C2092 1.539 . S
C2095 H2109 0.958 . S
C2095 H2110 0.961 . S
C2095 H2111 0.960 . S
H2096 C2080 0.931 . S
H2097 C2085 0.929 . S
H2098 C2086 0.960 . S
H2099 C2086 0.962 . S
H2100 C2086 0.960 . S
H2101 C2087 0.961 . S
H2102 C2087 0.961 . S
H2103 C2087 0.961 . S
H2104 C2088 0.931 . S
H2105 C2093 0.930 . S
H2106 C2094 0.956 . S
H2107 C2094 0.961 . S
H2108 C2094 0.961 . S
H2109 C2095 0.958 . S
H2110 C2095 0.961 . S
H2111 C2095 0.960 . S
C2112 C2113 1.391 . S
C2112 C2114 1.394 . S
C2112 H2128 0.931 . S
C2113 C2112 1.391 . S
C2113 C2117 1.376 . S
C2114 C2112 1.394 . S
C2114 C2115 1.369 . S
C2114 C2118 1.531 . S
C2115 C2114 1.369 . S
C2115 C2116 1.410 . S
C2115 C2123 1.503 . S
C2116 C2115 1.410 . S
C2116 C2117 1.392 . S
C2116 C2119 1.511 . S
C2117 C2113 1.376 . S
C2117 C2116 1.392 . S
C2117 H2129 0.929 . S
C2118 C2114 1.531 . S
C2118 H2130 0.960 . S
C2118 H2131 0.962 . S
C2118 H2132 0.960 . S
C2119 C2116 1.511 . S
C2119 H2133 0.961 . S
C2119 H2134 0.961 . S
C2119 H2135 0.961 . S
C2120 C2121 1.370 . S
C2120 C2122 1.363 . S
C2120 H2136 0.931 . S
C2121 C2120 1.370 . S
C2121 C2125 1.408 . S
C2122 C2120 1.363 . S
C2122 C2123 1.370 . S
C2122 C2126 1.524 . S
C2123 C2115 1.503 . S
C2123 C2122 1.370 . S
C2123 C2124 1.403 . S
C2124 C2123 1.403 . S
C2124 C2125 1.404 . S
C2124 C2127 1.539 . S
C2125 C2121 1.408 . S
C2125 C2124 1.404 . S
C2125 H2137 0.930 1_655 S
C2126 C2122 1.524 . S
C2126 H2138 0.956 . S
C2126 H2139 0.961 . S
C2126 H2140 0.961 . S
C2127 C2124 1.539 . S
C2127 H2141 0.958 . S
C2127 H2142 0.961 . S
C2127 H2143 0.960 . S
H2128 C2112 0.931 . S
H2129 C2117 0.929 . S
H2130 C2118 0.960 . S
H2131 C2118 0.962 . S
H2132 C2118 0.960 . S
H2133 C2119 0.961 . S
H2134 C2119 0.961 . S
H2135 C2119 0.961 . S
H2136 C2120 0.931 . S
H2137 C2125 0.930 1_455 S
H2138 C2126 0.956 . S
H2139 C2126 0.961 . S
H2140 C2126 0.961 . S
H2141 C2127 0.958 . S
H2142 C2127 0.961 . S
H2143 C2127 0.960 . S
C2144 C2145 1.391 . S
C2144 C2146 1.394 . S
C2144 H2160 0.931 . S
C2145 C2144 1.391 . S
C2145 C2149 1.376 . S
C2146 C2144 1.394 . S
C2146 C2147 1.369 . S
C2146 C2150 1.531 . S
C2147 C2146 1.369 . S
C2147 C2148 1.410 . S
C2147 C2155 1.503 . S
C2148 C2147 1.410 . S
C2148 C2149 1.392 . S
C2148 C2151 1.511 . S
C2149 C2145 1.376 . S
C2149 C2148 1.392 . S
C2149 H2161 0.929 . S
C2150 C2146 1.531 . S
C2150 H2162 0.960 . S
C2150 H2163 0.962 . S
C2150 H2164 0.960 . S
C2151 C2148 1.511 . S
C2151 H2165 0.961 . S
C2151 H2166 0.961 . S
C2151 H2167 0.961 . S
C2152 C2153 1.370 . S
C2152 C2154 1.363 . S
C2152 H2168 0.931 . S
C2153 C2152 1.370 . S
C2153 C2157 1.408 . S
C2154 C2152 1.363 . S
C2154 C2155 1.370 . S
C2154 C2158 1.524 . S
C2155 C2147 1.503 . S
C2155 C2154 1.370 . S
C2155 C2156 1.403 . S
C2156 C2155 1.403 . S
C2156 C2157 1.404 . S
C2156 C2159 1.539 . S
C2157 C2153 1.408 . S
C2157 C2156 1.404 . S
C2157 H2169 0.930 . S
C2158 C2154 1.524 . S
C2158 H2170 0.956 . S
C2158 H2171 0.961 . S
C2158 H2172 0.961 . S
C2159 C2156 1.539 . S
C2159 H2173 0.958 . S
C2159 H2174 0.961 . S
C2159 H2175 0.960 . S
H2160 C2144 0.931 . S
H2161 C2149 0.929 . S
H2162 C2150 0.960 . S
H2163 C2150 0.962 . S
H2164 C2150 0.960 . S
H2165 C2151 0.961 . S
H2166 C2151 0.961 . S
H2167 C2151 0.961 . S
H2168 C2152 0.931 . S
H2169 C2157 0.930 . S
H2170 C2158 0.956 . S
H2171 C2158 0.961 . S
H2172 C2158 0.961 . S
H2173 C2159 0.958 . S
H2174 C2159 0.961 . S
H2175 C2159 0.960 . S
C2176 C2177 1.391 . S
C2176 C2178 1.394 . S
C2176 H2192 0.931 . S
C2177 C2176 1.391 . S
C2177 C2181 1.376 . S
C2178 C2176 1.394 . S
C2178 C2179 1.369 . S
C2178 C2182 1.531 . S
C2179 C2178 1.369 . S
C2179 C2180 1.410 . S
C2179 C2187 1.503 . S
C2180 C2179 1.410 . S
C2180 C2181 1.392 . S
C2180 C2183 1.511 . S
C2181 C2177 1.376 . S
C2181 C2180 1.392 . S
C2181 H2193 0.929 . S
C2182 C2178 1.531 . S
C2182 H2194 0.960 . S
C2182 H2195 0.962 . S
C2182 H2196 0.960 . S
C2183 C2180 1.511 . S
C2183 H2197 0.961 . S
C2183 H2198 0.961 . S
C2183 H2199 0.961 . S
C2184 C2185 1.370 . S
C2184 C2186 1.363 . S
C2184 H2200 0.931 . S
C2185 C2184 1.370 . S
C2185 C2189 1.408 . S
C2186 C2184 1.363 . S
C2186 C2187 1.370 . S
C2186 C2190 1.524 . S
C2187 C2179 1.503 . S
C2187 C2186 1.370 . S
C2187 C2188 1.403 . S
C2188 C2187 1.403 . S
C2188 C2189 1.404 . S
C2188 C2191 1.539 . S
C2189 C2185 1.408 . S
C2189 C2188 1.404 . S
C2189 H2201 0.930 . S
C2190 C2186 1.524 . S
C2190 H2202 0.956 . S
C2190 H2203 0.961 . S
C2190 H2204 0.961 . S
C2191 C2188 1.539 . S
C2191 H2205 0.958 . S
C2191 H2206 0.961 . S
C2191 H2207 0.960 . S
H2192 C2176 0.931 . S
H2193 C2181 0.929 . S
H2194 C2182 0.960 . S
H2195 C2182 0.962 . S
H2196 C2182 0.960 . S
H2197 C2183 0.961 . S
H2198 C2183 0.961 . S
H2199 C2183 0.961 . S
H2200 C2184 0.931 . S
H2201 C2189 0.930 . S
H2202 C2190 0.956 . S
H2203 C2190 0.961 . S
H2204 C2190 0.961 . S
H2205 C2191 0.958 . S
H2206 C2191 0.961 . S
H2207 C2191 0.960 . S
C2208 C2209 1.391 . S
C2208 C2210 1.394 . S
C2208 H2224 0.931 . S
C2209 C2208 1.391 . S
C2209 C2213 1.376 . S
C2210 C2208 1.394 . S
C2210 C2211 1.369 . S
C2210 C2214 1.531 . S
C2211 C2210 1.369 . S
C2211 C2212 1.410 . S
C2211 C2219 1.503 . S
C2212 C2211 1.410 . S
C2212 C2213 1.392 . S
C2212 C2215 1.511 . S
C2213 C2209 1.376 . S
C2213 C2212 1.392 . S
C2213 H2225 0.929 . S
C2214 C2210 1.531 . S
C2214 H2226 0.960 . S
C2214 H2227 0.962 . S
C2214 H2228 0.960 . S
C2215 C2212 1.511 . S
C2215 H2229 0.961 . S
C2215 H2230 0.961 . S
C2215 H2231 0.961 . S
C2216 C2217 1.370 . S
C2216 C2218 1.363 . S
C2216 H2232 0.931 . S
C2217 C2216 1.370 . S
C2217 C2221 1.408 . S
C2218 C2216 1.363 . S
C2218 C2219 1.370 . S
C2218 C2222 1.524 . S
C2219 C2211 1.503 . S
C2219 C2218 1.370 . S
C2219 C2220 1.403 . S
C2220 C2219 1.403 . S
C2220 C2221 1.404 . S
C2220 C2223 1.539 . S
C2221 C2217 1.408 . S
C2221 C2220 1.404 . S
C2221 H2233 0.930 . S
C2222 C2218 1.524 . S
C2222 H2234 0.956 . S
C2222 H2235 0.961 . S
C2222 H2236 0.961 . S
C2223 C2220 1.539 . S
C2223 H2237 0.958 . S
C2223 H2238 0.961 . S
C2223 H2239 0.960 . S
H2224 C2208 0.931 . S
H2225 C2213 0.929 . S
H2226 C2214 0.960 . S
H2227 C2214 0.962 . S
H2228 C2214 0.960 . S
H2229 C2215 0.961 . S
H2230 C2215 0.961 . S
H2231 C2215 0.961 . S
H2232 C2216 0.931 . S
H2233 C2221 0.930 . S
H2234 C2222 0.956 . S
H2235 C2222 0.961 . S
H2236 C2222 0.961 . S
H2237 C2223 0.958 . S
H2238 C2223 0.961 . S
H2239 C2223 0.960 . S
C2240 C2241 1.391 . S
C2240 C2242 1.394 . S
C2240 H2256 0.931 . S
C2241 C2240 1.391 . S
C2241 C2245 1.376 . S
C2242 C2240 1.394 . S
C2242 C2243 1.369 . S
C2242 C2246 1.531 . S
C2243 C2242 1.369 . S
C2243 C2244 1.410 . S
C2243 C2251 1.503 . S
C2244 C2243 1.410 . S
C2244 C2245 1.392 . S
C2244 C2247 1.511 . S
C2245 C2241 1.376 . S
C2245 C2244 1.392 . S
C2245 H2257 0.929 . S
C2246 C2242 1.531 . S
C2246 H2258 0.960 . S
C2246 H2259 0.962 . S
C2246 H2260 0.960 . S
C2247 C2244 1.511 . S
C2247 H2261 0.961 . S
C2247 H2262 0.961 . S
C2247 H2263 0.961 . S
C2248 C2249 1.370 . S
C2248 C2250 1.363 . S
C2248 H2264 0.931 . S
C2249 C2248 1.370 . S
C2249 C2253 1.408 . S
C2250 C2248 1.363 . S
C2250 C2251 1.370 . S
C2250 C2254 1.524 . S
C2251 C2243 1.503 . S
C2251 C2250 1.370 . S
C2251 C2252 1.403 . S
C2252 C2251 1.403 . S
C2252 C2253 1.404 . S
C2252 C2255 1.539 . S
C2253 C2249 1.408 . S
C2253 C2252 1.404 . S
C2253 H2265 0.930 . S
C2254 C2250 1.524 . S
C2254 H2266 0.956 . S
C2254 H2267 0.961 . S
C2254 H2268 0.961 . S
C2255 C2252 1.539 . S
C2255 H2269 0.958 . S
C2255 H2270 0.961 . S
C2255 H2271 0.960 . S
H2256 C2240 0.931 . S
H2257 C2245 0.929 . S
H2258 C2246 0.960 . S
H2259 C2246 0.962 . S
H2260 C2246 0.960 . S
H2261 C2247 0.961 . S
H2262 C2247 0.961 . S
H2263 C2247 0.961 . S
H2264 C2248 0.931 . S
H2265 C2253 0.930 . S
H2266 C2254 0.956 . S
H2267 C2254 0.961 . S
H2268 C2254 0.961 . S
H2269 C2255 0.958 . S
H2270 C2255 0.961 . S
H2271 C2255 0.960 . S
C2272 C2273 1.391 . S
C2272 C2274 1.394 . S
C2272 H2288 0.931 . S
C2273 C2272 1.391 . S
C2273 C2277 1.376 . S
C2274 C2272 1.394 . S
C2274 C2275 1.369 . S
C2274 C2278 1.531 . S
C2275 C2274 1.369 . S
C2275 C2276 1.410 . S
C2275 C2283 1.503 . S
C2276 C2275 1.410 . S
C2276 C2277 1.392 . S
C2276 C2279 1.511 . S
C2277 C2273 1.376 . S
C2277 C2276 1.392 . S
C2277 H2289 0.929 . S
C2278 C2274 1.531 . S
C2278 H2290 0.960 . S
C2278 H2291 0.962 . S
C2278 H2292 0.960 . S
C2279 C2276 1.511 . S
C2279 H2293 0.961 . S
C2279 H2294 0.961 . S
C2279 H2295 0.961 . S
C2280 C2281 1.370 . S
C2280 C2282 1.363 . S
C2280 H2296 0.931 . S
C2281 C2280 1.370 . S
C2281 C2285 1.408 . S
C2282 C2280 1.363 . S
C2282 C2283 1.370 . S
C2282 C2286 1.524 . S
C2283 C2275 1.503 . S
C2283 C2282 1.370 . S
C2283 C2284 1.403 . S
C2284 C2283 1.403 . S
C2284 C2285 1.404 . S
C2284 C2287 1.539 . S
C2285 C2281 1.408 . S
C2285 C2284 1.404 . S
C2285 H2297 0.930 . S
C2286 C2282 1.524 . S
C2286 H2298 0.956 . S
C2286 H2299 0.961 . S
C2286 H2300 0.961 . S
C2287 C2284 1.539 . S
C2287 H2301 0.958 . S
C2287 H2302 0.961 . S
C2287 H2303 0.960 . S
H2288 C2272 0.931 . S
H2289 C2277 0.929 . S
H2290 C2278 0.960 . S
H2291 C2278 0.962 . S
H2292 C2278 0.960 . S
H2293 C2279 0.961 . S
H2294 C2279 0.961 . S
H2295 C2279 0.961 . S
H2296 C2280 0.931 . S
H2297 C2285 0.930 . S
H2298 C2286 0.956 . S
H2299 C2286 0.961 . S
H2300 C2286 0.961 . S
H2301 C2287 0.958 . S
H2302 C2287 0.961 . S
H2303 C2287 0.960 . S
C2304 C2305 1.392 . S
C2304 C2306 1.394 . S
C2304 H2320 0.931 1_655 S
C2305 C2304 1.392 . S
C2305 C2309 1.388 . S
C2306 C2304 1.394 . S
C2306 C2307 1.369 . S
C2306 C2310 1.531 . S
C2307 C2306 1.369 . S
C2307 C2308 1.410 . S
C2307 C2315 1.503 . S
C2308 C2307 1.410 . S
C2308 C2309 1.392 . S
C2308 C2311 1.511 . S
C2309 C2305 1.388 . S
C2309 C2308 1.392 . S
C2309 H2321 0.929 . S
C2310 C2306 1.531 . S
C2310 H2322 0.960 . S
C2310 H2323 0.962 . S
C2310 H2324 0.960 . S
C2311 C2308 1.511 . S
C2311 H2325 0.961 . S
C2311 H2326 0.961 . S
C2311 H2327 0.961 . S
C2312 C2313 1.370 . S
C2312 C2314 1.363 . S
C2312 H2328 0.931 . S
C2313 C2312 1.370 . S
C2313 C2317 1.408 . S
C2314 C2312 1.363 . S
C2314 C2315 1.370 . S
C2314 C2318 1.524 . S
C2315 C2307 1.503 . S
C2315 C2314 1.370 . S
C2315 C2316 1.403 . S
C2316 C2315 1.403 . S
C2316 C2317 1.404 . S
C2316 C2319 1.539 . S
C2317 C2313 1.408 . S
C2317 C2316 1.404 . S
C2317 H2329 0.930 . S
C2318 C2314 1.524 . S
C2318 H2330 0.956 . S
C2318 H2331 0.961 . S
C2318 H2332 0.961 . S
C2319 C2316 1.539 . S
C2319 H2333 0.958 . S
C2319 H2334 0.961 . S
C2319 H2335 0.960 . S
H2320 C2304 0.931 1_455 S
H2321 C2309 0.929 . S
H2322 C2310 0.960 . S
H2323 C2310 0.962 . S
H2324 C2310 0.960 . S
H2325 C2311 0.961 . S
H2326 C2311 0.961 . S
H2327 C2311 0.961 . S
H2328 C2312 0.931 . S
H2329 C2317 0.930 . S
H2330 C2318 0.956 . S
H2331 C2318 0.961 . S
H2332 C2318 0.961 . S
H2333 C2319 0.958 . S
H2334 C2319 0.961 . S
H2335 C2319 0.960 . S
C2336 C2337 1.391 . S
C2336 C2338 1.394 . S
C2336 H2352 0.931 . S
C2337 C2336 1.391 . S
C2337 C2341 1.376 . S
C2338 C2336 1.394 . S
C2338 C2339 1.369 . S
C2338 C2342 1.531 . S
C2339 C2338 1.369 . S
C2339 C2340 1.410 . S
C2339 C2347 1.503 . S
C2340 C2339 1.410 . S
C2340 C2341 1.392 . S
C2340 C2343 1.511 . S
C2341 C2337 1.376 . S
C2341 C2340 1.392 . S
C2341 H2353 0.929 . S
C2342 C2338 1.531 . S
C2342 H2354 0.960 . S
C2342 H2355 0.962 . S
C2342 H2356 0.960 . S
C2343 C2340 1.511 . S
C2343 H2357 0.961 . S
C2343 H2358 0.961 . S
C2343 H2359 0.961 . S
C2344 C2345 1.370 . S
C2344 C2346 1.363 . S
C2344 H2360 0.931 . S
C2345 C2344 1.370 . S
C2345 C2349 1.408 . S
C2346 C2344 1.363 . S
C2346 C2347 1.370 . S
C2346 C2350 1.524 . S
C2347 C2339 1.503 . S
C2347 C2346 1.370 . S
C2347 C2348 1.403 . S
C2348 C2347 1.403 . S
C2348 C2349 1.404 . S
C2348 C2351 1.539 . S
C2349 C2345 1.408 . S
C2349 C2348 1.404 . S
C2349 H2361 0.930 . S
C2350 C2346 1.524 . S
C2350 H2362 0.956 . S
C2350 H2363 0.961 . S
C2350 H2364 0.961 . S
C2351 C2348 1.539 . S
C2351 H2365 0.958 . S
C2351 H2366 0.961 . S
C2351 H2367 0.960 . S
H2352 C2336 0.931 . S
H2353 C2341 0.929 . S
H2354 C2342 0.960 . S
H2355 C2342 0.962 . S
H2356 C2342 0.960 . S
H2357 C2343 0.961 . S
H2358 C2343 0.961 . S
H2359 C2343 0.961 . S
H2360 C2344 0.931 . S
H2361 C2349 0.930 . S
H2362 C2350 0.956 . S
H2363 C2350 0.961 . S
H2364 C2350 0.961 . S
H2365 C2351 0.958 . S
H2366 C2351 0.961 . S
H2367 C2351 0.960 . S
C2368 C2369 1.391 . S
C2368 C2370 1.394 . S
C2368 H2384 0.931 . S
C2369 C2368 1.391 . S
C2369 C2373 1.376 1_455 S
C2370 C2368 1.394 . S
C2370 C2371 1.369 . S
C2370 C2374 1.531 . S
C2371 C2370 1.369 . S
C2371 C2372 1.410 . S
C2371 C2379 1.503 . S
C2372 C2371 1.410 . S
C2372 C2373 1.392 1_455 S
C2372 C2375 1.511 . S
C2373 C2369 1.376 1_655 S
C2373 C2372 1.392 1_655 S
C2373 H2385 0.929 . S
C2374 C2370 1.531 . S
C2374 H2386 0.960 . S
C2374 H2387 0.962 . S
C2374 H2388 0.960 . S
C2375 C2372 1.511 . S
C2375 H2389 0.961 1_455 S
C2375 H2390 0.961 . S
C2375 H2391 0.961 . S
C2376 C2377 1.370 . S
C2376 C2378 1.363 . S
C2376 H2392 0.931 . S
C2377 C2376 1.370 . S
C2377 C2381 1.408 . S
C2378 C2376 1.363 . S
C2378 C2379 1.370 . S
C2378 C2382 1.524 . S
C2379 C2371 1.503 . S
C2379 C2378 1.370 . S
C2379 C2380 1.403 . S
C2380 C2379 1.403 . S
C2380 C2381 1.404 . S
C2380 C2383 1.539 . S
C2381 C2377 1.408 . S
C2381 C2380 1.404 . S
C2381 H2393 0.930 . S
C2382 C2378 1.524 . S
C2382 H2394 0.956 . S
C2382 H2395 0.961 . S
C2382 H2396 0.961 . S
C2383 C2380 1.539 . S
C2383 H2397 0.958 . S
C2383 H2398 0.961 . S
C2383 H2399 0.960 . S
H2384 C2368 0.931 . S
H2385 C2373 0.929 . S
H2386 C2374 0.960 . S
H2387 C2374 0.962 . S
H2388 C2374 0.960 . S
H2389 C2375 0.961 1_655 S
H2390 C2375 0.961 . S
H2391 C2375 0.961 . S
H2392 C2376 0.931 . S
H2393 C2381 0.930 . S
H2394 C2382 0.956 . S
H2395 C2382 0.961 . S
H2396 C2382 0.961 . S
H2397 C2383 0.958 . S
H2398 C2383 0.961 . S
H2399 C2383 0.960 . S
C2400 C2401 1.391 . S
C2400 C2402 1.394 . S
C2400 H2416 0.931 . S
C2401 C2400 1.391 . S
C2401 C2405 1.376 . S
C2402 C2400 1.394 . S
C2402 C2403 1.369 . S
C2402 C2406 1.531 . S
C2403 C2402 1.369 . S
C2403 C2404 1.410 . S
C2403 C2411 1.503 . S
C2404 C2403 1.410 . S
C2404 C2405 1.392 . S
C2404 C2407 1.511 . S
C2405 C2401 1.376 . S
C2405 C2404 1.392 . S
C2405 H2417 0.929 . S
C2406 C2402 1.531 . S
C2406 H2418 0.960 . S
C2406 H2419 0.962 . S
C2406 H2420 0.960 . S
C2407 C2404 1.511 . S
C2407 H2421 0.961 . S
C2407 H2422 0.961 . S
C2407 H2423 0.961 . S
C2408 C2409 1.370 . S
C2408 C2410 1.363 . S
C2408 H2424 0.931 . S
C2409 C2408 1.370 . S
C2409 C2413 1.408 . S
C2410 C2408 1.363 . S
C2410 C2411 1.370 . S
C2410 C2414 1.524 . S
C2411 C2403 1.503 . S
C2411 C2410 1.370 . S
C2411 C2412 1.403 . S
C2412 C2411 1.403 . S
C2412 C2413 1.404 . S
C2412 C2415 1.539 . S
C2413 C2409 1.408 . S
C2413 C2412 1.404 . S
C2413 H2425 0.930 . S
C2414 C2410 1.524 . S
C2414 H2426 0.956 . S
C2414 H2427 0.961 . S
C2414 H2428 0.961 . S
C2415 C2412 1.539 . S
C2415 H2429 0.958 . S
C2415 H2430 0.961 . S
C2415 H2431 0.960 . S
H2416 C2400 0.931 . S
H2417 C2405 0.929 . S
H2418 C2406 0.960 . S
H2419 C2406 0.962 . S
H2420 C2406 0.960 . S
H2421 C2407 0.961 . S
H2422 C2407 0.961 . S
H2423 C2407 0.961 . S
H2424 C2408 0.931 . S
H2425 C2413 0.930 . S
H2426 C2414 0.956 . S
H2427 C2414 0.961 . S
H2428 C2414 0.961 . S
H2429 C2415 0.958 . S
H2430 C2415 0.961 . S
H2431 C2415 0.960 . S
C2432 C2433 1.391 . S
C2432 C2434 1.394 . S
C2432 H2448 0.931 . S
C2433 C2432 1.391 . S
C2433 C2437 1.376 . S
C2434 C2432 1.394 . S
C2434 C2435 1.369 . S
C2434 C2438 1.531 . S
C2435 C2434 1.369 . S
C2435 C2436 1.410 . S
C2435 C2443 1.503 . S
C2436 C2435 1.410 . S
C2436 C2437 1.392 . S
C2436 C2439 1.511 . S
C2437 C2433 1.376 . S
C2437 C2436 1.392 . S
C2437 H2449 0.929 . S
C2438 C2434 1.531 . S
C2438 H2450 0.960 . S
C2438 H2451 0.962 . S
C2438 H2452 0.960 . S
C2439 C2436 1.511 . S
C2439 H2453 0.961 . S
C2439 H2454 0.961 . S
C2439 H2455 0.961 . S
C2440 C2441 1.370 . S
C2440 C2442 1.363 . S
C2440 H2456 0.931 . S
C2441 C2440 1.370 . S
C2441 C2445 1.408 . S
C2442 C2440 1.363 . S
C2442 C2443 1.370 . S
C2442 C2446 1.524 . S
C2443 C2435 1.503 . S
C2443 C2442 1.370 . S
C2443 C2444 1.403 . S
C2444 C2443 1.403 . S
C2444 C2445 1.404 . S
C2444 C2447 1.539 . S
C2445 C2441 1.408 . S
C2445 C2444 1.404 . S
C2445 H2457 0.930 . S
C2446 C2442 1.524 . S
C2446 H2458 0.956 . S
C2446 H2459 0.961 . S
C2446 H2460 0.961 . S
C2447 C2444 1.539 . S
C2447 H2461 0.958 . S
C2447 H2462 0.961 . S
C2447 H2463 0.960 . S
H2448 C2432 0.931 . S
H2449 C2437 0.929 . S
H2450 C2438 0.960 . S
H2451 C2438 0.962 . S
H2452 C2438 0.960 . S
H2453 C2439 0.961 . S
H2454 C2439 0.961 . S
H2455 C2439 0.961 . S
H2456 C2440 0.931 . S
H2457 C2445 0.930 . S
H2458 C2446 0.956 . S
H2459 C2446 0.961 . S
H2460 C2446 0.961 . S
H2461 C2447 0.958 . S
H2462 C2447 0.961 . S
H2463 C2447 0.960 . S
C2464 C2465 1.391 . S
C2464 C2466 1.394 . S
C2464 H2480 0.931 . S
C2465 C2464 1.391 . S
C2465 C2469 1.376 . S
C2466 C2464 1.394 . S
C2466 C2467 1.369 . S
C2466 C2470 1.531 . S
C2467 C2466 1.369 . S
C2467 C2468 1.410 . S
C2467 C2475 1.503 . S
C2468 C2467 1.410 . S
C2468 C2469 1.392 . S
C2468 C2471 1.511 . S
C2469 C2465 1.376 . S
C2469 C2468 1.392 . S
C2469 H2481 0.929 . S
C2470 C2466 1.531 . S
C2470 H2482 0.960 . S
C2470 H2483 0.962 . S
C2470 H2484 0.960 . S
C2471 C2468 1.511 . S
C2471 H2485 0.961 . S
C2471 H2486 0.961 . S
C2471 H2487 0.961 . S
C2472 C2473 1.370 . S
C2472 C2474 1.363 . S
C2472 H2488 0.931 . S
C2473 C2472 1.370 . S
C2473 C2477 1.408 . S
C2474 C2472 1.363 . S
C2474 C2475 1.370 . S
C2474 C2478 1.524 . S
C2475 C2467 1.503 . S
C2475 C2474 1.370 . S
C2475 C2476 1.403 . S
C2476 C2475 1.403 . S
C2476 C2477 1.404 . S
C2476 C2479 1.539 . S
C2477 C2473 1.408 . S
C2477 C2476 1.404 . S
C2477 H2489 0.930 . S
C2478 C2474 1.524 . S
C2478 H2490 0.956 . S
C2478 H2491 0.961 . S
C2478 H2492 0.961 . S
C2479 C2476 1.539 . S
C2479 H2493 0.958 . S
C2479 H2494 0.961 . S
C2479 H2495 0.960 . S
H2480 C2464 0.931 . S
H2481 C2469 0.929 . S
H2482 C2470 0.960 . S
H2483 C2470 0.962 . S
H2484 C2470 0.960 . S
H2485 C2471 0.961 . S
H2486 C2471 0.961 . S
H2487 C2471 0.961 . S
H2488 C2472 0.931 . S
H2489 C2477 0.930 . S
H2490 C2478 0.956 . S
H2491 C2478 0.961 . S
H2492 C2478 0.961 . S
H2493 C2479 0.958 . S
H2494 C2479 0.961 . S
H2495 C2479 0.960 . S
C2496 C2497 1.391 . S
C2496 C2498 1.394 . S
C2496 H2512 0.931 . S
C2497 C2496 1.391 . S
C2497 C2501 1.376 . S
C2498 C2496 1.394 . S
C2498 C2499 1.369 . S
C2498 C2502 1.531 . S
C2499 C2498 1.369 . S
C2499 C2500 1.410 . S
C2499 C2507 1.503 . S
C2500 C2499 1.410 . S
C2500 C2501 1.392 . S
C2500 C2503 1.511 . S
C2501 C2497 1.376 . S
C2501 C2500 1.392 . S
C2501 H2513 0.929 . S
C2502 C2498 1.531 . S
C2502 H2514 0.960 . S
C2502 H2515 0.962 . S
C2502 H2516 0.960 . S
C2503 C2500 1.511 . S
C2503 H2517 0.961 . S
C2503 H2518 0.961 . S
C2503 H2519 0.961 . S
C2504 C2505 1.370 . S
C2504 C2506 1.363 . S
C2504 H2520 0.931 . S
C2505 C2504 1.370 . S
C2505 C2509 1.408 . S
C2506 C2504 1.363 . S
C2506 C2507 1.370 . S
C2506 C2510 1.524 . S
C2507 C2499 1.503 . S
C2507 C2506 1.370 . S
C2507 C2508 1.403 . S
C2508 C2507 1.403 . S
C2508 C2509 1.404 . S
C2508 C2511 1.539 . S
C2509 C2505 1.408 . S
C2509 C2508 1.404 . S
C2509 H2521 0.930 . S
C2510 C2506 1.524 . S
C2510 H2522 0.956 . S
C2510 H2523 0.961 . S
C2510 H2524 0.961 . S
C2511 C2508 1.539 . S
C2511 H2525 0.958 . S
C2511 H2526 0.961 . S
C2511 H2527 0.960 . S
H2512 C2496 0.931 . S
H2513 C2501 0.929 . S
H2514 C2502 0.960 . S
H2515 C2502 0.962 . S
H2516 C2502 0.960 . S
H2517 C2503 0.961 . S
H2518 C2503 0.961 . S
H2519 C2503 0.961 . S
H2520 C2504 0.931 . S
H2521 C2509 0.930 . S
H2522 C2510 0.956 . S
H2523 C2510 0.961 . S
H2524 C2510 0.961 . S
H2525 C2511 0.958 . S
H2526 C2511 0.961 . S
H2527 C2511 0.960 . S
C2528 C2529 1.391 . S
C2528 C2530 1.394 . S
C2528 H2544 0.931 . S
C2529 C2528 1.391 . S
C2529 C2533 1.376 . S
C2530 C2528 1.394 . S
C2530 C2531 1.369 . S
C2530 C2534 1.531 . S
C2531 C2530 1.369 . S
C2531 C2532 1.410 . S
C2531 C2539 1.503 . S
C2532 C2531 1.410 . S
C2532 C2533 1.392 . S
C2532 C2535 1.511 . S
C2533 C2529 1.376 . S
C2533 C2532 1.392 . S
C2533 H2545 0.929 . S
C2534 C2530 1.531 . S
C2534 H2546 0.960 . S
C2534 H2547 0.962 . S
C2534 H2548 0.960 . S
C2535 C2532 1.511 . S
C2535 H2549 0.961 . S
C2535 H2550 0.961 . S
C2535 H2551 0.961 . S
C2536 C2537 1.370 . S
C2536 C2538 1.363 . S
C2536 H2552 0.931 . S
C2537 C2536 1.370 . S
C2537 C2541 1.408 . S
C2538 C2536 1.363 . S
C2538 C2539 1.370 . S
C2538 C2542 1.524 . S
C2539 C2531 1.503 . S
C2539 C2538 1.370 . S
C2539 C2540 1.403 . S
C2540 C2539 1.403 . S
C2540 C2541 1.404 . S
C2540 C2543 1.539 . S
C2541 C2537 1.408 . S
C2541 C2540 1.404 . S
C2541 H2553 0.930 . S
C2542 C2538 1.524 . S
C2542 H2554 0.956 . S
C2542 H2555 0.961 . S
C2542 H2556 0.961 . S
C2543 C2540 1.539 . S
C2543 H2557 0.958 . S
C2543 H2558 0.961 . S
C2543 H2559 0.960 . S
H2544 C2528 0.931 . S
H2545 C2533 0.929 . S
H2546 C2534 0.960 . S
H2547 C2534 0.962 . S
H2548 C2534 0.960 . S
H2549 C2535 0.961 . S
H2550 C2535 0.961 . S
H2551 C2535 0.961 . S
H2552 C2536 0.931 . S
H2553 C2541 0.930 . S
H2554 C2542 0.956 . S
H2555 C2542 0.961 . S
H2556 C2542 0.961 . S
H2557 C2543 0.958 . S
H2558 C2543 0.961 . S
H2559 C2543 0.960 . S
C2560 C2561 1.391 . S
C2560 C2562 1.394 . S
C2560 H2576 0.931 . S
C2561 C2560 1.391 . S
C2561 C2565 1.376 . S
C2562 C2560 1.394 . S
C2562 C2563 1.369 . S
C2562 C2566 1.531 . S
C2563 C2562 1.369 . S
C2563 C2564 1.410 . S
C2563 C2571 1.503 . S
C2564 C2563 1.410 . S
C2564 C2565 1.392 . S
C2564 C2567 1.511 . S
C2565 C2561 1.376 . S
C2565 C2564 1.392 . S
C2565 H2577 0.929 . S
C2566 C2562 1.531 . S
C2566 H2578 0.960 . S
C2566 H2579 0.962 . S
C2566 H2580 0.960 . S
C2567 C2564 1.511 . S
C2567 H2581 0.961 . S
C2567 H2582 0.961 . S
C2567 H2583 0.961 . S
C2568 C2569 1.370 . S
C2568 C2570 1.363 . S
C2568 H2584 0.931 1_455 S
C2569 C2568 1.370 . S
C2569 C2573 1.408 . S
C2570 C2568 1.363 . S
C2570 C2571 1.370 . S
C2570 C2574 1.524 . S
C2571 C2563 1.503 . S
C2571 C2570 1.370 . S
C2571 C2572 1.403 . S
C2572 C2571 1.403 . S
C2572 C2573 1.404 . S
C2572 C2575 1.539 . S
C2573 C2569 1.408 . S
C2573 C2572 1.404 . S
C2573 H2585 0.930 . S
C2574 C2570 1.524 . S
C2574 H2586 0.956 . S
C2574 H2587 0.961 . S
C2574 H2588 0.961 . S
C2575 C2572 1.539 . S
C2575 H2589 0.958 . S
C2575 H2590 0.961 . S
C2575 H2591 0.960 . S
H2576 C2560 0.931 . S
H2577 C2565 0.929 . S
H2578 C2566 0.960 . S
H2579 C2566 0.962 . S
H2580 C2566 0.960 . S
H2581 C2567 0.961 . S
H2582 C2567 0.961 . S
H2583 C2567 0.961 . S
H2584 C2568 0.931 1_655 S
H2585 C2573 0.930 . S
H2586 C2574 0.956 . S
H2587 C2574 0.961 . S
H2588 C2574 0.961 . S
H2589 C2575 0.958 . S
H2590 C2575 0.961 . S
H2591 C2575 0.960 . S
C2592 C2593 1.391 . S
C2592 C2594 1.394 . S
C2592 H2608 0.931 . S
C2593 C2592 1.391 . S
C2593 C2597 1.376 . S
C2594 C2592 1.394 . S
C2594 C2595 1.369 . S
C2594 C2598 1.531 . S
C2595 C2594 1.369 . S
C2595 C2596 1.410 . S
C2595 C2603 1.503 . S
C2596 C2595 1.410 . S
C2596 C2597 1.392 . S
C2596 C2599 1.511 . S
C2597 C2593 1.376 . S
C2597 C2596 1.392 . S
C2597 H2609 0.929 . S
C2598 C2594 1.531 . S
C2598 H2610 0.960 . S
C2598 H2611 0.962 . S
C2598 H2612 0.960 . S
C2599 C2596 1.511 . S
C2599 H2613 0.961 . S
C2599 H2614 0.961 . S
C2599 H2615 0.961 . S
C2600 C2601 1.370 . S
C2600 C2602 1.363 . S
C2600 H2616 0.931 . S
C2601 C2600 1.370 . S
C2601 C2605 1.408 . S
C2602 C2600 1.363 . S
C2602 C2603 1.370 . S
C2602 C2606 1.524 . S
C2603 C2595 1.503 . S
C2603 C2602 1.370 . S
C2603 C2604 1.403 . S
C2604 C2603 1.403 . S
C2604 C2605 1.404 . S
C2604 C2607 1.539 . S
C2605 C2601 1.408 . S
C2605 C2604 1.404 . S
C2605 H2617 0.930 . S
C2606 C2602 1.524 . S
C2606 H2618 0.956 . S
C2606 H2619 0.961 . S
C2606 H2620 0.961 . S
C2607 C2604 1.539 . S
C2607 H2621 0.958 . S
C2607 H2622 0.961 . S
C2607 H2623 0.960 . S
H2608 C2592 0.931 . S
H2609 C2597 0.929 . S
H2610 C2598 0.960 . S
H2611 C2598 0.962 . S
H2612 C2598 0.960 . S
H2613 C2599 0.961 . S
H2614 C2599 0.961 . S
H2615 C2599 0.961 . S
H2616 C2600 0.931 . S
H2617 C2605 0.930 . S
H2618 C2606 0.956 . S
H2619 C2606 0.961 . S
H2620 C2606 0.961 . S
H2621 C2607 0.958 . S
H2622 C2607 0.961 . S
H2623 C2607 0.960 . S
C2624 C2625 1.391 . S
C2624 C2626 1.394 . S
C2624 H2640 0.931 . S
C2625 C2624 1.391 . S
C2625 C2629 1.376 . S
C2626 C2624 1.394 . S
C2626 C2627 1.369 . S
C2626 C2630 1.531 . S
C2627 C2626 1.369 . S
C2627 C2628 1.410 . S
C2627 C2635 1.503 . S
C2628 C2627 1.410 . S
C2628 C2629 1.392 . S
C2628 C2631 1.511 . S
C2629 C2625 1.376 . S
C2629 C2628 1.392 . S
C2629 H2641 0.929 . S
C2630 C2626 1.531 . S
C2630 H2642 0.960 . S
C2630 H2643 0.962 . S
C2630 H2644 0.960 . S
C2631 C2628 1.511 . S
C2631 H2645 0.961 . S
C2631 H2646 0.961 . S
C2631 H2647 0.961 . S
C2632 C2633 1.370 . S
C2632 C2634 1.363 . S
C2632 H2648 0.931 . S
C2633 C2632 1.370 . S
C2633 C2637 1.408 . S
C2634 C2632 1.363 . S
C2634 C2635 1.370 . S
C2634 C2638 1.524 . S
C2635 C2627 1.503 . S
C2635 C2634 1.370 . S
C2635 C2636 1.403 . S
C2636 C2635 1.403 . S
C2636 C2637 1.404 . S
C2636 C2639 1.539 . S
C2637 C2633 1.408 . S
C2637 C2636 1.404 . S
C2637 H2649 0.930 . S
C2638 C2634 1.524 . S
C2638 H2650 0.956 . S
C2638 H2651 0.961 . S
C2638 H2652 0.961 . S
C2639 C2636 1.539 . S
C2639 H2653 0.958 . S
C2639 H2654 0.961 . S
C2639 H2655 0.960 . S
H2640 C2624 0.931 . S
H2641 C2629 0.929 . S
H2642 C2630 0.960 . S
H2643 C2630 0.962 . S
H2644 C2630 0.960 . S
H2645 C2631 0.961 . S
H2646 C2631 0.961 . S
H2647 C2631 0.961 . S
H2648 C2632 0.931 . S
H2649 C2637 0.930 . S
H2650 C2638 0.956 . S
H2651 C2638 0.961 . S
H2652 C2638 0.961 . S
H2653 C2639 0.958 . S
H2654 C2639 0.961 . S
H2655 C2639 0.960 . S
C2656 C2657 1.391 . S
C2656 C2658 1.394 . S
C2656 H2672 0.931 . S
C2657 C2656 1.391 . S
C2657 C2661 1.376 . S
C2658 C2656 1.394 . S
C2658 C2659 1.369 . S
C2658 C2662 1.531 . S
C2659 C2658 1.369 . S
C2659 C2660 1.410 . S
C2659 C2667 1.503 . S
C2660 C2659 1.410 . S
C2660 C2661 1.392 . S
C2660 C2663 1.511 . S
C2661 C2657 1.376 . S
C2661 C2660 1.392 . S
C2661 H2673 0.929 . S
C2662 C2658 1.531 . S
C2662 H2674 0.960 . S
C2662 H2675 0.962 . S
C2662 H2676 0.960 . S
C2663 C2660 1.511 . S
C2663 H2677 0.961 . S
C2663 H2678 0.961 . S
C2663 H2679 0.961 . S
C2664 C2665 1.370 . S
C2664 C2666 1.363 . S
C2664 H2680 0.931 . S
C2665 C2664 1.370 . S
C2665 C2669 1.408 . S
C2666 C2664 1.363 . S
C2666 C2667 1.370 . S
C2666 C2670 1.524 . S
C2667 C2659 1.503 . S
C2667 C2666 1.370 . S
C2667 C2668 1.403 . S
C2668 C2667 1.403 . S
C2668 C2669 1.404 . S
C2668 C2671 1.539 . S
C2669 C2665 1.408 . S
C2669 C2668 1.404 . S
C2669 H2681 0.930 . S
C2670 C2666 1.524 . S
C2670 H2682 0.956 . S
C2670 H2683 0.961 . S
C2670 H2684 0.961 . S
C2671 C2668 1.539 . S
C2671 H2685 0.958 . S
C2671 H2686 0.961 . S
C2671 H2687 0.960 . S
H2672 C2656 0.931 . S
H2673 C2661 0.929 . S
H2674 C2662 0.960 . S
H2675 C2662 0.962 . S
H2676 C2662 0.960 . S
H2677 C2663 0.961 . S
H2678 C2663 0.961 . S
H2679 C2663 0.961 . S
H2680 C2664 0.931 . S
H2681 C2669 0.930 . S
H2682 C2670 0.956 . S
H2683 C2670 0.961 . S
H2684 C2670 0.961 . S
H2685 C2671 0.958 . S
H2686 C2671 0.961 . S
H2687 C2671 0.960 . S
C2688 C2689 1.394 . S
C2688 C2690 1.394 . S
C2688 H2704 0.931 . S
C2689 C2688 1.394 . S
C2689 C2693 1.379 . S
C2690 C2688 1.394 . S
C2690 C2691 1.369 . S
C2690 C2694 1.531 . S
C2691 C2690 1.369 . S
C2691 C2692 1.410 . S
C2691 C2699 1.503 . S
C2692 C2691 1.410 . S
C2692 C2693 1.392 . S
C2692 C2695 1.511 . S
C2693 C2689 1.379 . S
C2693 C2692 1.392 . S
C2693 H2705 0.929 . S
C2694 C2690 1.531 . S
C2694 H2706 0.960 . S
C2694 H2707 0.962 . S
C2694 H2708 0.960 . S
C2695 C2692 1.511 . S
C2695 H2709 0.961 . S
C2695 H2710 0.961 . S
C2695 H2711 0.961 . S
C2696 C2697 1.370 . S
C2696 C2698 1.363 . S
C2696 H2712 0.931 . S
C2697 C2696 1.370 . S
C2697 C2701 1.408 . S
C2698 C2696 1.363 . S
C2698 C2699 1.370 . S
C2698 C2702 1.524 . S
C2699 C2691 1.503 . S
C2699 C2698 1.370 . S
C2699 C2700 1.403 . S
C2700 C2699 1.403 . S
C2700 C2701 1.404 . S
C2700 C2703 1.539 . S
C2701 C2697 1.408 . S
C2701 C2700 1.404 . S
C2701 H2713 0.930 . S
C2702 C2698 1.524 . S
C2702 H2714 0.956 . S
C2702 H2715 0.961 . S
C2702 H2716 0.961 . S
C2703 C2700 1.539 . S
C2703 H2717 0.958 . S
C2703 H2718 0.961 . S
C2703 H2719 0.960 . S
H2704 C2688 0.931 . S
H2705 C2693 0.929 . S
H2706 C2694 0.960 . S
H2707 C2694 0.962 . S
H2708 C2694 0.960 . S
H2709 C2695 0.961 . S
H2710 C2695 0.961 . S
H2711 C2695 0.961 . S
H2712 C2696 0.931 . S
H2713 C2701 0.930 . S
H2714 C2702 0.956 . S
H2715 C2702 0.961 . S
H2716 C2702 0.961 . S
H2717 C2703 0.958 . S
H2718 C2703 0.961 . S
H2719 C2703 0.960 . S
C2720 C2721 1.391 . S
C2720 C2722 1.394 . S
C2720 H2736 0.931 . S
C2721 C2720 1.391 . S
C2721 C2725 1.376 . S
C2722 C2720 1.394 . S
C2722 C2723 1.369 . S
C2722 C2726 1.531 . S
C2723 C2722 1.369 . S
C2723 C2724 1.410 . S
C2723 C2731 1.503 . S
C2724 C2723 1.410 . S
C2724 C2725 1.392 . S
C2724 C2727 1.511 . S
C2725 C2721 1.376 . S
C2725 C2724 1.392 . S
C2725 H2737 0.929 . S
C2726 C2722 1.531 . S
C2726 H2738 0.960 . S
C2726 H2739 0.962 . S
C2726 H2740 0.960 . S
C2727 C2724 1.511 . S
C2727 H2741 0.961 . S
C2727 H2742 0.961 . S
C2727 H2743 0.961 . S
C2728 C2729 1.370 . S
C2728 C2730 1.363 . S
C2728 H2744 0.931 . S
C2729 C2728 1.370 . S
C2729 C2733 1.408 . S
C2730 C2728 1.363 . S
C2730 C2731 1.370 . S
C2730 C2734 1.524 . S
C2731 C2723 1.503 . S
C2731 C2730 1.370 . S
C2731 C2732 1.403 . S
C2732 C2731 1.403 . S
C2732 C2733 1.404 . S
C2732 C2735 1.539 . S
C2733 C2729 1.408 . S
C2733 C2732 1.404 . S
C2733 H2745 0.930 . S
C2734 C2730 1.524 . S
C2734 H2746 0.956 . S
C2734 H2747 0.961 . S
C2734 H2748 0.961 . S
C2735 C2732 1.539 . S
C2735 H2749 0.958 . S
C2735 H2750 0.961 . S
C2735 H2751 0.960 . S
H2736 C2720 0.931 . S
H2737 C2725 0.929 . S
H2738 C2726 0.960 . S
H2739 C2726 0.962 . S
H2740 C2726 0.960 . S
H2741 C2727 0.961 . S
H2742 C2727 0.961 . S
H2743 C2727 0.961 . S
H2744 C2728 0.931 . S
H2745 C2733 0.930 . S
H2746 C2734 0.956 . S
H2747 C2734 0.961 . S
H2748 C2734 0.961 . S
H2749 C2735 0.958 . S
H2750 C2735 0.961 . S
H2751 C2735 0.960 . S
C2752 C2753 1.391 . S
C2752 C2754 1.394 . S
C2752 H2768 0.931 . S
C2753 C2752 1.391 . S
C2753 C2757 1.376 . S
C2754 C2752 1.394 . S
C2754 C2755 1.369 . S
C2754 C2758 1.531 . S
C2755 C2754 1.369 . S
C2755 C2756 1.410 . S
C2755 C2763 1.503 . S
C2756 C2755 1.410 . S
C2756 C2757 1.392 . S
C2756 C2759 1.511 . S
C2757 C2753 1.376 . S
C2757 C2756 1.392 . S
C2757 H2769 0.929 . S
C2758 C2754 1.531 . S
C2758 H2770 0.960 . S
C2758 H2771 0.962 . S
C2758 H2772 0.960 . S
C2759 C2756 1.511 . S
C2759 H2773 0.961 . S
C2759 H2774 0.961 . S
C2759 H2775 0.961 . S
C2760 C2761 1.368 1_655 S
C2760 C2762 1.351 1_655 S
C2760 H2776 0.945 . S
C2761 C2760 1.368 1_455 S
C2761 C2765 1.408 . S
C2762 C2760 1.351 1_455 S
C2762 C2763 1.370 . S
C2762 C2766 1.524 . S
C2763 C2755 1.503 . S
C2763 C2762 1.370 . S
C2763 C2764 1.403 . S
C2764 C2763 1.403 . S
C2764 C2765 1.404 . S
C2764 C2767 1.539 . S
C2765 C2761 1.408 . S
C2765 C2764 1.404 . S
C2765 H2777 0.930 . S
C2766 C2762 1.524 . S
C2766 H2778 0.956 . S
C2766 H2779 0.961 . S
C2766 H2780 0.961 1_455 S
C2767 C2764 1.539 . S
C2767 H2781 0.958 . S
C2767 H2782 0.961 . S
C2767 H2783 0.960 . S
H2768 C2752 0.931 . S
H2769 C2757 0.929 . S
H2770 C2758 0.960 . S
H2771 C2758 0.962 . S
H2772 C2758 0.960 . S
H2773 C2759 0.961 . S
H2774 C2759 0.961 . S
H2775 C2759 0.961 . S
H2776 C2760 0.945 . S
H2777 C2765 0.930 . S
H2778 C2766 0.956 . S
H2779 C2766 0.961 . S
H2780 C2766 0.961 1_655 S
H2781 C2767 0.958 . S
H2782 C2767 0.961 . S
H2783 C2767 0.960 . S
C2784 C2785 1.391 . S
C2784 C2786 1.394 . S
C2784 H2800 0.931 . S
C2785 C2784 1.391 . S
C2785 C2789 1.376 . S
C2786 C2784 1.394 . S
C2786 C2787 1.369 . S
C2786 C2790 1.531 . S
C2787 C2786 1.369 . S
C2787 C2788 1.410 . S
C2787 C2795 1.503 . S
C2788 C2787 1.410 . S
C2788 C2789 1.392 . S
C2788 C2791 1.511 . S
C2789 C2785 1.376 . S
C2789 C2788 1.392 . S
C2789 H2801 0.929 . S
C2790 C2786 1.531 . S
C2790 H2802 0.960 . S
C2790 H2803 0.962 . S
C2790 H2804 0.960 . S
C2791 C2788 1.511 . S
C2791 H2805 0.961 . S
C2791 H2806 0.961 . S
C2791 H2807 0.961 . S
C2792 C2793 1.370 . S
C2792 C2794 1.363 . S
C2792 H2808 0.931 . S
C2793 C2792 1.370 . S
C2793 C2797 1.408 . S
C2794 C2792 1.363 . S
C2794 C2795 1.370 . S
C2794 C2798 1.524 . S
C2795 C2787 1.503 . S
C2795 C2794 1.370 . S
C2795 C2796 1.403 . S
C2796 C2795 1.403 . S
C2796 C2797 1.404 . S
C2796 C2799 1.539 . S
C2797 C2793 1.408 . S
C2797 C2796 1.404 . S
C2797 H2809 0.930 . S
C2798 C2794 1.524 . S
C2798 H2810 0.956 . S
C2798 H2811 0.961 . S
C2798 H2812 0.961 . S
C2799 C2796 1.539 . S
C2799 H2813 0.958 . S
C2799 H2814 0.961 . S
C2799 H2815 0.960 . S
H2800 C2784 0.931 . S
H2801 C2789 0.929 . S
H2802 C2790 0.960 . S
H2803 C2790 0.962 . S
H2804 C2790 0.960 . S
H2805 C2791 0.961 . S
H2806 C2791 0.961 . S
H2807 C2791 0.961 . S
H2808 C2792 0.931 . S
H2809 C2797 0.930 . S
H2810 C2798 0.956 . S
H2811 C2798 0.961 . S
H2812 C2798 0.961 . S
H2813 C2799 0.958 . S
H2814 C2799 0.961 . S
H2815 C2799 0.960 . S
C2816 C2817 1.391 . S
C2816 C2818 1.394 . S
C2816 H2832 0.931 . S
C2817 C2816 1.391 . S
C2817 C2821 1.376 . S
C2818 C2816 1.394 . S
C2818 C2819 1.369 . S
C2818 C2822 1.531 . S
C2819 C2818 1.369 . S
C2819 C2820 1.410 . S
C2819 C2827 1.503 . S
C2820 C2819 1.410 . S
C2820 C2821 1.392 . S
C2820 C2823 1.511 . S
C2821 C2817 1.376 . S
C2821 C2820 1.392 . S
C2821 H2833 0.929 . S
C2822 C2818 1.531 . S
C2822 H2834 0.960 . S
C2822 H2835 0.962 . S
C2822 H2836 0.960 . S
C2823 C2820 1.511 . S
C2823 H2837 0.961 . S
C2823 H2838 0.961 . S
C2823 H2839 0.961 . S
C2824 C2825 1.370 . S
C2824 C2826 1.363 . S
C2824 H2840 0.931 . S
C2825 C2824 1.370 . S
C2825 C2829 1.408 . S
C2826 C2824 1.363 . S
C2826 C2827 1.370 . S
C2826 C2830 1.524 . S
C2827 C2819 1.503 . S
C2827 C2826 1.370 . S
C2827 C2828 1.403 . S
C2828 C2827 1.403 . S
C2828 C2829 1.404 . S
C2828 C2831 1.539 . S
C2829 C2825 1.408 . S
C2829 C2828 1.404 . S
C2829 H2841 0.930 . S
C2830 C2826 1.524 . S
C2830 H2842 0.956 . S
C2830 H2843 0.961 . S
C2830 H2844 0.961 . S
C2831 C2828 1.539 . S
C2831 H2845 0.958 . S
C2831 H2846 0.961 . S
C2831 H2847 0.960 . S
H2832 C2816 0.931 . S
H2833 C2821 0.929 . S
H2834 C2822 0.960 . S
H2835 C2822 0.962 . S
H2836 C2822 0.960 . S
H2837 C2823 0.961 . S
H2838 C2823 0.961 . S
H2839 C2823 0.961 . S
H2840 C2824 0.931 . S
H2841 C2829 0.930 . S
H2842 C2830 0.956 . S
H2843 C2830 0.961 . S
H2844 C2830 0.961 . S
H2845 C2831 0.958 . S
H2846 C2831 0.961 . S
H2847 C2831 0.960 . S
C2848 C2849 1.391 . S
C2848 C2850 1.394 . S
C2848 H2864 0.931 . S
C2849 C2848 1.391 . S
C2849 C2853 1.376 . S
C2850 C2848 1.394 . S
C2850 C2851 1.369 . S
C2850 C2854 1.531 . S
C2851 C2850 1.369 . S
C2851 C2852 1.410 . S
C2851 C2859 1.503 . S
C2852 C2851 1.410 . S
C2852 C2853 1.392 . S
C2852 C2855 1.511 . S
C2853 C2849 1.376 . S
C2853 C2852 1.392 . S
C2853 H2865 0.929 . S
C2854 C2850 1.531 . S
C2854 H2866 0.960 . S
C2854 H2867 0.962 . S
C2854 H2868 0.960 . S
C2855 C2852 1.511 . S
C2855 H2869 0.961 . S
C2855 H2870 0.961 . S
C2855 H2871 0.961 . S
C2856 C2857 1.370 . S
C2856 C2858 1.363 . S
C2856 H2872 0.931 . S
C2857 C2856 1.370 . S
C2857 C2861 1.408 . S
C2858 C2856 1.363 . S
C2858 C2859 1.370 . S
C2858 C2862 1.524 . S
C2859 C2851 1.503 . S
C2859 C2858 1.370 . S
C2859 C2860 1.403 . S
C2860 C2859 1.403 . S
C2860 C2861 1.404 . S
C2860 C2863 1.539 . S
C2861 C2857 1.408 . S
C2861 C2860 1.404 . S
C2861 H2873 0.930 . S
C2862 C2858 1.524 . S
C2862 H2874 0.956 . S
C2862 H2875 0.961 . S
C2862 H2876 0.961 . S
C2863 C2860 1.539 . S
C2863 H2877 0.958 . S
C2863 H2878 0.961 . S
C2863 H2879 0.960 . S
H2864 C2848 0.931 . S
H2865 C2853 0.929 . S
H2866 C2854 0.960 . S
H2867 C2854 0.962 . S
H2868 C2854 0.960 . S
H2869 C2855 0.961 . S
H2870 C2855 0.961 . S
H2871 C2855 0.961 . S
H2872 C2856 0.931 . S
H2873 C2861 0.930 . S
H2874 C2862 0.956 . S
H2875 C2862 0.961 . S
H2876 C2862 0.961 . S
H2877 C2863 0.958 . S
H2878 C2863 0.961 . S
H2879 C2863 0.960 . S
C2880 C2881 1.391 . S
C2880 C2882 1.394 . S
C2880 H2896 0.931 . S
C2881 C2880 1.391 . S
C2881 C2885 1.376 . S
C2882 C2880 1.394 . S
C2882 C2883 1.369 . S
C2882 C2886 1.531 . S
C2883 C2882 1.369 . S
C2883 C2884 1.410 . S
C2883 C2891 1.503 . S
C2884 C2883 1.410 . S
C2884 C2885 1.392 . S
C2884 C2887 1.511 . S
C2885 C2881 1.376 . S
C2885 C2884 1.392 . S
C2885 H2897 0.929 . S
C2886 C2882 1.531 . S
C2886 H2898 0.960 . S
C2886 H2899 0.962 . S
C2886 H2900 0.960 . S
C2887 C2884 1.511 . S
C2887 H2901 0.961 . S
C2887 H2902 0.961 . S
C2887 H2903 0.961 . S
C2888 C2889 1.370 . S
C2888 C2890 1.363 . S
C2888 H2904 0.931 . S
C2889 C2888 1.370 . S
C2889 C2893 1.408 . S
C2890 C2888 1.363 . S
C2890 C2891 1.370 . S
C2890 C2894 1.524 . S
C2891 C2883 1.503 . S
C2891 C2890 1.370 . S
C2891 C2892 1.403 . S
C2892 C2891 1.403 . S
C2892 C2893 1.404 . S
C2892 C2895 1.539 . S
C2893 C2889 1.408 . S
C2893 C2892 1.404 . S
C2893 H2905 0.930 . S
C2894 C2890 1.524 . S
C2894 H2906 0.956 . S
C2894 H2907 0.961 . S
C2894 H2908 0.961 . S
C2895 C2892 1.539 . S
C2895 H2909 0.958 . S
C2895 H2910 0.961 . S
C2895 H2911 0.960 . S
H2896 C2880 0.931 . S
H2897 C2885 0.929 . S
H2898 C2886 0.960 . S
H2899 C2886 0.962 . S
H2900 C2886 0.960 . S
H2901 C2887 0.961 . S
H2902 C2887 0.961 . S
H2903 C2887 0.961 . S
H2904 C2888 0.931 . S
H2905 C2893 0.930 . S
H2906 C2894 0.956 . S
H2907 C2894 0.961 . S
H2908 C2894 0.961 . S
H2909 C2895 0.958 . S
H2910 C2895 0.961 . S
H2911 C2895 0.960 . S
C2912 C2913 1.391 . S
C2912 C2914 1.394 . S
C2912 H2928 0.931 . S
C2913 C2912 1.391 . S
C2913 C2917 1.376 . S
C2914 C2912 1.394 . S
C2914 C2915 1.369 . S
C2914 C2918 1.531 . S
C2915 C2914 1.369 . S
C2915 C2916 1.410 . S
C2915 C2923 1.503 . S
C2916 C2915 1.410 . S
C2916 C2917 1.392 . S
C2916 C2919 1.511 . S
C2917 C2913 1.376 . S
C2917 C2916 1.392 . S
C2917 H2929 0.929 . S
C2918 C2914 1.531 . S
C2918 H2930 0.960 . S
C2918 H2931 0.962 . S
C2918 H2932 0.960 . S
C2919 C2916 1.511 . S
C2919 H2933 0.961 . S
C2919 H2934 0.961 . S
C2919 H2935 0.961 . S
C2920 C2921 1.370 . S
C2920 C2922 1.363 . S
C2920 H2936 0.931 . S
C2921 C2920 1.370 . S
C2921 C2925 1.408 . S
C2922 C2920 1.363 . S
C2922 C2923 1.370 . S
C2922 C2926 1.524 . S
C2923 C2915 1.503 . S
C2923 C2922 1.370 . S
C2923 C2924 1.403 . S
C2924 C2923 1.403 . S
C2924 C2925 1.404 . S
C2924 C2927 1.539 . S
C2925 C2921 1.408 . S
C2925 C2924 1.404 . S
C2925 H2937 0.930 . S
C2926 C2922 1.524 . S
C2926 H2938 0.956 . S
C2926 H2939 0.961 . S
C2926 H2940 0.961 . S
C2927 C2924 1.539 . S
C2927 H2941 0.958 . S
C2927 H2942 0.961 . S
C2927 H2943 0.960 . S
H2928 C2912 0.931 . S
H2929 C2917 0.929 . S
H2930 C2918 0.960 . S
H2931 C2918 0.962 . S
H2932 C2918 0.960 . S
H2933 C2919 0.961 . S
H2934 C2919 0.961 . S
H2935 C2919 0.961 . S
H2936 C2920 0.931 . S
H2937 C2925 0.930 . S
H2938 C2926 0.956 . S
H2939 C2926 0.961 . S
H2940 C2926 0.961 . S
H2941 C2927 0.958 . S
H2942 C2927 0.961 . S
H2943 C2927 0.960 . S
C2944 C2945 1.391 . S
C2944 C2946 1.394 . S
C2944 H2960 0.931 . S
C2945 C2944 1.391 . S
C2945 C2949 1.376 . S
C2946 C2944 1.394 . S
C2946 C2947 1.369 . S
C2946 C2950 1.531 . S
C2947 C2946 1.369 . S
C2947 C2948 1.410 . S
C2947 C2955 1.503 . S
C2948 C2947 1.410 . S
C2948 C2949 1.392 . S
C2948 C2951 1.511 . S
C2949 C2945 1.376 . S
C2949 C2948 1.392 . S
C2949 H2961 0.929 . S
C2950 C2946 1.531 . S
C2950 H2962 0.960 . S
C2950 H2963 0.962 . S
C2950 H2964 0.960 . S
C2951 C2948 1.511 . S
C2951 H2965 0.961 . S
C2951 H2966 0.961 . S
C2951 H2967 0.961 . S
C2952 C2953 1.372 . S
C2952 C2954 1.380 . S
C2952 H2968 0.912 1_655 S
C2953 C2952 1.372 . S
C2953 C2957 1.408 . S
C2954 C2952 1.380 . S
C2954 C2955 1.370 . S
C2954 C2958 1.524 . S
C2955 C2947 1.503 . S
C2955 C2954 1.370 . S
C2955 C2956 1.403 . S
C2956 C2955 1.403 . S
C2956 C2957 1.404 . S
C2956 C2959 1.539 . S
C2957 C2953 1.408 . S
C2957 C2956 1.404 . S
C2957 H2969 0.930 . S
C2958 C2954 1.524 . S
C2958 H2970 0.956 . S
C2958 H2971 0.961 . S
C2958 H2972 0.950 1_655 S
C2959 C2956 1.539 . S
C2959 H2973 0.958 . S
C2959 H2974 0.961 . S
C2959 H2975 0.960 . S
H2960 C2944 0.931 . S
H2961 C2949 0.929 . S
H2962 C2950 0.960 . S
H2963 C2950 0.962 . S
H2964 C2950 0.960 . S
H2965 C2951 0.961 . S
H2966 C2951 0.961 . S
H2967 C2951 0.961 . S
H2968 C2952 0.912 1_455 S
H2969 C2957 0.930 . S
H2970 C2958 0.956 . S
H2971 C2958 0.961 . S
H2972 C2958 0.950 1_455 S
H2973 C2959 0.958 . S
H2974 C2959 0.961 . S
H2975 C2959 0.960 . S
C2976 C2977 1.391 . S
C2976 C2978 1.394 . S
C2976 H2992 0.931 . S
C2977 C2976 1.391 . S
C2977 C2981 1.376 . S
C2978 C2976 1.394 . S
C2978 C2979 1.369 . S
C2978 C2982 1.531 . S
C2979 C2978 1.369 . S
C2979 C2980 1.410 . S
C2979 C2987 1.503 . S
C2980 C2979 1.410 . S
C2980 C2981 1.392 . S
C2980 C2983 1.511 . S
C2981 C2977 1.376 . S
C2981 C2980 1.392 . S
C2981 H2993 0.929 . S
C2982 C2978 1.531 . S
C2982 H2994 0.960 . S
C2982 H2995 0.962 . S
C2982 H2996 0.960 . S
C2983 C2980 1.511 . S
C2983 H2997 0.961 . S
C2983 H2998 0.961 . S
C2983 H2999 0.961 . S
C2984 C2985 1.370 . S
C2984 C2986 1.363 . S
C2984 H3000 0.931 . S
C2985 C2984 1.370 . S
C2985 C2989 1.408 . S
C2986 C2984 1.363 . S
C2986 C2987 1.370 . S
C2986 C2990 1.524 . S
C2987 C2979 1.503 . S
C2987 C2986 1.370 . S
C2987 C2988 1.403 . S
C2988 C2987 1.403 . S
C2988 C2989 1.404 . S
C2988 C2991 1.539 . S
C2989 C2985 1.408 . S
C2989 C2988 1.404 . S
C2989 H3001 0.930 . S
C2990 C2986 1.524 . S
C2990 H3002 0.956 . S
C2990 H3003 0.961 . S
C2990 H3004 0.961 . S
C2991 C2988 1.539 . S
C2991 H3005 0.958 . S
C2991 H3006 0.961 . S
C2991 H3007 0.960 . S
H2992 C2976 0.931 . S
H2993 C2981 0.929 . S
H2994 C2982 0.960 . S
H2995 C2982 0.962 . S
H2996 C2982 0.960 . S
H2997 C2983 0.961 . S
H2998 C2983 0.961 . S
H2999 C2983 0.961 . S
H3000 C2984 0.931 . S
H3001 C2989 0.930 . S
H3002 C2990 0.956 . S
H3003 C2990 0.961 . S
H3004 C2990 0.961 . S
H3005 C2991 0.958 . S
H3006 C2991 0.961 . S
H3007 C2991 0.960 . S
C3008 C3009 1.391 . S
C3008 C3010 1.394 . S
C3008 H3024 0.931 . S
C3009 C3008 1.391 . S
C3009 C3013 1.376 . S
C3010 C3008 1.394 . S
C3010 C3011 1.369 . S
C3010 C3014 1.531 . S
C3011 C3010 1.369 . S
C3011 C3012 1.410 . S
C3011 C3019 1.503 . S
C3012 C3011 1.410 . S
C3012 C3013 1.392 . S
C3012 C3015 1.511 . S
C3013 C3009 1.376 . S
C3013 C3012 1.392 . S
C3013 H3025 0.929 . S
C3014 C3010 1.531 . S
C3014 H3026 0.960 . S
C3014 H3027 0.962 . S
C3014 H3028 0.960 . S
C3015 C3012 1.511 . S
C3015 H3029 0.961 . S
C3015 H3030 0.961 . S
C3015 H3031 0.961 . S
C3016 C3017 1.370 . S
C3016 C3018 1.363 . S
C3016 H3032 0.931 . S
C3017 C3016 1.370 . S
C3017 C3021 1.408 . S
C3018 C3016 1.363 . S
C3018 C3019 1.370 . S
C3018 C3022 1.524 . S
C3019 C3011 1.503 . S
C3019 C3018 1.370 . S
C3019 C3020 1.403 . S
C3020 C3019 1.403 . S
C3020 C3021 1.404 . S
C3020 C3023 1.539 . S
C3021 C3017 1.408 . S
C3021 C3020 1.404 . S
C3021 H3033 0.930 1_655 S
C3022 C3018 1.524 . S
C3022 H3034 0.956 . S
C3022 H3035 0.961 . S
C3022 H3036 0.961 . S
C3023 C3020 1.539 . S
C3023 H3037 0.958 . S
C3023 H3038 0.961 . S
C3023 H3039 0.960 . S
H3024 C3008 0.931 . S
H3025 C3013 0.929 . S
H3026 C3014 0.960 . S
H3027 C3014 0.962 . S
H3028 C3014 0.960 . S
H3029 C3015 0.961 . S
H3030 C3015 0.961 . S
H3031 C3015 0.961 . S
H3032 C3016 0.931 . S
H3033 C3021 0.930 1_455 S
H3034 C3022 0.956 . S
H3035 C3022 0.961 . S
H3036 C3022 0.961 . S
H3037 C3023 0.958 . S
H3038 C3023 0.961 . S
H3039 C3023 0.960 . S
C3040 C3041 1.391 . S
C3040 C3042 1.394 . S
C3040 H3056 0.931 . S
C3041 C3040 1.391 . S
C3041 C3045 1.376 . S
C3042 C3040 1.394 . S
C3042 C3043 1.369 . S
C3042 C3046 1.531 . S
C3043 C3042 1.369 . S
C3043 C3044 1.410 . S
C3043 C3051 1.503 . S
C3044 C3043 1.410 . S
C3044 C3045 1.392 . S
C3044 C3047 1.511 . S
C3045 C3041 1.376 . S
C3045 C3044 1.392 . S
C3045 H3057 0.929 . S
C3046 C3042 1.531 . S
C3046 H3058 0.960 . S
C3046 H3059 0.962 . S
C3046 H3060 0.960 . S
C3047 C3044 1.511 . S
C3047 H3061 0.961 . S
C3047 H3062 0.961 . S
C3047 H3063 0.961 . S
C3048 C3049 1.370 . S
C3048 C3050 1.363 . S
C3048 H3064 0.931 . S
C3049 C3048 1.370 . S
C3049 C3053 1.408 . S
C3050 C3048 1.363 . S
C3050 C3051 1.370 . S
C3050 C3054 1.524 . S
C3051 C3043 1.503 . S
C3051 C3050 1.370 . S
C3051 C3052 1.403 . S
C3052 C3051 1.403 . S
C3052 C3053 1.404 . S
C3052 C3055 1.539 . S
C3053 C3049 1.408 . S
C3053 C3052 1.404 . S
C3053 H3065 0.930 . S
C3054 C3050 1.524 . S
C3054 H3066 0.956 . S
C3054 H3067 0.961 . S
C3054 H3068 0.961 . S
C3055 C3052 1.539 . S
C3055 H3069 0.958 . S
C3055 H3070 0.961 . S
C3055 H3071 0.960 . S
H3056 C3040 0.931 . S
H3057 C3045 0.929 . S
H3058 C3046 0.960 . S
H3059 C3046 0.962 . S
H3060 C3046 0.960 . S
H3061 C3047 0.961 . S
H3062 C3047 0.961 . S
H3063 C3047 0.961 . S
H3064 C3048 0.931 . S
H3065 C3053 0.930 . S
H3066 C3054 0.956 . S
H3067 C3054 0.961 . S
H3068 C3054 0.961 . S
H3069 C3055 0.958 . S
H3070 C3055 0.961 . S
H3071 C3055 0.960 . S
C3072 C3073 1.391 . S
C3072 C3074 1.394 . S
C3072 H3088 0.931 . S
C3073 C3072 1.391 . S
C3073 C3077 1.376 . S
C3074 C3072 1.394 . S
C3074 C3075 1.369 . S
C3074 C3078 1.531 . S
C3075 C3074 1.369 . S
C3075 C3076 1.410 . S
C3075 C3083 1.503 . S
C3076 C3075 1.410 . S
C3076 C3077 1.392 . S
C3076 C3079 1.511 . S
C3077 C3073 1.376 . S
C3077 C3076 1.392 . S
C3077 H3089 0.929 . S
C3078 C3074 1.531 . S
C3078 H3090 0.960 . S
C3078 H3091 0.962 . S
C3078 H3092 0.960 . S
C3079 C3076 1.511 . S
C3079 H3093 0.961 . S
C3079 H3094 0.961 . S
C3079 H3095 0.961 . S
C3080 C3081 1.370 . S
C3080 C3082 1.363 . S
C3080 H3096 0.931 . S
C3081 C3080 1.370 . S
C3081 C3085 1.408 . S
C3082 C3080 1.363 . S
C3082 C3083 1.370 . S
C3082 C3086 1.524 . S
C3083 C3075 1.503 . S
C3083 C3082 1.370 . S
C3083 C3084 1.403 . S
C3084 C3083 1.403 . S
C3084 C3085 1.404 . S
C3084 C3087 1.539 . S
C3085 C3081 1.408 . S
C3085 C3084 1.404 . S
C3085 H3097 0.930 . S
C3086 C3082 1.524 . S
C3086 H3098 0.956 . S
C3086 H3099 0.961 . S
C3086 H3100 0.961 . S
C3087 C3084 1.539 . S
C3087 H3101 0.958 . S
C3087 H3102 0.961 . S
C3087 H3103 0.960 . S
H3088 C3072 0.931 . S
H3089 C3077 0.929 . S
H3090 C3078 0.960 . S
H3091 C3078 0.962 . S
H3092 C3078 0.960 . S
H3093 C3079 0.961 . S
H3094 C3079 0.961 . S
H3095 C3079 0.961 . S
H3096 C3080 0.931 . S
H3097 C3085 0.930 . S
H3098 C3086 0.956 . S
H3099 C3086 0.961 . S
H3100 C3086 0.961 . S
H3101 C3087 0.958 . S
H3102 C3087 0.961 . S
H3103 C3087 0.960 . S
C3104 C3105 1.391 . S
C3104 C3106 1.394 . S
C3104 H3120 0.931 . S
C3105 C3104 1.391 . S
C3105 C3109 1.376 . S
C3106 C3104 1.394 . S
C3106 C3107 1.369 . S
C3106 C3110 1.531 . S
C3107 C3106 1.369 . S
C3107 C3108 1.410 . S
C3107 C3115 1.503 . S
C3108 C3107 1.410 . S
C3108 C3109 1.392 . S
C3108 C3111 1.511 . S
C3109 C3105 1.376 . S
C3109 C3108 1.392 . S
C3109 H3121 0.929 . S
C3110 C3106 1.531 . S
C3110 H3122 0.960 . S
C3110 H3123 0.962 . S
C3110 H3124 0.960 . S
C3111 C3108 1.511 . S
C3111 H3125 0.961 . S
C3111 H3126 0.961 . S
C3111 H3127 0.961 . S
C3112 C3113 1.370 . S
C3112 C3114 1.363 . S
C3112 H3128 0.931 . S
C3113 C3112 1.370 . S
C3113 C3117 1.408 . S
C3114 C3112 1.363 . S
C3114 C3115 1.370 . S
C3114 C3118 1.524 . S
C3115 C3107 1.503 . S
C3115 C3114 1.370 . S
C3115 C3116 1.403 . S
C3116 C3115 1.403 . S
C3116 C3117 1.404 . S
C3116 C3119 1.539 . S
C3117 C3113 1.408 . S
C3117 C3116 1.404 . S
C3117 H3129 0.930 . S
C3118 C3114 1.524 . S
C3118 H3130 0.956 . S
C3118 H3131 0.961 . S
C3118 H3132 0.961 . S
C3119 C3116 1.539 . S
C3119 H3133 0.958 . S
C3119 H3134 0.961 . S
C3119 H3135 0.960 . S
H3120 C3104 0.931 . S
H3121 C3109 0.929 . S
H3122 C3110 0.960 . S
H3123 C3110 0.962 . S
H3124 C3110 0.960 . S
H3125 C3111 0.961 . S
H3126 C3111 0.961 . S
H3127 C3111 0.961 . S
H3128 C3112 0.931 . S
H3129 C3117 0.930 . S
H3130 C3118 0.956 . S
H3131 C3118 0.961 . S
H3132 C3118 0.961 . S
H3133 C3119 0.958 . S
H3134 C3119 0.961 . S
H3135 C3119 0.960 . S
C3136 C3137 1.391 . S
C3136 C3138 1.394 . S
C3136 H3152 0.931 . S
C3137 C3136 1.391 . S
C3137 C3141 1.376 . S
C3138 C3136 1.394 . S
C3138 C3139 1.369 . S
C3138 C3142 1.531 . S
C3139 C3138 1.369 . S
C3139 C3140 1.410 . S
C3139 C3147 1.503 1_465 S
C3140 C3139 1.410 . S
C3140 C3141 1.392 . S
C3140 C3143 1.511 1_455 S
C3141 C3137 1.376 . S
C3141 C3140 1.392 . S
C3141 H3153 0.929 . S
C3142 C3138 1.531 . S
C3142 H3154 0.960 1_565 S
C3142 H3155 0.962 1_565 S
C3142 H3156 0.960 . S
C3143 C3140 1.511 1_655 S
C3143 H3157 0.961 . S
C3143 H3158 0.961 . S
C3143 H3159 0.961 . S
C3144 C3145 1.370 . S
C3144 C3146 1.363 . S
C3144 H3160 0.931 . S
C3145 C3144 1.370 . S
C3145 C3149 1.408 . S
C3146 C3144 1.363 . S
C3146 C3147 1.370 . S
C3146 C3150 1.524 1_655 S
C3147 C3139 1.503 1_645 S
C3147 C3146 1.370 . S
C3147 C3148 1.403 . S
C3148 C3147 1.403 . S
C3148 C3149 1.404 . S
C3148 C3151 1.539 1_545 S
C3149 C3145 1.408 . S
C3149 C3148 1.404 . S
C3149 H3161 0.930 . S
C3150 C3146 1.524 1_455 S
C3150 H3162 0.956 . S
C3150 H3163 0.961 . S
C3150 H3164 0.961 . S
C3151 C3148 1.539 1_565 S
C3151 H3165 0.958 . S
C3151 H3166 0.961 . S
C3151 H3167 0.960 . S
H3152 C3136 0.931 . S
H3153 C3141 0.929 . S
H3154 C3142 0.960 1_545 S
H3155 C3142 0.962 1_545 S
H3156 C3142 0.960 . S
H3157 C3143 0.961 . S
H3158 C3143 0.961 . S
H3159 C3143 0.961 . S
H3160 C3144 0.931 . S
H3161 C3149 0.930 . S
H3162 C3150 0.956 . S
H3163 C3150 0.961 . S
H3164 C3150 0.961 . S
H3165 C3151 0.958 . S
H3166 C3151 0.961 . S
H3167 C3151 0.960 . S
C3168 C3169 1.391 . S
C3168 C3170 1.394 . S
C3168 H3184 0.931 . S
C3169 C3168 1.391 . S
C3169 C3173 1.376 . S
C3170 C3168 1.394 . S
C3170 C3171 1.369 . S
C3170 C3174 1.531 . S
C3171 C3170 1.369 . S
C3171 C3172 1.410 . S
C3171 C3179 1.503 . S
C3172 C3171 1.410 . S
C3172 C3173 1.392 . S
C3172 C3175 1.511 . S
C3173 C3169 1.376 . S
C3173 C3172 1.392 . S
C3173 H3185 0.929 . S
C3174 C3170 1.531 . S
C3174 H3186 0.960 . S
C3174 H3187 0.962 . S
C3174 H3188 0.960 . S
C3175 C3172 1.511 . S
C3175 H3189 0.961 . S
C3175 H3190 0.961 . S
C3175 H3191 0.961 . S
C3176 C3177 1.370 . S
C3176 C3178 1.363 . S
C3176 H3192 0.931 . S
C3177 C3176 1.370 . S
C3177 C3181 1.408 . S
C3178 C3176 1.363 . S
C3178 C3179 1.370 . S
C3178 C3182 1.524 . S
C3179 C3171 1.503 . S
C3179 C3178 1.370 . S
C3179 C3180 1.403 . S
C3180 C3179 1.403 . S
C3180 C3181 1.404 . S
C3180 C3183 1.539 . S
C3181 C3177 1.408 . S
C3181 C3180 1.404 . S
C3181 H3193 0.930 . S
C3182 C3178 1.524 . S
C3182 H3194 0.956 . S
C3182 H3195 0.961 . S
C3182 H3196 0.961 . S
C3183 C3180 1.539 . S
C3183 H3197 0.958 . S
C3183 H3198 0.961 . S
C3183 H3199 0.960 . S
H3184 C3168 0.931 . S
H3185 C3173 0.929 . S
H3186 C3174 0.960 . S
H3187 C3174 0.962 . S
H3188 C3174 0.960 . S
H3189 C3175 0.961 . S
H3190 C3175 0.961 . S
H3191 C3175 0.961 . S
H3192 C3176 0.931 . S
H3193 C3181 0.930 . S
H3194 C3182 0.956 . S
H3195 C3182 0.961 . S
H3196 C3182 0.961 . S
H3197 C3183 0.958 . S
H3198 C3183 0.961 . S
H3199 C3183 0.960 . S
C3200 C3201 1.391 . S
C3200 C3202 1.394 . S
C3200 H3216 0.931 . S
C3201 C3200 1.391 . S
C3201 C3205 1.376 . S
C3202 C3200 1.394 . S
C3202 C3203 1.369 . S
C3202 C3206 1.531 1_565 S
C3203 C3202 1.369 . S
C3203 C3204 1.410 . S
C3203 C3211 1.503 1_565 S
C3204 C3203 1.410 . S
C3204 C3205 1.392 . S
C3204 C3207 1.511 . S
C3205 C3201 1.376 . S
C3205 C3204 1.392 . S
C3205 H3217 0.929 . S
C3206 C3202 1.531 1_545 S
C3206 H3218 0.960 . S
C3206 H3219 0.962 1_556 S
C3206 H3220 0.960 . S
C3207 C3204 1.511 . S
C3207 H3221 0.961 1_556 S
C3207 H3222 0.961 1_556 S
C3207 H3223 0.961 . S
C3208 C3209 1.370 . S
C3208 C3210 1.363 . S
C3208 H3224 0.931 . S
C3209 C3208 1.370 . S
C3209 C3213 1.408 1_554 S
C3210 C3208 1.363 . S
C3210 C3211 1.370 1_554 S
C3210 C3214 1.524 . S
C3211 C3203 1.503 1_545 S
C3211 C3210 1.370 1_556 S
C3211 C3212 1.403 . S
C3212 C3211 1.403 . S
C3212 C3213 1.404 . S
C3212 C3215 1.539 . S
C3213 C3209 1.408 1_556 S
C3213 C3212 1.404 . S
C3213 H3225 0.930 . S
C3214 C3210 1.524 . S
C3214 H3226 0.956 . S
C3214 H3227 0.961 1_545 S
C3214 H3228 0.961 . S
C3215 C3212 1.539 . S
C3215 H3229 0.958 . S
C3215 H3230 0.961 . S
C3215 H3231 0.960 1_545 S
H3216 C3200 0.931 . S
H3217 C3205 0.929 . S
H3218 C3206 0.960 . S
H3219 C3206 0.962 1_554 S
H3220 C3206 0.960 . S
H3221 C3207 0.961 1_554 S
H3222 C3207 0.961 1_554 S
H3223 C3207 0.961 . S
H3224 C3208 0.931 . S
H3225 C3213 0.930 . S
H3226 C3214 0.956 . S
H3227 C3214 0.961 1_565 S
H3228 C3214 0.961 . S
H3229 C3215 0.958 . S
H3230 C3215 0.961 . S
H3231 C3215 0.960 1_565 S
C3232 C3233 1.391 . S
C3232 C3234 1.394 . S
C3232 H3248 0.931 . S
C3233 C3232 1.391 . S
C3233 C3237 1.376 . S
C3234 C3232 1.394 . S
C3234 C3235 1.369 . S
C3234 C3238 1.531 . S
C3235 C3234 1.369 . S
C3235 C3236 1.410 . S
C3235 C3243 1.503 . S
C3236 C3235 1.410 . S
C3236 C3237 1.392 . S
C3236 C3239 1.511 . S
C3237 C3233 1.376 . S
C3237 C3236 1.392 . S
C3237 H3249 0.929 . S
C3238 C3234 1.531 . S
C3238 H3250 0.960 . S
C3238 H3251 0.962 . S
C3238 H3252 0.960 . S
C3239 C3236 1.511 . S
C3239 H3253 0.961 . S
C3239 H3254 0.961 . S
C3239 H3255 0.961 . S
C3240 C3241 1.370 . S
C3240 C3242 1.363 . S
C3240 H3256 0.931 . S
C3241 C3240 1.370 . S
C3241 C3245 1.408 . S
C3242 C3240 1.363 . S
C3242 C3243 1.370 . S
C3242 C3246 1.524 . S
C3243 C3235 1.503 . S
C3243 C3242 1.370 . S
C3243 C3244 1.403 . S
C3244 C3243 1.403 . S
C3244 C3245 1.404 . S
C3244 C3247 1.539 . S
C3245 C3241 1.408 . S
C3245 C3244 1.404 . S
C3245 H3257 0.930 . S
C3246 C3242 1.524 . S
C3246 H3258 0.956 . S
C3246 H3259 0.961 . S
C3246 H3260 0.961 . S
C3247 C3244 1.539 . S
C3247 H3261 0.958 . S
C3247 H3262 0.961 . S
C3247 H3263 0.960 . S
H3248 C3232 0.931 . S
H3249 C3237 0.929 . S
H3250 C3238 0.960 . S
H3251 C3238 0.962 . S
H3252 C3238 0.960 . S
H3253 C3239 0.961 . S
H3254 C3239 0.961 . S
H3255 C3239 0.961 . S
H3256 C3240 0.931 . S
H3257 C3245 0.930 . S
H3258 C3246 0.956 . S
H3259 C3246 0.961 . S
H3260 C3246 0.961 . S
H3261 C3247 0.958 . S
H3262 C3247 0.961 . S
H3263 C3247 0.960 . S
C3264 C3265 1.391 . S
C3264 C3266 1.394 . S
C3264 H3280 0.931 . S
C3265 C3264 1.391 . S
C3265 C3269 1.376 . S
C3266 C3264 1.394 . S
C3266 C3267 1.369 . S
C3266 C3270 1.531 . S
C3267 C3266 1.369 . S
C3267 C3268 1.410 . S
C3267 C3275 1.503 1_545 S
C3268 C3267 1.410 . S
C3268 C3269 1.392 . S
C3268 C3271 1.511 1_545 S
C3269 C3265 1.376 . S
C3269 C3268 1.392 . S
C3269 H3281 0.929 . S
C3270 C3266 1.531 . S
C3270 H3282 0.960 . S
C3270 H3283 0.962 . S
C3270 H3284 0.960 . S
C3271 C3268 1.511 1_565 S
C3271 H3285 0.961 . S
C3271 H3286 0.961 . S
C3271 H3287 0.961 . S
C3272 C3273 1.370 . S
C3272 C3274 1.363 . S
C3272 H3288 0.931 . S
C3273 C3272 1.370 . S
C3273 C3277 1.408 . S
C3274 C3272 1.363 . S
C3274 C3275 1.370 . S
C3274 C3278 1.524 . S
C3275 C3267 1.503 1_565 S
C3275 C3274 1.370 . S
C3275 C3276 1.403 . S
C3276 C3275 1.403 . S
C3276 C3277 1.404 . S
C3276 C3279 1.539 . S
C3277 C3273 1.408 . S
C3277 C3276 1.404 . S
C3277 H3289 0.930 . S
C3278 C3274 1.524 . S
C3278 H3290 0.956 1_565 S
C3278 H3291 0.961 . S
C3278 H3292 0.961 . S
C3279 C3276 1.539 . S
C3279 H3293 0.958 . S
C3279 H3294 0.961 . S
C3279 H3295 0.960 . S
H3280 C3264 0.931 . S
H3281 C3269 0.929 . S
H3282 C3270 0.960 . S
H3283 C3270 0.962 . S
H3284 C3270 0.960 . S
H3285 C3271 0.961 . S
H3286 C3271 0.961 . S
H3287 C3271 0.961 . S
H3288 C3272 0.931 . S
H3289 C3277 0.930 . S
H3290 C3278 0.956 1_545 S
H3291 C3278 0.961 . S
H3292 C3278 0.961 . S
H3293 C3279 0.958 . S
H3294 C3279 0.961 . S
H3295 C3279 0.960 . S
C3296 C3297 1.391 . S
C3296 C3298 1.394 . S
C3296 H3312 0.931 . S
C3297 C3296 1.391 . S
C3297 C3301 1.376 . S
C3298 C3296 1.394 . S
C3298 C3299 1.369 . S
C3298 C3302 1.531 . S
C3299 C3298 1.369 . S
C3299 C3300 1.410 . S
C3299 C3307 1.503 . S
C3300 C3299 1.410 . S
C3300 C3301 1.392 . S
C3300 C3303 1.511 . S
C3301 C3297 1.376 . S
C3301 C3300 1.392 . S
C3301 H3313 0.929 . S
C3302 C3298 1.531 . S
C3302 H3314 0.960 . S
C3302 H3315 0.962 . S
C3302 H3316 0.960 . S
C3303 C3300 1.511 . S
C3303 H3317 0.961 . S
C3303 H3318 0.961 . S
C3303 H3319 0.961 . S
C3304 C3305 1.370 . S
C3304 C3306 1.363 . S
C3304 H3320 0.931 . S
C3305 C3304 1.370 . S
C3305 C3309 1.408 . S
C3306 C3304 1.363 . S
C3306 C3307 1.370 . S
C3306 C3310 1.524 . S
C3307 C3299 1.503 . S
C3307 C3306 1.370 . S
C3307 C3308 1.403 . S
C3308 C3307 1.403 . S
C3308 C3309 1.404 . S
C3308 C3311 1.539 . S
C3309 C3305 1.408 . S
C3309 C3308 1.404 . S
C3309 H3321 0.930 . S
C3310 C3306 1.524 . S
C3310 H3322 0.956 . S
C3310 H3323 0.961 . S
C3310 H3324 0.961 . S
C3311 C3308 1.539 . S
C3311 H3325 0.958 . S
C3311 H3326 0.961 . S
C3311 H3327 0.960 . S
H3312 C3296 0.931 . S
H3313 C3301 0.929 . S
H3314 C3302 0.960 . S
H3315 C3302 0.962 . S
H3316 C3302 0.960 . S
H3317 C3303 0.961 . S
H3318 C3303 0.961 . S
H3319 C3303 0.961 . S
H3320 C3304 0.931 . S
H3321 C3309 0.930 . S
H3322 C3310 0.956 . S
H3323 C3310 0.961 . S
H3324 C3310 0.961 . S
H3325 C3311 0.958 . S
H3326 C3311 0.961 . S
H3327 C3311 0.960 . S
C3328 C3329 1.391 1_556 S
C3328 C3330 1.394 . S
C3328 H3344 0.931 . S
C3329 C3328 1.391 1_554 S
C3329 C3333 1.376 . S
C3330 C3328 1.394 . S
C3330 C3331 1.369 1_556 S
C3330 C3334 1.531 . S
C3331 C3330 1.369 1_554 S
C3331 C3332 1.410 . S
C3331 C3339 1.503 1_664 S
C3332 C3331 1.410 . S
C3332 C3333 1.392 . S
C3332 C3335 1.511 . S
C3333 C3329 1.376 . S
C3333 C3332 1.392 . S
C3333 H3345 0.929 . S
C3334 C3330 1.531 . S
C3334 H3346 0.960 1_565 S
C3334 H3347 0.962 . S
C3334 H3348 0.960 . S
C3335 C3332 1.511 . S
C3335 H3349 0.961 . S
C3335 H3350 0.961 1_665 S
C3335 H3351 0.961 1_565 S
C3336 C3337 1.370 . S
C3336 C3338 1.363 . S
C3336 H3352 0.931 . S
C3337 C3336 1.370 . S
C3337 C3341 1.408 . S
C3338 C3336 1.363 . S
C3338 C3339 1.370 . S
C3338 C3342 1.524 1_545 S
C3339 C3331 1.503 1_446 S
C3339 C3338 1.370 . S
C3339 C3340 1.403 1_455 S
C3340 C3339 1.403 1_655 S
C3340 C3341 1.406 1_655 S
C3340 C3343 1.536 1_556 S
C3341 C3337 1.408 . S
C3341 C3340 1.406 1_455 S
C3341 H3353 0.930 . S
C3342 C3338 1.524 1_565 S
C3342 H3354 0.956 . S
C3342 H3355 0.961 1_556 S
C3342 H3356 0.961 . S
C3343 C3340 1.536 1_554 S
C3343 H3357 0.958 1_554 S
C3343 H3358 0.961 . S
C3343 H3359 0.960 . S
H3344 C3328 0.931 . S
H3345 C3333 0.929 . S
H3346 C3334 0.960 1_545 S
H3347 C3334 0.962 . S
H3348 C3334 0.960 . S
H3349 C3335 0.961 . S
H3350 C3335 0.961 1_445 S
H3351 C3335 0.961 1_545 S
H3352 C3336 0.931 . S
H3353 C3341 0.930 . S
H3354 C3342 0.956 . S
H3355 C3342 0.961 1_554 S
H3356 C3342 0.961 . S
H3357 C3343 0.958 1_556 S
H3358 C3343 0.961 . S
H3359 C3343 0.960 . S
C3360 C3361 1.391 . S
C3360 C3362 1.394 . S
C3360 H3376 0.931 . S
C3361 C3360 1.391 . S
C3361 C3365 1.376 . S
C3362 C3360 1.394 . S
C3362 C3363 1.369 . S
C3362 C3366 1.531 . S
C3363 C3362 1.369 . S
C3363 C3364 1.410 . S
C3363 C3371 1.503 . S
C3364 C3363 1.410 . S
C3364 C3365 1.392 . S
C3364 C3367 1.511 . S
C3365 C3361 1.376 . S
C3365 C3364 1.392 . S
C3365 H3377 0.929 . S
C3366 C3362 1.531 . S
C3366 H3378 0.960 . S
C3366 H3379 0.962 . S
C3366 H3380 0.960 . S
C3367 C3364 1.511 . S
C3367 H3381 0.961 . S
C3367 H3382 0.961 . S
C3367 H3383 0.961 . S
C3368 C3369 1.370 . S
C3368 C3370 1.363 . S
C3368 H3384 0.931 . S
C3369 C3368 1.370 . S
C3369 C3373 1.408 . S
C3370 C3368 1.363 . S
C3370 C3371 1.370 . S
C3370 C3374 1.524 . S
C3371 C3363 1.503 . S
C3371 C3370 1.370 . S
C3371 C3372 1.403 . S
C3372 C3371 1.403 . S
C3372 C3373 1.404 . S
C3372 C3375 1.539 . S
C3373 C3369 1.408 . S
C3373 C3372 1.404 . S
C3373 H3385 0.930 . S
C3374 C3370 1.524 . S
C3374 H3386 0.956 . S
C3374 H3387 0.961 . S
C3374 H3388 0.961 . S
C3375 C3372 1.539 . S
C3375 H3389 0.958 . S
C3375 H3390 0.961 . S
C3375 H3391 0.960 . S
H3376 C3360 0.931 . S
H3377 C3365 0.929 . S
H3378 C3366 0.960 . S
H3379 C3366 0.962 . S
H3380 C3366 0.960 . S
H3381 C3367 0.961 . S
H3382 C3367 0.961 . S
H3383 C3367 0.961 . S
H3384 C3368 0.931 . S
H3385 C3373 0.930 . S
H3386 C3374 0.956 . S
H3387 C3374 0.961 . S
H3388 C3374 0.961 . S
H3389 C3375 0.958 . S
H3390 C3375 0.961 . S
H3391 C3375 0.960 . S
C3392 C3393 1.391 . S
C3392 C3394 1.394 . S
C3392 H3408 0.931 . S
C3393 C3392 1.391 . S
C3393 C3397 1.376 . S
C3394 C3392 1.394 . S
C3394 C3395 1.369 . S
C3394 C3398 1.531 . S
C3395 C3394 1.369 . S
C3395 C3396 1.410 . S
C3395 C3403 1.503 . S
C3396 C3395 1.410 . S
C3396 C3397 1.392 . S
C3396 C3399 1.511 . S
C3397 C3393 1.376 . S
C3397 C3396 1.392 . S
C3397 H3409 0.929 . S
C3398 C3394 1.531 . S
C3398 H3410 0.960 . S
C3398 H3411 0.962 . S
C3398 H3412 0.960 . S
C3399 C3396 1.511 . S
C3399 H3413 0.961 . S
C3399 H3414 0.961 . S
C3399 H3415 0.961 . S
C3400 C3401 1.370 . S
C3400 C3402 1.363 . S
C3400 H3416 0.931 . S
C3401 C3400 1.370 . S
C3401 C3405 1.408 . S
C3402 C3400 1.363 . S
C3402 C3403 1.370 . S
C3402 C3406 1.524 . S
C3403 C3395 1.503 . S
C3403 C3402 1.370 . S
C3403 C3404 1.403 . S
C3404 C3403 1.403 . S
C3404 C3405 1.404 . S
C3404 C3407 1.539 . S
C3405 C3401 1.408 . S
C3405 C3404 1.404 . S
C3405 H3417 0.930 . S
C3406 C3402 1.524 . S
C3406 H3418 0.956 . S
C3406 H3419 0.961 . S
C3406 H3420 0.961 . S
C3407 C3404 1.539 . S
C3407 H3421 0.958 . S
C3407 H3422 0.961 . S
C3407 H3423 0.960 . S
H3408 C3392 0.931 . S
H3409 C3397 0.929 . S
H3410 C3398 0.960 . S
H3411 C3398 0.962 . S
H3412 C3398 0.960 . S
H3413 C3399 0.961 . S
H3414 C3399 0.961 . S
H3415 C3399 0.961 . S
H3416 C3400 0.931 . S
H3417 C3405 0.930 . S
H3418 C3406 0.956 . S
H3419 C3406 0.961 . S
H3420 C3406 0.961 . S
H3421 C3407 0.958 . S
H3422 C3407 0.961 . S
H3423 C3407 0.960 . S
C3424 C3425 1.391 . S
C3424 C3426 1.394 . S
C3424 H3440 0.931 . S
C3425 C3424 1.391 . S
C3425 C3429 1.376 . S
C3426 C3424 1.394 . S
C3426 C3427 1.369 . S
C3426 C3430 1.531 . S
C3427 C3426 1.369 . S
C3427 C3428 1.410 . S
C3427 C3435 1.503 . S
C3428 C3427 1.410 . S
C3428 C3429 1.392 . S
C3428 C3431 1.511 . S
C3429 C3425 1.376 . S
C3429 C3428 1.392 . S
C3429 H3441 0.929 . S
C3430 C3426 1.531 . S
C3430 H3442 0.960 . S
C3430 H3443 0.962 . S
C3430 H3444 0.960 . S
C3431 C3428 1.511 . S
C3431 H3445 0.961 . S
C3431 H3446 0.961 . S
C3431 H3447 0.961 . S
C3432 C3433 1.370 . S
C3432 C3434 1.363 . S
C3432 H3448 0.931 . S
C3433 C3432 1.370 . S
C3433 C3437 1.408 . S
C3434 C3432 1.363 . S
C3434 C3435 1.370 . S
C3434 C3438 1.524 . S
C3435 C3427 1.503 . S
C3435 C3434 1.370 . S
C3435 C3436 1.403 . S
C3436 C3435 1.403 . S
C3436 C3437 1.404 . S
C3436 C3439 1.539 . S
C3437 C3433 1.408 . S
C3437 C3436 1.404 . S
C3437 H3449 0.930 . S
C3438 C3434 1.524 . S
C3438 H3450 0.956 . S
C3438 H3451 0.961 . S
C3438 H3452 0.961 . S
C3439 C3436 1.539 . S
C3439 H3453 0.958 . S
C3439 H3454 0.961 . S
C3439 H3455 0.960 . S
H3440 C3424 0.931 . S
H3441 C3429 0.929 . S
H3442 C3430 0.960 . S
H3443 C3430 0.962 . S
H3444 C3430 0.960 . S
H3445 C3431 0.961 . S
H3446 C3431 0.961 . S
H3447 C3431 0.961 . S
H3448 C3432 0.931 . S
H3449 C3437 0.930 . S
H3450 C3438 0.956 . S
H3451 C3438 0.961 . S
H3452 C3438 0.961 . S
H3453 C3439 0.958 . S
H3454 C3439 0.961 . S
H3455 C3439 0.960 . S
C3456 C3457 1.391 . S
C3456 C3458 1.394 . S
C3456 H3472 0.931 . S
C3457 C3456 1.391 . S
C3457 C3461 1.376 . S
C3458 C3456 1.394 . S
C3458 C3459 1.369 . S
C3458 C3462 1.531 . S
C3459 C3458 1.369 . S
C3459 C3460 1.410 . S
C3459 C3467 1.503 . S
C3460 C3459 1.410 . S
C3460 C3461 1.392 . S
C3460 C3463 1.511 . S
C3461 C3457 1.376 . S
C3461 C3460 1.392 . S
C3461 H3473 0.929 . S
C3462 C3458 1.531 . S
C3462 H3474 0.960 . S
C3462 H3475 0.962 . S
C3462 H3476 0.960 . S
C3463 C3460 1.511 . S
C3463 H3477 0.961 . S
C3463 H3478 0.961 . S
C3463 H3479 0.961 . S
C3464 C3465 1.370 . S
C3464 C3466 1.363 . S
C3464 H3480 0.931 . S
C3465 C3464 1.370 . S
C3465 C3469 1.408 . S
C3466 C3464 1.363 . S
C3466 C3467 1.370 . S
C3466 C3470 1.524 . S
C3467 C3459 1.503 . S
C3467 C3466 1.370 . S
C3467 C3468 1.403 . S
C3468 C3467 1.403 . S
C3468 C3469 1.404 . S
C3468 C3471 1.539 . S
C3469 C3465 1.408 . S
C3469 C3468 1.404 . S
C3469 H3481 0.930 . S
C3470 C3466 1.524 . S
C3470 H3482 0.956 . S
C3470 H3483 0.961 . S
C3470 H3484 0.961 . S
C3471 C3468 1.539 . S
C3471 H3485 0.958 . S
C3471 H3486 0.961 . S
C3471 H3487 0.960 . S
H3472 C3456 0.931 . S
H3473 C3461 0.929 . S
H3474 C3462 0.960 . S
H3475 C3462 0.962 . S
H3476 C3462 0.960 . S
H3477 C3463 0.961 . S
H3478 C3463 0.961 . S
H3479 C3463 0.961 . S
H3480 C3464 0.931 . S
H3481 C3469 0.930 . S
H3482 C3470 0.956 . S
H3483 C3470 0.961 . S
H3484 C3470 0.961 . S
H3485 C3471 0.958 . S
H3486 C3471 0.961 . S
H3487 C3471 0.960 . S
C3488 C3489 1.391 . S
C3488 C3490 1.397 . S
C3488 H3504 0.931 . S
C3489 C3488 1.391 . S
C3489 C3493 1.386 . S
C3490 C3488 1.397 . S
C3490 C3491 1.366 1_556 S
C3490 C3494 1.530 1_556 S
C3491 C3490 1.366 1_554 S
C3491 C3492 1.410 . S
C3491 C3499 1.503 . S
C3492 C3491 1.410 . S
C3492 C3493 1.383 1_554 S
C3492 C3495 1.511 . S
C3493 C3489 1.386 . S
C3493 C3492 1.383 1_556 S
C3493 H3505 0.930 . S
C3494 C3490 1.530 1_554 S
C3494 H3506 0.961 . S
C3494 H3507 0.961 1_554 S
C3494 H3508 0.961 . S
C3495 C3492 1.511 . S
C3495 H3509 0.961 . S
C3495 H3510 0.961 . S
C3495 H3511 0.961 . S
C3496 C3497 1.370 1_556 S
C3496 C3498 1.363 . S
C3496 H3512 0.931 . S
C3497 C3496 1.370 1_554 S
C3497 C3501 1.408 . S
C3498 C3496 1.363 . S
C3498 C3499 1.370 1_556 S
C3498 C3502 1.524 . S
C3499 C3491 1.503 . S
C3499 C3498 1.370 1_554 S
C3499 C3500 1.403 . S
C3500 C3499 1.403 . S
C3500 C3501 1.404 . S
C3500 C3503 1.539 . S
C3501 C3497 1.408 . S
C3501 C3500 1.404 . S
C3501 H3513 0.930 . S
C3502 C3498 1.524 . S
C3502 H3514 0.956 . S
C3502 H3515 0.961 . S
C3502 H3516 0.961 . S
C3503 C3500 1.539 . S
C3503 H3517 0.958 . S
C3503 H3518 0.961 . S
C3503 H3519 0.960 . S
H3504 C3488 0.931 . S
H3505 C3493 0.930 . S
H3506 C3494 0.961 . S
H3507 C3494 0.961 1_556 S
H3508 C3494 0.961 . S
H3509 C3495 0.961 . S
H3510 C3495 0.961 . S
H3511 C3495 0.961 . S
H3512 C3496 0.931 . S
H3513 C3501 0.930 . S
H3514 C3502 0.956 . S
H3515 C3502 0.961 . S
H3516 C3502 0.961 . S
H3517 C3503 0.958 . S
H3518 C3503 0.961 . S
H3519 C3503 0.960 . S
C3520 C3521 1.391 . S
C3520 C3522 1.394 . S
C3520 H3536 0.931 . S
C3521 C3520 1.391 . S
C3521 C3525 1.376 . S
C3522 C3520 1.394 . S
C3522 C3523 1.369 . S
C3522 C3526 1.531 1_655 S
C3523 C3522 1.369 . S
C3523 C3524 1.410 . S
C3523 C3531 1.503 1_655 S
C3524 C3523 1.410 . S
C3524 C3525 1.392 . S
C3524 C3527 1.511 . S
C3525 C3521 1.376 . S
C3525 C3524 1.392 . S
C3525 H3537 0.929 . S
C3526 C3522 1.531 1_455 S
C3526 H3538 0.960 . S
C3526 H3539 0.962 . S
C3526 H3540 0.960 . S
C3527 C3524 1.511 . S
C3527 H3541 0.961 . S
C3527 H3542 0.961 . S
C3527 H3543 0.961 . S
C3528 C3529 1.370 . S
C3528 C3530 1.363 . S
C3528 H3544 0.931 . S
C3529 C3528 1.370 . S
C3529 C3533 1.408 . S
C3530 C3528 1.363 . S
C3530 C3531 1.370 . S
C3530 C3534 1.524 . S
C3531 C3523 1.503 1_455 S
C3531 C3530 1.370 . S
C3531 C3532 1.403 . S
C3532 C3531 1.403 . S
C3532 C3533 1.404 . S
C3532 C3535 1.539 1_455 S
C3533 C3529 1.408 . S
C3533 C3532 1.404 . S
C3533 H3545 0.930 . S
C3534 C3530 1.524 . S
C3534 H3546 0.956 . S
C3534 H3547 0.961 . S
C3534 H3548 0.961 . S
C3535 C3532 1.539 1_655 S
C3535 H3549 0.958 . S
C3535 H3550 0.961 . S
C3535 H3551 0.960 . S
H3536 C3520 0.931 . S
H3537 C3525 0.929 . S
H3538 C3526 0.960 . S
H3539 C3526 0.962 . S
H3540 C3526 0.960 . S
H3541 C3527 0.961 . S
H3542 C3527 0.961 . S
H3543 C3527 0.961 . S
H3544 C3528 0.931 . S
H3545 C3533 0.930 . S
H3546 C3534 0.956 . S
H3547 C3534 0.961 . S
H3548 C3534 0.961 . S
H3549 C3535 0.958 . S
H3550 C3535 0.961 . S
H3551 C3535 0.960 . S
C3552 C3553 1.391 . S
C3552 C3554 1.394 . S
C3552 H3568 0.931 . S
C3553 C3552 1.391 . S
C3553 C3557 1.376 . S
C3554 C3552 1.394 . S
C3554 C3555 1.369 . S
C3554 C3558 1.531 . S
C3555 C3554 1.369 . S
C3555 C3556 1.410 1_455 S
C3555 C3563 1.503 1_455 S
C3556 C3555 1.410 1_655 S
C3556 C3557 1.392 1_655 S
C3556 C3559 1.511 1_554 S
C3557 C3553 1.376 . S
C3557 C3556 1.392 1_455 S
C3557 H3569 0.929 1_554 S
C3558 C3554 1.531 . S
C3558 H3570 0.960 . S
C3558 H3571 0.962 . S
C3558 H3572 0.960 . S
C3559 C3556 1.511 1_556 S
C3559 H3573 0.961 . S
C3559 H3574 0.961 . S
C3559 H3575 0.961 1_556 S
C3560 C3561 1.370 . S
C3560 C3562 1.363 . S
C3560 H3576 0.931 . S
C3561 C3560 1.370 . S
C3561 C3565 1.408 1_556 S
C3562 C3560 1.363 . S
C3562 C3563 1.370 1_556 S
C3562 C3566 1.524 1_655 S
C3563 C3555 1.503 1_655 S
C3563 C3562 1.370 1_554 S
C3563 C3564 1.403 . S
C3564 C3563 1.403 . S
C3564 C3565 1.404 . S
C3564 C3567 1.539 . S
C3565 C3561 1.408 1_554 S
C3565 C3564 1.404 . S
C3565 H3577 0.930 . S
C3566 C3562 1.524 1_455 S
C3566 H3578 0.956 . S
C3566 H3579 0.961 . S
C3566 H3580 0.961 . S
C3567 C3564 1.539 . S
C3567 H3581 0.958 . S
C3567 H3582 0.961 . S
C3567 H3583 0.960 . S
H3568 C3552 0.931 . S
H3569 C3557 0.929 1_556 S
H3570 C3558 0.960 . S
H3571 C3558 0.962 . S
H3572 C3558 0.960 . S
H3573 C3559 0.961 . S
H3574 C3559 0.961 . S
H3575 C3559 0.961 1_554 S
H3576 C3560 0.931 . S
H3577 C3565 0.930 . S
H3578 C3566 0.956 . S
H3579 C3566 0.961 . S
H3580 C3566 0.961 . S
H3581 C3567 0.958 . S
H3582 C3567 0.961 . S
H3583 C3567 0.960 . S
C3584 C3585 1.391 . S
C3584 C3586 1.394 . S
C3584 H3600 0.931 . S
C3585 C3584 1.391 . S
C3585 C3589 1.376 . S
C3586 C3584 1.394 . S
C3586 C3587 1.369 . S
C3586 C3590 1.531 . S
C3587 C3586 1.369 . S
C3587 C3588 1.410 . S
C3587 C3595 1.503 . S
C3588 C3587 1.410 . S
C3588 C3589 1.392 . S
C3588 C3591 1.511 . S
C3589 C3585 1.376 . S
C3589 C3588 1.392 . S
C3589 H3601 0.929 . S
C3590 C3586 1.531 . S
C3590 H3602 0.960 . S
C3590 H3603 0.962 . S
C3590 H3604 0.960 . S
C3591 C3588 1.511 . S
C3591 H3605 0.961 . S
C3591 H3606 0.961 . S
C3591 H3607 0.961 . S
C3592 C3593 1.370 . S
C3592 C3594 1.363 . S
C3592 H3608 0.931 . S
C3593 C3592 1.370 . S
C3593 C3597 1.408 . S
C3594 C3592 1.363 . S
C3594 C3595 1.370 . S
C3594 C3598 1.524 . S
C3595 C3587 1.503 . S
C3595 C3594 1.370 . S
C3595 C3596 1.403 . S
C3596 C3595 1.403 . S
C3596 C3597 1.404 . S
C3596 C3599 1.539 . S
C3597 C3593 1.408 . S
C3597 C3596 1.404 . S
C3597 H3609 0.930 . S
C3598 C3594 1.524 . S
C3598 H3610 0.956 . S
C3598 H3611 0.961 . S
C3598 H3612 0.961 . S
C3599 C3596 1.539 . S
C3599 H3613 0.958 . S
C3599 H3614 0.961 . S
C3599 H3615 0.960 . S
H3600 C3584 0.931 . S
H3601 C3589 0.929 . S
H3602 C3590 0.960 . S
H3603 C3590 0.962 . S
H3604 C3590 0.960 . S
H3605 C3591 0.961 . S
H3606 C3591 0.961 . S
H3607 C3591 0.961 . S
H3608 C3592 0.931 . S
H3609 C3597 0.930 . S
H3610 C3598 0.956 . S
H3611 C3598 0.961 . S
H3612 C3598 0.961 . S
H3613 C3599 0.958 . S
H3614 C3599 0.961 . S
H3615 C3599 0.960 . S
C1057 N244 1.957 . S
C1065 N13 1.944 . S
C1089 N46 1.949 . S
C1097 N145 1.940 . S
C1121 N79 1.910 . S
C1129 N178 1.924 . S
C1153 N211 1.954 . S
C1161 N112 1.943 . S
C1185 N508 1.925 . S
C1193 N277 1.936 . S
C1217 N409 1.954 . S
C1225 N310 1.944 . S
C1249 N343 1.944 . S
C1257 N442 1.942 . S
C1281 N376 1.912 . S
C1289 N475 1.931 . S
C1313 N772 1.954 . S
C1321 N541 1.943 . S
C1345 N574 1.954 . S
C1353 N673 1.943 . S
C1377 N607 1.957 . S
C1385 N706 1.944 . S
C1409 N739 1.928 . S
C1417 N640 1.933 . S
C1441 N1036 1.911 . S
C1449 N805 1.930 . S
C1473 N838 1.923 . S
C1481 N937 1.935 . S
C1505 N970 1.943 . S
C1513 N871 1.933 . S
C1537 N1003 1.950 . S
C1545 N904 1.944 . S
C1569 C601 1.025 . S
C1577 C7 0.989 . S
C1601 C634 1.001 . S
C1609 C40 1.002 . S
C1633 C73 0.963 . S
C1641 C535 0.995 . S
C1665 C106 0.938 . S
C1673 C568 0.978 . S
C1697 C733 0.972 . S
C1705 C139 0.966 . S
C1729 C766 0.970 . S
C1737 C172 0.997 . S
C1761 C205 0.983 . S
C1769 C667 0.968 . S
C1793 C238 0.955 . S
C1801 C700 0.966 . S
C1825 C271 1.020 . S
C1833 C865 0.995 . S
C1857 C898 0.938 . S
C1865 C304 0.983 . S
C1889 C799 1.004 . S
C1897 C337 0.970 . S
C1921 C370 1.019 . S
C1929 C832 0.996 . S
C1953 C403 1.025 . S
C1961 C997 0.987 . S
C1985 C1030 0.939 . S
C1993 C436 0.986 . S
C2017 C931 1.018 . S
C2025 C469 0.996 . S
C2049 C964 0.950 . S
C2057 C502 0.994 . S
C2081 N2 0.914 . S
C2089 C912 0.885 . S
C2113 C285 0.768 . S
C2121 N35 0.953 1_655 S
C2145 C846 0.953 . S
C2153 N68 0.910 . S
C2177 N101 0.876 . S
C2185 C351 0.900 . S
C2209 C978 0.771 . S
C2217 N134 0.950 . S
C2241 C483 0.797 . S
C2249 N167 0.942 . S
C2273 N200 0.913 . S
C2281 C1044 0.886 . S
C2305 N233 0.913 1_655 S
C2313 C417 0.880 . S
C2337 N266 0.882 . S
C2345 C648 0.899 . S
C2369 N299 0.878 1_455 S
C2377 C21 0.900 . S
C2401 C582 0.884 . S
C2409 N332 0.926 . S
C2433 N365 0.969 . S
C2441 C87 0.836 . S
C2465 C714 0.901 . S
C2473 N398 0.922 . S
C2497 N431 0.971 . S
C2505 C219 0.835 . S
C2529 N464 0.883 . S
C2537 C780 0.898 . S
C2561 C153 0.943 . S
C2569 N497 0.912 1_455 S
C2593 N530 0.915 . S
C2601 C384 0.865 . S
C2625 C813 0.942 . S
C2633 N563 0.916 . S
C2657 C318 0.941 . S
C2665 N596 0.910 . S
C2689 N629 0.947 1_455 S
C2697 C879 0.859 . S
C2721 N662 0.958 . S
C2729 C450 0.835 . S
C2753 C1011 0.880 . S
C2761 N695 0.922 1_455 S
C2785 N728 0.897 . S
C2793 C516 0.895 . S
C2817 C945 0.774 . S
C2825 N761 0.949 . S
C2849 C120 0.945 . S
C2857 N794 0.911 . S
C2881 C549 0.812 . S
C2889 N827 0.943 . S
C2913 C54 0.852 . S
C2921 N860 0.936 . S
C2945 C615 0.854 . S
C2953 N893 0.935 1_655 S
C2977 N926 0.981 . S
C2985 C186 0.825 . S
C3009 C747 0.930 . S
C3017 N959 0.915 1_655 S
C3041 C252 0.904 . S
C3049 N992 0.923 . S
C3073 C681 0.773 . S
C3081 N1025 0.953 . S
C3105 C18 1.388 . S
C3113 C810 1.375 . S
C3137 C51 1.362 . S
C3145 C315 1.389 . S
C3169 C876 1.358 . S
C3177 C84 1.391 . S
C3201 C381 1.364 . S
C3209 C117 1.388 . S
C3233 C942 1.353 . S
C3241 C150 1.391 . S
C3265 C447 1.393 . S
C3273 C183 1.373 . S
C3297 C1008 1.359 . S
C3305 C216 1.390 . S
C3329 C513 1.400 . S
C3337 C249 1.373 . S
C3361 C282 1.387 . S
C3369 C546 1.376 . S
C3393 C612 1.354 . S
C3401 C348 1.392 . S
C3425 C414 1.359 . S
C3433 C678 1.388 . S
C3457 C480 1.393 . S
C3465 C744 1.373 . S
C3489 C843 1.387 . S
C3497 C579 1.376 . S
C3521 C645 1.391 . S
C3529 C909 1.374 . S
C3553 C975 1.360 . S
C3561 C711 1.390 . S
C3585 C1041 1.378 . S
C3593 C777 1.379 . S
