# Generated by pormake.
# Topology why, (6)-cn, num edge types: 1
# Building blocks:
#     Node 0, Type 0, BuildingBlock: MIFKUJ_clean_sbu_0, # of connection points: 6
#     Node 1, Type 0, BuildingBlock: MIFKUJ_clean_sbu_0, # of connection points: 6
#     Node 2, Type 0, BuildingBlock: MIFKUJ_clean_sbu_0, # of connection points: 6
#     Node 3, Type 0, BuildingBlock: MIFKUJ_clean_sbu_0, # of connection points: 6
#     Node 4, Type 0, BuildingBlock: MIFKUJ_clean_sbu_0, # of connection points: 6
#     Node 5, Type 0, BuildingBlock: MIFKUJ_clean_sbu_0, # of connection points: 6
#     Node 6, Type 0, BuildingBlock: MIFKUJ_clean_sbu_0, # of connection points: 6
#     Node 7, Type 0, BuildingBlock: MIFKUJ_clean_sbu_0, # of connection points: 6
#     Node 8, Type 0, BuildingBlock: MIFKUJ_clean_sbu_0, # of connection points: 6
#     Node 9, Type 0, BuildingBlock: MIFKUJ_clean_sbu_0, # of connection points: 6
#     Node 10, Type 0, BuildingBlock: MIFKUJ_clean_sbu_0, # of connection points: 6
#     Node 11, Type 0, BuildingBlock: MIFKUJ_clean_sbu_0, # of connection points: 6
#     Node 12, Type 0, BuildingBlock: MIFKUJ_clean_sbu_0, # of connection points: 6
#     Node 13, Type 0, BuildingBlock: MIFKUJ_clean_sbu_0, # of connection points: 6
#     Node 14, Type 0, BuildingBlock: MIFKUJ_clean_sbu_0, # of connection points: 6
#     Node 15, Type 0, BuildingBlock: MIFKUJ_clean_sbu_0, # of connection points: 6
#     Edge 16, Type (0, 0), BuildingBlock: XIVTED_clean_linker_0, # of connection points: 2
#     Edge 17, Type (0, 0), BuildingBlock: XIVTED_clean_linker_0, # of connection points: 2
#     Edge 18, Type (0, 0), BuildingBlock: XIVTED_clean_linker_0, # of connection points: 2
#     Edge 19, Type (0, 0), BuildingBlock: XIVTED_clean_linker_0, # of connection points: 2
#     Edge 20, Type (0, 0), BuildingBlock: XIVTED_clean_linker_0, # of connection points: 2
#     Edge 21, Type (0, 0), BuildingBlock: XIVTED_clean_linker_0, # of connection points: 2
#     Edge 22, Type (0, 0), BuildingBlock: XIVTED_clean_linker_0, # of connection points: 2
#     Edge 23, Type (0, 0), BuildingBlock: XIVTED_clean_linker_0, # of connection points: 2
#     Edge 24, Type (0, 0), BuildingBlock: XIVTED_clean_linker_0, # of connection points: 2
#     Edge 25, Type (0, 0), BuildingBlock: XIVTED_clean_linker_0, # of connection points: 2
#     Edge 26, Type (0, 0), BuildingBlock: XIVTED_clean_linker_0, # of connection points: 2
#     Edge 27, Type (0, 0), BuildingBlock: XIVTED_clean_linker_0, # of connection points: 2
#     Edge 28, Type (0, 0), BuildingBlock: XIVTED_clean_linker_0, # of connection points: 2
#     Edge 29, Type (0, 0), BuildingBlock: XIVTED_clean_linker_0, # of connection points: 2
#     Edge 30, Type (0, 0), BuildingBlock: XIVTED_clean_linker_0, # of connection points: 2
#     Edge 31, Type (0, 0), BuildingBlock: XIVTED_clean_linker_0, # of connection points: 2
#     Edge 32, Type (0, 0), BuildingBlock: XIVTED_clean_linker_0, # of connection points: 2
#     Edge 33, Type (0, 0), BuildingBlock: XIVTED_clean_linker_0, # of connection points: 2
#     Edge 34, Type (0, 0), BuildingBlock: XIVTED_clean_linker_0, # of connection points: 2
#     Edge 35, Type (0, 0), BuildingBlock: XIVTED_clean_linker_0, # of connection points: 2
#     Edge 36, Type (0, 0), BuildingBlock: XIVTED_clean_linker_0, # of connection points: 2
#     Edge 37, Type (0, 0), BuildingBlock: XIVTED_clean_linker_0, # of connection points: 2
#     Edge 38, Type (0, 0), BuildingBlock: XIVTED_clean_linker_0, # of connection points: 2
#     Edge 39, Type (0, 0), BuildingBlock: XIVTED_clean_linker_0, # of connection points: 2
#     Edge 40, Type (0, 0), BuildingBlock: XIVTED_clean_linker_0, # of connection points: 2
#     Edge 41, Type (0, 0), BuildingBlock: XIVTED_clean_linker_0, # of connection points: 2
#     Edge 42, Type (0, 0), BuildingBlock: XIVTED_clean_linker_0, # of connection points: 2
#     Edge 43, Type (0, 0), BuildingBlock: XIVTED_clean_linker_0, # of connection points: 2
#     Edge 44, Type (0, 0), BuildingBlock: XIVTED_clean_linker_0, # of connection points: 2
#     Edge 45, Type (0, 0), BuildingBlock: XIVTED_clean_linker_0, # of connection points: 2
#     Edge 46, Type (0, 0), BuildingBlock: XIVTED_clean_linker_0, # of connection points: 2
#     Edge 47, Type (0, 0), BuildingBlock: XIVTED_clean_linker_0, # of connection points: 2
#     Edge 48, Type (0, 0), BuildingBlock: XIVTED_clean_linker_0, # of connection points: 2
#     Edge 49, Type (0, 0), BuildingBlock: XIVTED_clean_linker_0, # of connection points: 2
#     Edge 50, Type (0, 0), BuildingBlock: XIVTED_clean_linker_0, # of connection points: 2
#     Edge 51, Type (0, 0), BuildingBlock: XIVTED_clean_linker_0, # of connection points: 2
#     Edge 52, Type (0, 0), BuildingBlock: XIVTED_clean_linker_0, # of connection points: 2
#     Edge 53, Type (0, 0), BuildingBlock: XIVTED_clean_linker_0, # of connection points: 2
#     Edge 54, Type (0, 0), BuildingBlock: XIVTED_clean_linker_0, # of connection points: 2
#     Edge 55, Type (0, 0), BuildingBlock: XIVTED_clean_linker_0, # of connection points: 2
#     Edge 56, Type (0, 0), BuildingBlock: XIVTED_clean_linker_0, # of connection points: 2
#     Edge 57, Type (0, 0), BuildingBlock: XIVTED_clean_linker_0, # of connection points: 2
#     Edge 58, Type (0, 0), BuildingBlock: XIVTED_clean_linker_0, # of connection points: 2
#     Edge 59, Type (0, 0), BuildingBlock: XIVTED_clean_linker_0, # of connection points: 2
#     Edge 60, Type (0, 0), BuildingBlock: XIVTED_clean_linker_0, # of connection points: 2
#     Edge 61, Type (0, 0), BuildingBlock: XIVTED_clean_linker_0, # of connection points: 2
#     Edge 62, Type (0, 0), BuildingBlock: XIVTED_clean_linker_0, # of connection points: 2
#     Edge 63, Type (0, 0), BuildingBlock: XIVTED_clean_linker_0, # of connection points: 2
# Relax obj value: 0.197
# Max RMSD: 0.172
# Mean RMSD: 0.172
data_MOF--net-why--node1-MIFKUJ_clean_sbu_0--edge1-XIVTED_clean_linker_0
_symmetry_space_group_name_H-M    P1
_symmetry_Int_Tables_number       1
_symmetry_cell_setting            triclinic
loop_
_symmetry_equiv_pos_as_xyz
'x, y, z'
_cell_length_a     50.882135
_cell_length_b     50.924529
_cell_length_c     30.468068
_cell_angle_alpha  89.972918
_cell_angle_beta   89.978614
_cell_angle_gamma 89.965325
loop_
_atom_site_label
_atom_site_type_symbol
_atom_site_fract_x
_atom_site_fract_y
_atom_site_fract_z
_atom_type_partial_charge
Zn0 Zn 0.33502 0.16823 0.08977 0.0
Zn1 Zn 0.39514 0.15545 0.02827 0.0
C2 C 0.28862 0.1707 0.03945 0.0
O3 O 0.29389 0.19572 0.04515 0.0
C4 C 0.43786 0.1834 0.06451 0.0
O5 O 0.4469 0.15924 0.06595 0.0
O6 O 0.3201 0.18979 0.13922 0.0
O7 O 0.35618 0.1376 0.11572 0.0
O8 O 0.3917 0.12899 0.07565 0.0
C9 C 0.2985 0.18413 0.1579 0.0
O10 O 0.28629 0.16235 0.14709 0.0
O11 O 0.30399 0.1537 0.05611 0.0
C12 C 0.42871 0.15639 0.95431 0.0
O13 O 0.42323 0.1815 0.95759 0.0
O14 O 0.41863 0.14039 0.98155 0.0
O15 O 0.36133 0.16588 -9e-05 0.0
O16 O 0.35193 0.19519 0.04947 0.0
O17 O 0.41446 0.18722 0.05129 0.0
C18 C 0.37671 0.12398 0.10792 0.0
C19 C 0.35628 0.1895 0.00959 0.0
Zn20 Zn 0.58944 0.58712 0.33888 0.0
Zn21 Zn 0.60483 0.64358 0.27301 0.0
C22 C 0.58578 0.54213 0.28438 0.0
O23 O 0.56081 0.54801 0.28947 0.0
C24 C 0.57829 0.68973 0.30204 0.0
O25 O 0.60245 0.6987 0.29946 0.0
O26 O 0.56751 0.57163 0.38759 0.0
O27 O 0.62054 0.60691 0.36534 0.0
O28 O 0.63105 0.64012 0.32128 0.0
C29 C 0.572 0.549 0.40355 0.0
O30 O 0.59287 0.53594 0.39054 0.0
O31 O 0.60298 0.55649 0.30284 0.0
C32 C 0.60839 0.66864 0.18962 0.0
O33 O 0.58563 0.65687 0.18461 0.0
O34 O 0.62125 0.665 0.22483 0.0
O35 O 0.59151 0.60982 0.24752 0.0
O36 O 0.56313 0.60646 0.30079 0.0
O37 O 0.5741 0.6656 0.29385 0.0
C38 C 0.63522 0.62629 0.35532 0.0
C39 C 0.5679 0.60743 0.25994 0.0
Zn40 Zn 0.17067 0.83679 0.58243 0.0
Zn41 Zn 0.11281 0.85207 0.51739 0.0
C42 C 0.21487 0.8333 0.52564 0.0
O43 O 0.20896 0.80833 0.53019 0.0
C44 C 0.07007 0.82517 0.56077 0.0
O45 O 0.06499 0.84895 0.5752 0.0
O46 O 0.18675 0.81511 0.63089 0.0
O47 O 0.15081 0.86763 0.60919 0.0
O48 O 0.11684 0.87781 0.56646 0.0
C49 C 0.20961 0.81946 0.64606 0.0
O50 O 0.22277 0.84005 0.63219 0.0
O51 O 0.20085 0.85035 0.54523 0.0
C52 C 0.08904 0.8576 0.43278 0.0
O53 O 0.10236 0.83593 0.42556 0.0
O54 O 0.09132 0.86903 0.46966 0.0
O55 O 0.14644 0.83833 0.49181 0.0
O56 O 0.1508 0.81043 0.54567 0.0
O57 O 0.09035 0.82147 0.53715 0.0
C58 C 0.13108 0.88206 0.60001 0.0
C59 C 0.14897 0.81486 0.50481 0.0
Zn60 Zn 0.9174 0.41949 0.8382 0.0
Zn61 Zn 0.9025 0.36524 0.77029 0.0
C62 C 0.92193 0.46415 0.78259 0.0
O63 O 0.9469 0.45883 0.78919 0.0
C64 C 0.92621 0.31768 0.80048 0.0
O65 O 0.90211 0.30921 0.79426 0.0
O66 O 0.93821 0.43564 0.8873 0.0
O67 O 0.88588 0.40038 0.86378 0.0
O68 O 0.87466 0.36937 0.81609 0.0
C69 C 0.93353 0.45842 0.9024 0.0
O70 O 0.91291 0.47142 0.88817 0.0
O71 O 0.90463 0.44955 0.80026 0.0
C72 C 0.89989 0.341 0.68555 0.0
O73 O 0.92262 0.35286 0.68062 0.0
O74 O 0.88694 0.34449 0.72072 0.0
O75 O 0.91921 0.39779 0.74584 0.0
O76 O 0.94463 0.39945 0.8034 0.0
O77 O 0.93124 0.34184 0.79407 0.0
C78 C 0.87045 0.38221 0.85115 0.0
C79 C 0.9421 0.39918 0.76198 0.0
Zn80 Zn 0.61879 0.85807 0.96786 0.0
Zn81 Zn 0.66688 0.83648 0.90093 0.0
C82 C 0.56922 0.8374 0.9367 0.0
O83 O 0.5609 0.86082 0.94831 0.0
C84 C 0.71138 0.83415 0.95742 0.0
O85 O 0.70673 0.80901 0.95155 0.0
O86 O 0.59753 0.87369 0.01747 0.0
O87 O 0.64819 0.83684 0.99435 0.0
O88 O 0.64609 0.81083 0.9374 0.0
C89 C 0.59466 0.86116 0.05327 0.0
O90 O 0.60738 0.83898 0.05898 0.0
O91 O 0.59363 0.8322 0.93956 0.0
C92 C 0.70671 0.81933 0.83888 0.0
O93 O 0.71845 0.84121 0.85059 0.0
O94 O 0.68423 0.81398 0.85473 0.0
O95 O 0.64794 0.86656 0.87075 0.0
O96 O 0.6277 0.88719 0.92543 0.0
O97 O 0.69642 0.85084 0.93889 0.0
C98 C 0.64733 0.81377 0.97871 0.0
C99 C 0.63617 0.88664 0.88612 0.0
Zn100 Zn 0.40739 0.36287 0.72229 0.0
Zn101 Zn 0.42119 0.42008 0.65581 0.0
C102 C 0.43265 0.31685 0.68723 0.0
O103 O 0.40846 0.30795 0.68962 0.0
C104 C 0.42619 0.46545 0.70949 0.0
O105 O 0.45105 0.45986 0.70237 0.0
O106 O 0.39273 0.3419 0.77307 0.0
O107 O 0.42244 0.39608 0.74667 0.0
O108 O 0.44879 0.40065 0.69072 0.0
C109 C 0.40905 0.32907 0.79632 0.0
O110 O 0.4343 0.33117 0.78799 0.0
O111 O 0.43706 0.34069 0.69729 0.0
C112 C 0.43687 0.45841 0.58985 0.0
O113 O 0.41655 0.47171 0.60451 0.0
O114 O 0.4415 0.43568 0.60531 0.0
O115 O 0.38943 0.40026 0.63229 0.0
O116 O 0.37928 0.36707 0.67672 0.0
O117 O 0.40865 0.45065 0.69301 0.0
C118 C 0.44556 0.39833 0.73181 0.0
C119 C 0.37457 0.38117 0.64313 0.0
Zn120 Zn 0.89242 0.15515 0.47169 0.0
Zn121 Zn 0.83828 0.16979 0.40287 0.0
C122 C 0.93961 0.17868 0.43808 0.0
O123 O 0.94809 0.15449 0.44309 0.0
C124 C 0.78656 0.17003 0.443 0.0
O125 O 0.78378 0.19143 0.4194 0.0
O126 O 0.91259 0.14145 0.52392 0.0
O127 O 0.85928 0.17161 0.49417 0.0
O128 O 0.85776 0.19742 0.43717 0.0
C129 C 0.92479 0.15836 0.54686 0.0
O130 O 0.92224 0.1834 0.53737 0.0
O131 O 0.91556 0.1837 0.44584 0.0
C132 C 0.80428 0.1819 0.32771 0.0
O133 O 0.7943 0.15844 0.33426 0.0
O134 O 0.82318 0.18968 0.35163 0.0
O135 O 0.85778 0.13777 0.37985 0.0
O136 O 0.88869 0.12618 0.42767 0.0
O137 O 0.80813 0.1574 0.44148 0.0
C138 C 0.85825 0.19462 0.47852 0.0
C139 C 0.87572 0.12207 0.39265 0.0
Zn140 Zn 0.10008 0.64388 0.21375 0.0
Zn141 Zn 0.08732 0.58419 0.15198 0.0
C142 C 0.07284 0.68813 0.18009 0.0
O143 O 0.097 0.69723 0.18075 0.0
C144 C 0.08402 0.53895 0.20531 0.0
O145 O 0.05904 0.54442 0.19922 0.0
O146 O 0.11538 0.66666 0.26122 0.0
O147 O 0.08808 0.61047 0.24196 0.0
O148 O 0.05987 0.6019 0.19011 0.0
C149 C 0.09952 0.6757 0.28969 0.0
O150 O 0.07452 0.66956 0.28713 0.0
O151 O 0.06888 0.66431 0.19083 0.0
C152 C 0.0713 0.54633 0.08604 0.0
O153 O 0.09231 0.5335 0.09904 0.0
O154 O 0.06628 0.56869 0.10255 0.0
O155 O 0.11823 0.60477 0.12616 0.0
O156 O 0.12694 0.64001 0.16668 0.0
O157 O 0.10125 0.55367 0.18771 0.0
C158 C 0.0647 0.60548 0.23052 0.0
C159 C 0.13205 0.62506 0.13439 0.0
Zn160 Zn 0.83887 0.6699 0.58974 0.0
Zn161 Zn 0.89342 0.65309 0.5182 0.0
C162 C 0.79353 0.6736 0.53559 0.0
O163 O 0.79849 0.69862 0.54205 0.0
C164 C 0.92367 0.69373 0.57099 0.0
O165 O 0.90711 0.69123 0.60381 0.0
O166 O 0.82266 0.69027 0.63965 0.0
O167 O 0.85902 0.63854 0.61393 0.0
O168 O 0.88986 0.62641 0.56617 0.0
C169 C 0.80032 0.68462 0.6558 0.0
O170 O 0.78808 0.66342 0.64221 0.0
O171 O 0.80868 0.65657 0.5527 0.0
C172 C 0.92111 0.65269 0.43923 0.0
O173 O 0.91785 0.67793 0.44631 0.0
O174 O 0.91048 0.63633 0.46533 0.0
O175 O 0.8604 0.67082 0.49821 0.0
O176 O 0.85805 0.69739 0.55424 0.0
O177 O 0.92044 0.68027 0.53631 0.0
C178 C 0.87719 0.62291 0.60171 0.0
C179 C 0.85978 0.694 0.51313 0.0
Zn180 Zn 0.08652 0.08354 0.83838 0.0
Zn181 Zn 0.1001 0.14348 0.77621 0.0
C182 C 0.08383 0.0382 0.78523 0.0
O183 O 0.05877 0.04356 0.79065 0.0
C184 C 0.07299 0.18758 0.81039 0.0
O185 O 0.09722 0.1965 0.81043 0.0
O186 O 0.06512 0.06806 0.88758 0.0
O187 O 0.11718 0.10427 0.86446 0.0
O188 O 0.12652 0.1394 0.8239 0.0
C189 C 0.06999 0.04569 0.9042 0.0
O190 O 0.09101 0.03278 0.89146 0.0
O191 O 0.10082 0.05306 0.8031 0.0
C192 C 0.09998 0.1759 0.7008 0.0
O193 O 0.07485 0.17035 0.70362 0.0
O194 O 0.11575 0.16628 0.72888 0.0
O195 O 0.08802 0.11001 0.74843 0.0
O196 O 0.05946 0.10133 0.79973 0.0
O197 O 0.06891 0.16392 0.79892 0.0
C198 C 0.13119 0.12447 0.85643 0.0
C199 C 0.06449 0.10546 0.75953 0.0
Zn200 Zn 0.66933 0.33564 0.09023 0.0
Zn201 Zn 0.61593 0.35275 0.02413 0.0
C202 C 0.7133 0.33267 0.03259 0.0
O203 O 0.70863 0.30753 0.03838 0.0
C204 C 0.56796 0.32984 0.05472 0.0
O205 O 0.55964 0.35393 0.04791 0.0
O206 O 0.68678 0.31378 0.13692 0.0
O207 O 0.65091 0.36672 0.11858 0.0
O208 O 0.62123 0.3803 0.07015 0.0
C209 C 0.70952 0.31891 0.15184 0.0
O210 O 0.72142 0.34055 0.13937 0.0
O211 O 0.69855 0.34937 0.05146 0.0
C212 C 0.59227 0.35701 0.93886 0.0
O213 O 0.60527 0.33509 0.93211 0.0
O214 O 0.59485 0.36887 0.97528 0.0
O215 O 0.64762 0.33505 -0.0019 0.0
O216 O 0.64856 0.30911 0.05509 0.0
O217 O 0.59211 0.32457 0.04854 0.0
C218 C 0.63372 0.38328 0.10594 0.0
C219 C 0.64856 0.31201 0.01372 0.0
Zn220 Zn 0.4221 0.91859 0.33688 0.0
Zn221 Zn 0.40655 0.86574 0.26853 0.0
C222 C 0.42534 0.9649 0.28517 0.0
O223 O 0.4504 0.96042 0.29242 0.0
C224 C 0.43039 0.81909 0.30367 0.0
O225 O 0.40632 0.81029 0.29838 0.0
O226 O 0.4431 0.93462 0.38608 0.0
O227 O 0.39067 0.899 0.36208 0.0
O228 O 0.37746 0.86995 0.31229 0.0
C229 C 0.43711 0.95647 0.40358 0.0
O230 O 0.41512 0.96814 0.39216 0.0
O231 O 0.40846 0.94902 0.30073 0.0
C232 C 0.41032 0.83274 0.1944 0.0
O233 O 0.43531 0.83598 0.20374 0.0
O234 O 0.3931 0.84469 0.21715 0.0
O235 O 0.42302 0.89832 0.24396 0.0
O236 O 0.44938 0.89962 0.30029 0.0
O237 O 0.43516 0.84311 0.29546 0.0
C238 C 0.3742 0.882 0.34845 0.0
C239 C 0.44617 0.89959 0.25899 0.0
Zn240 Zn 0.11435 0.35313 0.47272 0.0
Zn241 Zn 0.17134 0.33719 0.40842 0.0
C242 C 0.0677 0.32756 0.44318 0.0
O243 O 0.05909 0.35184 0.44586 0.0
C244 C 0.21571 0.33322 0.46445 0.0
O245 O 0.20999 0.30828 0.45886 0.0
O246 O 0.09288 0.36999 0.52047 0.0
O247 O 0.14751 0.33872 0.49906 0.0
O248 O 0.15116 0.31094 0.44498 0.0
C249 C 0.08966 0.358 0.55666 0.0
O250 O 0.10204 0.33571 0.56331 0.0
O251 O 0.09177 0.32295 0.4515 0.0
C252 C 0.20989 0.32052 0.34395 0.0
O253 O 0.22237 0.34185 0.35632 0.0
O254 O 0.18749 0.31545 0.36035 0.0
O255 O 0.15214 0.36823 0.38117 0.0
O256 O 0.11868 0.37932 0.42431 0.0
O257 O 0.20147 0.35047 0.4458 0.0
C258 C 0.14978 0.31526 0.48591 0.0
C259 C 0.13286 0.3832 0.39056 0.0
Zn260 Zn 0.90092 0.86467 0.22051 0.0
Zn261 Zn 0.9158 0.91955 0.15359 0.0
C262 C 0.92516 0.81737 0.19024 0.0
O263 O 0.90115 0.80866 0.19656 0.0
C264 C 0.92021 0.96384 0.21031 0.0
O265 O 0.9452 0.95857 0.20394 0.0
O266 O 0.88572 0.84363 0.27027 0.0
O267 O 0.91727 0.89732 0.24537 0.0
O268 O 0.94312 0.89948 0.18836 0.0
C269 C 0.89849 0.84129 0.3059 0.0
O270 O 0.92055 0.85432 0.31084 0.0
O271 O 0.92993 0.84159 0.19653 0.0
C272 C 0.93223 0.95882 0.08982 0.0
O273 O 0.91187 0.97203 0.10453 0.0
O274 O 0.93664 0.93587 0.1045 0.0
O275 O 0.88419 0.90045 0.12793 0.0
O276 O 0.87299 0.86888 0.17469 0.0
O277 O 0.90299 0.94945 0.19195 0.0
C278 C 0.94028 0.89902 0.22973 0.0
C279 C 0.86877 0.88209 0.13996 0.0
Zn280 Zn 0.40028 0.65866 0.96274 0.0
Zn281 Zn 0.33704 0.66978 0.90304 0.0
C282 C 0.4432 0.68724 0.92711 0.0
O283 O 0.45257 0.6632 0.92554 0.0
C284 C 0.29097 0.67208 0.95486 0.0
O285 O 0.29624 0.69715 0.94964 0.0
O286 O 0.42361 0.64333 0.00975 0.0
O287 O 0.36639 0.66901 0.99119 0.0
O288 O 0.35379 0.69739 0.94189 0.0
C289 C 0.43331 0.65911 0.03772 0.0
O290 O 0.42788 0.68424 0.03471 0.0
O291 O 0.41968 0.69066 0.9401 0.0
C292 C 0.29962 0.68559 0.83576 0.0
O293 O 0.28657 0.66477 0.8489 0.0
O294 O 0.32189 0.69058 0.85268 0.0
O295 O 0.35889 0.63923 0.87867 0.0
O296 O 0.39614 0.63207 0.91517 0.0
O297 O 0.3062 0.65522 0.93747 0.0
C298 C 0.36025 0.69233 0.98119 0.0
C299 C 0.38007 0.62627 0.88472 0.0
Zn300 Zn 0.60633 0.14126 0.71995 0.0
Zn301 Zn 0.58575 0.08968 0.65331 0.0
C302 C 0.5827 0.18976 0.69129 0.0
O303 O 0.60662 0.19836 0.6988 0.0
C304 C 0.58636 0.03859 0.69475 0.0
O305 O 0.56336 0.0369 0.67544 0.0
O306 O 0.62258 0.16219 0.76916 0.0
O307 O 0.58858 0.10949 0.74574 0.0
O308 O 0.56066 0.10991 0.69135 0.0
C309 C 0.6095 0.16614 0.8041 0.0
O310 O 0.5865 0.15478 0.80874 0.0
O311 O 0.57795 0.16538 0.69588 0.0
C312 C 0.5704 0.05526 0.58134 0.0
O313 O 0.59437 0.04597 0.58549 0.0
O314 O 0.56311 0.07422 0.60556 0.0
O315 O 0.61628 0.10859 0.62444 0.0
O316 O 0.63417 0.13508 0.6742 0.0
O317 O 0.59986 0.05948 0.6904 0.0
C318 C 0.565 0.10918 0.73233 0.0
C319 C 0.63467 0.12379 0.63697 0.0
H320 H 0.42691 0.23615 0.05946 0.0
H321 H 0.5781 0.27769 0.06986 0.0
H322 H 0.49002 0.18167 0.08581 0.0
H323 H 0.51444 0.33357 0.06146 0.0
H324 H 0.54598 0.24248 0.07929 0.0
H325 H 0.45834 0.27238 0.06382 0.0
C326 C 0.4473 0.23181 0.06667 0.0
C327 C 0.45585 0.20579 0.07201 0.0
C328 C 0.53903 0.26248 0.07581 0.0
C329 C 0.492 0.24716 0.07658 0.0
C330 C 0.55738 0.28261 0.07043 0.0
C331 C 0.54896 0.30863 0.06463 0.0
C332 C 0.51204 0.26834 0.07504 0.0
C333 C 0.52185 0.3138 0.06567 0.0
C334 C 0.46526 0.25251 0.06909 0.0
C335 C 0.48253 0.20138 0.08127 0.0
N336 N 0.50436 0.29382 0.07036 0.0
N337 N 0.49967 0.22181 0.08285 0.0
H338 H 0.52549 0.67865 0.30611 0.0
H339 H 0.48301 0.8299 0.31166 0.0
H340 H 0.58063 0.74279 0.31549 0.0
H341 H 0.42761 0.76573 0.31394 0.0
H342 H 0.51898 0.79825 0.31737 0.0
H343 H 0.48933 0.71005 0.31297 0.0
C344 C 0.53002 0.69929 0.30999 0.0
C345 C 0.55617 0.70808 0.30997 0.0
C346 C 0.49894 0.79109 0.31705 0.0
C347 C 0.51482 0.7442 0.3176 0.0
C348 C 0.47837 0.80918 0.31389 0.0
C349 C 0.45222 0.80048 0.31215 0.0
C350 C 0.49338 0.76406 0.3182 0.0
C351 C 0.44745 0.77337 0.31506 0.0
C352 C 0.50935 0.71724 0.31389 0.0
C353 C 0.5608 0.73509 0.31515 0.0
N354 N 0.46781 0.75613 0.31758 0.0
N355 N 0.54037 0.75218 0.31844 0.0
H356 H 0.06908 0.77668 0.52177 0.0
H357 H 0.93304 0.73243 0.63209 0.0
H358 H 0.02673 0.82499 0.6143 0.0
H359 H 0.96576 0.69688 0.51561 0.0
H360 H 0.97019 0.76315 0.63363 0.0
H361 H 0.03454 0.74353 0.52746 0.0
C362 C 0.05267 0.78022 0.54367 0.0
C363 C 0.05073 0.80377 0.56738 0.0
C364 C 0.96922 0.74855 0.60786 0.0
C365 C 0.01103 0.76586 0.57393 0.0
C366 C 0.94806 0.73098 0.60701 0.0
C367 C 0.94621 0.7121 0.57361 0.0
C368 C 0.98878 0.747 0.57535 0.0
C369 C 0.96625 0.71118 0.5419 0.0
C370 C 0.03288 0.76132 0.54672 0.0
C371 C 0.02896 0.80722 0.5952 0.0
N372 N 0.98666 0.72833 0.5436 0.0
N373 N 0.00993 0.78852 0.59761 0.0
H374 H 0.97859 0.32805 0.81321 0.0
H375 H 0.02015 0.17673 0.80813 0.0
H376 H 0.92274 0.2643 0.80902 0.0
H377 H 0.07509 0.24017 0.82821 0.0
H378 H 0.98399 0.20829 0.81223 0.0
H379 H 0.01403 0.29609 0.82241 0.0
C380 C 0.97373 0.30735 0.81465 0.0
C381 C 0.94764 0.29885 0.81011 0.0
C382 C 1.00394 0.21527 0.81617 0.0
C383 C 0.98817 0.26211 0.82028 0.0
C384 C 0.02461 0.19723 0.8139 0.0
C385 C 0.05072 0.20581 0.8176 0.0
C386 C 0.00942 0.24211 0.82186 0.0
C387 C 0.05529 0.23265 0.825 0.0
C388 C 0.99399 0.2891 0.81988 0.0
C389 C 0.94255 0.27177 0.81222 0.0
N390 N 0.03488 0.24984 0.82651 0.0
N391 N 0.96264 0.25438 0.81679 0.0
H392 H 0.51552 0.84095 0.934 0.0
H393 H 0.49487 0.68627 0.90242 0.0
H394 H 0.57911 0.78577 0.91653 0.0
H395 H 0.43213 0.73988 0.93527 0.0
H396 H 0.52513 0.72333 0.89779 0.0
H397 H 0.4841 0.8051 0.92488 0.0
C398 C 0.52291 0.82135 0.92776 0.0
C399 C 0.55005 0.81638 0.92628 0.0
C400 C 0.50471 0.72704 0.90568 0.0
C401 C 0.51408 0.77515 0.91602 0.0
C402 C 0.48736 0.70587 0.90823 0.0
C403 C 0.4609 0.70991 0.91954 0.0
C404 C 0.49561 0.75254 0.91448 0.0
C405 C 0.45235 0.7358 0.92657 0.0
C406 C 0.50492 0.80087 0.92268 0.0
C407 C 0.5584 0.79055 0.91805 0.0
N408 N 0.46969 0.7561 0.92421 0.0
N409 N 0.54049 0.77091 0.9135 0.0
H410 H 0.43014 0.26409 0.67045 0.0
H411 H 0.58595 0.24325 0.68404 0.0
H412 H 0.48561 0.32743 0.68695 0.0
H413 H 0.53012 0.17952 0.6795 0.0
H414 H 0.54978 0.27447 0.67677 0.0
H415 H 0.46674 0.23319 0.6653 0.0
C416 C 0.45002 0.27157 0.67253 0.0
C417 C 0.45476 0.29843 0.67934 0.0
C418 C 0.54543 0.25366 0.67706 0.0
C419 C 0.49686 0.26301 0.67371 0.0
C420 C 0.56611 0.23577 0.68112 0.0
C421 C 0.5611 0.20866 0.68265 0.0
C422 C 0.51947 0.24446 0.6745 0.0
C423 C 0.53494 0.20021 0.67863 0.0
C424 C 0.47093 0.25387 0.6697 0.0
C425 C 0.48099 0.30692 0.68176 0.0
N426 N 0.51512 0.21804 0.67499 0.0
N427 N 0.50101 0.28926 0.6792 0.0
H428 H 0.99295 0.17515 0.42772 0.0
H429 H 0.01475 0.33085 0.42862 0.0
H430 H 0.92963 0.23156 0.43178 0.0
H431 H 0.07792 0.27459 0.43933 0.0
H432 H 0.98359 0.29472 0.42108 0.0
H433 H 0.02442 0.21124 0.42311 0.0
C434 C 0.98561 0.19511 0.42714 0.0
C435 C 0.95856 0.20029 0.43032 0.0
C436 C 0.00428 0.29026 0.4248 0.0
C437 C 0.99461 0.24179 0.42532 0.0
C438 C 0.02213 0.3109 0.42903 0.0
C439 C 0.04903 0.30579 0.43487 0.0
C440 C 0.01331 0.26421 0.42636 0.0
C441 C 0.05738 0.27949 0.43505 0.0
C442 C 1.00363 0.21573 0.42466 0.0
C443 C 0.95027 0.2266 0.42945 0.0
N444 N 0.03958 0.2597 0.4311 0.0
N445 N 0.96822 0.24634 0.42728 0.0
H446 H 0.02003 0.67696 0.1813 0.0
H447 H 0.97752 0.82813 0.17798 0.0
H448 H 0.07471 0.74089 0.16353 0.0
H449 H 0.92211 0.76398 0.18128 0.0
H450 H 0.01322 0.79643 0.16882 0.0
H451 H 0.9837 0.70834 0.17735 0.0
C452 C 0.0244 0.69754 0.17607 0.0
C453 C 0.05049 0.7063 0.17298 0.0
C454 C 0.99323 0.7893 0.17116 0.0
C455 C 0.00898 0.7424 0.16888 0.0
C456 C 0.97282 0.80741 0.17636 0.0
C457 C 0.94676 0.79872 0.18063 0.0
C458 C 0.9876 0.76227 0.1705 0.0
C459 C 0.94188 0.7716 0.17829 0.0
C460 C 1.00364 0.71547 0.17389 0.0
C461 C 0.05493 0.73323 0.16626 0.0
N462 N 0.9621 0.75436 0.17374 0.0
N463 N 0.03443 0.75032 0.16481 0.0
H464 H 0.15808 0.17069 0.86004 0.0
H465 H 0.26756 0.12126 0.02896 0.0
H466 H 0.15578 0.09341 0.9183 0.0
H467 H 0.25616 0.20229 0.99183 0.0
H468 H 0.22851 0.1094 0.98592 0.0
H469 H 0.19589 0.18136 0.90534 0.0
C470 C 0.16552 0.15591 0.8824 0.0
C471 C 0.15371 0.13106 0.88524 0.0
C472 C 0.23458 0.12976 0.98739 0.0
C473 C 0.19733 0.14323 0.93742 0.0
C474 C 0.25689 0.13653 0.01178 0.0
C475 C 0.26517 0.16281 0.01395 0.0
C476 C 0.22068 0.14939 0.96473 0.0
C477 C 0.25054 0.18179 0.99118 0.0
C478 C 0.18713 0.16207 0.90842 0.0
C479 C 0.16422 0.11282 0.91511 0.0
N480 N 0.22914 0.17469 0.96746 0.0
N481 N 0.18556 0.11922 0.93991 0.0
H482 H 0.66194 0.40363 0.17529 0.0
H483 H 0.5548 0.51386 0.22895 0.0
H484 H 0.59141 0.41599 0.09923 0.0
H485 H 0.63388 0.51746 0.27979 0.0
H486 H 0.56686 0.4752 0.18636 0.0
H487 H 0.65099 0.4426 0.21913 0.0
C488 C 0.64416 0.41445 0.16786 0.0
C489 C 0.6276 0.40651 0.13345 0.0
C490 C 0.58164 0.48445 0.20672 0.0
C491 C 0.61495 0.45092 0.18352 0.0
C492 C 0.57474 0.50651 0.23118 0.0
C493 C 0.59337 0.51895 0.25796 0.0
C494 C 0.60731 0.47445 0.20928 0.0
C495 C 0.61894 0.50854 0.25941 0.0
C496 C 0.638 0.43673 0.19276 0.0
C497 C 0.60486 0.42137 0.12524 0.0
N498 N 0.62515 0.48679 0.23554 0.0
N499 N 0.59919 0.44272 0.15015 0.0
H500 H 0.35384 0.90933 0.41869 0.0
H501 H 0.24219 0.80302 0.4677 0.0
H502 H 0.34081 0.84035 0.33926 0.0
H503 H 0.24004 0.88109 0.52263 0.0
H504 H 0.28076 0.81529 0.42488 0.0
H505 H 0.31459 0.89824 0.46171 0.0
C506 C 0.34279 0.89186 0.41032 0.0
C507 C 0.35066 0.87576 0.37524 0.0
C508 C 0.27184 0.8298 0.44617 0.0
C509 C 0.30589 0.86296 0.42442 0.0
C510 C 0.24983 0.82278 0.47076 0.0
C511 C 0.23785 0.84106 0.4988 0.0
C512 C 0.28224 0.85523 0.4499 0.0
C513 C 0.2486 0.86642 0.50127 0.0
C514 C 0.32035 0.88562 0.43478 0.0
C515 C 0.3355 0.85342 0.36584 0.0
N516 N 0.27031 0.87273 0.4773 0.0
N517 N 0.31397 0.84765 0.39036 0.0
H518 H 0.92084 0.59183 0.59636 0.0
H519 H 0.87341 0.48754 0.77556 0.0
H520 H 0.84863 0.60106 0.66926 0.0
H521 H 0.95331 0.49338 0.72892 0.0
H522 H 0.86209 0.52654 0.73214 0.0
H523 H 0.93123 0.55315 0.64015 0.0
C524 C 0.90713 0.58574 0.6216 0.0
C525 C 0.8838 0.59977 0.62911 0.0
C526 C 0.88208 0.51925 0.73152 0.0
C527 C 0.89559 0.55524 0.67935 0.0
C528 C 0.88853 0.49695 0.75609 0.0
C529 C 0.91436 0.48721 0.75589 0.0
C530 C 0.90153 0.53166 0.70619 0.0
C531 C 0.93318 0.50024 0.73021 0.0
C532 C 0.91314 0.56366 0.64669 0.0
C533 C 0.86688 0.59092 0.66244 0.0
N534 N 0.92637 0.5217 0.70632 0.0
N535 N 0.87305 0.56912 0.68621 0.0
H536 H 0.73373 0.88324 0.96393 0.0
H537 H 0.83781 0.83844 0.14584 0.0
H538 H 0.74066 0.80398 0.01283 0.0
H539 H 0.8463 0.91058 0.07268 0.0
H540 H 0.79932 0.82758 0.10204 0.0
H541 H 0.77212 0.89567 0.00819 0.0
C542 C 0.74323 0.8685 0.98407 0.0
C543 C 0.73399 0.84252 0.98463 0.0
C544 C 0.80959 0.84578 0.09546 0.0
C545 C 0.77772 0.85661 0.0353 0.0
C546 C 0.83158 0.85207 0.12059 0.0
C547 C 0.84541 0.87549 0.11298 0.0
C548 C 0.80104 0.8631 0.06257 0.0
C549 C 0.83633 0.89227 0.07959 0.0
C550 C 0.76518 0.87558 0.00913 0.0
C551 C 0.74712 0.82421 0.01119 0.0
N552 N 0.81464 0.8858 0.05571 0.0
N553 N 0.76821 0.83162 0.0355 0.0
H554 H 0.34764 0.60041 0.82645 0.0
H555 H 0.45895 0.49743 0.75587 0.0
H556 H 0.42648 0.59953 0.87887 0.0
H557 H 0.37729 0.48763 0.72122 0.0
H558 H 0.44752 0.53689 0.79675 0.0
H559 H 0.35831 0.56123 0.78303 0.0
C560 C 0.3672 0.59211 0.82869 0.0
C561 C 0.38616 0.60329 0.85651 0.0
C562 C 0.43204 0.52613 0.78031 0.0
C563 C 0.39844 0.55853 0.80697 0.0
C564 C 0.43857 0.50355 0.75687 0.0
C565 C 0.41905 0.48913 0.73511 0.0
C566 C 0.40578 0.53458 0.78192 0.0
C567 C 0.39296 0.49809 0.73766 0.0
C568 C 0.37323 0.56968 0.80405 0.0
C569 C 0.41115 0.5916 0.85814 0.0
N570 N 0.38708 0.5203 0.76056 0.0
N571 N 0.41653 0.56995 0.83376 0.0
H572 H 0.63545 0.1224 0.5472 0.0
H573 H 0.78934 0.14309 0.52067 0.0
H574 H 0.68516 0.13619 0.65957 0.0
H575 H 0.73412 0.1765 0.42886 0.0
H576 H 0.75236 0.13024 0.5681 0.0
H577 H 0.67287 0.13212 0.49892 0.0
C578 C 0.65427 0.12727 0.56168 0.0
C579 C 0.65721 0.12865 0.60741 0.0
C580 C 0.74845 0.14028 0.53744 0.0
C581 C 0.69997 0.13924 0.55256 0.0
C582 C 0.76944 0.14748 0.51036 0.0
C583 C 0.7647 0.16096 0.47099 0.0
C584 C 0.72262 0.14599 0.52435 0.0
C585 C 0.73858 0.16631 0.45916 0.0
C586 C 0.6755 0.13289 0.53417 0.0
C587 C 0.68202 0.13513 0.62447 0.0
N588 N 0.71848 0.15865 0.48559 0.0
N589 N 0.70252 0.14002 0.59703 0.0
H590 H 0.16294 0.4051 0.32479 0.0
H591 H 0.05228 0.50903 0.25708 0.0
H592 H 0.08816 0.41286 0.39064 0.0
H593 H 0.13288 0.51631 0.21455 0.0
H594 H 0.06446 0.47094 0.30095 0.0
H595 H 0.15164 0.44309 0.27887 0.0
C596 C 0.14415 0.4147 0.32953 0.0
C597 C 0.1265 0.40578 0.36172 0.0
C598 C 0.07953 0.48086 0.28211 0.0
C599 C 0.11348 0.44908 0.30927 0.0
C600 C 0.07258 0.5026 0.25692 0.0
C601 C 0.0916 0.51593 0.23214 0.0
C602 C 0.1057 0.47211 0.28237 0.0
C603 C 0.11761 0.50668 0.23333 0.0
C604 C 0.13778 0.43643 0.30344 0.0
C605 C 0.10247 0.41906 0.36646 0.0
N606 N 0.12391 0.48525 0.25795 0.0
N607 N 0.09667 0.43992 0.34049 0.0
H608 H 0.66335 0.67185 0.35484 0.0
H609 H 0.77191 0.62436 0.52687 0.0
H610 H 0.65912 0.59655 0.41967 0.0
H611 H 0.76207 0.70481 0.48527 0.0
H612 H 0.73278 0.61235 0.48427 0.0
H613 H 0.70161 0.68285 0.39896 0.0
C614 C 0.67045 0.65758 0.3784 0.0
C615 C 0.65796 0.63318 0.38345 0.0
C616 C 0.73921 0.63262 0.4846 0.0
C617 C 0.70209 0.64572 0.43419 0.0
C618 C 0.76159 0.63947 0.50872 0.0
C619 C 0.77029 0.66564 0.50961 0.0
C620 C 0.72566 0.65203 0.46089 0.0
C621 C 0.75609 0.68441 0.48564 0.0
C622 C 0.69231 0.66393 0.40372 0.0
C623 C 0.66807 0.6156 0.41477 0.0
N624 N 0.73459 0.67723 0.4622 0.0
N625 N 0.68966 0.62215 0.43882 0.0
H626 H 0.13311 0.01647 0.77626 0.0
H627 H 0.08533 0.91001 0.60101 0.0
H628 H 0.05261 0.00722 0.73434 0.0
H629 H 0.16113 0.90547 0.6643 0.0
H630 H 0.07436 0.94767 0.64653 0.0
H631 H 0.14513 0.97786 0.73237 0.0
C632 C 0.11799 0.00637 0.75782 0.0
C633 C 0.09181 0.0151 0.75895 0.0
C634 C 0.09338 0.93844 0.65064 0.0
C635 C 0.10542 0.9711 0.70874 0.0
C636 C 0.09972 0.91693 0.62451 0.0
C637 C 0.12424 0.90453 0.62873 0.0
C638 C 0.11173 0.94794 0.68112 0.0
C639 C 0.14197 0.91437 0.66002 0.0
C640 C 0.12485 0.9843 0.73294 0.0
C641 C 0.07302 1.00121 0.73455 0.0
N642 N 0.13543 0.93561 0.68489 0.0
N643 N 0.08021 0.98002 0.71039 0.0
H644 H 0.7355 0.38174 0.02675 0.0
H645 H 0.83957 0.33861 0.844 0.0
H646 H 0.74256 0.30278 0.97666 0.0
H647 H 0.84795 0.41002 0.91909 0.0
H648 H 0.80108 0.32726 0.8875 0.0
H649 H 0.77381 0.39452 0.98267 0.0
C650 C 0.74502 0.36714 0.00637 0.0
C651 C 0.73585 0.34114 0.00541 0.0
C652 C 0.81133 0.34541 0.89455 0.0
C653 C 0.77949 0.35563 0.95497 0.0
C654 C 0.83331 0.35197 0.86961 0.0
C655 C 0.84709 0.37533 0.87788 0.0
C656 C 0.80277 0.36239 0.92789 0.0
C657 C 0.83801 0.39177 0.91168 0.0
C658 C 0.76692 0.37442 0.98141 0.0
C659 C 0.74899 0.32301 0.97857 0.0
N660 N 0.81633 0.38503 0.93537 0.0
N661 N 0.77006 0.33062 0.95436 0.0
H662 H 0.37543 0.9846 0.27333 0.0
H663 H 0.42396 0.09909 0.11339 0.0
H664 H 0.45665 0.99898 0.24017 0.0
H665 H 0.34548 0.09737 0.16729 0.0
H666 H 0.43524 0.06087 0.15725 0.0
H667 H 0.363 0.02414 0.23213 0.0
C668 C 0.39063 0.99601 0.25735 0.0
C669 C 0.41713 0.98843 0.26014 0.0
C670 C 0.41556 0.06884 0.15972 0.0
C671 C 0.40305 0.03356 0.21307 0.0
C672 C 0.40904 0.09069 0.13453 0.0
C673 C 0.38367 0.10146 0.13649 0.0
C674 C 0.39655 0.05733 0.18698 0.0
C675 C 0.36529 0.08975 0.16483 0.0
C676 C 0.38353 0.01862 0.23403 0.0
C677 C 0.43599 0.00403 0.23897 0.0
N678 N 0.37204 0.06817 0.1888 0.0
N679 N 0.42858 0.02573 0.21627 0.0
H680 H 0.24442 0.30188 0.51891 0.0
H681 H 0.35199 0.41076 0.57748 0.0
H682 H 0.2395 0.38157 0.47124 0.0
H683 H 0.3436 0.33737 0.64717 0.0
H684 H 0.31293 0.39976 0.53407 0.0
H685 H 0.28291 0.31391 0.56203 0.0
C686 C 0.25143 0.32195 0.51751 0.0
C687 C 0.2387 0.34075 0.4914 0.0
C688 C 0.31967 0.38614 0.55895 0.0
C689 C 0.28298 0.35466 0.5407 0.0
C690 C 0.342 0.39234 0.58363 0.0
C691 C 0.35113 0.37499 0.61611 0.0
C692 C 0.30654 0.36229 0.56647 0.0
C693 C 0.33731 0.35144 0.62267 0.0
C694 C 0.2734 0.32882 0.54226 0.0
C695 C 0.24867 0.36647 0.49104 0.0
N696 N 0.31583 0.34577 0.59801 0.0
N697 N 0.27032 0.37266 0.51518 0.0
H698 H 0.91859 0.08994 0.39969 0.0
H699 H 0.87172 0.98735 0.21727 0.0
H700 H 0.84709 0.10021 0.32531 0.0
H701 H 0.95125 0.99212 0.26584 0.0
H702 H 0.86024 0.0258 0.26187 0.0
H703 H 0.92876 0.05111 0.3561 0.0
C704 C 0.90496 0.08402 0.37425 0.0
C705 C 0.88194 0.09844 0.36617 0.0
C706 C 0.88018 0.01839 0.26269 0.0
C707 C 0.8935 0.05377 0.31611 0.0
C708 C 0.88673 0.9964 0.23742 0.0
C709 C 0.91251 0.98655 0.23777 0.0
C710 C 0.89948 0.03036 0.28886 0.0
C711 C 0.93117 0.9991 0.26437 0.0
C712 C 0.91085 0.06185 0.34926 0.0
C713 C 0.86511 0.08978 0.33258 0.0
N714 N 0.92428 0.02027 0.28891 0.0
N715 N 0.87118 0.06794 0.30888 0.0
H716 H 0.1591 0.67124 0.13195 0.0
H717 H 0.26964 0.62262 0.96396 0.0
H718 H 0.15722 0.59422 0.07277 0.0
H719 H 0.25866 0.70327 0.00352 0.0
H720 H 0.23033 0.61054 0.00625 0.0
H721 H 0.19737 0.68203 0.08778 0.0
C722 C 0.16672 0.65653 0.10962 0.0
C723 C 0.15488 0.63173 0.1062 0.0
C724 C 0.23656 0.63086 0.00551 0.0
C725 C 0.19906 0.64405 0.0553 0.0
C726 C 0.25902 0.63776 0.98154 0.0
C727 C 0.26748 0.66401 0.98022 0.0
C728 C 0.22267 0.65033 0.02859 0.0
C729 C 0.25291 0.68281 0.00349 0.0
C730 C 0.1886 0.66277 0.08425 0.0
C731 C 0.16566 0.6136 0.07641 0.0
N732 N 0.23135 0.67559 0.02675 0.0
N733 N 0.18726 0.62008 0.05223 0.0
H734 H 0.57635 0.9867 0.68204 0.0
H735 H 0.62972 0.93798 0.91042 0.0
H736 H 0.6183 0.03972 0.76725 0.0
H737 H 0.63171 0.88763 0.79659 0.0
H738 H 0.62009 0.9755 0.86247 0.0
H739 H 0.59093 0.94975 0.72749 0.0
C740 C 0.58868 0.99053 0.71031 0.0
C741 C 0.59616 0.01625 0.72099 0.0
C742 C 0.62284 0.95625 0.84809 0.0
C743 C 0.61244 0.9742 0.77339 0.0
C744 C 0.62819 0.93483 0.87535 0.0
C745 C 0.63149 0.90964 0.85743 0.0
C746 C 0.62008 0.95232 0.80276 0.0
C747 C 0.62941 0.90672 0.81174 0.0
C748 C 0.59706 0.96946 0.73603 0.0
C749 C 0.61224 0.02014 0.75784 0.0
N750 N 0.62347 0.92774 0.78601 0.0
N751 N 0.61957 0.99934 0.78316 0.0
H752 H 0.45929 0.11218 0.95533 0.0
H753 H 0.51871 0.13462 0.71664 0.0
H754 H 0.44029 0.18006 0.8766 0.0
H755 H 0.56256 0.09557 0.81883 0.0
H756 H 0.48413 0.14474 0.76994 0.0
H757 H 0.49187 0.09905 0.90004 0.0
C758 C 0.46181 0.12415 0.92622 0.0
C759 C 0.44723 0.14727 0.92045 0.0
C760 C 0.5013 0.13388 0.78056 0.0
C761 C 0.48401 0.13229 0.85737 0.0
C762 C 0.52094 0.12801 0.75022 0.0
C763 C 0.54353 0.11438 0.76355 0.0
C764 C 0.50404 0.12555 0.82422 0.0
C765 C 0.54549 0.10629 0.80744 0.0
C766 C 0.48045 0.11674 0.89494 0.0
C767 C 0.4513 0.16218 0.88236 0.0
N768 N 0.52591 0.11192 0.83629 0.0
N769 N 0.46926 0.15437 0.8521 0.0
H770 H 0.64625 0.7064 0.19929 0.0
H771 H 0.62689 0.76569 0.95853 0.0
H772 H 0.59071 0.67532 0.10569 0.0
H773 H 0.66005 0.81004 0.06572 0.0
H774 H 0.61975 0.72876 0.00845 0.0
H775 H 0.6579 0.74084 0.14668 0.0
C776 C 0.63673 0.70663 0.16749 0.0
C777 C 0.6174 0.68803 0.15687 0.0
C778 C 0.62866 0.74655 0.02099 0.0
C779 C 0.63064 0.72731 0.09672 0.0
C780 C 0.63284 0.76759 0.99252 0.0
C781 C 0.64393 0.791 0.00814 0.0
C782 C 0.63595 0.74881 0.06524 0.0
C783 C 0.65122 0.7924 0.05249 0.0
C784 C 0.64328 0.72637 0.13764 0.0
C785 C 0.60561 0.68935 0.1153 0.0
N786 N 0.64711 0.77157 0.07953 0.0
N787 N 0.61241 0.70868 0.08673 0.0
H788 H 0.94354 0.90925 0.31743 0.0
H789 H 0.08377 0.84241 0.34714 0.0
H790 H 0.98913 0.88051 0.20808 0.0
H791 H 0.04923 0.8931 0.44498 0.0
H792 H 0.04861 0.85454 0.29627 0.0
H793 H 0.9812 0.9016 0.36574 0.0
C794 C 0.96151 0.90136 0.30362 0.0
C795 C 0.9632 0.89536 0.25879 0.0
C796 C 0.04888 0.86319 0.32873 0.0
C797 C 0.0063 0.88653 0.31377 0.0
C798 C 0.06892 0.85626 0.3578 0.0
C799 C 0.0694 0.86671 0.40041 0.0
C800 C 0.02895 0.88038 0.34258 0.0
C801 C 0.04967 0.8846 0.41242 0.0
C802 C 0.98302 0.89713 0.33113 0.0
C803 C 0.98701 0.88541 0.24247 0.0
N804 N 0.03009 0.89066 0.38381 0.0
N805 N 0.00756 0.88108 0.27004 0.0
H806 H 0.8774 0.24303 0.45571 0.0
H807 H 0.86275 0.30281 0.69637 0.0
H808 H 0.85063 0.19779 0.56688 0.0
H809 H 0.91739 0.33409 0.60135 0.0
H810 H 0.85142 0.26787 0.64478 0.0
H811 H 0.88606 0.28012 0.50483 0.0
C812 C 0.87322 0.24095 0.4904 0.0
C813 C 0.86332 0.21732 0.50735 0.0
C814 C 0.86579 0.28247 0.63519 0.0
C815 C 0.87287 0.25964 0.56335 0.0
C816 C 0.87214 0.30252 0.66445 0.0
C817 C 0.89111 0.32134 0.65314 0.0
C818 C 0.87822 0.28143 0.59412 0.0
C819 C 0.90275 0.31989 0.61144 0.0
C820 C 0.87825 0.26207 0.51835 0.0
C821 C 0.85838 0.21563 0.55255 0.0
N822 N 0.8961 0.30026 0.58335 0.0
N823 N 0.86309 0.23657 0.57899 0.0
H824 H 0.58988 0.84531 0.13863 0.0
H825 H 0.44776 0.90713 0.17029 0.0
H826 H 0.55398 0.89571 0.04174 0.0
H827 H 0.496 0.88343 0.27988 0.0
H828 H 0.48516 0.89998 0.12117 0.0
H829 H 0.55451 0.85632 0.18991 0.0
C830 C 0.57468 0.85887 0.12828 0.0
C831 C 0.57487 0.86962 0.08587 0.0
C832 C 0.48759 0.8965 0.15601 0.0
C833 C 0.53419 0.88194 0.14408 0.0
C834 C 0.46624 0.90046 0.18401 0.0
C835 C 0.46879 0.89587 0.22921 0.0
C836 C 0.51154 0.8875 0.17323 0.0
C837 C 0.49321 0.88731 0.24526 0.0
C838 C 0.55454 0.86515 0.15757 0.0
C839 C 0.55468 0.88708 0.07419 0.0
N840 N 0.51359 0.88319 0.21723 0.0
N841 N 0.53498 0.89247 0.10298 0.0
H842 H 0.36499 0.33111 0.84826 0.0
H843 H 0.37322 0.18377 0.92497 0.0
H844 H 0.43214 0.28276 0.81737 0.0
H845 H 0.35048 0.24291 0.0192 0.0
H846 H 0.38536 0.21852 0.8735 0.0
H847 H 0.35025 0.29742 0.90105 0.0
C848 C 0.37656 0.31343 0.8526 0.0
C849 C 0.39986 0.30967 0.82877 0.0
C850 C 0.37762 0.22379 0.90544 0.0
C851 C 0.38286 0.27121 0.88751 0.0
C852 C 0.37071 0.20404 0.93488 0.0
C853 C 0.36152 0.21044 0.97699 0.0
C854 C 0.3744 0.25013 0.91749 0.0
C855 C 0.35798 0.2371 0.9874 0.0
C856 C 0.36821 0.29439 0.88265 0.0
C857 C 0.4142 0.28649 0.83545 0.0
N858 N 0.36439 0.25606 0.95775 0.0
N859 N 0.4053 0.26797 0.86382 0.0
H860 H 0.01125 0.10113 0.77296 0.0
H861 H 0.97073 0.18256 0.56647 0.0
H862 H 0.06864 0.12087 0.67381 0.0
H863 H 0.9236 0.11518 0.60073 0.0
H864 H 0.00455 0.16771 0.61803 0.0
H865 H 0.97612 0.11262 0.72098 0.0
C866 C 0.01649 0.10789 0.7404 0.0
C867 C 0.04296 0.11064 0.72805 0.0
C868 C 0.98673 0.15628 0.61428 0.0
C869 C 1.00306 0.12408 0.66931 0.0
C870 C 0.9674 0.16479 0.58524 0.0
C871 C 0.94441 0.15003 0.57952 0.0
C872 C 0.98271 0.13328 0.6386 0.0
C873 C 0.94115 0.127 0.60425 0.0
C874 C 0.99647 0.11433 0.71089 0.0
C875 C 0.04856 0.11906 0.68516 0.0
N876 N 0.96005 0.1194 0.63324 0.0
N877 N 0.02878 0.12597 0.65759 0.0
H878 H 0.16083 0.81277 0.41794 0.0
H879 H 0.07634 0.6862 0.36836 0.0
H880 H 0.12463 0.7681 0.52198 0.0
H881 H 0.14286 0.70743 0.28791 0.0
H882 H 0.08995 0.71902 0.42252 0.0
H883 H 0.15054 0.77724 0.36644 0.0
C884 C 0.15075 0.79543 0.42985 0.0
C885 C 0.14351 0.79327 0.47408 0.0
C886 C 0.10165 0.71631 0.39316 0.0
C887 C 0.13151 0.75292 0.41563 0.0
C888 C 0.09387 0.6977 0.36223 0.0
C889 C 0.10853 0.69417 0.32368 0.0
C890 C 0.12386 0.73185 0.38494 0.0
C891 C 0.13111 0.70949 0.31734 0.0
C892 C 0.14503 0.77518 0.40061 0.0
C893 C 0.13062 0.77042 0.48809 0.0
N894 N 0.13794 0.72794 0.34746 0.0
N895 N 0.12474 0.7512 0.45879 0.0
H896 H 0.92158 0.60722 0.39042 0.0
H897 H 0.06833 0.62028 0.31654 0.0
H898 H 0.96526 0.67834 0.41476 0.0
H899 H 0.01166 0.59852 0.21753 0.0
H900 H 0.03221 0.63067 0.36651 0.0
H901 H 0.95613 0.5933 0.33831 0.0
C902 C 0.93836 0.61985 0.38471 0.0
C903 C 0.94059 0.64401 0.40654 0.0
C904 C 0.02781 0.62347 0.33387 0.0
C905 C 0.98002 0.62796 0.34888 0.0
C906 C 0.04833 0.61762 0.30526 0.0
C907 C 0.043 0.60933 0.26226 0.0
C908 C 1.0018 0.62003 0.32002 0.0
C909 C 0.01663 0.60541 0.25009 0.0
C910 C 0.95789 0.61196 0.35511 0.0
C911 C 0.96268 0.6597 0.39823 0.0
N912 N 0.9969 0.61079 0.27892 0.0
N913 N 0.98174 0.65124 0.37051 0.0
H914 H 0.07716 0.18656 0.62199 0.0
H915 H 0.16112 0.3134 0.57312 0.0
H916 H 0.14349 0.20744 0.70296 0.0
H917 H 0.1265 0.26801 0.46856 0.0
H918 H 0.15093 0.27776 0.62461 0.0
H919 H 0.09106 0.21936 0.56796 0.0
C920 C 0.09472 0.19798 0.62825 0.0
C921 C 0.10924 0.19435 0.6669 0.0
C922 C 0.14575 0.27559 0.59033 0.0
C923 C 0.1249 0.23204 0.6058 0.0
C924 C 0.15141 0.2959 0.56108 0.0
C925 C 0.14454 0.29359 0.5167 0.0
C926 C 0.13266 0.25312 0.57515 0.0
C927 C 0.13214 0.2705 0.50256 0.0
C928 C 0.10266 0.21658 0.5974 0.0
C929 C 0.13186 0.20958 0.67343 0.0
N930 N 0.12629 0.25124 0.53185 0.0
N931 N 0.13884 0.22805 0.64338 0.0
H932 H 0.4951 0.38236 0.70874 0.0
H933 H 0.55197 0.39161 0.95217 0.0
H934 H 0.44747 0.40282 0.82089 0.0
H935 H 0.58706 0.34229 0.85291 0.0
H936 H 0.51685 0.40287 0.90075 0.0
H937 H 0.5322 0.37393 0.75807 0.0
C938 C 0.49249 0.38518 0.74371 0.0
C939 C 0.46819 0.39325 0.76085 0.0
C940 C 0.53232 0.3897 0.89021 0.0
C941 C 0.51051 0.38398 0.81713 0.0
C942 C 0.55247 0.3834 0.91939 0.0
C943 C 0.57242 0.36592 0.9068 0.0
C944 C 0.53231 0.37872 0.84798 0.0
C945 C 0.57198 0.35575 0.86399 0.0
C946 C 0.51362 0.3803 0.77177 0.0
C947 C 0.46584 0.39649 0.80639 0.0
N948 N 0.55222 0.36232 0.83604 0.0
N949 N 0.48678 0.39197 0.83297 0.0
H950 H 0.35288 0.74537 0.96951 0.0
H951 H 0.43623 0.78791 0.17354 0.0
H952 H 0.37862 0.68831 0.06522 0.0
H953 H 0.3666 0.83241 0.14167 0.0
H954 H 0.42239 0.75387 0.12172 0.0
H955 H 0.36384 0.78056 0.02159 0.0
C956 C 0.36089 0.74022 0.0013 0.0
C957 C 0.36544 0.71385 0.01263 0.0
C958 C 0.41024 0.77116 0.12606 0.0
C959 C 0.37824 0.75386 0.07151 0.0
C960 C 0.41816 0.79062 0.15527 0.0
C961 C 0.40249 0.81293 0.16174 0.0
C962 C 0.38687 0.77438 0.10233 0.0
C963 C 0.37913 0.81539 0.13759 0.0
C964 C 0.36702 0.76028 0.03089 0.0
C965 C 0.37542 0.70834 0.0546 0.0
N966 N 0.37209 0.79639 0.10846 0.0
N967 N 0.38193 0.72819 0.08223 0.0
H968 H 0.05116 0.39481 0.54423 0.0
H969 H 0.99044 0.38002 0.78496 0.0
H970 H 0.08298 0.34208 0.64168 0.0
H971 H 0.94628 0.40917 0.67427 0.0
H972 H 0.02799 0.37221 0.73638 0.0
H973 H 0.01615 0.40681 0.5955 0.0
C974 C 0.05097 0.38599 0.57659 0.0
C975 C 0.06995 0.36733 0.58868 0.0
C976 C 0.0101 0.38038 0.7228 0.0
C977 C 0.02997 0.38096 0.64734 0.0
C978 C 0.98871 0.38493 0.75048 0.0
C979 C 0.96519 0.39511 0.73347 0.0
C980 C 0.00806 0.38645 0.67798 0.0
C981 C 0.964 0.40107 0.68857 0.0
C982 C 0.0309 0.39273 0.6057 0.0
C983 C 0.06866 0.35644 0.63095 0.0
N984 N 0.98516 0.39669 0.66235 0.0
N985 N 0.04898 0.36341 0.65879 0.0
H986 H 0.91567 0.8366 0.39064 0.0
H987 H 0.85274 0.69544 0.42458 0.0
H988 H 0.86343 0.80107 0.29618 0.0
H989 H 0.87715 0.7434 0.53397 0.0
H990 H 0.86035 0.73257 0.37534 0.0
H991 H 0.90503 0.80145 0.44263 0.0
C992 C 0.90181 0.82153 0.38098 0.0
C993 C 0.89042 0.82172 0.33903 0.0
C994 C 0.86391 0.73501 0.41015 0.0
C995 C 0.87856 0.78138 0.39795 0.0
C996 C 0.85972 0.7138 0.43821 0.0
C997 C 0.86429 0.7164 0.48337 0.0
C998 C 0.87314 0.75886 0.42727 0.0
C999 C 0.87324 0.74064 0.49934 0.0
C1000 C 0.89574 0.80154 0.41066 0.0
C1001 C 0.87259 0.80174 0.32823 0.0
N1002 N 0.87757 0.76093 0.47123 0.0
N1003 N 0.86742 0.78221 0.35734 0.0
H1004 H 0.44339 0.68221 0.11651 0.0
H1005 H 0.56703 0.59517 0.17313 0.0
H1006 H 0.46397 0.61491 0.03761 0.0
H1007 H 0.52064 0.63154 0.27487 0.0
H1008 H 0.53254 0.60584 0.11979 0.0
H1009 H 0.47477 0.66769 0.17242 0.0
C1010 C 0.45447 0.66433 0.11105 0.0
C1011 C 0.45116 0.64971 0.07244 0.0
C1012 C 0.52987 0.61128 0.15387 0.0
C1013 C 0.48722 0.6333 0.13579 0.0
C1014 C 0.54952 0.60533 0.18418 0.0
C1015 C 0.54664 0.61261 0.22829 0.0
C1016 C 0.50748 0.62508 0.16769 0.0
C1017 C 0.52357 0.6256 0.24112 0.0
C1018 C 0.47224 0.65603 0.14301 0.0
C1019 C 0.4659 0.62666 0.06704 0.0
N1020 N 0.50497 0.63175 0.21079 0.0
N1021 N 0.48359 0.6193 0.09817 0.0
H1022 H 0.62879 0.26368 0.03488 0.0
H1023 H 0.64721 0.20404 0.79418 0.0
H1024 H 0.65979 0.30842 0.92628 0.0
H1025 H 0.59184 0.1729 0.88809 0.0
H1026 H 0.65862 0.23872 0.84646 0.0
H1027 H 0.62143 0.2266 0.98525 0.0
C1028 C 0.6342 0.26563 0.00065 0.0
C1029 C 0.64477 0.28919 0.98454 0.0
C1030 C 0.64409 0.22418 0.85565 0.0
C1031 C 0.63664 0.24683 0.92783 0.0
C1032 C 0.6377 0.20429 0.82599 0.0
C1033 C 0.61848 0.18561 0.83678 0.0
C1034 C 0.63144 0.22517 0.89658 0.0
C1035 C 0.60667 0.18699 0.87836 0.0
C1036 C 0.62991 0.24452 0.97236 0.0
C1037 C 0.65138 0.29067 0.93989 0.0
N1038 N 0.61334 0.20644 0.90677 0.0
N1039 N 0.64725 0.26975 0.91307 0.0
H1040 H 0.25076 0.18021 0.199 0.0
H1041 H 0.25844 0.32388 0.30535 0.0
H1042 H 0.31736 0.23198 0.1842 0.0
H1043 H 0.19096 0.27294 0.3166 0.0
H1044 H 0.28047 0.29039 0.26121 0.0
H1045 H 0.22899 0.21357 0.24369 0.0
C1046 C 0.2609 0.19851 0.20538 0.0
C1047 C 0.28592 0.2033 0.18774 0.0
C1048 C 0.26082 0.28657 0.27324 0.0
C1049 C 0.26099 0.2417 0.23862 0.0
C1050 C 0.24819 0.30573 0.29835 0.0
C1051 C 0.22281 0.30123 0.31474 0.0
C1052 C 0.24801 0.2627 0.26452 0.0
C1053 C 0.21052 0.27729 0.30465 0.0
C1054 C 0.2484 0.2176 0.23077 0.0
C1055 C 0.29806 0.22742 0.19707 0.0
N1056 N 0.22326 0.25892 0.28031 0.0
N1057 N 0.28545 0.24573 0.22176 0.0
H1058 H 0.52593 0.56977 0.43477 0.0
H1059 H 0.48214 0.43731 0.55625 0.0
H1060 H 0.57322 0.49937 0.43826 0.0
H1061 H 0.43547 0.50815 0.55545 0.0
H1062 H 0.51521 0.45945 0.51156 0.0
H1063 H 0.4925 0.54754 0.47871 0.0
C1064 C 0.52938 0.54969 0.44499 0.0
C1065 C 0.55245 0.53642 0.43277 0.0
C1066 C 0.4977 0.47014 0.52102 0.0
C1067 C 0.51409 0.51077 0.48283 0.0
C1068 C 0.47873 0.45747 0.54643 0.0
C1069 C 0.45597 0.4709 0.55972 0.0
C1070 C 0.49395 0.49647 0.50877 0.0
C1071 C 0.45269 0.49702 0.54599 0.0
C1072 C 0.51022 0.53698 0.46998 0.0
C1073 C 0.55578 0.5104 0.44692 0.0
N1074 N 0.4715 0.50897 0.5214 0.0
N1075 N 0.53679 0.49841 0.47108 0.0
H1076 H 0.18884 0.77365 0.67807 0.0
H1077 H 0.32047 0.73137 0.80378 0.0
H1078 H 0.25926 0.82088 0.68085 0.0
H1079 H 0.25049 0.68354 0.79905 0.0
H1080 H 0.29853 0.76418 0.7582 0.0
H1081 H 0.21097 0.74063 0.72293 0.0
C1082 C 0.20891 0.77717 0.68831 0.0
C1083 C 0.22221 0.80011 0.67563 0.0
C1084 C 0.28799 0.74647 0.76699 0.0
C1085 C 0.24776 0.76221 0.7268 0.0
C1086 C 0.30055 0.72766 0.79293 0.0
C1087 C 0.2873 0.70465 0.80534 0.0
C1088 C 0.26196 0.7423 0.75338 0.0
C1089 C 0.26149 0.70097 0.7903 0.0
C1090 C 0.22158 0.75824 0.71382 0.0
C1091 C 0.24822 0.80353 0.68984 0.0
N1092 N 0.24964 0.71963 0.76525 0.0
N1093 N 0.26015 0.78477 0.71458 0.0
H1094 H 0.07334 0.49701 0.05033 0.0
H1095 H 0.93187 0.5082 0.93646 0.0
H1096 H 0.02503 0.56669 0.05517 0.0
H1097 H 0.97948 0.43799 0.93434 0.0
H1098 H 0.96574 0.52999 0.98004 0.0
H1099 H 0.03952 0.47536 0.00649 0.0
C1100 C 0.05572 0.50784 0.04191 0.0
C1101 C 0.05202 0.5337 0.05652 0.0
C1102 C 0.96874 0.50979 0.97016 0.0
C1103 C 0.0131 0.50894 0.00665 0.0
C1104 C 0.94934 0.49729 0.94541 0.0
C1105 C 0.95283 0.47123 0.93167 0.0
C1106 C 0.99181 0.49614 0.98122 0.0
C1107 C 0.97593 0.45811 0.94417 0.0
C1108 C 0.03636 0.49542 0.01702 0.0
C1109 C 0.02874 0.54672 0.04467 0.0
N1110 N 0.99456 0.47072 0.96811 0.0
N1111 N 0.01014 0.53418 0.02055 0.0
H1112 H 0.75599 0.82309 0.80311 0.0
H1113 H 0.75139 0.68034 0.69279 0.0
H1114 H 0.689 0.7713 0.8111 0.0
H1115 H 0.81868 0.73181 0.68623 0.0
H1116 H 0.72848 0.71309 0.73719 0.0
H1117 H 0.77923 0.78989 0.76018 0.0
C1118 C 0.74609 0.8048 0.79566 0.0
C1119 C 0.72048 0.80001 0.81075 0.0
C1120 C 0.7483 0.71718 0.72619 0.0
C1121 C 0.74709 0.76178 0.7618 0.0
C1122 C 0.76144 0.69843 0.70093 0.0
C1123 C 0.78701 0.70332 0.68566 0.0
C1124 C 0.76077 0.74104 0.73623 0.0
C1125 C 0.799 0.72717 0.69724 0.0
C1126 C 0.75943 0.7858 0.77125 0.0
C1127 C 0.70871 0.77588 0.80015 0.0
N1128 N 0.78575 0.74516 0.72167 0.0
N1129 N 0.72212 0.75768 0.7764 0.0
H1130 H 0.75858 0.32276 0.18832 0.0
H1131 H 0.75796 0.17584 0.28274 0.0
H1132 H 0.69257 0.27 0.17635 0.0
H1133 H 0.8207 0.23125 0.30537 0.0
H1134 H 0.73484 0.20917 0.23967 0.0
H1135 H 0.7824 0.28884 0.22877 0.0
C1136 C 0.74902 0.30411 0.19441 0.0
C1137 C 0.72351 0.29926 0.17895 0.0
C1138 C 0.75372 0.21398 0.25392 0.0
C1139 C 0.75079 0.26021 0.22488 0.0
C1140 C 0.76701 0.19491 0.2783 0.0
C1141 C 0.79127 0.20078 0.29784 0.0
C1142 C 0.76481 0.23908 0.24894 0.0
C1143 C 0.80199 0.22587 0.29107 0.0
C1144 C 0.76268 0.28471 0.2174 0.0
C1145 C 0.71217 0.27466 0.18773 0.0
N1146 N 0.78866 0.24409 0.26733 0.0
N1147 N 0.72591 0.25605 0.20999 0.0
H1148 H 0.0718 0.99641 0.94021 0.0
H1149 H 0.93085 0.00864 0.05579 0.0
H1150 H 0.02377 0.06628 0.93497 0.0
H1151 H 0.97789 0.93804 0.05722 0.0
H1152 H 0.96466 0.03015 0.01159 0.0
H1153 H 0.03798 0.97503 0.98447 0.0
C1154 C 0.05424 0.00734 0.94861 0.0
C1155 C 0.05063 0.03318 0.93379 0.0
C1156 C 0.96754 0.00992 0.02145 0.0
C1157 C 0.01169 0.00872 0.98419 0.0
C1158 C 0.94819 0.99759 0.04657 0.0
C1159 C 0.95152 0.97149 0.06029 0.0
C1160 C 0.99043 0.99609 0.01001 0.0
C1161 C 0.97445 0.95819 0.04742 0.0
C1162 C 0.03487 0.99507 0.97375 0.0
C1163 C 0.02741 0.04632 0.94563 0.0
N1164 N 0.99304 0.97065 0.02314 0.0
N1165 N 0.00881 0.03393 0.97003 0.0
H1166 H 0.51967 0.06994 0.56406 0.0
H1167 H 0.4864 0.94003 0.42716 0.0
H1168 H 0.57663 0.0095 0.53509 0.0
H1169 H 0.43176 0.0041 0.44456 0.0
H1170 H 0.51904 0.96432 0.46949 0.0
H1171 H 0.48687 0.04565 0.52204 0.0
C1172 C 0.52535 0.05164 0.54864 0.0
C1173 C 0.55097 0.04175 0.55315 0.0
C1174 C 0.49989 0.97305 0.46416 0.0
C1175 C 0.51337 0.01368 0.50528 0.0
C1176 C 0.48117 0.95912 0.44015 0.0
C1177 C 0.45627 0.97004 0.43222 0.0
C1178 C 0.49371 0.99808 0.4805 0.0
C1179 C 0.45069 0.9949 0.44982 0.0
C1180 C 0.50657 0.03774 0.52471 0.0
C1181 C 0.55715 0.01791 0.53243 0.0
N1182 N 0.46927 0.00809 0.47306 0.0
N1183 N 0.53845 0.00465 0.50957 0.0
loop_
_geom_bond_atom_site_label_1
_geom_bond_atom_site_label_2
_geom_bond_distance
_geom_bond_site_symmetry_2
_ccdc_geom_bond_type
Zn0 O6 1.969 . S
Zn0 O7 1.965 . S
Zn0 O11 2.024 . S
Zn0 O16 1.969 . S
Zn1 O8 1.969 . S
Zn1 O14 1.969 1_554 S
Zn1 O15 1.965 1_554 S
Zn1 O17 2.024 . S
C2 O3 1.229 . S
C2 O11 1.058 . S
O3 C2 1.229 . S
C4 O5 1.229 . S
C4 O17 1.058 . S
O5 C4 1.229 . S
O6 Zn0 1.969 . S
O6 C9 1.267 . S
O7 Zn0 1.965 . S
O7 C18 1.260 . S
O8 Zn1 1.969 . S
O8 C18 1.258 . S
C9 O6 1.267 . S
C9 O10 1.228 . S
O10 C9 1.228 . S
O11 Zn0 2.024 . S
O11 C2 1.058 . S
C12 O13 1.228 . S
C12 O14 1.267 . S
O13 C12 1.228 . S
O14 Zn1 1.969 1_556 S
O14 C12 1.267 . S
O15 Zn1 1.965 1_556 S
O15 C19 1.260 1_556 S
O16 Zn0 1.969 . S
O16 C19 1.259 . S
O17 Zn1 2.024 . S
O17 C4 1.058 . S
C18 O7 1.260 . S
C18 O8 1.258 . S
C19 O15 1.260 1_554 S
C19 O16 1.259 . S
Zn20 O26 1.969 . S
Zn20 O27 1.965 . S
Zn20 O31 2.024 . S
Zn20 O36 1.969 . S
Zn21 O28 1.969 . S
Zn21 O34 1.969 . S
Zn21 O35 1.965 . S
Zn21 O37 2.024 . S
C22 O23 1.229 . S
C22 O31 1.058 . S
O23 C22 1.229 . S
C24 O25 1.229 . S
C24 O37 1.058 . S
O25 C24 1.229 . S
O26 Zn20 1.969 . S
O26 C29 1.267 . S
O27 Zn20 1.965 . S
O27 C38 1.260 . S
O28 Zn21 1.969 . S
O28 C38 1.258 . S
C29 O26 1.267 . S
C29 O30 1.228 . S
O30 C29 1.228 . S
O31 Zn20 2.024 . S
O31 C22 1.058 . S
C32 O33 1.228 . S
C32 O34 1.267 . S
O33 C32 1.228 . S
O34 Zn21 1.969 . S
O34 C32 1.267 . S
O35 Zn21 1.965 . S
O35 C39 1.260 . S
O36 Zn20 1.969 . S
O36 C39 1.258 . S
O37 Zn21 2.024 . S
O37 C24 1.058 . S
C38 O27 1.260 . S
C38 O28 1.258 . S
C39 O35 1.260 . S
C39 O36 1.258 . S
Zn40 O46 1.969 . S
Zn40 O47 1.965 . S
Zn40 O51 2.024 . S
Zn40 O56 1.969 . S
Zn41 O48 1.969 . S
Zn41 O54 1.969 . S
Zn41 O55 1.965 . S
Zn41 O57 2.024 . S
C42 O43 1.229 . S
C42 O51 1.058 . S
O43 C42 1.229 . S
C44 O45 1.229 . S
C44 O57 1.058 . S
O45 C44 1.229 . S
O46 Zn40 1.969 . S
O46 C49 1.267 . S
O47 Zn40 1.965 . S
O47 C58 1.260 . S
O48 Zn41 1.969 . S
O48 C58 1.258 . S
C49 O46 1.267 . S
C49 O50 1.228 . S
O50 C49 1.228 . S
O51 Zn40 2.024 . S
O51 C42 1.058 . S
C52 O53 1.228 . S
C52 O54 1.267 . S
O53 C52 1.228 . S
O54 Zn41 1.969 . S
O54 C52 1.267 . S
O55 Zn41 1.965 . S
O55 C59 1.260 . S
O56 Zn40 1.969 . S
O56 C59 1.258 . S
O57 Zn41 2.024 . S
O57 C44 1.058 . S
C58 O47 1.260 . S
C58 O48 1.258 . S
C59 O55 1.260 . S
C59 O56 1.258 . S
Zn60 O66 1.969 . S
Zn60 O67 1.965 . S
Zn60 O71 2.024 . S
Zn60 O76 1.969 . S
Zn61 O68 1.969 . S
Zn61 O74 1.969 . S
Zn61 O75 1.965 . S
Zn61 O77 2.024 . S
C62 O63 1.229 . S
C62 O71 1.058 . S
O63 C62 1.229 . S
C64 O65 1.229 . S
C64 O77 1.058 . S
O65 C64 1.229 . S
O66 Zn60 1.969 . S
O66 C69 1.267 . S
O67 Zn60 1.965 . S
O67 C78 1.260 . S
O68 Zn61 1.969 . S
O68 C78 1.258 . S
C69 O66 1.267 . S
C69 O70 1.228 . S
O70 C69 1.228 . S
O71 Zn60 2.024 . S
O71 C62 1.058 . S
C72 O73 1.228 . S
C72 O74 1.267 . S
O73 C72 1.228 . S
O74 Zn61 1.969 . S
O74 C72 1.267 . S
O75 Zn61 1.965 . S
O75 C79 1.260 . S
O76 Zn60 1.969 . S
O76 C79 1.258 . S
O77 Zn61 2.024 . S
O77 C64 1.058 . S
C78 O67 1.260 . S
C78 O68 1.258 . S
C79 O75 1.260 . S
C79 O76 1.258 . S
Zn80 O86 1.969 1_556 S
Zn80 O87 1.965 1_556 S
Zn80 O91 2.024 . S
Zn80 O96 1.969 . S
Zn81 O88 1.969 . S
Zn81 O94 1.969 . S
Zn81 O95 1.965 . S
Zn81 O97 2.024 . S
C82 O83 1.229 . S
C82 O91 1.058 . S
O83 C82 1.229 . S
C84 O85 1.229 . S
C84 O97 1.058 . S
O85 C84 1.229 . S
O86 Zn80 1.969 1_554 S
O86 C89 1.267 . S
O87 Zn80 1.965 1_554 S
O87 C98 1.260 1_554 S
O88 Zn81 1.969 . S
O88 C98 1.259 . S
C89 O86 1.267 . S
C89 O90 1.228 . S
O90 C89 1.228 . S
O91 Zn80 2.024 . S
O91 C82 1.058 . S
C92 O93 1.228 . S
C92 O94 1.267 . S
O93 C92 1.228 . S
O94 Zn81 1.969 . S
O94 C92 1.267 . S
O95 Zn81 1.965 . S
O95 C99 1.260 . S
O96 Zn80 1.969 . S
O96 C99 1.258 . S
O97 Zn81 2.024 . S
O97 C84 1.058 . S
C98 O87 1.260 1_556 S
C98 O88 1.259 . S
C99 O95 1.260 . S
C99 O96 1.258 . S
Zn100 O106 1.969 . S
Zn100 O107 1.965 . S
Zn100 O111 2.024 . S
Zn100 O116 1.969 . S
Zn101 O108 1.969 . S
Zn101 O114 1.969 . S
Zn101 O115 1.965 . S
Zn101 O117 2.024 . S
C102 O103 1.229 . S
C102 O111 1.058 . S
O103 C102 1.229 . S
C104 O105 1.229 . S
C104 O117 1.058 . S
O105 C104 1.229 . S
O106 Zn100 1.969 . S
O106 C109 1.267 . S
O107 Zn100 1.965 . S
O107 C118 1.260 . S
O108 Zn101 1.969 . S
O108 C118 1.258 . S
C109 O106 1.267 . S
C109 O110 1.228 . S
O110 C109 1.228 . S
O111 Zn100 2.024 . S
O111 C102 1.058 . S
C112 O113 1.228 . S
C112 O114 1.267 . S
O113 C112 1.228 . S
O114 Zn101 1.969 . S
O114 C112 1.267 . S
O115 Zn101 1.965 . S
O115 C119 1.260 . S
O116 Zn100 1.969 . S
O116 C119 1.258 . S
O117 Zn101 2.024 . S
O117 C104 1.058 . S
C118 O107 1.260 . S
C118 O108 1.258 . S
C119 O115 1.260 . S
C119 O116 1.258 . S
Zn120 O126 1.969 . S
Zn120 O127 1.965 . S
Zn120 O131 2.024 . S
Zn120 O136 1.969 . S
Zn121 O128 1.969 . S
Zn121 O134 1.969 . S
Zn121 O135 1.965 . S
Zn121 O137 2.024 . S
C122 O123 1.229 . S
C122 O131 1.058 . S
O123 C122 1.229 . S
C124 O125 1.229 . S
C124 O137 1.058 . S
O125 C124 1.229 . S
O126 Zn120 1.969 . S
O126 C129 1.267 . S
O127 Zn120 1.965 . S
O127 C138 1.260 . S
O128 Zn121 1.969 . S
O128 C138 1.258 . S
C129 O126 1.267 . S
C129 O130 1.228 . S
O130 C129 1.228 . S
O131 Zn120 2.024 . S
O131 C122 1.058 . S
C132 O133 1.228 . S
C132 O134 1.267 . S
O133 C132 1.228 . S
O134 Zn121 1.969 . S
O134 C132 1.267 . S
O135 Zn121 1.965 . S
O135 C139 1.260 . S
O136 Zn120 1.969 . S
O136 C139 1.258 . S
O137 Zn121 2.024 . S
O137 C124 1.058 . S
C138 O127 1.260 . S
C138 O128 1.258 . S
C139 O135 1.260 . S
C139 O136 1.258 . S
Zn140 O146 1.969 . S
Zn140 O147 1.965 . S
Zn140 O151 2.024 . S
Zn140 O156 1.969 . S
Zn141 O148 1.969 . S
Zn141 O154 1.969 . S
Zn141 O155 1.965 . S
Zn141 O157 2.024 . S
C142 O143 1.229 . S
C142 O151 1.058 . S
O143 C142 1.229 . S
C144 O145 1.229 . S
C144 O157 1.058 . S
O145 C144 1.229 . S
O146 Zn140 1.969 . S
O146 C149 1.267 . S
O147 Zn140 1.965 . S
O147 C158 1.260 . S
O148 Zn141 1.969 . S
O148 C158 1.258 . S
C149 O146 1.267 . S
C149 O150 1.228 . S
O150 C149 1.228 . S
O151 Zn140 2.024 . S
O151 C142 1.058 . S
C152 O153 1.228 . S
C152 O154 1.267 . S
O153 C152 1.228 . S
O154 Zn141 1.969 . S
O154 C152 1.267 . S
O155 Zn141 1.965 . S
O155 C159 1.260 . S
O156 Zn140 1.969 . S
O156 C159 1.258 . S
O157 Zn141 2.024 . S
O157 C144 1.058 . S
C158 O147 1.260 . S
C158 O148 1.258 . S
C159 O155 1.260 . S
C159 O156 1.258 . S
Zn160 O166 1.969 . S
Zn160 O167 1.965 . S
Zn160 O171 2.024 . S
Zn160 O176 1.969 . S
Zn161 O168 1.969 . S
Zn161 O174 1.969 . S
Zn161 O175 1.965 . S
Zn161 O177 2.024 . S
C162 O163 1.229 . S
C162 O171 1.058 . S
O163 C162 1.229 . S
C164 O165 1.229 . S
C164 O177 1.058 . S
O165 C164 1.229 . S
O166 Zn160 1.969 . S
O166 C169 1.267 . S
O167 Zn160 1.965 . S
O167 C178 1.260 . S
O168 Zn161 1.969 . S
O168 C178 1.258 . S
C169 O166 1.267 . S
C169 O170 1.228 . S
O170 C169 1.228 . S
O171 Zn160 2.024 . S
O171 C162 1.058 . S
C172 O173 1.228 . S
C172 O174 1.267 . S
O173 C172 1.228 . S
O174 Zn161 1.969 . S
O174 C172 1.267 . S
O175 Zn161 1.965 . S
O175 C179 1.260 . S
O176 Zn160 1.969 . S
O176 C179 1.258 . S
O177 Zn161 2.024 . S
O177 C164 1.058 . S
C178 O167 1.260 . S
C178 O168 1.258 . S
C179 O175 1.260 . S
C179 O176 1.258 . S
Zn180 O186 1.969 . S
Zn180 O187 1.965 . S
Zn180 O191 2.024 . S
Zn180 O196 1.969 . S
Zn181 O188 1.969 . S
Zn181 O194 1.969 . S
Zn181 O195 1.965 . S
Zn181 O197 2.024 . S
C182 O183 1.229 . S
C182 O191 1.058 . S
O183 C182 1.229 . S
C184 O185 1.229 . S
C184 O197 1.058 . S
O185 C184 1.229 . S
O186 Zn180 1.969 . S
O186 C189 1.267 . S
O187 Zn180 1.965 . S
O187 C198 1.260 . S
O188 Zn181 1.969 . S
O188 C198 1.258 . S
C189 O186 1.267 . S
C189 O190 1.228 . S
O190 C189 1.228 . S
O191 Zn180 2.024 . S
O191 C182 1.058 . S
C192 O193 1.228 . S
C192 O194 1.267 . S
O193 C192 1.228 . S
O194 Zn181 1.969 . S
O194 C192 1.267 . S
O195 Zn181 1.965 . S
O195 C199 1.260 . S
O196 Zn180 1.969 . S
O196 C199 1.258 . S
O197 Zn181 2.024 . S
O197 C184 1.058 . S
C198 O187 1.260 . S
C198 O188 1.258 . S
C199 O195 1.260 . S
C199 O196 1.258 . S
Zn200 O206 1.969 . S
Zn200 O207 1.965 . S
Zn200 O211 2.024 . S
Zn200 O216 1.969 . S
Zn201 O208 1.969 . S
Zn201 O214 1.969 1_554 S
Zn201 O215 1.965 1_554 S
Zn201 O217 2.024 . S
C202 O203 1.229 . S
C202 O211 1.058 . S
O203 C202 1.229 . S
C204 O205 1.229 . S
C204 O217 1.058 . S
O205 C204 1.229 . S
O206 Zn200 1.969 . S
O206 C209 1.267 . S
O207 Zn200 1.965 . S
O207 C218 1.260 . S
O208 Zn201 1.969 . S
O208 C218 1.258 . S
C209 O206 1.267 . S
C209 O210 1.228 . S
O210 C209 1.228 . S
O211 Zn200 2.024 . S
O211 C202 1.058 . S
C212 O213 1.228 . S
C212 O214 1.267 . S
O213 C212 1.228 . S
O214 Zn201 1.969 1_556 S
O214 C212 1.267 . S
O215 Zn201 1.965 1_556 S
O215 C219 1.260 1_556 S
O216 Zn200 1.969 . S
O216 C219 1.259 . S
O217 Zn201 2.024 . S
O217 C204 1.058 . S
C218 O207 1.260 . S
C218 O208 1.258 . S
C219 O215 1.260 1_554 S
C219 O216 1.259 . S
Zn220 O226 1.969 . S
Zn220 O227 1.965 . S
Zn220 O231 2.024 . S
Zn220 O236 1.969 . S
Zn221 O228 1.969 . S
Zn221 O234 1.969 . S
Zn221 O235 1.965 . S
Zn221 O237 2.024 . S
C222 O223 1.229 . S
C222 O231 1.058 . S
O223 C222 1.229 . S
C224 O225 1.229 . S
C224 O237 1.058 . S
O225 C224 1.229 . S
O226 Zn220 1.969 . S
O226 C229 1.267 . S
O227 Zn220 1.965 . S
O227 C238 1.260 . S
O228 Zn221 1.969 . S
O228 C238 1.258 . S
C229 O226 1.267 . S
C229 O230 1.228 . S
O230 C229 1.228 . S
O231 Zn220 2.024 . S
O231 C222 1.058 . S
C232 O233 1.228 . S
C232 O234 1.267 . S
O233 C232 1.228 . S
O234 Zn221 1.969 . S
O234 C232 1.267 . S
O235 Zn221 1.965 . S
O235 C239 1.260 . S
O236 Zn220 1.969 . S
O236 C239 1.258 . S
O237 Zn221 2.024 . S
O237 C224 1.058 . S
C238 O227 1.260 . S
C238 O228 1.258 . S
C239 O235 1.260 . S
C239 O236 1.258 . S
Zn240 O246 1.969 . S
Zn240 O247 1.965 . S
Zn240 O251 2.024 . S
Zn240 O256 1.969 . S
Zn241 O248 1.969 . S
Zn241 O254 1.969 . S
Zn241 O255 1.965 . S
Zn241 O257 2.024 . S
C242 O243 1.229 . S
C242 O251 1.058 . S
O243 C242 1.229 . S
C244 O245 1.229 . S
C244 O257 1.058 . S
O245 C244 1.229 . S
O246 Zn240 1.969 . S
O246 C249 1.267 . S
O247 Zn240 1.965 . S
O247 C258 1.260 . S
O248 Zn241 1.969 . S
O248 C258 1.258 . S
C249 O246 1.267 . S
C249 O250 1.228 . S
O250 C249 1.228 . S
O251 Zn240 2.024 . S
O251 C242 1.058 . S
C252 O253 1.228 . S
C252 O254 1.267 . S
O253 C252 1.228 . S
O254 Zn241 1.969 . S
O254 C252 1.267 . S
O255 Zn241 1.965 . S
O255 C259 1.260 . S
O256 Zn240 1.969 . S
O256 C259 1.258 . S
O257 Zn241 2.024 . S
O257 C244 1.058 . S
C258 O247 1.260 . S
C258 O248 1.258 . S
C259 O255 1.260 . S
C259 O256 1.258 . S
Zn260 O266 1.969 . S
Zn260 O267 1.965 . S
Zn260 O271 2.024 . S
Zn260 O276 1.969 . S
Zn261 O268 1.969 . S
Zn261 O274 1.969 . S
Zn261 O275 1.965 . S
Zn261 O277 2.024 . S
C262 O263 1.229 . S
C262 O271 1.058 . S
O263 C262 1.229 . S
C264 O265 1.229 . S
C264 O277 1.058 . S
O265 C264 1.229 . S
O266 Zn260 1.969 . S
O266 C269 1.267 . S
O267 Zn260 1.965 . S
O267 C278 1.260 . S
O268 Zn261 1.969 . S
O268 C278 1.258 . S
C269 O266 1.267 . S
C269 O270 1.228 . S
O270 C269 1.228 . S
O271 Zn260 2.024 . S
O271 C262 1.058 . S
C272 O273 1.228 . S
C272 O274 1.267 . S
O273 C272 1.228 . S
O274 Zn261 1.969 . S
O274 C272 1.267 . S
O275 Zn261 1.965 . S
O275 C279 1.260 . S
O276 Zn260 1.969 . S
O276 C279 1.258 . S
O277 Zn261 2.024 . S
O277 C264 1.058 . S
C278 O267 1.260 . S
C278 O268 1.258 . S
C279 O275 1.260 . S
C279 O276 1.258 . S
Zn280 O286 1.969 1_556 S
Zn280 O287 1.965 1_556 S
Zn280 O291 2.024 . S
Zn280 O296 1.969 . S
Zn281 O288 1.969 . S
Zn281 O294 1.969 . S
Zn281 O295 1.965 . S
Zn281 O297 2.024 . S
C282 O283 1.229 . S
C282 O291 1.058 . S
O283 C282 1.229 . S
C284 O285 1.229 . S
C284 O297 1.058 . S
O285 C284 1.229 . S
O286 Zn280 1.969 1_554 S
O286 C289 1.267 . S
O287 Zn280 1.965 1_554 S
O287 C298 1.260 1_554 S
O288 Zn281 1.969 . S
O288 C298 1.259 . S
C289 O286 1.267 . S
C289 O290 1.228 . S
O290 C289 1.228 . S
O291 Zn280 2.024 . S
O291 C282 1.058 . S
C292 O293 1.228 . S
C292 O294 1.267 . S
O293 C292 1.228 . S
O294 Zn281 1.969 . S
O294 C292 1.267 . S
O295 Zn281 1.965 . S
O295 C299 1.260 . S
O296 Zn280 1.969 . S
O296 C299 1.258 . S
O297 Zn281 2.024 . S
O297 C284 1.058 . S
C298 O287 1.260 1_556 S
C298 O288 1.259 . S
C299 O295 1.260 . S
C299 O296 1.258 . S
Zn300 O306 1.969 . S
Zn300 O307 1.965 . S
Zn300 O311 2.024 . S
Zn300 O316 1.969 . S
Zn301 O308 1.969 . S
Zn301 O314 1.969 . S
Zn301 O315 1.965 . S
Zn301 O317 2.024 . S
C302 O303 1.229 . S
C302 O311 1.058 . S
O303 C302 1.229 . S
C304 O305 1.229 . S
C304 O317 1.058 . S
O305 C304 1.229 . S
O306 Zn300 1.969 . S
O306 C309 1.267 . S
O307 Zn300 1.965 . S
O307 C318 1.260 . S
O308 Zn301 1.969 . S
O308 C318 1.258 . S
C309 O306 1.267 . S
C309 O310 1.228 . S
O310 C309 1.228 . S
O311 Zn300 2.024 . S
O311 C302 1.058 . S
C312 O313 1.228 . S
C312 O314 1.267 . S
O313 C312 1.228 . S
O314 Zn301 1.969 . S
O314 C312 1.267 . S
O315 Zn301 1.965 . S
O315 C319 1.260 . S
O316 Zn300 1.969 . S
O316 C319 1.258 . S
O317 Zn301 2.024 . S
O317 C304 1.058 . S
C318 O307 1.260 . S
C318 O308 1.258 . S
C319 O315 1.260 . S
C319 O316 1.258 . S
H320 C326 0.930 . S
H321 C330 0.930 . S
H322 C335 0.929 . S
H323 C333 0.929 . S
H324 C328 0.929 . S
H325 C334 0.929 . S
C326 H320 0.930 . S
C326 C327 1.367 . S
C326 C334 1.378 . S
C327 C326 1.367 . S
C327 C335 1.433 . S
C328 H324 0.929 . S
C328 C330 1.378 . S
C328 C332 1.350 . S
C329 C332 1.463 . S
C329 C334 1.350 . S
C329 N337 1.427 . S
C330 H321 0.930 . S
C330 C328 1.378 . S
C330 C331 1.367 . S
C331 C330 1.367 . S
C331 C333 1.433 . S
C332 C328 1.350 . S
C332 C329 1.463 . S
C332 N336 1.427 . S
C333 H323 0.929 . S
C333 C331 1.433 . S
C333 N336 1.384 . S
C334 H325 0.929 . S
C334 C326 1.378 . S
C334 C329 1.350 . S
C335 H322 0.929 . S
C335 C327 1.433 . S
C335 N337 1.384 . S
N336 C332 1.427 . S
N336 C333 1.384 . S
N337 C329 1.427 . S
N337 C335 1.384 . S
H338 C344 0.930 . S
H339 C348 0.930 . S
H340 C353 0.929 . S
H341 C351 0.929 . S
H342 C346 0.929 . S
H343 C352 0.929 . S
C344 H338 0.930 . S
C344 C345 1.367 . S
C344 C352 1.378 . S
C345 C344 1.367 . S
C345 C353 1.433 . S
C346 H342 0.929 . S
C346 C348 1.378 . S
C346 C350 1.350 . S
C347 C350 1.463 . S
C347 C352 1.350 . S
C347 N355 1.427 . S
C348 H339 0.930 . S
C348 C346 1.378 . S
C348 C349 1.367 . S
C349 C348 1.367 . S
C349 C351 1.433 . S
C350 C346 1.350 . S
C350 C347 1.463 . S
C350 N354 1.427 . S
C351 H341 0.929 . S
C351 C349 1.433 . S
C351 N354 1.384 . S
C352 H343 0.929 . S
C352 C344 1.378 . S
C352 C347 1.350 . S
C353 H340 0.929 . S
C353 C345 1.433 . S
C353 N355 1.384 . S
N354 C350 1.427 . S
N354 C351 1.384 . S
N355 C347 1.427 . S
N355 C353 1.384 . S
H356 C362 0.930 . S
H357 C366 0.930 . S
H358 C371 0.929 . S
H359 C369 0.929 . S
H360 C364 0.929 . S
H361 C370 0.929 . S
C362 H356 0.930 . S
C362 C363 1.367 . S
C362 C370 1.378 . S
C363 C362 1.367 . S
C363 C371 1.433 . S
C364 H360 0.929 . S
C364 C366 1.378 . S
C364 C368 1.350 . S
C365 C368 1.463 1_455 S
C365 C370 1.350 . S
C365 N373 1.427 . S
C366 H357 0.930 . S
C366 C364 1.378 . S
C366 C367 1.367 . S
C367 C366 1.367 . S
C367 C369 1.433 . S
C368 C364 1.350 . S
C368 C365 1.463 1_655 S
C368 N372 1.427 . S
C369 H359 0.929 . S
C369 C367 1.433 . S
C369 N372 1.384 . S
C370 H361 0.929 . S
C370 C362 1.378 . S
C370 C365 1.350 . S
C371 H358 0.929 . S
C371 C363 1.433 . S
C371 N373 1.384 . S
N372 C368 1.427 . S
N372 C369 1.384 . S
N373 C365 1.427 . S
N373 C371 1.384 . S
H374 C380 0.930 . S
H375 C384 0.930 . S
H376 C389 0.929 . S
H377 C387 0.929 . S
H378 C382 0.929 1_655 S
H379 C388 0.929 1_455 S
C380 H374 0.930 . S
C380 C381 1.367 . S
C380 C388 1.378 . S
C381 C380 1.367 . S
C381 C389 1.433 . S
C382 H378 0.929 1_455 S
C382 C384 1.378 . S
C382 C386 1.350 . S
C383 C386 1.463 1_655 S
C383 C388 1.350 . S
C383 N391 1.427 . S
C384 H375 0.930 . S
C384 C382 1.378 . S
C384 C385 1.367 . S
C385 C384 1.367 . S
C385 C387 1.433 . S
C386 C382 1.350 . S
C386 C383 1.463 1_455 S
C386 N390 1.427 . S
C387 H377 0.929 . S
C387 C385 1.433 . S
C387 N390 1.384 . S
C388 H379 0.929 1_655 S
C388 C380 1.378 . S
C388 C383 1.350 . S
C389 H376 0.929 . S
C389 C381 1.433 . S
C389 N391 1.384 . S
N390 C386 1.427 . S
N390 C387 1.384 . S
N391 C383 1.427 . S
N391 C389 1.384 . S
H392 C398 0.930 . S
H393 C402 0.930 . S
H394 C407 0.929 . S
H395 C405 0.929 . S
H396 C400 0.929 . S
H397 C406 0.929 . S
C398 H392 0.930 . S
C398 C399 1.367 . S
C398 C406 1.378 . S
C399 C398 1.367 . S
C399 C407 1.433 . S
C400 H396 0.929 . S
C400 C402 1.378 . S
C400 C404 1.350 . S
C401 C404 1.463 . S
C401 C406 1.350 . S
C401 N409 1.427 . S
C402 H393 0.930 . S
C402 C400 1.378 . S
C402 C403 1.367 . S
C403 C402 1.367 . S
C403 C405 1.433 . S
C404 C400 1.350 . S
C404 C401 1.463 . S
C404 N408 1.427 . S
C405 H395 0.929 . S
C405 C403 1.433 . S
C405 N408 1.384 . S
C406 H397 0.929 . S
C406 C398 1.378 . S
C406 C401 1.350 . S
C407 H394 0.929 . S
C407 C399 1.433 . S
C407 N409 1.384 . S
N408 C404 1.427 . S
N408 C405 1.384 . S
N409 C401 1.427 . S
N409 C407 1.384 . S
H410 C416 0.930 . S
H411 C420 0.930 . S
H412 C425 0.929 . S
H413 C423 0.929 . S
H414 C418 0.929 . S
H415 C424 0.929 . S
C416 H410 0.930 . S
C416 C417 1.367 . S
C416 C424 1.378 . S
C417 C416 1.367 . S
C417 C425 1.433 . S
C418 H414 0.929 . S
C418 C420 1.378 . S
C418 C422 1.350 . S
C419 C422 1.463 . S
C419 C424 1.350 . S
C419 N427 1.427 . S
C420 H411 0.930 . S
C420 C418 1.378 . S
C420 C421 1.367 . S
C421 C420 1.367 . S
C421 C423 1.433 . S
C422 C418 1.350 . S
C422 C419 1.463 . S
C422 N426 1.427 . S
C423 H413 0.929 . S
C423 C421 1.433 . S
C423 N426 1.384 . S
C424 H415 0.929 . S
C424 C416 1.378 . S
C424 C419 1.350 . S
C425 H412 0.929 . S
C425 C417 1.433 . S
C425 N427 1.384 . S
N426 C422 1.427 . S
N426 C423 1.384 . S
N427 C419 1.427 . S
N427 C425 1.384 . S
H428 C434 0.930 . S
H429 C438 0.930 . S
H430 C443 0.929 . S
H431 C441 0.929 . S
H432 C436 0.929 1_655 S
H433 C442 0.929 1_455 S
C434 H428 0.930 . S
C434 C435 1.367 . S
C434 C442 1.378 . S
C435 C434 1.367 . S
C435 C443 1.433 . S
C436 H432 0.929 1_455 S
C436 C438 1.378 . S
C436 C440 1.350 . S
C437 C440 1.463 1_655 S
C437 C442 1.350 . S
C437 N445 1.427 . S
C438 H429 0.930 . S
C438 C436 1.378 . S
C438 C439 1.367 . S
C439 C438 1.367 . S
C439 C441 1.433 . S
C440 C436 1.350 . S
C440 C437 1.463 1_455 S
C440 N444 1.427 . S
C441 H431 0.929 . S
C441 C439 1.433 . S
C441 N444 1.384 . S
C442 H433 0.929 1_655 S
C442 C434 1.378 . S
C442 C437 1.350 . S
C443 H430 0.929 . S
C443 C435 1.433 . S
C443 N445 1.384 . S
N444 C440 1.427 . S
N444 C441 1.384 . S
N445 C437 1.427 . S
N445 C443 1.384 . S
H446 C452 0.930 . S
H447 C456 0.930 . S
H448 C461 0.929 . S
H449 C459 0.929 . S
H450 C454 0.929 1_455 S
H451 C460 0.929 1_655 S
C452 H446 0.930 . S
C452 C453 1.367 . S
C452 C460 1.378 . S
C453 C452 1.367 . S
C453 C461 1.433 . S
C454 H450 0.929 1_655 S
C454 C456 1.378 . S
C454 C458 1.350 . S
C455 C458 1.463 1_455 S
C455 C460 1.350 . S
C455 N463 1.427 . S
C456 H447 0.930 . S
C456 C454 1.378 . S
C456 C457 1.367 . S
C457 C456 1.367 . S
C457 C459 1.433 . S
C458 C454 1.350 . S
C458 C455 1.463 1_655 S
C458 N462 1.427 . S
C459 H449 0.929 . S
C459 C457 1.433 . S
C459 N462 1.384 . S
C460 H451 0.929 1_455 S
C460 C452 1.378 . S
C460 C455 1.350 . S
C461 H448 0.929 . S
C461 C453 1.433 . S
C461 N463 1.384 . S
N462 C458 1.427 . S
N462 C459 1.384 . S
N463 C455 1.427 . S
N463 C461 1.384 . S
H464 C470 0.930 . S
H465 C474 0.930 . S
H466 C479 0.929 . S
H467 C477 0.929 . S
H468 C472 0.929 1_554 S
H469 C478 0.929 . S
C470 H464 0.930 . S
C470 C471 1.367 . S
C470 C478 1.378 . S
C471 C470 1.367 . S
C471 C479 1.433 . S
C472 H468 0.929 1_556 S
C472 C474 1.378 1_556 S
C472 C476 1.350 . S
C473 C476 1.463 . S
C473 C478 1.350 . S
C473 N481 1.427 . S
C474 H465 0.930 . S
C474 C472 1.378 1_554 S
C474 C475 1.367 1_554 S
C475 C474 1.367 1_556 S
C475 C477 1.433 . S
C476 C472 1.350 . S
C476 C473 1.463 . S
C476 N480 1.427 . S
C477 H467 0.929 . S
C477 C475 1.433 . S
C477 N480 1.384 . S
C478 H469 0.929 . S
C478 C470 1.378 . S
C478 C473 1.350 . S
C479 H466 0.929 . S
C479 C471 1.433 . S
C479 N481 1.384 . S
N480 C476 1.427 . S
N480 C477 1.384 . S
N481 C473 1.427 . S
N481 C479 1.384 . S
H482 C488 0.930 . S
H483 C492 0.930 . S
H484 C497 0.929 . S
H485 C495 0.929 . S
H486 C490 0.929 . S
H487 C496 0.929 . S
C488 H482 0.930 . S
C488 C489 1.367 . S
C488 C496 1.378 . S
C489 C488 1.367 . S
C489 C497 1.433 . S
C490 H486 0.929 . S
C490 C492 1.378 . S
C490 C494 1.350 . S
C491 C494 1.463 . S
C491 C496 1.350 . S
C491 N499 1.427 . S
C492 H483 0.930 . S
C492 C490 1.378 . S
C492 C493 1.367 . S
C493 C492 1.367 . S
C493 C495 1.433 . S
C494 C490 1.350 . S
C494 C491 1.463 . S
C494 N498 1.427 . S
C495 H485 0.929 . S
C495 C493 1.433 . S
C495 N498 1.384 . S
C496 H487 0.929 . S
C496 C488 1.378 . S
C496 C491 1.350 . S
C497 H484 0.929 . S
C497 C489 1.433 . S
C497 N499 1.384 . S
N498 C494 1.427 . S
N498 C495 1.384 . S
N499 C491 1.427 . S
N499 C497 1.384 . S
H500 C506 0.930 . S
H501 C510 0.930 . S
H502 C515 0.929 . S
H503 C513 0.929 . S
H504 C508 0.929 . S
H505 C514 0.929 . S
C506 H500 0.930 . S
C506 C507 1.367 . S
C506 C514 1.378 . S
C507 C506 1.367 . S
C507 C515 1.433 . S
C508 H504 0.929 . S
C508 C510 1.378 . S
C508 C512 1.350 . S
C509 C512 1.463 . S
C509 C514 1.350 . S
C509 N517 1.427 . S
C510 H501 0.930 . S
C510 C508 1.378 . S
C510 C511 1.367 . S
C511 C510 1.367 . S
C511 C513 1.433 . S
C512 C508 1.350 . S
C512 C509 1.463 . S
C512 N516 1.427 . S
C513 H503 0.929 . S
C513 C511 1.433 . S
C513 N516 1.384 . S
C514 H505 0.929 . S
C514 C506 1.378 . S
C514 C509 1.350 . S
C515 H502 0.929 . S
C515 C507 1.433 . S
C515 N517 1.384 . S
N516 C512 1.427 . S
N516 C513 1.384 . S
N517 C509 1.427 . S
N517 C515 1.384 . S
H518 C524 0.930 . S
H519 C528 0.930 . S
H520 C533 0.929 . S
H521 C531 0.929 . S
H522 C526 0.929 . S
H523 C532 0.929 . S
C524 H518 0.930 . S
C524 C525 1.367 . S
C524 C532 1.378 . S
C525 C524 1.367 . S
C525 C533 1.433 . S
C526 H522 0.929 . S
C526 C528 1.378 . S
C526 C530 1.350 . S
C527 C530 1.463 . S
C527 C532 1.350 . S
C527 N535 1.427 . S
C528 H519 0.930 . S
C528 C526 1.378 . S
C528 C529 1.367 . S
C529 C528 1.367 . S
C529 C531 1.433 . S
C530 C526 1.350 . S
C530 C527 1.463 . S
C530 N534 1.427 . S
C531 H521 0.929 . S
C531 C529 1.433 . S
C531 N534 1.384 . S
C532 H523 0.929 . S
C532 C524 1.378 . S
C532 C527 1.350 . S
C533 H520 0.929 . S
C533 C525 1.433 . S
C533 N535 1.384 . S
N534 C530 1.427 . S
N534 C531 1.384 . S
N535 C527 1.427 . S
N535 C533 1.384 . S
H536 C542 0.930 . S
H537 C546 0.930 . S
H538 C551 0.929 . S
H539 C549 0.929 . S
H540 C544 0.929 . S
H541 C550 0.929 . S
C542 H536 0.930 . S
C542 C543 1.367 . S
C542 C550 1.378 . S
C543 C542 1.367 . S
C543 C551 1.433 1_554 S
C544 H540 0.929 . S
C544 C546 1.378 . S
C544 C548 1.350 . S
C545 C548 1.463 . S
C545 C550 1.350 . S
C545 N553 1.427 . S
C546 H537 0.930 . S
C546 C544 1.378 . S
C546 C547 1.367 . S
C547 C546 1.367 . S
C547 C549 1.433 . S
C548 C544 1.350 . S
C548 C545 1.463 . S
C548 N552 1.427 . S
C549 H539 0.929 . S
C549 C547 1.433 . S
C549 N552 1.384 . S
C550 H541 0.929 . S
C550 C542 1.378 . S
C550 C545 1.350 . S
C551 H538 0.929 . S
C551 C543 1.433 1_556 S
C551 N553 1.384 1_556 S
N552 C548 1.427 . S
N552 C549 1.384 . S
N553 C545 1.427 . S
N553 C551 1.384 1_554 S
H554 C560 0.930 . S
H555 C564 0.930 . S
H556 C569 0.929 . S
H557 C567 0.929 . S
H558 C562 0.929 . S
H559 C568 0.929 . S
C560 H554 0.930 . S
C560 C561 1.367 . S
C560 C568 1.378 . S
C561 C560 1.367 . S
C561 C569 1.433 . S
C562 H558 0.929 . S
C562 C564 1.378 . S
C562 C566 1.350 . S
C563 C566 1.463 . S
C563 C568 1.350 . S
C563 N571 1.427 . S
C564 H555 0.930 . S
C564 C562 1.378 . S
C564 C565 1.367 . S
C565 C564 1.367 . S
C565 C567 1.433 . S
C566 C562 1.350 . S
C566 C563 1.463 . S
C566 N570 1.427 . S
C567 H557 0.929 . S
C567 C565 1.433 . S
C567 N570 1.384 . S
C568 H559 0.929 . S
C568 C560 1.378 . S
C568 C563 1.350 . S
C569 H556 0.929 . S
C569 C561 1.433 . S
C569 N571 1.384 . S
N570 C566 1.427 . S
N570 C567 1.384 . S
N571 C563 1.427 . S
N571 C569 1.384 . S
H572 C578 0.930 . S
H573 C582 0.930 . S
H574 C587 0.929 . S
H575 C585 0.929 . S
H576 C580 0.929 . S
H577 C586 0.929 . S
C578 H572 0.930 . S
C578 C579 1.367 . S
C578 C586 1.378 . S
C579 C578 1.367 . S
C579 C587 1.433 . S
C580 H576 0.929 . S
C580 C582 1.378 . S
C580 C584 1.350 . S
C581 C584 1.463 . S
C581 C586 1.350 . S
C581 N589 1.427 . S
C582 H573 0.930 . S
C582 C580 1.378 . S
C582 C583 1.367 . S
C583 C582 1.367 . S
C583 C585 1.433 . S
C584 C580 1.350 . S
C584 C581 1.463 . S
C584 N588 1.427 . S
C585 H575 0.929 . S
C585 C583 1.433 . S
C585 N588 1.384 . S
C586 H577 0.929 . S
C586 C578 1.378 . S
C586 C581 1.350 . S
C587 H574 0.929 . S
C587 C579 1.433 . S
C587 N589 1.384 . S
N588 C584 1.427 . S
N588 C585 1.384 . S
N589 C581 1.427 . S
N589 C587 1.384 . S
H590 C596 0.930 . S
H591 C600 0.930 . S
H592 C605 0.929 . S
H593 C603 0.929 . S
H594 C598 0.929 . S
H595 C604 0.929 . S
C596 H590 0.930 . S
C596 C597 1.367 . S
C596 C604 1.378 . S
C597 C596 1.367 . S
C597 C605 1.433 . S
C598 H594 0.929 . S
C598 C600 1.378 . S
C598 C602 1.350 . S
C599 C602 1.463 . S
C599 C604 1.350 . S
C599 N607 1.427 . S
C600 H591 0.930 . S
C600 C598 1.378 . S
C600 C601 1.367 . S
C601 C600 1.367 . S
C601 C603 1.433 . S
C602 C598 1.350 . S
C602 C599 1.463 . S
C602 N606 1.427 . S
C603 H593 0.929 . S
C603 C601 1.433 . S
C603 N606 1.384 . S
C604 H595 0.929 . S
C604 C596 1.378 . S
C604 C599 1.350 . S
C605 H592 0.929 . S
C605 C597 1.433 . S
C605 N607 1.384 . S
N606 C602 1.427 . S
N606 C603 1.384 . S
N607 C599 1.427 . S
N607 C605 1.384 . S
H608 C614 0.930 . S
H609 C618 0.930 . S
H610 C623 0.929 . S
H611 C621 0.929 . S
H612 C616 0.929 . S
H613 C622 0.929 . S
C614 H608 0.930 . S
C614 C615 1.367 . S
C614 C622 1.378 . S
C615 C614 1.367 . S
C615 C623 1.433 . S
C616 H612 0.929 . S
C616 C618 1.378 . S
C616 C620 1.350 . S
C617 C620 1.463 . S
C617 C622 1.350 . S
C617 N625 1.427 . S
C618 H609 0.930 . S
C618 C616 1.378 . S
C618 C619 1.367 . S
C619 C618 1.367 . S
C619 C621 1.433 . S
C620 C616 1.350 . S
C620 C617 1.463 . S
C620 N624 1.427 . S
C621 H611 0.929 . S
C621 C619 1.433 . S
C621 N624 1.384 . S
C622 H613 0.929 . S
C622 C614 1.378 . S
C622 C617 1.350 . S
C623 H610 0.929 . S
C623 C615 1.433 . S
C623 N625 1.384 . S
N624 C620 1.427 . S
N624 C621 1.384 . S
N625 C617 1.427 . S
N625 C623 1.384 . S
H626 C632 0.930 . S
H627 C636 0.930 . S
H628 C641 0.929 . S
H629 C639 0.929 . S
H630 C634 0.929 . S
H631 C640 0.929 . S
C632 H626 0.930 . S
C632 C633 1.367 1_565 S
C632 C640 1.378 . S
C633 C632 1.367 1_545 S
C633 C641 1.433 . S
C634 H630 0.929 . S
C634 C636 1.378 . S
C634 C638 1.350 . S
C635 C638 1.463 . S
C635 C640 1.350 . S
C635 N643 1.427 . S
C636 H627 0.930 . S
C636 C634 1.378 . S
C636 C637 1.367 . S
C637 C636 1.367 . S
C637 C639 1.433 . S
C638 C634 1.350 . S
C638 C635 1.463 . S
C638 N642 1.427 . S
C639 H629 0.929 . S
C639 C637 1.433 . S
C639 N642 1.384 . S
C640 H631 0.929 . S
C640 C632 1.378 . S
C640 C635 1.350 . S
C641 H628 0.929 . S
C641 C633 1.433 . S
C641 N643 1.384 1_545 S
N642 C638 1.427 . S
N642 C639 1.384 . S
N643 C635 1.427 . S
N643 C641 1.384 1_565 S
H644 C650 0.930 . S
H645 C654 0.930 . S
H646 C659 0.929 . S
H647 C657 0.929 . S
H648 C652 0.929 . S
H649 C658 0.929 . S
C650 H644 0.930 . S
C650 C651 1.367 1_554 S
C650 C658 1.378 1_554 S
C651 C650 1.367 1_556 S
C651 C659 1.433 . S
C652 H648 0.929 . S
C652 C654 1.378 . S
C652 C656 1.350 . S
C653 C656 1.463 . S
C653 C658 1.350 . S
C653 N661 1.427 . S
C654 H645 0.930 . S
C654 C652 1.378 . S
C654 C655 1.367 . S
C655 C654 1.367 . S
C655 C657 1.433 . S
C656 C652 1.350 . S
C656 C653 1.463 . S
C656 N660 1.427 . S
C657 H647 0.929 . S
C657 C655 1.433 . S
C657 N660 1.384 . S
C658 H649 0.929 . S
C658 C650 1.378 1_556 S
C658 C653 1.350 . S
C659 H646 0.929 . S
C659 C651 1.433 . S
C659 N661 1.384 . S
N660 C656 1.427 . S
N660 C657 1.384 . S
N661 C653 1.427 . S
N661 C659 1.384 . S
H662 C668 0.930 . S
H663 C672 0.930 . S
H664 C677 0.929 . S
H665 C675 0.929 . S
H666 C670 0.929 . S
H667 C676 0.929 . S
C668 H662 0.930 . S
C668 C669 1.367 . S
C668 C676 1.378 1_565 S
C669 C668 1.367 . S
C669 C677 1.433 1_565 S
C670 H666 0.929 . S
C670 C672 1.378 . S
C670 C674 1.350 . S
C671 C674 1.463 . S
C671 C676 1.350 . S
C671 N679 1.427 . S
C672 H663 0.930 . S
C672 C670 1.378 . S
C672 C673 1.367 . S
C673 C672 1.367 . S
C673 C675 1.433 . S
C674 C670 1.350 . S
C674 C671 1.463 . S
C674 N678 1.427 . S
C675 H665 0.929 . S
C675 C673 1.433 . S
C675 N678 1.384 . S
C676 H667 0.929 . S
C676 C668 1.378 1_545 S
C676 C671 1.350 . S
C677 H664 0.929 . S
C677 C669 1.433 1_545 S
C677 N679 1.384 . S
N678 C674 1.427 . S
N678 C675 1.384 . S
N679 C671 1.427 . S
N679 C677 1.384 . S
H680 C686 0.930 . S
H681 C690 0.930 . S
H682 C695 0.929 . S
H683 C693 0.929 . S
H684 C688 0.929 . S
H685 C694 0.929 . S
C686 H680 0.930 . S
C686 C687 1.367 . S
C686 C694 1.378 . S
C687 C686 1.367 . S
C687 C695 1.433 . S
C688 H684 0.929 . S
C688 C690 1.378 . S
C688 C692 1.350 . S
C689 C692 1.463 . S
C689 C694 1.350 . S
C689 N697 1.427 . S
C690 H681 0.930 . S
C690 C688 1.378 . S
C690 C691 1.367 . S
C691 C690 1.367 . S
C691 C693 1.433 . S
C692 C688 1.350 . S
C692 C689 1.463 . S
C692 N696 1.427 . S
C693 H683 0.929 . S
C693 C691 1.433 . S
C693 N696 1.384 . S
C694 H685 0.929 . S
C694 C686 1.378 . S
C694 C689 1.350 . S
C695 H682 0.929 . S
C695 C687 1.433 . S
C695 N697 1.384 . S
N696 C692 1.427 . S
N696 C693 1.384 . S
N697 C689 1.427 . S
N697 C695 1.384 . S
H698 C704 0.930 . S
H699 C708 0.930 . S
H700 C713 0.929 . S
H701 C711 0.929 . S
H702 C706 0.929 . S
H703 C712 0.929 . S
C704 H698 0.930 . S
C704 C705 1.367 . S
C704 C712 1.378 . S
C705 C704 1.367 . S
C705 C713 1.433 . S
C706 H702 0.929 . S
C706 C708 1.378 1_545 S
C706 C710 1.350 . S
C707 C710 1.463 . S
C707 C712 1.350 . S
C707 N715 1.427 . S
C708 H699 0.930 . S
C708 C706 1.378 1_565 S
C708 C709 1.367 . S
C709 C708 1.367 . S
C709 C711 1.433 1_565 S
C710 C706 1.350 . S
C710 C707 1.463 . S
C710 N714 1.427 . S
C711 H701 0.929 . S
C711 C709 1.433 1_545 S
C711 N714 1.384 . S
C712 H703 0.929 . S
C712 C704 1.378 . S
C712 C707 1.350 . S
C713 H700 0.929 . S
C713 C705 1.433 . S
C713 N715 1.384 . S
N714 C710 1.427 . S
N714 C711 1.384 . S
N715 C707 1.427 . S
N715 C713 1.384 . S
H716 C722 0.930 . S
H717 C726 0.930 . S
H718 C731 0.929 . S
H719 C729 0.929 . S
H720 C724 0.929 . S
H721 C730 0.929 . S
C722 H716 0.930 . S
C722 C723 1.367 . S
C722 C730 1.378 . S
C723 C722 1.367 . S
C723 C731 1.433 . S
C724 H720 0.929 . S
C724 C726 1.378 . S
C724 C728 1.350 . S
C725 C728 1.463 . S
C725 C730 1.350 . S
C725 N733 1.427 . S
C726 H717 0.930 . S
C726 C724 1.378 . S
C726 C727 1.367 . S
C727 C726 1.367 . S
C727 C729 1.433 . S
C728 C724 1.350 . S
C728 C725 1.463 . S
C728 N732 1.427 . S
C729 H719 0.929 . S
C729 C727 1.433 . S
C729 N732 1.384 . S
C730 H721 0.929 . S
C730 C722 1.378 . S
C730 C725 1.350 . S
C731 H718 0.929 . S
C731 C723 1.433 . S
C731 N733 1.384 . S
N732 C728 1.427 . S
N732 C729 1.384 . S
N733 C725 1.427 . S
N733 C731 1.384 . S
H734 C740 0.930 . S
H735 C744 0.930 . S
H736 C749 0.929 . S
H737 C747 0.929 . S
H738 C742 0.929 . S
H739 C748 0.929 . S
C740 H734 0.930 . S
C740 C741 1.367 1_565 S
C740 C748 1.378 . S
C741 C740 1.367 1_545 S
C741 C749 1.433 . S
C742 H738 0.929 . S
C742 C744 1.378 . S
C742 C746 1.350 . S
C743 C746 1.463 . S
C743 C748 1.350 . S
C743 N751 1.427 . S
C744 H735 0.930 . S
C744 C742 1.378 . S
C744 C745 1.367 . S
C745 C744 1.367 . S
C745 C747 1.433 . S
C746 C742 1.350 . S
C746 C743 1.463 . S
C746 N750 1.427 . S
C747 H737 0.929 . S
C747 C745 1.433 . S
C747 N750 1.384 . S
C748 H739 0.929 . S
C748 C740 1.378 . S
C748 C743 1.350 . S
C749 H736 0.929 . S
C749 C741 1.433 . S
C749 N751 1.384 1_545 S
N750 C746 1.427 . S
N750 C747 1.384 . S
N751 C743 1.427 . S
N751 C749 1.384 1_565 S
H752 C758 0.930 . S
H753 C762 0.930 . S
H754 C767 0.929 . S
H755 C765 0.929 . S
H756 C760 0.929 . S
H757 C766 0.929 . S
C758 H752 0.930 . S
C758 C759 1.367 . S
C758 C766 1.378 . S
C759 C758 1.367 . S
C759 C767 1.433 . S
C760 H756 0.929 . S
C760 C762 1.378 . S
C760 C764 1.350 . S
C761 C764 1.463 . S
C761 C766 1.350 . S
C761 N769 1.427 . S
C762 H753 0.930 . S
C762 C760 1.378 . S
C762 C763 1.367 . S
C763 C762 1.367 . S
C763 C765 1.433 . S
C764 C760 1.350 . S
C764 C761 1.463 . S
C764 N768 1.427 . S
C765 H755 0.929 . S
C765 C763 1.433 . S
C765 N768 1.384 . S
C766 H757 0.929 . S
C766 C758 1.378 . S
C766 C761 1.350 . S
C767 H754 0.929 . S
C767 C759 1.433 . S
C767 N769 1.384 . S
N768 C764 1.427 . S
N768 C765 1.384 . S
N769 C761 1.427 . S
N769 C767 1.384 . S
H770 C776 0.930 . S
H771 C780 0.930 . S
H772 C785 0.929 . S
H773 C783 0.929 . S
H774 C778 0.929 . S
H775 C784 0.929 . S
C776 H770 0.930 . S
C776 C777 1.367 . S
C776 C784 1.378 . S
C777 C776 1.367 . S
C777 C785 1.433 . S
C778 H774 0.929 . S
C778 C780 1.378 . S
C778 C782 1.350 . S
C779 C782 1.463 . S
C779 C784 1.350 . S
C779 N787 1.427 . S
C780 H771 0.930 . S
C780 C778 1.378 . S
C780 C781 1.367 . S
C781 C780 1.367 . S
C781 C783 1.433 . S
C782 C778 1.350 . S
C782 C779 1.463 . S
C782 N786 1.427 . S
C783 H773 0.929 . S
C783 C781 1.433 . S
C783 N786 1.384 . S
C784 H775 0.929 . S
C784 C776 1.378 . S
C784 C779 1.350 . S
C785 H772 0.929 . S
C785 C777 1.433 . S
C785 N787 1.384 . S
N786 C782 1.427 . S
N786 C783 1.384 . S
N787 C779 1.427 . S
N787 C785 1.384 . S
H788 C794 0.930 . S
H789 C798 0.930 . S
H790 C803 0.929 . S
H791 C801 0.929 . S
H792 C796 0.929 . S
H793 C802 0.929 . S
C794 H788 0.930 . S
C794 C795 1.367 . S
C794 C802 1.378 . S
C795 C794 1.367 . S
C795 C803 1.433 . S
C796 H792 0.929 . S
C796 C798 1.378 . S
C796 C800 1.350 . S
C797 C800 1.463 . S
C797 C802 1.350 1_455 S
C797 N805 1.427 . S
C798 H789 0.930 . S
C798 C796 1.378 . S
C798 C799 1.367 . S
C799 C798 1.367 . S
C799 C801 1.433 . S
C800 C796 1.350 . S
C800 C797 1.463 . S
C800 N804 1.427 . S
C801 H791 0.929 . S
C801 C799 1.433 . S
C801 N804 1.384 . S
C802 H793 0.929 . S
C802 C794 1.378 . S
C802 C797 1.350 1_655 S
C803 H790 0.929 . S
C803 C795 1.433 . S
C803 N805 1.384 1_655 S
N804 C800 1.427 . S
N804 C801 1.384 . S
N805 C797 1.427 . S
N805 C803 1.384 1_455 S
H806 C812 0.930 . S
H807 C816 0.930 . S
H808 C821 0.929 . S
H809 C819 0.929 . S
H810 C814 0.929 . S
H811 C820 0.929 . S
C812 H806 0.930 . S
C812 C813 1.367 . S
C812 C820 1.378 . S
C813 C812 1.367 . S
C813 C821 1.433 . S
C814 H810 0.929 . S
C814 C816 1.378 . S
C814 C818 1.350 . S
C815 C818 1.463 . S
C815 C820 1.350 . S
C815 N823 1.427 . S
C816 H807 0.930 . S
C816 C814 1.378 . S
C816 C817 1.367 . S
C817 C816 1.367 . S
C817 C819 1.433 . S
C818 C814 1.350 . S
C818 C815 1.463 . S
C818 N822 1.427 . S
C819 H809 0.929 . S
C819 C817 1.433 . S
C819 N822 1.384 . S
C820 H811 0.929 . S
C820 C812 1.378 . S
C820 C815 1.350 . S
C821 H808 0.929 . S
C821 C813 1.433 . S
C821 N823 1.384 . S
N822 C818 1.427 . S
N822 C819 1.384 . S
N823 C815 1.427 . S
N823 C821 1.384 . S
H824 C830 0.930 . S
H825 C834 0.930 . S
H826 C839 0.929 . S
H827 C837 0.929 . S
H828 C832 0.929 . S
H829 C838 0.929 . S
C830 H824 0.930 . S
C830 C831 1.367 . S
C830 C838 1.378 . S
C831 C830 1.367 . S
C831 C839 1.433 . S
C832 H828 0.929 . S
C832 C834 1.378 . S
C832 C836 1.350 . S
C833 C836 1.463 . S
C833 C838 1.350 . S
C833 N841 1.427 . S
C834 H825 0.930 . S
C834 C832 1.378 . S
C834 C835 1.367 . S
C835 C834 1.367 . S
C835 C837 1.433 . S
C836 C832 1.350 . S
C836 C833 1.463 . S
C836 N840 1.427 . S
C837 H827 0.929 . S
C837 C835 1.433 . S
C837 N840 1.384 . S
C838 H829 0.929 . S
C838 C830 1.378 . S
C838 C833 1.350 . S
C839 H826 0.929 . S
C839 C831 1.433 . S
C839 N841 1.384 . S
N840 C836 1.427 . S
N840 C837 1.384 . S
N841 C833 1.427 . S
N841 C839 1.384 . S
H842 C848 0.930 . S
H843 C852 0.930 . S
H844 C857 0.929 . S
H845 C855 0.929 1_554 S
H846 C850 0.929 . S
H847 C856 0.929 . S
C848 H842 0.930 . S
C848 C849 1.367 . S
C848 C856 1.378 . S
C849 C848 1.367 . S
C849 C857 1.433 . S
C850 H846 0.929 . S
C850 C852 1.378 . S
C850 C854 1.350 . S
C851 C854 1.463 . S
C851 C856 1.350 . S
C851 N859 1.427 . S
C852 H843 0.930 . S
C852 C850 1.378 . S
C852 C853 1.367 . S
C853 C852 1.367 . S
C853 C855 1.433 . S
C854 C850 1.350 . S
C854 C851 1.463 . S
C854 N858 1.427 . S
C855 H845 0.929 1_556 S
C855 C853 1.433 . S
C855 N858 1.384 . S
C856 H847 0.929 . S
C856 C848 1.378 . S
C856 C851 1.350 . S
C857 H844 0.929 . S
C857 C849 1.433 . S
C857 N859 1.384 . S
N858 C854 1.427 . S
N858 C855 1.384 . S
N859 C851 1.427 . S
N859 C857 1.384 . S
H860 C866 0.930 . S
H861 C870 0.930 . S
H862 C875 0.929 . S
H863 C873 0.929 . S
H864 C868 0.929 . S
H865 C874 0.929 . S
C866 H860 0.930 . S
C866 C867 1.367 . S
C866 C874 1.378 1_455 S
C867 C866 1.367 . S
C867 C875 1.433 . S
C868 H864 0.929 . S
C868 C870 1.378 . S
C868 C872 1.350 . S
C869 C872 1.463 . S
C869 C874 1.350 . S
C869 N877 1.427 1_655 S
C870 H861 0.930 . S
C870 C868 1.378 . S
C870 C871 1.367 . S
C871 C870 1.367 . S
C871 C873 1.433 . S
C872 C868 1.350 . S
C872 C869 1.463 . S
C872 N876 1.427 . S
C873 H863 0.929 . S
C873 C871 1.433 . S
C873 N876 1.384 . S
C874 H865 0.929 . S
C874 C866 1.378 1_655 S
C874 C869 1.350 . S
C875 H862 0.929 . S
C875 C867 1.433 . S
C875 N877 1.384 . S
N876 C872 1.427 . S
N876 C873 1.384 . S
N877 C869 1.427 1_455 S
N877 C875 1.384 . S
H878 C884 0.930 . S
H879 C888 0.930 . S
H880 C893 0.929 . S
H881 C891 0.929 . S
H882 C886 0.929 . S
H883 C892 0.929 . S
C884 H878 0.930 . S
C884 C885 1.367 . S
C884 C892 1.378 . S
C885 C884 1.367 . S
C885 C893 1.433 . S
C886 H882 0.929 . S
C886 C888 1.378 . S
C886 C890 1.350 . S
C887 C890 1.463 . S
C887 C892 1.350 . S
C887 N895 1.427 . S
C888 H879 0.930 . S
C888 C886 1.378 . S
C888 C889 1.367 . S
C889 C888 1.367 . S
C889 C891 1.433 . S
C890 C886 1.350 . S
C890 C887 1.463 . S
C890 N894 1.427 . S
C891 H881 0.929 . S
C891 C889 1.433 . S
C891 N894 1.384 . S
C892 H883 0.929 . S
C892 C884 1.378 . S
C892 C887 1.350 . S
C893 H880 0.929 . S
C893 C885 1.433 . S
C893 N895 1.384 . S
N894 C890 1.427 . S
N894 C891 1.384 . S
N895 C887 1.427 . S
N895 C893 1.384 . S
H896 C902 0.930 . S
H897 C906 0.930 . S
H898 C911 0.929 . S
H899 C909 0.929 1_655 S
H900 C904 0.929 . S
H901 C910 0.929 . S
C902 H896 0.930 . S
C902 C903 1.367 . S
C902 C910 1.378 . S
C903 C902 1.367 . S
C903 C911 1.433 . S
C904 H900 0.929 . S
C904 C906 1.378 . S
C904 C908 1.350 1_455 S
C905 C908 1.463 . S
C905 C910 1.350 . S
C905 N913 1.427 . S
C906 H897 0.930 . S
C906 C904 1.378 . S
C906 C907 1.367 . S
C907 C906 1.367 . S
C907 C909 1.433 . S
C908 C904 1.350 1_655 S
C908 C905 1.463 . S
C908 N912 1.427 . S
C909 H899 0.929 1_455 S
C909 C907 1.433 . S
C909 N912 1.384 1_455 S
C910 H901 0.929 . S
C910 C902 1.378 . S
C910 C905 1.350 . S
C911 H898 0.929 . S
C911 C903 1.433 . S
C911 N913 1.384 . S
N912 C908 1.427 . S
N912 C909 1.384 1_655 S
N913 C905 1.427 . S
N913 C911 1.384 . S
H914 C920 0.930 . S
H915 C924 0.930 . S
H916 C929 0.929 . S
H917 C927 0.929 . S
H918 C922 0.929 . S
H919 C928 0.929 . S
C920 H914 0.930 . S
C920 C921 1.367 . S
C920 C928 1.378 . S
C921 C920 1.367 . S
C921 C929 1.433 . S
C922 H918 0.929 . S
C922 C924 1.378 . S
C922 C926 1.350 . S
C923 C926 1.463 . S
C923 C928 1.350 . S
C923 N931 1.427 . S
C924 H915 0.930 . S
C924 C922 1.378 . S
C924 C925 1.367 . S
C925 C924 1.367 . S
C925 C927 1.433 . S
C926 C922 1.350 . S
C926 C923 1.463 . S
C926 N930 1.427 . S
C927 H917 0.929 . S
C927 C925 1.433 . S
C927 N930 1.384 . S
C928 H919 0.929 . S
C928 C920 1.378 . S
C928 C923 1.350 . S
C929 H916 0.929 . S
C929 C921 1.433 . S
C929 N931 1.384 . S
N930 C926 1.427 . S
N930 C927 1.384 . S
N931 C923 1.427 . S
N931 C929 1.384 . S
H932 C938 0.930 . S
H933 C942 0.930 . S
H934 C947 0.929 . S
H935 C945 0.929 . S
H936 C940 0.929 . S
H937 C946 0.929 . S
C938 H932 0.930 . S
C938 C939 1.367 . S
C938 C946 1.378 . S
C939 C938 1.367 . S
C939 C947 1.433 . S
C940 H936 0.929 . S
C940 C942 1.378 . S
C940 C944 1.350 . S
C941 C944 1.463 . S
C941 C946 1.350 . S
C941 N949 1.427 . S
C942 H933 0.930 . S
C942 C940 1.378 . S
C942 C943 1.367 . S
C943 C942 1.367 . S
C943 C945 1.433 . S
C944 C940 1.350 . S
C944 C941 1.463 . S
C944 N948 1.427 . S
C945 H935 0.929 . S
C945 C943 1.433 . S
C945 N948 1.384 . S
C946 H937 0.929 . S
C946 C938 1.378 . S
C946 C941 1.350 . S
C947 H934 0.929 . S
C947 C939 1.433 . S
C947 N949 1.384 . S
N948 C944 1.427 . S
N948 C945 1.384 . S
N949 C941 1.427 . S
N949 C947 1.384 . S
H950 C956 0.930 . S
H951 C960 0.930 . S
H952 C965 0.929 . S
H953 C963 0.929 . S
H954 C958 0.929 . S
H955 C964 0.929 . S
C956 H950 0.930 . S
C956 C957 1.367 . S
C956 C964 1.378 . S
C957 C956 1.367 . S
C957 C965 1.433 . S
C958 H954 0.929 . S
C958 C960 1.378 . S
C958 C962 1.350 . S
C959 C962 1.463 . S
C959 C964 1.350 . S
C959 N967 1.427 . S
C960 H951 0.930 . S
C960 C958 1.378 . S
C960 C961 1.367 . S
C961 C960 1.367 . S
C961 C963 1.433 . S
C962 C958 1.350 . S
C962 C959 1.463 . S
C962 N966 1.427 . S
C963 H953 0.929 . S
C963 C961 1.433 . S
C963 N966 1.384 . S
C964 H955 0.929 . S
C964 C956 1.378 . S
C964 C959 1.350 . S
C965 H952 0.929 . S
C965 C957 1.433 . S
C965 N967 1.384 . S
N966 C962 1.427 . S
N966 C963 1.384 . S
N967 C959 1.427 . S
N967 C965 1.384 . S
H968 C974 0.930 . S
H969 C978 0.930 . S
H970 C983 0.929 . S
H971 C981 0.929 . S
H972 C976 0.929 . S
H973 C982 0.929 . S
C974 H968 0.930 . S
C974 C975 1.367 . S
C974 C982 1.378 . S
C975 C974 1.367 . S
C975 C983 1.433 . S
C976 H972 0.929 . S
C976 C978 1.378 1_455 S
C976 C980 1.350 . S
C977 C980 1.463 . S
C977 C982 1.350 . S
C977 N985 1.427 . S
C978 H969 0.930 . S
C978 C976 1.378 1_655 S
C978 C979 1.367 . S
C979 C978 1.367 . S
C979 C981 1.433 . S
C980 C976 1.350 . S
C980 C977 1.463 . S
C980 N984 1.427 1_455 S
C981 H971 0.929 . S
C981 C979 1.433 . S
C981 N984 1.384 . S
C982 H973 0.929 . S
C982 C974 1.378 . S
C982 C977 1.350 . S
C983 H970 0.929 . S
C983 C975 1.433 . S
C983 N985 1.384 . S
N984 C980 1.427 1_655 S
N984 C981 1.384 . S
N985 C977 1.427 . S
N985 C983 1.384 . S
H986 C992 0.930 . S
H987 C996 0.930 . S
H988 C1001 0.929 . S
H989 C999 0.929 . S
H990 C994 0.929 . S
H991 C1000 0.929 . S
C992 H986 0.930 . S
C992 C993 1.367 . S
C992 C1000 1.378 . S
C993 C992 1.367 . S
C993 C1001 1.433 . S
C994 H990 0.929 . S
C994 C996 1.378 . S
C994 C998 1.350 . S
C995 C998 1.463 . S
C995 C1000 1.350 . S
C995 N1003 1.427 . S
C996 H987 0.930 . S
C996 C994 1.378 . S
C996 C997 1.367 . S
C997 C996 1.367 . S
C997 C999 1.433 . S
C998 C994 1.350 . S
C998 C995 1.463 . S
C998 N1002 1.427 . S
C999 H989 0.929 . S
C999 C997 1.433 . S
C999 N1002 1.384 . S
C1000 H991 0.929 . S
C1000 C992 1.378 . S
C1000 C995 1.350 . S
C1001 H988 0.929 . S
C1001 C993 1.433 . S
C1001 N1003 1.384 . S
N1002 C998 1.427 . S
N1002 C999 1.384 . S
N1003 C995 1.427 . S
N1003 C1001 1.384 . S
H1004 C1010 0.930 . S
H1005 C1014 0.930 . S
H1006 C1019 0.929 . S
H1007 C1017 0.929 . S
H1008 C1012 0.929 . S
H1009 C1018 0.929 . S
C1010 H1004 0.930 . S
C1010 C1011 1.367 . S
C1010 C1018 1.378 . S
C1011 C1010 1.367 . S
C1011 C1019 1.433 . S
C1012 H1008 0.929 . S
C1012 C1014 1.378 . S
C1012 C1016 1.350 . S
C1013 C1016 1.463 . S
C1013 C1018 1.350 . S
C1013 N1021 1.427 . S
C1014 H1005 0.930 . S
C1014 C1012 1.378 . S
C1014 C1015 1.367 . S
C1015 C1014 1.367 . S
C1015 C1017 1.433 . S
C1016 C1012 1.350 . S
C1016 C1013 1.463 . S
C1016 N1020 1.427 . S
C1017 H1007 0.929 . S
C1017 C1015 1.433 . S
C1017 N1020 1.384 . S
C1018 H1009 0.929 . S
C1018 C1010 1.378 . S
C1018 C1013 1.350 . S
C1019 H1006 0.929 . S
C1019 C1011 1.433 . S
C1019 N1021 1.384 . S
N1020 C1016 1.427 . S
N1020 C1017 1.384 . S
N1021 C1013 1.427 . S
N1021 C1019 1.384 . S
H1022 C1028 0.930 1_554 S
H1023 C1032 0.930 . S
H1024 C1037 0.929 . S
H1025 C1035 0.929 . S
H1026 C1030 0.929 . S
H1027 C1036 0.929 . S
C1028 H1022 0.930 1_556 S
C1028 C1029 1.367 . S
C1028 C1036 1.378 . S
C1029 C1028 1.367 . S
C1029 C1037 1.433 . S
C1030 H1026 0.929 . S
C1030 C1032 1.378 . S
C1030 C1034 1.350 . S
C1031 C1034 1.463 . S
C1031 C1036 1.350 . S
C1031 N1039 1.427 . S
C1032 H1023 0.930 . S
C1032 C1030 1.378 . S
C1032 C1033 1.367 . S
C1033 C1032 1.367 . S
C1033 C1035 1.433 . S
C1034 C1030 1.350 . S
C1034 C1031 1.463 . S
C1034 N1038 1.427 . S
C1035 H1025 0.929 . S
C1035 C1033 1.433 . S
C1035 N1038 1.384 . S
C1036 H1027 0.929 . S
C1036 C1028 1.378 . S
C1036 C1031 1.350 . S
C1037 H1024 0.929 . S
C1037 C1029 1.433 . S
C1037 N1039 1.384 . S
N1038 C1034 1.427 . S
N1038 C1035 1.384 . S
N1039 C1031 1.427 . S
N1039 C1037 1.384 . S
H1040 C1046 0.930 . S
H1041 C1050 0.930 . S
H1042 C1055 0.929 . S
H1043 C1053 0.929 . S
H1044 C1048 0.929 . S
H1045 C1054 0.929 . S
C1046 H1040 0.930 . S
C1046 C1047 1.367 . S
C1046 C1054 1.378 . S
C1047 C1046 1.367 . S
C1047 C1055 1.433 . S
C1048 H1044 0.929 . S
C1048 C1050 1.378 . S
C1048 C1052 1.350 . S
C1049 C1052 1.463 . S
C1049 C1054 1.350 . S
C1049 N1057 1.427 . S
C1050 H1041 0.930 . S
C1050 C1048 1.378 . S
C1050 C1051 1.367 . S
C1051 C1050 1.367 . S
C1051 C1053 1.433 . S
C1052 C1048 1.350 . S
C1052 C1049 1.463 . S
C1052 N1056 1.427 . S
C1053 H1043 0.929 . S
C1053 C1051 1.433 . S
C1053 N1056 1.384 . S
C1054 H1045 0.929 . S
C1054 C1046 1.378 . S
C1054 C1049 1.350 . S
C1055 H1042 0.929 . S
C1055 C1047 1.433 . S
C1055 N1057 1.384 . S
N1056 C1052 1.427 . S
N1056 C1053 1.384 . S
N1057 C1049 1.427 . S
N1057 C1055 1.384 . S
H1058 C1064 0.930 . S
H1059 C1068 0.930 . S
H1060 C1073 0.929 . S
H1061 C1071 0.929 . S
H1062 C1066 0.929 . S
H1063 C1072 0.929 . S
C1064 H1058 0.930 . S
C1064 C1065 1.367 . S
C1064 C1072 1.378 . S
C1065 C1064 1.367 . S
C1065 C1073 1.433 . S
C1066 H1062 0.929 . S
C1066 C1068 1.378 . S
C1066 C1070 1.350 . S
C1067 C1070 1.463 . S
C1067 C1072 1.350 . S
C1067 N1075 1.427 . S
C1068 H1059 0.930 . S
C1068 C1066 1.378 . S
C1068 C1069 1.367 . S
C1069 C1068 1.367 . S
C1069 C1071 1.433 . S
C1070 C1066 1.350 . S
C1070 C1067 1.463 . S
C1070 N1074 1.427 . S
C1071 H1061 0.929 . S
C1071 C1069 1.433 . S
C1071 N1074 1.384 . S
C1072 H1063 0.929 . S
C1072 C1064 1.378 . S
C1072 C1067 1.350 . S
C1073 H1060 0.929 . S
C1073 C1065 1.433 . S
C1073 N1075 1.384 . S
N1074 C1070 1.427 . S
N1074 C1071 1.384 . S
N1075 C1067 1.427 . S
N1075 C1073 1.384 . S
H1076 C1082 0.930 . S
H1077 C1086 0.930 . S
H1078 C1091 0.929 . S
H1079 C1089 0.929 . S
H1080 C1084 0.929 . S
H1081 C1090 0.929 . S
C1082 H1076 0.930 . S
C1082 C1083 1.367 . S
C1082 C1090 1.378 . S
C1083 C1082 1.367 . S
C1083 C1091 1.433 . S
C1084 H1080 0.929 . S
C1084 C1086 1.378 . S
C1084 C1088 1.350 . S
C1085 C1088 1.463 . S
C1085 C1090 1.350 . S
C1085 N1093 1.427 . S
C1086 H1077 0.930 . S
C1086 C1084 1.378 . S
C1086 C1087 1.367 . S
C1087 C1086 1.367 . S
C1087 C1089 1.433 . S
C1088 C1084 1.350 . S
C1088 C1085 1.463 . S
C1088 N1092 1.427 . S
C1089 H1079 0.929 . S
C1089 C1087 1.433 . S
C1089 N1092 1.384 . S
C1090 H1081 0.929 . S
C1090 C1082 1.378 . S
C1090 C1085 1.350 . S
C1091 H1078 0.929 . S
C1091 C1083 1.433 . S
C1091 N1093 1.384 . S
N1092 C1088 1.427 . S
N1092 C1089 1.384 . S
N1093 C1085 1.427 . S
N1093 C1091 1.384 . S
H1094 C1100 0.930 . S
H1095 C1104 0.930 . S
H1096 C1109 0.929 . S
H1097 C1107 0.929 . S
H1098 C1102 0.929 . S
H1099 C1108 0.929 . S
C1100 H1094 0.930 . S
C1100 C1101 1.367 . S
C1100 C1108 1.378 . S
C1101 C1100 1.367 . S
C1101 C1109 1.433 . S
C1102 H1098 0.929 . S
C1102 C1104 1.378 . S
C1102 C1106 1.350 . S
C1103 C1106 1.463 1_454 S
C1103 C1108 1.350 . S
C1103 N1111 1.427 . S
C1104 H1095 0.930 . S
C1104 C1102 1.378 . S
C1104 C1105 1.367 . S
C1105 C1104 1.367 . S
C1105 C1107 1.433 . S
C1106 C1102 1.350 . S
C1106 C1103 1.463 1_656 S
C1106 N1110 1.427 . S
C1107 H1097 0.929 . S
C1107 C1105 1.433 . S
C1107 N1110 1.384 . S
C1108 H1099 0.929 . S
C1108 C1100 1.378 . S
C1108 C1103 1.350 . S
C1109 H1096 0.929 . S
C1109 C1101 1.433 . S
C1109 N1111 1.384 . S
N1110 C1106 1.427 . S
N1110 C1107 1.384 . S
N1111 C1103 1.427 . S
N1111 C1109 1.384 . S
H1112 C1118 0.930 . S
H1113 C1122 0.930 . S
H1114 C1127 0.929 . S
H1115 C1125 0.929 . S
H1116 C1120 0.929 . S
H1117 C1126 0.929 . S
C1118 H1112 0.930 . S
C1118 C1119 1.367 . S
C1118 C1126 1.378 . S
C1119 C1118 1.367 . S
C1119 C1127 1.433 . S
C1120 H1116 0.929 . S
C1120 C1122 1.378 . S
C1120 C1124 1.350 . S
C1121 C1124 1.463 . S
C1121 C1126 1.350 . S
C1121 N1129 1.427 . S
C1122 H1113 0.930 . S
C1122 C1120 1.378 . S
C1122 C1123 1.367 . S
C1123 C1122 1.367 . S
C1123 C1125 1.433 . S
C1124 C1120 1.350 . S
C1124 C1121 1.463 . S
C1124 N1128 1.427 . S
C1125 H1115 0.929 . S
C1125 C1123 1.433 . S
C1125 N1128 1.384 . S
C1126 H1117 0.929 . S
C1126 C1118 1.378 . S
C1126 C1121 1.350 . S
C1127 H1114 0.929 . S
C1127 C1119 1.433 . S
C1127 N1129 1.384 . S
N1128 C1124 1.427 . S
N1128 C1125 1.384 . S
N1129 C1121 1.427 . S
N1129 C1127 1.384 . S
H1130 C1136 0.930 . S
H1131 C1140 0.930 . S
H1132 C1145 0.929 . S
H1133 C1143 0.929 . S
H1134 C1138 0.929 . S
H1135 C1144 0.929 . S
C1136 H1130 0.930 . S
C1136 C1137 1.367 . S
C1136 C1144 1.378 . S
C1137 C1136 1.367 . S
C1137 C1145 1.433 . S
C1138 H1134 0.929 . S
C1138 C1140 1.378 . S
C1138 C1142 1.350 . S
C1139 C1142 1.463 . S
C1139 C1144 1.350 . S
C1139 N1147 1.427 . S
C1140 H1131 0.930 . S
C1140 C1138 1.378 . S
C1140 C1141 1.367 . S
C1141 C1140 1.367 . S
C1141 C1143 1.433 . S
C1142 C1138 1.350 . S
C1142 C1139 1.463 . S
C1142 N1146 1.427 . S
C1143 H1133 0.929 . S
C1143 C1141 1.433 . S
C1143 N1146 1.384 . S
C1144 H1135 0.929 . S
C1144 C1136 1.378 . S
C1144 C1139 1.350 . S
C1145 H1132 0.929 . S
C1145 C1137 1.433 . S
C1145 N1147 1.384 . S
N1146 C1142 1.427 . S
N1146 C1143 1.384 . S
N1147 C1139 1.427 . S
N1147 C1145 1.384 . S
H1148 C1154 0.930 1_565 S
H1149 C1158 0.930 1_545 S
H1150 C1163 0.929 . S
H1151 C1161 0.929 . S
H1152 C1156 0.929 . S
H1153 C1162 0.929 . S
C1154 H1148 0.930 1_545 S
C1154 C1155 1.367 . S
C1154 C1162 1.378 1_545 S
C1155 C1154 1.367 . S
C1155 C1163 1.433 . S
C1156 H1152 0.929 . S
C1156 C1158 1.378 1_545 S
C1156 C1160 1.350 1_545 S
C1157 C1160 1.463 1_446 S
C1157 C1162 1.350 1_545 S
C1157 N1165 1.427 . S
C1158 H1149 0.930 1_565 S
C1158 C1156 1.378 1_565 S
C1158 C1159 1.367 . S
C1159 C1158 1.367 . S
C1159 C1161 1.433 . S
C1160 C1156 1.350 1_565 S
C1160 C1157 1.463 1_664 S
C1160 N1164 1.427 . S
C1161 H1151 0.929 . S
C1161 C1159 1.433 . S
C1161 N1164 1.384 . S
C1162 H1153 0.929 . S
C1162 C1154 1.378 1_565 S
C1162 C1157 1.350 1_565 S
C1163 H1150 0.929 . S
C1163 C1155 1.433 . S
C1163 N1165 1.384 . S
N1164 C1160 1.427 . S
N1164 C1161 1.384 . S
N1165 C1157 1.427 . S
N1165 C1163 1.384 . S
H1166 C1172 0.930 . S
H1167 C1176 0.930 . S
H1168 C1181 0.929 . S
H1169 C1179 0.929 . S
H1170 C1174 0.929 . S
H1171 C1180 0.929 . S
C1172 H1166 0.930 . S
C1172 C1173 1.367 . S
C1172 C1180 1.378 . S
C1173 C1172 1.367 . S
C1173 C1181 1.433 . S
C1174 H1170 0.929 . S
C1174 C1176 1.378 . S
C1174 C1178 1.350 . S
C1175 C1178 1.463 1_545 S
C1175 C1180 1.350 . S
C1175 N1183 1.427 . S
C1176 H1167 0.930 . S
C1176 C1174 1.378 . S
C1176 C1177 1.367 . S
C1177 C1176 1.367 . S
C1177 C1179 1.433 . S
C1178 C1174 1.350 . S
C1178 C1175 1.463 1_565 S
C1178 N1182 1.427 . S
C1179 H1169 0.929 . S
C1179 C1177 1.433 . S
C1179 N1182 1.384 . S
C1180 H1171 0.929 . S
C1180 C1172 1.378 . S
C1180 C1175 1.350 . S
C1181 H1168 0.929 . S
C1181 C1173 1.433 . S
C1181 N1183 1.384 . S
N1182 C1178 1.427 . S
N1182 C1179 1.384 . S
N1183 C1175 1.427 . S
N1183 C1181 1.384 . S
C327 C4 1.133 . S
C331 C204 1.113 . S
C345 C24 1.112 . S
C349 C224 1.133 . S
C363 C44 1.111 . S
C367 C164 1.134 . S
C381 C64 1.119 . S
C385 C184 1.128 . S
C399 C82 1.111 . S
C403 C282 1.132 . S
C417 C102 1.111 . S
C421 C302 1.132 . S
C435 C122 1.131 . S
C439 C242 1.112 . S
C453 C142 1.133 . S
C457 C262 1.114 . S
C471 C198 2.090 . S
C475 C2 2.063 1_556 S
C489 C218 2.097 . S
C493 C22 2.061 . S
C507 C238 2.095 . S
C511 C42 2.059 . S
C525 C178 2.089 . S
C529 C62 2.065 . S
C543 C84 2.070 1_554 S
C547 C279 2.090 . S
C561 C299 2.096 . S
C565 C104 2.059 . S
C579 C319 2.093 . S
C583 C124 2.067 . S
C597 C259 2.097 . S
C601 C144 2.060 . S
C615 C38 2.088 . S
C619 C162 2.067 . S
C633 C182 2.063 . S
C637 C58 2.091 . S
C651 C202 2.065 1_556 S
C655 C78 2.089 . S
C669 C222 2.070 . S
C673 C18 2.088 . S
C687 C244 2.063 . S
C691 C119 2.096 . S
C705 C139 2.088 . S
C709 C264 2.070 . S
C723 C159 2.088 . S
C727 C284 2.070 1_554 S
C741 C304 2.060 . S
C745 C99 2.093 . S
C759 C12 1.081 . S
C763 C318 1.092 . S
C777 C32 1.081 . S
C781 C98 1.091 1_554 S
C795 C278 1.090 . S
C799 C52 1.072 . S
C813 C138 1.096 . S
C817 C72 1.073 . S
C831 C89 1.071 . S
C835 C239 1.090 . S
C849 C109 1.082 . S
C853 C19 1.088 1_556 S
C867 C199 1.095 . S
C871 C129 1.064 . S
C885 C59 1.089 . S
C889 C149 1.078 . S
C903 C172 1.081 . S
C907 C158 1.089 . S
C921 C192 1.074 . S
C925 C258 1.089 . S
C939 C118 1.097 . S
C943 C212 1.068 . S
C957 C298 1.094 1_554 S
C961 C232 1.064 . S
C975 C249 1.075 . S
C979 C79 1.096 . S
C993 C269 1.073 . S
C997 C179 1.089 . S
C1011 C289 1.067 . S
C1015 C39 1.092 . S
C1029 C219 1.095 1_556 S
C1033 C309 1.075 . S
C1047 C9 1.632 . S
C1051 C252 1.632 . S
C1065 C29 1.629 . S
C1069 C112 1.629 . S
C1083 C49 1.629 . S
C1087 C292 1.629 . S
C1101 C152 1.628 . S
C1105 C69 1.628 . S
C1119 C92 1.632 . S
C1123 C169 1.632 . S
C1137 C209 1.629 . S
C1141 C132 1.629 . S
C1155 C189 1.628 . S
C1159 C272 1.628 . S
C1173 C312 1.629 . S
C1177 C229 1.629 . S
