# Generated by pormake.
# Topology ure, (4)-cn, num edge types: 1
# Building blocks:
#     Node 0, Type 0, BuildingBlock: QUQFOY_clean_sbu_3, # of connection points: 4
#     Node 1, Type 0, BuildingBlock: QUQFOY_clean_sbu_3, # of connection points: 4
#     Node 2, Type 0, BuildingBlock: QUQFOY_clean_sbu_3, # of connection points: 4
#     Node 3, Type 0, BuildingBlock: QUQFOY_clean_sbu_3, # of connection points: 4
#     Node 4, Type 0, BuildingBlock: QUQFOY_clean_sbu_3, # of connection points: 4
#     Node 5, Type 0, BuildingBlock: QUQFOY_clean_sbu_3, # of connection points: 4
#     Node 6, Type 0, BuildingBlock: QUQFOY_clean_sbu_3, # of connection points: 4
#     Node 7, Type 0, BuildingBlock: QUQFOY_clean_sbu_3, # of connection points: 4
#     Node 8, Type 0, BuildingBlock: QUQFOY_clean_sbu_3, # of connection points: 4
#     Node 9, Type 0, BuildingBlock: QUQFOY_clean_sbu_3, # of connection points: 4
#     Node 10, Type 0, BuildingBlock: QUQFOY_clean_sbu_3, # of connection points: 4
#     Node 11, Type 0, BuildingBlock: QUQFOY_clean_sbu_3, # of connection points: 4
#     Node 12, Type 0, BuildingBlock: QUQFOY_clean_sbu_3, # of connection points: 4
#     Node 13, Type 0, BuildingBlock: QUQFOY_clean_sbu_3, # of connection points: 4
#     Node 14, Type 0, BuildingBlock: QUQFOY_clean_sbu_3, # of connection points: 4
#     Node 15, Type 0, BuildingBlock: QUQFOY_clean_sbu_3, # of connection points: 4
#     Edge 16, Type (0, 0), BuildingBlock: OJICUG_clean_linker_0, # of connection points: 2
#     Edge 17, Type (0, 0), BuildingBlock: OJICUG_clean_linker_0, # of connection points: 2
#     Edge 18, Type (0, 0), BuildingBlock: OJICUG_clean_linker_0, # of connection points: 2
#     Edge 19, Type (0, 0), BuildingBlock: OJICUG_clean_linker_0, # of connection points: 2
#     Edge 20, Type (0, 0), BuildingBlock: OJICUG_clean_linker_0, # of connection points: 2
#     Edge 21, Type (0, 0), BuildingBlock: OJICUG_clean_linker_0, # of connection points: 2
#     Edge 22, Type (0, 0), BuildingBlock: OJICUG_clean_linker_0, # of connection points: 2
#     Edge 23, Type (0, 0), BuildingBlock: OJICUG_clean_linker_0, # of connection points: 2
#     Edge 24, Type (0, 0), BuildingBlock: OJICUG_clean_linker_0, # of connection points: 2
#     Edge 25, Type (0, 0), BuildingBlock: OJICUG_clean_linker_0, # of connection points: 2
#     Edge 26, Type (0, 0), BuildingBlock: OJICUG_clean_linker_0, # of connection points: 2
#     Edge 27, Type (0, 0), BuildingBlock: OJICUG_clean_linker_0, # of connection points: 2
#     Edge 28, Type (0, 0), BuildingBlock: OJICUG_clean_linker_0, # of connection points: 2
#     Edge 29, Type (0, 0), BuildingBlock: OJICUG_clean_linker_0, # of connection points: 2
#     Edge 30, Type (0, 0), BuildingBlock: OJICUG_clean_linker_0, # of connection points: 2
#     Edge 31, Type (0, 0), BuildingBlock: OJICUG_clean_linker_0, # of connection points: 2
#     Edge 32, Type (0, 0), BuildingBlock: OJICUG_clean_linker_0, # of connection points: 2
#     Edge 33, Type (0, 0), BuildingBlock: OJICUG_clean_linker_0, # of connection points: 2
#     Edge 34, Type (0, 0), BuildingBlock: OJICUG_clean_linker_0, # of connection points: 2
#     Edge 35, Type (0, 0), BuildingBlock: OJICUG_clean_linker_0, # of connection points: 2
#     Edge 36, Type (0, 0), BuildingBlock: OJICUG_clean_linker_0, # of connection points: 2
#     Edge 37, Type (0, 0), BuildingBlock: OJICUG_clean_linker_0, # of connection points: 2
#     Edge 38, Type (0, 0), BuildingBlock: OJICUG_clean_linker_0, # of connection points: 2
#     Edge 39, Type (0, 0), BuildingBlock: OJICUG_clean_linker_0, # of connection points: 2
#     Edge 40, Type (0, 0), BuildingBlock: OJICUG_clean_linker_0, # of connection points: 2
#     Edge 41, Type (0, 0), BuildingBlock: OJICUG_clean_linker_0, # of connection points: 2
#     Edge 42, Type (0, 0), BuildingBlock: OJICUG_clean_linker_0, # of connection points: 2
#     Edge 43, Type (0, 0), BuildingBlock: OJICUG_clean_linker_0, # of connection points: 2
#     Edge 44, Type (0, 0), BuildingBlock: OJICUG_clean_linker_0, # of connection points: 2
#     Edge 45, Type (0, 0), BuildingBlock: OJICUG_clean_linker_0, # of connection points: 2
#     Edge 46, Type (0, 0), BuildingBlock: OJICUG_clean_linker_0, # of connection points: 2
#     Edge 47, Type (0, 0), BuildingBlock: OJICUG_clean_linker_0, # of connection points: 2
# Relax obj value: 0.231
# Max RMSD: 0.174
# Mean RMSD: 0.174
data_MOF--net-ure--node1-QUQFOY_clean_sbu_3--edge1-OJICUG_clean_linker_0
_symmetry_space_group_name_H-M    P1
_symmetry_Int_Tables_number       1
_symmetry_cell_setting            triclinic
loop_
_symmetry_equiv_pos_as_xyz
'x, y, z'
_cell_length_a     25.299453
_cell_length_b     24.090796
_cell_length_c     24.08238
_cell_angle_alpha  89.946505
_cell_angle_beta   89.934399
_cell_angle_gamma 90.012774
loop_
_atom_site_label
_atom_site_type_symbol
_atom_site_fract_x
_atom_site_fract_y
_atom_site_fract_z
_atom_type_partial_charge
C0 C 0.36689 0.25128 0.21159 0.0
O1 O 0.36898 0.28331 0.25346 0.0
Cd2 Cd 0.30889 0.28873 0.33014 0.0
O3 O 0.32588 0.22205 0.20195 0.0
Cd4 Cd 0.23593 0.22444 0.2438 0.0
C5 C 0.21857 0.36449 0.2647 0.0
O6 O 0.27026 0.19933 0.33374 0.0
O7 O 0.18629 0.21223 0.33179 0.0
O8 O 0.20385 0.13572 0.20691 0.0
C9 C 0.22684 0.19841 0.35949 0.0
O10 O 0.24631 0.36082 0.30849 0.0
C11 C 0.16954 0.1579 0.17547 0.0
O12 O 0.2138 0.32319 0.23214 0.0
O13 O 0.16711 0.21045 0.17513 0.0
C14 C 0.82584 0.96186 0.50138 0.0
O15 O 0.82371 0.00364 0.53352 0.0
Cd16 Cd 0.8838 0.08025 0.53898 0.0
O17 O 0.86685 0.9523 0.47208 0.0
Cd18 Cd 0.95675 -0.00586 0.47457 0.0
C19 C -0.02595 0.01475 0.61467 0.0
O20 O 0.92249 0.08417 0.44952 0.0
O21 O 0.00642 0.08206 0.46264 0.0
O22 O -0.01107 0.95731 0.38579 0.0
C23 C 0.96594 0.10983 0.44873 0.0
O24 O 0.94636 0.05859 0.61106 0.0
C25 C 0.0232 0.92582 0.40797 0.0
O26 O -0.02121 -0.01777 0.57332 0.0
O27 O 0.02558 0.92546 0.46054 0.0
C28 C 0.07536 0.70284 0.71049 0.0
O29 O 0.07289 0.67032 0.752 0.0
Cd30 Cd 0.1332 0.66339 0.82821 0.0
O31 O 0.11673 0.7316 0.70108 0.0
Cd32 Cd 0.20654 0.72716 0.74276 0.0
C33 C 0.22277 0.58717 0.76208 0.0
O34 O 0.17346 0.75202 0.83352 0.0
O35 O 0.25673 0.73485 0.83043 0.0
O36 O 0.24005 0.81644 0.70853 0.0
C37 C 0.21711 0.75047 0.85873 0.0
O38 O 0.19514 0.59087 0.806 0.0
C39 C 0.27369 0.79476 0.67594 0.0
O40 O 0.22773 0.62852 0.72954 0.0
O41 O 0.27509 0.74221 0.6737 0.0
C42 C 0.61794 -0.00502 0.0032 0.0
O43 O 0.62033 0.95357 0.03585 0.0
Cd44 Cd 0.5599 0.87731 0.0429 0.0
O45 O 0.57659 0.00428 0.97442 0.0
Cd46 Cd 0.48662 0.96264 -0.02126 0.0
C47 C 0.46987 0.94337 0.11881 0.0
O48 O 0.52001 0.87191 0.95425 0.0
O49 O 0.43651 0.8752 0.97063 0.0
O50 O 0.45343 -0.00291 0.88957 0.0
C51 C 0.47618 0.84687 0.95539 0.0
O52 O 0.49764 0.89958 0.11529 0.0
C53 C 0.41992 0.02972 0.91136 0.0
O54 O 0.46502 0.97579 0.07737 0.0
O55 O 0.41845 0.03185 0.96393 0.0
C56 C 0.367 0.7017 0.24556 0.0
O57 O 0.36932 0.66905 0.2042 0.0
Cd58 Cd 0.30881 0.6622 0.12817 0.0
O59 O 0.32568 0.73053 0.25493 0.0
Cd60 Cd 0.23574 0.72631 0.21344 0.0
C61 C 0.21879 0.58634 0.19433 0.0
O62 O 0.26904 0.75104 0.12267 0.0
O63 O 0.18567 0.73428 0.12572 0.0
O64 O 0.20249 0.81584 0.24711 0.0
C65 C 0.22537 0.74976 0.09744 0.0
O66 O 0.2466 0.58991 0.15052 0.0
C67 C 0.16899 0.79444 0.28008 0.0
O68 O 0.21391 0.62773 0.22676 0.0
O69 O 0.16755 0.74191 0.28281 0.0
C70 C 0.6176 0.96125 0.45428 0.0
O71 O 0.61956 0.00294 0.42196 0.0
Cd72 Cd 0.55905 0.07912 0.41655 0.0
O73 O 0.57661 0.95159 0.48361 0.0
Cd74 Cd 0.48663 -0.00687 0.48053 0.0
C75 C 0.46926 0.01361 0.34061 0.0
O76 O 0.52008 0.08347 0.5059 0.0
O77 O 0.43646 0.08077 0.49079 0.0
O78 O 0.45404 0.95703 0.56949 0.0
C79 C 0.47645 0.1088 0.50571 0.0
O80 O 0.49661 0.05767 0.34435 0.0
C81 C 0.42011 0.92506 0.54747 0.0
O82 O 0.4648 -0.01914 0.38186 0.0
O83 O 0.41813 0.92407 0.49489 0.0
C84 C 0.07577 0.25078 0.74399 0.0
O85 O 0.07378 0.28212 0.70156 0.0
Cd86 Cd 0.13489 0.28754 0.62584 0.0
O87 O 0.11695 0.22215 0.75456 0.0
Cd88 Cd 0.20723 0.22517 0.7135 0.0
C89 C 0.2234 0.36493 0.69253 0.0
O90 O 0.17499 0.19872 0.62291 0.0
O91 O 0.25807 0.21714 0.62647 0.0
O92 O 0.23999 0.13633 0.74929 0.0
C93 C 0.21899 0.20024 0.59817 0.0
O94 O 0.19639 0.36059 0.64828 0.0
C95 C 0.27363 0.15836 0.78157 0.0
O96 O 0.22808 0.32395 0.72557 0.0
O97 O 0.27533 0.21093 0.78294 0.0
C98 C 0.8256 -0.00461 0.95193 0.0
O99 O 0.82335 0.95401 0.91931 0.0
Cd100 Cd 0.8839 0.87799 0.91248 0.0
O101 O 0.86687 0.00479 -0.01922 0.0
Cd102 Cd 0.95685 0.96335 0.97655 0.0
C103 C -0.02613 0.94416 0.83653 0.0
O104 O 0.92366 0.87263 0.00136 0.0
O105 O 0.00703 0.87564 -0.01543 0.0
O106 O -0.00984 -0.00291 0.06603 0.0
C107 C 0.96734 0.8474 8e-05 0.0
O108 O 0.94612 0.90034 0.84013 0.0
C109 C 0.02362 0.03002 0.04451 0.0
O110 O -0.02131 0.97658 0.87794 0.0
O111 O 0.025 0.03269 -0.00804 0.0
C112 C 0.8674 0.20423 0.74418 0.0
O113 O 0.86942 0.17235 0.70221 0.0
Cd114 Cd 0.8087 0.16688 0.62629 0.0
O115 O 0.82632 0.2332 0.75422 0.0
Cd116 Cd 0.73628 0.22996 0.71299 0.0
C117 C 0.71929 0.09026 0.69235 0.0
O118 O 0.76902 0.2559 0.62233 0.0
O119 O 0.68576 0.23878 0.62564 0.0
O120 O 0.70326 0.31887 0.74851 0.0
C121 C 0.72525 0.25476 0.59732 0.0
O122 O 0.74661 0.09433 0.64823 0.0
C123 C 0.66961 0.29682 0.78088 0.0
O124 O 0.71474 0.1313 0.72526 0.0
O125 O 0.668 0.24426 0.78242 0.0
C126 C 0.11746 0.46047 0.95291 0.0
O127 O 0.11992 0.50197 0.92038 0.0
Cd128 Cd 0.05955 0.57815 0.91357 0.0
O129 O 0.07609 0.4511 -0.01828 0.0
Cd130 Cd -0.01376 0.49283 0.97738 0.0
C131 C 0.97003 0.5122 0.83734 0.0
O132 O 0.0194 0.58354 0.00226 0.0
O133 O 0.93606 0.58051 -0.0148 0.0
O134 O 0.95273 0.45843 0.06662 0.0
C135 C -0.02436 0.6087 0.00077 0.0
O136 O -0.00236 0.55609 0.84103 0.0
C137 C 0.91913 0.42591 0.04488 0.0
O138 O 0.96509 0.47966 0.8787 0.0
O139 O 0.91774 0.4238 -0.00769 0.0
C140 C 0.57454 0.75307 0.24513 0.0
O141 O 0.57216 0.7857 0.2037 0.0
Cd142 Cd 0.63266 0.7927 0.12744 0.0
O143 O 0.61588 0.72429 0.25444 0.0
Cd144 Cd 0.70576 0.72865 0.21277 0.0
C145 C 0.72264 0.86856 0.1933 0.0
O146 O 0.67269 0.70394 0.12203 0.0
O147 O 0.7561 0.72036 0.12517 0.0
O148 O 0.73919 0.63948 0.2472 0.0
C149 C 0.71643 0.70508 0.09685 0.0
O150 O 0.69483 0.86505 0.14954 0.0
C151 C 0.77268 0.66129 0.2798 0.0
O152 O 0.72747 0.82715 0.22576 0.0
O153 O 0.77401 0.71384 0.28194 0.0
C154 C 0.11701 0.49416 0.50083 0.0
O155 O 0.11898 0.45176 0.5322 0.0
Cd156 Cd 0.05791 0.37611 0.53757 0.0
O157 O 0.07587 0.50473 0.47216 0.0
Cd158 Cd -0.01438 0.46372 0.47523 0.0
C159 C 0.96934 0.44273 0.61502 0.0
O160 O 0.01789 0.37314 0.44873 0.0
O161 O 0.93481 0.37675 0.46721 0.0
O162 O 0.95289 0.4995 0.38638 0.0
C163 C -0.02609 0.34843 0.45029 0.0
O164 O -0.00367 0.39847 0.61066 0.0
C165 C 0.91921 0.53176 0.40843 0.0
O166 O 0.9647 0.47579 0.57405 0.0
O167 O 0.91748 0.53314 0.46102 0.0
C168 C 0.32504 0.46029 0.00339 0.0
O169 O 0.32273 0.50184 0.03579 0.0
Cd170 Cd 0.38325 0.57797 0.04227 0.0
O171 O 0.36632 0.4508 0.97451 0.0
Cd172 Cd 0.45624 0.49229 -0.02161 0.0
C173 C 0.47301 0.51186 0.11826 0.0
O174 O 0.42333 0.58307 0.95342 0.0
O175 O 0.50667 0.57982 0.97023 0.0
O176 O 0.48956 0.45789 0.88911 0.0
C177 C 0.46709 0.6082 0.95474 0.0
O178 O 0.4454 0.55575 0.11457 0.0
C179 C 0.52313 0.42529 0.91084 0.0
O180 O 0.47778 0.47929 0.07697 0.0
O181 O 0.52457 0.42314 0.96341 0.0
C182 C 0.86773 0.75335 0.71023 0.0
O183 O 0.86997 0.78571 0.75182 0.0
Cd184 Cd 0.80938 0.79206 0.82801 0.0
O185 O 0.82646 0.72448 0.70073 0.0
Cd186 Cd 0.73637 0.72826 0.7423 0.0
C187 C 0.71958 0.86815 0.76194 0.0
O188 O 0.76949 0.70339 0.83306 0.0
O189 O 0.6861 0.72018 0.8297 0.0
O190 O 0.70327 0.63909 0.70782 0.0
C191 C 0.72564 0.70463 0.85809 0.0
O192 O 0.74715 0.8644 0.80586 0.0
C193 C 0.66973 0.66083 0.6752 0.0
O194 O 0.71487 0.8269 0.72932 0.0
O195 O 0.66825 0.71338 0.67303 0.0
C196 C 0.57515 0.20419 0.21124 0.0
O197 O 0.57315 0.17198 0.25303 0.0
Cd198 Cd 0.63375 0.16649 0.32908 0.0
O199 O 0.61617 0.23338 0.20148 0.0
Cd200 Cd 0.70615 0.23016 0.24294 0.0
C201 C 0.7234 0.09032 0.26335 0.0
O202 O 0.67296 0.25567 0.33346 0.0
O203 O 0.75644 0.23967 0.33048 0.0
O204 O 0.73884 0.31915 0.20711 0.0
C205 C 0.71665 0.25502 0.35865 0.0
O206 O 0.69608 0.09416 0.30747 0.0
C207 C 0.77271 0.2972 0.17497 0.0
O208 O 0.72788 0.13151 0.23053 0.0
O209 O 0.7746 0.24463 0.17373 0.0
C210 C 0.32549 0.49395 0.45454 0.0
O211 O 0.32348 0.45182 0.42288 0.0
Cd212 Cd 0.38423 0.37588 0.41748 0.0
O213 O 0.36659 0.50414 0.4834 0.0
Cd214 Cd 0.45675 0.46293 0.48031 0.0
C215 C 0.47343 0.44218 0.34049 0.0
O216 O 0.42398 0.37231 0.50636 0.0
O217 O 0.50726 0.37579 0.48876 0.0
O218 O 0.48968 0.49856 0.56913 0.0
C219 C 0.46789 0.34745 0.50503 0.0
O220 O 0.44624 0.39802 0.34471 0.0
C221 C 0.52328 0.53092 0.54699 0.0
O222 O 0.47801 0.47512 0.38151 0.0
O223 O 0.52491 0.53237 0.4944 0.0
C224 C 0.11555 0.07244 0.16053 0.0
C225 C 0.13306 0.12448 0.14172 0.0
H226 H 0.06552 0.00225 0.14495 0.0
C227 C 0.11394 0.14545 0.0912 0.0
H228 H 0.12948 0.05569 0.19963 0.0
C229 C 0.07848 0.11448 0.05948 0.0
C230 C 0.06027 0.06286 0.07864 0.0
H231 H 0.12689 0.18553 0.07591 0.0
H232 H 0.06478 0.13121 0.02027 0.0
C233 C 0.07874 0.0422 0.12959 0.0
C234 C 0.07722 0.9107 0.32247 0.0
C235 C 0.05966 0.89198 0.37455 0.0
H236 H 0.12724 0.89493 0.25223 0.0
C237 C 0.07869 0.84144 0.39554 0.0
H238 H 0.06336 0.94982 0.30568 0.0
C239 C 0.1141 0.8096 0.36456 0.0
C240 C 0.13236 0.82867 0.31291 0.0
H241 H 0.0657 0.82622 0.43565 0.0
H242 H 0.12773 0.77039 0.38132 0.0
C243 C 0.11398 0.87964 0.29221 0.0
C244 C 0.36564 0.91069 0.6328 0.0
C245 C 0.38352 0.89148 0.58106 0.0
H246 H 0.31522 0.89556 0.70289 0.0
C247 C 0.36466 0.8407 0.56053 0.0
H248 H 0.37937 0.94999 0.64921 0.0
C249 C 0.32908 0.80914 0.59165 0.0
C250 C 0.3105 0.82871 0.64296 0.0
H251 H 0.3779 0.8251 0.52069 0.0
H252 H 0.31557 0.76975 0.57526 0.0
C253 C 0.32873 0.87989 0.66318 0.0
C254 C 0.36459 0.11396 0.89731 0.0
C255 C 0.38322 0.0628 0.87752 0.0
H256 H 0.31573 0.18485 0.88166 0.0
C257 C 0.36508 0.04275 0.82624 0.0
H258 H 0.37803 0.1302 0.9368 0.0
C259 C 0.32819 0.07317 0.79556 0.0
C260 C 0.31024 0.12477 0.81501 0.0
H261 H 0.37862 0.00315 0.8104 0.0
H262 H 0.31453 0.0569 0.75618 0.0
C263 C 0.32903 0.14512 0.86588 0.0
C264 C 0.61491 0.38195 0.79486 0.0
C265 C 0.63293 0.33038 0.81435 0.0
H266 H 0.56439 0.45191 0.8097 0.0
C267 C 0.61417 0.31 0.86531 0.0
H268 H 0.62856 0.39825 0.75542 0.0
C269 C 0.57856 0.34111 0.89677 0.0
C270 C 0.55987 0.39225 0.87695 0.0
H271 H 0.62752 0.27029 0.88113 0.0
H272 H 0.56515 0.32484 0.93632 0.0
C273 C 0.57798 0.41232 0.82558 0.0
C274 C 0.86375 0.34166 0.05906 0.0
C275 C 0.88233 0.39286 0.07878 0.0
H276 H 0.81493 0.27072 0.07484 0.0
C277 C 0.86411 0.41292 0.13007 0.0
H278 H 0.87725 0.3254 0.01958 0.0
C279 C 0.8272 0.38249 0.16082 0.0
C280 C 0.80931 0.33084 0.14145 0.0
H281 H 0.87762 0.45256 0.14586 0.0
H282 H 0.81348 0.39877 0.2002 0.0
C283 C 0.82817 0.31048 0.09057 0.0
C284 C 0.86464 0.54565 0.32326 0.0
C285 C 0.88254 0.56514 0.37485 0.0
H286 H 0.81419 0.56038 0.25325 0.0
C287 C 0.86364 0.61597 0.39521 0.0
H288 H 0.87839 0.50629 0.30699 0.0
C289 C 0.82801 0.64732 0.36405 0.0
C290 C 0.80944 0.6275 0.31288 0.0
H291 H 0.87689 0.63178 0.43494 0.0
H292 H 0.81448 0.68678 0.38029 0.0
C293 C 0.82769 0.57625 0.29285 0.0
C294 C 0.57798 0.54492 0.63205 0.0
C295 C 0.55994 0.56438 0.58046 0.0
H296 H 0.6285 0.55978 0.70196 0.0
C297 C 0.5787 0.61528 0.56001 0.0
H298 H 0.56434 0.50552 0.6484 0.0
C299 C 0.6143 0.64673 0.59105 0.0
C300 C 0.63301 0.62694 0.64221 0.0
H301 H 0.56535 0.63106 0.52028 0.0
H302 H 0.62771 0.68624 0.57474 0.0
C303 C 0.61491 0.57562 0.66235 0.0
C304 C 0.272 0.20093 0.45155 0.0
C305 C 0.22552 0.19361 0.42045 0.0
H306 H 0.30583 0.20983 0.5325 0.0
C307 C 0.17757 0.18491 0.44822 0.0
H308 H 0.30963 0.20805 0.43123 0.0
C309 C 0.17569 0.18499 0.50616 0.0
C310 C 0.22184 0.19445 0.53729 0.0
H311 H 0.14154 0.17879 0.425 0.0
H312 H 0.13784 0.17919 0.52644 0.0
C313 C 0.27001 0.2018 0.50945 0.0
C314 C -0.00414 0.92284 0.73799 0.0
C315 C -0.00784 0.96181 0.78113 0.0
H316 H -0.0053 0.90943 0.65016 0.0
C317 C -0.0037 0.01851 0.76851 0.0
H318 H -0.00562 0.87884 0.74699 0.0
C319 C -0.00412 0.03607 0.71323 0.0
C320 C -0.00776 -0.0029 0.67008 0.0
H321 H -0.00523 0.04938 0.80111 0.0
H322 H -0.00566 0.08008 0.70429 0.0
C323 C -0.0037 0.94037 0.68271 0.0
C324 C 0.17241 0.75585 0.95112 0.0
C325 C 0.21929 0.755 0.91969 0.0
H326 H 0.138 0.7541 0.03246 0.0
C327 C 0.26806 0.7553 0.94717 0.0
H328 H 0.13409 0.75527 0.93106 0.0
C329 C 0.2701 0.75558 0.00508 0.0
C330 C 0.22322 0.75463 0.03651 0.0
H331 H 0.30453 0.75427 0.92375 0.0
H332 H 0.30842 0.75481 0.02514 0.0
C333 C 0.17444 0.7552 0.00904 0.0
C334 C 0.44768 0.03513 0.242 0.0
C335 C 0.45115 -0.00391 0.28517 0.0
H336 H 0.44909 0.04859 0.15413 0.0
C337 C 0.44695 0.93939 0.27256 0.0
H338 H 0.44926 0.07913 0.25093 0.0
C339 C 0.44751 0.92194 0.21729 0.0
C340 C 0.45147 0.96096 0.17416 0.0
H341 H 0.44831 0.90841 0.30513 0.0
H342 H 0.44886 0.87795 0.2083 0.0
C343 C 0.44739 0.01766 0.18673 0.0
C344 C 0.43382 0.18479 0.17708 0.0
C345 C 0.41698 0.23995 0.1827 0.0
H346 H 0.50046 0.12994 0.18038 0.0
C347 C 0.45417 0.2829 0.17749 0.0
H348 H 0.40584 0.15089 0.18049 0.0
C349 C 0.5082 0.27085 0.17711 0.0
C350 C 0.52502 0.21566 0.18257 0.0
H351 H 0.44153 0.32568 0.18066 0.0
H352 H 0.53616 0.30473 0.18054 0.0
C353 C 0.48784 0.17273 0.17733 0.0
C354 C 0.01731 0.25636 0.43563 0.0
C355 C 0.97108 0.28757 0.44457 0.0
H356 H 0.05148 0.17518 0.42996 0.0
C357 C 0.92283 0.25984 0.45149 0.0
H358 H 0.05521 0.27655 0.43019 0.0
C359 C 0.9208 0.20195 0.4507 0.0
C360 C 0.96733 0.17077 0.44388 0.0
H361 H 0.88692 0.28299 0.45909 0.0
H362 H 0.8831 0.18171 0.45747 0.0
C363 C 0.01539 0.19845 0.43564 0.0
C364 C 0.93385 0.68576 0.67601 0.0
C365 C 0.9178 0.7412 0.6816 0.0
H366 H -0.00033 0.62985 0.67925 0.0
C367 C 0.95562 0.78355 0.67644 0.0
H368 H 0.90539 0.6523 0.67932 0.0
C369 C 0.00947 0.77063 0.67624 0.0
C370 C 0.02546 0.71516 0.68173 0.0
H371 H 0.94361 0.82654 0.67942 0.0
H372 H 0.0379 0.80407 0.67974 0.0
C373 C -0.01232 0.67285 0.67632 0.0
C374 C 0.42267 0.70068 0.94888 0.0
C375 C 0.46945 0.66914 0.95012 0.0
H376 H 0.38854 0.78206 0.95029 0.0
C377 C 0.5183 0.69651 0.95015 0.0
H378 H 0.38434 0.68074 0.94918 0.0
C379 C 0.52054 0.7544 0.94984 0.0
C380 C 0.47379 0.78593 0.95045 0.0
H381 H 0.55474 0.67297 0.9515 0.0
H382 H 0.55894 0.77435 0.95091 0.0
C383 C 0.42491 0.75859 0.9495 0.0
C384 C 0.50874 0.68505 0.27934 0.0
C385 C 0.52458 0.74057 0.27383 0.0
H386 H 0.44307 0.62889 0.27627 0.0
C387 C 0.48667 0.78274 0.27927 0.0
H388 H 0.53729 0.65172 0.27584 0.0
C389 C 0.43286 0.76962 0.27962 0.0
C390 C 0.41701 0.71412 0.27407 0.0
H391 H 0.49857 0.82578 0.27641 0.0
H392 H 0.40432 0.80299 0.27631 0.0
C393 C 0.45494 0.67193 0.27923 0.0
C394 C 0.42597 0.19717 0.51545 0.0
C395 C 0.47455 0.16972 0.51065 0.0
H396 H 0.38568 0.27518 0.51843 0.0
C397 C 0.52131 0.20115 0.50729 0.0
H398 H 0.38961 0.17368 0.51808 0.0
C399 C 0.51916 0.25904 0.50668 0.0
C400 C 0.47049 0.28653 0.51036 0.0
H401 H 0.55943 0.18109 0.50316 0.0
H402 H 0.55536 0.28242 0.50194 0.0
C403 C 0.4239 0.2551 0.51572 0.0
C404 C 0.00862 0.18452 0.77855 0.0
C405 C 0.02559 0.23963 0.77277 0.0
H406 H 0.94184 0.12982 0.77529 0.0
C407 C -0.01148 0.28269 0.77772 0.0
H408 H 0.03653 0.15058 0.77532 0.0
C409 C 0.93447 0.27076 0.77811 0.0
C410 C 0.91751 0.2156 0.77285 0.0
H411 H 0.00128 0.32542 0.77439 0.0
H412 H 0.90659 0.30471 0.77451 0.0
C413 C 0.95457 0.17259 0.77824 0.0
C414 C 0.01829 0.75898 0.0054 0.0
C415 C 0.9695 0.78647 0.00495 0.0
H416 H 0.05866 0.68102 0.00538 0.0
C417 C 0.92263 0.75509 0.00604 0.0
H418 H 0.05473 0.78237 0.00419 0.0
C419 C 0.92469 0.69718 0.00577 0.0
C420 C -0.02652 0.6697 0.00534 0.0
H421 H 0.88429 0.77515 0.00537 0.0
H422 H 0.88825 0.67379 0.00484 0.0
C423 C 0.02035 0.70109 0.00606 0.0
C424 C 0.19626 0.43261 0.19042 0.0
C425 C 0.20037 0.41992 0.24715 0.0
H426 H 0.19815 0.49692 0.12893 0.0
C427 C 0.1968 0.46303 0.28618 0.0
H428 H 0.1978 0.4001 0.15944 0.0
C429 C 0.1964 0.5183 0.26868 0.0
C430 C 0.20048 0.53096 0.21196 0.0
H431 H 0.19841 0.45403 0.3302 0.0
H432 H 0.198 0.55086 0.29959 0.0
C433 C 0.19671 0.48789 0.17294 0.0
C434 C 0.69689 0.02183 0.76635 0.0
C435 C 0.70123 0.03471 0.70968 0.0
H436 H 0.69865 0.95733 0.82764 0.0
C437 C 0.69781 -0.00826 0.67049 0.0
H438 H 0.69819 0.05426 0.79743 0.0
C439 C 0.69741 0.93641 0.6878 0.0
C440 C 0.70133 0.92357 0.74449 0.0
H441 H 0.69949 0.00089 0.62651 0.0
H442 H 0.69913 0.90397 0.65677 0.0
C443 C 0.69736 0.9665 0.78365 0.0
C444 C 0.2372 0.42646 0.03361 0.0
C445 C 0.27503 0.43165 -0.00877 0.0
H446 H 0.15492 0.42972 0.05418 0.0
C447 C 0.25903 0.42604 0.93578 0.0
H448 H 0.24919 0.42945 0.07661 0.0
C449 C 0.2052 0.42634 0.92288 0.0
C450 C 0.16739 0.43173 0.96523 0.0
H451 H 0.2875 0.42937 0.9023 0.0
H452 H 0.19323 0.42925 0.87987 0.0
C453 C 0.18337 0.42624 0.0207 0.0
C454 C 0.74566 0.02218 0.18915 0.0
C455 C 0.74146 0.03484 0.24586 0.0
H456 H 0.74368 0.9579 0.12774 0.0
C457 C 0.7449 -0.00828 0.28495 0.0
H458 H 0.74434 0.05473 0.15814 0.0
C459 C 0.74514 0.93646 0.26752 0.0
C460 C 0.74106 0.92385 0.21082 0.0
H461 H 0.74333 0.00069 0.32895 0.0
H462 H 0.74343 0.90389 0.29849 0.0
C463 C 0.74505 0.96692 0.17174 0.0
C464 C 0.73768 0.02902 0.92208 0.0
C465 C 0.77555 0.0239 0.96432 0.0
H466 H 0.65537 0.02561 0.90178 0.0
C467 C 0.75959 0.02948 0.01982 0.0
H468 H 0.74964 0.02602 0.87905 0.0
C469 C 0.70576 0.02914 0.0329 0.0
C470 C 0.66791 0.02367 -0.00931 0.0
H471 H 0.78809 0.02622 0.05321 0.0
H472 H 0.6938 0.0263 0.07594 0.0
C473 C 0.68385 0.02914 0.93516 0.0
C474 C 0.2446 0.51897 0.68784 0.0
C475 C 0.24085 0.53174 0.74454 0.0
H476 H 0.24254 0.45457 0.62659 0.0
C477 C 0.24487 0.48875 0.78371 0.0
H478 H 0.24278 0.55146 0.65681 0.0
C479 C 0.2454 0.43345 0.76644 0.0
C480 C 0.24105 0.42062 0.70978 0.0
H481 H 0.24367 0.49787 0.82769 0.0
H482 H 0.24422 0.401 0.79755 0.0
C483 C 0.24426 0.46366 0.67056 0.0
C484 C 0.18429 0.52846 0.43454 0.0
C485 C 0.1672 0.52288 0.48966 0.0
H486 H 0.25118 0.52488 0.37991 0.0
C487 C 0.20419 0.5279 0.53275 0.0
H488 H 0.15644 0.52515 0.40056 0.0
C489 C 0.25827 0.52818 0.5209 0.0
C490 C 0.27535 0.52272 0.46576 0.0
H491 H 0.19135 0.52471 0.5755 0.0
H492 H 0.28608 0.52465 0.5549 0.0
C493 C 0.23837 0.52801 0.42267 0.0
C494 C 0.67429 0.69998 0.94648 0.0
C495 C 0.72316 0.69991 0.91906 0.0
H496 H 0.63367 0.70077 0.02438 0.0
C497 C 0.76992 0.69862 0.95061 0.0
H498 H 0.6379 0.70138 0.92295 0.0
C499 C 0.76765 0.69923 0.00852 0.0
C500 C 0.71879 0.70021 0.03591 0.0
H501 H 0.80827 0.69889 0.93064 0.0
H502 H 0.80406 0.69998 0.03201 0.0
C503 C 0.67202 0.69967 0.00439 0.0
C504 C 0.49574 0.51615 0.27196 0.0
C505 C 0.49136 0.4595 0.28484 0.0
H506 H 0.49399 0.57745 0.20747 0.0
C507 C 0.49469 0.42034 0.24183 0.0
H508 H 0.49451 0.54721 0.30441 0.0
C509 C 0.49508 0.43767 0.18648 0.0
C510 C 0.49123 0.49435 0.17367 0.0
H511 H 0.49298 0.37637 0.25096 0.0
H512 H 0.49332 0.40667 0.15402 0.0
C513 C 0.49524 0.53347 0.21662 0.0
C514 C 0.76752 0.26262 0.44695 0.0
C515 C 0.71876 0.26 0.41957 0.0
H516 H 0.80794 0.26393 0.52492 0.0
C517 C 0.67194 0.25881 0.45107 0.0
H518 H 0.80394 0.26338 0.42341 0.0
C519 C 0.67408 0.25829 0.50898 0.0
C520 C 0.72286 0.25987 0.53638 0.0
H521 H 0.63368 0.2564 0.43107 0.0
H522 H 0.63776 0.25541 0.53245 0.0
C523 C 0.76961 0.26297 0.50488 0.0
C524 C 0.94734 0.51662 0.68361 0.0
C525 C 0.95167 0.45998 0.67075 0.0
H526 H 0.9491 0.57784 0.74805 0.0
C527 C 0.94846 0.42076 0.7138 0.0
H528 H 0.9485 0.54772 0.65114 0.0
C529 C 0.94815 0.43802 0.76913 0.0
C530 C 0.95193 0.4947 0.78191 0.0
H531 H 0.95016 0.37681 0.70468 0.0
H532 H 0.94999 0.40698 0.80161 0.0
C533 C 0.94788 0.53387 0.73893 0.0
C534 C 0.73859 0.9277 0.53302 0.0
C535 C 0.77578 0.93296 0.49004 0.0
H536 H 0.65658 0.93062 0.55488 0.0
C537 C 0.759 0.92726 0.43486 0.0
H538 H 0.75119 0.9309 0.5758 0.0
C539 C 0.70498 0.92741 0.42282 0.0
C540 C 0.66776 0.93262 0.46577 0.0
H541 H 0.78698 0.93069 0.40094 0.0
H542 H 0.69237 0.93038 0.38002 0.0
C543 C 0.68457 0.92721 0.52097 0.0
loop_
_geom_bond_atom_site_label_1
_geom_bond_atom_site_label_2
_geom_bond_distance
_geom_bond_site_symmetry_2
_ccdc_geom_bond_type
C0 O1 1.306 . S
C0 O3 1.160 . S
O1 C0 1.306 . S
O1 Cd2 2.228 . S
Cd2 O1 2.228 . S
Cd2 O6 2.273 . S
Cd2 O10 2.277 . S
O3 C0 1.160 . S
O3 Cd4 2.203 . S
Cd4 O3 2.203 . S
Cd4 O6 2.411 . S
Cd4 O7 2.333 . S
Cd4 O8 2.352 . S
Cd4 O12 2.277 . S
Cd4 O13 2.356 . S
C5 O10 1.209 . S
C5 O12 1.226 . S
O6 Cd2 2.273 . S
O6 Cd4 2.411 . S
O6 C9 1.320 . S
O7 Cd4 2.333 . S
O7 C9 1.214 . S
O8 Cd4 2.352 . S
O8 C11 1.258 . S
C9 O6 1.320 . S
C9 O7 1.214 . S
O10 Cd2 2.277 . S
O10 C5 1.209 . S
C11 O8 1.258 . S
C11 O13 1.282 . S
O12 Cd4 2.277 . S
O12 C5 1.226 . S
O13 Cd4 2.356 . S
O13 C11 1.282 . S
C14 O15 1.306 1_565 S
C14 O17 1.160 . S
O15 C14 1.306 1_545 S
O15 Cd16 2.228 . S
Cd16 O15 2.228 . S
Cd16 O20 2.273 . S
Cd16 O24 2.277 . S
O17 C14 1.160 . S
O17 Cd18 2.203 1_565 S
Cd18 O17 2.203 1_545 S
Cd18 O20 2.411 . S
Cd18 O21 2.333 1_655 S
Cd18 O22 2.352 1_545 S
Cd18 O26 2.277 1_545 S
Cd18 O27 2.356 1_645 S
C19 O24 1.209 . S
C19 O26 1.226 1_545 S
O20 Cd16 2.273 . S
O20 Cd18 2.411 . S
O20 C23 1.320 1_655 S
O21 Cd18 2.333 1_455 S
O21 C23 1.214 . S
O22 Cd18 2.352 1_565 S
O22 C25 1.258 1_655 S
C23 O20 1.320 1_455 S
C23 O21 1.214 . S
O24 Cd16 2.277 . S
O24 C19 1.209 . S
C25 O22 1.258 1_455 S
C25 O27 1.282 . S
O26 Cd18 2.277 1_565 S
O26 C19 1.226 1_565 S
O27 Cd18 2.356 1_465 S
O27 C25 1.282 . S
C28 O29 1.306 . S
C28 O31 1.160 . S
O29 C28 1.306 . S
O29 Cd30 2.228 . S
Cd30 O29 2.228 . S
Cd30 O34 2.273 . S
Cd30 O38 2.277 . S
O31 C28 1.160 . S
O31 Cd32 2.203 . S
Cd32 O31 2.203 . S
Cd32 O34 2.411 . S
Cd32 O35 2.333 . S
Cd32 O36 2.352 . S
Cd32 O40 2.277 . S
Cd32 O41 2.356 . S
C33 O38 1.209 . S
C33 O40 1.226 . S
O34 Cd30 2.273 . S
O34 Cd32 2.411 . S
O34 C37 1.320 . S
O35 Cd32 2.333 . S
O35 C37 1.214 . S
O36 Cd32 2.352 . S
O36 C39 1.258 . S
C37 O34 1.320 . S
C37 O35 1.214 . S
O38 Cd30 2.277 . S
O38 C33 1.209 . S
C39 O36 1.258 . S
C39 O41 1.282 . S
O40 Cd32 2.277 . S
O40 C33 1.226 . S
O41 Cd32 2.356 . S
O41 C39 1.282 . S
C42 O43 1.306 1_546 S
C42 O45 1.160 . S
O43 C42 1.306 1_564 S
O43 Cd44 2.228 . S
Cd44 O43 2.228 . S
Cd44 O48 2.273 1_554 S
Cd44 O52 2.277 . S
O45 C42 1.160 . S
O45 Cd46 2.203 1_546 S
Cd46 O45 2.203 1_564 S
Cd46 O48 2.411 1_554 S
Cd46 O49 2.333 . S
Cd46 O50 2.352 1_564 S
Cd46 O54 2.277 1_565 S
Cd46 O55 2.356 1_564 S
C47 O52 1.209 . S
C47 O54 1.226 1_565 S
O48 Cd44 2.273 1_556 S
O48 Cd46 2.411 1_556 S
O48 C51 1.320 1_556 S
O49 Cd46 2.333 . S
O49 C51 1.214 . S
O50 Cd46 2.352 1_546 S
O50 C53 1.258 . S
C51 O48 1.320 1_554 S
C51 O49 1.214 . S
O52 Cd44 2.277 . S
O52 C47 1.209 . S
C53 O50 1.258 . S
C53 O55 1.282 . S
O54 Cd46 2.277 1_545 S
O54 C47 1.226 1_545 S
O55 Cd46 2.356 1_546 S
O55 C53 1.282 . S
C56 O57 1.306 . S
C56 O59 1.160 . S
O57 C56 1.306 . S
O57 Cd58 2.228 . S
Cd58 O57 2.228 . S
Cd58 O62 2.273 . S
Cd58 O66 2.277 . S
O59 C56 1.160 . S
O59 Cd60 2.203 . S
Cd60 O59 2.203 . S
Cd60 O62 2.411 . S
Cd60 O63 2.333 . S
Cd60 O64 2.352 . S
Cd60 O68 2.277 . S
Cd60 O69 2.356 . S
C61 O66 1.209 . S
C61 O68 1.226 . S
O62 Cd58 2.273 . S
O62 Cd60 2.411 . S
O62 C65 1.320 . S
O63 Cd60 2.333 . S
O63 C65 1.214 . S
O64 Cd60 2.352 . S
O64 C67 1.258 . S
C65 O62 1.320 . S
C65 O63 1.214 . S
O66 Cd58 2.277 . S
O66 C61 1.209 . S
C67 O64 1.258 . S
C67 O69 1.282 . S
O68 Cd60 2.277 . S
O68 C61 1.226 . S
O69 Cd60 2.356 . S
O69 C67 1.282 . S
C70 O71 1.306 1_565 S
C70 O73 1.160 . S
O71 C70 1.306 1_545 S
O71 Cd72 2.228 . S
Cd72 O71 2.228 . S
Cd72 O76 2.273 . S
Cd72 O80 2.277 . S
O73 C70 1.160 . S
O73 Cd74 2.203 1_565 S
Cd74 O73 2.203 1_545 S
Cd74 O76 2.411 . S
Cd74 O77 2.333 . S
Cd74 O78 2.352 1_545 S
Cd74 O82 2.277 1_545 S
Cd74 O83 2.356 1_545 S
C75 O80 1.209 . S
C75 O82 1.226 1_545 S
O76 Cd72 2.273 . S
O76 Cd74 2.411 . S
O76 C79 1.320 . S
O77 Cd74 2.333 . S
O77 C79 1.214 . S
O78 Cd74 2.352 1_565 S
O78 C81 1.258 . S
C79 O76 1.320 . S
C79 O77 1.214 . S
O80 Cd72 2.277 . S
O80 C75 1.209 . S
C81 O78 1.258 . S
C81 O83 1.282 . S
O82 Cd74 2.277 1_565 S
O82 C75 1.226 1_565 S
O83 Cd74 2.356 1_565 S
O83 C81 1.282 . S
C84 O85 1.306 . S
C84 O87 1.160 . S
O85 C84 1.306 . S
O85 Cd86 2.228 . S
Cd86 O85 2.228 . S
Cd86 O90 2.273 . S
Cd86 O94 2.277 . S
O87 C84 1.160 . S
O87 Cd88 2.203 . S
Cd88 O87 2.203 . S
Cd88 O90 2.411 . S
Cd88 O91 2.333 . S
Cd88 O92 2.352 . S
Cd88 O96 2.277 . S
Cd88 O97 2.356 . S
C89 O94 1.209 . S
C89 O96 1.226 . S
O90 Cd86 2.273 . S
O90 Cd88 2.411 . S
O90 C93 1.320 . S
O91 Cd88 2.333 . S
O91 C93 1.214 . S
O92 Cd88 2.352 . S
O92 C95 1.258 . S
C93 O90 1.320 . S
C93 O91 1.214 . S
O94 Cd86 2.277 . S
O94 C89 1.209 . S
C95 O92 1.258 . S
C95 O97 1.282 . S
O96 Cd88 2.277 . S
O96 C89 1.226 . S
O97 Cd88 2.356 . S
O97 C95 1.282 . S
C98 O99 1.306 1_544 S
C98 O101 1.160 . S
O99 C98 1.306 1_566 S
O99 Cd100 2.228 . S
Cd100 O99 2.228 . S
Cd100 O104 2.273 1_556 S
Cd100 O108 2.277 . S
O101 C98 1.160 . S
O101 Cd102 2.203 1_544 S
Cd102 O101 2.203 1_566 S
Cd102 O104 2.411 1_556 S
Cd102 O105 2.333 1_655 S
Cd102 O106 2.352 1_566 S
Cd102 O110 2.277 1_565 S
Cd102 O111 2.356 1_666 S
C103 O108 1.209 . S
C103 O110 1.226 1_565 S
O104 Cd100 2.273 1_554 S
O104 Cd102 2.411 1_554 S
O104 C107 1.320 1_654 S
O105 Cd102 2.333 1_455 S
O105 C107 1.214 . S
O106 Cd102 2.352 1_544 S
O106 C109 1.258 1_655 S
C107 O104 1.320 1_456 S
C107 O105 1.214 . S
O108 Cd100 2.277 . S
O108 C103 1.209 . S
C109 O106 1.258 1_455 S
C109 O111 1.282 . S
O110 Cd102 2.277 1_545 S
O110 C103 1.226 1_545 S
O111 Cd102 2.356 1_444 S
O111 C109 1.282 . S
C112 O113 1.306 . S
C112 O115 1.160 . S
O113 C112 1.306 . S
O113 Cd114 2.228 . S
Cd114 O113 2.228 . S
Cd114 O118 2.273 . S
Cd114 O122 2.277 . S
O115 C112 1.160 . S
O115 Cd116 2.203 . S
Cd116 O115 2.203 . S
Cd116 O118 2.411 . S
Cd116 O119 2.333 . S
Cd116 O120 2.352 . S
Cd116 O124 2.277 . S
Cd116 O125 2.356 . S
C117 O122 1.209 . S
C117 O124 1.226 . S
O118 Cd114 2.273 . S
O118 Cd116 2.411 . S
O118 C121 1.320 . S
O119 Cd116 2.333 . S
O119 C121 1.214 . S
O120 Cd116 2.352 . S
O120 C123 1.258 . S
C121 O118 1.320 . S
C121 O119 1.214 . S
O122 Cd114 2.277 . S
O122 C117 1.209 . S
C123 O120 1.258 . S
C123 O125 1.282 . S
O124 Cd116 2.277 . S
O124 C117 1.226 . S
O125 Cd116 2.356 . S
O125 C123 1.282 . S
C126 O127 1.306 1_554 S
C126 O129 1.160 . S
O127 C126 1.306 1_556 S
O127 Cd128 2.228 . S
Cd128 O127 2.228 . S
Cd128 O132 2.273 1_556 S
Cd128 O136 2.277 . S
O129 C126 1.160 . S
O129 Cd130 2.203 1_554 S
Cd130 O129 2.203 1_556 S
Cd130 O132 2.411 1_556 S
Cd130 O133 2.333 1_455 S
Cd130 O134 2.352 1_556 S
Cd130 O138 2.277 . S
Cd130 O139 2.356 1_456 S
C131 O136 1.209 . S
C131 O138 1.226 . S
O132 Cd128 2.273 1_554 S
O132 Cd130 2.411 1_554 S
O132 C135 1.320 1_454 S
O133 Cd130 2.333 1_655 S
O133 C135 1.214 . S
O134 Cd130 2.352 1_554 S
O134 C137 1.258 1_455 S
C135 O132 1.320 1_656 S
C135 O133 1.214 . S
O136 Cd128 2.277 . S
O136 C131 1.209 . S
C137 O134 1.258 1_655 S
C137 O139 1.282 . S
O138 Cd130 2.277 . S
O138 C131 1.226 . S
O139 Cd130 2.356 1_654 S
O139 C137 1.282 . S
C140 O141 1.306 . S
C140 O143 1.160 . S
O141 C140 1.306 . S
O141 Cd142 2.228 . S
Cd142 O141 2.228 . S
Cd142 O146 2.273 . S
Cd142 O150 2.277 . S
O143 C140 1.160 . S
O143 Cd144 2.203 . S
Cd144 O143 2.203 . S
Cd144 O146 2.411 . S
Cd144 O147 2.333 . S
Cd144 O148 2.352 . S
Cd144 O152 2.277 . S
Cd144 O153 2.356 . S
C145 O150 1.209 . S
C145 O152 1.226 . S
O146 Cd142 2.273 . S
O146 Cd144 2.411 . S
O146 C149 1.320 . S
O147 Cd144 2.333 . S
O147 C149 1.214 . S
O148 Cd144 2.352 . S
O148 C151 1.258 . S
C149 O146 1.320 . S
C149 O147 1.214 . S
O150 Cd142 2.277 . S
O150 C145 1.209 . S
C151 O148 1.258 . S
C151 O153 1.282 . S
O152 Cd144 2.277 . S
O152 C145 1.226 . S
O153 Cd144 2.356 . S
O153 C151 1.282 . S
C154 O155 1.306 . S
C154 O157 1.160 . S
O155 C154 1.306 . S
O155 Cd156 2.228 . S
Cd156 O155 2.228 . S
Cd156 O160 2.273 . S
Cd156 O164 2.277 . S
O157 C154 1.160 . S
O157 Cd158 2.203 . S
Cd158 O157 2.203 . S
Cd158 O160 2.411 . S
Cd158 O161 2.333 1_455 S
Cd158 O162 2.352 . S
Cd158 O166 2.277 . S
Cd158 O167 2.356 1_455 S
C159 O164 1.209 . S
C159 O166 1.226 . S
O160 Cd156 2.273 . S
O160 Cd158 2.411 . S
O160 C163 1.320 1_455 S
O161 Cd158 2.333 1_655 S
O161 C163 1.214 . S
O162 Cd158 2.352 . S
O162 C165 1.258 1_455 S
C163 O160 1.320 1_655 S
C163 O161 1.214 . S
O164 Cd156 2.277 . S
O164 C159 1.209 . S
C165 O162 1.258 1_655 S
C165 O167 1.282 . S
O166 Cd158 2.277 . S
O166 C159 1.226 . S
O167 Cd158 2.356 1_655 S
O167 C165 1.282 . S
C168 O169 1.306 1_556 S
C168 O171 1.160 . S
O169 C168 1.306 1_554 S
O169 Cd170 2.228 . S
Cd170 O169 2.228 . S
Cd170 O174 2.273 1_554 S
Cd170 O178 2.277 . S
O171 C168 1.160 . S
O171 Cd172 2.203 1_556 S
Cd172 O171 2.203 1_554 S
Cd172 O174 2.411 1_554 S
Cd172 O175 2.333 . S
Cd172 O176 2.352 1_554 S
Cd172 O180 2.277 . S
Cd172 O181 2.356 1_554 S
C173 O178 1.209 . S
C173 O180 1.226 . S
O174 Cd170 2.273 1_556 S
O174 Cd172 2.411 1_556 S
O174 C177 1.320 1_556 S
O175 Cd172 2.333 . S
O175 C177 1.214 . S
O176 Cd172 2.352 1_556 S
O176 C179 1.258 . S
C177 O174 1.320 1_554 S
C177 O175 1.214 . S
O178 Cd170 2.277 . S
O178 C173 1.209 . S
C179 O176 1.258 . S
C179 O181 1.282 . S
O180 Cd172 2.277 . S
O180 C173 1.226 . S
O181 Cd172 2.356 1_556 S
O181 C179 1.282 . S
C182 O183 1.306 . S
C182 O185 1.160 . S
O183 C182 1.306 . S
O183 Cd184 2.228 . S
Cd184 O183 2.228 . S
Cd184 O188 2.273 . S
Cd184 O192 2.277 . S
O185 C182 1.160 . S
O185 Cd186 2.203 . S
Cd186 O185 2.203 . S
Cd186 O188 2.411 . S
Cd186 O189 2.333 . S
Cd186 O190 2.352 . S
Cd186 O194 2.277 . S
Cd186 O195 2.356 . S
C187 O192 1.209 . S
C187 O194 1.226 . S
O188 Cd184 2.273 . S
O188 Cd186 2.411 . S
O188 C191 1.320 . S
O189 Cd186 2.333 . S
O189 C191 1.214 . S
O190 Cd186 2.352 . S
O190 C193 1.258 . S
C191 O188 1.320 . S
C191 O189 1.214 . S
O192 Cd184 2.277 . S
O192 C187 1.209 . S
C193 O190 1.258 . S
C193 O195 1.282 . S
O194 Cd186 2.277 . S
O194 C187 1.226 . S
O195 Cd186 2.356 . S
O195 C193 1.282 . S
C196 O197 1.306 . S
C196 O199 1.160 . S
O197 C196 1.306 . S
O197 Cd198 2.228 . S
Cd198 O197 2.228 . S
Cd198 O202 2.273 . S
Cd198 O206 2.277 . S
O199 C196 1.160 . S
O199 Cd200 2.203 . S
Cd200 O199 2.203 . S
Cd200 O202 2.411 . S
Cd200 O203 2.333 . S
Cd200 O204 2.352 . S
Cd200 O208 2.277 . S
Cd200 O209 2.356 . S
C201 O206 1.209 . S
C201 O208 1.226 . S
O202 Cd198 2.273 . S
O202 Cd200 2.411 . S
O202 C205 1.320 . S
O203 Cd200 2.333 . S
O203 C205 1.214 . S
O204 Cd200 2.352 . S
O204 C207 1.258 . S
C205 O202 1.320 . S
C205 O203 1.214 . S
O206 Cd198 2.277 . S
O206 C201 1.209 . S
C207 O204 1.258 . S
C207 O209 1.282 . S
O208 Cd200 2.277 . S
O208 C201 1.226 . S
O209 Cd200 2.356 . S
O209 C207 1.282 . S
C210 O211 1.306 . S
C210 O213 1.160 . S
O211 C210 1.306 . S
O211 Cd212 2.228 . S
Cd212 O211 2.228 . S
Cd212 O216 2.273 . S
Cd212 O220 2.277 . S
O213 C210 1.160 . S
O213 Cd214 2.203 . S
Cd214 O213 2.203 . S
Cd214 O216 2.411 . S
Cd214 O217 2.333 . S
Cd214 O218 2.352 . S
Cd214 O222 2.277 . S
Cd214 O223 2.356 . S
C215 O220 1.209 . S
C215 O222 1.226 . S
O216 Cd212 2.273 . S
O216 Cd214 2.411 . S
O216 C219 1.320 . S
O217 Cd214 2.333 . S
O217 C219 1.214 . S
O218 Cd214 2.352 . S
O218 C221 1.258 . S
C219 O216 1.320 . S
C219 O217 1.214 . S
O220 Cd212 2.277 . S
O220 C215 1.209 . S
C221 O218 1.258 . S
C221 O223 1.282 . S
O222 Cd214 2.277 . S
O222 C215 1.226 . S
O223 Cd214 2.356 . S
O223 C221 1.282 . S
C224 C225 1.387 . S
C224 H228 0.950 . S
C224 C233 1.390 . S
C225 C224 1.387 . S
C225 C227 1.387 . S
H226 C233 0.950 . S
C227 C225 1.387 . S
C227 C229 1.390 . S
C227 H231 0.950 . S
H228 C224 0.950 . S
C229 C227 1.390 . S
C229 C230 1.387 . S
C229 H232 0.950 . S
C230 C229 1.387 . S
C230 C233 1.387 . S
H231 C227 0.950 . S
H232 C229 0.950 . S
C233 C224 1.390 . S
C233 H226 0.950 . S
C233 C230 1.387 . S
C234 C235 1.387 . S
C234 H238 0.950 . S
C234 C243 1.390 . S
C235 C234 1.387 . S
C235 C237 1.387 . S
H236 C243 0.950 . S
C237 C235 1.387 . S
C237 C239 1.390 . S
C237 H241 0.950 . S
H238 C234 0.950 . S
C239 C237 1.390 . S
C239 C240 1.387 . S
C239 H242 0.950 . S
C240 C239 1.387 . S
C240 C243 1.387 . S
H241 C237 0.950 . S
H242 C239 0.950 . S
C243 C234 1.390 . S
C243 H236 0.950 . S
C243 C240 1.387 . S
C244 C245 1.387 . S
C244 H248 0.950 . S
C244 C253 1.390 . S
C245 C244 1.387 . S
C245 C247 1.387 . S
H246 C253 0.950 . S
C247 C245 1.387 . S
C247 C249 1.390 . S
C247 H251 0.950 . S
H248 C244 0.950 . S
C249 C247 1.390 . S
C249 C250 1.387 . S
C249 H252 0.950 . S
C250 C249 1.387 . S
C250 C253 1.387 . S
H251 C247 0.950 . S
H252 C249 0.950 . S
C253 C244 1.390 . S
C253 H246 0.950 . S
C253 C250 1.387 . S
C254 C255 1.387 . S
C254 H258 0.950 . S
C254 C263 1.390 . S
C255 C254 1.387 . S
C255 C257 1.387 . S
H256 C263 0.950 . S
C257 C255 1.387 . S
C257 C259 1.390 . S
C257 H261 0.950 . S
H258 C254 0.950 . S
C259 C257 1.390 . S
C259 C260 1.387 . S
C259 H262 0.950 . S
C260 C259 1.387 . S
C260 C263 1.387 . S
H261 C257 0.950 . S
H262 C259 0.950 . S
C263 C254 1.390 . S
C263 H256 0.950 . S
C263 C260 1.387 . S
C264 C265 1.387 . S
C264 H268 0.950 . S
C264 C273 1.390 . S
C265 C264 1.387 . S
C265 C267 1.387 . S
H266 C273 0.950 . S
C267 C265 1.387 . S
C267 C269 1.390 . S
C267 H271 0.950 . S
H268 C264 0.950 . S
C269 C267 1.390 . S
C269 C270 1.387 . S
C269 H272 0.950 . S
C270 C269 1.387 . S
C270 C273 1.387 . S
H271 C267 0.950 . S
H272 C269 0.950 . S
C273 C264 1.390 . S
C273 H266 0.950 . S
C273 C270 1.387 . S
C274 C275 1.387 . S
C274 H278 0.950 . S
C274 C283 1.390 . S
C275 C274 1.387 . S
C275 C277 1.387 . S
H276 C283 0.950 . S
C277 C275 1.387 . S
C277 C279 1.390 . S
C277 H281 0.950 . S
H278 C274 0.950 . S
C279 C277 1.390 . S
C279 C280 1.387 . S
C279 H282 0.950 . S
C280 C279 1.387 . S
C280 C283 1.387 . S
H281 C277 0.950 . S
H282 C279 0.950 . S
C283 C274 1.390 . S
C283 H276 0.950 . S
C283 C280 1.387 . S
C284 C285 1.387 . S
C284 H288 0.950 . S
C284 C293 1.390 . S
C285 C284 1.387 . S
C285 C287 1.387 . S
H286 C293 0.950 . S
C287 C285 1.387 . S
C287 C289 1.390 . S
C287 H291 0.950 . S
H288 C284 0.950 . S
C289 C287 1.390 . S
C289 C290 1.387 . S
C289 H292 0.950 . S
C290 C289 1.387 . S
C290 C293 1.387 . S
H291 C287 0.950 . S
H292 C289 0.950 . S
C293 C284 1.390 . S
C293 H286 0.950 . S
C293 C290 1.387 . S
C294 C295 1.387 . S
C294 H298 0.950 . S
C294 C303 1.390 . S
C295 C294 1.387 . S
C295 C297 1.387 . S
H296 C303 0.950 . S
C297 C295 1.387 . S
C297 C299 1.390 . S
C297 H301 0.950 . S
H298 C294 0.950 . S
C299 C297 1.390 . S
C299 C300 1.387 . S
C299 H302 0.950 . S
C300 C299 1.387 . S
C300 C303 1.387 . S
H301 C297 0.950 . S
H302 C299 0.950 . S
C303 C294 1.390 . S
C303 H296 0.950 . S
C303 C300 1.387 . S
C304 C305 1.387 . S
C304 H308 0.950 . S
C304 C313 1.390 . S
C305 C304 1.387 . S
C305 C307 1.387 . S
H306 C313 0.950 . S
C307 C305 1.387 . S
C307 C309 1.390 . S
C307 H311 0.950 . S
H308 C304 0.950 . S
C309 C307 1.390 . S
C309 C310 1.387 . S
C309 H312 0.950 . S
C310 C309 1.387 . S
C310 C313 1.387 . S
H311 C307 0.950 . S
H312 C309 0.950 . S
C313 C304 1.390 . S
C313 H306 0.950 . S
C313 C310 1.387 . S
C314 C315 1.387 . S
C314 H318 0.950 . S
C314 C323 1.390 1_565 S
C315 C314 1.387 . S
C315 C317 1.387 1_655 S
H316 C323 0.950 . S
C317 C315 1.387 1_455 S
C317 C319 1.390 1_565 S
C317 H321 0.950 . S
H318 C314 0.950 . S
C319 C317 1.390 1_545 S
C319 C320 1.387 1_455 S
C319 H322 0.950 . S
C320 C319 1.387 1_655 S
C320 C323 1.387 . S
H321 C317 0.950 . S
H322 C319 0.950 . S
C323 C314 1.390 1_545 S
C323 H316 0.950 . S
C323 C320 1.387 . S
C324 C325 1.387 . S
C324 H328 0.950 . S
C324 C333 1.390 1_556 S
C325 C324 1.387 . S
C325 C327 1.387 . S
H326 C333 0.950 . S
C327 C325 1.387 . S
C327 C329 1.390 1_556 S
C327 H331 0.950 . S
H328 C324 0.950 . S
C329 C327 1.390 1_554 S
C329 C330 1.387 . S
C329 H332 0.950 . S
C330 C329 1.387 . S
C330 C333 1.387 . S
H331 C327 0.950 . S
H332 C329 0.950 . S
C333 C324 1.390 1_554 S
C333 H326 0.950 . S
C333 C330 1.387 . S
C334 C335 1.387 . S
C334 H338 0.950 . S
C334 C343 1.390 1_545 S
C335 C334 1.387 . S
C335 C337 1.387 . S
H336 C343 0.950 . S
C337 C335 1.387 . S
C337 C339 1.390 1_545 S
C337 H341 0.950 . S
H338 C334 0.950 . S
C339 C337 1.390 1_565 S
C339 C340 1.387 . S
C339 H342 0.950 . S
C340 C339 1.387 . S
C340 C343 1.387 . S
H341 C337 0.950 . S
H342 C339 0.950 . S
C343 C334 1.390 1_565 S
C343 H336 0.950 . S
C343 C340 1.387 . S
C344 C345 1.387 . S
C344 H348 0.950 . S
C344 C353 1.390 . S
C345 C344 1.387 . S
C345 C347 1.387 . S
H346 C353 0.950 . S
C347 C345 1.387 . S
C347 C349 1.390 . S
C347 H351 0.950 . S
H348 C344 0.950 . S
C349 C347 1.390 . S
C349 C350 1.387 . S
C349 H352 0.950 . S
C350 C349 1.387 . S
C350 C353 1.387 . S
H351 C347 0.950 . S
H352 C349 0.950 . S
C353 C344 1.390 . S
C353 H346 0.950 . S
C353 C350 1.387 . S
C354 C355 1.387 . S
C354 H358 0.950 . S
C354 C363 1.390 1_655 S
C355 C354 1.387 . S
C355 C357 1.387 . S
H356 C363 0.950 . S
C357 C355 1.387 . S
C357 C359 1.390 1_655 S
C357 H361 0.950 . S
H358 C354 0.950 . S
C359 C357 1.390 1_455 S
C359 C360 1.387 . S
C359 H362 0.950 . S
C360 C359 1.387 . S
C360 C363 1.387 . S
H361 C357 0.950 . S
H362 C359 0.950 . S
C363 C354 1.390 1_455 S
C363 H356 0.950 . S
C363 C360 1.387 . S
C364 C365 1.387 . S
C364 H368 0.950 . S
C364 C373 1.390 1_655 S
C365 C364 1.387 . S
C365 C367 1.387 . S
H366 C373 0.950 . S
C367 C365 1.387 . S
C367 C369 1.390 1_655 S
C367 H371 0.950 . S
H368 C364 0.950 . S
C369 C367 1.390 1_455 S
C369 C370 1.387 . S
C369 H372 0.950 . S
C370 C369 1.387 . S
C370 C373 1.387 . S
H371 C367 0.950 . S
H372 C369 0.950 . S
C373 C364 1.390 1_455 S
C373 H366 0.950 . S
C373 C370 1.387 . S
C374 C375 1.387 . S
C374 H378 0.950 . S
C374 C383 1.390 . S
C375 C374 1.387 . S
C375 C377 1.387 1_554 S
H376 C383 0.950 . S
C377 C375 1.387 1_556 S
C377 C379 1.390 . S
C377 H381 0.950 . S
H378 C374 0.950 . S
C379 C377 1.390 . S
C379 C380 1.387 1_556 S
C379 H382 0.950 . S
C380 C379 1.387 1_554 S
C380 C383 1.387 . S
H381 C377 0.950 . S
H382 C379 0.950 . S
C383 C374 1.390 . S
C383 H376 0.950 . S
C383 C380 1.387 . S
C384 C385 1.387 . S
C384 H388 0.950 . S
C384 C393 1.390 . S
C385 C384 1.387 . S
C385 C387 1.387 . S
H386 C393 0.950 . S
C387 C385 1.387 . S
C387 C389 1.390 . S
C387 H391 0.950 . S
H388 C384 0.950 . S
C389 C387 1.390 . S
C389 C390 1.387 . S
C389 H392 0.950 . S
C390 C389 1.387 . S
C390 C393 1.387 . S
H391 C387 0.950 . S
H392 C389 0.950 . S
C393 C384 1.390 . S
C393 H386 0.950 . S
C393 C390 1.387 . S
C394 C395 1.387 . S
C394 H398 0.950 . S
C394 C403 1.390 . S
C395 C394 1.387 . S
C395 C397 1.387 . S
H396 C403 0.950 . S
C397 C395 1.387 . S
C397 C399 1.390 . S
C397 H401 0.950 . S
H398 C394 0.950 . S
C399 C397 1.390 . S
C399 C400 1.387 . S
C399 H402 0.950 . S
C400 C399 1.387 . S
C400 C403 1.387 . S
H401 C397 0.950 . S
H402 C399 0.950 . S
C403 C394 1.390 . S
C403 H396 0.950 . S
C403 C400 1.387 . S
C404 C405 1.387 . S
C404 H408 0.950 . S
C404 C413 1.390 1_455 S
C405 C404 1.387 . S
C405 C407 1.387 . S
H406 C413 0.950 . S
C407 C405 1.387 . S
C407 C409 1.390 1_455 S
C407 H411 0.950 . S
H408 C404 0.950 . S
C409 C407 1.390 1_655 S
C409 C410 1.387 . S
C409 H412 0.950 . S
C410 C409 1.387 . S
C410 C413 1.387 . S
H411 C407 0.950 . S
H412 C409 0.950 . S
C413 C404 1.390 1_655 S
C413 H406 0.950 . S
C413 C410 1.387 . S
C414 C415 1.387 1_554 S
C414 H418 0.950 . S
C414 C423 1.390 1_455 S
C415 C414 1.387 1_556 S
C415 C417 1.387 . S
H416 C423 0.950 . S
C417 C415 1.387 . S
C417 C419 1.390 1_455 S
C417 H421 0.950 . S
H418 C414 0.950 . S
C419 C417 1.390 1_655 S
C419 C420 1.387 . S
C419 H422 0.950 . S
C420 C419 1.387 . S
C420 C423 1.387 1_556 S
H421 C417 0.950 . S
H422 C419 0.950 . S
C423 C414 1.390 1_655 S
C423 H416 0.950 . S
C423 C420 1.387 1_554 S
C424 C425 1.387 . S
C424 H428 0.950 . S
C424 C433 1.390 . S
C425 C424 1.387 . S
C425 C427 1.387 . S
H426 C433 0.950 . S
C427 C425 1.387 . S
C427 C429 1.390 . S
C427 H431 0.950 . S
H428 C424 0.950 . S
C429 C427 1.390 . S
C429 C430 1.387 . S
C429 H432 0.950 . S
C430 C429 1.387 . S
C430 C433 1.387 . S
H431 C427 0.950 . S
H432 C429 0.950 . S
C433 C424 1.390 . S
C433 H426 0.950 . S
C433 C430 1.387 . S
C434 C435 1.387 . S
C434 H438 0.950 . S
C434 C443 1.390 1_545 S
C435 C434 1.387 . S
C435 C437 1.387 . S
H436 C443 0.950 . S
C437 C435 1.387 . S
C437 C439 1.390 1_545 S
C437 H441 0.950 . S
H438 C434 0.950 . S
C439 C437 1.390 1_565 S
C439 C440 1.387 . S
C439 H442 0.950 . S
C440 C439 1.387 . S
C440 C443 1.387 . S
H441 C437 0.950 . S
H442 C439 0.950 . S
C443 C434 1.390 1_565 S
C443 H436 0.950 . S
C443 C440 1.387 . S
C444 C445 1.387 . S
C444 H448 0.950 . S
C444 C453 1.390 1_556 S
C445 C444 1.387 . S
C445 C447 1.387 . S
H446 C453 0.950 . S
C447 C445 1.387 . S
C447 C449 1.390 1_556 S
C447 H451 0.950 . S
H448 C444 0.950 . S
C449 C447 1.390 1_554 S
C449 C450 1.387 . S
C449 H452 0.950 . S
C450 C449 1.387 . S
C450 C453 1.387 . S
H451 C447 0.950 . S
H452 C449 0.950 . S
C453 C444 1.390 1_554 S
C453 H446 0.950 . S
C453 C450 1.387 . S
C454 C455 1.387 . S
C454 H458 0.950 . S
C454 C463 1.390 1_545 S
C455 C454 1.387 . S
C455 C457 1.387 . S
H456 C463 0.950 . S
C457 C455 1.387 . S
C457 C459 1.390 1_545 S
C457 H461 0.950 . S
H458 C454 0.950 . S
C459 C457 1.390 1_565 S
C459 C460 1.387 . S
C459 H462 0.950 . S
C460 C459 1.387 . S
C460 C463 1.387 . S
H461 C457 0.950 . S
H462 C459 0.950 . S
C463 C454 1.390 1_565 S
C463 H456 0.950 . S
C463 C460 1.387 . S
C464 C465 1.387 . S
C464 H468 0.950 . S
C464 C473 1.390 1_554 S
C465 C464 1.387 . S
C465 C467 1.387 1_545 S
H466 C473 0.950 . S
C467 C465 1.387 1_565 S
C467 C469 1.390 1_554 S
C467 H471 0.950 . S
H468 C464 0.950 . S
C469 C467 1.390 1_556 S
C469 C470 1.387 1_565 S
C469 H472 0.950 . S
C470 C469 1.387 1_545 S
C470 C473 1.387 . S
H471 C467 0.950 . S
H472 C469 0.950 . S
C473 C464 1.390 1_556 S
C473 H466 0.950 . S
C473 C470 1.387 . S
C474 C475 1.387 . S
C474 H478 0.950 . S
C474 C483 1.390 . S
C475 C474 1.387 . S
C475 C477 1.387 . S
H476 C483 0.950 . S
C477 C475 1.387 . S
C477 C479 1.390 . S
C477 H481 0.950 . S
H478 C474 0.950 . S
C479 C477 1.390 . S
C479 C480 1.387 . S
C479 H482 0.950 . S
C480 C479 1.387 . S
C480 C483 1.387 . S
H481 C477 0.950 . S
H482 C479 0.950 . S
C483 C474 1.390 . S
C483 H476 0.950 . S
C483 C480 1.387 . S
C484 C485 1.387 . S
C484 H488 0.950 . S
C484 C493 1.390 . S
C485 C484 1.387 . S
C485 C487 1.387 . S
H486 C493 0.950 . S
C487 C485 1.387 . S
C487 C489 1.390 . S
C487 H491 0.950 . S
H488 C484 0.950 . S
C489 C487 1.390 . S
C489 C490 1.387 . S
C489 H492 0.950 . S
C490 C489 1.387 . S
C490 C493 1.387 . S
H491 C487 0.950 . S
H492 C489 0.950 . S
C493 C484 1.390 . S
C493 H486 0.950 . S
C493 C490 1.387 . S
C494 C495 1.387 . S
C494 H498 0.950 . S
C494 C503 1.390 1_556 S
C495 C494 1.387 . S
C495 C497 1.387 . S
H496 C503 0.950 . S
C497 C495 1.387 . S
C497 C499 1.390 1_556 S
C497 H501 0.950 . S
H498 C494 0.950 . S
C499 C497 1.390 1_554 S
C499 C500 1.387 . S
C499 H502 0.950 . S
C500 C499 1.387 . S
C500 C503 1.387 . S
H501 C497 0.950 . S
H502 C499 0.950 . S
C503 C494 1.390 1_554 S
C503 H496 0.950 . S
C503 C500 1.387 . S
C504 C505 1.387 . S
C504 H508 0.950 . S
C504 C513 1.390 . S
C505 C504 1.387 . S
C505 C507 1.387 . S
H506 C513 0.950 . S
C507 C505 1.387 . S
C507 C509 1.390 . S
C507 H511 0.950 . S
H508 C504 0.950 . S
C509 C507 1.390 . S
C509 C510 1.387 . S
C509 H512 0.950 . S
C510 C509 1.387 . S
C510 C513 1.387 . S
H511 C507 0.950 . S
H512 C509 0.950 . S
C513 C504 1.390 . S
C513 H506 0.950 . S
C513 C510 1.387 . S
C514 C515 1.387 . S
C514 H518 0.950 . S
C514 C523 1.390 . S
C515 C514 1.387 . S
C515 C517 1.387 . S
H516 C523 0.950 . S
C517 C515 1.387 . S
C517 C519 1.390 . S
C517 H521 0.950 . S
H518 C514 0.950 . S
C519 C517 1.390 . S
C519 C520 1.387 . S
C519 H522 0.950 . S
C520 C519 1.387 . S
C520 C523 1.387 . S
H521 C517 0.950 . S
H522 C519 0.950 . S
C523 C514 1.390 . S
C523 H516 0.950 . S
C523 C520 1.387 . S
C524 C525 1.387 . S
C524 H528 0.950 . S
C524 C533 1.390 . S
C525 C524 1.387 . S
C525 C527 1.387 1_455 S
H526 C533 0.950 . S
C527 C525 1.387 1_655 S
C527 C529 1.390 . S
C527 H531 0.950 . S
H528 C524 0.950 . S
C529 C527 1.390 . S
C529 C530 1.387 1_655 S
C529 H532 0.950 . S
C530 C529 1.387 1_455 S
C530 C533 1.387 . S
H531 C527 0.950 . S
H532 C529 0.950 . S
C533 C524 1.390 . S
C533 H526 0.950 . S
C533 C530 1.387 . S
C534 C535 1.387 . S
C534 H538 0.950 . S
C534 C543 1.390 . S
C535 C534 1.387 . S
C535 C537 1.387 1_565 S
H536 C543 0.950 . S
C537 C535 1.387 1_545 S
C537 C539 1.390 . S
C537 H541 0.950 . S
H538 C534 0.950 . S
C539 C537 1.390 . S
C539 C540 1.387 1_545 S
C539 H542 0.950 . S
C540 C539 1.387 1_565 S
C540 C543 1.387 . S
H541 C537 0.950 . S
H542 C539 0.950 . S
C543 C534 1.390 . S
C543 H536 0.950 . S
C543 C540 1.387 . S
C225 C11 1.760 . S
C230 C109 1.760 . S
C235 C25 1.760 . S
C240 C67 1.760 . S
C245 C81 1.760 . S
C250 C39 1.760 . S
C255 C53 1.757 . S
C260 C95 1.757 . S
C265 C123 1.760 . S
C270 C179 1.760 . S
C275 C137 1.757 . S
C280 C207 1.758 . S
C285 C165 1.759 . S
C290 C151 1.760 . S
C295 C221 1.759 . S
C300 C193 1.760 . S
C305 C9 1.653 . S
C310 C93 1.653 . S
C315 C103 1.356 . S
C320 C19 1.356 . S
C325 C37 1.655 . S
C330 C65 1.655 . S
C335 C75 1.356 . S
C340 C47 1.356 . S
C345 C0 1.075 . S
C350 C196 1.075 . S
C355 C163 1.655 . S
C360 C23 1.655 . S
C365 C182 1.075 . S
C370 C28 1.075 . S
C375 C177 1.653 . S
C380 C51 1.653 . S
C385 C140 1.079 . S
C390 C56 1.079 . S
C395 C79 1.653 . S
C400 C219 1.653 . S
C405 C84 1.075 . S
C410 C112 1.075 . S
C415 C107 1.655 . S
C420 C135 1.655 . S
C425 C5 1.356 . S
C430 C61 1.356 . S
C435 C117 1.355 . S
C440 C187 1.355 . S
C445 C168 1.075 . S
C450 C126 1.075 . S
C455 C201 1.355 . S
C460 C145 1.355 . S
C465 C98 1.079 . S
C470 C42 1.079 . S
C475 C33 1.355 . S
C480 C89 1.355 . S
C485 C154 1.079 . S
C490 C210 1.079 . S
C495 C191 1.655 . S
C500 C149 1.655 . S
C505 C215 1.356 . S
C510 C173 1.356 . S
C515 C205 1.655 . S
C520 C121 1.655 . S
C525 C159 1.356 . S
C530 C131 1.356 . S
C535 C14 1.079 . S
C540 C70 1.079 . S
