# Generated by pormake.
# Topology uko, (4)-cn, num edge types: 1
# Building blocks:
#     Node 0, Type 0, BuildingBlock: QUQFOY_clean_sbu_1, # of connection points: 4
#     Node 1, Type 0, BuildingBlock: QUQFOY_clean_sbu_1, # of connection points: 4
#     Node 2, Type 0, BuildingBlock: QUQFOY_clean_sbu_1, # of connection points: 4
#     Node 3, Type 0, BuildingBlock: QUQFOY_clean_sbu_1, # of connection points: 4
#     Node 4, Type 0, BuildingBlock: QUQFOY_clean_sbu_1, # of connection points: 4
#     Node 5, Type 0, BuildingBlock: QUQFOY_clean_sbu_1, # of connection points: 4
#     Node 6, Type 0, BuildingBlock: QUQFOY_clean_sbu_1, # of connection points: 4
#     Node 7, Type 0, BuildingBlock: QUQFOY_clean_sbu_1, # of connection points: 4
#     Node 8, Type 0, BuildingBlock: QUQFOY_clean_sbu_1, # of connection points: 4
#     Node 9, Type 0, BuildingBlock: QUQFOY_clean_sbu_1, # of connection points: 4
#     Node 10, Type 0, BuildingBlock: QUQFOY_clean_sbu_1, # of connection points: 4
#     Node 11, Type 0, BuildingBlock: QUQFOY_clean_sbu_1, # of connection points: 4
#     Node 12, Type 0, BuildingBlock: QUQFOY_clean_sbu_1, # of connection points: 4
#     Node 13, Type 0, BuildingBlock: QUQFOY_clean_sbu_1, # of connection points: 4
#     Node 14, Type 0, BuildingBlock: QUQFOY_clean_sbu_1, # of connection points: 4
#     Node 15, Type 0, BuildingBlock: QUQFOY_clean_sbu_1, # of connection points: 4
#     Node 16, Type 0, BuildingBlock: QUQFOY_clean_sbu_1, # of connection points: 4
#     Node 17, Type 0, BuildingBlock: QUQFOY_clean_sbu_1, # of connection points: 4
#     Node 18, Type 0, BuildingBlock: QUQFOY_clean_sbu_1, # of connection points: 4
#     Node 19, Type 0, BuildingBlock: QUQFOY_clean_sbu_1, # of connection points: 4
#     Node 20, Type 0, BuildingBlock: QUQFOY_clean_sbu_1, # of connection points: 4
#     Node 21, Type 0, BuildingBlock: QUQFOY_clean_sbu_1, # of connection points: 4
#     Node 22, Type 0, BuildingBlock: QUQFOY_clean_sbu_1, # of connection points: 4
#     Node 23, Type 0, BuildingBlock: QUQFOY_clean_sbu_1, # of connection points: 4
#     Node 24, Type 0, BuildingBlock: QUQFOY_clean_sbu_1, # of connection points: 4
#     Node 25, Type 0, BuildingBlock: QUQFOY_clean_sbu_1, # of connection points: 4
#     Node 26, Type 0, BuildingBlock: QUQFOY_clean_sbu_1, # of connection points: 4
#     Node 27, Type 0, BuildingBlock: QUQFOY_clean_sbu_1, # of connection points: 4
#     Node 28, Type 0, BuildingBlock: QUQFOY_clean_sbu_1, # of connection points: 4
#     Node 29, Type 0, BuildingBlock: QUQFOY_clean_sbu_1, # of connection points: 4
#     Node 30, Type 0, BuildingBlock: QUQFOY_clean_sbu_1, # of connection points: 4
#     Node 31, Type 0, BuildingBlock: QUQFOY_clean_sbu_1, # of connection points: 4
#     Node 32, Type 0, BuildingBlock: QUQFOY_clean_sbu_1, # of connection points: 4
#     Node 33, Type 0, BuildingBlock: QUQFOY_clean_sbu_1, # of connection points: 4
#     Node 34, Type 0, BuildingBlock: QUQFOY_clean_sbu_1, # of connection points: 4
#     Node 35, Type 0, BuildingBlock: QUQFOY_clean_sbu_1, # of connection points: 4
#     Node 36, Type 0, BuildingBlock: QUQFOY_clean_sbu_1, # of connection points: 4
#     Node 37, Type 0, BuildingBlock: QUQFOY_clean_sbu_1, # of connection points: 4
#     Node 38, Type 0, BuildingBlock: QUQFOY_clean_sbu_1, # of connection points: 4
#     Node 39, Type 0, BuildingBlock: QUQFOY_clean_sbu_1, # of connection points: 4
#     Node 40, Type 0, BuildingBlock: QUQFOY_clean_sbu_1, # of connection points: 4
#     Node 41, Type 0, BuildingBlock: QUQFOY_clean_sbu_1, # of connection points: 4
#     Node 42, Type 0, BuildingBlock: QUQFOY_clean_sbu_1, # of connection points: 4
#     Node 43, Type 0, BuildingBlock: QUQFOY_clean_sbu_1, # of connection points: 4
#     Node 44, Type 0, BuildingBlock: QUQFOY_clean_sbu_1, # of connection points: 4
#     Node 45, Type 0, BuildingBlock: QUQFOY_clean_sbu_1, # of connection points: 4
#     Node 46, Type 0, BuildingBlock: QUQFOY_clean_sbu_1, # of connection points: 4
#     Node 47, Type 0, BuildingBlock: QUQFOY_clean_sbu_1, # of connection points: 4
#     Edge 48, Type (0, 0), None
#     Edge 49, Type (0, 0), None
#     Edge 50, Type (0, 0), None
#     Edge 51, Type (0, 0), None
#     Edge 52, Type (0, 0), None
#     Edge 53, Type (0, 0), None
#     Edge 54, Type (0, 0), None
#     Edge 55, Type (0, 0), None
#     Edge 56, Type (0, 0), None
#     Edge 57, Type (0, 0), None
#     Edge 58, Type (0, 0), None
#     Edge 59, Type (0, 0), None
#     Edge 60, Type (0, 0), None
#     Edge 61, Type (0, 0), None
#     Edge 62, Type (0, 0), None
#     Edge 63, Type (0, 0), None
#     Edge 64, Type (0, 0), None
#     Edge 65, Type (0, 0), None
#     Edge 66, Type (0, 0), None
#     Edge 67, Type (0, 0), None
#     Edge 68, Type (0, 0), None
#     Edge 69, Type (0, 0), None
#     Edge 70, Type (0, 0), None
#     Edge 71, Type (0, 0), None
#     Edge 72, Type (0, 0), None
#     Edge 73, Type (0, 0), None
#     Edge 74, Type (0, 0), None
#     Edge 75, Type (0, 0), None
#     Edge 76, Type (0, 0), None
#     Edge 77, Type (0, 0), None
#     Edge 78, Type (0, 0), None
#     Edge 79, Type (0, 0), None
#     Edge 80, Type (0, 0), None
#     Edge 81, Type (0, 0), None
#     Edge 82, Type (0, 0), None
#     Edge 83, Type (0, 0), None
#     Edge 84, Type (0, 0), None
#     Edge 85, Type (0, 0), None
#     Edge 86, Type (0, 0), None
#     Edge 87, Type (0, 0), None
#     Edge 88, Type (0, 0), None
#     Edge 89, Type (0, 0), None
#     Edge 90, Type (0, 0), None
#     Edge 91, Type (0, 0), None
#     Edge 92, Type (0, 0), None
#     Edge 93, Type (0, 0), None
#     Edge 94, Type (0, 0), None
#     Edge 95, Type (0, 0), None
#     Edge 96, Type (0, 0), None
#     Edge 97, Type (0, 0), None
#     Edge 98, Type (0, 0), None
#     Edge 99, Type (0, 0), None
#     Edge 100, Type (0, 0), None
#     Edge 101, Type (0, 0), None
#     Edge 102, Type (0, 0), None
#     Edge 103, Type (0, 0), None
#     Edge 104, Type (0, 0), None
#     Edge 105, Type (0, 0), None
#     Edge 106, Type (0, 0), None
#     Edge 107, Type (0, 0), None
#     Edge 108, Type (0, 0), None
#     Edge 109, Type (0, 0), None
#     Edge 110, Type (0, 0), None
#     Edge 111, Type (0, 0), None
#     Edge 112, Type (0, 0), None
#     Edge 113, Type (0, 0), None
#     Edge 114, Type (0, 0), None
#     Edge 115, Type (0, 0), None
#     Edge 116, Type (0, 0), None
#     Edge 117, Type (0, 0), None
#     Edge 118, Type (0, 0), None
#     Edge 119, Type (0, 0), None
#     Edge 120, Type (0, 0), None
#     Edge 121, Type (0, 0), None
#     Edge 122, Type (0, 0), None
#     Edge 123, Type (0, 0), None
#     Edge 124, Type (0, 0), None
#     Edge 125, Type (0, 0), None
#     Edge 126, Type (0, 0), None
#     Edge 127, Type (0, 0), None
#     Edge 128, Type (0, 0), None
#     Edge 129, Type (0, 0), None
#     Edge 130, Type (0, 0), None
#     Edge 131, Type (0, 0), None
#     Edge 132, Type (0, 0), None
#     Edge 133, Type (0, 0), None
#     Edge 134, Type (0, 0), None
#     Edge 135, Type (0, 0), None
#     Edge 136, Type (0, 0), None
#     Edge 137, Type (0, 0), None
#     Edge 138, Type (0, 0), None
#     Edge 139, Type (0, 0), None
#     Edge 140, Type (0, 0), None
#     Edge 141, Type (0, 0), None
#     Edge 142, Type (0, 0), None
#     Edge 143, Type (0, 0), None
# Relax obj value: 0.213
# Max RMSD: 0.093
# Mean RMSD: 0.093
data_MOF--net-uko--node1-QUQFOY_clean_sbu_1--edge1-none
_symmetry_space_group_name_H-M    P1
_symmetry_Int_Tables_number       1
_symmetry_cell_setting            triclinic
loop_
_symmetry_equiv_pos_as_xyz
'x, y, z'
_cell_length_a     25.453432
_cell_length_b     25.579829
_cell_length_c     25.474005
_cell_angle_alpha  90.136063
_cell_angle_beta   90.917953
_cell_angle_gamma 89.100554
loop_
_atom_site_label
_atom_site_type_symbol
_atom_site_fract_x
_atom_site_fract_y
_atom_site_fract_z
_atom_type_partial_charge
O0 O 0.038 0.38157 0.34931 0.0
Cd1 Cd 0.98154 0.38453 0.29191 0.0
Cd2 Cd 0.06725 0.42338 0.22456 0.0
O3 O 0.09853 0.38208 0.28837 0.0
O4 O 0.94381 0.31561 0.28682 0.0
O5 O 1.00897 0.33613 0.2347 0.0
C6 C 0.9783 0.30078 0.25271 0.0
C7 C 0.13327 0.45356 0.1754 0.0
C8 C 0.08516 0.37424 0.33541 0.0
C9 C 0.97009 0.48195 0.23843 0.0
O10 O 0.99217 0.45045 0.20687 0.0
O11 O 0.95407 0.46222 0.28063 0.0
O12 O 0.11443 0.48119 0.2131 0.0
O13 O 0.11221 0.40934 0.16356 0.0
O14 O 0.05183 0.18414 0.35432 0.0
Cd15 Cd 0.02971 0.16435 0.27924 0.0
Cd16 Cd 0.98214 0.09045 0.35222 0.0
O17 O 0.98154 0.15651 0.39533 0.0
O18 O 0.03954 0.22972 0.23497 0.0
O19 O 0.96364 0.2096 0.26954 0.0
C20 C 0.99233 0.24414 0.24752 0.0
C21 C 0.91421 0.07419 0.29356 0.0
C22 C 1.01685 0.19025 0.38904 0.0
C23 C 0.04911 0.04496 0.28541 0.0
O24 O 0.05239 0.05584 0.33376 0.0
O25 O 0.03607 0.08271 0.25412 0.0
O26 O 0.9187 0.04688 0.33596 0.0
O27 O 0.94554 0.112 0.28688 0.0
O28 O 0.99292 0.67884 0.18006 0.0
Cd29 Cd 0.99079 0.65394 0.25666 0.0
Cd30 Cd 0.07161 0.60573 0.22951 0.0
O31 O 0.07903 0.67259 0.18595 0.0
O32 O 0.95928 0.71595 0.2954 0.0
O33 O 0.04474 0.69979 0.29285 0.0
C34 C 1.00679 0.73243 0.3024 0.0
C35 C 0.12696 0.57887 0.29671 0.0
C36 C 0.03797 0.69266 0.16498 0.0
C37 C 0.98554 0.53803 0.23657 0.0
O38 O 1.0209 0.54974 0.20439 0.0
O39 O 0.9712 0.57266 0.27033 0.0
O40 O 0.14014 0.57271 0.24839 0.0
O41 O 0.08409 0.60406 0.30716 0.0
O42 O 0.98982 0.87075 0.19312 0.0
Cd43 Cd 1.0195 0.87563 0.26885 0.0
Cd44 Cd 0.93685 0.9269 0.28099 0.0
O45 O 0.9098 0.88125 0.22243 0.0
O46 O 0.05923 0.80751 0.28281 0.0
O47 O 0.9791 0.82289 0.31152 0.0
C48 C 1.01693 0.78971 0.30345 0.0
C49 C 0.88881 0.93144 0.35736 0.0
C50 C 0.94044 0.86736 0.18636 0.0
C51 C 0.02898 0.99177 0.27372 0.0
O52 O 0.9816 0.9892 0.25831 0.0
O53 O 0.05147 0.94999 0.29137 0.0
O54 O 0.87261 0.95307 0.3146 0.0
O55 O 0.93306 0.90623 0.35776 0.0
O56 O 0.33944 1.01435 0.2899 0.0
Cd57 Cd 0.26312 0.02184 0.31655 0.0
Cd58 Cd 0.31678 0.08934 0.37352 0.0
O59 O 0.3573 0.09638 0.30736 0.0
O60 O 0.2194 0.9874 0.26066 0.0
O61 O 0.23148 0.07294 0.26472 0.0
C62 C 0.21768 0.03244 0.23749 0.0
C63 C 0.26918 0.15804 0.40615 0.0
C64 C 0.3645 0.05569 0.28005 0.0
C65 C 0.28032 1.01325 0.43261 0.0
O66 O 0.32592 0.02284 0.41714 0.0
O67 O 0.2431 1.01804 0.39841 0.0
O68 O 0.31799 0.15143 0.41954 0.0
O69 O 0.24764 0.12601 0.37328 0.0
O70 O 0.6772 0.50027 0.41629 0.0
Cd71 Cd 0.75057 0.53152 0.42153 0.0
Cd72 Cd 0.76951 0.45098 0.47037 0.0
O73 O 0.71258 0.42117 0.42143 0.0
O74 O 0.7637 0.56174 0.34831 0.0
O75 O 0.79256 0.48372 0.37237 0.0
C76 C 0.78352 0.51667 0.33493 0.0
C77 C 0.85449 0.41644 0.48098 0.0
C78 C 0.67387 0.45115 0.40974 0.0
C79 C 0.74662 0.54048 0.53812 0.0
O80 O 0.73775 0.49277 0.5303 0.0
O81 O 0.7638 0.56727 0.49945 0.0
O82 O 0.81439 0.39383 0.50029 0.0
O83 O 0.84699 0.45856 0.45413 0.0
O84 O 0.33561 0.98318 0.12121 0.0
Cd85 Cd 0.264 1.01695 0.09979 0.0
Cd86 Cd 0.2668 0.93128 0.04858 0.0
O87 O 0.31197 0.90185 0.10803 0.0
O88 O 0.2484 0.06935 0.15727 0.0
O89 O 0.2108 0.99226 0.15227 0.0
C90 C 0.22069 0.03383 0.17935 0.0
C91 C 0.18296 0.90147 0.03311 0.0
C92 C 0.34228 0.93448 0.12958 0.0
C93 C 0.28102 1.01969 0.98479 0.0
O94 O 0.3035 0.97647 0.99503 0.0
O95 O 0.25175 0.04041 1.01988 0.0
O96 O 0.22325 0.8781 1.01325 0.0
O97 O 0.19008 0.94242 0.06182 0.0
O98 O 0.66214 0.49388 0.21254 0.0
Cd99 Cd 0.73747 0.47364 0.19899 0.0
Cd100 Cd 0.74717 0.57968 0.15321 0.0
O101 O 0.68106 0.57732 0.19979 0.0
O102 O 0.77162 0.44971 0.26818 0.0
O103 O 0.77471 0.53126 0.24088 0.0
C104 C 0.78102 0.49832 0.27889 0.0
C105 C 0.77517 0.65602 0.12264 0.0
C106 C 0.65088 0.5422 0.21673 0.0
C107 C 0.77823 0.49041 0.09773 0.0
O108 O 0.79757 0.5209 0.13159 0.0
O109 O 0.74818 0.45658 0.11639 0.0
O110 O 0.7412 0.62982 0.09569 0.0
O111 O 0.78936 0.64066 0.16911 0.0
O112 O 0.42135 0.37342 0.04288 0.0
Cd113 Cd 0.43626 0.29744 1.02106 0.0
Cd114 Cd 0.48677 0.30254 0.10493 0.0
O115 O 0.42161 0.34612 0.12431 0.0
O116 O 0.37089 0.2691 0.98316 0.0
O117 O 0.3861 0.25719 0.06759 0.0
C118 C 0.35369 0.25448 0.02835 0.0
C119 C 0.50471 0.21628 0.12818 0.0
C120 C 0.40601 0.37879 0.08986 0.0
C121 C 0.55465 0.30749 0.02441 0.0
O122 O 0.54207 0.33836 0.06108 0.0
O123 O 0.51829 0.27806 1.00568 0.0
O124 O 0.5165 0.25438 0.15919 0.0
O125 O 0.47974 0.22662 0.08518 0.0
O126 O 0.32102 0.67966 0.5334 0.0
Cd127 Cd 0.32235 0.75052 0.56716 0.0
Cd128 Cd 0.36662 0.78772 0.46433 0.0
O129 O 0.33206 0.71511 0.45507 0.0
O130 O 0.252 0.76462 0.60135 0.0
O131 O 0.26941 0.79136 0.52108 0.0
C132 C 0.23477 0.78311 0.55676 0.0
C133 C 0.39997 0.82283 0.39088 0.0
C134 C 0.32052 0.67647 0.48375 0.0
C135 C 0.42213 0.80119 0.56036 0.0
O136 O 0.38944 0.82575 0.53138 0.0
O137 O 0.40259 0.76607 0.58858 0.0
O138 O 0.42709 0.78987 0.41859 0.0
O139 O 0.35265 0.83509 0.4045 0.0
O140 O 0.6223 0.85155 0.53456 0.0
Cd141 Cd 0.59691 0.77621 0.54107 0.0
Cd142 Cd 0.54889 0.79613 0.45757 0.0
O143 O 0.61685 0.83924 0.44947 0.0
O144 O 0.66103 0.73624 0.57087 0.0
O145 O 0.642 0.7393 0.48632 0.0
C146 C 0.67602 0.72884 0.52296 0.0
C147 C 0.53077 0.71989 0.41134 0.0
C148 C 0.63728 0.86268 0.48861 0.0
C149 C 0.47844 0.79872 0.54314 0.0
O150 O 0.48947 0.82494 0.50266 0.0
O151 O 0.51403 0.76767 0.56267 0.0
O152 O 0.52418 0.76518 0.38992 0.0
O153 O 0.54946 0.71733 0.4585 0.0
O154 O 0.11044 0.66506 0.54075 0.0
Cd155 Cd 0.09297 0.74134 0.52736 0.0
Cd156 Cd 0.04507 0.73096 0.60958 0.0
O157 O 0.10993 0.68346 0.6252 0.0
O158 O 0.16023 0.772 0.49613 0.0
O159 O 0.14339 0.77649 0.58044 0.0
C160 C 0.17699 0.78157 0.54353 0.0
C161 C 0.02987 0.81696 0.63564 0.0
C162 C 0.12565 0.65501 0.58739 0.0
C163 C 0.97454 0.7214 0.52571 0.0
O164 O 0.98756 0.69685 0.56698 0.0
O165 O 1.00877 0.75159 0.50494 0.0
O166 O 1.01962 0.77854 0.66644 0.0
O167 O 0.05002 0.80687 0.59075 0.0
O168 O 1.00426 0.67988 0.71713 0.0
Cd169 Cd 0.06795 0.68021 0.7678 0.0
Cd170 Cd 0.97115 0.61029 0.82474 0.0
O171 O 0.93995 0.63456 0.75368 0.0
O172 O 0.10543 0.74771 0.75845 0.0
O173 O 0.05 0.73417 0.82321 0.0
C174 C 0.07701 0.76665 0.79599 0.0
C175 C 0.90979 0.59076 0.88539 0.0
C176 C 0.95764 0.66246 0.7169 0.0
C177 C 0.07929 0.58053 0.80692 0.0
O178 O 0.05048 0.60887 0.83605 0.0
O179 O 0.10644 0.60565 0.77459 0.0
O180 O 0.93153 0.55437 0.85771 0.0
O181 O 0.92624 0.63817 0.88167 0.0
O182 O 0.99628 0.88208 0.69142 0.0
Cd183 Cd 0.02767 0.90308 0.76273 0.0
Cd184 Cd 0.07918 0.96609 0.68657 0.0
O185 O 0.06801 0.89814 0.64702 0.0
O186 O 1.0198 0.84128 0.8128 0.0
O187 O 0.09173 0.85452 0.76813 0.0
C188 C 0.06475 0.82372 0.79668 0.0
C189 C 0.15396 0.97659 0.73885 0.0
C190 C 0.02802 0.87038 0.65499 0.0
C191 C 1.01766 0.02308 0.75133 0.0
O192 O 1.01539 1.01202 0.70299 0.0
O193 O 0.02803 0.98561 0.78381 0.0
O194 O 0.1505 0.99973 0.69397 0.0
O195 O 0.1163 0.94766 0.75271 0.0
O196 O 0.0516 0.38598 0.85261 0.0
Cd197 Cd 0.06657 0.41128 0.77742 0.0
Cd198 Cd 0.9764 0.45072 0.78639 0.0
O199 O 0.96653 0.39023 0.83603 0.0
O200 O 0.10566 0.35087 0.74402 0.0
O201 O 1.02065 0.36625 0.73094 0.0
C202 C 0.06035 0.33417 0.72793 0.0
C203 C 0.90604 0.47479 0.73421 0.0
C204 C 1.00487 0.3733 0.86347 0.0
C205 C 0.06266 0.52578 0.79571 0.0
O206 O 1.01863 0.5127 0.81317 0.0
O207 O 0.08949 0.49199 0.76976 0.0
O208 O 0.90597 0.48235 0.78397 0.0
O209 O 0.9458 0.45157 0.71312 0.0
O210 O 0.07214 0.20058 0.83811 0.0
Cd211 Cd 0.04891 0.19196 0.76093 0.0
Cd212 Cd 0.13025 0.13666 0.76077 0.0
O213 O 0.15491 0.18684 0.81781 0.0
O214 O 1.00825 0.25811 0.74248 0.0
O215 O 0.09082 0.24449 0.71989 0.0
C216 C 0.05157 0.27678 0.72492 0.0
C217 C 0.17704 0.11971 0.68494 0.0
C218 C 0.12076 0.20366 0.84955 0.0
C219 C 0.03699 0.07614 0.76336 0.0
O220 O 0.08176 0.0786 0.78536 0.0
O221 O 1.01875 0.11691 0.73963 0.0
O222 O 0.19175 0.10152 0.72986 0.0
O223 O 0.13646 0.15057 0.6826 0.0
O224 O 0.7098 1.01576 0.74339 0.0
Cd225 Cd 0.78452 1.00072 0.71661 0.0
Cd226 Cd 0.73286 0.93406 0.66412 0.0
O227 O 0.6917 0.93283 0.73116 0.0
O228 O 0.83254 0.02202 0.77619 0.0
O229 O 0.80789 0.94044 0.76259 0.0
C230 C 0.8274 0.97505 0.79416 0.0
C231 C 0.77864 0.86306 0.63223 0.0
C232 C 0.68401 0.97549 0.75535 0.0
C233 C 0.76528 1.01136 0.60002 0.0
O234 O 0.72082 0.9957 0.61382 0.0
O235 O 0.80253 1.00885 0.63456 0.0
O236 O 0.72872 0.86839 0.62349 0.0
O237 O 0.80259 0.89724 0.66083 0.0
O238 O 0.35382 0.50556 0.64084 0.0
Cd239 Cd 0.29059 0.4595 0.63855 0.0
Cd240 Cd 0.23299 0.55496 0.60206 0.0
O241 O 0.30984 0.57891 0.62108 0.0
O242 O 0.28253 0.42566 0.70976 0.0
O243 O 0.23997 0.49817 0.68618 0.0
C244 C 0.25494 0.46651 0.72321 0.0
C245 C 0.16743 0.61643 0.59505 0.0
C246 C 0.35213 0.55481 0.63484 0.0
C247 C 0.23754 0.46037 0.53987 0.0
O248 O 0.20939 0.48366 0.57333 0.0
O249 O 0.27744 0.43666 0.55873 0.0
O250 O 0.19756 0.60546 0.55632 0.0
O251 O 0.17595 0.59383 0.63975 0.0
O252 O 0.72234 0.03478 0.91588 0.0
Cd253 Cd 0.78114 0.98258 0.93122 0.0
Cd254 Cd 0.83981 0.07956 0.96758 0.0
O255 O 0.77545 0.10249 0.91858 0.0
O256 O 0.78964 0.93461 0.86929 0.0
O257 O 0.83988 1.00341 0.88377 0.0
C258 C 0.82346 0.96749 0.85182 0.0
C259 C 0.89359 0.14629 0.99608 0.0
C260 C 0.73146 0.08233 0.90607 0.0
C261 C 0.8241 0.9853 0.0345 0.0
O262 O 0.8566 1.00895 1.00592 0.0
O263 O 0.78583 0.96375 1.01133 0.0
O264 O 0.85216 0.13375 1.02123 0.0
O265 O 0.9044 0.12145 0.9533 0.0
O266 O 0.37118 0.52731 0.83843 0.0
Cd267 Cd 0.29322 0.51941 0.85736 0.0
Cd268 Cd 0.3454 0.46576 0.93121 0.0
O269 O 0.39629 0.45169 0.87276 0.0
O270 O 0.25062 0.53362 0.79027 0.0
O271 O 0.27331 0.45404 0.81575 0.0
C272 C 0.25504 0.48433 0.77911 0.0
C273 C 0.28214 0.40825 0.95695 0.0
C274 C 0.40219 0.48776 0.83954 0.0
C275 C 0.29821 0.54703 0.9752 0.0
O276 O 0.34615 0.53691 0.96765 0.0
O277 O 0.26643 0.53824 0.9364 0.0
O278 O 0.32773 0.40858 0.97986 0.0
O279 O 0.27364 0.43813 0.91718 0.0
O280 O 0.61855 0.67719 0.02561 0.0
Cd281 Cd 0.58959 0.75121 0.03729 0.0
Cd282 Cd 0.54891 0.73771 0.94923 0.0
O283 O 0.61934 0.69705 0.94178 0.0
O284 O 0.64738 0.79119 0.07645 0.0
O285 O 0.63677 0.79399 0.99054 0.0
C286 C 0.66572 0.80388 0.03111 0.0
C287 C 0.53049 0.82079 0.91683 0.0
C288 C 0.63666 0.66964 0.98 0.0
C289 C 0.47354 0.72538 0.02546 0.0
O290 O 0.48992 0.70109 0.98549 0.0
O291 O 0.50497 0.75649 0.04985 0.0
O292 O 0.52714 0.78021 0.88683 0.0
O293 O 0.54489 0.8146 0.96498 0.0
O294 O 0.72112 0.34813 0.52462 0.0
Cd295 Cd 0.72283 0.28378 0.47888 0.0
Cd296 Cd 0.67049 0.23409 0.57519 0.0
O297 O 0.69637 0.30674 0.59629 0.0
O298 O 0.79263 0.27804 0.44498 0.0
O299 O 0.77334 0.23558 0.51809 0.0
C300 C 0.80854 0.25182 0.48598 0.0
C301 C 0.64241 0.19385 0.64769 0.0
C302 C 0.71331 0.34691 0.57363 0.0
C303 C 0.62493 0.23493 0.47087 0.0
O304 O 0.65449 0.20735 0.50071 0.0
O305 O 0.64779 0.27001 0.44536 0.0
O306 O 0.61072 0.22246 0.61977 0.0
O307 O 0.68943 0.18399 0.63143 0.0
O308 O 0.42742 0.19139 0.49251 0.0
Cd309 Cd 0.45334 0.26581 0.47955 0.0
Cd310 Cd 0.49467 0.25267 0.56981 0.0
O311 O 0.42802 0.20906 0.57695 0.0
O312 O 0.39328 0.30184 0.4393 0.0
O313 O 0.4062 0.31105 0.52466 0.0
C314 C 0.37537 0.31687 0.48433 0.0
C315 C 0.51116 0.32592 0.62057 0.0
C316 C 0.41119 0.18223 0.53844 0.0
C317 C 0.56898 0.24245 0.48607 0.0
O318 O 0.55532 0.22127 0.52848 0.0
O319 O 0.53577 0.2721 0.46135 0.0
O320 O 0.51936 0.27956 0.63912 0.0
O321 O 0.49291 0.33101 0.57338 0.0
O322 O 0.9212 0.37496 0.53053 0.0
Cd323 Cd 0.94341 0.29793 0.53064 0.0
Cd324 Cd 0.99213 0.32312 0.45112 0.0
O325 O 0.92505 0.36985 0.44454 0.0
O326 O 0.87944 0.2543 0.55103 0.0
O327 O 0.89773 0.27212 0.4691 0.0
C328 C 0.86484 0.2545 0.50207 0.0
C329 C 1.00917 0.24109 0.41323 0.0
C330 C 0.90586 0.39085 0.48546 0.0
C331 C 0.06406 0.31164 0.52814 0.0
O332 O 0.05052 0.34959 0.49895 0.0
O333 O 0.02777 0.2801 0.54191 0.0
O334 O 1.01639 0.28371 0.38766 0.0
O335 O 0.98888 0.24423 0.45867 0.0
O336 O 0.49136 0.88451 0.86211 0.0
Cd337 Cd 0.51118 0.91029 0.7891 0.0
Cd338 Cd 0.57834 0.9671 0.85691 0.0
O339 O 0.57082 0.89826 0.89527 0.0
O340 O 0.49766 0.8509 0.73592 0.0
O341 O 0.57429 0.86211 0.77484 0.0
C342 C 0.54452 0.83299 0.74642 0.0
C343 C 0.64333 0.97695 0.7945 0.0
C344 C 0.52851 0.87263 0.89414 0.0
C345 C 0.50847 0.03084 0.80901 0.0
O346 O 0.51499 1.01664 0.8561 0.0
O347 O 0.51004 0.99475 0.77354 0.0
O348 O 0.65047 0.99536 0.84123 0.0
O349 O 0.60053 0.95372 0.78407 0.0
O350 O 0.50551 0.68173 0.82138 0.0
Cd351 Cd 0.55781 0.68792 0.76255 0.0
Cd352 Cd 0.45938 0.62852 0.70386 0.0
O353 O 0.43477 0.6534 0.7777 0.0
O354 O 0.59412 0.75617 0.77166 0.0
O355 O 0.52798 0.74485 0.71504 0.0
C356 C 0.5584 0.77649 0.74067 0.0
C357 C 0.39647 0.58411 0.65601 0.0
C358 C 0.45699 0.67085 0.81921 0.0
C359 C 0.56899 0.59112 0.71248 0.0
O360 O 0.53761 0.61987 0.6854 0.0
O361 O 0.59513 0.61465 0.74774 0.0
O362 O 0.42672 0.56158 0.6901 0.0
O363 O 0.40274 0.63328 0.64697 0.0
O364 O 0.57831 0.18145 0.71077 0.0
Cd365 Cd 0.55435 0.19254 0.78622 0.0
Cd366 Cd 0.63684 0.13328 0.80054 0.0
O367 O 0.66115 0.16981 0.73495 0.0
O368 O 0.51422 0.26139 0.7855 0.0
O369 O 0.5948 0.25366 0.81831 0.0
C370 C 0.55614 0.28383 0.80325 0.0
C371 C 0.69797 0.10741 0.86592 0.0
C372 C 0.62663 0.1785 0.69952 0.0
C373 C 0.53321 0.08141 0.79748 0.0
O374 O 0.58067 0.07837 0.7835 0.0
O375 O 0.51522 0.12536 0.81419 0.0
O376 O 0.69887 0.08902 0.81912 0.0
O377 O 0.66354 0.14331 0.87631 0.0
O378 O 0.56257 0.38829 0.66585 0.0
Cd379 Cd 0.57089 0.4174 0.74107 0.0
Cd380 Cd 0.48319 0.45599 0.72162 0.0
O381 O 0.47739 0.38805 0.67927 0.0
O382 O 0.60892 0.35949 0.78321 0.0
O383 O 0.52286 0.36996 0.78204 0.0
C384 C 0.56319 0.34092 0.79371 0.0
C385 C 0.43472 0.47708 0.79452 0.0
C386 C 0.51709 0.37121 0.65456 0.0
C387 C 0.55902 0.53363 0.71592 0.0
O388 O 0.52126 0.51639 0.68854 0.0
O389 O 0.58233 0.5022 0.74856 0.0
O390 O 0.41427 0.48002 0.74799 0.0
O391 O 0.48217 0.4596 0.80029 0.0
O392 O 0.85063 0.5316 0.921 0.0
Cd393 Cd 0.77241 0.51559 0.92372 0.0
Cd394 Cd 0.76726 0.59841 0.97148 0.0
O395 O 0.82929 0.61531 0.92379 0.0
O396 O 0.75113 0.4877 0.85019 0.0
O397 O 0.74009 0.57001 0.87285 0.0
C398 C 0.74009 0.53538 0.83604 0.0
C399 C 0.68649 0.64171 0.97506 0.0
C400 C 0.86261 0.5791 0.91422 0.0
C401 C 0.77361 0.51052 0.04233 0.0
O402 O 0.78955 0.55658 0.03562 0.0
O403 O 0.75369 0.48615 1.00253 0.0
O404 O 0.72888 0.66287 0.99252 0.0
O405 O 0.68945 0.59619 0.95355 0.0
O406 O 0.21675 0.02309 0.7898 0.0
Cd407 Cd 0.29382 0.02453 0.81678 0.0
Cd408 Cd 0.25545 0.94635 0.86279 0.0
O409 O 0.21754 0.93754 0.79319 0.0
O410 O 0.33336 0.06265 0.76236 0.0
O411 O 0.33135 0.97609 0.76768 0.0
C412 C 0.34044 1.01747 0.74025 0.0
C413 C 0.29654 0.87686 0.90442 0.0
C414 C 0.19985 0.97953 0.77315 0.0
C415 C 0.27212 0.02969 0.92856 0.0
O416 O 0.23196 1.008 0.90943 0.0
O417 O 0.31136 0.03345 0.89825 0.0
O418 O 0.24623 0.88321 0.90551 0.0
O419 O 0.3241 0.90925 0.87795 0.0
O420 O 0.85235 0.54161 0.70201 0.0
Cd421 Cd 0.77848 0.57006 0.69618 0.0
Cd422 Cd 0.75473 0.46314 0.65047 0.0
O423 O 0.82597 0.45973 0.69166 0.0
O424 O 0.75682 0.59856 0.76742 0.0
O425 O 0.73867 0.51824 0.74156 0.0
C426 C 0.74144 0.55199 0.77944 0.0
C427 C 0.72968 0.39073 0.60558 0.0
C428 C 0.86111 0.4927 0.70375 0.0
C429 C 0.73656 0.5598 0.59307 0.0
O430 O 0.71448 0.52878 0.62422 0.0
O431 O 0.76541 0.59314 0.61551 0.0
O432 O 0.76673 0.41966 0.58926 0.0
O433 O 0.70929 0.40029 0.6508 0.0
O434 O 0.21556 0.05696 0.62954 0.0
Cd435 Cd 0.28757 0.02833 0.60477 0.0
Cd436 Cd 0.28206 0.11542 0.55674 0.0
O437 O 0.23512 0.13922 0.61699 0.0
O438 O 0.31041 0.97708 0.66087 0.0
O439 O 0.34199 0.0568 0.65516 0.0
C440 C 0.33651 1.01474 0.68233 0.0
C441 C 0.36234 0.15434 0.54421 0.0
C442 C 0.20729 0.10525 0.6388 0.0
C443 C 0.27101 0.02694 0.48809 0.0
O444 O 0.25035 0.07151 0.49653 0.0
O445 O 0.29772 1.00498 0.52515 0.0
O446 O 0.31914 0.17598 0.52797 0.0
O447 O 0.3605 0.11035 0.56859 0.0
O448 O 0.81442 0.8263 0.5568 0.0
Cd449 Cd 0.81784 0.76309 0.50913 0.0
Cd450 Cd 0.86714 0.71471 0.61116 0.0
O451 O 0.81933 0.77949 0.63032 0.0
O452 O 0.74889 0.75472 0.47051 0.0
O453 O 0.76833 0.71295 0.54458 0.0
C454 C 0.73312 0.72778 0.51022 0.0
C455 C 0.92156 0.68129 0.6759 0.0
C456 C 0.80776 0.82166 0.60581 0.0
C457 C 0.91797 0.71756 0.50887 0.0
O458 O 0.88736 0.69069 0.53662 0.0
O459 O 0.89558 0.75238 0.48103 0.0
O460 O 0.93301 0.72278 0.65035 0.0
O461 O 0.87704 0.6593 0.66637 0.0
O462 O 0.92482 0.20122 0.06304 0.0
Cd463 Cd 0.9428 0.2716 0.09498 0.0
Cd464 Cd 0.98062 0.29432 0.98263 0.0
O465 O 0.94313 0.22182 0.98035 0.0
O466 O 0.87816 0.30176 0.13033 0.0
O467 O 0.8992 0.32036 0.04868 0.0
C468 C 0.86428 0.32096 0.08502 0.0
C469 C 0.99432 0.34056 0.90837 0.0
C470 C 0.92442 0.19075 1.0142 0.0
C471 C 0.04358 0.30992 0.07482 0.0
O472 O 1.00898 0.33305 0.04704 0.0
O473 O 0.02578 0.27946 0.10901 0.0
O474 O 0.02885 0.30678 0.92479 0.0
O475 O 0.9501 0.34521 0.93233 0.0
O476 O 0.23052 0.3667 1.02077 0.0
Cd477 Cd 0.213 0.29194 0.04294 0.0
Cd478 Cd 0.16191 0.2951 0.9565 0.0
O479 O 0.22224 0.3424 0.9385 0.0
O480 O 0.27843 0.26923 0.08236 0.0
O481 O 0.26269 0.24731 0.9995 0.0
C482 C 0.29612 0.25192 0.03806 0.0
C483 C 0.13681 0.23774 0.89203 0.0
C484 C 0.2421 0.37206 0.97282 0.0
C485 C 0.09732 0.30318 0.05234 0.0
O486 O 0.10338 0.31985 1.00602 0.0
O487 O 0.13628 0.28043 0.07578 0.0
O488 O 0.12504 0.28669 0.88895 0.0
O489 O 0.1642 0.22073 0.93169 0.0
O490 O 0.73483 0.21113 0.06048 0.0
Cd491 Cd 0.72448 0.29109 0.04971 0.0
Cd492 Cd 0.66116 0.2724 0.12002 0.0
O493 O 0.71769 0.2227 0.14396 0.0
O494 O 0.79286 0.31796 1.02204 0.0
O495 O 0.77171 0.323 0.1058 0.0
C496 C 0.80742 0.32593 0.07034 0.0
C497 C 0.61751 0.32495 0.17846 0.0
C498 C 0.73712 0.19524 0.10776 0.0
C499 C 0.60986 0.28866 0.02727 0.0
O500 O 0.61717 0.24916 0.05614 0.0
O501 O 0.648 0.32073 0.02506 0.0
O502 O 0.6134 0.27495 0.17902 0.0
O503 O 0.64969 0.34605 0.14639 0.0
O504 O 0.54839 0.15212 0.17903 0.0
Cd505 Cd 0.52733 0.13567 0.25456 0.0
Cd506 Cd 0.47125 0.06466 0.1794 0.0
O507 O 0.47474 0.13153 0.13751 0.0
O508 O 0.53992 0.20073 0.30002 0.0
O509 O 0.46305 0.18355 0.26378 0.0
C510 C 0.49269 0.21651 0.28778 0.0
C511 C 0.40428 0.05736 0.23994 0.0
C512 C 0.51267 0.16242 0.14487 0.0
C513 C 0.53841 1.01514 0.24711 0.0
O514 O 0.53936 0.02526 0.19855 0.0
O515 O 0.52957 0.05363 0.27875 0.0
O516 O 0.40278 0.02995 0.19752 0.0
O517 O 0.44152 0.0895 0.24593 0.0
O518 O 0.53545 0.36049 0.19783 0.0
Cd519 Cd 0.48014 0.3591 0.25389 0.0
Cd520 Cd 0.56554 0.39881 0.32556 0.0
O521 O 0.59759 0.363 0.25931 0.0
O522 O 0.44354 0.28998 0.2525 0.0
O523 O 0.50888 0.30759 0.30804 0.0
C524 C 0.47861 0.27329 0.28625 0.0
C525 C 0.62951 0.43095 0.38002 0.0
C526 C 0.58326 0.35575 0.21189 0.0
C527 C 0.4649 0.45529 0.30909 0.0
O528 O 0.48966 0.42527 0.34088 0.0
O529 O 0.4492 0.43488 0.26649 0.0
O530 O 0.60997 0.45829 0.34195 0.0
O531 O 0.61166 0.38478 0.38839 0.0
O532 O 0.47125 0.84648 0.33826 0.0
Cd533 Cd 0.50172 0.8483 0.26377 0.0
Cd534 Cd 0.42206 0.90296 0.25063 0.0
O535 O 0.39114 0.85829 0.30676 0.0
O536 O 0.54163 0.78024 0.25506 0.0
O537 O 0.46213 0.79395 0.22106 0.0
C538 C 0.49973 0.76131 0.23322 0.0
C539 C 0.37315 0.91902 0.17545 0.0
C540 C 0.4218 0.84412 0.34359 0.0
C541 C 0.51692 0.96303 0.25965 0.0
O542 O 0.47028 0.96239 0.27607 0.0
O543 O 0.53646 0.92051 0.24098 0.0
O544 O 0.3604 0.93839 0.22006 0.0
O545 O 0.41332 0.88777 0.17297 0.0
O546 O 0.47836 0.65949 0.36422 0.0
Cd547 Cd 0.47455 0.62917 0.28884 0.0
Cd548 Cd 0.55585 0.58404 0.31895 0.0
O549 O 0.56426 0.65123 0.36087 0.0
O550 O 0.44235 0.68799 0.24467 0.0
O551 O 0.52782 0.67296 0.2512 0.0
C552 C 0.4897 0.70428 0.23782 0.0
C553 C 0.61282 0.55795 0.2553 0.0
C554 C 0.52388 0.67282 0.38012 0.0
C555 C 0.47517 0.51259 0.3123 0.0
O556 O 0.50907 0.52691 0.34599 0.0
O557 O 0.45945 0.54592 0.27745 0.0
O558 O 0.62513 0.55354 0.30439 0.0
O559 O 0.56871 0.5797 0.24171 0.0
O560 O 0.19417 0.51611 0.14795 0.0
Cd561 Cd 0.27286 0.53419 0.14718 0.0
Cd562 Cd 0.27776 0.45214 0.09961 0.0
O563 O 0.21644 0.43273 0.14403 0.0
O564 O 0.29194 0.56856 0.21742 0.0
O565 O 0.30627 0.48493 0.20133 0.0
C566 C 0.30446 0.5225 0.23515 0.0
C567 C 0.35699 0.40696 0.09784 0.0
C568 C 0.18241 0.4682 0.15247 0.0
C569 C 0.28052 0.53571 0.02922 0.0
O570 O 0.25595 0.4936 0.03439 0.0
O571 O 0.30228 0.55552 0.07051 0.0
O572 O 0.31418 0.38668 0.08055 0.0
O573 O 0.3553 0.45283 0.11874 0.0
O574 O 0.86757 1.01718 0.23636 0.0
Cd575 Cd 0.79367 1.00443 0.20523 0.0
Cd576 Cd 0.82149 0.08721 0.15794 0.0
O577 O 0.85503 0.10155 0.22851 0.0
O578 O 0.75894 0.96222 0.26149 0.0
O579 O 0.74653 0.04754 0.25278 0.0
C580 C 0.74296 1.00612 0.28162 0.0
C581 C 0.76904 0.1506 0.12259 0.0
C582 C 0.87579 0.06334 0.25257 0.0
C583 C 0.8224 0.99896 0.09143 0.0
O584 O 0.8529 0.03459 0.10685 0.0
O585 O 0.78638 0.98405 0.12258 0.0
O586 O 0.81937 0.15375 0.12015 0.0
O587 O 0.74832 0.11145 0.14613 0.0
O588 O 0.17655 0.51486 0.34404 0.0
Cd589 Cd 0.25296 0.49799 0.36964 0.0
Cd590 Cd 0.23377 0.5759 0.42476 0.0
O591 O 0.1868 0.59768 0.36393 0.0
O592 O 0.28607 0.46418 0.30634 0.0
O593 O 0.29694 0.54743 0.32676 0.0
C594 C 0.30048 0.51035 0.29225 0.0
C595 C 0.2887 0.63633 0.46025 0.0
C596 C 0.16306 0.5627 0.33846 0.0
C597 C 0.23694 0.4819 0.48519 0.0
O598 O 0.20852 0.52218 0.47726 0.0
O599 O 0.26732 0.4665 0.4483 0.0
O600 O 0.23884 0.63891 0.46715 0.0
O601 O 0.30821 0.60008 0.43074 0.0
O602 O 0.84926 0.98361 0.42038 0.0
Cd603 Cd 0.77212 1.00682 0.42745 0.0
Cd604 Cd 0.77192 0.92084 0.47208 0.0
O605 O 0.8227 0.90293 0.41266 0.0
O606 O 0.75478 0.0523 0.36379 0.0
O607 O 0.73339 0.96916 0.36821 0.0
C608 C 0.73856 1.01062 0.33992 0.0
C609 C 0.68852 0.88674 0.48245 0.0
C610 C 0.8567 0.93738 0.40349 0.0
C611 C 0.77709 1.00365 0.54386 0.0
O612 O 0.80289 0.96246 0.53337 0.0
O613 O 0.74933 0.02477 0.5068 0.0
O614 O 0.73014 0.86245 0.49947 0.0
O615 O 0.69386 0.9301 0.45747 0.0
O616 O 0.23743 0.21358 0.47352 0.0
Cd617 Cd 0.23141 0.29137 0.49617 0.0
Cd618 Cd 0.16449 0.28329 0.42167 0.0
O619 O 0.21951 0.23455 0.39177 0.0
O620 O 0.2983 0.30655 0.53601 0.0
O621 O 0.28551 0.32887 0.45286 0.0
C622 C 0.31771 0.32237 0.49225 0.0
C623 C 0.11892 0.34057 0.36765 0.0
C624 C 0.23995 0.20336 0.42478 0.0
C625 C 0.11807 0.29156 0.51908 0.0
O626 O 0.12155 0.25674 0.48397 0.0
O627 O 0.15796 0.32094 0.52561 0.0
O628 O 0.11419 0.2908 0.36327 0.0
O629 O 0.15271 0.35881 0.401 0.0
O630 O 0.11692 0.85526 0.9886 0.0
Cd631 Cd 0.09715 0.7786 0.9963 0.0
Cd632 Cd 0.0516 0.81026 0.07644 0.0
O633 O 0.11589 0.8579 0.07472 0.0
O634 O 0.16029 0.73468 0.97288 0.0
O635 O 0.14646 0.7557 0.05552 0.0
C636 C 0.17797 0.73746 1.02079 0.0
C637 C 0.04278 0.73745 0.13047 0.0
C638 C 0.13273 0.87533 0.0316 0.0
C639 C 0.97771 0.79229 0.99976 0.0
O640 O 0.98915 0.83033 0.02943 0.0
O641 O 1.01465 0.7595 0.98818 0.0
O642 O 0.03489 0.78422 0.14791 0.0
O643 O 0.05713 0.73137 0.08276 0.0
O644 O 0.80441 0.70599 0.0512 0.0
Cd645 Cd 0.80992 0.78137 0.02313 0.0
Cd646 Cd 0.8767 0.7734 0.09609 0.0
O647 O 0.8198 0.73417 0.13097 0.0
O648 O 0.74405 0.79424 0.98109 0.0
O649 O 0.75396 0.82091 0.06349 0.0
C650 C 0.72297 0.81143 0.0239 0.0
C651 C 0.91969 0.83298 0.14639 0.0
C652 C 0.79916 0.70139 0.10047 0.0
C653 C 0.92269 0.7752 1.00234 0.0
O654 O 0.9154 0.73897 0.03465 0.0
O655 O 0.88454 0.80796 0.99601 0.0
O656 O 0.93006 0.78373 0.15034 0.0
O657 O 0.88407 0.849 0.11321 0.0
O658 O 0.31798 0.83487 0.98347 0.0
Cd659 Cd 0.31945 0.77145 0.03171 0.0
Cd660 Cd 0.37455 0.72327 0.92877 0.0
O661 O 0.33671 0.79355 0.90881 0.0
O662 O 0.2523 0.76713 0.07036 0.0
O663 O 0.26876 0.72073 0.99845 0.0
C664 C 0.2352 0.73776 0.0324 0.0
C665 C 0.42486 0.68743 0.86329 0.0
C666 C 0.32095 0.83389 0.93374 0.0
C667 C 0.41654 0.72159 0.03678 0.0
O668 O 0.38688 0.69726 1.00469 0.0
O669 O 0.39405 0.75558 0.06502 0.0
O670 O 0.44224 0.72329 0.89412 0.0
O671 O 0.37783 0.67059 0.86988 0.0
loop_
_geom_bond_atom_site_label_1
_geom_bond_atom_site_label_2
_geom_bond_distance
_geom_bond_site_symmetry_2
_ccdc_geom_bond_type
O0 Cd1 2.223 . S
O0 C8 1.315 1_655 S
Cd1 O0 2.223 . S
Cd1 O4 2.297 . S
Cd1 O5 2.439 1_655 S
Cd1 O11 2.240 1_655 S
Cd2 O3 2.240 . S
Cd2 O10 2.223 . S
Cd2 O12 2.297 . S
Cd2 O13 2.439 . S
O3 Cd2 2.240 . S
O3 C8 1.279 . S
O4 Cd1 2.297 . S
O4 C6 1.247 . S
O5 Cd1 2.439 1_455 S
O5 C6 1.208 1_455 S
C6 O4 1.247 . S
C6 O5 1.208 1_655 S
C7 O12 1.247 . S
C7 O13 1.208 . S
C8 O0 1.315 1_455 S
C8 O3 1.279 . S
C9 O10 1.315 . S
C9 O11 1.279 . S
O10 Cd2 2.223 . S
O10 C9 1.315 . S
O11 Cd1 2.240 1_455 S
O11 C9 1.279 . S
O12 Cd2 2.297 . S
O12 C7 1.247 . S
O13 Cd2 2.439 . S
O13 C7 1.208 . S
O14 Cd15 2.223 . S
O14 C22 1.315 1_455 S
Cd15 O14 2.223 . S
Cd15 O18 2.297 . S
Cd15 O19 2.439 1_455 S
Cd15 O25 2.240 1_455 S
Cd16 O17 2.240 . S
Cd16 O24 2.223 . S
Cd16 O26 2.297 . S
Cd16 O27 2.439 . S
O17 Cd16 2.240 . S
O17 C22 1.279 . S
O18 Cd15 2.297 . S
O18 C20 1.247 . S
O19 Cd15 2.439 1_655 S
O19 C20 1.208 1_655 S
C20 O18 1.247 . S
C20 O19 1.208 1_455 S
C21 O26 1.247 . S
C21 O27 1.208 . S
C22 O14 1.315 1_655 S
C22 O17 1.279 . S
C23 O24 1.315 . S
C23 O25 1.279 . S
O24 Cd16 2.223 . S
O24 C23 1.315 . S
O25 Cd15 2.240 1_655 S
O25 C23 1.279 . S
O26 Cd16 2.297 . S
O26 C21 1.247 . S
O27 Cd16 2.439 . S
O27 C21 1.208 . S
O28 Cd29 2.223 . S
O28 C36 1.315 1_655 S
Cd29 O28 2.223 . S
Cd29 O32 2.297 . S
Cd29 O33 2.439 1_655 S
Cd29 O39 2.240 1_655 S
Cd30 O31 2.240 . S
Cd30 O38 2.223 . S
Cd30 O40 2.297 . S
Cd30 O41 2.439 . S
O31 Cd30 2.240 . S
O31 C36 1.279 . S
O32 Cd29 2.297 . S
O32 C34 1.247 . S
O33 Cd29 2.439 1_455 S
O33 C34 1.208 1_455 S
C34 O32 1.247 . S
C34 O33 1.208 1_655 S
C35 O40 1.247 . S
C35 O41 1.208 . S
C36 O28 1.315 1_455 S
C36 O31 1.279 . S
C37 O38 1.315 . S
C37 O39 1.279 . S
O38 Cd30 2.223 . S
O38 C37 1.315 . S
O39 Cd29 2.240 1_455 S
O39 C37 1.279 . S
O40 Cd30 2.297 . S
O40 C35 1.247 . S
O41 Cd30 2.439 . S
O41 C35 1.208 . S
O42 Cd43 2.223 . S
O42 C50 1.315 1_455 S
Cd43 O42 2.223 . S
Cd43 O46 2.297 . S
Cd43 O47 2.439 1_455 S
Cd43 O53 2.240 1_455 S
Cd44 O45 2.240 . S
Cd44 O52 2.223 . S
Cd44 O54 2.297 . S
Cd44 O55 2.439 . S
O45 Cd44 2.240 . S
O45 C50 1.279 . S
O46 Cd43 2.297 . S
O46 C48 1.247 . S
O47 Cd43 2.439 1_655 S
O47 C48 1.208 1_655 S
C48 O46 1.247 . S
C48 O47 1.208 1_455 S
C49 O54 1.247 . S
C49 O55 1.208 . S
C50 O42 1.315 1_655 S
C50 O45 1.279 . S
C51 O52 1.315 . S
C51 O53 1.279 . S
O52 Cd44 2.223 . S
O52 C51 1.315 . S
O53 Cd43 2.240 1_655 S
O53 C51 1.279 . S
O54 Cd44 2.297 . S
O54 C49 1.247 . S
O55 Cd44 2.439 . S
O55 C49 1.208 . S
O56 Cd57 2.223 . S
O56 C64 1.315 1_565 S
Cd57 O56 2.223 . S
Cd57 O60 2.297 . S
Cd57 O61 2.439 1_565 S
Cd57 O67 2.240 1_565 S
Cd58 O59 2.240 . S
Cd58 O66 2.223 . S
Cd58 O68 2.297 . S
Cd58 O69 2.439 . S
O59 Cd58 2.240 . S
O59 C64 1.279 . S
O60 Cd57 2.297 . S
O60 C62 1.247 . S
O61 Cd57 2.439 1_545 S
O61 C62 1.208 1_545 S
C62 O60 1.247 . S
C62 O61 1.208 1_565 S
C63 O68 1.247 . S
C63 O69 1.208 . S
C64 O56 1.315 1_545 S
C64 O59 1.279 . S
C65 O66 1.315 . S
C65 O67 1.279 . S
O66 Cd58 2.223 . S
O66 C65 1.315 . S
O67 Cd57 2.240 1_545 S
O67 C65 1.279 . S
O68 Cd58 2.297 . S
O68 C63 1.247 . S
O69 Cd58 2.439 . S
O69 C63 1.208 . S
O70 Cd71 2.223 . S
O70 C78 1.315 . S
Cd71 O70 2.223 . S
Cd71 O74 2.297 . S
Cd71 O75 2.439 . S
Cd71 O81 2.240 . S
Cd72 O73 2.240 . S
Cd72 O80 2.223 . S
Cd72 O82 2.297 . S
Cd72 O83 2.439 . S
O73 Cd72 2.240 . S
O73 C78 1.279 . S
O74 Cd71 2.297 . S
O74 C76 1.247 . S
O75 Cd71 2.439 . S
O75 C76 1.208 . S
C76 O74 1.247 . S
C76 O75 1.208 . S
C77 O82 1.247 . S
C77 O83 1.208 . S
C78 O70 1.315 . S
C78 O73 1.279 . S
C79 O80 1.315 . S
C79 O81 1.279 . S
O80 Cd72 2.223 . S
O80 C79 1.315 . S
O81 Cd71 2.240 . S
O81 C79 1.279 . S
O82 Cd72 2.297 . S
O82 C77 1.247 . S
O83 Cd72 2.439 . S
O83 C77 1.208 . S
O84 Cd85 2.223 . S
O84 C92 1.315 1_545 S
Cd85 O84 2.223 . S
Cd85 O88 2.297 . S
Cd85 O89 2.439 1_545 S
Cd85 O95 2.240 1_545 S
Cd86 O87 2.240 . S
Cd86 O94 2.223 . S
Cd86 O96 2.297 . S
Cd86 O97 2.439 . S
O87 Cd86 2.240 . S
O87 C92 1.279 . S
O88 Cd85 2.297 . S
O88 C90 1.247 . S
O89 Cd85 2.439 1_565 S
O89 C90 1.208 1_565 S
C90 O88 1.247 . S
C90 O89 1.208 1_545 S
C91 O96 1.247 . S
C91 O97 1.208 . S
C92 O84 1.315 1_565 S
C92 O87 1.279 . S
C93 O94 1.315 . S
C93 O95 1.279 . S
O94 Cd86 2.223 . S
O94 C93 1.315 . S
O95 Cd85 2.240 1_565 S
O95 C93 1.279 . S
O96 Cd86 2.297 . S
O96 C91 1.247 . S
O97 Cd86 2.439 . S
O97 C91 1.208 . S
O98 Cd99 2.223 . S
O98 C106 1.315 . S
Cd99 O98 2.223 . S
Cd99 O102 2.297 . S
Cd99 O103 2.439 . S
Cd99 O109 2.240 . S
Cd100 O101 2.240 . S
Cd100 O108 2.223 . S
Cd100 O110 2.297 . S
Cd100 O111 2.439 . S
O101 Cd100 2.240 . S
O101 C106 1.279 . S
O102 Cd99 2.297 . S
O102 C104 1.247 . S
O103 Cd99 2.439 . S
O103 C104 1.208 . S
C104 O102 1.247 . S
C104 O103 1.208 . S
C105 O110 1.247 . S
C105 O111 1.208 . S
C106 O98 1.315 . S
C106 O101 1.279 . S
C107 O108 1.315 . S
C107 O109 1.279 . S
O108 Cd100 2.223 . S
O108 C107 1.315 . S
O109 Cd99 2.240 . S
O109 C107 1.279 . S
O110 Cd100 2.297 . S
O110 C105 1.247 . S
O111 Cd100 2.439 . S
O111 C105 1.208 . S
O112 Cd113 2.223 . S
O112 C120 1.315 1_556 S
Cd113 O112 2.223 . S
Cd113 O116 2.297 . S
Cd113 O117 2.439 1_556 S
Cd113 O123 2.240 1_556 S
Cd114 O115 2.240 . S
Cd114 O122 2.223 . S
Cd114 O124 2.297 . S
Cd114 O125 2.439 . S
O115 Cd114 2.240 . S
O115 C120 1.279 . S
O116 Cd113 2.297 . S
O116 C118 1.247 . S
O117 Cd113 2.439 1_554 S
O117 C118 1.208 1_554 S
C118 O116 1.247 . S
C118 O117 1.208 1_556 S
C119 O124 1.247 . S
C119 O125 1.208 . S
C120 O112 1.315 1_554 S
C120 O115 1.279 . S
C121 O122 1.315 . S
C121 O123 1.279 . S
O122 Cd114 2.223 . S
O122 C121 1.315 . S
O123 Cd113 2.240 1_554 S
O123 C121 1.279 . S
O124 Cd114 2.297 . S
O124 C119 1.247 . S
O125 Cd114 2.439 . S
O125 C119 1.208 . S
O126 Cd127 2.223 . S
O126 C134 1.315 . S
Cd127 O126 2.223 . S
Cd127 O130 2.297 . S
Cd127 O131 2.439 . S
Cd127 O137 2.240 . S
Cd128 O129 2.240 . S
Cd128 O136 2.223 . S
Cd128 O138 2.297 . S
Cd128 O139 2.439 . S
O129 Cd128 2.240 . S
O129 C134 1.279 . S
O130 Cd127 2.297 . S
O130 C132 1.247 . S
O131 Cd127 2.439 . S
O131 C132 1.208 . S
C132 O130 1.247 . S
C132 O131 1.208 . S
C133 O138 1.247 . S
C133 O139 1.208 . S
C134 O126 1.315 . S
C134 O129 1.279 . S
C135 O136 1.315 . S
C135 O137 1.279 . S
O136 Cd128 2.223 . S
O136 C135 1.315 . S
O137 Cd127 2.240 . S
O137 C135 1.279 . S
O138 Cd128 2.297 . S
O138 C133 1.247 . S
O139 Cd128 2.439 . S
O139 C133 1.208 . S
O140 Cd141 2.223 . S
O140 C148 1.315 . S
Cd141 O140 2.223 . S
Cd141 O144 2.297 . S
Cd141 O145 2.439 . S
Cd141 O151 2.240 . S
Cd142 O143 2.240 . S
Cd142 O150 2.223 . S
Cd142 O152 2.297 . S
Cd142 O153 2.439 . S
O143 Cd142 2.240 . S
O143 C148 1.279 . S
O144 Cd141 2.297 . S
O144 C146 1.247 . S
O145 Cd141 2.439 . S
O145 C146 1.208 . S
C146 O144 1.247 . S
C146 O145 1.208 . S
C147 O152 1.247 . S
C147 O153 1.208 . S
C148 O140 1.315 . S
C148 O143 1.279 . S
C149 O150 1.315 . S
C149 O151 1.279 . S
O150 Cd142 2.223 . S
O150 C149 1.315 . S
O151 Cd141 2.240 . S
O151 C149 1.279 . S
O152 Cd142 2.297 . S
O152 C147 1.247 . S
O153 Cd142 2.439 . S
O153 C147 1.208 . S
O154 Cd155 2.223 . S
O154 C162 1.315 . S
Cd155 O154 2.223 . S
Cd155 O158 2.297 . S
Cd155 O159 2.439 . S
Cd155 O165 2.240 . S
Cd156 O157 2.240 . S
Cd156 O164 2.223 . S
Cd156 O166 2.297 . S
Cd156 O167 2.439 . S
O157 Cd156 2.240 . S
O157 C162 1.279 . S
O158 Cd155 2.297 . S
O158 C160 1.247 . S
O159 Cd155 2.439 . S
O159 C160 1.208 . S
C160 O158 1.247 . S
C160 O159 1.208 . S
C161 O166 1.247 . S
C161 O167 1.208 . S
C162 O154 1.315 . S
C162 O157 1.279 . S
C163 O164 1.315 . S
C163 O165 1.279 . S
O164 Cd156 2.223 . S
O164 C163 1.315 . S
O165 Cd155 2.240 . S
O165 C163 1.279 . S
O166 Cd156 2.297 . S
O166 C161 1.247 . S
O167 Cd156 2.439 . S
O167 C161 1.208 . S
O168 Cd169 2.223 . S
O168 C176 1.315 1_455 S
Cd169 O168 2.223 . S
Cd169 O172 2.297 . S
Cd169 O173 2.439 1_455 S
Cd169 O179 2.240 1_455 S
Cd170 O171 2.240 . S
Cd170 O178 2.223 . S
Cd170 O180 2.297 . S
Cd170 O181 2.439 . S
O171 Cd170 2.240 . S
O171 C176 1.279 . S
O172 Cd169 2.297 . S
O172 C174 1.247 . S
O173 Cd169 2.439 1_655 S
O173 C174 1.208 1_655 S
C174 O172 1.247 . S
C174 O173 1.208 1_455 S
C175 O180 1.247 . S
C175 O181 1.208 . S
C176 O168 1.315 1_655 S
C176 O171 1.279 . S
C177 O178 1.315 . S
C177 O179 1.279 . S
O178 Cd170 2.223 . S
O178 C177 1.315 . S
O179 Cd169 2.240 1_655 S
O179 C177 1.279 . S
O180 Cd170 2.297 . S
O180 C175 1.247 . S
O181 Cd170 2.439 . S
O181 C175 1.208 . S
O182 Cd183 2.223 . S
O182 C190 1.315 1_655 S
Cd183 O182 2.223 . S
Cd183 O186 2.297 . S
Cd183 O187 2.439 1_655 S
Cd183 O193 2.240 1_655 S
Cd184 O185 2.240 . S
Cd184 O192 2.223 . S
Cd184 O194 2.297 . S
Cd184 O195 2.439 . S
O185 Cd184 2.240 . S
O185 C190 1.279 . S
O186 Cd183 2.297 . S
O186 C188 1.247 . S
O187 Cd183 2.439 1_455 S
O187 C188 1.208 1_455 S
C188 O186 1.247 . S
C188 O187 1.208 1_655 S
C189 O194 1.247 . S
C189 O195 1.208 . S
C190 O182 1.315 1_455 S
C190 O185 1.279 . S
C191 O192 1.315 . S
C191 O193 1.279 . S
O192 Cd184 2.223 . S
O192 C191 1.315 . S
O193 Cd183 2.240 1_455 S
O193 C191 1.279 . S
O194 Cd184 2.297 . S
O194 C189 1.247 . S
O195 Cd184 2.439 . S
O195 C189 1.208 . S
O196 Cd197 2.223 . S
O196 C204 1.315 1_455 S
Cd197 O196 2.223 . S
Cd197 O200 2.297 . S
Cd197 O201 2.439 1_455 S
Cd197 O207 2.240 1_455 S
Cd198 O199 2.240 . S
Cd198 O206 2.223 . S
Cd198 O208 2.297 . S
Cd198 O209 2.439 . S
O199 Cd198 2.240 . S
O199 C204 1.279 . S
O200 Cd197 2.297 . S
O200 C202 1.247 . S
O201 Cd197 2.439 1_655 S
O201 C202 1.208 1_655 S
C202 O200 1.247 . S
C202 O201 1.208 1_455 S
C203 O208 1.247 . S
C203 O209 1.208 . S
C204 O196 1.315 1_655 S
C204 O199 1.279 . S
C205 O206 1.315 . S
C205 O207 1.279 . S
O206 Cd198 2.223 . S
O206 C205 1.315 . S
O207 Cd197 2.240 1_655 S
O207 C205 1.279 . S
O208 Cd198 2.297 . S
O208 C203 1.247 . S
O209 Cd198 2.439 . S
O209 C203 1.208 . S
O210 Cd211 2.223 . S
O210 C218 1.315 1_655 S
Cd211 O210 2.223 . S
Cd211 O214 2.297 . S
Cd211 O215 2.439 1_655 S
Cd211 O221 2.240 1_655 S
Cd212 O213 2.240 . S
Cd212 O220 2.223 . S
Cd212 O222 2.297 . S
Cd212 O223 2.439 . S
O213 Cd212 2.240 . S
O213 C218 1.279 . S
O214 Cd211 2.297 . S
O214 C216 1.247 . S
O215 Cd211 2.439 1_455 S
O215 C216 1.208 1_455 S
C216 O214 1.247 . S
C216 O215 1.208 1_655 S
C217 O222 1.247 . S
C217 O223 1.208 . S
C218 O210 1.315 1_455 S
C218 O213 1.279 . S
C219 O220 1.315 . S
C219 O221 1.279 . S
O220 Cd212 2.223 . S
O220 C219 1.315 . S
O221 Cd211 2.240 1_455 S
O221 C219 1.279 . S
O222 Cd212 2.297 . S
O222 C217 1.247 . S
O223 Cd212 2.439 . S
O223 C217 1.208 . S
O224 Cd225 2.223 . S
O224 C232 1.315 1_545 S
Cd225 O224 2.223 . S
Cd225 O228 2.297 . S
Cd225 O229 2.439 1_545 S
Cd225 O235 2.240 1_545 S
Cd226 O227 2.240 . S
Cd226 O234 2.223 . S
Cd226 O236 2.297 . S
Cd226 O237 2.439 . S
O227 Cd226 2.240 . S
O227 C232 1.279 . S
O228 Cd225 2.297 . S
O228 C230 1.247 . S
O229 Cd225 2.439 1_565 S
O229 C230 1.208 1_565 S
C230 O228 1.247 . S
C230 O229 1.208 1_545 S
C231 O236 1.247 . S
C231 O237 1.208 . S
C232 O224 1.315 1_565 S
C232 O227 1.279 . S
C233 O234 1.315 . S
C233 O235 1.279 . S
O234 Cd226 2.223 . S
O234 C233 1.315 . S
O235 Cd225 2.240 1_565 S
O235 C233 1.279 . S
O236 Cd226 2.297 . S
O236 C231 1.247 . S
O237 Cd226 2.439 . S
O237 C231 1.208 . S
O238 Cd239 2.223 . S
O238 C246 1.315 . S
Cd239 O238 2.223 . S
Cd239 O242 2.297 . S
Cd239 O243 2.439 . S
Cd239 O249 2.240 . S
Cd240 O241 2.240 . S
Cd240 O248 2.223 . S
Cd240 O250 2.297 . S
Cd240 O251 2.439 . S
O241 Cd240 2.240 . S
O241 C246 1.279 . S
O242 Cd239 2.297 . S
O242 C244 1.247 . S
O243 Cd239 2.439 . S
O243 C244 1.208 . S
C244 O242 1.247 . S
C244 O243 1.208 . S
C245 O250 1.247 . S
C245 O251 1.208 . S
C246 O238 1.315 . S
C246 O241 1.279 . S
C247 O248 1.315 . S
C247 O249 1.279 . S
O248 Cd240 2.223 . S
O248 C247 1.315 . S
O249 Cd239 2.240 . S
O249 C247 1.279 . S
O250 Cd240 2.297 . S
O250 C245 1.247 . S
O251 Cd240 2.439 . S
O251 C245 1.208 . S
O252 Cd253 2.223 . S
O252 C260 1.315 1_565 S
Cd253 O252 2.223 . S
Cd253 O256 2.297 . S
Cd253 O257 2.439 1_565 S
Cd253 O263 2.240 1_565 S
Cd254 O255 2.240 . S
Cd254 O262 2.223 . S
Cd254 O264 2.297 . S
Cd254 O265 2.439 . S
O255 Cd254 2.240 . S
O255 C260 1.279 . S
O256 Cd253 2.297 . S
O256 C258 1.247 . S
O257 Cd253 2.439 1_545 S
O257 C258 1.208 1_545 S
C258 O256 1.247 . S
C258 O257 1.208 1_565 S
C259 O264 1.247 . S
C259 O265 1.208 . S
C260 O252 1.315 1_545 S
C260 O255 1.279 . S
C261 O262 1.315 . S
C261 O263 1.279 . S
O262 Cd254 2.223 . S
O262 C261 1.315 . S
O263 Cd253 2.240 1_545 S
O263 C261 1.279 . S
O264 Cd254 2.297 . S
O264 C259 1.247 . S
O265 Cd254 2.439 . S
O265 C259 1.208 . S
O266 Cd267 2.223 . S
O266 C274 1.315 . S
Cd267 O266 2.223 . S
Cd267 O270 2.297 . S
Cd267 O271 2.439 . S
Cd267 O277 2.240 . S
Cd268 O269 2.240 . S
Cd268 O276 2.223 . S
Cd268 O278 2.297 . S
Cd268 O279 2.439 . S
O269 Cd268 2.240 . S
O269 C274 1.279 . S
O270 Cd267 2.297 . S
O270 C272 1.247 . S
O271 Cd267 2.439 . S
O271 C272 1.208 . S
C272 O270 1.247 . S
C272 O271 1.208 . S
C273 O278 1.247 . S
C273 O279 1.208 . S
C274 O266 1.315 . S
C274 O269 1.279 . S
C275 O276 1.315 . S
C275 O277 1.279 . S
O276 Cd268 2.223 . S
O276 C275 1.315 . S
O277 Cd267 2.240 . S
O277 C275 1.279 . S
O278 Cd268 2.297 . S
O278 C273 1.247 . S
O279 Cd268 2.439 . S
O279 C273 1.208 . S
O280 Cd281 2.223 . S
O280 C288 1.315 1_554 S
Cd281 O280 2.223 . S
Cd281 O284 2.297 . S
Cd281 O285 2.439 1_554 S
Cd281 O291 2.240 1_554 S
Cd282 O283 2.240 . S
Cd282 O290 2.223 . S
Cd282 O292 2.297 . S
Cd282 O293 2.439 . S
O283 Cd282 2.240 . S
O283 C288 1.279 . S
O284 Cd281 2.297 . S
O284 C286 1.247 . S
O285 Cd281 2.439 1_556 S
O285 C286 1.208 1_556 S
C286 O284 1.247 . S
C286 O285 1.208 1_554 S
C287 O292 1.247 . S
C287 O293 1.208 . S
C288 O280 1.315 1_556 S
C288 O283 1.279 . S
C289 O290 1.315 . S
C289 O291 1.279 . S
O290 Cd282 2.223 . S
O290 C289 1.315 . S
O291 Cd281 2.240 1_556 S
O291 C289 1.279 . S
O292 Cd282 2.297 . S
O292 C287 1.247 . S
O293 Cd282 2.439 . S
O293 C287 1.208 . S
O294 Cd295 2.223 . S
O294 C302 1.315 . S
Cd295 O294 2.223 . S
Cd295 O298 2.297 . S
Cd295 O299 2.439 . S
Cd295 O305 2.240 . S
Cd296 O297 2.240 . S
Cd296 O304 2.223 . S
Cd296 O306 2.297 . S
Cd296 O307 2.439 . S
O297 Cd296 2.240 . S
O297 C302 1.279 . S
O298 Cd295 2.297 . S
O298 C300 1.247 . S
O299 Cd295 2.439 . S
O299 C300 1.208 . S
C300 O298 1.247 . S
C300 O299 1.208 . S
C301 O306 1.247 . S
C301 O307 1.208 . S
C302 O294 1.315 . S
C302 O297 1.279 . S
C303 O304 1.315 . S
C303 O305 1.279 . S
O304 Cd296 2.223 . S
O304 C303 1.315 . S
O305 Cd295 2.240 . S
O305 C303 1.279 . S
O306 Cd296 2.297 . S
O306 C301 1.247 . S
O307 Cd296 2.439 . S
O307 C301 1.208 . S
O308 Cd309 2.223 . S
O308 C316 1.315 . S
Cd309 O308 2.223 . S
Cd309 O312 2.297 . S
Cd309 O313 2.439 . S
Cd309 O319 2.240 . S
Cd310 O311 2.240 . S
Cd310 O318 2.223 . S
Cd310 O320 2.297 . S
Cd310 O321 2.439 . S
O311 Cd310 2.240 . S
O311 C316 1.279 . S
O312 Cd309 2.297 . S
O312 C314 1.247 . S
O313 Cd309 2.439 . S
O313 C314 1.208 . S
C314 O312 1.247 . S
C314 O313 1.208 . S
C315 O320 1.247 . S
C315 O321 1.208 . S
C316 O308 1.315 . S
C316 O311 1.279 . S
C317 O318 1.315 . S
C317 O319 1.279 . S
O318 Cd310 2.223 . S
O318 C317 1.315 . S
O319 Cd309 2.240 . S
O319 C317 1.279 . S
O320 Cd310 2.297 . S
O320 C315 1.247 . S
O321 Cd310 2.439 . S
O321 C315 1.208 . S
O322 Cd323 2.223 . S
O322 C330 1.315 . S
Cd323 O322 2.223 . S
Cd323 O326 2.297 . S
Cd323 O327 2.439 . S
Cd323 O333 2.240 . S
Cd324 O325 2.240 . S
Cd324 O332 2.223 . S
Cd324 O334 2.297 . S
Cd324 O335 2.439 . S
O325 Cd324 2.240 . S
O325 C330 1.279 . S
O326 Cd323 2.297 . S
O326 C328 1.247 . S
O327 Cd323 2.439 . S
O327 C328 1.208 . S
C328 O326 1.247 . S
C328 O327 1.208 . S
C329 O334 1.247 . S
C329 O335 1.208 . S
C330 O322 1.315 . S
C330 O325 1.279 . S
C331 O332 1.315 . S
C331 O333 1.279 . S
O332 Cd324 2.223 . S
O332 C331 1.315 . S
O333 Cd323 2.240 . S
O333 C331 1.279 . S
O334 Cd324 2.297 . S
O334 C329 1.247 . S
O335 Cd324 2.439 . S
O335 C329 1.208 . S
O336 Cd337 2.223 . S
O336 C344 1.315 . S
Cd337 O336 2.223 . S
Cd337 O340 2.297 . S
Cd337 O341 2.439 . S
Cd337 O347 2.240 . S
Cd338 O339 2.240 . S
Cd338 O346 2.223 . S
Cd338 O348 2.297 . S
Cd338 O349 2.439 . S
O339 Cd338 2.240 . S
O339 C344 1.279 . S
O340 Cd337 2.297 . S
O340 C342 1.247 . S
O341 Cd337 2.439 . S
O341 C342 1.208 . S
C342 O340 1.247 . S
C342 O341 1.208 . S
C343 O348 1.247 . S
C343 O349 1.208 . S
C344 O336 1.315 . S
C344 O339 1.279 . S
C345 O346 1.315 . S
C345 O347 1.279 . S
O346 Cd338 2.223 . S
O346 C345 1.315 . S
O347 Cd337 2.240 . S
O347 C345 1.279 . S
O348 Cd338 2.297 . S
O348 C343 1.247 . S
O349 Cd338 2.439 . S
O349 C343 1.208 . S
O350 Cd351 2.223 . S
O350 C358 1.315 . S
Cd351 O350 2.223 . S
Cd351 O354 2.297 . S
Cd351 O355 2.439 . S
Cd351 O361 2.240 . S
Cd352 O353 2.240 . S
Cd352 O360 2.223 . S
Cd352 O362 2.297 . S
Cd352 O363 2.439 . S
O353 Cd352 2.240 . S
O353 C358 1.279 . S
O354 Cd351 2.297 . S
O354 C356 1.247 . S
O355 Cd351 2.439 . S
O355 C356 1.208 . S
C356 O354 1.247 . S
C356 O355 1.208 . S
C357 O362 1.247 . S
C357 O363 1.208 . S
C358 O350 1.315 . S
C358 O353 1.279 . S
C359 O360 1.315 . S
C359 O361 1.279 . S
O360 Cd352 2.223 . S
O360 C359 1.315 . S
O361 Cd351 2.240 . S
O361 C359 1.279 . S
O362 Cd352 2.297 . S
O362 C357 1.247 . S
O363 Cd352 2.439 . S
O363 C357 1.208 . S
O364 Cd365 2.223 . S
O364 C372 1.315 . S
Cd365 O364 2.223 . S
Cd365 O368 2.297 . S
Cd365 O369 2.439 . S
Cd365 O375 2.240 . S
Cd366 O367 2.240 . S
Cd366 O374 2.223 . S
Cd366 O376 2.297 . S
Cd366 O377 2.439 . S
O367 Cd366 2.240 . S
O367 C372 1.279 . S
O368 Cd365 2.297 . S
O368 C370 1.247 . S
O369 Cd365 2.439 . S
O369 C370 1.208 . S
C370 O368 1.247 . S
C370 O369 1.208 . S
C371 O376 1.247 . S
C371 O377 1.208 . S
C372 O364 1.315 . S
C372 O367 1.279 . S
C373 O374 1.315 . S
C373 O375 1.279 . S
O374 Cd366 2.223 . S
O374 C373 1.315 . S
O375 Cd365 2.240 . S
O375 C373 1.279 . S
O376 Cd366 2.297 . S
O376 C371 1.247 . S
O377 Cd366 2.439 . S
O377 C371 1.208 . S
O378 Cd379 2.223 . S
O378 C386 1.315 . S
Cd379 O378 2.223 . S
Cd379 O382 2.297 . S
Cd379 O383 2.439 . S
Cd379 O389 2.240 . S
Cd380 O381 2.240 . S
Cd380 O388 2.223 . S
Cd380 O390 2.297 . S
Cd380 O391 2.439 . S
O381 Cd380 2.240 . S
O381 C386 1.279 . S
O382 Cd379 2.297 . S
O382 C384 1.247 . S
O383 Cd379 2.439 . S
O383 C384 1.208 . S
C384 O382 1.247 . S
C384 O383 1.208 . S
C385 O390 1.247 . S
C385 O391 1.208 . S
C386 O378 1.315 . S
C386 O381 1.279 . S
C387 O388 1.315 . S
C387 O389 1.279 . S
O388 Cd380 2.223 . S
O388 C387 1.315 . S
O389 Cd379 2.240 . S
O389 C387 1.279 . S
O390 Cd380 2.297 . S
O390 C385 1.247 . S
O391 Cd380 2.439 . S
O391 C385 1.208 . S
O392 Cd393 2.223 . S
O392 C400 1.315 . S
Cd393 O392 2.223 . S
Cd393 O396 2.297 . S
Cd393 O397 2.439 . S
Cd393 O403 2.240 . S
Cd394 O395 2.240 . S
Cd394 O402 2.223 . S
Cd394 O404 2.297 . S
Cd394 O405 2.439 . S
O395 Cd394 2.240 . S
O395 C400 1.279 . S
O396 Cd393 2.297 . S
O396 C398 1.247 . S
O397 Cd393 2.439 . S
O397 C398 1.208 . S
C398 O396 1.247 . S
C398 O397 1.208 . S
C399 O404 1.247 . S
C399 O405 1.208 . S
C400 O392 1.315 . S
C400 O395 1.279 . S
C401 O402 1.315 . S
C401 O403 1.279 . S
O402 Cd394 2.223 . S
O402 C401 1.315 . S
O403 Cd393 2.240 . S
O403 C401 1.279 . S
O404 Cd394 2.297 . S
O404 C399 1.247 . S
O405 Cd394 2.439 . S
O405 C399 1.208 . S
O406 Cd407 2.223 . S
O406 C414 1.315 1_545 S
Cd407 O406 2.223 . S
Cd407 O410 2.297 . S
Cd407 O411 2.439 1_545 S
Cd407 O417 2.240 1_545 S
Cd408 O409 2.240 . S
Cd408 O416 2.223 . S
Cd408 O418 2.297 . S
Cd408 O419 2.439 . S
O409 Cd408 2.240 . S
O409 C414 1.279 . S
O410 Cd407 2.297 . S
O410 C412 1.247 . S
O411 Cd407 2.439 1_565 S
O411 C412 1.208 1_565 S
C412 O410 1.247 . S
C412 O411 1.208 1_545 S
C413 O418 1.247 . S
C413 O419 1.208 . S
C414 O406 1.315 1_565 S
C414 O409 1.279 . S
C415 O416 1.315 . S
C415 O417 1.279 . S
O416 Cd408 2.223 . S
O416 C415 1.315 . S
O417 Cd407 2.240 1_565 S
O417 C415 1.279 . S
O418 Cd408 2.297 . S
O418 C413 1.247 . S
O419 Cd408 2.439 . S
O419 C413 1.208 . S
O420 Cd421 2.223 . S
O420 C428 1.315 . S
Cd421 O420 2.223 . S
Cd421 O424 2.297 . S
Cd421 O425 2.439 . S
Cd421 O431 2.240 . S
Cd422 O423 2.240 . S
Cd422 O430 2.223 . S
Cd422 O432 2.297 . S
Cd422 O433 2.439 . S
O423 Cd422 2.240 . S
O423 C428 1.279 . S
O424 Cd421 2.297 . S
O424 C426 1.247 . S
O425 Cd421 2.439 . S
O425 C426 1.208 . S
C426 O424 1.247 . S
C426 O425 1.208 . S
C427 O432 1.247 . S
C427 O433 1.208 . S
C428 O420 1.315 . S
C428 O423 1.279 . S
C429 O430 1.315 . S
C429 O431 1.279 . S
O430 Cd422 2.223 . S
O430 C429 1.315 . S
O431 Cd421 2.240 . S
O431 C429 1.279 . S
O432 Cd422 2.297 . S
O432 C427 1.247 . S
O433 Cd422 2.439 . S
O433 C427 1.208 . S
O434 Cd435 2.223 . S
O434 C442 1.315 1_565 S
Cd435 O434 2.223 . S
Cd435 O438 2.297 . S
Cd435 O439 2.439 1_565 S
Cd435 O445 2.240 1_565 S
Cd436 O437 2.240 . S
Cd436 O444 2.223 . S
Cd436 O446 2.297 . S
Cd436 O447 2.439 . S
O437 Cd436 2.240 . S
O437 C442 1.279 . S
O438 Cd435 2.297 . S
O438 C440 1.247 . S
O439 Cd435 2.439 1_545 S
O439 C440 1.208 1_545 S
C440 O438 1.247 . S
C440 O439 1.208 1_565 S
C441 O446 1.247 . S
C441 O447 1.208 . S
C442 O434 1.315 1_545 S
C442 O437 1.279 . S
C443 O444 1.315 . S
C443 O445 1.279 . S
O444 Cd436 2.223 . S
O444 C443 1.315 . S
O445 Cd435 2.240 1_545 S
O445 C443 1.279 . S
O446 Cd436 2.297 . S
O446 C441 1.247 . S
O447 Cd436 2.439 . S
O447 C441 1.208 . S
O448 Cd449 2.223 . S
O448 C456 1.315 . S
Cd449 O448 2.223 . S
Cd449 O452 2.297 . S
Cd449 O453 2.439 . S
Cd449 O459 2.240 . S
Cd450 O451 2.240 . S
Cd450 O458 2.223 . S
Cd450 O460 2.297 . S
Cd450 O461 2.439 . S
O451 Cd450 2.240 . S
O451 C456 1.279 . S
O452 Cd449 2.297 . S
O452 C454 1.247 . S
O453 Cd449 2.439 . S
O453 C454 1.208 . S
C454 O452 1.247 . S
C454 O453 1.208 . S
C455 O460 1.247 . S
C455 O461 1.208 . S
C456 O448 1.315 . S
C456 O451 1.279 . S
C457 O458 1.315 . S
C457 O459 1.279 . S
O458 Cd450 2.223 . S
O458 C457 1.315 . S
O459 Cd449 2.240 . S
O459 C457 1.279 . S
O460 Cd450 2.297 . S
O460 C455 1.247 . S
O461 Cd450 2.439 . S
O461 C455 1.208 . S
O462 Cd463 2.223 . S
O462 C470 1.315 1_554 S
Cd463 O462 2.223 . S
Cd463 O466 2.297 . S
Cd463 O467 2.439 1_554 S
Cd463 O473 2.240 1_554 S
Cd464 O465 2.240 . S
Cd464 O472 2.223 . S
Cd464 O474 2.297 . S
Cd464 O475 2.439 . S
O465 Cd464 2.240 . S
O465 C470 1.279 . S
O466 Cd463 2.297 . S
O466 C468 1.247 . S
O467 Cd463 2.439 1_556 S
O467 C468 1.208 1_556 S
C468 O466 1.247 . S
C468 O467 1.208 1_554 S
C469 O474 1.247 . S
C469 O475 1.208 . S
C470 O462 1.315 1_556 S
C470 O465 1.279 . S
C471 O472 1.315 . S
C471 O473 1.279 . S
O472 Cd464 2.223 . S
O472 C471 1.315 . S
O473 Cd463 2.240 1_556 S
O473 C471 1.279 . S
O474 Cd464 2.297 . S
O474 C469 1.247 . S
O475 Cd464 2.439 . S
O475 C469 1.208 . S
O476 Cd477 2.223 . S
O476 C484 1.315 1_554 S
Cd477 O476 2.223 . S
Cd477 O480 2.297 . S
Cd477 O481 2.439 1_554 S
Cd477 O487 2.240 1_554 S
Cd478 O479 2.240 . S
Cd478 O486 2.223 . S
Cd478 O488 2.297 . S
Cd478 O489 2.439 . S
O479 Cd478 2.240 . S
O479 C484 1.279 . S
O480 Cd477 2.297 . S
O480 C482 1.247 . S
O481 Cd477 2.439 1_556 S
O481 C482 1.208 1_556 S
C482 O480 1.247 . S
C482 O481 1.208 1_554 S
C483 O488 1.247 . S
C483 O489 1.208 . S
C484 O476 1.315 1_556 S
C484 O479 1.279 . S
C485 O486 1.315 . S
C485 O487 1.279 . S
O486 Cd478 2.223 . S
O486 C485 1.315 . S
O487 Cd477 2.240 1_556 S
O487 C485 1.279 . S
O488 Cd478 2.297 . S
O488 C483 1.247 . S
O489 Cd478 2.439 . S
O489 C483 1.208 . S
O490 Cd491 2.223 . S
O490 C498 1.315 1_556 S
Cd491 O490 2.223 . S
Cd491 O494 2.297 . S
Cd491 O495 2.439 1_556 S
Cd491 O501 2.240 1_556 S
Cd492 O493 2.240 . S
Cd492 O500 2.223 . S
Cd492 O502 2.297 . S
Cd492 O503 2.439 . S
O493 Cd492 2.240 . S
O493 C498 1.279 . S
O494 Cd491 2.297 . S
O494 C496 1.247 . S
O495 Cd491 2.439 1_554 S
O495 C496 1.208 1_554 S
C496 O494 1.247 . S
C496 O495 1.208 1_556 S
C497 O502 1.247 . S
C497 O503 1.208 . S
C498 O490 1.315 1_554 S
C498 O493 1.279 . S
C499 O500 1.315 . S
C499 O501 1.279 . S
O500 Cd492 2.223 . S
O500 C499 1.315 . S
O501 Cd491 2.240 1_554 S
O501 C499 1.279 . S
O502 Cd492 2.297 . S
O502 C497 1.247 . S
O503 Cd492 2.439 . S
O503 C497 1.208 . S
O504 Cd505 2.223 . S
O504 C512 1.315 . S
Cd505 O504 2.223 . S
Cd505 O508 2.297 . S
Cd505 O509 2.439 . S
Cd505 O515 2.240 . S
Cd506 O507 2.240 . S
Cd506 O514 2.223 . S
Cd506 O516 2.297 . S
Cd506 O517 2.439 . S
O507 Cd506 2.240 . S
O507 C512 1.279 . S
O508 Cd505 2.297 . S
O508 C510 1.247 . S
O509 Cd505 2.439 . S
O509 C510 1.208 . S
C510 O508 1.247 . S
C510 O509 1.208 . S
C511 O516 1.247 . S
C511 O517 1.208 . S
C512 O504 1.315 . S
C512 O507 1.279 . S
C513 O514 1.315 . S
C513 O515 1.279 . S
O514 Cd506 2.223 . S
O514 C513 1.315 . S
O515 Cd505 2.240 . S
O515 C513 1.279 . S
O516 Cd506 2.297 . S
O516 C511 1.247 . S
O517 Cd506 2.439 . S
O517 C511 1.208 . S
O518 Cd519 2.223 . S
O518 C526 1.315 . S
Cd519 O518 2.223 . S
Cd519 O522 2.297 . S
Cd519 O523 2.439 . S
Cd519 O529 2.240 . S
Cd520 O521 2.240 . S
Cd520 O528 2.223 . S
Cd520 O530 2.297 . S
Cd520 O531 2.439 . S
O521 Cd520 2.240 . S
O521 C526 1.279 . S
O522 Cd519 2.297 . S
O522 C524 1.247 . S
O523 Cd519 2.439 . S
O523 C524 1.208 . S
C524 O522 1.247 . S
C524 O523 1.208 . S
C525 O530 1.247 . S
C525 O531 1.208 . S
C526 O518 1.315 . S
C526 O521 1.279 . S
C527 O528 1.315 . S
C527 O529 1.279 . S
O528 Cd520 2.223 . S
O528 C527 1.315 . S
O529 Cd519 2.240 . S
O529 C527 1.279 . S
O530 Cd520 2.297 . S
O530 C525 1.247 . S
O531 Cd520 2.439 . S
O531 C525 1.208 . S
O532 Cd533 2.223 . S
O532 C540 1.315 . S
Cd533 O532 2.223 . S
Cd533 O536 2.297 . S
Cd533 O537 2.439 . S
Cd533 O543 2.240 . S
Cd534 O535 2.240 . S
Cd534 O542 2.223 . S
Cd534 O544 2.297 . S
Cd534 O545 2.439 . S
O535 Cd534 2.240 . S
O535 C540 1.279 . S
O536 Cd533 2.297 . S
O536 C538 1.247 . S
O537 Cd533 2.439 . S
O537 C538 1.208 . S
C538 O536 1.247 . S
C538 O537 1.208 . S
C539 O544 1.247 . S
C539 O545 1.208 . S
C540 O532 1.315 . S
C540 O535 1.279 . S
C541 O542 1.315 . S
C541 O543 1.279 . S
O542 Cd534 2.223 . S
O542 C541 1.315 . S
O543 Cd533 2.240 . S
O543 C541 1.279 . S
O544 Cd534 2.297 . S
O544 C539 1.247 . S
O545 Cd534 2.439 . S
O545 C539 1.208 . S
O546 Cd547 2.223 . S
O546 C554 1.315 . S
Cd547 O546 2.223 . S
Cd547 O550 2.297 . S
Cd547 O551 2.439 . S
Cd547 O557 2.240 . S
Cd548 O549 2.240 . S
Cd548 O556 2.223 . S
Cd548 O558 2.297 . S
Cd548 O559 2.439 . S
O549 Cd548 2.240 . S
O549 C554 1.279 . S
O550 Cd547 2.297 . S
O550 C552 1.247 . S
O551 Cd547 2.439 . S
O551 C552 1.208 . S
C552 O550 1.247 . S
C552 O551 1.208 . S
C553 O558 1.247 . S
C553 O559 1.208 . S
C554 O546 1.315 . S
C554 O549 1.279 . S
C555 O556 1.315 . S
C555 O557 1.279 . S
O556 Cd548 2.223 . S
O556 C555 1.315 . S
O557 Cd547 2.240 . S
O557 C555 1.279 . S
O558 Cd548 2.297 . S
O558 C553 1.247 . S
O559 Cd548 2.439 . S
O559 C553 1.208 . S
O560 Cd561 2.223 . S
O560 C568 1.315 . S
Cd561 O560 2.223 . S
Cd561 O564 2.297 . S
Cd561 O565 2.439 . S
Cd561 O571 2.240 . S
Cd562 O563 2.240 . S
Cd562 O570 2.223 . S
Cd562 O572 2.297 . S
Cd562 O573 2.439 . S
O563 Cd562 2.240 . S
O563 C568 1.279 . S
O564 Cd561 2.297 . S
O564 C566 1.247 . S
O565 Cd561 2.439 . S
O565 C566 1.208 . S
C566 O564 1.247 . S
C566 O565 1.208 . S
C567 O572 1.247 . S
C567 O573 1.208 . S
C568 O560 1.315 . S
C568 O563 1.279 . S
C569 O570 1.315 . S
C569 O571 1.279 . S
O570 Cd562 2.223 . S
O570 C569 1.315 . S
O571 Cd561 2.240 . S
O571 C569 1.279 . S
O572 Cd562 2.297 . S
O572 C567 1.247 . S
O573 Cd562 2.439 . S
O573 C567 1.208 . S
O574 Cd575 2.223 . S
O574 C582 1.315 1_565 S
Cd575 O574 2.223 . S
Cd575 O578 2.297 . S
Cd575 O579 2.439 1_565 S
Cd575 O585 2.240 1_565 S
Cd576 O577 2.240 . S
Cd576 O584 2.223 . S
Cd576 O586 2.297 . S
Cd576 O587 2.439 . S
O577 Cd576 2.240 . S
O577 C582 1.279 . S
O578 Cd575 2.297 . S
O578 C580 1.247 . S
O579 Cd575 2.439 1_545 S
O579 C580 1.208 1_545 S
C580 O578 1.247 . S
C580 O579 1.208 1_565 S
C581 O586 1.247 . S
C581 O587 1.208 . S
C582 O574 1.315 1_545 S
C582 O577 1.279 . S
C583 O584 1.315 . S
C583 O585 1.279 . S
O584 Cd576 2.223 . S
O584 C583 1.315 . S
O585 Cd575 2.240 1_545 S
O585 C583 1.279 . S
O586 Cd576 2.297 . S
O586 C581 1.247 . S
O587 Cd576 2.439 . S
O587 C581 1.208 . S
O588 Cd589 2.223 . S
O588 C596 1.315 . S
Cd589 O588 2.223 . S
Cd589 O592 2.297 . S
Cd589 O593 2.439 . S
Cd589 O599 2.240 . S
Cd590 O591 2.240 . S
Cd590 O598 2.223 . S
Cd590 O600 2.297 . S
Cd590 O601 2.439 . S
O591 Cd590 2.240 . S
O591 C596 1.279 . S
O592 Cd589 2.297 . S
O592 C594 1.247 . S
O593 Cd589 2.439 . S
O593 C594 1.208 . S
C594 O592 1.247 . S
C594 O593 1.208 . S
C595 O600 1.247 . S
C595 O601 1.208 . S
C596 O588 1.315 . S
C596 O591 1.279 . S
C597 O598 1.315 . S
C597 O599 1.279 . S
O598 Cd590 2.223 . S
O598 C597 1.315 . S
O599 Cd589 2.240 . S
O599 C597 1.279 . S
O600 Cd590 2.297 . S
O600 C595 1.247 . S
O601 Cd590 2.439 . S
O601 C595 1.208 . S
O602 Cd603 2.223 . S
O602 C610 1.315 1_545 S
Cd603 O602 2.223 . S
Cd603 O606 2.297 . S
Cd603 O607 2.439 1_545 S
Cd603 O613 2.240 1_545 S
Cd604 O605 2.240 . S
Cd604 O612 2.223 . S
Cd604 O614 2.297 . S
Cd604 O615 2.439 . S
O605 Cd604 2.240 . S
O605 C610 1.279 . S
O606 Cd603 2.297 . S
O606 C608 1.247 . S
O607 Cd603 2.439 1_565 S
O607 C608 1.208 1_565 S
C608 O606 1.247 . S
C608 O607 1.208 1_545 S
C609 O614 1.247 . S
C609 O615 1.208 . S
C610 O602 1.315 1_565 S
C610 O605 1.279 . S
C611 O612 1.315 . S
C611 O613 1.279 . S
O612 Cd604 2.223 . S
O612 C611 1.315 . S
O613 Cd603 2.240 1_565 S
O613 C611 1.279 . S
O614 Cd604 2.297 . S
O614 C609 1.247 . S
O615 Cd604 2.439 . S
O615 C609 1.208 . S
O616 Cd617 2.223 . S
O616 C624 1.315 . S
Cd617 O616 2.223 . S
Cd617 O620 2.297 . S
Cd617 O621 2.439 . S
Cd617 O627 2.240 . S
Cd618 O619 2.240 . S
Cd618 O626 2.223 . S
Cd618 O628 2.297 . S
Cd618 O629 2.439 . S
O619 Cd618 2.240 . S
O619 C624 1.279 . S
O620 Cd617 2.297 . S
O620 C622 1.247 . S
O621 Cd617 2.439 . S
O621 C622 1.208 . S
C622 O620 1.247 . S
C622 O621 1.208 . S
C623 O628 1.247 . S
C623 O629 1.208 . S
C624 O616 1.315 . S
C624 O619 1.279 . S
C625 O626 1.315 . S
C625 O627 1.279 . S
O626 Cd618 2.223 . S
O626 C625 1.315 . S
O627 Cd617 2.240 . S
O627 C625 1.279 . S
O628 Cd618 2.297 . S
O628 C623 1.247 . S
O629 Cd618 2.439 . S
O629 C623 1.208 . S
O630 Cd631 2.223 . S
O630 C638 1.315 1_556 S
Cd631 O630 2.223 . S
Cd631 O634 2.297 . S
Cd631 O635 2.439 1_556 S
Cd631 O641 2.240 1_556 S
Cd632 O633 2.240 . S
Cd632 O640 2.223 . S
Cd632 O642 2.297 . S
Cd632 O643 2.439 . S
O633 Cd632 2.240 . S
O633 C638 1.279 . S
O634 Cd631 2.297 . S
O634 C636 1.247 . S
O635 Cd631 2.439 1_554 S
O635 C636 1.208 1_554 S
C636 O634 1.247 . S
C636 O635 1.208 1_556 S
C637 O642 1.247 . S
C637 O643 1.208 . S
C638 O630 1.315 1_554 S
C638 O633 1.279 . S
C639 O640 1.315 . S
C639 O641 1.279 . S
O640 Cd632 2.223 . S
O640 C639 1.315 . S
O641 Cd631 2.240 1_554 S
O641 C639 1.279 . S
O642 Cd632 2.297 . S
O642 C637 1.247 . S
O643 Cd632 2.439 . S
O643 C637 1.208 . S
O644 Cd645 2.223 . S
O644 C652 1.315 1_556 S
Cd645 O644 2.223 . S
Cd645 O648 2.297 . S
Cd645 O649 2.439 1_556 S
Cd645 O655 2.240 1_556 S
Cd646 O647 2.240 . S
Cd646 O654 2.223 . S
Cd646 O656 2.297 . S
Cd646 O657 2.439 . S
O647 Cd646 2.240 . S
O647 C652 1.279 . S
O648 Cd645 2.297 . S
O648 C650 1.247 . S
O649 Cd645 2.439 1_554 S
O649 C650 1.208 1_554 S
C650 O648 1.247 . S
C650 O649 1.208 1_556 S
C651 O656 1.247 . S
C651 O657 1.208 . S
C652 O644 1.315 1_554 S
C652 O647 1.279 . S
C653 O654 1.315 . S
C653 O655 1.279 . S
O654 Cd646 2.223 . S
O654 C653 1.315 . S
O655 Cd645 2.240 1_554 S
O655 C653 1.279 . S
O656 Cd646 2.297 . S
O656 C651 1.247 . S
O657 Cd646 2.439 . S
O657 C651 1.208 . S
O658 Cd659 2.223 . S
O658 C666 1.315 1_554 S
Cd659 O658 2.223 . S
Cd659 O662 2.297 . S
Cd659 O663 2.439 1_554 S
Cd659 O669 2.240 1_554 S
Cd660 O661 2.240 . S
Cd660 O668 2.223 . S
Cd660 O670 2.297 . S
Cd660 O671 2.439 . S
O661 Cd660 2.240 . S
O661 C666 1.279 . S
O662 Cd659 2.297 . S
O662 C664 1.247 . S
O663 Cd659 2.439 1_556 S
O663 C664 1.208 1_556 S
C664 O662 1.247 . S
C664 O663 1.208 1_554 S
C665 O670 1.247 . S
C665 O671 1.208 . S
C666 O658 1.315 1_556 S
C666 O661 1.279 . S
C667 O668 1.315 . S
C667 O669 1.279 . S
O668 Cd660 2.223 . S
O668 C667 1.315 . S
O669 Cd659 2.240 1_556 S
O669 C667 1.279 . S
O670 Cd660 2.297 . S
O670 C665 1.247 . S
O671 Cd660 2.439 . S
O671 C665 1.208 . S
C20 C6 2.609 1_455 S
C34 C48 2.609 1_655 S
C90 C62 2.609 1_545 S
C104 C76 2.609 . S
C118 C482 2.609 1_556 S
C132 C160 2.609 . S
C454 C146 2.609 . S
C188 C174 2.609 1_655 S
C216 C202 2.609 1_655 S
C258 C230 2.609 1_565 S
C272 C244 2.609 . S
C286 C650 2.609 1_554 S
C300 C328 2.609 . S
C622 C314 2.609 . S
C342 C356 2.609 . S
C384 C370 2.609 . S
C398 C426 2.609 . S
C440 C412 2.609 1_565 S
C496 C468 2.609 1_556 S
C524 C510 2.609 . S
C538 C552 2.609 . S
C594 C566 2.609 . S
C580 C608 2.609 1_565 S
C636 C664 2.609 1_556 S
C623 C8 1.729 . S
C329 C22 1.729 . S
C637 C36 1.729 . S
C50 C651 1.729 . S
C64 C511 1.729 . S
C525 C78 1.729 . S
C92 C539 1.729 . S
C553 C106 1.729 . S
C567 C120 1.729 . S
C134 C595 1.729 . S
C609 C148 1.729 . S
C162 C245 1.729 . S
C176 C455 1.729 . S
C190 C161 1.729 . S
C204 C469 1.729 . S
C218 C483 1.729 . S
C343 C232 1.729 . S
C357 C246 1.729 . S
C260 C371 1.729 . S
C274 C385 1.729 . S
C288 C399 1.729 . S
C302 C427 1.729 . S
C441 C316 1.729 . S
C77 C330 1.729 . S
C344 C287 1.729 . S
C358 C665 1.729 . S
C372 C301 1.729 . S
C386 C315 1.729 . S
C175 C400 1.729 . S
C414 C189 1.729 . S
C203 C428 1.729 . S
C217 C442 1.729 . S
C231 C456 1.729 . S
C259 C470 1.729 . S
C484 C273 1.729 . S
C498 C581 1.729 . S
C119 C512 1.729 . S
C526 C497 1.729 . S
C540 C133 1.729 . S
C147 C554 1.729 . S
C568 C7 1.729 . S
C582 C21 1.729 . S
C35 C596 1.729 . S
C610 C49 1.729 . S
C624 C63 1.729 . S
C91 C638 1.729 . S
C652 C105 1.729 . S
C413 C666 1.729 . S
C37 C9 1.671 . S
C51 C23 1.671 1_565 S
C443 C65 1.671 . S
C429 C79 1.671 . S
C415 C93 1.671 1_556 S
C107 C401 1.672 1_554 S
C121 C499 1.671 . S
C149 C135 1.671 . S
C163 C457 1.672 1_455 S
C205 C177 1.671 . S
C219 C191 1.671 1_545 S
C611 C233 1.671 . S
C597 C247 1.671 . S
C261 C583 1.671 1_556 S
C275 C569 1.672 1_556 S
C667 C289 1.671 . S
C317 C303 1.671 . S
C331 C625 1.672 1_655 S
C373 C345 1.672 1_545 S
C359 C387 1.671 . S
C485 C471 1.671 1_455 S
C513 C541 1.672 1_545 S
C527 C555 1.671 . S
C639 C653 1.671 1_455 S
