# Generated by pormake.
# Topology vby, (6)-cn, num edge types: 1
# Building blocks:
#     Node 0, Type 0, BuildingBlock: PAMTOO_clean_sbu_0, # of connection points: 6
#     Node 1, Type 0, BuildingBlock: PAMTOO_clean_sbu_0, # of connection points: 6
#     Node 2, Type 0, BuildingBlock: PAMTOO_clean_sbu_0, # of connection points: 6
#     Node 3, Type 0, BuildingBlock: PAMTOO_clean_sbu_0, # of connection points: 6
#     Node 4, Type 0, BuildingBlock: PAMTOO_clean_sbu_0, # of connection points: 6
#     Node 5, Type 0, BuildingBlock: PAMTOO_clean_sbu_0, # of connection points: 6
#     Node 6, Type 0, BuildingBlock: PAMTOO_clean_sbu_0, # of connection points: 6
#     Node 7, Type 0, BuildingBlock: PAMTOO_clean_sbu_0, # of connection points: 6
#     Edge 8, Type (0, 0), BuildingBlock: EZIPEK_clean_linker_0, # of connection points: 2
#     Edge 9, Type (0, 0), BuildingBlock: EZIPEK_clean_linker_0, # of connection points: 2
#     Edge 10, Type (0, 0), BuildingBlock: EZIPEK_clean_linker_0, # of connection points: 2
#     Edge 11, Type (0, 0), BuildingBlock: EZIPEK_clean_linker_0, # of connection points: 2
#     Edge 12, Type (0, 0), BuildingBlock: EZIPEK_clean_linker_0, # of connection points: 2
#     Edge 13, Type (0, 0), BuildingBlock: EZIPEK_clean_linker_0, # of connection points: 2
#     Edge 14, Type (0, 0), BuildingBlock: EZIPEK_clean_linker_0, # of connection points: 2
#     Edge 15, Type (0, 0), BuildingBlock: EZIPEK_clean_linker_0, # of connection points: 2
#     Edge 16, Type (0, 0), BuildingBlock: EZIPEK_clean_linker_0, # of connection points: 2
#     Edge 17, Type (0, 0), BuildingBlock: EZIPEK_clean_linker_0, # of connection points: 2
#     Edge 18, Type (0, 0), BuildingBlock: EZIPEK_clean_linker_0, # of connection points: 2
#     Edge 19, Type (0, 0), BuildingBlock: EZIPEK_clean_linker_0, # of connection points: 2
#     Edge 20, Type (0, 0), BuildingBlock: EZIPEK_clean_linker_0, # of connection points: 2
#     Edge 21, Type (0, 0), BuildingBlock: EZIPEK_clean_linker_0, # of connection points: 2
#     Edge 22, Type (0, 0), BuildingBlock: EZIPEK_clean_linker_0, # of connection points: 2
#     Edge 23, Type (0, 0), BuildingBlock: EZIPEK_clean_linker_0, # of connection points: 2
#     Edge 24, Type (0, 0), BuildingBlock: EZIPEK_clean_linker_0, # of connection points: 2
#     Edge 25, Type (0, 0), BuildingBlock: EZIPEK_clean_linker_0, # of connection points: 2
#     Edge 26, Type (0, 0), BuildingBlock: EZIPEK_clean_linker_0, # of connection points: 2
#     Edge 27, Type (0, 0), BuildingBlock: EZIPEK_clean_linker_0, # of connection points: 2
#     Edge 28, Type (0, 0), BuildingBlock: EZIPEK_clean_linker_0, # of connection points: 2
#     Edge 29, Type (0, 0), BuildingBlock: EZIPEK_clean_linker_0, # of connection points: 2
#     Edge 30, Type (0, 0), BuildingBlock: EZIPEK_clean_linker_0, # of connection points: 2
#     Edge 31, Type (0, 0), BuildingBlock: EZIPEK_clean_linker_0, # of connection points: 2
# Relax obj value: 0.143
# Max RMSD: 0.198
# Mean RMSD: 0.188
data_MOF--net-vby--node1-PAMTOO_clean_sbu_0--edge1-EZIPEK_clean_linker_0
_symmetry_space_group_name_H-M    P1
_symmetry_Int_Tables_number       1
_symmetry_cell_setting            triclinic
loop_
_symmetry_equiv_pos_as_xyz
'x, y, z'
_cell_length_a     11.315791
_cell_length_b     88.701931
_cell_length_c     22.142482
_cell_angle_alpha  85.658901
_cell_angle_beta   94.31623
_cell_angle_gamma 89.238686
loop_
_atom_site_label
_atom_site_type_symbol
_atom_site_fract_x
_atom_site_fract_y
_atom_site_fract_z
_atom_type_partial_charge
Dy0 Dy 0.07019 0.40968 0.0015 0.0
Dy1 Dy 0.07526 0.3714 0.03523 0.0
C2 C 0.04798 0.39478 0.13947 0.0
O3 O 0.25408 0.40107 -0.00793 0.0
O4 O 0.26477 0.37798 0.04777 0.0
O5 O 0.16098 0.43059 0.01301 0.0
O6 O 1.00722 0.43019 0.9482 0.0
O7 O 0.11728 0.37527 0.93869 0.0
O8 O 1.03038 0.39883 0.9152 0.0
O9 O 0.88381 0.37883 0.02262 0.0
O10 O 0.88074 0.40509 0.01403 0.0
O11 O 1.00754 0.34979 0.0119 0.0
O12 O 0.13092 0.35106 0.09115 0.0
C13 C 0.31481 0.38962 0.02056 0.0
O14 O 0.05667 0.40689 0.1019 0.0
O15 O 0.05118 0.38087 0.12326 0.0
C16 C 0.05992 0.45422 0.98451 0.0
C17 C 0.03873 0.48554 -0.00236 0.0
C18 C 0.07732 0.47554 0.04769 0.0
C19 C 0.08801 0.45999 0.04122 0.0
C20 C 1.01745 0.46422 0.93517 0.0
C21 C 1.00678 0.47973 0.94165 0.0
C22 C 0.08932 0.43842 0.97315 0.0
C23 C 0.07252 0.386 0.89932 0.0
C24 C 0.82735 0.39202 0.01861 0.0
C25 C 0.1211 0.32762 0.04579 0.0
C26 C 0.20387 0.2986 0.02386 0.0
C27 C 0.21708 0.31094 0.98128 0.0
C28 C 0.17581 0.3254 -0.00784 0.0
C29 C 0.11026 0.31533 0.08863 0.0
C30 C 0.15122 0.30094 0.07778 0.0
C31 C 0.06807 0.34229 0.0572 0.0
H32 H 0.10221 0.47984 0.09127 0.0
H33 H 0.12186 0.45259 0.07998 0.0
H34 H 0.99675 0.46009 0.89084 0.0
H35 H 0.97693 0.48728 0.90255 0.0
H36 H 0.25761 0.30931 0.93942 0.0
H37 H 0.18481 0.33474 0.95849 0.0
H38 H 0.06793 0.31683 0.13013 0.0
H39 H 0.1404 0.29156 0.11106 0.0
Dy40 Dy 0.99381 0.66389 0.96955 0.0
Dy41 Dy 0.99924 0.62597 0.01005 0.0
C42 C 0.99638 0.65105 0.10777 0.0
O43 O 0.18543 0.65654 0.98381 0.0
O44 O 0.18836 0.6303 -0.00426 0.0
O45 O 0.06332 0.68576 -0.01239 0.0
O46 O 0.93595 0.68366 0.91059 0.0
O47 O 1.01207 0.62753 0.9093 0.0
O48 O 1.01664 0.65336 0.88356 0.0
O49 O 0.8145 0.63454 0.01686 0.0
O50 O 0.80408 0.65733 0.95895 0.0
O51 O 0.90805 0.60495 0.00277 0.0
O52 O 0.06345 0.60591 0.06616 0.0
C53 C 0.24182 0.64333 -0.01069 0.0
O54 O 0.95255 0.66138 0.06646 0.0
O55 O 0.03678 0.63784 0.09459 0.0
C56 C 0.94365 0.70748 0.95326 0.0
C57 C 0.85972 0.73676 0.97084 0.0
C58 C 0.88368 0.72613 0.02074 0.0
C59 C 0.92532 0.71157 0.01205 0.0
C60 C 0.91698 0.71804 0.90346 0.0
C61 C 0.87519 0.73256 0.91213 0.0
C62 C 0.99888 0.69284 0.94261 0.0
C63 C 1.02015 0.63924 0.86962 0.0
C64 C 0.75402 0.64585 -0.01274 0.0
C65 C 1.00896 0.58161 0.03389 0.0
C66 C 1.03063 0.55044 0.01861 0.0
C67 C 1.02639 0.56105 0.96796 0.0
C68 C 1.01526 0.57656 0.97551 0.0
C69 C 1.01722 0.57099 0.08443 0.0
C70 C 1.02778 0.55554 0.07689 0.0
C71 C 0.98018 0.59749 0.04351 0.0
H72 H 0.87189 0.72921 0.06635 0.0
H73 H 0.94531 0.70364 0.05126 0.0
H74 H 0.9311 0.71516 0.85782 0.0
H75 H 0.85702 0.74062 0.87317 0.0
H76 H 1.02845 0.55728 0.92264 0.0
H77 H 1.00823 0.58453 0.93581 0.0
H78 H 1.01141 0.57463 0.12976 0.0
H79 H 1.03096 0.54752 0.11642 0.0
Dy80 Dy 0.05755 0.66309 0.50217 0.0
Dy81 Dy 0.06526 0.62572 0.48161 0.0
C82 C 0.04232 0.65076 0.36721 0.0
O83 O 0.86737 0.65716 0.49228 0.0
O84 O 0.87313 0.631 0.49303 0.0
O85 O 1.00372 0.68628 0.47597 0.0
O86 O 0.11005 0.68071 0.56049 0.0
O87 O 0.10023 0.62788 0.58108 0.0
O88 O 1.00535 0.6507 0.58715 0.0
O89 O 0.23946 0.63512 0.45755 0.0
O90 O 0.24683 0.65526 0.51667 0.0
O91 O 0.1632 0.60455 0.4963 0.0
O92 O 0.9937 0.60572 0.44306 0.0
C93 C 0.81465 0.64406 0.49134 0.0
O94 O 0.06518 0.66207 0.40142 0.0
O95 O 0.03247 0.63673 0.38899 0.0
C96 C 0.12114 0.70605 0.51638 0.0
C97 C 0.20806 0.73578 0.51029 0.0
C98 C 0.14987 0.73009 0.45883 0.0
C99 C 0.1065 0.71535 0.46183 0.0
C100 C 0.18275 0.71169 0.56723 0.0
C101 C 0.22611 0.72639 0.56415 0.0
C102 C 0.05939 0.69146 0.52364 0.0
C103 C 0.0515 0.6379 0.61247 0.0
C104 C 0.29931 0.64519 0.48697 0.0
C105 C 0.06257 0.58122 0.48466 0.0
C106 C 0.05357 0.54961 0.50764 0.0
C107 C 0.11466 0.55835 0.54964 0.0
C108 C 0.11945 0.57407 0.53819 0.0
C109 C 0.9977 0.57244 0.44411 0.0
C110 C 0.99318 0.55677 0.4555 0.0
C111 C 0.08371 0.59718 0.4652 0.0
H112 H 0.13511 0.7372 0.4169 0.0
H113 H 0.05821 0.71146 0.42205 0.0
H114 H 0.19376 0.7049 0.61013 0.0
H115 H 0.27071 0.73062 0.60431 0.0
H116 H 0.1618 0.55294 0.59011 0.0
H117 H 0.17111 0.58052 0.56999 0.0
H118 H 0.9546 0.57764 0.40216 0.0
H119 H 0.94576 0.55017 0.42266 0.0
Dy120 Dy 1.00365 0.37086 0.5159 0.0
Dy121 Dy 0.99249 0.40854 0.52496 0.0
C122 C 1.00629 0.39485 0.39736 0.0
O123 O 0.19134 0.37719 0.51017 0.0
O124 O 0.18765 0.40286 0.5248 0.0
O125 O 1.02933 0.35095 0.46677 0.0
O126 O 0.98915 0.34869 0.56122 0.0
O127 O 0.95703 0.39651 0.61347 0.0
O128 O 0.07902 0.37622 0.60748 0.0
O129 O 0.80932 0.40162 0.49629 0.0
O130 O 0.81662 0.37664 0.53294 0.0
O131 O 0.0417 0.42774 0.57549 0.0
O132 O 0.91005 0.43039 0.49868 0.0
C133 C 0.24426 0.39014 0.51592 0.0
O134 O 0.97134 0.38168 0.42094 0.0
O135 O 1.0318 0.40629 0.42991 0.0
C136 C 0.94047 0.32782 0.50231 0.0
C137 C 0.84742 0.29872 0.49115 0.0
C138 C 0.91276 0.3055 0.44541 0.0
C139 C 0.95926 0.31991 0.45105 0.0
C140 C 0.87086 0.32119 0.54692 0.0
C141 C 0.82471 0.30676 0.5413 0.0
C142 C 1.00837 0.34166 0.51316 0.0
C143 C 1.0258 0.38561 0.63968 0.0
C144 C 0.75714 0.38912 0.51382 0.0
C145 C 1.00518 0.45288 0.52873 0.0
C146 C 0.04182 0.48431 0.52115 0.0
C147 C 0.11961 0.47456 0.55847 0.0
C148 C 0.10124 0.45895 0.56242 0.0
C149 C 0.93049 0.46269 0.48962 0.0
C150 C 0.94879 0.47827 0.48581 0.0
C151 C 0.96983 0.43702 0.54151 0.0
H152 H 0.93125 0.29942 0.40646 0.0
H153 H 1.01404 0.32461 0.41648 0.0
H154 H 0.85582 0.32685 0.58738 0.0
H155 H 0.77447 0.30166 0.57702 0.0
H156 H 0.1917 0.47909 0.58614 0.0
H157 H 0.15921 0.45174 0.59372 0.0
H158 H 0.85447 0.45842 0.46398 0.0
H159 H 0.88786 0.48567 0.45689 0.0
Dy160 Dy 0.57546 0.90912 -0.01418 0.0
Dy161 Dy 0.57818 0.87078 0.01574 0.0
C162 C 0.5477 0.89357 0.122 0.0
O163 O 0.76046 0.90067 0.97837 0.0
O164 O 0.76881 0.87682 0.0283 0.0
O165 O 0.66837 0.92973 -0.00035 0.0
O166 O 0.51346 0.93005 0.93518 0.0
O167 O 0.62297 0.87506 0.91987 0.0
O168 O 0.53761 0.89879 0.89801 0.0
O169 O 0.3871 0.87844 0.00142 0.0
O170 O 0.38611 0.90464 -0.00056 0.0
O171 O 0.51227 0.84931 -0.01056 0.0
O172 O 0.62747 0.85027 0.07188 0.0
C173 C 0.81983 0.88878 0.0041 0.0
O174 O 0.55658 0.90586 0.08556 0.0
O175 O 0.55459 0.87979 0.10463 0.0
C176 C 0.56742 0.95347 0.97631 0.0
C177 C 0.54803 0.9843 -0.00179 0.0
C178 C 0.57638 0.97336 0.04659 0.0
C179 C 0.58631 0.95804 0.03573 0.0
C180 C 0.53453 0.96439 0.92856 0.0
C181 C 0.52478 0.97966 0.93939 0.0
C182 C 0.59642 0.93796 0.96128 0.0
C183 C 0.58005 0.88606 0.88127 0.0
C184 C 0.33164 0.89163 0.00106 0.0
C185 C 0.62206 0.82699 0.02562 0.0
C186 C 0.70894 0.79803 0.00579 0.0
C187 C 0.72724 0.81042 0.9643 0.0
C188 C 0.68393 0.82486 0.97415 0.0
C189 C 0.60601 0.81464 0.06743 0.0
C190 C 0.64902 0.80027 0.05762 0.0
C191 C 0.56784 0.84165 0.03594 0.0
H192 H 0.5941 0.97675 0.09233 0.0
H193 H 0.61241 0.94987 0.07338 0.0
H194 H 0.52074 0.96116 0.88235 0.0
H195 H 0.50248 0.98793 0.90156 0.0
H196 H 0.77339 0.80886 0.92405 0.0
H197 H 0.69714 0.83426 0.94135 0.0
H198 H 0.55826 0.81606 0.10731 0.0
H199 H 0.63422 0.79084 0.09003 0.0
Dy200 Dy 0.49121 0.16436 0.96704 0.0
Dy201 Dy 0.48893 0.12618 0.97798 0.0
C202 C 0.50991 0.14494 0.0944 0.0
O203 O 0.68213 0.15728 0.98284 0.0
O204 O 0.68024 0.13159 0.96876 0.0
O205 O 0.54571 0.18542 0.00242 0.0
O206 O 0.44389 0.18553 0.91517 0.0
O207 O 0.4345 0.13474 0.88244 0.0
O208 O 0.54157 0.15641 0.87959 0.0
O209 O 0.30622 0.13379 -0.00538 0.0
O210 O 0.30029 0.1583 0.95123 0.0
O211 O 0.51531 0.1052 0.9367 0.0
O212 O 0.43867 0.10505 0.02389 0.0
C213 C 0.73612 0.14435 0.97604 0.0
O214 O 0.45881 0.15667 0.06251 0.0
O215 O 0.55168 0.13323 0.06923 0.0
C216 C 0.43313 0.20795 0.96809 0.0
C217 C 0.34779 0.23716 -0.01341 0.0
C218 C 0.38383 0.22698 0.03645 0.0
C219 C 0.42638 0.21248 0.02733 0.0
C220 C 0.39371 0.21805 0.91847 0.0
C221 C 0.35121 0.23251 0.92762 0.0
C222 C 0.49362 0.19367 0.95641 0.0
C223 C 0.49145 0.14528 0.8525 0.0
C224 C 0.24781 0.14616 0.97325 0.0
C225 C 0.51331 0.08117 -0.00474 0.0
C226 C 0.54255 0.04938 0.00969 0.0
C227 C 0.57986 0.05756 0.95805 0.0
C228 C 0.5652 0.0733 0.95082 0.0
C229 C 0.4818 0.07299 0.04848 0.0
C230 C 0.49682 0.05724 0.05575 0.0
C231 C 0.47102 0.09702 0.98072 0.0
H232 H 0.3817 0.2304 0.0823 0.0
H233 H 0.45699 0.20502 0.06652 0.0
H234 H 0.3994 0.21494 0.87238 0.0
H235 H 0.3239 0.24023 0.88865 0.0
H236 H 0.61534 0.05169 0.92205 0.0
H237 H 0.58863 0.07919 0.90887 0.0
H238 H 0.43976 0.07865 0.08312 0.0
H239 H 0.46759 0.0511 0.09593 0.0
Dy240 Dy 0.55588 0.16391 0.47093 0.0
Dy241 Dy 0.57197 0.12602 0.48048 0.0
C242 C 0.54514 0.14548 0.35541 0.0
O243 O 0.37039 0.15667 0.48353 0.0
O244 O 0.37636 0.13119 0.46638 0.0
O245 O 0.57938 0.1852 0.41977 0.0
O246 O 0.50806 0.18488 0.5081 0.0
O247 O 0.51695 0.13274 0.56903 0.0
O248 O 0.60712 0.15582 0.56766 0.0
O249 O 0.75618 0.13388 0.50177 0.0
O250 O 0.74481 0.15817 0.45661 0.0
O251 O 0.64022 0.10502 0.52667 0.0
O252 O 0.54178 0.10504 0.4383 0.0
C253 C 0.31835 0.14375 0.47513 0.0
O254 O 0.49045 0.15601 0.38153 0.0
O255 O 0.60936 0.1349 0.38727 0.0
C256 C 0.6025 0.2075 0.47351 0.0
C257 C 0.6935 0.23673 0.48317 0.0
C258 C 0.75125 0.22626 0.4505 0.0
C259 C 0.70606 0.21173 0.44562 0.0
C260 C 0.54745 0.21788 0.50779 0.0
C261 C 0.59263 0.23237 0.51267 0.0
C262 C 0.54192 0.19322 0.46174 0.0
C263 C 0.55736 0.14439 0.59676 0.0
C264 C 0.80627 0.14606 0.47888 0.0
C265 C 0.55911 0.08138 0.49874 0.0
C266 C 0.52951 0.05002 0.52259 0.0
C267 C 0.55619 0.05919 0.57062 0.0
C268 C 0.57151 0.07476 0.55878 0.0
C269 C 0.52681 0.07223 0.4513 0.0
C270 C 0.51196 0.05671 0.46312 0.0
C271 C 0.59862 0.09693 0.48327 0.0
H272 H 0.82929 0.22947 0.42747 0.0
H273 H 0.75008 0.20402 0.41856 0.0
H274 H 0.46688 0.21496 0.52913 0.0
H275 H 0.54705 0.24032 0.53805 0.0
H276 H 0.56966 0.05419 0.61684 0.0
H277 H 0.59775 0.08146 0.59626 0.0
H278 H 0.51854 0.07696 0.40456 0.0
H279 H 0.49114 0.04981 0.42554 0.0
Dy280 Dy 0.49253 0.87171 0.49382 0.0
Dy281 Dy 0.47857 0.90967 0.50016 0.0
C282 C 0.48898 0.89421 0.37719 0.0
O283 O 0.68046 0.87848 0.49278 0.0
O284 O 0.67399 0.90419 0.50606 0.0
O285 O 0.44837 0.85233 0.4442 0.0
O286 O 0.55018 0.8493 0.53163 0.0
O287 O 0.54099 0.90121 0.5938 0.0
O288 O 0.48706 0.87612 0.59198 0.0
O289 O 0.30026 0.90115 0.52041 0.0
O290 O 0.30065 0.87828 0.47755 0.0
O291 O 0.40551 0.92968 0.53426 0.0
O292 O 0.51629 0.93171 0.458 0.0
C293 C 0.73236 0.89144 0.50029 0.0
O294 O 0.54354 0.88242 0.40595 0.0
O295 O 0.42852 0.90371 0.40569 0.0
C296 C 0.44157 0.82801 0.49842 0.0
C297 C 0.3557 0.79826 0.50742 0.0
C298 C 0.2909 0.80976 0.47184 0.0
C299 C 0.33342 0.82453 0.46732 0.0
C300 C 0.50377 0.81657 0.53573 0.0
C301 C 0.46107 0.80183 0.54034 0.0
C302 C 0.49925 0.8427 0.486 0.0
C303 C 0.52415 0.88784 0.62102 0.0
C304 C 0.24511 0.88951 0.49934 0.0
C305 C 0.49261 0.95387 0.51243 0.0
C306 C 0.5195 0.98476 0.53164 0.0
C307 C 0.46958 0.97499 0.57521 0.0
C308 C 0.45572 0.95967 0.56558 0.0
C309 C 0.54835 0.96357 0.47061 0.0
C310 C 0.56191 0.97886 0.48022 0.0
C311 C 0.45412 0.93882 0.49471 0.0
H312 H 0.20934 0.80719 0.44614 0.0
H313 H 0.28377 0.83304 0.43778 0.0
H314 H 0.58801 0.81888 0.55951 0.0
H315 H 0.51218 0.79309 0.568 0.0
H316 H 0.43649 0.97937 0.6152 0.0
H317 H 0.41092 0.95257 0.59829 0.0
H318 H 0.57593 0.95953 0.42881 0.0
H319 H 0.60072 0.98625 0.44616 0.0
C320 C 0.50956 0.40028 0.05707 0.0
C321 C 0.44602 0.39004 0.0211 0.0
C322 C 0.62966 0.38312 0.97683 0.0
C323 C 0.69549 0.39196 0.01802 0.0
N324 N 0.69888 0.40754 0.10324 0.0
N325 N 0.4462 0.37041 0.95146 0.0
C326 C 0.63566 0.40024 0.05954 0.0
C327 C 0.50646 0.38099 0.98269 0.0
N328 N 0.44929 0.41018 0.08849 0.0
N329 N 0.6833 0.37754 0.92965 0.0
H330 H 0.35509 0.36896 0.95242 0.0
H331 H 0.48786 0.36232 0.92825 0.0
H332 H 0.77145 0.37961 0.9216 0.0
H333 H 0.63763 0.3723 0.89466 0.0
H334 H 0.48913 0.41916 0.10937 0.0
H335 H 0.35749 0.41016 0.08999 0.0
H336 H 0.66076 0.41209 0.13935 0.0
H337 H 0.79098 0.40798 0.10699 0.0
C338 C 0.43352 0.63504 0.94849 0.0
C339 C 0.37369 0.64333 -0.01001 0.0
C340 C 0.56242 0.65437 0.02522 0.0
C341 C 0.62286 0.64544 -0.01353 0.0
N342 N 0.62033 0.6255 0.91818 0.0
N343 N 0.38562 0.65769 0.0784 0.0
C344 C 0.55962 0.63521 0.95033 0.0
C345 C 0.43937 0.65218 0.03114 0.0
N346 N 0.37017 0.6275 0.90557 0.0
N347 N 0.62257 0.66493 0.05663 0.0
H348 H 0.2977 0.65549 0.08645 0.0
H349 H 0.43096 0.66297 0.1134 0.0
H350 H 0.71356 0.66646 0.05541 0.0
H351 H 0.58094 0.67295 0.08023 0.0
H352 H 0.40771 0.62293 0.86935 0.0
H353 H 0.27822 0.62678 0.90283 0.0
H354 H 0.58129 0.61651 0.89712 0.0
H355 H 0.71197 0.62577 0.91597 0.0
C356 C 0.61386 0.65489 0.4496 0.0
C357 C 0.68209 0.64423 0.48996 0.0
C358 C 0.49733 0.63347 0.52463 0.0
C359 C 0.43073 0.64492 0.48825 0.0
N360 N 0.42721 0.66858 0.42686 0.0
N361 N 0.68662 0.62626 0.57774 0.0
C362 C 0.48951 0.65627 0.45415 0.0
C363 C 0.62328 0.63421 0.53052 0.0
N364 N 0.6661 0.66332 0.40505 0.0
N365 N 0.44051 0.62199 0.55454 0.0
H366 H 0.77745 0.62746 0.58674 0.0
H367 H 0.64758 0.61992 0.61216 0.0
H368 H 0.34849 0.62152 0.55463 0.0
H369 H 0.48462 0.61241 0.57585 0.0
H370 H 0.61798 0.6698 0.37014 0.0
H371 H 0.75627 0.66286 0.39903 0.0
H372 H 0.46748 0.67803 0.40718 0.0
H373 H 0.33604 0.67 0.42882 0.0
C374 C 0.57129 0.39684 0.55917 0.0
C375 C 0.62623 0.38935 0.51396 0.0
C376 C 0.43079 0.38356 0.46649 0.0
C377 C 0.37589 0.39002 0.51464 0.0
N378 N 0.39759 0.3987 0.61544 0.0
N379 N 0.61079 0.37364 0.42971 0.0
C380 C 0.44707 0.39565 0.5632 0.0
C381 C 0.55666 0.38208 0.46925 0.0
N382 N 0.63764 0.40499 0.59881 0.0
N383 N 0.36331 0.37929 0.41703 0.0
H384 H 0.70263 0.37275 0.42882 0.0
H385 H 0.56526 0.3666 0.40079 0.0
H386 H 0.27111 0.37994 0.41293 0.0
H387 H 0.39869 0.37629 0.37747 0.0
H388 H 0.60037 0.4121 0.62791 0.0
H389 H 0.72964 0.40557 0.59959 0.0
H390 H 0.44675 0.40145 0.65463 0.0
H391 H 0.30913 0.39662 0.6222 0.0
C392 C 1.0103 0.88152 0.96174 0.0
C393 C 0.95103 0.88913 0.00507 0.0
C394 C 0.14127 0.89856 0.04666 0.0
C395 C 0.19978 0.89166 0.00084 0.0
N396 N 0.18515 0.88013 0.90556 0.0
N397 N 0.9555 0.90672 0.08299 0.0
C398 C 0.13292 0.88406 0.95594 0.0
C399 C 1.01526 0.89823 0.04571 0.0
N400 N 0.94948 0.87189 0.92594 0.0
N401 N 0.20587 0.90491 0.09253 0.0
H402 H 0.8641 0.90618 0.08589 0.0
H403 H 0.99496 0.91502 0.10811 0.0
H404 H 0.29771 0.90575 0.09468 0.0
H405 H 0.16969 0.90834 0.13124 0.0
H406 H 0.99046 0.86477 0.89819 0.0
H407 H 0.85887 0.8701 0.92749 0.0
H408 H 0.13892 0.87585 0.86833 0.0
H409 H 0.27244 0.88279 0.89788 0.0
C410 C 0.0454 0.14614 0.9182 0.0
C411 C 0.11664 0.14618 0.97372 0.0
C412 C 0.939 0.14332 0.03077 0.0
C413 C 0.86723 0.14443 0.97521 0.0
N414 N 0.84945 0.14922 0.86619 0.0
N415 N 0.13194 0.14718 0.0825 0.0
C416 C 0.91973 0.14649 0.91893 0.0
C417 C 0.0636 0.14539 0.03 0.0
N418 N 0.09784 0.14514 0.86493 0.0
N419 N 0.88813 0.14002 0.08418 0.0
H420 H 0.22294 0.14895 0.08341 0.0
H421 H 0.09765 0.14821 0.12433 0.0
H422 H 0.7971 0.13865 0.08637 0.0
H423 H 0.93636 0.13749 0.12569 0.0
H424 H 0.05117 0.14329 0.8239 0.0
H425 H 0.18949 0.14494 0.86243 0.0
H426 H 0.88186 0.15253 0.82455 0.0
H427 H 0.75734 0.14928 0.86476 0.0
C428 C 0.11539 0.14526 0.42022 0.0
C429 C 0.18714 0.14357 0.47578 0.0
C430 C 1.00979 0.14519 0.53291 0.0
C431 C 0.93747 0.14587 0.47751 0.0
N432 N 0.91866 0.14456 0.36877 0.0
N433 N 0.20404 0.13989 0.58504 0.0
C434 C 0.98954 0.14542 0.42118 0.0
C435 C 0.13462 0.14296 0.53218 0.0
N436 N 0.16777 0.14713 0.36653 0.0
N437 N 0.95932 0.14722 0.58601 0.0
H438 H 0.29552 0.13828 0.58614 0.0
H439 H 0.17076 0.13773 0.62733 0.0
H440 H 0.86836 0.1489 0.58821 0.0
H441 H 1.00771 0.14848 0.62712 0.0
H442 H 0.12156 0.15025 0.32493 0.0
H443 H 0.2593 0.14651 0.3639 0.0
H444 H 0.9505 0.14242 0.3273 0.0
H445 H 0.82643 0.14491 0.36734 0.0
C446 C 0.92181 0.90104 0.45903 0.0
C447 C 0.86441 0.89137 0.50157 0.0
C448 C 0.0575 0.87983 0.54061 0.0
C449 C 0.11388 0.8895 0.49812 0.0
N450 N 0.1027 0.9076 0.41122 0.0
N451 N 0.87519 0.8713 0.58225 0.0
C452 C 0.04687 0.89974 0.45613 0.0
C453 C 0.93178 0.88068 0.54218 0.0
N454 N 0.85652 0.91133 0.42066 0.0
N455 N 0.12519 0.87009 0.58034 0.0
H456 H 0.78572 0.87245 0.58943 0.0
H457 H 0.91501 0.86212 0.60826 0.0
H458 H 0.21579 0.86839 0.57732 0.0
H459 H 0.09406 0.86386 0.61731 0.0
H460 H 0.8926 0.9201 0.39457 0.0
H461 H 0.76446 0.91151 0.41593 0.0
H462 H 0.05938 0.91411 0.37499 0.0
H463 H 0.19373 0.90678 0.40731 0.0
C464 C 0.14296 0.52606 0.01078 0.0
C465 C 0.03291 0.5339 0.01099 0.0
C466 C 0.92729 0.50991 0.0071 0.0
C467 C 0.0367 0.5022 0.00287 0.0
N468 N 0.24675 0.50302 -0.00888 0.0
N469 N 0.81932 0.53389 0.00091 0.0
C470 C 0.14415 0.5103 0.00212 0.0
C471 C 0.92467 0.52598 0.00663 0.0
N472 N 0.24641 0.53362 0.02027 0.0
N473 N 0.82647 0.5018 0.01355 0.0
H474 H 0.81384 0.54562 0.00176 0.0
H475 H 0.73772 0.52902 -0.00925 0.0
H476 H 0.82497 0.49004 0.01361 0.0
H477 H 0.74622 0.50653 0.02352 0.0
H478 H 0.32925 0.52828 0.02783 0.0
H479 H 0.24899 0.54524 0.02477 0.0
H480 H 0.32529 0.50856 0.98326 0.0
H481 H 0.25147 0.49149 0.9851 0.0
C482 C 0.13177 0.50874 0.48423 0.0
C483 C 0.05248 0.50097 0.52169 0.0
C484 C 0.97564 0.5251 0.55161 0.0
C485 C 0.05792 0.53284 0.51588 0.0
N486 N 0.22837 0.53228 0.45694 0.0
N487 N 0.91427 0.50124 0.59936 0.0
C488 C 0.14047 0.52471 0.48488 0.0
C489 C 0.97905 0.50901 0.55799 0.0
N490 N 0.19559 0.50089 0.44648 0.0
N491 N 0.89169 0.53313 0.57768 0.0
H492 H 0.91351 0.48945 0.60477 0.0
H493 H 0.86874 0.50638 0.63166 0.0
H494 H 0.88862 0.54492 0.57532 0.0
H495 H 0.82042 0.5282 0.59824 0.0
H496 H 0.24445 0.50603 0.4129 0.0
H497 H 0.19349 0.48915 0.44587 0.0
H498 H 0.29874 0.52693 0.43902 0.0
H499 H 0.23655 0.544 0.45588 0.0
C500 C 0.65483 1.00853 0.01595 0.0
C501 C 0.54652 1.00074 0.00801 0.0
C502 C 0.43537 0.02481 0.00174 0.0
C503 C 0.54318 0.03253 0.0129 0.0
N504 N 0.75253 0.03161 0.04234 0.0
N505 N 0.33342 1.0009 0.00585 0.0
C506 C 0.6521 0.02433 0.02368 0.0
C507 C 0.43661 1.00873 0.00486 0.0
N508 N 0.7603 1.00099 0.01341 0.0
N509 N 0.33252 0.03285 -0.01467 0.0
H510 H 0.33128 0.98912 0.00804 0.0
H511 H 0.25121 1.00597 0.01007 0.0
H512 H 0.32745 0.04463 0.98237 0.0
H513 H 0.25407 0.02792 0.96984 0.0
H514 H 0.84136 1.00637 0.0118 0.0
H515 H 0.7663 0.98943 0.00822 0.0
H516 H 0.83223 0.02602 0.05702 0.0
H517 H 0.7535 0.04317 0.04824 0.0
C518 C 0.41532 0.02597 0.52695 0.0
C519 C 0.5257 0.03328 0.53327 0.0
C520 C 0.62823 1.0086 0.55157 0.0
C521 C 0.51991 1.00138 0.53702 0.0
N522 N 0.3116 1.00315 0.50382 0.0
N523 N 0.73953 0.03174 0.54495 0.0
C524 C 0.41341 1.01004 0.52328 0.0
C525 C 0.63292 0.02465 0.54434 0.0
N526 N 0.31231 0.03427 0.52527 0.0
N527 N 0.72619 1.00009 0.57304 0.0
H528 H 0.74712 0.04346 0.54 0.0
H529 H 0.82056 0.026 0.54569 0.0
H530 H 0.72557 0.9883 0.57864 0.0
H531 H 0.80464 1.0047 0.59034 0.0
H532 H 0.22906 0.02946 0.5269 0.0
H533 H 0.31084 0.04597 0.52788 0.0
H534 H 0.23493 1.00906 0.48638 0.0
H535 H 0.30604 0.99151 0.50051 0.0
C536 C 0.1557 0.27264 -0.0078 0.0
C537 C 0.24197 0.28306 0.0118 0.0
C538 C 0.39865 0.26374 0.00987 0.0
C539 C 0.31109 0.25295 -0.00422 0.0
N540 N 0.10541 0.24642 0.98137 0.0
N541 N 0.44294 0.28823 0.04715 0.0
C542 C 0.18923 0.25722 -0.01101 0.0
C543 C 0.3629 0.27853 0.02272 0.0
N544 N 0.04226 0.2776 0.9752 0.0
N545 N 0.51609 0.25997 0.00912 0.0
H546 H 0.42052 0.29924 0.05607 0.0
H547 H 0.52941 0.28504 0.06278 0.0
H548 H 0.54586 0.24922 0.00041 0.0
H549 H 0.58378 0.26777 0.0123 0.0
H550 H 0.97829 0.27099 0.95436 0.0
H551 H 1.01436 0.2888 0.97729 0.0
H552 H 1.01492 0.24848 0.9828 0.0
H553 H 0.12675 0.23503 0.97842 0.0
C554 C 0.66559 0.7722 0.9715 0.0
C555 C 0.74917 0.78252 -0.00537 0.0
C556 C 0.90692 0.76315 -0.00207 0.0
C557 C 0.82134 0.75248 0.97987 0.0
N558 N 0.61737 0.74607 0.95725 0.0
N559 N 0.94552 0.78754 0.03751 0.0
C560 C 0.70003 0.7568 0.96873 0.0
C561 C 0.86896 0.77793 0.00988 0.0
N562 N 0.55406 0.77725 0.95075 0.0
N563 N 1.0248 0.75928 0.00197 0.0
H564 H 0.92153 0.79854 0.04587 0.0
H565 H 1.03008 0.7843 0.05614 0.0
H566 H 0.05593 0.74852 -0.00556 0.0
H567 H 0.09227 0.76701 0.00819 0.0
H568 H 0.49291 0.77072 0.9274 0.0
H569 H 0.52547 0.78843 0.95243 0.0
H570 H 0.52635 0.74813 0.95537 0.0
H571 H 0.63952 0.7347 0.95431 0.0
C572 C 0.17754 0.76255 0.53691 0.0
C573 C 0.24516 0.75184 0.50878 0.0
C574 C 0.3775 0.77189 0.47459 0.0
C575 C 0.31673 0.78229 0.50764 0.0
N576 N 0.16993 0.78717 0.57748 0.0
N577 N 0.41903 0.74566 0.45845 0.0
C578 C 0.2196 0.77753 0.54079 0.0
C579 C 0.34785 0.75633 0.47965 0.0
N580 N 0.07121 0.75853 0.55826 0.0
N581 N 0.46096 0.77699 0.43678 0.0
H582 H 0.39958 0.73418 0.46088 0.0
H583 H 0.50199 0.74798 0.44295 0.0
H584 H 0.4851 0.7883 0.43175 0.0
H585 H 0.49905 0.7703 0.40652 0.0
H586 H 1.01172 0.76623 0.57317 0.0
H587 H 0.03748 0.74768 0.55637 0.0
H588 H 0.10775 0.78386 0.60797 0.0
H589 H 0.19789 0.79825 0.58115 0.0
C590 C 0.87693 0.27099 0.52181 0.0
C591 C 0.80877 0.28281 0.48834 0.0
C592 C 0.67304 0.26423 0.44658 0.0
C593 C 0.73498 0.25257 0.48422 0.0
N594 N 0.88584 0.24487 0.56362 0.0
N595 N 0.63409 0.29115 0.4251 0.0
C596 C 0.83442 0.25595 0.52345 0.0
C597 C 0.70458 0.27956 0.45237 0.0
N598 N 0.98392 0.2741 0.55072 0.0
N599 N 0.58632 0.26059 0.40401 0.0
H600 H 0.6555 0.3025 0.42756 0.0
H601 H 0.55025 0.28962 0.40397 0.0
H602 H 0.5604 0.2495 0.39858 0.0
H603 H 0.54666 0.26836 0.37079 0.0
H604 H 0.04393 0.2658 0.57014 0.0
H605 H 1.01735 0.285 0.55125 0.0
H606 H 0.94988 0.24694 0.59812 0.0
H607 H 0.85809 0.23369 0.56555 0.0
C608 C 0.92881 0.39094 0.23033 0.0
C609 C 1.0317 0.3967 0.20421 0.0
C610 C 0.11633 0.40252 0.30491 0.0
C611 C 1.01195 0.39703 0.33056 0.0
N612 N 0.80561 0.39094 0.31503 0.0
N613 N 0.21409 0.41047 0.21457 0.0
C614 C 0.91423 0.39268 0.29244 0.0
C615 C 0.12177 0.40345 0.24076 0.0
N616 N 0.8453 0.38359 0.19629 0.0
N617 N 0.21337 0.40598 0.34158 0.0
H618 H 0.22803 0.41029 0.16875 0.0
H619 H 0.27303 0.41738 0.23749 0.0
H620 H 0.21493 0.40573 0.38863 0.0
H621 H 0.29668 0.40796 0.32595 0.0
H622 H 0.77698 0.37752 0.21503 0.0
H623 H 0.84763 0.38272 0.14978 0.0
H624 H 0.72825 0.38922 0.28805 0.0
H625 H 0.79022 0.39299 0.35957 0.0
C626 C 0.0877 0.66199 0.20058 0.0
C627 C 0.99467 0.65386 0.17253 0.0
C628 C 0.91647 0.64777 0.27123 0.0
C629 C 1.02091 0.65359 0.30027 0.0
N630 N 0.21307 0.66481 0.29228 0.0
N631 N 0.81889 0.63904 0.17942 0.0
C632 C 0.10772 0.66058 0.26495 0.0
C633 C 0.90789 0.64688 0.20735 0.0
N634 N 0.15717 0.67098 0.16564 0.0
N635 N 0.82457 0.64328 0.30468 0.0
H636 H 0.80497 0.63907 0.13234 0.0
H637 H 0.7623 0.63194 0.20272 0.0
H638 H 0.82782 0.64339 0.35173 0.0
H639 H 0.74128 0.64061 0.28562 0.0
H640 H 0.21961 0.67827 0.1836 0.0
H641 H 0.14415 0.67223 0.11837 0.0
H642 H 0.28469 0.66839 0.26835 0.0
H643 H 0.23318 0.66345 0.339 0.0
C644 C 0.13178 0.64481 0.77718 0.0
C645 C 0.0403 0.63673 0.80551 0.0
C646 C 0.9848 0.62558 0.70946 0.0
C647 C 0.06016 0.63579 0.67951 0.0
N648 N 0.20742 0.65515 0.68368 0.0
N649 N 0.86978 0.62063 0.79623 0.0
C650 C 0.13473 0.64535 0.71313 0.0
C651 C 0.96516 0.62722 0.77135 0.0
N652 N 0.21814 0.6516 0.81158 0.0
N653 N 0.93171 0.61438 0.67882 0.0
H654 H 0.84875 0.62193 0.84049 0.0
H655 H 0.80486 0.61503 0.77116 0.0
H656 H 0.94488 0.61288 0.63354 0.0
H657 H 0.8845 0.60573 0.69985 0.0
H658 H 0.29403 0.65615 0.7942 0.0
H659 H 0.22064 0.65142 0.8587 0.0
H660 H 0.25097 0.66391 0.70425 0.0
H661 H 0.21997 0.65497 0.63757 0.0
C662 C 0.11582 0.39577 0.73434 0.0
C663 C 0.04789 0.38452 0.70637 0.0
C664 C 1.00339 0.37311 0.80622 0.0
C665 C 0.07441 0.38414 0.83383 0.0
N666 N 0.22322 0.4032 0.82565 0.0
N667 N 0.94215 0.3611 0.71431 0.0
C668 C 0.13825 0.39464 0.79826 0.0
C669 C 0.99736 0.37265 0.74196 0.0
N670 N 0.15668 0.40777 0.70005 0.0
N671 N 0.9365 0.36369 0.84095 0.0
H672 H 0.92981 0.36086 0.66726 0.0
H673 H 0.91527 0.35128 0.7378 0.0
H674 H 0.93959 0.36356 0.88815 0.0
H675 H 0.87208 0.35667 0.82299 0.0
H676 H 0.19348 0.41727 0.71846 0.0
H677 H 0.14689 0.40872 0.65283 0.0
H678 H 0.28133 0.40994 0.80178 0.0
H679 H 0.24405 0.40234 0.87247 0.0
C680 C 0.59164 0.90489 0.2222 0.0
C681 C 0.52321 0.8951 0.18614 0.0
C682 C 0.42304 0.88568 0.27563 0.0
C683 C 0.48812 0.8959 0.31052 0.0
N684 N 0.6078 0.91811 0.31405 0.0
N685 N 0.35173 0.87912 0.17566 0.0
C686 C 0.56323 0.90652 0.28269 0.0
C687 C 0.43228 0.88634 0.21198 0.0
N688 N 0.68896 0.91178 0.20059 0.0
N689 N 0.35317 0.87522 0.30342 0.0
H690 H 0.35226 0.87957 0.12859 0.0
H691 H 0.27652 0.87398 0.19141 0.0
H692 H 0.33707 0.87513 0.34922 0.0
H693 H 0.31635 0.86616 0.28186 0.0
H694 H 0.74872 0.91772 0.22749 0.0
H695 H 0.71765 0.91029 0.15784 0.0
H696 H 0.65425 0.927 0.29412 0.0
H697 H 0.58778 0.91966 0.35835 0.0
C698 C 0.45033 0.13489 0.1961 0.0
C699 C 0.51984 0.14493 0.16124 0.0
C700 C 0.59882 0.15612 0.25349 0.0
C701 C 0.53488 0.14547 0.28861 0.0
N702 N 0.40922 0.12375 0.29563 0.0
N703 N 0.67259 0.16356 0.1557 0.0
C704 C 0.46358 0.13453 0.26055 0.0
C705 C 0.59715 0.15519 0.18961 0.0
N706 N 0.36818 0.12615 0.16744 0.0
N707 N 0.66067 0.16716 0.28124 0.0
H708 H 0.67371 0.16319 0.10878 0.0
H709 H 0.74047 0.16998 0.17423 0.0
H710 H 0.66923 0.16773 0.32823 0.0
H711 H 0.69767 0.17632 0.2578 0.0
H712 H 0.3049 0.11993 0.18971 0.0
H713 H 0.35716 0.12592 0.12035 0.0
H714 H 0.36807 0.11437 0.2786 0.0
H715 H 0.4108 0.12366 0.3428 0.0
C716 C 0.58581 0.13397 0.76726 0.0
C717 C 0.50351 0.14444 0.78688 0.0
C718 C 0.46201 0.15548 0.68243 0.0
C719 C 0.54212 0.14476 0.66244 0.0
N720 N 0.67371 0.12307 0.68337 0.0
N721 N 0.35104 0.16363 0.76439 0.0
C722 C 0.60178 0.13375 0.7042 0.0
C723 C 0.43856 0.15483 0.7448 0.0
N724 N 0.65203 0.12467 0.80931 0.0
N725 N 0.40812 0.16625 0.64168 0.0
H726 H 0.33206 0.16346 0.80982 0.0
H727 H 0.29116 0.17031 0.73568 0.0
H728 H 0.41516 0.1664 0.59505 0.0
H729 H 0.36051 0.17552 0.65388 0.0
H730 H 0.72359 0.11805 0.7994 0.0
H731 H 0.64003 0.12415 0.85559 0.0
H732 H 0.70804 0.11358 0.70966 0.0
H733 H 0.69587 0.12331 0.63844 0.0
C734 C 0.4546 0.88002 0.72362 0.0
C735 C 0.54455 0.8861 0.6881 0.0
C736 C 0.66531 0.891 0.78106 0.0
C737 C 0.57769 0.88416 0.81578 0.0
N738 N 0.40713 0.86831 0.82086 0.0
N739 N 0.74644 0.89452 0.68305 0.0
C740 C 0.47858 0.87732 0.78722 0.0
C741 C 0.6534 0.89075 0.71681 0.0
N742 N 0.34327 0.87798 0.69755 0.0
N743 N 0.75865 0.89797 0.80944 0.0
H744 H 0.74175 0.89455 0.63592 0.0
H745 H 0.83155 0.89637 0.70198 0.0
H746 H 0.77369 0.89756 0.8566 0.0
H747 H 0.81747 0.9048 0.78642 0.0
H748 H 0.27171 0.87488 0.72246 0.0
H749 H 0.31899 0.88117 0.65205 0.0
H750 H 0.33931 0.86198 0.80151 0.0
H751 H 0.42361 0.86598 0.86765 0.0
loop_
_geom_bond_atom_site_label_1
_geom_bond_atom_site_label_2
_geom_bond_distance
_geom_bond_site_symmetry_2
_ccdc_geom_bond_type
Dy0 O3 2.305 . S
Dy0 O5 2.404 1_455 S
Dy0 O6 2.374 1_554 S
Dy0 O8 2.323 1_554 S
Dy0 O10 2.298 1_454 S
Dy0 O14 2.288 . S
Dy0 C22 2.741 1_455 S
Dy1 O4 2.298 . S
Dy1 O7 2.275 1_554 S
Dy1 O9 2.307 1_455 S
Dy1 O11 2.395 1_554 S
Dy1 O12 2.379 . S
Dy1 O15 2.339 . S
Dy1 C31 2.738 . S
C2 O14 1.254 . S
C2 O15 1.257 . S
O3 Dy0 2.305 . S
O3 C13 1.266 . S
O4 Dy1 2.298 . S
O4 C13 1.236 . S
O5 Dy0 2.404 1_655 S
O5 C22 1.256 . S
O6 Dy0 2.374 1_556 S
O6 C22 1.249 1_456 S
O7 Dy1 2.275 1_556 S
O7 C23 1.254 . S
O8 Dy0 2.323 1_556 S
O8 C23 1.257 . S
O9 Dy1 2.307 1_655 S
O9 C24 1.266 . S
O10 Dy0 2.298 1_656 S
O10 C24 1.236 1_556 S
O11 Dy1 2.395 1_556 S
O11 C31 1.255 1_556 S
O12 Dy1 2.379 . S
O12 C31 1.249 . S
C13 O3 1.266 . S
C13 O4 1.236 . S
O14 Dy0 2.288 . S
O14 C2 1.254 . S
O15 Dy1 2.339 . S
O15 C2 1.257 . S
C16 C19 1.344 . S
C16 C20 1.328 1_554 S
C16 C22 1.516 . S
C17 C18 1.304 . S
C17 C21 1.323 1_554 S
C18 C17 1.304 . S
C18 C19 1.371 . S
C18 H32 0.930 . S
C19 C16 1.344 . S
C19 C18 1.371 . S
C19 H33 0.931 . S
C20 C16 1.328 1_556 S
C20 C21 1.433 . S
C20 H34 0.931 . S
C21 C17 1.323 1_556 S
C21 C20 1.433 . S
C21 H35 0.933 . S
C22 Dy0 2.741 1_655 S
C22 O5 1.256 . S
C22 O6 1.249 1_654 S
C22 C16 1.516 . S
C23 O7 1.254 . S
C23 O8 1.257 . S
C24 O9 1.266 . S
C24 O10 1.236 1_554 S
C25 C28 1.344 1_554 S
C25 C29 1.328 . S
C25 C31 1.516 . S
C26 C27 1.304 1_554 S
C26 C30 1.323 . S
C27 C26 1.304 1_556 S
C27 C28 1.371 . S
C27 H36 0.930 . S
C28 C25 1.344 1_556 S
C28 C27 1.371 . S
C28 H37 0.931 . S
C29 C25 1.328 . S
C29 C30 1.433 . S
C29 H38 0.931 . S
C30 C26 1.323 . S
C30 C29 1.433 . S
C30 H39 0.933 . S
C31 Dy1 2.738 . S
C31 O11 1.255 1_554 S
C31 O12 1.249 . S
C31 C25 1.516 . S
H32 C18 0.930 . S
H33 C19 0.931 . S
H34 C20 0.931 . S
H35 C21 0.933 . S
H36 C27 0.930 . S
H37 C28 0.931 . S
H38 C29 0.931 . S
H39 C30 0.933 . S
Dy40 O43 2.306 1_655 S
Dy40 O45 2.395 1_556 S
Dy40 O46 2.379 . S
Dy40 O48 2.339 . S
Dy40 O50 2.298 . S
Dy40 O54 2.275 1_556 S
Dy40 C62 2.738 1_556 S
Dy41 O44 2.298 1_655 S
Dy41 O47 2.275 1_554 S
Dy41 O49 2.307 . S
Dy41 O51 2.395 1_654 S
Dy41 O52 2.379 . S
Dy41 O55 2.339 . S
Dy41 C71 2.738 1_655 S
C42 O54 1.254 . S
C42 O55 1.257 . S
O43 Dy40 2.306 1_455 S
O43 C53 1.264 1_556 S
O44 Dy41 2.298 1_455 S
O44 C53 1.236 . S
O45 Dy40 2.395 1_554 S
O45 C62 1.255 . S
O46 Dy40 2.379 . S
O46 C62 1.249 1_556 S
O47 Dy41 2.275 1_556 S
O47 C63 1.254 . S
O48 Dy40 2.339 . S
O48 C63 1.257 . S
O49 Dy41 2.307 . S
O49 C64 1.266 . S
O50 Dy40 2.298 . S
O50 C64 1.236 1_556 S
O51 Dy41 2.395 1_456 S
O51 C71 1.255 1_556 S
O52 Dy41 2.379 . S
O52 C71 1.249 1_655 S
C53 O43 1.264 1_554 S
C53 O44 1.236 . S
O54 Dy40 2.275 1_554 S
O54 C42 1.254 . S
O55 Dy41 2.339 . S
O55 C42 1.257 . S
C56 C59 1.344 . S
C56 C60 1.328 1_554 S
C56 C62 1.516 . S
C57 C58 1.304 . S
C57 C61 1.323 1_554 S
C58 C57 1.304 . S
C58 C59 1.371 . S
C58 H72 0.930 . S
C59 C56 1.344 . S
C59 C58 1.371 . S
C59 H73 0.931 . S
C60 C56 1.328 1_556 S
C60 C61 1.433 . S
C60 H74 0.931 . S
C61 C57 1.323 1_556 S
C61 C60 1.433 . S
C61 H75 0.933 . S
C62 Dy40 2.738 1_554 S
C62 O45 1.255 . S
C62 O46 1.249 1_554 S
C62 C56 1.516 . S
C63 O47 1.254 . S
C63 O48 1.257 . S
C64 O49 1.266 . S
C64 O50 1.236 1_554 S
C65 C68 1.344 1_554 S
C65 C69 1.328 . S
C65 C71 1.516 . S
C66 C67 1.304 . S
C66 C70 1.323 1_556 S
C67 C66 1.304 . S
C67 C68 1.371 . S
C67 H76 0.930 . S
C68 C65 1.344 1_556 S
C68 C67 1.371 . S
C68 H77 0.931 . S
C69 C65 1.328 . S
C69 C70 1.433 . S
C69 H78 0.931 . S
C70 C66 1.323 1_554 S
C70 C69 1.433 . S
C70 H79 0.933 . S
C71 Dy41 2.738 1_455 S
C71 O51 1.255 1_554 S
C71 O52 1.249 1_455 S
C71 C65 1.516 . S
H72 C58 0.930 . S
H73 C59 0.931 . S
H74 C60 0.931 . S
H75 C61 0.933 . S
H76 C67 0.930 . S
H77 C68 0.931 . S
H78 C69 0.931 . S
H79 C70 0.933 . S
Dy80 O83 2.307 1_455 S
Dy80 O85 2.395 . S
Dy80 O86 2.379 . S
Dy80 O88 2.339 . S
Dy80 O90 2.298 . S
Dy80 O94 2.275 . S
Dy80 C102 2.738 . S
Dy81 O84 2.298 1_455 S
Dy81 O87 2.275 . S
Dy81 O89 2.307 . S
Dy81 O91 2.396 . S
Dy81 O92 2.379 . S
Dy81 O95 2.339 . S
Dy81 C111 2.738 1_455 S
C82 O94 1.254 . S
C82 O95 1.257 . S
O83 Dy80 2.307 1_655 S
O83 C93 1.266 . S
O84 Dy81 2.298 1_655 S
O84 C93 1.236 . S
O85 Dy80 2.395 . S
O85 C102 1.255 . S
O86 Dy80 2.379 . S
O86 C102 1.249 . S
O87 Dy81 2.275 . S
O87 C103 1.254 . S
O88 Dy80 2.339 . S
O88 C103 1.257 . S
O89 Dy81 2.307 . S
O89 C104 1.266 . S
O90 Dy80 2.298 . S
O90 C104 1.236 . S
O91 Dy81 2.396 . S
O91 C111 1.255 1_455 S
O92 Dy81 2.379 . S
O92 C111 1.249 1_455 S
C93 O83 1.266 . S
C93 O84 1.236 . S
O94 Dy80 2.275 . S
O94 C82 1.254 . S
O95 Dy81 2.339 . S
O95 C82 1.257 . S
C96 C99 1.344 . S
C96 C100 1.328 . S
C96 C102 1.516 . S
C97 C98 1.304 . S
C97 C101 1.323 . S
C98 C97 1.304 . S
C98 C99 1.371 . S
C98 H112 0.930 . S
C99 C96 1.344 . S
C99 C98 1.371 . S
C99 H113 0.931 . S
C100 C96 1.328 . S
C100 C101 1.433 . S
C100 H114 0.931 . S
C101 C97 1.323 . S
C101 C100 1.433 . S
C101 H115 0.933 . S
C102 Dy80 2.738 . S
C102 O85 1.255 . S
C102 O86 1.249 . S
C102 C96 1.516 . S
C103 O87 1.254 . S
C103 O88 1.257 . S
C104 O89 1.266 . S
C104 O90 1.236 . S
C105 C108 1.344 . S
C105 C109 1.328 . S
C105 C111 1.516 . S
C106 C107 1.304 . S
C106 C110 1.323 . S
C107 C106 1.304 . S
C107 C108 1.371 . S
C107 H116 0.930 . S
C108 C105 1.344 . S
C108 C107 1.371 . S
C108 H117 0.931 . S
C109 C105 1.328 . S
C109 C110 1.433 . S
C109 H118 0.931 . S
C110 C106 1.323 . S
C110 C109 1.433 . S
C110 H119 0.933 . S
C111 Dy81 2.738 1_655 S
C111 O91 1.255 1_655 S
C111 O92 1.249 1_655 S
C111 C105 1.516 . S
H112 C98 0.930 . S
H113 C99 0.931 . S
H114 C100 0.931 . S
H115 C101 0.933 . S
H116 C107 0.930 . S
H117 C108 0.931 . S
H118 C109 0.931 . S
H119 C110 0.933 . S
Dy120 O123 2.307 1_655 S
Dy120 O125 2.395 . S
Dy120 O126 2.379 . S
Dy120 O128 2.339 . S
Dy120 O130 2.298 . S
Dy120 O134 2.275 . S
Dy120 C142 2.738 . S
Dy121 O124 2.298 1_655 S
Dy121 O127 2.275 . S
Dy121 O129 2.307 . S
Dy121 O131 2.395 1_655 S
Dy121 O132 2.379 . S
Dy121 O135 2.339 . S
Dy121 C151 2.738 1_655 S
C122 O134 1.254 . S
C122 O135 1.257 . S
O123 Dy120 2.307 1_455 S
O123 C133 1.266 . S
O124 Dy121 2.298 1_455 S
O124 C133 1.236 . S
O125 Dy120 2.395 . S
O125 C142 1.255 . S
O126 Dy120 2.379 . S
O126 C142 1.249 . S
O127 Dy121 2.275 . S
O127 C143 1.254 . S
O128 Dy120 2.339 . S
O128 C143 1.257 . S
O129 Dy121 2.307 . S
O129 C144 1.266 . S
O130 Dy120 2.298 . S
O130 C144 1.236 . S
O131 Dy121 2.395 1_455 S
O131 C151 1.255 . S
O132 Dy121 2.379 . S
O132 C151 1.249 1_655 S
C133 O123 1.266 . S
C133 O124 1.236 . S
O134 Dy120 2.275 . S
O134 C122 1.254 . S
O135 Dy121 2.339 . S
O135 C122 1.257 . S
C136 C139 1.344 . S
C136 C140 1.328 . S
C136 C142 1.516 . S
C137 C138 1.304 . S
C137 C141 1.323 . S
C138 C137 1.304 . S
C138 C139 1.371 . S
C138 H152 0.930 . S
C139 C136 1.344 . S
C139 C138 1.371 . S
C139 H153 0.931 . S
C140 C136 1.328 . S
C140 C141 1.433 . S
C140 H154 0.931 . S
C141 C137 1.323 . S
C141 C140 1.433 . S
C141 H155 0.933 . S
C142 Dy120 2.738 . S
C142 O125 1.255 . S
C142 O126 1.249 . S
C142 C136 1.516 . S
C143 O127 1.254 . S
C143 O128 1.257 . S
C144 O129 1.266 . S
C144 O130 1.236 . S
C145 C148 1.344 . S
C145 C149 1.328 . S
C145 C151 1.516 . S
C146 C147 1.304 . S
C146 C150 1.323 . S
C147 C146 1.304 . S
C147 C148 1.371 . S
C147 H156 0.930 . S
C148 C145 1.344 . S
C148 C147 1.371 . S
C148 H157 0.931 . S
C149 C145 1.328 . S
C149 C150 1.433 . S
C149 H158 0.931 . S
C150 C146 1.323 . S
C150 C149 1.433 . S
C150 H159 0.933 . S
C151 Dy121 2.738 1_455 S
C151 O131 1.255 . S
C151 O132 1.249 1_455 S
C151 C145 1.516 . S
H152 C138 0.930 . S
H153 C139 0.931 . S
H154 C140 0.931 . S
H155 C141 0.933 . S
H156 C147 0.930 . S
H157 C148 0.931 . S
H158 C149 0.931 . S
H159 C150 0.933 . S
Dy160 O163 2.305 . S
Dy160 O165 2.405 . S
Dy160 O166 2.374 1_554 S
Dy160 O168 2.322 1_554 S
Dy160 O170 2.298 1_554 S
Dy160 O174 2.288 . S
Dy160 C182 2.741 . S
Dy161 O164 2.298 . S
Dy161 O167 2.275 1_554 S
Dy161 O169 2.307 . S
Dy161 O171 2.395 1_554 S
Dy161 O172 2.379 . S
Dy161 O175 2.339 . S
Dy161 C191 2.738 . S
C162 O174 1.254 . S
C162 O175 1.257 . S
O163 Dy160 2.305 . S
O163 C173 1.266 . S
O164 Dy161 2.298 . S
O164 C173 1.236 . S
O165 Dy160 2.405 . S
O165 C182 1.255 . S
O166 Dy160 2.374 1_556 S
O166 C182 1.249 1_556 S
O167 Dy161 2.275 1_556 S
O167 C183 1.254 . S
O168 Dy160 2.322 1_556 S
O168 C183 1.257 . S
O169 Dy161 2.307 . S
O169 C184 1.266 . S
O170 Dy160 2.298 1_556 S
O170 C184 1.236 1_556 S
O171 Dy161 2.395 1_556 S
O171 C191 1.255 1_556 S
O172 Dy161 2.379 . S
O172 C191 1.249 . S
C173 O163 1.266 . S
C173 O164 1.236 . S
O174 Dy160 2.288 . S
O174 C162 1.254 . S
O175 Dy161 2.339 . S
O175 C162 1.257 . S
C176 C179 1.344 . S
C176 C180 1.328 1_554 S
C176 C182 1.516 . S
C177 C178 1.304 . S
C177 C181 1.323 1_554 S
C178 C177 1.304 . S
C178 C179 1.371 . S
C178 H192 0.930 . S
C179 C176 1.344 . S
C179 C178 1.371 . S
C179 H193 0.931 . S
C180 C176 1.328 1_556 S
C180 C181 1.433 . S
C180 H194 0.931 . S
C181 C177 1.323 1_556 S
C181 C180 1.433 . S
C181 H195 0.933 . S
C182 Dy160 2.741 . S
C182 O165 1.255 . S
C182 O166 1.249 1_554 S
C182 C176 1.516 . S
C183 O167 1.254 . S
C183 O168 1.257 . S
C184 O169 1.266 . S
C184 O170 1.236 1_554 S
C185 C188 1.344 1_554 S
C185 C189 1.328 . S
C185 C191 1.516 . S
C186 C187 1.304 1_554 S
C186 C190 1.323 . S
C187 C186 1.304 1_556 S
C187 C188 1.371 . S
C187 H196 0.930 . S
C188 C185 1.344 1_556 S
C188 C187 1.371 . S
C188 H197 0.931 . S
C189 C185 1.328 . S
C189 C190 1.433 . S
C189 H198 0.931 . S
C190 C186 1.323 . S
C190 C189 1.433 . S
C190 H199 0.933 . S
C191 Dy161 2.738 . S
C191 O171 1.255 1_554 S
C191 O172 1.249 . S
C191 C185 1.516 . S
H192 C178 0.930 . S
H193 C179 0.931 . S
H194 C180 0.931 . S
H195 C181 0.933 . S
H196 C187 0.930 . S
H197 C188 0.931 . S
H198 C189 0.931 . S
H199 C190 0.933 . S
Dy200 O203 2.306 . S
Dy200 O205 2.395 1_556 S
Dy200 O206 2.379 . S
Dy200 O208 2.339 . S
Dy200 O210 2.298 . S
Dy200 O214 2.275 1_556 S
Dy200 C222 2.738 1_556 S
Dy201 O204 2.298 . S
Dy201 O207 2.275 1_554 S
Dy201 O209 2.307 . S
Dy201 O211 2.395 1_554 S
Dy201 O212 2.379 . S
Dy201 O215 2.339 . S
Dy201 C231 2.738 . S
C202 O214 1.254 . S
C202 O215 1.257 . S
O203 Dy200 2.306 . S
O203 C213 1.264 1_556 S
O204 Dy201 2.298 . S
O204 C213 1.236 . S
O205 Dy200 2.395 1_554 S
O205 C222 1.255 . S
O206 Dy200 2.379 . S
O206 C222 1.249 1_556 S
O207 Dy201 2.275 1_556 S
O207 C223 1.254 . S
O208 Dy200 2.339 . S
O208 C223 1.257 . S
O209 Dy201 2.307 . S
O209 C224 1.266 . S
O210 Dy200 2.298 . S
O210 C224 1.236 1_556 S
O211 Dy201 2.395 1_556 S
O211 C231 1.255 1_556 S
O212 Dy201 2.379 . S
O212 C231 1.249 . S
C213 O203 1.264 1_554 S
C213 O204 1.236 . S
O214 Dy200 2.275 1_554 S
O214 C202 1.254 . S
O215 Dy201 2.339 . S
O215 C202 1.257 . S
C216 C219 1.344 . S
C216 C220 1.328 1_554 S
C216 C222 1.516 . S
C217 C218 1.304 . S
C217 C221 1.323 1_554 S
C218 C217 1.304 . S
C218 C219 1.371 . S
C218 H232 0.930 . S
C219 C216 1.344 . S
C219 C218 1.371 . S
C219 H233 0.931 . S
C220 C216 1.328 1_556 S
C220 C221 1.433 . S
C220 H234 0.931 . S
C221 C217 1.323 1_556 S
C221 C220 1.433 . S
C221 H235 0.933 . S
C222 Dy200 2.738 1_554 S
C222 O205 1.255 . S
C222 O206 1.249 1_554 S
C222 C216 1.516 . S
C223 O207 1.254 . S
C223 O208 1.257 . S
C224 O209 1.266 . S
C224 O210 1.236 1_554 S
C225 C228 1.344 1_554 S
C225 C229 1.328 . S
C225 C231 1.516 . S
C226 C227 1.304 . S
C226 C230 1.323 1_556 S
C227 C226 1.304 . S
C227 C228 1.371 . S
C227 H236 0.930 . S
C228 C225 1.344 1_556 S
C228 C227 1.371 . S
C228 H237 0.931 . S
C229 C225 1.328 . S
C229 C230 1.433 . S
C229 H238 0.931 . S
C230 C226 1.323 1_554 S
C230 C229 1.433 . S
C230 H239 0.933 . S
C231 Dy201 2.738 . S
C231 O211 1.255 1_554 S
C231 O212 1.249 . S
C231 C225 1.516 . S
H232 C218 0.930 . S
H233 C219 0.931 . S
H234 C220 0.931 . S
H235 C221 0.933 . S
H236 C227 0.930 . S
H237 C228 0.931 . S
H238 C229 0.931 . S
H239 C230 0.933 . S
Dy240 O243 2.307 . S
Dy240 O245 2.395 . S
Dy240 O246 2.379 . S
Dy240 O248 2.339 . S
Dy240 O250 2.298 . S
Dy240 O254 2.275 . S
Dy240 C262 2.738 . S
Dy241 O244 2.298 . S
Dy241 O247 2.275 . S
Dy241 O249 2.307 . S
Dy241 O251 2.395 . S
Dy241 O252 2.379 . S
Dy241 O255 2.339 . S
Dy241 C271 2.738 . S
C242 O254 1.254 . S
C242 O255 1.257 . S
O243 Dy240 2.307 . S
O243 C253 1.266 . S
O244 Dy241 2.298 . S
O244 C253 1.236 . S
O245 Dy240 2.395 . S
O245 C262 1.255 . S
O246 Dy240 2.379 . S
O246 C262 1.249 . S
O247 Dy241 2.275 . S
O247 C263 1.254 . S
O248 Dy240 2.339 . S
O248 C263 1.257 . S
O249 Dy241 2.307 . S
O249 C264 1.266 . S
O250 Dy240 2.298 . S
O250 C264 1.236 . S
O251 Dy241 2.395 . S
O251 C271 1.255 . S
O252 Dy241 2.379 . S
O252 C271 1.249 . S
C253 O243 1.266 . S
C253 O244 1.236 . S
O254 Dy240 2.275 . S
O254 C242 1.254 . S
O255 Dy241 2.339 . S
O255 C242 1.257 . S
C256 C259 1.344 . S
C256 C260 1.328 . S
C256 C262 1.516 . S
C257 C258 1.304 . S
C257 C261 1.323 . S
C258 C257 1.304 . S
C258 C259 1.371 . S
C258 H272 0.930 . S
C259 C256 1.344 . S
C259 C258 1.371 . S
C259 H273 0.931 . S
C260 C256 1.328 . S
C260 C261 1.433 . S
C260 H274 0.931 . S
C261 C257 1.323 . S
C261 C260 1.433 . S
C261 H275 0.933 . S
C262 Dy240 2.738 . S
C262 O245 1.255 . S
C262 O246 1.249 . S
C262 C256 1.516 . S
C263 O247 1.254 . S
C263 O248 1.257 . S
C264 O249 1.266 . S
C264 O250 1.236 . S
C265 C268 1.344 . S
C265 C269 1.328 . S
C265 C271 1.516 . S
C266 C267 1.304 . S
C266 C270 1.323 . S
C267 C266 1.304 . S
C267 C268 1.371 . S
C267 H276 0.930 . S
C268 C265 1.344 . S
C268 C267 1.371 . S
C268 H277 0.931 . S
C269 C265 1.328 . S
C269 C270 1.433 . S
C269 H278 0.931 . S
C270 C266 1.323 . S
C270 C269 1.433 . S
C270 H279 0.933 . S
C271 Dy241 2.738 . S
C271 O251 1.255 . S
C271 O252 1.249 . S
C271 C265 1.516 . S
H272 C258 0.930 . S
H273 C259 0.931 . S
H274 C260 0.931 . S
H275 C261 0.933 . S
H276 C267 0.930 . S
H277 C268 0.931 . S
H278 C269 0.931 . S
H279 C270 0.933 . S
Dy280 O283 2.307 . S
Dy280 O285 2.395 . S
Dy280 O286 2.379 . S
Dy280 O288 2.339 . S
Dy280 O290 2.298 . S
Dy280 O294 2.275 . S
Dy280 C302 2.738 . S
Dy281 O284 2.298 . S
Dy281 O287 2.275 . S
Dy281 O289 2.307 . S
Dy281 O291 2.395 . S
Dy281 O292 2.379 . S
Dy281 O295 2.339 . S
Dy281 C311 2.738 . S
C282 O294 1.254 . S
C282 O295 1.257 . S
O283 Dy280 2.307 . S
O283 C293 1.266 . S
O284 Dy281 2.298 . S
O284 C293 1.236 . S
O285 Dy280 2.395 . S
O285 C302 1.255 . S
O286 Dy280 2.379 . S
O286 C302 1.249 . S
O287 Dy281 2.275 . S
O287 C303 1.254 . S
O288 Dy280 2.339 . S
O288 C303 1.257 . S
O289 Dy281 2.307 . S
O289 C304 1.266 . S
O290 Dy280 2.298 . S
O290 C304 1.236 . S
O291 Dy281 2.395 . S
O291 C311 1.255 . S
O292 Dy281 2.379 . S
O292 C311 1.249 . S
C293 O283 1.266 . S
C293 O284 1.236 . S
O294 Dy280 2.275 . S
O294 C282 1.254 . S
O295 Dy281 2.339 . S
O295 C282 1.257 . S
C296 C299 1.344 . S
C296 C300 1.328 . S
C296 C302 1.516 . S
C297 C298 1.304 . S
C297 C301 1.323 . S
C298 C297 1.304 . S
C298 C299 1.371 . S
C298 H312 0.930 . S
C299 C296 1.344 . S
C299 C298 1.371 . S
C299 H313 0.931 . S
C300 C296 1.328 . S
C300 C301 1.433 . S
C300 H314 0.931 . S
C301 C297 1.323 . S
C301 C300 1.433 . S
C301 H315 0.933 . S
C302 Dy280 2.738 . S
C302 O285 1.255 . S
C302 O286 1.249 . S
C302 C296 1.516 . S
C303 O287 1.254 . S
C303 O288 1.257 . S
C304 O289 1.266 . S
C304 O290 1.236 . S
C305 C308 1.344 . S
C305 C309 1.328 . S
C305 C311 1.516 . S
C306 C307 1.304 . S
C306 C310 1.323 . S
C307 C306 1.304 . S
C307 C308 1.371 . S
C307 H316 0.930 . S
C308 C305 1.344 . S
C308 C307 1.371 . S
C308 H317 0.931 . S
C309 C305 1.328 . S
C309 C310 1.433 . S
C309 H318 0.931 . S
C310 C306 1.323 . S
C310 C309 1.433 . S
C310 H319 0.933 . S
C311 Dy281 2.738 . S
C311 O291 1.255 . S
C311 O292 1.249 . S
C311 C305 1.516 . S
H312 C298 0.930 . S
H313 C299 0.931 . S
H314 C300 0.931 . S
H315 C301 0.933 . S
H316 C307 0.930 . S
H317 C308 0.931 . S
H318 C309 0.931 . S
H319 C310 0.933 . S
C320 C321 1.363 . S
C320 C326 1.379 . S
C320 N328 1.356 . S
C321 C320 1.363 . S
C321 C327 1.363 . S
C322 C323 1.363 . S
C322 C327 1.379 . S
C322 N329 1.356 . S
C323 C322 1.363 . S
C323 C326 1.363 . S
N324 C326 1.356 . S
N324 H336 0.984 . S
N324 H337 0.985 . S
N325 C327 1.356 . S
N325 H330 0.984 . S
N325 H331 0.985 . S
C326 C320 1.379 . S
C326 C323 1.363 . S
C326 N324 1.356 . S
C327 C321 1.363 . S
C327 C322 1.379 . S
C327 N325 1.356 . S
N328 C320 1.356 . S
N328 H334 0.984 . S
N328 H335 0.984 . S
N329 C322 1.356 . S
N329 H332 0.984 . S
N329 H333 0.985 . S
H330 N325 0.984 . S
H331 N325 0.985 . S
H332 N329 0.984 . S
H333 N329 0.985 . S
H334 N328 0.984 . S
H335 N328 0.984 . S
H336 N324 0.984 . S
H337 N324 0.985 . S
C338 C339 1.363 1_556 S
C338 C344 1.379 . S
C338 N346 1.356 . S
C339 C338 1.363 1_554 S
C339 C345 1.363 . S
C340 C341 1.363 . S
C340 C345 1.379 . S
C340 N347 1.356 . S
C341 C340 1.363 . S
C341 C344 1.363 1_554 S
N342 C344 1.356 . S
N342 H354 0.984 . S
N342 H355 0.985 . S
N343 C345 1.356 . S
N343 H348 0.984 . S
N343 H349 0.985 . S
C344 C338 1.379 . S
C344 C341 1.363 1_556 S
C344 N342 1.356 . S
C345 C339 1.363 . S
C345 C340 1.379 . S
C345 N343 1.356 . S
N346 C338 1.356 . S
N346 H352 0.984 . S
N346 H353 0.984 . S
N347 C340 1.356 . S
N347 H350 0.984 . S
N347 H351 0.985 . S
H348 N343 0.984 . S
H349 N343 0.985 . S
H350 N347 0.984 . S
H351 N347 0.985 . S
H352 N346 0.984 . S
H353 N346 0.984 . S
H354 N342 0.984 . S
H355 N342 0.985 . S
C356 C357 1.363 . S
C356 C362 1.379 . S
C356 N364 1.356 . S
C357 C356 1.363 . S
C357 C363 1.363 . S
C358 C359 1.363 . S
C358 C363 1.379 . S
C358 N365 1.356 . S
C359 C358 1.363 . S
C359 C362 1.363 . S
N360 C362 1.356 . S
N360 H372 0.984 . S
N360 H373 0.985 . S
N361 C363 1.356 . S
N361 H366 0.984 . S
N361 H367 0.985 . S
C362 C356 1.379 . S
C362 C359 1.363 . S
C362 N360 1.356 . S
C363 C357 1.363 . S
C363 C358 1.379 . S
C363 N361 1.356 . S
N364 C356 1.356 . S
N364 H370 0.984 . S
N364 H371 0.984 . S
N365 C358 1.356 . S
N365 H368 0.984 . S
N365 H369 0.985 . S
H366 N361 0.984 . S
H367 N361 0.985 . S
H368 N365 0.984 . S
H369 N365 0.985 . S
H370 N364 0.984 . S
H371 N364 0.984 . S
H372 N360 0.984 . S
H373 N360 0.985 . S
C374 C375 1.363 . S
C374 C380 1.379 . S
C374 N382 1.356 . S
C375 C374 1.363 . S
C375 C381 1.363 . S
C376 C377 1.363 . S
C376 C381 1.379 . S
C376 N383 1.356 . S
C377 C376 1.363 . S
C377 C380 1.363 . S
N378 C380 1.356 . S
N378 H390 0.984 . S
N378 H391 0.985 . S
N379 C381 1.356 . S
N379 H384 0.984 . S
N379 H385 0.985 . S
C380 C374 1.379 . S
C380 C377 1.363 . S
C380 N378 1.356 . S
C381 C375 1.363 . S
C381 C376 1.379 . S
C381 N379 1.356 . S
N382 C374 1.356 . S
N382 H388 0.984 . S
N382 H389 0.984 . S
N383 C376 1.356 . S
N383 H386 0.984 . S
N383 H387 0.985 . S
H384 N379 0.984 . S
H385 N379 0.985 . S
H386 N383 0.984 . S
H387 N383 0.985 . S
H388 N382 0.984 . S
H389 N382 0.984 . S
H390 N378 0.984 . S
H391 N378 0.985 . S
C392 C393 1.363 1_456 S
C392 C398 1.379 . S
C392 N400 1.356 1_455 S
C393 C392 1.363 1_654 S
C393 C399 1.363 . S
C394 C395 1.363 . S
C394 C399 1.379 1_455 S
C394 N401 1.356 . S
C395 C394 1.363 . S
C395 C398 1.363 1_554 S
N396 C398 1.356 . S
N396 H408 0.984 . S
N396 H409 0.985 . S
N397 C399 1.356 . S
N397 H402 0.984 . S
N397 H403 0.985 . S
C398 C392 1.379 . S
C398 C395 1.363 1_556 S
C398 N396 1.356 . S
C399 C393 1.363 . S
C399 C394 1.379 1_655 S
C399 N397 1.356 . S
N400 C392 1.356 1_655 S
N400 H406 0.984 . S
N400 H407 0.984 . S
N401 C394 1.356 . S
N401 H404 0.984 . S
N401 H405 0.985 . S
H402 N397 0.984 . S
H403 N397 0.985 . S
H404 N401 0.984 . S
H405 N401 0.985 . S
H406 N400 0.984 . S
H407 N400 0.984 . S
H408 N396 0.984 . S
H409 N396 0.985 . S
C410 C411 1.363 1_656 S
C410 C416 1.379 . S
C410 N418 1.356 1_655 S
C411 C410 1.363 1_454 S
C411 C417 1.363 . S
C412 C413 1.363 . S
C412 C417 1.379 1_655 S
C412 N419 1.356 . S
C413 C412 1.363 . S
C413 C416 1.363 1_554 S
N414 C416 1.356 . S
N414 H426 0.984 . S
N414 H427 0.985 . S
N415 C417 1.356 . S
N415 H420 0.984 . S
N415 H421 0.985 . S
C416 C410 1.379 . S
C416 C413 1.363 1_556 S
C416 N414 1.356 . S
C417 C411 1.363 . S
C417 C412 1.379 1_455 S
C417 N415 1.356 . S
N418 C410 1.356 1_455 S
N418 H424 0.984 . S
N418 H425 0.984 . S
N419 C412 1.356 . S
N419 H422 0.984 . S
N419 H423 0.985 . S
H420 N415 0.984 . S
H421 N415 0.985 . S
H422 N419 0.984 . S
H423 N419 0.985 . S
H424 N418 0.984 . S
H425 N418 0.984 . S
H426 N414 0.984 . S
H427 N414 0.985 . S
C428 C429 1.363 . S
C428 C434 1.379 . S
C428 N436 1.356 . S
C429 C428 1.363 . S
C429 C435 1.363 . S
C430 C431 1.367 . S
C430 C435 1.370 1_655 S
C430 N437 1.364 . S
C431 C430 1.367 . S
C431 C434 1.363 1_655 S
N432 C434 1.356 1_655 S
N432 H444 0.984 . S
N432 H445 0.985 . S
N433 C435 1.356 . S
N433 H438 0.984 . S
N433 H439 0.985 . S
C434 C428 1.379 . S
C434 C431 1.363 1_455 S
C434 N432 1.356 1_455 S
C435 C429 1.363 . S
C435 C430 1.370 1_455 S
C435 N433 1.356 . S
N436 C428 1.356 . S
N436 H442 0.984 . S
N436 H443 0.984 . S
N437 C430 1.364 . S
N437 H440 0.984 . S
N437 H441 0.985 . S
H438 N433 0.984 . S
H439 N433 0.985 . S
H440 N437 0.984 . S
H441 N437 0.985 . S
H442 N436 0.984 . S
H443 N436 0.984 . S
H444 N432 0.984 . S
H445 N432 0.985 . S
C446 C447 1.363 . S
C446 C452 1.379 . S
C446 N454 1.356 . S
C447 C446 1.363 . S
C447 C453 1.363 . S
C448 C449 1.363 . S
C448 C453 1.379 1_455 S
C448 N455 1.356 . S
C449 C448 1.363 . S
C449 C452 1.363 1_455 S
N450 C452 1.356 1_455 S
N450 H462 0.984 . S
N450 H463 0.985 . S
N451 C453 1.356 . S
N451 H456 0.984 . S
N451 H457 0.985 . S
C452 C446 1.379 . S
C452 C449 1.363 1_655 S
C452 N450 1.356 1_655 S
C453 C447 1.363 . S
C453 C448 1.379 1_655 S
C453 N451 1.356 . S
N454 C446 1.356 . S
N454 H460 0.984 . S
N454 H461 0.984 . S
N455 C448 1.356 . S
N455 H458 0.984 . S
N455 H459 0.985 . S
H456 N451 0.984 . S
H457 N451 0.985 . S
H458 N455 0.984 . S
H459 N455 0.985 . S
H460 N454 0.984 . S
H461 N454 0.984 . S
H462 N450 0.984 . S
H463 N450 0.985 . S
C464 C465 1.363 . S
C464 C470 1.379 . S
C464 N472 1.356 . S
C465 C464 1.363 . S
C465 C471 1.363 1_454 S
C466 C467 1.363 1_556 S
C466 C471 1.379 . S
C466 N473 1.356 . S
C467 C466 1.363 1_554 S
C467 C470 1.363 1_655 S
N468 C470 1.356 . S
N468 H480 0.984 . S
N468 H481 0.985 1_455 S
N469 C471 1.356 . S
N469 H474 0.984 1_655 S
N469 H475 0.985 . S
C470 C464 1.379 . S
C470 C467 1.363 1_455 S
C470 N468 1.356 . S
C471 C465 1.363 1_656 S
C471 C466 1.379 . S
C471 N469 1.356 . S
N472 C464 1.356 . S
N472 H478 0.984 . S
N472 H479 0.984 . S
N473 C466 1.356 . S
N473 H476 0.984 . S
N473 H477 0.985 . S
H474 N469 0.984 1_455 S
H475 N469 0.985 . S
H476 N473 0.984 . S
H477 N473 0.985 . S
H478 N472 0.984 . S
H479 N472 0.984 . S
H480 N468 0.984 . S
H481 N468 0.985 1_655 S
C482 C483 1.363 . S
C482 C488 1.379 . S
C482 N490 1.356 . S
C483 C482 1.363 . S
C483 C489 1.363 1_455 S
C484 C485 1.363 . S
C484 C489 1.379 . S
C484 N491 1.356 . S
C485 C484 1.363 . S
C485 C488 1.363 1_655 S
N486 C488 1.356 1_655 S
N486 H498 0.984 1_655 S
N486 H499 0.985 . S
N487 C489 1.356 1_455 S
N487 H492 0.984 . S
N487 H493 0.985 1_455 S
C488 C482 1.379 . S
C488 C485 1.363 1_455 S
C488 N486 1.356 1_455 S
C489 C483 1.363 1_655 S
C489 C484 1.379 . S
C489 N487 1.356 1_655 S
N490 C482 1.356 . S
N490 H496 0.984 . S
N490 H497 0.984 . S
N491 C484 1.356 . S
N491 H494 0.984 . S
N491 H495 0.985 . S
H492 N487 0.984 . S
H493 N487 0.985 1_655 S
H494 N491 0.984 . S
H495 N491 0.985 . S
H496 N490 0.984 . S
H497 N490 0.984 . S
H498 N486 0.984 1_455 S
H499 N486 0.985 . S
C500 C501 1.363 . S
C500 C506 1.379 . S
C500 N508 1.356 . S
C501 C500 1.363 . S
C501 C507 1.363 1_565 S
C502 C503 1.363 . S
C502 C507 1.379 . S
C502 N509 1.356 . S
C503 C502 1.363 . S
C503 C506 1.363 1_545 S
N504 C506 1.361 . S
N504 H516 1.013 . S
N504 H517 0.952 1_565 S
N505 C507 1.361 . S
N505 H510 0.952 1_545 S
N505 H511 1.013 . S
C506 C500 1.379 . S
C506 C503 1.363 1_565 S
C506 N504 1.361 . S
C507 C501 1.363 1_545 S
C507 C502 1.379 . S
C507 N505 1.361 . S
N508 C500 1.356 . S
N508 H514 0.984 . S
N508 H515 0.984 . S
N509 C502 1.356 . S
N509 H512 0.984 . S
N509 H513 0.985 . S
H510 N505 0.952 1_565 S
H511 N505 1.013 . S
H512 N509 0.984 . S
H513 N509 0.985 . S
H514 N508 0.984 . S
H515 N508 0.984 . S
H516 N504 1.013 . S
H517 N504 0.952 1_545 S
C518 C519 1.363 . S
C518 C524 1.379 1_545 S
C518 N526 1.356 . S
C519 C518 1.363 . S
C519 C525 1.363 . S
C520 C521 1.363 . S
C520 C525 1.379 1_565 S
C520 N527 1.356 . S
C521 C520 1.363 . S
C521 C524 1.363 . S
N522 C524 1.356 . S
N522 H534 0.984 . S
N522 H535 0.985 . S
N523 C525 1.356 . S
N523 H528 0.984 . S
N523 H529 0.985 . S
C524 C518 1.379 1_565 S
C524 C521 1.363 . S
C524 N522 1.356 . S
C525 C519 1.363 . S
C525 C520 1.379 1_545 S
C525 N523 1.356 . S
N526 C518 1.356 . S
N526 H532 0.984 . S
N526 H533 0.984 . S
N527 C520 1.356 . S
N527 H530 0.984 . S
N527 H531 0.985 . S
H528 N523 0.984 . S
H529 N523 0.985 . S
H530 N527 0.984 . S
H531 N527 0.985 . S
H532 N526 0.984 . S
H533 N526 0.984 . S
H534 N522 0.984 . S
H535 N522 0.985 . S
C536 C537 1.363 1_556 S
C536 C542 1.379 . S
C536 N544 1.356 . S
C537 C536 1.363 1_554 S
C537 C543 1.363 . S
C538 C539 1.363 . S
C538 C543 1.379 . S
C538 N545 1.356 . S
C539 C538 1.363 . S
C539 C542 1.363 1_554 S
N540 C542 1.356 . S
N540 H552 0.984 . S
N540 H553 0.985 . S
N541 C543 1.356 . S
N541 H546 0.984 . S
N541 H547 0.985 . S
C542 C536 1.379 . S
C542 C539 1.363 1_556 S
C542 N540 1.356 . S
C543 C537 1.363 . S
C543 C538 1.379 . S
C543 N541 1.356 . S
N544 C536 1.356 . S
N544 H550 0.984 . S
N544 H551 0.984 . S
N545 C538 1.356 . S
N545 H548 0.984 . S
N545 H549 0.985 . S
H546 N541 0.984 . S
H547 N541 0.985 . S
H548 N545 0.984 . S
H549 N545 0.985 . S
H550 N544 0.984 . S
H551 N544 0.984 . S
H552 N540 0.984 . S
H553 N540 0.985 . S
C554 C555 1.363 1_556 S
C554 C560 1.379 . S
C554 N562 1.356 . S
C555 C554 1.363 1_554 S
C555 C561 1.363 . S
C556 C557 1.363 . S
C556 C561 1.379 . S
C556 N563 1.356 . S
C557 C556 1.363 . S
C557 C560 1.363 1_554 S
N558 C560 1.356 . S
N558 H570 0.984 . S
N558 H571 0.985 . S
N559 C561 1.356 . S
N559 H564 0.984 . S
N559 H565 0.985 . S
C560 C554 1.379 . S
C560 C557 1.363 1_556 S
C560 N558 1.356 . S
C561 C555 1.363 . S
C561 C556 1.379 . S
C561 N559 1.356 . S
N562 C554 1.356 . S
N562 H568 0.984 . S
N562 H569 0.984 . S
N563 C556 1.356 . S
N563 H566 0.984 . S
N563 H567 0.985 . S
H564 N559 0.984 . S
H565 N559 0.985 . S
H566 N563 0.984 . S
H567 N563 0.985 . S
H568 N562 0.984 . S
H569 N562 0.984 . S
H570 N558 0.984 . S
H571 N558 0.985 . S
C572 C573 1.363 . S
C572 C578 1.379 . S
C572 N580 1.356 . S
C573 C572 1.363 . S
C573 C579 1.363 . S
C574 C575 1.363 . S
C574 C579 1.379 . S
C574 N581 1.356 . S
C575 C574 1.363 . S
C575 C578 1.363 . S
N576 C578 1.356 . S
N576 H588 0.984 . S
N576 H589 0.985 . S
N577 C579 1.356 . S
N577 H582 0.984 . S
N577 H583 0.985 . S
C578 C572 1.379 . S
C578 C575 1.363 . S
C578 N576 1.356 . S
C579 C573 1.363 . S
C579 C574 1.379 . S
C579 N577 1.356 . S
N580 C572 1.356 . S
N580 H586 0.984 . S
N580 H587 0.984 . S
N581 C574 1.356 . S
N581 H584 0.984 . S
N581 H585 0.985 . S
H582 N577 0.984 . S
H583 N577 0.985 . S
H584 N581 0.984 . S
H585 N581 0.985 . S
H586 N580 0.984 . S
H587 N580 0.984 . S
H588 N576 0.984 . S
H589 N576 0.985 . S
C590 C591 1.363 . S
C590 C596 1.379 . S
C590 N598 1.356 . S
C591 C590 1.363 . S
C591 C597 1.363 . S
C592 C593 1.363 . S
C592 C597 1.379 . S
C592 N599 1.356 . S
C593 C592 1.363 . S
C593 C596 1.363 . S
N594 C596 1.356 . S
N594 H606 0.984 . S
N594 H607 0.985 . S
N595 C597 1.356 . S
N595 H600 0.984 . S
N595 H601 0.985 . S
C596 C590 1.379 . S
C596 C593 1.363 . S
C596 N594 1.356 . S
C597 C591 1.363 . S
C597 C592 1.379 . S
C597 N595 1.356 . S
N598 C590 1.356 . S
N598 H604 0.984 . S
N598 H605 0.984 . S
N599 C592 1.356 . S
N599 H602 0.984 . S
N599 H603 0.985 . S
H600 N595 0.984 . S
H601 N595 0.985 . S
H602 N599 0.984 . S
H603 N599 0.985 . S
H604 N598 0.984 . S
H605 N598 0.984 . S
H606 N594 0.984 . S
H607 N594 0.985 . S
C608 C609 1.363 1_655 S
C608 C614 1.379 . S
C608 N616 1.356 . S
C609 C608 1.363 1_455 S
C609 C615 1.363 . S
C610 C611 1.363 1_455 S
C610 C615 1.379 . S
C610 N617 1.356 . S
C611 C610 1.363 1_655 S
C611 C614 1.363 . S
N612 C614 1.356 . S
N612 H624 0.984 . S
N612 H625 0.985 . S
N613 C615 1.356 . S
N613 H618 0.984 . S
N613 H619 0.985 . S
C614 C608 1.379 . S
C614 C611 1.363 . S
C614 N612 1.356 . S
C615 C609 1.363 . S
C615 C610 1.379 . S
C615 N613 1.356 . S
N616 C608 1.356 . S
N616 H622 0.984 . S
N616 H623 0.984 . S
N617 C610 1.356 . S
N617 H620 0.984 1_455 S
N617 H621 0.985 . S
H618 N613 0.984 . S
H619 N613 0.985 . S
H620 N617 0.984 1_655 S
H621 N617 0.985 . S
H622 N616 0.984 . S
H623 N616 0.984 . S
H624 N612 0.984 . S
H625 N612 0.985 . S
C626 C627 1.363 1_455 S
C626 C632 1.379 . S
C626 N634 1.356 . S
C627 C626 1.363 1_655 S
C627 C633 1.363 . S
C628 C629 1.363 1_655 S
C628 C633 1.379 . S
C628 N635 1.356 . S
C629 C628 1.363 1_455 S
C629 C632 1.363 . S
N630 C632 1.356 . S
N630 H642 0.984 . S
N630 H643 0.985 . S
N631 C633 1.356 . S
N631 H636 0.984 . S
N631 H637 0.985 . S
C632 C626 1.379 . S
C632 C629 1.363 . S
C632 N630 1.356 . S
C633 C627 1.363 . S
C633 C628 1.379 . S
C633 N631 1.356 . S
N634 C626 1.356 . S
N634 H640 0.984 . S
N634 H641 0.984 1_455 S
N635 C628 1.356 . S
N635 H638 0.984 1_655 S
N635 H639 0.985 . S
H636 N631 0.984 . S
H637 N631 0.985 . S
H638 N635 0.984 1_455 S
H639 N635 0.985 . S
H640 N634 0.984 . S
H641 N634 0.984 1_655 S
H642 N630 0.984 . S
H643 N630 0.985 . S
C644 C645 1.363 1_455 S
C644 C650 1.379 . S
C644 N652 1.356 . S
C645 C644 1.363 1_655 S
C645 C651 1.363 . S
C646 C647 1.363 1_655 S
C646 C651 1.379 . S
C646 N653 1.356 . S
C647 C646 1.363 1_455 S
C647 C650 1.363 . S
N648 C650 1.356 . S
N648 H660 0.984 . S
N648 H661 0.985 . S
N649 C651 1.356 . S
N649 H654 0.984 . S
N649 H655 0.985 . S
C650 C644 1.379 . S
C650 C647 1.363 . S
C650 N648 1.356 . S
C651 C645 1.363 . S
C651 C646 1.379 . S
C651 N649 1.356 . S
N652 C644 1.356 . S
N652 H658 0.984 . S
N652 H659 0.984 1_455 S
N653 C646 1.356 . S
N653 H656 0.984 . S
N653 H657 0.985 . S
H654 N649 0.984 . S
H655 N649 0.985 . S
H656 N653 0.984 . S
H657 N653 0.985 . S
H658 N652 0.984 . S
H659 N652 0.984 1_655 S
H660 N648 0.984 . S
H661 N648 0.985 . S
C662 C663 1.363 1_455 S
C662 C668 1.379 . S
C662 N670 1.356 . S
C663 C662 1.363 1_655 S
C663 C669 1.363 . S
C664 C665 1.363 1_655 S
C664 C669 1.379 . S
C664 N671 1.356 . S
C665 C664 1.363 1_455 S
C665 C668 1.363 . S
N666 C668 1.356 . S
N666 H678 0.984 . S
N666 H679 0.985 . S
N667 C669 1.356 . S
N667 H672 0.984 . S
N667 H673 0.985 . S
C668 C662 1.379 . S
C668 C665 1.363 . S
C668 N666 1.356 . S
C669 C663 1.363 . S
C669 C664 1.379 . S
C669 N667 1.356 . S
N670 C662 1.356 . S
N670 H676 0.984 . S
N670 H677 0.984 . S
N671 C664 1.356 . S
N671 H674 0.984 . S
N671 H675 0.985 . S
H672 N667 0.984 . S
H673 N667 0.985 . S
H674 N671 0.984 . S
H675 N671 0.985 . S
H676 N670 0.984 . S
H677 N670 0.984 . S
H678 N666 0.984 . S
H679 N666 0.985 . S
C680 C681 1.363 . S
C680 C686 1.379 . S
C680 N688 1.356 . S
C681 C680 1.363 . S
C681 C687 1.363 . S
C682 C683 1.363 . S
C682 C687 1.379 . S
C682 N689 1.356 . S
C683 C682 1.363 . S
C683 C686 1.363 . S
N684 C686 1.356 . S
N684 H696 0.984 . S
N684 H697 0.985 . S
N685 C687 1.356 . S
N685 H690 0.984 . S
N685 H691 0.985 . S
C686 C680 1.379 . S
C686 C683 1.363 . S
C686 N684 1.356 . S
C687 C681 1.363 . S
C687 C682 1.379 . S
C687 N685 1.356 . S
N688 C680 1.356 . S
N688 H694 0.984 . S
N688 H695 0.984 . S
N689 C682 1.356 . S
N689 H692 0.984 . S
N689 H693 0.985 . S
H690 N685 0.984 . S
H691 N685 0.985 . S
H692 N689 0.984 . S
H693 N689 0.985 . S
H694 N688 0.984 . S
H695 N688 0.984 . S
H696 N684 0.984 . S
H697 N684 0.985 . S
C698 C699 1.363 . S
C698 C704 1.379 . S
C698 N706 1.356 . S
C699 C698 1.363 . S
C699 C705 1.363 . S
C700 C701 1.363 . S
C700 C705 1.379 . S
C700 N707 1.356 . S
C701 C700 1.363 . S
C701 C704 1.363 . S
N702 C704 1.356 . S
N702 H714 0.984 . S
N702 H715 0.985 . S
N703 C705 1.356 . S
N703 H708 0.984 . S
N703 H709 0.985 . S
C704 C698 1.379 . S
C704 C701 1.363 . S
C704 N702 1.356 . S
C705 C699 1.363 . S
C705 C700 1.379 . S
C705 N703 1.356 . S
N706 C698 1.356 . S
N706 H712 0.984 . S
N706 H713 0.984 . S
N707 C700 1.356 . S
N707 H710 0.984 . S
N707 H711 0.985 . S
H708 N703 0.984 . S
H709 N703 0.985 . S
H710 N707 0.984 . S
H711 N707 0.985 . S
H712 N706 0.984 . S
H713 N706 0.984 . S
H714 N702 0.984 . S
H715 N702 0.985 . S
C716 C717 1.363 . S
C716 C722 1.379 . S
C716 N724 1.356 . S
C717 C716 1.363 . S
C717 C723 1.363 . S
C718 C719 1.363 . S
C718 C723 1.379 . S
C718 N725 1.356 . S
C719 C718 1.363 . S
C719 C722 1.363 . S
N720 C722 1.356 . S
N720 H732 0.984 . S
N720 H733 0.985 . S
N721 C723 1.356 . S
N721 H726 0.984 . S
N721 H727 0.985 . S
C722 C716 1.379 . S
C722 C719 1.363 . S
C722 N720 1.356 . S
C723 C717 1.363 . S
C723 C718 1.379 . S
C723 N721 1.356 . S
N724 C716 1.356 . S
N724 H730 0.984 . S
N724 H731 0.984 . S
N725 C718 1.356 . S
N725 H728 0.984 . S
N725 H729 0.985 . S
H726 N721 0.984 . S
H727 N721 0.985 . S
H728 N725 0.984 . S
H729 N725 0.985 . S
H730 N724 0.984 . S
H731 N724 0.984 . S
H732 N720 0.984 . S
H733 N720 0.985 . S
C734 C735 1.363 . S
C734 C740 1.379 . S
C734 N742 1.356 . S
C735 C734 1.363 . S
C735 C741 1.363 . S
C736 C737 1.363 . S
C736 C741 1.379 . S
C736 N743 1.356 . S
C737 C736 1.363 . S
C737 C740 1.363 . S
N738 C740 1.356 . S
N738 H750 0.984 . S
N738 H751 0.985 . S
N739 C741 1.356 . S
N739 H744 0.984 . S
N739 H745 0.985 . S
C740 C734 1.379 . S
C740 C737 1.363 . S
C740 N738 1.356 . S
C741 C735 1.363 . S
C741 C736 1.379 . S
C741 N739 1.356 . S
N742 C734 1.356 . S
N742 H748 0.984 . S
N742 H749 0.984 . S
N743 C736 1.356 . S
N743 H746 0.984 . S
N743 H747 0.985 . S
H744 N739 0.984 . S
H745 N739 0.985 . S
H746 N743 0.984 . S
H747 N743 0.985 . S
H748 N742 0.984 . S
H749 N742 0.984 . S
H750 N738 0.984 . S
H751 N738 0.985 . S
C321 C13 2.082 . S
C323 C24 2.082 . S
C339 C53 2.082 . S
C341 C64 2.082 . S
C357 C93 2.079 . S
C359 C104 2.079 . S
C375 C144 2.099 . S
C377 C133 2.099 . S
C393 C173 2.082 . S
C395 C184 2.082 . S
C411 C224 2.082 . S
C413 C213 2.082 . S
C429 C253 2.080 . S
C431 C264 2.080 . S
C447 C293 2.100 . S
C449 C304 2.100 . S
C465 C66 2.561 1_554 S
C467 C17 2.561 . S
C483 C146 2.566 . S
C485 C106 2.566 . S
C501 C177 2.557 . S
C503 C226 2.557 1_554 S
C519 C266 2.570 . S
C521 C306 2.570 . S
C537 C26 1.809 . S
C539 C217 1.809 . S
C555 C186 1.809 . S
C557 C57 1.809 . S
C573 C97 1.831 . S
C575 C297 1.830 . S
C591 C137 1.830 . S
C593 C257 1.831 . S
C609 C2 1.641 . S
C611 C122 1.606 . S
C627 C42 1.537 . S
C629 C82 1.498 . S
C645 C63 1.600 . S
C647 C103 1.566 . S
C663 C143 1.479 . S
C665 C23 1.466 . S
C681 C162 1.641 . S
C683 C282 1.606 . S
C699 C202 1.536 . S
C701 C242 1.498 . S
C717 C223 1.601 . S
C719 C263 1.566 . S
C735 C303 1.479 . S
C737 C183 1.466 . S
