# Generated by pormake.
# Topology snk, (6)-cn, num edge types: 1
# Building blocks:
#     Node 0, Type 0, BuildingBlock: FUNLAD_clean_sbu_0, # of connection points: 6
#     Node 1, Type 0, BuildingBlock: FUNLAD_clean_sbu_0, # of connection points: 6
#     Node 2, Type 0, BuildingBlock: FUNLAD_clean_sbu_0, # of connection points: 6
#     Node 3, Type 0, BuildingBlock: FUNLAD_clean_sbu_0, # of connection points: 6
#     Node 4, Type 0, BuildingBlock: FUNLAD_clean_sbu_0, # of connection points: 6
#     Node 5, Type 0, BuildingBlock: FUNLAD_clean_sbu_0, # of connection points: 6
#     Node 6, Type 0, BuildingBlock: FUNLAD_clean_sbu_0, # of connection points: 6
#     Node 7, Type 0, BuildingBlock: FUNLAD_clean_sbu_0, # of connection points: 6
#     Edge 8, Type (0, 0), BuildingBlock: XIVTED_clean_linker_0, # of connection points: 2
#     Edge 9, Type (0, 0), BuildingBlock: XIVTED_clean_linker_0, # of connection points: 2
#     Edge 10, Type (0, 0), BuildingBlock: XIVTED_clean_linker_0, # of connection points: 2
#     Edge 11, Type (0, 0), BuildingBlock: XIVTED_clean_linker_0, # of connection points: 2
#     Edge 12, Type (0, 0), BuildingBlock: XIVTED_clean_linker_0, # of connection points: 2
#     Edge 13, Type (0, 0), BuildingBlock: XIVTED_clean_linker_0, # of connection points: 2
#     Edge 14, Type (0, 0), BuildingBlock: XIVTED_clean_linker_0, # of connection points: 2
#     Edge 15, Type (0, 0), BuildingBlock: XIVTED_clean_linker_0, # of connection points: 2
#     Edge 16, Type (0, 0), BuildingBlock: XIVTED_clean_linker_0, # of connection points: 2
#     Edge 17, Type (0, 0), BuildingBlock: XIVTED_clean_linker_0, # of connection points: 2
#     Edge 18, Type (0, 0), BuildingBlock: XIVTED_clean_linker_0, # of connection points: 2
#     Edge 19, Type (0, 0), BuildingBlock: XIVTED_clean_linker_0, # of connection points: 2
#     Edge 20, Type (0, 0), BuildingBlock: XIVTED_clean_linker_0, # of connection points: 2
#     Edge 21, Type (0, 0), BuildingBlock: XIVTED_clean_linker_0, # of connection points: 2
#     Edge 22, Type (0, 0), BuildingBlock: XIVTED_clean_linker_0, # of connection points: 2
#     Edge 23, Type (0, 0), BuildingBlock: XIVTED_clean_linker_0, # of connection points: 2
#     Edge 24, Type (0, 0), BuildingBlock: XIVTED_clean_linker_0, # of connection points: 2
#     Edge 25, Type (0, 0), BuildingBlock: XIVTED_clean_linker_0, # of connection points: 2
#     Edge 26, Type (0, 0), BuildingBlock: XIVTED_clean_linker_0, # of connection points: 2
#     Edge 27, Type (0, 0), BuildingBlock: XIVTED_clean_linker_0, # of connection points: 2
#     Edge 28, Type (0, 0), BuildingBlock: XIVTED_clean_linker_0, # of connection points: 2
#     Edge 29, Type (0, 0), BuildingBlock: XIVTED_clean_linker_0, # of connection points: 2
#     Edge 30, Type (0, 0), BuildingBlock: XIVTED_clean_linker_0, # of connection points: 2
#     Edge 31, Type (0, 0), BuildingBlock: XIVTED_clean_linker_0, # of connection points: 2
# Relax obj value: 0.243
# Max RMSD: 0.121
# Mean RMSD: 0.089
data_MOF--net-snk--node1-FUNLAD_clean_sbu_0--edge1-XIVTED_clean_linker_0
_symmetry_space_group_name_H-M    P1
_symmetry_Int_Tables_number       1
_symmetry_cell_setting            triclinic
loop_
_symmetry_equiv_pos_as_xyz
'x, y, z'
_cell_length_a     49.303546
_cell_length_b     49.377465
_cell_length_c     15.380103
_cell_angle_alpha  79.904531
_cell_angle_beta   80.767875
_cell_angle_gamma 95.944943
loop_
_atom_site_label
_atom_site_type_symbol
_atom_site_fract_x
_atom_site_fract_y
_atom_site_fract_z
_atom_type_partial_charge
C0 C 1.0345 0.03839 0.64761 0.0
N1 N 0.0822 0.99585 0.48316 0.0
C2 C 0.10502 1.00477 0.51512 0.0
C3 C 0.12549 0.98773 0.5276 0.0
C4 C 0.12228 0.96071 0.50977 0.0
C5 C 0.09845 0.95207 0.47663 0.0
C6 C 0.07879 0.97012 0.46294 0.0
Zn7 Zn 0.05221 1.02158 0.47204 0.0
C8 C 0.99378 0.98948 0.52055 0.0
N9 N 0.99041 0.07639 0.45922 0.0
C10 C 0.99278 0.10201 0.48068 0.0
C11 C 0.96799 0.06684 0.42645 0.0
C12 C 0.94674 0.08294 0.41522 0.0
C13 C 0.9487 0.10973 0.43502 0.0
C14 C 0.97223 0.11917 0.46832 0.0
Zn15 Zn 1.02074 0.051 0.47065 0.0
O16 O 0.04997 1.02383 0.60685 0.0
C17 C 0.07923 0.08309 0.42235 0.0
O18 O 1.019 0.05283 0.60589 0.0
H19 H 0.96656 0.04668 0.40806 0.0
H20 H 0.1073 1.0251 0.5322 0.0
H21 H 1.0108 0.10934 0.50622 0.0
O22 O 0.08449 0.05807 0.43363 0.0
O23 O 0.05378 0.08702 0.43275 0.0
H24 H 0.06053 0.96332 0.43769 0.0
O25 O 1.023 0.04875 0.33583 0.0
O26 O 0.05394 1.01974 0.33682 0.0
O27 O 0.98849 1.01447 0.50932 0.0
O28 O 1.01921 0.98562 0.51 0.0
C29 C 0.03846 1.03418 0.29508 0.0
H30 H 0.14361 0.99582 0.55121 0.0
H31 H 0.09456 0.93137 0.46318 0.0
H32 H 0.92894 0.07423 0.39136 0.0
H33 H 0.97515 0.13977 0.48322 0.0
C34 C 0.28938 0.7953 0.86554 0.0
N35 N 0.34181 0.82712 0.6178 0.0
C36 C 0.34661 0.85315 0.63411 0.0
C37 C 0.3722 0.86925 0.59858 0.0
C38 C 0.39292 0.85821 0.54681 0.0
C39 C 0.38677 0.83202 0.52657 0.0
C40 C 0.36087 0.81679 0.56262 0.0
Zn41 Zn 0.3065 0.80151 0.67578 0.0
C42 C 0.32078 0.74386 0.73248 0.0
N43 N 0.23505 0.74335 0.77487 0.0
C44 C 0.21558 0.75306 0.83048 0.0
C45 C 0.23284 0.71623 0.76796 0.0
C46 C 0.21027 0.69769 0.81806 0.0
C47 C 0.18974 0.70719 0.87556 0.0
C48 C 0.19253 0.73527 0.88131 0.0
Zn49 Zn 0.27001 0.7694 0.71528 0.0
O50 O 0.3088 0.80976 0.80581 0.0
C51 C 0.25603 0.82714 0.65875 0.0
O52 O 0.27172 0.77873 0.84256 0.0
H53 H 0.24866 0.70896 0.72393 0.0
H54 H 0.33106 0.86092 0.67765 0.0
H55 H 0.21805 0.77463 0.83645 0.0
O56 O 0.28199 0.83411 0.65084 0.0
O57 O 0.24591 0.80173 0.68441 0.0
H58 H 0.35647 0.79616 0.54934 0.0
O59 O 0.26841 0.76021 0.58581 0.0
O60 O 0.30401 0.79307 0.54796 0.0
O61 O 0.2947 0.73699 0.74503 0.0
O62 O 0.33071 0.76911 0.70231 0.0
C63 C 0.28706 0.77563 0.52552 0.0
H64 H 0.37644 0.88922 0.61724 0.0
H65 H 0.40234 0.82284 0.48761 0.0
H66 H 0.20842 0.67632 0.80928 0.0
H67 H 0.17693 0.74339 0.92379 0.0
C68 C 0.53808 0.05157 0.76904 0.0
N69 N 0.4918 0.99104 -0.0205 0.0
C70 C 0.47286 0.99652 0.92597 0.0
C71 C 0.46596 0.97788 0.87251 0.0
C72 C 0.47873 0.95369 0.87531 0.0
C73 C 0.49349 0.9461 0.94447 0.0
C74 C 0.49937 0.96521 -0.00197 0.0
Zn75 Zn 0.52171 1.02346 0.96988 0.0
C76 C 0.57772 1.00504 0.91657 0.0
N77 N 0.58724 0.09003 0.92439 0.0
C78 C 0.5792 0.11541 0.92789 0.0
C79 C 0.60826 0.08171 0.96553 0.0
C80 C 0.61636 0.09511 0.03111 0.0
C81 C 0.60353 0.11793 0.05124 0.0
C82 C 0.58686 0.12972 -0.00728 0.0
Zn83 Zn 0.55641 0.05819 0.93113 0.0
O84 O 0.52195 1.0332 0.82854 0.0
C85 C 0.49963 0.0758 -0.01518 0.0
O86 O 0.55629 0.0675 0.79263 0.0
H87 H 0.61527 0.06197 0.96098 0.0
H88 H 0.46692 1.0171 0.91253 0.0
H89 H 0.56357 0.12256 0.89088 0.0
O90 O 0.49161 0.05 -0.00488 0.0
O91 O 0.52524 0.08478 0.9573 0.0
H92 H 0.51395 0.96112 0.04274 0.0
O93 O 0.55631 0.04877 0.07145 0.0
O94 O 0.52203 1.01453 0.10916 0.0
O95 O 0.5863 1.03072 0.90543 0.0
O96 O 0.55211 0.99671 0.94401 0.0
C97 C 0.54021 1.03074 0.13184 0.0
H98 H 0.4534 0.98383 0.82243 0.0
H99 H 0.50315 0.9273 0.95019 0.0
H100 H 0.62973 0.08527 0.07255 0.0
H101 H 0.57778 0.14829 0.00212 0.0
C102 C 0.28471 0.28868 0.0432 0.0
N103 N 0.32848 0.2418 0.20977 0.0
C104 C 0.32155 0.22112 0.16607 0.0
C105 C 0.33994 0.2023 0.14786 0.0
C106 C 0.36589 0.20467 0.1745 0.0
C107 C 0.37232 0.22588 0.22117 0.0
C108 C 0.35321 0.24428 0.23827 0.0
Zn109 Zn 0.30167 0.27084 0.22144 0.0
C110 C 0.33252 0.32994 0.17229 0.0
N111 N 0.24485 0.33116 0.23067 0.0
C112 C 0.2183 0.32693 0.21665 0.0
C113 C 0.25412 0.35412 0.26077 0.0
C114 C 0.23666 0.37377 0.27806 0.0
C115 C 0.20879 0.36957 0.26777 0.0
C116 C 0.19981 0.34578 0.23557 0.0
Zn117 Zn 0.2715 0.30177 0.21846 0.0
O118 O 0.29965 0.27387 0.08603 0.0
C119 C 0.24077 0.24249 0.26728 0.0
O120 O 0.26945 0.30367 0.08299 0.0
H121 H 0.275 0.35705 0.27375 0.0
H122 H 0.30199 0.21965 0.14282 0.0
H123 H 0.21114 0.30854 0.19321 0.0
O124 O 0.26592 0.2376 0.25727 0.0
O125 O 0.23644 0.26783 0.25616 0.0
H126 H 0.35838 0.2609 0.27266 0.0
O127 O 0.27399 0.29934 0.35323 0.0
O128 O 0.30314 0.26852 0.35751 0.0
O129 O 0.30739 0.33477 0.17998 0.0
O130 O 0.33687 0.30463 0.1859 0.0
C131 C 0.28841 0.28405 0.39666 0.0
H132 H 0.33419 0.18662 0.11049 0.0
H133 H 0.39195 0.22833 0.24386 0.0
H134 H 0.24509 0.39196 0.30016 0.0
H135 H 0.17854 0.34117 0.2274 0.0
C136 C 0.7748 0.28773 0.44568 0.0
N137 N 0.82725 0.32013 0.1975 0.0
C138 C 0.83155 0.34667 0.20993 0.0
C139 C 0.85646 0.3634 0.1693 0.0
C140 C 0.87695 0.35254 0.1159 0.0
C141 C 0.87133 0.32563 0.1007 0.0
C142 C 0.84624 0.30971 0.14237 0.0
Zn143 Zn 0.79217 0.29423 0.25577 0.0
C144 C 0.80737 0.23711 0.31238 0.0
N145 N 0.72144 0.23487 0.35249 0.0
C146 C 0.70115 0.24357 0.40798 0.0
C147 C 0.71937 0.20844 0.33841 0.0
C148 C 0.69573 0.18982 0.37858 0.0
C149 C 0.67389 0.19855 0.43313 0.0
C150 C 0.67694 0.2257 0.44874 0.0
Zn151 Zn 0.75608 0.26166 0.29512 0.0
O152 O 0.79338 0.30327 0.38545 0.0
C153 C 0.7414 0.31923 0.23831 0.0
O154 O 0.758 0.27014 0.42324 0.0
H155 H 0.7358 0.20198 0.2944 0.0
H156 H 0.81602 0.35453 0.25328 0.0
H157 H 0.7035 0.2646 0.41949 0.0
O158 O 0.76748 0.32609 0.22636 0.0
O159 O 0.73131 0.29394 0.26841 0.0
H160 H 0.84226 0.28866 0.13219 0.0
O161 O 0.75418 0.25335 0.1649 0.0
O162 O 0.79068 0.28505 0.1281 0.0
O163 O 0.78155 0.22943 0.32029 0.0
O164 O 0.81671 0.26264 0.28661 0.0
C165 C 0.77334 0.26816 0.10511 0.0
H166 H 0.86032 0.38394 0.18423 0.0
H167 H 0.88671 0.31658 0.06048 0.0
H168 H 0.69391 0.16929 0.36243 0.0
H169 H 0.66041 0.23326 0.48927 0.0
C170 C 0.78504 0.78842 0.54633 0.0
N171 N 0.82858 0.74158 0.71392 0.0
C172 C 0.82175 0.72073 0.6708 0.0
C173 C 0.8402 0.70189 0.65341 0.0
C174 C 0.86613 0.70445 0.68021 0.0
C175 C 0.87248 0.72587 0.72611 0.0
C176 C 0.8533 0.74426 0.74248 0.0
Zn177 Zn 0.80175 0.77064 0.72468 0.0
C178 C 0.8328 0.82975 0.67548 0.0
N179 N 0.74518 0.83127 0.73249 0.0
C180 C 0.71879 0.82707 0.71704 0.0
C181 C 0.75428 0.85431 0.76247 0.0
C182 C 0.73679 0.8741 0.77806 0.0
C183 C 0.70908 0.86997 0.76602 0.0
C184 C 0.70029 0.84604 0.73417 0.0
Zn185 Zn 0.77181 0.8018 0.72148 0.0
O186 O 0.79986 0.77348 0.58926 0.0
C187 C 0.74082 0.74255 0.77053 0.0
O188 O 0.76993 0.80354 0.586 0.0
H189 H 0.77505 0.85724 0.77641 0.0
H190 H 0.80221 0.71911 0.64745 0.0
H191 H 0.71177 0.80862 0.69363 0.0
O192 O 0.7659 0.73742 0.76064 0.0
O193 O 0.73673 0.76796 0.75917 0.0
H194 H 0.8584 0.76102 0.77639 0.0
O195 O 0.77414 0.79953 0.85628 0.0
O196 O 0.80308 0.7685 0.86072 0.0
O197 O 0.80772 0.83471 0.68316 0.0
O198 O 0.83701 0.80439 0.68905 0.0
C199 C 0.78847 0.78414 0.89978 0.0
H200 H 0.83452 0.68603 0.61664 0.0
H201 H 0.89209 0.72847 0.74885 0.0
H202 H 0.74509 0.89236 0.80006 0.0
H203 H 0.67914 0.84147 0.72479 0.0
C204 C 0.53353 0.53781 0.14936 0.0
N205 N 0.58124 0.49463 -0.0117 0.0
C206 C 0.60193 0.50192 0.03207 0.0
C207 C 0.62093 0.48377 0.05202 0.0
C208 C 0.61863 0.45771 0.02726 0.0
C209 C 0.59743 0.45091 -0.01958 0.0
C210 C 0.57889 0.46981 0.96135 0.0
Zn211 Zn 0.55218 0.52109 0.97325 0.0
C212 C 0.49328 0.48994 0.01807 0.0
N213 N 0.49196 0.57723 0.95665 0.0
C214 C 0.4937 0.60184 -0.01493 0.0
C215 C 0.47127 0.56963 0.91326 0.0
C216 C 0.45153 0.58714 0.89576 0.0
C217 C 0.45304 0.61291 0.92261 0.0
C218 C 0.47438 0.62011 0.96849 0.0
Zn219 Zn 0.52128 0.55098 0.97134 0.0
O220 O 0.54888 0.52317 0.1086 0.0
C221 C 0.58036 0.58202 0.92651 0.0
O222 O 0.51847 0.55269 0.10721 0.0
H223 H 0.47038 0.55015 0.89021 0.0
H224 H 0.60327 0.52157 0.05404 0.0
H225 H 0.5103 0.60749 0.01939 0.0
O226 O 0.58519 0.55685 0.9376 0.0
O227 O 0.55504 0.58639 0.93605 0.0
H228 H 0.56227 0.46441 0.92676 0.0
O229 O 0.52461 0.54892 0.83597 0.0
O230 O 0.55497 0.51935 0.83742 0.0
O231 O 0.48822 0.51504 0.00704 0.0
O232 O 0.51864 0.48581 0.00848 0.0
C233 C 0.53992 0.53424 0.79525 0.0
H234 H 0.63665 0.48974 0.0894 0.0
H235 H 0.59506 0.43113 0.95932 0.0
H236 H 0.43576 0.5809 0.85893 0.0
H237 H 0.47619 0.63969 -0.00892 0.0
C238 C 0.03984 0.55162 0.28286 0.0
N239 N 0.99321 0.49288 0.49652 0.0
C240 C 0.97372 0.49869 0.44541 0.0
C241 C 0.96475 0.47955 0.39642 0.0
C242 C 0.97623 0.45459 0.40039 0.0
C243 C 0.99199 0.44713 0.46692 0.0
C244 C 0.99985 0.46672 0.51644 0.0
Zn245 Zn 1.02399 0.52451 0.48425 0.0
C246 C 0.07893 0.5047 0.42985 0.0
N247 N 0.09097 0.58997 0.43372 0.0
C248 C 0.08328 0.61512 0.44317 0.0
C249 C 0.11231 0.58072 0.47129 0.0
C250 C 0.12066 0.59221 0.5404 0.0
C251 C 0.10814 0.61451 0.56659 0.0
C252 C 0.09135 0.6277 0.51117 0.0
Zn253 Zn 0.05905 0.55881 0.44293 0.0
O254 O 1.0237 0.53366 0.34362 0.0
C255 C 1.00314 0.57775 0.49733 0.0
O256 O 0.0584 0.5676 0.30474 0.0
H257 H 0.11961 0.56155 0.46047 0.0
H258 H 0.96858 0.51956 0.43071 0.0
H259 H 0.06771 0.62336 0.40803 0.0
O260 O 0.99482 0.55196 0.50917 0.0
O261 O 1.02876 0.5864 0.46862 0.0
H262 H 1.01491 0.46242 0.55921 0.0
O263 O 0.05948 0.54981 0.58303 0.0
O264 O 1.0248 0.51599 0.6228 0.0
O265 O 0.08787 0.53032 0.41748 0.0
O266 O 0.05333 0.49673 0.45869 0.0
C267 C 0.04337 0.53205 0.64423 0.0
H268 H 0.95139 0.48548 0.34888 0.0
H269 H 1.00074 0.4278 0.47371 0.0
H270 H 0.13427 0.58147 0.57864 0.0
H271 H 0.0827 0.64614 0.52459 0.0
H272 H 0.07646 0.13987 0.39399 0.0
H273 H 0.24263 0.18582 0.29509 0.0
H274 H 0.13593 0.08175 0.39651 0.0
H275 H 0.18395 0.24474 0.29313 0.0
H276 H 0.20391 0.14786 0.33184 0.0
H277 H 0.11496 0.1783 0.35705 0.0
C278 C 0.09754 0.13506 0.38673 0.0
C279 C 0.10261 0.10718 0.39858 0.0
C280 C 0.1994 0.16906 0.32348 0.0
C281 C 0.14736 0.15166 0.35588 0.0
C282 C 0.22164 0.19091 0.3024 0.0
C283 C 0.2169 0.21889 0.29075 0.0
C284 C 0.17177 0.1748 0.33333 0.0
C285 C 0.18893 0.22371 0.30132 0.0
C286 C 0.11964 0.15715 0.36558 0.0
C287 C 0.13067 0.10268 0.38814 0.0
N288 N 0.16764 0.20208 0.3218 0.0
N289 N 0.15173 0.12447 0.36762 0.0
H290 H 0.13723 0.91863 0.4222 0.0
H291 H 0.26229 0.88249 0.6668 0.0
H292 H 0.15573 0.95877 0.63834 0.0
H293 H 0.20811 0.81894 0.59517 0.0
H294 H 0.23044 0.91607 0.62774 0.0
H295 H 0.17027 0.88661 0.4571 0.0
C296 C 0.14801 0.9208 0.4771 0.0
C297 C 0.14329 0.9416 0.5275 0.0
C298 C 0.22568 0.89475 0.62062 0.0
C299 C 0.18205 0.90549 0.565 0.0
C300 C 0.2438 0.87568 0.64252 0.0
C301 C 0.23765 0.84793 0.63475 0.0
C302 C 0.2018 0.88608 0.58838 0.0
C303 C 0.21344 0.8401 0.60296 0.0
C304 C 0.16705 0.90259 0.49634 0.0
C305 C 0.15881 0.94361 0.59608 0.0
N306 N 0.1965 0.85913 0.58022 0.0
N307 N 0.17756 0.9259 0.61246 0.0
H308 H 0.43649 0.83347 0.59304 0.0
H309 H 0.48779 0.97706 0.69748 0.0
H310 H 0.41487 0.91231 0.47506 0.0
H311 H 0.47478 0.89753 0.87784 0.0
H312 H 0.48465 0.95359 0.57211 0.0
H313 H 0.47524 0.85771 0.64145 0.0
C314 C 0.44079 0.85586 0.57299 0.0
C315 C 0.42189 0.87112 0.53363 0.0
C316 C 0.48316 0.94131 0.63883 0.0
C317 C 0.46555 0.89865 0.59 0.0
C318 C 0.48438 0.95463 0.71071 0.0
C319 C 0.48007 0.9392 0.79882 0.0
C320 C 0.47747 0.91234 0.65526 0.0
C321 C 0.47734 0.91021 0.81136 0.0
C322 C 0.46281 0.86966 0.60125 0.0
C323 C 0.42854 0.89997 0.50828 0.0
N324 N 0.47544 0.89766 0.74039 0.0
N325 N 0.44946 0.91298 0.53945 0.0
H326 H 0.44346 0.06349 0.04328 0.0
H327 H 0.42233 0.2173 0.11716 0.0
H328 H 0.51023 0.13155 -0.01546 0.0
H329 H 0.35609 0.14874 0.17611 0.0
H330 H 0.455 0.18625 0.07061 0.0
H331 H 0.41124 0.09459 0.0916 0.0
C332 C 0.45136 0.08502 0.04007 0.0
C333 C 0.47964 0.0949 0.00955 0.0
C334 C 0.43332 0.17799 0.09388 0.0
C335 C 0.44275 0.1307 0.06558 0.0
C336 C 0.41466 0.19567 0.12122 0.0
C337 C 0.38633 0.1857 0.15054 0.0
C338 C 0.42366 0.15005 0.09586 0.0
C339 C 0.37762 0.15751 0.15284 0.0
C340 C 0.43292 0.10278 0.06794 0.0
C341 C 0.48861 0.12302 0.0072 0.0
N342 N 0.39617 0.14075 0.12581 0.0
N343 N 0.47025 0.1399 0.03498 0.0
H344 H 0.9968 0.93278 0.55018 0.0
H345 H 0.83083 0.88633 0.64479 0.0
H346 H 0.93707 0.99063 0.54529 0.0
H347 H 0.88963 0.82755 0.65262 0.0
H348 H 0.86943 0.92437 0.60817 0.0
H349 H 0.95845 0.89421 0.58721 0.0
C350 C 0.97569 0.93749 0.55693 0.0
C351 C 0.97049 0.96534 0.5444 0.0
C352 C 0.874 0.90319 0.61778 0.0
C353 C 0.92594 0.92071 0.58712 0.0
C354 C 0.85183 0.88129 0.63876 0.0
C355 C 0.85664 0.85334 0.65202 0.0
C356 C 0.90162 0.89751 0.60959 0.0
C357 C 0.88461 0.84857 0.64313 0.0
C358 C 0.95368 0.91533 0.57814 0.0
C359 C 0.94241 0.96973 0.55421 0.0
N360 N 0.90584 0.87024 0.62265 0.0
N361 N 0.92145 0.94787 0.57473 0.0
H362 H 0.91509 0.11071 0.30702 0.0
H363 H 0.85422 0.24733 0.37917 0.0
H364 H 0.93135 0.15011 0.52689 0.0
H365 H 0.80455 0.18203 0.29945 0.0
H366 H 0.88738 0.21531 0.41418 0.0
H367 H 0.87871 0.13967 0.28458 0.0
C368 C 0.91097 0.12511 0.35149 0.0
C369 C 0.92653 0.12762 0.41967 0.0
C370 C 0.86915 0.20797 0.38947 0.0
C371 C 0.88534 0.16164 0.39115 0.0
C372 C 0.85031 0.22621 0.36903 0.0
C373 C 0.82666 0.21726 0.33621 0.0
C374 C 0.86473 0.18078 0.37479 0.0
C375 C 0.8225 0.18965 0.32489 0.0
C376 C 0.89022 0.14175 0.33797 0.0
C377 C 0.92049 0.14757 0.47247 0.0
N378 N 0.84161 0.17241 0.34301 0.0
N379 N 0.90059 0.16396 0.45652 0.0
H380 H 0.66141 0.14297 0.50646 0.0
H381 H 0.5626 0.13788 0.15746 0.0
H382 H 0.62392 0.21443 0.4072 0.0
H383 H 0.64559 0.1159 0.14903 0.0
H384 H 0.56393 0.14931 0.30574 0.0
H385 H 0.62803 0.11379 0.44978 0.0
C386 C 0.64514 0.1523 0.47743 0.0
C387 C 0.64652 0.18125 0.45538 0.0
C388 C 0.58135 0.1412 0.27168 0.0
C389 C 0.60906 0.14841 0.3902 0.0
C390 C 0.58107 0.1354 0.18611 0.0
C391 C 0.60427 0.12626 0.13917 0.0
C392 C 0.60453 0.13692 0.31145 0.0
C393 C 0.62705 0.12248 0.18198 0.0
C394 C 0.62614 0.13565 0.44499 0.0
C395 C 0.6244 0.19223 0.42113 0.0
N396 N 0.62657 0.12786 0.26539 0.0
N397 N 0.60713 0.17588 0.3855 0.0
H398 H 0.70963 0.90292 0.89406 0.0
H399 H 0.56535 0.95581 0.86493 0.0
H400 H 0.66327 0.88324 0.69186 0.0
H401 H 0.63354 1.0088 0.91787 0.0
H402 H 0.59734 0.92307 0.82623 0.0
H403 H 0.67848 0.93639 0.92747 0.0
C404 C 0.69321 0.90567 0.85566 0.0
C405 C 0.68958 0.89014 0.78873 0.0
C406 C 0.60523 0.94189 0.84628 0.0
C407 C 0.65296 0.92789 0.83056 0.0
C408 C 0.58703 0.96048 0.86885 0.0
C409 C 0.59687 0.98505 0.89462 0.0
C410 C 0.6333 0.94754 0.85185 0.0
C411 C 0.62517 0.99015 0.89802 0.0
C412 C 0.67528 0.92473 0.87566 0.0
C413 C 0.66695 0.89422 0.7447 0.0
N414 N 0.64238 0.97139 0.87779 0.0
N415 N 0.64942 0.91252 0.76683 0.0
H416 H 0.63682 0.57964 0.90195 0.0
H417 H 0.68428 0.74566 0.79614 0.0
H418 H 0.57865 0.63906 0.8978 0.0
H419 H 0.74181 0.68562 0.79911 0.0
H420 H 0.64564 0.70745 0.83343 0.0
H421 H 0.67509 0.61802 0.86496 0.0
C422 C 0.63195 0.60073 0.89327 0.0
C423 C 0.60409 0.60576 0.90326 0.0
C424 C 0.66669 0.70257 0.82602 0.0
C425 C 0.64856 0.65052 0.86033 0.0
C426 C 0.68892 0.7245 0.80464 0.0
C427 C 0.71671 0.7192 0.79421 0.0
C428 C 0.67191 0.67474 0.83742 0.0
C429 C 0.72096 0.69104 0.8063 0.0
C430 C 0.65399 0.62278 0.87203 0.0
C431 C 0.59957 0.63385 0.89095 0.0
N432 N 0.69902 0.67013 0.82703 0.0
N433 N 0.62139 0.65495 0.87033 0.0
H434 H 0.68511 0.31077 0.25 0.0
H435 H 0.67467 0.46745 0.02415 0.0
H436 H 0.75577 0.37478 0.16559 0.0
H437 H 0.60547 0.40176 0.09318 0.0
H438 H 0.70459 0.43421 0.07818 0.0
H439 H 0.65546 0.34431 0.19725 0.0
C440 C 0.69439 0.33193 0.22085 0.0
C441 C 0.72302 0.33994 0.21216 0.0
C442 C 0.68289 0.42704 0.08125 0.0
C443 C 0.6891 0.3785 0.15095 0.0
C444 C 0.66576 0.44603 0.05063 0.0
C445 C 0.63748 0.43741 0.05418 0.0
C446 C 0.67166 0.3992 0.11616 0.0
C447 C 0.62719 0.4093 0.0881 0.0
C448 C 0.67743 0.35107 0.1904 0.0
C449 C 0.73383 0.36767 0.1737 0.0
N450 N 0.64424 0.39126 0.11807 0.0
N451 N 0.71687 0.38593 0.14438 0.0
H452 H 0.97071 0.39797 0.41352 0.0
H453 H 0.89509 0.40721 0.03994 0.0
H454 H 0.98018 0.47492 0.22132 0.0
H455 H 0.9238 0.33063 0.14446 0.0
H456 H 0.93614 0.43292 0.0711 0.0
H457 H 0.96339 0.37267 0.29511 0.0
C458 C 0.97162 0.40955 0.34622 0.0
C459 C 0.97465 0.4386 0.3283 0.0
C460 C 0.93413 0.41046 0.08388 0.0
C461 C 0.96618 0.40989 0.19255 0.0
C462 C 0.91065 0.39584 0.06599 0.0
C463 C 0.90555 0.36695 0.09381 0.0
C464 C 0.95167 0.39591 0.13277 0.0
C465 C 0.9266 0.35304 0.12479 0.0
C466 C 0.96772 0.39511 0.27819 0.0
C467 C 0.9763 0.45252 0.23928 0.0
N468 N 0.94833 0.3677 0.14701 0.0
N469 N 0.97129 0.43806 0.17513 0.0
H470 H 0.85629 0.64837 0.68564 0.0
H471 H 1.01417 0.63372 0.49363 0.0
H472 H 0.92259 0.71693 0.62234 0.0
H473 H 0.94703 0.56594 0.5567 0.0
H474 H 0.98125 0.66464 0.54018 0.0
H475 H 0.88953 0.61793 0.6397 0.0
C476 C 0.87784 0.65707 0.66196 0.0
C477 C 0.88656 0.68535 0.65759 0.0
C478 C 0.97372 0.64301 0.54362 0.0
C479 C 0.92495 0.65042 0.60507 0.0
C480 C 0.9925 0.62536 0.51674 0.0
C481 C 0.98337 0.59716 0.52104 0.0
C482 C 0.94559 0.63243 0.57509 0.0
C483 C 0.95505 0.5875 0.5521 0.0
C484 C 0.89687 0.63962 0.63598 0.0
C485 C 0.91491 0.69525 0.62776 0.0
N486 N 0.93724 0.60506 0.57793 0.0
N487 N 0.93304 0.67786 0.60235 0.0
H488 H 0.33029 0.38651 0.14141 0.0
H489 H 0.49618 0.4333 0.0475 0.0
H490 H 0.38938 0.32802 0.14944 0.0
H491 H 0.43651 0.4912 0.04158 0.0
H492 H 0.45787 0.39477 0.08419 0.0
H493 H 0.36877 0.42471 0.10464 0.0
C494 C 0.35133 0.38157 0.13539 0.0
C495 C 0.35626 0.35364 0.14876 0.0
C496 C 0.45309 0.41588 0.07494 0.0
C497 C 0.40108 0.39799 0.10615 0.0
C498 C 0.47508 0.43804 0.05389 0.0
C499 C 0.4699 0.46589 0.04119 0.0
C500 C 0.42535 0.42126 0.08365 0.0
C501 C 0.44183 0.47029 0.05061 0.0
C502 C 0.37342 0.40355 0.11432 0.0
C503 C 0.38426 0.349 0.13988 0.0
N504 N 0.42085 0.44842 0.07104 0.0
N505 N 0.4054 0.37076 0.11932 0.0
H506 H 0.46389 0.66919 0.86138 0.0
H507 H 0.30749 0.68811 0.80655 0.0
H508 H 0.39694 0.6012 0.92875 0.0
H509 H 0.37704 0.75324 0.71657 0.0
H510 H 0.33929 0.65595 0.8554 0.0
H511 H 0.43153 0.70061 0.8148 0.0
C512 C 0.44232 0.6609 0.86731 0.0
C513 C 0.43316 0.63248 0.89905 0.0
C514 C 0.34755 0.67727 0.82467 0.0
C515 C 0.39595 0.66835 0.8444 0.0
C516 C 0.32942 0.69561 0.79656 0.0
C517 C 0.33958 0.72343 0.75744 0.0
C518 C 0.37599 0.68688 0.8139 0.0
C519 C 0.3682 0.73201 0.74643 0.0
C520 C 0.42386 0.67882 0.8399 0.0
C521 C 0.405 0.62289 0.90373 0.0
N522 N 0.38532 0.71386 0.77474 0.0
N523 N 0.3874 0.64077 0.8767 0.0
H524 H 0.18295 0.65339 0.96775 0.0
H525 H 0.06931 0.6349 0.67928 0.0
H526 H 0.13673 0.71843 0.87303 0.0
H527 H 0.15104 0.60926 0.6606 0.0
H528 H 0.07438 0.64837 0.82226 0.0
H529 H 0.14641 0.6191 0.94731 0.0
C530 C 0.16442 0.66039 0.94716 0.0
C531 C 0.16364 0.68865 0.91544 0.0
C532 C 0.09062 0.63887 0.78762 0.0
C533 C 0.12266 0.65001 0.89033 0.0
C534 C 0.08824 0.63194 0.70475 0.0
C535 C 0.11022 0.62175 0.65533 0.0
C536 C 0.11479 0.6349 0.82226 0.0
C537 C 0.13347 0.61701 0.69488 0.0
C538 C 0.14353 0.64082 0.93578 0.0
C539 C 0.13876 0.69672 0.89339 0.0
N540 N 0.13518 0.62383 0.77538 0.0
N541 N 0.11953 0.6774 0.87744 0.0
H542 H 0.21007 0.40185 0.39736 0.0
H543 H 0.06555 0.45536 0.37995 0.0
H544 H 0.16231 0.38294 0.19768 0.0
H545 H 0.13487 0.508 0.42786 0.0
H546 H 0.09704 0.42241 0.33889 0.0
H547 H 0.17913 0.43514 0.43423 0.0
C548 C 0.19339 0.40474 0.36022 0.0
C549 C 0.18933 0.38952 0.29285 0.0
C550 C 0.10527 0.44118 0.35844 0.0
C551 C 0.15294 0.42702 0.33877 0.0
C552 C 0.08737 0.45989 0.38237 0.0
C553 C 0.09768 0.48443 0.40732 0.0
C554 C 0.13352 0.44671 0.36185 0.0
C555 C 0.12613 0.48936 0.40872 0.0
C556 C 0.17557 0.42368 0.38224 0.0
C557 C 0.16634 0.39372 0.25066 0.0
N558 N 0.14306 0.47051 0.38717 0.0
N559 N 0.14894 0.41192 0.27473 0.0
H560 H 1.00398 0.06624 0.75829 0.0
H561 H 0.06893 1.00627 0.18447 0.0
H562 H 0.06562 1.01007 0.7533 0.0
H563 H 1.00729 0.06245 0.18945 0.0
H564 H 0.06797 1.00731 0.02576 0.0
H565 H 1.00489 0.06514 0.91706 0.0
C566 C 1.01769 0.0537 0.79061 0.0
C567 C 1.03472 0.03822 0.74286 0.0
C568 C 0.05466 1.0194 0.0617 0.0
C569 C 1.03588 0.03684 0.92364 0.0
C570 C 0.05521 1.0188 0.15216 0.0
C571 C 0.0382 1.03431 0.19988 0.0
C572 C 0.03698 0.03562 0.01917 0.0
C573 C 1.02079 0.05019 0.15503 0.0
C574 C 1.0182 0.05307 0.8811 0.0
C575 C 0.05211 1.02232 0.78773 0.0
N576 N 1.02064 0.05044 0.06701 0.0
N577 N 0.05224 1.02204 0.87578 0.0
H578 H 0.32994 0.79859 0.38954 0.0
H579 H 0.24632 0.77265 0.00154 0.0
H580 H 0.24723 0.75375 0.44085 0.0
H581 H 0.32944 0.81657 0.95042 0.0
H582 H 0.246 0.76639 0.16217 0.0
H583 H 0.3303 0.8047 0.22895 0.0
C584 C 0.31189 0.78977 0.36697 0.0
C585 C 0.28842 0.7757 0.42885 0.0
C586 C 0.26427 0.77751 0.11606 0.0
C587 C 0.28866 0.78298 0.24429 0.0
C588 C 0.26447 0.78124 0.02413 0.0
C589 C 0.28804 0.79511 0.96229 0.0
C590 C 0.28783 0.78764 0.14687 0.0
C591 C 0.31083 0.80585 -0.00435 0.0
C592 C 0.31211 0.7934 0.27507 0.0
C593 C 0.26577 0.76463 0.39556 0.0
N594 N 0.31021 0.80174 0.08582 0.0
N595 N 0.26638 0.76868 0.30537 0.0
H596 H 0.57649 0.07837 0.62102 0.0
H597 H 0.50387 1.00192 0.28209 0.0
H598 H 0.49803 1.0251 0.69882 0.0
H599 H 0.57777 0.06201 0.19891 0.0
H600 H 0.50259 1.00841 0.43687 0.0
H601 H 0.5775 0.07267 0.46565 0.0
C602 C 0.55934 0.0657 0.6053 0.0
C603 C 0.53731 0.05186 0.67316 0.0
C604 C 0.51913 1.0201 0.38467 0.0
C605 C 0.53859 0.04476 0.49606 0.0
C606 C 0.52 1.0162 0.29644 0.0
C607 C 0.54092 1.03143 0.2273 0.0
C608 C 0.53933 0.03936 0.40382 0.0
C609 C 0.5612 0.04983 0.24987 0.0
C610 C 0.56003 0.06226 0.51672 0.0
C611 C 0.51567 0.0357 0.64886 0.0
N612 N 0.55983 0.05334 0.33597 0.0
N613 N 0.51695 1.0324 0.56254 0.0
H614 H 0.31439 0.25784 0.94303 0.0
H615 H 0.25908 0.31523 0.49645 0.0
H616 H 0.2565 0.31777 0.92711 0.0
H617 H 0.31622 0.25458 0.5132 0.0
H618 H 0.25802 0.3165 0.6541 0.0
H619 H 0.3154 0.25654 0.78544 0.0
C620 C 0.30188 0.27077 0.9063 0.0
C621 C 0.28532 0.288 0.94804 0.0
C622 C 0.27078 0.3029 0.6234 0.0
C623 C 0.28642 0.28652 0.76772 0.0
C624 C 0.27141 0.30214 0.53337 0.0
C625 C 0.28778 0.28473 0.49184 0.0
C626 C 0.28662 0.28615 0.67223 0.0
C627 C 0.30333 0.26828 0.54277 0.0
C628 C 0.30248 0.26998 0.8163 0.0
C629 C 0.26954 0.30423 0.89737 0.0
N630 N 0.30237 0.2694 0.63064 0.0
N631 N 0.27049 0.30309 0.80951 0.0
H632 H 0.81595 0.2918 0.96861 0.0
H633 H 0.73232 0.26405 0.58223 0.0
H634 H 0.73363 0.24602 0.02074 0.0
H635 H 0.81439 0.31035 0.52965 0.0
H636 H 0.73222 0.25801 0.74268 0.0
H637 H 0.81604 0.29805 0.80808 0.0
C638 C 0.79793 0.2828 0.94626 0.0
C639 C 0.77465 0.26841 0.00835 0.0
C640 C 0.75021 0.26962 0.6963 0.0
C641 C 0.77458 0.27586 0.82394 0.0
C642 C 0.75028 0.27321 0.6045 0.0
C643 C 0.7735 0.28766 0.54232 0.0
C644 C 0.77357 0.28046 0.72666 0.0
C645 C 0.79605 0.29915 0.5752 0.0
C646 C 0.79799 0.28652 0.8544 0.0
C647 C 0.75203 0.25715 -0.02469 0.0
N648 N 0.79559 0.29514 0.6653 0.0
N649 N 0.7525 0.26126 0.88522 0.0
H650 H 0.81445 0.75739 0.4461 0.0
H651 H 0.75937 0.81548 -0.00035 0.0
H652 H 0.75701 0.81776 0.43035 0.0
H653 H 0.81612 0.75443 0.01618 0.0
H654 H 0.75839 0.81665 0.15735 0.0
H655 H 0.8154 0.75618 0.28845 0.0
C656 C 0.80203 0.77044 0.4094 0.0
C657 C 0.78562 0.78776 0.45118 0.0
C658 C 0.77105 0.80299 0.12659 0.0
C659 C 0.78663 0.7864 0.27084 0.0
C660 C 0.77164 0.80228 0.03653 0.0
C661 C 0.78787 0.78479 -0.00506 0.0
C662 C 0.7868 0.7861 0.17534 0.0
C663 C 0.80333 0.7682 0.04581 0.0
C664 C 0.80259 0.7697 0.31938 0.0
C665 C 0.76994 0.80414 0.40056 0.0
N666 N 0.80241 0.76927 0.13368 0.0
N667 N 0.77084 0.80306 0.3127 0.0
H668 H 0.56929 0.50544 0.68472 0.0
H669 H 0.50409 0.56653 0.25998 0.0
H670 H 0.50969 0.56374 0.68933 0.0
H671 H 0.56375 0.5083 0.2553 0.0
H672 H 0.50574 0.56571 0.41826 0.0
H673 H 0.56759 0.50622 0.52649 0.0
C674 C 0.55591 0.51841 0.65241 0.0
C675 C 0.53964 0.53454 0.69994 0.0
C676 C 0.51844 0.55311 0.38247 0.0
C677 C 0.53753 0.53551 0.51988 0.0
C678 C 0.51748 0.55357 0.29229 0.0
C679 C 0.53379 0.53748 0.24471 0.0
C680 C 0.53584 0.53645 0.42484 0.0
C681 C 0.55081 0.52105 0.28956 0.0
C682 C 0.55492 0.51884 0.56226 0.0
C683 C 0.52261 0.55097 0.65509 0.0
N684 N 0.5514 0.52097 0.37723 0.0
N685 N 0.522 0.55102 0.56745 0.0
H686 H 0.08227 0.56217 0.70947 0.0
H687 H 1.00015 0.52308 0.21654 0.0
H688 H 1.00667 0.50458 0.79534 0.0
H689 H 0.07707 0.57876 0.13248 0.0
H690 H 1.00151 0.51718 0.06188 0.0
H691 H 0.08072 0.56861 0.86351 0.0
C692 C 0.06546 0.55064 0.76089 0.0
C693 C 0.0445 0.53286 0.73925 0.0
C694 C 1.01803 0.53081 0.07701 0.0
C695 C 0.0425 0.54029 0.91626 0.0
C696 C 1.01723 0.53427 0.16533 0.0
C697 C 0.03864 0.55129 0.18763 0.0
C698 C 0.0404 0.54451 0.01014 0.0
C699 C 0.06012 0.56545 0.11837 0.0
C700 C 0.06455 0.55442 0.84894 0.0
C701 C 1.0233 0.51842 0.80891 0.0
N702 N 0.06053 0.56162 0.03275 0.0
N703 N 1.02278 0.52256 0.89426 0.0
loop_
_geom_bond_atom_site_label_1
_geom_bond_atom_site_label_2
_geom_bond_distance
_geom_bond_site_symmetry_2
_ccdc_geom_bond_type
C0 O16 1.251 1_645 S
C0 O18 1.254 . S
N1 C2 1.333 . S
N1 C6 1.307 . S
N1 Zn7 2.020 . S
C2 N1 1.333 . S
C2 C3 1.379 . S
C2 H20 0.952 . S
C3 C2 1.379 . S
C3 C4 1.390 . S
C3 H30 0.949 . S
C4 C3 1.390 . S
C4 C5 1.357 . S
C5 C4 1.357 . S
C5 C6 1.370 . S
C5 H31 0.950 . S
C6 N1 1.307 . S
C6 C5 1.370 . S
C6 H24 0.948 . S
Zn7 N1 2.020 . S
Zn7 O16 2.039 . S
Zn7 O22 2.034 1_565 S
Zn7 O26 2.025 . S
Zn7 O28 2.024 1_455 S
C8 O27 1.246 . S
C8 O28 1.249 . S
N9 C10 1.307 . S
N9 C11 1.333 . S
N9 Zn15 2.020 . S
C10 N9 1.307 . S
C10 C14 1.370 . S
C10 H21 0.948 . S
C11 N9 1.333 . S
C11 C12 1.379 . S
C11 H19 0.952 . S
C12 C11 1.379 . S
C12 C13 1.390 . S
C12 H32 0.949 . S
C13 C12 1.390 . S
C13 C14 1.357 . S
C14 C10 1.370 . S
C14 C13 1.357 . S
C14 H33 0.950 . S
Zn15 N9 2.020 . S
Zn15 O18 2.025 . S
Zn15 O23 2.024 1_655 S
Zn15 O25 2.039 . S
Zn15 O27 2.034 1_545 S
O16 C0 1.251 1_465 S
O16 Zn7 2.039 . S
C17 O22 1.246 . S
C17 O23 1.249 . S
O18 C0 1.254 . S
O18 Zn15 2.025 . S
H19 C11 0.952 . S
H20 C2 0.952 . S
H21 C10 0.948 . S
O22 Zn7 2.034 1_545 S
O22 C17 1.246 . S
O23 Zn15 2.024 1_455 S
O23 C17 1.249 . S
H24 C6 0.948 . S
O25 Zn15 2.039 . S
O25 C29 1.251 1_645 S
O26 Zn7 2.025 . S
O26 C29 1.254 . S
O27 C8 1.246 . S
O27 Zn15 2.034 1_565 S
O28 Zn7 2.024 1_655 S
O28 C8 1.249 . S
C29 O25 1.251 1_465 S
C29 O26 1.254 . S
H30 C3 0.949 . S
H31 C5 0.950 . S
H32 C12 0.949 . S
H33 C14 0.950 . S
C34 O50 1.251 . S
C34 O52 1.254 . S
N35 C36 1.333 . S
N35 C40 1.307 . S
N35 Zn41 2.020 . S
C36 N35 1.333 . S
C36 C37 1.379 . S
C36 H54 0.952 . S
C37 C36 1.379 . S
C37 C38 1.390 . S
C37 H64 0.949 . S
C38 C37 1.390 . S
C38 C39 1.357 . S
C39 C38 1.357 . S
C39 C40 1.370 . S
C39 H65 0.950 . S
C40 N35 1.307 . S
C40 C39 1.370 . S
C40 H58 0.948 . S
Zn41 N35 2.020 . S
Zn41 O50 2.039 . S
Zn41 O56 2.034 . S
Zn41 O60 2.025 . S
Zn41 O62 2.024 . S
C42 O61 1.246 . S
C42 O62 1.249 . S
N43 C44 1.307 . S
N43 C45 1.333 . S
N43 Zn49 2.020 . S
C44 N43 1.307 . S
C44 C48 1.370 . S
C44 H55 0.948 . S
C45 N43 1.333 . S
C45 C46 1.379 . S
C45 H53 0.952 . S
C46 C45 1.379 . S
C46 C47 1.390 . S
C46 H66 0.949 . S
C47 C46 1.390 . S
C47 C48 1.357 . S
C48 C44 1.370 . S
C48 C47 1.357 . S
C48 H67 0.950 . S
Zn49 N43 2.020 . S
Zn49 O52 2.025 . S
Zn49 O57 2.024 . S
Zn49 O59 2.039 . S
Zn49 O61 2.034 . S
O50 C34 1.251 . S
O50 Zn41 2.039 . S
C51 O56 1.246 . S
C51 O57 1.249 . S
O52 C34 1.254 . S
O52 Zn49 2.025 . S
H53 C45 0.952 . S
H54 C36 0.952 . S
H55 C44 0.948 . S
O56 Zn41 2.034 . S
O56 C51 1.246 . S
O57 Zn49 2.024 . S
O57 C51 1.249 . S
H58 C40 0.948 . S
O59 Zn49 2.039 . S
O59 C63 1.251 . S
O60 Zn41 2.025 . S
O60 C63 1.254 . S
O61 C42 1.246 . S
O61 Zn49 2.034 . S
O62 Zn41 2.024 . S
O62 C42 1.249 . S
C63 O59 1.251 . S
C63 O60 1.254 . S
H64 C37 0.949 . S
H65 C39 0.950 . S
H66 C46 0.949 . S
H67 C48 0.950 . S
C68 O84 1.251 1_545 S
C68 O86 1.254 . S
N69 C70 1.333 1_554 S
N69 C74 1.307 . S
N69 Zn75 2.020 . S
C70 N69 1.333 1_556 S
C70 C71 1.379 . S
C70 H88 0.952 . S
C71 C70 1.379 . S
C71 C72 1.390 . S
C71 H98 0.949 . S
C72 C71 1.390 . S
C72 C73 1.357 1_556 S
C73 C72 1.357 1_554 S
C73 C74 1.370 . S
C73 H99 0.950 . S
C74 N69 1.307 . S
C74 C73 1.370 . S
C74 H92 0.948 . S
Zn75 N69 2.020 . S
Zn75 O84 2.039 1_554 S
Zn75 O90 2.034 1_565 S
Zn75 O94 2.025 . S
Zn75 O96 2.024 1_554 S
C76 O95 1.246 . S
C76 O96 1.249 . S
N77 C78 1.307 . S
N77 C79 1.333 1_556 S
N77 Zn83 2.020 . S
C78 N77 1.307 . S
C78 C82 1.370 . S
C78 H89 0.948 . S
C79 N77 1.333 1_554 S
C79 C80 1.379 . S
C79 H87 0.952 . S
C80 C79 1.379 . S
C80 C81 1.390 . S
C80 H100 0.949 . S
C81 C80 1.390 . S
C81 C82 1.357 1_554 S
C82 C78 1.370 . S
C82 C81 1.357 1_556 S
C82 H101 0.950 . S
Zn83 N77 2.020 . S
Zn83 O86 2.025 . S
Zn83 O91 2.024 1_556 S
Zn83 O93 2.039 1_556 S
Zn83 O95 2.034 1_545 S
O84 C68 1.251 1_565 S
O84 Zn75 2.039 1_556 S
C85 O90 1.246 . S
C85 O91 1.249 . S
O86 C68 1.254 . S
O86 Zn83 2.025 . S
H87 C79 0.952 . S
H88 C70 0.952 . S
H89 C78 0.948 . S
O90 Zn75 2.034 1_545 S
O90 C85 1.246 . S
O91 Zn83 2.024 1_554 S
O91 C85 1.249 . S
H92 C74 0.948 . S
O93 Zn83 2.039 1_554 S
O93 C97 1.251 1_545 S
O94 Zn75 2.025 . S
O94 C97 1.254 . S
O95 C76 1.246 . S
O95 Zn83 2.034 1_565 S
O96 Zn75 2.024 1_556 S
O96 C76 1.249 . S
C97 O93 1.251 1_565 S
C97 O94 1.254 . S
H98 C71 0.949 . S
H99 C73 0.950 . S
H100 C80 0.949 . S
H101 C82 0.950 . S
C102 O118 1.251 . S
C102 O120 1.254 . S
N103 C104 1.333 . S
N103 C108 1.307 . S
N103 Zn109 2.020 . S
C104 N103 1.333 . S
C104 C105 1.379 . S
C104 H122 0.952 . S
C105 C104 1.379 . S
C105 C106 1.390 . S
C105 H132 0.949 . S
C106 C105 1.390 . S
C106 C107 1.357 . S
C107 C106 1.357 . S
C107 C108 1.370 . S
C107 H133 0.950 . S
C108 N103 1.307 . S
C108 C107 1.370 . S
C108 H126 0.948 . S
Zn109 N103 2.020 . S
Zn109 O118 2.039 . S
Zn109 O124 2.034 . S
Zn109 O128 2.025 . S
Zn109 O130 2.024 . S
C110 O129 1.246 . S
C110 O130 1.249 . S
N111 C112 1.307 . S
N111 C113 1.333 . S
N111 Zn117 2.020 . S
C112 N111 1.307 . S
C112 C116 1.370 . S
C112 H123 0.948 . S
C113 N111 1.333 . S
C113 C114 1.379 . S
C113 H121 0.952 . S
C114 C113 1.379 . S
C114 C115 1.390 . S
C114 H134 0.949 . S
C115 C114 1.390 . S
C115 C116 1.357 . S
C116 C112 1.370 . S
C116 C115 1.357 . S
C116 H135 0.950 . S
Zn117 N111 2.020 . S
Zn117 O120 2.025 . S
Zn117 O125 2.024 . S
Zn117 O127 2.039 . S
Zn117 O129 2.034 . S
O118 C102 1.251 . S
O118 Zn109 2.039 . S
C119 O124 1.246 . S
C119 O125 1.249 . S
O120 C102 1.254 . S
O120 Zn117 2.025 . S
H121 C113 0.952 . S
H122 C104 0.952 . S
H123 C112 0.948 . S
O124 Zn109 2.034 . S
O124 C119 1.246 . S
O125 Zn117 2.024 . S
O125 C119 1.249 . S
H126 C108 0.948 . S
O127 Zn117 2.039 . S
O127 C131 1.251 . S
O128 Zn109 2.025 . S
O128 C131 1.254 . S
O129 C110 1.246 . S
O129 Zn117 2.034 . S
O130 Zn109 2.024 . S
O130 C110 1.249 . S
C131 O127 1.251 . S
C131 O128 1.254 . S
H132 C105 0.949 . S
H133 C107 0.950 . S
H134 C114 0.949 . S
H135 C116 0.950 . S
C136 O152 1.251 . S
C136 O154 1.254 . S
N137 C138 1.333 . S
N137 C142 1.307 . S
N137 Zn143 2.020 . S
C138 N137 1.333 . S
C138 C139 1.379 . S
C138 H156 0.952 . S
C139 C138 1.379 . S
C139 C140 1.390 . S
C139 H166 0.949 . S
C140 C139 1.390 . S
C140 C141 1.357 . S
C141 C140 1.357 . S
C141 C142 1.370 . S
C141 H167 0.950 . S
C142 N137 1.307 . S
C142 C141 1.370 . S
C142 H160 0.948 . S
Zn143 N137 2.020 . S
Zn143 O152 2.039 . S
Zn143 O158 2.034 . S
Zn143 O162 2.025 . S
Zn143 O164 2.024 . S
C144 O163 1.246 . S
C144 O164 1.249 . S
N145 C146 1.307 . S
N145 C147 1.333 . S
N145 Zn151 2.020 . S
C146 N145 1.307 . S
C146 C150 1.370 . S
C146 H157 0.948 . S
C147 N145 1.333 . S
C147 C148 1.379 . S
C147 H155 0.952 . S
C148 C147 1.379 . S
C148 C149 1.390 . S
C148 H168 0.949 . S
C149 C148 1.390 . S
C149 C150 1.357 . S
C150 C146 1.370 . S
C150 C149 1.357 . S
C150 H169 0.950 . S
Zn151 N145 2.020 . S
Zn151 O154 2.025 . S
Zn151 O159 2.024 . S
Zn151 O161 2.039 . S
Zn151 O163 2.034 . S
O152 C136 1.251 . S
O152 Zn143 2.039 . S
C153 O158 1.246 . S
C153 O159 1.249 . S
O154 C136 1.254 . S
O154 Zn151 2.025 . S
H155 C147 0.952 . S
H156 C138 0.952 . S
H157 C146 0.948 . S
O158 Zn143 2.034 . S
O158 C153 1.246 . S
O159 Zn151 2.024 . S
O159 C153 1.249 . S
H160 C142 0.948 . S
O161 Zn151 2.039 . S
O161 C165 1.251 . S
O162 Zn143 2.025 . S
O162 C165 1.254 . S
O163 C144 1.246 . S
O163 Zn151 2.034 . S
O164 Zn143 2.024 . S
O164 C144 1.249 . S
C165 O161 1.251 . S
C165 O162 1.254 . S
H166 C139 0.949 . S
H167 C141 0.950 . S
H168 C148 0.949 . S
H169 C150 0.950 . S
C170 O186 1.251 . S
C170 O188 1.254 . S
N171 C172 1.333 . S
N171 C176 1.307 . S
N171 Zn177 2.020 . S
C172 N171 1.333 . S
C172 C173 1.379 . S
C172 H190 0.952 . S
C173 C172 1.379 . S
C173 C174 1.390 . S
C173 H200 0.949 . S
C174 C173 1.390 . S
C174 C175 1.357 . S
C175 C174 1.357 . S
C175 C176 1.370 . S
C175 H201 0.950 . S
C176 N171 1.307 . S
C176 C175 1.370 . S
C176 H194 0.948 . S
Zn177 N171 2.020 . S
Zn177 O186 2.039 . S
Zn177 O192 2.034 . S
Zn177 O196 2.025 . S
Zn177 O198 2.024 . S
C178 O197 1.246 . S
C178 O198 1.249 . S
N179 C180 1.307 . S
N179 C181 1.333 . S
N179 Zn185 2.020 . S
C180 N179 1.307 . S
C180 C184 1.370 . S
C180 H191 0.948 . S
C181 N179 1.333 . S
C181 C182 1.379 . S
C181 H189 0.952 . S
C182 C181 1.379 . S
C182 C183 1.390 . S
C182 H202 0.949 . S
C183 C182 1.390 . S
C183 C184 1.357 . S
C184 C180 1.370 . S
C184 C183 1.357 . S
C184 H203 0.950 . S
Zn185 N179 2.020 . S
Zn185 O188 2.025 . S
Zn185 O193 2.024 . S
Zn185 O195 2.039 . S
Zn185 O197 2.034 . S
O186 C170 1.251 . S
O186 Zn177 2.039 . S
C187 O192 1.246 . S
C187 O193 1.249 . S
O188 C170 1.254 . S
O188 Zn185 2.025 . S
H189 C181 0.952 . S
H190 C172 0.952 . S
H191 C180 0.948 . S
O192 Zn177 2.034 . S
O192 C187 1.246 . S
O193 Zn185 2.024 . S
O193 C187 1.249 . S
H194 C176 0.948 . S
O195 Zn185 2.039 . S
O195 C199 1.251 . S
O196 Zn177 2.025 . S
O196 C199 1.254 . S
O197 C178 1.246 . S
O197 Zn185 2.034 . S
O198 Zn177 2.024 . S
O198 C178 1.249 . S
C199 O195 1.251 . S
C199 O196 1.254 . S
H200 C173 0.949 . S
H201 C175 0.950 . S
H202 C182 0.949 . S
H203 C184 0.950 . S
C204 O220 1.251 . S
C204 O222 1.254 . S
N205 C206 1.333 . S
N205 C210 1.307 1_554 S
N205 Zn211 2.020 . S
C206 N205 1.333 . S
C206 C207 1.379 . S
C206 H224 0.952 . S
C207 C206 1.379 . S
C207 C208 1.390 . S
C207 H234 0.949 . S
C208 C207 1.390 . S
C208 C209 1.357 1_554 S
C209 C208 1.357 1_556 S
C209 C210 1.370 . S
C209 H235 0.950 . S
C210 N205 1.307 1_556 S
C210 C209 1.370 . S
C210 H228 0.948 . S
Zn211 N205 2.020 . S
Zn211 O220 2.039 . S
Zn211 O226 2.034 1_554 S
Zn211 O230 2.025 1_554 S
Zn211 O232 2.024 . S
C212 O231 1.246 . S
C212 O232 1.249 . S
N213 C214 1.307 1_556 S
N213 C215 1.333 . S
N213 Zn219 2.020 . S
C214 N213 1.307 1_554 S
C214 C218 1.370 . S
C214 H225 0.948 . S
C215 N213 1.333 . S
C215 C216 1.379 . S
C215 H223 0.952 . S
C216 C215 1.379 . S
C216 C217 1.390 . S
C216 H236 0.949 . S
C217 C216 1.390 . S
C217 C218 1.357 1_556 S
C218 C214 1.370 . S
C218 C217 1.357 1_554 S
C218 H237 0.950 . S
Zn219 N213 2.020 . S
Zn219 O222 2.025 1_556 S
Zn219 O227 2.024 . S
Zn219 O229 2.039 . S
Zn219 O231 2.034 1_556 S
O220 C204 1.251 . S
O220 Zn211 2.039 . S
C221 O226 1.246 . S
C221 O227 1.249 . S
O222 C204 1.254 . S
O222 Zn219 2.025 1_554 S
H223 C215 0.952 . S
H224 C206 0.952 . S
H225 C214 0.948 . S
O226 Zn211 2.034 1_556 S
O226 C221 1.246 . S
O227 Zn219 2.024 . S
O227 C221 1.249 . S
H228 C210 0.948 . S
O229 Zn219 2.039 . S
O229 C233 1.251 . S
O230 Zn211 2.025 1_556 S
O230 C233 1.254 . S
O231 C212 1.246 . S
O231 Zn219 2.034 1_554 S
O232 Zn211 2.024 . S
O232 C212 1.249 . S
C233 O229 1.251 . S
C233 O230 1.254 . S
H234 C207 0.949 . S
H235 C209 0.950 . S
H236 C216 0.949 . S
H237 C218 0.950 . S
C238 O254 1.251 1_455 S
C238 O256 1.254 . S
N239 C240 1.333 . S
N239 C244 1.307 . S
N239 Zn245 2.020 . S
C240 N239 1.333 . S
C240 C241 1.379 . S
C240 H258 0.952 . S
C241 C240 1.379 . S
C241 C242 1.390 . S
C241 H268 0.949 . S
C242 C241 1.390 . S
C242 C243 1.357 . S
C243 C242 1.357 . S
C243 C244 1.370 . S
C243 H269 0.950 . S
C244 N239 1.307 . S
C244 C243 1.370 . S
C244 H262 0.948 . S
Zn245 N239 2.020 . S
Zn245 O254 2.039 . S
Zn245 O260 2.034 . S
Zn245 O264 2.025 . S
Zn245 O266 2.024 1_655 S
C246 O265 1.246 . S
C246 O266 1.249 . S
N247 C248 1.307 . S
N247 C249 1.333 . S
N247 Zn253 2.020 . S
C248 N247 1.307 . S
C248 C252 1.370 . S
C248 H259 0.948 . S
C249 N247 1.333 . S
C249 C250 1.379 . S
C249 H257 0.952 . S
C250 C249 1.379 . S
C250 C251 1.390 . S
C250 H270 0.949 . S
C251 C250 1.390 . S
C251 C252 1.357 . S
C252 C248 1.370 . S
C252 C251 1.357 . S
C252 H271 0.950 . S
Zn253 N247 2.020 . S
Zn253 O256 2.025 . S
Zn253 O261 2.024 1_455 S
Zn253 O263 2.039 . S
Zn253 O265 2.034 . S
O254 C238 1.251 1_655 S
O254 Zn245 2.039 . S
C255 O260 1.246 . S
C255 O261 1.249 . S
O256 C238 1.254 . S
O256 Zn253 2.025 . S
H257 C249 0.952 . S
H258 C240 0.952 . S
H259 C248 0.948 . S
O260 Zn245 2.034 . S
O260 C255 1.246 . S
O261 Zn253 2.024 1_655 S
O261 C255 1.249 . S
H262 C244 0.948 . S
O263 Zn253 2.039 . S
O263 C267 1.251 1_455 S
O264 Zn245 2.025 . S
O264 C267 1.254 . S
O265 C246 1.246 . S
O265 Zn253 2.034 . S
O266 Zn245 2.024 1_455 S
O266 C246 1.249 . S
C267 O263 1.251 1_655 S
C267 O264 1.254 . S
H268 C241 0.949 . S
H269 C243 0.950 . S
H270 C250 0.949 . S
H271 C252 0.950 . S
H272 C278 0.930 . S
H273 C282 0.930 . S
H274 C287 0.929 . S
H275 C285 0.929 . S
H276 C280 0.929 . S
H277 C286 0.929 . S
C278 H272 0.930 . S
C278 C279 1.367 . S
C278 C286 1.378 . S
C279 C278 1.367 . S
C279 C287 1.433 . S
C280 H276 0.929 . S
C280 C282 1.378 . S
C280 C284 1.350 . S
C281 C284 1.463 . S
C281 C286 1.350 . S
C281 N289 1.427 . S
C282 H273 0.930 . S
C282 C280 1.378 . S
C282 C283 1.367 . S
C283 C282 1.367 . S
C283 C285 1.433 . S
C284 C280 1.350 . S
C284 C281 1.463 . S
C284 N288 1.427 . S
C285 H275 0.929 . S
C285 C283 1.433 . S
C285 N288 1.384 . S
C286 H277 0.929 . S
C286 C278 1.378 . S
C286 C281 1.350 . S
C287 H274 0.929 . S
C287 C279 1.433 . S
C287 N289 1.384 . S
N288 C284 1.427 . S
N288 C285 1.384 . S
N289 C281 1.427 . S
N289 C287 1.384 . S
H290 C296 0.930 . S
H291 C300 0.930 . S
H292 C305 0.929 . S
H293 C303 0.929 . S
H294 C298 0.929 . S
H295 C304 0.929 . S
C296 H290 0.930 . S
C296 C297 1.367 . S
C296 C304 1.378 . S
C297 C296 1.367 . S
C297 C305 1.433 . S
C298 H294 0.929 . S
C298 C300 1.378 . S
C298 C302 1.350 . S
C299 C302 1.463 . S
C299 C304 1.350 . S
C299 N307 1.427 . S
C300 H291 0.930 . S
C300 C298 1.378 . S
C300 C301 1.367 . S
C301 C300 1.367 . S
C301 C303 1.433 . S
C302 C298 1.350 . S
C302 C299 1.463 . S
C302 N306 1.427 . S
C303 H293 0.929 . S
C303 C301 1.433 . S
C303 N306 1.384 . S
C304 H295 0.929 . S
C304 C296 1.378 . S
C304 C299 1.350 . S
C305 H292 0.929 . S
C305 C297 1.433 . S
C305 N307 1.384 . S
N306 C302 1.427 . S
N306 C303 1.384 . S
N307 C299 1.427 . S
N307 C305 1.384 . S
H308 C314 0.930 . S
H309 C318 0.930 . S
H310 C323 0.929 . S
H311 C321 0.929 . S
H312 C316 0.929 . S
H313 C322 0.929 . S
C314 H308 0.930 . S
C314 C315 1.367 . S
C314 C322 1.378 . S
C315 C314 1.367 . S
C315 C323 1.433 . S
C316 H312 0.929 . S
C316 C318 1.378 . S
C316 C320 1.350 . S
C317 C320 1.463 . S
C317 C322 1.350 . S
C317 N325 1.427 . S
C318 H309 0.930 . S
C318 C316 1.378 . S
C318 C319 1.367 . S
C319 C318 1.367 . S
C319 C321 1.433 1_556 S
C320 C316 1.350 . S
C320 C317 1.463 . S
C320 N324 1.427 . S
C321 H311 0.929 . S
C321 C319 1.433 1_554 S
C321 N324 1.384 1_554 S
C322 H313 0.929 . S
C322 C314 1.378 . S
C322 C317 1.350 . S
C323 H310 0.929 . S
C323 C315 1.433 . S
C323 N325 1.384 . S
N324 C320 1.427 . S
N324 C321 1.384 1_556 S
N325 C317 1.427 . S
N325 C323 1.384 . S
H326 C332 0.930 . S
H327 C336 0.930 . S
H328 C341 0.929 . S
H329 C339 0.929 . S
H330 C334 0.929 . S
H331 C340 0.929 . S
C332 H326 0.930 . S
C332 C333 1.367 . S
C332 C340 1.378 . S
C333 C332 1.367 . S
C333 C341 1.433 1_554 S
C334 H330 0.929 . S
C334 C336 1.378 . S
C334 C338 1.350 . S
C335 C338 1.463 . S
C335 C340 1.350 . S
C335 N343 1.427 . S
C336 H327 0.930 . S
C336 C334 1.378 . S
C336 C337 1.367 . S
C337 C336 1.367 . S
C337 C339 1.433 . S
C338 C334 1.350 . S
C338 C335 1.463 . S
C338 N342 1.427 . S
C339 H329 0.929 . S
C339 C337 1.433 . S
C339 N342 1.384 . S
C340 H331 0.929 . S
C340 C332 1.378 . S
C340 C335 1.350 . S
C341 H328 0.929 . S
C341 C333 1.433 1_556 S
C341 N343 1.384 1_556 S
N342 C338 1.427 . S
N342 C339 1.384 . S
N343 C335 1.427 . S
N343 C341 1.384 1_554 S
H344 C350 0.930 . S
H345 C354 0.930 . S
H346 C359 0.929 . S
H347 C357 0.929 . S
H348 C352 0.929 . S
H349 C358 0.929 . S
C350 H344 0.930 . S
C350 C351 1.367 . S
C350 C358 1.378 . S
C351 C350 1.367 . S
C351 C359 1.433 . S
C352 H348 0.929 . S
C352 C354 1.378 . S
C352 C356 1.350 . S
C353 C356 1.463 . S
C353 C358 1.350 . S
C353 N361 1.427 . S
C354 H345 0.930 . S
C354 C352 1.378 . S
C354 C355 1.367 . S
C355 C354 1.367 . S
C355 C357 1.433 . S
C356 C352 1.350 . S
C356 C353 1.463 . S
C356 N360 1.427 . S
C357 H347 0.929 . S
C357 C355 1.433 . S
C357 N360 1.384 . S
C358 H349 0.929 . S
C358 C350 1.378 . S
C358 C353 1.350 . S
C359 H346 0.929 . S
C359 C351 1.433 . S
C359 N361 1.384 . S
N360 C356 1.427 . S
N360 C357 1.384 . S
N361 C353 1.427 . S
N361 C359 1.384 . S
H362 C368 0.930 . S
H363 C372 0.930 . S
H364 C377 0.929 . S
H365 C375 0.929 . S
H366 C370 0.929 . S
H367 C376 0.929 . S
C368 H362 0.930 . S
C368 C369 1.367 . S
C368 C376 1.378 . S
C369 C368 1.367 . S
C369 C377 1.433 . S
C370 H366 0.929 . S
C370 C372 1.378 . S
C370 C374 1.350 . S
C371 C374 1.463 . S
C371 C376 1.350 . S
C371 N379 1.427 . S
C372 H363 0.930 . S
C372 C370 1.378 . S
C372 C373 1.367 . S
C373 C372 1.367 . S
C373 C375 1.433 . S
C374 C370 1.350 . S
C374 C371 1.463 . S
C374 N378 1.427 . S
C375 H365 0.929 . S
C375 C373 1.433 . S
C375 N378 1.384 . S
C376 H367 0.929 . S
C376 C368 1.378 . S
C376 C371 1.350 . S
C377 H364 0.929 . S
C377 C369 1.433 . S
C377 N379 1.384 . S
N378 C374 1.427 . S
N378 C375 1.384 . S
N379 C371 1.427 . S
N379 C377 1.384 . S
H380 C386 0.930 . S
H381 C390 0.930 . S
H382 C395 0.929 . S
H383 C393 0.929 . S
H384 C388 0.929 . S
H385 C394 0.929 . S
C386 H380 0.930 . S
C386 C387 1.367 . S
C386 C394 1.378 . S
C387 C386 1.367 . S
C387 C395 1.433 . S
C388 H384 0.929 . S
C388 C390 1.378 . S
C388 C392 1.350 . S
C389 C392 1.463 . S
C389 C394 1.350 . S
C389 N397 1.427 . S
C390 H381 0.930 . S
C390 C388 1.378 . S
C390 C391 1.367 . S
C391 C390 1.367 . S
C391 C393 1.433 1_554 S
C392 C388 1.350 . S
C392 C389 1.463 . S
C392 N396 1.427 . S
C393 H383 0.929 . S
C393 C391 1.433 1_556 S
C393 N396 1.384 1_556 S
C394 H385 0.929 . S
C394 C386 1.378 . S
C394 C389 1.350 . S
C395 H382 0.929 . S
C395 C387 1.433 . S
C395 N397 1.384 . S
N396 C392 1.427 . S
N396 C393 1.384 1_554 S
N397 C389 1.427 . S
N397 C395 1.384 . S
H398 C404 0.930 . S
H399 C408 0.930 . S
H400 C413 0.929 . S
H401 C411 0.929 . S
H402 C406 0.929 . S
H403 C412 0.929 1_554 S
C404 H398 0.930 . S
C404 C405 1.367 . S
C404 C412 1.378 . S
C405 C404 1.367 . S
C405 C413 1.433 . S
C406 H402 0.929 . S
C406 C408 1.378 . S
C406 C410 1.350 . S
C407 C410 1.463 . S
C407 C412 1.350 . S
C407 N415 1.427 . S
C408 H399 0.930 . S
C408 C406 1.378 . S
C408 C409 1.367 . S
C409 C408 1.367 . S
C409 C411 1.433 1_556 S
C410 C406 1.350 . S
C410 C407 1.463 . S
C410 N414 1.427 . S
C411 H401 0.929 . S
C411 C409 1.433 1_554 S
C411 N414 1.384 1_554 S
C412 H403 0.929 1_556 S
C412 C404 1.378 . S
C412 C407 1.350 . S
C413 H400 0.929 . S
C413 C405 1.433 . S
C413 N415 1.384 . S
N414 C410 1.427 . S
N414 C411 1.384 1_556 S
N415 C407 1.427 . S
N415 C413 1.384 . S
H416 C422 0.930 . S
H417 C426 0.930 . S
H418 C431 0.929 1_554 S
H419 C429 0.929 . S
H420 C424 0.929 . S
H421 C430 0.929 . S
C422 H416 0.930 . S
C422 C423 1.367 . S
C422 C430 1.378 . S
C423 C422 1.367 . S
C423 C431 1.433 . S
C424 H420 0.929 . S
C424 C426 1.378 . S
C424 C428 1.350 . S
C425 C428 1.463 . S
C425 C430 1.350 . S
C425 N433 1.427 . S
C426 H417 0.930 . S
C426 C424 1.378 . S
C426 C427 1.367 . S
C427 C426 1.367 . S
C427 C429 1.433 . S
C428 C424 1.350 . S
C428 C425 1.463 . S
C428 N432 1.427 . S
C429 H419 0.929 . S
C429 C427 1.433 . S
C429 N432 1.384 . S
C430 H421 0.929 . S
C430 C422 1.378 . S
C430 C425 1.350 . S
C431 H418 0.929 1_556 S
C431 C423 1.433 . S
C431 N433 1.384 . S
N432 C428 1.427 . S
N432 C429 1.384 . S
N433 C425 1.427 . S
N433 C431 1.384 . S
H434 C440 0.930 . S
H435 C444 0.930 1_556 S
H436 C449 0.929 . S
H437 C447 0.929 . S
H438 C442 0.929 1_556 S
H439 C448 0.929 . S
C440 H434 0.930 . S
C440 C441 1.367 . S
C440 C448 1.378 . S
C441 C440 1.367 . S
C441 C449 1.433 . S
C442 H438 0.929 1_554 S
C442 C444 1.378 . S
C442 C446 1.350 . S
C443 C446 1.463 . S
C443 C448 1.350 . S
C443 N451 1.427 . S
C444 H435 0.930 1_554 S
C444 C442 1.378 . S
C444 C445 1.367 . S
C445 C444 1.367 . S
C445 C447 1.433 . S
C446 C442 1.350 . S
C446 C443 1.463 . S
C446 N450 1.427 . S
C447 H437 0.929 . S
C447 C445 1.433 . S
C447 N450 1.384 . S
C448 H439 0.929 . S
C448 C440 1.378 . S
C448 C443 1.350 . S
C449 H436 0.929 . S
C449 C441 1.433 . S
C449 N451 1.384 . S
N450 C446 1.427 . S
N450 C447 1.384 . S
N451 C443 1.427 . S
N451 C449 1.384 . S
H452 C458 0.930 . S
H453 C462 0.930 . S
H454 C467 0.929 . S
H455 C465 0.929 . S
H456 C460 0.929 . S
H457 C466 0.929 . S
C458 H452 0.930 . S
C458 C459 1.367 . S
C458 C466 1.378 . S
C459 C458 1.367 . S
C459 C467 1.433 . S
C460 H456 0.929 . S
C460 C462 1.378 . S
C460 C464 1.350 . S
C461 C464 1.463 . S
C461 C466 1.350 . S
C461 N469 1.427 . S
C462 H453 0.930 . S
C462 C460 1.378 . S
C462 C463 1.367 . S
C463 C462 1.367 . S
C463 C465 1.433 . S
C464 C460 1.350 . S
C464 C461 1.463 . S
C464 N468 1.427 . S
C465 H455 0.929 . S
C465 C463 1.433 . S
C465 N468 1.384 . S
C466 H457 0.929 . S
C466 C458 1.378 . S
C466 C461 1.350 . S
C467 H454 0.929 . S
C467 C459 1.433 . S
C467 N469 1.384 . S
N468 C464 1.427 . S
N468 C465 1.384 . S
N469 C461 1.427 . S
N469 C467 1.384 . S
H470 C476 0.930 . S
H471 C480 0.930 . S
H472 C485 0.929 . S
H473 C483 0.929 . S
H474 C478 0.929 . S
H475 C484 0.929 . S
C476 H470 0.930 . S
C476 C477 1.367 . S
C476 C484 1.378 . S
C477 C476 1.367 . S
C477 C485 1.433 . S
C478 H474 0.929 . S
C478 C480 1.378 . S
C478 C482 1.350 . S
C479 C482 1.463 . S
C479 C484 1.350 . S
C479 N487 1.427 . S
C480 H471 0.930 . S
C480 C478 1.378 . S
C480 C481 1.367 . S
C481 C480 1.367 . S
C481 C483 1.433 . S
C482 C478 1.350 . S
C482 C479 1.463 . S
C482 N486 1.427 . S
C483 H473 0.929 . S
C483 C481 1.433 . S
C483 N486 1.384 . S
C484 H475 0.929 . S
C484 C476 1.378 . S
C484 C479 1.350 . S
C485 H472 0.929 . S
C485 C477 1.433 . S
C485 N487 1.384 . S
N486 C482 1.427 . S
N486 C483 1.384 . S
N487 C479 1.427 . S
N487 C485 1.384 . S
H488 C494 0.930 . S
H489 C498 0.930 . S
H490 C503 0.929 . S
H491 C501 0.929 1_556 S
H492 C496 0.929 . S
H493 C502 0.929 1_556 S
C494 H488 0.930 . S
C494 C495 1.367 . S
C494 C502 1.378 . S
C495 C494 1.367 . S
C495 C503 1.433 . S
C496 H492 0.929 . S
C496 C498 1.378 . S
C496 C500 1.350 . S
C497 C500 1.463 . S
C497 C502 1.350 . S
C497 N505 1.427 . S
C498 H489 0.930 . S
C498 C496 1.378 . S
C498 C499 1.367 . S
C499 C498 1.367 . S
C499 C501 1.433 . S
C500 C496 1.350 . S
C500 C497 1.463 . S
C500 N504 1.427 . S
C501 H491 0.929 1_554 S
C501 C499 1.433 . S
C501 N504 1.384 . S
C502 H493 0.929 1_554 S
C502 C494 1.378 . S
C502 C497 1.350 . S
C503 H490 0.929 . S
C503 C495 1.433 . S
C503 N505 1.384 . S
N504 C500 1.427 . S
N504 C501 1.384 . S
N505 C497 1.427 . S
N505 C503 1.384 . S
H506 C512 0.930 1_554 S
H507 C516 0.930 . S
H508 C521 0.929 . S
H509 C519 0.929 . S
H510 C514 0.929 . S
H511 C520 0.929 . S
C512 H506 0.930 1_556 S
C512 C513 1.367 . S
C512 C520 1.378 . S
C513 C512 1.367 . S
C513 C521 1.433 . S
C514 H510 0.929 . S
C514 C516 1.378 . S
C514 C518 1.350 . S
C515 C518 1.463 . S
C515 C520 1.350 . S
C515 N523 1.427 . S
C516 H507 0.930 . S
C516 C514 1.378 . S
C516 C517 1.367 . S
C517 C516 1.367 . S
C517 C519 1.433 . S
C518 C514 1.350 . S
C518 C515 1.463 . S
C518 N522 1.427 . S
C519 H509 0.929 . S
C519 C517 1.433 . S
C519 N522 1.384 . S
C520 H511 0.929 . S
C520 C512 1.378 . S
C520 C515 1.350 . S
C521 H508 0.929 . S
C521 C513 1.433 . S
C521 N523 1.384 . S
N522 C518 1.427 . S
N522 C519 1.384 . S
N523 C515 1.427 . S
N523 C521 1.384 . S
H524 C530 0.930 . S
H525 C534 0.930 . S
H526 C539 0.929 . S
H527 C537 0.929 . S
H528 C532 0.929 . S
H529 C538 0.929 . S
C530 H524 0.930 . S
C530 C531 1.367 . S
C530 C538 1.378 . S
C531 C530 1.367 . S
C531 C539 1.433 . S
C532 H528 0.929 . S
C532 C534 1.378 . S
C532 C536 1.350 . S
C533 C536 1.463 . S
C533 C538 1.350 . S
C533 N541 1.427 . S
C534 H525 0.930 . S
C534 C532 1.378 . S
C534 C535 1.367 . S
C535 C534 1.367 . S
C535 C537 1.433 . S
C536 C532 1.350 . S
C536 C533 1.463 . S
C536 N540 1.427 . S
C537 H527 0.929 . S
C537 C535 1.433 . S
C537 N540 1.384 . S
C538 H529 0.929 . S
C538 C530 1.378 . S
C538 C533 1.350 . S
C539 H526 0.929 . S
C539 C531 1.433 . S
C539 N541 1.384 . S
N540 C536 1.427 . S
N540 C537 1.384 . S
N541 C533 1.427 . S
N541 C539 1.384 . S
H542 C548 0.930 . S
H543 C552 0.930 . S
H544 C557 0.929 . S
H545 C555 0.929 . S
H546 C550 0.929 . S
H547 C556 0.929 . S
C548 H542 0.930 . S
C548 C549 1.367 . S
C548 C556 1.378 . S
C549 C548 1.367 . S
C549 C557 1.433 . S
C550 H546 0.929 . S
C550 C552 1.378 . S
C550 C554 1.350 . S
C551 C554 1.463 . S
C551 C556 1.350 . S
C551 N559 1.427 . S
C552 H543 0.930 . S
C552 C550 1.378 . S
C552 C553 1.367 . S
C553 C552 1.367 . S
C553 C555 1.433 . S
C554 C550 1.350 . S
C554 C551 1.463 . S
C554 N558 1.427 . S
C555 H545 0.929 . S
C555 C553 1.433 . S
C555 N558 1.384 . S
C556 H547 0.929 . S
C556 C548 1.378 . S
C556 C551 1.350 . S
C557 H544 0.929 . S
C557 C549 1.433 . S
C557 N559 1.384 . S
N558 C554 1.427 . S
N558 C555 1.384 . S
N559 C551 1.427 . S
N559 C557 1.384 . S
H560 C566 0.930 . S
H561 C570 0.930 . S
H562 C575 0.929 . S
H563 C573 0.929 . S
H564 C568 0.929 . S
H565 C574 0.929 . S
C566 H560 0.930 . S
C566 C567 1.367 . S
C566 C574 1.378 . S
C567 C566 1.367 . S
C567 C575 1.433 1_645 S
C568 H564 0.929 . S
C568 C570 1.378 . S
C568 C572 1.377 . S
C569 C572 1.465 1_646 S
C569 C574 1.350 . S
C569 N577 1.427 1_645 S
C570 H561 0.930 . S
C570 C568 1.378 . S
C570 C571 1.367 . S
C571 C570 1.367 . S
C571 C573 1.433 1_465 S
C572 C568 1.377 . S
C572 C569 1.465 1_464 S
C572 N576 1.397 1_465 S
C573 H563 0.929 . S
C573 C571 1.433 1_645 S
C573 N576 1.384 . S
C574 H565 0.929 . S
C574 C566 1.378 . S
C574 C569 1.350 . S
C575 H562 0.929 . S
C575 C567 1.433 1_465 S
C575 N577 1.384 . S
N576 C572 1.397 1_645 S
N576 C573 1.384 . S
N577 C569 1.427 1_465 S
N577 C575 1.384 . S
H578 C584 0.930 . S
H579 C588 0.930 . S
H580 C593 0.929 . S
H581 C591 0.929 1_556 S
H582 C586 0.929 . S
H583 C592 0.929 . S
C584 H578 0.930 . S
C584 C585 1.367 . S
C584 C592 1.378 . S
C585 C584 1.367 . S
C585 C593 1.433 . S
C586 H582 0.929 . S
C586 C588 1.378 . S
C586 C590 1.350 . S
C587 C590 1.463 . S
C587 C592 1.350 . S
C587 N595 1.427 . S
C588 H579 0.930 . S
C588 C586 1.378 . S
C588 C589 1.367 . S
C589 C588 1.367 . S
C589 C591 1.433 . S
C590 C586 1.350 . S
C590 C587 1.463 . S
C590 N594 1.427 . S
C591 H581 0.929 1_554 S
C591 C589 1.433 . S
C591 N594 1.384 . S
C592 H583 0.929 . S
C592 C584 1.378 . S
C592 C587 1.350 . S
C593 H580 0.929 . S
C593 C585 1.433 . S
C593 N595 1.384 . S
N594 C590 1.427 . S
N594 C591 1.384 . S
N595 C587 1.427 . S
N595 C593 1.384 . S
H596 C602 0.930 . S
H597 C606 0.930 . S
H598 C611 0.929 . S
H599 C609 0.929 . S
H600 C604 0.929 . S
H601 C610 0.929 . S
C602 H596 0.930 . S
C602 C603 1.367 . S
C602 C610 1.378 . S
C603 C602 1.367 . S
C603 C611 1.433 1_545 S
C604 H600 0.929 . S
C604 C606 1.378 . S
C604 C608 1.350 . S
C605 C608 1.463 1_545 S
C605 C610 1.350 . S
C605 N613 1.427 1_545 S
C606 H597 0.930 . S
C606 C604 1.378 . S
C606 C607 1.367 . S
C607 C606 1.367 . S
C607 C609 1.433 1_565 S
C608 C604 1.350 . S
C608 C605 1.463 1_565 S
C608 N612 1.427 1_565 S
C609 H599 0.929 . S
C609 C607 1.433 1_545 S
C609 N612 1.384 . S
C610 H601 0.929 . S
C610 C602 1.378 . S
C610 C605 1.350 . S
C611 H598 0.929 . S
C611 C603 1.433 1_565 S
C611 N613 1.384 . S
N612 C608 1.427 1_545 S
N612 C609 1.384 . S
N613 C605 1.427 1_565 S
N613 C611 1.384 . S
H614 C620 0.930 . S
H615 C624 0.930 . S
H616 C629 0.929 . S
H617 C627 0.929 . S
H618 C622 0.929 . S
H619 C628 0.929 . S
C620 H614 0.930 . S
C620 C621 1.367 . S
C620 C628 1.378 . S
C621 C620 1.367 . S
C621 C629 1.433 . S
C622 H618 0.929 . S
C622 C624 1.378 . S
C622 C626 1.350 . S
C623 C626 1.463 . S
C623 C628 1.350 . S
C623 N631 1.427 . S
C624 H615 0.930 . S
C624 C622 1.378 . S
C624 C625 1.367 . S
C625 C624 1.367 . S
C625 C627 1.433 . S
C626 C622 1.350 . S
C626 C623 1.463 . S
C626 N630 1.427 . S
C627 H617 0.929 . S
C627 C625 1.433 . S
C627 N630 1.384 . S
C628 H619 0.929 . S
C628 C620 1.378 . S
C628 C623 1.350 . S
C629 H616 0.929 . S
C629 C621 1.433 . S
C629 N631 1.384 . S
N630 C626 1.427 . S
N630 C627 1.384 . S
N631 C623 1.427 . S
N631 C629 1.384 . S
H632 C638 0.930 . S
H633 C642 0.930 . S
H634 C647 0.929 1_554 S
H635 C645 0.929 . S
H636 C640 0.929 . S
H637 C646 0.929 . S
C638 H632 0.930 . S
C638 C639 1.367 . S
C638 C646 1.378 . S
C639 C638 1.367 . S
C639 C647 1.433 . S
C640 H636 0.929 . S
C640 C642 1.378 . S
C640 C644 1.350 . S
C641 C644 1.463 . S
C641 C646 1.350 . S
C641 N649 1.427 . S
C642 H633 0.930 . S
C642 C640 1.378 . S
C642 C643 1.367 . S
C643 C642 1.367 . S
C643 C645 1.433 . S
C644 C640 1.350 . S
C644 C641 1.463 . S
C644 N648 1.427 . S
C645 H635 0.929 . S
C645 C643 1.433 . S
C645 N648 1.384 . S
C646 H637 0.929 . S
C646 C638 1.378 . S
C646 C641 1.350 . S
C647 H634 0.929 1_556 S
C647 C639 1.433 . S
C647 N649 1.384 . S
N648 C644 1.427 . S
N648 C645 1.384 . S
N649 C641 1.427 . S
N649 C647 1.384 . S
H650 C656 0.930 . S
H651 C660 0.927 1_556 S
H652 C665 0.929 . S
H653 C663 0.929 . S
H654 C658 0.929 . S
H655 C664 0.929 . S
C656 H650 0.930 . S
C656 C657 1.367 . S
C656 C664 1.378 . S
C657 C656 1.367 . S
C657 C665 1.433 . S
C658 H654 0.929 . S
C658 C660 1.378 . S
C658 C662 1.350 . S
C659 C662 1.463 . S
C659 C664 1.350 . S
C659 N667 1.427 . S
C660 H651 0.927 1_554 S
C660 C658 1.378 . S
C660 C661 1.367 . S
C661 C660 1.367 . S
C661 C663 1.433 . S
C662 C658 1.350 . S
C662 C659 1.463 . S
C662 N666 1.427 . S
C663 H653 0.929 . S
C663 C661 1.433 . S
C663 N666 1.384 . S
C664 H655 0.929 . S
C664 C656 1.378 . S
C664 C659 1.350 . S
C665 H652 0.929 . S
C665 C657 1.433 . S
C665 N667 1.384 . S
N666 C662 1.427 . S
N666 C663 1.384 . S
N667 C659 1.427 . S
N667 C665 1.384 . S
H668 C674 0.930 . S
H669 C678 0.930 . S
H670 C683 0.929 . S
H671 C681 0.929 . S
H672 C676 0.929 . S
H673 C682 0.929 . S
C674 H668 0.930 . S
C674 C675 1.367 . S
C674 C682 1.378 . S
C675 C674 1.367 . S
C675 C683 1.433 . S
C676 H672 0.929 . S
C676 C678 1.378 . S
C676 C680 1.350 . S
C677 C680 1.463 . S
C677 C682 1.350 . S
C677 N685 1.427 . S
C678 H669 0.930 . S
C678 C676 1.378 . S
C678 C679 1.367 . S
C679 C678 1.367 . S
C679 C681 1.433 . S
C680 C676 1.350 . S
C680 C677 1.463 . S
C680 N684 1.427 . S
C681 H671 0.929 . S
C681 C679 1.433 . S
C681 N684 1.384 . S
C682 H673 0.929 . S
C682 C674 1.378 . S
C682 C677 1.350 . S
C683 H670 0.929 . S
C683 C675 1.433 . S
C683 N685 1.384 . S
N684 C680 1.427 . S
N684 C681 1.384 . S
N685 C677 1.427 . S
N685 C683 1.384 . S
H686 C692 0.930 . S
H687 C696 0.930 . S
H688 C701 0.929 . S
H689 C699 0.929 . S
H690 C694 0.929 . S
H691 C700 0.929 . S
C692 H686 0.930 . S
C692 C693 1.367 1_455 S
C692 C700 1.378 . S
C693 C692 1.367 1_655 S
C693 C701 1.433 . S
C694 H690 0.929 . S
C694 C696 1.378 . S
C694 C698 1.345 1_655 S
C695 C698 1.462 1_656 S
C695 C700 1.353 1_655 S
C695 N703 1.424 . S
C696 H687 0.930 . S
C696 C694 1.378 . S
C696 C697 1.367 1_655 S
C697 C696 1.367 1_455 S
C697 C699 1.433 . S
C698 C694 1.345 1_455 S
C698 C695 1.462 1_454 S
C698 N702 1.433 . S
C699 H689 0.929 . S
C699 C697 1.433 . S
C699 N702 1.384 . S
C700 H691 0.929 . S
C700 C692 1.378 . S
C700 C695 1.353 1_455 S
C701 H688 0.929 . S
C701 C693 1.433 . S
C701 N703 1.384 . S
N702 C698 1.433 . S
N702 C699 1.384 . S
N703 C695 1.424 . S
N703 C701 1.384 . S
C279 C17 3.243 . S
C283 C119 3.241 . S
C297 C4 1.522 . S
C301 C51 1.523 . S
C315 C38 0.370 . S
C319 C72 0.373 . S
C333 C85 1.520 . S
C337 C106 1.519 . S
C351 C8 3.244 . S
C355 C178 3.247 . S
C369 C13 1.521 . S
C373 C144 1.518 . S
C387 C149 0.378 . S
C391 C81 0.374 . S
C405 C183 1.521 . S
C409 C76 1.522 . S
C423 C221 3.245 . S
C427 C187 3.245 . S
C441 C153 1.521 . S
C445 C208 1.522 . S
C459 C242 0.408 . S
C463 C140 0.408 . S
C477 C174 1.522 . S
C481 C255 1.520 . S
C495 C110 3.245 . S
C499 C212 3.245 . S
C513 C217 1.522 . S
C517 C42 1.522 . S
C531 C47 0.405 . S
C535 C251 0.403 . S
C549 C115 1.521 . S
C553 C246 1.520 . S
C567 C0 1.151 . S
C571 C29 1.151 . S
C585 C63 1.194 . S
C589 C34 1.194 1_554 S
C603 C68 1.194 . S
C607 C97 1.194 . S
C621 C102 1.147 1_556 S
C625 C131 1.147 . S
C639 C165 1.194 1_556 S
C643 C136 1.194 . S
C657 C170 1.147 . S
C661 C199 1.147 1_554 S
C675 C233 1.150 . S
C679 C204 1.150 . S
C693 C267 1.191 . S
C697 C238 1.191 . S
