# Generated by pormake.
# Topology wgb, (5)-cn, num edge types: 1
# Building blocks:
#     Node 0, Type 0, BuildingBlock: BEQFEK_clean_sbu_0, # of connection points: 5
#     Node 1, Type 0, BuildingBlock: BEQFEK_clean_sbu_0, # of connection points: 5
#     Node 2, Type 0, BuildingBlock: BEQFEK_clean_sbu_0, # of connection points: 5
#     Node 3, Type 0, BuildingBlock: BEQFEK_clean_sbu_0, # of connection points: 5
#     Node 4, Type 0, BuildingBlock: BEQFEK_clean_sbu_0, # of connection points: 5
#     Node 5, Type 0, BuildingBlock: BEQFEK_clean_sbu_0, # of connection points: 5
#     Node 6, Type 0, BuildingBlock: BEQFEK_clean_sbu_0, # of connection points: 5
#     Node 7, Type 0, BuildingBlock: BEQFEK_clean_sbu_0, # of connection points: 5
#     Node 8, Type 0, BuildingBlock: BEQFEK_clean_sbu_0, # of connection points: 5
#     Node 9, Type 0, BuildingBlock: BEQFEK_clean_sbu_0, # of connection points: 5
#     Node 10, Type 0, BuildingBlock: BEQFEK_clean_sbu_0, # of connection points: 5
#     Node 11, Type 0, BuildingBlock: BEQFEK_clean_sbu_0, # of connection points: 5
#     Node 12, Type 0, BuildingBlock: BEQFEK_clean_sbu_0, # of connection points: 5
#     Node 13, Type 0, BuildingBlock: BEQFEK_clean_sbu_0, # of connection points: 5
#     Node 14, Type 0, BuildingBlock: BEQFEK_clean_sbu_0, # of connection points: 5
#     Node 15, Type 0, BuildingBlock: BEQFEK_clean_sbu_0, # of connection points: 5
#     Edge 16, Type (0, 0), BuildingBlock: XIVTED_clean_linker_0, # of connection points: 2
#     Edge 17, Type (0, 0), BuildingBlock: XIVTED_clean_linker_0, # of connection points: 2
#     Edge 18, Type (0, 0), BuildingBlock: XIVTED_clean_linker_0, # of connection points: 2
#     Edge 19, Type (0, 0), BuildingBlock: XIVTED_clean_linker_0, # of connection points: 2
#     Edge 20, Type (0, 0), BuildingBlock: XIVTED_clean_linker_0, # of connection points: 2
#     Edge 21, Type (0, 0), BuildingBlock: XIVTED_clean_linker_0, # of connection points: 2
#     Edge 22, Type (0, 0), BuildingBlock: XIVTED_clean_linker_0, # of connection points: 2
#     Edge 23, Type (0, 0), BuildingBlock: XIVTED_clean_linker_0, # of connection points: 2
#     Edge 24, Type (0, 0), BuildingBlock: XIVTED_clean_linker_0, # of connection points: 2
#     Edge 25, Type (0, 0), BuildingBlock: XIVTED_clean_linker_0, # of connection points: 2
#     Edge 26, Type (0, 0), BuildingBlock: XIVTED_clean_linker_0, # of connection points: 2
#     Edge 27, Type (0, 0), BuildingBlock: XIVTED_clean_linker_0, # of connection points: 2
#     Edge 28, Type (0, 0), BuildingBlock: XIVTED_clean_linker_0, # of connection points: 2
#     Edge 29, Type (0, 0), BuildingBlock: XIVTED_clean_linker_0, # of connection points: 2
#     Edge 30, Type (0, 0), BuildingBlock: XIVTED_clean_linker_0, # of connection points: 2
#     Edge 31, Type (0, 0), BuildingBlock: XIVTED_clean_linker_0, # of connection points: 2
#     Edge 32, Type (0, 0), BuildingBlock: XIVTED_clean_linker_0, # of connection points: 2
#     Edge 33, Type (0, 0), BuildingBlock: XIVTED_clean_linker_0, # of connection points: 2
#     Edge 34, Type (0, 0), BuildingBlock: XIVTED_clean_linker_0, # of connection points: 2
#     Edge 35, Type (0, 0), BuildingBlock: XIVTED_clean_linker_0, # of connection points: 2
#     Edge 36, Type (0, 0), BuildingBlock: XIVTED_clean_linker_0, # of connection points: 2
#     Edge 37, Type (0, 0), BuildingBlock: XIVTED_clean_linker_0, # of connection points: 2
#     Edge 38, Type (0, 0), BuildingBlock: XIVTED_clean_linker_0, # of connection points: 2
#     Edge 39, Type (0, 0), BuildingBlock: XIVTED_clean_linker_0, # of connection points: 2
#     Edge 40, Type (0, 0), BuildingBlock: XIVTED_clean_linker_0, # of connection points: 2
#     Edge 41, Type (0, 0), BuildingBlock: XIVTED_clean_linker_0, # of connection points: 2
#     Edge 42, Type (0, 0), BuildingBlock: XIVTED_clean_linker_0, # of connection points: 2
#     Edge 43, Type (0, 0), BuildingBlock: XIVTED_clean_linker_0, # of connection points: 2
#     Edge 44, Type (0, 0), BuildingBlock: XIVTED_clean_linker_0, # of connection points: 2
#     Edge 45, Type (0, 0), BuildingBlock: XIVTED_clean_linker_0, # of connection points: 2
#     Edge 46, Type (0, 0), BuildingBlock: XIVTED_clean_linker_0, # of connection points: 2
#     Edge 47, Type (0, 0), BuildingBlock: XIVTED_clean_linker_0, # of connection points: 2
#     Edge 48, Type (0, 0), BuildingBlock: XIVTED_clean_linker_0, # of connection points: 2
#     Edge 49, Type (0, 0), BuildingBlock: XIVTED_clean_linker_0, # of connection points: 2
#     Edge 50, Type (0, 0), BuildingBlock: XIVTED_clean_linker_0, # of connection points: 2
#     Edge 51, Type (0, 0), BuildingBlock: XIVTED_clean_linker_0, # of connection points: 2
#     Edge 52, Type (0, 0), BuildingBlock: XIVTED_clean_linker_0, # of connection points: 2
#     Edge 53, Type (0, 0), BuildingBlock: XIVTED_clean_linker_0, # of connection points: 2
#     Edge 54, Type (0, 0), BuildingBlock: XIVTED_clean_linker_0, # of connection points: 2
#     Edge 55, Type (0, 0), BuildingBlock: XIVTED_clean_linker_0, # of connection points: 2
# Relax obj value: 0.141
# Max RMSD: 0.139
# Mean RMSD: 0.139
data_MOF--net-wgb--node1-BEQFEK_clean_sbu_0--edge1-XIVTED_clean_linker_0
_symmetry_space_group_name_H-M    P1
_symmetry_Int_Tables_number       1
_symmetry_cell_setting            triclinic
loop_
_symmetry_equiv_pos_as_xyz
'x, y, z'
_cell_length_a     64.399977
_cell_length_b     64.526636
_cell_length_c     20.342821
_cell_angle_alpha  90.007879
_cell_angle_beta   89.972379
_cell_angle_gamma 89.970279
loop_
_atom_site_label
_atom_site_type_symbol
_atom_site_fract_x
_atom_site_fract_y
_atom_site_fract_z
_atom_type_partial_charge
Co0 Co 0.34176 0.06246 0.12335 0.0
Co1 Co 0.33276 0.11055 0.12994 0.0
C2 C 0.31667 0.08474 0.0185 0.0
O3 O 0.32476 0.0681 0.04157 0.0
O4 O 0.31958 0.1023 0.04605 0.0
C5 C 0.35982 0.01942 0.09735 0.0
O6 O 0.36184 0.02221 0.03371 0.0
C7 C 0.33108 0.15674 0.11385 0.0
C8 C 0.32444 0.16539 0.21695 0.0
C9 C 0.32773 0.1737 0.15514 0.0
N10 N 0.32997 0.13935 0.15029 0.0
N11 N 0.32593 0.14473 0.21167 0.0
C12 C 0.33445 0.1568 0.04112 0.0
H13 H 0.33002 0.14164 0.01966 0.0
H14 H 0.35116 0.15943 0.03082 0.0
H15 H 0.32535 0.16941 0.01767 0.0
C16 C 0.38419 0.07827 0.15477 0.0
N17 N 0.36425 0.08146 0.13694 0.0
N18 N 0.36047 0.1015 0.13812 0.0
C19 C 0.37783 0.11169 0.15615 0.0
C20 C 0.39346 0.0973 0.16757 0.0
C21 C 0.39388 0.05733 0.16216 0.0
H22 H 0.39213 0.04864 0.1155 0.0
H23 H 0.41063 0.0584 0.17436 0.0
H24 H 0.38568 0.04862 0.20138 0.0
O25 O 0.3218 0.06399 0.1967 0.0
O26 O 0.31592 0.0977 0.1978 0.0
H27 H 0.36779 0.13776 0.2125 0.0
H28 H 0.39416 0.13981 0.18487 0.0
C29 C 0.37845 0.13441 0.17107 0.0
H30 H 0.37307 0.14322 0.12752 0.0
H31 H 0.32434 0.13424 0.25038 0.0
O32 O 0.35228 0.03374 0.13299 0.0
C33 C 0.31254 0.07969 0.22011 0.0
Co34 Co 0.06208 0.66302 0.87558 0.0
Co35 Co 0.11064 0.66875 0.86988 0.0
C36 C 0.08708 0.68801 0.97801 0.0
O37 O 0.07013 0.68081 0.95422 0.0
O38 O 0.10463 0.68346 0.95259 0.0
C39 C 0.02391 0.63956 0.90731 0.0
O40 O 0.03538 0.62742 0.9443 0.0
C41 C 0.15703 0.66994 0.87974 0.0
C42 C 0.16474 0.66811 0.77393 0.0
C43 C 0.17363 0.66927 0.83572 0.0
N44 N 0.13926 0.66909 0.84501 0.0
N45 N 0.14405 0.66818 0.78192 0.0
C46 C 0.15782 0.66993 0.95318 0.0
H47 H 0.14323 0.66343 0.97371 0.0
H48 H 0.17133 0.66083 0.9709 0.0
H49 H 0.15942 0.68612 0.97087 0.0
C50 C 0.07586 0.62022 0.83469 0.0
N51 N 0.0796 0.6393 0.85977 0.0
N52 N 0.09981 0.64152 0.86654 0.0
C53 C 0.10935 0.62361 0.85064 0.0
C54 C 0.09456 0.60957 0.82925 0.0
C55 C 0.05526 0.61312 0.80912 0.0
H56 H 0.04541 0.62657 0.79595 0.0
H57 H 0.04744 0.60372 0.84738 0.0
H58 H 0.0571 0.60309 0.76531 0.0
O59 O 0.06384 0.6816 0.79973 0.0
O60 O 0.09795 0.68558 0.8004 0.0
H61 H 0.13813 0.62661 0.79928 0.0
H62 H 0.13683 0.60432 0.85173 0.0
C63 C 0.13241 0.62086 0.84735 0.0
H64 H 0.13996 0.62971 0.88741 0.0
H65 H 0.13313 0.66729 0.74416 0.0
O66 O 0.03218 0.65502 0.87879 0.0
C67 C 0.08022 0.68968 0.77645 0.0
Co68 Co 0.66046 0.93785 0.11838 0.0
Co69 Co 0.67028 0.89016 0.12633 0.0
C70 C 0.68718 0.91463 0.01613 0.0
O71 O 0.67885 0.93117 0.0392 0.0
O72 O 0.68398 0.89701 0.04274 0.0
C73 C 0.65801 0.98233 0.12281 0.0
O74 O 0.67833 0.9811 0.1271 0.0
C75 C 0.6739 0.84413 0.11749 0.0
C76 C 0.67485 0.83665 0.22357 0.0
C77 C 0.6749 0.82768 0.16179 0.0
N78 N 0.67316 0.86189 0.15204 0.0
N79 N 0.67394 0.85726 0.21526 0.0
C80 C 0.67197 0.84314 0.04431 0.0
H81 H 0.66485 0.8576 0.02515 0.0
H82 H 0.6625 0.82955 0.02943 0.0
H83 H 0.68767 0.84153 0.02244 0.0
C84 C 0.61951 0.92113 0.16159 0.0
N85 N 0.63858 0.91841 0.13517 0.0
N86 N 0.64233 0.89846 0.13075 0.0
C87 C 0.62552 0.88783 0.15099 0.0
C88 C 0.61054 0.90177 0.17284 0.0
C89 C 0.61177 0.94162 0.18589 0.0
H90 H 0.62489 0.95081 0.2058 0.0
H91 H 0.60488 0.95027 0.14412 0.0
H92 H 0.59989 0.93982 0.22492 0.0
O93 O 0.67936 0.93845 0.19433 0.0
O94 O 0.68601 0.90477 0.19447 0.0
H95 H 0.63146 0.85842 0.19584 0.0
H96 H 0.60761 0.85955 0.14958 0.0
C97 C 0.62406 0.86468 0.15085 0.0
H98 H 0.63226 0.85834 0.10738 0.0
H99 H 0.67336 0.86821 0.25296 0.0
O100 O 0.64759 0.96588 0.11354 0.0
C101 C 0.68874 0.92281 0.21791 0.0
Co102 Co 0.93848 0.34339 0.88199 0.0
Co103 Co 0.89165 0.33071 0.86282 0.0
C104 C 0.91604 0.31335 0.97416 0.0
O105 O 0.93238 0.32336 0.95713 0.0
O106 O 0.89893 0.31559 0.94341 0.0
C107 C 0.98266 0.34706 0.88464 0.0
O108 O 0.98175 0.32672 0.88436 0.0
C109 C 0.84582 0.32511 0.87046 0.0
C110 C 0.83851 0.32317 0.76441 0.0
C111 C 0.82943 0.32329 0.82609 0.0
N112 N 0.86363 0.32623 0.83603 0.0
N113 N 0.85912 0.32477 0.77284 0.0
C114 C 0.84469 0.32767 0.94345 0.0
H115 H 0.85918 0.33485 0.96233 0.0
H116 H 0.8311 0.33734 0.95719 0.0
H117 H 0.84293 0.31221 0.96663 0.0
C118 C 0.91956 0.38419 0.84777 0.0
N119 N 0.91773 0.36434 0.86822 0.0
N120 N 0.89801 0.3591 0.86654 0.0
C121 C 0.88663 0.37553 0.84749 0.0
C122 C 0.89986 0.39191 0.83331 0.0
C123 C 0.93995 0.39407 0.83158 0.0
H124 H 0.94927 0.3833 0.80094 0.0
H125 H 0.94864 0.39689 0.87779 0.0
H126 H 0.93802 0.40892 0.8049 0.0
O127 O 0.94098 0.32621 0.80229 0.0
O128 O 0.90767 0.31833 0.79128 0.0
H129 H 0.85955 0.36736 0.7924 0.0
H130 H 0.85708 0.39118 0.83819 0.0
C131 C 0.86354 0.37523 0.83915 0.0
H132 H 0.85634 0.36665 0.88037 0.0
H133 H 0.87009 0.3255 0.73519 0.0
O134 O 0.96591 0.35736 0.88954 0.0
C135 C 0.92635 0.31729 0.77159 0.0
Co136 Co 0.33873 0.43924 0.12316 0.0
Co137 Co 0.33224 0.39084 0.11815 0.0
C138 C 0.31297 0.41581 0.22528 0.0
O139 O 0.32064 0.43267 0.20235 0.0
O140 O 0.31716 0.39825 0.19939 0.0
C141 C 0.35832 0.481 0.15083 0.0
O142 O 0.36565 0.47488 0.20786 0.0
C143 C 0.3312 0.34467 0.13341 0.0
C144 C 0.33181 0.33594 0.02826 0.0
C145 C 0.3315 0.32769 0.09101 0.0
N146 N 0.33149 0.36205 0.09682 0.0
N147 N 0.33164 0.35664 0.03417 0.0
C148 C 0.33215 0.3446 0.20683 0.0
H149 H 0.33857 0.35949 0.22509 0.0
H150 H 0.34177 0.33148 0.22461 0.0
H151 H 0.3162 0.3428 0.22673 0.0
C152 C 0.38208 0.42518 0.09291 0.0
N153 N 0.36236 0.42138 0.11228 0.0
N154 N 0.35966 0.40119 0.11535 0.0
C155 C 0.37767 0.39158 0.10077 0.0
C156 C 0.39244 0.40642 0.08535 0.0
C157 C 0.39036 0.44623 0.0768 0.0
H158 H 0.37913 0.45465 0.04527 0.0
H159 H 0.39239 0.45508 0.12304 0.0
H160 H 0.40563 0.44539 0.05167 0.0
O161 O 0.32028 0.43668 0.04679 0.0
O162 O 0.31609 0.40271 0.04634 0.0
H163 H 0.37293 0.36389 0.04526 0.0
H164 H 0.39638 0.36372 0.09279 0.0
C165 C 0.3799 0.36862 0.09275 0.0
H166 H 0.37171 0.36057 0.13324 0.0
H167 H 0.33204 0.36714 0.99521 0.0
O168 O 0.34744 0.46869 0.11639 0.0
C169 C 0.31232 0.42045 0.02242 0.0
Co170 Co 0.43966 0.66213 0.87804 0.0
Co171 Co 0.39119 0.67046 0.88158 0.0
C172 C 0.41742 0.68777 0.77339 0.0
O173 O 0.43404 0.67975 0.7971 0.0
O174 O 0.39969 0.68439 0.79945 0.0
C175 C 0.4817 0.6421 0.85324 0.0
O176 O 0.47647 0.63603 0.79388 0.0
C177 C 0.34486 0.67243 0.86371 0.0
C178 C 0.33585 0.67723 0.96751 0.0
C179 C 0.32775 0.67519 0.90491 0.0
N180 N 0.36217 0.67272 0.90091 0.0
N181 N 0.35656 0.67564 0.96273 0.0
C182 C 0.34499 0.67037 0.7905 0.0
H183 H 0.36028 0.67505 0.77026 0.0
H184 H 0.34226 0.65392 0.7772 0.0
H185 H 0.33249 0.67994 0.76838 0.0
C186 C 0.42392 0.61957 0.90928 0.0
N187 N 0.42078 0.63936 0.88988 0.0
N188 N 0.40064 0.64285 0.88791 0.0
C189 C 0.3904 0.6254 0.90426 0.0
C190 C 0.40479 0.61007 0.91879 0.0
C191 C 0.44482 0.61036 0.92256 0.0
H192 H 0.45353 0.62046 0.95703 0.0
H193 H 0.45363 0.60951 0.87583 0.0
H194 H 0.44363 0.59451 0.94334 0.0
O195 O 0.43734 0.68139 0.95262 0.0
O196 O 0.40347 0.68685 0.95187 0.0
H197 H 0.36328 0.6336 0.95886 0.0
H198 H 0.3619 0.60828 0.92252 0.0
C199 C 0.36741 0.62435 0.91483 0.0
H200 H 0.35933 0.63103 0.87169 0.0
H201 H 0.36693 0.67646 0.00204 0.0
O202 O 0.46887 0.65239 0.88778 0.0
C203 C 0.42132 0.6902 0.97576 0.0
Co204 Co 0.66557 0.56277 0.11607 0.0
Co205 Co 0.67367 0.61096 0.10867 0.0
C206 C 0.69262 0.58514 0.21585 0.0
O207 O 0.6841 0.56845 0.19488 0.0
O208 O 0.68906 0.6026 0.18849 0.0
C209 C 0.64587 0.52059 0.14228 0.0
O210 O 0.64007 0.52539 0.2023 0.0
C211 C 0.67612 0.65703 0.12713 0.0
C212 C 0.67911 0.66631 0.02291 0.0
C213 C 0.67826 0.6742 0.08606 0.0
N214 N 0.67561 0.63989 0.08938 0.0
N215 N 0.67744 0.64564 0.0273 0.0
C216 C 0.67538 0.65669 0.20059 0.0
H217 H 0.68033 0.64135 0.2195 0.0
H218 H 0.65917 0.65947 0.21693 0.0
H219 H 0.68542 0.66903 0.22135 0.0
C220 C 0.62244 0.57828 0.08943 0.0
N221 N 0.64246 0.58151 0.10651 0.0
N222 N 0.64591 0.60162 0.1073 0.0
C223 C 0.62821 0.61176 0.09257 0.0
C224 C 0.61274 0.59732 0.08025 0.0
C225 C 0.61317 0.55736 0.0775 0.0
H226 H 0.61291 0.54864 0.12441 0.0
H227 H 0.59706 0.55846 0.05859 0.0
H228 H 0.62292 0.54867 0.04196 0.0
O229 O 0.68393 0.5648 0.03891 0.0
O230 O 0.68863 0.5987 0.03508 0.0
H231 H 0.63546 0.63851 0.03521 0.0
H232 H 0.61076 0.6401 0.07593 0.0
C233 C 0.62698 0.63464 0.08102 0.0
H234 H 0.63441 0.64294 0.12249 0.0
H235 H 0.67749 0.63541 0.9876 0.0
O236 O 0.6558 0.53369 0.10783 0.0
C237 C 0.69186 0.5807 0.0123 0.0
Co238 Co 0.56353 0.33867 0.87724 0.0
Co239 Co 0.61201 0.3314 0.87797 0.0
C240 C 0.58539 0.31264 0.77316 0.0
O241 O 0.56878 0.32065 0.79701 0.0
O242 O 0.60317 0.31644 0.79813 0.0
C243 C 0.52135 0.35832 0.85434 0.0
O244 O 0.52635 0.36461 0.79499 0.0
C245 C 0.65811 0.32846 0.8571 0.0
C246 C 0.66786 0.3273 0.96128 0.0
C247 C 0.67548 0.32683 0.89773 0.0
N248 N 0.64112 0.32991 0.89549 0.0
N249 N 0.64716 0.3292 0.95753 0.0
C250 C 0.65744 0.3277 0.78368 0.0
H251 H 0.64191 0.3227 0.76645 0.0
H252 H 0.66047 0.34344 0.76397 0.0
H253 H 0.66951 0.31701 0.76446 0.0
C254 C 0.5786 0.38166 0.90594 0.0
N255 N 0.58197 0.36193 0.88626 0.0
N256 N 0.60214 0.35889 0.88205 0.0
C257 C 0.61216 0.37664 0.8966 0.0
C258 C 0.59761 0.39163 0.91293 0.0
C259 C 0.55771 0.39032 0.92269 0.0
H260 H 0.54837 0.39153 0.87712 0.0
H261 H 0.55884 0.40597 0.94498 0.0
H262 H 0.54958 0.37971 0.95704 0.0
O263 O 0.56669 0.32004 0.95309 0.0
O264 O 0.60071 0.31564 0.95135 0.0
H265 H 0.63992 0.3709 0.95099 0.0
H266 H 0.6405 0.39462 0.90495 0.0
C267 C 0.63523 0.37829 0.9041 0.0
H268 H 0.64301 0.37014 0.86295 0.0
H269 H 0.63708 0.32995 0.99761 0.0
O270 O 0.53432 0.34798 0.88807 0.0
C271 C 0.58308 0.31204 0.97651 0.0
Co272 Co 0.84299 0.56548 0.61859 0.0
Co273 Co 0.8333 0.61333 0.62153 0.0
C274 C 0.81775 0.58787 0.51142 0.0
O275 O 0.82561 0.57146 0.53684 0.0
O276 O 0.82081 0.60568 0.53685 0.0
C277 C 0.84535 0.5208 0.62364 0.0
O278 O 0.82499 0.52168 0.62123 0.0
C279 C 0.82999 0.65944 0.60892 0.0
C280 C 0.82603 0.66745 0.71389 0.0
C281 C 0.82756 0.67611 0.65187 0.0
N282 N 0.83014 0.64185 0.64453 0.0
N283 N 0.82766 0.64682 0.70706 0.0
C284 C 0.8314 0.65997 0.53554 0.0
H285 H 0.8261 0.64507 0.5143 0.0
H286 H 0.84783 0.66235 0.52089 0.0
H287 H 0.82195 0.67288 0.51542 0.0
C288 C 0.88355 0.58232 0.66436 0.0
N289 N 0.86472 0.58499 0.63632 0.0
N290 N 0.86109 0.60493 0.63066 0.0
C291 C 0.87776 0.61559 0.6519 0.0
C292 C 0.89252 0.60169 0.67539 0.0
C293 C 0.89093 0.56192 0.69044 0.0
H294 H 0.87763 0.55321 0.7113 0.0
H295 H 0.89759 0.55274 0.64941 0.0
H296 H 0.90285 0.56382 0.72927 0.0
O297 O 0.82313 0.56561 0.69198 0.0
O298 O 0.81643 0.59925 0.68807 0.0
H299 H 0.87122 0.64512 0.6951 0.0
H300 H 0.89566 0.6439 0.65183 0.0
C301 C 0.87923 0.63874 0.65127 0.0
H302 H 0.87156 0.64492 0.60663 0.0
H303 H 0.82729 0.63608 0.74538 0.0
O304 O 0.85577 0.53742 0.61804 0.0
C305 C 0.81332 0.58141 0.71255 0.0
Co306 Co 0.56512 0.16236 0.37248 0.0
Co307 Co 0.61323 0.17034 0.37505 0.0
C308 C 0.58737 0.18697 0.48186 0.0
O309 O 0.57097 0.17959 0.45475 0.0
O310 O 0.6054 0.18333 0.45847 0.0
C311 C 0.52573 0.13846 0.39284 0.0
O312 O 0.53456 0.12739 0.43927 0.0
C313 C 0.65939 0.17279 0.39022 0.0
C314 C 0.66805 0.17253 0.28493 0.0
C315 C 0.67634 0.173 0.34762 0.0
N316 N 0.64197 0.17206 0.3538 0.0
N317 N 0.64732 0.17212 0.29108 0.0
C318 C 0.65958 0.17177 0.46364 0.0
H319 H 0.64486 0.16495 0.48209 0.0
H320 H 0.673 0.16251 0.48115 0.0
H321 H 0.66098 0.18771 0.48364 0.0
C322 C 0.58143 0.12063 0.33001 0.0
N323 N 0.58385 0.1396 0.35749 0.0
N324 N 0.60379 0.14286 0.3667 0.0
C325 C 0.61452 0.12585 0.34908 0.0
C326 C 0.60087 0.11133 0.32356 0.0
C327 C 0.56156 0.11307 0.30041 0.0
H328 H 0.55212 0.12633 0.28287 0.0
H329 H 0.55262 0.10453 0.33832 0.0
H330 H 0.56456 0.10238 0.25874 0.0
O331 O 0.5673 0.18198 0.29943 0.0
O332 O 0.60103 0.18774 0.3064 0.0
H333 H 0.64519 0.1305 0.31121 0.0
H334 H 0.64212 0.10713 0.35837 0.0
C335 C 0.63759 0.12369 0.35504 0.0
H336 H 0.64313 0.13193 0.3995 0.0
H337 H 0.63675 0.17146 0.25227 0.0
O338 O 0.53582 0.15301 0.36545 0.0
C339 C 0.58353 0.19128 0.28016 0.0
Co340 Co 0.16251 0.43805 0.62691 0.0
Co341 Co 0.16993 0.3898 0.62436 0.0
C342 C 0.18707 0.41573 0.51779 0.0
O343 O 0.1797 0.43219 0.54455 0.0
O344 O 0.18328 0.39778 0.54133 0.0
C345 C 0.14034 0.47865 0.60551 0.0
O346 O 0.13111 0.47152 0.55256 0.0
C347 C 0.17188 0.34366 0.60834 0.0
C348 C 0.17188 0.33492 0.71351 0.0
C349 C 0.17213 0.32669 0.65074 0.0
N350 N 0.17135 0.36102 0.64497 0.0
N351 N 0.17155 0.35562 0.70761 0.0
C352 C 0.17069 0.34357 0.53495 0.0
H353 H 0.16393 0.35834 0.51689 0.0
H354 H 0.16124 0.33028 0.51751 0.0
H355 H 0.18659 0.34203 0.51451 0.0
C356 C 0.12041 0.42252 0.66741 0.0
N357 N 0.13949 0.41964 0.64097 0.0
N358 N 0.1425 0.39963 0.63294 0.0
C359 C 0.12527 0.3893 0.65084 0.0
C360 C 0.11081 0.40332 0.67489 0.0
C361 C 0.11295 0.44275 0.69464 0.0
H362 H 0.12611 0.45139 0.71668 0.0
H363 H 0.10637 0.45218 0.6541 0.0
H364 H 0.10075 0.44047 0.73243 0.0
O365 O 0.18217 0.43535 0.69996 0.0
O366 O 0.18733 0.40157 0.69353 0.0
H367 H 0.12973 0.35902 0.69141 0.0
H368 H 0.10624 0.36186 0.64442 0.0
C369 C 0.12288 0.36626 0.64702 0.0
H370 H 0.131 0.36024 0.60294 0.0
H371 H 0.17107 0.36612 0.74658 0.0
O372 O 0.15326 0.46731 0.63611 0.0
C373 C 0.19113 0.419 0.71965 0.0
Co374 Co 0.44154 0.83805 0.37559 0.0
Co375 Co 0.39286 0.83203 0.37226 0.0
C376 C 0.4172 0.81309 0.47944 0.0
O377 O 0.43405 0.82033 0.45498 0.0
O378 O 0.39957 0.81747 0.45449 0.0
C379 C 0.4792 0.86258 0.40403 0.0
O380 O 0.46741 0.87483 0.43963 0.0
C381 C 0.3463 0.83095 0.38389 0.0
C382 C 0.33847 0.83 0.27811 0.0
C383 C 0.32963 0.83022 0.3401 0.0
N384 N 0.36405 0.83134 0.34879 0.0
N385 N 0.35915 0.83071 0.28574 0.0
C386 C 0.34557 0.83044 0.45735 0.0
H387 H 0.36034 0.82436 0.47752 0.0
H388 H 0.34338 0.84644 0.4761 0.0
H389 H 0.33241 0.82075 0.47459 0.0
C390 C 0.42715 0.88039 0.33298 0.0
N391 N 0.42368 0.86151 0.35987 0.0
N392 N 0.40352 0.85925 0.36809 0.0
C393 C 0.39379 0.87698 0.35146 0.0
C394 C 0.40838 0.8909 0.32819 0.0
C395 C 0.44735 0.88718 0.30363 0.0
H396 H 0.45722 0.87362 0.29184 0.0
H397 H 0.45548 0.89743 0.33892 0.0
H398 H 0.4448 0.89629 0.25815 0.0
O399 O 0.43963 0.81932 0.30018 0.0
O400 O 0.40549 0.81537 0.30216 0.0
H401 H 0.36482 0.87298 0.30201 0.0
H402 H 0.36627 0.89615 0.35065 0.0
C403 C 0.37072 0.87956 0.34877 0.0
H404 H 0.3634 0.87131 0.39054 0.0
H405 H 0.37 0.83083 0.24764 0.0
O406 O 0.47135 0.84656 0.37748 0.0
C407 C 0.42314 0.8113 0.27748 0.0
Co408 Co 0.83801 0.94136 0.61598 0.0
Co409 Co 0.83056 0.89312 0.61063 0.0
C410 C 0.81226 0.91822 0.71917 0.0
O411 O 0.82007 0.93501 0.69615 0.0
O412 O 0.8161 0.90067 0.69274 0.0
C413 C 0.85838 0.98275 0.64422 0.0
O414 O 0.86554 0.97636 0.70118 0.0
C415 C 0.82923 0.84708 0.62698 0.0
C416 C 0.82801 0.83805 0.52215 0.0
C417 C 0.8287 0.82999 0.58512 0.0
N418 N 0.82905 0.86435 0.58986 0.0
N419 N 0.82809 0.85877 0.52744 0.0
C420 C 0.83148 0.84721 0.70012 0.0
H421 H 0.83811 0.86219 0.71687 0.0
H422 H 0.84151 0.8342 0.71646 0.0
H423 H 0.81594 0.84533 0.72287 0.0
C424 C 0.88118 0.92637 0.58476 0.0
N425 N 0.86132 0.923 0.60377 0.0
N426 N 0.85817 0.90286 0.60636 0.0
C427 C 0.87596 0.89286 0.59155 0.0
C428 C 0.89112 0.90738 0.57684 0.0
C429 C 0.89006 0.94729 0.57019 0.0
H430 H 0.87914 0.95618 0.53883 0.0
H431 H 0.89213 0.95582 0.61701 0.0
H432 H 0.90537 0.94617 0.54546 0.0
O433 O 0.81903 0.9393 0.54034 0.0
O434 O 0.81428 0.90539 0.53984 0.0
H435 H 0.86961 0.86526 0.53724 0.0
H436 H 0.89398 0.86463 0.57989 0.0
C437 C 0.87763 0.86987 0.58315 0.0
H438 H 0.87008 0.86199 0.62519 0.0
H439 H 0.82795 0.86916 0.48815 0.0
O440 O 0.84732 0.9707 0.60937 0.0
C441 C 0.81065 0.92322 0.51628 0.0
Co442 Co 0.94173 0.16619 0.38343 0.0
Co443 Co 0.89359 0.1749 0.38618 0.0
C444 C 0.91927 0.18959 0.27384 0.0
O445 O 0.93593 0.18225 0.29941 0.0
O446 O 0.90155 0.18659 0.30031 0.0
C447 C 0.98291 0.14484 0.35949 0.0
O448 O 0.9769 0.13748 0.30237 0.0
C449 C 0.84738 0.17635 0.37023 0.0
C450 C 0.83871 0.18351 0.47298 0.0
C451 C 0.8304 0.17978 0.41143 0.0
N452 N 0.8648 0.17778 0.4065 0.0
N453 N 0.85943 0.18217 0.46765 0.0
C454 C 0.84729 0.17259 0.29768 0.0
H455 H 0.86237 0.17716 0.27575 0.0
H456 H 0.84495 0.15581 0.28828 0.0
H457 H 0.83448 0.18132 0.27389 0.0
C458 C 0.92579 0.1241 0.42197 0.0
N459 N 0.92281 0.14374 0.40067 0.0
N460 N 0.90271 0.14741 0.39882 0.0
C461 C 0.89232 0.13025 0.4173 0.0
C462 C 0.90657 0.11489 0.43282 0.0
C463 C 0.94663 0.11462 0.43428 0.0
H464 H 0.95604 0.12512 0.46548 0.0
H465 H 0.95474 0.11259 0.38666 0.0
H466 H 0.94536 0.09924 0.45827 0.0
O467 O 0.94012 0.18707 0.45401 0.0
O468 O 0.9064 0.19312 0.45058 0.0
H469 H 0.86506 0.13999 0.46855 0.0
H470 H 0.86378 0.11369 0.44008 0.0
C471 C 0.86931 0.12946 0.42765 0.0
H472 H 0.86133 0.13482 0.38251 0.0
H473 H 0.86995 0.18407 0.50615 0.0
O474 O 0.97074 0.15628 0.39269 0.0
C475 C 0.92426 0.19691 0.47377 0.0
Co476 Co 0.16486 0.06171 0.62322 0.0
Co477 Co 0.17361 0.10971 0.61131 0.0
C478 C 0.19215 0.08449 0.72074 0.0
O479 O 0.18345 0.06771 0.70131 0.0
O480 O 0.18888 0.10173 0.69168 0.0
C481 C 0.14506 0.01949 0.65133 0.0
O482 O 0.13989 0.02389 0.71222 0.0
C483 C 0.17559 0.15585 0.62724 0.0
C484 C 0.17998 0.16464 0.52308 0.0
C485 C 0.17799 0.17285 0.58557 0.0
N486 N 0.17596 0.13851 0.59041 0.0
N487 N 0.17868 0.14397 0.52838 0.0
C488 C 0.1737 0.15583 0.70051 0.0
H489 H 0.17879 0.14073 0.72091 0.0
H490 H 0.15719 0.1582 0.71422 0.0
H491 H 0.18306 0.16856 0.72217 0.0
C492 C 0.12194 0.07752 0.59677 0.0
N493 N 0.14204 0.08068 0.61284 0.0
N494 N 0.14577 0.10074 0.61108 0.0
C495 C 0.12821 0.11093 0.59522 0.0
C496 C 0.11251 0.09656 0.58528 0.0
C497 C 0.11233 0.05661 0.58782 0.0
H498 H 0.11276 0.0482 0.63529 0.0
H499 H 0.09595 0.05772 0.57136 0.0
H500 H 0.12144 0.04761 0.55136 0.0
O501 O 0.1831 0.06291 0.54561 0.0
O502 O 0.18811 0.09671 0.5383 0.0
H503 H 0.1368 0.13669 0.53519 0.0
H504 H 0.11135 0.1391 0.57052 0.0
C505 C 0.12738 0.1336 0.57973 0.0
H506 H 0.13403 0.1425 0.62124 0.0
H507 H 0.17944 0.13354 0.48926 0.0
O508 O 0.15462 0.03279 0.61665 0.0
C509 C 0.19104 0.07848 0.51712 0.0
Co510 Co 0.06291 0.83846 0.37769 0.0
Co511 Co 0.11159 0.83159 0.37959 0.0
C512 C 0.08593 0.81348 0.27214 0.0
O513 O 0.06916 0.82098 0.29666 0.0
O514 O 0.10367 0.81743 0.29733 0.0
C515 C 0.02115 0.85853 0.35221 0.0
O516 O 0.0272 0.86525 0.29433 0.0
C517 C 0.15791 0.83112 0.3621 0.0
C518 C 0.16703 0.8293 0.46674 0.0
C519 C 0.17509 0.83057 0.40383 0.0
N520 N 0.14061 0.8304 0.3993 0.0
N521 N 0.14627 0.8291 0.46158 0.0
C522 C 0.1577 0.83386 0.28914 0.0
H523 H 0.14252 0.84021 0.27289 0.0
H524 H 0.17047 0.84429 0.27345 0.0
H525 H 0.15997 0.81855 0.26534 0.0
C526 C 0.07746 0.88129 0.4108 0.0
N527 N 0.0811 0.86175 0.38978 0.0
N528 N 0.10132 0.85895 0.38591 0.0
C529 C 0.11108 0.87671 0.4019 0.0
C530 C 0.09633 0.89142 0.4188 0.0
C531 C 0.05645 0.88962 0.42779 0.0
H532 H 0.04808 0.87838 0.45941 0.0
H533 H 0.04744 0.89177 0.3819 0.0
H534 H 0.05743 0.90479 0.45322 0.0
O535 O 0.06582 0.81931 0.45222 0.0
O536 O 0.09984 0.81478 0.45005 0.0
H537 H 0.13898 0.87055 0.45514 0.0
H538 H 0.13908 0.89508 0.41357 0.0
C539 C 0.13411 0.87869 0.40972 0.0
H540 H 0.14202 0.87149 0.3671 0.0
H541 H 0.1359 0.82852 0.50095 0.0
O542 O 0.03343 0.84761 0.38682 0.0
C543 C 0.08217 0.81092 0.47463 0.0
H544 H 0.2948 0.04356 0.26602 0.0
H545 H 0.20135 0.10673 0.42449 0.0
H546 H 0.2915 0.11026 0.28281 0.0
H547 H 0.21447 0.04415 0.48722 0.0
H548 H 0.23084 0.10516 0.35029 0.0
H549 H 0.26303 0.04096 0.33282 0.0
C550 C 0.2876 0.05759 0.28435 0.0
C551 C 0.29568 0.07717 0.26829 0.0
C552 C 0.22722 0.0917 0.37995 0.0
C553 C 0.25943 0.07427 0.34235 0.0
C554 C 0.21032 0.09253 0.42196 0.0
C555 C 0.20578 0.07569 0.46284 0.0
C556 C 0.23976 0.07393 0.37897 0.0
C557 C 0.21763 0.05752 0.45668 0.0
C558 C 0.26947 0.05607 0.32191 0.0
C559 C 0.28575 0.09484 0.2932 0.0
N560 N 0.23439 0.05718 0.41598 0.0
N561 N 0.26807 0.09295 0.32837 0.0
H562 H 0.11402 0.79374 0.543 0.0
H563 H 0.04541 0.70969 0.7304 0.0
H564 H 0.04736 0.79096 0.52065 0.0
H565 H 0.11209 0.70682 0.70798 0.0
H566 H 0.04485 0.74025 0.6587 0.0
H567 H 0.11262 0.7636 0.6139 0.0
C568 C 0.09903 0.78688 0.55347 0.0
C569 C 0.08079 0.79473 0.5253 0.0
C570 C 0.05953 0.73276 0.66924 0.0
C571 C 0.07912 0.75995 0.60602 0.0
C572 C 0.05986 0.71528 0.70971 0.0
C573 C 0.07885 0.70586 0.7257 0.0
C574 C 0.07832 0.74077 0.64525 0.0
C575 C 0.09711 0.71372 0.69768 0.0
C576 C 0.09826 0.76956 0.59368 0.0
C577 C 0.06179 0.78533 0.54127 0.0
N578 N 0.09638 0.73081 0.65931 0.0
N579 N 0.06144 0.76826 0.58042 0.0
H580 H 0.79494 0.89217 0.44158 0.0
H581 H 0.70892 0.95846 0.25664 0.0
H582 H 0.78968 0.95809 0.47504 0.0
H583 H 0.70538 0.89265 0.29393 0.0
H584 H 0.7399 0.96018 0.32728 0.0
H585 H 0.76463 0.89362 0.37126 0.0
C586 C 0.78751 0.90703 0.43362 0.0
C587 C 0.79465 0.925 0.46497 0.0
C588 C 0.73212 0.94547 0.32025 0.0
C589 C 0.75966 0.92669 0.38497 0.0
C590 C 0.71442 0.94449 0.2805 0.0
C591 C 0.70478 0.92533 0.26877 0.0
C592 C 0.74009 0.92714 0.34752 0.0
C593 C 0.7125 0.9077 0.30067 0.0
C594 C 0.77009 0.90782 0.3938 0.0
C595 C 0.78457 0.94387 0.45196 0.0
N596 N 0.7298 0.90901 0.33795 0.0
N597 N 0.76736 0.94423 0.41313 0.0
H598 H 0.96057 0.29277 0.75073 0.0
H599 H 0.89344 0.22179 0.51884 0.0
H600 H 0.90162 0.31042 0.66697 0.0
H601 H 0.95989 0.21289 0.52986 0.0
H602 H 0.89687 0.25334 0.5816 0.0
H603 H 0.96228 0.26358 0.67296 0.0
C604 C 0.94834 0.29085 0.71468 0.0
C605 C 0.93073 0.30366 0.71569 0.0
C606 C 0.91077 0.24459 0.5702 0.0
C607 C 0.93238 0.2705 0.62872 0.0
C608 C 0.90881 0.22639 0.53481 0.0
C609 C 0.92644 0.21469 0.51867 0.0
C610 C 0.93048 0.25119 0.59057 0.0
C611 C 0.94591 0.22149 0.54123 0.0
C612 C 0.94925 0.27417 0.67084 0.0
C613 C 0.91525 0.3006 0.66849 0.0
N614 N 0.94744 0.23938 0.5764 0.0
N615 N 0.9163 0.28415 0.62755 0.0
H616 H 0.29193 0.45522 0.97834 0.0
H617 H 0.20994 0.38679 0.78153 0.0
H618 H 0.2965 0.38905 0.94912 0.0
H619 H 0.21043 0.45364 0.76928 0.0
H620 H 0.24038 0.38811 0.85126 0.0
H621 H 0.2617 0.45585 0.90506 0.0
C622 C 0.2868 0.44091 0.95574 0.0
C623 C 0.29656 0.42201 0.97039 0.0
C624 C 0.23388 0.40253 0.83346 0.0
C625 C 0.26202 0.4226 0.88809 0.0
C626 C 0.21638 0.4018 0.79391 0.0
C627 C 0.20775 0.42014 0.76905 0.0
C628 C 0.24288 0.42174 0.84854 0.0
C629 C 0.21665 0.43914 0.78737 0.0
C630 C 0.2695 0.44127 0.91438 0.0
C631 C 0.2893 0.40393 0.93993 0.0
N632 N 0.23388 0.43946 0.82592 0.0
N633 N 0.27237 0.40467 0.90074 0.0
H634 H 0.39121 0.79609 0.20518 0.0
H635 H 0.45689 0.70899 0.02127 0.0
H636 H 0.45741 0.78995 0.23363 0.0
H637 H 0.39016 0.70867 0.04392 0.0
H638 H 0.45857 0.73972 0.09223 0.0
H639 H 0.39181 0.76612 0.13342 0.0
C640 C 0.40594 0.78852 0.19587 0.0
C641 C 0.42425 0.79534 0.22608 0.0
C642 C 0.44363 0.73274 0.08187 0.0
C643 C 0.425 0.76075 0.14448 0.0
C644 C 0.44266 0.71517 0.04187 0.0
C645 C 0.42333 0.70641 0.02617 0.0
C646 C 0.42514 0.7415 0.10562 0.0
C647 C 0.40539 0.71503 0.05401 0.0
C648 C 0.40625 0.7713 0.15517 0.0
C649 C 0.44293 0.7851 0.21144 0.0
N650 N 0.40673 0.73218 0.09187 0.0
N651 N 0.44282 0.76812 0.17188 0.0
H652 H 0.70397 0.61045 0.92659 0.0
H653 H 0.79511 0.54564 0.75944 0.0
H654 H 0.7143 0.54622 0.97659 0.0
H655 H 0.79272 0.61241 0.77453 0.0
H656 H 0.76359 0.54361 0.82756 0.0
H657 H 0.73345 0.60912 0.85246 0.0
C658 C 0.71233 0.59597 0.92136 0.0
C659 C 0.70694 0.57852 0.95853 0.0
C660 C 0.77015 0.55863 0.816 0.0
C661 C 0.74097 0.57699 0.87453 0.0
C662 C 0.78815 0.5598 0.77767 0.0
C663 C 0.79642 0.57923 0.76082 0.0
C664 C 0.76046 0.577 0.83665 0.0
C665 C 0.7868 0.5971 0.78553 0.0
C666 C 0.72925 0.59525 0.87934 0.0
C667 C 0.71809 0.56005 0.94897 0.0
N668 N 0.76927 0.59553 0.82167 0.0
N669 N 0.73485 0.5598 0.90825 0.0
H670 H 0.54844 0.20927 0.22823 0.0
H671 H 0.61476 0.29762 0.05162 0.0
H672 H 0.61547 0.21171 0.22183 0.0
H673 H 0.54876 0.29085 0.0203 0.0
H674 H 0.61403 0.2681 0.12527 0.0
H675 H 0.54717 0.24016 0.1581 0.0
C676 C 0.56285 0.21613 0.2115 0.0
C677 C 0.58209 0.20802 0.23126 0.0
C678 C 0.59965 0.27306 0.10259 0.0
C679 C 0.58071 0.24332 0.15256 0.0
C680 C 0.60003 0.29002 0.06079 0.0
C681 C 0.58183 0.29652 0.02922 0.0
C682 C 0.58094 0.26243 0.1129 0.0
C683 C 0.56316 0.28626 0.04358 0.0
C684 C 0.5621 0.2338 0.17194 0.0
C685 C 0.60028 0.21752 0.20837 0.0
N686 N 0.56321 0.26951 0.08411 0.0
N687 N 0.59912 0.23472 0.17063 0.0
H688 H 0.31187 0.30631 0.19066 0.0
H689 H 0.35109 0.19541 0.06409 0.0
H690 H 0.35145 0.29785 0.02155 0.0
H691 H 0.30549 0.20353 0.21756 0.0
H692 H 0.35232 0.23293 0.04976 0.0
H693 H 0.31104 0.26871 0.20579 0.0
C694 C 0.32072 0.2966 0.15754 0.0
C695 C 0.33197 0.30524 0.10531 0.0
C696 C 0.3419 0.22648 0.08617 0.0
C697 C 0.33065 0.2622 0.12112 0.0
C698 C 0.34097 0.20498 0.09372 0.0
C699 C 0.32783 0.19622 0.14115 0.0
C700 C 0.32978 0.23931 0.1268 0.0
C701 C 0.31579 0.2096 0.18017 0.0
C702 C 0.32002 0.2751 0.16563 0.0
C703 C 0.34257 0.29182 0.06251 0.0
N704 N 0.31707 0.23044 0.1722 0.0
N705 N 0.34166 0.271 0.07136 0.0
H706 H 0.20335 0.64939 0.76509 0.0
H707 H 0.2981 0.69738 0.96831 0.0
H708 H 0.19564 0.69013 0.93151 0.0
H709 H 0.3059 0.6533 0.81068 0.0
H710 H 0.2606 0.69587 0.95272 0.0
H711 H 0.24094 0.65136 0.77886 0.0
C712 C 0.20957 0.65862 0.80496 0.0
C713 C 0.19629 0.66935 0.84788 0.0
C714 C 0.2705 0.68666 0.9211 0.0
C715 C 0.23939 0.67188 0.86346 0.0
C716 C 0.29194 0.68754 0.92984 0.0
C717 C 0.30524 0.67568 0.89009 0.0
C718 C 0.26218 0.6737 0.87245 0.0
C719 C 0.29637 0.66316 0.84124 0.0
C720 C 0.23104 0.65975 0.81273 0.0
C721 C 0.2052 0.68114 0.89842 0.0
N722 N 0.27538 0.66245 0.83393 0.0
N723 N 0.2262 0.68213 0.90469 0.0
H724 H 0.65704 0.79789 0.23708 0.0
H725 H 0.69973 0.70375 0.02005 0.0
H726 H 0.6937 0.80591 0.06134 0.0
H727 H 0.65832 0.69584 0.18498 0.0
H728 H 0.6991 0.74111 0.03789 0.0
H729 H 0.6586 0.76041 0.22184 0.0
C730 C 0.66532 0.79176 0.19496 0.0
C731 C 0.67498 0.80508 0.14978 0.0
C732 C 0.69029 0.7312 0.07058 0.0
C733 C 0.67699 0.76214 0.13241 0.0
C734 C 0.69067 0.70986 0.06055 0.0
C735 C 0.67931 0.69657 0.1017 0.0
C736 C 0.67834 0.73943 0.12199 0.0
C737 C 0.6678 0.70535 0.1532 0.0
C738 C 0.66619 0.77036 0.18632 0.0
C739 C 0.68554 0.7963 0.09633 0.0
N740 N 0.66757 0.72626 0.16177 0.0
N741 N 0.6863 0.77536 0.0892 0.0
H742 H 0.80755 0.30594 0.929 0.0
H743 H 0.69714 0.34386 0.79353 0.0
H744 H 0.7996 0.33998 0.74815 0.0
H745 H 0.70487 0.30611 0.96695 0.0
H746 H 0.73455 0.34214 0.77473 0.0
H747 H 0.76992 0.30604 0.94419 0.0
C748 C 0.79795 0.31372 0.89305 0.0
C749 C 0.80677 0.32331 0.8379 0.0
C750 C 0.72802 0.33405 0.81654 0.0
C751 C 0.76363 0.32302 0.85394 0.0
C752 C 0.70658 0.33481 0.8268 0.0
C753 C 0.69777 0.32482 0.88129 0.0
C754 C 0.74074 0.32338 0.8614 0.0
C755 C 0.711 0.31404 0.92424 0.0
C756 C 0.77642 0.31356 0.90128 0.0
C757 C 0.79345 0.33245 0.79155 0.0
N758 N 0.73178 0.31364 0.91348 0.0
N759 N 0.77258 0.33214 0.80071 0.0
H760 H 0.811 0.80877 0.6888 0.0
H761 H 0.84902 0.69806 0.55731 0.0
H762 H 0.84763 0.80011 0.51324 0.0
H763 H 0.80658 0.70574 0.71977 0.0
H764 H 0.84962 0.73554 0.54271 0.0
H765 H 0.81088 0.7712 0.70538 0.0
C766 C 0.81935 0.79904 0.65449 0.0
C767 C 0.82956 0.80759 0.60002 0.0
C768 C 0.84001 0.72901 0.5812 0.0
C769 C 0.82904 0.76462 0.61762 0.0
C770 C 0.83943 0.70753 0.58892 0.0
C771 C 0.8273 0.69866 0.63877 0.0
C772 C 0.82858 0.74175 0.62407 0.0
C773 C 0.81603 0.71192 0.68036 0.0
C774 C 0.81906 0.77756 0.66348 0.0
C775 C 0.83955 0.79415 0.55591 0.0
N776 N 0.81693 0.73278 0.67209 0.0
N777 N 0.83904 0.77336 0.56567 0.0
H778 H 0.80907 0.15541 0.32245 0.0
H779 H 0.69733 0.19326 0.44666 0.0
H780 H 0.80018 0.20198 0.47221 0.0
H781 H 0.70658 0.15353 0.27852 0.0
H782 H 0.73498 0.19483 0.46181 0.0
H783 H 0.77153 0.15347 0.30813 0.0
C784 C 0.79932 0.16559 0.35121 0.0
C785 C 0.80786 0.17923 0.39755 0.0
C786 C 0.72874 0.18565 0.42186 0.0
C787 C 0.76476 0.17647 0.38334 0.0
C788 C 0.70723 0.18454 0.41376 0.0
C789 C 0.69882 0.17303 0.3618 0.0
C790 C 0.74187 0.17518 0.37764 0.0
C791 C 0.71245 0.1626 0.31926 0.0
C792 C 0.77781 0.16426 0.3437 0.0
C793 C 0.79426 0.19131 0.43564 0.0
N794 N 0.73328 0.16391 0.32812 0.0
N795 N 0.77341 0.18964 0.42776 0.0
H796 H 0.19168 0.30568 0.55 0.0
H797 H 0.15586 0.19414 0.68041 0.0
H798 H 0.15329 0.29647 0.72143 0.0
H799 H 0.19892 0.20297 0.5202 0.0
H800 H 0.15426 0.23162 0.69522 0.0
H801 H 0.19322 0.2681 0.53484 0.0
C802 C 0.18324 0.29581 0.58364 0.0
C803 C 0.17211 0.30423 0.63651 0.0
C804 C 0.16422 0.22534 0.65721 0.0
C805 C 0.17426 0.26123 0.62067 0.0
C806 C 0.16537 0.20387 0.64938 0.0
C807 C 0.17789 0.19533 0.59989 0.0
C808 C 0.1755 0.23837 0.61485 0.0
C809 C 0.18912 0.20889 0.5592 0.0
C810 C 0.18434 0.27433 0.57552 0.0
C811 C 0.16206 0.29062 0.67996 0.0
N812 N 0.18765 0.2297 0.56751 0.0
N813 N 0.16337 0.26982 0.67109 0.0
H814 H 0.30747 0.84914 0.43987 0.0
H815 H 0.19668 0.8145 0.29786 0.0
H816 H 0.29993 0.81164 0.26583 0.0
H817 H 0.20489 0.84861 0.47845 0.0
H818 H 0.23435 0.81468 0.28199 0.0
H819 H 0.26984 0.84968 0.45354 0.0
C820 C 0.29799 0.84062 0.40535 0.0
C821 C 0.30696 0.82991 0.35249 0.0
C822 C 0.22787 0.82226 0.32484 0.0
C823 C 0.26371 0.83113 0.36639 0.0
C824 C 0.20632 0.82239 0.33345 0.0
C825 C 0.19758 0.83178 0.38914 0.0
C826 C 0.24073 0.83155 0.37234 0.0
C827 C 0.21097 0.84116 0.4348 0.0
C828 C 0.27643 0.84119 0.41262 0.0
C829 C 0.29369 0.82 0.30756 0.0
N830 N 0.23182 0.84079 0.42543 0.0
N831 N 0.27277 0.82082 0.31554 0.0
H832 H 0.29788 0.04998 0.96606 0.0
H833 H 0.21081 0.11725 0.78203 0.0
H834 H 0.29791 0.11677 0.95329 0.0
H835 H 0.21228 0.05042 0.77309 0.0
H836 H 0.24192 0.11671 0.84973 0.0
H837 H 0.26684 0.04919 0.89612 0.0
C838 C 0.29166 0.06446 0.94762 0.0
C839 C 0.3006 0.08349 0.96598 0.0
C840 C 0.23544 0.10211 0.83337 0.0
C841 C 0.26473 0.08267 0.88714 0.0
C842 C 0.2175 0.10239 0.79497 0.0
C843 C 0.20882 0.08384 0.77143 0.0
C844 C 0.24499 0.08315 0.84876 0.0
C845 C 0.21832 0.06511 0.79023 0.0
C846 C 0.27379 0.06398 0.9082 0.0
C847 C 0.29162 0.10171 0.9409 0.0
N848 N 0.23595 0.06524 0.82744 0.0
N849 N 0.27419 0.10084 0.90341 0.0
H850 H 0.05136 0.79359 0.22203 0.0
H851 H 0.1198 0.70693 0.03977 0.0
H852 H 0.11823 0.79494 0.20706 0.0
H853 H 0.05285 0.70806 0.02975 0.0
H854 H 0.11894 0.73814 0.10704 0.0
H855 H 0.05101 0.76229 0.15341 0.0
C856 C 0.06594 0.78758 0.20346 0.0
C857 C 0.08486 0.79701 0.22075 0.0
C858 C 0.10439 0.73154 0.09054 0.0
C859 C 0.08457 0.76083 0.14336 0.0
C860 C 0.10486 0.71353 0.05243 0.0
C861 C 0.08637 0.70473 0.02865 0.0
C862 C 0.0853 0.741 0.10544 0.0
C863 C 0.06751 0.71418 0.04697 0.0
C864 C 0.06573 0.76957 0.16474 0.0
C865 C 0.10323 0.78829 0.19548 0.0
N866 N 0.06747 0.73184 0.08391 0.0
N867 N 0.10262 0.7707 0.15872 0.0
H868 H 0.70592 0.88275 0.9501 0.0
H869 H 0.79214 0.95248 0.77082 0.0
H870 H 0.70685 0.94944 0.96673 0.0
H871 H 0.79375 0.8857 0.78263 0.0
H872 H 0.76082 0.95243 0.83987 0.0
H873 H 0.7369 0.88432 0.88184 0.0
C874 C 0.71243 0.8978 0.93868 0.0
C875 C 0.70364 0.91599 0.96463 0.0
C876 C 0.76817 0.93783 0.82771 0.0
C877 C 0.73971 0.91786 0.8866 0.0
C878 C 0.78619 0.93784 0.78876 0.0
C879 C 0.7957 0.91906 0.7705 0.0
C880 C 0.7595 0.9189 0.84831 0.0
C881 C 0.78704 0.90059 0.79494 0.0
C882 C 0.73032 0.89867 0.89997 0.0
C883 C 0.71296 0.935 0.94773 0.0
N884 N 0.76946 0.901 0.83192 0.0
N885 N 0.73053 0.93544 0.91016 0.0
H886 H 0.95377 0.21012 0.22592 0.0
H887 H 0.88384 0.2925 0.03112 0.0
H888 H 0.88738 0.20553 0.2009 0.0
H889 H 0.95082 0.29508 0.02945 0.0
H890 H 0.8855 0.26138 0.09817 0.0
H891 H 0.9538 0.24084 0.15461 0.0
C892 C 0.93927 0.21524 0.2044 0.0
C893 C 0.92052 0.20516 0.21987 0.0
C894 C 0.89989 0.26873 0.08353 0.0
C895 C 0.92042 0.24067 0.13956 0.0
C896 C 0.89896 0.28668 0.04549 0.0
C897 C 0.91723 0.29653 0.02423 0.0
C898 C 0.91924 0.26033 0.10098 0.0
C899 C 0.93632 0.28813 0.04485 0.0
C900 C 0.93929 0.23294 0.16423 0.0
C901 C 0.90222 0.21275 0.1909 0.0
N902 N 0.93684 0.27046 0.0818 0.0
N903 N 0.90262 0.23005 0.15287 0.0
H904 H 0.20726 0.45067 0.47172 0.0
H905 H 0.2942 0.38325 0.28772 0.0
H906 H 0.20503 0.38422 0.4479 0.0
H907 H 0.29263 0.45004 0.27598 0.0
H908 H 0.26281 0.38404 0.35425 0.0
H909 H 0.23869 0.45151 0.4033 0.0
C910 C 0.21308 0.43632 0.45118 0.0
C911 C 0.2034 0.41733 0.46602 0.0
C912 C 0.26934 0.39857 0.33751 0.0
C913 C 0.23972 0.41816 0.38906 0.0
C914 C 0.28745 0.39816 0.29983 0.0
C915 C 0.29617 0.41661 0.27573 0.0
C916 C 0.25969 0.41758 0.35175 0.0
C917 C 0.28656 0.43541 0.29348 0.0
C918 C 0.23116 0.4368 0.41261 0.0
C919 C 0.21188 0.39924 0.43831 0.0
N920 N 0.26879 0.43541 0.33009 0.0
N921 N 0.22956 0.4001 0.40191 0.0
H922 H 0.38472 0.79515 0.54498 0.0
H923 H 0.45228 0.70707 0.72276 0.0
H924 H 0.45149 0.79234 0.52806 0.0
H925 H 0.38539 0.70676 0.70869 0.0
H926 H 0.45304 0.7384 0.65424 0.0
H927 H 0.38545 0.76399 0.61225 0.0
C928 C 0.39961 0.78818 0.55612 0.0
C929 C 0.41807 0.79649 0.53036 0.0
C930 C 0.43823 0.73133 0.66576 0.0
C931 C 0.41897 0.76025 0.60717 0.0
C932 C 0.43779 0.7133 0.70438 0.0
C933 C 0.41873 0.70418 0.72193 0.0
C934 C 0.4195 0.74038 0.64481 0.0
C935 C 0.40047 0.71318 0.69695 0.0
C936 C 0.39999 0.7702 0.59423 0.0
C937 C 0.43686 0.7866 0.54687 0.0
N938 N 0.40132 0.73078 0.66035 0.0
N939 N 0.43682 0.76895 0.58388 0.0
H940 H 0.71175 0.5507 0.27008 0.0
H941 H 0.80112 0.61921 0.43788 0.0
H942 H 0.7128 0.61759 0.27418 0.0
H943 H 0.79697 0.55308 0.46693 0.0
H944 H 0.77031 0.61782 0.36893 0.0
H945 H 0.74335 0.55033 0.33785 0.0
C946 C 0.71836 0.56529 0.286 0.0
C947 C 0.7095 0.58421 0.26603 0.0
C948 C 0.77616 0.60354 0.3899 0.0
C949 C 0.74598 0.58385 0.34227 0.0
C950 C 0.79394 0.60429 0.42898 0.0
C951 C 0.80174 0.58625 0.45872 0.0
C952 C 0.76586 0.5846 0.38005 0.0
C953 C 0.79163 0.56739 0.44493 0.0
C954 C 0.73653 0.56505 0.32422 0.0
C955 C 0.71898 0.60259 0.28788 0.0
N956 N 0.77413 0.56708 0.40702 0.0
N957 N 0.73667 0.60193 0.32416 0.0
H958 H 0.55052 0.29308 0.72323 0.0
H959 H 0.61858 0.20341 0.55637 0.0
H960 H 0.61745 0.29317 0.7102 0.0
H961 H 0.5525 0.20822 0.52414 0.0
H962 H 0.61722 0.23448 0.62385 0.0
H963 H 0.54985 0.26136 0.65625 0.0
C964 C 0.56504 0.28671 0.70546 0.0
C965 C 0.58408 0.29589 0.72282 0.0
C966 C 0.60295 0.22872 0.60247 0.0
C967 C 0.5834 0.25928 0.64767 0.0
C968 C 0.60367 0.21079 0.56427 0.0
C969 C 0.58564 0.20312 0.53397 0.0
C970 C 0.58405 0.23926 0.61099 0.0
C971 C 0.5668 0.21348 0.54654 0.0
C972 C 0.56463 0.26848 0.6677 0.0
C973 C 0.60237 0.28673 0.69863 0.0
N974 N 0.56651 0.2311 0.58371 0.0
N975 N 0.60155 0.26894 0.66302 0.0
H976 H 0.35972 0.01086 0.22852 0.0
H977 H 0.41097 0.89828 0.19622 0.0
H978 H 0.37795 0.98472 0.04174 0.0
H979 H 0.39451 0.92706 0.37998 0.0
H980 H 0.40006 0.92982 0.13788 0.0
H981 H 0.37299 0.98028 0.28365 0.0
C982 C 0.36648 0.99865 0.19886 0.0
C983 C 0.36763 1.00041 0.1301 0.0
C984 C 0.39903 0.92934 0.19098 0.0
C985 C 0.38304 0.96508 0.19371 0.0
C986 C 0.40539 0.91145 0.22418 0.0
C987 C 0.40387 0.91036 0.29284 0.0
C988 C 0.39095 0.94612 0.22689 0.0
C989 C 0.39607 0.92749 0.32699 0.0
C990 C 0.37413 0.98115 0.23062 0.0
C991 C 0.37667 0.98403 0.09474 0.0
N992 N 0.38986 0.94464 0.29368 0.0
N993 N 0.38401 0.96701 0.12696 0.0
H994 H 0.89652 0.63073 0.77287 0.0
H995 H 0.00985 0.60004 0.88789 0.0
H996 H 0.93105 0.5834 0.67032 0.0
H997 H 0.99099 0.66404 0.87452 0.0
H998 H 0.97723 0.58982 0.83411 0.0
H999 H 0.92775 0.63954 0.83512 0.0
C1000 C 0.9107 0.62232 0.76284 0.0
C1001 C 0.91128 0.6066 0.71508 0.0
C1002 C 0.9802 0.60605 0.84383 0.0
C1003 C 0.94672 0.61593 0.7889 0.0
C1004 C 0.99865 0.61188 0.87502 0.0
C1005 C 0.00305 0.63292 0.88568 0.0
C1006 C 0.9659 0.62133 0.82499 0.0
C1007 C 0.98814 0.64767 0.86718 0.0
C1008 C 0.92843 0.62722 0.799 0.0
C1009 C 0.92992 0.59562 0.70662 0.0
N1010 N 0.97016 0.64159 0.83799 0.0
N1011 N 0.94693 0.60042 0.7434 0.0
H1012 H 0.61731 0.98782 0.15922 0.0
H1013 H 0.62961 0.10912 0.22567 0.0
H1014 H 0.67431 0.02146 0.1269 0.0
H1015 H 0.58498 0.07178 0.33009 0.0
H1016 H 0.642 0.07821 0.16878 0.0
H1017 H 0.6013 0.0196 0.20144 0.0
C1018 C 0.62638 0.00193 0.16005 0.0
C1019 C 0.64727 0.00193 0.13985 0.0
C1020 C 0.62948 0.07675 0.20402 0.0
C1021 C 0.62894 0.03831 0.18773 0.0
C1022 C 0.62248 0.09435 0.23686 0.0
C1023 C 0.60668 0.09286 0.28414 0.0
C1024 C 0.6204 0.05748 0.21762 0.0
C1025 C 0.59736 0.0735 0.29449 0.0
C1026 C 0.61724 0.02001 0.18453 0.0
C1027 C 0.65823 0.0207 0.14224 0.0
N1028 N 0.60446 0.05646 0.26175 0.0
N1029 N 0.64894 0.03811 0.16581 0.0
H1030 H 0.0713 0.41919 0.66439 0.0
H1031 H 0.02208 0.33146 0.88989 0.0
H1032 H 0.10804 0.37583 0.77593 0.0
H1033 H 0.98793 0.38655 0.83715 0.0
H1034 H 0.05366 0.3473 0.84629 0.0
H1035 H 0.04024 0.40766 0.72492 0.0
C1036 C 0.07282 0.40736 0.70186 0.0
C1037 C 0.09211 0.3981 0.71419 0.0
C1038 C 0.03931 0.35605 0.84494 0.0
C1039 C 0.0569 0.38476 0.78292 0.0
C1040 C 0.02127 0.34699 0.86987 0.0
C1041 C 0.00231 0.35765 0.86704 0.0
C1042 C 0.03836 0.37577 0.81575 0.0
C1043 C 0.00221 0.37777 0.84048 0.0
C1044 C 0.05515 0.40078 0.73631 0.0
C1045 C 0.09333 0.38291 0.76342 0.0
N1046 N 0.01989 0.38607 0.81499 0.0
N1047 N 0.07597 0.37656 0.79538 0.0
H1048 H 0.38271 0.5779 0.86868 0.0
H1049 H 0.38571 0.51014 0.19956 0.0
H1050 H 0.4161 0.59713 0.04161 0.0
H1051 H 0.34689 0.49675 0.03182 0.0
H1052 H 0.39858 0.54114 0.1425 0.0
H1053 H 0.37166 0.54651 0.92637 0.0
C1054 C 0.3879 0.57529 0.91867 0.0
C1055 C 0.40031 0.58995 0.95056 0.0
C1056 C 0.38719 0.53141 0.11845 0.0
C1057 C 0.3876 0.5543 0.01744 0.0
C1058 C 0.37977 0.51377 0.15111 0.0
C1059 C 0.36517 0.50078 0.12058 0.0
C1060 C 0.38004 0.53598 0.05476 0.0
C1061 C 0.35813 0.50623 0.05751 0.0
C1062 C 0.38152 0.55748 0.95179 0.0
C1063 C 0.40663 0.58601 0.01536 0.0
N1064 N 0.36567 0.5233 0.0268 0.0
N1065 N 0.40012 0.56857 0.04691 0.0
H1066 H 0.58058 0.61925 0.13198 0.0
H1067 H 0.5122 0.61672 0.80182 0.0
H1068 H 0.59909 0.58577 0.95845 0.0
H1069 H 0.49596 0.65127 0.97623 0.0
H1070 H 0.54358 0.60428 0.8579 0.0
H1071 H 0.54853 0.62971 0.07631 0.0
C1072 C 0.57769 0.61392 0.08231 0.0
C1073 C 0.59233 0.60161 0.0497 0.0
C1074 C 0.53313 0.61461 0.88373 0.0
C1075 C 0.55591 0.61367 0.98508 0.0
C1076 C 0.51525 0.62178 0.85164 0.0
C1077 C 0.5014 0.63511 0.88416 0.0
C1078 C 0.53714 0.62079 0.94883 0.0
C1079 C 0.50614 0.64105 0.94894 0.0
C1080 C 0.55948 0.61994 0.05035 0.0
C1081 C 0.58802 0.59514 0.98529 0.0
N1082 N 0.52353 0.63385 0.97896 0.0
N1083 N 0.57023 0.60133 0.95487 0.0
H1084 H 0.65454 0.50744 0.01789 0.0
H1085 H 0.58785 0.40301 0.0385 0.0
H1086 H 0.62069 0.48967 0.19226 0.0
H1087 H 0.61802 0.42499 0.86291 0.0
H1088 H 0.59899 0.43456 0.09625 0.0
H1089 H 0.64135 0.47697 0.96189 0.0
C1090 C 0.64439 0.49707 0.04471 0.0
C1091 C 0.63875 0.5012 0.11015 0.0
C1092 C 0.60302 0.43258 0.04496 0.0
C1093 C 0.62338 0.46603 0.04547 0.0
C1094 C 0.59654 0.41469 0.01197 0.0
C1095 C 0.602 0.41157 0.94596 0.0
C1096 C 0.61513 0.44734 0.01161 0.0
C1097 C 0.61353 0.42691 0.91384 0.0
C1098 C 0.63677 0.47965 0.01241 0.0
C1099 C 0.6255 0.48711 0.14193 0.0
N1100 N 0.6198 0.44407 0.94703 0.0
N1101 N 0.61825 0.47013 0.10927 0.0
H1102 H 0.40358 0.41614 0.9596 0.0
H1103 H 0.50829 0.34963 0.97888 0.0
H1104 H 0.42632 0.38692 0.13575 0.0
H1105 H 0.4905 0.38375 0.80518 0.0
H1106 H 0.47795 0.36305 0.03554 0.0
H1107 H 0.43523 0.40518 0.90158 0.0
C1108 C 0.41547 0.40773 0.98621 0.0
C1109 C 0.41253 0.40246 0.05244 0.0
C1110 C 0.4806 0.36764 0.98503 0.0
C1111 C 0.44837 0.38949 0.98648 0.0
C1112 C 0.49794 0.35988 0.95234 0.0
C1113 C 0.50201 0.36553 0.88688 0.0
C1114 C 0.46702 0.38115 0.95232 0.0
C1115 C 0.48796 0.37893 0.8555 0.0
C1116 C 0.43341 0.40135 0.95308 0.0
C1117 C 0.42811 0.39128 0.08466 0.0
N1118 N 0.47107 0.38629 0.88852 0.0
N1119 N 0.4453 0.38505 0.0513 0.0
H1120 H 0.87707 0.394 0.72074 0.0
H1121 H 0.88424 0.51631 0.67652 0.0
H1122 H 0.9105 0.43244 0.85794 0.0
H1123 H 0.83026 0.48113 0.61887 0.0
H1124 H 0.89945 0.48481 0.72311 0.0
H1125 H 0.8652 0.42509 0.66333 0.0
C1126 C 0.88187 0.40902 0.73889 0.0
C1127 C 0.89438 0.41072 0.79512 0.0
C1128 C 0.88436 0.48401 0.69976 0.0
C1129 C 0.8814 0.44628 0.72829 0.0
C1130 C 0.87569 0.50193 0.67275 0.0
C1131 C 0.85584 0.5014 0.64406 0.0
C1132 C 0.87331 0.46533 0.69679 0.0
C1133 C 0.84553 0.48229 0.64081 0.0
C1134 C 0.87518 0.42672 0.70587 0.0
C1135 C 0.90077 0.43052 0.81499 0.0
N1136 N 0.85439 0.465 0.6668 0.0
N1137 N 0.89417 0.4476 0.78163 0.0
H1138 H 0.49978 0.10654 0.43042 0.0
H1139 H 0.42398 0.12258 0.12191 0.0
H1140 H 0.5058 0.15583 0.28811 0.0
H1141 H 0.40905 0.08172 0.28253 0.0
H1142 H 0.45611 0.13235 0.17814 0.0
H1143 H 0.46794 0.09515 0.37459 0.0
C1144 C 0.49436 0.11506 0.38789 0.0
C1145 C 0.50552 0.13218 0.36407 0.0
C1146 C 0.44589 0.12116 0.20112 0.0
C1147 C 0.46938 0.11905 0.29948 0.0
C1148 C 0.42764 0.11555 0.16887 0.0
C1149 C 0.41394 0.10142 0.19785 0.0
C1150 C 0.45054 0.1125 0.26281 0.0
C1151 C 0.41935 0.09261 0.25854 0.0
C1152 C 0.47624 0.1085 0.35593 0.0
C1153 C 0.49778 0.14256 0.30849 0.0
N1154 N 0.43723 0.09835 0.28926 0.0
N1155 N 0.48032 0.13578 0.27806 0.0
H1156 H 0.15116 0.49359 0.72616 0.0
H1157 H 0.08864 0.60001 0.69955 0.0
H1158 H 0.11411 0.50872 0.55592 0.0
H1159 H 0.11113 0.57461 0.88189 0.0
H1160 H 0.09911 0.568 0.64296 0.0
H1161 H 0.13874 0.52484 0.78007 0.0
C1162 C 0.1405 0.50356 0.69974 0.0
C1163 C 0.1337 0.49846 0.63614 0.0
C1164 C 0.10153 0.56933 0.69547 0.0
C1165 C 0.11928 0.53447 0.69836 0.0
C1166 C 0.09541 0.58748 0.72777 0.0
C1167 C 0.09878 0.5897 0.79553 0.0
C1168 C 0.1114 0.5535 0.73113 0.0
C1169 C 0.10817 0.57336 0.82965 0.0
C1170 C 0.1333 0.52138 0.73092 0.0
C1171 C 0.11978 0.51202 0.60489 0.0
N1172 N 0.11426 0.55601 0.79706 0.0
N1173 N 0.11305 0.52946 0.63626 0.0
H1174 H 0.60661 0.87327 0.27177 0.0
H1175 H 0.49242 0.90229 0.38224 0.0
H1176 H 0.57176 0.91961 0.16597 0.0
H1177 H 0.51264 0.83863 0.37206 0.0
H1178 H 0.52489 0.91294 0.32827 0.0
H1179 H 0.5753 0.8642 0.33314 0.0
C1180 C 0.59233 0.8814 0.2608 0.0
C1181 C 0.59169 0.89687 0.21227 0.0
C1182 C 0.52223 0.89669 0.33865 0.0
C1183 C 0.55611 0.88727 0.28518 0.0
C1184 C 0.50387 0.89061 0.36995 0.0
C1185 C 0.4999 0.86954 0.38165 0.0
C1186 C 0.5369 0.88163 0.32078 0.0
C1187 C 0.51513 0.85503 0.36392 0.0
C1188 C 0.57456 0.87635 0.29647 0.0
C1189 C 0.57293 0.90756 0.20278 0.0
N1190 N 0.53303 0.86135 0.33467 0.0
N1191 N 0.55585 0.90261 0.2391 0.0
H1192 H 0.91817 0.10069 0.55413 0.0
H1193 H 0.8472 0.99918 0.52584 0.0
H1194 H 0.88377 0.08347 0.38106 0.0
H1195 H 0.88556 0.01171 0.69526 0.0
H1196 H 0.86016 0.03053 0.47414 0.0
H1197 H 0.90689 0.06841 0.6076 0.0
C1198 C 0.9085 0.08991 0.52717 0.0
C1199 C 0.90191 0.09458 0.46317 0.0
C1200 C 0.86577 0.02651 0.52266 0.0
C1201 C 0.88863 0.058 0.52404 0.0
C1202 C 0.85829 0.00859 0.55251 0.0
C1203 C 0.86527 0.00272 0.61523 0.0
C1204 C 0.88038 0.03888 0.55549 0.0
C1205 C 0.87969 0.01563 0.64699 0.0
C1206 C 0.90195 0.0716 0.55776 0.0
C1207 C 0.88916 0.08035 0.43051 0.0
N1208 N 0.88679 0.03311 0.61675 0.0
N1209 N 0.88286 0.06278 0.46137 0.0
H1210 H 0.09844 0.08305 0.4661 0.0
H1211 H 0.99865 0.15688 0.47783 0.0
H1212 H 0.08104 0.12023 0.63313 0.0
H1213 H 0.01147 0.11623 0.3141 0.0
H1214 H 0.0291 0.14355 0.53392 0.0
H1215 H 0.06661 0.09411 0.40946 0.0
C1216 C 0.08767 0.09325 0.49115 0.0
C1217 C 0.09219 0.10074 0.55426 0.0
C1218 C 0.02534 0.1375 0.48571 0.0
C1219 C 0.05616 0.11379 0.4897 0.0
C1220 C 0.00793 0.1452 0.45333 0.0
C1221 C 0.00242 0.1377 0.39091 0.0
C1222 C 0.03753 0.12215 0.45572 0.0
C1223 C 0.01515 0.12253 0.36201 0.0
C1224 C 0.06964 0.09969 0.45873 0.0
C1225 C 0.07801 0.11414 0.58445 0.0
N1226 N 0.03212 0.11523 0.39469 0.0
N1227 N 0.06071 0.12034 0.55176 0.0
H1228 H 0.08706 0.90205 0.54539 0.0
H1229 H 0.15238 0.00731 0.52517 0.0
H1230 H 0.11569 0.92536 0.36895 0.0
H1231 H 0.12058 0.98806 0.70185 0.0
H1232 H 0.13883 0.97716 0.46851 0.0
H1233 H 0.09815 0.93348 0.60402 0.0
C1234 C 0.09538 0.91401 0.51888 0.0
C1235 C 0.10044 0.91131 0.45238 0.0
C1236 C 0.13477 0.97944 0.51967 0.0
C1237 C 0.11351 0.94691 0.51893 0.0
C1238 C 0.1426 0.99668 0.55236 0.0
C1239 C 0.13766 1.00029 0.61867 0.0
C1240 C 0.12187 0.96547 0.55319 0.0
C1241 C 0.12485 0.98589 0.65085 0.0
C1242 C 0.10183 0.93183 0.55234 0.0
C1243 C 0.11149 0.92697 0.42024 0.0
N1244 N 0.11739 0.96908 0.61778 0.0
N1245 N 0.11775 0.94405 0.45387 0.0
H1246 H 0.99146 0.88456 0.2995 0.0
H1247 H 0.92382 0.88703 0.63134 0.0
H1248 H 0.00623 0.84994 0.47498 0.0
H1249 H 0.90425 0.91696 0.45263 0.0
H1250 H 0.95561 0.8756 0.57608 0.0
H1251 H 0.96044 0.89823 0.35484 0.0
C1252 C 0.98815 0.87972 0.34938 0.0
C1253 C 1.0015 0.86601 0.38242 0.0
C1254 C 0.94449 0.88481 0.54887 0.0
C1255 C 0.9662 0.8818 0.44631 0.0
C1256 C 0.92644 0.89143 0.58061 0.0
C1257 C 0.91156 0.90298 0.54644 0.0
C1258 C 0.94768 0.88976 0.48227 0.0
C1259 C 0.91552 0.90821 0.48068 0.0
C1260 C 0.97048 0.8876 0.38104 0.0
C1261 C 0.99643 0.8604 0.44726 0.0
N1262 N 0.93318 0.90148 0.45053 0.0
N1263 N 0.97929 0.86834 0.47693 0.0
loop_
_geom_bond_atom_site_label_1
_geom_bond_atom_site_label_2
_geom_bond_distance
_geom_bond_site_symmetry_2
_ccdc_geom_bond_type
Co0 O3 1.970 . S
Co0 N17 1.989 . S
Co0 O25 1.967 . S
Co0 O32 1.920 . S
Co1 O4 1.966 . S
Co1 N10 2.022 . S
Co1 N18 1.993 . S
Co1 O26 1.941 . S
C2 O3 1.258 . S
C2 O4 1.263 . S
O3 Co0 1.970 . S
O3 C2 1.258 . S
O4 Co1 1.966 . S
O4 C2 1.263 . S
C5 O6 1.235 . S
C5 O32 1.289 . S
O6 C5 1.235 . S
C7 C9 1.400 . S
C7 N10 1.351 . S
C7 C12 1.501 . S
C8 C9 1.387 . S
C8 N11 1.341 . S
C9 C7 1.400 . S
C9 C8 1.387 . S
N10 Co1 2.022 . S
N10 C7 1.351 . S
N10 N11 1.365 . S
N11 C8 1.341 . S
N11 N10 1.365 . S
N11 H31 0.862 . S
C12 C7 1.501 . S
C12 H13 0.961 . S
C12 H14 0.961 1_554 S
C12 H15 0.960 . S
H13 C12 0.961 . S
H14 C12 0.961 1_556 S
H15 C12 0.960 . S
C16 N17 1.342 . S
C16 C20 1.401 . S
C16 C21 1.499 . S
N17 Co0 1.989 . S
N17 C16 1.342 . S
N17 N18 1.388 . S
N18 Co1 1.993 . S
N18 N17 1.388 . S
N18 C19 1.346 . S
C19 N18 1.346 . S
C19 C20 1.396 . S
C19 C29 1.510 . S
C20 C16 1.401 . S
C20 C19 1.396 . S
C21 C16 1.499 . S
C21 H22 0.959 . S
C21 H23 0.960 . S
C21 H24 0.961 . S
H22 C21 0.959 . S
H23 C21 0.960 . S
H24 C21 0.961 . S
O25 Co0 1.967 . S
O25 C33 1.258 . S
O26 Co1 1.941 . S
O26 C33 1.266 . S
H27 C29 0.959 . S
H28 C29 0.961 . S
C29 C19 1.510 . S
C29 H27 0.959 . S
C29 H28 0.961 . S
C29 H30 0.960 . S
H30 C29 0.960 . S
H31 N11 0.862 . S
O32 Co0 1.920 . S
O32 C5 1.289 . S
C33 O25 1.258 . S
C33 O26 1.266 . S
Co34 O37 1.970 . S
Co34 N51 1.989 . S
Co34 O59 1.967 . S
Co34 O66 1.920 . S
Co35 O38 1.966 . S
Co35 N44 2.022 . S
Co35 N52 1.993 . S
Co35 O60 1.941 . S
C36 O37 1.258 . S
C36 O38 1.263 . S
O37 Co34 1.970 . S
O37 C36 1.258 . S
O38 Co35 1.966 . S
O38 C36 1.263 . S
C39 O40 1.235 . S
C39 O66 1.289 . S
O40 C39 1.235 . S
C41 C43 1.400 . S
C41 N44 1.351 . S
C41 C46 1.501 . S
C42 C43 1.387 . S
C42 N45 1.341 . S
C43 C41 1.400 . S
C43 C42 1.387 . S
N44 Co35 2.022 . S
N44 C41 1.351 . S
N44 N45 1.365 . S
N45 C42 1.341 . S
N45 N44 1.365 . S
N45 H65 0.862 . S
C46 C41 1.501 . S
C46 H47 0.961 . S
C46 H48 0.961 1_556 S
C46 H49 0.960 . S
H47 C46 0.961 . S
H48 C46 0.961 1_554 S
H49 C46 0.960 . S
C50 N51 1.342 . S
C50 C54 1.401 . S
C50 C55 1.499 . S
N51 Co34 1.989 . S
N51 C50 1.342 . S
N51 N52 1.388 . S
N52 Co35 1.993 . S
N52 N51 1.388 . S
N52 C53 1.346 . S
C53 N52 1.346 . S
C53 C54 1.396 . S
C53 C63 1.510 . S
C54 C50 1.401 . S
C54 C53 1.396 . S
C55 C50 1.499 . S
C55 H56 0.959 . S
C55 H57 0.960 . S
C55 H58 0.961 . S
H56 C55 0.959 . S
H57 C55 0.960 . S
H58 C55 0.961 . S
O59 Co34 1.967 . S
O59 C67 1.258 . S
O60 Co35 1.941 . S
O60 C67 1.266 . S
H61 C63 0.959 . S
H62 C63 0.961 . S
C63 C53 1.510 . S
C63 H61 0.959 . S
C63 H62 0.961 . S
C63 H64 0.960 . S
H64 C63 0.960 . S
H65 N45 0.862 . S
O66 Co34 1.920 . S
O66 C39 1.289 . S
C67 O59 1.258 . S
C67 O60 1.266 . S
Co68 O71 1.970 . S
Co68 N85 1.989 . S
Co68 O93 1.967 . S
Co68 O100 1.920 . S
Co69 O72 1.966 . S
Co69 N78 2.022 . S
Co69 N86 1.993 . S
Co69 O94 1.941 . S
C70 O71 1.258 . S
C70 O72 1.263 . S
O71 Co68 1.970 . S
O71 C70 1.258 . S
O72 Co69 1.966 . S
O72 C70 1.263 . S
C73 O74 1.235 . S
C73 O100 1.289 . S
O74 C73 1.235 . S
C75 C77 1.400 . S
C75 N78 1.351 . S
C75 C80 1.501 . S
C76 C77 1.387 . S
C76 N79 1.341 . S
C77 C75 1.400 . S
C77 C76 1.387 . S
N78 Co69 2.022 . S
N78 C75 1.351 . S
N78 N79 1.365 . S
N79 C76 1.341 . S
N79 N78 1.365 . S
N79 H99 0.862 . S
C80 C75 1.501 . S
C80 H81 0.961 . S
C80 H82 0.961 1_554 S
C80 H83 0.960 . S
H81 C80 0.961 . S
H82 C80 0.961 1_556 S
H83 C80 0.960 . S
C84 N85 1.342 . S
C84 C88 1.401 . S
C84 C89 1.499 . S
N85 Co68 1.989 . S
N85 C84 1.342 . S
N85 N86 1.388 . S
N86 Co69 1.993 . S
N86 N85 1.388 . S
N86 C87 1.346 . S
C87 N86 1.346 . S
C87 C88 1.396 . S
C87 C97 1.510 . S
C88 C84 1.401 . S
C88 C87 1.396 . S
C89 C84 1.499 . S
C89 H90 0.959 . S
C89 H91 0.960 . S
C89 H92 0.961 . S
H90 C89 0.959 . S
H91 C89 0.960 . S
H92 C89 0.961 . S
O93 Co68 1.967 . S
O93 C101 1.258 . S
O94 Co69 1.941 . S
O94 C101 1.266 . S
H95 C97 0.959 . S
H96 C97 0.961 . S
C97 C87 1.510 . S
C97 H95 0.959 . S
C97 H96 0.961 . S
C97 H98 0.960 . S
H98 C97 0.960 . S
H99 N79 0.862 . S
O100 Co68 1.920 . S
O100 C73 1.289 . S
C101 O93 1.258 . S
C101 O94 1.266 . S
Co102 O105 1.970 . S
Co102 N119 1.989 . S
Co102 O127 1.967 . S
Co102 O134 1.920 . S
Co103 O106 1.966 . S
Co103 N112 2.022 . S
Co103 N120 1.993 . S
Co103 O128 1.941 . S
C104 O105 1.258 . S
C104 O106 1.263 . S
O105 Co102 1.970 . S
O105 C104 1.258 . S
O106 Co103 1.966 . S
O106 C104 1.263 . S
C107 O108 1.235 . S
C107 O134 1.289 . S
O108 C107 1.235 . S
C109 C111 1.400 . S
C109 N112 1.351 . S
C109 C114 1.501 . S
C110 C111 1.387 . S
C110 N113 1.341 . S
C111 C109 1.400 . S
C111 C110 1.387 . S
N112 Co103 2.022 . S
N112 C109 1.351 . S
N112 N113 1.365 . S
N113 C110 1.341 . S
N113 N112 1.365 . S
N113 H133 0.862 . S
C114 C109 1.501 . S
C114 H115 0.961 . S
C114 H116 0.961 1_556 S
C114 H117 0.960 . S
H115 C114 0.961 . S
H116 C114 0.961 1_554 S
H117 C114 0.960 . S
C118 N119 1.342 . S
C118 C122 1.401 . S
C118 C123 1.499 . S
N119 Co102 1.989 . S
N119 C118 1.342 . S
N119 N120 1.388 . S
N120 Co103 1.993 . S
N120 N119 1.388 . S
N120 C121 1.346 . S
C121 N120 1.346 . S
C121 C122 1.396 . S
C121 C131 1.510 . S
C122 C118 1.401 . S
C122 C121 1.396 . S
C123 C118 1.499 . S
C123 H124 0.959 . S
C123 H125 0.960 . S
C123 H126 0.961 . S
H124 C123 0.959 . S
H125 C123 0.960 . S
H126 C123 0.961 . S
O127 Co102 1.967 . S
O127 C135 1.258 . S
O128 Co103 1.941 . S
O128 C135 1.266 . S
H129 C131 0.959 . S
H130 C131 0.961 . S
C131 C121 1.510 . S
C131 H129 0.959 . S
C131 H130 0.961 . S
C131 H132 0.960 . S
H132 C131 0.960 . S
H133 N113 0.862 . S
O134 Co102 1.920 . S
O134 C107 1.289 . S
C135 O127 1.258 . S
C135 O128 1.266 . S
Co136 O139 1.970 . S
Co136 N153 1.989 . S
Co136 O161 1.967 . S
Co136 O168 1.920 . S
Co137 O140 1.966 . S
Co137 N146 2.022 . S
Co137 N154 1.993 . S
Co137 O162 1.941 . S
C138 O139 1.258 . S
C138 O140 1.263 . S
O139 Co136 1.970 . S
O139 C138 1.258 . S
O140 Co137 1.966 . S
O140 C138 1.263 . S
C141 O142 1.235 . S
C141 O168 1.289 . S
O142 C141 1.235 . S
C143 C145 1.400 . S
C143 N146 1.351 . S
C143 C148 1.501 . S
C144 C145 1.387 . S
C144 N147 1.341 . S
C145 C143 1.400 . S
C145 C144 1.387 . S
N146 Co137 2.022 . S
N146 C143 1.351 . S
N146 N147 1.365 . S
N147 C144 1.341 . S
N147 N146 1.365 . S
N147 H167 0.862 . S
C148 C143 1.501 . S
C148 H149 0.961 . S
C148 H150 0.961 . S
C148 H151 0.960 . S
H149 C148 0.961 . S
H150 C148 0.961 . S
H151 C148 0.960 . S
C152 N153 1.342 . S
C152 C156 1.401 . S
C152 C157 1.499 . S
N153 Co136 1.989 . S
N153 C152 1.342 . S
N153 N154 1.388 . S
N154 Co137 1.993 . S
N154 N153 1.388 . S
N154 C155 1.346 . S
C155 N154 1.346 . S
C155 C156 1.396 . S
C155 C165 1.510 . S
C156 C152 1.401 . S
C156 C155 1.396 . S
C157 C152 1.499 . S
C157 H158 0.959 . S
C157 H159 0.960 . S
C157 H160 0.961 1_554 S
H158 C157 0.959 . S
H159 C157 0.960 . S
H160 C157 0.961 1_556 S
O161 Co136 1.967 . S
O161 C169 1.258 . S
O162 Co137 1.941 . S
O162 C169 1.266 . S
H163 C165 0.959 . S
H164 C165 0.961 . S
C165 C155 1.510 . S
C165 H163 0.959 . S
C165 H164 0.961 . S
C165 H166 0.960 . S
H166 C165 0.960 . S
H167 N147 0.862 . S
O168 Co136 1.920 . S
O168 C141 1.289 . S
C169 O161 1.258 . S
C169 O162 1.266 . S
Co170 O173 1.970 . S
Co170 N187 1.989 . S
Co170 O195 1.967 . S
Co170 O202 1.920 . S
Co171 O174 1.966 . S
Co171 N180 2.022 . S
Co171 N188 1.993 . S
Co171 O196 1.941 . S
C172 O173 1.258 . S
C172 O174 1.263 . S
O173 Co170 1.970 . S
O173 C172 1.258 . S
O174 Co171 1.966 . S
O174 C172 1.263 . S
C175 O176 1.235 . S
C175 O202 1.289 . S
O176 C175 1.235 . S
C177 C179 1.400 . S
C177 N180 1.351 . S
C177 C182 1.501 . S
C178 C179 1.387 . S
C178 N181 1.341 . S
C179 C177 1.400 . S
C179 C178 1.387 . S
N180 Co171 2.022 . S
N180 C177 1.351 . S
N180 N181 1.365 . S
N181 C178 1.341 . S
N181 N180 1.365 . S
N181 H201 0.862 . S
C182 C177 1.501 . S
C182 H183 0.961 . S
C182 H184 0.961 . S
C182 H185 0.960 . S
H183 C182 0.961 . S
H184 C182 0.961 . S
H185 C182 0.960 . S
C186 N187 1.342 . S
C186 C190 1.401 . S
C186 C191 1.499 . S
N187 Co170 1.989 . S
N187 C186 1.342 . S
N187 N188 1.388 . S
N188 Co171 1.993 . S
N188 N187 1.388 . S
N188 C189 1.346 . S
C189 N188 1.346 . S
C189 C190 1.396 . S
C189 C199 1.510 . S
C190 C186 1.401 . S
C190 C189 1.396 . S
C191 C186 1.499 . S
C191 H192 0.959 . S
C191 H193 0.960 . S
C191 H194 0.961 1_556 S
H192 C191 0.959 . S
H193 C191 0.960 . S
H194 C191 0.961 1_554 S
O195 Co170 1.967 . S
O195 C203 1.258 . S
O196 Co171 1.941 . S
O196 C203 1.266 . S
H197 C199 0.959 . S
H198 C199 0.961 . S
C199 C189 1.510 . S
C199 H197 0.959 . S
C199 H198 0.961 . S
C199 H200 0.960 . S
H200 C199 0.960 . S
H201 N181 0.862 . S
O202 Co170 1.920 . S
O202 C175 1.289 . S
C203 O195 1.258 . S
C203 O196 1.266 . S
Co204 O207 1.970 . S
Co204 N221 1.989 . S
Co204 O229 1.967 . S
Co204 O236 1.920 . S
Co205 O208 1.966 . S
Co205 N214 2.022 . S
Co205 N222 1.993 . S
Co205 O230 1.941 . S
C206 O207 1.258 . S
C206 O208 1.263 . S
O207 Co204 1.970 . S
O207 C206 1.258 . S
O208 Co205 1.966 . S
O208 C206 1.263 . S
C209 O210 1.235 . S
C209 O236 1.289 . S
O210 C209 1.235 . S
C211 C213 1.400 . S
C211 N214 1.351 . S
C211 C216 1.501 . S
C212 C213 1.387 . S
C212 N215 1.341 . S
C213 C211 1.400 . S
C213 C212 1.387 . S
N214 Co205 2.022 . S
N214 C211 1.351 . S
N214 N215 1.365 . S
N215 C212 1.341 . S
N215 N214 1.365 . S
N215 H235 0.862 . S
C216 C211 1.501 . S
C216 H217 0.961 . S
C216 H218 0.961 . S
C216 H219 0.960 . S
H217 C216 0.961 . S
H218 C216 0.961 . S
H219 C216 0.960 . S
C220 N221 1.342 . S
C220 C224 1.401 . S
C220 C225 1.499 . S
N221 Co204 1.989 . S
N221 C220 1.342 . S
N221 N222 1.388 . S
N222 Co205 1.993 . S
N222 N221 1.388 . S
N222 C223 1.346 . S
C223 N222 1.346 . S
C223 C224 1.396 . S
C223 C233 1.510 . S
C224 C220 1.401 . S
C224 C223 1.396 . S
C225 C220 1.499 . S
C225 H226 0.959 . S
C225 H227 0.960 . S
C225 H228 0.961 1_554 S
H226 C225 0.959 . S
H227 C225 0.960 . S
H228 C225 0.961 1_556 S
O229 Co204 1.967 . S
O229 C237 1.258 . S
O230 Co205 1.941 . S
O230 C237 1.266 . S
H231 C233 0.959 . S
H232 C233 0.961 . S
C233 C223 1.510 . S
C233 H231 0.959 . S
C233 H232 0.961 . S
C233 H234 0.960 . S
H234 C233 0.960 . S
H235 N215 0.862 . S
O236 Co204 1.920 . S
O236 C209 1.289 . S
C237 O229 1.258 . S
C237 O230 1.266 . S
Co238 O241 1.970 . S
Co238 N255 1.989 . S
Co238 O263 1.967 . S
Co238 O270 1.920 . S
Co239 O242 1.966 . S
Co239 N248 2.022 . S
Co239 N256 1.993 . S
Co239 O264 1.941 . S
C240 O241 1.258 . S
C240 O242 1.263 . S
O241 Co238 1.970 . S
O241 C240 1.258 . S
O242 Co239 1.966 . S
O242 C240 1.263 . S
C243 O244 1.235 . S
C243 O270 1.289 . S
O244 C243 1.235 . S
C245 C247 1.400 . S
C245 N248 1.351 . S
C245 C250 1.501 . S
C246 C247 1.387 . S
C246 N249 1.341 . S
C247 C245 1.400 . S
C247 C246 1.387 . S
N248 Co239 2.022 . S
N248 C245 1.351 . S
N248 N249 1.365 . S
N249 C246 1.341 . S
N249 N248 1.365 . S
N249 H269 0.862 . S
C250 C245 1.501 . S
C250 H251 0.961 . S
C250 H252 0.961 . S
C250 H253 0.960 . S
H251 C250 0.961 . S
H252 C250 0.961 . S
H253 C250 0.960 . S
C254 N255 1.342 . S
C254 C258 1.401 . S
C254 C259 1.499 . S
N255 Co238 1.989 . S
N255 C254 1.342 . S
N255 N256 1.388 . S
N256 Co239 1.993 . S
N256 N255 1.388 . S
N256 C257 1.346 . S
C257 N256 1.346 . S
C257 C258 1.396 . S
C257 C267 1.510 . S
C258 C254 1.401 . S
C258 C257 1.396 . S
C259 C254 1.499 . S
C259 H260 0.959 . S
C259 H261 0.960 . S
C259 H262 0.961 1_556 S
H260 C259 0.959 . S
H261 C259 0.960 . S
H262 C259 0.961 1_554 S
O263 Co238 1.967 . S
O263 C271 1.258 . S
O264 Co239 1.941 . S
O264 C271 1.266 . S
H265 C267 0.959 . S
H266 C267 0.961 . S
C267 C257 1.510 . S
C267 H265 0.959 . S
C267 H266 0.961 . S
C267 H268 0.960 . S
H268 C267 0.960 . S
H269 N249 0.862 . S
O270 Co238 1.920 . S
O270 C243 1.289 . S
C271 O263 1.258 . S
C271 O264 1.266 . S
Co272 O275 1.970 . S
Co272 N289 1.989 . S
Co272 O297 1.967 . S
Co272 O304 1.920 . S
Co273 O276 1.966 . S
Co273 N282 2.022 . S
Co273 N290 1.993 . S
Co273 O298 1.941 . S
C274 O275 1.258 . S
C274 O276 1.263 . S
O275 Co272 1.970 . S
O275 C274 1.258 . S
O276 Co273 1.966 . S
O276 C274 1.263 . S
C277 O278 1.235 . S
C277 O304 1.289 . S
O278 C277 1.235 . S
C279 C281 1.400 . S
C279 N282 1.351 . S
C279 C284 1.501 . S
C280 C281 1.387 . S
C280 N283 1.341 . S
C281 C279 1.400 . S
C281 C280 1.387 . S
N282 Co273 2.022 . S
N282 C279 1.351 . S
N282 N283 1.365 . S
N283 C280 1.341 . S
N283 N282 1.365 . S
N283 H303 0.862 . S
C284 C279 1.501 . S
C284 H285 0.961 . S
C284 H286 0.961 . S
C284 H287 0.960 . S
H285 C284 0.961 . S
H286 C284 0.961 . S
H287 C284 0.960 . S
C288 N289 1.342 . S
C288 C292 1.401 . S
C288 C293 1.499 . S
N289 Co272 1.989 . S
N289 C288 1.342 . S
N289 N290 1.388 . S
N290 Co273 1.993 . S
N290 N289 1.388 . S
N290 C291 1.346 . S
C291 N290 1.346 . S
C291 C292 1.396 . S
C291 C301 1.510 . S
C292 C288 1.401 . S
C292 C291 1.396 . S
C293 C288 1.499 . S
C293 H294 0.959 . S
C293 H295 0.960 . S
C293 H296 0.961 . S
H294 C293 0.959 . S
H295 C293 0.960 . S
H296 C293 0.961 . S
O297 Co272 1.967 . S
O297 C305 1.258 . S
O298 Co273 1.941 . S
O298 C305 1.266 . S
H299 C301 0.959 . S
H300 C301 0.961 . S
C301 C291 1.510 . S
C301 H299 0.959 . S
C301 H300 0.961 . S
C301 H302 0.960 . S
H302 C301 0.960 . S
H303 N283 0.862 . S
O304 Co272 1.920 . S
O304 C277 1.289 . S
C305 O297 1.258 . S
C305 O298 1.266 . S
Co306 O309 1.970 . S
Co306 N323 1.989 . S
Co306 O331 1.967 . S
Co306 O338 1.920 . S
Co307 O310 1.966 . S
Co307 N316 2.022 . S
Co307 N324 1.993 . S
Co307 O332 1.941 . S
C308 O309 1.258 . S
C308 O310 1.263 . S
O309 Co306 1.970 . S
O309 C308 1.258 . S
O310 Co307 1.966 . S
O310 C308 1.263 . S
C311 O312 1.235 . S
C311 O338 1.289 . S
O312 C311 1.235 . S
C313 C315 1.400 . S
C313 N316 1.351 . S
C313 C318 1.501 . S
C314 C315 1.387 . S
C314 N317 1.341 . S
C315 C313 1.400 . S
C315 C314 1.387 . S
N316 Co307 2.022 . S
N316 C313 1.351 . S
N316 N317 1.365 . S
N317 C314 1.341 . S
N317 N316 1.365 . S
N317 H337 0.862 . S
C318 C313 1.501 . S
C318 H319 0.961 . S
C318 H320 0.961 . S
C318 H321 0.960 . S
H319 C318 0.961 . S
H320 C318 0.961 . S
H321 C318 0.960 . S
C322 N323 1.342 . S
C322 C326 1.401 . S
C322 C327 1.499 . S
N323 Co306 1.989 . S
N323 C322 1.342 . S
N323 N324 1.388 . S
N324 Co307 1.993 . S
N324 N323 1.388 . S
N324 C325 1.346 . S
C325 N324 1.346 . S
C325 C326 1.396 . S
C325 C335 1.510 . S
C326 C322 1.401 . S
C326 C325 1.396 . S
C327 C322 1.499 . S
C327 H328 0.959 . S
C327 H329 0.960 . S
C327 H330 0.961 . S
H328 C327 0.959 . S
H329 C327 0.960 . S
H330 C327 0.961 . S
O331 Co306 1.967 . S
O331 C339 1.258 . S
O332 Co307 1.941 . S
O332 C339 1.266 . S
H333 C335 0.959 . S
H334 C335 0.961 . S
C335 C325 1.510 . S
C335 H333 0.959 . S
C335 H334 0.961 . S
C335 H336 0.960 . S
H336 C335 0.960 . S
H337 N317 0.862 . S
O338 Co306 1.920 . S
O338 C311 1.289 . S
C339 O331 1.258 . S
C339 O332 1.266 . S
Co340 O343 1.970 . S
Co340 N357 1.989 . S
Co340 O365 1.967 . S
Co340 O372 1.920 . S
Co341 O344 1.966 . S
Co341 N350 2.022 . S
Co341 N358 1.993 . S
Co341 O366 1.941 . S
C342 O343 1.258 . S
C342 O344 1.263 . S
O343 Co340 1.970 . S
O343 C342 1.258 . S
O344 Co341 1.966 . S
O344 C342 1.263 . S
C345 O346 1.235 . S
C345 O372 1.289 . S
O346 C345 1.235 . S
C347 C349 1.400 . S
C347 N350 1.351 . S
C347 C352 1.501 . S
C348 C349 1.387 . S
C348 N351 1.341 . S
C349 C347 1.400 . S
C349 C348 1.387 . S
N350 Co341 2.022 . S
N350 C347 1.351 . S
N350 N351 1.365 . S
N351 C348 1.341 . S
N351 N350 1.365 . S
N351 H371 0.862 . S
C352 C347 1.501 . S
C352 H353 0.961 . S
C352 H354 0.961 . S
C352 H355 0.960 . S
H353 C352 0.961 . S
H354 C352 0.961 . S
H355 C352 0.960 . S
C356 N357 1.342 . S
C356 C360 1.401 . S
C356 C361 1.499 . S
N357 Co340 1.989 . S
N357 C356 1.342 . S
N357 N358 1.388 . S
N358 Co341 1.993 . S
N358 N357 1.388 . S
N358 C359 1.346 . S
C359 N358 1.346 . S
C359 C360 1.396 . S
C359 C369 1.510 . S
C360 C356 1.401 . S
C360 C359 1.396 . S
C361 C356 1.499 . S
C361 H362 0.959 . S
C361 H363 0.960 . S
C361 H364 0.961 . S
H362 C361 0.959 . S
H363 C361 0.960 . S
H364 C361 0.961 . S
O365 Co340 1.967 . S
O365 C373 1.258 . S
O366 Co341 1.941 . S
O366 C373 1.266 . S
H367 C369 0.959 . S
H368 C369 0.961 . S
C369 C359 1.510 . S
C369 H367 0.959 . S
C369 H368 0.961 . S
C369 H370 0.960 . S
H370 C369 0.960 . S
H371 N351 0.862 . S
O372 Co340 1.920 . S
O372 C345 1.289 . S
C373 O365 1.258 . S
C373 O366 1.266 . S
Co374 O377 1.970 . S
Co374 N391 1.989 . S
Co374 O399 1.967 . S
Co374 O406 1.920 . S
Co375 O378 1.966 . S
Co375 N384 2.022 . S
Co375 N392 1.993 . S
Co375 O400 1.941 . S
C376 O377 1.258 . S
C376 O378 1.263 . S
O377 Co374 1.970 . S
O377 C376 1.258 . S
O378 Co375 1.966 . S
O378 C376 1.263 . S
C379 O380 1.235 . S
C379 O406 1.289 . S
O380 C379 1.235 . S
C381 C383 1.400 . S
C381 N384 1.351 . S
C381 C386 1.501 . S
C382 C383 1.387 . S
C382 N385 1.341 . S
C383 C381 1.400 . S
C383 C382 1.387 . S
N384 Co375 2.022 . S
N384 C381 1.351 . S
N384 N385 1.365 . S
N385 C382 1.341 . S
N385 N384 1.365 . S
N385 H405 0.862 . S
C386 C381 1.501 . S
C386 H387 0.961 . S
C386 H388 0.961 . S
C386 H389 0.960 . S
H387 C386 0.961 . S
H388 C386 0.961 . S
H389 C386 0.960 . S
C390 N391 1.342 . S
C390 C394 1.401 . S
C390 C395 1.499 . S
N391 Co374 1.989 . S
N391 C390 1.342 . S
N391 N392 1.388 . S
N392 Co375 1.993 . S
N392 N391 1.388 . S
N392 C393 1.346 . S
C393 N392 1.346 . S
C393 C394 1.396 . S
C393 C403 1.510 . S
C394 C390 1.401 . S
C394 C393 1.396 . S
C395 C390 1.499 . S
C395 H396 0.959 . S
C395 H397 0.960 . S
C395 H398 0.961 . S
H396 C395 0.959 . S
H397 C395 0.960 . S
H398 C395 0.961 . S
O399 Co374 1.967 . S
O399 C407 1.258 . S
O400 Co375 1.941 . S
O400 C407 1.266 . S
H401 C403 0.959 . S
H402 C403 0.961 . S
C403 C393 1.510 . S
C403 H401 0.959 . S
C403 H402 0.961 . S
C403 H404 0.960 . S
H404 C403 0.960 . S
H405 N385 0.862 . S
O406 Co374 1.920 . S
O406 C379 1.289 . S
C407 O399 1.258 . S
C407 O400 1.266 . S
Co408 O411 1.970 . S
Co408 N425 1.989 . S
Co408 O433 1.967 . S
Co408 O440 1.920 . S
Co409 O412 1.966 . S
Co409 N418 2.022 . S
Co409 N426 1.993 . S
Co409 O434 1.941 . S
C410 O411 1.258 . S
C410 O412 1.263 . S
O411 Co408 1.970 . S
O411 C410 1.258 . S
O412 Co409 1.966 . S
O412 C410 1.263 . S
C413 O414 1.235 . S
C413 O440 1.289 . S
O414 C413 1.235 . S
C415 C417 1.400 . S
C415 N418 1.351 . S
C415 C420 1.501 . S
C416 C417 1.387 . S
C416 N419 1.341 . S
C417 C415 1.400 . S
C417 C416 1.387 . S
N418 Co409 2.022 . S
N418 C415 1.351 . S
N418 N419 1.365 . S
N419 C416 1.341 . S
N419 N418 1.365 . S
N419 H439 0.862 . S
C420 C415 1.501 . S
C420 H421 0.961 . S
C420 H422 0.961 . S
C420 H423 0.960 . S
H421 C420 0.961 . S
H422 C420 0.961 . S
H423 C420 0.960 . S
C424 N425 1.342 . S
C424 C428 1.401 . S
C424 C429 1.499 . S
N425 Co408 1.989 . S
N425 C424 1.342 . S
N425 N426 1.388 . S
N426 Co409 1.993 . S
N426 N425 1.388 . S
N426 C427 1.346 . S
C427 N426 1.346 . S
C427 C428 1.396 . S
C427 C437 1.510 . S
C428 C424 1.401 . S
C428 C427 1.396 . S
C429 C424 1.499 . S
C429 H430 0.959 . S
C429 H431 0.960 . S
C429 H432 0.961 . S
H430 C429 0.959 . S
H431 C429 0.960 . S
H432 C429 0.961 . S
O433 Co408 1.967 . S
O433 C441 1.258 . S
O434 Co409 1.941 . S
O434 C441 1.266 . S
H435 C437 0.959 . S
H436 C437 0.961 . S
C437 C427 1.510 . S
C437 H435 0.959 . S
C437 H436 0.961 . S
C437 H438 0.960 . S
H438 C437 0.960 . S
H439 N419 0.862 . S
O440 Co408 1.920 . S
O440 C413 1.289 . S
C441 O433 1.258 . S
C441 O434 1.266 . S
Co442 O445 1.970 . S
Co442 N459 1.989 . S
Co442 O467 1.967 . S
Co442 O474 1.920 . S
Co443 O446 1.966 . S
Co443 N452 2.022 . S
Co443 N460 1.993 . S
Co443 O468 1.941 . S
C444 O445 1.258 . S
C444 O446 1.263 . S
O445 Co442 1.970 . S
O445 C444 1.258 . S
O446 Co443 1.966 . S
O446 C444 1.263 . S
C447 O448 1.235 . S
C447 O474 1.289 . S
O448 C447 1.235 . S
C449 C451 1.400 . S
C449 N452 1.351 . S
C449 C454 1.501 . S
C450 C451 1.387 . S
C450 N453 1.341 . S
C451 C449 1.400 . S
C451 C450 1.387 . S
N452 Co443 2.022 . S
N452 C449 1.351 . S
N452 N453 1.365 . S
N453 C450 1.341 . S
N453 N452 1.365 . S
N453 H473 0.862 . S
C454 C449 1.501 . S
C454 H455 0.961 . S
C454 H456 0.961 . S
C454 H457 0.960 . S
H455 C454 0.961 . S
H456 C454 0.961 . S
H457 C454 0.960 . S
C458 N459 1.342 . S
C458 C462 1.401 . S
C458 C463 1.499 . S
N459 Co442 1.989 . S
N459 C458 1.342 . S
N459 N460 1.388 . S
N460 Co443 1.993 . S
N460 N459 1.388 . S
N460 C461 1.346 . S
C461 N460 1.346 . S
C461 C462 1.396 . S
C461 C471 1.510 . S
C462 C458 1.401 . S
C462 C461 1.396 . S
C463 C458 1.499 . S
C463 H464 0.959 . S
C463 H465 0.960 . S
C463 H466 0.961 . S
H464 C463 0.959 . S
H465 C463 0.960 . S
H466 C463 0.961 . S
O467 Co442 1.967 . S
O467 C475 1.258 . S
O468 Co443 1.941 . S
O468 C475 1.266 . S
H469 C471 0.959 . S
H470 C471 0.961 . S
C471 C461 1.510 . S
C471 H469 0.959 . S
C471 H470 0.961 . S
C471 H472 0.960 . S
H472 C471 0.960 . S
H473 N453 0.862 . S
O474 Co442 1.920 . S
O474 C447 1.289 . S
C475 O467 1.258 . S
C475 O468 1.266 . S
Co476 O479 1.970 . S
Co476 N493 1.989 . S
Co476 O501 1.967 . S
Co476 O508 1.920 . S
Co477 O480 1.966 . S
Co477 N486 2.022 . S
Co477 N494 1.993 . S
Co477 O502 1.941 . S
C478 O479 1.258 . S
C478 O480 1.263 . S
O479 Co476 1.970 . S
O479 C478 1.258 . S
O480 Co477 1.966 . S
O480 C478 1.263 . S
C481 O482 1.235 . S
C481 O508 1.289 . S
O482 C481 1.235 . S
C483 C485 1.400 . S
C483 N486 1.351 . S
C483 C488 1.501 . S
C484 C485 1.387 . S
C484 N487 1.341 . S
C485 C483 1.400 . S
C485 C484 1.387 . S
N486 Co477 2.022 . S
N486 C483 1.351 . S
N486 N487 1.365 . S
N487 C484 1.341 . S
N487 N486 1.365 . S
N487 H507 0.862 . S
C488 C483 1.501 . S
C488 H489 0.961 . S
C488 H490 0.961 . S
C488 H491 0.960 . S
H489 C488 0.961 . S
H490 C488 0.961 . S
H491 C488 0.960 . S
C492 N493 1.342 . S
C492 C496 1.401 . S
C492 C497 1.499 . S
N493 Co476 1.989 . S
N493 C492 1.342 . S
N493 N494 1.388 . S
N494 Co477 1.993 . S
N494 N493 1.388 . S
N494 C495 1.346 . S
C495 N494 1.346 . S
C495 C496 1.396 . S
C495 C505 1.510 . S
C496 C492 1.401 . S
C496 C495 1.396 . S
C497 C492 1.499 . S
C497 H498 0.959 . S
C497 H499 0.960 . S
C497 H500 0.961 . S
H498 C497 0.959 . S
H499 C497 0.960 . S
H500 C497 0.961 . S
O501 Co476 1.967 . S
O501 C509 1.258 . S
O502 Co477 1.941 . S
O502 C509 1.266 . S
H503 C505 0.959 . S
H504 C505 0.961 . S
C505 C495 1.510 . S
C505 H503 0.959 . S
C505 H504 0.961 . S
C505 H506 0.960 . S
H506 C505 0.960 . S
H507 N487 0.862 . S
O508 Co476 1.920 . S
O508 C481 1.289 . S
C509 O501 1.258 . S
C509 O502 1.266 . S
Co510 O513 1.970 . S
Co510 N527 1.989 . S
Co510 O535 1.967 . S
Co510 O542 1.920 . S
Co511 O514 1.966 . S
Co511 N520 2.022 . S
Co511 N528 1.993 . S
Co511 O536 1.941 . S
C512 O513 1.258 . S
C512 O514 1.263 . S
O513 Co510 1.970 . S
O513 C512 1.258 . S
O514 Co511 1.966 . S
O514 C512 1.263 . S
C515 O516 1.235 . S
C515 O542 1.289 . S
O516 C515 1.235 . S
C517 C519 1.400 . S
C517 N520 1.351 . S
C517 C522 1.501 . S
C518 C519 1.387 . S
C518 N521 1.341 . S
C519 C517 1.400 . S
C519 C518 1.387 . S
N520 Co511 2.022 . S
N520 C517 1.351 . S
N520 N521 1.365 . S
N521 C518 1.341 . S
N521 N520 1.365 . S
N521 H541 0.862 . S
C522 C517 1.501 . S
C522 H523 0.961 . S
C522 H524 0.961 . S
C522 H525 0.960 . S
H523 C522 0.961 . S
H524 C522 0.961 . S
H525 C522 0.960 . S
C526 N527 1.342 . S
C526 C530 1.401 . S
C526 C531 1.499 . S
N527 Co510 1.989 . S
N527 C526 1.342 . S
N527 N528 1.388 . S
N528 Co511 1.993 . S
N528 N527 1.388 . S
N528 C529 1.346 . S
C529 N528 1.346 . S
C529 C530 1.396 . S
C529 C539 1.510 . S
C530 C526 1.401 . S
C530 C529 1.396 . S
C531 C526 1.499 . S
C531 H532 0.959 . S
C531 H533 0.960 . S
C531 H534 0.961 . S
H532 C531 0.959 . S
H533 C531 0.960 . S
H534 C531 0.961 . S
O535 Co510 1.967 . S
O535 C543 1.258 . S
O536 Co511 1.941 . S
O536 C543 1.266 . S
H537 C539 0.959 . S
H538 C539 0.961 . S
C539 C529 1.510 . S
C539 H537 0.959 . S
C539 H538 0.961 . S
C539 H540 0.960 . S
H540 C539 0.960 . S
H541 N521 0.862 . S
O542 Co510 1.920 . S
O542 C515 1.289 . S
C543 O535 1.258 . S
C543 O536 1.266 . S
H544 C550 0.930 . S
H545 C554 0.930 . S
H546 C559 0.929 . S
H547 C557 0.929 . S
H548 C552 0.929 . S
H549 C558 0.929 . S
C550 H544 0.930 . S
C550 C551 1.367 . S
C550 C558 1.378 . S
C551 C550 1.367 . S
C551 C559 1.433 . S
C552 H548 0.929 . S
C552 C554 1.378 . S
C552 C556 1.350 . S
C553 C556 1.463 . S
C553 C558 1.350 . S
C553 N561 1.427 . S
C554 H545 0.930 . S
C554 C552 1.378 . S
C554 C555 1.367 . S
C555 C554 1.367 . S
C555 C557 1.433 . S
C556 C552 1.350 . S
C556 C553 1.463 . S
C556 N560 1.427 . S
C557 H547 0.929 . S
C557 C555 1.433 . S
C557 N560 1.384 . S
C558 H549 0.929 . S
C558 C550 1.378 . S
C558 C553 1.350 . S
C559 H546 0.929 . S
C559 C551 1.433 . S
C559 N561 1.384 . S
N560 C556 1.427 . S
N560 C557 1.384 . S
N561 C553 1.427 . S
N561 C559 1.384 . S
H562 C568 0.930 . S
H563 C572 0.930 . S
H564 C577 0.929 . S
H565 C575 0.929 . S
H566 C570 0.929 . S
H567 C576 0.929 . S
C568 H562 0.930 . S
C568 C569 1.367 . S
C568 C576 1.378 . S
C569 C568 1.367 . S
C569 C577 1.433 . S
C570 H566 0.929 . S
C570 C572 1.378 . S
C570 C574 1.350 . S
C571 C574 1.463 . S
C571 C576 1.350 . S
C571 N579 1.427 . S
C572 H563 0.930 . S
C572 C570 1.378 . S
C572 C573 1.367 . S
C573 C572 1.367 . S
C573 C575 1.433 . S
C574 C570 1.350 . S
C574 C571 1.463 . S
C574 N578 1.427 . S
C575 H565 0.929 . S
C575 C573 1.433 . S
C575 N578 1.384 . S
C576 H567 0.929 . S
C576 C568 1.378 . S
C576 C571 1.350 . S
C577 H564 0.929 . S
C577 C569 1.433 . S
C577 N579 1.384 . S
N578 C574 1.427 . S
N578 C575 1.384 . S
N579 C571 1.427 . S
N579 C577 1.384 . S
H580 C586 0.930 . S
H581 C590 0.930 . S
H582 C595 0.929 . S
H583 C593 0.929 . S
H584 C588 0.929 . S
H585 C594 0.929 . S
C586 H580 0.930 . S
C586 C587 1.367 . S
C586 C594 1.378 . S
C587 C586 1.367 . S
C587 C595 1.433 . S
C588 H584 0.929 . S
C588 C590 1.378 . S
C588 C592 1.350 . S
C589 C592 1.463 . S
C589 C594 1.350 . S
C589 N597 1.427 . S
C590 H581 0.930 . S
C590 C588 1.378 . S
C590 C591 1.367 . S
C591 C590 1.367 . S
C591 C593 1.433 . S
C592 C588 1.350 . S
C592 C589 1.463 . S
C592 N596 1.427 . S
C593 H583 0.929 . S
C593 C591 1.433 . S
C593 N596 1.384 . S
C594 H585 0.929 . S
C594 C586 1.378 . S
C594 C589 1.350 . S
C595 H582 0.929 . S
C595 C587 1.433 . S
C595 N597 1.384 . S
N596 C592 1.427 . S
N596 C593 1.384 . S
N597 C589 1.427 . S
N597 C595 1.384 . S
H598 C604 0.930 . S
H599 C608 0.930 . S
H600 C613 0.929 . S
H601 C611 0.929 . S
H602 C606 0.929 . S
H603 C612 0.929 . S
C604 H598 0.930 . S
C604 C605 1.367 . S
C604 C612 1.378 . S
C605 C604 1.367 . S
C605 C613 1.433 . S
C606 H602 0.929 . S
C606 C608 1.378 . S
C606 C610 1.350 . S
C607 C610 1.463 . S
C607 C612 1.350 . S
C607 N615 1.427 . S
C608 H599 0.930 . S
C608 C606 1.378 . S
C608 C609 1.367 . S
C609 C608 1.367 . S
C609 C611 1.433 . S
C610 C606 1.350 . S
C610 C607 1.463 . S
C610 N614 1.427 . S
C611 H601 0.929 . S
C611 C609 1.433 . S
C611 N614 1.384 . S
C612 H603 0.929 . S
C612 C604 1.378 . S
C612 C607 1.350 . S
C613 H600 0.929 . S
C613 C605 1.433 . S
C613 N615 1.384 . S
N614 C610 1.427 . S
N614 C611 1.384 . S
N615 C607 1.427 . S
N615 C613 1.384 . S
H616 C622 0.930 . S
H617 C626 0.930 . S
H618 C631 0.929 . S
H619 C629 0.929 . S
H620 C624 0.929 . S
H621 C630 0.929 . S
C622 H616 0.930 . S
C622 C623 1.367 . S
C622 C630 1.378 . S
C623 C622 1.367 . S
C623 C631 1.433 . S
C624 H620 0.929 . S
C624 C626 1.378 . S
C624 C628 1.350 . S
C625 C628 1.463 . S
C625 C630 1.350 . S
C625 N633 1.427 . S
C626 H617 0.930 . S
C626 C624 1.378 . S
C626 C627 1.367 . S
C627 C626 1.367 . S
C627 C629 1.433 . S
C628 C624 1.350 . S
C628 C625 1.463 . S
C628 N632 1.427 . S
C629 H619 0.929 . S
C629 C627 1.433 . S
C629 N632 1.384 . S
C630 H621 0.929 . S
C630 C622 1.378 . S
C630 C625 1.350 . S
C631 H618 0.929 . S
C631 C623 1.433 . S
C631 N633 1.384 . S
N632 C628 1.427 . S
N632 C629 1.384 . S
N633 C625 1.427 . S
N633 C631 1.384 . S
H634 C640 0.930 . S
H635 C644 0.930 . S
H636 C649 0.929 . S
H637 C647 0.929 . S
H638 C642 0.929 . S
H639 C648 0.929 . S
C640 H634 0.930 . S
C640 C641 1.367 . S
C640 C648 1.378 . S
C641 C640 1.367 . S
C641 C649 1.433 . S
C642 H638 0.929 . S
C642 C644 1.378 . S
C642 C646 1.350 . S
C643 C646 1.463 . S
C643 C648 1.350 . S
C643 N651 1.427 . S
C644 H635 0.930 . S
C644 C642 1.378 . S
C644 C645 1.367 . S
C645 C644 1.367 . S
C645 C647 1.433 . S
C646 C642 1.350 . S
C646 C643 1.463 . S
C646 N650 1.427 . S
C647 H637 0.929 . S
C647 C645 1.433 . S
C647 N650 1.384 . S
C648 H639 0.929 . S
C648 C640 1.378 . S
C648 C643 1.350 . S
C649 H636 0.929 . S
C649 C641 1.433 . S
C649 N651 1.384 . S
N650 C646 1.427 . S
N650 C647 1.384 . S
N651 C643 1.427 . S
N651 C649 1.384 . S
H652 C658 0.930 . S
H653 C662 0.930 . S
H654 C667 0.929 . S
H655 C665 0.929 . S
H656 C660 0.929 . S
H657 C666 0.929 . S
C658 H652 0.930 . S
C658 C659 1.367 . S
C658 C666 1.378 . S
C659 C658 1.367 . S
C659 C667 1.433 . S
C660 H656 0.929 . S
C660 C662 1.378 . S
C660 C664 1.350 . S
C661 C664 1.463 . S
C661 C666 1.350 . S
C661 N669 1.427 . S
C662 H653 0.930 . S
C662 C660 1.378 . S
C662 C663 1.367 . S
C663 C662 1.367 . S
C663 C665 1.433 . S
C664 C660 1.350 . S
C664 C661 1.463 . S
C664 N668 1.427 . S
C665 H655 0.929 . S
C665 C663 1.433 . S
C665 N668 1.384 . S
C666 H657 0.929 . S
C666 C658 1.378 . S
C666 C661 1.350 . S
C667 H654 0.929 . S
C667 C659 1.433 . S
C667 N669 1.384 . S
N668 C664 1.427 . S
N668 C665 1.384 . S
N669 C661 1.427 . S
N669 C667 1.384 . S
H670 C676 0.930 . S
H671 C680 0.930 . S
H672 C685 0.929 . S
H673 C683 0.929 . S
H674 C678 0.929 . S
H675 C684 0.929 . S
C676 H670 0.930 . S
C676 C677 1.367 . S
C676 C684 1.378 . S
C677 C676 1.367 . S
C677 C685 1.433 . S
C678 H674 0.929 . S
C678 C680 1.378 . S
C678 C682 1.350 . S
C679 C682 1.463 . S
C679 C684 1.350 . S
C679 N687 1.427 . S
C680 H671 0.930 . S
C680 C678 1.378 . S
C680 C681 1.367 . S
C681 C680 1.367 . S
C681 C683 1.433 . S
C682 C678 1.350 . S
C682 C679 1.463 . S
C682 N686 1.427 . S
C683 H673 0.929 . S
C683 C681 1.433 . S
C683 N686 1.384 . S
C684 H675 0.929 . S
C684 C676 1.378 . S
C684 C679 1.350 . S
C685 H672 0.929 . S
C685 C677 1.433 . S
C685 N687 1.384 . S
N686 C682 1.427 . S
N686 C683 1.384 . S
N687 C679 1.427 . S
N687 C685 1.384 . S
H688 C694 0.930 . S
H689 C698 0.930 . S
H690 C703 0.929 . S
H691 C701 0.929 . S
H692 C696 0.929 . S
H693 C702 0.929 . S
C694 H688 0.930 . S
C694 C695 1.367 . S
C694 C702 1.378 . S
C695 C694 1.367 . S
C695 C703 1.433 . S
C696 H692 0.929 . S
C696 C698 1.378 . S
C696 C700 1.350 . S
C697 C700 1.463 . S
C697 C702 1.350 . S
C697 N705 1.427 . S
C698 H689 0.930 . S
C698 C696 1.378 . S
C698 C699 1.367 . S
C699 C698 1.367 . S
C699 C701 1.433 . S
C700 C696 1.350 . S
C700 C697 1.463 . S
C700 N704 1.427 . S
C701 H691 0.929 . S
C701 C699 1.433 . S
C701 N704 1.384 . S
C702 H693 0.929 . S
C702 C694 1.378 . S
C702 C697 1.350 . S
C703 H690 0.929 . S
C703 C695 1.433 . S
C703 N705 1.384 . S
N704 C700 1.427 . S
N704 C701 1.384 . S
N705 C697 1.427 . S
N705 C703 1.384 . S
H706 C712 0.930 . S
H707 C716 0.930 . S
H708 C721 0.929 . S
H709 C719 0.929 . S
H710 C714 0.929 . S
H711 C720 0.929 . S
C712 H706 0.930 . S
C712 C713 1.367 . S
C712 C720 1.378 . S
C713 C712 1.367 . S
C713 C721 1.433 . S
C714 H710 0.929 . S
C714 C716 1.378 . S
C714 C718 1.350 . S
C715 C718 1.463 . S
C715 C720 1.350 . S
C715 N723 1.427 . S
C716 H707 0.930 . S
C716 C714 1.378 . S
C716 C717 1.367 . S
C717 C716 1.367 . S
C717 C719 1.433 . S
C718 C714 1.350 . S
C718 C715 1.463 . S
C718 N722 1.427 . S
C719 H709 0.929 . S
C719 C717 1.433 . S
C719 N722 1.384 . S
C720 H711 0.929 . S
C720 C712 1.378 . S
C720 C715 1.350 . S
C721 H708 0.929 . S
C721 C713 1.433 . S
C721 N723 1.384 . S
N722 C718 1.427 . S
N722 C719 1.384 . S
N723 C715 1.427 . S
N723 C721 1.384 . S
H724 C730 0.930 . S
H725 C734 0.930 . S
H726 C739 0.929 . S
H727 C737 0.929 . S
H728 C732 0.929 . S
H729 C738 0.929 . S
C730 H724 0.930 . S
C730 C731 1.367 . S
C730 C738 1.378 . S
C731 C730 1.367 . S
C731 C739 1.433 . S
C732 H728 0.929 . S
C732 C734 1.378 . S
C732 C736 1.350 . S
C733 C736 1.463 . S
C733 C738 1.350 . S
C733 N741 1.427 . S
C734 H725 0.930 . S
C734 C732 1.378 . S
C734 C735 1.367 . S
C735 C734 1.367 . S
C735 C737 1.433 . S
C736 C732 1.350 . S
C736 C733 1.463 . S
C736 N740 1.427 . S
C737 H727 0.929 . S
C737 C735 1.433 . S
C737 N740 1.384 . S
C738 H729 0.929 . S
C738 C730 1.378 . S
C738 C733 1.350 . S
C739 H726 0.929 . S
C739 C731 1.433 . S
C739 N741 1.384 . S
N740 C736 1.427 . S
N740 C737 1.384 . S
N741 C733 1.427 . S
N741 C739 1.384 . S
H742 C748 0.930 . S
H743 C752 0.930 . S
H744 C757 0.929 . S
H745 C755 0.929 . S
H746 C750 0.929 . S
H747 C756 0.929 . S
C748 H742 0.930 . S
C748 C749 1.367 . S
C748 C756 1.378 . S
C749 C748 1.367 . S
C749 C757 1.433 . S
C750 H746 0.929 . S
C750 C752 1.378 . S
C750 C754 1.350 . S
C751 C754 1.463 . S
C751 C756 1.350 . S
C751 N759 1.427 . S
C752 H743 0.930 . S
C752 C750 1.378 . S
C752 C753 1.367 . S
C753 C752 1.367 . S
C753 C755 1.433 . S
C754 C750 1.350 . S
C754 C751 1.463 . S
C754 N758 1.427 . S
C755 H745 0.929 . S
C755 C753 1.433 . S
C755 N758 1.384 . S
C756 H747 0.929 . S
C756 C748 1.378 . S
C756 C751 1.350 . S
C757 H744 0.929 . S
C757 C749 1.433 . S
C757 N759 1.384 . S
N758 C754 1.427 . S
N758 C755 1.384 . S
N759 C751 1.427 . S
N759 C757 1.384 . S
H760 C766 0.930 . S
H761 C770 0.930 . S
H762 C775 0.929 . S
H763 C773 0.929 . S
H764 C768 0.929 . S
H765 C774 0.929 . S
C766 H760 0.930 . S
C766 C767 1.367 . S
C766 C774 1.378 . S
C767 C766 1.367 . S
C767 C775 1.433 . S
C768 H764 0.929 . S
C768 C770 1.378 . S
C768 C772 1.350 . S
C769 C772 1.463 . S
C769 C774 1.350 . S
C769 N777 1.427 . S
C770 H761 0.930 . S
C770 C768 1.378 . S
C770 C771 1.367 . S
C771 C770 1.367 . S
C771 C773 1.433 . S
C772 C768 1.350 . S
C772 C769 1.463 . S
C772 N776 1.427 . S
C773 H763 0.929 . S
C773 C771 1.433 . S
C773 N776 1.384 . S
C774 H765 0.929 . S
C774 C766 1.378 . S
C774 C769 1.350 . S
C775 H762 0.929 . S
C775 C767 1.433 . S
C775 N777 1.384 . S
N776 C772 1.427 . S
N776 C773 1.384 . S
N777 C769 1.427 . S
N777 C775 1.384 . S
H778 C784 0.930 . S
H779 C788 0.930 . S
H780 C793 0.929 . S
H781 C791 0.929 . S
H782 C786 0.929 . S
H783 C792 0.929 . S
C784 H778 0.930 . S
C784 C785 1.367 . S
C784 C792 1.378 . S
C785 C784 1.367 . S
C785 C793 1.433 . S
C786 H782 0.929 . S
C786 C788 1.378 . S
C786 C790 1.350 . S
C787 C790 1.463 . S
C787 C792 1.350 . S
C787 N795 1.427 . S
C788 H779 0.930 . S
C788 C786 1.378 . S
C788 C789 1.367 . S
C789 C788 1.367 . S
C789 C791 1.433 . S
C790 C786 1.350 . S
C790 C787 1.463 . S
C790 N794 1.427 . S
C791 H781 0.929 . S
C791 C789 1.433 . S
C791 N794 1.384 . S
C792 H783 0.929 . S
C792 C784 1.378 . S
C792 C787 1.350 . S
C793 H780 0.929 . S
C793 C785 1.433 . S
C793 N795 1.384 . S
N794 C790 1.427 . S
N794 C791 1.384 . S
N795 C787 1.427 . S
N795 C793 1.384 . S
H796 C802 0.930 . S
H797 C806 0.930 . S
H798 C811 0.929 . S
H799 C809 0.929 . S
H800 C804 0.929 . S
H801 C810 0.929 . S
C802 H796 0.930 . S
C802 C803 1.367 . S
C802 C810 1.378 . S
C803 C802 1.367 . S
C803 C811 1.433 . S
C804 H800 0.929 . S
C804 C806 1.378 . S
C804 C808 1.350 . S
C805 C808 1.463 . S
C805 C810 1.350 . S
C805 N813 1.427 . S
C806 H797 0.930 . S
C806 C804 1.378 . S
C806 C807 1.367 . S
C807 C806 1.367 . S
C807 C809 1.433 . S
C808 C804 1.350 . S
C808 C805 1.463 . S
C808 N812 1.427 . S
C809 H799 0.929 . S
C809 C807 1.433 . S
C809 N812 1.384 . S
C810 H801 0.929 . S
C810 C802 1.378 . S
C810 C805 1.350 . S
C811 H798 0.929 . S
C811 C803 1.433 . S
C811 N813 1.384 . S
N812 C808 1.427 . S
N812 C809 1.384 . S
N813 C805 1.427 . S
N813 C811 1.384 . S
H814 C820 0.930 . S
H815 C824 0.930 . S
H816 C829 0.929 . S
H817 C827 0.929 . S
H818 C822 0.929 . S
H819 C828 0.929 . S
C820 H814 0.930 . S
C820 C821 1.367 . S
C820 C828 1.378 . S
C821 C820 1.367 . S
C821 C829 1.433 . S
C822 H818 0.929 . S
C822 C824 1.378 . S
C822 C826 1.350 . S
C823 C826 1.463 . S
C823 C828 1.350 . S
C823 N831 1.427 . S
C824 H815 0.930 . S
C824 C822 1.378 . S
C824 C825 1.367 . S
C825 C824 1.367 . S
C825 C827 1.433 . S
C826 C822 1.350 . S
C826 C823 1.463 . S
C826 N830 1.427 . S
C827 H817 0.929 . S
C827 C825 1.433 . S
C827 N830 1.384 . S
C828 H819 0.929 . S
C828 C820 1.378 . S
C828 C823 1.350 . S
C829 H816 0.929 . S
C829 C821 1.433 . S
C829 N831 1.384 . S
N830 C826 1.427 . S
N830 C827 1.384 . S
N831 C823 1.427 . S
N831 C829 1.384 . S
H832 C838 0.930 1_554 S
H833 C842 0.930 . S
H834 C847 0.929 . S
H835 C845 0.929 . S
H836 C840 0.929 . S
H837 C846 0.929 . S
C838 H832 0.930 1_556 S
C838 C839 1.367 . S
C838 C846 1.378 . S
C839 C838 1.367 . S
C839 C847 1.433 . S
C840 H836 0.929 . S
C840 C842 1.378 . S
C840 C844 1.350 . S
C841 C844 1.463 . S
C841 C846 1.350 . S
C841 N849 1.427 . S
C842 H833 0.930 . S
C842 C840 1.378 . S
C842 C843 1.367 . S
C843 C842 1.367 . S
C843 C845 1.433 . S
C844 C840 1.350 . S
C844 C841 1.463 . S
C844 N848 1.427 . S
C845 H835 0.929 . S
C845 C843 1.433 . S
C845 N848 1.384 . S
C846 H837 0.929 . S
C846 C838 1.378 . S
C846 C841 1.350 . S
C847 H834 0.929 . S
C847 C839 1.433 . S
C847 N849 1.384 . S
N848 C844 1.427 . S
N848 C845 1.384 . S
N849 C841 1.427 . S
N849 C847 1.384 . S
H850 C856 0.930 . S
H851 C860 0.930 . S
H852 C865 0.929 . S
H853 C863 0.929 . S
H854 C858 0.929 . S
H855 C864 0.929 . S
C856 H850 0.930 . S
C856 C857 1.367 . S
C856 C864 1.378 . S
C857 C856 1.367 . S
C857 C865 1.433 . S
C858 H854 0.929 . S
C858 C860 1.378 1_554 S
C858 C862 1.350 . S
C859 C862 1.463 . S
C859 C864 1.350 . S
C859 N867 1.427 . S
C860 H851 0.930 . S
C860 C858 1.378 1_556 S
C860 C861 1.367 1_556 S
C861 C860 1.367 1_554 S
C861 C863 1.433 . S
C862 C858 1.350 . S
C862 C859 1.463 . S
C862 N866 1.427 . S
C863 H853 0.929 . S
C863 C861 1.433 . S
C863 N866 1.384 . S
C864 H855 0.929 . S
C864 C856 1.378 . S
C864 C859 1.350 . S
C865 H852 0.929 . S
C865 C857 1.433 . S
C865 N867 1.384 . S
N866 C862 1.427 . S
N866 C863 1.384 . S
N867 C859 1.427 . S
N867 C865 1.384 . S
H868 C874 0.930 . S
H869 C878 0.930 . S
H870 C883 0.929 . S
H871 C881 0.929 . S
H872 C876 0.929 . S
H873 C882 0.929 . S
C874 H868 0.930 . S
C874 C875 1.367 1_554 S
C874 C882 1.378 1_554 S
C875 C874 1.367 1_556 S
C875 C883 1.433 . S
C876 H872 0.929 . S
C876 C878 1.378 . S
C876 C880 1.350 . S
C877 C880 1.463 . S
C877 C882 1.350 . S
C877 N885 1.427 . S
C878 H869 0.930 . S
C878 C876 1.378 . S
C878 C879 1.367 . S
C879 C878 1.367 . S
C879 C881 1.433 . S
C880 C876 1.350 . S
C880 C877 1.463 . S
C880 N884 1.427 . S
C881 H871 0.929 . S
C881 C879 1.433 . S
C881 N884 1.384 . S
C882 H873 0.929 . S
C882 C874 1.378 1_556 S
C882 C877 1.350 . S
C883 H870 0.929 . S
C883 C875 1.433 . S
C883 N885 1.384 . S
N884 C880 1.427 . S
N884 C881 1.384 . S
N885 C877 1.427 . S
N885 C883 1.384 . S
H886 C892 0.930 . S
H887 C896 0.930 . S
H888 C901 0.929 . S
H889 C899 0.929 . S
H890 C894 0.929 . S
H891 C900 0.929 . S
C892 H886 0.930 . S
C892 C893 1.367 . S
C892 C900 1.378 . S
C893 C892 1.367 . S
C893 C901 1.433 . S
C894 H890 0.929 . S
C894 C896 1.378 1_554 S
C894 C898 1.350 . S
C895 C898 1.463 . S
C895 C900 1.350 . S
C895 N903 1.427 . S
C896 H887 0.930 . S
C896 C894 1.378 1_556 S
C896 C897 1.367 1_556 S
C897 C896 1.367 1_554 S
C897 C899 1.433 . S
C898 C894 1.350 . S
C898 C895 1.463 . S
C898 N902 1.427 . S
C899 H889 0.929 . S
C899 C897 1.433 . S
C899 N902 1.384 . S
C900 H891 0.929 . S
C900 C892 1.378 . S
C900 C895 1.350 . S
C901 H888 0.929 . S
C901 C893 1.433 . S
C901 N903 1.384 . S
N902 C898 1.427 . S
N902 C899 1.384 . S
N903 C895 1.427 . S
N903 C901 1.384 . S
H904 C910 0.930 . S
H905 C914 0.930 . S
H906 C919 0.929 . S
H907 C917 0.929 . S
H908 C912 0.929 . S
H909 C918 0.929 . S
C910 H904 0.930 . S
C910 C911 1.367 . S
C910 C918 1.378 . S
C911 C910 1.367 . S
C911 C919 1.433 . S
C912 H908 0.929 . S
C912 C914 1.378 . S
C912 C916 1.350 . S
C913 C916 1.463 . S
C913 C918 1.350 . S
C913 N921 1.427 . S
C914 H905 0.930 . S
C914 C912 1.378 . S
C914 C915 1.367 . S
C915 C914 1.367 . S
C915 C917 1.433 . S
C916 C912 1.350 . S
C916 C913 1.463 . S
C916 N920 1.427 . S
C917 H907 0.929 . S
C917 C915 1.433 . S
C917 N920 1.384 . S
C918 H909 0.929 . S
C918 C910 1.378 . S
C918 C913 1.350 . S
C919 H906 0.929 . S
C919 C911 1.433 . S
C919 N921 1.384 . S
N920 C916 1.427 . S
N920 C917 1.384 . S
N921 C913 1.427 . S
N921 C919 1.384 . S
H922 C928 0.930 . S
H923 C932 0.930 . S
H924 C937 0.929 . S
H925 C935 0.929 . S
H926 C930 0.929 . S
H927 C936 0.929 . S
C928 H922 0.930 . S
C928 C929 1.367 . S
C928 C936 1.378 . S
C929 C928 1.367 . S
C929 C937 1.433 . S
C930 H926 0.929 . S
C930 C932 1.378 . S
C930 C934 1.350 . S
C931 C934 1.463 . S
C931 C936 1.350 . S
C931 N939 1.427 . S
C932 H923 0.930 . S
C932 C930 1.378 . S
C932 C933 1.367 . S
C933 C932 1.367 . S
C933 C935 1.433 . S
C934 C930 1.350 . S
C934 C931 1.463 . S
C934 N938 1.427 . S
C935 H925 0.929 . S
C935 C933 1.433 . S
C935 N938 1.384 . S
C936 H927 0.929 . S
C936 C928 1.378 . S
C936 C931 1.350 . S
C937 H924 0.929 . S
C937 C929 1.433 . S
C937 N939 1.384 . S
N938 C934 1.427 . S
N938 C935 1.384 . S
N939 C931 1.427 . S
N939 C937 1.384 . S
H940 C946 0.930 . S
H941 C950 0.930 . S
H942 C955 0.929 . S
H943 C953 0.929 . S
H944 C948 0.929 . S
H945 C954 0.929 . S
C946 H940 0.930 . S
C946 C947 1.367 . S
C946 C954 1.378 . S
C947 C946 1.367 . S
C947 C955 1.433 . S
C948 H944 0.929 . S
C948 C950 1.378 . S
C948 C952 1.350 . S
C949 C952 1.463 . S
C949 C954 1.350 . S
C949 N957 1.427 . S
C950 H941 0.930 . S
C950 C948 1.378 . S
C950 C951 1.367 . S
C951 C950 1.367 . S
C951 C953 1.433 . S
C952 C948 1.350 . S
C952 C949 1.463 . S
C952 N956 1.427 . S
C953 H943 0.929 . S
C953 C951 1.433 . S
C953 N956 1.384 . S
C954 H945 0.929 . S
C954 C946 1.378 . S
C954 C949 1.350 . S
C955 H942 0.929 . S
C955 C947 1.433 . S
C955 N957 1.384 . S
N956 C952 1.427 . S
N956 C953 1.384 . S
N957 C949 1.427 . S
N957 C955 1.384 . S
H958 C964 0.930 . S
H959 C968 0.930 . S
H960 C973 0.929 . S
H961 C971 0.929 . S
H962 C966 0.929 . S
H963 C972 0.929 . S
C964 H958 0.930 . S
C964 C965 1.367 . S
C964 C972 1.378 . S
C965 C964 1.367 . S
C965 C973 1.433 . S
C966 H962 0.929 . S
C966 C968 1.378 . S
C966 C970 1.350 . S
C967 C970 1.463 . S
C967 C972 1.350 . S
C967 N975 1.427 . S
C968 H959 0.930 . S
C968 C966 1.378 . S
C968 C969 1.367 . S
C969 C968 1.367 . S
C969 C971 1.433 . S
C970 C966 1.350 . S
C970 C967 1.463 . S
C970 N974 1.427 . S
C971 H961 0.929 . S
C971 C969 1.433 . S
C971 N974 1.384 . S
C972 H963 0.929 . S
C972 C964 1.378 . S
C972 C967 1.350 . S
C973 H960 0.929 . S
C973 C965 1.433 . S
C973 N975 1.384 . S
N974 C970 1.427 . S
N974 C971 1.384 . S
N975 C967 1.427 . S
N975 C973 1.384 . S
H976 C982 0.930 1_545 S
H977 C986 0.930 . S
H978 C991 0.929 1_545 S
H979 C989 0.929 . S
H980 C984 0.929 . S
H981 C990 0.929 . S
C982 H976 0.930 1_565 S
C982 C983 1.367 1_565 S
C982 C990 1.378 . S
C983 C982 1.367 1_545 S
C983 C991 1.433 1_545 S
C984 H980 0.929 . S
C984 C986 1.378 . S
C984 C988 1.350 . S
C985 C988 1.463 . S
C985 C990 1.350 . S
C985 N993 1.427 . S
C986 H977 0.930 . S
C986 C984 1.378 . S
C986 C987 1.367 . S
C987 C986 1.367 . S
C987 C989 1.433 . S
C988 C984 1.350 . S
C988 C985 1.463 . S
C988 N992 1.427 . S
C989 H979 0.929 . S
C989 C987 1.433 . S
C989 N992 1.384 . S
C990 H981 0.929 . S
C990 C982 1.378 . S
C990 C985 1.350 . S
C991 H978 0.929 1_565 S
C991 C983 1.433 1_565 S
C991 N993 1.384 . S
N992 C988 1.427 . S
N992 C989 1.384 . S
N993 C985 1.427 . S
N993 C991 1.384 . S
H994 C1000 0.930 . S
H995 C1004 0.930 . S
H996 C1009 0.929 . S
H997 C1007 0.929 . S
H998 C1002 0.929 . S
H999 C1008 0.929 . S
C1000 H994 0.930 . S
C1000 C1001 1.367 . S
C1000 C1008 1.378 . S
C1001 C1000 1.367 . S
C1001 C1009 1.433 . S
C1002 H998 0.929 . S
C1002 C1004 1.378 1_655 S
C1002 C1006 1.350 . S
C1003 C1006 1.463 . S
C1003 C1008 1.350 . S
C1003 N1011 1.427 . S
C1004 H995 0.930 . S
C1004 C1002 1.378 1_455 S
C1004 C1005 1.367 . S
C1005 C1004 1.367 . S
C1005 C1007 1.433 1_455 S
C1006 C1002 1.350 . S
C1006 C1003 1.463 . S
C1006 N1010 1.427 . S
C1007 H997 0.929 . S
C1007 C1005 1.433 1_655 S
C1007 N1010 1.384 . S
C1008 H999 0.929 . S
C1008 C1000 1.378 . S
C1008 C1003 1.350 . S
C1009 H996 0.929 . S
C1009 C1001 1.433 . S
C1009 N1011 1.384 . S
N1010 C1006 1.427 . S
N1010 C1007 1.384 . S
N1011 C1003 1.427 . S
N1011 C1009 1.384 . S
H1012 C1018 0.930 . S
H1013 C1022 0.930 . S
H1014 C1027 0.929 . S
H1015 C1025 0.929 . S
H1016 C1020 0.929 . S
H1017 C1026 0.929 . S
C1018 H1012 0.930 . S
C1018 C1019 1.367 . S
C1018 C1026 1.378 1_565 S
C1019 C1018 1.367 . S
C1019 C1027 1.433 1_565 S
C1020 H1016 0.929 . S
C1020 C1022 1.378 . S
C1020 C1024 1.350 . S
C1021 C1024 1.463 . S
C1021 C1026 1.350 . S
C1021 N1029 1.427 . S
C1022 H1013 0.930 . S
C1022 C1020 1.378 . S
C1022 C1023 1.367 . S
C1023 C1022 1.367 . S
C1023 C1025 1.433 . S
C1024 C1020 1.350 . S
C1024 C1021 1.463 . S
C1024 N1028 1.427 . S
C1025 H1015 0.929 . S
C1025 C1023 1.433 . S
C1025 N1028 1.384 . S
C1026 H1017 0.929 . S
C1026 C1018 1.378 1_545 S
C1026 C1021 1.350 . S
C1027 H1014 0.929 . S
C1027 C1019 1.433 1_545 S
C1027 N1029 1.384 . S
N1028 C1024 1.427 . S
N1028 C1025 1.384 . S
N1029 C1021 1.427 . S
N1029 C1027 1.384 . S
H1030 C1036 0.930 . S
H1031 C1040 0.930 . S
H1032 C1045 0.929 . S
H1033 C1043 0.929 . S
H1034 C1038 0.929 . S
H1035 C1044 0.929 . S
C1036 H1030 0.930 . S
C1036 C1037 1.367 . S
C1036 C1044 1.378 . S
C1037 C1036 1.367 . S
C1037 C1045 1.433 . S
C1038 H1034 0.929 . S
C1038 C1040 1.378 . S
C1038 C1042 1.350 . S
C1039 C1042 1.463 . S
C1039 C1044 1.350 . S
C1039 N1047 1.427 . S
C1040 H1031 0.930 . S
C1040 C1038 1.378 . S
C1040 C1041 1.367 1_455 S
C1041 C1040 1.367 1_655 S
C1041 C1043 1.433 . S
C1042 C1038 1.350 . S
C1042 C1039 1.463 . S
C1042 N1046 1.427 . S
C1043 H1033 0.929 . S
C1043 C1041 1.433 . S
C1043 N1046 1.384 1_655 S
C1044 H1035 0.929 . S
C1044 C1036 1.378 . S
C1044 C1039 1.350 . S
C1045 H1032 0.929 . S
C1045 C1037 1.433 . S
C1045 N1047 1.384 . S
N1046 C1042 1.427 . S
N1046 C1043 1.384 1_455 S
N1047 C1039 1.427 . S
N1047 C1045 1.384 . S
H1048 C1054 0.930 . S
H1049 C1058 0.930 . S
H1050 C1063 0.929 . S
H1051 C1061 0.929 1_556 S
H1052 C1056 0.929 . S
H1053 C1062 0.929 . S
C1054 H1048 0.930 . S
C1054 C1055 1.367 . S
C1054 C1062 1.378 . S
C1055 C1054 1.367 . S
C1055 C1063 1.433 1_556 S
C1056 H1052 0.929 . S
C1056 C1058 1.378 . S
C1056 C1060 1.350 . S
C1057 C1060 1.463 . S
C1057 C1062 1.350 1_554 S
C1057 N1065 1.427 . S
C1058 H1049 0.930 . S
C1058 C1056 1.378 . S
C1058 C1059 1.367 . S
C1059 C1058 1.367 . S
C1059 C1061 1.433 . S
C1060 C1056 1.350 . S
C1060 C1057 1.463 . S
C1060 N1064 1.427 1_554 S
C1061 H1051 0.929 1_554 S
C1061 C1059 1.433 . S
C1061 N1064 1.384 1_554 S
C1062 H1053 0.929 . S
C1062 C1054 1.378 . S
C1062 C1057 1.350 1_556 S
C1063 H1050 0.929 . S
C1063 C1055 1.433 1_554 S
C1063 N1065 1.384 . S
N1064 C1060 1.427 1_556 S
N1064 C1061 1.384 1_556 S
N1065 C1057 1.427 . S
N1065 C1063 1.384 . S
H1066 C1072 0.930 . S
H1067 C1076 0.930 . S
H1068 C1081 0.929 . S
H1069 C1079 0.929 . S
H1070 C1074 0.929 . S
H1071 C1080 0.929 . S
C1072 H1066 0.930 . S
C1072 C1073 1.367 . S
C1072 C1080 1.378 . S
C1073 C1072 1.367 . S
C1073 C1081 1.433 1_554 S
C1074 H1070 0.929 . S
C1074 C1076 1.378 . S
C1074 C1078 1.350 . S
C1075 C1078 1.463 . S
C1075 C1080 1.350 1_556 S
C1075 N1083 1.427 . S
C1076 H1067 0.930 . S
C1076 C1074 1.378 . S
C1076 C1077 1.367 . S
C1077 C1076 1.367 . S
C1077 C1079 1.433 . S
C1078 C1074 1.350 . S
C1078 C1075 1.463 . S
C1078 N1082 1.427 . S
C1079 H1069 0.929 . S
C1079 C1077 1.433 . S
C1079 N1082 1.384 . S
C1080 H1071 0.929 . S
C1080 C1072 1.378 . S
C1080 C1075 1.350 1_554 S
C1081 H1068 0.929 . S
C1081 C1073 1.433 1_556 S
C1081 N1083 1.384 . S
N1082 C1078 1.427 . S
N1082 C1079 1.384 . S
N1083 C1075 1.427 . S
N1083 C1081 1.384 . S
H1084 C1090 0.930 1_556 S
H1085 C1094 0.930 . S
H1086 C1099 0.929 . S
H1087 C1097 0.929 . S
H1088 C1092 0.929 . S
H1089 C1098 0.929 1_556 S
C1090 H1084 0.930 1_554 S
C1090 C1091 1.367 . S
C1090 C1098 1.378 . S
C1091 C1090 1.367 . S
C1091 C1099 1.433 . S
C1092 H1088 0.929 . S
C1092 C1094 1.378 . S
C1092 C1096 1.350 . S
C1093 C1096 1.463 . S
C1093 C1098 1.350 . S
C1093 N1101 1.427 . S
C1094 H1085 0.930 . S
C1094 C1092 1.378 . S
C1094 C1095 1.367 1_554 S
C1095 C1094 1.367 1_556 S
C1095 C1097 1.433 . S
C1096 C1092 1.350 . S
C1096 C1093 1.463 . S
C1096 N1100 1.427 1_554 S
C1097 H1087 0.929 . S
C1097 C1095 1.433 . S
C1097 N1100 1.384 . S
C1098 H1089 0.929 1_554 S
C1098 C1090 1.378 . S
C1098 C1093 1.350 . S
C1099 H1086 0.929 . S
C1099 C1091 1.433 . S
C1099 N1101 1.384 . S
N1100 C1096 1.427 1_556 S
N1100 C1097 1.384 . S
N1101 C1093 1.427 . S
N1101 C1099 1.384 . S
H1102 C1108 0.930 . S
H1103 C1112 0.930 1_554 S
H1104 C1117 0.929 . S
H1105 C1115 0.929 . S
H1106 C1110 0.929 . S
H1107 C1116 0.929 . S
C1108 H1102 0.930 . S
C1108 C1109 1.367 1_556 S
C1108 C1116 1.378 . S
C1109 C1108 1.367 1_554 S
C1109 C1117 1.433 . S
C1110 H1106 0.929 . S
C1110 C1112 1.378 1_554 S
C1110 C1114 1.350 1_554 S
C1111 C1114 1.463 . S
C1111 C1116 1.350 . S
C1111 N1119 1.427 1_556 S
C1112 H1103 0.930 1_556 S
C1112 C1110 1.378 1_556 S
C1112 C1113 1.367 . S
C1113 C1112 1.367 . S
C1113 C1115 1.433 . S
C1114 C1110 1.350 1_556 S
C1114 C1111 1.463 . S
C1114 N1118 1.427 . S
C1115 H1105 0.929 . S
C1115 C1113 1.433 . S
C1115 N1118 1.384 . S
C1116 H1107 0.929 . S
C1116 C1108 1.378 . S
C1116 C1111 1.350 . S
C1117 H1104 0.929 . S
C1117 C1109 1.433 . S
C1117 N1119 1.384 . S
N1118 C1114 1.427 . S
N1118 C1115 1.384 . S
N1119 C1111 1.427 1_554 S
N1119 C1117 1.384 . S
H1120 C1126 0.930 . S
H1121 C1130 0.930 . S
H1122 C1135 0.929 . S
H1123 C1133 0.929 . S
H1124 C1128 0.929 . S
H1125 C1134 0.929 . S
C1126 H1120 0.930 . S
C1126 C1127 1.367 . S
C1126 C1134 1.378 . S
C1127 C1126 1.367 . S
C1127 C1135 1.433 . S
C1128 H1124 0.929 . S
C1128 C1130 1.378 . S
C1128 C1132 1.350 . S
C1129 C1132 1.463 . S
C1129 C1134 1.350 . S
C1129 N1137 1.427 . S
C1130 H1121 0.930 . S
C1130 C1128 1.378 . S
C1130 C1131 1.367 . S
C1131 C1130 1.367 . S
C1131 C1133 1.433 . S
C1132 C1128 1.350 . S
C1132 C1129 1.463 . S
C1132 N1136 1.427 . S
C1133 H1123 0.929 . S
C1133 C1131 1.433 . S
C1133 N1136 1.384 . S
C1134 H1125 0.929 . S
C1134 C1126 1.378 . S
C1134 C1129 1.350 . S
C1135 H1122 0.929 . S
C1135 C1127 1.433 . S
C1135 N1137 1.384 . S
N1136 C1132 1.427 . S
N1136 C1133 1.384 . S
N1137 C1129 1.427 . S
N1137 C1135 1.384 . S
H1138 C1144 0.930 . S
H1139 C1148 0.930 . S
H1140 C1153 0.929 . S
H1141 C1151 0.929 . S
H1142 C1146 0.929 . S
H1143 C1152 0.929 . S
C1144 H1138 0.930 . S
C1144 C1145 1.367 . S
C1144 C1152 1.378 . S
C1145 C1144 1.367 . S
C1145 C1153 1.433 . S
C1146 H1142 0.929 . S
C1146 C1148 1.378 . S
C1146 C1150 1.350 . S
C1147 C1150 1.463 . S
C1147 C1152 1.350 . S
C1147 N1155 1.427 . S
C1148 H1139 0.930 . S
C1148 C1146 1.378 . S
C1148 C1149 1.367 . S
C1149 C1148 1.367 . S
C1149 C1151 1.433 . S
C1150 C1146 1.350 . S
C1150 C1147 1.463 . S
C1150 N1154 1.427 . S
C1151 H1141 0.929 . S
C1151 C1149 1.433 . S
C1151 N1154 1.384 . S
C1152 H1143 0.929 . S
C1152 C1144 1.378 . S
C1152 C1147 1.350 . S
C1153 H1140 0.929 . S
C1153 C1145 1.433 . S
C1153 N1155 1.384 . S
N1154 C1150 1.427 . S
N1154 C1151 1.384 . S
N1155 C1147 1.427 . S
N1155 C1153 1.384 . S
H1156 C1162 0.930 . S
H1157 C1166 0.930 . S
H1158 C1171 0.929 . S
H1159 C1169 0.929 . S
H1160 C1164 0.929 . S
H1161 C1170 0.929 . S
C1162 H1156 0.930 . S
C1162 C1163 1.367 . S
C1162 C1170 1.378 . S
C1163 C1162 1.367 . S
C1163 C1171 1.433 . S
C1164 H1160 0.929 . S
C1164 C1166 1.378 . S
C1164 C1168 1.350 . S
C1165 C1168 1.463 . S
C1165 C1170 1.350 . S
C1165 N1173 1.427 . S
C1166 H1157 0.930 . S
C1166 C1164 1.378 . S
C1166 C1167 1.367 . S
C1167 C1166 1.367 . S
C1167 C1169 1.433 . S
C1168 C1164 1.350 . S
C1168 C1165 1.463 . S
C1168 N1172 1.427 . S
C1169 H1159 0.929 . S
C1169 C1167 1.433 . S
C1169 N1172 1.384 . S
C1170 H1161 0.929 . S
C1170 C1162 1.378 . S
C1170 C1165 1.350 . S
C1171 H1158 0.929 . S
C1171 C1163 1.433 . S
C1171 N1173 1.384 . S
N1172 C1168 1.427 . S
N1172 C1169 1.384 . S
N1173 C1165 1.427 . S
N1173 C1171 1.384 . S
H1174 C1180 0.930 . S
H1175 C1184 0.930 . S
H1176 C1189 0.929 . S
H1177 C1187 0.929 . S
H1178 C1182 0.929 . S
H1179 C1188 0.929 . S
C1180 H1174 0.930 . S
C1180 C1181 1.367 . S
C1180 C1188 1.378 . S
C1181 C1180 1.367 . S
C1181 C1189 1.433 . S
C1182 H1178 0.929 . S
C1182 C1184 1.378 . S
C1182 C1186 1.350 . S
C1183 C1186 1.463 . S
C1183 C1188 1.350 . S
C1183 N1191 1.427 . S
C1184 H1175 0.930 . S
C1184 C1182 1.378 . S
C1184 C1185 1.367 . S
C1185 C1184 1.367 . S
C1185 C1187 1.433 . S
C1186 C1182 1.350 . S
C1186 C1183 1.463 . S
C1186 N1190 1.427 . S
C1187 H1177 0.929 . S
C1187 C1185 1.433 . S
C1187 N1190 1.384 . S
C1188 H1179 0.929 . S
C1188 C1180 1.378 . S
C1188 C1183 1.350 . S
C1189 H1176 0.929 . S
C1189 C1181 1.433 . S
C1189 N1191 1.384 . S
N1190 C1186 1.427 . S
N1190 C1187 1.384 . S
N1191 C1183 1.427 . S
N1191 C1189 1.384 . S
H1192 C1198 0.930 . S
H1193 C1202 0.930 . S
H1194 C1207 0.929 . S
H1195 C1205 0.929 . S
H1196 C1200 0.929 . S
H1197 C1206 0.929 . S
C1198 H1192 0.930 . S
C1198 C1199 1.367 . S
C1198 C1206 1.378 . S
C1199 C1198 1.367 . S
C1199 C1207 1.433 . S
C1200 H1196 0.929 . S
C1200 C1202 1.378 1_545 S
C1200 C1204 1.350 . S
C1201 C1204 1.463 . S
C1201 C1206 1.350 . S
C1201 N1209 1.427 . S
C1202 H1193 0.930 . S
C1202 C1200 1.378 1_565 S
C1202 C1203 1.367 . S
C1203 C1202 1.367 . S
C1203 C1205 1.433 1_565 S
C1204 C1200 1.350 . S
C1204 C1201 1.463 . S
C1204 N1208 1.427 . S
C1205 H1195 0.929 . S
C1205 C1203 1.433 1_545 S
C1205 N1208 1.384 . S
C1206 H1197 0.929 . S
C1206 C1198 1.378 . S
C1206 C1201 1.350 . S
C1207 H1194 0.929 . S
C1207 C1199 1.433 . S
C1207 N1209 1.384 . S
N1208 C1204 1.427 . S
N1208 C1205 1.384 . S
N1209 C1201 1.427 . S
N1209 C1207 1.384 . S
H1210 C1216 0.930 . S
H1211 C1220 0.912 1_655 S
H1212 C1225 0.929 . S
H1213 C1223 0.929 . S
H1214 C1218 0.929 . S
H1215 C1224 0.929 . S
C1216 H1210 0.930 . S
C1216 C1217 1.367 . S
C1216 C1224 1.378 . S
C1217 C1216 1.367 . S
C1217 C1225 1.433 . S
C1218 H1214 0.929 . S
C1218 C1220 1.407 . S
C1218 C1222 1.350 . S
C1219 C1222 1.463 . S
C1219 C1224 1.350 . S
C1219 N1227 1.427 . S
C1220 H1211 0.912 1_455 S
C1220 C1218 1.407 . S
C1220 C1221 1.357 1_455 S
C1221 C1220 1.357 1_655 S
C1221 C1223 1.433 1_655 S
C1222 C1218 1.350 . S
C1222 C1219 1.463 . S
C1222 N1226 1.427 . S
C1223 H1213 0.929 . S
C1223 C1221 1.433 1_455 S
C1223 N1226 1.384 . S
C1224 H1215 0.929 . S
C1224 C1216 1.378 . S
C1224 C1219 1.350 . S
C1225 H1212 0.929 . S
C1225 C1217 1.433 . S
C1225 N1227 1.384 . S
N1226 C1222 1.427 . S
N1226 C1223 1.384 . S
N1227 C1219 1.427 . S
N1227 C1225 1.384 . S
H1228 C1234 0.930 . S
H1229 C1238 0.930 . S
H1230 C1243 0.929 . S
H1231 C1241 0.929 . S
H1232 C1236 0.929 . S
H1233 C1242 0.929 . S
C1234 H1228 0.930 . S
C1234 C1235 1.367 . S
C1234 C1242 1.378 . S
C1235 C1234 1.367 . S
C1235 C1243 1.433 . S
C1236 H1232 0.929 . S
C1236 C1238 1.378 1_565 S
C1236 C1240 1.350 . S
C1237 C1240 1.463 . S
C1237 C1242 1.350 . S
C1237 N1245 1.427 . S
C1238 H1229 0.930 . S
C1238 C1236 1.378 1_545 S
C1238 C1239 1.367 . S
C1239 C1238 1.367 . S
C1239 C1241 1.433 1_545 S
C1240 C1236 1.350 . S
C1240 C1237 1.463 . S
C1240 N1244 1.427 . S
C1241 H1231 0.929 . S
C1241 C1239 1.433 1_565 S
C1241 N1244 1.384 . S
C1242 H1233 0.929 . S
C1242 C1234 1.378 . S
C1242 C1237 1.350 . S
C1243 H1230 0.929 . S
C1243 C1235 1.433 . S
C1243 N1245 1.384 . S
N1244 C1240 1.427 . S
N1244 C1241 1.384 . S
N1245 C1237 1.427 . S
N1245 C1243 1.384 . S
H1246 C1252 0.930 . S
H1247 C1256 0.930 . S
H1248 C1261 0.929 . S
H1249 C1259 0.929 . S
H1250 C1254 0.929 . S
H1251 C1260 0.929 . S
C1252 H1246 0.930 . S
C1252 C1253 1.367 1_655 S
C1252 C1260 1.378 . S
C1253 C1252 1.367 1_455 S
C1253 C1261 1.433 . S
C1254 H1250 0.929 . S
C1254 C1256 1.378 . S
C1254 C1258 1.350 . S
C1255 C1258 1.463 . S
C1255 C1260 1.350 . S
C1255 N1263 1.427 . S
C1256 H1247 0.930 . S
C1256 C1254 1.378 . S
C1256 C1257 1.367 . S
C1257 C1256 1.367 . S
C1257 C1259 1.433 . S
C1258 C1254 1.350 . S
C1258 C1255 1.463 . S
C1258 N1262 1.427 . S
C1259 H1249 0.929 . S
C1259 C1257 1.433 . S
C1259 N1262 1.384 . S
C1260 H1251 0.929 . S
C1260 C1252 1.378 . S
C1260 C1255 1.350 . S
C1261 H1248 0.929 . S
C1261 C1253 1.433 . S
C1261 N1263 1.384 1_455 S
N1262 C1258 1.427 . S
N1262 C1259 1.384 . S
N1263 C1255 1.427 . S
N1263 C1261 1.384 1_655 S
C551 C33 0.926 . S
C555 C509 0.923 . S
C569 C543 0.914 . S
C573 C67 0.916 . S
C587 C441 0.915 . S
C591 C101 0.921 . S
C605 C135 0.914 . S
C609 C475 0.915 . S
C623 C169 0.921 1_556 S
C627 C373 0.915 . S
C641 C407 0.918 . S
C645 C203 0.925 1_554 S
C659 C237 0.916 1_556 S
C663 C305 0.922 . S
C677 C339 0.923 . S
C681 C271 0.916 1_554 S
C695 C145 1.142 . S
C699 C9 1.146 . S
C713 C43 1.134 . S
C717 C179 1.129 . S
C731 C77 1.129 . S
C735 C213 1.124 . S
C749 C111 1.144 . S
C753 C247 1.148 . S
C767 C417 1.131 . S
C771 C281 1.137 . S
C785 C451 1.149 . S
C789 C315 1.147 . S
C803 C349 1.139 . S
C807 C485 1.144 . S
C821 C383 1.149 . S
C825 C519 1.148 . S
C839 C2 1.953 1_556 S
C843 C478 1.952 . S
C857 C512 1.953 . S
C861 C36 1.952 1_554 S
C875 C70 1.952 1_556 S
C879 C410 1.952 . S
C893 C444 1.953 . S
C897 C104 1.952 1_554 S
C911 C342 1.954 . S
C915 C138 1.952 . S
C929 C376 1.953 . S
C933 C172 1.954 . S
C947 C206 1.956 . S
C951 C274 1.955 . S
C965 C240 1.952 . S
C969 C308 1.952 . S
C983 C5 1.650 . S
C987 C394 1.664 . S
C1001 C292 1.661 . S
C1005 C39 1.645 . S
C1019 C73 1.645 . S
C1023 C326 1.661 . S
C1037 C360 1.664 . S
C1041 C107 1.652 . S
C1055 C190 1.662 . S
C1059 C141 1.648 . S
C1073 C224 1.661 . S
C1077 C175 1.646 . S
C1091 C209 1.649 . S
C1095 C258 1.664 . S
C1109 C156 1.663 . S
C1113 C243 1.648 . S
C1127 C122 1.662 . S
C1131 C277 1.647 . S
C1145 C311 1.646 . S
C1149 C20 1.661 . S
C1163 C345 1.647 . S
C1167 C54 1.663 . S
C1181 C88 1.661 . S
C1185 C379 1.645 . S
C1199 C462 1.662 . S
C1203 C413 1.647 . S
C1217 C496 1.664 . S
C1221 C447 1.649 . S
C1235 C530 1.663 . S
C1239 C481 1.647 . S
C1253 C515 1.650 . S
C1257 C428 1.663 . S
