# Generated by pormake.
# Topology vcc, (6)-cn, num edge types: 1
# Building blocks:
#     Node 0, Type 0, BuildingBlock: JUFBIX_clean_sbu_0, # of connection points: 6
#     Node 1, Type 0, BuildingBlock: JUFBIX_clean_sbu_0, # of connection points: 6
#     Node 2, Type 0, BuildingBlock: JUFBIX_clean_sbu_0, # of connection points: 6
#     Node 3, Type 0, BuildingBlock: JUFBIX_clean_sbu_0, # of connection points: 6
#     Node 4, Type 0, BuildingBlock: JUFBIX_clean_sbu_0, # of connection points: 6
#     Node 5, Type 0, BuildingBlock: JUFBIX_clean_sbu_0, # of connection points: 6
#     Node 6, Type 0, BuildingBlock: JUFBIX_clean_sbu_0, # of connection points: 6
#     Node 7, Type 0, BuildingBlock: JUFBIX_clean_sbu_0, # of connection points: 6
#     Node 8, Type 0, BuildingBlock: JUFBIX_clean_sbu_0, # of connection points: 6
#     Node 9, Type 0, BuildingBlock: JUFBIX_clean_sbu_0, # of connection points: 6
#     Node 10, Type 0, BuildingBlock: JUFBIX_clean_sbu_0, # of connection points: 6
#     Node 11, Type 0, BuildingBlock: JUFBIX_clean_sbu_0, # of connection points: 6
#     Node 12, Type 0, BuildingBlock: JUFBIX_clean_sbu_0, # of connection points: 6
#     Node 13, Type 0, BuildingBlock: JUFBIX_clean_sbu_0, # of connection points: 6
#     Node 14, Type 0, BuildingBlock: JUFBIX_clean_sbu_0, # of connection points: 6
#     Node 15, Type 0, BuildingBlock: JUFBIX_clean_sbu_0, # of connection points: 6
#     Node 16, Type 0, BuildingBlock: JUFBIX_clean_sbu_0, # of connection points: 6
#     Node 17, Type 0, BuildingBlock: JUFBIX_clean_sbu_0, # of connection points: 6
#     Node 18, Type 0, BuildingBlock: JUFBIX_clean_sbu_0, # of connection points: 6
#     Node 19, Type 0, BuildingBlock: JUFBIX_clean_sbu_0, # of connection points: 6
#     Node 20, Type 0, BuildingBlock: JUFBIX_clean_sbu_0, # of connection points: 6
#     Node 21, Type 0, BuildingBlock: JUFBIX_clean_sbu_0, # of connection points: 6
#     Node 22, Type 0, BuildingBlock: JUFBIX_clean_sbu_0, # of connection points: 6
#     Node 23, Type 0, BuildingBlock: JUFBIX_clean_sbu_0, # of connection points: 6
#     Node 24, Type 0, BuildingBlock: JUFBIX_clean_sbu_0, # of connection points: 6
#     Node 25, Type 0, BuildingBlock: JUFBIX_clean_sbu_0, # of connection points: 6
#     Node 26, Type 0, BuildingBlock: JUFBIX_clean_sbu_0, # of connection points: 6
#     Node 27, Type 0, BuildingBlock: JUFBIX_clean_sbu_0, # of connection points: 6
#     Node 28, Type 0, BuildingBlock: JUFBIX_clean_sbu_0, # of connection points: 6
#     Node 29, Type 0, BuildingBlock: JUFBIX_clean_sbu_0, # of connection points: 6
#     Node 30, Type 0, BuildingBlock: JUFBIX_clean_sbu_0, # of connection points: 6
#     Node 31, Type 0, BuildingBlock: JUFBIX_clean_sbu_0, # of connection points: 6
#     Edge 32, Type (0, 0), None
#     Edge 33, Type (0, 0), None
#     Edge 34, Type (0, 0), None
#     Edge 35, Type (0, 0), None
#     Edge 36, Type (0, 0), None
#     Edge 37, Type (0, 0), None
#     Edge 38, Type (0, 0), None
#     Edge 39, Type (0, 0), None
#     Edge 40, Type (0, 0), None
#     Edge 41, Type (0, 0), None
#     Edge 42, Type (0, 0), None
#     Edge 43, Type (0, 0), None
#     Edge 44, Type (0, 0), None
#     Edge 45, Type (0, 0), None
#     Edge 46, Type (0, 0), None
#     Edge 47, Type (0, 0), None
#     Edge 48, Type (0, 0), None
#     Edge 49, Type (0, 0), None
#     Edge 50, Type (0, 0), None
#     Edge 51, Type (0, 0), None
#     Edge 52, Type (0, 0), None
#     Edge 53, Type (0, 0), None
#     Edge 54, Type (0, 0), None
#     Edge 55, Type (0, 0), None
#     Edge 56, Type (0, 0), None
#     Edge 57, Type (0, 0), None
#     Edge 58, Type (0, 0), None
#     Edge 59, Type (0, 0), None
#     Edge 60, Type (0, 0), None
#     Edge 61, Type (0, 0), None
#     Edge 62, Type (0, 0), None
#     Edge 63, Type (0, 0), None
#     Edge 64, Type (0, 0), None
#     Edge 65, Type (0, 0), None
#     Edge 66, Type (0, 0), None
#     Edge 67, Type (0, 0), None
#     Edge 68, Type (0, 0), None
#     Edge 69, Type (0, 0), None
#     Edge 70, Type (0, 0), None
#     Edge 71, Type (0, 0), None
#     Edge 72, Type (0, 0), None
#     Edge 73, Type (0, 0), None
#     Edge 74, Type (0, 0), None
#     Edge 75, Type (0, 0), None
#     Edge 76, Type (0, 0), None
#     Edge 77, Type (0, 0), None
#     Edge 78, Type (0, 0), None
#     Edge 79, Type (0, 0), None
#     Edge 80, Type (0, 0), None
#     Edge 81, Type (0, 0), None
#     Edge 82, Type (0, 0), None
#     Edge 83, Type (0, 0), None
#     Edge 84, Type (0, 0), None
#     Edge 85, Type (0, 0), None
#     Edge 86, Type (0, 0), None
#     Edge 87, Type (0, 0), None
#     Edge 88, Type (0, 0), None
#     Edge 89, Type (0, 0), None
#     Edge 90, Type (0, 0), None
#     Edge 91, Type (0, 0), None
#     Edge 92, Type (0, 0), None
#     Edge 93, Type (0, 0), None
#     Edge 94, Type (0, 0), None
#     Edge 95, Type (0, 0), None
#     Edge 96, Type (0, 0), None
#     Edge 97, Type (0, 0), None
#     Edge 98, Type (0, 0), None
#     Edge 99, Type (0, 0), None
#     Edge 100, Type (0, 0), None
#     Edge 101, Type (0, 0), None
#     Edge 102, Type (0, 0), None
#     Edge 103, Type (0, 0), None
#     Edge 104, Type (0, 0), None
#     Edge 105, Type (0, 0), None
#     Edge 106, Type (0, 0), None
#     Edge 107, Type (0, 0), None
#     Edge 108, Type (0, 0), None
#     Edge 109, Type (0, 0), None
#     Edge 110, Type (0, 0), None
#     Edge 111, Type (0, 0), None
#     Edge 112, Type (0, 0), None
#     Edge 113, Type (0, 0), None
#     Edge 114, Type (0, 0), None
#     Edge 115, Type (0, 0), None
#     Edge 116, Type (0, 0), None
#     Edge 117, Type (0, 0), None
#     Edge 118, Type (0, 0), None
#     Edge 119, Type (0, 0), None
#     Edge 120, Type (0, 0), None
#     Edge 121, Type (0, 0), None
#     Edge 122, Type (0, 0), None
#     Edge 123, Type (0, 0), None
#     Edge 124, Type (0, 0), None
#     Edge 125, Type (0, 0), None
#     Edge 126, Type (0, 0), None
#     Edge 127, Type (0, 0), None
# Relax obj value: 0.842
# Max RMSD: 0.240
# Mean RMSD: 0.240
data_MOF--net-vcc--node1-JUFBIX_clean_sbu_0--edge1-none
_symmetry_space_group_name_H-M    P1
_symmetry_Int_Tables_number       1
_symmetry_cell_setting            triclinic
loop_
_symmetry_equiv_pos_as_xyz
'x, y, z'
_cell_length_a     36.057067
_cell_length_b     23.811448
_cell_length_c     13.488286
_cell_angle_alpha  90.007252
_cell_angle_beta   89.985633
_cell_angle_gamma 89.993527
loop_
_atom_site_label
_atom_site_type_symbol
_atom_site_fract_x
_atom_site_fract_y
_atom_site_fract_z
_atom_type_partial_charge
Co0 Co 0.37874 0.03107 0.37073 0.0
C1 C 0.39888 0.92907 0.31292 0.0
Co2 Co 0.34126 1.02019 0.2615 0.0
C3 C 0.43788 0.09417 0.41693 0.0
C4 C 0.43558 1.02587 0.5179 0.0
N5 N 0.41546 0.05407 0.45096 0.0
N6 N 0.47138 0.09246 0.45755 0.0
C7 C 0.46943 0.05068 0.52487 0.0
H8 H 0.43371 0.11146 0.34452 0.0
H9 H 0.43 0.98343 0.54149 0.0
C10 C 0.33525 0.12405 0.34531 0.0
N11 N 0.30844 0.99578 1.17339 0.0
C12 C 0.28527 0.95321 1.19057 0.0
C13 C 0.29276 1.02698 1.10235 0.0
N14 N 0.25265 0.9623 1.14669 0.0
C15 C 0.25893 1.00456 1.08199 0.0
C16 C 0.30681 1.02057 0.45409 0.0
O17 O 0.36601 0.10287 0.3641 0.0
O18 O 0.31582 0.09737 0.28059 0.0
O19 O 0.30557 0.99704 0.36942 0.0
O20 O 0.34023 0.03068 0.48342 0.0
O21 O 0.37365 0.94214 0.2475 0.0
H22 H 0.30185 0.06862 1.08154 0.0
H23 H 0.28824 0.92525 0.25333 0.0
O24 O 0.39631 0.95701 0.39138 0.0
O25 O 0.41442 0.03718 0.24445 0.0
O26 O 0.3675 0.04655 1.14852 0.0
C27 C 0.40184 0.04521 1.15571 0.0
H28 H 0.49342 1.0287 0.55269 0.0
H29 H 0.23724 1.02759 1.04422 0.0
Co30 Co 0.94814 0.27787 0.37047 0.0
C31 C 0.92802 0.37989 0.31287 0.0
Co32 Co 0.98566 0.28879 0.26138 0.0
C33 C 0.88895 0.21481 0.41639 0.0
C34 C 0.89132 0.28294 0.51775 0.0
N35 N 0.9114 0.25481 0.45057 0.0
N36 N 0.85545 0.21651 0.45715 0.0
C37 C 0.85745 0.25818 0.52468 0.0
H38 H 0.89311 0.19755 0.34394 0.0
H39 H 0.89693 0.32534 0.54148 0.0
C40 C 0.99164 0.18493 0.34511 0.0
N41 N 1.0185 0.31326 1.17336 0.0
C42 C 0.04164 0.35586 1.19066 0.0
C43 C 1.03422 0.28213 1.10227 0.0
N44 N 0.07428 0.34683 1.14686 0.0
C45 C 0.06805 0.30461 1.08201 0.0
C46 C 1.02005 0.28838 0.45402 0.0
O47 O 0.96086 0.2061 0.36365 0.0
O48 O 1.01113 0.2116 0.28048 0.0
O49 O 1.0213 0.31195 0.36939 0.0
O50 O 0.98663 0.27819 0.48326 0.0
O51 O 0.95325 0.36683 0.24743 0.0
H52 H 1.02517 0.2405 1.08135 0.0
H53 H 0.03862 0.38379 0.25347 0.0
O54 O 0.93057 0.35192 0.39129 0.0
O55 O 0.91251 0.27184 0.24413 0.0
O56 O 0.95946 0.26242 1.14824 0.0
C57 C 0.92512 0.2638 1.15539 0.0
H58 H 0.83349 0.28016 0.55264 0.0
H59 H 0.08976 0.28163 1.0442 0.0
Co60 Co 0.37874 0.27792 0.34548 0.0
C61 C 0.39886 0.37994 0.40323 0.0
Co62 Co 0.34124 0.28885 0.45473 0.0
C63 C 0.4379 0.21483 0.29934 0.0
C64 C 0.43558 0.28308 1.19824 0.0
N65 N 0.41546 0.25489 0.26525 0.0
N66 N 0.47141 0.21657 0.25872 0.0
C67 C 0.46945 0.25831 1.19133 0.0
H68 H 0.43373 0.19756 0.37175 0.0
H69 H 0.42998 0.3255 1.17461 0.0
C70 C 0.33527 0.18496 0.37109 0.0
N71 N 0.3084 0.31329 0.54283 0.0
C72 C 0.28522 0.35584 0.52556 0.0
C73 C 0.29271 0.28211 0.61389 0.0
N74 N 0.25259 0.34674 0.5694 0.0
C75 C 0.25886 0.30451 0.63418 0.0
C76 C 0.3068 0.28843 0.2621 0.0
O77 O 0.36601 0.20613 0.35214 0.0
O78 O 0.3158 0.21167 0.43572 0.0
O79 O 0.30555 0.31196 0.34677 0.0
O80 O 0.34023 0.2783 1.23277 0.0
O81 O 0.37362 0.36689 0.46865 0.0
H82 H 0.30181 0.24048 0.63474 0.0
H83 H 0.28819 0.38377 0.46277 0.0
O84 O 0.39631 0.35198 0.32479 0.0
O85 O 0.4144 0.27181 0.47177 0.0
O86 O 0.36747 0.26252 0.56776 0.0
C87 C 0.40181 0.26381 0.56054 0.0
H88 H 0.49342 0.28031 1.1635 0.0
H89 H 0.23717 0.28147 0.67195 0.0
Co90 Co 0.94815 0.03111 0.34569 0.0
C91 C 0.92803 0.92908 0.40326 0.0
Co92 Co 0.98567 1.02014 0.4547 0.0
C93 C 0.88893 0.09415 0.29981 0.0
C94 C 0.89135 1.02604 1.19842 0.0
N95 N 0.91141 0.05417 0.26561 0.0
N96 N 0.85544 0.09244 0.25904 0.0
C97 C 0.85747 0.05079 1.19148 0.0
H98 H 0.89306 0.1114 0.37228 0.0
H99 H 0.89698 0.98365 1.17467 0.0
C100 C 0.99162 0.12404 0.37112 0.0
N101 N 1.01852 0.99565 0.5427 0.0
C102 C 0.04168 0.95308 0.52537 0.0
C103 C 1.0342 1.02676 0.61384 0.0
N104 N 0.07431 0.96213 0.5692 0.0
C105 C 0.06804 1.00431 0.6341 0.0
C106 C 1.02007 1.02058 0.2621 0.0
O107 O 0.96083 0.10289 0.35254 0.0
O108 O 1.01116 0.09731 0.43555 0.0
O109 O 1.02131 0.99696 0.34667 0.0
O110 O 0.98665 0.03081 1.2329 0.0
O111 O 0.95326 0.94212 0.46868 0.0
H112 H 1.02512 0.06839 0.63478 0.0
H113 H 0.0387 0.92516 0.46254 0.0
O114 O 0.93059 0.95705 0.32485 0.0
O115 O 0.91251 0.03714 0.47202 0.0
O116 O 0.95948 0.04653 0.56782 0.0
C117 C 0.92513 0.04519 0.56073 0.0
H118 H 0.83352 1.0288 1.16349 0.0
H119 H 0.08972 1.0273 0.67194 0.0
Co120 Co 0.73562 0.03883 1.20468 0.0
C121 C 0.74163 0.93497 1.12085 0.0
Co122 Co 0.69814 1.02795 1.09544 0.0
C123 C 0.7916 0.10581 0.27559 0.0
C124 C 0.78414 0.032 0.36378 0.0
N125 N 0.76844 0.06323 0.2928 0.0
N126 N 0.82421 0.09667 0.31945 0.0
C127 C 0.81799 0.05439 0.38412 0.0
H128 H 0.78864 0.13378 1.21284 0.0
H129 H 0.77505 0.99035 0.38454 0.0
C130 C 0.67801 0.12995 1.15326 0.0
N131 N 0.66143 1.00495 1.01521 0.0
C132 C 0.63901 0.96485 1.04925 0.0
C133 C 0.6413 0.03316 0.94826 0.0
N134 N 0.6055 0.96657 1.00862 0.0
C135 C 0.60745 1.00835 0.9413 0.0
C136 C 0.67505 1.01381 0.31048 0.0
O137 O 0.70323 0.11688 1.21868 0.0
O138 O 0.68057 0.10201 1.0748 0.0
O139 O 0.66246 1.02183 1.22173 0.0
O140 O 0.70939 1.01247 0.31767 0.0
O141 O 0.71088 0.95615 1.10206 0.0
H142 H 0.64689 0.07559 0.92468 0.0
H143 H 0.64318 0.94756 1.12165 0.0
O144 O 0.76106 0.96165 1.18559 0.0
O145 O 0.77131 0.06197 1.09676 0.0
O146 O 0.73666 1.02834 0.98274 0.0
C147 C 0.77007 0.03845 1.01208 0.0
H148 H 0.8397 0.03134 0.42179 0.0
H149 H 0.58347 0.03032 0.91348 0.0
Co150 Co 0.09123 0.77023 1.2048 0.0
C151 C 0.08524 0.87409 1.12105 0.0
Co152 Co 0.12874 0.78114 1.0957 0.0
C153 C 1.03524 0.70316 0.27552 0.0
C154 C 0.04266 0.77689 0.36391 0.0
N155 N 0.05838 0.74576 0.29282 0.0
N156 N 1.0026 0.71221 0.31931 0.0
C157 C 1.00883 0.75442 0.38416 0.0
H158 H 1.03826 0.67523 1.21271 0.0
H159 H 0.05172 0.81853 0.38482 0.0
C160 C 0.14886 0.67913 1.15331 0.0
N161 N 0.16548 0.80419 1.01558 0.0
C162 C 0.18793 0.8442 1.04976 0.0
C163 C 0.18556 0.77606 0.94842 0.0
N164 N 0.22143 0.84249 1.00902 0.0
C165 C 0.21943 0.80081 0.94149 0.0
C166 C 0.15176 0.79522 0.31077 0.0
O167 O 0.12363 0.69219 1.21875 0.0
O168 O 0.14631 0.70709 1.07488 0.0
O169 O 0.16437 0.78718 1.22203 0.0
O170 O 0.11742 0.7966 0.31792 0.0
O171 O 0.11602 0.85292 1.1025 0.0
H172 H 0.17995 0.73366 0.9247 0.0
H173 H 0.18378 0.86146 1.12221 0.0
O174 O 0.06575 0.84741 1.18568 0.0
O175 O 0.05558 0.74707 1.09678 0.0
O176 O 0.09025 0.78082 0.9829 0.0
C177 C 0.05683 0.77063 1.01215 0.0
H178 H 0.98712 0.77741 0.42196 0.0
H179 H 0.24339 0.77883 0.91354 0.0
Co180 Co 0.73564 0.77017 1.01145 0.0
C181 C 0.74161 0.87406 1.09508 0.0
Co182 Co 0.69814 0.78111 1.12069 0.0
C183 C 0.79166 0.70317 0.94062 0.0
C184 C 0.78417 0.77689 0.85229 0.0
N185 N 0.76849 0.74572 0.92336 0.0
N186 N 0.8243 0.71226 0.89677 0.0
C187 C 0.81802 0.75448 0.83199 0.0
H188 H 0.78869 0.67523 1.00342 0.0
H189 H 0.77508 0.81852 0.83143 0.0
C190 C 0.67802 0.67908 1.06295 0.0
N191 N 0.66142 0.80414 1.20092 0.0
C192 C 0.63898 0.8442 1.16683 0.0
C193 C 0.6413 0.77595 0.26793 0.0
N194 N 0.60547 0.84246 1.20746 0.0
C195 C 0.60744 0.80072 0.27485 0.0
C196 C 0.67507 0.79521 0.90563 0.0
O197 O 0.70326 0.69213 0.99753 0.0
O198 O 0.68057 0.70704 1.14139 0.0
O199 O 0.66248 0.78721 0.9944 0.0
O200 O 0.70942 0.7965 0.89841 0.0
O201 O 0.71087 0.85289 1.11402 0.0
H202 H 0.6469 0.73353 0.29156 0.0
H203 H 0.64315 0.86147 1.09441 0.0
O204 O 0.76108 0.84734 1.03045 0.0
O205 O 0.77133 0.74705 1.11941 0.0
O206 O 0.73665 0.78073 0.2334 0.0
C207 C 0.77007 0.77059 1.20408 0.0
H208 H 0.83971 0.77751 0.79421 0.0
H209 H 0.58346 0.77873 0.30268 0.0
Co210 Co 0.09121 0.03888 1.01148 0.0
C211 C 0.08526 0.93498 1.09505 0.0
Co212 Co 0.12873 1.02791 1.1205 0.0
C213 C 1.03521 0.10595 0.94081 0.0
C214 C 0.04268 0.03226 0.85233 0.0
N215 N 0.05836 0.06337 0.92347 0.0
N216 N 1.00258 0.0969 0.89697 0.0
C217 C 1.00885 0.05473 0.83207 0.0
H218 H 1.03819 0.13386 1.00364 0.0
H219 H 0.05176 0.99064 0.83139 0.0
C220 C 0.14885 0.12994 1.06292 0.0
N221 N 0.16547 1.00485 1.20058 0.0
C222 C 0.18794 0.96486 1.16636 0.0
C223 C 0.18555 0.03301 0.26774 0.0
N224 N 0.22142 0.96665 1.20708 0.0
C225 C 0.21944 1.00828 0.27466 0.0
C226 C 0.15175 1.01383 0.90545 0.0
O227 O 0.12362 0.1169 0.9975 0.0
O228 O 0.14629 0.10197 1.14133 0.0
O229 O 0.16437 1.02188 0.99416 0.0
O230 O 0.11741 1.01249 0.89835 0.0
O231 O 0.11604 0.95613 1.11366 0.0
H232 H 0.17992 0.0754 0.29149 0.0
H233 H 0.18381 0.9476 1.0939 0.0
O234 O 0.06573 0.96171 1.03061 0.0
O235 O 0.05557 0.06206 1.1195 0.0
O236 O 0.09023 1.02821 0.23329 0.0
C237 C 0.05681 0.03842 1.20407 0.0
H238 H 0.98716 0.03174 0.79423 0.0
H239 H 0.2434 0.03026 0.3026 0.0
Co240 Co 0.37875 0.53108 0.8707 0.0
C241 C 0.39887 0.42907 0.81289 0.0
Co242 Co 0.34127 0.52021 0.76148 0.0
C243 C 0.43788 0.59417 0.9169 0.0
C244 C 0.43559 0.52586 1.01787 0.0
N245 N 0.41547 0.55407 0.95092 0.0
N246 N 0.47139 0.59246 0.95754 0.0
C247 C 0.46944 0.55068 1.02485 0.0
H248 H 0.43371 0.61146 0.8445 0.0
H249 H 0.43001 0.48343 1.04145 0.0
C250 C 0.33526 0.62406 0.8453 0.0
N251 N 0.30844 0.49581 0.67336 0.0
C252 C 0.28529 0.45321 0.69051 0.0
C253 C 0.29276 0.52701 0.60234 0.0
N254 N 0.25267 0.46228 0.64661 0.0
C255 C 0.25893 0.50456 0.58195 0.0
C256 C 0.30682 0.52059 0.95406 0.0
O257 O 0.36602 0.60287 0.86407 0.0
O258 O 0.31583 0.59738 0.78057 0.0
O259 O 0.30558 0.49706 0.86939 0.0
O260 O 0.34024 0.53069 0.9834 0.0
O261 O 0.37365 0.44215 0.74747 0.0
H262 H 0.30184 0.56865 0.58153 0.0
H263 H 0.28827 0.42525 0.75327 0.0
O264 O 0.39631 0.45701 0.89135 0.0
O265 O 0.41443 0.53718 0.74443 0.0
O266 O 0.3675 0.54657 0.6485 0.0
C267 C 0.40184 0.54522 0.65568 0.0
H268 H 0.49342 0.52871 1.05268 0.0
H269 H 0.23724 0.52758 0.54417 0.0
Co270 Co 0.94818 0.77793 0.87059 0.0
C271 C 0.92805 0.87993 0.8129 0.0
Co272 Co 0.98568 0.7888 0.76143 0.0
C273 C 0.889 0.71488 0.91656 0.0
C274 C 0.89132 0.7831 1.01781 0.0
N275 N 0.91144 0.75491 0.95074 0.0
N276 N 0.8555 0.71668 0.95721 0.0
C277 C 0.85744 0.75837 1.0247 0.0
H278 H 0.89318 0.69758 0.84416 0.0
H279 H 0.89693 0.8255 1.04151 0.0
C280 C 0.99167 0.68495 0.84524 0.0
N281 N 1.01852 0.81326 0.67339 0.0
C282 C 0.04167 0.85584 0.69068 0.0
C283 C 1.03424 0.78211 0.60231 0.0
N284 N 0.07431 0.84678 0.64691 0.0
C285 C 0.06808 0.80456 0.58207 0.0
C286 C 1.02009 0.78843 0.95407 0.0
O287 O 0.9609 0.70615 0.86386 0.0
O288 O 1.01114 0.71161 0.78056 0.0
O289 O 1.02134 0.81197 0.86943 0.0
O290 O 0.98667 0.77829 0.98337 0.0
O291 O 0.95327 0.86685 0.74746 0.0
H292 H 1.02517 0.74047 0.58141 0.0
H293 H 0.03865 0.88378 0.75348 0.0
O294 O 0.93061 0.85199 0.89135 0.0
O295 O 0.91254 0.77186 0.74426 0.0
O296 O 0.95948 0.76243 0.64833 0.0
C297 C 0.92513 0.7638 0.65551 0.0
H298 H 0.83346 0.78035 1.05257 0.0
H299 H 0.08978 0.78156 0.54428 0.0
Co300 Co 0.37875 0.77791 0.8455 0.0
C301 C 0.39887 0.87993 0.90325 0.0
Co302 Co 0.34126 0.78884 0.95475 0.0
C303 C 0.43791 0.71483 0.79937 0.0
C304 C 0.43559 0.78307 0.69826 0.0
N305 N 0.41548 0.75489 0.76528 0.0
N306 N 0.47143 0.71657 0.75875 0.0
C307 C 0.46946 0.75831 0.69135 0.0
H308 H 0.43374 0.69756 0.87179 0.0
H309 H 0.42999 0.82549 0.67463 0.0
C310 C 0.33528 0.68496 0.87111 0.0
N311 N 0.30842 0.81328 1.04285 0.0
C312 C 0.28526 0.85587 1.0256 0.0
C313 C 0.29271 0.78208 1.11386 0.0
N314 N 0.25264 0.84674 1.06944 0.0
C315 C 0.25885 0.80448 1.13417 0.0
C316 C 0.30682 0.78841 0.76213 0.0
O317 O 0.36603 0.70613 0.85218 0.0
O318 O 0.31581 0.71167 0.93575 0.0
O319 O 0.30557 0.81195 0.84679 0.0
O320 O 0.34024 0.77829 0.73279 0.0
O321 O 0.37364 0.86688 0.96867 0.0
H322 H 0.30179 0.74043 1.13465 0.0
H323 H 0.28824 0.88381 0.96281 0.0
O324 O 0.39632 0.85198 0.8248 0.0
O325 O 0.41441 0.77182 0.9718 0.0
O326 O 0.36748 0.76251 1.06779 0.0
C327 C 0.40182 0.76381 1.06057 0.0
H328 H 0.49343 0.78031 0.66353 0.0
H329 H 0.23714 0.78145 1.17186 0.0
Co330 Co 0.94814 0.53116 0.84577 0.0
C331 C 0.92801 0.42911 0.90326 0.0
Co332 Co 0.98568 0.52013 0.95473 0.0
C333 C 0.88891 0.59422 0.79995 0.0
C334 C 0.89136 0.52616 0.69845 0.0
N335 N 0.9114 0.55426 0.76571 0.0
N336 N 0.85543 0.59252 0.75914 0.0
C337 C 0.85748 0.5509 0.69152 0.0
H338 H 0.89303 0.61144 0.87245 0.0
H339 H 0.89699 0.48378 0.67467 0.0
C340 C 0.99162 0.62406 0.87123 0.0
N341 N 1.01853 0.49561 1.0427 0.0
C342 C 0.04171 0.45307 1.0253 0.0
C343 C 1.0342 0.52672 1.11387 0.0
N344 N 0.07434 0.46215 1.06911 0.0
C345 C 0.06805 0.50429 1.13407 0.0
C346 C 1.02006 0.5206 0.76212 0.0
O347 O 0.96083 0.60293 0.85266 0.0
O348 O 1.01117 0.5973 0.93562 0.0
O349 O 1.02131 0.49695 0.84666 0.0
O350 O 0.98665 0.53087 0.73295 0.0
O351 O 0.95325 0.44212 0.96867 0.0
H352 H 1.02511 0.56833 1.13484 0.0
H353 H 0.03873 0.42517 0.96244 0.0
O354 O 0.93057 0.45711 0.82487 0.0
O355 O 0.91252 0.53717 0.97211 0.0
O356 O 0.95949 0.5465 1.0679 0.0
C357 C 0.92514 0.54519 1.06081 0.0
H358 H 0.83354 0.52892 0.66349 0.0
H359 H 0.08973 0.52729 1.1719 0.0
Co360 Co 0.73561 0.53881 0.7047 0.0
C361 C 0.74162 0.43496 0.62085 0.0
Co362 Co 0.69814 0.52795 0.59546 0.0
C363 C 0.79158 0.60581 0.77565 0.0
C364 C 0.78415 0.53197 0.86378 0.0
N365 N 0.76844 0.56321 0.79281 0.0
N366 N 0.82419 0.59669 0.81952 0.0
C367 C 0.81799 0.55439 0.88416 0.0
H368 H 0.78861 0.63378 0.7129 0.0
H369 H 0.77506 0.49032 0.88454 0.0
C370 C 0.67801 0.62995 0.65329 0.0
N371 N 0.66142 0.50496 0.51523 0.0
C372 C 0.639 0.46486 0.54926 0.0
C373 C 0.6413 0.53317 0.44829 0.0
N374 N 0.6055 0.46657 0.50862 0.0
C375 C 0.60745 0.50836 0.44131 0.0
C376 C 0.67505 0.5138 0.81049 0.0
O377 O 0.70323 0.61687 0.71871 0.0
O378 O 0.68058 0.60201 0.57482 0.0
O379 O 0.66246 0.52184 0.72174 0.0
O380 O 0.70938 0.51245 0.81768 0.0
O381 O 0.71087 0.45615 0.60207 0.0
H382 H 0.64688 0.5756 0.42471 0.0
H383 H 0.64317 0.44757 0.62165 0.0
O384 O 0.76105 0.46163 0.6856 0.0
O385 O 0.77131 0.56195 0.59678 0.0
O386 O 0.73665 0.52834 0.48276 0.0
C387 C 0.77006 0.53844 0.5121 0.0
H388 H 0.8397 0.53135 0.92183 0.0
H389 H 0.58346 0.53033 0.41349 0.0
Co390 Co 0.0912 0.27022 0.70474 0.0
C391 C 0.08521 0.37407 0.62092 0.0
Co392 Co 0.1287 0.28108 0.59557 0.0
C393 C 1.03521 0.20319 0.7755 0.0
C394 C 0.04264 0.27692 0.86386 0.0
N395 N 0.05836 0.24577 0.79279 0.0
N396 N 1.00257 0.21226 0.81926 0.0
C397 C 1.0088 0.25447 0.8841 0.0
H398 H 1.03823 0.17524 0.71271 0.0
H399 H 0.05171 0.31855 0.88476 0.0
C400 C 0.14883 0.17909 0.65328 0.0
N401 N 0.16544 0.30409 0.51542 0.0
C402 C 0.18788 0.34412 0.54959 0.0
C403 C 0.18556 0.2759 0.44837 0.0
N404 N 0.22139 0.34232 0.50895 0.0
C405 C 0.21945 0.30063 0.44147 0.0
C406 C 0.15175 0.29521 0.81066 0.0
O407 O 0.12361 0.19217 0.71873 0.0
O408 O 0.14626 0.20702 0.57482 0.0
O409 O 0.16435 0.28715 0.72191 0.0
O410 O 0.11741 0.29659 0.81783 0.0
O411 O 0.11598 0.35287 0.60229 0.0
H412 H 0.17995 0.23349 0.42467 0.0
H413 H 0.18371 0.36143 0.622 0.0
O414 O 0.06574 0.34741 0.68561 0.0
O415 O 0.05554 0.24705 0.59675 0.0
O416 O 0.09021 0.28072 0.4828 0.0
C417 C 0.05679 0.27058 0.5121 0.0
H418 H 0.9871 0.27748 0.92187 0.0
H419 H 0.24343 0.27864 0.41361 0.0
Co420 Co 0.73562 0.27018 0.51142 0.0
C421 C 0.7416 0.37406 0.59505 0.0
Co422 Co 0.69813 0.28111 0.62066 0.0
C423 C 0.79162 0.20314 0.44059 0.0
C424 C 0.78418 0.27692 0.35231 0.0
N425 N 0.76846 0.24572 0.42333 0.0
N426 N 0.82424 0.21225 0.39673 0.0
C427 C 0.81803 0.2545 0.33199 0.0
H428 H 0.78864 0.1752 0.50339 0.0
H429 H 0.77509 0.31856 0.3315 0.0
C430 C 0.67801 0.17909 0.56293 0.0
N431 N 0.6614 0.30415 0.70088 0.0
C432 C 0.63896 0.3442 0.66678 0.0
C433 C 0.64129 0.27597 0.76791 0.0
N434 N 0.60545 0.34247 0.70741 0.0
C435 C 0.60742 0.30074 0.77482 0.0
C436 C 0.67506 0.29521 0.40559 0.0
O437 O 0.70324 0.19214 0.49751 0.0
O438 O 0.68055 0.20705 0.64137 0.0
O439 O 0.66247 0.28721 0.49436 0.0
O440 O 0.7094 0.29651 0.39837 0.0
O441 O 0.71085 0.35289 0.61397 0.0
H442 H 0.64689 0.23355 0.79155 0.0
H443 H 0.64313 0.36147 0.59435 0.0
O444 O 0.76107 0.34734 0.53042 0.0
O445 O 0.77131 0.24707 0.61939 0.0
O446 O 0.73663 0.28074 0.73337 0.0
C447 C 0.77005 0.27061 0.70405 0.0
H448 H 0.83974 0.27753 0.29429 0.0
H449 H 0.58345 0.27874 0.80265 0.0
Co450 Co 0.09121 0.53889 0.51144 0.0
C451 C 0.08526 0.43496 0.59495 0.0
Co452 Co 0.12874 0.52786 0.62042 0.0
C453 C 1.03518 0.60595 0.44087 0.0
C454 C 0.04268 0.53231 0.3523 0.0
N455 N 0.05836 0.56341 0.42347 0.0
N456 N 1.00255 0.59688 0.39706 0.0
C457 C 1.00883 0.55474 0.3321 0.0
H458 H 1.03816 0.63385 0.50373 0.0
H459 H 0.05177 0.49069 0.33132 0.0
C460 C 0.14886 0.62991 0.56292 0.0
N461 N 0.16548 0.50477 0.70048 0.0
C462 C 0.18796 0.4648 0.66622 0.0
C463 C 0.18554 0.53289 0.76771 0.0
N464 N 0.22143 0.46657 0.70698 0.0
C465 C 0.21943 0.50817 0.77463 0.0
C466 C 0.15174 0.51383 0.40536 0.0
O467 O 0.12363 0.6169 0.49751 0.0
O468 O 0.14631 0.60191 0.64131 0.0
O469 O 0.16437 0.52185 0.49408 0.0
O470 O 0.1174 0.51252 0.39827 0.0
O471 O 0.11604 0.45609 0.61354 0.0
H472 H 0.1799 0.57527 0.79148 0.0
H473 H 0.18384 0.44757 0.59373 0.0
O474 O 0.06572 0.46172 0.53054 0.0
O475 O 0.05557 0.56206 0.61951 0.0
O476 O 0.09023 0.52815 0.73324 0.0
C477 C 0.05681 0.53841 0.70405 0.0
H478 H 0.98715 0.53174 0.29426 0.0
H479 H 0.24338 0.53015 0.8026 0.0
Co480 Co 0.87875 0.0311 0.87068 0.0
C481 C 0.89887 0.92907 0.81292 0.0
Co482 Co 0.84126 1.0202 0.76147 0.0
C483 C 0.93788 0.0942 0.91683 0.0
C484 C 0.93559 1.0259 1.01787 0.0
N485 N 0.91546 0.05411 0.9509 0.0
N486 N 0.97138 0.09242 0.95746 0.0
C487 C 0.96945 0.05069 1.02483 0.0
H488 H 0.93372 0.11148 0.84442 0.0
H489 H 0.93 0.98347 1.04146 0.0
C490 C 0.83525 0.12407 0.84525 0.0
N491 N 0.80844 0.99578 0.67337 0.0
C492 C 0.78528 0.9532 0.69055 0.0
C493 C 0.79276 1.02697 0.60232 0.0
N494 N 0.75266 0.96227 0.64665 0.0
C495 C 0.75893 1.00454 0.58195 0.0
C496 C 0.80682 1.0206 0.95405 0.0
O497 O 0.86601 0.10289 0.86402 0.0
O498 O 0.81582 0.09737 0.78054 0.0
O499 O 0.80558 0.99706 0.8694 0.0
O500 O 0.84023 0.03072 0.98338 0.0
O501 O 0.87365 0.94215 0.74749 0.0
H502 H 0.80185 0.06861 0.5815 0.0
H503 H 0.78825 0.92525 0.75332 0.0
O504 O 0.89632 0.95703 0.89136 0.0
O505 O 0.91443 0.03719 0.7444 0.0
O506 O 0.86749 0.04655 0.64847 0.0
C507 C 0.90183 0.0452 0.65565 0.0
H508 H 0.99344 1.02871 1.05264 0.0
H509 H 0.73724 1.02756 0.54417 0.0
Co510 Co 0.44816 0.27791 0.87051 0.0
C511 C 0.42805 0.37993 0.81287 0.0
Co512 Co 0.48566 0.28879 0.76138 0.0
C513 C 0.38897 0.21485 0.91648 0.0
C514 C 0.39132 0.28302 1.01775 0.0
N515 N 0.41142 0.25487 0.95064 0.0
N516 N 0.35547 0.21656 0.9572 0.0
C517 C 0.35745 0.25826 1.02469 0.0
H518 H 0.39313 0.19757 0.84405 0.0
H519 H 0.39693 0.32543 1.04147 0.0
C520 C 0.49165 0.18494 0.84517 0.0
N521 N 0.51851 0.31325 0.67333 0.0
C522 C 0.54163 0.35586 0.69065 0.0
C523 C 0.53424 0.28209 0.60228 0.0
N524 N 0.57427 0.34677 0.64687 0.0
C525 C 0.56809 0.30454 0.58204 0.0
C526 C 0.52006 0.28841 0.95403 0.0
O527 O 0.46087 0.20612 0.86373 0.0
O528 O 0.51114 0.2116 0.78051 0.0
O529 O 0.52132 0.31195 0.86938 0.0
O530 O 0.48664 0.27824 0.98329 0.0
O531 O 0.45326 0.36683 0.74741 0.0
H532 H 0.52518 0.24045 0.58139 0.0
H533 H 0.53862 0.3838 0.75345 0.0
O534 O 0.43059 0.35196 0.8913 0.0
O535 O 0.41252 0.27185 0.74418 0.0
O536 O 0.45947 0.26241 0.64827 0.0
C537 C 0.42512 0.26381 0.65543 0.0
H538 H 0.33349 0.28024 1.05262 0.0
H539 H 0.58982 0.28154 0.54433 0.0
Co540 Co 0.87873 0.27795 0.84543 0.0
C541 C 0.89883 0.37998 0.90321 0.0
Co542 Co 0.84124 0.28884 0.95471 0.0
C543 C 0.93788 0.21487 0.79927 0.0
C544 C 0.93559 0.28317 0.69822 0.0
N545 N 0.91545 0.25494 0.76518 0.0
N546 N 0.97139 0.2167 0.75871 0.0
C547 C 0.96947 0.25843 0.69133 0.0
H548 H 0.9337 0.19758 0.87166 0.0
H549 H 0.92998 0.32559 0.67461 0.0
C550 C 0.83527 0.18497 0.87103 0.0
N551 N 0.8084 0.31328 1.04283 0.0
C552 C 0.78523 0.35584 1.0256 0.0
C553 C 0.79271 0.28209 1.11388 0.0
N554 N 0.7526 0.34675 1.06945 0.0
C555 C 0.75887 0.30451 1.1342 0.0
C556 C 0.80679 0.28844 0.7621 0.0
O557 O 0.866 0.20616 0.85207 0.0
O558 O 0.8158 0.21167 0.93569 0.0
O559 O 0.80554 0.31197 0.84677 0.0
O560 O 0.84022 0.27834 0.73274 0.0
O561 O 0.87362 0.36689 0.96866 0.0
H562 H 0.8018 0.24046 1.13471 0.0
H563 H 0.78821 0.38379 0.96282 0.0
O564 O 0.89629 0.35202 0.82476 0.0
O565 O 0.9144 0.27184 0.97172 0.0
O566 O 0.86747 0.2625 1.06772 0.0
C567 C 0.90181 0.26383 1.06049 0.0
H568 H 0.99346 0.28043 0.66356 0.0
H569 H 0.73717 0.28148 1.17197 0.0
Co570 Co 0.44814 0.03113 0.84575 0.0
C571 C 0.42805 0.92907 0.90326 0.0
Co572 Co 0.48568 1.02014 0.95473 0.0
C573 C 0.38892 0.09419 0.79989 0.0
C574 C 0.39135 1.02609 0.69846 0.0
N575 N 0.4114 0.05421 0.76568 0.0
N576 N 0.35544 0.09249 0.7591 0.0
C577 C 0.35748 0.05085 0.69151 0.0
H578 H 0.39304 0.11142 0.87237 0.0
H579 H 0.39698 0.9837 0.6747 0.0
C580 C 0.49162 0.12405 0.87119 0.0
N581 N 0.51853 0.99563 1.04273 0.0
C582 C 0.54169 0.95306 1.02533 0.0
C583 C 0.53423 1.02676 1.11386 0.0
N584 N 0.5743 0.96217 1.06914 0.0
C585 C 0.56808 1.00434 1.13407 0.0
C586 C 0.52007 1.0206 0.76212 0.0
O587 O 0.46083 0.10291 0.85262 0.0
O588 O 0.51116 0.09731 0.9356 0.0
O589 O 0.52132 0.99697 0.84668 0.0
O590 O 0.48665 0.03084 0.73294 0.0
O591 O 0.45327 0.94212 0.96869 0.0
H592 H 0.52514 0.06839 1.1348 0.0
H593 H 0.53871 0.92516 0.96249 0.0
O594 O 0.43058 0.95708 0.82488 0.0
O595 O 0.41251 0.03715 0.97208 0.0
O596 O 0.45948 0.04652 1.06788 0.0
C597 C 0.42514 0.04517 1.06079 0.0
H598 H 0.33353 1.02887 0.6635 0.0
H599 H 0.58978 1.02734 1.17183 0.0
Co600 Co 0.23562 0.03882 0.70471 0.0
C601 C 0.24163 0.93495 0.62091 0.0
Co602 Co 0.19814 1.02793 0.59549 0.0
C603 C 0.2916 0.10582 0.77562 0.0
C604 C 0.28415 0.032 0.86381 0.0
N605 N 0.26845 0.06323 0.79281 0.0
N606 N 0.3242 0.0967 0.81949 0.0
C607 C 0.31799 0.05441 0.88416 0.0
H608 H 0.28863 0.13378 0.71285 0.0
H609 H 0.27506 0.99036 0.88458 0.0
C610 C 0.17802 0.12995 0.65326 0.0
N611 N 0.16142 1.00491 0.51526 0.0
C612 C 0.13901 0.96482 0.54933 0.0
C613 C 0.14129 0.03313 0.44829 0.0
N614 N 0.10551 0.96661 0.50872 0.0
C615 C 0.10743 1.00835 0.44134 0.0
C616 C 0.17505 1.01382 0.81053 0.0
O617 O 0.20323 0.11687 0.7187 0.0
O618 O 0.18057 0.10199 0.57482 0.0
O619 O 0.16246 1.02183 0.72178 0.0
O620 O 0.20939 1.01247 0.81771 0.0
O621 O 0.21087 0.95613 0.60214 0.0
H622 H 0.14688 0.07556 0.4247 0.0
H623 H 0.14317 0.94754 0.62174 0.0
O624 O 0.26106 0.96164 0.68563 0.0
O625 O 0.27131 0.06196 0.59678 0.0
O626 O 0.23665 1.02831 0.48278 0.0
C627 C 0.27007 0.03842 0.51212 0.0
H628 H 0.3397 0.03138 0.92184 0.0
H629 H 0.08344 0.03032 0.41354 0.0
Co630 Co 0.59122 0.77023 0.7048 0.0
C631 C 0.58523 0.87408 0.621 0.0
Co632 Co 0.62872 0.78111 0.59567 0.0
C633 C 0.53525 0.70317 0.77553 0.0
C634 C 0.54264 0.77694 0.8639 0.0
N635 N 0.55837 0.74577 0.79284 0.0
N636 N 0.50261 0.71227 0.81929 0.0
C637 C 0.50879 0.75449 0.88413 0.0
H638 H 0.53826 0.67523 0.71273 0.0
H639 H 0.5517 0.81857 0.88478 0.0
C640 C 0.64883 0.67909 0.65331 0.0
N641 N 0.66547 0.80414 0.51553 0.0
C642 C 0.68792 0.84416 0.54969 0.0
C643 C 0.68556 0.77598 0.44842 0.0
N644 N 0.72142 0.84244 0.50897 0.0
C645 C 0.71943 0.80074 0.44149 0.0
C646 C 0.65176 0.79521 0.81074 0.0
O647 O 0.62362 0.69219 0.71877 0.0
O648 O 0.64629 0.70705 0.57488 0.0
O649 O 0.66436 0.78717 0.72199 0.0
O650 O 0.61742 0.79661 0.8179 0.0
O651 O 0.61601 0.8529 0.60243 0.0
H652 H 0.67995 0.73358 0.42471 0.0
H653 H 0.68375 0.86144 0.62212 0.0
O654 O 0.56575 0.84742 0.68566 0.0
O655 O 0.55556 0.74706 0.5968 0.0
O656 O 0.59024 0.78077 0.48289 0.0
C657 C 0.55682 0.77061 0.51215 0.0
H658 H 0.48706 0.77749 0.92183 0.0
H659 H 0.7434 0.77875 0.41356 0.0
Co660 Co 0.23565 0.77017 0.51146 0.0
C661 C 0.24162 0.87405 0.59512 0.0
Co662 Co 0.19815 0.78108 0.62073 0.0
C663 C 0.29165 0.70316 0.44058 0.0
C664 C 0.28417 0.7769 0.35229 0.0
N665 N 0.26848 0.74573 0.42336 0.0
N666 N 0.32428 0.71224 0.39672 0.0
C667 C 0.31802 0.75447 0.33196 0.0
H668 H 0.28867 0.67522 0.50338 0.0
H669 H 0.27508 0.81854 0.33145 0.0
C670 C 0.17805 0.67905 0.56297 0.0
N671 N 0.16143 0.80409 0.70098 0.0
C672 C 0.139 0.84416 0.66688 0.0
C673 C 0.14129 0.77587 0.76794 0.0
N674 N 0.10549 0.84234 0.70745 0.0
C675 C 0.10741 0.80061 0.77484 0.0
C676 C 0.17508 0.79519 0.40567 0.0
O677 O 0.20326 0.69213 0.49752 0.0
O678 O 0.18058 0.70701 0.64141 0.0
O679 O 0.16248 0.78718 0.49444 0.0
O680 O 0.20942 0.79651 0.39845 0.0
O681 O 0.21088 0.85287 0.61408 0.0
H682 H 0.1469 0.73345 0.79156 0.0
H683 H 0.14318 0.86145 0.59448 0.0
O684 O 0.26108 0.84734 0.53047 0.0
O685 O 0.27133 0.74705 0.61941 0.0
O686 O 0.23666 0.78069 0.73342 0.0
C687 C 0.27008 0.77059 0.70407 0.0
H688 H 0.33971 0.7775 0.29418 0.0
H689 H 0.08343 0.77861 0.80262 0.0
Co690 Co 0.5912 0.03888 0.51144 0.0
C691 C 0.58526 0.93497 0.59499 0.0
Co692 Co 0.62873 1.02789 0.62045 0.0
C693 C 0.5352 0.10596 0.44084 0.0
C694 C 0.54266 0.03226 0.35231 0.0
N695 N 0.55836 0.06339 0.42344 0.0
N696 N 0.50258 0.09686 0.39703 0.0
C697 C 0.5088 0.05469 0.3321 0.0
H698 H 0.53818 0.13387 0.50369 0.0
H699 H 0.55174 0.99064 0.33137 0.0
C700 C 0.64883 0.12995 0.56292 0.0
N701 N 0.66547 1.00482 0.70052 0.0
C702 C 0.68795 0.96483 0.66628 0.0
C703 C 0.68555 0.03296 0.76771 0.0
N704 N 0.72142 0.96661 0.70703 0.0
C705 C 0.71943 1.00823 0.77463 0.0
C706 C 0.65174 1.01385 0.4054 0.0
O707 O 0.62361 0.1169 0.49749 0.0
O708 O 0.6463 0.10195 0.64131 0.0
O709 O 0.66437 1.02187 0.49411 0.0
O710 O 0.6174 1.01251 0.3983 0.0
O711 O 0.61604 0.95612 0.61359 0.0
H712 H 0.67991 0.07535 0.79146 0.0
H713 H 0.68382 0.94758 0.59382 0.0
O714 O 0.56572 0.96171 0.53056 0.0
O715 O 0.55556 0.06205 0.61949 0.0
O716 O 0.59023 1.02819 0.73325 0.0
C717 C 0.55681 0.03841 0.70405 0.0
H718 H 0.4871 0.03169 0.29434 0.0
H719 H 0.74339 0.03021 0.80259 0.0
Co720 Co 0.87873 0.53104 0.37077 0.0
C721 C 0.89884 0.42903 0.31292 0.0
Co722 Co 0.84126 0.5202 0.2615 0.0
C723 C 0.93786 0.59414 0.417 0.0
C724 C 0.9356 0.52576 0.5179 0.0
N725 N 0.91545 0.55401 0.45102 0.0
N726 N 0.97136 0.59234 0.45757 0.0
C727 C 0.96946 0.55056 0.52487 0.0
H728 H 0.93368 0.61145 0.34463 0.0
H729 H 0.93002 0.48332 0.54146 0.0
C730 C 0.83525 0.62405 0.34537 0.0
N731 N 0.80844 0.49582 1.17337 0.0
C732 C 0.78528 0.45323 1.19051 0.0
C733 C 0.79276 0.52703 1.10235 0.0
N734 N 0.75266 0.46231 1.14663 0.0
C735 C 0.75893 0.5046 1.08197 0.0
C736 C 0.8068 0.52057 0.45408 0.0
O737 O 0.866 0.60285 0.36417 0.0
O738 O 0.81583 0.59738 0.28061 0.0
O739 O 0.80556 0.49705 0.3694 0.0
O740 O 0.84022 0.53064 0.48345 0.0
O741 O 0.87364 0.44214 0.24748 0.0
H742 H 0.80185 0.56867 1.08156 0.0
H743 H 0.78826 0.42526 0.25325 0.0
O744 O 0.89629 0.45697 0.39138 0.0
O745 O 0.91442 0.53716 0.24449 0.0
O746 O 0.8675 0.54657 1.14854 0.0
C747 C 0.90184 0.5452 1.15574 0.0
H748 H 0.99346 0.52859 0.55262 0.0
H749 H 0.73724 0.52763 1.04421 0.0
Co750 Co 0.44817 0.77791 0.37054 0.0
C751 C 0.42806 0.87993 0.31291 0.0
Co752 Co 0.48568 0.78879 0.26141 0.0
C753 C 0.38899 0.71485 0.41647 0.0
C754 C 0.39132 0.78303 0.51777 0.0
N755 N 0.41143 0.75487 0.45067 0.0
N756 N 0.35549 0.71663 0.45715 0.0
C757 C 0.35744 0.7583 0.52467 0.0
H758 H 0.39316 0.69756 0.34405 0.0
H759 H 0.39693 0.82543 0.54149 0.0
C760 C 0.49166 0.68494 0.34518 0.0
N761 N 0.51852 0.81327 1.17337 0.0
C762 C 0.54165 0.85587 1.1907 0.0
C763 C 0.53426 0.78211 1.1023 0.0
N764 N 0.57428 0.84678 1.14692 0.0
C765 C 0.5681 0.80456 1.08207 0.0
C766 C 0.52008 0.7884 0.45406 0.0
O767 O 0.46089 0.70613 0.36377 0.0
O768 O 0.51115 0.7116 0.28052 0.0
O769 O 0.52133 0.81195 0.36941 0.0
O770 O 0.48666 0.77825 0.48333 0.0
O771 O 0.45327 0.86684 0.24745 0.0
H772 H 0.5252 0.74047 1.0814 0.0
H773 H 0.53864 0.8838 0.25351 0.0
O774 O 0.4306 0.85196 0.39134 0.0
O775 O 0.41253 0.77185 0.24421 0.0
O776 O 0.45948 0.76243 1.1483 0.0
C777 C 0.42514 0.76382 1.15546 0.0
H778 H 0.33346 0.78028 0.55257 0.0
H779 H 0.58983 0.78156 1.04435 0.0
Co780 Co 0.87875 0.7779 0.34553 0.0
C781 C 0.89886 0.87994 0.40324 0.0
Co782 Co 0.84125 0.78884 0.45478 0.0
C783 C 0.93791 0.71481 0.29941 0.0
C784 C 0.9356 0.78306 1.19828 0.0
N785 N 0.91547 0.75486 0.2653 0.0
N786 N 0.97141 0.71661 0.25881 0.0
C787 C 0.96948 0.75832 1.19137 0.0
H788 H 0.93374 0.69754 0.37184 0.0
H789 H 0.92999 0.82548 1.17465 0.0
C790 C 0.83528 0.68495 0.37116 0.0
N791 N 0.80841 0.81329 0.54287 0.0
C792 C 0.78525 0.85586 0.52559 0.0
C793 C 0.7927 0.78208 0.61388 0.0
N794 N 0.75263 0.84672 0.56942 0.0
C795 C 0.75884 0.80447 0.63417 0.0
C796 C 0.80682 0.7884 0.26215 0.0
O797 O 0.86602 0.70612 0.35221 0.0
O798 O 0.81581 0.71167 0.43579 0.0
O799 O 0.80557 0.81195 0.34681 0.0
O800 O 0.84024 0.77827 1.23281 0.0
O801 O 0.87363 0.86688 0.46869 0.0
H802 H 0.80179 0.74044 0.63469 0.0
H803 H 0.78822 0.88379 0.4628 0.0
O804 O 0.89632 0.85196 0.32482 0.0
O805 O 0.91441 0.77181 0.47183 0.0
O806 O 0.86748 0.76251 0.56783 0.0
C807 C 0.90182 0.76383 0.56061 0.0
H808 H 0.99346 0.78032 1.16358 0.0
H809 H 0.73713 0.78143 0.67184 0.0
Co810 Co 0.44815 0.53114 0.34573 0.0
C811 C 0.42804 0.42907 0.40324 0.0
Co812 Co 0.48568 0.52013 0.45472 0.0
C813 C 0.38892 0.59418 0.29988 0.0
C814 C 0.39136 0.5261 1.19843 0.0
N815 N 0.41141 0.55421 0.26566 0.0
N816 N 0.35544 0.59247 0.2591 0.0
C817 C 0.35748 0.55084 1.1915 0.0
H818 H 0.39304 0.61141 0.37237 0.0
H819 H 0.39699 0.48371 1.17467 0.0
C820 C 0.49162 0.62404 0.37117 0.0
N821 N 0.51852 0.49562 0.54271 0.0
C822 C 0.54168 0.45306 0.52532 0.0
C823 C 0.53422 0.52675 0.61385 0.0
N824 N 0.5743 0.46216 0.56913 0.0
C825 C 0.56807 0.50433 0.63407 0.0
C826 C 0.52007 0.52059 0.26211 0.0
O827 O 0.46084 0.60291 0.3526 0.0
O828 O 0.51116 0.5973 0.43559 0.0
O829 O 0.52131 0.49695 0.34667 0.0
O830 O 0.48665 0.53084 1.23292 0.0
O831 O 0.45326 0.44212 0.46867 0.0
H832 H 0.52513 0.56837 0.63479 0.0
H833 H 0.53871 0.42515 0.46247 0.0
O834 O 0.43058 0.45708 0.32486 0.0
O835 O 0.41252 0.53715 0.47206 0.0
O836 O 0.45949 0.54651 0.56786 0.0
C837 C 0.42514 0.54517 0.56076 0.0
H838 H 0.33353 0.52885 1.16349 0.0
H839 H 0.58977 0.52733 0.67183 0.0
Co840 Co 0.23562 0.53881 1.20468 0.0
C841 C 0.24163 0.43497 1.12079 0.0
Co842 Co 0.19815 0.52798 1.0954 0.0
C843 C 0.29159 0.60579 0.27565 0.0
C844 C 0.28415 0.53195 0.36377 0.0
N845 N 0.26845 0.56319 0.29281 0.0
N846 N 0.3242 0.59666 0.3195 0.0
C847 C 0.31799 0.55435 0.38414 0.0
H848 H 0.28862 0.63377 1.21291 0.0
H849 H 0.27506 0.4903 0.38451 0.0
C850 C 0.17804 0.62999 1.15326 0.0
N851 N 0.16143 0.50501 1.01514 0.0
C852 C 0.13903 0.46489 1.04916 0.0
C853 C 0.14129 0.53326 0.94826 0.0
N854 N 0.10552 0.46669 1.00859 0.0
C855 C 0.10742 0.50847 0.9413 0.0
C856 C 0.17505 0.51382 0.31044 0.0
O857 O 0.20324 0.61687 1.2187 0.0
O858 O 0.1806 0.60205 1.07479 0.0
O859 O 0.16246 0.52185 1.22169 0.0
O860 O 0.20939 0.51245 0.31764 0.0
O861 O 0.21088 0.45617 1.10198 0.0
H862 H 0.14687 0.5757 0.9247 0.0
H863 H 0.14321 0.44758 1.12154 0.0
O864 O 0.26105 0.46163 1.18557 0.0
O865 O 0.27132 0.56196 1.09678 0.0
O866 O 0.23667 0.52838 0.98271 0.0
C867 C 0.27008 0.53845 1.01209 0.0
H868 H 0.3397 0.5313 0.4218 0.0
H869 H 0.08343 0.53045 0.91355 0.0
Co870 Co 0.59121 0.27023 1.20477 0.0
C871 C 0.58522 0.37408 1.12098 0.0
Co872 Co 0.62871 0.2811 1.09562 0.0
C873 C 0.53523 0.20316 0.27548 0.0
C874 C 0.54263 0.27692 0.36387 0.0
N875 N 0.55836 0.24576 0.29281 0.0
N876 N 0.5026 0.21226 0.31926 0.0
C877 C 0.50878 0.25447 0.38411 0.0
H878 H 0.53824 0.17522 1.21268 0.0
H879 H 0.55169 0.31856 0.38476 0.0
C880 C 0.64882 0.17909 1.15327 0.0
N881 N 0.66545 0.30414 1.01549 0.0
C882 C 0.6879 0.34416 1.04968 0.0
C883 C 0.68556 0.27596 0.94839 0.0
N884 N 0.72139 0.34236 1.00901 0.0
C885 C 0.71945 0.30069 0.9415 0.0
C886 C 0.65175 0.2952 0.3107 0.0
O887 O 0.62361 0.19218 1.21873 0.0
O888 O 0.64628 0.20705 1.07484 0.0
O889 O 0.66435 0.28716 1.22195 0.0
O890 O 0.6174 0.2966 0.31787 0.0
O891 O 0.61599 0.35289 1.10238 0.0
H892 H 0.67995 0.23356 0.92468 0.0
H893 H 0.68372 0.36145 1.1221 0.0
O894 O 0.56574 0.34742 1.18565 0.0
O895 O 0.55555 0.24706 1.09676 0.0
O896 O 0.59022 0.28076 0.98284 0.0
C897 C 0.5568 0.27061 1.01212 0.0
H898 H 0.48705 0.27747 0.42182 0.0
H899 H 0.74342 0.2787 0.91361 0.0
Co900 Co 0.23563 0.27018 1.01139 0.0
C901 C 0.2416 0.37407 1.095 0.0
Co902 Co 0.19813 0.28112 1.12064 0.0
C903 C 0.29164 0.20315 0.9406 0.0
C904 C 0.28418 0.27692 0.85229 0.0
N905 N 0.26847 0.24572 0.92332 0.0
N906 N 0.32426 0.21228 0.89676 0.0
C907 C 0.31804 0.25452 0.832 0.0
H908 H 0.28866 0.17521 1.0034 0.0
H909 H 0.27509 0.31855 0.83147 0.0
C910 C 0.17802 0.17908 1.06294 0.0
N911 N 0.16141 0.30417 1.20086 0.0
C912 C 0.13897 0.34423 1.16674 0.0
C913 C 0.14129 0.27598 0.26789 0.0
N914 N 0.10547 0.34242 1.20736 0.0
C915 C 0.10741 0.30072 0.2748 0.0
C916 C 0.17507 0.29519 0.90556 0.0
O917 O 0.20325 0.19214 0.9975 0.0
O918 O 0.18055 0.20706 1.14136 0.0
O919 O 0.16247 0.28721 0.99433 0.0
O920 O 0.20941 0.29649 0.89834 0.0
O921 O 0.21086 0.35291 1.11394 0.0
H922 H 0.14689 0.23356 0.29152 0.0
H923 H 0.14314 0.36149 1.09431 0.0
O924 O 0.26107 0.34735 1.03038 0.0
O925 O 0.27131 0.24707 1.11937 0.0
O926 O 0.23664 0.28076 0.23336 0.0
C927 C 0.27006 0.27062 1.20403 0.0
H928 H 0.33975 0.27756 0.79431 0.0
H929 H 0.08343 0.27872 0.3026 0.0
Co930 Co 0.59121 0.53889 1.01145 0.0
C931 C 0.58526 0.43497 1.09499 0.0
Co932 Co 0.62873 0.52788 1.12045 0.0
C933 C 0.5352 0.60597 0.94085 0.0
C934 C 0.54266 0.53228 0.85231 0.0
N935 N 0.55836 0.5634 0.92346 0.0
N936 N 0.50259 0.59687 0.89703 0.0
C937 C 0.50881 0.55471 0.83209 0.0
H938 H 0.53818 0.63387 1.0037 0.0
H939 H 0.55175 0.49065 0.83137 0.0
C940 C 0.64884 0.62995 1.06294 0.0
N941 N 0.66547 0.50481 1.20052 0.0
C942 C 0.68795 0.46483 1.16627 0.0
C943 C 0.68554 0.53294 0.26773 0.0
N944 N 0.72143 0.46662 1.20701 0.0
C945 C 0.71943 0.50823 0.27463 0.0
C946 C 0.65174 0.51385 0.90541 0.0
O947 O 0.62362 0.6169 0.9975 0.0
O948 O 0.6463 0.60194 1.14132 0.0
O949 O 0.66437 0.52187 0.99412 0.0
O950 O 0.6174 0.51251 0.89831 0.0
O951 O 0.61604 0.45611 1.11359 0.0
H952 H 0.6799 0.57533 0.29149 0.0
H953 H 0.68383 0.44759 1.0938 0.0
O954 O 0.56572 0.46172 1.03057 0.0
O955 O 0.55557 0.56206 1.1195 0.0
O956 O 0.59023 0.52818 0.23325 0.0
C957 C 0.55681 0.53841 1.20405 0.0
H958 H 0.48711 0.53171 0.79432 0.0
H959 H 0.74339 0.53021 0.3026 0.0
loop_
_geom_bond_atom_site_label_1
_geom_bond_atom_site_label_2
_geom_bond_distance
_geom_bond_site_symmetry_2
_ccdc_geom_bond_type
Co0 N5 2.057 . S
Co0 O17 2.021 . S
Co0 O20 2.062 . S
Co0 O24 2.117 1_545 S
Co0 O25 2.020 . S
C1 O21 1.259 . S
C1 O24 1.258 . S
Co2 N11 2.057 1_564 S
Co2 O18 2.117 1_565 S
Co2 O19 2.020 . S
Co2 O21 2.021 . S
Co2 O26 2.062 1_564 S
C3 N5 1.318 . S
C3 N6 1.347 . S
C3 H8 0.931 . S
C4 N5 1.372 1_565 S
C4 C7 1.350 . S
C4 H9 0.930 . S
N5 Co0 2.057 . S
N5 C3 1.318 . S
N5 C4 1.372 1_545 S
N6 C3 1.347 . S
N6 C7 1.373 1_545 S
C7 C4 1.350 . S
C7 N6 1.373 1_565 S
C7 H28 0.931 . S
H8 C3 0.931 . S
H9 C4 0.930 . S
C10 O17 1.259 . S
C10 O18 1.258 . S
N11 Co2 2.057 1_546 S
N11 C12 1.316 1_545 S
N11 C13 1.375 . S
C12 N11 1.316 1_565 S
C12 N14 1.347 . S
C12 H23 0.931 . S
C13 N11 1.375 . S
C13 C15 1.350 . S
C13 H22 0.930 1_556 S
N14 C12 1.347 . S
N14 C15 1.373 1_565 S
C15 C13 1.350 . S
C15 N14 1.373 1_545 S
C15 H29 0.931 . S
C16 O19 1.256 . S
C16 O20 1.255 1_565 S
O17 Co0 2.021 . S
O17 C10 1.259 . S
O18 Co2 2.117 1_545 S
O18 C10 1.258 . S
O19 Co2 2.020 . S
O19 C16 1.256 . S
O20 Co0 2.062 . S
O20 C16 1.255 1_545 S
O21 C1 1.259 . S
O21 Co2 2.021 . S
H22 C13 0.930 1_554 S
H23 C12 0.931 . S
O24 Co0 2.117 1_565 S
O24 C1 1.258 . S
O25 Co0 2.020 . S
O25 C27 1.256 1_554 S
O26 Co2 2.062 1_546 S
O26 C27 1.255 . S
C27 O25 1.256 1_556 S
C27 O26 1.255 . S
H28 C7 0.931 . S
H29 C15 0.931 . S
Co30 N35 2.057 . S
Co30 O47 2.021 . S
Co30 O50 2.062 . S
Co30 O54 2.117 . S
Co30 O55 2.020 . S
C31 O51 1.259 . S
C31 O54 1.258 . S
Co32 N41 2.057 1_554 S
Co32 O48 2.117 . S
Co32 O49 2.020 . S
Co32 O51 2.021 . S
Co32 O56 2.062 1_554 S
C33 N35 1.316 . S
C33 N36 1.347 . S
C33 H38 0.931 . S
C34 N35 1.375 . S
C34 C37 1.350 . S
C34 H39 0.930 . S
N35 Co30 2.057 . S
N35 C33 1.316 . S
N35 C34 1.375 . S
N36 C33 1.347 . S
N36 C37 1.373 . S
C37 C34 1.350 . S
C37 N36 1.373 . S
C37 H58 0.931 . S
H38 C33 0.931 . S
H39 C34 0.930 . S
C40 O47 1.259 . S
C40 O48 1.258 . S
N41 Co32 2.057 1_556 S
N41 C42 1.316 1_655 S
N41 C43 1.375 1_655 S
C42 N41 1.316 1_455 S
C42 N44 1.347 . S
C42 H53 0.931 . S
C43 N41 1.375 1_455 S
C43 C45 1.350 . S
C43 H52 0.930 1_556 S
N44 C42 1.347 . S
N44 C45 1.373 . S
C45 C43 1.350 . S
C45 N44 1.373 . S
C45 H59 0.931 . S
C46 O49 1.256 . S
C46 O50 1.255 . S
O47 Co30 2.021 . S
O47 C40 1.259 . S
O48 Co32 2.117 . S
O48 C40 1.258 . S
O49 Co32 2.020 . S
O49 C46 1.256 . S
O50 Co30 2.062 . S
O50 C46 1.255 . S
O51 C31 1.259 . S
O51 Co32 2.021 . S
H52 C43 0.930 1_554 S
H53 C42 0.931 . S
O54 Co30 2.117 . S
O54 C31 1.258 . S
O55 Co30 2.020 . S
O55 C57 1.256 1_554 S
O56 Co32 2.062 1_556 S
O56 C57 1.255 . S
C57 O55 1.256 1_556 S
C57 O56 1.255 . S
H58 C37 0.931 . S
H59 C45 0.931 . S
Co60 N65 2.057 . S
Co60 O77 2.021 . S
Co60 O80 2.062 . S
Co60 O84 2.117 . S
Co60 O85 2.020 . S
C61 O81 1.259 . S
C61 O84 1.258 . S
Co62 N71 2.057 . S
Co62 O78 2.117 . S
Co62 O79 2.020 . S
Co62 O81 2.021 . S
Co62 O86 2.062 . S
C63 N65 1.316 . S
C63 N66 1.347 . S
C63 H68 0.931 . S
C64 N65 1.375 . S
C64 C67 1.350 . S
C64 H69 0.930 . S
N65 Co60 2.057 . S
N65 C63 1.316 . S
N65 C64 1.375 . S
N66 C63 1.347 . S
N66 C67 1.373 . S
C67 C64 1.350 . S
C67 N66 1.373 . S
C67 H88 0.931 . S
H68 C63 0.931 . S
H69 C64 0.930 . S
C70 O77 1.259 . S
C70 O78 1.258 . S
N71 Co62 2.057 . S
N71 C72 1.316 . S
N71 C73 1.375 . S
C72 N71 1.316 . S
C72 N74 1.347 . S
C72 H83 0.931 . S
C73 N71 1.375 . S
C73 C75 1.350 . S
C73 H82 0.930 . S
N74 C72 1.347 . S
N74 C75 1.373 . S
C75 C73 1.350 . S
C75 N74 1.373 . S
C75 H89 0.931 . S
C76 O79 1.256 . S
C76 O80 1.255 . S
O77 Co60 2.021 . S
O77 C70 1.259 . S
O78 Co62 2.117 . S
O78 C70 1.258 . S
O79 Co62 2.020 . S
O79 C76 1.256 . S
O80 Co60 2.062 . S
O80 C76 1.255 . S
O81 C61 1.259 . S
O81 Co62 2.021 . S
H82 C73 0.930 . S
H83 C72 0.931 . S
O84 Co60 2.117 . S
O84 C61 1.258 . S
O85 Co60 2.020 . S
O85 C87 1.256 . S
O86 Co62 2.062 . S
O86 C87 1.255 . S
C87 O85 1.256 . S
C87 O86 1.255 . S
H88 C67 0.931 . S
H89 C75 0.931 . S
Co90 N95 2.057 . S
Co90 O107 2.021 . S
Co90 O110 2.062 . S
Co90 O114 2.117 1_545 S
Co90 O115 2.020 . S
C91 O111 1.259 . S
C91 O114 1.258 . S
Co92 N101 2.057 1_565 S
Co92 O108 2.117 1_565 S
Co92 O109 2.020 . S
Co92 O111 2.021 . S
Co92 O116 2.062 1_565 S
C93 N95 1.318 . S
C93 N96 1.347 . S
C93 H98 0.931 . S
C94 N95 1.372 1_565 S
C94 C97 1.350 . S
C94 H99 0.930 . S
N95 Co90 2.057 . S
N95 C93 1.318 . S
N95 C94 1.372 1_545 S
N96 C93 1.347 . S
N96 C97 1.373 1_545 S
C97 C94 1.350 . S
C97 N96 1.373 1_565 S
C97 H118 0.931 . S
H98 C93 0.931 . S
H99 C94 0.930 . S
C100 O107 1.259 . S
C100 O108 1.258 . S
N101 Co92 2.057 1_545 S
N101 C102 1.316 1_645 S
N101 C103 1.375 1_655 S
C102 N101 1.316 1_465 S
C102 N104 1.347 . S
C102 H113 0.931 . S
C103 N101 1.375 1_455 S
C103 C105 1.350 . S
C103 H112 0.930 . S
N104 C102 1.347 . S
N104 C105 1.373 1_565 S
C105 C103 1.350 . S
C105 N104 1.373 1_545 S
C105 H119 0.931 . S
C106 O109 1.256 . S
C106 O110 1.255 1_565 S
O107 Co90 2.021 . S
O107 C100 1.259 . S
O108 Co92 2.117 1_545 S
O108 C100 1.258 . S
O109 Co92 2.020 . S
O109 C106 1.256 . S
O110 Co90 2.062 . S
O110 C106 1.255 1_545 S
O111 C91 1.259 . S
O111 Co92 2.021 . S
H112 C103 0.930 . S
H113 C102 0.931 . S
O114 Co90 2.117 1_565 S
O114 C91 1.258 . S
O115 Co90 2.020 . S
O115 C117 1.256 . S
O116 Co92 2.062 1_545 S
O116 C117 1.255 . S
C117 O115 1.256 . S
C117 O116 1.255 . S
H118 C97 0.931 . S
H119 C105 0.931 . S
Co120 N125 2.057 1_546 S
Co120 O137 2.021 . S
Co120 O140 2.062 1_546 S
Co120 O144 2.117 1_545 S
Co120 O145 2.020 . S
C121 O141 1.259 . S
C121 O144 1.258 . S
Co122 N131 2.057 . S
Co122 O138 2.117 1_565 S
Co122 O139 2.020 . S
Co122 O141 2.021 . S
Co122 O146 2.062 . S
C123 N125 1.316 1_545 S
C123 N126 1.347 . S
C123 H128 0.931 . S
C124 N125 1.375 . S
C124 C127 1.350 . S
C124 H129 0.930 1_554 S
N125 Co120 2.057 1_564 S
N125 C123 1.316 1_565 S
N125 C124 1.375 . S
N126 C123 1.347 . S
N126 C127 1.373 1_545 S
C127 C124 1.350 . S
C127 N126 1.373 1_565 S
C127 H148 0.931 . S
H128 C123 0.931 . S
H129 C124 0.930 1_556 S
C130 O137 1.259 . S
C130 O138 1.258 . S
N131 Co122 2.057 . S
N131 C132 1.318 . S
N131 C133 1.372 1_565 S
C132 N131 1.318 . S
C132 N134 1.347 . S
C132 H143 0.931 . S
C133 N131 1.372 1_545 S
C133 C135 1.350 . S
C133 H142 0.930 . S
N134 C132 1.347 . S
N134 C135 1.373 1_565 S
C135 C133 1.350 . S
C135 N134 1.373 1_545 S
C135 H149 0.931 . S
C136 O139 1.256 1_554 S
C136 O140 1.255 . S
O137 Co120 2.021 . S
O137 C130 1.259 . S
O138 Co122 2.117 1_545 S
O138 C130 1.258 . S
O139 Co122 2.020 . S
O139 C136 1.256 1_556 S
O140 Co120 2.062 1_564 S
O140 C136 1.255 . S
O141 C121 1.259 . S
O141 Co122 2.021 . S
H142 C133 0.930 . S
H143 C132 0.931 . S
O144 Co120 2.117 1_565 S
O144 C121 1.258 . S
O145 Co120 2.020 . S
O145 C147 1.256 . S
O146 Co122 2.062 . S
O146 C147 1.255 1_565 S
C147 O145 1.256 . S
C147 O146 1.255 1_545 S
H148 C127 0.931 . S
H149 C135 0.931 . S
Co150 N155 2.057 1_556 S
Co150 O167 2.021 . S
Co150 O170 2.062 1_556 S
Co150 O174 2.117 . S
Co150 O175 2.020 . S
C151 O171 1.259 . S
C151 O174 1.258 . S
Co152 N161 2.057 . S
Co152 O168 2.117 . S
Co152 O169 2.020 . S
Co152 O171 2.021 . S
Co152 O176 2.062 . S
C153 N155 1.316 1_655 S
C153 N156 1.347 . S
C153 H158 0.931 . S
C154 N155 1.375 1_655 S
C154 C157 1.350 . S
C154 H159 0.930 1_554 S
N155 Co150 2.057 1_554 S
N155 C153 1.316 1_455 S
N155 C154 1.375 1_455 S
N156 C153 1.347 . S
N156 C157 1.373 . S
C157 C154 1.350 . S
C157 N156 1.373 . S
C157 H178 0.931 . S
H158 C153 0.931 . S
H159 C154 0.930 1_556 S
C160 O167 1.259 . S
C160 O168 1.258 . S
N161 Co152 2.057 . S
N161 C162 1.316 . S
N161 C163 1.375 . S
C162 N161 1.316 . S
C162 N164 1.347 . S
C162 H173 0.931 . S
C163 N161 1.375 . S
C163 C165 1.350 . S
C163 H172 0.930 . S
N164 C162 1.347 . S
N164 C165 1.373 . S
C165 C163 1.350 . S
C165 N164 1.373 . S
C165 H179 0.931 . S
C166 O169 1.256 1_554 S
C166 O170 1.255 . S
O167 Co150 2.021 . S
O167 C160 1.259 . S
O168 Co152 2.117 . S
O168 C160 1.258 . S
O169 Co152 2.020 . S
O169 C166 1.256 1_556 S
O170 Co150 2.062 1_554 S
O170 C166 1.255 . S
O171 C151 1.259 . S
O171 Co152 2.021 . S
H172 C163 0.930 . S
H173 C162 0.931 . S
O174 Co150 2.117 . S
O174 C151 1.258 . S
O175 Co150 2.020 . S
O175 C177 1.256 . S
O176 Co152 2.062 . S
O176 C177 1.255 . S
C177 O175 1.256 . S
C177 O176 1.255 . S
H178 C157 0.931 . S
H179 C165 0.931 . S
Co180 N185 2.057 . S
Co180 O197 2.021 . S
Co180 O200 2.062 . S
Co180 O204 2.117 . S
Co180 O205 2.020 . S
C181 O201 1.259 . S
C181 O204 1.258 . S
Co182 N191 2.057 . S
Co182 O198 2.117 . S
Co182 O199 2.020 . S
Co182 O201 2.021 . S
Co182 O206 2.062 . S
C183 N185 1.316 . S
C183 N186 1.347 . S
C183 H188 0.931 . S
C184 N185 1.375 . S
C184 C187 1.350 . S
C184 H189 0.930 . S
N185 Co180 2.057 . S
N185 C183 1.316 . S
N185 C184 1.375 . S
N186 C183 1.347 . S
N186 C187 1.373 . S
C187 C184 1.350 . S
C187 N186 1.373 . S
C187 H208 0.931 . S
H188 C183 0.931 . S
H189 C184 0.930 . S
C190 O197 1.259 . S
C190 O198 1.258 . S
N191 Co182 2.057 . S
N191 C192 1.316 . S
N191 C193 1.375 . S
C192 N191 1.316 . S
C192 N194 1.347 . S
C192 H203 0.931 . S
C193 N191 1.375 . S
C193 C195 1.350 . S
C193 H202 0.930 . S
N194 C192 1.347 . S
N194 C195 1.373 . S
C195 C193 1.350 . S
C195 N194 1.373 . S
C195 H209 0.931 . S
C196 O199 1.256 . S
C196 O200 1.255 . S
O197 Co180 2.021 . S
O197 C190 1.259 . S
O198 Co182 2.117 . S
O198 C190 1.258 . S
O199 Co182 2.020 . S
O199 C196 1.256 . S
O200 Co180 2.062 . S
O200 C196 1.255 . S
O201 C181 1.259 . S
O201 Co182 2.021 . S
H202 C193 0.930 . S
H203 C192 0.931 . S
O204 Co180 2.117 . S
O204 C181 1.258 . S
O205 Co180 2.020 . S
O205 C207 1.256 . S
O206 Co182 2.062 . S
O206 C207 1.255 . S
C207 O205 1.256 . S
C207 O206 1.255 . S
H208 C187 0.931 . S
H209 C195 0.931 . S
Co210 N215 2.057 1_545 S
Co210 O227 2.021 . S
Co210 O230 2.062 1_545 S
Co210 O234 2.117 1_545 S
Co210 O235 2.020 . S
C211 O231 1.259 . S
C211 O234 1.258 . S
Co212 N221 2.057 . S
Co212 O228 2.117 1_565 S
Co212 O229 2.020 . S
Co212 O231 2.021 . S
Co212 O236 2.062 . S
C213 N215 1.316 1_645 S
C213 N216 1.347 . S
C213 H218 0.931 . S
C214 N215 1.375 1_655 S
C214 C217 1.350 . S
C214 H219 0.930 . S
N215 Co210 2.057 1_565 S
N215 C213 1.316 1_465 S
N215 C214 1.375 1_455 S
N216 C213 1.347 . S
N216 C217 1.373 1_545 S
C217 C214 1.350 . S
C217 N216 1.373 1_565 S
C217 H238 0.931 . S
H218 C213 0.931 . S
H219 C214 0.930 . S
C220 O227 1.259 . S
C220 O228 1.258 . S
N221 Co212 2.057 . S
N221 C222 1.318 . S
N221 C223 1.372 1_565 S
C222 N221 1.318 . S
C222 N224 1.347 . S
C222 H233 0.931 . S
C223 N221 1.372 1_545 S
C223 C225 1.350 . S
C223 H232 0.930 . S
N224 C222 1.347 . S
N224 C225 1.373 1_565 S
C225 C223 1.350 . S
C225 N224 1.373 1_545 S
C225 H239 0.931 . S
C226 O229 1.256 . S
C226 O230 1.255 . S
O227 Co210 2.021 . S
O227 C220 1.259 . S
O228 Co212 2.117 1_545 S
O228 C220 1.258 . S
O229 Co212 2.020 . S
O229 C226 1.256 . S
O230 Co210 2.062 1_565 S
O230 C226 1.255 . S
O231 C211 1.259 . S
O231 Co212 2.021 . S
H232 C223 0.930 . S
H233 C222 0.931 . S
O234 Co210 2.117 1_565 S
O234 C211 1.258 . S
O235 Co210 2.020 . S
O235 C237 1.256 . S
O236 Co212 2.062 . S
O236 C237 1.255 1_565 S
C237 O235 1.256 . S
C237 O236 1.255 1_545 S
H238 C217 0.931 . S
H239 C225 0.931 . S
Co240 N245 2.057 . S
Co240 O257 2.021 . S
Co240 O260 2.062 . S
Co240 O264 2.117 . S
Co240 O265 2.020 . S
C241 O261 1.259 . S
C241 O264 1.258 . S
Co242 N251 2.057 . S
Co242 O258 2.117 . S
Co242 O259 2.020 . S
Co242 O261 2.021 . S
Co242 O266 2.062 . S
C243 N245 1.316 . S
C243 N246 1.347 . S
C243 H248 0.931 . S
C244 N245 1.375 . S
C244 C247 1.350 . S
C244 H249 0.930 . S
N245 Co240 2.057 . S
N245 C243 1.316 . S
N245 C244 1.375 . S
N246 C243 1.347 . S
N246 C247 1.373 . S
C247 C244 1.350 . S
C247 N246 1.373 . S
C247 H268 0.931 . S
H248 C243 0.931 . S
H249 C244 0.930 . S
C250 O257 1.259 . S
C250 O258 1.258 . S
N251 Co242 2.057 . S
N251 C252 1.316 . S
N251 C253 1.375 . S
C252 N251 1.316 . S
C252 N254 1.347 . S
C252 H263 0.931 . S
C253 N251 1.375 . S
C253 C255 1.350 . S
C253 H262 0.930 . S
N254 C252 1.347 . S
N254 C255 1.373 . S
C255 C253 1.350 . S
C255 N254 1.373 . S
C255 H269 0.931 . S
C256 O259 1.256 . S
C256 O260 1.255 . S
O257 Co240 2.021 . S
O257 C250 1.259 . S
O258 Co242 2.117 . S
O258 C250 1.258 . S
O259 Co242 2.020 . S
O259 C256 1.256 . S
O260 Co240 2.062 . S
O260 C256 1.255 . S
O261 C241 1.259 . S
O261 Co242 2.021 . S
H262 C253 0.930 . S
H263 C252 0.931 . S
O264 Co240 2.117 . S
O264 C241 1.258 . S
O265 Co240 2.020 . S
O265 C267 1.256 . S
O266 Co242 2.062 . S
O266 C267 1.255 . S
C267 O265 1.256 . S
C267 O266 1.255 . S
H268 C247 0.931 . S
H269 C255 0.931 . S
Co270 N275 2.057 . S
Co270 O287 2.021 . S
Co270 O290 2.062 . S
Co270 O294 2.117 . S
Co270 O295 2.020 . S
C271 O291 1.259 . S
C271 O294 1.258 . S
Co272 N281 2.057 . S
Co272 O288 2.117 . S
Co272 O289 2.020 . S
Co272 O291 2.021 . S
Co272 O296 2.062 . S
C273 N275 1.316 . S
C273 N276 1.347 . S
C273 H278 0.931 . S
C274 N275 1.375 . S
C274 C277 1.350 . S
C274 H279 0.930 . S
N275 Co270 2.057 . S
N275 C273 1.316 . S
N275 C274 1.375 . S
N276 C273 1.347 . S
N276 C277 1.373 . S
C277 C274 1.350 . S
C277 N276 1.373 . S
C277 H298 0.931 . S
H278 C273 0.931 . S
H279 C274 0.930 . S
C280 O287 1.259 . S
C280 O288 1.258 . S
N281 Co272 2.057 . S
N281 C282 1.316 1_655 S
N281 C283 1.375 1_655 S
C282 N281 1.316 1_455 S
C282 N284 1.347 . S
C282 H293 0.931 . S
C283 N281 1.375 1_455 S
C283 C285 1.350 . S
C283 H292 0.930 . S
N284 C282 1.347 . S
N284 C285 1.373 . S
C285 C283 1.350 . S
C285 N284 1.373 . S
C285 H299 0.931 . S
C286 O289 1.256 . S
C286 O290 1.255 . S
O287 Co270 2.021 . S
O287 C280 1.259 . S
O288 Co272 2.117 . S
O288 C280 1.258 . S
O289 Co272 2.020 . S
O289 C286 1.256 . S
O290 Co270 2.062 . S
O290 C286 1.255 . S
O291 C271 1.259 . S
O291 Co272 2.021 . S
H292 C283 0.930 . S
H293 C282 0.931 . S
O294 Co270 2.117 . S
O294 C271 1.258 . S
O295 Co270 2.020 . S
O295 C297 1.256 . S
O296 Co272 2.062 . S
O296 C297 1.255 . S
C297 O295 1.256 . S
C297 O296 1.255 . S
H298 C277 0.931 . S
H299 C285 0.931 . S
Co300 N305 2.057 . S
Co300 O317 2.021 . S
Co300 O320 2.062 . S
Co300 O324 2.117 . S
Co300 O325 2.020 . S
C301 O321 1.259 . S
C301 O324 1.258 . S
Co302 N311 2.057 . S
Co302 O318 2.117 . S
Co302 O319 2.020 . S
Co302 O321 2.021 . S
Co302 O326 2.062 . S
C303 N305 1.316 . S
C303 N306 1.347 . S
C303 H308 0.931 . S
C304 N305 1.375 . S
C304 C307 1.350 . S
C304 H309 0.930 . S
N305 Co300 2.057 . S
N305 C303 1.316 . S
N305 C304 1.375 . S
N306 C303 1.347 . S
N306 C307 1.373 . S
C307 C304 1.350 . S
C307 N306 1.373 . S
C307 H328 0.931 . S
H308 C303 0.931 . S
H309 C304 0.930 . S
C310 O317 1.259 . S
C310 O318 1.258 . S
N311 Co302 2.057 . S
N311 C312 1.316 . S
N311 C313 1.375 . S
C312 N311 1.316 . S
C312 N314 1.347 . S
C312 H323 0.931 . S
C313 N311 1.375 . S
C313 C315 1.350 . S
C313 H322 0.930 . S
N314 C312 1.347 . S
N314 C315 1.373 . S
C315 C313 1.350 . S
C315 N314 1.373 . S
C315 H329 0.931 . S
C316 O319 1.256 . S
C316 O320 1.255 . S
O317 Co300 2.021 . S
O317 C310 1.259 . S
O318 Co302 2.117 . S
O318 C310 1.258 . S
O319 Co302 2.020 . S
O319 C316 1.256 . S
O320 Co300 2.062 . S
O320 C316 1.255 . S
O321 C301 1.259 . S
O321 Co302 2.021 . S
H322 C313 0.930 . S
H323 C312 0.931 . S
O324 Co300 2.117 . S
O324 C301 1.258 . S
O325 Co300 2.020 . S
O325 C327 1.256 . S
O326 Co302 2.062 . S
O326 C327 1.255 . S
C327 O325 1.256 . S
C327 O326 1.255 . S
H328 C307 0.931 . S
H329 C315 0.931 . S
Co330 N335 2.057 . S
Co330 O347 2.021 . S
Co330 O350 2.062 . S
Co330 O354 2.117 . S
Co330 O355 2.020 . S
C331 O351 1.259 . S
C331 O354 1.258 . S
Co332 N341 2.057 . S
Co332 O348 2.117 . S
Co332 O349 2.020 . S
Co332 O351 2.021 . S
Co332 O356 2.062 . S
C333 N335 1.316 . S
C333 N336 1.347 . S
C333 H338 0.931 . S
C334 N335 1.375 . S
C334 C337 1.350 . S
C334 H339 0.930 . S
N335 Co330 2.057 . S
N335 C333 1.316 . S
N335 C334 1.375 . S
N336 C333 1.347 . S
N336 C337 1.373 . S
C337 C334 1.350 . S
C337 N336 1.373 . S
C337 H358 0.931 . S
H338 C333 0.931 . S
H339 C334 0.930 . S
C340 O347 1.259 . S
C340 O348 1.258 . S
N341 Co332 2.057 . S
N341 C342 1.316 1_655 S
N341 C343 1.375 1_655 S
C342 N341 1.316 1_455 S
C342 N344 1.347 . S
C342 H353 0.931 . S
C343 N341 1.375 1_455 S
C343 C345 1.350 . S
C343 H352 0.930 . S
N344 C342 1.347 . S
N344 C345 1.373 . S
C345 C343 1.350 . S
C345 N344 1.373 . S
C345 H359 0.931 . S
C346 O349 1.256 . S
C346 O350 1.255 . S
O347 Co330 2.021 . S
O347 C340 1.259 . S
O348 Co332 2.117 . S
O348 C340 1.258 . S
O349 Co332 2.020 . S
O349 C346 1.256 . S
O350 Co330 2.062 . S
O350 C346 1.255 . S
O351 C331 1.259 . S
O351 Co332 2.021 . S
H352 C343 0.930 . S
H353 C342 0.931 . S
O354 Co330 2.117 . S
O354 C331 1.258 . S
O355 Co330 2.020 . S
O355 C357 1.256 . S
O356 Co332 2.062 . S
O356 C357 1.255 . S
C357 O355 1.256 . S
C357 O356 1.255 . S
H358 C337 0.931 . S
H359 C345 0.931 . S
Co360 N365 2.057 . S
Co360 O377 2.021 . S
Co360 O380 2.062 . S
Co360 O384 2.117 . S
Co360 O385 2.020 . S
C361 O381 1.259 . S
C361 O384 1.258 . S
Co362 N371 2.057 . S
Co362 O378 2.117 . S
Co362 O379 2.020 . S
Co362 O381 2.021 . S
Co362 O386 2.062 . S
C363 N365 1.316 . S
C363 N366 1.347 . S
C363 H368 0.931 . S
C364 N365 1.375 . S
C364 C367 1.350 . S
C364 H369 0.930 . S
N365 Co360 2.057 . S
N365 C363 1.316 . S
N365 C364 1.375 . S
N366 C363 1.347 . S
N366 C367 1.373 . S
C367 C364 1.350 . S
C367 N366 1.373 . S
C367 H388 0.931 . S
H368 C363 0.931 . S
H369 C364 0.930 . S
C370 O377 1.259 . S
C370 O378 1.258 . S
N371 Co362 2.057 . S
N371 C372 1.316 . S
N371 C373 1.375 . S
C372 N371 1.316 . S
C372 N374 1.347 . S
C372 H383 0.931 . S
C373 N371 1.375 . S
C373 C375 1.350 . S
C373 H382 0.930 . S
N374 C372 1.347 . S
N374 C375 1.373 . S
C375 C373 1.350 . S
C375 N374 1.373 . S
C375 H389 0.931 . S
C376 O379 1.256 . S
C376 O380 1.255 . S
O377 Co360 2.021 . S
O377 C370 1.259 . S
O378 Co362 2.117 . S
O378 C370 1.258 . S
O379 Co362 2.020 . S
O379 C376 1.256 . S
O380 Co360 2.062 . S
O380 C376 1.255 . S
O381 C361 1.259 . S
O381 Co362 2.021 . S
H382 C373 0.930 . S
H383 C372 0.931 . S
O384 Co360 2.117 . S
O384 C361 1.258 . S
O385 Co360 2.020 . S
O385 C387 1.256 . S
O386 Co362 2.062 . S
O386 C387 1.255 . S
C387 O385 1.256 . S
C387 O386 1.255 . S
H388 C367 0.931 . S
H389 C375 0.931 . S
Co390 N395 2.057 . S
Co390 O407 2.021 . S
Co390 O410 2.062 . S
Co390 O414 2.117 . S
Co390 O415 2.020 . S
C391 O411 1.259 . S
C391 O414 1.258 . S
Co392 N401 2.057 . S
Co392 O408 2.117 . S
Co392 O409 2.020 . S
Co392 O411 2.021 . S
Co392 O416 2.062 . S
C393 N395 1.316 1_655 S
C393 N396 1.347 . S
C393 H398 0.931 . S
C394 N395 1.375 1_655 S
C394 C397 1.350 . S
C394 H399 0.930 . S
N395 Co390 2.057 . S
N395 C393 1.316 1_455 S
N395 C394 1.375 1_455 S
N396 C393 1.347 . S
N396 C397 1.373 . S
C397 C394 1.350 . S
C397 N396 1.373 . S
C397 H418 0.931 . S
H398 C393 0.931 . S
H399 C394 0.930 . S
C400 O407 1.259 . S
C400 O408 1.258 . S
N401 Co392 2.057 . S
N401 C402 1.316 . S
N401 C403 1.375 . S
C402 N401 1.316 . S
C402 N404 1.347 . S
C402 H413 0.931 . S
C403 N401 1.375 . S
C403 C405 1.350 . S
C403 H412 0.930 . S
N404 C402 1.347 . S
N404 C405 1.373 . S
C405 C403 1.350 . S
C405 N404 1.373 . S
C405 H419 0.931 . S
C406 O409 1.256 . S
C406 O410 1.255 . S
O407 Co390 2.021 . S
O407 C400 1.259 . S
O408 Co392 2.117 . S
O408 C400 1.258 . S
O409 Co392 2.020 . S
O409 C406 1.256 . S
O410 Co390 2.062 . S
O410 C406 1.255 . S
O411 C391 1.259 . S
O411 Co392 2.021 . S
H412 C403 0.930 . S
H413 C402 0.931 . S
O414 Co390 2.117 . S
O414 C391 1.258 . S
O415 Co390 2.020 . S
O415 C417 1.256 . S
O416 Co392 2.062 . S
O416 C417 1.255 . S
C417 O415 1.256 . S
C417 O416 1.255 . S
H418 C397 0.931 . S
H419 C405 0.931 . S
Co420 N425 2.057 . S
Co420 O437 2.021 . S
Co420 O440 2.062 . S
Co420 O444 2.117 . S
Co420 O445 2.020 . S
C421 O441 1.259 . S
C421 O444 1.258 . S
Co422 N431 2.057 . S
Co422 O438 2.117 . S
Co422 O439 2.020 . S
Co422 O441 2.021 . S
Co422 O446 2.062 . S
C423 N425 1.316 . S
C423 N426 1.347 . S
C423 H428 0.931 . S
C424 N425 1.375 . S
C424 C427 1.350 . S
C424 H429 0.930 . S
N425 Co420 2.057 . S
N425 C423 1.316 . S
N425 C424 1.375 . S
N426 C423 1.347 . S
N426 C427 1.373 . S
C427 C424 1.350 . S
C427 N426 1.373 . S
C427 H448 0.931 . S
H428 C423 0.931 . S
H429 C424 0.930 . S
C430 O437 1.259 . S
C430 O438 1.258 . S
N431 Co422 2.057 . S
N431 C432 1.316 . S
N431 C433 1.375 . S
C432 N431 1.316 . S
C432 N434 1.347 . S
C432 H443 0.931 . S
C433 N431 1.375 . S
C433 C435 1.350 . S
C433 H442 0.930 . S
N434 C432 1.347 . S
N434 C435 1.373 . S
C435 C433 1.350 . S
C435 N434 1.373 . S
C435 H449 0.931 . S
C436 O439 1.256 . S
C436 O440 1.255 . S
O437 Co420 2.021 . S
O437 C430 1.259 . S
O438 Co422 2.117 . S
O438 C430 1.258 . S
O439 Co422 2.020 . S
O439 C436 1.256 . S
O440 Co420 2.062 . S
O440 C436 1.255 . S
O441 C421 1.259 . S
O441 Co422 2.021 . S
H442 C433 0.930 . S
H443 C432 0.931 . S
O444 Co420 2.117 . S
O444 C421 1.258 . S
O445 Co420 2.020 . S
O445 C447 1.256 . S
O446 Co422 2.062 . S
O446 C447 1.255 . S
C447 O445 1.256 . S
C447 O446 1.255 . S
H448 C427 0.931 . S
H449 C435 0.931 . S
Co450 N455 2.057 . S
Co450 O467 2.021 . S
Co450 O470 2.062 . S
Co450 O474 2.117 . S
Co450 O475 2.020 . S
C451 O471 1.259 . S
C451 O474 1.258 . S
Co452 N461 2.057 . S
Co452 O468 2.117 . S
Co452 O469 2.020 . S
Co452 O471 2.021 . S
Co452 O476 2.062 . S
C453 N455 1.316 1_655 S
C453 N456 1.347 . S
C453 H458 0.931 . S
C454 N455 1.375 1_655 S
C454 C457 1.350 . S
C454 H459 0.930 . S
N455 Co450 2.057 . S
N455 C453 1.316 1_455 S
N455 C454 1.375 1_455 S
N456 C453 1.347 . S
N456 C457 1.373 . S
C457 C454 1.350 . S
C457 N456 1.373 . S
C457 H478 0.931 . S
H458 C453 0.931 . S
H459 C454 0.930 . S
C460 O467 1.259 . S
C460 O468 1.258 . S
N461 Co452 2.057 . S
N461 C462 1.316 . S
N461 C463 1.375 . S
C462 N461 1.316 . S
C462 N464 1.347 . S
C462 H473 0.931 . S
C463 N461 1.375 . S
C463 C465 1.350 . S
C463 H472 0.930 . S
N464 C462 1.347 . S
N464 C465 1.373 . S
C465 C463 1.350 . S
C465 N464 1.373 . S
C465 H479 0.931 . S
C466 O469 1.256 . S
C466 O470 1.255 . S
O467 Co450 2.021 . S
O467 C460 1.259 . S
O468 Co452 2.117 . S
O468 C460 1.258 . S
O469 Co452 2.020 . S
O469 C466 1.256 . S
O470 Co450 2.062 . S
O470 C466 1.255 . S
O471 C451 1.259 . S
O471 Co452 2.021 . S
H472 C463 0.930 . S
H473 C462 0.931 . S
O474 Co450 2.117 . S
O474 C451 1.258 . S
O475 Co450 2.020 . S
O475 C477 1.256 . S
O476 Co452 2.062 . S
O476 C477 1.255 . S
C477 O475 1.256 . S
C477 O476 1.255 . S
H478 C457 0.931 . S
H479 C465 0.931 . S
Co480 N485 2.057 . S
Co480 O497 2.021 . S
Co480 O500 2.062 . S
Co480 O504 2.117 1_545 S
Co480 O505 2.020 . S
C481 O501 1.259 . S
C481 O504 1.258 . S
Co482 N491 2.057 1_565 S
Co482 O498 2.117 1_565 S
Co482 O499 2.020 . S
Co482 O501 2.021 . S
Co482 O506 2.062 1_565 S
C483 N485 1.318 . S
C483 N486 1.347 . S
C483 H488 0.931 . S
C484 N485 1.372 1_565 S
C484 C487 1.350 . S
C484 H489 0.930 . S
N485 Co480 2.057 . S
N485 C483 1.318 . S
N485 C484 1.372 1_545 S
N486 C483 1.347 . S
N486 C487 1.373 1_545 S
C487 C484 1.350 . S
C487 N486 1.373 1_565 S
C487 H508 0.931 . S
H488 C483 0.931 . S
H489 C484 0.930 . S
C490 O497 1.259 . S
C490 O498 1.258 . S
N491 Co482 2.057 1_545 S
N491 C492 1.316 1_545 S
N491 C493 1.375 . S
C492 N491 1.316 1_565 S
C492 N494 1.347 . S
C492 H503 0.931 . S
C493 N491 1.375 . S
C493 C495 1.350 . S
C493 H502 0.930 . S
N494 C492 1.347 . S
N494 C495 1.373 1_565 S
C495 C493 1.350 . S
C495 N494 1.373 1_545 S
C495 H509 0.931 . S
C496 O499 1.256 . S
C496 O500 1.255 1_565 S
O497 Co480 2.021 . S
O497 C490 1.259 . S
O498 Co482 2.117 1_545 S
O498 C490 1.258 . S
O499 Co482 2.020 . S
O499 C496 1.256 . S
O500 Co480 2.062 . S
O500 C496 1.255 1_545 S
O501 C481 1.259 . S
O501 Co482 2.021 . S
H502 C493 0.930 . S
H503 C492 0.931 . S
O504 Co480 2.117 1_565 S
O504 C481 1.258 . S
O505 Co480 2.020 . S
O505 C507 1.256 . S
O506 Co482 2.062 1_545 S
O506 C507 1.255 . S
C507 O505 1.256 . S
C507 O506 1.255 . S
H508 C487 0.931 . S
H509 C495 0.931 . S
Co510 N515 2.057 . S
Co510 O527 2.021 . S
Co510 O530 2.062 . S
Co510 O534 2.117 . S
Co510 O535 2.020 . S
C511 O531 1.259 . S
C511 O534 1.258 . S
Co512 N521 2.057 . S
Co512 O528 2.117 . S
Co512 O529 2.020 . S
Co512 O531 2.021 . S
Co512 O536 2.062 . S
C513 N515 1.316 . S
C513 N516 1.347 . S
C513 H518 0.931 . S
C514 N515 1.375 . S
C514 C517 1.350 . S
C514 H519 0.930 . S
N515 Co510 2.057 . S
N515 C513 1.316 . S
N515 C514 1.375 . S
N516 C513 1.347 . S
N516 C517 1.373 . S
C517 C514 1.350 . S
C517 N516 1.373 . S
C517 H538 0.931 . S
H518 C513 0.931 . S
H519 C514 0.930 . S
C520 O527 1.259 . S
C520 O528 1.258 . S
N521 Co512 2.057 . S
N521 C522 1.316 . S
N521 C523 1.375 . S
C522 N521 1.316 . S
C522 N524 1.347 . S
C522 H533 0.931 . S
C523 N521 1.375 . S
C523 C525 1.350 . S
C523 H532 0.930 . S
N524 C522 1.347 . S
N524 C525 1.373 . S
C525 C523 1.350 . S
C525 N524 1.373 . S
C525 H539 0.931 . S
C526 O529 1.256 . S
C526 O530 1.255 . S
O527 Co510 2.021 . S
O527 C520 1.259 . S
O528 Co512 2.117 . S
O528 C520 1.258 . S
O529 Co512 2.020 . S
O529 C526 1.256 . S
O530 Co510 2.062 . S
O530 C526 1.255 . S
O531 C511 1.259 . S
O531 Co512 2.021 . S
H532 C523 0.930 . S
H533 C522 0.931 . S
O534 Co510 2.117 . S
O534 C511 1.258 . S
O535 Co510 2.020 . S
O535 C537 1.256 . S
O536 Co512 2.062 . S
O536 C537 1.255 . S
C537 O535 1.256 . S
C537 O536 1.255 . S
H538 C517 0.931 . S
H539 C525 0.931 . S
Co540 N545 2.057 . S
Co540 O557 2.021 . S
Co540 O560 2.062 . S
Co540 O564 2.117 . S
Co540 O565 2.020 . S
C541 O561 1.259 . S
C541 O564 1.258 . S
Co542 N551 2.057 . S
Co542 O558 2.117 . S
Co542 O559 2.020 . S
Co542 O561 2.021 . S
Co542 O566 2.062 . S
C543 N545 1.316 . S
C543 N546 1.347 . S
C543 H548 0.931 . S
C544 N545 1.375 . S
C544 C547 1.350 . S
C544 H549 0.930 . S
N545 Co540 2.057 . S
N545 C543 1.316 . S
N545 C544 1.375 . S
N546 C543 1.347 . S
N546 C547 1.373 . S
C547 C544 1.350 . S
C547 N546 1.373 . S
C547 H568 0.931 . S
H548 C543 0.931 . S
H549 C544 0.930 . S
C550 O557 1.259 . S
C550 O558 1.258 . S
N551 Co542 2.057 . S
N551 C552 1.316 . S
N551 C553 1.375 . S
C552 N551 1.316 . S
C552 N554 1.347 . S
C552 H563 0.931 . S
C553 N551 1.375 . S
C553 C555 1.350 . S
C553 H562 0.930 . S
N554 C552 1.347 . S
N554 C555 1.373 . S
C555 C553 1.350 . S
C555 N554 1.373 . S
C555 H569 0.931 . S
C556 O559 1.256 . S
C556 O560 1.255 . S
O557 Co540 2.021 . S
O557 C550 1.259 . S
O558 Co542 2.117 . S
O558 C550 1.258 . S
O559 Co542 2.020 . S
O559 C556 1.256 . S
O560 Co540 2.062 . S
O560 C556 1.255 . S
O561 C541 1.259 . S
O561 Co542 2.021 . S
H562 C553 0.930 . S
H563 C552 0.931 . S
O564 Co540 2.117 . S
O564 C541 1.258 . S
O565 Co540 2.020 . S
O565 C567 1.256 . S
O566 Co542 2.062 . S
O566 C567 1.255 . S
C567 O565 1.256 . S
C567 O566 1.255 . S
H568 C547 0.931 . S
H569 C555 0.931 . S
Co570 N575 2.057 . S
Co570 O587 2.021 . S
Co570 O590 2.062 . S
Co570 O594 2.117 1_545 S
Co570 O595 2.020 . S
C571 O591 1.259 . S
C571 O594 1.258 . S
Co572 N581 2.057 1_565 S
Co572 O588 2.117 1_565 S
Co572 O589 2.020 . S
Co572 O591 2.021 . S
Co572 O596 2.062 1_565 S
C573 N575 1.318 . S
C573 N576 1.347 . S
C573 H578 0.931 . S
C574 N575 1.372 1_565 S
C574 C577 1.350 . S
C574 H579 0.930 . S
N575 Co570 2.057 . S
N575 C573 1.318 . S
N575 C574 1.372 1_545 S
N576 C573 1.347 . S
N576 C577 1.373 1_545 S
C577 C574 1.350 . S
C577 N576 1.373 1_565 S
C577 H598 0.931 . S
H578 C573 0.931 . S
H579 C574 0.930 . S
C580 O587 1.259 . S
C580 O588 1.258 . S
N581 Co572 2.057 1_545 S
N581 C582 1.316 1_545 S
N581 C583 1.375 . S
C582 N581 1.316 1_565 S
C582 N584 1.347 . S
C582 H593 0.931 . S
C583 N581 1.375 . S
C583 C585 1.350 . S
C583 H592 0.930 . S
N584 C582 1.347 . S
N584 C585 1.373 1_565 S
C585 C583 1.350 . S
C585 N584 1.373 1_545 S
C585 H599 0.931 . S
C586 O589 1.256 . S
C586 O590 1.255 1_565 S
O587 Co570 2.021 . S
O587 C580 1.259 . S
O588 Co572 2.117 1_545 S
O588 C580 1.258 . S
O589 Co572 2.020 . S
O589 C586 1.256 . S
O590 Co570 2.062 . S
O590 C586 1.255 1_545 S
O591 C571 1.259 . S
O591 Co572 2.021 . S
H592 C583 0.930 . S
H593 C582 0.931 . S
O594 Co570 2.117 1_565 S
O594 C571 1.258 . S
O595 Co570 2.020 . S
O595 C597 1.256 . S
O596 Co572 2.062 1_545 S
O596 C597 1.255 . S
C597 O595 1.256 . S
C597 O596 1.255 . S
H598 C577 0.931 . S
H599 C585 0.931 . S
Co600 N605 2.057 1_545 S
Co600 O617 2.021 . S
Co600 O620 2.062 1_545 S
Co600 O624 2.117 1_545 S
Co600 O625 2.020 . S
C601 O621 1.259 . S
C601 O624 1.258 . S
Co602 N611 2.057 . S
Co602 O618 2.117 1_565 S
Co602 O619 2.020 . S
Co602 O621 2.021 . S
Co602 O626 2.062 . S
C603 N605 1.316 1_545 S
C603 N606 1.347 . S
C603 H608 0.931 . S
C604 N605 1.375 . S
C604 C607 1.350 . S
C604 H609 0.930 . S
N605 Co600 2.057 1_565 S
N605 C603 1.316 1_565 S
N605 C604 1.375 . S
N606 C603 1.347 . S
N606 C607 1.373 1_545 S
C607 C604 1.350 . S
C607 N606 1.373 1_565 S
C607 H628 0.931 . S
H608 C603 0.931 . S
H609 C604 0.930 . S
C610 O617 1.259 . S
C610 O618 1.258 . S
N611 Co602 2.057 . S
N611 C612 1.318 . S
N611 C613 1.372 1_565 S
C612 N611 1.318 . S
C612 N614 1.347 . S
C612 H623 0.931 . S
C613 N611 1.372 1_545 S
C613 C615 1.350 . S
C613 H622 0.930 . S
N614 C612 1.347 . S
N614 C615 1.373 1_565 S
C615 C613 1.350 . S
C615 N614 1.373 1_545 S
C615 H629 0.931 . S
C616 O619 1.256 . S
C616 O620 1.255 . S
O617 Co600 2.021 . S
O617 C610 1.259 . S
O618 Co602 2.117 1_545 S
O618 C610 1.258 . S
O619 Co602 2.020 . S
O619 C616 1.256 . S
O620 Co600 2.062 1_565 S
O620 C616 1.255 . S
O621 C601 1.259 . S
O621 Co602 2.021 . S
H622 C613 0.930 . S
H623 C612 0.931 . S
O624 Co600 2.117 1_565 S
O624 C601 1.258 . S
O625 Co600 2.020 . S
O625 C627 1.256 . S
O626 Co602 2.062 . S
O626 C627 1.255 1_565 S
C627 O625 1.256 . S
C627 O626 1.255 1_545 S
H628 C607 0.931 . S
H629 C615 0.931 . S
Co630 N635 2.057 . S
Co630 O647 2.021 . S
Co630 O650 2.062 . S
Co630 O654 2.117 . S
Co630 O655 2.020 . S
C631 O651 1.259 . S
C631 O654 1.258 . S
Co632 N641 2.057 . S
Co632 O648 2.117 . S
Co632 O649 2.020 . S
Co632 O651 2.021 . S
Co632 O656 2.062 . S
C633 N635 1.316 . S
C633 N636 1.347 . S
C633 H638 0.931 . S
C634 N635 1.375 . S
C634 C637 1.350 . S
C634 H639 0.930 . S
N635 Co630 2.057 . S
N635 C633 1.316 . S
N635 C634 1.375 . S
N636 C633 1.347 . S
N636 C637 1.373 . S
C637 C634 1.350 . S
C637 N636 1.373 . S
C637 H658 0.931 . S
H638 C633 0.931 . S
H639 C634 0.930 . S
C640 O647 1.259 . S
C640 O648 1.258 . S
N641 Co632 2.057 . S
N641 C642 1.316 . S
N641 C643 1.375 . S
C642 N641 1.316 . S
C642 N644 1.347 . S
C642 H653 0.931 . S
C643 N641 1.375 . S
C643 C645 1.350 . S
C643 H652 0.930 . S
N644 C642 1.347 . S
N644 C645 1.373 . S
C645 C643 1.350 . S
C645 N644 1.373 . S
C645 H659 0.931 . S
C646 O649 1.256 . S
C646 O650 1.255 . S
O647 Co630 2.021 . S
O647 C640 1.259 . S
O648 Co632 2.117 . S
O648 C640 1.258 . S
O649 Co632 2.020 . S
O649 C646 1.256 . S
O650 Co630 2.062 . S
O650 C646 1.255 . S
O651 C631 1.259 . S
O651 Co632 2.021 . S
H652 C643 0.930 . S
H653 C642 0.931 . S
O654 Co630 2.117 . S
O654 C631 1.258 . S
O655 Co630 2.020 . S
O655 C657 1.256 . S
O656 Co632 2.062 . S
O656 C657 1.255 . S
C657 O655 1.256 . S
C657 O656 1.255 . S
H658 C637 0.931 . S
H659 C645 0.931 . S
Co660 N665 2.057 . S
Co660 O677 2.021 . S
Co660 O680 2.062 . S
Co660 O684 2.117 . S
Co660 O685 2.020 . S
C661 O681 1.259 . S
C661 O684 1.258 . S
Co662 N671 2.057 . S
Co662 O678 2.117 . S
Co662 O679 2.020 . S
Co662 O681 2.021 . S
Co662 O686 2.062 . S
C663 N665 1.316 . S
C663 N666 1.347 . S
C663 H668 0.931 . S
C664 N665 1.375 . S
C664 C667 1.350 . S
C664 H669 0.930 . S
N665 Co660 2.057 . S
N665 C663 1.316 . S
N665 C664 1.375 . S
N666 C663 1.347 . S
N666 C667 1.373 . S
C667 C664 1.350 . S
C667 N666 1.373 . S
C667 H688 0.931 . S
H668 C663 0.931 . S
H669 C664 0.930 . S
C670 O677 1.259 . S
C670 O678 1.258 . S
N671 Co662 2.057 . S
N671 C672 1.316 . S
N671 C673 1.375 . S
C672 N671 1.316 . S
C672 N674 1.347 . S
C672 H683 0.931 . S
C673 N671 1.375 . S
C673 C675 1.350 . S
C673 H682 0.930 . S
N674 C672 1.347 . S
N674 C675 1.373 . S
C675 C673 1.350 . S
C675 N674 1.373 . S
C675 H689 0.931 . S
C676 O679 1.256 . S
C676 O680 1.255 . S
O677 Co660 2.021 . S
O677 C670 1.259 . S
O678 Co662 2.117 . S
O678 C670 1.258 . S
O679 Co662 2.020 . S
O679 C676 1.256 . S
O680 Co660 2.062 . S
O680 C676 1.255 . S
O681 C661 1.259 . S
O681 Co662 2.021 . S
H682 C673 0.930 . S
H683 C672 0.931 . S
O684 Co660 2.117 . S
O684 C661 1.258 . S
O685 Co660 2.020 . S
O685 C687 1.256 . S
O686 Co662 2.062 . S
O686 C687 1.255 . S
C687 O685 1.256 . S
C687 O686 1.255 . S
H688 C667 0.931 . S
H689 C675 0.931 . S
Co690 N695 2.057 1_545 S
Co690 O707 2.021 . S
Co690 O710 2.062 1_545 S
Co690 O714 2.117 1_545 S
Co690 O715 2.020 . S
C691 O711 1.259 . S
C691 O714 1.258 . S
Co692 N701 2.057 . S
Co692 O708 2.117 1_565 S
Co692 O709 2.020 . S
Co692 O711 2.021 . S
Co692 O716 2.062 . S
C693 N695 1.316 1_545 S
C693 N696 1.347 . S
C693 H698 0.931 . S
C694 N695 1.375 . S
C694 C697 1.350 . S
C694 H699 0.930 . S
N695 Co690 2.057 1_565 S
N695 C693 1.316 1_565 S
N695 C694 1.375 . S
N696 C693 1.347 . S
N696 C697 1.373 1_545 S
C697 C694 1.350 . S
C697 N696 1.373 1_565 S
C697 H718 0.931 . S
H698 C693 0.931 . S
H699 C694 0.930 . S
C700 O707 1.259 . S
C700 O708 1.258 . S
N701 Co692 2.057 . S
N701 C702 1.318 . S
N701 C703 1.372 1_565 S
C702 N701 1.318 . S
C702 N704 1.347 . S
C702 H713 0.931 . S
C703 N701 1.372 1_545 S
C703 C705 1.350 . S
C703 H712 0.930 . S
N704 C702 1.347 . S
N704 C705 1.373 1_565 S
C705 C703 1.350 . S
C705 N704 1.373 1_545 S
C705 H719 0.931 . S
C706 O709 1.256 . S
C706 O710 1.255 . S
O707 Co690 2.021 . S
O707 C700 1.259 . S
O708 Co692 2.117 1_545 S
O708 C700 1.258 . S
O709 Co692 2.020 . S
O709 C706 1.256 . S
O710 Co690 2.062 1_565 S
O710 C706 1.255 . S
O711 C691 1.259 . S
O711 Co692 2.021 . S
H712 C703 0.930 . S
H713 C702 0.931 . S
O714 Co690 2.117 1_565 S
O714 C691 1.258 . S
O715 Co690 2.020 . S
O715 C717 1.256 . S
O716 Co692 2.062 . S
O716 C717 1.255 1_565 S
C717 O715 1.256 . S
C717 O716 1.255 1_545 S
H718 C697 0.931 . S
H719 C705 0.931 . S
Co720 N725 2.057 . S
Co720 O737 2.021 . S
Co720 O740 2.062 . S
Co720 O744 2.117 . S
Co720 O745 2.020 . S
C721 O741 1.259 . S
C721 O744 1.258 . S
Co722 N731 2.057 1_554 S
Co722 O738 2.117 . S
Co722 O739 2.020 . S
Co722 O741 2.021 . S
Co722 O746 2.062 1_554 S
C723 N725 1.316 . S
C723 N726 1.347 . S
C723 H728 0.931 . S
C724 N725 1.375 . S
C724 C727 1.350 . S
C724 H729 0.930 . S
N725 Co720 2.057 . S
N725 C723 1.316 . S
N725 C724 1.375 . S
N726 C723 1.347 . S
N726 C727 1.373 . S
C727 C724 1.350 . S
C727 N726 1.373 . S
C727 H748 0.931 . S
H728 C723 0.931 . S
H729 C724 0.930 . S
C730 O737 1.259 . S
C730 O738 1.258 . S
N731 Co722 2.057 1_556 S
N731 C732 1.316 . S
N731 C733 1.375 . S
C732 N731 1.316 . S
C732 N734 1.347 . S
C732 H743 0.931 . S
C733 N731 1.375 . S
C733 C735 1.350 . S
C733 H742 0.930 1_556 S
N734 C732 1.347 . S
N734 C735 1.373 . S
C735 C733 1.350 . S
C735 N734 1.373 . S
C735 H749 0.931 . S
C736 O739 1.256 . S
C736 O740 1.255 . S
O737 Co720 2.021 . S
O737 C730 1.259 . S
O738 Co722 2.117 . S
O738 C730 1.258 . S
O739 Co722 2.020 . S
O739 C736 1.256 . S
O740 Co720 2.062 . S
O740 C736 1.255 . S
O741 C721 1.259 . S
O741 Co722 2.021 . S
H742 C733 0.930 1_554 S
H743 C732 0.931 . S
O744 Co720 2.117 . S
O744 C721 1.258 . S
O745 Co720 2.020 . S
O745 C747 1.256 1_554 S
O746 Co722 2.062 1_556 S
O746 C747 1.255 . S
C747 O745 1.256 1_556 S
C747 O746 1.255 . S
H748 C727 0.931 . S
H749 C735 0.931 . S
Co750 N755 2.057 . S
Co750 O767 2.021 . S
Co750 O770 2.062 . S
Co750 O774 2.117 . S
Co750 O775 2.020 . S
C751 O771 1.259 . S
C751 O774 1.258 . S
Co752 N761 2.057 1_554 S
Co752 O768 2.117 . S
Co752 O769 2.020 . S
Co752 O771 2.021 . S
Co752 O776 2.062 1_554 S
C753 N755 1.316 . S
C753 N756 1.347 . S
C753 H758 0.931 . S
C754 N755 1.375 . S
C754 C757 1.350 . S
C754 H759 0.930 . S
N755 Co750 2.057 . S
N755 C753 1.316 . S
N755 C754 1.375 . S
N756 C753 1.347 . S
N756 C757 1.373 . S
C757 C754 1.350 . S
C757 N756 1.373 . S
C757 H778 0.931 . S
H758 C753 0.931 . S
H759 C754 0.930 . S
C760 O767 1.259 . S
C760 O768 1.258 . S
N761 Co752 2.057 1_556 S
N761 C762 1.316 . S
N761 C763 1.375 . S
C762 N761 1.316 . S
C762 N764 1.347 . S
C762 H773 0.931 . S
C763 N761 1.375 . S
C763 C765 1.350 . S
C763 H772 0.930 1_556 S
N764 C762 1.347 . S
N764 C765 1.373 . S
C765 C763 1.350 . S
C765 N764 1.373 . S
C765 H779 0.931 . S
C766 O769 1.256 . S
C766 O770 1.255 . S
O767 Co750 2.021 . S
O767 C760 1.259 . S
O768 Co752 2.117 . S
O768 C760 1.258 . S
O769 Co752 2.020 . S
O769 C766 1.256 . S
O770 Co750 2.062 . S
O770 C766 1.255 . S
O771 C751 1.259 . S
O771 Co752 2.021 . S
H772 C763 0.930 1_554 S
H773 C762 0.931 . S
O774 Co750 2.117 . S
O774 C751 1.258 . S
O775 Co750 2.020 . S
O775 C777 1.256 1_554 S
O776 Co752 2.062 1_556 S
O776 C777 1.255 . S
C777 O775 1.256 1_556 S
C777 O776 1.255 . S
H778 C757 0.931 . S
H779 C765 0.931 . S
Co780 N785 2.057 . S
Co780 O797 2.021 . S
Co780 O800 2.062 . S
Co780 O804 2.117 . S
Co780 O805 2.020 . S
C781 O801 1.259 . S
C781 O804 1.258 . S
Co782 N791 2.057 . S
Co782 O798 2.117 . S
Co782 O799 2.020 . S
Co782 O801 2.021 . S
Co782 O806 2.062 . S
C783 N785 1.316 . S
C783 N786 1.347 . S
C783 H788 0.931 . S
C784 N785 1.375 . S
C784 C787 1.350 . S
C784 H789 0.930 . S
N785 Co780 2.057 . S
N785 C783 1.316 . S
N785 C784 1.375 . S
N786 C783 1.347 . S
N786 C787 1.373 . S
C787 C784 1.350 . S
C787 N786 1.373 . S
C787 H808 0.931 . S
H788 C783 0.931 . S
H789 C784 0.930 . S
C790 O797 1.259 . S
C790 O798 1.258 . S
N791 Co782 2.057 . S
N791 C792 1.316 . S
N791 C793 1.375 . S
C792 N791 1.316 . S
C792 N794 1.347 . S
C792 H803 0.931 . S
C793 N791 1.375 . S
C793 C795 1.350 . S
C793 H802 0.930 . S
N794 C792 1.347 . S
N794 C795 1.373 . S
C795 C793 1.350 . S
C795 N794 1.373 . S
C795 H809 0.931 . S
C796 O799 1.256 . S
C796 O800 1.255 . S
O797 Co780 2.021 . S
O797 C790 1.259 . S
O798 Co782 2.117 . S
O798 C790 1.258 . S
O799 Co782 2.020 . S
O799 C796 1.256 . S
O800 Co780 2.062 . S
O800 C796 1.255 . S
O801 C781 1.259 . S
O801 Co782 2.021 . S
H802 C793 0.930 . S
H803 C792 0.931 . S
O804 Co780 2.117 . S
O804 C781 1.258 . S
O805 Co780 2.020 . S
O805 C807 1.256 . S
O806 Co782 2.062 . S
O806 C807 1.255 . S
C807 O805 1.256 . S
C807 O806 1.255 . S
H808 C787 0.931 . S
H809 C795 0.931 . S
Co810 N815 2.057 . S
Co810 O827 2.021 . S
Co810 O830 2.062 . S
Co810 O834 2.117 . S
Co810 O835 2.020 . S
C811 O831 1.259 . S
C811 O834 1.258 . S
Co812 N821 2.057 . S
Co812 O828 2.117 . S
Co812 O829 2.020 . S
Co812 O831 2.021 . S
Co812 O836 2.062 . S
C813 N815 1.316 . S
C813 N816 1.347 . S
C813 H818 0.931 . S
C814 N815 1.375 . S
C814 C817 1.350 . S
C814 H819 0.930 . S
N815 Co810 2.057 . S
N815 C813 1.316 . S
N815 C814 1.375 . S
N816 C813 1.347 . S
N816 C817 1.373 . S
C817 C814 1.350 . S
C817 N816 1.373 . S
C817 H838 0.931 . S
H818 C813 0.931 . S
H819 C814 0.930 . S
C820 O827 1.259 . S
C820 O828 1.258 . S
N821 Co812 2.057 . S
N821 C822 1.316 . S
N821 C823 1.375 . S
C822 N821 1.316 . S
C822 N824 1.347 . S
C822 H833 0.931 . S
C823 N821 1.375 . S
C823 C825 1.350 . S
C823 H832 0.930 . S
N824 C822 1.347 . S
N824 C825 1.373 . S
C825 C823 1.350 . S
C825 N824 1.373 . S
C825 H839 0.931 . S
C826 O829 1.256 . S
C826 O830 1.255 . S
O827 Co810 2.021 . S
O827 C820 1.259 . S
O828 Co812 2.117 . S
O828 C820 1.258 . S
O829 Co812 2.020 . S
O829 C826 1.256 . S
O830 Co810 2.062 . S
O830 C826 1.255 . S
O831 C811 1.259 . S
O831 Co812 2.021 . S
H832 C823 0.930 . S
H833 C822 0.931 . S
O834 Co810 2.117 . S
O834 C811 1.258 . S
O835 Co810 2.020 . S
O835 C837 1.256 . S
O836 Co812 2.062 . S
O836 C837 1.255 . S
C837 O835 1.256 . S
C837 O836 1.255 . S
H838 C817 0.931 . S
H839 C825 0.931 . S
Co840 N845 2.057 1_556 S
Co840 O857 2.021 . S
Co840 O860 2.062 1_556 S
Co840 O864 2.117 . S
Co840 O865 2.020 . S
C841 O861 1.259 . S
C841 O864 1.258 . S
Co842 N851 2.057 . S
Co842 O858 2.117 . S
Co842 O859 2.020 . S
Co842 O861 2.021 . S
Co842 O866 2.062 . S
C843 N845 1.316 . S
C843 N846 1.347 . S
C843 H848 0.931 . S
C844 N845 1.375 . S
C844 C847 1.350 . S
C844 H849 0.930 1_554 S
N845 Co840 2.057 1_554 S
N845 C843 1.316 . S
N845 C844 1.375 . S
N846 C843 1.347 . S
N846 C847 1.373 . S
C847 C844 1.350 . S
C847 N846 1.373 . S
C847 H868 0.931 . S
H848 C843 0.931 . S
H849 C844 0.930 1_556 S
C850 O857 1.259 . S
C850 O858 1.258 . S
N851 Co842 2.057 . S
N851 C852 1.316 . S
N851 C853 1.375 . S
C852 N851 1.316 . S
C852 N854 1.347 . S
C852 H863 0.931 . S
C853 N851 1.375 . S
C853 C855 1.350 . S
C853 H862 0.930 . S
N854 C852 1.347 . S
N854 C855 1.373 . S
C855 C853 1.350 . S
C855 N854 1.373 . S
C855 H869 0.931 . S
C856 O859 1.256 1_554 S
C856 O860 1.255 . S
O857 Co840 2.021 . S
O857 C850 1.259 . S
O858 Co842 2.117 . S
O858 C850 1.258 . S
O859 Co842 2.020 . S
O859 C856 1.256 1_556 S
O860 Co840 2.062 1_554 S
O860 C856 1.255 . S
O861 C841 1.259 . S
O861 Co842 2.021 . S
H862 C853 0.930 . S
H863 C852 0.931 . S
O864 Co840 2.117 . S
O864 C841 1.258 . S
O865 Co840 2.020 . S
O865 C867 1.256 . S
O866 Co842 2.062 . S
O866 C867 1.255 . S
C867 O865 1.256 . S
C867 O866 1.255 . S
H868 C847 0.931 . S
H869 C855 0.931 . S
Co870 N875 2.057 1_556 S
Co870 O887 2.021 . S
Co870 O890 2.062 1_556 S
Co870 O894 2.117 . S
Co870 O895 2.020 . S
C871 O891 1.259 . S
C871 O894 1.258 . S
Co872 N881 2.057 . S
Co872 O888 2.117 . S
Co872 O889 2.020 . S
Co872 O891 2.021 . S
Co872 O896 2.062 . S
C873 N875 1.316 . S
C873 N876 1.347 . S
C873 H878 0.931 . S
C874 N875 1.375 . S
C874 C877 1.350 . S
C874 H879 0.930 1_554 S
N875 Co870 2.057 1_554 S
N875 C873 1.316 . S
N875 C874 1.375 . S
N876 C873 1.347 . S
N876 C877 1.373 . S
C877 C874 1.350 . S
C877 N876 1.373 . S
C877 H898 0.931 . S
H878 C873 0.931 . S
H879 C874 0.930 1_556 S
C880 O887 1.259 . S
C880 O888 1.258 . S
N881 Co872 2.057 . S
N881 C882 1.316 . S
N881 C883 1.375 . S
C882 N881 1.316 . S
C882 N884 1.347 . S
C882 H893 0.931 . S
C883 N881 1.375 . S
C883 C885 1.350 . S
C883 H892 0.930 . S
N884 C882 1.347 . S
N884 C885 1.373 . S
C885 C883 1.350 . S
C885 N884 1.373 . S
C885 H899 0.931 . S
C886 O889 1.256 1_554 S
C886 O890 1.255 . S
O887 Co870 2.021 . S
O887 C880 1.259 . S
O888 Co872 2.117 . S
O888 C880 1.258 . S
O889 Co872 2.020 . S
O889 C886 1.256 1_556 S
O890 Co870 2.062 1_554 S
O890 C886 1.255 . S
O891 C871 1.259 . S
O891 Co872 2.021 . S
H892 C883 0.930 . S
H893 C882 0.931 . S
O894 Co870 2.117 . S
O894 C871 1.258 . S
O895 Co870 2.020 . S
O895 C897 1.256 . S
O896 Co872 2.062 . S
O896 C897 1.255 . S
C897 O895 1.256 . S
C897 O896 1.255 . S
H898 C877 0.931 . S
H899 C885 0.931 . S
Co900 N905 2.057 . S
Co900 O917 2.021 . S
Co900 O920 2.062 . S
Co900 O924 2.117 . S
Co900 O925 2.020 . S
C901 O921 1.259 . S
C901 O924 1.258 . S
Co902 N911 2.057 . S
Co902 O918 2.117 . S
Co902 O919 2.020 . S
Co902 O921 2.021 . S
Co902 O926 2.062 . S
C903 N905 1.316 . S
C903 N906 1.347 . S
C903 H908 0.931 . S
C904 N905 1.375 . S
C904 C907 1.350 . S
C904 H909 0.930 . S
N905 Co900 2.057 . S
N905 C903 1.316 . S
N905 C904 1.375 . S
N906 C903 1.347 . S
N906 C907 1.373 . S
C907 C904 1.350 . S
C907 N906 1.373 . S
C907 H928 0.931 . S
H908 C903 0.931 . S
H909 C904 0.930 . S
C910 O917 1.259 . S
C910 O918 1.258 . S
N911 Co902 2.057 . S
N911 C912 1.316 . S
N911 C913 1.375 . S
C912 N911 1.316 . S
C912 N914 1.347 . S
C912 H923 0.931 . S
C913 N911 1.375 . S
C913 C915 1.350 . S
C913 H922 0.930 . S
N914 C912 1.347 . S
N914 C915 1.373 . S
C915 C913 1.350 . S
C915 N914 1.373 . S
C915 H929 0.931 . S
C916 O919 1.256 . S
C916 O920 1.255 . S
O917 Co900 2.021 . S
O917 C910 1.259 . S
O918 Co902 2.117 . S
O918 C910 1.258 . S
O919 Co902 2.020 . S
O919 C916 1.256 . S
O920 Co900 2.062 . S
O920 C916 1.255 . S
O921 C901 1.259 . S
O921 Co902 2.021 . S
H922 C913 0.930 . S
H923 C912 0.931 . S
O924 Co900 2.117 . S
O924 C901 1.258 . S
O925 Co900 2.020 . S
O925 C927 1.256 . S
O926 Co902 2.062 . S
O926 C927 1.255 . S
C927 O925 1.256 . S
C927 O926 1.255 . S
H928 C907 0.931 . S
H929 C915 0.931 . S
Co930 N935 2.057 . S
Co930 O947 2.021 . S
Co930 O950 2.062 . S
Co930 O954 2.117 . S
Co930 O955 2.020 . S
C931 O951 1.259 . S
C931 O954 1.258 . S
Co932 N941 2.057 . S
Co932 O948 2.117 . S
Co932 O949 2.020 . S
Co932 O951 2.021 . S
Co932 O956 2.062 . S
C933 N935 1.316 . S
C933 N936 1.347 . S
C933 H938 0.931 . S
C934 N935 1.375 . S
C934 C937 1.350 . S
C934 H939 0.930 . S
N935 Co930 2.057 . S
N935 C933 1.316 . S
N935 C934 1.375 . S
N936 C933 1.347 . S
N936 C937 1.373 . S
C937 C934 1.350 . S
C937 N936 1.373 . S
C937 H958 0.931 . S
H938 C933 0.931 . S
H939 C934 0.930 . S
C940 O947 1.259 . S
C940 O948 1.258 . S
N941 Co932 2.057 . S
N941 C942 1.316 . S
N941 C943 1.375 . S
C942 N941 1.316 . S
C942 N944 1.347 . S
C942 H953 0.931 . S
C943 N941 1.375 . S
C943 C945 1.350 . S
C943 H952 0.930 . S
N944 C942 1.347 . S
N944 C945 1.373 . S
C945 C943 1.350 . S
C945 N944 1.373 . S
C945 H959 0.931 . S
C946 O949 1.256 . S
C946 O950 1.255 . S
O947 Co930 2.021 . S
O947 C940 1.259 . S
O948 Co932 2.117 . S
O948 C940 1.258 . S
O949 Co932 2.020 . S
O949 C946 1.256 . S
O950 Co930 2.062 . S
O950 C946 1.255 . S
O951 C931 1.259 . S
O951 Co932 2.021 . S
H952 C943 0.930 . S
H953 C942 0.931 . S
O954 Co930 2.117 . S
O954 C931 1.258 . S
O955 Co930 2.020 . S
O955 C957 1.256 . S
O956 Co932 2.062 . S
O956 C957 1.255 . S
C957 O955 1.256 . S
C957 O956 1.255 . S
H958 C937 0.931 . S
H959 C945 0.931 . S
C751 C1 3.265 . S
C721 C31 3.265 . S
C811 C61 3.265 . S
C781 C91 3.265 . S
C130 C880 3.265 . S
C160 C850 3.265 . S
C190 C940 3.265 . S
C910 C220 3.265 . S
C511 C241 3.265 . S
C481 C271 3.265 . S
C571 C301 3.265 . S
C541 C331 3.265 . S
C370 C640 3.265 . S
C610 C400 3.265 . S
C430 C700 3.265 . S
C670 C460 3.265 . S
C16 C627 4.657 1_565 S
C417 C46 4.657 1_455 S
C927 C76 4.657 1_556 S
C106 C237 4.657 1_664 S
C147 C496 4.657 1_545 S
C177 C286 4.657 1_455 S
C207 C796 4.657 1_556 S
C867 C256 4.657 . S
C687 C316 4.657 . S
C477 C346 4.657 1_455 S
C736 C387 4.657 . S
C447 C556 4.657 . S
C897 C526 4.657 . S
C586 C717 4.657 1_565 S
C766 C657 4.657 . S
C826 C957 4.657 1_554 S
C27 C597 3.531 . S
C57 C567 3.531 . S
C87 C537 3.531 . S
C117 C507 3.531 . S
C136 C706 3.531 . S
C166 C676 3.531 . S
C196 C646 3.531 . S
C226 C616 3.531 . S
C267 C837 3.531 . S
C297 C807 3.531 . S
C327 C777 3.531 . S
C357 C747 3.531 . S
C946 C376 3.531 . S
C916 C406 3.531 . S
C886 C436 3.531 . S
C856 C466 3.531 . S
C70 C10 1.630 . S
C100 C40 1.631 . S
C181 C121 1.630 . S
C151 C211 1.631 . S
C310 C250 1.630 . S
C280 C340 1.630 . S
C421 C361 1.630 . S
C391 C451 1.630 . S
C490 C550 1.630 . S
C520 C580 1.631 . S
C661 C601 1.630 . S
C631 C691 1.631 . S
C730 C790 1.630 . S
C820 C760 1.631 . S
C841 C901 1.630 . S
C871 C931 1.631 . S
N14 N224 1.171 . S
N914 N44 1.171 . S
N74 N404 1.171 . S
N104 N614 1.171 . S
N96 N126 1.171 . S
N156 N786 1.171 . S
N276 N186 1.171 . S
N486 N216 1.171 . S
N254 N464 1.171 . S
N674 N284 1.171 . S
N314 N164 1.171 . S
N854 N344 1.171 . S
N366 N336 1.171 . S
N396 N546 1.171 . S
N426 N36 1.171 . S
N726 N456 1.171 . S
N494 N704 1.171 . S
N524 N434 1.171 . S
N554 N884 1.171 . S
N584 N134 1.171 . S
N606 N576 1.171 . S
N306 N636 1.171 . S
N756 N666 1.171 . S
N696 N6 1.171 . S
N944 N734 1.171 . S
N194 N764 1.171 . S
N644 N794 1.171 . S
N824 N374 1.171 . S
N816 N846 1.171 . S
N66 N876 1.171 . S
N516 N906 1.171 . S
N936 N246 1.171 . S
