# Generated by pormake.
# Topology ukk, (4)-cn, num edge types: 1
# Building blocks:
#     Node 0, Type 0, BuildingBlock: NAWXER_clean_sbu_0, # of connection points: 4
#     Node 1, Type 0, BuildingBlock: NAWXER_clean_sbu_0, # of connection points: 4
#     Node 2, Type 0, BuildingBlock: NAWXER_clean_sbu_0, # of connection points: 4
#     Node 3, Type 0, BuildingBlock: NAWXER_clean_sbu_0, # of connection points: 4
#     Node 4, Type 0, BuildingBlock: NAWXER_clean_sbu_0, # of connection points: 4
#     Node 5, Type 0, BuildingBlock: NAWXER_clean_sbu_0, # of connection points: 4
#     Node 6, Type 0, BuildingBlock: NAWXER_clean_sbu_0, # of connection points: 4
#     Node 7, Type 0, BuildingBlock: NAWXER_clean_sbu_0, # of connection points: 4
#     Node 8, Type 0, BuildingBlock: NAWXER_clean_sbu_0, # of connection points: 4
#     Node 9, Type 0, BuildingBlock: NAWXER_clean_sbu_0, # of connection points: 4
#     Node 10, Type 0, BuildingBlock: NAWXER_clean_sbu_0, # of connection points: 4
#     Node 11, Type 0, BuildingBlock: NAWXER_clean_sbu_0, # of connection points: 4
#     Node 12, Type 0, BuildingBlock: NAWXER_clean_sbu_0, # of connection points: 4
#     Node 13, Type 0, BuildingBlock: NAWXER_clean_sbu_0, # of connection points: 4
#     Node 14, Type 0, BuildingBlock: NAWXER_clean_sbu_0, # of connection points: 4
#     Node 15, Type 0, BuildingBlock: NAWXER_clean_sbu_0, # of connection points: 4
#     Edge 16, Type (0, 0), BuildingBlock: UVAHIK_clean_linker_0, # of connection points: 2
#     Edge 17, Type (0, 0), BuildingBlock: UVAHIK_clean_linker_0, # of connection points: 2
#     Edge 18, Type (0, 0), BuildingBlock: UVAHIK_clean_linker_0, # of connection points: 2
#     Edge 19, Type (0, 0), BuildingBlock: UVAHIK_clean_linker_0, # of connection points: 2
#     Edge 20, Type (0, 0), BuildingBlock: UVAHIK_clean_linker_0, # of connection points: 2
#     Edge 21, Type (0, 0), BuildingBlock: UVAHIK_clean_linker_0, # of connection points: 2
#     Edge 22, Type (0, 0), BuildingBlock: UVAHIK_clean_linker_0, # of connection points: 2
#     Edge 23, Type (0, 0), BuildingBlock: UVAHIK_clean_linker_0, # of connection points: 2
#     Edge 24, Type (0, 0), BuildingBlock: UVAHIK_clean_linker_0, # of connection points: 2
#     Edge 25, Type (0, 0), BuildingBlock: UVAHIK_clean_linker_0, # of connection points: 2
#     Edge 26, Type (0, 0), BuildingBlock: UVAHIK_clean_linker_0, # of connection points: 2
#     Edge 27, Type (0, 0), BuildingBlock: UVAHIK_clean_linker_0, # of connection points: 2
#     Edge 28, Type (0, 0), BuildingBlock: UVAHIK_clean_linker_0, # of connection points: 2
#     Edge 29, Type (0, 0), BuildingBlock: UVAHIK_clean_linker_0, # of connection points: 2
#     Edge 30, Type (0, 0), BuildingBlock: UVAHIK_clean_linker_0, # of connection points: 2
#     Edge 31, Type (0, 0), BuildingBlock: UVAHIK_clean_linker_0, # of connection points: 2
#     Edge 32, Type (0, 0), BuildingBlock: UVAHIK_clean_linker_0, # of connection points: 2
#     Edge 33, Type (0, 0), BuildingBlock: UVAHIK_clean_linker_0, # of connection points: 2
#     Edge 34, Type (0, 0), BuildingBlock: UVAHIK_clean_linker_0, # of connection points: 2
#     Edge 35, Type (0, 0), BuildingBlock: UVAHIK_clean_linker_0, # of connection points: 2
#     Edge 36, Type (0, 0), BuildingBlock: UVAHIK_clean_linker_0, # of connection points: 2
#     Edge 37, Type (0, 0), BuildingBlock: UVAHIK_clean_linker_0, # of connection points: 2
#     Edge 38, Type (0, 0), BuildingBlock: UVAHIK_clean_linker_0, # of connection points: 2
#     Edge 39, Type (0, 0), BuildingBlock: UVAHIK_clean_linker_0, # of connection points: 2
#     Edge 40, Type (0, 0), BuildingBlock: UVAHIK_clean_linker_0, # of connection points: 2
#     Edge 41, Type (0, 0), BuildingBlock: UVAHIK_clean_linker_0, # of connection points: 2
#     Edge 42, Type (0, 0), BuildingBlock: UVAHIK_clean_linker_0, # of connection points: 2
#     Edge 43, Type (0, 0), BuildingBlock: UVAHIK_clean_linker_0, # of connection points: 2
#     Edge 44, Type (0, 0), BuildingBlock: UVAHIK_clean_linker_0, # of connection points: 2
#     Edge 45, Type (0, 0), BuildingBlock: UVAHIK_clean_linker_0, # of connection points: 2
#     Edge 46, Type (0, 0), BuildingBlock: UVAHIK_clean_linker_0, # of connection points: 2
#     Edge 47, Type (0, 0), BuildingBlock: UVAHIK_clean_linker_0, # of connection points: 2
# Relax obj value: 0.021
# Max RMSD: 0.113
# Mean RMSD: 0.113
data_MOF--net-ukk--node1-NAWXER_clean_sbu_0--edge1-UVAHIK_clean_linker_0
_symmetry_space_group_name_H-M    P1
_symmetry_Int_Tables_number       1
_symmetry_cell_setting            triclinic
loop_
_symmetry_equiv_pos_as_xyz
'x, y, z'
_cell_length_a     73.4426
_cell_length_b     73.247652
_cell_length_c     15.798738
_cell_angle_alpha  89.694701
_cell_angle_beta   89.691729
_cell_angle_gamma 90.056607
loop_
_atom_site_label
_atom_site_type_symbol
_atom_site_fract_x
_atom_site_fract_y
_atom_site_fract_z
_atom_type_partial_charge
C0 C 0.38015 0.16671 0.25763 0.0
C1 C 0.37649 0.09938 0.25642 0.0
O2 O 0.38389 0.15921 0.18661 0.0
Zn3 Zn 0.38611 0.13287 0.13175 0.0
O4 O 0.37626 0.15665 0.32124 0.0
Zn5 Zn 0.37824 0.13295 0.26343 0.0
O6 O 0.40663 0.13093 0.2401 0.0
O7 O 0.41173 0.13146 0.1023 0.0
O8 O 0.37388 0.10952 0.32066 0.0
O9 O 0.38087 0.1066 0.1852 0.0
O10 O 0.3679 0.134 0.04465 0.0
O11 O 0.35639 0.1341 0.17428 0.0
C12 C 0.41775 0.1304 0.17751 0.0
C13 C 0.35412 0.13441 0.09383 0.0
C14 C 0.11784 0.61216 0.83366 0.0
C15 C 0.12364 0.67155 0.9739 0.0
O16 O 0.11875 0.61159 0.91451 0.0
Zn17 Zn 0.12148 0.62891 0.02057 0.0
O18 O 0.11862 0.62748 0.79514 0.0
Zn19 Zn 0.12086 0.64242 0.89724 0.0
O20 O 0.14705 0.63426 0.93809 0.0
O21 O 0.14541 0.62145 0.06462 0.0
O22 O 0.12289 0.66906 0.89425 0.0
O23 O 0.1232 0.65775 0.02393 0.0
O24 O 0.09825 0.62417 0.07932 0.0
O25 O 0.09503 0.63841 0.95675 0.0
C26 C 0.15488 0.62647 0.00076 0.0
C27 C 0.08796 0.63148 0.02396 0.0
C28 C 0.61453 0.89657 0.18393 0.0
C29 C 0.6741 0.89555 0.03395 0.0
O30 O 0.63014 0.89731 0.21852 0.0
Zn31 Zn 0.64494 0.89652 0.11415 0.0
O32 O 0.61348 0.89627 0.10293 0.0
Zn33 Zn 0.63104 0.89678 0.99393 0.0
O34 O 0.62501 0.87347 0.94011 0.0
O35 O 0.63817 0.87027 0.0647 0.0
O36 O 0.66013 0.89603 0.98573 0.0
O37 O 0.67176 0.89551 0.11398 0.0
O38 O 0.64049 0.92289 0.06151 0.0
O39 O 0.62555 0.92062 0.94147 0.0
C40 C 0.63087 0.86315 0.99917 0.0
C41 C 0.6332 0.93052 0.99695 0.0
C42 C 0.88063 0.40593 0.67618 0.0
C43 C 0.88626 0.34765 0.83652 0.0
O44 O 0.88222 0.40728 0.75642 0.0
Zn45 Zn 0.8857 0.39107 0.86692 0.0
O46 O 0.8809 0.39023 0.6415 0.0
Zn47 Zn 0.88382 0.376 0.74784 0.0
O48 O 0.85868 0.38161 0.80885 0.0
O49 O 0.86298 0.39766 0.92538 0.0
O50 O 0.88526 0.34911 0.75622 0.0
O51 O 0.88648 0.36217 0.88133 0.0
O52 O 0.91019 0.39887 0.90312 0.0
O53 O 0.91017 0.38467 0.78021 0.0
C54 C 0.85225 0.38989 0.87356 0.0
C55 C 0.91875 0.39321 0.838 0.0
C56 C 0.41165 0.39579 0.02028 0.0
C57 C 0.34825 0.39698 0.11519 0.0
O58 O 0.39729 0.39635 0.97593 0.0
Zn59 Zn 0.37984 0.39629 0.06809 0.0
O60 O 0.41027 0.39569 0.10133 0.0
Zn61 Zn 0.38874 0.3966 0.19479 0.0
O62 O 0.39198 0.37407 0.25768 0.0
O63 O 0.38319 0.36964 0.12619 0.0
O64 O 0.35952 0.39722 0.17708 0.0
O65 O 0.35429 0.39619 0.03977 0.0
O66 O 0.38295 0.42315 0.12252 0.0
O67 O 0.3933 0.4195 0.25223 0.0
C68 C 0.38772 0.36315 0.19879 0.0
C69 C 0.38818 0.43005 0.19288 0.0
C70 C 0.38162 0.61962 0.09185 0.0
C71 C 0.3846 0.67618 0.91954 0.0
O72 O 0.38181 0.61748 0.01149 0.0
Zn73 Zn 0.38346 0.63273 0.89624 0.0
O74 O 0.38271 0.63561 0.12319 0.0
Zn75 Zn 0.3834 0.64859 0.01351 0.0
O76 O 0.35737 0.64138 0.96722 0.0
O77 O 0.35964 0.62603 0.84769 0.0
O78 O 0.38428 0.67533 0.0001 0.0
O79 O 0.38432 0.66135 0.87706 0.0
O80 O 0.40747 0.62464 0.85223 0.0
O81 O 0.40919 0.6399 0.97201 0.0
C82 C 0.34979 0.63278 0.90649 0.0
C83 C 0.41696 0.63096 0.91275 0.0
C84 C 0.66697 0.63619 0.26468 0.0
C85 C 0.60635 0.63272 0.13575 0.0
O86 O 0.66756 0.63583 0.18347 0.0
Zn87 Zn 0.64863 0.63458 0.07971 0.0
O88 O 0.65157 0.63591 0.30181 0.0
Zn89 Zn 0.63644 0.63475 0.2014 0.0
O90 O 0.64234 0.60797 0.1521 0.0
O91 O 0.655 0.61169 0.02639 0.0
O92 O 0.61019 0.63351 0.21409 0.0
O93 O 0.61929 0.63303 0.08092 0.0
O94 O 0.65274 0.65734 0.01859 0.0
O95 O 0.63993 0.6613 0.1436 0.0
C96 C 0.64933 0.60109 0.08487 0.0
C97 C 0.64613 0.66801 0.07395 0.0
C98 C 0.63835 0.41021 0.89128 0.0
C99 C 0.63444 0.34953 0.75661 0.0
O100 O 0.63529 0.41015 0.81171 0.0
Zn101 Zn 0.63087 0.39221 0.70961 0.0
O102 O 0.63894 0.39514 0.93201 0.0
Zn103 Zn 0.63536 0.37914 0.83264 0.0
O104 O 0.65917 0.38546 0.76126 0.0
O105 O 0.65209 0.39913 0.64038 0.0
O106 O 0.63651 0.35228 0.83562 0.0
O107 O 0.63225 0.36322 0.70691 0.0
O108 O 0.60549 0.39744 0.67792 0.0
O109 O 0.6078 0.38417 0.8029 0.0
C110 C 0.66402 0.39299 0.69148 0.0
C111 C 0.5979 0.39106 0.74448 0.0
C112 C 0.88601 0.66646 0.64588 0.0
C113 C 0.88296 0.59921 0.6197 0.0
O114 O 0.8912 0.65703 0.58267 0.0
Zn115 Zn 0.88478 0.63294 0.6283 0.0
O116 O 0.87871 0.65834 0.70975 0.0
Zn117 Zn 0.87172 0.63107 0.7501 0.0
O118 O 0.88673 0.62821 0.85165 0.0
O119 O 0.90279 0.63128 0.73394 0.0
O120 O 0.87588 0.60553 0.68785 0.0
O121 O 0.89023 0.61023 0.56681 0.0
O122 O 0.85561 0.63381 0.62605 0.0
O123 O 0.84512 0.6321 0.75684 0.0
C124 C 0.90212 0.62952 0.81465 0.0
C125 C 0.84209 0.63339 0.67775 0.0
C126 C 0.64643 0.11715 0.17432 0.0
C127 C 0.64393 0.17408 0.34011 0.0
O128 O 0.64502 0.11491 0.2545 0.0
Zn129 Zn 0.64249 0.13043 0.36768 0.0
O130 O 0.64677 0.13323 0.14314 0.0
Zn131 Zn 0.64515 0.14627 0.25157 0.0
O132 O 0.66994 0.13901 0.31165 0.0
O133 O 0.66434 0.12238 0.42636 0.0
O134 O 0.6452 0.17289 0.25987 0.0
O135 O 0.64294 0.15943 0.38475 0.0
O136 O 0.61798 0.12367 0.40652 0.0
O137 O 0.61837 0.13963 0.28773 0.0
C138 C 0.67564 0.12999 0.37593 0.0
C139 C 0.60947 0.13111 0.34539 0.0
C140 C 0.10343 0.39395 0.54268 0.0
C141 C 0.16402 0.39787 0.40962 0.0
O142 O 0.11667 0.39318 0.59489 0.0
Zn143 Zn 0.14556 0.39369 0.59434 0.0
O144 O 0.10681 0.39517 0.46373 0.0
Zn145 Zn 0.13342 0.39543 0.47114 0.0
O146 O 0.13986 0.3684 0.513 0.0
O147 O 0.1518 0.36997 0.64064 0.0
O148 O 0.14888 0.39768 0.37065 0.0
O149 O 0.16416 0.39651 0.49055 0.0
O150 O 0.15013 0.41571 0.65825 0.0
O151 O 0.13828 0.421 0.53215 0.0
C152 C 0.14679 0.36047 0.57774 0.0
C153 C 0.14453 0.42694 0.60244 0.0
C154 C 0.39827 0.90776 0.3154 0.0
C155 C 0.39323 0.84801 0.46226 0.0
O156 O 0.39891 0.9079 0.3962 0.0
Zn157 Zn 0.39756 0.89064 0.50325 0.0
O158 O 0.39619 0.89269 0.27628 0.0
Zn159 Zn 0.39562 0.87707 0.37912 0.0
O160 O 0.37061 0.88617 0.42921 0.0
O161 O 0.37409 0.89887 0.55444 0.0
O162 O 0.39289 0.85017 0.38212 0.0
O163 O 0.39494 0.86201 0.50962 0.0
O164 O 0.42248 0.89476 0.54823 0.0
O165 O 0.42249 0.88083 0.4248 0.0
C166 C 0.36376 0.89419 0.49352 0.0
C167 C 0.4313 0.88758 0.48701 0.0
C168 C 0.85261 0.89505 0.63441 0.0
C169 C 0.91394 0.89976 0.5008 0.0
O170 O 0.85569 0.89522 0.55485 0.0
Zn171 Zn 0.8826 0.89702 0.55994 0.0
O172 O 0.86608 0.89582 0.68536 0.0
Zn173 Zn 0.89494 0.89755 0.6853 0.0
O174 O 0.8987 0.9216 0.73919 0.0
O175 O 0.88577 0.92344 0.61376 0.0
O176 O 0.91355 0.89948 0.58187 0.0
O177 O 0.89902 0.89855 0.46018 0.0
O178 O 0.88983 0.87102 0.60929 0.0
O179 O 0.90151 0.87379 0.73689 0.0
C180 C 0.89181 0.9313 0.6802 0.0
C181 C 0.89675 0.86367 0.67539 0.0
C182 C 0.88722 0.11852 0.46883 0.0
C183 C 0.89021 0.17547 0.29765 0.0
O184 O 0.89152 0.11642 0.39091 0.0
Zn185 Zn 0.89678 0.13207 0.27922 0.0
O186 O 0.88476 0.13455 0.49775 0.0
Zn187 Zn 0.88906 0.14779 0.38998 0.0
O188 O 0.86733 0.13799 0.3144 0.0
O189 O 0.87799 0.12185 0.2066 0.0
O190 O 0.88665 0.17436 0.37657 0.0
O191 O 0.89407 0.16086 0.25688 0.0
O192 O 0.9227 0.12739 0.26016 0.0
O193 O 0.91721 0.14363 0.37453 0.0
C194 C 0.86462 0.12838 0.24817 0.0
C195 C 0.92853 0.13576 0.32504 0.0
C196 C 0.17287 0.13143 0.75615 0.0
C197 C 0.11101 0.12945 0.64447 0.0
O198 O 0.17199 0.13104 0.67515 0.0
Zn199 Zn 0.15211 0.1305 0.57699 0.0
O200 O 0.15827 0.13156 0.80008 0.0
Zn201 Zn 0.14167 0.13098 0.70524 0.0
O202 O 0.14723 0.10455 0.6556 0.0
O203 O 0.15705 0.10715 0.52339 0.0
O204 O 0.11535 0.1307 0.72206 0.0
O205 O 0.12345 0.12935 0.58752 0.0
O206 O 0.15632 0.15374 0.51853 0.0
O207 O 0.14657 0.15699 0.64997 0.0
C208 C 0.15292 0.09721 0.58703 0.0
C209 C 0.15209 0.16406 0.58014 0.0
C210 C 0.13116 0.90748 0.51271 0.0
C211 C 0.13402 0.84816 0.3706 0.0
O212 O 0.13311 0.90809 0.43221 0.0
Zn213 Zn 0.1363 0.89075 0.32603 0.0
O214 O 0.13089 0.89217 0.55155 0.0
Zn215 Zn 0.13303 0.87735 0.44892 0.0
O216 O 0.1604 0.88333 0.41514 0.0
O217 O 0.16153 0.8968 0.29031 0.0
O218 O 0.13216 0.85063 0.44989 0.0
O219 O 0.13569 0.862 0.32139 0.0
O220 O 0.11402 0.89722 0.26244 0.0
O221 O 0.10827 0.88475 0.38736 0.0
C222 C 0.16974 0.89076 0.35563 0.0
C223 C 0.10255 0.89214 0.31881 0.0
C224 C 0.38597 0.9315 0.21561 0.0
C225 C 0.39937 0.92569 0.27266 0.0
C226 C 0.38381 0.95021 0.19778 0.0
C227 C 0.40511 0.99635 0.23768 0.0
H228 H 0.35504 1.01304 0.23481 0.0
C229 C 0.3837 0.06973 0.32888 0.0
C230 C 0.37553 0.07926 0.26179 0.0
C231 C 0.38583 0.05073 0.32472 0.0
C232 C 0.36907 1.00851 0.23553 0.0
H233 H 0.42179 0.93452 0.35078 0.0
H234 H 0.41807 0.96664 0.32129 0.0
H235 H 0.36155 0.98036 0.22632 0.0
H236 H 0.3623 0.07642 0.14027 0.0
H237 H 0.36526 0.04314 0.13516 0.0
H238 H 0.41245 0.02452 0.25149 0.0
C239 C 0.40927 0.95717 0.28869 0.0
C240 C 0.37287 0.9898 0.22951 0.0
C241 C 0.41143 0.93863 0.30594 0.0
C242 C 0.36859 0.06937 0.19301 0.0
C243 C 0.37028 0.05037 0.18996 0.0
C244 C 0.40128 0.01495 0.24569 0.0
C245 C 0.39499 0.96337 0.23698 0.0
C246 C 0.39096 0.98339 0.23182 0.0
C247 C 0.37938 0.04095 0.25454 0.0
C248 C 0.38323 0.02118 0.24574 0.0
H249 H 0.37631 0.92181 0.19012 0.0
H250 H 0.37288 0.95439 0.15626 0.0
H251 H 0.41924 0.99213 0.23731 0.0
H252 H 0.38937 0.07706 0.38199 0.0
H253 H 0.39287 0.0437 0.37538 0.0
C254 C 0.05826 0.62002 0.08741 0.0
C255 C 0.06783 0.63205 0.03354 0.0
C256 C 0.03909 0.61987 0.08816 0.0
C257 C 0.99902 0.64769 0.021 0.0
H258 H 0.97436 0.60128 0.99354 0.0
C259 C 0.93433 0.63956 0.82789 0.0
C260 C 0.91943 0.63001 0.86251 0.0
C261 C 0.95101 0.63994 0.86946 0.0
C262 C 0.981 0.61432 0.00289 0.0
H263 H 0.06475 0.6538 0.94084 0.0
H264 H 0.03186 0.65351 0.94201 0.0
H265 H 1.00673 0.60184 0.03106 0.0
H266 H 0.91036 0.61329 0.96817 0.0
H267 H 0.94009 0.61347 0.04032 0.0
H268 H 0.97367 0.66014 0.98748 0.0
C269 C 0.03892 0.64424 0.98422 0.0
C270 C 0.99953 0.61466 0.02449 0.0
C271 C 0.05788 0.64429 0.98298 0.0
C272 C 0.9216 0.62082 0.94025 0.0
C273 C 0.93857 0.62086 0.98123 0.0
C274 C 0.98065 0.64733 0.99871 0.0
C275 C 0.0292 0.63195 0.03602 0.0
C276 C 1.00892 0.63137 0.03054 0.0
C277 C 0.9534 0.63051 0.94616 0.0
C278 C 0.97161 0.63067 0.98656 0.0
H279 H 0.06555 0.61038 0.12688 0.0
H280 H 0.03202 0.61026 0.12898 0.0
H281 H 1.00569 0.66081 0.02715 0.0
H282 H 0.9331 0.64685 0.76834 0.0
H283 H 0.96224 0.64734 0.84056 0.0
C284 C 0.62391 0.96078 0.93095 0.0
C285 C 0.63463 0.95071 0.98812 0.0
C286 C 0.62545 0.97993 0.92645 0.0
C287 C 0.65713 0.01761 0.98027 0.0
H288 H 0.61419 0.04786 0.00563 0.0
C289 C 0.65817 0.08591 0.1505 0.0
C290 C 0.64768 0.10063 0.12131 0.0
C291 C 0.6574 0.06899 0.11065 0.0
C292 C 0.6263 0.03966 0.99658 0.0
H293 H 0.65557 0.95293 0.0841 0.0
H294 H 0.65825 0.98579 0.07585 0.0
H295 H 0.6108 0.01508 0.97905 0.0
H296 H 0.62834 0.10935 0.0265 0.0
H297 H 0.62668 0.07935 0.95681 0.0
H298 H 0.67264 0.04189 0.00175 0.0
C299 C 0.64871 0.97907 0.03419 0.0
C300 C 0.62436 0.02088 0.98143 0.0
C301 C 0.64703 0.96016 0.03941 0.0
C302 C 0.63676 0.09826 0.04941 0.0
C303 C 0.63569 0.08109 0.0102 0.0
C304 C 0.65906 0.03628 0.99545 0.0
C305 C 0.63798 0.98925 0.97787 0.0
C306 C 0.63977 1.00954 0.9765 0.0
C307 C 0.64585 0.06621 0.04127 0.0
C308 C 0.64369 0.04741 0.00706 0.0
H309 H 0.6142 0.95392 0.89068 0.0
H310 H 0.61697 0.98742 0.88248 0.0
H311 H 0.66929 1.00932 0.975 0.0
H312 H 0.66661 0.08734 0.20617 0.0
H313 H 0.66522 0.05781 0.13699 0.0
C314 C 0.06953 0.39777 0.52435 0.0
C315 C 0.08454 0.39421 0.57664 0.0
C316 C 0.05197 0.39911 0.5591 0.0
C317 C 0.02452 0.38668 0.74892 0.0
H318 H 0.99213 0.4244 0.66608 0.0
C319 C 0.95142 0.39665 0.88506 0.0
C320 C 0.93812 0.39748 0.8217 0.0
C321 C 0.96996 0.39836 0.86347 0.0
C322 C 1.00101 0.41379 0.68994 0.0
H323 H 0.09274 0.38894 0.70645 0.0
H324 H 0.06235 0.39134 0.76633 0.0
H325 H 0.0229 0.42213 0.60839 0.0
H326 H 0.93354 0.40182 0.68757 0.0
H327 H 0.96544 0.40494 0.65055 0.0
H328 H 1.00247 0.37816 0.82946 0.0
C329 C 0.06404 0.39298 0.69857 0.0
C330 C 0.01861 0.41241 0.65644 0.0
C331 C 0.08152 0.39169 0.66403 0.0
C332 C 0.94353 0.40099 0.73774 0.0
C333 C 0.96184 0.40293 0.71653 0.0
C334 C 1.00689 0.38806 0.78246 0.0
C335 C 0.04905 0.39684 0.64679 0.0
C336 C 0.0305 0.39866 0.68449 0.0
C337 C 0.97533 0.40128 0.77859 0.0
C338 C 0.99482 0.40143 0.75223 0.0
H339 H 0.07137 0.39979 0.45688 0.0
H340 H 0.04066 0.40185 0.5172 0.0
H341 H 0.03327 0.37584 0.77164 0.0
H342 H 0.94758 0.3939 0.95018 0.0
H343 H 0.98008 0.39714 0.91277 0.0
C344 C 0.37628 0.46086 0.15297 0.0
C345 C 0.38749 0.45011 0.20501 0.0
C346 C 0.37514 0.47972 0.16454 0.0
C347 C 0.40001 0.51941 0.23526 0.0
H348 H 0.35239 0.54221 0.23989 0.0
C349 C 0.39226 0.59793 0.20513 0.0
C350 C 0.37937 0.60303 0.14415 0.0
C351 C 0.39251 0.57995 0.23696 0.0
C352 C 0.36582 0.53611 0.23855 0.0
H353 H 0.40649 0.45082 0.30949 0.0
H354 H 0.40491 0.48408 0.32789 0.0
H355 H 0.35481 0.50902 0.24429 0.0
H356 H 0.35613 0.59393 0.07214 0.0
H357 H 0.3564 0.56301 0.12706 0.0
H358 H 0.41102 0.54642 0.224 0.0
C359 C 0.39684 0.47774 0.27895 0.0
C360 C 0.36718 0.51709 0.24132 0.0
C361 C 0.39771 0.45873 0.2685 0.0
C362 C 0.36609 0.59036 0.11985 0.0
C363 C 0.36624 0.57259 0.15172 0.0
C364 C 0.39865 0.5385 0.23125 0.0
C365 C 0.38541 0.48838 0.22747 0.0
C366 C 0.38425 0.50852 0.23722 0.0
C367 C 0.3798 0.56691 0.2086 0.0
C368 C 0.38149 0.54708 0.23 0.0
H369 H 0.36817 0.45467 0.10372 0.0
H370 H 0.36637 0.48761 0.12331 0.0
H371 H 0.41334 0.51314 0.23184 0.0
H372 H 0.40283 0.6074 0.22371 0.0
H373 H 0.40304 0.5761 0.28126 0.0
C374 C 0.44345 0.62515 0.00457 0.0
C375 C 0.43666 0.62731 0.92216 0.0
C376 C 0.46209 0.62457 0.01938 0.0
C377 C 0.50757 0.61798 0.92745 0.0
H378 H 0.5218 0.64872 0.11527 0.0
C379 C 0.58313 0.63102 0.01987 0.0
C380 C 0.58716 0.63153 0.10689 0.0
C381 C 0.56509 0.63014 0.99205 0.0
C382 C 0.51809 0.6399 0.06331 0.0
H383 H 0.44408 0.62944 0.78971 0.0
H384 H 0.4772 0.62851 0.8158 0.0
H385 H 0.49007 0.64738 0.07324 0.0
H386 H 0.57529 0.6312 0.23281 0.0
H387 H 0.54386 0.62949 0.18445 0.0
H388 H 0.53573 0.6104 0.91836 0.0
C389 C 0.46787 0.62727 0.86885 0.0
C390 C 0.49988 0.63917 0.03896 0.0
C391 C 0.44898 0.62776 0.85381 0.0
C392 C 0.5727 0.63095 0.16539 0.0
C393 C 0.55466 0.63006 0.13756 0.0
C394 C 0.5259 0.61868 0.95204 0.0
C395 C 0.47457 0.62628 0.95229 0.0
C396 C 0.49431 0.62796 0.97183 0.0
C397 C 0.55061 0.62977 0.0505 0.0
C398 C 0.53132 0.62944 0.02125 0.0
H399 H 0.43429 0.62441 0.0585 0.0
H400 H 0.46675 0.62325 0.08407 0.0
H401 H 0.50369 0.60919 0.87567 0.0
H402 H 0.59392 0.63145 0.97292 0.0
H403 H 0.56249 0.63012 0.92464 0.0
C404 C 0.65193 0.441 0.88087 0.0
C405 C 0.64248 0.42805 0.93023 0.0
C406 C 0.65363 0.45898 0.90757 0.0
C407 C 0.65009 0.49085 0.08608 0.0
H408 H 0.6395 0.52543 0.90605 0.0
C409 C 0.64296 0.56932 0.13839 0.0
C410 C 0.64999 0.58093 0.07481 0.0
C411 C 0.64256 0.55037 0.12715 0.0
C412 C 0.64273 0.51602 0.95689 0.0
H413 H 0.62832 0.42352 0.04899 0.0
H414 H 0.63121 0.45546 0.09635 0.0
H415 H 0.63789 0.49291 0.87837 0.0
H416 H 0.66265 0.58157 0.95056 0.0
H417 H 0.66216 0.54858 0.93128 0.0
H418 H 0.65499 0.51419 0.16451 0.0
C419 C 0.63733 0.45149 0.03671 0.0
C420 C 0.64175 0.49733 0.94109 0.0
C421 C 0.6357 0.43324 0.00988 0.0
C422 C 0.65703 0.57308 0.0006 0.0
C423 C 0.65664 0.55414 0.98938 0.0
C424 C 0.6511 0.50968 0.10199 0.0
C425 C 0.6458 0.46466 0.98421 0.0
C426 C 0.6457 0.48449 0.00491 0.0
C427 C 0.64916 0.54255 0.05196 0.0
C428 C 0.64768 0.52249 0.03709 0.0
H429 H 0.65759 0.43733 0.81979 0.0
H430 H 0.66071 0.46861 0.86676 0.0
H431 H 0.65324 0.48131 0.13649 0.0
H432 H 0.63742 0.57488 0.19647 0.0
H433 H 0.63659 0.5419 0.17636 0.0
C434 C 0.4452 0.3901 0.02726 0.0
C435 C 0.42988 0.39505 0.97948 0.0
C436 C 0.46241 0.38913 0.98948 0.0
C437 C 0.49043 0.40646 0.81521 0.0
H438 H 0.52023 0.36421 0.86632 0.0
C439 C 0.56575 0.39816 0.69609 0.0
C440 C 0.57783 0.39143 0.75762 0.0
C441 C 0.54685 0.39813 0.71147 0.0
C442 C 0.51215 0.37617 0.85169 0.0
H443 H 0.4207 0.40315 0.85451 0.0
H444 H 0.451 0.40175 0.78871 0.0
H445 H 0.48886 0.36527 0.91638 0.0
H446 H 0.57941 0.37972 0.8841 0.0
H447 H 0.54706 0.37994 0.91066 0.0
H448 H 0.51405 0.41766 0.75318 0.0
C449 C 0.44956 0.39851 0.85539 0.0
C450 C 0.49416 0.37673 0.88029 0.0
C451 C 0.43223 0.39923 0.89301 0.0
C452 C 0.57061 0.38486 0.83462 0.0
C453 C 0.55193 0.38485 0.84982 0.0
C454 C 0.50859 0.40597 0.78709 0.0
C455 C 0.46479 0.39329 0.90318 0.0
C456 C 0.48322 0.39206 0.86424 0.0
C457 C 0.53974 0.39131 0.78845 0.0
C458 C 0.51981 0.39101 0.80712 0.0
H459 H 0.4439 0.3868 0.09394 0.0
H460 H 0.47393 0.38527 0.02817 0.0
H461 H 0.48229 0.41845 0.80195 0.0
H462 H 0.57086 0.40335 0.6362 0.0
H463 H 0.53782 0.40321 0.6628 0.0
C464 C 0.89231 0.43067 0.58004 0.0
C465 C 0.87805 0.42311 0.62854 0.0
C466 C 0.89247 0.44947 0.56078 0.0
C467 C 0.87743 0.49111 0.6633 0.0
H468 H 0.88831 0.51717 0.4549 0.0
C469 C 0.86952 0.56855 0.65001 0.0
C470 C 0.88226 0.57916 0.60479 0.0
C471 C 0.86917 0.54959 0.64215 0.0
C472 C 0.88548 0.51009 0.51385 0.0
H473 H 0.8524 0.42887 0.69064 0.0
H474 H 0.85245 0.46134 0.65582 0.0
H475 H 0.88705 0.4836 0.45537 0.0
H476 H 0.90431 0.57807 0.51339 0.0
H477 H 0.90407 0.54463 0.5012 0.0
H478 H 0.87633 0.5171 0.72304 0.0
C479 C 0.86354 0.45294 0.63288 0.0
C480 C 0.88469 0.49087 0.51392 0.0
C481 C 0.86338 0.4343 0.6519 0.0
C482 C 0.89435 0.57029 0.54922 0.0
C483 C 0.89415 0.55112 0.54207 0.0
C484 C 0.87842 0.51013 0.66352 0.0
C485 C 0.87847 0.46092 0.59065 0.0
C486 C 0.88026 0.48121 0.58847 0.0
C487 C 0.88175 0.54048 0.58985 0.0
C488 C 0.88205 0.52 0.5886 0.0
H489 H 0.90401 0.42243 0.56339 0.0
H490 H 0.90419 0.45524 0.52843 0.0
H491 H 0.87449 0.48408 0.72234 0.0
H492 H 0.85977 0.5749 0.69223 0.0
H493 H 0.85901 0.54205 0.67788 0.0
C494 C 0.58163 0.13558 0.25972 0.0
C495 C 0.58949 0.1298 0.33627 0.0
C496 C 0.56293 0.13494 0.24828 0.0
C497 C 0.5207 0.11356 0.32334 0.0
H498 H 0.49897 0.15429 0.20245 0.0
C499 C 0.44314 0.12308 0.27589 0.0
C500 C 0.43739 0.1286 0.1949 0.0
C501 C 0.4616 0.12225 0.29536 0.0
C502 C 0.50488 0.14275 0.2355 0.0
H503 H 0.58379 0.11844 0.46055 0.0
H504 H 0.55059 0.11752 0.44073 0.0
H505 H 0.5311 0.15529 0.23886 0.0
H506 H 0.44649 0.13716 0.07013 0.0
H507 H 0.47894 0.1359 0.10459 0.0
H508 H 0.49424 0.10117 0.32044 0.0
C509 C 0.55917 0.12246 0.38955 0.0
C510 C 0.52326 0.14332 0.25661 0.0
C511 C 0.57811 0.12304 0.40103 0.0
C512 C 0.45052 0.13289 0.13305 0.0
C513 C 0.46905 0.13226 0.1529 0.0
C514 C 0.5022 0.11306 0.30274 0.0
C515 C 0.55142 0.12863 0.31318 0.0
C516 C 0.53147 0.1286 0.29931 0.0
C517 C 0.47472 0.1271 0.23454 0.0
C518 C 0.49422 0.12754 0.25746 0.0
H519 H 0.58994 0.14061 0.20771 0.0
H520 H 0.55748 0.13931 0.18788 0.0
H521 H 0.52667 0.10197 0.35564 0.0
H522 H 0.43334 0.11955 0.32484 0.0
H523 H 0.46559 0.11835 0.35885 0.0
C524 C 0.12381 0.5923 0.70647 0.0
C525 C 0.11679 0.59457 0.7886 0.0
C526 C 0.12553 0.57473 0.67216 0.0
C527 C 0.11166 0.52606 0.71009 0.0
H528 H 0.15778 0.5147 0.60207 0.0
C529 C 0.14113 0.45341 0.70067 0.0
C530 C 0.14404 0.44674 0.6186 0.0
C531 C 0.13797 0.47203 0.71345 0.0
C532 C 0.14483 0.51776 0.63186 0.0
H533 H 0.10495 0.58044 0.89677 0.0
H534 H 0.10819 0.55028 0.83869 0.0
H535 H 0.15009 0.54653 0.63255 0.0
H536 H 0.14703 0.45432 0.48632 0.0
H537 H 0.14215 0.48698 0.50945 0.0
H538 H 0.1069 0.49721 0.71329 0.0
C539 C 0.11225 0.56178 0.7996 0.0
C540 C 0.14031 0.53597 0.64851 0.0
C541 C 0.11054 0.57917 0.83345 0.0
C542 C 0.14474 0.45912 0.55026 0.0
C543 C 0.14201 0.47776 0.56333 0.0
C544 C 0.11635 0.50792 0.69501 0.0
C545 C 0.12013 0.55922 0.71936 0.0
C546 C 0.12382 0.54031 0.68957 0.0
C547 C 0.13812 0.48428 0.64467 0.0
C548 C 0.13309 0.5036 0.65719 0.0
H549 H 0.12878 0.60395 0.67062 0.0
H550 H 0.13146 0.57325 0.60968 0.0
H551 H 0.09864 0.52888 0.7397 0.0
H552 H 0.14041 0.44415 0.75429 0.0
H553 H 0.13508 0.47683 0.77686 0.0
C554 C 0.46267 0.89881 0.53143 0.0
C555 C 0.45161 0.88733 0.48227 0.0
C556 C 0.48167 0.89946 0.51779 0.0
C557 C 0.51952 0.87381 0.4099 0.0
H558 H 0.54391 0.92073 0.39835 0.0
C559 C 0.58196 0.88714 0.19894 0.0
C560 C 0.59742 0.89532 0.23477 0.0
C561 C 0.56558 0.88595 0.2441 0.0
C562 C 0.53735 0.90751 0.40255 0.0
H563 H 0.45212 0.86716 0.38205 0.0
H564 H 0.48451 0.86845 0.35804 0.0
H565 H 0.51255 0.91885 0.45222 0.0
H566 H 0.60767 0.90885 0.34647 0.0
H567 H 0.57858 0.90725 0.42506 0.0
H568 H 0.54389 0.86266 0.35577 0.0
C569 C 0.47885 0.87682 0.40796 0.0
C570 C 0.51938 0.90639 0.43366 0.0
C571 C 0.46008 0.8762 0.42136 0.0
C572 C 0.59603 0.9024 0.31726 0.0
C573 C 0.57939 0.90157 0.36201 0.0
C574 C 0.53728 0.87498 0.37786 0.0
C575 C 0.49001 0.88853 0.45525 0.0
C576 C 0.51001 0.88958 0.43533 0.0
C577 C 0.56403 0.8932 0.32592 0.0
C578 C 0.54625 0.89187 0.37176 0.0
H579 H 0.45662 0.90764 0.57857 0.0
H580 H 0.4898 0.90858 0.55586 0.0
H581 H 0.51306 0.86053 0.4124 0.0
H582 H 0.58252 0.88148 0.13576 0.0
H583 H 0.55397 0.87954 0.21434 0.0
C584 C 0.90032 0.96203 0.74341 0.0
C585 C 0.89029 0.95156 0.68544 0.0
C586 C 0.89914 0.98124 0.74249 0.0
C587 C 0.86969 0.01919 0.66365 0.0
H588 H 0.91382 0.04826 0.65844 0.0
C589 C 0.87494 0.08718 0.4861 0.0
C590 C 0.88457 0.10186 0.52102 0.0
C591 C 0.87445 0.07021 0.5267 0.0
C592 C 0.90133 0.0404 0.66149 0.0
H593 H 0.87085 0.95323 0.58256 0.0
H594 H 0.86887 0.98614 0.58111 0.0
H595 H 0.91549 0.0156 0.69254 0.0
H596 H 0.90117 0.11039 0.62646 0.0
H597 H 0.90064 0.0803 0.69758 0.0
H598 H 0.85564 0.04367 0.62867 0.0
C599 C 0.87755 0.97972 0.62778 0.0
C600 C 0.90229 0.02167 0.68104 0.0
C601 C 0.87884 0.96074 0.62817 0.0
C602 C 0.89341 0.09935 0.59892 0.0
C603 C 0.89325 0.08212 0.63902 0.0
C604 C 0.86876 0.03779 0.64378 0.0
C605 C 0.8877 0.99032 0.6845 0.0
C606 C 0.88654 1.01069 0.67934 0.0
C607 C 0.88389 0.06731 0.60273 0.0
C608 C 0.88462 0.04851 0.63963 0.0
H609 H 0.9093 0.95541 0.7882 0.0
H610 H 0.90713 0.98899 0.78717 0.0
H611 H 0.85722 1.01128 0.66376 0.0
H612 H 0.86813 0.0887 0.42575 0.0
H613 H 0.8673 0.0591 0.49638 0.0
C614 C 0.95336 0.14526 0.42173 0.0
C615 C 0.948 0.13577 0.3488 0.0
C616 C 0.97118 0.14433 0.45061 0.0
C617 C 0.01244 0.11589 0.44029 0.0
H618 H 0.03434 0.1581 0.54707 0.0
C619 C 0.08793 0.12037 0.5382 0.0
C620 C 0.09187 0.12807 0.61738 0.0
C621 C 0.0702 0.12028 0.50738 0.0
C622 C 0.02829 0.14615 0.51836 0.0
H623 H 0.9574 0.11823 0.24754 0.0
H624 H 0.98896 0.11695 0.29722 0.0
H625 H 1.00458 0.16092 0.48101 0.0
H626 H 0.08027 0.14125 0.72757 0.0
H627 H 0.04904 0.14137 0.67268 0.0
H628 H 0.03651 0.10131 0.47626 0.0
C629 C 0.97912 0.12485 0.3328 0.0
C630 C 1.01127 0.14775 0.48029 0.0
C631 C 0.96111 0.1257 0.30389 0.0
C632 C 0.0776 0.13522 0.66641 0.0
C633 C 0.05981 0.13538 0.63484 0.0
C634 C 0.0296 0.11436 0.47761 0.0
C635 C 0.98429 0.13404 0.40706 0.0
C636 C 1.00303 0.13259 0.44155 0.0
C637 C 0.05603 0.12809 0.55456 0.0
C638 C 0.0376 0.12945 0.51757 0.0
H639 H 0.94367 0.15314 0.45827 0.0
H640 H 0.97451 0.15131 0.50878 0.0
H641 H 1.0064 0.10388 0.41221 0.0
H642 H 0.09864 0.11462 0.49921 0.0
H643 H 0.0677 0.11468 0.44516 0.0
C644 C 0.14053 0.93011 0.62258 0.0
C645 C 0.12904 0.92503 0.55613 0.0
C646 C 0.14213 0.94857 0.64484 0.0
C647 C 0.12255 0.99504 0.5994 0.0
H648 H 0.17268 1.01091 0.62246 0.0
C649 C 0.14695 0.06769 0.51355 0.0
C650 C 0.15374 0.07716 0.58356 0.0
C651 C 0.14451 0.04875 0.51801 0.0
C652 C 0.15863 1.00659 0.61626 0.0
H653 H 0.10915 0.93465 0.46573 0.0
H654 H 0.11193 0.96645 0.50315 0.0
H655 H 0.16546 0.97832 0.6281 0.0
H656 H 0.16435 0.0744 0.71074 0.0
H657 H 0.16085 0.04117 0.71684 0.0
H658 H 0.116 0.02334 0.58269 0.0
C659 C 0.11964 0.95657 0.53939 0.0
C660 C 0.15442 0.98797 0.62063 0.0
C661 C 0.11807 0.93829 0.5175 0.0
C662 C 0.15911 0.06733 0.65589 0.0
C663 C 0.15712 0.04839 0.65949 0.0
C664 C 0.12684 0.01357 0.59317 0.0
C665 C 0.13224 0.9621 0.60085 0.0
C666 C 0.13635 0.98192 0.61052 0.0
C667 C 0.14929 0.03904 0.59164 0.0
C668 C 0.14493 0.01944 0.60012 0.0
H669 H 0.14925 0.92009 0.65257 0.0
H670 H 0.15173 0.95231 0.69357 0.0
H671 H 0.10844 0.99099 0.59344 0.0
H672 H 0.14253 0.07502 0.45758 0.0
H673 H 0.13849 0.04172 0.46487 0.0
C674 C 0.93491 0.89695 0.37263 0.0
C675 C 0.93198 0.90169 0.45789 0.0
C676 C 0.95252 0.89791 0.33676 0.0
C677 C 0.99801 0.91919 0.37238 0.0
H678 H 0.01809 0.87755 0.25373 0.0
C679 C 0.07319 0.90063 0.38636 0.0
C680 C 0.08276 0.89601 0.31222 0.0
C681 C 0.0544 0.90331 0.38529 0.0
C682 C 0.01259 0.88944 0.28523 0.0
H683 H 0.94529 0.91157 0.57119 0.0
H684 H 0.97542 0.91326 0.50959 0.0
H685 H 0.98535 0.87861 0.28619 0.0
H686 H 0.08003 0.89065 0.17825 0.0
H687 H 0.04663 0.8949 0.17678 0.0
H688 H 0.02526 0.92958 0.37568 0.0
C689 C 0.9643 0.90889 0.46973 0.0
C690 C 0.99383 0.89006 0.30384 0.0
C691 C 0.94693 0.90776 0.50542 0.0
C692 C 0.07302 0.89431 0.2362 0.0
C693 C 0.05395 0.89662 0.23551 0.0
C694 C 0.01665 0.91852 0.35435 0.0
C695 C 0.96744 0.90394 0.38511 0.0
C696 C 0.98645 0.90465 0.35054 0.0
C697 C 0.04448 0.90119 0.31031 0.0
C698 C 0.02429 0.90337 0.31321 0.0
H699 H 0.92371 0.89214 0.33434 0.0
H700 H 0.95446 0.89401 0.27133 0.0
H701 H 0.99276 0.93085 0.4066 0.0
H702 H 0.08029 0.90212 0.44591 0.0
H703 H 0.04754 0.90664 0.44409 0.0
C704 C 0.38918 0.33567 0.2954 0.0
C705 C 0.38775 0.34308 0.21329 0.0
C706 C 0.38886 0.3167 0.30836 0.0
C707 C 0.39772 0.2734 0.19802 0.0
H708 H 0.36647 0.25109 0.36822 0.0
C709 C 0.38147 0.19722 0.18705 0.0
C710 C 0.38051 0.18699 0.26252 0.0
C711 C 0.38272 0.2162 0.18861 0.0
C712 C 0.37549 0.2571 0.32129 0.0
H713 H 0.38493 0.33628 0.08053 0.0
H714 H 0.3846 0.30336 0.10303 0.0
H715 H 0.36829 0.28444 0.35706 0.0
H716 H 0.37969 0.18888 0.3993 0.0
H717 H 0.38215 0.22234 0.40222 0.0
H718 H 0.40504 0.24632 0.16208 0.0
C719 C 0.38599 0.31218 0.15744 0.0
C720 C 0.3765 0.27621 0.3148 0.0
C721 C 0.38609 0.33108 0.1446 0.0
C722 C 0.38043 0.19635 0.34004 0.0
C723 C 0.38179 0.21552 0.34163 0.0
C724 C 0.39683 0.25441 0.20487 0.0
C725 C 0.38738 0.30474 0.23939 0.0
C726 C 0.38733 0.28455 0.25181 0.0
C727 C 0.38323 0.22565 0.26572 0.0
C728 C 0.38537 0.24595 0.26517 0.0
H729 H 0.39041 0.34451 0.34978 0.0
H730 H 0.39005 0.31138 0.37219 0.0
H731 H 0.4065 0.27939 0.15007 0.0
H732 H 0.3813 0.19057 0.12598 0.0
H733 H 0.38325 0.22349 0.12882 0.0
C734 C 0.1858 0.62229 0.06736 0.0
C735 C 0.17479 0.62335 0.99512 0.0
C736 C 0.20483 0.62124 0.05898 0.0
C737 C 0.24213 0.61036 0.90782 0.0
H738 H 0.2699 0.64525 0.03779 0.0
C739 C 0.31904 0.6258 0.84149 0.0
C740 C 0.32984 0.6297 0.91226 0.0
C741 C 0.30006 0.62377 0.85058 0.0
C742 C 0.26246 0.63518 0.00179 0.0
H743 H 0.17499 0.62316 0.8577 0.0
H744 H 0.20788 0.62111 0.84347 0.0
H745 H 0.23723 0.64271 0.06046 0.0
H746 H 0.32932 0.6334 0.0486 0.0
H747 H 0.29688 0.62936 0.06442 0.0
H748 H 0.26741 0.60273 0.84944 0.0
C749 C 0.20197 0.62119 0.90643 0.0
C750 C 0.24368 0.63374 0.01501 0.0
C751 C 0.1831 0.62251 0.91474 0.0
C752 C 0.3214 0.63085 0.99219 0.0
C753 C 0.30267 0.62861 0.00136 0.0
C754 C 0.261 0.61165 0.89515 0.0
C755 C 0.21311 0.62089 0.97826 0.0
C756 C 0.23327 0.62137 0.96807 0.0
C757 C 0.29163 0.6254 0.93075 0.0
C758 C 0.27144 0.62409 0.94204 0.0
H759 H 0.17979 0.62292 0.13002 0.0
H760 H 0.21308 0.6209 0.11556 0.0
H761 H 0.23446 0.60064 0.87079 0.0
H762 H 0.32516 0.62476 0.77919 0.0
H763 H 0.29198 0.62135 0.79462 0.0
C764 C 0.6298 0.8336 0.91733 0.0
C765 C 0.62956 0.84297 0.99481 0.0
C766 C 0.63031 0.81441 0.91602 0.0
C767 C 0.61988 0.77374 0.04637 0.0
H768 H 0.6583 0.74948 0.921 0.0
C769 C 0.6397 0.69979 0.12378 0.0
C770 C 0.64472 0.68799 0.05781 0.0
C771 C 0.63726 0.71844 0.10872 0.0
C772 C 0.64729 0.75596 0.95536 0.0
H773 H 0.62899 0.83957 0.13127 0.0
H774 H 0.62944 0.80639 0.12883 0.0
H775 H 0.65397 0.78244 0.90481 0.0
H776 H 0.65134 0.68669 0.92409 0.0
H777 H 0.64676 0.71928 0.89732 0.0
H778 H 0.61307 0.74749 0.097 0.0
C779 C 0.62939 0.81375 0.06915 0.0
C780 C 0.64483 0.77486 0.94598 0.0
C781 C 0.62922 0.83279 0.07049 0.0
C782 C 0.64754 0.69541 0.97644 0.0
C783 C 0.64495 0.71412 0.96117 0.0
C784 C 0.62221 0.75489 0.05514 0.0
C785 C 0.63016 0.8043 0.99211 0.0
C786 C 0.63135 0.78401 0.99292 0.0
C787 C 0.63956 0.72587 0.02701 0.0
C788 C 0.63624 0.74576 0.01146 0.0
H789 H 0.63017 0.84109 0.85805 0.0
H790 H 0.63084 0.80748 0.85568 0.0
H791 H 0.6092 0.78036 0.08244 0.0
H792 H 0.63757 0.69461 0.18743 0.0
H793 H 0.6336 0.72705 0.16162 0.0
C794 C 0.69182 0.41223 0.69471 0.0
C795 C 0.68367 0.39533 0.67743 0.0
C796 C 0.71039 0.41319 0.71457 0.0
C797 C 0.74496 0.3833 0.81033 0.0
H798 H 0.77933 0.42162 0.75235 0.0
C799 C 0.82181 0.37588 0.858 0.0
C800 C 0.83226 0.3911 0.88094 0.0
C801 C 0.80319 0.37757 0.84339 0.0
C802 C 0.76977 0.411 0.77031 0.0
H803 H 0.68848 0.36643 0.66215 0.0
H804 H 0.72097 0.36813 0.6925 0.0
H805 H 0.74849 0.42249 0.69406 0.0
H806 H 0.83139 0.41996 0.90939 0.0
H807 H 0.7985 0.42299 0.88395 0.0
H808 H 0.76614 0.37169 0.88575 0.0
C809 C 0.71309 0.38062 0.69271 0.0
C810 C 0.75215 0.41144 0.73645 0.0
C811 C 0.69457 0.37966 0.67364 0.0
C812 C 0.82355 0.40795 0.89326 0.0
C813 C 0.80482 0.40972 0.87743 0.0
C814 C 0.76249 0.38287 0.84403 0.0
C815 C 0.72102 0.39722 0.71772 0.0
C816 C 0.73966 0.39736 0.75471 0.0
C817 C 0.79454 0.3946 0.85032 0.0
C818 C 0.77523 0.39651 0.82327 0.0
H819 H 0.68353 0.4244 0.70054 0.0
H820 H 0.71604 0.42618 0.7337 0.0
H821 H 0.73553 0.37254 0.82805 0.0
H822 H 0.82826 0.36279 0.84715 0.0
H823 H 0.79579 0.36568 0.82182 0.0
C824 C 0.88621 0.69609 0.72502 0.0
C825 C 0.88859 0.68664 0.64832 0.0
C826 C 0.8885 0.71503 0.72888 0.0
C827 C 0.88698 0.75661 0.5977 0.0
H828 H 0.91279 0.77895 0.78409 0.0
C829 C 0.89999 0.83399 0.60012 0.0
C830 C 0.89881 0.84346 0.67715 0.0
C831 C 0.90012 0.81494 0.5983 0.0
C832 C 0.90533 0.773 0.73214 0.0
H833 H 0.89535 0.68989 0.51542 0.0
H834 H 0.89911 0.72312 0.52188 0.0
H835 H 0.91037 0.74572 0.77646 0.0
H836 H 0.89733 0.84022 0.81323 0.0
H837 H 0.89704 0.80673 0.81041 0.0
H838 H 0.88142 0.78368 0.5543 0.0
C839 C 0.89547 0.71575 0.57914 0.0
C840 C 0.90401 0.75391 0.72759 0.0
C841 C 0.89338 0.6967 0.57545 0.0
C842 C 0.89834 0.83333 0.75291 0.0
C843 C 0.8982 0.81411 0.75108 0.0
C844 C 0.88812 0.77566 0.60265 0.0
C845 C 0.89306 0.72515 0.65599 0.0
C846 C 0.89485 0.74546 0.66014 0.0
C847 C 0.89875 0.80463 0.67345 0.0
C848 C 0.89741 0.78419 0.66966 0.0
H849 H 0.88258 0.68883 0.7826 0.0
H850 H 0.88635 0.72182 0.78885 0.0
H851 H 0.87954 0.7506 0.54576 0.0
H852 H 0.90066 0.84136 0.54051 0.0
H853 H 0.90116 0.8083 0.53741 0.0
C854 C 0.83831 0.10723 0.24816 0.0
C855 C 0.84567 0.12436 0.22698 0.0
C856 C 0.81954 0.10534 0.26221 0.0
C857 C 0.78336 0.13419 0.34364 0.0
H858 H 0.74966 0.09598 0.27975 0.0
C859 C 0.70657 0.14293 0.36328 0.0
C860 C 0.69543 0.12814 0.38623 0.0
C861 C 0.72531 0.14071 0.3553 0.0
C862 C 0.75904 0.10653 0.29946 0.0
H863 H 0.83944 0.15249 0.19709 0.0
H864 H 0.80669 0.14911 0.21828 0.0
H865 H 0.78131 0.09493 0.22913 0.0
H866 H 0.69505 0.09956 0.42178 0.0
H867 H 0.7282 0.09557 0.40737 0.0
H868 H 0.7613 0.14593 0.41313 0.0
C869 C 0.8153 0.13721 0.22555 0.0
C870 C 0.77707 0.10599 0.26994 0.0
C871 C 0.83397 0.1391 0.21206 0.0
C872 C 0.70344 0.11121 0.40506 0.0
C873 C 0.72231 0.10889 0.39582 0.0
C874 C 0.76548 0.13468 0.37329 0.0
C875 C 0.80805 0.12062 0.25554 0.0
C876 C 0.78922 0.12014 0.28979 0.0
C877 C 0.73336 0.12358 0.36919 0.0
C878 C 0.75298 0.12115 0.34966 0.0
H879 H 0.84721 0.09582 0.26213 0.0
H880 H 0.8143 0.0924 0.28525 0.0
H881 H 0.79259 0.14498 0.36225 0.0
H882 H 0.70068 0.1561 0.34802 0.0
H883 H 0.73337 0.15225 0.33378 0.0
C884 C 0.15304 0.33067 0.65183 0.0
C885 C 0.14898 0.34037 0.57736 0.0
C886 C 0.15452 0.31161 0.6506 0.0
C887 C 0.16265 0.27248 0.50947 0.0
H888 H 0.13648 0.24498 0.68145 0.0
C889 C 0.15359 0.19352 0.49686 0.0
C890 C 0.15374 0.18416 0.57467 0.0
C891 C 0.1539 0.21268 0.4948 0.0
C892 C 0.14412 0.25241 0.6336 0.0
H893 H 0.14374 0.33771 0.44281 0.0
H894 H 0.14644 0.3046 0.44088 0.0
H895 H 0.13599 0.27817 0.68468 0.0
H896 H 0.15538 0.18746 0.71088 0.0
H897 H 0.15649 0.22047 0.70718 0.0
H898 H 0.17095 0.24669 0.45884 0.0
C899 C 0.14848 0.31168 0.50009 0.0
C900 C 0.1438 0.27145 0.63553 0.0
C901 C 0.1468 0.33066 0.50147 0.0
C902 C 0.1549 0.19425 0.64984 0.0
C903 C 0.15543 0.21325 0.64778 0.0
C904 C 0.16312 0.25338 0.50796 0.0
C905 C 0.1522 0.30194 0.5747 0.0
C906 C 0.15305 0.2817 0.57356 0.0
C907 C 0.15454 0.22277 0.57052 0.0
C908 C 0.15389 0.2431 0.57022 0.0
H909 H 0.15482 0.33775 0.71123 0.0
H910 H 0.15754 0.30444 0.70898 0.0
H911 H 0.17 0.28006 0.46111 0.0
H912 H 0.1527 0.18608 0.43796 0.0
H913 H 0.15311 0.21957 0.43413 0.0
C914 C 0.20129 0.90012 0.30445 0.0
C915 C 0.1898 0.89274 0.36746 0.0
C916 C 0.22009 0.90208 0.31898 0.0
C917 C 0.25418 0.90445 0.49314 0.0
H918 H 0.2887 0.89041 0.31933 0.0
C919 C 0.33205 0.89482 0.5572 0.0
C920 C 0.34408 0.89866 0.49008 0.0
C921 C 0.31308 0.8959 0.54487 0.0
C922 C 0.27931 0.89471 0.36839 0.0
H923 H 0.18931 0.88167 0.49541 0.0
H924 H 0.22167 0.88502 0.51995 0.0
H925 H 0.25623 0.88915 0.29006 0.0
H926 H 0.34584 0.90784 0.35974 0.0
H927 H 0.31321 0.91048 0.33943 0.0
H928 H 0.27727 0.90998 0.57159 0.0
C929 C 0.21625 0.88949 0.45967 0.0
C930 C 0.26062 0.89395 0.35139 0.0
C931 C 0.19762 0.88742 0.44506 0.0
C932 C 0.33687 0.90463 0.4125 0.0
C933 C 0.3181 0.90594 0.40054 0.0
C934 C 0.2729 0.9053 0.51005 0.0
C935 C 0.22779 0.89686 0.39712 0.0
C936 C 0.24777 0.89869 0.41364 0.0
C937 C 0.30585 0.901 0.4654 0.0
C938 C 0.28578 0.90039 0.44799 0.0
H939 H 0.19577 0.90441 0.24412 0.0
H940 H 0.22856 0.90791 0.26943 0.0
H941 H 0.24469 0.90842 0.54239 0.0
H942 H 0.33722 0.88999 0.61734 0.0
H943 H 0.30412 0.89194 0.5964 0.0
C944 C 0.19306 0.13237 0.88443 0.0
C945 C 0.19101 0.13163 0.79615 0.0
C946 C 0.21047 0.13251 0.9202 0.0
C947 C 0.25818 0.12047 0.87128 0.0
H948 H 0.27012 0.15456 0.04946 0.0
C949 C 0.33221 0.13397 0.97247 0.0
C950 C 0.33542 0.13484 0.05989 0.0
C951 C 0.31439 0.13372 0.94175 0.0
C952 C 0.26694 0.14485 0.00025 0.0
H953 H 0.20565 0.13057 0.67628 0.0
H954 H 0.23568 0.13098 0.7383 0.0
H955 H 0.23901 0.15319 0.996 0.0
H956 H 0.32244 0.1364 0.18356 0.0
H957 H 0.29152 0.13583 0.13002 0.0
H958 H 0.28607 0.11217 0.87508 0.0
C959 C 0.22394 0.13118 0.78012 0.0
C960 C 0.24912 0.14403 0.9699 0.0
C961 C 0.20666 0.13107 0.74457 0.0
C962 C 0.32047 0.13573 0.1158 0.0
C963 C 0.30272 0.13551 0.08513 0.0
C964 C 0.27596 0.12129 0.90154 0.0
C965 C 0.22607 0.13183 0.8682 0.0
C966 C 0.24461 0.13195 0.90457 0.0
C967 C 0.29947 0.13439 0.9979 0.0
C968 C 0.28056 0.13357 0.96592 0.0
H969 H 0.18125 0.13281 0.9258 0.0
H970 H 0.21173 0.13293 0.98842 0.0
H971 H 0.25504 0.1108 0.8218 0.0
H972 H 0.34343 0.13332 0.92777 0.0
H973 H 0.31229 0.13308 0.87404 0.0
C974 C 0.13609 0.82787 0.24455 0.0
C975 C 0.13388 0.82968 0.33267 0.0
C976 C 0.13539 0.81078 0.20636 0.0
C977 C 0.11812 0.76402 0.23874 0.0
H978 H 0.15054 0.7528 0.05135 0.0
C979 C 0.12382 0.69193 0.09981 0.0
C980 C 0.12479 0.69004 0.01128 0.0
C981 C 0.12486 0.70906 0.13731 0.0
C982 C 0.14125 0.75582 0.10285 0.0
H983 H 0.12941 0.81479 0.44986 0.0
H984 H 0.12837 0.78471 0.38291 0.0
H985 H 0.15327 0.78203 0.12359 0.0
H986 H 0.12768 0.70482 0.89274 0.0
H987 H 0.12954 0.73501 0.95883 0.0
H988 H 0.10619 0.73776 0.21829 0.0
C989 C 0.13044 0.79667 0.34342 0.0
C990 C 0.14282 0.77255 0.14447 0.0
C991 C 0.13114 0.81387 0.38189 0.0
C992 C 0.12688 0.70581 0.96104 0.0
C993 C 0.12803 0.72306 0.99889 0.0
C994 C 0.11658 0.74728 0.1973 0.0
C995 C 0.1325 0.79495 0.25506 0.0
C996 C 0.13126 0.77687 0.21289 0.0
C997 C 0.12695 0.72484 0.08753 0.0
C998 C 0.12815 0.74297 0.12898 0.0
H999 H 0.13818 0.83971 0.20434 0.0
H1000 H 0.13672 0.81004 0.13816 0.0
H1001 H 0.10877 0.76702 0.29005 0.0
H1002 H 0.12224 0.68012 0.14078 0.0
H1003 H 0.12428 0.70991 0.20571 0.0
C1004 C 0.69431 0.89535 0.90546 0.0
C1005 C 0.69259 0.89514 0.99433 0.0
C1006 C 0.71142 0.89506 0.86625 0.0
C1007 C 0.76033 0.90447 0.90426 0.0
H1008 H 0.76725 0.87659 0.69845 0.0
C1009 C 0.83161 0.89344 0.75957 0.0
C1010 C 0.83383 0.89432 0.671 0.0
C1011 C 0.81432 0.89341 0.79675 0.0
C1012 C 0.76552 0.88464 0.75522 0.0
H1013 H 0.70778 0.89443 0.11144 0.0
H1014 H 0.73779 0.89376 0.04288 0.0
H1015 H 0.73768 0.87637 0.76963 0.0
H1016 H 0.8193 0.8956 0.55217 0.0
H1017 H 0.78886 0.89561 0.61746 0.0
H1018 H 0.78816 0.91272 0.89001 0.0
C1019 C 0.72577 0.89435 0.00352 0.0
C1020 C 0.74853 0.8845 0.7963 0.0
C1021 C 0.70856 0.89463 0.04297 0.0
C1022 C 0.81812 0.8949 0.62047 0.0
C1023 C 0.80068 0.89484 0.65799 0.0
C1024 C 0.7773 0.9046 0.86326 0.0
C1025 C 0.72743 0.89454 0.91447 0.0
C1026 C 0.74568 0.8944 0.87153 0.0
C1027 C 0.79857 0.89428 0.74683 0.0
C1028 C 0.78018 0.89462 0.78833 0.0
H1029 H 0.68237 0.89582 0.86554 0.0
H1030 H 0.71206 0.89555 0.79778 0.0
H1031 H 0.75863 0.91254 0.96096 0.0
H1032 H 0.8433 0.89283 0.80098 0.0
H1033 H 0.81332 0.89256 0.86507 0.0
C1034 C 0.89187 0.19364 0.16248 0.0
C1035 C 0.88974 0.19327 0.25115 0.0
C1036 C 0.89142 0.21013 0.11734 0.0
C1037 C 0.89755 0.26001 0.14115 0.0
H1038 H 0.87222 0.2626 0.92663 0.0
C1039 C 0.88608 0.3288 0.96951 0.0
C1040 C 0.88684 0.32955 0.88046 0.0
C1041 C 0.88654 0.31211 0.01285 0.0
C1042 C 0.87959 0.2621 0.98575 0.0
H1043 H 0.88546 0.21019 0.36156 0.0
H1044 H 0.88473 0.23907 0.28265 0.0
H1045 H 0.87252 0.23402 0.00665 0.0
H1046 H 0.88867 0.31304 0.76739 0.0
H1047 H 0.8898 0.28377 0.84323 0.0
H1048 H 0.90481 0.28797 0.12016 0.0
C1049 C 0.88685 0.2265 0.24815 0.0
C1050 C 0.87971 0.24568 0.03194 0.0
C1051 C 0.88718 0.20993 0.29345 0.0
C1052 C 0.88804 0.31301 0.83589 0.0
C1053 C 0.88858 0.29621 0.87954 0.0
C1054 C 0.89751 0.27639 0.09481 0.0
C1055 C 0.88892 0.22682 0.15935 0.0
C1056 C 0.88864 0.24441 0.11047 0.0
C1057 C 0.88789 0.29553 0.96884 0.0
C1058 C 0.88845 0.27775 0.01657 0.0
H1059 H 0.89387 0.18113 0.12742 0.0
H1060 H 0.89331 0.20981 0.04933 0.0
H1061 H 0.90484 0.2595 0.2005 0.0
H1062 H 0.88498 0.34117 0.00639 0.0
H1063 H 0.88555 0.31226 0.08125 0.0
C1064 C 0.1831 0.39785 0.27583 0.0
C1065 C 0.18165 0.39975 0.36417 0.0
C1066 C 0.20017 0.3991 0.23558 0.0
C1067 C 0.24679 0.41692 0.26915 0.0
H1068 H 0.26256 0.37909 0.11454 0.0
C1069 C 0.32213 0.40126 0.21526 0.0
C1070 C 0.32841 0.39805 0.13248 0.0
C1071 C 0.30354 0.40272 0.23241 0.0
C1072 C 0.25826 0.38991 0.15657 0.0
H1073 H 0.19696 0.40471 0.47907 0.0
H1074 H 0.22631 0.40686 0.40959 0.0
H1075 H 0.23081 0.37985 0.16304 0.0
H1076 H 0.31995 0.39361 0.00282 0.0
H1077 H 0.28728 0.39604 0.03328 0.0
H1078 H 0.27423 0.42668 0.26502 0.0
C1079 C 0.21439 0.40454 0.37098 0.0
C1080 C 0.24009 0.39037 0.18418 0.0
C1081 C 0.19751 0.40316 0.41095 0.0
C1082 C 0.31557 0.39612 0.06728 0.0
C1083 C 0.29687 0.39744 0.08468 0.0
C1084 C 0.26487 0.41644 0.24184 0.0
C1085 C 0.21598 0.40252 0.28295 0.0
C1086 C 0.23431 0.40357 0.24279 0.0
C1087 C 0.29069 0.40093 0.16739 0.0
C1088 C 0.27095 0.40263 0.18723 0.0
H1089 H 0.17114 0.39517 0.23809 0.0
H1090 H 0.20099 0.39751 0.16756 0.0
H1091 H 0.24267 0.4275 0.31288 0.0
H1092 H 0.3316 0.40278 0.26711 0.0
H1093 H 0.29921 0.40509 0.29707 0.0
C1094 C 0.39087 0.81341 0.45742 0.0
C1095 C 0.39166 0.82974 0.50372 0.0
C1096 C 0.38961 0.79647 0.49957 0.0
C1097 C 0.37691 0.77605 0.70861 0.0
H1098 H 0.40607 0.73498 0.63517 0.0
C1099 C 0.38543 0.71074 0.91516 0.0
C1100 C 0.38528 0.6939 0.87288 0.0
C1101 C 0.386 0.72722 0.86918 0.0
C1102 C 0.39767 0.74625 0.65614 0.0
H1103 H 0.39174 0.84088 0.63103 0.0
H1104 H 0.38973 0.81176 0.70302 0.0
H1105 H 0.40677 0.76341 0.55386 0.0
H1106 H 0.38558 0.68132 0.74863 0.0
H1107 H 0.38638 0.70977 0.66955 0.0
H1108 H 0.36786 0.75897 0.81098 0.0
C1109 C 0.38981 0.81189 0.63446 0.0
C1110 C 0.39805 0.76255 0.60924 0.0
C1111 C 0.39111 0.82867 0.59275 0.0
C1112 C 0.38574 0.69398 0.78372 0.0
C1113 C 0.38633 0.71036 0.73803 0.0
C1114 C 0.37654 0.75977 0.75545 0.0
C1115 C 0.389 0.79553 0.58878 0.0
C1116 C 0.38778 0.77773 0.63522 0.0
C1117 C 0.38648 0.72722 0.77989 0.0
C1118 C 0.38698 0.74466 0.73018 0.0
H1119 H 0.39127 0.81371 0.38889 0.0
H1120 H 0.38892 0.78412 0.46232 0.0
H1121 H 0.36857 0.78734 0.72984 0.0
H1122 H 0.38513 0.71121 0.98365 0.0
H1123 H 0.38629 0.73995 0.90366 0.0
C1124 C 0.68409 0.636 0.40296 0.0
C1125 C 0.6842 0.63639 0.31386 0.0
C1126 C 0.70048 0.63551 0.44829 0.0
C1127 C 0.7492 0.62329 0.4216 0.0
H1128 H 0.75669 0.65211 0.62367 0.0
C1129 C 0.82066 0.63485 0.5553 0.0
C1130 C 0.82326 0.63397 0.6434 0.0
C1131 C 0.80319 0.63482 0.52094 0.0
C1132 C 0.75473 0.6438 0.56796 0.0
H1133 H 0.70174 0.63697 0.20292 0.0
H1134 H 0.73009 0.6363 0.28139 0.0
H1135 H 0.72713 0.65281 0.5527 0.0
H1136 H 0.80929 0.63265 0.76452 0.0
H1137 H 0.77857 0.63259 0.70407 0.0
H1138 H 0.77674 0.61439 0.43599 0.0
C1139 C 0.71739 0.63605 0.31653 0.0
C1140 C 0.73779 0.6442 0.52723 0.0
C1141 C 0.70108 0.63656 0.2714 0.0
C1142 C 0.8078 0.63333 0.69643 0.0
C1143 C 0.7902 0.63337 0.6618 0.0
C1144 C 0.76607 0.62291 0.4621 0.0
C1145 C 0.71735 0.63533 0.40554 0.0
C1146 C 0.73491 0.63418 0.45263 0.0
C1147 C 0.78771 0.63391 0.57346 0.0
C1148 C 0.76919 0.63339 0.53495 0.0
H1149 H 0.67135 0.63586 0.43779 0.0
H1150 H 0.69992 0.63487 0.51674 0.0
H1151 H 0.74738 0.61503 0.36564 0.0
H1152 H 0.83217 0.63547 0.51223 0.0
H1153 H 0.80183 0.63563 0.45279 0.0
C1154 C 0.64216 0.20853 0.3375 0.0
C1155 C 0.64341 0.19209 0.38338 0.0
C1156 C 0.64115 0.22531 0.37978 0.0
C1157 C 0.65083 0.24743 0.5859 0.0
H1158 H 0.61646 0.28379 0.50753 0.0
C1159 C 0.63715 0.31509 0.76908 0.0
C1160 C 0.63496 0.3309 0.71928 0.0
C1161 C 0.63787 0.29777 0.73111 0.0
C1162 C 0.62629 0.27389 0.52989 0.0
H1163 H 0.64482 0.18051 0.51003 0.0
H1164 H 0.64307 0.2096 0.58304 0.0
H1165 H 0.61896 0.25482 0.43355 0.0
H1166 H 0.63198 0.34076 0.5901 0.0
H1167 H 0.63351 0.31102 0.52497 0.0
H1168 H 0.6583 0.2666 0.68178 0.0
C1169 C 0.64297 0.2096 0.51449 0.0
C1170 C 0.62773 0.25725 0.48725 0.0
C1171 C 0.64386 0.19287 0.4724 0.0
C1172 C 0.63354 0.32895 0.63095 0.0
C1173 C 0.63429 0.31178 0.59329 0.0
C1174 C 0.64946 0.26413 0.6284 0.0
C1175 C 0.6415 0.22605 0.46889 0.0
C1176 C 0.64007 0.24382 0.51436 0.0
C1177 C 0.63641 0.29591 0.64256 0.0
C1178 C 0.63726 0.27766 0.60059 0.0
H1179 H 0.6418 0.20845 0.26898 0.0
H1180 H 0.64022 0.23774 0.34261 0.0
H1181 H 0.66061 0.23746 0.60813 0.0
H1182 H 0.6383 0.31608 0.83721 0.0
H1183 H 0.63938 0.28584 0.7712 0.0
loop_
_geom_bond_atom_site_label_1
_geom_bond_atom_site_label_2
_geom_bond_distance
_geom_bond_site_symmetry_2
_ccdc_geom_bond_type
C0 O2 1.247 . S
C0 O4 1.258 . S
C1 O8 1.247 . S
C1 O9 1.258 . S
O2 C0 1.247 . S
O2 Zn3 2.028 . S
Zn3 O2 2.028 . S
Zn3 O7 2.035 . S
Zn3 O9 2.035 . S
Zn3 O10 2.028 . S
O4 C0 1.258 . S
O4 Zn5 2.035 . S
Zn5 O4 2.035 . S
Zn5 O6 2.028 . S
Zn5 O8 2.028 . S
Zn5 O11 2.035 . S
O6 Zn5 2.028 . S
O6 C12 1.247 . S
O7 Zn3 2.035 . S
O7 C12 1.258 . S
O8 C1 1.247 . S
O8 Zn5 2.028 . S
O9 C1 1.258 . S
O9 Zn3 2.035 . S
O10 Zn3 2.028 . S
O10 C13 1.247 . S
O11 Zn5 2.035 . S
O11 C13 1.258 . S
C12 O6 1.247 . S
C12 O7 1.258 . S
C13 O10 1.247 . S
C13 O11 1.258 . S
C14 O16 1.247 . S
C14 O18 1.258 . S
C15 O22 1.247 . S
C15 O23 1.258 . S
O16 C14 1.247 . S
O16 Zn17 2.028 . S
Zn17 O16 2.028 . S
Zn17 O21 2.035 . S
Zn17 O23 2.035 . S
Zn17 O24 2.028 . S
O18 C14 1.258 . S
O18 Zn19 2.035 . S
Zn19 O18 2.035 . S
Zn19 O20 2.028 . S
Zn19 O22 2.028 . S
Zn19 O25 2.035 . S
O20 Zn19 2.028 . S
O20 C26 1.247 . S
O21 Zn17 2.035 . S
O21 C26 1.258 . S
O22 C15 1.247 . S
O22 Zn19 2.028 . S
O23 C15 1.258 . S
O23 Zn17 2.035 . S
O24 Zn17 2.028 . S
O24 C27 1.247 . S
O25 Zn19 2.035 . S
O25 C27 1.258 . S
C26 O20 1.247 . S
C26 O21 1.258 . S
C27 O24 1.247 . S
C27 O25 1.258 . S
C28 O30 1.247 . S
C28 O32 1.258 . S
C29 O36 1.247 . S
C29 O37 1.258 . S
O30 C28 1.247 . S
O30 Zn31 2.028 . S
Zn31 O30 2.028 . S
Zn31 O35 2.035 . S
Zn31 O37 2.035 . S
Zn31 O38 2.028 . S
O32 C28 1.258 . S
O32 Zn33 2.035 . S
Zn33 O32 2.035 . S
Zn33 O34 2.028 . S
Zn33 O36 2.028 . S
Zn33 O39 2.035 . S
O34 Zn33 2.028 . S
O34 C40 1.247 . S
O35 Zn31 2.035 . S
O35 C40 1.258 . S
O36 C29 1.247 . S
O36 Zn33 2.028 . S
O37 C29 1.258 . S
O37 Zn31 2.035 . S
O38 Zn31 2.028 . S
O38 C41 1.247 . S
O39 Zn33 2.035 . S
O39 C41 1.258 . S
C40 O34 1.247 . S
C40 O35 1.258 . S
C41 O38 1.247 . S
C41 O39 1.258 . S
C42 O44 1.247 . S
C42 O46 1.258 . S
C43 O50 1.247 . S
C43 O51 1.258 . S
O44 C42 1.247 . S
O44 Zn45 2.028 . S
Zn45 O44 2.028 . S
Zn45 O49 2.035 . S
Zn45 O51 2.035 . S
Zn45 O52 2.028 . S
O46 C42 1.258 . S
O46 Zn47 2.035 . S
Zn47 O46 2.035 . S
Zn47 O48 2.028 . S
Zn47 O50 2.028 . S
Zn47 O53 2.035 . S
O48 Zn47 2.028 . S
O48 C54 1.247 . S
O49 Zn45 2.035 . S
O49 C54 1.258 . S
O50 C43 1.247 . S
O50 Zn47 2.028 . S
O51 C43 1.258 . S
O51 Zn45 2.035 . S
O52 Zn45 2.028 . S
O52 C55 1.247 . S
O53 Zn47 2.035 . S
O53 C55 1.258 . S
C54 O48 1.247 . S
C54 O49 1.258 . S
C55 O52 1.247 . S
C55 O53 1.258 . S
C56 O58 1.247 1_554 S
C56 O60 1.258 . S
C57 O64 1.247 . S
C57 O65 1.258 . S
O58 C56 1.247 1_556 S
O58 Zn59 2.028 1_556 S
Zn59 O58 2.028 1_554 S
Zn59 O63 2.035 . S
Zn59 O65 2.035 . S
Zn59 O66 2.028 . S
O60 C56 1.258 . S
O60 Zn61 2.035 . S
Zn61 O60 2.035 . S
Zn61 O62 2.028 . S
Zn61 O64 2.028 . S
Zn61 O67 2.035 . S
O62 Zn61 2.028 . S
O62 C68 1.247 . S
O63 Zn59 2.035 . S
O63 C68 1.258 . S
O64 C57 1.247 . S
O64 Zn61 2.028 . S
O65 C57 1.258 . S
O65 Zn59 2.035 . S
O66 Zn59 2.028 . S
O66 C69 1.247 . S
O67 Zn61 2.035 . S
O67 C69 1.258 . S
C68 O62 1.247 . S
C68 O63 1.258 . S
C69 O66 1.247 . S
C69 O67 1.258 . S
C70 O72 1.247 . S
C70 O74 1.258 1_556 S
C71 O78 1.247 . S
C71 O79 1.258 . S
O72 C70 1.247 . S
O72 Zn73 2.028 . S
Zn73 O72 2.028 . S
Zn73 O77 2.035 . S
Zn73 O79 2.035 . S
Zn73 O80 2.028 . S
O74 C70 1.258 1_554 S
O74 Zn75 2.035 1_554 S
Zn75 O74 2.035 1_556 S
Zn75 O76 2.028 . S
Zn75 O78 2.028 . S
Zn75 O81 2.035 . S
O76 Zn75 2.028 . S
O76 C82 1.247 . S
O77 Zn73 2.035 . S
O77 C82 1.258 . S
O78 C71 1.247 . S
O78 Zn75 2.028 . S
O79 C71 1.258 . S
O79 Zn73 2.035 . S
O80 Zn73 2.028 . S
O80 C83 1.247 . S
O81 Zn75 2.035 . S
O81 C83 1.258 . S
C82 O76 1.247 . S
C82 O77 1.258 . S
C83 O80 1.247 . S
C83 O81 1.258 . S
C84 O86 1.247 . S
C84 O88 1.258 . S
C85 O92 1.247 . S
C85 O93 1.258 1_554 S
O86 C84 1.247 . S
O86 Zn87 2.028 . S
Zn87 O86 2.028 . S
Zn87 O91 2.035 . S
Zn87 O93 2.035 1_554 S
Zn87 O94 2.028 . S
O88 C84 1.258 . S
O88 Zn89 2.035 . S
Zn89 O88 2.035 . S
Zn89 O90 2.028 . S
Zn89 O92 2.028 . S
Zn89 O95 2.035 . S
O90 Zn89 2.028 . S
O90 C96 1.247 . S
O91 Zn87 2.035 . S
O91 C96 1.258 . S
O92 C85 1.247 . S
O92 Zn89 2.028 . S
O93 C85 1.258 1_556 S
O93 Zn87 2.035 1_556 S
O94 Zn87 2.028 . S
O94 C97 1.247 . S
O95 Zn89 2.035 . S
O95 C97 1.258 . S
C96 O90 1.247 . S
C96 O91 1.258 . S
C97 O94 1.247 . S
C97 O95 1.258 . S
C98 O100 1.247 . S
C98 O102 1.258 1_556 S
C99 O106 1.247 . S
C99 O107 1.258 . S
O100 C98 1.247 . S
O100 Zn101 2.028 . S
Zn101 O100 2.028 . S
Zn101 O105 2.035 . S
Zn101 O107 2.035 . S
Zn101 O108 2.028 . S
O102 C98 1.258 1_554 S
O102 Zn103 2.035 1_554 S
Zn103 O102 2.035 1_556 S
Zn103 O104 2.028 . S
Zn103 O106 2.028 . S
Zn103 O109 2.035 . S
O104 Zn103 2.028 . S
O104 C110 1.247 . S
O105 Zn101 2.035 . S
O105 C110 1.258 . S
O106 C99 1.247 . S
O106 Zn103 2.028 . S
O107 C99 1.258 . S
O107 Zn101 2.035 . S
O108 Zn101 2.028 . S
O108 C111 1.247 . S
O109 Zn103 2.035 . S
O109 C111 1.258 . S
C110 O104 1.247 . S
C110 O105 1.258 . S
C111 O108 1.247 . S
C111 O109 1.258 . S
C112 O114 1.247 . S
C112 O116 1.258 . S
C113 O120 1.247 . S
C113 O121 1.258 . S
O114 C112 1.247 . S
O114 Zn115 2.028 . S
Zn115 O114 2.028 . S
Zn115 O119 2.035 . S
Zn115 O121 2.035 . S
Zn115 O122 2.028 . S
O116 C112 1.258 . S
O116 Zn117 2.035 . S
Zn117 O116 2.035 . S
Zn117 O118 2.028 . S
Zn117 O120 2.028 . S
Zn117 O123 2.035 . S
O118 Zn117 2.028 . S
O118 C124 1.247 . S
O119 Zn115 2.035 . S
O119 C124 1.258 . S
O120 C113 1.247 . S
O120 Zn117 2.028 . S
O121 C113 1.258 . S
O121 Zn115 2.035 . S
O122 Zn115 2.028 . S
O122 C125 1.247 . S
O123 Zn117 2.035 . S
O123 C125 1.258 . S
C124 O118 1.247 . S
C124 O119 1.258 . S
C125 O122 1.247 . S
C125 O123 1.258 . S
C126 O128 1.247 . S
C126 O130 1.258 . S
C127 O134 1.247 . S
C127 O135 1.258 . S
O128 C126 1.247 . S
O128 Zn129 2.028 . S
Zn129 O128 2.028 . S
Zn129 O133 2.035 . S
Zn129 O135 2.035 . S
Zn129 O136 2.028 . S
O130 C126 1.258 . S
O130 Zn131 2.035 . S
Zn131 O130 2.035 . S
Zn131 O132 2.028 . S
Zn131 O134 2.028 . S
Zn131 O137 2.035 . S
O132 Zn131 2.028 . S
O132 C138 1.247 . S
O133 Zn129 2.035 . S
O133 C138 1.258 . S
O134 C127 1.247 . S
O134 Zn131 2.028 . S
O135 C127 1.258 . S
O135 Zn129 2.035 . S
O136 Zn129 2.028 . S
O136 C139 1.247 . S
O137 Zn131 2.035 . S
O137 C139 1.258 . S
C138 O132 1.247 . S
C138 O133 1.258 . S
C139 O136 1.247 . S
C139 O137 1.258 . S
C140 O142 1.247 . S
C140 O144 1.258 . S
C141 O148 1.247 . S
C141 O149 1.258 . S
O142 C140 1.247 . S
O142 Zn143 2.028 . S
Zn143 O142 2.028 . S
Zn143 O147 2.035 . S
Zn143 O149 2.035 . S
Zn143 O150 2.028 . S
O144 C140 1.258 . S
O144 Zn145 2.035 . S
Zn145 O144 2.035 . S
Zn145 O146 2.028 . S
Zn145 O148 2.028 . S
Zn145 O151 2.035 . S
O146 Zn145 2.028 . S
O146 C152 1.247 . S
O147 Zn143 2.035 . S
O147 C152 1.258 . S
O148 C141 1.247 . S
O148 Zn145 2.028 . S
O149 C141 1.258 . S
O149 Zn143 2.035 . S
O150 Zn143 2.028 . S
O150 C153 1.247 . S
O151 Zn145 2.035 . S
O151 C153 1.258 . S
C152 O146 1.247 . S
C152 O147 1.258 . S
C153 O150 1.247 . S
C153 O151 1.258 . S
C154 O156 1.247 . S
C154 O158 1.258 . S
C155 O162 1.247 . S
C155 O163 1.258 . S
O156 C154 1.247 . S
O156 Zn157 2.028 . S
Zn157 O156 2.028 . S
Zn157 O161 2.035 . S
Zn157 O163 2.035 . S
Zn157 O164 2.028 . S
O158 C154 1.258 . S
O158 Zn159 2.035 . S
Zn159 O158 2.035 . S
Zn159 O160 2.028 . S
Zn159 O162 2.028 . S
Zn159 O165 2.035 . S
O160 Zn159 2.028 . S
O160 C166 1.247 . S
O161 Zn157 2.035 . S
O161 C166 1.258 . S
O162 C155 1.247 . S
O162 Zn159 2.028 . S
O163 C155 1.258 . S
O163 Zn157 2.035 . S
O164 Zn157 2.028 . S
O164 C167 1.247 . S
O165 Zn159 2.035 . S
O165 C167 1.258 . S
C166 O160 1.247 . S
C166 O161 1.258 . S
C167 O164 1.247 . S
C167 O165 1.258 . S
C168 O170 1.247 . S
C168 O172 1.258 . S
C169 O176 1.247 . S
C169 O177 1.258 . S
O170 C168 1.247 . S
O170 Zn171 2.028 . S
Zn171 O170 2.028 . S
Zn171 O175 2.035 . S
Zn171 O177 2.035 . S
Zn171 O178 2.028 . S
O172 C168 1.258 . S
O172 Zn173 2.035 . S
Zn173 O172 2.035 . S
Zn173 O174 2.028 . S
Zn173 O176 2.028 . S
Zn173 O179 2.035 . S
O174 Zn173 2.028 . S
O174 C180 1.247 . S
O175 Zn171 2.035 . S
O175 C180 1.258 . S
O176 C169 1.247 . S
O176 Zn173 2.028 . S
O177 C169 1.258 . S
O177 Zn171 2.035 . S
O178 Zn171 2.028 . S
O178 C181 1.247 . S
O179 Zn173 2.035 . S
O179 C181 1.258 . S
C180 O174 1.247 . S
C180 O175 1.258 . S
C181 O178 1.247 . S
C181 O179 1.258 . S
C182 O184 1.247 . S
C182 O186 1.258 . S
C183 O190 1.247 . S
C183 O191 1.258 . S
O184 C182 1.247 . S
O184 Zn185 2.028 . S
Zn185 O184 2.028 . S
Zn185 O189 2.035 . S
Zn185 O191 2.035 . S
Zn185 O192 2.028 . S
O186 C182 1.258 . S
O186 Zn187 2.035 . S
Zn187 O186 2.035 . S
Zn187 O188 2.028 . S
Zn187 O190 2.028 . S
Zn187 O193 2.035 . S
O188 Zn187 2.028 . S
O188 C194 1.247 . S
O189 Zn185 2.035 . S
O189 C194 1.258 . S
O190 C183 1.247 . S
O190 Zn187 2.028 . S
O191 C183 1.258 . S
O191 Zn185 2.035 . S
O192 Zn185 2.028 . S
O192 C195 1.247 . S
O193 Zn187 2.035 . S
O193 C195 1.258 . S
C194 O188 1.247 . S
C194 O189 1.258 . S
C195 O192 1.247 . S
C195 O193 1.258 . S
C196 O198 1.247 . S
C196 O200 1.258 . S
C197 O204 1.247 . S
C197 O205 1.258 . S
O198 C196 1.247 . S
O198 Zn199 2.028 . S
Zn199 O198 2.028 . S
Zn199 O203 2.035 . S
Zn199 O205 2.035 . S
Zn199 O206 2.028 . S
O200 C196 1.258 . S
O200 Zn201 2.035 . S
Zn201 O200 2.035 . S
Zn201 O202 2.028 . S
Zn201 O204 2.028 . S
Zn201 O207 2.035 . S
O202 Zn201 2.028 . S
O202 C208 1.247 . S
O203 Zn199 2.035 . S
O203 C208 1.258 . S
O204 C197 1.247 . S
O204 Zn201 2.028 . S
O205 C197 1.258 . S
O205 Zn199 2.035 . S
O206 Zn199 2.028 . S
O206 C209 1.247 . S
O207 Zn201 2.035 . S
O207 C209 1.258 . S
C208 O202 1.247 . S
C208 O203 1.258 . S
C209 O206 1.247 . S
C209 O207 1.258 . S
C210 O212 1.247 . S
C210 O214 1.258 . S
C211 O218 1.247 . S
C211 O219 1.258 . S
O212 C210 1.247 . S
O212 Zn213 2.028 . S
Zn213 O212 2.028 . S
Zn213 O217 2.035 . S
Zn213 O219 2.035 . S
Zn213 O220 2.028 . S
O214 C210 1.258 . S
O214 Zn215 2.035 . S
Zn215 O214 2.035 . S
Zn215 O216 2.028 . S
Zn215 O218 2.028 . S
Zn215 O221 2.035 . S
O216 Zn215 2.028 . S
O216 C222 1.247 . S
O217 Zn213 2.035 . S
O217 C222 1.258 . S
O218 C211 1.247 . S
O218 Zn215 2.028 . S
O219 C211 1.258 . S
O219 Zn213 2.035 . S
O220 Zn213 2.028 . S
O220 C223 1.247 . S
O221 Zn215 2.035 . S
O221 C223 1.258 . S
C222 O216 1.247 . S
C222 O217 1.258 . S
C223 O220 1.247 . S
C223 O221 1.258 . S
C224 C225 1.349 . S
C224 C226 1.327 . S
C224 H249 0.950 . S
C225 C224 1.349 . S
C225 C241 1.349 . S
C226 C224 1.327 . S
C226 C245 1.429 . S
C226 H250 0.950 . S
C227 C244 1.574 1_565 S
C227 C246 1.368 . S
C227 H251 0.949 . S
H228 C232 0.949 . S
C229 C230 1.349 . S
C229 C231 1.327 . S
C229 H252 0.950 . S
C230 C229 1.349 . S
C230 C242 1.349 . S
C231 C229 1.327 . S
C231 C247 1.429 . S
C231 H253 0.950 . S
C232 H228 0.949 . S
C232 C240 1.574 1_545 S
C232 C248 1.368 . S
H233 C241 0.950 . S
H234 C239 0.950 . S
H235 C240 0.949 . S
H236 C242 0.950 . S
H237 C243 0.950 . S
H238 C244 0.949 . S
C239 H234 0.950 . S
C239 C241 1.327 . S
C239 C245 1.429 . S
C240 C232 1.574 1_565 S
C240 H235 0.949 . S
C240 C246 1.368 . S
C241 C225 1.349 . S
C241 H233 0.950 . S
C241 C239 1.327 . S
C242 C230 1.349 . S
C242 H236 0.950 . S
C242 C243 1.327 . S
C243 H237 0.950 . S
C243 C242 1.327 . S
C243 C247 1.429 . S
C244 C227 1.574 1_545 S
C244 H238 0.949 . S
C244 C248 1.368 . S
C245 C226 1.429 . S
C245 C239 1.429 . S
C245 C246 1.523 . S
C246 C227 1.368 . S
C246 C240 1.368 . S
C246 C245 1.523 . S
C247 C231 1.429 . S
C247 C243 1.429 . S
C247 C248 1.523 . S
C248 C232 1.368 . S
C248 C244 1.368 . S
C248 C247 1.523 . S
H249 C224 0.950 . S
H250 C226 0.950 . S
H251 C227 0.949 . S
H252 C229 0.950 . S
H253 C231 0.950 . S
C254 C255 1.349 . S
C254 C256 1.327 . S
C254 H279 0.950 . S
C255 C254 1.349 . S
C255 C271 1.349 . S
C256 C254 1.327 . S
C256 C275 1.429 . S
C256 H280 0.950 . S
C257 C274 1.574 1_455 S
C257 C276 1.368 . S
C257 H281 0.949 . S
H258 C262 0.949 . S
C259 C260 1.349 . S
C259 C261 1.327 . S
C259 H282 0.950 . S
C260 C259 1.349 . S
C260 C272 1.349 . S
C261 C259 1.327 . S
C261 C277 1.429 . S
C261 H283 0.950 . S
C262 H258 0.949 . S
C262 C270 1.574 1_655 S
C262 C278 1.368 . S
H263 C271 0.950 . S
H264 C269 0.950 . S
H265 C270 0.949 . S
H266 C272 0.950 . S
H267 C273 0.950 . S
H268 C274 0.949 . S
C269 H264 0.950 . S
C269 C271 1.327 . S
C269 C275 1.429 . S
C270 C262 1.574 1_455 S
C270 H265 0.949 . S
C270 C276 1.368 . S
C271 C255 1.349 . S
C271 H263 0.950 . S
C271 C269 1.327 . S
C272 C260 1.349 . S
C272 H266 0.950 . S
C272 C273 1.327 . S
C273 H267 0.950 . S
C273 C272 1.327 . S
C273 C277 1.429 . S
C274 C257 1.574 1_655 S
C274 H268 0.949 . S
C274 C278 1.368 . S
C275 C256 1.429 . S
C275 C269 1.429 . S
C275 C276 1.523 . S
C276 C257 1.368 . S
C276 C270 1.368 . S
C276 C275 1.523 . S
C277 C261 1.429 . S
C277 C273 1.429 . S
C277 C278 1.523 . S
C278 C262 1.368 . S
C278 C274 1.368 . S
C278 C277 1.523 . S
H279 C254 0.950 . S
H280 C256 0.950 . S
H281 C257 0.949 . S
H282 C259 0.950 . S
H283 C261 0.950 . S
C284 C285 1.349 . S
C284 C286 1.327 . S
C284 H309 0.950 . S
C285 C284 1.349 . S
C285 C301 1.349 . S
C286 C284 1.327 . S
C286 C305 1.429 . S
C286 H310 0.950 . S
C287 C304 1.574 1_565 S
C287 C306 1.368 . S
C287 H311 0.949 . S
H288 C292 0.949 . S
C289 C290 1.349 . S
C289 C291 1.327 . S
C289 H312 0.950 . S
C290 C289 1.349 . S
C290 C302 1.349 . S
C291 C289 1.327 . S
C291 C307 1.429 . S
C291 H313 0.950 . S
C292 H288 0.949 . S
C292 C300 1.574 1_545 S
C292 C308 1.368 . S
H293 C301 0.950 . S
H294 C299 0.950 . S
H295 C300 0.949 . S
H296 C302 0.950 . S
H297 C303 0.950 . S
H298 C304 0.949 . S
C299 H294 0.950 . S
C299 C301 1.327 . S
C299 C305 1.429 . S
C300 C292 1.574 1_565 S
C300 H295 0.949 . S
C300 C306 1.368 . S
C301 C285 1.349 . S
C301 H293 0.950 . S
C301 C299 1.327 . S
C302 C290 1.349 . S
C302 H296 0.950 . S
C302 C303 1.327 . S
C303 H297 0.950 . S
C303 C302 1.327 . S
C303 C307 1.429 . S
C304 C287 1.574 1_545 S
C304 H298 0.949 . S
C304 C308 1.368 . S
C305 C286 1.429 . S
C305 C299 1.429 . S
C305 C306 1.523 . S
C306 C287 1.368 . S
C306 C300 1.368 . S
C306 C305 1.523 . S
C307 C291 1.429 . S
C307 C303 1.429 . S
C307 C308 1.523 . S
C308 C292 1.368 . S
C308 C304 1.368 . S
C308 C307 1.523 . S
H309 C284 0.950 . S
H310 C286 0.950 . S
H311 C287 0.949 . S
H312 C289 0.950 . S
H313 C291 0.950 . S
C314 C315 1.349 . S
C314 C316 1.327 . S
C314 H339 0.950 . S
C315 C314 1.349 . S
C315 C331 1.349 . S
C316 C314 1.327 . S
C316 C335 1.429 . S
C316 H340 0.950 . S
C317 C334 1.574 1_455 S
C317 C336 1.368 . S
C317 H341 0.949 . S
H318 C322 0.949 . S
C319 C320 1.349 . S
C319 C321 1.327 . S
C319 H342 0.950 . S
C320 C319 1.349 . S
C320 C332 1.349 . S
C321 C319 1.327 . S
C321 C337 1.429 . S
C321 H343 0.950 . S
C322 H318 0.949 . S
C322 C330 1.574 1_655 S
C322 C338 1.368 . S
H323 C331 0.950 . S
H324 C329 0.950 . S
H325 C330 0.949 . S
H326 C332 0.950 . S
H327 C333 0.950 . S
H328 C334 0.949 . S
C329 H324 0.950 . S
C329 C331 1.327 . S
C329 C335 1.429 . S
C330 C322 1.574 1_455 S
C330 H325 0.949 . S
C330 C336 1.368 . S
C331 C315 1.349 . S
C331 H323 0.950 . S
C331 C329 1.327 . S
C332 C320 1.349 . S
C332 H326 0.950 . S
C332 C333 1.327 . S
C333 H327 0.950 . S
C333 C332 1.327 . S
C333 C337 1.429 . S
C334 C317 1.574 1_655 S
C334 H328 0.949 . S
C334 C338 1.368 . S
C335 C316 1.429 . S
C335 C329 1.429 . S
C335 C336 1.523 . S
C336 C317 1.368 . S
C336 C330 1.368 . S
C336 C335 1.523 . S
C337 C321 1.429 . S
C337 C333 1.429 . S
C337 C338 1.523 . S
C338 C322 1.368 . S
C338 C334 1.368 . S
C338 C337 1.523 . S
H339 C314 0.950 . S
H340 C316 0.950 . S
H341 C317 0.949 . S
H342 C319 0.950 . S
H343 C321 0.950 . S
C344 C345 1.349 . S
C344 C346 1.327 1_554 S
C344 H369 0.950 1_554 S
C345 C344 1.349 . S
C345 C361 1.349 . S
C346 C344 1.327 1_556 S
C346 C365 1.429 1_556 S
C346 H370 0.950 . S
C347 C364 1.574 . S
C347 C366 1.368 . S
C347 H371 0.949 . S
H348 C352 0.949 . S
C349 C350 1.349 1_554 S
C349 C351 1.327 . S
C349 H372 0.950 . S
C350 C349 1.349 1_556 S
C350 C362 1.349 . S
C351 C349 1.327 . S
C351 C367 1.429 1_554 S
C351 H373 0.950 . S
C352 H348 0.949 . S
C352 C360 1.574 . S
C352 C368 1.368 1_556 S
H353 C361 0.950 . S
H354 C359 0.950 . S
H355 C360 0.949 . S
H356 C362 0.950 . S
H357 C363 0.950 . S
H358 C364 0.949 . S
C359 H354 0.950 . S
C359 C361 1.327 . S
C359 C365 1.429 . S
C360 C352 1.574 . S
C360 H355 0.949 . S
C360 C366 1.368 1_556 S
C361 C345 1.349 . S
C361 H353 0.950 . S
C361 C359 1.327 . S
C362 C350 1.349 . S
C362 H356 0.950 . S
C362 C363 1.327 . S
C363 H357 0.950 . S
C363 C362 1.327 . S
C363 C367 1.429 . S
C364 C347 1.574 . S
C364 H358 0.949 . S
C364 C368 1.368 . S
C365 C346 1.429 1_554 S
C365 C359 1.429 . S
C365 C366 1.523 . S
C366 C347 1.368 . S
C366 C360 1.368 1_554 S
C366 C365 1.523 . S
C367 C351 1.429 1_556 S
C367 C363 1.429 . S
C367 C368 1.523 1_556 S
C368 C352 1.368 1_554 S
C368 C364 1.368 . S
C368 C367 1.523 1_554 S
H369 C344 0.950 1_556 S
H370 C346 0.950 . S
H371 C347 0.949 . S
H372 C349 0.950 . S
H373 C351 0.950 . S
C374 C375 1.349 . S
C374 C376 1.327 1_556 S
C374 H399 0.950 1_556 S
C375 C374 1.349 . S
C375 C391 1.349 . S
C376 C374 1.327 1_554 S
C376 C395 1.429 1_554 S
C376 H400 0.950 . S
C377 C394 1.574 . S
C377 C396 1.368 . S
C377 H401 0.949 . S
H378 C382 0.949 . S
C379 C380 1.349 1_556 S
C379 C381 1.327 . S
C379 H402 0.950 . S
C380 C379 1.349 1_554 S
C380 C392 1.349 . S
C381 C379 1.327 . S
C381 C397 1.429 1_556 S
C381 H403 0.950 . S
C382 H378 0.949 . S
C382 C390 1.574 . S
C382 C398 1.368 1_554 S
H383 C391 0.950 . S
H384 C389 0.950 . S
H385 C390 0.949 . S
H386 C392 0.950 . S
H387 C393 0.950 . S
H388 C394 0.949 . S
C389 H384 0.950 . S
C389 C391 1.327 . S
C389 C395 1.429 . S
C390 C382 1.574 . S
C390 H385 0.949 . S
C390 C396 1.368 1_554 S
C391 C375 1.349 . S
C391 H383 0.950 . S
C391 C389 1.327 . S
C392 C380 1.349 . S
C392 H386 0.950 . S
C392 C393 1.327 . S
C393 H387 0.950 . S
C393 C392 1.327 . S
C393 C397 1.429 . S
C394 C377 1.574 . S
C394 H388 0.949 . S
C394 C398 1.368 . S
C395 C376 1.429 1_556 S
C395 C389 1.429 . S
C395 C396 1.523 . S
C396 C377 1.368 . S
C396 C390 1.368 1_556 S
C396 C395 1.523 . S
C397 C381 1.429 1_554 S
C397 C393 1.429 . S
C397 C398 1.523 1_554 S
C398 C382 1.368 1_556 S
C398 C394 1.368 . S
C398 C397 1.523 1_556 S
H399 C374 0.950 1_554 S
H400 C376 0.950 . S
H401 C377 0.949 . S
H402 C379 0.950 . S
H403 C381 0.950 . S
C404 C405 1.349 . S
C404 C406 1.327 . S
C404 H429 0.950 . S
C405 C404 1.349 . S
C405 C421 1.349 1_556 S
C406 C404 1.327 . S
C406 C425 1.429 . S
C406 H430 0.950 . S
C407 C424 1.574 . S
C407 C426 1.368 . S
C407 H431 0.949 . S
H408 C412 0.949 . S
C409 C410 1.349 . S
C409 C411 1.327 . S
C409 H432 0.950 . S
C410 C409 1.349 . S
C410 C422 1.356 . S
C411 C409 1.327 . S
C411 C427 1.429 . S
C411 H433 0.950 . S
C412 H408 0.949 . S
C412 C420 1.574 . S
C412 C428 1.368 1_556 S
H413 C421 0.950 . S
H414 C419 0.950 . S
H415 C420 0.949 . S
H416 C422 0.944 1_556 S
H417 C423 0.950 . S
H418 C424 0.949 . S
C419 H414 0.950 . S
C419 C421 1.327 . S
C419 C425 1.429 1_554 S
C420 C412 1.574 . S
C420 H415 0.949 . S
C420 C426 1.368 1_556 S
C421 C405 1.349 1_554 S
C421 H413 0.950 . S
C421 C419 1.327 . S
C422 C410 1.356 . S
C422 H416 0.944 1_554 S
C422 C423 1.326 1_554 S
C423 H417 0.950 . S
C423 C422 1.326 1_556 S
C423 C427 1.429 1_556 S
C424 C407 1.574 . S
C424 H418 0.949 . S
C424 C428 1.368 . S
C425 C406 1.429 . S
C425 C419 1.429 1_556 S
C425 C426 1.523 1_556 S
C426 C407 1.368 . S
C426 C420 1.368 1_554 S
C426 C425 1.523 1_554 S
C427 C411 1.429 . S
C427 C423 1.429 1_554 S
C427 C428 1.523 . S
C428 C412 1.368 1_554 S
C428 C424 1.368 . S
C428 C427 1.523 . S
H429 C404 0.950 . S
H430 C406 0.950 . S
H431 C407 0.949 . S
H432 C409 0.950 . S
H433 C411 0.950 . S
C434 C435 1.349 . S
C434 C436 1.327 . S
C434 H459 0.950 . S
C435 C434 1.349 . S
C435 C451 1.349 . S
C436 C434 1.327 . S
C436 C455 1.429 . S
C436 H460 0.950 . S
C437 C454 1.574 . S
C437 C456 1.368 . S
C437 H461 0.949 . S
H438 C442 0.949 . S
C439 C440 1.349 . S
C439 C441 1.327 . S
C439 H462 0.950 . S
C440 C439 1.349 . S
C440 C452 1.349 . S
C441 C439 1.327 . S
C441 C457 1.429 . S
C441 H463 0.950 . S
C442 H438 0.949 . S
C442 C450 1.574 1_556 S
C442 C458 1.368 . S
H443 C451 0.950 . S
H444 C449 0.952 . S
H445 C450 0.949 . S
H446 C452 0.950 . S
H447 C453 0.950 . S
H448 C454 0.949 . S
C449 H444 0.952 . S
C449 C451 1.326 1_556 S
C449 C455 1.428 1_556 S
C450 C442 1.574 1_554 S
C450 H445 0.949 . S
C450 C456 1.368 1_554 S
C451 C435 1.349 . S
C451 H443 0.950 . S
C451 C449 1.326 1_554 S
C452 C440 1.349 . S
C452 H446 0.950 . S
C452 C453 1.327 . S
C453 H447 0.950 . S
C453 C452 1.327 . S
C453 C457 1.429 . S
C454 C437 1.574 . S
C454 H448 0.949 . S
C454 C458 1.368 . S
C455 C436 1.429 . S
C455 C449 1.428 1_554 S
C455 C456 1.523 1_554 S
C456 C437 1.368 . S
C456 C450 1.368 1_556 S
C456 C455 1.523 1_556 S
C457 C441 1.429 . S
C457 C453 1.429 . S
C457 C458 1.523 . S
C458 C442 1.368 . S
C458 C454 1.368 . S
C458 C457 1.523 . S
H459 C434 0.950 . S
H460 C436 0.950 . S
H461 C437 0.949 . S
H462 C439 0.950 . S
H463 C441 0.950 . S
C464 C465 1.349 . S
C464 C466 1.327 . S
C464 H489 0.950 . S
C465 C464 1.349 . S
C465 C481 1.349 . S
C466 C464 1.327 . S
C466 C485 1.429 . S
C466 H490 0.950 . S
C467 C484 1.574 . S
C467 C486 1.368 . S
C467 H491 0.949 . S
H468 C472 0.949 . S
C469 C470 1.349 . S
C469 C471 1.327 . S
C469 H492 0.950 . S
C470 C469 1.349 . S
C470 C482 1.349 . S
C471 C469 1.327 . S
C471 C487 1.429 . S
C471 H493 0.950 . S
C472 H468 0.949 . S
C472 C480 1.574 . S
C472 C488 1.368 . S
H473 C481 0.950 . S
H474 C479 0.950 . S
H475 C480 0.949 . S
H476 C482 0.950 . S
H477 C483 0.950 . S
H478 C484 0.949 . S
C479 H474 0.950 . S
C479 C481 1.327 . S
C479 C485 1.429 . S
C480 C472 1.574 . S
C480 H475 0.949 . S
C480 C486 1.368 . S
C481 C465 1.349 . S
C481 H473 0.950 . S
C481 C479 1.327 . S
C482 C470 1.349 . S
C482 H476 0.950 . S
C482 C483 1.327 . S
C483 H477 0.950 . S
C483 C482 1.327 . S
C483 C487 1.429 . S
C484 C467 1.574 . S
C484 H478 0.949 . S
C484 C488 1.368 . S
C485 C466 1.429 . S
C485 C479 1.429 . S
C485 C486 1.523 . S
C486 C467 1.368 . S
C486 C480 1.368 . S
C486 C485 1.523 . S
C487 C471 1.429 . S
C487 C483 1.429 . S
C487 C488 1.523 . S
C488 C472 1.368 . S
C488 C484 1.368 . S
C488 C487 1.523 . S
H489 C464 0.950 . S
H490 C466 0.950 . S
H491 C467 0.949 . S
H492 C469 0.950 . S
H493 C471 0.950 . S
C494 C495 1.349 . S
C494 C496 1.327 . S
C494 H519 0.950 . S
C495 C494 1.349 . S
C495 C511 1.349 . S
C496 C494 1.327 . S
C496 C515 1.429 . S
C496 H520 0.950 . S
C497 C514 1.574 . S
C497 C516 1.368 . S
C497 H521 0.949 . S
H498 C502 0.949 . S
C499 C500 1.349 . S
C499 C501 1.327 . S
C499 H522 0.950 . S
C500 C499 1.349 . S
C500 C512 1.349 . S
C501 C499 1.327 . S
C501 C517 1.429 . S
C501 H523 0.950 . S
C502 H498 0.949 . S
C502 C510 1.574 . S
C502 C518 1.368 . S
H503 C511 0.950 . S
H504 C509 0.950 . S
H505 C510 0.949 . S
H506 C512 0.950 . S
H507 C513 0.950 . S
H508 C514 0.949 . S
C509 H504 0.950 . S
C509 C511 1.327 . S
C509 C515 1.429 . S
C510 C502 1.574 . S
C510 H505 0.949 . S
C510 C516 1.368 . S
C511 C495 1.349 . S
C511 H503 0.950 . S
C511 C509 1.327 . S
C512 C500 1.349 . S
C512 H506 0.950 . S
C512 C513 1.327 . S
C513 H507 0.950 . S
C513 C512 1.327 . S
C513 C517 1.429 . S
C514 C497 1.574 . S
C514 H508 0.949 . S
C514 C518 1.368 . S
C515 C496 1.429 . S
C515 C509 1.429 . S
C515 C516 1.523 . S
C516 C497 1.368 . S
C516 C510 1.368 . S
C516 C515 1.523 . S
C517 C501 1.429 . S
C517 C513 1.429 . S
C517 C518 1.523 . S
C518 C502 1.368 . S
C518 C514 1.368 . S
C518 C517 1.523 . S
H519 C494 0.950 . S
H520 C496 0.950 . S
H521 C497 0.949 . S
H522 C499 0.950 . S
H523 C501 0.950 . S
C524 C525 1.349 . S
C524 C526 1.327 . S
C524 H549 0.950 . S
C525 C524 1.349 . S
C525 C541 1.349 . S
C526 C524 1.327 . S
C526 C545 1.429 . S
C526 H550 0.950 . S
C527 C544 1.574 . S
C527 C546 1.368 . S
C527 H551 0.949 . S
H528 C532 0.949 . S
C529 C530 1.349 . S
C529 C531 1.327 . S
C529 H552 0.950 . S
C530 C529 1.349 . S
C530 C542 1.349 . S
C531 C529 1.327 . S
C531 C547 1.429 . S
C531 H553 0.950 . S
C532 H528 0.949 . S
C532 C540 1.574 . S
C532 C548 1.368 . S
H533 C541 0.950 . S
H534 C539 0.950 . S
H535 C540 0.949 . S
H536 C542 0.950 . S
H537 C543 0.950 . S
H538 C544 0.949 . S
C539 H534 0.950 . S
C539 C541 1.327 . S
C539 C545 1.429 . S
C540 C532 1.574 . S
C540 H535 0.949 . S
C540 C546 1.368 . S
C541 C525 1.349 . S
C541 H533 0.950 . S
C541 C539 1.327 . S
C542 C530 1.349 . S
C542 H536 0.950 . S
C542 C543 1.327 . S
C543 H537 0.950 . S
C543 C542 1.327 . S
C543 C547 1.429 . S
C544 C527 1.574 . S
C544 H538 0.949 . S
C544 C548 1.368 . S
C545 C526 1.429 . S
C545 C539 1.429 . S
C545 C546 1.523 . S
C546 C527 1.368 . S
C546 C540 1.368 . S
C546 C545 1.523 . S
C547 C531 1.429 . S
C547 C543 1.429 . S
C547 C548 1.523 . S
C548 C532 1.368 . S
C548 C544 1.368 . S
C548 C547 1.523 . S
H549 C524 0.950 . S
H550 C526 0.950 . S
H551 C527 0.949 . S
H552 C529 0.950 . S
H553 C531 0.950 . S
C554 C555 1.349 . S
C554 C556 1.327 . S
C554 H579 0.950 . S
C555 C554 1.349 . S
C555 C571 1.349 . S
C556 C554 1.327 . S
C556 C575 1.429 . S
C556 H580 0.950 . S
C557 C574 1.574 . S
C557 C576 1.368 . S
C557 H581 0.949 . S
H558 C562 0.949 . S
C559 C560 1.349 . S
C559 C561 1.327 . S
C559 H582 0.950 . S
C560 C559 1.349 . S
C560 C572 1.349 . S
C561 C559 1.327 . S
C561 C577 1.429 . S
C561 H583 0.950 . S
C562 H558 0.949 . S
C562 C570 1.574 . S
C562 C578 1.368 . S
H563 C571 0.950 . S
H564 C569 0.950 . S
H565 C570 0.949 . S
H566 C572 0.950 . S
H567 C573 0.950 . S
H568 C574 0.949 . S
C569 H564 0.950 . S
C569 C571 1.327 . S
C569 C575 1.429 . S
C570 C562 1.574 . S
C570 H565 0.949 . S
C570 C576 1.368 . S
C571 C555 1.349 . S
C571 H563 0.950 . S
C571 C569 1.327 . S
C572 C560 1.349 . S
C572 H566 0.950 . S
C572 C573 1.327 . S
C573 H567 0.950 . S
C573 C572 1.327 . S
C573 C577 1.429 . S
C574 C557 1.574 . S
C574 H568 0.949 . S
C574 C578 1.368 . S
C575 C556 1.429 . S
C575 C569 1.429 . S
C575 C576 1.523 . S
C576 C557 1.368 . S
C576 C570 1.368 . S
C576 C575 1.523 . S
C577 C561 1.429 . S
C577 C573 1.429 . S
C577 C578 1.523 . S
C578 C562 1.368 . S
C578 C574 1.368 . S
C578 C577 1.523 . S
H579 C554 0.950 . S
H580 C556 0.950 . S
H581 C557 0.949 . S
H582 C559 0.950 . S
H583 C561 0.950 . S
C584 C585 1.349 . S
C584 C586 1.327 . S
C584 H609 0.950 . S
C585 C584 1.349 . S
C585 C601 1.349 . S
C586 C584 1.327 . S
C586 C605 1.429 . S
C586 H610 0.950 . S
C587 C604 1.574 1_565 S
C587 C606 1.368 . S
C587 H611 0.949 . S
H588 C592 0.949 . S
C589 C590 1.349 . S
C589 C591 1.327 . S
C589 H612 0.950 . S
C590 C589 1.349 . S
C590 C602 1.349 . S
C591 C589 1.327 . S
C591 C607 1.429 . S
C591 H613 0.950 . S
C592 H588 0.949 . S
C592 C600 1.574 1_545 S
C592 C608 1.368 . S
H593 C601 0.950 . S
H594 C599 0.950 . S
H595 C600 0.949 . S
H596 C602 0.950 . S
H597 C603 0.950 . S
H598 C604 0.949 . S
C599 H594 0.950 . S
C599 C601 1.327 . S
C599 C605 1.429 . S
C600 C592 1.574 1_565 S
C600 H595 0.949 . S
C600 C606 1.368 . S
C601 C585 1.349 . S
C601 H593 0.950 . S
C601 C599 1.327 . S
C602 C590 1.349 . S
C602 H596 0.950 . S
C602 C603 1.327 . S
C603 H597 0.950 . S
C603 C602 1.327 . S
C603 C607 1.429 . S
C604 C587 1.574 1_545 S
C604 H598 0.949 . S
C604 C608 1.368 . S
C605 C586 1.429 . S
C605 C599 1.429 . S
C605 C606 1.523 . S
C606 C587 1.368 . S
C606 C600 1.368 . S
C606 C605 1.523 . S
C607 C591 1.429 . S
C607 C603 1.429 . S
C607 C608 1.523 . S
C608 C592 1.368 . S
C608 C604 1.368 . S
C608 C607 1.523 . S
H609 C584 0.950 . S
H610 C586 0.950 . S
H611 C587 0.949 . S
H612 C589 0.950 . S
H613 C591 0.950 . S
C614 C615 1.349 . S
C614 C616 1.327 . S
C614 H639 0.950 . S
C615 C614 1.349 . S
C615 C631 1.349 . S
C616 C614 1.327 . S
C616 C635 1.429 . S
C616 H640 0.950 . S
C617 C634 1.574 1_655 S
C617 C636 1.368 . S
C617 H641 0.949 . S
H618 C622 0.949 . S
C619 C620 1.349 . S
C619 C621 1.327 . S
C619 H642 0.950 . S
C620 C619 1.349 . S
C620 C632 1.349 . S
C621 C619 1.327 . S
C621 C637 1.429 . S
C621 H643 0.950 . S
C622 H618 0.949 . S
C622 C630 1.574 1_455 S
C622 C638 1.368 . S
H623 C631 0.950 . S
H624 C629 0.950 . S
H625 C630 0.949 . S
H626 C632 0.950 . S
H627 C633 0.950 . S
H628 C634 0.949 . S
C629 H624 0.950 . S
C629 C631 1.327 . S
C629 C635 1.429 . S
C630 C622 1.574 1_655 S
C630 H625 0.949 . S
C630 C636 1.368 . S
C631 C615 1.349 . S
C631 H623 0.950 . S
C631 C629 1.327 . S
C632 C620 1.349 . S
C632 H626 0.950 . S
C632 C633 1.327 . S
C633 H627 0.950 . S
C633 C632 1.327 . S
C633 C637 1.429 . S
C634 C617 1.574 1_455 S
C634 H628 0.949 . S
C634 C638 1.368 . S
C635 C616 1.429 . S
C635 C629 1.429 . S
C635 C636 1.523 . S
C636 C617 1.368 . S
C636 C630 1.368 . S
C636 C635 1.523 . S
C637 C621 1.429 . S
C637 C633 1.429 . S
C637 C638 1.523 . S
C638 C622 1.368 . S
C638 C634 1.368 . S
C638 C637 1.523 . S
H639 C614 0.950 . S
H640 C616 0.950 . S
H641 C617 0.949 . S
H642 C619 0.950 . S
H643 C621 0.950 . S
C644 C645 1.349 . S
C644 C646 1.327 . S
C644 H669 0.950 . S
C645 C644 1.349 . S
C645 C661 1.349 . S
C646 C644 1.327 . S
C646 C665 1.429 . S
C646 H670 0.950 . S
C647 C664 1.574 1_565 S
C647 C666 1.368 . S
C647 H671 0.949 . S
H648 C652 0.949 . S
C649 C650 1.349 . S
C649 C651 1.327 . S
C649 H672 0.950 . S
C650 C649 1.349 . S
C650 C662 1.349 . S
C651 C649 1.327 . S
C651 C667 1.429 . S
C651 H673 0.950 . S
C652 H648 0.949 . S
C652 C660 1.574 1_545 S
C652 C668 1.368 . S
H653 C661 0.950 . S
H654 C659 0.950 . S
H655 C660 0.949 . S
H656 C662 0.950 . S
H657 C663 0.950 . S
H658 C664 0.949 . S
C659 H654 0.950 . S
C659 C661 1.327 . S
C659 C665 1.429 . S
C660 C652 1.574 1_565 S
C660 H655 0.949 . S
C660 C666 1.368 . S
C661 C645 1.349 . S
C661 H653 0.950 . S
C661 C659 1.327 . S
C662 C650 1.349 . S
C662 H656 0.950 . S
C662 C663 1.327 . S
C663 H657 0.950 . S
C663 C662 1.327 . S
C663 C667 1.429 . S
C664 C647 1.574 1_545 S
C664 H658 0.949 . S
C664 C668 1.368 . S
C665 C646 1.429 . S
C665 C659 1.429 . S
C665 C666 1.523 . S
C666 C647 1.368 . S
C666 C660 1.368 . S
C666 C665 1.523 . S
C667 C651 1.429 . S
C667 C663 1.429 . S
C667 C668 1.523 . S
C668 C652 1.368 . S
C668 C664 1.368 . S
C668 C667 1.523 . S
H669 C644 0.950 . S
H670 C646 0.950 . S
H671 C647 0.949 . S
H672 C649 0.950 . S
H673 C651 0.950 . S
C674 C675 1.349 . S
C674 C676 1.327 . S
C674 H699 0.950 . S
C675 C674 1.349 . S
C675 C691 1.349 . S
C676 C674 1.327 . S
C676 C695 1.429 . S
C676 H700 0.950 . S
C677 C694 1.574 1_655 S
C677 C696 1.368 . S
C677 H701 0.949 . S
H678 C682 0.949 . S
C679 C680 1.349 . S
C679 C681 1.327 . S
C679 H702 0.950 . S
C680 C679 1.349 . S
C680 C692 1.349 . S
C681 C679 1.327 . S
C681 C697 1.429 . S
C681 H703 0.950 . S
C682 H678 0.949 . S
C682 C690 1.574 1_455 S
C682 C698 1.368 . S
H683 C691 0.950 . S
H684 C689 0.950 . S
H685 C690 0.949 . S
H686 C692 0.950 . S
H687 C693 0.950 . S
H688 C694 0.949 . S
C689 H684 0.950 . S
C689 C691 1.327 . S
C689 C695 1.429 . S
C690 C682 1.574 1_655 S
C690 H685 0.949 . S
C690 C696 1.368 . S
C691 C675 1.349 . S
C691 H683 0.950 . S
C691 C689 1.327 . S
C692 C680 1.349 . S
C692 H686 0.950 . S
C692 C693 1.327 . S
C693 H687 0.950 . S
C693 C692 1.327 . S
C693 C697 1.429 . S
C694 C677 1.574 1_455 S
C694 H688 0.949 . S
C694 C698 1.368 . S
C695 C676 1.429 . S
C695 C689 1.429 . S
C695 C696 1.523 . S
C696 C677 1.368 . S
C696 C690 1.368 . S
C696 C695 1.523 . S
C697 C681 1.429 . S
C697 C693 1.429 . S
C697 C698 1.523 . S
C698 C682 1.368 . S
C698 C694 1.368 . S
C698 C697 1.523 . S
H699 C674 0.950 . S
H700 C676 0.950 . S
H701 C677 0.949 . S
H702 C679 0.950 . S
H703 C681 0.950 . S
C704 C705 1.349 . S
C704 C706 1.327 . S
C704 H729 0.950 . S
C705 C704 1.349 . S
C705 C721 1.349 . S
C706 C704 1.327 . S
C706 C725 1.429 . S
C706 H730 0.950 . S
C707 C724 1.574 . S
C707 C726 1.368 . S
C707 H731 0.949 . S
H708 C712 0.949 . S
C709 C710 1.349 . S
C709 C711 1.327 . S
C709 H732 0.950 . S
C710 C709 1.349 . S
C710 C722 1.349 . S
C711 C709 1.327 . S
C711 C727 1.429 . S
C711 H733 0.950 . S
C712 H708 0.949 . S
C712 C720 1.574 . S
C712 C728 1.368 . S
H713 C721 0.950 . S
H714 C719 0.950 . S
H715 C720 0.949 . S
H716 C722 0.950 . S
H717 C723 0.950 . S
H718 C724 0.949 . S
C719 H714 0.950 . S
C719 C721 1.327 . S
C719 C725 1.429 . S
C720 C712 1.574 . S
C720 H715 0.949 . S
C720 C726 1.368 . S
C721 C705 1.349 . S
C721 H713 0.950 . S
C721 C719 1.327 . S
C722 C710 1.349 . S
C722 H716 0.950 . S
C722 C723 1.327 . S
C723 H717 0.950 . S
C723 C722 1.327 . S
C723 C727 1.429 . S
C724 C707 1.574 . S
C724 H718 0.949 . S
C724 C728 1.368 . S
C725 C706 1.429 . S
C725 C719 1.429 . S
C725 C726 1.523 . S
C726 C707 1.368 . S
C726 C720 1.368 . S
C726 C725 1.523 . S
C727 C711 1.429 . S
C727 C723 1.429 . S
C727 C728 1.523 . S
C728 C712 1.368 . S
C728 C724 1.368 . S
C728 C727 1.523 . S
H729 C704 0.950 . S
H730 C706 0.950 . S
H731 C707 0.949 . S
H732 C709 0.950 . S
H733 C711 0.950 . S
C734 C735 1.349 . S
C734 C736 1.327 . S
C734 H759 0.950 . S
C735 C734 1.349 . S
C735 C751 1.349 . S
C736 C734 1.327 . S
C736 C755 1.429 . S
C736 H760 0.950 . S
C737 C754 1.574 . S
C737 C756 1.368 . S
C737 H761 0.949 . S
H738 C742 0.949 . S
C739 C740 1.349 . S
C739 C741 1.327 . S
C739 H762 0.950 . S
C740 C739 1.349 . S
C740 C752 1.349 . S
C741 C739 1.327 . S
C741 C757 1.429 . S
C741 H763 0.950 . S
C742 H738 0.949 . S
C742 C750 1.574 . S
C742 C758 1.368 . S
H743 C751 0.950 . S
H744 C749 0.950 . S
H745 C750 0.949 . S
H746 C752 0.950 . S
H747 C753 0.950 . S
H748 C754 0.949 . S
C749 H744 0.950 . S
C749 C751 1.327 . S
C749 C755 1.429 . S
C750 C742 1.574 . S
C750 H745 0.949 . S
C750 C756 1.368 . S
C751 C735 1.349 . S
C751 H743 0.950 . S
C751 C749 1.327 . S
C752 C740 1.349 . S
C752 H746 0.950 . S
C752 C753 1.327 . S
C753 H747 0.950 . S
C753 C752 1.327 . S
C753 C757 1.429 . S
C754 C737 1.574 . S
C754 H748 0.949 . S
C754 C758 1.368 . S
C755 C736 1.429 . S
C755 C749 1.429 . S
C755 C756 1.523 . S
C756 C737 1.368 . S
C756 C750 1.368 . S
C756 C755 1.523 . S
C757 C741 1.429 . S
C757 C753 1.429 . S
C757 C758 1.523 . S
C758 C742 1.368 . S
C758 C754 1.368 . S
C758 C757 1.523 . S
H759 C734 0.950 . S
H760 C736 0.950 . S
H761 C737 0.949 . S
H762 C739 0.950 . S
H763 C741 0.950 . S
C764 C765 1.349 . S
C764 C766 1.327 . S
C764 H789 0.950 . S
C765 C764 1.349 . S
C765 C781 1.349 . S
C766 C764 1.327 . S
C766 C785 1.429 . S
C766 H790 0.950 . S
C767 C784 1.574 . S
C767 C786 1.368 . S
C767 H791 0.949 . S
H768 C772 0.949 . S
C769 C770 1.349 . S
C769 C771 1.327 . S
C769 H792 0.950 . S
C770 C769 1.349 . S
C770 C782 1.349 . S
C771 C769 1.327 . S
C771 C787 1.429 . S
C771 H793 0.950 . S
C772 H768 0.949 . S
C772 C780 1.574 . S
C772 C788 1.368 . S
H773 C781 0.950 . S
H774 C779 0.950 . S
H775 C780 0.949 . S
H776 C782 0.950 . S
H777 C783 0.950 . S
H778 C784 0.949 . S
C779 H774 0.950 . S
C779 C781 1.327 . S
C779 C785 1.429 . S
C780 C772 1.574 . S
C780 H775 0.949 . S
C780 C786 1.368 . S
C781 C765 1.349 . S
C781 H773 0.950 . S
C781 C779 1.327 . S
C782 C770 1.349 . S
C782 H776 0.950 . S
C782 C783 1.327 . S
C783 H777 0.950 . S
C783 C782 1.327 . S
C783 C787 1.429 . S
C784 C767 1.574 . S
C784 H778 0.949 . S
C784 C788 1.368 . S
C785 C766 1.429 . S
C785 C779 1.429 . S
C785 C786 1.523 . S
C786 C767 1.368 . S
C786 C780 1.368 . S
C786 C785 1.523 . S
C787 C771 1.429 . S
C787 C783 1.429 . S
C787 C788 1.523 . S
C788 C772 1.368 . S
C788 C784 1.368 . S
C788 C787 1.523 . S
H789 C764 0.950 . S
H790 C766 0.950 . S
H791 C767 0.949 . S
H792 C769 0.950 . S
H793 C771 0.950 . S
C794 C795 1.349 . S
C794 C796 1.327 . S
C794 H819 0.950 . S
C795 C794 1.349 . S
C795 C811 1.349 . S
C796 C794 1.327 . S
C796 C815 1.429 . S
C796 H820 0.950 . S
C797 C814 1.574 . S
C797 C816 1.368 . S
C797 H821 0.949 . S
H798 C802 0.949 . S
C799 C800 1.349 . S
C799 C801 1.327 . S
C799 H822 0.950 . S
C800 C799 1.349 . S
C800 C812 1.349 . S
C801 C799 1.327 . S
C801 C817 1.429 . S
C801 H823 0.950 . S
C802 H798 0.949 . S
C802 C810 1.574 . S
C802 C818 1.368 . S
H803 C811 0.950 . S
H804 C809 0.950 . S
H805 C810 0.949 . S
H806 C812 0.950 . S
H807 C813 0.950 . S
H808 C814 0.949 . S
C809 H804 0.950 . S
C809 C811 1.327 . S
C809 C815 1.429 . S
C810 C802 1.574 . S
C810 H805 0.949 . S
C810 C816 1.368 . S
C811 C795 1.349 . S
C811 H803 0.950 . S
C811 C809 1.327 . S
C812 C800 1.349 . S
C812 H806 0.950 . S
C812 C813 1.327 . S
C813 H807 0.950 . S
C813 C812 1.327 . S
C813 C817 1.429 . S
C814 C797 1.574 . S
C814 H808 0.949 . S
C814 C818 1.368 . S
C815 C796 1.429 . S
C815 C809 1.429 . S
C815 C816 1.523 . S
C816 C797 1.368 . S
C816 C810 1.368 . S
C816 C815 1.523 . S
C817 C801 1.429 . S
C817 C813 1.429 . S
C817 C818 1.523 . S
C818 C802 1.368 . S
C818 C814 1.368 . S
C818 C817 1.523 . S
H819 C794 0.950 . S
H820 C796 0.950 . S
H821 C797 0.949 . S
H822 C799 0.950 . S
H823 C801 0.950 . S
C824 C825 1.349 . S
C824 C826 1.327 . S
C824 H849 0.950 . S
C825 C824 1.349 . S
C825 C841 1.349 . S
C826 C824 1.327 . S
C826 C845 1.429 . S
C826 H850 0.950 . S
C827 C844 1.574 . S
C827 C846 1.368 . S
C827 H851 0.949 . S
H828 C832 0.949 . S
C829 C830 1.349 . S
C829 C831 1.327 . S
C829 H852 0.950 . S
C830 C829 1.349 . S
C830 C842 1.349 . S
C831 C829 1.327 . S
C831 C847 1.429 . S
C831 H853 0.950 . S
C832 H828 0.949 . S
C832 C840 1.574 . S
C832 C848 1.368 . S
H833 C841 0.950 . S
H834 C839 0.950 . S
H835 C840 0.949 . S
H836 C842 0.950 . S
H837 C843 0.950 . S
H838 C844 0.949 . S
C839 H834 0.950 . S
C839 C841 1.327 . S
C839 C845 1.429 . S
C840 C832 1.574 . S
C840 H835 0.949 . S
C840 C846 1.368 . S
C841 C825 1.349 . S
C841 H833 0.950 . S
C841 C839 1.327 . S
C842 C830 1.349 . S
C842 H836 0.950 . S
C842 C843 1.327 . S
C843 H837 0.950 . S
C843 C842 1.327 . S
C843 C847 1.429 . S
C844 C827 1.574 . S
C844 H838 0.949 . S
C844 C848 1.368 . S
C845 C826 1.429 . S
C845 C839 1.429 . S
C845 C846 1.523 . S
C846 C827 1.368 . S
C846 C840 1.368 . S
C846 C845 1.523 . S
C847 C831 1.429 . S
C847 C843 1.429 . S
C847 C848 1.523 . S
C848 C832 1.368 . S
C848 C844 1.368 . S
C848 C847 1.523 . S
H849 C824 0.950 . S
H850 C826 0.950 . S
H851 C827 0.949 . S
H852 C829 0.950 . S
H853 C831 0.950 . S
C854 C855 1.349 . S
C854 C856 1.327 . S
C854 H879 0.950 . S
C855 C854 1.349 . S
C855 C871 1.349 . S
C856 C854 1.327 . S
C856 C875 1.429 . S
C856 H880 0.950 . S
C857 C874 1.574 . S
C857 C876 1.368 . S
C857 H881 0.949 . S
H858 C862 0.949 . S
C859 C860 1.349 . S
C859 C861 1.327 . S
C859 H882 0.950 . S
C860 C859 1.349 . S
C860 C872 1.349 . S
C861 C859 1.327 . S
C861 C877 1.429 . S
C861 H883 0.950 . S
C862 H858 0.949 . S
C862 C870 1.574 . S
C862 C878 1.368 . S
H863 C871 0.950 . S
H864 C869 0.950 . S
H865 C870 0.949 . S
H866 C872 0.950 . S
H867 C873 0.950 . S
H868 C874 0.949 . S
C869 H864 0.950 . S
C869 C871 1.327 . S
C869 C875 1.429 . S
C870 C862 1.574 . S
C870 H865 0.949 . S
C870 C876 1.368 . S
C871 C855 1.349 . S
C871 H863 0.950 . S
C871 C869 1.327 . S
C872 C860 1.349 . S
C872 H866 0.950 . S
C872 C873 1.327 . S
C873 H867 0.950 . S
C873 C872 1.327 . S
C873 C877 1.429 . S
C874 C857 1.574 . S
C874 H868 0.949 . S
C874 C878 1.368 . S
C875 C856 1.429 . S
C875 C869 1.429 . S
C875 C876 1.523 . S
C876 C857 1.368 . S
C876 C870 1.368 . S
C876 C875 1.523 . S
C877 C861 1.429 . S
C877 C873 1.429 . S
C877 C878 1.523 . S
C878 C862 1.368 . S
C878 C874 1.368 . S
C878 C877 1.523 . S
H879 C854 0.950 . S
H880 C856 0.950 . S
H881 C857 0.949 . S
H882 C859 0.950 . S
H883 C861 0.950 . S
C884 C885 1.349 . S
C884 C886 1.327 . S
C884 H909 0.950 . S
C885 C884 1.349 . S
C885 C901 1.349 . S
C886 C884 1.327 . S
C886 C905 1.429 . S
C886 H910 0.950 . S
C887 C904 1.574 . S
C887 C906 1.368 . S
C887 H911 0.949 . S
H888 C892 0.949 . S
C889 C890 1.349 . S
C889 C891 1.327 . S
C889 H912 0.950 . S
C890 C889 1.349 . S
C890 C902 1.349 . S
C891 C889 1.327 . S
C891 C907 1.429 . S
C891 H913 0.950 . S
C892 H888 0.949 . S
C892 C900 1.574 . S
C892 C908 1.368 . S
H893 C901 0.950 . S
H894 C899 0.950 . S
H895 C900 0.949 . S
H896 C902 0.950 . S
H897 C903 0.950 . S
H898 C904 0.949 . S
C899 H894 0.950 . S
C899 C901 1.327 . S
C899 C905 1.429 . S
C900 C892 1.574 . S
C900 H895 0.949 . S
C900 C906 1.368 . S
C901 C885 1.349 . S
C901 H893 0.950 . S
C901 C899 1.327 . S
C902 C890 1.349 . S
C902 H896 0.950 . S
C902 C903 1.327 . S
C903 H897 0.950 . S
C903 C902 1.327 . S
C903 C907 1.429 . S
C904 C887 1.574 . S
C904 H898 0.949 . S
C904 C908 1.368 . S
C905 C886 1.429 . S
C905 C899 1.429 . S
C905 C906 1.523 . S
C906 C887 1.368 . S
C906 C900 1.368 . S
C906 C905 1.523 . S
C907 C891 1.429 . S
C907 C903 1.429 . S
C907 C908 1.523 . S
C908 C892 1.368 . S
C908 C904 1.368 . S
C908 C907 1.523 . S
H909 C884 0.950 . S
H910 C886 0.950 . S
H911 C887 0.949 . S
H912 C889 0.950 . S
H913 C891 0.950 . S
C914 C915 1.349 . S
C914 C916 1.327 . S
C914 H939 0.950 . S
C915 C914 1.349 . S
C915 C931 1.349 . S
C916 C914 1.327 . S
C916 C935 1.429 . S
C916 H940 0.950 . S
C917 C934 1.574 . S
C917 C936 1.368 . S
C917 H941 0.949 . S
H918 C922 0.949 . S
C919 C920 1.349 . S
C919 C921 1.327 . S
C919 H942 0.950 . S
C920 C919 1.349 . S
C920 C932 1.349 . S
C921 C919 1.327 . S
C921 C937 1.429 . S
C921 H943 0.950 . S
C922 H918 0.949 . S
C922 C930 1.574 . S
C922 C938 1.368 . S
H923 C931 0.950 . S
H924 C929 0.950 . S
H925 C930 0.949 . S
H926 C932 0.950 . S
H927 C933 0.950 . S
H928 C934 0.949 . S
C929 H924 0.950 . S
C929 C931 1.327 . S
C929 C935 1.429 . S
C930 C922 1.574 . S
C930 H925 0.949 . S
C930 C936 1.368 . S
C931 C915 1.349 . S
C931 H923 0.950 . S
C931 C929 1.327 . S
C932 C920 1.349 . S
C932 H926 0.950 . S
C932 C933 1.327 . S
C933 H927 0.950 . S
C933 C932 1.327 . S
C933 C937 1.429 . S
C934 C917 1.574 . S
C934 H928 0.949 . S
C934 C938 1.368 . S
C935 C916 1.429 . S
C935 C929 1.429 . S
C935 C936 1.523 . S
C936 C917 1.368 . S
C936 C930 1.368 . S
C936 C935 1.523 . S
C937 C921 1.429 . S
C937 C933 1.429 . S
C937 C938 1.523 . S
C938 C922 1.368 . S
C938 C934 1.368 . S
C938 C937 1.523 . S
H939 C914 0.950 . S
H940 C916 0.950 . S
H941 C917 0.949 . S
H942 C919 0.950 . S
H943 C921 0.950 . S
C944 C945 1.349 . S
C944 C946 1.327 . S
C944 H969 0.950 . S
C945 C944 1.349 . S
C945 C961 1.349 . S
C946 C944 1.327 . S
C946 C965 1.429 . S
C946 H970 0.950 . S
C947 C964 1.574 . S
C947 C966 1.368 . S
C947 H971 0.949 . S
H948 C952 0.949 . S
C949 C950 1.349 1_556 S
C949 C951 1.327 . S
C949 H972 0.950 . S
C950 C949 1.349 1_554 S
C950 C962 1.349 . S
C951 C949 1.327 . S
C951 C967 1.429 . S
C951 H973 0.950 . S
C952 H948 0.949 . S
C952 C960 1.574 . S
C952 C968 1.368 . S
H953 C961 0.950 . S
H954 C959 0.950 . S
H955 C960 0.949 . S
H956 C962 0.950 . S
H957 C963 0.950 . S
H958 C964 0.949 . S
C959 H954 0.950 . S
C959 C961 1.327 . S
C959 C965 1.429 . S
C960 C952 1.574 . S
C960 H955 0.949 . S
C960 C966 1.368 . S
C961 C945 1.349 . S
C961 H953 0.950 . S
C961 C959 1.327 . S
C962 C950 1.349 . S
C962 H956 0.950 . S
C962 C963 1.327 . S
C963 H957 0.950 . S
C963 C962 1.327 . S
C963 C967 1.429 1_554 S
C964 C947 1.574 . S
C964 H958 0.949 . S
C964 C968 1.368 . S
C965 C946 1.429 . S
C965 C959 1.429 . S
C965 C966 1.523 . S
C966 C947 1.368 . S
C966 C960 1.368 . S
C966 C965 1.523 . S
C967 C951 1.429 . S
C967 C963 1.429 1_556 S
C967 C968 1.523 . S
C968 C952 1.368 . S
C968 C964 1.368 . S
C968 C967 1.523 . S
H969 C944 0.950 . S
H970 C946 0.950 . S
H971 C947 0.949 . S
H972 C949 0.950 . S
H973 C951 0.950 . S
C974 C975 1.349 . S
C974 C976 1.327 . S
C974 H999 0.950 . S
C975 C974 1.349 . S
C975 C991 1.349 . S
C976 C974 1.327 . S
C976 C995 1.429 . S
C976 H1000 0.950 . S
C977 C994 1.574 . S
C977 C996 1.368 . S
C977 H1001 0.949 . S
H978 C982 0.949 1_556 S
C979 C980 1.349 1_554 S
C979 C981 1.327 . S
C979 H1002 0.950 . S
C980 C979 1.349 1_556 S
C980 C992 1.349 . S
C981 C979 1.327 . S
C981 C997 1.429 . S
C981 H1003 0.950 . S
C982 H978 0.949 1_554 S
C982 C990 1.574 . S
C982 C998 1.368 . S
H983 C991 0.950 . S
H984 C989 0.950 . S
H985 C990 0.949 . S
H986 C992 0.950 . S
H987 C993 0.950 . S
H988 C994 0.949 . S
C989 H984 0.950 . S
C989 C991 1.327 . S
C989 C995 1.429 . S
C990 C982 1.574 . S
C990 H985 0.949 . S
C990 C996 1.368 . S
C991 C975 1.349 . S
C991 H983 0.950 . S
C991 C989 1.327 . S
C992 C980 1.349 . S
C992 H986 0.950 . S
C992 C993 1.327 . S
C993 H987 0.950 . S
C993 C992 1.327 . S
C993 C997 1.429 1_556 S
C994 C977 1.574 . S
C994 H988 0.949 . S
C994 C998 1.368 . S
C995 C976 1.429 . S
C995 C989 1.429 . S
C995 C996 1.523 . S
C996 C977 1.368 . S
C996 C990 1.368 . S
C996 C995 1.523 . S
C997 C981 1.429 . S
C997 C993 1.429 1_554 S
C997 C998 1.523 . S
C998 C982 1.368 . S
C998 C994 1.368 . S
C998 C997 1.523 . S
H999 C974 0.950 . S
H1000 C976 0.950 . S
H1001 C977 0.949 . S
H1002 C979 0.950 . S
H1003 C981 0.950 . S
C1004 C1005 1.349 1_556 S
C1004 C1006 1.327 . S
C1004 H1029 0.950 . S
C1005 C1004 1.349 1_554 S
C1005 C1021 1.349 . S
C1006 C1004 1.327 . S
C1006 C1025 1.429 . S
C1006 H1030 0.950 . S
C1007 C1024 1.574 . S
C1007 C1026 1.368 . S
C1007 H1031 0.949 . S
H1008 C1012 0.949 . S
C1009 C1010 1.349 . S
C1009 C1011 1.327 . S
C1009 H1032 0.950 . S
C1010 C1009 1.349 . S
C1010 C1022 1.349 . S
C1011 C1009 1.327 . S
C1011 C1027 1.429 . S
C1011 H1033 0.950 . S
C1012 H1008 0.949 . S
C1012 C1020 1.574 . S
C1012 C1028 1.368 . S
H1013 C1021 0.950 . S
H1014 C1019 0.950 . S
H1015 C1020 0.949 . S
H1016 C1022 0.950 . S
H1017 C1023 0.950 . S
H1018 C1024 0.949 . S
C1019 H1014 0.950 . S
C1019 C1021 1.327 . S
C1019 C1025 1.429 1_554 S
C1020 C1012 1.574 . S
C1020 H1015 0.949 . S
C1020 C1026 1.368 . S
C1021 C1005 1.349 . S
C1021 H1013 0.950 . S
C1021 C1019 1.327 . S
C1022 C1010 1.349 . S
C1022 H1016 0.950 . S
C1022 C1023 1.327 . S
C1023 H1017 0.950 . S
C1023 C1022 1.327 . S
C1023 C1027 1.429 . S
C1024 C1007 1.574 . S
C1024 H1018 0.949 . S
C1024 C1028 1.368 . S
C1025 C1006 1.429 . S
C1025 C1019 1.429 1_556 S
C1025 C1026 1.523 . S
C1026 C1007 1.368 . S
C1026 C1020 1.368 . S
C1026 C1025 1.523 . S
C1027 C1011 1.429 . S
C1027 C1023 1.429 . S
C1027 C1028 1.523 . S
C1028 C1012 1.368 . S
C1028 C1024 1.368 . S
C1028 C1027 1.523 . S
H1029 C1004 0.950 . S
H1030 C1006 0.950 . S
H1031 C1007 0.949 . S
H1032 C1009 0.950 . S
H1033 C1011 0.950 . S
C1034 C1035 1.349 . S
C1034 C1036 1.327 . S
C1034 H1059 0.950 . S
C1035 C1034 1.349 . S
C1035 C1051 1.349 . S
C1036 C1034 1.327 . S
C1036 C1055 1.429 . S
C1036 H1060 0.950 . S
C1037 C1054 1.574 . S
C1037 C1056 1.368 . S
C1037 H1061 0.949 . S
H1038 C1042 0.949 1_556 S
C1039 C1040 1.349 1_554 S
C1039 C1041 1.327 . S
C1039 H1062 0.950 . S
C1040 C1039 1.349 1_556 S
C1040 C1052 1.349 . S
C1041 C1039 1.327 . S
C1041 C1057 1.429 . S
C1041 H1063 0.950 . S
C1042 H1038 0.949 1_554 S
C1042 C1050 1.574 . S
C1042 C1058 1.368 . S
H1043 C1051 0.950 . S
H1044 C1049 0.950 . S
H1045 C1050 0.949 . S
H1046 C1052 0.950 . S
H1047 C1053 0.950 . S
H1048 C1054 0.949 . S
C1049 H1044 0.950 . S
C1049 C1051 1.327 . S
C1049 C1055 1.429 . S
C1050 C1042 1.574 . S
C1050 H1045 0.949 . S
C1050 C1056 1.368 . S
C1051 C1035 1.349 . S
C1051 H1043 0.950 . S
C1051 C1049 1.327 . S
C1052 C1040 1.349 . S
C1052 H1046 0.950 . S
C1052 C1053 1.327 . S
C1053 H1047 0.950 . S
C1053 C1052 1.327 . S
C1053 C1057 1.429 1_556 S
C1054 C1037 1.574 . S
C1054 H1048 0.949 . S
C1054 C1058 1.368 . S
C1055 C1036 1.429 . S
C1055 C1049 1.429 . S
C1055 C1056 1.523 . S
C1056 C1037 1.368 . S
C1056 C1050 1.368 . S
C1056 C1055 1.523 . S
C1057 C1041 1.429 . S
C1057 C1053 1.429 1_554 S
C1057 C1058 1.523 . S
C1058 C1042 1.368 . S
C1058 C1054 1.368 . S
C1058 C1057 1.523 . S
H1059 C1034 0.950 . S
H1060 C1036 0.950 . S
H1061 C1037 0.949 . S
H1062 C1039 0.950 . S
H1063 C1041 0.950 . S
C1064 C1065 1.349 . S
C1064 C1066 1.327 . S
C1064 H1089 0.950 . S
C1065 C1064 1.349 . S
C1065 C1081 1.349 . S
C1066 C1064 1.327 . S
C1066 C1085 1.429 . S
C1066 H1090 0.950 . S
C1067 C1084 1.574 . S
C1067 C1086 1.368 . S
C1067 H1091 0.949 . S
H1068 C1072 0.949 . S
C1069 C1070 1.349 . S
C1069 C1071 1.327 . S
C1069 H1092 0.950 . S
C1070 C1069 1.349 . S
C1070 C1082 1.349 . S
C1071 C1069 1.327 . S
C1071 C1087 1.429 . S
C1071 H1093 0.950 . S
C1072 H1068 0.949 . S
C1072 C1080 1.574 . S
C1072 C1088 1.368 . S
H1073 C1081 0.950 . S
H1074 C1079 0.950 . S
H1075 C1080 0.949 . S
H1076 C1082 0.950 . S
H1077 C1083 0.950 . S
H1078 C1084 0.949 . S
C1079 H1074 0.950 . S
C1079 C1081 1.327 . S
C1079 C1085 1.429 . S
C1080 C1072 1.574 . S
C1080 H1075 0.949 . S
C1080 C1086 1.368 . S
C1081 C1065 1.349 . S
C1081 H1073 0.950 . S
C1081 C1079 1.327 . S
C1082 C1070 1.349 . S
C1082 H1076 0.950 . S
C1082 C1083 1.327 . S
C1083 H1077 0.950 . S
C1083 C1082 1.327 . S
C1083 C1087 1.429 . S
C1084 C1067 1.574 . S
C1084 H1078 0.949 . S
C1084 C1088 1.368 . S
C1085 C1066 1.429 . S
C1085 C1079 1.429 . S
C1085 C1086 1.523 . S
C1086 C1067 1.368 . S
C1086 C1080 1.368 . S
C1086 C1085 1.523 . S
C1087 C1071 1.429 . S
C1087 C1083 1.429 . S
C1087 C1088 1.523 . S
C1088 C1072 1.368 . S
C1088 C1084 1.368 . S
C1088 C1087 1.523 . S
H1089 C1064 0.950 . S
H1090 C1066 0.950 . S
H1091 C1067 0.949 . S
H1092 C1069 0.950 . S
H1093 C1071 0.950 . S
C1094 C1095 1.349 . S
C1094 C1096 1.327 . S
C1094 H1119 0.950 . S
C1095 C1094 1.349 . S
C1095 C1111 1.349 . S
C1096 C1094 1.327 . S
C1096 C1115 1.429 . S
C1096 H1120 0.950 . S
C1097 C1114 1.574 . S
C1097 C1116 1.368 . S
C1097 H1121 0.949 . S
H1098 C1102 0.949 . S
C1099 C1100 1.349 . S
C1099 C1101 1.327 . S
C1099 H1122 0.950 . S
C1100 C1099 1.349 . S
C1100 C1112 1.349 . S
C1101 C1099 1.327 . S
C1101 C1117 1.429 . S
C1101 H1123 0.950 . S
C1102 H1098 0.949 . S
C1102 C1110 1.574 . S
C1102 C1118 1.368 . S
H1103 C1111 0.950 . S
H1104 C1109 0.950 . S
H1105 C1110 0.949 . S
H1106 C1112 0.950 . S
H1107 C1113 0.950 . S
H1108 C1114 0.949 . S
C1109 H1104 0.950 . S
C1109 C1111 1.327 . S
C1109 C1115 1.429 . S
C1110 C1102 1.574 . S
C1110 H1105 0.949 . S
C1110 C1116 1.368 . S
C1111 C1095 1.349 . S
C1111 H1103 0.950 . S
C1111 C1109 1.327 . S
C1112 C1100 1.349 . S
C1112 H1106 0.950 . S
C1112 C1113 1.327 . S
C1113 H1107 0.950 . S
C1113 C1112 1.327 . S
C1113 C1117 1.429 . S
C1114 C1097 1.574 . S
C1114 H1108 0.949 . S
C1114 C1118 1.368 . S
C1115 C1096 1.429 . S
C1115 C1109 1.429 . S
C1115 C1116 1.523 . S
C1116 C1097 1.368 . S
C1116 C1110 1.368 . S
C1116 C1115 1.523 . S
C1117 C1101 1.429 . S
C1117 C1113 1.429 . S
C1117 C1118 1.523 . S
C1118 C1102 1.368 . S
C1118 C1114 1.368 . S
C1118 C1117 1.523 . S
H1119 C1094 0.950 . S
H1120 C1096 0.950 . S
H1121 C1097 0.949 . S
H1122 C1099 0.950 . S
H1123 C1101 0.950 . S
C1124 C1125 1.349 . S
C1124 C1126 1.327 . S
C1124 H1149 0.950 . S
C1125 C1124 1.349 . S
C1125 C1141 1.349 . S
C1126 C1124 1.327 . S
C1126 C1145 1.429 . S
C1126 H1150 0.950 . S
C1127 C1144 1.574 . S
C1127 C1146 1.368 . S
C1127 H1151 0.949 . S
H1128 C1132 0.949 . S
C1129 C1130 1.349 . S
C1129 C1131 1.327 . S
C1129 H1152 0.950 . S
C1130 C1129 1.349 . S
C1130 C1142 1.349 . S
C1131 C1129 1.327 . S
C1131 C1147 1.429 . S
C1131 H1153 0.950 . S
C1132 H1128 0.949 . S
C1132 C1140 1.574 . S
C1132 C1148 1.368 . S
H1133 C1141 0.950 . S
H1134 C1139 0.950 . S
H1135 C1140 0.949 . S
H1136 C1142 0.950 . S
H1137 C1143 0.950 . S
H1138 C1144 0.949 . S
C1139 H1134 0.950 . S
C1139 C1141 1.327 . S
C1139 C1145 1.429 . S
C1140 C1132 1.574 . S
C1140 H1135 0.949 . S
C1140 C1146 1.368 . S
C1141 C1125 1.349 . S
C1141 H1133 0.950 . S
C1141 C1139 1.327 . S
C1142 C1130 1.349 . S
C1142 H1136 0.950 . S
C1142 C1143 1.327 . S
C1143 H1137 0.950 . S
C1143 C1142 1.327 . S
C1143 C1147 1.429 . S
C1144 C1127 1.574 . S
C1144 H1138 0.949 . S
C1144 C1148 1.368 . S
C1145 C1126 1.429 . S
C1145 C1139 1.429 . S
C1145 C1146 1.523 . S
C1146 C1127 1.368 . S
C1146 C1140 1.368 . S
C1146 C1145 1.523 . S
C1147 C1131 1.429 . S
C1147 C1143 1.429 . S
C1147 C1148 1.523 . S
C1148 C1132 1.368 . S
C1148 C1144 1.368 . S
C1148 C1147 1.523 . S
H1149 C1124 0.950 . S
H1150 C1126 0.950 . S
H1151 C1127 0.949 . S
H1152 C1129 0.950 . S
H1153 C1131 0.950 . S
C1154 C1155 1.349 . S
C1154 C1156 1.327 . S
C1154 H1179 0.950 . S
C1155 C1154 1.349 . S
C1155 C1171 1.349 . S
C1156 C1154 1.327 . S
C1156 C1175 1.429 . S
C1156 H1180 0.950 . S
C1157 C1174 1.574 . S
C1157 C1176 1.368 . S
C1157 H1181 0.949 . S
H1158 C1162 0.949 . S
C1159 C1160 1.349 . S
C1159 C1161 1.327 . S
C1159 H1182 0.950 . S
C1160 C1159 1.349 . S
C1160 C1172 1.349 . S
C1161 C1159 1.327 . S
C1161 C1177 1.429 . S
C1161 H1183 0.950 . S
C1162 H1158 0.949 . S
C1162 C1170 1.574 . S
C1162 C1178 1.368 . S
H1163 C1171 0.950 . S
H1164 C1169 0.950 . S
H1165 C1170 0.949 . S
H1166 C1172 0.950 . S
H1167 C1173 0.950 . S
H1168 C1174 0.949 . S
C1169 H1164 0.950 . S
C1169 C1171 1.327 . S
C1169 C1175 1.429 . S
C1170 C1162 1.574 . S
C1170 H1165 0.949 . S
C1170 C1176 1.368 . S
C1171 C1155 1.349 . S
C1171 H1163 0.950 . S
C1171 C1169 1.327 . S
C1172 C1160 1.349 . S
C1172 H1166 0.950 . S
C1172 C1173 1.327 . S
C1173 H1167 0.950 . S
C1173 C1172 1.327 . S
C1173 C1177 1.429 . S
C1174 C1157 1.574 . S
C1174 H1168 0.949 . S
C1174 C1178 1.368 . S
C1175 C1156 1.429 . S
C1175 C1169 1.429 . S
C1175 C1176 1.523 . S
C1176 C1157 1.368 . S
C1176 C1170 1.368 . S
C1176 C1175 1.523 . S
C1177 C1161 1.429 . S
C1177 C1173 1.429 . S
C1177 C1178 1.523 . S
C1178 C1162 1.368 . S
C1178 C1174 1.368 . S
C1178 C1177 1.523 . S
H1179 C1154 0.950 . S
H1180 C1156 0.950 . S
H1181 C1157 0.949 . S
H1182 C1159 0.950 . S
H1183 C1161 0.950 . S
C225 C154 1.554 . S
C230 C1 1.563 . S
C255 C27 1.563 . S
C260 C124 1.554 . S
C285 C41 1.563 . S
C290 C126 1.553 . S
C315 C140 1.554 . S
C320 C55 1.563 . S
C345 C69 1.563 . S
C350 C70 1.553 . S
C375 C83 1.563 . S
C380 C85 1.553 . S
C405 C98 1.553 . S
C410 C96 1.563 . S
C435 C56 1.554 . S
C440 C111 1.563 . S
C465 C42 1.553 . S
C470 C113 1.563 . S
C495 C139 1.563 . S
C500 C12 1.554 . S
C525 C14 1.554 . S
C530 C153 1.563 . S
C555 C167 1.563 . S
C560 C28 1.554 . S
C585 C180 1.563 . S
C590 C182 1.553 . S
C615 C195 1.563 . S
C620 C197 1.553 . S
C645 C210 1.554 . S
C650 C208 1.563 . S
C675 C169 1.554 . S
C680 C223 1.563 . S
C705 C68 1.385 . S
C710 C0 1.385 . S
C735 C26 1.385 . S
C740 C82 1.385 . S
C765 C40 1.385 . S
C770 C97 1.385 . S
C795 C110 1.385 . S
C800 C54 1.385 . S
C825 C112 1.385 . S
C830 C181 1.385 . S
C855 C194 1.385 . S
C860 C138 1.385 . S
C885 C152 1.385 . S
C890 C209 1.385 . S
C915 C222 1.385 . S
C920 C166 1.385 . S
C945 C196 1.751 . S
C950 C13 1.750 . S
C975 C211 1.751 . S
C980 C15 1.751 . S
C1005 C29 1.749 . S
C1010 C168 1.751 . S
C1035 C183 1.751 . S
C1040 C43 1.751 . S
C1065 C141 1.748 . S
C1070 C57 1.748 . S
C1095 C155 1.749 . S
C1100 C71 1.749 . S
C1125 C84 1.749 . S
C1130 C125 1.748 . S
C1155 C127 1.750 . S
C1160 C99 1.750 . S
