# Generated by pormake.
# Topology eci, (8)-cn, num edge types: 1
# Building blocks:
#     Node 0, Type 0, BuildingBlock: TAGTUT_clean_sbu_3, # of connection points: 8
#     Node 1, Type 0, BuildingBlock: TAGTUT_clean_sbu_3, # of connection points: 8
#     Node 2, Type 0, BuildingBlock: TAGTUT_clean_sbu_3, # of connection points: 8
#     Node 3, Type 0, BuildingBlock: TAGTUT_clean_sbu_3, # of connection points: 8
#     Edge 4, Type (0, 0), BuildingBlock: KIFKEQ_clean_linker_1, # of connection points: 2
#     Edge 5, Type (0, 0), BuildingBlock: KIFKEQ_clean_linker_1, # of connection points: 2
#     Edge 6, Type (0, 0), BuildingBlock: KIFKEQ_clean_linker_1, # of connection points: 2
#     Edge 7, Type (0, 0), BuildingBlock: KIFKEQ_clean_linker_1, # of connection points: 2
#     Edge 8, Type (0, 0), BuildingBlock: KIFKEQ_clean_linker_1, # of connection points: 2
#     Edge 9, Type (0, 0), BuildingBlock: KIFKEQ_clean_linker_1, # of connection points: 2
#     Edge 10, Type (0, 0), BuildingBlock: KIFKEQ_clean_linker_1, # of connection points: 2
#     Edge 11, Type (0, 0), BuildingBlock: KIFKEQ_clean_linker_1, # of connection points: 2
#     Edge 12, Type (0, 0), BuildingBlock: KIFKEQ_clean_linker_1, # of connection points: 2
#     Edge 13, Type (0, 0), BuildingBlock: KIFKEQ_clean_linker_1, # of connection points: 2
#     Edge 14, Type (0, 0), BuildingBlock: KIFKEQ_clean_linker_1, # of connection points: 2
#     Edge 15, Type (0, 0), BuildingBlock: KIFKEQ_clean_linker_1, # of connection points: 2
#     Edge 16, Type (0, 0), BuildingBlock: KIFKEQ_clean_linker_1, # of connection points: 2
#     Edge 17, Type (0, 0), BuildingBlock: KIFKEQ_clean_linker_1, # of connection points: 2
#     Edge 18, Type (0, 0), BuildingBlock: KIFKEQ_clean_linker_1, # of connection points: 2
#     Edge 19, Type (0, 0), BuildingBlock: KIFKEQ_clean_linker_1, # of connection points: 2
# Relax obj value: 0.304
# Max RMSD: 0.269
# Mean RMSD: 0.266
data_MOF--net-eci--node1-TAGTUT_clean_sbu_3--edge1-KIFKEQ_clean_linker_1
_symmetry_space_group_name_H-M    P1
_symmetry_Int_Tables_number       1
_symmetry_cell_setting            triclinic
loop_
_symmetry_equiv_pos_as_xyz
'x, y, z'
_cell_length_a     32.168927
_cell_length_b     32.30075
_cell_length_c     16.123854
_cell_angle_alpha  89.286451
_cell_angle_beta   89.567421
_cell_angle_gamma 89.677474
loop_
_atom_site_label
_atom_site_type_symbol
_atom_site_fract_x
_atom_site_fract_y
_atom_site_fract_z
_atom_type_partial_charge
C0 C 0.76228 0.885 0.03916 0.0
C1 C 0.66775 0.76064 -0.01705 0.0
C2 C 0.78253 0.68503 0.02739 0.0
Mg3 Mg 0.85667 0.8997 -0.00398 0.0
Mg4 Mg 0.90293 0.85561 0.84121 0.0
O5 O 0.87525 0.84701 0.943 0.0
Mg6 Mg 0.8217 0.81631 0.94446 0.0
O7 O 0.7662 0.78972 0.95358 0.0
Mg8 Mg 0.7578 0.78537 0.07737 0.0
Mg9 Mg 0.75144 0.74391 0.89187 0.0
C10 C 0.88843 0.75891 0.84021 0.0
O11 O 0.81073 0.82382 0.8034 0.0
O12 O 0.92608 0.91383 0.00047 0.0
O13 O 0.77425 0.76618 0.77384 0.0
O14 O 0.85392 0.93734 0.87659 0.0
O15 O 0.95844 0.88058 0.89554 0.0
O16 O 0.875 0.90345 0.76581 0.0
O17 O 0.82797 0.80378 0.08504 0.0
O18 O 0.85876 0.86326 0.11584 0.0
C19 C 0.84385 0.82824 0.1381 0.0
C20 C 0.95888 0.90363 0.95958 0.0
O21 O 0.86181 0.75901 0.90096 0.0
O22 O 0.68733 0.77271 0.04772 0.0
O23 O 0.90153 0.7921 0.8043 0.0
O24 O 0.77499 0.71419 0.07881 0.0
O25 O 0.68669 0.74788 0.91795 0.0
O26 O 0.77821 0.6906 0.94956 0.0
O27 O 0.7898 0.87696 -0.01622 0.0
O28 O 0.74386 0.85569 0.07872 0.0
C29 C 0.86032 0.93605 0.79882 0.0
C30 C 0.7945 0.79861 0.75157 0.0
C31 C 0.61729 0.25742 0.30805 0.0
C32 C 0.75157 0.18158 0.23946 0.0
C33 C 0.81559 0.29051 0.34206 0.0
Mg34 Mg 0.58705 0.34835 0.32564 0.0
Mg35 Mg 0.641 0.41316 0.17561 0.0
O36 O 0.64127 0.3802 0.28036 0.0
Mg37 Mg 0.6809 0.33134 0.26405 0.0
O38 O 0.7141 0.27941 0.25303 0.0
Mg39 Mg 0.71479 0.25624 0.36822 0.0
Mg40 Mg 0.76226 0.27423 0.19089 0.0
C41 C 0.73778 0.40668 0.1923 0.0
O42 O 0.67904 0.3344 0.12108 0.0
O43 O 0.62028 0.41216 0.31249 0.0
O44 O 0.7425 0.30942 0.08539 0.0
O45 O 0.55413 0.35979 0.2026 0.0
O46 O 0.61608 0.46768 0.2352 0.0
O47 O 0.59135 0.38892 0.0998 0.0
O48 O 0.68847 0.32249 0.40584 0.0
O49 O 0.62275 0.33796 0.4422 0.0
C50 C 0.66024 0.32888 0.46102 0.0
C51 C 0.6057 0.44924 0.30238 0.0
O52 O 0.73548 0.37815 0.24875 0.0
O53 O 0.73662 0.19222 0.3106 0.0
O54 O 0.70677 0.41712 0.14691 0.0
O55 O 0.78563 0.27625 0.38732 0.0
O56 O 0.76289 0.20833 0.18476 0.0
O57 O 0.81163 0.29542 0.26409 0.0
O58 O 0.6243 0.29289 0.27542 0.0
O59 O 0.64596 0.23739 0.34644 0.0
C60 C 0.55776 0.37247 0.12755 0.0
C61 C 0.70819 0.32768 0.06764 0.0
C62 C 0.16253 0.18019 0.30282 0.0
C63 C 0.08454 0.05423 0.39699 0.0
C64 C 0.06415 0.11619 0.62936 0.0
Mg65 Mg 0.21517 0.24807 0.39812 0.0
Mg66 Mg 0.26568 0.22471 0.56873 0.0
O67 O 0.21539 0.22399 0.51382 0.0
Mg68 Mg 0.18324 0.17223 0.49854 0.0
O69 O 0.14659 0.12442 0.47444 0.0
Mg70 Mg 0.09397 0.15428 0.44245 0.0
Mg71 Mg 0.13997 0.07847 0.54443 0.0
C72 C 0.2118 0.1702 0.69358 0.0
O73 O 0.23866 0.12476 0.50621 0.0
O74 O 0.23829 0.30872 0.45565 0.0
O75 O 0.20557 0.07005 0.56659 0.0
O76 O 0.28497 0.22855 0.3727 0.0
O77 O 0.26847 0.29089 0.57674 0.0
O78 O 0.31274 0.20187 0.48805 0.0
O79 O 0.12437 0.21235 0.4941 0.0
O80 O 0.14596 0.26788 0.4239 0.0
C81 C 0.11702 0.2479 0.46192 0.0
C82 C 0.25588 0.31815 0.52407 0.0
O83 O 0.18216 0.16435 0.64166 0.0
O84 O 0.07329 0.09231 0.39019 0.0
O85 O 0.24579 0.18857 0.67385 0.0
O86 O 0.06119 0.1382 0.56367 0.0
O87 O 0.1107 0.04151 0.45135 0.0
O88 O 0.09526 0.09217 0.64087 0.0
O89 O 0.19026 0.18387 0.35847 0.0
O90 O 0.12552 0.1693 0.32086 0.0
C91 C 0.31524 0.21102 0.4112 0.0
C92 C 0.23868 0.08869 0.54183 0.0
C93 C 0.3409 0.66596 0.55215 0.0
C94 C 0.45226 0.61709 0.72986 0.0
C95 C 0.37157 0.55809 0.88774 0.0
Mg96 Mg 0.26153 0.71442 0.6229 0.0
Mg97 Mg 0.25921 0.76045 0.80265 0.0
O98 O 0.27309 0.71301 0.74474 0.0
Mg99 Mg 0.32785 0.68331 0.74983 0.0
O100 O 0.38015 0.64692 0.74701 0.0
Mg101 Mg 0.35651 0.59213 0.68814 0.0
Mg102 Mg 0.40934 0.64523 0.85527 0.0
C103 C 0.30346 0.70645 0.94207 0.0
O104 O 0.36842 0.74007 0.78487 0.0
O105 O 0.19228 0.73076 0.65708 0.0
O106 O 0.4019 0.70898 0.89178 0.0
O107 O 0.28113 0.78449 0.61059 0.0
O108 O 0.19322 0.75777 0.78462 0.0
O109 O 0.28857 0.81015 0.73755 0.0
O110 O 0.29502 0.62527 0.72331 0.0
O111 O 0.24475 0.64567 0.63732 0.0
C112 C 0.26326 0.61732 0.6794 0.0
C113 C 0.17338 0.74418 0.72213 0.0
O114 O 0.31837 0.67936 0.89166 0.0
O115 O 0.41443 0.62942 0.71972 0.0
O116 O 0.28393 0.7392 0.91847 0.0
O117 O 0.36243 0.55668 0.81089 0.0
O118 O 0.46889 0.62737 0.79797 0.0
O119 O 0.38557 0.59101 0.9209 0.0
O120 O 0.33064 0.69245 0.60734 0.0
O121 O 0.35175 0.62908 0.57133 0.0
C122 C 0.29181 0.81376 0.65902 0.0
C123 C 0.39096 0.74151 0.8507 0.0
H124 H 0.81121 0.75995 0.21941 0.0
H125 H 0.86774 0.87909 0.26116 0.0
H126 H 0.80126 0.75122 0.36936 0.0
H127 H 0.85606 0.87137 0.40782 0.0
H128 H 0.86167 0.83389 0.67584 0.0
H129 H 0.87719 0.8362 0.52793 0.0
H130 H 0.75885 0.779 0.47789 0.0
H131 H 0.74439 0.77509 0.62618 0.0
C132 C 0.82159 0.78409 0.26028 0.0
C133 C 0.8401 0.82018 0.22815 0.0
C134 C 0.81562 0.77932 0.346 0.0
C135 C 0.82779 0.8107 0.40062 0.0
C136 C 0.84701 0.84623 0.3681 0.0
C137 C 0.85337 0.85075 0.28332 0.0
C138 C 0.83883 0.82237 0.63309 0.0
C139 C 0.80173 0.80472 0.6622 0.0
C140 C 0.84771 0.82347 0.54832 0.0
C141 C 0.81927 0.80765 0.49093 0.0
C142 C 0.78182 0.79063 0.52033 0.0
C143 C 0.77328 0.78893 0.60516 0.0
H144 H 0.72464 0.2926 0.54706 0.0
H145 H 0.62075 0.37734 0.5713 0.0
H146 H 0.73797 0.29915 0.6961 0.0
H147 H 0.6347 0.38472 0.71705 0.0
H148 H 0.7679 0.34402 0.95278 0.0
H149 H 0.75911 0.34889 0.80316 0.0
H150 H 0.62597 0.33913 0.83605 0.0
H151 H 0.63472 0.33485 -0.01418 0.0
C152 C 0.70508 0.31279 0.58391 0.0
C153 C 0.6712 0.33362 0.54836 0.0
C154 C 0.71276 0.3168 0.66866 0.0
C155 C 0.6869 0.34207 0.71788 0.0
C156 C 0.65441 0.3643 0.681 0.0
C157 C 0.64651 0.35997 0.59738 0.0
C158 C 0.7367 0.34354 0.92791 0.0
C159 C 0.70192 0.33856 -0.01967 0.0
C160 C 0.7318 0.34603 0.84248 0.0
C161 C 0.69204 0.34366 0.80829 0.0
C162 C 0.65704 0.34122 0.86103 0.0
C163 C 0.66194 0.3389 0.94665 0.0
H164 H 0.13959 0.14951 0.77629 0.0
H165 H 0.27119 0.16873 0.81204 0.0
H166 H 0.12935 0.14839 0.92654 0.0
H167 H 0.26069 0.17046 0.95988 0.0
H168 H 0.23337 0.15088 0.23214 0.0
H169 H 0.24497 0.13852 0.08498 0.0
H170 H 0.12827 0.19977 0.02895 0.0
H171 H 0.11584 0.20959 0.17645 0.0
C172 C 0.16633 0.1529 0.81603 0.0
C173 C 0.20597 0.1602 0.78229 0.0
C174 C 0.16045 0.15288 0.90202 0.0
C175 C 0.19404 0.16055 0.95527 0.0
C176 C 0.23407 0.16443 0.92124 0.0
C177 C 0.24001 0.1638 0.83593 0.0
C178 C 0.21075 0.16236 0.1879 0.0
C179 C 0.17393 0.1814 0.21489 0.0
C180 C 0.21714 0.15505 0.10367 0.0
C181 C 0.18721 0.16756 0.04501 0.0
C182 C 0.15133 0.18849 0.0724 0.0
C183 C 0.14457 0.19493 0.1566 0.0
H184 H 0.26133 0.74469 0.06612 0.0
H185 H 0.36201 0.65851 0.01932 0.0
H186 H 0.27366 0.73896 0.21414 0.0
H187 H 0.37498 0.65361 0.16788 0.0
H188 H 0.34222 0.61042 0.42834 0.0
H189 H 0.33605 0.62304 0.28184 0.0
H190 H 0.32371 0.7544 0.32487 0.0
H191 H 0.32913 0.74164 0.47488 0.0
C192 C 0.28629 0.72468 0.08747 0.0
C193 C 0.31046 0.70158 0.03138 0.0
C194 C 0.29359 0.72185 0.17215 0.0
C195 C 0.32527 0.69599 0.2022 0.0
C196 C 0.34999 0.67346 0.14609 0.0
C197 C 0.34247 0.67604 0.06128 0.0
C198 C 0.33843 0.64219 0.40729 0.0
C199 C 0.33635 0.67519 0.46332 0.0
C200 C 0.33525 0.64935 0.32289 0.0
C201 C 0.33012 0.68967 0.29206 0.0
C202 C 0.32768 0.72293 0.34755 0.0
C203 C 0.33073 0.71571 0.43299 0.0
H204 H 0.43644 0.78973 0.74575 0.0
H205 H 0.40262 0.77383 0.00323 0.0
H206 H 0.50645 0.80891 0.78619 0.0
H207 H 0.4728 0.79198 0.04388 0.0
H208 H 0.61609 0.81053 0.07689 0.0
H209 H 0.54357 0.82938 0.04578 0.0
H210 H 0.54556 0.74546 0.83946 0.0
H211 H 0.61654 0.72638 0.87045 0.0
C212 C 0.44297 0.79326 0.81111 0.0
C213 C 0.41484 0.77863 0.8713 0.0
C214 C 0.48339 0.80349 0.83438 0.0
C215 C 0.4955 0.79972 0.91794 0.0
C216 C 0.46462 0.79436 0.97894 0.0
C217 C 0.42417 0.78439 0.95556 0.0
C218 C 0.60068 0.79569 0.0258 0.0
C219 C 0.62222 0.76703 0.97599 0.0
C220 C 0.55947 0.80697 0.0073 0.0
C221 C 0.53951 0.79018 0.93815 0.0
C222 C 0.56061 0.76034 0.89098 0.0
C223 C 0.60121 0.74885 0.90974 0.0
H224 H 0.75192 0.15246 0.08277 0.0
H225 H 0.75117 0.11065 0.33827 0.0
H226 H 0.75094 0.08181 0.03671 0.0
H227 H 0.75245 0.03858 0.29155 0.0
H228 H 0.7191 0.91324 0.17582 0.0
H229 H 0.71535 0.98403 0.22717 0.0
H230 H 0.79325 0.02477 0.02259 0.0
H231 H 0.79426 0.95528 0.96905 0.0
C232 C 0.75232 0.12806 0.12947 0.0
C233 C 0.75225 0.1374 0.21446 0.0
C234 C 0.75196 0.08722 0.10279 0.0
C235 C 0.75238 0.05406 0.16003 0.0
C236 C 0.75186 0.06322 0.24544 0.0
C237 C 0.75147 0.10451 0.27239 0.0
C238 C 0.73493 0.93749 0.14125 0.0
C239 C 0.7573 0.92835 0.06823 0.0
C240 C 0.73323 0.97808 0.17139 0.0
C241 C 0.75402 0.01048 0.12945 0.0
C242 C 0.77614 0.00111 0.05628 0.0
C243 C 0.77728 0.96088 0.02577 0.0
H244 H 0.37503 0.15233 0.43832 0.0
H245 H 0.34999 0.26444 0.29903 0.0
H246 H 0.44832 0.15666 0.40022 0.0
H247 H 0.42339 0.27068 0.26529 0.0
H248 H 0.55726 0.27142 0.1933 0.0
H249 H 0.48425 0.25251 0.20085 0.0
H250 H 0.50553 0.19359 0.43949 0.0
H251 H 0.57902 0.21052 0.42869 0.0
C252 C 0.38519 0.17754 0.39824 0.0
C253 C 0.3568 0.20803 0.37161 0.0
C254 C 0.42739 0.18048 0.3774 0.0
C255 C 0.44249 0.2146 0.33121 0.0
C256 C 0.41339 0.24365 0.30021 0.0
C257 C 0.37102 0.24013 0.31948 0.0
C258 C 0.54628 0.25397 0.24687 0.0
C259 C 0.57379 0.24263 0.31063 0.0
C260 C 0.50425 0.24331 0.25159 0.0
C261 C 0.4883 0.22174 0.3212 0.0
C262 C 0.51633 0.20947 0.38399 0.0
C263 C 0.55861 0.21941 0.3783 0.0
H264 H 0.3441 0.86904 0.72933 0.0
H265 H 0.26969 0.8502 0.51163 0.0
H266 H 0.35473 0.94107 0.6883 0.0
H267 H 0.27844 0.92264 0.47231 0.0
H268 H 0.27724 0.06467 0.68175 0.0
H269 H 0.30847 0.99682 0.69841 0.0
H270 H 0.31365 0.98404 0.43184 0.0
H271 H 0.28106 0.05221 0.41627 0.0
C272 C 0.33052 0.88021 0.67192 0.0
C273 C 0.30531 0.85426 0.62455 0.0
C274 C 0.33652 0.92157 0.64844 0.0
C275 C 0.3167 0.93824 0.57797 0.0
C276 C 0.29453 0.91114 0.5267 0.0
C277 C 0.28917 0.8695 0.54948 0.0
C278 C 0.28752 0.04846 0.62674 0.0
C279 C 0.27668 0.06353 0.54789 0.0
C280 C 0.30521 0.00913 0.63605 0.0
C281 C 0.31243 0.98407 0.56641 0.0
C282 C 0.30741 0.00195 0.48692 0.0
C283 C 0.28961 0.04145 0.47777 0.0
H284 H 0.93376 0.71414 0.95052 0.0
H285 H 0.90686 0.72618 0.69007 0.0
H286 H 0.00636 0.69975 0.91733 0.0
H287 H 0.97944 0.71307 0.65639 0.0
H288 H 0.12266 0.77401 0.84413 0.0
H289 H 0.05077 0.75666 0.87252 0.0
H290 H 0.04824 0.68103 0.65359 0.0
H291 H 0.12084 0.69886 0.62431 0.0
C292 C 0.94266 0.71087 0.88596 0.0
C293 C 0.91502 0.72273 0.82299 0.0
C294 C 0.98463 0.7038 0.86684 0.0
C295 C 0.99913 0.70766 0.7844 0.0
C296 C 0.96966 0.7107 0.72067 0.0
C297 C 0.92769 0.7175 0.73997 0.0
C298 C 0.10691 0.75385 0.80149 0.0
C299 C 0.12775 0.73801 0.73169 0.0
C300 C 0.06571 0.74324 0.81868 0.0
C301 C 0.04389 0.7164 0.76673 0.0
C302 C 0.0642 0.70145 0.69539 0.0
C303 C 0.10571 0.71204 0.67816 0.0
H304 H 0.75257 0.4642 0.30656 0.0
H305 H 0.79549 0.41935 0.07051 0.0
H306 H 0.77784 0.53275 0.27184 0.0
H307 H 0.82477 0.48707 0.03771 0.0
H308 H 0.78313 0.61375 0.93932 0.0
H309 H 0.79073 0.54385 -0.01019 0.0
H310 H 0.81666 0.58926 0.23544 0.0
H311 H 0.80626 0.66013 0.18464 0.0
C312 C 0.77021 0.46838 0.24956 0.0
C313 C 0.77198 0.4366 0.1911 0.0
C314 C 0.78457 0.50806 0.22898 0.0
C315 C 0.80189 0.51643 0.15001 0.0
C316 C 0.80978 0.48259 0.09744 0.0
C317 C 0.79408 0.44329 0.11697 0.0
C318 C 0.79097 0.60907 0.004 0.0
C319 C 0.79337 0.64273 0.05809 0.0
C320 C 0.79594 0.56853 0.03319 0.0
C321 C 0.80431 0.56012 0.1174 0.0
C322 C 0.80938 0.59408 0.17062 0.0
C323 C 0.80361 0.63487 0.14147 0.0
H324 H 0.84537 0.27098 0.49863 0.0
H325 H 0.88273 0.32351 0.2621 0.0
H326 H 0.91803 0.26982 0.54189 0.0
H327 H 0.95449 0.31981 0.3022 0.0
H328 H 0.08511 0.31791 0.38492 0.0
H329 H 0.01228 0.33829 0.37311 0.0
H330 H 0.97678 0.23091 0.51969 0.0
H331 H 0.04917 0.21317 0.53696 0.0
C332 C 0.86889 0.28276 0.45627 0.0
C333 C 0.858 0.29672 0.37642 0.0
C334 C 0.9108 0.28161 0.48053 0.0
C335 C 0.94285 0.29389 0.42514 0.0
C336 C 0.93132 0.31037 0.34749 0.0
C337 C 0.8897 0.3121 0.32393 0.0
C338 C 0.06173 0.29905 0.41555 0.0
C339 C 0.07314 0.26307 0.45986 0.0
C340 C 0.01972 0.31051 0.40825 0.0
C341 C 0.9879 0.28589 0.44387 0.0
C342 C 0.99977 0.25109 0.49157 0.0
C343 C 0.04165 0.24026 0.50017 0.0
H344 H 0.26095 0.38612 0.42208 0.0
H345 H 0.25128 0.3485 0.67944 0.0
H346 H 0.25835 0.45861 0.46276 0.0
H347 H 0.24582 0.4203 0.71994 0.0
H348 H 0.22025 0.58468 0.54936 0.0
H349 H 0.21545 0.51171 0.51366 0.0
H350 H 0.28466 0.47903 0.73446 0.0
H351 H 0.2858 0.55103 0.77315 0.0
C352 C 0.25819 0.39346 0.48727 0.0
C353 C 0.25697 0.36189 0.54772 0.0
C354 C 0.25611 0.43491 0.51063 0.0
C355 C 0.25176 0.44544 0.59474 0.0
C356 C 0.25012 0.41356 0.65483 0.0
C357 C 0.25324 0.37231 0.63165 0.0
C358 C 0.23349 0.56169 0.59107 0.0
C359 C 0.25433 0.57353 0.6631 0.0
C360 C 0.23135 0.51993 0.57001 0.0
C361 C 0.25038 0.48941 0.62022 0.0
C362 C 0.26937 0.50139 0.69431 0.0
C363 C 0.27069 0.54285 0.71601 0.0
H364 H 0.02183 0.06624 0.28759 0.0
H365 H 0.11902 0.97938 0.35541 0.0
H366 H 0.00745 0.0264 0.16507 0.0
H367 H 0.10449 0.9393 0.23112 0.0
H368 H 0.00365 0.86274 0.07391 0.0
H369 H 0.04534 0.89725 0.17773 0.0
H370 H 0.04151 0.00997 0.03065 0.0
H371 H 0.9986 0.97546 0.92832 0.0
C372 C 0.04003 0.0385 0.27654 0.0
C373 C 0.07162 0.02604 0.33108 0.0
C374 C 0.03227 0.01605 0.20551 0.0
C375 C 0.05589 0.98059 0.18722 0.0
C376 C 0.08633 0.96694 0.24331 0.0
C377 C 0.09422 0.98957 0.31479 0.0
C378 C 0.01388 0.89417 0.06178 0.0
C379 C 0.99817 0.91676 -0.00592 0.0
C380 C 0.03756 0.91399 0.12128 0.0
C381 C 0.04545 0.95653 0.11315 0.0
C382 C 0.03493 0.97731 0.03896 0.0
C383 C 0.01095 0.95756 0.97992 0.0
H384 H 0.59106 0.42428 0.46269 0.0
H385 H 0.5615 0.52088 0.28489 0.0
H386 H 0.55217 0.46166 0.56989 0.0
H387 H 0.52272 0.55795 0.39127 0.0
H388 H 0.52572 0.57419 0.74864 0.0
H389 H 0.56021 0.52972 0.64669 0.0
H390 H 0.45856 0.55021 0.47745 0.0
H391 H 0.42446 0.5945 0.57842 0.0
C392 C 0.57591 0.45323 0.44637 0.0
C393 C 0.57933 0.46967 0.36548 0.0
C394 C 0.55392 0.47473 0.50778 0.0
C395 C 0.53444 0.51275 0.48899 0.0
C396 C 0.53704 0.52855 0.4075 0.0
C397 C 0.55939 0.50737 0.34659 0.0
C398 C 0.51064 0.56887 0.68992 0.0
C399 C 0.47237 0.58798 0.67151 0.0
C400 C 0.53025 0.54325 0.63179 0.0
C401 C 0.51216 0.53666 0.55391 0.0
C402 C 0.47348 0.55503 0.53653 0.0
C403 C 0.45382 0.58026 0.59468 0.0
H404 H 0.98844 0.15348 0.6059 0.0
H405 H 0.0515 0.06277 0.76048 0.0
H406 H 0.92196 0.12121 0.63954 0.0
H407 H 0.98459 0.0318 0.79566 0.0
H408 H 0.89302 0.951 0.64388 0.0
H409 H 0.93424 0.01227 0.61217 0.0
H410 H 0.88303 0.07346 0.82605 0.0
H411 H 0.84038 0.013 0.8569 0.0
C412 C 0.98811 0.12792 0.65005 0.0
C413 C 0.02554 0.10968 0.67819 0.0
C414 C 0.94992 0.10958 0.66895 0.0
C415 C 0.94874 0.07383 0.71849 0.0
C416 C 0.98522 0.05936 0.75664 0.0
C417 C 0.02346 0.07723 0.7368 0.0
C418 C 0.88848 0.97827 0.68143 0.0
C419 C 0.865 0.97636 0.75518 0.0
C420 C 0.91231 0.01326 0.66347 0.0
C421 C 0.91236 0.04664 0.71835 0.0
C422 C 0.88358 0.04771 0.78361 0.0
C423 C 0.85917 0.013 0.80084 0.0
H424 H 0.54887 0.39927 0.96629 0.0
H425 H 0.47826 0.35889 0.18178 0.0
H426 H 0.48615 0.43131 0.90956 0.0
H427 H 0.41647 0.3926 0.12612 0.0
H428 H 0.36372 0.48058 0.82387 0.0
H429 H 0.39856 0.41875 0.87677 0.0
H430 H 0.42521 0.48148 0.10457 0.0
H431 H 0.39207 0.54436 0.05089 0.0
C432 C 0.51983 0.39583 9e-05 0.0
C433 C 0.51896 0.37763 0.07963 0.0
C434 C 0.48392 0.41412 0.96756 0.0
C435 C 0.44694 0.41479 0.0145 0.0
C436 C 0.44478 0.3925 0.08927 0.0
C437 C 0.48034 0.3733 0.12088 0.0
C438 C 0.37562 0.481 0.88653 0.0
C439 C 0.37637 0.51798 0.93221 0.0
C440 C 0.3955 0.44542 0.91651 0.0
C441 C 0.41485 0.44581 -0.00615 0.0
C442 C 0.41035 0.48065 0.04452 0.0
C443 C 0.3914 0.51666 0.01376 0.0
loop_
_geom_bond_atom_site_label_1
_geom_bond_atom_site_label_2
_geom_bond_distance
_geom_bond_site_symmetry_2
_ccdc_geom_bond_type
C0 O27 1.312 . S
C0 O28 1.208 . S
C1 O22 1.331 . S
C1 O25 1.244 . S
C2 O24 1.264 . S
C2 O26 1.273 1_554 S
Mg3 O5 1.936 . S
Mg3 O12 2.081 . S
Mg3 O14 2.023 1_554 S
Mg3 O18 2.031 . S
Mg3 O27 2.291 . S
Mg4 O5 1.963 1_556 S
Mg4 O15 1.942 1_556 S
Mg4 O16 1.955 . S
Mg4 O23 1.986 . S
O5 Mg3 1.936 . S
O5 Mg4 1.963 1_554 S
O5 Mg6 1.915 1_554 S
Mg6 O5 1.915 1_556 S
Mg6 O7 1.915 . S
Mg6 O11 2.013 . S
Mg6 O17 2.114 1_556 S
Mg6 O21 2.013 . S
Mg6 O27 2.114 1_556 S
O7 Mg6 1.915 . S
O7 Mg8 1.936 1_556 S
O7 Mg9 1.963 . S
Mg8 O7 1.936 1_554 S
Mg8 O17 2.291 . S
Mg8 O22 2.081 1_554 S
Mg8 O24 2.023 . S
Mg8 O28 2.031 . S
Mg9 O7 1.963 . S
Mg9 O13 1.986 . S
Mg9 O25 1.942 . S
Mg9 O26 1.955 . S
C10 O21 1.191 . S
C10 O23 1.307 . S
O11 Mg6 2.013 . S
O11 C30 1.191 . S
O12 Mg3 2.081 . S
O12 C20 1.331 . S
O13 Mg9 1.986 . S
O13 C30 1.307 . S
O14 Mg3 2.023 1_556 S
O14 C29 1.264 . S
O15 Mg4 1.942 1_554 S
O15 C20 1.244 . S
O16 Mg4 1.955 . S
O16 C29 1.273 . S
O17 Mg6 2.114 1_554 S
O17 Mg8 2.291 . S
O17 C19 1.312 . S
O18 Mg3 2.031 . S
O18 C19 1.208 . S
C19 O17 1.312 . S
C19 O18 1.208 . S
C20 O12 1.331 . S
C20 O15 1.244 . S
O21 Mg6 2.013 . S
O21 C10 1.191 . S
O22 C1 1.331 . S
O22 Mg8 2.081 1_556 S
O23 Mg4 1.986 . S
O23 C10 1.307 . S
O24 C2 1.264 . S
O24 Mg8 2.023 . S
O25 C1 1.244 . S
O25 Mg9 1.942 . S
O26 C2 1.273 1_556 S
O26 Mg9 1.955 . S
O27 C0 1.312 . S
O27 Mg3 2.291 . S
O27 Mg6 2.114 1_554 S
O28 C0 1.208 . S
O28 Mg8 2.031 . S
C29 O14 1.264 . S
C29 O16 1.273 . S
C30 O11 1.191 . S
C30 O13 1.307 . S
C31 O58 1.312 . S
C31 O59 1.208 . S
C32 O53 1.331 . S
C32 O56 1.244 . S
C33 O55 1.264 . S
C33 O57 1.273 . S
Mg34 O36 1.936 . S
Mg34 O43 2.081 . S
Mg34 O45 2.023 . S
Mg34 O49 2.031 . S
Mg34 O58 2.291 . S
Mg35 O36 1.963 . S
Mg35 O46 1.942 . S
Mg35 O47 1.955 . S
Mg35 O54 1.986 . S
O36 Mg34 1.936 . S
O36 Mg35 1.963 . S
O36 Mg37 1.915 . S
Mg37 O36 1.915 . S
Mg37 O38 1.915 . S
Mg37 O42 2.013 . S
Mg37 O48 2.114 . S
Mg37 O52 2.013 . S
Mg37 O58 2.114 . S
O38 Mg37 1.915 . S
O38 Mg39 1.936 . S
O38 Mg40 1.963 . S
Mg39 O38 1.936 . S
Mg39 O48 2.291 . S
Mg39 O53 2.081 . S
Mg39 O55 2.023 . S
Mg39 O59 2.031 . S
Mg40 O38 1.963 . S
Mg40 O44 1.986 . S
Mg40 O56 1.942 . S
Mg40 O57 1.955 . S
C41 O52 1.191 . S
C41 O54 1.307 . S
O42 Mg37 2.013 . S
O42 C61 1.191 . S
O43 Mg34 2.081 . S
O43 C51 1.331 . S
O44 Mg40 1.986 . S
O44 C61 1.307 . S
O45 Mg34 2.023 . S
O45 C60 1.264 . S
O46 Mg35 1.942 . S
O46 C51 1.244 . S
O47 Mg35 1.955 . S
O47 C60 1.273 . S
O48 Mg37 2.114 . S
O48 Mg39 2.291 . S
O48 C50 1.312 . S
O49 Mg34 2.031 . S
O49 C50 1.208 . S
C50 O48 1.312 . S
C50 O49 1.208 . S
C51 O43 1.331 . S
C51 O46 1.244 . S
O52 Mg37 2.013 . S
O52 C41 1.191 . S
O53 C32 1.331 . S
O53 Mg39 2.081 . S
O54 Mg35 1.986 . S
O54 C41 1.307 . S
O55 C33 1.264 . S
O55 Mg39 2.023 . S
O56 C32 1.244 . S
O56 Mg40 1.942 . S
O57 C33 1.273 . S
O57 Mg40 1.955 . S
O58 C31 1.312 . S
O58 Mg34 2.291 . S
O58 Mg37 2.114 . S
O59 C31 1.208 . S
O59 Mg39 2.031 . S
C60 O45 1.264 . S
C60 O47 1.273 . S
C61 O42 1.191 . S
C61 O44 1.307 . S
C62 O89 1.312 . S
C62 O90 1.208 . S
C63 O84 1.331 . S
C63 O87 1.244 . S
C64 O86 1.264 . S
C64 O88 1.273 . S
Mg65 O67 1.936 . S
Mg65 O74 2.081 . S
Mg65 O76 2.023 . S
Mg65 O80 2.031 . S
Mg65 O89 2.291 . S
Mg66 O67 1.963 . S
Mg66 O77 1.942 . S
Mg66 O78 1.955 . S
Mg66 O85 1.986 . S
O67 Mg65 1.936 . S
O67 Mg66 1.963 . S
O67 Mg68 1.915 . S
Mg68 O67 1.915 . S
Mg68 O69 1.915 . S
Mg68 O73 2.013 . S
Mg68 O79 2.114 . S
Mg68 O83 2.013 . S
Mg68 O89 2.114 . S
O69 Mg68 1.915 . S
O69 Mg70 1.936 . S
O69 Mg71 1.963 . S
Mg70 O69 1.936 . S
Mg70 O79 2.291 . S
Mg70 O84 2.081 . S
Mg70 O86 2.023 . S
Mg70 O90 2.031 . S
Mg71 O69 1.963 . S
Mg71 O75 1.986 . S
Mg71 O87 1.942 . S
Mg71 O88 1.955 . S
C72 O83 1.191 . S
C72 O85 1.307 . S
O73 Mg68 2.013 . S
O73 C92 1.191 . S
O74 Mg65 2.081 . S
O74 C82 1.331 . S
O75 Mg71 1.986 . S
O75 C92 1.307 . S
O76 Mg65 2.023 . S
O76 C91 1.264 . S
O77 Mg66 1.942 . S
O77 C82 1.244 . S
O78 Mg66 1.955 . S
O78 C91 1.273 . S
O79 Mg68 2.114 . S
O79 Mg70 2.291 . S
O79 C81 1.312 . S
O80 Mg65 2.031 . S
O80 C81 1.208 . S
C81 O79 1.312 . S
C81 O80 1.208 . S
C82 O74 1.331 . S
C82 O77 1.244 . S
O83 Mg68 2.013 . S
O83 C72 1.191 . S
O84 C63 1.331 . S
O84 Mg70 2.081 . S
O85 Mg66 1.986 . S
O85 C72 1.307 . S
O86 C64 1.264 . S
O86 Mg70 2.023 . S
O87 C63 1.244 . S
O87 Mg71 1.942 . S
O88 C64 1.273 . S
O88 Mg71 1.955 . S
O89 C62 1.312 . S
O89 Mg65 2.291 . S
O89 Mg68 2.114 . S
O90 C62 1.208 . S
O90 Mg70 2.031 . S
C91 O76 1.264 . S
C91 O78 1.273 . S
C92 O73 1.191 . S
C92 O75 1.307 . S
C93 O120 1.312 . S
C93 O121 1.208 . S
C94 O115 1.331 . S
C94 O118 1.244 . S
C95 O117 1.264 . S
C95 O119 1.273 . S
Mg96 O98 1.936 . S
Mg96 O105 2.081 . S
Mg96 O107 2.023 . S
Mg96 O111 2.031 . S
Mg96 O120 2.291 . S
Mg97 O98 1.963 . S
Mg97 O108 1.942 . S
Mg97 O109 1.955 . S
Mg97 O116 1.986 . S
O98 Mg96 1.936 . S
O98 Mg97 1.963 . S
O98 Mg99 1.915 . S
Mg99 O98 1.915 . S
Mg99 O100 1.915 . S
Mg99 O104 2.013 . S
Mg99 O110 2.114 . S
Mg99 O114 2.013 . S
Mg99 O120 2.114 . S
O100 Mg99 1.915 . S
O100 Mg101 1.936 . S
O100 Mg102 1.963 . S
Mg101 O100 1.936 . S
Mg101 O110 2.291 . S
Mg101 O115 2.081 . S
Mg101 O117 2.023 . S
Mg101 O121 2.031 . S
Mg102 O100 1.963 . S
Mg102 O106 1.986 . S
Mg102 O118 1.942 . S
Mg102 O119 1.955 . S
C103 O114 1.191 . S
C103 O116 1.307 . S
O104 Mg99 2.013 . S
O104 C123 1.191 . S
O105 Mg96 2.081 . S
O105 C113 1.331 . S
O106 Mg102 1.986 . S
O106 C123 1.307 . S
O107 Mg96 2.023 . S
O107 C122 1.264 . S
O108 Mg97 1.942 . S
O108 C113 1.244 . S
O109 Mg97 1.955 . S
O109 C122 1.273 . S
O110 Mg99 2.114 . S
O110 Mg101 2.291 . S
O110 C112 1.312 . S
O111 Mg96 2.031 . S
O111 C112 1.208 . S
C112 O110 1.312 . S
C112 O111 1.208 . S
C113 O105 1.331 . S
C113 O108 1.244 . S
O114 Mg99 2.013 . S
O114 C103 1.191 . S
O115 C94 1.331 . S
O115 Mg101 2.081 . S
O116 Mg97 1.986 . S
O116 C103 1.307 . S
O117 C95 1.264 . S
O117 Mg101 2.023 . S
O118 C94 1.244 . S
O118 Mg102 1.942 . S
O119 C95 1.273 . S
O119 Mg102 1.955 . S
O120 C93 1.312 . S
O120 Mg96 2.291 . S
O120 Mg99 2.114 . S
O121 C93 1.208 . S
O121 Mg101 2.031 . S
C122 O107 1.264 . S
C122 O109 1.273 . S
C123 O104 1.191 . S
C123 O106 1.307 . S
H124 C132 0.950 . S
H125 C137 0.950 . S
H126 C134 0.950 . S
H127 C136 0.950 . S
H128 C138 0.950 . S
H129 C140 0.950 . S
H130 C142 0.950 . S
H131 C143 0.950 . S
C132 H124 0.950 . S
C132 C133 1.386 . S
C132 C134 1.391 . S
C133 C132 1.386 . S
C133 C137 1.393 . S
C134 H126 0.950 . S
C134 C132 1.391 . S
C134 C135 1.400 . S
C135 C134 1.400 . S
C135 C136 1.398 . S
C135 C141 1.491 . S
C136 H127 0.950 . S
C136 C135 1.398 . S
C136 C137 1.391 . S
C137 H125 0.950 . S
C137 C133 1.393 . S
C137 C136 1.391 . S
C138 H128 0.950 . S
C138 C139 1.386 . S
C138 C140 1.391 . S
C139 C138 1.386 . S
C139 C143 1.393 . S
C140 H129 0.950 . S
C140 C138 1.391 . S
C140 C141 1.400 . S
C141 C135 1.491 . S
C141 C140 1.400 . S
C141 C142 1.398 . S
C142 H130 0.950 . S
C142 C141 1.398 . S
C142 C143 1.391 . S
C143 H131 0.950 . S
C143 C139 1.393 . S
C143 C142 1.391 . S
H144 C152 0.950 . S
H145 C157 0.950 . S
H146 C154 0.950 . S
H147 C156 0.950 . S
H148 C158 0.950 . S
H149 C160 0.950 . S
H150 C162 0.950 . S
H151 C163 0.950 . S
C152 H144 0.950 . S
C152 C153 1.386 . S
C152 C154 1.391 . S
C153 C152 1.386 . S
C153 C157 1.393 . S
C154 H146 0.950 . S
C154 C152 1.391 . S
C154 C155 1.400 . S
C155 C154 1.400 . S
C155 C156 1.398 . S
C155 C161 1.491 . S
C156 H147 0.950 . S
C156 C155 1.398 . S
C156 C157 1.391 . S
C157 H145 0.950 . S
C157 C153 1.393 . S
C157 C156 1.391 . S
C158 H148 0.950 . S
C158 C159 1.386 . S
C158 C160 1.391 . S
C159 C158 1.386 . S
C159 C163 1.393 . S
C160 H149 0.950 . S
C160 C158 1.391 . S
C160 C161 1.400 . S
C161 C155 1.491 . S
C161 C160 1.400 . S
C161 C162 1.398 . S
C162 H150 0.950 . S
C162 C161 1.398 . S
C162 C163 1.391 . S
C163 H151 0.950 . S
C163 C159 1.393 . S
C163 C162 1.391 . S
H164 C172 0.950 . S
H165 C177 0.950 . S
H166 C174 0.950 . S
H167 C176 0.950 . S
H168 C178 0.950 . S
H169 C180 0.950 . S
H170 C182 0.950 . S
H171 C183 0.950 . S
C172 H164 0.950 . S
C172 C173 1.386 . S
C172 C174 1.391 . S
C173 C172 1.386 . S
C173 C177 1.393 . S
C174 H166 0.950 . S
C174 C172 1.391 . S
C174 C175 1.400 . S
C175 C174 1.400 . S
C175 C176 1.398 . S
C175 C181 1.491 1_556 S
C176 H167 0.950 . S
C176 C175 1.398 . S
C176 C177 1.391 . S
C177 H165 0.950 . S
C177 C173 1.393 . S
C177 C176 1.391 . S
C178 H168 0.950 . S
C178 C179 1.386 . S
C178 C180 1.391 . S
C179 C178 1.386 . S
C179 C183 1.393 . S
C180 H169 0.950 . S
C180 C178 1.391 . S
C180 C181 1.400 . S
C181 C175 1.491 1_554 S
C181 C180 1.400 . S
C181 C182 1.398 . S
C182 H170 0.950 . S
C182 C181 1.398 . S
C182 C183 1.391 . S
C183 H171 0.950 . S
C183 C179 1.393 . S
C183 C182 1.391 . S
H184 C192 0.950 . S
H185 C197 0.950 . S
H186 C194 0.950 . S
H187 C196 0.950 . S
H188 C198 0.950 . S
H189 C200 0.950 . S
H190 C202 0.950 . S
H191 C203 0.950 . S
C192 H184 0.950 . S
C192 C193 1.386 . S
C192 C194 1.391 . S
C193 C192 1.386 . S
C193 C197 1.393 . S
C194 H186 0.950 . S
C194 C192 1.391 . S
C194 C195 1.400 . S
C195 C194 1.400 . S
C195 C196 1.398 . S
C195 C201 1.491 . S
C196 H187 0.950 . S
C196 C195 1.398 . S
C196 C197 1.391 . S
C197 H185 0.950 . S
C197 C193 1.393 . S
C197 C196 1.391 . S
C198 H188 0.950 . S
C198 C199 1.386 . S
C198 C200 1.391 . S
C199 C198 1.386 . S
C199 C203 1.393 . S
C200 H189 0.950 . S
C200 C198 1.391 . S
C200 C201 1.400 . S
C201 C195 1.491 . S
C201 C200 1.400 . S
C201 C202 1.398 . S
C202 H190 0.950 . S
C202 C201 1.398 . S
C202 C203 1.391 . S
C203 H191 0.950 . S
C203 C199 1.393 . S
C203 C202 1.391 . S
H204 C212 0.950 . S
H205 C217 0.950 . S
H206 C214 0.950 . S
H207 C216 0.950 . S
H208 C218 0.950 . S
H209 C220 0.950 . S
H210 C222 0.950 . S
H211 C223 0.950 . S
C212 H204 0.950 . S
C212 C213 1.386 . S
C212 C214 1.391 . S
C213 C212 1.386 . S
C213 C217 1.393 . S
C214 H206 0.950 . S
C214 C212 1.391 . S
C214 C215 1.400 . S
C215 C214 1.400 . S
C215 C216 1.398 . S
C215 C221 1.491 . S
C216 H207 0.950 . S
C216 C215 1.398 . S
C216 C217 1.391 . S
C217 H205 0.950 . S
C217 C213 1.393 . S
C217 C216 1.391 . S
C218 H208 0.950 . S
C218 C219 1.386 . S
C218 C220 1.391 . S
C219 C218 1.386 . S
C219 C223 1.393 . S
C220 H209 0.950 . S
C220 C218 1.391 . S
C220 C221 1.400 . S
C221 C215 1.491 . S
C221 C220 1.400 . S
C221 C222 1.398 . S
C222 H210 0.950 . S
C222 C221 1.398 . S
C222 C223 1.391 . S
C223 H211 0.950 . S
C223 C219 1.393 . S
C223 C222 1.391 . S
H224 C232 0.950 . S
H225 C237 0.950 . S
H226 C234 0.950 . S
H227 C236 0.950 . S
H228 C238 0.950 . S
H229 C240 0.950 . S
H230 C242 0.950 1_556 S
H231 C243 0.950 . S
C232 H224 0.950 . S
C232 C233 1.386 . S
C232 C234 1.391 . S
C233 C232 1.386 . S
C233 C237 1.393 . S
C234 H226 0.950 . S
C234 C232 1.391 . S
C234 C235 1.400 . S
C235 C234 1.400 . S
C235 C236 1.398 . S
C235 C241 1.491 . S
C236 H227 0.950 . S
C236 C235 1.398 . S
C236 C237 1.391 . S
C237 H225 0.950 . S
C237 C233 1.393 . S
C237 C236 1.391 . S
C238 H228 0.950 . S
C238 C239 1.386 . S
C238 C240 1.391 1_565 S
C239 C238 1.386 . S
C239 C243 1.393 1_554 S
C240 H229 0.950 . S
C240 C238 1.391 1_545 S
C240 C241 1.400 . S
C241 C235 1.491 . S
C241 C240 1.400 . S
C241 C242 1.398 . S
C242 H230 0.950 1_554 S
C242 C241 1.398 . S
C242 C243 1.391 1_544 S
C243 H231 0.950 . S
C243 C239 1.393 1_556 S
C243 C242 1.391 1_566 S
H244 C252 0.950 . S
H245 C257 0.950 . S
H246 C254 0.950 . S
H247 C256 0.950 . S
H248 C258 0.950 . S
H249 C260 0.950 . S
H250 C262 0.950 . S
H251 C263 0.950 . S
C252 H244 0.950 . S
C252 C253 1.386 . S
C252 C254 1.391 . S
C253 C252 1.386 . S
C253 C257 1.393 . S
C254 H246 0.950 . S
C254 C252 1.391 . S
C254 C255 1.400 . S
C255 C254 1.400 . S
C255 C256 1.398 . S
C255 C261 1.491 . S
C256 H247 0.950 . S
C256 C255 1.398 . S
C256 C257 1.391 . S
C257 H245 0.950 . S
C257 C253 1.393 . S
C257 C256 1.391 . S
C258 H248 0.950 . S
C258 C259 1.386 . S
C258 C260 1.391 . S
C259 C258 1.386 . S
C259 C263 1.393 . S
C260 H249 0.950 . S
C260 C258 1.391 . S
C260 C261 1.400 . S
C261 C255 1.491 . S
C261 C260 1.400 . S
C261 C262 1.398 . S
C262 H250 0.950 . S
C262 C261 1.398 . S
C262 C263 1.391 . S
C263 H251 0.950 . S
C263 C259 1.393 . S
C263 C262 1.391 . S
H264 C272 0.950 . S
H265 C277 0.950 . S
H266 C274 0.950 . S
H267 C276 0.950 . S
H268 C278 0.950 . S
H269 C280 0.950 . S
H270 C282 0.950 . S
H271 C283 0.950 . S
C272 H264 0.950 . S
C272 C273 1.386 . S
C272 C274 1.391 . S
C273 C272 1.386 . S
C273 C277 1.393 . S
C274 H266 0.950 . S
C274 C272 1.391 . S
C274 C275 1.400 . S
C275 C274 1.400 . S
C275 C276 1.398 . S
C275 C281 1.491 . S
C276 H267 0.950 . S
C276 C275 1.398 . S
C276 C277 1.391 . S
C277 H265 0.950 . S
C277 C273 1.393 . S
C277 C276 1.391 . S
C278 H268 0.950 . S
C278 C279 1.386 . S
C278 C280 1.391 1_545 S
C279 C278 1.386 . S
C279 C283 1.393 . S
C280 H269 0.950 . S
C280 C278 1.391 1_565 S
C280 C281 1.400 . S
C281 C275 1.491 . S
C281 C280 1.400 . S
C281 C282 1.398 . S
C282 H270 0.950 . S
C282 C281 1.398 . S
C282 C283 1.391 1_565 S
C283 H271 0.950 . S
C283 C279 1.393 . S
C283 C282 1.391 1_545 S
H284 C292 0.950 1_554 S
H285 C297 0.950 . S
H286 C294 0.950 . S
H287 C296 0.950 . S
H288 C298 0.950 . S
H289 C300 0.950 . S
H290 C302 0.950 . S
H291 C303 0.950 . S
C292 H284 0.950 1_556 S
C292 C293 1.386 . S
C292 C294 1.391 1_655 S
C293 C292 1.386 . S
C293 C297 1.393 . S
C294 H286 0.950 . S
C294 C292 1.391 1_455 S
C294 C295 1.400 . S
C295 C294 1.400 . S
C295 C296 1.398 . S
C295 C301 1.491 . S
C296 H287 0.950 . S
C296 C295 1.398 . S
C296 C297 1.391 1_455 S
C297 H285 0.950 . S
C297 C293 1.393 . S
C297 C296 1.391 1_655 S
C298 H288 0.950 . S
C298 C299 1.386 . S
C298 C300 1.391 . S
C299 C298 1.386 . S
C299 C303 1.393 . S
C300 H289 0.950 . S
C300 C298 1.391 . S
C300 C301 1.400 . S
C301 C295 1.491 . S
C301 C300 1.400 . S
C301 C302 1.398 . S
C302 H290 0.950 . S
C302 C301 1.398 . S
C302 C303 1.391 . S
C303 H291 0.950 . S
C303 C299 1.393 . S
C303 C302 1.391 . S
H304 C312 0.950 . S
H305 C317 0.950 . S
H306 C314 0.950 . S
H307 C316 0.950 . S
H308 C318 0.950 1_556 S
H309 C320 0.950 . S
H310 C322 0.950 . S
H311 C323 0.950 . S
C312 H304 0.950 . S
C312 C313 1.386 . S
C312 C314 1.391 . S
C313 C312 1.386 . S
C313 C317 1.393 . S
C314 H306 0.950 . S
C314 C312 1.391 . S
C314 C315 1.400 . S
C315 C314 1.400 . S
C315 C316 1.398 . S
C315 C321 1.491 . S
C316 H307 0.950 . S
C316 C315 1.398 . S
C316 C317 1.391 . S
C317 H305 0.950 . S
C317 C313 1.393 . S
C317 C316 1.391 . S
C318 H308 0.950 1_554 S
C318 C319 1.386 . S
C318 C320 1.391 . S
C319 C318 1.386 . S
C319 C323 1.393 . S
C320 H309 0.950 . S
C320 C318 1.391 . S
C320 C321 1.400 . S
C321 C315 1.491 . S
C321 C320 1.400 . S
C321 C322 1.398 . S
C322 H310 0.950 . S
C322 C321 1.398 . S
C322 C323 1.391 . S
C323 H311 0.950 . S
C323 C319 1.393 . S
C323 C322 1.391 . S
H324 C332 0.950 . S
H325 C337 0.950 . S
H326 C334 0.950 . S
H327 C336 0.950 . S
H328 C338 0.950 . S
H329 C340 0.950 . S
H330 C342 0.950 . S
H331 C343 0.950 . S
C332 H324 0.950 . S
C332 C333 1.386 . S
C332 C334 1.391 . S
C333 C332 1.386 . S
C333 C337 1.393 . S
C334 H326 0.950 . S
C334 C332 1.391 . S
C334 C335 1.400 . S
C335 C334 1.400 . S
C335 C336 1.398 . S
C335 C341 1.491 . S
C336 H327 0.950 . S
C336 C335 1.398 . S
C336 C337 1.391 . S
C337 H325 0.950 . S
C337 C333 1.393 . S
C337 C336 1.391 . S
C338 H328 0.950 . S
C338 C339 1.386 . S
C338 C340 1.391 1_455 S
C339 C338 1.386 . S
C339 C343 1.393 . S
C340 H329 0.950 . S
C340 C338 1.391 1_655 S
C340 C341 1.400 . S
C341 C335 1.491 . S
C341 C340 1.400 . S
C341 C342 1.398 . S
C342 H330 0.950 . S
C342 C341 1.398 . S
C342 C343 1.391 1_655 S
C343 H331 0.950 . S
C343 C339 1.393 . S
C343 C342 1.391 1_455 S
H344 C352 0.950 . S
H345 C357 0.950 . S
H346 C354 0.950 . S
H347 C356 0.950 . S
H348 C358 0.950 . S
H349 C360 0.950 . S
H350 C362 0.950 . S
H351 C363 0.950 . S
C352 H344 0.950 . S
C352 C353 1.386 . S
C352 C354 1.391 . S
C353 C352 1.386 . S
C353 C357 1.393 . S
C354 H346 0.950 . S
C354 C352 1.391 . S
C354 C355 1.400 . S
C355 C354 1.400 . S
C355 C356 1.398 . S
C355 C361 1.491 . S
C356 H347 0.950 . S
C356 C355 1.398 . S
C356 C357 1.391 . S
C357 H345 0.950 . S
C357 C353 1.393 . S
C357 C356 1.391 . S
C358 H348 0.950 . S
C358 C359 1.386 . S
C358 C360 1.391 . S
C359 C358 1.386 . S
C359 C363 1.393 . S
C360 H349 0.950 . S
C360 C358 1.391 . S
C360 C361 1.400 . S
C361 C355 1.491 . S
C361 C360 1.400 . S
C361 C362 1.398 . S
C362 H350 0.950 . S
C362 C361 1.398 . S
C362 C363 1.391 . S
C363 H351 0.950 . S
C363 C359 1.393 . S
C363 C362 1.391 . S
H364 C372 0.950 . S
H365 C377 0.950 . S
H366 C374 0.950 . S
H367 C376 0.950 1_545 S
H368 C378 0.950 . S
H369 C380 0.950 . S
H370 C382 0.950 . S
H371 C383 0.950 . S
C372 H364 0.950 . S
C372 C373 1.386 1_565 S
C372 C374 1.391 . S
C373 C372 1.386 1_545 S
C373 C377 1.393 . S
C374 H366 0.950 . S
C374 C372 1.391 . S
C374 C375 1.400 . S
C375 C374 1.400 . S
C375 C376 1.398 . S
C375 C381 1.491 . S
C376 H367 0.950 1_565 S
C376 C375 1.398 . S
C376 C377 1.391 1_565 S
C377 H365 0.950 . S
C377 C373 1.393 . S
C377 C376 1.391 1_545 S
C378 H368 0.950 . S
C378 C379 1.386 . S
C378 C380 1.391 . S
C379 C378 1.386 . S
C379 C383 1.393 1_655 S
C380 H369 0.950 . S
C380 C378 1.391 . S
C380 C381 1.400 1_655 S
C381 C375 1.491 . S
C381 C380 1.400 1_455 S
C381 C382 1.398 . S
C382 H370 0.950 . S
C382 C381 1.398 . S
C382 C383 1.391 . S
C383 H371 0.950 . S
C383 C379 1.393 1_455 S
C383 C382 1.391 . S
H384 C392 0.950 . S
H385 C397 0.950 . S
H386 C394 0.950 . S
H387 C396 0.950 . S
H388 C398 0.950 . S
H389 C400 0.950 . S
H390 C402 0.950 . S
H391 C403 0.950 . S
C392 H384 0.950 . S
C392 C393 1.386 . S
C392 C394 1.391 . S
C393 C392 1.386 . S
C393 C397 1.393 . S
C394 H386 0.950 . S
C394 C392 1.391 . S
C394 C395 1.400 . S
C395 C394 1.400 . S
C395 C396 1.398 . S
C395 C401 1.491 . S
C396 H387 0.950 . S
C396 C395 1.398 . S
C396 C397 1.391 . S
C397 H385 0.950 . S
C397 C393 1.393 . S
C397 C396 1.391 . S
C398 H388 0.950 . S
C398 C399 1.386 . S
C398 C400 1.391 . S
C399 C398 1.386 . S
C399 C403 1.393 . S
C400 H389 0.950 . S
C400 C398 1.391 . S
C400 C401 1.400 . S
C401 C395 1.491 . S
C401 C400 1.400 . S
C401 C402 1.398 . S
C402 H390 0.950 . S
C402 C401 1.398 . S
C402 C403 1.391 . S
C403 H391 0.950 . S
C403 C399 1.393 . S
C403 C402 1.391 . S
H404 C412 0.950 . S
H405 C417 0.950 . S
H406 C414 0.950 . S
H407 C416 0.950 . S
H408 C418 0.950 . S
H409 C420 0.950 . S
H410 C422 0.950 . S
H411 C423 0.950 . S
C412 H404 0.950 . S
C412 C413 1.386 1_655 S
C412 C414 1.391 . S
C413 C412 1.386 1_455 S
C413 C417 1.393 . S
C414 H406 0.950 . S
C414 C412 1.391 . S
C414 C415 1.400 . S
C415 C414 1.400 . S
C415 C416 1.398 1_655 S
C415 C421 1.491 . S
C416 H407 0.950 . S
C416 C415 1.398 1_455 S
C416 C417 1.391 . S
C417 H405 0.950 . S
C417 C413 1.393 . S
C417 C416 1.391 . S
C418 H408 0.950 . S
C418 C419 1.386 . S
C418 C420 1.386 1_565 S
C419 C418 1.386 . S
C419 C423 1.393 . S
C420 H409 0.950 . S
C420 C418 1.386 1_545 S
C420 C421 1.405 . S
C421 C415 1.491 . S
C421 C420 1.405 . S
C421 C422 1.398 . S
C422 H410 0.950 . S
C422 C421 1.398 . S
C422 C423 1.391 1_545 S
C423 H411 0.950 . S
C423 C419 1.393 . S
C423 C422 1.391 1_565 S
H424 C432 0.950 . S
H425 C437 0.950 . S
H426 C434 0.950 1_556 S
H427 C436 0.950 . S
H428 C438 0.950 . S
H429 C440 0.950 . S
H430 C442 0.950 . S
H431 C443 0.950 . S
C432 H424 0.950 . S
C432 C433 1.386 . S
C432 C434 1.391 . S
C433 C432 1.386 . S
C433 C437 1.393 . S
C434 H426 0.950 1_554 S
C434 C432 1.391 . S
C434 C435 1.400 . S
C435 C434 1.400 . S
C435 C436 1.398 . S
C435 C441 1.491 1_554 S
C436 H427 0.950 . S
C436 C435 1.398 . S
C436 C437 1.391 . S
C437 H425 0.950 . S
C437 C433 1.393 . S
C437 C436 1.391 . S
C438 H428 0.950 . S
C438 C439 1.386 . S
C438 C440 1.391 1_556 S
C439 C438 1.386 . S
C439 C443 1.393 . S
C440 H429 0.950 . S
C440 C438 1.391 1_554 S
C440 C441 1.400 1_554 S
C441 C435 1.491 1_556 S
C441 C440 1.400 1_556 S
C441 C442 1.398 . S
C442 H430 0.950 . S
C442 C441 1.398 . S
C442 C443 1.391 . S
C443 H431 0.950 . S
C443 C439 1.393 . S
C443 C442 1.391 . S
C133 C19 1.265 . S
C139 C30 1.286 . S
C153 C50 1.290 . S
C159 C61 1.305 1_556 S
C173 C72 1.307 . S
C179 C62 1.291 . S
C193 C103 1.293 1_554 S
C199 C93 1.275 . S
C213 C123 1.487 . S
C219 C1 1.620 . S
C233 C32 1.747 . S
C239 C0 1.698 . S
C253 C91 1.981 . S
C259 C31 1.924 . S
C273 C122 1.852 . S
C279 C92 1.695 . S
C293 C10 1.466 . S
C299 C113 1.635 . S
C313 C41 1.701 . S
C319 C2 1.847 . S
C333 C33 1.966 . S
C339 C81 1.945 . S
C353 C82 1.749 . S
C359 C112 1.709 . S
C373 C63 0.430 . S
C379 C20 0.403 . S
C393 C51 0.449 . S
C399 C94 0.451 . S
C413 C64 0.541 . S
C419 C29 0.604 . S
C433 C60 0.619 . S
C439 C95 0.550 . S
