# Generated by pormake.
# Topology vma, (5)-cn, num edge types: 1
# Building blocks:
#     Node 0, Type 0, BuildingBlock: XOMCOT_clean_sbu_1, # of connection points: 5
#     Node 1, Type 0, BuildingBlock: XOMCOT_clean_sbu_1, # of connection points: 5
#     Node 2, Type 0, BuildingBlock: XOMCOT_clean_sbu_1, # of connection points: 5
#     Node 3, Type 0, BuildingBlock: XOMCOT_clean_sbu_1, # of connection points: 5
#     Node 4, Type 0, BuildingBlock: XOMCOT_clean_sbu_1, # of connection points: 5
#     Node 5, Type 0, BuildingBlock: XOMCOT_clean_sbu_1, # of connection points: 5
#     Node 6, Type 0, BuildingBlock: XOMCOT_clean_sbu_1, # of connection points: 5
#     Node 7, Type 0, BuildingBlock: XOMCOT_clean_sbu_1, # of connection points: 5
#     Edge 8, Type (0, 0), BuildingBlock: AJUNOK_clean_linker_0, # of connection points: 2
#     Edge 9, Type (0, 0), BuildingBlock: AJUNOK_clean_linker_0, # of connection points: 2
#     Edge 10, Type (0, 0), BuildingBlock: AJUNOK_clean_linker_0, # of connection points: 2
#     Edge 11, Type (0, 0), BuildingBlock: AJUNOK_clean_linker_0, # of connection points: 2
#     Edge 12, Type (0, 0), BuildingBlock: AJUNOK_clean_linker_0, # of connection points: 2
#     Edge 13, Type (0, 0), BuildingBlock: AJUNOK_clean_linker_0, # of connection points: 2
#     Edge 14, Type (0, 0), BuildingBlock: AJUNOK_clean_linker_0, # of connection points: 2
#     Edge 15, Type (0, 0), BuildingBlock: AJUNOK_clean_linker_0, # of connection points: 2
#     Edge 16, Type (0, 0), BuildingBlock: AJUNOK_clean_linker_0, # of connection points: 2
#     Edge 17, Type (0, 0), BuildingBlock: AJUNOK_clean_linker_0, # of connection points: 2
#     Edge 18, Type (0, 0), BuildingBlock: AJUNOK_clean_linker_0, # of connection points: 2
#     Edge 19, Type (0, 0), BuildingBlock: AJUNOK_clean_linker_0, # of connection points: 2
#     Edge 20, Type (0, 0), BuildingBlock: AJUNOK_clean_linker_0, # of connection points: 2
#     Edge 21, Type (0, 0), BuildingBlock: AJUNOK_clean_linker_0, # of connection points: 2
#     Edge 22, Type (0, 0), BuildingBlock: AJUNOK_clean_linker_0, # of connection points: 2
#     Edge 23, Type (0, 0), BuildingBlock: AJUNOK_clean_linker_0, # of connection points: 2
#     Edge 24, Type (0, 0), BuildingBlock: AJUNOK_clean_linker_0, # of connection points: 2
#     Edge 25, Type (0, 0), BuildingBlock: AJUNOK_clean_linker_0, # of connection points: 2
#     Edge 26, Type (0, 0), BuildingBlock: AJUNOK_clean_linker_0, # of connection points: 2
#     Edge 27, Type (0, 0), BuildingBlock: AJUNOK_clean_linker_0, # of connection points: 2
# Relax obj value: 0.098
# Max RMSD: 0.173
# Mean RMSD: 0.169
data_MOF--net-vma--node1-XOMCOT_clean_sbu_1--edge1-AJUNOK_clean_linker_0
_symmetry_space_group_name_H-M    P1
_symmetry_Int_Tables_number       1
_symmetry_cell_setting            triclinic
loop_
_symmetry_equiv_pos_as_xyz
'x, y, z'
_cell_length_a     30.079616
_cell_length_b     22.592102
_cell_length_c     26.803872
_cell_angle_alpha  89.760134
_cell_angle_beta   99.111196
_cell_angle_gamma 90.022253
loop_
_atom_site_label
_atom_site_type_symbol
_atom_site_fract_x
_atom_site_fract_y
_atom_site_fract_z
_atom_type_partial_charge
C0 C 0.38171 0.06197 0.30867 0.0
C1 C 0.41997 0.05841 0.28634 0.0
N2 N 0.45609 0.06178 0.32293 0.0
N3 N 0.39369 0.06817 0.35907 0.0
C4 C 0.4393 0.06809 0.3664 0.0
H5 H 0.34733 0.06016 0.28937 0.0
Co6 Co 0.35456 0.07684 0.4072 0.0
C7 C 0.41163 0.03159 0.50103 0.0
O8 O 0.37773 0.00127 0.51328 0.0
N9 N 0.31497 0.08671 0.45669 0.0
C10 C 0.26632 0.07291 0.51085 0.0
C11 C 0.28938 0.04624 0.47665 0.0
C12 C 0.30662 0.13768 0.48022 0.0
N13 N 0.27696 0.13068 0.51285 0.0
O14 O 0.36467 0.15987 0.40589 0.0
H15 H 0.28834 -0.00059 0.46866 0.0
H16 H 0.32202 0.17968 0.4739 0.0
O17 O 0.40565 0.06368 0.46115 0.0
C18 C 0.33403 0.17388 0.36903 0.0
O19 O 0.30565 0.13283 0.34945 0.0
N20 N 0.34031 -0.0027 0.39963 0.0
C21 C 0.31381 0.8932 0.34858 0.0
C22 C 0.35687 0.89805 0.37779 0.0
C23 C 0.36981 0.95111 0.40273 0.0
C24 C 0.29805 -0.00768 0.3727 0.0
C25 C 0.28394 0.94062 0.34737 0.0
H26 H 0.40438 0.95664 0.42045 0.0
H27 H 0.27595 0.0303 0.36811 0.0
H28 H 0.46017 0.0735 0.40271 0.0
H29 H 0.42118 0.05288 0.24648 0.0
H30 H 0.24483 0.05084 0.53388 0.0
H31 H 0.38112 0.86245 0.37887 0.0
H32 H 0.25112 0.93959 0.32396 0.0
C33 C 0.71645 0.03639 0.3045 0.0
C34 C 0.67926 0.03368 0.32854 0.0
N35 N 0.64245 0.04922 0.29535 0.0
N36 N 0.70362 0.05405 0.25633 0.0
C37 C 0.65861 0.0623 0.25218 0.0
H38 H 0.75086 0.02725 0.3214 0.0
Co39 Co 0.74143 0.06841 0.20766 0.0
C40 C 0.68419 0.02758 0.11184 0.0
O41 O 0.71891 0.00387 0.09543 0.0
N42 N 0.78016 0.08417 0.15792 0.0
C43 C 0.83036 0.07636 0.10486 0.0
C44 C 0.80567 0.046 0.1356 0.0
C45 C 0.79026 0.13769 0.13928 0.0
N46 N 0.82105 0.13425 0.10759 0.0
O47 O 0.7286 0.15049 0.21153 0.0
H48 H 0.80645 -0.00148 0.14058 0.0
H49 H 0.77499 0.17874 0.14813 0.0
O50 O 0.68964 0.05415 0.15442 0.0
C51 C 0.75827 0.16303 0.24973 0.0
O52 O 0.78613 0.12124 0.26927 0.0
N53 N 0.75884 -0.01002 0.21248 0.0
C54 C 0.79338 0.88319 0.25223 0.0
C55 C 0.74962 0.88605 0.22453 0.0
C56 C 0.73248 0.94067 0.20544 0.0
C57 C 0.80154 -0.01287 0.23867 0.0
C58 C 0.81958 0.93418 0.25857 0.0
H59 H 0.6976 0.94392 0.18814 0.0
H60 H 0.82139 0.02694 0.24561 0.0
H61 H 0.63819 0.07859 0.2182 0.0
H62 H 0.68009 0.0231 0.36801 0.0
H63 H 0.85391 0.05732 0.08278 0.0
H64 H 0.72829 0.84718 0.22003 0.0
H65 H 0.85336 0.93336 0.27984 0.0
C66 C 0.66687 0.95031 0.58081 0.0
C67 C 0.62812 0.97327 0.55359 0.0
N68 N 0.59613 0.97381 0.58344 0.0
N69 N 0.6596 0.93613 0.62779 0.0
C70 C 0.61626 0.95183 0.62844 0.0
H71 H 0.69844 0.94465 0.56703 0.0
Co72 Co 0.70356 0.90368 0.67794 0.0
C73 C 0.65294 0.85868 0.761 0.0
O74 O 0.69003 0.84827 0.79271 0.0
N75 N 0.74962 0.87125 0.72704 0.0
C76 C 0.81227 0.86049 0.78317 0.0
C77 C 0.78354 0.90043 0.75604 0.0
C78 C 0.75929 0.81331 0.73682 0.0
N79 N 0.79719 0.8057 0.77074 0.0
O80 O 0.69997 0.83007 0.64133 0.0
H81 H 0.78825 0.94778 0.757 0.0
H82 H 0.73854 0.77727 0.71996 0.0
O83 O 0.65546 0.87897 0.7167 0.0
C84 C 0.73028 0.82981 0.61288 0.0
O85 O 0.75777 0.87524 0.61471 0.0
N86 N 0.71011 0.97761 0.70943 0.0
C87 C 0.74109 0.08538 0.75138 0.0
C88 C 0.71197 0.05012 0.77491 0.0
C89 C 0.69674 -0.00401 0.75325 0.0
C90 C 0.73591 0.01329 0.68456 0.0
C91 C 0.75174 0.06736 0.70479 0.0
H92 H 0.67595 0.96859 0.77298 0.0
H93 H 0.74621 -0.00192 0.64993 0.0
H94 H 0.6001 0.94886 0.66152 0.0
H95 H 0.6236 -0.01244 0.51452 0.0
H96 H 0.84261 0.87089 0.80913 0.0
H97 H 0.70265 0.06307 0.81073 0.0
H98 H 0.77317 0.09409 0.68482 0.0
C99 C 0.43105 0.96931 0.98552 0.0
C100 C 0.46576 -0.00398 1.01725 0.0
N101 N 0.50474 0.97087 1.00975 0.0
N102 N 0.44808 0.92738 0.95824 0.0
C103 C 0.49297 0.92882 0.97443 0.0
H104 H 0.39574 0.98068 0.98158 0.0
Co105 Co 0.41532 0.88139 0.90703 0.0
C106 C 0.47932 0.88391 0.83193 0.0
O107 O 0.44662 0.90602 0.79873 0.0
N108 N 0.38179 0.83264 0.8568 0.0
C109 C 0.36228 0.76309 0.79859 0.0
C110 C 0.39641 0.79866 0.82112 0.0
C111 C 0.33894 0.81362 0.85679 0.0
N112 N 0.32624 0.77251 0.82108 0.0
O113 O 0.42605 0.81176 0.94911 0.0
H114 H 0.43061 0.79422 0.81466 0.0
H115 H 0.31821 0.82714 0.88423 0.0
O116 O 0.47135 0.87011 0.87627 0.0
C117 C 0.39317 0.81202 0.97419 0.0
O118 O 0.36675 0.85872 0.96989 0.0
N119 N 0.39914 0.95164 0.86915 0.0
C120 C 0.36621 0.06265 0.83454 0.0
C121 C 0.41263 0.05318 0.84803 0.0
C122 C 0.42847 -0.00273 0.86539 0.0
C123 C 0.35394 0.96073 0.85591 0.0
C124 C 0.33689 0.01528 0.83749 0.0
H125 H 0.46413 -0.00849 0.87824 0.0
H126 H 0.33029 0.92719 0.86283 0.0
H127 H 0.51663 0.89948 0.96081 0.0
H128 H 0.46271 0.03216 1.04289 0.0
H129 H 0.36497 0.7288 0.7711 0.0
H130 H 0.43626 0.08914 0.84679 0.0
H131 H 0.30076 0.02144 0.8288 0.0
C132 C 0.89294 0.53527 0.30134 0.0
C133 C 0.93209 0.53296 0.28062 0.0
N134 N 0.96653 0.55057 0.31583 0.0
N135 N 0.90251 0.55451 0.34943 0.0
C136 C 0.94758 0.56384 0.35693 0.0
H137 H 0.85952 0.52418 0.2824 0.0
Co138 Co 0.86137 0.56948 0.39456 0.0
C139 C 0.91283 0.52515 0.49167 0.0
O140 O 0.87764 0.49577 0.50174 0.0
N141 N 0.82012 0.58599 0.44138 0.0
C142 C 0.76809 0.58029 0.49242 0.0
C143 C 0.79214 0.54914 0.46174 0.0
C144 C 0.81255 0.63934 0.46169 0.0
N145 N 0.78063 0.63733 0.49212 0.0
O146 O 0.87473 0.65129 0.39055 0.0
H147 H 0.78951 0.50192 0.45597 0.0
H148 H 0.83106 0.67893 0.45554 0.0
O149 O 0.90985 0.55573 0.45105 0.0
C150 C 0.84691 0.66297 0.35046 0.0
O151 O 0.81955 0.62109 0.33038 0.0
N152 N 0.84361 0.49106 0.38914 0.0
C153 C 0.81027 0.38523 0.34623 0.0
C154 C 0.85393 0.38804 0.3743 0.0
C155 C 0.87038 0.44204 0.39508 0.0
C156 C 0.80116 0.48843 0.36227 0.0
C157 C 0.78345 0.43582 0.34163 0.0
H158 H 0.90521 0.44536 0.41257 0.0
H159 H 0.78111 0.52817 0.3556 0.0
H160 H 0.96604 0.58186 0.39137 0.0
H161 H 0.93504 0.51914 0.24266 0.0
H162 H 0.74315 0.5622 0.51324 0.0
H163 H 0.87582 0.34969 0.37788 0.0
H164 H 0.74942 0.43521 0.32104 0.0
C165 C 0.22615 0.59059 0.30153 0.0
C166 C 0.18848 0.58711 0.32481 0.0
N167 N 0.15297 0.57154 0.29005 0.0
N168 N 0.21467 0.57779 0.25213 0.0
C169 C 0.16985 0.56639 0.24634 0.0
H170 H 0.25962 0.60324 0.31921 0.0
Co171 Co 0.25399 0.58108 0.20395 0.0
C172 C 0.19751 0.53538 0.11028 0.0
O173 O 0.23131 0.50513 0.09776 0.0
N174 N 0.29411 0.58549 0.15415 0.0
C175 C 0.34736 0.5689 0.10614 0.0
C176 C 0.32338 0.54494 0.14108 0.0
C177 C 0.30072 0.63327 0.12529 0.0
N178 N 0.33339 0.6249 0.09663 0.0
O179 O 0.24459 0.66399 0.20002 0.0
H180 H 0.32719 0.5001 0.15517 0.0
H181 H 0.28252 0.67443 0.12578 0.0
O182 O 0.20329 0.5663 0.15059 0.0
C183 C 0.27939 0.68456 0.22802 0.0
O184 O 0.31233 0.64825 0.2455 0.0
N185 N 0.267 0.50196 0.21632 0.0
C186 C 0.29344 0.39648 0.26577 0.0
C187 C 0.25174 0.40067 0.23368 0.0
C188 C 0.23865 0.45454 0.20977 0.0
C189 C 0.30747 0.49822 0.24731 0.0
C190 C 0.32172 0.44573 0.2717 0.0
H191 H 0.20508 0.45885 0.18879 0.0
H192 H 0.32851 0.53701 0.25409 0.0
H193 H 0.14968 0.55449 0.21078 0.0
H194 H 0.18721 0.5975 0.36392 0.0
H195 H 0.37245 0.54625 0.0885 0.0
H196 H 0.22873 0.36349 0.229 0.0
H197 H 0.35427 0.44403 0.29566 0.0
C198 C 0.16104 0.43808 0.60159 0.0
C199 C 0.12548 0.46354 0.57066 0.0
N200 N 0.08984 0.46417 0.59529 0.0
N201 N 0.14811 0.42224 0.64567 0.0
C202 C 0.10429 0.43852 0.64069 0.0
H203 H 0.19452 0.43211 0.59263 0.0
Co204 Co 0.18859 0.3899 0.69865 0.0
C205 C 0.13376 0.34765 0.77744 0.0
O206 O 0.16986 0.34442 0.812 0.0
N207 N 0.23183 0.35739 0.75054 0.0
C208 C 0.29717 0.34418 0.80143 0.0
C209 C 0.2677 0.38532 0.77698 0.0
C210 C 0.24038 0.29919 0.76003 0.0
N211 N 0.28005 0.28984 0.79054 0.0
O212 O 0.18849 0.31693 0.66135 0.0
H213 H 0.27413 0.43228 0.77582 0.0
H214 H 0.21887 0.26402 0.74286 0.0
O215 O 0.13751 0.36393 0.73234 0.0
C216 C 0.22388 0.31605 0.64044 0.0
O217 O 0.25157 0.36131 0.64819 0.0
N218 N 0.19236 0.46373 0.73061 0.0
C219 C 0.21448 0.57715 0.76683 0.0
C220 C 0.18519 0.54152 0.78978 0.0
C221 C 0.17405 0.48472 0.77065 0.0
C222 C 0.21985 0.49865 0.7074 0.0
C223 C 0.23124 0.5553 0.7247 0.0
H224 H 0.15146 0.45825 0.78869 0.0
H225 H 0.23437 0.48133 0.67606 0.0
H226 H 0.08363 0.43294 0.66994 0.0
H227 H 0.12567 0.47949 0.53261 0.0
H228 H 0.33024 0.35364 0.8222 0.0
H229 H 0.1714 0.55719 0.82227 0.0
H230 H 0.2545 0.58096 0.70635 0.0
C231 C 0.94355 0.4542 1.02458 0.0
C232 C 0.98136 0.47873 1.05207 0.0
N233 N 1.01484 0.47637 1.02426 0.0
N234 N 0.95296 0.43562 0.97967 0.0
C235 C 0.99688 0.44969 0.98056 0.0
H236 H 0.91099 0.45089 1.03652 0.0
Co237 Co 0.90931 0.40304 0.92999 0.0
C238 C 0.9585 0.36073 0.84618 0.0
O239 O 0.92128 0.36221 0.81319 0.0
N240 N 0.86358 0.37051 0.88148 0.0
C241 C 0.79961 0.3569 0.82829 0.0
C242 C 0.82721 0.39799 0.85527 0.0
C243 C 0.85688 0.31255 0.86998 0.0
N244 N 0.81843 0.30322 0.83749 0.0
O245 O 0.91198 0.3297 0.96758 0.0
H246 H 0.8201 0.44472 0.85622 0.0
H247 H 0.8793 0.27762 0.8861 0.0
O248 O 0.95736 0.37591 0.89209 0.0
C249 C 0.88154 0.32893 0.99584 0.0
O250 O 0.85468 0.37485 0.9951 0.0
N251 N 0.90332 0.47692 0.89733 0.0
C252 C 0.87607 0.58703 0.85591 0.0
C253 C 0.90769 0.55287 0.83536 0.0
C254 C 0.92128 0.49787 0.85697 0.0
C255 C 0.8748 0.51127 0.91948 0.0
C256 C 0.86056 0.56622 0.89931 0.0
H257 H 0.94568 0.47277 0.84069 0.0
H258 H 0.86126 0.49437 0.95177 0.0
H259 H 1.01511 0.44196 0.94953 0.0
H260 H 0.98414 0.49621 0.08998 0.0
H261 H 0.76799 0.36576 0.80399 0.0
H262 H 0.92164 0.56841 0.80282 0.0
H263 H 0.8363 0.59122 0.91653 0.0
C264 C 0.27961 0.26424 0.59636 0.0
C265 C 0.23596 0.26596 0.60928 0.0
C266 C 0.29256 0.22001 0.56522 0.0
C267 C 0.26257 0.1752 0.54549 0.0
H268 H 0.30434 0.29754 0.6103 0.0
H269 H 0.32661 0.22071 0.55689 0.0
S270 S 0.14401 0.15958 0.56671 0.0
N271 N 0.16254 0.21872 0.59964 0.0
N272 N 0.18672 0.13563 0.54043 0.0
C273 C 0.21883 0.17584 0.55828 0.0
C274 C 0.20559 0.22113 0.5903 0.0
C275 C 0.85058 0.17374 1.03266 0.0
C276 C 0.84012 0.18202 0.08169 0.0
C277 C 0.86698 0.22053 1.00584 0.0
C278 C 0.87332 0.27722 1.02712 0.0
H279 H 0.84452 0.13135 1.01416 0.0
H280 H 0.87253 0.21303 0.9674 0.0
S281 S 0.85821 0.32006 0.15674 0.0
N282 N 0.84298 0.2498 0.15236 0.0
N283 N 0.87226 0.33779 0.10147 0.0
C284 C 0.86507 0.28537 0.07678 0.0
C285 C 0.84885 0.23782 0.10421 0.0
C286 C 0.73577 0.72104 0.5956 0.0
C287 C 0.73672 0.77999 0.57903 0.0
C288 C 0.74957 0.67456 0.56673 0.0
C289 C 0.76419 0.68533 0.51994 0.0
H290 H 0.72638 0.71105 0.6321 0.0
H291 H 0.75018 0.63013 0.58204 0.0
S292 S 0.76445 0.8314 0.45595 0.0
N293 N 0.74855 0.84623 0.51075 0.0
N294 N 0.77235 0.75911 0.45566 0.0
C295 C 0.76229 0.7439 0.50167 0.0
C296 C 0.74902 0.7911 0.53138 0.0
C297 C 0.3343 0.75531 1.00935 0.0
C298 C 0.37975 0.76013 1.00278 0.0
C299 C 0.31952 0.71032 1.03873 0.0
C300 C 0.34944 0.66792 0.06338 0.0
H301 H 0.30953 0.78686 0.99165 0.0
H302 H 0.28418 0.70891 1.04227 0.0
S303 S 0.47214 0.66008 0.05834 0.0
N304 N 0.45459 0.71772 1.02241 0.0
N305 N 0.42716 0.63339 0.07893 0.0
C306 C 0.39498 0.67116 0.05634 0.0
C307 C 0.41002 0.71713 1.02577 0.0
C308 C 0.5645 0.08852 0.27257 0.0
C309 C 0.59581 0.05224 0.30361 0.0
C310 C 0.519 0.09116 0.27882 0.0
C311 C 0.50291 0.05859 0.31699 0.0
H312 H 0.57508 0.11569 0.24329 0.0
H313 H 0.49629 0.11962 0.2541 0.0
S314 S 0.56866 0.95394 0.40658 0.0
N315 N 0.60546 0.97989 0.37238 0.0
N316 N 0.52067 -0.01253 0.3851 0.0
C317 C 0.53336 0.02228 0.34835 0.0
C318 C 0.57954 0.0185 0.34148 0.0
C319 C 0.56892 0.8722 0.74663 0.0
C320 C 0.60856 0.85799 0.77974 0.0
C321 C 0.52768 0.87952 0.76398 0.0
C322 C 0.52362 0.87178 0.81531 0.0
H323 H 0.56966 0.87855 0.70684 0.0
H324 H 0.49873 0.89193 0.73657 0.0
S325 S 0.61564 0.82544 0.91702 0.0
N326 N 0.64014 0.8309 0.86626 0.0
N327 N 0.56229 0.84281 0.89835 0.0
C328 C 0.56233 0.85392 0.84853 0.0
C329 C 0.60473 0.84731 0.83092 0.0
C330 C 0.07108 0.58096 0.25818 0.0
C331 C 0.10633 0.56523 0.29714 0.0
C332 C 1.02565 0.57598 0.26446 0.0
C333 C 1.01348 0.55541 0.3101 0.0
H334 H 0.07866 0.59817 0.22277 0.0
H335 H 0.99981 0.58923 0.2336 0.0
S336 S 0.09215 0.50226 0.42186 0.0
N337 N 0.12533 0.52377 0.38171 0.0
N338 N 1.04023 0.51531 0.39357 0.0
C339 C 1.04822 0.53862 0.34905 0.0
C340 C 0.09449 0.5433 0.34258 0.0
C341 C 0.08518 0.35088 0.84557 0.0
C342 C 0.0886 0.34467 0.79393 0.0
C343 C 1.04324 0.35415 0.86223 0.0
C344 C 1.0026 0.35116 0.82811 0.0
H345 H 0.11521 0.35513 0.87354 0.0
H346 H 1.04285 0.36024 0.90219 0.0
S347 S 0.99277 0.32761 0.6894 0.0
N348 N 1.04753 0.33055 0.70929 0.0
N349 N 0.9688 0.33642 0.74017 0.0
C350 C 1.00553 0.34212 0.77653 0.0
C351 C 1.04837 0.33906 0.75959 0.0
C352 C 0.32288 0.77503 0.25123 0.0
C353 C 0.28184 0.74463 0.24828 0.0
C354 C 0.33262 0.82337 0.28341 0.0
C355 C 0.30189 0.8424 0.31439 0.0
H356 H 0.34852 0.75953 0.23019 0.0
H357 H 0.36479 0.84534 0.28464 0.0
S358 S 0.18934 0.77757 0.31996 0.0
N359 N 0.20968 0.73737 0.27743 0.0
N360 N 0.22814 0.82785 0.33912 0.0
C361 C 0.25993 0.81361 0.31038 0.0
C362 C 0.24983 0.76478 0.27695 0.0
C363 C 0.82556 0.82593 0.32944 0.0
C364 C 0.81147 0.82801 0.27671 0.0
C365 C 0.84094 0.77293 0.35368 0.0
C366 C 0.84272 0.72101 0.32561 0.0
H367 H 0.82304 0.86496 0.35218 0.0
H368 H 0.84887 0.77183 0.39453 0.0
S369 S 0.81635 0.70605 0.18617 0.0
N370 N 0.80489 0.77586 0.19703 0.0
N371 N 0.83421 0.67633 0.24213 0.0
C372 C 0.83154 0.72375 0.27262 0.0
C373 C 0.81562 0.77727 0.24822 0.0
C374 C 0.73448 0.18415 0.79181 0.0
C375 C 0.76167 0.1398 0.77573 0.0
C376 C 0.75331 0.23729 0.81223 0.0
C377 C 0.80002 0.24758 0.81793 0.0
H378 H 0.69833 0.17827 0.78753 0.0
H379 H 0.73119 0.27059 0.82378 0.0
S380 S 0.88591 0.14437 0.78344 0.0
N381 N 0.83778 0.1086 0.76857 0.0
N382 N 0.87297 0.20873 0.80634 0.0
C383 C 0.82763 0.20306 0.80295 0.0
C384 C 0.80848 0.14915 0.78195 0.0
C385 C 0.296 0.18708 0.76674 0.0
C386 C 0.30266 0.23379 0.80186 0.0
C387 C 0.31769 0.13237 0.7769 0.0
C388 C 0.34738 0.12253 0.82219 0.0
H389 H 0.27405 0.19284 0.73095 0.0
H390 H 0.31102 0.09734 0.74924 0.0
S391 S 0.37497 0.22858 0.92764 0.0
N392 N 0.33991 0.26519 0.88474 0.0
N393 N 0.38147 0.16287 0.90303 0.0
C394 C 0.3547 0.16872 0.85742 0.0
C395 C 0.3322 0.22421 0.84744 0.0
C396 C 0.79657 0.27707 0.34834 0.0
C397 C 0.79286 0.33013 0.32086 0.0
C398 C 0.78217 0.22386 0.32513 0.0
C399 C 0.76368 0.22156 0.27349 0.0
H400 H 0.81118 0.27655 0.38799 0.0
H401 H 0.78684 0.18373 0.34766 0.0
S402 S 0.74446 0.3487 0.18529 0.0
N403 N 0.76778 0.37798 0.23956 0.0
N404 N 0.74025 0.27703 0.19606 0.0
C405 C 0.75782 0.2745 0.24593 0.0
C406 C 0.77269 0.32905 0.26959 0.0
C407 C 0.30515 0.2877 0.26673 0.0
C408 C 0.3074 0.3411 0.29337 0.0
C409 C 0.31652 0.2343 0.29179 0.0
C410 C 0.33057 0.23223 0.34443 0.0
H411 H 0.29411 0.28711 0.22624 0.0
H412 H 0.31327 0.19394 0.26979 0.0
S413 S 0.34248 0.35973 0.43163 0.0
N414 N 0.3252 0.38915 0.37534 0.0
N415 N 0.34696 0.28785 0.4224 0.0
C416 C 0.33447 0.28532 0.37149 0.0
C417 C 0.32267 0.34004 0.34593 0.0
C418 C 0.23198 0.68343 0.75436 0.0
C419 C 0.23119 0.63517 0.78763 0.0
C420 C 0.26003 0.73214 0.76775 0.0
C421 C 0.28756 0.73471 0.81506 0.0
H422 H 0.21369 0.68119 0.71619 0.0
H423 H 0.26303 0.76581 0.7396 0.0
S424 S 0.29387 0.62407 0.91808 0.0
N425 N 0.25714 0.59595 0.87186 0.0
N426 N 0.30935 0.68849 0.897 0.0
C427 C 0.28381 0.68985 0.85046 0.0
C428 C 0.25555 0.63981 0.83678 0.0
C429 C 0.83626 0.74669 0.84201 0.0
C430 C 0.8176 0.75101 0.79059 0.0
C431 C 0.85595 0.69395 0.8625 0.0
C432 C 0.85819 0.6436 0.83226 0.0
H433 H 0.83485 0.78412 0.8668 0.0
H434 H 0.86934 0.69249 0.90247 0.0
S435 S 0.81621 0.63281 0.69478 0.0
N436 N 0.80435 0.70135 0.70939 0.0
N437 N 0.84073 0.60177 0.74798 0.0
C438 C 0.84046 0.64767 0.78053 0.0
C439 C 0.82019 0.70139 0.75972 0.0
C440 C 0.49453 0.05392 0.51531 0.0
C441 C 0.45827 0.02057 0.52793 0.0
C442 C 0.5393 0.0395 0.53481 0.0
C443 C 0.54982 -0.00832 0.56839 0.0
H444 H 0.48848 0.09082 0.48925 0.0
H445 H 0.56603 0.06553 0.52295 0.0
S446 S 0.46789 0.89173 0.61582 0.0
N447 N 0.43635 0.93866 0.5783 0.0
N448 N 0.52044 0.91192 0.61459 0.0
C449 C 0.51405 0.95944 0.58308 0.0
C450 C 0.46836 0.97385 0.56304 0.0
C451 C 0.6008 0.01615 0.11001 0.0
C452 C 0.63805 0.01635 0.08409 0.0
C453 C 0.55743 0.00178 0.08542 0.0
C454 C 0.54951 -0.0134 1.03396 0.0
H455 H 0.60518 0.02544 0.14996 0.0
H456 H 0.53001 0.00117 0.10716 0.0
S457 S 0.63432 -0.01383 0.94738 0.0
N458 N 0.66332 0.00364 1.00293 0.0
N459 N 0.58182 0.97705 0.95684 0.0
C460 C 0.58612 -0.01203 1.00718 0.0
C461 C 0.63032 0.00269 1.0322 0.0
C462 C 1.00738 0.45038 0.58096 0.0
C463 C 1.0452 0.48452 0.57496 0.0
C464 C 0.96434 0.46525 0.55551 0.0
C465 C 0.95755 0.51492 0.52311 0.0
H466 H 1.01148 0.41035 0.6035 0.0
H467 H 0.93657 0.4361 0.55974 0.0
S468 S 1.04489 0.62409 0.50155 0.0
N469 N 0.07254 0.57382 0.53923 0.0
N470 N 0.99189 0.60207 0.49155 0.0
C471 C 0.99483 0.55136 0.51932 0.0
C472 C 1.03857 0.53608 0.54515 0.0
C473 C 0.14143 0.47526 1.05187 0.0
C474 C 0.15112 0.52547 0.08282 0.0
C475 C 0.09696 0.46081 1.03078 0.0
C476 C 0.06057 0.49592 1.03996 0.0
H477 H 0.16812 0.44543 1.0455 0.0
H478 H 0.09081 0.42045 1.00913 0.0
S479 S 0.06813 0.63736 0.11059 0.0
N480 N 0.12073 0.61416 0.11611 0.0
N481 N 1.03751 0.5869 0.07649 0.0
C482 C 0.06999 0.54808 0.06811 0.0
C483 C 0.11514 0.56288 0.0895 0.0
loop_
_geom_bond_atom_site_label_1
_geom_bond_atom_site_label_2
_geom_bond_distance
_geom_bond_site_symmetry_2
_ccdc_geom_bond_type
C0 C1 1.351 . S
C0 N3 1.368 . S
C0 H5 0.931 . S
C1 C0 1.351 . S
C1 N2 1.373 . S
C1 H29 0.930 . S
N2 C1 1.373 . S
N2 C4 1.340 . S
N3 C0 1.368 . S
N3 C4 1.321 . S
N3 Co6 2.135 . S
C4 N2 1.340 . S
C4 N3 1.321 . S
C4 H28 0.930 . S
H5 C0 0.931 . S
Co6 N3 2.135 . S
Co6 N9 2.121 . S
Co6 O14 2.055 . S
Co6 O17 2.039 . S
Co6 N20 2.140 . S
C7 O8 1.227 . S
C7 O17 1.265 . S
O8 C7 1.227 . S
N9 Co6 2.121 . S
N9 C11 1.375 . S
N9 C12 1.313 . S
C10 C11 1.338 . S
C10 N13 1.377 . S
C10 H30 0.930 . S
C11 N9 1.375 . S
C11 C10 1.338 . S
C11 H15 0.931 . S
C12 N9 1.313 . S
C12 N13 1.344 . S
C12 H16 0.930 . S
N13 C10 1.377 . S
N13 C12 1.344 . S
O14 Co6 2.055 . S
O14 C18 1.253 . S
H15 C11 0.931 . S
H16 C12 0.930 . S
O17 Co6 2.039 . S
O17 C7 1.265 . S
C18 O14 1.253 . S
C18 O19 1.227 . S
O19 C18 1.227 . S
N20 Co6 2.140 . S
N20 C23 1.346 . S
N20 C24 1.345 . S
C21 C22 1.387 . S
C21 C25 1.391 1_565 S
C22 C21 1.387 . S
C22 C23 1.369 1_565 S
C22 H31 0.929 . S
C23 N20 1.346 . S
C23 C22 1.369 1_545 S
C23 H26 0.928 . S
C24 N20 1.345 . S
C24 C25 1.371 . S
C24 H27 0.931 . S
C25 C21 1.391 1_545 S
C25 C24 1.371 . S
C25 H32 0.930 . S
H26 C23 0.928 . S
H27 C24 0.931 . S
H28 C4 0.930 . S
H29 C1 0.930 . S
H30 C10 0.930 . S
H31 C22 0.929 . S
H32 C25 0.930 . S
C33 C34 1.351 . S
C33 N36 1.368 . S
C33 H38 0.931 . S
C34 C33 1.351 . S
C34 N35 1.373 . S
C34 H62 0.930 . S
N35 C34 1.373 . S
N35 C37 1.340 . S
N36 C33 1.368 . S
N36 C37 1.321 . S
N36 Co39 2.135 . S
C37 N35 1.340 . S
C37 N36 1.321 . S
C37 H61 0.930 . S
H38 C33 0.931 . S
Co39 N36 2.135 . S
Co39 N42 2.121 . S
Co39 O47 2.055 . S
Co39 O50 2.039 . S
Co39 N53 2.140 . S
C40 O41 1.227 . S
C40 O50 1.265 . S
O41 C40 1.227 . S
N42 Co39 2.121 . S
N42 C44 1.375 . S
N42 C45 1.313 . S
C43 C44 1.338 . S
C43 N46 1.377 . S
C43 H63 0.930 . S
C44 N42 1.375 . S
C44 C43 1.338 . S
C44 H48 0.931 . S
C45 N42 1.313 . S
C45 N46 1.344 . S
C45 H49 0.930 . S
N46 C43 1.377 . S
N46 C45 1.344 . S
O47 Co39 2.055 . S
O47 C51 1.253 . S
H48 C44 0.931 . S
H49 C45 0.930 . S
O50 Co39 2.039 . S
O50 C40 1.265 . S
C51 O47 1.253 . S
C51 O52 1.227 . S
O52 C51 1.227 . S
N53 Co39 2.140 . S
N53 C56 1.346 . S
N53 C57 1.345 . S
C54 C55 1.387 . S
C54 C58 1.391 1_565 S
C55 C54 1.387 . S
C55 C56 1.369 1_565 S
C55 H64 0.929 . S
C56 N53 1.346 . S
C56 C55 1.369 1_545 S
C56 H59 0.928 . S
C57 N53 1.345 . S
C57 C58 1.371 . S
C57 H60 0.931 . S
C58 C54 1.391 1_545 S
C58 C57 1.371 . S
C58 H65 0.930 . S
H59 C56 0.928 . S
H60 C57 0.931 . S
H61 C37 0.930 . S
H62 C34 0.930 . S
H63 C43 0.930 . S
H64 C55 0.929 . S
H65 C58 0.930 . S
C66 C67 1.351 . S
C66 N69 1.368 . S
C66 H71 0.931 . S
C67 C66 1.351 . S
C67 N68 1.373 . S
C67 H95 0.930 . S
N68 C67 1.373 . S
N68 C70 1.340 . S
N69 C66 1.368 . S
N69 C70 1.321 . S
N69 Co72 2.135 . S
C70 N68 1.340 . S
C70 N69 1.321 . S
C70 H94 0.930 . S
H71 C66 0.931 . S
Co72 N69 2.135 . S
Co72 N75 2.121 . S
Co72 O80 2.055 . S
Co72 O83 2.039 . S
Co72 N86 2.140 . S
C73 O74 1.227 . S
C73 O83 1.265 . S
O74 C73 1.227 . S
N75 Co72 2.121 . S
N75 C77 1.375 . S
N75 C78 1.313 . S
C76 C77 1.338 . S
C76 N79 1.377 . S
C76 H96 0.930 . S
C77 N75 1.375 . S
C77 C76 1.338 . S
C77 H81 0.931 . S
C78 N75 1.313 . S
C78 N79 1.344 . S
C78 H82 0.930 . S
N79 C76 1.377 . S
N79 C78 1.344 . S
O80 Co72 2.055 . S
O80 C84 1.253 . S
H81 C77 0.931 . S
H82 C78 0.930 . S
O83 Co72 2.039 . S
O83 C73 1.265 . S
C84 O80 1.253 . S
C84 O85 1.227 . S
O85 C84 1.227 . S
N86 Co72 2.140 . S
N86 C89 1.346 . S
N86 C90 1.345 . S
C87 C88 1.387 . S
C87 C91 1.391 1_545 S
C88 C87 1.387 . S
C88 C89 1.369 1_545 S
C88 H97 0.929 . S
C89 N86 1.346 . S
C89 C88 1.369 1_565 S
C89 H92 0.928 . S
C90 N86 1.345 . S
C90 C91 1.371 . S
C90 H93 0.931 . S
C91 C87 1.391 1_565 S
C91 C90 1.371 . S
C91 H98 0.930 . S
H92 C89 0.928 . S
H93 C90 0.931 . S
H94 C70 0.930 . S
H95 C67 0.930 . S
H96 C76 0.930 . S
H97 C88 0.929 . S
H98 C91 0.930 . S
C99 C100 1.351 . S
C99 N102 1.368 . S
C99 H104 0.931 . S
C100 C99 1.351 . S
C100 N101 1.373 . S
C100 H128 0.932 1_556 S
N101 C100 1.373 . S
N101 C103 1.340 . S
N102 C99 1.368 . S
N102 C103 1.321 . S
N102 Co105 2.135 . S
C103 N101 1.340 . S
C103 N102 1.321 . S
C103 H127 0.930 . S
H104 C99 0.931 . S
Co105 N102 2.135 . S
Co105 N108 2.121 . S
Co105 O113 2.055 . S
Co105 O116 2.039 . S
Co105 N119 2.140 . S
C106 O107 1.227 . S
C106 O116 1.265 . S
O107 C106 1.227 . S
N108 Co105 2.121 . S
N108 C110 1.375 . S
N108 C111 1.313 . S
C109 C110 1.338 . S
C109 N112 1.377 . S
C109 H129 0.930 . S
C110 N108 1.375 . S
C110 C109 1.338 . S
C110 H114 0.931 . S
C111 N108 1.313 . S
C111 N112 1.344 . S
C111 H115 0.930 . S
N112 C109 1.377 . S
N112 C111 1.344 . S
O113 Co105 2.055 . S
O113 C117 1.253 . S
H114 C110 0.931 . S
H115 C111 0.930 . S
O116 Co105 2.039 . S
O116 C106 1.265 . S
C117 O113 1.253 . S
C117 O118 1.227 . S
O118 C117 1.227 . S
N119 Co105 2.140 . S
N119 C122 1.346 . S
N119 C123 1.345 . S
C120 C121 1.387 . S
C120 C124 1.391 1_545 S
C121 C120 1.387 . S
C121 C122 1.369 1_545 S
C121 H130 0.929 . S
C122 N119 1.346 . S
C122 C121 1.369 1_565 S
C122 H125 0.928 . S
C123 N119 1.345 . S
C123 C124 1.371 . S
C123 H126 0.931 . S
C124 C120 1.391 1_565 S
C124 C123 1.371 . S
C124 H131 0.930 . S
H125 C122 0.928 . S
H126 C123 0.931 . S
H127 C103 0.930 . S
H128 C100 0.932 1_554 S
H129 C109 0.930 . S
H130 C121 0.929 . S
H131 C124 0.930 . S
C132 C133 1.351 . S
C132 N135 1.368 . S
C132 H137 0.931 . S
C133 C132 1.351 . S
C133 N134 1.373 . S
C133 H161 0.930 . S
N134 C133 1.373 . S
N134 C136 1.340 . S
N135 C132 1.368 . S
N135 C136 1.321 . S
N135 Co138 2.135 . S
C136 N134 1.340 . S
C136 N135 1.321 . S
C136 H160 0.930 . S
H137 C132 0.931 . S
Co138 N135 2.135 . S
Co138 N141 2.121 . S
Co138 O146 2.055 . S
Co138 O149 2.039 . S
Co138 N152 2.140 . S
C139 O140 1.227 . S
C139 O149 1.265 . S
O140 C139 1.227 . S
N141 Co138 2.121 . S
N141 C143 1.375 . S
N141 C144 1.313 . S
C142 C143 1.338 . S
C142 N145 1.377 . S
C142 H162 0.930 . S
C143 N141 1.375 . S
C143 C142 1.338 . S
C143 H147 0.931 . S
C144 N141 1.313 . S
C144 N145 1.344 . S
C144 H148 0.930 . S
N145 C142 1.377 . S
N145 C144 1.344 . S
O146 Co138 2.055 . S
O146 C150 1.253 . S
H147 C143 0.931 . S
H148 C144 0.930 . S
O149 Co138 2.039 . S
O149 C139 1.265 . S
C150 O146 1.253 . S
C150 O151 1.227 . S
O151 C150 1.227 . S
N152 Co138 2.140 . S
N152 C155 1.346 . S
N152 C156 1.345 . S
C153 C154 1.387 . S
C153 C157 1.391 . S
C154 C153 1.387 . S
C154 C155 1.369 . S
C154 H163 0.929 . S
C155 N152 1.346 . S
C155 C154 1.369 . S
C155 H158 0.928 . S
C156 N152 1.345 . S
C156 C157 1.371 . S
C156 H159 0.931 . S
C157 C153 1.391 . S
C157 C156 1.371 . S
C157 H164 0.930 . S
H158 C155 0.928 . S
H159 C156 0.931 . S
H160 C136 0.930 . S
H161 C133 0.930 . S
H162 C142 0.930 . S
H163 C154 0.929 . S
H164 C157 0.930 . S
C165 C166 1.351 . S
C165 N168 1.368 . S
C165 H170 0.931 . S
C166 C165 1.351 . S
C166 N167 1.373 . S
C166 H194 0.930 . S
N167 C166 1.373 . S
N167 C169 1.340 . S
N168 C165 1.368 . S
N168 C169 1.321 . S
N168 Co171 2.135 . S
C169 N167 1.340 . S
C169 N168 1.321 . S
C169 H193 0.930 . S
H170 C165 0.931 . S
Co171 N168 2.135 . S
Co171 N174 2.121 . S
Co171 O179 2.055 . S
Co171 O182 2.039 . S
Co171 N185 2.140 . S
C172 O173 1.227 . S
C172 O182 1.265 . S
O173 C172 1.227 . S
N174 Co171 2.121 . S
N174 C176 1.375 . S
N174 C177 1.313 . S
C175 C176 1.338 . S
C175 N178 1.377 . S
C175 H195 0.930 . S
C176 N174 1.375 . S
C176 C175 1.338 . S
C176 H180 0.931 . S
C177 N174 1.313 . S
C177 N178 1.344 . S
C177 H181 0.930 . S
N178 C175 1.377 . S
N178 C177 1.344 . S
O179 Co171 2.055 . S
O179 C183 1.253 . S
H180 C176 0.931 . S
H181 C177 0.930 . S
O182 Co171 2.039 . S
O182 C172 1.265 . S
C183 O179 1.253 . S
C183 O184 1.227 . S
O184 C183 1.227 . S
N185 Co171 2.140 . S
N185 C188 1.346 . S
N185 C189 1.345 . S
C186 C187 1.387 . S
C186 C190 1.391 . S
C187 C186 1.387 . S
C187 C188 1.369 . S
C187 H196 0.929 . S
C188 N185 1.346 . S
C188 C187 1.369 . S
C188 H191 0.928 . S
C189 N185 1.345 . S
C189 C190 1.371 . S
C189 H192 0.931 . S
C190 C186 1.391 . S
C190 C189 1.371 . S
C190 H197 0.930 . S
H191 C188 0.928 . S
H192 C189 0.931 . S
H193 C169 0.930 . S
H194 C166 0.930 . S
H195 C175 0.930 . S
H196 C187 0.929 . S
H197 C190 0.930 . S
C198 C199 1.351 . S
C198 N201 1.368 . S
C198 H203 0.931 . S
C199 C198 1.351 . S
C199 N200 1.373 . S
C199 H227 0.930 . S
N200 C199 1.373 . S
N200 C202 1.340 . S
N201 C198 1.368 . S
N201 C202 1.321 . S
N201 Co204 2.135 . S
C202 N200 1.340 . S
C202 N201 1.321 . S
C202 H226 0.930 . S
H203 C198 0.931 . S
Co204 N201 2.135 . S
Co204 N207 2.121 . S
Co204 O212 2.055 . S
Co204 O215 2.039 . S
Co204 N218 2.140 . S
C205 O206 1.227 . S
C205 O215 1.265 . S
O206 C205 1.227 . S
N207 Co204 2.121 . S
N207 C209 1.375 . S
N207 C210 1.313 . S
C208 C209 1.338 . S
C208 N211 1.377 . S
C208 H228 0.930 . S
C209 N207 1.375 . S
C209 C208 1.338 . S
C209 H213 0.931 . S
C210 N207 1.313 . S
C210 N211 1.344 . S
C210 H214 0.930 . S
N211 C208 1.377 . S
N211 C210 1.344 . S
O212 Co204 2.055 . S
O212 C216 1.253 . S
H213 C209 0.931 . S
H214 C210 0.930 . S
O215 Co204 2.039 . S
O215 C205 1.265 . S
C216 O212 1.253 . S
C216 O217 1.227 . S
O217 C216 1.227 . S
N218 Co204 2.140 . S
N218 C221 1.346 . S
N218 C222 1.345 . S
C219 C220 1.387 . S
C219 C223 1.391 . S
C220 C219 1.387 . S
C220 C221 1.369 . S
C220 H229 0.929 . S
C221 N218 1.346 . S
C221 C220 1.369 . S
C221 H224 0.928 . S
C222 N218 1.345 . S
C222 C223 1.371 . S
C222 H225 0.931 . S
C223 C219 1.391 . S
C223 C222 1.371 . S
C223 H230 0.930 . S
H224 C221 0.928 . S
H225 C222 0.931 . S
H226 C202 0.930 . S
H227 C199 0.930 . S
H228 C208 0.930 . S
H229 C220 0.929 . S
H230 C223 0.930 . S
C231 C232 1.351 . S
C231 N234 1.368 . S
C231 H236 0.931 . S
C232 C231 1.351 . S
C232 N233 1.373 . S
C232 H260 0.932 1_556 S
N233 C232 1.373 . S
N233 C235 1.340 . S
N234 C231 1.368 . S
N234 C235 1.321 . S
N234 Co237 2.135 . S
C235 N233 1.340 . S
C235 N234 1.321 . S
C235 H259 0.930 . S
H236 C231 0.931 . S
Co237 N234 2.135 . S
Co237 N240 2.121 . S
Co237 O245 2.055 . S
Co237 O248 2.039 . S
Co237 N251 2.140 . S
C238 O239 1.227 . S
C238 O248 1.265 . S
O239 C238 1.227 . S
N240 Co237 2.121 . S
N240 C242 1.375 . S
N240 C243 1.313 . S
C241 C242 1.338 . S
C241 N244 1.377 . S
C241 H261 0.930 . S
C242 N240 1.375 . S
C242 C241 1.338 . S
C242 H246 0.931 . S
C243 N240 1.313 . S
C243 N244 1.344 . S
C243 H247 0.930 . S
N244 C241 1.377 . S
N244 C243 1.344 . S
O245 Co237 2.055 . S
O245 C249 1.253 . S
H246 C242 0.931 . S
H247 C243 0.930 . S
O248 Co237 2.039 . S
O248 C238 1.265 . S
C249 O245 1.253 . S
C249 O250 1.227 . S
O250 C249 1.227 . S
N251 Co237 2.140 . S
N251 C254 1.346 . S
N251 C255 1.345 . S
C252 C253 1.387 . S
C252 C256 1.391 . S
C253 C252 1.387 . S
C253 C254 1.369 . S
C253 H262 0.929 . S
C254 N251 1.346 . S
C254 C253 1.369 . S
C254 H257 0.928 . S
C255 N251 1.345 . S
C255 C256 1.371 . S
C255 H258 0.931 . S
C256 C252 1.391 . S
C256 C255 1.371 . S
C256 H263 0.930 . S
H257 C254 0.928 . S
H258 C255 0.931 . S
H259 C235 0.930 . S
H260 C232 0.932 1_554 S
H261 C241 0.930 . S
H262 C253 0.929 . S
H263 C256 0.930 . S
C264 C265 1.369 . S
C264 C266 1.419 . S
C264 H268 0.930 . S
C265 C264 1.369 . S
C265 C274 1.429 . S
C266 C264 1.419 . S
C266 C267 1.363 . S
C266 H269 0.929 . S
C267 C266 1.363 . S
C267 C273 1.428 . S
H268 C264 0.930 . S
H269 C266 0.929 . S
S270 N271 1.613 . S
S270 N272 1.610 . S
N271 S270 1.613 . S
N271 C274 1.350 . S
N272 S270 1.610 . S
N272 C273 1.351 . S
C273 C267 1.428 . S
C273 N272 1.351 . S
C273 C274 1.434 . S
C274 C265 1.429 . S
C274 N271 1.350 . S
C274 C273 1.434 . S
C275 C276 1.369 1_556 S
C275 C277 1.419 . S
C275 H279 0.930 . S
C276 C275 1.369 1_554 S
C276 C285 1.429 . S
C277 C275 1.419 . S
C277 C278 1.363 . S
C277 H280 0.929 . S
C278 C277 1.363 . S
C278 C284 1.428 1_556 S
H279 C275 0.930 . S
H280 C277 0.929 . S
S281 N282 1.613 . S
S281 N283 1.610 . S
N282 S281 1.613 . S
N282 C285 1.350 . S
N283 S281 1.610 . S
N283 C284 1.351 . S
C284 C278 1.428 1_554 S
C284 N283 1.351 . S
C284 C285 1.434 . S
C285 C276 1.429 . S
C285 N282 1.350 . S
C285 C284 1.434 . S
C286 C287 1.369 . S
C286 C288 1.419 . S
C286 H290 0.930 . S
C287 C286 1.369 . S
C287 C296 1.429 . S
C288 C286 1.419 . S
C288 C289 1.363 . S
C288 H291 0.929 . S
C289 C288 1.363 . S
C289 C295 1.428 . S
H290 C286 0.930 . S
H291 C288 0.929 . S
S292 N293 1.613 . S
S292 N294 1.610 . S
N293 S292 1.613 . S
N293 C296 1.350 . S
N294 S292 1.610 . S
N294 C295 1.351 . S
C295 C289 1.428 . S
C295 N294 1.351 . S
C295 C296 1.434 . S
C296 C287 1.429 . S
C296 N293 1.350 . S
C296 C295 1.434 . S
C297 C298 1.369 . S
C297 C299 1.419 1_556 S
C297 H301 0.930 . S
C298 C297 1.369 . S
C298 C307 1.429 . S
C299 C297 1.419 1_554 S
C299 C300 1.363 . S
C299 H302 0.929 . S
C300 C299 1.363 . S
C300 C306 1.428 . S
H301 C297 0.930 . S
H302 C299 0.929 . S
S303 N304 1.613 . S
S303 N305 1.610 1_556 S
N304 S303 1.613 . S
N304 C307 1.350 . S
N305 S303 1.610 1_554 S
N305 C306 1.351 . S
C306 C300 1.428 . S
C306 N305 1.351 . S
C306 C307 1.434 1_554 S
C307 C298 1.429 . S
C307 N304 1.350 . S
C307 C306 1.434 1_556 S
C308 C309 1.369 . S
C308 C310 1.419 . S
C308 H312 0.930 . S
C309 C308 1.369 . S
C309 C318 1.429 . S
C310 C308 1.419 . S
C310 C311 1.363 . S
C310 H313 0.929 . S
C311 C310 1.363 . S
C311 C317 1.428 . S
H312 C308 0.930 . S
H313 C310 0.929 . S
S314 N315 1.613 . S
S314 N316 1.610 . S
N315 S314 1.613 . S
N315 C318 1.350 . S
N316 S314 1.610 . S
N316 C317 1.351 . S
C317 C311 1.428 . S
C317 N316 1.351 . S
C317 C318 1.434 . S
C318 C309 1.429 . S
C318 N315 1.350 . S
C318 C317 1.434 . S
C319 C320 1.369 . S
C319 C321 1.419 . S
C319 H323 0.930 . S
C320 C319 1.369 . S
C320 C329 1.429 . S
C321 C319 1.419 . S
C321 C322 1.363 . S
C321 H324 0.929 . S
C322 C321 1.363 . S
C322 C328 1.428 . S
H323 C319 0.930 . S
H324 C321 0.929 . S
S325 N326 1.613 . S
S325 N327 1.610 . S
N326 S325 1.613 . S
N326 C329 1.350 . S
N327 S325 1.610 . S
N327 C328 1.351 . S
C328 C322 1.428 . S
C328 N327 1.351 . S
C328 C329 1.434 . S
C329 C320 1.429 . S
C329 N326 1.350 . S
C329 C328 1.434 . S
C330 C331 1.369 . S
C330 C332 1.419 1_455 S
C330 H334 0.930 . S
C331 C330 1.369 . S
C331 C340 1.429 . S
C332 C330 1.419 1_655 S
C332 C333 1.363 . S
C332 H335 0.929 . S
C333 C332 1.363 . S
C333 C339 1.428 . S
H334 C330 0.930 . S
H335 C332 0.929 . S
S336 N337 1.613 . S
S336 N338 1.610 1_455 S
N337 S336 1.613 . S
N337 C340 1.350 . S
N338 S336 1.610 1_655 S
N338 C339 1.351 . S
C339 C333 1.428 . S
C339 N338 1.351 . S
C339 C340 1.434 1_655 S
C340 C331 1.429 . S
C340 N337 1.350 . S
C340 C339 1.434 1_455 S
C341 C342 1.369 . S
C341 C343 1.419 . S
C341 H345 0.930 . S
C342 C341 1.369 . S
C342 C351 1.429 1_455 S
C343 C341 1.419 . S
C343 C344 1.363 1_455 S
C343 H346 0.929 . S
C344 C343 1.363 1_655 S
C344 C350 1.428 . S
H345 C341 0.930 . S
H346 C343 0.929 . S
S347 N348 1.613 . S
S347 N349 1.610 . S
N348 S347 1.613 . S
N348 C351 1.350 . S
N349 S347 1.610 . S
N349 C350 1.351 . S
C350 C344 1.428 . S
C350 N349 1.351 . S
C350 C351 1.434 . S
C351 C342 1.429 1_655 S
C351 N348 1.350 . S
C351 C350 1.434 . S
C352 C353 1.369 . S
C352 C354 1.419 . S
C352 H356 0.930 . S
C353 C352 1.369 . S
C353 C362 1.429 . S
C354 C352 1.419 . S
C354 C355 1.363 . S
C354 H357 0.929 . S
C355 C354 1.363 . S
C355 C361 1.428 . S
H356 C352 0.930 . S
H357 C354 0.929 . S
S358 N359 1.613 . S
S358 N360 1.610 . S
N359 S358 1.613 . S
N359 C362 1.350 . S
N360 S358 1.610 . S
N360 C361 1.351 . S
C361 C355 1.428 . S
C361 N360 1.351 . S
C361 C362 1.434 . S
C362 C353 1.429 . S
C362 N359 1.350 . S
C362 C361 1.434 . S
C363 C364 1.369 . S
C363 C365 1.419 . S
C363 H367 0.930 . S
C364 C363 1.369 . S
C364 C373 1.429 . S
C365 C363 1.419 . S
C365 C366 1.363 . S
C365 H368 0.929 . S
C366 C365 1.363 . S
C366 C372 1.428 . S
H367 C363 0.930 . S
H368 C365 0.929 . S
S369 N370 1.613 . S
S369 N371 1.610 . S
N370 S369 1.613 . S
N370 C373 1.350 . S
N371 S369 1.610 . S
N371 C372 1.351 . S
C372 C366 1.428 . S
C372 N371 1.351 . S
C372 C373 1.434 . S
C373 C364 1.429 . S
C373 N370 1.350 . S
C373 C372 1.434 . S
C374 C375 1.369 . S
C374 C376 1.419 . S
C374 H378 0.930 . S
C375 C374 1.369 . S
C375 C384 1.429 . S
C376 C374 1.419 . S
C376 C377 1.363 . S
C376 H379 0.929 . S
C377 C376 1.363 . S
C377 C383 1.428 . S
H378 C374 0.930 . S
H379 C376 0.929 . S
S380 N381 1.613 . S
S380 N382 1.610 . S
N381 S380 1.613 . S
N381 C384 1.350 . S
N382 S380 1.610 . S
N382 C383 1.351 . S
C383 C377 1.428 . S
C383 N382 1.351 . S
C383 C384 1.434 . S
C384 C375 1.429 . S
C384 N381 1.350 . S
C384 C383 1.434 . S
C385 C386 1.369 . S
C385 C387 1.419 . S
C385 H389 0.930 . S
C386 C385 1.369 . S
C386 C395 1.429 . S
C387 C385 1.419 . S
C387 C388 1.363 . S
C387 H390 0.929 . S
C388 C387 1.363 . S
C388 C394 1.428 . S
H389 C385 0.930 . S
H390 C387 0.929 . S
S391 N392 1.613 . S
S391 N393 1.610 . S
N392 S391 1.613 . S
N392 C395 1.350 . S
N393 S391 1.610 . S
N393 C394 1.351 . S
C394 C388 1.428 . S
C394 N393 1.351 . S
C394 C395 1.434 . S
C395 C386 1.429 . S
C395 N392 1.350 . S
C395 C394 1.434 . S
C396 C397 1.369 . S
C396 C398 1.419 . S
C396 H400 0.930 . S
C397 C396 1.369 . S
C397 C406 1.429 . S
C398 C396 1.419 . S
C398 C399 1.363 . S
C398 H401 0.929 . S
C399 C398 1.363 . S
C399 C405 1.428 . S
H400 C396 0.930 . S
H401 C398 0.929 . S
S402 N403 1.613 . S
S402 N404 1.610 . S
N403 S402 1.613 . S
N403 C406 1.350 . S
N404 S402 1.610 . S
N404 C405 1.351 . S
C405 C399 1.428 . S
C405 N404 1.351 . S
C405 C406 1.434 . S
C406 C397 1.429 . S
C406 N403 1.350 . S
C406 C405 1.434 . S
C407 C408 1.369 . S
C407 C409 1.419 . S
C407 H411 0.930 . S
C408 C407 1.369 . S
C408 C417 1.429 . S
C409 C407 1.419 . S
C409 C410 1.363 . S
C409 H412 0.929 . S
C410 C409 1.363 . S
C410 C416 1.428 . S
H411 C407 0.930 . S
H412 C409 0.929 . S
S413 N414 1.613 . S
S413 N415 1.610 . S
N414 S413 1.613 . S
N414 C417 1.350 . S
N415 S413 1.610 . S
N415 C416 1.351 . S
C416 C410 1.428 . S
C416 N415 1.351 . S
C416 C417 1.434 . S
C417 C408 1.429 . S
C417 N414 1.350 . S
C417 C416 1.434 . S
C418 C419 1.369 . S
C418 C420 1.419 . S
C418 H422 0.930 . S
C419 C418 1.369 . S
C419 C428 1.429 . S
C420 C418 1.419 . S
C420 C421 1.363 . S
C420 H423 0.929 . S
C421 C420 1.363 . S
C421 C427 1.428 . S
H422 C418 0.930 . S
H423 C420 0.929 . S
S424 N425 1.613 . S
S424 N426 1.610 . S
N425 S424 1.613 . S
N425 C428 1.350 . S
N426 S424 1.610 . S
N426 C427 1.351 . S
C427 C421 1.428 . S
C427 N426 1.351 . S
C427 C428 1.434 . S
C428 C419 1.429 . S
C428 N425 1.350 . S
C428 C427 1.434 . S
C429 C430 1.369 . S
C429 C431 1.419 . S
C429 H433 0.930 . S
C430 C429 1.369 . S
C430 C439 1.429 . S
C431 C429 1.419 . S
C431 C432 1.363 . S
C431 H434 0.929 . S
C432 C431 1.363 . S
C432 C438 1.428 . S
H433 C429 0.930 . S
H434 C431 0.929 . S
S435 N436 1.613 . S
S435 N437 1.610 . S
N436 S435 1.613 . S
N436 C439 1.350 . S
N437 S435 1.610 . S
N437 C438 1.351 . S
C438 C432 1.428 . S
C438 N437 1.351 . S
C438 C439 1.434 . S
C439 C430 1.429 . S
C439 N436 1.350 . S
C439 C438 1.434 . S
C440 C441 1.369 . S
C440 C442 1.419 . S
C440 H444 0.930 . S
C441 C440 1.369 . S
C441 C450 1.429 . S
C442 C440 1.419 . S
C442 C443 1.363 . S
C442 H445 0.929 . S
C443 C442 1.363 . S
C443 C449 1.428 1_545 S
H444 C440 0.930 . S
H445 C442 0.929 . S
S446 N447 1.613 . S
S446 N448 1.610 . S
N447 S446 1.613 . S
N447 C450 1.350 1_565 S
N448 S446 1.610 . S
N448 C449 1.351 . S
C449 C443 1.428 1_565 S
C449 N448 1.351 . S
C449 C450 1.434 1_565 S
C450 C441 1.429 . S
C450 N447 1.350 1_545 S
C450 C449 1.434 1_545 S
C451 C452 1.369 . S
C451 C453 1.419 . S
C451 H455 0.930 . S
C452 C451 1.369 . S
C452 C461 1.429 1_554 S
C453 C451 1.419 . S
C453 C454 1.363 1_554 S
C453 H456 0.929 . S
C454 C453 1.363 1_556 S
C454 C460 1.428 . S
H455 C451 0.930 . S
H456 C453 0.929 . S
S457 N458 1.613 . S
S457 N459 1.610 . S
N458 S457 1.613 . S
N458 C461 1.350 . S
N459 S457 1.610 . S
N459 C460 1.351 . S
C460 C454 1.428 . S
C460 N459 1.351 . S
C460 C461 1.434 . S
C461 C452 1.429 1_556 S
C461 N458 1.350 . S
C461 C460 1.434 . S
C462 C463 1.369 1_655 S
C462 C464 1.419 . S
C462 H466 0.930 . S
C463 C462 1.369 1_455 S
C463 C472 1.429 . S
C464 C462 1.419 . S
C464 C465 1.363 . S
C464 H467 0.929 . S
C465 C464 1.363 . S
C465 C471 1.428 . S
H466 C462 0.930 . S
H467 C464 0.929 . S
S468 N469 1.613 . S
S468 N470 1.610 1_455 S
N469 S468 1.613 . S
N469 C472 1.350 . S
N470 S468 1.610 1_655 S
N470 C471 1.351 . S
C471 C465 1.428 . S
C471 N470 1.351 . S
C471 C472 1.434 1_655 S
C472 C463 1.429 . S
C472 N469 1.350 . S
C472 C471 1.434 1_455 S
C473 C474 1.369 . S
C473 C475 1.419 1_554 S
C473 H477 0.930 . S
C474 C473 1.369 . S
C474 C483 1.429 . S
C475 C473 1.419 1_556 S
C475 C476 1.363 1_455 S
C475 H478 0.929 . S
C476 C475 1.363 1_655 S
C476 C482 1.432 . S
H477 C473 0.930 . S
H478 C475 0.929 . S
S479 N480 1.613 1_655 S
S479 N481 1.610 1_554 S
N480 S479 1.613 1_455 S
N480 C483 1.350 . S
N481 S479 1.610 1_556 S
N481 C482 1.350 . S
C482 C476 1.432 . S
C482 N481 1.350 . S
C482 C483 1.431 1_656 S
C483 C474 1.429 . S
C483 N480 1.350 . S
C483 C482 1.431 1_454 S
C265 C216 1.659 . S
C267 N13 1.615 . S
C276 N46 1.616 . S
C278 C249 1.658 . S
C287 C84 1.658 . S
C289 N145 1.615 . S
C298 C117 1.657 . S
C300 N178 1.612 . S
C309 N35 1.305 . S
C311 N2 1.303 . S
C320 C73 1.440 . S
C322 C106 1.442 . S
C331 N167 1.308 . S
C333 N134 1.307 . S
C342 C205 1.441 . S
C344 C238 1.437 . S
C353 C183 1.453 . S
C355 C21 1.458 . S
C364 C54 1.454 . S
C366 C150 1.454 . S
C375 C87 1.383 . S
C377 N244 1.361 . S
C386 N211 1.361 . S
C388 C120 1.382 . S
C397 C153 1.457 . S
C399 C51 1.456 . S
C408 C186 1.456 . S
C410 C18 1.456 . S
C419 C219 1.383 . S
C421 N112 1.365 . S
C430 N79 1.364 . S
C432 C252 1.383 . S
C441 C7 1.544 . S
C443 N68 1.525 1_545 S
C452 C40 1.548 . S
C454 N101 1.530 1_545 S
C463 N200 1.526 . S
C465 C139 1.545 . S
C474 C172 1.545 . S
C476 N233 1.526 . S
