# Generated by pormake.
# Topology uoe, (4)-cn, num edge types: 1
# Building blocks:
#     Node 0, Type 0, BuildingBlock: NAWXER_clean_sbu_0, # of connection points: 4
#     Node 1, Type 0, BuildingBlock: NAWXER_clean_sbu_0, # of connection points: 4
#     Node 2, Type 0, BuildingBlock: NAWXER_clean_sbu_0, # of connection points: 4
#     Node 3, Type 0, BuildingBlock: NAWXER_clean_sbu_0, # of connection points: 4
#     Node 4, Type 0, BuildingBlock: NAWXER_clean_sbu_0, # of connection points: 4
#     Node 5, Type 0, BuildingBlock: NAWXER_clean_sbu_0, # of connection points: 4
#     Node 6, Type 0, BuildingBlock: NAWXER_clean_sbu_0, # of connection points: 4
#     Node 7, Type 0, BuildingBlock: NAWXER_clean_sbu_0, # of connection points: 4
#     Node 8, Type 0, BuildingBlock: NAWXER_clean_sbu_0, # of connection points: 4
#     Node 9, Type 0, BuildingBlock: NAWXER_clean_sbu_0, # of connection points: 4
#     Node 10, Type 0, BuildingBlock: NAWXER_clean_sbu_0, # of connection points: 4
#     Node 11, Type 0, BuildingBlock: NAWXER_clean_sbu_0, # of connection points: 4
#     Node 12, Type 0, BuildingBlock: NAWXER_clean_sbu_0, # of connection points: 4
#     Node 13, Type 0, BuildingBlock: NAWXER_clean_sbu_0, # of connection points: 4
#     Node 14, Type 0, BuildingBlock: NAWXER_clean_sbu_0, # of connection points: 4
#     Node 15, Type 0, BuildingBlock: NAWXER_clean_sbu_0, # of connection points: 4
#     Node 16, Type 0, BuildingBlock: NAWXER_clean_sbu_0, # of connection points: 4
#     Node 17, Type 0, BuildingBlock: NAWXER_clean_sbu_0, # of connection points: 4
#     Node 18, Type 0, BuildingBlock: NAWXER_clean_sbu_0, # of connection points: 4
#     Node 19, Type 0, BuildingBlock: NAWXER_clean_sbu_0, # of connection points: 4
#     Node 20, Type 0, BuildingBlock: NAWXER_clean_sbu_0, # of connection points: 4
#     Node 21, Type 0, BuildingBlock: NAWXER_clean_sbu_0, # of connection points: 4
#     Node 22, Type 0, BuildingBlock: NAWXER_clean_sbu_0, # of connection points: 4
#     Node 23, Type 0, BuildingBlock: NAWXER_clean_sbu_0, # of connection points: 4
#     Node 24, Type 0, BuildingBlock: NAWXER_clean_sbu_0, # of connection points: 4
#     Node 25, Type 0, BuildingBlock: NAWXER_clean_sbu_0, # of connection points: 4
#     Node 26, Type 0, BuildingBlock: NAWXER_clean_sbu_0, # of connection points: 4
#     Node 27, Type 0, BuildingBlock: NAWXER_clean_sbu_0, # of connection points: 4
#     Node 28, Type 0, BuildingBlock: NAWXER_clean_sbu_0, # of connection points: 4
#     Node 29, Type 0, BuildingBlock: NAWXER_clean_sbu_0, # of connection points: 4
#     Node 30, Type 0, BuildingBlock: NAWXER_clean_sbu_0, # of connection points: 4
#     Node 31, Type 0, BuildingBlock: NAWXER_clean_sbu_0, # of connection points: 4
#     Edge 32, Type (0, 0), BuildingBlock: ZUJKAS_clean_linker_0, # of connection points: 2
#     Edge 33, Type (0, 0), BuildingBlock: ZUJKAS_clean_linker_0, # of connection points: 2
#     Edge 34, Type (0, 0), BuildingBlock: ZUJKAS_clean_linker_0, # of connection points: 2
#     Edge 35, Type (0, 0), BuildingBlock: ZUJKAS_clean_linker_0, # of connection points: 2
#     Edge 36, Type (0, 0), BuildingBlock: ZUJKAS_clean_linker_0, # of connection points: 2
#     Edge 37, Type (0, 0), BuildingBlock: ZUJKAS_clean_linker_0, # of connection points: 2
#     Edge 38, Type (0, 0), BuildingBlock: ZUJKAS_clean_linker_0, # of connection points: 2
#     Edge 39, Type (0, 0), BuildingBlock: ZUJKAS_clean_linker_0, # of connection points: 2
#     Edge 40, Type (0, 0), BuildingBlock: ZUJKAS_clean_linker_0, # of connection points: 2
#     Edge 41, Type (0, 0), BuildingBlock: ZUJKAS_clean_linker_0, # of connection points: 2
#     Edge 42, Type (0, 0), BuildingBlock: ZUJKAS_clean_linker_0, # of connection points: 2
#     Edge 43, Type (0, 0), BuildingBlock: ZUJKAS_clean_linker_0, # of connection points: 2
#     Edge 44, Type (0, 0), BuildingBlock: ZUJKAS_clean_linker_0, # of connection points: 2
#     Edge 45, Type (0, 0), BuildingBlock: ZUJKAS_clean_linker_0, # of connection points: 2
#     Edge 46, Type (0, 0), BuildingBlock: ZUJKAS_clean_linker_0, # of connection points: 2
#     Edge 47, Type (0, 0), BuildingBlock: ZUJKAS_clean_linker_0, # of connection points: 2
#     Edge 48, Type (0, 0), BuildingBlock: ZUJKAS_clean_linker_0, # of connection points: 2
#     Edge 49, Type (0, 0), BuildingBlock: ZUJKAS_clean_linker_0, # of connection points: 2
#     Edge 50, Type (0, 0), BuildingBlock: ZUJKAS_clean_linker_0, # of connection points: 2
#     Edge 51, Type (0, 0), BuildingBlock: ZUJKAS_clean_linker_0, # of connection points: 2
#     Edge 52, Type (0, 0), BuildingBlock: ZUJKAS_clean_linker_0, # of connection points: 2
#     Edge 53, Type (0, 0), BuildingBlock: ZUJKAS_clean_linker_0, # of connection points: 2
#     Edge 54, Type (0, 0), BuildingBlock: ZUJKAS_clean_linker_0, # of connection points: 2
#     Edge 55, Type (0, 0), BuildingBlock: ZUJKAS_clean_linker_0, # of connection points: 2
#     Edge 56, Type (0, 0), BuildingBlock: ZUJKAS_clean_linker_0, # of connection points: 2
#     Edge 57, Type (0, 0), BuildingBlock: ZUJKAS_clean_linker_0, # of connection points: 2
#     Edge 58, Type (0, 0), BuildingBlock: ZUJKAS_clean_linker_0, # of connection points: 2
#     Edge 59, Type (0, 0), BuildingBlock: ZUJKAS_clean_linker_0, # of connection points: 2
#     Edge 60, Type (0, 0), BuildingBlock: ZUJKAS_clean_linker_0, # of connection points: 2
#     Edge 61, Type (0, 0), BuildingBlock: ZUJKAS_clean_linker_0, # of connection points: 2
#     Edge 62, Type (0, 0), BuildingBlock: ZUJKAS_clean_linker_0, # of connection points: 2
#     Edge 63, Type (0, 0), BuildingBlock: ZUJKAS_clean_linker_0, # of connection points: 2
#     Edge 64, Type (0, 0), BuildingBlock: ZUJKAS_clean_linker_0, # of connection points: 2
#     Edge 65, Type (0, 0), BuildingBlock: ZUJKAS_clean_linker_0, # of connection points: 2
#     Edge 66, Type (0, 0), BuildingBlock: ZUJKAS_clean_linker_0, # of connection points: 2
#     Edge 67, Type (0, 0), BuildingBlock: ZUJKAS_clean_linker_0, # of connection points: 2
#     Edge 68, Type (0, 0), BuildingBlock: ZUJKAS_clean_linker_0, # of connection points: 2
#     Edge 69, Type (0, 0), BuildingBlock: ZUJKAS_clean_linker_0, # of connection points: 2
#     Edge 70, Type (0, 0), BuildingBlock: ZUJKAS_clean_linker_0, # of connection points: 2
#     Edge 71, Type (0, 0), BuildingBlock: ZUJKAS_clean_linker_0, # of connection points: 2
#     Edge 72, Type (0, 0), BuildingBlock: ZUJKAS_clean_linker_0, # of connection points: 2
#     Edge 73, Type (0, 0), BuildingBlock: ZUJKAS_clean_linker_0, # of connection points: 2
#     Edge 74, Type (0, 0), BuildingBlock: ZUJKAS_clean_linker_0, # of connection points: 2
#     Edge 75, Type (0, 0), BuildingBlock: ZUJKAS_clean_linker_0, # of connection points: 2
#     Edge 76, Type (0, 0), BuildingBlock: ZUJKAS_clean_linker_0, # of connection points: 2
#     Edge 77, Type (0, 0), BuildingBlock: ZUJKAS_clean_linker_0, # of connection points: 2
#     Edge 78, Type (0, 0), BuildingBlock: ZUJKAS_clean_linker_0, # of connection points: 2
#     Edge 79, Type (0, 0), BuildingBlock: ZUJKAS_clean_linker_0, # of connection points: 2
#     Edge 80, Type (0, 0), BuildingBlock: ZUJKAS_clean_linker_0, # of connection points: 2
#     Edge 81, Type (0, 0), BuildingBlock: ZUJKAS_clean_linker_0, # of connection points: 2
#     Edge 82, Type (0, 0), BuildingBlock: ZUJKAS_clean_linker_0, # of connection points: 2
#     Edge 83, Type (0, 0), BuildingBlock: ZUJKAS_clean_linker_0, # of connection points: 2
#     Edge 84, Type (0, 0), BuildingBlock: ZUJKAS_clean_linker_0, # of connection points: 2
#     Edge 85, Type (0, 0), BuildingBlock: ZUJKAS_clean_linker_0, # of connection points: 2
#     Edge 86, Type (0, 0), BuildingBlock: ZUJKAS_clean_linker_0, # of connection points: 2
#     Edge 87, Type (0, 0), BuildingBlock: ZUJKAS_clean_linker_0, # of connection points: 2
#     Edge 88, Type (0, 0), BuildingBlock: ZUJKAS_clean_linker_0, # of connection points: 2
#     Edge 89, Type (0, 0), BuildingBlock: ZUJKAS_clean_linker_0, # of connection points: 2
#     Edge 90, Type (0, 0), BuildingBlock: ZUJKAS_clean_linker_0, # of connection points: 2
#     Edge 91, Type (0, 0), BuildingBlock: ZUJKAS_clean_linker_0, # of connection points: 2
#     Edge 92, Type (0, 0), BuildingBlock: ZUJKAS_clean_linker_0, # of connection points: 2
#     Edge 93, Type (0, 0), BuildingBlock: ZUJKAS_clean_linker_0, # of connection points: 2
#     Edge 94, Type (0, 0), BuildingBlock: ZUJKAS_clean_linker_0, # of connection points: 2
#     Edge 95, Type (0, 0), BuildingBlock: ZUJKAS_clean_linker_0, # of connection points: 2
# Relax obj value: 0.105
# Max RMSD: 0.239
# Mean RMSD: 0.239
data_MOF--net-uoe--node1-NAWXER_clean_sbu_0--edge1-ZUJKAS_clean_linker_0
_symmetry_space_group_name_H-M    P1
_symmetry_Int_Tables_number       1
_symmetry_cell_setting            triclinic
loop_
_symmetry_equiv_pos_as_xyz
'x, y, z'
_cell_length_a     96.307016
_cell_length_b     96.332295
_cell_length_c     37.273603
_cell_angle_alpha  90.005432
_cell_angle_beta   89.996311
_cell_angle_gamma 90.000645
loop_
_atom_site_label
_atom_site_type_symbol
_atom_site_fract_x
_atom_site_fract_y
_atom_site_fract_z
_atom_type_partial_charge
C0 C 0.11247 0.4492 0.08018 0.0
C1 C 0.06973 0.47401 0.05461 0.0
O2 O 0.11468 0.46231 0.07798 0.0
Zn3 Zn 0.1026 0.48031 0.06311 0.0
O4 O 0.10069 0.44447 0.07122 0.0
Zn5 Zn 0.09149 0.46187 0.06227 0.0
O6 O 0.0981 0.46888 0.00978 0.0
O7 O 0.11075 0.48745 0.02026 0.0
O8 O 0.07178 0.46101 0.05666 0.0
O9 O 0.08015 0.48234 0.05602 0.0
O10 O 0.10511 0.49158 0.10438 0.0
O11 O 0.09298 0.47246 0.11417 0.0
C12 C 0.10557 0.47894 -0.00188 0.0
C13 C 0.09849 0.48376 0.12583 0.0
C14 C 0.77573 0.82076 0.30314 0.0
C15 C 0.79822 0.86459 0.33158 0.0
O16 O 0.76689 0.83062 0.30721 0.0
Zn17 Zn 0.76757 0.85284 0.31688 0.0
O18 O 0.78863 0.82355 0.30332 0.0
Zn19 Zn 0.7868 0.84316 0.3118 0.0
O20 O 0.77726 0.84295 0.36532 0.0
O21 O 0.75707 0.8537 0.35976 0.0
O22 O 0.80373 0.85359 0.31945 0.0
O23 O 0.78495 0.86572 0.33185 0.0
O24 O 0.75899 0.86122 0.27612 0.0
O25 O 0.77835 0.85053 0.26161 0.0
C26 C 0.76586 0.84737 0.37922 0.0
C27 C 0.7675 0.85735 0.25226 0.0
C28 C 0.40505 0.51686 0.62761 0.0
C29 C 0.39625 0.52027 0.50021 0.0
O30 O 0.40975 0.52835 0.61491 0.0
Zn31 Zn 0.41017 0.53855 0.5622 0.0
O32 O 0.3988 0.50839 0.60704 0.0
Zn33 Zn 0.40019 0.51941 0.56506 0.0
O34 O 0.42254 0.5186 0.55665 0.0
O35 O 0.42983 0.54031 0.55519 0.0
O36 O 0.39189 0.5116 0.52308 0.0
O37 O 0.40331 0.53079 0.51082 0.0
O38 O 0.39983 0.55551 0.57051 0.0
O39 O 0.38742 0.53673 0.58077 0.0
C40 C 0.43251 0.5274 0.55401 0.0
C41 C 0.38868 0.54997 0.58159 0.0
C42 C 0.73371 0.15178 0.87626 0.0
C43 C 0.72926 0.14518 0.74824 0.0
O44 O 0.72251 0.15741 0.86443 0.0
Zn45 Zn 0.71209 0.15916 0.81236 0.0
O46 O 0.74157 0.14518 0.85486 0.0
Zn47 Zn 0.73046 0.14792 0.81337 0.0
O48 O 0.73267 0.17037 0.80683 0.0
O49 O 0.71139 0.17887 0.80714 0.0
O50 O 0.73766 0.13986 0.77044 0.0
O51 O 0.71921 0.15267 0.75988 0.0
O52 O 0.69459 0.15006 0.82088 0.0
O53 O 0.71233 0.13594 0.82775 0.0
C54 C 0.72441 0.18085 0.80542 0.0
C55 C 0.69923 0.13823 0.82981 0.0
C56 C 0.09856 0.51704 0.50042 0.0
C57 C 0.10551 0.52084 0.62847 0.0
O58 O 0.09302 0.52821 0.51272 0.0
Zn59 Zn 0.09147 0.53839 0.56511 0.0
O60 O 0.10517 0.50903 0.52145 0.0
Zn61 Zn 0.10258 0.51994 0.56338 0.0
O62 O 0.08012 0.51785 0.57021 0.0
O63 O 0.07176 0.53919 0.57072 0.0
O64 O 0.11068 0.51247 0.60597 0.0
O65 O 0.09806 0.531 0.61723 0.0
O66 O 0.10069 0.55586 0.557 0.0
O67 O 0.11466 0.53805 0.5495 0.0
C68 C 0.0697 0.52618 0.57206 0.0
C69 C 0.11247 0.55117 0.54786 0.0
C70 C 0.7302 0.85688 0.88064 0.0
C71 C 0.73585 0.84766 0.75414 0.0
O72 O 0.71992 0.84965 0.86915 0.0
Zn73 Zn 0.71338 0.84199 0.81722 0.0
O74 O 0.73923 0.86111 0.85854 0.0
Zn75 Zn 0.73208 0.85269 0.81618 0.0
O76 O 0.71435 0.86495 0.79971 0.0
O77 O 0.69622 0.8513 0.80622 0.0
O78 O 0.74363 0.85448 0.77526 0.0
O79 O 0.72436 0.84255 0.76576 0.0
O80 O 0.71223 0.82235 0.82493 0.0
O81 O 0.73368 0.83038 0.82497 0.0
C82 C 0.70123 0.86292 0.79689 0.0
C83 C 0.7252 0.82011 0.82712 0.0
C84 C 0.38824 0.45131 0.04691 0.0
C85 C 0.43133 0.47517 0.07524 0.0
O86 O 0.3864 0.46446 0.04909 0.0
Zn87 Zn 0.39869 0.48213 0.06514 0.0
O88 O 0.39978 0.4462 0.05665 0.0
Zn89 Zn 0.40939 0.4634 0.06635 0.0
O90 O 0.40241 0.47037 0.11847 0.0
O91 O 0.39031 0.48928 0.10773 0.0
O92 O 0.42907 0.4622 0.07307 0.0
O93 O 0.42107 0.48367 0.07338 0.0
O94 O 0.39679 0.49353 0.0239 0.0
O95 O 0.40858 0.47416 0.01459 0.0
C96 C 0.39505 0.48055 0.12993 0.0
C97 C 0.40344 0.4856 0.00276 0.0
C98 C 0.77675 0.18043 0.321 0.0
C99 C 0.80197 0.13772 0.29799 0.0
O100 O 0.76848 0.16996 0.31967 0.0
Zn101 Zn 0.7707 0.14747 0.3136 0.0
O102 O 0.78977 0.17845 0.31959 0.0
Zn103 Zn 0.78905 0.15871 0.31473 0.0
O104 O 0.77874 0.15689 0.26252 0.0
O105 O 0.75968 0.14464 0.27205 0.0
O106 O 0.80658 0.14958 0.30675 0.0
O107 O 0.78887 0.13543 0.29979 0.0
O108 O 0.76336 0.13955 0.35651 0.0
O109 O 0.78177 0.15239 0.36723 0.0
C110 C 0.76755 0.15123 0.25065 0.0
C111 C 0.77168 0.14493 0.37879 0.0
C112 C 0.90224 0.51587 0.00309 0.0
C113 C 0.89392 0.5214 0.13016 0.0
O114 O 0.89558 0.50807 0.0245 0.0
Zn115 Zn 0.89758 0.51961 0.0654 0.0
O116 O 0.90748 0.52732 0.0146 0.0
Zn117 Zn 0.9084 0.53824 0.06623 0.0
O118 O 0.92806 0.53939 0.07293 0.0
O119 O 0.91996 0.51795 0.07376 0.0
O120 O 0.90139 0.53148 0.11855 0.0
O121 O 0.8891 0.51266 0.10808 0.0
O122 O 0.88542 0.53733 0.04887 0.0
O123 O 0.89896 0.55548 0.05623 0.0
C124 C 0.93026 0.52642 0.07546 0.0
C125 C 0.88739 0.55046 0.04648 0.0
C126 C 0.23213 0.14468 0.87656 0.0
C127 C 0.23398 0.15333 0.74901 0.0
O128 O 0.24045 0.14033 0.85282 0.0
Zn129 Zn 0.23207 0.14861 0.81183 0.0
O130 O 0.22152 0.15184 0.86694 0.0
Zn131 Zn 0.21343 0.15926 0.81619 0.0
O132 O 0.19602 0.14989 0.80876 0.0
O133 O 0.21396 0.13629 0.7989 0.0
O134 O 0.22286 0.1585 0.76268 0.0
O135 O 0.2424 0.1467 0.76885 0.0
O136 O 0.23385 0.17094 0.82018 0.0
O137 O 0.21242 0.1789 0.82373 0.0
C138 C 0.20078 0.13828 0.79851 0.0
C139 C 0.22541 0.18118 0.82381 0.0
C140 C 0.609 0.48032 0.63012 0.0
C141 C 0.59978 0.48414 0.50306 0.0
O142 O 0.61349 0.48892 0.6072 0.0
Zn143 Zn 0.6049 0.48132 0.56546 0.0
O144 O 0.60153 0.47006 0.61957 0.0
Zn145 Zn 0.59363 0.46293 0.56852 0.0
O146 O 0.60251 0.44538 0.55902 0.0
O147 O 0.61664 0.46305 0.55122 0.0
O148 O 0.5942 0.47314 0.51618 0.0
O149 O 0.60714 0.49194 0.52289 0.0
O150 O 0.58261 0.48365 0.5743 0.0
O151 O 0.57402 0.46243 0.57676 0.0
C152 C 0.61429 0.44996 0.54952 0.0
C153 C 0.57213 0.47548 0.57758 0.0
C154 C 0.26731 0.84669 0.25357 0.0
C155 C 0.27119 0.85576 0.3805 0.0
O156 O 0.25919 0.85332 0.27423 0.0
Zn157 Zn 0.27029 0.85164 0.31589 0.0
O158 O 0.27873 0.84169 0.26598 0.0
Zn159 Zn 0.28906 0.84119 0.3185 0.0
O160 O 0.29042 0.82158 0.32612 0.0
O161 O 0.26887 0.8293 0.3245 0.0
O162 O 0.28171 0.84864 0.37 0.0
O163 O 0.2625 0.85998 0.35752 0.0
O164 O 0.28804 0.86409 0.30063 0.0
O165 O 0.30624 0.85069 0.30908 0.0
C166 C 0.27747 0.81916 0.3273 0.0
C167 C 0.30122 0.86221 0.29898 0.0
C168 C 0.90159 0.48406 0.62792 0.0
C169 C 0.89366 0.48093 0.50005 0.0
O170 O 0.89513 0.49237 0.60739 0.0
Zn171 Zn 0.89716 0.4816 0.56497 0.0
O172 O 0.90673 0.47279 0.61505 0.0
Zn173 Zn 0.90772 0.46282 0.56236 0.0
O174 O 0.92738 0.46153 0.55581 0.0
O175 O 0.91958 0.48307 0.55723 0.0
O176 O 0.90085 0.47049 0.51076 0.0
O177 O 0.88902 0.48946 0.52291 0.0
O178 O 0.88463 0.46377 0.57869 0.0
O179 O 0.89807 0.44559 0.57054 0.0
C180 C 0.92976 0.47449 0.55472 0.0
C181 C 0.88645 0.45059 0.58002 0.0
C182 C 0.26563 0.15219 0.3744 0.0
C183 C 0.27099 0.14346 0.24761 0.0
O184 O 0.25787 0.14539 0.35319 0.0
Zn185 Zn 0.26936 0.14734 0.31225 0.0
O186 O 0.27708 0.1574 0.3628 0.0
Zn187 Zn 0.28796 0.15813 0.31108 0.0
O188 O 0.28909 0.17776 0.30377 0.0
O189 O 0.26765 0.1697 0.30376 0.0
O190 O 0.28126 0.15073 0.25901 0.0
O191 O 0.26215 0.13899 0.26988 0.0
O192 O 0.2872 0.13515 0.32845 0.0
O193 O 0.3052 0.14893 0.32142 0.0
C194 C 0.27612 0.17998 0.30167 0.0
C195 C 0.30032 0.13727 0.33094 0.0
C196 C 0.60836 0.518 0.00175 0.0
C197 C 0.59839 0.51523 0.12856 0.0
O198 O 0.61233 0.50937 0.02519 0.0
Zn199 Zn 0.60382 0.51752 0.06636 0.0
O200 O 0.60135 0.52867 0.01163 0.0
Zn201 Zn 0.5938 0.53659 0.06223 0.0
O202 O 0.60394 0.55364 0.07079 0.0
O203 O 0.61641 0.53497 0.08194 0.0
O204 O 0.59361 0.52658 0.11522 0.0
O205 O 0.60508 0.50682 0.10881 0.0
O206 O 0.58156 0.51654 0.05669 0.0
O207 O 0.57422 0.53821 0.05362 0.0
C208 C 0.61507 0.54821 0.08239 0.0
C209 C 0.57159 0.52529 0.05292 0.0
C210 C 0.22639 0.82069 0.80457 0.0
C211 C 0.20197 0.86345 0.83231 0.0
O212 O 0.2134 0.82295 0.80549 0.0
Zn213 Zn 0.21447 0.84257 0.8132 0.0
O214 O 0.23486 0.83094 0.80765 0.0
Zn215 Zn 0.23313 0.85327 0.81629 0.0
O216 O 0.24397 0.85509 0.85847 0.0
O217 O 0.22456 0.84318 0.86588 0.0
O218 O 0.21513 0.8655 0.83097 0.0
O219 O 0.19714 0.85186 0.82215 0.0
O220 O 0.22193 0.85008 0.76199 0.0
O221 O 0.24098 0.86165 0.77467 0.0
C222 C 0.23583 0.84833 0.87877 0.0
C223 C 0.23239 0.85729 0.75159 0.0
C224 C 0.5712 0.97496 0.55488 0.0
C225 C 0.61411 0.95051 0.58093 0.0
O226 O 0.58153 0.9834 0.55669 0.0
Zn227 Zn 0.60399 0.98158 0.5641 0.0
O228 O 0.57339 0.96198 0.55663 0.0
Zn229 Zn 0.59306 0.96303 0.56271 0.0
O230 O 0.59428 0.97352 0.61479 0.0
O231 O 0.60629 0.99275 0.6057 0.0
O232 O 0.6024 0.94569 0.57166 0.0
O233 O 0.61621 0.96364 0.57896 0.0
O234 O 0.61218 0.98889 0.52139 0.0
O235 O 0.59981 0.97017 0.51047 0.0
C236 C 0.59965 0.98482 0.62683 0.0
C237 C 0.60719 0.98034 0.49906 0.0
C238 C 0.27677 0.32121 0.80628 0.0
C239 C 0.30069 0.36458 0.83101 0.0
O240 O 0.26822 0.33143 0.80842 0.0
Zn241 Zn 0.26971 0.35387 0.81565 0.0
O242 O 0.28975 0.32355 0.80747 0.0
Zn243 Zn 0.28849 0.34325 0.8134 0.0
O244 O 0.27837 0.34439 0.86598 0.0
O245 O 0.25881 0.35598 0.85773 0.0
O246 O 0.30574 0.35302 0.82122 0.0
O247 O 0.28749 0.36634 0.82981 0.0
O248 O 0.26199 0.3619 0.77323 0.0
O249 O 0.28079 0.34975 0.76156 0.0
C250 C 0.26705 0.34956 0.87852 0.0
C251 C 0.27043 0.35696 0.75055 0.0
C252 C 0.89484 0.02101 -0.00187 0.0
C253 C 0.90364 0.01657 0.12553 0.0
O254 O 0.90243 0.0311 0.00913 0.0
Zn255 Zn 0.90977 0.03819 0.06082 0.0
O256 O 0.88997 0.0125 0.02074 0.0
Zn257 Zn 0.89858 0.01977 0.06308 0.0
O258 O 0.88674 0.03783 0.07831 0.0
O259 O 0.90069 0.05564 0.07058 0.0
O260 O 0.89638 0.00882 0.10529 0.0
O261 O 0.90917 0.02768 0.11284 0.0
O262 O 0.92936 0.03901 0.05328 0.0
O263 O 0.92099 0.01767 0.05442 0.0
C264 C 0.88899 0.05093 0.08029 0.0
C265 C 0.93139 0.02599 0.05179 0.0
C266 C 0.23004 0.64294 0.24794 0.0
C267 C 0.23491 0.65164 0.37531 0.0
O268 O 0.22014 0.65074 0.25912 0.0
Zn269 Zn 0.21329 0.65819 0.31086 0.0
O270 O 0.23846 0.63784 0.27043 0.0
Zn271 Zn 0.23147 0.64658 0.31294 0.0
O272 O 0.21317 0.63516 0.32839 0.0
O273 O 0.19567 0.6495 0.32079 0.0
O274 O 0.24244 0.64415 0.35507 0.0
O275 O 0.2239 0.65739 0.3627 0.0
O276 O 0.2129 0.67777 0.30336 0.0
O277 O 0.23406 0.66894 0.30434 0.0
C278 C 0.20012 0.6377 0.33049 0.0
C279 C 0.22596 0.67952 0.30181 0.0
C280 C 0.56928 0.02704 0.07465 0.0
C281 C 0.61202 0.05168 0.04806 0.0
O282 O 0.57962 0.01863 0.07243 0.0
Zn283 Zn 0.60203 0.02054 0.06454 0.0
O284 O 0.57143 0.04003 0.07308 0.0
Zn285 Zn 0.59109 0.03906 0.06651 0.0
O286 O 0.59223 0.02877 0.01409 0.0
O287 O 0.60423 0.00949 0.02277 0.0
O288 O 0.60033 0.05645 0.05771 0.0
O289 O 0.61415 0.03855 0.04975 0.0
O290 O 0.6104 0.01311 0.10679 0.0
O291 O 0.5981 0.03181 0.11847 0.0
C292 C 0.59759 0.01749 0.00181 0.0
C293 C 0.60555 0.0216 0.12944 0.0
C294 C 0.23417 0.34838 0.25317 0.0
C295 C 0.22893 0.35572 0.38066 0.0
O296 O 0.22288 0.34281 0.2647 0.0
Zn297 Zn 0.21215 0.34135 0.31645 0.0
O298 O 0.24186 0.35513 0.27466 0.0
Zn299 Zn 0.2305 0.35259 0.31573 0.0
O300 O 0.23269 0.33015 0.32297 0.0
O301 O 0.21141 0.32166 0.3223 0.0
O302 O 0.23746 0.3609 0.35858 0.0
O303 O 0.21895 0.34813 0.36897 0.0
O304 O 0.19469 0.35038 0.30703 0.0
O305 O 0.21245 0.36449 0.30028 0.0
C306 C 0.22442 0.31969 0.32439 0.0
C307 C 0.19936 0.36217 0.2979 0.0
C308 C 0.89456 0.98151 0.62715 0.0
C309 C 0.90409 0.98527 0.49995 0.0
O310 O 0.90174 0.97107 0.61653 0.0
Zn311 Zn 0.90879 0.96342 0.56522 0.0
O312 O 0.89011 0.99012 0.60424 0.0
Zn313 Zn 0.89866 0.98247 0.56219 0.0
O314 O 0.88613 0.96515 0.54553 0.0
O315 O 0.89856 0.94642 0.55606 0.0
O316 O 0.89736 0.99352 0.5201 0.0
O317 O 0.9089 0.97385 0.5128 0.0
O318 O 0.92837 0.96166 0.57312 0.0
O319 O 0.92103 0.98338 0.57157 0.0
C320 C 0.88747 0.95192 0.5445 0.0
C321 C 0.93101 0.97458 0.57457 0.0
C322 C 0.29938 0.63693 0.79519 0.0
C323 C 0.27633 0.68027 0.82455 0.0
O324 O 0.28615 0.6355 0.79577 0.0
Zn325 Zn 0.26866 0.64791 0.81205 0.0
O326 O 0.30475 0.64804 0.80705 0.0
Zn327 Zn 0.28765 0.65811 0.81567 0.0
O328 O 0.27984 0.65097 0.86671 0.0
O329 O 0.26087 0.6393 0.85384 0.0
O330 O 0.28926 0.67768 0.82361 0.0
O331 O 0.26758 0.67026 0.82127 0.0
O332 O 0.25779 0.64653 0.76969 0.0
O333 O 0.27746 0.65813 0.76286 0.0
C334 C 0.26939 0.64373 0.87701 0.0
C335 C 0.26611 0.65325 0.74971 0.0
C336 C 0.38839 0.05093 0.54745 0.0
C337 C 0.43103 0.02599 0.57359 0.0
O338 O 0.40015 0.05564 0.55668 0.0
Zn339 Zn 0.40933 0.03818 0.56558 0.0
O340 O 0.38619 0.03782 0.54925 0.0
Zn341 Zn 0.39818 0.01974 0.56351 0.0
O342 O 0.38982 0.01233 0.60591 0.0
O343 O 0.40234 0.03091 0.61745 0.0
O344 O 0.42063 0.01766 0.57127 0.0
O345 O 0.42897 0.03901 0.57225 0.0
O346 O 0.40834 0.02784 0.51337 0.0
O347 O 0.39571 0.00891 0.52133 0.0
C348 C 0.39483 0.02077 0.62851 0.0
C349 C 0.40274 0.01674 0.50079 0.0
C350 C 0.73333 0.64324 0.37576 0.0
C351 C 0.73669 0.65362 0.24905 0.0
O352 O 0.74207 0.63926 0.35258 0.0
Zn353 Zn 0.73415 0.64787 0.3111 0.0
O354 O 0.72274 0.65031 0.36556 0.0
Zn355 Zn 0.71509 0.65801 0.31497 0.0
O356 O 0.69803 0.64798 0.30566 0.0
O357 O 0.71668 0.63545 0.29475 0.0
O358 O 0.72532 0.65837 0.26237 0.0
O359 O 0.745 0.64673 0.26867 0.0
O360 O 0.73521 0.67011 0.32103 0.0
O361 O 0.71357 0.67758 0.32387 0.0
C362 C 0.70345 0.63687 0.29394 0.0
C363 C 0.72651 0.68013 0.32474 0.0
C364 C 0.11416 0.94988 0.04931 0.0
C365 C 0.07132 0.97466 0.07423 0.0
O366 O 0.1024 0.94513 0.0584 0.0
Zn367 Zn 0.0931 0.96256 0.067 0.0
O368 O 0.1163 0.963 0.05107 0.0
Zn369 Zn 0.1042 0.98103 0.06501 0.0
O370 O 0.11233 0.98854 0.1076 0.0
O371 O 0.09978 0.96997 0.11899 0.0
O372 O 0.0817 0.98303 0.07212 0.0
O373 O 0.07343 0.96165 0.07312 0.0
O374 O 0.0942 0.97286 0.01476 0.0
O375 O 0.10677 0.99183 0.02279 0.0
C376 C 0.10721 0.98016 0.13016 0.0
C377 C 0.0998 0.98396 0.0022 0.0
C378 C 0.76789 0.35757 0.87581 0.0
C379 C 0.76584 0.34806 0.74864 0.0
O380 O 0.75935 0.36158 0.85218 0.0
Zn381 Zn 0.76778 0.35323 0.81126 0.0
O382 O 0.77863 0.3506 0.86615 0.0
Zn383 Zn 0.78669 0.34301 0.81561 0.0
O384 O 0.80385 0.3527 0.80744 0.0
O385 O 0.78559 0.36586 0.79746 0.0
O386 O 0.7771 0.34324 0.76235 0.0
O387 O 0.7573 0.35461 0.76834 0.0
O388 O 0.76653 0.33094 0.82065 0.0
O389 O 0.78814 0.32344 0.82397 0.0
C390 C 0.7988 0.36415 0.79686 0.0
C391 C 0.7752 0.32091 0.82449 0.0
C392 C 0.40145 0.98403 0.12681 0.0
C393 C 0.39354 0.97997 -0.00093 0.0
O394 O 0.39427 0.99179 0.10641 0.0
Zn395 Zn 0.39676 0.98097 0.06414 0.0
O396 O 0.40711 0.97299 0.11415 0.0
Zn397 Zn 0.40809 0.96262 0.06202 0.0
O398 O 0.42773 0.96194 0.05528 0.0
O399 O 0.41921 0.98322 0.05627 0.0
O400 O 0.40112 0.96989 0.01021 0.0
O401 O 0.38838 0.98832 0.02164 0.0
O402 O 0.38494 0.96281 0.07845 0.0
O403 O 0.39903 0.9451 0.07096 0.0
C404 C 0.42967 0.97497 0.0539 0.0
C405 C 0.38724 0.94972 0.08025 0.0
C406 C 0.76664 0.65304 0.87527 0.0
C407 C 0.77004 0.64343 0.74822 0.0
O408 O 0.75857 0.64591 0.85559 0.0
Zn409 Zn 0.76926 0.64766 0.81297 0.0
O410 O 0.77782 0.6582 0.86197 0.0
Zn411 Zn 0.78801 0.65832 0.80946 0.0
O412 O 0.7891 0.67793 0.80115 0.0
O413 O 0.76763 0.66997 0.80391 0.0
O414 O 0.78051 0.65064 0.75855 0.0
O415 O 0.7614 0.63919 0.77133 0.0
O416 O 0.78711 0.63546 0.82779 0.0
O417 O 0.8053 0.64881 0.81875 0.0
C418 C 0.7761 0.6802 0.8005 0.0
C419 C 0.80029 0.63731 0.82909 0.0
C420 C 0.0994 0.01713 0.62832 0.0
C421 C 0.10697 0.02151 0.50054 0.0
O422 O 0.10657 0.00948 0.60766 0.0
Zn423 Zn 0.10387 0.02036 0.56562 0.0
O424 O 0.09359 0.02815 0.61593 0.0
Zn425 Zn 0.09236 0.03859 0.56393 0.0
O426 O 0.0727 0.03907 0.55753 0.0
O427 O 0.08144 0.01788 0.558 0.0
O428 O 0.09931 0.0315 0.51186 0.0
O429 O 0.11225 0.01318 0.52296 0.0
O430 O 0.11555 0.03861 0.58002 0.0
O431 O 0.10127 0.05619 0.57303 0.0
C432 C 0.07088 0.02602 0.55592 0.0
C433 C 0.11312 0.05167 0.58208 0.0
C434 C 0.70045 0.36269 0.3307 0.0
C435 C 0.72463 0.32007 0.3001 0.0
O436 O 0.69553 0.35106 0.32103 0.0
Zn437 Zn 0.71276 0.34187 0.31027 0.0
O438 O 0.71357 0.36479 0.32812 0.0
Zn439 Zn 0.73138 0.35266 0.31163 0.0
O440 O 0.73855 0.36121 0.26954 0.0
O441 O 0.71943 0.34952 0.25836 0.0
O442 O 0.73309 0.33036 0.30244 0.0
O443 O 0.71166 0.32226 0.30241 0.0
O444 O 0.72366 0.34242 0.36194 0.0
O445 O 0.74288 0.35445 0.35259 0.0
C446 C 0.72969 0.35686 0.24716 0.0
C447 C 0.73512 0.34759 0.37366 0.0
H448 H 0.93878 0.49932 0.07727 0.0
H449 H 0.96261 0.49056 0.07499 0.0
H450 H 0.97814 0.53254 0.07457 0.0
H451 H 0.9544 0.54141 0.07728 0.0
H452 H 0.98178 0.4959 0.02028 0.0
H453 H 0.00178 0.51388 0.15201 0.0
H454 H 0.98347 0.5131 0.14182 0.0
H455 H 0.99384 0.52726 0.12545 0.0
C456 C 0.94726 0.5067 0.07724 0.0
C457 C 0.94467 0.52107 0.07752 0.0
C458 C 0.96087 0.50167 0.07583 0.0
C459 C 0.97214 0.5109 0.07495 0.0
C460 C 0.96961 0.52523 0.0759 0.0
H461 H 0.06148 0.50122 0.05375 0.0
H462 H 0.03773 0.5102 0.05644 0.0
C463 C 0.95601 0.53028 0.0773 0.0
C464 C 0.98649 0.50554 0.07097 0.0
H465 H 0.0184 0.50507 0.11082 0.0
C466 C 0.98978 0.49783 0.04015 0.0
C467 C 0.99691 0.50816 0.09684 0.0
C468 C 0.99384 0.51595 0.13106 0.0
C469 C 0.00328 0.49283 0.03424 0.0
C470 C 0.01369 0.49542 0.06015 0.0
C471 C 0.01041 0.50315 0.09093 0.0
C472 C 0.02801 0.48996 0.05626 0.0
C473 C 0.00634 0.48506 -2e-05 0.0
C474 C 0.0304 0.4756 0.05514 0.0
C475 C 0.04394 0.47043 0.05349 0.0
C476 C 0.05537 0.47952 0.05319 0.0
C477 C 0.05292 0.49392 0.0538 0.0
C478 C 0.03936 0.49908 0.05545 0.0
H479 H 0.99846 0.48724 0.97896 0.0
H480 H 0.01676 0.48782 0.98936 0.0
H481 H 0.0062 0.47375 0.00548 0.0
H482 H 0.0218 0.46837 0.05643 0.0
H483 H 0.04544 0.45928 0.05327 0.0
H484 H 0.74895 0.81138 0.30321 0.0
H485 H 0.74097 0.78734 0.30688 0.0
H486 H 0.78337 0.77305 0.30296 0.0
H487 H 0.7915 0.79709 0.29968 0.0
H488 H 0.74518 0.76455 0.26076 0.0
H489 H 0.76812 0.7554 0.39549 0.0
H490 H 0.7662 0.77256 0.37663 0.0
H491 H 0.78013 0.76149 0.36212 0.0
C492 C 0.7566 0.80314 0.30286 0.0
C493 C 0.77088 0.80618 0.30143 0.0
C494 C 0.75201 0.7894 0.30498 0.0
C495 C 0.76159 0.77844 0.3059 0.0
C496 C 0.77582 0.78138 0.30305 0.0
H497 H 0.75344 0.68913 0.32485 0.0
H498 H 0.76176 0.71306 0.32098 0.0
C499 C 0.78044 0.79513 0.30091 0.0
C500 C 0.75664 0.76397 0.31031 0.0
H501 H 0.75785 0.73605 0.36673 0.0
C502 C 0.74791 0.75832 0.28395 0.0
C503 C 0.76021 0.7559 0.34065 0.0
C504 C 0.76908 0.76165 0.37054 0.0
C505 C 0.74284 0.7447 0.28681 0.0
C506 C 0.74638 0.73663 0.3172 0.0
C507 C 0.75513 0.74228 0.34352 0.0
C508 C 0.74126 0.72223 0.32183 0.0
C509 C 0.73397 0.73895 0.25691 0.0
C510 C 0.72699 0.71949 0.32472 0.0
C511 C 0.72219 0.70582 0.32698 0.0
C512 C 0.73159 0.69464 0.32656 0.0
C513 C 0.74591 0.69748 0.32515 0.0
C514 C 0.75069 0.71115 0.3229 0.0
H515 H 0.73502 0.74513 0.23188 0.0
H516 H 0.73675 0.728 0.25103 0.0
H517 H 0.7229 0.73924 0.2652 0.0
H518 H 0.71956 0.72793 0.32471 0.0
H519 H 0.7111 0.70401 0.32819 0.0
H520 H 0.44179 0.50058 0.55466 0.0
H521 H 0.4658 0.49252 0.5586 0.0
H522 H 0.48027 0.53485 0.55426 0.0
H523 H 0.45626 0.54306 0.5508 0.0
H524 H 0.48842 0.49636 0.51263 0.0
H525 H 0.49819 0.51995 0.64632 0.0
H526 H 0.48096 0.51818 0.62777 0.0
H527 H 0.49221 0.53186 0.61262 0.0
C528 C 0.45007 0.5082 0.5543 0.0
C529 C 0.44708 0.52248 0.55268 0.0
C530 C 0.46379 0.50356 0.55659 0.0
C531 C 0.47479 0.5131 0.55744 0.0
C532 C 0.4719 0.52733 0.55446 0.0
H533 H 0.56426 0.50278 0.57566 0.0
H534 H 0.54064 0.51201 0.57129 0.0
C535 C 0.45817 0.53199 0.5522 0.0
C536 C 0.48925 0.50809 0.56173 0.0
H537 H 0.51733 0.50924 0.61768 0.0
C538 C 0.49474 0.49915 0.53561 0.0
C539 C 0.49746 0.51176 0.59177 0.0
C540 C 0.49191 0.52087 0.62143 0.0
C541 C 0.50828 0.49389 0.5385 0.0
C542 C 0.51645 0.49748 0.56866 0.0
C543 C 0.51102 0.5065 0.59464 0.0
C544 C 0.53067 0.49191 0.57365 0.0
C545 C 0.51382 0.48472 0.50896 0.0
C546 C 0.53284 0.47759 0.57756 0.0
C547 C 0.54631 0.47228 0.58012 0.0
C548 C 0.55786 0.48121 0.57898 0.0
C549 C 0.55561 0.49561 0.57655 0.0
C550 C 0.54212 0.50091 0.574 0.0
H551 H 0.50767 0.48578 0.48388 0.0
H552 H 0.52484 0.48719 0.503 0.0
H553 H 0.51325 0.47371 0.51766 0.0
H554 H 0.52412 0.4705 0.57811 0.0
H555 H 0.54766 0.46115 0.58217 0.0
H556 H 0.70984 0.20519 0.8026 0.0
H557 H 0.71903 0.22881 0.80569 0.0
H558 H 0.76073 0.21263 0.81025 0.0
H559 H 0.75167 0.18895 0.80672 0.0
H560 H 0.7349 0.23989 0.86149 0.0
H561 H 0.7634 0.24237 0.7321 0.0
H562 H 0.7506 0.22918 0.74158 0.0
H563 H 0.76781 0.22777 0.75981 0.0
C564 C 0.72098 0.20664 0.80379 0.0
C565 C 0.73002 0.19517 0.80432 0.0
C566 C 0.7262 0.22015 0.80565 0.0
C567 C 0.74056 0.22248 0.80787 0.0
C568 C 0.74963 0.21108 0.8079 0.0
H569 H 0.79068 0.29713 0.82925 0.0
H570 H 0.78232 0.27316 0.82778 0.0
C571 C 0.74442 0.19754 0.806 0.0
C572 C 0.74595 0.23681 0.81189 0.0
H573 H 0.76672 0.26112 0.77239 0.0
C574 C 0.74182 0.24456 0.84196 0.0
C575 C 0.75503 0.24283 0.78645 0.0
C576 C 0.7594 0.23518 0.75299 0.0
C577 C 0.74664 0.25815 0.84748 0.0
C578 C 0.75564 0.2642 0.82193 0.0
C579 C 0.75984 0.25642 0.79198 0.0
C580 C 0.76058 0.27871 0.82526 0.0
C581 C 0.74223 0.26582 0.88089 0.0
C582 C 0.75112 0.28978 0.82449 0.0
C583 C 0.75584 0.3035 0.82539 0.0
C584 C 0.77015 0.30641 0.82685 0.0
C585 C 0.77959 0.29527 0.82823 0.0
C586 C 0.77485 0.28156 0.8273 0.0
H587 H 0.7385 0.2586 0.90204 0.0
H588 H 0.75093 0.27207 0.89191 0.0
H589 H 0.7336 0.27298 0.87414 0.0
H590 H 0.74008 0.28782 0.82225 0.0
H591 H 0.74829 0.31181 0.82407 0.0
H592 H 0.06142 0.49898 0.57077 0.0
H593 H 0.03765 0.49007 0.56726 0.0
H594 H 0.02176 0.53187 0.57236 0.0
H595 H 0.04544 0.54089 0.5755 0.0
H596 H 0.01491 0.49341 0.61435 0.0
H597 H 0.00413 0.51624 0.48043 0.0
H598 H 0.02146 0.51485 0.49854 0.0
H599 H 0.01008 0.52848 0.51335 0.0
C600 C 0.05288 0.50628 0.57136 0.0
C601 C 0.05535 0.52066 0.57315 0.0
C602 C 0.0393 0.50117 0.56931 0.0
C603 C 0.02798 0.51033 0.56883 0.0
C604 C 0.03038 0.52464 0.57188 0.0
H605 H 0.93865 0.50148 0.5557 0.0
H606 H 0.96261 0.50987 0.55859 0.0
C607 C 0.04393 0.52977 0.57392 0.0
C608 C 0.01365 0.50493 0.56499 0.0
H609 H 0.98504 0.50605 0.51088 0.0
C610 C 0.00839 0.4961 0.59166 0.0
C611 C 0.00519 0.50847 0.53532 0.0
C612 C 0.01051 0.51743 0.50508 0.0
C613 C 0.99476 0.49095 0.58987 0.0
C614 C 0.98629 0.49455 0.56027 0.0
C615 C 0.99157 0.50333 0.53353 0.0
C616 C 0.97184 0.48941 0.55681 0.0
C617 C 0.98944 0.482 0.62011 0.0
C618 C 0.96912 0.47515 0.55387 0.0
C619 C 0.95545 0.47031 0.55219 0.0
C620 C 0.94424 0.47967 0.55322 0.0
C621 C 0.94703 0.49399 0.55491 0.0
C622 C 0.96071 0.49881 0.55661 0.0
H623 H 0.99593 0.48303 0.64461 0.0
H624 H 0.97856 0.48473 0.62698 0.0
H625 H 0.98966 0.47096 0.61164 0.0
H626 H 0.97758 0.46774 0.5532 0.0
H627 H 0.95369 0.45923 0.5507 0.0
H628 H 0.79109 0.70434 0.79756 0.0
H629 H 0.78227 0.72808 0.80247 0.0
H630 H 0.74031 0.71253 0.80571 0.0
H631 H 0.749 0.68875 0.80127 0.0
H632 H 0.76361 0.74317 0.75956 0.0
H633 H 0.74314 0.73585 0.89758 0.0
H634 H 0.75493 0.7237 0.87682 0.0
H635 H 0.7368 0.72353 0.86534 0.0
C636 C 0.77997 0.70596 0.79902 0.0
C637 C 0.77076 0.69462 0.7993 0.0
C638 C 0.77496 0.71954 0.80188 0.0
C639 C 0.76067 0.72204 0.80522 0.0
C640 C 0.75141 0.7108 0.80399 0.0
H641 H 0.71022 0.79595 0.82941 0.0
H642 H 0.71909 0.77222 0.82495 0.0
C643 C 0.7564 0.69722 0.80116 0.0
C644 C 0.75548 0.73639 0.81039 0.0
H645 H 0.73779 0.75718 0.86897 0.0
C646 C 0.75802 0.74626 0.78353 0.0
C647 C 0.74819 0.74038 0.84174 0.0
C648 C 0.74569 0.73036 0.8722 0.0
C649 C 0.75324 0.75998 0.78683 0.0
C650 C 0.74594 0.76396 0.81815 0.0
C651 C 0.7434 0.75409 0.84503 0.0
C652 C 0.74071 0.77829 0.82323 0.0
C653 C 0.75576 0.77001 0.75642 0.0
C654 C 0.74995 0.78953 0.82489 0.0
C655 C 0.74493 0.80311 0.8275 0.0
C656 C 0.73055 0.8057 0.82865 0.0
C657 C 0.72135 0.79435 0.82849 0.0
C658 C 0.72639 0.78077 0.8259 0.0
H659 H 0.75847 0.76454 0.73111 0.0
H660 H 0.74647 0.77657 0.75158 0.0
H661 H 0.76455 0.77694 0.76352 0.0
H662 H 0.76105 0.78781 0.82363 0.0
H663 H 0.75231 0.81159 0.82772 0.0
H664 H 0.56243 0.49842 0.05222 0.0
H665 H 0.53843 0.49023 0.05488 0.0
H666 H 0.52384 0.53254 0.05312 0.0
H667 H 0.5478 0.54085 0.04999 0.0
H668 H 0.51954 0.49627 0.10927 0.0
H669 H 0.49959 0.51386 0.97712 0.0
H670 H 0.51791 0.51284 0.98711 0.0
H671 H 0.50779 0.52723 0.00316 0.0
C672 C 0.55412 0.506 0.05184 0.0
C673 C 0.55705 0.52031 0.05084 0.0
C674 C 0.54041 0.50129 0.05347 0.0
C675 C 0.52935 0.51077 0.0539 0.0
C676 C 0.5322 0.52504 0.05216 0.0
H677 H 0.43991 0.50225 0.0761 0.0
H678 H 0.46374 0.51096 0.07326 0.0
C679 C 0.54592 0.52977 0.0505 0.0
C680 C 0.5149 0.50572 0.0583 0.0
H681 H 0.48294 0.50539 0.01866 0.0
C682 C 0.51155 0.49821 0.08939 0.0
C683 C 0.50449 0.50833 0.03242 0.0
C684 C 0.50761 0.5159 -0.00209 0.0
C685 C 0.49801 0.49336 0.09553 0.0
C686 C 0.4876 0.49592 0.06959 0.0
C687 C 0.49094 0.50348 0.03856 0.0
C688 C 0.47324 0.49061 0.07372 0.0
C689 C 0.4949 0.48577 0.13002 0.0
C690 C 0.47069 0.47628 0.07511 0.0
C691 C 0.45708 0.47126 0.07684 0.0
C692 C 0.44576 0.48049 0.07696 0.0
C693 C 0.44838 0.49486 0.07619 0.0
C694 C 0.46199 0.49986 0.07444 0.0
H695 H 0.50284 0.48792 0.15091 0.0
H696 H 0.48453 0.48871 0.14065 0.0
H697 H 0.49487 0.47443 0.1248 0.0
H698 H 0.4792 0.46895 0.07393 0.0
H699 H 0.45545 0.46014 0.07717 0.0
H700 H 0.70969 0.29591 0.29741 0.0
H701 H 0.71862 0.27217 0.30048 0.0
H702 H 0.76056 0.28782 0.30098 0.0
H703 H 0.75176 0.31161 0.29833 0.0
H704 H 0.73699 0.25742 0.25522 0.0
H705 H 0.75857 0.26396 0.39241 0.0
H706 H 0.74648 0.27613 0.37292 0.0
H707 H 0.76449 0.27655 0.36031 0.0
C708 C 0.72082 0.29432 0.29789 0.0
C709 C 0.73001 0.30568 0.29793 0.0
C710 C 0.7259 0.28074 0.29966 0.0
C711 C 0.74023 0.27827 0.30168 0.0
C712 C 0.74945 0.28953 0.30022 0.0
H713 H 0.79132 0.2048 0.32242 0.0
H714 H 0.78213 0.22839 0.31799 0.0
C715 C 0.74439 0.30312 0.29845 0.0
C716 C 0.7455 0.26391 0.30591 0.0
H717 H 0.76367 0.24283 0.3627 0.0
C718 C 0.74278 0.25419 0.27875 0.0
C719 C 0.75302 0.25975 0.33671 0.0
C720 C 0.75573 0.26959 0.36744 0.0
C721 C 0.74764 0.24048 0.28121 0.0
C722 C 0.75519 0.23633 0.31198 0.0
C723 C 0.75788 0.24604 0.33917 0.0
C724 C 0.7606 0.22202 0.31617 0.0
C725 C 0.74495 0.23064 0.25048 0.0
C726 C 0.75152 0.21064 0.31757 0.0
C727 C 0.75673 0.19713 0.32013 0.0
C728 C 0.77114 0.19476 0.32151 0.0
C729 C 0.78018 0.20624 0.32131 0.0
C730 C 0.77495 0.21973 0.31875 0.0
H731 H 0.74207 0.23627 0.22553 0.0
H732 H 0.75422 0.22413 0.24496 0.0
H733 H 0.73622 0.22365 0.25764 0.0
H734 H 0.74039 0.21221 0.3164 0.0
H735 H 0.74948 0.18854 0.32038 0.0
H736 H 0.24974 0.31246 0.8079 0.0
H737 H 0.24122 0.28858 0.81126 0.0
H738 H 0.28326 0.27336 0.80518 0.0
H739 H 0.29191 0.2972 0.80227 0.0
H740 H 0.24454 0.26615 0.7641 0.0
H741 H 0.26834 0.25511 0.89677 0.0
H742 H 0.26677 0.27248 0.87906 0.0
H743 H 0.28033 0.26119 0.86338 0.0
C744 C 0.25719 0.30405 0.80707 0.0
C745 C 0.27152 0.30676 0.80508 0.0
C746 C 0.25229 0.2904 0.80904 0.0
C747 C 0.26163 0.27922 0.8092 0.0
C748 C 0.2759 0.28186 0.80593 0.0
H749 H 0.25248 0.18978 0.82142 0.0
H750 H 0.2611 0.21365 0.81838 0.0
C751 C 0.28081 0.29549 0.80401 0.0
C752 C 0.25641 0.26482 0.81289 0.0
H753 H 0.25787 0.23613 0.86664 0.0
C754 C 0.2474 0.2596 0.78657 0.0
C755 C 0.26017 0.2563 0.84228 0.0
C756 C 0.26933 0.26156 0.87219 0.0
C757 C 0.24224 0.24599 0.78849 0.0
C758 C 0.246 0.23748 0.81786 0.0
C759 C 0.25501 0.24269 0.84418 0.0
C760 C 0.24075 0.22309 0.82155 0.0
C761 C 0.23303 0.24074 0.75866 0.0
C762 C 0.22649 0.22051 0.82535 0.0
C763 C 0.22152 0.2069 0.82713 0.0
C764 C 0.23075 0.19559 0.82532 0.0
C765 C 0.24509 0.19824 0.82281 0.0
C766 C 0.25004 0.21186 0.82103 0.0
H767 H 0.23391 0.24724 0.73415 0.0
H768 H 0.23565 0.22985 0.75161 0.0
H769 H 0.22205 0.241 0.76768 0.0
H770 H 0.21918 0.22905 0.82657 0.0
H771 H 0.21043 0.20524 0.82926 0.0
H772 H 0.29279 0.79524 0.33079 0.0
H773 H 0.28432 0.77137 0.32603 0.0
H774 H 0.24216 0.78632 0.32178 0.0
H775 H 0.2505 0.81024 0.32614 0.0
H776 H 0.26542 0.75612 0.36901 0.0
H777 H 0.24605 0.76292 0.22977 0.0
H778 H 0.25767 0.77516 0.25088 0.0
H779 H 0.23946 0.77535 0.26142 0.0
C780 C 0.2817 0.79347 0.32914 0.0
C781 C 0.27232 0.80467 0.32856 0.0
C782 C 0.27689 0.77981 0.32639 0.0
C783 C 0.26265 0.77711 0.32282 0.0
C784 C 0.25322 0.78821 0.32373 0.0
H785 H 0.21177 0.70405 0.29764 0.0
H786 H 0.22124 0.72752 0.30185 0.0
C787 C 0.25801 0.80187 0.3265 0.0
C788 C 0.25767 0.7627 0.31761 0.0
H789 H 0.24046 0.74171 0.25865 0.0
C790 C 0.26003 0.75293 0.34484 0.0
C791 C 0.25067 0.75859 0.28596 0.0
C792 C 0.2484 0.7685 0.25515 0.0
C793 C 0.25525 0.73921 0.34166 0.0
C794 C 0.24816 0.73513 0.31011 0.0
C795 C 0.2459 0.74488 0.28278 0.0
C796 C 0.24265 0.72088 0.30543 0.0
C797 C 0.25748 0.72931 0.37251 0.0
C798 C 0.25159 0.70938 0.30497 0.0
C799 C 0.24622 0.69592 0.30254 0.0
C800 C 0.23179 0.69374 0.30036 0.0
C801 C 0.22292 0.70534 0.29939 0.0
C802 C 0.22831 0.71877 0.30183 0.0
H803 H 0.2601 0.73487 0.39774 0.0
H804 H 0.24808 0.72289 0.37722 0.0
H805 H 0.26621 0.72224 0.36599 0.0
H806 H 0.26272 0.7108 0.30695 0.0
H807 H 0.25335 0.68723 0.30321 0.0
H808 H 0.29113 0.20409 0.29921 0.0
H809 H 0.28231 0.22785 0.30312 0.0
H810 H 0.24031 0.21235 0.30441 0.0
H811 H 0.24901 0.18853 0.30092 0.0
H812 H 0.26388 0.24277 0.25865 0.0
H813 H 0.24268 0.23598 0.39614 0.0
H814 H 0.25464 0.2238 0.37618 0.0
H815 H 0.23659 0.22351 0.36396 0.0
C816 C 0.28001 0.20572 0.30005 0.0
C817 C 0.27078 0.19439 0.30004 0.0
C818 C 0.27499 0.21931 0.30231 0.0
C819 C 0.26068 0.22183 0.30478 0.0
C820 C 0.25142 0.2106 0.30331 0.0
H821 H 0.20982 0.29534 0.32639 0.0
H822 H 0.219 0.27174 0.32225 0.0
C823 C 0.25641 0.197 0.30105 0.0
C824 C 0.25548 0.23619 0.30938 0.0
H825 H 0.23754 0.25721 0.36685 0.0
C826 C 0.25817 0.24596 0.28234 0.0
C827 C 0.24807 0.2403 0.3404 0.0
C828 C 0.24541 0.2304 0.37102 0.0
C829 C 0.25337 0.25968 0.28512 0.0
C830 C 0.24592 0.26378 0.31608 0.0
C831 C 0.24327 0.25402 0.34317 0.0
C832 C 0.24053 0.27809 0.32051 0.0
C833 C 0.25602 0.26958 0.2545 0.0
C834 C 0.24963 0.28946 0.32193 0.0
C835 C 0.24442 0.30299 0.32432 0.0
C836 C 0.23001 0.30537 0.32551 0.0
C837 C 0.22097 0.2939 0.32542 0.0
C838 C 0.22618 0.28039 0.32303 0.0
H839 H 0.25886 0.26402 0.22944 0.0
H840 H 0.24674 0.2761 0.24915 0.0
H841 H 0.26475 0.27657 0.26168 0.0
H842 H 0.26075 0.28788 0.32079 0.0
H843 H 0.25168 0.31157 0.32449 0.0
H844 H 0.24946 0.68952 0.82364 0.0
H845 H 0.2414 0.71356 0.82028 0.0
H846 H 0.28372 0.72799 0.82596 0.0
H847 H 0.29192 0.70399 0.82893 0.0
H848 H 0.24536 0.73616 0.86729 0.0
H849 H 0.2689 0.74605 0.7336 0.0
H850 H 0.26693 0.7288 0.75181 0.0
H851 H 0.28079 0.73981 0.76706 0.0
C852 C 0.25707 0.6978 0.82444 0.0
C853 C 0.27136 0.69482 0.82629 0.0
C854 C 0.25244 0.71153 0.82247 0.0
C855 C 0.26198 0.72253 0.82215 0.0
C856 C 0.2762 0.71963 0.82538 0.0
H857 H 0.25347 0.81206 0.80597 0.0
H858 H 0.26206 0.7882 0.80973 0.0
C859 C 0.28086 0.7059 0.82734 0.0
C860 C 0.25703 0.73701 0.81809 0.0
H861 H 0.25858 0.76528 0.76289 0.0
C862 C 0.24821 0.74252 0.84444 0.0
C863 C 0.26078 0.74527 0.78821 0.0
C864 C 0.26977 0.73968 0.75835 0.0
C865 C 0.24319 0.75617 0.84199 0.0
C866 C 0.24689 0.76441 0.81205 0.0
C867 C 0.25576 0.75892 0.78577 0.0
C868 C 0.24169 0.77879 0.80765 0.0
C869 C 0.23418 0.76175 0.87183 0.0
C870 C 0.22741 0.78136 0.80415 0.0
C871 C 0.22246 0.79497 0.80195 0.0
C872 C 0.23171 0.80627 0.80304 0.0
C873 C 0.24606 0.80361 0.80514 0.0
C874 C 0.25099 0.78999 0.80733 0.0
H875 H 0.23516 0.75546 0.89669 0.0
H876 H 0.23691 0.77268 0.87812 0.0
H877 H 0.22315 0.76146 0.86324 0.0
H878 H 0.22008 0.77284 0.80357 0.0
H879 H 0.21136 0.79663 0.80016 0.0
H880 H 0.45526 0.04075 0.57705 0.0
H881 H 0.47896 0.03178 0.5737 0.0
H882 H 0.46315 0.98992 0.5701 0.0
H883 H 0.43937 0.9988 0.57297 0.0
H884 H 0.49335 0.01326 0.61829 0.0
H885 H 0.48769 0.99227 0.48024 0.0
H886 H 0.47533 0.00419 0.49965 0.0
H887 H 0.47497 0.98613 0.5117 0.0
C888 C 0.4568 0.02963 0.57575 0.0
C889 C 0.4454 0.0205 0.57501 0.0
C890 C 0.47036 0.02452 0.57382 0.0
C891 C 0.4728 0.01021 0.57095 0.0
C892 C 0.46148 0.00103 0.57151 0.0
H893 H 0.54709 0.95998 0.55199 0.0
H894 H 0.52331 0.96877 0.55542 0.0
C895 C 0.4479 0.00612 0.57343 0.0
C896 C 0.48719 0.00495 0.56711 0.0
H897 H 0.50873 0.98723 0.51048 0.0
C898 C 0.49674 0.00761 0.59469 0.0
C899 C 0.49156 0.9976 0.53624 0.0
C900 C 0.48191 0.99496 0.50508 0.0
C901 C 0.51051 0.0029 0.59253 0.0
C902 C 0.51489 0.99555 0.56165 0.0
C903 C 0.50534 0.99288 0.53408 0.0
C904 C 0.52931 0.99039 0.55772 0.0
C905 C 0.52018 0.00555 0.62365 0.0
C906 C 0.54054 0.99966 0.55687 0.0
C907 C 0.55416 0.99468 0.55488 0.0
C908 C 0.55678 0.98032 0.55353 0.0
C909 C 0.54546 0.97109 0.5531 0.0
C910 C 0.53185 0.97609 0.55508 0.0
H911 H 0.51441 0.00824 0.64851 0.0
H912 H 0.52677 0.99633 0.62908 0.0
H913 H 0.52711 0.01439 0.61699 0.0
H914 H 0.53878 0.01075 0.55812 0.0
H915 H 0.56263 0.00208 0.5551 0.0
H916 H 0.93968 0.99879 0.05263 0.0
H917 H 0.96345 0.9899 0.05582 0.0
H918 H 0.97932 0.03172 0.05132 0.0
H919 H 0.95563 0.04071 0.04767 0.0
H920 H 0.99384 0.0129 0.00753 0.0
H921 H 0.98767 0.99277 0.14629 0.0
H922 H 0.97502 0.98649 0.11479 0.0
H923 H 0.97541 0.00462 0.12616 0.0
C924 C 0.94822 0.0061 0.05199 0.0
C925 C 0.94574 0.02047 0.05013 0.0
C926 C 0.9618 0.001 0.05409 0.0
C927 C 0.97312 0.01017 0.05455 0.0
C928 C 0.97071 0.02447 0.05129 0.0
H929 H 0.0629 0.00182 0.07255 0.0
H930 H 0.03911 0.0106 0.06862 0.0
C931 C 0.95715 0.02959 0.04918 0.0
C932 C 0.98749 0.00491 0.0589 0.0
H933 H 0.00879 0.98751 0.11674 0.0
C934 C 0.99714 0.00738 0.03143 0.0
C935 C 0.99174 0.99775 0.09017 0.0
C936 C 0.98198 0.99533 0.12122 0.0
C937 C 0.01089 0.00265 0.03409 0.0
C938 C 0.01514 0.99549 0.06537 0.0
C939 C 0.00549 0.99302 0.09283 0.0
C940 C 0.02952 0.99028 0.06981 0.0
C941 C 0.02066 0.00508 0.00307 0.0
C942 C 0.03199 0.976 0.07322 0.0
C943 C 0.04555 0.97094 0.07574 0.0
C944 C 0.05693 0.98011 0.07508 0.0
C945 C 0.05439 0.99447 0.07297 0.0
C946 C 0.04081 0.9995 0.07044 0.0
H947 H 0.01498 0.00763 0.97798 0.0
H948 H 0.02759 0.01395 0.00951 0.0
H949 H 0.02725 0.99582 -0.00182 0.0
H950 H 0.02341 0.96872 0.07306 0.0
H951 H 0.04712 0.95983 0.07743 0.0
H952 H 0.54515 0.04195 0.07893 0.0
H953 H 0.52138 0.0331 0.07653 0.0
H954 H 0.53697 0.9912 0.07044 0.0
H955 H 0.56079 0.99992 0.07327 0.0
H956 H 0.5098 0.01766 0.02081 0.0
H957 H 0.50752 0.98856 0.14918 0.0
H958 H 0.52086 0.00121 0.13971 0.0
H959 H 0.52199 0.98402 0.12115 0.0
C960 C 0.54354 0.03083 0.07757 0.0
C961 C 0.55489 0.02164 0.07637 0.0
C962 C 0.52994 0.0258 0.07611 0.0
C963 C 0.52741 0.0115 0.07365 0.0
C964 C 0.53868 0.00227 0.07301 0.0
H965 H 0.454 0.96043 0.04936 0.0
H966 H 0.47764 0.96959 0.0521 0.0
C967 C 0.5523 0.00728 0.0745 0.0
C968 C 0.51299 0.00629 0.06987 0.0
H969 H 0.48884 0.98511 0.10854 0.0
C970 C 0.50517 0.01061 0.04008 0.0
C971 C 0.50702 0.99706 0.095 0.0
C972 C 0.51472 0.99252 0.12825 0.0
C973 C 0.49161 0.00573 0.03439 0.0
C974 C 0.48566 0.99646 0.05946 0.0
C975 C 0.49346 0.99218 0.08929 0.0
C976 C 0.47132 0.9911 0.05543 0.0
C977 C 0.4839 0.01028 0.00118 0.0
C978 C 0.45992 1.00017 0.05617 0.0
C979 C 0.44637 0.99497 0.05449 0.0
C980 C 0.44398 0.98059 0.0523 0.0
C981 C 0.45545 0.97156 0.05096 0.0
C982 C 0.46898 0.97677 0.05262 0.0
H983 H 0.49105 0.01442 0.98039 0.0
H984 H 0.4779 0.00154 0.98947 0.0
H985 H 0.47648 0.01863 0.00842 0.0
H986 H 0.46148 0.01125 0.05898 0.0
H987 H 0.43778 0.00221 0.05583 0.0
H988 H 0.06305 0.99868 0.55644 0.0
H989 H 0.03941 0.98936 0.55843 0.0
H990 H 0.02288 0.03093 0.55501 0.0
H991 H 0.0464 0.04034 0.55254 0.0
H992 H 0.01948 0.99458 0.61118 0.0
H993 H 1.00051 0.01112 0.47736 0.0
H994 H 0.01871 0.01089 0.48889 0.0
H995 H 0.00783 0.02499 0.50338 0.0
C996 C 0.05438 0.00584 0.5556 0.0
C997 C 0.05663 0.02026 0.5542 0.0
C998 C 0.04088 1.00049 0.55686 0.0
C999 C 0.02939 0.00944 0.55647 0.0
C1000 C 0.03159 0.02382 0.55462 0.0
H1001 H 0.94029 0.00142 0.57524 0.0
H1002 H 0.96434 0.00949 0.57296 0.0
C1003 C 0.04506 0.02918 0.55337 0.0
C1004 C 0.01511 0.00383 0.55981 0.0
H1005 H 0.98345 0.00309 0.51866 0.0
C1006 C 0.01162 0.99633 0.59084 0.0
C1007 C 0.00488 0.00617 0.53327 0.0
C1008 C 0.00817 0.01362 0.49869 0.0
C1009 C 0.99806 0.99141 0.59647 0.0
C1010 C 0.9878 0.99389 0.5701 0.0
C1011 C 0.99133 0.00127 0.53893 0.0
C1012 C 0.97332 0.98891 0.57416 0.0
C1013 C 0.99475 0.98393 0.63099 0.0
C1014 C 0.97039 0.97466 0.57586 0.0
C1015 C 0.95665 0.96999 0.57726 0.0
C1016 C 0.94557 0.97951 0.57675 0.0
C1017 C 0.94856 0.9938 0.57577 0.0
C1018 C 0.9623 0.99844 0.57436 0.0
H1019 H 0.0027 0.98592 0.65196 0.0
H1020 H 0.98443 0.98712 0.64147 0.0
H1021 H 0.99445 0.97259 0.62585 0.0
H1022 H 0.97873 0.96712 0.5751 0.0
H1023 H 0.95472 0.95892 0.57779 0.0
H1024 H 0.12564 0.49418 0.9649 0.0
H1025 H 0.12661 0.50096 0.90179 0.0
H1026 H 0.08962 0.47705 0.88069 0.0
H1027 H 0.08891 0.46978 0.94364 0.0
H1028 H 0.10755 0.47447 0.82716 0.0
H1029 H 0.10204 0.53027 0.85972 0.0
H1030 H 0.11702 0.5227 0.88047 0.0
H1031 H 0.09993 0.51684 0.89294 0.0
C1032 C 0.1178 0.49024 0.94672 0.0
C1033 C 0.10713 0.48154 0.95925 0.0
C1034 C 0.11829 0.49424 0.91073 0.0
C1035 C 0.10793 0.48989 0.88674 0.0
C1036 C 0.09764 0.48066 0.8988 0.0
H1037 H 0.08897 0.52992 0.68329 0.0
H1038 H 0.08968 0.52244 0.74606 0.0
C1039 C 0.09727 0.47647 0.93474 0.0
C1040 C 0.10772 0.49512 0.84925 0.0
H1041 H 0.10771 0.52482 0.79916 0.0
C1042 C 0.10754 0.48548 0.82103 0.0
C1043 C 0.1074 0.50949 0.84124 0.0
C1044 C 0.10645 0.52042 0.87019 0.0
C1045 C 0.10727 0.4898 0.78506 0.0
C1046 C 0.10768 0.50417 0.77705 0.0
C1047 C 0.10763 0.51381 0.80528 0.0
C1048 C 0.10784 0.50942 0.73958 0.0
C1049 C 0.10619 0.47888 0.75613 0.0
C1050 C 0.1181 0.50501 0.71537 0.0
C1051 C 0.1176 0.50912 0.67947 0.0
C1052 C 0.10703 0.51801 0.66724 0.0
C1053 C 0.09726 0.52309 0.69195 0.0
C1054 C 0.09763 0.51879 0.72778 0.0
H1055 H 0.10171 0.46906 0.76666 0.0
H1056 H 0.09965 0.48251 0.73345 0.0
H1057 H 0.11672 0.47652 0.74572 0.0
H1058 H 0.12636 0.49817 0.72409 0.0
H1059 H 0.12538 0.50516 0.66113 0.0
H1060 H 0.71422 0.84765 0.93675 0.0
H1061 H 0.71925 0.84989 0.00095 0.0
H1062 H 0.75612 0.87345 0.97629 0.0
H1063 H 0.75107 0.87151 0.91248 0.0
H1064 H 0.7423 0.83981 0.03459 0.0
H1065 H 0.73895 0.89663 0.0553 0.0
H1066 H 0.73206 0.88819 0.01589 0.0
H1067 H 0.75031 0.89203 0.01905 0.0
C1068 C 0.72325 0.85353 0.94504 0.0
C1069 C 0.73224 0.8594 0.91947 0.0
C1070 C 0.72613 0.85477 0.98171 0.0
C1071 C 0.73798 0.86198 0.99341 0.0
C1072 C 0.74676 0.86811 0.96796 0.0
H1073 H 0.78231 0.84887 0.19334 0.0
H1074 H 0.77532 0.85058 0.13032 0.0
C1075 C 0.74389 0.8669 0.93141 0.0
C1076 C 0.74182 0.86214 0.03191 0.0
H1077 H 0.7505 0.88363 0.10125 0.0
C1078 C 0.74397 0.84939 0.04926 0.0
C1079 C 0.74391 0.87465 0.05108 0.0
C1080 C 0.74105 0.88865 0.03449 0.0
C1081 C 0.74846 0.8488 0.08503 0.0
C1082 C 0.75114 0.86131 0.1037 0.0
C1083 C 0.74866 0.87406 0.08666 0.0
C1084 C 0.75605 0.86132 0.14137 0.0
C1085 C 0.7501 0.83479 0.10265 0.0
C1086 C 0.74784 0.86735 0.16823 0.0
C1087 C 0.75186 0.86652 0.20416 0.0
C1088 C 0.76419 0.85965 0.21392 0.0
C1089 C 0.77271 0.85416 0.18677 0.0
C1090 C 0.76869 0.85503 0.15078 0.0
H1091 H 0.74431 0.82658 0.08802 0.0
H1092 H 0.76125 0.83188 0.10274 0.0
H1093 H 0.74641 0.83504 0.13086 0.0
H1094 H 0.7381 0.87234 0.16151 0.0
H1095 H 0.74507 0.87092 0.22434 0.0
H1096 H 0.41098 0.47093 0.18525 0.0
H1097 H 0.40936 0.47747 0.2485 0.0
H1098 H 0.37284 0.50188 0.22558 0.0
H1099 H 0.37479 0.49586 0.16211 0.0
H1100 H 0.39004 0.51639 0.26398 0.0
H1101 H 0.38487 0.46489 0.32803 0.0
H1102 H 0.40017 0.46586 0.30079 0.0
H1103 H 0.3833 0.46725 0.28021 0.0
C1104 C 0.40246 0.47748 0.19384 0.0
C1105 C 0.393 0.48287 0.16876 0.0
C1106 C 0.4015 0.48117 0.23006 0.0
C1107 C 0.39086 0.49002 0.242 0.0
C1108 C 0.38114 0.49503 0.21708 0.0
H1109 H 0.37628 0.5041 0.46966 0.0
H1110 H 0.37393 0.49781 0.40644 0.0
C1111 C 0.38224 0.49155 0.18082 0.0
C1112 C 0.39039 0.49487 0.27984 0.0
H1113 H 0.39105 0.48375 0.36674 0.0
C1114 C 0.39011 0.50923 0.28645 0.0
C1115 C 0.39029 0.48557 0.30923 0.0
C1116 C 0.38952 0.47004 0.30422 0.0
C1117 C 0.38999 0.51455 0.32151 0.0
C1118 C 0.39067 0.50527 0.35087 0.0
C1119 C 0.39068 0.4909 0.34428 0.0
C1120 C 0.39143 0.51014 0.38866 0.0
C1121 C 0.38888 0.53006 0.32657 0.0
C1122 C 0.40193 0.51932 0.39976 0.0
C1123 C 0.40311 0.52316 0.43583 0.0
C1124 C 0.39403 0.5176 0.46159 0.0
C1125 C 0.38344 0.50854 0.45041 0.0
C1126 C 0.38211 0.50491 0.4143 0.0
H1127 H 0.38382 0.53509 0.30313 0.0
H1128 H 0.38286 0.5327 0.35105 0.0
H1129 H 0.39945 0.53452 0.32918 0.0
H1130 H 0.4095 0.52319 0.38076 0.0
H1131 H 0.41149 0.53 0.44375 0.0
H1132 H 0.74465 0.12527 0.71484 0.0
H1133 H 0.75157 0.1245 0.65182 0.0
H1134 H 0.72762 0.16149 0.63109 0.0
H1135 H 0.72021 0.162 0.69395 0.0
H1136 H 0.72514 0.14365 0.57726 0.0
H1137 H 0.78089 0.14924 0.61027 0.0
H1138 H 0.77334 0.13421 0.63087 0.0
H1139 H 0.76741 0.15127 0.64342 0.0
C1140 C 0.74073 0.13315 0.69676 0.0
C1141 C 0.73197 0.14376 0.70938 0.0
C1142 C 0.74481 0.13278 0.66082 0.0
C1143 C 0.74049 0.14319 0.63696 0.0
C1144 C 0.73121 0.15343 0.6491 0.0
H1145 H 0.78072 0.16176 0.43311 0.0
H1146 H 0.7732 0.16136 0.49589 0.0
C1147 C 0.72694 0.15368 0.68499 0.0
C1148 C 0.74576 0.14349 0.59952 0.0
H1149 H 0.77553 0.14349 0.54965 0.0
C1150 C 0.73615 0.14367 0.57122 0.0
C1151 C 0.76015 0.14382 0.59161 0.0
C1152 C 0.77104 0.14478 0.62065 0.0
C1153 C 0.74052 0.14391 0.53529 0.0
C1154 C 0.75491 0.14348 0.52739 0.0
C1155 C 0.76452 0.14358 0.55568 0.0
C1156 C 0.76019 0.14316 0.48995 0.0
C1157 C 0.72964 0.14496 0.50625 0.0
C1158 C 0.75581 0.13278 0.46608 0.0
C1159 C 0.75996 0.13309 0.43019 0.0
C1160 C 0.76884 0.1436 0.41763 0.0
C1161 C 0.7739 0.15351 0.44202 0.0
C1162 C 0.76956 0.15332 0.47786 0.0
H1163 H 0.71982 0.14949 0.51665 0.0
H1164 H 0.73332 0.15143 0.4835 0.0
H1165 H 0.72726 0.13441 0.496 0.0
H1166 H 0.74897 0.12456 0.47504 0.0
H1167 H 0.75602 0.12521 0.41211 0.0
H1168 H 0.87335 0.50657 0.16241 0.0
H1169 H 0.87134 0.50054 0.22585 0.0
H1170 H 0.90839 0.52416 0.24867 0.0
H1171 H 0.91008 0.53072 0.18542 0.0
H1172 H 0.88837 0.48559 0.26374 0.0
H1173 H 0.88427 0.53704 0.32874 0.0
H1174 H 0.88258 0.53481 0.2809 0.0
H1175 H 0.89951 0.53577 0.30133 0.0
C1176 C 0.8809 0.51071 0.1811 0.0
C1177 C 0.89184 0.51917 0.16901 0.0
C1178 C 0.87977 0.50722 0.21734 0.0
C1179 C 0.88963 0.51199 0.24222 0.0
C1180 C 0.90043 0.52064 0.23027 0.0
H1181 H 0.9091 0.47117 0.44389 0.0
H1182 H 0.90752 0.47821 0.38098 0.0
C1183 C 0.90143 0.52435 0.19406 0.0
C1184 C 0.88912 0.50706 0.27999 0.0
H1185 H 0.88987 0.51793 0.36711 0.0
C1186 C 0.88856 0.49268 0.28634 0.0
C1187 C 0.88919 0.51628 0.30955 0.0
C1188 C 0.88877 0.53183 0.30481 0.0
C1189 C 0.88829 0.48727 0.3213 0.0
C1190 C 0.88908 0.49647 0.35083 0.0
C1191 C 0.88941 0.51085 0.34451 0.0
C1192 C 0.88959 0.49147 0.38854 0.0
C1193 C 0.88688 0.47178 0.32609 0.0
C1194 C 0.88019 0.49672 0.41394 0.0
C1195 C 0.88125 0.49293 0.45 0.0
C1196 C 0.89167 0.48371 0.46138 0.0
C1197 C 0.90084 0.47814 0.43583 0.0
C1198 C 0.89991 0.48212 0.39981 0.0
H1199 H 0.88187 0.46688 0.30239 0.0
H1200 H 0.89736 0.46713 0.32906 0.0
H1201 H 0.88068 0.46921 0.3503 0.0
H1202 H 0.87214 0.50395 0.40594 0.0
H1203 H 0.87403 0.4974 0.46907 0.0
H1204 H 0.21752 0.1536 0.9355 0.0
H1205 H 0.22451 0.15182 -0.00145 0.0
H1206 H 0.26137 0.12945 0.96729 0.0
H1207 H 0.25436 0.13089 0.90457 0.0
H1208 H 0.2493 0.11827 0.02673 0.0
H1209 H 0.25538 0.17525 0.04213 0.0
H1210 H 0.23837 0.17004 0.02781 0.0
H1211 H 0.25305 0.16706 -0.00099 0.0
C1212 C 0.22704 0.14818 0.94209 0.0
C1213 C 0.23543 0.14249 0.91495 0.0
C1214 C 0.23108 0.14727 0.97809 0.0
C1215 C 0.24362 0.14077 0.9875 0.0
C1216 C 0.25171 0.1346 0.96061 0.0
H1217 H 0.28645 0.15332 0.1912 0.0
H1218 H 0.28091 0.1516 0.12717 0.0
C1219 C 0.24767 0.13544 0.92473 0.0
C1220 C 0.24854 0.14061 0.02519 0.0
H1221 H 0.25762 0.1617 0.09496 0.0
C1222 C 0.25115 0.12776 0.04165 0.0
C1223 C 0.25125 0.15301 0.04432 0.0
C1224 C 0.24951 0.16713 0.02736 0.0
C1225 C 0.2561 0.12697 0.07702 0.0
C1226 C 0.25823 0.13936 0.09665 0.0
C1227 C 0.25591 0.15221 0.07994 0.0
C1228 C 0.26236 0.13928 0.13498 0.0
C1229 C 0.25916 0.11288 0.09283 0.0
C1230 C 0.25384 0.13283 0.16053 0.0
C1231 C 0.25701 0.13373 0.19698 0.0
C1232 C 0.26869 0.14123 0.20874 0.0
C1233 C 0.27741 0.14743 0.18305 0.0
C1234 C 0.27423 0.14649 0.14648 0.0
H1235 H 0.26121 0.10506 0.07156 0.0
H1236 H 0.26826 0.11327 0.1111 0.0
H1237 H 0.25002 0.10931 0.10844 0.0
H1238 H 0.24446 0.12749 0.1524 0.0
H1239 H 0.25003 0.12888 0.21601 0.0
H1240 H 0.59998 0.53327 0.94351 0.0
H1241 H 0.60195 0.52685 0.88013 0.0
H1242 H 0.62383 0.4895 0.90966 0.0
H1243 H 0.62216 0.49592 0.97282 0.0
H1244 H 0.63521 0.50235 0.85027 0.0
H1245 H 0.57816 0.49615 0.83588 0.0
H1246 H 0.58346 0.513 0.85129 0.0
H1247 H 0.58651 0.49801 0.87894 0.0
C1248 C 0.60534 0.52377 0.93649 0.0
C1249 C 0.61079 0.51505 0.96327 0.0
C1250 C 0.60638 0.52007 0.90029 0.0
C1251 C 0.61278 0.50755 0.8903 0.0
C1252 C 0.61877 0.49916 0.91682 0.0
H1253 H 0.59977 0.46495 0.68727 0.0
H1254 H 0.60186 0.47069 0.75105 0.0
C1255 C 0.61778 0.50285 0.95294 0.0
C1256 C 0.61287 0.50292 0.85239 0.0
H1257 H 0.59157 0.49404 0.7829 0.0
C1258 C 0.62568 0.50052 0.8355 0.0
C1259 C 0.60041 0.50026 0.83347 0.0
C1260 C 0.58635 0.50185 0.85085 0.0
C1261 C 0.62636 0.49577 0.79992 0.0
C1262 C 0.6139 0.49359 0.7806 0.0
C1263 C 0.60111 0.49577 0.79771 0.0
C1264 C 0.61383 0.4894 0.74233 0.0
C1265 C 0.64041 0.49293 0.78355 0.0
C1266 C 0.61997 0.49795 0.71634 0.0
C1267 C 0.61887 0.49466 0.67997 0.0
C1268 C 0.61145 0.48284 0.6688 0.0
C1269 C 0.60558 0.47411 0.69495 0.0
C1270 C 0.60673 0.47739 0.73139 0.0
H1271 H 0.64841 0.49108 0.80448 0.0
H1272 H 0.64005 0.48378 0.76545 0.0
H1273 H 0.64369 0.50208 0.76759 0.0
H1274 H 0.62524 0.50742 0.72408 0.0
H1275 H 0.62346 0.50166 0.66057 0.0
H1276 H 0.25419 0.87122 0.72177 0.0
H1277 H 0.26043 0.87264 0.65855 0.0
H1278 H 0.22345 0.84987 0.63037 0.0
H1279 H 0.21722 0.84812 0.69395 0.0
H1280 H 0.24673 0.83912 0.59937 0.0
H1281 H 0.24509 0.89598 0.57748 0.0
H1282 H 0.25583 0.8911 0.61473 0.0
H1283 H 0.23744 0.88782 0.61634 0.0
C1284 C 0.24724 0.86668 0.70216 0.0
C1285 C 0.23519 0.85954 0.71295 0.0
C1286 C 0.25081 0.86758 0.66595 0.0
C1287 C 0.24233 0.86151 0.6397 0.0
C1288 C 0.23011 0.85468 0.65023 0.0
H1289 H 0.2497 0.87018 0.41009 0.0
H1290 H 0.2434 0.87177 0.47326 0.0
C1291 C 0.22654 0.85372 0.68655 0.0
C1292 C 0.24676 0.86146 0.6016 0.0
H1293 H 0.25638 0.88253 0.53226 0.0
C1294 C 0.24876 0.84861 0.58461 0.0
C1295 C 0.24933 0.87385 0.58236 0.0
C1296 C 0.24669 0.88797 0.59853 0.0
C1297 C 0.25342 0.84781 0.54899 0.0
C1298 C 0.25645 0.86019 0.53014 0.0
C1299 C 0.25427 0.87305 0.54697 0.0
C1300 C 0.26107 0.86002 0.49221 0.0
C1301 C 0.25474 0.8337 0.53166 0.0
C1302 C 0.27335 0.85323 0.48194 0.0
C1303 C 0.27699 0.85223 0.44565 0.0
C1304 C 0.26843 0.8581 0.41912 0.0
C1305 C 0.2565 0.86546 0.42977 0.0
C1306 C 0.25287 0.86641 0.46591 0.0
H1307 H 0.24882 0.82565 0.54653 0.0
H1308 H 0.25098 0.83394 0.5035 0.0
H1309 H 0.26582 0.83057 0.53144 0.0
H1310 H 0.28 0.8485 0.50192 0.0
H1311 H 0.28628 0.84656 0.43837 0.0
H1312 H 0.58981 0.03098 0.18554 0.0
H1313 H 0.59156 0.02401 0.2485 0.0
H1314 H 0.62775 0.99938 0.22375 0.0
H1315 H 0.6257 0.00586 0.16063 0.0
H1316 H 0.61035 0.98482 0.26218 0.0
H1317 H 0.61675 0.03598 0.32757 0.0
H1318 H 0.60133 0.03525 0.30073 0.0
H1319 H 0.61809 0.03376 0.27965 0.0
C1320 C 0.59828 0.02428 0.19367 0.0
C1321 C 0.60763 0.01898 0.16817 0.0
C1322 C 0.59931 0.02034 0.22972 0.0
C1323 C 0.6099 0.0113 0.24105 0.0
C1324 C 0.61949 0.00636 0.21571 0.0
H1325 H 0.62715 0.99596 0.4666 0.0
H1326 H 0.62866 0.00237 0.40331 0.0
C1327 C 0.61834 0.01011 0.17965 0.0
C1328 C 0.61051 0.00626 0.27873 0.0
H1329 H 0.61099 0.01697 0.36599 0.0
C1330 C 0.61062 0.99186 0.28487 0.0
C1331 C 0.61104 0.01541 0.30839 0.0
C1332 C 0.61195 0.03095 0.30378 0.0
C1333 C 0.61104 0.98637 0.31976 0.0
C1334 C 0.61088 0.99553 0.34944 0.0
C1335 C 0.61098 0.00993 0.34329 0.0
C1336 C 0.61063 0.99049 0.38715 0.0
C1337 C 0.61194 0.97083 0.32428 0.0
C1338 C 0.60012 0.98149 0.39917 0.0
C1339 C 0.59941 0.97759 0.43529 0.0
C1340 C 0.60899 0.98289 0.46021 0.0
C1341 C 0.61961 0.99172 0.44804 0.0
C1342 C 0.62046 0.99542 0.41188 0.0
H1343 H 0.61649 0.96579 0.30018 0.0
H1344 H 0.6183 0.96799 0.34801 0.0
H1345 H 0.60133 0.96656 0.32799 0.0
H1346 H 0.59219 0.97783 0.38089 0.0
H1347 H 0.59099 0.97093 0.44397 0.0
H1348 H 0.24358 0.37625 0.4137 0.0
H1349 H 0.25017 0.37758 0.4769 0.0
H1350 H 0.22712 0.34008 0.49836 0.0
H1351 H 0.22002 0.33902 0.43531 0.0
H1352 H 0.22403 0.35802 0.55161 0.0
H1353 H 0.28001 0.35389 0.51963 0.0
H1354 H 0.27209 0.36864 0.49866 0.0
H1355 H 0.26669 0.35139 0.48629 0.0
C1356 C 0.23979 0.36837 0.43198 0.0
C1357 C 0.23138 0.35746 0.41954 0.0
C1358 C 0.24367 0.36907 0.46803 0.0
C1359 C 0.23952 0.35869 0.49216 0.0
C1360 C 0.23057 0.34814 0.48015 0.0
H1361 H 0.27989 0.34077 0.69553 0.0
H1362 H 0.27238 0.34137 0.63282 0.0
C1363 C 0.22648 0.34756 0.44416 0.0
C1364 C 0.2447 0.35869 0.5297 0.0
H1365 H 0.27433 0.35947 0.58006 0.0
C1366 C 0.23502 0.35829 0.55783 0.0
C1367 C 0.25907 0.35874 0.53784 0.0
C1368 C 0.27006 0.35804 0.50901 0.0
C1369 C 0.2393 0.35815 0.59385 0.0
C1370 C 0.25366 0.35892 0.60199 0.0
C1371 C 0.26333 0.35911 0.57384 0.0
C1372 C 0.25886 0.35915 0.63951 0.0
C1373 C 0.22837 0.3568 0.62268 0.0
C1374 C 0.25416 0.36923 0.66384 0.0
C1375 C 0.2583 0.36879 0.69974 0.0
C1376 C 0.26749 0.35846 0.71182 0.0
C1377 C 0.27283 0.34887 0.687 0.0
C1378 C 0.26851 0.34918 0.65118 0.0
H1379 H 0.21867 0.3521 0.61206 0.0
H1380 H 0.23213 0.35035 0.64537 0.0
H1381 H 0.22575 0.36727 0.63308 0.0
H1382 H 0.24711 0.37732 0.65522 0.0
H1383 H 0.25413 0.37642 0.71818 0.0
H1384 H 0.9106 0.03041 0.9422 0.0
H1385 H 0.90866 0.02385 0.87904 0.0
H1386 H 0.87216 0.99959 0.90317 0.0
H1387 H 0.87444 0.00562 0.9666 0.0
H1388 H 0.88887 0.98507 0.86365 0.0
H1389 H 0.88392 0.03675 0.80059 0.0
H1390 H 0.89938 0.03559 0.82716 0.0
H1391 H 0.88262 0.0343 0.84843 0.0
C1392 C 0.90203 0.02387 0.93392 0.0
C1393 C 0.89266 0.01855 0.95934 0.0
C1394 C 0.90088 0.02018 0.89773 0.0
C1395 C 0.89013 0.01138 0.88611 0.0
C1396 C 0.88054 0.00639 0.9114 0.0
H1397 H 0.87484 0.99797 0.65805 0.0
H1398 H 0.87264 0.0042 0.72137 0.0
C1399 C 0.88182 0.00988 0.94764 0.0
C1400 C 0.88941 0.00662 0.84816 0.0
H1401 H 0.88984 0.01794 0.76138 0.0
C1402 C 0.88893 0.99228 0.8413 0.0
C1403 C 0.88927 0.01598 0.81889 0.0
C1404 C 0.88867 0.03151 0.82413 0.0
C1405 C 0.88861 0.98704 0.80614 0.0
C1406 C 0.88931 0.99639 0.77688 0.0
C1407 C 0.88948 0.01074 0.78373 0.0
C1408 C 0.88996 0.99158 0.73896 0.0
C1409 C 0.88729 0.97157 0.80088 0.0
C1410 C 0.90032 0.98228 0.72766 0.0
C1411 C 0.90141 0.97848 0.69153 0.0
C1412 C 0.89239 0.98418 0.66585 0.0
C1413 C 0.88195 0.99339 0.67721 0.0
C1414 C 0.88071 0.99699 0.7134 0.0
H1415 H 0.8822 0.96656 0.8243 0.0
H1416 H 0.88122 0.96905 0.77642 0.0
H1417 H 0.89781 0.96697 0.79815 0.0
H1418 H 0.90785 0.97827 0.74656 0.0
H1419 H 0.90969 0.97152 0.68353 0.0
H1420 H 0.27946 0.65851 0.93395 0.0
H1421 H 0.27267 0.6564 0.99689 0.0
H1422 H 0.24636 0.62162 0.97036 0.0
H1423 H 0.25266 0.62408 0.90715 0.0
H1424 H 0.2328 0.6388 0.01108 0.0
H1425 H 0.28411 0.63008 0.0735 0.0
H1426 H 0.28391 0.64582 0.04792 0.0
H1427 H 0.28158 0.62939 0.0256 0.0
C1428 C 0.2724 0.65027 0.94163 0.0
C1429 C 0.26662 0.64144 0.91561 0.0
C1430 C 0.26857 0.64902 0.9777 0.0
C1431 C 0.25916 0.6387 0.9886 0.0
C1432 C 0.25365 0.62965 0.96269 0.0
H1433 H 0.24503 0.62235 0.21588 0.0
H1434 H 0.25094 0.62017 0.15235 0.0
C1435 C 0.25729 0.63104 0.92657 0.0
C1436 C 0.25436 0.63788 0.02649 0.0
H1437 H 0.26572 0.63678 0.11318 0.0
C1438 C 0.24001 0.63821 0.03338 0.0
C1439 C 0.26371 0.63688 0.05568 0.0
C1440 C 0.27917 0.63537 0.0503 0.0
C1441 C 0.23478 0.63789 0.06855 0.0
C1442 C 0.24416 0.63773 0.09778 0.0
C1443 C 0.25849 0.63707 0.09086 0.0
C1444 C 0.23943 0.63838 0.13576 0.0
C1445 C 0.21925 0.63749 0.07383 0.0
C1446 C 0.23083 0.64924 0.14768 0.0
C1447 C 0.2272 0.65034 0.18392 0.0
C1448 C 0.2324 0.6408 0.2091 0.0
C1449 C 0.24086 0.62986 0.19711 0.0
C1450 C 0.24428 0.62863 0.1608 0.0
H1451 H 0.21393 0.63291 0.05017 0.0
H1452 H 0.21637 0.63139 0.09798 0.0
H1453 H 0.21532 0.64825 0.07715 0.0
H1454 H 0.22727 0.65714 0.12919 0.0
H1455 H 0.22083 0.659 0.19242 0.0
H1456 H 0.40989 0.97072 0.94413 0.0
H1457 H 0.40902 0.97796 0.88125 0.0
H1458 H 0.37243 0.00236 0.90326 0.0
H1459 H 0.37359 0.99562 0.96642 0.0
H1460 H 0.39102 0.97537 0.82855 0.0
H1461 H 0.39684 0.0313 0.85942 0.0
H1462 H 0.39892 0.01801 0.89304 0.0
H1463 H 0.38184 0.02386 0.88044 0.0
C1464 C 0.40159 0.97753 0.93549 0.0
C1465 C 0.3919 0.98272 0.96027 0.0
C1466 C 0.40112 0.98169 0.89956 0.0
C1467 C 0.39089 0.99102 0.8877 0.0
C1468 C 0.38071 0.99555 0.912 0.0
H1469 H 0.37458 0.00535 0.66055 0.0
H1470 H 0.37299 0.99872 0.7237 0.0
C1471 C 0.38131 0.99158 0.94803 0.0
C1472 C 0.39099 0.99611 0.85005 0.0
H1473 H 0.39134 0.02558 0.79902 0.0
C1474 C 0.39112 0.98635 0.8221 0.0
C1475 C 0.39141 0.01045 0.84159 0.0
C1476 C 0.3924 0.0215 0.8702 0.0
C1477 C 0.39153 0.99049 0.78601 0.0
C1478 C 0.39129 0.00483 0.77753 0.0
C1479 C 0.39131 0.0146 0.80548 0.0
C1480 C 0.39146 0.00991 0.73987 0.0
C1481 C 0.39263 0.97943 0.75746 0.0
C1482 C 0.40185 0.01913 0.72832 0.0
C1483 C 0.40256 0.02324 0.69236 0.0
C1484 C 0.39297 0.01809 0.66727 0.0
C1485 C 0.38223 0.00935 0.6792 0.0
C1486 C 0.38138 0.00544 0.71523 0.0
H1487 H 0.39694 0.96961 0.76844 0.0
H1488 H 0.38213 0.97714 0.74676 0.0
H1489 H 0.39934 0.98287 0.73491 0.0
H1490 H 0.40967 0.02282 0.74691 0.0
H1491 H 0.41097 0.02996 0.68396 0.0
H1492 H 0.75515 0.62932 0.40572 0.0
H1493 H 0.76099 0.62743 0.46922 0.0
H1494 H 0.72361 0.64964 0.49691 0.0
H1495 H 0.71777 0.65179 0.43323 0.0
H1496 H 0.7469 0.66046 0.52888 0.0
H1497 H 0.74502 0.60347 0.54908 0.0
H1498 H 0.75583 0.60865 0.51219 0.0
H1499 H 0.73744 0.61186 0.51044 0.0
C1500 C 0.74804 0.63363 0.42528 0.0
C1501 C 0.73598 0.64072 0.41436 0.0
C1502 C 0.75137 0.63247 0.46163 0.0
C1503 C 0.74266 0.63826 0.48782 0.0
C1504 C 0.73045 0.64504 0.4771 0.0
H1505 H 0.74831 0.62939 0.71823 0.0
H1506 H 0.74227 0.62779 0.65479 0.0
C1507 C 0.7271 0.64623 0.44071 0.0
C1508 C 0.74684 0.63813 0.5261 0.0
H1509 H 0.75566 0.61676 0.59556 0.0
C1510 C 0.74875 0.6509 0.54353 0.0
C1511 C 0.74916 0.62565 0.5452 0.0
C1512 C 0.74664 0.61163 0.52841 0.0
C1513 C 0.75308 0.65156 0.57943 0.0
C1514 C 0.75584 0.63909 0.59819 0.0
C1515 C 0.75374 0.6263 0.58094 0.0
C1516 C 0.76027 0.63914 0.63628 0.0
C1517 C 0.75438 0.66559 0.59714 0.0
C1518 C 0.77264 0.6457 0.64685 0.0
C1519 C 0.77612 0.64669 0.68321 0.0
C1520 C 0.76733 0.64105 0.70958 0.0
C1521 C 0.75529 0.63392 0.69868 0.0
C1522 C 0.75182 0.63297 0.66239 0.0
H1523 H 0.74865 0.67375 0.58211 0.0
H1524 H 0.75038 0.66529 0.62508 0.0
H1525 H 0.76548 0.66863 0.59805 0.0
H1526 H 0.77947 0.65027 0.62702 0.0
H1527 H 0.7855 0.65218 0.69067 0.0
H1528 H 0.09044 0.03058 0.44571 0.0
H1529 H 0.09134 0.02334 0.38279 0.0
H1530 H 0.12827 0.99944 0.40454 0.0
H1531 H 0.1271 0.00618 0.46768 0.0
H1532 H 0.10932 0.0261 0.32981 0.0
H1533 H 0.10409 0.97016 0.36117 0.0
H1534 H 0.10185 0.98348 0.39465 0.0
H1535 H 0.119 0.97777 0.38221 0.0
C1536 C 0.09882 0.02389 0.43699 0.0
C1537 C 0.10861 0.01882 0.4617 0.0
C1538 C 0.0993 0.01972 0.40105 0.0
C1539 C 0.10965 0.01052 0.38912 0.0
C1540 C 0.11992 0.00615 0.41334 0.0
H1541 H 0.127 0.996 0.16276 0.0
H1542 H 0.12809 0.00284 0.22583 0.0
C1543 C 0.11931 0.01012 0.44936 0.0
C1544 C 0.10958 0.00539 0.3515 0.0
H1545 H 0.10974 0.97584 0.30077 0.0
C1546 C 0.10937 0.01511 0.32346 0.0
C1547 C 0.10935 0.99103 0.34318 0.0
C1548 C 0.10843 0.98001 0.37189 0.0
C1549 C 0.10912 0.0109 0.2874 0.0
C1550 C 0.10959 0.99655 0.27907 0.0
C1551 C 0.1096 0.98683 0.30711 0.0
C1552 C 0.1097 0.99141 0.24146 0.0
C1553 C 0.10796 0.0219 0.2587 0.0
C1554 C 0.09953 0.98199 0.22966 0.0
C1555 C 0.0991 0.97777 0.19375 0.0
C1556 C 0.10878 0.98299 0.16896 0.0
C1557 C 0.1193 0.99193 0.18116 0.0
C1558 C 0.11985 0.99597 0.21714 0.0
H1559 H 0.10345 0.03166 0.26947 0.0
H1560 H 0.11847 0.02434 0.24829 0.0
H1561 H 0.10142 0.01831 0.23599 0.0
H1562 H 0.09165 0.97823 0.24799 0.0
H1563 H 0.09085 0.97089 0.18514 0.0
H1564 H 0.71444 0.34697 0.19034 0.0
H1565 H 0.72017 0.34886 0.12644 0.0
H1566 H 0.75608 0.37362 0.1526 0.0
H1567 H 0.75032 0.37206 0.21612 0.0
H1568 H 0.74221 0.38346 0.0934 0.0
H1569 H 0.75209 0.32682 0.0821 0.0
H1570 H 0.735 0.33124 0.09762 0.0
H1571 H 0.74987 0.3354 0.12473 0.0
C1572 C 0.72345 0.35297 0.18244 0.0
C1573 C 0.732 0.35924 0.20837 0.0
C1574 C 0.72677 0.35394 0.14595 0.0
C1575 C 0.73872 0.36113 0.13488 0.0
C1576 C 0.74686 0.36795 0.16057 0.0
H1577 H 0.78316 0.34952 0.93435 0.0
H1578 H 0.77658 0.35148 0.99763 0.0
C1579 C 0.74355 0.36702 0.19692 0.0
C1580 C 0.74314 0.36117 0.09679 0.0
H1581 H 0.75367 0.33995 0.02868 0.0
C1582 C 0.7447 0.37396 0.07918 0.0
C1583 C 0.74665 0.34877 0.07859 0.0
C1584 C 0.74596 0.33477 0.09675 0.0
C1585 C 0.74954 0.37467 0.0437 0.0
C1586 C 0.75267 0.36224 0.02517 0.0
C1587 C 0.75122 0.34946 0.0429 0.0
C1588 C 0.75722 0.36216 0.98717 0.0
C1589 C 0.75154 0.38874 0.02667 0.0
C1590 C 0.74858 0.3676 0.96037 0.0
C1591 C 0.75235 0.36658 0.9243 0.0
C1592 C 0.76477 0.35994 0.91424 0.0
C1593 C 0.77355 0.35473 0.94119 0.0
C1594 C 0.76978 0.3558 0.97733 0.0
H1595 H 0.75269 0.39702 0.04721 0.0
H1596 H 0.76082 0.38887 0.00901 0.0
H1597 H 0.7423 0.39126 0.01012 0.0
H1598 H 0.7387 0.37227 0.96724 0.0
H1599 H 0.74529 0.37064 0.90426 0.0
H1600 H 0.10888 0.49423 0.46605 0.0
H1601 H 0.10777 0.48897 0.40202 0.0
H1602 H 0.08486 0.52676 0.38353 0.0
H1603 H 0.08577 0.53209 0.44769 0.0
H1604 H 0.07403 0.50296 0.34773 0.0
H1605 H 0.13064 0.50978 0.32531 0.0
H1606 H 0.12632 0.49792 0.36079 0.0
H1607 H 0.12195 0.51598 0.36514 0.0
C1608 C 0.10358 0.50143 0.44842 0.0
C1609 C 0.0975 0.51363 0.4619 0.0
C1610 C 0.103 0.49842 0.41186 0.0
C1611 C 0.09642 0.50759 0.38814 0.0
C1612 C 0.09005 0.51961 0.40151 0.0
H1613 H 0.10693 0.50782 0.1577 0.0
H1614 H 0.10544 0.51397 0.22112 0.0
C1615 C 0.09061 0.52263 0.43812 0.0
C1616 C 0.09631 0.50467 0.34928 0.0
H1617 H 0.11765 0.5002 0.27723 0.0
C1618 C 0.08354 0.5024 0.33219 0.0
C1619 C 0.10875 0.50416 0.32918 0.0
C1620 C 0.12269 0.50721 0.34589 0.0
C1621 C 0.08289 0.49934 0.29544 0.0
C1622 C 0.09537 0.49834 0.27562 0.0
C1623 C 0.10811 0.50086 0.29263 0.0
C1624 C 0.09552 0.49479 0.23706 0.0
C1625 C 0.06887 0.49738 0.27808 0.0
C1626 C 0.09046 0.48194 0.22512 0.0
C1627 C 0.09125 0.4784 0.18885 0.0
C1628 C 0.09725 0.48761 0.16402 0.0
C1629 C 0.10227 0.50049 0.17613 0.0
C1630 C 0.10142 0.50403 0.21234 0.0
H1631 H 0.06043 0.50207 0.29439 0.0
H1632 H 0.06865 0.50205 0.25084 0.0
H1633 H 0.0667 0.48612 0.27546 0.0
H1634 H 0.08613 0.47455 0.24395 0.0
H1635 H 0.08735 0.46837 0.18038 0.0
H1636 H 0.72092 0.83537 0.70043 0.0
H1637 H 0.72742 0.83325 0.63726 0.0
H1638 H 0.76655 0.85329 0.65935 0.0
H1639 H 0.76009 0.85566 0.72238 0.0
H1640 H 0.75236 0.86496 0.60302 0.0
H1641 H 0.75549 0.80776 0.58746 0.0
H1642 H 0.73948 0.8137 0.60681 0.0
H1643 H 0.75549 0.81619 0.63076 0.0
C1644 C 0.73097 0.83921 0.69191 0.0
C1645 C 0.73997 0.84573 0.71635 0.0
C1646 C 0.7347 0.83789 0.65589 0.0
C1647 C 0.74754 0.84294 0.64385 0.0
C1648 C 0.75663 0.84926 0.66826 0.0
H1649 H 0.78266 0.83513 0.42929 0.0
H1650 H 0.77858 0.83346 0.49402 0.0
C1651 C 0.7529 0.85063 0.70421 0.0
C1652 C 0.75104 0.84266 0.60532 0.0
H1653 H 0.75537 0.82114 0.53344 0.0
C1654 C 0.75312 0.85538 0.58785 0.0
C1655 C 0.75216 0.83012 0.58581 0.0
C1656 C 0.75067 0.81615 0.60369 0.0
C1657 C 0.75595 0.85593 0.55107 0.0
C1658 C 0.75648 0.84344 0.53126 0.0
C1659 C 0.75479 0.83068 0.54882 0.0
C1660 C 0.75853 0.84356 0.49211 0.0
C1661 C 0.75836 0.86988 0.53367 0.0
C1662 C 0.74845 0.8495 0.46982 0.0
C1663 C 0.75073 0.85049 0.433 0.0
C1664 C 0.76313 0.8455 0.41786 0.0
C1665 C 0.77303 0.83913 0.44018 0.0
C1666 C 0.77072 0.83814 0.47709 0.0
H1667 H 0.76093 0.878 0.55376 0.0
H1668 H 0.76692 0.8693 0.51374 0.0
H1669 H 0.74879 0.87312 0.51939 0.0
H1670 H 0.73889 0.85355 0.48102 0.0
H1671 H 0.74285 0.85537 0.41652 0.0
H1672 H 0.39641 0.49354 0.6627 0.0
H1673 H 0.39761 0.48883 0.72698 0.0
H1674 H 0.41795 0.52814 0.74418 0.0
H1675 H 0.41692 0.53296 0.67973 0.0
H1676 H 0.42986 0.50492 0.78224 0.0
H1677 H 0.37279 0.50953 0.80061 0.0
H1678 H 0.37803 0.49767 0.76594 0.0
H1679 H 0.38163 0.51588 0.76117 0.0
C1680 C 0.4012 0.50118 0.68007 0.0
C1681 C 0.40647 0.51368 0.66616 0.0
C1682 C 0.40183 0.49847 0.71678 0.0
C1683 C 0.40767 0.50824 0.74019 0.0
C1684 C 0.41334 0.52053 0.7264 0.0
H1685 H 0.39493 0.50948 0.97004 0.0
H1686 H 0.39705 0.51557 0.90668 0.0
C1687 C 0.41272 0.52326 0.68963 0.0
C1688 C 0.40754 0.50572 0.77921 0.0
H1689 H 0.38569 0.50098 0.85009 0.0
C1690 C 0.42023 0.50411 0.79721 0.0
C1691 C 0.39495 0.50488 0.79853 0.0
C1692 C 0.38106 0.5072 0.78072 0.0
C1693 C 0.42063 0.50133 0.83414 0.0
C1694 C 0.408 0.49999 0.85319 0.0
C1695 C 0.39534 0.50191 0.83527 0.0
C1696 C 0.4076 0.49659 0.89179 0.0
C1697 C 0.43452 0.5 0.8525 0.0
C1698 C 0.41281 0.48389 0.90427 0.0
C1699 C 0.41164 0.48037 0.94048 0.0
C1700 C 0.40512 0.48947 0.9647 0.0
C1701 C 0.39999 0.50223 0.95208 0.0
C1702 C 0.4012 0.50574 0.91592 0.0
H1703 H 0.44297 0.50485 0.8365 0.0
H1704 H 0.43431 0.50489 0.87949 0.0
H1705 H 0.43704 0.48884 0.85591 0.0
H1706 H 0.41752 0.47657 0.88587 0.0
H1707 H 0.41564 0.47044 0.94934 0.0
H1708 H 0.78278 0.16293 0.19656 0.0
H1709 H 0.77675 0.16411 0.13288 0.0
H1710 H 0.73797 0.14334 0.15452 0.0
H1711 H 0.74396 0.1419 0.21804 0.0
H1712 H 0.75243 0.13191 0.09802 0.0
H1713 H 0.74823 0.18911 0.08333 0.0
H1714 H 0.76436 0.1833 0.10231 0.0
H1715 H 0.74844 0.18061 0.1265 0.0
C1716 C 0.77293 0.15869 0.18781 0.0
C1717 C 0.76384 0.15232 0.21233 0.0
C1718 C 0.76947 0.15945 0.15147 0.0
C1719 C 0.75684 0.15399 0.13918 0.0
C1720 C 0.74775 0.14767 0.16358 0.0
H1721 H 0.71861 0.16381 0.93007 0.0
H1722 H 0.72428 0.16449 0.99404 0.0
C1723 C 0.7512 0.14686 0.19985 0.0
C1724 C 0.75335 0.15422 0.10061 0.0
H1725 H 0.74767 0.17582 0.02955 0.0
C1726 C 0.75134 0.1415 0.08304 0.0
C1727 C 0.75179 0.16678 0.08136 0.0
C1728 C 0.75318 0.18074 0.09935 0.0
C1729 C 0.748 0.14097 0.04651 0.0
C1730 C 0.74689 0.1535 0.02699 0.0
C1731 C 0.74867 0.16624 0.04463 0.0
C1732 C 0.74377 0.15355 0.98823 0.0
C1733 C 0.74548 0.12702 0.02925 0.0
C1734 C 0.75299 0.1474 0.96389 0.0
C1735 C 0.74978 0.14694 0.92742 0.0
C1736 C 0.73732 0.15273 0.91467 0.0
C1737 C 0.72827 0.15921 0.93906 0.0
C1738 C 0.73149 0.15964 0.97557 0.0
H1739 H 0.74328 0.11886 0.04952 0.0
H1740 H 0.73664 0.12752 0.01015 0.0
H1741 H 0.75488 0.12388 0.01409 0.0
H1742 H 0.76265 0.14287 0.97315 0.0
H1743 H 0.75703 0.14197 0.9093 0.0
H1744 H 0.91382 0.46814 0.67984 0.0
H1745 H 0.91501 0.47298 0.74423 0.0
H1746 H 0.89378 0.51186 0.72761 0.0
H1747 H 0.89239 0.50709 0.66336 0.0
H1748 H 0.92684 0.49601 0.78134 0.0
H1749 H 0.86997 0.49147 0.80314 0.0
H1750 H 0.87842 0.4852 0.76305 0.0
H1751 H 0.87481 0.5034 0.76829 0.0
C1752 C 0.90943 0.47774 0.68986 0.0
C1753 C 0.9029 0.48719 0.66655 0.0
C1754 C 0.91014 0.48048 0.72661 0.0
C1755 C 0.9043 0.49267 0.74057 0.0
C1756 C 0.89812 0.50228 0.71731 0.0
H1757 H 0.91423 0.53083 0.94892 0.0
H1758 H 0.91558 0.52458 0.88542 0.0
C1759 C 0.89738 0.49955 0.68062 0.0
C1760 C 0.9045 0.49528 0.77958 0.0
H1761 H 0.88329 0.50026 0.85167 0.0
C1762 C 0.91734 0.49688 0.79684 0.0
C1763 C 0.89208 0.4962 0.79963 0.0
C1764 C 0.87803 0.49385 0.78272 0.0
C1765 C 0.91807 0.49972 0.83371 0.0
C1766 C 0.90563 0.50116 0.85347 0.0
C1767 C 0.89281 0.49926 0.83631 0.0
C1768 C 0.90558 0.50463 0.89207 0.0
C1769 C 0.93213 0.501 0.85125 0.0
C1770 C 0.89933 0.49555 0.91664 0.0
C1771 C 0.89843 0.49913 0.95282 0.0
C1772 C 0.90371 0.51189 0.96503 0.0
C1773 C 0.91011 0.5209 0.94038 0.0
C1774 C 0.91098 0.51732 0.90414 0.0
H1775 H 0.94041 0.49608 0.83482 0.0
H1776 H 0.93475 0.51216 0.85439 0.0
H1777 H 0.93212 0.49617 0.8783 0.0
H1778 H 0.89505 0.48574 0.90774 0.0
H1779 H 0.89345 0.49195 0.97111 0.0
H1780 H 0.21785 0.16597 0.69808 0.0
H1781 H 0.22225 0.1672 0.63342 0.0
H1782 H 0.26094 0.14539 0.648 0.0
H1783 H 0.25664 0.14399 0.7124 0.0
H1784 H 0.24569 0.17855 0.59487 0.0
H1785 H 0.23898 0.12186 0.57411 0.0
H1786 H 0.23313 0.13064 0.61415 0.0
H1787 H 0.25117 0.12633 0.60873 0.0
C1788 C 0.22732 0.16147 0.68753 0.0
C1789 C 0.23684 0.15477 0.7103 0.0
C1790 C 0.22981 0.16221 0.65066 0.0
C1791 C 0.24181 0.15621 0.63608 0.0
C1792 C 0.25151 0.14988 0.65881 0.0
H1793 H 0.28061 0.16411 0.42864 0.0
H1794 H 0.27399 0.1661 0.49179 0.0
C1795 C 0.24904 0.14913 0.69559 0.0
C1796 C 0.24413 0.15626 0.59699 0.0
H1797 H 0.24836 0.13468 0.52537 0.0
C1798 C 0.24619 0.16899 0.57952 0.0
C1799 C 0.24456 0.14377 0.57717 0.0
C1800 C 0.24172 0.12987 0.59436 0.0
C1801 C 0.24909 0.16951 0.54265 0.0
C1802 C 0.25012 0.15696 0.52316 0.0
C1803 C 0.24768 0.14428 0.54052 0.0
C1804 C 0.25379 0.15664 0.48471 0.0
C1805 C 0.25093 0.18346 0.52487 0.0
C1806 C 0.2447 0.15047 0.46004 0.0
C1807 C 0.24851 0.14917 0.42411 0.0
C1808 C 0.26149 0.154 0.41224 0.0
C1809 C 0.27052 0.16033 0.43695 0.0
C1810 C 0.26671 0.16158 0.47296 0.0
H1811 H 0.24615 0.19193 0.54091 0.0
H1812 H 0.26218 0.18572 0.52225 0.0
H1813 H 0.24629 0.18352 0.4976 0.0
H1814 H 0.23471 0.14653 0.4687 0.0
H1815 H 0.2413 0.14427 0.40575 0.0
H1816 H 0.5788 0.52575 0.17411 0.0
H1817 H 0.57596 0.52053 0.23803 0.0
H1818 H 0.61119 0.49289 0.23332 0.0
H1819 H 0.61367 0.49757 0.16937 0.0
H1820 H 0.59096 0.48164 0.27072 0.0
H1821 H 0.59923 0.53572 0.31777 0.0
H1822 H 0.58481 0.5338 0.28771 0.0
H1823 H 0.60217 0.53057 0.27191 0.0
C1824 C 0.58591 0.51857 0.18681 0.0
C1825 C 0.59649 0.51211 0.1669 0.0
C1826 C 0.58434 0.51565 0.22331 0.0
C1827 C 0.59353 0.50653 0.24058 0.0
C1828 C 0.60399 0.49998 0.22055 0.0
H1829 H 0.61628 0.50033 0.46115 0.0
H1830 H 0.61332 0.50557 0.39752 0.0
C1831 C 0.6054 0.50267 0.18403 0.0
C1832 C 0.59243 0.50369 0.27949 0.0
H1833 H 0.59392 0.519 0.36192 0.0
C1834 C 0.59157 0.4898 0.29071 0.0
C1835 C 0.59334 0.51437 0.30545 0.0
C1836 C 0.59507 0.52943 0.29519 0.0
C1837 C 0.59203 0.48624 0.32714 0.0
C1838 C 0.59281 0.49693 0.35311 0.0
C1839 C 0.59325 0.51084 0.34193 0.0
C1840 C 0.59421 0.49391 0.39188 0.0
C1841 C 0.59236 0.47106 0.33719 0.0
C1842 C 0.58437 0.48575 0.40993 0.0
C1843 C 0.58621 0.48248 0.44612 0.0
C1844 C 0.59773 0.48766 0.46501 0.0
C1845 C 0.60731 0.49621 0.44722 0.0
C1846 C 0.60561 0.49923 0.41091 0.0
H1847 H 0.5955 0.46443 0.31418 0.0
H1848 H 0.59966 0.46915 0.35971 0.0
H1849 H 0.58182 0.46776 0.34569 0.0
H1850 H 0.57528 0.48188 0.39606 0.0
H1851 H 0.57856 0.47604 0.4594 0.0
H1852 H 0.22041 0.83525 0.93035 0.0
H1853 H 0.22567 0.83345 0.99445 0.0
H1854 H 0.26412 0.85546 0.97781 0.0
H1855 H 0.25895 0.85745 0.91389 0.0
H1856 H 0.24959 0.82185 0.03045 0.0
H1857 H 0.24293 0.8784 0.05444 0.0
H1858 H 0.2367 0.8699 0.01438 0.0
H1859 H 0.2548 0.87408 0.01895 0.0
C1860 C 0.23001 0.83967 0.9403 0.0
C1861 C 0.23921 0.84661 0.91712 0.0
C1862 C 0.23299 0.8386 0.97686 0.0
C1863 C 0.24517 0.84448 0.99072 0.0
C1864 C 0.25456 0.85105 0.96756 0.0
H1865 H 0.28321 0.83541 0.20012 0.0
H1866 H 0.27745 0.83381 0.13629 0.0
C1867 C 0.25159 0.85214 0.93107 0.0
C1868 C 0.24792 0.84414 0.02961 0.0
H1869 H 0.252 0.86511 0.10248 0.0
C1870 C 0.25008 0.83127 0.04633 0.0
C1871 C 0.24836 0.85647 0.05011 0.0
C1872 C 0.24546 0.8705 0.03371 0.0
C1873 C 0.25295 0.83045 0.08318 0.0
C1874 C 0.25381 0.84282 0.10343 0.0
C1875 C 0.25142 0.85565 0.08674 0.0
C1876 C 0.25698 0.84281 0.14216 0.0
C1877 C 0.25484 0.81637 0.10021 0.0
C1878 C 0.24743 0.84853 0.16637 0.0
C1879 C 0.25073 0.84958 0.20266 0.0
C1880 C 0.26367 0.84496 0.21539 0.0
C1881 C 0.27314 0.83902 0.19114 0.0
C1882 C 0.26984 0.83801 0.15474 0.0
H1883 H 0.25048 0.80795 0.08321 0.0
H1884 H 0.26609 0.81433 0.10385 0.0
H1885 H 0.2498 0.81596 0.12699 0.0
H1886 H 0.23748 0.85234 0.15707 0.0
H1887 H 0.24318 0.85417 0.22064 0.0
H1888 H 0.60919 0.00814 0.66044 0.0
H1889 H 0.60758 0.01384 0.72416 0.0
H1890 H 0.58553 0.97562 0.74368 0.0
H1891 H 0.58694 0.96986 0.67984 0.0
H1892 H 0.57399 0.99934 0.77836 0.0
H1893 H 0.6307 0.99409 0.80207 0.0
H1894 H 0.62611 0.0057 0.76629 0.0
H1895 H 0.62232 0.9875 0.76225 0.0
C1896 C 0.60397 0.00094 0.67823 0.0
C1897 C 0.59829 0.98849 0.66514 0.0
C1898 C 0.6031 0.00421 0.71462 0.0
C1899 C 0.59662 0.99505 0.73856 0.0
C1900 C 0.59063 0.98278 0.72554 0.0
H1901 H 0.60618 0.99377 0.96856 0.0
H1902 H 0.60491 0.98823 0.90476 0.0
C1903 C 0.59148 0.9795 0.68911 0.0
C1904 C 0.59631 0.99816 0.77733 0.0
H1905 H 0.61726 0.00303 0.84998 0.0
C1906 C 0.58342 1.00013 0.79413 0.0
C1907 C 0.60865 0.99901 0.79772 0.0
C1908 C 0.62274 0.99634 0.78132 0.0
C1909 C 0.58256 0.0031 0.83092 0.0
C1910 C 0.59494 0.00431 0.85109 0.0
C1911 C 0.6078 0.00219 0.83431 0.0
C1912 C 0.59485 0.00747 0.88987 0.0
C1913 C 0.56845 0.00469 0.84799 0.0
C1914 C 0.5896 0.02013 0.90256 0.0
C1915 C 0.59026 0.02333 0.93909 0.0
C1916 C 0.59632 0.01395 0.96341 0.0
C1917 C 0.60147 0.00124 0.95055 0.0
C1918 C 0.60076 0.99804 0.91411 0.0
H1919 H 0.56012 1.00011 0.83109 0.0
H1920 H 0.56817 0.99971 0.87483 0.0
H1921 H 0.56614 0.0159 0.85149 0.0
H1922 H 0.58525 0.02766 0.88414 0.0
H1923 H 0.58627 0.03324 0.94813 0.0
H1924 H 0.21936 0.3363 0.19886 0.0
H1925 H 0.22562 0.33514 0.13534 0.0
H1926 H 0.26412 0.35631 0.15782 0.0
H1927 H 0.25788 0.35772 0.2212 0.0
H1928 H 0.24947 0.3678 0.10165 0.0
H1929 H 0.25455 0.31075 0.08505 0.0
H1930 H 0.23836 0.3162 0.10437 0.0
H1931 H 0.25426 0.31905 0.12849 0.0
C1932 C 0.22921 0.34061 0.19034 0.0
C1933 C 0.23812 0.34712 0.21504 0.0
C1934 C 0.2328 0.33985 0.1541 0.0
C1935 C 0.24541 0.34547 0.14207 0.0
C1936 C 0.25437 0.35186 0.16669 0.0
H1937 H 0.28284 0.33757 0.93107 0.0
H1938 H 0.27766 0.33636 0.99528 0.0
C1939 C 0.25078 0.35266 0.20286 0.0
C1940 C 0.24892 0.34546 0.10351 0.0
H1941 H 0.25465 0.3243 0.03159 0.0
C1942 C 0.25067 0.35829 0.08634 0.0
C1943 C 0.2506 0.33303 0.08382 0.0
C1944 C 0.24948 0.31896 0.10138 0.0
C1945 C 0.25385 0.35905 0.04974 0.0
C1946 C 0.25505 0.34664 0.02976 0.0
C1947 C 0.25357 0.33379 0.04702 0.0
C1948 C 0.25788 0.34685 0.99087 0.0
C1949 C 0.25605 0.37313 0.03285 0.0
C1950 C 0.24832 0.35292 0.96724 0.0
C1951 C 0.25125 0.35367 0.93065 0.0
C1952 C 0.26375 0.34828 0.91705 0.0
C1953 C 0.27314 0.34187 0.94073 0.0
C1954 C 0.2702 0.34114 0.97737 0.0
H1955 H 0.25823 0.38123 0.05332 0.0
H1956 H 0.26478 0.37287 0.01341 0.0
H1957 H 0.24651 0.3762 0.01817 0.0
H1958 H 0.23863 0.35716 0.97716 0.0
H1959 H 0.24374 0.35857 0.9131 0.0
H1960 H 0.92346 0.97461 0.45405 0.0
H1961 H 0.92663 0.98025 0.39052 0.0
H1962 H 0.89201 0.00863 0.39591 0.0
H1963 H 0.8892 0.00351 0.45956 0.0
H1964 H 0.91031 0.97634 0.33585 0.0
H1965 H 0.91971 0.03267 0.34696 0.0
H1966 H 0.91975 0.0214 0.3856 0.0
H1967 H 0.90364 0.02816 0.36817 0.0
C1968 C 0.91662 0.98215 0.4417 0.0
C1969 C 0.90615 0.98871 0.46177 0.0
C1970 C 0.91845 0.98537 0.40545 0.0
C1971 C 0.90976 0.9951 0.38861 0.0
C1972 C 0.89916 0.00147 0.40856 0.0
H1973 H 0.88762 0.99946 0.16645 0.0
H1974 H 0.89057 0.9939 0.22987 0.0
C1975 C 0.89749 0.99844 0.44489 0.0
C1976 C 0.91121 0.99804 0.34976 0.0
H1977 H 0.91214 0.02448 0.28898 0.0
C1978 C 0.91092 0.98686 0.32561 0.0
C1979 C 0.91235 0.01174 0.33634 0.0
C1980 C 0.91404 0.02414 0.3607 0.0
C1981 C 0.91108 0.98904 0.28842 0.0
C1982 C 0.91099 0.00279 0.27505 0.0
C1983 C 0.91195 0.01394 0.29918 0.0
C1984 C 0.90944 0.0059 0.2363 0.0
C1985 C 0.91141 0.97655 0.26398 0.0
C1986 C 0.91875 0.01493 0.21908 0.0
C1987 C 0.91685 0.01843 0.18305 0.0
C1988 C 0.90569 0.01285 0.16353 0.0
C1989 C 0.89641 0.00378 0.18073 0.0
C1990 C 0.89817 1.00049 0.2169 0.0
H1991 H 0.91644 0.96755 0.27732 0.0
H1992 H 0.90061 0.97347 0.25728 0.0
H1993 H 0.91706 0.97879 0.23867 0.0
H1994 H 0.92746 0.0193 0.23356 0.0
H1995 H 0.92418 0.02542 0.17042 0.0
H1996 H 0.27746 0.67205 0.70326 0.0
H1997 H 0.27208 0.675 0.6395 0.0
H1998 H 0.24268 0.64127 0.64568 0.0
H1999 H 0.24758 0.63866 0.70948 0.0
H2000 H 0.27557 0.65809 0.58531 0.0
H2001 H 0.2196 0.66963 0.59579 0.0
H2002 H 0.23087 0.66955 0.63443 0.0
H2003 H 0.22354 0.65358 0.61779 0.0
C2004 C 0.26975 0.66536 0.69104 0.0
C2005 C 0.26285 0.6552 0.71138 0.0
C2006 C 0.26669 0.66706 0.65465 0.0
C2007 C 0.25676 0.65856 0.63798 0.0
C2008 C 0.25003 0.64827 0.65819 0.0
H2009 H 0.25151 0.63524 0.41665 0.0
H2010 H 0.2573 0.63837 0.47991 0.0
C2011 C 0.25292 0.64671 0.69462 0.0
C2012 C 0.2539 0.6599 0.59907 0.0
H2013 H 0.22753 0.66142 0.53818 0.0
C2014 C 0.26508 0.65902 0.57499 0.0
C2015 C 0.24026 0.66146 0.58556 0.0
C2016 C 0.22792 0.66377 0.60981 0.0
C2017 C 0.26292 0.659 0.53779 0.0
C2018 C 0.24917 0.65936 0.52437 0.0
C2019 C 0.23806 0.6609 0.54842 0.0
C2020 C 0.246 0.6577 0.48569 0.0
C2021 C 0.27542 0.65868 0.51337 0.0
C2022 C 0.2373 0.66723 0.46817 0.0
C2023 C 0.23366 0.66524 0.43227 0.0
C2024 C 0.23879 0.65376 0.41316 0.0
C2025 C 0.24755 0.64427 0.43062 0.0
C2026 C 0.25097 0.64612 0.4667 0.0
H2027 H 0.28461 0.66344 0.52652 0.0
H2028 H 0.27807 0.64773 0.50715 0.0
H2029 H 0.2734 0.66425 0.48782 0.0
H2030 H 0.23327 0.67619 0.48233 0.0
H2031 H 0.22692 0.67274 0.41942 0.0
H2032 H 0.38537 0.0013 0.16712 0.0
H2033 H 0.38811 0.00696 0.23056 0.0
H2034 H 0.42464 0.98107 0.23569 0.0
H2035 H 0.42159 0.9749 0.17251 0.0
H2036 H 0.40883 0.97633 0.29097 0.0
H2037 H 0.41449 0.03313 0.27742 0.0
H2038 H 0.39863 0.02735 0.2572 0.0
H2039 H 0.41505 0.02163 0.23924 0.0
C2040 C 0.39404 0.99689 0.18172 0.0
C2041 C 0.40329 0.9877 0.1649 0.0
C2042 C 0.39566 1.00022 0.2179 0.0
C2043 C 0.40678 0.99471 0.23768 0.0
C2044 C 0.41604 0.98552 0.22088 0.0
H2045 H 0.42224 0.02647 0.45397 0.0
H2046 H 0.42488 0.02045 0.39054 0.0
C2047 C 0.41428 0.98199 0.18483 0.0
C2048 C 0.40828 0.99797 0.27632 0.0
H2049 H 0.40831 0.02475 0.33619 0.0
C2050 C 0.4089 0.98693 0.30083 0.0
C2051 C 0.4087 0.01179 0.2892 0.0
C2052 C 0.40934 0.02413 0.26431 0.0
C2053 C 0.40935 0.98931 0.3379 0.0
C2054 C 0.40863 0.0031 0.35082 0.0
C2055 C 0.40861 0.01416 0.3263 0.0
C2056 C 0.40741 0.0063 0.38956 0.0
C2057 C 0.41067 0.977 0.36272 0.0
C2058 C 0.39664 1.00046 0.40997 0.0
C2059 C 0.39525 0.00371 0.44625 0.0
C2060 C 0.40439 0.01314 0.46259 0.0
C2061 C 0.41503 0.01918 0.44204 0.0
C2062 C 0.41656 0.01574 0.40584 0.0
H2063 H 0.41595 0.96817 0.34922 0.0
H2064 H 0.41656 0.97968 0.38736 0.0
H2065 H 0.40015 0.97343 0.37062 0.0
H2066 H 0.38917 0.99352 0.39772 0.0
H2067 H 0.38684 0.99904 0.46132 0.0
H2068 H 0.7549 0.63915 0.2076 0.0
H2069 H 0.7599 0.64256 0.14409 0.0
H2070 H 0.73136 0.67709 0.14113 0.0
H2071 H 0.72586 0.67334 0.20452 0.0
H2072 H 0.72729 0.66112 0.0859 0.0
H2073 H 0.78361 0.67073 0.09579 0.0
H2074 H 0.77934 0.65454 0.11669 0.0
H2075 H 0.77249 0.67051 0.13474 0.0
C2076 C 0.74977 0.64755 0.1935 0.0
C2077 C 0.74002 0.65601 0.21098 0.0
C2078 C 0.75273 0.64956 0.15727 0.0
C2079 C 0.74628 0.66031 0.13806 0.0
C2080 C 0.73655 0.66881 0.15551 0.0
H2081 H 0.77586 0.67388 0.91864 0.0
H2082 H 0.76999 0.67778 0.98174 0.0
C2083 C 0.7334 0.66665 0.19167 0.0
C2084 C 0.74906 0.66202 0.09926 0.0
H2085 H 0.77529 0.66296 0.0379 0.0
C2086 C 0.73778 0.66176 0.07541 0.0
C2087 C 0.76271 0.66322 0.08554 0.0
C2088 C 0.77519 0.66493 0.10962 0.0
C2089 C 0.73983 0.66189 0.03819 0.0
C2090 C 0.75354 0.66174 0.02452 0.0
C2091 C 0.76478 0.66279 0.04835 0.0
C2092 C 0.7565 0.65985 0.98584 0.0
C2093 C 0.72725 0.66218 0.01404 0.0
C2094 C 0.75098 0.64843 0.9673 0.0
C2095 C 0.75412 0.64633 0.93119 0.0
C2096 C 0.76317 0.65541 0.91324 0.0
C2097 C 0.76889 0.66671 0.93191 0.0
C2098 C 0.76553 0.66895 0.96789 0.0
H2099 H 0.71835 0.66738 0.02741 0.0
H2100 H 0.72945 0.66765 0.98844 0.0
H2101 H 0.72404 0.65138 0.00788 0.0
H2102 H 0.7444 0.64099 0.9809 0.0
H2103 H 0.74971 0.63744 0.91755 0.0
H2104 H 0.11581 0.00149 0.96252 0.0
H2105 H 0.11336 0.00709 0.89898 0.0
H2106 H 0.07737 0.98052 0.89232 0.0
H2107 H 0.08013 0.97441 0.95565 0.0
H2108 H 0.09369 0.97615 0.83755 0.0
H2109 H 0.08666 0.03279 0.8515 0.0
H2110 H 0.1025 0.02731 0.87231 0.0
H2111 H 0.0861 0.02122 0.88951 0.0
C2112 C 0.10733 0.99691 0.94756 0.0
C2113 C 0.09813 0.98756 0.96402 0.0
C2114 C 0.10587 1.00021 0.91132 0.0
C2115 C 0.09498 0.9945 0.8911 0.0
C2116 C 0.08579 0.98513 0.90749 0.0
H2117 H 0.07959 0.02627 0.67501 0.0
H2118 H 0.07696 0.02004 0.73829 0.0
C2119 C 0.08739 0.98164 0.94362 0.0
C2120 C 0.09364 0.99778 0.85243 0.0
H2121 H 0.09327 0.02465 0.79288 0.0
C2122 C 0.09341 0.98676 0.82779 0.0
C2123 C 0.09296 0.0116 0.8397 0.0
C2124 C 0.0919 0.02388 0.86471 0.0
C2125 C 0.0931 0.98919 0.79073 0.0
C2126 C 0.09354 0.00302 0.77799 0.0
C2127 C 0.09318 0.01404 0.80263 0.0
C2128 C 0.09478 0.00633 0.73932 0.0
C2129 C 0.0922 0.9769 0.76573 0.0
C2130 C 0.10573 0.0008 0.71899 0.0
C2131 C 0.10712 0.00417 0.68277 0.0
C2132 C 0.09778 0.01341 0.66644 0.0
C2133 C 0.08695 0.01913 0.68693 0.0
C2134 C 0.08543 0.01557 0.72304 0.0
H2135 H 0.08711 0.96791 0.77899 0.0
H2136 H 0.08632 0.97947 0.74098 0.0
H2137 H 0.10284 0.97363 0.75803 0.0
H2138 H 0.11334 0.99402 0.73124 0.0
H2139 H 0.11567 0.99974 0.66774 0.0
H2140 H 0.7823 0.3357 0.69803 0.0
H2141 H 0.77794 0.33409 0.63342 0.0
H2142 H 0.73858 0.35471 0.64752 0.0
H2143 H 0.74284 0.35649 0.7119 0.0
H2144 H 0.7549 0.32192 0.59493 0.0
H2145 H 0.75991 0.37875 0.57344 0.0
H2146 H 0.76596 0.37024 0.61366 0.0
H2147 H 0.74781 0.37395 0.60797 0.0
C2148 C 0.77269 0.33984 0.6874 0.0
C2149 C 0.76297 0.34634 0.71001 0.0
C2150 C 0.77022 0.33888 0.65056 0.0
C2151 C 0.75804 0.34446 0.63585 0.0
C2152 C 0.74814 0.35056 0.65843 0.0
H2153 H 0.72022 0.33527 0.42747 0.0
H2154 H 0.72664 0.33344 0.49078 0.0
C2155 C 0.75059 0.35153 0.69519 0.0
C2156 C 0.75577 0.34424 0.59674 0.0
H2157 H 0.75121 0.36551 0.52466 0.0
C2158 C 0.75417 0.33142 0.57942 0.0
C2159 C 0.75504 0.35667 0.57671 0.0
C2160 C 0.75739 0.37069 0.59376 0.0
C2161 C 0.75144 0.33072 0.54249 0.0
C2162 C 0.75014 0.34319 0.52276 0.0
C2163 C 0.75211 0.35598 0.53999 0.0
C2164 C 0.74667 0.34331 0.48419 0.0
C2165 C 0.75009 0.31669 0.52486 0.0
C2166 C 0.75574 0.34963 0.45973 0.0
C2167 C 0.75205 0.35082 0.4237 0.0
C2168 C 0.7392 0.34576 0.41152 0.0
C2169 C 0.73021 0.33924 0.43601 0.0
C2170 C 0.7339 0.33808 0.47212 0.0
H2171 H 0.75496 0.30838 0.54126 0.0
H2172 H 0.73892 0.31414 0.5217 0.0
H2173 H 0.75493 0.31669 0.49782 0.0
H2174 H 0.76561 0.35378 0.46864 0.0
H2175 H 0.75923 0.35586 0.40551 0.0
H2176 H 0.10968 0.42174 0.0975 0.0
H2177 H 0.12525 0.40771 0.13438 0.0
H2178 H 0.15435 0.44167 0.13918 0.0
H2179 H 0.13868 0.45592 0.10296 0.0
H2180 H 0.15207 0.39894 0.12691 0.0
H2181 H 0.14747 0.43394 0.2447 0.0
H2182 H 0.13633 0.43543 0.20598 0.0
H2183 H 0.15367 0.44234 0.20481 0.0
C2184 C 0.11946 0.4262 0.10601 0.0
C2185 C 0.12286 0.44002 0.09752 0.0
C2186 C 0.12835 0.41816 0.1272 0.0
C2187 C 0.14081 0.42375 0.14033 0.0
C2188 C 0.14461 0.43727 0.13021 0.0
H2189 H 0.20597 0.3883 0.27431 0.0
H2190 H 0.1917 0.40364 0.23703 0.0
C2191 C 0.13569 0.44536 0.10918 0.0
C2192 C 0.14961 0.4155 0.16519 0.0
H2193 H 0.16334 0.41524 0.24983 0.0
C2194 C 0.15452 0.40251 0.15379 0.0
C2195 C 0.15276 0.42014 0.20036 0.0
C2196 C 0.14719 0.43366 0.2149 0.0
C2197 C 0.16257 0.39409 0.17644 0.0
C2198 C 0.16569 0.39872 0.21152 0.0
C2199 C 0.16092 0.41175 0.22288 0.0
C2200 C 0.17382 0.39007 0.2368 0.0
C2201 C 0.16781 0.38033 0.1626 0.0
C2202 C 0.16829 0.37761 0.25004 0.0
C2203 C 0.17635 0.36887 0.27156 0.0
C2204 C 0.19013 0.37242 0.28016 0.0
C2205 C 0.19541 0.38524 0.26819 0.0
C2206 C 0.18729 0.39401 0.24681 0.0
H2207 H 0.16691 0.37953 0.13296 0.0
H2208 H 0.17884 0.37873 0.17031 0.0
H2209 H 0.16161 0.37183 0.17472 0.0
H2210 H 0.15783 0.37449 0.243 0.0
H2211 H 0.17194 0.3591 0.2803 0.0
H2212 H 0.88028 0.92474 0.55628 0.0
H2213 H 0.86437 0.9105 0.52043 0.0
H2214 H 0.85651 0.94555 0.45111 0.0
H2215 H 0.87148 0.95995 0.48841 0.0
H2216 H 0.83407 0.93308 0.45829 0.0
H2217 H 0.87284 0.89234 0.42903 0.0
H2218 H 0.8697 0.89361 0.47626 0.0
H2219 H 0.87734 0.90804 0.45251 0.0
C2220 C 0.87499 0.92939 0.53363 0.0
C2221 C 0.87708 0.94344 0.52518 0.0
C2222 C 0.86605 0.92121 0.5128 0.0
C2223 C 0.85951 0.92677 0.48221 0.0
C2224 C 0.86141 0.94092 0.47438 0.0
H2225 H 0.825 0.87227 0.3166 0.0
H2226 H 0.8396 0.88842 0.35078 0.0
C2227 C 0.86996 0.94918 0.49581 0.0
C2228 C 0.85063 0.91802 0.45836 0.0
H2229 H 0.84943 0.88722 0.413 0.0
C2230 C 0.83752 0.92311 0.44817 0.0
C2231 C 0.85515 0.90512 0.44425 0.0
C2232 C 0.86958 0.89954 0.45075 0.0
C2233 C 0.82883 0.91569 0.42473 0.0
C2234 C 0.83296 0.90237 0.41261 0.0
C2235 C 0.84612 0.89734 0.42248 0.0
C2236 C 0.82378 0.89338 0.39017 0.0
C2237 C 0.81554 0.92252 0.41247 0.0
C2238 C 0.81 0.89078 0.40054 0.0
C2239 C 0.80154 0.88198 0.38028 0.0
C2240 C 0.80682 0.87513 0.34994 0.0
C2241 C 0.82064 0.87753 0.3397 0.0
C2242 C 0.82899 0.88669 0.35938 0.0
H2243 H 0.81652 0.93401 0.41262 0.0
H2244 H 0.8126 0.91919 0.38499 0.0
H2245 H 0.80704 0.91976 0.43124 0.0
H2246 H 0.80583 0.89526 0.42489 0.0
H2247 H 0.79102 0.88005 0.38936 0.0
H2248 H 0.37253 0.54222 0.63758 0.0
H2249 H 0.357 0.55667 0.6731 0.0
H2250 H 0.36498 0.5913 0.60251 0.0
H2251 H 0.38143 0.57702 0.56841 0.0
H2252 H 0.36542 0.60033 0.66565 0.0
H2253 H 0.31848 0.56776 0.65829 0.0
H2254 H 0.33242 0.55793 0.67725 0.0
H2255 H 0.33364 0.56412 0.63162 0.0
C2256 C 0.37079 0.55285 0.62925 0.0
C2257 C 0.37804 0.55846 0.59994 0.0
C2258 C 0.36181 0.56112 0.6495 0.0
C2259 C 0.35943 0.57504 0.64008 0.0
C2260 C 0.36653 0.58059 0.61033 0.0
H2261 H 0.29188 0.62166 0.73737 0.0
H2262 H 0.30665 0.60713 0.69985 0.0
C2263 C 0.37587 0.57242 0.5907 0.0
C2264 C 0.3502 0.58397 0.66252 0.0
H2265 H 0.31895 0.58462 0.70575 0.0
C2266 C 0.35517 0.59695 0.67398 0.0
C2267 C 0.33671 0.57976 0.67313 0.0
C2268 C 0.32996 0.5667 0.65904 0.0
C2269 C 0.34717 0.60572 0.69593 0.0
C2270 C 0.33408 0.60108 0.70858 0.0
C2271 C 0.32906 0.58816 0.69676 0.0
C2272 C 0.32509 0.60966 0.73256 0.0
C2273 C 0.35273 0.62002 0.70417 0.0
C2274 C 0.33034 0.61577 0.7641 0.0
C2275 C 0.32196 0.62447 0.78507 0.0
C2276 C 0.30801 0.62671 0.77577 0.0
C2277 C 0.30256 0.62 0.74542 0.0
C2278 C 0.31104 0.6117 0.72387 0.0
H2279 H 0.36019 0.62354 0.68332 0.0
H2280 H 0.34425 0.62779 0.70602 0.0
H2281 H 0.35838 0.61976 0.73011 0.0
H2282 H 0.34095 0.61395 0.77237 0.0
H2283 H 0.32638 0.62947 0.80847 0.0
H2284 H 0.67185 0.14134 0.84779 0.0
H2285 H 0.65776 0.1259 0.88491 0.0
H2286 H 0.69136 0.09634 0.8884 0.0
H2287 H 0.70567 0.11188 0.85197 0.0
H2288 H 0.64854 0.09933 0.87758 0.0
H2289 H 0.68424 0.10301 0.99414 0.0
H2290 H 0.68574 0.1142 0.95553 0.0
H2291 H 0.69236 0.09675 0.95394 0.0
C2292 C 0.67621 0.13148 0.85605 0.0
C2293 C 0.68996 0.12792 0.84714 0.0
C2294 C 0.66814 0.12268 0.87739 0.0
C2295 C 0.67363 0.11013 0.89024 0.0
C2296 C 0.68705 0.10616 0.87967 0.0
H2297 H 0.63793 0.04486 0.02323 0.0
H2298 H 0.65328 0.05915 0.98602 0.0
C2299 C 0.69517 0.115 0.85851 0.0
C2300 C 0.66536 0.10139 0.91526 0.0
H2301 H 0.66538 0.08733 -0.00045 0.0
C2302 C 0.65222 0.09673 0.90425 0.0
C2303 C 0.67014 0.09805 0.95018 0.0
C2304 C 0.68383 0.10336 0.96437 0.0
C2305 C 0.64381 0.08872 0.92702 0.0
C2306 C 0.6486 0.08538 0.96182 0.0
C2307 C 0.66176 0.08991 0.97281 0.0
C2308 C 0.63999 0.07723 0.98716 0.0
C2309 C 0.62988 0.08375 0.9136 0.0
C2310 C 0.62769 0.08286 0.00115 0.0
C2311 C 0.61895 0.07478 0.02264 0.0
C2312 C 0.62233 0.06088 0.03044 0.0
C2313 C 0.635 0.0555 0.01774 0.0
C2314 C 0.64377 0.06363 0.9964 0.0
H2315 H 0.6289 0.08485 0.88404 0.0
H2316 H 0.62819 0.07271 0.92094 0.0
H2317 H 0.62155 0.08999 0.92636 0.0
H2318 H 0.62469 0.0934 0.9947 0.0
H2319 H 0.6093 0.07927 0.03196 0.0
H2320 H 0.17276 0.64133 0.34816 0.0
H2321 H 0.15833 0.62621 0.38544 0.0
H2322 H 0.19165 0.59645 0.3916 0.0
H2323 H 0.20622 0.61149 0.35434 0.0
H2324 H 0.1634 0.58523 0.37867 0.0
H2325 H 0.16681 0.62104 0.49538 0.0
H2326 H 0.16161 0.62874 0.45352 0.0
H2327 H 0.17881 0.62179 0.45817 0.0
C2328 C 0.17698 0.63148 0.35696 0.0
C2329 C 0.1907 0.62767 0.34839 0.0
C2330 C 0.16874 0.6229 0.37848 0.0
C2331 C 0.17402 0.61034 0.39175 0.0
C2332 C 0.18743 0.60616 0.3818 0.0
H2333 H 0.13874 0.5446 0.52528 0.0
H2334 H 0.15436 0.55893 0.48916 0.0
C2335 C 0.19572 0.61477 0.36044 0.0
C2336 C 0.16571 0.60179 0.4169 0.0
H2337 H 0.15192 0.60167 0.50134 0.0
C2338 C 0.16093 0.58877 0.40555 0.0
C2339 C 0.16251 0.60647 0.4519 0.0
C2340 C 0.16777 0.62023 0.46575 0.0
C2341 C 0.15271 0.58041 0.42803 0.0
C2342 C 0.14952 0.58507 0.46315 0.0
C2343 C 0.1544 0.59808 0.47451 0.0
C2344 C 0.14075 0.5768 0.48805 0.0
C2345 C 0.14715 0.56688 0.41349 0.0
C2346 C 0.12827 0.58234 0.50122 0.0
C2347 C 0.11941 0.57426 0.52237 0.0
C2348 C 0.12285 0.56044 0.53077 0.0
C2349 C 0.13571 0.55516 0.51912 0.0
C2350 C 0.1446 0.5633 0.49815 0.0
H2351 H 0.14741 0.56661 0.38369 0.0
H2352 H 0.15365 0.55821 0.42352 0.0
H2353 H 0.1363 0.5651 0.42245 0.0
H2354 H 0.12514 0.59279 0.49407 0.0
H2355 H 0.1096 0.57867 0.53087 0.0
H2356 H 0.61147 0.92298 0.59766 0.0
H2357 H 0.62711 0.9089 0.63435 0.0
H2358 H 0.6558 0.94311 0.64122 0.0
H2359 H 0.6402 0.95737 0.60461 0.0
H2360 H 0.66754 0.91439 0.62696 0.0
H2361 H 0.63242 0.91817 0.74503 0.0
H2362 H 0.62451 0.91318 0.70325 0.0
H2363 H 0.63169 0.93027 0.70805 0.0
C2364 C 0.62119 0.92748 0.60646 0.0
C2365 C 0.62453 0.94135 0.59831 0.0
C2366 C 0.63008 0.91943 0.62761 0.0
C2367 C 0.64248 0.92505 0.64089 0.0
C2368 C 0.64622 0.93863 0.63136 0.0
H2369 H 0.70853 0.88883 0.77291 0.0
H2370 H 0.69452 0.90471 0.73663 0.0
C2371 C 0.63729 0.94674 0.61037 0.0
C2372 C 0.65126 0.91691 0.66588 0.0
H2373 H 0.65176 0.90322 0.75039 0.0
C2374 C 0.66417 0.912 0.65403 0.0
C2375 C 0.64678 0.91382 0.70111 0.0
C2376 C 0.63314 0.91919 0.7154 0.0
C2377 C 0.67258 0.9037 0.67621 0.0
C2378 C 0.66809 0.90056 0.71151 0.0
C2379 C 0.65522 0.90565 0.72342 0.0
C2380 C 0.6763 0.89156 0.736 0.0
C2381 C 0.68595 0.89798 0.66116 0.0
C2382 C 0.67049 0.87923 0.74934 0.0
C2383 C 0.67839 0.87023 0.77055 0.0
C2384 C 0.69229 0.87338 0.77889 0.0
C2385 C 0.69789 0.88604 0.76684 0.0
C2386 C 0.68994 0.89508 0.74577 0.0
H2387 H 0.68609 0.89832 0.63136 0.0
H2388 H 0.69478 0.90431 0.67105 0.0
H2389 H 0.68761 0.88708 0.66988 0.0
H2390 H 0.65995 0.87635 0.74242 0.0
H2391 H 0.67373 0.86058 0.77935 0.0
H2392 H 0.29255 0.38797 0.86681 0.0
H2393 H 0.30703 0.40352 0.90272 0.0
H2394 H 0.34352 0.38064 0.8713 0.0
H2395 H 0.32912 0.36493 0.83541 0.0
H2396 H 0.32545 0.39297 0.9611 0.0
H2397 H 0.35291 0.42322 0.85548 0.0
H2398 H 0.33653 0.41462 0.84737 0.0
H2399 H 0.35225 0.40467 0.84978 0.0
C2400 C 0.30368 0.38638 0.86692 0.0
C2401 C 0.30967 0.37519 0.84817 0.0
C2402 C 0.31193 0.39524 0.88763 0.0
C2403 C 0.32632 0.39323 0.8896 0.0
C2404 C 0.33242 0.38242 0.86988 0.0
H2405 H 0.38787 0.42292 0.04129 0.0
H2406 H 0.37211 0.40874 0.00489 0.0
C2407 C 0.32417 0.37346 0.84938 0.0
C2408 C 0.33483 0.4019 0.91401 0.0
H2409 H 0.36014 0.42672 0.91549 0.0
C2410 C 0.33302 0.40037 0.95118 0.0
C2411 C 0.34463 0.41156 0.90091 0.0
C2412 C 0.34671 0.41376 0.86121 0.0
C2413 C 0.34094 0.40815 0.97566 0.0
C2414 C 0.35086 0.41769 0.96257 0.0
C2415 C 0.35254 0.41935 0.92539 0.0
C2416 C 0.35963 0.42607 0.98701 0.0
C2417 C 0.3386 0.40624 0.01536 0.0
C2418 C 0.35768 0.44046 0.98935 0.0
C2419 C 0.36656 0.44857 0.01036 0.0
C2420 C 0.3777 0.44245 0.02905 0.0
C2421 C 0.37938 0.42796 0.02736 0.0
C2422 C 0.3704 0.41984 0.00657 0.0
H2423 H 0.32908 0.40011 0.02107 0.0
H2424 H 0.34762 0.40073 0.02715 0.0
H2425 H 0.33773 0.41648 0.02888 0.0
H2426 H 0.34943 0.44545 0.97439 0.0
H2427 H 0.365 0.45971 0.01084 0.0
H2428 H 0.79552 0.11144 0.27528 0.0
H2429 H 0.81012 0.09571 0.24015 0.0
H2430 H 0.84387 0.12505 0.24578 0.0
H2431 H 0.82951 0.14066 0.28156 0.0
H2432 H 0.82092 0.10097 0.17464 0.0
H2433 H 0.86375 0.08945 0.26911 0.0
H2434 H 0.84769 0.09735 0.28343 0.0
H2435 H 0.86112 0.10774 0.26318 0.0
C2436 C 0.80615 0.11442 0.26975 0.0
C2437 C 0.81134 0.12731 0.28138 0.0
C2438 C 0.81447 0.10543 0.2495 0.0
C2439 C 0.82814 0.10912 0.24056 0.0
C2440 C 0.83347 0.12181 0.25298 0.0
H2441 H 0.89211 0.07829 0.09846 0.0
H2442 H 0.87664 0.09239 0.13561 0.0
C2443 C 0.8252 0.13077 0.27337 0.0
C2444 C 0.83649 0.10022 0.21611 0.0
H2445 H 0.8678 0.08387 0.20745 0.0
C2446 C 0.83111 0.09711 0.18197 0.0
C2447 C 0.84981 0.09519 0.22561 0.0
C2448 C 0.85588 0.09748 0.26246 0.0
C2449 C 0.83882 0.08943 0.15683 0.0
C2450 C 0.85222 0.08468 0.16613 0.0
C2451 C 0.85755 0.08764 0.20032 0.0
C2452 C 0.86089 0.07652 0.14088 0.0
C2453 C 0.83273 0.08674 0.12019 0.0
C2454 C 0.85705 0.06299 0.13108 0.0
C2455 C 0.86589 0.05488 0.10988 0.0
C2456 C 0.87873 0.06015 0.09808 0.0
C2457 C 0.88229 0.07391 0.1069 0.0
C2458 C 0.87349 0.08197 0.12828 0.0
H2459 H 0.82353 0.09338 0.1148 0.0
H2460 H 0.84061 0.0886 0.09897 0.0
H2461 H 0.82945 0.07572 0.11842 0.0
H2462 H 0.84744 0.05854 0.14086 0.0
H2463 H 0.86285 0.04431 0.10376 0.0
H2464 H 0.86393 0.54227 0.01096 0.0
H2465 H 0.84867 0.55657 0.97371 0.0
H2466 H 0.8721 0.59302 0.0025 0.0
H2467 H 0.88751 0.57881 0.03974 0.0
H2468 H 0.84072 0.59505 0.00327 0.0
H2469 H 0.86368 0.57465 0.87672 0.0
H2470 H 0.85848 0.56207 0.9098 0.0
H2471 H 0.87259 0.57365 0.91931 0.0
C2472 C 0.86573 0.55335 0.00986 0.0
C2473 C 0.87699 0.55938 0.02826 0.0
C2474 C 0.85705 0.56149 0.98837 0.0
C2475 C 0.85939 0.5758 0.98502 0.0
C2476 C 0.87018 0.58197 0.00463 0.0
H2477 H 0.82869 0.63734 0.83475 0.0
H2478 H 0.84306 0.62187 0.87147 0.0
C2479 C 0.87895 0.57383 0.02593 0.0
C2480 C 0.85088 0.58424 0.96013 0.0
H2481 H 0.84473 0.59009 0.87108 0.0
C2482 C 0.84156 0.59397 0.97439 0.0
C2483 C 0.85214 0.58287 0.92248 0.0
C2484 C 0.86231 0.57283 0.90594 0.0
C2485 C 0.83329 0.60224 0.95188 0.0
C2486 C 0.83439 0.60072 0.91423 0.0
C2487 C 0.84386 0.59114 0.89996 0.0
C2488 C 0.82589 0.60919 0.8894 0.0
C2489 C 0.82351 0.61268 0.96838 0.0
C2490 C 0.81156 0.60688 0.8865 0.0
C2491 C 0.80334 0.61559 0.86532 0.0
C2492 C 0.8093 0.62686 0.84682 0.0
C2493 C 0.82377 0.62878 0.84865 0.0
C2494 C 0.83199 0.61998 0.86965 0.0
H2495 H 0.82547 0.61413 0.99752 0.0
H2496 H 0.82451 0.62288 0.95471 0.0
H2497 H 0.81266 0.60907 0.96485 0.0
H2498 H 0.8067 0.59851 0.90132 0.0
H2499 H 0.79224 0.61381 0.8646 0.0
H2500 H 0.10961 0.07886 0.60148 0.0
H2501 H 0.12519 0.09308 0.63805 0.0
H2502 H 0.15519 0.05989 0.63957 0.0
H2503 H 0.13968 0.04554 0.60308 0.0
H2504 H 0.13504 0.08408 0.70895 0.0
H2505 H 0.17794 0.0956 0.61353 0.0
H2506 H 0.16078 0.09063 0.59873 0.0
H2507 H 0.17243 0.07779 0.61632 0.0
C2508 C 0.11963 0.07466 0.60895 0.0
C2509 C 0.12339 0.06104 0.59931 0.0
C2510 C 0.12849 0.08279 0.63001 0.0
C2511 C 0.14134 0.07755 0.64142 0.0
C2512 C 0.14537 0.06418 0.63073 0.0
H2513 H 0.20751 0.11245 0.773 0.0
H2514 H 0.19282 0.09686 0.73773 0.0
C2515 C 0.13648 0.05599 0.60987 0.0
C2516 C 0.15009 0.0857 0.66647 0.0
H2517 H 0.1811 0.10264 0.67366 0.0
C2518 C 0.1451 0.08817 0.70127 0.0
C2519 C 0.16326 0.09088 0.65645 0.0
C2520 C 0.16895 0.08871 0.61917 0.0
C2521 C 0.15298 0.09563 0.72648 0.0
C2522 C 0.16606 0.10106 0.71629 0.0
C2523 C 0.17109 0.09846 0.68151 0.0
C2524 C 0.17453 0.10985 0.74077 0.0
C2525 C 0.14732 0.09736 0.76396 0.0
C2526 C 0.16909 0.12225 0.7547 0.0
C2527 C 0.17742 0.13112 0.7752 0.0
C2528 C 0.19144 0.12787 0.78177 0.0
C2529 C 0.19675 0.11526 0.7686 0.0
C2530 C 0.18838 0.10635 0.74826 0.0
H2531 H 0.1397 0.08909 0.77062 0.0
H2532 H 0.15576 0.09718 0.78425 0.0
H2533 H 0.14187 0.10749 0.7659 0.0
H2534 H 0.15854 0.12535 0.74865 0.0
H2535 H 0.173 0.1408 0.78458 0.0
H2536 H 0.67305 0.35994 0.34879 0.0
H2537 H 0.65917 0.37548 0.38623 0.0
H2538 H 0.6935 0.40408 0.39256 0.0
H2539 H 0.70753 0.38858 0.35515 0.0
H2540 H 0.6678 0.38399 0.4585 0.0
H2541 H 0.65894 0.42853 0.36624 0.0
H2542 H 0.66344 0.41141 0.35022 0.0
H2543 H 0.67649 0.42229 0.36991 0.0
C2544 C 0.6776 0.36964 0.35756 0.0
C2545 C 0.69142 0.373 0.34891 0.0
C2546 C 0.66965 0.37848 0.3791 0.0
C2547 C 0.67529 0.39093 0.39206 0.0
C2548 C 0.68891 0.39458 0.38251 0.0
H2549 H 0.64059 0.45628 0.52679 0.0
H2550 H 0.65625 0.44167 0.49152 0.0
C2551 C 0.69691 0.3857 0.36113 0.0
C2552 C 0.66721 0.39965 0.41733 0.0
H2553 H 0.65108 0.43102 0.42585 0.0
C2554 C 0.66412 0.39428 0.45141 0.0
C2555 C 0.66257 0.41309 0.40808 0.0
C2556 C 0.66541 0.41921 0.37156 0.0
C2557 C 0.65653 0.40203 0.47663 0.0
C2558 C 0.65161 0.41538 0.46715 0.0
C2559 C 0.65486 0.4208 0.43315 0.0
C2560 C 0.6427 0.42375 0.49154 0.0
C2561 C 0.6541 0.39591 0.51337 0.0
C2562 C 0.62994 0.41849 0.50374 0.0
C2563 C 0.62103 0.42678 0.52422 0.0
C2564 C 0.62459 0.44057 0.53251 0.0
C2565 C 0.63753 0.4457 0.52101 0.0
C2566 C 0.64648 0.43737 0.5007 0.0
H2567 H 0.66205 0.38797 0.52008 0.0
H2568 H 0.65423 0.40407 0.53443 0.0
H2569 H 0.6438 0.39075 0.51385 0.0
H2570 H 0.62663 0.40814 0.49636 0.0
H2571 H 0.61109 0.42253 0.53229 0.0
H2572 H 0.3608 0.95605 0.10192 0.0
H2573 H 0.34522 0.94171 0.13813 0.0
H2574 H 0.37496 0.90826 0.13545 0.0
H2575 H 0.39045 0.92238 0.09853 0.0
H2576 H 0.34843 0.89891 0.12774 0.0
H2577 H 0.35168 0.93479 0.24403 0.0
H2578 H 0.34548 0.94281 0.20365 0.0
H2579 H 0.36296 0.93628 0.20558 0.0
C2580 C 0.36396 0.94558 0.1086 0.0
C2581 C 0.37694 0.94042 0.09753 0.0
C2582 C 0.35509 0.93744 0.12963 0.0
C2583 C 0.35909 0.92405 0.14036 0.0
C2584 C 0.37171 0.91861 0.12779 0.0
H2585 H 0.32886 0.85994 0.28303 0.0
H2586 H 0.34274 0.87541 0.24537 0.0
C2587 C 0.38055 0.9267 0.10658 0.0
C2588 C 0.35033 0.91579 0.1653 0.0
H2589 H 0.33612 0.91584 0.24943 0.0
C2590 C 0.34575 0.90262 0.15435 0.0
C2591 C 0.34689 0.9206 0.20013 0.0
C2592 C 0.3521 0.93433 0.21426 0.0
C2593 C 0.33775 0.89419 0.17711 0.0
C2594 C 0.33433 0.89901 0.21183 0.0
C2595 C 0.33876 0.91221 0.22274 0.0
C2596 C 0.32628 0.89035 0.23725 0.0
C2597 C 0.3329 0.88021 0.16381 0.0
C2598 C 0.3126 0.89391 0.24623 0.0
C2599 C 0.30461 0.88509 0.26779 0.0
C2600 C 0.31022 0.8726 0.28097 0.0
C2601 C 0.32419 0.86945 0.27336 0.0
C2602 C 0.33212 0.87823 0.25165 0.0
H2603 H 0.33408 0.87917 0.13428 0.0
H2604 H 0.33915 0.87194 0.17682 0.0
H2605 H 0.32185 0.87847 0.17098 0.0
H2606 H 0.30795 0.90328 0.23553 0.0
H2607 H 0.2939 0.88784 0.27312 0.0
H2608 H 0.79147 0.38969 0.77046 0.0
H2609 H 0.80567 0.40518 0.73336 0.0
H2610 H 0.84061 0.37763 0.74528 0.0
H2611 H 0.8266 0.36212 0.78252 0.0
H2612 H 0.83455 0.41764 0.74892 0.0
H2613 H 0.83154 0.38133 0.63304 0.0
H2614 H 0.81908 0.38106 0.66929 0.0
H2615 H 0.83612 0.37397 0.67584 0.0
C2616 C 0.80224 0.38703 0.76574 0.0
C2617 C 0.80786 0.37461 0.77935 0.0
C2618 C 0.81032 0.39589 0.74447 0.0
C2619 C 0.8241 0.39242 0.73623 0.0
C2620 C 0.82994 0.38039 0.75108 0.0
H2621 H 0.88872 0.42308 0.59736 0.0
H2622 H 0.87283 0.40934 0.63408 0.0
C2623 C 0.82192 0.37158 0.77252 0.0
C2624 C 0.83223 0.40103 0.71088 0.0
H2625 H 0.84608 0.4009 0.62655 0.0
C2626 C 0.83703 0.41406 0.72208 0.0
C2627 C 0.83543 0.39626 0.67598 0.0
C2628 C 0.83023 0.38243 0.66252 0.0
C2629 C 0.84531 0.42233 0.69954 0.0
C2630 C 0.84854 0.41757 0.66452 0.0
C2631 C 0.84357 0.40457 0.65328 0.0
C2632 C 0.85753 0.42565 0.63971 0.0
C2633 C 0.85094 0.43585 0.71396 0.0
C2634 C 0.85397 0.43921 0.62943 0.0
C2635 C 0.86308 0.44714 0.60853 0.0
C2636 C 0.87585 0.44158 0.59711 0.0
C2637 C 0.87899 0.4277 0.60568 0.0
C2638 C 0.86992 0.41983 0.62678 0.0
H2639 H 0.85058 0.4362 0.74375 0.0
H2640 H 0.86183 0.43752 0.7052 0.0
H2641 H 0.84453 0.44455 0.70365 0.0
H2642 H 0.84428 0.44379 0.6382 0.0
H2643 H 0.86028 0.45775 0.60222 0.0
H2644 H 0.36208 0.04431 0.52528 0.0
H2645 H 0.34644 0.05854 0.48877 0.0
H2646 H 0.3756 0.09243 0.49311 0.0
H2647 H 0.39129 0.07835 0.52969 0.0
H2648 H 0.33499 0.08718 0.50197 0.0
H2649 H 0.3697 0.08277 0.38323 0.0
H2650 H 0.37064 0.07094 0.42074 0.0
H2651 H 0.37776 0.08809 0.42455 0.0
C2652 C 0.36508 0.05487 0.51898 0.0
C2653 C 0.37799 0.06016 0.53027 0.0
C2654 C 0.35614 0.06296 0.49806 0.0
C2655 C 0.35998 0.07643 0.48782 0.0
C2656 C 0.37254 0.08198 0.50039 0.0
H2657 H 0.32788 0.13985 0.34731 0.0
H2658 H 0.34192 0.12442 0.3845 0.0
C2659 C 0.38145 0.07394 0.52149 0.0
C2660 C 0.35116 0.08449 0.46279 0.0
H2661 H 0.35027 0.09758 0.37768 0.0
C2662 C 0.33826 0.08942 0.47473 0.0
C2663 C 0.3555 0.08736 0.42732 0.0
C2664 C 0.36911 0.08196 0.41292 0.0
C2665 C 0.32973 0.0975 0.45237 0.0
C2666 C 0.33407 0.10041 0.41681 0.0
C2667 C 0.34693 0.09533 0.40485 0.0
C2668 C 0.3257 0.10916 0.3921 0.0
C2669 C 0.31637 0.10326 0.46749 0.0
C2670 C 0.31204 0.10549 0.38288 0.0
C2671 C 0.30394 0.11433 0.36166 0.0
C2672 C 0.3094 0.12695 0.34892 0.0
C2673 C 0.32332 0.13023 0.35666 0.0
C2674 C 0.33137 0.12143 0.37802 0.0
H2675 H 0.31635 0.10315 0.4973 0.0
H2676 H 0.31461 0.11407 0.45825 0.0
H2677 H 0.30755 0.09678 0.45816 0.0
H2678 H 0.30756 0.09589 0.3926 0.0
H2679 H 0.29329 0.11144 0.35606 0.0
H2680 H 0.62252 0.57508 0.06787 0.0
H2681 H 0.63881 0.58962 0.10181 0.0
H2682 H 0.64605 0.55566 0.17507 0.0
H2683 H 0.63071 0.54093 0.13972 0.0
H2684 H 0.63799 0.59929 0.1642 0.0
H2685 H 0.68474 0.56633 0.16144 0.0
H2686 H 0.66975 0.5625 0.13433 0.0
H2687 H 0.67059 0.55682 0.18046 0.0
C2688 C 0.62788 0.57068 0.09074 0.0
C2689 C 0.62558 0.55683 0.10078 0.0
C2690 C 0.63713 0.57899 0.11027 0.0
C2691 C 0.64398 0.5737 0.14073 0.0
C2692 C 0.64144 0.55989 0.15096 0.0
H2693 H 0.67633 0.62969 0.30657 0.0
H2694 H 0.66188 0.61389 0.27096 0.0
C2695 C 0.63257 0.55148 0.13081 0.0
C2696 C 0.65311 0.58281 0.16296 0.0
H2697 H 0.68409 0.58375 0.20748 0.0
C2698 C 0.64816 0.59595 0.17324 0.0
C2699 C 0.6665 0.57863 0.17449 0.0
C2700 C 0.67325 0.56537 0.16172 0.0
C2701 C 0.65608 0.6049 0.19485 0.0
C2702 C 0.66906 0.60032 0.20839 0.0
C2703 C 0.67406 0.58724 0.19779 0.0
C2704 C 0.67794 0.60912 0.23208 0.0
C2705 C 0.65056 0.61933 0.20179 0.0
C2706 C 0.69205 0.61101 0.22378 0.0
C2707 C 0.70044 0.6195 0.24506 0.0
C2708 C 0.69486 0.62654 0.27474 0.0
C2709 C 0.68085 0.62445 0.28367 0.0
C2710 C 0.67255 0.61558 0.26298 0.0
H2711 H 0.64325 0.62265 0.18038 0.0
H2712 H 0.64477 0.6194 0.22751 0.0
H2713 H 0.65909 0.62706 0.20338 0.0
H2714 H 0.69655 0.60617 0.20026 0.0
H2715 H 0.71118 0.62102 0.23731 0.0
H2716 H 0.20888 0.88916 0.85841 0.0
H2717 H 0.19449 0.90442 0.89565 0.0
H2718 H 0.16008 0.87615 0.88475 0.0
H2719 H 0.17429 0.86086 0.84744 0.0
H2720 H 0.16622 0.91666 0.88107 0.0
H2721 H 0.16824 0.87993 0.99609 0.0
H2722 H 0.18063 0.87941 0.95971 0.0
H2723 H 0.16343 0.87268 0.95338 0.0
C2724 C 0.19818 0.88629 0.86343 0.0
C2725 C 0.19277 0.87373 0.85006 0.0
C2726 C 0.19 0.89501 0.88479 0.0
C2727 C 0.17632 0.89128 0.89338 0.0
C2728 C 0.17068 0.8791 0.87878 0.0
H2729 H 0.11131 0.92251 0.0309 0.0
H2730 H 0.12706 0.90858 0.99422 0.0
C2731 C 0.17881 0.87042 0.85727 0.0
C2732 C 0.16807 0.89983 0.91863 0.0
H2733 H 0.15366 0.89951 0.00237 0.0
C2734 C 0.16352 0.91299 0.90768 0.0
C2735 C 0.16456 0.89494 0.95324 0.0
C2736 C 0.16952 0.88101 0.9666 0.0
C2737 C 0.15521 0.92127 0.93013 0.0
C2738 C 0.1517 0.91639 0.96485 0.0
C2739 C 0.15638 0.90326 0.97585 0.0
C2740 C 0.14276 0.92455 0.98965 0.0
C2741 C 0.14989 0.93494 0.91593 0.0
C2742 C 0.14659 0.93797 0.00051 0.0
C2743 C 0.13757 0.946 0.0214 0.0
C2744 C 0.12462 0.94069 0.03222 0.0
C2745 C 0.12119 0.92695 0.02305 0.0
C2746 C 0.13017 0.91897 0.00197 0.0
H2747 H 0.15039 0.93541 0.88617 0.0
H2748 H 0.13898 0.93677 0.9244 0.0
H2749 H 0.15639 0.94349 0.9267 0.0
H2750 H 0.15643 0.94236 0.9922 0.0
H2751 H 0.14059 0.95651 0.02817 0.0
loop_
_geom_bond_atom_site_label_1
_geom_bond_atom_site_label_2
_geom_bond_distance
_geom_bond_site_symmetry_2
_ccdc_geom_bond_type
C0 O2 1.247 . S
C0 O4 1.258 . S
C1 O8 1.247 . S
C1 O9 1.258 . S
O2 C0 1.247 . S
O2 Zn3 2.028 . S
Zn3 O2 2.028 . S
Zn3 O7 2.035 . S
Zn3 O9 2.035 . S
Zn3 O10 2.028 . S
O4 C0 1.258 . S
O4 Zn5 2.035 . S
Zn5 O4 2.035 . S
Zn5 O6 2.028 . S
Zn5 O8 2.028 . S
Zn5 O11 2.035 . S
O6 Zn5 2.028 . S
O6 C12 1.247 . S
O7 Zn3 2.035 . S
O7 C12 1.258 . S
O8 C1 1.247 . S
O8 Zn5 2.028 . S
O9 C1 1.258 . S
O9 Zn3 2.035 . S
O10 Zn3 2.028 . S
O10 C13 1.247 . S
O11 Zn5 2.035 . S
O11 C13 1.258 . S
C12 O6 1.247 . S
C12 O7 1.258 . S
C13 O10 1.247 . S
C13 O11 1.258 . S
C14 O16 1.247 . S
C14 O18 1.258 . S
C15 O22 1.247 . S
C15 O23 1.258 . S
O16 C14 1.247 . S
O16 Zn17 2.028 . S
Zn17 O16 2.028 . S
Zn17 O21 2.035 . S
Zn17 O23 2.035 . S
Zn17 O24 2.028 . S
O18 C14 1.258 . S
O18 Zn19 2.035 . S
Zn19 O18 2.035 . S
Zn19 O20 2.028 . S
Zn19 O22 2.028 . S
Zn19 O25 2.035 . S
O20 Zn19 2.028 . S
O20 C26 1.247 . S
O21 Zn17 2.035 . S
O21 C26 1.258 . S
O22 C15 1.247 . S
O22 Zn19 2.028 . S
O23 C15 1.258 . S
O23 Zn17 2.035 . S
O24 Zn17 2.028 . S
O24 C27 1.247 . S
O25 Zn19 2.035 . S
O25 C27 1.258 . S
C26 O20 1.247 . S
C26 O21 1.258 . S
C27 O24 1.247 . S
C27 O25 1.258 . S
C28 O30 1.247 . S
C28 O32 1.258 . S
C29 O36 1.247 . S
C29 O37 1.258 . S
O30 C28 1.247 . S
O30 Zn31 2.028 . S
Zn31 O30 2.028 . S
Zn31 O35 2.035 . S
Zn31 O37 2.035 . S
Zn31 O38 2.028 . S
O32 C28 1.258 . S
O32 Zn33 2.035 . S
Zn33 O32 2.035 . S
Zn33 O34 2.028 . S
Zn33 O36 2.028 . S
Zn33 O39 2.035 . S
O34 Zn33 2.028 . S
O34 C40 1.247 . S
O35 Zn31 2.035 . S
O35 C40 1.258 . S
O36 C29 1.247 . S
O36 Zn33 2.028 . S
O37 C29 1.258 . S
O37 Zn31 2.035 . S
O38 Zn31 2.028 . S
O38 C41 1.247 . S
O39 Zn33 2.035 . S
O39 C41 1.258 . S
C40 O34 1.247 . S
C40 O35 1.258 . S
C41 O38 1.247 . S
C41 O39 1.258 . S
C42 O44 1.247 . S
C42 O46 1.258 . S
C43 O50 1.247 . S
C43 O51 1.258 . S
O44 C42 1.247 . S
O44 Zn45 2.028 . S
Zn45 O44 2.028 . S
Zn45 O49 2.035 . S
Zn45 O51 2.035 . S
Zn45 O52 2.028 . S
O46 C42 1.258 . S
O46 Zn47 2.035 . S
Zn47 O46 2.035 . S
Zn47 O48 2.028 . S
Zn47 O50 2.028 . S
Zn47 O53 2.035 . S
O48 Zn47 2.028 . S
O48 C54 1.247 . S
O49 Zn45 2.035 . S
O49 C54 1.258 . S
O50 C43 1.247 . S
O50 Zn47 2.028 . S
O51 C43 1.258 . S
O51 Zn45 2.035 . S
O52 Zn45 2.028 . S
O52 C55 1.247 . S
O53 Zn47 2.035 . S
O53 C55 1.258 . S
C54 O48 1.247 . S
C54 O49 1.258 . S
C55 O52 1.247 . S
C55 O53 1.258 . S
C56 O58 1.247 . S
C56 O60 1.258 . S
C57 O64 1.247 . S
C57 O65 1.258 . S
O58 C56 1.247 . S
O58 Zn59 2.028 . S
Zn59 O58 2.028 . S
Zn59 O63 2.035 . S
Zn59 O65 2.035 . S
Zn59 O66 2.028 . S
O60 C56 1.258 . S
O60 Zn61 2.035 . S
Zn61 O60 2.035 . S
Zn61 O62 2.028 . S
Zn61 O64 2.028 . S
Zn61 O67 2.035 . S
O62 Zn61 2.028 . S
O62 C68 1.247 . S
O63 Zn59 2.035 . S
O63 C68 1.258 . S
O64 C57 1.247 . S
O64 Zn61 2.028 . S
O65 C57 1.258 . S
O65 Zn59 2.035 . S
O66 Zn59 2.028 . S
O66 C69 1.247 . S
O67 Zn61 2.035 . S
O67 C69 1.258 . S
C68 O62 1.247 . S
C68 O63 1.258 . S
C69 O66 1.247 . S
C69 O67 1.258 . S
C70 O72 1.247 . S
C70 O74 1.258 . S
C71 O78 1.247 . S
C71 O79 1.258 . S
O72 C70 1.247 . S
O72 Zn73 2.028 . S
Zn73 O72 2.028 . S
Zn73 O77 2.035 . S
Zn73 O79 2.035 . S
Zn73 O80 2.028 . S
O74 C70 1.258 . S
O74 Zn75 2.035 . S
Zn75 O74 2.035 . S
Zn75 O76 2.028 . S
Zn75 O78 2.028 . S
Zn75 O81 2.035 . S
O76 Zn75 2.028 . S
O76 C82 1.247 . S
O77 Zn73 2.035 . S
O77 C82 1.258 . S
O78 C71 1.247 . S
O78 Zn75 2.028 . S
O79 C71 1.258 . S
O79 Zn73 2.035 . S
O80 Zn73 2.028 . S
O80 C83 1.247 . S
O81 Zn75 2.035 . S
O81 C83 1.258 . S
C82 O76 1.247 . S
C82 O77 1.258 . S
C83 O80 1.247 . S
C83 O81 1.258 . S
C84 O86 1.247 . S
C84 O88 1.258 . S
C85 O92 1.247 . S
C85 O93 1.258 . S
O86 C84 1.247 . S
O86 Zn87 2.028 . S
Zn87 O86 2.028 . S
Zn87 O91 2.035 . S
Zn87 O93 2.035 . S
Zn87 O94 2.028 1_554 S
O88 C84 1.258 . S
O88 Zn89 2.035 . S
Zn89 O88 2.035 . S
Zn89 O90 2.028 . S
Zn89 O92 2.028 . S
Zn89 O95 2.035 1_554 S
O90 Zn89 2.028 . S
O90 C96 1.247 . S
O91 Zn87 2.035 . S
O91 C96 1.258 . S
O92 C85 1.247 . S
O92 Zn89 2.028 . S
O93 C85 1.258 . S
O93 Zn87 2.035 . S
O94 Zn87 2.028 1_556 S
O94 C97 1.247 . S
O95 Zn89 2.035 1_556 S
O95 C97 1.258 . S
C96 O90 1.247 . S
C96 O91 1.258 . S
C97 O94 1.247 . S
C97 O95 1.258 . S
C98 O100 1.247 . S
C98 O102 1.258 . S
C99 O106 1.247 . S
C99 O107 1.258 . S
O100 C98 1.247 . S
O100 Zn101 2.028 . S
Zn101 O100 2.028 . S
Zn101 O105 2.035 . S
Zn101 O107 2.035 . S
Zn101 O108 2.028 . S
O102 C98 1.258 . S
O102 Zn103 2.035 . S
Zn103 O102 2.035 . S
Zn103 O104 2.028 . S
Zn103 O106 2.028 . S
Zn103 O109 2.035 . S
O104 Zn103 2.028 . S
O104 C110 1.247 . S
O105 Zn101 2.035 . S
O105 C110 1.258 . S
O106 C99 1.247 . S
O106 Zn103 2.028 . S
O107 C99 1.258 . S
O107 Zn101 2.035 . S
O108 Zn101 2.028 . S
O108 C111 1.247 . S
O109 Zn103 2.035 . S
O109 C111 1.258 . S
C110 O104 1.247 . S
C110 O105 1.258 . S
C111 O108 1.247 . S
C111 O109 1.258 . S
C112 O114 1.247 . S
C112 O116 1.258 . S
C113 O120 1.247 . S
C113 O121 1.258 . S
O114 C112 1.247 . S
O114 Zn115 2.028 1_556 S
Zn115 O114 2.028 1_554 S
Zn115 O119 2.035 . S
Zn115 O121 2.035 . S
Zn115 O122 2.028 . S
O116 C112 1.258 . S
O116 Zn117 2.035 1_556 S
Zn117 O116 2.035 1_554 S
Zn117 O118 2.028 . S
Zn117 O120 2.028 . S
Zn117 O123 2.035 . S
O118 Zn117 2.028 . S
O118 C124 1.247 . S
O119 Zn115 2.035 . S
O119 C124 1.258 . S
O120 C113 1.247 . S
O120 Zn117 2.028 . S
O121 C113 1.258 . S
O121 Zn115 2.035 . S
O122 Zn115 2.028 . S
O122 C125 1.247 . S
O123 Zn117 2.035 . S
O123 C125 1.258 . S
C124 O118 1.247 . S
C124 O119 1.258 . S
C125 O122 1.247 . S
C125 O123 1.258 . S
C126 O128 1.247 . S
C126 O130 1.258 . S
C127 O134 1.247 . S
C127 O135 1.258 . S
O128 C126 1.247 . S
O128 Zn129 2.028 . S
Zn129 O128 2.028 . S
Zn129 O133 2.035 . S
Zn129 O135 2.035 . S
Zn129 O136 2.028 . S
O130 C126 1.258 . S
O130 Zn131 2.035 . S
Zn131 O130 2.035 . S
Zn131 O132 2.028 . S
Zn131 O134 2.028 . S
Zn131 O137 2.035 . S
O132 Zn131 2.028 . S
O132 C138 1.247 . S
O133 Zn129 2.035 . S
O133 C138 1.258 . S
O134 C127 1.247 . S
O134 Zn131 2.028 . S
O135 C127 1.258 . S
O135 Zn129 2.035 . S
O136 Zn129 2.028 . S
O136 C139 1.247 . S
O137 Zn131 2.035 . S
O137 C139 1.258 . S
C138 O132 1.247 . S
C138 O133 1.258 . S
C139 O136 1.247 . S
C139 O137 1.258 . S
C140 O142 1.247 . S
C140 O144 1.258 . S
C141 O148 1.247 . S
C141 O149 1.258 . S
O142 C140 1.247 . S
O142 Zn143 2.028 . S
Zn143 O142 2.028 . S
Zn143 O147 2.035 . S
Zn143 O149 2.035 . S
Zn143 O150 2.028 . S
O144 C140 1.258 . S
O144 Zn145 2.035 . S
Zn145 O144 2.035 . S
Zn145 O146 2.028 . S
Zn145 O148 2.028 . S
Zn145 O151 2.035 . S
O146 Zn145 2.028 . S
O146 C152 1.247 . S
O147 Zn143 2.035 . S
O147 C152 1.258 . S
O148 C141 1.247 . S
O148 Zn145 2.028 . S
O149 C141 1.258 . S
O149 Zn143 2.035 . S
O150 Zn143 2.028 . S
O150 C153 1.247 . S
O151 Zn145 2.035 . S
O151 C153 1.258 . S
C152 O146 1.247 . S
C152 O147 1.258 . S
C153 O150 1.247 . S
C153 O151 1.258 . S
C154 O156 1.247 . S
C154 O158 1.258 . S
C155 O162 1.247 . S
C155 O163 1.258 . S
O156 C154 1.247 . S
O156 Zn157 2.028 . S
Zn157 O156 2.028 . S
Zn157 O161 2.035 . S
Zn157 O163 2.035 . S
Zn157 O164 2.028 . S
O158 C154 1.258 . S
O158 Zn159 2.035 . S
Zn159 O158 2.035 . S
Zn159 O160 2.028 . S
Zn159 O162 2.028 . S
Zn159 O165 2.035 . S
O160 Zn159 2.028 . S
O160 C166 1.247 . S
O161 Zn157 2.035 . S
O161 C166 1.258 . S
O162 C155 1.247 . S
O162 Zn159 2.028 . S
O163 C155 1.258 . S
O163 Zn157 2.035 . S
O164 Zn157 2.028 . S
O164 C167 1.247 . S
O165 Zn159 2.035 . S
O165 C167 1.258 . S
C166 O160 1.247 . S
C166 O161 1.258 . S
C167 O164 1.247 . S
C167 O165 1.258 . S
C168 O170 1.247 . S
C168 O172 1.258 . S
C169 O176 1.247 . S
C169 O177 1.258 . S
O170 C168 1.247 . S
O170 Zn171 2.028 . S
Zn171 O170 2.028 . S
Zn171 O175 2.035 . S
Zn171 O177 2.035 . S
Zn171 O178 2.028 . S
O172 C168 1.258 . S
O172 Zn173 2.035 . S
Zn173 O172 2.035 . S
Zn173 O174 2.028 . S
Zn173 O176 2.028 . S
Zn173 O179 2.035 . S
O174 Zn173 2.028 . S
O174 C180 1.247 . S
O175 Zn171 2.035 . S
O175 C180 1.258 . S
O176 C169 1.247 . S
O176 Zn173 2.028 . S
O177 C169 1.258 . S
O177 Zn171 2.035 . S
O178 Zn171 2.028 . S
O178 C181 1.247 . S
O179 Zn173 2.035 . S
O179 C181 1.258 . S
C180 O174 1.247 . S
C180 O175 1.258 . S
C181 O178 1.247 . S
C181 O179 1.258 . S
C182 O184 1.247 . S
C182 O186 1.258 . S
C183 O190 1.247 . S
C183 O191 1.258 . S
O184 C182 1.247 . S
O184 Zn185 2.028 . S
Zn185 O184 2.028 . S
Zn185 O189 2.035 . S
Zn185 O191 2.035 . S
Zn185 O192 2.028 . S
O186 C182 1.258 . S
O186 Zn187 2.035 . S
Zn187 O186 2.035 . S
Zn187 O188 2.028 . S
Zn187 O190 2.028 . S
Zn187 O193 2.035 . S
O188 Zn187 2.028 . S
O188 C194 1.247 . S
O189 Zn185 2.035 . S
O189 C194 1.258 . S
O190 C183 1.247 . S
O190 Zn187 2.028 . S
O191 C183 1.258 . S
O191 Zn185 2.035 . S
O192 Zn185 2.028 . S
O192 C195 1.247 . S
O193 Zn187 2.035 . S
O193 C195 1.258 . S
C194 O188 1.247 . S
C194 O189 1.258 . S
C195 O192 1.247 . S
C195 O193 1.258 . S
C196 O198 1.247 . S
C196 O200 1.258 . S
C197 O204 1.247 . S
C197 O205 1.258 . S
O198 C196 1.247 . S
O198 Zn199 2.028 . S
Zn199 O198 2.028 . S
Zn199 O203 2.035 . S
Zn199 O205 2.035 . S
Zn199 O206 2.028 . S
O200 C196 1.258 . S
O200 Zn201 2.035 . S
Zn201 O200 2.035 . S
Zn201 O202 2.028 . S
Zn201 O204 2.028 . S
Zn201 O207 2.035 . S
O202 Zn201 2.028 . S
O202 C208 1.247 . S
O203 Zn199 2.035 . S
O203 C208 1.258 . S
O204 C197 1.247 . S
O204 Zn201 2.028 . S
O205 C197 1.258 . S
O205 Zn199 2.035 . S
O206 Zn199 2.028 . S
O206 C209 1.247 . S
O207 Zn201 2.035 . S
O207 C209 1.258 . S
C208 O202 1.247 . S
C208 O203 1.258 . S
C209 O206 1.247 . S
C209 O207 1.258 . S
C210 O212 1.247 . S
C210 O214 1.258 . S
C211 O218 1.247 . S
C211 O219 1.258 . S
O212 C210 1.247 . S
O212 Zn213 2.028 . S
Zn213 O212 2.028 . S
Zn213 O217 2.035 . S
Zn213 O219 2.035 . S
Zn213 O220 2.028 . S
O214 C210 1.258 . S
O214 Zn215 2.035 . S
Zn215 O214 2.035 . S
Zn215 O216 2.028 . S
Zn215 O218 2.028 . S
Zn215 O221 2.035 . S
O216 Zn215 2.028 . S
O216 C222 1.247 . S
O217 Zn213 2.035 . S
O217 C222 1.258 . S
O218 C211 1.247 . S
O218 Zn215 2.028 . S
O219 C211 1.258 . S
O219 Zn213 2.035 . S
O220 Zn213 2.028 . S
O220 C223 1.247 . S
O221 Zn215 2.035 . S
O221 C223 1.258 . S
C222 O216 1.247 . S
C222 O217 1.258 . S
C223 O220 1.247 . S
C223 O221 1.258 . S
C224 O226 1.247 . S
C224 O228 1.258 1_545 S
C225 O232 1.247 . S
C225 O233 1.258 . S
O226 C224 1.247 . S
O226 Zn227 2.028 . S
Zn227 O226 2.028 . S
Zn227 O231 2.035 . S
Zn227 O233 2.035 1_545 S
Zn227 O234 2.025 1_545 S
O228 C224 1.258 1_565 S
O228 Zn229 2.035 . S
Zn229 O228 2.035 . S
Zn229 O230 2.028 . S
Zn229 O232 2.028 . S
Zn229 O235 2.035 . S
O230 Zn229 2.028 . S
O230 C236 1.247 . S
O231 Zn227 2.035 . S
O231 C236 1.258 1_545 S
O232 C225 1.247 . S
O232 Zn229 2.028 . S
O233 C225 1.258 . S
O233 Zn227 2.035 1_565 S
O234 Zn227 2.025 1_565 S
O234 C237 1.259 . S
O235 Zn229 2.035 . S
O235 C237 1.258 . S
C236 O230 1.247 . S
C236 O231 1.258 1_565 S
C237 O234 1.259 . S
C237 O235 1.258 . S
C238 O240 1.247 . S
C238 O242 1.258 . S
C239 O246 1.247 . S
C239 O247 1.258 . S
O240 C238 1.247 . S
O240 Zn241 2.028 . S
Zn241 O240 2.028 . S
Zn241 O245 2.035 . S
Zn241 O247 2.035 . S
Zn241 O248 2.028 . S
O242 C238 1.258 . S
O242 Zn243 2.035 . S
Zn243 O242 2.035 . S
Zn243 O244 2.028 . S
Zn243 O246 2.028 . S
Zn243 O249 2.035 . S
O244 Zn243 2.028 . S
O244 C250 1.247 . S
O245 Zn241 2.035 . S
O245 C250 1.258 . S
O246 C239 1.247 . S
O246 Zn243 2.028 . S
O247 C239 1.258 . S
O247 Zn241 2.035 . S
O248 Zn241 2.028 . S
O248 C251 1.247 . S
O249 Zn243 2.035 . S
O249 C251 1.258 . S
C250 O244 1.247 . S
C250 O245 1.258 . S
C251 O248 1.247 . S
C251 O249 1.258 . S
C252 O254 1.247 . S
C252 O256 1.266 . S
C253 O260 1.247 1_545 S
C253 O261 1.258 . S
O254 C252 1.247 . S
O254 Zn255 2.028 . S
Zn255 O254 2.028 . S
Zn255 O259 2.035 . S
Zn255 O261 2.035 . S
Zn255 O262 2.028 . S
O256 C252 1.266 . S
O256 Zn257 2.033 1_545 S
Zn257 O256 2.033 1_565 S
Zn257 O258 2.028 1_565 S
Zn257 O260 2.028 . S
Zn257 O263 2.035 . S
O258 Zn257 2.028 1_545 S
O258 C264 1.247 . S
O259 Zn255 2.035 . S
O259 C264 1.258 . S
O260 C253 1.247 1_565 S
O260 Zn257 2.028 . S
O261 C253 1.258 . S
O261 Zn255 2.035 . S
O262 Zn255 2.028 . S
O262 C265 1.247 1_545 S
O263 Zn257 2.035 . S
O263 C265 1.258 . S
C264 O258 1.247 . S
C264 O259 1.258 . S
C265 O262 1.247 1_565 S
C265 O263 1.258 . S
C266 O268 1.247 . S
C266 O270 1.258 . S
C267 O274 1.247 . S
C267 O275 1.258 . S
O268 C266 1.247 . S
O268 Zn269 2.028 . S
Zn269 O268 2.028 . S
Zn269 O273 2.035 . S
Zn269 O275 2.035 . S
Zn269 O276 2.028 . S
O270 C266 1.258 . S
O270 Zn271 2.035 . S
Zn271 O270 2.035 . S
Zn271 O272 2.028 . S
Zn271 O274 2.028 . S
Zn271 O277 2.035 . S
O272 Zn271 2.028 . S
O272 C278 1.247 . S
O273 Zn269 2.035 . S
O273 C278 1.258 . S
O274 C267 1.247 . S
O274 Zn271 2.028 . S
O275 C267 1.258 . S
O275 Zn269 2.035 . S
O276 Zn269 2.028 . S
O276 C279 1.247 . S
O277 Zn271 2.035 . S
O277 C279 1.258 . S
C278 O272 1.247 . S
C278 O273 1.258 . S
C279 O276 1.247 . S
C279 O277 1.258 . S
C280 O282 1.247 . S
C280 O284 1.258 1_565 S
C281 O288 1.247 . S
C281 O289 1.258 . S
O282 C280 1.247 . S
O282 Zn283 2.028 . S
Zn283 O282 2.028 . S
Zn283 O287 2.035 1_554 S
Zn283 O289 2.035 1_565 S
Zn283 O290 2.025 1_565 S
O284 C280 1.258 1_545 S
O284 Zn285 2.035 . S
Zn285 O284 2.035 . S
Zn285 O286 2.028 1_554 S
Zn285 O288 2.028 . S
Zn285 O291 2.035 . S
O286 Zn285 2.028 1_556 S
O286 C292 1.247 . S
O287 Zn283 2.035 1_556 S
O287 C292 1.258 1_565 S
O288 C281 1.247 . S
O288 Zn285 2.028 . S
O289 C281 1.258 . S
O289 Zn283 2.035 1_545 S
O290 Zn283 2.025 1_545 S
O290 C293 1.257 . S
O291 Zn285 2.035 . S
O291 C293 1.258 . S
C292 O286 1.247 . S
C292 O287 1.258 1_545 S
C293 O290 1.257 . S
C293 O291 1.258 . S
C294 O296 1.247 . S
C294 O298 1.258 . S
C295 O302 1.247 . S
C295 O303 1.258 . S
O296 C294 1.247 . S
O296 Zn297 2.028 . S
Zn297 O296 2.028 . S
Zn297 O301 2.035 . S
Zn297 O303 2.035 . S
Zn297 O304 2.028 . S
O298 C294 1.258 . S
O298 Zn299 2.035 . S
Zn299 O298 2.035 . S
Zn299 O300 2.028 . S
Zn299 O302 2.028 . S
Zn299 O305 2.035 . S
O300 Zn299 2.028 . S
O300 C306 1.247 . S
O301 Zn297 2.035 . S
O301 C306 1.258 . S
O302 C295 1.247 . S
O302 Zn299 2.028 . S
O303 C295 1.258 . S
O303 Zn297 2.035 . S
O304 Zn297 2.028 . S
O304 C307 1.247 . S
O305 Zn299 2.035 . S
O305 C307 1.258 . S
C306 O300 1.247 . S
C306 O301 1.258 . S
C307 O304 1.247 . S
C307 O305 1.258 . S
C308 O310 1.247 . S
C308 O312 1.265 . S
C309 O316 1.247 1_565 S
C309 O317 1.258 . S
O310 C308 1.247 . S
O310 Zn311 2.028 . S
Zn311 O310 2.028 . S
Zn311 O315 2.035 . S
Zn311 O317 2.035 . S
Zn311 O318 2.028 . S
O312 C308 1.265 . S
O312 Zn313 2.033 1_565 S
Zn313 O312 2.033 1_545 S
Zn313 O314 2.028 1_545 S
Zn313 O316 2.028 . S
Zn313 O319 2.035 . S
O314 Zn313 2.028 1_565 S
O314 C320 1.247 . S
O315 Zn311 2.035 . S
O315 C320 1.258 . S
O316 C309 1.247 1_545 S
O316 Zn313 2.028 . S
O317 C309 1.258 . S
O317 Zn311 2.035 . S
O318 Zn311 2.028 . S
O318 C321 1.247 1_565 S
O319 Zn313 2.035 . S
O319 C321 1.258 . S
C320 O314 1.247 . S
C320 O315 1.258 . S
C321 O318 1.247 1_545 S
C321 O319 1.258 . S
C322 O324 1.247 . S
C322 O326 1.258 . S
C323 O330 1.247 . S
C323 O331 1.258 . S
O324 C322 1.247 . S
O324 Zn325 2.028 . S
Zn325 O324 2.028 . S
Zn325 O329 2.035 . S
Zn325 O331 2.035 . S
Zn325 O332 2.028 . S
O326 C322 1.258 . S
O326 Zn327 2.035 . S
Zn327 O326 2.035 . S
Zn327 O328 2.028 . S
Zn327 O330 2.028 . S
Zn327 O333 2.035 . S
O328 Zn327 2.028 . S
O328 C334 1.247 . S
O329 Zn325 2.035 . S
O329 C334 1.258 . S
O330 C323 1.247 . S
O330 Zn327 2.028 . S
O331 C323 1.258 . S
O331 Zn325 2.035 . S
O332 Zn325 2.028 . S
O332 C335 1.247 . S
O333 Zn327 2.035 . S
O333 C335 1.258 . S
C334 O328 1.247 . S
C334 O329 1.258 . S
C335 O332 1.247 . S
C335 O333 1.258 . S
C336 O338 1.247 . S
C336 O340 1.258 . S
C337 O344 1.247 . S
C337 O345 1.258 1_565 S
O338 C336 1.247 . S
O338 Zn339 2.028 . S
Zn339 O338 2.028 . S
Zn339 O343 2.035 . S
Zn339 O345 2.035 . S
Zn339 O346 2.028 . S
O340 C336 1.258 . S
O340 Zn341 2.035 1_545 S
Zn341 O340 2.035 1_565 S
Zn341 O342 2.025 1_565 S
Zn341 O344 2.028 . S
Zn341 O347 2.035 . S
O342 Zn341 2.025 1_545 S
O342 C348 1.258 . S
O343 Zn339 2.035 . S
O343 C348 1.258 . S
O344 C337 1.247 . S
O344 Zn341 2.028 . S
O345 C337 1.258 1_545 S
O345 Zn339 2.035 . S
O346 Zn339 2.028 . S
O346 C349 1.247 . S
O347 Zn341 2.035 . S
O347 C349 1.258 1_565 S
C348 O342 1.258 . S
C348 O343 1.258 . S
C349 O346 1.247 . S
C349 O347 1.258 1_545 S
C350 O352 1.247 . S
C350 O354 1.258 . S
C351 O358 1.247 . S
C351 O359 1.258 . S
O352 C350 1.247 . S
O352 Zn353 2.028 . S
Zn353 O352 2.028 . S
Zn353 O357 2.035 . S
Zn353 O359 2.035 . S
Zn353 O360 2.028 . S
O354 C350 1.258 . S
O354 Zn355 2.035 . S
Zn355 O354 2.035 . S
Zn355 O356 2.028 . S
Zn355 O358 2.028 . S
Zn355 O361 2.035 . S
O356 Zn355 2.028 . S
O356 C362 1.247 . S
O357 Zn353 2.035 . S
O357 C362 1.258 . S
O358 C351 1.247 . S
O358 Zn355 2.028 . S
O359 C351 1.258 . S
O359 Zn353 2.035 . S
O360 Zn353 2.028 . S
O360 C363 1.247 . S
O361 Zn355 2.035 . S
O361 C363 1.258 . S
C362 O356 1.247 . S
C362 O357 1.258 . S
C363 O360 1.247 . S
C363 O361 1.258 . S
C364 O366 1.247 . S
C364 O368 1.258 . S
C365 O372 1.247 . S
C365 O373 1.258 1_545 S
O366 C364 1.247 . S
O366 Zn367 2.028 . S
Zn367 O366 2.028 . S
Zn367 O371 2.035 . S
Zn367 O373 2.035 . S
Zn367 O374 2.028 1_554 S
O368 C364 1.258 . S
O368 Zn369 2.035 1_565 S
Zn369 O368 2.035 1_545 S
Zn369 O370 2.025 1_545 S
Zn369 O372 2.028 . S
Zn369 O375 2.035 1_554 S
O370 Zn369 2.025 1_565 S
O370 C376 1.257 . S
O371 Zn367 2.035 . S
O371 C376 1.258 . S
O372 C365 1.247 . S
O372 Zn369 2.028 . S
O373 C365 1.258 1_565 S
O373 Zn367 2.035 . S
O374 Zn367 2.028 1_556 S
O374 C377 1.247 . S
O375 Zn369 2.035 1_556 S
O375 C377 1.258 1_545 S
C376 O370 1.257 . S
C376 O371 1.258 . S
C377 O374 1.247 . S
C377 O375 1.258 1_565 S
C378 O380 1.247 . S
C378 O382 1.258 . S
C379 O386 1.247 . S
C379 O387 1.258 . S
O380 C378 1.247 . S
O380 Zn381 2.028 . S
Zn381 O380 2.028 . S
Zn381 O385 2.035 . S
Zn381 O387 2.035 . S
Zn381 O388 2.028 . S
O382 C378 1.258 . S
O382 Zn383 2.035 . S
Zn383 O382 2.035 . S
Zn383 O384 2.028 . S
Zn383 O386 2.028 . S
Zn383 O389 2.035 . S
O384 Zn383 2.028 . S
O384 C390 1.247 . S
O385 Zn381 2.035 . S
O385 C390 1.258 . S
O386 C379 1.247 . S
O386 Zn383 2.028 . S
O387 C379 1.258 . S
O387 Zn381 2.035 . S
O388 Zn381 2.028 . S
O388 C391 1.247 . S
O389 Zn383 2.035 . S
O389 C391 1.258 . S
C390 O384 1.247 . S
C390 O385 1.258 . S
C391 O388 1.247 . S
C391 O389 1.258 . S
C392 O394 1.247 1_565 S
C392 O396 1.258 . S
C393 O400 1.247 . S
C393 O401 1.266 . S
O394 C392 1.247 1_545 S
O394 Zn395 2.028 . S
Zn395 O394 2.028 . S
Zn395 O399 2.035 . S
Zn395 O401 2.033 1_545 S
Zn395 O402 2.028 1_545 S
O396 C392 1.258 . S
O396 Zn397 2.035 . S
Zn397 O396 2.035 . S
Zn397 O398 2.028 . S
Zn397 O400 2.028 . S
Zn397 O403 2.035 . S
O398 Zn397 2.028 . S
O398 C404 1.247 1_565 S
O399 Zn395 2.035 . S
O399 C404 1.258 . S
O400 C393 1.247 . S
O400 Zn397 2.028 . S
O401 C393 1.266 . S
O401 Zn395 2.033 1_565 S
O402 Zn395 2.028 1_565 S
O402 C405 1.247 . S
O403 Zn397 2.035 . S
O403 C405 1.258 . S
C404 O398 1.247 1_545 S
C404 O399 1.258 . S
C405 O402 1.247 . S
C405 O403 1.258 . S
C406 O408 1.247 . S
C406 O410 1.258 . S
C407 O414 1.247 . S
C407 O415 1.258 . S
O408 C406 1.247 . S
O408 Zn409 2.028 . S
Zn409 O408 2.028 . S
Zn409 O413 2.035 . S
Zn409 O415 2.035 . S
Zn409 O416 2.028 . S
O410 C406 1.258 . S
O410 Zn411 2.035 . S
Zn411 O410 2.035 . S
Zn411 O412 2.028 . S
Zn411 O414 2.028 . S
Zn411 O417 2.035 . S
O412 Zn411 2.028 . S
O412 C418 1.247 . S
O413 Zn409 2.035 . S
O413 C418 1.258 . S
O414 C407 1.247 . S
O414 Zn411 2.028 . S
O415 C407 1.258 . S
O415 Zn409 2.035 . S
O416 Zn409 2.028 . S
O416 C419 1.247 . S
O417 Zn411 2.035 . S
O417 C419 1.258 . S
C418 O412 1.247 . S
C418 O413 1.258 . S
C419 O416 1.247 . S
C419 O417 1.258 . S
C420 O422 1.247 1_545 S
C420 O424 1.258 . S
C421 O428 1.247 . S
C421 O429 1.266 . S
O422 C420 1.247 1_565 S
O422 Zn423 2.028 . S
Zn423 O422 2.028 . S
Zn423 O427 2.035 . S
Zn423 O429 2.033 1_565 S
Zn423 O430 2.028 1_565 S
O424 C420 1.258 . S
O424 Zn425 2.035 . S
Zn425 O424 2.035 . S
Zn425 O426 2.028 . S
Zn425 O428 2.028 . S
Zn425 O431 2.035 . S
O426 Zn425 2.028 . S
O426 C432 1.247 1_545 S
O427 Zn423 2.035 . S
O427 C432 1.258 . S
O428 C421 1.247 . S
O428 Zn425 2.028 . S
O429 C421 1.266 . S
O429 Zn423 2.033 1_545 S
O430 Zn423 2.028 1_545 S
O430 C433 1.247 . S
O431 Zn425 2.035 . S
O431 C433 1.258 . S
C432 O426 1.247 1_565 S
C432 O427 1.258 . S
C433 O430 1.247 . S
C433 O431 1.258 . S
C434 O436 1.247 . S
C434 O438 1.258 . S
C435 O442 1.247 . S
C435 O443 1.258 . S
O436 C434 1.247 . S
O436 Zn437 2.028 . S
Zn437 O436 2.028 . S
Zn437 O441 2.035 . S
Zn437 O443 2.035 . S
Zn437 O444 2.028 . S
O438 C434 1.258 . S
O438 Zn439 2.035 . S
Zn439 O438 2.035 . S
Zn439 O440 2.028 . S
Zn439 O442 2.028 . S
Zn439 O445 2.035 . S
O440 Zn439 2.028 . S
O440 C446 1.247 . S
O441 Zn437 2.035 . S
O441 C446 1.258 . S
O442 C435 1.247 . S
O442 Zn439 2.028 . S
O443 C435 1.258 . S
O443 Zn437 2.035 . S
O444 Zn437 2.028 . S
O444 C447 1.247 . S
O445 Zn439 2.035 . S
O445 C447 1.258 . S
C446 O440 1.247 . S
C446 O441 1.258 . S
C447 O444 1.247 . S
C447 O445 1.258 . S
H448 C456 0.929 . S
H449 C458 0.930 . S
H450 C460 0.930 . S
H451 C463 0.929 . S
H452 C466 0.930 . S
H453 C468 0.960 . S
H454 C468 0.960 . S
H455 C468 0.960 . S
C456 H448 0.929 . S
C456 C457 1.377 . S
C456 C458 1.384 . S
C457 C456 1.377 . S
C457 C463 1.390 . S
C458 H449 0.930 . S
C458 C456 1.384 . S
C458 C459 1.372 . S
C459 C458 1.372 . S
C459 C460 1.400 . S
C459 C464 1.490 . S
C460 H450 0.930 . S
C460 C459 1.400 . S
C460 C463 1.386 . S
H461 C477 0.930 . S
H462 C478 0.931 . S
C463 H451 0.929 . S
C463 C457 1.390 . S
C463 C460 1.386 . S
C464 C459 1.490 . S
C464 C466 1.395 . S
C464 C467 1.403 . S
H465 C471 0.930 . S
C466 H452 0.930 . S
C466 C464 1.395 . S
C466 C469 1.403 1_655 S
C467 C464 1.403 . S
C467 C468 1.524 . S
C467 C471 1.400 1_655 S
C468 H453 0.960 . S
C468 H454 0.960 . S
C468 H455 0.960 . S
C468 C467 1.524 . S
C469 C466 1.403 1_455 S
C469 C470 1.392 . S
C469 C473 1.495 . S
C470 C469 1.392 . S
C470 C471 1.385 . S
C470 C472 1.478 . S
C471 H465 0.930 . S
C471 C467 1.400 1_455 S
C471 C470 1.385 . S
C472 C470 1.478 . S
C472 C474 1.381 . S
C472 C478 1.383 . S
C473 C469 1.495 . S
C473 H479 0.959 . S
C473 H480 0.961 . S
C473 H481 0.960 . S
C474 C472 1.381 . S
C474 C475 1.394 . S
C474 H482 0.930 . S
C475 C474 1.394 . S
C475 C476 1.383 . S
C475 H483 0.929 . S
C476 C475 1.383 . S
C476 C477 1.377 . S
C477 H461 0.930 . S
C477 C476 1.377 . S
C477 C478 1.379 . S
C478 H462 0.931 . S
C478 C472 1.383 . S
C478 C477 1.379 . S
H479 C473 0.959 . S
H480 C473 0.961 . S
H481 C473 0.960 . S
H482 C474 0.930 . S
H483 C475 0.929 . S
H484 C492 0.929 . S
H485 C494 0.930 . S
H486 C496 0.930 . S
H487 C499 0.929 . S
H488 C502 0.930 . S
H489 C504 0.960 . S
H490 C504 0.960 . S
H491 C504 0.960 . S
C492 H484 0.929 . S
C492 C493 1.377 . S
C492 C494 1.384 . S
C493 C492 1.377 . S
C493 C499 1.390 . S
C494 H485 0.930 . S
C494 C492 1.384 . S
C494 C495 1.372 . S
C495 C494 1.372 . S
C495 C496 1.400 . S
C495 C500 1.490 . S
C496 H486 0.930 . S
C496 C495 1.400 . S
C496 C499 1.386 . S
H497 C513 0.930 . S
H498 C514 0.931 . S
C499 H487 0.929 . S
C499 C493 1.390 . S
C499 C496 1.386 . S
C500 C495 1.490 . S
C500 C502 1.395 . S
C500 C503 1.403 . S
H501 C507 0.930 . S
C502 H488 0.930 . S
C502 C500 1.395 . S
C502 C505 1.403 . S
C503 C500 1.403 . S
C503 C504 1.524 . S
C503 C507 1.400 . S
C504 H489 0.960 . S
C504 H490 0.960 . S
C504 H491 0.960 . S
C504 C503 1.524 . S
C505 C502 1.403 . S
C505 C506 1.392 . S
C505 C509 1.495 . S
C506 C505 1.392 . S
C506 C507 1.385 . S
C506 C508 1.478 . S
C507 H501 0.930 . S
C507 C503 1.400 . S
C507 C506 1.385 . S
C508 C506 1.478 . S
C508 C510 1.381 . S
C508 C514 1.383 . S
C509 C505 1.495 . S
C509 H515 0.959 . S
C509 H516 0.961 . S
C509 H517 0.960 . S
C510 C508 1.381 . S
C510 C511 1.394 . S
C510 H518 0.930 . S
C511 C510 1.394 . S
C511 C512 1.383 . S
C511 H519 0.929 . S
C512 C511 1.383 . S
C512 C513 1.377 . S
C513 H497 0.930 . S
C513 C512 1.377 . S
C513 C514 1.379 . S
C514 H498 0.931 . S
C514 C508 1.383 . S
C514 C513 1.379 . S
H515 C509 0.959 . S
H516 C509 0.961 . S
H517 C509 0.960 . S
H518 C510 0.930 . S
H519 C511 0.929 . S
H520 C528 0.929 . S
H521 C530 0.930 . S
H522 C532 0.930 . S
H523 C535 0.929 . S
H524 C538 0.930 . S
H525 C540 0.960 . S
H526 C540 0.960 . S
H527 C540 0.960 . S
C528 H520 0.929 . S
C528 C529 1.377 . S
C528 C530 1.384 . S
C529 C528 1.377 . S
C529 C535 1.390 . S
C530 H521 0.930 . S
C530 C528 1.384 . S
C530 C531 1.372 . S
C531 C530 1.372 . S
C531 C532 1.400 . S
C531 C536 1.490 . S
C532 H522 0.930 . S
C532 C531 1.400 . S
C532 C535 1.386 . S
H533 C549 0.930 . S
H534 C550 0.931 . S
C535 H523 0.929 . S
C535 C529 1.390 . S
C535 C532 1.386 . S
C536 C531 1.490 . S
C536 C538 1.395 . S
C536 C539 1.403 . S
H537 C543 0.930 . S
C538 H524 0.930 . S
C538 C536 1.395 . S
C538 C541 1.403 . S
C539 C536 1.403 . S
C539 C540 1.524 . S
C539 C543 1.400 . S
C540 H525 0.960 . S
C540 H526 0.960 . S
C540 H527 0.960 . S
C540 C539 1.524 . S
C541 C538 1.403 . S
C541 C542 1.392 . S
C541 C545 1.495 . S
C542 C541 1.392 . S
C542 C543 1.385 . S
C542 C544 1.478 . S
C543 H537 0.930 . S
C543 C539 1.400 . S
C543 C542 1.385 . S
C544 C542 1.478 . S
C544 C546 1.381 . S
C544 C550 1.383 . S
C545 C541 1.495 . S
C545 H551 0.959 . S
C545 H552 0.961 . S
C545 H553 0.960 . S
C546 C544 1.381 . S
C546 C547 1.394 . S
C546 H554 0.930 . S
C547 C546 1.394 . S
C547 C548 1.383 . S
C547 H555 0.929 . S
C548 C547 1.383 . S
C548 C549 1.377 . S
C549 H533 0.930 . S
C549 C548 1.377 . S
C549 C550 1.379 . S
C550 H534 0.931 . S
C550 C544 1.383 . S
C550 C549 1.379 . S
H551 C545 0.959 . S
H552 C545 0.961 . S
H553 C545 0.960 . S
H554 C546 0.930 . S
H555 C547 0.929 . S
H556 C564 0.929 . S
H557 C566 0.930 . S
H558 C568 0.930 . S
H559 C571 0.929 . S
H560 C574 0.930 . S
H561 C576 0.960 . S
H562 C576 0.960 . S
H563 C576 0.960 . S
C564 H556 0.929 . S
C564 C565 1.377 . S
C564 C566 1.384 . S
C565 C564 1.377 . S
C565 C571 1.390 . S
C566 H557 0.930 . S
C566 C564 1.384 . S
C566 C567 1.372 . S
C567 C566 1.372 . S
C567 C568 1.400 . S
C567 C572 1.490 . S
C568 H558 0.930 . S
C568 C567 1.400 . S
C568 C571 1.386 . S
H569 C585 0.930 . S
H570 C586 0.931 . S
C571 H559 0.929 . S
C571 C565 1.390 . S
C571 C568 1.386 . S
C572 C567 1.490 . S
C572 C574 1.395 . S
C572 C575 1.403 . S
H573 C579 0.930 . S
C574 H560 0.930 . S
C574 C572 1.395 . S
C574 C577 1.403 . S
C575 C572 1.403 . S
C575 C576 1.524 . S
C575 C579 1.400 . S
C576 H561 0.960 . S
C576 H562 0.960 . S
C576 H563 0.960 . S
C576 C575 1.524 . S
C577 C574 1.403 . S
C577 C578 1.392 . S
C577 C581 1.495 . S
C578 C577 1.392 . S
C578 C579 1.385 . S
C578 C580 1.478 . S
C579 H573 0.930 . S
C579 C575 1.400 . S
C579 C578 1.385 . S
C580 C578 1.478 . S
C580 C582 1.381 . S
C580 C586 1.383 . S
C581 C577 1.495 . S
C581 H587 0.959 . S
C581 H588 0.961 . S
C581 H589 0.960 . S
C582 C580 1.381 . S
C582 C583 1.394 . S
C582 H590 0.930 . S
C583 C582 1.394 . S
C583 C584 1.383 . S
C583 H591 0.929 . S
C584 C583 1.383 . S
C584 C585 1.377 . S
C585 H569 0.930 . S
C585 C584 1.377 . S
C585 C586 1.379 . S
C586 H570 0.931 . S
C586 C580 1.383 . S
C586 C585 1.379 . S
H587 C581 0.959 . S
H588 C581 0.961 . S
H589 C581 0.960 . S
H590 C582 0.930 . S
H591 C583 0.929 . S
H592 C600 0.929 . S
H593 C602 0.930 . S
H594 C604 0.930 . S
H595 C607 0.929 . S
H596 C610 0.930 . S
H597 C612 0.960 . S
H598 C612 0.960 . S
H599 C612 0.960 . S
C600 H592 0.929 . S
C600 C601 1.377 . S
C600 C602 1.384 . S
C601 C600 1.377 . S
C601 C607 1.390 . S
C602 H593 0.930 . S
C602 C600 1.384 . S
C602 C603 1.372 . S
C603 C602 1.372 . S
C603 C604 1.400 . S
C603 C608 1.490 . S
C604 H594 0.930 . S
C604 C603 1.400 . S
C604 C607 1.386 . S
H605 C621 0.930 . S
H606 C622 0.931 . S
C607 H595 0.929 . S
C607 C601 1.390 . S
C607 C604 1.386 . S
C608 C603 1.490 . S
C608 C610 1.395 . S
C608 C611 1.403 . S
H609 C615 0.930 . S
C610 H596 0.930 . S
C610 C608 1.395 . S
C610 C613 1.403 1_455 S
C611 C608 1.403 . S
C611 C612 1.524 . S
C611 C615 1.400 1_455 S
C612 H597 0.960 . S
C612 H598 0.960 . S
C612 H599 0.960 . S
C612 C611 1.524 . S
C613 C610 1.403 1_655 S
C613 C614 1.392 . S
C613 C617 1.495 . S
C614 C613 1.392 . S
C614 C615 1.385 . S
C614 C616 1.478 . S
C615 H609 0.930 . S
C615 C611 1.400 1_655 S
C615 C614 1.385 . S
C616 C614 1.478 . S
C616 C618 1.381 . S
C616 C622 1.383 . S
C617 C613 1.495 . S
C617 H623 0.959 . S
C617 H624 0.961 . S
C617 H625 0.960 . S
C618 C616 1.381 . S
C618 C619 1.394 . S
C618 H626 0.930 . S
C619 C618 1.394 . S
C619 C620 1.383 . S
C619 H627 0.929 . S
C620 C619 1.383 . S
C620 C621 1.377 . S
C621 H605 0.930 . S
C621 C620 1.377 . S
C621 C622 1.379 . S
C622 H606 0.931 . S
C622 C616 1.383 . S
C622 C621 1.379 . S
H623 C617 0.959 . S
H624 C617 0.961 . S
H625 C617 0.960 . S
H626 C618 0.930 . S
H627 C619 0.929 . S
H628 C636 0.929 . S
H629 C638 0.930 . S
H630 C640 0.930 . S
H631 C643 0.929 . S
H632 C646 0.930 . S
H633 C648 0.960 . S
H634 C648 0.960 . S
H635 C648 0.960 . S
C636 H628 0.929 . S
C636 C637 1.377 . S
C636 C638 1.384 . S
C637 C636 1.377 . S
C637 C643 1.390 . S
C638 H629 0.930 . S
C638 C636 1.384 . S
C638 C639 1.372 . S
C639 C638 1.372 . S
C639 C640 1.400 . S
C639 C644 1.490 . S
C640 H630 0.930 . S
C640 C639 1.400 . S
C640 C643 1.386 . S
H641 C657 0.930 . S
H642 C658 0.931 . S
C643 H631 0.929 . S
C643 C637 1.390 . S
C643 C640 1.386 . S
C644 C639 1.490 . S
C644 C646 1.395 . S
C644 C647 1.403 . S
H645 C651 0.930 . S
C646 H632 0.930 . S
C646 C644 1.395 . S
C646 C649 1.403 . S
C647 C644 1.403 . S
C647 C648 1.524 . S
C647 C651 1.400 . S
C648 H633 0.960 . S
C648 H634 0.960 . S
C648 H635 0.960 . S
C648 C647 1.524 . S
C649 C646 1.403 . S
C649 C650 1.392 . S
C649 C653 1.495 . S
C650 C649 1.392 . S
C650 C651 1.385 . S
C650 C652 1.478 . S
C651 H645 0.930 . S
C651 C647 1.400 . S
C651 C650 1.385 . S
C652 C650 1.478 . S
C652 C654 1.381 . S
C652 C658 1.383 . S
C653 C649 1.495 . S
C653 H659 0.959 . S
C653 H660 0.961 . S
C653 H661 0.960 . S
C654 C652 1.381 . S
C654 C655 1.394 . S
C654 H662 0.930 . S
C655 C654 1.394 . S
C655 C656 1.383 . S
C655 H663 0.929 . S
C656 C655 1.383 . S
C656 C657 1.377 . S
C657 H641 0.930 . S
C657 C656 1.377 . S
C657 C658 1.379 . S
C658 H642 0.931 . S
C658 C652 1.383 . S
C658 C657 1.379 . S
H659 C653 0.959 . S
H660 C653 0.961 . S
H661 C653 0.960 . S
H662 C654 0.930 . S
H663 C655 0.929 . S
H664 C672 0.929 . S
H665 C674 0.930 . S
H666 C676 0.930 . S
H667 C679 0.929 . S
H668 C682 0.930 . S
H669 C684 0.960 . S
H670 C684 0.960 . S
H671 C684 0.960 . S
C672 H664 0.929 . S
C672 C673 1.377 . S
C672 C674 1.384 . S
C673 C672 1.377 . S
C673 C679 1.390 . S
C674 H665 0.930 . S
C674 C672 1.384 . S
C674 C675 1.372 . S
C675 C674 1.372 . S
C675 C676 1.400 . S
C675 C680 1.490 . S
C676 H666 0.930 . S
C676 C675 1.400 . S
C676 C679 1.386 . S
H677 C693 0.930 . S
H678 C694 0.931 . S
C679 H667 0.929 . S
C679 C673 1.390 . S
C679 C676 1.386 . S
C680 C675 1.490 . S
C680 C682 1.395 . S
C680 C683 1.403 . S
H681 C687 0.930 . S
C682 H668 0.930 . S
C682 C680 1.395 . S
C682 C685 1.403 . S
C683 C680 1.403 . S
C683 C684 1.524 . S
C683 C687 1.400 . S
C684 H669 0.960 . S
C684 H670 0.960 . S
C684 H671 0.960 . S
C684 C683 1.524 . S
C685 C682 1.403 . S
C685 C686 1.392 . S
C685 C689 1.495 . S
C686 C685 1.392 . S
C686 C687 1.385 . S
C686 C688 1.478 . S
C687 H681 0.930 . S
C687 C683 1.400 . S
C687 C686 1.385 . S
C688 C686 1.478 . S
C688 C690 1.381 . S
C688 C694 1.383 . S
C689 C685 1.495 . S
C689 H695 0.959 . S
C689 H696 0.961 . S
C689 H697 0.960 . S
C690 C688 1.381 . S
C690 C691 1.394 . S
C690 H698 0.930 . S
C691 C690 1.394 . S
C691 C692 1.383 . S
C691 H699 0.929 . S
C692 C691 1.383 . S
C692 C693 1.377 . S
C693 H677 0.930 . S
C693 C692 1.377 . S
C693 C694 1.379 . S
C694 H678 0.931 . S
C694 C688 1.383 . S
C694 C693 1.379 . S
H695 C689 0.959 . S
H696 C689 0.961 . S
H697 C689 0.960 . S
H698 C690 0.930 . S
H699 C691 0.929 . S
H700 C708 0.929 . S
H701 C710 0.930 . S
H702 C712 0.930 . S
H703 C715 0.929 . S
H704 C718 0.930 . S
H705 C720 0.960 . S
H706 C720 0.960 . S
H707 C720 0.960 . S
C708 H700 0.929 . S
C708 C709 1.377 . S
C708 C710 1.384 . S
C709 C708 1.377 . S
C709 C715 1.390 . S
C710 H701 0.930 . S
C710 C708 1.384 . S
C710 C711 1.372 . S
C711 C710 1.372 . S
C711 C712 1.400 . S
C711 C716 1.490 . S
C712 H702 0.930 . S
C712 C711 1.400 . S
C712 C715 1.386 . S
H713 C729 0.930 . S
H714 C730 0.931 . S
C715 H703 0.929 . S
C715 C709 1.390 . S
C715 C712 1.386 . S
C716 C711 1.490 . S
C716 C718 1.395 . S
C716 C719 1.403 . S
H717 C723 0.930 . S
C718 H704 0.930 . S
C718 C716 1.395 . S
C718 C721 1.403 . S
C719 C716 1.403 . S
C719 C720 1.524 . S
C719 C723 1.400 . S
C720 H705 0.960 . S
C720 H706 0.960 . S
C720 H707 0.960 . S
C720 C719 1.524 . S
C721 C718 1.403 . S
C721 C722 1.392 . S
C721 C725 1.495 . S
C722 C721 1.392 . S
C722 C723 1.385 . S
C722 C724 1.478 . S
C723 H717 0.930 . S
C723 C719 1.400 . S
C723 C722 1.385 . S
C724 C722 1.478 . S
C724 C726 1.381 . S
C724 C730 1.383 . S
C725 C721 1.495 . S
C725 H731 0.959 . S
C725 H732 0.961 . S
C725 H733 0.960 . S
C726 C724 1.381 . S
C726 C727 1.394 . S
C726 H734 0.930 . S
C727 C726 1.394 . S
C727 C728 1.383 . S
C727 H735 0.929 . S
C728 C727 1.383 . S
C728 C729 1.377 . S
C729 H713 0.930 . S
C729 C728 1.377 . S
C729 C730 1.379 . S
C730 H714 0.931 . S
C730 C724 1.383 . S
C730 C729 1.379 . S
H731 C725 0.959 . S
H732 C725 0.961 . S
H733 C725 0.960 . S
H734 C726 0.930 . S
H735 C727 0.929 . S
H736 C744 0.929 . S
H737 C746 0.930 . S
H738 C748 0.930 . S
H739 C751 0.929 . S
H740 C754 0.930 . S
H741 C756 0.960 . S
H742 C756 0.960 . S
H743 C756 0.960 . S
C744 H736 0.929 . S
C744 C745 1.377 . S
C744 C746 1.384 . S
C745 C744 1.377 . S
C745 C751 1.390 . S
C746 H737 0.930 . S
C746 C744 1.384 . S
C746 C747 1.372 . S
C747 C746 1.372 . S
C747 C748 1.400 . S
C747 C752 1.490 . S
C748 H738 0.930 . S
C748 C747 1.400 . S
C748 C751 1.386 . S
H749 C765 0.930 . S
H750 C766 0.931 . S
C751 H739 0.929 . S
C751 C745 1.390 . S
C751 C748 1.386 . S
C752 C747 1.490 . S
C752 C754 1.395 . S
C752 C755 1.403 . S
H753 C759 0.930 . S
C754 H740 0.930 . S
C754 C752 1.395 . S
C754 C757 1.403 . S
C755 C752 1.403 . S
C755 C756 1.524 . S
C755 C759 1.400 . S
C756 H741 0.960 . S
C756 H742 0.960 . S
C756 H743 0.960 . S
C756 C755 1.524 . S
C757 C754 1.403 . S
C757 C758 1.392 . S
C757 C761 1.495 . S
C758 C757 1.392 . S
C758 C759 1.385 . S
C758 C760 1.478 . S
C759 H753 0.930 . S
C759 C755 1.400 . S
C759 C758 1.385 . S
C760 C758 1.478 . S
C760 C762 1.381 . S
C760 C766 1.383 . S
C761 C757 1.495 . S
C761 H767 0.959 . S
C761 H768 0.961 . S
C761 H769 0.960 . S
C762 C760 1.381 . S
C762 C763 1.394 . S
C762 H770 0.930 . S
C763 C762 1.394 . S
C763 C764 1.383 . S
C763 H771 0.929 . S
C764 C763 1.383 . S
C764 C765 1.377 . S
C765 H749 0.930 . S
C765 C764 1.377 . S
C765 C766 1.379 . S
C766 H750 0.931 . S
C766 C760 1.383 . S
C766 C765 1.379 . S
H767 C761 0.959 . S
H768 C761 0.961 . S
H769 C761 0.960 . S
H770 C762 0.930 . S
H771 C763 0.929 . S
H772 C780 0.929 . S
H773 C782 0.930 . S
H774 C784 0.930 . S
H775 C787 0.929 . S
H776 C790 0.930 . S
H777 C792 0.960 . S
H778 C792 0.960 . S
H779 C792 0.960 . S
C780 H772 0.929 . S
C780 C781 1.377 . S
C780 C782 1.384 . S
C781 C780 1.377 . S
C781 C787 1.390 . S
C782 H773 0.930 . S
C782 C780 1.384 . S
C782 C783 1.372 . S
C783 C782 1.372 . S
C783 C784 1.400 . S
C783 C788 1.490 . S
C784 H774 0.930 . S
C784 C783 1.400 . S
C784 C787 1.386 . S
H785 C801 0.930 . S
H786 C802 0.931 . S
C787 H775 0.929 . S
C787 C781 1.390 . S
C787 C784 1.386 . S
C788 C783 1.490 . S
C788 C790 1.395 . S
C788 C791 1.403 . S
H789 C795 0.930 . S
C790 H776 0.930 . S
C790 C788 1.395 . S
C790 C793 1.403 . S
C791 C788 1.403 . S
C791 C792 1.524 . S
C791 C795 1.400 . S
C792 H777 0.960 . S
C792 H778 0.960 . S
C792 H779 0.960 . S
C792 C791 1.524 . S
C793 C790 1.403 . S
C793 C794 1.392 . S
C793 C797 1.495 . S
C794 C793 1.392 . S
C794 C795 1.385 . S
C794 C796 1.478 . S
C795 H789 0.930 . S
C795 C791 1.400 . S
C795 C794 1.385 . S
C796 C794 1.478 . S
C796 C798 1.381 . S
C796 C802 1.383 . S
C797 C793 1.495 . S
C797 H803 0.959 . S
C797 H804 0.961 . S
C797 H805 0.960 . S
C798 C796 1.381 . S
C798 C799 1.394 . S
C798 H806 0.930 . S
C799 C798 1.394 . S
C799 C800 1.383 . S
C799 H807 0.929 . S
C800 C799 1.383 . S
C800 C801 1.377 . S
C801 H785 0.930 . S
C801 C800 1.377 . S
C801 C802 1.379 . S
C802 H786 0.931 . S
C802 C796 1.383 . S
C802 C801 1.379 . S
H803 C797 0.959 . S
H804 C797 0.961 . S
H805 C797 0.960 . S
H806 C798 0.930 . S
H807 C799 0.929 . S
H808 C816 0.929 . S
H809 C818 0.930 . S
H810 C820 0.930 . S
H811 C823 0.929 . S
H812 C826 0.930 . S
H813 C828 0.960 . S
H814 C828 0.960 . S
H815 C828 0.960 . S
C816 H808 0.929 . S
C816 C817 1.377 . S
C816 C818 1.384 . S
C817 C816 1.377 . S
C817 C823 1.390 . S
C818 H809 0.930 . S
C818 C816 1.384 . S
C818 C819 1.372 . S
C819 C818 1.372 . S
C819 C820 1.400 . S
C819 C824 1.490 . S
C820 H810 0.930 . S
C820 C819 1.400 . S
C820 C823 1.386 . S
H821 C837 0.930 . S
H822 C838 0.931 . S
C823 H811 0.929 . S
C823 C817 1.390 . S
C823 C820 1.386 . S
C824 C819 1.490 . S
C824 C826 1.395 . S
C824 C827 1.403 . S
H825 C831 0.930 . S
C826 H812 0.930 . S
C826 C824 1.395 . S
C826 C829 1.403 . S
C827 C824 1.403 . S
C827 C828 1.524 . S
C827 C831 1.400 . S
C828 H813 0.960 . S
C828 H814 0.960 . S
C828 H815 0.960 . S
C828 C827 1.524 . S
C829 C826 1.403 . S
C829 C830 1.392 . S
C829 C833 1.495 . S
C830 C829 1.392 . S
C830 C831 1.385 . S
C830 C832 1.478 . S
C831 H825 0.930 . S
C831 C827 1.400 . S
C831 C830 1.385 . S
C832 C830 1.478 . S
C832 C834 1.381 . S
C832 C838 1.383 . S
C833 C829 1.495 . S
C833 H839 0.959 . S
C833 H840 0.961 . S
C833 H841 0.960 . S
C834 C832 1.381 . S
C834 C835 1.394 . S
C834 H842 0.930 . S
C835 C834 1.394 . S
C835 C836 1.383 . S
C835 H843 0.929 . S
C836 C835 1.383 . S
C836 C837 1.377 . S
C837 H821 0.930 . S
C837 C836 1.377 . S
C837 C838 1.379 . S
C838 H822 0.931 . S
C838 C832 1.383 . S
C838 C837 1.379 . S
H839 C833 0.959 . S
H840 C833 0.961 . S
H841 C833 0.960 . S
H842 C834 0.930 . S
H843 C835 0.929 . S
H844 C852 0.929 . S
H845 C854 0.930 . S
H846 C856 0.930 . S
H847 C859 0.929 . S
H848 C862 0.930 . S
H849 C864 0.960 . S
H850 C864 0.960 . S
H851 C864 0.960 . S
C852 H844 0.929 . S
C852 C853 1.377 . S
C852 C854 1.384 . S
C853 C852 1.377 . S
C853 C859 1.390 . S
C854 H845 0.930 . S
C854 C852 1.384 . S
C854 C855 1.372 . S
C855 C854 1.372 . S
C855 C856 1.400 . S
C855 C860 1.490 . S
C856 H846 0.930 . S
C856 C855 1.400 . S
C856 C859 1.386 . S
H857 C873 0.930 . S
H858 C874 0.931 . S
C859 H847 0.929 . S
C859 C853 1.390 . S
C859 C856 1.386 . S
C860 C855 1.490 . S
C860 C862 1.395 . S
C860 C863 1.403 . S
H861 C867 0.930 . S
C862 H848 0.930 . S
C862 C860 1.395 . S
C862 C865 1.403 . S
C863 C860 1.403 . S
C863 C864 1.524 . S
C863 C867 1.400 . S
C864 H849 0.960 . S
C864 H850 0.960 . S
C864 H851 0.960 . S
C864 C863 1.524 . S
C865 C862 1.403 . S
C865 C866 1.392 . S
C865 C869 1.495 . S
C866 C865 1.392 . S
C866 C867 1.385 . S
C866 C868 1.478 . S
C867 H861 0.930 . S
C867 C863 1.400 . S
C867 C866 1.385 . S
C868 C866 1.478 . S
C868 C870 1.381 . S
C868 C874 1.383 . S
C869 C865 1.495 . S
C869 H875 0.959 . S
C869 H876 0.961 . S
C869 H877 0.960 . S
C870 C868 1.381 . S
C870 C871 1.394 . S
C870 H878 0.930 . S
C871 C870 1.394 . S
C871 C872 1.383 . S
C871 H879 0.929 . S
C872 C871 1.383 . S
C872 C873 1.377 . S
C873 H857 0.930 . S
C873 C872 1.377 . S
C873 C874 1.379 . S
C874 H858 0.931 . S
C874 C868 1.383 . S
C874 C873 1.379 . S
H875 C869 0.959 . S
H876 C869 0.961 . S
H877 C869 0.960 . S
H878 C870 0.930 . S
H879 C871 0.929 . S
H880 C888 0.929 . S
H881 C890 0.930 . S
H882 C892 0.930 . S
H883 C895 0.929 . S
H884 C898 0.930 . S
H885 C900 0.960 . S
H886 C900 0.981 . S
H887 C900 0.960 . S
C888 H880 0.929 . S
C888 C889 1.377 1_545 S
C888 C890 1.384 . S
C889 C888 1.377 1_565 S
C889 C895 1.390 . S
C890 H881 0.930 . S
C890 C888 1.384 . S
C890 C891 1.372 1_545 S
C891 C890 1.372 1_565 S
C891 C892 1.400 . S
C891 C896 1.490 1_565 S
C892 H882 0.930 . S
C892 C891 1.400 . S
C892 C895 1.386 . S
H893 C909 0.930 . S
H894 C910 0.931 . S
C895 H883 0.929 . S
C895 C889 1.390 . S
C895 C892 1.386 . S
C896 C891 1.490 1_545 S
C896 C898 1.393 . S
C896 C899 1.404 1_545 S
H897 C903 0.930 . S
C898 H884 0.930 . S
C898 C896 1.393 . S
C898 C901 1.403 . S
C899 C896 1.404 1_565 S
C899 C900 1.524 . S
C899 C903 1.400 . S
C900 H885 0.960 . S
C900 H886 0.981 . S
C900 H887 0.960 . S
C900 C899 1.524 . S
C901 C898 1.403 . S
C901 C902 1.392 . S
C901 C905 1.495 . S
C902 C901 1.392 . S
C902 C903 1.385 1_545 S
C902 C904 1.478 . S
C903 H897 0.930 . S
C903 C899 1.400 . S
C903 C902 1.385 1_565 S
C904 C902 1.478 . S
C904 C906 1.381 . S
C904 C910 1.383 1_545 S
C905 C901 1.495 . S
C905 H911 0.959 . S
C905 H912 0.961 . S
C905 H913 0.960 . S
C906 C904 1.381 . S
C906 C907 1.394 . S
C906 H914 0.930 . S
C907 C906 1.394 . S
C907 C908 1.383 . S
C907 H915 0.929 . S
C908 C907 1.383 . S
C908 C909 1.377 1_545 S
C909 H893 0.930 . S
C909 C908 1.377 1_565 S
C909 C910 1.379 . S
C910 H894 0.931 . S
C910 C904 1.383 1_565 S
C910 C909 1.379 . S
H911 C905 0.959 . S
H912 C905 0.961 . S
H913 C905 0.960 . S
H914 C906 0.930 . S
H915 C907 0.929 . S
H916 C924 0.929 . S
H917 C926 0.930 . S
H918 C928 0.957 . S
H919 C931 0.934 . S
H920 C934 0.930 . S
H921 C936 0.960 . S
H922 C936 0.960 . S
H923 C936 0.960 . S
C924 H916 0.929 . S
C924 C925 1.377 . S
C924 C926 1.384 . S
C925 C924 1.377 . S
C925 C931 1.384 1_565 S
C926 H917 0.930 . S
C926 C924 1.384 . S
C926 C927 1.372 . S
C927 C926 1.372 . S
C927 C928 1.383 1_565 S
C927 C932 1.498 . S
C928 H918 0.957 . S
C928 C927 1.383 1_545 S
C928 C931 1.384 . S
H929 C945 0.930 . S
H930 C946 0.931 . S
C931 H919 0.934 . S
C931 C925 1.384 1_545 S
C931 C928 1.384 . S
C932 C927 1.498 . S
C932 C934 1.348 1_565 S
C932 C935 1.445 . S
H933 C939 0.930 . S
C934 H920 0.930 . S
C934 C932 1.348 1_545 S
C934 C937 1.403 1_655 S
C935 C932 1.445 . S
C935 C936 1.524 . S
C935 C939 1.400 1_655 S
C936 H921 0.960 . S
C936 H922 0.960 . S
C936 H923 0.960 . S
C936 C935 1.524 . S
C937 C934 1.403 1_455 S
C937 C938 1.392 . S
C937 C941 1.495 . S
C938 C937 1.392 . S
C938 C939 1.385 1_545 S
C938 C940 1.478 . S
C939 H933 0.930 . S
C939 C935 1.400 1_455 S
C939 C938 1.385 1_565 S
C940 C938 1.478 . S
C940 C942 1.356 1_545 S
C940 C946 1.383 . S
C941 C937 1.495 . S
C941 H947 0.959 1_554 S
C941 H948 0.961 . S
C941 H949 0.960 1_554 S
C942 C940 1.356 1_565 S
C942 C943 1.394 . S
C942 H950 0.962 . S
C943 C942 1.394 . S
C943 C944 1.361 1_565 S
C943 H951 0.954 . S
C944 C943 1.361 1_545 S
C944 C945 1.377 . S
C945 H929 0.930 . S
C945 C944 1.377 . S
C945 C946 1.379 . S
C946 H930 0.931 . S
C946 C940 1.383 . S
C946 C945 1.379 . S
H947 C941 0.959 1_556 S
H948 C941 0.961 . S
H949 C941 0.960 1_556 S
H950 C942 0.962 . S
H951 C943 0.954 . S
H952 C960 0.929 . S
H953 C962 0.930 . S
H954 C964 0.930 . S
H955 C967 0.929 . S
H956 C970 0.930 . S
H957 C972 0.960 . S
H958 C972 0.960 . S
H959 C972 0.960 . S
C960 H952 0.929 . S
C960 C961 1.377 1_545 S
C960 C962 1.384 . S
C961 C960 1.377 1_565 S
C961 C967 1.390 . S
C962 H953 0.930 . S
C962 C960 1.384 . S
C962 C963 1.372 1_545 S
C963 C962 1.372 1_565 S
C963 C964 1.400 . S
C963 C968 1.491 . S
C964 H954 0.930 . S
C964 C963 1.400 . S
C964 C967 1.386 . S
H965 C981 0.912 1_565 S
H966 C982 0.913 1_565 S
C967 H955 0.929 . S
C967 C961 1.390 . S
C967 C964 1.386 . S
C968 C963 1.491 . S
C968 C970 1.386 1_565 S
C968 C971 1.410 . S
H969 C975 0.930 . S
C970 H956 0.930 . S
C970 C968 1.386 1_545 S
C970 C973 1.403 . S
C971 C968 1.410 . S
C971 C972 1.524 . S
C971 C975 1.400 . S
C972 H957 0.960 . S
C972 H958 0.960 . S
C972 H959 0.960 . S
C972 C971 1.524 . S
C973 C970 1.403 . S
C973 C974 1.392 . S
C973 C977 1.495 . S
C974 C973 1.392 . S
C974 C975 1.385 1_545 S
C974 C976 1.478 . S
C975 H969 0.930 . S
C975 C971 1.400 . S
C975 C974 1.385 1_565 S
C976 C974 1.478 . S
C976 C978 1.381 . S
C976 C982 1.406 . S
C977 C973 1.495 . S
C977 H983 0.959 . S
C977 H984 0.961 . S
C977 H985 0.960 . S
C978 C976 1.381 . S
C978 C979 1.394 . S
C978 H986 0.930 . S
C979 C978 1.394 . S
C979 C980 1.383 . S
C979 H987 0.929 . S
C980 C979 1.383 . S
C980 C981 1.398 . S
C981 H965 0.912 1_545 S
C981 C980 1.398 . S
C981 C982 1.379 . S
C982 H966 0.913 1_545 S
C982 C976 1.406 . S
C982 C981 1.379 . S
H983 C977 0.959 . S
H984 C977 0.961 . S
H985 C977 0.960 . S
H986 C978 0.930 . S
H987 C979 0.929 . S
H988 C996 0.929 . S
H989 C998 0.930 . S
H990 C1000 0.930 . S
H991 C1003 0.929 . S
H992 C1006 0.930 . S
H993 C1008 0.960 . S
H994 C1008 0.960 . S
H995 C1008 0.960 . S
C996 H988 0.929 . S
C996 C997 1.377 . S
C996 C998 1.384 . S
C997 C996 1.377 . S
C997 C1003 1.390 1_565 S
C998 H989 0.930 . S
C998 C996 1.384 . S
C998 C999 1.372 . S
C999 C998 1.372 . S
C999 C1000 1.400 1_565 S
C999 C1004 1.490 . S
C1000 H990 0.930 . S
C1000 C999 1.400 1_545 S
C1000 C1003 1.386 . S
H1001 C1017 0.930 . S
H1002 C1018 0.931 . S
C1003 H991 0.929 . S
C1003 C997 1.390 1_545 S
C1003 C1000 1.386 . S
C1004 C999 1.490 . S
C1004 C1006 1.395 . S
C1004 C1007 1.403 1_565 S
H1005 C1011 0.930 . S
C1006 H992 0.930 . S
C1006 C1004 1.395 . S
C1006 C1009 1.403 1_455 S
C1007 C1004 1.403 1_545 S
C1007 C1008 1.524 . S
C1007 C1011 1.400 1_455 S
C1008 H993 0.960 . S
C1008 H994 0.960 . S
C1008 H995 0.960 . S
C1008 C1007 1.524 . S
C1009 C1006 1.403 1_655 S
C1009 C1010 1.392 . S
C1009 C1013 1.495 . S
C1010 C1009 1.392 . S
C1010 C1011 1.385 1_565 S
C1010 C1012 1.482 . S
C1011 H1005 0.930 . S
C1011 C1007 1.400 1_655 S
C1011 C1010 1.385 1_545 S
C1012 C1010 1.482 . S
C1012 C1014 1.415 . S
C1012 C1018 1.343 1_565 S
C1013 C1009 1.495 . S
C1013 H1019 0.959 . S
C1013 H1020 0.961 . S
C1013 H1021 0.960 . S
C1014 C1012 1.415 . S
C1014 C1015 1.394 . S
C1014 H1022 0.930 . S
C1015 C1014 1.394 . S
C1015 C1016 1.383 1_565 S
C1015 H1023 0.929 . S
C1016 C1015 1.383 1_545 S
C1016 C1017 1.377 . S
C1017 H1001 0.930 . S
C1017 C1016 1.377 . S
C1017 C1018 1.379 . S
C1018 H1002 0.931 . S
C1018 C1012 1.343 1_545 S
C1018 C1017 1.379 . S
H1019 C1013 0.959 . S
H1020 C1013 0.961 . S
H1021 C1013 0.960 . S
H1022 C1014 0.930 . S
H1023 C1015 0.929 . S
H1024 C1032 0.929 . S
H1025 C1034 0.930 . S
H1026 C1036 0.930 . S
H1027 C1039 0.929 . S
H1028 C1042 0.930 . S
H1029 C1044 0.960 . S
H1030 C1044 0.960 . S
H1031 C1044 0.960 . S
C1032 H1024 0.929 . S
C1032 C1033 1.377 . S
C1032 C1034 1.384 . S
C1033 C1032 1.377 . S
C1033 C1039 1.390 . S
C1034 H1025 0.930 . S
C1034 C1032 1.384 . S
C1034 C1035 1.372 . S
C1035 C1034 1.372 . S
C1035 C1036 1.400 . S
C1035 C1040 1.490 . S
C1036 H1026 0.930 . S
C1036 C1035 1.400 . S
C1036 C1039 1.386 . S
H1037 C1053 0.930 . S
H1038 C1054 0.931 . S
C1039 H1027 0.929 . S
C1039 C1033 1.390 . S
C1039 C1036 1.386 . S
C1040 C1035 1.490 . S
C1040 C1042 1.395 . S
C1040 C1043 1.403 . S
H1041 C1047 0.930 . S
C1042 H1028 0.930 . S
C1042 C1040 1.395 . S
C1042 C1045 1.403 . S
C1043 C1040 1.403 . S
C1043 C1044 1.524 . S
C1043 C1047 1.400 . S
C1044 H1029 0.960 . S
C1044 H1030 0.960 . S
C1044 H1031 0.960 . S
C1044 C1043 1.524 . S
C1045 C1042 1.403 . S
C1045 C1046 1.392 . S
C1045 C1049 1.495 . S
C1046 C1045 1.392 . S
C1046 C1047 1.385 . S
C1046 C1048 1.478 . S
C1047 H1041 0.930 . S
C1047 C1043 1.400 . S
C1047 C1046 1.385 . S
C1048 C1046 1.478 . S
C1048 C1050 1.381 . S
C1048 C1054 1.383 . S
C1049 C1045 1.495 . S
C1049 H1055 0.959 . S
C1049 H1056 0.961 . S
C1049 H1057 0.960 . S
C1050 C1048 1.381 . S
C1050 C1051 1.394 . S
C1050 H1058 0.930 . S
C1051 C1050 1.394 . S
C1051 C1052 1.383 . S
C1051 H1059 0.929 . S
C1052 C1051 1.383 . S
C1052 C1053 1.377 . S
C1053 H1037 0.930 . S
C1053 C1052 1.377 . S
C1053 C1054 1.379 . S
C1054 H1038 0.931 . S
C1054 C1048 1.383 . S
C1054 C1053 1.379 . S
H1055 C1049 0.959 . S
H1056 C1049 0.961 . S
H1057 C1049 0.960 . S
H1058 C1050 0.930 . S
H1059 C1051 0.929 . S
H1060 C1068 0.929 . S
H1061 C1070 0.930 . S
H1062 C1072 0.930 . S
H1063 C1075 0.929 . S
H1064 C1078 0.930 . S
H1065 C1080 0.960 . S
H1066 C1080 0.960 . S
H1067 C1080 0.960 . S
C1068 H1060 0.929 . S
C1068 C1069 1.377 . S
C1068 C1070 1.384 . S
C1069 C1068 1.377 . S
C1069 C1075 1.390 . S
C1070 H1061 0.930 . S
C1070 C1068 1.384 . S
C1070 C1071 1.372 . S
C1071 C1070 1.372 . S
C1071 C1072 1.400 . S
C1071 C1076 1.490 1_556 S
C1072 H1062 0.930 . S
C1072 C1071 1.400 . S
C1072 C1075 1.386 . S
H1073 C1089 0.930 . S
H1074 C1090 0.931 . S
C1075 H1063 0.929 . S
C1075 C1069 1.390 . S
C1075 C1072 1.386 . S
C1076 C1071 1.490 1_554 S
C1076 C1078 1.395 . S
C1076 C1079 1.403 . S
H1077 C1083 0.930 . S
C1078 H1064 0.930 . S
C1078 C1076 1.395 . S
C1078 C1081 1.403 . S
C1079 C1076 1.403 . S
C1079 C1080 1.524 . S
C1079 C1083 1.400 . S
C1080 H1065 0.960 . S
C1080 H1066 0.960 . S
C1080 H1067 0.960 . S
C1080 C1079 1.524 . S
C1081 C1078 1.403 . S
C1081 C1082 1.392 . S
C1081 C1085 1.495 . S
C1082 C1081 1.392 . S
C1082 C1083 1.385 . S
C1082 C1084 1.478 . S
C1083 H1077 0.930 . S
C1083 C1079 1.400 . S
C1083 C1082 1.385 . S
C1084 C1082 1.478 . S
C1084 C1086 1.381 . S
C1084 C1090 1.383 . S
C1085 C1081 1.495 . S
C1085 H1091 0.959 . S
C1085 H1092 0.961 . S
C1085 H1093 0.960 . S
C1086 C1084 1.381 . S
C1086 C1087 1.394 . S
C1086 H1094 0.930 . S
C1087 C1086 1.394 . S
C1087 C1088 1.383 . S
C1087 H1095 0.929 . S
C1088 C1087 1.383 . S
C1088 C1089 1.377 . S
C1089 H1073 0.930 . S
C1089 C1088 1.377 . S
C1089 C1090 1.379 . S
C1090 H1074 0.931 . S
C1090 C1084 1.383 . S
C1090 C1089 1.379 . S
H1091 C1085 0.959 . S
H1092 C1085 0.961 . S
H1093 C1085 0.960 . S
H1094 C1086 0.930 . S
H1095 C1087 0.929 . S
H1096 C1104 0.929 . S
H1097 C1106 0.930 . S
H1098 C1108 0.930 . S
H1099 C1111 0.929 . S
H1100 C1114 0.930 . S
H1101 C1116 0.960 . S
H1102 C1116 0.960 . S
H1103 C1116 0.960 . S
C1104 H1096 0.929 . S
C1104 C1105 1.377 . S
C1104 C1106 1.384 . S
C1105 C1104 1.377 . S
C1105 C1111 1.390 . S
C1106 H1097 0.930 . S
C1106 C1104 1.384 . S
C1106 C1107 1.372 . S
C1107 C1106 1.372 . S
C1107 C1108 1.400 . S
C1107 C1112 1.490 . S
C1108 H1098 0.930 . S
C1108 C1107 1.400 . S
C1108 C1111 1.386 . S
H1109 C1125 0.930 . S
H1110 C1126 0.931 . S
C1111 H1099 0.929 . S
C1111 C1105 1.390 . S
C1111 C1108 1.386 . S
C1112 C1107 1.490 . S
C1112 C1114 1.395 . S
C1112 C1115 1.403 . S
H1113 C1119 0.930 . S
C1114 H1100 0.930 . S
C1114 C1112 1.395 . S
C1114 C1117 1.403 . S
C1115 C1112 1.403 . S
C1115 C1116 1.524 . S
C1115 C1119 1.400 . S
C1116 H1101 0.960 . S
C1116 H1102 0.960 . S
C1116 H1103 0.960 . S
C1116 C1115 1.524 . S
C1117 C1114 1.403 . S
C1117 C1118 1.392 . S
C1117 C1121 1.495 . S
C1118 C1117 1.392 . S
C1118 C1119 1.385 . S
C1118 C1120 1.478 . S
C1119 H1113 0.930 . S
C1119 C1115 1.400 . S
C1119 C1118 1.385 . S
C1120 C1118 1.478 . S
C1120 C1122 1.381 . S
C1120 C1126 1.383 . S
C1121 C1117 1.495 . S
C1121 H1127 0.959 . S
C1121 H1128 0.961 . S
C1121 H1129 0.960 . S
C1122 C1120 1.381 . S
C1122 C1123 1.394 . S
C1122 H1130 0.930 . S
C1123 C1122 1.394 . S
C1123 C1124 1.383 . S
C1123 H1131 0.929 . S
C1124 C1123 1.383 . S
C1124 C1125 1.377 . S
C1125 H1109 0.930 . S
C1125 C1124 1.377 . S
C1125 C1126 1.379 . S
C1126 H1110 0.931 . S
C1126 C1120 1.383 . S
C1126 C1125 1.379 . S
H1127 C1121 0.959 . S
H1128 C1121 0.961 . S
H1129 C1121 0.960 . S
H1130 C1122 0.930 . S
H1131 C1123 0.929 . S
H1132 C1140 0.929 . S
H1133 C1142 0.930 . S
H1134 C1144 0.930 . S
H1135 C1147 0.929 . S
H1136 C1150 0.930 . S
H1137 C1152 0.960 . S
H1138 C1152 0.960 . S
H1139 C1152 0.960 . S
C1140 H1132 0.929 . S
C1140 C1141 1.377 . S
C1140 C1142 1.384 . S
C1141 C1140 1.377 . S
C1141 C1147 1.390 . S
C1142 H1133 0.930 . S
C1142 C1140 1.384 . S
C1142 C1143 1.372 . S
C1143 C1142 1.372 . S
C1143 C1144 1.400 . S
C1143 C1148 1.490 . S
C1144 H1134 0.930 . S
C1144 C1143 1.400 . S
C1144 C1147 1.386 . S
H1145 C1161 0.930 . S
H1146 C1162 0.931 . S
C1147 H1135 0.929 . S
C1147 C1141 1.390 . S
C1147 C1144 1.386 . S
C1148 C1143 1.490 . S
C1148 C1150 1.395 . S
C1148 C1151 1.403 . S
H1149 C1155 0.930 . S
C1150 H1136 0.930 . S
C1150 C1148 1.395 . S
C1150 C1153 1.403 . S
C1151 C1148 1.403 . S
C1151 C1152 1.524 . S
C1151 C1155 1.400 . S
C1152 H1137 0.960 . S
C1152 H1138 0.960 . S
C1152 H1139 0.960 . S
C1152 C1151 1.524 . S
C1153 C1150 1.403 . S
C1153 C1154 1.392 . S
C1153 C1157 1.495 . S
C1154 C1153 1.392 . S
C1154 C1155 1.385 . S
C1154 C1156 1.478 . S
C1155 H1149 0.930 . S
C1155 C1151 1.400 . S
C1155 C1154 1.385 . S
C1156 C1154 1.478 . S
C1156 C1158 1.381 . S
C1156 C1162 1.383 . S
C1157 C1153 1.495 . S
C1157 H1163 0.959 . S
C1157 H1164 0.961 . S
C1157 H1165 0.960 . S
C1158 C1156 1.381 . S
C1158 C1159 1.394 . S
C1158 H1166 0.930 . S
C1159 C1158 1.394 . S
C1159 C1160 1.383 . S
C1159 H1167 0.929 . S
C1160 C1159 1.383 . S
C1160 C1161 1.377 . S
C1161 H1145 0.930 . S
C1161 C1160 1.377 . S
C1161 C1162 1.379 . S
C1162 H1146 0.931 . S
C1162 C1156 1.383 . S
C1162 C1161 1.379 . S
H1163 C1157 0.959 . S
H1164 C1157 0.961 . S
H1165 C1157 0.960 . S
H1166 C1158 0.930 . S
H1167 C1159 0.929 . S
H1168 C1176 0.929 . S
H1169 C1178 0.930 . S
H1170 C1180 0.930 . S
H1171 C1183 0.929 . S
H1172 C1186 0.930 . S
H1173 C1188 0.960 . S
H1174 C1188 0.960 . S
H1175 C1188 0.960 . S
C1176 H1168 0.929 . S
C1176 C1177 1.377 . S
C1176 C1178 1.384 . S
C1177 C1176 1.377 . S
C1177 C1183 1.390 . S
C1178 H1169 0.930 . S
C1178 C1176 1.384 . S
C1178 C1179 1.372 . S
C1179 C1178 1.372 . S
C1179 C1180 1.400 . S
C1179 C1184 1.490 . S
C1180 H1170 0.930 . S
C1180 C1179 1.400 . S
C1180 C1183 1.386 . S
H1181 C1197 0.930 . S
H1182 C1198 0.931 . S
C1183 H1171 0.929 . S
C1183 C1177 1.390 . S
C1183 C1180 1.386 . S
C1184 C1179 1.490 . S
C1184 C1186 1.395 . S
C1184 C1187 1.403 . S
H1185 C1191 0.930 . S
C1186 H1172 0.930 . S
C1186 C1184 1.395 . S
C1186 C1189 1.403 . S
C1187 C1184 1.403 . S
C1187 C1188 1.524 . S
C1187 C1191 1.400 . S
C1188 H1173 0.960 . S
C1188 H1174 0.960 . S
C1188 H1175 0.960 . S
C1188 C1187 1.524 . S
C1189 C1186 1.403 . S
C1189 C1190 1.392 . S
C1189 C1193 1.495 . S
C1190 C1189 1.392 . S
C1190 C1191 1.385 . S
C1190 C1192 1.478 . S
C1191 H1185 0.930 . S
C1191 C1187 1.400 . S
C1191 C1190 1.385 . S
C1192 C1190 1.478 . S
C1192 C1194 1.381 . S
C1192 C1198 1.383 . S
C1193 C1189 1.495 . S
C1193 H1199 0.959 . S
C1193 H1200 0.961 . S
C1193 H1201 0.960 . S
C1194 C1192 1.381 . S
C1194 C1195 1.394 . S
C1194 H1202 0.930 . S
C1195 C1194 1.394 . S
C1195 C1196 1.383 . S
C1195 H1203 0.929 . S
C1196 C1195 1.383 . S
C1196 C1197 1.377 . S
C1197 H1181 0.930 . S
C1197 C1196 1.377 . S
C1197 C1198 1.379 . S
C1198 H1182 0.931 . S
C1198 C1192 1.383 . S
C1198 C1197 1.379 . S
H1199 C1193 0.959 . S
H1200 C1193 0.961 . S
H1201 C1193 0.960 . S
H1202 C1194 0.930 . S
H1203 C1195 0.929 . S
H1204 C1212 0.929 . S
H1205 C1214 0.930 . S
H1206 C1216 0.930 . S
H1207 C1219 0.929 . S
H1208 C1222 0.930 . S
H1209 C1224 0.960 . S
H1210 C1224 0.960 . S
H1211 C1224 0.960 . S
C1212 H1204 0.929 . S
C1212 C1213 1.377 . S
C1212 C1214 1.384 . S
C1213 C1212 1.377 . S
C1213 C1219 1.390 . S
C1214 H1205 0.930 . S
C1214 C1212 1.384 . S
C1214 C1215 1.372 . S
C1215 C1214 1.372 . S
C1215 C1216 1.400 . S
C1215 C1220 1.490 1_556 S
C1216 H1206 0.930 . S
C1216 C1215 1.400 . S
C1216 C1219 1.386 . S
H1217 C1233 0.930 . S
H1218 C1234 0.931 . S
C1219 H1207 0.929 . S
C1219 C1213 1.390 . S
C1219 C1216 1.386 . S
C1220 C1215 1.490 1_554 S
C1220 C1222 1.395 . S
C1220 C1223 1.403 . S
H1221 C1227 0.930 . S
C1222 H1208 0.930 . S
C1222 C1220 1.395 . S
C1222 C1225 1.403 . S
C1223 C1220 1.403 . S
C1223 C1224 1.524 . S
C1223 C1227 1.400 . S
C1224 H1209 0.960 . S
C1224 H1210 0.960 . S
C1224 H1211 0.960 . S
C1224 C1223 1.524 . S
C1225 C1222 1.403 . S
C1225 C1226 1.392 . S
C1225 C1229 1.495 . S
C1226 C1225 1.392 . S
C1226 C1227 1.385 . S
C1226 C1228 1.478 . S
C1227 H1221 0.930 . S
C1227 C1223 1.400 . S
C1227 C1226 1.385 . S
C1228 C1226 1.478 . S
C1228 C1230 1.381 . S
C1228 C1234 1.383 . S
C1229 C1225 1.495 . S
C1229 H1235 0.959 . S
C1229 H1236 0.961 . S
C1229 H1237 0.960 . S
C1230 C1228 1.381 . S
C1230 C1231 1.394 . S
C1230 H1238 0.930 . S
C1231 C1230 1.394 . S
C1231 C1232 1.383 . S
C1231 H1239 0.929 . S
C1232 C1231 1.383 . S
C1232 C1233 1.377 . S
C1233 H1217 0.930 . S
C1233 C1232 1.377 . S
C1233 C1234 1.379 . S
C1234 H1218 0.931 . S
C1234 C1228 1.383 . S
C1234 C1233 1.379 . S
H1235 C1229 0.959 . S
H1236 C1229 0.961 . S
H1237 C1229 0.960 . S
H1238 C1230 0.930 . S
H1239 C1231 0.929 . S
H1240 C1248 0.929 . S
H1241 C1250 0.930 . S
H1242 C1252 0.930 . S
H1243 C1255 0.929 . S
H1244 C1258 0.930 . S
H1245 C1260 0.960 . S
H1246 C1260 0.960 . S
H1247 C1260 0.960 . S
C1248 H1240 0.929 . S
C1248 C1249 1.377 . S
C1248 C1250 1.384 . S
C1249 C1248 1.377 . S
C1249 C1255 1.390 . S
C1250 H1241 0.930 . S
C1250 C1248 1.384 . S
C1250 C1251 1.372 . S
C1251 C1250 1.372 . S
C1251 C1252 1.400 . S
C1251 C1256 1.490 . S
C1252 H1242 0.930 . S
C1252 C1251 1.400 . S
C1252 C1255 1.386 . S
H1253 C1269 0.930 . S
H1254 C1270 0.931 . S
C1255 H1243 0.929 . S
C1255 C1249 1.390 . S
C1255 C1252 1.386 . S
C1256 C1251 1.490 . S
C1256 C1258 1.395 . S
C1256 C1259 1.403 . S
H1257 C1263 0.930 . S
C1258 H1244 0.930 . S
C1258 C1256 1.395 . S
C1258 C1261 1.403 . S
C1259 C1256 1.403 . S
C1259 C1260 1.524 . S
C1259 C1263 1.400 . S
C1260 H1245 0.960 . S
C1260 H1246 0.960 . S
C1260 H1247 0.960 . S
C1260 C1259 1.524 . S
C1261 C1258 1.403 . S
C1261 C1262 1.392 . S
C1261 C1265 1.495 . S
C1262 C1261 1.392 . S
C1262 C1263 1.385 . S
C1262 C1264 1.478 . S
C1263 H1257 0.930 . S
C1263 C1259 1.400 . S
C1263 C1262 1.385 . S
C1264 C1262 1.478 . S
C1264 C1266 1.381 . S
C1264 C1270 1.383 . S
C1265 C1261 1.495 . S
C1265 H1271 0.959 . S
C1265 H1272 0.961 . S
C1265 H1273 0.960 . S
C1266 C1264 1.381 . S
C1266 C1267 1.394 . S
C1266 H1274 0.930 . S
C1267 C1266 1.394 . S
C1267 C1268 1.383 . S
C1267 H1275 0.929 . S
C1268 C1267 1.383 . S
C1268 C1269 1.377 . S
C1269 H1253 0.930 . S
C1269 C1268 1.377 . S
C1269 C1270 1.379 . S
C1270 H1254 0.931 . S
C1270 C1264 1.383 . S
C1270 C1269 1.379 . S
H1271 C1265 0.959 . S
H1272 C1265 0.961 . S
H1273 C1265 0.960 . S
H1274 C1266 0.930 . S
H1275 C1267 0.929 . S
H1276 C1284 0.929 . S
H1277 C1286 0.930 . S
H1278 C1288 0.930 . S
H1279 C1291 0.929 . S
H1280 C1294 0.930 . S
H1281 C1296 0.960 . S
H1282 C1296 0.960 . S
H1283 C1296 0.960 . S
C1284 H1276 0.929 . S
C1284 C1285 1.377 . S
C1284 C1286 1.384 . S
C1285 C1284 1.377 . S
C1285 C1291 1.390 . S
C1286 H1277 0.930 . S
C1286 C1284 1.384 . S
C1286 C1287 1.372 . S
C1287 C1286 1.372 . S
C1287 C1288 1.400 . S
C1287 C1292 1.490 . S
C1288 H1278 0.930 . S
C1288 C1287 1.400 . S
C1288 C1291 1.386 . S
H1289 C1305 0.930 . S
H1290 C1306 0.931 . S
C1291 H1279 0.929 . S
C1291 C1285 1.390 . S
C1291 C1288 1.386 . S
C1292 C1287 1.490 . S
C1292 C1294 1.395 . S
C1292 C1295 1.403 . S
H1293 C1299 0.930 . S
C1294 H1280 0.930 . S
C1294 C1292 1.395 . S
C1294 C1297 1.403 . S
C1295 C1292 1.403 . S
C1295 C1296 1.524 . S
C1295 C1299 1.400 . S
C1296 H1281 0.960 . S
C1296 H1282 0.960 . S
C1296 H1283 0.960 . S
C1296 C1295 1.524 . S
C1297 C1294 1.403 . S
C1297 C1298 1.392 . S
C1297 C1301 1.495 . S
C1298 C1297 1.392 . S
C1298 C1299 1.385 . S
C1298 C1300 1.478 . S
C1299 H1293 0.930 . S
C1299 C1295 1.400 . S
C1299 C1298 1.385 . S
C1300 C1298 1.478 . S
C1300 C1302 1.381 . S
C1300 C1306 1.383 . S
C1301 C1297 1.495 . S
C1301 H1307 0.959 . S
C1301 H1308 0.961 . S
C1301 H1309 0.960 . S
C1302 C1300 1.381 . S
C1302 C1303 1.394 . S
C1302 H1310 0.930 . S
C1303 C1302 1.394 . S
C1303 C1304 1.383 . S
C1303 H1311 0.929 . S
C1304 C1303 1.383 . S
C1304 C1305 1.377 . S
C1305 H1289 0.930 . S
C1305 C1304 1.377 . S
C1305 C1306 1.379 . S
C1306 H1290 0.931 . S
C1306 C1300 1.383 . S
C1306 C1305 1.379 . S
H1307 C1301 0.959 . S
H1308 C1301 0.961 . S
H1309 C1301 0.960 . S
H1310 C1302 0.930 . S
H1311 C1303 0.929 . S
H1312 C1320 0.929 . S
H1313 C1322 0.930 1_565 S
H1314 C1324 0.930 . S
H1315 C1327 0.929 . S
H1316 C1330 0.930 . S
H1317 C1332 0.960 . S
H1318 C1332 0.960 . S
H1319 C1332 0.960 . S
C1320 H1312 0.929 . S
C1320 C1321 1.377 . S
C1320 C1322 1.384 . S
C1321 C1320 1.377 . S
C1321 C1327 1.390 . S
C1322 H1313 0.930 1_545 S
C1322 C1320 1.384 . S
C1322 C1323 1.372 . S
C1323 C1322 1.372 . S
C1323 C1324 1.400 . S
C1323 C1328 1.490 . S
C1324 H1314 0.930 . S
C1324 C1323 1.400 . S
C1324 C1327 1.386 . S
H1325 C1341 0.930 . S
H1326 C1342 0.931 . S
C1327 H1315 0.929 . S
C1327 C1321 1.390 . S
C1327 C1324 1.386 . S
C1328 C1323 1.490 . S
C1328 C1330 1.395 1_545 S
C1328 C1331 1.403 . S
H1329 C1335 0.930 . S
C1330 H1316 0.930 . S
C1330 C1328 1.395 1_565 S
C1330 C1333 1.403 . S
C1331 C1328 1.403 . S
C1331 C1332 1.524 . S
C1331 C1335 1.400 . S
C1332 H1317 0.960 . S
C1332 H1318 0.960 . S
C1332 H1319 0.960 . S
C1332 C1331 1.524 . S
C1333 C1330 1.403 . S
C1333 C1334 1.392 . S
C1333 C1337 1.495 . S
C1334 C1333 1.392 . S
C1334 C1335 1.385 1_565 S
C1334 C1336 1.478 . S
C1335 H1329 0.930 . S
C1335 C1331 1.400 . S
C1335 C1334 1.385 1_545 S
C1336 C1334 1.478 . S
C1336 C1338 1.381 . S
C1336 C1342 1.383 . S
C1337 C1333 1.495 . S
C1337 H1343 0.959 . S
C1337 H1344 0.961 . S
C1337 H1345 0.960 . S
C1338 C1336 1.381 . S
C1338 C1339 1.394 . S
C1338 H1346 0.930 . S
C1339 C1338 1.394 . S
C1339 C1340 1.383 . S
C1339 H1347 0.929 . S
C1340 C1339 1.383 . S
C1340 C1341 1.377 . S
C1341 H1325 0.930 . S
C1341 C1340 1.377 . S
C1341 C1342 1.379 . S
C1342 H1326 0.931 . S
C1342 C1336 1.383 . S
C1342 C1341 1.379 . S
H1343 C1337 0.959 . S
H1344 C1337 0.961 . S
H1345 C1337 0.960 . S
H1346 C1338 0.930 . S
H1347 C1339 0.929 . S
H1348 C1356 0.929 . S
H1349 C1358 0.930 . S
H1350 C1360 0.930 . S
H1351 C1363 0.929 . S
H1352 C1366 0.930 . S
H1353 C1368 0.960 . S
H1354 C1368 0.960 . S
H1355 C1368 0.960 . S
C1356 H1348 0.929 . S
C1356 C1357 1.377 . S
C1356 C1358 1.384 . S
C1357 C1356 1.377 . S
C1357 C1363 1.390 . S
C1358 H1349 0.930 . S
C1358 C1356 1.384 . S
C1358 C1359 1.372 . S
C1359 C1358 1.372 . S
C1359 C1360 1.400 . S
C1359 C1364 1.490 . S
C1360 H1350 0.930 . S
C1360 C1359 1.400 . S
C1360 C1363 1.386 . S
H1361 C1377 0.930 . S
H1362 C1378 0.931 . S
C1363 H1351 0.929 . S
C1363 C1357 1.390 . S
C1363 C1360 1.386 . S
C1364 C1359 1.490 . S
C1364 C1366 1.395 . S
C1364 C1367 1.403 . S
H1365 C1371 0.930 . S
C1366 H1352 0.930 . S
C1366 C1364 1.395 . S
C1366 C1369 1.403 . S
C1367 C1364 1.403 . S
C1367 C1368 1.524 . S
C1367 C1371 1.400 . S
C1368 H1353 0.960 . S
C1368 H1354 0.960 . S
C1368 H1355 0.960 . S
C1368 C1367 1.524 . S
C1369 C1366 1.403 . S
C1369 C1370 1.392 . S
C1369 C1373 1.495 . S
C1370 C1369 1.392 . S
C1370 C1371 1.385 . S
C1370 C1372 1.478 . S
C1371 H1365 0.930 . S
C1371 C1367 1.400 . S
C1371 C1370 1.385 . S
C1372 C1370 1.478 . S
C1372 C1374 1.381 . S
C1372 C1378 1.383 . S
C1373 C1369 1.495 . S
C1373 H1379 0.959 . S
C1373 H1380 0.961 . S
C1373 H1381 0.960 . S
C1374 C1372 1.381 . S
C1374 C1375 1.394 . S
C1374 H1382 0.930 . S
C1375 C1374 1.394 . S
C1375 C1376 1.383 . S
C1375 H1383 0.929 . S
C1376 C1375 1.383 . S
C1376 C1377 1.377 . S
C1377 H1361 0.930 . S
C1377 C1376 1.377 . S
C1377 C1378 1.379 . S
C1378 H1362 0.931 . S
C1378 C1372 1.383 . S
C1378 C1377 1.379 . S
H1379 C1373 0.959 . S
H1380 C1373 0.961 . S
H1381 C1373 0.960 . S
H1382 C1374 0.930 . S
H1383 C1375 0.929 . S
H1384 C1392 0.929 . S
H1385 C1394 0.930 . S
H1386 C1396 0.930 . S
H1387 C1399 0.929 . S
H1388 C1402 0.930 . S
H1389 C1404 0.960 . S
H1390 C1404 0.960 . S
H1391 C1404 0.960 . S
C1392 H1384 0.929 . S
C1392 C1393 1.377 . S
C1392 C1394 1.384 . S
C1393 C1392 1.377 . S
C1393 C1399 1.390 . S
C1394 H1385 0.930 . S
C1394 C1392 1.384 . S
C1394 C1395 1.372 . S
C1395 C1394 1.372 . S
C1395 C1396 1.400 . S
C1395 C1400 1.490 . S
C1396 H1386 0.930 . S
C1396 C1395 1.400 . S
C1396 C1399 1.386 . S
H1397 C1413 0.930 . S
H1398 C1414 0.931 . S
C1399 H1387 0.929 . S
C1399 C1393 1.390 . S
C1399 C1396 1.386 . S
C1400 C1395 1.490 . S
C1400 C1402 1.395 1_545 S
C1400 C1403 1.403 . S
H1401 C1407 0.930 . S
C1402 H1388 0.930 . S
C1402 C1400 1.395 1_565 S
C1402 C1405 1.403 . S
C1403 C1400 1.403 . S
C1403 C1404 1.524 . S
C1403 C1407 1.400 . S
C1404 H1389 0.960 . S
C1404 H1390 0.960 . S
C1404 H1391 0.960 . S
C1404 C1403 1.524 . S
C1405 C1402 1.403 . S
C1405 C1406 1.392 . S
C1405 C1409 1.495 . S
C1406 C1405 1.392 . S
C1406 C1407 1.385 1_565 S
C1406 C1408 1.478 . S
C1407 H1401 0.930 . S
C1407 C1403 1.400 . S
C1407 C1406 1.385 1_545 S
C1408 C1406 1.478 . S
C1408 C1410 1.381 . S
C1408 C1414 1.383 . S
C1409 C1405 1.495 . S
C1409 H1415 0.959 . S
C1409 H1416 0.961 . S
C1409 H1417 0.960 . S
C1410 C1408 1.381 . S
C1410 C1411 1.394 . S
C1410 H1418 0.930 . S
C1411 C1410 1.394 . S
C1411 C1412 1.383 . S
C1411 H1419 0.929 . S
C1412 C1411 1.383 . S
C1412 C1413 1.377 . S
C1413 H1397 0.930 . S
C1413 C1412 1.377 . S
C1413 C1414 1.379 . S
C1414 H1398 0.931 . S
C1414 C1408 1.383 . S
C1414 C1413 1.379 . S
H1415 C1409 0.959 . S
H1416 C1409 0.961 . S
H1417 C1409 0.960 . S
H1418 C1410 0.930 . S
H1419 C1411 0.929 . S
H1420 C1428 0.929 . S
H1421 C1430 0.930 . S
H1422 C1432 0.930 . S
H1423 C1435 0.929 . S
H1424 C1438 0.930 . S
H1425 C1440 0.960 . S
H1426 C1440 0.960 . S
H1427 C1440 0.960 . S
C1428 H1420 0.929 . S
C1428 C1429 1.377 . S
C1428 C1430 1.384 . S
C1429 C1428 1.377 . S
C1429 C1435 1.390 . S
C1430 H1421 0.930 . S
C1430 C1428 1.384 . S
C1430 C1431 1.372 . S
C1431 C1430 1.372 . S
C1431 C1432 1.400 . S
C1431 C1436 1.490 1_556 S
C1432 H1422 0.930 . S
C1432 C1431 1.400 . S
C1432 C1435 1.386 . S
H1433 C1449 0.930 . S
H1434 C1450 0.931 . S
C1435 H1423 0.929 . S
C1435 C1429 1.390 . S
C1435 C1432 1.386 . S
C1436 C1431 1.490 1_554 S
C1436 C1438 1.395 . S
C1436 C1439 1.403 . S
H1437 C1443 0.930 . S
C1438 H1424 0.930 . S
C1438 C1436 1.395 . S
C1438 C1441 1.403 . S
C1439 C1436 1.403 . S
C1439 C1440 1.524 . S
C1439 C1443 1.400 . S
C1440 H1425 0.960 . S
C1440 H1426 0.960 . S
C1440 H1427 0.960 . S
C1440 C1439 1.524 . S
C1441 C1438 1.403 . S
C1441 C1442 1.392 . S
C1441 C1445 1.495 . S
C1442 C1441 1.392 . S
C1442 C1443 1.385 . S
C1442 C1444 1.478 . S
C1443 H1437 0.930 . S
C1443 C1439 1.400 . S
C1443 C1442 1.385 . S
C1444 C1442 1.478 . S
C1444 C1446 1.381 . S
C1444 C1450 1.383 . S
C1445 C1441 1.495 . S
C1445 H1451 0.959 . S
C1445 H1452 0.961 . S
C1445 H1453 0.960 . S
C1446 C1444 1.381 . S
C1446 C1447 1.394 . S
C1446 H1454 0.930 . S
C1447 C1446 1.394 . S
C1447 C1448 1.383 . S
C1447 H1455 0.929 . S
C1448 C1447 1.383 . S
C1448 C1449 1.377 . S
C1449 H1433 0.930 . S
C1449 C1448 1.377 . S
C1449 C1450 1.379 . S
C1450 H1434 0.931 . S
C1450 C1444 1.383 . S
C1450 C1449 1.379 . S
H1451 C1445 0.959 . S
H1452 C1445 0.961 . S
H1453 C1445 0.960 . S
H1454 C1446 0.930 . S
H1455 C1447 0.929 . S
H1456 C1464 0.929 . S
H1457 C1466 0.930 . S
H1458 C1468 0.926 . S
H1459 C1471 0.905 1_545 S
H1460 C1474 0.930 . S
H1461 C1476 0.960 . S
H1462 C1476 0.960 . S
H1463 C1476 0.960 . S
C1464 H1456 0.929 . S
C1464 C1465 1.377 . S
C1464 C1466 1.384 . S
C1465 C1464 1.377 . S
C1465 C1471 1.390 . S
C1466 H1457 0.930 . S
C1466 C1464 1.384 . S
C1466 C1467 1.372 . S
C1467 C1466 1.372 . S
C1467 C1468 1.403 1_565 S
C1467 C1472 1.490 . S
C1468 H1458 0.926 . S
C1468 C1467 1.403 1_545 S
C1468 C1471 1.387 1_545 S
H1469 C1485 0.930 . S
H1470 C1486 0.931 . S
C1471 H1459 0.905 1_565 S
C1471 C1465 1.390 . S
C1471 C1468 1.387 1_565 S
C1472 C1467 1.490 . S
C1472 C1474 1.395 . S
C1472 C1475 1.403 1_565 S
H1473 C1479 0.930 . S
C1474 H1460 0.930 . S
C1474 C1472 1.395 . S
C1474 C1477 1.403 . S
C1475 C1472 1.403 1_545 S
C1475 C1476 1.524 . S
C1475 C1479 1.400 . S
C1476 H1461 0.960 . S
C1476 H1462 0.960 . S
C1476 H1463 0.960 . S
C1476 C1475 1.524 . S
C1477 C1474 1.403 . S
C1477 C1478 1.428 . S
C1477 C1481 1.495 . S
C1478 C1477 1.428 . S
C1478 C1479 1.354 1_565 S
C1478 C1480 1.472 1_565 S
C1479 H1473 0.930 . S
C1479 C1475 1.400 . S
C1479 C1478 1.354 1_545 S
C1480 C1478 1.472 1_545 S
C1480 C1482 1.381 1_545 S
C1480 C1486 1.383 . S
C1481 C1477 1.495 . S
C1481 H1487 0.959 . S
C1481 H1488 0.961 . S
C1481 H1489 0.960 . S
C1482 C1480 1.381 1_565 S
C1482 C1483 1.394 1_565 S
C1482 H1490 0.930 . S
C1483 C1482 1.394 1_545 S
C1483 C1484 1.383 . S
C1483 H1491 0.933 . S
C1484 C1483 1.383 . S
C1484 C1485 1.377 . S
C1485 H1469 0.930 . S
C1485 C1484 1.377 . S
C1485 C1486 1.379 . S
C1486 H1470 0.931 . S
C1486 C1480 1.383 . S
C1486 C1485 1.379 . S
H1487 C1481 0.959 . S
H1488 C1481 0.961 . S
H1489 C1481 0.960 . S
H1490 C1482 0.930 . S
H1491 C1483 0.933 . S
H1492 C1500 0.929 . S
H1493 C1502 0.930 . S
H1494 C1504 0.930 . S
H1495 C1507 0.929 . S
H1496 C1510 0.930 . S
H1497 C1512 0.960 . S
H1498 C1512 0.960 . S
H1499 C1512 0.960 . S
C1500 H1492 0.929 . S
C1500 C1501 1.377 . S
C1500 C1502 1.384 . S
C1501 C1500 1.377 . S
C1501 C1507 1.390 . S
C1502 H1493 0.930 . S
C1502 C1500 1.384 . S
C1502 C1503 1.372 . S
C1503 C1502 1.372 . S
C1503 C1504 1.400 . S
C1503 C1508 1.490 . S
C1504 H1494 0.930 . S
C1504 C1503 1.400 . S
C1504 C1507 1.386 . S
H1505 C1521 0.930 . S
H1506 C1522 0.931 . S
C1507 H1495 0.929 . S
C1507 C1501 1.390 . S
C1507 C1504 1.386 . S
C1508 C1503 1.490 . S
C1508 C1510 1.395 . S
C1508 C1511 1.403 . S
H1509 C1515 0.930 . S
C1510 H1496 0.930 . S
C1510 C1508 1.395 . S
C1510 C1513 1.403 . S
C1511 C1508 1.403 . S
C1511 C1512 1.524 . S
C1511 C1515 1.400 . S
C1512 H1497 0.960 . S
C1512 H1498 0.960 . S
C1512 H1499 0.960 . S
C1512 C1511 1.524 . S
C1513 C1510 1.403 . S
C1513 C1514 1.392 . S
C1513 C1517 1.495 . S
C1514 C1513 1.392 . S
C1514 C1515 1.385 . S
C1514 C1516 1.478 . S
C1515 H1509 0.930 . S
C1515 C1511 1.400 . S
C1515 C1514 1.385 . S
C1516 C1514 1.478 . S
C1516 C1518 1.381 . S
C1516 C1522 1.383 . S
C1517 C1513 1.495 . S
C1517 H1523 0.959 . S
C1517 H1524 0.961 . S
C1517 H1525 0.960 . S
C1518 C1516 1.381 . S
C1518 C1519 1.394 . S
C1518 H1526 0.930 . S
C1519 C1518 1.394 . S
C1519 C1520 1.383 . S
C1519 H1527 0.929 . S
C1520 C1519 1.383 . S
C1520 C1521 1.377 . S
C1521 H1505 0.930 . S
C1521 C1520 1.377 . S
C1521 C1522 1.379 . S
C1522 H1506 0.931 . S
C1522 C1516 1.383 . S
C1522 C1521 1.379 . S
H1523 C1517 0.959 . S
H1524 C1517 0.961 . S
H1525 C1517 0.960 . S
H1526 C1518 0.930 . S
H1527 C1519 0.929 . S
H1528 C1536 0.929 . S
H1529 C1538 0.930 . S
H1530 C1540 0.912 1_565 S
H1531 C1543 0.929 . S
H1532 C1546 0.930 . S
H1533 C1548 0.960 . S
H1534 C1548 0.960 . S
H1535 C1548 0.960 . S
C1536 H1528 0.929 . S
C1536 C1537 1.377 . S
C1536 C1538 1.384 . S
C1537 C1536 1.377 . S
C1537 C1543 1.390 . S
C1538 H1529 0.930 . S
C1538 C1536 1.384 . S
C1538 C1539 1.372 . S
C1539 C1538 1.372 . S
C1539 C1540 1.400 . S
C1539 C1544 1.490 . S
C1540 H1530 0.912 1_545 S
C1540 C1539 1.400 . S
C1540 C1543 1.386 . S
H1541 C1557 0.930 . S
H1542 C1558 0.931 . S
C1543 H1531 0.929 . S
C1543 C1537 1.390 . S
C1543 C1540 1.386 . S
C1544 C1539 1.490 . S
C1544 C1546 1.395 . S
C1544 C1547 1.403 1_545 S
H1545 C1551 0.930 . S
C1546 H1532 0.930 . S
C1546 C1544 1.395 . S
C1546 C1549 1.403 . S
C1547 C1544 1.403 1_565 S
C1547 C1548 1.524 . S
C1547 C1551 1.400 . S
C1548 H1533 0.960 . S
C1548 H1534 0.960 . S
C1548 H1535 0.960 . S
C1548 C1547 1.524 . S
C1549 C1546 1.403 . S
C1549 C1550 1.412 . S
C1549 C1553 1.495 . S
C1550 C1549 1.412 . S
C1550 C1551 1.367 1_545 S
C1550 C1552 1.474 1_545 S
C1551 H1545 0.930 . S
C1551 C1547 1.400 . S
C1551 C1550 1.367 1_565 S
C1552 C1550 1.474 1_565 S
C1552 C1554 1.381 . S
C1552 C1558 1.383 . S
C1553 C1549 1.495 . S
C1553 H1559 0.959 . S
C1553 H1560 0.961 . S
C1553 H1561 0.960 . S
C1554 C1552 1.381 . S
C1554 C1555 1.394 . S
C1554 H1562 0.917 1_565 S
C1555 C1554 1.394 . S
C1555 C1556 1.383 . S
C1555 H1563 0.929 . S
C1556 C1555 1.383 . S
C1556 C1557 1.377 . S
C1557 H1541 0.930 . S
C1557 C1556 1.377 . S
C1557 C1558 1.379 . S
C1558 H1542 0.931 . S
C1558 C1552 1.383 . S
C1558 C1557 1.379 . S
H1559 C1553 0.959 . S
H1560 C1553 0.961 . S
H1561 C1553 0.960 . S
H1562 C1554 0.917 1_545 S
H1563 C1555 0.929 . S
H1564 C1572 0.929 . S
H1565 C1574 0.930 . S
H1566 C1576 0.930 . S
H1567 C1579 0.929 . S
H1568 C1582 0.930 . S
H1569 C1584 0.960 . S
H1570 C1584 0.960 . S
H1571 C1584 0.960 . S
C1572 H1564 0.929 . S
C1572 C1573 1.377 . S
C1572 C1574 1.384 . S
C1573 C1572 1.377 . S
C1573 C1579 1.390 . S
C1574 H1565 0.930 . S
C1574 C1572 1.384 . S
C1574 C1575 1.372 . S
C1575 C1574 1.372 . S
C1575 C1576 1.400 . S
C1575 C1580 1.490 . S
C1576 H1566 0.930 . S
C1576 C1575 1.400 . S
C1576 C1579 1.386 . S
H1577 C1593 0.930 . S
H1578 C1594 0.931 . S
C1579 H1567 0.929 . S
C1579 C1573 1.390 . S
C1579 C1576 1.386 . S
C1580 C1575 1.490 . S
C1580 C1582 1.395 . S
C1580 C1583 1.403 . S
H1581 C1587 0.930 . S
C1582 H1568 0.930 . S
C1582 C1580 1.395 . S
C1582 C1585 1.403 . S
C1583 C1580 1.403 . S
C1583 C1584 1.524 . S
C1583 C1587 1.400 . S
C1584 H1569 0.960 . S
C1584 H1570 0.960 . S
C1584 H1571 0.960 . S
C1584 C1583 1.524 . S
C1585 C1582 1.403 . S
C1585 C1586 1.392 . S
C1585 C1589 1.495 . S
C1586 C1585 1.392 . S
C1586 C1587 1.385 . S
C1586 C1588 1.478 1_554 S
C1587 H1581 0.930 . S
C1587 C1583 1.400 . S
C1587 C1586 1.385 . S
C1588 C1586 1.478 1_556 S
C1588 C1590 1.381 . S
C1588 C1594 1.383 . S
C1589 C1585 1.495 . S
C1589 H1595 0.959 . S
C1589 H1596 0.961 . S
C1589 H1597 0.960 . S
C1590 C1588 1.381 . S
C1590 C1591 1.394 . S
C1590 H1598 0.930 . S
C1591 C1590 1.394 . S
C1591 C1592 1.383 . S
C1591 H1599 0.929 . S
C1592 C1591 1.383 . S
C1592 C1593 1.377 . S
C1593 H1577 0.930 . S
C1593 C1592 1.377 . S
C1593 C1594 1.379 . S
C1594 H1578 0.931 . S
C1594 C1588 1.383 . S
C1594 C1593 1.379 . S
H1595 C1589 0.959 . S
H1596 C1589 0.961 . S
H1597 C1589 0.960 . S
H1598 C1590 0.930 . S
H1599 C1591 0.929 . S
H1600 C1608 0.929 . S
H1601 C1610 0.930 . S
H1602 C1612 0.930 . S
H1603 C1615 0.929 . S
H1604 C1618 0.930 . S
H1605 C1620 0.960 . S
H1606 C1620 0.960 . S
H1607 C1620 0.960 . S
C1608 H1600 0.929 . S
C1608 C1609 1.377 . S
C1608 C1610 1.384 . S
C1609 C1608 1.377 . S
C1609 C1615 1.390 . S
C1610 H1601 0.930 . S
C1610 C1608 1.384 . S
C1610 C1611 1.372 . S
C1611 C1610 1.372 . S
C1611 C1612 1.400 . S
C1611 C1616 1.490 . S
C1612 H1602 0.930 . S
C1612 C1611 1.400 . S
C1612 C1615 1.386 . S
H1613 C1629 0.930 . S
H1614 C1630 0.931 . S
C1615 H1603 0.929 . S
C1615 C1609 1.390 . S
C1615 C1612 1.386 . S
C1616 C1611 1.490 . S
C1616 C1618 1.395 . S
C1616 C1619 1.403 . S
H1617 C1623 0.930 . S
C1618 H1604 0.930 . S
C1618 C1616 1.395 . S
C1618 C1621 1.403 . S
C1619 C1616 1.403 . S
C1619 C1620 1.524 . S
C1619 C1623 1.400 . S
C1620 H1605 0.960 . S
C1620 H1606 0.960 . S
C1620 H1607 0.960 . S
C1620 C1619 1.524 . S
C1621 C1618 1.403 . S
C1621 C1622 1.392 . S
C1621 C1625 1.495 . S
C1622 C1621 1.392 . S
C1622 C1623 1.385 . S
C1622 C1624 1.478 . S
C1623 H1617 0.930 . S
C1623 C1619 1.400 . S
C1623 C1622 1.385 . S
C1624 C1622 1.478 . S
C1624 C1626 1.381 . S
C1624 C1630 1.383 . S
C1625 C1621 1.495 . S
C1625 H1631 0.959 . S
C1625 H1632 0.961 . S
C1625 H1633 0.960 . S
C1626 C1624 1.381 . S
C1626 C1627 1.394 . S
C1626 H1634 0.930 . S
C1627 C1626 1.394 . S
C1627 C1628 1.383 . S
C1627 H1635 0.929 . S
C1628 C1627 1.383 . S
C1628 C1629 1.377 . S
C1629 H1613 0.930 . S
C1629 C1628 1.377 . S
C1629 C1630 1.379 . S
C1630 H1614 0.931 . S
C1630 C1624 1.383 . S
C1630 C1629 1.379 . S
H1631 C1625 0.959 . S
H1632 C1625 0.961 . S
H1633 C1625 0.960 . S
H1634 C1626 0.930 . S
H1635 C1627 0.929 . S
H1636 C1644 0.929 . S
H1637 C1646 0.930 . S
H1638 C1648 0.930 . S
H1639 C1651 0.929 . S
H1640 C1654 0.930 . S
H1641 C1656 0.960 . S
H1642 C1656 0.960 . S
H1643 C1656 0.960 . S
C1644 H1636 0.929 . S
C1644 C1645 1.377 . S
C1644 C1646 1.384 . S
C1645 C1644 1.377 . S
C1645 C1651 1.390 . S
C1646 H1637 0.930 . S
C1646 C1644 1.384 . S
C1646 C1647 1.372 . S
C1647 C1646 1.372 . S
C1647 C1648 1.400 . S
C1647 C1652 1.490 . S
C1648 H1638 0.930 . S
C1648 C1647 1.400 . S
C1648 C1651 1.386 . S
H1649 C1665 0.930 . S
H1650 C1666 0.931 . S
C1651 H1639 0.929 . S
C1651 C1645 1.390 . S
C1651 C1648 1.386 . S
C1652 C1647 1.490 . S
C1652 C1654 1.395 . S
C1652 C1655 1.403 . S
H1653 C1659 0.930 . S
C1654 H1640 0.930 . S
C1654 C1652 1.395 . S
C1654 C1657 1.403 . S
C1655 C1652 1.403 . S
C1655 C1656 1.524 . S
C1655 C1659 1.400 . S
C1656 H1641 0.960 . S
C1656 H1642 0.960 . S
C1656 H1643 0.960 . S
C1656 C1655 1.524 . S
C1657 C1654 1.403 . S
C1657 C1658 1.392 . S
C1657 C1661 1.495 . S
C1658 C1657 1.392 . S
C1658 C1659 1.385 . S
C1658 C1660 1.478 . S
C1659 H1653 0.930 . S
C1659 C1655 1.400 . S
C1659 C1658 1.385 . S
C1660 C1658 1.478 . S
C1660 C1662 1.381 . S
C1660 C1666 1.383 . S
C1661 C1657 1.495 . S
C1661 H1667 0.959 . S
C1661 H1668 0.961 . S
C1661 H1669 0.960 . S
C1662 C1660 1.381 . S
C1662 C1663 1.394 . S
C1662 H1670 0.930 . S
C1663 C1662 1.394 . S
C1663 C1664 1.383 . S
C1663 H1671 0.929 . S
C1664 C1663 1.383 . S
C1664 C1665 1.377 . S
C1665 H1649 0.930 . S
C1665 C1664 1.377 . S
C1665 C1666 1.379 . S
C1666 H1650 0.931 . S
C1666 C1660 1.383 . S
C1666 C1665 1.379 . S
H1667 C1661 0.959 . S
H1668 C1661 0.961 . S
H1669 C1661 0.960 . S
H1670 C1662 0.930 . S
H1671 C1663 0.929 . S
H1672 C1680 0.929 . S
H1673 C1682 0.930 . S
H1674 C1684 0.930 . S
H1675 C1687 0.929 . S
H1676 C1690 0.930 . S
H1677 C1692 0.960 . S
H1678 C1692 0.960 . S
H1679 C1692 0.960 . S
C1680 H1672 0.929 . S
C1680 C1681 1.377 . S
C1680 C1682 1.384 . S
C1681 C1680 1.377 . S
C1681 C1687 1.390 . S
C1682 H1673 0.930 . S
C1682 C1680 1.384 . S
C1682 C1683 1.372 . S
C1683 C1682 1.372 . S
C1683 C1684 1.400 . S
C1683 C1688 1.490 . S
C1684 H1674 0.930 . S
C1684 C1683 1.400 . S
C1684 C1687 1.386 . S
H1685 C1701 0.930 . S
H1686 C1702 0.931 . S
C1687 H1675 0.929 . S
C1687 C1681 1.390 . S
C1687 C1684 1.386 . S
C1688 C1683 1.490 . S
C1688 C1690 1.395 . S
C1688 C1691 1.403 . S
H1689 C1695 0.930 . S
C1690 H1676 0.930 . S
C1690 C1688 1.395 . S
C1690 C1693 1.403 . S
C1691 C1688 1.403 . S
C1691 C1692 1.524 . S
C1691 C1695 1.400 . S
C1692 H1677 0.960 . S
C1692 H1678 0.960 . S
C1692 H1679 0.960 . S
C1692 C1691 1.524 . S
C1693 C1690 1.403 . S
C1693 C1694 1.392 . S
C1693 C1697 1.495 . S
C1694 C1693 1.392 . S
C1694 C1695 1.385 . S
C1694 C1696 1.478 . S
C1695 H1689 0.930 . S
C1695 C1691 1.400 . S
C1695 C1694 1.385 . S
C1696 C1694 1.478 . S
C1696 C1698 1.381 . S
C1696 C1702 1.383 . S
C1697 C1693 1.495 . S
C1697 H1703 0.959 . S
C1697 H1704 0.961 . S
C1697 H1705 0.960 . S
C1698 C1696 1.381 . S
C1698 C1699 1.394 . S
C1698 H1706 0.930 . S
C1699 C1698 1.394 . S
C1699 C1700 1.383 . S
C1699 H1707 0.929 . S
C1700 C1699 1.383 . S
C1700 C1701 1.377 . S
C1701 H1685 0.930 . S
C1701 C1700 1.377 . S
C1701 C1702 1.379 . S
C1702 H1686 0.931 . S
C1702 C1696 1.383 . S
C1702 C1701 1.379 . S
H1703 C1697 0.959 . S
H1704 C1697 0.961 . S
H1705 C1697 0.960 . S
H1706 C1698 0.930 . S
H1707 C1699 0.929 . S
H1708 C1716 0.929 . S
H1709 C1718 0.930 . S
H1710 C1720 0.930 . S
H1711 C1723 0.929 . S
H1712 C1726 0.930 . S
H1713 C1728 0.960 . S
H1714 C1728 0.960 . S
H1715 C1728 0.960 . S
C1716 H1708 0.929 . S
C1716 C1717 1.377 . S
C1716 C1718 1.384 . S
C1717 C1716 1.377 . S
C1717 C1723 1.390 . S
C1718 H1709 0.930 . S
C1718 C1716 1.384 . S
C1718 C1719 1.372 . S
C1719 C1718 1.372 . S
C1719 C1720 1.400 . S
C1719 C1724 1.490 . S
C1720 H1710 0.930 . S
C1720 C1719 1.400 . S
C1720 C1723 1.386 . S
H1721 C1737 0.930 . S
H1722 C1738 0.931 . S
C1723 H1711 0.929 . S
C1723 C1717 1.390 . S
C1723 C1720 1.386 . S
C1724 C1719 1.490 . S
C1724 C1726 1.395 . S
C1724 C1727 1.403 . S
H1725 C1731 0.930 . S
C1726 H1712 0.930 . S
C1726 C1724 1.395 . S
C1726 C1729 1.403 . S
C1727 C1724 1.403 . S
C1727 C1728 1.524 . S
C1727 C1731 1.400 . S
C1728 H1713 0.960 . S
C1728 H1714 0.960 . S
C1728 H1715 0.960 . S
C1728 C1727 1.524 . S
C1729 C1726 1.403 . S
C1729 C1730 1.392 . S
C1729 C1733 1.495 . S
C1730 C1729 1.392 . S
C1730 C1731 1.385 . S
C1730 C1732 1.478 1_554 S
C1731 H1725 0.930 . S
C1731 C1727 1.400 . S
C1731 C1730 1.385 . S
C1732 C1730 1.478 1_556 S
C1732 C1734 1.381 . S
C1732 C1738 1.383 . S
C1733 C1729 1.495 . S
C1733 H1739 0.959 . S
C1733 H1740 0.961 . S
C1733 H1741 0.960 . S
C1734 C1732 1.381 . S
C1734 C1735 1.394 . S
C1734 H1742 0.930 . S
C1735 C1734 1.394 . S
C1735 C1736 1.383 . S
C1735 H1743 0.929 . S
C1736 C1735 1.383 . S
C1736 C1737 1.377 . S
C1737 H1721 0.930 . S
C1737 C1736 1.377 . S
C1737 C1738 1.379 . S
C1738 H1722 0.931 . S
C1738 C1732 1.383 . S
C1738 C1737 1.379 . S
H1739 C1733 0.959 . S
H1740 C1733 0.961 . S
H1741 C1733 0.960 . S
H1742 C1734 0.930 . S
H1743 C1735 0.929 . S
H1744 C1752 0.929 . S
H1745 C1754 0.930 . S
H1746 C1756 0.930 . S
H1747 C1759 0.929 . S
H1748 C1762 0.930 . S
H1749 C1764 0.960 . S
H1750 C1764 0.960 . S
H1751 C1764 0.960 . S
C1752 H1744 0.929 . S
C1752 C1753 1.377 . S
C1752 C1754 1.384 . S
C1753 C1752 1.377 . S
C1753 C1759 1.390 . S
C1754 H1745 0.930 . S
C1754 C1752 1.384 . S
C1754 C1755 1.372 . S
C1755 C1754 1.372 . S
C1755 C1756 1.400 . S
C1755 C1760 1.490 . S
C1756 H1746 0.930 . S
C1756 C1755 1.400 . S
C1756 C1759 1.386 . S
H1757 C1773 0.930 . S
H1758 C1774 0.931 . S
C1759 H1747 0.929 . S
C1759 C1753 1.390 . S
C1759 C1756 1.386 . S
C1760 C1755 1.490 . S
C1760 C1762 1.395 . S
C1760 C1763 1.403 . S
H1761 C1767 0.930 . S
C1762 H1748 0.930 . S
C1762 C1760 1.395 . S
C1762 C1765 1.403 . S
C1763 C1760 1.403 . S
C1763 C1764 1.524 . S
C1763 C1767 1.400 . S
C1764 H1749 0.960 . S
C1764 H1750 0.960 . S
C1764 H1751 0.960 . S
C1764 C1763 1.524 . S
C1765 C1762 1.403 . S
C1765 C1766 1.392 . S
C1765 C1769 1.495 . S
C1766 C1765 1.392 . S
C1766 C1767 1.385 . S
C1766 C1768 1.478 . S
C1767 H1761 0.930 . S
C1767 C1763 1.400 . S
C1767 C1766 1.385 . S
C1768 C1766 1.478 . S
C1768 C1770 1.381 . S
C1768 C1774 1.383 . S
C1769 C1765 1.495 . S
C1769 H1775 0.959 . S
C1769 H1776 0.961 . S
C1769 H1777 0.960 . S
C1770 C1768 1.381 . S
C1770 C1771 1.394 . S
C1770 H1778 0.930 . S
C1771 C1770 1.394 . S
C1771 C1772 1.383 . S
C1771 H1779 0.929 . S
C1772 C1771 1.383 . S
C1772 C1773 1.377 . S
C1773 H1757 0.930 . S
C1773 C1772 1.377 . S
C1773 C1774 1.379 . S
C1774 H1758 0.931 . S
C1774 C1768 1.383 . S
C1774 C1773 1.379 . S
H1775 C1769 0.959 . S
H1776 C1769 0.961 . S
H1777 C1769 0.960 . S
H1778 C1770 0.930 . S
H1779 C1771 0.929 . S
H1780 C1788 0.929 . S
H1781 C1790 0.930 . S
H1782 C1792 0.930 . S
H1783 C1795 0.929 . S
H1784 C1798 0.930 . S
H1785 C1800 0.960 . S
H1786 C1800 0.960 . S
H1787 C1800 0.960 . S
C1788 H1780 0.929 . S
C1788 C1789 1.377 . S
C1788 C1790 1.384 . S
C1789 C1788 1.377 . S
C1789 C1795 1.390 . S
C1790 H1781 0.930 . S
C1790 C1788 1.384 . S
C1790 C1791 1.372 . S
C1791 C1790 1.372 . S
C1791 C1792 1.400 . S
C1791 C1796 1.490 . S
C1792 H1782 0.930 . S
C1792 C1791 1.400 . S
C1792 C1795 1.386 . S
H1793 C1809 0.930 . S
H1794 C1810 0.931 . S
C1795 H1783 0.929 . S
C1795 C1789 1.390 . S
C1795 C1792 1.386 . S
C1796 C1791 1.490 . S
C1796 C1798 1.395 . S
C1796 C1799 1.403 . S
H1797 C1803 0.930 . S
C1798 H1784 0.930 . S
C1798 C1796 1.395 . S
C1798 C1801 1.403 . S
C1799 C1796 1.403 . S
C1799 C1800 1.524 . S
C1799 C1803 1.400 . S
C1800 H1785 0.960 . S
C1800 H1786 0.960 . S
C1800 H1787 0.960 . S
C1800 C1799 1.524 . S
C1801 C1798 1.403 . S
C1801 C1802 1.392 . S
C1801 C1805 1.495 . S
C1802 C1801 1.392 . S
C1802 C1803 1.385 . S
C1802 C1804 1.478 . S
C1803 H1797 0.930 . S
C1803 C1799 1.400 . S
C1803 C1802 1.385 . S
C1804 C1802 1.478 . S
C1804 C1806 1.381 . S
C1804 C1810 1.383 . S
C1805 C1801 1.495 . S
C1805 H1811 0.959 . S
C1805 H1812 0.961 . S
C1805 H1813 0.960 . S
C1806 C1804 1.381 . S
C1806 C1807 1.394 . S
C1806 H1814 0.930 . S
C1807 C1806 1.394 . S
C1807 C1808 1.383 . S
C1807 H1815 0.929 . S
C1808 C1807 1.383 . S
C1808 C1809 1.377 . S
C1809 H1793 0.930 . S
C1809 C1808 1.377 . S
C1809 C1810 1.379 . S
C1810 H1794 0.931 . S
C1810 C1804 1.383 . S
C1810 C1809 1.379 . S
H1811 C1805 0.959 . S
H1812 C1805 0.961 . S
H1813 C1805 0.960 . S
H1814 C1806 0.930 . S
H1815 C1807 0.929 . S
H1816 C1824 0.929 . S
H1817 C1826 0.930 . S
H1818 C1828 0.930 . S
H1819 C1831 0.929 . S
H1820 C1834 0.930 . S
H1821 C1836 0.960 . S
H1822 C1836 0.960 . S
H1823 C1836 0.960 . S
C1824 H1816 0.929 . S
C1824 C1825 1.377 . S
C1824 C1826 1.384 . S
C1825 C1824 1.377 . S
C1825 C1831 1.390 . S
C1826 H1817 0.930 . S
C1826 C1824 1.384 . S
C1826 C1827 1.372 . S
C1827 C1826 1.372 . S
C1827 C1828 1.400 . S
C1827 C1832 1.490 . S
C1828 H1818 0.930 . S
C1828 C1827 1.400 . S
C1828 C1831 1.386 . S
H1829 C1845 0.930 . S
H1830 C1846 0.931 . S
C1831 H1819 0.929 . S
C1831 C1825 1.390 . S
C1831 C1828 1.386 . S
C1832 C1827 1.490 . S
C1832 C1834 1.395 . S
C1832 C1835 1.403 . S
H1833 C1839 0.930 . S
C1834 H1820 0.930 . S
C1834 C1832 1.395 . S
C1834 C1837 1.403 . S
C1835 C1832 1.403 . S
C1835 C1836 1.524 . S
C1835 C1839 1.400 . S
C1836 H1821 0.960 . S
C1836 H1822 0.960 . S
C1836 H1823 0.960 . S
C1836 C1835 1.524 . S
C1837 C1834 1.403 . S
C1837 C1838 1.392 . S
C1837 C1841 1.495 . S
C1838 C1837 1.392 . S
C1838 C1839 1.385 . S
C1838 C1840 1.478 . S
C1839 H1833 0.930 . S
C1839 C1835 1.400 . S
C1839 C1838 1.385 . S
C1840 C1838 1.478 . S
C1840 C1842 1.381 . S
C1840 C1846 1.383 . S
C1841 C1837 1.495 . S
C1841 H1847 0.959 . S
C1841 H1848 0.961 . S
C1841 H1849 0.960 . S
C1842 C1840 1.381 . S
C1842 C1843 1.394 . S
C1842 H1850 0.930 . S
C1843 C1842 1.394 . S
C1843 C1844 1.383 . S
C1843 H1851 0.929 . S
C1844 C1843 1.383 . S
C1844 C1845 1.377 . S
C1845 H1829 0.930 . S
C1845 C1844 1.377 . S
C1845 C1846 1.379 . S
C1846 H1830 0.931 . S
C1846 C1840 1.383 . S
C1846 C1845 1.379 . S
H1847 C1841 0.959 . S
H1848 C1841 0.961 . S
H1849 C1841 0.960 . S
H1850 C1842 0.930 . S
H1851 C1843 0.929 . S
H1852 C1860 0.929 . S
H1853 C1862 0.930 . S
H1854 C1864 0.930 . S
H1855 C1867 0.929 . S
H1856 C1870 0.930 . S
H1857 C1872 0.960 . S
H1858 C1872 0.960 . S
H1859 C1872 0.960 . S
C1860 H1852 0.929 . S
C1860 C1861 1.377 . S
C1860 C1862 1.384 . S
C1861 C1860 1.377 . S
C1861 C1867 1.390 . S
C1862 H1853 0.930 . S
C1862 C1860 1.384 . S
C1862 C1863 1.372 . S
C1863 C1862 1.372 . S
C1863 C1864 1.400 . S
C1863 C1868 1.490 1_556 S
C1864 H1854 0.930 . S
C1864 C1863 1.400 . S
C1864 C1867 1.386 . S
H1865 C1881 0.930 . S
H1866 C1882 0.931 . S
C1867 H1855 0.929 . S
C1867 C1861 1.390 . S
C1867 C1864 1.386 . S
C1868 C1863 1.490 1_554 S
C1868 C1870 1.395 . S
C1868 C1871 1.403 . S
H1869 C1875 0.930 . S
C1870 H1856 0.930 . S
C1870 C1868 1.395 . S
C1870 C1873 1.403 . S
C1871 C1868 1.403 . S
C1871 C1872 1.524 . S
C1871 C1875 1.400 . S
C1872 H1857 0.960 . S
C1872 H1858 0.960 . S
C1872 H1859 0.960 . S
C1872 C1871 1.524 . S
C1873 C1870 1.403 . S
C1873 C1874 1.392 . S
C1873 C1877 1.495 . S
C1874 C1873 1.392 . S
C1874 C1875 1.385 . S
C1874 C1876 1.478 . S
C1875 H1869 0.930 . S
C1875 C1871 1.400 . S
C1875 C1874 1.385 . S
C1876 C1874 1.478 . S
C1876 C1878 1.381 . S
C1876 C1882 1.383 . S
C1877 C1873 1.495 . S
C1877 H1883 0.959 . S
C1877 H1884 0.961 . S
C1877 H1885 0.960 . S
C1878 C1876 1.381 . S
C1878 C1879 1.394 . S
C1878 H1886 0.930 . S
C1879 C1878 1.394 . S
C1879 C1880 1.383 . S
C1879 H1887 0.929 . S
C1880 C1879 1.383 . S
C1880 C1881 1.377 . S
C1881 H1865 0.930 . S
C1881 C1880 1.377 . S
C1881 C1882 1.379 . S
C1882 H1866 0.931 . S
C1882 C1876 1.383 . S
C1882 C1881 1.379 . S
H1883 C1877 0.959 . S
H1884 C1877 0.961 . S
H1885 C1877 0.960 . S
H1886 C1878 0.930 . S
H1887 C1879 0.929 . S
H1888 C1896 0.929 . S
H1889 C1898 0.930 . S
H1890 C1900 0.930 . S
H1891 C1903 0.929 . S
H1892 C1906 0.930 . S
H1893 C1908 0.960 . S
H1894 C1908 0.960 . S
H1895 C1908 0.960 . S
C1896 H1888 0.929 . S
C1896 C1897 1.377 1_545 S
C1896 C1898 1.384 . S
C1897 C1896 1.377 1_565 S
C1897 C1903 1.390 . S
C1898 H1889 0.930 . S
C1898 C1896 1.384 . S
C1898 C1899 1.372 1_545 S
C1899 C1898 1.372 1_565 S
C1899 C1900 1.400 . S
C1899 C1904 1.490 . S
C1900 H1890 0.930 . S
C1900 C1899 1.400 . S
C1900 C1903 1.386 . S
H1901 C1917 0.930 . S
H1902 C1918 0.931 . S
C1903 H1891 0.929 . S
C1903 C1897 1.390 . S
C1903 C1900 1.386 . S
C1904 C1899 1.490 . S
C1904 C1906 1.395 1_565 S
C1904 C1907 1.403 . S
H1905 C1911 0.930 . S
C1906 H1892 0.930 . S
C1906 C1904 1.395 1_545 S
C1906 C1909 1.403 . S
C1907 C1904 1.403 . S
C1907 C1908 1.524 . S
C1907 C1911 1.400 . S
C1908 H1893 0.960 . S
C1908 H1894 0.960 . S
C1908 H1895 0.960 . S
C1908 C1907 1.524 . S
C1909 C1906 1.403 . S
C1909 C1910 1.392 . S
C1909 C1913 1.495 . S
C1910 C1909 1.392 . S
C1910 C1911 1.385 1_545 S
C1910 C1912 1.478 . S
C1911 H1905 0.930 . S
C1911 C1907 1.400 . S
C1911 C1910 1.385 1_565 S
C1912 C1910 1.478 . S
C1912 C1914 1.381 . S
C1912 C1918 1.383 1_545 S
C1913 C1909 1.495 . S
C1913 H1919 0.959 . S
C1913 H1920 0.961 . S
C1913 H1921 0.960 . S
C1914 C1912 1.381 . S
C1914 C1915 1.394 . S
C1914 H1922 0.930 . S
C1915 C1914 1.394 . S
C1915 C1916 1.383 . S
C1915 H1923 0.929 . S
C1916 C1915 1.383 . S
C1916 C1917 1.377 1_545 S
C1917 H1901 0.930 . S
C1917 C1916 1.377 1_565 S
C1917 C1918 1.379 . S
C1918 H1902 0.931 . S
C1918 C1912 1.383 1_565 S
C1918 C1917 1.379 . S
H1919 C1913 0.959 . S
H1920 C1913 0.961 . S
H1921 C1913 0.960 . S
H1922 C1914 0.930 . S
H1923 C1915 0.929 . S
H1924 C1932 0.929 . S
H1925 C1934 0.930 . S
H1926 C1936 0.930 . S
H1927 C1939 0.929 . S
H1928 C1942 0.930 . S
H1929 C1944 0.960 . S
H1930 C1944 0.960 . S
H1931 C1944 0.960 . S
C1932 H1924 0.929 . S
C1932 C1933 1.377 . S
C1932 C1934 1.384 . S
C1933 C1932 1.377 . S
C1933 C1939 1.390 . S
C1934 H1925 0.930 . S
C1934 C1932 1.384 . S
C1934 C1935 1.372 . S
C1935 C1934 1.372 . S
C1935 C1936 1.400 . S
C1935 C1940 1.490 . S
C1936 H1926 0.930 . S
C1936 C1935 1.400 . S
C1936 C1939 1.386 . S
H1937 C1953 0.930 . S
H1938 C1954 0.931 . S
C1939 H1927 0.929 . S
C1939 C1933 1.390 . S
C1939 C1936 1.386 . S
C1940 C1935 1.490 . S
C1940 C1942 1.395 . S
C1940 C1943 1.403 . S
H1941 C1947 0.930 . S
C1942 H1928 0.930 . S
C1942 C1940 1.395 . S
C1942 C1945 1.403 . S
C1943 C1940 1.403 . S
C1943 C1944 1.524 . S
C1943 C1947 1.400 . S
C1944 H1929 0.960 . S
C1944 H1930 0.960 . S
C1944 H1931 0.960 . S
C1944 C1943 1.524 . S
C1945 C1942 1.403 . S
C1945 C1946 1.392 . S
C1945 C1949 1.495 . S
C1946 C1945 1.392 . S
C1946 C1947 1.385 . S
C1946 C1948 1.478 1_554 S
C1947 H1941 0.930 . S
C1947 C1943 1.400 . S
C1947 C1946 1.385 . S
C1948 C1946 1.478 1_556 S
C1948 C1950 1.381 . S
C1948 C1954 1.383 . S
C1949 C1945 1.495 . S
C1949 H1955 0.959 . S
C1949 H1956 0.961 . S
C1949 H1957 0.960 . S
C1950 C1948 1.381 . S
C1950 C1951 1.394 . S
C1950 H1958 0.930 . S
C1951 C1950 1.394 . S
C1951 C1952 1.383 . S
C1951 H1959 0.929 . S
C1952 C1951 1.383 . S
C1952 C1953 1.377 . S
C1953 H1937 0.930 . S
C1953 C1952 1.377 . S
C1953 C1954 1.379 . S
C1954 H1938 0.931 . S
C1954 C1948 1.383 . S
C1954 C1953 1.379 . S
H1955 C1949 0.959 . S
H1956 C1949 0.961 . S
H1957 C1949 0.960 . S
H1958 C1950 0.930 . S
H1959 C1951 0.929 . S
H1960 C1968 0.929 . S
H1961 C1970 0.930 . S
H1962 C1972 0.930 . S
H1963 C1975 0.945 . S
H1964 C1978 0.930 . S
H1965 C1980 0.960 . S
H1966 C1980 0.960 . S
H1967 C1980 0.960 . S
C1968 H1960 0.929 . S
C1968 C1969 1.377 . S
C1968 C1970 1.384 . S
C1969 C1968 1.377 . S
C1969 C1975 1.371 1_565 S
C1970 H1961 0.930 . S
C1970 C1968 1.384 . S
C1970 C1971 1.372 . S
C1971 C1970 1.372 . S
C1971 C1972 1.400 1_565 S
C1971 C1976 1.490 . S
C1972 H1962 0.930 . S
C1972 C1971 1.400 1_545 S
C1972 C1975 1.390 . S
H1973 C1989 0.930 . S
H1974 C1990 0.931 . S
C1975 H1963 0.945 . S
C1975 C1969 1.371 1_545 S
C1975 C1972 1.390 . S
C1976 C1971 1.490 . S
C1976 C1978 1.395 . S
C1976 C1979 1.403 1_565 S
H1977 C1983 0.930 . S
C1978 H1964 0.930 . S
C1978 C1976 1.395 . S
C1978 C1981 1.403 . S
C1979 C1976 1.403 1_545 S
C1979 C1980 1.524 . S
C1979 C1983 1.400 . S
C1980 H1965 0.960 . S
C1980 H1966 0.960 . S
C1980 H1967 0.960 . S
C1980 C1979 1.524 . S
C1981 C1978 1.403 . S
C1981 C1982 1.445 . S
C1981 C1985 1.495 . S
C1982 C1981 1.445 . S
C1982 C1983 1.339 1_565 S
C1982 C1984 1.470 1_565 S
C1983 H1977 0.930 . S
C1983 C1979 1.400 . S
C1983 C1982 1.339 1_545 S
C1984 C1982 1.470 1_545 S
C1984 C1986 1.381 1_545 S
C1984 C1990 1.383 . S
C1985 C1981 1.495 . S
C1985 H1991 0.959 . S
C1985 H1992 0.961 . S
C1985 H1993 0.960 . S
C1986 C1984 1.381 1_565 S
C1986 C1987 1.404 . S
C1986 H1994 0.930 . S
C1987 C1986 1.404 . S
C1987 C1988 1.358 1_565 S
C1987 H1995 0.946 . S
C1988 C1987 1.358 1_545 S
C1988 C1989 1.377 . S
C1989 H1973 0.930 . S
C1989 C1988 1.377 . S
C1989 C1990 1.379 . S
C1990 H1974 0.931 . S
C1990 C1984 1.383 . S
C1990 C1989 1.379 . S
H1991 C1985 0.959 . S
H1992 C1985 0.961 . S
H1993 C1985 0.960 . S
H1994 C1986 0.930 . S
H1995 C1987 0.946 . S
H1996 C2004 0.929 . S
H1997 C2006 0.930 . S
H1998 C2008 0.930 . S
H1999 C2011 0.929 . S
H2000 C2014 0.930 . S
H2001 C2016 0.960 . S
H2002 C2016 0.960 . S
H2003 C2016 0.960 . S
C2004 H1996 0.929 . S
C2004 C2005 1.377 . S
C2004 C2006 1.384 . S
C2005 C2004 1.377 . S
C2005 C2011 1.390 . S
C2006 H1997 0.930 . S
C2006 C2004 1.384 . S
C2006 C2007 1.372 . S
C2007 C2006 1.372 . S
C2007 C2008 1.400 . S
C2007 C2012 1.490 . S
C2008 H1998 0.930 . S
C2008 C2007 1.400 . S
C2008 C2011 1.386 . S
H2009 C2025 0.930 . S
H2010 C2026 0.931 . S
C2011 H1999 0.929 . S
C2011 C2005 1.390 . S
C2011 C2008 1.386 . S
C2012 C2007 1.490 . S
C2012 C2014 1.395 . S
C2012 C2015 1.403 . S
H2013 C2019 0.930 . S
C2014 H2000 0.930 . S
C2014 C2012 1.395 . S
C2014 C2017 1.403 . S
C2015 C2012 1.403 . S
C2015 C2016 1.524 . S
C2015 C2019 1.400 . S
C2016 H2001 0.960 . S
C2016 H2002 0.960 . S
C2016 H2003 0.960 . S
C2016 C2015 1.524 . S
C2017 C2014 1.403 . S
C2017 C2018 1.392 . S
C2017 C2021 1.495 . S
C2018 C2017 1.392 . S
C2018 C2019 1.385 . S
C2018 C2020 1.478 . S
C2019 H2013 0.930 . S
C2019 C2015 1.400 . S
C2019 C2018 1.385 . S
C2020 C2018 1.478 . S
C2020 C2022 1.381 . S
C2020 C2026 1.383 . S
C2021 C2017 1.495 . S
C2021 H2027 0.959 . S
C2021 H2028 0.961 . S
C2021 H2029 0.960 . S
C2022 C2020 1.381 . S
C2022 C2023 1.394 . S
C2022 H2030 0.930 . S
C2023 C2022 1.394 . S
C2023 C2024 1.383 . S
C2023 H2031 0.929 . S
C2024 C2023 1.383 . S
C2024 C2025 1.377 . S
C2025 H2009 0.930 . S
C2025 C2024 1.377 . S
C2025 C2026 1.379 . S
C2026 H2010 0.931 . S
C2026 C2020 1.383 . S
C2026 C2025 1.379 . S
H2027 C2021 0.959 . S
H2028 C2021 0.961 . S
H2029 C2021 0.960 . S
H2030 C2022 0.930 . S
H2031 C2023 0.929 . S
H2032 C2040 0.929 . S
H2033 C2042 0.930 . S
H2034 C2044 0.930 . S
H2035 C2047 0.962 . S
H2036 C2050 0.930 . S
H2037 C2052 0.960 . S
H2038 C2052 0.960 . S
H2039 C2052 0.960 . S
C2040 H2032 0.929 . S
C2040 C2041 1.377 . S
C2040 C2042 1.384 . S
C2041 C2040 1.377 . S
C2041 C2047 1.351 1_565 S
C2042 H2033 0.930 . S
C2042 C2040 1.384 . S
C2042 C2043 1.372 . S
C2043 C2042 1.372 . S
C2043 C2044 1.400 1_565 S
C2043 C2048 1.490 . S
C2044 H2034 0.930 . S
C2044 C2043 1.400 1_545 S
C2044 C2047 1.395 . S
H2045 C2061 0.930 . S
H2046 C2062 0.931 . S
C2047 H2035 0.962 . S
C2047 C2041 1.351 1_545 S
C2047 C2044 1.395 . S
C2048 C2043 1.490 . S
C2048 C2050 1.395 . S
C2048 C2051 1.403 1_565 S
H2049 C2055 0.930 . S
C2050 H2036 0.930 . S
C2050 C2048 1.395 . S
C2050 C2053 1.403 . S
C2051 C2048 1.403 1_545 S
C2051 C2052 1.524 . S
C2051 C2055 1.400 . S
C2052 H2037 0.960 . S
C2052 H2038 0.960 . S
C2052 H2039 0.960 . S
C2052 C2051 1.524 . S
C2053 C2050 1.403 . S
C2053 C2054 1.446 . S
C2053 C2057 1.495 . S
C2054 C2053 1.446 . S
C2054 C2055 1.338 1_565 S
C2054 C2056 1.470 1_565 S
C2055 H2049 0.930 . S
C2055 C2051 1.400 . S
C2055 C2054 1.338 1_545 S
C2056 C2054 1.470 1_545 S
C2056 C2058 1.381 1_545 S
C2056 C2062 1.383 . S
C2057 C2053 1.495 . S
C2057 H2063 0.959 . S
C2057 H2064 0.961 . S
C2057 H2065 0.960 . S
C2058 C2056 1.381 1_565 S
C2058 C2059 1.413 . S
C2058 H2066 0.930 . S
C2059 C2058 1.413 . S
C2059 C2060 1.337 1_565 S
C2059 H2067 0.963 . S
C2060 C2059 1.337 1_545 S
C2060 C2061 1.377 . S
C2061 H2045 0.930 . S
C2061 C2060 1.377 . S
C2061 C2062 1.379 . S
C2062 H2046 0.931 . S
C2062 C2056 1.383 . S
C2062 C2061 1.379 . S
H2063 C2057 0.959 . S
H2064 C2057 0.961 . S
H2065 C2057 0.960 . S
H2066 C2058 0.930 . S
H2067 C2059 0.963 . S
H2068 C2076 0.929 . S
H2069 C2078 0.930 . S
H2070 C2080 0.930 . S
H2071 C2083 0.929 . S
H2072 C2086 0.930 . S
H2073 C2088 0.960 . S
H2074 C2088 0.960 . S
H2075 C2088 0.960 . S
C2076 H2068 0.929 . S
C2076 C2077 1.377 . S
C2076 C2078 1.384 . S
C2077 C2076 1.377 . S
C2077 C2083 1.390 . S
C2078 H2069 0.930 . S
C2078 C2076 1.384 . S
C2078 C2079 1.372 . S
C2079 C2078 1.372 . S
C2079 C2080 1.400 . S
C2079 C2084 1.490 . S
C2080 H2070 0.930 . S
C2080 C2079 1.400 . S
C2080 C2083 1.386 . S
H2081 C2097 0.930 . S
H2082 C2098 0.931 . S
C2083 H2071 0.929 . S
C2083 C2077 1.390 . S
C2083 C2080 1.386 . S
C2084 C2079 1.490 . S
C2084 C2086 1.395 . S
C2084 C2087 1.403 . S
H2085 C2091 0.930 . S
C2086 H2072 0.930 . S
C2086 C2084 1.395 . S
C2086 C2089 1.403 . S
C2087 C2084 1.403 . S
C2087 C2088 1.524 . S
C2087 C2091 1.400 . S
C2088 H2073 0.960 . S
C2088 H2074 0.960 . S
C2088 H2075 0.960 . S
C2088 C2087 1.524 . S
C2089 C2086 1.403 . S
C2089 C2090 1.392 . S
C2089 C2093 1.495 . S
C2090 C2089 1.392 . S
C2090 C2091 1.385 . S
C2090 C2092 1.478 1_554 S
C2091 H2085 0.930 . S
C2091 C2087 1.400 . S
C2091 C2090 1.385 . S
C2092 C2090 1.478 1_556 S
C2092 C2094 1.381 . S
C2092 C2098 1.383 . S
C2093 C2089 1.495 . S
C2093 H2099 0.959 . S
C2093 H2100 0.961 . S
C2093 H2101 0.960 . S
C2094 C2092 1.381 . S
C2094 C2095 1.394 . S
C2094 H2102 0.930 . S
C2095 C2094 1.394 . S
C2095 C2096 1.383 . S
C2095 H2103 0.929 . S
C2096 C2095 1.383 . S
C2096 C2097 1.377 . S
C2097 H2081 0.930 . S
C2097 C2096 1.377 . S
C2097 C2098 1.379 . S
C2098 H2082 0.931 . S
C2098 C2092 1.383 . S
C2098 C2097 1.379 . S
H2099 C2093 0.959 . S
H2100 C2093 0.961 . S
H2101 C2093 0.960 . S
H2102 C2094 0.930 . S
H2103 C2095 0.929 . S
H2104 C2112 0.929 . S
H2105 C2114 0.930 . S
H2106 C2116 0.930 . S
H2107 C2119 0.958 . S
H2108 C2122 0.930 . S
H2109 C2124 0.960 . S
H2110 C2124 0.960 . S
H2111 C2124 0.960 . S
C2112 H2104 0.929 . S
C2112 C2113 1.377 . S
C2112 C2114 1.384 . S
C2113 C2112 1.377 . S
C2113 C2119 1.355 1_565 S
C2114 H2105 0.930 . S
C2114 C2112 1.384 . S
C2114 C2115 1.372 . S
C2115 C2114 1.372 . S
C2115 C2116 1.400 1_565 S
C2115 C2120 1.490 . S
C2116 H2106 0.930 . S
C2116 C2115 1.400 1_545 S
C2116 C2119 1.394 . S
H2117 C2133 0.930 . S
H2118 C2134 0.931 . S
C2119 H2107 0.958 . S
C2119 C2113 1.355 1_545 S
C2119 C2116 1.394 . S
C2120 C2115 1.490 . S
C2120 C2122 1.395 . S
C2120 C2123 1.403 1_565 S
H2121 C2127 0.930 . S
C2122 H2108 0.930 . S
C2122 C2120 1.395 . S
C2122 C2125 1.403 . S
C2123 C2120 1.403 1_545 S
C2123 C2124 1.524 . S
C2123 C2127 1.400 . S
C2124 H2109 0.960 . S
C2124 H2110 0.960 . S
C2124 H2111 0.960 . S
C2124 C2123 1.524 . S
C2125 C2122 1.403 . S
C2125 C2126 1.445 . S
C2125 C2129 1.495 . S
C2126 C2125 1.445 . S
C2126 C2127 1.339 1_565 S
C2126 C2128 1.470 1_565 S
C2127 H2121 0.930 . S
C2127 C2123 1.400 . S
C2127 C2126 1.339 1_545 S
C2128 C2126 1.470 1_545 S
C2128 C2130 1.381 1_545 S
C2128 C2134 1.383 . S
C2129 C2125 1.495 . S
C2129 H2135 0.959 . S
C2129 H2136 0.961 . S
C2129 H2137 0.960 . S
C2130 C2128 1.381 1_565 S
C2130 C2131 1.411 . S
C2130 H2138 0.930 . S
C2131 C2130 1.411 . S
C2131 C2132 1.343 1_565 S
C2131 H2139 0.958 . S
C2132 C2131 1.343 1_545 S
C2132 C2133 1.377 . S
C2133 H2117 0.930 . S
C2133 C2132 1.377 . S
C2133 C2134 1.379 . S
C2134 H2118 0.931 . S
C2134 C2128 1.383 . S
C2134 C2133 1.379 . S
H2135 C2129 0.959 . S
H2136 C2129 0.961 . S
H2137 C2129 0.960 . S
H2138 C2130 0.930 . S
H2139 C2131 0.958 . S
H2140 C2148 0.929 . S
H2141 C2150 0.930 . S
H2142 C2152 0.930 . S
H2143 C2155 0.929 . S
H2144 C2158 0.930 . S
H2145 C2160 0.960 . S
H2146 C2160 0.960 . S
H2147 C2160 0.960 . S
C2148 H2140 0.929 . S
C2148 C2149 1.377 . S
C2148 C2150 1.384 . S
C2149 C2148 1.377 . S
C2149 C2155 1.390 . S
C2150 H2141 0.930 . S
C2150 C2148 1.384 . S
C2150 C2151 1.372 . S
C2151 C2150 1.372 . S
C2151 C2152 1.400 . S
C2151 C2156 1.490 . S
C2152 H2142 0.930 . S
C2152 C2151 1.400 . S
C2152 C2155 1.386 . S
H2153 C2169 0.930 . S
H2154 C2170 0.931 . S
C2155 H2143 0.929 . S
C2155 C2149 1.390 . S
C2155 C2152 1.386 . S
C2156 C2151 1.490 . S
C2156 C2158 1.395 . S
C2156 C2159 1.403 . S
H2157 C2163 0.930 . S
C2158 H2144 0.930 . S
C2158 C2156 1.395 . S
C2158 C2161 1.403 . S
C2159 C2156 1.403 . S
C2159 C2160 1.524 . S
C2159 C2163 1.400 . S
C2160 H2145 0.960 . S
C2160 H2146 0.960 . S
C2160 H2147 0.960 . S
C2160 C2159 1.524 . S
C2161 C2158 1.403 . S
C2161 C2162 1.392 . S
C2161 C2165 1.495 . S
C2162 C2161 1.392 . S
C2162 C2163 1.385 . S
C2162 C2164 1.478 . S
C2163 H2157 0.930 . S
C2163 C2159 1.400 . S
C2163 C2162 1.385 . S
C2164 C2162 1.478 . S
C2164 C2166 1.381 . S
C2164 C2170 1.383 . S
C2165 C2161 1.495 . S
C2165 H2171 0.959 . S
C2165 H2172 0.961 . S
C2165 H2173 0.960 . S
C2166 C2164 1.381 . S
C2166 C2167 1.394 . S
C2166 H2174 0.930 . S
C2167 C2166 1.394 . S
C2167 C2168 1.383 . S
C2167 H2175 0.929 . S
C2168 C2167 1.383 . S
C2168 C2169 1.377 . S
C2169 H2153 0.930 . S
C2169 C2168 1.377 . S
C2169 C2170 1.379 . S
C2170 H2154 0.931 . S
C2170 C2164 1.383 . S
C2170 C2169 1.379 . S
H2171 C2165 0.959 . S
H2172 C2165 0.961 . S
H2173 C2165 0.960 . S
H2174 C2166 0.930 . S
H2175 C2167 0.929 . S
H2176 C2184 0.929 . S
H2177 C2186 0.930 . S
H2178 C2188 0.930 . S
H2179 C2191 0.929 . S
H2180 C2194 0.930 . S
H2181 C2196 0.960 . S
H2182 C2196 0.960 . S
H2183 C2196 0.960 . S
C2184 H2176 0.929 . S
C2184 C2185 1.377 . S
C2184 C2186 1.384 . S
C2185 C2184 1.377 . S
C2185 C2191 1.390 . S
C2186 H2177 0.930 . S
C2186 C2184 1.384 . S
C2186 C2187 1.372 . S
C2187 C2186 1.372 . S
C2187 C2188 1.400 . S
C2187 C2192 1.490 . S
C2188 H2178 0.930 . S
C2188 C2187 1.400 . S
C2188 C2191 1.386 . S
H2189 C2205 0.930 . S
H2190 C2206 0.931 . S
C2191 H2179 0.929 . S
C2191 C2185 1.390 . S
C2191 C2188 1.386 . S
C2192 C2187 1.490 . S
C2192 C2194 1.395 . S
C2192 C2195 1.403 . S
H2193 C2199 0.930 . S
C2194 H2180 0.930 . S
C2194 C2192 1.395 . S
C2194 C2197 1.403 . S
C2195 C2192 1.403 . S
C2195 C2196 1.524 . S
C2195 C2199 1.400 . S
C2196 H2181 0.960 . S
C2196 H2182 0.960 . S
C2196 H2183 0.960 . S
C2196 C2195 1.524 . S
C2197 C2194 1.403 . S
C2197 C2198 1.392 . S
C2197 C2201 1.495 . S
C2198 C2197 1.392 . S
C2198 C2199 1.385 . S
C2198 C2200 1.478 . S
C2199 H2193 0.930 . S
C2199 C2195 1.400 . S
C2199 C2198 1.385 . S
C2200 C2198 1.478 . S
C2200 C2202 1.381 . S
C2200 C2206 1.383 . S
C2201 C2197 1.495 . S
C2201 H2207 0.959 . S
C2201 H2208 0.961 . S
C2201 H2209 0.960 . S
C2202 C2200 1.381 . S
C2202 C2203 1.394 . S
C2202 H2210 0.930 . S
C2203 C2202 1.394 . S
C2203 C2204 1.383 . S
C2203 H2211 0.929 . S
C2204 C2203 1.383 . S
C2204 C2205 1.377 . S
C2205 H2189 0.930 . S
C2205 C2204 1.377 . S
C2205 C2206 1.379 . S
C2206 H2190 0.931 . S
C2206 C2200 1.383 . S
C2206 C2205 1.379 . S
H2207 C2201 0.959 . S
H2208 C2201 0.961 . S
H2209 C2201 0.960 . S
H2210 C2202 0.930 . S
H2211 C2203 0.929 . S
H2212 C2220 0.929 . S
H2213 C2222 0.930 . S
H2214 C2224 0.930 . S
H2215 C2227 0.929 . S
H2216 C2230 0.930 . S
H2217 C2232 0.960 . S
H2218 C2232 0.960 . S
H2219 C2232 0.960 . S
C2220 H2212 0.929 . S
C2220 C2221 1.377 . S
C2220 C2222 1.384 . S
C2221 C2220 1.377 . S
C2221 C2227 1.390 . S
C2222 H2213 0.930 . S
C2222 C2220 1.384 . S
C2222 C2223 1.372 . S
C2223 C2222 1.372 . S
C2223 C2224 1.400 . S
C2223 C2228 1.490 . S
C2224 H2214 0.930 . S
C2224 C2223 1.400 . S
C2224 C2227 1.386 . S
H2225 C2241 0.930 . S
H2226 C2242 0.931 . S
C2227 H2215 0.929 . S
C2227 C2221 1.390 . S
C2227 C2224 1.386 . S
C2228 C2223 1.490 . S
C2228 C2230 1.395 . S
C2228 C2231 1.403 . S
H2229 C2235 0.930 . S
C2230 H2216 0.930 . S
C2230 C2228 1.395 . S
C2230 C2233 1.403 . S
C2231 C2228 1.403 . S
C2231 C2232 1.524 . S
C2231 C2235 1.400 . S
C2232 H2217 0.960 . S
C2232 H2218 0.960 . S
C2232 H2219 0.960 . S
C2232 C2231 1.524 . S
C2233 C2230 1.403 . S
C2233 C2234 1.392 . S
C2233 C2237 1.495 . S
C2234 C2233 1.392 . S
C2234 C2235 1.385 . S
C2234 C2236 1.478 . S
C2235 H2229 0.930 . S
C2235 C2231 1.400 . S
C2235 C2234 1.385 . S
C2236 C2234 1.478 . S
C2236 C2238 1.381 . S
C2236 C2242 1.383 . S
C2237 C2233 1.495 . S
C2237 H2243 0.959 . S
C2237 H2244 0.961 . S
C2237 H2245 0.960 . S
C2238 C2236 1.381 . S
C2238 C2239 1.394 . S
C2238 H2246 0.930 . S
C2239 C2238 1.394 . S
C2239 C2240 1.383 . S
C2239 H2247 0.929 . S
C2240 C2239 1.383 . S
C2240 C2241 1.377 . S
C2241 H2225 0.930 . S
C2241 C2240 1.377 . S
C2241 C2242 1.379 . S
C2242 H2226 0.931 . S
C2242 C2236 1.383 . S
C2242 C2241 1.379 . S
H2243 C2237 0.959 . S
H2244 C2237 0.961 . S
H2245 C2237 0.960 . S
H2246 C2238 0.930 . S
H2247 C2239 0.929 . S
H2248 C2256 0.929 . S
H2249 C2258 0.930 . S
H2250 C2260 0.930 . S
H2251 C2263 0.929 . S
H2252 C2266 0.930 . S
H2253 C2268 0.960 . S
H2254 C2268 0.960 . S
H2255 C2268 0.960 . S
C2256 H2248 0.929 . S
C2256 C2257 1.377 . S
C2256 C2258 1.384 . S
C2257 C2256 1.377 . S
C2257 C2263 1.390 . S
C2258 H2249 0.930 . S
C2258 C2256 1.384 . S
C2258 C2259 1.372 . S
C2259 C2258 1.372 . S
C2259 C2260 1.400 . S
C2259 C2264 1.490 . S
C2260 H2250 0.930 . S
C2260 C2259 1.400 . S
C2260 C2263 1.386 . S
H2261 C2277 0.930 . S
H2262 C2278 0.931 . S
C2263 H2251 0.929 . S
C2263 C2257 1.390 . S
C2263 C2260 1.386 . S
C2264 C2259 1.490 . S
C2264 C2266 1.395 . S
C2264 C2267 1.403 . S
H2265 C2271 0.930 . S
C2266 H2252 0.930 . S
C2266 C2264 1.395 . S
C2266 C2269 1.403 . S
C2267 C2264 1.403 . S
C2267 C2268 1.524 . S
C2267 C2271 1.400 . S
C2268 H2253 0.960 . S
C2268 H2254 0.960 . S
C2268 H2255 0.960 . S
C2268 C2267 1.524 . S
C2269 C2266 1.403 . S
C2269 C2270 1.392 . S
C2269 C2273 1.495 . S
C2270 C2269 1.392 . S
C2270 C2271 1.385 . S
C2270 C2272 1.478 . S
C2271 H2265 0.930 . S
C2271 C2267 1.400 . S
C2271 C2270 1.385 . S
C2272 C2270 1.478 . S
C2272 C2274 1.381 . S
C2272 C2278 1.383 . S
C2273 C2269 1.495 . S
C2273 H2279 0.959 . S
C2273 H2280 0.961 . S
C2273 H2281 0.960 . S
C2274 C2272 1.381 . S
C2274 C2275 1.394 . S
C2274 H2282 0.930 . S
C2275 C2274 1.394 . S
C2275 C2276 1.383 . S
C2275 H2283 0.929 . S
C2276 C2275 1.383 . S
C2276 C2277 1.377 . S
C2277 H2261 0.930 . S
C2277 C2276 1.377 . S
C2277 C2278 1.379 . S
C2278 H2262 0.931 . S
C2278 C2272 1.383 . S
C2278 C2277 1.379 . S
H2279 C2273 0.959 . S
H2280 C2273 0.961 . S
H2281 C2273 0.960 . S
H2282 C2274 0.930 . S
H2283 C2275 0.929 . S
H2284 C2292 0.929 . S
H2285 C2294 0.930 . S
H2286 C2296 0.930 . S
H2287 C2299 0.929 . S
H2288 C2302 0.930 . S
H2289 C2304 0.960 . S
H2290 C2304 0.960 . S
H2291 C2304 0.960 . S
C2292 H2284 0.929 . S
C2292 C2293 1.377 . S
C2292 C2294 1.384 . S
C2293 C2292 1.377 . S
C2293 C2299 1.390 . S
C2294 H2285 0.930 . S
C2294 C2292 1.384 . S
C2294 C2295 1.372 . S
C2295 C2294 1.372 . S
C2295 C2296 1.400 . S
C2295 C2300 1.490 . S
C2296 H2286 0.930 . S
C2296 C2295 1.400 . S
C2296 C2299 1.386 . S
H2297 C2313 0.930 . S
H2298 C2314 0.931 . S
C2299 H2287 0.929 . S
C2299 C2293 1.390 . S
C2299 C2296 1.386 . S
C2300 C2295 1.490 . S
C2300 C2302 1.395 . S
C2300 C2303 1.403 . S
H2301 C2307 0.930 . S
C2302 H2288 0.930 . S
C2302 C2300 1.395 . S
C2302 C2305 1.403 . S
C2303 C2300 1.403 . S
C2303 C2304 1.524 . S
C2303 C2307 1.400 . S
C2304 H2289 0.960 . S
C2304 H2290 0.960 . S
C2304 H2291 0.960 . S
C2304 C2303 1.524 . S
C2305 C2302 1.403 . S
C2305 C2306 1.392 . S
C2305 C2309 1.495 . S
C2306 C2305 1.392 . S
C2306 C2307 1.385 . S
C2306 C2308 1.478 . S
C2307 H2301 0.930 . S
C2307 C2303 1.400 . S
C2307 C2306 1.385 . S
C2308 C2306 1.478 . S
C2308 C2310 1.381 1_556 S
C2308 C2314 1.383 . S
C2309 C2305 1.495 . S
C2309 H2315 0.959 . S
C2309 H2316 0.961 . S
C2309 H2317 0.960 . S
C2310 C2308 1.381 1_554 S
C2310 C2311 1.394 . S
C2310 H2318 0.930 . S
C2311 C2310 1.394 . S
C2311 C2312 1.383 . S
C2311 H2319 0.929 . S
C2312 C2311 1.383 . S
C2312 C2313 1.377 1_554 S
C2313 H2297 0.930 . S
C2313 C2312 1.377 1_556 S
C2313 C2314 1.379 . S
C2314 H2298 0.931 . S
C2314 C2308 1.383 . S
C2314 C2313 1.379 . S
H2315 C2309 0.959 . S
H2316 C2309 0.961 . S
H2317 C2309 0.960 . S
H2318 C2310 0.930 . S
H2319 C2311 0.929 . S
H2320 C2328 0.929 . S
H2321 C2330 0.930 . S
H2322 C2332 0.930 . S
H2323 C2335 0.929 . S
H2324 C2338 0.930 . S
H2325 C2340 0.960 . S
H2326 C2340 0.960 . S
H2327 C2340 0.960 . S
C2328 H2320 0.929 . S
C2328 C2329 1.377 . S
C2328 C2330 1.384 . S
C2329 C2328 1.377 . S
C2329 C2335 1.390 . S
C2330 H2321 0.930 . S
C2330 C2328 1.384 . S
C2330 C2331 1.372 . S
C2331 C2330 1.372 . S
C2331 C2332 1.400 . S
C2331 C2336 1.490 . S
C2332 H2322 0.930 . S
C2332 C2331 1.400 . S
C2332 C2335 1.386 . S
H2333 C2349 0.930 . S
H2334 C2350 0.931 . S
C2335 H2323 0.929 . S
C2335 C2329 1.390 . S
C2335 C2332 1.386 . S
C2336 C2331 1.490 . S
C2336 C2338 1.395 . S
C2336 C2339 1.403 . S
H2337 C2343 0.930 . S
C2338 H2324 0.930 . S
C2338 C2336 1.395 . S
C2338 C2341 1.403 . S
C2339 C2336 1.403 . S
C2339 C2340 1.524 . S
C2339 C2343 1.400 . S
C2340 H2325 0.960 . S
C2340 H2326 0.960 . S
C2340 H2327 0.960 . S
C2340 C2339 1.524 . S
C2341 C2338 1.403 . S
C2341 C2342 1.392 . S
C2341 C2345 1.495 . S
C2342 C2341 1.392 . S
C2342 C2343 1.385 . S
C2342 C2344 1.478 . S
C2343 H2337 0.930 . S
C2343 C2339 1.400 . S
C2343 C2342 1.385 . S
C2344 C2342 1.478 . S
C2344 C2346 1.381 . S
C2344 C2350 1.383 . S
C2345 C2341 1.495 . S
C2345 H2351 0.959 . S
C2345 H2352 0.961 . S
C2345 H2353 0.960 . S
C2346 C2344 1.381 . S
C2346 C2347 1.394 . S
C2346 H2354 0.930 . S
C2347 C2346 1.394 . S
C2347 C2348 1.383 . S
C2347 H2355 0.929 . S
C2348 C2347 1.383 . S
C2348 C2349 1.377 . S
C2349 H2333 0.930 . S
C2349 C2348 1.377 . S
C2349 C2350 1.379 . S
C2350 H2334 0.931 . S
C2350 C2344 1.383 . S
C2350 C2349 1.379 . S
H2351 C2345 0.959 . S
H2352 C2345 0.961 . S
H2353 C2345 0.960 . S
H2354 C2346 0.930 . S
H2355 C2347 0.929 . S
H2356 C2364 0.929 . S
H2357 C2366 0.930 . S
H2358 C2368 0.930 . S
H2359 C2371 0.929 . S
H2360 C2374 0.930 . S
H2361 C2376 0.960 . S
H2362 C2376 0.960 . S
H2363 C2376 0.960 . S
C2364 H2356 0.929 . S
C2364 C2365 1.377 . S
C2364 C2366 1.384 . S
C2365 C2364 1.377 . S
C2365 C2371 1.390 . S
C2366 H2357 0.930 . S
C2366 C2364 1.384 . S
C2366 C2367 1.372 . S
C2367 C2366 1.372 . S
C2367 C2368 1.400 . S
C2367 C2372 1.490 . S
C2368 H2358 0.930 . S
C2368 C2367 1.400 . S
C2368 C2371 1.386 . S
H2369 C2385 0.930 . S
H2370 C2386 0.931 . S
C2371 H2359 0.929 . S
C2371 C2365 1.390 . S
C2371 C2368 1.386 . S
C2372 C2367 1.490 . S
C2372 C2374 1.395 . S
C2372 C2375 1.403 . S
H2373 C2379 0.930 . S
C2374 H2360 0.930 . S
C2374 C2372 1.395 . S
C2374 C2377 1.403 . S
C2375 C2372 1.403 . S
C2375 C2376 1.524 . S
C2375 C2379 1.400 . S
C2376 H2361 0.960 . S
C2376 H2362 0.960 . S
C2376 H2363 0.960 . S
C2376 C2375 1.524 . S
C2377 C2374 1.403 . S
C2377 C2378 1.392 . S
C2377 C2381 1.495 . S
C2378 C2377 1.392 . S
C2378 C2379 1.385 . S
C2378 C2380 1.478 . S
C2379 H2373 0.930 . S
C2379 C2375 1.400 . S
C2379 C2378 1.385 . S
C2380 C2378 1.478 . S
C2380 C2382 1.381 . S
C2380 C2386 1.383 . S
C2381 C2377 1.495 . S
C2381 H2387 0.959 . S
C2381 H2388 0.961 . S
C2381 H2389 0.960 . S
C2382 C2380 1.381 . S
C2382 C2383 1.394 . S
C2382 H2390 0.930 . S
C2383 C2382 1.394 . S
C2383 C2384 1.383 . S
C2383 H2391 0.929 . S
C2384 C2383 1.383 . S
C2384 C2385 1.377 . S
C2385 H2369 0.930 . S
C2385 C2384 1.377 . S
C2385 C2386 1.379 . S
C2386 H2370 0.931 . S
C2386 C2380 1.383 . S
C2386 C2385 1.379 . S
H2387 C2381 0.959 . S
H2388 C2381 0.961 . S
H2389 C2381 0.960 . S
H2390 C2382 0.930 . S
H2391 C2383 0.929 . S
H2392 C2400 0.929 . S
H2393 C2402 0.930 . S
H2394 C2404 0.930 . S
H2395 C2407 0.929 . S
H2396 C2410 0.930 . S
H2397 C2412 0.960 . S
H2398 C2412 0.960 . S
H2399 C2412 0.960 . S
C2400 H2392 0.929 . S
C2400 C2401 1.377 . S
C2400 C2402 1.384 . S
C2401 C2400 1.377 . S
C2401 C2407 1.390 . S
C2402 H2393 0.930 . S
C2402 C2400 1.384 . S
C2402 C2403 1.372 . S
C2403 C2402 1.372 . S
C2403 C2404 1.400 . S
C2403 C2408 1.490 . S
C2404 H2394 0.930 . S
C2404 C2403 1.400 . S
C2404 C2407 1.386 . S
H2405 C2421 0.930 . S
H2406 C2422 0.931 . S
C2407 H2395 0.929 . S
C2407 C2401 1.390 . S
C2407 C2404 1.386 . S
C2408 C2403 1.490 . S
C2408 C2410 1.395 . S
C2408 C2411 1.403 . S
H2409 C2415 0.930 . S
C2410 H2396 0.930 . S
C2410 C2408 1.395 . S
C2410 C2413 1.403 . S
C2411 C2408 1.403 . S
C2411 C2412 1.524 . S
C2411 C2415 1.400 . S
C2412 H2397 0.960 . S
C2412 H2398 0.960 . S
C2412 H2399 0.960 . S
C2412 C2411 1.524 . S
C2413 C2410 1.403 . S
C2413 C2414 1.392 . S
C2413 C2417 1.495 1_556 S
C2414 C2413 1.392 . S
C2414 C2415 1.385 . S
C2414 C2416 1.478 . S
C2415 H2409 0.930 . S
C2415 C2411 1.400 . S
C2415 C2414 1.385 . S
C2416 C2414 1.478 . S
C2416 C2418 1.381 1_556 S
C2416 C2422 1.383 . S
C2417 C2413 1.495 1_554 S
C2417 H2423 0.959 . S
C2417 H2424 0.961 . S
C2417 H2425 0.960 . S
C2418 C2416 1.381 1_554 S
C2418 C2419 1.394 . S
C2418 H2426 0.930 . S
C2419 C2418 1.394 . S
C2419 C2420 1.383 . S
C2419 H2427 0.929 . S
C2420 C2419 1.383 . S
C2420 C2421 1.377 1_554 S
C2421 H2405 0.930 . S
C2421 C2420 1.377 1_556 S
C2421 C2422 1.379 . S
C2422 H2406 0.931 . S
C2422 C2416 1.383 . S
C2422 C2421 1.379 . S
H2423 C2417 0.959 . S
H2424 C2417 0.961 . S
H2425 C2417 0.960 . S
H2426 C2418 0.930 . S
H2427 C2419 0.929 . S
H2428 C2436 0.929 . S
H2429 C2438 0.930 . S
H2430 C2440 0.930 . S
H2431 C2443 0.929 . S
H2432 C2446 0.930 . S
H2433 C2448 0.960 . S
H2434 C2448 0.960 . S
H2435 C2448 0.960 . S
C2436 H2428 0.929 . S
C2436 C2437 1.377 . S
C2436 C2438 1.384 . S
C2437 C2436 1.377 . S
C2437 C2443 1.390 . S
C2438 H2429 0.930 . S
C2438 C2436 1.384 . S
C2438 C2439 1.372 . S
C2439 C2438 1.372 . S
C2439 C2440 1.400 . S
C2439 C2444 1.490 . S
C2440 H2430 0.930 . S
C2440 C2439 1.400 . S
C2440 C2443 1.386 . S
H2441 C2457 0.930 . S
H2442 C2458 0.931 . S
C2443 H2431 0.929 . S
C2443 C2437 1.390 . S
C2443 C2440 1.386 . S
C2444 C2439 1.490 . S
C2444 C2446 1.395 . S
C2444 C2447 1.403 . S
H2445 C2451 0.930 . S
C2446 H2432 0.930 . S
C2446 C2444 1.395 . S
C2446 C2449 1.403 . S
C2447 C2444 1.403 . S
C2447 C2448 1.524 . S
C2447 C2451 1.400 . S
C2448 H2433 0.960 . S
C2448 H2434 0.960 . S
C2448 H2435 0.960 . S
C2448 C2447 1.524 . S
C2449 C2446 1.403 . S
C2449 C2450 1.392 . S
C2449 C2453 1.495 . S
C2450 C2449 1.392 . S
C2450 C2451 1.385 . S
C2450 C2452 1.478 . S
C2451 H2445 0.930 . S
C2451 C2447 1.400 . S
C2451 C2450 1.385 . S
C2452 C2450 1.478 . S
C2452 C2454 1.381 . S
C2452 C2458 1.383 . S
C2453 C2449 1.495 . S
C2453 H2459 0.959 . S
C2453 H2460 0.961 . S
C2453 H2461 0.960 . S
C2454 C2452 1.381 . S
C2454 C2455 1.394 . S
C2454 H2462 0.930 . S
C2455 C2454 1.394 . S
C2455 C2456 1.383 . S
C2455 H2463 0.929 . S
C2456 C2455 1.383 . S
C2456 C2457 1.377 . S
C2457 H2441 0.930 . S
C2457 C2456 1.377 . S
C2457 C2458 1.379 . S
C2458 H2442 0.931 . S
C2458 C2452 1.383 . S
C2458 C2457 1.379 . S
H2459 C2453 0.959 . S
H2460 C2453 0.961 . S
H2461 C2453 0.960 . S
H2462 C2454 0.930 . S
H2463 C2455 0.929 . S
H2464 C2472 0.929 . S
H2465 C2474 0.930 . S
H2466 C2476 0.930 . S
H2467 C2479 0.929 . S
H2468 C2482 0.930 1_554 S
H2469 C2484 0.960 . S
H2470 C2484 0.960 . S
H2471 C2484 0.960 . S
C2472 H2464 0.929 . S
C2472 C2473 1.377 . S
C2472 C2474 1.384 . S
C2473 C2472 1.377 . S
C2473 C2479 1.390 1_554 S
C2474 H2465 0.930 . S
C2474 C2472 1.384 . S
C2474 C2475 1.372 1_554 S
C2475 C2474 1.372 1_556 S
C2475 C2476 1.400 . S
C2475 C2480 1.490 . S
C2476 H2466 0.930 . S
C2476 C2475 1.400 . S
C2476 C2479 1.386 . S
H2477 C2493 0.930 . S
H2478 C2494 0.931 . S
C2479 H2467 0.929 . S
C2479 C2473 1.390 1_556 S
C2479 C2476 1.386 . S
C2480 C2475 1.490 . S
C2480 C2482 1.395 . S
C2480 C2483 1.403 . S
H2481 C2487 0.930 . S
C2482 H2468 0.930 1_556 S
C2482 C2480 1.395 . S
C2482 C2485 1.403 . S
C2483 C2480 1.403 . S
C2483 C2484 1.524 . S
C2483 C2487 1.400 . S
C2484 H2469 0.960 . S
C2484 H2470 0.960 . S
C2484 H2471 0.960 . S
C2484 C2483 1.524 . S
C2485 C2482 1.403 . S
C2485 C2486 1.392 . S
C2485 C2489 1.495 . S
C2486 C2485 1.392 . S
C2486 C2487 1.385 . S
C2486 C2488 1.478 . S
C2487 H2481 0.930 . S
C2487 C2483 1.400 . S
C2487 C2486 1.385 . S
C2488 C2486 1.478 . S
C2488 C2490 1.381 . S
C2488 C2494 1.383 . S
C2489 C2485 1.495 . S
C2489 H2495 0.959 1_556 S
C2489 H2496 0.961 . S
C2489 H2497 0.960 . S
C2490 C2488 1.381 . S
C2490 C2491 1.394 . S
C2490 H2498 0.930 . S
C2491 C2490 1.394 . S
C2491 C2492 1.383 . S
C2491 H2499 0.929 . S
C2492 C2491 1.383 . S
C2492 C2493 1.377 . S
C2493 H2477 0.930 . S
C2493 C2492 1.377 . S
C2493 C2494 1.379 . S
C2494 H2478 0.931 . S
C2494 C2488 1.383 . S
C2494 C2493 1.379 . S
H2495 C2489 0.959 1_554 S
H2496 C2489 0.961 . S
H2497 C2489 0.960 . S
H2498 C2490 0.930 . S
H2499 C2491 0.929 . S
H2500 C2508 0.929 . S
H2501 C2510 0.930 . S
H2502 C2512 0.930 . S
H2503 C2515 0.929 . S
H2504 C2518 0.930 . S
H2505 C2520 0.960 . S
H2506 C2520 0.960 . S
H2507 C2520 0.960 . S
C2508 H2500 0.929 . S
C2508 C2509 1.377 . S
C2508 C2510 1.384 . S
C2509 C2508 1.377 . S
C2509 C2515 1.390 . S
C2510 H2501 0.930 . S
C2510 C2508 1.384 . S
C2510 C2511 1.372 . S
C2511 C2510 1.372 . S
C2511 C2512 1.400 . S
C2511 C2516 1.490 . S
C2512 H2502 0.930 . S
C2512 C2511 1.400 . S
C2512 C2515 1.386 . S
H2513 C2529 0.930 . S
H2514 C2530 0.931 . S
C2515 H2503 0.929 . S
C2515 C2509 1.390 . S
C2515 C2512 1.386 . S
C2516 C2511 1.490 . S
C2516 C2518 1.395 . S
C2516 C2519 1.403 . S
H2517 C2523 0.930 . S
C2518 H2504 0.930 . S
C2518 C2516 1.395 . S
C2518 C2521 1.403 . S
C2519 C2516 1.403 . S
C2519 C2520 1.524 . S
C2519 C2523 1.400 . S
C2520 H2505 0.960 . S
C2520 H2506 0.960 . S
C2520 H2507 0.960 . S
C2520 C2519 1.524 . S
C2521 C2518 1.403 . S
C2521 C2522 1.392 . S
C2521 C2525 1.495 . S
C2522 C2521 1.392 . S
C2522 C2523 1.385 . S
C2522 C2524 1.478 . S
C2523 H2517 0.930 . S
C2523 C2519 1.400 . S
C2523 C2522 1.385 . S
C2524 C2522 1.478 . S
C2524 C2526 1.381 . S
C2524 C2530 1.383 . S
C2525 C2521 1.495 . S
C2525 H2531 0.959 . S
C2525 H2532 0.961 . S
C2525 H2533 0.960 . S
C2526 C2524 1.381 . S
C2526 C2527 1.394 . S
C2526 H2534 0.930 . S
C2527 C2526 1.394 . S
C2527 C2528 1.383 . S
C2527 H2535 0.929 . S
C2528 C2527 1.383 . S
C2528 C2529 1.377 . S
C2529 H2513 0.930 . S
C2529 C2528 1.377 . S
C2529 C2530 1.379 . S
C2530 H2514 0.931 . S
C2530 C2524 1.383 . S
C2530 C2529 1.379 . S
H2531 C2525 0.959 . S
H2532 C2525 0.961 . S
H2533 C2525 0.960 . S
H2534 C2526 0.930 . S
H2535 C2527 0.929 . S
H2536 C2544 0.929 . S
H2537 C2546 0.930 . S
H2538 C2548 0.930 . S
H2539 C2551 0.929 . S
H2540 C2554 0.930 . S
H2541 C2556 0.960 . S
H2542 C2556 0.960 . S
H2543 C2556 0.960 . S
C2544 H2536 0.929 . S
C2544 C2545 1.377 . S
C2544 C2546 1.384 . S
C2545 C2544 1.377 . S
C2545 C2551 1.390 . S
C2546 H2537 0.930 . S
C2546 C2544 1.384 . S
C2546 C2547 1.372 . S
C2547 C2546 1.372 . S
C2547 C2548 1.400 . S
C2547 C2552 1.490 . S
C2548 H2538 0.930 . S
C2548 C2547 1.400 . S
C2548 C2551 1.386 . S
H2549 C2565 0.930 . S
H2550 C2566 0.931 . S
C2551 H2539 0.929 . S
C2551 C2545 1.390 . S
C2551 C2548 1.386 . S
C2552 C2547 1.490 . S
C2552 C2554 1.395 . S
C2552 C2555 1.403 . S
H2553 C2559 0.930 . S
C2554 H2540 0.930 . S
C2554 C2552 1.395 . S
C2554 C2557 1.403 . S
C2555 C2552 1.403 . S
C2555 C2556 1.524 . S
C2555 C2559 1.400 . S
C2556 H2541 0.960 . S
C2556 H2542 0.960 . S
C2556 H2543 0.960 . S
C2556 C2555 1.524 . S
C2557 C2554 1.403 . S
C2557 C2558 1.392 . S
C2557 C2561 1.495 . S
C2558 C2557 1.392 . S
C2558 C2559 1.385 . S
C2558 C2560 1.478 . S
C2559 H2553 0.930 . S
C2559 C2555 1.400 . S
C2559 C2558 1.385 . S
C2560 C2558 1.478 . S
C2560 C2562 1.381 . S
C2560 C2566 1.383 . S
C2561 C2557 1.495 . S
C2561 H2567 0.959 . S
C2561 H2568 0.961 . S
C2561 H2569 0.960 . S
C2562 C2560 1.381 . S
C2562 C2563 1.394 . S
C2562 H2570 0.930 . S
C2563 C2562 1.394 . S
C2563 C2564 1.383 . S
C2563 H2571 0.929 . S
C2564 C2563 1.383 . S
C2564 C2565 1.377 . S
C2565 H2549 0.930 . S
C2565 C2564 1.377 . S
C2565 C2566 1.379 . S
C2566 H2550 0.931 . S
C2566 C2560 1.383 . S
C2566 C2565 1.379 . S
H2567 C2561 0.959 . S
H2568 C2561 0.961 . S
H2569 C2561 0.960 . S
H2570 C2562 0.930 . S
H2571 C2563 0.929 . S
H2572 C2580 0.929 . S
H2573 C2582 0.930 . S
H2574 C2584 0.930 . S
H2575 C2587 0.929 . S
H2576 C2590 0.930 . S
H2577 C2592 0.960 . S
H2578 C2592 0.960 . S
H2579 C2592 0.960 . S
C2580 H2572 0.929 . S
C2580 C2581 1.377 . S
C2580 C2582 1.384 . S
C2581 C2580 1.377 . S
C2581 C2587 1.390 . S
C2582 H2573 0.930 . S
C2582 C2580 1.384 . S
C2582 C2583 1.372 . S
C2583 C2582 1.372 . S
C2583 C2584 1.400 . S
C2583 C2588 1.490 . S
C2584 H2574 0.930 . S
C2584 C2583 1.400 . S
C2584 C2587 1.386 . S
H2585 C2601 0.930 . S
H2586 C2602 0.931 . S
C2587 H2575 0.929 . S
C2587 C2581 1.390 . S
C2587 C2584 1.386 . S
C2588 C2583 1.490 . S
C2588 C2590 1.395 . S
C2588 C2591 1.403 . S
H2589 C2595 0.930 . S
C2590 H2576 0.930 . S
C2590 C2588 1.395 . S
C2590 C2593 1.403 . S
C2591 C2588 1.403 . S
C2591 C2592 1.524 . S
C2591 C2595 1.400 . S
C2592 H2577 0.960 . S
C2592 H2578 0.960 . S
C2592 H2579 0.960 . S
C2592 C2591 1.524 . S
C2593 C2590 1.403 . S
C2593 C2594 1.392 . S
C2593 C2597 1.495 . S
C2594 C2593 1.392 . S
C2594 C2595 1.385 . S
C2594 C2596 1.478 . S
C2595 H2589 0.930 . S
C2595 C2591 1.400 . S
C2595 C2594 1.385 . S
C2596 C2594 1.478 . S
C2596 C2598 1.381 . S
C2596 C2602 1.383 . S
C2597 C2593 1.495 . S
C2597 H2603 0.959 . S
C2597 H2604 0.961 . S
C2597 H2605 0.960 . S
C2598 C2596 1.381 . S
C2598 C2599 1.394 . S
C2598 H2606 0.930 . S
C2599 C2598 1.394 . S
C2599 C2600 1.383 . S
C2599 H2607 0.929 . S
C2600 C2599 1.383 . S
C2600 C2601 1.377 . S
C2601 H2585 0.930 . S
C2601 C2600 1.377 . S
C2601 C2602 1.379 . S
C2602 H2586 0.931 . S
C2602 C2596 1.383 . S
C2602 C2601 1.379 . S
H2603 C2597 0.959 . S
H2604 C2597 0.961 . S
H2605 C2597 0.960 . S
H2606 C2598 0.930 . S
H2607 C2599 0.929 . S
H2608 C2616 0.929 . S
H2609 C2618 0.930 . S
H2610 C2620 0.930 . S
H2611 C2623 0.929 . S
H2612 C2626 0.930 . S
H2613 C2628 0.960 . S
H2614 C2628 0.960 . S
H2615 C2628 0.960 . S
C2616 H2608 0.929 . S
C2616 C2617 1.377 . S
C2616 C2618 1.384 . S
C2617 C2616 1.377 . S
C2617 C2623 1.390 . S
C2618 H2609 0.930 . S
C2618 C2616 1.384 . S
C2618 C2619 1.372 . S
C2619 C2618 1.372 . S
C2619 C2620 1.400 . S
C2619 C2624 1.490 . S
C2620 H2610 0.930 . S
C2620 C2619 1.400 . S
C2620 C2623 1.386 . S
H2621 C2637 0.930 . S
H2622 C2638 0.931 . S
C2623 H2611 0.929 . S
C2623 C2617 1.390 . S
C2623 C2620 1.386 . S
C2624 C2619 1.490 . S
C2624 C2626 1.395 . S
C2624 C2627 1.403 . S
H2625 C2631 0.930 . S
C2626 H2612 0.930 . S
C2626 C2624 1.395 . S
C2626 C2629 1.403 . S
C2627 C2624 1.403 . S
C2627 C2628 1.524 . S
C2627 C2631 1.400 . S
C2628 H2613 0.960 . S
C2628 H2614 0.960 . S
C2628 H2615 0.960 . S
C2628 C2627 1.524 . S
C2629 C2626 1.403 . S
C2629 C2630 1.392 . S
C2629 C2633 1.495 . S
C2630 C2629 1.392 . S
C2630 C2631 1.385 . S
C2630 C2632 1.478 . S
C2631 H2625 0.930 . S
C2631 C2627 1.400 . S
C2631 C2630 1.385 . S
C2632 C2630 1.478 . S
C2632 C2634 1.381 . S
C2632 C2638 1.383 . S
C2633 C2629 1.495 . S
C2633 H2639 0.959 . S
C2633 H2640 0.961 . S
C2633 H2641 0.960 . S
C2634 C2632 1.381 . S
C2634 C2635 1.394 . S
C2634 H2642 0.930 . S
C2635 C2634 1.394 . S
C2635 C2636 1.383 . S
C2635 H2643 0.929 . S
C2636 C2635 1.383 . S
C2636 C2637 1.377 . S
C2637 H2621 0.930 . S
C2637 C2636 1.377 . S
C2637 C2638 1.379 . S
C2638 H2622 0.931 . S
C2638 C2632 1.383 . S
C2638 C2637 1.379 . S
H2639 C2633 0.959 . S
H2640 C2633 0.961 . S
H2641 C2633 0.960 . S
H2642 C2634 0.930 . S
H2643 C2635 0.929 . S
H2644 C2652 0.929 . S
H2645 C2654 0.930 . S
H2646 C2656 0.930 . S
H2647 C2659 0.929 . S
H2648 C2662 0.930 . S
H2649 C2664 0.960 . S
H2650 C2664 0.960 . S
H2651 C2664 0.960 . S
C2652 H2644 0.929 . S
C2652 C2653 1.377 . S
C2652 C2654 1.384 . S
C2653 C2652 1.377 . S
C2653 C2659 1.390 . S
C2654 H2645 0.930 . S
C2654 C2652 1.384 . S
C2654 C2655 1.372 . S
C2655 C2654 1.372 . S
C2655 C2656 1.400 . S
C2655 C2660 1.490 . S
C2656 H2646 0.930 . S
C2656 C2655 1.400 . S
C2656 C2659 1.386 . S
H2657 C2673 0.930 . S
H2658 C2674 0.931 . S
C2659 H2647 0.929 . S
C2659 C2653 1.390 . S
C2659 C2656 1.386 . S
C2660 C2655 1.490 . S
C2660 C2662 1.395 . S
C2660 C2663 1.403 . S
H2661 C2667 0.930 . S
C2662 H2648 0.930 . S
C2662 C2660 1.395 . S
C2662 C2665 1.403 . S
C2663 C2660 1.403 . S
C2663 C2664 1.524 . S
C2663 C2667 1.400 . S
C2664 H2649 0.960 . S
C2664 H2650 0.960 . S
C2664 H2651 0.960 . S
C2664 C2663 1.524 . S
C2665 C2662 1.403 . S
C2665 C2666 1.392 . S
C2665 C2669 1.495 . S
C2666 C2665 1.392 . S
C2666 C2667 1.385 . S
C2666 C2668 1.478 . S
C2667 H2661 0.930 . S
C2667 C2663 1.400 . S
C2667 C2666 1.385 . S
C2668 C2666 1.478 . S
C2668 C2670 1.381 . S
C2668 C2674 1.383 . S
C2669 C2665 1.495 . S
C2669 H2675 0.959 . S
C2669 H2676 0.961 . S
C2669 H2677 0.960 . S
C2670 C2668 1.381 . S
C2670 C2671 1.394 . S
C2670 H2678 0.930 . S
C2671 C2670 1.394 . S
C2671 C2672 1.383 . S
C2671 H2679 0.929 . S
C2672 C2671 1.383 . S
C2672 C2673 1.377 . S
C2673 H2657 0.930 . S
C2673 C2672 1.377 . S
C2673 C2674 1.379 . S
C2674 H2658 0.931 . S
C2674 C2668 1.383 . S
C2674 C2673 1.379 . S
H2675 C2669 0.959 . S
H2676 C2669 0.961 . S
H2677 C2669 0.960 . S
H2678 C2670 0.930 . S
H2679 C2671 0.929 . S
H2680 C2688 0.929 . S
H2681 C2690 0.930 . S
H2682 C2692 0.930 . S
H2683 C2695 0.929 . S
H2684 C2698 0.930 . S
H2685 C2700 0.960 . S
H2686 C2700 0.960 . S
H2687 C2700 0.960 . S
C2688 H2680 0.929 . S
C2688 C2689 1.377 . S
C2688 C2690 1.384 . S
C2689 C2688 1.377 . S
C2689 C2695 1.390 . S
C2690 H2681 0.930 . S
C2690 C2688 1.384 . S
C2690 C2691 1.372 . S
C2691 C2690 1.372 . S
C2691 C2692 1.400 . S
C2691 C2696 1.490 . S
C2692 H2682 0.930 . S
C2692 C2691 1.400 . S
C2692 C2695 1.386 . S
H2693 C2709 0.930 . S
H2694 C2710 0.931 . S
C2695 H2683 0.929 . S
C2695 C2689 1.390 . S
C2695 C2692 1.386 . S
C2696 C2691 1.490 . S
C2696 C2698 1.395 . S
C2696 C2699 1.403 . S
H2697 C2703 0.930 . S
C2698 H2684 0.930 . S
C2698 C2696 1.395 . S
C2698 C2701 1.403 . S
C2699 C2696 1.403 . S
C2699 C2700 1.524 . S
C2699 C2703 1.400 . S
C2700 H2685 0.960 . S
C2700 H2686 0.960 . S
C2700 H2687 0.960 . S
C2700 C2699 1.524 . S
C2701 C2698 1.403 . S
C2701 C2702 1.392 . S
C2701 C2705 1.495 . S
C2702 C2701 1.392 . S
C2702 C2703 1.385 . S
C2702 C2704 1.478 . S
C2703 H2697 0.930 . S
C2703 C2699 1.400 . S
C2703 C2702 1.385 . S
C2704 C2702 1.478 . S
C2704 C2706 1.381 . S
C2704 C2710 1.383 . S
C2705 C2701 1.495 . S
C2705 H2711 0.959 . S
C2705 H2712 0.961 . S
C2705 H2713 0.960 . S
C2706 C2704 1.381 . S
C2706 C2707 1.394 . S
C2706 H2714 0.930 . S
C2707 C2706 1.394 . S
C2707 C2708 1.383 . S
C2707 H2715 0.929 . S
C2708 C2707 1.383 . S
C2708 C2709 1.377 . S
C2709 H2693 0.930 . S
C2709 C2708 1.377 . S
C2709 C2710 1.379 . S
C2710 H2694 0.931 . S
C2710 C2704 1.383 . S
C2710 C2709 1.379 . S
H2711 C2705 0.959 . S
H2712 C2705 0.961 . S
H2713 C2705 0.960 . S
H2714 C2706 0.930 . S
H2715 C2707 0.929 . S
H2716 C2724 0.929 . S
H2717 C2726 0.930 . S
H2718 C2728 0.930 . S
H2719 C2731 0.929 . S
H2720 C2734 0.930 . S
H2721 C2736 0.960 . S
H2722 C2736 0.960 . S
H2723 C2736 0.960 . S
C2724 H2716 0.929 . S
C2724 C2725 1.377 . S
C2724 C2726 1.384 . S
C2725 C2724 1.377 . S
C2725 C2731 1.390 . S
C2726 H2717 0.930 . S
C2726 C2724 1.384 . S
C2726 C2727 1.372 . S
C2727 C2726 1.372 . S
C2727 C2728 1.400 . S
C2727 C2732 1.490 . S
C2728 H2718 0.930 . S
C2728 C2727 1.400 . S
C2728 C2731 1.386 . S
H2729 C2745 0.930 . S
H2730 C2746 0.931 . S
C2731 H2719 0.929 . S
C2731 C2725 1.390 . S
C2731 C2728 1.386 . S
C2732 C2727 1.490 . S
C2732 C2734 1.395 . S
C2732 C2735 1.403 . S
H2733 C2739 0.930 . S
C2734 H2720 0.930 . S
C2734 C2732 1.395 . S
C2734 C2737 1.403 . S
C2735 C2732 1.403 . S
C2735 C2736 1.524 . S
C2735 C2739 1.400 . S
C2736 H2721 0.960 . S
C2736 H2722 0.960 . S
C2736 H2723 0.960 . S
C2736 C2735 1.524 . S
C2737 C2734 1.403 . S
C2737 C2738 1.392 . S
C2737 C2741 1.495 . S
C2738 C2737 1.392 . S
C2738 C2739 1.385 . S
C2738 C2740 1.478 . S
C2739 H2733 0.930 . S
C2739 C2735 1.400 . S
C2739 C2738 1.385 . S
C2740 C2738 1.478 . S
C2740 C2742 1.381 1_556 S
C2740 C2746 1.383 . S
C2741 C2737 1.495 . S
C2741 H2747 0.959 . S
C2741 H2748 0.961 . S
C2741 H2749 0.960 . S
C2742 C2740 1.381 1_554 S
C2742 C2743 1.394 . S
C2742 H2750 0.930 . S
C2743 C2742 1.394 . S
C2743 C2744 1.383 . S
C2743 H2751 0.929 . S
C2744 C2743 1.383 . S
C2744 C2745 1.377 1_554 S
C2745 H2729 0.930 . S
C2745 C2744 1.377 1_556 S
C2745 C2746 1.379 . S
C2746 H2730 0.931 . S
C2746 C2740 1.383 . S
C2746 C2745 1.379 . S
H2747 C2741 0.959 . S
H2748 C2741 0.961 . S
H2749 C2741 0.960 . S
H2750 C2742 0.930 . S
H2751 C2743 0.929 . S
C457 C124 2.041 . S
C476 C1 2.022 . S
C493 C14 2.045 . S
C512 C363 2.027 . S
C529 C40 2.040 . S
C548 C153 2.026 . S
C565 C54 2.044 . S
C584 C391 2.056 . S
C601 C68 2.041 . S
C620 C180 2.019 . S
C637 C418 2.037 . S
C656 C83 2.036 . S
C673 C209 2.046 . S
C692 C85 2.029 . S
C709 C435 2.041 . S
C728 C98 2.042 . S
C745 C238 2.040 . S
C764 C139 2.026 . S
C781 C166 2.037 . S
C800 C279 2.026 . S
C817 C194 2.037 . S
C836 C306 2.038 . S
C853 C323 2.043 . S
C872 C210 2.026 . S
C889 C337 2.040 . S
C908 C224 2.035 . S
C925 C265 2.045 . S
C944 C365 2.046 . S
C961 C280 2.047 . S
C980 C404 2.053 . S
C997 C432 2.043 . S
C1016 C321 2.029 . S
C1033 C12 1.948 1_556 S
C1052 C57 1.937 . S
C1069 C70 1.949 . S
C1088 C27 1.940 . S
C1105 C96 1.950 . S
C1124 C29 1.950 . S
C1141 C43 1.947 . S
C1160 C111 1.938 . S
C1177 C113 1.950 . S
C1196 C169 1.950 . S
C1213 C126 1.949 . S
C1232 C183 1.947 . S
C1249 C196 1.949 1_556 S
C1268 C140 1.945 . S
C1285 C223 1.948 . S
C1304 C155 1.948 . S
C1321 C293 1.949 . S
C1340 C237 1.951 . S
C1357 C295 1.947 . S
C1376 C251 1.937 . S
C1393 C252 1.950 1_556 S
C1412 C308 1.951 . S
C1429 C334 1.950 . S
C1448 C266 1.951 . S
C1465 C393 1.949 1_556 S
C1484 C348 1.937 . S
C1501 C350 1.948 . S
C1520 C407 1.951 . S
C1537 C421 1.949 . S
C1556 C376 1.938 . S
C1573 C446 1.949 . S
C1592 C378 1.939 . S
C1609 C56 0.292 . S
C1628 C13 0.323 . S
C1645 C71 0.299 . S
C1664 C26 0.321 . S
C1681 C28 0.289 . S
C1700 C97 0.307 . S
C1717 C110 0.296 . S
C1736 C42 0.311 . S
C1753 C168 0.298 . S
C1772 C112 0.273 . S
C1789 C127 0.298 . S
C1808 C182 0.302 . S
C1825 C197 0.296 . S
C1844 C141 0.319 . S
C1861 C222 0.300 . S
C1880 C154 0.295 . S
C1897 C236 0.290 . S
C1916 C292 0.308 . S
C1933 C294 0.292 . S
C1952 C250 0.296 . S
C1969 C309 0.289 . S
C1988 C253 0.271 . S
C2005 C335 0.290 . S
C2024 C267 0.274 . S
C2041 C392 0.293 . S
C2060 C349 0.266 . S
C2077 C351 0.285 . S
C2096 C406 0.286 . S
C2113 C377 0.292 . S
C2132 C420 0.265 . S
C2149 C379 0.296 . S
C2168 C447 0.274 . S
C2185 C0 2.123 . S
C2204 C307 2.104 . S
C2221 C320 2.123 . S
C2240 C15 2.127 . S
C2257 C41 2.123 . S
C2276 C322 2.110 . S
C2293 C55 2.121 . S
C2312 C281 2.104 . S
C2329 C278 2.122 . S
C2348 C69 2.125 . S
C2365 C225 2.120 . S
C2384 C82 2.124 . S
C2401 C239 2.125 . S
C2420 C84 2.123 . S
C2437 C99 2.123 . S
C2456 C264 2.133 . S
C2473 C125 2.126 . S
C2492 C419 2.109 . S
C2509 C433 2.124 . S
C2528 C138 2.115 . S
C2545 C434 2.122 . S
C2564 C152 2.113 . S
C2581 C405 2.127 . S
C2600 C167 2.107 . S
C2617 C390 2.120 . S
C2636 C181 2.132 . S
C2653 C336 2.122 . S
C2672 C195 2.122 . S
C2689 C208 2.125 . S
C2708 C362 2.104 . S
C2725 C211 2.123 . S
C2744 C364 2.127 . S
