# Generated by pormake.
# Topology nbo, (4)-cn, num edge types: 1
# Building blocks:
#     Node 0, Type 0, BuildingBlock: NAWXER_clean_sbu_0, # of connection points: 4
#     Node 1, Type 0, BuildingBlock: NAWXER_clean_sbu_0, # of connection points: 4
#     Node 2, Type 0, BuildingBlock: NAWXER_clean_sbu_0, # of connection points: 4
#     Node 3, Type 0, BuildingBlock: NAWXER_clean_sbu_0, # of connection points: 4
#     Node 4, Type 0, BuildingBlock: NAWXER_clean_sbu_0, # of connection points: 4
#     Node 5, Type 0, BuildingBlock: NAWXER_clean_sbu_0, # of connection points: 4
#     Edge 6, Type (0, 0), BuildingBlock: CIFDUS_clean_linker_0, # of connection points: 2
#     Edge 7, Type (0, 0), BuildingBlock: CIFDUS_clean_linker_0, # of connection points: 2
#     Edge 8, Type (0, 0), BuildingBlock: CIFDUS_clean_linker_0, # of connection points: 2
#     Edge 9, Type (0, 0), BuildingBlock: CIFDUS_clean_linker_0, # of connection points: 2
#     Edge 10, Type (0, 0), BuildingBlock: CIFDUS_clean_linker_0, # of connection points: 2
#     Edge 11, Type (0, 0), BuildingBlock: CIFDUS_clean_linker_0, # of connection points: 2
#     Edge 12, Type (0, 0), BuildingBlock: CIFDUS_clean_linker_0, # of connection points: 2
#     Edge 13, Type (0, 0), BuildingBlock: CIFDUS_clean_linker_0, # of connection points: 2
#     Edge 14, Type (0, 0), BuildingBlock: CIFDUS_clean_linker_0, # of connection points: 2
#     Edge 15, Type (0, 0), BuildingBlock: CIFDUS_clean_linker_0, # of connection points: 2
#     Edge 16, Type (0, 0), BuildingBlock: CIFDUS_clean_linker_0, # of connection points: 2
#     Edge 17, Type (0, 0), BuildingBlock: CIFDUS_clean_linker_0, # of connection points: 2
# Relax obj value: 0.000
# Max RMSD: 0.000
# Mean RMSD: 0.000
data_MOF--net-nbo--node1-NAWXER_clean_sbu_0--edge1-CIFDUS_clean_linker_0
_symmetry_space_group_name_H-M    P1
_symmetry_Int_Tables_number       1
_symmetry_cell_setting            triclinic
loop_
_symmetry_equiv_pos_as_xyz
'x, y, z'
_cell_length_a     25.528985
_cell_length_b     25.510742
_cell_length_c     25.582498
_cell_angle_alpha  97.575945
_cell_angle_beta   96.935217
_cell_angle_gamma 96.811894
loop_
_atom_site_label
_atom_site_type_symbol
_atom_site_fract_x
_atom_site_fract_y
_atom_site_fract_z
_atom_type_partial_charge
C0 C 0.06034 0.04328 0.45566 0.0
C1 C 0.04555 0.85242 0.47082 0.0
O2 O 0.04615 1.00467 0.41779 0.0
Zn3 Zn 0.0521 0.94675 0.46046 0.0
O4 O 0.07203 0.0336 0.50315 0.0
Zn5 Zn 0.075 0.96731 0.545 0.0
O6 O 0.14982 0.97731 0.57464 0.0
O7 O 0.13585 0.9527 0.48732 0.0
O8 O 0.06037 0.88318 0.51537 0.0
O9 O 0.03543 0.87254 0.42834 0.0
O10 O 0.98778 0.95394 0.50513 0.0
O11 O 0.01932 0.97743 0.59026 0.0
C12 C 0.16783 0.96467 0.53111 0.0
C13 C 0.97981 0.96592 0.5534 0.0
C14 C 0.47216 0.16052 0.0129 0.0
C15 C 0.49884 0.97467 0.01986 0.0
O16 O 0.52162 0.15494 0.01932 0.0
Zn17 Zn 0.56844 0.09183 0.03161 0.0
O18 O 0.43732 0.12076 0.0133 0.0
Zn19 Zn 0.48535 0.06754 0.02027 0.0
O20 O 0.52111 0.08397 0.10256 0.0
O21 O 0.60598 0.11314 0.10333 0.0
O22 O 0.45505 0.99354 0.01274 0.0
O23 O 0.54312 1.00631 0.02804 0.0
O24 O 0.60877 0.09389 0.97218 0.0
O25 O 0.52273 0.06564 0.94896 0.0
C26 C 0.56741 0.10151 0.12864 0.0
C27 C 0.56941 0.07671 0.93616 0.0
C28 C 0.05644 0.55551 0.01861 0.0
C29 C 0.86581 0.56128 1.00807 0.0
O30 O 0.0301 0.50835 1.00618 0.0
Zn31 Zn 0.94556 0.47437 0.98927 0.0
O32 O 0.03179 0.59588 0.0239 0.0
Zn33 Zn 0.96134 0.55775 1.00897 0.0
O34 O 0.95857 0.51301 0.07567 0.0
O35 O 0.94024 0.42737 0.04212 0.0
O36 O 0.90332 0.5997 0.01345 0.0
O37 O 0.87589 0.51313 0.99904 0.0
O38 O 0.93545 0.44261 0.91408 0.0
O39 O 0.95781 0.5297 0.92571 0.0
C40 C 0.94978 0.46383 0.08238 0.0
C41 C 0.94731 0.48501 0.89461 0.0
C42 C 0.46393 0.65567 0.98187 0.0
C43 C 0.45159 0.46037 0.97064 0.0
O44 O 0.45503 0.62165 0.93959 0.0
Zn45 Zn 0.45698 0.55802 0.97348 0.0
O46 O 0.46983 0.63961 0.02745 0.0
Zn47 Zn 0.46831 0.56489 0.0587 0.0
O48 O 0.54029 0.56953 0.09634 0.0
O49 O 0.5381 0.56685 1.00945 0.0
O50 O 0.45786 0.4852 0.01824 0.0
O51 O 0.44947 0.48667 0.93165 0.0
O52 O 0.38559 0.5573 1.00938 0.0
O53 O 0.40626 0.56292 0.09652 0.0
C54 C 0.56467 0.57002 0.0558 0.0
C55 C 0.37129 0.5592 0.05582 0.0
C56 C 0.04765 0.54811 0.51262 0.0
C57 C 0.05912 0.35711 0.49249 0.0
O58 O 0.08865 0.52562 0.52369 0.0
Zn59 Zn 0.05318 0.4535 0.50736 0.0
O60 O 1.00181 0.51971 0.49851 0.0
Zn61 Zn 0.96976 0.43507 0.48493 0.0
O62 O 0.92492 0.42674 0.54121 0.0
O63 O 1.0097 0.44964 0.57325 0.0
O64 O 1.01106 0.3665 0.48199 0.0
O65 O 0.09586 0.39578 0.50951 0.0
O66 O 0.02492 0.45073 0.42376 0.0
O67 O 0.93744 0.42794 0.41109 0.0
C68 C 0.96125 0.43885 0.58104 0.0
C69 C 0.98047 0.441 0.39261 0.0
C70 C 0.66941 0.98132 0.52865 0.0
C71 C 0.48254 1.0043 0.53063 0.0
O72 O 0.62909 0.94547 0.51889 0.0
Zn73 Zn 0.57463 0.99199 0.52414 0.0
O74 O 0.66272 0.03062 0.53532 0.0
Zn75 Zn 0.59722 0.07604 0.53538 0.0
O76 O 0.61465 0.11746 0.60615 0.0
O77 O 0.5912 0.03107 0.60551 0.0
O78 O 0.51316 0.049 0.53581 0.0
O79 O 0.50176 0.96071 0.52176 0.0
O80 O 0.57036 0.02533 0.45204 0.0
O81 O 0.59925 0.11133 0.47175 0.0
C82 C 0.60556 0.07823 0.63139 0.0
C83 C 0.58099 0.07087 0.43707 0.0
H84 H 0.12507 0.12928 0.51028 0.0
H85 H 0.99345 0.08328 0.38374 0.0
H86 H 0.98241 0.17736 0.38261 0.0
H87 H 1.00535 0.272 0.42364 0.0
H88 H 0.1397 0.31742 0.54752 0.0
H89 H 0.15465 0.22418 0.54367 0.0
C90 C 0.0945 0.13996 0.48186 0.0
C91 C 0.05983 0.09952 0.44741 0.0
C92 C 0.08855 0.1939 0.48147 0.0
C93 C 0.02076 0.11377 0.41043 0.0
C94 C 1.01417 0.16749 0.41014 0.0
C95 C 0.03811 0.26143 0.44949 0.0
C96 C 0.07094 0.30139 0.48638 0.0
C97 C 0.04698 0.20777 0.44645 0.0
C98 C 0.11381 0.28738 0.51896 0.0
C99 C 0.1223 0.23407 0.51685 0.0
H100 H 0.89102 0.90328 0.50267 0.0
H101 H 0.94502 0.03745 0.62622 0.0
H102 H 0.85263 0.05335 0.63055 0.0
H103 H 0.75731 0.03364 0.59305 0.0
H104 H 0.70346 0.89643 0.47284 0.0
H105 H 0.79512 0.87696 0.47323 0.0
C106 C 0.88241 0.93546 0.53117 0.0
C107 C 0.92459 0.96944 0.56383 0.0
C108 C 0.82941 0.94412 0.53345 0.0
C109 C 0.91311 1.01064 0.60094 0.0
C110 C 0.86037 0.02 0.60302 0.0
C111 C 0.76574 0.99931 0.56721 0.0
C112 C 0.72398 0.96694 0.5323 0.0
C113 C 0.81836 0.98781 0.56847 0.0
C114 C 0.73505 0.92197 0.49982 0.0
C115 C 0.78741 0.91092 0.49999 0.0
H116 H 0.99263 0.60111 0.44446 0.0
H117 H 0.11588 0.62513 0.57964 0.0
H118 H 0.12565 0.72167 0.57876 0.0
H119 H 0.09905 0.79898 0.53955 0.0
H120 H 0.98075 0.77481 0.4001 0.0
H121 H 0.96935 0.67839 0.40221 0.0
C122 C 0.02132 0.62765 0.47392 0.0
C123 C 0.05301 0.60635 0.51258 0.0
C124 C 0.02779 0.68285 0.4721 0.0
C125 C 0.09095 0.64079 0.54973 0.0
C126 C 0.09653 0.69588 0.54919 0.0
C127 C 0.07075 0.77258 0.50961 0.0
C128 C 0.04045 0.79393 0.46995 0.0
C129 C 0.06518 0.71731 0.51056 0.0
C130 C 1.00457 0.75925 0.43094 0.0
C131 C 0.9979 0.70421 0.43229 0.0
H132 H 0.39969 0.92729 0.4887 0.0
H133 H 0.43815 0.08078 0.58786 0.0
H134 H 0.34474 0.08039 0.60061 0.0
H135 H 0.25117 0.03723 0.58171 0.0
H136 H 0.21207 0.88785 0.47592 0.0
H137 H 0.3063 0.8854 0.46799 0.0
C138 C 0.38756 0.96054 0.51318 0.0
C139 C 0.42572 1.00393 0.5373 0.0
C140 C 0.33358 0.96065 0.51932 0.0
C141 C 0.40942 0.04704 0.56852 0.0
C142 C 0.35604 0.04676 0.57604 0.0
C143 C 0.26359 1.00398 0.55747 0.0
C144 C 0.22512 0.96253 0.52984 0.0
C145 C 0.31768 1.00388 0.55149 0.0
C146 C 0.24125 0.92012 0.49761 0.0
C147 C 0.29503 0.91874 0.49301 0.0
H148 H 0.63737 0.13457 0.37886 0.0
H149 H 0.49968 0.01571 0.36652 0.0
H150 H 0.48159 0.01714 0.27095 0.0
H151 H 0.50655 0.049 0.19014 0.0
H152 H 0.64805 0.16228 0.1995 0.0
H153 H 0.66306 0.16622 0.29649 0.0
C154 C 0.6032 0.10947 0.35517 0.0
C155 C 0.56979 0.07523 0.37973 0.0
C156 C 0.59389 0.10923 0.29958 0.0
C157 C 0.52607 0.04227 0.34851 0.0
C158 C 0.51566 0.04306 0.29383 0.0
C159 C 0.54045 0.07493 0.2134 0.0
C160 C 0.57593 0.10552 0.18759 0.0
C161 C 0.54956 0.07591 0.26883 0.0
C162 C 0.62012 0.13827 0.21835 0.0
C163 C 0.6287 0.14057 0.27384 0.0
H164 H 1.0066 0.51923 0.17267 0.0
H165 H 0.8937 0.37817 0.1141 0.0
H166 H 0.89121 0.35902 0.2053 0.0
H167 H 0.92087 0.38352 0.30256 0.0
H168 H 0.03922 0.52104 0.35852 0.0
H169 H 0.03972 0.54062 0.26781 0.0
C170 C 0.98148 0.48427 0.1799 0.0
C171 C 0.95013 0.45037 0.13689 0.0
C172 C 0.98116 0.473 0.23208 0.0
C173 C 0.91833 0.40478 0.14666 0.0
C174 C 0.91674 0.39396 0.19879 0.0
C175 C 0.94661 0.41769 0.29463 0.0
C176 C 0.97983 0.45089 0.33699 0.0
C177 C 0.94784 0.42794 0.24193 0.0
C178 C 1.01355 0.49475 0.32639 0.0
C179 C 1.01378 0.50607 0.27459 0.0
H180 H 0.55821 1.01115 0.68967 0.0
H181 H 0.65749 0.16291 0.70472 0.0
H182 H 0.65891 0.17424 0.80175 0.0
H183 H 0.62883 0.1416 0.88217 0.0
H184 H 0.52371 0.99298 0.86333 0.0
H185 H 0.52817 0.97939 0.76786 0.0
C186 C 0.58061 0.0466 0.71408 0.0
C187 C 0.608 0.08599 0.69006 0.0
C188 C 0.58021 0.05325 0.76921 0.0
C189 C 0.63605 0.13203 0.72229 0.0
C190 C 0.63692 0.13843 0.77772 0.0
C191 C 0.60756 0.10605 0.85702 0.0
C192 C 0.5763 0.06807 0.87948 0.0
C193 C 0.60885 0.09938 0.80164 0.0
C194 C 0.548 0.02263 0.84669 0.0
C195 C 0.55048 1.01489 0.79219 0.0
H196 H 1.01228 0.506 0.66719 0.0
H197 H 0.88225 0.37811 0.61906 0.0
H198 H 0.8666 0.37977 0.71212 0.0
H199 H 0.89196 0.41678 0.80819 0.0
H200 H 0.01759 0.54975 0.85312 0.0
H201 H 0.03291 0.54694 0.76063 0.0
C202 C 0.98041 0.47854 0.67706 0.0
C203 C 0.9488 0.44164 0.63643 0.0
C204 C 0.97098 0.48062 0.73024 0.0
C205 C 0.9071 0.40692 0.64966 0.0
C206 C 0.89831 0.40775 0.70289 0.0
C207 C 0.92254 0.44511 0.79753 0.0
C208 C 0.9538 0.48324 0.83756 0.0
C209 C 0.9303 0.44422 0.74367 0.0
C210 C 0.99286 0.52016 0.82313 0.0
C211 C 1.00179 0.51851 0.77022 0.0
H212 H 0.12719 0.5072 0.07787 0.0
H213 H 0.11637 0.62223 0.96918 0.0
H214 H 0.2132 0.63448 0.9721 0.0
H215 H 0.30056 0.61026 1.00307 0.0
H216 H 0.31392 0.50184 0.11809 0.0
H217 H 0.2167 0.48961 0.1161 0.0
C218 C 0.14633 0.53494 0.05505 0.0
C219 C 0.11503 0.5634 0.02287 0.0
C220 C 0.2023 0.5431 0.05835 0.0
C221 C 0.13991 0.59994 0.99409 0.0
C222 C 0.19516 0.6069 0.99572 0.0
C223 C 0.28211 0.58437 0.02808 0.0
C224 C 0.31399 0.55673 0.06044 0.0
C225 C 0.22667 0.57847 0.0274 0.0
C226 C 0.28998 0.52372 0.09312 0.0
C227 C 0.23447 0.51648 0.09166 0.0
H228 H 0.40092 0.38938 0.02343 0.0
H229 H 0.50398 0.40115 0.90273 0.0
H230 H 0.51883 0.30807 0.90426 0.0
H231 H 0.50882 0.2261 0.94642 0.0
H232 H 0.40021 0.21233 0.06195 0.0
H233 H 0.38092 0.30344 0.0561 0.0
C234 C 0.42574 0.37109 0.99669 0.0
C235 C 0.45152 0.40192 0.96314 0.0
C236 C 0.43355 0.31756 0.99748 0.0
C237 C 0.48339 0.37797 0.9285 0.0
C238 C 0.49227 0.32497 0.9298 0.0
C239 C 0.48056 0.24305 0.96986 0.0
C240 C 0.45646 0.21315 1.00517 0.0
C241 C 0.46865 0.29485 0.96514 0.0
C242 C 0.41925 0.23485 0.0347 0.0
C243 C 0.40836 0.28688 0.03141 0.0
H244 H 0.80159 0.52006 0.07343 0.0
H245 H 0.80862 0.62679 0.95647 0.0
H246 H 0.71619 0.64125 0.96291 0.0
H247 H 0.63215 0.61965 0.99862 0.0
H248 H 0.62707 0.51907 0.1212 0.0
H249 H 0.72035 0.50675 0.1168 0.0
C250 C 0.78269 0.54655 0.04957 0.0
C251 C 0.81112 0.57172 0.01386 0.0
C252 C 0.73025 0.55597 0.05486 0.0
C253 C 0.78708 0.60684 0.98388 0.0
C254 C 0.73439 0.61507 0.98761 0.0
C255 C 0.65181 0.59569 0.0249 0.0
C256 C 0.62291 0.57006 0.06001 0.0
C257 C 0.70545 0.58941 0.02255 0.0
C258 C 0.64873 0.53947 0.09418 0.0
C259 C 0.70185 0.53206 0.09129 0.0
H260 H 0.52545 0.73672 0.04906 0.0
H261 H 0.40732 0.70436 0.90936 0.0
H262 H 0.4061 0.80036 0.90971 0.0
H263 H 0.43744 0.89386 0.95134 0.0
H264 H 0.56172 0.92571 0.08581 0.0
H265 H 0.56179 0.82977 0.08618 0.0
C266 C 0.49961 0.75078 0.01859 0.0
C267 C 0.46622 0.71359 0.97946 0.0
C268 C 0.5001 0.80595 0.01836 0.0
C269 C 0.43349 0.73225 0.93977 0.0
C270 C 0.43261 0.78711 0.94014 0.0
C271 C 0.4644 0.8796 0.9807 0.0
C272 C 0.49907 0.9166 0.01895 0.0
C273 C 0.46544 0.82435 0.97951 0.0
C274 C 0.53461 0.89786 0.05613 0.0
C275 C 0.53461 0.84307 0.05636 0.0
loop_
_geom_bond_atom_site_label_1
_geom_bond_atom_site_label_2
_geom_bond_distance
_geom_bond_site_symmetry_2
_ccdc_geom_bond_type
C0 O2 1.247 1_455 S
C0 O4 1.258 . S
C1 O8 1.247 1_655 S
C1 O9 1.258 . S
O2 C0 1.247 1_655 S
O2 Zn3 2.028 1_545 S
Zn3 O2 2.028 1_565 S
Zn3 O7 2.035 1_655 S
Zn3 O9 2.035 . S
Zn3 O10 2.028 . S
O4 C0 1.258 . S
O4 Zn5 2.035 . S
Zn5 O4 2.035 . S
Zn5 O6 2.028 . S
Zn5 O8 2.028 1_545 S
Zn5 O11 2.035 1_455 S
O6 Zn5 2.028 . S
O6 C12 1.247 . S
O7 Zn3 2.035 1_455 S
O7 C12 1.258 1_565 S
O8 C1 1.247 1_455 S
O8 Zn5 2.028 1_565 S
O9 C1 1.258 . S
O9 Zn3 2.035 . S
O10 Zn3 2.028 . S
O10 C13 1.247 . S
O11 Zn5 2.035 1_655 S
O11 C13 1.258 1_545 S
C12 O6 1.247 . S
C12 O7 1.258 1_545 S
C13 O10 1.247 . S
C13 O11 1.258 1_565 S
C14 O16 1.247 . S
C14 O18 1.258 1_554 S
C15 O22 1.247 . S
C15 O23 1.258 1_556 S
O16 C14 1.247 . S
O16 Zn17 2.028 . S
Zn17 O16 2.028 . S
Zn17 O21 2.035 . S
Zn17 O23 2.035 1_545 S
Zn17 O24 2.028 1_554 S
O18 C14 1.258 1_556 S
O18 Zn19 2.035 1_545 S
Zn19 O18 2.035 1_565 S
Zn19 O20 2.028 1_556 S
Zn19 O22 2.028 . S
Zn19 O25 2.035 . S
O20 Zn19 2.028 1_554 S
O20 C26 1.247 1_565 S
O21 Zn17 2.035 . S
O21 C26 1.258 . S
O22 C15 1.247 . S
O22 Zn19 2.028 . S
O23 C15 1.258 1_554 S
O23 Zn17 2.035 1_565 S
O24 Zn17 2.028 1_556 S
O24 C27 1.247 1_545 S
O25 Zn19 2.035 . S
O25 C27 1.258 . S
C26 O20 1.247 1_545 S
C26 O21 1.258 . S
C27 O24 1.247 1_565 S
C27 O25 1.258 . S
C28 O30 1.247 1_554 S
C28 O32 1.258 . S
C29 O36 1.247 1_556 S
C29 O37 1.258 . S
O30 C28 1.247 1_556 S
O30 Zn31 2.028 1_455 S
Zn31 O30 2.028 1_655 S
Zn31 O35 2.035 1_556 S
Zn31 O37 2.035 . S
Zn31 O38 2.028 . S
O32 C28 1.258 . S
O32 Zn33 2.035 . S
Zn33 O32 2.035 . S
Zn33 O34 2.028 . S
Zn33 O36 2.028 1_455 S
Zn33 O39 2.035 1_554 S
O34 Zn33 2.028 . S
O34 C40 1.247 . S
O35 Zn31 2.035 1_554 S
O35 C40 1.258 1_655 S
O36 C29 1.247 1_554 S
O36 Zn33 2.028 1_655 S
O37 C29 1.258 . S
O37 Zn31 2.035 . S
O38 Zn31 2.028 . S
O38 C41 1.247 . S
O39 Zn33 2.035 1_556 S
O39 C41 1.258 1_455 S
C40 O34 1.247 . S
C40 O35 1.258 1_455 S
C41 O38 1.247 . S
C41 O39 1.258 1_655 S
C42 O44 1.246 . S
C42 O46 1.258 1_556 S
C43 O50 1.251 . S
C43 O51 1.254 1_554 S
O44 C42 1.246 . S
O44 Zn45 2.028 . S
Zn45 O44 2.028 . S
Zn45 O49 2.035 . S
Zn45 O51 2.035 . S
Zn45 O52 2.028 . S
O46 C42 1.258 1_554 S
O46 Zn47 2.035 . S
Zn47 O46 2.035 . S
Zn47 O48 2.028 . S
Zn47 O50 2.028 . S
Zn47 O53 2.035 . S
O48 Zn47 2.028 . S
O48 C54 1.251 . S
O49 Zn45 2.035 . S
O49 C54 1.254 1_556 S
O50 C43 1.251 . S
O50 Zn47 2.028 . S
O51 C43 1.254 1_556 S
O51 Zn45 2.035 . S
O52 Zn45 2.028 . S
O52 C55 1.246 . S
O53 Zn47 2.035 . S
O53 C55 1.258 1_554 S
C54 O48 1.251 . S
C54 O49 1.254 1_554 S
C55 O52 1.246 . S
C55 O53 1.258 1_556 S
C56 O58 1.251 . S
C56 O60 1.254 1_455 S
C57 O64 1.246 . S
C57 O65 1.258 1_655 S
O58 C56 1.251 . S
O58 Zn59 2.028 . S
Zn59 O58 2.028 . S
Zn59 O63 2.035 . S
Zn59 O65 2.035 . S
Zn59 O66 2.028 . S
O60 C56 1.254 1_655 S
O60 Zn61 2.035 . S
Zn61 O60 2.035 . S
Zn61 O62 2.028 . S
Zn61 O64 2.028 . S
Zn61 O67 2.035 . S
O62 Zn61 2.028 . S
O62 C68 1.246 . S
O63 Zn59 2.035 . S
O63 C68 1.258 1_455 S
O64 C57 1.246 . S
O64 Zn61 2.028 . S
O65 C57 1.258 1_455 S
O65 Zn59 2.035 . S
O66 Zn59 2.028 . S
O66 C69 1.251 . S
O67 Zn61 2.035 . S
O67 C69 1.254 1_655 S
C68 O62 1.246 . S
C68 O63 1.258 1_655 S
C69 O66 1.251 . S
C69 O67 1.254 1_455 S
C70 O72 1.246 . S
C70 O74 1.258 1_565 S
C71 O78 1.251 . S
C71 O79 1.254 1_545 S
O72 C70 1.246 . S
O72 Zn73 2.028 . S
Zn73 O72 2.028 . S
Zn73 O77 2.035 . S
Zn73 O79 2.035 . S
Zn73 O80 2.028 . S
O74 C70 1.258 1_545 S
O74 Zn75 2.035 . S
Zn75 O74 2.035 . S
Zn75 O76 2.028 . S
Zn75 O78 2.028 . S
Zn75 O81 2.035 . S
O76 Zn75 2.028 . S
O76 C82 1.251 . S
O77 Zn73 2.035 . S
O77 C82 1.254 1_565 S
O78 C71 1.251 . S
O78 Zn75 2.028 . S
O79 C71 1.254 1_565 S
O79 Zn73 2.035 . S
O80 Zn73 2.028 . S
O80 C83 1.246 . S
O81 Zn75 2.035 . S
O81 C83 1.258 1_545 S
C82 O76 1.251 . S
C82 O77 1.254 1_545 S
C83 O80 1.246 . S
C83 O81 1.258 1_565 S
H84 C90 0.930 . S
H85 C93 0.930 . S
H86 C94 0.930 . S
H87 C95 0.930 . S
H88 C98 0.930 . S
H89 C99 0.930 . S
C90 H84 0.930 . S
C90 C91 1.355 1_455 S
C90 C92 1.415 . S
C91 C90 1.355 1_655 S
C91 C93 1.419 . S
C92 C90 1.415 . S
C92 C97 1.425 1_455 S
C92 C99 1.409 . S
C93 H85 0.930 . S
C93 C91 1.419 . S
C93 C94 1.362 . S
C94 H86 0.930 . S
C94 C93 1.362 . S
C94 C97 1.409 . S
C95 H87 0.930 . S
C95 C96 1.355 1_655 S
C95 C97 1.415 . S
C96 C95 1.355 1_455 S
C96 C98 1.419 . S
C97 C92 1.425 1_655 S
C97 C94 1.409 . S
C97 C95 1.415 . S
C98 H88 0.930 . S
C98 C96 1.419 . S
C98 C99 1.362 . S
C99 H89 0.930 . S
C99 C92 1.409 . S
C99 C98 1.362 . S
H100 C106 0.930 . S
H101 C109 0.930 . S
H102 C110 0.930 . S
H103 C111 0.930 . S
H104 C114 0.930 . S
H105 C115 0.930 . S
C106 H100 0.930 . S
C106 C107 1.355 1_565 S
C106 C108 1.415 . S
C107 C106 1.355 1_545 S
C107 C109 1.419 . S
C108 C106 1.415 . S
C108 C113 1.425 1_565 S
C108 C115 1.409 . S
C109 H101 0.930 . S
C109 C107 1.419 . S
C109 C110 1.362 . S
C110 H102 0.930 . S
C110 C109 1.362 . S
C110 C113 1.409 . S
C111 H103 0.930 . S
C111 C112 1.355 1_545 S
C111 C113 1.415 . S
C112 C111 1.355 1_565 S
C112 C114 1.419 . S
C113 C108 1.425 1_545 S
C113 C110 1.409 . S
C113 C111 1.415 . S
C114 H104 0.930 . S
C114 C112 1.419 . S
C114 C115 1.362 . S
C115 H105 0.930 . S
C115 C108 1.409 . S
C115 C114 1.362 . S
H116 C122 0.930 . S
H117 C125 0.930 . S
H118 C126 0.930 . S
H119 C127 0.930 . S
H120 C130 0.930 . S
H121 C131 0.930 . S
C122 H116 0.930 . S
C122 C123 1.355 1_455 S
C122 C124 1.415 . S
C123 C122 1.355 1_655 S
C123 C125 1.419 . S
C124 C122 1.415 . S
C124 C129 1.425 1_455 S
C124 C131 1.409 . S
C125 H117 0.930 . S
C125 C123 1.419 . S
C125 C126 1.362 . S
C126 H118 0.930 . S
C126 C125 1.362 . S
C126 C129 1.409 . S
C127 H119 0.930 . S
C127 C128 1.355 1_655 S
C127 C129 1.415 . S
C128 C127 1.355 1_455 S
C128 C130 1.419 . S
C129 C124 1.425 1_655 S
C129 C126 1.409 . S
C129 C127 1.415 . S
C130 H120 0.930 . S
C130 C128 1.419 . S
C130 C131 1.362 . S
C131 H121 0.930 . S
C131 C124 1.409 . S
C131 C130 1.362 . S
H132 C138 0.930 . S
H133 C141 0.930 . S
H134 C142 0.930 . S
H135 C143 0.930 . S
H136 C146 0.930 . S
H137 C147 0.930 . S
C138 H132 0.930 . S
C138 C139 1.355 1_565 S
C138 C140 1.415 . S
C139 C138 1.355 1_545 S
C139 C141 1.419 . S
C140 C138 1.415 . S
C140 C145 1.425 1_565 S
C140 C147 1.409 . S
C141 H133 0.930 . S
C141 C139 1.419 . S
C141 C142 1.362 . S
C142 H134 0.930 . S
C142 C141 1.362 . S
C142 C145 1.409 . S
C143 H135 0.930 . S
C143 C144 1.355 1_545 S
C143 C145 1.415 . S
C144 C143 1.355 1_565 S
C144 C146 1.419 . S
C145 C140 1.425 1_545 S
C145 C142 1.409 . S
C145 C143 1.415 . S
C146 H136 0.930 . S
C146 C144 1.419 . S
C146 C147 1.362 . S
C147 H137 0.930 . S
C147 C140 1.409 . S
C147 C146 1.362 . S
H148 C154 0.933 . S
H149 C157 0.930 . S
H150 C158 0.930 . S
H151 C159 0.934 . S
H152 C162 0.930 . S
H153 C163 0.930 . S
C154 H148 0.933 . S
C154 C155 1.353 1_565 S
C154 C156 1.413 . S
C155 C154 1.353 1_545 S
C155 C157 1.419 . S
C156 C154 1.413 . S
C156 C161 1.425 1_565 S
C156 C163 1.409 . S
C157 H149 0.930 . S
C157 C155 1.419 . S
C157 C158 1.362 . S
C158 H150 0.930 . S
C158 C157 1.362 . S
C158 C161 1.409 . S
C159 H151 0.934 . S
C159 C160 1.353 1_545 S
C159 C161 1.412 . S
C160 C159 1.353 1_565 S
C160 C162 1.419 . S
C161 C156 1.425 1_545 S
C161 C158 1.409 . S
C161 C159 1.412 . S
C162 H152 0.930 . S
C162 C160 1.419 . S
C162 C163 1.362 . S
C163 H153 0.930 . S
C163 C156 1.409 . S
C163 C162 1.362 . S
H164 C170 0.930 . S
H165 C173 0.930 . S
H166 C174 0.930 . S
H167 C175 0.930 . S
H168 C178 0.930 . S
H169 C179 0.930 . S
C170 H164 0.930 . S
C170 C171 1.355 1_455 S
C170 C172 1.415 . S
C171 C170 1.355 1_655 S
C171 C173 1.419 . S
C172 C170 1.415 . S
C172 C177 1.425 1_455 S
C172 C179 1.409 . S
C173 H165 0.930 . S
C173 C171 1.419 . S
C173 C174 1.362 . S
C174 H166 0.930 . S
C174 C173 1.362 . S
C174 C177 1.409 . S
C175 H167 0.930 . S
C175 C176 1.355 1_655 S
C175 C177 1.415 . S
C176 C175 1.355 1_455 S
C176 C178 1.419 . S
C177 C172 1.425 1_655 S
C177 C174 1.409 . S
C177 C175 1.415 . S
C178 H168 0.930 . S
C178 C176 1.419 . S
C178 C179 1.362 . S
C179 H169 0.930 . S
C179 C172 1.409 . S
C179 C178 1.362 . S
H180 C186 0.930 . S
H181 C189 0.930 . S
H182 C190 0.930 . S
H183 C191 0.930 . S
H184 C194 0.930 . S
H185 C195 0.930 . S
C186 H180 0.930 . S
C186 C187 1.355 1_565 S
C186 C188 1.415 . S
C187 C186 1.355 1_545 S
C187 C189 1.419 . S
C188 C186 1.415 . S
C188 C193 1.425 1_565 S
C188 C195 1.409 . S
C189 H181 0.930 . S
C189 C187 1.419 . S
C189 C190 1.362 . S
C190 H182 0.930 . S
C190 C189 1.362 . S
C190 C193 1.409 . S
C191 H183 0.930 . S
C191 C192 1.355 1_545 S
C191 C193 1.415 . S
C192 C191 1.355 1_565 S
C192 C194 1.419 . S
C193 C188 1.425 1_545 S
C193 C190 1.409 . S
C193 C191 1.415 . S
C194 H184 0.930 . S
C194 C192 1.419 . S
C194 C195 1.362 . S
C195 H185 0.930 . S
C195 C188 1.409 . S
C195 C194 1.362 . S
H196 C202 0.930 . S
H197 C205 0.930 . S
H198 C206 0.930 . S
H199 C207 0.930 . S
H200 C210 0.930 . S
H201 C211 0.930 . S
C202 H196 0.930 . S
C202 C203 1.355 . S
C202 C204 1.415 . S
C203 C202 1.355 . S
C203 C205 1.418 1_455 S
C204 C202 1.415 . S
C204 C209 1.425 1_455 S
C204 C211 1.409 . S
C205 H197 0.930 . S
C205 C203 1.418 1_655 S
C205 C206 1.362 . S
C206 H198 0.930 . S
C206 C205 1.362 . S
C206 C209 1.409 . S
C207 H199 0.930 . S
C207 C208 1.355 . S
C207 C209 1.415 . S
C208 C207 1.355 . S
C208 C210 1.419 1_655 S
C209 C204 1.425 1_655 S
C209 C206 1.409 . S
C209 C207 1.415 . S
C210 H200 0.930 . S
C210 C208 1.419 1_455 S
C210 C211 1.362 . S
C211 H201 0.930 . S
C211 C204 1.409 . S
C211 C210 1.362 . S
H212 C218 0.930 . S
H213 C221 0.930 . S
H214 C222 0.930 . S
H215 C223 0.930 . S
H216 C226 0.930 . S
H217 C227 0.930 . S
C218 H212 0.930 . S
C218 C219 1.356 . S
C218 C220 1.415 . S
C219 C218 1.356 . S
C219 C221 1.417 1_554 S
C220 C218 1.415 . S
C220 C225 1.425 1_554 S
C220 C227 1.409 . S
C221 H213 0.930 . S
C221 C219 1.417 1_556 S
C221 C222 1.362 . S
C222 H214 0.930 . S
C222 C221 1.362 . S
C222 C225 1.409 . S
C223 H215 0.930 . S
C223 C224 1.354 . S
C223 C225 1.415 . S
C224 C223 1.354 . S
C224 C226 1.420 1_556 S
C225 C220 1.425 1_556 S
C225 C222 1.409 . S
C225 C223 1.415 . S
C226 H216 0.930 . S
C226 C224 1.420 1_554 S
C226 C227 1.362 . S
C227 H217 0.930 . S
C227 C220 1.409 . S
C227 C226 1.362 . S
H228 C234 0.930 . S
H229 C237 0.932 . S
H230 C238 0.930 . S
H231 C239 0.930 . S
H232 C242 0.934 . S
H233 C243 0.930 . S
C234 H228 0.930 . S
C234 C235 1.355 . S
C234 C236 1.415 . S
C235 C234 1.355 . S
C235 C237 1.418 1_554 S
C236 C234 1.415 . S
C236 C241 1.422 1_554 S
C236 C243 1.409 . S
C237 H229 0.932 . S
C237 C235 1.418 1_556 S
C237 C238 1.361 . S
C238 H230 0.930 . S
C238 C237 1.361 . S
C238 C241 1.414 . S
C239 H231 0.930 . S
C239 C240 1.355 . S
C239 C241 1.413 . S
C240 C239 1.355 . S
C240 C242 1.417 1_556 S
C241 C236 1.422 1_556 S
C241 C238 1.414 . S
C241 C239 1.413 . S
C242 H232 0.934 . S
C242 C240 1.417 1_554 S
C242 C243 1.361 . S
C243 H233 0.930 . S
C243 C236 1.409 . S
C243 C242 1.361 . S
H244 C250 0.930 . S
H245 C253 0.930 . S
H246 C254 0.930 . S
H247 C255 0.930 . S
H248 C258 0.930 . S
H249 C259 0.930 . S
C250 H244 0.930 . S
C250 C251 1.355 1_554 S
C250 C252 1.415 . S
C251 C250 1.355 1_556 S
C251 C253 1.419 . S
C252 C250 1.415 . S
C252 C257 1.425 1_554 S
C252 C259 1.409 . S
C253 H245 0.930 . S
C253 C251 1.419 . S
C253 C254 1.362 . S
C254 H246 0.930 . S
C254 C253 1.362 . S
C254 C257 1.409 . S
C255 H247 0.930 . S
C255 C256 1.355 1_556 S
C255 C257 1.415 . S
C256 C255 1.355 1_554 S
C256 C258 1.419 . S
C257 C252 1.425 1_556 S
C257 C254 1.409 . S
C257 C255 1.415 . S
C258 H248 0.930 . S
C258 C256 1.419 . S
C258 C259 1.362 . S
C259 H249 0.930 . S
C259 C252 1.409 . S
C259 C258 1.362 . S
H260 C266 0.930 . S
H261 C269 0.930 . S
H262 C270 0.930 . S
H263 C271 0.930 . S
H264 C274 0.930 . S
H265 C275 0.930 . S
C266 H260 0.930 . S
C266 C267 1.352 1_554 S
C266 C268 1.415 . S
C267 C266 1.352 1_556 S
C267 C269 1.424 . S
C268 C266 1.415 . S
C268 C273 1.425 1_554 S
C268 C275 1.409 . S
C269 H261 0.930 . S
C269 C267 1.424 . S
C269 C270 1.362 . S
C270 H262 0.930 . S
C270 C269 1.362 . S
C270 C273 1.409 . S
C271 H263 0.930 . S
C271 C272 1.352 1_556 S
C271 C273 1.415 . S
C272 C271 1.352 1_554 S
C272 C274 1.426 . S
C273 C268 1.425 1_556 S
C273 C270 1.409 . S
C273 C271 1.415 . S
C274 H264 0.930 . S
C274 C272 1.426 . S
C274 C275 1.362 . S
C275 H265 0.930 . S
C275 C268 1.409 . S
C275 C274 1.362 . S
C91 C0 1.498 1_655 S
C96 C57 1.492 1_455 S
C107 C13 1.496 1_545 S
C112 C70 1.499 . S
C123 C56 1.486 1_655 S
C128 C1 1.498 1_455 S
C139 C71 1.492 . S
C144 C12 1.496 1_565 S
C155 C83 1.487 1_545 S
C160 C26 1.493 1_565 S
C171 C40 1.498 1_655 S
C176 C69 1.489 . S
C187 C82 1.493 . S
C192 C27 1.489 . S
C203 C68 1.499 1_455 S
C208 C41 1.494 . S
C219 C28 1.494 . S
C224 C55 1.483 . S
C235 C43 1.499 . S
C240 C14 1.491 1_556 S
C251 C29 1.488 . S
C256 C54 1.499 . S
C267 C42 1.497 . S
C272 C15 1.492 1_554 S
