# Generated by pormake.
# Topology uky, (4)-cn, num edge types: 1
# Building blocks:
#     Node 0, Type 0, BuildingBlock: QUQFOY_clean_sbu_3, # of connection points: 4
#     Node 1, Type 0, BuildingBlock: QUQFOY_clean_sbu_3, # of connection points: 4
#     Node 2, Type 0, BuildingBlock: QUQFOY_clean_sbu_3, # of connection points: 4
#     Node 3, Type 0, BuildingBlock: QUQFOY_clean_sbu_3, # of connection points: 4
#     Node 4, Type 0, BuildingBlock: QUQFOY_clean_sbu_3, # of connection points: 4
#     Node 5, Type 0, BuildingBlock: QUQFOY_clean_sbu_3, # of connection points: 4
#     Node 6, Type 0, BuildingBlock: QUQFOY_clean_sbu_3, # of connection points: 4
#     Node 7, Type 0, BuildingBlock: QUQFOY_clean_sbu_3, # of connection points: 4
#     Node 8, Type 0, BuildingBlock: QUQFOY_clean_sbu_3, # of connection points: 4
#     Node 9, Type 0, BuildingBlock: QUQFOY_clean_sbu_3, # of connection points: 4
#     Node 10, Type 0, BuildingBlock: QUQFOY_clean_sbu_3, # of connection points: 4
#     Node 11, Type 0, BuildingBlock: QUQFOY_clean_sbu_3, # of connection points: 4
#     Node 12, Type 0, BuildingBlock: QUQFOY_clean_sbu_3, # of connection points: 4
#     Node 13, Type 0, BuildingBlock: QUQFOY_clean_sbu_3, # of connection points: 4
#     Node 14, Type 0, BuildingBlock: QUQFOY_clean_sbu_3, # of connection points: 4
#     Node 15, Type 0, BuildingBlock: QUQFOY_clean_sbu_3, # of connection points: 4
#     Node 16, Type 0, BuildingBlock: QUQFOY_clean_sbu_3, # of connection points: 4
#     Node 17, Type 0, BuildingBlock: QUQFOY_clean_sbu_3, # of connection points: 4
#     Node 18, Type 0, BuildingBlock: QUQFOY_clean_sbu_3, # of connection points: 4
#     Node 19, Type 0, BuildingBlock: QUQFOY_clean_sbu_3, # of connection points: 4
#     Node 20, Type 0, BuildingBlock: QUQFOY_clean_sbu_3, # of connection points: 4
#     Node 21, Type 0, BuildingBlock: QUQFOY_clean_sbu_3, # of connection points: 4
#     Node 22, Type 0, BuildingBlock: QUQFOY_clean_sbu_3, # of connection points: 4
#     Node 23, Type 0, BuildingBlock: QUQFOY_clean_sbu_3, # of connection points: 4
#     Node 24, Type 0, BuildingBlock: QUQFOY_clean_sbu_3, # of connection points: 4
#     Node 25, Type 0, BuildingBlock: QUQFOY_clean_sbu_3, # of connection points: 4
#     Node 26, Type 0, BuildingBlock: QUQFOY_clean_sbu_3, # of connection points: 4
#     Node 27, Type 0, BuildingBlock: QUQFOY_clean_sbu_3, # of connection points: 4
#     Node 28, Type 0, BuildingBlock: QUQFOY_clean_sbu_3, # of connection points: 4
#     Node 29, Type 0, BuildingBlock: QUQFOY_clean_sbu_3, # of connection points: 4
#     Node 30, Type 0, BuildingBlock: QUQFOY_clean_sbu_3, # of connection points: 4
#     Node 31, Type 0, BuildingBlock: QUQFOY_clean_sbu_3, # of connection points: 4
#     Node 32, Type 0, BuildingBlock: QUQFOY_clean_sbu_3, # of connection points: 4
#     Node 33, Type 0, BuildingBlock: QUQFOY_clean_sbu_3, # of connection points: 4
#     Node 34, Type 0, BuildingBlock: QUQFOY_clean_sbu_3, # of connection points: 4
#     Node 35, Type 0, BuildingBlock: QUQFOY_clean_sbu_3, # of connection points: 4
#     Node 36, Type 0, BuildingBlock: QUQFOY_clean_sbu_3, # of connection points: 4
#     Node 37, Type 0, BuildingBlock: QUQFOY_clean_sbu_3, # of connection points: 4
#     Node 38, Type 0, BuildingBlock: QUQFOY_clean_sbu_3, # of connection points: 4
#     Node 39, Type 0, BuildingBlock: QUQFOY_clean_sbu_3, # of connection points: 4
#     Node 40, Type 0, BuildingBlock: QUQFOY_clean_sbu_3, # of connection points: 4
#     Node 41, Type 0, BuildingBlock: QUQFOY_clean_sbu_3, # of connection points: 4
#     Node 42, Type 0, BuildingBlock: QUQFOY_clean_sbu_3, # of connection points: 4
#     Node 43, Type 0, BuildingBlock: QUQFOY_clean_sbu_3, # of connection points: 4
#     Node 44, Type 0, BuildingBlock: QUQFOY_clean_sbu_3, # of connection points: 4
#     Node 45, Type 0, BuildingBlock: QUQFOY_clean_sbu_3, # of connection points: 4
#     Node 46, Type 0, BuildingBlock: QUQFOY_clean_sbu_3, # of connection points: 4
#     Node 47, Type 0, BuildingBlock: QUQFOY_clean_sbu_3, # of connection points: 4
#     Edge 48, Type (0, 0), BuildingBlock: KIFKEQ_clean_linker_1, # of connection points: 2
#     Edge 49, Type (0, 0), BuildingBlock: KIFKEQ_clean_linker_1, # of connection points: 2
#     Edge 50, Type (0, 0), BuildingBlock: KIFKEQ_clean_linker_1, # of connection points: 2
#     Edge 51, Type (0, 0), BuildingBlock: KIFKEQ_clean_linker_1, # of connection points: 2
#     Edge 52, Type (0, 0), BuildingBlock: KIFKEQ_clean_linker_1, # of connection points: 2
#     Edge 53, Type (0, 0), BuildingBlock: KIFKEQ_clean_linker_1, # of connection points: 2
#     Edge 54, Type (0, 0), BuildingBlock: KIFKEQ_clean_linker_1, # of connection points: 2
#     Edge 55, Type (0, 0), BuildingBlock: KIFKEQ_clean_linker_1, # of connection points: 2
#     Edge 56, Type (0, 0), BuildingBlock: KIFKEQ_clean_linker_1, # of connection points: 2
#     Edge 57, Type (0, 0), BuildingBlock: KIFKEQ_clean_linker_1, # of connection points: 2
#     Edge 58, Type (0, 0), BuildingBlock: KIFKEQ_clean_linker_1, # of connection points: 2
#     Edge 59, Type (0, 0), BuildingBlock: KIFKEQ_clean_linker_1, # of connection points: 2
#     Edge 60, Type (0, 0), BuildingBlock: KIFKEQ_clean_linker_1, # of connection points: 2
#     Edge 61, Type (0, 0), BuildingBlock: KIFKEQ_clean_linker_1, # of connection points: 2
#     Edge 62, Type (0, 0), BuildingBlock: KIFKEQ_clean_linker_1, # of connection points: 2
#     Edge 63, Type (0, 0), BuildingBlock: KIFKEQ_clean_linker_1, # of connection points: 2
#     Edge 64, Type (0, 0), BuildingBlock: KIFKEQ_clean_linker_1, # of connection points: 2
#     Edge 65, Type (0, 0), BuildingBlock: KIFKEQ_clean_linker_1, # of connection points: 2
#     Edge 66, Type (0, 0), BuildingBlock: KIFKEQ_clean_linker_1, # of connection points: 2
#     Edge 67, Type (0, 0), BuildingBlock: KIFKEQ_clean_linker_1, # of connection points: 2
#     Edge 68, Type (0, 0), BuildingBlock: KIFKEQ_clean_linker_1, # of connection points: 2
#     Edge 69, Type (0, 0), BuildingBlock: KIFKEQ_clean_linker_1, # of connection points: 2
#     Edge 70, Type (0, 0), BuildingBlock: KIFKEQ_clean_linker_1, # of connection points: 2
#     Edge 71, Type (0, 0), BuildingBlock: KIFKEQ_clean_linker_1, # of connection points: 2
#     Edge 72, Type (0, 0), BuildingBlock: KIFKEQ_clean_linker_1, # of connection points: 2
#     Edge 73, Type (0, 0), BuildingBlock: KIFKEQ_clean_linker_1, # of connection points: 2
#     Edge 74, Type (0, 0), BuildingBlock: KIFKEQ_clean_linker_1, # of connection points: 2
#     Edge 75, Type (0, 0), BuildingBlock: KIFKEQ_clean_linker_1, # of connection points: 2
#     Edge 76, Type (0, 0), BuildingBlock: KIFKEQ_clean_linker_1, # of connection points: 2
#     Edge 77, Type (0, 0), BuildingBlock: KIFKEQ_clean_linker_1, # of connection points: 2
#     Edge 78, Type (0, 0), BuildingBlock: KIFKEQ_clean_linker_1, # of connection points: 2
#     Edge 79, Type (0, 0), BuildingBlock: KIFKEQ_clean_linker_1, # of connection points: 2
#     Edge 80, Type (0, 0), BuildingBlock: KIFKEQ_clean_linker_1, # of connection points: 2
#     Edge 81, Type (0, 0), BuildingBlock: KIFKEQ_clean_linker_1, # of connection points: 2
#     Edge 82, Type (0, 0), BuildingBlock: KIFKEQ_clean_linker_1, # of connection points: 2
#     Edge 83, Type (0, 0), BuildingBlock: KIFKEQ_clean_linker_1, # of connection points: 2
#     Edge 84, Type (0, 0), BuildingBlock: KIFKEQ_clean_linker_1, # of connection points: 2
#     Edge 85, Type (0, 0), BuildingBlock: KIFKEQ_clean_linker_1, # of connection points: 2
#     Edge 86, Type (0, 0), BuildingBlock: KIFKEQ_clean_linker_1, # of connection points: 2
#     Edge 87, Type (0, 0), BuildingBlock: KIFKEQ_clean_linker_1, # of connection points: 2
#     Edge 88, Type (0, 0), BuildingBlock: KIFKEQ_clean_linker_1, # of connection points: 2
#     Edge 89, Type (0, 0), BuildingBlock: KIFKEQ_clean_linker_1, # of connection points: 2
#     Edge 90, Type (0, 0), BuildingBlock: KIFKEQ_clean_linker_1, # of connection points: 2
#     Edge 91, Type (0, 0), BuildingBlock: KIFKEQ_clean_linker_1, # of connection points: 2
#     Edge 92, Type (0, 0), BuildingBlock: KIFKEQ_clean_linker_1, # of connection points: 2
#     Edge 93, Type (0, 0), BuildingBlock: KIFKEQ_clean_linker_1, # of connection points: 2
#     Edge 94, Type (0, 0), BuildingBlock: KIFKEQ_clean_linker_1, # of connection points: 2
#     Edge 95, Type (0, 0), BuildingBlock: KIFKEQ_clean_linker_1, # of connection points: 2
#     Edge 96, Type (0, 0), BuildingBlock: KIFKEQ_clean_linker_1, # of connection points: 2
#     Edge 97, Type (0, 0), BuildingBlock: KIFKEQ_clean_linker_1, # of connection points: 2
#     Edge 98, Type (0, 0), BuildingBlock: KIFKEQ_clean_linker_1, # of connection points: 2
#     Edge 99, Type (0, 0), BuildingBlock: KIFKEQ_clean_linker_1, # of connection points: 2
#     Edge 100, Type (0, 0), BuildingBlock: KIFKEQ_clean_linker_1, # of connection points: 2
#     Edge 101, Type (0, 0), BuildingBlock: KIFKEQ_clean_linker_1, # of connection points: 2
#     Edge 102, Type (0, 0), BuildingBlock: KIFKEQ_clean_linker_1, # of connection points: 2
#     Edge 103, Type (0, 0), BuildingBlock: KIFKEQ_clean_linker_1, # of connection points: 2
#     Edge 104, Type (0, 0), BuildingBlock: KIFKEQ_clean_linker_1, # of connection points: 2
#     Edge 105, Type (0, 0), BuildingBlock: KIFKEQ_clean_linker_1, # of connection points: 2
#     Edge 106, Type (0, 0), BuildingBlock: KIFKEQ_clean_linker_1, # of connection points: 2
#     Edge 107, Type (0, 0), BuildingBlock: KIFKEQ_clean_linker_1, # of connection points: 2
#     Edge 108, Type (0, 0), BuildingBlock: KIFKEQ_clean_linker_1, # of connection points: 2
#     Edge 109, Type (0, 0), BuildingBlock: KIFKEQ_clean_linker_1, # of connection points: 2
#     Edge 110, Type (0, 0), BuildingBlock: KIFKEQ_clean_linker_1, # of connection points: 2
#     Edge 111, Type (0, 0), BuildingBlock: KIFKEQ_clean_linker_1, # of connection points: 2
#     Edge 112, Type (0, 0), BuildingBlock: KIFKEQ_clean_linker_1, # of connection points: 2
#     Edge 113, Type (0, 0), BuildingBlock: KIFKEQ_clean_linker_1, # of connection points: 2
#     Edge 114, Type (0, 0), BuildingBlock: KIFKEQ_clean_linker_1, # of connection points: 2
#     Edge 115, Type (0, 0), BuildingBlock: KIFKEQ_clean_linker_1, # of connection points: 2
#     Edge 116, Type (0, 0), BuildingBlock: KIFKEQ_clean_linker_1, # of connection points: 2
#     Edge 117, Type (0, 0), BuildingBlock: KIFKEQ_clean_linker_1, # of connection points: 2
#     Edge 118, Type (0, 0), BuildingBlock: KIFKEQ_clean_linker_1, # of connection points: 2
#     Edge 119, Type (0, 0), BuildingBlock: KIFKEQ_clean_linker_1, # of connection points: 2
#     Edge 120, Type (0, 0), BuildingBlock: KIFKEQ_clean_linker_1, # of connection points: 2
#     Edge 121, Type (0, 0), BuildingBlock: KIFKEQ_clean_linker_1, # of connection points: 2
#     Edge 122, Type (0, 0), BuildingBlock: KIFKEQ_clean_linker_1, # of connection points: 2
#     Edge 123, Type (0, 0), BuildingBlock: KIFKEQ_clean_linker_1, # of connection points: 2
#     Edge 124, Type (0, 0), BuildingBlock: KIFKEQ_clean_linker_1, # of connection points: 2
#     Edge 125, Type (0, 0), BuildingBlock: KIFKEQ_clean_linker_1, # of connection points: 2
#     Edge 126, Type (0, 0), BuildingBlock: KIFKEQ_clean_linker_1, # of connection points: 2
#     Edge 127, Type (0, 0), BuildingBlock: KIFKEQ_clean_linker_1, # of connection points: 2
#     Edge 128, Type (0, 0), BuildingBlock: KIFKEQ_clean_linker_1, # of connection points: 2
#     Edge 129, Type (0, 0), BuildingBlock: KIFKEQ_clean_linker_1, # of connection points: 2
#     Edge 130, Type (0, 0), BuildingBlock: KIFKEQ_clean_linker_1, # of connection points: 2
#     Edge 131, Type (0, 0), BuildingBlock: KIFKEQ_clean_linker_1, # of connection points: 2
#     Edge 132, Type (0, 0), BuildingBlock: KIFKEQ_clean_linker_1, # of connection points: 2
#     Edge 133, Type (0, 0), BuildingBlock: KIFKEQ_clean_linker_1, # of connection points: 2
#     Edge 134, Type (0, 0), BuildingBlock: KIFKEQ_clean_linker_1, # of connection points: 2
#     Edge 135, Type (0, 0), BuildingBlock: KIFKEQ_clean_linker_1, # of connection points: 2
#     Edge 136, Type (0, 0), BuildingBlock: KIFKEQ_clean_linker_1, # of connection points: 2
#     Edge 137, Type (0, 0), BuildingBlock: KIFKEQ_clean_linker_1, # of connection points: 2
#     Edge 138, Type (0, 0), BuildingBlock: KIFKEQ_clean_linker_1, # of connection points: 2
#     Edge 139, Type (0, 0), BuildingBlock: KIFKEQ_clean_linker_1, # of connection points: 2
#     Edge 140, Type (0, 0), BuildingBlock: KIFKEQ_clean_linker_1, # of connection points: 2
#     Edge 141, Type (0, 0), BuildingBlock: KIFKEQ_clean_linker_1, # of connection points: 2
#     Edge 142, Type (0, 0), BuildingBlock: KIFKEQ_clean_linker_1, # of connection points: 2
#     Edge 143, Type (0, 0), BuildingBlock: KIFKEQ_clean_linker_1, # of connection points: 2
# Relax obj value: 0.325
# Max RMSD: 0.256
# Mean RMSD: 0.256
data_MOF--net-uky--node1-QUQFOY_clean_sbu_3--edge1-KIFKEQ_clean_linker_1
_symmetry_space_group_name_H-M    P1
_symmetry_Int_Tables_number       1
_symmetry_cell_setting            triclinic
loop_
_symmetry_equiv_pos_as_xyz
'x, y, z'
_cell_length_a     65.876382
_cell_length_b     65.903001
_cell_length_c     66.032463
_cell_angle_alpha  90.230977
_cell_angle_beta   90.286311
_cell_angle_gamma 90.05119
loop_
_atom_site_label
_atom_site_type_symbol
_atom_site_fract_x
_atom_site_fract_y
_atom_site_fract_z
_atom_type_partial_charge
C0 C 0.19057 0.22292 0.33875 0.0
O1 O 0.20382 0.22711 0.35217 0.0
Cd2 Cd 0.22127 0.20223 0.37166 0.0
O3 O 0.18474 0.20465 0.33586 0.0
Cd4 Cd 0.19096 0.17063 0.35161 0.0
C5 C 0.23799 0.17203 0.33223 0.0
O6 O 0.19461 0.18294 0.38611 0.0
O7 O 0.20479 0.1523 0.38137 0.0
O8 O 0.15448 0.16607 0.34848 0.0
C9 C 0.20089 0.16652 0.39374 0.0
O10 O 0.24216 0.1839 0.34696 0.0
C11 C 0.15519 0.14728 0.34425 0.0
O12 O 0.21998 0.16556 0.32942 0.0
O13 O 0.17269 0.13944 0.34239 0.0
C14 C 0.96753 0.94095 0.58985 0.0
O15 O 0.96317 0.95398 0.60336 0.0
Cd16 Cd -0.01206 -0.02816 0.62284 0.0
O17 O -0.0141 0.93565 0.58682 0.0
Cd18 Cd 0.02004 0.94249 0.60236 0.0
C19 C 0.01738 -0.01032 0.58349 0.0
O20 O 0.00785 0.9453 0.6368 0.0
O21 O 0.03832 0.95609 0.6325 0.0
O22 O 0.02481 0.90617 0.59846 0.0
C23 C 0.02417 0.95174 0.64467 0.0
O24 O 0.00552 -0.00663 0.59824 0.0
C25 C 0.04359 0.90708 0.59436 0.0
O26 O 0.02428 -0.02811 0.58051 0.0
O27 O 0.05138 0.92466 0.59298 0.0
C28 C 0.2514 0.71666 0.8427 0.0
O29 O 0.2395 0.7115 0.85684 0.0
Cd30 Cd 0.22026 0.73541 0.87569 0.0
O31 O 0.25506 0.73535 0.8392 0.0
Cd32 Cd 0.24717 0.7693 0.85472 0.0
C33 C 0.20014 0.76354 0.83593 0.0
O34 O 0.24534 0.75749 0.88939 0.0
O35 O 0.23326 0.78739 0.88456 0.0
O36 O 0.28322 0.77509 0.85041 0.0
C37 C 0.23813 0.77358 0.89697 0.0
O38 O 0.19788 0.75078 0.85021 0.0
C39 C 0.28175 0.79375 0.84599 0.0
O40 O 0.21706 0.77251 0.83343 0.0
O41 O 0.26395 0.80105 0.84475 0.0
C42 C 0.47493 0.00273 0.0898 0.0
O43 O 0.48008 -0.00902 0.10411 0.0
Cd44 Cd 0.45627 -0.02802 0.12318 0.0
O45 O 0.45623 0.00643 0.08619 0.0
Cd46 Cd 0.42237 -0.00132 0.10174 0.0
C47 C 0.42801 0.95153 0.08344 0.0
O48 O 0.43418 -0.00291 0.13656 0.0
O49 O 0.4044 -0.01534 0.13138 0.0
O50 O 0.41597 0.03467 0.09754 0.0
C51 C 0.41807 -0.01018 0.14395 0.0
O52 O 0.44078 0.94938 0.09784 0.0
C53 C 0.3973 0.03285 0.09308 0.0
O54 O 0.41908 0.96843 0.0807 0.0
O55 O 0.39035 0.01492 0.09161 0.0
C56 C 0.19036 0.71585 0.099 0.0
O57 O 0.20311 0.71158 0.08528 0.0
Cd58 Cd 0.22038 0.73639 0.06562 0.0
O59 O 0.18493 0.73418 0.10216 0.0
Cd60 Cd 0.19116 0.76831 0.08677 0.0
C61 C 0.23882 0.76588 0.105 0.0
O62 O 0.19368 0.75645 0.05206 0.0
O63 O 0.20424 0.78696 0.05701 0.0
O64 O 0.15491 0.7735 0.09075 0.0
C65 C 0.19999 0.77289 0.04454 0.0
O66 O 0.24236 0.75406 0.09011 0.0
C67 C 0.15617 0.79209 0.0957 0.0
O68 O 0.22102 0.77261 0.10819 0.0
O69 O 0.1739 0.79952 0.09743 0.0
C70 C 0.47234 0.94203 0.34751 0.0
O71 O 0.47661 0.95625 0.33532 0.0
Cd72 Cd 0.45249 -0.02606 0.31501 0.0
O73 O 0.45407 0.93587 0.34937 0.0
Cd74 Cd 0.42014 0.94399 0.33421 0.0
C75 C 0.42267 -0.00878 0.354 0.0
O76 O 0.43292 0.94746 0.30004 0.0
O77 O 0.40214 0.95746 0.30405 0.0
O78 O 0.41476 0.90776 0.3377 0.0
C79 C 0.41661 0.95366 0.29204 0.0
O80 O 0.4344 -0.0047 0.3393 0.0
C81 C 0.39597 0.90893 0.34166 0.0
O82 O 0.4161 -0.02675 0.35666 0.0
O83 O 0.38843 0.9266 0.34305 0.0
C84 C 0.25321 0.22195 0.59678 0.0
O85 O 0.24119 0.22728 0.5827 0.0
Cd86 Cd 0.22155 0.20374 0.56356 0.0
O87 O 0.25685 0.20322 0.60009 0.0
Cd88 Cd 0.24864 0.16955 0.58398 0.0
C89 C 0.20189 0.17501 0.60299 0.0
O90 O 0.24636 0.18183 0.54944 0.0
O91 O 0.2341 0.15195 0.55402 0.0
O92 O 0.28475 0.16356 0.58788 0.0
C93 C 0.23897 0.16583 0.54174 0.0
O94 O 0.19951 0.18795 0.58889 0.0
C95 C 0.28327 0.14477 0.59172 0.0
O96 O 0.21882 0.166 0.60537 0.0
O97 O 0.26546 0.13749 0.59295 0.0
C98 C 0.96566 -0.00207 0.84758 0.0
O99 O 0.96174 -0.01575 0.83453 0.0
Cd100 Cd -0.01358 0.96736 0.81451 0.0
O101 O -0.01616 0.00422 0.85021 0.0
Cd102 Cd 0.01816 -0.00256 0.83521 0.0
C103 C 0.01623 0.94998 0.85395 0.0
O104 O 0.00603 -0.00582 0.80059 0.0
O105 O 0.03681 -0.01558 0.80538 0.0
O106 O 0.02314 0.03382 0.83891 0.0
C107 C 0.02258 -0.01179 0.79299 0.0
O108 O 0.00407 0.94631 0.83933 0.0
C109 C 0.04183 0.03282 0.84354 0.0
O110 O 0.02327 0.96778 0.85676 0.0
O111 O 0.04941 0.01519 0.84532 0.0
C112 C 0.33894 0.19176 0.22275 0.0
O113 O 0.35218 0.20523 0.22677 0.0
Cd114 Cd 0.37253 0.22181 0.2023 0.0
O115 O 0.33627 0.18555 0.20458 0.0
Cd116 Cd 0.35153 0.19226 0.17044 0.0
C117 C 0.33336 0.23998 0.17257 0.0
O118 O 0.38619 0.19473 0.18273 0.0
O119 O 0.38174 0.20495 0.15215 0.0
O120 O 0.34731 0.15598 0.16512 0.0
C121 C 0.39401 0.20068 0.16634 0.0
O122 O 0.34803 0.24339 0.18476 0.0
C123 C 0.34285 0.15717 0.14645 0.0
O124 O 0.33033 0.22225 0.16545 0.0
O125 O 0.34139 0.17486 0.13904 0.0
C126 C -0.00445 0.09165 0.47498 0.0
O127 O -0.01792 0.1048 0.47907 0.0
Cd128 Cd 0.96497 0.12494 0.45461 0.0
O129 O 0.00151 0.08904 0.45677 0.0
Cd130 Cd -0.00568 0.1042 0.42262 0.0
C131 C 0.94679 0.08545 0.42511 0.0
O132 O -0.00844 0.13888 0.43476 0.0
O133 O -0.01879 0.13412 0.40416 0.0
O134 O 0.03062 0.10036 0.4174 0.0
C135 C -0.0146 0.14651 0.4183 0.0
O136 O 0.94344 0.10007 0.43732 0.0
C137 C 0.02935 0.09591 0.39872 0.0
O138 O 0.96443 0.08266 0.41781 0.0
O139 O 0.01161 0.09428 0.39125 0.0
C140 C 0.09719 0.7506 0.72576 0.0
O141 O 0.08291 0.73872 0.73077 0.0
Cd142 Cd 0.06363 0.71975 0.7068 0.0
O143 O 0.10064 0.75445 0.70715 0.0
Cd144 Cd 0.08488 0.74686 0.67321 0.0
C145 C 0.10335 0.69978 0.67856 0.0
O146 O 0.05012 0.74495 0.68496 0.0
O147 O 0.05495 0.73299 0.65502 0.0
O148 O 0.08919 0.78293 0.66735 0.0
C149 C 0.04252 0.7378 0.66881 0.0
O150 O 0.08902 0.69746 0.69125 0.0
C151 C 0.09369 0.78131 0.64875 0.0
O152 O 0.10596 0.71672 0.66976 0.0
O153 O 0.09503 0.76346 0.64157 0.0
C154 C 0.44081 0.84869 -0.02661 0.0
O155 O 0.45287 0.8345 -0.02171 0.0
Cd156 Cd 0.47122 0.8152 0.95408 0.0
O157 O 0.43653 0.85207 0.95482 0.0
Cd158 Cd 0.44341 0.83636 0.92082 0.0
C159 C 0.49067 0.85483 0.92547 0.0
O160 O 0.44525 0.80171 0.93283 0.0
O161 O 0.45651 0.80613 0.90265 0.0
O162 O 0.40725 0.84102 0.91556 0.0
C163 C 0.45182 0.79389 0.91662 0.0
O164 O 0.49326 0.84054 0.93818 0.0
C165 C 0.4084 0.84538 0.89691 0.0
O166 O 0.47352 0.85739 0.91689 0.0
O167 O 0.42608 0.84645 0.88938 0.0
C168 C 0.34108 0.74577 0.21426 0.0
O169 O 0.3541 0.73207 0.21055 0.0
Cd170 Cd 0.37436 0.71585 0.23552 0.0
O171 O 0.33858 0.75234 0.23229 0.0
Cd172 Cd 0.35367 0.74621 0.26665 0.0
C173 C 0.33519 0.69854 0.26537 0.0
O174 O 0.38823 0.7433 0.25468 0.0
O175 O 0.38397 0.73402 0.28552 0.0
O176 O 0.34943 0.78258 0.27108 0.0
C177 C 0.39615 0.73769 0.2712 0.0
O178 O 0.34976 0.69479 0.25331 0.0
C179 C 0.34493 0.78182 0.28973 0.0
O180 O 0.33236 0.71643 0.27212 0.0
O181 O 0.34356 0.76432 0.29757 0.0
C182 C 0.44756 0.0888 0.46628 0.0
O183 O 0.46252 0.10057 0.4632 0.0
Cd184 Cd 0.47938 0.12085 0.48816 0.0
O185 O 0.44003 0.08701 0.48397 0.0
Cd186 Cd 0.4464 0.10128 0.51857 0.0
C187 C 0.49403 0.08148 0.51879 0.0
O188 O 0.45174 0.13519 0.50597 0.0
O189 O 0.45677 0.13214 0.538 0.0
O190 O 0.40984 0.0976 0.52191 0.0
C191 C 0.45586 0.14362 0.52269 0.0
O192 O 0.49904 0.0962 0.50743 0.0
C193 C 0.4102 0.09297 0.54056 0.0
O194 O 0.47566 0.07898 0.5242 0.0
O195 O 0.42756 0.09123 0.54884 0.0
C196 C 0.09928 0.1872 0.71242 0.0
O197 O 0.0849 0.19889 0.70716 0.0
Cd198 Cd 0.06566 0.21813 0.73073 0.0
O199 O 0.10282 0.18364 0.73111 0.0
Cd200 Cd 0.08703 0.19157 0.7648 0.0
C201 C 0.10543 0.23859 0.75906 0.0
O202 O 0.05217 0.19331 0.75288 0.0
O203 O 0.05732 0.20589 0.78258 0.0
O204 O 0.09107 0.15555 0.77109 0.0
C205 C 0.04474 0.20077 0.76889 0.0
O206 O 0.09106 0.24065 0.74623 0.0
C207 C 0.09541 0.15732 0.78975 0.0
O208 O 0.10815 0.22177 0.7681 0.0
O209 O 0.0969 0.17524 0.79677 0.0
C210 C 0.00408 0.84962 0.9645 0.0
O211 O -0.00747 0.83524 0.95881 0.0
Cd212 Cd -0.02756 0.81624 -0.01828 0.0
O213 O 0.00701 0.85326 -0.0167 0.0
Cd214 Cd -0.00184 0.83758 0.01674 0.0
C215 C 0.95136 0.85605 0.00928 0.0
O216 O -0.00319 0.80281 0.00462 0.0
O217 O -0.01617 0.80762 0.03408 0.0
O218 O 0.03401 0.8421 0.02381 0.0
C219 C -0.01081 0.79521 0.02042 0.0
O220 O 0.94962 0.84179 -0.00371 0.0
C221 C 0.03198 0.84626 0.04247 0.0
O222 O 0.96789 0.85861 0.01904 0.0
O223 O 0.01396 0.84739 0.04916 0.0
C224 C 0.22324 0.34126 0.18554 0.0
O225 O 0.22895 0.3554 0.19737 0.0
Cd226 Cd 0.20595 0.37422 0.21766 0.0
O227 O 0.20439 0.33784 0.18242 0.0
Cd228 Cd 0.17089 0.35367 0.19126 0.0
C229 C 0.17782 0.33426 0.23759 0.0
O230 O 0.18322 0.38831 0.19354 0.0
O231 O 0.15356 0.38343 0.20613 0.0
O232 O 0.16438 0.34991 0.1553 0.0
C233 C 0.16735 0.39585 0.20121 0.0
O234 O 0.1909 0.3484 0.23966 0.0
C235 C 0.14556 0.34619 0.15689 0.0
O236 O 0.16815 0.33202 0.22098 0.0
O237 O 0.13849 0.3449 0.1747 0.0
C238 C 0.72257 0.10012 0.74944 0.0
O239 O 0.72724 0.08632 0.73683 0.0
Cd240 Cd 0.70279 0.06707 0.71833 0.0
O241 O 0.70407 0.10344 0.75402 0.0
Cd242 Cd 0.67007 0.08803 0.74642 0.0
C243 C 0.67408 0.10665 0.69932 0.0
O244 O 0.68206 0.05337 0.74425 0.0
O245 O 0.65189 0.05784 0.73262 0.0
O246 O 0.66465 0.0923 0.7825 0.0
C247 C 0.6659 0.04555 0.7374 0.0
O248 O 0.68611 0.09185 0.69617 0.0
C249 C 0.64589 0.09648 0.78118 0.0
O250 O 0.66653 0.10969 0.71678 0.0
O251 O 0.6384 0.09773 0.76347 0.0
C252 C 0.08834 0.47146 -0.01024 0.0
O253 O 0.10003 0.47384 -0.02531 0.0
Cd254 Cd 0.12091 0.44835 0.95966 0.0
O255 O 0.08686 0.45421 -0.00162 0.0
Cd256 Cd 0.10173 0.41959 -0.00637 0.0
C257 C 0.08229 0.41635 0.94599 0.0
O258 O 0.13577 0.43225 -0.01186 0.0
O259 O 0.13255 0.40006 -0.01614 0.0
O260 O 0.09843 0.4169 0.03024 0.0
C261 C 0.14415 0.41538 -0.0154 0.0
O262 O 0.09712 0.42737 0.94046 0.0
C263 C 0.09357 0.39825 0.03019 0.0
O264 O 0.0795 0.4123 0.96461 0.0
O265 O 0.09153 0.38973 0.01301 0.0
C266 C 0.71753 0.83942 0.25073 0.0
O267 O 0.71261 0.85323 0.23829 0.0
Cd268 Cd 0.73669 0.87255 0.21973 0.0
O269 O 0.73613 0.83614 0.25513 0.0
Cd270 Cd 0.77002 0.85157 0.24751 0.0
C271 C 0.76512 0.83286 0.20035 0.0
O272 O 0.75796 0.88623 0.24551 0.0
O273 O 0.788 0.8816 0.23378 0.0
O274 O 0.77599 0.84728 0.28349 0.0
C275 C 0.77408 0.89394 0.23862 0.0
O276 O 0.753 0.84763 0.19737 0.0
C277 C 0.79469 0.84298 0.28201 0.0
O278 O 0.773 0.8299 0.21773 0.0
O279 O 0.80191 0.84173 0.26424 0.0
C280 C 0.84965 0.96731 -0.0045 0.0
O281 O 0.83613 0.96324 -0.01768 0.0
Cd282 Cd 0.81655 -0.01165 0.96529 0.0
O283 O 0.85263 -0.01445 0.00142 0.0
Cd284 Cd 0.8371 0.01976 -0.00443 0.0
C285 C 0.85605 0.0183 0.94843 0.0
O286 O 0.80253 0.00758 -0.00771 0.0
O287 O 0.80702 0.03831 -0.01753 0.0
O288 O 0.84089 0.02397 0.03195 0.0
C289 C 0.79474 0.02405 -0.01366 0.0
O290 O 0.84123 0.00651 0.94433 0.0
C291 C 0.84519 0.04273 0.03142 0.0
O292 O 0.85903 0.02474 0.96639 0.0
O293 O 0.84674 0.05075 0.01403 0.0
C294 C 0.21502 0.59906 0.69197 0.0
O295 O 0.21049 0.58531 0.7046 0.0
Cd296 Cd 0.23459 0.5658 0.72315 0.0
O297 O 0.23347 0.60241 0.68712 0.0
Cd298 Cd 0.26791 0.58756 0.69382 0.0
C299 C 0.26412 0.60557 0.74165 0.0
O300 O 0.25554 0.55325 0.69699 0.0
O301 O 0.28715 0.55685 0.70442 0.0
O302 O 0.2727 0.59231 0.6577 0.0
C303 C 0.27208 0.54508 0.70221 0.0
O304 O 0.25137 0.59131 0.74444 0.0
C305 C 0.29129 0.59729 0.65896 0.0
O306 O 0.27228 0.60815 0.7244 0.0
O307 O 0.29888 0.59872 0.67663 0.0
C308 C 0.09242 0.46667 0.44233 0.0
O309 O 0.10551 0.46303 0.45602 0.0
Cd310 Cd 0.12556 0.48812 0.47262 0.0
O311 O 0.08972 0.48473 0.43592 0.0
Cd312 Cd 0.10448 0.51931 0.44241 0.0
C313 C 0.08602 0.51775 0.48993 0.0
O314 O 0.13921 0.50754 0.44559 0.0
O315 O 0.13447 0.53848 0.45486 0.0
O316 O 0.10029 0.52377 0.40611 0.0
C317 C 0.14686 0.52423 0.45129 0.0
O318 O 0.10072 0.50576 0.49365 0.0
C319 C 0.09536 0.54236 0.40703 0.0
O320 O 0.08312 0.52454 0.47212 0.0
O321 O 0.09377 0.55014 0.42458 0.0
C322 C 0.34952 0.47137 0.94608 0.0
O323 O 0.33793 0.47466 0.96106 0.0
Cd324 Cd 0.31773 0.44981 -0.02222 0.0
O325 O 0.35104 0.4536 0.93847 0.0
Cd326 Cd 0.3363 0.41921 0.94484 0.0
C327 C 0.35696 0.41872 -0.008 0.0
O328 O 0.30232 0.43199 0.9505 0.0
O329 O 0.30583 0.40007 0.95612 0.0
O330 O 0.33899 0.4157 0.90827 0.0
C331 C 0.29413 0.41527 0.95497 0.0
O332 O 0.34231 0.43018 -0.00281 0.0
C333 C 0.34329 0.39692 0.90842 0.0
O334 O 0.35928 0.41337 -0.0264 0.0
O335 O 0.34535 0.38863 0.92564 0.0
C336 C 0.68785 0.7245 0.8406 0.0
O337 O 0.69992 0.72937 0.85486 0.0
Cd338 Cd 0.71852 0.70511 0.87388 0.0
O339 O 0.68363 0.7059 0.83703 0.0
Cd340 Cd 0.69078 0.6719 0.85265 0.0
C341 C 0.73782 0.67637 0.83416 0.0
O342 O 0.69292 0.68375 0.88743 0.0
O343 O 0.70478 0.65376 0.88237 0.0
O344 O 0.65456 0.66635 0.84855 0.0
C345 C 0.6999 0.66752 0.89489 0.0
O346 O 0.74047 0.68907 0.84854 0.0
C347 C 0.65586 0.64762 0.84419 0.0
O348 O 0.72065 0.66786 0.83147 0.0
O349 O 0.6736 0.64024 0.84274 0.0
C350 C 0.46846 0.44371 0.08994 0.0
O351 O 0.46454 0.45826 0.10196 0.0
Cd352 Cd 0.4891 0.47544 0.12235 0.0
O353 O 0.48655 0.43698 0.08832 0.0
Cd354 Cd 0.52052 0.44449 0.10383 0.0
C355 C 0.51972 0.49139 0.0836 0.0
O356 O 0.50749 0.44858 0.13788 0.0
O357 O 0.53846 0.45812 0.13413 0.0
O358 O 0.52484 0.40803 0.10073 0.0
C359 C 0.52388 0.45449 0.14603 0.0
O360 O 0.5081 0.49603 0.09825 0.0
C361 C 0.54375 0.40858 0.09722 0.0
O362 O 0.52567 0.47319 0.08103 0.0
O363 O 0.55186 0.426 0.09582 0.0
C364 C 0.75085 0.21616 0.33988 0.0
O365 O 0.73839 0.21134 0.35367 0.0
Cd366 Cd 0.71972 0.23553 0.37288 0.0
O367 O 0.75524 0.23472 0.33659 0.0
Cd368 Cd 0.74753 0.26866 0.35202 0.0
C369 C 0.70034 0.26385 0.33319 0.0
O370 O 0.74544 0.25682 0.38664 0.0
O371 O 0.73345 0.28676 0.38182 0.0
O372 O 0.78364 0.27456 0.34807 0.0
C373 C 0.73839 0.27298 0.39422 0.0
O374 O 0.69733 0.25182 0.34794 0.0
C375 C 0.78214 0.29326 0.34381 0.0
O376 O 0.71775 0.27165 0.33025 0.0
O377 O 0.76433 0.30049 0.34238 0.0
C378 C -0.02507 0.50647 0.58979 0.0
O379 O -0.01955 0.49498 0.60419 0.0
Cd380 Cd 0.95721 0.47489 0.62286 0.0
O381 O 0.95613 0.50938 0.586 0.0
Cd382 Cd 0.92241 0.50063 0.60129 0.0
C383 C 0.92979 0.45384 0.58274 0.0
O384 O 0.9341 0.49908 0.63615 0.0
O385 O 0.90459 0.48607 0.63076 0.0
O386 O 0.91551 0.53648 0.59712 0.0
C387 C 0.91817 0.4913 0.64341 0.0
O388 O 0.94265 0.4521 0.59711 0.0
C389 C 0.89691 0.53443 0.59247 0.0
O390 O 0.92016 0.47037 0.58013 0.0
O391 O 0.89018 0.51641 0.59096 0.0
C392 C 0.69511 0.21655 0.59822 0.0
O393 O 0.70964 0.21341 0.58604 0.0
Cd394 Cd 0.72497 0.23855 0.56524 0.0
O395 O 0.68731 0.2342 0.59992 0.0
Cd396 Cd 0.693 0.2684 0.58448 0.0
C397 C 0.74048 0.26985 0.60385 0.0
O398 O 0.69706 0.25581 0.55016 0.0
O399 O 0.70558 0.28703 0.55449 0.0
O400 O 0.65644 0.27245 0.58755 0.0
C401 C 0.7023 0.27247 0.54231 0.0
O402 O 0.74542 0.25867 0.5889 0.0
C403 C 0.65702 0.29122 0.59191 0.0
O404 O 0.72202 0.27464 0.60685 0.0
O405 O 0.67446 0.29925 0.5938 0.0
C406 C -0.02637 0.43941 0.84573 0.0
O407 O -0.02146 0.45272 0.83278 0.0
Cd408 Cd 0.95483 0.47134 0.81302 0.0
O409 O 0.95505 0.43458 0.84824 0.0
Cd410 Cd 0.9212 0.44338 0.83318 0.0
C411 C 0.92603 0.49057 0.85233 0.0
O412 O 0.93347 0.44585 0.79871 0.0
O413 O 0.90316 0.457 0.80306 0.0
O414 O 0.91533 0.40731 0.83721 0.0
C415 C 0.91734 0.45271 0.79088 0.0
O416 O 0.93859 0.49332 0.83799 0.0
C417 C 0.8966 0.40873 0.84135 0.0
O418 O 0.91768 0.47333 0.85485 0.0
O419 O 0.88926 0.4265 0.84256 0.0
C420 C 0.74228 0.72175 0.09989 0.0
O421 O 0.72733 0.72459 0.08802 0.0
Cd422 Cd 0.71207 0.69921 0.06715 0.0
O423 O 0.75049 0.70427 0.1013 0.0
Cd424 Cd 0.74504 0.66994 0.08575 0.0
C425 C 0.69795 0.66758 0.10558 0.0
O426 O 0.74026 0.68283 0.05174 0.0
O427 O 0.73252 0.65137 0.05532 0.0
O428 O 0.78172 0.66657 0.0887 0.0
C429 C 0.73534 0.66619 0.04349 0.0
O430 O 0.69247 0.67865 0.09078 0.0
C431 C 0.78155 0.64776 0.09281 0.0
O432 O 0.71657 0.66315 0.10833 0.0
O433 O 0.76429 0.6394 0.09458 0.0
C434 C 0.46637 0.49489 0.35085 0.0
O435 O 0.46299 0.48055 0.33836 0.0
Cd436 Cd 0.48805 0.46498 0.31757 0.0
O437 O 0.48418 0.5023 0.35283 0.0
Cd438 Cd 0.51838 0.49612 0.33756 0.0
C439 C 0.5186 0.44855 0.35628 0.0
O440 O 0.50593 0.49273 0.30307 0.0
O441 O 0.53692 0.48345 0.30745 0.0
O442 O 0.52292 0.53258 0.34126 0.0
C443 C 0.52255 0.48729 0.29523 0.0
O444 O 0.5074 0.44395 0.34117 0.0
C445 C 0.54168 0.53178 0.34567 0.0
O446 O 0.52387 0.46687 0.35954 0.0
O447 O 0.54948 0.51425 0.34733 0.0
C448 C 0.83959 0.68818 0.72412 0.0
O449 O 0.85394 0.70002 0.72927 0.0
Cd450 Cd 0.87322 0.71884 0.70555 0.0
O451 O 0.836 0.68434 0.70547 0.0
Cd452 Cd 0.85166 0.69193 0.67173 0.0
C453 C 0.83372 0.73923 0.67718 0.0
O454 O 0.8865 0.69346 0.68366 0.0
O455 O 0.88176 0.70557 0.65385 0.0
O456 O 0.84713 0.65592 0.66536 0.0
C457 C 0.89417 0.70059 0.66768 0.0
O458 O 0.84811 0.74144 0.68998 0.0
C459 C 0.84254 0.65765 0.64676 0.0
O460 O 0.83088 0.72227 0.66831 0.0
O461 O 0.84121 0.67555 0.63982 0.0
C462 C 0.49613 0.58982 -0.0272 0.0
O463 O 0.48187 0.60221 -0.02342 0.0
Cd464 Cd 0.4648 0.62238 0.95198 0.0
O465 O 0.5027 0.58766 0.95476 0.0
Cd466 Cd 0.49515 0.60251 0.92065 0.0
C467 C 0.44777 0.58297 0.92224 0.0
O468 O 0.49172 0.63699 0.93309 0.0
O469 O 0.48186 0.63255 0.9023 0.0
O470 O 0.53149 0.59901 0.91561 0.0
C471 C 0.48574 0.6448 0.91665 0.0
O472 O 0.44353 0.59798 0.93367 0.0
C473 C 0.53037 0.59466 0.8969 0.0
O474 O 0.46586 0.58008 0.91616 0.0
O475 O 0.5127 0.59298 0.8893 0.0
C476 C 0.59949 0.24096 0.22236 0.0
O477 O 0.58744 0.22621 0.22526 0.0
Cd478 Cd 0.56665 0.21092 0.19981 0.0
O479 O 0.60108 0.24892 0.20484 0.0
Cd480 Cd 0.58567 0.24336 0.17051 0.0
C481 C 0.60536 0.19611 0.16866 0.0
O482 O 0.55145 0.23904 0.18307 0.0
O483 O 0.5553 0.23095 0.15176 0.0
O484 O 0.58892 0.27997 0.16724 0.0
C485 C 0.54332 0.23404 0.16641 0.0
O486 O 0.59045 0.1909 0.17968 0.0
C487 C 0.59311 0.27977 0.14849 0.0
O488 O 0.60822 0.21463 0.16407 0.0
O489 O 0.59478 0.26249 0.14009 0.0
C490 C 0.94322 0.35123 0.47207 0.0
O491 O 0.9562 0.33766 0.47634 0.0
Cd492 Cd -0.02679 0.31764 0.45162 0.0
O493 O 0.9375 0.35409 0.4538 0.0
Cd494 Cd 0.94352 0.33817 0.41981 0.0
C495 C -0.00892 0.35664 0.42177 0.0
O496 O 0.946 0.30377 0.43229 0.0
O497 O 0.95632 0.30767 0.40172 0.0
O498 O 0.90719 0.34233 0.41493 0.0
C499 C 0.952 0.29565 0.41601 0.0
O500 O -0.00515 0.34193 0.43367 0.0
C501 C 0.90813 0.3465 0.39621 0.0
O502 O -0.02682 0.35967 0.4151 0.0
O503 O 0.92573 0.34779 0.38854 0.0
C504 C 0.84148 0.24906 0.71304 0.0
O505 O 0.85452 0.23557 0.70869 0.0
Cd506 Cd 0.87443 0.21803 0.73303 0.0
O507 O 0.83892 0.25468 0.73137 0.0
Cd508 Cd 0.85403 0.24711 0.76547 0.0
C509 C 0.83509 0.19972 0.76213 0.0
O510 O 0.88858 0.24446 0.75334 0.0
O511 O 0.88434 0.23413 0.78384 0.0
O512 O 0.84979 0.28334 0.7707 0.0
C513 C 0.89651 0.23817 0.7696 0.0
O514 O 0.84954 0.19646 0.7498 0.0
C515 C 0.84539 0.28222 0.78934 0.0
O516 O 0.83247 0.21727 0.76981 0.0
O517 O 0.84414 0.26457 0.79688 0.0
C518 C 0.94014 0.59177 0.96343 0.0
O519 O 0.95289 0.60536 0.95859 0.0
Cd520 Cd -0.02808 0.62454 -0.01729 0.0
O521 O 0.93564 0.58872 -0.01805 0.0
Cd522 Cd 0.94354 0.60434 0.01576 0.0
C523 C -0.00963 0.58468 0.01143 0.0
O524 O 0.9464 0.63886 0.00358 0.0
O525 O 0.95785 0.63422 0.03377 0.0
O526 O 0.90733 0.60081 0.02124 0.0
C527 C 0.95336 0.64655 0.01977 0.0
O528 O -0.00632 0.59929 -0.00071 0.0
C529 C 0.90864 0.59679 0.03998 0.0
O530 O -0.0271 0.58213 0.01919 0.0
O531 O 0.92639 0.59528 0.04743 0.0
C532 C 0.59882 0.68861 0.21534 0.0
O533 O 0.58571 0.702 0.21088 0.0
Cd534 Cd 0.56609 0.72018 0.23489 0.0
O535 O 0.60164 0.68335 0.23374 0.0
Cd536 Cd 0.5868 0.69171 0.26777 0.0
C537 C 0.6059 0.73892 0.26377 0.0
O538 O 0.55214 0.69432 0.25559 0.0
O539 O 0.55696 0.70562 0.28582 0.0
O540 O 0.59059 0.65556 0.27362 0.0
C541 C 0.54454 0.70112 0.27179 0.0
O542 O 0.59129 0.74193 0.25143 0.0
C543 C 0.59478 0.65709 0.29233 0.0
O544 O 0.6086 0.72154 0.27169 0.0
O545 O 0.59631 0.67491 0.29958 0.0
C546 C 0.4947 0.34875 0.46523 0.0
O547 O 0.48041 0.33644 0.46108 0.0
Cd548 Cd 0.46246 0.3167 0.48524 0.0
O549 O 0.50103 0.3509 0.48343 0.0
Cd550 Cd 0.49363 0.33622 0.51758 0.0
C551 C 0.4464 0.35631 0.51555 0.0
O552 O 0.48888 0.30201 0.5048 0.0
O553 O 0.4821 0.30584 0.53642 0.0
O554 O 0.53011 0.33961 0.52198 0.0
C555 C 0.48388 0.29399 0.5214 0.0
O556 O 0.4424 0.34207 0.50306 0.0
C557 C 0.5295 0.34384 0.54073 0.0
O558 O 0.46422 0.35838 0.52286 0.0
O559 O 0.51205 0.34559 0.54863 0.0
C560 C 0.7241 0.8422 0.68978 0.0
O561 O 0.72911 0.85636 0.70189 0.0
Cd562 Cd 0.70498 0.87547 0.72057 0.0
O563 O 0.70545 0.8388 0.68558 0.0
Cd564 Cd 0.67147 0.85445 0.69273 0.0
C565 C 0.67625 0.83565 0.73962 0.0
O566 O 0.68349 0.88918 0.69506 0.0
O567 O 0.6533 0.88435 0.70636 0.0
O568 O 0.66609 0.85015 0.65659 0.0
C569 C 0.66724 0.89677 0.70184 0.0
O570 O 0.68903 0.84995 0.74229 0.0
C571 C 0.64735 0.84589 0.65773 0.0
O572 O 0.66757 0.83315 0.72252 0.0
O573 O 0.63983 0.84465 0.67537 0.0
C574 C 0.22369 0.59853 0.2533 0.0
O575 O 0.22914 0.58422 0.24162 0.0
Cd576 Cd 0.2057 0.56539 0.2216 0.0
O577 O 0.20491 0.60218 0.25635 0.0
Cd578 Cd 0.17115 0.58661 0.24758 0.0
C579 C 0.17791 0.60523 0.20094 0.0
O580 O 0.18316 0.55188 0.246 0.0
O581 O 0.15345 0.55662 0.23323 0.0
O582 O 0.16488 0.59115 0.28343 0.0
C583 C 0.16721 0.54424 0.23843 0.0
O584 O 0.19083 0.59097 0.19907 0.0
C585 C 0.14612 0.59517 0.28166 0.0
O586 O 0.16842 0.60777 0.21751 0.0
O587 O 0.13899 0.5962 0.26378 0.0
C588 C 0.5901 0.96898 0.49323 0.0
O589 O 0.60168 -0.02757 0.47829 0.0
Cd590 Cd 0.62188 0.94786 0.46093 0.0
O591 O 0.58849 0.95112 0.50047 0.0
Cd592 Cd 0.60288 0.91669 0.49368 0.0
C593 C 0.58262 0.91664 0.44628 0.0
O594 O 0.63669 0.92967 0.48806 0.0
O595 O 0.63365 0.89758 0.48292 0.0
O596 O 0.59966 0.91333 0.53014 0.0
C597 C 0.64509 0.91302 0.48368 0.0
O598 O 0.59721 0.92828 0.44136 0.0
C599 C 0.59522 0.89458 0.52987 0.0
O600 O 0.58023 0.91105 0.46456 0.0
O601 O 0.59341 0.88619 0.5126 0.0
C602 C 0.2158 0.34083 0.74571 0.0
O603 O 0.21107 0.35425 0.73277 0.0
Cd604 Cd 0.23507 0.37356 0.7141 0.0
O605 O 0.23429 0.33793 0.75082 0.0
Cd606 Cd 0.26844 0.35345 0.74426 0.0
C607 C 0.26527 0.3338 0.69709 0.0
O608 O 0.25566 0.38758 0.74005 0.0
O609 O 0.28721 0.38394 0.73263 0.0
O610 O 0.27274 0.35002 0.78064 0.0
C611 C 0.27215 0.39569 0.73464 0.0
O612 O 0.25236 0.34781 0.69378 0.0
C613 C 0.29153 0.34582 0.78006 0.0
O614 O 0.27342 0.33179 0.71451 0.0
O615 O 0.2995 0.3441 0.76266 0.0
C616 C 0.34944 0.47032 0.50268 0.0
O617 O 0.33566 0.46535 0.49009 0.0
Cd618 Cd 0.31673 0.48933 0.47091 0.0
O619 O 0.35287 0.48894 0.5069 0.0
Cd620 Cd 0.33755 0.52278 0.49868 0.0
C621 C 0.35661 0.51764 0.4519 0.0
O622 O 0.30286 0.51072 0.49627 0.0
O623 O 0.30763 0.54057 0.48417 0.0
O624 O 0.34156 0.52866 0.53473 0.0
C625 C 0.29522 0.52674 0.48904 0.0
O626 O 0.34181 0.50553 0.44882 0.0
C627 C 0.34556 0.54744 0.53339 0.0
O628 O 0.35956 0.52561 0.46926 0.0
O629 O 0.34684 0.55476 0.51567 0.0
C630 C 0.71535 0.09641 0.19007 0.0
O631 O 0.71099 0.08336 0.20346 0.0
Cd632 Cd 0.73531 0.06384 0.22151 0.0
O633 O 0.73376 0.09918 0.18475 0.0
Cd634 Cd 0.76801 0.08448 0.19285 0.0
C635 C 0.7641 0.10378 0.24001 0.0
O636 O 0.75603 0.04979 0.19562 0.0
O637 O 0.78653 0.0547 0.20634 0.0
O638 O 0.77342 0.08835 0.15674 0.0
C639 C 0.77244 0.04225 0.20216 0.0
O640 O 0.75182 0.08919 0.24309 0.0
C641 C 0.79213 0.09278 0.15808 0.0
O642 O 0.77196 0.10637 0.22262 0.0
O643 O 0.79959 0.0943 0.1758 0.0
C644 C 0.59172 0.96645 0.938 0.0
O645 O 0.60595 0.9617 0.95011 0.0
Cd646 Cd 0.62498 -0.0139 0.96874 0.0
O647 O 0.58812 -0.01499 0.93382 0.0
Cd648 Cd 0.60359 0.01916 0.94112 0.0
C649 C 0.58518 0.0146 -0.01185 0.0
O650 O 0.6384 0.00744 0.94314 0.0
O651 O 0.6336 0.03757 0.95479 0.0
O652 O 0.59918 0.02465 0.90503 0.0
C653 C 0.64602 0.0237 0.95003 0.0
O654 O 0.59959 0.00197 -0.00927 0.0
C655 C 0.59468 0.04332 0.90642 0.0
O656 O 0.58249 0.02308 -0.02894 0.0
O657 O 0.59334 0.05071 0.92416 0.0
C658 C 0.84768 -0.027 0.43825 0.0
O659 O 0.83374 -0.02202 0.45052 0.0
Cd660 Cd 0.81489 0.95429 0.47006 0.0
O661 O 0.85131 0.95437 0.43428 0.0
Cd662 Cd 0.83674 0.92011 0.44204 0.0
C663 C 0.85522 0.92621 0.4894 0.0
O664 O 0.80216 0.93194 0.44489 0.0
O665 O 0.80652 0.90084 0.45364 0.0
O666 O 0.84139 0.91461 0.40603 0.0
C667 C 0.7944 0.91548 0.45083 0.0
O668 O 0.84088 0.93896 0.49174 0.0
C669 C 0.84636 0.89606 0.40743 0.0
O670 O 0.85769 0.91716 0.4725 0.0
O671 O 0.84782 0.88877 0.42515 0.0
H672 H 0.24602 0.19454 0.51316 0.0
H673 H 0.22091 0.13448 0.52092 0.0
H674 H 0.23685 0.19358 0.47746 0.0
H675 H 0.21144 0.13365 0.48502 0.0
H676 H 0.21699 0.13423 0.41444 0.0
H677 H 0.22653 0.13306 0.45031 0.0
H678 H 0.20511 0.19452 0.45802 0.0
H679 H 0.19588 0.1958 0.42237 0.0
C680 C 0.23854 0.18111 0.50724 0.0
C681 C 0.23406 0.16464 0.5199 0.0
C682 C 0.23319 0.18061 0.48679 0.0
C683 C 0.22324 0.16363 0.47848 0.0
C684 C 0.21918 0.14691 0.49099 0.0
C685 C 0.22452 0.14743 0.51154 0.0
C686 C 0.21428 0.14744 0.42385 0.0
C687 C 0.20583 0.16516 0.41555 0.0
C688 C 0.21965 0.14673 0.44438 0.0
C689 C 0.21674 0.16376 0.45693 0.0
C690 C 0.20789 0.18128 0.44867 0.0
C691 C 0.2025 0.18197 0.42824 0.0
H692 H 0.05569 0.9692 0.66585 0.0
H693 H -0.00472 0.94471 0.67301 0.0
H694 H 0.05636 -0.02159 0.70184 0.0
H695 H -0.00391 0.95357 0.70874 0.0
H696 H 0.05504 -0.02767 0.77244 0.0
H697 H 0.05653 0.96325 0.73647 0.0
H698 H -0.00478 -0.01495 0.72836 0.0
H699 H -0.00639 -0.00621 0.7641 0.0
C700 C 0.04264 0.96567 0.67511 0.0
C701 C 0.02537 0.9564 0.66656 0.0
C702 C 0.04306 -0.02915 0.69571 0.0
C703 C 0.02619 0.96691 0.70805 0.0
C704 C 0.00917 0.95718 0.69954 0.0
C705 C 0.00876 0.952 0.67907 0.0
C706 C 0.04193 -0.02477 0.76292 0.0
C707 C 0.02415 -0.01639 0.77113 0.0
C708 C 0.04282 -0.02988 0.74233 0.0
C709 C 0.02592 -0.02675 0.72964 0.0
C710 C 0.00836 -0.01791 0.73782 0.0
C711 C 0.00748 -0.0128 0.7583 0.0
H712 H 0.24496 0.74491 0.92568 0.0
H713 H 0.22032 0.8051 0.91755 0.0
H714 H 0.23566 0.74592 0.96124 0.0
H715 H 0.21073 0.80599 0.95334 0.0
H716 H 0.21628 0.80518 0.0241 0.0
H717 H 0.2258 0.80641 -0.01169 0.0
H718 H 0.20367 0.7452 -0.01986 0.0
H719 H 0.19444 0.74385 0.0157 0.0
C720 C 0.23757 0.75839 0.93149 0.0
C721 C 0.23325 0.77487 0.91876 0.0
C722 C 0.23213 0.75891 0.95186 0.0
C723 C 0.22226 0.77594 0.96003 0.0
C724 C 0.2184 0.79269 0.94747 0.0
C725 C 0.2238 0.79214 0.92699 0.0
C726 C 0.2134 0.79204 0.0146 0.0
C727 C 0.20477 0.77436 0.02275 0.0
C728 C 0.21876 0.79278 -0.00588 0.0
C729 C 0.21567 0.77582 -0.01851 0.0
C730 C 0.20659 0.75837 -0.01042 0.0
C731 C 0.2012 0.75765 0.00995 0.0
H732 H 0.38453 0.96938 0.27056 0.0
H733 H 0.44644 0.94876 0.26418 0.0
H734 H 0.38387 -0.02141 0.23466 0.0
H735 H 0.44566 0.95766 0.22852 0.0
H736 H 0.3865 -0.02808 0.16411 0.0
H737 H 0.38516 0.96306 0.20005 0.0
H738 H 0.44473 -0.01086 0.20894 0.0
H739 H 0.44622 -0.0023 0.1732 0.0
C740 C 0.39793 0.96672 0.26149 0.0
C741 C 0.41558 0.95848 0.27022 0.0
C742 C 0.39752 -0.0281 0.24094 0.0
C743 C 0.41478 0.96903 0.22883 0.0
C744 C 0.43225 0.96042 0.23754 0.0
C745 C 0.43264 0.95521 0.25797 0.0
C746 C 0.39926 -0.02419 0.17379 0.0
C747 C 0.41654 -0.01465 0.1658 0.0
C748 C 0.39844 -0.02917 0.19436 0.0
C749 C 0.41492 -0.02477 0.20726 0.0
C750 C 0.43195 -0.01479 0.19931 0.0
C751 C 0.43275 -0.00979 0.17884 0.0
H752 H 0.51521 0.23945 0.19587 0.0
H753 H 0.52171 0.21899 0.13399 0.0
H754 H 0.47926 0.23132 0.19466 0.0
H755 H 0.48552 0.21045 0.1329 0.0
H756 H 0.42286 0.19275 0.19477 0.0
H757 H 0.45886 0.20063 0.19358 0.0
H758 H 0.45117 0.22594 0.13378 0.0
H759 H 0.41495 0.21766 0.13481 0.0
C760 C 0.50896 0.23318 0.18199 0.0
C761 C 0.52133 0.22972 0.16507 0.0
C762 C 0.48835 0.22841 0.18134 0.0
C763 C 0.47959 0.22001 0.16376 0.0
C764 C 0.49183 0.21698 0.14663 0.0
C765 C 0.51254 0.22178 0.14728 0.0
C766 C 0.42881 0.19994 0.18132 0.0
C767 C 0.41603 0.20474 0.16495 0.0
C768 C 0.44945 0.20455 0.18068 0.0
C769 C 0.45783 0.21414 0.16369 0.0
C770 C 0.44517 0.21847 0.14705 0.0
C771 C 0.42443 0.21382 0.14768 0.0
H772 H 0.94482 0.2676 0.44512 0.0
H773 H 0.96853 0.27394 0.38457 0.0
H774 H 0.95289 0.23165 0.44451 0.0
H775 H -0.02307 0.23773 0.3841 0.0
H776 H 0.9694 0.16717 0.38595 0.0
H777 H 0.96103 0.20333 0.38432 0.0
H778 H -0.0161 0.21143 0.44525 0.0
H779 H -0.00808 0.17549 0.44701 0.0
C780 C 0.95177 0.26131 0.43166 0.0
C781 C 0.95618 0.27365 0.41495 0.0
C782 C 0.9565 0.24071 0.43136 0.0
C783 C 0.96577 0.2319 0.41435 0.0
C784 C 0.96972 0.24409 0.39739 0.0
C785 C 0.96499 0.26481 0.39769 0.0
C786 C -0.02733 0.17673 0.39895 0.0
C787 C -0.01885 0.16846 0.41667 0.0
C788 C 0.96797 0.19742 0.39798 0.0
C789 C -0.02838 0.21017 0.41473 0.0
C790 C -0.01946 0.20193 0.43223 0.0
C791 C -0.01476 0.18134 0.43319 0.0
H792 H 0.02179 0.72082 0.63682 0.0
H793 H 0.01378 0.74396 0.69759 0.0
H794 H -0.01419 0.71147 0.63552 0.0
H795 H -0.02198 0.73485 0.69618 0.0
H796 H 0.92287 0.69392 0.69662 0.0
H797 H 0.95866 0.70291 0.69576 0.0
H798 H 0.95099 0.72699 0.63547 0.0
H799 H 0.91498 0.71776 0.63621 0.0
C800 C 0.01234 0.72401 0.64983 0.0
C801 C 0.02064 0.73299 0.66736 0.0
C802 C -0.00824 0.71874 0.64904 0.0
C803 C -0.02083 0.72225 0.66582 0.0
C804 C -0.01258 0.73162 0.68315 0.0
C805 C 0.0079 0.73694 0.6839 0.0
C806 C 0.92878 0.70106 0.68313 0.0
C807 C 0.91607 0.70526 0.66653 0.0
C808 C 0.94928 0.70631 0.68269 0.0
C809 C 0.95758 0.71585 0.66563 0.0
C810 C 0.94501 0.71959 0.64879 0.0
C811 C 0.92441 0.71438 0.64925 0.0
H812 H 0.44413 0.76526 0.94509 0.0
H813 H 0.46887 0.77276 0.88509 0.0
H814 H 0.45218 0.72931 0.9439 0.0
H815 H 0.47726 0.73657 0.88404 0.0
H816 H 0.47003 0.66594 0.88443 0.0
H817 H 0.46142 0.70208 0.88335 0.0
H818 H 0.48328 0.70919 0.94476 0.0
H819 H 0.49155 0.6733 0.94596 0.0
C820 C 0.4513 0.75923 0.93162 0.0
C821 C 0.45601 0.77189 0.91524 0.0
C822 C 0.45601 0.73862 0.93099 0.0
C823 C 0.46557 0.73015 0.91398 0.0
C824 C 0.46982 0.74266 0.89733 0.0
C825 C 0.46511 0.76338 0.89797 0.0
C826 C 0.47303 0.67527 0.89765 0.0
C827 C 0.48131 0.66674 0.91534 0.0
C828 C 0.46819 0.69596 0.897 0.0
C829 C 0.47149 0.70842 0.91404 0.0
C830 C 0.48019 0.69991 0.93151 0.0
C831 C 0.48503 0.67934 0.93216 0.0
H832 H 0.524 0.71883 0.3033 0.0
H833 H 0.51563 0.69409 0.24312 0.0
H834 H 0.48803 0.72815 0.3042 0.0
H835 H 0.47989 0.70307 0.24416 0.0
H836 H 0.4246 0.74332 0.24212 0.0
H837 H 0.46042 0.7346 0.24344 0.0
H838 H 0.45327 0.713 0.30468 0.0
H839 H 0.41724 0.72207 0.30348 0.0
C840 C 0.51447 0.71527 0.29035 0.0
C841 C 0.52267 0.70588 0.27307 0.0
C842 C 0.49389 0.72052 0.2909 0.0
C843 C 0.4812 0.71653 0.27417 0.0
C844 C 0.48936 0.70671 0.25714 0.0
C845 C 0.50983 0.70146 0.25659 0.0
C846 C 0.43064 0.73678 0.25591 0.0
C847 C 0.41807 0.73323 0.27264 0.0
C848 C 0.45115 0.73168 0.25663 0.0
C849 C 0.4596 0.72289 0.27408 0.0
C850 C 0.44718 0.71983 0.29105 0.0
C851 C 0.42657 0.72493 0.29033 0.0
H852 H 0.48647 0.26935 0.55451 0.0
H853 H 0.47057 0.26959 0.49104 0.0
H854 H 0.4806 0.23275 0.55568 0.0
H855 H 0.46335 0.23353 0.49234 0.0
H856 H 0.47188 0.16659 0.49292 0.0
H857 H 0.47927 0.20264 0.49362 0.0
H858 H 0.45717 0.2062 0.55516 0.0
H859 H 0.45113 0.16959 0.55473 0.0
C860 C 0.48143 0.26157 0.5409 0.0
C861 C 0.47916 0.27218 0.52264 0.0
C862 C 0.47795 0.24062 0.54156 0.0
C863 C 0.47171 0.22998 0.52405 0.0
C864 C 0.46878 0.24093 0.506 0.0
C865 C 0.47273 0.26169 0.50525 0.0
C866 C 0.46871 0.17509 0.50663 0.0
C867 C 0.46084 0.16539 0.52373 0.0
C868 C 0.47276 0.19584 0.507 0.0
C869 C 0.46849 0.20758 0.52432 0.0
C870 C 0.46086 0.19772 0.5416 0.0
C871 C 0.45728 0.17677 0.54137 0.0
H872 H 0.91778 0.2222 0.80161 0.0
H873 H 0.9247 0.24338 0.74017 0.0
H874 H 0.95374 0.21281 0.80244 0.0
H875 H 0.96044 0.23429 0.74111 0.0
H876 H 0.02449 0.21878 0.80039 0.0
H877 H -0.01145 0.2281 0.80156 0.0
H878 H -0.02019 0.20252 0.74181 0.0
H879 H 0.01556 0.19348 0.74051 0.0
C880 C 0.92699 0.22496 0.78836 0.0
C881 C 0.91839 0.23338 0.77078 0.0
C882 C 0.94757 0.21967 0.78887 0.0
C883 C 0.95984 0.22263 0.77177 0.0
C884 C 0.95128 0.23147 0.75439 0.0
C885 C 0.93082 0.23679 0.75391 0.0
C886 C 0.01485 0.2151 0.78755 0.0
C887 C 0.02288 0.20555 0.77029 0.0
C888 C -0.00573 0.22035 0.78827 0.0
C889 C -0.01858 0.21621 0.7717 0.0
C890 C -0.01059 0.20624 0.75467 0.0
C891 C 0.00988 0.20097 0.75398 0.0
H892 H 0.96968 0.66761 0.0519 0.0
H893 H 0.94778 0.67497 -0.00944 0.0
H894 H -0.02126 0.70366 0.05307 0.0
H895 H 0.95658 0.71077 -0.00816 0.0
H896 H -0.0285 0.77441 0.05163 0.0
H897 H 0.96273 0.7383 0.05247 0.0
H898 H -0.01172 0.73052 -0.00717 0.0
H899 H -0.0032 0.7664 -0.00814 0.0
C900 C 0.96672 0.67692 0.03873 0.0
C901 C 0.95816 0.66843 0.02109 0.0
C902 C -0.02819 0.69755 0.03944 0.0
C903 C 0.96853 0.70998 0.02248 0.0
C904 C 0.95962 0.7015 0.00502 0.0
C905 C 0.95448 0.681 0.00434 0.0
C906 C -0.02471 0.76493 0.03875 0.0
C907 C -0.01531 0.77327 0.02162 0.0
C908 C -0.02964 0.74427 0.03928 0.0
C909 C -0.02534 0.73164 0.02264 0.0
C910 C -0.01554 0.73994 0.00574 0.0
C911 C -0.01057 0.76049 0.00524 0.0
H912 H 0.13566 0.41659 0.21832 0.0
H913 H 0.19642 0.4245 0.19525 0.0
H914 H 0.13465 0.45257 0.22765 0.0
H915 H 0.19531 0.46028 0.20435 0.0
H916 H 0.19615 0.51565 0.24521 0.0
H917 H 0.19514 0.47983 0.23627 0.0
H918 H 0.13468 0.48726 0.21182 0.0
H919 H 0.13558 0.52331 0.22099 0.0
C920 C 0.14873 0.42601 0.21516 0.0
C921 C 0.16617 0.4177 0.20618 0.0
C922 C 0.14812 0.4466 0.22041 0.0
C923 C 0.16497 0.45918 0.21688 0.0
C924 C 0.18222 0.45089 0.20757 0.0
C925 C 0.18281 0.4304 0.20226 0.0
C926 C 0.18259 0.50968 0.23799 0.0
C927 C 0.16599 0.52233 0.23368 0.0
C928 C 0.18207 0.48917 0.23278 0.0
C929 C 0.16491 0.4808 0.22317 0.0
C930 C 0.14807 0.4933 0.21929 0.0
C931 C 0.14862 0.51392 0.22445 0.0
H932 H 0.69494 0.01715 0.74435 0.0
H933 H 0.63428 0.02435 0.72023 0.0
H934 H 0.69409 -0.01871 0.7357 0.0
H935 H 0.63355 -0.01177 0.71129 0.0
H936 H 0.63511 0.9175 0.71821 0.0
H937 H 0.6337 0.9536 0.72703 0.0
H938 H 0.69449 0.96152 0.70413 0.0
H939 H 0.69601 0.92564 0.69559 0.0
C940 C 0.6814 0.01107 0.7372 0.0
C941 C 0.66472 0.02362 0.73284 0.0
C942 C 0.68096 -0.00947 0.73214 0.0
C943 C 0.66384 -0.018 0.72261 0.0
C944 C 0.64692 -0.00561 0.7187 0.0
C945 C 0.64737 0.01505 0.72372 0.0
C946 C 0.64812 0.927 0.71502 0.0
C947 C 0.66573 0.9187 0.70636 0.0
C948 C 0.64727 0.94766 0.71998 0.0
C949 C 0.66406 0.96033 0.71645 0.0
C950 C 0.68145 0.95207 0.70738 0.0
C951 C 0.68227 0.93152 0.70239 0.0
H952 H 0.1676 0.44524 -0.03082 0.0
H953 H 0.16967 0.38293 -0.01109 0.0
H954 H 0.20355 0.44417 0.96163 0.0
H955 H 0.20621 0.38209 -0.01738 0.0
H956 H 0.26881 0.38244 0.95214 0.0
H957 H 0.23232 0.38162 0.95869 0.0
H958 H 0.23473 0.44462 -0.02265 0.0
H959 H 0.27064 0.44561 -0.03048 0.0
C960 C 0.17588 0.43134 -0.02788 0.0
C961 C 0.16592 0.41421 -0.02026 0.0
C962 C 0.19658 0.43075 0.96795 0.0
C963 C 0.20803 0.41315 -0.02818 0.0
C964 C 0.19794 0.39586 -0.02076 0.0
C965 C 0.17703 0.39633 -0.01703 0.0
C966 C 0.26141 0.39605 0.95764 0.0
C967 C 0.27242 0.41414 0.96012 0.0
C968 C 0.24053 0.39559 0.96152 0.0
C969 C 0.23038 0.41313 0.96833 0.0
C970 C 0.24175 0.43097 -0.02851 0.0
C971 C 0.26243 0.43153 0.96718 0.0
H972 H 0.8049 0.02168 0.21826 0.0
H973 H 0.74342 0.01339 0.19661 0.0
H974 H 0.80638 -0.01428 0.22741 0.0
H975 H 0.74501 -0.02234 0.20546 0.0
H976 H 0.74532 0.92255 0.24589 0.0
H977 H 0.7461 0.95831 0.23709 0.0
H978 H 0.80606 0.95087 0.21197 0.0
H979 H 0.80542 0.91487 0.22106 0.0
C980 C 0.79177 0.01217 0.21535 0.0
C981 C 0.77399 0.02039 0.20687 0.0
C982 C 0.79266 -0.0084 0.22049 0.0
C983 C 0.77574 -0.02107 0.21732 0.0
C984 C 0.75816 -0.01289 0.20843 0.0
C985 C 0.7573 0.00758 0.20326 0.0
C986 C 0.75873 0.9285 0.23855 0.0
C987 C 0.77525 0.91584 0.23403 0.0
C988 C 0.75912 0.94899 0.23341 0.0
C989 C 0.77604 0.95735 0.22363 0.0
C990 C 0.79284 0.94485 0.21957 0.0
C991 C 0.79243 0.92425 0.22469 0.0
H992 H 0.66674 0.05543 0.96756 0.0
H993 H 0.67493 -0.00478 0.94276 0.0
H994 H 0.70283 0.05663 -0.02339 0.0
H995 H 0.71078 -0.00345 0.95149 0.0
H996 H 0.77365 0.05624 -0.02956 0.0
H997 H 0.73756 0.05727 0.9613 0.0
H998 H 0.7304 -0.00403 -0.01693 0.0
H999 H 0.76622 -0.00518 -0.00812 0.0
C1000 C 0.67625 0.04254 0.96393 0.0
C1001 C 0.66796 0.02517 0.95461 0.0
C1002 C 0.6969 0.04326 -0.03098 0.0
C1003 C 0.70957 0.0266 0.96495 0.0
C1004 C 0.70133 0.00948 0.95518 0.0
C1005 C 0.68079 0.00876 0.95008 0.0
C1006 C 0.76431 0.04304 -0.02669 0.0
C1007 C 0.7728 0.02539 -0.01829 0.0
C1008 C 0.74366 0.04366 0.96817 0.0
C1009 C 0.73122 0.02662 -0.02873 0.0
C1010 C 0.73967 0.0092 -0.01988 0.0
C1011 C 0.7602 0.0086 -0.01472 0.0
H1012 H 0.24162 0.41875 0.71972 0.0
H1013 H 0.30472 0.42123 0.73734 0.0
H1014 H 0.24246 0.45448 0.71113 0.0
H1015 H 0.30537 0.45757 0.73023 0.0
H1016 H 0.30463 0.51958 0.69945 0.0
H1017 H 0.3053 0.4832 0.70638 0.0
H1018 H 0.24249 0.4861 0.72518 0.0
H1019 H 0.24162 0.52186 0.71677 0.0
C1020 C 0.25564 0.4271 0.72198 0.0
C1021 C 0.27308 0.41733 0.72926 0.0
C1022 C 0.25612 0.44768 0.71724 0.0
C1023 C 0.2739 0.45921 0.72026 0.0
C1024 C 0.29145 0.44927 0.72743 0.0
C1025 C 0.29109 0.42847 0.73165 0.0
C1026 C 0.29102 0.51229 0.70502 0.0
C1027 C 0.27303 0.52339 0.70739 0.0
C1028 C 0.2914 0.49147 0.70914 0.0
C1029 C 0.27388 0.48147 0.71618 0.0
C1030 C 0.25611 0.49295 0.71915 0.0
C1031 C 0.25562 0.51355 0.71452 0.0
H1032 H 0.26649 0.49819 0.49653 0.0
H1033 H 0.27445 0.5577 0.47048 0.0
H1034 H 0.23078 0.49879 0.48724 0.0
H1035 H 0.23847 0.55817 0.46088 0.0
H1036 H 0.16756 0.55713 0.46652 0.0
H1037 H 0.20356 0.55886 0.47582 0.0
H1038 H 0.21148 0.49702 0.45547 0.0
H1039 H 0.17571 0.49517 0.44649 0.0
C1040 C 0.26061 0.51143 0.48881 0.0
C1041 C 0.27334 0.52784 0.4841 0.0
C1042 C 0.24015 0.51172 0.48339 0.0
C1043 C 0.23187 0.52842 0.47312 0.0
C1044 C 0.24443 0.54512 0.46885 0.0
C1045 C 0.26502 0.54481 0.47426 0.0
C1046 C 0.17705 0.54396 0.46398 0.0
C1047 C 0.16877 0.52596 0.45594 0.0
C1048 C 0.19765 0.54499 0.46922 0.0
C1049 C 0.21029 0.52801 0.46657 0.0
C1050 C 0.20206 0.51023 0.45806 0.0
C1051 C 0.18156 0.50921 0.45281 0.0
H1052 H 0.7396 0.69625 0.01582 0.0
H1053 H 0.72082 0.6337 0.02163 0.0
H1054 H 0.73098 0.69538 -0.01998 0.0
H1055 H 0.71182 0.63295 -0.01442 0.0
H1056 H 0.69145 0.69532 0.92416 0.0
H1057 H 0.69988 0.69379 0.95999 0.0
H1058 H 0.72705 0.6348 0.95118 0.0
H1059 H 0.71825 0.63616 0.91513 0.0
C1060 C 0.7336 0.68229 0.00945 0.0
C1061 C 0.73075 0.66508 0.02159 0.0
C1062 C 0.72855 0.68184 -0.01107 0.0
C1063 C 0.7205 0.66417 -0.01998 0.0
C1064 C 0.71808 0.64676 -0.00798 0.0
C1065 C 0.72314 0.64721 0.01265 0.0
C1066 C 0.69916 0.68197 0.92983 0.0
C1067 C 0.70433 0.66593 0.91679 0.0
C1068 C 0.70408 0.68114 0.95036 0.0
C1069 C 0.71434 0.66428 0.95837 0.0
C1070 C 0.71906 0.64795 0.94545 0.0
C1071 C 0.71412 0.64878 0.92482 0.0
H1072 H 0.55473 0.47144 0.2742 0.0
H1073 H 0.49376 0.49438 0.26652 0.0
H1074 H 0.55607 0.46343 0.23799 0.0
H1075 H 0.49524 0.48678 0.23053 0.0
H1076 H 0.49443 0.44817 0.17395 0.0
H1077 H 0.49528 0.45624 0.20986 0.0
H1078 H 0.55641 0.47917 0.20388 0.0
H1079 H 0.5557 0.4707 0.16772 0.0
C1080 C 0.5417 0.4749 0.26478 0.0
C1081 C 0.52407 0.48335 0.27324 0.0
C1082 C 0.5425 0.47041 0.24404 0.0
C1083 C 0.52568 0.47428 0.23145 0.0
C1084 C 0.5083 0.48323 0.23989 0.0
C1085 C 0.5075 0.48768 0.26052 0.0
C1086 C 0.50809 0.4549 0.18025 0.0
C1087 C 0.52496 0.45893 0.16797 0.0
C1088 C 0.50853 0.45963 0.20083 0.0
C1089 C 0.52582 0.46856 0.20967 0.0
C1090 C 0.5429 0.47222 0.19751 0.0
C1091 C 0.54246 0.46746 0.17682 0.0
H1092 H 0.74653 0.24483 0.42309 0.0
H1093 H 0.71992 0.30415 0.41476 0.0
H1094 H 0.73776 0.24591 0.45876 0.0
H1095 H 0.7108 0.30507 0.45068 0.0
H1096 H 0.6977 0.24287 0.51389 0.0
H1097 H 0.70636 0.2442 0.47819 0.0
H1098 H 0.72602 0.30638 0.48539 0.0
H1099 H 0.71701 0.30515 0.52131 0.0
C1100 C 0.7388 0.25813 0.42888 0.0
C1101 C 0.73378 0.27435 0.41607 0.0
C1102 C 0.73367 0.25868 0.44932 0.0
C1103 C 0.72337 0.27546 0.45748 0.0
C1104 C 0.7188 0.29197 0.44482 0.0
C1105 C 0.72394 0.2914 0.42427 0.0
C1106 C 0.70381 0.25687 0.50789 0.0
C1107 C 0.70682 0.27386 0.52046 0.0
C1108 C 0.70887 0.25759 0.48744 0.0
C1109 C 0.71709 0.27532 0.47903 0.0
C1110 C 0.71963 0.29253 0.49144 0.0
C1111 C 0.71457 0.2918 0.512 0.0
H1112 H 0.9466 0.49832 0.67262 0.0
H1113 H 0.88667 0.47309 0.66339 0.0
H1114 H 0.94533 0.48896 0.70817 0.0
H1115 H 0.88551 0.46348 0.69915 0.0
H1116 H 0.9469 0.44756 0.76274 0.0
H1117 H 0.94602 0.45694 0.72718 0.0
H1118 H 0.8846 0.4787 0.73403 0.0
H1119 H 0.88537 0.46906 0.7698 0.0
C1120 C 0.93313 0.49079 0.67819 0.0
C1121 C 0.91678 0.48633 0.66516 0.0
C1122 C 0.93245 0.48532 0.69855 0.0
C1123 C 0.9154 0.47531 0.7064 0.0
C1124 C 0.89881 0.47127 0.69353 0.0
C1125 C 0.89952 0.47669 0.67306 0.0
C1126 C 0.93316 0.45428 0.75669 0.0
C1127 C 0.91625 0.45769 0.76911 0.0
C1128 C 0.93271 0.45976 0.73633 0.0
C1129 C 0.91532 0.46875 0.72787 0.0
C1130 C 0.89818 0.47173 0.74013 0.0
C1131 C 0.89866 0.46629 0.7606 0.0
H1132 H 0.7701 0.94613 0.4633 0.0
H1133 H 0.76993 0.88197 0.45005 0.0
H1134 H 0.73434 0.94464 0.47165 0.0
H1135 H 0.73356 0.88055 0.45697 0.0
H1136 H 0.6716 0.88147 0.48827 0.0
H1137 H 0.70792 0.88142 0.48092 0.0
H1138 H 0.70276 0.94247 0.45748 0.0
H1139 H 0.66706 0.94284 0.46625 0.0
C1140 C 0.76226 0.93172 0.46192 0.0
C1141 C 0.7727 0.91419 0.45595 0.0
C1142 C 0.74165 0.93086 0.46653 0.0
C1143 C 0.73077 0.91253 0.46471 0.0
C1144 C 0.74136 0.8949 0.45882 0.0
C1145 C 0.76218 0.8957 0.45471 0.0
C1146 C 0.67837 0.89482 0.48155 0.0
C1147 C 0.66667 0.91223 0.47802 0.0
C1148 C 0.69916 0.89479 0.47721 0.0
C1149 C 0.70851 0.91204 0.46879 0.0
C1150 C 0.69641 0.92913 0.46457 0.0
C1151 C 0.67585 0.92932 0.46941 0.0
H1152 H 0.15111 0.30224 0.23959 0.0
H1153 H 0.19913 0.3323 0.27299 0.0
H1154 H 0.14966 0.27595 0.26553 0.0
H1155 H 0.19826 0.30589 0.29825 0.0
H1156 H 0.18821 0.2631 0.34788 0.0
H1157 H 0.18054 0.29091 0.32498 0.0
H1158 H 0.16952 0.24783 0.27659 0.0
H1159 H 0.17623 0.21997 0.29991 0.0
C1160 C 0.16124 0.30334 0.25251 0.0
C1161 C 0.17529 0.31935 0.25414 0.0
C1162 C 0.16051 0.28819 0.26732 0.0
C1163 C 0.17387 0.28871 0.28401 0.0
C1164 C 0.18745 0.3051 0.28587 0.0
C1165 C 0.18807 0.32025 0.27122 0.0
C1166 C 0.1838 0.25958 0.33243 0.0
C1167 C 0.18306 0.2394 0.3256 0.0
C1168 C 0.17953 0.27553 0.31925 0.0
C1169 C 0.17483 0.27169 0.29878 0.0
C1170 C 0.17295 0.2514 0.29226 0.0
C1171 C 0.17689 0.2354 0.30559 0.0
H1172 H 0.92768 0.93681 0.59946 0.0
H1173 H -0.02981 0.9273 0.5508 0.0
H1174 H 0.89968 0.92824 0.57683 0.0
H1175 H 0.94211 0.91975 0.52775 0.0
H1176 H 0.88794 0.90034 0.49076 0.0
H1177 H 0.91456 0.8991 0.51661 0.0
H1178 H 0.88341 0.9457 0.55065 0.0
H1179 H 0.85668 0.94632 0.52549 0.0
C1180 C 0.93102 0.93276 0.58391 0.0
C1181 C 0.95106 0.93297 0.5768 0.0
C1182 C 0.91497 0.92797 0.57088 0.0
C1183 C 0.91853 0.92372 0.55031 0.0
C1184 C 0.93874 0.9228 0.5435 0.0
C1185 C 0.95487 0.92723 0.55668 0.0
C1186 C 0.88664 0.91004 0.50397 0.0
C1187 C 0.87021 0.92351 0.50597 0.0
C1188 C 0.90198 0.90943 0.51872 0.0
C1189 C 0.90126 0.92236 0.53572 0.0
C1190 C 0.8844 0.93524 0.53801 0.0
C1191 C 0.86906 0.93572 0.52342 0.0
H1192 H 0.25884 0.67729 0.85233 0.0
H1193 H 0.26256 0.71993 0.80303 0.0
H1194 H 0.26746 0.64969 0.82936 0.0
H1195 H 0.27018 0.6922 0.77972 0.0
H1196 H 0.28909 0.63905 0.74156 0.0
H1197 H 0.29137 0.66559 0.7674 0.0
H1198 H 0.24869 0.63258 0.80435 0.0
H1199 H 0.24703 0.60597 0.77914 0.0
C1200 C 0.26168 0.68076 0.83657 0.0
C1201 C 0.25976 0.70069 0.8294 0.0
C1202 C 0.2665 0.66493 0.82336 0.0
C1203 C 0.26908 0.6686 0.80256 0.0
C1204 C 0.26844 0.68877 0.79564 0.0
C1205 C 0.26396 0.70469 0.80897 0.0
C1206 C 0.28051 0.63732 0.75539 0.0
C1207 C 0.26776 0.62043 0.75818 0.0
C1208 C 0.28171 0.6526 0.77015 0.0
C1209 C 0.27014 0.65135 0.78796 0.0
C1210 C 0.25811 0.634 0.79104 0.0
C1211 C 0.25701 0.61873 0.77643 0.0
H1212 H 0.58466 -0.00361 0.02513 0.0
H1213 H 0.55204 0.03991 -0.01144 0.0
H1214 H 0.55831 -0.00201 0.05046 0.0
H1215 H 0.52579 0.04207 0.01448 0.0
H1216 H 0.4713 0.01415 0.05017 0.0
H1217 H 0.49884 0.02117 0.02665 0.0
H1218 H 0.54214 0.01701 0.07589 0.0
H1219 H 0.5147 0.00908 0.09909 0.0
C1220 C 0.57205 0.00665 0.02266 0.0
C1221 C 0.57041 0.01788 0.00469 0.0
C1222 C 0.55694 0.0077 0.03733 0.0
C1223 C 0.53983 0.02015 0.03456 0.0
C1224 C 0.5386 0.0321 0.01698 0.0
C1225 C 0.55372 0.03096 0.00219 0.0
C1226 C 0.48667 0.01511 0.05599 0.0
C1227 C 0.4909 0.01073 0.07637 0.0
C1228 C 0.50249 0.01922 0.04253 0.0
C1229 C 0.5228 0.0193 0.04929 0.0
C1230 C 0.52676 0.01649 0.07003 0.0
C1231 C 0.51102 0.01207 0.08337 0.0
H1232 H 0.18799 0.67557 0.09011 0.0
H1233 H 0.17636 0.71896 0.13782 0.0
H1234 H 0.18046 0.64789 0.11315 0.0
H1235 H 0.16976 0.69124 0.16124 0.0
H1236 H 0.1991 0.60681 0.16565 0.0
H1237 H 0.19821 0.63301 0.14013 0.0
H1238 H 0.14979 0.66326 0.17226 0.0
H1239 H 0.15125 0.63721 0.19844 0.0
C1240 C 0.1837 0.67918 0.10553 0.0
C1241 C 0.18301 0.69941 0.11224 0.0
C1242 C 0.1795 0.66331 0.11879 0.0
C1243 C 0.1749 0.66725 0.13921 0.0
C1244 C 0.1731 0.68758 0.14562 0.0
C1245 C 0.17698 0.7035 0.13221 0.0
C1246 C 0.18807 0.61888 0.16722 0.0
C1247 C 0.17535 0.61995 0.18421 0.0
C1248 C 0.18744 0.63391 0.15243 0.0
C1249 C 0.17392 0.65034 0.15407 0.0
C1250 C 0.1606 0.651 0.17066 0.0
C1251 C 0.16134 0.63599 0.1856 0.0
H1252 H 0.5422 0.91001 0.45241 0.0
H1253 H 0.58737 0.91395 0.40545 0.0
H1254 H 0.51538 0.91166 0.42692 0.0
H1255 H 0.56066 0.91462 0.37985 0.0
H1256 H 0.51219 0.95298 0.34819 0.0
H1257 H 0.53862 0.94132 0.3708 0.0
H1258 H 0.49661 0.89924 0.39817 0.0
H1259 H 0.46968 0.91151 0.37572 0.0
C1260 C 0.54639 0.91047 0.43658 0.0
C1261 C 0.56684 0.91222 0.43092 0.0
C1262 C 0.531 0.91137 0.42192 0.0
C1263 C 0.53583 0.91377 0.40133 0.0
C1264 C 0.55638 0.91342 0.39561 0.0
C1265 C 0.57171 0.91288 0.41026 0.0
C1266 C 0.50854 0.94109 0.35886 0.0
C1267 C 0.48873 0.93332 0.36022 0.0
C1268 C 0.52383 0.93421 0.37175 0.0
C1269 C 0.51984 0.91922 0.3863 0.0
C1270 C 0.50017 0.91093 0.38727 0.0
C1271 C 0.48476 0.91791 0.37436 0.0
H1272 H 0.26351 0.21872 0.6368 0.0
H1273 H 0.26184 0.26101 0.58708 0.0
H1274 H 0.2711 0.24651 0.66017 0.0
H1275 H 0.27047 0.28864 0.61013 0.0
H1276 H 0.24924 0.33309 0.659 0.0
H1277 H 0.25119 0.30616 0.6342 0.0
H1278 H 0.29229 0.27304 0.67315 0.0
H1279 H 0.2897 0.29996 0.69858 0.0
C1280 C 0.26538 0.23388 0.6308 0.0
C1281 C 0.26174 0.2378 0.61022 0.0
C1282 C 0.26983 0.24983 0.64417 0.0
C1283 C 0.27102 0.26994 0.63712 0.0
C1284 C 0.26906 0.27347 0.61621 0.0
C1285 C 0.26424 0.25762 0.60296 0.0
C1286 C 0.25894 0.32023 0.66226 0.0
C1287 C 0.26915 0.31864 0.68092 0.0
C1288 C 0.26021 0.30477 0.64788 0.0
C1289 C 0.27189 0.28731 0.65161 0.0
C1290 C 0.28292 0.28613 0.66988 0.0
C1291 C 0.28155 0.30163 0.6844 0.0
H1292 H 0.8963 0.02688 0.95351 0.0
H1293 H 0.85023 0.01824 0.90754 0.0
H1294 H 0.92247 0.02604 0.92762 0.0
H1295 H 0.87624 0.01849 0.88147 0.0
H1296 H 0.92662 -0.01553 0.84848 0.0
H1297 H 0.9 -0.00584 0.87155 0.0
H1298 H 0.93966 0.03895 0.89892 0.0
H1299 H 0.96688 0.02853 0.87609 0.0
C1300 C 0.89172 0.02546 0.93778 0.0
C1301 C 0.87126 0.02228 0.93256 0.0
C1302 C 0.90674 0.02506 0.92289 0.0
C1303 C 0.90155 0.02177 0.90243 0.0
C1304 C 0.88087 0.02041 0.89712 0.0
C1305 C 0.86592 0.02042 0.91203 0.0
C1306 C 0.9297 -0.00346 0.85925 0.0
C1307 C 0.94899 0.00559 0.86051 0.0
C1308 C 0.91427 0.00228 0.87243 0.0
C1309 C 0.91756 0.01743 0.88714 0.0
C1310 C 0.93665 0.02705 0.88796 0.0
C1311 C 0.95223 0.02115 0.87481 0.0
H1312 H 0.33811 0.20518 0.26175 0.0
H1313 H 0.31011 0.16149 0.22137 0.0
H1314 H 0.31496 0.19564 0.28828 0.0
H1315 H 0.28719 0.15121 0.2485 0.0
H1316 H 0.23268 0.16359 0.29206 0.0
H1317 H 0.25853 0.16428 0.26585 0.0
H1318 H 0.305 0.1713 0.31184 0.0
H1319 H 0.27897 0.17171 0.33789 0.0
C1320 C 0.32723 0.19322 0.25862 0.0
C1321 C 0.3259 0.18422 0.23933 0.0
C1322 C 0.31401 0.18757 0.27399 0.0
C1323 C 0.29917 0.17255 0.27066 0.0
C1324 C 0.29826 0.163 0.25155 0.0
C1325 C 0.31145 0.16882 0.23602 0.0
C1326 C 0.24847 0.16485 0.29657 0.0
C1327 C 0.2538 0.16794 0.31697 0.0
C1328 C 0.26334 0.16518 0.28153 0.0
C1329 C 0.28388 0.16829 0.28665 0.0
C1330 C 0.28929 0.16953 0.30727 0.0
C1331 C 0.2744 0.16961 0.32224 0.0
H1332 H 0.01678 0.03058 0.5896 0.0
H1333 H 0.02566 -0.01492 0.54328 0.0
H1334 H 0.01659 0.05693 0.56387 0.0
H1335 H 0.02435 0.01123 0.51737 0.0
H1336 H 0.02622 0.06332 0.4735 0.0
H1337 H 0.03687 0.04025 0.50044 0.0
H1338 H -0.00782 0.06689 0.54023 0.0
H1339 H -0.01772 0.09021 0.51389 0.0
C1340 C 0.01891 0.02626 0.57391 0.0
C1341 C 0.02099 0.00577 0.56842 0.0
C1342 C 0.01864 0.04133 0.55911 0.0
C1343 C 0.01994 0.03622 0.53844 0.0
C1344 C 0.02341 0.01582 0.5331 0.0
C1345 C 0.02409 0.00077 0.54797 0.0
C1346 C 0.01891 0.06439 0.48812 0.0
C1347 C 0.00334 0.07857 0.49149 0.0
C1348 C 0.02494 0.0511 0.50354 0.0
C1349 C 0.01542 0.05164 0.52259 0.0
C1350 C 0.00023 0.06622 0.52599 0.0
C1351 C -0.00563 0.07955 0.51073 0.0
H1352 H 0.13676 0.76266 0.72223 0.0
H1353 H 0.08831 0.75634 0.76556 0.0
H1354 H 0.16058 0.76981 0.74976 0.0
H1355 H 0.11181 0.76437 0.79299 0.0
H1356 H 0.16344 0.74441 0.8351 0.0
H1357 H 0.13779 0.74563 0.80881 0.0
H1358 H 0.17276 0.79078 0.77689 0.0
H1359 H 0.19901 0.78901 0.80308 0.0
C1360 C 0.1311 0.76336 0.73759 0.0
C1361 C 0.11077 0.75861 0.74179 0.0
C1362 C 0.14473 0.76755 0.7534 0.0
C1363 C 0.1382 0.76732 0.77367 0.0
C1364 C 0.11749 0.76411 0.77763 0.0
C1365 C 0.10398 0.75962 0.7619 0.0
C1366 C 0.16562 0.75481 0.82263 0.0
C1367 C 0.1834 0.76648 0.82115 0.0
C1368 C 0.15076 0.75564 0.80756 0.0
C1369 C 0.15315 0.76831 0.79064 0.0
C1370 C 0.17055 0.78065 0.78955 0.0
C1371 C 0.18554 0.77973 0.80464 0.0
H1372 H 0.42834 0.8881 -0.0301 0.0
H1373 H 0.43586 0.83977 0.01325 0.0
H1374 H 0.42126 0.91181 -0.00257 0.0
H1375 H 0.42787 0.86314 0.04068 0.0
H1376 H 0.4022 0.95 0.05063 0.0
H1377 H 0.40047 0.92369 0.02452 0.0
H1378 H 0.4463 0.88936 0.05653 0.0
H1379 H 0.44747 0.91506 0.08276 0.0
C1380 C 0.42793 0.88244 -0.01473 0.0
C1381 C 0.43298 0.86219 -0.01053 0.0
C1382 C 0.42378 0.896 0.00108 0.0
C1383 C 0.42433 0.88948 0.02136 0.0
C1384 C 0.42788 0.86883 0.02532 0.0
C1385 C 0.43234 0.8554 0.00958 0.0
C1386 C 0.41164 0.93665 0.05223 0.0
C1387 C 0.42507 0.93471 0.06875 0.0
C1388 C 0.41074 0.92163 0.03719 0.0
C1389 C 0.4233 0.90441 0.03831 0.0
C1390 C 0.43613 0.90219 0.05525 0.0
C1391 C 0.43693 0.91708 0.07029 0.0
H1392 H 0.31335 0.77697 0.21487 0.0
H1393 H 0.33918 0.73119 0.17569 0.0
H1394 H 0.29036 0.78717 0.18758 0.0
H1395 H 0.31593 0.74068 0.14899 0.0
H1396 H 0.2797 0.76445 0.09896 0.0
H1397 H 0.30626 0.7646 0.12475 0.0
H1398 H 0.261 0.77443 0.17098 0.0
H1399 H 0.23468 0.77535 0.14503 0.0
C1400 C 0.31419 0.76915 0.20044 0.0
C1401 C 0.32804 0.7532 0.19751 0.0
C1402 C 0.30096 0.77493 0.18482 0.0
C1403 C 0.30122 0.76477 0.16602 0.0
C1404 C 0.31549 0.7492 0.16304 0.0
C1405 C 0.32877 0.74358 0.1785 0.0
C1406 C 0.27553 0.7671 0.1146 0.0
C1407 C 0.25511 0.76963 0.12001 0.0
C1408 C 0.29071 0.76703 0.12942 0.0
C1409 C 0.28577 0.76903 0.15005 0.0
C1410 C 0.26546 0.77295 0.15528 0.0
C1411 C 0.25031 0.7734 0.14039 0.0
H1412 H 0.42458 0.03223 0.34932 0.0
H1413 H 0.41325 -0.01416 0.39387 0.0
H1414 H 0.42572 0.05779 0.37603 0.0
H1415 H 0.41529 0.01121 0.42071 0.0
H1416 H 0.41505 0.06257 0.4661 0.0
H1417 H 0.40357 0.04082 0.43823 0.0
H1418 H 0.45105 0.0651 0.40039 0.0
H1419 H 0.46198 0.08708 0.42774 0.0
C1420 C 0.42205 0.02755 0.36481 0.0
C1421 C 0.41912 0.00701 0.36954 0.0
C1422 C 0.42284 0.04217 0.38015 0.0
C1423 C 0.42111 0.03652 0.40059 0.0
C1424 C 0.41662 0.01617 0.40516 0.0
C1425 C 0.41551 0.00157 0.38975 0.0
C1426 C 0.42285 0.0634 0.45173 0.0
C1427 C 0.43951 0.0765 0.44921 0.0
C1428 C 0.41631 0.05089 0.43578 0.0
C1429 C 0.42634 0.0512 0.41701 0.0
C1430 C 0.44265 0.0647 0.41443 0.0
C1431 C 0.44908 0.07722 0.43026 0.0
H1432 H 0.13899 0.17569 0.71634 0.0
H1433 H 0.09029 0.1808 0.67266 0.0
H1434 H 0.1628 0.16862 0.68902 0.0
H1435 H 0.11378 0.17286 0.64545 0.0
H1436 H 0.16494 0.19355 0.60357 0.0
H1437 H 0.13942 0.19203 0.62972 0.0
H1438 H 0.17518 0.14761 0.66205 0.0
H1439 H 0.20128 0.14967 0.63598 0.0
C1440 C 0.13328 0.17473 0.70095 0.0
C1441 C 0.11287 0.17913 0.69658 0.0
C1442 C 0.1469 0.17059 0.68527 0.0
C1443 C 0.1403 0.17053 0.66495 0.0
C1444 C 0.11953 0.17336 0.66085 0.0
C1445 C 0.10602 0.17779 0.67645 0.0
C1446 C 0.16733 0.18325 0.61609 0.0
C1447 C 0.18528 0.17187 0.61772 0.0
C1448 C 0.15255 0.18224 0.63109 0.0
C1449 C 0.15519 0.16969 0.64808 0.0
C1450 C 0.17277 0.15764 0.64932 0.0
C1451 C 0.18767 0.15873 0.6343 0.0
H1452 H 0.01356 0.88985 0.96809 0.0
H1453 H 0.01389 0.83976 0.92577 0.0
H1454 H 0.02136 0.91321 0.94064 0.0
H1455 H 0.02275 0.86282 0.8985 0.0
H1456 H 0.04001 0.95193 0.88828 0.0
H1457 H 0.04279 0.92647 0.91494 0.0
H1458 H 0.00354 0.88651 0.88041 0.0
H1459 H 0.00146 0.91137 0.85372 0.0
C1460 C 0.01593 0.88377 0.95301 0.0
C1461 C 0.01277 0.86308 0.94896 0.0
C1462 C 0.0205 0.89714 0.93726 0.0
C1463 C 0.02232 0.88998 0.91722 0.0
C1464 C 0.02086 0.86898 0.91361 0.0
C1465 C 0.01591 0.85572 0.92925 0.0
C1466 C 0.03232 0.93753 0.88625 0.0
C1467 C 0.02037 0.93378 0.86892 0.0
C1468 C 0.0338 0.92299 0.9016 0.0
C1469 C 0.0233 0.90443 0.89996 0.0
C1470 C 0.01214 0.90042 0.88217 0.0
C1471 C 0.01079 0.91483 0.86684 0.0
H1472 H 0.21945 0.30121 0.17536 0.0
H1473 H 0.26217 0.35091 0.17614 0.0
H1474 H 0.24686 0.27772 0.16733 0.0
H1475 H 0.28941 0.32773 0.16704 0.0
H1476 H 0.33386 0.27846 0.18777 0.0
H1477 H 0.30732 0.30364 0.18586 0.0
H1478 H 0.27264 0.26448 0.14595 0.0
H1479 H 0.29913 0.23869 0.14856 0.0
C1480 C 0.23461 0.30719 0.17319 0.0
C1481 C 0.23878 0.32779 0.17672 0.0
C1482 C 0.25035 0.29374 0.16848 0.0
C1483 C 0.27049 0.30074 0.1669 0.0
C1484 C 0.27423 0.32169 0.16874 0.0
C1485 C 0.2586 0.33502 0.17382 0.0
C1486 C 0.32074 0.27525 0.17833 0.0
C1487 C 0.31856 0.25642 0.16852 0.0
C1488 C 0.3055 0.28985 0.17708 0.0
C1489 C 0.2877 0.28614 0.16579 0.0
C1490 C 0.28598 0.26772 0.15504 0.0
C1491 C 0.30124 0.25299 0.15643 0.0
H1492 H 0.76198 0.08991 0.75608 0.0
H1493 H 0.71992 0.13983 0.76114 0.0
H1494 H 0.78998 0.11249 0.76472 0.0
H1495 H 0.74804 0.16279 0.76869 0.0
H1496 H 0.80183 0.20039 0.78715 0.0
H1497 H 0.77503 0.17487 0.78941 0.0
H1498 H 0.80725 0.13725 0.74648 0.0
H1499 H 0.83413 0.1621 0.74492 0.0
C1500 C 0.75874 0.10573 0.75919 0.0
C1501 C 0.73885 0.1132 0.75768 0.0
C1502 C 0.7748 0.11872 0.76402 0.0
C1503 C 0.7714 0.1396 0.76696 0.0
C1504 C 0.75128 0.14681 0.76667 0.0
C1505 C 0.73513 0.13368 0.76224 0.0
C1506 C 0.80333 0.18647 0.77852 0.0
C1507 C 0.82008 0.18338 0.76574 0.0
C1508 C 0.78789 0.1719 0.7797 0.0
C1509 C 0.78883 0.154 0.76804 0.0
C1510 C 0.80605 0.15062 0.75597 0.0
C1511 C 0.82149 0.16504 0.75493 0.0
H1512 H -0.0143 0.54516 0.02292 0.0
H1513 H 0.03115 0.58921 0.00624 0.0
H1514 H 0.01098 0.51829 0.021 0.0
H1515 H 0.05667 0.56254 0.00521 0.0
H1516 H 0.08519 0.50868 -0.02772 0.0
H1517 H 0.0631 0.53641 -0.01835 0.0
H1518 H 0.0412 0.50187 0.03261 0.0
H1519 H 0.06302 0.47357 0.02271 0.0
C1520 C 0.00123 0.54919 0.01943 0.0
C1521 C 0.00638 0.56924 0.0144 0.0
C1522 C 0.01578 0.53377 0.0184 0.0
C1523 C 0.03582 0.53816 0.01256 0.0
C1524 C 0.04126 0.55851 0.00917 0.0
C1525 C 0.02667 0.57385 0.0099 0.0
C1526 C 0.07582 0.50698 -0.0144 0.0
C1527 C 0.07582 0.48881 -0.00333 0.0
C1528 C 0.06323 0.52303 -0.00889 0.0
C1529 C 0.05038 0.5215 0.00798 0.0
C1530 C 0.05074 0.50351 0.01941 0.0
C1531 C 0.0633 0.48731 0.01379 0.0
H1532 H 0.60647 0.77625 0.24626 0.0
H1533 H 0.63951 0.73879 0.28867 0.0
H1534 H 0.63319 0.80133 0.24764 0.0
H1535 H 0.66616 0.76454 0.29075 0.0
H1536 H 0.67805 0.84927 0.25728 0.0
H1537 H 0.65035 0.82648 0.26588 0.0
H1538 H 0.69284 0.77664 0.26994 0.0
H1539 H 0.72065 0.79981 0.26241 0.0
C1540 C 0.61925 0.77355 0.25627 0.0
C1541 C 0.62091 0.75537 0.26719 0.0
C1542 C 0.63459 0.78809 0.25721 0.0
C1543 C 0.65195 0.78502 0.26929 0.0
C1544 C 0.65317 0.76727 0.28103 0.0
C1545 C 0.63783 0.75257 0.27995 0.0
C1546 C 0.68148 0.83351 0.26039 0.0
C1547 C 0.70144 0.82624 0.25892 0.0
C1548 C 0.6656 0.82039 0.2652 0.0
C1549 C 0.66923 0.79958 0.26817 0.0
C1550 C 0.68942 0.79257 0.2679 0.0
C1551 C 0.70539 0.80582 0.26348 0.0
H1552 H 0.88835 -0.02991 0.01044 0.0
H1553 H 0.84062 0.92707 -0.00293 0.0
H1554 H 0.91165 0.94218 0.01731 0.0
H1555 H 0.86349 0.8992 0.00487 0.0
H1556 H 0.91629 0.85787 -0.01269 0.0
H1557 H 0.89076 0.8842 -0.01221 0.0
H1558 H 0.92227 0.91404 0.03721 0.0
H1559 H 0.94847 0.88786 0.03616 0.0
C1560 C 0.88271 0.95467 0.00949 0.0
C1561 C 0.86278 0.95074 0.00291 0.0
C1562 C 0.89603 0.93864 0.01352 0.0
C1563 C 0.88957 0.91836 0.01133 0.0
C1564 C 0.86918 0.91457 0.00615 0.0
C1565 C 0.85601 0.93056 0.0018 0.0
C1566 C 0.91771 0.86988 -0.00153 0.0
C1567 C 0.93455 0.8708 0.01159 0.0
C1568 C 0.90292 0.88498 -0.00114 0.0
C1569 C 0.90439 0.90134 0.01254 0.0
C1570 C 0.9208 0.90184 0.02626 0.0
C1571 C 0.93575 0.88676 0.02576 0.0
H1572 H 0.21783 0.63826 0.67886 0.0
H1573 H 0.17513 0.58935 0.68741 0.0
H1574 H 0.18984 0.66135 0.67159 0.0
H1575 H 0.14721 0.61205 0.67918 0.0
H1576 H 0.13585 0.69845 0.65264 0.0
H1577 H 0.16227 0.67253 0.651 0.0
H1578 H 0.13117 0.63821 0.69712 0.0
H1579 H 0.10462 0.66349 0.69816 0.0
C1580 C 0.20249 0.63233 0.67863 0.0
C1581 C 0.19862 0.61212 0.68403 0.0
C1582 C 0.18641 0.64553 0.67436 0.0
C1583 C 0.16618 0.63867 0.67513 0.0
C1584 C 0.16253 0.61802 0.67902 0.0
C1585 C 0.17854 0.60496 0.68362 0.0
C1586 C 0.13451 0.68517 0.66215 0.0
C1587 C 0.11816 0.68313 0.67562 0.0
C1588 C 0.14973 0.67038 0.66132 0.0
C1589 C 0.14897 0.65328 0.67399 0.0
C1590 C 0.13218 0.65094 0.68685 0.0
C1591 C 0.11695 0.66559 0.68758 0.0
H1592 H 0.03203 0.35078 0.42291 0.0
H1593 H -0.01351 0.39668 0.41242 0.0
H1594 H 0.05835 0.37675 0.4228 0.0
H1595 H 0.01258 0.42281 0.4134 0.0
H1596 H 0.06445 0.46713 0.41123 0.0
H1597 H 0.04166 0.43966 0.40084 0.0
H1598 H 0.06803 0.40108 0.44678 0.0
H1599 H 0.09109 0.42796 0.45645 0.0
C1600 C 0.02769 0.36642 0.42035 0.0
C1601 C 0.00719 0.37173 0.41793 0.0
C1602 C 0.04274 0.38135 0.42045 0.0
C1603 C 0.03759 0.40199 0.4186 0.0
C1604 C 0.0172 0.40712 0.41476 0.0
C1605 C 0.00218 0.39211 0.41428 0.0
C1606 C 0.06552 0.45267 0.41888 0.0
C1607 C 0.07953 0.4498 0.43474 0.0
C1608 C 0.0524 0.43694 0.41299 0.0
C1609 C 0.05294 0.41808 0.42294 0.0
C1610 C 0.06738 0.41517 0.43842 0.0
C1611 C 0.08054 0.43074 0.44414 0.0
H1612 H 0.40672 0.58789 0.92333 0.0
H1613 H 0.45318 0.54283 0.91325 0.0
H1614 H 0.38108 0.56128 0.92421 0.0
H1615 H 0.4277 0.5161 0.91501 0.0
H1616 H 0.37611 0.47092 0.91406 0.0
H1617 H 0.39812 0.49853 0.90284 0.0
H1618 H 0.37342 0.53731 0.94955 0.0
H1619 H 0.3512 0.51022 0.96022 0.0
C1620 C 0.4114 0.5723 0.92101 0.0
C1621 C 0.43199 0.56742 0.91852 0.0
C1622 C 0.39674 0.55702 0.92166 0.0
C1623 C 0.40236 0.53648 0.92019 0.0
C1624 C 0.42277 0.53173 0.91613 0.0
C1625 C 0.43742 0.54707 0.91517 0.0
C1626 C 0.37524 0.48544 0.92173 0.0
C1627 C 0.36196 0.4883 0.93812 0.0
C1628 C 0.3879 0.50124 0.91535 0.0
C1629 C 0.38756 0.5202 0.92524 0.0
C1630 C 0.37386 0.52311 0.94126 0.0
C1631 C 0.36121 0.50743 0.94755 0.0
H1632 H 0.68232 0.76429 0.85007 0.0
H1633 H 0.67597 0.72127 0.80097 0.0
H1634 H 0.67454 0.79196 0.82704 0.0
H1635 H 0.66911 0.74904 0.7776 0.0
H1636 H 0.69496 0.83461 0.77651 0.0
H1637 H 0.69341 0.80808 0.80164 0.0
H1638 H 0.64845 0.7763 0.76562 0.0
H1639 H 0.65057 0.80274 0.73989 0.0
C1640 C 0.67909 0.76075 0.83435 0.0
C1641 C 0.68001 0.74066 0.82725 0.0
C1642 C 0.67475 0.77662 0.8211 0.0
C1643 C 0.67162 0.77283 0.80034 0.0
C1644 C 0.67131 0.75256 0.79349 0.0
C1645 C 0.67533 0.73662 0.80686 0.0
C1646 C 0.68452 0.82214 0.77399 0.0
C1647 C 0.67302 0.82076 0.75606 0.0
C1648 C 0.68351 0.80692 0.78855 0.0
C1649 C 0.67081 0.78996 0.78571 0.0
C1650 C 0.65861 0.78899 0.76818 0.0
C1651 C 0.65973 0.80422 0.75349 0.0
H1652 H 0.42882 0.45533 0.08933 0.0
H1653 H 0.47049 0.41297 0.06166 0.0
H1654 H 0.40208 0.44383 0.06688 0.0
H1655 H 0.44325 0.4009 0.03934 0.0
H1656 H 0.39728 0.4118 -0.01457 0.0
H1657 H 0.42439 0.41345 0.01066 0.0
H1658 H 0.37965 0.41707 0.0582 0.0
H1659 H 0.35265 0.41634 0.03289 0.0
C1660 C 0.43223 0.4433 0.07865 0.0
C1661 C 0.45189 0.43519 0.07723 0.0
C1662 C 0.41675 0.43652 0.06585 0.0
C1663 C 0.42042 0.42132 0.05132 0.0
C1664 C 0.43994 0.41275 0.05025 0.0
C1665 C 0.45553 0.41961 0.06309 0.0
C1666 C 0.39326 0.4124 0.00131 0.0
C1667 C 0.37288 0.41431 0.00719 0.0
C1668 C 0.40881 0.41331 0.01581 0.0
C1669 C 0.40422 0.41589 0.03645 0.0
C1670 C 0.38374 0.41572 0.04239 0.0
C1671 C 0.36825 0.41515 0.02791 0.0
H1672 H 0.76241 0.219 0.30031 0.0
H1673 H 0.75758 0.17675 0.34983 0.0
H1674 H 0.76997 0.19103 0.27726 0.0
H1675 H 0.76621 0.14891 0.32717 0.0
H1676 H 0.78887 0.13743 0.23966 0.0
H1677 H 0.79087 0.16427 0.26522 0.0
H1678 H 0.74794 0.13156 0.30218 0.0
H1679 H 0.74664 0.10465 0.27729 0.0
C1680 C 0.76355 0.20379 0.30636 0.0
C1681 C 0.75907 0.19998 0.32676 0.0
C1682 C 0.76799 0.18773 0.29318 0.0
C1683 C 0.76835 0.16759 0.30024 0.0
C1684 C 0.76546 0.16411 0.32104 0.0
C1685 C 0.76064 0.18007 0.33408 0.0
C1686 C 0.78018 0.13584 0.25344 0.0
C1687 C 0.76749 0.11893 0.25634 0.0
C1688 C 0.78121 0.1513 0.26804 0.0
C1689 C 0.7695 0.15022 0.28578 0.0
C1690 C 0.75749 0.13287 0.28895 0.0
C1691 C 0.75659 0.11741 0.27451 0.0
H1692 H -0.02845 0.51595 0.54969 0.0
H1693 H 0.01387 0.51599 0.5998 0.0
H1694 H -0.00081 0.52352 0.52649 0.0
H1695 H 0.04136 0.52462 0.5769 0.0
H1696 H 0.08606 0.50302 0.52842 0.0
H1697 H 0.05932 0.50532 0.55321 0.0
H1698 H 0.02522 0.54472 0.51341 0.0
H1699 H 0.05191 0.54172 0.48803 0.0
C1700 C -0.01333 0.51821 0.55581 0.0
C1701 C -0.00935 0.51504 0.57646 0.0
C1702 C 0.00255 0.52265 0.54253 0.0
C1703 C 0.02265 0.52431 0.54974 0.0
C1704 C 0.02621 0.52284 0.5707 0.0
C1705 C 0.01044 0.51803 0.58387 0.0
C1706 C 0.07303 0.51243 0.52499 0.0
C1707 C 0.07107 0.52199 0.5061 0.0
C1708 C 0.05767 0.51391 0.53935 0.0
C1709 C 0.03998 0.52517 0.53536 0.0
C1710 C 0.03847 0.53565 0.51688 0.0
C1711 C 0.05384 0.53405 0.50238 0.0
H1712 H 0.7115 0.17878 0.60129 0.0
H1713 H 0.66292 0.21605 0.62462 0.0
H1714 H 0.70222 0.1519 0.62426 0.0
H1715 H 0.65303 0.18858 0.64732 0.0
H1716 H 0.66357 0.14656 0.7033 0.0
H1717 H 0.66518 0.17262 0.67731 0.0
H1718 H 0.67855 0.12665 0.63242 0.0
H1719 H 0.6779 0.10079 0.65864 0.0
C1720 C 0.69857 0.18113 0.6111 0.0
C1721 C 0.68804 0.19966 0.61117 0.0
C1722 C 0.6931 0.16556 0.62421 0.0
C1723 C 0.67679 0.16795 0.63766 0.0
C1724 C 0.66583 0.18628 0.63734 0.0
C1725 C 0.67143 0.202 0.62427 0.0
C1726 C 0.66647 0.14199 0.6878 0.0
C1727 C 0.67094 0.12168 0.68305 0.0
C1728 C 0.66732 0.15694 0.67285 0.0
C1729 C 0.67239 0.15183 0.65279 0.0
C1730 C 0.6752 0.13124 0.64781 0.0
C1731 C 0.67469 0.11637 0.6628 0.0
H1732 H 0.04172 0.41098 0.95212 0.0
H1733 H 0.08744 0.41043 0.90551 0.0
H1734 H 0.01522 0.4115 0.92631 0.0
H1735 H 0.06098 0.40987 0.87962 0.0
H1736 H 0.01404 0.448 0.8453 0.0
H1737 H 0.03999 0.4364 0.86843 0.0
H1738 H -0.00388 0.39821 0.89844 0.0
H1739 H 0.96969 0.41053 0.87546 0.0
C1740 C 0.04608 0.41018 0.93634 0.0
C1741 C 0.06662 0.41106 0.9308 0.0
C1742 C 0.03087 0.41042 0.9215 0.0
C1743 C 0.03594 0.41124 0.90083 0.0
C1744 C 0.05652 0.40992 0.89538 0.0
C1745 C 0.0717 0.41006 0.9102 0.0
C1746 C 0.00987 0.43696 0.85666 0.0
C1747 C -0.01031 0.43038 0.85863 0.0
C1748 C 0.02489 0.43009 0.86986 0.0
C1749 C 0.02024 0.41628 0.88535 0.0
C1750 C 0.0002 0.40902 0.88684 0.0
C1751 C -0.01493 0.41602 0.87362 0.0
H1752 H 0.77629 0.79314 0.20414 0.0
H1753 H 0.75992 0.83827 0.15974 0.0
H1754 H 0.77419 0.76681 0.17824 0.0
H1755 H 0.75874 0.81214 0.1336 0.0
H1756 H 0.72533 0.75923 0.10349 0.0
H1757 H 0.73502 0.78646 0.12619 0.0
H1758 H 0.78561 0.75077 0.14794 0.0
H1759 H 0.77535 0.72295 0.12551 0.0
C1760 C 0.77284 0.79752 0.18871 0.0
C1761 C 0.76794 0.81772 0.18403 0.0
C1762 C 0.7717 0.78241 0.1738 0.0
C1763 C 0.7659 0.78725 0.15386 0.0
C1764 C 0.76266 0.80775 0.14892 0.0
C1765 C 0.76348 0.82278 0.16386 0.0
C1766 C 0.73864 0.75717 0.11295 0.0
C1767 C 0.74947 0.73882 0.11274 0.0
C1768 C 0.74434 0.77294 0.1259 0.0
C1769 C 0.76119 0.77093 0.13889 0.0
C1770 C 0.77242 0.75277 0.1383 0.0
C1771 C 0.76659 0.73685 0.12539 0.0
H1772 H 0.35076 0.51341 0.41122 0.0
H1773 H 0.39665 0.52779 0.45595 0.0
H1774 H 0.37663 0.51232 0.38505 0.0
H1775 H 0.42273 0.5257 0.43001 0.0
H1776 H 0.46624 0.52716 0.37742 0.0
H1777 H 0.43886 0.53741 0.40013 0.0
H1778 H 0.40163 0.48847 0.37679 0.0
H1779 H 0.42841 0.47886 0.3538 0.0
C1780 C 0.36638 0.51653 0.41541 0.0
C1781 C 0.37171 0.52044 0.43566 0.0
C1782 C 0.38126 0.51575 0.40044 0.0
C1783 C 0.40188 0.51845 0.40545 0.0
C1784 C 0.40703 0.52365 0.42552 0.0
C1785 C 0.39207 0.52478 0.44045 0.0
C1786 C 0.45209 0.51878 0.37701 0.0
C1787 C 0.44956 0.50215 0.36382 0.0
C1788 C 0.43643 0.52459 0.39009 0.0
C1789 C 0.41796 0.51381 0.39033 0.0
C1790 C 0.41539 0.49746 0.3768 0.0
C1791 C 0.4309 0.4918 0.36367 0.0
H1792 H 0.77498 0.69456 0.83367 0.0
H1793 H 0.7381 0.65097 0.80103 0.0
H1794 H 0.80034 0.69293 0.80736 0.0
H1795 H 0.76404 0.64876 0.77481 0.0
H1796 H 0.79983 0.67671 0.7205 0.0
H1797 H 0.77628 0.66966 0.74799 0.0
H1798 H 0.82573 0.67392 0.79112 0.0
H1799 H 0.84896 0.68189 0.76374 0.0
C1800 C 0.77245 0.68428 0.82107 0.0
C1801 C 0.75439 0.67304 0.81941 0.0
C1802 C 0.78714 0.68321 0.80598 0.0
C1803 C 0.78428 0.67072 0.78887 0.0
C1804 C 0.76661 0.65876 0.78763 0.0
C1805 C 0.7518 0.65993 0.80273 0.0
C1806 C 0.80568 0.67576 0.73583 0.0
C1807 C 0.82613 0.68018 0.74004 0.0
C1808 C 0.79221 0.67163 0.75161 0.0
C1809 C 0.79902 0.67157 0.77186 0.0
C1810 C 0.81983 0.67442 0.77579 0.0
C1811 C 0.83318 0.67887 0.76009 0.0
H1812 H 0.52752 0.48535 0.04344 0.0
H1813 H 0.52062 0.53243 0.08853 0.0
H1814 H 0.52605 0.51073 0.01676 0.0
H1815 H 0.52014 0.55796 0.06198 0.0
H1816 H 0.48362 0.58919 0.01201 0.0
H1817 H 0.49445 0.56674 0.03878 0.0
H1818 H 0.53853 0.53952 -0.00128 0.0
H1819 H 0.52706 0.56178 -0.02858 0.0
C1820 C 0.5264 0.5012 0.04768 0.0
C1821 C 0.52382 0.50689 0.06803 0.0
C1822 C 0.52561 0.5158 0.03237 0.0
C1823 C 0.52251 0.53639 0.03716 0.0
C1824 C 0.5219 0.54218 0.05769 0.0
C1825 C 0.52233 0.52758 0.07294 0.0
C1826 C 0.49577 0.57859 0.00887 0.0
C1827 C 0.50435 0.57721 -0.01053 0.0
C1828 C 0.50216 0.56578 0.02436 0.0
C1829 C 0.51747 0.55131 0.02101 0.0
C1830 C 0.52656 0.55034 0.00178 0.0
C1831 C 0.52005 0.56315 -0.01384 0.0
H1832 H 0.60295 0.22433 0.25989 0.0
H1833 H 0.62531 0.27379 0.22342 0.0
H1834 H 0.62575 0.23403 0.28703 0.0
H1835 H 0.64783 0.28408 0.25116 0.0
H1836 H 0.70413 0.27466 0.29349 0.0
H1837 H 0.67814 0.27255 0.26722 0.0
H1838 H 0.63338 0.25783 0.31255 0.0
H1839 H 0.65962 0.25901 0.33862 0.0
C1840 C 0.61251 0.23752 0.25777 0.0
C1841 C 0.61237 0.24819 0.23939 0.0
C1842 C 0.62551 0.24324 0.27349 0.0
C1843 C 0.63864 0.25993 0.2714 0.0
C1844 C 0.6381 0.27101 0.25322 0.0
C1845 C 0.62514 0.26517 0.23735 0.0
C1846 C 0.68865 0.27137 0.29788 0.0
C1847 C 0.68397 0.26667 0.31806 0.0
C1848 C 0.6737 0.27023 0.28281 0.0
C1849 C 0.65369 0.26463 0.28767 0.0
C1850 C 0.64874 0.26159 0.30815 0.0
C1851 C 0.66374 0.2624 0.32313 0.0
H1852 H 0.90313 0.45096 0.5507 0.0
H1853 H 0.95146 0.41867 0.58112 0.0
H1854 H 0.90198 0.42461 0.5246 0.0
H1855 H 0.95087 0.39299 0.55487 0.0
H1856 H 0.92885 0.39003 0.469 0.0
H1857 H 0.92207 0.41362 0.49671 0.0
H1858 H 0.93339 0.36574 0.53989 0.0
H1859 H 0.9411 0.34256 0.51223 0.0
C1860 C 0.9134 0.43819 0.55191 0.0
C1861 C 0.92745 0.43699 0.56797 0.0
C1862 C 0.91283 0.42315 0.53688 0.0
C1863 C 0.92637 0.40666 0.53753 0.0
C1864 C 0.93994 0.40521 0.55398 0.0
C1865 C 0.94039 0.42009 0.56903 0.0
C1866 C 0.92957 0.38452 0.48442 0.0
C1867 C 0.93582 0.36457 0.48848 0.0
C1868 C 0.92559 0.398 0.50033 0.0
C1869 C 0.9275 0.3917 0.52061 0.0
C1870 C 0.93234 0.3713 0.52451 0.0
C1871 C 0.93664 0.35796 0.50866 0.0
H1872 H 0.84137 0.23804 0.67328 0.0
H1873 H 0.81215 0.27867 0.71559 0.0
H1874 H 0.81817 0.24857 0.64694 0.0
H1875 H 0.78913 0.28991 0.68873 0.0
H1876 H 0.73486 0.2768 0.6442 0.0
H1877 H 0.76085 0.27644 0.67053 0.0
H1878 H 0.8074 0.27404 0.62464 0.0
H1879 H 0.7813 0.27332 0.59841 0.0
C1880 C 0.83021 0.24954 0.6769 0.0
C1881 C 0.82852 0.25735 0.69664 0.0
C1882 C 0.81696 0.25578 0.66165 0.0
C1883 C 0.80174 0.27018 0.66561 0.0
C1884 C 0.80052 0.27862 0.68519 0.0
C1885 C 0.81376 0.27224 0.70057 0.0
C1886 C 0.75067 0.27668 0.63975 0.0
C1887 C 0.75607 0.27471 0.61928 0.0
C1888 C 0.76562 0.27655 0.65486 0.0
C1889 C 0.78626 0.27473 0.64976 0.0
C1890 C 0.79164 0.27479 0.62916 0.0
C1891 C 0.7767 0.27454 0.61409 0.0
H1892 H 0.90095 0.49087 0.88553 0.0
H1893 H 0.94419 0.52769 0.85308 0.0
H1894 H 0.89912 0.51683 0.912 0.0
H1895 H 0.94303 0.55296 0.87962 0.0
H1896 H 0.93377 0.60137 0.92392 0.0
H1897 H 0.92493 0.57841 0.8963 0.0
H1898 H 0.92002 0.52899 0.93889 0.0
H1899 H 0.9278 0.55233 0.96662 0.0
C1900 C 0.90991 0.50456 0.88393 0.0
C1901 C 0.92282 0.50712 0.86723 0.0
C1902 C 0.90897 0.51938 0.89917 0.0
C1903 C 0.92098 0.53701 0.89807 0.0
C1904 C 0.93325 0.53983 0.88093 0.0
C1905 C 0.93406 0.52517 0.86569 0.0
C1906 C 0.93041 0.58567 0.92739 0.0
C1907 C 0.93173 0.57855 0.94736 0.0
C1908 C 0.92547 0.57246 0.91155 0.0
C1909 C 0.92221 0.5517 0.91524 0.0
C1910 C 0.9223 0.54487 0.93543 0.0
C1911 C 0.92686 0.55822 0.95135 0.0
H1912 H 0.62876 0.65959 0.21814 0.0
H1913 H 0.59781 0.6984 0.17537 0.0
H1914 H 0.65144 0.64806 0.19123 0.0
H1915 H 0.62065 0.68763 0.14899 0.0
H1916 H 0.65716 0.66284 0.10053 0.0
H1917 H 0.63158 0.66194 0.12702 0.0
H1918 H 0.67906 0.6616 0.17248 0.0
H1919 H 0.70453 0.66139 0.14591 0.0
C1920 C 0.62669 0.66554 0.203 0.0
C1921 C 0.61156 0.68003 0.19897 0.0
C1922 C 0.63974 0.65901 0.1876 0.0
C1923 C 0.63794 0.66688 0.16788 0.0
C1924 C 0.62233 0.68084 0.16381 0.0
C1925 C 0.60928 0.68724 0.17909 0.0
C1926 C 0.66208 0.66202 0.11619 0.0
C1927 C 0.68281 0.66249 0.12118 0.0
C1928 C 0.64744 0.66166 0.13139 0.0
C1929 C 0.65321 0.66228 0.15194 0.0
C1930 C 0.67399 0.66106 0.15687 0.0
C1931 C 0.68864 0.66101 0.14161 0.0
H1932 H 0.52626 0.45394 0.39661 0.0
H1933 H 0.52001 0.40759 0.3506 0.0
H1934 H 0.52495 0.42809 0.4228 0.0
H1935 H 0.51969 0.38158 0.37669 0.0
H1936 H 0.4828 0.34947 0.4257 0.0
H1937 H 0.49393 0.37216 0.39934 0.0
H1938 H 0.5375 0.39918 0.44057 0.0
H1939 H 0.52572 0.3767 0.46744 0.0
C1940 C 0.52532 0.43815 0.39207 0.0
C1941 C 0.52286 0.4328 0.37159 0.0
C1942 C 0.52463 0.42328 0.40711 0.0
C1943 C 0.52175 0.40274 0.40191 0.0
C1944 C 0.52129 0.3973 0.38128 0.0
C1945 C 0.52162 0.41218 0.3663 0.0
C1946 C 0.49491 0.36008 0.42918 0.0
C1947 C 0.50322 0.36136 0.44878 0.0
C1948 C 0.50148 0.37302 0.41392 0.0
C1949 C 0.5167 0.38753 0.41774 0.0
C1950 C 0.52559 0.38835 0.43716 0.0
C1951 C 0.5189 0.37541 0.45254 0.0
H1952 H 0.76407 0.85113 0.6847 0.0
H1953 H 0.72038 0.80277 0.67722 0.0
H1954 H 0.79145 0.82773 0.67668 0.0
H1955 H 0.74784 0.77904 0.67011 0.0
H1956 H 0.80092 0.74062 0.65133 0.0
H1957 H 0.77494 0.76697 0.64944 0.0
H1958 H 0.80719 0.80163 0.69511 0.0
H1959 H 0.83329 0.77588 0.69643 0.0
C1960 C 0.76032 0.8355 0.68118 0.0
C1961 C 0.74012 0.8287 0.68185 0.0
C1962 C 0.77602 0.82204 0.67669 0.0
C1963 C 0.77194 0.80137 0.67316 0.0
C1964 C 0.75158 0.79485 0.67261 0.0
C1965 C 0.73581 0.80843 0.67678 0.0
C1966 C 0.80261 0.75405 0.6607 0.0
C1967 C 0.81914 0.75606 0.67412 0.0
C1968 C 0.78764 0.7691 0.65971 0.0
C1969 C 0.78886 0.78643 0.67218 0.0
C1970 C 0.80583 0.78872 0.685 0.0
C1971 C 0.8208 0.7738 0.68589 0.0
H1972 H 0.22055 0.63873 0.263 0.0
H1973 H 0.2625 0.58846 0.26307 0.0
H1974 H 0.24834 0.66194 0.27091 0.0
H1975 H 0.29013 0.61138 0.27206 0.0
H1976 H 0.33514 0.65983 0.25079 0.0
H1977 H 0.30829 0.63498 0.25301 0.0
H1978 H 0.27442 0.67511 0.29225 0.0
H1979 H 0.30122 0.70056 0.28932 0.0
C1980 C 0.23562 0.63258 0.26533 0.0
C1981 C 0.23947 0.61189 0.26206 0.0
C1982 C 0.25158 0.64587 0.26998 0.0
C1983 C 0.27162 0.63862 0.27176 0.0
C1984 C 0.27503 0.6176 0.2702 0.0
C1985 C 0.25919 0.60443 0.26517 0.0
C1986 C 0.32214 0.66332 0.26015 0.0
C1987 C 0.32025 0.68232 0.26967 0.0
C1988 C 0.30672 0.64892 0.26158 0.0
C1989 C 0.28905 0.653 0.27276 0.0
C1990 C 0.28765 0.67158 0.28323 0.0
C1991 C 0.30308 0.68612 0.28167 0.0
H1992 H 0.53516 0.08571 0.51974 0.0
H1993 H 0.48744 0.04135 0.5267 0.0
H1994 H 0.56025 0.05862 0.51871 0.0
H1995 H 0.51241 0.01416 0.52481 0.0
H1996 H 0.56309 0.96798 0.52487 0.0
H1997 H 0.54152 -0.00438 0.53696 0.0
H1998 H 0.56762 0.03543 0.49219 0.0
H1999 H 0.58936 0.00827 0.48062 0.0
C2000 C 0.53008 0.07016 0.5214 0.0
C2001 C 0.50932 0.06562 0.52299 0.0
C2002 C 0.54443 0.05462 0.52066 0.0
C2003 C 0.53831 0.03418 0.52112 0.0
C2004 C 0.5177 0.02972 0.52445 0.0
C2005 C 0.50335 0.04532 0.52549 0.0
C2006 C 0.56436 -0.01728 0.5178 0.0
C2007 C 0.57789 -0.01415 0.50169 0.0
C2008 C 0.55196 -0.00146 0.52469 0.0
C2009 C 0.55284 0.0178 0.51561 0.0
C2010 C 0.56677 0.02097 0.49987 0.0
C2011 C 0.57915 0.00526 0.49306 0.0
H2012 H 0.17579 0.34994 0.74988 0.0
H2013 H 0.21922 0.30182 0.75925 0.0
H2014 H 0.14822 0.32685 0.75807 0.0
H2015 H 0.19157 0.27833 0.76647 0.0
H2016 H 0.10633 0.27468 0.73911 0.0
H2017 H 0.13257 0.30032 0.74017 0.0
H2018 H 0.16416 0.2668 0.78682 0.0
H2019 H 0.13803 0.24051 0.78517 0.0
C2020 C 0.17943 0.33442 0.75384 0.0
C2021 C 0.19961 0.3276 0.75367 0.0
C2022 C 0.16362 0.32113 0.75842 0.0
C2023 C 0.16758 0.30058 0.7625 0.0
C2024 C 0.18791 0.29406 0.76353 0.0
C2025 C 0.20379 0.3075 0.7593 0.0
C2026 C 0.1187 0.27283 0.74981 0.0
C2027 C 0.12013 0.25541 0.76193 0.0
C2028 C 0.13376 0.28769 0.75054 0.0
C2029 C 0.15058 0.28569 0.76358 0.0
C2030 C 0.15158 0.2687 0.77638 0.0
C2031 C 0.13653 0.25369 0.77553 0.0
H2032 H 0.33836 0.43169 0.51152 0.0
H2033 H 0.38954 0.47259 0.51313 0.0
H2034 H 0.36045 0.40359 0.52073 0.0
H2035 H 0.412 0.4443 0.52115 0.0
H2036 H 0.4491 0.39044 0.53961 0.0
H2037 H 0.42435 0.41793 0.54221 0.0
H2038 H 0.38385 0.38486 0.50224 0.0
H2039 H 0.40792 0.35737 0.50041 0.0
C2040 C 0.35436 0.43466 0.514 0.0
C2041 C 0.36231 0.45422 0.51135 0.0
C2042 C 0.36707 0.41855 0.51915 0.0
C2043 C 0.38814 0.42151 0.52121 0.0
C2044 C 0.39587 0.44139 0.51982 0.0
C2045 C 0.38303 0.45763 0.51511 0.0
C2046 C 0.43471 0.38891 0.53175 0.0
C2047 C 0.43059 0.37175 0.51967 0.0
C2048 C 0.42058 0.40474 0.53311 0.0
C2049 C 0.4021 0.40376 0.52234 0.0
C2050 C 0.3977 0.38613 0.51106 0.0
C2051 C 0.41167 0.37033 0.50985 0.0
H2052 H 0.64579 0.20227 0.16231 0.0
H2053 H 0.60019 0.15527 0.16464 0.0
H2054 H 0.67236 0.17663 0.16277 0.0
H2055 H 0.62666 0.12951 0.16401 0.0
H2056 H 0.67539 0.09586 0.20029 0.0
H2057 H 0.64891 0.11877 0.18958 0.0
H2058 H 0.69092 0.1487 0.14939 0.0
H2059 H 0.71792 0.12597 0.16083 0.0
C2060 C 0.64144 0.18642 0.16218 0.0
C2061 C 0.62095 0.18076 0.16381 0.0
C2062 C 0.65669 0.17166 0.16238 0.0
C2063 C 0.6517 0.15095 0.1639 0.0
C2064 C 0.63109 0.14532 0.16349 0.0
C2065 C 0.61589 0.16007 0.16368 0.0
C2066 C 0.67903 0.10715 0.189 0.0
C2067 C 0.69888 0.10917 0.18159 0.0
C2068 C 0.66369 0.12024 0.18266 0.0
C2069 C 0.66767 0.13564 0.16854 0.0
C2070 C 0.68736 0.13718 0.16047 0.0
C2071 C 0.70282 0.12409 0.16696 0.0
H2072 H 0.55207 0.96939 0.92589 0.0
H2073 H 0.60137 0.92673 0.93236 0.0
H2074 H 0.52878 0.94144 0.91874 0.0
H2075 H 0.57841 0.89889 0.92428 0.0
H2076 H 0.52764 0.85592 0.94417 0.0
H2077 H 0.55287 0.88254 0.94281 0.0
H2078 H 0.51697 0.91413 0.89793 0.0
H2079 H 0.49114 0.88761 0.89987 0.0
C2080 C 0.55803 0.95408 0.92522 0.0
C2081 C 0.57844 0.95019 0.93001 0.0
C2082 C 0.5447 0.93804 0.92102 0.0
C2083 C 0.55162 0.91782 0.92127 0.0
C2084 C 0.57241 0.91419 0.92453 0.0
C2085 C 0.58562 0.93015 0.92904 0.0
C2086 C 0.52518 0.86837 0.93378 0.0
C2087 C 0.50724 0.86968 0.92227 0.0
C2088 C 0.5398 0.88364 0.93287 0.0
C2089 C 0.537 0.90059 0.92027 0.0
C2090 C 0.51948 0.90146 0.90803 0.0
C2091 C 0.50474 0.88618 0.90904 0.0
H2092 H 0.9089 0.08496 0.44141 0.0
H2093 H 0.94775 0.05167 0.40053 0.0
H2094 H 0.88411 0.058 0.43981 0.0
H2095 H 0.92229 0.02477 0.3982 0.0
H2096 H 0.88745 -0.02968 0.42706 0.0
H2097 H 0.91022 -0.00166 0.41921 0.0
H2098 H 0.85958 0.04 0.4216 0.0
H2099 H 0.83716 0.01211 0.43056 0.0
C2100 C 0.91197 0.07208 0.43167 0.0
C2101 C 0.93046 0.07041 0.42129 0.0
C2102 C 0.89759 0.05659 0.4306 0.0
C2103 C 0.90115 0.03906 0.41891 0.0
C2104 C 0.91918 0.03787 0.40762 0.0
C2105 C 0.93371 0.05337 0.40884 0.0
C2106 C 0.88118 -0.01457 0.42555 0.0
C2107 C 0.86064 -0.01088 0.42976 0.0
C2108 C 0.8942 0.00152 0.42094 0.0
C2109 C 0.88685 0.02157 0.42012 0.0
C2110 C 0.86592 0.02489 0.42271 0.0
C2111 C 0.85302 0.00889 0.42771 0.0
H2112 H 0.06837 0.08941 0.4107 0.0
H2113 H 0.0316 0.10242 0.35801 0.0
H2114 H 0.09896 0.09672 0.39139 0.0
H2115 H 0.0623 0.11011 0.33876 0.0
H2116 H 0.15208 0.10665 0.35139 0.0
H2117 H 0.1211 0.08809 0.35994 0.0
H2118 H 0.08544 0.14131 0.34645 0.0
H2119 H 0.11632 0.15994 0.33828 0.0
C2120 C 0.06688 0.09327 0.39483 0.0
C2121 C 0.04763 0.09555 0.38591 0.0
C2122 C 0.08439 0.09735 0.38374 0.0
C2123 C 0.08295 0.1041 0.36363 0.0
C2124 C 0.06378 0.10497 0.35427 0.0
C2125 C 0.04625 0.10051 0.36526 0.0
C2126 C 0.13757 0.11417 0.34965 0.0
C2127 C 0.13658 0.1348 0.3444 0.0
C2128 C 0.11989 0.10356 0.3546 0.0
C2129 C 0.10094 0.11331 0.35395 0.0
C2130 C 0.09983 0.13337 0.34693 0.0
C2131 C 0.11751 0.14407 0.34235 0.0
H2132 H 0.08431 0.90392 0.60147 0.0
H2133 H 0.03092 0.86835 0.58752 0.0
H2134 H 0.10286 0.87283 0.60968 0.0
H2135 H 0.04949 0.83739 0.59542 0.0
H2136 H 0.10123 0.82024 0.66035 0.0
H2137 H 0.09448 0.85077 0.64076 0.0
H2138 H 0.0801 0.81398 0.58837 0.0
H2139 H 0.08718 0.7833 0.60795 0.0
C2140 C 0.07677 0.88944 0.59946 0.0
C2141 C 0.05611 0.88852 0.59413 0.0
C2142 C 0.08737 0.87168 0.60421 0.0
C2143 C 0.07757 0.85276 0.60331 0.0
C2144 C 0.05749 0.85175 0.5961 0.0
C2145 C 0.04681 0.86949 0.5917 0.0
C2146 C 0.09727 0.81869 0.64447 0.0
C2147 C 0.0945 0.79943 0.63573 0.0
C2148 C 0.09353 0.83617 0.63321 0.0
C2149 C 0.08663 0.83471 0.61309 0.0
C2150 C 0.08534 0.81549 0.60388 0.0
C2151 C 0.08946 0.79797 0.61507 0.0
H2152 H 0.36984 0.85303 0.90923 0.0
H2153 H 0.40525 0.83902 0.85613 0.0
H2154 H 0.33874 0.84613 0.89031 0.0
H2155 H 0.374 0.83183 0.8372 0.0
H2156 H 0.28437 0.83456 0.85281 0.0
H2157 H 0.31543 0.85378 0.85996 0.0
H2158 H 0.35129 0.8011 0.84482 0.0
H2159 H 0.32039 0.78189 0.83798 0.0
C2160 C 0.37093 0.84907 0.89334 0.0
C2161 C 0.38993 0.84629 0.88422 0.0
C2162 C 0.35311 0.84525 0.88245 0.0
C2163 C 0.35399 0.83828 0.86234 0.0
C2164 C 0.37294 0.8371 0.85272 0.0
C2165 C 0.39079 0.84127 0.86354 0.0
C2166 C 0.29892 0.82732 0.85037 0.0
C2167 C 0.30002 0.80667 0.84512 0.0
C2168 C 0.31666 0.83831 0.85452 0.0
C2169 C 0.33573 0.82889 0.85307 0.0
C2170 C 0.33682 0.80882 0.8459 0.0
C2171 C 0.31912 0.79776 0.84212 0.0
H2172 H 0.33679 0.11816 0.15838 0.0
H2173 H 0.34864 0.15475 0.10561 0.0
H2174 H 0.34442 0.08759 0.13898 0.0
H2175 H 0.35659 0.12407 0.08624 0.0
H2176 H 0.40815 0.07197 0.08586 0.0
H2177 H 0.38828 0.10219 0.09349 0.0
H2178 H 0.33668 0.06464 0.10805 0.0
H2179 H 0.35653 0.03428 0.10007 0.0
C2180 C 0.34044 0.11961 0.14247 0.0
C2181 C 0.34238 0.13882 0.13357 0.0
C2182 C 0.34468 0.1021 0.13131 0.0
C2183 C 0.35125 0.10351 0.11115 0.0
C2184 C 0.35163 0.1226 0.10179 0.0
C2185 C 0.34702 0.14013 0.11286 0.0
C2186 C 0.39237 0.07019 0.09003 0.0
C2187 C 0.38395 0.05081 0.0926 0.0
C2188 C 0.38094 0.0875 0.09428 0.0
C2189 C 0.361 0.08571 0.10151 0.0
C2190 C 0.35206 0.06639 0.10256 0.0
C2191 C 0.36339 0.04905 0.09793 0.0
H2192 H 0.15382 0.83319 0.0913 0.0
H2193 H 0.11715 0.77983 0.10125 0.0
H2194 H 0.12313 0.8528 0.08404 0.0
H2195 H 0.08658 0.79944 0.09428 0.0
H2196 H 0.07103 0.8546 0.03235 0.0
H2197 H 0.10124 0.8467 0.05221 0.0
H2198 H 0.0636 0.82989 0.1028 0.0
H2199 H 0.03323 0.83812 0.08295 0.0
C2200 C 0.13918 0.82584 0.09264 0.0
C2201 C 0.13785 0.80493 0.09654 0.0
C2202 C 0.12165 0.83705 0.08844 0.0
C2203 C 0.10253 0.8276 0.08847 0.0
C2204 C 0.10111 0.80717 0.09431 0.0
C2205 C 0.11862 0.7959 0.09816 0.0
C2206 C 0.06923 0.84989 0.04794 0.0
C2207 C 0.04982 0.84673 0.05604 0.0
C2208 C 0.08653 0.84549 0.05937 0.0
C2209 C 0.08472 0.83752 0.07898 0.0
C2210 C 0.06536 0.83594 0.08768 0.0
C2211 C 0.04803 0.84072 0.07634 0.0
H2212 H 0.35538 0.90608 0.33372 0.0
H2213 H 0.408 0.87026 0.34932 0.0
H2214 H 0.3365 0.87499 0.32586 0.0
H2215 H 0.38909 0.83931 0.34181 0.0
H2216 H 0.35059 0.78541 0.33055 0.0
H2217 H 0.3578 0.81675 0.34926 0.0
H2218 H 0.34518 0.8516 0.29543 0.0
H2219 H 0.3383 0.82038 0.27669 0.0
C2220 C 0.36267 0.89156 0.33616 0.0
C2221 C 0.38322 0.89053 0.34188 0.0
C2222 C 0.35188 0.87381 0.3316 0.0
C2223 C 0.36138 0.8548 0.33313 0.0
C2224 C 0.38133 0.85375 0.34066 0.0
C2225 C 0.39221 0.87147 0.34484 0.0
C2226 C 0.34873 0.79981 0.32291 0.0
C2227 C 0.34416 0.80049 0.30211 0.0
C2228 C 0.3529 0.8177 0.3336 0.0
C2229 C 0.35216 0.83654 0.32375 0.0
C2230 C 0.34571 0.83729 0.30345 0.0
C2231 C 0.3419 0.81942 0.29268 0.0
H2232 H 0.40618 0.09778 0.58141 0.0
H2233 H 0.37161 0.0877 0.52652 0.0
H2234 H 0.37477 0.10512 0.59964 0.0
H2235 H 0.34031 0.09472 0.5448 0.0
H2236 H 0.28556 0.10441 0.58265 0.0
H2237 H 0.31644 0.08541 0.57461 0.0
H2238 H 0.3528 0.13699 0.59267 0.0
H2239 H 0.32206 0.15604 0.60033 0.0
C2240 C 0.39184 0.09645 0.57341 0.0
C2241 C 0.39132 0.09244 0.55249 0.0
C2242 C 0.37391 0.1007 0.58384 0.0
C2243 C 0.35517 0.10059 0.5736 0.0
C2244 C 0.35453 0.09475 0.55312 0.0
C2245 C 0.37246 0.09086 0.54262 0.0
C2246 C 0.30018 0.11143 0.58551 0.0
C2247 C 0.30147 0.13176 0.5919 0.0
C2248 C 0.31781 0.10058 0.58084 0.0
C2249 C 0.33696 0.10978 0.58292 0.0
C2250 C 0.33825 0.12946 0.59108 0.0
C2251 C 0.32065 0.14041 0.59536 0.0
H2252 H 0.1028 0.1182 0.77885 0.0
H2253 H 0.08782 0.15586 0.83031 0.0
H2254 H 0.09495 0.08796 0.79846 0.0
H2255 H 0.07961 0.12549 0.84988 0.0
H2256 H 0.02947 0.07182 0.84914 0.0
H2257 H 0.04875 0.10244 0.84163 0.0
H2258 H 0.10204 0.06615 0.83021 0.0
H2259 H 0.08279 0.03542 0.83806 0.0
C2260 C 0.09841 0.11997 0.79455 0.0
C2261 C 0.0957 0.13935 0.803 0.0
C2262 C 0.09403 0.10265 0.80582 0.0
C2263 C 0.08653 0.10442 0.82563 0.0
C2264 C 0.08531 0.12375 0.83461 0.0
C2265 C 0.09008 0.14109 0.82344 0.0
C2266 C 0.04546 0.07043 0.84567 0.0
C2267 C 0.05457 0.05125 0.84394 0.0
C2268 C 0.05655 0.08797 0.84149 0.0
C2269 C 0.07685 0.08662 0.8352 0.0
C2270 C 0.08639 0.06756 0.83497 0.0
C2271 C 0.07538 0.05002 0.83952 0.0
H2272 H 0.15608 0.33714 0.11817 0.0
H2273 H 0.10548 0.35641 0.15483 0.0
H2274 H 0.13694 0.34532 0.08759 0.0
H2275 H 0.08641 0.36501 0.1241 0.0
H2276 H 0.08965 0.41283 0.06865 0.0
H2277 H 0.09659 0.39456 0.09998 0.0
H2278 H 0.1044 0.33904 0.06601 0.0
H2279 H 0.09713 0.35725 0.03459 0.0
C2280 C 0.14064 0.34256 0.11964 0.0
C2281 C 0.13232 0.3463 0.13882 0.0
C2282 C 0.12963 0.34716 0.10215 0.0
C2283 C 0.11025 0.35591 0.10352 0.0
C2284 C 0.10135 0.35831 0.12267 0.0
C2285 C 0.11222 0.35331 0.14021 0.0
C2286 C 0.09223 0.39661 0.06792 0.0
C2287 C 0.09309 0.38651 0.04918 0.0
C2288 C 0.09607 0.38612 0.08587 0.0
C2289 C 0.10115 0.36543 0.08536 0.0
C2290 C 0.10057 0.35501 0.06677 0.0
C2291 C 0.09637 0.36544 0.04883 0.0
H2292 H 0.60516 0.08929 0.78366 0.0
H2293 H 0.65793 0.10389 0.81996 0.0
H2294 H 0.58622 0.0814 0.81445 0.0
H2295 H 0.63897 0.09633 0.85061 0.0
H2296 H 0.5875 0.03129 0.86759 0.0
H2297 H 0.59442 0.05061 0.837 0.0
H2298 H 0.60809 0.10353 0.87335 0.0
H2299 H 0.60085 0.08422 0.90408 0.0
C2300 C 0.61248 0.09152 0.79823 0.0
C2301 C 0.63309 0.09694 0.79945 0.0
C2302 C 0.60165 0.08695 0.81581 0.0
C2303 C 0.61118 0.08813 0.83487 0.0
C2304 C 0.63119 0.09543 0.83614 0.0
C2305 C 0.64209 0.09965 0.81859 0.0
C2306 C 0.59134 0.04722 0.86902 0.0
C2307 C 0.59389 0.05619 0.88819 0.0
C2308 C 0.59517 0.05833 0.8515 0.0
C2309 C 0.60193 0.07852 0.85285 0.0
C2310 C 0.60296 0.08796 0.87194 0.0
C2311 C 0.59876 0.07692 0.88949 0.0
H2312 H 0.83545 0.85014 0.28438 0.0
H2313 H 0.78323 0.83522 0.32071 0.0
H2314 H 0.85482 0.85787 0.31519 0.0
H2315 H 0.80261 0.84264 0.35137 0.0
H2316 H 0.84088 0.85507 0.40487 0.0
H2317 H 0.83379 0.83561 0.37398 0.0
H2318 H 0.84672 0.88859 0.33802 0.0
H2319 H 0.8535 0.90806 0.36876 0.0
C2320 C 0.82836 0.84779 0.29895 0.0
C2321 C 0.80777 0.84236 0.30019 0.0
C2322 C 0.83943 0.85227 0.31655 0.0
C2323 C 0.83017 0.85098 0.33562 0.0
C2324 C 0.8102 0.84361 0.33689 0.0
C2325 C 0.79905 0.83949 0.31932 0.0
C2326 C 0.84287 0.86235 0.39033 0.0
C2327 C 0.84746 0.88314 0.38917 0.0
C2328 C 0.83875 0.85122 0.37269 0.0
C2329 C 0.83957 0.86064 0.35366 0.0
C2330 C 0.84613 0.88089 0.35247 0.0
C2331 C 0.84989 0.89208 0.37008 0.0
H2332 H 0.83287 0.08581 0.15561 0.0
H2333 H 0.78011 0.1002 0.11937 0.0
H2334 H 0.85202 0.07848 0.12474 0.0
H2335 H 0.79929 0.09325 0.08864 0.0
H2336 H 0.85169 0.02955 0.06991 0.0
H2337 H 0.84408 0.04788 0.10109 0.0
H2338 H 0.8306 0.10172 0.06653 0.0
H2339 H 0.83856 0.08344 0.03523 0.0
C2340 C 0.82559 0.0881 0.14105 0.0
C2341 C 0.80495 0.09334 0.13984 0.0
C2342 C 0.83653 0.08385 0.12343 0.0
C2343 C 0.8271 0.08521 0.10436 0.0
C2344 C 0.807 0.09224 0.10314 0.0
C2345 C 0.79598 0.09611 0.12072 0.0
C2346 C 0.84774 0.04548 0.06901 0.0
C2347 C 0.84549 0.05501 0.05016 0.0
C2348 C 0.8435 0.05602 0.08688 0.0
C2349 C 0.83662 0.07617 0.08618 0.0
C2350 C 0.83583 0.08617 0.06744 0.0
C2351 C 0.84044 0.07572 0.04957 0.0
H2352 H 0.33691 0.58786 0.53588 0.0
H2353 H 0.35371 0.53604 0.57208 0.0
H2354 H 0.32844 0.60672 0.56673 0.0
H2355 H 0.34559 0.55493 0.60278 0.0
H2356 H 0.33239 0.59292 0.65632 0.0
H2357 H 0.35177 0.58633 0.62547 0.0
H2358 H 0.29804 0.59734 0.58947 0.0
H2359 H 0.27865 0.60361 0.62019 0.0
C2360 C 0.33951 0.58078 0.55044 0.0
C2361 C 0.34572 0.56042 0.55163 0.0
C2362 C 0.3346 0.59155 0.56805 0.0
C2363 C 0.33624 0.58223 0.5871 0.0
C2364 C 0.34433 0.56256 0.58833 0.0
C2365 C 0.34887 0.55169 0.57074 0.0
C2366 C 0.3249 0.59457 0.64178 0.0
C2367 C 0.30395 0.59849 0.64063 0.0
C2368 C 0.33598 0.59075 0.62416 0.0
C2369 C 0.32637 0.59121 0.60513 0.0
C2370 C 0.30589 0.59704 0.60392 0.0
C2371 C 0.29475 0.6005 0.62152 0.0
H2372 H 0.15715 0.60401 0.3204 0.0
H2373 H 0.10567 0.58646 0.28355 0.0
H2374 H 0.13801 0.59625 0.35089 0.0
H2375 H 0.08656 0.57836 0.31419 0.0
H2376 H 0.09971 0.58343 0.40396 0.0
H2377 H 0.10645 0.60249 0.37298 0.0
H2378 H 0.09586 0.54833 0.33746 0.0
H2379 H 0.08943 0.52926 0.36832 0.0
C2380 C 0.14152 0.59909 0.31887 0.0
C2381 C 0.13296 0.59561 0.29965 0.0
C2382 C 0.13051 0.59476 0.33632 0.0
C2383 C 0.11086 0.58656 0.33487 0.0
C2384 C 0.10171 0.58461 0.31569 0.0
C2385 C 0.11262 0.58932 0.29819 0.0
C2386 C 0.09819 0.57577 0.38949 0.0
C2387 C 0.09433 0.55481 0.38852 0.0
C2388 C 0.10209 0.58667 0.3718 0.0
C2389 C 0.10179 0.57685 0.35287 0.0
C2390 C 0.09603 0.55634 0.35182 0.0
C2391 C 0.09249 0.54538 0.3695 0.0
H2392 H 0.3366 0.35627 0.90412 0.0
H2393 H 0.34887 0.41068 0.87002 0.0
H2394 H 0.32856 0.33821 0.87261 0.0
H2395 H 0.34124 0.39253 0.83861 0.0
H2396 H 0.27864 0.33895 0.81851 0.0
H2397 H 0.29704 0.34664 0.84977 0.0
H2398 H 0.35038 0.36165 0.81519 0.0
H2399 H 0.33206 0.35355 0.78382 0.0
C2400 C 0.33825 0.36417 0.88986 0.0
C2401 C 0.34315 0.38493 0.88949 0.0
C2402 C 0.33359 0.35385 0.87188 0.0
C2403 C 0.33422 0.36401 0.85324 0.0
C2404 C 0.3408 0.38429 0.85276 0.0
C2405 C 0.34506 0.3947 0.87074 0.0
C2406 C 0.29448 0.34327 0.81762 0.0
C2407 C 0.30388 0.34582 0.79877 0.0
C2408 C 0.30505 0.34757 0.83551 0.0
C2409 C 0.32508 0.35484 0.83484 0.0
C2410 C 0.33493 0.3561 0.81607 0.0
C2411 C 0.32447 0.35139 0.79816 0.0
H2412 H 0.56935 0.58849 0.90921 0.0
H2413 H 0.5329 0.60098 0.85617 0.0
H2414 H 0.60002 0.59598 0.89014 0.0
H2415 H 0.5637 0.60881 0.83713 0.0
H2416 H 0.65349 0.60693 0.85128 0.0
H2417 H 0.62271 0.58776 0.85924 0.0
H2418 H 0.58627 0.64017 0.84467 0.0
H2419 H 0.61692 0.65937 0.83706 0.0
C2420 C 0.56795 0.59228 0.89331 0.0
C2421 C 0.54876 0.59438 0.88423 0.0
C2422 C 0.58552 0.59644 0.88235 0.0
C2423 C 0.58419 0.6031 0.8622 0.0
C2424 C 0.56509 0.60376 0.85267 0.0
C2425 C 0.54751 0.59922 0.86355 0.0
C2426 C 0.63886 0.61412 0.84915 0.0
C2427 C 0.63756 0.6347 0.8438 0.0
C2428 C 0.62129 0.60317 0.85377 0.0
C2429 C 0.60216 0.61253 0.85268 0.0
C2430 C 0.6008 0.63252 0.84548 0.0
C2431 C 0.61835 0.64355 0.84124 0.0
H2432 H 0.58715 0.28412 0.10782 0.0
H2433 H 0.59897 0.3182 0.16265 0.0
H2434 H 0.57991 0.31575 0.08988 0.0
H2435 H 0.59208 0.34972 0.14464 0.0
H2436 H 0.53074 0.37011 0.08964 0.0
H2437 H 0.54868 0.33874 0.09752 0.0
H2438 H 0.60189 0.37322 0.11449 0.0
H2439 H 0.58403 0.40472 0.10622 0.0
C2440 C 0.58885 0.29839 0.11586 0.0
C2441 C 0.59339 0.29873 0.13668 0.0
C2442 C 0.58465 0.31644 0.1056 0.0
C2443 C 0.58536 0.33511 0.11591 0.0
C2444 C 0.5916 0.33554 0.13628 0.0
C2445 C 0.59542 0.3175 0.14662 0.0
C2446 C 0.54647 0.37096 0.09445 0.0
C2447 C 0.55594 0.38982 0.09749 0.0
C2448 C 0.55677 0.353 0.09885 0.0
C2449 C 0.57662 0.35361 0.10672 0.0
C2450 C 0.58657 0.3724 0.10848 0.0
C2451 C 0.57638 0.39037 0.10368 0.0
H2452 H 0.78436 0.33398 0.35121 0.0
H2453 H 0.82103 0.28176 0.33634 0.0
H2454 H 0.81515 0.35336 0.35907 0.0
H2455 H 0.85167 0.30117 0.34385 0.0
H2456 H 0.86935 0.35295 0.40867 0.0
H2457 H 0.8384 0.34548 0.38968 0.0
H2458 H 0.87397 0.33248 0.33645 0.0
H2459 H 0.90504 0.34026 0.35542 0.0
C2460 C 0.799 0.32688 0.34892 0.0
C2461 C 0.80034 0.3063 0.34341 0.0
C2462 C 0.81658 0.33795 0.35348 0.0
C2463 C 0.83575 0.32872 0.35218 0.0
C2464 C 0.83711 0.30873 0.34483 0.0
C2465 C 0.81957 0.29758 0.34064 0.0
C2466 C 0.87052 0.34914 0.39274 0.0
C2467 C 0.88959 0.34693 0.38359 0.0
C2468 C 0.85279 0.34499 0.38182 0.0
C2469 C 0.85383 0.33826 0.36164 0.0
C2470 C 0.87279 0.33758 0.35202 0.0
C2471 C 0.89054 0.34208 0.36286 0.0
H2472 H 0.84833 0.65603 0.60586 0.0
H2473 H 0.83574 0.61852 0.6578 0.0
H2474 H 0.85599 0.62564 0.58591 0.0
H2475 H 0.84313 0.58827 0.63786 0.0
H2476 H 0.85605 0.5355 0.59905 0.0
H2477 H 0.83592 0.56571 0.6069 0.0
H2478 H 0.88735 0.60364 0.59272 0.0
H2479 H 0.90746 0.57359 0.58517 0.0
C2480 C 0.84648 0.64128 0.6128 0.0
C2481 C 0.84175 0.63961 0.63346 0.0
C2482 C 0.85091 0.62392 0.60139 0.0
C2483 C 0.85031 0.60464 0.61039 0.0
C2484 C 0.84358 0.60291 0.63047 0.0
C2485 C 0.83948 0.62025 0.64194 0.0
C2486 C 0.8628 0.55033 0.59695 0.0
C2487 C 0.88338 0.55224 0.59179 0.0
C2488 C 0.8513 0.56758 0.6015 0.0
C2489 C 0.86012 0.58698 0.60056 0.0
C2490 C 0.88009 0.58891 0.59343 0.0
C2491 C 0.89166 0.57169 0.58923 0.0
H2492 H 0.56817 0.35046 0.52803 0.0
H2493 H 0.53302 0.33626 0.58117 0.0
H2494 H 0.59933 0.34252 0.54646 0.0
H2495 H 0.56429 0.32791 0.59951 0.0
H2496 H 0.65355 0.33196 0.58569 0.0
H2497 H 0.62233 0.35055 0.57795 0.0
H2498 H 0.58716 0.29674 0.59024 0.0
H2499 H 0.61828 0.27806 0.59758 0.0
C2500 C 0.56716 0.34619 0.54382 0.0
C2501 C 0.5482 0.34379 0.55312 0.0
C2502 C 0.585 0.34175 0.5544 0.0
C2503 C 0.58415 0.33449 0.57435 0.0
C2504 C 0.56529 0.33344 0.58412 0.0
C2505 C 0.54745 0.33829 0.57365 0.0
C2506 C 0.6391 0.32429 0.58732 0.0
C2507 C 0.63831 0.30351 0.59201 0.0
C2508 C 0.62128 0.33492 0.58284 0.0
C2509 C 0.6024 0.32504 0.58343 0.0
C2510 C 0.60151 0.30476 0.58984 0.0
C2511 C 0.61932 0.29404 0.59393 0.0
H2512 H 0.85139 0.2853 0.83019 0.0
H2513 H 0.83819 0.32085 0.77692 0.0
H2514 H 0.85845 0.31648 0.84924 0.0
H2515 H 0.84497 0.35188 0.79597 0.0
H2516 H 0.85589 0.40609 0.83387 0.0
H2517 H 0.83681 0.37505 0.82629 0.0
H2518 H 0.88932 0.3392 0.84213 0.0
H2519 H 0.9084 0.37008 0.8494 0.0
C2520 C 0.8493 0.29978 0.82276 0.0
C2521 C 0.84453 0.30069 0.80201 0.0
C2522 C 0.85339 0.31759 0.83365 0.0
C2523 C 0.85238 0.33655 0.82404 0.0
C2524 C 0.84571 0.33749 0.80382 0.0
C2525 C 0.84196 0.31972 0.79287 0.0
C2526 C 0.86311 0.39155 0.83636 0.0
C2527 C 0.88369 0.39044 0.84194 0.0
C2528 C 0.85221 0.37383 0.83197 0.0
C2529 C 0.86164 0.35477 0.8335 0.0
C2530 C 0.88161 0.35366 0.84098 0.0
C2531 C 0.89258 0.37135 0.84501 0.0
H2532 H 0.82016 0.66174 0.09796 0.0
H2533 H 0.7857 0.60699 0.08685 0.0
H2534 H 0.85147 0.64358 0.09035 0.0
H2535 H 0.8171 0.58889 0.0789 0.0
H2536 H 0.90623 0.60525 0.08037 0.0
H2537 H 0.87533 0.61329 0.09925 0.0
H2538 H 0.83904 0.59663 0.04716 0.0
H2539 H 0.86979 0.58899 0.02822 0.0
C2540 C 0.81934 0.64569 0.09442 0.0
C2541 C 0.8005 0.63583 0.09278 0.0
C2542 C 0.83728 0.63526 0.09019 0.0
C2543 C 0.83665 0.61487 0.08393 0.0
C2544 C 0.81795 0.60462 0.08365 0.0
C2545 C 0.80002 0.61497 0.08825 0.0
C2546 C 0.89162 0.60271 0.07319 0.0
C2547 C 0.89036 0.59671 0.05278 0.0
C2548 C 0.87398 0.60738 0.08397 0.0
C2549 C 0.85486 0.60566 0.07462 0.0
C2550 C 0.85358 0.59792 0.0548 0.0
C2551 C 0.87118 0.59366 0.04392 0.0
H2552 H 0.58704 0.65523 0.33284 0.0
H2553 H 0.60199 0.61804 0.28102 0.0
H2554 H 0.5788 0.62467 0.35212 0.0
H2555 H 0.59412 0.58762 0.30036 0.0
H2556 H 0.58257 0.53478 0.33997 0.0
H2557 H 0.60152 0.56568 0.33207 0.0
H2558 H 0.54796 0.60149 0.34367 0.0
H2559 H 0.52895 0.57069 0.35122 0.0
C2560 C 0.58927 0.64052 0.32582 0.0
C2561 C 0.59493 0.63896 0.30537 0.0
C2562 C 0.58449 0.62308 0.33683 0.0
C2563 C 0.58573 0.60384 0.32768 0.0
C2564 C 0.59319 0.60224 0.30785 0.0
C2565 C 0.59759 0.61966 0.29674 0.0
C2566 C 0.57503 0.54931 0.34144 0.0
C2567 C 0.55422 0.55035 0.34595 0.0
C2568 C 0.58587 0.56695 0.33687 0.0
C2569 C 0.57617 0.58592 0.33716 0.0
C2570 C 0.55587 0.58709 0.34349 0.0
C2571 C 0.54495 0.56945 0.34769 0.0
H2572 H 0.5893 0.9087 0.56817 0.0
H2573 H 0.60125 0.85387 0.53423 0.0
H2574 H 0.59661 0.89084 0.59963 0.0
H2575 H 0.60892 0.83606 0.56581 0.0
H2576 H 0.65936 0.83756 0.61927 0.0
H2577 H 0.64043 0.84438 0.58822 0.0
H2578 H 0.58786 0.86074 0.62347 0.0
H2579 H 0.60675 0.85355 0.65466 0.0
C2580 C 0.59294 0.89269 0.5675 0.0
C2581 C 0.59493 0.88273 0.54878 0.0
C2582 C 0.597 0.88242 0.58551 0.0
C2583 C 0.60345 0.86211 0.58511 0.0
C2584 C 0.60402 0.85174 0.56649 0.0
C2585 C 0.59958 0.86192 0.54846 0.0
C2586 C 0.64357 0.84198 0.62037 0.0
C2587 C 0.63458 0.84523 0.63933 0.0
C2588 C 0.63268 0.84577 0.6026 0.0
C2589 C 0.61273 0.85321 0.60349 0.0
C2590 C 0.60325 0.85506 0.62241 0.0
C2591 C 0.61403 0.85088 0.64022 0.0
loop_
_geom_bond_atom_site_label_1
_geom_bond_atom_site_label_2
_geom_bond_distance
_geom_bond_site_symmetry_2
_ccdc_geom_bond_type
C0 O1 1.306 . S
C0 O3 1.160 . S
O1 C0 1.306 . S
O1 Cd2 2.228 . S
Cd2 O1 2.228 . S
Cd2 O6 2.273 . S
Cd2 O10 2.277 . S
O3 C0 1.160 . S
O3 Cd4 2.203 . S
Cd4 O3 2.203 . S
Cd4 O6 2.411 . S
Cd4 O7 2.333 . S
Cd4 O8 2.352 . S
Cd4 O12 2.277 . S
Cd4 O13 2.356 . S
C5 O10 1.209 . S
C5 O12 1.226 . S
O6 Cd2 2.273 . S
O6 Cd4 2.411 . S
O6 C9 1.320 . S
O7 Cd4 2.333 . S
O7 C9 1.214 . S
O8 Cd4 2.352 . S
O8 C11 1.258 . S
C9 O6 1.320 . S
C9 O7 1.214 . S
O10 Cd2 2.277 . S
O10 C5 1.209 . S
C11 O8 1.258 . S
C11 O13 1.282 . S
O12 Cd4 2.277 . S
O12 C5 1.226 . S
O13 Cd4 2.356 . S
O13 C11 1.282 . S
C14 O15 1.306 . S
C14 O17 1.160 1_655 S
O15 C14 1.306 . S
O15 Cd16 2.228 1_565 S
Cd16 O15 2.228 1_545 S
Cd16 O20 2.273 1_645 S
Cd16 O24 2.277 1_655 S
O17 C14 1.160 1_455 S
O17 Cd18 2.203 . S
Cd18 O17 2.203 . S
Cd18 O20 2.411 . S
Cd18 O21 2.333 . S
Cd18 O22 2.352 . S
Cd18 O26 2.277 . S
Cd18 O27 2.356 . S
C19 O24 1.209 . S
C19 O26 1.226 1_545 S
O20 Cd16 2.273 1_465 S
O20 Cd18 2.411 . S
O20 C23 1.320 . S
O21 Cd18 2.333 . S
O21 C23 1.214 . S
O22 Cd18 2.352 . S
O22 C25 1.258 . S
C23 O20 1.320 . S
C23 O21 1.214 . S
O24 Cd16 2.277 1_455 S
O24 C19 1.209 . S
C25 O22 1.258 . S
C25 O27 1.282 . S
O26 Cd18 2.277 . S
O26 C19 1.226 1_565 S
O27 Cd18 2.356 . S
O27 C25 1.282 . S
C28 O29 1.306 . S
C28 O31 1.160 . S
O29 C28 1.306 . S
O29 Cd30 2.228 . S
Cd30 O29 2.228 . S
Cd30 O34 2.273 . S
Cd30 O38 2.277 . S
O31 C28 1.160 . S
O31 Cd32 2.203 . S
Cd32 O31 2.203 . S
Cd32 O34 2.411 . S
Cd32 O35 2.333 . S
Cd32 O36 2.352 . S
Cd32 O40 2.277 . S
Cd32 O41 2.356 . S
C33 O38 1.209 . S
C33 O40 1.226 . S
O34 Cd30 2.273 . S
O34 Cd32 2.411 . S
O34 C37 1.320 . S
O35 Cd32 2.333 . S
O35 C37 1.214 . S
O36 Cd32 2.352 . S
O36 C39 1.258 . S
C37 O34 1.320 . S
C37 O35 1.214 . S
O38 Cd30 2.277 . S
O38 C33 1.209 . S
C39 O36 1.258 . S
C39 O41 1.282 . S
O40 Cd32 2.277 . S
O40 C33 1.226 . S
O41 Cd32 2.356 . S
O41 C39 1.282 . S
C42 O43 1.306 . S
C42 O45 1.160 . S
O43 C42 1.306 . S
O43 Cd44 2.228 1_545 S
Cd44 O43 2.228 1_565 S
Cd44 O48 2.273 1_565 S
Cd44 O52 2.277 . S
O45 C42 1.160 . S
O45 Cd46 2.203 . S
Cd46 O45 2.203 . S
Cd46 O48 2.411 . S
Cd46 O49 2.333 . S
Cd46 O50 2.352 . S
Cd46 O54 2.277 . S
Cd46 O55 2.356 . S
C47 O52 1.209 . S
C47 O54 1.226 1_565 S
O48 Cd44 2.273 1_545 S
O48 Cd46 2.411 . S
O48 C51 1.320 . S
O49 Cd46 2.333 . S
O49 C51 1.214 . S
O50 Cd46 2.352 . S
O50 C53 1.258 . S
C51 O48 1.320 . S
C51 O49 1.214 . S
O52 Cd44 2.277 . S
O52 C47 1.209 . S
C53 O50 1.258 . S
C53 O55 1.282 . S
O54 Cd46 2.277 . S
O54 C47 1.226 1_545 S
O55 Cd46 2.356 . S
O55 C53 1.282 . S
C56 O57 1.306 . S
C56 O59 1.160 . S
O57 C56 1.306 . S
O57 Cd58 2.228 . S
Cd58 O57 2.228 . S
Cd58 O62 2.273 . S
Cd58 O66 2.277 . S
O59 C56 1.160 . S
O59 Cd60 2.203 . S
Cd60 O59 2.203 . S
Cd60 O62 2.411 . S
Cd60 O63 2.333 . S
Cd60 O64 2.352 . S
Cd60 O68 2.277 . S
Cd60 O69 2.356 . S
C61 O66 1.209 . S
C61 O68 1.226 . S
O62 Cd58 2.273 . S
O62 Cd60 2.411 . S
O62 C65 1.320 . S
O63 Cd60 2.333 . S
O63 C65 1.214 . S
O64 Cd60 2.352 . S
O64 C67 1.258 . S
C65 O62 1.320 . S
C65 O63 1.214 . S
O66 Cd58 2.277 . S
O66 C61 1.209 . S
C67 O64 1.258 . S
C67 O69 1.282 . S
O68 Cd60 2.277 . S
O68 C61 1.226 . S
O69 Cd60 2.356 . S
O69 C67 1.282 . S
C70 O71 1.306 . S
C70 O73 1.160 . S
O71 C70 1.306 . S
O71 Cd72 2.228 1_565 S
Cd72 O71 2.228 1_545 S
Cd72 O76 2.273 1_545 S
Cd72 O80 2.277 . S
O73 C70 1.160 . S
O73 Cd74 2.203 . S
Cd74 O73 2.203 . S
Cd74 O76 2.411 . S
Cd74 O77 2.333 . S
Cd74 O78 2.352 . S
Cd74 O82 2.277 . S
Cd74 O83 2.356 . S
C75 O80 1.209 . S
C75 O82 1.226 1_545 S
O76 Cd72 2.273 1_565 S
O76 Cd74 2.411 . S
O76 C79 1.320 . S
O77 Cd74 2.333 . S
O77 C79 1.214 . S
O78 Cd74 2.352 . S
O78 C81 1.258 . S
C79 O76 1.320 . S
C79 O77 1.214 . S
O80 Cd72 2.277 . S
O80 C75 1.209 . S
C81 O78 1.258 . S
C81 O83 1.282 . S
O82 Cd74 2.277 . S
O82 C75 1.226 1_565 S
O83 Cd74 2.356 . S
O83 C81 1.282 . S
C84 O85 1.306 . S
C84 O87 1.160 . S
O85 C84 1.306 . S
O85 Cd86 2.228 . S
Cd86 O85 2.228 . S
Cd86 O90 2.273 . S
Cd86 O94 2.277 . S
O87 C84 1.160 . S
O87 Cd88 2.203 . S
Cd88 O87 2.203 . S
Cd88 O90 2.411 . S
Cd88 O91 2.333 . S
Cd88 O92 2.352 . S
Cd88 O96 2.277 . S
Cd88 O97 2.356 . S
C89 O94 1.209 . S
C89 O96 1.226 . S
O90 Cd86 2.273 . S
O90 Cd88 2.411 . S
O90 C93 1.320 . S
O91 Cd88 2.333 . S
O91 C93 1.214 . S
O92 Cd88 2.352 . S
O92 C95 1.258 . S
C93 O90 1.320 . S
C93 O91 1.214 . S
O94 Cd86 2.277 . S
O94 C89 1.209 . S
C95 O92 1.258 . S
C95 O97 1.282 . S
O96 Cd88 2.277 . S
O96 C89 1.226 . S
O97 Cd88 2.356 . S
O97 C95 1.282 . S
C98 O99 1.306 . S
C98 O101 1.160 1_655 S
O99 C98 1.306 . S
O99 Cd100 2.228 1_545 S
Cd100 O99 2.228 1_565 S
Cd100 O104 2.273 1_665 S
Cd100 O108 2.277 1_655 S
O101 C98 1.160 1_455 S
O101 Cd102 2.203 . S
Cd102 O101 2.203 . S
Cd102 O104 2.411 . S
Cd102 O105 2.333 . S
Cd102 O106 2.352 . S
Cd102 O110 2.277 . S
Cd102 O111 2.356 . S
C103 O108 1.209 . S
C103 O110 1.226 1_565 S
O104 Cd100 2.273 1_445 S
O104 Cd102 2.411 . S
O104 C107 1.320 . S
O105 Cd102 2.333 . S
O105 C107 1.214 . S
O106 Cd102 2.352 . S
O106 C109 1.258 . S
C107 O104 1.320 . S
C107 O105 1.214 . S
O108 Cd100 2.277 1_455 S
O108 C103 1.209 . S
C109 O106 1.258 . S
C109 O111 1.282 . S
O110 Cd102 2.277 . S
O110 C103 1.226 1_545 S
O111 Cd102 2.356 . S
O111 C109 1.282 . S
C112 O113 1.306 . S
C112 O115 1.160 . S
O113 C112 1.306 . S
O113 Cd114 2.228 . S
Cd114 O113 2.228 . S
Cd114 O118 2.273 . S
Cd114 O122 2.277 . S
O115 C112 1.160 . S
O115 Cd116 2.203 . S
Cd116 O115 2.203 . S
Cd116 O118 2.411 . S
Cd116 O119 2.333 . S
Cd116 O120 2.352 . S
Cd116 O124 2.277 . S
Cd116 O125 2.356 . S
C117 O122 1.209 . S
C117 O124 1.226 . S
O118 Cd114 2.273 . S
O118 Cd116 2.411 . S
O118 C121 1.320 . S
O119 Cd116 2.333 . S
O119 C121 1.214 . S
O120 Cd116 2.352 . S
O120 C123 1.258 . S
C121 O118 1.320 . S
C121 O119 1.214 . S
O122 Cd114 2.277 . S
O122 C117 1.209 . S
C123 O120 1.258 . S
C123 O125 1.282 . S
O124 Cd116 2.277 . S
O124 C117 1.226 . S
O125 Cd116 2.356 . S
O125 C123 1.282 . S
C126 O127 1.306 . S
C126 O129 1.160 . S
O127 C126 1.306 . S
O127 Cd128 2.228 1_455 S
Cd128 O127 2.228 1_655 S
Cd128 O132 2.273 1_655 S
Cd128 O136 2.277 . S
O129 C126 1.160 . S
O129 Cd130 2.203 . S
Cd130 O129 2.203 . S
Cd130 O132 2.411 . S
Cd130 O133 2.333 . S
Cd130 O134 2.352 . S
Cd130 O138 2.277 . S
Cd130 O139 2.356 . S
C131 O136 1.209 . S
C131 O138 1.226 1_655 S
O132 Cd128 2.273 1_455 S
O132 Cd130 2.411 . S
O132 C135 1.320 . S
O133 Cd130 2.333 . S
O133 C135 1.214 . S
O134 Cd130 2.352 . S
O134 C137 1.258 . S
C135 O132 1.320 . S
C135 O133 1.214 . S
O136 Cd128 2.277 . S
O136 C131 1.209 . S
C137 O134 1.258 . S
C137 O139 1.282 . S
O138 Cd130 2.277 . S
O138 C131 1.226 1_455 S
O139 Cd130 2.356 . S
O139 C137 1.282 . S
C140 O141 1.306 . S
C140 O143 1.160 . S
O141 C140 1.306 . S
O141 Cd142 2.228 . S
Cd142 O141 2.228 . S
Cd142 O146 2.273 . S
Cd142 O150 2.277 . S
O143 C140 1.160 . S
O143 Cd144 2.203 . S
Cd144 O143 2.203 . S
Cd144 O146 2.411 . S
Cd144 O147 2.333 . S
Cd144 O148 2.352 . S
Cd144 O152 2.277 . S
Cd144 O153 2.356 . S
C145 O150 1.209 . S
C145 O152 1.226 . S
O146 Cd142 2.273 . S
O146 Cd144 2.411 . S
O146 C149 1.320 . S
O147 Cd144 2.333 . S
O147 C149 1.214 . S
O148 Cd144 2.352 . S
O148 C151 1.258 . S
C149 O146 1.320 . S
C149 O147 1.214 . S
O150 Cd142 2.277 . S
O150 C145 1.209 . S
C151 O148 1.258 . S
C151 O153 1.282 . S
O152 Cd144 2.277 . S
O152 C145 1.226 . S
O153 Cd144 2.356 . S
O153 C151 1.282 . S
C154 O155 1.306 . S
C154 O157 1.160 1_554 S
O155 C154 1.306 . S
O155 Cd156 2.228 . S
Cd156 O155 2.228 . S
Cd156 O160 2.273 1_554 S
Cd156 O164 2.277 1_554 S
O157 C154 1.160 1_556 S
O157 Cd158 2.203 . S
Cd158 O157 2.203 . S
Cd158 O160 2.411 . S
Cd158 O161 2.333 . S
Cd158 O162 2.352 . S
Cd158 O166 2.277 . S
Cd158 O167 2.356 . S
C159 O164 1.209 . S
C159 O166 1.226 . S
O160 Cd156 2.273 1_556 S
O160 Cd158 2.411 . S
O160 C163 1.320 . S
O161 Cd158 2.333 . S
O161 C163 1.214 . S
O162 Cd158 2.352 . S
O162 C165 1.258 . S
C163 O160 1.320 . S
C163 O161 1.214 . S
O164 Cd156 2.277 1_556 S
O164 C159 1.209 . S
C165 O162 1.258 . S
C165 O167 1.282 . S
O166 Cd158 2.277 . S
O166 C159 1.226 . S
O167 Cd158 2.356 . S
O167 C165 1.282 . S
C168 O169 1.306 . S
C168 O171 1.160 . S
O169 C168 1.306 . S
O169 Cd170 2.228 . S
Cd170 O169 2.228 . S
Cd170 O174 2.273 . S
Cd170 O178 2.277 . S
O171 C168 1.160 . S
O171 Cd172 2.203 . S
Cd172 O171 2.203 . S
Cd172 O174 2.411 . S
Cd172 O175 2.333 . S
Cd172 O176 2.352 . S
Cd172 O180 2.277 . S
Cd172 O181 2.356 . S
C173 O178 1.209 . S
C173 O180 1.226 . S
O174 Cd170 2.273 . S
O174 Cd172 2.411 . S
O174 C177 1.320 . S
O175 Cd172 2.333 . S
O175 C177 1.214 . S
O176 Cd172 2.352 . S
O176 C179 1.258 . S
C177 O174 1.320 . S
C177 O175 1.214 . S
O178 Cd170 2.277 . S
O178 C173 1.209 . S
C179 O176 1.258 . S
C179 O181 1.282 . S
O180 Cd172 2.277 . S
O180 C173 1.226 . S
O181 Cd172 2.356 . S
O181 C179 1.282 . S
C182 O183 1.306 . S
C182 O185 1.160 . S
O183 C182 1.306 . S
O183 Cd184 2.228 . S
Cd184 O183 2.228 . S
Cd184 O188 2.273 . S
Cd184 O192 2.277 . S
O185 C182 1.160 . S
O185 Cd186 2.203 . S
Cd186 O185 2.203 . S
Cd186 O188 2.411 . S
Cd186 O189 2.333 . S
Cd186 O190 2.352 . S
Cd186 O194 2.277 . S
Cd186 O195 2.356 . S
C187 O192 1.209 . S
C187 O194 1.226 . S
O188 Cd184 2.273 . S
O188 Cd186 2.411 . S
O188 C191 1.320 . S
O189 Cd186 2.333 . S
O189 C191 1.214 . S
O190 Cd186 2.352 . S
O190 C193 1.258 . S
C191 O188 1.320 . S
C191 O189 1.214 . S
O192 Cd184 2.277 . S
O192 C187 1.209 . S
C193 O190 1.258 . S
C193 O195 1.282 . S
O194 Cd186 2.277 . S
O194 C187 1.226 . S
O195 Cd186 2.356 . S
O195 C193 1.282 . S
C196 O197 1.306 . S
C196 O199 1.160 . S
O197 C196 1.306 . S
O197 Cd198 2.228 . S
Cd198 O197 2.228 . S
Cd198 O202 2.273 . S
Cd198 O206 2.277 . S
O199 C196 1.160 . S
O199 Cd200 2.203 . S
Cd200 O199 2.203 . S
Cd200 O202 2.411 . S
Cd200 O203 2.333 . S
Cd200 O204 2.352 . S
Cd200 O208 2.277 . S
Cd200 O209 2.356 . S
C201 O206 1.209 . S
C201 O208 1.226 . S
O202 Cd198 2.273 . S
O202 Cd200 2.411 . S
O202 C205 1.320 . S
O203 Cd200 2.333 . S
O203 C205 1.214 . S
O204 Cd200 2.352 . S
O204 C207 1.258 . S
C205 O202 1.320 . S
C205 O203 1.214 . S
O206 Cd198 2.277 . S
O206 C201 1.209 . S
C207 O204 1.258 . S
C207 O209 1.282 . S
O208 Cd200 2.277 . S
O208 C201 1.226 . S
O209 Cd200 2.356 . S
O209 C207 1.282 . S
C210 O211 1.306 . S
C210 O213 1.160 1_556 S
O211 C210 1.306 . S
O211 Cd212 2.228 1_455 S
Cd212 O211 2.228 1_655 S
Cd212 O216 2.273 1_656 S
Cd212 O220 2.277 1_556 S
O213 C210 1.160 1_554 S
O213 Cd214 2.203 . S
Cd214 O213 2.203 . S
Cd214 O216 2.411 . S
Cd214 O217 2.333 . S
Cd214 O218 2.352 . S
Cd214 O222 2.277 . S
Cd214 O223 2.356 . S
C215 O220 1.209 . S
C215 O222 1.226 1_655 S
O216 Cd212 2.273 1_454 S
O216 Cd214 2.411 . S
O216 C219 1.320 . S
O217 Cd214 2.333 . S
O217 C219 1.214 . S
O218 Cd214 2.352 . S
O218 C221 1.258 . S
C219 O216 1.320 . S
C219 O217 1.214 . S
O220 Cd212 2.277 1_554 S
O220 C215 1.209 . S
C221 O218 1.258 . S
C221 O223 1.282 . S
O222 Cd214 2.277 . S
O222 C215 1.226 1_455 S
O223 Cd214 2.356 . S
O223 C221 1.282 . S
C224 O225 1.306 . S
C224 O227 1.160 . S
O225 C224 1.306 . S
O225 Cd226 2.228 . S
Cd226 O225 2.228 . S
Cd226 O230 2.273 . S
Cd226 O234 2.277 . S
O227 C224 1.160 . S
O227 Cd228 2.203 . S
Cd228 O227 2.203 . S
Cd228 O230 2.411 . S
Cd228 O231 2.333 . S
Cd228 O232 2.352 . S
Cd228 O236 2.277 . S
Cd228 O237 2.356 . S
C229 O234 1.209 . S
C229 O236 1.226 . S
O230 Cd226 2.273 . S
O230 Cd228 2.411 . S
O230 C233 1.320 . S
O231 Cd228 2.333 . S
O231 C233 1.214 . S
O232 Cd228 2.352 . S
O232 C235 1.258 . S
C233 O230 1.320 . S
C233 O231 1.214 . S
O234 Cd226 2.277 . S
O234 C229 1.209 . S
C235 O232 1.258 . S
C235 O237 1.282 . S
O236 Cd228 2.277 . S
O236 C229 1.226 . S
O237 Cd228 2.356 . S
O237 C235 1.282 . S
C238 O239 1.306 . S
C238 O241 1.160 . S
O239 C238 1.306 . S
O239 Cd240 2.228 . S
Cd240 O239 2.228 . S
Cd240 O244 2.273 . S
Cd240 O248 2.277 . S
O241 C238 1.160 . S
O241 Cd242 2.203 . S
Cd242 O241 2.203 . S
Cd242 O244 2.411 . S
Cd242 O245 2.333 . S
Cd242 O246 2.352 . S
Cd242 O250 2.277 . S
Cd242 O251 2.356 . S
C243 O248 1.209 . S
C243 O250 1.226 . S
O244 Cd240 2.273 . S
O244 Cd242 2.411 . S
O244 C247 1.320 . S
O245 Cd242 2.333 . S
O245 C247 1.214 . S
O246 Cd242 2.352 . S
O246 C249 1.258 . S
C247 O244 1.320 . S
C247 O245 1.214 . S
O248 Cd240 2.277 . S
O248 C243 1.209 . S
C249 O246 1.258 . S
C249 O251 1.282 . S
O250 Cd242 2.277 . S
O250 C243 1.226 . S
O251 Cd242 2.356 . S
O251 C249 1.282 . S
C252 O253 1.306 . S
C252 O255 1.160 . S
O253 C252 1.306 . S
O253 Cd254 2.228 1_554 S
Cd254 O253 2.228 1_556 S
Cd254 O258 2.273 1_556 S
Cd254 O262 2.277 . S
O255 C252 1.160 . S
O255 Cd256 2.203 . S
Cd256 O255 2.203 . S
Cd256 O258 2.411 . S
Cd256 O259 2.333 . S
Cd256 O260 2.352 . S
Cd256 O264 2.277 . S
Cd256 O265 2.356 . S
C257 O262 1.209 . S
C257 O264 1.226 1_556 S
O258 Cd254 2.273 1_554 S
O258 Cd256 2.411 . S
O258 C261 1.320 . S
O259 Cd256 2.333 . S
O259 C261 1.214 . S
O260 Cd256 2.352 . S
O260 C263 1.258 . S
C261 O258 1.320 . S
C261 O259 1.214 . S
O262 Cd254 2.277 . S
O262 C257 1.209 . S
C263 O260 1.258 . S
C263 O265 1.282 . S
O264 Cd256 2.277 . S
O264 C257 1.226 1_554 S
O265 Cd256 2.356 . S
O265 C263 1.282 . S
C266 O267 1.306 . S
C266 O269 1.160 . S
O267 C266 1.306 . S
O267 Cd268 2.228 . S
Cd268 O267 2.228 . S
Cd268 O272 2.273 . S
Cd268 O276 2.277 . S
O269 C266 1.160 . S
O269 Cd270 2.203 . S
Cd270 O269 2.203 . S
Cd270 O272 2.411 . S
Cd270 O273 2.333 . S
Cd270 O274 2.352 . S
Cd270 O278 2.277 . S
Cd270 O279 2.356 . S
C271 O276 1.209 . S
C271 O278 1.226 . S
O272 Cd268 2.273 . S
O272 Cd270 2.411 . S
O272 C275 1.320 . S
O273 Cd270 2.333 . S
O273 C275 1.214 . S
O274 Cd270 2.352 . S
O274 C277 1.258 . S
C275 O272 1.320 . S
C275 O273 1.214 . S
O276 Cd268 2.277 . S
O276 C271 1.209 . S
C277 O274 1.258 . S
C277 O279 1.282 . S
O278 Cd270 2.277 . S
O278 C271 1.226 . S
O279 Cd270 2.356 . S
O279 C277 1.282 . S
C280 O281 1.306 . S
C280 O283 1.160 1_565 S
O281 C280 1.306 . S
O281 Cd282 2.228 1_554 S
Cd282 O281 2.228 1_556 S
Cd282 O286 2.273 1_566 S
Cd282 O290 2.277 1_565 S
O283 C280 1.160 1_545 S
O283 Cd284 2.203 . S
Cd284 O283 2.203 . S
Cd284 O286 2.411 . S
Cd284 O287 2.333 . S
Cd284 O288 2.352 . S
Cd284 O292 2.277 . S
Cd284 O293 2.356 . S
C285 O290 1.209 . S
C285 O292 1.226 1_556 S
O286 Cd282 2.273 1_544 S
O286 Cd284 2.411 . S
O286 C289 1.320 . S
O287 Cd284 2.333 . S
O287 C289 1.214 . S
O288 Cd284 2.352 . S
O288 C291 1.258 . S
C289 O286 1.320 . S
C289 O287 1.214 . S
O290 Cd282 2.277 1_545 S
O290 C285 1.209 . S
C291 O288 1.258 . S
C291 O293 1.282 . S
O292 Cd284 2.277 . S
O292 C285 1.226 1_554 S
O293 Cd284 2.356 . S
O293 C291 1.282 . S
C294 O295 1.306 . S
C294 O297 1.160 . S
O295 C294 1.306 . S
O295 Cd296 2.228 . S
Cd296 O295 2.228 . S
Cd296 O300 2.273 . S
Cd296 O304 2.277 . S
O297 C294 1.160 . S
O297 Cd298 2.203 . S
Cd298 O297 2.203 . S
Cd298 O300 2.411 . S
Cd298 O301 2.333 . S
Cd298 O302 2.352 . S
Cd298 O306 2.277 . S
Cd298 O307 2.356 . S
C299 O304 1.209 . S
C299 O306 1.226 . S
O300 Cd296 2.273 . S
O300 Cd298 2.411 . S
O300 C303 1.320 . S
O301 Cd298 2.333 . S
O301 C303 1.214 . S
O302 Cd298 2.352 . S
O302 C305 1.258 . S
C303 O300 1.320 . S
C303 O301 1.214 . S
O304 Cd296 2.277 . S
O304 C299 1.209 . S
C305 O302 1.258 . S
C305 O307 1.282 . S
O306 Cd298 2.277 . S
O306 C299 1.226 . S
O307 Cd298 2.356 . S
O307 C305 1.282 . S
C308 O309 1.306 . S
C308 O311 1.160 . S
O309 C308 1.306 . S
O309 Cd310 2.228 . S
Cd310 O309 2.228 . S
Cd310 O314 2.273 . S
Cd310 O318 2.277 . S
O311 C308 1.160 . S
O311 Cd312 2.203 . S
Cd312 O311 2.203 . S
Cd312 O314 2.411 . S
Cd312 O315 2.333 . S
Cd312 O316 2.352 . S
Cd312 O320 2.277 . S
Cd312 O321 2.356 . S
C313 O318 1.209 . S
C313 O320 1.226 . S
O314 Cd310 2.273 . S
O314 Cd312 2.411 . S
O314 C317 1.320 . S
O315 Cd312 2.333 . S
O315 C317 1.214 . S
O316 Cd312 2.352 . S
O316 C319 1.258 . S
C317 O314 1.320 . S
C317 O315 1.214 . S
O318 Cd310 2.277 . S
O318 C313 1.209 . S
C319 O316 1.258 . S
C319 O321 1.282 . S
O320 Cd312 2.277 . S
O320 C313 1.226 . S
O321 Cd312 2.356 . S
O321 C319 1.282 . S
C322 O323 1.306 . S
C322 O325 1.160 . S
O323 C322 1.306 . S
O323 Cd324 2.228 1_556 S
Cd324 O323 2.228 1_554 S
Cd324 O328 2.273 1_554 S
Cd324 O332 2.277 . S
O325 C322 1.160 . S
O325 Cd326 2.203 . S
Cd326 O325 2.203 . S
Cd326 O328 2.411 . S
Cd326 O329 2.333 . S
Cd326 O330 2.352 . S
Cd326 O334 2.277 . S
Cd326 O335 2.356 . S
C327 O332 1.209 . S
C327 O334 1.226 1_554 S
O328 Cd324 2.273 1_556 S
O328 Cd326 2.411 . S
O328 C331 1.320 . S
O329 Cd326 2.333 . S
O329 C331 1.214 . S
O330 Cd326 2.352 . S
O330 C333 1.258 . S
C331 O328 1.320 . S
C331 O329 1.214 . S
O332 Cd324 2.277 . S
O332 C327 1.209 . S
C333 O330 1.258 . S
C333 O335 1.282 . S
O334 Cd326 2.277 . S
O334 C327 1.226 1_556 S
O335 Cd326 2.356 . S
O335 C333 1.282 . S
C336 O337 1.306 . S
C336 O339 1.160 . S
O337 C336 1.306 . S
O337 Cd338 2.228 . S
Cd338 O337 2.228 . S
Cd338 O342 2.273 . S
Cd338 O346 2.277 . S
O339 C336 1.160 . S
O339 Cd340 2.203 . S
Cd340 O339 2.203 . S
Cd340 O342 2.411 . S
Cd340 O343 2.333 . S
Cd340 O344 2.352 . S
Cd340 O348 2.277 . S
Cd340 O349 2.356 . S
C341 O346 1.209 . S
C341 O348 1.226 . S
O342 Cd338 2.273 . S
O342 Cd340 2.411 . S
O342 C345 1.320 . S
O343 Cd340 2.333 . S
O343 C345 1.214 . S
O344 Cd340 2.352 . S
O344 C347 1.258 . S
C345 O342 1.320 . S
C345 O343 1.214 . S
O346 Cd338 2.277 . S
O346 C341 1.209 . S
C347 O344 1.258 . S
C347 O349 1.282 . S
O348 Cd340 2.277 . S
O348 C341 1.226 . S
O349 Cd340 2.356 . S
O349 C347 1.282 . S
C350 O351 1.306 . S
C350 O353 1.160 . S
O351 C350 1.306 . S
O351 Cd352 2.228 . S
Cd352 O351 2.228 . S
Cd352 O356 2.273 . S
Cd352 O360 2.277 . S
O353 C350 1.160 . S
O353 Cd354 2.203 . S
Cd354 O353 2.203 . S
Cd354 O356 2.411 . S
Cd354 O357 2.333 . S
Cd354 O358 2.352 . S
Cd354 O362 2.277 . S
Cd354 O363 2.356 . S
C355 O360 1.209 . S
C355 O362 1.226 . S
O356 Cd352 2.273 . S
O356 Cd354 2.411 . S
O356 C359 1.320 . S
O357 Cd354 2.333 . S
O357 C359 1.214 . S
O358 Cd354 2.352 . S
O358 C361 1.258 . S
C359 O356 1.320 . S
C359 O357 1.214 . S
O360 Cd352 2.277 . S
O360 C355 1.209 . S
C361 O358 1.258 . S
C361 O363 1.282 . S
O362 Cd354 2.277 . S
O362 C355 1.226 . S
O363 Cd354 2.356 . S
O363 C361 1.282 . S
C364 O365 1.306 . S
C364 O367 1.160 . S
O365 C364 1.306 . S
O365 Cd366 2.228 . S
Cd366 O365 2.228 . S
Cd366 O370 2.273 . S
Cd366 O374 2.277 . S
O367 C364 1.160 . S
O367 Cd368 2.203 . S
Cd368 O367 2.203 . S
Cd368 O370 2.411 . S
Cd368 O371 2.333 . S
Cd368 O372 2.352 . S
Cd368 O376 2.277 . S
Cd368 O377 2.356 . S
C369 O374 1.209 . S
C369 O376 1.226 . S
O370 Cd366 2.273 . S
O370 Cd368 2.411 . S
O370 C373 1.320 . S
O371 Cd368 2.333 . S
O371 C373 1.214 . S
O372 Cd368 2.352 . S
O372 C375 1.258 . S
C373 O370 1.320 . S
C373 O371 1.214 . S
O374 Cd366 2.277 . S
O374 C369 1.209 . S
C375 O372 1.258 . S
C375 O377 1.282 . S
O376 Cd368 2.277 . S
O376 C369 1.226 . S
O377 Cd368 2.356 . S
O377 C375 1.282 . S
C378 O379 1.306 . S
C378 O381 1.160 1_455 S
O379 C378 1.306 . S
O379 Cd380 2.228 . S
Cd380 O379 2.228 . S
Cd380 O384 2.273 1_455 S
Cd380 O388 2.277 1_455 S
O381 C378 1.160 1_655 S
O381 Cd382 2.203 . S
Cd382 O381 2.203 . S
Cd382 O384 2.411 . S
Cd382 O385 2.333 . S
Cd382 O386 2.352 . S
Cd382 O390 2.277 . S
Cd382 O391 2.356 . S
C383 O388 1.209 . S
C383 O390 1.226 . S
O384 Cd380 2.273 1_655 S
O384 Cd382 2.411 . S
O384 C387 1.320 . S
O385 Cd382 2.333 . S
O385 C387 1.214 . S
O386 Cd382 2.352 . S
O386 C389 1.258 . S
C387 O384 1.320 . S
C387 O385 1.214 . S
O388 Cd380 2.277 1_655 S
O388 C383 1.209 . S
C389 O386 1.258 . S
C389 O391 1.282 . S
O390 Cd382 2.277 . S
O390 C383 1.226 . S
O391 Cd382 2.356 . S
O391 C389 1.282 . S
C392 O393 1.306 . S
C392 O395 1.160 . S
O393 C392 1.306 . S
O393 Cd394 2.228 . S
Cd394 O393 2.228 . S
Cd394 O398 2.273 . S
Cd394 O402 2.277 . S
O395 C392 1.160 . S
O395 Cd396 2.203 . S
Cd396 O395 2.203 . S
Cd396 O398 2.411 . S
Cd396 O399 2.333 . S
Cd396 O400 2.352 . S
Cd396 O404 2.277 . S
Cd396 O405 2.356 . S
C397 O402 1.209 . S
C397 O404 1.226 . S
O398 Cd394 2.273 . S
O398 Cd396 2.411 . S
O398 C401 1.320 . S
O399 Cd396 2.333 . S
O399 C401 1.214 . S
O400 Cd396 2.352 . S
O400 C403 1.258 . S
C401 O398 1.320 . S
C401 O399 1.214 . S
O402 Cd394 2.277 . S
O402 C397 1.209 . S
C403 O400 1.258 . S
C403 O405 1.282 . S
O404 Cd396 2.277 . S
O404 C397 1.226 . S
O405 Cd396 2.356 . S
O405 C403 1.282 . S
C406 O407 1.306 . S
C406 O409 1.160 1_455 S
O407 C406 1.306 . S
O407 Cd408 2.228 . S
Cd408 O407 2.228 . S
Cd408 O412 2.273 1_455 S
Cd408 O416 2.277 1_455 S
O409 C406 1.160 1_655 S
O409 Cd410 2.203 . S
Cd410 O409 2.203 . S
Cd410 O412 2.411 . S
Cd410 O413 2.333 . S
Cd410 O414 2.352 . S
Cd410 O418 2.277 . S
Cd410 O419 2.356 . S
C411 O416 1.209 . S
C411 O418 1.226 . S
O412 Cd408 2.273 1_655 S
O412 Cd410 2.411 . S
O412 C415 1.320 . S
O413 Cd410 2.333 . S
O413 C415 1.214 . S
O414 Cd410 2.352 . S
O414 C417 1.258 . S
C415 O412 1.320 . S
C415 O413 1.214 . S
O416 Cd408 2.277 1_655 S
O416 C411 1.209 . S
C417 O414 1.258 . S
C417 O419 1.282 . S
O418 Cd410 2.277 . S
O418 C411 1.226 . S
O419 Cd410 2.356 . S
O419 C417 1.282 . S
C420 O421 1.306 . S
C420 O423 1.160 . S
O421 C420 1.306 . S
O421 Cd422 2.228 . S
Cd422 O421 2.228 . S
Cd422 O426 2.273 . S
Cd422 O430 2.277 . S
O423 C420 1.160 . S
O423 Cd424 2.203 . S
Cd424 O423 2.203 . S
Cd424 O426 2.411 . S
Cd424 O427 2.333 . S
Cd424 O428 2.352 . S
Cd424 O432 2.277 . S
Cd424 O433 2.356 . S
C425 O430 1.209 . S
C425 O432 1.226 . S
O426 Cd422 2.273 . S
O426 Cd424 2.411 . S
O426 C429 1.320 . S
O427 Cd424 2.333 . S
O427 C429 1.214 . S
O428 Cd424 2.352 . S
O428 C431 1.258 . S
C429 O426 1.320 . S
C429 O427 1.214 . S
O430 Cd422 2.277 . S
O430 C425 1.209 . S
C431 O428 1.258 . S
C431 O433 1.282 . S
O432 Cd424 2.277 . S
O432 C425 1.226 . S
O433 Cd424 2.356 . S
O433 C431 1.282 . S
C434 O435 1.306 . S
C434 O437 1.160 . S
O435 C434 1.306 . S
O435 Cd436 2.228 . S
Cd436 O435 2.228 . S
Cd436 O440 2.273 . S
Cd436 O444 2.277 . S
O437 C434 1.160 . S
O437 Cd438 2.203 . S
Cd438 O437 2.203 . S
Cd438 O440 2.411 . S
Cd438 O441 2.333 . S
Cd438 O442 2.352 . S
Cd438 O446 2.277 . S
Cd438 O447 2.356 . S
C439 O444 1.209 . S
C439 O446 1.226 . S
O440 Cd436 2.273 . S
O440 Cd438 2.411 . S
O440 C443 1.320 . S
O441 Cd438 2.333 . S
O441 C443 1.214 . S
O442 Cd438 2.352 . S
O442 C445 1.258 . S
C443 O440 1.320 . S
C443 O441 1.214 . S
O444 Cd436 2.277 . S
O444 C439 1.209 . S
C445 O442 1.258 . S
C445 O447 1.282 . S
O446 Cd438 2.277 . S
O446 C439 1.226 . S
O447 Cd438 2.356 . S
O447 C445 1.282 . S
C448 O449 1.306 . S
C448 O451 1.160 . S
O449 C448 1.306 . S
O449 Cd450 2.228 . S
Cd450 O449 2.228 . S
Cd450 O454 2.273 . S
Cd450 O458 2.277 . S
O451 C448 1.160 . S
O451 Cd452 2.203 . S
Cd452 O451 2.203 . S
Cd452 O454 2.411 . S
Cd452 O455 2.333 . S
Cd452 O456 2.352 . S
Cd452 O460 2.277 . S
Cd452 O461 2.356 . S
C453 O458 1.209 . S
C453 O460 1.226 . S
O454 Cd450 2.273 . S
O454 Cd452 2.411 . S
O454 C457 1.320 . S
O455 Cd452 2.333 . S
O455 C457 1.214 . S
O456 Cd452 2.352 . S
O456 C459 1.258 . S
C457 O454 1.320 . S
C457 O455 1.214 . S
O458 Cd450 2.277 . S
O458 C453 1.209 . S
C459 O456 1.258 . S
C459 O461 1.282 . S
O460 Cd452 2.277 . S
O460 C453 1.226 . S
O461 Cd452 2.356 . S
O461 C459 1.282 . S
C462 O463 1.306 . S
C462 O465 1.160 1_554 S
O463 C462 1.306 . S
O463 Cd464 2.228 . S
Cd464 O463 2.228 . S
Cd464 O468 2.273 1_554 S
Cd464 O472 2.277 1_554 S
O465 C462 1.160 1_556 S
O465 Cd466 2.203 . S
Cd466 O465 2.203 . S
Cd466 O468 2.411 . S
Cd466 O469 2.333 . S
Cd466 O470 2.352 . S
Cd466 O474 2.277 . S
Cd466 O475 2.356 . S
C467 O472 1.209 . S
C467 O474 1.226 . S
O468 Cd464 2.273 1_556 S
O468 Cd466 2.411 . S
O468 C471 1.320 . S
O469 Cd466 2.333 . S
O469 C471 1.214 . S
O470 Cd466 2.352 . S
O470 C473 1.258 . S
C471 O468 1.320 . S
C471 O469 1.214 . S
O472 Cd464 2.277 1_556 S
O472 C467 1.209 . S
C473 O470 1.258 . S
C473 O475 1.282 . S
O474 Cd466 2.277 . S
O474 C467 1.226 . S
O475 Cd466 2.356 . S
O475 C473 1.282 . S
C476 O477 1.306 . S
C476 O479 1.160 . S
O477 C476 1.306 . S
O477 Cd478 2.228 . S
Cd478 O477 2.228 . S
Cd478 O482 2.273 . S
Cd478 O486 2.277 . S
O479 C476 1.160 . S
O479 Cd480 2.203 . S
Cd480 O479 2.203 . S
Cd480 O482 2.411 . S
Cd480 O483 2.333 . S
Cd480 O484 2.352 . S
Cd480 O488 2.277 . S
Cd480 O489 2.356 . S
C481 O486 1.209 . S
C481 O488 1.226 . S
O482 Cd478 2.273 . S
O482 Cd480 2.411 . S
O482 C485 1.320 . S
O483 Cd480 2.333 . S
O483 C485 1.214 . S
O484 Cd480 2.352 . S
O484 C487 1.258 . S
C485 O482 1.320 . S
C485 O483 1.214 . S
O486 Cd478 2.277 . S
O486 C481 1.209 . S
C487 O484 1.258 . S
C487 O489 1.282 . S
O488 Cd480 2.277 . S
O488 C481 1.226 . S
O489 Cd480 2.356 . S
O489 C487 1.282 . S
C490 O491 1.306 . S
C490 O493 1.160 . S
O491 C490 1.306 . S
O491 Cd492 2.228 1_655 S
Cd492 O491 2.228 1_455 S
Cd492 O496 2.273 1_455 S
Cd492 O500 2.277 . S
O493 C490 1.160 . S
O493 Cd494 2.203 . S
Cd494 O493 2.203 . S
Cd494 O496 2.411 . S
Cd494 O497 2.333 . S
Cd494 O498 2.352 . S
Cd494 O502 2.277 . S
Cd494 O503 2.356 . S
C495 O500 1.209 . S
C495 O502 1.226 1_455 S
O496 Cd492 2.273 1_655 S
O496 Cd494 2.411 . S
O496 C499 1.320 . S
O497 Cd494 2.333 . S
O497 C499 1.214 . S
O498 Cd494 2.352 . S
O498 C501 1.258 . S
C499 O496 1.320 . S
C499 O497 1.214 . S
O500 Cd492 2.277 . S
O500 C495 1.209 . S
C501 O498 1.258 . S
C501 O503 1.282 . S
O502 Cd494 2.277 . S
O502 C495 1.226 1_655 S
O503 Cd494 2.356 . S
O503 C501 1.282 . S
C504 O505 1.306 . S
C504 O507 1.160 . S
O505 C504 1.306 . S
O505 Cd506 2.228 . S
Cd506 O505 2.228 . S
Cd506 O510 2.273 . S
Cd506 O514 2.277 . S
O507 C504 1.160 . S
O507 Cd508 2.203 . S
Cd508 O507 2.203 . S
Cd508 O510 2.411 . S
Cd508 O511 2.333 . S
Cd508 O512 2.352 . S
Cd508 O516 2.277 . S
Cd508 O517 2.356 . S
C509 O514 1.209 . S
C509 O516 1.226 . S
O510 Cd506 2.273 . S
O510 Cd508 2.411 . S
O510 C513 1.320 . S
O511 Cd508 2.333 . S
O511 C513 1.214 . S
O512 Cd508 2.352 . S
O512 C515 1.258 . S
C513 O510 1.320 . S
C513 O511 1.214 . S
O514 Cd506 2.277 . S
O514 C509 1.209 . S
C515 O512 1.258 . S
C515 O517 1.282 . S
O516 Cd508 2.277 . S
O516 C509 1.226 . S
O517 Cd508 2.356 . S
O517 C515 1.282 . S
C518 O519 1.306 . S
C518 O521 1.160 1_556 S
O519 C518 1.306 . S
O519 Cd520 2.228 1_655 S
Cd520 O519 2.228 1_455 S
Cd520 O524 2.273 1_456 S
Cd520 O528 2.277 1_556 S
O521 C518 1.160 1_554 S
O521 Cd522 2.203 . S
Cd522 O521 2.203 . S
Cd522 O524 2.411 . S
Cd522 O525 2.333 . S
Cd522 O526 2.352 . S
Cd522 O530 2.277 . S
Cd522 O531 2.356 . S
C523 O528 1.209 . S
C523 O530 1.226 1_455 S
O524 Cd520 2.273 1_654 S
O524 Cd522 2.411 . S
O524 C527 1.320 . S
O525 Cd522 2.333 . S
O525 C527 1.214 . S
O526 Cd522 2.352 . S
O526 C529 1.258 . S
C527 O524 1.320 . S
C527 O525 1.214 . S
O528 Cd520 2.277 1_554 S
O528 C523 1.209 . S
C529 O526 1.258 . S
C529 O531 1.282 . S
O530 Cd522 2.277 . S
O530 C523 1.226 1_655 S
O531 Cd522 2.356 . S
O531 C529 1.282 . S
C532 O533 1.306 . S
C532 O535 1.160 . S
O533 C532 1.306 . S
O533 Cd534 2.228 . S
Cd534 O533 2.228 . S
Cd534 O538 2.273 . S
Cd534 O542 2.277 . S
O535 C532 1.160 . S
O535 Cd536 2.203 . S
Cd536 O535 2.203 . S
Cd536 O538 2.411 . S
Cd536 O539 2.333 . S
Cd536 O540 2.352 . S
Cd536 O544 2.277 . S
Cd536 O545 2.356 . S
C537 O542 1.209 . S
C537 O544 1.226 . S
O538 Cd534 2.273 . S
O538 Cd536 2.411 . S
O538 C541 1.320 . S
O539 Cd536 2.333 . S
O539 C541 1.214 . S
O540 Cd536 2.352 . S
O540 C543 1.258 . S
C541 O538 1.320 . S
C541 O539 1.214 . S
O542 Cd534 2.277 . S
O542 C537 1.209 . S
C543 O540 1.258 . S
C543 O545 1.282 . S
O544 Cd536 2.277 . S
O544 C537 1.226 . S
O545 Cd536 2.356 . S
O545 C543 1.282 . S
C546 O547 1.306 . S
C546 O549 1.160 . S
O547 C546 1.306 . S
O547 Cd548 2.228 . S
Cd548 O547 2.228 . S
Cd548 O552 2.273 . S
Cd548 O556 2.277 . S
O549 C546 1.160 . S
O549 Cd550 2.203 . S
Cd550 O549 2.203 . S
Cd550 O552 2.411 . S
Cd550 O553 2.333 . S
Cd550 O554 2.352 . S
Cd550 O558 2.277 . S
Cd550 O559 2.356 . S
C551 O556 1.209 . S
C551 O558 1.226 . S
O552 Cd548 2.273 . S
O552 Cd550 2.411 . S
O552 C555 1.320 . S
O553 Cd550 2.333 . S
O553 C555 1.214 . S
O554 Cd550 2.352 . S
O554 C557 1.258 . S
C555 O552 1.320 . S
C555 O553 1.214 . S
O556 Cd548 2.277 . S
O556 C551 1.209 . S
C557 O554 1.258 . S
C557 O559 1.282 . S
O558 Cd550 2.277 . S
O558 C551 1.226 . S
O559 Cd550 2.356 . S
O559 C557 1.282 . S
C560 O561 1.306 . S
C560 O563 1.160 . S
O561 C560 1.306 . S
O561 Cd562 2.228 . S
Cd562 O561 2.228 . S
Cd562 O566 2.273 . S
Cd562 O570 2.277 . S
O563 C560 1.160 . S
O563 Cd564 2.203 . S
Cd564 O563 2.203 . S
Cd564 O566 2.411 . S
Cd564 O567 2.333 . S
Cd564 O568 2.352 . S
Cd564 O572 2.277 . S
Cd564 O573 2.356 . S
C565 O570 1.209 . S
C565 O572 1.226 . S
O566 Cd562 2.273 . S
O566 Cd564 2.411 . S
O566 C569 1.320 . S
O567 Cd564 2.333 . S
O567 C569 1.214 . S
O568 Cd564 2.352 . S
O568 C571 1.258 . S
C569 O566 1.320 . S
C569 O567 1.214 . S
O570 Cd562 2.277 . S
O570 C565 1.209 . S
C571 O568 1.258 . S
C571 O573 1.282 . S
O572 Cd564 2.277 . S
O572 C565 1.226 . S
O573 Cd564 2.356 . S
O573 C571 1.282 . S
C574 O575 1.306 . S
C574 O577 1.160 . S
O575 C574 1.306 . S
O575 Cd576 2.228 . S
Cd576 O575 2.228 . S
Cd576 O580 2.273 . S
Cd576 O584 2.277 . S
O577 C574 1.160 . S
O577 Cd578 2.203 . S
Cd578 O577 2.203 . S
Cd578 O580 2.411 . S
Cd578 O581 2.333 . S
Cd578 O582 2.352 . S
Cd578 O586 2.277 . S
Cd578 O587 2.356 . S
C579 O584 1.209 . S
C579 O586 1.226 . S
O580 Cd576 2.273 . S
O580 Cd578 2.411 . S
O580 C583 1.320 . S
O581 Cd578 2.333 . S
O581 C583 1.214 . S
O582 Cd578 2.352 . S
O582 C585 1.258 . S
C583 O580 1.320 . S
C583 O581 1.214 . S
O584 Cd576 2.277 . S
O584 C579 1.209 . S
C585 O582 1.258 . S
C585 O587 1.282 . S
O586 Cd578 2.277 . S
O586 C579 1.226 . S
O587 Cd578 2.356 . S
O587 C585 1.282 . S
C588 O589 1.306 . S
C588 O591 1.160 1_545 S
O589 C588 1.306 . S
O589 Cd590 2.228 . S
Cd590 O589 2.228 . S
Cd590 O594 2.273 1_545 S
Cd590 O598 2.277 1_545 S
O591 C588 1.160 1_565 S
O591 Cd592 2.203 . S
Cd592 O591 2.203 . S
Cd592 O594 2.411 . S
Cd592 O595 2.333 . S
Cd592 O596 2.352 . S
Cd592 O600 2.277 . S
Cd592 O601 2.356 . S
C593 O598 1.209 . S
C593 O600 1.226 . S
O594 Cd590 2.273 1_565 S
O594 Cd592 2.411 . S
O594 C597 1.320 . S
O595 Cd592 2.333 . S
O595 C597 1.214 . S
O596 Cd592 2.352 . S
O596 C599 1.258 . S
C597 O594 1.320 . S
C597 O595 1.214 . S
O598 Cd590 2.277 1_565 S
O598 C593 1.209 . S
C599 O596 1.258 . S
C599 O601 1.282 . S
O600 Cd592 2.277 . S
O600 C593 1.226 . S
O601 Cd592 2.356 . S
O601 C599 1.282 . S
C602 O603 1.306 . S
C602 O605 1.160 . S
O603 C602 1.306 . S
O603 Cd604 2.228 . S
Cd604 O603 2.228 . S
Cd604 O608 2.273 . S
Cd604 O612 2.277 . S
O605 C602 1.160 . S
O605 Cd606 2.203 . S
Cd606 O605 2.203 . S
Cd606 O608 2.411 . S
Cd606 O609 2.333 . S
Cd606 O610 2.352 . S
Cd606 O614 2.277 . S
Cd606 O615 2.356 . S
C607 O612 1.209 . S
C607 O614 1.226 . S
O608 Cd604 2.273 . S
O608 Cd606 2.411 . S
O608 C611 1.320 . S
O609 Cd606 2.333 . S
O609 C611 1.214 . S
O610 Cd606 2.352 . S
O610 C613 1.258 . S
C611 O608 1.320 . S
C611 O609 1.214 . S
O612 Cd604 2.277 . S
O612 C607 1.209 . S
C613 O610 1.258 . S
C613 O615 1.282 . S
O614 Cd606 2.277 . S
O614 C607 1.226 . S
O615 Cd606 2.356 . S
O615 C613 1.282 . S
C616 O617 1.306 . S
C616 O619 1.160 . S
O617 C616 1.306 . S
O617 Cd618 2.228 . S
Cd618 O617 2.228 . S
Cd618 O622 2.273 . S
Cd618 O626 2.277 . S
O619 C616 1.160 . S
O619 Cd620 2.203 . S
Cd620 O619 2.203 . S
Cd620 O622 2.411 . S
Cd620 O623 2.333 . S
Cd620 O624 2.352 . S
Cd620 O628 2.277 . S
Cd620 O629 2.356 . S
C621 O626 1.209 . S
C621 O628 1.226 . S
O622 Cd618 2.273 . S
O622 Cd620 2.411 . S
O622 C625 1.320 . S
O623 Cd620 2.333 . S
O623 C625 1.214 . S
O624 Cd620 2.352 . S
O624 C627 1.258 . S
C625 O622 1.320 . S
C625 O623 1.214 . S
O626 Cd618 2.277 . S
O626 C621 1.209 . S
C627 O624 1.258 . S
C627 O629 1.282 . S
O628 Cd620 2.277 . S
O628 C621 1.226 . S
O629 Cd620 2.356 . S
O629 C627 1.282 . S
C630 O631 1.306 . S
C630 O633 1.160 . S
O631 C630 1.306 . S
O631 Cd632 2.228 . S
Cd632 O631 2.228 . S
Cd632 O636 2.273 . S
Cd632 O640 2.277 . S
O633 C630 1.160 . S
O633 Cd634 2.203 . S
Cd634 O633 2.203 . S
Cd634 O636 2.411 . S
Cd634 O637 2.333 . S
Cd634 O638 2.352 . S
Cd634 O642 2.277 . S
Cd634 O643 2.356 . S
C635 O640 1.209 . S
C635 O642 1.226 . S
O636 Cd632 2.273 . S
O636 Cd634 2.411 . S
O636 C639 1.320 . S
O637 Cd634 2.333 . S
O637 C639 1.214 . S
O638 Cd634 2.352 . S
O638 C641 1.258 . S
C639 O636 1.320 . S
C639 O637 1.214 . S
O640 Cd632 2.277 . S
O640 C635 1.209 . S
C641 O638 1.258 . S
C641 O643 1.282 . S
O642 Cd634 2.277 . S
O642 C635 1.226 . S
O643 Cd634 2.356 . S
O643 C641 1.282 . S
C644 O645 1.306 . S
C644 O647 1.160 1_565 S
O645 C644 1.306 . S
O645 Cd646 2.228 1_556 S
Cd646 O645 2.228 1_554 S
Cd646 O650 2.273 1_564 S
Cd646 O654 2.277 1_565 S
O647 C644 1.160 1_545 S
O647 Cd648 2.203 . S
Cd648 O647 2.203 . S
Cd648 O650 2.411 . S
Cd648 O651 2.333 . S
Cd648 O652 2.352 . S
Cd648 O656 2.277 . S
Cd648 O657 2.356 . S
C649 O654 1.209 . S
C649 O656 1.226 1_554 S
O650 Cd646 2.273 1_546 S
O650 Cd648 2.411 . S
O650 C653 1.320 . S
O651 Cd648 2.333 . S
O651 C653 1.214 . S
O652 Cd648 2.352 . S
O652 C655 1.258 . S
C653 O650 1.320 . S
C653 O651 1.214 . S
O654 Cd646 2.277 1_545 S
O654 C649 1.209 . S
C655 O652 1.258 . S
C655 O657 1.282 . S
O656 Cd648 2.277 . S
O656 C649 1.226 1_556 S
O657 Cd648 2.356 . S
O657 C655 1.282 . S
C658 O659 1.306 . S
C658 O661 1.160 1_545 S
O659 C658 1.306 . S
O659 Cd660 2.228 . S
Cd660 O659 2.228 . S
Cd660 O664 2.273 1_545 S
Cd660 O668 2.277 1_545 S
O661 C658 1.160 1_565 S
O661 Cd662 2.203 . S
Cd662 O661 2.203 . S
Cd662 O664 2.411 . S
Cd662 O665 2.333 . S
Cd662 O666 2.352 . S
Cd662 O670 2.277 . S
Cd662 O671 2.356 . S
C663 O668 1.209 . S
C663 O670 1.226 . S
O664 Cd660 2.273 1_565 S
O664 Cd662 2.411 . S
O664 C667 1.320 . S
O665 Cd662 2.333 . S
O665 C667 1.214 . S
O666 Cd662 2.352 . S
O666 C669 1.258 . S
C667 O664 1.320 . S
C667 O665 1.214 . S
O668 Cd660 2.277 1_565 S
O668 C663 1.209 . S
C669 O666 1.258 . S
C669 O671 1.282 . S
O670 Cd662 2.277 . S
O670 C663 1.226 . S
O671 Cd662 2.356 . S
O671 C669 1.282 . S
H672 C680 0.950 . S
H673 C685 0.950 . S
H674 C682 0.950 . S
H675 C684 0.950 . S
H676 C686 0.950 . S
H677 C688 0.950 . S
H678 C690 0.950 . S
H679 C691 0.950 . S
C680 H672 0.950 . S
C680 C681 1.386 . S
C680 C682 1.391 . S
C681 C680 1.386 . S
C681 C685 1.393 . S
C682 H674 0.950 . S
C682 C680 1.391 . S
C682 C683 1.400 . S
C683 C682 1.400 . S
C683 C684 1.398 . S
C683 C689 1.491 . S
C684 H675 0.950 . S
C684 C683 1.398 . S
C684 C685 1.391 . S
C685 H673 0.950 . S
C685 C681 1.393 . S
C685 C684 1.391 . S
C686 H676 0.950 . S
C686 C687 1.386 . S
C686 C688 1.391 . S
C687 C686 1.386 . S
C687 C691 1.393 . S
C688 H677 0.950 . S
C688 C686 1.391 . S
C688 C689 1.400 . S
C689 C683 1.491 . S
C689 C688 1.400 . S
C689 C690 1.398 . S
C690 H678 0.950 . S
C690 C689 1.398 . S
C690 C691 1.391 . S
C691 H679 0.950 . S
C691 C687 1.393 . S
C691 C690 1.391 . S
H692 C700 0.950 . S
H693 C705 0.950 . S
H694 C702 0.950 . S
H695 C704 0.950 . S
H696 C706 0.950 . S
H697 C708 0.950 . S
H698 C710 0.950 . S
H699 C711 0.950 . S
C700 H692 0.950 . S
C700 C701 1.386 1_545 S
C700 C702 1.391 . S
C701 C700 1.386 1_565 S
C701 C705 1.393 . S
C702 H694 0.950 . S
C702 C700 1.391 . S
C702 C703 1.357 1_545 S
C703 C702 1.357 1_565 S
C703 C704 1.447 . S
C703 C709 1.486 1_565 S
C704 H695 0.950 . S
C704 C703 1.447 . S
C704 C705 1.391 . S
C705 H693 0.950 . S
C705 C701 1.393 . S
C705 C704 1.391 . S
C706 H696 0.950 . S
C706 C707 1.386 1_565 S
C706 C708 1.391 . S
C707 C706 1.386 1_545 S
C707 C711 1.393 . S
C708 H697 0.950 . S
C708 C706 1.391 . S
C708 C709 1.357 1_565 S
C709 C703 1.486 1_545 S
C709 C708 1.357 1_545 S
C709 C710 1.447 . S
C710 H698 0.950 . S
C710 C709 1.447 . S
C710 C711 1.391 . S
C711 H699 0.950 . S
C711 C707 1.393 . S
C711 C710 1.391 . S
H712 C720 0.950 . S
H713 C725 0.950 . S
H714 C722 0.950 . S
H715 C724 0.950 . S
H716 C726 0.950 . S
H717 C728 0.950 . S
H718 C730 0.950 . S
H719 C731 0.950 . S
C720 H712 0.950 . S
C720 C721 1.386 . S
C720 C722 1.391 . S
C721 C720 1.386 . S
C721 C725 1.393 . S
C722 H714 0.950 . S
C722 C720 1.391 . S
C722 C723 1.400 . S
C723 C722 1.400 . S
C723 C724 1.398 . S
C723 C729 1.491 1_556 S
C724 H715 0.950 . S
C724 C723 1.398 . S
C724 C725 1.391 . S
C725 H713 0.950 . S
C725 C721 1.393 . S
C725 C724 1.391 . S
C726 H716 0.950 . S
C726 C727 1.386 . S
C726 C728 1.391 . S
C727 C726 1.386 . S
C727 C731 1.393 . S
C728 H717 0.950 . S
C728 C726 1.391 . S
C728 C729 1.400 . S
C729 C723 1.491 1_554 S
C729 C728 1.400 . S
C729 C730 1.398 . S
C730 H718 0.950 . S
C730 C729 1.398 . S
C730 C731 1.391 . S
C731 H719 0.950 . S
C731 C727 1.393 . S
C731 C730 1.391 . S
H732 C740 0.950 . S
H733 C745 0.950 . S
H734 C742 0.950 . S
H735 C744 0.950 . S
H736 C746 0.950 . S
H737 C748 0.950 . S
H738 C750 0.950 . S
H739 C751 0.950 . S
C740 H732 0.950 . S
C740 C741 1.386 1_545 S
C740 C742 1.391 . S
C741 C740 1.386 1_565 S
C741 C745 1.393 . S
C742 H734 0.950 . S
C742 C740 1.391 . S
C742 C743 1.400 1_545 S
C743 C742 1.400 1_565 S
C743 C744 1.398 . S
C743 C749 1.491 1_565 S
C744 H735 0.950 . S
C744 C743 1.398 . S
C744 C745 1.391 . S
C745 H733 0.950 . S
C745 C741 1.393 . S
C745 C744 1.391 . S
C746 H736 0.950 . S
C746 C747 1.386 1_565 S
C746 C748 1.391 . S
C747 C746 1.386 1_545 S
C747 C751 1.393 . S
C748 H737 0.950 . S
C748 C746 1.391 . S
C748 C749 1.400 1_565 S
C749 C743 1.491 1_545 S
C749 C748 1.400 1_545 S
C749 C750 1.398 . S
C750 H738 0.950 . S
C750 C749 1.398 . S
C750 C751 1.391 . S
C751 H739 0.950 . S
C751 C747 1.393 . S
C751 C750 1.391 . S
H752 C760 0.950 . S
H753 C765 0.950 . S
H754 C762 0.950 . S
H755 C764 0.950 . S
H756 C766 0.950 . S
H757 C768 0.950 . S
H758 C770 0.950 . S
H759 C771 0.950 . S
C760 H752 0.950 . S
C760 C761 1.386 . S
C760 C762 1.391 . S
C761 C760 1.386 . S
C761 C765 1.393 . S
C762 H754 0.950 . S
C762 C760 1.391 . S
C762 C763 1.400 . S
C763 C762 1.400 . S
C763 C764 1.398 . S
C763 C769 1.491 . S
C764 H755 0.950 . S
C764 C763 1.398 . S
C764 C765 1.391 . S
C765 H753 0.950 . S
C765 C761 1.393 . S
C765 C764 1.391 . S
C766 H756 0.950 . S
C766 C767 1.386 . S
C766 C768 1.391 . S
C767 C766 1.386 . S
C767 C771 1.393 . S
C768 H757 0.950 . S
C768 C766 1.391 . S
C768 C769 1.400 . S
C769 C763 1.491 . S
C769 C768 1.400 . S
C769 C770 1.398 . S
C770 H758 0.950 . S
C770 C769 1.398 . S
C770 C771 1.391 . S
C771 H759 0.950 . S
C771 C767 1.393 . S
C771 C770 1.391 . S
H772 C780 0.950 . S
H773 C785 0.950 . S
H774 C782 0.950 . S
H775 C784 0.950 . S
H776 C786 0.950 . S
H777 C788 0.950 . S
H778 C790 0.950 . S
H779 C791 0.950 . S
C780 H772 0.950 . S
C780 C781 1.386 1_455 S
C780 C782 1.391 . S
C781 C780 1.386 1_655 S
C781 C785 1.393 . S
C782 H774 0.950 . S
C782 C780 1.391 . S
C782 C783 1.400 1_455 S
C783 C782 1.400 1_655 S
C783 C784 1.398 . S
C783 C789 1.491 1_655 S
C784 H775 0.950 . S
C784 C783 1.398 . S
C784 C785 1.391 . S
C785 H773 0.950 . S
C785 C781 1.393 . S
C785 C784 1.391 . S
C786 H776 0.950 . S
C786 C787 1.386 1_655 S
C786 C788 1.391 . S
C787 C786 1.386 1_455 S
C787 C791 1.393 . S
C788 H777 0.950 . S
C788 C786 1.391 . S
C788 C789 1.400 1_655 S
C789 C783 1.491 1_455 S
C789 C788 1.400 1_455 S
C789 C790 1.398 . S
C790 H778 0.950 . S
C790 C789 1.398 . S
C790 C791 1.391 . S
C791 H779 0.950 . S
C791 C787 1.393 . S
C791 C790 1.391 . S
H792 C800 0.950 . S
H793 C805 0.950 . S
H794 C802 0.950 . S
H795 C804 0.950 . S
H796 C806 0.950 . S
H797 C808 0.950 . S
H798 C810 0.950 . S
H799 C811 0.950 . S
C800 H792 0.950 . S
C800 C801 1.386 . S
C800 C802 1.391 . S
C801 C800 1.386 . S
C801 C805 1.393 . S
C802 H794 0.950 . S
C802 C800 1.391 . S
C802 C803 1.400 . S
C803 C802 1.400 . S
C803 C804 1.398 . S
C803 C809 1.491 1_455 S
C804 H795 0.950 . S
C804 C803 1.398 . S
C804 C805 1.391 . S
C805 H793 0.950 . S
C805 C801 1.393 . S
C805 C804 1.391 . S
C806 H796 0.950 . S
C806 C807 1.386 . S
C806 C808 1.391 . S
C807 C806 1.386 . S
C807 C811 1.393 . S
C808 H797 0.950 . S
C808 C806 1.391 . S
C808 C809 1.400 . S
C809 C803 1.491 1_655 S
C809 C808 1.400 . S
C809 C810 1.398 . S
C810 H798 0.950 . S
C810 C809 1.398 . S
C810 C811 1.391 . S
C811 H799 0.950 . S
C811 C807 1.393 . S
C811 C810 1.391 . S
H812 C820 0.950 1_554 S
H813 C825 0.950 . S
H814 C822 0.950 1_554 S
H815 C824 0.950 . S
H816 C826 0.950 . S
H817 C828 0.950 . S
H818 C830 0.950 1_554 S
H819 C831 0.950 1_554 S
C820 H812 0.950 1_556 S
C820 C821 1.386 . S
C820 C822 1.391 . S
C821 C820 1.386 . S
C821 C825 1.393 . S
C822 H814 0.950 1_556 S
C822 C820 1.391 . S
C822 C823 1.400 . S
C823 C822 1.400 . S
C823 C824 1.398 . S
C823 C829 1.491 . S
C824 H815 0.950 . S
C824 C823 1.398 . S
C824 C825 1.391 . S
C825 H813 0.950 . S
C825 C821 1.393 . S
C825 C824 1.391 . S
C826 H816 0.950 . S
C826 C827 1.386 . S
C826 C828 1.391 . S
C827 C826 1.386 . S
C827 C831 1.393 . S
C828 H817 0.950 . S
C828 C826 1.391 . S
C828 C829 1.400 . S
C829 C823 1.491 . S
C829 C828 1.400 . S
C829 C830 1.398 . S
C830 H818 0.950 1_556 S
C830 C829 1.398 . S
C830 C831 1.391 . S
C831 H819 0.950 1_556 S
C831 C827 1.393 . S
C831 C830 1.391 . S
H832 C840 0.950 . S
H833 C845 0.950 . S
H834 C842 0.950 . S
H835 C844 0.950 . S
H836 C846 0.950 . S
H837 C848 0.950 . S
H838 C850 0.950 . S
H839 C851 0.950 . S
C840 H832 0.950 . S
C840 C841 1.386 . S
C840 C842 1.391 . S
C841 C840 1.386 . S
C841 C845 1.393 . S
C842 H834 0.950 . S
C842 C840 1.391 . S
C842 C843 1.400 . S
C843 C842 1.400 . S
C843 C844 1.398 . S
C843 C849 1.491 . S
C844 H835 0.950 . S
C844 C843 1.398 . S
C844 C845 1.391 . S
C845 H833 0.950 . S
C845 C841 1.393 . S
C845 C844 1.391 . S
C846 H836 0.950 . S
C846 C847 1.386 . S
C846 C848 1.391 . S
C847 C846 1.386 . S
C847 C851 1.393 . S
C848 H837 0.950 . S
C848 C846 1.391 . S
C848 C849 1.400 . S
C849 C843 1.491 . S
C849 C848 1.400 . S
C849 C850 1.398 . S
C850 H838 0.950 . S
C850 C849 1.398 . S
C850 C851 1.391 . S
C851 H839 0.950 . S
C851 C847 1.393 . S
C851 C850 1.391 . S
H852 C860 0.950 . S
H853 C865 0.950 . S
H854 C862 0.950 . S
H855 C864 0.950 . S
H856 C866 0.950 . S
H857 C868 0.950 . S
H858 C870 0.950 . S
H859 C871 0.950 . S
C860 H852 0.950 . S
C860 C861 1.386 . S
C860 C862 1.391 . S
C861 C860 1.386 . S
C861 C865 1.393 . S
C862 H854 0.950 . S
C862 C860 1.391 . S
C862 C863 1.400 . S
C863 C862 1.400 . S
C863 C864 1.398 . S
C863 C869 1.491 . S
C864 H855 0.950 . S
C864 C863 1.398 . S
C864 C865 1.391 . S
C865 H853 0.950 . S
C865 C861 1.393 . S
C865 C864 1.391 . S
C866 H856 0.950 . S
C866 C867 1.386 . S
C866 C868 1.391 . S
C867 C866 1.386 . S
C867 C871 1.393 . S
C868 H857 0.950 . S
C868 C866 1.391 . S
C868 C869 1.400 . S
C869 C863 1.491 . S
C869 C868 1.400 . S
C869 C870 1.398 . S
C870 H858 0.950 . S
C870 C869 1.398 . S
C870 C871 1.391 . S
C871 H859 0.950 . S
C871 C867 1.393 . S
C871 C870 1.391 . S
H872 C880 0.950 . S
H873 C885 0.950 . S
H874 C882 0.950 . S
H875 C884 0.950 . S
H876 C886 0.950 . S
H877 C888 0.950 . S
H878 C890 0.950 . S
H879 C891 0.950 . S
C880 H872 0.950 . S
C880 C881 1.386 . S
C880 C882 1.391 . S
C881 C880 1.386 . S
C881 C885 1.393 . S
C882 H874 0.950 . S
C882 C880 1.391 . S
C882 C883 1.400 . S
C883 C882 1.400 . S
C883 C884 1.398 . S
C883 C889 1.491 1_655 S
C884 H875 0.950 . S
C884 C883 1.398 . S
C884 C885 1.391 . S
C885 H873 0.950 . S
C885 C881 1.393 . S
C885 C884 1.391 . S
C886 H876 0.950 . S
C886 C887 1.386 . S
C886 C888 1.391 . S
C887 C886 1.386 . S
C887 C891 1.393 . S
C888 H877 0.950 . S
C888 C886 1.391 . S
C888 C889 1.400 . S
C889 C883 1.491 1_455 S
C889 C888 1.400 . S
C889 C890 1.398 . S
C890 H878 0.950 . S
C890 C889 1.398 . S
C890 C891 1.391 . S
C891 H879 0.950 . S
C891 C887 1.393 . S
C891 C890 1.391 . S
H892 C900 0.950 . S
H893 C905 0.950 . S
H894 C902 0.950 . S
H895 C904 0.950 . S
H896 C906 0.950 . S
H897 C908 0.950 . S
H898 C910 0.950 . S
H899 C911 0.950 . S
C900 H892 0.950 . S
C900 C901 1.386 1_455 S
C900 C902 1.391 . S
C901 C900 1.386 1_655 S
C901 C905 1.393 . S
C902 H894 0.950 . S
C902 C900 1.391 . S
C902 C903 1.361 1_455 S
C903 C902 1.361 1_655 S
C903 C904 1.442 . S
C903 C909 1.487 1_655 S
C904 H895 0.950 . S
C904 C903 1.442 . S
C904 C905 1.391 . S
C905 H893 0.950 . S
C905 C901 1.393 . S
C905 C904 1.391 . S
C906 H896 0.950 . S
C906 C907 1.386 1_655 S
C906 C908 1.391 . S
C907 C906 1.386 1_455 S
C907 C911 1.393 . S
C908 H897 0.950 . S
C908 C906 1.391 . S
C908 C909 1.361 1_655 S
C909 C903 1.487 1_455 S
C909 C908 1.361 1_455 S
C909 C910 1.442 . S
C910 H898 0.950 . S
C910 C909 1.442 . S
C910 C911 1.391 . S
C911 H899 0.950 . S
C911 C907 1.393 . S
C911 C910 1.391 . S
H912 C920 0.950 . S
H913 C925 0.950 . S
H914 C922 0.950 . S
H915 C924 0.950 . S
H916 C926 0.950 . S
H917 C928 0.950 . S
H918 C930 0.950 . S
H919 C931 0.950 . S
C920 H912 0.950 . S
C920 C921 1.386 . S
C920 C922 1.391 . S
C921 C920 1.386 . S
C921 C925 1.393 . S
C922 H914 0.950 . S
C922 C920 1.391 . S
C922 C923 1.400 . S
C923 C922 1.400 . S
C923 C924 1.398 . S
C923 C929 1.491 . S
C924 H915 0.950 . S
C924 C923 1.398 . S
C924 C925 1.391 . S
C925 H913 0.950 . S
C925 C921 1.393 . S
C925 C924 1.391 . S
C926 H916 0.950 . S
C926 C927 1.386 . S
C926 C928 1.391 . S
C927 C926 1.386 . S
C927 C931 1.393 . S
C928 H917 0.950 . S
C928 C926 1.391 . S
C928 C929 1.400 . S
C929 C923 1.491 . S
C929 C928 1.400 . S
C929 C930 1.398 . S
C930 H918 0.950 . S
C930 C929 1.398 . S
C930 C931 1.391 . S
C931 H919 0.950 . S
C931 C927 1.393 . S
C931 C930 1.391 . S
H932 C940 0.950 . S
H933 C945 0.950 . S
H934 C942 0.950 . S
H935 C944 0.950 . S
H936 C946 0.950 . S
H937 C948 0.950 . S
H938 C950 0.950 . S
H939 C951 0.950 . S
C940 H932 0.950 . S
C940 C941 1.386 . S
C940 C942 1.391 . S
C941 C940 1.386 . S
C941 C945 1.393 . S
C942 H934 0.950 . S
C942 C940 1.391 . S
C942 C943 1.400 . S
C943 C942 1.400 . S
C943 C944 1.398 . S
C943 C949 1.491 1_545 S
C944 H935 0.950 . S
C944 C943 1.398 . S
C944 C945 1.391 . S
C945 H933 0.950 . S
C945 C941 1.393 . S
C945 C944 1.391 . S
C946 H936 0.950 . S
C946 C947 1.386 . S
C946 C948 1.391 . S
C947 C946 1.386 . S
C947 C951 1.393 . S
C948 H937 0.950 . S
C948 C946 1.391 . S
C948 C949 1.400 . S
C949 C943 1.491 1_565 S
C949 C948 1.400 . S
C949 C950 1.398 . S
C950 H938 0.950 . S
C950 C949 1.398 . S
C950 C951 1.391 . S
C951 H939 0.950 . S
C951 C947 1.393 . S
C951 C950 1.391 . S
H952 C960 0.950 . S
H953 C965 0.950 . S
H954 C962 0.950 . S
H955 C964 0.950 . S
H956 C966 0.950 . S
H957 C968 0.950 . S
H958 C970 0.950 . S
H959 C971 0.950 . S
C960 H952 0.950 . S
C960 C961 1.386 1_556 S
C960 C962 1.391 . S
C961 C960 1.386 1_554 S
C961 C965 1.393 . S
C962 H954 0.950 . S
C962 C960 1.391 . S
C962 C963 1.400 1_556 S
C963 C962 1.400 1_554 S
C963 C964 1.398 . S
C963 C969 1.491 1_554 S
C964 H955 0.950 . S
C964 C963 1.398 . S
C964 C965 1.391 . S
C965 H953 0.950 . S
C965 C961 1.393 . S
C965 C964 1.391 . S
C966 H956 0.950 . S
C966 C967 1.386 1_554 S
C966 C968 1.391 . S
C967 C966 1.386 1_556 S
C967 C971 1.393 . S
C968 H957 0.950 . S
C968 C966 1.391 . S
C968 C969 1.400 1_554 S
C969 C963 1.491 1_556 S
C969 C968 1.400 1_556 S
C969 C970 1.398 . S
C970 H958 0.950 . S
C970 C969 1.398 . S
C970 C971 1.391 . S
C971 H959 0.950 . S
C971 C967 1.393 . S
C971 C970 1.391 . S
H972 C980 0.950 . S
H973 C985 0.950 . S
H974 C982 0.950 . S
H975 C984 0.950 . S
H976 C986 0.950 . S
H977 C988 0.950 . S
H978 C990 0.950 . S
H979 C991 0.950 . S
C980 H972 0.950 . S
C980 C981 1.386 . S
C980 C982 1.391 . S
C981 C980 1.386 . S
C981 C985 1.393 . S
C982 H974 0.950 . S
C982 C980 1.391 . S
C982 C983 1.400 . S
C983 C982 1.400 . S
C983 C984 1.398 . S
C983 C989 1.491 1_545 S
C984 H975 0.950 . S
C984 C983 1.398 . S
C984 C985 1.391 . S
C985 H973 0.950 . S
C985 C981 1.393 . S
C985 C984 1.391 . S
C986 H976 0.950 . S
C986 C987 1.386 . S
C986 C988 1.391 . S
C987 C986 1.386 . S
C987 C991 1.393 . S
C988 H977 0.950 . S
C988 C986 1.391 . S
C988 C989 1.400 . S
C989 C983 1.491 1_565 S
C989 C988 1.400 . S
C989 C990 1.398 . S
C990 H978 0.950 . S
C990 C989 1.398 . S
C990 C991 1.391 . S
C991 H979 0.950 . S
C991 C987 1.393 . S
C991 C990 1.391 . S
H992 C1000 0.950 . S
H993 C1005 0.950 . S
H994 C1002 0.950 . S
H995 C1004 0.950 . S
H996 C1006 0.950 . S
H997 C1008 0.950 . S
H998 C1010 0.950 . S
H999 C1011 0.950 . S
C1000 H992 0.950 . S
C1000 C1001 1.386 1_554 S
C1000 C1002 1.391 . S
C1001 C1000 1.386 1_556 S
C1001 C1005 1.393 . S
C1002 H994 0.950 . S
C1002 C1000 1.391 . S
C1002 C1003 1.400 1_554 S
C1003 C1002 1.400 1_556 S
C1003 C1004 1.398 . S
C1003 C1009 1.491 1_556 S
C1004 H995 0.950 . S
C1004 C1003 1.398 . S
C1004 C1005 1.391 . S
C1005 H993 0.950 . S
C1005 C1001 1.393 . S
C1005 C1004 1.391 . S
C1006 H996 0.950 . S
C1006 C1007 1.386 1_556 S
C1006 C1008 1.391 . S
C1007 C1006 1.386 1_554 S
C1007 C1011 1.393 . S
C1008 H997 0.950 . S
C1008 C1006 1.391 . S
C1008 C1009 1.400 1_556 S
C1009 C1003 1.491 1_554 S
C1009 C1008 1.400 1_554 S
C1009 C1010 1.398 . S
C1010 H998 0.950 . S
C1010 C1009 1.398 . S
C1010 C1011 1.391 . S
C1011 H999 0.950 . S
C1011 C1007 1.393 . S
C1011 C1010 1.391 . S
H1012 C1020 0.950 . S
H1013 C1025 0.950 . S
H1014 C1022 0.950 . S
H1015 C1024 0.950 . S
H1016 C1026 0.950 . S
H1017 C1028 0.950 . S
H1018 C1030 0.950 . S
H1019 C1031 0.950 . S
C1020 H1012 0.950 . S
C1020 C1021 1.386 . S
C1020 C1022 1.391 . S
C1021 C1020 1.386 . S
C1021 C1025 1.393 . S
C1022 H1014 0.950 . S
C1022 C1020 1.391 . S
C1022 C1023 1.400 . S
C1023 C1022 1.400 . S
C1023 C1024 1.398 . S
C1023 C1029 1.491 . S
C1024 H1015 0.950 . S
C1024 C1023 1.398 . S
C1024 C1025 1.391 . S
C1025 H1013 0.950 . S
C1025 C1021 1.393 . S
C1025 C1024 1.391 . S
C1026 H1016 0.950 . S
C1026 C1027 1.386 . S
C1026 C1028 1.391 . S
C1027 C1026 1.386 . S
C1027 C1031 1.393 . S
C1028 H1017 0.950 . S
C1028 C1026 1.391 . S
C1028 C1029 1.400 . S
C1029 C1023 1.491 . S
C1029 C1028 1.400 . S
C1029 C1030 1.398 . S
C1030 H1018 0.950 . S
C1030 C1029 1.398 . S
C1030 C1031 1.391 . S
C1031 H1019 0.950 . S
C1031 C1027 1.393 . S
C1031 C1030 1.391 . S
H1032 C1040 0.950 . S
H1033 C1045 0.950 . S
H1034 C1042 0.950 . S
H1035 C1044 0.950 . S
H1036 C1046 0.950 . S
H1037 C1048 0.950 . S
H1038 C1050 0.950 . S
H1039 C1051 0.950 . S
C1040 H1032 0.950 . S
C1040 C1041 1.386 . S
C1040 C1042 1.391 . S
C1041 C1040 1.386 . S
C1041 C1045 1.393 . S
C1042 H1034 0.950 . S
C1042 C1040 1.391 . S
C1042 C1043 1.400 . S
C1043 C1042 1.400 . S
C1043 C1044 1.398 . S
C1043 C1049 1.491 . S
C1044 H1035 0.950 . S
C1044 C1043 1.398 . S
C1044 C1045 1.391 . S
C1045 H1033 0.950 . S
C1045 C1041 1.393 . S
C1045 C1044 1.391 . S
C1046 H1036 0.950 . S
C1046 C1047 1.386 . S
C1046 C1048 1.391 . S
C1047 C1046 1.386 . S
C1047 C1051 1.393 . S
C1048 H1037 0.950 . S
C1048 C1046 1.391 . S
C1048 C1049 1.400 . S
C1049 C1043 1.491 . S
C1049 C1048 1.400 . S
C1049 C1050 1.398 . S
C1050 H1038 0.950 . S
C1050 C1049 1.398 . S
C1050 C1051 1.391 . S
C1051 H1039 0.950 . S
C1051 C1047 1.393 . S
C1051 C1050 1.391 . S
H1052 C1060 0.950 . S
H1053 C1065 0.950 . S
H1054 C1062 0.950 . S
H1055 C1064 0.950 . S
H1056 C1066 0.950 . S
H1057 C1068 0.950 . S
H1058 C1070 0.950 . S
H1059 C1071 0.950 . S
C1060 H1052 0.950 . S
C1060 C1061 1.386 . S
C1060 C1062 1.391 . S
C1061 C1060 1.386 . S
C1061 C1065 1.393 . S
C1062 H1054 0.950 . S
C1062 C1060 1.391 . S
C1062 C1063 1.400 . S
C1063 C1062 1.400 . S
C1063 C1064 1.398 . S
C1063 C1069 1.491 1_554 S
C1064 H1055 0.950 . S
C1064 C1063 1.398 . S
C1064 C1065 1.391 . S
C1065 H1053 0.950 . S
C1065 C1061 1.393 . S
C1065 C1064 1.391 . S
C1066 H1056 0.950 . S
C1066 C1067 1.386 . S
C1066 C1068 1.391 . S
C1067 C1066 1.386 . S
C1067 C1071 1.393 . S
C1068 H1057 0.950 . S
C1068 C1066 1.391 . S
C1068 C1069 1.400 . S
C1069 C1063 1.491 1_556 S
C1069 C1068 1.400 . S
C1069 C1070 1.398 . S
C1070 H1058 0.950 . S
C1070 C1069 1.398 . S
C1070 C1071 1.391 . S
C1071 H1059 0.950 . S
C1071 C1067 1.393 . S
C1071 C1070 1.391 . S
H1072 C1080 0.950 . S
H1073 C1085 0.950 . S
H1074 C1082 0.950 . S
H1075 C1084 0.950 . S
H1076 C1086 0.950 . S
H1077 C1088 0.950 . S
H1078 C1090 0.950 . S
H1079 C1091 0.950 . S
C1080 H1072 0.950 . S
C1080 C1081 1.386 . S
C1080 C1082 1.391 . S
C1081 C1080 1.386 . S
C1081 C1085 1.393 . S
C1082 H1074 0.950 . S
C1082 C1080 1.391 . S
C1082 C1083 1.400 . S
C1083 C1082 1.400 . S
C1083 C1084 1.398 . S
C1083 C1089 1.491 . S
C1084 H1075 0.950 . S
C1084 C1083 1.398 . S
C1084 C1085 1.391 . S
C1085 H1073 0.950 . S
C1085 C1081 1.393 . S
C1085 C1084 1.391 . S
C1086 H1076 0.950 . S
C1086 C1087 1.386 . S
C1086 C1088 1.391 . S
C1087 C1086 1.386 . S
C1087 C1091 1.393 . S
C1088 H1077 0.950 . S
C1088 C1086 1.391 . S
C1088 C1089 1.400 . S
C1089 C1083 1.491 . S
C1089 C1088 1.400 . S
C1089 C1090 1.398 . S
C1090 H1078 0.950 . S
C1090 C1089 1.398 . S
C1090 C1091 1.391 . S
C1091 H1079 0.950 . S
C1091 C1087 1.393 . S
C1091 C1090 1.391 . S
H1092 C1100 0.950 . S
H1093 C1105 0.950 . S
H1094 C1102 0.950 . S
H1095 C1104 0.950 . S
H1096 C1106 0.950 . S
H1097 C1108 0.950 . S
H1098 C1110 0.950 . S
H1099 C1111 0.950 . S
C1100 H1092 0.950 . S
C1100 C1101 1.386 . S
C1100 C1102 1.391 . S
C1101 C1100 1.386 . S
C1101 C1105 1.393 . S
C1102 H1094 0.950 . S
C1102 C1100 1.391 . S
C1102 C1103 1.400 . S
C1103 C1102 1.400 . S
C1103 C1104 1.398 . S
C1103 C1109 1.491 . S
C1104 H1095 0.950 . S
C1104 C1103 1.398 . S
C1104 C1105 1.391 . S
C1105 H1093 0.950 . S
C1105 C1101 1.393 . S
C1105 C1104 1.391 . S
C1106 H1096 0.950 . S
C1106 C1107 1.386 . S
C1106 C1108 1.391 . S
C1107 C1106 1.386 . S
C1107 C1111 1.393 . S
C1108 H1097 0.950 . S
C1108 C1106 1.391 . S
C1108 C1109 1.400 . S
C1109 C1103 1.491 . S
C1109 C1108 1.400 . S
C1109 C1110 1.398 . S
C1110 H1098 0.950 . S
C1110 C1109 1.398 . S
C1110 C1111 1.391 . S
C1111 H1099 0.950 . S
C1111 C1107 1.393 . S
C1111 C1110 1.391 . S
H1112 C1120 0.950 . S
H1113 C1125 0.950 . S
H1114 C1122 0.950 . S
H1115 C1124 0.950 . S
H1116 C1126 0.950 . S
H1117 C1128 0.950 . S
H1118 C1130 0.950 . S
H1119 C1131 0.950 . S
C1120 H1112 0.950 . S
C1120 C1121 1.386 . S
C1120 C1122 1.391 . S
C1121 C1120 1.386 . S
C1121 C1125 1.393 . S
C1122 H1114 0.950 . S
C1122 C1120 1.391 . S
C1122 C1123 1.400 . S
C1123 C1122 1.400 . S
C1123 C1124 1.398 . S
C1123 C1129 1.491 . S
C1124 H1115 0.950 . S
C1124 C1123 1.398 . S
C1124 C1125 1.391 . S
C1125 H1113 0.950 . S
C1125 C1121 1.393 . S
C1125 C1124 1.391 . S
C1126 H1116 0.950 . S
C1126 C1127 1.386 . S
C1126 C1128 1.391 . S
C1127 C1126 1.386 . S
C1127 C1131 1.393 . S
C1128 H1117 0.950 . S
C1128 C1126 1.391 . S
C1128 C1129 1.400 . S
C1129 C1123 1.491 . S
C1129 C1128 1.400 . S
C1129 C1130 1.398 . S
C1130 H1118 0.950 . S
C1130 C1129 1.398 . S
C1130 C1131 1.391 . S
C1131 H1119 0.950 . S
C1131 C1127 1.393 . S
C1131 C1130 1.391 . S
H1132 C1140 0.950 . S
H1133 C1145 0.950 . S
H1134 C1142 0.950 . S
H1135 C1144 0.950 . S
H1136 C1146 0.950 . S
H1137 C1148 0.950 . S
H1138 C1150 0.950 . S
H1139 C1151 0.950 . S
C1140 H1132 0.950 . S
C1140 C1141 1.386 . S
C1140 C1142 1.391 . S
C1141 C1140 1.386 . S
C1141 C1145 1.393 . S
C1142 H1134 0.950 . S
C1142 C1140 1.391 . S
C1142 C1143 1.400 . S
C1143 C1142 1.400 . S
C1143 C1144 1.398 . S
C1143 C1149 1.491 . S
C1144 H1135 0.950 . S
C1144 C1143 1.398 . S
C1144 C1145 1.391 . S
C1145 H1133 0.950 . S
C1145 C1141 1.393 . S
C1145 C1144 1.391 . S
C1146 H1136 0.950 . S
C1146 C1147 1.386 . S
C1146 C1148 1.391 . S
C1147 C1146 1.386 . S
C1147 C1151 1.393 . S
C1148 H1137 0.950 . S
C1148 C1146 1.391 . S
C1148 C1149 1.400 . S
C1149 C1143 1.491 . S
C1149 C1148 1.400 . S
C1149 C1150 1.398 . S
C1150 H1138 0.950 . S
C1150 C1149 1.398 . S
C1150 C1151 1.391 . S
C1151 H1139 0.950 . S
C1151 C1147 1.393 . S
C1151 C1150 1.391 . S
H1152 C1160 0.950 . S
H1153 C1165 0.950 . S
H1154 C1162 0.950 . S
H1155 C1164 0.950 . S
H1156 C1166 0.950 . S
H1157 C1168 0.950 . S
H1158 C1170 0.950 . S
H1159 C1171 0.950 . S
C1160 H1152 0.950 . S
C1160 C1161 1.386 . S
C1160 C1162 1.391 . S
C1161 C1160 1.386 . S
C1161 C1165 1.393 . S
C1162 H1154 0.950 . S
C1162 C1160 1.391 . S
C1162 C1163 1.400 . S
C1163 C1162 1.400 . S
C1163 C1164 1.398 . S
C1163 C1169 1.491 . S
C1164 H1155 0.950 . S
C1164 C1163 1.398 . S
C1164 C1165 1.391 . S
C1165 H1153 0.950 . S
C1165 C1161 1.393 . S
C1165 C1164 1.391 . S
C1166 H1156 0.950 . S
C1166 C1167 1.386 . S
C1166 C1168 1.391 . S
C1167 C1166 1.386 . S
C1167 C1171 1.393 . S
C1168 H1157 0.950 . S
C1168 C1166 1.391 . S
C1168 C1169 1.400 . S
C1169 C1163 1.491 . S
C1169 C1168 1.400 . S
C1169 C1170 1.398 . S
C1170 H1158 0.950 . S
C1170 C1169 1.398 . S
C1170 C1171 1.391 . S
C1171 H1159 0.950 . S
C1171 C1167 1.393 . S
C1171 C1170 1.391 . S
H1172 C1180 0.950 . S
H1173 C1185 0.996 . S
H1174 C1182 0.950 . S
H1175 C1184 0.950 . S
H1176 C1186 0.950 . S
H1177 C1188 0.950 . S
H1178 C1190 0.950 . S
H1179 C1191 0.950 . S
C1180 H1172 0.950 . S
C1180 C1181 1.386 . S
C1180 C1182 1.391 . S
C1181 C1180 1.386 . S
C1181 C1185 1.393 . S
C1182 H1174 0.950 . S
C1182 C1180 1.391 . S
C1182 C1183 1.400 . S
C1183 C1182 1.400 . S
C1183 C1184 1.398 . S
C1183 C1189 1.491 . S
C1184 H1175 0.950 . S
C1184 C1183 1.398 . S
C1184 C1185 1.391 . S
C1185 H1173 0.996 . S
C1185 C1181 1.393 . S
C1185 C1184 1.391 . S
C1186 H1176 0.950 . S
C1186 C1187 1.386 . S
C1186 C1188 1.391 . S
C1187 C1186 1.386 . S
C1187 C1191 1.393 . S
C1188 H1177 0.950 . S
C1188 C1186 1.391 . S
C1188 C1189 1.400 . S
C1189 C1183 1.491 . S
C1189 C1188 1.400 . S
C1189 C1190 1.398 . S
C1190 H1178 0.950 . S
C1190 C1189 1.398 . S
C1190 C1191 1.391 . S
C1191 H1179 0.950 . S
C1191 C1187 1.393 . S
C1191 C1190 1.391 . S
H1192 C1200 0.950 . S
H1193 C1205 0.950 . S
H1194 C1202 0.950 . S
H1195 C1204 0.950 . S
H1196 C1206 0.950 . S
H1197 C1208 0.950 . S
H1198 C1210 0.950 . S
H1199 C1211 0.950 . S
C1200 H1192 0.950 . S
C1200 C1201 1.386 . S
C1200 C1202 1.391 . S
C1201 C1200 1.386 . S
C1201 C1205 1.393 . S
C1202 H1194 0.950 . S
C1202 C1200 1.391 . S
C1202 C1203 1.400 . S
C1203 C1202 1.400 . S
C1203 C1204 1.398 . S
C1203 C1209 1.491 . S
C1204 H1195 0.950 . S
C1204 C1203 1.398 . S
C1204 C1205 1.391 . S
C1205 H1193 0.950 . S
C1205 C1201 1.393 . S
C1205 C1204 1.391 . S
C1206 H1196 0.950 . S
C1206 C1207 1.386 . S
C1206 C1208 1.391 . S
C1207 C1206 1.386 . S
C1207 C1211 1.393 . S
C1208 H1197 0.950 . S
C1208 C1206 1.391 . S
C1208 C1209 1.400 . S
C1209 C1203 1.491 . S
C1209 C1208 1.400 . S
C1209 C1210 1.398 . S
C1210 H1198 0.950 . S
C1210 C1209 1.398 . S
C1210 C1211 1.391 . S
C1211 H1199 0.950 . S
C1211 C1207 1.393 . S
C1211 C1210 1.391 . S
H1212 C1220 0.950 . S
H1213 C1225 0.950 . S
H1214 C1222 0.950 . S
H1215 C1224 0.950 . S
H1216 C1226 0.950 . S
H1217 C1228 0.950 . S
H1218 C1230 0.950 . S
H1219 C1231 0.950 . S
C1220 H1212 0.950 . S
C1220 C1221 1.386 . S
C1220 C1222 1.391 . S
C1221 C1220 1.386 . S
C1221 C1225 1.393 . S
C1222 H1214 0.950 . S
C1222 C1220 1.391 . S
C1222 C1223 1.400 . S
C1223 C1222 1.400 . S
C1223 C1224 1.398 . S
C1223 C1229 1.491 . S
C1224 H1215 0.950 . S
C1224 C1223 1.398 . S
C1224 C1225 1.391 . S
C1225 H1213 0.950 . S
C1225 C1221 1.393 . S
C1225 C1224 1.391 . S
C1226 H1216 0.950 . S
C1226 C1227 1.386 . S
C1226 C1228 1.391 . S
C1227 C1226 1.386 . S
C1227 C1231 1.393 . S
C1228 H1217 0.950 . S
C1228 C1226 1.391 . S
C1228 C1229 1.400 . S
C1229 C1223 1.491 . S
C1229 C1228 1.400 . S
C1229 C1230 1.398 . S
C1230 H1218 0.950 . S
C1230 C1229 1.398 . S
C1230 C1231 1.391 . S
C1231 H1219 0.950 . S
C1231 C1227 1.393 . S
C1231 C1230 1.391 . S
H1232 C1240 0.950 . S
H1233 C1245 0.950 . S
H1234 C1242 0.950 . S
H1235 C1244 0.950 . S
H1236 C1246 0.950 . S
H1237 C1248 0.950 . S
H1238 C1250 0.950 . S
H1239 C1251 0.950 . S
C1240 H1232 0.950 . S
C1240 C1241 1.386 . S
C1240 C1242 1.391 . S
C1241 C1240 1.386 . S
C1241 C1245 1.393 . S
C1242 H1234 0.950 . S
C1242 C1240 1.391 . S
C1242 C1243 1.400 . S
C1243 C1242 1.400 . S
C1243 C1244 1.398 . S
C1243 C1249 1.491 . S
C1244 H1235 0.950 . S
C1244 C1243 1.398 . S
C1244 C1245 1.391 . S
C1245 H1233 0.950 . S
C1245 C1241 1.393 . S
C1245 C1244 1.391 . S
C1246 H1236 0.950 . S
C1246 C1247 1.386 . S
C1246 C1248 1.391 . S
C1247 C1246 1.386 . S
C1247 C1251 1.393 . S
C1248 H1237 0.950 . S
C1248 C1246 1.391 . S
C1248 C1249 1.400 . S
C1249 C1243 1.491 . S
C1249 C1248 1.400 . S
C1249 C1250 1.398 . S
C1250 H1238 0.950 . S
C1250 C1249 1.398 . S
C1250 C1251 1.391 . S
C1251 H1239 0.950 . S
C1251 C1247 1.393 . S
C1251 C1250 1.391 . S
H1252 C1260 0.950 . S
H1253 C1265 0.950 . S
H1254 C1262 0.950 . S
H1255 C1264 0.950 . S
H1256 C1266 0.950 . S
H1257 C1268 0.950 . S
H1258 C1270 0.950 . S
H1259 C1271 0.950 . S
C1260 H1252 0.950 . S
C1260 C1261 1.386 . S
C1260 C1262 1.391 . S
C1261 C1260 1.386 . S
C1261 C1265 1.393 . S
C1262 H1254 0.950 . S
C1262 C1260 1.391 . S
C1262 C1263 1.400 . S
C1263 C1262 1.400 . S
C1263 C1264 1.398 . S
C1263 C1269 1.491 . S
C1264 H1255 0.950 . S
C1264 C1263 1.398 . S
C1264 C1265 1.391 . S
C1265 H1253 0.950 . S
C1265 C1261 1.393 . S
C1265 C1264 1.391 . S
C1266 H1256 0.950 . S
C1266 C1267 1.386 . S
C1266 C1268 1.391 . S
C1267 C1266 1.386 . S
C1267 C1271 1.393 . S
C1268 H1257 0.950 . S
C1268 C1266 1.391 . S
C1268 C1269 1.400 . S
C1269 C1263 1.491 . S
C1269 C1268 1.400 . S
C1269 C1270 1.398 . S
C1270 H1258 0.950 . S
C1270 C1269 1.398 . S
C1270 C1271 1.391 . S
C1271 H1259 0.950 . S
C1271 C1267 1.393 . S
C1271 C1270 1.391 . S
H1272 C1280 0.950 . S
H1273 C1285 0.950 . S
H1274 C1282 0.950 . S
H1275 C1284 0.950 . S
H1276 C1286 0.950 . S
H1277 C1288 0.950 . S
H1278 C1290 0.950 . S
H1279 C1291 0.950 . S
C1280 H1272 0.950 . S
C1280 C1281 1.386 . S
C1280 C1282 1.391 . S
C1281 C1280 1.386 . S
C1281 C1285 1.393 . S
C1282 H1274 0.950 . S
C1282 C1280 1.391 . S
C1282 C1283 1.400 . S
C1283 C1282 1.400 . S
C1283 C1284 1.398 . S
C1283 C1289 1.491 . S
C1284 H1275 0.950 . S
C1284 C1283 1.398 . S
C1284 C1285 1.391 . S
C1285 H1273 0.950 . S
C1285 C1281 1.393 . S
C1285 C1284 1.391 . S
C1286 H1276 0.950 . S
C1286 C1287 1.386 . S
C1286 C1288 1.391 . S
C1287 C1286 1.386 . S
C1287 C1291 1.393 . S
C1288 H1277 0.950 . S
C1288 C1286 1.391 . S
C1288 C1289 1.400 . S
C1289 C1283 1.491 . S
C1289 C1288 1.400 . S
C1289 C1290 1.398 . S
C1290 H1278 0.950 . S
C1290 C1289 1.398 . S
C1290 C1291 1.391 . S
C1291 H1279 0.950 . S
C1291 C1287 1.393 . S
C1291 C1290 1.391 . S
H1292 C1300 0.950 . S
H1293 C1305 0.950 . S
H1294 C1302 0.950 . S
H1295 C1304 0.950 . S
H1296 C1306 0.950 . S
H1297 C1308 0.950 . S
H1298 C1310 0.950 . S
H1299 C1311 0.950 . S
C1300 H1292 0.950 . S
C1300 C1301 1.386 . S
C1300 C1302 1.391 . S
C1301 C1300 1.386 . S
C1301 C1305 1.393 . S
C1302 H1294 0.950 . S
C1302 C1300 1.391 . S
C1302 C1303 1.400 . S
C1303 C1302 1.400 . S
C1303 C1304 1.398 . S
C1303 C1309 1.491 . S
C1304 H1295 0.950 . S
C1304 C1303 1.398 . S
C1304 C1305 1.391 . S
C1305 H1293 0.950 . S
C1305 C1301 1.393 . S
C1305 C1304 1.391 . S
C1306 H1296 0.950 . S
C1306 C1307 1.386 . S
C1306 C1308 1.391 . S
C1307 C1306 1.386 . S
C1307 C1311 1.393 . S
C1308 H1297 0.950 . S
C1308 C1306 1.391 . S
C1308 C1309 1.400 . S
C1309 C1303 1.491 . S
C1309 C1308 1.400 . S
C1309 C1310 1.398 . S
C1310 H1298 0.950 . S
C1310 C1309 1.398 . S
C1310 C1311 1.391 . S
C1311 H1299 0.950 . S
C1311 C1307 1.393 . S
C1311 C1310 1.391 . S
H1312 C1320 0.950 . S
H1313 C1325 0.950 . S
H1314 C1322 0.950 . S
H1315 C1324 0.950 . S
H1316 C1326 0.950 . S
H1317 C1328 0.950 . S
H1318 C1330 0.950 . S
H1319 C1331 0.950 . S
C1320 H1312 0.950 . S
C1320 C1321 1.386 . S
C1320 C1322 1.391 . S
C1321 C1320 1.386 . S
C1321 C1325 1.393 . S
C1322 H1314 0.950 . S
C1322 C1320 1.391 . S
C1322 C1323 1.400 . S
C1323 C1322 1.400 . S
C1323 C1324 1.398 . S
C1323 C1329 1.491 . S
C1324 H1315 0.950 . S
C1324 C1323 1.398 . S
C1324 C1325 1.391 . S
C1325 H1313 0.950 . S
C1325 C1321 1.393 . S
C1325 C1324 1.391 . S
C1326 H1316 0.950 . S
C1326 C1327 1.386 . S
C1326 C1328 1.391 . S
C1327 C1326 1.386 . S
C1327 C1331 1.393 . S
C1328 H1317 0.950 . S
C1328 C1326 1.391 . S
C1328 C1329 1.400 . S
C1329 C1323 1.491 . S
C1329 C1328 1.400 . S
C1329 C1330 1.398 . S
C1330 H1318 0.950 . S
C1330 C1329 1.398 . S
C1330 C1331 1.391 . S
C1331 H1319 0.950 . S
C1331 C1327 1.393 . S
C1331 C1330 1.391 . S
H1332 C1340 0.950 . S
H1333 C1345 0.950 . S
H1334 C1342 0.950 . S
H1335 C1344 0.950 . S
H1336 C1346 0.950 . S
H1337 C1348 0.950 . S
H1338 C1350 0.950 . S
H1339 C1351 0.950 . S
C1340 H1332 0.950 . S
C1340 C1341 1.386 . S
C1340 C1342 1.391 . S
C1341 C1340 1.386 . S
C1341 C1345 1.393 . S
C1342 H1334 0.950 . S
C1342 C1340 1.391 . S
C1342 C1343 1.400 . S
C1343 C1342 1.400 . S
C1343 C1344 1.398 . S
C1343 C1349 1.491 . S
C1344 H1335 0.950 . S
C1344 C1343 1.398 . S
C1344 C1345 1.391 . S
C1345 H1333 0.950 . S
C1345 C1341 1.393 . S
C1345 C1344 1.391 . S
C1346 H1336 0.950 . S
C1346 C1347 1.386 . S
C1346 C1348 1.391 . S
C1347 C1346 1.386 . S
C1347 C1351 1.393 . S
C1348 H1337 0.950 . S
C1348 C1346 1.391 . S
C1348 C1349 1.400 . S
C1349 C1343 1.491 . S
C1349 C1348 1.400 . S
C1349 C1350 1.398 . S
C1350 H1338 0.950 . S
C1350 C1349 1.398 . S
C1350 C1351 1.391 . S
C1351 H1339 0.950 . S
C1351 C1347 1.393 . S
C1351 C1350 1.391 . S
H1352 C1360 0.950 . S
H1353 C1365 0.950 . S
H1354 C1362 0.950 . S
H1355 C1364 0.950 . S
H1356 C1366 0.950 . S
H1357 C1368 0.950 . S
H1358 C1370 0.950 . S
H1359 C1371 0.950 . S
C1360 H1352 0.950 . S
C1360 C1361 1.386 . S
C1360 C1362 1.391 . S
C1361 C1360 1.386 . S
C1361 C1365 1.393 . S
C1362 H1354 0.950 . S
C1362 C1360 1.391 . S
C1362 C1363 1.400 . S
C1363 C1362 1.400 . S
C1363 C1364 1.398 . S
C1363 C1369 1.491 . S
C1364 H1355 0.950 . S
C1364 C1363 1.398 . S
C1364 C1365 1.391 . S
C1365 H1353 0.950 . S
C1365 C1361 1.393 . S
C1365 C1364 1.391 . S
C1366 H1356 0.950 . S
C1366 C1367 1.386 . S
C1366 C1368 1.391 . S
C1367 C1366 1.386 . S
C1367 C1371 1.393 . S
C1368 H1357 0.950 . S
C1368 C1366 1.391 . S
C1368 C1369 1.400 . S
C1369 C1363 1.491 . S
C1369 C1368 1.400 . S
C1369 C1370 1.398 . S
C1370 H1358 0.950 . S
C1370 C1369 1.398 . S
C1370 C1371 1.391 . S
C1371 H1359 0.950 . S
C1371 C1367 1.393 . S
C1371 C1370 1.391 . S
H1372 C1380 0.950 . S
H1373 C1385 0.950 . S
H1374 C1382 0.950 . S
H1375 C1384 0.950 . S
H1376 C1386 0.950 . S
H1377 C1388 0.950 . S
H1378 C1390 0.950 . S
H1379 C1391 0.950 . S
C1380 H1372 0.950 . S
C1380 C1381 1.386 . S
C1380 C1382 1.391 . S
C1381 C1380 1.386 . S
C1381 C1385 1.393 . S
C1382 H1374 0.950 . S
C1382 C1380 1.391 . S
C1382 C1383 1.400 . S
C1383 C1382 1.400 . S
C1383 C1384 1.398 . S
C1383 C1389 1.491 . S
C1384 H1375 0.950 . S
C1384 C1383 1.398 . S
C1384 C1385 1.391 . S
C1385 H1373 0.950 . S
C1385 C1381 1.393 . S
C1385 C1384 1.391 . S
C1386 H1376 0.950 . S
C1386 C1387 1.386 . S
C1386 C1388 1.391 . S
C1387 C1386 1.386 . S
C1387 C1391 1.393 . S
C1388 H1377 0.950 . S
C1388 C1386 1.391 . S
C1388 C1389 1.400 . S
C1389 C1383 1.491 . S
C1389 C1388 1.400 . S
C1389 C1390 1.398 . S
C1390 H1378 0.950 . S
C1390 C1389 1.398 . S
C1390 C1391 1.391 . S
C1391 H1379 0.950 . S
C1391 C1387 1.393 . S
C1391 C1390 1.391 . S
H1392 C1400 0.950 . S
H1393 C1405 0.950 . S
H1394 C1402 0.950 . S
H1395 C1404 0.950 . S
H1396 C1406 0.950 . S
H1397 C1408 0.950 . S
H1398 C1410 0.950 . S
H1399 C1411 0.950 . S
C1400 H1392 0.950 . S
C1400 C1401 1.386 . S
C1400 C1402 1.391 . S
C1401 C1400 1.386 . S
C1401 C1405 1.393 . S
C1402 H1394 0.950 . S
C1402 C1400 1.391 . S
C1402 C1403 1.400 . S
C1403 C1402 1.400 . S
C1403 C1404 1.398 . S
C1403 C1409 1.491 . S
C1404 H1395 0.950 . S
C1404 C1403 1.398 . S
C1404 C1405 1.391 . S
C1405 H1393 0.950 . S
C1405 C1401 1.393 . S
C1405 C1404 1.391 . S
C1406 H1396 0.950 . S
C1406 C1407 1.386 . S
C1406 C1408 1.391 . S
C1407 C1406 1.386 . S
C1407 C1411 1.393 . S
C1408 H1397 0.950 . S
C1408 C1406 1.391 . S
C1408 C1409 1.400 . S
C1409 C1403 1.491 . S
C1409 C1408 1.400 . S
C1409 C1410 1.398 . S
C1410 H1398 0.950 . S
C1410 C1409 1.398 . S
C1410 C1411 1.391 . S
C1411 H1399 0.950 . S
C1411 C1407 1.393 . S
C1411 C1410 1.391 . S
H1412 C1420 0.950 . S
H1413 C1425 0.950 . S
H1414 C1422 0.950 . S
H1415 C1424 0.950 . S
H1416 C1426 0.950 . S
H1417 C1428 0.950 . S
H1418 C1430 0.950 . S
H1419 C1431 0.950 . S
C1420 H1412 0.950 . S
C1420 C1421 1.386 . S
C1420 C1422 1.391 . S
C1421 C1420 1.386 . S
C1421 C1425 1.393 . S
C1422 H1414 0.950 . S
C1422 C1420 1.391 . S
C1422 C1423 1.400 . S
C1423 C1422 1.400 . S
C1423 C1424 1.398 . S
C1423 C1429 1.491 . S
C1424 H1415 0.950 . S
C1424 C1423 1.398 . S
C1424 C1425 1.391 . S
C1425 H1413 0.950 . S
C1425 C1421 1.393 . S
C1425 C1424 1.391 . S
C1426 H1416 0.950 . S
C1426 C1427 1.386 . S
C1426 C1428 1.391 . S
C1427 C1426 1.386 . S
C1427 C1431 1.393 . S
C1428 H1417 0.950 . S
C1428 C1426 1.391 . S
C1428 C1429 1.400 . S
C1429 C1423 1.491 . S
C1429 C1428 1.400 . S
C1429 C1430 1.398 . S
C1430 H1418 0.950 . S
C1430 C1429 1.398 . S
C1430 C1431 1.391 . S
C1431 H1419 0.950 . S
C1431 C1427 1.393 . S
C1431 C1430 1.391 . S
H1432 C1440 0.950 . S
H1433 C1445 0.950 . S
H1434 C1442 0.950 . S
H1435 C1444 0.950 . S
H1436 C1446 0.950 . S
H1437 C1448 0.950 . S
H1438 C1450 0.950 . S
H1439 C1451 0.950 . S
C1440 H1432 0.950 . S
C1440 C1441 1.386 . S
C1440 C1442 1.391 . S
C1441 C1440 1.386 . S
C1441 C1445 1.393 . S
C1442 H1434 0.950 . S
C1442 C1440 1.391 . S
C1442 C1443 1.400 . S
C1443 C1442 1.400 . S
C1443 C1444 1.398 . S
C1443 C1449 1.491 . S
C1444 H1435 0.950 . S
C1444 C1443 1.398 . S
C1444 C1445 1.391 . S
C1445 H1433 0.950 . S
C1445 C1441 1.393 . S
C1445 C1444 1.391 . S
C1446 H1436 0.950 . S
C1446 C1447 1.386 . S
C1446 C1448 1.391 . S
C1447 C1446 1.386 . S
C1447 C1451 1.393 . S
C1448 H1437 0.950 . S
C1448 C1446 1.391 . S
C1448 C1449 1.400 . S
C1449 C1443 1.491 . S
C1449 C1448 1.400 . S
C1449 C1450 1.398 . S
C1450 H1438 0.950 . S
C1450 C1449 1.398 . S
C1450 C1451 1.391 . S
C1451 H1439 0.950 . S
C1451 C1447 1.393 . S
C1451 C1450 1.391 . S
H1452 C1460 0.950 . S
H1453 C1465 0.950 . S
H1454 C1462 0.950 . S
H1455 C1464 0.950 . S
H1456 C1466 0.950 . S
H1457 C1468 0.950 . S
H1458 C1470 0.950 . S
H1459 C1471 0.950 . S
C1460 H1452 0.950 . S
C1460 C1461 1.386 . S
C1460 C1462 1.391 . S
C1461 C1460 1.386 . S
C1461 C1465 1.393 . S
C1462 H1454 0.950 . S
C1462 C1460 1.391 . S
C1462 C1463 1.400 . S
C1463 C1462 1.400 . S
C1463 C1464 1.398 . S
C1463 C1469 1.491 . S
C1464 H1455 0.950 . S
C1464 C1463 1.398 . S
C1464 C1465 1.391 . S
C1465 H1453 0.950 . S
C1465 C1461 1.393 . S
C1465 C1464 1.391 . S
C1466 H1456 0.950 . S
C1466 C1467 1.386 . S
C1466 C1468 1.391 . S
C1467 C1466 1.386 . S
C1467 C1471 1.393 . S
C1468 H1457 0.950 . S
C1468 C1466 1.391 . S
C1468 C1469 1.400 . S
C1469 C1463 1.491 . S
C1469 C1468 1.400 . S
C1469 C1470 1.398 . S
C1470 H1458 0.950 . S
C1470 C1469 1.398 . S
C1470 C1471 1.391 . S
C1471 H1459 0.950 . S
C1471 C1467 1.393 . S
C1471 C1470 1.391 . S
H1472 C1480 0.950 . S
H1473 C1485 0.950 . S
H1474 C1482 0.950 . S
H1475 C1484 0.950 . S
H1476 C1486 0.950 . S
H1477 C1488 0.950 . S
H1478 C1490 0.950 . S
H1479 C1491 0.950 . S
C1480 H1472 0.950 . S
C1480 C1481 1.386 . S
C1480 C1482 1.391 . S
C1481 C1480 1.386 . S
C1481 C1485 1.393 . S
C1482 H1474 0.950 . S
C1482 C1480 1.391 . S
C1482 C1483 1.400 . S
C1483 C1482 1.400 . S
C1483 C1484 1.398 . S
C1483 C1489 1.491 . S
C1484 H1475 0.950 . S
C1484 C1483 1.398 . S
C1484 C1485 1.391 . S
C1485 H1473 0.950 . S
C1485 C1481 1.393 . S
C1485 C1484 1.391 . S
C1486 H1476 0.950 . S
C1486 C1487 1.386 . S
C1486 C1488 1.391 . S
C1487 C1486 1.386 . S
C1487 C1491 1.393 . S
C1488 H1477 0.950 . S
C1488 C1486 1.391 . S
C1488 C1489 1.400 . S
C1489 C1483 1.491 . S
C1489 C1488 1.400 . S
C1489 C1490 1.398 . S
C1490 H1478 0.950 . S
C1490 C1489 1.398 . S
C1490 C1491 1.391 . S
C1491 H1479 0.950 . S
C1491 C1487 1.393 . S
C1491 C1490 1.391 . S
H1492 C1500 0.950 . S
H1493 C1505 0.950 . S
H1494 C1502 0.950 . S
H1495 C1504 0.950 . S
H1496 C1506 0.950 . S
H1497 C1508 0.950 . S
H1498 C1510 0.950 . S
H1499 C1511 0.950 . S
C1500 H1492 0.950 . S
C1500 C1501 1.386 . S
C1500 C1502 1.391 . S
C1501 C1500 1.386 . S
C1501 C1505 1.393 . S
C1502 H1494 0.950 . S
C1502 C1500 1.391 . S
C1502 C1503 1.400 . S
C1503 C1502 1.400 . S
C1503 C1504 1.398 . S
C1503 C1509 1.491 . S
C1504 H1495 0.950 . S
C1504 C1503 1.398 . S
C1504 C1505 1.391 . S
C1505 H1493 0.950 . S
C1505 C1501 1.393 . S
C1505 C1504 1.391 . S
C1506 H1496 0.950 . S
C1506 C1507 1.386 . S
C1506 C1508 1.391 . S
C1507 C1506 1.386 . S
C1507 C1511 1.393 . S
C1508 H1497 0.950 . S
C1508 C1506 1.391 . S
C1508 C1509 1.400 . S
C1509 C1503 1.491 . S
C1509 C1508 1.400 . S
C1509 C1510 1.398 . S
C1510 H1498 0.950 . S
C1510 C1509 1.398 . S
C1510 C1511 1.391 . S
C1511 H1499 0.950 . S
C1511 C1507 1.393 . S
C1511 C1510 1.391 . S
H1512 C1520 0.950 . S
H1513 C1525 0.950 . S
H1514 C1522 0.950 . S
H1515 C1524 0.950 . S
H1516 C1526 0.950 . S
H1517 C1528 0.950 . S
H1518 C1530 0.950 . S
H1519 C1531 0.950 . S
C1520 H1512 0.950 . S
C1520 C1521 1.386 . S
C1520 C1522 1.391 . S
C1521 C1520 1.386 . S
C1521 C1525 1.393 . S
C1522 H1514 0.950 . S
C1522 C1520 1.391 . S
C1522 C1523 1.400 . S
C1523 C1522 1.400 . S
C1523 C1524 1.398 . S
C1523 C1529 1.491 . S
C1524 H1515 0.950 . S
C1524 C1523 1.398 . S
C1524 C1525 1.391 . S
C1525 H1513 0.950 . S
C1525 C1521 1.393 . S
C1525 C1524 1.391 . S
C1526 H1516 0.950 . S
C1526 C1527 1.386 . S
C1526 C1528 1.391 . S
C1527 C1526 1.386 . S
C1527 C1531 1.393 . S
C1528 H1517 0.950 . S
C1528 C1526 1.391 . S
C1528 C1529 1.400 . S
C1529 C1523 1.491 . S
C1529 C1528 1.400 . S
C1529 C1530 1.398 . S
C1530 H1518 0.950 . S
C1530 C1529 1.398 . S
C1530 C1531 1.391 . S
C1531 H1519 0.950 . S
C1531 C1527 1.393 . S
C1531 C1530 1.391 . S
H1532 C1540 0.950 . S
H1533 C1545 0.950 . S
H1534 C1542 0.950 . S
H1535 C1544 0.950 . S
H1536 C1546 0.950 . S
H1537 C1548 0.950 . S
H1538 C1550 0.950 . S
H1539 C1551 0.950 . S
C1540 H1532 0.950 . S
C1540 C1541 1.386 . S
C1540 C1542 1.391 . S
C1541 C1540 1.386 . S
C1541 C1545 1.393 . S
C1542 H1534 0.950 . S
C1542 C1540 1.391 . S
C1542 C1543 1.400 . S
C1543 C1542 1.400 . S
C1543 C1544 1.398 . S
C1543 C1549 1.491 . S
C1544 H1535 0.950 . S
C1544 C1543 1.398 . S
C1544 C1545 1.391 . S
C1545 H1533 0.950 . S
C1545 C1541 1.393 . S
C1545 C1544 1.391 . S
C1546 H1536 0.950 . S
C1546 C1547 1.386 . S
C1546 C1548 1.391 . S
C1547 C1546 1.386 . S
C1547 C1551 1.393 . S
C1548 H1537 0.950 . S
C1548 C1546 1.391 . S
C1548 C1549 1.400 . S
C1549 C1543 1.491 . S
C1549 C1548 1.400 . S
C1549 C1550 1.398 . S
C1550 H1538 0.950 . S
C1550 C1549 1.398 . S
C1550 C1551 1.391 . S
C1551 H1539 0.950 . S
C1551 C1547 1.393 . S
C1551 C1550 1.391 . S
H1552 C1560 0.940 1_545 S
H1553 C1565 0.950 . S
H1554 C1562 0.950 . S
H1555 C1564 0.950 . S
H1556 C1566 0.950 . S
H1557 C1568 0.950 . S
H1558 C1570 0.950 . S
H1559 C1571 0.950 . S
C1560 H1552 0.940 1_565 S
C1560 C1561 1.386 . S
C1560 C1562 1.391 . S
C1561 C1560 1.386 . S
C1561 C1565 1.393 . S
C1562 H1554 0.950 . S
C1562 C1560 1.391 . S
C1562 C1563 1.400 . S
C1563 C1562 1.400 . S
C1563 C1564 1.398 . S
C1563 C1569 1.491 . S
C1564 H1555 0.950 . S
C1564 C1563 1.398 . S
C1564 C1565 1.391 . S
C1565 H1553 0.950 . S
C1565 C1561 1.393 . S
C1565 C1564 1.391 . S
C1566 H1556 0.950 . S
C1566 C1567 1.386 . S
C1566 C1568 1.391 . S
C1567 C1566 1.386 . S
C1567 C1571 1.393 . S
C1568 H1557 0.950 . S
C1568 C1566 1.391 . S
C1568 C1569 1.400 . S
C1569 C1563 1.491 . S
C1569 C1568 1.400 . S
C1569 C1570 1.398 . S
C1570 H1558 0.950 . S
C1570 C1569 1.398 . S
C1570 C1571 1.391 . S
C1571 H1559 0.950 . S
C1571 C1567 1.393 . S
C1571 C1570 1.391 . S
H1572 C1580 0.950 . S
H1573 C1585 0.950 . S
H1574 C1582 0.950 . S
H1575 C1584 0.950 . S
H1576 C1586 0.950 . S
H1577 C1588 0.950 . S
H1578 C1590 0.950 . S
H1579 C1591 0.950 . S
C1580 H1572 0.950 . S
C1580 C1581 1.386 . S
C1580 C1582 1.391 . S
C1581 C1580 1.386 . S
C1581 C1585 1.393 . S
C1582 H1574 0.950 . S
C1582 C1580 1.391 . S
C1582 C1583 1.400 . S
C1583 C1582 1.400 . S
C1583 C1584 1.398 . S
C1583 C1589 1.491 . S
C1584 H1575 0.950 . S
C1584 C1583 1.398 . S
C1584 C1585 1.391 . S
C1585 H1573 0.950 . S
C1585 C1581 1.393 . S
C1585 C1584 1.391 . S
C1586 H1576 0.950 . S
C1586 C1587 1.386 . S
C1586 C1588 1.391 . S
C1587 C1586 1.386 . S
C1587 C1591 1.393 . S
C1588 H1577 0.950 . S
C1588 C1586 1.391 . S
C1588 C1589 1.400 . S
C1589 C1583 1.491 . S
C1589 C1588 1.400 . S
C1589 C1590 1.398 . S
C1590 H1578 0.950 . S
C1590 C1589 1.398 . S
C1590 C1591 1.391 . S
C1591 H1579 0.950 . S
C1591 C1587 1.393 . S
C1591 C1590 1.391 . S
H1592 C1600 0.950 . S
H1593 C1605 0.950 . S
H1594 C1602 0.950 . S
H1595 C1604 0.950 . S
H1596 C1606 0.950 . S
H1597 C1608 0.950 . S
H1598 C1610 0.950 . S
H1599 C1611 0.950 . S
C1600 H1592 0.950 . S
C1600 C1601 1.386 . S
C1600 C1602 1.391 . S
C1601 C1600 1.386 . S
C1601 C1605 1.393 . S
C1602 H1594 0.950 . S
C1602 C1600 1.391 . S
C1602 C1603 1.400 . S
C1603 C1602 1.400 . S
C1603 C1604 1.398 . S
C1603 C1609 1.491 . S
C1604 H1595 0.950 . S
C1604 C1603 1.398 . S
C1604 C1605 1.391 . S
C1605 H1593 0.950 . S
C1605 C1601 1.393 . S
C1605 C1604 1.391 . S
C1606 H1596 0.950 . S
C1606 C1607 1.386 . S
C1606 C1608 1.391 . S
C1607 C1606 1.386 . S
C1607 C1611 1.393 . S
C1608 H1597 0.950 . S
C1608 C1606 1.391 . S
C1608 C1609 1.400 . S
C1609 C1603 1.491 . S
C1609 C1608 1.400 . S
C1609 C1610 1.398 . S
C1610 H1598 0.950 . S
C1610 C1609 1.398 . S
C1610 C1611 1.391 . S
C1611 H1599 0.950 . S
C1611 C1607 1.393 . S
C1611 C1610 1.391 . S
H1612 C1620 0.950 . S
H1613 C1625 0.950 . S
H1614 C1622 0.950 . S
H1615 C1624 0.950 . S
H1616 C1626 0.950 . S
H1617 C1628 0.950 . S
H1618 C1630 0.950 . S
H1619 C1631 0.950 . S
C1620 H1612 0.950 . S
C1620 C1621 1.386 . S
C1620 C1622 1.391 . S
C1621 C1620 1.386 . S
C1621 C1625 1.393 . S
C1622 H1614 0.950 . S
C1622 C1620 1.391 . S
C1622 C1623 1.400 . S
C1623 C1622 1.400 . S
C1623 C1624 1.398 . S
C1623 C1629 1.491 . S
C1624 H1615 0.950 . S
C1624 C1623 1.398 . S
C1624 C1625 1.391 . S
C1625 H1613 0.950 . S
C1625 C1621 1.393 . S
C1625 C1624 1.391 . S
C1626 H1616 0.950 . S
C1626 C1627 1.386 . S
C1626 C1628 1.391 . S
C1627 C1626 1.386 . S
C1627 C1631 1.393 . S
C1628 H1617 0.950 . S
C1628 C1626 1.391 . S
C1628 C1629 1.400 . S
C1629 C1623 1.491 . S
C1629 C1628 1.400 . S
C1629 C1630 1.398 . S
C1630 H1618 0.950 . S
C1630 C1629 1.398 . S
C1630 C1631 1.391 . S
C1631 H1619 0.950 . S
C1631 C1627 1.393 . S
C1631 C1630 1.391 . S
H1632 C1640 0.950 . S
H1633 C1645 0.950 . S
H1634 C1642 0.950 . S
H1635 C1644 0.950 . S
H1636 C1646 0.950 . S
H1637 C1648 0.950 . S
H1638 C1650 0.950 . S
H1639 C1651 0.950 . S
C1640 H1632 0.950 . S
C1640 C1641 1.386 . S
C1640 C1642 1.391 . S
C1641 C1640 1.386 . S
C1641 C1645 1.393 . S
C1642 H1634 0.950 . S
C1642 C1640 1.391 . S
C1642 C1643 1.400 . S
C1643 C1642 1.400 . S
C1643 C1644 1.398 . S
C1643 C1649 1.491 . S
C1644 H1635 0.950 . S
C1644 C1643 1.398 . S
C1644 C1645 1.391 . S
C1645 H1633 0.950 . S
C1645 C1641 1.393 . S
C1645 C1644 1.391 . S
C1646 H1636 0.950 . S
C1646 C1647 1.386 . S
C1646 C1648 1.391 . S
C1647 C1646 1.386 . S
C1647 C1651 1.393 . S
C1648 H1637 0.950 . S
C1648 C1646 1.391 . S
C1648 C1649 1.400 . S
C1649 C1643 1.491 . S
C1649 C1648 1.400 . S
C1649 C1650 1.398 . S
C1650 H1638 0.950 . S
C1650 C1649 1.398 . S
C1650 C1651 1.391 . S
C1651 H1639 0.950 . S
C1651 C1647 1.393 . S
C1651 C1650 1.391 . S
H1652 C1660 0.950 . S
H1653 C1665 0.950 . S
H1654 C1662 0.950 . S
H1655 C1664 0.950 . S
H1656 C1666 0.950 . S
H1657 C1668 0.950 . S
H1658 C1670 0.950 . S
H1659 C1671 0.950 . S
C1660 H1652 0.950 . S
C1660 C1661 1.386 . S
C1660 C1662 1.391 . S
C1661 C1660 1.386 . S
C1661 C1665 1.393 . S
C1662 H1654 0.950 . S
C1662 C1660 1.391 . S
C1662 C1663 1.400 . S
C1663 C1662 1.400 . S
C1663 C1664 1.398 . S
C1663 C1669 1.491 . S
C1664 H1655 0.950 . S
C1664 C1663 1.398 . S
C1664 C1665 1.391 . S
C1665 H1653 0.950 . S
C1665 C1661 1.393 . S
C1665 C1664 1.391 . S
C1666 H1656 0.950 . S
C1666 C1667 1.386 . S
C1666 C1668 1.391 . S
C1667 C1666 1.386 . S
C1667 C1671 1.393 . S
C1668 H1657 0.950 . S
C1668 C1666 1.391 . S
C1668 C1669 1.400 . S
C1669 C1663 1.491 . S
C1669 C1668 1.400 . S
C1669 C1670 1.398 . S
C1670 H1658 0.950 . S
C1670 C1669 1.398 . S
C1670 C1671 1.391 . S
C1671 H1659 0.950 . S
C1671 C1667 1.393 . S
C1671 C1670 1.391 . S
H1672 C1680 0.950 . S
H1673 C1685 0.950 . S
H1674 C1682 0.950 . S
H1675 C1684 0.950 . S
H1676 C1686 0.950 . S
H1677 C1688 0.950 . S
H1678 C1690 0.950 . S
H1679 C1691 0.950 . S
C1680 H1672 0.950 . S
C1680 C1681 1.386 . S
C1680 C1682 1.391 . S
C1681 C1680 1.386 . S
C1681 C1685 1.393 . S
C1682 H1674 0.950 . S
C1682 C1680 1.391 . S
C1682 C1683 1.400 . S
C1683 C1682 1.400 . S
C1683 C1684 1.398 . S
C1683 C1689 1.491 . S
C1684 H1675 0.950 . S
C1684 C1683 1.398 . S
C1684 C1685 1.391 . S
C1685 H1673 0.950 . S
C1685 C1681 1.393 . S
C1685 C1684 1.391 . S
C1686 H1676 0.950 . S
C1686 C1687 1.386 . S
C1686 C1688 1.391 . S
C1687 C1686 1.386 . S
C1687 C1691 1.393 . S
C1688 H1677 0.950 . S
C1688 C1686 1.391 . S
C1688 C1689 1.400 . S
C1689 C1683 1.491 . S
C1689 C1688 1.400 . S
C1689 C1690 1.398 . S
C1690 H1678 0.950 . S
C1690 C1689 1.398 . S
C1690 C1691 1.391 . S
C1691 H1679 0.950 . S
C1691 C1687 1.393 . S
C1691 C1690 1.391 . S
H1692 C1700 0.950 . S
H1693 C1705 0.950 . S
H1694 C1702 0.950 . S
H1695 C1704 0.950 . S
H1696 C1706 0.950 . S
H1697 C1708 0.950 . S
H1698 C1710 0.950 . S
H1699 C1711 0.950 . S
C1700 H1692 0.950 . S
C1700 C1701 1.386 . S
C1700 C1702 1.391 . S
C1701 C1700 1.386 . S
C1701 C1705 1.393 . S
C1702 H1694 0.950 . S
C1702 C1700 1.391 . S
C1702 C1703 1.400 . S
C1703 C1702 1.400 . S
C1703 C1704 1.398 . S
C1703 C1709 1.491 . S
C1704 H1695 0.950 . S
C1704 C1703 1.398 . S
C1704 C1705 1.391 . S
C1705 H1693 0.950 . S
C1705 C1701 1.393 . S
C1705 C1704 1.391 . S
C1706 H1696 0.950 . S
C1706 C1707 1.386 . S
C1706 C1708 1.391 . S
C1707 C1706 1.386 . S
C1707 C1711 1.393 . S
C1708 H1697 0.950 . S
C1708 C1706 1.391 . S
C1708 C1709 1.400 . S
C1709 C1703 1.491 . S
C1709 C1708 1.400 . S
C1709 C1710 1.398 . S
C1710 H1698 0.950 . S
C1710 C1709 1.398 . S
C1710 C1711 1.391 . S
C1711 H1699 0.950 . S
C1711 C1707 1.393 . S
C1711 C1710 1.391 . S
H1712 C1720 0.950 . S
H1713 C1725 0.950 . S
H1714 C1722 0.950 . S
H1715 C1724 0.950 . S
H1716 C1726 0.950 . S
H1717 C1728 0.950 . S
H1718 C1730 0.950 . S
H1719 C1731 0.950 . S
C1720 H1712 0.950 . S
C1720 C1721 1.386 . S
C1720 C1722 1.391 . S
C1721 C1720 1.386 . S
C1721 C1725 1.393 . S
C1722 H1714 0.950 . S
C1722 C1720 1.391 . S
C1722 C1723 1.400 . S
C1723 C1722 1.400 . S
C1723 C1724 1.398 . S
C1723 C1729 1.491 . S
C1724 H1715 0.950 . S
C1724 C1723 1.398 . S
C1724 C1725 1.391 . S
C1725 H1713 0.950 . S
C1725 C1721 1.393 . S
C1725 C1724 1.391 . S
C1726 H1716 0.950 . S
C1726 C1727 1.386 . S
C1726 C1728 1.391 . S
C1727 C1726 1.386 . S
C1727 C1731 1.393 . S
C1728 H1717 0.950 . S
C1728 C1726 1.391 . S
C1728 C1729 1.400 . S
C1729 C1723 1.491 . S
C1729 C1728 1.400 . S
C1729 C1730 1.398 . S
C1730 H1718 0.950 . S
C1730 C1729 1.398 . S
C1730 C1731 1.391 . S
C1731 H1719 0.950 . S
C1731 C1727 1.393 . S
C1731 C1730 1.391 . S
H1732 C1740 0.950 . S
H1733 C1745 0.950 . S
H1734 C1742 0.950 . S
H1735 C1744 0.950 . S
H1736 C1746 0.950 . S
H1737 C1748 0.950 . S
H1738 C1750 0.950 . S
H1739 C1751 0.950 . S
C1740 H1732 0.950 . S
C1740 C1741 1.386 . S
C1740 C1742 1.391 . S
C1741 C1740 1.386 . S
C1741 C1745 1.393 . S
C1742 H1734 0.950 . S
C1742 C1740 1.391 . S
C1742 C1743 1.400 . S
C1743 C1742 1.400 . S
C1743 C1744 1.398 . S
C1743 C1749 1.491 . S
C1744 H1735 0.950 . S
C1744 C1743 1.398 . S
C1744 C1745 1.391 . S
C1745 H1733 0.950 . S
C1745 C1741 1.393 . S
C1745 C1744 1.391 . S
C1746 H1736 0.950 . S
C1746 C1747 1.386 . S
C1746 C1748 1.391 . S
C1747 C1746 1.386 . S
C1747 C1751 1.393 . S
C1748 H1737 0.950 . S
C1748 C1746 1.391 . S
C1748 C1749 1.400 . S
C1749 C1743 1.491 . S
C1749 C1748 1.400 . S
C1749 C1750 1.398 . S
C1750 H1738 0.950 . S
C1750 C1749 1.398 . S
C1750 C1751 1.391 . S
C1751 H1739 0.950 . S
C1751 C1747 1.393 . S
C1751 C1750 1.391 . S
H1752 C1760 0.950 . S
H1753 C1765 0.950 . S
H1754 C1762 0.950 . S
H1755 C1764 0.950 . S
H1756 C1766 0.950 . S
H1757 C1768 0.950 . S
H1758 C1770 0.950 . S
H1759 C1771 0.950 . S
C1760 H1752 0.950 . S
C1760 C1761 1.386 . S
C1760 C1762 1.391 . S
C1761 C1760 1.386 . S
C1761 C1765 1.393 . S
C1762 H1754 0.950 . S
C1762 C1760 1.391 . S
C1762 C1763 1.400 . S
C1763 C1762 1.400 . S
C1763 C1764 1.398 . S
C1763 C1769 1.491 . S
C1764 H1755 0.950 . S
C1764 C1763 1.398 . S
C1764 C1765 1.391 . S
C1765 H1753 0.950 . S
C1765 C1761 1.393 . S
C1765 C1764 1.391 . S
C1766 H1756 0.950 . S
C1766 C1767 1.386 . S
C1766 C1768 1.391 . S
C1767 C1766 1.386 . S
C1767 C1771 1.393 . S
C1768 H1757 0.950 . S
C1768 C1766 1.391 . S
C1768 C1769 1.400 . S
C1769 C1763 1.491 . S
C1769 C1768 1.400 . S
C1769 C1770 1.398 . S
C1770 H1758 0.950 . S
C1770 C1769 1.398 . S
C1770 C1771 1.391 . S
C1771 H1759 0.950 . S
C1771 C1767 1.393 . S
C1771 C1770 1.391 . S
H1772 C1780 0.950 . S
H1773 C1785 0.950 . S
H1774 C1782 0.950 . S
H1775 C1784 0.950 . S
H1776 C1786 0.950 . S
H1777 C1788 0.950 . S
H1778 C1790 0.950 . S
H1779 C1791 0.950 . S
C1780 H1772 0.950 . S
C1780 C1781 1.386 . S
C1780 C1782 1.391 . S
C1781 C1780 1.386 . S
C1781 C1785 1.393 . S
C1782 H1774 0.950 . S
C1782 C1780 1.391 . S
C1782 C1783 1.400 . S
C1783 C1782 1.400 . S
C1783 C1784 1.398 . S
C1783 C1789 1.491 . S
C1784 H1775 0.950 . S
C1784 C1783 1.398 . S
C1784 C1785 1.391 . S
C1785 H1773 0.950 . S
C1785 C1781 1.393 . S
C1785 C1784 1.391 . S
C1786 H1776 0.950 . S
C1786 C1787 1.386 . S
C1786 C1788 1.391 . S
C1787 C1786 1.386 . S
C1787 C1791 1.393 . S
C1788 H1777 0.950 . S
C1788 C1786 1.391 . S
C1788 C1789 1.400 . S
C1789 C1783 1.491 . S
C1789 C1788 1.400 . S
C1789 C1790 1.398 . S
C1790 H1778 0.950 . S
C1790 C1789 1.398 . S
C1790 C1791 1.391 . S
C1791 H1779 0.950 . S
C1791 C1787 1.393 . S
C1791 C1790 1.391 . S
H1792 C1800 0.950 . S
H1793 C1805 0.950 . S
H1794 C1802 0.950 . S
H1795 C1804 0.950 . S
H1796 C1806 0.950 . S
H1797 C1808 0.950 . S
H1798 C1810 0.950 . S
H1799 C1811 0.950 . S
C1800 H1792 0.950 . S
C1800 C1801 1.386 . S
C1800 C1802 1.391 . S
C1801 C1800 1.386 . S
C1801 C1805 1.393 . S
C1802 H1794 0.950 . S
C1802 C1800 1.391 . S
C1802 C1803 1.400 . S
C1803 C1802 1.400 . S
C1803 C1804 1.398 . S
C1803 C1809 1.491 . S
C1804 H1795 0.950 . S
C1804 C1803 1.398 . S
C1804 C1805 1.391 . S
C1805 H1793 0.950 . S
C1805 C1801 1.393 . S
C1805 C1804 1.391 . S
C1806 H1796 0.950 . S
C1806 C1807 1.386 . S
C1806 C1808 1.391 . S
C1807 C1806 1.386 . S
C1807 C1811 1.393 . S
C1808 H1797 0.950 . S
C1808 C1806 1.391 . S
C1808 C1809 1.400 . S
C1809 C1803 1.491 . S
C1809 C1808 1.400 . S
C1809 C1810 1.398 . S
C1810 H1798 0.950 . S
C1810 C1809 1.398 . S
C1810 C1811 1.391 . S
C1811 H1799 0.950 . S
C1811 C1807 1.393 . S
C1811 C1810 1.391 . S
H1812 C1820 0.950 . S
H1813 C1825 0.950 . S
H1814 C1822 0.950 . S
H1815 C1824 0.950 . S
H1816 C1826 0.950 . S
H1817 C1828 0.950 . S
H1818 C1830 0.950 . S
H1819 C1831 0.950 . S
C1820 H1812 0.950 . S
C1820 C1821 1.386 . S
C1820 C1822 1.391 . S
C1821 C1820 1.386 . S
C1821 C1825 1.393 . S
C1822 H1814 0.950 . S
C1822 C1820 1.391 . S
C1822 C1823 1.400 . S
C1823 C1822 1.400 . S
C1823 C1824 1.398 . S
C1823 C1829 1.491 . S
C1824 H1815 0.950 . S
C1824 C1823 1.398 . S
C1824 C1825 1.391 . S
C1825 H1813 0.950 . S
C1825 C1821 1.393 . S
C1825 C1824 1.391 . S
C1826 H1816 0.950 . S
C1826 C1827 1.386 . S
C1826 C1828 1.391 . S
C1827 C1826 1.386 . S
C1827 C1831 1.393 . S
C1828 H1817 0.950 . S
C1828 C1826 1.391 . S
C1828 C1829 1.400 . S
C1829 C1823 1.491 . S
C1829 C1828 1.400 . S
C1829 C1830 1.398 . S
C1830 H1818 0.950 . S
C1830 C1829 1.398 . S
C1830 C1831 1.391 . S
C1831 H1819 0.950 . S
C1831 C1827 1.393 . S
C1831 C1830 1.391 . S
H1832 C1840 0.950 . S
H1833 C1845 0.950 . S
H1834 C1842 0.950 . S
H1835 C1844 0.950 . S
H1836 C1846 0.950 . S
H1837 C1848 0.950 . S
H1838 C1850 0.950 . S
H1839 C1851 0.950 . S
C1840 H1832 0.950 . S
C1840 C1841 1.386 . S
C1840 C1842 1.391 . S
C1841 C1840 1.386 . S
C1841 C1845 1.393 . S
C1842 H1834 0.950 . S
C1842 C1840 1.391 . S
C1842 C1843 1.400 . S
C1843 C1842 1.400 . S
C1843 C1844 1.398 . S
C1843 C1849 1.491 . S
C1844 H1835 0.950 . S
C1844 C1843 1.398 . S
C1844 C1845 1.391 . S
C1845 H1833 0.950 . S
C1845 C1841 1.393 . S
C1845 C1844 1.391 . S
C1846 H1836 0.950 . S
C1846 C1847 1.386 . S
C1846 C1848 1.391 . S
C1847 C1846 1.386 . S
C1847 C1851 1.393 . S
C1848 H1837 0.950 . S
C1848 C1846 1.391 . S
C1848 C1849 1.400 . S
C1849 C1843 1.491 . S
C1849 C1848 1.400 . S
C1849 C1850 1.398 . S
C1850 H1838 0.950 . S
C1850 C1849 1.398 . S
C1850 C1851 1.391 . S
C1851 H1839 0.950 . S
C1851 C1847 1.393 . S
C1851 C1850 1.391 . S
H1852 C1860 0.950 . S
H1853 C1865 0.950 . S
H1854 C1862 0.950 . S
H1855 C1864 0.950 . S
H1856 C1866 0.950 . S
H1857 C1868 0.950 . S
H1858 C1870 0.950 . S
H1859 C1871 0.950 . S
C1860 H1852 0.950 . S
C1860 C1861 1.386 . S
C1860 C1862 1.391 . S
C1861 C1860 1.386 . S
C1861 C1865 1.393 . S
C1862 H1854 0.950 . S
C1862 C1860 1.391 . S
C1862 C1863 1.400 . S
C1863 C1862 1.400 . S
C1863 C1864 1.398 . S
C1863 C1869 1.491 . S
C1864 H1855 0.950 . S
C1864 C1863 1.398 . S
C1864 C1865 1.391 . S
C1865 H1853 0.950 . S
C1865 C1861 1.393 . S
C1865 C1864 1.391 . S
C1866 H1856 0.950 . S
C1866 C1867 1.386 . S
C1866 C1868 1.391 . S
C1867 C1866 1.386 . S
C1867 C1871 1.393 . S
C1868 H1857 0.950 . S
C1868 C1866 1.391 . S
C1868 C1869 1.400 . S
C1869 C1863 1.491 . S
C1869 C1868 1.400 . S
C1869 C1870 1.398 . S
C1870 H1858 0.950 . S
C1870 C1869 1.398 . S
C1870 C1871 1.391 . S
C1871 H1859 0.950 . S
C1871 C1867 1.393 . S
C1871 C1870 1.391 . S
H1872 C1880 0.950 . S
H1873 C1885 0.950 . S
H1874 C1882 0.950 . S
H1875 C1884 0.950 . S
H1876 C1886 0.950 . S
H1877 C1888 0.950 . S
H1878 C1890 0.950 . S
H1879 C1891 0.950 . S
C1880 H1872 0.950 . S
C1880 C1881 1.386 . S
C1880 C1882 1.391 . S
C1881 C1880 1.386 . S
C1881 C1885 1.393 . S
C1882 H1874 0.950 . S
C1882 C1880 1.391 . S
C1882 C1883 1.400 . S
C1883 C1882 1.400 . S
C1883 C1884 1.398 . S
C1883 C1889 1.491 . S
C1884 H1875 0.950 . S
C1884 C1883 1.398 . S
C1884 C1885 1.391 . S
C1885 H1873 0.950 . S
C1885 C1881 1.393 . S
C1885 C1884 1.391 . S
C1886 H1876 0.950 . S
C1886 C1887 1.386 . S
C1886 C1888 1.391 . S
C1887 C1886 1.386 . S
C1887 C1891 1.393 . S
C1888 H1877 0.950 . S
C1888 C1886 1.391 . S
C1888 C1889 1.400 . S
C1889 C1883 1.491 . S
C1889 C1888 1.400 . S
C1889 C1890 1.398 . S
C1890 H1878 0.950 . S
C1890 C1889 1.398 . S
C1890 C1891 1.391 . S
C1891 H1879 0.950 . S
C1891 C1887 1.393 . S
C1891 C1890 1.391 . S
H1892 C1900 0.950 . S
H1893 C1905 0.950 . S
H1894 C1902 0.950 . S
H1895 C1904 0.950 . S
H1896 C1906 0.950 . S
H1897 C1908 0.950 . S
H1898 C1910 0.950 . S
H1899 C1911 0.950 . S
C1900 H1892 0.950 . S
C1900 C1901 1.386 . S
C1900 C1902 1.391 . S
C1901 C1900 1.386 . S
C1901 C1905 1.393 . S
C1902 H1894 0.950 . S
C1902 C1900 1.391 . S
C1902 C1903 1.400 . S
C1903 C1902 1.400 . S
C1903 C1904 1.398 . S
C1903 C1909 1.491 . S
C1904 H1895 0.950 . S
C1904 C1903 1.398 . S
C1904 C1905 1.391 . S
C1905 H1893 0.950 . S
C1905 C1901 1.393 . S
C1905 C1904 1.391 . S
C1906 H1896 0.950 . S
C1906 C1907 1.386 . S
C1906 C1908 1.391 . S
C1907 C1906 1.386 . S
C1907 C1911 1.393 . S
C1908 H1897 0.950 . S
C1908 C1906 1.391 . S
C1908 C1909 1.400 . S
C1909 C1903 1.491 . S
C1909 C1908 1.400 . S
C1909 C1910 1.398 . S
C1910 H1898 0.950 . S
C1910 C1909 1.398 . S
C1910 C1911 1.391 . S
C1911 H1899 0.950 . S
C1911 C1907 1.393 . S
C1911 C1910 1.391 . S
H1912 C1920 0.950 . S
H1913 C1925 0.950 . S
H1914 C1922 0.950 . S
H1915 C1924 0.950 . S
H1916 C1926 0.950 . S
H1917 C1928 0.950 . S
H1918 C1930 0.950 . S
H1919 C1931 0.950 . S
C1920 H1912 0.950 . S
C1920 C1921 1.386 . S
C1920 C1922 1.391 . S
C1921 C1920 1.386 . S
C1921 C1925 1.393 . S
C1922 H1914 0.950 . S
C1922 C1920 1.391 . S
C1922 C1923 1.400 . S
C1923 C1922 1.400 . S
C1923 C1924 1.398 . S
C1923 C1929 1.491 . S
C1924 H1915 0.950 . S
C1924 C1923 1.398 . S
C1924 C1925 1.391 . S
C1925 H1913 0.950 . S
C1925 C1921 1.393 . S
C1925 C1924 1.391 . S
C1926 H1916 0.950 . S
C1926 C1927 1.386 . S
C1926 C1928 1.391 . S
C1927 C1926 1.386 . S
C1927 C1931 1.393 . S
C1928 H1917 0.950 . S
C1928 C1926 1.391 . S
C1928 C1929 1.400 . S
C1929 C1923 1.491 . S
C1929 C1928 1.400 . S
C1929 C1930 1.398 . S
C1930 H1918 0.950 . S
C1930 C1929 1.398 . S
C1930 C1931 1.391 . S
C1931 H1919 0.950 . S
C1931 C1927 1.393 . S
C1931 C1930 1.391 . S
H1932 C1940 0.950 . S
H1933 C1945 0.950 . S
H1934 C1942 0.950 . S
H1935 C1944 0.950 . S
H1936 C1946 0.950 . S
H1937 C1948 0.950 . S
H1938 C1950 0.950 . S
H1939 C1951 0.950 . S
C1940 H1932 0.950 . S
C1940 C1941 1.386 . S
C1940 C1942 1.391 . S
C1941 C1940 1.386 . S
C1941 C1945 1.393 . S
C1942 H1934 0.950 . S
C1942 C1940 1.391 . S
C1942 C1943 1.400 . S
C1943 C1942 1.400 . S
C1943 C1944 1.398 . S
C1943 C1949 1.491 . S
C1944 H1935 0.950 . S
C1944 C1943 1.398 . S
C1944 C1945 1.391 . S
C1945 H1933 0.950 . S
C1945 C1941 1.393 . S
C1945 C1944 1.391 . S
C1946 H1936 0.950 . S
C1946 C1947 1.386 . S
C1946 C1948 1.391 . S
C1947 C1946 1.386 . S
C1947 C1951 1.393 . S
C1948 H1937 0.950 . S
C1948 C1946 1.391 . S
C1948 C1949 1.400 . S
C1949 C1943 1.491 . S
C1949 C1948 1.400 . S
C1949 C1950 1.398 . S
C1950 H1938 0.950 . S
C1950 C1949 1.398 . S
C1950 C1951 1.391 . S
C1951 H1939 0.950 . S
C1951 C1947 1.393 . S
C1951 C1950 1.391 . S
H1952 C1960 0.950 . S
H1953 C1965 0.950 . S
H1954 C1962 0.950 . S
H1955 C1964 0.950 . S
H1956 C1966 0.950 . S
H1957 C1968 0.950 . S
H1958 C1970 0.950 . S
H1959 C1971 0.950 . S
C1960 H1952 0.950 . S
C1960 C1961 1.386 . S
C1960 C1962 1.391 . S
C1961 C1960 1.386 . S
C1961 C1965 1.393 . S
C1962 H1954 0.950 . S
C1962 C1960 1.391 . S
C1962 C1963 1.400 . S
C1963 C1962 1.400 . S
C1963 C1964 1.398 . S
C1963 C1969 1.491 . S
C1964 H1955 0.950 . S
C1964 C1963 1.398 . S
C1964 C1965 1.391 . S
C1965 H1953 0.950 . S
C1965 C1961 1.393 . S
C1965 C1964 1.391 . S
C1966 H1956 0.950 . S
C1966 C1967 1.386 . S
C1966 C1968 1.391 . S
C1967 C1966 1.386 . S
C1967 C1971 1.393 . S
C1968 H1957 0.950 . S
C1968 C1966 1.391 . S
C1968 C1969 1.400 . S
C1969 C1963 1.491 . S
C1969 C1968 1.400 . S
C1969 C1970 1.398 . S
C1970 H1958 0.950 . S
C1970 C1969 1.398 . S
C1970 C1971 1.391 . S
C1971 H1959 0.950 . S
C1971 C1967 1.393 . S
C1971 C1970 1.391 . S
H1972 C1980 0.950 . S
H1973 C1985 0.950 . S
H1974 C1982 0.950 . S
H1975 C1984 0.950 . S
H1976 C1986 0.950 . S
H1977 C1988 0.950 . S
H1978 C1990 0.950 . S
H1979 C1991 0.950 . S
C1980 H1972 0.950 . S
C1980 C1981 1.386 . S
C1980 C1982 1.391 . S
C1981 C1980 1.386 . S
C1981 C1985 1.393 . S
C1982 H1974 0.950 . S
C1982 C1980 1.391 . S
C1982 C1983 1.400 . S
C1983 C1982 1.400 . S
C1983 C1984 1.398 . S
C1983 C1989 1.491 . S
C1984 H1975 0.950 . S
C1984 C1983 1.398 . S
C1984 C1985 1.391 . S
C1985 H1973 0.950 . S
C1985 C1981 1.393 . S
C1985 C1984 1.391 . S
C1986 H1976 0.950 . S
C1986 C1987 1.386 . S
C1986 C1988 1.391 . S
C1987 C1986 1.386 . S
C1987 C1991 1.393 . S
C1988 H1977 0.950 . S
C1988 C1986 1.391 . S
C1988 C1989 1.400 . S
C1989 C1983 1.491 . S
C1989 C1988 1.400 . S
C1989 C1990 1.398 . S
C1990 H1978 0.950 . S
C1990 C1989 1.398 . S
C1990 C1991 1.391 . S
C1991 H1979 0.950 . S
C1991 C1987 1.393 . S
C1991 C1990 1.391 . S
H1992 C2000 0.950 . S
H1993 C2005 0.950 . S
H1994 C2002 0.950 . S
H1995 C2004 0.950 . S
H1996 C2006 0.950 . S
H1997 C2008 0.950 . S
H1998 C2010 0.950 . S
H1999 C2011 0.950 . S
C2000 H1992 0.950 . S
C2000 C2001 1.386 . S
C2000 C2002 1.391 . S
C2001 C2000 1.386 . S
C2001 C2005 1.393 . S
C2002 H1994 0.950 . S
C2002 C2000 1.391 . S
C2002 C2003 1.400 . S
C2003 C2002 1.400 . S
C2003 C2004 1.398 . S
C2003 C2009 1.491 . S
C2004 H1995 0.950 . S
C2004 C2003 1.398 . S
C2004 C2005 1.391 . S
C2005 H1993 0.950 . S
C2005 C2001 1.393 . S
C2005 C2004 1.391 . S
C2006 H1996 0.950 . S
C2006 C2007 1.386 . S
C2006 C2008 1.391 . S
C2007 C2006 1.386 . S
C2007 C2011 1.393 . S
C2008 H1997 0.950 . S
C2008 C2006 1.391 . S
C2008 C2009 1.400 . S
C2009 C2003 1.491 . S
C2009 C2008 1.400 . S
C2009 C2010 1.398 . S
C2010 H1998 0.950 . S
C2010 C2009 1.398 . S
C2010 C2011 1.391 . S
C2011 H1999 0.950 . S
C2011 C2007 1.393 . S
C2011 C2010 1.391 . S
H2012 C2020 0.950 . S
H2013 C2025 0.950 . S
H2014 C2022 0.950 . S
H2015 C2024 0.950 . S
H2016 C2026 0.950 . S
H2017 C2028 0.950 . S
H2018 C2030 0.950 . S
H2019 C2031 0.950 . S
C2020 H2012 0.950 . S
C2020 C2021 1.386 . S
C2020 C2022 1.391 . S
C2021 C2020 1.386 . S
C2021 C2025 1.393 . S
C2022 H2014 0.950 . S
C2022 C2020 1.391 . S
C2022 C2023 1.400 . S
C2023 C2022 1.400 . S
C2023 C2024 1.398 . S
C2023 C2029 1.491 . S
C2024 H2015 0.950 . S
C2024 C2023 1.398 . S
C2024 C2025 1.391 . S
C2025 H2013 0.950 . S
C2025 C2021 1.393 . S
C2025 C2024 1.391 . S
C2026 H2016 0.950 . S
C2026 C2027 1.386 . S
C2026 C2028 1.391 . S
C2027 C2026 1.386 . S
C2027 C2031 1.393 . S
C2028 H2017 0.950 . S
C2028 C2026 1.391 . S
C2028 C2029 1.400 . S
C2029 C2023 1.491 . S
C2029 C2028 1.400 . S
C2029 C2030 1.398 . S
C2030 H2018 0.950 . S
C2030 C2029 1.398 . S
C2030 C2031 1.391 . S
C2031 H2019 0.950 . S
C2031 C2027 1.393 . S
C2031 C2030 1.391 . S
H2032 C2040 0.950 . S
H2033 C2045 0.950 . S
H2034 C2042 0.950 . S
H2035 C2044 0.950 . S
H2036 C2046 0.950 . S
H2037 C2048 0.950 . S
H2038 C2050 0.950 . S
H2039 C2051 0.950 . S
C2040 H2032 0.950 . S
C2040 C2041 1.386 . S
C2040 C2042 1.391 . S
C2041 C2040 1.386 . S
C2041 C2045 1.393 . S
C2042 H2034 0.950 . S
C2042 C2040 1.391 . S
C2042 C2043 1.400 . S
C2043 C2042 1.400 . S
C2043 C2044 1.398 . S
C2043 C2049 1.491 . S
C2044 H2035 0.950 . S
C2044 C2043 1.398 . S
C2044 C2045 1.391 . S
C2045 H2033 0.950 . S
C2045 C2041 1.393 . S
C2045 C2044 1.391 . S
C2046 H2036 0.950 . S
C2046 C2047 1.386 . S
C2046 C2048 1.391 . S
C2047 C2046 1.386 . S
C2047 C2051 1.393 . S
C2048 H2037 0.950 . S
C2048 C2046 1.391 . S
C2048 C2049 1.400 . S
C2049 C2043 1.491 . S
C2049 C2048 1.400 . S
C2049 C2050 1.398 . S
C2050 H2038 0.950 . S
C2050 C2049 1.398 . S
C2050 C2051 1.391 . S
C2051 H2039 0.950 . S
C2051 C2047 1.393 . S
C2051 C2050 1.391 . S
H2052 C2060 0.950 . S
H2053 C2065 0.950 . S
H2054 C2062 0.950 . S
H2055 C2064 0.950 . S
H2056 C2066 0.950 . S
H2057 C2068 0.950 . S
H2058 C2070 0.950 . S
H2059 C2071 0.950 . S
C2060 H2052 0.950 . S
C2060 C2061 1.386 . S
C2060 C2062 1.391 . S
C2061 C2060 1.386 . S
C2061 C2065 1.393 . S
C2062 H2054 0.950 . S
C2062 C2060 1.391 . S
C2062 C2063 1.400 . S
C2063 C2062 1.400 . S
C2063 C2064 1.398 . S
C2063 C2069 1.491 . S
C2064 H2055 0.950 . S
C2064 C2063 1.398 . S
C2064 C2065 1.391 . S
C2065 H2053 0.950 . S
C2065 C2061 1.393 . S
C2065 C2064 1.391 . S
C2066 H2056 0.950 . S
C2066 C2067 1.386 . S
C2066 C2068 1.391 . S
C2067 C2066 1.386 . S
C2067 C2071 1.393 . S
C2068 H2057 0.950 . S
C2068 C2066 1.391 . S
C2068 C2069 1.400 . S
C2069 C2063 1.491 . S
C2069 C2068 1.400 . S
C2069 C2070 1.398 . S
C2070 H2058 0.950 . S
C2070 C2069 1.398 . S
C2070 C2071 1.391 . S
C2071 H2059 0.950 . S
C2071 C2067 1.393 . S
C2071 C2070 1.391 . S
H2072 C2080 0.903 1_545 S
H2073 C2085 0.950 . S
H2074 C2082 0.950 . S
H2075 C2084 0.950 . S
H2076 C2086 0.950 . S
H2077 C2088 0.950 . S
H2078 C2090 0.950 . S
H2079 C2091 0.950 . S
C2080 H2072 0.903 1_565 S
C2080 C2081 1.386 . S
C2080 C2082 1.391 . S
C2081 C2080 1.386 . S
C2081 C2085 1.393 . S
C2082 H2074 0.950 . S
C2082 C2080 1.391 . S
C2082 C2083 1.400 . S
C2083 C2082 1.400 . S
C2083 C2084 1.398 . S
C2083 C2089 1.491 . S
C2084 H2075 0.950 . S
C2084 C2083 1.398 . S
C2084 C2085 1.391 . S
C2085 H2073 0.950 . S
C2085 C2081 1.393 . S
C2085 C2084 1.391 . S
C2086 H2076 0.950 . S
C2086 C2087 1.386 . S
C2086 C2088 1.391 . S
C2087 C2086 1.386 . S
C2087 C2091 1.393 . S
C2088 H2077 0.950 . S
C2088 C2086 1.391 . S
C2088 C2089 1.400 . S
C2089 C2083 1.491 . S
C2089 C2088 1.400 . S
C2089 C2090 1.398 . S
C2090 H2078 0.950 . S
C2090 C2089 1.398 . S
C2090 C2091 1.391 . S
C2091 H2079 0.950 . S
C2091 C2087 1.393 . S
C2091 C2090 1.391 . S
H2092 C2100 0.950 . S
H2093 C2105 0.950 . S
H2094 C2102 0.950 . S
H2095 C2104 0.950 . S
H2096 C2106 0.910 1_565 S
H2097 C2108 0.950 . S
H2098 C2110 0.950 . S
H2099 C2111 0.950 . S
C2100 H2092 0.950 . S
C2100 C2101 1.386 . S
C2100 C2102 1.391 . S
C2101 C2100 1.386 . S
C2101 C2105 1.393 . S
C2102 H2094 0.950 . S
C2102 C2100 1.391 . S
C2102 C2103 1.400 . S
C2103 C2102 1.400 . S
C2103 C2104 1.398 . S
C2103 C2109 1.491 . S
C2104 H2095 0.950 . S
C2104 C2103 1.398 . S
C2104 C2105 1.391 . S
C2105 H2093 0.950 . S
C2105 C2101 1.393 . S
C2105 C2104 1.391 . S
C2106 H2096 0.910 1_545 S
C2106 C2107 1.386 . S
C2106 C2108 1.391 . S
C2107 C2106 1.386 . S
C2107 C2111 1.393 . S
C2108 H2097 0.950 . S
C2108 C2106 1.391 . S
C2108 C2109 1.400 . S
C2109 C2103 1.491 . S
C2109 C2108 1.400 . S
C2109 C2110 1.398 . S
C2110 H2098 0.950 . S
C2110 C2109 1.398 . S
C2110 C2111 1.391 . S
C2111 H2099 0.950 . S
C2111 C2107 1.393 . S
C2111 C2110 1.391 . S
H2112 C2120 0.950 . S
H2113 C2125 0.950 . S
H2114 C2122 0.950 . S
H2115 C2124 0.950 . S
H2116 C2126 0.950 . S
H2117 C2128 0.950 . S
H2118 C2130 0.950 . S
H2119 C2131 0.950 . S
C2120 H2112 0.950 . S
C2120 C2121 1.386 . S
C2120 C2122 1.391 . S
C2121 C2120 1.386 . S
C2121 C2125 1.393 . S
C2122 H2114 0.950 . S
C2122 C2120 1.391 . S
C2122 C2123 1.400 . S
C2123 C2122 1.400 . S
C2123 C2124 1.398 . S
C2123 C2129 1.491 . S
C2124 H2115 0.950 . S
C2124 C2123 1.398 . S
C2124 C2125 1.391 . S
C2125 H2113 0.950 . S
C2125 C2121 1.393 . S
C2125 C2124 1.391 . S
C2126 H2116 0.950 . S
C2126 C2127 1.386 . S
C2126 C2128 1.391 . S
C2127 C2126 1.386 . S
C2127 C2131 1.393 . S
C2128 H2117 0.950 . S
C2128 C2126 1.391 . S
C2128 C2129 1.400 . S
C2129 C2123 1.491 . S
C2129 C2128 1.400 . S
C2129 C2130 1.398 . S
C2130 H2118 0.950 . S
C2130 C2129 1.398 . S
C2130 C2131 1.391 . S
C2131 H2119 0.950 . S
C2131 C2127 1.393 . S
C2131 C2130 1.391 . S
H2132 C2140 0.950 . S
H2133 C2145 0.950 . S
H2134 C2142 0.950 . S
H2135 C2144 0.950 . S
H2136 C2146 0.950 . S
H2137 C2148 0.950 . S
H2138 C2150 0.950 . S
H2139 C2151 0.950 . S
C2140 H2132 0.950 . S
C2140 C2141 1.386 . S
C2140 C2142 1.391 . S
C2141 C2140 1.386 . S
C2141 C2145 1.393 . S
C2142 H2134 0.950 . S
C2142 C2140 1.391 . S
C2142 C2143 1.400 . S
C2143 C2142 1.400 . S
C2143 C2144 1.398 . S
C2143 C2149 1.491 . S
C2144 H2135 0.950 . S
C2144 C2143 1.398 . S
C2144 C2145 1.391 . S
C2145 H2133 0.950 . S
C2145 C2141 1.393 . S
C2145 C2144 1.391 . S
C2146 H2136 0.950 . S
C2146 C2147 1.386 . S
C2146 C2148 1.391 . S
C2147 C2146 1.386 . S
C2147 C2151 1.393 . S
C2148 H2137 0.950 . S
C2148 C2146 1.391 . S
C2148 C2149 1.400 . S
C2149 C2143 1.491 . S
C2149 C2148 1.400 . S
C2149 C2150 1.398 . S
C2150 H2138 0.950 . S
C2150 C2149 1.398 . S
C2150 C2151 1.391 . S
C2151 H2139 0.950 . S
C2151 C2147 1.393 . S
C2151 C2150 1.391 . S
H2152 C2160 0.950 . S
H2153 C2165 0.950 . S
H2154 C2162 0.950 . S
H2155 C2164 0.950 . S
H2156 C2166 0.950 . S
H2157 C2168 0.950 . S
H2158 C2170 0.950 . S
H2159 C2171 0.950 . S
C2160 H2152 0.950 . S
C2160 C2161 1.386 . S
C2160 C2162 1.391 . S
C2161 C2160 1.386 . S
C2161 C2165 1.393 . S
C2162 H2154 0.950 . S
C2162 C2160 1.391 . S
C2162 C2163 1.400 . S
C2163 C2162 1.400 . S
C2163 C2164 1.398 . S
C2163 C2169 1.491 . S
C2164 H2155 0.950 . S
C2164 C2163 1.398 . S
C2164 C2165 1.391 . S
C2165 H2153 0.950 . S
C2165 C2161 1.393 . S
C2165 C2164 1.391 . S
C2166 H2156 0.950 . S
C2166 C2167 1.386 . S
C2166 C2168 1.391 . S
C2167 C2166 1.386 . S
C2167 C2171 1.393 . S
C2168 H2157 0.950 . S
C2168 C2166 1.391 . S
C2168 C2169 1.400 . S
C2169 C2163 1.491 . S
C2169 C2168 1.400 . S
C2169 C2170 1.398 . S
C2170 H2158 0.950 . S
C2170 C2169 1.398 . S
C2170 C2171 1.391 . S
C2171 H2159 0.950 . S
C2171 C2167 1.393 . S
C2171 C2170 1.391 . S
H2172 C2180 0.950 . S
H2173 C2185 0.950 . S
H2174 C2182 0.950 . S
H2175 C2184 0.950 . S
H2176 C2186 0.950 . S
H2177 C2188 0.950 . S
H2178 C2190 0.950 . S
H2179 C2191 0.950 . S
C2180 H2172 0.950 . S
C2180 C2181 1.386 . S
C2180 C2182 1.391 . S
C2181 C2180 1.386 . S
C2181 C2185 1.393 . S
C2182 H2174 0.950 . S
C2182 C2180 1.391 . S
C2182 C2183 1.400 . S
C2183 C2182 1.400 . S
C2183 C2184 1.398 . S
C2183 C2189 1.491 . S
C2184 H2175 0.950 . S
C2184 C2183 1.398 . S
C2184 C2185 1.391 . S
C2185 H2173 0.950 . S
C2185 C2181 1.393 . S
C2185 C2184 1.391 . S
C2186 H2176 0.950 . S
C2186 C2187 1.386 . S
C2186 C2188 1.391 . S
C2187 C2186 1.386 . S
C2187 C2191 1.393 . S
C2188 H2177 0.950 . S
C2188 C2186 1.391 . S
C2188 C2189 1.400 . S
C2189 C2183 1.491 . S
C2189 C2188 1.400 . S
C2189 C2190 1.398 . S
C2190 H2178 0.950 . S
C2190 C2189 1.398 . S
C2190 C2191 1.391 . S
C2191 H2179 0.950 . S
C2191 C2187 1.393 . S
C2191 C2190 1.391 . S
H2192 C2200 0.950 . S
H2193 C2205 0.950 . S
H2194 C2202 0.950 . S
H2195 C2204 0.950 . S
H2196 C2206 0.950 . S
H2197 C2208 0.950 . S
H2198 C2210 0.950 . S
H2199 C2211 0.950 . S
C2200 H2192 0.950 . S
C2200 C2201 1.386 . S
C2200 C2202 1.391 . S
C2201 C2200 1.386 . S
C2201 C2205 1.393 . S
C2202 H2194 0.950 . S
C2202 C2200 1.391 . S
C2202 C2203 1.400 . S
C2203 C2202 1.400 . S
C2203 C2204 1.398 . S
C2203 C2209 1.491 . S
C2204 H2195 0.950 . S
C2204 C2203 1.398 . S
C2204 C2205 1.391 . S
C2205 H2193 0.950 . S
C2205 C2201 1.393 . S
C2205 C2204 1.391 . S
C2206 H2196 0.950 . S
C2206 C2207 1.386 . S
C2206 C2208 1.391 . S
C2207 C2206 1.386 . S
C2207 C2211 1.393 . S
C2208 H2197 0.950 . S
C2208 C2206 1.391 . S
C2208 C2209 1.400 . S
C2209 C2203 1.491 . S
C2209 C2208 1.400 . S
C2209 C2210 1.398 . S
C2210 H2198 0.950 . S
C2210 C2209 1.398 . S
C2210 C2211 1.391 . S
C2211 H2199 0.950 . S
C2211 C2207 1.393 . S
C2211 C2210 1.391 . S
H2212 C2220 0.950 . S
H2213 C2225 0.950 . S
H2214 C2222 0.950 . S
H2215 C2224 0.950 . S
H2216 C2226 0.950 . S
H2217 C2228 0.950 . S
H2218 C2230 0.950 . S
H2219 C2231 0.950 . S
C2220 H2212 0.950 . S
C2220 C2221 1.386 . S
C2220 C2222 1.391 . S
C2221 C2220 1.386 . S
C2221 C2225 1.393 . S
C2222 H2214 0.950 . S
C2222 C2220 1.391 . S
C2222 C2223 1.400 . S
C2223 C2222 1.400 . S
C2223 C2224 1.398 . S
C2223 C2229 1.491 . S
C2224 H2215 0.950 . S
C2224 C2223 1.398 . S
C2224 C2225 1.391 . S
C2225 H2213 0.950 . S
C2225 C2221 1.393 . S
C2225 C2224 1.391 . S
C2226 H2216 0.950 . S
C2226 C2227 1.386 . S
C2226 C2228 1.391 . S
C2227 C2226 1.386 . S
C2227 C2231 1.393 . S
C2228 H2217 0.950 . S
C2228 C2226 1.391 . S
C2228 C2229 1.400 . S
C2229 C2223 1.491 . S
C2229 C2228 1.400 . S
C2229 C2230 1.398 . S
C2230 H2218 0.950 . S
C2230 C2229 1.398 . S
C2230 C2231 1.391 . S
C2231 H2219 0.950 . S
C2231 C2227 1.393 . S
C2231 C2230 1.391 . S
H2232 C2240 0.950 . S
H2233 C2245 0.950 . S
H2234 C2242 0.950 . S
H2235 C2244 0.950 . S
H2236 C2246 0.950 . S
H2237 C2248 0.950 . S
H2238 C2250 0.950 . S
H2239 C2251 0.950 . S
C2240 H2232 0.950 . S
C2240 C2241 1.386 . S
C2240 C2242 1.391 . S
C2241 C2240 1.386 . S
C2241 C2245 1.393 . S
C2242 H2234 0.950 . S
C2242 C2240 1.391 . S
C2242 C2243 1.400 . S
C2243 C2242 1.400 . S
C2243 C2244 1.398 . S
C2243 C2249 1.491 . S
C2244 H2235 0.950 . S
C2244 C2243 1.398 . S
C2244 C2245 1.391 . S
C2245 H2233 0.950 . S
C2245 C2241 1.393 . S
C2245 C2244 1.391 . S
C2246 H2236 0.950 . S
C2246 C2247 1.386 . S
C2246 C2248 1.391 . S
C2247 C2246 1.386 . S
C2247 C2251 1.393 . S
C2248 H2237 0.950 . S
C2248 C2246 1.391 . S
C2248 C2249 1.400 . S
C2249 C2243 1.491 . S
C2249 C2248 1.400 . S
C2249 C2250 1.398 . S
C2250 H2238 0.950 . S
C2250 C2249 1.398 . S
C2250 C2251 1.391 . S
C2251 H2239 0.950 . S
C2251 C2247 1.393 . S
C2251 C2250 1.391 . S
H2252 C2260 0.950 . S
H2253 C2265 0.950 . S
H2254 C2262 0.950 . S
H2255 C2264 0.950 . S
H2256 C2266 0.950 . S
H2257 C2268 0.950 . S
H2258 C2270 0.950 . S
H2259 C2271 0.950 . S
C2260 H2252 0.950 . S
C2260 C2261 1.386 . S
C2260 C2262 1.391 . S
C2261 C2260 1.386 . S
C2261 C2265 1.393 . S
C2262 H2254 0.950 . S
C2262 C2260 1.391 . S
C2262 C2263 1.400 . S
C2263 C2262 1.400 . S
C2263 C2264 1.398 . S
C2263 C2269 1.491 . S
C2264 H2255 0.950 . S
C2264 C2263 1.398 . S
C2264 C2265 1.391 . S
C2265 H2253 0.950 . S
C2265 C2261 1.393 . S
C2265 C2264 1.391 . S
C2266 H2256 0.950 . S
C2266 C2267 1.386 . S
C2266 C2268 1.391 . S
C2267 C2266 1.386 . S
C2267 C2271 1.393 . S
C2268 H2257 0.950 . S
C2268 C2266 1.391 . S
C2268 C2269 1.400 . S
C2269 C2263 1.491 . S
C2269 C2268 1.400 . S
C2269 C2270 1.398 . S
C2270 H2258 0.950 . S
C2270 C2269 1.398 . S
C2270 C2271 1.391 . S
C2271 H2259 0.950 . S
C2271 C2267 1.393 . S
C2271 C2270 1.391 . S
H2272 C2280 0.950 . S
H2273 C2285 0.950 . S
H2274 C2282 0.950 . S
H2275 C2284 0.950 . S
H2276 C2286 0.950 . S
H2277 C2288 0.950 . S
H2278 C2290 0.950 . S
H2279 C2291 0.950 . S
C2280 H2272 0.950 . S
C2280 C2281 1.386 . S
C2280 C2282 1.391 . S
C2281 C2280 1.386 . S
C2281 C2285 1.393 . S
C2282 H2274 0.950 . S
C2282 C2280 1.391 . S
C2282 C2283 1.400 . S
C2283 C2282 1.400 . S
C2283 C2284 1.398 . S
C2283 C2289 1.491 . S
C2284 H2275 0.950 . S
C2284 C2283 1.398 . S
C2284 C2285 1.391 . S
C2285 H2273 0.950 . S
C2285 C2281 1.393 . S
C2285 C2284 1.391 . S
C2286 H2276 0.950 . S
C2286 C2287 1.386 . S
C2286 C2288 1.391 . S
C2287 C2286 1.386 . S
C2287 C2291 1.393 . S
C2288 H2277 0.950 . S
C2288 C2286 1.391 . S
C2288 C2289 1.400 . S
C2289 C2283 1.491 . S
C2289 C2288 1.400 . S
C2289 C2290 1.398 . S
C2290 H2278 0.950 . S
C2290 C2289 1.398 . S
C2290 C2291 1.391 . S
C2291 H2279 0.950 . S
C2291 C2287 1.393 . S
C2291 C2290 1.391 . S
H2292 C2300 0.950 . S
H2293 C2305 0.950 . S
H2294 C2302 0.950 . S
H2295 C2304 0.950 . S
H2296 C2306 0.950 . S
H2297 C2308 0.950 . S
H2298 C2310 0.950 . S
H2299 C2311 0.950 . S
C2300 H2292 0.950 . S
C2300 C2301 1.386 . S
C2300 C2302 1.391 . S
C2301 C2300 1.386 . S
C2301 C2305 1.393 . S
C2302 H2294 0.950 . S
C2302 C2300 1.391 . S
C2302 C2303 1.400 . S
C2303 C2302 1.400 . S
C2303 C2304 1.398 . S
C2303 C2309 1.491 . S
C2304 H2295 0.950 . S
C2304 C2303 1.398 . S
C2304 C2305 1.391 . S
C2305 H2293 0.950 . S
C2305 C2301 1.393 . S
C2305 C2304 1.391 . S
C2306 H2296 0.950 . S
C2306 C2307 1.386 . S
C2306 C2308 1.391 . S
C2307 C2306 1.386 . S
C2307 C2311 1.393 . S
C2308 H2297 0.950 . S
C2308 C2306 1.391 . S
C2308 C2309 1.400 . S
C2309 C2303 1.491 . S
C2309 C2308 1.400 . S
C2309 C2310 1.398 . S
C2310 H2298 0.950 . S
C2310 C2309 1.398 . S
C2310 C2311 1.391 . S
C2311 H2299 0.950 . S
C2311 C2307 1.393 . S
C2311 C2310 1.391 . S
H2312 C2320 0.950 . S
H2313 C2325 0.950 . S
H2314 C2322 0.950 . S
H2315 C2324 0.950 . S
H2316 C2326 0.950 . S
H2317 C2328 0.950 . S
H2318 C2330 0.950 . S
H2319 C2331 0.950 . S
C2320 H2312 0.950 . S
C2320 C2321 1.386 . S
C2320 C2322 1.391 . S
C2321 C2320 1.386 . S
C2321 C2325 1.393 . S
C2322 H2314 0.950 . S
C2322 C2320 1.391 . S
C2322 C2323 1.400 . S
C2323 C2322 1.400 . S
C2323 C2324 1.398 . S
C2323 C2329 1.491 . S
C2324 H2315 0.950 . S
C2324 C2323 1.398 . S
C2324 C2325 1.391 . S
C2325 H2313 0.950 . S
C2325 C2321 1.393 . S
C2325 C2324 1.391 . S
C2326 H2316 0.950 . S
C2326 C2327 1.386 . S
C2326 C2328 1.391 . S
C2327 C2326 1.386 . S
C2327 C2331 1.393 . S
C2328 H2317 0.950 . S
C2328 C2326 1.391 . S
C2328 C2329 1.400 . S
C2329 C2323 1.491 . S
C2329 C2328 1.400 . S
C2329 C2330 1.398 . S
C2330 H2318 0.950 . S
C2330 C2329 1.398 . S
C2330 C2331 1.391 . S
C2331 H2319 0.950 . S
C2331 C2327 1.393 . S
C2331 C2330 1.391 . S
H2332 C2340 0.950 . S
H2333 C2345 0.950 . S
H2334 C2342 0.950 . S
H2335 C2344 0.950 . S
H2336 C2346 0.950 . S
H2337 C2348 0.950 . S
H2338 C2350 0.950 . S
H2339 C2351 0.950 . S
C2340 H2332 0.950 . S
C2340 C2341 1.386 . S
C2340 C2342 1.391 . S
C2341 C2340 1.386 . S
C2341 C2345 1.393 . S
C2342 H2334 0.950 . S
C2342 C2340 1.391 . S
C2342 C2343 1.400 . S
C2343 C2342 1.400 . S
C2343 C2344 1.398 . S
C2343 C2349 1.491 . S
C2344 H2335 0.950 . S
C2344 C2343 1.398 . S
C2344 C2345 1.391 . S
C2345 H2333 0.950 . S
C2345 C2341 1.393 . S
C2345 C2344 1.391 . S
C2346 H2336 0.950 . S
C2346 C2347 1.386 . S
C2346 C2348 1.391 . S
C2347 C2346 1.386 . S
C2347 C2351 1.393 . S
C2348 H2337 0.950 . S
C2348 C2346 1.391 . S
C2348 C2349 1.400 . S
C2349 C2343 1.491 . S
C2349 C2348 1.400 . S
C2349 C2350 1.398 . S
C2350 H2338 0.950 . S
C2350 C2349 1.398 . S
C2350 C2351 1.391 . S
C2351 H2339 0.950 . S
C2351 C2347 1.393 . S
C2351 C2350 1.391 . S
H2352 C2360 0.950 . S
H2353 C2365 0.950 . S
H2354 C2362 0.950 . S
H2355 C2364 0.950 . S
H2356 C2366 0.950 . S
H2357 C2368 0.950 . S
H2358 C2370 0.950 . S
H2359 C2371 0.950 . S
C2360 H2352 0.950 . S
C2360 C2361 1.386 . S
C2360 C2362 1.391 . S
C2361 C2360 1.386 . S
C2361 C2365 1.393 . S
C2362 H2354 0.950 . S
C2362 C2360 1.391 . S
C2362 C2363 1.400 . S
C2363 C2362 1.400 . S
C2363 C2364 1.398 . S
C2363 C2369 1.491 . S
C2364 H2355 0.950 . S
C2364 C2363 1.398 . S
C2364 C2365 1.391 . S
C2365 H2353 0.950 . S
C2365 C2361 1.393 . S
C2365 C2364 1.391 . S
C2366 H2356 0.950 . S
C2366 C2367 1.386 . S
C2366 C2368 1.391 . S
C2367 C2366 1.386 . S
C2367 C2371 1.393 . S
C2368 H2357 0.950 . S
C2368 C2366 1.391 . S
C2368 C2369 1.400 . S
C2369 C2363 1.491 . S
C2369 C2368 1.400 . S
C2369 C2370 1.398 . S
C2370 H2358 0.950 . S
C2370 C2369 1.398 . S
C2370 C2371 1.391 . S
C2371 H2359 0.950 . S
C2371 C2367 1.393 . S
C2371 C2370 1.391 . S
H2372 C2380 0.950 . S
H2373 C2385 0.950 . S
H2374 C2382 0.950 . S
H2375 C2384 0.950 . S
H2376 C2386 0.950 . S
H2377 C2388 0.950 . S
H2378 C2390 0.950 . S
H2379 C2391 0.950 . S
C2380 H2372 0.950 . S
C2380 C2381 1.386 . S
C2380 C2382 1.391 . S
C2381 C2380 1.386 . S
C2381 C2385 1.393 . S
C2382 H2374 0.950 . S
C2382 C2380 1.391 . S
C2382 C2383 1.400 . S
C2383 C2382 1.400 . S
C2383 C2384 1.398 . S
C2383 C2389 1.491 . S
C2384 H2375 0.950 . S
C2384 C2383 1.398 . S
C2384 C2385 1.391 . S
C2385 H2373 0.950 . S
C2385 C2381 1.393 . S
C2385 C2384 1.391 . S
C2386 H2376 0.950 . S
C2386 C2387 1.386 . S
C2386 C2388 1.391 . S
C2387 C2386 1.386 . S
C2387 C2391 1.393 . S
C2388 H2377 0.950 . S
C2388 C2386 1.391 . S
C2388 C2389 1.400 . S
C2389 C2383 1.491 . S
C2389 C2388 1.400 . S
C2389 C2390 1.398 . S
C2390 H2378 0.950 . S
C2390 C2389 1.398 . S
C2390 C2391 1.391 . S
C2391 H2379 0.950 . S
C2391 C2387 1.393 . S
C2391 C2390 1.391 . S
H2392 C2400 0.950 . S
H2393 C2405 0.950 . S
H2394 C2402 0.950 . S
H2395 C2404 0.950 . S
H2396 C2406 0.950 . S
H2397 C2408 0.950 . S
H2398 C2410 0.950 . S
H2399 C2411 0.950 . S
C2400 H2392 0.950 . S
C2400 C2401 1.386 . S
C2400 C2402 1.391 . S
C2401 C2400 1.386 . S
C2401 C2405 1.393 . S
C2402 H2394 0.950 . S
C2402 C2400 1.391 . S
C2402 C2403 1.400 . S
C2403 C2402 1.400 . S
C2403 C2404 1.398 . S
C2403 C2409 1.491 . S
C2404 H2395 0.950 . S
C2404 C2403 1.398 . S
C2404 C2405 1.391 . S
C2405 H2393 0.950 . S
C2405 C2401 1.393 . S
C2405 C2404 1.391 . S
C2406 H2396 0.950 . S
C2406 C2407 1.386 . S
C2406 C2408 1.391 . S
C2407 C2406 1.386 . S
C2407 C2411 1.393 . S
C2408 H2397 0.950 . S
C2408 C2406 1.391 . S
C2408 C2409 1.400 . S
C2409 C2403 1.491 . S
C2409 C2408 1.400 . S
C2409 C2410 1.398 . S
C2410 H2398 0.950 . S
C2410 C2409 1.398 . S
C2410 C2411 1.391 . S
C2411 H2399 0.950 . S
C2411 C2407 1.393 . S
C2411 C2410 1.391 . S
H2412 C2420 0.950 . S
H2413 C2425 0.950 . S
H2414 C2422 0.950 . S
H2415 C2424 0.950 . S
H2416 C2426 0.950 . S
H2417 C2428 0.950 . S
H2418 C2430 0.950 . S
H2419 C2431 0.950 . S
C2420 H2412 0.950 . S
C2420 C2421 1.386 . S
C2420 C2422 1.391 . S
C2421 C2420 1.386 . S
C2421 C2425 1.393 . S
C2422 H2414 0.950 . S
C2422 C2420 1.391 . S
C2422 C2423 1.400 . S
C2423 C2422 1.400 . S
C2423 C2424 1.398 . S
C2423 C2429 1.491 . S
C2424 H2415 0.950 . S
C2424 C2423 1.398 . S
C2424 C2425 1.391 . S
C2425 H2413 0.950 . S
C2425 C2421 1.393 . S
C2425 C2424 1.391 . S
C2426 H2416 0.950 . S
C2426 C2427 1.386 . S
C2426 C2428 1.391 . S
C2427 C2426 1.386 . S
C2427 C2431 1.393 . S
C2428 H2417 0.950 . S
C2428 C2426 1.391 . S
C2428 C2429 1.400 . S
C2429 C2423 1.491 . S
C2429 C2428 1.400 . S
C2429 C2430 1.398 . S
C2430 H2418 0.950 . S
C2430 C2429 1.398 . S
C2430 C2431 1.391 . S
C2431 H2419 0.950 . S
C2431 C2427 1.393 . S
C2431 C2430 1.391 . S
H2432 C2440 0.950 . S
H2433 C2445 0.950 . S
H2434 C2442 0.950 . S
H2435 C2444 0.950 . S
H2436 C2446 0.950 . S
H2437 C2448 0.950 . S
H2438 C2450 0.950 . S
H2439 C2451 0.950 . S
C2440 H2432 0.950 . S
C2440 C2441 1.386 . S
C2440 C2442 1.391 . S
C2441 C2440 1.386 . S
C2441 C2445 1.393 . S
C2442 H2434 0.950 . S
C2442 C2440 1.391 . S
C2442 C2443 1.400 . S
C2443 C2442 1.400 . S
C2443 C2444 1.398 . S
C2443 C2449 1.491 . S
C2444 H2435 0.950 . S
C2444 C2443 1.398 . S
C2444 C2445 1.391 . S
C2445 H2433 0.950 . S
C2445 C2441 1.393 . S
C2445 C2444 1.391 . S
C2446 H2436 0.950 . S
C2446 C2447 1.386 . S
C2446 C2448 1.391 . S
C2447 C2446 1.386 . S
C2447 C2451 1.393 . S
C2448 H2437 0.950 . S
C2448 C2446 1.391 . S
C2448 C2449 1.400 . S
C2449 C2443 1.491 . S
C2449 C2448 1.400 . S
C2449 C2450 1.398 . S
C2450 H2438 0.950 . S
C2450 C2449 1.398 . S
C2450 C2451 1.391 . S
C2451 H2439 0.950 . S
C2451 C2447 1.393 . S
C2451 C2450 1.391 . S
H2452 C2460 0.950 . S
H2453 C2465 0.950 . S
H2454 C2462 0.950 . S
H2455 C2464 0.950 . S
H2456 C2466 0.950 . S
H2457 C2468 0.950 . S
H2458 C2470 0.950 . S
H2459 C2471 0.950 . S
C2460 H2452 0.950 . S
C2460 C2461 1.386 . S
C2460 C2462 1.391 . S
C2461 C2460 1.386 . S
C2461 C2465 1.393 . S
C2462 H2454 0.950 . S
C2462 C2460 1.391 . S
C2462 C2463 1.400 . S
C2463 C2462 1.400 . S
C2463 C2464 1.398 . S
C2463 C2469 1.491 . S
C2464 H2455 0.950 . S
C2464 C2463 1.398 . S
C2464 C2465 1.391 . S
C2465 H2453 0.950 . S
C2465 C2461 1.393 . S
C2465 C2464 1.391 . S
C2466 H2456 0.950 . S
C2466 C2467 1.386 . S
C2466 C2468 1.391 . S
C2467 C2466 1.386 . S
C2467 C2471 1.393 . S
C2468 H2457 0.950 . S
C2468 C2466 1.391 . S
C2468 C2469 1.400 . S
C2469 C2463 1.491 . S
C2469 C2468 1.400 . S
C2469 C2470 1.398 . S
C2470 H2458 0.950 . S
C2470 C2469 1.398 . S
C2470 C2471 1.391 . S
C2471 H2459 0.950 . S
C2471 C2467 1.393 . S
C2471 C2470 1.391 . S
H2472 C2480 0.950 . S
H2473 C2485 0.950 . S
H2474 C2482 0.950 . S
H2475 C2484 0.950 . S
H2476 C2486 0.950 . S
H2477 C2488 0.950 . S
H2478 C2490 0.950 . S
H2479 C2491 0.950 . S
C2480 H2472 0.950 . S
C2480 C2481 1.386 . S
C2480 C2482 1.391 . S
C2481 C2480 1.386 . S
C2481 C2485 1.393 . S
C2482 H2474 0.950 . S
C2482 C2480 1.391 . S
C2482 C2483 1.400 . S
C2483 C2482 1.400 . S
C2483 C2484 1.398 . S
C2483 C2489 1.491 . S
C2484 H2475 0.950 . S
C2484 C2483 1.398 . S
C2484 C2485 1.391 . S
C2485 H2473 0.950 . S
C2485 C2481 1.393 . S
C2485 C2484 1.391 . S
C2486 H2476 0.950 . S
C2486 C2487 1.386 . S
C2486 C2488 1.391 . S
C2487 C2486 1.386 . S
C2487 C2491 1.393 . S
C2488 H2477 0.950 . S
C2488 C2486 1.391 . S
C2488 C2489 1.400 . S
C2489 C2483 1.491 . S
C2489 C2488 1.400 . S
C2489 C2490 1.398 . S
C2490 H2478 0.950 . S
C2490 C2489 1.398 . S
C2490 C2491 1.391 . S
C2491 H2479 0.950 . S
C2491 C2487 1.393 . S
C2491 C2490 1.391 . S
H2492 C2500 0.950 . S
H2493 C2505 0.950 . S
H2494 C2502 0.950 . S
H2495 C2504 0.950 . S
H2496 C2506 0.950 . S
H2497 C2508 0.950 . S
H2498 C2510 0.950 . S
H2499 C2511 0.950 . S
C2500 H2492 0.950 . S
C2500 C2501 1.386 . S
C2500 C2502 1.391 . S
C2501 C2500 1.386 . S
C2501 C2505 1.393 . S
C2502 H2494 0.950 . S
C2502 C2500 1.391 . S
C2502 C2503 1.400 . S
C2503 C2502 1.400 . S
C2503 C2504 1.398 . S
C2503 C2509 1.491 . S
C2504 H2495 0.950 . S
C2504 C2503 1.398 . S
C2504 C2505 1.391 . S
C2505 H2493 0.950 . S
C2505 C2501 1.393 . S
C2505 C2504 1.391 . S
C2506 H2496 0.950 . S
C2506 C2507 1.386 . S
C2506 C2508 1.391 . S
C2507 C2506 1.386 . S
C2507 C2511 1.393 . S
C2508 H2497 0.950 . S
C2508 C2506 1.391 . S
C2508 C2509 1.400 . S
C2509 C2503 1.491 . S
C2509 C2508 1.400 . S
C2509 C2510 1.398 . S
C2510 H2498 0.950 . S
C2510 C2509 1.398 . S
C2510 C2511 1.391 . S
C2511 H2499 0.950 . S
C2511 C2507 1.393 . S
C2511 C2510 1.391 . S
H2512 C2520 0.950 . S
H2513 C2525 0.950 . S
H2514 C2522 0.950 . S
H2515 C2524 0.950 . S
H2516 C2526 0.950 . S
H2517 C2528 0.950 . S
H2518 C2530 0.950 . S
H2519 C2531 0.950 . S
C2520 H2512 0.950 . S
C2520 C2521 1.386 . S
C2520 C2522 1.391 . S
C2521 C2520 1.386 . S
C2521 C2525 1.393 . S
C2522 H2514 0.950 . S
C2522 C2520 1.391 . S
C2522 C2523 1.400 . S
C2523 C2522 1.400 . S
C2523 C2524 1.398 . S
C2523 C2529 1.491 . S
C2524 H2515 0.950 . S
C2524 C2523 1.398 . S
C2524 C2525 1.391 . S
C2525 H2513 0.950 . S
C2525 C2521 1.393 . S
C2525 C2524 1.391 . S
C2526 H2516 0.950 . S
C2526 C2527 1.386 . S
C2526 C2528 1.391 . S
C2527 C2526 1.386 . S
C2527 C2531 1.393 . S
C2528 H2517 0.950 . S
C2528 C2526 1.391 . S
C2528 C2529 1.400 . S
C2529 C2523 1.491 . S
C2529 C2528 1.400 . S
C2529 C2530 1.398 . S
C2530 H2518 0.950 . S
C2530 C2529 1.398 . S
C2530 C2531 1.391 . S
C2531 H2519 0.950 . S
C2531 C2527 1.393 . S
C2531 C2530 1.391 . S
H2532 C2540 0.950 . S
H2533 C2545 0.950 . S
H2534 C2542 0.950 . S
H2535 C2544 0.950 . S
H2536 C2546 0.950 . S
H2537 C2548 0.950 . S
H2538 C2550 0.950 . S
H2539 C2551 0.950 . S
C2540 H2532 0.950 . S
C2540 C2541 1.386 . S
C2540 C2542 1.391 . S
C2541 C2540 1.386 . S
C2541 C2545 1.393 . S
C2542 H2534 0.950 . S
C2542 C2540 1.391 . S
C2542 C2543 1.400 . S
C2543 C2542 1.400 . S
C2543 C2544 1.398 . S
C2543 C2549 1.491 . S
C2544 H2535 0.950 . S
C2544 C2543 1.398 . S
C2544 C2545 1.391 . S
C2545 H2533 0.950 . S
C2545 C2541 1.393 . S
C2545 C2544 1.391 . S
C2546 H2536 0.950 . S
C2546 C2547 1.386 . S
C2546 C2548 1.391 . S
C2547 C2546 1.386 . S
C2547 C2551 1.393 . S
C2548 H2537 0.950 . S
C2548 C2546 1.391 . S
C2548 C2549 1.400 . S
C2549 C2543 1.491 . S
C2549 C2548 1.400 . S
C2549 C2550 1.398 . S
C2550 H2538 0.950 . S
C2550 C2549 1.398 . S
C2550 C2551 1.391 . S
C2551 H2539 0.950 . S
C2551 C2547 1.393 . S
C2551 C2550 1.391 . S
H2552 C2560 0.950 . S
H2553 C2565 0.950 . S
H2554 C2562 0.950 . S
H2555 C2564 0.950 . S
H2556 C2566 0.950 . S
H2557 C2568 0.950 . S
H2558 C2570 0.950 . S
H2559 C2571 0.950 . S
C2560 H2552 0.950 . S
C2560 C2561 1.386 . S
C2560 C2562 1.391 . S
C2561 C2560 1.386 . S
C2561 C2565 1.393 . S
C2562 H2554 0.950 . S
C2562 C2560 1.391 . S
C2562 C2563 1.400 . S
C2563 C2562 1.400 . S
C2563 C2564 1.398 . S
C2563 C2569 1.491 . S
C2564 H2555 0.950 . S
C2564 C2563 1.398 . S
C2564 C2565 1.391 . S
C2565 H2553 0.950 . S
C2565 C2561 1.393 . S
C2565 C2564 1.391 . S
C2566 H2556 0.950 . S
C2566 C2567 1.386 . S
C2566 C2568 1.391 . S
C2567 C2566 1.386 . S
C2567 C2571 1.393 . S
C2568 H2557 0.950 . S
C2568 C2566 1.391 . S
C2568 C2569 1.400 . S
C2569 C2563 1.491 . S
C2569 C2568 1.400 . S
C2569 C2570 1.398 . S
C2570 H2558 0.950 . S
C2570 C2569 1.398 . S
C2570 C2571 1.391 . S
C2571 H2559 0.950 . S
C2571 C2567 1.393 . S
C2571 C2570 1.391 . S
H2572 C2580 0.950 . S
H2573 C2585 0.950 . S
H2574 C2582 0.950 . S
H2575 C2584 0.950 . S
H2576 C2586 0.950 . S
H2577 C2588 0.950 . S
H2578 C2590 0.950 . S
H2579 C2591 0.950 . S
C2580 H2572 0.950 . S
C2580 C2581 1.386 . S
C2580 C2582 1.391 . S
C2581 C2580 1.386 . S
C2581 C2585 1.393 . S
C2582 H2574 0.950 . S
C2582 C2580 1.391 . S
C2582 C2583 1.400 . S
C2583 C2582 1.400 . S
C2583 C2584 1.398 . S
C2583 C2589 1.491 . S
C2584 H2575 0.950 . S
C2584 C2583 1.398 . S
C2584 C2585 1.391 . S
C2585 H2573 0.950 . S
C2585 C2581 1.393 . S
C2585 C2584 1.391 . S
C2586 H2576 0.950 . S
C2586 C2587 1.386 . S
C2586 C2588 1.391 . S
C2587 C2586 1.386 . S
C2587 C2591 1.393 . S
C2588 H2577 0.950 . S
C2588 C2586 1.391 . S
C2588 C2589 1.400 . S
C2589 C2583 1.491 . S
C2589 C2588 1.400 . S
C2589 C2590 1.398 . S
C2590 H2578 0.950 . S
C2590 C2589 1.398 . S
C2590 C2591 1.391 . S
C2591 H2579 0.950 . S
C2591 C2587 1.393 . S
C2591 C2590 1.391 . S
C681 C93 1.091 . S
C687 C9 1.097 . S
C701 C23 1.105 . S
C707 C107 1.096 . S
C721 C37 1.089 . S
C727 C65 1.091 . S
C741 C79 1.098 . S
C747 C51 1.091 . S
C761 C485 1.096 . S
C767 C121 1.105 . S
C781 C499 1.092 . S
C787 C135 1.089 . S
C801 C149 1.117 . S
C807 C457 1.112 . S
C821 C163 1.090 . S
C827 C471 1.091 . S
C841 C541 1.115 . S
C847 C177 1.108 . S
C861 C555 1.113 . S
C867 C191 1.104 . S
C881 C513 1.100 . S
C887 C205 1.093 . S
C901 C527 1.108 . S
C907 C219 1.099 . S
C921 C233 1.111 . S
C927 C583 1.117 . S
C941 C247 1.090 . S
C947 C569 1.090 . S
C961 C261 1.099 . S
C967 C331 1.092 . S
C981 C639 1.118 . S
C987 C275 1.116 . S
C1001 C653 1.101 . S
C1007 C289 1.093 . S
C1021 C611 1.094 . S
C1027 C303 1.102 . S
C1041 C625 1.094 . S
C1047 C317 1.090 . S
C1061 C429 1.105 . S
C1067 C345 1.113 . S
C1081 C443 1.113 . S
C1087 C359 1.117 . S
C1101 C373 1.102 . S
C1107 C401 1.111 . S
C1121 C387 1.094 . S
C1127 C415 1.102 . S
C1141 C667 1.096 . S
C1147 C597 1.090 . S
C1161 C229 1.128 . S
C1167 C0 1.157 . S
C1181 C14 1.136 . S
C1187 C663 1.151 . S
C1201 C28 1.135 . S
C1207 C299 1.150 . S
C1221 C649 1.145 . S
C1227 C42 1.138 . S
C1241 C56 1.147 . S
C1247 C579 1.133 . S
C1261 C593 1.132 . S
C1267 C70 1.155 . S
C1281 C84 1.158 . S
C1287 C607 1.123 . S
C1301 C285 1.136 . S
C1307 C98 1.151 . S
C1321 C112 1.138 . S
C1327 C5 1.145 . S
C1341 C19 1.140 . S
C1347 C126 1.141 . S
C1361 C140 1.156 . S
C1367 C33 1.124 . S
C1381 C154 1.149 . S
C1387 C47 1.139 . S
C1401 C168 1.152 . S
C1407 C61 1.127 . S
C1421 C75 1.149 . S
C1427 C182 1.140 . S
C1441 C196 1.154 . S
C1447 C89 1.125 . S
C1461 C210 1.151 . S
C1467 C103 1.136 . S
C1481 C224 1.158 . S
C1487 C117 1.127 . S
C1501 C238 1.137 . S
C1507 C509 1.147 . S
C1521 C523 1.134 . S
C1527 C252 1.153 . S
C1541 C537 1.145 . S
C1547 C266 1.144 . S
C1561 C280 1.158 . S
C1567 C215 1.123 . S
C1581 C294 1.152 . S
C1587 C145 1.135 . S
C1601 C495 1.151 . S
C1607 C308 1.136 . S
C1621 C467 1.141 . S
C1627 C322 1.141 . S
C1641 C336 1.146 . S
C1647 C565 1.134 . S
C1661 C350 1.145 . S
C1667 C327 1.144 . S
C1681 C364 1.147 . S
C1687 C635 1.142 . S
C1701 C378 1.157 . S
C1707 C313 1.123 . S
C1721 C392 1.138 . S
C1727 C243 1.151 . S
C1741 C257 1.132 . S
C1747 C406 1.154 . S
C1761 C271 1.127 . S
C1767 C420 1.152 . S
C1781 C621 1.151 . S
C1787 C434 1.136 . S
C1801 C341 1.146 . S
C1807 C448 1.137 . S
C1821 C355 1.132 . S
C1827 C462 1.154 . S
C1841 C476 1.139 . S
C1847 C369 1.150 . S
C1861 C383 1.129 . S
C1867 C490 1.150 . S
C1881 C504 1.143 . S
C1887 C397 1.146 . S
C1901 C411 1.123 . S
C1907 C518 1.158 . S
C1921 C532 1.157 . S
C1927 C425 1.127 . S
C1941 C439 1.124 . S
C1947 C546 1.155 . S
C1961 C560 1.135 . S
C1967 C453 1.151 . S
C1981 C574 1.154 . S
C1987 C173 1.125 . S
C2001 C187 1.141 . S
C2007 C588 1.140 . S
C2021 C602 1.146 . S
C2027 C201 1.134 . S
C2041 C616 1.135 . S
C2047 C551 1.150 . S
C2061 C481 1.131 . S
C2067 C630 1.155 . S
C2081 C644 1.159 . S
C2087 C159 1.123 . S
C2101 C131 1.149 . S
C2107 C658 1.136 . S
C2121 C137 0.649 . S
C2127 C11 0.647 . S
C2141 C25 0.625 . S
C2147 C151 0.619 . S
C2161 C165 0.649 . S
C2167 C39 0.642 . S
C2181 C123 0.643 . S
C2187 C53 0.632 . S
C2201 C67 0.621 . S
C2207 C221 0.630 . S
C2221 C81 0.633 . S
C2227 C179 0.644 . S
C2241 C193 0.624 . S
C2247 C95 0.635 . S
C2261 C207 0.646 . S
C2267 C109 0.637 . S
C2281 C235 0.635 . S
C2287 C263 0.624 . S
C2301 C249 0.624 . S
C2307 C655 0.619 . S
C2321 C277 0.627 . S
C2327 C669 0.638 . S
C2341 C641 0.619 . S
C2347 C291 0.626 . S
C2361 C627 0.633 . S
C2367 C305 0.644 . S
C2381 C585 0.648 . S
C2387 C319 0.640 . S
C2401 C333 0.621 . S
C2407 C613 0.629 . S
C2421 C473 0.646 . S
C2427 C347 0.637 . S
C2441 C487 0.621 . S
C2447 C361 0.630 . S
C2461 C375 0.619 . S
C2467 C501 0.623 . S
C2481 C459 0.628 . S
C2487 C389 0.640 . S
C2501 C557 0.646 . S
C2507 C403 0.649 . S
C2521 C515 0.628 . S
C2527 C417 0.639 . S
C2541 C431 0.649 . S
C2547 C529 0.646 . S
C2561 C543 0.640 . S
C2567 C445 0.648 . S
C2581 C599 0.644 . S
C2587 C571 0.633 . S
