# Generated by pormake.
# Topology lcy-e, (6)-cn, num edge types: 1
# Building blocks:
#     Node 0, Type 0, BuildingBlock: JUFBIX_clean_sbu_0, # of connection points: 6
#     Node 1, Type 0, BuildingBlock: JUFBIX_clean_sbu_0, # of connection points: 6
#     Node 2, Type 0, BuildingBlock: JUFBIX_clean_sbu_0, # of connection points: 6
#     Node 3, Type 0, BuildingBlock: JUFBIX_clean_sbu_0, # of connection points: 6
#     Node 4, Type 0, BuildingBlock: JUFBIX_clean_sbu_0, # of connection points: 6
#     Node 5, Type 0, BuildingBlock: JUFBIX_clean_sbu_0, # of connection points: 6
#     Node 6, Type 0, BuildingBlock: JUFBIX_clean_sbu_0, # of connection points: 6
#     Node 7, Type 0, BuildingBlock: JUFBIX_clean_sbu_0, # of connection points: 6
#     Node 8, Type 0, BuildingBlock: JUFBIX_clean_sbu_0, # of connection points: 6
#     Node 9, Type 0, BuildingBlock: JUFBIX_clean_sbu_0, # of connection points: 6
#     Node 10, Type 0, BuildingBlock: JUFBIX_clean_sbu_0, # of connection points: 6
#     Node 11, Type 0, BuildingBlock: JUFBIX_clean_sbu_0, # of connection points: 6
#     Edge 12, Type (0, 0), BuildingBlock: EZIPEK_clean_linker_0, # of connection points: 2
#     Edge 13, Type (0, 0), BuildingBlock: EZIPEK_clean_linker_0, # of connection points: 2
#     Edge 14, Type (0, 0), BuildingBlock: EZIPEK_clean_linker_0, # of connection points: 2
#     Edge 15, Type (0, 0), BuildingBlock: EZIPEK_clean_linker_0, # of connection points: 2
#     Edge 16, Type (0, 0), BuildingBlock: EZIPEK_clean_linker_0, # of connection points: 2
#     Edge 17, Type (0, 0), BuildingBlock: EZIPEK_clean_linker_0, # of connection points: 2
#     Edge 18, Type (0, 0), BuildingBlock: EZIPEK_clean_linker_0, # of connection points: 2
#     Edge 19, Type (0, 0), BuildingBlock: EZIPEK_clean_linker_0, # of connection points: 2
#     Edge 20, Type (0, 0), BuildingBlock: EZIPEK_clean_linker_0, # of connection points: 2
#     Edge 21, Type (0, 0), BuildingBlock: EZIPEK_clean_linker_0, # of connection points: 2
#     Edge 22, Type (0, 0), BuildingBlock: EZIPEK_clean_linker_0, # of connection points: 2
#     Edge 23, Type (0, 0), BuildingBlock: EZIPEK_clean_linker_0, # of connection points: 2
#     Edge 24, Type (0, 0), BuildingBlock: EZIPEK_clean_linker_0, # of connection points: 2
#     Edge 25, Type (0, 0), BuildingBlock: EZIPEK_clean_linker_0, # of connection points: 2
#     Edge 26, Type (0, 0), BuildingBlock: EZIPEK_clean_linker_0, # of connection points: 2
#     Edge 27, Type (0, 0), BuildingBlock: EZIPEK_clean_linker_0, # of connection points: 2
#     Edge 28, Type (0, 0), BuildingBlock: EZIPEK_clean_linker_0, # of connection points: 2
#     Edge 29, Type (0, 0), BuildingBlock: EZIPEK_clean_linker_0, # of connection points: 2
#     Edge 30, Type (0, 0), BuildingBlock: EZIPEK_clean_linker_0, # of connection points: 2
#     Edge 31, Type (0, 0), BuildingBlock: EZIPEK_clean_linker_0, # of connection points: 2
#     Edge 32, Type (0, 0), BuildingBlock: EZIPEK_clean_linker_0, # of connection points: 2
#     Edge 33, Type (0, 0), BuildingBlock: EZIPEK_clean_linker_0, # of connection points: 2
#     Edge 34, Type (0, 0), BuildingBlock: EZIPEK_clean_linker_0, # of connection points: 2
#     Edge 35, Type (0, 0), BuildingBlock: EZIPEK_clean_linker_0, # of connection points: 2
#     Edge 36, Type (0, 0), BuildingBlock: EZIPEK_clean_linker_0, # of connection points: 2
#     Edge 37, Type (0, 0), BuildingBlock: EZIPEK_clean_linker_0, # of connection points: 2
#     Edge 38, Type (0, 0), BuildingBlock: EZIPEK_clean_linker_0, # of connection points: 2
#     Edge 39, Type (0, 0), BuildingBlock: EZIPEK_clean_linker_0, # of connection points: 2
#     Edge 40, Type (0, 0), BuildingBlock: EZIPEK_clean_linker_0, # of connection points: 2
#     Edge 41, Type (0, 0), BuildingBlock: EZIPEK_clean_linker_0, # of connection points: 2
#     Edge 42, Type (0, 0), BuildingBlock: EZIPEK_clean_linker_0, # of connection points: 2
#     Edge 43, Type (0, 0), BuildingBlock: EZIPEK_clean_linker_0, # of connection points: 2
#     Edge 44, Type (0, 0), BuildingBlock: EZIPEK_clean_linker_0, # of connection points: 2
#     Edge 45, Type (0, 0), BuildingBlock: EZIPEK_clean_linker_0, # of connection points: 2
#     Edge 46, Type (0, 0), BuildingBlock: EZIPEK_clean_linker_0, # of connection points: 2
#     Edge 47, Type (0, 0), BuildingBlock: EZIPEK_clean_linker_0, # of connection points: 2
# Relax obj value: 0.534
# Max RMSD: 0.363
# Mean RMSD: 0.291
data_MOF--net-lcy-e--node1-JUFBIX_clean_sbu_0--edge1-EZIPEK_clean_linker_0
_symmetry_space_group_name_H-M    P1
_symmetry_Int_Tables_number       1
_symmetry_cell_setting            triclinic
loop_
_symmetry_equiv_pos_as_xyz
'x, y, z'
_cell_length_a     27.167728
_cell_length_b     29.717377
_cell_length_c     27.107537
_cell_angle_alpha  87.744109
_cell_angle_beta   89.995781
_cell_angle_gamma 82.381292
loop_
_atom_site_label
_atom_site_type_symbol
_atom_site_fract_x
_atom_site_fract_y
_atom_site_fract_z
_atom_type_partial_charge
Co0 Co 0.20511 0.22585 0.46648 0.0
C1 C 0.11058 0.23478 0.5134 0.0
Co2 Co 0.15913 0.17382 0.44529 0.0
C3 C 0.24147 0.31168 0.45412 0.0
C4 C 0.2424 0.28777 0.52974 0.0
N5 N 0.23614 0.27472 0.48323 0.0
N6 N 0.2479 0.34753 0.48091 0.0
C7 C 0.24947 0.33261 0.5284 0.0
H8 H 0.23686 0.31364 0.41441 0.0
H9 H 0.23773 0.26747 0.56283 0.0
C10 C 0.25836 0.16775 0.40366 0.0
N11 N 0.12409 0.12612 0.4282 0.0
C12 C 0.07857 0.12885 0.40687 0.0
C13 C 0.13954 0.08111 0.43358 0.0
N14 N 0.06508 0.08744 0.39906 0.0
C15 C 0.10333 0.05732 0.41596 0.0
C16 C 0.14822 0.24462 0.37863 0.0
O17 O 0.26008 0.20264 0.42876 0.0
O18 O 0.21823 0.14891 0.40466 0.0
O19 O 0.13223 0.20746 0.38899 0.0
O20 O 0.17735 0.2594 0.40891 0.0
O21 O 0.10244 0.20076 0.48814 0.0
H22 H 0.17498 0.06645 0.44919 0.0
H23 H 0.0555 0.16058 0.39741 0.0
O24 O 0.1515 0.24977 0.50586 0.0
O25 O 0.23191 0.19135 0.52274 0.0
O26 O 0.18579 0.13996 0.50099 0.0
C27 C 0.21583 0.15359 0.53104 0.0
H28 H 0.253 0.35339 0.55981 0.0
H29 H 0.1049 0.02074 0.4155 0.0
Co30 Co 0.04787 0.86693 0.7026 0.0
C31 C 0.98932 0.9383 0.74294 0.0
Co32 Co 0.08099 0.92925 0.6921 0.0
C33 C 0.04756 0.7753 0.72493 0.0
C34 C 0.97303 0.806 0.71086 0.0
N35 N 0.02083 0.81319 0.70616 0.0
N36 N 0.0192 0.7478 0.74832 0.0
C37 C 0.97195 0.76551 0.73745 0.0
H38 H 0.08703 0.77273 0.73152 0.0
H39 H 0.94148 0.83175 0.70395 0.0
C40 C 0.13234 0.85623 0.64769 0.0
N41 N 0.11007 0.98174 0.69105 0.0
C42 C 0.13233 1.0036 0.6547 0.0
C43 C 0.1181 1.00385 0.73236 0.0
N44 N 0.1542 0.03798 0.67218 0.0
C45 C 0.14591 0.03797 0.721 0.0
C46 C 0.11766 0.87476 0.77709 0.0
O47 O 0.10066 0.83758 0.6718 0.0
O48 O 0.1327 0.89889 0.65079 0.0
O49 O 0.12134 0.90997 0.75023 0.0
O50 O 0.08338 0.85133 0.76619 0.0
O51 O 0.02612 0.95931 0.73181 0.0
H52 H 0.10543 0.99504 0.76884 0.0
H53 H 0.13326 0.99415 0.6165 0.0
O54 O 0.99253 0.89656 0.73399 0.0
O55 O 1.01563 0.88164 0.63945 0.0
O56 O 0.04359 0.94761 0.63291 0.0
C57 C 0.01913 0.91841 0.61472 0.0
H58 H 0.93952 0.75516 0.75558 0.0
H59 H 0.15842 0.0615 0.74622 0.0
Co60 Co 0.33523 0.77778 0.9995 0.0
C61 C 0.42857 0.77924 0.04213 0.0
Co62 Co 0.3822 0.82485 0.95964 0.0
C63 C 0.31507 0.68721 0.03596 0.0
C64 C 0.25485 0.73787 0.05307 0.0
N65 N 0.30029 0.73306 0.0325 0.0
N66 N 0.28071 0.66322 0.0571 0.0
C67 C 0.2429 0.69551 0.06815 0.0
H68 H 0.35047 0.67148 0.02279 0.0
H69 H 0.23116 0.76994 0.05558 0.0
C70 C 0.28388 0.82547 0.91925 0.0
N71 N 0.42313 0.86307 0.92447 0.0
C72 C 0.46519 0.87989 0.93851 0.0
C73 C 0.42052 0.87222 0.87525 0.0
N74 N 0.4885 0.89865 0.89993 0.0
C75 C 0.46016 0.89395 0.86027 0.0
C76 C 0.39185 0.73944 0.92239 0.0
O77 O 0.27976 0.79725 0.9554 0.0
O78 O 0.32517 0.84183 0.9137 0.0
O79 O 0.40652 0.77814 0.91949 0.0
O80 O 0.35941 0.73248 0.95442 0.0
O81 O 0.43543 0.80722 1.00677 0.0
H82 H 0.39273 0.86188 0.85112 0.0
H83 H 0.47952 0.87708 0.97591 0.0
O84 O 0.38935 0.7602 0.04273 0.0
O85 O 0.31353 0.8262 0.04433 0.0
O86 O 0.35818 0.87065 1.00058 0.0
C87 C 0.33125 0.86409 0.03792 0.0
H88 H 0.20813 0.6888 0.08455 0.0
H89 H 0.46818 0.90472 0.82284 0.0
Co90 Co 0.52062 0.14855 0.22325 0.0
C91 C 0.5697 0.06252 0.24613 0.0
Co92 Co 0.4802 0.09666 0.197 0.0
C93 C 0.55627 0.1992 0.29856 0.0
C94 C 0.57908 0.22429 0.22831 0.0
N95 N 0.55531 0.19161 0.24983 0.0
N96 N 0.579 0.23528 0.30851 0.0
C97 C 0.59386 0.25127 0.26453 0.0
H98 H 0.53996 0.17905 0.3267 0.0
H99 H 0.5838 0.22909 0.18892 0.0
C100 C 0.44214 0.18809 0.17004 0.0
N101 N 0.43682 0.05581 0.17609 0.0
C102 C 0.43852 0.01648 0.1517 0.0
C103 C 0.38799 0.06618 0.18707 0.0
N104 N 0.39277 1.00281 0.14827 0.0
C105 C 0.36139 0.03405 0.17055 0.0
C106 C 0.44135 0.12985 0.2859 0.0
O107 O 0.48387 0.19402 0.18634 0.0
O108 O 0.43067 0.14777 0.17303 0.0
O109 O 0.44542 0.0956 0.25931 0.0
O110 O 0.47211 0.15799 0.27775 0.0
O111 O 0.53491 0.04862 0.22062 0.0
H112 H 0.37188 0.09596 0.20592 0.0
H113 H 0.47201 0.99877 0.1362 0.0
O114 O 0.56182 0.10281 0.26065 0.0
O115 O 0.56506 0.13931 0.16652 0.0
O116 O 0.51402 0.09667 0.13459 0.0
C117 C 0.55356 0.1155 0.13099 0.0
H118 H 0.61269 0.28096 0.25901 0.0
H119 H 0.32161 0.03412 0.17335 0.0
Co120 Co 0.71516 0.34003 0.51274 0.0
C121 C 0.62662 0.31346 0.48361 0.0
Co122 Co 0.6536 0.36343 0.56095 0.0
C123 C 0.79593 0.27771 0.48269 0.0
C124 C 0.76926 0.3237 0.42362 0.0
N125 N 0.76649 0.31687 0.47279 0.0
N126 N 0.81246 0.25635 0.44166 0.0
C127 C 0.79717 0.2868 0.40445 0.0
H128 H 0.7982 0.2613 0.51886 0.0
H129 H 0.74648 0.34992 0.40205 0.0
C130 C 0.74656 0.38656 0.58799 0.0
N131 N 0.60256 0.38663 0.59984 0.0
C132 C 0.55614 0.39938 0.58325 0.0
C133 C 0.6033 0.40178 0.6461 0.0
N134 N 0.52855 0.42402 0.61597 0.0
C135 C 0.55755 0.42549 0.65594 0.0
C136 C 0.69843 0.28165 0.59659 0.0
O137 O 0.75868 0.36928 0.54726 0.0
O138 O 0.7013 0.3893 0.60144 0.0
O139 O 0.66188 0.31168 0.60295 0.0
O140 O 0.72681 0.28684 0.55993 0.0
O141 O 0.60824 0.33564 0.51991 0.0
H142 H 0.63583 0.39892 0.66959 0.0
H143 H 0.54438 0.39595 0.5456 0.0
O144 O 0.67275 0.31012 0.47608 0.0
O145 O 0.70198 0.39193 0.46882 0.0
O146 O 0.64275 0.41757 0.51885 0.0
C147 C 0.66662 0.42232 0.47911 0.0
H148 H 0.79886 0.28122 0.36546 0.0
H149 H 0.54767 0.4454 0.68793 0.0
Co150 Co 1.00653 0.4022 0.74816 0.0
C151 C 0.02141 0.32193 0.69307 0.0
Co152 Co 0.97134 0.34523 0.78378 0.0
C153 C 0.08731 0.45231 0.71373 0.0
C154 C 1.01596 0.49259 0.71415 0.0
N155 N 0.03857 0.44952 0.72159 0.0
N156 N 0.09551 0.49537 0.70212 0.0
C157 C 0.05075 0.52071 0.70217 0.0
H158 H 0.1163 0.42373 0.71718 0.0
H159 H 0.97675 0.50337 0.71929 0.0
C160 C 0.96027 0.42829 0.83627 0.0
N161 N 0.93436 0.29975 0.81355 0.0
C162 C 0.94377 0.25543 0.83069 0.0
C163 C 0.8853 0.31071 0.82207 0.0
N164 N 0.9021 0.23894 0.84833 0.0
C165 C 0.86572 0.27408 0.84247 0.0
C166 C 0.06635 0.34518 0.81666 0.0
O167 O 0.98575 0.44044 0.80032 0.0
O168 O 0.94758 0.38812 0.83685 0.0
O169 O 0.02823 0.32469 0.82233 0.0
O170 O 0.06415 0.37885 0.78573 0.0
O171 O 0.99773 0.30496 0.72905 0.0
H172 H 0.8645 0.34384 0.81434 0.0
H173 H 0.98026 0.23575 0.83044 0.0
O174 O 0.02794 0.36364 0.69513 0.0
O175 O 0.94797 0.42462 0.71129 0.0
O176 O 0.91498 0.36713 0.74401 0.0
C177 C 0.91135 0.40238 0.71564 0.0
H178 H 0.04398 0.55709 0.69482 0.0
H179 H 0.82734 0.27343 0.85295 0.0
Co180 Co 0.9788 0.64503 0.02816 0.0
C181 C 0.88808 0.69539 0.99517 0.0
Co182 Co 0.91339 0.62384 0.06242 0.0
C183 C 0.0344 0.66633 0.94727 0.0
C184 C 0.07696 0.67032 1.01283 0.0
N185 N 0.03217 0.6623 0.9964 0.0
N186 N 0.07844 0.67659 0.93172 0.0
C187 C 0.10557 0.67975 0.97265 0.0
H188 H 1.00344 0.66326 0.92299 0.0
H189 H 0.08778 0.66981 0.05128 0.0
C190 C 1.00378 0.58078 0.09946 0.0
N191 N 0.86333 0.60304 0.09649 0.0
C192 C 0.81724 0.59841 0.08159 0.0
C193 C 0.86526 0.59086 0.14503 0.0
N194 N 0.78997 0.58559 0.11967 0.0
C195 C 0.8202 0.57986 0.15926 0.0
C196 C 0.94285 0.57125 0.98167 0.0
O197 O 0.02244 0.60462 0.06686 0.0
O198 O 0.95728 0.58322 0.10213 0.0
O199 O 0.90994 0.57705 1.01493 0.0
O200 O 0.976 0.59777 0.97992 0.0
O201 O 0.86875 0.66765 0.02394 0.0
H202 H 0.89633 0.59288 0.16941 0.0
H203 H 0.80238 0.60928 0.04537 0.0
O204 O 0.93497 0.68845 0.98954 0.0
O205 O 0.98167 0.69128 0.07559 0.0
O206 O 0.91535 0.66935 0.10958 0.0
C207 C 0.94793 0.69618 0.10826 0.0
H208 H 0.14217 0.69012 0.97343 0.0
H209 H 0.80867 0.57343 0.19685 0.0
Co210 Co 0.53015 0.61899 0.27309 0.0
C211 C 0.52359 0.70586 0.22224 0.0
Co212 Co 0.57826 0.6662 0.30201 0.0
C213 C 0.4553 0.56304 0.27352 0.0
C214 C 0.45332 0.60471 0.20794 0.0
N215 N 0.48454 0.58557 0.24405 0.0
N216 N 0.40653 0.57345 0.26198 0.0
C217 C 0.40558 0.60073 0.2212 0.0
H218 H 0.46901 0.54462 0.30698 0.0
H219 H 0.46297 0.62696 0.17807 0.0
C220 C 0.58923 0.57587 0.34722 0.0
N221 N 0.61896 0.70091 0.33486 0.0
C222 C 0.64975 0.73135 0.32132 0.0
C223 C 0.62003 0.6998 0.38481 0.0
N224 N 0.66979 0.74807 0.3613 0.0
C225 C 0.65132 0.72823 0.40104 0.0
C226 C 0.48698 0.66948 0.34902 0.0
O227 O 0.55546 0.56899 0.31685 0.0
O228 O 0.60243 0.61541 0.34746 0.0
O229 O 0.52671 0.68723 0.34664 0.0
O230 O 0.48066 0.63892 0.31952 0.0
O231 O 0.5556 0.71612 0.2531 0.0
H232 H 0.59731 0.6813 0.40843 0.0
H233 H 0.65612 0.74202 0.28347 0.0
O234 O 0.50719 0.66847 0.22938 0.0
O235 O 0.57936 0.59965 0.22751 0.0
O236 O 0.62856 0.64494 0.25826 0.0
C237 C 0.62048 0.61577 0.22704 0.0
H238 H 0.37303 0.62046 0.20467 0.0
H239 H 0.6581 0.73576 0.43902 0.0
Co240 Co 0.24853 0.41572 0.18893 0.0
C241 C 0.26154 0.47312 0.10617 0.0
Co242 Co 0.2087 0.39824 0.12355 0.0
C243 C 0.26841 0.44765 0.28405 0.0
C244 C 0.33482 0.41946 0.2484 0.0
N245 N 0.28521 0.42658 0.24311 0.0
N246 N 0.30549 0.45892 0.3123 0.0
C247 C 0.34729 0.43862 0.2909 0.0
H248 H 0.2297 0.45973 0.28992 0.0
H249 H 0.36067 0.40536 0.22097 0.0
C250 C 0.19088 0.3491 0.21127 0.0
N251 N 0.17046 0.38452 0.07137 0.0
C252 C 0.18316 0.37404 0.02465 0.0
C253 C 0.12156 0.38074 0.0744 0.0
N254 N 0.14374 0.36458 0.99856 0.0
C255 C 0.10512 0.36846 0.02976 0.0
C256 C 0.29791 0.34559 0.13304 0.0
O257 O 0.22262 0.37199 0.22779 0.0
O258 O 0.18004 0.35314 0.16536 0.0
O259 O 0.26065 0.35363 0.10462 0.0
O260 O 0.30047 0.3705 0.16979 0.0
O261 O 0.23602 0.44637 0.08421 0.0
H262 H 0.09936 0.38584 0.10733 0.0
H263 H 0.22039 0.3731 1.01013 0.0
O264 O 0.27475 0.46293 0.15076 0.0
O265 O 0.19466 0.46002 0.20716 0.0
O266 O 0.15749 0.44094 0.14109 0.0
C267 C 0.15714 0.46456 0.17865 0.0
H268 H 0.38478 0.444 0.30021 0.0
H269 H 0.06796 0.36193 0.02103 0.0
Co270 Co 0.76101 1.00809 0.92135 0.0
C271 C 0.79638 0.99768 0.82507 0.0
Co272 Co 0.72238 0.05861 0.86695 0.0
C273 C 0.79573 0.91511 0.95064 0.0
C274 C 0.81419 0.95823 1.00722 0.0
N275 N 0.79191 0.95946 0.96259 0.0
N276 N 0.8193 0.88645 0.98557 0.0
C277 C 0.83118 0.9134 0.02135 0.0
H278 H 0.78176 0.90386 0.9165 0.0
H279 H 0.81819 0.9879 0.02796 0.0
C280 C 0.68969 0.06873 0.9662 0.0
N281 N 0.69295 0.1027 0.82077 0.0
C282 C 0.71722 0.1258 0.78645 0.0
C283 C 0.64437 0.11553 0.81062 0.0
N284 N 0.68582 0.15191 0.75518 0.0
C285 C 0.63991 0.14585 0.77035 0.0
C286 C 0.66953 0.98506 0.88278 0.0
O287 O 0.72418 0.03572 0.97459 0.0
O288 O 0.68292 0.08542 0.92189 0.0
O289 O 0.67068 0.02097 0.85576 0.0
O290 O 0.70645 0.97217 0.9114 0.0
O291 O 0.76331 0.03109 0.81427 0.0
H292 H 0.61415 0.10307 0.83062 0.0
H293 H 0.75724 0.12329 0.78407 0.0
O294 O 0.79779 0.98155 0.86902 0.0
O295 O 0.81473 0.04674 0.93024 0.0
O296 O 0.77235 0.09599 0.87837 0.0
C297 C 0.81044 0.08489 0.90542 0.0
H298 H 0.85128 0.9016 0.05489 0.0
H299 H 0.60569 0.16216 0.75345 0.0
Co300 Co 0.81387 0.9738 0.39362 0.0
C301 C 0.76809 0.97746 0.30078 0.0
Co302 Co 0.85875 0.93432 0.33857 0.0
C303 C 0.79521 0.04804 0.45398 0.0
C304 C 0.72685 0.02352 0.43876 0.0
N305 N 0.77663 0.01266 0.4355 0.0
N306 N 0.76016 0.08255 0.46344 0.0
C307 C 0.71652 0.06689 0.4562 0.0
H308 H 0.83384 0.05212 0.45259 0.0
H309 H 0.70005 1.00456 0.42262 0.0
C310 C 0.90014 0.93346 0.43604 0.0
N311 N 0.89757 0.89568 0.29669 0.0
C312 C 0.88514 0.86435 0.2656 0.0
C313 C 0.94757 0.89233 0.29401 0.0
N314 N 0.9256 0.84177 0.24414 0.0
C315 C 0.96484 0.85927 0.26187 0.0
C316 C 0.889 0.01782 0.34219 0.0
O317 O 0.85826 0.95565 0.44458 0.0
O318 O 0.90854 0.91891 0.39256 0.0
O319 O 0.89473 0.98192 0.31816 0.0
O320 O 0.85438 0.02143 0.37417 0.0
O321 O 0.8069 0.95171 0.28684 0.0
H322 H 0.97023 0.91233 0.3147 0.0
H323 H 0.84746 0.85764 0.25947 0.0
O324 O 0.7675 0.99265 0.34369 0.0
O325 O 0.77677 0.92634 0.41137 0.0
O326 O 0.82361 0.88653 0.35827 0.0
C327 C 0.78719 0.89017 0.38783 0.0
H328 H 0.68058 0.08757 0.45561 0.0
H329 H 1.00321 0.84858 0.2524 0.0
Co330 Co 0.28904 0.62208 0.54374 0.0
C331 C 0.2522 0.59174 0.63502 0.0
Co332 Co 0.32924 0.63858 0.61028 0.0
C333 C 0.26968 0.56846 0.46371 0.0
C334 C 0.20339 0.59682 0.49925 0.0
N335 N 0.25127 0.60284 0.49242 0.0
N336 N 0.23835 0.53694 0.45988 0.0
C337 C 0.19594 0.55592 0.48083 0.0
H338 H 0.30714 0.56508 0.44989 0.0
H339 H 0.17848 0.61583 0.52435 0.0
C340 C 0.36505 0.66609 0.51668 0.0
N341 N 0.36855 0.65353 0.66093 0.0
C342 C 0.35681 0.6714 0.70499 0.0
C343 C 0.41839 0.64178 0.66265 0.0
N344 N 0.3975 0.67034 0.73381 0.0
C345 C 0.43612 0.65158 0.70747 0.0
C346 C 0.36412 0.55598 0.5778 0.0
O347 O 0.33064 0.64656 0.49907 0.0
O348 O 0.37082 0.66648 0.56335 0.0
O349 O 0.36988 0.58478 0.60888 0.0
O350 O 0.33097 0.56508 0.54477 0.0
O351 O 0.28696 0.60908 0.65591 0.0
H352 H 0.44035 0.62427 0.63441 0.0
H353 H 0.31923 0.68266 0.71668 0.0
O354 O 0.24705 0.59717 0.58885 0.0
O355 O 0.24935 0.67889 0.54454 0.0
O356 O 0.28814 0.69346 0.61265 0.0
C357 C 0.25608 0.70543 0.57901 0.0
H358 H 0.16371 0.53881 0.48804 0.0
H359 H 0.47412 0.64427 0.72053 0.0
C360 C 0.29255 0.41289 0.47595 0.0
C361 C 0.25028 0.39343 0.46385 0.0
C362 C 0.2117 0.46696 0.42945 0.0
C363 C 0.24931 0.48854 0.4515 0.0
N364 N 0.32684 0.47833 0.49868 0.0
N365 N 0.16615 0.40224 0.4334 0.0
C366 C 0.29023 0.46059 0.47525 0.0
C367 C 0.2091 0.42022 0.44076 0.0
N368 N 0.33576 0.38534 0.48731 0.0
N369 N 0.17749 0.4918 0.39904 0.0
H370 H 0.16224 0.36865 0.44302 0.0
H371 H 0.13314 0.42178 0.42196 0.0
H372 H 0.17822 0.52637 0.39125 0.0
H373 H 0.15175 0.47734 0.37839 0.0
H374 H 0.36967 0.39756 0.49189 0.0
H375 H 0.33857 0.34998 0.48687 0.0
H376 H 0.34845 0.46002 0.52634 0.0
H377 H 0.34033 0.5073 0.48579 0.0
C378 C 0.86221 0.01166 0.7595 0.0
C379 C 0.83955 0.98152 0.79209 0.0
C380 C 0.9189 0.93221 0.79976 0.0
C381 C 0.94166 0.95985 0.76547 0.0
N382 N 0.93411 0.02662 0.71085 0.0
N383 N 0.84263 0.90459 0.82429 0.0
C384 C 0.91316 1.0 0.74489 0.0
C385 C 0.86683 0.93894 0.80576 0.0
N386 N 0.83556 0.05147 0.74276 0.0
N387 N 0.94769 0.9003 0.82833 0.0
H388 H 0.80392 0.9079 0.82608 0.0
H389 H 0.86043 0.87176 0.83193 0.0
H390 H 0.98641 0.89779 0.82839 0.0
H391 H 0.93313 0.88032 0.85547 0.0
H392 H 0.85149 0.07869 0.7273 0.0
H393 H 0.79697 0.05678 0.74292 0.0
H394 H 0.91412 0.05273 0.68958 0.0
H395 H 0.97177 0.02198 0.70259 0.0
C396 C 0.23929 0.59424 0.04451 0.0
C397 C 0.28055 0.61367 0.06208 0.0
C398 C 0.31646 0.53609 0.09167 0.0
C399 C 0.27015 0.51945 0.08406 0.0
N400 N 0.18367 0.53843 0.05915 0.0
N401 N 0.35977 0.60171 0.10364 0.0
C402 C 0.23063 0.54991 0.06164 0.0
C403 C 0.31993 0.58404 0.08551 0.0
N404 N 0.2094 0.61742 1.00915 0.0
N405 N 0.35728 0.50588 0.10439 0.0
H406 H 0.36176 0.63645 0.1035 0.0
H407 H 0.38919 0.58241 0.12233 0.0
H408 H 0.35614 0.47093 0.10764 0.0
H409 H 0.39304 0.5146 0.10661 0.0
H410 H 0.18149 0.60315 0.9914 0.0
H411 H 0.2175 0.64803 0.99306 0.0
H412 H 0.15319 0.56174 0.048 0.0
H413 H 0.17381 0.5077 0.07268 0.0
C414 C 0.66524 0.0624 0.24608 0.0
C415 C 0.62303 0.03748 0.25131 0.0
C416 C 0.68409 0.96771 0.26485 0.0
C417 C 0.72356 0.99427 0.26897 0.0
N418 N 0.75208 0.067 0.26316 0.0
N419 N 0.59497 0.9646 0.26806 0.0
C420 C 0.7141 0.04137 0.25856 0.0
C421 C 0.63335 0.98938 0.26037 0.0
N422 N 0.66021 0.10614 0.22758 0.0
N423 N 0.69539 0.92157 0.26567 0.0
H424 H 0.55789 0.97902 0.26758 0.0
H425 H 0.59981 0.93035 0.27909 0.0
H426 H 0.73194 0.90569 0.26931 0.0
H427 H 0.66963 0.89957 0.25869 0.0
H428 H 0.68994 0.12156 0.2138 0.0
H429 H 0.6273 0.12718 0.22316 0.0
H430 H 0.74676 0.10228 0.26479 0.0
H431 H 0.78908 0.05262 0.26785 0.0
C432 C 0.79645 0.18695 0.40044 0.0
C433 C 0.81679 0.20723 0.44038 0.0
C434 C 0.80099 0.14355 0.49522 0.0
C435 C 0.77168 0.12821 0.45777 0.0
N436 N 0.74407 0.13396 0.37217 0.0
N437 N 0.86264 0.19216 0.51579 0.0
C438 C 0.76939 0.14997 0.40978 0.0
C439 C 0.82686 0.18119 0.48487 0.0
N440 N 0.81093 0.19757 0.35373 0.0
N441 N 0.8033 0.1221 0.54078 0.0
H442 H 0.88276 0.21893 0.50665 0.0
H443 H 0.8751 0.17288 0.54734 0.0
H444 H 0.78401 0.09462 0.54902 0.0
H445 H 0.82072 0.13364 0.57113 0.0
H446 H 0.8012 0.18128 0.32255 0.0
H447 H 0.83965 0.21725 0.34774 0.0
H448 H 0.73661 0.15217 0.33877 0.0
H449 H 0.72755 0.1044 0.3748 0.0
C450 C 0.15954 0.54344 0.72294 0.0
C451 C 0.14183 0.51227 0.6913 0.0
C452 C 0.20946 0.52197 0.63453 0.0
C453 C 0.22033 0.56059 0.66041 0.0
N454 N 0.20208 0.60965 0.72909 0.0
N455 N 0.14691 0.47483 0.61414 0.0
C456 C 0.19507 0.57139 0.70518 0.0
C457 C 0.16632 0.5019 0.64656 0.0
N458 N 0.14257 0.5458 0.77018 0.0
N459 N 0.24066 0.5039 0.59875 0.0
H460 H 0.11508 0.45972 0.62157 0.0
H461 H 0.15997 0.47054 0.57824 0.0
H462 H 0.27361 0.51625 0.58954 0.0
H463 H 0.23669 0.47354 0.58214 0.0
H464 H 0.15789 0.56431 0.79673 0.0
H465 H 0.11674 0.52538 0.78372 0.0
H466 H 0.18026 0.62151 0.75869 0.0
H467 H 0.22702 0.63149 0.71724 0.0
C468 C 0.87559 0.81989 0.95734 0.0
C469 C 0.83228 0.83754 0.98274 0.0
C470 C 0.81422 0.75908 1.00049 0.0
C471 C 0.86051 0.74165 0.97915 0.0
N472 N 0.9198 0.75593 0.9163 0.0
N473 N 0.75969 0.82514 0.02873 0.0
C474 C 0.8865 0.77228 0.9511 0.0
C475 C 0.80109 0.80735 1.00401 0.0
N476 N 0.90813 0.84851 0.94168 0.0
N477 N 0.78141 0.7298 1.01388 0.0
H478 H 0.74904 0.86011 0.03039 0.0
H479 H 0.73744 0.80586 0.04965 0.0
H480 H 0.78682 0.69578 1.00471 0.0
H481 H 0.74627 0.73974 0.02807 0.0
H482 H 0.94386 0.83678 0.92976 0.0
H483 H 0.90102 0.88363 0.94499 0.0
H484 H 0.93717 0.77685 0.89208 0.0
H485 H 0.92458 0.72178 0.90734 0.0
C486 C 0.31764 0.558 0.26966 0.0
C487 C 0.36502 0.56142 0.29078 0.0
C488 C 0.34629 0.51152 0.3591 0.0
C489 C 0.30394 0.50332 0.33242 0.0
N490 N 0.2337 0.54858 0.29237 0.0
N491 N 0.40332 0.56582 0.37079 0.0
C492 C 0.28335 0.53946 0.30042 0.0
C493 C 0.37228 0.54684 0.34118 0.0
N494 N 0.30767 0.56354 0.22044 0.0
N495 N 0.36765 0.48002 0.39295 0.0
H496 H 0.41851 0.5947 0.35899 0.0
H497 H 0.40797 0.55616 0.40794 0.0
H498 H 0.35245 0.45006 0.40043 0.0
H499 H 0.40187 0.48236 0.40947 0.0
H500 H 0.27295 0.55979 0.20598 0.0
H501 H 0.33528 0.56272 0.19398 0.0
H502 H 0.21875 0.57535 0.26853 0.0
H503 H 0.20869 0.53208 0.31309 0.0
C504 C 0.55883 0.29795 0.36596 0.0
C505 C 0.58308 0.25383 0.35648 0.0
C506 C 0.61074 0.24459 0.44259 0.0
C507 C 0.59677 0.29152 0.44836 0.0
N508 N 0.55343 0.36312 0.41813 0.0
N509 N 0.63333 0.18492 0.38542 0.0
C510 C 0.5687 0.3182 0.4111 0.0
C511 C 0.60865 0.22669 0.39503 0.0
N512 N 0.52557 0.3197 0.33234 0.0
N513 N 0.62679 0.2177 0.48291 0.0
H514 H 0.63539 0.17193 0.35022 0.0
H515 H 0.65517 0.16475 0.41142 0.0
H516 H 0.62687 0.23091 0.51805 0.0
H517 H 0.63463 0.18246 0.48258 0.0
H518 H 0.50355 0.35035 0.33859 0.0
H519 H 0.51668 0.30488 0.29983 0.0
H520 H 0.5378 0.38583 0.39042 0.0
H521 H 0.55841 0.3781 0.4516 0.0
C522 C 0.08816 0.30018 0.56981 0.0
C523 C 0.07778 0.257 0.55474 0.0
C524 C 0.02138 0.25794 0.6278 0.0
C525 C 0.04177 0.29568 0.64765 0.0
N526 N 0.11129 0.33909 0.64035 0.0
N527 N 0.03535 0.19212 0.57629 0.0
C528 C 0.0801 0.3127 0.61949 0.0
C529 C 0.04456 0.23497 0.58567 0.0
N530 N 0.10523 0.33014 0.53663 0.0
N531 N 0.9788 0.24489 0.64694 0.0
H532 H 0.04939 0.17444 0.54595 0.0
H533 H 1.01619 0.173 0.60088 0.0
H534 H 0.95902 0.26153 0.67523 0.0
H535 H 0.96015 0.22069 0.6308 0.0
H536 H 0.11119 0.36271 0.54608 0.0
H537 H 0.10669 0.32462 0.49883 0.0
H538 H 0.141 0.35015 0.62105 0.0
H539 H 0.1123 0.34384 0.67823 0.0
C540 C 0.04483 0.75685 0.8339 0.0
C541 C 0.03592 0.72774 0.79529 0.0
C542 C 0.07705 0.66312 0.84429 0.0
C543 C 0.08513 0.69278 0.8823 0.0
N544 N 0.09056 0.76908 0.90644 0.0
N545 N 0.05255 0.65483 0.75931 0.0
C546 C 0.07518 0.73999 0.87378 0.0
C547 C 0.05519 0.68125 0.799 0.0
N548 N 0.02424 0.80105 0.83425 0.0
N549 N 0.08622 0.61742 0.85392 0.0
H550 H 0.03499 0.66749 0.72642 0.0
H551 H 0.0698 0.62144 0.75832 0.0
H552 H 0.10397 0.60394 0.88646 0.0
H553 H 0.07385 0.59368 0.83128 0.0
H554 H 0.99865 0.81652 0.80824 0.0
H555 H 0.99865 0.81652 0.80824 0.0
H556 H 0.08221 0.80433 0.90185 0.0
H557 H 0.115 0.75823 0.93533 0.0
C558 C 0.51222 0.70268 0.12969 0.0
C559 C 0.51159 0.72987 0.17233 0.0
C560 C 0.47564 0.79535 0.11916 0.0
C561 C 0.46634 0.76535 0.08155 0.0
N562 N 0.47681 0.69007 0.0505 0.0
N563 N 0.49248 0.80373 0.20642 0.0
C564 C 0.48527 0.71905 0.08667 0.0
C565 C 0.49416 0.77702 0.1665 0.0
N566 N 0.54064 0.66148 0.12916 0.0
N567 N 0.46661 0.84112 0.10973 0.0
H568 H 0.50569 0.79146 0.24114 0.0
H569 H 0.47539 0.83725 0.2058 0.0
H570 H 0.45274 0.85516 0.07586 0.0
H571 H 0.4768 0.86483 0.13373 0.0
H572 H 0.54728 0.64249 0.09778 0.0
H573 H 0.56266 0.64914 0.15859 0.0
H574 H 0.48221 0.65482 0.05571 0.0
H575 H 0.46207 0.70125 1.01592 0.0
C576 C 0.15189 0.24761 0.28513 0.0
C577 C 0.13837 0.26917 0.33001 0.0
C578 C 0.14359 0.34347 0.29059 0.0
C579 C 0.16452 0.32195 0.24763 0.0
N580 N 0.18875 0.25351 0.20379 0.0
N581 N 0.10074 0.33591 0.36853 0.0
C582 C 0.16722 0.27407 0.24415 0.0
C583 C 0.12743 0.31669 0.33021 0.0
N584 N 0.1501 0.20211 0.28162 0.0
N585 N 0.1424 0.38922 0.29536 0.0
H586 H 0.08834 0.31627 0.39762 0.0
H587 H 0.08636 0.37016 0.3689 0.0
H588 H 0.15189 0.41112 0.26727 0.0
H589 H 0.13453 0.40549 0.32829 0.0
H590 H 0.15557 0.18496 0.24894 0.0
H591 H 0.13772 0.18195 0.30997 0.0
H592 H 0.19851 0.2186 0.20164 0.0
H593 H 0.1998 0.27153 0.17296 0.0
C594 C 0.95778 0.96328 0.5552 0.0
C595 C 0.99516 0.92635 0.56491 0.0
C596 C 0.97626 0.89436 0.48578 0.0
C597 C 0.93903 0.93177 0.47589 0.0
N598 N 0.91818 0.01172 0.48989 0.0
N599 N 0.05608 0.87362 0.52545 0.0
C600 C 0.93669 0.96933 0.50734 0.0
C601 C 1.00929 0.8964 0.52625 0.0
N602 N 0.94196 0.9925 0.59115 0.0
N603 N 0.98013 0.85678 0.45808 0.0
H604 H 0.08283 0.87985 0.55104 0.0
H605 H 0.06945 0.85386 0.49614 0.0
H606 H 0.95621 0.85326 0.4289 0.0
H607 H 1.0049 0.82771 0.46716 0.0
H608 H 0.91167 0.01781 0.58623 0.0
H609 H 0.95661 0.98888 0.62673 0.0
H610 H 0.91821 0.04068 0.51041 0.0
H611 H 0.91067 0.01797 0.45247 0.0
C612 C 0.37586 0.65868 0.82133 0.0
C613 C 0.40015 0.68231 0.78422 0.0
C614 C 0.44063 0.7203 0.84733 0.0
C615 C 0.40599 0.70743 0.88226 0.0
N616 N 0.3508 0.65338 0.9068 0.0
N617 N 0.45319 0.73857 0.76134 0.0
C618 C 0.37666 0.67299 0.87071 0.0
C619 C 0.43241 0.71359 0.79708 0.0
N620 N 0.35459 0.62127 0.80968 0.0
N621 N 0.48127 0.73868 0.86245 0.0
H622 H 0.44558 0.73639 0.72386 0.0
H623 H 0.47368 0.76469 0.76934 0.0
H624 H 0.48943 0.74096 0.89986 0.0
H625 H 0.50933 0.74618 0.83846 0.0
H626 H 0.3395 0.6003 0.83559 0.0
H627 H 0.35583 0.60871 0.77428 0.0
H628 H 0.32234 0.63415 0.89999 0.0
H629 H 0.35996 0.65486 0.94385 0.0
C630 C 0.6063 0.13997 0.05872 0.0
C631 C 0.58864 0.10494 0.0885 0.0
C632 C 0.6312 0.04829 0.0336 0.0
C633 C 0.65355 0.08247 1.007 0.0
N634 N 0.66745 0.16083 0.99923 0.0
N635 N 0.59621 0.02465 0.11043 0.0
C636 C 0.64235 0.12842 0.02084 0.0
C637 C 0.6044 0.05887 0.07757 0.0
N638 N 0.58742 0.18423 0.06536 0.0
N639 N 0.63356 1.00561 1.01601 0.0
H640 H 0.57848 0.03031 0.14393 0.0
H641 H 0.6121 0.99102 0.10702 0.0
H642 H 0.65152 0.99606 0.98354 0.0
H643 H 0.61284 0.98119 0.03065 0.0
H644 H 0.59479 0.21098 0.04174 0.0
H645 H 0.56088 0.19384 0.09209 0.0
H646 H 0.66503 0.1939 1.01126 0.0
H647 H 0.694 0.15364 0.97187 0.0
C648 C 0.7061 0.1986 0.6259 0.0
C649 C 0.70937 0.2447 0.63576 0.0
C650 C 0.70468 0.22722 0.72501 0.0
C651 C 0.69835 0.18199 0.71521 0.0
N652 N 0.70311 0.12138 0.65892 0.0
N653 N 0.72815 0.29903 0.69411 0.0
C654 C 0.7025 0.16663 0.66628 0.0
C655 C 0.71385 0.25771 0.6853 0.0
N656 N 0.70466 0.18593 0.57812 0.0
N657 N 0.70003 0.24135 0.77233 0.0
H658 H 0.73697 0.32108 0.66562 0.0
H659 H 0.73633 0.30944 0.72904 0.0
H660 H 0.69465 0.21933 0.8022 0.0
H661 H 0.69853 0.27513 0.78173 0.0
H662 H 0.69662 0.15438 0.56767 0.0
H663 H 0.71088 0.20772 0.54837 0.0
H664 H 0.7099 0.1066 0.62502 0.0
H665 H 0.69984 0.09792 0.68803 0.0
C666 C 0.12726 0.30873 0.93812 0.0
C667 C 0.14173 0.35158 0.9482 0.0
C668 C 0.13742 0.37207 0.86039 0.0
C669 C 0.10796 0.337 0.85345 0.0
N670 N 0.09155 0.2622 0.87902 0.0
N671 N 0.16138 0.42474 0.91847 0.0
C672 C 0.1087 0.30172 0.89026 0.0
C673 C 0.14832 0.38312 0.90907 0.0
N674 N 0.13101 0.27557 0.97475 0.0
N675 N 0.15562 0.39383 0.8206 0.0
H676 H 0.16839 0.43468 0.95392 0.0
H677 H 0.16142 0.45052 0.89125 0.0
H678 H 0.15243 0.38217 0.7851 0.0
H679 H 0.17946 0.41833 0.82367 0.0
H680 H 0.12228 0.24293 0.97047 0.0
H681 H 0.14604 0.28035 1.00931 0.0
H682 H 0.08669 0.23622 0.90465 0.0
H683 H 0.08339 0.25519 0.84269 0.0
C684 C 0.93215 0.81583 0.15872 0.0
C685 C 0.92804 0.80564 0.20984 0.0
C686 C 0.94287 0.72397 0.19493 0.0
C687 C 0.94418 0.73403 0.14321 0.0
N688 N 0.93229 0.78958 0.07522 0.0
N689 N 0.9234 0.75148 0.277 0.0
C690 C 0.93699 0.78003 0.12487 0.0
C691 C 0.93145 0.76003 0.22798 0.0
N692 N 0.93211 0.86003 0.14279 0.0
N693 N 0.95465 0.68008 0.21253 0.0
H694 H 0.91646 0.77734 0.30202 0.0
H695 H 0.92004 0.71938 0.29232 0.0
H696 H 0.96399 0.6529 0.18962 0.0
H697 H 0.9592 0.67079 0.24982 0.0
H698 H 0.94086 0.86988 0.10692 0.0
H699 H 0.92601 0.88698 0.16655 0.0
H700 H 0.92121 0.822 0.05989 0.0
H701 H 0.93599 0.76468 0.04907 0.0
C702 C 0.44835 0.65466 0.48095 0.0
C703 C 0.40176 0.6815 0.48197 0.0
C704 C 0.41557 0.70961 0.39724 0.0
C705 C 0.4561 0.67467 0.39376 0.0
N706 N 0.49925 0.60486 0.4293 0.0
N707 N 0.34015 0.73637 0.44164 0.0
C708 C 0.46965 0.64488 0.43488 0.0
C709 C 0.38527 0.71011 0.44031 0.0
N710 N 0.47119 0.63676 0.52339 0.0
N711 N 0.40565 0.74124 0.35947 0.0
H712 H 0.31876 0.73866 0.47367 0.0
H713 H 0.32348 0.75433 0.41092 0.0
H714 H 0.42656 0.74035 0.32712 0.0
H715 H 0.37892 0.76966 0.36157 0.0
H716 H 0.50673 0.61846 0.52397 0.0
H717 H 0.45774 0.64598 0.55789 0.0
H718 H 0.50899 0.58149 0.45832 0.0
H719 H 0.50844 0.59255 0.39483 0.0
C720 C 0.33599 0.11391 0.38018 0.0
C721 C 0.30198 0.15388 0.37012 0.0
C722 C 0.36183 0.18073 0.31045 0.0
C723 C 0.39558 0.13981 0.31854 0.0
N724 N 0.41225 0.06566 0.35916 0.0
N725 N 0.27827 0.2204 0.31801 0.0
C726 C 0.3816 0.1058 0.35267 0.0
C727 C 0.31396 0.18577 0.33315 0.0
N728 N 0.3255 0.08446 0.41749 0.0
N729 N 0.37511 0.21559 0.28127 0.0
H730 H 0.24309 0.22516 0.33366 0.0
H731 H 0.2814 0.24152 0.28691 0.0
H732 H 0.40735 0.21343 0.26081 0.0
H733 H 0.35574 0.24829 0.27994 0.0
H734 H 0.35063 0.05751 0.43145 0.0
H735 H 0.29174 0.08832 0.43617 0.0
H736 H 0.4021 0.0372 0.37809 0.0
H737 H 0.44776 0.0602 0.3441 0.0
C738 C 0.24145 0.08426 0.58259 0.0
C739 C 0.22036 0.13034 0.57986 0.0
C740 C 0.16022 0.11653 0.64313 0.0
C741 C 0.17936 0.06981 0.64426 0.0
N742 N 0.24595 0.01101 0.62659 0.0
N743 N 0.17424 0.19319 0.62003 0.0
C744 C 0.22285 0.05423 0.61779 0.0
C745 C 0.18529 0.14746 0.61521 0.0
N746 N 0.27744 0.06931 0.54977 0.0
N747 N 0.11595 0.13081 0.66515 0.0
H748 H 0.19247 0.21632 0.59973 0.0
H749 H 0.15129 0.20768 0.64757 0.0
H750 H 0.09429 0.10863 0.68268 0.0
H751 H 0.0982 0.16407 0.66189 0.0
H752 H 0.29073 0.03519 0.54552 0.0
H753 H 0.29303 0.09194 0.52591 0.0
H754 H 0.27971 0.99843 0.61088 0.0
H755 H 0.23314 0.98891 0.65301 0.0
C756 C 0.16866 0.89137 0.85181 0.0
C757 C 0.15695 0.85989 0.81674 0.0
C758 C 0.22581 0.80445 0.85191 0.0
C759 C 0.24081 0.83776 0.88309 0.0
N760 N 0.2303 0.91587 0.90616 0.0
N761 N 0.18367 0.78986 0.77648 0.0
C762 C 0.21335 0.88211 0.88094 0.0
C763 C 0.1877 0.81709 0.81529 0.0
N764 N 0.13602 0.9297 0.85858 0.0
N765 N 0.24871 0.76067 0.85627 0.0
H766 H 0.15953 0.79924 0.747 0.0
H767 H 0.20819 0.76058 0.77048 0.0
H768 H 0.27909 0.75054 0.87947 0.0
H769 H 0.23545 0.73383 0.83917 0.0
H770 H 0.13964 0.95199 0.88664 0.0
H771 H 0.10242 0.93667 0.83936 0.0
H772 H 0.21515 0.9499 0.90222 0.0
H773 H 0.26247 0.91045 0.92762 0.0
C774 C 0.37492 0.92338 0.14651 0.0
C775 C 0.37619 0.96628 0.12204 0.0
C776 C 0.32233 0.9448 0.05706 0.0
C777 C 0.32942 0.89932 0.07573 0.0
N778 N 0.35737 0.84547 0.14197 0.0
N779 N 0.35264 0.01796 0.05322 0.0
C780 C 0.35344 0.88876 0.12217 0.0
C781 C 0.35005 0.97702 0.07709 0.0
N782 N 0.39354 0.91637 0.19337 0.0
N783 N 0.28873 0.95663 0.01989 0.0
H784 H 0.37324 0.04197 0.06703 0.0
H785 H 0.338 0.02651 0.01808 0.0
H786 H 0.26671 0.93326 1.00711 0.0
H787 H 0.27889 0.98981 1.00612 0.0
H788 H 0.38951 0.88786 0.21577 0.0
H789 H 0.41097 0.94068 0.21088 0.0
H790 H 0.3793 0.834 0.17256 0.0
H791 H 0.33885 0.8205 0.12736 0.0
C792 C 0.87651 0.38068 0.63835 0.0
C793 C 0.87062 0.40873 0.67904 0.0
C794 C 0.7829 0.42983 0.65625 0.0
C795 C 0.78758 0.39476 0.62164 0.0
N796 N 0.83757 0.32467 0.59832 0.0
N797 N 0.81595 0.45567 0.73181 0.0
C798 C 0.8341 0.36675 0.61757 0.0
C799 C 0.82307 0.43224 0.68963 0.0
N800 N 0.92253 0.36572 0.62067 0.0
N801 N 0.74146 0.46125 0.65666 0.0
H802 H 0.84481 0.45787 0.75651 0.0
H803 H 0.78099 0.46981 0.74364 0.0
H804 H 0.71243 0.46186 0.63144 0.0
H805 H 0.73838 0.48934 0.67883 0.0
H806 H 0.92781 0.34644 0.58929 0.0
H807 H 0.95431 0.37768 0.6335 0.0
H808 H 0.8708 0.3026 0.59782 0.0
H809 H 0.80655 0.30904 0.59069 0.0
C810 C 0.92217 0.50598 0.86482 0.0
C811 C 0.94812 0.46183 0.87673 0.0
C812 C 0.97155 0.48994 0.95724 0.0
C813 C 0.94349 0.53313 0.94617 0.0
N814 N 0.88501 0.57962 0.89295 0.0
N815 N 0.99149 0.41033 0.9379 0.0
C816 C 0.91653 0.54018 0.90107 0.0
C817 C 0.97052 0.45334 0.92426 0.0
N818 N 0.90415 0.5159 0.81805 0.0
N819 N 1.00125 0.48445 0.99831 0.0
H820 H 0.99416 0.38328 0.91432 0.0
H821 H 1.00237 0.4006 0.97394 0.0
H822 H 1.00305 0.51024 0.02297 0.0
H823 H 0.02704 0.45587 1.00596 0.0
H824 H 0.89077 0.54861 0.80486 0.0
H825 H 0.90547 0.49176 0.79112 0.0
H826 H 0.85992 0.58505 0.86361 0.0
H827 H 0.88112 0.60579 0.91779 0.0
C828 C 0.71097 0.55908 0.13412 0.0
C829 C 0.73776 0.59579 0.12482 0.0
C830 C 0.67364 0.64696 0.16324 0.0
C831 C 0.65438 0.60851 0.18467 0.0
N832 N 0.64862 0.52765 0.18332 0.0
N833 N 0.74478 0.67577 0.12778 0.0
C834 C 0.67016 0.56443 0.16696 0.0
C835 C 0.71824 0.64035 0.13691 0.0
N836 N 0.72674 0.51882 0.11296 0.0
N837 N 0.64925 0.68983 0.1676 0.0
H838 H 0.77681 0.67344 0.10658 0.0
H839 H 0.73629 0.70733 0.14339 0.0
H840 H 0.61609 0.69658 0.18636 0.0
H841 H 0.65891 0.71816 0.1479 0.0
H842 H 0.70765 0.49068 0.11502 0.0
H843 H 0.75747 0.51533 0.08956 0.0
H844 H 0.66296 0.49423 0.17672 0.0
H845 H 0.61645 0.52995 0.20421 0.0
C846 C 0.64698 0.50668 0.46204 0.0
C847 C 0.6517 0.46207 0.44441 0.0
C848 C 0.62726 0.49398 0.36162 0.0
C849 C 0.61368 0.53767 0.38096 0.0
N850 N 0.6083 0.58434 0.45273 0.0
N851 N 0.64027 0.41271 0.37763 0.0
C852 C 0.62336 0.54381 0.43196 0.0
C853 C 0.64036 0.45554 0.39422 0.0
N854 N 0.66665 0.51389 0.50705 0.0
N855 N 0.6306 0.48942 0.31177 0.0
H856 H 0.6493 0.38334 0.39975 0.0
H857 H 0.62656 0.40642 0.34302 0.0
H858 H 0.62537 0.51721 0.2869 0.0
H859 H 0.64486 0.45924 0.29559 0.0
H860 H 0.6694 0.5461 0.51973 0.0
H861 H 0.68514 0.48777 0.52961 0.0
H862 H 0.60863 0.58888 0.49062 0.0
H863 H 0.59054 0.61232 0.43301 0.0
C864 C 0.32685 0.26183 0.1161 0.0
C865 C 0.33725 0.30624 0.12692 0.0
C866 C 0.41503 0.2738 0.16549 0.0
C867 C 0.4071 0.22895 0.15234 0.0
N868 N 0.36337 0.18596 0.09657 0.0
N869 N 0.40155 0.35303 0.13934 0.0
C870 C 0.36551 0.22453 0.12179 0.0
C871 C 0.38525 0.31152 0.14314 0.0
N872 N 0.28042 0.25411 0.10245 0.0
N873 N 0.44692 0.28162 0.20234 0.0
H874 H 0.38039 0.38117 0.12205 0.0
H875 H 0.43788 0.35768 0.14818 0.0
H876 H 0.46387 0.25705 0.22737 0.0
H877 H 0.45019 0.31428 0.21356 0.0
H878 H 0.27073 0.22142 0.10051 0.0
H879 H 0.25072 0.27945 0.096 0.0
H880 H 0.33518 0.18295 0.07128 0.0
H881 H 0.39287 0.15979 0.09535 0.0
C882 C 0.87015 0.19349 0.91747 0.0
C883 C 0.89419 0.19479 0.87082 0.0
C884 C 0.88306 0.11419 0.86305 0.0
C885 C 0.84955 0.11659 0.90333 0.0
N886 N 0.81181 0.15884 0.97025 0.0
N887 N 0.92122 0.15546 0.79755 0.0
C888 C 0.84392 0.15618 0.93143 0.0
C889 C 0.90103 0.15453 0.84359 0.0
N890 N 0.87258 0.22832 0.9483 0.0
N891 N 0.89762 0.07311 0.84334 0.0
H892 H 0.934 0.18424 0.78179 0.0
H893 H 0.92192 0.12873 0.7737 0.0
H894 H 0.8855 0.04341 0.85774 0.0
H895 H 0.92563 0.06803 0.81713 0.0
H896 H 0.85921 0.22837 0.9843 0.0
H897 H 0.89263 0.25509 0.93915 0.0
H898 H 0.80119 0.18859 0.98879 0.0
H899 H 0.79418 0.13131 0.98245 0.0
C900 C 0.1173 0.54451 0.17629 0.0
C901 C 0.11313 0.49797 0.18487 0.0
C902 C 0.03019 0.50797 0.14848 0.0
C903 C 0.03601 0.55382 0.13633 0.0
N904 N 0.07431 0.61959 0.15707 0.0
N905 N 0.06032 0.43963 0.19648 0.0
C906 C 0.07592 0.57347 0.15672 0.0
C907 C 0.06699 0.48176 0.17807 0.0
N908 N 0.16185 0.56018 0.18208 0.0
N909 N 0.9928 0.48797 0.12825 0.0
H910 H 0.08849 0.41847 0.215 0.0
H911 H 0.02607 0.42746 0.19685 0.0
H912 H 0.96516 0.50494 0.10529 0.0
H913 H 0.99124 0.45314 0.13104 0.0
H914 H 0.16864 0.59237 0.16953 0.0
H915 H 0.19279 0.53994 0.19707 0.0
H916 H 0.10083 0.6355 0.17495 0.0
H917 H 0.04365 0.6418 0.14425 0.0
C918 C 0.77752 0.80829 0.38857 0.0
C919 C 0.75451 0.85409 0.38838 0.0
C920 C 0.67423 0.82906 0.37001 0.0
C921 C 0.69876 0.78465 0.3641 0.0
N922 N 0.77314 0.7316 0.36287 0.0
N923 N 0.68061 0.90897 0.37384 0.0
C924 C 0.75038 0.77426 0.37179 0.0
C925 C 0.70259 0.86485 0.37837 0.0
N926 N 0.82482 0.79731 0.40651 0.0
N927 N 0.62351 0.83663 0.36832 0.0
H928 H 0.69915 0.93696 0.37758 0.0
H929 H 0.6442 0.91845 0.36189 0.0
H930 H 0.60193 0.81156 0.35934 0.0
H931 H 0.60265 0.86662 0.37889 0.0
H932 H 0.84237 0.7641 0.4113 0.0
H933 H 0.84475 0.82129 0.42145 0.0
H934 H 0.81152 0.72264 0.36313 0.0
H935 H 0.75344 0.70609 0.35106 0.0
C936 C 0.44066 0.45078 0.63116 0.0
C937 C 0.48429 0.45391 0.60381 0.0
C938 C 0.4395 0.51101 0.54785 0.0
C939 C 0.39879 0.51407 0.58023 0.0
N940 N 0.36158 0.48994 0.6562 0.0
N941 N 0.52835 0.49466 0.54301 0.0
C942 C 0.39927 0.48445 0.62274 0.0
C943 C 0.48455 0.48563 0.56347 0.0
N944 N 0.43897 0.41563 0.66479 0.0
N945 N 0.43601 0.5338 0.50317 0.0
H946 H 0.56292 0.48088 0.55729 0.0
H947 H 0.53045 0.5201 0.51585 0.0
H948 H 0.40478 0.55609 0.49209 0.0
H949 H 0.46217 0.52613 0.47562 0.0
H950 H 0.40653 0.40931 0.68275 0.0
H951 H 0.4692 0.39054 0.67136 0.0
H952 H 0.36277 0.47246 0.69033 0.0
H953 H 0.33058 0.51435 0.65129 0.0
C954 C 0.17232 0.74778 0.58809 0.0
C955 C 0.22379 0.7484 0.58344 0.0
C956 C 0.2156 0.82694 0.60992 0.0
C957 C 0.16363 0.82618 0.6144 0.0
N958 N 0.09184 0.79094 0.58901 0.0
N959 N 0.29314 0.79103 0.57614 0.0
C960 C 0.14192 0.78867 0.5962 0.0
C961 C 0.24498 0.78901 0.58955 0.0
N962 N 0.15248 0.70769 0.58987 0.0
N963 N 0.23754 0.86175 0.62787 0.0
H964 H 0.31538 0.76361 0.56116 0.0
H965 H 0.30933 0.82091 0.57546 0.0
H966 H 0.21787 0.89102 0.64146 0.0
H967 H 0.27586 0.86062 0.63144 0.0
H968 H 0.11575 0.70553 0.59974 0.0
H969 H 0.17328 0.67588 0.58707 0.0
H970 H 0.07591 0.7664 0.57034 0.0
H971 H 0.06643 0.8187 0.59749 0.0
C972 C 0.5316 0.96735 0.90034 0.0
C973 C 0.5342 0.91954 0.89932 0.0
C974 C 0.62453 0.91439 0.88289 0.0
C975 C 0.62256 0.96235 0.88675 0.0
N976 N 0.57429 0.03292 0.90963 0.0
N977 N 0.58313 0.84663 0.89486 0.0
C978 C 0.57601 0.98842 0.89804 0.0
C979 C 0.58085 0.89283 0.89233 0.0
N980 N 0.48605 0.99287 0.90275 0.0
N981 N 0.6676 0.88972 0.86789 0.0
H982 H 0.55161 0.83046 0.90028 0.0
H983 H 0.61613 0.82441 0.89507 0.0
H984 H 0.69952 0.90439 0.85937 0.0
H985 H 0.67084 0.85549 0.85995 0.0
H986 H 0.48036 0.02804 0.89707 0.0
H987 H 0.45329 0.9784 0.9072 0.0
H988 H 0.54308 0.05194 0.92416 0.0
H989 H 0.60519 0.05001 0.90944 0.0
C990 C 0.97484 0.03814 0.31609 0.0
C991 C 0.92991 0.04816 0.34313 0.0
C992 C 0.97349 0.09 0.40185 0.0
C993 C 0.01907 0.07699 0.37794 0.0
N994 N 0.06186 0.04918 0.30559 0.0
N995 N 0.88464 0.10453 0.39223 0.0
C996 C 0.01936 0.05408 0.33287 0.0
C997 C 0.92869 0.08077 0.37986 0.0
N998 N 0.97456 0.01469 0.27383 0.0
N999 N 0.97295 0.10913 0.44685 0.0
H1000 H 0.85229 0.10195 0.37246 0.0
H1001 H 0.88242 0.13081 0.41657 0.0
H1002 H 1.00521 0.11481 0.46509 0.0
H1003 H 0.94093 0.1152 0.46809 0.0
H1004 H 1.00642 1.00042 0.25598 0.0
H1005 H 0.94166 0.01091 0.25556 0.0
H1006 H 0.06479 0.03541 0.27087 0.0
H1007 H 0.0939 0.06205 0.31652 0.0
loop_
_geom_bond_atom_site_label_1
_geom_bond_atom_site_label_2
_geom_bond_distance
_geom_bond_site_symmetry_2
_ccdc_geom_bond_type
Co0 N5 2.057 . S
Co0 O17 2.021 . S
Co0 O20 2.062 . S
Co0 O24 2.117 . S
Co0 O25 2.020 . S
C1 O21 1.259 . S
C1 O24 1.258 . S
Co2 N11 2.057 . S
Co2 O18 2.117 . S
Co2 O19 2.020 . S
Co2 O21 2.021 . S
Co2 O26 2.062 . S
C3 N5 1.316 . S
C3 N6 1.347 . S
C3 H8 0.931 . S
C4 N5 1.375 . S
C4 C7 1.350 . S
C4 H9 0.930 . S
N5 Co0 2.057 . S
N5 C3 1.316 . S
N5 C4 1.375 . S
N6 C3 1.347 . S
N6 C7 1.373 . S
C7 C4 1.350 . S
C7 N6 1.373 . S
C7 H28 0.931 . S
H8 C3 0.931 . S
H9 C4 0.930 . S
C10 O17 1.259 . S
C10 O18 1.258 . S
N11 Co2 2.057 . S
N11 C12 1.316 . S
N11 C13 1.375 . S
C12 N11 1.316 . S
C12 N14 1.347 . S
C12 H23 0.931 . S
C13 N11 1.375 . S
C13 C15 1.350 . S
C13 H22 0.930 . S
N14 C12 1.347 . S
N14 C15 1.373 . S
C15 C13 1.350 . S
C15 N14 1.373 . S
C15 H29 0.931 . S
C16 O19 1.256 . S
C16 O20 1.255 . S
O17 Co0 2.021 . S
O17 C10 1.259 . S
O18 Co2 2.117 . S
O18 C10 1.258 . S
O19 Co2 2.020 . S
O19 C16 1.256 . S
O20 Co0 2.062 . S
O20 C16 1.255 . S
O21 C1 1.259 . S
O21 Co2 2.021 . S
H22 C13 0.930 . S
H23 C12 0.931 . S
O24 Co0 2.117 . S
O24 C1 1.258 . S
O25 Co0 2.020 . S
O25 C27 1.256 . S
O26 Co2 2.062 . S
O26 C27 1.255 . S
C27 O25 1.256 . S
C27 O26 1.255 . S
H28 C7 0.931 . S
H29 C15 0.931 . S
Co30 N35 2.057 . S
Co30 O47 2.021 . S
Co30 O50 2.062 . S
Co30 O54 2.117 . S
Co30 O55 2.020 . S
C31 O51 1.259 . S
C31 O54 1.258 . S
Co32 N41 2.057 . S
Co32 O48 2.117 . S
Co32 O49 2.020 . S
Co32 O51 2.021 . S
Co32 O56 2.062 . S
C33 N35 1.316 . S
C33 N36 1.347 . S
C33 H38 0.931 . S
C34 N35 1.375 1_655 S
C34 C37 1.350 . S
C34 H39 0.930 . S
N35 Co30 2.057 . S
N35 C33 1.316 . S
N35 C34 1.375 1_455 S
N36 C33 1.347 . S
N36 C37 1.373 1_455 S
C37 C34 1.350 . S
C37 N36 1.373 1_655 S
C37 H58 0.931 . S
H38 C33 0.931 . S
H39 C34 0.930 . S
C40 O47 1.259 . S
C40 O48 1.258 . S
N41 Co32 2.057 . S
N41 C42 1.316 . S
N41 C43 1.375 . S
C42 N41 1.316 . S
C42 N44 1.347 1_565 S
C42 H53 0.931 1_565 S
C43 N41 1.375 . S
C43 C45 1.350 . S
C43 H52 0.930 . S
N44 C42 1.347 1_545 S
N44 C45 1.373 1_545 S
C45 C43 1.350 . S
C45 N44 1.373 1_565 S
C45 H59 0.931 . S
C46 O49 1.256 . S
C46 O50 1.255 . S
O47 Co30 2.021 . S
O47 C40 1.259 . S
O48 Co32 2.117 . S
O48 C40 1.258 . S
O49 Co32 2.020 . S
O49 C46 1.256 . S
O50 Co30 2.062 . S
O50 C46 1.255 . S
O51 C31 1.259 . S
O51 Co32 2.021 . S
H52 C43 0.930 . S
H53 C42 0.931 1_545 S
O54 Co30 2.117 . S
O54 C31 1.258 . S
O55 Co30 2.020 . S
O55 C57 1.256 . S
O56 Co32 2.062 . S
O56 C57 1.255 . S
C57 O55 1.256 . S
C57 O56 1.255 . S
H58 C37 0.931 . S
H59 C45 0.931 . S
Co60 N65 2.057 1_556 S
Co60 O77 2.021 . S
Co60 O80 2.062 . S
Co60 O84 2.117 1_556 S
Co60 O85 2.020 1_556 S
C61 O81 1.259 1_554 S
C61 O84 1.258 . S
Co62 N71 2.057 . S
Co62 O78 2.117 . S
Co62 O79 2.020 . S
Co62 O81 2.021 . S
Co62 O86 2.062 . S
C63 N65 1.316 . S
C63 N66 1.347 . S
C63 H68 0.931 1_554 S
C64 N65 1.375 . S
C64 C67 1.350 . S
C64 H69 0.930 . S
N65 Co60 2.057 1_554 S
N65 C63 1.316 . S
N65 C64 1.375 . S
N66 C63 1.347 . S
N66 C67 1.373 . S
C67 C64 1.350 . S
C67 N66 1.373 . S
C67 H88 0.931 . S
H68 C63 0.931 1_556 S
H69 C64 0.930 . S
C70 O77 1.259 . S
C70 O78 1.258 . S
N71 Co62 2.057 . S
N71 C72 1.316 . S
N71 C73 1.375 . S
C72 N71 1.316 . S
C72 N74 1.347 . S
C72 H83 0.931 . S
C73 N71 1.375 . S
C73 C75 1.350 . S
C73 H82 0.930 . S
N74 C72 1.347 . S
N74 C75 1.373 . S
C75 C73 1.350 . S
C75 N74 1.373 . S
C75 H89 0.931 . S
C76 O79 1.256 . S
C76 O80 1.255 . S
O77 Co60 2.021 . S
O77 C70 1.259 . S
O78 Co62 2.117 . S
O78 C70 1.258 . S
O79 Co62 2.020 . S
O79 C76 1.256 . S
O80 Co60 2.062 . S
O80 C76 1.255 . S
O81 C61 1.259 1_556 S
O81 Co62 2.021 . S
H82 C73 0.930 . S
H83 C72 0.931 . S
O84 Co60 2.117 1_554 S
O84 C61 1.258 . S
O85 Co60 2.020 1_554 S
O85 C87 1.256 . S
O86 Co62 2.062 . S
O86 C87 1.255 1_556 S
C87 O85 1.256 . S
C87 O86 1.255 1_554 S
H88 C67 0.931 . S
H89 C75 0.931 . S
Co90 N95 2.057 . S
Co90 O107 2.021 . S
Co90 O110 2.062 . S
Co90 O114 2.117 . S
Co90 O115 2.020 . S
C91 O111 1.259 . S
C91 O114 1.258 . S
Co92 N101 2.057 . S
Co92 O108 2.117 . S
Co92 O109 2.020 . S
Co92 O111 2.021 . S
Co92 O116 2.062 . S
C93 N95 1.316 . S
C93 N96 1.347 . S
C93 H98 0.931 . S
C94 N95 1.375 . S
C94 C97 1.350 . S
C94 H99 0.930 . S
N95 Co90 2.057 . S
N95 C93 1.316 . S
N95 C94 1.375 . S
N96 C93 1.347 . S
N96 C97 1.373 . S
C97 C94 1.350 . S
C97 N96 1.373 . S
C97 H118 0.931 . S
H98 C93 0.931 . S
H99 C94 0.930 . S
C100 O107 1.259 . S
C100 O108 1.258 . S
N101 Co92 2.057 . S
N101 C102 1.316 . S
N101 C103 1.375 . S
C102 N101 1.316 . S
C102 N104 1.353 . S
C102 H113 0.931 1_545 S
C103 N101 1.375 . S
C103 C105 1.350 . S
C103 H112 0.930 . S
N104 C102 1.353 . S
N104 C105 1.385 . S
C105 C103 1.350 . S
C105 N104 1.385 . S
C105 H119 0.931 . S
C106 O109 1.256 . S
C106 O110 1.255 . S
O107 Co90 2.021 . S
O107 C100 1.259 . S
O108 Co92 2.117 . S
O108 C100 1.258 . S
O109 Co92 2.020 . S
O109 C106 1.256 . S
O110 Co90 2.062 . S
O110 C106 1.255 . S
O111 C91 1.259 . S
O111 Co92 2.021 . S
H112 C103 0.930 . S
H113 C102 0.931 1_565 S
O114 Co90 2.117 . S
O114 C91 1.258 . S
O115 Co90 2.020 . S
O115 C117 1.256 . S
O116 Co92 2.062 . S
O116 C117 1.255 . S
C117 O115 1.256 . S
C117 O116 1.255 . S
H118 C97 0.931 . S
H119 C105 0.931 . S
Co120 N125 2.057 . S
Co120 O137 2.021 . S
Co120 O140 2.062 . S
Co120 O144 2.117 . S
Co120 O145 2.020 . S
C121 O141 1.259 . S
C121 O144 1.258 . S
Co122 N131 2.057 . S
Co122 O138 2.117 . S
Co122 O139 2.020 . S
Co122 O141 2.021 . S
Co122 O146 2.062 . S
C123 N125 1.316 . S
C123 N126 1.347 . S
C123 H128 0.931 . S
C124 N125 1.375 . S
C124 C127 1.350 . S
C124 H129 0.930 . S
N125 Co120 2.057 . S
N125 C123 1.316 . S
N125 C124 1.375 . S
N126 C123 1.347 . S
N126 C127 1.373 . S
C127 C124 1.350 . S
C127 N126 1.373 . S
C127 H148 0.931 . S
H128 C123 0.931 . S
H129 C124 0.930 . S
C130 O137 1.259 . S
C130 O138 1.258 . S
N131 Co122 2.057 . S
N131 C132 1.316 . S
N131 C133 1.375 . S
C132 N131 1.316 . S
C132 N134 1.347 . S
C132 H143 0.931 . S
C133 N131 1.375 . S
C133 C135 1.350 . S
C133 H142 0.930 . S
N134 C132 1.347 . S
N134 C135 1.373 . S
C135 C133 1.350 . S
C135 N134 1.373 . S
C135 H149 0.931 . S
C136 O139 1.256 . S
C136 O140 1.255 . S
O137 Co120 2.021 . S
O137 C130 1.259 . S
O138 Co122 2.117 . S
O138 C130 1.258 . S
O139 Co122 2.020 . S
O139 C136 1.256 . S
O140 Co120 2.062 . S
O140 C136 1.255 . S
O141 C121 1.259 . S
O141 Co122 2.021 . S
H142 C133 0.930 . S
H143 C132 0.931 . S
O144 Co120 2.117 . S
O144 C121 1.258 . S
O145 Co120 2.020 . S
O145 C147 1.256 . S
O146 Co122 2.062 . S
O146 C147 1.255 . S
C147 O145 1.256 . S
C147 O146 1.255 . S
H148 C127 0.931 . S
H149 C135 0.931 . S
Co150 N155 2.057 1_655 S
Co150 O167 2.021 . S
Co150 O170 2.062 1_655 S
Co150 O174 2.117 . S
Co150 O175 2.020 . S
C151 O171 1.259 . S
C151 O174 1.258 . S
Co152 N161 2.057 . S
Co152 O168 2.117 . S
Co152 O169 2.020 . S
Co152 O171 2.021 . S
Co152 O176 2.062 . S
C153 N155 1.316 . S
C153 N156 1.347 . S
C153 H158 0.931 1_455 S
C154 N155 1.375 . S
C154 C157 1.350 . S
C154 H159 0.930 . S
N155 Co150 2.057 1_455 S
N155 C153 1.316 . S
N155 C154 1.375 . S
N156 C153 1.347 . S
N156 C157 1.373 . S
C157 C154 1.350 . S
C157 N156 1.373 . S
C157 H178 0.931 . S
H158 C153 0.931 1_655 S
H159 C154 0.930 . S
C160 O167 1.259 . S
C160 O168 1.258 . S
N161 Co152 2.057 . S
N161 C162 1.316 . S
N161 C163 1.375 . S
C162 N161 1.316 . S
C162 N164 1.347 . S
C162 H173 0.931 . S
C163 N161 1.375 . S
C163 C165 1.350 . S
C163 H172 0.930 . S
N164 C162 1.347 . S
N164 C165 1.373 . S
C165 C163 1.350 . S
C165 N164 1.373 . S
C165 H179 0.931 . S
C166 O169 1.256 1_455 S
C166 O170 1.255 . S
O167 Co150 2.021 . S
O167 C160 1.259 . S
O168 Co152 2.117 . S
O168 C160 1.258 . S
O169 Co152 2.020 . S
O169 C166 1.256 1_655 S
O170 Co150 2.062 1_455 S
O170 C166 1.255 . S
O171 C151 1.259 . S
O171 Co152 2.021 . S
H172 C163 0.930 . S
H173 C162 0.931 . S
O174 Co150 2.117 . S
O174 C151 1.258 . S
O175 Co150 2.020 . S
O175 C177 1.256 . S
O176 Co152 2.062 . S
O176 C177 1.255 . S
C177 O175 1.256 . S
C177 O176 1.255 . S
H178 C157 0.931 . S
H179 C165 0.931 . S
Co180 N185 2.057 1_554 S
Co180 O197 2.021 . S
Co180 O200 2.062 1_554 S
Co180 O204 2.117 1_554 S
Co180 O205 2.020 . S
C181 O201 1.259 . S
C181 O204 1.258 1_554 S
Co182 N191 2.057 . S
Co182 O198 2.117 . S
Co182 O199 2.020 . S
Co182 O201 2.021 . S
Co182 O206 2.062 . S
C183 N185 1.316 1_455 S
C183 N186 1.347 . S
C183 H188 0.931 . S
C184 N185 1.375 . S
C184 C187 1.350 . S
C184 H189 0.930 . S
N185 Co180 2.057 1_556 S
N185 C183 1.316 1_655 S
N185 C184 1.375 . S
N186 C183 1.347 . S
N186 C187 1.373 1_455 S
C187 C184 1.350 . S
C187 N186 1.373 1_655 S
C187 H208 0.931 . S
H188 C183 0.931 . S
H189 C184 0.930 . S
C190 O197 1.259 . S
C190 O198 1.258 . S
N191 Co182 2.057 . S
N191 C192 1.316 . S
N191 C193 1.375 . S
C192 N191 1.316 . S
C192 N194 1.347 . S
C192 H203 0.931 . S
C193 N191 1.375 . S
C193 C195 1.350 . S
C193 H202 0.930 . S
N194 C192 1.347 . S
N194 C195 1.373 . S
C195 C193 1.350 . S
C195 N194 1.373 . S
C195 H209 0.931 . S
C196 O199 1.256 1_556 S
C196 O200 1.255 . S
O197 Co180 2.021 . S
O197 C190 1.259 . S
O198 Co182 2.117 . S
O198 C190 1.258 . S
O199 Co182 2.020 . S
O199 C196 1.256 1_554 S
O200 Co180 2.062 1_556 S
O200 C196 1.255 . S
O201 C181 1.259 . S
O201 Co182 2.021 . S
H202 C193 0.930 . S
H203 C192 0.931 . S
O204 Co180 2.117 1_556 S
O204 C181 1.258 1_556 S
O205 Co180 2.020 . S
O205 C207 1.256 . S
O206 Co182 2.062 . S
O206 C207 1.255 . S
C207 O205 1.256 . S
C207 O206 1.255 . S
H208 C187 0.931 . S
H209 C195 0.931 . S
Co210 N215 2.057 . S
Co210 O227 2.021 . S
Co210 O230 2.062 . S
Co210 O234 2.117 . S
Co210 O235 2.020 . S
C211 O231 1.259 . S
C211 O234 1.258 . S
Co212 N221 2.057 . S
Co212 O228 2.117 . S
Co212 O229 2.020 . S
Co212 O231 2.021 . S
Co212 O236 2.062 . S
C213 N215 1.316 . S
C213 N216 1.347 . S
C213 H218 0.931 . S
C214 N215 1.375 . S
C214 C217 1.350 . S
C214 H219 0.930 . S
N215 Co210 2.057 . S
N215 C213 1.316 . S
N215 C214 1.375 . S
N216 C213 1.347 . S
N216 C217 1.373 . S
C217 C214 1.350 . S
C217 N216 1.373 . S
C217 H238 0.931 . S
H218 C213 0.931 . S
H219 C214 0.930 . S
C220 O227 1.259 . S
C220 O228 1.258 . S
N221 Co212 2.057 . S
N221 C222 1.316 . S
N221 C223 1.375 . S
C222 N221 1.316 . S
C222 N224 1.347 . S
C222 H233 0.931 . S
C223 N221 1.375 . S
C223 C225 1.350 . S
C223 H232 0.930 . S
N224 C222 1.347 . S
N224 C225 1.373 . S
C225 C223 1.350 . S
C225 N224 1.373 . S
C225 H239 0.931 . S
C226 O229 1.256 . S
C226 O230 1.255 . S
O227 Co210 2.021 . S
O227 C220 1.259 . S
O228 Co212 2.117 . S
O228 C220 1.258 . S
O229 Co212 2.020 . S
O229 C226 1.256 . S
O230 Co210 2.062 . S
O230 C226 1.255 . S
O231 C211 1.259 . S
O231 Co212 2.021 . S
H232 C223 0.930 . S
H233 C222 0.931 . S
O234 Co210 2.117 . S
O234 C211 1.258 . S
O235 Co210 2.020 . S
O235 C237 1.256 . S
O236 Co212 2.062 . S
O236 C237 1.255 . S
C237 O235 1.256 . S
C237 O236 1.255 . S
H238 C217 0.931 . S
H239 C225 0.931 . S
Co240 N245 2.057 . S
Co240 O257 2.021 . S
Co240 O260 2.062 . S
Co240 O264 2.117 . S
Co240 O265 2.020 . S
C241 O261 1.259 . S
C241 O264 1.258 . S
Co242 N251 2.057 . S
Co242 O258 2.117 . S
Co242 O259 2.020 . S
Co242 O261 2.021 . S
Co242 O266 2.062 . S
C243 N245 1.316 . S
C243 N246 1.347 . S
C243 H248 0.931 . S
C244 N245 1.375 . S
C244 C247 1.350 . S
C244 H249 0.930 . S
N245 Co240 2.057 . S
N245 C243 1.316 . S
N245 C244 1.375 . S
N246 C243 1.347 . S
N246 C247 1.373 . S
C247 C244 1.350 . S
C247 N246 1.373 . S
C247 H268 0.931 . S
H248 C243 0.931 . S
H249 C244 0.930 . S
C250 O257 1.259 . S
C250 O258 1.258 . S
N251 Co242 2.057 . S
N251 C252 1.316 1_554 S
N251 C253 1.375 . S
C252 N251 1.316 1_556 S
C252 N254 1.347 . S
C252 H263 0.931 . S
C253 N251 1.375 . S
C253 C255 1.350 1_554 S
C253 H262 0.930 . S
N254 C252 1.347 . S
N254 C255 1.373 . S
C255 C253 1.350 1_556 S
C255 N254 1.373 . S
C255 H269 0.931 . S
C256 O259 1.256 . S
C256 O260 1.255 . S
O257 Co240 2.021 . S
O257 C250 1.259 . S
O258 Co242 2.117 . S
O258 C250 1.258 . S
O259 Co242 2.020 . S
O259 C256 1.256 . S
O260 Co240 2.062 . S
O260 C256 1.255 . S
O261 C241 1.259 . S
O261 Co242 2.021 . S
H262 C253 0.930 . S
H263 C252 0.931 . S
O264 Co240 2.117 . S
O264 C241 1.258 . S
O265 Co240 2.020 . S
O265 C267 1.256 . S
O266 Co242 2.062 . S
O266 C267 1.255 . S
C267 O265 1.256 . S
C267 O266 1.255 . S
H268 C247 0.931 . S
H269 C255 0.931 . S
Co270 N275 2.057 1_545 S
Co270 O287 2.021 . S
Co270 O290 2.062 1_545 S
Co270 O294 2.117 1_545 S
Co270 O295 2.020 . S
C271 O291 1.259 1_565 S
C271 O294 1.258 . S
Co272 N281 2.057 . S
Co272 O288 2.117 . S
Co272 O289 2.020 . S
Co272 O291 2.021 . S
Co272 O296 2.062 . S
C273 N275 1.316 . S
C273 N276 1.347 . S
C273 H278 0.931 1_556 S
C274 N275 1.375 . S
C274 C277 1.350 . S
C274 H279 0.930 . S
N275 Co270 2.057 1_565 S
N275 C273 1.316 . S
N275 C274 1.375 . S
N276 C273 1.347 . S
N276 C277 1.373 . S
C277 C274 1.350 . S
C277 N276 1.373 . S
C277 H298 0.931 . S
H278 C273 0.931 1_554 S
H279 C274 0.930 . S
C280 O287 1.259 . S
C280 O288 1.258 . S
N281 Co272 2.057 . S
N281 C282 1.316 . S
N281 C283 1.375 . S
C282 N281 1.316 . S
C282 N284 1.347 . S
C282 H293 0.931 . S
C283 N281 1.375 . S
C283 C285 1.350 . S
C283 H292 0.930 . S
N284 C282 1.347 . S
N284 C285 1.373 . S
C285 C283 1.350 . S
C285 N284 1.373 . S
C285 H299 0.931 . S
C286 O289 1.256 1_565 S
C286 O290 1.255 . S
O287 Co270 2.021 . S
O287 C280 1.259 . S
O288 Co272 2.117 . S
O288 C280 1.258 . S
O289 Co272 2.020 . S
O289 C286 1.256 1_545 S
O290 Co270 2.062 1_565 S
O290 C286 1.255 . S
O291 C271 1.259 1_545 S
O291 Co272 2.021 . S
H292 C283 0.930 . S
H293 C282 0.931 . S
O294 Co270 2.117 1_565 S
O294 C271 1.258 . S
O295 Co270 2.020 . S
O295 C297 1.256 . S
O296 Co272 2.062 . S
O296 C297 1.255 . S
C297 O295 1.256 . S
C297 O296 1.255 . S
H298 C277 0.931 . S
H299 C285 0.931 . S
Co300 N305 2.057 . S
Co300 O317 2.021 . S
Co300 O320 2.062 . S
Co300 O324 2.117 . S
Co300 O325 2.020 . S
C301 O321 1.259 . S
C301 O324 1.258 . S
Co302 N311 2.057 . S
Co302 O318 2.117 . S
Co302 O319 2.020 . S
Co302 O321 2.021 . S
Co302 O326 2.062 . S
C303 N305 1.316 1_545 S
C303 N306 1.347 . S
C303 H308 0.931 1_545 S
C304 N305 1.375 1_545 S
C304 C307 1.350 . S
C304 H309 0.930 . S
N305 Co300 2.057 . S
N305 C303 1.316 1_565 S
N305 C304 1.375 1_565 S
N306 C303 1.347 . S
N306 C307 1.373 . S
C307 C304 1.350 . S
C307 N306 1.373 . S
C307 H328 0.931 . S
H308 C303 0.931 1_565 S
H309 C304 0.930 . S
C310 O317 1.259 . S
C310 O318 1.258 . S
N311 Co302 2.057 . S
N311 C312 1.316 . S
N311 C313 1.375 . S
C312 N311 1.316 . S
C312 N314 1.347 . S
C312 H323 0.931 . S
C313 N311 1.375 . S
C313 C315 1.350 . S
C313 H322 0.930 . S
N314 C312 1.347 . S
N314 C315 1.373 . S
C315 C313 1.350 . S
C315 N314 1.373 . S
C315 H329 0.931 . S
C316 O319 1.256 . S
C316 O320 1.255 . S
O317 Co300 2.021 . S
O317 C310 1.259 . S
O318 Co302 2.117 . S
O318 C310 1.258 . S
O319 Co302 2.020 . S
O319 C316 1.256 . S
O320 Co300 2.062 . S
O320 C316 1.255 . S
O321 C301 1.259 . S
O321 Co302 2.021 . S
H322 C313 0.930 . S
H323 C312 0.931 . S
O324 Co300 2.117 . S
O324 C301 1.258 . S
O325 Co300 2.020 . S
O325 C327 1.256 . S
O326 Co302 2.062 . S
O326 C327 1.255 . S
C327 O325 1.256 . S
C327 O326 1.255 . S
H328 C307 0.931 . S
H329 C315 0.931 . S
Co330 N335 2.057 . S
Co330 O347 2.021 . S
Co330 O350 2.062 . S
Co330 O354 2.117 . S
Co330 O355 2.020 . S
C331 O351 1.259 . S
C331 O354 1.258 . S
Co332 N341 2.057 . S
Co332 O348 2.117 . S
Co332 O349 2.020 . S
Co332 O351 2.021 . S
Co332 O356 2.062 . S
C333 N335 1.316 . S
C333 N336 1.347 . S
C333 H338 0.931 . S
C334 N335 1.375 . S
C334 C337 1.350 . S
C334 H339 0.930 . S
N335 Co330 2.057 . S
N335 C333 1.316 . S
N335 C334 1.375 . S
N336 C333 1.347 . S
N336 C337 1.373 . S
C337 C334 1.350 . S
C337 N336 1.373 . S
C337 H358 0.931 . S
H338 C333 0.931 . S
H339 C334 0.930 . S
C340 O347 1.259 . S
C340 O348 1.258 . S
N341 Co332 2.057 . S
N341 C342 1.316 . S
N341 C343 1.375 . S
C342 N341 1.316 . S
C342 N344 1.347 . S
C342 H353 0.931 . S
C343 N341 1.375 . S
C343 C345 1.350 . S
C343 H352 0.930 . S
N344 C342 1.347 . S
N344 C345 1.373 . S
C345 C343 1.350 . S
C345 N344 1.373 . S
C345 H359 0.931 . S
C346 O349 1.256 . S
C346 O350 1.255 . S
O347 Co330 2.021 . S
O347 C340 1.259 . S
O348 Co332 2.117 . S
O348 C340 1.258 . S
O349 Co332 2.020 . S
O349 C346 1.256 . S
O350 Co330 2.062 . S
O350 C346 1.255 . S
O351 C331 1.259 . S
O351 Co332 2.021 . S
H352 C343 0.930 . S
H353 C342 0.931 . S
O354 Co330 2.117 . S
O354 C331 1.258 . S
O355 Co330 2.020 . S
O355 C357 1.256 . S
O356 Co332 2.062 . S
O356 C357 1.255 . S
C357 O355 1.256 . S
C357 O356 1.255 . S
H358 C337 0.931 . S
H359 C345 0.931 . S
C360 C361 1.363 . S
C360 C366 1.379 . S
C360 N368 1.356 . S
C361 C360 1.363 . S
C361 C367 1.363 . S
C362 C363 1.363 . S
C362 C367 1.379 . S
C362 N369 1.356 . S
C363 C362 1.363 . S
C363 C366 1.363 . S
N364 C366 1.356 . S
N364 H376 0.984 . S
N364 H377 0.985 . S
N365 C367 1.356 . S
N365 H370 0.984 . S
N365 H371 0.985 . S
C366 C360 1.379 . S
C366 C363 1.363 . S
C366 N364 1.356 . S
C367 C361 1.363 . S
C367 C362 1.379 . S
C367 N365 1.356 . S
N368 C360 1.356 . S
N368 H374 0.984 . S
N368 H375 0.984 . S
N369 C362 1.356 . S
N369 H372 0.984 . S
N369 H373 0.985 . S
H370 N365 0.984 . S
H371 N365 0.985 . S
H372 N369 0.984 . S
H373 N369 0.985 . S
H374 N368 0.984 . S
H375 N368 0.984 . S
H376 N364 0.984 . S
H377 N364 0.985 . S
C378 C379 1.363 . S
C378 C384 1.379 . S
C378 N386 1.356 1_565 S
C379 C378 1.363 . S
C379 C385 1.363 . S
C380 C381 1.363 . S
C380 C385 1.379 . S
C380 N387 1.356 . S
C381 C380 1.363 . S
C381 C384 1.363 . S
N382 C384 1.356 . S
N382 H394 0.984 1_565 S
N382 H395 0.985 . S
N383 C385 1.356 . S
N383 H388 0.984 . S
N383 H389 0.985 . S
C384 C378 1.379 . S
C384 C381 1.363 . S
C384 N382 1.356 . S
C385 C379 1.363 . S
C385 C380 1.379 . S
C385 N383 1.356 . S
N386 C378 1.356 1_545 S
N386 H392 0.984 . S
N386 H393 0.984 . S
N387 C380 1.356 . S
N387 H390 0.984 1_655 S
N387 H391 0.985 . S
H388 N383 0.984 . S
H389 N383 0.985 . S
H390 N387 0.984 1_455 S
H391 N387 0.985 . S
H392 N386 0.984 . S
H393 N386 0.984 . S
H394 N382 0.984 1_545 S
H395 N382 0.985 . S
C396 C397 1.363 1_556 S
C396 C402 1.379 . S
C396 N404 1.356 . S
C397 C396 1.363 1_554 S
C397 C403 1.363 . S
C398 C399 1.363 . S
C398 C403 1.379 . S
C398 N405 1.356 . S
C399 C398 1.363 . S
C399 C402 1.363 1_554 S
N400 C402 1.356 . S
N400 H412 0.984 . S
N400 H413 0.985 . S
N401 C403 1.356 . S
N401 H406 0.984 . S
N401 H407 0.985 . S
C402 C396 1.379 . S
C402 C399 1.363 1_556 S
C402 N400 1.356 . S
C403 C397 1.363 . S
C403 C398 1.379 . S
C403 N401 1.356 . S
N404 C396 1.356 . S
N404 H410 0.984 . S
N404 H411 0.984 . S
N405 C398 1.356 . S
N405 H408 0.984 . S
N405 H409 0.985 . S
H406 N401 0.984 . S
H407 N401 0.985 . S
H408 N405 0.984 . S
H409 N405 0.985 . S
H410 N404 0.984 . S
H411 N404 0.984 . S
H412 N400 0.984 . S
H413 N400 0.985 . S
C414 C415 1.363 . S
C414 C420 1.379 . S
C414 N422 1.356 . S
C415 C414 1.363 . S
C415 C421 1.363 1_545 S
C416 C417 1.363 . S
C416 C421 1.379 . S
C416 N423 1.356 . S
C417 C416 1.363 . S
C417 C420 1.363 1_565 S
N418 C420 1.356 . S
N418 H430 0.984 . S
N418 H431 0.985 . S
N419 C421 1.356 . S
N419 H424 0.984 . S
N419 H425 0.985 . S
C420 C414 1.379 . S
C420 C417 1.363 1_545 S
C420 N418 1.356 . S
C421 C415 1.363 1_565 S
C421 C416 1.379 . S
C421 N419 1.356 . S
N422 C414 1.356 . S
N422 H428 0.984 . S
N422 H429 0.984 . S
N423 C416 1.356 . S
N423 H426 0.984 . S
N423 H427 0.985 . S
H424 N419 0.984 . S
H425 N419 0.985 . S
H426 N423 0.984 . S
H427 N423 0.985 . S
H428 N422 0.984 . S
H429 N422 0.984 . S
H430 N418 0.984 . S
H431 N418 0.985 . S
C432 C433 1.363 . S
C432 C438 1.379 . S
C432 N440 1.356 . S
C433 C432 1.363 . S
C433 C439 1.363 . S
C434 C435 1.363 . S
C434 C439 1.379 . S
C434 N441 1.356 . S
C435 C434 1.363 . S
C435 C438 1.363 . S
N436 C438 1.356 . S
N436 H448 0.984 . S
N436 H449 0.985 . S
N437 C439 1.356 . S
N437 H442 0.984 . S
N437 H443 0.985 . S
C438 C432 1.379 . S
C438 C435 1.363 . S
C438 N436 1.356 . S
C439 C433 1.363 . S
C439 C434 1.379 . S
C439 N437 1.356 . S
N440 C432 1.356 . S
N440 H446 0.984 . S
N440 H447 0.984 . S
N441 C434 1.356 . S
N441 H444 0.984 . S
N441 H445 0.985 . S
H442 N437 0.984 . S
H443 N437 0.985 . S
H444 N441 0.984 . S
H445 N441 0.985 . S
H446 N440 0.984 . S
H447 N440 0.984 . S
H448 N436 0.984 . S
H449 N436 0.985 . S
C450 C451 1.363 . S
C450 C456 1.379 . S
C450 N458 1.356 . S
C451 C450 1.363 . S
C451 C457 1.363 . S
C452 C453 1.363 . S
C452 C457 1.379 . S
C452 N459 1.356 . S
C453 C452 1.363 . S
C453 C456 1.363 . S
N454 C456 1.356 . S
N454 H466 0.984 . S
N454 H467 0.985 . S
N455 C457 1.356 . S
N455 H460 0.984 . S
N455 H461 0.985 . S
C456 C450 1.379 . S
C456 C453 1.363 . S
C456 N454 1.356 . S
C457 C451 1.363 . S
C457 C452 1.379 . S
C457 N455 1.356 . S
N458 C450 1.356 . S
N458 H464 0.984 . S
N458 H465 0.984 . S
N459 C452 1.356 . S
N459 H462 0.984 . S
N459 H463 0.985 . S
H460 N455 0.984 . S
H461 N455 0.985 . S
H462 N459 0.984 . S
H463 N459 0.985 . S
H464 N458 0.984 . S
H465 N458 0.984 . S
H466 N454 0.984 . S
H467 N454 0.985 . S
C468 C469 1.363 1_556 S
C468 C474 1.379 . S
C468 N476 1.356 . S
C469 C468 1.363 1_554 S
C469 C475 1.363 . S
C470 C471 1.373 . S
C470 C475 1.379 . S
C470 N477 1.356 . S
C471 C470 1.373 . S
C471 C474 1.355 1_554 S
N472 C474 1.356 . S
N472 H484 0.984 . S
N472 H485 0.985 . S
N473 C475 1.356 . S
N473 H478 0.984 . S
N473 H479 0.985 . S
C474 C468 1.379 . S
C474 C471 1.355 1_556 S
C474 N472 1.356 . S
C475 C469 1.363 . S
C475 C470 1.379 . S
C475 N473 1.356 . S
N476 C468 1.356 . S
N476 H482 0.984 . S
N476 H483 0.984 . S
N477 C470 1.356 . S
N477 H480 0.984 . S
N477 H481 0.985 . S
H478 N473 0.984 . S
H479 N473 0.985 . S
H480 N477 0.984 . S
H481 N477 0.985 . S
H482 N476 0.984 . S
H483 N476 0.984 . S
H484 N472 0.984 . S
H485 N472 0.985 . S
C486 C487 1.363 . S
C486 C492 1.379 . S
C486 N494 1.356 . S
C487 C486 1.363 . S
C487 C493 1.363 . S
C488 C489 1.363 . S
C488 C493 1.379 . S
C488 N495 1.356 . S
C489 C488 1.363 . S
C489 C492 1.363 . S
N490 C492 1.356 . S
N490 H502 0.984 . S
N490 H503 0.985 . S
N491 C493 1.356 . S
N491 H496 0.984 . S
N491 H497 0.985 . S
C492 C486 1.379 . S
C492 C489 1.363 . S
C492 N490 1.356 . S
C493 C487 1.363 . S
C493 C488 1.379 . S
C493 N491 1.356 . S
N494 C486 1.356 . S
N494 H500 0.984 . S
N494 H501 0.984 . S
N495 C488 1.356 . S
N495 H498 0.984 . S
N495 H499 0.985 . S
H496 N491 0.984 . S
H497 N491 0.985 . S
H498 N495 0.984 . S
H499 N495 0.985 . S
H500 N494 0.984 . S
H501 N494 0.984 . S
H502 N490 0.984 . S
H503 N490 0.985 . S
C504 C505 1.363 . S
C504 C510 1.379 . S
C504 N512 1.356 . S
C505 C504 1.363 . S
C505 C511 1.363 . S
C506 C507 1.363 . S
C506 C511 1.379 . S
C506 N513 1.356 . S
C507 C506 1.363 . S
C507 C510 1.363 . S
N508 C510 1.356 . S
N508 H520 0.984 . S
N508 H521 0.985 . S
N509 C511 1.356 . S
N509 H514 0.984 . S
N509 H515 0.985 . S
C510 C504 1.379 . S
C510 C507 1.363 . S
C510 N508 1.356 . S
C511 C505 1.363 . S
C511 C506 1.379 . S
C511 N509 1.356 . S
N512 C504 1.356 . S
N512 H518 0.984 . S
N512 H519 0.984 . S
N513 C506 1.356 . S
N513 H516 0.984 . S
N513 H517 0.985 . S
H514 N509 0.984 . S
H515 N509 0.985 . S
H516 N513 0.984 . S
H517 N513 0.985 . S
H518 N512 0.984 . S
H519 N512 0.984 . S
H520 N508 0.984 . S
H521 N508 0.985 . S
C522 C523 1.363 . S
C522 C528 1.379 . S
C522 N530 1.356 . S
C523 C522 1.363 . S
C523 C529 1.363 . S
C524 C525 1.363 1_655 S
C524 C529 1.379 1_655 S
C524 N531 1.356 . S
C525 C524 1.363 1_455 S
C525 C528 1.363 . S
N526 C528 1.356 . S
N526 H538 0.984 . S
N526 H539 0.985 . S
N527 C529 1.350 1_655 S
N527 H532 0.978 1_655 S
N527 H533 0.997 . S
C528 C522 1.379 . S
C528 C525 1.363 . S
C528 N526 1.356 . S
C529 C523 1.363 . S
C529 C524 1.379 1_455 S
C529 N527 1.350 1_455 S
N530 C522 1.356 . S
N530 H536 0.984 . S
N530 H537 0.984 . S
N531 C524 1.356 . S
N531 H534 0.984 . S
N531 H535 0.985 . S
H532 N527 0.978 1_455 S
H533 N527 0.997 . S
H534 N531 0.984 . S
H535 N531 0.985 . S
H536 N530 0.984 . S
H537 N530 0.984 . S
H538 N526 0.984 . S
H539 N526 0.985 . S
C540 C541 1.363 . S
C540 C546 1.379 . S
C540 N548 1.356 . S
C541 C540 1.363 . S
C541 C547 1.363 . S
C542 C543 1.363 . S
C542 C547 1.379 . S
C542 N549 1.356 . S
C543 C542 1.363 . S
C543 C546 1.363 . S
N544 C546 1.356 . S
N544 H556 0.984 . S
N544 H557 0.985 . S
N545 C547 1.356 1_655 S
N545 H550 0.984 . S
N545 H551 0.985 . S
C546 C540 1.379 . S
C546 C543 1.363 . S
C546 N544 1.356 . S
C547 C541 1.363 . S
C547 C542 1.379 . S
C547 N545 1.356 1_455 S
N548 C540 1.356 . S
N548 H554 0.984 . S
N548 H555 0.984 . S
N549 C542 1.356 . S
N549 H552 0.984 . S
N549 H553 0.985 1_455 S
H550 N545 0.984 . S
H551 N545 0.985 . S
H552 N549 0.984 . S
H553 N549 0.985 1_655 S
H554 N548 0.984 . S
H555 N548 0.984 . S
H556 N544 0.984 . S
H557 N544 0.985 . S
C558 C559 1.363 . S
C558 C564 1.379 . S
C558 N566 1.356 . S
C559 C558 1.363 . S
C559 C565 1.363 . S
C560 C561 1.363 . S
C560 C565 1.379 . S
C560 N567 1.356 . S
C561 C560 1.363 . S
C561 C564 1.363 . S
N562 C564 1.356 . S
N562 H574 0.984 . S
N562 H575 0.985 . S
N563 C565 1.356 . S
N563 H568 0.984 . S
N563 H569 0.985 . S
C564 C558 1.379 . S
C564 C561 1.363 . S
C564 N562 1.356 . S
C565 C559 1.363 . S
C565 C560 1.379 . S
C565 N563 1.356 . S
N566 C558 1.356 . S
N566 H572 0.984 . S
N566 H573 0.984 . S
N567 C560 1.356 . S
N567 H570 0.984 . S
N567 H571 0.985 . S
H568 N563 0.984 . S
H569 N563 0.985 . S
H570 N567 0.984 . S
H571 N567 0.985 . S
H572 N566 0.984 . S
H573 N566 0.984 . S
H574 N562 0.984 . S
H575 N562 0.985 . S
C576 C577 1.363 . S
C576 C582 1.379 . S
C576 N584 1.356 . S
C577 C576 1.363 . S
C577 C583 1.363 . S
C578 C579 1.363 . S
C578 C583 1.379 . S
C578 N585 1.356 . S
C579 C578 1.363 . S
C579 C582 1.363 . S
N580 C582 1.356 . S
N580 H592 0.984 . S
N580 H593 0.985 . S
N581 C583 1.356 . S
N581 H586 0.984 . S
N581 H587 0.985 . S
C582 C576 1.379 . S
C582 C579 1.363 . S
C582 N580 1.356 . S
C583 C577 1.363 . S
C583 C578 1.379 . S
C583 N581 1.356 . S
N584 C576 1.356 . S
N584 H590 0.984 . S
N584 H591 0.984 . S
N585 C578 1.356 . S
N585 H588 0.984 . S
N585 H589 0.985 . S
H586 N581 0.984 . S
H587 N581 0.985 . S
H588 N585 0.984 . S
H589 N585 0.985 . S
H590 N584 0.984 . S
H591 N584 0.984 . S
H592 N580 0.984 . S
H593 N580 0.985 . S
C594 C595 1.363 . S
C594 C600 1.379 . S
C594 N602 1.356 . S
C595 C594 1.363 . S
C595 C601 1.363 1_655 S
C596 C597 1.363 . S
C596 C601 1.379 1_655 S
C596 N603 1.356 . S
C597 C596 1.363 . S
C597 C600 1.363 . S
N598 C600 1.356 . S
N598 H610 0.984 . S
N598 H611 0.985 . S
N599 C601 1.356 . S
N599 H604 0.984 . S
N599 H605 0.985 . S
C600 C594 1.379 . S
C600 C597 1.363 . S
C600 N598 1.356 . S
C601 C595 1.363 1_455 S
C601 C596 1.379 1_455 S
C601 N599 1.356 . S
N602 C594 1.356 . S
N602 H608 0.984 . S
N602 H609 0.984 . S
N603 C596 1.356 . S
N603 H606 0.984 . S
N603 H607 0.985 1_655 S
H604 N599 0.984 . S
H605 N599 0.985 . S
H606 N603 0.984 . S
H607 N603 0.985 1_455 S
H608 N602 0.984 . S
H609 N602 0.984 . S
H610 N598 0.984 . S
H611 N598 0.985 . S
C612 C613 1.363 . S
C612 C618 1.379 . S
C612 N620 1.356 . S
C613 C612 1.363 . S
C613 C619 1.363 . S
C614 C615 1.363 . S
C614 C619 1.379 . S
C614 N621 1.356 . S
C615 C614 1.363 . S
C615 C618 1.363 . S
N616 C618 1.356 . S
N616 H628 0.984 . S
N616 H629 0.985 . S
N617 C619 1.356 . S
N617 H622 0.984 . S
N617 H623 0.985 . S
C618 C612 1.379 . S
C618 C615 1.363 . S
C618 N616 1.356 . S
C619 C613 1.363 . S
C619 C614 1.379 . S
C619 N617 1.356 . S
N620 C612 1.356 . S
N620 H626 0.984 . S
N620 H627 0.984 . S
N621 C614 1.356 . S
N621 H624 0.984 . S
N621 H625 0.985 . S
H622 N617 0.984 . S
H623 N617 0.985 . S
H624 N621 0.984 . S
H625 N621 0.985 . S
H626 N620 0.984 . S
H627 N620 0.984 . S
H628 N616 0.984 . S
H629 N616 0.985 . S
C630 C631 1.363 . S
C630 C636 1.379 1_554 S
C630 N638 1.356 . S
C631 C630 1.363 . S
C631 C637 1.363 . S
C632 C633 1.363 1_554 S
C632 C637 1.379 . S
C632 N639 1.356 . S
C633 C632 1.363 1_556 S
C633 C636 1.363 . S
N634 C636 1.356 . S
N634 H646 0.984 . S
N634 H647 0.985 . S
N635 C637 1.356 . S
N635 H640 0.984 . S
N635 H641 0.985 . S
C636 C630 1.379 1_556 S
C636 C633 1.363 . S
C636 N634 1.356 . S
C637 C631 1.363 . S
C637 C632 1.379 . S
C637 N635 1.356 . S
N638 C630 1.356 . S
N638 H644 0.984 . S
N638 H645 0.984 . S
N639 C632 1.356 . S
N639 H642 0.984 1_554 S
N639 H643 0.985 . S
H640 N635 0.984 . S
H641 N635 0.985 . S
H642 N639 0.984 1_556 S
H643 N639 0.985 . S
H644 N638 0.984 . S
H645 N638 0.984 . S
H646 N634 0.984 . S
H647 N634 0.985 . S
C648 C649 1.363 . S
C648 C654 1.379 . S
C648 N656 1.356 . S
C649 C648 1.363 . S
C649 C655 1.363 . S
C650 C651 1.363 . S
C650 C655 1.379 . S
C650 N657 1.356 . S
C651 C650 1.363 . S
C651 C654 1.363 . S
N652 C654 1.356 . S
N652 H664 0.984 . S
N652 H665 0.985 . S
N653 C655 1.356 . S
N653 H658 0.984 . S
N653 H659 0.985 . S
C654 C648 1.379 . S
C654 C651 1.363 . S
C654 N652 1.356 . S
C655 C649 1.363 . S
C655 C650 1.379 . S
C655 N653 1.356 . S
N656 C648 1.356 . S
N656 H662 0.984 . S
N656 H663 0.984 . S
N657 C650 1.356 . S
N657 H660 0.984 . S
N657 H661 0.985 . S
H658 N653 0.984 . S
H659 N653 0.985 . S
H660 N657 0.984 . S
H661 N657 0.985 . S
H662 N656 0.984 . S
H663 N656 0.984 . S
H664 N652 0.984 . S
H665 N652 0.985 . S
C666 C667 1.363 . S
C666 C672 1.379 . S
C666 N674 1.356 . S
C667 C666 1.363 . S
C667 C673 1.363 . S
C668 C669 1.363 . S
C668 C673 1.379 . S
C668 N675 1.356 1_455 S
C669 C668 1.363 . S
C669 C672 1.363 . S
N670 C672 1.356 . S
N670 H682 0.984 . S
N670 H683 0.985 . S
N671 C673 1.356 . S
N671 H676 0.984 . S
N671 H677 0.985 . S
C672 C666 1.379 . S
C672 C669 1.363 . S
C672 N670 1.356 . S
C673 C667 1.363 . S
C673 C668 1.379 . S
C673 N671 1.356 . S
N674 C666 1.356 . S
N674 H680 0.984 . S
N674 H681 0.984 . S
N675 C668 1.356 1_655 S
N675 H678 0.984 . S
N675 H679 0.985 . S
H676 N671 0.984 . S
H677 N671 0.985 . S
H678 N675 0.984 . S
H679 N675 0.985 . S
H680 N674 0.984 . S
H681 N674 0.984 . S
H682 N670 0.984 . S
H683 N670 0.985 . S
C684 C685 1.363 . S
C684 C690 1.379 . S
C684 N692 1.356 . S
C685 C684 1.363 . S
C685 C691 1.363 . S
C686 C687 1.363 . S
C686 C691 1.379 . S
C686 N693 1.356 . S
C687 C686 1.363 . S
C687 C690 1.363 . S
N688 C690 1.356 . S
N688 H700 0.984 1_655 S
N688 H701 0.985 . S
N689 C691 1.356 . S
N689 H694 0.984 . S
N689 H695 0.985 . S
C690 C684 1.379 . S
C690 C687 1.363 . S
C690 N688 1.356 . S
C691 C685 1.363 . S
C691 C686 1.379 . S
C691 N689 1.356 . S
N692 C684 1.356 . S
N692 H698 0.984 1_655 S
N692 H699 0.984 . S
N693 C686 1.356 . S
N693 H696 0.984 . S
N693 H697 0.985 . S
H694 N689 0.984 . S
H695 N689 0.985 . S
H696 N693 0.984 . S
H697 N693 0.985 . S
H698 N692 0.984 1_455 S
H699 N692 0.984 . S
H700 N688 0.984 1_455 S
H701 N688 0.985 . S
C702 C703 1.363 . S
C702 C708 1.379 . S
C702 N710 1.356 . S
C703 C702 1.363 . S
C703 C709 1.363 . S
C704 C705 1.363 . S
C704 C709 1.379 . S
C704 N711 1.356 . S
C705 C704 1.363 . S
C705 C708 1.363 . S
N706 C708 1.356 . S
N706 H718 0.984 . S
N706 H719 0.985 . S
N707 C709 1.356 . S
N707 H712 0.984 . S
N707 H713 0.985 . S
C708 C702 1.379 . S
C708 C705 1.363 . S
C708 N706 1.356 . S
C709 C703 1.363 . S
C709 C704 1.379 . S
C709 N707 1.356 . S
N710 C702 1.356 . S
N710 H716 0.984 . S
N710 H717 0.984 . S
N711 C704 1.356 . S
N711 H714 0.984 . S
N711 H715 0.985 . S
H712 N707 0.984 . S
H713 N707 0.985 . S
H714 N711 0.984 . S
H715 N711 0.985 . S
H716 N710 0.984 . S
H717 N710 0.984 . S
H718 N706 0.984 . S
H719 N706 0.985 . S
C720 C721 1.363 . S
C720 C726 1.379 . S
C720 N728 1.356 . S
C721 C720 1.363 . S
C721 C727 1.363 . S
C722 C723 1.363 . S
C722 C727 1.379 . S
C722 N729 1.356 . S
C723 C722 1.363 . S
C723 C726 1.363 . S
N724 C726 1.356 . S
N724 H736 0.984 . S
N724 H737 0.985 . S
N725 C727 1.356 . S
N725 H730 0.984 . S
N725 H731 0.985 . S
C726 C720 1.379 . S
C726 C723 1.363 . S
C726 N724 1.356 . S
C727 C721 1.363 . S
C727 C722 1.379 . S
C727 N725 1.356 . S
N728 C720 1.356 . S
N728 H734 0.984 . S
N728 H735 0.984 . S
N729 C722 1.356 . S
N729 H732 0.984 . S
N729 H733 0.985 . S
H730 N725 0.984 . S
H731 N725 0.985 . S
H732 N729 0.984 . S
H733 N729 0.985 . S
H734 N728 0.984 . S
H735 N728 0.984 . S
H736 N724 0.984 . S
H737 N724 0.985 . S
C738 C739 1.363 . S
C738 C744 1.379 . S
C738 N746 1.356 . S
C739 C738 1.363 . S
C739 C745 1.363 . S
C740 C741 1.363 . S
C740 C745 1.379 . S
C740 N747 1.356 . S
C741 C740 1.363 . S
C741 C744 1.363 . S
N742 C744 1.356 . S
N742 H754 0.984 . S
N742 H755 0.985 1_545 S
N743 C745 1.356 . S
N743 H748 0.984 . S
N743 H749 0.985 . S
C744 C738 1.379 . S
C744 C741 1.363 . S
C744 N742 1.356 . S
C745 C739 1.363 . S
C745 C740 1.379 . S
C745 N743 1.356 . S
N746 C738 1.356 . S
N746 H752 0.984 . S
N746 H753 0.984 . S
N747 C740 1.356 . S
N747 H750 0.984 . S
N747 H751 0.985 . S
H748 N743 0.984 . S
H749 N743 0.985 . S
H750 N747 0.984 . S
H751 N747 0.985 . S
H752 N746 0.984 . S
H753 N746 0.984 . S
H754 N742 0.984 . S
H755 N742 0.985 1_565 S
C756 C757 1.363 . S
C756 C762 1.379 . S
C756 N764 1.356 . S
C757 C756 1.363 . S
C757 C763 1.363 . S
C758 C759 1.363 . S
C758 C763 1.379 . S
C758 N765 1.356 . S
C759 C758 1.363 . S
C759 C762 1.363 . S
N760 C762 1.356 . S
N760 H772 0.984 . S
N760 H773 0.985 . S
N761 C763 1.356 . S
N761 H766 0.984 . S
N761 H767 0.985 . S
C762 C756 1.379 . S
C762 C759 1.363 . S
C762 N760 1.356 . S
C763 C757 1.363 . S
C763 C758 1.379 . S
C763 N761 1.356 . S
N764 C756 1.356 . S
N764 H770 0.984 . S
N764 H771 0.984 . S
N765 C758 1.356 . S
N765 H768 0.984 . S
N765 H769 0.985 . S
H766 N761 0.984 . S
H767 N761 0.985 . S
H768 N765 0.984 . S
H769 N765 0.985 . S
H770 N764 0.984 . S
H771 N764 0.984 . S
H772 N760 0.984 . S
H773 N760 0.985 . S
C774 C775 1.363 . S
C774 C780 1.379 . S
C774 N782 1.356 . S
C775 C774 1.363 . S
C775 C781 1.363 . S
C776 C777 1.363 . S
C776 C781 1.379 . S
C776 N783 1.356 1_554 S
C777 C776 1.363 . S
C777 C780 1.363 . S
N778 C780 1.356 . S
N778 H790 0.984 . S
N778 H791 0.985 . S
N779 C781 1.356 1_545 S
N779 H784 0.984 . S
N779 H785 0.985 1_554 S
C780 C774 1.379 . S
C780 C777 1.363 . S
C780 N778 1.356 . S
C781 C775 1.363 . S
C781 C776 1.379 . S
C781 N779 1.356 1_565 S
N782 C774 1.356 . S
N782 H788 0.984 . S
N782 H789 0.984 . S
N783 C776 1.356 1_556 S
N783 H786 0.984 . S
N783 H787 0.985 . S
H784 N779 0.984 . S
H785 N779 0.985 1_556 S
H786 N783 0.984 . S
H787 N783 0.985 . S
H788 N782 0.984 . S
H789 N782 0.984 . S
H790 N778 0.984 . S
H791 N778 0.985 . S
C792 C793 1.363 . S
C792 C798 1.379 . S
C792 N800 1.356 . S
C793 C792 1.363 . S
C793 C799 1.363 . S
C794 C795 1.363 . S
C794 C799 1.379 . S
C794 N801 1.356 . S
C795 C794 1.363 . S
C795 C798 1.363 . S
N796 C798 1.356 . S
N796 H808 0.984 . S
N796 H809 0.985 . S
N797 C799 1.356 . S
N797 H802 0.984 . S
N797 H803 0.985 . S
C798 C792 1.379 . S
C798 C795 1.363 . S
C798 N796 1.356 . S
C799 C793 1.363 . S
C799 C794 1.379 . S
C799 N797 1.356 . S
N800 C792 1.356 . S
N800 H806 0.984 . S
N800 H807 0.984 . S
N801 C794 1.356 . S
N801 H804 0.984 . S
N801 H805 0.985 . S
H802 N797 0.984 . S
H803 N797 0.985 . S
H804 N801 0.984 . S
H805 N801 0.985 . S
H806 N800 0.984 . S
H807 N800 0.984 . S
H808 N796 0.984 . S
H809 N796 0.985 . S
C810 C811 1.363 . S
C810 C816 1.379 . S
C810 N818 1.356 . S
C811 C810 1.363 . S
C811 C817 1.363 . S
C812 C813 1.363 . S
C812 C817 1.379 . S
C812 N819 1.356 . S
C813 C812 1.363 . S
C813 C816 1.363 . S
N814 C816 1.356 . S
N814 H826 0.984 . S
N814 H827 0.985 . S
N815 C817 1.356 . S
N815 H820 0.984 . S
N815 H821 0.985 . S
C816 C810 1.379 . S
C816 C813 1.363 . S
C816 N814 1.356 . S
C817 C811 1.363 . S
C817 C812 1.379 . S
C817 N815 1.356 . S
N818 C810 1.356 . S
N818 H824 0.984 . S
N818 H825 0.984 . S
N819 C812 1.356 . S
N819 H822 0.984 . S
N819 H823 0.985 . S
H820 N815 0.984 . S
H821 N815 0.985 . S
H822 N819 0.984 . S
H823 N819 0.985 . S
H824 N818 0.984 . S
H825 N818 0.984 . S
H826 N814 0.984 . S
H827 N814 0.985 . S
C828 C829 1.363 . S
C828 C834 1.379 . S
C828 N836 1.356 . S
C829 C828 1.363 . S
C829 C835 1.363 . S
C830 C831 1.363 . S
C830 C835 1.379 . S
C830 N837 1.356 . S
C831 C830 1.363 . S
C831 C834 1.363 . S
N832 C834 1.356 . S
N832 H844 0.984 . S
N832 H845 0.985 . S
N833 C835 1.356 . S
N833 H838 0.984 . S
N833 H839 0.985 . S
C834 C828 1.379 . S
C834 C831 1.363 . S
C834 N832 1.356 . S
C835 C829 1.363 . S
C835 C830 1.379 . S
C835 N833 1.356 . S
N836 C828 1.356 . S
N836 H842 0.984 . S
N836 H843 0.984 . S
N837 C830 1.356 . S
N837 H840 0.984 . S
N837 H841 0.985 . S
H838 N833 0.984 . S
H839 N833 0.985 . S
H840 N837 0.984 . S
H841 N837 0.985 . S
H842 N836 0.984 . S
H843 N836 0.984 . S
H844 N832 0.984 . S
H845 N832 0.985 . S
C846 C847 1.363 . S
C846 C852 1.379 . S
C846 N854 1.356 . S
C847 C846 1.363 . S
C847 C853 1.363 . S
C848 C849 1.363 . S
C848 C853 1.379 . S
C848 N855 1.356 . S
C849 C848 1.363 . S
C849 C852 1.363 . S
N850 C852 1.356 . S
N850 H862 0.984 . S
N850 H863 0.985 . S
N851 C853 1.356 . S
N851 H856 0.984 . S
N851 H857 0.985 . S
C852 C846 1.379 . S
C852 C849 1.363 . S
C852 N850 1.356 . S
C853 C847 1.363 . S
C853 C848 1.379 . S
C853 N851 1.356 . S
N854 C846 1.356 . S
N854 H860 0.984 . S
N854 H861 0.984 . S
N855 C848 1.356 . S
N855 H858 0.984 . S
N855 H859 0.985 . S
H856 N851 0.984 . S
H857 N851 0.985 . S
H858 N855 0.984 . S
H859 N855 0.985 . S
H860 N854 0.984 . S
H861 N854 0.984 . S
H862 N850 0.984 . S
H863 N850 0.985 . S
C864 C865 1.363 . S
C864 C870 1.379 . S
C864 N872 1.356 . S
C865 C864 1.363 . S
C865 C871 1.363 . S
C866 C867 1.363 . S
C866 C871 1.379 . S
C866 N873 1.356 . S
C867 C866 1.363 . S
C867 C870 1.363 . S
N868 C870 1.356 . S
N868 H880 0.984 . S
N868 H881 0.985 . S
N869 C871 1.356 . S
N869 H874 0.984 . S
N869 H875 0.985 . S
C870 C864 1.379 . S
C870 C867 1.363 . S
C870 N868 1.356 . S
C871 C865 1.363 . S
C871 C866 1.379 . S
C871 N869 1.356 . S
N872 C864 1.356 . S
N872 H878 0.984 . S
N872 H879 0.984 . S
N873 C866 1.356 . S
N873 H876 0.984 . S
N873 H877 0.985 . S
H874 N869 0.984 . S
H875 N869 0.985 . S
H876 N873 0.984 . S
H877 N873 0.985 . S
H878 N872 0.984 . S
H879 N872 0.984 . S
H880 N868 0.984 . S
H881 N868 0.985 . S
C882 C883 1.363 . S
C882 C888 1.379 . S
C882 N890 1.356 . S
C883 C882 1.363 . S
C883 C889 1.363 . S
C884 C885 1.363 . S
C884 C889 1.379 . S
C884 N891 1.356 . S
C885 C884 1.363 . S
C885 C888 1.363 . S
N886 C888 1.356 . S
N886 H898 0.984 . S
N886 H899 0.985 . S
N887 C889 1.356 . S
N887 H892 0.984 . S
N887 H893 0.985 . S
C888 C882 1.379 . S
C888 C885 1.363 . S
C888 N886 1.356 . S
C889 C883 1.363 . S
C889 C884 1.379 . S
C889 N887 1.356 . S
N890 C882 1.356 . S
N890 H896 0.984 . S
N890 H897 0.984 . S
N891 C884 1.356 . S
N891 H894 0.984 . S
N891 H895 0.985 . S
H892 N887 0.984 . S
H893 N887 0.985 . S
H894 N891 0.984 . S
H895 N891 0.985 . S
H896 N890 0.984 . S
H897 N890 0.984 . S
H898 N886 0.984 . S
H899 N886 0.985 . S
C900 C901 1.363 . S
C900 C906 1.379 . S
C900 N908 1.356 . S
C901 C900 1.363 . S
C901 C907 1.363 . S
C902 C903 1.363 1_455 S
C902 C907 1.379 . S
C902 N909 1.356 1_455 S
C903 C902 1.363 1_655 S
C903 C906 1.363 1_655 S
N904 C906 1.356 . S
N904 H916 0.984 . S
N904 H917 0.985 1_455 S
N905 C907 1.356 . S
N905 H910 0.984 . S
N905 H911 0.985 . S
C906 C900 1.379 . S
C906 C903 1.363 1_455 S
C906 N904 1.356 . S
C907 C901 1.363 . S
C907 C902 1.379 . S
C907 N905 1.356 . S
N908 C900 1.356 . S
N908 H914 0.984 . S
N908 H915 0.984 . S
N909 C902 1.356 1_655 S
N909 H912 0.984 . S
N909 H913 0.985 . S
H910 N905 0.984 . S
H911 N905 0.985 . S
H912 N909 0.984 . S
H913 N909 0.985 . S
H914 N908 0.984 . S
H915 N908 0.984 . S
H916 N904 0.984 . S
H917 N904 0.985 1_655 S
C918 C919 1.363 . S
C918 C924 1.379 . S
C918 N926 1.356 . S
C919 C918 1.363 . S
C919 C925 1.363 . S
C920 C921 1.363 . S
C920 C925 1.379 . S
C920 N927 1.356 . S
C921 C920 1.363 . S
C921 C924 1.363 . S
N922 C924 1.356 . S
N922 H934 0.984 . S
N922 H935 0.985 . S
N923 C925 1.356 . S
N923 H928 0.984 . S
N923 H929 0.985 . S
C924 C918 1.379 . S
C924 C921 1.363 . S
C924 N922 1.356 . S
C925 C919 1.363 . S
C925 C920 1.379 . S
C925 N923 1.356 . S
N926 C918 1.356 . S
N926 H932 0.984 . S
N926 H933 0.984 . S
N927 C920 1.356 . S
N927 H930 0.984 . S
N927 H931 0.985 . S
H928 N923 0.984 . S
H929 N923 0.985 . S
H930 N927 0.984 . S
H931 N927 0.985 . S
H932 N926 0.984 . S
H933 N926 0.984 . S
H934 N922 0.984 . S
H935 N922 0.985 . S
C936 C937 1.363 . S
C936 C942 1.379 . S
C936 N944 1.356 . S
C937 C936 1.363 . S
C937 C943 1.363 . S
C938 C939 1.363 . S
C938 C943 1.379 . S
C938 N945 1.356 . S
C939 C938 1.363 . S
C939 C942 1.363 . S
N940 C942 1.356 . S
N940 H952 0.984 . S
N940 H953 0.985 . S
N941 C943 1.356 . S
N941 H946 0.984 . S
N941 H947 0.985 . S
C942 C936 1.379 . S
C942 C939 1.363 . S
C942 N940 1.356 . S
C943 C937 1.363 . S
C943 C938 1.379 . S
C943 N941 1.356 . S
N944 C936 1.356 . S
N944 H950 0.984 . S
N944 H951 0.984 . S
N945 C938 1.356 . S
N945 H948 0.984 . S
N945 H949 0.985 . S
H946 N941 0.984 . S
H947 N941 0.985 . S
H948 N945 0.984 . S
H949 N945 0.985 . S
H950 N944 0.984 . S
H951 N944 0.984 . S
H952 N940 0.984 . S
H953 N940 0.985 . S
C954 C955 1.363 . S
C954 C960 1.379 . S
C954 N962 1.356 . S
C955 C954 1.363 . S
C955 C961 1.363 . S
C956 C957 1.363 . S
C956 C961 1.379 . S
C956 N963 1.356 . S
C957 C956 1.363 . S
C957 C960 1.363 . S
N958 C960 1.356 . S
N958 H970 0.984 . S
N958 H971 0.985 . S
N959 C961 1.356 . S
N959 H964 0.984 . S
N959 H965 0.985 . S
C960 C954 1.379 . S
C960 C957 1.363 . S
C960 N958 1.356 . S
C961 C955 1.363 . S
C961 C956 1.379 . S
C961 N959 1.356 . S
N962 C954 1.356 . S
N962 H968 0.984 . S
N962 H969 0.984 . S
N963 C956 1.356 . S
N963 H966 0.984 . S
N963 H967 0.985 . S
H964 N959 0.984 . S
H965 N959 0.985 . S
H966 N963 0.984 . S
H967 N963 0.985 . S
H968 N962 0.984 . S
H969 N962 0.984 . S
H970 N958 0.984 . S
H971 N958 0.985 . S
C972 C973 1.363 . S
C972 C978 1.379 . S
C972 N980 1.356 . S
C973 C972 1.363 . S
C973 C979 1.363 . S
C974 C975 1.363 . S
C974 C979 1.379 . S
C974 N981 1.356 . S
C975 C974 1.363 . S
C975 C978 1.363 . S
N976 C978 1.356 1_545 S
N976 H988 0.984 . S
N976 H989 0.985 . S
N977 C979 1.356 . S
N977 H982 0.984 . S
N977 H983 0.985 . S
C978 C972 1.379 . S
C978 C975 1.363 . S
C978 N976 1.356 1_565 S
C979 C973 1.363 . S
C979 C974 1.379 . S
C979 N977 1.356 . S
N980 C972 1.356 . S
N980 H986 0.984 . S
N980 H987 0.984 . S
N981 C974 1.356 . S
N981 H984 0.984 . S
N981 H985 0.985 . S
H982 N977 0.984 . S
H983 N977 0.985 . S
H984 N981 0.984 . S
H985 N981 0.985 . S
H986 N980 0.984 . S
H987 N980 0.984 . S
H988 N976 0.984 . S
H989 N976 0.985 . S
C990 C991 1.363 1_565 S
C990 C996 1.379 1_665 S
C990 N998 1.356 . S
C991 C990 1.363 1_545 S
C991 C997 1.363 . S
C992 C993 1.363 . S
C992 C997 1.379 . S
C992 N999 1.356 . S
C993 C992 1.363 . S
C993 C996 1.363 1_655 S
N994 C996 1.356 . S
N994 H1006 0.984 . S
N994 H1007 0.985 . S
N995 C997 1.356 . S
N995 H1000 0.984 . S
N995 H1001 0.985 . S
C996 C990 1.379 1_445 S
C996 C993 1.363 1_455 S
C996 N994 1.356 . S
C997 C991 1.363 . S
C997 C992 1.379 . S
C997 N995 1.356 . S
N998 C990 1.356 . S
N998 H1004 0.984 . S
N998 H1005 0.984 . S
N999 C992 1.356 . S
N999 H1002 0.984 . S
N999 H1003 0.985 . S
H1000 N995 0.984 . S
H1001 N995 0.985 . S
H1002 N999 0.984 . S
H1003 N999 0.985 . S
H1004 N998 0.984 . S
H1005 N998 0.984 . S
H1006 N994 0.984 . S
H1007 N994 0.985 . S
C361 N6 1.680 . S
C363 N336 1.617 . S
C379 C271 2.316 . S
C381 C31 2.328 1_655 S
C397 N66 2.150 . S
C399 C241 2.254 . S
C415 C91 2.302 . S
C417 C301 2.290 . S
C433 N126 1.346 . S
C435 N306 1.449 . S
C451 N156 1.713 . S
C453 C331 1.755 . S
C469 N276 1.867 1_554 S
C471 C181 1.958 . S
C487 N216 0.949 . S
C489 N246 0.874 . S
C505 N96 1.652 . S
C507 C121 1.710 . S
C523 C1 2.458 . S
C525 C151 2.506 1_455 S
C541 N36 0.880 . S
C543 N186 0.811 . S
C559 C211 2.389 . S
C561 C61 2.381 . S
C577 C16 1.218 . S
C579 C250 1.224 . S
C595 C57 1.581 1_655 S
C597 C310 1.516 . S
C613 N344 1.058 . S
C615 C76 1.006 . S
C631 C117 1.835 . S
C633 C280 1.847 . S
C649 C136 1.018 . S
C651 N284 1.013 . S
C667 N254 1.075 . S
C669 C166 1.049 . S
C685 N314 1.218 . S
C687 C207 1.219 . S
C703 C340 1.299 . S
C705 C226 1.341 . S
C721 C10 1.706 . S
C723 C106 1.697 . S
C739 C27 1.016 . S
C741 N44 1.023 . S
C757 C46 1.791 . S
C759 C70 1.767 . S
C775 N104 1.260 1_565 S
C777 C87 1.244 . S
C793 C177 1.364 . S
C795 C130 1.358 . S
C811 C160 1.756 . S
C813 C196 1.798 . S
C829 N194 1.124 . S
C831 C237 1.129 . S
C847 C147 1.270 . S
C849 C220 1.253 . S
C865 C256 1.493 . S
C867 C100 1.499 . S
C883 N164 1.441 . S
C885 C297 1.410 . S
C901 C267 1.143 . S
C903 C190 1.114 . S
C919 C327 1.252 . S
C921 N224 1.247 . S
C937 N134 0.693 . S
C939 C346 0.699 . S
C955 C357 0.971 . S
C957 C40 0.973 . S
C973 N74 1.293 . S
C975 C286 1.274 . S
C991 C316 1.298 1_545 S
C993 N14 1.289 1_655 S
