# Generated by pormake.
# Topology zfb, (5)-cn, num edge types: 1
# Building blocks:
#     Node 0, Type 0, BuildingBlock: XOMCOT_clean_sbu_1, # of connection points: 5
#     Node 1, Type 0, BuildingBlock: XOMCOT_clean_sbu_1, # of connection points: 5
#     Node 2, Type 0, BuildingBlock: XOMCOT_clean_sbu_1, # of connection points: 5
#     Node 3, Type 0, BuildingBlock: XOMCOT_clean_sbu_1, # of connection points: 5
#     Node 4, Type 0, BuildingBlock: XOMCOT_clean_sbu_1, # of connection points: 5
#     Node 5, Type 0, BuildingBlock: XOMCOT_clean_sbu_1, # of connection points: 5
#     Node 6, Type 0, BuildingBlock: XOMCOT_clean_sbu_1, # of connection points: 5
#     Node 7, Type 0, BuildingBlock: XOMCOT_clean_sbu_1, # of connection points: 5
#     Edge 8, Type (0, 0), BuildingBlock: UVAHIK_clean_linker_0, # of connection points: 2
#     Edge 9, Type (0, 0), BuildingBlock: UVAHIK_clean_linker_0, # of connection points: 2
#     Edge 10, Type (0, 0), BuildingBlock: UVAHIK_clean_linker_0, # of connection points: 2
#     Edge 11, Type (0, 0), BuildingBlock: UVAHIK_clean_linker_0, # of connection points: 2
#     Edge 12, Type (0, 0), BuildingBlock: UVAHIK_clean_linker_0, # of connection points: 2
#     Edge 13, Type (0, 0), BuildingBlock: UVAHIK_clean_linker_0, # of connection points: 2
#     Edge 14, Type (0, 0), BuildingBlock: UVAHIK_clean_linker_0, # of connection points: 2
#     Edge 15, Type (0, 0), BuildingBlock: UVAHIK_clean_linker_0, # of connection points: 2
#     Edge 16, Type (0, 0), BuildingBlock: UVAHIK_clean_linker_0, # of connection points: 2
#     Edge 17, Type (0, 0), BuildingBlock: UVAHIK_clean_linker_0, # of connection points: 2
#     Edge 18, Type (0, 0), BuildingBlock: UVAHIK_clean_linker_0, # of connection points: 2
#     Edge 19, Type (0, 0), BuildingBlock: UVAHIK_clean_linker_0, # of connection points: 2
#     Edge 20, Type (0, 0), BuildingBlock: UVAHIK_clean_linker_0, # of connection points: 2
#     Edge 21, Type (0, 0), BuildingBlock: UVAHIK_clean_linker_0, # of connection points: 2
#     Edge 22, Type (0, 0), BuildingBlock: UVAHIK_clean_linker_0, # of connection points: 2
#     Edge 23, Type (0, 0), BuildingBlock: UVAHIK_clean_linker_0, # of connection points: 2
#     Edge 24, Type (0, 0), BuildingBlock: UVAHIK_clean_linker_0, # of connection points: 2
#     Edge 25, Type (0, 0), BuildingBlock: UVAHIK_clean_linker_0, # of connection points: 2
#     Edge 26, Type (0, 0), BuildingBlock: UVAHIK_clean_linker_0, # of connection points: 2
#     Edge 27, Type (0, 0), BuildingBlock: UVAHIK_clean_linker_0, # of connection points: 2
# Relax obj value: 0.200
# Max RMSD: 0.190
# Mean RMSD: 0.190
data_MOF--net-zfb--node1-XOMCOT_clean_sbu_1--edge1-UVAHIK_clean_linker_0
_symmetry_space_group_name_H-M    P1
_symmetry_Int_Tables_number       1
_symmetry_cell_setting            triclinic
loop_
_symmetry_equiv_pos_as_xyz
'x, y, z'
_cell_length_a     40.621856
_cell_length_b     40.5603
_cell_length_c     43.474867
_cell_angle_alpha  90.12725
_cell_angle_beta   89.98248
_cell_angle_gamma 89.907032
loop_
_atom_site_label
_atom_site_type_symbol
_atom_site_fract_x
_atom_site_fract_y
_atom_site_fract_z
_atom_type_partial_charge
C0 C 0.22979 0.34589 1.00084 0.0
C1 C 0.23362 0.33897 0.97004 0.0
N2 N 0.20352 0.33637 0.95728 0.0
N3 N 0.19744 0.34798 1.0074 0.0
C4 C 0.18198 0.34167 0.98047 0.0
H5 H 0.2493 0.35006 0.0173 0.0
Co6 Co 0.18075 0.36042 0.04551 0.0
C7 C 0.11028 0.36746 0.0322 0.0
O8 O 0.10391 0.34424 0.05235 0.0
N9 N 0.16424 0.37331 0.08422 0.0
C10 C 0.13971 0.40325 0.12047 0.0
C11 C 0.14624 0.40072 0.08961 0.0
C12 C 0.16874 0.35985 0.1124 0.0
N13 N 0.15398 0.37759 0.13496 0.0
O14 O 0.16376 0.31727 0.0506 0.0
H15 H 0.13863 0.41814 0.07219 0.0
H16 H 0.18329 0.338 0.11648 0.0
O17 O 0.14008 0.3753 0.0266 0.0
C18 C 0.18396 0.29786 0.06357 0.0
O19 O 0.21284 0.3091 0.07219 0.0
N20 N 0.19968 0.40178 0.04076 0.0
C21 C 0.23438 0.46056 0.03491 0.0
C22 C 0.20847 0.45294 1.01473 0.0
C23 C 0.19165 0.42321 0.01782 0.0
C24 C 0.22488 0.4085 0.06042 0.0
C25 C 0.24253 0.43784 0.05799 0.0
H26 H 0.1727 0.4172 1.00136 0.0
H27 H 0.23156 0.39069 0.07783 0.0
H28 H 0.15553 0.34217 0.97761 0.0
H29 H 0.25676 0.33632 0.95791 0.0
H30 H 0.12538 0.42257 0.13127 0.0
H31 H 0.20112 0.46979 0.99671 0.0
H32 H 0.26272 0.44236 0.07369 0.0
C33 C 0.63707 0.23567 0.50562 0.0
C34 C 0.64306 0.24046 0.47478 0.0
N35 N 0.64687 0.21074 0.46133 0.0
N36 N 0.63668 0.20307 0.51151 0.0
C37 C 0.64316 0.18849 0.48415 0.0
H38 H 0.6324 0.25467 0.52257 0.0
Co39 Co 0.62631 0.18425 0.5493 0.0
C40 C 0.61628 0.11521 0.53178 0.0
O41 O 0.64024 0.10671 0.55046 0.0
N42 N 0.61557 0.16539 0.58765 0.0
C43 C 0.58805 0.13813 0.62378 0.0
C44 C 0.58838 0.14728 0.59341 0.0
C45 C 0.63098 0.16755 0.61524 0.0
N46 N 0.61484 0.1509 0.63753 0.0
O47 O 0.66893 0.16537 0.55071 0.0
H48 H 0.5696 0.14145 0.57664 0.0
H49 H 0.65353 0.181 0.61907 0.0
O50 O 0.6088 0.14558 0.52868 0.0
C51 C 0.68991 0.18375 0.56385 0.0
O52 O 0.68055 0.21247 0.57484 0.0
N53 N 0.58548 0.20492 0.54837 0.0
C54 C 0.52714 0.24087 0.54993 0.0
C55 C 0.53271 0.21729 0.52679 0.0
C56 C 0.56222 0.19966 0.52629 0.0
C57 C 0.58094 0.22826 0.57053 0.0
C58 C 0.55181 0.2464 0.57188 0.0
H59 H 0.56648 0.18215 0.50796 0.0
H60 H 0.60016 0.23281 0.58722 0.0
H61 H 0.64402 0.16206 0.48077 0.0
H62 H 0.64431 0.26397 0.4631 0.0
H63 H 0.56908 0.12388 0.63508 0.0
H64 H 0.51425 0.21214 0.50946 0.0
H65 H 0.54877 0.26476 0.58979 0.0
C66 C 0.75194 0.64235 1.0031 0.0
C67 C 0.74954 0.64855 0.97209 0.0
N68 N 0.7802 0.65009 0.96037 0.0
N69 N 0.78394 0.63961 1.01084 0.0
C70 C 0.80065 0.64486 0.98439 0.0
H71 H 0.73167 0.63905 0.01892 0.0
Co72 Co 0.79853 0.62756 0.04975 0.0
C73 C 0.86918 0.61729 0.03986 0.0
O74 O 0.87552 0.63955 0.06105 0.0
N75 N 0.81283 0.61519 0.08931 0.0
C76 C 0.83343 0.58544 0.12771 0.0
C77 C 0.82793 0.58655 0.09655 0.0
C78 C 0.80928 0.63098 0.11659 0.0
N79 N 0.82168 0.61343 0.14034 0.0
O80 O 0.81684 0.67024 0.05479 0.0
H81 H 0.83433 0.56747 0.08017 0.0
H82 H 0.79715 0.65451 0.11926 0.0
O83 O 0.83942 0.61098 0.0327 0.0
C84 C 0.79675 0.69093 0.06617 0.0
O85 O 0.76694 0.68124 0.07355 0.0
N86 N 0.77851 0.58663 0.04478 0.0
C87 C 0.74277 0.52861 0.03761 0.0
C88 C 0.76939 0.53577 0.01815 0.0
C89 C 0.78675 0.56508 0.0219 0.0
C90 C 0.75259 0.58038 0.06377 0.0
C91 C 0.73444 0.55137 0.0607 0.0
H92 H 0.80629 0.5707 1.00595 0.0
H93 H 0.74578 0.59827 0.08115 0.0
H94 H 0.82718 0.64362 0.98247 0.0
H95 H 0.727 0.65145 0.95909 0.0
H96 H 0.84541 0.56563 0.14006 0.0
H97 H 0.77692 0.51883 1.00018 0.0
H98 H 0.71377 0.54712 0.07591 0.0
C99 C 0.35238 0.75497 0.50309 0.0
C100 C 0.34546 0.75002 0.47243 0.0
N101 N 0.34065 0.77964 0.45918 0.0
N102 N 0.35233 0.78758 0.50907 0.0
C103 C 0.34465 0.80199 0.48197 0.0
H104 H 0.35816 0.73612 0.51981 0.0
Co105 Co 0.36415 0.8065 0.54653 0.0
C106 C 0.36839 0.87642 0.52974 0.0
O107 O 0.34489 0.88328 0.54953 0.0
N108 N 0.37609 0.82544 0.58459 0.0
C109 C 0.40249 0.85501 0.61999 0.0
C110 C 0.40162 0.84612 0.58949 0.0
C111 C 0.3624 0.82141 0.61275 0.0
N112 N 0.37783 0.83941 0.63458 0.0
O113 O 0.32053 0.82233 0.55099 0.0
H114 H 0.41877 0.8541 0.572 0.0
H115 H 0.34143 0.80583 0.61731 0.0
O116 O 0.37754 0.84661 0.52587 0.0
C117 C 0.30124 0.80251 0.56453 0.0
O118 O 0.31266 0.77402 0.57418 0.0
N119 N 0.40637 0.78901 0.54234 0.0
C120 C 0.46678 0.75689 0.53642 0.0
C121 C 0.45554 0.77857 0.51353 0.0
C122 C 0.42534 0.79449 0.51697 0.0
C123 C 0.4164 0.76763 0.56456 0.0
C124 C 0.44675 0.75164 0.56229 0.0
H125 H 0.41671 0.81033 0.49872 0.0
H126 H 0.40065 0.76281 0.58409 0.0
H127 H 0.34337 0.82839 0.47865 0.0
H128 H 0.34441 0.72647 0.4607 0.0
H129 H 0.42026 0.8712 0.63076 0.0
H130 H 0.46955 0.78274 0.49272 0.0
H131 H 0.45439 0.73544 0.58072 0.0
C132 C 0.73337 0.14507 0.09624 0.0
C133 C 0.737 0.15229 0.127 0.0
N134 N 0.70684 0.15403 0.1398 0.0
N135 N 0.70111 0.1419 0.08974 0.0
C136 C 0.68547 0.14791 0.11667 0.0
H137 H 0.75301 0.14129 0.0798 0.0
Co138 Co 0.68488 0.12824 0.05179 0.0
C139 C 0.61462 0.11952 0.06524 0.0
O140 O 0.60742 0.14182 0.04442 0.0
N141 N 0.66883 0.11413 1.01325 0.0
C142 C 0.64497 0.08302 0.97753 0.0
C143 C 0.65165 0.08617 1.00831 0.0
C144 C 0.67271 0.12729 0.98486 0.0
N145 N 0.65833 0.10885 0.96259 0.0
O146 O 0.66655 0.17077 0.04593 0.0
H147 H 0.64462 0.06885 0.02602 0.0
H148 H 0.68649 0.14951 0.98043 0.0
O149 O 0.64466 0.11273 0.07095 0.0
C150 C 0.68585 0.19073 0.03256 0.0
O151 O 0.71516 0.18049 0.02397 0.0
N152 N 0.70497 0.08743 0.05736 0.0
C153 C 0.74052 0.02916 0.06431 0.0
C154 C 0.71475 0.03713 0.08457 0.0
C155 C 0.6975 0.06658 0.08091 0.0
C156 C 0.73013 0.08046 0.03769 0.0
C157 C 0.7482 0.05135 0.04066 0.0
H158 H 0.67859 0.0728 0.09737 0.0
H159 H 0.73638 0.09782 0.01976 0.0
H160 H 0.65906 0.14649 0.11961 0.0
H161 H 0.76004 0.15565 0.1391 0.0
H162 H 0.6311 0.06318 0.96713 0.0
H163 H 0.70773 0.02068 0.10302 0.0
H164 H 0.76825 0.04655 0.02485 0.0
C165 C 0.85048 0.7385 0.59769 0.0
C166 C 0.84477 0.74145 0.62874 0.0
N167 N 0.84293 0.71096 0.6408 0.0
N168 N 0.85262 0.7063 0.59021 0.0
C169 C 0.8475 0.69004 0.61693 0.0
H170 H 0.85388 0.75854 0.58163 0.0
Co171 Co 0.86398 0.6915 0.551 0.0
C172 C 0.87159 0.6215 0.57163 0.0
O173 O 0.84086 0.61357 0.56592 0.0
N174 N 0.87556 0.67692 0.51143 0.0
C175 C 0.90401 0.65483 0.47284 0.0
C176 C 0.90319 0.66015 0.50404 0.0
C177 C 0.85999 0.68156 0.48425 0.0
N178 N 0.87681 0.66831 0.46036 0.0
O179 O 0.82131 0.67325 0.54633 0.0
H180 H 0.92188 0.65261 0.52029 0.0
H181 H 0.83717 0.69504 0.48181 0.0
O182 O 0.88153 0.65088 0.56731 0.0
C183 C 0.80143 0.69508 0.5366 0.0
O184 O 0.81272 0.72493 0.53146 0.0
N185 N 0.90486 0.71164 0.55521 0.0
C186 C 0.96278 0.74759 0.56143 0.0
C187 C 0.95574 0.72135 0.58138 0.0
C188 C 0.92647 0.7039 0.5781 0.0
C189 C 0.911 0.73718 0.53575 0.0
C190 C 0.93997 0.75543 0.53834 0.0
H191 H 0.92092 0.68468 0.59444 0.0
H192 H 0.89306 0.74364 0.51839 0.0
H193 H 0.84835 0.66351 0.61916 0.0
H194 H 0.84243 0.76426 0.64155 0.0
H195 H 0.92307 0.64178 0.46035 0.0
H196 H 0.97274 0.7142 0.59936 0.0
H197 H 0.94415 0.7758 0.52277 0.0
C198 C 0.25928 0.84864 0.09336 0.0
C199 C 0.25431 0.84216 0.12408 0.0
N200 N 0.28391 0.83821 0.13757 0.0
N201 N 0.29185 0.84914 0.08757 0.0
C202 C 0.30626 0.8423 0.11487 0.0
H203 H 0.24041 0.8536 0.07644 0.0
Co204 Co 0.31039 0.86039 0.04988 0.0
C205 C 0.38039 0.86584 0.06624 0.0
O206 O 0.38757 0.84226 0.04657 0.0
N207 N 0.32886 0.87201 1.01162 0.0
C208 C 0.3578 0.89868 0.97605 0.0
C209 C 0.34889 0.898 1.00652 0.0
C210 C 0.32519 0.85785 0.98357 0.0
N211 N 0.34284 0.87345 0.96165 0.0
O212 O 0.32649 0.81671 0.04586 0.0
H213 H 0.35646 0.91557 0.02386 0.0
H214 H 0.31016 0.83641 0.97914 0.0
O215 O 0.35047 0.87441 0.07018 0.0
C216 C 0.30611 0.79775 0.03255 0.0
O217 O 0.27781 0.8098 0.02314 0.0
N218 N 0.29238 0.90239 0.05349 0.0
C219 C 0.25797 0.96158 0.05853 0.0
C220 C 0.28322 0.95374 0.07934 0.0
C221 C 0.2999 0.92383 0.07664 0.0
C222 C 0.26805 0.90947 0.033 0.0
C223 C 0.25055 0.93901 0.03502 0.0
H224 H 0.31816 0.91762 0.0937 0.0
H225 H 0.26176 0.89168 0.01538 0.0
H226 H 0.33263 0.84152 0.11835 0.0
H227 H 0.23076 0.84071 0.13566 0.0
H228 H 0.37358 0.91671 0.96516 0.0
H229 H 0.29004 0.9705 0.09767 0.0
H230 H 0.2309 0.94373 0.01878 0.0
C231 C 0.13422 0.25088 0.59241 0.0
C232 C 0.14013 0.2464 0.62329 0.0
N233 N 0.14453 0.27622 0.63635 0.0
N234 N 0.13451 0.28339 0.58609 0.0
C235 C 0.14128 0.29822 0.61325 0.0
H236 H 0.12911 0.23175 0.57571 0.0
Co237 Co 0.12437 0.30173 0.54798 0.0
C238 C 0.1168 0.37168 0.56563 0.0
O239 O 0.14243 0.37979 0.54886 0.0
N240 N 0.11399 0.32009 0.50958 0.0
C241 C 0.08752 0.34798 0.47325 0.0
C242 C 0.08738 0.33903 0.50365 0.0
C243 C 0.1296 0.31731 0.48217 0.0
N244 N 0.11407 0.33434 0.45972 0.0
O245 O 0.16786 0.31846 0.54551 0.0
H246 H 0.06875 0.34566 0.52034 0.0
H247 H 0.15197 0.3033 0.47871 0.0
O248 O 0.10835 0.34151 0.56776 0.0
C249 C 0.18712 0.296 0.53581 0.0
O250 O 0.17433 0.26753 0.52766 0.0
N251 N 0.08274 0.28287 0.55006 0.0
C252 C 0.02475 0.24675 0.55399 0.0
C253 C 0.03223 0.27096 0.57602 0.0
C254 C 0.06154 0.28853 0.57382 0.0
C255 C 0.07597 0.25957 0.52837 0.0
C256 C 0.04693 0.24131 0.52976 0.0
H257 H 0.06775 0.30569 0.5919 0.0
H258 H 0.09364 0.2546 0.51031 0.0
H259 H 0.1426 0.32467 0.6163 0.0
H260 H 0.14088 0.22304 0.63527 0.0
H261 H 0.06907 0.36283 0.46179 0.0
H262 H 0.01572 0.27615 0.59498 0.0
H263 H 0.04237 0.22253 0.51255 0.0
C264 C 0.23035 0.01113 0.03527 0.0
C265 C 0.23953 0.99307 0.06152 0.0
C266 C 0.21524 0.04194 0.03827 0.0
C267 C 0.21607 0.11154 0.0895 0.0
H268 H 0.14198 0.14401 0.04213 0.0
C269 C 0.18389 0.24762 0.09564 0.0
C270 C 0.17653 0.26284 0.06761 0.0
C271 C 0.18277 0.2134 0.09821 0.0
C272 C 0.16283 0.13541 0.05539 0.0
H273 H 0.23787 0.99229 0.11144 0.0
H274 H 0.21252 0.04655 0.11655 0.0
H275 H 0.15699 0.08561 0.0394 0.0
H276 H 0.1607 0.25508 0.02068 0.0
H277 H 0.1606 0.19504 0.02438 0.0
H278 H 0.22374 0.161 0.104 0.0
C279 C 0.21719 0.03682 0.09373 0.0
C280 C 0.17127 0.10197 0.0539 0.0
C281 C 0.23197 0.00591 0.09076 0.0
C282 C 0.16625 0.24365 0.04258 0.0
C283 C 0.16609 0.20926 0.04483 0.0
C284 C 0.20807 0.1449 0.09058 0.0
C285 C 0.20929 0.05536 0.06754 0.0
C286 C 0.19815 0.08988 0.07077 0.0
C287 C 0.17554 0.19366 0.07241 0.0
C288 C 0.18154 0.15744 0.07334 0.0
H289 H 0.23603 0.00211 1.01242 0.0
H290 H 0.20969 0.05596 0.01773 0.0
H291 H 0.23727 0.10293 0.10231 0.0
H292 H 0.19153 0.26218 0.11532 0.0
H293 H 0.18902 0.20241 0.12013 0.0
C294 C 0.97497 0.22018 0.5304 0.0
C295 C 0.99401 0.22729 0.55658 0.0
C296 C 0.9444 0.20478 0.53338 0.0
C297 C 0.87763 0.20282 0.58738 0.0
H298 H 0.84032 0.13518 0.53481 0.0
C299 C 0.74073 0.17745 0.59447 0.0
C300 C 0.72448 0.17402 0.56628 0.0
C301 C 0.7748 0.17387 0.59609 0.0
C302 C 0.85031 0.15421 0.54958 0.0
H303 H -0.00282 0.22133 0.6061 0.0
H304 H 0.94342 0.1953 0.6113 0.0
H305 H 0.89911 0.14791 0.5314 0.0
H306 H 0.73006 0.1626 0.51796 0.0
H307 H 0.78998 0.1584 0.52014 0.0
H308 H 0.82922 0.21118 0.60414 0.0
C309 C 0.95209 0.20188 0.58856 0.0
C310 C 0.88396 0.16133 0.5477 0.0
C311 C 0.98269 0.21703 0.58558 0.0
C312 C 0.74234 0.16516 0.53996 0.0
C313 C 0.77664 0.1626 0.54134 0.0
C314 C 0.84409 0.19617 0.58891 0.0
C315 C 0.93232 0.19642 0.5626 0.0
C316 C 0.89775 0.18597 0.56638 0.0
C317 C 0.7934 0.16814 0.56926 0.0
C318 C 0.82982 0.17207 0.56978 0.0
H319 H 0.98294 0.2279 0.50776 0.0
H320 H 0.92943 0.20112 0.51304 0.0
H321 H 0.88754 0.22238 0.60163 0.0
H322 H 0.72716 0.18389 0.6151 0.0
H323 H 0.78666 0.17711 0.61819 0.0
C324 C 0.76791 0.97916 0.04155 0.0
C325 C 0.75872 -0.00242 0.06764 0.0
C326 C 0.78196 0.9479 0.04477 0.0
C327 C 0.77651 0.87868 0.09566 0.0
H328 H 0.84902 0.84198 0.04867 0.0
C329 C 0.79904 0.74052 0.09925 0.0
C330 C 0.806 0.72541 0.07101 0.0
C331 C 0.80241 0.77452 0.10263 0.0
C332 C 0.82858 0.85177 0.06182 0.0
H333 H 0.7595 -0.00141 0.11758 0.0
H334 H 0.78301 0.94355 0.12307 0.0
H335 H 0.83788 0.90125 0.04663 0.0
H336 H 0.82331 0.73299 0.02454 0.0
H337 H 0.82732 0.79281 0.0296 0.0
H338 H 0.76534 0.82966 0.10924 0.0
C339 C 0.77917 0.95336 0.10019 0.0
C340 C 0.82238 0.8857 0.06076 0.0
C341 C 0.76546 0.98472 0.097 0.0
C342 C 0.81802 0.74435 0.04659 0.0
C343 C 0.82044 0.7786 0.04963 0.0
C344 C 0.78227 0.84485 0.0963 0.0
C345 C 0.78682 0.93439 0.07412 0.0
C346 C 0.79605 0.89932 0.07743 0.0
C347 C 0.81156 0.79425 0.07742 0.0
C348 C 0.80813 0.83078 0.07911 0.0
H349 H 0.76283 0.98817 0.0186 0.0
H350 H 0.78732 0.93358 0.02431 0.0
H351 H 0.75567 0.88848 0.10829 0.0
H352 H 0.79009 0.7261 0.11847 0.0
H353 H 0.7965 0.78544 0.12469 0.0
C354 C 0.01214 0.77545 0.53844 0.0
C355 C 0.99407 0.76611 0.5646 0.0
C356 C 0.04345 0.78928 0.54156 0.0
C357 C 0.11281 0.78151 0.59159 0.0
H358 H 0.15042 0.85482 0.54665 0.0
C359 C 0.25095 0.80245 0.59665 0.0
C360 C 0.26638 0.81048 0.56888 0.0
C361 C 0.21695 0.80566 0.59969 0.0
C362 C 0.14037 0.83413 0.5592 0.0
H363 H 0.99348 0.76668 0.61454 0.0
H364 H 0.04856 0.78982 0.61984 0.0
H365 H 0.09104 0.84485 0.54441 0.0
H366 H 0.25925 0.82949 0.52291 0.0
H367 H 0.19945 0.83315 0.52731 0.0
H368 H 0.1616 0.76893 0.60471 0.0
C369 C 0.0385 0.78624 0.597 0.0
C370 C 0.10638 0.82862 0.55803 0.0
C371 C 0.00713 0.77274 0.59392 0.0
C372 C 0.24767 0.82327 0.54459 0.0
C373 C 0.21344 0.82553 0.54726 0.0
C374 C 0.14667 0.78657 0.5923 0.0
C375 C 0.05725 0.79376 0.57085 0.0
C376 C 0.09245 0.80208 0.57405 0.0
C377 C 0.19754 0.81577 0.57458 0.0
C378 C 0.16104 0.81275 0.5759 0.0
H379 H 0.00288 0.77052 0.51553 0.0
H380 H 0.05762 0.79462 0.52105 0.0
H381 H 0.10272 0.76048 0.60367 0.0
H382 H 0.26515 0.79302 0.61582 0.0
H383 H 0.20582 0.79907 0.62145 0.0
C384 C 0.71425 0.47915 0.05982 0.0
C385 C 0.72429 0.4973 0.03394 0.0
C386 C 0.70016 0.44797 0.05629 0.0
C387 C 0.707 0.37857 1.00535 0.0
H388 H 0.63336 0.34199 0.05054 0.0
C389 C 0.68434 0.24061 0.99995 0.0
C390 C 0.67678 0.22532 0.0279 0.0
C391 C 0.68108 0.27465 0.99687 0.0
C392 C 0.65411 0.35176 0.03789 0.0
H393 H 0.72485 0.49807 0.98401 0.0
H394 H 0.70117 0.44322 0.97798 0.0
H395 H 0.64445 0.40124 0.0532 0.0
H396 H 0.65842 0.23269 0.0741 0.0
H397 H 0.65458 0.29255 0.06958 0.0
H398 H 0.71848 0.32957 0.99166 0.0
C399 C 0.70444 0.45312 1.00094 0.0
C400 C 0.66029 0.38567 0.03932 0.0
C401 C 0.71823 0.48436 1.00444 0.0
C402 C 0.66421 0.24416 0.05228 0.0
C403 C 0.66189 0.27844 0.04954 0.0
C404 C 0.70124 0.34478 1.00435 0.0
C405 C 0.69608 0.43432 0.02684 0.0
C406 C 0.68701 0.39925 0.02327 0.0
C407 C 0.67141 0.29424 0.0221 0.0
C408 C 0.67495 0.33076 0.02086 0.0
H409 H 0.71875 0.48829 0.08286 0.0
H410 H 0.6942 0.43379 0.07662 0.0
H411 H 0.72815 0.38833 0.99322 0.0
H412 H 0.69368 0.2263 0.98075 0.0
H413 H 0.68748 0.28571 0.97503 0.0
C414 C 0.52566 0.7562 0.51903 0.0
C415 C 0.49914 0.73999 0.53323 0.0
C416 C 0.55603 0.74056 0.51581 0.0
C417 C 0.60996 0.68252 0.5518 0.0
H418 H 0.65754 0.68837 0.47464 0.0
C419 C 0.75053 0.66115 0.54508 0.0
C420 C 0.76642 0.68789 0.53096 0.0
C421 C 0.71644 0.65708 0.54187 0.0
C422 C 0.64452 0.68628 0.4963 0.0
H423 H 0.48402 0.69422 0.55496 0.0
H424 H 0.53788 0.66756 0.55052 0.0
H425 H 0.59898 0.70178 0.47618 0.0
H426 H 0.7597 0.73009 0.50105 0.0
H427 H 0.70085 0.72316 0.49555 0.0
H428 H 0.65601 0.66943 0.57241 0.0
C429 C 0.53466 0.69227 0.54159 0.0
C430 C 0.61106 0.6939 0.49713 0.0
C431 C 0.50397 0.70771 0.54434 0.0
C432 C 0.74809 0.70939 0.51241 0.0
C433 C 0.71434 0.70517 0.50897 0.0
C434 C 0.6436 0.67519 0.55103 0.0
C435 C 0.56084 0.70856 0.52714 0.0
C436 C 0.59387 0.69344 0.52511 0.0
C437 C 0.69797 0.6794 0.5241 0.0
C438 C 0.66149 0.67852 0.52352 0.0
H439 H 0.52327 0.78128 0.51086 0.0
H440 H 0.5761 0.75391 0.50516 0.0
H441 H 0.59715 0.68206 0.57366 0.0
H442 H 0.76418 0.6442 0.55949 0.0
H443 H 0.70444 0.63695 0.55373 0.0
C444 C 0.25906 0.50549 1.00274 0.0
C445 C 0.25252 0.49216 0.03194 0.0
C446 C 0.2734 0.53656 0.99994 0.0
C447 C 0.31961 0.60155 0.03987 0.0
H448 H 0.26513 0.66082 0.992 0.0
C449 C 0.32375 0.74324 0.05298 0.0
C450 C 0.31296 0.76258 0.02829 0.0
C451 C 0.32386 0.70885 0.05044 0.0
C452 C 0.28133 0.64466 1.00479 0.0
H453 H 0.25734 0.50052 0.08109 0.0
H454 H 0.28293 0.55461 0.07605 0.0
H455 H 0.25237 0.6026 0.99297 0.0
H456 H 0.29696 0.76217 0.98086 0.0
H457 H 0.29929 0.70244 0.97554 0.0
H458 H 0.34865 0.64371 0.05174 0.0
C459 C 0.27695 0.54086 0.05541 0.0
C460 C 0.27379 0.61121 1.00545 0.0
C461 C 0.26227 0.50989 0.05825 0.0
C462 C 0.30494 0.7475 1.0003 0.0
C463 C 0.30599 0.7133 0.99743 0.0
C464 C 0.32757 0.63509 0.03881 0.0
C465 C 0.28187 0.55477 0.02625 0.0
C466 C 0.29248 0.58945 0.02337 0.0
C467 C 0.31386 0.69342 0.0229 0.0
C468 C 0.30815 0.65719 0.02165 0.0
H469 H 0.25267 0.49215 0.98199 0.0
H470 H 0.27728 0.54669 0.97718 0.0
H471 H 0.33447 0.58511 0.05376 0.0
H472 H 0.32985 0.75455 0.07484 0.0
H473 H 0.32985 0.69449 0.07063 0.0
C474 C 0.2381 0.32933 0.54655 0.0
C475 C 0.22323 0.29977 0.53683 0.0
C476 C 0.27236 0.33106 0.55011 0.0
C477 C 0.34058 0.27888 0.57024 0.0
H478 H 0.39914 0.33553 0.52387 0.0
C479 C 0.4796 0.2631 0.58026 0.0
C480 C 0.49531 0.25869 0.55174 0.0
C481 C 0.44804 0.27664 0.58175 0.0
C482 C 0.38302 0.31982 0.53719 0.0
H483 H 0.23265 0.24942 0.52204 0.0
H484 H 0.29187 0.25245 0.52875 0.0
H485 H 0.33924 0.34289 0.51957 0.0
H486 H 0.49127 0.26723 0.50266 0.0
H487 H 0.43577 0.29015 0.50518 0.0
H488 H 0.38368 0.25475 0.5869 0.0
C489 C 0.27713 0.27414 0.53367 0.0
C490 C 0.34891 0.32419 0.53487 0.0
C491 C 0.24322 0.2725 0.52976 0.0
C492 C 0.47953 0.26979 0.52491 0.0
C493 C 0.44796 0.28337 0.52641 0.0
C494 C 0.37448 0.27472 0.5728 0.0
C495 C 0.29191 0.30315 0.54439 0.0
C496 C 0.32754 0.30301 0.55066 0.0
C497 C 0.43153 0.28604 0.55475 0.0
C498 C 0.39606 0.2945 0.55564 0.0
H499 H 0.22327 0.35076 0.55207 0.0
H500 H 0.28343 0.35371 0.55833 0.0
H501 H 0.32444 0.26233 0.58266 0.0
H502 H 0.49103 0.2547 0.60135 0.0
H503 H 0.43606 0.27869 0.60394 0.0
C504 C 0.0519 0.3872 0.03445 0.0
C505 C 0.08347 0.38934 0.02138 0.0
C506 C 0.02819 0.41132 0.02839 0.0
C507 C 0.97776 0.46047 1.0051 0.0
H508 H 0.01084 0.55001 1.0093 0.0
C509 C 0.88927 0.5715 1.00583 0.0
C510 C 0.89575 0.59535 0.02855 0.0
C511 C 0.91287 0.54768 0.99832 0.0
C512 C 0.00118 0.52517 1.00806 0.0
H513 H 0.11394 0.41708 0.98969 0.0
H514 H 0.07244 0.45892 0.97884 0.0
H515 H 0.04942 0.50404 1.00814 0.0
H516 H 0.93282 0.61392 0.06 0.0
H517 H 0.97376 0.57228 0.04721 0.0
H518 H 0.92951 0.48153 1.00672 0.0
C519 C 0.0663 0.43904 0.9944 0.0
C520 C 0.02332 0.49877 1.00699 0.0
C521 C 0.09005 0.41495 1.00052 0.0
C522 C 0.927 0.59594 0.04238 0.0
C523 C 0.95057 0.57208 0.03493 0.0
C524 C 0.95561 0.48686 1.00624 0.0
C525 C 0.03542 0.43806 1.00899 0.0
C526 C 0.01188 0.46606 1.00617 0.0
C527 C 0.94351 0.54717 1.01336 0.0
C528 C 0.96706 0.51951 1.0084 0.0
H529 H 0.04596 0.36783 0.05062 0.0
H530 H 0.00479 0.40989 0.04025 0.0
H531 H 0.96811 0.43561 1.00409 0.0
H532 H 0.86561 0.57061 0.99441 0.0
H533 H 0.90686 0.52924 0.98117 0.0
C534 C 0.41351 0.89637 0.49522 0.0
C535 C 0.38914 0.90321 0.5173 0.0
C536 C 0.43677 0.92028 0.48733 0.0
C537 C 0.49665 0.96363 0.49542 0.0
H538 H 0.47939 0.05751 0.49982 0.0
C539 C 0.59571 0.05717 0.53018 0.0
C540 C 0.59394 0.0897 0.51929 0.0
C541 C 0.5716 0.0342 0.52217 0.0
C542 C 0.48473 0.03142 0.4979 0.0
H543 H 0.36891 0.94114 0.54707 0.0
H544 H 0.40973 0.98241 0.53399 0.0
H545 H 0.43355 0.0191 0.49822 0.0
H546 H 0.56681 0.12297 0.48962 0.0
H547 H 0.52512 0.08265 0.47506 0.0
H548 H 0.54781 0.97594 0.49492 0.0
C549 C 0.41073 0.95885 0.52228 0.0
C550 C 0.45836 0.00933 0.49744 0.0
C551 C 0.38731 0.93506 0.52993 0.0
C552 C 0.56864 0.0982 0.49871 0.0
C553 C 0.54463 0.07513 0.49051 0.0
C554 C 0.523 0.98572 0.4956 0.0
C555 C 0.43634 0.95148 0.50154 0.0
C556 C 0.46399 0.97511 0.49715 0.0
C557 C 0.54528 0.04309 0.50283 0.0
C558 C 0.51741 0.01987 0.49781 0.0
H559 H 0.41534 0.87217 0.48478 0.0
H560 H 0.45567 0.91396 0.47076 0.0
H561 H 0.50206 0.93748 0.49543 0.0
H562 H 0.61482 0.04978 0.54612 0.0
H563 H 0.57278 0.00994 0.53247 0.0
C564 C 0.39946 0.912 0.10017 0.0
C565 C 0.40674 0.88748 0.07828 0.0
C566 C 0.42261 0.93625 0.10743 0.0
C567 C 0.46387 -0.00258 0.09734 0.0
H568 H 0.55815 0.98268 0.09647 0.0
C569 C 0.55698 0.09782 0.06393 0.0
C570 C 0.58857 0.0974 0.07706 0.0
C571 C 0.53407 0.0734 0.07125 0.0
C572 C 0.5319 0.9873 0.09732 0.0
H573 H 0.44485 0.86794 0.04838 0.0
H574 H 0.48501 0.91033 0.06072 0.0
H575 H 0.52095 0.93569 0.09763 0.0
H576 H 0.61993 0.0725 0.11008 0.0
H577 H 0.57981 0.03015 0.12313 0.0
H578 H 0.47481 0.04902 0.09685 0.0
C579 C 0.46154 0.91077 0.07253 0.0
C580 C 0.51056 0.9603 0.0976 0.0
C581 C 0.43843 0.88645 0.06536 0.0
C582 C 0.59599 0.07326 0.09918 0.0
C583 C 0.57304 0.04888 0.10657 0.0
C584 C 0.48521 0.02441 0.09715 0.0
C585 C 0.45356 0.93655 0.09294 0.0
C586 C 0.47628 0.96501 0.09686 0.0
C587 C 0.54215 0.04809 0.09201 0.0
C588 C 0.51948 0.01969 0.09638 0.0
H589 H 0.37545 0.91318 0.11092 0.0
H590 H 0.41591 0.95532 0.12376 0.0
H591 H 0.43762 0.00204 0.09648 0.0
H592 H 0.55042 0.11603 0.04679 0.0
H593 H 0.51065 0.07345 0.05936 0.0
C594 C 0.8862 0.56347 0.58676 0.0
C595 C 0.896 0.59584 0.57998 0.0
C596 C 0.90976 0.53887 0.59206 0.0
C597 C -0.00021 0.52566 0.60642 0.0
H598 H 0.98278 0.44076 0.56861 0.0
C599 C 0.10079 0.43114 0.57225 0.0
C600 C 0.09388 0.39755 0.57685 0.0
C601 C 0.07695 0.45517 0.57865 0.0
C602 C 0.98774 0.46418 0.57969 0.0
H603 H 0.93835 0.62786 0.57417 0.0
H604 H 0.97903 0.58517 0.58244 0.0
H605 H 0.93993 0.48267 0.5687 0.0
H606 H 0.05706 0.3632 0.59355 0.0
H607 H 0.01568 0.40498 0.60445 0.0
H608 H 0.04827 0.50732 0.61607 0.0
C609 C 0.95328 0.57869 0.58445 0.0
C610 C 0.9631 0.48823 0.57987 0.0
C611 C 0.92981 0.60325 0.57948 0.0
C612 C 0.06325 0.38873 0.5895 0.0
C613 C 0.0394 0.41267 0.59563 0.0
C614 C 0.02459 0.50168 0.60591 0.0
C615 C 0.94364 0.54605 0.5904 0.0
C616 C 0.9689 0.51947 0.59287 0.0
C617 C 0.04568 0.44604 0.58956 0.0
C618 C 0.0189 0.47081 0.59226 0.0
H619 H 0.86036 0.557 0.58754 0.0
H620 H 0.90138 0.51414 0.59711 0.0
H621 H 0.00499 0.54918 0.61718 0.0
H622 H 0.12413 0.43882 0.56261 0.0
H623 H 0.08244 0.48072 0.57363 0.0
C624 C 0.14673 0.39676 0.18864 0.0
C625 C 0.15363 0.37116 0.1677 0.0
C626 C 0.14448 0.39056 0.22012 0.0
C627 C 0.16824 0.33414 0.28202 0.0
H628 H 0.09231 0.37191 0.32318 0.0
C629 C 0.13698 0.31087 0.41149 0.0
C630 C 0.12298 0.3374 0.42775 0.0
C631 C 0.14249 0.3132 0.37969 0.0
C632 C 0.11393 0.36154 0.31223 0.0
H633 H 0.16458 0.31889 0.16403 0.0
H634 H 0.16118 0.30824 0.21936 0.0
H635 H 0.09886 0.37904 0.26806 0.0
H636 H 0.1059 0.3878 0.42398 0.0
H637 H 0.11618 0.39228 0.36908 0.0
H638 H 0.18362 0.31718 0.32649 0.0
C639 C 0.15741 0.33312 0.21108 0.0
C640 C 0.11758 0.36553 0.28055 0.0
C641 C 0.15939 0.33928 0.17937 0.0
C642 C 0.11603 0.36672 0.41192 0.0
C643 C 0.1218 0.36918 0.38039 0.0
C644 C 0.16474 0.33036 0.31394 0.0
C645 C 0.14936 0.35864 0.2317 0.0
C646 C 0.14497 0.35231 0.26512 0.0
C647 C 0.13434 0.34223 0.36364 0.0
C648 C 0.13775 0.34448 0.32951 0.0
H649 H 0.14303 0.42178 0.18083 0.0
H650 H 0.13891 0.41087 0.2355 0.0
H651 H 0.18966 0.32375 0.27072 0.0
H652 H 0.14242 0.28793 0.42312 0.0
H653 H 0.15207 0.29191 0.36755 0.0
C654 C 0.66289 0.14663 0.91765 0.0
C655 C 0.65734 0.11491 0.92977 0.0
C656 C 0.6604 0.15242 0.88591 0.0
C657 C 0.61949 0.11966 0.81721 0.0
H658 H 0.6853 0.16685 0.77012 0.0
C659 C 0.61545 0.11875 0.68557 0.0
C660 C 0.62339 0.14771 0.66959 0.0
C661 C 0.62139 0.11614 0.71709 0.0
C662 C 0.66644 0.15401 0.78297 0.0
H663 H 0.64642 0.06419 0.91723 0.0
H664 H 0.64133 0.07452 0.86256 0.0
H665 H 0.69206 0.1606 0.8258 0.0
H666 H 0.64453 0.19644 0.67404 0.0
H667 H 0.65436 0.19227 0.72949 0.0
H668 H 0.59345 0.11341 0.77499 0.0
C669 C 0.64721 0.09497 0.87765 0.0
C670 C 0.67039 0.1504 0.81486 0.0
C671 C 0.65002 0.08911 0.90916 0.0
C672 C 0.63833 0.17375 0.68574 0.0
C673 C 0.64397 0.1713 0.71751 0.0
C674 C 0.61537 0.12353 0.78554 0.0
C675 C 0.65199 0.12671 0.86566 0.0
C676 C 0.6472 0.13269 0.8322 0.0
C677 C 0.63506 0.1426 0.73371 0.0
C678 C 0.63905 0.14022 0.76782 0.0
H679 H 0.66838 0.1672 0.93266 0.0
H680 H 0.66411 0.17718 0.87731 0.0
H681 H 0.60085 0.10645 0.83004 0.0
H682 H 0.60455 0.09803 0.67362 0.0
H683 H 0.61511 0.09326 0.72845 0.0
C684 C 0.89252 0.66749 0.40543 0.0
C685 C 0.86794 0.66829 0.4282 0.0
C686 C 0.88421 0.66569 0.3743 0.0
C687 C 0.81841 0.63762 0.32276 0.0
H688 H 0.86849 0.68478 0.26097 0.0
C689 C 0.82218 0.59791 0.19532 0.0
C690 C 0.8223 0.62242 0.1725 0.0
C691 C 0.82417 0.60635 0.22645 0.0
C692 C 0.85398 0.67171 0.2779 0.0
H693 H 0.81526 0.66834 0.43598 0.0
H694 H 0.80064 0.66523 0.38141 0.0
H695 H 0.87851 0.69563 0.31541 0.0
H696 H 0.82423 0.67513 0.16464 0.0
H697 H 0.82764 0.68992 0.21914 0.0
H698 H 0.79414 0.61342 0.28525 0.0
C699 C 0.82641 0.66587 0.38778 0.0
C700 C 0.85996 0.67769 0.30912 0.0
C701 C 0.83476 0.66794 0.41901 0.0
C702 C 0.82389 0.65567 0.18163 0.0
C703 C 0.82613 0.66412 0.21284 0.0
C704 C 0.81257 0.6315 0.29154 0.0
C705 C 0.85107 0.66448 0.36506 0.0
C706 C 0.8426 0.66035 0.33194 0.0
C707 C 0.8265 0.63952 0.23561 0.0
C708 C 0.83064 0.6481 0.26873 0.0
H709 H 0.91829 0.66815 0.41169 0.0
H710 H 0.90384 0.66434 0.35747 0.0
H711 H 0.80475 0.62368 0.33971 0.0
H712 H 0.82056 0.57211 0.18914 0.0
H713 H 0.82473 0.58675 0.24333 0.0
C714 C 0.37566 0.86863 0.91424 0.0
C715 C 0.34538 0.86547 0.92944 0.0
C716 C 0.37805 0.86321 0.88259 0.0
C717 C 0.33261 0.83004 0.81414 0.0
H718 H 0.3948 0.88545 0.77084 0.0
C719 C 0.36104 0.81362 0.68369 0.0
C720 C 0.37017 0.84166 0.66687 0.0
C721 C 0.35629 0.81559 0.71561 0.0
C722 C 0.37688 0.87005 0.78232 0.0
H723 H 0.29388 0.85359 0.92366 0.0
H724 H 0.29751 0.8454 0.86797 0.0
H725 H 0.38943 0.89054 0.82592 0.0
H726 H 0.37955 0.89403 0.66972 0.0
H727 H 0.36983 0.89803 0.72482 0.0
H728 H 0.31892 0.81083 0.77003 0.0
C729 C 0.31976 0.85119 0.88054 0.0
C730 C 0.37427 0.8725 0.81426 0.0
C731 C 0.31756 0.85599 0.91245 0.0
C732 C 0.37311 0.87193 0.68228 0.0
C733 C 0.36775 0.87409 0.71396 0.0
C734 C 0.33487 0.82794 0.78198 0.0
C735 C 0.34999 0.85523 0.86505 0.0
C736 C 0.3523 0.85241 0.83077 0.0
C737 C 0.36003 0.84583 0.7313 0.0
C738 C 0.35709 0.84793 0.76558 0.0
H739 H 0.39758 0.87535 0.92695 0.0
H740 H 0.40199 0.86551 0.87189 0.0
H741 H 0.31562 0.81388 0.82591 0.0
H742 H 0.35882 0.78994 0.67233 0.0
H743 H 0.35072 0.79319 0.72803 0.0
C744 C 0.81671 0.67293 0.92017 0.0
C745 C 0.78892 0.65441 0.9285 0.0
C746 C 0.82432 0.67806 0.88911 0.0
C747 C 0.81332 0.64399 0.81175 0.0
H748 H 0.82495 0.73375 0.78348 0.0
C749 C 0.81991 0.67578 0.68192 0.0
C750 C 0.83903 0.70285 0.67285 0.0
C751 C 0.81501 0.66898 0.71319 0.0
C752 C 0.82246 0.70842 0.79091 0.0
H753 H 0.74801 0.62581 0.91098 0.0
H754 H 0.76167 0.6342 0.85675 0.0
H755 H 0.81563 0.72318 0.83788 0.0
H756 H 0.86929 0.74309 0.68918 0.0
H757 H 0.86211 0.73062 0.74346 0.0
H758 H 0.82096 0.62893 0.76512 0.0
C759 C 0.77732 0.64505 0.87421 0.0
C760 C 0.81694 0.70245 0.82216 0.0
C761 C 0.76937 0.64047 0.9052 0.0
C762 C 0.85393 0.72242 0.69557 0.0
C763 C 0.8496 0.7153 0.72675 0.0
C764 C 0.81944 0.64987 0.78054 0.0
C765 C 0.80468 0.66416 0.86583 0.0
C766 C 0.81207 0.67022 0.83287 0.0
C767 C 0.82968 0.68877 0.73612 0.0
C768 C 0.82388 0.68222 0.76957 0.0
H769 H 0.83208 0.68403 0.93769 0.0
H770 H 0.84563 0.6928 0.88326 0.0
H771 H 0.80989 0.61885 0.81946 0.0
H772 H 0.80798 0.66047 0.66482 0.0
H773 H 0.7991 0.64865 0.71928 0.0
C774 C 0.34973 0.76612 0.40437 0.0
C775 C 0.33502 0.7861 0.427 0.0
C776 C 0.3447 0.77252 0.37312 0.0
C777 C 0.28664 0.80941 0.31918 0.0
H778 H 0.36108 0.81396 0.26352 0.0
C779 C 0.26973 0.84728 0.1922 0.0
C780 C 0.29019 0.83289 0.16983 0.0
C781 C 0.27565 0.84222 0.22352 0.0
C782 C 0.3399 0.81224 0.27854 0.0
H783 H 0.30325 0.82822 0.43465 0.0
H784 H 0.29381 0.83905 0.37984 0.0
H785 H 0.37028 0.80355 0.31807 0.0
H786 H 0.33272 0.80165 0.16271 0.0
H787 H 0.3425 0.79165 0.21731 0.0
H788 H 0.25605 0.81686 0.27984 0.0
C789 C 0.30946 0.81859 0.38639 0.0
C790 C 0.34526 0.80647 0.30989 0.0
C791 C 0.31499 0.81254 0.41769 0.0
C792 C 0.31674 0.81328 0.17948 0.0
C793 C 0.32238 0.80773 0.21084 0.0
C794 C 0.28121 0.81463 0.28778 0.0
C795 C 0.32439 0.79872 0.36378 0.0
C796 C 0.3187 0.80509 0.33054 0.0
C797 C 0.30191 0.82215 0.23338 0.0
C798 C 0.30776 0.81626 0.26694 0.0
H799 H 0.36557 0.7458 0.41085 0.0
H800 H 0.35637 0.7567 0.35621 0.0
H801 H 0.26567 0.80804 0.33453 0.0
H802 H 0.24941 0.86298 0.18545 0.0
H803 H 0.25977 0.85448 0.23997 0.0
C804 C 0.13412 0.26359 0.69102 0.0
C805 C 0.14948 0.28308 0.66856 0.0
C806 C 0.1388 0.27009 0.72231 0.0
C807 C 0.1699 0.33461 0.77668 0.0
H808 H 0.17128 0.26137 0.83389 0.0
C809 C 0.21651 0.34468 0.90235 0.0
C810 C 0.19616 0.33114 0.9252 0.0
C811 C 0.20962 0.3396 0.87119 0.0
C812 C 0.17068 0.28208 0.8182 0.0
H813 H 0.18205 0.32443 0.6612 0.0
H814 H 0.19143 0.33516 0.71579 0.0
H815 H 0.16267 0.25087 0.77929 0.0
H816 H 0.15278 0.30153 0.9334 0.0
H817 H 0.14106 0.29193 0.87871 0.0
H818 H 0.17923 0.36555 0.8158 0.0
C819 C 0.17487 0.31542 0.7094 0.0
C820 C 0.16559 0.27614 0.78684 0.0
C821 C 0.16969 0.30923 0.67806 0.0
C822 C 0.16875 0.31235 0.91624 0.0
C823 C 0.16219 0.30673 0.88503 0.0
C824 C 0.17555 0.34045 0.80799 0.0
C825 C 0.15947 0.29593 0.73204 0.0
C826 C 0.16503 0.30233 0.76557 0.0
C827 C 0.18254 0.32037 0.86219 0.0
C828 C 0.17593 0.31425 0.82906 0.0
H829 H 0.11795 0.24363 0.68435 0.0
H830 H 0.12582 0.25499 0.73883 0.0
H831 H 0.16901 0.35554 0.7613 0.0
H832 H 0.2376 0.35955 0.90859 0.0
H833 H 0.22581 0.35025 0.85409 0.0
C834 C 0.71998 0.14567 0.1947 0.0
C835 C 0.69936 0.15896 0.17191 0.0
C836 C 0.71294 0.15042 0.22589 0.0
C837 C 0.67318 0.20689 0.27932 0.0
H838 H 0.67181 0.13281 0.33551 0.0
C839 C 0.63669 0.22417 0.40678 0.0
C840 C 0.65184 0.20424 0.42904 0.0
C841 C 0.6414 0.21802 0.37542 0.0
C842 C 0.67263 0.15392 0.32035 0.0
H843 H 0.65534 0.18779 0.16385 0.0
H844 H 0.6434 0.1969 0.21862 0.0
H845 H 0.68229 0.12343 0.28096 0.0
H846 H 0.68409 0.16246 0.43598 0.0
H847 H 0.6936 0.15238 0.38131 0.0
H848 H 0.66494 0.23767 0.3185 0.0
C849 C 0.66484 0.18252 0.21222 0.0
C850 C 0.6784 0.14844 0.289 0.0
C851 C 0.67153 0.17718 0.18097 0.0
C852 C 0.67188 0.178 0.41928 0.0
C853 C 0.67713 0.17218 0.38787 0.0
C854 C 0.668 0.21248 0.31074 0.0
C855 C 0.68545 0.1691 0.23499 0.0
C856 C 0.67867 0.17485 0.26816 0.0
C857 C 0.66193 0.1921 0.36541 0.0
C858 C 0.66755 0.18608 0.33179 0.0
H859 H 0.74139 0.13124 0.18838 0.0
H860 H 0.72933 0.13994 0.24294 0.0
H861 H 0.67367 0.22775 0.26381 0.0
H862 H 0.62067 0.24423 0.41366 0.0
H863 H 0.62854 0.23346 0.35906 0.0
loop_
_geom_bond_atom_site_label_1
_geom_bond_atom_site_label_2
_geom_bond_distance
_geom_bond_site_symmetry_2
_ccdc_geom_bond_type
C0 C1 1.351 . S
C0 N3 1.368 . S
C0 H5 0.931 . S
C1 C0 1.351 . S
C1 N2 1.373 . S
C1 H29 0.930 . S
N2 C1 1.373 . S
N2 C4 1.340 . S
N3 C0 1.368 . S
N3 C4 1.321 . S
N3 Co6 2.135 1_556 S
C4 N2 1.340 . S
C4 N3 1.321 . S
C4 H28 0.930 . S
H5 C0 0.931 . S
Co6 N3 2.135 1_554 S
Co6 N9 2.121 . S
Co6 O14 2.055 . S
Co6 O17 2.039 . S
Co6 N20 2.140 . S
C7 O8 1.227 . S
C7 O17 1.265 . S
O8 C7 1.227 . S
N9 Co6 2.121 . S
N9 C11 1.375 . S
N9 C12 1.313 . S
C10 C11 1.338 . S
C10 N13 1.377 . S
C10 H30 0.930 . S
C11 N9 1.375 . S
C11 C10 1.338 . S
C11 H15 0.931 . S
C12 N9 1.313 . S
C12 N13 1.344 . S
C12 H16 0.930 . S
N13 C10 1.377 . S
N13 C12 1.344 . S
O14 Co6 2.055 . S
O14 C18 1.253 . S
H15 C11 0.931 . S
H16 C12 0.930 . S
O17 Co6 2.039 . S
O17 C7 1.265 . S
C18 O14 1.253 . S
C18 O19 1.227 . S
O19 C18 1.227 . S
N20 Co6 2.140 . S
N20 C23 1.346 . S
N20 C24 1.345 . S
C21 C22 1.387 . S
C21 C25 1.391 . S
C22 C21 1.387 . S
C22 C23 1.369 . S
C22 H31 0.929 1_554 S
C23 N20 1.346 . S
C23 C22 1.369 . S
C23 H26 0.928 1_554 S
C24 N20 1.345 . S
C24 C25 1.371 . S
C24 H27 0.931 . S
C25 C21 1.391 . S
C25 C24 1.371 . S
C25 H32 0.930 . S
H26 C23 0.928 1_556 S
H27 C24 0.931 . S
H28 C4 0.930 . S
H29 C1 0.930 . S
H30 C10 0.930 . S
H31 C22 0.929 1_556 S
H32 C25 0.930 . S
C33 C34 1.351 . S
C33 N36 1.368 . S
C33 H38 0.931 . S
C34 C33 1.351 . S
C34 N35 1.373 . S
C34 H62 0.930 . S
N35 C34 1.373 . S
N35 C37 1.340 . S
N36 C33 1.368 . S
N36 C37 1.321 . S
N36 Co39 2.135 . S
C37 N35 1.340 . S
C37 N36 1.321 . S
C37 H61 0.930 . S
H38 C33 0.931 . S
Co39 N36 2.135 . S
Co39 N42 2.121 . S
Co39 O47 2.055 . S
Co39 O50 2.039 . S
Co39 N53 2.140 . S
C40 O41 1.227 . S
C40 O50 1.265 . S
O41 C40 1.227 . S
N42 Co39 2.121 . S
N42 C44 1.375 . S
N42 C45 1.313 . S
C43 C44 1.338 . S
C43 N46 1.377 . S
C43 H63 0.930 . S
C44 N42 1.375 . S
C44 C43 1.338 . S
C44 H48 0.931 . S
C45 N42 1.313 . S
C45 N46 1.344 . S
C45 H49 0.930 . S
N46 C43 1.377 . S
N46 C45 1.344 . S
O47 Co39 2.055 . S
O47 C51 1.253 . S
H48 C44 0.931 . S
H49 C45 0.930 . S
O50 Co39 2.039 . S
O50 C40 1.265 . S
C51 O47 1.253 . S
C51 O52 1.227 . S
O52 C51 1.227 . S
N53 Co39 2.140 . S
N53 C56 1.346 . S
N53 C57 1.345 . S
C54 C55 1.387 . S
C54 C58 1.391 . S
C55 C54 1.387 . S
C55 C56 1.369 . S
C55 H64 0.929 . S
C56 N53 1.346 . S
C56 C55 1.369 . S
C56 H59 0.928 . S
C57 N53 1.345 . S
C57 C58 1.371 . S
C57 H60 0.931 . S
C58 C54 1.391 . S
C58 C57 1.371 . S
C58 H65 0.930 . S
H59 C56 0.928 . S
H60 C57 0.931 . S
H61 C37 0.930 . S
H62 C34 0.930 . S
H63 C43 0.930 . S
H64 C55 0.929 . S
H65 C58 0.930 . S
C66 C67 1.351 . S
C66 N69 1.368 . S
C66 H71 0.931 . S
C67 C66 1.351 . S
C67 N68 1.373 . S
C67 H95 0.930 . S
N68 C67 1.373 . S
N68 C70 1.340 . S
N69 C66 1.368 . S
N69 C70 1.321 . S
N69 Co72 2.135 1_556 S
C70 N68 1.340 . S
C70 N69 1.321 . S
C70 H94 0.930 . S
H71 C66 0.931 . S
Co72 N69 2.135 1_554 S
Co72 N75 2.121 . S
Co72 O80 2.055 . S
Co72 O83 2.039 . S
Co72 N86 2.140 . S
C73 O74 1.227 . S
C73 O83 1.265 . S
O74 C73 1.227 . S
N75 Co72 2.121 . S
N75 C77 1.375 . S
N75 C78 1.313 . S
C76 C77 1.338 . S
C76 N79 1.377 . S
C76 H96 0.930 . S
C77 N75 1.375 . S
C77 C76 1.338 . S
C77 H81 0.931 . S
C78 N75 1.313 . S
C78 N79 1.344 . S
C78 H82 0.930 . S
N79 C76 1.377 . S
N79 C78 1.344 . S
O80 Co72 2.055 . S
O80 C84 1.253 . S
H81 C77 0.931 . S
H82 C78 0.930 . S
O83 Co72 2.039 . S
O83 C73 1.265 . S
C84 O80 1.253 . S
C84 O85 1.227 . S
O85 C84 1.227 . S
N86 Co72 2.140 . S
N86 C89 1.346 . S
N86 C90 1.345 . S
C87 C88 1.387 . S
C87 C91 1.391 . S
C88 C87 1.387 . S
C88 C89 1.369 . S
C88 H97 0.929 1_554 S
C89 N86 1.346 . S
C89 C88 1.369 . S
C89 H92 0.928 1_554 S
C90 N86 1.345 . S
C90 C91 1.371 . S
C90 H93 0.931 . S
C91 C87 1.391 . S
C91 C90 1.371 . S
C91 H98 0.930 . S
H92 C89 0.928 1_556 S
H93 C90 0.931 . S
H94 C70 0.930 . S
H95 C67 0.930 . S
H96 C76 0.930 . S
H97 C88 0.929 1_556 S
H98 C91 0.930 . S
C99 C100 1.351 . S
C99 N102 1.368 . S
C99 H104 0.931 . S
C100 C99 1.351 . S
C100 N101 1.373 . S
C100 H128 0.930 . S
N101 C100 1.373 . S
N101 C103 1.340 . S
N102 C99 1.368 . S
N102 C103 1.321 . S
N102 Co105 2.135 . S
C103 N101 1.340 . S
C103 N102 1.321 . S
C103 H127 0.930 . S
H104 C99 0.931 . S
Co105 N102 2.135 . S
Co105 N108 2.121 . S
Co105 O113 2.055 . S
Co105 O116 2.039 . S
Co105 N119 2.140 . S
C106 O107 1.227 . S
C106 O116 1.265 . S
O107 C106 1.227 . S
N108 Co105 2.121 . S
N108 C110 1.375 . S
N108 C111 1.313 . S
C109 C110 1.338 . S
C109 N112 1.377 . S
C109 H129 0.930 . S
C110 N108 1.375 . S
C110 C109 1.338 . S
C110 H114 0.931 . S
C111 N108 1.313 . S
C111 N112 1.344 . S
C111 H115 0.930 . S
N112 C109 1.377 . S
N112 C111 1.344 . S
O113 Co105 2.055 . S
O113 C117 1.253 . S
H114 C110 0.931 . S
H115 C111 0.930 . S
O116 Co105 2.039 . S
O116 C106 1.265 . S
C117 O113 1.253 . S
C117 O118 1.227 . S
O118 C117 1.227 . S
N119 Co105 2.140 . S
N119 C122 1.346 . S
N119 C123 1.345 . S
C120 C121 1.387 . S
C120 C124 1.391 . S
C121 C120 1.387 . S
C121 C122 1.369 . S
C121 H130 0.929 . S
C122 N119 1.346 . S
C122 C121 1.369 . S
C122 H125 0.928 . S
C123 N119 1.345 . S
C123 C124 1.371 . S
C123 H126 0.931 . S
C124 C120 1.391 . S
C124 C123 1.371 . S
C124 H131 0.930 . S
H125 C122 0.928 . S
H126 C123 0.931 . S
H127 C103 0.930 . S
H128 C100 0.930 . S
H129 C109 0.930 . S
H130 C121 0.929 . S
H131 C124 0.930 . S
C132 C133 1.351 . S
C132 N135 1.368 . S
C132 H137 0.931 . S
C133 C132 1.351 . S
C133 N134 1.373 . S
C133 H161 0.930 . S
N134 C133 1.373 . S
N134 C136 1.340 . S
N135 C132 1.368 . S
N135 C136 1.321 . S
N135 Co138 2.135 . S
C136 N134 1.340 . S
C136 N135 1.321 . S
C136 H160 0.930 . S
H137 C132 0.931 . S
Co138 N135 2.135 . S
Co138 N141 2.121 1_554 S
Co138 O146 2.055 . S
Co138 O149 2.039 . S
Co138 N152 2.140 . S
C139 O140 1.227 . S
C139 O149 1.265 . S
O140 C139 1.227 . S
N141 Co138 2.121 1_556 S
N141 C143 1.375 . S
N141 C144 1.313 . S
C142 C143 1.338 . S
C142 N145 1.377 . S
C142 H162 0.930 . S
C143 N141 1.375 . S
C143 C142 1.338 . S
C143 H147 0.931 . S
C144 N141 1.313 . S
C144 N145 1.344 . S
C144 H148 0.930 . S
N145 C142 1.377 . S
N145 C144 1.344 . S
O146 Co138 2.055 . S
O146 C150 1.253 . S
H147 C143 0.931 . S
H148 C144 0.930 . S
O149 Co138 2.039 . S
O149 C139 1.265 . S
C150 O146 1.253 . S
C150 O151 1.227 . S
O151 C150 1.227 . S
N152 Co138 2.140 . S
N152 C155 1.346 . S
N152 C156 1.345 . S
C153 C154 1.387 . S
C153 C157 1.391 1_565 S
C154 C153 1.387 . S
C154 C155 1.369 1_565 S
C154 H163 0.929 . S
C155 N152 1.346 . S
C155 C154 1.369 1_545 S
C155 H158 0.928 . S
C156 N152 1.345 . S
C156 C157 1.371 . S
C156 H159 0.931 . S
C157 C153 1.391 1_545 S
C157 C156 1.371 . S
C157 H164 0.930 . S
H158 C155 0.928 . S
H159 C156 0.931 . S
H160 C136 0.930 . S
H161 C133 0.930 . S
H162 C142 0.930 . S
H163 C154 0.929 . S
H164 C157 0.930 . S
C165 C166 1.351 . S
C165 N168 1.368 . S
C165 H170 0.931 . S
C166 C165 1.351 . S
C166 N167 1.373 . S
C166 H194 0.930 . S
N167 C166 1.373 . S
N167 C169 1.340 . S
N168 C165 1.368 . S
N168 C169 1.321 . S
N168 Co171 2.135 . S
C169 N167 1.340 . S
C169 N168 1.321 . S
C169 H193 0.930 . S
H170 C165 0.931 . S
Co171 N168 2.135 . S
Co171 N174 2.121 . S
Co171 O179 2.055 . S
Co171 O182 2.039 . S
Co171 N185 2.140 . S
C172 O173 1.227 . S
C172 O182 1.265 . S
O173 C172 1.227 . S
N174 Co171 2.121 . S
N174 C176 1.375 . S
N174 C177 1.313 . S
C175 C176 1.338 . S
C175 N178 1.377 . S
C175 H195 0.930 . S
C176 N174 1.375 . S
C176 C175 1.338 . S
C176 H180 0.931 . S
C177 N174 1.313 . S
C177 N178 1.344 . S
C177 H181 0.930 . S
N178 C175 1.377 . S
N178 C177 1.344 . S
O179 Co171 2.055 . S
O179 C183 1.253 . S
H180 C176 0.931 . S
H181 C177 0.930 . S
O182 Co171 2.039 . S
O182 C172 1.265 . S
C183 O179 1.253 . S
C183 O184 1.227 . S
O184 C183 1.227 . S
N185 Co171 2.140 . S
N185 C188 1.346 . S
N185 C189 1.345 . S
C186 C187 1.387 . S
C186 C190 1.391 1_455 S
C187 C186 1.387 . S
C187 C188 1.369 1_455 S
C187 H196 0.929 . S
C188 N185 1.346 . S
C188 C187 1.369 1_655 S
C188 H191 0.928 . S
C189 N185 1.345 . S
C189 C190 1.371 . S
C189 H192 0.931 . S
C190 C186 1.391 1_655 S
C190 C189 1.371 . S
C190 H197 0.930 . S
H191 C188 0.928 . S
H192 C189 0.931 . S
H193 C169 0.930 . S
H194 C166 0.930 . S
H195 C175 0.930 . S
H196 C187 0.929 . S
H197 C190 0.930 . S
C198 C199 1.351 . S
C198 N201 1.368 . S
C198 H203 0.931 . S
C199 C198 1.351 . S
C199 N200 1.373 . S
C199 H227 0.930 . S
N200 C199 1.373 . S
N200 C202 1.340 . S
N201 C198 1.368 . S
N201 C202 1.321 . S
N201 Co204 2.135 . S
C202 N200 1.340 . S
C202 N201 1.321 . S
C202 H226 0.930 . S
H203 C198 0.931 . S
Co204 N201 2.135 . S
Co204 N207 2.121 1_554 S
Co204 O212 2.055 . S
Co204 O215 2.039 . S
Co204 N218 2.140 . S
C205 O206 1.227 . S
C205 O215 1.265 . S
O206 C205 1.227 . S
N207 Co204 2.121 1_556 S
N207 C209 1.375 . S
N207 C210 1.313 . S
C208 C209 1.338 . S
C208 N211 1.377 . S
C208 H228 0.930 . S
C209 N207 1.375 . S
C209 C208 1.338 . S
C209 H213 0.931 . S
C210 N207 1.313 . S
C210 N211 1.344 . S
C210 H214 0.930 . S
N211 C208 1.377 . S
N211 C210 1.344 . S
O212 Co204 2.055 . S
O212 C216 1.253 . S
H213 C209 0.931 . S
H214 C210 0.930 . S
O215 Co204 2.039 . S
O215 C205 1.265 . S
C216 O212 1.253 . S
C216 O217 1.227 . S
O217 C216 1.227 . S
N218 Co204 2.140 . S
N218 C221 1.346 . S
N218 C222 1.345 . S
C219 C220 1.387 . S
C219 C223 1.391 1_545 S
C220 C219 1.387 . S
C220 C221 1.369 1_545 S
C220 H229 0.929 . S
C221 N218 1.346 . S
C221 C220 1.369 1_565 S
C221 H224 0.928 . S
C222 N218 1.345 . S
C222 C223 1.371 . S
C222 H225 0.931 . S
C223 C219 1.391 1_565 S
C223 C222 1.371 . S
C223 H230 0.930 . S
H224 C221 0.928 . S
H225 C222 0.931 . S
H226 C202 0.930 . S
H227 C199 0.930 . S
H228 C208 0.930 . S
H229 C220 0.929 . S
H230 C223 0.930 . S
C231 C232 1.351 . S
C231 N234 1.368 . S
C231 H236 0.931 . S
C232 C231 1.351 . S
C232 N233 1.373 . S
C232 H260 0.930 . S
N233 C232 1.373 . S
N233 C235 1.340 . S
N234 C231 1.368 . S
N234 C235 1.321 . S
N234 Co237 2.135 . S
C235 N233 1.340 . S
C235 N234 1.321 . S
C235 H259 0.930 . S
H236 C231 0.931 . S
Co237 N234 2.135 . S
Co237 N240 2.121 . S
Co237 O245 2.055 . S
Co237 O248 2.039 . S
Co237 N251 2.140 . S
C238 O239 1.227 . S
C238 O248 1.265 . S
O239 C238 1.227 . S
N240 Co237 2.121 . S
N240 C242 1.375 . S
N240 C243 1.313 . S
C241 C242 1.338 . S
C241 N244 1.377 . S
C241 H261 0.930 . S
C242 N240 1.375 . S
C242 C241 1.338 . S
C242 H246 0.931 . S
C243 N240 1.313 . S
C243 N244 1.344 . S
C243 H247 0.930 . S
N244 C241 1.377 . S
N244 C243 1.344 . S
O245 Co237 2.055 . S
O245 C249 1.253 . S
H246 C242 0.931 . S
H247 C243 0.930 . S
O248 Co237 2.039 . S
O248 C238 1.265 . S
C249 O245 1.253 . S
C249 O250 1.227 . S
O250 C249 1.227 . S
N251 Co237 2.140 . S
N251 C254 1.346 . S
N251 C255 1.345 . S
C252 C253 1.387 . S
C252 C256 1.391 1_655 S
C253 C252 1.387 . S
C253 C254 1.369 1_655 S
C253 H262 0.929 . S
C254 N251 1.346 . S
C254 C253 1.369 1_455 S
C254 H257 0.928 . S
C255 N251 1.345 . S
C255 C256 1.371 . S
C255 H258 0.931 . S
C256 C252 1.391 1_455 S
C256 C255 1.371 . S
C256 H263 0.930 . S
H257 C254 0.928 . S
H258 C255 0.931 . S
H259 C235 0.930 . S
H260 C232 0.930 . S
H261 C241 0.930 . S
H262 C253 0.929 . S
H263 C256 0.930 . S
C264 C265 1.349 . S
C264 C266 1.327 . S
C264 H289 0.950 . S
C265 C264 1.349 . S
C265 C281 1.349 . S
C266 C264 1.327 . S
C266 C285 1.429 . S
C266 H290 0.950 . S
C267 C284 1.574 . S
C267 C286 1.368 . S
C267 H291 0.949 . S
H268 C272 0.949 . S
C269 C270 1.349 . S
C269 C271 1.327 . S
C269 H292 0.950 . S
C270 C269 1.349 . S
C270 C282 1.349 . S
C271 C269 1.327 . S
C271 C287 1.429 . S
C271 H293 0.950 . S
C272 H268 0.949 . S
C272 C280 1.574 . S
C272 C288 1.368 . S
H273 C281 0.950 . S
H274 C279 0.950 . S
H275 C280 0.949 . S
H276 C282 0.950 . S
H277 C283 0.950 . S
H278 C284 0.949 . S
C279 H274 0.950 . S
C279 C281 1.327 . S
C279 C285 1.429 . S
C280 C272 1.574 . S
C280 H275 0.949 . S
C280 C286 1.368 . S
C281 C265 1.349 . S
C281 H273 0.950 . S
C281 C279 1.327 . S
C282 C270 1.349 . S
C282 H276 0.950 . S
C282 C283 1.327 . S
C283 H277 0.950 . S
C283 C282 1.327 . S
C283 C287 1.429 . S
C284 C267 1.574 . S
C284 H278 0.949 . S
C284 C288 1.368 . S
C285 C266 1.429 . S
C285 C279 1.429 . S
C285 C286 1.523 . S
C286 C267 1.368 . S
C286 C280 1.368 . S
C286 C285 1.523 . S
C287 C271 1.429 . S
C287 C283 1.429 . S
C287 C288 1.523 . S
C288 C272 1.368 . S
C288 C284 1.368 . S
C288 C287 1.523 . S
H289 C264 0.950 . S
H290 C266 0.950 . S
H291 C267 0.949 . S
H292 C269 0.950 . S
H293 C271 0.950 . S
C294 C295 1.349 . S
C294 C296 1.327 . S
C294 H319 0.950 . S
C295 C294 1.349 . S
C295 C311 1.349 . S
C296 C294 1.327 . S
C296 C315 1.429 . S
C296 H320 0.950 . S
C297 C314 1.574 . S
C297 C316 1.368 . S
C297 H321 0.949 . S
H298 C302 0.949 . S
C299 C300 1.349 . S
C299 C301 1.327 . S
C299 H322 0.950 . S
C300 C299 1.349 . S
C300 C312 1.349 . S
C301 C299 1.327 . S
C301 C317 1.429 . S
C301 H323 0.950 . S
C302 H298 0.949 . S
C302 C310 1.574 . S
C302 C318 1.368 . S
H303 C311 0.950 . S
H304 C309 0.950 . S
H305 C310 0.949 . S
H306 C312 0.950 . S
H307 C313 0.950 . S
H308 C314 0.949 . S
C309 H304 0.950 . S
C309 C311 1.327 . S
C309 C315 1.429 . S
C310 C302 1.574 . S
C310 H305 0.949 . S
C310 C316 1.368 . S
C311 C295 1.349 . S
C311 H303 0.950 . S
C311 C309 1.327 . S
C312 C300 1.349 . S
C312 H306 0.950 . S
C312 C313 1.327 . S
C313 H307 0.950 . S
C313 C312 1.327 . S
C313 C317 1.429 . S
C314 C297 1.574 . S
C314 H308 0.949 . S
C314 C318 1.368 . S
C315 C296 1.429 . S
C315 C309 1.429 . S
C315 C316 1.523 . S
C316 C297 1.368 . S
C316 C310 1.368 . S
C316 C315 1.523 . S
C317 C301 1.429 . S
C317 C313 1.429 . S
C317 C318 1.523 . S
C318 C302 1.368 . S
C318 C314 1.368 . S
C318 C317 1.523 . S
H319 C294 0.950 . S
H320 C296 0.950 . S
H321 C297 0.949 . S
H322 C299 0.950 . S
H323 C301 0.950 . S
C324 C325 1.349 . S
C324 C326 1.327 . S
C324 H349 0.950 . S
C325 C324 1.349 . S
C325 C341 1.349 . S
C326 C324 1.327 . S
C326 C345 1.429 . S
C326 H350 0.950 . S
C327 C344 1.574 . S
C327 C346 1.368 . S
C327 H351 0.949 . S
H328 C332 0.949 . S
C329 C330 1.349 . S
C329 C331 1.327 . S
C329 H352 0.950 . S
C330 C329 1.349 . S
C330 C342 1.349 . S
C331 C329 1.327 . S
C331 C347 1.429 . S
C331 H353 0.950 . S
C332 H328 0.949 . S
C332 C340 1.574 . S
C332 C348 1.368 . S
H333 C341 0.950 . S
H334 C339 0.950 . S
H335 C340 0.949 . S
H336 C342 0.950 . S
H337 C343 0.977 . S
H338 C344 0.949 . S
C339 H334 0.950 . S
C339 C341 1.327 . S
C339 C345 1.429 . S
C340 C332 1.574 . S
C340 H335 0.949 . S
C340 C346 1.368 . S
C341 C325 1.349 . S
C341 H333 0.950 . S
C341 C339 1.327 . S
C342 C330 1.349 . S
C342 H336 0.950 . S
C342 C343 1.327 . S
C343 H337 0.977 . S
C343 C342 1.327 . S
C343 C347 1.429 . S
C344 C327 1.574 . S
C344 H338 0.949 . S
C344 C348 1.368 . S
C345 C326 1.429 . S
C345 C339 1.429 . S
C345 C346 1.523 . S
C346 C327 1.368 . S
C346 C340 1.368 . S
C346 C345 1.523 . S
C347 C331 1.429 . S
C347 C343 1.429 . S
C347 C348 1.523 . S
C348 C332 1.368 . S
C348 C344 1.368 . S
C348 C347 1.523 . S
H349 C324 0.950 . S
H350 C326 0.950 . S
H351 C327 0.949 . S
H352 C329 0.950 . S
H353 C331 0.950 . S
C354 C355 1.349 . S
C354 C356 1.327 . S
C354 H379 0.950 . S
C355 C354 1.349 . S
C355 C371 1.349 . S
C356 C354 1.327 . S
C356 C375 1.429 . S
C356 H380 0.950 . S
C357 C374 1.574 . S
C357 C376 1.368 . S
C357 H381 0.949 . S
H358 C362 0.949 . S
C359 C360 1.349 . S
C359 C361 1.327 . S
C359 H382 0.950 . S
C360 C359 1.349 . S
C360 C372 1.349 . S
C361 C359 1.327 . S
C361 C377 1.429 . S
C361 H383 0.950 . S
C362 H358 0.949 . S
C362 C370 1.574 . S
C362 C378 1.368 . S
H363 C371 0.950 . S
H364 C369 0.950 . S
H365 C370 0.949 . S
H366 C372 0.950 . S
H367 C373 0.950 . S
H368 C374 0.949 . S
C369 H364 0.950 . S
C369 C371 1.327 . S
C369 C375 1.429 . S
C370 C362 1.574 . S
C370 H365 0.949 . S
C370 C376 1.368 . S
C371 C355 1.349 . S
C371 H363 0.950 . S
C371 C369 1.327 . S
C372 C360 1.349 . S
C372 H366 0.950 . S
C372 C373 1.327 . S
C373 H367 0.950 . S
C373 C372 1.327 . S
C373 C377 1.429 . S
C374 C357 1.574 . S
C374 H368 0.949 . S
C374 C378 1.368 . S
C375 C356 1.429 . S
C375 C369 1.429 . S
C375 C376 1.523 . S
C376 C357 1.368 . S
C376 C370 1.368 . S
C376 C375 1.523 . S
C377 C361 1.429 . S
C377 C373 1.429 . S
C377 C378 1.523 . S
C378 C362 1.368 . S
C378 C374 1.368 . S
C378 C377 1.523 . S
H379 C354 0.950 . S
H380 C356 0.950 . S
H381 C357 0.949 . S
H382 C359 0.950 . S
H383 C361 0.950 . S
C384 C385 1.349 . S
C384 C386 1.327 . S
C384 H409 0.950 . S
C385 C384 1.349 . S
C385 C401 1.349 . S
C386 C384 1.327 . S
C386 C405 1.429 . S
C386 H410 0.950 . S
C387 C404 1.574 . S
C387 C406 1.368 . S
C387 H411 0.949 1_554 S
H388 C392 0.949 . S
C389 C390 1.349 . S
C389 C391 1.327 . S
C389 H412 0.950 1_554 S
C390 C389 1.349 . S
C390 C402 1.349 . S
C391 C389 1.327 . S
C391 C407 1.429 . S
C391 H413 0.950 1_554 S
C392 H388 0.949 . S
C392 C400 1.574 . S
C392 C408 1.368 . S
H393 C401 0.950 1_556 S
H394 C399 0.950 1_556 S
H395 C400 0.949 . S
H396 C402 0.950 . S
H397 C403 0.950 . S
H398 C404 0.949 1_556 S
C399 H394 0.950 1_554 S
C399 C401 1.327 . S
C399 C405 1.429 . S
C400 C392 1.574 . S
C400 H395 0.949 . S
C400 C406 1.368 . S
C401 C385 1.349 . S
C401 H393 0.950 1_554 S
C401 C399 1.327 . S
C402 C390 1.349 . S
C402 H396 0.950 . S
C402 C403 1.327 . S
C403 H397 0.950 . S
C403 C402 1.327 . S
C403 C407 1.429 . S
C404 C387 1.574 . S
C404 H398 0.949 1_554 S
C404 C408 1.368 . S
C405 C386 1.429 . S
C405 C399 1.429 . S
C405 C406 1.523 . S
C406 C387 1.368 . S
C406 C400 1.368 . S
C406 C405 1.523 . S
C407 C391 1.429 . S
C407 C403 1.429 . S
C407 C408 1.523 . S
C408 C392 1.368 . S
C408 C404 1.368 . S
C408 C407 1.523 . S
H409 C384 0.950 . S
H410 C386 0.950 . S
H411 C387 0.949 1_556 S
H412 C389 0.950 1_556 S
H413 C391 0.950 1_556 S
C414 C415 1.349 . S
C414 C416 1.327 . S
C414 H439 0.950 . S
C415 C414 1.349 . S
C415 C431 1.349 . S
C416 C414 1.327 . S
C416 C435 1.429 . S
C416 H440 0.950 . S
C417 C434 1.574 . S
C417 C436 1.368 . S
C417 H441 0.949 . S
H418 C422 0.949 . S
C419 C420 1.349 . S
C419 C421 1.327 . S
C419 H442 0.950 . S
C420 C419 1.349 . S
C420 C432 1.349 . S
C421 C419 1.327 . S
C421 C437 1.429 . S
C421 H443 0.950 . S
C422 H418 0.949 . S
C422 C430 1.574 . S
C422 C438 1.368 . S
H423 C431 0.950 . S
H424 C429 0.950 . S
H425 C430 0.949 . S
H426 C432 0.950 . S
H427 C433 0.950 . S
H428 C434 0.949 . S
C429 H424 0.950 . S
C429 C431 1.327 . S
C429 C435 1.429 . S
C430 C422 1.574 . S
C430 H425 0.949 . S
C430 C436 1.368 . S
C431 C415 1.349 . S
C431 H423 0.950 . S
C431 C429 1.327 . S
C432 C420 1.349 . S
C432 H426 0.950 . S
C432 C433 1.327 . S
C433 H427 0.950 . S
C433 C432 1.327 . S
C433 C437 1.429 . S
C434 C417 1.574 . S
C434 H428 0.949 . S
C434 C438 1.368 . S
C435 C416 1.429 . S
C435 C429 1.429 . S
C435 C436 1.523 . S
C436 C417 1.368 . S
C436 C430 1.368 . S
C436 C435 1.523 . S
C437 C421 1.429 . S
C437 C433 1.429 . S
C437 C438 1.523 . S
C438 C422 1.368 . S
C438 C434 1.368 . S
C438 C437 1.523 . S
H439 C414 0.950 . S
H440 C416 0.950 . S
H441 C417 0.949 . S
H442 C419 0.950 . S
H443 C421 0.950 . S
C444 C445 1.349 . S
C444 C446 1.327 . S
C444 H469 0.950 1_554 S
C445 C444 1.349 . S
C445 C461 1.349 . S
C446 C444 1.327 . S
C446 C465 1.429 . S
C446 H470 0.950 1_554 S
C447 C464 1.574 . S
C447 C466 1.368 . S
C447 H471 0.949 . S
H448 C452 0.949 1_556 S
C449 C450 1.349 . S
C449 C451 1.327 . S
C449 H472 0.950 . S
C450 C449 1.349 . S
C450 C462 1.349 . S
C451 C449 1.327 . S
C451 C467 1.429 . S
C451 H473 0.950 . S
C452 H448 0.949 1_554 S
C452 C460 1.574 . S
C452 C468 1.368 . S
H453 C461 0.950 . S
H454 C459 0.950 . S
H455 C460 0.949 1_556 S
H456 C462 0.950 1_556 S
H457 C463 0.950 1_556 S
H458 C464 0.949 . S
C459 H454 0.950 . S
C459 C461 1.327 . S
C459 C465 1.429 . S
C460 C452 1.574 . S
C460 H455 0.949 1_554 S
C460 C466 1.368 . S
C461 C445 1.349 . S
C461 H453 0.950 . S
C461 C459 1.327 . S
C462 C450 1.349 . S
C462 H456 0.950 1_554 S
C462 C463 1.327 . S
C463 H457 0.950 1_554 S
C463 C462 1.327 . S
C463 C467 1.429 . S
C464 C447 1.574 . S
C464 H458 0.949 . S
C464 C468 1.368 . S
C465 C446 1.429 . S
C465 C459 1.429 . S
C465 C466 1.523 . S
C466 C447 1.368 . S
C466 C460 1.368 . S
C466 C465 1.523 . S
C467 C451 1.429 . S
C467 C463 1.429 . S
C467 C468 1.523 . S
C468 C452 1.368 . S
C468 C464 1.368 . S
C468 C467 1.523 . S
H469 C444 0.950 1_556 S
H470 C446 0.950 1_556 S
H471 C447 0.949 . S
H472 C449 0.950 . S
H473 C451 0.950 . S
C474 C475 1.349 . S
C474 C476 1.327 . S
C474 H499 0.950 . S
C475 C474 1.349 . S
C475 C491 1.349 . S
C476 C474 1.327 . S
C476 C495 1.429 . S
C476 H500 0.950 . S
C477 C494 1.574 . S
C477 C496 1.368 . S
C477 H501 0.949 . S
H478 C482 0.949 . S
C479 C480 1.349 . S
C479 C481 1.327 . S
C479 H502 0.950 . S
C480 C479 1.349 . S
C480 C492 1.349 . S
C481 C479 1.327 . S
C481 C497 1.429 . S
C481 H503 0.950 . S
C482 H478 0.949 . S
C482 C490 1.574 . S
C482 C498 1.368 . S
H483 C491 0.950 . S
H484 C489 0.950 . S
H485 C490 0.949 . S
H486 C492 0.950 . S
H487 C493 0.950 . S
H488 C494 0.949 . S
C489 H484 0.950 . S
C489 C491 1.327 . S
C489 C495 1.429 . S
C490 C482 1.574 . S
C490 H485 0.949 . S
C490 C496 1.368 . S
C491 C475 1.349 . S
C491 H483 0.950 . S
C491 C489 1.327 . S
C492 C480 1.349 . S
C492 H486 0.950 . S
C492 C493 1.327 . S
C493 H487 0.950 . S
C493 C492 1.327 . S
C493 C497 1.429 . S
C494 C477 1.574 . S
C494 H488 0.949 . S
C494 C498 1.368 . S
C495 C476 1.429 . S
C495 C489 1.429 . S
C495 C496 1.523 . S
C496 C477 1.368 . S
C496 C490 1.368 . S
C496 C495 1.523 . S
C497 C481 1.429 . S
C497 C493 1.429 . S
C497 C498 1.523 . S
C498 C482 1.368 . S
C498 C494 1.368 . S
C498 C497 1.523 . S
H499 C474 0.950 . S
H500 C476 0.950 . S
H501 C477 0.949 . S
H502 C479 0.950 . S
H503 C481 0.950 . S
C504 C505 1.349 . S
C504 C506 1.327 . S
C504 H529 0.950 . S
C505 C504 1.349 . S
C505 C521 1.360 . S
C506 C504 1.327 . S
C506 C525 1.429 . S
C506 H530 0.950 . S
C507 C524 1.574 1_455 S
C507 C526 1.368 1_556 S
C507 H531 0.949 . S
H508 C512 0.949 . S
C509 C510 1.360 . S
C509 C511 1.327 1_554 S
C509 H532 0.939 1_554 S
C510 C509 1.360 . S
C510 C522 1.349 . S
C511 C509 1.327 1_556 S
C511 C527 1.428 1_556 S
C511 H533 0.950 . S
C512 H508 0.949 . S
C512 C520 1.574 1_655 S
C512 C528 1.368 . S
H513 C521 0.939 1_556 S
H514 C519 0.950 . S
H515 C520 0.949 . S
H516 C522 0.950 . S
H517 C523 0.950 . S
H518 C524 0.949 . S
C519 H514 0.950 . S
C519 C521 1.327 1_556 S
C519 C525 1.428 1_556 S
C520 C512 1.574 1_455 S
C520 H515 0.949 . S
C520 C526 1.368 . S
C521 C505 1.360 . S
C521 H513 0.939 1_554 S
C521 C519 1.327 1_554 S
C522 C510 1.349 . S
C522 H516 0.950 . S
C522 C523 1.327 . S
C523 H517 0.950 . S
C523 C522 1.327 . S
C523 C527 1.429 . S
C524 C507 1.574 1_655 S
C524 H518 0.949 . S
C524 C528 1.368 1_556 S
C525 C506 1.429 . S
C525 C519 1.428 1_554 S
C525 C526 1.523 . S
C526 C507 1.368 1_554 S
C526 C520 1.368 . S
C526 C525 1.523 . S
C527 C511 1.428 1_554 S
C527 C523 1.429 . S
C527 C528 1.523 . S
C528 C512 1.368 . S
C528 C524 1.368 1_554 S
C528 C527 1.523 . S
H529 C504 0.950 . S
H530 C506 0.950 . S
H531 C507 0.949 . S
H532 C509 0.939 1_556 S
H533 C511 0.950 . S
C534 C535 1.349 . S
C534 C536 1.327 . S
C534 H559 0.950 . S
C535 C534 1.349 . S
C535 C551 1.349 . S
C536 C534 1.327 . S
C536 C555 1.429 . S
C536 H560 0.950 . S
C537 C554 1.574 1_565 S
C537 C556 1.368 . S
C537 H561 0.949 . S
H538 C542 0.949 . S
C539 C540 1.349 . S
C539 C541 1.327 . S
C539 H562 0.950 . S
C540 C539 1.349 . S
C540 C552 1.349 . S
C541 C539 1.327 . S
C541 C557 1.429 . S
C541 H563 0.950 . S
C542 H538 0.949 . S
C542 C550 1.574 1_545 S
C542 C558 1.368 . S
H543 C551 0.950 . S
H544 C549 0.950 . S
H545 C550 0.949 . S
H546 C552 0.950 . S
H547 C553 0.950 . S
H548 C554 0.949 . S
C549 H544 0.950 . S
C549 C551 1.327 . S
C549 C555 1.429 . S
C550 C542 1.574 1_565 S
C550 H545 0.949 . S
C550 C556 1.368 . S
C551 C535 1.349 . S
C551 H543 0.950 . S
C551 C549 1.327 . S
C552 C540 1.349 . S
C552 H546 0.950 . S
C552 C553 1.327 . S
C553 H547 0.950 . S
C553 C552 1.327 . S
C553 C557 1.429 . S
C554 C537 1.574 1_545 S
C554 H548 0.949 . S
C554 C558 1.368 . S
C555 C536 1.429 . S
C555 C549 1.429 . S
C555 C556 1.523 . S
C556 C537 1.368 . S
C556 C550 1.368 . S
C556 C555 1.523 . S
C557 C541 1.429 . S
C557 C553 1.429 . S
C557 C558 1.523 . S
C558 C542 1.368 . S
C558 C554 1.368 . S
C558 C557 1.523 . S
H559 C534 0.950 . S
H560 C536 0.950 . S
H561 C537 0.949 . S
H562 C539 0.950 . S
H563 C541 0.950 . S
C564 C565 1.349 . S
C564 C566 1.327 . S
C564 H589 0.950 . S
C565 C564 1.349 . S
C565 C581 1.349 . S
C566 C564 1.327 . S
C566 C585 1.429 . S
C566 H590 0.950 . S
C567 C584 1.574 . S
C567 C586 1.368 1_545 S
C567 H591 0.949 . S
H568 C572 0.949 . S
C569 C570 1.349 . S
C569 C571 1.327 . S
C569 H592 0.950 . S
C570 C569 1.349 . S
C570 C582 1.349 . S
C571 C569 1.327 . S
C571 C587 1.429 . S
C571 H593 0.950 . S
C572 H568 0.949 . S
C572 C580 1.574 . S
C572 C588 1.368 1_565 S
H573 C581 0.950 . S
H574 C579 0.950 . S
H575 C580 0.949 . S
H576 C582 0.950 . S
H577 C583 0.950 . S
H578 C584 0.949 . S
C579 H574 0.950 . S
C579 C581 1.327 . S
C579 C585 1.429 . S
C580 C572 1.574 . S
C580 H575 0.949 . S
C580 C586 1.368 . S
C581 C565 1.349 . S
C581 H573 0.950 . S
C581 C579 1.327 . S
C582 C570 1.349 . S
C582 H576 0.950 . S
C582 C583 1.327 . S
C583 H577 0.950 . S
C583 C582 1.327 . S
C583 C587 1.429 . S
C584 C567 1.574 . S
C584 H578 0.949 . S
C584 C588 1.368 . S
C585 C566 1.429 . S
C585 C579 1.429 . S
C585 C586 1.523 . S
C586 C567 1.368 1_565 S
C586 C580 1.368 . S
C586 C585 1.523 . S
C587 C571 1.429 . S
C587 C583 1.429 . S
C587 C588 1.523 . S
C588 C572 1.368 1_545 S
C588 C584 1.368 . S
C588 C587 1.523 . S
H589 C564 0.950 . S
H590 C566 0.950 . S
H591 C567 0.949 . S
H592 C569 0.950 . S
H593 C571 0.950 . S
C594 C595 1.349 . S
C594 C596 1.327 . S
C594 H619 0.950 . S
C595 C594 1.349 . S
C595 C611 1.349 . S
C596 C594 1.327 . S
C596 C615 1.429 . S
C596 H620 0.950 . S
C597 C614 1.574 . S
C597 C616 1.368 1_455 S
C597 H621 0.949 . S
H598 C602 0.949 . S
C599 C600 1.349 . S
C599 C601 1.327 . S
C599 H622 0.950 . S
C600 C599 1.349 . S
C600 C612 1.349 . S
C601 C599 1.327 . S
C601 C617 1.429 . S
C601 H623 0.950 . S
C602 H598 0.949 . S
C602 C610 1.574 . S
C602 C618 1.368 1_655 S
H603 C611 0.950 . S
H604 C609 0.950 . S
H605 C610 0.949 . S
H606 C612 0.950 . S
H607 C613 0.950 . S
H608 C614 0.949 . S
C609 H604 0.950 . S
C609 C611 1.327 . S
C609 C615 1.429 . S
C610 C602 1.574 . S
C610 H605 0.949 . S
C610 C616 1.368 . S
C611 C595 1.349 . S
C611 H603 0.950 . S
C611 C609 1.327 . S
C612 C600 1.349 . S
C612 H606 0.950 . S
C612 C613 1.327 . S
C613 H607 0.950 . S
C613 C612 1.327 . S
C613 C617 1.429 . S
C614 C597 1.574 . S
C614 H608 0.949 . S
C614 C618 1.368 . S
C615 C596 1.429 . S
C615 C609 1.429 . S
C615 C616 1.523 . S
C616 C597 1.368 1_655 S
C616 C610 1.368 . S
C616 C615 1.523 . S
C617 C601 1.429 . S
C617 C613 1.429 . S
C617 C618 1.523 . S
C618 C602 1.368 1_455 S
C618 C614 1.368 . S
C618 C617 1.523 . S
H619 C594 0.950 . S
H620 C596 0.950 . S
H621 C597 0.949 . S
H622 C599 0.950 . S
H623 C601 0.950 . S
C624 C625 1.349 . S
C624 C626 1.327 . S
C624 H649 0.950 . S
C625 C624 1.349 . S
C625 C641 1.349 . S
C626 C624 1.327 . S
C626 C645 1.429 . S
C626 H650 0.950 . S
C627 C644 1.574 . S
C627 C646 1.368 . S
C627 H651 0.949 . S
H628 C632 0.949 . S
C629 C630 1.349 . S
C629 C631 1.327 . S
C629 H652 0.950 . S
C630 C629 1.349 . S
C630 C642 1.349 . S
C631 C629 1.327 . S
C631 C647 1.429 . S
C631 H653 0.950 . S
C632 H628 0.949 . S
C632 C640 1.574 . S
C632 C648 1.368 . S
H633 C641 0.950 . S
H634 C639 0.950 . S
H635 C640 0.949 . S
H636 C642 0.950 . S
H637 C643 0.950 . S
H638 C644 0.949 . S
C639 H634 0.950 . S
C639 C641 1.327 . S
C639 C645 1.429 . S
C640 C632 1.574 . S
C640 H635 0.949 . S
C640 C646 1.368 . S
C641 C625 1.349 . S
C641 H633 0.950 . S
C641 C639 1.327 . S
C642 C630 1.349 . S
C642 H636 0.950 . S
C642 C643 1.327 . S
C643 H637 0.950 . S
C643 C642 1.327 . S
C643 C647 1.429 . S
C644 C627 1.574 . S
C644 H638 0.949 . S
C644 C648 1.368 . S
C645 C626 1.429 . S
C645 C639 1.429 . S
C645 C646 1.523 . S
C646 C627 1.368 . S
C646 C640 1.368 . S
C646 C645 1.523 . S
C647 C631 1.429 . S
C647 C643 1.429 . S
C647 C648 1.523 . S
C648 C632 1.368 . S
C648 C644 1.368 . S
C648 C647 1.523 . S
H649 C624 0.950 . S
H650 C626 0.950 . S
H651 C627 0.949 . S
H652 C629 0.950 . S
H653 C631 0.950 . S
C654 C655 1.349 . S
C654 C656 1.327 . S
C654 H679 0.950 . S
C655 C654 1.349 . S
C655 C671 1.349 . S
C656 C654 1.327 . S
C656 C675 1.429 . S
C656 H680 0.950 . S
C657 C674 1.574 . S
C657 C676 1.368 . S
C657 H681 0.949 . S
H658 C662 0.949 . S
C659 C660 1.349 . S
C659 C661 1.327 . S
C659 H682 0.950 . S
C660 C659 1.349 . S
C660 C672 1.349 . S
C661 C659 1.327 . S
C661 C677 1.429 . S
C661 H683 0.950 . S
C662 H658 0.949 . S
C662 C670 1.574 . S
C662 C678 1.368 . S
H663 C671 0.950 . S
H664 C669 0.950 . S
H665 C670 0.949 . S
H666 C672 0.950 . S
H667 C673 0.950 . S
H668 C674 0.949 . S
C669 H664 0.950 . S
C669 C671 1.327 . S
C669 C675 1.429 . S
C670 C662 1.574 . S
C670 H665 0.949 . S
C670 C676 1.368 . S
C671 C655 1.349 . S
C671 H663 0.950 . S
C671 C669 1.327 . S
C672 C660 1.349 . S
C672 H666 0.950 . S
C672 C673 1.327 . S
C673 H667 0.950 . S
C673 C672 1.327 . S
C673 C677 1.429 . S
C674 C657 1.574 . S
C674 H668 0.949 . S
C674 C678 1.368 . S
C675 C656 1.429 . S
C675 C669 1.429 . S
C675 C676 1.523 . S
C676 C657 1.368 . S
C676 C670 1.368 . S
C676 C675 1.523 . S
C677 C661 1.429 . S
C677 C673 1.429 . S
C677 C678 1.523 . S
C678 C662 1.368 . S
C678 C674 1.368 . S
C678 C677 1.523 . S
H679 C654 0.950 . S
H680 C656 0.950 . S
H681 C657 0.949 . S
H682 C659 0.950 . S
H683 C661 0.950 . S
C684 C685 1.349 . S
C684 C686 1.327 . S
C684 H709 0.950 . S
C685 C684 1.349 . S
C685 C701 1.349 . S
C686 C684 1.327 . S
C686 C705 1.429 . S
C686 H710 0.950 . S
C687 C704 1.574 . S
C687 C706 1.368 . S
C687 H711 0.949 . S
H688 C692 0.949 . S
C689 C690 1.349 . S
C689 C691 1.327 . S
C689 H712 0.950 . S
C690 C689 1.349 . S
C690 C702 1.349 . S
C691 C689 1.327 . S
C691 C707 1.429 . S
C691 H713 0.950 . S
C692 H688 0.949 . S
C692 C700 1.574 . S
C692 C708 1.368 . S
H693 C701 0.950 . S
H694 C699 0.950 . S
H695 C700 0.949 . S
H696 C702 0.950 . S
H697 C703 0.950 . S
H698 C704 0.949 . S
C699 H694 0.950 . S
C699 C701 1.327 . S
C699 C705 1.429 . S
C700 C692 1.574 . S
C700 H695 0.949 . S
C700 C706 1.368 . S
C701 C685 1.349 . S
C701 H693 0.950 . S
C701 C699 1.327 . S
C702 C690 1.349 . S
C702 H696 0.950 . S
C702 C703 1.327 . S
C703 H697 0.950 . S
C703 C702 1.327 . S
C703 C707 1.429 . S
C704 C687 1.574 . S
C704 H698 0.949 . S
C704 C708 1.368 . S
C705 C686 1.429 . S
C705 C699 1.429 . S
C705 C706 1.523 . S
C706 C687 1.368 . S
C706 C700 1.368 . S
C706 C705 1.523 . S
C707 C691 1.429 . S
C707 C703 1.429 . S
C707 C708 1.523 . S
C708 C692 1.368 . S
C708 C704 1.368 . S
C708 C707 1.523 . S
H709 C684 0.950 . S
H710 C686 0.950 . S
H711 C687 0.949 . S
H712 C689 0.950 . S
H713 C691 0.950 . S
C714 C715 1.349 . S
C714 C716 1.327 . S
C714 H739 0.950 . S
C715 C714 1.349 . S
C715 C731 1.349 . S
C716 C714 1.327 . S
C716 C735 1.429 . S
C716 H740 0.950 . S
C717 C734 1.574 . S
C717 C736 1.368 . S
C717 H741 0.949 . S
H718 C722 0.949 . S
C719 C720 1.349 . S
C719 C721 1.327 . S
C719 H742 0.950 . S
C720 C719 1.349 . S
C720 C732 1.349 . S
C721 C719 1.327 . S
C721 C737 1.429 . S
C721 H743 0.950 . S
C722 H718 0.949 . S
C722 C730 1.574 . S
C722 C738 1.368 . S
H723 C731 0.950 . S
H724 C729 0.950 . S
H725 C730 0.949 . S
H726 C732 0.950 . S
H727 C733 0.950 . S
H728 C734 0.949 . S
C729 H724 0.950 . S
C729 C731 1.327 . S
C729 C735 1.429 . S
C730 C722 1.574 . S
C730 H725 0.949 . S
C730 C736 1.368 . S
C731 C715 1.349 . S
C731 H723 0.950 . S
C731 C729 1.327 . S
C732 C720 1.349 . S
C732 H726 0.950 . S
C732 C733 1.327 . S
C733 H727 0.950 . S
C733 C732 1.327 . S
C733 C737 1.429 . S
C734 C717 1.574 . S
C734 H728 0.949 . S
C734 C738 1.368 . S
C735 C716 1.429 . S
C735 C729 1.429 . S
C735 C736 1.523 . S
C736 C717 1.368 . S
C736 C730 1.368 . S
C736 C735 1.523 . S
C737 C721 1.429 . S
C737 C733 1.429 . S
C737 C738 1.523 . S
C738 C722 1.368 . S
C738 C734 1.368 . S
C738 C737 1.523 . S
H739 C714 0.950 . S
H740 C716 0.950 . S
H741 C717 0.949 . S
H742 C719 0.950 . S
H743 C721 0.950 . S
C744 C745 1.349 . S
C744 C746 1.327 . S
C744 H769 0.950 . S
C745 C744 1.349 . S
C745 C761 1.349 . S
C746 C744 1.327 . S
C746 C765 1.429 . S
C746 H770 0.950 . S
C747 C764 1.574 . S
C747 C766 1.368 . S
C747 H771 0.949 . S
H748 C752 0.949 . S
C749 C750 1.349 . S
C749 C751 1.327 . S
C749 H772 0.950 . S
C750 C749 1.349 . S
C750 C762 1.349 . S
C751 C749 1.327 . S
C751 C767 1.429 . S
C751 H773 0.950 . S
C752 H748 0.949 . S
C752 C760 1.574 . S
C752 C768 1.368 . S
H753 C761 0.950 . S
H754 C759 0.950 . S
H755 C760 0.949 . S
H756 C762 0.950 . S
H757 C763 0.950 . S
H758 C764 0.949 . S
C759 H754 0.950 . S
C759 C761 1.327 . S
C759 C765 1.429 . S
C760 C752 1.574 . S
C760 H755 0.949 . S
C760 C766 1.368 . S
C761 C745 1.349 . S
C761 H753 0.950 . S
C761 C759 1.327 . S
C762 C750 1.349 . S
C762 H756 0.950 . S
C762 C763 1.327 . S
C763 H757 0.950 . S
C763 C762 1.327 . S
C763 C767 1.429 . S
C764 C747 1.574 . S
C764 H758 0.949 . S
C764 C768 1.368 . S
C765 C746 1.429 . S
C765 C759 1.429 . S
C765 C766 1.523 . S
C766 C747 1.368 . S
C766 C760 1.368 . S
C766 C765 1.523 . S
C767 C751 1.429 . S
C767 C763 1.429 . S
C767 C768 1.523 . S
C768 C752 1.368 . S
C768 C764 1.368 . S
C768 C767 1.523 . S
H769 C744 0.950 . S
H770 C746 0.950 . S
H771 C747 0.949 . S
H772 C749 0.950 . S
H773 C751 0.950 . S
C774 C775 1.349 . S
C774 C776 1.327 . S
C774 H799 0.950 . S
C775 C774 1.349 . S
C775 C791 1.349 . S
C776 C774 1.327 . S
C776 C795 1.429 . S
C776 H800 0.950 . S
C777 C794 1.574 . S
C777 C796 1.368 . S
C777 H801 0.949 . S
H778 C782 0.949 . S
C779 C780 1.349 . S
C779 C781 1.327 . S
C779 H802 0.950 . S
C780 C779 1.349 . S
C780 C792 1.349 . S
C781 C779 1.327 . S
C781 C797 1.429 . S
C781 H803 0.950 . S
C782 H778 0.949 . S
C782 C790 1.574 . S
C782 C798 1.368 . S
H783 C791 0.950 . S
H784 C789 0.950 . S
H785 C790 0.949 . S
H786 C792 0.950 . S
H787 C793 0.950 . S
H788 C794 0.949 . S
C789 H784 0.950 . S
C789 C791 1.327 . S
C789 C795 1.429 . S
C790 C782 1.574 . S
C790 H785 0.949 . S
C790 C796 1.368 . S
C791 C775 1.349 . S
C791 H783 0.950 . S
C791 C789 1.327 . S
C792 C780 1.349 . S
C792 H786 0.950 . S
C792 C793 1.327 . S
C793 H787 0.950 . S
C793 C792 1.327 . S
C793 C797 1.429 . S
C794 C777 1.574 . S
C794 H788 0.949 . S
C794 C798 1.368 . S
C795 C776 1.429 . S
C795 C789 1.429 . S
C795 C796 1.523 . S
C796 C777 1.368 . S
C796 C790 1.368 . S
C796 C795 1.523 . S
C797 C781 1.429 . S
C797 C793 1.429 . S
C797 C798 1.523 . S
C798 C782 1.368 . S
C798 C794 1.368 . S
C798 C797 1.523 . S
H799 C774 0.950 . S
H800 C776 0.950 . S
H801 C777 0.949 . S
H802 C779 0.950 . S
H803 C781 0.950 . S
C804 C805 1.349 . S
C804 C806 1.327 . S
C804 H829 0.950 . S
C805 C804 1.349 . S
C805 C821 1.349 . S
C806 C804 1.327 . S
C806 C825 1.429 . S
C806 H830 0.950 . S
C807 C824 1.574 . S
C807 C826 1.368 . S
C807 H831 0.949 . S
H808 C812 0.949 . S
C809 C810 1.349 . S
C809 C811 1.327 . S
C809 H832 0.950 . S
C810 C809 1.349 . S
C810 C822 1.349 . S
C811 C809 1.327 . S
C811 C827 1.429 . S
C811 H833 0.950 . S
C812 H808 0.949 . S
C812 C820 1.574 . S
C812 C828 1.368 . S
H813 C821 0.950 . S
H814 C819 0.950 . S
H815 C820 0.949 . S
H816 C822 0.950 . S
H817 C823 0.950 . S
H818 C824 0.949 . S
C819 H814 0.950 . S
C819 C821 1.327 . S
C819 C825 1.429 . S
C820 C812 1.574 . S
C820 H815 0.949 . S
C820 C826 1.368 . S
C821 C805 1.349 . S
C821 H813 0.950 . S
C821 C819 1.327 . S
C822 C810 1.349 . S
C822 H816 0.950 . S
C822 C823 1.327 . S
C823 H817 0.950 . S
C823 C822 1.327 . S
C823 C827 1.429 . S
C824 C807 1.574 . S
C824 H818 0.949 . S
C824 C828 1.368 . S
C825 C806 1.429 . S
C825 C819 1.429 . S
C825 C826 1.523 . S
C826 C807 1.368 . S
C826 C820 1.368 . S
C826 C825 1.523 . S
C827 C811 1.429 . S
C827 C823 1.429 . S
C827 C828 1.523 . S
C828 C812 1.368 . S
C828 C824 1.368 . S
C828 C827 1.523 . S
H829 C804 0.950 . S
H830 C806 0.950 . S
H831 C807 0.949 . S
H832 C809 0.950 . S
H833 C811 0.950 . S
C834 C835 1.349 . S
C834 C836 1.327 . S
C834 H859 0.950 . S
C835 C834 1.349 . S
C835 C851 1.349 . S
C836 C834 1.327 . S
C836 C855 1.429 . S
C836 H860 0.950 . S
C837 C854 1.574 . S
C837 C856 1.368 . S
C837 H861 0.949 . S
H838 C842 0.949 . S
C839 C840 1.349 . S
C839 C841 1.327 . S
C839 H862 0.950 . S
C840 C839 1.349 . S
C840 C852 1.349 . S
C841 C839 1.327 . S
C841 C857 1.429 . S
C841 H863 0.950 . S
C842 H838 0.949 . S
C842 C850 1.574 . S
C842 C858 1.368 . S
H843 C851 0.950 . S
H844 C849 0.950 . S
H845 C850 0.949 . S
H846 C852 0.950 . S
H847 C853 0.950 . S
H848 C854 0.949 . S
C849 H844 0.950 . S
C849 C851 1.327 . S
C849 C855 1.429 . S
C850 C842 1.574 . S
C850 H845 0.949 . S
C850 C856 1.368 . S
C851 C835 1.349 . S
C851 H843 0.950 . S
C851 C849 1.327 . S
C852 C840 1.349 . S
C852 H846 0.950 . S
C852 C853 1.327 . S
C853 H847 0.950 . S
C853 C852 1.327 . S
C853 C857 1.429 . S
C854 C837 1.574 . S
C854 H848 0.949 . S
C854 C858 1.368 . S
C855 C836 1.429 . S
C855 C849 1.429 . S
C855 C856 1.523 . S
C856 C837 1.368 . S
C856 C850 1.368 . S
C856 C855 1.523 . S
C857 C841 1.429 . S
C857 C853 1.429 . S
C857 C858 1.523 . S
C858 C842 1.368 . S
C858 C854 1.368 . S
C858 C857 1.523 . S
H859 C834 0.950 . S
H860 C836 0.950 . S
H861 C837 0.949 . S
H862 C839 0.950 . S
H863 C841 0.950 . S
C265 C219 1.490 . S
C270 C18 1.526 . S
C295 C252 1.489 . S
C300 C51 1.524 . S
C325 C153 1.490 . S
C330 C84 1.526 . S
C355 C186 1.489 . S
C360 C117 1.524 . S
C385 C87 1.489 . S
C390 C150 1.525 . S
C415 C120 1.489 . S
C420 C183 1.525 . S
C445 C21 1.489 . S
C450 C216 1.525 . S
C475 C249 1.525 . S
C480 C54 1.489 . S
C505 C7 1.158 . S
C510 C73 1.158 . S
C535 C106 1.158 . S
C540 C40 1.158 . S
C565 C205 1.158 . S
C570 C139 1.158 . S
C595 C172 1.158 . S
C600 C238 1.158 . S
C625 N13 1.876 . S
C630 N244 1.876 . S
C655 N145 1.876 . S
C660 N46 1.876 . S
C685 N178 1.876 . S
C690 N79 1.876 . S
C715 N211 1.876 . S
C720 N112 1.876 . S
C745 N68 1.402 . S
C750 N167 1.402 . S
C775 N101 1.402 . S
C780 N200 1.402 . S
C805 N233 1.402 . S
C810 N2 1.402 . S
C835 N134 1.402 . S
C840 N35 1.402 . S
