# Generated by pormake.
# Topology afw, (4)-cn, num edge types: 1
# Building blocks:
#     Node 0, Type 0, BuildingBlock: AZAVOO_clean_sbu_0, # of connection points: 4
#     Node 1, Type 0, BuildingBlock: AZAVOO_clean_sbu_0, # of connection points: 4
#     Node 2, Type 0, BuildingBlock: AZAVOO_clean_sbu_0, # of connection points: 4
#     Node 3, Type 0, BuildingBlock: AZAVOO_clean_sbu_0, # of connection points: 4
#     Node 4, Type 0, BuildingBlock: AZAVOO_clean_sbu_0, # of connection points: 4
#     Node 5, Type 0, BuildingBlock: AZAVOO_clean_sbu_0, # of connection points: 4
#     Node 6, Type 0, BuildingBlock: AZAVOO_clean_sbu_0, # of connection points: 4
#     Node 7, Type 0, BuildingBlock: AZAVOO_clean_sbu_0, # of connection points: 4
#     Node 8, Type 0, BuildingBlock: AZAVOO_clean_sbu_0, # of connection points: 4
#     Edge 9, Type (0, 0), BuildingBlock: FUNLAD_clean_linker_0, # of connection points: 2
#     Edge 10, Type (0, 0), BuildingBlock: FUNLAD_clean_linker_0, # of connection points: 2
#     Edge 11, Type (0, 0), BuildingBlock: FUNLAD_clean_linker_0, # of connection points: 2
#     Edge 12, Type (0, 0), BuildingBlock: FUNLAD_clean_linker_0, # of connection points: 2
#     Edge 13, Type (0, 0), BuildingBlock: FUNLAD_clean_linker_0, # of connection points: 2
#     Edge 14, Type (0, 0), BuildingBlock: FUNLAD_clean_linker_0, # of connection points: 2
#     Edge 15, Type (0, 0), BuildingBlock: FUNLAD_clean_linker_0, # of connection points: 2
#     Edge 16, Type (0, 0), BuildingBlock: FUNLAD_clean_linker_0, # of connection points: 2
#     Edge 17, Type (0, 0), BuildingBlock: FUNLAD_clean_linker_0, # of connection points: 2
#     Edge 18, Type (0, 0), BuildingBlock: FUNLAD_clean_linker_0, # of connection points: 2
#     Edge 19, Type (0, 0), BuildingBlock: FUNLAD_clean_linker_0, # of connection points: 2
#     Edge 20, Type (0, 0), BuildingBlock: FUNLAD_clean_linker_0, # of connection points: 2
#     Edge 21, Type (0, 0), BuildingBlock: FUNLAD_clean_linker_0, # of connection points: 2
#     Edge 22, Type (0, 0), BuildingBlock: FUNLAD_clean_linker_0, # of connection points: 2
#     Edge 23, Type (0, 0), BuildingBlock: FUNLAD_clean_linker_0, # of connection points: 2
#     Edge 24, Type (0, 0), BuildingBlock: FUNLAD_clean_linker_0, # of connection points: 2
#     Edge 25, Type (0, 0), BuildingBlock: FUNLAD_clean_linker_0, # of connection points: 2
#     Edge 26, Type (0, 0), BuildingBlock: FUNLAD_clean_linker_0, # of connection points: 2
# Relax obj value: 0.307
# Max RMSD: 0.280
# Mean RMSD: 0.260
data_MOF--net-afw--node1-AZAVOO_clean_sbu_0--edge1-FUNLAD_clean_linker_0
_symmetry_space_group_name_H-M    P1
_symmetry_Int_Tables_number       1
_symmetry_cell_setting            triclinic
loop_
_symmetry_equiv_pos_as_xyz
'x, y, z'
_cell_length_a     46.186426
_cell_length_b     44.05187
_cell_length_c     42.485362
_cell_angle_alpha  90.005026
_cell_angle_beta   90.710977
_cell_angle_gamma 119.9185
loop_
_atom_site_label
_atom_site_type_symbol
_atom_site_fract_x
_atom_site_fract_y
_atom_site_fract_z
_atom_type_partial_charge
Mg0 Mg 0.01869 0.26305 0.03045 0.0
O1 O 0.97755 0.20592 0.02553 0.0
O2 O 0.92865 0.20336 0.0168 0.0
Mg3 Mg 0.93861 0.25977 0.01709 0.0
C4 C 0.94609 0.18845 0.02046 0.0
C5 C 0.05762 0.22429 0.04496 0.0
O6 O 0.03572 0.21305 0.0677 0.0
O7 O 0.01687 0.27053 0.9777 0.0
O8 O 0.96913 0.27147 0.97186 0.0
O9 O 0.00983 0.26235 0.08207 0.0
O10 O 0.98423 0.27683 0.04588 0.0
C11 C 0.99584 0.27412 0.96061 0.0
C12 C 0.98795 0.27157 0.07506 0.0
O13 O 0.05751 0.24591 0.02523 0.0
Mg14 Mg 0.80856 0.80278 0.96112 0.0
O15 O 0.81201 0.85427 0.97627 0.0
O16 O 0.76146 0.84909 0.97359 0.0
Mg17 Mg 0.72512 0.79353 0.95593 0.0
C18 C 0.79275 0.867 0.97958 0.0
C19 C 0.88346 0.85129 0.96693 0.0
O20 O 0.87365 0.86595 0.94561 0.0
O21 O 0.78481 0.77743 0.0079 0.0
O22 O 0.73358 0.76973 0.00053 0.0
O23 O 0.81566 0.81922 0.91063 0.0
O24 O 0.76655 0.79098 0.93344 0.0
C25 C 0.75477 0.76564 0.01686 0.0
C26 C 0.78364 0.80618 0.90886 0.0
O27 O 0.86166 0.82313 0.97977 0.0
Mg28 Mg 0.2571 0.04079 0.01205 0.0
O29 O 0.24313 0.08351 0.01117 0.0
O30 O 0.28756 0.13464 -0.00093 0.0
Mg31 Mg 0.33127 0.12416 -0.00636 0.0
C32 C 0.25671 0.11622 0.00588 0.0
C33 C 0.18306 0.99735 0.03363 0.0
O34 O 0.19623 0.01742 0.05862 0.0
O35 O 0.2594 0.04079 0.95891 0.0
O36 O 0.30694 0.09031 0.94911 0.0
O37 O 0.27152 0.05137 0.0626 0.0
O38 O 0.30646 0.07703 0.02353 0.0
C39 C 0.28144 0.06173 0.93983 0.0
C40 C 0.30137 0.07355 0.05337 0.0
O41 O 0.20179 0.00031 0.01078 0.0
Mg42 Mg 0.56621 0.50892 0.26247 0.0
O43 O 0.61865 0.52755 0.28201 0.0
O44 O 0.64855 0.58602 0.28249 0.0
Mg45 Mg 0.61357 0.60504 0.26368 0.0
C46 C 0.64573 0.5561 0.28773 0.0
C47 C 0.52353 0.42691 0.2745 0.0
O48 O 0.50049 0.42935 0.25806 0.0
O49 O 0.55216 0.52339 0.30907 0.0
O50 O 0.58067 0.5818 0.30681 0.0
O51 O 0.58459 0.5102 0.21384 0.0
O52 O 0.58535 0.55548 0.23726 0.0
C53 C 0.56054 0.55342 0.32072 0.0
C54 C 0.5939 0.54321 0.21384 0.0
O55 O 0.55134 0.45437 0.28015 0.0
Mg56 Mg 0.52498 0.08985 0.2999 0.0
O57 O 0.50561 0.1282 0.30786 0.0
O58 O 0.45102 0.10091 0.29609 0.0
Mg59 Mg 0.4347 0.04385 0.28468 0.0
C60 C 0.47809 0.12826 0.30458 0.0
C61 C 0.59979 0.12572 0.31613 0.0
O62 O 0.59542 0.09977 0.29769 0.0
O63 O 0.50313 0.06329 0.34666 0.0
O64 O 0.44857 0.03629 0.33488 0.0
O65 O 0.53124 0.10553 0.24943 0.0
O66 O 0.48553 0.06096 0.26882 0.0
C67 C 0.47261 0.04383 0.35428 0.0
C68 C 0.50025 0.08154 0.24565 0.0
O69 O 0.57463 0.12874 0.32293 0.0
Mg70 Mg 0.91747 0.47086 0.30324 0.0
O71 O 0.87709 0.41764 0.32134 0.0
O72 O 0.8986 0.38219 0.32468 0.0
Mg73 Mg 0.95285 0.41278 0.30825 0.0
C74 C 0.87431 0.388 0.3278 0.0
C75 C 0.88963 0.52146 0.30193 0.0
O76 O 0.9123 0.53463 0.2799 0.0
O77 O 0.94343 0.48384 0.35135 0.0
O78 O 0.96742 0.45043 0.35016 0.0
O79 O 0.90134 0.45133 0.25392 0.0
O80 O 0.94035 0.44678 0.28057 0.0
C81 C 0.96243 0.47344 0.36331 0.0
C82 C 0.92175 0.43924 0.25575 0.0
O83 O 0.88578 0.49475 0.31688 0.0
Mg84 Mg 0.3913 0.92155 0.69125 0.0
O85 O 0.34385 0.86788 0.68898 0.0
O86 O 0.29979 0.87443 0.6787 0.0
Mg87 Mg 0.31985 0.93326 0.67287 0.0
C88 C 0.31251 0.85507 0.68453 0.0
C89 C 0.41731 0.86913 0.70621 0.0
O90 O 0.39401 0.85845 0.72762 0.0
O91 O 0.39137 0.92553 0.63814 0.0
O92 O 0.34807 0.93367 0.62827 0.0
O93 O 0.38232 0.92566 0.74204 0.0
O94 O 0.36327 0.94473 0.70329 0.0
C95 C 0.37272 0.93057 0.619 0.0
C96 C 0.36441 0.93926 0.73291 0.0
O97 O 0.42244 0.89466 0.68866 0.0
Mg98 Mg 0.12442 0.46297 0.65384 0.0
O99 O 0.13506 0.51782 0.66741 0.0
O100 O 0.08801 0.5202 0.6633 0.0
Mg101 Mg 0.04671 0.46553 0.64792 0.0
C102 C 0.11929 0.53467 0.66929 0.0
C103 C 0.18353 0.45352 0.67935 0.0
O104 O 0.16295 0.42074 0.67135 0.0
O105 O 0.09913 0.44131 0.70002 0.0
O106 O 0.05094 0.44125 0.69481 0.0
O107 O 0.13516 0.4803 0.60455 0.0
O108 O 0.08478 0.45662 0.62532 0.0
C109 C 0.07079 0.43444 0.71052 0.0
C110 C 0.10409 0.47201 0.60188 0.0
O111 O 0.17462 0.47622 0.67509 0.0
Mg112 Mg 0.55175 0.61309 0.6652 0.0
O113 O 0.53858 0.65688 0.66899 0.0
O114 O 0.58238 0.70713 0.65353 0.0
Mg115 Mg 0.62216 0.69472 0.63687 0.0
C116 C 0.55283 0.68985 0.6643 0.0
C117 C 0.48254 0.57356 0.6974 0.0
O118 O 0.49955 0.59723 0.71919 0.0
O119 O 0.54327 0.61047 0.61255 0.0
O120 O 0.58663 0.66089 0.59664 0.0
O121 O 0.57413 0.6272 0.71296 0.0
O122 O 0.60232 0.65 0.66925 0.0
C123 C 0.55983 0.63196 0.59087 0.0
C124 C 0.60137 0.65011 0.69954 0.0
O125 O 0.49721 0.57294 0.67252 0.0
C126 C 0.20153 0.11266 0.01426 0.0
C127 C 0.23583 0.13303 0.00797 0.0
C128 C 0.18167 0.12816 0.01673 0.0
C129 C 0.19566 0.16457 0.0133 0.0
C130 C 0.22975 0.18486 0.00634 0.0
C131 C 0.24969 0.16932 0.00383 0.0
C132 C 0.17517 0.18189 0.01599 0.0
C133 C 0.14722 0.16859 0.03328 0.0
C134 C 0.1257 0.18471 0.03612 0.0
C135 C 0.10311 0.17422 0.06105 0.0
C136 C 0.08132 0.18737 0.06408 0.0
C137 C 0.08146 0.21124 0.04208 0.0
H138 H 0.14222 0.21677 -0.00601 0.0
C139 C 0.10409 0.22188 0.01711 0.0
C140 C 0.12592 0.20869 0.01406 0.0
H141 H 0.10466 0.24006 -0.00038 0.0
H142 H 0.18985 0.08456 0.0172 0.0
H143 H 0.15527 0.11134 0.02087 0.0
H144 H 0.24109 0.21289 0.00319 0.0
H145 H 0.27596 0.18578 -0.00122 0.0
H146 H 0.18433 0.20697 0.00449 0.0
H147 H 0.14009 0.1452 0.04706 0.0
H148 H 0.10218 0.15561 0.07827 0.0
H149 H 0.06418 0.17855 0.08358 0.0
C150 C 0.84169 0.924 -0.00261 0.0
C151 C 0.80753 0.90412 -0.0105 0.0
C152 C 0.85616 0.95949 0.00507 0.0
C153 C 0.83684 0.9761 0.00472 0.0
C154 C 0.80249 0.95595 -0.00206 0.0
C155 C 0.78798 0.9204 -0.00968 0.0
C156 C 0.85147 0.0142 0.0112 0.0
C157 C 0.88401 0.03779 0.00706 0.0
C158 C 0.89872 0.07614 0.01189 0.0
C159 C 0.93329 0.09655 0.01725 0.0
C160 C 0.94856 0.13288 0.02051 0.0
C161 C 0.92959 0.14976 0.01815 0.0
H162 H 0.8531 0.07839 0.00461 0.0
C163 C 0.89493 0.12934 0.01283 0.0
C164 C 0.87964 0.09295 0.00967 0.0
H165 H 0.87958 0.14148 0.01069 0.0
H166 H 0.85744 0.91223 -0.00254 0.0
H167 H 0.88241 0.97358 0.01141 0.0
H168 H 0.78692 0.96793 -0.00215 0.0
H169 H 0.76155 0.90587 0.98455 0.0
H170 H 0.83444 0.02299 0.0186 0.0
H171 H 0.90101 0.029 -0.00043 0.0
H172 H 0.94865 0.08436 0.01884 0.0
H173 H 0.97533 0.14772 0.02452 0.0
C174 C 0.93072 0.85392 -0.0008 0.0
C175 C 0.91945 0.86679 0.97447 0.0
C176 C 0.96499 0.86858 0.00549 0.0
C177 C 0.9885 0.89625 0.98702 0.0
C178 C 0.97713 0.90884 0.96229 0.0
C179 C 0.94305 0.89451 0.95622 0.0
C180 C 0.02507 0.91206 -0.0081 0.0
C181 C 0.03964 0.91328 0.01987 0.0
C182 C 0.07652 0.93229 0.02399 0.0
C183 C 0.09079 0.94986 0.05246 0.0
C184 C 0.12549 0.97045 0.05592 0.0
C185 C 0.14655 0.97344 0.03106 0.0
H186 H 0.08749 0.91978 0.97777 0.0
C187 C 0.13227 0.95439 0.00314 0.0
C188 C 0.09764 0.93398 -0.00035 0.0
H189 H 0.14778 0.95574 0.98367 0.0
H190 H 0.91312 0.83246 0.01357 0.0
H191 H 0.97291 0.85769 0.02431 0.0
H192 H 0.9947 0.93001 0.94761 0.0
H193 H 0.93527 0.90498 0.9369 0.0
H194 H 0.04073 0.92559 0.97195 0.0
H195 H 0.02446 0.90303 0.04071 0.0
H196 H 0.07505 0.94863 0.07168 0.0
H197 H 0.13572 0.98455 0.07785 0.0
C198 C 0.843 0.5218 0.33109 0.0
C199 C 0.86688 0.53545 0.3072 0.0
C200 C 0.81933 0.53252 0.33404 0.0
C201 C 0.81881 0.55683 0.31284 0.0
C202 C 0.84392 0.57195 0.29021 0.0
C203 C 0.86768 0.56135 0.28735 0.0
C204 C 0.79169 0.56571 0.3124 0.0
C205 C 0.76068 0.54364 0.32275 0.0
C206 C 0.73157 0.54858 0.31655 0.0
C207 C 0.69961 0.51882 0.31578 0.0
C208 C 0.67171 0.52145 0.30721 0.0
C209 C 0.67505 0.55407 0.29945 0.0
H210 H 0.75886 0.60527 0.31168 0.0
C211 C 0.70682 0.5842 0.30177 0.0
C212 C 0.73482 0.58153 0.31028 0.0
H213 H 0.71022 0.60979 0.29633 0.0
H214 H 0.84213 0.50228 0.34716 0.0
H215 H 0.80131 0.52132 0.35268 0.0
H216 H 0.8444 0.59105 0.27383 0.0
H217 H 0.88596 0.57266 0.26889 0.0
H218 H 0.79645 0.58911 0.29974 0.0
H219 H 0.75529 0.51881 0.33296 0.0
H220 H 0.69628 0.49316 0.32083 0.0
H221 H 0.64759 0.49771 0.30607 0.0
C222 C 0.50693 0.19202 0.31926 0.0
C223 C 0.47812 0.16174 0.30842 0.0
C224 C 0.50804 0.22432 0.31999 0.0
C225 C 0.48043 0.22716 0.3095 0.0
C226 C 0.45113 0.19659 0.30016 0.0
C227 C 0.44996 0.16428 0.29955 0.0
C228 C 0.48131 0.26135 0.30716 0.0
C229 C 0.50984 0.29234 0.30488 0.0
C230 C 0.51112 0.32632 0.2993 0.0
C231 C 0.54068 0.35734 0.30709 0.0
C232 C 0.54427 0.38994 0.29989 0.0
C233 C 0.51843 0.39234 0.28436 0.0
H234 H 0.46202 0.30545 0.27716 0.0
C235 C 0.48853 0.36136 0.27704 0.0
C236 C 0.48489 0.32866 0.28437 0.0
H237 H 0.46821 0.36228 0.26495 0.0
H238 H 0.52891 0.19095 0.32675 0.0
H239 H 0.53068 0.24682 0.32868 0.0
H240 H 0.42934 0.19785 0.29233 0.0
H241 H 0.42726 0.14149 0.29122 0.0
H242 H 0.45747 0.26057 0.30566 0.0
H243 H 0.53372 0.29326 0.30639 0.0
H244 H 0.56135 0.35636 0.31842 0.0
H245 H 0.56766 0.41326 0.30589 0.0
C246 C 0.63908 0.18174 0.34442 0.0
C247 C 0.63388 0.15278 0.32617 0.0
C248 C 0.67149 0.20885 0.35131 0.0
C249 C 0.69939 0.20767 0.3398 0.0
C250 C 0.69408 0.17787 0.32295 0.0
C251 C 0.66175 0.15078 0.31613 0.0
C252 C 0.73429 0.23718 0.34369 0.0
C253 C 0.74217 0.27061 0.34927 0.0
C254 C 0.7768 0.30088 0.34735 0.0
C255 C 0.78108 0.33417 0.34119 0.0
C256 C 0.81284 0.36275 0.33599 0.0
C257 C 0.84119 0.35873 0.33694 0.0
H258 H 0.80344 0.2725 0.3562 0.0
C259 C 0.83715 0.32585 0.34487 0.0
C260 C 0.80536 0.29728 0.3502 0.0
H261 H 0.85849 0.32194 0.34635 0.0
H262 H 0.61812 0.18383 0.3529 0.0
H263 H 0.67436 0.23065 0.36541 0.0
H264 H 0.71504 0.17598 0.31409 0.0
H265 H 0.65868 0.12871 0.30225 0.0
H266 H 0.75401 0.23147 0.33843 0.0
H267 H 0.72234 0.27677 0.35206 0.0
H268 H 0.75963 0.33789 0.33924 0.0
H269 H 0.81497 0.38773 0.33022 0.0
C270 C 0.43085 0.82227 0.72053 0.0
C271 C 0.4364 0.85072 0.70148 0.0
C272 C 0.44823 0.8043 0.71536 0.0
C273 C 0.47139 0.81426 0.6908 0.0
C274 C 0.47729 0.84308 0.6722 0.0
C275 C 0.45998 0.86105 0.67739 0.0
C276 C 0.49053 0.79607 0.68411 0.0
C277 C 0.48143 0.76336 0.69375 0.0
C278 C 0.50044 0.74523 0.68613 0.0
C279 C 0.48415 0.70853 0.68781 0.0
C280 C 0.50104 0.69047 0.68075 0.0
C281 C 0.53475 0.70879 0.67189 0.0
H282 H 0.54838 0.79189 0.67744 0.0
C283 C 0.55121 0.74556 0.67067 0.0
C284 C 0.53439 0.76359 0.6779 0.0
H285 H 0.5773 0.76058 0.66441 0.0
H286 H 0.41303 0.81382 0.73946 0.0
H287 H 0.44364 0.783 0.73095 0.0
H288 H 0.49517 0.85159 0.65331 0.0
H289 H 0.46496 0.8829 0.66231 0.0
H290 H 0.5121 0.8098 0.66916 0.0
H291 H 0.45828 0.74836 0.70637 0.0
H292 H 0.45813 0.69369 0.69439 0.0
H293 H 0.4876 0.66215 0.68211 0.0
C294 C 0.25545 0.80141 0.68371 0.0
C295 C 0.29031 0.81662 0.68682 0.0
C296 C 0.2346 0.76516 0.68625 0.0
C297 C 0.24822 0.74325 0.69176 0.0
C298 C 0.28301 0.75857 0.69526 0.0
C299 C 0.30381 0.79474 0.69273 0.0
C300 C 0.22741 0.70448 0.69419 0.0
C301 C 0.19602 0.68559 0.6825 0.0
C302 C 0.17663 0.6466 0.68233 0.0
C303 C 0.14179 0.6297 0.67815 0.0
C304 C 0.12291 0.59324 0.67515 0.0
C305 C 0.13853 0.57283 0.67602 0.0
H306 H 0.21897 0.63782 0.6862 0.0
C307 C 0.17331 0.58966 0.68098 0.0
C308 C 0.19216 0.62607 0.68395 0.0
H309 H 0.18625 0.57485 0.68159 0.0
H310 H 0.24416 0.8175 0.67951 0.0
H311 H 0.20793 0.75475 0.68432 0.0
H312 H 0.29424 0.74244 0.69967 0.0
H313 H 0.33053 0.80548 0.6954 0.0
H314 H 0.2392 0.69108 0.70516 0.0
H315 H 0.18395 0.69883 0.67181 0.0
H316 H 0.12916 0.64481 0.67663 0.0
H317 H 0.09619 0.58121 0.67128 0.0
C318 C 0.23005 0.44129 0.69136 0.0
C319 C 0.21758 0.46459 0.69135 0.0
C320 C 0.26323 0.45287 0.70023 0.0
C321 C 0.28453 0.48802 0.70922 0.0
C322 C 0.27149 0.5107 0.71078 0.0
C323 C 0.23846 0.49922 0.70178 0.0
C324 C 0.3207 0.50255 0.71586 0.0
C325 C 0.33886 0.48998 0.70235 0.0
C326 C 0.37595 0.50901 0.70353 0.0
C327 C 0.39309 0.50512 0.67822 0.0
C328 C 0.42782 0.52538 0.67665 0.0
C329 C 0.44618 0.54977 0.70056 0.0
H330 H 0.38223 0.5348 0.74879 0.0
C331 C 0.42923 0.55228 0.72678 0.0
C332 C 0.39446 0.53202 0.72833 0.0
H333 H 0.44271 0.57045 0.74583 0.0
H334 H 0.21444 0.41433 0.68383 0.0
H335 H 0.2721 0.43431 0.69975 0.0
H336 H 0.28723 0.5378 0.71793 0.0
H337 H 0.22952 0.51775 0.70242 0.0
H338 H 0.33333 0.52694 0.72913 0.0
H339 H 0.32664 0.46747 0.68665 0.0
H340 H 0.37948 0.48731 0.65898 0.0
H341 H 0.44014 0.52253 0.65627 0.0
C342 C 0.98164 0.29024 0.90853 0.0
C343 C 0.00401 0.2851 0.92745 0.0
C344 C 0.991 0.30524 0.87882 0.0
C345 C 0.02304 0.3156 0.86742 0.0
C346 C 0.04455 0.30834 0.88537 0.0
C347 C 0.03522 0.29338 0.91518 0.0
C348 C 0.03502 0.33466 0.83734 0.0
C349 C 0.02449 0.35617 0.82606 0.0
C350 C 0.03736 0.37689 0.79688 0.0
C351 C 0.01734 0.38768 0.7808 0.0
C352 C 0.02836 0.40693 0.75307 0.0
C353 C 0.05987 0.41612 0.74099 0.0
H354 H 0.08605 0.3804 0.79766 0.0
C355 C 0.08036 0.40628 0.75767 0.0
C356 C 0.06929 0.38696 0.78533 0.0
H357 H 0.10493 0.4132 0.74925 0.0
H358 H 0.95716 0.28361 0.91697 0.0
H359 H 0.97316 0.30897 0.86505 0.0
H360 H 0.06916 0.31554 0.87687 0.0
H361 H 0.05297 0.2895 0.92899 0.0
H362 H 0.05413 0.332 0.8251 0.0
H363 H 0.00551 0.35885 0.83855 0.0
H364 H 0.99283 0.38069 0.78945 0.0
H365 H 0.01198 0.41421 0.74093 0.0
C366 C 0.78166 0.80768 0.85013 0.0
C367 C 0.76686 0.80635 0.87917 0.0
C368 C 0.76298 0.80036 0.82216 0.0
C369 C 0.72928 0.79181 0.82295 0.0
C370 C 0.71582 0.79418 0.85162 0.0
C371 C 0.7343 0.80107 0.87948 0.0
C372 C 0.70605 0.77626 0.79571 0.0
C373 C 0.70995 0.75692 0.77344 0.0
C374 C 0.68155 0.73137 0.75373 0.0
C375 C 0.6872 0.72379 0.72313 0.0
C376 C 0.66102 0.69759 0.70525 0.0
C377 C 0.62902 0.67793 0.7181 0.0
H378 H 0.64448 0.71616 0.79038 0.0
C379 C 0.62347 0.68533 0.74882 0.0
C380 C 0.64942 0.71184 0.76643 0.0
H381 H 0.59905 0.67063 0.75931 0.0
H382 H 0.80693 0.81218 0.84916 0.0
H383 H 0.7746 0.80007 0.8003 0.0
H384 H 0.6901 0.78827 0.85284 0.0
H385 H 0.72246 0.80077 0.90131 0.0
H386 H 0.6824 0.77596 0.79677 0.0
H387 H 0.73337 0.75697 0.77136 0.0
H388 H 0.71189 0.73806 0.7131 0.0
H389 H 0.66599 0.69228 0.68164 0.0
C390 C 0.34206 0.93655 0.78684 0.0
C391 C 0.34513 0.94746 0.75542 0.0
C392 C 0.32514 0.94587 0.80835 0.0
C393 C 0.31146 0.9667 0.79901 0.0
C394 C 0.31361 0.9767 0.76733 0.0
C395 C 0.33028 0.96715 0.74577 0.0
C396 C 0.29605 0.97829 0.82313 0.0
C397 C 0.29677 0.00923 0.82176 0.0
C398 C 0.2879 0.02352 0.84921 0.0
C399 C 0.30728 0.05936 0.85627 0.0
C400 C 0.30366 0.07249 0.88498 0.0
C401 C 0.28018 0.05003 0.90692 0.0
H402 H 0.24631 0.97412 0.86447 0.0
C403 C 0.25851 0.01484 0.89836 0.0
C404 C 0.2624 0.00167 0.86981 0.0
H405 H 0.23983 0.99687 0.91448 0.0
H406 H 0.353 0.92112 0.79492 0.0
H407 H 0.32359 0.93761 0.8326 0.0
H408 H 0.30255 0.99194 0.75913 0.0
H409 H 0.33209 0.97584 0.72167 0.0
H410 H 0.28748 0.96279 0.84444 0.0
H411 H 0.30857 0.02662 0.80206 0.0
H412 H 0.32675 0.0768 0.8405 0.0
H413 H 0.32045 0.09984 0.89063 0.0
C414 C 0.48875 0.11317 0.20268 0.0
C415 C 0.48006 0.08196 0.21873 0.0
C416 C 0.4662 0.11474 0.18131 0.0
C417 C 0.43473 0.0849 0.17547 0.0
C418 C 0.42707 0.05337 0.19037 0.0
C419 C 0.4494 0.05191 0.21176 0.0
C420 C 0.4082 0.08532 0.15568 0.0
C421 C 0.41222 0.11176 0.13692 0.0
C422 C 0.38402 0.10831 0.11723 0.0
C423 C 0.38958 0.1194 0.08586 0.0
C424 C 0.36254 0.11034 0.06533 0.0
C425 C 0.32957 0.09038 0.07605 0.0
H426 H 0.34628 0.08369 0.15305 0.0
C427 C 0.32422 0.08248 0.1082 0.0
C428 C 0.35121 0.0914 0.12862 0.0
H429 H 0.29915 0.0676 0.11729 0.0
H430 H 0.51213 0.13684 0.20791 0.0
H431 H 0.47313 0.13965 0.17059 0.0
H432 H 0.40318 0.02989 0.18622 0.0
H433 H 0.44213 0.02746 0.22371 0.0
H434 H 0.38378 0.06174 0.15609 0.0
H435 H 0.43668 0.13452 0.13361 0.0
H436 H 0.4147 0.13297 0.07671 0.0
H437 H 0.3675 0.11713 0.04073 0.0
C438 C 0.94609 0.28854 0.09125 0.0
C439 C 0.96938 0.27818 0.09965 0.0
C440 C 0.93242 0.30025 0.11409 0.0
C441 C 0.94219 0.30234 0.14589 0.0
C442 C 0.96356 0.2895 0.15449 0.0
C443 C 0.97707 0.27756 0.13162 0.0
C444 C 0.93326 0.32028 0.17035 0.0
C445 C 0.92203 0.34265 0.16394 0.0
C446 C 0.92119 0.36637 0.18818 0.0
C447 C 0.89751 0.37742 0.18573 0.0
C448 C 0.89757 0.40125 0.20758 0.0
C449 C 0.9217 0.41481 0.23192 0.0
H450 H 0.96521 0.3738 0.214 0.0
C451 C 0.94588 0.40439 0.23376 0.0
C452 C 0.94561 0.38043 0.21224 0.0
H453 H 0.96541 0.41506 0.25162 0.0
H454 H 0.9393 0.289 0.06687 0.0
H455 H 0.91505 0.3085 0.10639 0.0
H456 H 0.97122 0.29035 0.17884 0.0
H457 H 0.99475 0.26948 0.13889 0.0
H458 H 0.9392 0.31746 0.19462 0.0
H459 H 0.91487 0.34544 0.14021 0.0
H460 H 0.87887 0.36747 0.16699 0.0
H461 H 0.87874 0.40896 0.20545 0.0
C462 C 0.64144 0.60049 0.19678 0.0
C463 C 0.61579 0.56654 0.18913 0.0
C464 C 0.66091 0.62347 0.17328 0.0
C465 C 0.65508 0.6129 0.14153 0.0
C466 C 0.63 0.57857 0.13396 0.0
C467 C 0.61077 0.55541 0.15761 0.0
C468 C 0.67229 0.63803 0.11579 0.0
C469 C 0.70251 0.66704 0.11909 0.0
C470 C 0.71643 0.69381 0.09408 0.0
C471 C 0.75087 0.7118 0.08828 0.0
C472 C 0.76384 0.73614 0.0638 0.0
C473 C 0.74258 0.74332 0.04519 0.0
H474 H 0.669 0.68966 0.08108 0.0
C475 C 0.70839 0.72659 0.05233 0.0
C476 C 0.69548 0.70211 0.07639 0.0
H477 H 0.69122 0.73163 0.03881 0.0
H478 H 0.64662 0.60945 0.22091 0.0
H479 H 0.67956 0.64986 0.18005 0.0
H480 H 0.62488 0.56985 0.10964 0.0
H481 H 0.59122 0.52927 0.15114 0.0
H482 H 0.65918 0.63261 0.09324 0.0
H483 H 0.71755 0.67117 0.14021 0.0
H484 H 0.76756 0.70625 0.10206 0.0
H485 H 0.79031 0.74869 0.05904 0.0
C486 C 0.0581 0.47277 0.57062 0.0
C487 C 0.09179 0.48175 0.57357 0.0
C488 C 0.04636 0.48089 0.54326 0.0
C489 C 0.06814 0.4981 0.51828 0.0
C490 C 0.10185 0.5074 0.52143 0.0
C491 C 0.11363 0.49953 0.54884 0.0
C492 C 0.05598 0.50311 0.48739 0.0
C493 C 0.02839 0.5059 0.48344 0.0
C494 C 0.01319 0.50421 0.45194 0.0
C495 C 0.979 0.49362 0.44987 0.0
C496 C 0.96252 0.4859 0.42059 0.0
C497 C 0.98007 0.48844 0.39314 0.0
H498 H 0.05781 0.52005 0.42408 0.0
C499 C 0.0146 0.50157 0.3949 0.0
C500 C 0.03117 0.51005 0.42392 0.0
H501 H 0.02861 0.50426 0.37379 0.0
H502 H 0.04055 0.45868 0.58906 0.0
H503 H 0.01999 0.47226 0.5413 0.0
H504 H 0.11904 0.52032 0.50239 0.0
H505 H 0.13974 0.50682 0.55037 0.0
H506 H 0.06985 0.50267 0.46719 0.0
H507 H 0.01484 0.50643 0.50395 0.0
H508 H 0.96461 0.48943 0.47099 0.0
H509 H 0.9358 0.4758 0.4196 0.0
C510 C 0.55464 0.58892 0.36322 0.0
C511 C 0.54811 0.55609 0.35194 0.0
C512 C 0.54626 0.59274 0.39375 0.0
C513 C 0.53079 0.56367 0.41384 0.0
C514 C 0.52319 0.53059 0.40222 0.0
C515 C 0.5316 0.52675 0.37151 0.0
C516 C 0.52603 0.5677 0.44782 0.0
C517 C 0.52641 0.59616 0.45995 0.0
C518 C 0.53133 0.6046 0.494 0.0
C519 C 0.55119 0.63978 0.50314 0.0
C520 C 0.55994 0.64873 0.5347 0.0
C521 C 0.54838 0.62267 0.55785 0.0
H522 H 0.50244 0.5513 0.51096 0.0
C523 C 0.52686 0.58759 0.54892 0.0
C524 C 0.51853 0.57858 0.51722 0.0
H525 H 0.51731 0.56695 0.56628 0.0
H526 H 0.56727 0.6121 0.3488 0.0
H527 H 0.55364 0.61894 0.4017 0.0
H528 H 0.51158 0.50781 0.41724 0.0
H529 H 0.52622 0.50108 0.36355 0.0
H530 H 0.52509 0.5478 0.46355 0.0
H531 H 0.5272 0.61615 0.44451 0.0
H532 H 0.56115 0.66031 0.48566 0.0
H533 H 0.57618 0.67604 0.54089 0.0
C534 C 0.41304 0.94318 0.57529 0.0
C535 C 0.38109 0.93525 0.58522 0.0
C536 C 0.42202 0.95101 0.54379 0.0
C537 C 0.39907 0.95076 0.5216 0.0
C538 C 0.36666 0.94108 0.53121 0.0
C539 C 0.35783 0.93373 0.56274 0.0
C540 C 0.40808 0.96107 0.48841 0.0
C541 C 0.43888 0.98596 0.47974 0.0
C542 C 0.44699 -9e-05 0.4472 0.0
C543 C 0.48054 0.01792 0.43787 0.0
C544 C 0.48912 0.03237 0.40776 0.0
C545 C 0.46425 0.02916 0.38639 0.0
H546 H 0.39627 0.98508 0.43235 0.0
C547 C 0.43077 0.01151 0.39591 0.0
C548 C 0.42225 0.99729 0.42592 0.0
H549 H 0.41095 0.00894 0.38027 0.0
H550 H 0.43149 0.94435 0.592 0.0
H551 H 0.4469 0.95733 0.53695 0.0
H552 H 0.34843 0.94033 0.51445 0.0
H553 H 0.3329 0.92735 0.56955 0.0
H554 H 0.38791 0.94932 0.47115 0.0
H555 H 0.45888 0.99748 0.49725 0.0
H556 H 0.50017 0.02077 0.45392 0.0
H557 H 0.51517 0.04589 0.40122 0.0
loop_
_geom_bond_atom_site_label_1
_geom_bond_atom_site_label_2
_geom_bond_distance
_geom_bond_site_symmetry_2
_ccdc_geom_bond_type
Mg0 O1 2.028 1_455 S
Mg0 O7 1.986 1_554 S
Mg0 O9 2.114 . S
Mg0 O10 2.251 1_455 S
Mg0 O13 2.010 . S
O1 Mg0 2.028 1_655 S
O1 C4 1.247 1_554 S
O2 Mg3 2.028 . S
O2 C4 1.250 . S
Mg3 O2 2.028 . S
Mg3 O8 2.032 . S
Mg3 O10 2.079 1_556 S
C4 O1 1.247 1_556 S
C4 O2 1.250 . S
C5 O6 1.264 . S
C5 O13 1.249 . S
O6 C5 1.264 . S
O7 Mg0 1.986 1_556 S
O7 C11 1.246 . S
O8 Mg3 2.032 . S
O8 C11 1.259 1_655 S
O9 Mg0 2.114 . S
O9 C12 1.268 . S
O10 Mg0 2.251 1_655 S
O10 Mg3 2.079 1_554 S
O10 C12 1.267 1_655 S
C11 O7 1.246 . S
C11 O8 1.259 1_455 S
C12 O9 1.268 . S
C12 O10 1.267 1_455 S
O13 Mg0 2.010 . S
O13 C5 1.249 . S
Mg14 O15 2.028 . S
Mg14 O21 1.986 . S
Mg14 O23 2.114 1_554 S
Mg14 O24 2.251 1_554 S
Mg14 O27 2.010 . S
O15 Mg14 2.028 . S
O15 C18 1.250 . S
O16 Mg17 2.028 . S
O16 C18 1.248 . S
Mg17 O16 2.028 . S
Mg17 O22 2.032 . S
Mg17 O24 2.079 1_554 S
C18 O15 1.250 . S
C18 O16 1.248 . S
C19 O20 1.264 . S
C19 O27 1.249 1_556 S
O20 C19 1.264 . S
O21 Mg14 1.986 . S
O21 C25 1.246 . S
O22 Mg17 2.032 . S
O22 C25 1.259 . S
O23 Mg14 2.114 1_556 S
O23 C26 1.252 . S
O24 Mg14 2.251 1_556 S
O24 Mg17 2.079 1_556 S
O24 C26 1.273 . S
C25 O21 1.246 . S
C25 O22 1.259 . S
C26 O23 1.252 . S
C26 O24 1.273 . S
O27 Mg14 2.010 . S
O27 C19 1.249 1_554 S
Mg28 O29 2.028 . S
Mg28 O35 1.986 1_544 S
Mg28 O37 2.114 . S
Mg28 O38 2.251 . S
Mg28 O41 2.010 1_545 S
O29 Mg28 2.028 . S
O29 C32 1.250 1_554 S
O30 Mg31 2.028 . S
O30 C32 1.248 . S
Mg31 O30 2.028 . S
Mg31 O36 2.032 . S
Mg31 O38 2.079 1_556 S
C32 O29 1.250 1_556 S
C32 O30 1.248 . S
C33 O34 1.264 . S
C33 O41 1.249 . S
O34 C33 1.264 . S
O35 Mg28 1.986 1_566 S
O35 C39 1.246 1_565 S
O36 Mg31 2.032 . S
O36 C39 1.259 . S
O37 Mg28 2.114 . S
O37 C40 1.252 . S
O38 Mg28 2.251 . S
O38 Mg31 2.079 1_554 S
O38 C40 1.273 . S
C39 O35 1.246 1_545 S
C39 O36 1.259 . S
C40 O37 1.252 . S
C40 O38 1.273 . S
O41 Mg28 2.010 1_565 S
O41 C33 1.249 . S
Mg42 O43 2.028 . S
Mg42 O49 1.986 . S
Mg42 O51 2.114 . S
Mg42 O52 2.251 . S
Mg42 O55 2.010 . S
O43 Mg42 2.028 . S
O43 C46 1.250 . S
O44 Mg45 2.028 . S
O44 C46 1.248 . S
Mg45 O44 2.028 . S
Mg45 O50 2.032 . S
Mg45 O52 2.079 . S
C46 O43 1.250 . S
C46 O44 1.248 . S
C47 O48 1.264 . S
C47 O55 1.249 . S
O48 C47 1.264 . S
O49 Mg42 1.986 . S
O49 C53 1.246 . S
O50 Mg45 2.032 . S
O50 C53 1.259 . S
O51 Mg42 2.114 . S
O51 C54 1.252 . S
O52 Mg42 2.251 . S
O52 Mg45 2.079 . S
O52 C54 1.273 . S
C53 O49 1.246 . S
C53 O50 1.259 . S
C54 O51 1.252 . S
C54 O52 1.273 . S
O55 Mg42 2.010 . S
O55 C47 1.249 . S
Mg56 O57 2.028 . S
Mg56 O63 1.986 . S
Mg56 O65 2.114 . S
Mg56 O66 2.251 . S
Mg56 O69 2.010 . S
O57 Mg56 2.028 . S
O57 C60 1.250 . S
O58 Mg59 2.028 . S
O58 C60 1.248 . S
Mg59 O58 2.028 . S
Mg59 O64 2.032 . S
Mg59 O66 2.079 . S
C60 O57 1.250 . S
C60 O58 1.248 . S
C61 O62 1.264 . S
C61 O69 1.249 . S
O62 C61 1.264 . S
O63 Mg56 1.986 . S
O63 C67 1.246 . S
O64 Mg59 2.032 . S
O64 C67 1.259 . S
O65 Mg56 2.114 . S
O65 C68 1.252 . S
O66 Mg56 2.251 . S
O66 Mg59 2.079 . S
O66 C68 1.273 . S
C67 O63 1.246 . S
C67 O64 1.259 . S
C68 O65 1.252 . S
C68 O66 1.273 . S
O69 Mg56 2.010 . S
O69 C61 1.249 . S
Mg70 O71 2.028 . S
Mg70 O77 1.986 . S
Mg70 O79 2.114 . S
Mg70 O80 2.251 . S
Mg70 O83 2.010 . S
O71 Mg70 2.028 . S
O71 C74 1.250 . S
O72 Mg73 2.028 . S
O72 C74 1.248 . S
Mg73 O72 2.028 . S
Mg73 O78 2.032 . S
Mg73 O80 2.079 . S
C74 O71 1.250 . S
C74 O72 1.248 . S
C75 O76 1.264 . S
C75 O83 1.249 . S
O76 C75 1.264 . S
O77 Mg70 1.986 . S
O77 C81 1.246 . S
O78 Mg73 2.032 . S
O78 C81 1.259 . S
O79 Mg70 2.114 . S
O79 C82 1.252 . S
O80 Mg70 2.251 . S
O80 Mg73 2.079 . S
O80 C82 1.273 . S
C81 O77 1.246 . S
C81 O78 1.259 . S
C82 O79 1.252 . S
C82 O80 1.273 . S
O83 Mg70 2.010 . S
O83 C75 1.249 . S
Mg84 O85 2.028 . S
Mg84 O91 1.986 . S
Mg84 O93 2.114 . S
Mg84 O94 2.251 . S
Mg84 O97 2.010 . S
O85 Mg84 2.028 . S
O85 C88 1.250 . S
O86 Mg87 2.028 . S
O86 C88 1.248 . S
Mg87 O86 2.028 . S
Mg87 O92 2.032 . S
Mg87 O94 2.079 . S
C88 O85 1.250 . S
C88 O86 1.248 . S
C89 O90 1.264 . S
C89 O97 1.249 . S
O90 C89 1.264 . S
O91 Mg84 1.986 . S
O91 C95 1.246 . S
O92 Mg87 2.032 . S
O92 C95 1.259 . S
O93 Mg84 2.114 . S
O93 C96 1.252 . S
O94 Mg84 2.251 . S
O94 Mg87 2.079 . S
O94 C96 1.273 . S
C95 O91 1.246 . S
C95 O92 1.259 . S
C96 O93 1.252 . S
C96 O94 1.273 . S
O97 Mg84 2.010 . S
O97 C89 1.249 . S
Mg98 O99 2.028 . S
Mg98 O105 1.986 . S
Mg98 O107 2.114 . S
Mg98 O108 2.251 . S
Mg98 O111 2.010 . S
O99 Mg98 2.028 . S
O99 C102 1.250 . S
O100 Mg101 2.028 . S
O100 C102 1.248 . S
Mg101 O100 2.028 . S
Mg101 O106 2.032 . S
Mg101 O108 2.079 . S
C102 O99 1.250 . S
C102 O100 1.248 . S
C103 O104 1.264 . S
C103 O111 1.249 . S
O104 C103 1.264 . S
O105 Mg98 1.986 . S
O105 C109 1.246 . S
O106 Mg101 2.032 . S
O106 C109 1.259 . S
O107 Mg98 2.114 . S
O107 C110 1.252 . S
O108 Mg98 2.251 . S
O108 Mg101 2.079 . S
O108 C110 1.273 . S
C109 O105 1.246 . S
C109 O106 1.259 . S
C110 O107 1.252 . S
C110 O108 1.273 . S
O111 Mg98 2.010 . S
O111 C103 1.249 . S
Mg112 O113 2.028 . S
Mg112 O119 1.986 . S
Mg112 O121 2.114 . S
Mg112 O122 2.251 . S
Mg112 O125 2.010 . S
O113 Mg112 2.028 . S
O113 C116 1.250 . S
O114 Mg115 2.028 . S
O114 C116 1.248 . S
Mg115 O114 2.028 . S
Mg115 O120 2.032 . S
Mg115 O122 2.079 . S
C116 O113 1.250 . S
C116 O114 1.248 . S
C117 O118 1.264 . S
C117 O125 1.249 . S
O118 C117 1.264 . S
O119 Mg112 1.986 . S
O119 C123 1.246 . S
O120 Mg115 2.032 . S
O120 C123 1.259 . S
O121 Mg112 2.114 . S
O121 C124 1.252 . S
O122 Mg112 2.251 . S
O122 Mg115 2.079 . S
O122 C124 1.273 . S
C123 O119 1.246 . S
C123 O120 1.259 . S
C124 O121 1.252 . S
C124 O122 1.273 . S
O125 Mg112 2.010 . S
O125 C117 1.249 . S
C126 C127 1.386 1_554 S
C126 C128 1.383 . S
C126 H142 0.951 . S
C127 C126 1.386 1_556 S
C127 C131 1.383 . S
C128 C126 1.383 . S
C128 C129 1.402 1_554 S
C128 H143 0.951 . S
C129 C128 1.402 1_556 S
C129 C130 1.375 . S
C129 C132 1.481 . S
C130 C129 1.375 . S
C130 C131 1.367 . S
C130 H144 0.951 . S
C131 C127 1.383 . S
C131 C130 1.367 . S
C131 H145 0.950 . S
C132 C129 1.481 . S
C132 C133 1.297 1_556 S
C132 H146 0.950 . S
C133 C132 1.297 1_554 S
C133 C134 1.479 . S
C133 H147 0.950 . S
C134 C133 1.479 . S
C134 C135 1.375 . S
C134 C140 1.404 1_554 S
C135 C134 1.375 . S
C135 C136 1.369 . S
C135 H148 0.950 . S
C136 C135 1.369 . S
C136 C137 1.392 . S
C136 H149 0.951 . S
C137 C136 1.392 . S
C137 C139 1.384 1_554 S
H138 C140 0.949 . S
C139 C137 1.384 1_556 S
C139 C140 1.385 . S
C139 H141 0.950 . S
C140 C134 1.404 1_556 S
C140 H138 0.949 . S
C140 C139 1.385 . S
H141 C139 0.950 . S
H142 C126 0.951 . S
H143 C128 0.951 . S
H144 C130 0.951 . S
H145 C131 0.950 . S
H146 C132 0.950 . S
H147 C133 0.950 . S
H148 C135 0.950 . S
H149 C136 0.951 . S
C150 C151 1.386 . S
C150 C152 1.388 . S
C150 H166 0.951 1_554 S
C151 C150 1.386 . S
C151 C155 1.383 . S
C152 C150 1.388 . S
C152 C153 1.411 . S
C152 H167 0.937 1_554 S
C153 C152 1.411 . S
C153 C154 1.375 . S
C153 C156 1.481 1_565 S
C154 C153 1.375 . S
C154 C155 1.367 . S
C154 H168 0.951 . S
C155 C151 1.383 . S
C155 C154 1.367 . S
C155 H169 0.950 . S
C156 C153 1.481 1_545 S
C156 C157 1.297 1_554 S
C156 H170 0.950 . S
C157 C156 1.297 1_556 S
C157 C158 1.479 . S
C157 H171 0.950 . S
C158 C157 1.479 . S
C158 C159 1.375 . S
C158 C164 1.403 1_556 S
C159 C158 1.375 . S
C159 C160 1.369 . S
C159 H172 0.950 . S
C160 C159 1.369 . S
C160 C161 1.392 . S
C160 H173 0.951 . S
C161 C160 1.392 . S
C161 C163 1.384 1_556 S
H162 C164 0.950 . S
C163 C161 1.384 1_554 S
C163 C164 1.385 . S
C163 H165 0.950 . S
C164 C158 1.403 1_554 S
C164 H162 0.950 . S
C164 C163 1.385 . S
H165 C163 0.950 . S
H166 C150 0.951 1_556 S
H167 C152 0.937 1_556 S
H168 C154 0.951 . S
H169 C155 0.950 . S
H170 C156 0.950 . S
H171 C157 0.950 . S
H172 C159 0.950 . S
H173 C160 0.951 . S
C174 C175 1.386 1_554 S
C174 C176 1.383 . S
C174 H190 0.951 . S
C175 C174 1.386 1_556 S
C175 C179 1.383 . S
C176 C174 1.383 . S
C176 C177 1.402 1_554 S
C176 H191 0.951 . S
C177 C176 1.402 1_556 S
C177 C178 1.375 . S
C177 C180 1.481 1_655 S
C178 C177 1.375 . S
C178 C179 1.367 . S
C178 H192 0.951 . S
C179 C175 1.383 . S
C179 C178 1.367 . S
C179 H193 0.950 . S
C180 C177 1.481 1_455 S
C180 C181 1.297 1_556 S
C180 H194 0.950 . S
C181 C180 1.297 1_554 S
C181 C182 1.479 . S
C181 H195 0.950 . S
C182 C181 1.479 . S
C182 C183 1.375 . S
C182 C188 1.404 1_554 S
C183 C182 1.375 . S
C183 C184 1.369 . S
C183 H196 0.950 . S
C184 C183 1.369 . S
C184 C185 1.392 . S
C184 H197 0.951 . S
C185 C184 1.392 . S
C185 C187 1.384 1_554 S
H186 C188 0.949 . S
C187 C185 1.384 1_556 S
C187 C188 1.385 . S
C187 H189 0.950 . S
C188 C182 1.404 1_556 S
C188 H186 0.949 . S
C188 C187 1.385 . S
H189 C187 0.950 . S
H190 C174 0.951 . S
H191 C176 0.951 . S
H192 C178 0.951 . S
H193 C179 0.950 . S
H194 C180 0.950 . S
H195 C181 0.950 . S
H196 C183 0.950 . S
H197 C184 0.951 . S
C198 C199 1.386 . S
C198 C200 1.383 . S
C198 H214 0.951 . S
C199 C198 1.386 . S
C199 C203 1.383 . S
C200 C198 1.383 . S
C200 C201 1.402 . S
C200 H215 0.951 . S
C201 C200 1.402 . S
C201 C202 1.375 . S
C201 C204 1.481 . S
C202 C201 1.375 . S
C202 C203 1.367 . S
C202 H216 0.951 . S
C203 C199 1.383 . S
C203 C202 1.367 . S
C203 H217 0.950 . S
C204 C201 1.481 . S
C204 C205 1.297 . S
C204 H218 0.950 . S
C205 C204 1.297 . S
C205 C206 1.479 . S
C205 H219 0.950 . S
C206 C205 1.479 . S
C206 C207 1.375 . S
C206 C212 1.404 . S
C207 C206 1.375 . S
C207 C208 1.369 . S
C207 H220 0.950 . S
C208 C207 1.369 . S
C208 C209 1.392 . S
C208 H221 0.951 . S
C209 C208 1.392 . S
C209 C211 1.384 . S
H210 C212 0.949 . S
C211 C209 1.384 . S
C211 C212 1.385 . S
C211 H213 0.950 . S
C212 C206 1.404 . S
C212 H210 0.949 . S
C212 C211 1.385 . S
H213 C211 0.950 . S
H214 C198 0.951 . S
H215 C200 0.951 . S
H216 C202 0.951 . S
H217 C203 0.950 . S
H218 C204 0.950 . S
H219 C205 0.950 . S
H220 C207 0.950 . S
H221 C208 0.951 . S
C222 C223 1.386 . S
C222 C224 1.383 . S
C222 H238 0.951 . S
C223 C222 1.386 . S
C223 C227 1.383 . S
C224 C222 1.383 . S
C224 C225 1.402 . S
C224 H239 0.951 . S
C225 C224 1.402 . S
C225 C226 1.375 . S
C225 C228 1.481 . S
C226 C225 1.375 . S
C226 C227 1.367 . S
C226 H240 0.951 . S
C227 C223 1.383 . S
C227 C226 1.367 . S
C227 H241 0.950 . S
C228 C225 1.481 . S
C228 C229 1.297 . S
C228 H242 0.950 . S
C229 C228 1.297 . S
C229 C230 1.479 . S
C229 H243 0.950 . S
C230 C229 1.479 . S
C230 C231 1.375 . S
C230 C236 1.404 . S
C231 C230 1.375 . S
C231 C232 1.369 . S
C231 H244 0.950 . S
C232 C231 1.369 . S
C232 C233 1.392 . S
C232 H245 0.951 . S
C233 C232 1.392 . S
C233 C235 1.384 . S
H234 C236 0.949 . S
C235 C233 1.384 . S
C235 C236 1.385 . S
C235 H237 0.950 . S
C236 C230 1.404 . S
C236 H234 0.949 . S
C236 C235 1.385 . S
H237 C235 0.950 . S
H238 C222 0.951 . S
H239 C224 0.951 . S
H240 C226 0.951 . S
H241 C227 0.950 . S
H242 C228 0.950 . S
H243 C229 0.950 . S
H244 C231 0.950 . S
H245 C232 0.951 . S
C246 C247 1.386 . S
C246 C248 1.383 . S
C246 H262 0.951 . S
C247 C246 1.386 . S
C247 C251 1.383 . S
C248 C246 1.383 . S
C248 C249 1.402 . S
C248 H263 0.951 . S
C249 C248 1.402 . S
C249 C250 1.375 . S
C249 C252 1.481 . S
C250 C249 1.375 . S
C250 C251 1.367 . S
C250 H264 0.951 . S
C251 C247 1.383 . S
C251 C250 1.367 . S
C251 H265 0.950 . S
C252 C249 1.481 . S
C252 C253 1.297 . S
C252 H266 0.950 . S
C253 C252 1.297 . S
C253 C254 1.479 . S
C253 H267 0.950 . S
C254 C253 1.479 . S
C254 C255 1.375 . S
C254 C260 1.404 . S
C255 C254 1.375 . S
C255 C256 1.369 . S
C255 H268 0.950 . S
C256 C255 1.369 . S
C256 C257 1.392 . S
C256 H269 0.951 . S
C257 C256 1.392 . S
C257 C259 1.384 . S
H258 C260 0.949 . S
C259 C257 1.384 . S
C259 C260 1.385 . S
C259 H261 0.950 . S
C260 C254 1.404 . S
C260 H258 0.949 . S
C260 C259 1.385 . S
H261 C259 0.950 . S
H262 C246 0.951 . S
H263 C248 0.951 . S
H264 C250 0.951 . S
H265 C251 0.950 . S
H266 C252 0.950 . S
H267 C253 0.950 . S
H268 C255 0.950 . S
H269 C256 0.951 . S
C270 C271 1.386 . S
C270 C272 1.383 . S
C270 H286 0.951 . S
C271 C270 1.386 . S
C271 C275 1.383 . S
C272 C270 1.383 . S
C272 C273 1.402 . S
C272 H287 0.951 . S
C273 C272 1.402 . S
C273 C274 1.375 . S
C273 C276 1.481 . S
C274 C273 1.375 . S
C274 C275 1.367 . S
C274 H288 0.951 . S
C275 C271 1.383 . S
C275 C274 1.367 . S
C275 H289 0.950 . S
C276 C273 1.481 . S
C276 C277 1.297 . S
C276 H290 0.950 . S
C277 C276 1.297 . S
C277 C278 1.479 . S
C277 H291 0.950 . S
C278 C277 1.479 . S
C278 C279 1.375 . S
C278 C284 1.404 . S
C279 C278 1.375 . S
C279 C280 1.369 . S
C279 H292 0.950 . S
C280 C279 1.369 . S
C280 C281 1.392 . S
C280 H293 0.951 . S
C281 C280 1.392 . S
C281 C283 1.384 . S
H282 C284 0.949 . S
C283 C281 1.384 . S
C283 C284 1.385 . S
C283 H285 0.950 . S
C284 C278 1.404 . S
C284 H282 0.949 . S
C284 C283 1.385 . S
H285 C283 0.950 . S
H286 C270 0.951 . S
H287 C272 0.951 . S
H288 C274 0.951 . S
H289 C275 0.950 . S
H290 C276 0.950 . S
H291 C277 0.950 . S
H292 C279 0.950 . S
H293 C280 0.951 . S
C294 C295 1.386 . S
C294 C296 1.383 . S
C294 H310 0.951 . S
C295 C294 1.386 . S
C295 C299 1.383 . S
C296 C294 1.383 . S
C296 C297 1.402 . S
C296 H311 0.951 . S
C297 C296 1.402 . S
C297 C298 1.375 . S
C297 C300 1.481 . S
C298 C297 1.375 . S
C298 C299 1.367 . S
C298 H312 0.951 . S
C299 C295 1.383 . S
C299 C298 1.367 . S
C299 H313 0.950 . S
C300 C297 1.481 . S
C300 C301 1.297 . S
C300 H314 0.950 . S
C301 C300 1.297 . S
C301 C302 1.479 . S
C301 H315 0.950 . S
C302 C301 1.479 . S
C302 C303 1.375 . S
C302 C308 1.404 . S
C303 C302 1.375 . S
C303 C304 1.369 . S
C303 H316 0.950 . S
C304 C303 1.369 . S
C304 C305 1.392 . S
C304 H317 0.951 . S
C305 C304 1.392 . S
C305 C307 1.384 . S
H306 C308 0.949 . S
C307 C305 1.384 . S
C307 C308 1.385 . S
C307 H309 0.950 . S
C308 C302 1.404 . S
C308 H306 0.949 . S
C308 C307 1.385 . S
H309 C307 0.950 . S
H310 C294 0.951 . S
H311 C296 0.951 . S
H312 C298 0.951 . S
H313 C299 0.950 . S
H314 C300 0.950 . S
H315 C301 0.950 . S
H316 C303 0.950 . S
H317 C304 0.951 . S
C318 C319 1.386 . S
C318 C320 1.383 . S
C318 H334 0.951 . S
C319 C318 1.386 . S
C319 C323 1.383 . S
C320 C318 1.383 . S
C320 C321 1.402 . S
C320 H335 0.951 . S
C321 C320 1.402 . S
C321 C322 1.375 . S
C321 C324 1.481 . S
C322 C321 1.375 . S
C322 C323 1.367 . S
C322 H336 0.951 . S
C323 C319 1.383 . S
C323 C322 1.367 . S
C323 H337 0.950 . S
C324 C321 1.481 . S
C324 C325 1.297 . S
C324 H338 0.950 . S
C325 C324 1.297 . S
C325 C326 1.479 . S
C325 H339 0.950 . S
C326 C325 1.479 . S
C326 C327 1.375 . S
C326 C332 1.404 . S
C327 C326 1.375 . S
C327 C328 1.369 . S
C327 H340 0.950 . S
C328 C327 1.369 . S
C328 C329 1.392 . S
C328 H341 0.951 . S
C329 C328 1.392 . S
C329 C331 1.384 . S
H330 C332 0.949 . S
C331 C329 1.384 . S
C331 C332 1.385 . S
C331 H333 0.950 . S
C332 C326 1.404 . S
C332 H330 0.949 . S
C332 C331 1.385 . S
H333 C331 0.950 . S
H334 C318 0.951 . S
H335 C320 0.951 . S
H336 C322 0.951 . S
H337 C323 0.950 . S
H338 C324 0.950 . S
H339 C325 0.950 . S
H340 C327 0.950 . S
H341 C328 0.951 . S
C342 C343 1.386 . S
C342 C344 1.383 . S
C342 H358 0.951 . S
C343 C342 1.386 . S
C343 C347 1.383 . S
C344 C342 1.383 . S
C344 C345 1.402 . S
C344 H359 0.951 . S
C345 C344 1.402 . S
C345 C346 1.375 . S
C345 C348 1.481 . S
C346 C345 1.375 . S
C346 C347 1.367 . S
C346 H360 0.951 . S
C347 C343 1.383 . S
C347 C346 1.367 . S
C347 H361 0.950 . S
C348 C345 1.481 . S
C348 C349 1.297 . S
C348 H362 0.950 . S
C349 C348 1.297 . S
C349 C350 1.479 . S
C349 H363 0.950 . S
C350 C349 1.479 . S
C350 C351 1.375 . S
C350 C356 1.404 . S
C351 C350 1.375 . S
C351 C352 1.369 . S
C351 H364 0.950 . S
C352 C351 1.369 . S
C352 C353 1.392 . S
C352 H365 0.951 . S
C353 C352 1.392 . S
C353 C355 1.384 . S
H354 C356 0.949 . S
C355 C353 1.384 . S
C355 C356 1.385 . S
C355 H357 0.950 . S
C356 C350 1.404 . S
C356 H354 0.949 . S
C356 C355 1.385 . S
H357 C355 0.950 . S
H358 C342 0.951 . S
H359 C344 0.951 . S
H360 C346 0.951 . S
H361 C347 0.950 . S
H362 C348 0.950 . S
H363 C349 0.950 . S
H364 C351 0.950 . S
H365 C352 0.951 . S
C366 C367 1.386 . S
C366 C368 1.383 . S
C366 H382 0.951 . S
C367 C366 1.386 . S
C367 C371 1.383 . S
C368 C366 1.383 . S
C368 C369 1.402 . S
C368 H383 0.951 . S
C369 C368 1.402 . S
C369 C370 1.375 . S
C369 C372 1.481 . S
C370 C369 1.375 . S
C370 C371 1.367 . S
C370 H384 0.951 . S
C371 C367 1.383 . S
C371 C370 1.367 . S
C371 H385 0.950 . S
C372 C369 1.481 . S
C372 C373 1.297 . S
C372 H386 0.950 . S
C373 C372 1.297 . S
C373 C374 1.479 . S
C373 H387 0.950 . S
C374 C373 1.479 . S
C374 C375 1.375 . S
C374 C380 1.404 . S
C375 C374 1.375 . S
C375 C376 1.369 . S
C375 H388 0.950 . S
C376 C375 1.369 . S
C376 C377 1.392 . S
C376 H389 0.951 . S
C377 C376 1.392 . S
C377 C379 1.384 . S
H378 C380 0.949 . S
C379 C377 1.384 . S
C379 C380 1.385 . S
C379 H381 0.950 . S
C380 C374 1.404 . S
C380 H378 0.949 . S
C380 C379 1.385 . S
H381 C379 0.950 . S
H382 C366 0.951 . S
H383 C368 0.951 . S
H384 C370 0.951 . S
H385 C371 0.950 . S
H386 C372 0.950 . S
H387 C373 0.950 . S
H388 C375 0.950 . S
H389 C376 0.951 . S
C390 C391 1.386 . S
C390 C392 1.383 . S
C390 H406 0.951 . S
C391 C390 1.386 . S
C391 C395 1.383 . S
C392 C390 1.383 . S
C392 C393 1.402 . S
C392 H407 0.951 . S
C393 C392 1.402 . S
C393 C394 1.375 . S
C393 C396 1.481 . S
C394 C393 1.375 . S
C394 C395 1.367 . S
C394 H408 0.951 . S
C395 C391 1.383 . S
C395 C394 1.367 . S
C395 H409 0.950 . S
C396 C393 1.481 . S
C396 C397 1.297 . S
C396 H410 0.950 . S
C397 C396 1.297 . S
C397 C398 1.479 . S
C397 H411 0.950 . S
C398 C397 1.479 . S
C398 C399 1.375 . S
C398 C404 1.404 1_565 S
C399 C398 1.375 . S
C399 C400 1.369 . S
C399 H412 0.950 . S
C400 C399 1.369 . S
C400 C401 1.392 1_565 S
C400 H413 0.951 . S
C401 C400 1.392 1_545 S
C401 C403 1.384 . S
H402 C404 0.949 . S
C403 C401 1.384 . S
C403 C404 1.385 . S
C403 H405 0.950 . S
C404 C398 1.404 1_545 S
C404 H402 0.949 . S
C404 C403 1.385 . S
H405 C403 0.950 . S
H406 C390 0.951 . S
H407 C392 0.951 . S
H408 C394 0.951 . S
H409 C395 0.950 . S
H410 C396 0.950 . S
H411 C397 0.950 . S
H412 C399 0.950 . S
H413 C400 0.951 . S
C414 C415 1.386 . S
C414 C416 1.383 . S
C414 H430 0.951 . S
C415 C414 1.386 . S
C415 C419 1.383 . S
C416 C414 1.383 . S
C416 C417 1.402 . S
C416 H431 0.951 . S
C417 C416 1.402 . S
C417 C418 1.375 . S
C417 C420 1.481 . S
C418 C417 1.375 . S
C418 C419 1.367 . S
C418 H432 0.951 . S
C419 C415 1.383 . S
C419 C418 1.367 . S
C419 H433 0.950 . S
C420 C417 1.481 . S
C420 C421 1.297 . S
C420 H434 0.950 . S
C421 C420 1.297 . S
C421 C422 1.479 . S
C421 H435 0.950 . S
C422 C421 1.479 . S
C422 C423 1.375 . S
C422 C428 1.404 . S
C423 C422 1.375 . S
C423 C424 1.369 . S
C423 H436 0.950 . S
C424 C423 1.369 . S
C424 C425 1.392 . S
C424 H437 0.951 . S
C425 C424 1.392 . S
C425 C427 1.384 . S
H426 C428 0.949 . S
C427 C425 1.384 . S
C427 C428 1.385 . S
C427 H429 0.950 . S
C428 C422 1.404 . S
C428 H426 0.949 . S
C428 C427 1.385 . S
H429 C427 0.950 . S
H430 C414 0.951 . S
H431 C416 0.951 . S
H432 C418 0.951 . S
H433 C419 0.950 . S
H434 C420 0.950 . S
H435 C421 0.950 . S
H436 C423 0.950 . S
H437 C424 0.951 . S
C438 C439 1.386 . S
C438 C440 1.383 . S
C438 H454 0.951 . S
C439 C438 1.386 . S
C439 C443 1.383 1_655 S
C440 C438 1.383 . S
C440 C441 1.402 . S
C440 H455 0.951 . S
C441 C440 1.402 . S
C441 C442 1.375 1_655 S
C441 C444 1.481 . S
C442 C441 1.375 1_455 S
C442 C443 1.367 . S
C442 H456 0.951 . S
C443 C439 1.383 1_455 S
C443 C442 1.367 . S
C443 H457 0.950 . S
C444 C441 1.481 . S
C444 C445 1.297 . S
C444 H458 0.950 . S
C445 C444 1.297 . S
C445 C446 1.479 . S
C445 H459 0.950 . S
C446 C445 1.479 . S
C446 C447 1.375 . S
C446 C452 1.404 . S
C447 C446 1.375 . S
C447 C448 1.369 . S
C447 H460 0.950 . S
C448 C447 1.369 . S
C448 C449 1.392 . S
C448 H461 0.951 . S
C449 C448 1.392 . S
C449 C451 1.384 . S
H450 C452 0.949 . S
C451 C449 1.384 . S
C451 C452 1.385 . S
C451 H453 0.950 . S
C452 C446 1.404 . S
C452 H450 0.949 . S
C452 C451 1.385 . S
H453 C451 0.950 . S
H454 C438 0.951 . S
H455 C440 0.951 . S
H456 C442 0.951 . S
H457 C443 0.950 . S
H458 C444 0.950 . S
H459 C445 0.950 . S
H460 C447 0.950 . S
H461 C448 0.951 . S
C462 C463 1.386 . S
C462 C464 1.383 . S
C462 H478 0.951 . S
C463 C462 1.386 . S
C463 C467 1.383 . S
C464 C462 1.383 . S
C464 C465 1.402 . S
C464 H479 0.951 . S
C465 C464 1.402 . S
C465 C466 1.375 . S
C465 C468 1.481 . S
C466 C465 1.375 . S
C466 C467 1.367 . S
C466 H480 0.951 . S
C467 C463 1.383 . S
C467 C466 1.367 . S
C467 H481 0.950 . S
C468 C465 1.481 . S
C468 C469 1.297 . S
C468 H482 0.950 . S
C469 C468 1.297 . S
C469 C470 1.479 . S
C469 H483 0.950 . S
C470 C469 1.479 . S
C470 C471 1.375 . S
C470 C476 1.404 . S
C471 C470 1.375 . S
C471 C472 1.369 . S
C471 H484 0.950 . S
C472 C471 1.369 . S
C472 C473 1.392 . S
C472 H485 0.951 . S
C473 C472 1.392 . S
C473 C475 1.384 . S
H474 C476 0.949 . S
C475 C473 1.384 . S
C475 C476 1.385 . S
C475 H477 0.950 . S
C476 C470 1.404 . S
C476 H474 0.949 . S
C476 C475 1.385 . S
H477 C475 0.950 . S
H478 C462 0.951 . S
H479 C464 0.951 . S
H480 C466 0.951 . S
H481 C467 0.950 . S
H482 C468 0.950 . S
H483 C469 0.950 . S
H484 C471 0.950 . S
H485 C472 0.951 . S
C486 C487 1.386 . S
C486 C488 1.383 . S
C486 H502 0.951 . S
C487 C486 1.386 . S
C487 C491 1.383 . S
C488 C486 1.383 . S
C488 C489 1.402 . S
C488 H503 0.951 . S
C489 C488 1.402 . S
C489 C490 1.375 . S
C489 C492 1.481 . S
C490 C489 1.375 . S
C490 C491 1.367 . S
C490 H504 0.951 . S
C491 C487 1.383 . S
C491 C490 1.367 . S
C491 H505 0.950 . S
C492 C489 1.481 . S
C492 C493 1.297 . S
C492 H506 0.950 . S
C493 C492 1.297 . S
C493 C494 1.479 1_455 S
C493 H507 0.950 . S
C494 C493 1.479 1_655 S
C494 C495 1.375 . S
C494 C500 1.404 . S
C495 C494 1.375 . S
C495 C496 1.369 . S
C495 H508 0.950 . S
C496 C495 1.369 . S
C496 C497 1.392 . S
C496 H509 0.951 . S
C497 C496 1.392 . S
C497 C499 1.384 . S
H498 C500 0.949 1_455 S
C499 C497 1.384 . S
C499 C500 1.385 . S
C499 H501 0.950 . S
C500 C494 1.404 . S
C500 H498 0.949 1_655 S
C500 C499 1.385 . S
H501 C499 0.950 . S
H502 C486 0.951 . S
H503 C488 0.951 . S
H504 C490 0.951 . S
H505 C491 0.950 . S
H506 C492 0.950 . S
H507 C493 0.950 . S
H508 C495 0.950 . S
H509 C496 0.951 . S
C510 C511 1.386 . S
C510 C512 1.383 . S
C510 H526 0.951 . S
C511 C510 1.386 . S
C511 C515 1.383 . S
C512 C510 1.383 . S
C512 C513 1.402 . S
C512 H527 0.951 . S
C513 C512 1.402 . S
C513 C514 1.375 . S
C513 C516 1.481 . S
C514 C513 1.375 . S
C514 C515 1.367 . S
C514 H528 0.951 . S
C515 C511 1.383 . S
C515 C514 1.367 . S
C515 H529 0.950 . S
C516 C513 1.481 . S
C516 C517 1.297 . S
C516 H530 0.950 . S
C517 C516 1.297 . S
C517 C518 1.479 . S
C517 H531 0.950 . S
C518 C517 1.479 . S
C518 C519 1.375 . S
C518 C524 1.404 . S
C519 C518 1.375 . S
C519 C520 1.369 . S
C519 H532 0.950 . S
C520 C519 1.369 . S
C520 C521 1.392 . S
C520 H533 0.951 . S
C521 C520 1.392 . S
C521 C523 1.384 . S
H522 C524 0.949 . S
C523 C521 1.384 . S
C523 C524 1.385 . S
C523 H525 0.950 . S
C524 C518 1.404 . S
C524 H522 0.949 . S
C524 C523 1.385 . S
H525 C523 0.950 . S
H526 C510 0.951 . S
H527 C512 0.951 . S
H528 C514 0.951 . S
H529 C515 0.950 . S
H530 C516 0.950 . S
H531 C517 0.950 . S
H532 C519 0.950 . S
H533 C520 0.951 . S
C534 C535 1.386 . S
C534 C536 1.383 . S
C534 H550 0.951 . S
C535 C534 1.386 . S
C535 C539 1.383 . S
C536 C534 1.383 . S
C536 C537 1.402 . S
C536 H551 0.951 . S
C537 C536 1.402 . S
C537 C538 1.375 . S
C537 C540 1.481 . S
C538 C537 1.375 . S
C538 C539 1.367 . S
C538 H552 0.951 . S
C539 C535 1.383 . S
C539 C538 1.367 . S
C539 H553 0.950 . S
C540 C537 1.481 . S
C540 C541 1.297 1_565 S
C540 H554 0.950 . S
C541 C540 1.297 1_545 S
C541 C542 1.479 . S
C541 H555 0.950 . S
C542 C541 1.479 . S
C542 C543 1.375 . S
C542 C548 1.404 . S
C543 C542 1.375 . S
C543 C544 1.369 . S
C543 H556 0.950 . S
C544 C543 1.369 . S
C544 C545 1.392 . S
C544 H557 0.951 . S
C545 C544 1.392 . S
C545 C547 1.384 . S
H546 C548 0.949 . S
C547 C545 1.384 . S
C547 C548 1.385 . S
C547 H549 0.950 . S
C548 C542 1.404 . S
C548 H546 0.949 . S
C548 C547 1.385 . S
H549 C547 0.950 . S
H550 C534 0.951 . S
H551 C536 0.951 . S
H552 C538 0.951 . S
H553 C539 0.950 . S
H554 C540 0.950 . S
H555 C541 0.950 . S
H556 C543 0.950 . S
H557 C544 0.951 . S
C127 C32 0.967 . S
C137 C5 0.794 . S
C151 C18 0.943 . S
C161 C4 0.972 . S
C175 C19 0.755 . S
C185 C33 0.653 . S
C199 C75 0.810 . S
C209 C46 0.870 . S
C223 C60 0.794 . S
C233 C47 0.788 . S
C247 C61 0.846 . S
C257 C74 0.948 . S
C271 C89 0.763 . S
C281 C116 0.775 . S
C295 C88 1.019 . S
C305 C102 0.987 . S
C319 C103 0.836 . S
C329 C117 0.846 . S
C343 C11 1.287 . S
C353 C109 1.283 . S
C367 C26 1.262 . S
C377 C124 1.261 . S
C391 C96 1.273 . S
C401 C39 1.233 . S
C415 C68 1.281 . S
C425 C40 1.271 . S
C439 C12 1.401 1_655 S
C449 C82 1.389 . S
C463 C54 1.278 . S
C473 C25 1.264 . S
C487 C110 1.290 . S
C497 C81 1.301 . S
C511 C53 1.175 . S
C521 C123 1.160 . S
C535 C95 1.282 . S
C545 C67 1.286 . S
