# Generated by pormake.
# Topology crs, (6)-cn, num edge types: 1
# Building blocks:
#     Node 0, Type 0, BuildingBlock: CUWYAW_clean_sbu_0, # of connection points: 6
#     Node 1, Type 0, BuildingBlock: CUWYAW_clean_sbu_0, # of connection points: 6
#     Node 2, Type 0, BuildingBlock: CUWYAW_clean_sbu_0, # of connection points: 6
#     Node 3, Type 0, BuildingBlock: CUWYAW_clean_sbu_0, # of connection points: 6
#     Node 4, Type 0, BuildingBlock: CUWYAW_clean_sbu_0, # of connection points: 6
#     Node 5, Type 0, BuildingBlock: CUWYAW_clean_sbu_0, # of connection points: 6
#     Node 6, Type 0, BuildingBlock: CUWYAW_clean_sbu_0, # of connection points: 6
#     Node 7, Type 0, BuildingBlock: CUWYAW_clean_sbu_0, # of connection points: 6
#     Node 8, Type 0, BuildingBlock: CUWYAW_clean_sbu_0, # of connection points: 6
#     Node 9, Type 0, BuildingBlock: CUWYAW_clean_sbu_0, # of connection points: 6
#     Node 10, Type 0, BuildingBlock: CUWYAW_clean_sbu_0, # of connection points: 6
#     Node 11, Type 0, BuildingBlock: CUWYAW_clean_sbu_0, # of connection points: 6
#     Node 12, Type 0, BuildingBlock: CUWYAW_clean_sbu_0, # of connection points: 6
#     Node 13, Type 0, BuildingBlock: CUWYAW_clean_sbu_0, # of connection points: 6
#     Node 14, Type 0, BuildingBlock: CUWYAW_clean_sbu_0, # of connection points: 6
#     Node 15, Type 0, BuildingBlock: CUWYAW_clean_sbu_0, # of connection points: 6
#     Edge 16, Type (0, 0), BuildingBlock: XUDNAN_clean_linker_2, # of connection points: 2
#     Edge 17, Type (0, 0), BuildingBlock: XUDNAN_clean_linker_2, # of connection points: 2
#     Edge 18, Type (0, 0), BuildingBlock: XUDNAN_clean_linker_2, # of connection points: 2
#     Edge 19, Type (0, 0), BuildingBlock: XUDNAN_clean_linker_2, # of connection points: 2
#     Edge 20, Type (0, 0), BuildingBlock: XUDNAN_clean_linker_2, # of connection points: 2
#     Edge 21, Type (0, 0), BuildingBlock: XUDNAN_clean_linker_2, # of connection points: 2
#     Edge 22, Type (0, 0), BuildingBlock: XUDNAN_clean_linker_2, # of connection points: 2
#     Edge 23, Type (0, 0), BuildingBlock: XUDNAN_clean_linker_2, # of connection points: 2
#     Edge 24, Type (0, 0), BuildingBlock: XUDNAN_clean_linker_2, # of connection points: 2
#     Edge 25, Type (0, 0), BuildingBlock: XUDNAN_clean_linker_2, # of connection points: 2
#     Edge 26, Type (0, 0), BuildingBlock: XUDNAN_clean_linker_2, # of connection points: 2
#     Edge 27, Type (0, 0), BuildingBlock: XUDNAN_clean_linker_2, # of connection points: 2
#     Edge 28, Type (0, 0), BuildingBlock: XUDNAN_clean_linker_2, # of connection points: 2
#     Edge 29, Type (0, 0), BuildingBlock: XUDNAN_clean_linker_2, # of connection points: 2
#     Edge 30, Type (0, 0), BuildingBlock: XUDNAN_clean_linker_2, # of connection points: 2
#     Edge 31, Type (0, 0), BuildingBlock: XUDNAN_clean_linker_2, # of connection points: 2
#     Edge 32, Type (0, 0), BuildingBlock: XUDNAN_clean_linker_2, # of connection points: 2
#     Edge 33, Type (0, 0), BuildingBlock: XUDNAN_clean_linker_2, # of connection points: 2
#     Edge 34, Type (0, 0), BuildingBlock: XUDNAN_clean_linker_2, # of connection points: 2
#     Edge 35, Type (0, 0), BuildingBlock: XUDNAN_clean_linker_2, # of connection points: 2
#     Edge 36, Type (0, 0), BuildingBlock: XUDNAN_clean_linker_2, # of connection points: 2
#     Edge 37, Type (0, 0), BuildingBlock: XUDNAN_clean_linker_2, # of connection points: 2
#     Edge 38, Type (0, 0), BuildingBlock: XUDNAN_clean_linker_2, # of connection points: 2
#     Edge 39, Type (0, 0), BuildingBlock: XUDNAN_clean_linker_2, # of connection points: 2
#     Edge 40, Type (0, 0), BuildingBlock: XUDNAN_clean_linker_2, # of connection points: 2
#     Edge 41, Type (0, 0), BuildingBlock: XUDNAN_clean_linker_2, # of connection points: 2
#     Edge 42, Type (0, 0), BuildingBlock: XUDNAN_clean_linker_2, # of connection points: 2
#     Edge 43, Type (0, 0), BuildingBlock: XUDNAN_clean_linker_2, # of connection points: 2
#     Edge 44, Type (0, 0), BuildingBlock: XUDNAN_clean_linker_2, # of connection points: 2
#     Edge 45, Type (0, 0), BuildingBlock: XUDNAN_clean_linker_2, # of connection points: 2
#     Edge 46, Type (0, 0), BuildingBlock: XUDNAN_clean_linker_2, # of connection points: 2
#     Edge 47, Type (0, 0), BuildingBlock: XUDNAN_clean_linker_2, # of connection points: 2
#     Edge 48, Type (0, 0), BuildingBlock: XUDNAN_clean_linker_2, # of connection points: 2
#     Edge 49, Type (0, 0), BuildingBlock: XUDNAN_clean_linker_2, # of connection points: 2
#     Edge 50, Type (0, 0), BuildingBlock: XUDNAN_clean_linker_2, # of connection points: 2
#     Edge 51, Type (0, 0), BuildingBlock: XUDNAN_clean_linker_2, # of connection points: 2
#     Edge 52, Type (0, 0), BuildingBlock: XUDNAN_clean_linker_2, # of connection points: 2
#     Edge 53, Type (0, 0), BuildingBlock: XUDNAN_clean_linker_2, # of connection points: 2
#     Edge 54, Type (0, 0), BuildingBlock: XUDNAN_clean_linker_2, # of connection points: 2
#     Edge 55, Type (0, 0), BuildingBlock: XUDNAN_clean_linker_2, # of connection points: 2
#     Edge 56, Type (0, 0), BuildingBlock: XUDNAN_clean_linker_2, # of connection points: 2
#     Edge 57, Type (0, 0), BuildingBlock: XUDNAN_clean_linker_2, # of connection points: 2
#     Edge 58, Type (0, 0), BuildingBlock: XUDNAN_clean_linker_2, # of connection points: 2
#     Edge 59, Type (0, 0), BuildingBlock: XUDNAN_clean_linker_2, # of connection points: 2
#     Edge 60, Type (0, 0), BuildingBlock: XUDNAN_clean_linker_2, # of connection points: 2
#     Edge 61, Type (0, 0), BuildingBlock: XUDNAN_clean_linker_2, # of connection points: 2
#     Edge 62, Type (0, 0), BuildingBlock: XUDNAN_clean_linker_2, # of connection points: 2
#     Edge 63, Type (0, 0), BuildingBlock: XUDNAN_clean_linker_2, # of connection points: 2
# Relax obj value: 0.458
# Max RMSD: 0.367
# Mean RMSD: 0.307
data_MOF--net-crs--node1-CUWYAW_clean_sbu_0--edge1-XUDNAN_clean_linker_2
_symmetry_space_group_name_H-M    P1
_symmetry_Int_Tables_number       1
_symmetry_cell_setting            triclinic
loop_
_symmetry_equiv_pos_as_xyz
'x, y, z'
_cell_length_a     54.429792
_cell_length_b     58.450242
_cell_length_c     40.786994
_cell_angle_alpha  73.604235
_cell_angle_beta   74.663207
_cell_angle_gamma 64.556724
loop_
_atom_site_label
_atom_site_type_symbol
_atom_site_fract_x
_atom_site_fract_y
_atom_site_fract_z
_atom_type_partial_charge
C0 C 0.05251 0.03049 0.92479 0.0
Eu1 Eu 0.00911 0.02421 0.96524 0.0
C2 C 0.07023 0.04322 0.92582 0.0
C3 C 0.09339 0.04234 0.90021 0.0
C4 C 0.10991 0.05495 0.90118 0.0
C5 C 0.10334 0.06861 0.92779 0.0
C6 C 0.08027 0.06907 0.95356 0.0
C7 C 0.06394 0.0565 0.95254 0.0
C8 C 0.9567 0.04423 0.9533 0.0
C9 C -0.01719 0.06113 0.02326 0.0
C10 C 0.92844 1.00152 0.07277 0.0
Eu11 Eu 0.9671 1.01394 0.02904 0.0
C12 C 0.91385 0.98583 0.07119 0.0
C13 C 0.91672 0.96277 0.09547 0.0
C14 C 0.90853 0.94472 0.09011 0.0
C15 C 0.89695 0.94969 0.06068 0.0
C16 C 0.89222 0.97354 0.03773 0.0
C17 C 0.90085 0.99136 0.04277 0.0
C18 C 0.01997 0.99402 0.03895 0.0
C19 C -0.01246 0.98213 0.96593 0.0
O20 O 0.05367 1.00997 0.94894 0.0
O21 O 0.02721 0.04589 0.92039 0.0
O22 O 0.97825 0.0363 0.92996 0.0
O23 O 0.96391 0.04341 0.9808 0.0
O24 O 0.00325 0.05148 0.99881 0.0
O25 O 0.96351 0.05165 0.03755 0.0
O26 O 0.92356 0.02387 0.05142 0.0
O27 O 0.95469 0.98858 0.07429 0.0
O28 O -0.00084 1.00352 0.06212 0.0
O29 O 0.01212 0.99415 0.01248 0.0
O30 O 0.96808 0.99075 0.99195 0.0
O31 O 0.00889 0.98898 0.95477 0.0
H32 H 0.09853 0.03212 0.87939 0.0
H33 H 0.1274 0.05448 0.88075 0.0
H34 H 0.07496 0.07893 0.97482 0.0
H35 H 0.04653 0.05704 0.9728 0.0
H36 H 0.92678 0.95807 0.11751 0.0
H37 H 0.91208 0.92652 0.10832 0.0
H38 H 0.88339 0.97776 0.01477 0.0
H39 H 0.89868 1.00877 0.02343 0.0
C40 C 0.94698 0.2464 0.2043 0.0
Eu41 Eu 0.96255 0.27006 0.23479 0.0
C42 C 0.95757 0.22727 0.1818 0.0
C43 C 0.95677 0.23575 0.14613 0.0
C44 C 0.96413 0.21807 0.12496 0.0
C45 C 0.97219 0.19157 0.13908 0.0
C46 C 0.97347 0.18298 0.17464 0.0
C47 C 0.96619 0.20069 0.19585 0.0
C48 C 0.93631 0.32082 0.24252 0.0
C49 C 0.01776 0.28277 0.19916 0.0
C50 C 0.01178 0.30399 0.3122 0.0
Eu51 Eu -0.00648 0.28299 0.28114 0.0
C52 C 0.00569 0.32058 0.33654 0.0
C53 C 0.02724 0.32613 0.3403 0.0
C54 C 0.02385 0.33853 0.36664 0.0
C55 C -0.00123 0.34565 0.38964 0.0
C56 C 0.97672 0.34102 0.385 0.0
C57 C -0.01977 0.32832 0.35865 0.0
C58 C 0.01932 0.23214 0.27341 0.0
C59 C 0.9377 0.27167 0.31586 0.0
O60 O 0.95155 0.23809 0.23644 0.0
O61 O 0.949 0.2688 0.19017 0.0
O62 O 0.92815 0.31028 0.2258 0.0
O63 O 0.95773 0.30378 0.25387 0.0
O64 O 0.00063 0.2728 0.19679 0.0
O65 O 0.01679 0.29046 0.22725 0.0
O66 O 0.0045 0.31474 0.28146 0.0
O67 O 0.00868 0.282 0.32555 0.0
O68 O 0.0268 0.24216 0.29159 0.0
O69 O -0.00172 0.24947 0.26169 0.0
O70 O 0.95342 0.28361 0.31671 0.0
O71 O 0.9407 0.26125 0.28942 0.0
H72 H 0.94974 0.25614 0.13466 0.0
H73 H 0.96254 0.22525 0.09773 0.0
H74 H -0.02019 0.16261 0.1861 0.0
H75 H 0.96677 0.19357 0.22332 0.0
H76 H 0.04705 0.32012 0.3235 0.0
H77 H 0.04095 0.3424 0.36918 0.0
H78 H 0.95716 0.34648 0.40235 0.0
H79 H 0.96349 0.3239 0.35615 0.0
C80 C 0.67241 0.26235 0.47078 0.0
Eu81 Eu 0.71082 0.27023 0.48675 0.0
C82 C 0.65463 0.24739 0.4833 0.0
C83 C 0.66576 0.22039 0.48682 0.0
C84 C 0.64848 0.20716 0.49212 0.0
C85 C 0.61978 0.22068 0.49406 0.0
C86 C 0.60861 0.2474 0.49337 0.0
C87 C 0.6259 0.26063 0.4878 0.0
C88 C 0.76184 0.26471 0.44869 0.0
C89 C 0.74229 0.22365 0.54718 0.0
C90 C 0.79448 0.2829 0.53048 0.0
Eu91 Eu 0.75194 0.27806 0.52076 0.0
C92 C 0.79859 0.30419 0.53805 0.0
C93 C 0.79017 0.30991 0.5715 0.0
C94 C 0.79223 0.33127 0.57772 0.0
C95 C 0.80279 0.34736 0.55066 0.0
C96 C 0.81177 0.3413 0.5174 0.0
C97 C 0.80981 0.31989 0.5112 0.0
C98 C 0.69967 0.29474 0.55763 0.0
C99 C 0.7155 0.32643 0.46545 0.0
O100 O 0.66719 0.28084 0.48692 0.0
O101 O 0.69885 0.24975 0.46104 0.0
O102 O 0.73929 0.27522 0.4356 0.0
O103 O 0.75632 0.2571 0.48092 0.0
O104 O 0.72097 0.23424 0.53029 0.0
O105 O 0.75904 0.23566 0.54393 0.0
O106 O 0.78867 0.28682 0.49963 0.0
O107 O 0.77977 0.27175 0.55504 0.0
O108 O 0.72042 0.29635 0.56543 0.0
O109 O 0.70808 0.28536 0.53079 0.0
O110 O 0.73743 0.31609 0.48124 0.0
O111 O 0.69989 0.31347 0.46795 0.0
H112 H 0.68785 0.20961 0.48366 0.0
H113 H 0.65782 0.18662 0.4923 0.0
H114 H 0.58656 0.25829 0.49544 0.0
H115 H 0.61684 0.28144 0.4853 0.0
H116 H 0.78163 0.29811 0.59286 0.0
H117 H 0.78564 0.33513 0.60377 0.0
H118 H 0.8198 0.35341 0.49591 0.0
H119 H 0.81656 0.31593 0.48518 0.0
C120 C 0.7254 0.99806 0.67454 0.0
Eu121 Eu 0.72858 1.01342 0.72697 0.0
C122 C 0.70352 0.99545 0.66285 0.0
C123 C 0.70815 0.97171 0.65561 0.0
C124 C 0.6871 0.96811 0.64687 0.0
C125 C 0.66108 0.98828 0.64497 0.0
C126 C 0.65663 1.01223 0.65156 0.0
C127 C 0.67761 1.01575 0.66061 0.0
C128 C 0.71912 0.98568 0.79286 0.0
C129 C 0.67825 0.05976 0.7568 0.0
C130 C 0.74321 0.04504 0.83012 0.0
Eu131 Eu 0.74089 0.03059 0.77629 0.0
C132 C 0.7608 0.03897 0.8556 0.0
C133 C 0.78702 1.01901 0.85431 0.0
C134 C 0.80534 1.01673 0.87463 0.0
C135 C 0.79779 0.03456 0.89623 0.0
C136 C 0.77087 0.05358 0.89875 0.0
C137 C 0.75258 0.05572 0.87861 0.0
C138 C 0.75337 0.05651 0.71086 0.0
C139 C 0.79061 0.98632 0.74299 0.0
O140 O 0.72332 0.0214 0.67312 0.0
O141 O 0.73309 0.9825 0.70314 0.0
O142 O 0.70255 0.99451 0.77044 0.0
O143 O 0.73919 0.9927 0.7798 0.0
O144 O 0.68713 0.04621 0.73222 0.0
O145 O 0.69442 0.05502 0.7791 0.0
O146 O 0.73143 0.02919 0.83234 0.0
O147 O 0.75275 0.05335 0.79824 0.0
O148 O 0.76946 0.04587 0.73402 0.0
O149 O 0.73172 0.05151 0.7225 0.0
O150 O 0.7798 0.99412 0.77282 0.0
O151 O 0.77574 0.99646 0.71782 0.0
H152 H 0.72797 0.95579 0.65728 0.0
H153 H 0.69118 0.94954 0.64157 0.0
H154 H 0.63668 0.02803 0.65062 0.0
H155 H 0.67338 0.0342 0.66643 0.0
H156 H 0.7937 1.00595 0.83655 0.0
H157 H 0.82575 1.00159 0.8725 0.0
H158 H 0.76439 0.06783 0.91466 0.0
H159 H 0.73246 0.07139 0.87966 0.0
C160 C 0.45507 0.74052 0.18945 0.0
Eu161 Eu 0.4655 0.76532 0.22405 0.0
C162 C 0.46597 0.71901 0.17088 0.0
C163 C 0.47759 0.72219 0.13553 0.0
C164 C 0.48055 0.70488 0.11577 0.0
C165 C 0.47167 0.68447 0.13112 0.0
C166 C 0.46266 0.67985 0.16698 0.0
C167 C 0.45985 0.69699 0.18675 0.0
C168 C 0.43381 0.81559 0.2324 0.0
C169 C 0.51732 0.78294 0.1951 0.0
C170 C 0.50196 0.80373 0.30999 0.0
Eu171 Eu 0.48917 0.78035 0.27596 0.0
C172 C 0.4954 0.82334 0.33033 0.0
C173 C 0.48577 0.81916 0.3662 0.0
C174 C 0.48684 0.83413 0.38672 0.0
C175 C 0.49786 0.85317 0.37161 0.0
C176 C 0.50535 0.85868 0.3355 0.0
C177 C 0.50414 0.84388 0.31503 0.0
C178 C 0.51933 0.72957 0.26848 0.0
C179 C 0.43837 0.76254 0.30497 0.0
O180 O 0.45297 0.73491 0.2233 0.0
O181 O 0.46166 0.76066 0.17493 0.0
O182 O 0.42968 0.80402 0.21285 0.0
O183 O 0.45482 0.79984 0.24583 0.0
O184 O 0.50372 0.7704 0.19023 0.0
O185 O 0.51292 0.79101 0.22407 0.0
O186 O 0.5013 0.81106 0.27658 0.0
O187 O 0.49539 0.78357 0.3246 0.0
O188 O 0.52313 0.74024 0.28947 0.0
O189 O 0.4993 0.74622 0.25416 0.0
O190 O 0.44939 0.77799 0.30766 0.0
O191 O 0.44495 0.75197 0.27754 0.0
H192 H 0.48242 0.73903 0.12256 0.0
H193 H 0.48739 0.70877 0.08804 0.0
H194 H 0.45577 0.66411 0.1792 0.0
H195 H 0.45079 0.69409 0.21388 0.0
H196 H 0.47909 0.80333 0.37874 0.0
H197 H 0.4809 0.82963 0.41457 0.0
H198 H 0.5135 0.87359 0.32329 0.0
H199 H 0.51186 0.84741 0.2875 0.0
C200 C 0.18268 0.76314 0.43778 0.0
Eu201 Eu 0.21192 0.77089 0.47144 0.0
C202 C 0.16707 0.7467 0.44435 0.0
C203 C 0.17776 0.72063 0.46062 0.0
C204 C 0.16318 0.70501 0.46528 0.0
C205 C 0.13756 0.7153 0.45416 0.0
C206 C 0.12652 0.74156 0.43886 0.0
C207 C 0.14126 0.75713 0.43386 0.0
C208 C 0.26533 0.76401 0.44975 0.0
C209 C 0.23145 0.72217 0.53725 0.0
C210 C 0.27255 0.78248 0.5509 0.0
Eu211 Eu 0.23925 0.77557 0.5228 0.0
C212 C 0.28481 0.80173 0.54293 0.0
C213 C 0.29346 0.80589 0.56934 0.0
C214 C 0.30287 0.82574 0.56293 0.0
C215 C 0.30357 0.84184 0.53002 0.0
C216 C 0.29542 0.83725 0.50336 0.0
C217 C 0.2862 0.81725 0.50974 0.0
C218 C 0.18622 0.78187 0.54694 0.0
C219 C 0.21754 0.82524 0.45882 0.0
O220 O 0.1725 0.78151 0.45567 0.0
O221 O 0.20951 0.75138 0.43505 0.0
O222 O 0.2467 0.77662 0.43006 0.0
O223 O 0.25538 0.75484 0.47945 0.0
O224 O 0.2161 0.73342 0.51226 0.0
O225 O 0.24504 0.73375 0.54444 0.0
O226 O 0.28103 0.76717 0.5287 0.0
O227 O 0.2458 0.79115 0.56084 0.0
O228 O 0.20514 0.77192 0.56635 0.0
O229 O 0.19529 0.79053 0.51614 0.0
O230 O 0.23218 0.81431 0.48442 0.0
O231 O 0.20531 0.81301 0.45029 0.0
H232 H 0.1975 0.71223 0.46938 0.0
H233 H 0.17193 0.68489 0.47756 0.0
H234 H 0.10685 0.74988 0.42994 0.0
H235 H 0.13267 0.77724 0.42143 0.0
H236 H 0.29232 0.79418 0.59513 0.0
H237 H 0.3087 0.82906 0.58407 0.0
H238 H 0.296 0.84922 0.47771 0.0
H239 H 0.27974 0.8142 0.48895 0.0
C240 C 0.22217 0.5103 0.66505 0.0
Eu241 Eu 0.22749 0.5143 0.72452 0.0
C242 C 0.20261 0.50434 0.65369 0.0
C243 C 0.17892 0.50269 0.67662 0.0
C244 C 0.15961 0.49816 0.66542 0.0
C245 C 0.16373 0.49515 0.63112 0.0
C246 C 0.18786 0.49621 0.60846 0.0
C247 C 0.20715 0.50084 0.6197 0.0
C248 C 0.21582 0.48348 0.78664 0.0
C249 C 0.175 0.5586 0.76208 0.0
C250 C 0.24627 0.54284 0.83355 0.0
Eu251 Eu 0.2355 0.53337 0.78146 0.0
C252 C 0.26627 0.53362 0.85711 0.0
C253 C 0.27699 0.55095 0.85916 0.0
C254 C 0.29748 0.54304 0.87891 0.0
C255 C 0.3075 0.5176 0.89777 0.0
C256 C 0.29604 0.50035 0.89664 0.0
C257 C 0.27562 0.50828 0.87628 0.0
C258 C 0.23538 0.5658 0.71801 0.0
C259 C 0.28662 0.48531 0.74993 0.0
O260 O 0.21183 0.53218 0.67581 0.0
O261 O 0.23832 0.49133 0.68524 0.0
O262 O 0.21298 0.48199 0.75688 0.0
O263 O 0.22278 0.50234 0.78199 0.0
O264 O 0.18611 0.54753 0.7346 0.0
O265 O 0.18905 0.55271 0.78727 0.0
O266 O 0.23024 0.53043 0.83739 0.0
O267 O 0.25519 0.55078 0.80111 0.0
O268 O 0.22423 0.57304 0.74742 0.0
O269 O 0.24718 0.54124 0.72312 0.0
O270 O 0.27557 0.49811 0.77575 0.0
O271 O 0.27333 0.49101 0.72401 0.0
H272 H 0.17521 0.50524 0.70305 0.0
H273 H 0.14138 0.49712 0.68355 0.0
H274 H 0.19143 0.49421 0.58182 0.0
H275 H 0.22539 0.50208 0.60173 0.0
H276 H 0.27007 0.57058 0.84451 0.0
H277 H 0.30619 0.55676 0.87808 0.0
H278 H 0.30309 0.48069 0.91105 0.0
H279 H 0.26756 0.49457 0.87507 0.0
C280 C 0.04775 0.524 0.45182 0.0
Eu281 Eu 0.00081 0.52208 0.48511 0.0
C282 C 0.06105 0.5402 0.45512 0.0
C283 C 0.07459 0.55194 0.42557 0.0
C284 C 0.08203 0.57156 0.42761 0.0
C285 C 0.07553 0.57986 0.4591 0.0
C286 C 0.0633 0.56714 0.48898 0.0
C287 C 0.0563 0.54735 0.48708 0.0
C288 C 0.95319 0.53916 0.46065 0.0
C289 C 0.96774 0.57203 0.52296 0.0
C290 C 0.90236 0.52394 0.57691 0.0
Eu291 Eu 0.94904 0.52541 0.54094 0.0
C292 C 0.8847 0.51144 0.57469 0.0
C293 C 0.86827 0.50362 0.60464 0.0
C294 C 0.85317 0.48978 0.60327 0.0
C295 C 0.85432 0.48354 0.57185 0.0
C296 C 0.8703 0.49206 0.54167 0.0
C297 C 0.88544 0.5058 0.5431 0.0
C298 C -0.00287 0.50851 0.5645 0.0
C299 C -0.01829 0.47587 0.50274 0.0
O300 O 0.04565 0.50609 0.47893 0.0
O301 O 0.02485 0.53683 0.43895 0.0
O302 O 0.97678 0.52484 0.44523 0.0
O303 O 0.95622 0.54466 0.4866 0.0
O304 O -0.0082 0.55636 0.50895 0.0
O305 O 0.9459 0.56589 0.53364 0.0
O306 O 0.90421 0.54276 0.55116 0.0
O307 O 0.92625 0.50825 0.5861 0.0
O308 O 0.9738 0.52326 0.57979 0.0
O309 O -0.00648 0.50283 0.53922 0.0
O310 O 0.95743 0.4919 0.51585 0.0
O311 O 0.00372 0.48177 0.49279 0.0
H312 H 0.07814 0.54685 0.40068 0.0
H313 H 0.09142 0.58121 0.40425 0.0
H314 H 0.05836 0.5731 0.51358 0.0
H315 H 0.04588 0.53857 0.5103 0.0
H316 H 0.86766 0.50765 0.62926 0.0
H317 H 0.8414 0.4832 0.62706 0.0
H318 H 0.87138 0.48786 0.51698 0.0
H319 H 0.89812 0.51159 0.51965 0.0
C320 C 0.18729 0.26066 0.9405 0.0
Eu321 Eu 0.21699 0.26922 0.97263 0.0
C322 C 0.18199 0.23805 0.94009 0.0
C323 C 0.19414 0.2258 0.91143 0.0
C324 C 0.19052 0.20367 0.91111 0.0
C325 C 0.17436 0.19358 0.93924 0.0
C326 C 0.16183 0.206 0.96771 0.0
C327 C 0.16568 0.22802 0.96822 0.0
C328 C 0.27055 0.26171 0.94773 0.0
C329 C 0.2381 0.219 0.03648 0.0
C330 C 0.27925 0.27929 0.04907 0.0
Eu331 Eu 0.24569 0.27218 0.02167 0.0
C332 C 0.29104 0.29894 0.04028 0.0
C333 C 0.29902 0.30424 0.0663 0.0
C334 C 0.30699 0.32508 0.05929 0.0
C335 C 0.30669 0.34106 0.02626 0.0
C336 C 0.29943 0.33528 0.99993 0.0
C337 C 0.29189 0.31419 0.00682 0.0
C338 C 0.19234 0.27973 0.04779 0.0
C339 C 0.22202 0.32326 0.96056 0.0
O340 O 0.17727 0.27042 0.96864 0.0
O341 O 0.21237 0.25945 0.92763 0.0
O342 O 0.25075 0.27574 0.9301 0.0
O343 O 0.26159 0.25172 0.9777 0.0
O344 O 0.22352 0.23016 0.01076 0.0
O345 O 0.25119 0.23069 0.04435 0.0
O346 O 0.2876 0.26383 0.02712 0.0
O347 O 0.25258 0.28773 0.05945 0.0
O348 O 0.21227 0.26757 0.06571 0.0
O349 O 0.20093 0.28907 0.01706 0.0
O350 O 0.23934 0.31068 0.9831 0.0
O351 O 0.20731 0.31221 0.95475 0.0
H352 H 0.20663 0.23326 0.88931 0.0
H353 H 0.20001 0.19467 0.88861 0.0
H354 H 0.1493 0.19852 0.98973 0.0
H355 H 0.15604 0.23701 0.9907 0.0
H356 H 0.2983 0.29274 0.09228 0.0
H357 H 0.31234 0.32931 0.08006 0.0
H358 H 0.29932 0.34722 0.97421 0.0
H359 H 0.2861 0.31019 0.98627 0.0
C360 C 0.2026 1.0206 0.16914 0.0
Eu361 Eu 0.21899 1.01948 0.22438 0.0
C362 C 0.19659 1.00456 0.15275 0.0
C363 C 0.20078 1.00854 0.11652 0.0
C364 C 0.19031 0.99738 0.10025 0.0
C365 C 0.17518 0.98224 0.12 0.0
C366 C 0.1727 0.9769 0.15636 0.0
C367 C 0.18341 0.98787 0.17257 0.0
C368 C 0.21389 0.98456 0.28429 0.0
C369 C 0.1714 0.06382 0.26315 0.0
C370 C 0.24329 0.03277 0.33759 0.0
Eu371 Eu 0.22975 0.03156 0.28144 0.0
C372 C 0.26537 0.03686 0.34697 0.0
C373 C 0.26505 0.06181 0.34173 0.0
C374 C 0.28587 0.06548 0.35094 0.0
C375 C 0.30745 0.04431 0.36566 0.0
C376 C 0.30764 1.01938 0.37115 0.0
C377 C 0.28677 1.01571 0.36201 0.0
C378 C 0.23619 0.06554 0.2205 0.0
C379 C 0.27888 0.98505 0.24428 0.0
O380 O 0.18604 0.02707 0.19761 0.0
O381 O 0.22835 1.01517 0.17016 0.0
O382 O 0.22231 0.97936 0.25353 0.0
O383 O 0.20562 1.00876 0.28227 0.0
O384 O 0.1848 0.05871 0.23238 0.0
O385 O 0.18318 0.04993 0.29044 0.0
O386 O 0.25036 1.0115 0.3266 0.0
O387 O 0.22581 0.05263 0.32009 0.0
O388 O 0.22706 0.07146 0.25083 0.0
O389 O 0.24393 0.04135 0.2236 0.0
O390 O 0.26948 0.99707 0.27071 0.0
O391 O 0.264 0.99203 0.21964 0.0
H392 H 0.21098 1.02131 0.10079 0.0
H393 H 0.1931 1.00147 0.07221 0.0
H394 H 0.16099 0.96559 0.17251 0.0
H395 H 0.18 0.98445 0.20062 0.0
H396 H 0.24869 0.07859 0.33061 0.0
H397 H 0.28483 0.08497 0.34694 0.0
H398 H 0.3241 1.00263 0.38213 0.0
H399 H 0.28743 0.99628 0.36663 0.0
C400 C 0.47669 0.25304 0.66968 0.0
Eu401 Eu 0.47839 0.27077 0.72021 0.0
C402 C 0.47763 0.23057 0.65971 0.0
C403 C 0.48409 0.22953 0.62448 0.0
C404 C 0.48095 0.21068 0.6133 0.0
C405 C 0.47127 0.19261 0.6373 0.0
C406 C 0.46631 0.19283 0.67289 0.0
C407 C 0.46948 0.21174 0.68406 0.0
C408 C 0.44728 0.32047 0.73149 0.0
C409 C 0.52786 0.29099 0.70896 0.0
C410 C 0.49794 0.29494 0.83605 0.0
Eu411 Eu 0.49365 0.27877 0.78577 0.0
C412 C 0.48641 0.31281 0.8603 0.0
C413 C 0.48485 0.30238 0.89591 0.0
C414 C 0.48074 0.3175 0.91938 0.0
C415 C 0.4783 0.34325 0.90751 0.0
C416 C 0.47757 0.35427 0.87218 0.0
C417 C 0.48162 0.33914 0.84868 0.0
C418 C 0.52468 0.22904 0.77401 0.0
C419 C 0.44303 0.26195 0.7955 0.0
O420 O 0.4548 0.26425 0.69114 0.0
O421 O 0.49964 0.25205 0.67569 0.0
O422 O 0.44651 0.31162 0.70623 0.0
O423 O 0.46546 0.30272 0.74817 0.0
O424 O 0.51561 0.28117 0.69585 0.0
O425 O 0.52102 0.29417 0.74152 0.0
O426 O 0.50553 0.30369 0.80327 0.0
O427 O 0.48816 0.27703 0.84114 0.0
O428 O 0.52641 0.23803 0.79845 0.0
O429 O 0.50638 0.24698 0.75784 0.0
O430 O 0.45143 0.27719 0.80428 0.0
O431 O 0.45472 0.2523 0.76681 0.0
H432 H 0.49034 0.24404 0.60543 0.0
H433 H 0.48471 0.21114 0.58573 0.0
H434 H 0.45926 0.17884 0.69195 0.0
H435 H 0.46457 0.21228 0.71144 0.0
H436 H 0.4887 0.28205 0.90538 0.0
H437 H 0.48152 0.30847 0.94642 0.0
H438 H 0.47522 0.37425 0.86251 0.0
H439 H 0.48259 0.34769 0.82134 0.0
C440 C 0.93804 0.74918 0.70354 0.0
Eu441 Eu 0.96179 0.76655 0.73307 0.0
C442 C 0.94299 0.73686 0.67452 0.0
C443 C 0.92024 0.73837 0.66295 0.0
C444 C 0.92407 0.72592 0.6364 0.0
C445 C 0.9508 0.71173 0.62093 0.0
C446 C 0.97366 0.71077 0.63208 0.0
C447 C 0.96977 0.72332 0.6587 0.0
C448 C 0.94507 0.81778 0.73243 0.0
C449 C 0.01627 0.77569 0.69832 0.0
C450 C 0.00018 0.80339 0.80932 0.0
Eu451 Eu -0.01164 0.77711 0.77866 0.0
C452 C -0.01505 0.82578 0.82623 0.0
C453 C -0.00891 0.82484 0.85794 0.0
C454 C -0.02026 0.84697 0.87222 0.0
C455 C 0.96234 0.87039 0.85471 0.0
C456 C 0.9545 0.87082 0.82433 0.0
C457 C 0.96559 0.84858 0.81026 0.0
C458 C 0.01895 0.72666 0.77316 0.0
C459 C 0.93536 0.76386 0.81497 0.0
O460 O 0.9518 0.73528 0.72898 0.0
O461 O 0.93634 0.773 0.69559 0.0
O462 O 0.95209 0.80782 0.70506 0.0
O463 O 0.94815 0.80002 0.75926 0.0
O464 O 0.00185 0.76271 0.69748 0.0
O465 O 0.01142 0.78655 0.72493 0.0
O466 O 0.00152 0.80786 0.77566 0.0
O467 O -0.00395 0.78224 0.82538 0.0
O468 O 0.02327 0.73879 0.79169 0.0
O469 O -0.00194 0.7415 0.7588 0.0
O470 O 0.95477 0.76953 0.81997 0.0
O471 O 0.93376 0.76209 0.78418 0.0
H472 H 0.89944 0.74877 0.67497 0.0
H473 H 0.90605 0.72665 0.6289 0.0
H474 H -0.00551 0.7001 0.62048 0.0
H475 H -0.01243 0.72216 0.66727 0.0
H476 H 0.00575 0.80734 0.87076 0.0
H477 H -0.01364 0.84623 0.89545 0.0
H478 H 0.94109 0.88869 0.81045 0.0
H479 H 0.96011 0.84961 0.78606 0.0
C480 C 0.71897 0.50502 0.17673 0.0
Eu481 Eu 0.72227 0.5172 0.23176 0.0
C482 C 0.69535 0.50448 0.16683 0.0
C483 C 0.6691 0.51466 0.18634 0.0
C484 C 0.64668 0.51234 0.17939 0.0
C485 C 0.65015 0.4997 0.1529 0.0
C486 C 0.6764 0.49002 0.13283 0.0
C487 C 0.69894 0.49232 0.13988 0.0
C488 C 0.70623 0.49 0.29495 0.0
C489 C 0.67079 0.5602 0.26525 0.0
C490 C 0.73215 0.54399 0.342 0.0
Eu491 Eu 0.73127 0.53125 0.28597 0.0
C492 C 0.7523 0.54766 0.35554 0.0
C493 C 0.77465 0.55267 0.33317 0.0
C494 C 0.79373 0.55614 0.34636 0.0
C495 C 0.79086 0.55446 0.38217 0.0
C496 C 0.76843 0.54933 0.40445 0.0
C497 C 0.74929 0.54599 0.39119 0.0
C498 C 0.74686 0.55865 0.22272 0.0
C499 C 0.78298 0.48833 0.25252 0.0
O500 O 0.71729 0.52781 0.17745 0.0
O501 O 0.72721 0.48812 0.20423 0.0
O502 O 0.69163 0.50151 0.27024 0.0
O503 O 0.72804 0.49449 0.28597 0.0
O504 O 0.68294 0.55296 0.23537 0.0
O505 O 0.68413 0.54929 0.29186 0.0
O506 O 0.7377 0.52041 0.33979 0.0
O507 O 0.72324 0.56067 0.31464 0.0
O508 O 0.76142 0.5475 0.24751 0.0
O509 O 0.72518 0.55399 0.23189 0.0
O510 O 0.77109 0.49614 0.2821 0.0
O511 O 0.76942 0.49833 0.22609 0.0
H512 H 0.66603 0.52401 0.20737 0.0
H513 H 0.6266 0.52043 0.19482 0.0
H514 H 0.67961 0.48012 0.11232 0.0
H515 H 0.71919 0.48419 0.12483 0.0
H516 H 0.77731 0.55395 0.30552 0.0
H517 H 0.8106 0.56033 0.32848 0.0
H518 H 0.76591 0.54746 0.4322 0.0
H519 H 0.7322 0.54197 0.40878 0.0
C520 C 0.67384 0.76152 0.97015 0.0
Eu521 Eu 0.71072 0.7703 0.98881 0.0
C522 C 0.66895 0.73825 0.97225 0.0
C523 C 0.6909 0.71411 0.97246 0.0
C524 C 0.68598 0.69202 0.97514 0.0
C525 C 0.65896 0.69362 0.97804 0.0
C526 C 0.63702 0.71788 0.97822 0.0
C527 C 0.642 0.73999 0.9753 0.0
C528 C 0.76449 0.75652 0.96097 0.0
C529 C 0.73774 0.7225 0.05327 0.0
C530 C 0.78069 0.78488 0.05247 0.0
Eu531 Eu 0.7454 0.77648 0.03018 0.0
C532 C 0.79568 0.80233 0.0416 0.0
C533 C 0.78721 0.82283 0.05879 0.0
C534 C 0.80208 0.83857 0.05058 0.0
C535 C 0.82593 0.83397 0.02526 0.0
C536 C 0.83416 0.81382 0.00747 0.0
C537 C 0.8191 0.79815 0.01548 0.0
C538 C 0.69126 0.79005 0.05735 0.0
C539 C 0.72453 0.8217 0.96266 0.0
O540 O 0.67038 0.76786 0.99979 0.0
O541 O 0.6959 0.76357 0.94918 0.0
O542 O 0.74481 0.76685 0.94269 0.0
O543 O 0.75506 0.75196 0.99277 0.0
O544 O 0.71956 0.73263 0.0315 0.0
O545 O 0.75229 0.73518 0.05497 0.0
O546 O 0.78783 0.76724 0.03411 0.0
O547 O 0.75399 0.79544 0.0621 0.0
O548 O 0.7109 0.77793 0.07574 0.0
O549 O 0.70092 0.79519 0.02574 0.0
O550 O 0.74345 0.80896 0.98312 0.0
O551 O 0.70589 0.8124 0.9633 0.0
H552 H 0.71187 0.71232 0.97051 0.0
H553 H 0.70341 0.67377 0.97447 0.0
H554 H 0.61591 0.71978 0.98105 0.0
H555 H 0.62478 0.75843 0.97567 0.0
H556 H 0.76941 0.82633 0.07923 0.0
H557 H 0.79558 0.85367 0.06517 0.0
H558 H 0.85249 0.80993 0.98783 0.0
H559 H 0.82617 0.78248 1.00175 0.0
C560 C 0.54806 0.02868 0.45733 0.0
Eu561 Eu 0.50265 0.0233 0.49003 0.0
C562 C 0.55368 0.05195 0.45251 0.0
C563 C 0.53159 0.07609 0.45066 0.0
C564 C 0.53506 0.09782 0.45278 0.0
C565 C 0.56067 0.09593 0.45702 0.0
C566 C 0.58308 0.07191 0.4577 0.0
C567 C 0.5796 0.05005 0.4554 0.0
C568 C 0.45566 0.04053 0.46384 0.0
C569 C 0.46073 0.06803 0.53153 0.0
C570 C 0.40669 1.01161 0.57191 0.0
Eu571 Eu 0.45423 1.01349 0.54127 0.0
C572 C 0.39307 0.99612 0.56734 0.0
C573 C 0.4091 0.97355 0.55395 0.0
C574 C 0.39661 0.95996 0.54589 0.0
C575 C 0.36775 0.96859 0.55123 0.0
C576 C 0.35162 0.99099 0.56526 0.0
C577 C 0.36425 1.0047 0.57326 0.0
C578 C 0.50093 0.99705 0.56758 0.0
C579 C 0.49676 0.96908 0.50016 0.0
O580 O 0.5454 1.01651 0.48953 0.0
O581 O 0.52879 0.03136 0.4413 0.0
O582 O 0.47234 0.05258 0.45499 0.0
O583 O 0.46521 1.01956 0.48443 0.0
O584 O 0.48559 0.05832 0.51368 0.0
O585 O 0.4441 0.05528 0.54238 0.0
O586 O 0.40952 0.02935 0.54491 0.0
O587 O 0.42918 0.99849 0.58568 0.0
O588 O 0.48436 0.98484 0.57734 0.0
O589 O 0.49112 1.01769 0.54671 0.0
O590 O 0.47074 0.98029 0.5139 0.0
O591 O 0.51428 0.98066 0.49304 0.0
H592 H 0.51121 0.07802 0.4491 0.0
H593 H 0.5173 0.11589 0.45251 0.0
H594 H 0.60318 0.06992 0.46053 0.0
H595 H 0.59677 0.03152 0.45741 0.0
H596 H 0.43136 0.96657 0.54924 0.0
H597 H 0.40957 0.94296 0.5348 0.0
H598 H 0.32931 0.99791 0.56991 0.0
H599 H 0.35158 0.02224 0.58329 0.0
C600 C 0.55793 0.51391 0.9571 0.0
Eu601 Eu 0.51049 0.51133 0.98728 0.0
C602 C 0.57209 0.53025 0.95783 0.0
C603 C 0.60071 0.51975 0.95676 0.0
C604 C 0.61399 0.53474 0.95984 0.0
C605 C 0.59881 0.56053 0.96398 0.0
C606 C 0.57019 0.57106 0.96422 0.0
C607 C 0.55699 0.5561 0.96117 0.0
C608 C 0.47029 0.51531 0.95608 0.0
C609 C 0.46854 0.56603 0.01174 0.0
C610 C 0.40471 0.51609 0.05972 0.0
Eu611 Eu 0.45353 0.51699 0.03463 0.0
C612 C 0.39104 0.50105 0.05416 0.0
C613 C 0.3637 0.5048 0.06975 0.0
C614 C 0.35061 0.49111 0.06265 0.0
C615 C 0.365 0.47336 0.04035 0.0
C616 C 0.39243 0.46943 0.02532 0.0
C617 C 0.40522 0.48335 0.03189 0.0
C618 C 0.49302 0.51149 0.06755 0.0
C619 C 0.49659 0.46139 0.01305 0.0
O620 O 0.55485 0.49762 0.98592 0.0
O621 O 0.53575 0.52564 0.94253 0.0
O622 O 0.49626 0.50187 0.94718 0.0
O623 O 0.46731 0.52746 0.97882 0.0
O624 O 0.49431 0.55036 1.00281 0.0
O625 O 0.44782 0.55837 0.01999 0.0
O626 O 0.40967 0.53275 0.03248 0.0
O627 O 0.42585 0.50278 0.07601 0.0
O628 O 0.46691 0.52386 0.07769 0.0
O629 O 0.49674 0.50029 0.04335 0.0
O630 O 0.47116 0.47689 0.02333 0.0
O631 O 0.51724 0.46931 1.001 0.0
H632 H 0.61273 0.49983 0.95416 0.0
H633 H 0.63611 0.52609 0.95902 0.0
H634 H 0.55774 0.59065 0.96783 0.0
H635 H 0.53489 0.56468 0.96194 0.0
H636 H 0.35244 0.51851 0.08688 0.0
H637 H 0.32945 0.49418 0.0747 0.0
H638 H 0.40384 0.45585 0.00801 0.0
H639 H 0.42604 0.48054 0.01906 0.0
H640 H 0.95805 0.07706 0.08554 0.0
H641 H 0.00687 0.09481 0.98615 0.0
H642 H 0.01034 0.12928 0.00559 0.0
H643 H 0.9198 0.14357 0.09747 0.0
H644 H 0.91985 0.13537 0.14351 0.0
H645 H 0.92069 0.11225 0.12151 0.0
H646 H 0.96512 0.0789 0.1454 0.0
H647 H 0.9646 0.10202 0.16714 0.0
H648 H -0.00526 0.08726 0.13716 0.0
H649 H 0.00955 0.16105 0.03554 0.0
H650 H 0.00274 0.18982 0.07416 0.0
H651 H 0.95398 0.15224 0.15389 0.0
C652 C 0.96916 0.08843 0.0678 0.0
C653 C -0.01755 0.08309 0.03452 0.0
C654 C -0.00303 0.09824 0.01204 0.0
C655 C -0.00104 0.11797 0.02274 0.0
C656 C -0.0138 0.1224 0.05593 0.0
C657 C 0.97141 0.10826 0.0781 0.0
C658 C 0.9599 0.11697 0.11256 0.0
C659 C 0.92818 0.12768 0.11913 0.0
C660 C 0.97181 0.09497 0.14231 0.0
C661 C 0.97058 0.13814 0.10615 0.0
C662 C -0.01428 0.1409 0.07333 0.0
C663 C -0.00236 0.15921 0.0613 0.0
C664 C -0.00637 0.17545 0.08333 0.0
C665 C 0.97788 0.1732 0.11692 0.0
C666 C 0.96644 0.15414 0.1285 0.0
H667 H 0.81479 0.22972 0.43365 0.0
H668 H 0.76495 0.31159 0.42072 0.0
H669 H 0.80642 0.32141 0.39443 0.0
H670 H 0.87966 0.22955 0.44414 0.0
H671 H 0.90091 0.20695 0.41593 0.0
H672 H 0.86835 0.20583 0.43998 0.0
H673 H 0.85256 0.21049 0.38301 0.0
H674 H 0.88514 0.21131 0.35889 0.0
H675 H 0.85343 0.23723 0.34801 0.0
H676 H 0.85368 0.32225 0.37149 0.0
H677 H 0.90051 0.31527 0.33798 0.0
H678 H 0.91799 0.23375 0.35213 0.0
C679 C 0.81285 0.24965 0.42583 0.0
C680 C 0.78691 0.26999 0.43127 0.0
C681 C 0.78477 0.29582 0.41882 0.0
C682 C 0.80826 0.30155 0.40363 0.0
C683 C 0.83366 0.28116 0.39927 0.0
C684 C 0.83597 0.25574 0.40862 0.0
C685 C 0.86481 0.23783 0.39541 0.0
C686 C 0.87929 0.21892 0.42567 0.0
C687 C 0.86392 0.22337 0.3698 0.0
C688 C 0.87822 0.25717 0.37726 0.0
C689 C 0.86014 0.28192 0.38111 0.0
C690 C 0.86791 0.30302 0.36784 0.0
C691 C 0.89455 0.29887 0.34896 0.0
C692 C 0.91261 0.27409 0.34219 0.0
C693 C 0.90448 0.2529 0.35695 0.0
H694 H 0.71345 0.09822 0.67355 0.0
H695 H 0.79953 0.06663 0.68517 0.0
H696 H 0.80556 0.1047 0.6448 0.0
H697 H 0.72438 0.12786 0.58006 0.0
H698 H 0.69301 0.15616 0.58348 0.0
H699 H 0.6951 0.1259 0.61237 0.0
H700 H 0.68109 0.14782 0.66502 0.0
H701 H 0.6791 0.1781 0.6363 0.0
H702 H 0.70092 0.16463 0.66898 0.0
H703 H 0.80245 0.1472 0.60635 0.0
H704 H 0.79108 0.19034 0.56895 0.0
H705 H 0.70736 0.19625 0.57801 0.0
C706 C 0.73366 0.09914 0.66709 0.0
C707 C 0.75609 0.07903 0.68283 0.0
C708 C 0.782 0.08146 0.67378 0.0
C709 C 0.78567 0.10317 0.65076 0.0
C710 C 0.76329 0.12275 0.6363 0.0
C711 C 0.73779 0.12097 0.64369 0.0
C712 C 0.71729 0.1453 0.62447 0.0
C713 C 0.70682 0.13839 0.59856 0.0
C714 C 0.69317 0.15982 0.65023 0.0
C715 C 0.73522 0.16093 0.6056 0.0
C716 C 0.76165 0.14741 0.6131 0.0
C717 C 0.78187 0.15784 0.60006 0.0
C718 C 0.77513 0.18257 0.57878 0.0
C719 C 0.74836 0.19705 0.57 0.0
C720 C 0.72815 0.1858 0.5837 0.0
H721 H 0.94317 0.03404 0.90103 0.0
H722 H 0.90807 0.06047 0.9986 0.0
H723 H 0.86352 0.05931 0.99624 0.0
H724 H 0.88043 0.07186 0.86213 0.0
H725 H 0.88731 0.04719 0.83877 0.0
H726 H 0.91548 0.05114 0.84853 0.0
H727 H 0.93329 1.00333 0.87706 0.0
H728 H 0.90445 0.9986 0.87076 0.0
H729 H 0.91227 0.99115 0.91377 0.0
H730 H 0.82389 0.0519 0.98451 0.0
H731 H 0.79063 0.04529 0.96065 0.0
H732 H 0.85195 0.0263 0.86922 0.0
C733 C 0.92605 0.03985 0.92178 0.0
C734 C 0.92913 0.04677 0.95048 0.0
C735 C 0.90621 0.05449 0.97687 0.0
C736 C 0.88087 0.054 0.97562 0.0
C737 C 0.87889 0.04597 0.94761 0.0
C738 C 0.90071 0.0397 0.92075 0.0
C739 C 0.89321 0.0325 0.89301 0.0
C740 C 0.89415 0.05183 0.85858 0.0
C741 C 0.9119 1.00471 0.88841 0.0
C742 C 0.864 0.03493 0.90883 0.0
C743 C 0.85604 0.04266 0.94034 0.0
C744 C 0.82984 0.04614 0.95966 0.0
C745 C 0.81109 0.04236 0.94587 0.0
C746 C 0.81858 0.03529 0.91299 0.0
C747 C 0.84559 0.03121 0.89466 0.0
H748 H 0.05685 1.01688 0.01583 0.0
H749 H 0.04572 0.94763 0.0779 0.0
H750 H 0.09043 0.93276 0.09748 0.0
H751 H 0.1372 0.98676 0.99575 0.0
H752 H 0.13719 1.01714 0.99801 0.0
H753 H 0.10951 1.01636 0.98249 0.0
H754 H 0.07532 0.04327 0.03019 0.0
H755 H 0.10407 0.0417 0.04562 0.0
H756 H 0.07917 0.02963 0.07491 0.0
H757 H 0.13201 0.92895 0.11718 0.0
H758 H 0.16552 0.93732 0.13782 0.0
H759 H 0.14768 1.01066 0.06528 0.0
C760 C 0.06465 0.99804 0.03213 0.0
C761 C 0.04861 0.98291 0.0446 0.0
C762 C 0.05834 0.95901 0.06747 0.0
C763 C 0.08367 0.95046 0.07861 0.0
C764 C 0.09884 0.96615 0.06661 0.0
C765 C 0.08979 0.9894 0.04364 0.0
C766 C 0.10771 1.0044 0.03867 0.0
C767 C 0.12386 1.0063 1.00155 0.0
C768 C 0.09055 0.03132 0.04792 0.0
C769 C 0.12691 0.98693 0.06436 0.0
C770 C 0.12216 0.96453 0.07925 0.0
C771 C 0.13617 0.94625 0.10534 0.0
C772 C 0.15501 0.95129 0.1171 0.0
C773 C 0.15929 0.97468 0.10329 0.0
C774 C 0.1455 0.99231 0.0759 0.0
H775 H 0.947 0.46684 0.47553 0.0
H776 H 0.0234 0.42965 0.517 0.0
H777 H 0.03131 0.38864 0.502 0.0
H778 H 0.92763 0.40957 0.495 0.0
H779 H 0.91648 0.41821 0.45376 0.0
H780 H 0.913 0.44309 0.4747 0.0
H781 H 0.94205 0.46125 0.42081 0.0
H782 H 0.94334 0.43774 0.39927 0.0
H783 H 0.97484 0.4397 0.40232 0.0
H784 H 0.03455 0.3543 0.47506 0.0
H785 H 0.03469 0.32983 0.43458 0.0
H786 H 0.95751 0.38988 0.40737 0.0
C787 C 0.9648 0.44972 0.48257 0.0
C788 C -0.01562 0.45099 0.49789 0.0
C789 C 0.0081 0.42874 0.50552 0.0
C790 C 0.01263 0.4054 0.49733 0.0
C791 C -0.00664 0.40483 0.4812 0.0
C792 C 0.96999 0.42644 0.47368 0.0
C793 C 0.95516 0.42203 0.45095 0.0
C794 C 0.92632 0.42332 0.46976 0.0
C795 C 0.95379 0.44129 0.41621 0.0
C796 C 0.97411 0.39488 0.44612 0.0
C797 C -0.00426 0.38512 0.46437 0.0
C798 C 0.01746 0.36151 0.46116 0.0
C799 C 0.01746 0.34786 0.43798 0.0
C800 C -0.00395 0.35802 0.41805 0.0
C801 C 0.97374 0.38143 0.42296 0.0
H802 H 0.65954 0.27752 0.55857 0.0
H803 H 0.67809 0.3246 0.60617 0.0
H804 H 0.63415 0.33165 0.64688 0.0
H805 H 0.58354 0.31406 0.56873 0.0
H806 H 0.57665 0.28509 0.57859 0.0
H807 H 0.60803 0.28631 0.55066 0.0
H808 H 0.63638 0.24554 0.59064 0.0
H809 H 0.60516 0.24447 0.61898 0.0
H810 H 0.63187 0.24563 0.63604 0.0
H811 H 0.59075 0.33058 0.68552 0.0
H812 H 0.55006 0.32169 0.71987 0.0
H813 H 0.55886 0.27509 0.64805 0.0
C814 C 0.65391 0.28987 0.57697 0.0
C815 C 0.67197 0.30084 0.57901 0.0
C816 C 0.66441 0.3162 0.60409 0.0
C817 C 0.63949 0.32034 0.62727 0.0
C818 C 0.62232 0.30891 0.62514 0.0
C819 C 0.62908 0.29403 0.60061 0.0
C820 C 0.60781 0.28248 0.60568 0.0
C821 C 0.59313 0.2926 0.57403 0.0
C822 C 0.6211 0.25277 0.6133 0.0
C823 C 0.58837 0.29283 0.63722 0.0
C824 C 0.5971 0.30817 0.6478 0.0
C825 C 0.58348 0.31886 0.67729 0.0
C826 C 0.56041 0.31363 0.69671 0.0
C827 C 0.55108 0.29784 0.68663 0.0
C828 C 0.56516 0.28758 0.65619 0.0
H829 H 0.68908 0.95335 0.81198 0.0
H830 H 0.75449 0.96453 0.83918 0.0
H831 H 0.76182 0.92505 0.88424 0.0
H832 H 0.66183 0.92741 0.90074 0.0
H833 H 0.65489 0.90391 0.88804 0.0
H834 H 0.65378 0.93357 0.85817 0.0
H835 H 0.68944 0.90746 0.81269 0.0
H836 H 0.69071 0.87773 0.84246 0.0
H837 H 0.72199 0.8835 0.82404 0.0
H838 H 0.76356 0.88406 0.92527 0.0
H839 H 0.75937 0.84433 0.96122 0.0
H840 H 0.69257 0.85671 0.91042 0.0
C841 C 0.70469 0.94764 0.82776 0.0
C842 C 0.72111 0.96247 0.82188 0.0
C843 C 0.74154 0.95388 0.84296 0.0
C844 C 0.74591 0.93132 0.86873 0.0
C845 C 0.72973 0.91709 0.87362 0.0
C846 C 0.70943 0.92483 0.85391 0.0
C847 C 0.69546 0.90532 0.86466 0.0
C848 C 0.66465 0.91833 0.87874 0.0
C849 C 0.69965 0.89276 0.83414 0.0
C850 C 0.71107 0.88553 0.89342 0.0
C851 C 0.73074 0.89296 0.89781 0.0
C852 C 0.74813 0.87817 0.9221 0.0
C853 C 0.74549 0.85535 0.94258 0.0
C854 C 0.72552 0.84682 0.93931 0.0
C855 C 0.708 0.8624 0.91406 0.0
H856 H 0.17225 0.26747 0.11582 0.0
H857 H 0.1469 0.3 0.01492 0.0
H858 H 0.09928 0.30299 0.04197 0.0
H859 H 0.13019 0.23011 0.15112 0.0
H860 H 0.12273 0.237 0.19385 0.0
H861 H 0.15462 0.23649 0.16591 0.0
H862 H 0.14319 0.28302 0.17267 0.0
H863 H 0.11127 0.28359 0.20058 0.0
H864 H 0.111 0.30839 0.16237 0.0
H865 H 0.05431 0.30037 0.08136 0.0
H866 H 0.01589 0.29725 0.12924 0.0
H867 H 0.07102 0.27017 0.20374 0.0
C868 C 0.15672 0.27525 0.0993 0.0
C869 C 0.16335 0.2832 0.06315 0.0
C870 C 0.14234 0.29352 0.04259 0.0
C871 C 0.11526 0.29526 0.05777 0.0
C872 C 0.10952 0.28698 0.09359 0.0
C873 C 0.12969 0.27754 0.11405 0.0
C874 C 0.1183 0.27093 0.15201 0.0
C875 C 0.13229 0.24192 0.16655 0.0
C876 C 0.1211 0.28748 0.17314 0.0
C877 C 0.08846 0.27821 0.14994 0.0
C878 C 0.08375 0.28699 0.11605 0.0
C879 C 0.05778 0.29381 0.10796 0.0
C880 C 0.03612 0.29193 0.13523 0.0
C881 C 0.04047 0.28389 0.17008 0.0
C882 C 0.06701 0.27687 0.17733 0.0
H883 H 0.74342 0.45083 0.33685 0.0
H884 H 0.66058 0.47809 0.31502 0.0
H885 H 0.65381 0.44071 0.35701 0.0
H886 H 0.75912 0.38269 0.34556 0.0
H887 H 0.77873 0.37247 0.38006 0.0
H888 H 0.77653 0.40186 0.34897 0.0
H889 H 0.75843 0.42678 0.39943 0.0
H890 H 0.76002 0.39745 0.43038 0.0
H891 H 0.72805 0.42534 0.42977 0.0
H892 H 0.65621 0.39935 0.39971 0.0
H893 H 0.66732 0.35748 0.44032 0.0
H894 H 0.74851 0.35569 0.43694 0.0
C895 C 0.72374 0.44909 0.34125 0.0
C896 C 0.70241 0.46776 0.32249 0.0
C897 C 0.6772 0.46434 0.32888 0.0
C898 C 0.67315 0.44305 0.3528 0.0
C899 C 0.6945 0.42494 0.37054 0.0
C900 C 0.71933 0.42769 0.36519 0.0
C901 C 0.73905 0.40488 0.38724 0.0
C902 C 0.7649 0.38956 0.36409 0.0
C903 C 0.74685 0.41417 0.41325 0.0
C904 C 0.72141 0.38901 0.40578 0.0
C905 C 0.69581 0.40101 0.39555 0.0
C906 C 0.67614 0.38991 0.40802 0.0
C907 C 0.6827 0.36595 0.43124 0.0
C908 C 0.70875 0.35295 0.44239 0.0
C909 C 0.72825 0.365 0.4295 0.0
H910 H 0.53187 0.02564 0.55564 0.0
H911 H 0.52507 0.95338 0.61371 0.0
H912 H 0.56608 0.94271 0.63944 0.0
H913 H 0.60629 1.00107 0.53663 0.0
H914 H 0.60788 0.0303 0.54082 0.0
H915 H 0.5783 0.03167 0.52724 0.0
H916 H 0.54602 0.0547 0.577 0.0
H917 H 0.57538 0.05369 0.59067 0.0
H918 H 0.55196 0.0402 0.62094 0.0
H919 H 0.6075 0.94048 0.65907 0.0
H920 H 0.64581 0.94691 0.67177 0.0
H921 H 0.62522 1.02059 0.60007 0.0
C922 C 0.53915 1.00744 0.57353 0.0
C923 C 0.52553 0.99019 0.58262 0.0
C924 C 0.53537 0.96677 0.60643 0.0
C925 C 0.5586 0.96057 0.62109 0.0
C926 C 0.57161 0.97804 0.61152 0.0
C927 C 0.56223 1.00098 0.58825 0.0
C928 C 0.5796 1.01661 0.58247 0.0
C929 C 0.59391 1.02008 0.54454 0.0
C930 C 0.56221 0.04285 0.59347 0.0
C931 C 0.6001 0.99904 0.60648 0.0
C932 C 0.59527 0.97682 0.62285 0.0
C933 C 0.61155 0.95774 0.64629 0.0
C934 C 0.63331 0.9615 0.65321 0.0
C935 C 0.63847 0.98422 0.63685 0.0
C936 C 0.62161 1.00314 0.61317 0.0
H937 H 0.96009 0.94896 0.98544 0.0
H938 H 0.00313 0.98652 0.89666 0.0
H939 H -0.00723 0.96762 0.85794 0.0
H940 H -0.01333 0.89006 0.95725 0.0
H941 H 0.95571 0.88345 0.97353 0.0
H942 H 0.96281 0.90311 0.99373 0.0
H943 H 0.91521 0.941 0.98263 0.0
H944 H 0.90879 0.91955 0.96471 0.0
H945 H 0.90661 0.95093 0.93984 0.0
H946 H -0.02087 0.94484 0.82877 0.0
H947 H 0.9735 0.91048 0.81174 0.0
H948 H 0.94293 0.88383 0.91888 0.0
C949 C 0.96712 0.95324 0.95782 0.0
C950 C -0.01751 0.96906 0.94399 0.0
C951 C -0.00835 0.97413 0.90782 0.0
C952 C -0.01447 0.96382 0.88554 0.0
C953 C 0.97025 0.94844 0.89979 0.0
C954 C 0.96166 0.94261 0.93509 0.0
C955 C 0.94886 0.9227 0.94369 0.0
C956 C 0.96446 0.89839 0.9685 0.0
C957 C 0.91803 0.93423 0.95861 0.0
C958 C 0.95289 0.91748 0.90789 0.0
C959 C 0.96394 0.93359 0.88288 0.0
C960 C 0.97033 0.93216 0.84799 0.0
C961 C 0.96684 0.91273 0.83853 0.0
C962 C 0.9577 0.89467 0.86403 0.0
C963 C 0.9497 0.89762 0.89896 0.0
H964 H 0.08405 0.11623 0.94395 0.0
H965 H 0.15976 0.05364 0.91309 0.0
H966 H 0.18671 0.07827 0.91438 0.0
H967 H 0.10375 0.16781 0.89559 0.0
H968 H 0.08684 0.18736 0.92838 0.0
H969 H 0.07385 0.16456 0.92539 0.0
H970 H 0.07794 0.14303 0.9897 0.0
H971 H 0.091 0.16574 0.99294 0.0
H972 H 0.11063 0.13155 1.0039 0.0
H973 H 0.20497 0.11062 0.91726 0.0
H974 H 0.21316 0.14802 0.922 0.0
H975 H 0.1253 0.18795 0.95334 0.0
C976 C 0.10632 0.10746 0.93794 0.0
C977 C 0.11983 0.08299 0.92848 0.0
C978 C 0.14898 0.0725 0.92002 0.0
C979 C 0.16444 0.08624 0.92095 0.0
C980 C 0.15039 0.11028 0.93059 0.0
C981 C 0.12198 0.12072 0.93905 0.0
C982 C 0.1117 0.147 0.94808 0.0
C983 C 0.09294 0.16791 0.92285 0.0
C984 C 0.09696 0.1468 0.98591 0.0
C985 C 0.13877 0.14992 0.94303 0.0
C986 C 0.16087 0.12856 0.93294 0.0
C987 C 0.18786 0.12735 0.92539 0.0
C988 C 0.19229 0.14865 0.92802 0.0
C989 C 0.16985 0.17067 0.93823 0.0
C990 C 0.14285 0.17114 0.94608 0.0
H991 H 0.65313 0.60681 0.22023 0.0
H992 H 0.62709 0.56356 0.31827 0.0
H993 H 0.5825 0.60073 0.32537 0.0
H994 H 0.62465 0.6668 0.2509 0.0
H995 H 0.61651 0.68613 0.20919 0.0
H996 H 0.64445 0.65496 0.212 0.0
H997 H 0.62093 0.64257 0.17529 0.0
H998 H 0.59235 0.67336 0.17482 0.0
H999 H 0.58621 0.64391 0.19127 0.0
H1000 H 0.54173 0.6437 0.32357 0.0
H1001 H 0.51049 0.68985 0.31615 0.0
H1002 H 0.56339 0.70659 0.22079 0.0
C1003 C 0.63772 0.605 0.24278 0.0
C1004 C 0.6433 0.58199 0.26836 0.0
C1005 C 0.62311 0.58079 0.29817 0.0
C1006 C 0.59768 0.60183 0.30233 0.0
C1007 C 0.59282 0.62429 0.27677 0.0
C1008 C 0.61248 0.62616 0.2478 0.0
C1009 C 0.60337 0.65342 0.22616 0.0
C1010 C 0.62342 0.66608 0.22444 0.0
C1011 C 0.60055 0.6533 0.18972 0.0
C1012 C 0.5754 0.66654 0.24718 0.0
C1013 C 0.56964 0.64928 0.27615 0.0
C1014 C 0.54589 0.65721 0.3007 0.0
C1015 C 0.52809 0.68345 0.29615 0.0
C1016 C 0.53389 0.70162 0.26727 0.0
C1017 C 0.55775 0.69292 0.24229 0.0
H1018 H 0.34734 0.84227 0.5502 0.0
H1019 H 0.2772 0.89155 0.49788 0.0
H1020 H 0.28749 0.92957 0.4943 0.0
H1021 H 0.33784 0.88384 0.60273 0.0
H1022 H 0.37397 0.87629 0.60037 0.0
H1023 H 0.36314 0.85268 0.59506 0.0
H1024 H 0.39532 0.84916 0.53545 0.0
H1025 H 0.40646 0.87257 0.54089 0.0
H1026 H 0.39239 0.87797 0.50279 0.0
H1027 H 0.30268 0.96262 0.50209 0.0
H1028 H 0.32339 0.98769 0.51748 0.0
H1029 H 0.38305 0.91636 0.56507 0.0
C1030 C 0.33438 0.86103 0.53758 0.0
C1031 C 0.31151 0.86405 0.5243 0.0
C1032 C 0.29504 0.88883 0.50784 0.0
C1033 C 0.30065 0.91051 0.50582 0.0
C1034 C 0.32296 0.90695 0.52004 0.0
C1035 C 0.33978 0.88276 0.53519 0.0
C1036 C 0.36161 0.88421 0.55005 0.0
C1037 C 0.35896 0.87364 0.58938 0.0
C1038 C 0.39066 0.87014 0.53116 0.0
C1039 C 0.35392 0.91306 0.5419 0.0
C1040 C 0.33172 0.92589 0.52437 0.0
C1041 C 0.32027 0.95276 0.51546 0.0
C1042 C 0.332 0.96683 0.52454 0.0
C1043 C 0.35488 0.95394 0.54228 0.0
C1044 C 0.36585 0.92673 0.55099 0.0
H1045 H 0.06261 0.69421 0.80613 0.0
H1046 H 0.01824 0.6985 0.7292 0.0
H1047 H 0.05174 0.65469 0.72011 0.0
H1048 H 0.13003 0.66276 0.76264 0.0
H1049 H 0.14346 0.6433 0.80173 0.0
H1050 H 0.11528 0.67414 0.80295 0.0
H1051 H 0.08593 0.6522 0.8509 0.0
H1052 H 0.11403 0.62125 0.84976 0.0
H1053 H 0.08055 0.62586 0.84338 0.0
H1054 H 0.09272 0.61069 0.71747 0.0
H1055 H 0.1358 0.57165 0.72172 0.0
H1056 H 0.15221 0.59635 0.80163 0.0
C1057 C 0.0597 0.68587 0.78758 0.0
C1058 C 0.03764 0.6998 0.76847 0.0
C1059 C 0.03481 0.68818 0.7443 0.0
C1060 C 0.0538 0.66329 0.73898 0.0
C1061 C 0.07547 0.65018 0.75815 0.0
C1062 C 0.07834 0.66114 0.7821 0.0
C1063 C 0.10368 0.64359 0.79882 0.0
C1064 C 0.12433 0.65673 0.79106 0.0
C1065 C 0.09555 0.63523 0.83804 0.0
C1066 C 0.1149 0.62098 0.7805 0.0
C1067 C 0.09841 0.62508 0.75708 0.0
C1068 C 0.1055 0.60729 0.73603 0.0
C1069 C 0.13007 0.58507 0.73867 0.0
C1070 C 0.14739 0.58054 0.76237 0.0
C1071 C 0.13929 0.59876 0.78377 0.0
H1072 H 0.84489 0.3647 0.52507 0.0
H1073 H 0.76462 0.38198 0.59083 0.0
H1074 H 0.76807 0.41982 0.60206 0.0
H1075 H 0.87634 0.38087 0.57482 0.0
H1076 H 0.89558 0.3955 0.53877 0.0
H1077 H 0.88672 0.37044 0.53393 0.0
H1078 H 0.86328 0.39998 0.48209 0.0
H1079 H 0.87031 0.42655 0.48571 0.0
H1080 H 0.83547 0.43064 0.48689 0.0
H1081 H 0.78108 0.45534 0.60695 0.0
H1082 H 0.80285 0.48507 0.60574 0.0
H1083 H 0.87429 0.44401 0.53653 0.0
C1084 C 0.82784 0.3766 0.54147 0.0
C1085 C 0.8045 0.37035 0.55709 0.0
C1086 C 0.78288 0.38621 0.57892 0.0
C1087 C 0.78454 0.40785 0.58524 0.0
C1088 C 0.8079 0.4134 0.56942 0.0
C1089 C 0.82911 0.39823 0.54796 0.0
C1090 C 0.8522 0.40799 0.53459 0.0
C1091 C 0.87931 0.38748 0.5462 0.0
C1092 C 0.85553 0.41677 0.49497 0.0
C1093 C 0.84099 0.43074 0.5524 0.0
C1094 C 0.81531 0.43373 0.57217 0.0
C1095 C 0.80116 0.4532 0.59149 0.0
C1096 C 0.81375 0.4699 0.59079 0.0
C1097 C 0.84025 0.46692 0.57099 0.0
C1098 C 0.85382 0.44714 0.55142 0.0
H1099 H 0.30045 0.94663 0.20524 0.0
H1100 H 0.31817 0.97077 0.28465 0.0
H1101 H 0.36049 0.93122 0.28937 0.0
H1102 H 0.32204 0.87996 0.24422 0.0
H1103 H 0.33666 0.86865 0.20387 0.0
H1104 H 0.30878 0.89967 0.2051 0.0
H1105 H 0.33839 0.92149 0.15744 0.0
H1106 H 0.36635 0.89049 0.15597 0.0
H1107 H 0.37198 0.91656 0.16385 0.0
H1108 H 0.401 0.88694 0.2871 0.0
H1109 H 0.43456 0.84319 0.27747 0.0
H1110 H 0.38986 0.84824 0.20041 0.0
C1111 C 0.31346 0.94387 0.22317 0.0
C1112 C 0.30586 0.96217 0.2443 0.0
C1113 C 0.32339 0.95729 0.26795 0.0
C1114 C 0.34759 0.93477 0.27088 0.0
C1115 C 0.35427 0.91696 0.25008 0.0
C1116 C 0.33768 0.92134 0.22662 0.0
C1117 C 0.34881 0.89874 0.20824 0.0
C1118 C 0.32782 0.88601 0.21582 0.0
C1119 C 0.35686 0.90734 0.16905 0.0
C1120 C 0.37411 0.88098 0.22502 0.0
C1121 C 0.37709 0.89175 0.24906 0.0
C1122 C 0.39885 0.87846 0.26815 0.0
C1123 C 0.41788 0.85361 0.26254 0.0
C1124 C 0.41501 0.84224 0.23812 0.0
C1125 C 0.39281 0.85635 0.2192 0.0
H1126 H 0.3146 0.4514 0.70453 0.0
H1127 H 0.32009 0.46711 0.79958 0.0
H1128 H 0.36275 0.42781 0.80487 0.0
H1129 H 0.33656 0.38342 0.73189 0.0
H1130 H 0.35564 0.37638 0.69007 0.0
H1131 H 0.32655 0.40647 0.69297 0.0
H1132 H 0.35736 0.43165 0.65739 0.0
H1133 H 0.38656 0.40161 0.65431 0.0
H1134 H 0.3885 0.42573 0.67185 0.0
H1135 H 0.40485 0.38419 0.8009 0.0
H1136 H 0.44096 0.3424 0.78718 0.0
H1137 H 0.40737 0.3563 0.69496 0.0
C1138 C 0.32491 0.44688 0.72624 0.0
C1139 C 0.31381 0.46272 0.75147 0.0
C1140 C 0.32805 0.4556 0.77967 0.0
C1141 C 0.35239 0.43317 0.78296 0.0
C1142 C 0.36254 0.41783 0.75785 0.0
C1143 C 0.34922 0.42456 0.72993 0.0
C1144 C 0.36371 0.40458 0.70693 0.0
C1145 C 0.34447 0.39197 0.70539 0.0
C1146 C 0.37469 0.41662 0.67046 0.0
C1147 C 0.38716 0.38548 0.72622 0.0
C1148 C 0.38632 0.39331 0.75557 0.0
C1149 C 0.4057 0.37809 0.77778 0.0
C1150 C 0.42621 0.35437 0.76982 0.0
C1151 C 0.42722 0.34607 0.73988 0.0
C1152 C 0.40742 0.36209 0.71792 0.0
H1153 H 0.15832 0.7915 0.61029 0.0
H1154 H 0.15021 0.77674 0.51634 0.0
H1155 H 0.1042 0.77584 0.54356 0.0
H1156 H 0.12889 0.75032 0.66866 0.0
H1157 H 0.11123 0.77094 0.70013 0.0
H1158 H 0.1422 0.77285 0.672 0.0
H1159 H 0.1163 0.82185 0.6506 0.0
H1160 H 0.08526 0.82018 0.67898 0.0
H1161 H 0.08502 0.83286 0.63328 0.0
H1162 H 0.06137 0.77172 0.58402 0.0
H1163 H 0.02358 0.76843 0.63228 0.0
H1164 H 0.05937 0.78769 0.69881 0.0
C1165 C 0.14654 0.78866 0.59523 0.0
C1166 C 0.15744 0.78471 0.56095 0.0
C1167 C 0.14177 0.78065 0.54214 0.0
C1168 C 0.11576 0.77984 0.5576 0.0
C1169 C 0.10571 0.78348 0.59173 0.0
C1170 C 0.12047 0.78822 0.6101 0.0
C1171 C 0.10561 0.79072 0.6467 0.0
C1172 C 0.12302 0.76997 0.67343 0.0
C1173 C 0.09757 0.81803 0.65273 0.0
C1174 C 0.08048 0.78597 0.64643 0.0
C1175 C 0.08088 0.78177 0.61456 0.0
C1176 C 0.06061 0.77541 0.60889 0.0
C1177 C 0.03932 0.77347 0.63647 0.0
C1178 C 0.03842 0.77806 0.66915 0.0
C1179 C 0.05924 0.7845 0.67397 0.0
H1180 H 0.21473 0.93658 0.28802 0.0
H1181 H 0.20876 0.98667 0.35287 0.0
H1182 H 0.20915 0.95167 0.40457 0.0
H1183 H 0.16962 0.90687 0.34883 0.0
H1184 H 0.18931 0.87566 0.33706 0.0
H1185 H 0.18885 0.90452 0.30568 0.0
H1186 H 0.24223 0.88683 0.29622 0.0
H1187 H 0.24284 0.85797 0.32767 0.0
H1188 H 0.2595 0.87722 0.33288 0.0
H1189 H 0.21389 0.90881 0.44908 0.0
H1190 H 0.21672 0.86532 0.48226 0.0
H1191 H 0.21525 0.84474 0.38894 0.0
C1192 C 0.21327 0.94032 0.31314 0.0
C1193 C 0.21169 0.96455 0.31626 0.0
C1194 C 0.2098 0.96847 0.34971 0.0
C1195 C 0.21016 0.94857 0.37923 0.0
C1196 C 0.21199 0.92484 0.37514 0.0
C1197 C 0.21307 0.92086 0.34288 0.0
C1198 C 0.21432 0.89391 0.34531 0.0
C1199 C 0.18901 0.89533 0.33352 0.0
C1200 C 0.24132 0.87805 0.32427 0.0
C1201 C 0.21377 0.88318 0.38398 0.0
C1202 C 0.21294 0.90112 0.40071 0.0
C1203 C 0.21402 0.89492 0.43616 0.0
C1204 C 0.21568 0.87007 0.45487 0.0
C1205 C 0.21562 0.85164 0.43855 0.0
C1206 C 0.21464 0.8585 0.4025 0.0
H1207 H -0.01314 0.66213 0.61787 0.0
H1208 H 0.92211 0.72623 0.56745 0.0
H1209 H 0.92296 0.69806 0.53167 0.0
H1210 H 0.02451 0.63308 0.54262 0.0
H1211 H 0.03215 0.60005 0.56433 0.0
H1212 H 0.02965 0.62357 0.587 0.0
H1213 H -0.00724 0.61533 0.63517 0.0
H1214 H -0.00737 0.59048 0.61748 0.0
H1215 H 0.9612 0.61753 0.62571 0.0
H1216 H 0.92503 0.66134 0.5096 0.0
H1217 H 0.93156 0.6194 0.49842 0.0
H1218 H -0.00247 0.58005 0.55932 0.0
C1219 C 0.97362 0.67055 0.59835 0.0
C1220 C 0.95448 0.69638 0.59537 0.0
C1221 C 0.93682 0.70641 0.57031 0.0
C1222 C 0.93726 0.69061 0.54975 0.0
C1223 C 0.95572 0.66495 0.55426 0.0
C1224 C 0.97387 0.6551 0.57756 0.0
C1225 C -0.0101 0.62639 0.57975 0.0
C1226 C 0.0209 0.62037 0.56777 0.0
C1227 C -0.01618 0.61156 0.61668 0.0
C1228 C 0.97771 0.62147 0.55439 0.0
C1229 C 0.95783 0.64396 0.54016 0.0
C1230 C 0.94113 0.64375 0.51965 0.0
C1231 C 0.94483 0.61994 0.5136 0.0
C1232 C 0.96534 0.5969 0.52753 0.0
C1233 C -0.01773 0.59767 0.54764 0.0
H1234 H 0.28672 0.79897 0.41071 0.0
H1235 H 0.30916 0.71841 0.46047 0.0
H1236 H 0.35774 0.7094 0.43169 0.0
H1237 H 0.32735 0.79158 0.33135 0.0
H1238 H 0.33763 0.81822 0.32501 0.0
H1239 H 0.30548 0.81874 0.35207 0.0
H1240 H 0.32023 0.82494 0.4033 0.0
H1241 H 0.35236 0.82484 0.37624 0.0
H1242 H 0.35251 0.8025 0.41707 0.0
H1243 H 0.40127 0.7083 0.38945 0.0
H1244 H 0.43879 0.71626 0.34391 0.0
H1245 H 0.38924 0.79831 0.32717 0.0
C1246 C 0.3021 0.77958 0.41604 0.0
C1247 C 0.29458 0.75927 0.43745 0.0
C1248 C 0.31487 0.73413 0.44418 0.0
C1249 C 0.34237 0.72888 0.42791 0.0
C1250 C 0.34911 0.74923 0.40605 0.0
C1251 C 0.3297 0.77423 0.40095 0.0
C1252 C 0.34209 0.79259 0.37589 0.0
C1253 C 0.32725 0.80605 0.34421 0.0
C1254 C 0.34179 0.81238 0.39422 0.0
C1255 C 0.37116 0.77379 0.36619 0.0
C1256 C 0.3748 0.74885 0.38377 0.0
C1257 C 0.39899 0.72781 0.37634 0.0
C1258 C 0.42006 0.73243 0.35043 0.0
C1259 C 0.41684 0.75787 0.33293 0.0
C1260 C 0.39228 0.77878 0.34109 0.0
H1261 H 0.23247 0.11504 0.21383 0.0
H1262 H 0.24456 0.06013 0.15275 0.0
H1263 H 0.24559 0.09324 0.09909 0.0
H1264 H 0.18906 0.17203 0.16213 0.0
H1265 H 0.204 0.19272 0.16728 0.0
H1266 H 0.20352 0.16497 0.2005 0.0
H1267 H 0.25654 0.14819 0.19607 0.0
H1268 H 0.25716 0.17593 0.1629 0.0
H1269 H 0.27833 0.14387 0.15462 0.0
H1270 H 0.24254 0.13444 0.05156 0.0
H1271 H 0.24108 0.17691 0.01541 0.0
H1272 H 0.2353 0.20335 0.1073 0.0
C1273 C 0.23547 0.10989 0.18915 0.0
C1274 C 0.23847 0.08481 0.18765 0.0
C1275 C 0.24237 0.07903 0.15471 0.0
C1276 C 0.24284 0.09784 0.12405 0.0
C1277 C 0.23971 0.12241 0.1265 0.0
C1278 C 0.23646 0.12828 0.15831 0.0
C1279 C 0.23433 0.15578 0.15405 0.0
C1280 C 0.20605 0.17234 0.17206 0.0
C1281 C 0.258 0.15594 0.16772 0.0
C1282 C 0.23718 0.16449 0.11487 0.0
C1283 C 0.23966 0.1452 0.0994 0.0
C1284 C 0.24103 0.14942 0.06354 0.0
C1285 C 0.24014 0.17367 0.04313 0.0
C1286 C 0.23865 0.19338 0.05826 0.0
C1287 C 0.23711 0.18853 0.09473 0.0
H1288 H 0.78153 0.78029 0.89748 0.0
H1289 H 0.81055 0.73087 0.99228 0.0
H1290 H 0.85769 0.72998 0.96698 0.0
H1291 H 0.83799 0.7503 0.83924 0.0
H1292 H 0.8377 0.7797 0.80923 0.0
H1293 H 0.80621 0.77831 0.83628 0.0
H1294 H 0.79892 0.81789 0.86015 0.0
H1295 H 0.83047 0.81943 0.83309 0.0
H1296 H 0.82574 0.81698 0.8792 0.0
H1297 H 0.9022 0.73338 0.92938 0.0
H1298 H 0.94008 0.73881 0.88217 0.0
H1299 H 0.88089 0.78435 0.81239 0.0
C1300 C 0.79778 0.76932 0.91298 0.0
C1301 C 0.7926 0.75561 0.94673 0.0
C1302 C 0.81425 0.74161 0.96637 0.0
C1303 C 0.84098 0.74106 0.95225 0.0
C1304 C 0.84544 0.75476 0.91866 0.0
C1305 C 0.82434 0.76867 0.8994 0.0
C1306 C 0.83442 0.78091 0.8635 0.0
C1307 C 0.82875 0.77173 0.83543 0.0
C1308 C 0.82163 0.81055 0.85871 0.0
C1309 C 0.86483 0.77052 0.86474 0.0
C1310 C 0.8708 0.7561 0.89701 0.0
C1311 C 0.89772 0.74465 0.90406 0.0
C1312 C 0.91904 0.74779 0.87723 0.0
C1313 C 0.91321 0.76165 0.8438 0.0
C1314 C 0.88581 0.77332 0.83769 0.0
H1315 H 0.23243 0.61468 0.71166 0.0
H1316 H 0.24395 0.56061 0.64961 0.0
H1317 H 0.24349 0.59459 0.59649 0.0
H1318 H 0.18786 0.67172 0.66393 0.0
H1319 H 0.20312 0.69236 0.66849 0.0
H1320 H 0.20407 0.66393 0.70105 0.0
H1321 H 0.25726 0.64762 0.6932 0.0
H1322 H 0.25648 0.67609 0.6608 0.0
H1323 H 0.27745 0.64453 0.65064 0.0
H1324 H 0.23763 0.63726 0.55005 0.0
H1325 H 0.234 0.68064 0.51527 0.0
H1326 H 0.23154 0.70479 0.60757 0.0
C1327 C 0.23504 0.60984 0.68688 0.0
C1328 C 0.23799 0.58486 0.685 0.0
C1329 C 0.2416 0.57947 0.6519 0.0
C1330 C 0.24125 0.59878 0.62157 0.0
C1331 C 0.23789 0.62334 0.62451 0.0
C1332 C 0.23545 0.62862 0.65643 0.0
C1333 C 0.2331 0.65609 0.6529 0.0
C1334 C 0.2054 0.67195 0.67277 0.0
C1335 C 0.25753 0.65607 0.6651 0.0
C1336 C 0.23436 0.66573 0.61401 0.0
C1337 C 0.2366 0.64677 0.59803 0.0
C1338 C 0.23638 0.65193 0.56242 0.0
C1339 C 0.2342 0.67672 0.54281 0.0
C1340 C 0.23295 0.69611 0.55843 0.0
C1341 C 0.23304 0.69031 0.59461 0.0
H1342 H 0.33203 1.02 0.42371 0.0
H1343 H 0.33316 0.0775 0.32935 0.0
H1344 H 0.36976 0.08433 0.34555 0.0
H1345 H 0.34378 0.05265 0.47721 0.0
H1346 H 0.36575 0.02371 0.50172 0.0
H1347 H 0.33901 0.02285 0.48436 0.0
H1348 H 0.37432 0.98665 0.45217 0.0
H1349 H 0.40129 0.98634 0.4702 0.0
H1350 H 0.40439 0.99088 0.42393 0.0
H1351 H 0.40643 0.08479 0.37207 0.0
H1352 H 0.4422 0.07693 0.40538 0.0
H1353 H 0.41844 1.01768 0.48056 0.0
C1354 C 0.34012 0.03387 0.40625 0.0
C1355 C 0.32964 0.04826 0.37527 0.0
C1356 C 0.34053 0.06653 0.35348 0.0
C1357 C 0.36142 0.07047 0.36237 0.0
C1358 C 0.37122 0.05597 0.39309 0.0
C1359 C 0.36102 0.03796 0.41461 0.0
C1360 C 0.37519 0.02481 0.44606 0.0
C1361 C 0.35467 0.03139 0.47931 0.0
C1362 C 0.38966 0.99543 0.44816 0.0
C1363 C 0.39572 0.03748 0.43818 0.0
C1364 C 0.39271 0.05581 0.40792 0.0
C1365 C 0.40902 0.07043 0.39577 0.0
C1366 C 0.42919 0.0659 0.41487 0.0
C1367 C 0.43302 0.04671 0.44543 0.0
C1368 C 0.41592 0.03249 0.45728 0.0
H1369 H 0.80938 0.88615 0.01777 0.0
H1370 H 0.88146 0.81448 0.02368 0.0
H1371 H 0.90896 0.83758 0.02784 0.0
H1372 H 0.848 0.92982 0.96934 0.0
H1373 H 0.82473 0.95481 0.99323 0.0
H1374 H 0.81238 0.93365 0.98376 0.0
H1375 H 0.79473 0.92164 0.04934 0.0
H1376 H 0.80759 0.9422 0.05907 0.0
H1377 H 0.81861 0.90855 0.07953 0.0
H1378 H 0.92594 0.86625 0.04225 0.0
H1379 H 0.93302 0.9002 0.05893 0.0
H1380 H 0.85018 0.95346 0.04283 0.0
C1381 C 0.83117 0.87554 0.01886 0.0
C1382 C 0.8434 0.84862 0.02032 0.0
C1383 C 0.87186 0.8352 0.02201 0.0
C1384 C 0.88758 0.84813 0.02454 0.0
C1385 C 0.87456 0.87447 0.02477 0.0
C1386 C 0.84716 0.88819 0.02116 0.0
C1387 C 0.83754 0.91588 0.02501 0.0
C1388 C 0.83024 0.93465 0.99079 0.0
C1389 C 0.81319 0.92243 0.05502 0.0
C1390 C 0.86335 0.91517 0.03329 0.0
C1391 C 0.88454 0.89118 0.03272 0.0
C1392 C 0.90969 0.88525 0.04216 0.0
C1393 C 0.91339 0.90448 0.05202 0.0
C1394 C 0.89207 0.92927 0.05221 0.0
C1395 C 0.86683 0.93468 0.04256 0.0
H1396 H 0.62196 0.17164 0.52624 0.0
H1397 H 0.57916 0.23985 0.45482 0.0
H1398 H 0.55558 0.21633 0.44255 0.0
H1399 H 0.63679 0.12782 0.47653 0.0
H1400 H 0.63131 0.10243 0.511 0.0
H1401 H 0.64099 0.1256 0.51986 0.0
H1402 H 0.59781 0.13734 0.56741 0.0
H1403 H 0.58799 0.11399 0.55899 0.0
H1404 H 0.56413 0.14713 0.55686 0.0
H1405 H 0.54276 0.18416 0.43036 0.0
H1406 H 0.53878 0.14576 0.42232 0.0
H1407 H 0.58898 0.09805 0.50209 0.0
C1408 C 0.60711 0.18179 0.50868 0.0
C1409 C 0.60228 0.20768 0.49174 0.0
C1410 C 0.5828 0.22025 0.46876 0.0
C1411 C 0.56937 0.20699 0.46143 0.0
C1412 C 0.57539 0.18125 0.47753 0.0
C1413 C 0.59342 0.16884 0.50113 0.0
C1414 C 0.59789 0.1405 0.5126 0.0
C1415 C 0.62856 0.12308 0.50449 0.0
C1416 C 0.58626 0.13438 0.55126 0.0
C1417 C 0.58091 0.13868 0.49014 0.0
C1418 C 0.56775 0.1625 0.47056 0.0
C1419 C 0.55241 0.16549 0.44614 0.0
C1420 C 0.55031 0.14354 0.44173 0.0
C1421 C 0.56349 0.11891 0.46164 0.0
C1422 C 0.57884 0.11658 0.48629 0.0
H1423 H 0.79667 0.43874 0.28928 0.0
H1424 H 0.83085 0.48858 0.2089 0.0
H1425 H 0.87622 0.45188 0.20359 0.0
H1426 H 0.85957 0.39671 0.32844 0.0
H1427 H 0.85258 0.36811 0.33512 0.0
H1428 H 0.8245 0.39913 0.33585 0.0
H1429 H 0.80656 0.39199 0.28785 0.0
H1430 H 0.83471 0.36109 0.28754 0.0
H1431 H 0.82958 0.38482 0.24794 0.0
H1432 H 0.91812 0.40873 0.20652 0.0
H1433 H 0.94966 0.36263 0.21012 0.0
H1434 H 0.88644 0.3402 0.2833 0.0
C1435 C 0.81391 0.44196 0.27102 0.0
C1436 C 0.81048 0.46663 0.24995 0.0
C1437 C 0.83318 0.46994 0.22554 0.0
C1438 C 0.85903 0.4492 0.22252 0.0
C1439 C 0.86181 0.42504 0.24364 0.0
C1440 C 0.83965 0.42126 0.26702 0.0
C1441 C 0.84711 0.39289 0.28396 0.0
C1442 C 0.84585 0.38898 0.32317 0.0
C1443 C 0.82839 0.38206 0.27635 0.0
C1444 C 0.87671 0.38117 0.26597 0.0
C1445 C 0.88515 0.40012 0.24366 0.0
C1446 C 0.91168 0.39384 0.2241 0.0
C1447 C 0.92963 0.36761 0.22655 0.0
C1448 C 0.9209 0.34786 0.24792 0.0
C1449 C 0.89411 0.35489 0.26793 0.0
H1450 H 0.12284 0.58942 0.43726 0.0
H1451 H 0.03691 0.62217 0.48367 0.0
H1452 H 0.0431 0.66095 0.48697 0.0
H1453 H 0.14931 0.61134 0.48853 0.0
H1454 H 0.17511 0.61809 0.45371 0.0
H1455 H 0.16366 0.59334 0.45399 0.0
H1456 H 0.15069 0.61593 0.39289 0.0
H1457 H 0.16219 0.64071 0.39238 0.0
H1458 H 0.12761 0.6494 0.38565 0.0
H1459 H 0.05871 0.69589 0.48532 0.0
H1460 H 0.08313 0.7244 0.47991 0.0
H1461 H 0.15896 0.66834 0.43557 0.0
C1462 C 0.10538 0.60486 0.44794 0.0
C1463 C 0.07948 0.60294 0.46046 0.0
C1464 C 0.05701 0.62332 0.47443 0.0
C1465 C 0.06029 0.64539 0.47623 0.0
C1466 C 0.08619 0.64662 0.46403 0.0
C1467 C 0.10837 0.62691 0.45021 0.0
C1468 C 0.13413 0.63284 0.43957 0.0
C1469 C 0.15689 0.61271 0.46019 0.0
C1470 C 0.14424 0.63484 0.40029 0.0
C1471 C 0.12301 0.65887 0.44975 0.0
C1472 C 0.09527 0.66658 0.46357 0.0
C1473 C 0.08043 0.69008 0.47455 0.0
C1474 C 0.09439 0.70614 0.47131 0.0
C1475 C 0.12286 0.69842 0.45753 0.0
C1476 C 0.13725 0.67451 0.44663 0.0
H1477 H 0.65518 0.09585 0.79923 0.0
H1478 H 0.64065 0.07656 0.71278 0.0
H1479 H 0.59906 0.11693 0.70794 0.0
H1480 H 0.58273 0.12555 0.83743 0.0
H1481 H 0.5882 0.15006 0.84978 0.0
H1482 H 0.61577 0.11896 0.84738 0.0
H1483 H 0.64726 0.14124 0.80486 0.0
H1484 H 0.61976 0.17238 0.80693 0.0
H1485 H 0.63589 0.16283 0.76561 0.0
H1486 H 0.55932 0.16199 0.71083 0.0
H1487 H 0.52597 0.2052 0.72288 0.0
H1488 H 0.56696 0.19399 0.80725 0.0
C1489 C 0.64304 0.0998 0.77964 0.0
C1490 C 0.65132 0.08267 0.7566 0.0
C1491 C 0.63483 0.08907 0.73102 0.0
C1492 C 0.61111 0.11211 0.72797 0.0
C1493 C 0.60383 0.12876 0.75072 0.0
C1494 C 0.6193 0.12271 0.77624 0.0
C1495 C 0.60769 0.14404 0.79691 0.0
C1496 C 0.59802 0.13406 0.83514 0.0
C1497 C 0.62891 0.15582 0.79335 0.0
C1498 C 0.58343 0.16314 0.77902 0.0
C1499 C 0.58138 0.15414 0.75238 0.0
C1500 C 0.56075 0.16904 0.73182 0.0
C1501 C 0.54186 0.19361 0.73876 0.0
C1502 C 0.54371 0.20305 0.76603 0.0
C1503 C 0.5648 0.18738 0.78629 0.0
H1504 H 0.71072 0.59574 0.17757 0.0
H1505 H 0.79097 0.57248 0.20522 0.0
H1506 H 0.79725 0.61004 0.16353 0.0
H1507 H 0.73085 0.62078 0.08372 0.0
H1508 H 0.69804 0.64739 0.08043 0.0
H1509 H 0.69995 0.61781 0.11099 0.0
H1510 H 0.67581 0.64342 0.15999 0.0
H1511 H 0.67418 0.67324 0.13033 0.0
H1512 H 0.69039 0.66346 0.16798 0.0
H1513 H 0.79471 0.65066 0.12172 0.0
H1514 H 0.78398 0.69227 0.08146 0.0
H1515 H 0.70513 0.69198 0.07745 0.0
C1516 C 0.72976 0.59841 0.17445 0.0
C1517 C 0.75045 0.58084 0.19494 0.0
C1518 C 0.77485 0.58537 0.19011 0.0
C1519 C 0.77862 0.60675 0.16635 0.0
C1520 C 0.7579 0.62377 0.14701 0.0
C1521 C 0.73397 0.6199 0.15042 0.0
C1522 C 0.71495 0.64184 0.1265 0.0
C1523 C 0.7107 0.63133 0.09877 0.0
C1524 C 0.68718 0.65637 0.14747 0.0
C1525 C 0.73161 0.65893 0.1101 0.0
C1526 C 0.75642 0.64773 0.12229 0.0
C1527 C 0.77539 0.65953 0.11194 0.0
C1528 C 0.76895 0.68342 0.08892 0.0
C1529 C 0.74362 0.6959 0.07591 0.0
C1530 C 0.72477 0.68312 0.0865 0.0
H1531 H 0.94208 0.52628 0.40801 0.0
H1532 H 0.90355 0.57054 0.49008 0.0
H1533 H 0.85762 0.58061 0.47778 0.0
H1534 H 0.89126 0.572 0.34951 0.0
H1535 H 0.89275 0.54628 0.332 0.0
H1536 H 0.92264 0.54369 0.34628 0.0
H1537 H 0.92451 0.50061 0.38531 0.0
H1538 H 0.89383 0.50279 0.37379 0.0
H1539 H 0.8956 0.49873 0.41873 0.0
H1540 H 0.81601 0.58318 0.45947 0.0
H1541 H 0.78138 0.57999 0.43415 0.0
H1542 H 0.84703 0.53562 0.36237 0.0
C1543 C 0.92397 0.53835 0.42305 0.0
C1544 C 0.9262 0.54708 0.45062 0.0
C1545 C 0.90215 0.56301 0.46957 0.0
C1546 C 0.87601 0.56907 0.46253 0.0
C1547 C 0.87439 0.5597 0.43571 0.0
C1548 C 0.8977 0.54514 0.41577 0.0
C1549 C 0.89009 0.53761 0.38838 0.0
C1550 C 0.89975 0.55068 0.35188 0.0
C1551 C 0.90166 0.50816 0.39186 0.0
C1552 C 0.85898 0.54873 0.39757 0.0
C1553 C 0.85032 0.56181 0.42453 0.0
C1554 C 0.82252 0.57317 0.43813 0.0
C1555 C 0.80303 0.57106 0.42379 0.0
C1556 C 0.81148 0.55753 0.39631 0.0
C1557 C 0.83986 0.54643 0.38298 0.0
H1558 H 0.10813 0.52228 0.64291 0.0
H1559 H 0.17102 0.46148 0.59082 0.0
H1560 H 0.1349 0.45735 0.56931 0.0
H1561 H 0.05514 0.49604 0.66976 0.0
H1562 H 0.02773 0.52727 0.66143 0.0
H1563 H 0.05858 0.5245 0.67347 0.0
H1564 H 0.06472 0.55787 0.61844 0.0
H1565 H 0.03499 0.55985 0.60456 0.0
H1566 H 0.06783 0.55147 0.57646 0.0
H1567 H 0.09177 0.46052 0.55301 0.0
H1568 H 0.04513 0.4712 0.54215 0.0
H1569 H 0.0108 0.53009 0.6049 0.0
C1570 C 0.11429 0.50776 0.6275 0.0
C1571 C 0.14231 0.49203 0.61876 0.0
C1572 C 0.14963 0.47378 0.59768 0.0
C1573 C 0.12928 0.47121 0.58553 0.0
C1574 C 0.10181 0.48706 0.5947 0.0
C1575 C 0.09434 0.50497 0.61518 0.0
C1576 C 0.06361 0.52051 0.62001 0.0
C1577 C 0.0505 0.51684 0.65846 0.0
C1578 C 0.05748 0.54913 0.60392 0.0
C1579 C 0.05473 0.50828 0.59962 0.0
C1580 C 0.0771 0.48908 0.58507 0.0
C1581 C 0.07413 0.47544 0.56437 0.0
C1582 C 0.04761 0.48168 0.55831 0.0
C1583 C 0.02451 0.50139 0.5728 0.0
C1584 C 0.02812 0.51472 0.59388 0.0
H1585 H 0.56761 0.77528 0.20487 0.0
H1586 H 0.51799 0.79857 0.12492 0.0
H1587 H 0.55635 0.80613 0.08044 0.0
H1588 H 0.60297 0.81879 0.16922 0.0
H1589 H 0.63535 0.79519 0.1815 0.0
H1590 H 0.60338 0.79343 0.20676 0.0
H1591 H 0.61958 0.74638 0.19852 0.0
H1592 H 0.65166 0.74793 0.17351 0.0
H1593 H 0.63051 0.7396 0.15534 0.0
H1594 H 0.60011 0.81282 0.04551 0.0
H1595 H 0.64759 0.81129 0.0219 0.0
H1596 H 0.66913 0.7788 0.12483 0.0
C1597 C 0.56478 0.78218 0.17799 0.0
C1598 C 0.53991 0.78677 0.16811 0.0
C1599 C 0.53701 0.79511 0.13276 0.0
C1600 C 0.55856 0.79957 0.1075 0.0
C1601 C 0.58287 0.79505 0.11818 0.0
C1602 C 0.58621 0.78603 0.15255 0.0
C1603 C 0.61492 0.78072 0.15722 0.0
C1604 C 0.61409 0.79807 0.18002 0.0
C1605 C 0.63005 0.75195 0.172 0.0
C1606 C 0.62732 0.7882 0.12009 0.0
C1607 C 0.60844 0.79693 0.09797 0.0
C1608 C 0.61517 0.80559 0.06254 0.0
C1609 C 0.64215 0.80456 0.04935 0.0
C1610 C 0.66213 0.79416 0.07141 0.0
C1611 C 0.65437 0.78645 0.10727 0.0
H1612 H 0.63503 0.5077 0.0904 0.0
H1613 H 0.6112 0.48542 0.20124 0.0
H1614 H 0.569 0.48425 0.19126 0.0
H1615 H 0.56921 0.54912 0.0742 0.0
H1616 H 0.57202 0.54138 0.03332 0.0
H1617 H 0.60236 0.53818 0.0471 0.0
H1618 H 0.62636 0.49081 0.04108 0.0
H1619 H 0.59692 0.4924 0.02683 0.0
H1620 H 0.60988 0.46842 0.06362 0.0
H1621 H 0.5275 0.48966 0.16973 0.0
H1622 H 0.49095 0.49806 0.13724 0.0
H1623 H 0.54262 0.51525 0.04079 0.0
C1624 C 0.62127 0.50197 0.11249 0.0
C1625 C 0.62627 0.49672 0.14658 0.0
C1626 C 0.6075 0.48983 0.17492 0.0
C1627 C 0.5836 0.48896 0.16952 0.0
C1628 C 0.57896 0.49481 0.13563 0.0
C1629 C 0.59738 0.50091 0.10758 0.0
C1630 C 0.58681 0.50767 0.07395 0.0
C1631 C 0.58236 0.53576 0.05605 0.0
C1632 C 0.60616 0.48869 0.04995 0.0
C1633 C 0.55962 0.5044 0.08747 0.0
C1634 C 0.55536 0.49717 0.12315 0.0
C1635 C 0.53081 0.49483 0.14173 0.0
C1636 C 0.51018 0.49975 0.1232 0.0
C1637 C 0.51457 0.50655 0.08666 0.0
C1638 C 0.53944 0.50901 0.06862 0.0
H1639 H 0.38387 0.42137 0.05117 0.0
H1640 H 0.31758 0.49118 0.0135 0.0
H1641 H 0.29705 0.46472 1.0006 0.0
H1642 H 0.39026 0.38401 0.9894 0.0
H1643 H 0.39713 0.35432 0.02104 0.0
H1644 H 0.40706 0.37903 0.02486 0.0
H1645 H 0.37924 0.37957 0.08707 0.0
H1646 H 0.36918 0.3549 0.08358 0.0
H1647 H 0.3432 0.38497 0.09423 0.0
H1648 H 0.28338 0.43006 0.994 0.0
H1649 H 0.27575 0.39043 0.99805 0.0
H1650 H 0.3509 0.34397 0.04137 0.0
C1651 C 0.3651 0.43102 0.04003 0.0
C1652 C 0.3521 0.45812 0.03334 0.0
C1653 C 0.32751 0.47031 0.01905 0.0
C1654 C 0.31593 0.45548 0.01141 0.0
C1655 C 0.32927 0.42864 0.01845 0.0
C1656 C 0.35323 0.41658 0.03263 0.0
C1657 C 0.36282 0.38755 0.0396 0.0
C1658 C 0.39098 0.37551 0.01737 0.0
C1659 C 0.36364 0.37609 0.07842 0.0
C1660 C 0.34017 0.38504 0.02792 0.0
C1661 C 0.32124 0.40888 0.01521 0.0
C1662 C 0.29815 0.4113 1.00371 0.0
C1663 C 0.29404 0.38876 0.00596 0.0
C1664 C 0.31278 0.36432 0.02004 0.0
C1665 C 0.33629 0.36249 0.03059 0.0
H1666 H 0.06598 0.21197 0.22751 0.0
H1667 H 0.00782 0.19085 0.31262 0.0
H1668 H 0.03945 0.14483 0.31732 0.0
H1669 H 0.09107 0.15238 0.18914 0.0
H1670 H 0.1259 0.15115 0.17721 0.0
H1671 H 0.09723 0.18181 0.17793 0.0
H1672 H 0.11813 0.19184 0.21954 0.0
H1673 H 0.1466 0.16112 0.21944 0.0
H1674 H 0.12563 0.16964 0.25986 0.0
H1675 H 0.0809 0.10223 0.31916 0.0
H1676 H 0.12579 0.06539 0.31229 0.0
H1677 H 0.15618 0.1128 0.22282 0.0
C1678 C 0.05941 0.19745 0.246 0.0
C1679 C 0.03396 0.20486 0.26897 0.0
C1680 C 0.02669 0.1855 0.29401 0.0
C1681 C 0.04472 0.15933 0.29708 0.0
C1682 C 0.07 0.15268 0.27471 0.0
C1683 C 0.07708 0.17112 0.24902 0.0
C1684 C 0.10599 0.15896 0.22924 0.0
C1685 C 0.10498 0.16121 0.19111 0.0
C1686 C 0.12521 0.17112 0.23222 0.0
C1687 C 0.11438 0.131 0.24846 0.0
C1688 C 0.09339 0.12786 0.2748 0.0
C1689 C 0.09716 0.10436 0.29805 0.0
C1690 C 0.12278 0.08354 0.29409 0.0
C1691 C 0.14429 0.08602 0.26669 0.0
C1692 C 0.13986 0.11011 0.24349 0.0
H1693 H 0.20294 0.34992 0.89806 0.0
H1694 H 0.23893 0.35628 0.97644 0.0
H1695 H 0.23936 0.39846 0.94253 0.0
H1696 H 0.243 0.37686 0.82551 0.0
H1697 H 0.21563 0.39343 0.80002 0.0
H1698 H 0.21664 0.36447 0.83145 0.0
H1699 H 0.16717 0.38901 0.86101 0.0
H1700 H 0.16602 0.41806 0.82967 0.0
H1701 H 0.15966 0.41818 0.87531 0.0
H1702 H 0.23638 0.44076 0.89864 0.0
H1703 H 0.23256 0.47705 0.84814 0.0
H1704 H 0.19999 0.44276 0.79739 0.0
C1705 C 0.21052 0.36034 0.90839 0.0
C1706 C 0.22059 0.34964 0.9404 0.0
C1707 C 0.23094 0.36387 0.95227 0.0
C1708 C 0.23123 0.38801 0.9331 0.0
C1709 C 0.22131 0.39794 0.90165 0.0
C1710 C 0.21129 0.38443 0.88928 0.0
C1711 C 0.20311 0.39875 0.85389 0.0
C1712 C 0.22064 0.3824 0.82607 0.0
C1713 C 0.17215 0.40645 0.85505 0.0
C1714 C 0.20991 0.42243 0.84833 0.0
C1715 C 0.22025 0.42173 0.87626 0.0
C1716 C 0.22821 0.44144 0.87675 0.0
C1717 C 0.22586 0.46212 0.84796 0.0
C1718 C 0.21576 0.46305 0.81876 0.0
C1719 C 0.20758 0.44286 0.81933 0.0
H1720 H 0.29605 0.29517 0.91787 0.0
H1721 H 0.30991 0.21405 0.93985 0.0
H1722 H 0.35615 0.20476 0.90297 0.0
H1723 H 0.32756 0.3006 0.83132 0.0
H1724 H 0.34328 0.32179 0.83275 0.0
H1725 H 0.31218 0.32173 0.86226 0.0
H1726 H 0.33601 0.31189 0.91465 0.0
H1727 H 0.36706 0.31245 0.88526 0.0
H1728 H 0.36816 0.28453 0.91896 0.0
H1729 H 0.39838 0.20585 0.85709 0.0
H1730 H 0.43648 0.21571 0.81492 0.0
H1731 H 0.39661 0.29534 0.82809 0.0
C1732 C 0.30919 0.27538 0.91551 0.0
C1733 C 0.29975 0.25523 0.93173 0.0
C1734 C 0.31714 0.2296 0.92797 0.0
C1735 C 0.34326 0.22424 0.90686 0.0
C1736 C 0.35179 0.24469 0.89043 0.0
C1737 C 0.33554 0.26964 0.8954 0.0
C1738 C 0.34948 0.28816 0.87527 0.0
C1739 C 0.33208 0.30931 0.84884 0.0
C1740 C 0.35554 0.29995 0.90001 0.0
C1741 C 0.3758 0.26992 0.85738 0.0
C1742 C 0.37665 0.24498 0.86602 0.0
C1743 C 0.39816 0.2252 0.85073 0.0
C1744 C 0.41958 0.23098 0.82662 0.0
C1745 C 0.41955 0.25617 0.81861 0.0
C1746 C 0.39732 0.2758 0.83419 0.0
H1747 H 0.41568 0.54661 0.95891 0.0
H1748 H 0.47519 0.47157 0.93926 0.0
H1749 H 0.43792 0.46112 0.93139 0.0
H1750 H 0.35504 0.52895 1.0021 0.0
H1751 H 0.3325 0.55897 0.98046 0.0
H1752 H 0.36385 0.55696 0.99036 0.0
H1753 H 0.37612 0.57518 0.92408 0.0
H1754 H 0.34547 0.57485 0.91565 0.0
H1755 H 0.37875 0.55742 0.89278 0.0
H1756 H 0.39507 0.46005 0.92148 0.0
H1757 H 0.35107 0.47043 0.9035 0.0
H1758 H 0.31886 0.54574 0.93135 0.0
C1759 C 0.4207 0.52789 0.95334 0.0
C1760 C 0.44812 0.50974 0.95003 0.0
C1761 C 0.45423 0.48568 0.94191 0.0
C1762 C 0.43322 0.47952 0.93765 0.0
C1763 C 0.40631 0.4978 0.94114 0.0
C1764 C 0.40002 0.52162 0.94844 0.0
C1765 C 0.37002 0.53887 0.94697 0.0
C1766 C 0.35448 0.54639 0.98209 0.0
C1767 C 0.36745 0.56299 0.91815 0.0
C1768 C 0.36044 0.52092 0.93807 0.0
C1769 C 0.38158 0.49726 0.93508 0.0
C1770 C 0.37821 0.4784 0.92414 0.0
C1771 C 0.35298 0.4844 0.91429 0.0
C1772 C 0.33145 0.50904 0.91561 0.0
C1773 C 0.33497 0.52688 0.92941 0.0
H1774 H 0.62162 0.68953 0.94817 0.0
H1775 H 0.68439 0.64447 0.01366 0.0
H1776 H 0.67661 0.60535 0.01625 0.0
H1777 H 0.57521 0.65667 0.99318 0.0
H1778 H 0.56424 0.6587 0.95411 0.0
H1779 H 0.57494 0.68311 0.95723 0.0
H1780 H 0.61118 0.67449 0.90155 0.0
H1781 H 0.60066 0.65003 0.89829 0.0
H1782 H 0.63629 0.64218 0.89954 0.0
H1783 H 0.66206 0.57102 0.01137 0.0
H1784 H 0.64092 0.54447 1.00088 0.0
H1785 H 0.58744 0.61235 0.9391 0.0
C1786 C 0.63353 0.67154 0.96344 0.0
C1787 C 0.65375 0.67013 0.98054 0.0
C1788 C 0.66914 0.64602 0.99979 0.0
C1789 C 0.66474 0.62371 1.00162 0.0
C1790 C 0.64476 0.62581 0.98428 0.0
C1791 C 0.62929 0.64915 0.96575 0.0
C1792 C 0.60894 0.64628 0.94966 0.0
C1793 C 0.57907 0.66213 0.96443 0.0
C1794 C 0.61463 0.65367 0.90991 0.0
C1795 C 0.61563 0.6176 0.96168 0.0
C1796 C 0.63629 0.60614 0.98167 0.0
C1797 C 0.64588 0.57979 0.99571 0.0
C1798 C 0.63385 0.56483 0.98936 0.0
C1799 C 0.61243 0.57625 0.96918 0.0
C1800 C 0.60347 0.603 0.95504 0.0
H1801 H 0.90579 0.84245 0.78475 0.0
H1802 H 0.94348 0.85642 0.67706 0.0
H1803 H 0.91076 0.90172 0.6701 0.0
H1804 H 0.83716 0.87993 0.77222 0.0
H1805 H 0.82576 0.89311 0.81108 0.0
H1806 H 0.85404 0.86235 0.80944 0.0
H1807 H 0.88535 0.87906 0.82597 0.0
H1808 H 0.85689 0.90974 0.82815 0.0
H1809 H 0.88921 0.9084 0.80062 0.0
H1810 H 0.87106 0.94371 0.6719 0.0
H1811 H 0.82779 0.98091 0.68347 0.0
H1812 H 0.81498 0.94235 0.79049 0.0
C1813 C 0.90755 0.85528 0.76002 0.0
C1814 C 0.92743 0.84579 0.73142 0.0
C1815 C 0.9286 0.86312 0.69933 0.0
C1816 C 0.91006 0.88898 0.6951 0.0
C1817 C 0.89027 0.8976 0.72327 0.0
C1818 C 0.88897 0.88146 0.75529 0.0
C1819 C 0.86455 0.89566 0.7806 0.0
C1820 C 0.84418 0.88194 0.79412 0.0
C1821 C 0.8746 0.89837 0.81062 0.0
C1822 C 0.85197 0.92189 0.75744 0.0
C1823 C 0.86737 0.92248 0.72453 0.0
C1824 C 0.85913 0.94368 0.69775 0.0
C1825 C 0.83446 0.96477 0.70454 0.0
C1826 C 0.8182 0.96488 0.73796 0.0
C1827 C 0.82736 0.94319 0.7649 0.0
H1828 H 0.50101 0.16542 0.58534 0.0
H1829 H 0.42543 0.18079 0.66062 0.0
H1830 H 0.41211 0.15389 0.63735 0.0
H1831 H 0.47102 0.16724 0.51462 0.0
H1832 H 0.5009 0.1415 0.49832 0.0
H1833 H 0.50492 0.16221 0.52011 0.0
H1834 H 0.53053 0.12295 0.56378 0.0
H1835 H 0.52753 0.10184 0.54179 0.0
H1836 H 0.5148 0.10024 0.58765 0.0
H1837 H 0.40756 0.12462 0.6072 0.0
H1838 H 0.4143 0.09141 0.5758 0.0
H1839 H 0.49208 0.09655 0.51904 0.0
C1840 C 0.48158 0.16325 0.59678 0.0
C1841 C 0.46427 0.17511 0.62482 0.0
C1842 C 0.43919 0.17154 0.63945 0.0
C1843 C 0.43127 0.1566 0.62613 0.0
C1844 C 0.44858 0.14555 0.5981 0.0
C1845 C 0.47331 0.14853 0.58373 0.0
C1846 C 0.48865 0.1338 0.5546 0.0
C1847 C 0.49152 0.15231 0.51987 0.0
C1848 C 0.51704 0.11349 0.56246 0.0
C1849 C 0.46902 0.12143 0.55562 0.0
C1850 C 0.44584 0.12879 0.58048 0.0
C1851 C 0.4255 0.11882 0.58744 0.0
C1852 C 0.42946 0.10004 0.5694 0.0
C1853 C 0.4537 0.09136 0.545 0.0
C1854 C 0.4732 0.10289 0.53731 0.0
H1855 H 0.50972 0.37168 0.89411 0.0
H1856 H 0.45135 0.34615 0.9743 0.0
H1857 H 0.45679 0.36785 0.01443 0.0
H1858 H 0.55456 0.36636 0.95147 0.0
H1859 H 0.56049 0.39492 0.92671 0.0
H1860 H 0.55415 0.37525 0.90549 0.0
H1861 H 0.51389 0.41504 0.8814 0.0
H1862 H 0.5195 0.43512 0.90252 0.0
H1863 H 0.4861 0.43332 0.91076 0.0
H1864 H 0.46433 0.39598 0.04304 0.0
H1865 H 0.47153 0.43068 0.05732 0.0
H1866 H 0.52612 0.43689 0.95928 0.0
C1867 C 0.49792 0.37079 0.92005 0.0
C1868 C 0.47998 0.35741 0.93113 0.0
C1869 C 0.46525 0.35628 0.96541 0.0
C1870 C 0.46827 0.36844 0.98834 0.0
C1871 C 0.48625 0.38137 0.9766 0.0
C1872 C 0.50079 0.38266 0.94325 0.0
C1873 C 0.51739 0.39917 0.93632 0.0
C1874 C 0.54849 0.38294 0.92961 0.0
C1875 C 0.50869 0.42203 0.90599 0.0
C1876 C 0.50898 0.40792 0.97058 0.0
C1877 C 0.49139 0.39703 0.99365 0.0
C1878 C 0.4786 0.40415 0.02562 0.0
C1879 C 0.48293 0.42373 0.03359 0.0
C1880 C 0.49987 0.4359 0.00968 0.0
C1881 C 0.51399 0.42712 0.97851 0.0
H1882 H 0.46346 0.87747 0.42464 0.0
H1883 H 0.54685 0.85644 0.36722 0.0
H1884 H 0.55788 0.87842 0.40145 0.0
H1885 H 0.45376 0.9397 0.4265 0.0
H1886 H 0.43393 0.94014 0.46956 0.0
H1887 H 0.43401 0.91959 0.44408 0.0
H1888 H 0.45008 0.88026 0.49366 0.0
H1889 H 0.45042 0.9009 0.51891 0.0
H1890 H 0.48104 0.87314 0.50948 0.0
H1891 H 0.55847 0.90645 0.43636 0.0
H1892 H 0.54763 0.94113 0.46734 0.0
H1893 H 0.4639 0.94399 0.50235 0.0
C1894 C 0.48416 0.87709 0.41992 0.0
C1895 C 0.50433 0.8654 0.39342 0.0
C1896 C 0.5311 0.86556 0.38731 0.0
C1897 C 0.53763 0.87771 0.40684 0.0
C1898 C 0.5172 0.88945 0.43247 0.0
C1899 C 0.49098 0.8893 0.43907 0.0
C1900 C 0.47205 0.90568 0.4655 0.0
C1901 C 0.44699 0.92758 0.45047 0.0
C1902 C 0.46287 0.88899 0.49887 0.0
C1903 C 0.49143 0.91597 0.47138 0.0
C1904 C 0.51753 0.9059 0.45272 0.0
C1905 C 0.53827 0.91418 0.45163 0.0
C1906 C 0.53191 0.93392 0.46925 0.0
C1907 C 0.50496 0.94524 0.48731 0.0
C1908 C 0.48481 0.93551 0.48922 0.0
H1909 H 0.50647 0.58552 0.01125 0.0
H1910 H 0.41846 0.60292 0.03029 0.0
H1911 H 0.40987 0.63899 0.05684 0.0
H1912 H 0.51203 0.59274 0.08501 0.0
H1913 H 0.53551 0.60926 0.07048 0.0
H1914 H 0.53534 0.58922 0.04437 0.0
H1915 H 0.52611 0.62702 0.99173 0.0
H1916 H 0.52775 0.64692 0.01707 0.0
H1917 H 0.49796 0.65731 0.99694 0.0
H1918 H 0.41126 0.66548 0.09239 0.0
H1919 H 0.4221 0.68625 0.12848 0.0
H1920 H 0.50886 0.65402 0.08507 0.0
C1921 C 0.48532 0.59767 0.01943 0.0
C1922 C 0.46317 0.5913 0.01878 0.0
C1923 C 0.43579 0.60733 0.03055 0.0
C1924 C 0.43066 0.62797 0.0456 0.0
C1925 C 0.45303 0.63274 0.04783 0.0
C1926 C 0.47978 0.61868 0.03408 0.0
C1927 C 0.50022 0.62639 0.04292 0.0
C1928 C 0.52203 0.60301 0.06187 0.0
C1929 C 0.51381 0.64023 0.01023 0.0
C1930 C 0.48093 0.6451 0.06644 0.0
C1931 C 0.45377 0.64883 0.06822 0.0
C1932 C 0.43231 0.66339 0.09046 0.0
C1933 C 0.43867 0.67482 0.11109 0.0
C1934 C 0.46623 0.67161 0.1093 0.0
C1935 C 0.48763 0.65684 0.08647 0.0
loop_
_geom_bond_atom_site_label_1
_geom_bond_atom_site_label_2
_geom_bond_distance
_geom_bond_site_symmetry_2
_ccdc_geom_bond_type
C0 Eu1 2.835 . S
C0 C2 1.500 . S
C0 O20 1.257 . S
C0 O21 1.260 . S
Eu1 C0 2.835 . S
Eu1 O20 2.473 . S
Eu1 O21 2.480 . S
Eu1 O22 2.430 1_455 S
Eu1 O23 2.670 1_455 S
Eu1 O24 2.414 1_455 S
Eu1 O29 2.355 1_546 S
Eu1 O31 2.374 1_545 S
C2 C0 1.500 . S
C2 C3 1.377 . S
C2 C7 1.377 . S
C3 C2 1.377 . S
C3 C4 1.395 . S
C3 H32 0.931 . S
C4 C3 1.395 . S
C4 C5 1.383 . S
C4 H33 0.931 . S
C5 C4 1.383 . S
C5 C6 1.394 . S
C6 C5 1.394 . S
C6 C7 1.378 . S
C6 H34 0.931 . S
C7 C2 1.377 . S
C7 C6 1.378 . S
C7 H35 0.931 . S
C8 O22 1.259 . S
C8 O23 1.270 . S
C9 O24 1.222 1_554 S
C9 O25 1.251 . S
C10 Eu11 2.835 . S
C10 C12 1.500 . S
C10 O26 1.257 . S
C10 O27 1.260 . S
Eu11 C10 2.835 . S
Eu11 O23 2.355 1_564 S
Eu11 O25 2.374 1_565 S
Eu11 O26 2.473 . S
Eu11 O27 2.480 . S
Eu11 O28 2.430 1_655 S
Eu11 O29 2.670 1_655 S
Eu11 O30 2.394 1_655 S
C12 C10 1.500 . S
C12 C13 1.377 . S
C12 C17 1.377 . S
C13 C12 1.377 . S
C13 C14 1.395 . S
C13 H36 0.931 . S
C14 C13 1.395 . S
C14 C15 1.383 . S
C14 H37 0.931 . S
C15 C14 1.383 . S
C15 C16 1.394 . S
C16 C15 1.394 . S
C16 C17 1.378 . S
C16 H38 0.931 . S
C17 C12 1.377 . S
C17 C16 1.378 . S
C17 H39 0.931 . S
C18 O28 1.259 . S
C18 O29 1.270 . S
C19 O30 1.251 1_556 S
C19 O31 1.251 . S
O20 C0 1.257 . S
O20 Eu1 2.473 . S
O21 C0 1.260 . S
O21 Eu1 2.480 . S
O22 Eu1 2.430 1_655 S
O22 C8 1.259 . S
O23 Eu1 2.670 1_655 S
O23 C8 1.270 . S
O23 Eu11 2.355 1_546 S
O24 Eu1 2.414 1_655 S
O24 C9 1.222 1_556 S
O25 C9 1.251 . S
O25 Eu11 2.374 1_545 S
O26 C10 1.257 . S
O26 Eu11 2.473 . S
O27 C10 1.260 . S
O27 Eu11 2.480 . S
O28 Eu11 2.430 1_455 S
O28 C18 1.259 . S
O29 Eu1 2.355 1_564 S
O29 Eu11 2.670 1_455 S
O29 C18 1.270 . S
O30 Eu11 2.394 1_455 S
O30 C19 1.251 1_554 S
O31 Eu1 2.374 1_565 S
O31 C19 1.251 . S
H32 C3 0.931 . S
H33 C4 0.931 . S
H34 C6 0.931 . S
H35 C7 0.931 . S
H36 C13 0.931 . S
H37 C14 0.931 . S
H38 C16 0.931 . S
H39 C17 0.931 . S
C40 Eu41 2.835 . S
C40 C42 1.500 1_655 S
C40 O60 1.257 1_655 S
C40 O61 1.260 . S
Eu41 C40 2.835 . S
Eu41 O60 2.473 1_655 S
Eu41 O61 2.480 . S
Eu41 O62 2.430 . S
Eu41 O63 2.670 . S
Eu41 O64 2.394 1_655 S
Eu41 O69 2.355 1_655 S
Eu41 O71 2.374 . S
C42 C40 1.500 1_455 S
C42 C43 1.377 1_455 S
C42 C47 1.377 . S
C43 C42 1.377 1_655 S
C43 C44 1.395 . S
C43 H72 0.931 . S
C44 C43 1.395 . S
C44 C45 1.383 1_655 S
C44 H73 0.931 . S
C45 C44 1.383 1_455 S
C45 C46 1.394 . S
C46 C45 1.394 . S
C46 C47 1.378 . S
C46 H74 0.931 . S
C47 C42 1.377 . S
C47 C46 1.378 . S
C47 H75 0.931 . S
C48 O62 1.259 . S
C48 O63 1.270 . S
C49 O64 1.251 . S
C49 O65 1.251 . S
C50 Eu51 2.835 . S
C50 C52 1.500 1_455 S
C50 O66 1.257 1_455 S
C50 O67 1.260 . S
Eu51 C50 2.835 . S
Eu51 O63 2.355 1_455 S
Eu51 O65 2.374 . S
Eu51 O66 2.473 1_455 S
Eu51 O67 2.480 . S
Eu51 O68 2.430 . S
Eu51 O69 2.670 . S
Eu51 O70 2.394 1_455 S
C52 C50 1.500 1_655 S
C52 C53 1.377 1_655 S
C52 C57 1.377 . S
C53 C52 1.377 1_455 S
C53 C54 1.395 . S
C53 H76 0.931 . S
C54 C53 1.395 . S
C54 C55 1.383 1_455 S
C54 H77 0.931 . S
C55 C54 1.383 1_655 S
C55 C56 1.394 . S
C56 C55 1.394 . S
C56 C57 1.378 . S
C56 H78 0.931 . S
C57 C52 1.377 . S
C57 C56 1.378 . S
C57 H79 0.931 . S
C58 O68 1.259 . S
C58 O69 1.270 . S
C59 O70 1.251 . S
C59 O71 1.251 . S
O60 C40 1.257 1_455 S
O60 Eu41 2.473 1_455 S
O61 C40 1.260 . S
O61 Eu41 2.480 . S
O62 Eu41 2.430 . S
O62 C48 1.259 . S
O63 Eu41 2.670 . S
O63 C48 1.270 . S
O63 Eu51 2.355 1_655 S
O64 Eu41 2.394 1_455 S
O64 C49 1.251 . S
O65 C49 1.251 . S
O65 Eu51 2.374 . S
O66 C50 1.257 1_655 S
O66 Eu51 2.473 1_655 S
O67 C50 1.260 . S
O67 Eu51 2.480 . S
O68 Eu51 2.430 . S
O68 C58 1.259 . S
O69 Eu41 2.355 1_455 S
O69 Eu51 2.670 . S
O69 C58 1.270 . S
O70 Eu51 2.394 1_655 S
O70 C59 1.251 . S
O71 Eu41 2.374 . S
O71 C59 1.251 . S
H72 C43 0.931 . S
H73 C44 0.931 . S
H74 C46 0.931 . S
H75 C47 0.931 . S
H76 C53 0.931 . S
H77 C54 0.931 . S
H78 C56 0.931 . S
H79 C57 0.931 . S
C80 Eu81 2.835 . S
C80 C82 1.500 . S
C80 O100 1.257 . S
C80 O101 1.260 . S
Eu81 C80 2.835 . S
Eu81 O100 2.473 . S
Eu81 O101 2.480 . S
Eu81 O102 2.430 . S
Eu81 O103 2.670 . S
Eu81 O104 2.394 . S
Eu81 O109 2.355 . S
Eu81 O111 2.374 . S
C82 C80 1.500 . S
C82 C83 1.377 . S
C82 C87 1.377 . S
C83 C82 1.377 . S
C83 C84 1.395 . S
C83 H112 0.931 . S
C84 C83 1.395 . S
C84 C85 1.383 . S
C84 H113 0.931 . S
C85 C84 1.383 . S
C85 C86 1.394 . S
C86 C85 1.394 . S
C86 C87 1.378 . S
C86 H114 0.931 . S
C87 C82 1.377 . S
C87 C86 1.378 . S
C87 H115 0.931 . S
C88 O102 1.259 . S
C88 O103 1.270 . S
C89 O104 1.251 . S
C89 O105 1.251 . S
C90 Eu91 2.835 . S
C90 C92 1.500 . S
C90 O106 1.257 . S
C90 O107 1.260 . S
Eu91 C90 2.835 . S
Eu91 O103 2.355 . S
Eu91 O105 2.374 . S
Eu91 O106 2.473 . S
Eu91 O107 2.480 . S
Eu91 O108 2.430 . S
Eu91 O109 2.670 . S
Eu91 O110 2.394 . S
C92 C90 1.500 . S
C92 C93 1.377 . S
C92 C97 1.377 . S
C93 C92 1.377 . S
C93 C94 1.395 . S
C93 H116 0.931 . S
C94 C93 1.395 . S
C94 C95 1.383 . S
C94 H117 0.931 . S
C95 C94 1.383 . S
C95 C96 1.394 . S
C96 C95 1.394 . S
C96 C97 1.378 . S
C96 H118 0.931 . S
C97 C92 1.377 . S
C97 C96 1.378 . S
C97 H119 0.931 . S
C98 O108 1.259 . S
C98 O109 1.270 . S
C99 O110 1.251 . S
C99 O111 1.251 . S
O100 C80 1.257 . S
O100 Eu81 2.473 . S
O101 C80 1.260 . S
O101 Eu81 2.480 . S
O102 Eu81 2.430 . S
O102 C88 1.259 . S
O103 Eu81 2.670 . S
O103 C88 1.270 . S
O103 Eu91 2.355 . S
O104 Eu81 2.394 . S
O104 C89 1.251 . S
O105 C89 1.251 . S
O105 Eu91 2.374 . S
O106 C90 1.257 . S
O106 Eu91 2.473 . S
O107 C90 1.260 . S
O107 Eu91 2.480 . S
O108 Eu91 2.430 . S
O108 C98 1.259 . S
O109 Eu81 2.355 . S
O109 Eu91 2.670 . S
O109 C98 1.270 . S
O110 Eu91 2.394 . S
O110 C99 1.251 . S
O111 Eu81 2.374 . S
O111 C99 1.251 . S
H112 C83 0.931 . S
H113 C84 0.931 . S
H114 C86 0.931 . S
H115 C87 0.931 . S
H116 C93 0.931 . S
H117 C94 0.931 . S
H118 C96 0.931 . S
H119 C97 0.931 . S
C120 Eu121 2.835 1_545 S
C120 C122 1.500 . S
C120 O140 1.257 . S
C120 O141 1.260 1_545 S
Eu121 C120 2.835 1_565 S
Eu121 O140 2.473 1_565 S
Eu121 O141 2.480 . S
Eu121 O142 2.430 . S
Eu121 O143 2.670 . S
Eu121 O144 2.394 1_565 S
Eu121 O149 2.355 1_565 S
Eu121 O151 2.374 . S
C122 C120 1.500 . S
C122 C123 1.377 1_545 S
C122 C127 1.377 . S
C123 C122 1.377 1_565 S
C123 C124 1.395 1_565 S
C123 H152 0.931 . S
C124 C123 1.395 1_545 S
C124 C125 1.383 . S
C124 H153 0.931 1_545 S
C125 C124 1.383 . S
C125 C126 1.394 . S
C126 C125 1.394 . S
C126 C127 1.378 . S
C126 H154 0.931 . S
C127 C122 1.377 . S
C127 C126 1.378 . S
C127 H155 0.931 . S
C128 O142 1.259 . S
C128 O143 1.270 . S
C129 O144 1.251 . S
C129 O145 1.251 . S
C130 Eu131 2.835 1_565 S
C130 C132 1.500 . S
C130 O146 1.257 . S
C130 O147 1.260 1_565 S
Eu131 C130 2.835 1_545 S
Eu131 O143 2.355 1_545 S
Eu131 O145 2.374 . S
Eu131 O146 2.473 1_545 S
Eu131 O147 2.480 . S
Eu131 O148 2.430 . S
Eu131 O149 2.670 . S
Eu131 O150 2.394 1_545 S
C132 C130 1.500 . S
C132 C133 1.377 1_565 S
C132 C137 1.377 . S
C133 C132 1.377 1_545 S
C133 C134 1.395 1_545 S
C133 H156 0.931 . S
C134 C133 1.395 1_565 S
C134 C135 1.383 . S
C134 H157 0.931 1_565 S
C135 C134 1.383 . S
C135 C136 1.394 . S
C136 C135 1.394 . S
C136 C137 1.378 . S
C136 H158 0.931 . S
C137 C132 1.377 . S
C137 C136 1.378 . S
C137 H159 0.931 . S
C138 O148 1.259 . S
C138 O149 1.270 . S
C139 O150 1.251 . S
C139 O151 1.251 . S
O140 C120 1.257 . S
O140 Eu121 2.473 1_545 S
O141 C120 1.260 1_565 S
O141 Eu121 2.480 . S
O142 Eu121 2.430 . S
O142 C128 1.259 . S
O143 Eu121 2.670 . S
O143 C128 1.270 . S
O143 Eu131 2.355 1_565 S
O144 Eu121 2.394 1_545 S
O144 C129 1.251 . S
O145 C129 1.251 . S
O145 Eu131 2.374 . S
O146 C130 1.257 . S
O146 Eu131 2.473 1_565 S
O147 C130 1.260 1_545 S
O147 Eu131 2.480 . S
O148 Eu131 2.430 . S
O148 C138 1.259 . S
O149 Eu121 2.355 1_545 S
O149 Eu131 2.670 . S
O149 C138 1.270 . S
O150 Eu131 2.394 1_565 S
O150 C139 1.251 . S
O151 Eu121 2.374 . S
O151 C139 1.251 . S
H152 C123 0.931 . S
H153 C124 0.931 1_565 S
H154 C126 0.931 . S
H155 C127 0.931 . S
H156 C133 0.931 . S
H157 C134 0.931 1_545 S
H158 C136 0.931 . S
H159 C137 0.931 . S
C160 Eu161 2.835 . S
C160 C162 1.500 . S
C160 O180 1.257 . S
C160 O181 1.260 . S
Eu161 C160 2.835 . S
Eu161 O180 2.473 . S
Eu161 O181 2.480 . S
Eu161 O182 2.430 . S
Eu161 O183 2.670 . S
Eu161 O184 2.394 . S
Eu161 O189 2.355 . S
Eu161 O191 2.374 . S
C162 C160 1.500 . S
C162 C163 1.377 . S
C162 C167 1.377 . S
C163 C162 1.377 . S
C163 C164 1.395 . S
C163 H192 0.931 . S
C164 C163 1.395 . S
C164 C165 1.383 . S
C164 H193 0.931 . S
C165 C164 1.383 . S
C165 C166 1.394 . S
C166 C165 1.394 . S
C166 C167 1.378 . S
C166 H194 0.931 . S
C167 C162 1.377 . S
C167 C166 1.378 . S
C167 H195 0.931 . S
C168 O182 1.259 . S
C168 O183 1.270 . S
C169 O184 1.251 . S
C169 O185 1.251 . S
C170 Eu171 2.835 . S
C170 C172 1.500 . S
C170 O186 1.257 . S
C170 O187 1.260 . S
Eu171 C170 2.835 . S
Eu171 O183 2.355 . S
Eu171 O185 2.374 . S
Eu171 O186 2.473 . S
Eu171 O187 2.480 . S
Eu171 O188 2.430 . S
Eu171 O189 2.670 . S
Eu171 O190 2.394 . S
C172 C170 1.500 . S
C172 C173 1.377 . S
C172 C177 1.377 . S
C173 C172 1.377 . S
C173 C174 1.395 . S
C173 H196 0.931 . S
C174 C173 1.395 . S
C174 C175 1.383 . S
C174 H197 0.931 . S
C175 C174 1.383 . S
C175 C176 1.394 . S
C176 C175 1.394 . S
C176 C177 1.378 . S
C176 H198 0.931 . S
C177 C172 1.377 . S
C177 C176 1.378 . S
C177 H199 0.931 . S
C178 O188 1.259 . S
C178 O189 1.270 . S
C179 O190 1.251 . S
C179 O191 1.251 . S
O180 C160 1.257 . S
O180 Eu161 2.473 . S
O181 C160 1.260 . S
O181 Eu161 2.480 . S
O182 Eu161 2.430 . S
O182 C168 1.259 . S
O183 Eu161 2.670 . S
O183 C168 1.270 . S
O183 Eu171 2.355 . S
O184 Eu161 2.394 . S
O184 C169 1.251 . S
O185 C169 1.251 . S
O185 Eu171 2.374 . S
O186 C170 1.257 . S
O186 Eu171 2.473 . S
O187 C170 1.260 . S
O187 Eu171 2.480 . S
O188 Eu171 2.430 . S
O188 C178 1.259 . S
O189 Eu161 2.355 . S
O189 Eu171 2.670 . S
O189 C178 1.270 . S
O190 Eu171 2.394 . S
O190 C179 1.251 . S
O191 Eu161 2.374 . S
O191 C179 1.251 . S
H192 C163 0.931 . S
H193 C164 0.931 . S
H194 C166 0.931 . S
H195 C167 0.931 . S
H196 C173 0.931 . S
H197 C174 0.931 . S
H198 C176 0.931 . S
H199 C177 0.931 . S
C200 Eu201 2.835 . S
C200 C202 1.500 . S
C200 O220 1.257 . S
C200 O221 1.260 . S
Eu201 C200 2.835 . S
Eu201 O220 2.473 . S
Eu201 O221 2.480 . S
Eu201 O222 2.430 . S
Eu201 O223 2.670 . S
Eu201 O224 2.394 . S
Eu201 O229 2.355 . S
Eu201 O231 2.374 . S
C202 C200 1.500 . S
C202 C203 1.377 . S
C202 C207 1.377 . S
C203 C202 1.377 . S
C203 C204 1.395 . S
C203 H232 0.931 . S
C204 C203 1.395 . S
C204 C205 1.383 . S
C204 H233 0.931 . S
C205 C204 1.383 . S
C205 C206 1.394 . S
C206 C205 1.394 . S
C206 C207 1.378 . S
C206 H234 0.931 . S
C207 C202 1.377 . S
C207 C206 1.378 . S
C207 H235 0.931 . S
C208 O222 1.259 . S
C208 O223 1.270 . S
C209 O224 1.251 . S
C209 O225 1.251 . S
C210 Eu211 2.835 . S
C210 C212 1.500 . S
C210 O226 1.257 . S
C210 O227 1.260 . S
Eu211 C210 2.835 . S
Eu211 O223 2.355 . S
Eu211 O225 2.374 . S
Eu211 O226 2.473 . S
Eu211 O227 2.480 . S
Eu211 O228 2.430 . S
Eu211 O229 2.670 . S
Eu211 O230 2.394 . S
C212 C210 1.500 . S
C212 C213 1.377 . S
C212 C217 1.377 . S
C213 C212 1.377 . S
C213 C214 1.395 . S
C213 H236 0.931 . S
C214 C213 1.395 . S
C214 C215 1.383 . S
C214 H237 0.931 . S
C215 C214 1.383 . S
C215 C216 1.394 . S
C216 C215 1.394 . S
C216 C217 1.378 . S
C216 H238 0.931 . S
C217 C212 1.377 . S
C217 C216 1.378 . S
C217 H239 0.931 . S
C218 O228 1.259 . S
C218 O229 1.270 . S
C219 O230 1.251 . S
C219 O231 1.251 . S
O220 C200 1.257 . S
O220 Eu201 2.473 . S
O221 C200 1.260 . S
O221 Eu201 2.480 . S
O222 Eu201 2.430 . S
O222 C208 1.259 . S
O223 Eu201 2.670 . S
O223 C208 1.270 . S
O223 Eu211 2.355 . S
O224 Eu201 2.394 . S
O224 C209 1.251 . S
O225 C209 1.251 . S
O225 Eu211 2.374 . S
O226 C210 1.257 . S
O226 Eu211 2.473 . S
O227 C210 1.260 . S
O227 Eu211 2.480 . S
O228 Eu211 2.430 . S
O228 C218 1.259 . S
O229 Eu201 2.355 . S
O229 Eu211 2.670 . S
O229 C218 1.270 . S
O230 Eu211 2.394 . S
O230 C219 1.251 . S
O231 Eu201 2.374 . S
O231 C219 1.251 . S
H232 C203 0.931 . S
H233 C204 0.931 . S
H234 C206 0.931 . S
H235 C207 0.931 . S
H236 C213 0.931 . S
H237 C214 0.931 . S
H238 C216 0.931 . S
H239 C217 0.931 . S
C240 Eu241 2.835 . S
C240 C242 1.500 . S
C240 O260 1.257 . S
C240 O261 1.260 . S
Eu241 C240 2.835 . S
Eu241 O260 2.473 . S
Eu241 O261 2.480 . S
Eu241 O262 2.430 . S
Eu241 O263 2.670 . S
Eu241 O264 2.394 . S
Eu241 O269 2.355 . S
Eu241 O271 2.374 . S
C242 C240 1.500 . S
C242 C243 1.377 . S
C242 C247 1.377 . S
C243 C242 1.377 . S
C243 C244 1.395 . S
C243 H272 0.931 . S
C244 C243 1.395 . S
C244 C245 1.383 . S
C244 H273 0.931 . S
C245 C244 1.383 . S
C245 C246 1.394 . S
C246 C245 1.394 . S
C246 C247 1.378 . S
C246 H274 0.931 . S
C247 C242 1.377 . S
C247 C246 1.378 . S
C247 H275 0.931 . S
C248 O262 1.259 . S
C248 O263 1.270 . S
C249 O264 1.251 . S
C249 O265 1.251 . S
C250 Eu251 2.835 . S
C250 C252 1.500 . S
C250 O266 1.257 . S
C250 O267 1.260 . S
Eu251 C250 2.835 . S
Eu251 O263 2.355 . S
Eu251 O265 2.374 . S
Eu251 O266 2.473 . S
Eu251 O267 2.480 . S
Eu251 O268 2.430 . S
Eu251 O269 2.670 . S
Eu251 O270 2.394 . S
C252 C250 1.500 . S
C252 C253 1.377 . S
C252 C257 1.377 . S
C253 C252 1.377 . S
C253 C254 1.395 . S
C253 H276 0.931 . S
C254 C253 1.395 . S
C254 C255 1.383 . S
C254 H277 0.931 . S
C255 C254 1.383 . S
C255 C256 1.394 . S
C256 C255 1.394 . S
C256 C257 1.378 . S
C256 H278 0.931 . S
C257 C252 1.377 . S
C257 C256 1.378 . S
C257 H279 0.931 . S
C258 O268 1.259 . S
C258 O269 1.270 . S
C259 O270 1.251 . S
C259 O271 1.251 . S
O260 C240 1.257 . S
O260 Eu241 2.473 . S
O261 C240 1.260 . S
O261 Eu241 2.480 . S
O262 Eu241 2.430 . S
O262 C248 1.259 . S
O263 Eu241 2.670 . S
O263 C248 1.270 . S
O263 Eu251 2.355 . S
O264 Eu241 2.394 . S
O264 C249 1.251 . S
O265 C249 1.251 . S
O265 Eu251 2.374 . S
O266 C250 1.257 . S
O266 Eu251 2.473 . S
O267 C250 1.260 . S
O267 Eu251 2.480 . S
O268 Eu251 2.430 . S
O268 C258 1.259 . S
O269 Eu241 2.355 . S
O269 Eu251 2.670 . S
O269 C258 1.270 . S
O270 Eu251 2.394 . S
O270 C259 1.251 . S
O271 Eu241 2.374 . S
O271 C259 1.251 . S
H272 C243 0.931 . S
H273 C244 0.931 . S
H274 C246 0.931 . S
H275 C247 0.931 . S
H276 C253 0.931 . S
H277 C254 0.931 . S
H278 C256 0.931 . S
H279 C257 0.931 . S
C280 Eu281 2.835 . S
C280 C282 1.500 . S
C280 O300 1.257 . S
C280 O301 1.260 . S
Eu281 C280 2.835 . S
Eu281 O300 2.473 . S
Eu281 O301 2.480 . S
Eu281 O302 2.430 1_455 S
Eu281 O303 2.670 1_455 S
Eu281 O304 2.394 1_455 S
Eu281 O309 2.355 . S
Eu281 O311 2.374 . S
C282 C280 1.500 . S
C282 C283 1.377 . S
C282 C287 1.377 . S
C283 C282 1.377 . S
C283 C284 1.395 . S
C283 H312 0.931 . S
C284 C283 1.395 . S
C284 C285 1.383 . S
C284 H313 0.931 . S
C285 C284 1.383 . S
C285 C286 1.394 . S
C286 C285 1.394 . S
C286 C287 1.378 . S
C286 H314 0.931 . S
C287 C282 1.377 . S
C287 C286 1.378 . S
C287 H315 0.931 . S
C288 O302 1.259 . S
C288 O303 1.270 . S
C289 O304 1.251 . S
C289 O305 1.251 . S
C290 Eu291 2.835 . S
C290 C292 1.500 . S
C290 O306 1.257 . S
C290 O307 1.260 . S
Eu291 C290 2.835 . S
Eu291 O303 2.355 . S
Eu291 O305 2.374 . S
Eu291 O306 2.473 . S
Eu291 O307 2.480 . S
Eu291 O308 2.430 1_655 S
Eu291 O309 2.670 1_655 S
Eu291 O310 2.394 1_655 S
C292 C290 1.500 . S
C292 C293 1.377 . S
C292 C297 1.377 . S
C293 C292 1.377 . S
C293 C294 1.395 . S
C293 H316 0.931 . S
C294 C293 1.395 . S
C294 C295 1.383 . S
C294 H317 0.931 . S
C295 C294 1.383 . S
C295 C296 1.394 . S
C296 C295 1.394 . S
C296 C297 1.378 . S
C296 H318 0.931 . S
C297 C292 1.377 . S
C297 C296 1.378 . S
C297 H319 0.931 . S
C298 O308 1.259 . S
C298 O309 1.270 . S
C299 O310 1.251 . S
C299 O311 1.251 . S
O300 C280 1.257 . S
O300 Eu281 2.473 . S
O301 C280 1.260 . S
O301 Eu281 2.480 . S
O302 Eu281 2.430 1_655 S
O302 C288 1.259 . S
O303 Eu281 2.670 1_655 S
O303 C288 1.270 . S
O303 Eu291 2.355 . S
O304 Eu281 2.394 1_655 S
O304 C289 1.251 . S
O305 C289 1.251 . S
O305 Eu291 2.374 . S
O306 C290 1.257 . S
O306 Eu291 2.473 . S
O307 C290 1.260 . S
O307 Eu291 2.480 . S
O308 Eu291 2.430 1_455 S
O308 C298 1.259 . S
O309 Eu281 2.355 . S
O309 Eu291 2.670 1_455 S
O309 C298 1.270 . S
O310 Eu291 2.394 1_455 S
O310 C299 1.251 . S
O311 Eu281 2.374 . S
O311 C299 1.251 . S
H312 C283 0.931 . S
H313 C284 0.931 . S
H314 C286 0.931 . S
H315 C287 0.931 . S
H316 C293 0.931 . S
H317 C294 0.931 . S
H318 C296 0.931 . S
H319 C297 0.931 . S
C320 Eu321 2.835 . S
C320 C322 1.500 . S
C320 O340 1.257 . S
C320 O341 1.260 . S
Eu321 C320 2.835 . S
Eu321 O340 2.473 . S
Eu321 O341 2.480 . S
Eu321 O342 2.430 . S
Eu321 O343 2.670 . S
Eu321 O344 2.394 1_556 S
Eu321 O349 2.355 1_556 S
Eu321 O351 2.374 . S
C322 C320 1.500 . S
C322 C323 1.377 . S
C322 C327 1.376 . S
C323 C322 1.377 . S
C323 C324 1.395 . S
C323 H352 0.931 . S
C324 C323 1.395 . S
C324 C325 1.383 . S
C324 H353 0.931 . S
C325 C324 1.383 . S
C325 C326 1.398 . S
C326 C325 1.398 . S
C326 C327 1.376 . S
C326 H354 0.928 1_556 S
C327 C322 1.376 . S
C327 C326 1.376 . S
C327 H355 0.933 1_556 S
C328 O342 1.259 . S
C328 O343 1.270 . S
C329 O344 1.251 . S
C329 O345 1.251 . S
C330 Eu331 2.835 . S
C330 C332 1.500 . S
C330 O346 1.257 . S
C330 O347 1.260 . S
Eu331 C330 2.835 . S
Eu331 O343 2.355 1_554 S
Eu331 O345 2.374 . S
Eu331 O346 2.473 . S
Eu331 O347 2.480 . S
Eu331 O348 2.430 . S
Eu331 O349 2.670 . S
Eu331 O350 2.394 1_554 S
C332 C330 1.500 . S
C332 C333 1.377 . S
C332 C337 1.391 . S
C333 C332 1.377 . S
C333 C334 1.395 . S
C333 H356 0.931 . S
C334 C333 1.395 . S
C334 C335 1.383 . S
C334 H357 0.931 . S
C335 C334 1.383 . S
C335 C336 1.421 . S
C336 C335 1.421 . S
C336 C337 1.376 . S
C336 H358 0.913 1_554 S
C337 C332 1.391 . S
C337 C336 1.376 . S
C337 H359 0.910 1_554 S
C338 O348 1.259 . S
C338 O349 1.270 . S
C339 O350 1.251 . S
C339 O351 1.251 . S
O340 C320 1.257 . S
O340 Eu321 2.473 . S
O341 C320 1.260 . S
O341 Eu321 2.480 . S
O342 Eu321 2.430 . S
O342 C328 1.259 . S
O343 Eu321 2.670 . S
O343 C328 1.270 . S
O343 Eu331 2.355 1_556 S
O344 Eu321 2.394 1_554 S
O344 C329 1.251 . S
O345 C329 1.251 . S
O345 Eu331 2.374 . S
O346 C330 1.257 . S
O346 Eu331 2.473 . S
O347 C330 1.260 . S
O347 Eu331 2.480 . S
O348 Eu331 2.430 . S
O348 C338 1.259 . S
O349 Eu321 2.355 1_554 S
O349 Eu331 2.670 . S
O349 C338 1.270 . S
O350 Eu331 2.394 1_556 S
O350 C339 1.251 . S
O351 Eu321 2.374 . S
O351 C339 1.251 . S
H352 C323 0.931 . S
H353 C324 0.931 . S
H354 C326 0.928 1_554 S
H355 C327 0.933 1_554 S
H356 C333 0.931 . S
H357 C334 0.931 . S
H358 C336 0.913 1_556 S
H359 C337 0.910 1_556 S
C360 Eu361 2.835 1_545 S
C360 C362 1.500 . S
C360 O380 1.257 . S
C360 O381 1.260 1_545 S
Eu361 C360 2.835 1_565 S
Eu361 O380 2.473 1_565 S
Eu361 O381 2.480 . S
Eu361 O382 2.430 . S
Eu361 O383 2.670 . S
Eu361 O384 2.394 1_565 S
Eu361 O389 2.355 1_565 S
Eu361 O391 2.374 . S
C362 C360 1.500 . S
C362 C363 1.377 1_545 S
C362 C367 1.377 . S
C363 C362 1.377 1_565 S
C363 C364 1.395 1_565 S
C363 H392 0.931 . S
C364 C363 1.395 1_545 S
C364 C365 1.383 . S
C364 H393 0.931 1_545 S
C365 C364 1.383 . S
C365 C366 1.394 . S
C366 C365 1.394 . S
C366 C367 1.378 . S
C366 H394 0.931 . S
C367 C362 1.377 . S
C367 C366 1.378 . S
C367 H395 0.931 . S
C368 O382 1.259 . S
C368 O383 1.270 . S
C369 O384 1.251 . S
C369 O385 1.251 . S
C370 Eu371 2.835 1_565 S
C370 C372 1.500 . S
C370 O386 1.257 . S
C370 O387 1.260 1_565 S
Eu371 C370 2.835 1_545 S
Eu371 O383 2.355 1_545 S
Eu371 O385 2.374 . S
Eu371 O386 2.473 1_545 S
Eu371 O387 2.480 . S
Eu371 O388 2.430 . S
Eu371 O389 2.670 . S
Eu371 O390 2.394 1_545 S
C372 C370 1.500 . S
C372 C373 1.377 1_565 S
C372 C377 1.377 . S
C373 C372 1.377 1_545 S
C373 C374 1.395 1_545 S
C373 H396 0.931 . S
C374 C373 1.395 1_565 S
C374 C375 1.383 . S
C374 H397 0.931 1_565 S
C375 C374 1.383 . S
C375 C376 1.394 . S
C376 C375 1.394 . S
C376 C377 1.378 . S
C376 H398 0.931 . S
C377 C372 1.377 . S
C377 C376 1.378 . S
C377 H399 0.931 . S
C378 O388 1.259 . S
C378 O389 1.270 . S
C379 O390 1.251 . S
C379 O391 1.251 . S
O380 C360 1.257 . S
O380 Eu361 2.473 1_545 S
O381 C360 1.260 1_565 S
O381 Eu361 2.480 . S
O382 Eu361 2.430 . S
O382 C368 1.259 . S
O383 Eu361 2.670 . S
O383 C368 1.270 . S
O383 Eu371 2.355 1_565 S
O384 Eu361 2.394 1_545 S
O384 C369 1.251 . S
O385 C369 1.251 . S
O385 Eu371 2.374 . S
O386 C370 1.257 . S
O386 Eu371 2.473 1_565 S
O387 C370 1.260 1_545 S
O387 Eu371 2.480 . S
O388 Eu371 2.430 . S
O388 C378 1.259 . S
O389 Eu361 2.355 1_545 S
O389 Eu371 2.670 . S
O389 C378 1.270 . S
O390 Eu371 2.394 1_565 S
O390 C379 1.251 . S
O391 Eu361 2.374 . S
O391 C379 1.251 . S
H392 C363 0.931 . S
H393 C364 0.931 1_565 S
H394 C366 0.931 . S
H395 C367 0.931 . S
H396 C373 0.931 . S
H397 C374 0.931 1_545 S
H398 C376 0.931 . S
H399 C377 0.931 . S
C400 Eu401 2.835 . S
C400 C402 1.500 . S
C400 O420 1.257 . S
C400 O421 1.260 . S
Eu401 C400 2.835 . S
Eu401 O420 2.473 . S
Eu401 O421 2.480 . S
Eu401 O422 2.430 . S
Eu401 O423 2.670 . S
Eu401 O424 2.394 . S
Eu401 O429 2.355 . S
Eu401 O431 2.374 . S
C402 C400 1.500 . S
C402 C403 1.377 . S
C402 C407 1.377 . S
C403 C402 1.377 . S
C403 C404 1.395 . S
C403 H432 0.931 . S
C404 C403 1.395 . S
C404 C405 1.383 . S
C404 H433 0.931 . S
C405 C404 1.383 . S
C405 C406 1.394 . S
C406 C405 1.394 . S
C406 C407 1.378 . S
C406 H434 0.931 . S
C407 C402 1.377 . S
C407 C406 1.378 . S
C407 H435 0.931 . S
C408 O422 1.259 . S
C408 O423 1.270 . S
C409 O424 1.251 . S
C409 O425 1.251 . S
C410 Eu411 2.835 . S
C410 C412 1.500 . S
C410 O426 1.257 . S
C410 O427 1.260 . S
Eu411 C410 2.835 . S
Eu411 O423 2.355 . S
Eu411 O425 2.374 . S
Eu411 O426 2.473 . S
Eu411 O427 2.480 . S
Eu411 O428 2.430 . S
Eu411 O429 2.670 . S
Eu411 O430 2.394 . S
C412 C410 1.500 . S
C412 C413 1.377 . S
C412 C417 1.377 . S
C413 C412 1.377 . S
C413 C414 1.395 . S
C413 H436 0.931 . S
C414 C413 1.395 . S
C414 C415 1.383 . S
C414 H437 0.931 . S
C415 C414 1.383 . S
C415 C416 1.394 . S
C416 C415 1.394 . S
C416 C417 1.378 . S
C416 H438 0.931 . S
C417 C412 1.377 . S
C417 C416 1.378 . S
C417 H439 0.931 . S
C418 O428 1.259 . S
C418 O429 1.270 . S
C419 O430 1.251 . S
C419 O431 1.251 . S
O420 C400 1.257 . S
O420 Eu401 2.473 . S
O421 C400 1.260 . S
O421 Eu401 2.480 . S
O422 Eu401 2.430 . S
O422 C408 1.259 . S
O423 Eu401 2.670 . S
O423 C408 1.270 . S
O423 Eu411 2.355 . S
O424 Eu401 2.394 . S
O424 C409 1.251 . S
O425 C409 1.251 . S
O425 Eu411 2.374 . S
O426 C410 1.257 . S
O426 Eu411 2.473 . S
O427 C410 1.260 . S
O427 Eu411 2.480 . S
O428 Eu411 2.430 . S
O428 C418 1.259 . S
O429 Eu401 2.355 . S
O429 Eu411 2.670 . S
O429 C418 1.270 . S
O430 Eu411 2.394 . S
O430 C419 1.251 . S
O431 Eu401 2.374 . S
O431 C419 1.251 . S
H432 C403 0.931 . S
H433 C404 0.931 . S
H434 C406 0.931 . S
H435 C407 0.931 . S
H436 C413 0.931 . S
H437 C414 0.931 . S
H438 C416 0.931 . S
H439 C417 0.931 . S
C440 Eu441 2.835 . S
C440 C442 1.500 1_655 S
C440 O460 1.257 1_655 S
C440 O461 1.260 . S
Eu441 C440 2.835 . S
Eu441 O460 2.473 1_655 S
Eu441 O461 2.480 . S
Eu441 O462 2.430 . S
Eu441 O463 2.670 . S
Eu441 O464 2.394 1_655 S
Eu441 O469 2.355 1_655 S
Eu441 O471 2.374 . S
C442 C440 1.500 1_455 S
C442 C443 1.377 1_455 S
C442 C447 1.377 . S
C443 C442 1.377 1_655 S
C443 C444 1.395 . S
C443 H472 0.931 . S
C444 C443 1.395 . S
C444 C445 1.383 1_655 S
C444 H473 0.931 . S
C445 C444 1.383 1_455 S
C445 C446 1.394 . S
C446 C445 1.394 . S
C446 C447 1.378 . S
C446 H474 0.931 . S
C447 C442 1.377 . S
C447 C446 1.378 . S
C447 H475 0.931 . S
C448 O462 1.259 . S
C448 O463 1.270 . S
C449 O464 1.251 . S
C449 O465 1.251 . S
C450 Eu451 2.835 . S
C450 C452 1.500 1_455 S
C450 O466 1.257 1_455 S
C450 O467 1.260 . S
Eu451 C450 2.835 . S
Eu451 O463 2.355 1_455 S
Eu451 O465 2.374 . S
Eu451 O466 2.473 1_455 S
Eu451 O467 2.480 . S
Eu451 O468 2.430 . S
Eu451 O469 2.670 . S
Eu451 O470 2.394 1_455 S
C452 C450 1.500 1_655 S
C452 C453 1.377 1_655 S
C452 C457 1.377 . S
C453 C452 1.377 1_455 S
C453 C454 1.395 . S
C453 H476 0.931 . S
C454 C453 1.395 . S
C454 C455 1.383 1_455 S
C454 H477 0.931 . S
C455 C454 1.383 1_655 S
C455 C456 1.394 . S
C456 C455 1.394 . S
C456 C457 1.378 . S
C456 H478 0.931 . S
C457 C452 1.377 . S
C457 C456 1.378 . S
C457 H479 0.931 . S
C458 O468 1.259 . S
C458 O469 1.270 . S
C459 O470 1.251 . S
C459 O471 1.251 . S
O460 C440 1.257 1_455 S
O460 Eu441 2.473 1_455 S
O461 C440 1.260 . S
O461 Eu441 2.480 . S
O462 Eu441 2.430 . S
O462 C448 1.259 . S
O463 Eu441 2.670 . S
O463 C448 1.270 . S
O463 Eu451 2.355 1_655 S
O464 Eu441 2.394 1_455 S
O464 C449 1.251 . S
O465 C449 1.251 . S
O465 Eu451 2.374 . S
O466 C450 1.257 1_655 S
O466 Eu451 2.473 1_655 S
O467 C450 1.260 . S
O467 Eu451 2.480 . S
O468 Eu451 2.430 . S
O468 C458 1.259 . S
O469 Eu441 2.355 1_455 S
O469 Eu451 2.670 . S
O469 C458 1.270 . S
O470 Eu451 2.394 1_655 S
O470 C459 1.251 . S
O471 Eu441 2.374 . S
O471 C459 1.251 . S
H472 C443 0.931 . S
H473 C444 0.931 . S
H474 C446 0.931 . S
H475 C447 0.931 . S
H476 C453 0.931 . S
H477 C454 0.931 . S
H478 C456 0.931 . S
H479 C457 0.931 . S
C480 Eu481 2.835 . S
C480 C482 1.500 . S
C480 O500 1.257 . S
C480 O501 1.260 . S
Eu481 C480 2.835 . S
Eu481 O500 2.473 . S
Eu481 O501 2.480 . S
Eu481 O502 2.430 . S
Eu481 O503 2.670 . S
Eu481 O504 2.394 . S
Eu481 O509 2.355 . S
Eu481 O511 2.374 . S
C482 C480 1.500 . S
C482 C483 1.377 . S
C482 C487 1.377 . S
C483 C482 1.377 . S
C483 C484 1.395 . S
C483 H512 0.931 . S
C484 C483 1.395 . S
C484 C485 1.383 . S
C484 H513 0.931 . S
C485 C484 1.383 . S
C485 C486 1.394 . S
C486 C485 1.394 . S
C486 C487 1.378 . S
C486 H514 0.931 . S
C487 C482 1.377 . S
C487 C486 1.378 . S
C487 H515 0.931 . S
C488 O502 1.259 . S
C488 O503 1.270 . S
C489 O504 1.251 . S
C489 O505 1.251 . S
C490 Eu491 2.835 . S
C490 C492 1.500 . S
C490 O506 1.257 . S
C490 O507 1.260 . S
Eu491 C490 2.835 . S
Eu491 O503 2.355 . S
Eu491 O505 2.374 . S
Eu491 O506 2.473 . S
Eu491 O507 2.480 . S
Eu491 O508 2.430 . S
Eu491 O509 2.670 . S
Eu491 O510 2.394 . S
C492 C490 1.500 . S
C492 C493 1.377 . S
C492 C497 1.377 . S
C493 C492 1.377 . S
C493 C494 1.395 . S
C493 H516 0.931 . S
C494 C493 1.395 . S
C494 C495 1.383 . S
C494 H517 0.931 . S
C495 C494 1.383 . S
C495 C496 1.394 . S
C496 C495 1.394 . S
C496 C497 1.378 . S
C496 H518 0.931 . S
C497 C492 1.377 . S
C497 C496 1.378 . S
C497 H519 0.931 . S
C498 O508 1.259 . S
C498 O509 1.270 . S
C499 O510 1.251 . S
C499 O511 1.251 . S
O500 C480 1.257 . S
O500 Eu481 2.473 . S
O501 C480 1.260 . S
O501 Eu481 2.480 . S
O502 Eu481 2.430 . S
O502 C488 1.259 . S
O503 Eu481 2.670 . S
O503 C488 1.270 . S
O503 Eu491 2.355 . S
O504 Eu481 2.394 . S
O504 C489 1.251 . S
O505 C489 1.251 . S
O505 Eu491 2.374 . S
O506 C490 1.257 . S
O506 Eu491 2.473 . S
O507 C490 1.260 . S
O507 Eu491 2.480 . S
O508 Eu491 2.430 . S
O508 C498 1.259 . S
O509 Eu481 2.355 . S
O509 Eu491 2.670 . S
O509 C498 1.270 . S
O510 Eu491 2.394 . S
O510 C499 1.251 . S
O511 Eu481 2.374 . S
O511 C499 1.251 . S
H512 C483 0.931 . S
H513 C484 0.931 . S
H514 C486 0.931 . S
H515 C487 0.931 . S
H516 C493 0.931 . S
H517 C494 0.931 . S
H518 C496 0.931 . S
H519 C497 0.931 . S
C520 Eu521 2.835 . S
C520 C522 1.500 . S
C520 O540 1.257 . S
C520 O541 1.260 . S
Eu521 C520 2.835 . S
Eu521 O540 2.473 . S
Eu521 O541 2.480 . S
Eu521 O542 2.430 . S
Eu521 O543 2.670 . S
Eu521 O544 2.394 1_556 S
Eu521 O549 2.355 1_556 S
Eu521 O551 2.374 . S
C522 C520 1.500 . S
C522 C523 1.377 . S
C522 C527 1.376 . S
C523 C522 1.377 . S
C523 C524 1.395 . S
C523 H552 0.931 . S
C524 C523 1.395 . S
C524 C525 1.383 . S
C524 H553 0.931 . S
C525 C524 1.383 . S
C525 C526 1.398 . S
C526 C525 1.398 . S
C526 C527 1.376 . S
C526 H554 0.928 1_556 S
C527 C522 1.376 . S
C527 C526 1.376 . S
C527 H555 0.933 1_556 S
C528 O542 1.259 . S
C528 O543 1.270 . S
C529 O544 1.251 . S
C529 O545 1.251 . S
C530 Eu531 2.835 . S
C530 C532 1.500 . S
C530 O546 1.257 . S
C530 O547 1.260 . S
Eu531 C530 2.835 . S
Eu531 O543 2.355 1_554 S
Eu531 O545 2.374 . S
Eu531 O546 2.473 . S
Eu531 O547 2.480 . S
Eu531 O548 2.430 . S
Eu531 O549 2.670 . S
Eu531 O550 2.394 1_554 S
C532 C530 1.500 . S
C532 C533 1.377 . S
C532 C537 1.391 . S
C533 C532 1.377 . S
C533 C534 1.395 . S
C533 H556 0.931 . S
C534 C533 1.395 . S
C534 C535 1.383 . S
C534 H557 0.931 . S
C535 C534 1.383 . S
C535 C536 1.421 . S
C536 C535 1.421 . S
C536 C537 1.376 . S
C536 H558 0.913 1_554 S
C537 C532 1.391 . S
C537 C536 1.376 . S
C537 H559 0.910 1_554 S
C538 O548 1.259 . S
C538 O549 1.270 . S
C539 O550 1.251 . S
C539 O551 1.251 . S
O540 C520 1.257 . S
O540 Eu521 2.473 . S
O541 C520 1.260 . S
O541 Eu521 2.480 . S
O542 Eu521 2.430 . S
O542 C528 1.259 . S
O543 Eu521 2.670 . S
O543 C528 1.270 . S
O543 Eu531 2.355 1_556 S
O544 Eu521 2.394 1_554 S
O544 C529 1.251 . S
O545 C529 1.251 . S
O545 Eu531 2.374 . S
O546 C530 1.257 . S
O546 Eu531 2.473 . S
O547 C530 1.260 . S
O547 Eu531 2.480 . S
O548 Eu531 2.430 . S
O548 C538 1.259 . S
O549 Eu521 2.355 1_554 S
O549 Eu531 2.670 . S
O549 C538 1.270 . S
O550 Eu531 2.394 1_556 S
O550 C539 1.251 . S
O551 Eu521 2.374 . S
O551 C539 1.251 . S
H552 C523 0.931 . S
H553 C524 0.931 . S
H554 C526 0.928 1_554 S
H555 C527 0.933 1_554 S
H556 C533 0.931 . S
H557 C534 0.931 . S
H558 C536 0.913 1_556 S
H559 C537 0.910 1_556 S
C560 Eu561 2.835 . S
C560 C562 1.500 . S
C560 O580 1.257 . S
C560 O581 1.260 . S
Eu561 C560 2.835 . S
Eu561 O580 2.473 . S
Eu561 O581 2.480 . S
Eu561 O582 2.430 . S
Eu561 O583 2.670 . S
Eu561 O584 2.394 . S
Eu561 O589 2.355 1_545 S
Eu561 O591 2.374 1_545 S
C562 C560 1.500 . S
C562 C563 1.377 . S
C562 C567 1.377 . S
C563 C562 1.377 . S
C563 C564 1.395 . S
C563 H592 0.931 . S
C564 C563 1.395 . S
C564 C565 1.383 . S
C564 H593 0.931 . S
C565 C564 1.383 . S
C565 C566 1.394 . S
C566 C565 1.394 . S
C566 C567 1.378 . S
C566 H594 0.931 . S
C567 C562 1.377 . S
C567 C566 1.378 . S
C567 H595 0.931 . S
C568 O582 1.259 . S
C568 O583 1.270 . S
C569 O584 1.251 . S
C569 O585 1.251 . S
C570 Eu571 2.835 . S
C570 C572 1.500 . S
C570 O586 1.257 . S
C570 O587 1.260 . S
Eu571 C570 2.835 . S
Eu571 O583 2.355 1_565 S
Eu571 O585 2.374 1_565 S
Eu571 O586 2.473 . S
Eu571 O587 2.480 . S
Eu571 O588 2.430 . S
Eu571 O589 2.670 . S
Eu571 O590 2.394 . S
C572 C570 1.500 . S
C572 C573 1.377 . S
C572 C577 1.377 . S
C573 C572 1.377 . S
C573 C574 1.395 . S
C573 H596 0.931 . S
C574 C573 1.395 . S
C574 C575 1.383 . S
C574 H597 0.931 . S
C575 C574 1.383 . S
C575 C576 1.394 . S
C576 C575 1.394 . S
C576 C577 1.378 . S
C576 H598 0.931 . S
C577 C572 1.377 . S
C577 C576 1.378 . S
C577 H599 0.931 . S
C578 O588 1.259 . S
C578 O589 1.270 . S
C579 O590 1.251 . S
C579 O591 1.251 . S
O580 C560 1.257 . S
O580 Eu561 2.473 . S
O581 C560 1.260 . S
O581 Eu561 2.480 . S
O582 Eu561 2.430 . S
O582 C568 1.259 . S
O583 Eu561 2.670 . S
O583 C568 1.270 . S
O583 Eu571 2.355 1_545 S
O584 Eu561 2.394 . S
O584 C569 1.251 . S
O585 C569 1.251 . S
O585 Eu571 2.374 1_545 S
O586 C570 1.257 . S
O586 Eu571 2.473 . S
O587 C570 1.260 . S
O587 Eu571 2.480 . S
O588 Eu571 2.430 . S
O588 C578 1.259 . S
O589 Eu561 2.355 1_565 S
O589 Eu571 2.670 . S
O589 C578 1.270 . S
O590 Eu571 2.394 . S
O590 C579 1.251 . S
O591 Eu561 2.374 1_565 S
O591 C579 1.251 . S
H592 C563 0.931 . S
H593 C564 0.931 . S
H594 C566 0.931 . S
H595 C567 0.931 . S
H596 C573 0.931 . S
H597 C574 0.931 . S
H598 C576 0.931 . S
H599 C577 0.931 . S
C600 Eu601 2.835 . S
C600 C602 1.500 . S
C600 O620 1.257 . S
C600 O621 1.260 . S
Eu601 C600 2.835 . S
Eu601 O620 2.473 . S
Eu601 O621 2.480 . S
Eu601 O622 2.430 . S
Eu601 O623 2.670 . S
Eu601 O624 2.414 . S
Eu601 O629 2.355 1_556 S
Eu601 O631 2.374 . S
C602 C600 1.500 . S
C602 C603 1.377 . S
C602 C607 1.377 . S
C603 C602 1.377 . S
C603 C604 1.395 . S
C603 H632 0.931 . S
C604 C603 1.395 . S
C604 C605 1.383 . S
C604 H633 0.931 . S
C605 C604 1.383 . S
C605 C606 1.394 . S
C606 C605 1.394 . S
C606 C607 1.378 . S
C606 H634 0.931 . S
C607 C602 1.377 . S
C607 C606 1.378 . S
C607 H635 0.931 . S
C608 O622 1.259 . S
C608 O623 1.270 . S
C609 O624 1.222 1_554 S
C609 O625 1.251 . S
C610 Eu611 2.835 . S
C610 C612 1.500 . S
C610 O626 1.257 . S
C610 O627 1.260 . S
Eu611 C610 2.835 . S
Eu611 O623 2.355 1_554 S
Eu611 O625 2.374 . S
Eu611 O626 2.473 . S
Eu611 O627 2.480 . S
Eu611 O628 2.430 . S
Eu611 O629 2.670 . S
Eu611 O630 2.394 . S
C612 C610 1.500 . S
C612 C613 1.377 . S
C612 C617 1.377 . S
C613 C612 1.377 . S
C613 C614 1.395 . S
C613 H636 0.931 . S
C614 C613 1.395 . S
C614 C615 1.383 . S
C614 H637 0.931 . S
C615 C614 1.383 . S
C615 C616 1.394 . S
C616 C615 1.394 . S
C616 C617 1.378 . S
C616 H638 0.931 . S
C617 C612 1.377 . S
C617 C616 1.378 . S
C617 H639 0.931 . S
C618 O628 1.259 . S
C618 O629 1.270 . S
C619 O630 1.251 1_556 S
C619 O631 1.251 . S
O620 C600 1.257 . S
O620 Eu601 2.473 . S
O621 C600 1.260 . S
O621 Eu601 2.480 . S
O622 Eu601 2.430 . S
O622 C608 1.259 . S
O623 Eu601 2.670 . S
O623 C608 1.270 . S
O623 Eu611 2.355 1_556 S
O624 Eu601 2.414 . S
O624 C609 1.222 1_556 S
O625 C609 1.251 . S
O625 Eu611 2.374 . S
O626 C610 1.257 . S
O626 Eu611 2.473 . S
O627 C610 1.260 . S
O627 Eu611 2.480 . S
O628 Eu611 2.430 . S
O628 C618 1.259 . S
O629 Eu601 2.355 1_554 S
O629 Eu611 2.670 . S
O629 C618 1.270 . S
O630 Eu611 2.394 . S
O630 C619 1.251 1_554 S
O631 Eu601 2.374 . S
O631 C619 1.251 . S
H632 C603 0.931 . S
H633 C604 0.931 . S
H634 C606 0.931 . S
H635 C607 0.931 . S
H636 C613 0.931 . S
H637 C614 0.931 . S
H638 C616 0.931 . S
H639 C617 0.931 . S
H640 C652 0.930 . S
H641 C654 0.930 1_556 S
H642 C655 0.930 1_556 S
H643 C659 0.959 . S
H644 C659 0.959 . S
H645 C659 0.961 . S
H646 C660 0.960 . S
H647 C660 0.961 . S
H648 C660 0.959 . S
H649 C663 0.929 1_556 S
H650 C664 0.931 . S
H651 C666 0.930 . S
C652 H640 0.930 . S
C652 C653 1.399 . S
C652 C657 1.399 . S
C653 C652 1.399 . S
C653 C654 1.376 . S
C654 H641 0.930 1_554 S
C654 C653 1.376 . S
C654 C655 1.388 . S
C655 H642 0.930 1_554 S
C655 C654 1.388 . S
C655 C656 1.390 . S
C656 C655 1.390 . S
C656 C657 1.394 . S
C656 C662 1.465 1_655 S
C657 C652 1.399 . S
C657 C656 1.394 . S
C657 C658 1.516 1_655 S
C658 C657 1.516 1_455 S
C658 C659 1.502 1_455 S
C658 C660 1.561 . S
C658 C661 1.526 . S
C659 H643 0.959 . S
C659 H644 0.959 . S
C659 H645 0.961 . S
C659 C658 1.502 1_655 S
C660 H646 0.960 . S
C660 H647 0.961 . S
C660 H648 0.959 . S
C660 C658 1.561 . S
C661 C658 1.526 . S
C661 C662 1.396 . S
C661 C666 1.390 . S
C662 C656 1.465 1_455 S
C662 C661 1.396 . S
C662 C663 1.399 . S
C663 H649 0.929 1_554 S
C663 C662 1.399 . S
C663 C664 1.385 . S
C664 H650 0.931 . S
C664 C663 1.385 . S
C664 C665 1.389 . S
C665 C664 1.389 . S
C665 C666 1.387 . S
C666 H651 0.930 . S
C666 C661 1.390 . S
C666 C665 1.387 . S
H667 C679 0.930 . S
H668 C681 0.930 . S
H669 C682 0.930 . S
H670 C686 0.959 . S
H671 C686 0.959 . S
H672 C686 0.961 . S
H673 C687 0.960 . S
H674 C687 0.961 . S
H675 C687 0.959 . S
H676 C690 0.929 . S
H677 C691 0.931 . S
H678 C693 0.930 . S
C679 H667 0.930 . S
C679 C680 1.399 . S
C679 C684 1.399 . S
C680 C679 1.399 . S
C680 C681 1.376 . S
C681 H668 0.930 . S
C681 C680 1.376 . S
C681 C682 1.388 . S
C682 H669 0.930 . S
C682 C681 1.388 . S
C682 C683 1.390 . S
C683 C682 1.390 . S
C683 C684 1.394 . S
C683 C689 1.465 . S
C684 C679 1.399 . S
C684 C683 1.394 . S
C684 C685 1.516 . S
C685 C684 1.516 . S
C685 C686 1.502 . S
C685 C687 1.561 . S
C685 C688 1.526 . S
C686 H670 0.959 . S
C686 H671 0.959 . S
C686 H672 0.961 . S
C686 C685 1.502 . S
C687 H673 0.960 . S
C687 H674 0.961 . S
C687 H675 0.959 . S
C687 C685 1.561 . S
C688 C685 1.526 . S
C688 C689 1.396 . S
C688 C693 1.390 . S
C689 C683 1.465 . S
C689 C688 1.396 . S
C689 C690 1.399 . S
C690 H676 0.929 . S
C690 C689 1.399 . S
C690 C691 1.385 . S
C691 H677 0.931 . S
C691 C690 1.385 . S
C691 C692 1.389 . S
C692 C691 1.389 . S
C692 C693 1.387 . S
C693 H678 0.930 . S
C693 C688 1.390 . S
C693 C692 1.387 . S
H694 C706 0.930 . S
H695 C708 0.930 . S
H696 C709 0.930 . S
H697 C713 0.959 . S
H698 C713 0.959 . S
H699 C713 0.961 . S
H700 C714 0.960 . S
H701 C714 0.961 . S
H702 C714 0.959 . S
H703 C717 0.929 . S
H704 C718 0.931 . S
H705 C720 0.930 . S
C706 H694 0.930 . S
C706 C707 1.399 . S
C706 C711 1.399 . S
C707 C706 1.399 . S
C707 C708 1.376 . S
C708 H695 0.930 . S
C708 C707 1.376 . S
C708 C709 1.388 . S
C709 H696 0.930 . S
C709 C708 1.388 . S
C709 C710 1.390 . S
C710 C709 1.390 . S
C710 C711 1.394 . S
C710 C716 1.465 . S
C711 C706 1.399 . S
C711 C710 1.394 . S
C711 C712 1.516 . S
C712 C711 1.516 . S
C712 C713 1.502 . S
C712 C714 1.561 . S
C712 C715 1.526 . S
C713 H697 0.959 . S
C713 H698 0.959 . S
C713 H699 0.961 . S
C713 C712 1.502 . S
C714 H700 0.960 . S
C714 H701 0.961 . S
C714 H702 0.959 . S
C714 C712 1.561 . S
C715 C712 1.526 . S
C715 C716 1.396 . S
C715 C720 1.390 . S
C716 C710 1.465 . S
C716 C715 1.396 . S
C716 C717 1.399 . S
C717 H703 0.929 . S
C717 C716 1.399 . S
C717 C718 1.385 . S
C718 H704 0.931 . S
C718 C717 1.385 . S
C718 C719 1.389 . S
C719 C718 1.389 . S
C719 C720 1.387 . S
C720 H705 0.930 . S
C720 C715 1.390 . S
C720 C719 1.387 . S
H721 C733 0.930 . S
H722 C735 0.930 1_565 S
H723 C736 0.930 . S
H724 C740 0.959 . S
H725 C740 0.959 . S
H726 C740 0.961 . S
H727 C741 0.960 . S
H728 C741 0.961 . S
H729 C741 0.959 . S
H730 C744 0.929 . S
H731 C745 0.931 . S
H732 C747 0.930 1_545 S
C733 H721 0.930 . S
C733 C734 1.399 . S
C733 C738 1.399 . S
C734 C733 1.399 . S
C734 C735 1.376 . S
C735 H722 0.930 1_545 S
C735 C734 1.376 . S
C735 C736 1.389 1_545 S
C736 H723 0.930 . S
C736 C735 1.389 1_565 S
C736 C737 1.390 . S
C737 C736 1.390 . S
C737 C738 1.394 1_565 S
C737 C743 1.465 . S
C738 C733 1.399 . S
C738 C737 1.394 1_545 S
C738 C739 1.516 . S
C739 C738 1.516 . S
C739 C740 1.502 . S
C739 C741 1.561 . S
C739 C742 1.526 . S
C740 H724 0.959 . S
C740 H725 0.959 . S
C740 H726 0.961 . S
C740 C739 1.502 . S
C741 H727 0.960 . S
C741 H728 0.961 . S
C741 H729 0.959 . S
C741 C739 1.561 . S
C742 C739 1.526 . S
C742 C743 1.396 1_545 S
C742 C747 1.390 1_545 S
C743 C737 1.465 . S
C743 C742 1.396 1_565 S
C743 C744 1.399 . S
C744 H730 0.929 . S
C744 C743 1.399 . S
C744 C745 1.385 . S
C745 H731 0.931 . S
C745 C744 1.385 . S
C745 C746 1.389 . S
C746 C745 1.389 . S
C746 C747 1.387 . S
C747 H732 0.930 1_565 S
C747 C742 1.390 1_565 S
C747 C746 1.387 . S
H748 C760 0.930 1_545 S
H749 C762 0.930 . S
H750 C763 0.930 . S
H751 C767 0.959 . S
H752 C767 0.959 . S
H753 C767 0.970 . S
H754 C768 0.960 . S
H755 C768 0.961 . S
H756 C768 0.959 . S
H757 C771 0.929 . S
H758 C772 0.931 1_565 S
H759 C774 0.930 . S
C760 H748 0.930 1_565 S
C760 C761 1.399 . S
C760 C765 1.376 1_565 S
C761 C760 1.399 . S
C761 C762 1.376 . S
C762 H749 0.930 . S
C762 C761 1.376 . S
C762 C763 1.388 . S
C763 H750 0.930 . S
C763 C762 1.388 . S
C763 C764 1.390 . S
C764 C763 1.390 . S
C764 C765 1.382 1_565 S
C764 C770 1.465 . S
C765 C760 1.376 1_545 S
C765 C764 1.382 1_545 S
C765 C766 1.553 . S
C766 C765 1.553 . S
C766 C767 1.502 . S
C766 C768 1.561 . S
C766 C769 1.526 . S
C767 H751 0.959 . S
C767 H752 0.959 . S
C767 H753 0.970 . S
C767 C766 1.502 . S
C768 H754 0.960 . S
C768 H755 0.961 . S
C768 H756 0.959 . S
C768 C766 1.561 . S
C769 C766 1.526 . S
C769 C770 1.396 1_545 S
C769 C774 1.390 . S
C770 C764 1.465 . S
C770 C769 1.396 1_565 S
C770 C771 1.399 . S
C771 H757 0.929 . S
C771 C770 1.399 . S
C771 C772 1.385 1_565 S
C772 H758 0.931 1_545 S
C772 C771 1.385 1_545 S
C772 C773 1.389 . S
C773 C772 1.389 . S
C773 C774 1.387 . S
C774 H759 0.930 . S
C774 C769 1.390 . S
C774 C773 1.387 . S
H775 C787 0.927 1_655 S
H776 C789 0.930 . S
H777 C790 0.930 . S
H778 C794 0.959 . S
H779 C794 0.959 . S
H780 C794 0.961 . S
H781 C795 0.960 . S
H782 C795 0.979 . S
H783 C795 0.959 . S
H784 C798 0.929 . S
H785 C799 0.927 . S
H786 C801 0.930 . S
C787 H775 0.927 1_455 S
C787 C788 1.399 . S
C787 C792 1.399 . S
C788 C787 1.399 . S
C788 C789 1.376 . S
C789 H776 0.930 . S
C789 C788 1.376 . S
C789 C790 1.388 . S
C790 H777 0.930 . S
C790 C789 1.388 . S
C790 C791 1.390 . S
C791 C790 1.390 . S
C791 C792 1.394 . S
C791 C797 1.465 . S
C792 C787 1.399 . S
C792 C791 1.394 . S
C792 C793 1.516 1_455 S
C793 C792 1.516 1_655 S
C793 C794 1.502 . S
C793 C795 1.561 1_655 S
C793 C796 1.526 . S
C794 H778 0.959 . S
C794 H779 0.959 . S
C794 H780 0.961 . S
C794 C793 1.502 . S
C795 H781 0.960 . S
C795 H782 0.979 . S
C795 H783 0.959 . S
C795 C793 1.561 1_455 S
C796 C793 1.526 . S
C796 C797 1.396 1_655 S
C796 C801 1.390 . S
C797 C791 1.465 . S
C797 C796 1.396 1_455 S
C797 C798 1.399 . S
C798 H784 0.929 . S
C798 C797 1.399 . S
C798 C799 1.415 . S
C799 H785 0.927 . S
C799 C798 1.415 . S
C799 C800 1.365 1_455 S
C800 C799 1.365 1_655 S
C800 C801 1.387 . S
C801 H786 0.930 . S
C801 C796 1.390 . S
C801 C800 1.387 . S
H802 C814 0.930 . S
H803 C816 0.930 . S
H804 C817 0.930 . S
H805 C821 0.959 . S
H806 C821 0.959 . S
H807 C821 0.961 . S
H808 C822 0.960 . S
H809 C822 0.961 . S
H810 C822 0.959 . S
H811 C825 0.929 . S
H812 C826 0.931 . S
H813 C828 0.930 . S
C814 H802 0.930 . S
C814 C815 1.399 . S
C814 C819 1.399 . S
C815 C814 1.399 . S
C815 C816 1.376 . S
C816 H803 0.930 . S
C816 C815 1.376 . S
C816 C817 1.388 . S
C817 H804 0.930 . S
C817 C816 1.388 . S
C817 C818 1.390 . S
C818 C817 1.390 . S
C818 C819 1.394 . S
C818 C824 1.465 . S
C819 C814 1.399 . S
C819 C818 1.394 . S
C819 C820 1.516 . S
C820 C819 1.516 . S
C820 C821 1.502 . S
C820 C822 1.561 . S
C820 C823 1.526 . S
C821 H805 0.959 . S
C821 H806 0.959 . S
C821 H807 0.961 . S
C821 C820 1.502 . S
C822 H808 0.960 . S
C822 H809 0.961 . S
C822 H810 0.959 . S
C822 C820 1.561 . S
C823 C820 1.526 . S
C823 C824 1.396 . S
C823 C828 1.390 . S
C824 C818 1.465 . S
C824 C823 1.396 . S
C824 C825 1.399 . S
C825 H811 0.929 . S
C825 C824 1.399 . S
C825 C826 1.385 . S
C826 H812 0.931 . S
C826 C825 1.385 . S
C826 C827 1.389 . S
C827 C826 1.389 . S
C827 C828 1.387 . S
C828 H813 0.930 . S
C828 C823 1.390 . S
C828 C827 1.387 . S
H829 C841 0.930 . S
H830 C843 0.930 . S
H831 C844 0.930 . S
H832 C848 0.959 . S
H833 C848 0.959 . S
H834 C848 0.961 . S
H835 C849 0.960 . S
H836 C849 0.961 . S
H837 C849 0.959 . S
H838 C852 0.929 . S
H839 C853 0.931 . S
H840 C855 0.930 . S
C841 H829 0.930 . S
C841 C842 1.399 . S
C841 C846 1.399 . S
C842 C841 1.399 . S
C842 C843 1.376 . S
C843 H830 0.930 . S
C843 C842 1.376 . S
C843 C844 1.388 . S
C844 H831 0.930 . S
C844 C843 1.388 . S
C844 C845 1.390 . S
C845 C844 1.390 . S
C845 C846 1.394 . S
C845 C851 1.465 . S
C846 C841 1.399 . S
C846 C845 1.394 . S
C846 C847 1.516 . S
C847 C846 1.516 . S
C847 C848 1.502 . S
C847 C849 1.561 . S
C847 C850 1.526 . S
C848 H832 0.959 . S
C848 H833 0.959 . S
C848 H834 0.961 . S
C848 C847 1.502 . S
C849 H835 0.960 . S
C849 H836 0.961 . S
C849 H837 0.959 . S
C849 C847 1.561 . S
C850 C847 1.526 . S
C850 C851 1.396 . S
C850 C855 1.390 . S
C851 C845 1.465 . S
C851 C850 1.396 . S
C851 C852 1.399 . S
C852 H838 0.929 . S
C852 C851 1.399 . S
C852 C853 1.385 . S
C853 H839 0.931 . S
C853 C852 1.385 . S
C853 C854 1.389 . S
C854 C853 1.389 . S
C854 C855 1.387 . S
C855 H840 0.930 . S
C855 C850 1.390 . S
C855 C854 1.387 . S
H856 C868 0.930 . S
H857 C870 0.930 . S
H858 C871 0.930 . S
H859 C875 0.959 . S
H860 C875 0.959 . S
H861 C875 0.961 . S
H862 C876 0.960 . S
H863 C876 0.961 . S
H864 C876 0.959 . S
H865 C879 0.929 . S
H866 C880 0.931 . S
H867 C882 0.930 . S
C868 H856 0.930 . S
C868 C869 1.399 . S
C868 C873 1.399 . S
C869 C868 1.399 . S
C869 C870 1.376 . S
C870 H857 0.930 . S
C870 C869 1.376 . S
C870 C871 1.388 . S
C871 H858 0.930 . S
C871 C870 1.388 . S
C871 C872 1.390 . S
C872 C871 1.390 . S
C872 C873 1.394 . S
C872 C878 1.465 . S
C873 C868 1.399 . S
C873 C872 1.394 . S
C873 C874 1.516 . S
C874 C873 1.516 . S
C874 C875 1.502 . S
C874 C876 1.561 . S
C874 C877 1.526 . S
C875 H859 0.959 . S
C875 H860 0.959 . S
C875 H861 0.961 . S
C875 C874 1.502 . S
C876 H862 0.960 . S
C876 H863 0.961 . S
C876 H864 0.959 . S
C876 C874 1.561 . S
C877 C874 1.526 . S
C877 C878 1.396 . S
C877 C882 1.390 . S
C878 C872 1.465 . S
C878 C877 1.396 . S
C878 C879 1.399 . S
C879 H865 0.929 . S
C879 C878 1.399 . S
C879 C880 1.385 . S
C880 H866 0.931 . S
C880 C879 1.385 . S
C880 C881 1.389 . S
C881 C880 1.389 . S
C881 C882 1.387 . S
C882 H867 0.930 . S
C882 C877 1.390 . S
C882 C881 1.387 . S
H883 C895 0.930 . S
H884 C897 0.930 . S
H885 C898 0.930 . S
H886 C902 0.959 . S
H887 C902 0.959 . S
H888 C902 0.961 . S
H889 C903 0.960 . S
H890 C903 0.961 . S
H891 C903 0.959 . S
H892 C906 0.929 . S
H893 C907 0.931 . S
H894 C909 0.930 . S
C895 H883 0.930 . S
C895 C896 1.399 . S
C895 C900 1.399 . S
C896 C895 1.399 . S
C896 C897 1.376 . S
C897 H884 0.930 . S
C897 C896 1.376 . S
C897 C898 1.388 . S
C898 H885 0.930 . S
C898 C897 1.388 . S
C898 C899 1.390 . S
C899 C898 1.390 . S
C899 C900 1.394 . S
C899 C905 1.465 . S
C900 C895 1.399 . S
C900 C899 1.394 . S
C900 C901 1.516 . S
C901 C900 1.516 . S
C901 C902 1.502 . S
C901 C903 1.561 . S
C901 C904 1.526 . S
C902 H886 0.959 . S
C902 H887 0.959 . S
C902 H888 0.961 . S
C902 C901 1.502 . S
C903 H889 0.960 . S
C903 H890 0.961 . S
C903 H891 0.959 . S
C903 C901 1.561 . S
C904 C901 1.526 . S
C904 C905 1.396 . S
C904 C909 1.390 . S
C905 C899 1.465 . S
C905 C904 1.396 . S
C905 C906 1.399 . S
C906 H892 0.929 . S
C906 C905 1.399 . S
C906 C907 1.385 . S
C907 H893 0.931 . S
C907 C906 1.385 . S
C907 C908 1.389 . S
C908 C907 1.389 . S
C908 C909 1.387 . S
C909 H894 0.930 . S
C909 C904 1.390 . S
C909 C908 1.387 . S
H910 C922 0.930 . S
H911 C924 0.930 . S
H912 C925 0.930 . S
H913 C929 0.959 . S
H914 C929 0.959 . S
H915 C929 0.961 . S
H916 C930 0.959 1_565 S
H917 C930 0.948 . S
H918 C930 0.960 . S
H919 C933 0.929 . S
H920 C934 0.931 . S
H921 C936 0.930 . S
C922 H910 0.930 . S
C922 C923 1.399 . S
C922 C927 1.399 . S
C923 C922 1.399 . S
C923 C924 1.376 . S
C924 H911 0.930 . S
C924 C923 1.376 . S
C924 C925 1.388 1_565 S
C925 H912 0.930 . S
C925 C924 1.388 1_545 S
C925 C926 1.390 . S
C926 C925 1.390 . S
C926 C927 1.394 1_545 S
C926 C932 1.465 . S
C927 C922 1.399 . S
C927 C926 1.394 1_565 S
C927 C928 1.516 . S
C928 C927 1.516 . S
C928 C929 1.502 . S
C928 C930 1.561 1_565 S
C928 C931 1.526 1_565 S
C929 H913 0.959 . S
C929 H914 0.959 . S
C929 H915 0.961 . S
C929 C928 1.502 . S
C930 H916 0.959 1_545 S
C930 H917 0.948 . S
C930 H918 0.960 . S
C930 C928 1.561 1_545 S
C931 C928 1.526 1_545 S
C931 C932 1.396 . S
C931 C936 1.390 . S
C932 C926 1.465 . S
C932 C931 1.396 . S
C932 C933 1.399 . S
C933 H919 0.929 . S
C933 C932 1.399 . S
C933 C934 1.385 . S
C934 H920 0.931 . S
C934 C933 1.385 . S
C934 C935 1.389 . S
C935 C934 1.389 . S
C935 C936 1.387 . S
C936 H921 0.930 . S
C936 C931 1.390 . S
C936 C935 1.387 . S
H937 C949 0.930 1_554 S
H938 C951 0.930 . S
H939 C952 0.930 . S
H940 C956 0.959 1_556 S
H941 C956 0.959 . S
H942 C956 0.961 . S
H943 C957 0.960 . S
H944 C957 0.961 . S
H945 C957 0.959 1_556 S
H946 C960 0.929 1_455 S
H947 C961 0.931 . S
H948 C963 0.930 . S
C949 H937 0.930 1_556 S
C949 C950 1.399 . S
C949 C954 1.399 . S
C950 C949 1.399 . S
C950 C951 1.376 . S
C951 H938 0.930 . S
C951 C950 1.376 . S
C951 C952 1.388 . S
C952 H939 0.930 . S
C952 C951 1.388 . S
C952 C953 1.390 . S
C953 C952 1.390 . S
C953 C954 1.394 . S
C953 C959 1.465 1_455 S
C954 C949 1.399 . S
C954 C953 1.394 . S
C954 C955 1.516 1_455 S
C955 C954 1.516 1_655 S
C955 C956 1.502 1_656 S
C955 C957 1.561 1_556 S
C955 C958 1.526 . S
C956 H940 0.959 1_554 S
C956 H941 0.959 . S
C956 H942 0.961 . S
C956 C955 1.502 1_454 S
C957 H943 0.960 . S
C957 H944 0.961 . S
C957 H945 0.959 1_554 S
C957 C955 1.561 1_554 S
C958 C955 1.526 . S
C958 C959 1.396 . S
C958 C963 1.390 . S
C959 C953 1.465 1_655 S
C959 C958 1.396 . S
C959 C960 1.399 . S
C960 H946 0.929 1_655 S
C960 C959 1.399 . S
C960 C961 1.385 . S
C961 H947 0.931 . S
C961 C960 1.385 . S
C961 C962 1.389 . S
C962 C961 1.389 . S
C962 C963 1.387 . S
C963 H948 0.930 . S
C963 C958 1.390 . S
C963 C962 1.387 . S
H964 C976 0.930 . S
H965 C978 0.930 . S
H966 C979 0.930 . S
H967 C983 0.959 . S
H968 C983 0.959 . S
H969 C983 0.961 . S
H970 C984 0.960 . S
H971 C984 0.961 . S
H972 C984 0.959 . S
H973 C987 0.929 . S
H974 C988 0.931 . S
H975 C990 0.930 . S
C976 H964 0.930 . S
C976 C977 1.399 . S
C976 C981 1.399 . S
C977 C976 1.399 . S
C977 C978 1.376 . S
C978 H965 0.930 . S
C978 C977 1.376 . S
C978 C979 1.388 . S
C979 H966 0.930 . S
C979 C978 1.388 . S
C979 C980 1.390 . S
C980 C979 1.390 . S
C980 C981 1.394 . S
C980 C986 1.465 . S
C981 C976 1.399 . S
C981 C980 1.394 . S
C981 C982 1.516 . S
C982 C981 1.516 . S
C982 C983 1.502 . S
C982 C984 1.561 1_556 S
C982 C985 1.526 . S
C983 H967 0.959 . S
C983 H968 0.959 . S
C983 H969 0.961 . S
C983 C982 1.502 . S
C984 H970 0.960 . S
C984 H971 0.961 . S
C984 H972 0.959 . S
C984 C982 1.561 1_554 S
C985 C982 1.526 . S
C985 C986 1.396 . S
C985 C990 1.390 . S
C986 C980 1.465 . S
C986 C985 1.396 . S
C986 C987 1.399 . S
C987 H973 0.929 . S
C987 C986 1.399 . S
C987 C988 1.385 . S
C988 H974 0.931 . S
C988 C987 1.385 . S
C988 C989 1.389 . S
C989 C988 1.389 . S
C989 C990 1.387 . S
C990 H975 0.930 . S
C990 C985 1.390 . S
C990 C989 1.387 . S
H991 C1003 0.930 . S
H992 C1005 0.930 . S
H993 C1006 0.930 . S
H994 C1010 0.959 . S
H995 C1010 0.959 . S
H996 C1010 0.961 . S
H997 C1011 0.960 . S
H998 C1011 0.961 . S
H999 C1011 0.959 . S
H1000 C1014 0.929 . S
H1001 C1015 0.931 . S
H1002 C1017 0.930 . S
C1003 H991 0.930 . S
C1003 C1004 1.399 . S
C1003 C1008 1.399 . S
C1004 C1003 1.399 . S
C1004 C1005 1.376 . S
C1005 H992 0.930 . S
C1005 C1004 1.376 . S
C1005 C1006 1.388 . S
C1006 H993 0.930 . S
C1006 C1005 1.388 . S
C1006 C1007 1.390 . S
C1007 C1006 1.390 . S
C1007 C1008 1.394 . S
C1007 C1013 1.465 . S
C1008 C1003 1.399 . S
C1008 C1007 1.394 . S
C1008 C1009 1.516 . S
C1009 C1008 1.516 . S
C1009 C1010 1.502 . S
C1009 C1011 1.561 . S
C1009 C1012 1.526 . S
C1010 H994 0.959 . S
C1010 H995 0.959 . S
C1010 H996 0.961 . S
C1010 C1009 1.502 . S
C1011 H997 0.960 . S
C1011 H998 0.961 . S
C1011 H999 0.959 . S
C1011 C1009 1.561 . S
C1012 C1009 1.526 . S
C1012 C1013 1.396 . S
C1012 C1017 1.390 . S
C1013 C1007 1.465 . S
C1013 C1012 1.396 . S
C1013 C1014 1.399 . S
C1014 H1000 0.929 . S
C1014 C1013 1.399 . S
C1014 C1015 1.385 . S
C1015 H1001 0.931 . S
C1015 C1014 1.385 . S
C1015 C1016 1.389 . S
C1016 C1015 1.389 . S
C1016 C1017 1.387 . S
C1017 H1002 0.930 . S
C1017 C1012 1.390 . S
C1017 C1016 1.387 . S
H1018 C1030 0.930 . S
H1019 C1032 0.930 . S
H1020 C1033 0.930 . S
H1021 C1037 0.959 . S
H1022 C1037 0.959 . S
H1023 C1037 0.961 . S
H1024 C1038 0.960 . S
H1025 C1038 0.961 . S
H1026 C1038 0.959 . S
H1027 C1041 0.929 . S
H1028 C1042 0.931 . S
H1029 C1044 0.930 . S
C1030 H1018 0.930 . S
C1030 C1031 1.399 . S
C1030 C1035 1.399 . S
C1031 C1030 1.399 . S
C1031 C1032 1.376 . S
C1032 H1019 0.930 . S
C1032 C1031 1.376 . S
C1032 C1033 1.388 . S
C1033 H1020 0.930 . S
C1033 C1032 1.388 . S
C1033 C1034 1.390 . S
C1034 C1033 1.390 . S
C1034 C1035 1.394 . S
C1034 C1040 1.465 . S
C1035 C1030 1.399 . S
C1035 C1034 1.394 . S
C1035 C1036 1.516 . S
C1036 C1035 1.516 . S
C1036 C1037 1.502 . S
C1036 C1038 1.561 . S
C1036 C1039 1.526 . S
C1037 H1021 0.959 . S
C1037 H1022 0.959 . S
C1037 H1023 0.961 . S
C1037 C1036 1.502 . S
C1038 H1024 0.960 . S
C1038 H1025 0.961 . S
C1038 H1026 0.959 . S
C1038 C1036 1.561 . S
C1039 C1036 1.526 . S
C1039 C1040 1.396 . S
C1039 C1044 1.390 . S
C1040 C1034 1.465 . S
C1040 C1039 1.396 . S
C1040 C1041 1.399 . S
C1041 H1027 0.929 . S
C1041 C1040 1.399 . S
C1041 C1042 1.385 . S
C1042 H1028 0.931 . S
C1042 C1041 1.385 . S
C1042 C1043 1.389 . S
C1043 C1042 1.389 . S
C1043 C1044 1.387 . S
C1044 H1029 0.930 . S
C1044 C1039 1.390 . S
C1044 C1043 1.387 . S
H1045 C1057 0.930 . S
H1046 C1059 0.930 . S
H1047 C1060 0.930 . S
H1048 C1064 0.959 . S
H1049 C1064 0.959 . S
H1050 C1064 0.961 . S
H1051 C1065 0.960 . S
H1052 C1065 0.961 . S
H1053 C1065 0.959 . S
H1054 C1068 0.929 . S
H1055 C1069 0.931 . S
H1056 C1071 0.930 . S
C1057 H1045 0.930 . S
C1057 C1058 1.399 . S
C1057 C1062 1.399 . S
C1058 C1057 1.399 . S
C1058 C1059 1.376 . S
C1059 H1046 0.930 . S
C1059 C1058 1.376 . S
C1059 C1060 1.388 . S
C1060 H1047 0.930 . S
C1060 C1059 1.388 . S
C1060 C1061 1.390 . S
C1061 C1060 1.390 . S
C1061 C1062 1.394 . S
C1061 C1067 1.465 . S
C1062 C1057 1.399 . S
C1062 C1061 1.394 . S
C1062 C1063 1.516 . S
C1063 C1062 1.516 . S
C1063 C1064 1.502 . S
C1063 C1065 1.561 . S
C1063 C1066 1.526 . S
C1064 H1048 0.959 . S
C1064 H1049 0.959 . S
C1064 H1050 0.961 . S
C1064 C1063 1.502 . S
C1065 H1051 0.960 . S
C1065 H1052 0.961 . S
C1065 H1053 0.959 . S
C1065 C1063 1.561 . S
C1066 C1063 1.526 . S
C1066 C1067 1.396 . S
C1066 C1071 1.390 . S
C1067 C1061 1.465 . S
C1067 C1066 1.396 . S
C1067 C1068 1.399 . S
C1068 H1054 0.929 . S
C1068 C1067 1.399 . S
C1068 C1069 1.385 . S
C1069 H1055 0.931 . S
C1069 C1068 1.385 . S
C1069 C1070 1.389 . S
C1070 C1069 1.389 . S
C1070 C1071 1.387 . S
C1071 H1056 0.930 . S
C1071 C1066 1.390 . S
C1071 C1070 1.387 . S
H1072 C1084 0.930 . S
H1073 C1086 0.930 . S
H1074 C1087 0.930 . S
H1075 C1091 0.959 . S
H1076 C1091 0.959 . S
H1077 C1091 0.961 . S
H1078 C1092 0.960 . S
H1079 C1092 0.961 . S
H1080 C1092 0.959 . S
H1081 C1095 0.929 . S
H1082 C1096 0.931 . S
H1083 C1098 0.930 . S
C1084 H1072 0.930 . S
C1084 C1085 1.399 . S
C1084 C1089 1.399 . S
C1085 C1084 1.399 . S
C1085 C1086 1.376 . S
C1086 H1073 0.930 . S
C1086 C1085 1.376 . S
C1086 C1087 1.388 . S
C1087 H1074 0.930 . S
C1087 C1086 1.388 . S
C1087 C1088 1.390 . S
C1088 C1087 1.390 . S
C1088 C1089 1.394 . S
C1088 C1094 1.465 . S
C1089 C1084 1.399 . S
C1089 C1088 1.394 . S
C1089 C1090 1.516 . S
C1090 C1089 1.516 . S
C1090 C1091 1.502 . S
C1090 C1092 1.561 . S
C1090 C1093 1.526 . S
C1091 H1075 0.959 . S
C1091 H1076 0.959 . S
C1091 H1077 0.961 . S
C1091 C1090 1.502 . S
C1092 H1078 0.960 . S
C1092 H1079 0.961 . S
C1092 H1080 0.959 . S
C1092 C1090 1.561 . S
C1093 C1090 1.526 . S
C1093 C1094 1.396 . S
C1093 C1098 1.390 . S
C1094 C1088 1.465 . S
C1094 C1093 1.396 . S
C1094 C1095 1.399 . S
C1095 H1081 0.929 . S
C1095 C1094 1.399 . S
C1095 C1096 1.385 . S
C1096 H1082 0.931 . S
C1096 C1095 1.385 . S
C1096 C1097 1.389 . S
C1097 C1096 1.389 . S
C1097 C1098 1.387 . S
C1098 H1083 0.930 . S
C1098 C1093 1.390 . S
C1098 C1097 1.387 . S
H1099 C1111 0.930 . S
H1100 C1113 0.930 . S
H1101 C1114 0.930 . S
H1102 C1118 0.959 . S
H1103 C1118 0.959 . S
H1104 C1118 0.961 . S
H1105 C1119 0.960 . S
H1106 C1119 0.961 . S
H1107 C1119 0.959 . S
H1108 C1122 0.929 . S
H1109 C1123 0.931 . S
H1110 C1125 0.930 . S
C1111 H1099 0.930 . S
C1111 C1112 1.399 . S
C1111 C1116 1.399 . S
C1112 C1111 1.399 . S
C1112 C1113 1.376 . S
C1113 H1100 0.930 . S
C1113 C1112 1.376 . S
C1113 C1114 1.388 . S
C1114 H1101 0.930 . S
C1114 C1113 1.388 . S
C1114 C1115 1.390 . S
C1115 C1114 1.390 . S
C1115 C1116 1.394 . S
C1115 C1121 1.465 . S
C1116 C1111 1.399 . S
C1116 C1115 1.394 . S
C1116 C1117 1.516 . S
C1117 C1116 1.516 . S
C1117 C1118 1.502 . S
C1117 C1119 1.561 . S
C1117 C1120 1.526 . S
C1118 H1102 0.959 . S
C1118 H1103 0.959 . S
C1118 H1104 0.961 . S
C1118 C1117 1.502 . S
C1119 H1105 0.960 . S
C1119 H1106 0.961 . S
C1119 H1107 0.959 . S
C1119 C1117 1.561 . S
C1120 C1117 1.526 . S
C1120 C1121 1.396 . S
C1120 C1125 1.390 . S
C1121 C1115 1.465 . S
C1121 C1120 1.396 . S
C1121 C1122 1.399 . S
C1122 H1108 0.929 . S
C1122 C1121 1.399 . S
C1122 C1123 1.385 . S
C1123 H1109 0.931 . S
C1123 C1122 1.385 . S
C1123 C1124 1.389 . S
C1124 C1123 1.389 . S
C1124 C1125 1.387 . S
C1125 H1110 0.930 . S
C1125 C1120 1.390 . S
C1125 C1124 1.387 . S
H1126 C1138 0.930 . S
H1127 C1140 0.930 . S
H1128 C1141 0.930 . S
H1129 C1145 0.959 . S
H1130 C1145 0.959 . S
H1131 C1145 0.961 . S
H1132 C1146 0.960 . S
H1133 C1146 0.961 . S
H1134 C1146 0.959 . S
H1135 C1149 0.929 . S
H1136 C1150 0.931 . S
H1137 C1152 0.930 . S
C1138 H1126 0.930 . S
C1138 C1139 1.399 . S
C1138 C1143 1.399 . S
C1139 C1138 1.399 . S
C1139 C1140 1.376 . S
C1140 H1127 0.930 . S
C1140 C1139 1.376 . S
C1140 C1141 1.388 . S
C1141 H1128 0.930 . S
C1141 C1140 1.388 . S
C1141 C1142 1.390 . S
C1142 C1141 1.390 . S
C1142 C1143 1.394 . S
C1142 C1148 1.465 . S
C1143 C1138 1.399 . S
C1143 C1142 1.394 . S
C1143 C1144 1.516 . S
C1144 C1143 1.516 . S
C1144 C1145 1.502 . S
C1144 C1146 1.561 . S
C1144 C1147 1.526 . S
C1145 H1129 0.959 . S
C1145 H1130 0.959 . S
C1145 H1131 0.961 . S
C1145 C1144 1.502 . S
C1146 H1132 0.960 . S
C1146 H1133 0.961 . S
C1146 H1134 0.959 . S
C1146 C1144 1.561 . S
C1147 C1144 1.526 . S
C1147 C1148 1.396 . S
C1147 C1152 1.390 . S
C1148 C1142 1.465 . S
C1148 C1147 1.396 . S
C1148 C1149 1.399 . S
C1149 H1135 0.929 . S
C1149 C1148 1.399 . S
C1149 C1150 1.385 . S
C1150 H1136 0.931 . S
C1150 C1149 1.385 . S
C1150 C1151 1.389 . S
C1151 C1150 1.389 . S
C1151 C1152 1.387 . S
C1152 H1137 0.930 . S
C1152 C1147 1.390 . S
C1152 C1151 1.387 . S
H1153 C1165 0.930 . S
H1154 C1167 0.930 . S
H1155 C1168 0.930 . S
H1156 C1172 0.959 . S
H1157 C1172 0.959 . S
H1158 C1172 0.961 . S
H1159 C1173 0.960 . S
H1160 C1173 0.961 . S
H1161 C1173 0.959 . S
H1162 C1176 0.929 . S
H1163 C1177 0.931 . S
H1164 C1179 0.930 . S
C1165 H1153 0.930 . S
C1165 C1166 1.399 . S
C1165 C1170 1.399 . S
C1166 C1165 1.399 . S
C1166 C1167 1.376 . S
C1167 H1154 0.930 . S
C1167 C1166 1.376 . S
C1167 C1168 1.388 . S
C1168 H1155 0.930 . S
C1168 C1167 1.388 . S
C1168 C1169 1.390 . S
C1169 C1168 1.390 . S
C1169 C1170 1.394 . S
C1169 C1175 1.465 . S
C1170 C1165 1.399 . S
C1170 C1169 1.394 . S
C1170 C1171 1.516 . S
C1171 C1170 1.516 . S
C1171 C1172 1.502 . S
C1171 C1173 1.561 . S
C1171 C1174 1.526 . S
C1172 H1156 0.959 . S
C1172 H1157 0.959 . S
C1172 H1158 0.961 . S
C1172 C1171 1.502 . S
C1173 H1159 0.960 . S
C1173 H1160 0.961 . S
C1173 H1161 0.959 . S
C1173 C1171 1.561 . S
C1174 C1171 1.526 . S
C1174 C1175 1.396 . S
C1174 C1179 1.390 . S
C1175 C1169 1.465 . S
C1175 C1174 1.396 . S
C1175 C1176 1.399 . S
C1176 H1162 0.929 . S
C1176 C1175 1.399 . S
C1176 C1177 1.385 . S
C1177 H1163 0.931 . S
C1177 C1176 1.385 . S
C1177 C1178 1.389 . S
C1178 C1177 1.389 . S
C1178 C1179 1.387 . S
C1179 H1164 0.930 . S
C1179 C1174 1.390 . S
C1179 C1178 1.387 . S
H1180 C1192 0.930 . S
H1181 C1194 0.930 . S
H1182 C1195 0.930 . S
H1183 C1199 0.959 . S
H1184 C1199 0.959 . S
H1185 C1199 0.961 . S
H1186 C1200 0.960 . S
H1187 C1200 0.961 . S
H1188 C1200 0.959 . S
H1189 C1203 0.929 . S
H1190 C1204 0.931 . S
H1191 C1206 0.930 . S
C1192 H1180 0.930 . S
C1192 C1193 1.399 . S
C1192 C1197 1.399 . S
C1193 C1192 1.399 . S
C1193 C1194 1.376 . S
C1194 H1181 0.930 . S
C1194 C1193 1.376 . S
C1194 C1195 1.388 . S
C1195 H1182 0.930 . S
C1195 C1194 1.388 . S
C1195 C1196 1.390 . S
C1196 C1195 1.390 . S
C1196 C1197 1.394 . S
C1196 C1202 1.465 . S
C1197 C1192 1.399 . S
C1197 C1196 1.394 . S
C1197 C1198 1.516 . S
C1198 C1197 1.516 . S
C1198 C1199 1.502 . S
C1198 C1200 1.561 . S
C1198 C1201 1.526 . S
C1199 H1183 0.959 . S
C1199 H1184 0.959 . S
C1199 H1185 0.961 . S
C1199 C1198 1.502 . S
C1200 H1186 0.960 . S
C1200 H1187 0.961 . S
C1200 H1188 0.959 . S
C1200 C1198 1.561 . S
C1201 C1198 1.526 . S
C1201 C1202 1.396 . S
C1201 C1206 1.390 . S
C1202 C1196 1.465 . S
C1202 C1201 1.396 . S
C1202 C1203 1.399 . S
C1203 H1189 0.929 . S
C1203 C1202 1.399 . S
C1203 C1204 1.385 . S
C1204 H1190 0.931 . S
C1204 C1203 1.385 . S
C1204 C1205 1.389 . S
C1205 C1204 1.389 . S
C1205 C1206 1.387 . S
C1206 H1191 0.930 . S
C1206 C1201 1.390 . S
C1206 C1205 1.387 . S
H1207 C1219 0.930 . S
H1208 C1221 0.930 . S
H1209 C1222 0.930 . S
H1210 C1226 0.959 . S
H1211 C1226 0.959 . S
H1212 C1226 0.961 . S
H1213 C1227 0.960 . S
H1214 C1227 0.961 . S
H1215 C1227 0.959 1_655 S
H1216 C1230 0.929 . S
H1217 C1231 0.931 . S
H1218 C1233 0.930 1_455 S
C1219 H1207 0.930 . S
C1219 C1220 1.399 . S
C1219 C1224 1.399 . S
C1220 C1219 1.399 . S
C1220 C1221 1.376 1_455 S
C1221 H1208 0.930 . S
C1221 C1220 1.376 1_655 S
C1221 C1222 1.388 . S
C1222 H1209 0.930 . S
C1222 C1221 1.388 . S
C1222 C1223 1.390 . S
C1223 C1222 1.390 . S
C1223 C1224 1.394 1_655 S
C1223 C1229 1.465 . S
C1224 C1219 1.399 . S
C1224 C1223 1.394 1_455 S
C1224 C1225 1.516 . S
C1225 C1224 1.516 . S
C1225 C1226 1.502 . S
C1225 C1227 1.561 . S
C1225 C1228 1.557 . S
C1226 H1210 0.959 . S
C1226 H1211 0.959 . S
C1226 H1212 0.961 . S
C1226 C1225 1.502 . S
C1227 H1213 0.960 . S
C1227 H1214 0.961 . S
C1227 H1215 0.959 1_455 S
C1227 C1225 1.561 . S
C1228 C1225 1.557 . S
C1228 C1229 1.381 1_455 S
C1228 C1233 1.373 1_455 S
C1229 C1223 1.465 . S
C1229 C1228 1.381 1_655 S
C1229 C1230 1.399 . S
C1230 H1216 0.929 . S
C1230 C1229 1.399 . S
C1230 C1231 1.385 . S
C1231 H1217 0.931 . S
C1231 C1230 1.385 . S
C1231 C1232 1.389 . S
C1232 C1231 1.389 . S
C1232 C1233 1.387 . S
C1233 H1218 0.930 1_655 S
C1233 C1228 1.373 1_655 S
C1233 C1232 1.387 . S
H1234 C1246 0.930 . S
H1235 C1248 0.930 . S
H1236 C1249 0.930 . S
H1237 C1253 0.959 . S
H1238 C1253 0.959 . S
H1239 C1253 0.961 . S
H1240 C1254 0.960 . S
H1241 C1254 0.961 . S
H1242 C1254 0.959 . S
H1243 C1257 0.929 . S
H1244 C1258 0.931 . S
H1245 C1260 0.930 . S
C1246 H1234 0.930 . S
C1246 C1247 1.399 . S
C1246 C1251 1.399 . S
C1247 C1246 1.399 . S
C1247 C1248 1.376 . S
C1248 H1235 0.930 . S
C1248 C1247 1.376 . S
C1248 C1249 1.388 . S
C1249 H1236 0.930 . S
C1249 C1248 1.388 . S
C1249 C1250 1.390 . S
C1250 C1249 1.390 . S
C1250 C1251 1.394 . S
C1250 C1256 1.465 . S
C1251 C1246 1.399 . S
C1251 C1250 1.394 . S
C1251 C1252 1.516 . S
C1252 C1251 1.516 . S
C1252 C1253 1.502 . S
C1252 C1254 1.561 . S
C1252 C1255 1.526 . S
C1253 H1237 0.959 . S
C1253 H1238 0.959 . S
C1253 H1239 0.961 . S
C1253 C1252 1.502 . S
C1254 H1240 0.960 . S
C1254 H1241 0.961 . S
C1254 H1242 0.959 . S
C1254 C1252 1.561 . S
C1255 C1252 1.526 . S
C1255 C1256 1.396 . S
C1255 C1260 1.390 . S
C1256 C1250 1.465 . S
C1256 C1255 1.396 . S
C1256 C1257 1.399 . S
C1257 H1243 0.929 . S
C1257 C1256 1.399 . S
C1257 C1258 1.385 . S
C1258 H1244 0.931 . S
C1258 C1257 1.385 . S
C1258 C1259 1.389 . S
C1259 C1258 1.389 . S
C1259 C1260 1.387 . S
C1260 H1245 0.930 . S
C1260 C1255 1.390 . S
C1260 C1259 1.387 . S
H1261 C1273 0.930 . S
H1262 C1275 0.930 . S
H1263 C1276 0.930 . S
H1264 C1280 0.959 . S
H1265 C1280 0.959 . S
H1266 C1280 0.961 . S
H1267 C1281 0.960 . S
H1268 C1281 0.961 . S
H1269 C1281 0.959 . S
H1270 C1284 0.929 . S
H1271 C1285 0.931 . S
H1272 C1287 0.930 . S
C1273 H1261 0.930 . S
C1273 C1274 1.399 . S
C1273 C1278 1.399 . S
C1274 C1273 1.399 . S
C1274 C1275 1.376 . S
C1275 H1262 0.930 . S
C1275 C1274 1.376 . S
C1275 C1276 1.388 . S
C1276 H1263 0.930 . S
C1276 C1275 1.388 . S
C1276 C1277 1.390 . S
C1277 C1276 1.390 . S
C1277 C1278 1.394 . S
C1277 C1283 1.465 . S
C1278 C1273 1.399 . S
C1278 C1277 1.394 . S
C1278 C1279 1.516 . S
C1279 C1278 1.516 . S
C1279 C1280 1.502 . S
C1279 C1281 1.561 . S
C1279 C1282 1.526 . S
C1280 H1264 0.959 . S
C1280 H1265 0.959 . S
C1280 H1266 0.961 . S
C1280 C1279 1.502 . S
C1281 H1267 0.960 . S
C1281 H1268 0.961 . S
C1281 H1269 0.959 . S
C1281 C1279 1.561 . S
C1282 C1279 1.526 . S
C1282 C1283 1.396 . S
C1282 C1287 1.390 . S
C1283 C1277 1.465 . S
C1283 C1282 1.396 . S
C1283 C1284 1.399 . S
C1284 H1270 0.929 . S
C1284 C1283 1.399 . S
C1284 C1285 1.385 . S
C1285 H1271 0.931 . S
C1285 C1284 1.385 . S
C1285 C1286 1.389 . S
C1286 C1285 1.389 . S
C1286 C1287 1.387 . S
C1287 H1272 0.930 . S
C1287 C1282 1.390 . S
C1287 C1286 1.387 . S
H1288 C1300 0.930 . S
H1289 C1302 0.930 . S
H1290 C1303 0.930 . S
H1291 C1307 0.959 . S
H1292 C1307 0.959 . S
H1293 C1307 0.961 . S
H1294 C1308 0.960 . S
H1295 C1308 0.961 . S
H1296 C1308 0.959 . S
H1297 C1311 0.929 . S
H1298 C1312 0.931 . S
H1299 C1314 0.930 . S
C1300 H1288 0.930 . S
C1300 C1301 1.399 . S
C1300 C1305 1.399 . S
C1301 C1300 1.399 . S
C1301 C1302 1.376 . S
C1302 H1289 0.930 . S
C1302 C1301 1.376 . S
C1302 C1303 1.388 . S
C1303 H1290 0.930 . S
C1303 C1302 1.388 . S
C1303 C1304 1.390 . S
C1304 C1303 1.390 . S
C1304 C1305 1.394 . S
C1304 C1310 1.465 . S
C1305 C1300 1.399 . S
C1305 C1304 1.394 . S
C1305 C1306 1.516 . S
C1306 C1305 1.516 . S
C1306 C1307 1.502 . S
C1306 C1308 1.561 . S
C1306 C1309 1.526 . S
C1307 H1291 0.959 . S
C1307 H1292 0.959 . S
C1307 H1293 0.961 . S
C1307 C1306 1.502 . S
C1308 H1294 0.960 . S
C1308 H1295 0.961 . S
C1308 H1296 0.959 . S
C1308 C1306 1.561 . S
C1309 C1306 1.526 . S
C1309 C1310 1.396 . S
C1309 C1314 1.390 . S
C1310 C1304 1.465 . S
C1310 C1309 1.396 . S
C1310 C1311 1.399 . S
C1311 H1297 0.929 . S
C1311 C1310 1.399 . S
C1311 C1312 1.385 . S
C1312 H1298 0.931 . S
C1312 C1311 1.385 . S
C1312 C1313 1.389 . S
C1313 C1312 1.389 . S
C1313 C1314 1.387 . S
C1314 H1299 0.930 . S
C1314 C1309 1.390 . S
C1314 C1313 1.387 . S
H1315 C1327 0.930 . S
H1316 C1329 0.930 . S
H1317 C1330 0.930 . S
H1318 C1334 0.959 . S
H1319 C1334 0.959 . S
H1320 C1334 0.961 . S
H1321 C1335 0.960 . S
H1322 C1335 0.961 . S
H1323 C1335 0.959 . S
H1324 C1338 0.929 . S
H1325 C1339 0.931 . S
H1326 C1341 0.930 . S
C1327 H1315 0.930 . S
C1327 C1328 1.399 . S
C1327 C1332 1.399 . S
C1328 C1327 1.399 . S
C1328 C1329 1.376 . S
C1329 H1316 0.930 . S
C1329 C1328 1.376 . S
C1329 C1330 1.388 . S
C1330 H1317 0.930 . S
C1330 C1329 1.388 . S
C1330 C1331 1.390 . S
C1331 C1330 1.390 . S
C1331 C1332 1.394 . S
C1331 C1337 1.465 . S
C1332 C1327 1.399 . S
C1332 C1331 1.394 . S
C1332 C1333 1.516 . S
C1333 C1332 1.516 . S
C1333 C1334 1.502 . S
C1333 C1335 1.561 . S
C1333 C1336 1.526 . S
C1334 H1318 0.959 . S
C1334 H1319 0.959 . S
C1334 H1320 0.961 . S
C1334 C1333 1.502 . S
C1335 H1321 0.960 . S
C1335 H1322 0.961 . S
C1335 H1323 0.959 . S
C1335 C1333 1.561 . S
C1336 C1333 1.526 . S
C1336 C1337 1.396 . S
C1336 C1341 1.390 . S
C1337 C1331 1.465 . S
C1337 C1336 1.396 . S
C1337 C1338 1.399 . S
C1338 H1324 0.929 . S
C1338 C1337 1.399 . S
C1338 C1339 1.385 . S
C1339 H1325 0.931 . S
C1339 C1338 1.385 . S
C1339 C1340 1.389 . S
C1340 C1339 1.389 . S
C1340 C1341 1.387 . S
C1341 H1326 0.930 . S
C1341 C1336 1.390 . S
C1341 C1340 1.387 . S
H1342 C1354 0.930 . S
H1343 C1356 0.930 . S
H1344 C1357 0.930 . S
H1345 C1361 0.959 . S
H1346 C1361 0.959 . S
H1347 C1361 0.961 . S
H1348 C1362 0.960 . S
H1349 C1362 0.961 . S
H1350 C1362 0.959 . S
H1351 C1365 0.929 . S
H1352 C1366 0.931 . S
H1353 C1368 0.930 . S
C1354 H1342 0.930 . S
C1354 C1355 1.399 . S
C1354 C1359 1.399 . S
C1355 C1354 1.399 . S
C1355 C1356 1.376 . S
C1356 H1343 0.930 . S
C1356 C1355 1.376 . S
C1356 C1357 1.388 . S
C1357 H1344 0.930 . S
C1357 C1356 1.388 . S
C1357 C1358 1.390 . S
C1358 C1357 1.390 . S
C1358 C1359 1.394 . S
C1358 C1364 1.465 1_565 S
C1359 C1354 1.399 . S
C1359 C1358 1.394 . S
C1359 C1360 1.538 . S
C1360 C1359 1.538 . S
C1360 C1361 1.483 1_565 S
C1360 C1362 1.588 . S
C1360 C1363 1.500 1_565 S
C1361 H1345 0.959 . S
C1361 H1346 0.959 . S
C1361 H1347 0.961 . S
C1361 C1360 1.483 1_545 S
C1362 H1348 0.960 . S
C1362 H1349 0.961 . S
C1362 H1350 0.959 . S
C1362 C1360 1.588 . S
C1363 C1360 1.500 1_545 S
C1363 C1364 1.396 . S
C1363 C1368 1.390 . S
C1364 C1358 1.465 1_545 S
C1364 C1363 1.396 . S
C1364 C1365 1.399 . S
C1365 H1351 0.929 . S
C1365 C1364 1.399 . S
C1365 C1366 1.385 . S
C1366 H1352 0.931 . S
C1366 C1365 1.385 . S
C1366 C1367 1.389 . S
C1367 C1366 1.389 . S
C1367 C1368 1.387 . S
C1368 H1353 0.930 . S
C1368 C1363 1.390 . S
C1368 C1367 1.387 . S
H1369 C1381 0.930 1_556 S
H1370 C1383 0.930 . S
H1371 C1384 0.930 . S
H1372 C1388 0.959 . S
H1373 C1388 0.959 . S
H1374 C1388 0.961 . S
H1375 C1389 0.960 . S
H1376 C1389 0.961 . S
H1377 C1389 0.959 . S
H1378 C1392 0.929 . S
H1379 C1393 0.931 . S
H1380 C1395 0.930 . S
C1381 H1369 0.930 1_554 S
C1381 C1382 1.399 . S
C1381 C1386 1.399 . S
C1382 C1381 1.399 . S
C1382 C1383 1.376 . S
C1383 H1370 0.930 . S
C1383 C1382 1.376 . S
C1383 C1384 1.388 . S
C1384 H1371 0.930 . S
C1384 C1383 1.388 . S
C1384 C1385 1.390 . S
C1385 C1384 1.390 . S
C1385 C1386 1.394 . S
C1385 C1391 1.465 . S
C1386 C1381 1.399 . S
C1386 C1385 1.394 . S
C1386 C1387 1.516 . S
C1387 C1386 1.516 . S
C1387 C1388 1.502 1_554 S
C1387 C1389 1.561 . S
C1387 C1390 1.526 . S
C1388 H1372 0.959 . S
C1388 H1373 0.959 . S
C1388 H1374 0.961 . S
C1388 C1387 1.502 1_556 S
C1389 H1375 0.960 . S
C1389 H1376 0.961 . S
C1389 H1377 0.959 . S
C1389 C1387 1.561 . S
C1390 C1387 1.526 . S
C1390 C1391 1.396 . S
C1390 C1395 1.390 . S
C1391 C1385 1.465 . S
C1391 C1390 1.396 . S
C1391 C1392 1.399 . S
C1392 H1378 0.929 . S
C1392 C1391 1.399 . S
C1392 C1393 1.385 . S
C1393 H1379 0.931 . S
C1393 C1392 1.385 . S
C1393 C1394 1.389 . S
C1394 C1393 1.389 . S
C1394 C1395 1.387 . S
C1395 H1380 0.930 . S
C1395 C1390 1.390 . S
C1395 C1394 1.387 . S
H1396 C1408 0.930 . S
H1397 C1410 0.930 . S
H1398 C1411 0.930 . S
H1399 C1415 0.959 . S
H1400 C1415 0.959 . S
H1401 C1415 0.961 . S
H1402 C1416 0.960 . S
H1403 C1416 0.961 . S
H1404 C1416 0.959 . S
H1405 C1419 0.929 . S
H1406 C1420 0.931 . S
H1407 C1422 0.930 . S
C1408 H1396 0.930 . S
C1408 C1409 1.399 . S
C1408 C1413 1.399 . S
C1409 C1408 1.399 . S
C1409 C1410 1.376 . S
C1410 H1397 0.930 . S
C1410 C1409 1.376 . S
C1410 C1411 1.388 . S
C1411 H1398 0.930 . S
C1411 C1410 1.388 . S
C1411 C1412 1.390 . S
C1412 C1411 1.390 . S
C1412 C1413 1.394 . S
C1412 C1418 1.465 . S
C1413 C1408 1.399 . S
C1413 C1412 1.394 . S
C1413 C1414 1.516 . S
C1414 C1413 1.516 . S
C1414 C1415 1.502 . S
C1414 C1416 1.561 . S
C1414 C1417 1.526 . S
C1415 H1399 0.959 . S
C1415 H1400 0.959 . S
C1415 H1401 0.961 . S
C1415 C1414 1.502 . S
C1416 H1402 0.960 . S
C1416 H1403 0.961 . S
C1416 H1404 0.959 . S
C1416 C1414 1.561 . S
C1417 C1414 1.526 . S
C1417 C1418 1.396 . S
C1417 C1422 1.390 . S
C1418 C1412 1.465 . S
C1418 C1417 1.396 . S
C1418 C1419 1.399 . S
C1419 H1405 0.929 . S
C1419 C1418 1.399 . S
C1419 C1420 1.385 . S
C1420 H1406 0.931 . S
C1420 C1419 1.385 . S
C1420 C1421 1.389 . S
C1421 C1420 1.389 . S
C1421 C1422 1.387 . S
C1422 H1407 0.930 . S
C1422 C1417 1.390 . S
C1422 C1421 1.387 . S
H1423 C1435 0.930 . S
H1424 C1437 0.930 . S
H1425 C1438 0.930 . S
H1426 C1442 0.959 . S
H1427 C1442 0.959 . S
H1428 C1442 0.961 . S
H1429 C1443 0.960 . S
H1430 C1443 0.961 . S
H1431 C1443 0.959 . S
H1432 C1446 0.929 . S
H1433 C1447 0.931 . S
H1434 C1449 0.930 . S
C1435 H1423 0.930 . S
C1435 C1436 1.399 . S
C1435 C1440 1.399 . S
C1436 C1435 1.399 . S
C1436 C1437 1.376 . S
C1437 H1424 0.930 . S
C1437 C1436 1.376 . S
C1437 C1438 1.388 . S
C1438 H1425 0.930 . S
C1438 C1437 1.388 . S
C1438 C1439 1.390 . S
C1439 C1438 1.390 . S
C1439 C1440 1.394 . S
C1439 C1445 1.465 . S
C1440 C1435 1.399 . S
C1440 C1439 1.394 . S
C1440 C1441 1.516 . S
C1441 C1440 1.516 . S
C1441 C1442 1.502 . S
C1441 C1443 1.561 . S
C1441 C1444 1.526 . S
C1442 H1426 0.959 . S
C1442 H1427 0.959 . S
C1442 H1428 0.961 . S
C1442 C1441 1.502 . S
C1443 H1429 0.960 . S
C1443 H1430 0.961 . S
C1443 H1431 0.959 . S
C1443 C1441 1.561 . S
C1444 C1441 1.526 . S
C1444 C1445 1.396 . S
C1444 C1449 1.390 . S
C1445 C1439 1.465 . S
C1445 C1444 1.396 . S
C1445 C1446 1.399 . S
C1446 H1432 0.929 . S
C1446 C1445 1.399 . S
C1446 C1447 1.385 . S
C1447 H1433 0.931 . S
C1447 C1446 1.385 . S
C1447 C1448 1.389 . S
C1448 C1447 1.389 . S
C1448 C1449 1.387 . S
C1449 H1434 0.930 . S
C1449 C1444 1.390 . S
C1449 C1448 1.387 . S
H1450 C1462 0.930 . S
H1451 C1464 0.930 . S
H1452 C1465 0.930 . S
H1453 C1469 0.959 . S
H1454 C1469 0.959 . S
H1455 C1469 0.961 . S
H1456 C1470 0.960 . S
H1457 C1470 0.961 . S
H1458 C1470 0.959 . S
H1459 C1473 0.929 . S
H1460 C1474 0.931 . S
H1461 C1476 0.930 . S
C1462 H1450 0.930 . S
C1462 C1463 1.399 . S
C1462 C1467 1.399 . S
C1463 C1462 1.399 . S
C1463 C1464 1.376 . S
C1464 H1451 0.930 . S
C1464 C1463 1.376 . S
C1464 C1465 1.388 . S
C1465 H1452 0.930 . S
C1465 C1464 1.388 . S
C1465 C1466 1.390 . S
C1466 C1465 1.390 . S
C1466 C1467 1.394 . S
C1466 C1472 1.465 . S
C1467 C1462 1.399 . S
C1467 C1466 1.394 . S
C1467 C1468 1.516 . S
C1468 C1467 1.516 . S
C1468 C1469 1.502 . S
C1468 C1470 1.561 . S
C1468 C1471 1.526 . S
C1469 H1453 0.959 . S
C1469 H1454 0.959 . S
C1469 H1455 0.961 . S
C1469 C1468 1.502 . S
C1470 H1456 0.960 . S
C1470 H1457 0.961 . S
C1470 H1458 0.959 . S
C1470 C1468 1.561 . S
C1471 C1468 1.526 . S
C1471 C1472 1.396 . S
C1471 C1476 1.390 . S
C1472 C1466 1.465 . S
C1472 C1471 1.396 . S
C1472 C1473 1.399 . S
C1473 H1459 0.929 . S
C1473 C1472 1.399 . S
C1473 C1474 1.385 . S
C1474 H1460 0.931 . S
C1474 C1473 1.385 . S
C1474 C1475 1.389 . S
C1475 C1474 1.389 . S
C1475 C1476 1.387 . S
C1476 H1461 0.930 . S
C1476 C1471 1.390 . S
C1476 C1475 1.387 . S
H1477 C1489 0.930 . S
H1478 C1491 0.930 . S
H1479 C1492 0.930 . S
H1480 C1496 0.959 . S
H1481 C1496 0.959 . S
H1482 C1496 0.961 . S
H1483 C1497 0.960 . S
H1484 C1497 0.961 . S
H1485 C1497 0.959 . S
H1486 C1500 0.929 . S
H1487 C1501 0.931 . S
H1488 C1503 0.930 . S
C1489 H1477 0.930 . S
C1489 C1490 1.399 . S
C1489 C1494 1.399 . S
C1490 C1489 1.399 . S
C1490 C1491 1.376 . S
C1491 H1478 0.930 . S
C1491 C1490 1.376 . S
C1491 C1492 1.388 . S
C1492 H1479 0.930 . S
C1492 C1491 1.388 . S
C1492 C1493 1.390 . S
C1493 C1492 1.390 . S
C1493 C1494 1.394 . S
C1493 C1499 1.465 . S
C1494 C1489 1.399 . S
C1494 C1493 1.394 . S
C1494 C1495 1.516 . S
C1495 C1494 1.516 . S
C1495 C1496 1.502 . S
C1495 C1497 1.561 . S
C1495 C1498 1.526 . S
C1496 H1480 0.959 . S
C1496 H1481 0.959 . S
C1496 H1482 0.961 . S
C1496 C1495 1.502 . S
C1497 H1483 0.960 . S
C1497 H1484 0.961 . S
C1497 H1485 0.959 . S
C1497 C1495 1.561 . S
C1498 C1495 1.526 . S
C1498 C1499 1.396 . S
C1498 C1503 1.390 . S
C1499 C1493 1.465 . S
C1499 C1498 1.396 . S
C1499 C1500 1.399 . S
C1500 H1486 0.929 . S
C1500 C1499 1.399 . S
C1500 C1501 1.385 . S
C1501 H1487 0.931 . S
C1501 C1500 1.385 . S
C1501 C1502 1.389 . S
C1502 C1501 1.389 . S
C1502 C1503 1.387 . S
C1503 H1488 0.930 . S
C1503 C1498 1.390 . S
C1503 C1502 1.387 . S
H1504 C1516 0.930 . S
H1505 C1518 0.930 . S
H1506 C1519 0.930 . S
H1507 C1523 0.959 . S
H1508 C1523 0.959 . S
H1509 C1523 0.961 . S
H1510 C1524 0.960 . S
H1511 C1524 0.961 . S
H1512 C1524 0.959 . S
H1513 C1527 0.929 . S
H1514 C1528 0.931 . S
H1515 C1530 0.930 . S
C1516 H1504 0.930 . S
C1516 C1517 1.399 . S
C1516 C1521 1.399 . S
C1517 C1516 1.399 . S
C1517 C1518 1.376 . S
C1518 H1505 0.930 . S
C1518 C1517 1.376 . S
C1518 C1519 1.388 . S
C1519 H1506 0.930 . S
C1519 C1518 1.388 . S
C1519 C1520 1.390 . S
C1520 C1519 1.390 . S
C1520 C1521 1.394 . S
C1520 C1526 1.465 . S
C1521 C1516 1.399 . S
C1521 C1520 1.394 . S
C1521 C1522 1.516 . S
C1522 C1521 1.516 . S
C1522 C1523 1.502 . S
C1522 C1524 1.561 . S
C1522 C1525 1.526 . S
C1523 H1507 0.959 . S
C1523 H1508 0.959 . S
C1523 H1509 0.961 . S
C1523 C1522 1.502 . S
C1524 H1510 0.960 . S
C1524 H1511 0.961 . S
C1524 H1512 0.959 . S
C1524 C1522 1.561 . S
C1525 C1522 1.526 . S
C1525 C1526 1.396 . S
C1525 C1530 1.390 . S
C1526 C1520 1.465 . S
C1526 C1525 1.396 . S
C1526 C1527 1.399 . S
C1527 H1513 0.929 . S
C1527 C1526 1.399 . S
C1527 C1528 1.385 . S
C1528 H1514 0.931 . S
C1528 C1527 1.385 . S
C1528 C1529 1.389 . S
C1529 C1528 1.389 . S
C1529 C1530 1.387 . S
C1530 H1515 0.930 . S
C1530 C1525 1.390 . S
C1530 C1529 1.387 . S
H1531 C1543 0.930 . S
H1532 C1545 0.930 . S
H1533 C1546 0.930 . S
H1534 C1550 0.959 . S
H1535 C1550 0.959 . S
H1536 C1550 0.961 . S
H1537 C1551 0.960 . S
H1538 C1551 0.961 . S
H1539 C1551 0.959 . S
H1540 C1554 0.929 . S
H1541 C1555 0.931 . S
H1542 C1557 0.930 . S
C1543 H1531 0.930 . S
C1543 C1544 1.399 . S
C1543 C1548 1.399 . S
C1544 C1543 1.399 . S
C1544 C1545 1.376 . S
C1545 H1532 0.930 . S
C1545 C1544 1.376 . S
C1545 C1546 1.388 . S
C1546 H1533 0.930 . S
C1546 C1545 1.388 . S
C1546 C1547 1.390 . S
C1547 C1546 1.390 . S
C1547 C1548 1.394 . S
C1547 C1553 1.465 . S
C1548 C1543 1.399 . S
C1548 C1547 1.394 . S
C1548 C1549 1.516 . S
C1549 C1548 1.516 . S
C1549 C1550 1.502 . S
C1549 C1551 1.561 . S
C1549 C1552 1.526 . S
C1550 H1534 0.959 . S
C1550 H1535 0.959 . S
C1550 H1536 0.961 . S
C1550 C1549 1.502 . S
C1551 H1537 0.960 . S
C1551 H1538 0.961 . S
C1551 H1539 0.959 . S
C1551 C1549 1.561 . S
C1552 C1549 1.526 . S
C1552 C1553 1.396 . S
C1552 C1557 1.390 . S
C1553 C1547 1.465 . S
C1553 C1552 1.396 . S
C1553 C1554 1.399 . S
C1554 H1540 0.929 . S
C1554 C1553 1.399 . S
C1554 C1555 1.385 . S
C1555 H1541 0.931 . S
C1555 C1554 1.385 . S
C1555 C1556 1.389 . S
C1556 C1555 1.389 . S
C1556 C1557 1.387 . S
C1557 H1542 0.930 . S
C1557 C1552 1.390 . S
C1557 C1556 1.387 . S
H1558 C1570 0.930 . S
H1559 C1572 0.930 . S
H1560 C1573 0.930 . S
H1561 C1577 0.959 . S
H1562 C1577 0.959 . S
H1563 C1577 0.961 . S
H1564 C1578 0.960 . S
H1565 C1578 0.961 . S
H1566 C1578 0.959 . S
H1567 C1581 0.929 . S
H1568 C1582 0.931 . S
H1569 C1584 0.930 . S
C1570 H1558 0.930 . S
C1570 C1571 1.399 . S
C1570 C1575 1.399 . S
C1571 C1570 1.399 . S
C1571 C1572 1.376 . S
C1572 H1559 0.930 . S
C1572 C1571 1.376 . S
C1572 C1573 1.388 . S
C1573 H1560 0.930 . S
C1573 C1572 1.388 . S
C1573 C1574 1.390 . S
C1574 C1573 1.390 . S
C1574 C1575 1.394 . S
C1574 C1580 1.465 . S
C1575 C1570 1.399 . S
C1575 C1574 1.394 . S
C1575 C1576 1.516 . S
C1576 C1575 1.516 . S
C1576 C1577 1.502 . S
C1576 C1578 1.561 . S
C1576 C1579 1.526 . S
C1577 H1561 0.959 . S
C1577 H1562 0.959 . S
C1577 H1563 0.961 . S
C1577 C1576 1.502 . S
C1578 H1564 0.960 . S
C1578 H1565 0.961 . S
C1578 H1566 0.959 . S
C1578 C1576 1.561 . S
C1579 C1576 1.526 . S
C1579 C1580 1.396 . S
C1579 C1584 1.390 . S
C1580 C1574 1.465 . S
C1580 C1579 1.396 . S
C1580 C1581 1.399 . S
C1581 H1567 0.929 . S
C1581 C1580 1.399 . S
C1581 C1582 1.385 . S
C1582 H1568 0.931 . S
C1582 C1581 1.385 . S
C1582 C1583 1.389 . S
C1583 C1582 1.389 . S
C1583 C1584 1.387 . S
C1584 H1569 0.930 . S
C1584 C1579 1.390 . S
C1584 C1583 1.387 . S
H1585 C1597 0.930 . S
H1586 C1599 0.930 . S
H1587 C1600 0.930 . S
H1588 C1604 0.959 . S
H1589 C1604 0.959 . S
H1590 C1604 0.961 . S
H1591 C1605 0.960 . S
H1592 C1605 0.961 . S
H1593 C1605 0.959 . S
H1594 C1608 0.929 . S
H1595 C1609 0.931 . S
H1596 C1611 0.930 . S
C1597 H1585 0.930 . S
C1597 C1598 1.399 . S
C1597 C1602 1.399 . S
C1598 C1597 1.399 . S
C1598 C1599 1.376 . S
C1599 H1586 0.930 . S
C1599 C1598 1.376 . S
C1599 C1600 1.388 . S
C1600 H1587 0.930 . S
C1600 C1599 1.388 . S
C1600 C1601 1.390 . S
C1601 C1600 1.390 . S
C1601 C1602 1.394 . S
C1601 C1607 1.465 . S
C1602 C1597 1.399 . S
C1602 C1601 1.394 . S
C1602 C1603 1.516 . S
C1603 C1602 1.516 . S
C1603 C1604 1.502 . S
C1603 C1605 1.561 . S
C1603 C1606 1.526 . S
C1604 H1588 0.959 . S
C1604 H1589 0.959 . S
C1604 H1590 0.961 . S
C1604 C1603 1.502 . S
C1605 H1591 0.960 . S
C1605 H1592 0.961 . S
C1605 H1593 0.959 . S
C1605 C1603 1.561 . S
C1606 C1603 1.526 . S
C1606 C1607 1.396 . S
C1606 C1611 1.390 . S
C1607 C1601 1.465 . S
C1607 C1606 1.396 . S
C1607 C1608 1.399 . S
C1608 H1594 0.929 . S
C1608 C1607 1.399 . S
C1608 C1609 1.385 . S
C1609 H1595 0.931 . S
C1609 C1608 1.385 . S
C1609 C1610 1.389 . S
C1610 C1609 1.389 . S
C1610 C1611 1.387 . S
C1611 H1596 0.930 . S
C1611 C1606 1.390 . S
C1611 C1610 1.387 . S
H1612 C1624 0.930 . S
H1613 C1626 0.930 . S
H1614 C1627 0.930 . S
H1615 C1631 0.959 . S
H1616 C1631 0.959 . S
H1617 C1631 0.961 . S
H1618 C1632 0.960 . S
H1619 C1632 0.961 1_556 S
H1620 C1632 0.959 . S
H1621 C1635 0.929 . S
H1622 C1636 0.931 . S
H1623 C1638 0.930 . S
C1624 H1612 0.930 . S
C1624 C1625 1.399 . S
C1624 C1629 1.399 . S
C1625 C1624 1.399 . S
C1625 C1626 1.376 . S
C1626 H1613 0.930 . S
C1626 C1625 1.376 . S
C1626 C1627 1.388 . S
C1627 H1614 0.930 . S
C1627 C1626 1.388 . S
C1627 C1628 1.390 . S
C1628 C1627 1.390 . S
C1628 C1629 1.394 . S
C1628 C1634 1.465 . S
C1629 C1624 1.399 . S
C1629 C1628 1.394 . S
C1629 C1630 1.516 . S
C1630 C1629 1.516 . S
C1630 C1631 1.502 . S
C1630 C1632 1.561 . S
C1630 C1633 1.526 . S
C1631 H1615 0.959 . S
C1631 H1616 0.959 . S
C1631 H1617 0.961 . S
C1631 C1630 1.502 . S
C1632 H1618 0.960 . S
C1632 H1619 0.961 1_554 S
C1632 H1620 0.959 . S
C1632 C1630 1.561 . S
C1633 C1630 1.526 . S
C1633 C1634 1.396 . S
C1633 C1638 1.390 . S
C1634 C1628 1.465 . S
C1634 C1633 1.396 . S
C1634 C1635 1.399 . S
C1635 H1621 0.929 . S
C1635 C1634 1.399 . S
C1635 C1636 1.385 . S
C1636 H1622 0.931 . S
C1636 C1635 1.385 . S
C1636 C1637 1.389 . S
C1637 C1636 1.389 . S
C1637 C1638 1.387 . S
C1638 H1623 0.930 . S
C1638 C1633 1.390 . S
C1638 C1637 1.387 . S
H1639 C1651 0.930 . S
H1640 C1653 0.930 . S
H1641 C1654 0.930 . S
H1642 C1658 0.959 . S
H1643 C1658 0.959 . S
H1644 C1658 0.961 . S
H1645 C1659 0.960 . S
H1646 C1659 0.961 1_556 S
H1647 C1659 0.959 . S
H1648 C1662 0.929 . S
H1649 C1663 0.931 . S
H1650 C1665 0.930 1_556 S
C1651 H1639 0.930 . S
C1651 C1652 1.399 . S
C1651 C1656 1.399 . S
C1652 C1651 1.399 . S
C1652 C1653 1.376 . S
C1653 H1640 0.930 . S
C1653 C1652 1.376 . S
C1653 C1654 1.388 . S
C1654 H1641 0.930 . S
C1654 C1653 1.388 . S
C1654 C1655 1.390 . S
C1655 C1654 1.390 . S
C1655 C1656 1.394 . S
C1655 C1661 1.465 . S
C1656 C1651 1.399 . S
C1656 C1655 1.394 . S
C1656 C1657 1.516 . S
C1657 C1656 1.516 . S
C1657 C1658 1.502 1_554 S
C1657 C1659 1.561 . S
C1657 C1660 1.526 . S
C1658 H1642 0.959 . S
C1658 H1643 0.959 . S
C1658 H1644 0.961 . S
C1658 C1657 1.502 1_556 S
C1659 H1645 0.960 . S
C1659 H1646 0.961 1_554 S
C1659 H1647 0.959 . S
C1659 C1657 1.561 . S
C1660 C1657 1.526 . S
C1660 C1661 1.396 . S
C1660 C1665 1.390 . S
C1661 C1655 1.465 . S
C1661 C1660 1.396 . S
C1661 C1662 1.399 . S
C1662 H1648 0.929 . S
C1662 C1661 1.399 . S
C1662 C1663 1.385 . S
C1663 H1649 0.931 . S
C1663 C1662 1.385 . S
C1663 C1664 1.389 . S
C1664 C1663 1.389 . S
C1664 C1665 1.387 . S
C1665 H1650 0.930 1_554 S
C1665 C1660 1.390 . S
C1665 C1664 1.387 . S
H1666 C1678 0.930 . S
H1667 C1680 0.930 . S
H1668 C1681 0.930 . S
H1669 C1685 0.959 . S
H1670 C1685 0.959 . S
H1671 C1685 0.961 . S
H1672 C1686 0.960 . S
H1673 C1686 0.961 . S
H1674 C1686 0.959 . S
H1675 C1689 0.929 . S
H1676 C1690 0.931 . S
H1677 C1692 0.930 . S
C1678 H1666 0.930 . S
C1678 C1679 1.399 . S
C1678 C1683 1.399 . S
C1679 C1678 1.399 . S
C1679 C1680 1.376 . S
C1680 H1667 0.930 . S
C1680 C1679 1.376 . S
C1680 C1681 1.388 . S
C1681 H1668 0.930 . S
C1681 C1680 1.388 . S
C1681 C1682 1.390 . S
C1682 C1681 1.390 . S
C1682 C1683 1.394 . S
C1682 C1688 1.465 . S
C1683 C1678 1.399 . S
C1683 C1682 1.394 . S
C1683 C1684 1.516 . S
C1684 C1683 1.516 . S
C1684 C1685 1.502 . S
C1684 C1686 1.561 . S
C1684 C1687 1.526 . S
C1685 H1669 0.959 . S
C1685 H1670 0.959 . S
C1685 H1671 0.961 . S
C1685 C1684 1.502 . S
C1686 H1672 0.960 . S
C1686 H1673 0.961 . S
C1686 H1674 0.959 . S
C1686 C1684 1.561 . S
C1687 C1684 1.526 . S
C1687 C1688 1.396 . S
C1687 C1692 1.390 . S
C1688 C1682 1.465 . S
C1688 C1687 1.396 . S
C1688 C1689 1.399 . S
C1689 H1675 0.929 . S
C1689 C1688 1.399 . S
C1689 C1690 1.385 . S
C1690 H1676 0.931 . S
C1690 C1689 1.385 . S
C1690 C1691 1.389 . S
C1691 C1690 1.389 . S
C1691 C1692 1.387 . S
C1692 H1677 0.930 . S
C1692 C1687 1.390 . S
C1692 C1691 1.387 . S
H1693 C1705 0.930 . S
H1694 C1707 0.930 . S
H1695 C1708 0.930 . S
H1696 C1712 0.959 . S
H1697 C1712 0.959 . S
H1698 C1712 0.961 . S
H1699 C1713 0.960 . S
H1700 C1713 0.961 . S
H1701 C1713 0.959 . S
H1702 C1716 0.929 . S
H1703 C1717 0.931 . S
H1704 C1719 0.930 . S
C1705 H1693 0.930 . S
C1705 C1706 1.399 . S
C1705 C1710 1.399 . S
C1706 C1705 1.399 . S
C1706 C1707 1.376 . S
C1707 H1694 0.930 . S
C1707 C1706 1.376 . S
C1707 C1708 1.388 . S
C1708 H1695 0.930 . S
C1708 C1707 1.388 . S
C1708 C1709 1.390 . S
C1709 C1708 1.390 . S
C1709 C1710 1.394 . S
C1709 C1715 1.465 . S
C1710 C1705 1.399 . S
C1710 C1709 1.394 . S
C1710 C1711 1.516 . S
C1711 C1710 1.516 . S
C1711 C1712 1.502 . S
C1711 C1713 1.561 . S
C1711 C1714 1.526 . S
C1712 H1696 0.959 . S
C1712 H1697 0.959 . S
C1712 H1698 0.961 . S
C1712 C1711 1.502 . S
C1713 H1699 0.960 . S
C1713 H1700 0.961 . S
C1713 H1701 0.959 . S
C1713 C1711 1.561 . S
C1714 C1711 1.526 . S
C1714 C1715 1.396 . S
C1714 C1719 1.390 . S
C1715 C1709 1.465 . S
C1715 C1714 1.396 . S
C1715 C1716 1.399 . S
C1716 H1702 0.929 . S
C1716 C1715 1.399 . S
C1716 C1717 1.385 . S
C1717 H1703 0.931 . S
C1717 C1716 1.385 . S
C1717 C1718 1.389 . S
C1718 C1717 1.389 . S
C1718 C1719 1.387 . S
C1719 H1704 0.930 . S
C1719 C1714 1.390 . S
C1719 C1718 1.387 . S
H1720 C1732 0.930 . S
H1721 C1734 0.930 . S
H1722 C1735 0.930 . S
H1723 C1739 0.959 . S
H1724 C1739 0.959 . S
H1725 C1739 0.961 . S
H1726 C1740 0.960 . S
H1727 C1740 0.961 . S
H1728 C1740 0.959 . S
H1729 C1743 0.929 . S
H1730 C1744 0.931 . S
H1731 C1746 0.930 . S
C1732 H1720 0.930 . S
C1732 C1733 1.399 . S
C1732 C1737 1.399 . S
C1733 C1732 1.399 . S
C1733 C1734 1.376 . S
C1734 H1721 0.930 . S
C1734 C1733 1.376 . S
C1734 C1735 1.388 . S
C1735 H1722 0.930 . S
C1735 C1734 1.388 . S
C1735 C1736 1.390 . S
C1736 C1735 1.390 . S
C1736 C1737 1.394 . S
C1736 C1742 1.465 . S
C1737 C1732 1.399 . S
C1737 C1736 1.394 . S
C1737 C1738 1.516 . S
C1738 C1737 1.516 . S
C1738 C1739 1.502 . S
C1738 C1740 1.561 . S
C1738 C1741 1.526 . S
C1739 H1723 0.959 . S
C1739 H1724 0.959 . S
C1739 H1725 0.961 . S
C1739 C1738 1.502 . S
C1740 H1726 0.960 . S
C1740 H1727 0.961 . S
C1740 H1728 0.959 . S
C1740 C1738 1.561 . S
C1741 C1738 1.526 . S
C1741 C1742 1.396 . S
C1741 C1746 1.390 . S
C1742 C1736 1.465 . S
C1742 C1741 1.396 . S
C1742 C1743 1.399 . S
C1743 H1729 0.929 . S
C1743 C1742 1.399 . S
C1743 C1744 1.385 . S
C1744 H1730 0.931 . S
C1744 C1743 1.385 . S
C1744 C1745 1.389 . S
C1745 C1744 1.389 . S
C1745 C1746 1.387 . S
C1746 H1731 0.930 . S
C1746 C1741 1.390 . S
C1746 C1745 1.387 . S
H1747 C1759 0.930 . S
H1748 C1761 0.930 . S
H1749 C1762 0.930 . S
H1750 C1766 0.959 . S
H1751 C1766 0.959 . S
H1752 C1766 0.961 . S
H1753 C1767 0.960 . S
H1754 C1767 0.961 . S
H1755 C1767 0.959 . S
H1756 C1770 0.929 . S
H1757 C1771 0.931 . S
H1758 C1773 0.930 . S
C1759 H1747 0.930 . S
C1759 C1760 1.399 . S
C1759 C1764 1.399 . S
C1760 C1759 1.399 . S
C1760 C1761 1.376 . S
C1761 H1748 0.930 . S
C1761 C1760 1.376 . S
C1761 C1762 1.388 . S
C1762 H1749 0.930 . S
C1762 C1761 1.388 . S
C1762 C1763 1.390 . S
C1763 C1762 1.390 . S
C1763 C1764 1.394 . S
C1763 C1769 1.465 . S
C1764 C1759 1.399 . S
C1764 C1763 1.394 . S
C1764 C1765 1.516 . S
C1765 C1764 1.516 . S
C1765 C1766 1.502 . S
C1765 C1767 1.561 . S
C1765 C1768 1.526 . S
C1766 H1750 0.959 . S
C1766 H1751 0.959 . S
C1766 H1752 0.961 . S
C1766 C1765 1.502 . S
C1767 H1753 0.960 . S
C1767 H1754 0.961 . S
C1767 H1755 0.959 . S
C1767 C1765 1.561 . S
C1768 C1765 1.526 . S
C1768 C1769 1.396 . S
C1768 C1773 1.390 . S
C1769 C1763 1.465 . S
C1769 C1768 1.396 . S
C1769 C1770 1.399 . S
C1770 H1756 0.929 . S
C1770 C1769 1.399 . S
C1770 C1771 1.385 . S
C1771 H1757 0.931 . S
C1771 C1770 1.385 . S
C1771 C1772 1.389 . S
C1772 C1771 1.389 . S
C1772 C1773 1.387 . S
C1773 H1758 0.930 . S
C1773 C1768 1.390 . S
C1773 C1772 1.387 . S
H1774 C1786 0.930 . S
H1775 C1788 0.930 . S
H1776 C1789 0.930 . S
H1777 C1793 0.959 . S
H1778 C1793 0.959 . S
H1779 C1793 0.961 . S
H1780 C1794 0.960 . S
H1781 C1794 0.961 . S
H1782 C1794 0.959 . S
H1783 C1797 0.929 . S
H1784 C1798 0.931 . S
H1785 C1800 0.930 . S
C1786 H1774 0.930 . S
C1786 C1787 1.399 . S
C1786 C1791 1.399 . S
C1787 C1786 1.399 . S
C1787 C1788 1.376 . S
C1788 H1775 0.930 . S
C1788 C1787 1.376 . S
C1788 C1789 1.388 . S
C1789 H1776 0.930 . S
C1789 C1788 1.388 . S
C1789 C1790 1.390 . S
C1790 C1789 1.390 . S
C1790 C1791 1.394 . S
C1790 C1796 1.465 . S
C1791 C1786 1.399 . S
C1791 C1790 1.394 . S
C1791 C1792 1.516 . S
C1792 C1791 1.516 . S
C1792 C1793 1.502 . S
C1792 C1794 1.561 . S
C1792 C1795 1.526 . S
C1793 H1777 0.959 . S
C1793 H1778 0.959 . S
C1793 H1779 0.961 . S
C1793 C1792 1.502 . S
C1794 H1780 0.960 . S
C1794 H1781 0.961 . S
C1794 H1782 0.959 . S
C1794 C1792 1.561 . S
C1795 C1792 1.526 . S
C1795 C1796 1.396 . S
C1795 C1800 1.390 . S
C1796 C1790 1.465 . S
C1796 C1795 1.396 . S
C1796 C1797 1.399 . S
C1797 H1783 0.929 . S
C1797 C1796 1.399 . S
C1797 C1798 1.385 . S
C1798 H1784 0.931 . S
C1798 C1797 1.385 . S
C1798 C1799 1.389 . S
C1799 C1798 1.389 . S
C1799 C1800 1.387 . S
C1800 H1785 0.930 . S
C1800 C1795 1.390 . S
C1800 C1799 1.387 . S
H1801 C1813 0.930 . S
H1802 C1815 0.930 . S
H1803 C1816 0.930 . S
H1804 C1820 0.959 . S
H1805 C1820 0.959 . S
H1806 C1820 0.961 . S
H1807 C1821 0.960 . S
H1808 C1821 0.961 . S
H1809 C1821 0.959 . S
H1810 C1824 0.929 . S
H1811 C1825 0.931 . S
H1812 C1827 0.930 . S
C1813 H1801 0.930 . S
C1813 C1814 1.399 . S
C1813 C1818 1.399 . S
C1814 C1813 1.399 . S
C1814 C1815 1.376 . S
C1815 H1802 0.930 . S
C1815 C1814 1.376 . S
C1815 C1816 1.388 . S
C1816 H1803 0.930 . S
C1816 C1815 1.388 . S
C1816 C1817 1.390 . S
C1817 C1816 1.390 . S
C1817 C1818 1.394 . S
C1817 C1823 1.465 . S
C1818 C1813 1.399 . S
C1818 C1817 1.394 . S
C1818 C1819 1.516 . S
C1819 C1818 1.516 . S
C1819 C1820 1.502 . S
C1819 C1821 1.561 . S
C1819 C1822 1.526 . S
C1820 H1804 0.959 . S
C1820 H1805 0.959 . S
C1820 H1806 0.961 . S
C1820 C1819 1.502 . S
C1821 H1807 0.960 . S
C1821 H1808 0.961 . S
C1821 H1809 0.959 . S
C1821 C1819 1.561 . S
C1822 C1819 1.526 . S
C1822 C1823 1.396 . S
C1822 C1827 1.390 . S
C1823 C1817 1.465 . S
C1823 C1822 1.396 . S
C1823 C1824 1.399 . S
C1824 H1810 0.929 . S
C1824 C1823 1.399 . S
C1824 C1825 1.385 . S
C1825 H1811 0.931 . S
C1825 C1824 1.385 . S
C1825 C1826 1.389 . S
C1826 C1825 1.389 . S
C1826 C1827 1.387 . S
C1827 H1812 0.930 . S
C1827 C1822 1.390 . S
C1827 C1826 1.387 . S
H1828 C1840 0.930 . S
H1829 C1842 0.930 . S
H1830 C1843 0.930 . S
H1831 C1847 0.959 . S
H1832 C1847 0.959 . S
H1833 C1847 0.961 . S
H1834 C1848 0.960 . S
H1835 C1848 0.961 . S
H1836 C1848 0.959 . S
H1837 C1851 0.929 . S
H1838 C1852 0.931 . S
H1839 C1854 0.930 . S
C1840 H1828 0.930 . S
C1840 C1841 1.399 . S
C1840 C1845 1.399 . S
C1841 C1840 1.399 . S
C1841 C1842 1.376 . S
C1842 H1829 0.930 . S
C1842 C1841 1.376 . S
C1842 C1843 1.388 . S
C1843 H1830 0.930 . S
C1843 C1842 1.388 . S
C1843 C1844 1.390 . S
C1844 C1843 1.390 . S
C1844 C1845 1.394 . S
C1844 C1850 1.465 . S
C1845 C1840 1.399 . S
C1845 C1844 1.394 . S
C1845 C1846 1.516 . S
C1846 C1845 1.516 . S
C1846 C1847 1.502 . S
C1846 C1848 1.561 . S
C1846 C1849 1.526 . S
C1847 H1831 0.959 . S
C1847 H1832 0.959 . S
C1847 H1833 0.961 . S
C1847 C1846 1.502 . S
C1848 H1834 0.960 . S
C1848 H1835 0.961 . S
C1848 H1836 0.959 . S
C1848 C1846 1.561 . S
C1849 C1846 1.526 . S
C1849 C1850 1.396 . S
C1849 C1854 1.390 . S
C1850 C1844 1.465 . S
C1850 C1849 1.396 . S
C1850 C1851 1.399 . S
C1851 H1837 0.929 . S
C1851 C1850 1.399 . S
C1851 C1852 1.385 . S
C1852 H1838 0.931 . S
C1852 C1851 1.385 . S
C1852 C1853 1.389 . S
C1853 C1852 1.389 . S
C1853 C1854 1.387 . S
C1854 H1839 0.930 . S
C1854 C1849 1.390 . S
C1854 C1853 1.387 . S
H1855 C1867 0.930 . S
H1856 C1869 0.930 . S
H1857 C1870 0.930 1_554 S
H1858 C1874 0.959 . S
H1859 C1874 0.959 . S
H1860 C1874 0.961 . S
H1861 C1875 0.960 . S
H1862 C1875 0.961 . S
H1863 C1875 0.959 . S
H1864 C1878 0.929 1_554 S
H1865 C1879 0.931 1_554 S
H1866 C1881 0.930 . S
C1867 H1855 0.930 . S
C1867 C1868 1.399 . S
C1867 C1872 1.399 . S
C1868 C1867 1.399 . S
C1868 C1869 1.376 . S
C1869 H1856 0.930 . S
C1869 C1868 1.376 . S
C1869 C1870 1.388 . S
C1870 H1857 0.930 1_556 S
C1870 C1869 1.388 . S
C1870 C1871 1.390 . S
C1871 C1870 1.390 . S
C1871 C1872 1.394 . S
C1871 C1877 1.465 . S
C1872 C1867 1.399 . S
C1872 C1871 1.394 . S
C1872 C1873 1.516 . S
C1873 C1872 1.516 . S
C1873 C1874 1.502 . S
C1873 C1875 1.561 . S
C1873 C1876 1.526 . S
C1874 H1858 0.959 . S
C1874 H1859 0.959 . S
C1874 H1860 0.961 . S
C1874 C1873 1.502 . S
C1875 H1861 0.960 . S
C1875 H1862 0.961 . S
C1875 H1863 0.959 . S
C1875 C1873 1.561 . S
C1876 C1873 1.526 . S
C1876 C1877 1.396 . S
C1876 C1881 1.390 . S
C1877 C1871 1.465 . S
C1877 C1876 1.396 . S
C1877 C1878 1.399 . S
C1878 H1864 0.929 1_556 S
C1878 C1877 1.399 . S
C1878 C1879 1.385 . S
C1879 H1865 0.931 1_556 S
C1879 C1878 1.385 . S
C1879 C1880 1.389 . S
C1880 C1879 1.389 . S
C1880 C1881 1.387 . S
C1881 H1866 0.930 . S
C1881 C1876 1.390 . S
C1881 C1880 1.387 . S
H1882 C1894 0.930 . S
H1883 C1896 0.930 . S
H1884 C1897 0.930 . S
H1885 C1901 0.959 . S
H1886 C1901 0.959 . S
H1887 C1901 0.961 . S
H1888 C1902 0.960 . S
H1889 C1902 0.961 . S
H1890 C1902 0.959 . S
H1891 C1905 0.929 . S
H1892 C1906 0.931 . S
H1893 C1908 0.930 . S
C1894 H1882 0.930 . S
C1894 C1895 1.399 . S
C1894 C1899 1.399 . S
C1895 C1894 1.399 . S
C1895 C1896 1.376 . S
C1896 H1883 0.930 . S
C1896 C1895 1.376 . S
C1896 C1897 1.388 . S
C1897 H1884 0.930 . S
C1897 C1896 1.388 . S
C1897 C1898 1.390 . S
C1898 C1897 1.390 . S
C1898 C1899 1.394 . S
C1898 C1904 1.465 . S
C1899 C1894 1.399 . S
C1899 C1898 1.394 . S
C1899 C1900 1.516 . S
C1900 C1899 1.516 . S
C1900 C1901 1.502 . S
C1900 C1902 1.561 . S
C1900 C1903 1.526 . S
C1901 H1885 0.959 . S
C1901 H1886 0.959 . S
C1901 H1887 0.961 . S
C1901 C1900 1.502 . S
C1902 H1888 0.960 . S
C1902 H1889 0.961 . S
C1902 H1890 0.959 . S
C1902 C1900 1.561 . S
C1903 C1900 1.526 . S
C1903 C1904 1.396 . S
C1903 C1908 1.390 . S
C1904 C1898 1.465 . S
C1904 C1903 1.396 . S
C1904 C1905 1.399 . S
C1905 H1891 0.929 . S
C1905 C1904 1.399 . S
C1905 C1906 1.385 . S
C1906 H1892 0.931 . S
C1906 C1905 1.385 . S
C1906 C1907 1.389 . S
C1907 C1906 1.389 . S
C1907 C1908 1.387 . S
C1908 H1893 0.930 . S
C1908 C1903 1.390 . S
C1908 C1907 1.387 . S
H1909 C1921 0.930 . S
H1910 C1923 0.930 . S
H1911 C1924 0.930 . S
H1912 C1928 0.959 . S
H1913 C1928 0.959 . S
H1914 C1928 0.961 . S
H1915 C1929 0.960 . S
H1916 C1929 0.961 . S
H1917 C1929 0.959 . S
H1918 C1932 0.929 . S
H1919 C1933 0.931 . S
H1920 C1935 0.930 . S
C1921 H1909 0.930 . S
C1921 C1922 1.399 . S
C1921 C1926 1.399 . S
C1922 C1921 1.399 . S
C1922 C1923 1.376 . S
C1923 H1910 0.930 . S
C1923 C1922 1.376 . S
C1923 C1924 1.388 . S
C1924 H1911 0.930 . S
C1924 C1923 1.388 . S
C1924 C1925 1.390 . S
C1925 C1924 1.390 . S
C1925 C1926 1.394 . S
C1925 C1931 1.465 . S
C1926 C1921 1.399 . S
C1926 C1925 1.394 . S
C1926 C1927 1.516 . S
C1927 C1926 1.516 . S
C1927 C1928 1.502 1_554 S
C1927 C1929 1.561 . S
C1927 C1930 1.526 . S
C1928 H1912 0.959 . S
C1928 H1913 0.959 . S
C1928 H1914 0.961 . S
C1928 C1927 1.502 1_556 S
C1929 H1915 0.960 . S
C1929 H1916 0.961 . S
C1929 H1917 0.959 . S
C1929 C1927 1.561 . S
C1930 C1927 1.526 . S
C1930 C1931 1.396 . S
C1930 C1935 1.390 . S
C1931 C1925 1.465 . S
C1931 C1930 1.396 . S
C1931 C1932 1.399 . S
C1932 H1918 0.929 . S
C1932 C1931 1.399 . S
C1932 C1933 1.385 . S
C1933 H1919 0.931 . S
C1933 C1932 1.385 . S
C1933 C1934 1.389 . S
C1934 C1933 1.389 . S
C1934 C1935 1.387 . S
C1935 H1920 0.930 . S
C1935 C1930 1.390 . S
C1935 C1934 1.387 . S
C653 C9 1.304 . S
C665 C45 1.337 . S
C680 C88 1.536 . S
C692 C59 1.561 . S
C707 C138 1.959 . S
C719 C89 2.111 . S
C734 C8 0.697 . S
C746 C135 0.881 . S
C761 C18 0.784 . S
C773 C365 0.746 . S
C788 C299 1.341 . S
C800 C55 1.313 . S
C815 C98 1.550 . S
C827 C409 1.523 . S
C842 C128 1.986 . S
C854 C539 2.112 . S
C869 C338 1.577 . S
C881 C49 1.591 . S
C896 C488 1.955 . S
C908 C99 2.109 . S
C923 C578 0.687 . S
C935 C125 0.853 . S
C950 C19 1.356 . S
C962 C455 1.242 . S
C977 C5 0.356 . S
C989 C325 0.472 . S
C1004 C489 2.111 . S
C1016 C178 2.091 . S
C1031 C215 0.423 . S
C1043 C575 0.323 . S
C1058 C458 2.078 . S
C1070 C249 2.113 . S
C1085 C95 0.487 . S
C1097 C295 0.319 . S
C1112 C379 2.114 . S
C1124 C168 2.067 . S
C1139 C259 2.115 . S
C1151 C408 2.074 . S
C1166 C218 1.571 . S
C1178 C449 1.590 . S
C1193 C368 2.023 . S
C1205 C219 2.108 . S
C1220 C445 1.278 . S
C1232 C289 1.342 . S
C1247 C208 1.595 . S
C1259 C179 1.533 . S
C1274 C378 2.008 . S
C1286 C329 2.107 . S
C1301 C528 1.599 . S
C1313 C459 1.545 . S
C1328 C258 2.012 . S
C1340 C209 2.108 . S
C1355 C375 0.838 . S
C1367 C568 0.722 . S
C1382 C535 0.276 . S
C1394 C15 0.589 . S
C1409 C85 0.230 . S
C1421 C565 0.583 . S
C1436 C499 2.090 . S
C1448 C48 2.080 . S
C1463 C285 0.446 . S
C1475 C205 0.378 . S
C1490 C129 2.083 . S
C1502 C418 2.045 . S
C1517 C498 1.960 . S
C1529 C529 2.111 . S
C1544 C288 0.819 . S
C1556 C495 0.821 . S
C1571 C245 0.882 . S
C1583 C298 0.748 . S
C1598 C169 1.553 . S
C1610 C538 1.539 . S
C1625 C485 0.724 . S
C1637 C618 0.851 . S
C1652 C615 0.545 . S
C1664 C335 0.394 . S
C1679 C58 2.063 . S
C1691 C369 2.089 . S
C1706 C339 2.112 . S
C1718 C248 1.989 . S
C1733 C328 1.599 . S
C1745 C419 1.544 . S
C1760 C608 0.840 . S
C1772 C255 0.750 . S
C1787 C525 0.487 . S
C1799 C605 0.330 . S
C1814 C448 2.091 . S
C1826 C139 2.103 . S
C1841 C405 1.281 . S
C1853 C569 1.347 . S
C1868 C415 1.338 . S
C1880 C619 1.302 . S
C1895 C175 1.235 . S
C1907 C579 1.369 . S
C1922 C609 1.357 . S
C1934 C165 1.265 . S
