# Generated by pormake.
# Topology ukh, (4)-cn, num edge types: 1
# Building blocks:
#     Node 0, Type 0, BuildingBlock: ICAMEG_clean_sbu_1, # of connection points: 4
#     Node 1, Type 0, BuildingBlock: ICAMEG_clean_sbu_1, # of connection points: 4
#     Node 2, Type 0, BuildingBlock: ICAMEG_clean_sbu_1, # of connection points: 4
#     Node 3, Type 0, BuildingBlock: ICAMEG_clean_sbu_1, # of connection points: 4
#     Node 4, Type 0, BuildingBlock: ICAMEG_clean_sbu_1, # of connection points: 4
#     Node 5, Type 0, BuildingBlock: ICAMEG_clean_sbu_1, # of connection points: 4
#     Node 6, Type 0, BuildingBlock: ICAMEG_clean_sbu_1, # of connection points: 4
#     Node 7, Type 0, BuildingBlock: ICAMEG_clean_sbu_1, # of connection points: 4
#     Node 8, Type 0, BuildingBlock: ICAMEG_clean_sbu_1, # of connection points: 4
#     Node 9, Type 0, BuildingBlock: ICAMEG_clean_sbu_1, # of connection points: 4
#     Node 10, Type 0, BuildingBlock: ICAMEG_clean_sbu_1, # of connection points: 4
#     Node 11, Type 0, BuildingBlock: ICAMEG_clean_sbu_1, # of connection points: 4
#     Edge 12, Type (0, 0), None
#     Edge 13, Type (0, 0), None
#     Edge 14, Type (0, 0), None
#     Edge 15, Type (0, 0), None
#     Edge 16, Type (0, 0), None
#     Edge 17, Type (0, 0), None
#     Edge 18, Type (0, 0), None
#     Edge 19, Type (0, 0), None
#     Edge 20, Type (0, 0), None
#     Edge 21, Type (0, 0), None
#     Edge 22, Type (0, 0), None
#     Edge 23, Type (0, 0), None
#     Edge 24, Type (0, 0), None
#     Edge 25, Type (0, 0), None
#     Edge 26, Type (0, 0), None
#     Edge 27, Type (0, 0), None
#     Edge 28, Type (0, 0), None
#     Edge 29, Type (0, 0), None
#     Edge 30, Type (0, 0), None
#     Edge 31, Type (0, 0), None
#     Edge 32, Type (0, 0), None
#     Edge 33, Type (0, 0), None
#     Edge 34, Type (0, 0), None
#     Edge 35, Type (0, 0), None
# Relax obj value: 0.034
# Max RMSD: 0.055
# Mean RMSD: 0.055
data_MOF--net-ukh--node1-ICAMEG_clean_sbu_1--edge1-none
_symmetry_space_group_name_H-M    P1
_symmetry_Int_Tables_number       1
_symmetry_cell_setting            triclinic
loop_
_symmetry_equiv_pos_as_xyz
'x, y, z'
_cell_length_a     16.473832
_cell_length_b     16.498577
_cell_length_c     34.863782
_cell_angle_alpha  89.948787
_cell_angle_beta   89.828945
_cell_angle_gamma 120.24547
loop_
_atom_site_label
_atom_site_type_symbol
_atom_site_fract_x
_atom_site_fract_y
_atom_site_fract_z
_atom_type_partial_charge
Co0 Co 0.38738 0.27742 0.99026 0.0
Co1 Co 0.24969 0.18057 0.0656 0.0
O2 O 0.37492 0.25548 0.0457 0.0
C3 C 0.48244 0.47041 0.01774 0.0
O4 O 0.40258 0.46211 0.02895 0.0
C5 C 0.3668 0.19628 0.13653 0.0
O6 O 0.4485 0.24777 0.11962 0.0
O7 O 0.24688 0.06584 0.03774 0.0
O8 O 0.28863 0.13236 0.97921 0.0
H9 H 0.96804 0.02779 0.0182 0.0
H10 H 0.56172 0.32274 0.04544 0.0
O11 O 0.48599 0.40453 0.0016 0.0
H12 H 0.51301 0.08629 0.91114 0.0
H13 H 0.59096 0.42163 0.87391 0.0
H14 H 0.26982 0.27034 0.92581 0.0
H15 H 0.41543 0.1665 0.93164 0.0
H16 H 0.55971 0.39018 0.94297 0.0
O17 O 0.29157 0.15421 0.11669 0.0
H18 H 0.10121 0.037 0.02807 0.0
H19 H 0.1279 0.15801 0.13755 0.0
H20 H 0.30013 0.33008 0.86023 0.0
H21 H 0.69781 0.26648 0.05041 0.0
H22 H 0.45766 0.38242 0.83065 0.0
H23 H 0.64302 0.15052 0.9812 0.0
O24 O 0.283 0.32044 0.98942 0.0
H25 H 0.40524 0.49233 0.13718 0.0
H26 H 0.11749 0.26004 0.07292 0.0
H27 H 0.12282 0.39493 0.10368 0.0
H28 H 0.26692 0.51165 0.13703 0.0
H29 H 0.40018 0.35763 0.10448 0.0
H30 H 0.94704 0.07389 0.13523 0.0
H31 H 0.87047 0.03184 0.07678 0.0
O32 O 0.18727 0.20033 0.01975 0.0
C33 C 0.24946 0.05578 0.00067 0.0
C34 C 0.99159 0.04863 0.04644 0.0
C35 C 0.9904 0.08952 0.11107 0.0
N36 N 0.12653 0.10326 0.08244 0.0
C37 C 0.07388 0.05428 0.05248 0.0
C38 C 0.0864 0.12047 0.11297 0.0
C39 C 0.94423 0.05797 0.07718 0.0
C40 C 0.56359 0.27829 0.0231 0.0
N41 N 0.48791 0.24447 0.98829 0.0
C42 C 0.64836 0.24124 0.02647 0.0
C43 C 0.62333 0.12923 0.9655 0.0
C44 C 0.53194 0.12357 0.93808 0.0
C45 C 0.47197 0.18013 0.95093 0.0
C46 C 0.51984 0.3863 0.88481 0.0
C47 C 0.33956 0.30194 0.91433 0.0
C48 C 0.50141 0.36479 0.92359 0.0
N49 N 0.41088 0.31314 0.93686 0.0
C50 C 0.35645 0.33281 0.87659 0.0
C51 C 0.44531 0.36615 0.86075 0.0
C52 C 0.20061 0.27432 0.00467 0.0
C53 C 0.34182 0.43983 0.12355 0.0
C54 C 0.18118 0.30886 0.08723 0.0
C55 C 0.18346 0.38612 0.10459 0.0
C56 C 0.26411 0.45146 0.1233 0.0
N57 N 0.25588 0.29372 0.08913 0.0
C58 C 0.33716 0.36141 0.10577 0.0
Co59 Co 0.10583 0.3805 0.32785 0.0
Co60 Co 0.05924 0.23406 0.40408 0.0
O61 O 0.1169 0.35944 0.38164 0.0
C62 C 0.00106 0.47726 0.33257 0.0
O63 O 0.9349 0.4066 0.31336 0.0
C64 C 0.13828 0.34999 0.47718 0.0
O65 O 0.12544 0.41817 0.46554 0.0
O66 O 0.15782 0.22069 0.3716 0.0
O67 O 0.14604 0.27984 0.31416 0.0
H68 H 0.85667 0.87628 0.41507 0.0
H69 H 0.23996 0.56828 0.37915 0.0
O70 O 0.0736 0.47626 0.34363 0.0
H71 H 0.4195 0.49639 0.24818 0.0
H72 H 0.16764 0.59861 0.21654 0.0
H73 H 0.98175 0.27359 0.26219 0.0
H74 H 0.24336 0.40442 0.27023 0.0
H75 H 0.16928 0.55661 0.28423 0.0
O76 O 0.14315 0.29439 0.45212 0.0
H77 H 0.92516 0.02413 0.37962 0.0
H78 H 0.07242 0.15983 0.48231 0.0
H79 H 0.94524 0.31918 0.19976 0.0
H80 H 0.43347 0.70817 0.38013 0.0
H81 H 0.05772 0.4732 0.17227 0.0
H82 H 0.49148 0.641 0.31405 0.0
O83 O 0.96304 0.27584 0.32871 0.0
H84 H 0.88533 0.40788 0.43598 0.0
H85 H 0.86638 0.10246 0.44026 0.0
H86 H 0.73638 0.11595 0.46388 0.0
H87 H 0.74475 0.27022 0.46332 0.0
H88 H 0.01634 0.39357 0.41304 0.0
H89 H 0.00568 0.00995 0.51168 0.0
H90 H 0.91784 0.87016 0.47738 0.0
O91 O 0.97088 0.16931 0.36174 0.0
C92 C 0.17425 0.23137 0.33455 0.0
C93 C 0.91099 0.94014 0.42709 0.0
C94 C 0.00172 0.0157 0.48154 0.0
N95 N 0.01104 0.10844 0.42707 0.0
C96 C 0.94875 0.02654 0.40845 0.0
C97 C 0.03421 0.10156 0.46412 0.0
C98 C 0.94429 0.93519 0.46237 0.0
C99 C 0.28529 0.56673 0.35703 0.0
N100 N 0.24144 0.48377 0.32499 0.0
C101 C 0.40813 0.65397 0.35802 0.0
C102 C 0.49211 0.618 0.29902 0.0
C103 C 0.40428 0.52039 0.27454 0.0
C104 C 0.28821 0.46221 0.28867 0.0
C105 C 0.1282 0.52624 0.22591 0.0
C106 C 0.02305 0.34404 0.25218 0.0
C107 C 0.13419 0.50155 0.26357 0.0
N108 N 0.09118 0.40944 0.27485 0.0
C109 C 0.00458 0.36865 0.2163 0.0
C110 C 0.06507 0.45713 0.20152 0.0
C111 C 0.92117 0.19283 0.34312 0.0
C112 C 0.88291 0.3413 0.43832 0.0
C113 C 0.87608 0.17128 0.44092 0.0
C114 C 0.79935 0.17794 0.45395 0.0
C115 C 0.8036 0.26398 0.45328 0.0
N116 N 0.9574 0.24832 0.42827 0.0
C117 C 0.95829 0.33199 0.42547 0.0
Co118 Co 0.72501 0.09001 0.65489 0.0
Co119 Co 0.79539 0.02301 0.73605 0.0
O120 O 0.74934 0.09794 0.71087 0.0
C121 C 0.53603 0.99391 0.68688 0.0
O122 O 0.54524 0.92134 0.69434 0.0
C123 C 0.81947 0.15762 0.80776 0.0
O124 O 0.7814 0.20056 0.79007 0.0
O125 O 0.91966 0.11928 0.7049 0.0
O126 O 0.86593 0.12906 0.64531 0.0
H127 H 0.915 0.79217 0.74068 0.0
H128 H 0.66004 0.21242 0.70436 0.0
O129 O 0.59695 0.06125 0.66728 0.0
H130 H 0.94375 0.41887 0.58581 0.0
H131 H 0.55804 0.13282 0.54281 0.0
H132 H 0.73285 0.98482 0.58832 0.0
H133 H 0.85841 0.23931 0.60304 0.0
H134 H 0.61508 0.15396 0.60918 0.0
O135 O 0.83539 0.09994 0.78836 0.0
H136 H 0.88534 0.90801 0.71014 0.0
H137 H 0.75556 0.92856 0.81122 0.0
H138 H 0.65188 0.93844 0.52601 0.0
H139 H 0.7075 0.39864 0.70972 0.0
H140 H 0.57612 0.02099 0.50097 0.0
H141 H 0.84759 0.4758 0.64838 0.0
O142 O 0.68198 0.94431 0.65039 0.0
H143 H 0.49143 0.94783 0.80291 0.0
H144 H 0.65732 0.81509 0.73485 0.0
H145 H 0.49545 0.71382 0.75276 0.0
H146 H 0.40992 0.77786 0.78921 0.0
H147 H 0.65064 0.05067 0.77845 0.0
H148 H 0.76548 0.79665 0.83878 0.0
H149 H 0.85478 0.73456 0.80465 0.0
O150 O 0.7692 0.9342 0.6934 0.0
C151 C 0.9362 0.15079 0.66863 0.0
C152 C 0.88491 0.82596 0.75691 0.0
C153 C 0.79802 0.82606 0.81147 0.0
N154 N 0.83383 0.9398 0.76074 0.0
C155 C 0.8698 0.89439 0.74023 0.0
C156 C 0.79356 0.90178 0.79552 0.0
C157 C 0.84883 0.79174 0.79283 0.0
C158 C 0.71087 0.26147 0.68411 0.0
N159 N 0.76133 0.2258 0.65405 0.0
C160 C 0.74016 0.38082 0.68691 0.0
C161 C 0.87615 0.47929 0.63437 0.0
C162 C 0.89801 0.39844 0.61041 0.0
C163 C 0.83988 0.28012 0.62142 0.0
C164 C 0.59832 0.10161 0.55235 0.0
C165 C 0.69742 0.01921 0.57807 0.0
C166 C 0.63574 0.11782 0.58928 0.0
N167 N 0.6903 0.08154 0.60102 0.0
C168 C 0.65288 0.9938 0.54259 0.0
C169 C 0.60742 0.03879 0.52891 0.0
C170 C 0.71366 0.89557 0.66655 0.0
C171 C 0.52799 0.91868 0.78799 0.0
C172 C 0.62269 0.84576 0.74959 0.0
C173 C 0.5297 0.78675 0.76044 0.0
C174 C 0.48215 0.82312 0.78031 0.0
N175 N 0.66803 0.94012 0.75673 0.0
C176 C 0.62023 0.97663 0.77512 0.0
Co177 Co 0.65087 0.74504 0.97975 0.0
Co178 Co 0.78078 0.79242 0.06481 0.0
O179 O 0.66395 0.75585 0.03748 0.0
C180 C 0.5631 0.56062 0.01161 0.0
O181 O 0.64671 0.5727 0.01748 0.0
C182 C 0.68188 0.83628 0.13725 0.0
O183 O 0.59956 0.80292 0.12077 0.0
O184 O 0.81896 0.91709 0.03317 0.0
O185 O 0.75033 0.88168 0.97393 0.0
H186 H 0.13173 0.91574 0.06944 0.0
H187 H 0.45518 0.656 0.02821 0.0
O188 O 0.55307 0.61558 0.98985 0.0
H189 H 0.5339 0.97421 0.92978 0.0
H190 H 0.48031 0.53883 0.86906 0.0
H191 H 0.6926 0.86487 0.90391 0.0
H192 H 0.64146 0.90971 0.94614 0.0
H193 H 0.56756 0.57521 0.92873 0.0
O194 O 0.7508 0.8413 0.11703 0.0
H195 H 0.98265 0.88158 0.03893 0.0
H196 H 0.83405 0.74728 0.13982 0.0
H197 H 0.60885 0.83092 0.84404 0.0
H198 H 0.31066 0.69403 0.03868 0.0
H199 H 0.49687 0.66575 0.82652 0.0
H200 H 0.37953 0.85439 0.98753 0.0
O201 O 0.76046 0.71405 0.9695 0.0
H202 H 0.54436 0.50888 0.1414 0.0
H203 H 0.82897 0.63722 0.0627 0.0
H204 H 0.75975 0.47803 0.08706 0.0
H205 H 0.61649 0.41245 0.12762 0.0
H206 H 0.60778 0.66394 0.11114 0.0
H207 H 0.97867 0.76336 0.16801 0.0
H208 H 0.13042 0.85549 0.13347 0.0
O209 O 0.83577 0.75516 0.02347 0.0
C210 C 0.80458 0.94265 -0.00131 0.0
C211 C 0.06674 0.88065 0.08519 0.0
C212 C 0.9806 0.79342 0.14028 0.0
N213 N 0.90063 0.82485 0.08934 0.0
C214 C 0.98227 0.86423 0.06875 0.0
C215 C 0.89873 0.78462 0.12396 0.0
C216 C 0.06594 0.84564 0.1213 0.0
C217 C 0.45787 0.71258 0.01165 0.0
N218 N 0.54836 0.77746 0.98427 0.0
C219 C 0.36372 0.73614 0.01783 0.0
C220 C 0.40403 0.88849 0.97552 0.0
C221 C 0.50997 0.9237 0.95233 0.0
C222 C 0.57381 0.8687 0.95846 0.0
C223 C 0.52622 0.61071 0.87694 0.0
C224 C 0.64473 0.79349 0.89798 0.0
C225 C 0.57467 0.63277 0.9116 0.0
N226 N 0.62565 0.72383 0.92398 0.0
C227 C 0.59756 0.77432 0.86303 0.0
C228 C 0.5354 0.68206 0.85309 0.0
C229 C 0.83127 0.7268 0.99018 0.0
C230 C 0.60567 0.53666 0.1233 0.0
C231 C 0.76705 0.61125 0.07981 0.0
C232 C 0.72723 0.51948 0.09342 0.0
C233 C 0.64663 0.48249 0.11585 0.0
N234 N 0.72668 0.66506 0.08692 0.0
C235 C 0.64473 0.62665 0.10744 0.0
Co236 Co 0.90706 0.66537 0.30724 0.0
Co237 Co 0.99057 0.79129 0.39204 0.0
O238 O 0.91097 0.67542 0.36427 0.0
C239 C 0.00103 0.56454 0.33247 0.0
O240 O 0.07218 0.64217 0.34553 0.0
C241 C 0.84465 0.67293 0.46035 0.0
O242 O 0.79651 0.59678 0.43972 0.0
O243 O 0.91329 0.84277 0.36281 0.0
O244 O 0.87385 0.76992 0.30429 0.0
H245 H 0.21734 0.13883 0.39448 0.0
H246 H 0.7987 0.47095 0.3563 0.0
O247 O 0.93603 0.5652 0.3139 0.0
H248 H 0.56376 0.54596 0.25416 0.0
H249 H 0.92984 0.49218 0.19518 0.0
H250 H 0.82785 0.7114 0.23228 0.0
H251 H 0.73322 0.6565 0.27524 0.0
H252 H 0.99486 0.58862 0.25269 0.0
O253 O 0.90878 0.7485 0.44333 0.0
H254 H 0.07886 0.99334 0.36842 0.0
H255 H 0.09384 0.84663 0.46573 0.0
H256 H 0.76022 0.61518 0.17624 0.0
H257 H 0.61486 0.32329 0.36515 0.0
H258 H 0.80858 0.49972 0.15791 0.0
H259 H 0.52449 0.38882 0.312 0.0
O260 O 0.04801 0.7702 0.29806 0.0
H261 H 0.02934 0.53843 0.45809 0.0
H262 H 0.19625 0.84532 0.39458 0.0
H263 H 0.28627 0.778 0.42111 0.0
H264 H 0.20309 0.6239 0.45426 0.0
H265 H 0.94204 0.60571 0.42838 0.0
H266 H 0.24546 0.98621 0.48064 0.0
H267 H 0.29275 0.13738 0.45187 0.0
O268 O 0.08486 0.84803 0.35178 0.0
C269 C 0.87644 0.83142 0.32833 0.0
C270 C 0.18393 0.07568 0.41005 0.0
C271 C 0.20027 0.99044 0.46024 0.0
N272 N 0.07419 0.91045 0.41642 0.0
C273 C 0.10791 0.99255 0.39609 0.0
C274 C 0.11743 0.91058 0.44957 0.0
C275 C 0.22913 0.075 0.44276 0.0
C276 C 0.74477 0.47251 0.33931 0.0
N277 N 0.77114 0.5628 0.31194 0.0
C278 C 0.62674 0.37616 0.34413 0.0
C279 C 0.51597 0.41343 0.2996 0.0
C280 C 0.58836 0.52055 0.277 0.0
C281 C 0.70653 0.58677 0.28525 0.0
C282 C 0.90632 0.5393 0.20398 0.0
C283 C 0.84874 0.66183 0.22609 0.0
C284 C 0.94065 0.59294 0.23723 0.0
N285 N 0.90216 0.64419 0.25091 0.0
C286 C 0.81105 0.608 0.19311 0.0
C287 C 0.83786 0.54375 0.1828 0.0
C288 C 0.10777 0.8393 0.31884 0.0
C289 C 0.06643 0.60686 0.44472 0.0
C290 C 0.15868 0.77943 0.40907 0.0
C291 C 0.21053 0.74101 0.42402 0.0
C292 C 0.16395 0.65461 0.44248 0.0
N293 N 0.06279 0.73502 0.41302 0.0
C294 C 0.01696 0.64724 0.429 0.0
Co295 Co 0.25819 0.89329 0.65392 0.0
Co296 Co 0.1716 0.93966 0.73301 0.0
O297 O 0.23751 0.88366 0.70996 0.0
C298 C 0.44444 0.98319 0.68753 0.0
O299 O 0.43035 0.04782 0.70258 0.0
C300 C 0.1559 0.80459 0.79945 0.0
O301 O 0.19448 0.76465 0.77984 0.0
O302 O 0.05239 0.83699 0.7028 0.0
O303 O 0.1153 0.85201 0.64384 0.0
H304 H 0.03565 0.08875 0.68963 0.0
H305 H 0.31966 0.77213 0.70421 0.0
O306 O 0.38624 0.92291 0.66489 0.0
H307 H 0.04123 0.56375 0.58507 0.0
H308 H 0.41021 0.83203 0.54209 0.0
H309 H 0.26366 0.00948 0.58753 0.0
H310 H 0.12687 0.74396 0.60113 0.0
H311 H 0.36231 0.82471 0.60916 0.0
O312 O 0.13518 0.86094 0.78264 0.0
H313 H 0.03644 0.96036 0.69854 0.0
H314 H 0.17965 0.05746 0.80323 0.0
H315 H 0.34408 0.04764 0.52498 0.0
H316 H 0.27032 0.58665 0.71159 0.0
H317 H 0.40126 0.94411 0.49944 0.0
H318 H 0.13359 0.5077 0.64938 0.0
O319 O 0.30308 0.04077 0.65134 0.0
H320 H 0.4456 0.04423 0.82483 0.0
H321 H 0.29174 0.15322 0.73582 0.0
H322 H 0.42656 0.26695 0.77153 0.0
H323 H 0.50355 0.21377 0.81819 0.0
H324 H 0.31884 0.93212 0.78315 0.0
H325 H 0.14558 0.19247 0.79785 0.0
H326 H 0.06797 0.20706 0.7441 0.0
O327 O 0.20157 0.03525 0.6908 0.0
C328 C 0.04058 0.82084 0.6659 0.0
C329 C 0.05181 0.08167 0.71809 0.0
C330 C 0.11737 0.13493 0.77901 0.0
N331 N 0.10472 0.99611 0.75238 0.0
C332 C 0.05518 0.00339 0.72345 0.0
C333 C 0.13639 0.06083 0.78091 0.0
C334 C 0.07393 0.14505 0.74734 0.0
C335 C 0.26975 0.72274 0.68397 0.0
N336 N 0.22142 0.75793 0.65292 0.0
C337 C 0.23951 0.60376 0.68798 0.0
C338 C 0.10591 0.50409 0.63511 0.0
C339 C 0.08597 0.58469 0.60986 0.0
C340 C 0.14432 0.7033 0.62007 0.0
C341 C 0.37611 0.8697 0.55158 0.0
C342 C 0.29347 0.9692 0.57738 0.0
C343 C 0.3424 0.86033 0.5888 0.0
N344 N 0.29295 0.90251 0.60023 0.0
C345 C 0.33708 0.98938 0.54154 0.0
C346 C 0.37219 0.9342 0.52765 0.0
C347 C 0.26594 0.08444 0.66786 0.0
C348 C 0.4124 0.06807 0.80469 0.0
C349 C 0.32526 0.12746 0.75415 0.0
C350 C 0.40228 0.19336 0.77503 0.0
C351 C 0.44499 0.1634 0.80112 0.0
N352 N 0.28916 0.03298 0.75902 0.0
C353 C 0.33688 0.00411 0.78218 0.0
Co354 Co 0.7242 0.62431 0.65976 0.0
Co355 Co 0.80113 0.76641 0.57968 0.0
O356 O 0.75214 0.64343 0.6039 0.0
C357 C 0.53419 0.53303 0.62904 0.0
O358 O 0.54442 0.61542 0.62175 0.0
C359 C 0.82632 0.66397 0.50433 0.0
O360 O 0.78441 0.57903 0.51899 0.0
O361 O 0.92214 0.79156 0.61151 0.0
O362 O 0.86431 0.72602 0.67059 0.0
H363 H 0.92455 0.11823 0.57834 0.0
H364 H 0.66219 0.43756 0.60958 0.0
O365 O 0.5968 0.52547 0.6464 0.0
H366 H 0.93805 0.51348 0.7303 0.0
H367 H 0.55802 0.40469 0.7697 0.0
H368 H 0.72252 0.73221 0.72773 0.0
H369 H 0.85375 0.60707 0.71239 0.0
H370 H 0.61305 0.44749 0.7034 0.0
O371 O 0.84441 0.73408 0.5267 0.0
H372 H 0.89529 0.9707 0.60762 0.0
H373 H 0.77137 0.82717 0.50478 0.0
H374 H 0.63992 0.68999 0.78989 0.0
H375 H 0.71043 0.29903 0.60465 0.0
H376 H 0.56945 0.52841 0.81362 0.0
H377 H 0.84737 0.36206 0.66683 0.0
O378 O 0.68171 0.7271 0.66441 0.0
H379 H 0.49976 0.53695 0.51296 0.0
H380 H 0.66381 0.83703 0.58002 0.0
H381 H 0.50144 0.77525 0.56141 0.0
H382 H 0.41763 0.62487 0.52572 0.0
H383 H 0.65749 0.59417 0.5381 0.0
H384 H 0.78519 0.97153 0.47808 0.0
H385 H 0.87081 0.12059 0.51425 0.0
O386 O 0.77277 0.82713 0.62248 0.0
C387 C 0.93611 0.77501 0.64778 0.0
C388 C 0.89658 0.05553 0.56161 0.0
C389 C 0.81447 0.97256 0.50574 0.0
N390 N 0.84361 0.8903 0.55637 0.0
C391 C 0.88056 0.97082 0.57755 0.0
C392 C 0.80693 0.89077 0.52129 0.0
C393 C 0.86329 0.0563 0.52551 0.0
C394 C 0.71216 0.43933 0.63006 0.0
N395 N 0.76048 0.52484 0.66049 0.0
C396 C 0.74212 0.34977 0.62745 0.0
C397 C 0.87492 0.38696 0.68104 0.0
C398 C 0.89471 0.48887 0.70516 0.0
C399 C 0.83694 0.54864 0.69371 0.0
C400 C 0.59474 0.47719 0.76094 0.0
C401 C 0.68877 0.66135 0.73709 0.0
C402 C 0.63215 0.50251 0.72404 0.0
N403 N 0.6855 0.59471 0.71335 0.0
C404 C 0.64316 0.63779 0.77261 0.0
C405 C 0.60058 0.546 0.78544 0.0
C406 C 0.71466 0.80843 0.64863 0.0
C407 C 0.53582 0.60322 0.52745 0.0
C408 C 0.62961 0.7719 0.56519 0.0
C409 C 0.53653 0.73692 0.55437 0.0
C410 C 0.48967 0.65255 0.53471 0.0
N411 N 0.6753 0.72338 0.55823 0.0
C412 C 0.62762 0.63827 0.54046 0.0
Co413 Co 0.10823 0.7318 -0.00883 0.0
Co414 Co 0.06314 0.82777 0.91553 0.0
O415 O 0.12423 0.76443 0.93725 0.0
C416 C 0.0037 0.53138 0.98461 0.0
O417 O 0.93788 0.53386 0.00499 0.0
C418 C 0.13866 0.78605 0.84189 0.0
O419 O 0.12693 0.70675 0.85542 0.0
O420 O 0.17224 0.9426 0.94461 0.0
O421 O 0.15468 0.87588 0.00378 0.0
H422 H 0.83402 0.94699 0.91232 0.0
H423 H 0.23938 0.68446 0.9379 0.0
O424 O 0.07722 0.60549 0.9751 0.0
H425 H 0.42154 0.91704 0.07369 0.0
H426 H 0.16696 0.57849 0.10418 0.0
H427 H 0.97706 0.70828 0.05574 0.0
H428 H 0.24431 0.83939 0.05114 0.0
H429 H 0.16673 0.61675 0.03576 0.0
O430 O 0.13752 0.84692 0.86495 0.0
H431 H 0.91755 0.88708 0.94312 0.0
H432 H 0.06783 0.91788 0.83805 0.0
H433 H 0.9425 0.6319 0.11932 0.0
H434 H 0.43093 0.73564 0.9354 0.0
H435 H 0.05733 0.59618 0.14806 0.0
H436 H 0.49092 0.85174 0.0047 0.0
O437 O 0.96251 0.69042 0.98964 0.0
H438 H 0.892 0.4762 0.8912 0.0
H439 H 0.86746 0.75812 0.87575 0.0
H440 H 0.73913 0.60945 0.85618 0.0
H441 H 0.74982 0.4654 0.86268 0.0
H442 H 0.02085 0.6257 0.91065 0.0
H443 H 0.98309 0.98936 0.81092 0.0
H444 H 0.87846 0.017 0.84928 0.0
O445 O 0.98553 0.81215 0.96131 0.0
C446 C 0.19103 0.9518 0.9818 0.0
C447 C 0.88769 0.94343 0.89703 0.0
C448 C 0.97738 0.97215 0.84059 0.0
N449 N 0.00552 0.89791 0.89399 0.0
C450 C 0.93674 0.90559 0.91381 0.0
C451 C 0.02214 0.92797 0.85661 0.0
C452 C 0.91315 0.98324 0.8616 0.0
C453 C 0.28473 0.72779 0.96073 0.0
N454 N 0.24183 0.76304 -0.00539 0.0
C455 C 0.40631 0.76192 0.95886 0.0
C456 C 0.49162 0.87313 0.02033 0.0
C457 C 0.40468 0.88077 0.04653 0.0
C458 C 0.28863 0.82641 0.0323 0.0
C459 C 0.12718 0.61026 0.09428 0.0
C460 C 0.02019 0.68257 0.06648 0.0
C461 C 0.1324 0.6381 0.05618 0.0
N462 N 0.09005 0.68702 0.0443 0.0
C463 C 0.00242 0.64221 0.10298 0.0
C464 C 0.0643 0.61752 0.11848 0.0
C465 C 0.92526 0.73535 0.97522 0.0
C466 C 0.88722 0.53881 0.88751 0.0
C467 C 0.87743 0.69968 0.87936 0.0
C468 C 0.80176 0.61332 0.86795 0.0
C469 C 0.80724 0.53258 0.87175 0.0
N470 N 0.95822 0.70745 0.89437 0.0
C471 C 0.96124 0.62609 0.89878 0.0
Co472 Co 0.37748 0.11609 0.31727 0.0
Co473 Co 0.22795 0.0706 0.24435 0.0
O474 O 0.3535 0.12834 0.26468 0.0
C475 C 0.47281 0.01044 0.30748 0.0
O476 O 0.40163 0.94179 0.32574 0.0
C477 C 0.36131 0.18409 0.17907 0.0
O478 O 0.43787 0.20488 0.19814 0.0
O479 O 0.21187 0.16609 0.27691 0.0
O480 O 0.27661 0.15596 0.33295 0.0
H481 H 0.88344 0.85034 0.24448 0.0
H482 H 0.56211 0.25196 0.26407 0.0
O483 O 0.47251 0.08474 0.29874 0.0
H484 H 0.49533 0.42806 0.3976 0.0
H485 H 0.61344 0.17374 0.41869 0.0
H486 H 0.279 0.99281 0.38483 0.0
H487 H 0.40308 0.2518 0.37557 0.0
H488 H 0.55835 0.18052 0.35457 0.0
O489 O 0.28264 0.15498 0.1968 0.0
H490 H 0.02669 0.96645 0.27675 0.0
H491 H 0.15329 0.04233 0.16592 0.0
H492 H 0.33544 0.95501 0.44422 0.0
H493 H 0.70121 0.44549 0.26254 0.0
H494 H 0.49938 0.06492 0.4656 0.0
H495 H 0.63658 0.50153 0.33043 0.0
O496 O 0.2728 0.97213 0.31753 0.0
H497 H 0.41052 0.92062 0.19198 0.0
H498 H 0.09749 0.86628 0.22371 0.0
H499 H 0.11405 0.73878 0.1986 0.0
H500 H 0.27155 0.76491 0.18182 0.0
H501 H 0.3932 0.04965 0.21671 0.0
H502 H -0.00152 0.95904 0.13841 0.0
H503 H 0.86093 0.86663 0.17801 0.0
O504 O 0.16677 0.98249 0.28671 0.0
C505 C 0.22473 0.18232 0.31369 0.0
C506 C 0.94033 0.90368 0.22883 0.0
C507 C 0.00561 0.96607 0.16861 0.0
N508 N 0.10312 0.01783 0.22355 0.0
C509 C 0.02509 0.96511 0.24588 0.0
C510 C 0.09366 0.01479 0.18483 0.0
C511 C 0.9283 0.91087 0.19073 0.0
C512 C 0.56117 0.29665 0.2865 0.0
N513 N 0.47974 0.25187 0.31941 0.0
C514 C 0.64797 0.41932 0.28524 0.0
C515 C 0.61413 0.50156 0.34568 0.0
C516 C 0.51792 0.41315 0.37079 0.0
C517 C 0.45953 0.29744 0.35651 0.0
C518 C 0.53922 0.1357 0.41223 0.0
C519 C 0.35132 0.0336 0.39272 0.0
C520 C 0.50697 0.14423 0.37668 0.0
N521 N 0.41281 0.10181 0.36883 0.0
C522 C 0.38251 0.01437 0.42688 0.0
C523 C 0.47529 0.07216 0.43808 0.0
C524 C 0.19017 0.9305 0.30294 0.0
C525 C 0.34164 0.9107 0.19731 0.0
C526 C 0.16655 0.88277 0.21483 0.0
C527 C 0.17539 0.8079 0.20138 0.0
C528 C 0.26352 0.82241 0.19208 0.0
N529 N 0.24311 0.97156 0.21869 0.0
C530 C 0.33047 0.98439 0.21088 0.0
Co531 Co 0.25634 0.36042 0.66441 0.0
Co532 Co 0.181 0.22718 0.58382 0.0
O533 O 0.24043 0.34824 0.6077 0.0
C534 C 0.44193 0.45284 0.6306 0.0
O535 O 0.42571 0.37189 0.61734 0.0
C536 C 0.15364 0.34414 0.51964 0.0
O537 O 0.18747 0.42034 0.54065 0.0
O538 O 0.05855 0.205 0.61488 0.0
O539 O 0.11377 0.25843 0.67421 0.0
H540 H 0.03315 0.93823 0.62861 0.0
H541 H 0.32095 0.54418 0.61241 0.0
O542 O 0.3855 0.45804 0.6534 0.0
H543 H 0.03937 0.47322 0.73077 0.0
H544 H 0.39324 0.57917 0.77559 0.0
H545 H 0.24671 0.25276 0.73382 0.0
H546 H 0.12318 0.37822 0.715 0.0
H547 H 0.36461 0.53695 0.70734 0.0
O548 O 0.13959 0.26721 0.5349 0.0
H549 H 0.05005 0.07204 0.61897 0.0
H550 H 0.20401 0.11025 0.51691 0.0
H551 H 0.30164 0.29289 0.79989 0.0
H552 H 0.27255 0.68122 0.60447 0.0
H553 H 0.36354 0.45853 0.82258 0.0
H554 H 0.1336 0.6223 0.6664 0.0
O555 O 0.29672 0.25515 0.6709 0.0
H556 H 0.4391 0.39785 0.48426 0.0
H557 H 0.32566 0.15907 0.5852 0.0
H558 H 0.46731 0.19673 0.55098 0.0
H559 H 0.5223 0.31119 0.49741 0.0
H560 H 0.31388 0.37854 0.52718 0.0
H561 H 0.15067 0.93314 0.52382 0.0
H562 H 0.06783 0.84816 0.57607 0.0
O563 O 0.21781 0.16565 0.62435 0.0
C564 C 0.0422 0.21091 0.65138 0.0
C565 C 0.05729 0.96238 0.60058 0.0
C566 C 0.12808 0.96993 0.5413 0.0
N567 N 0.12091 0.10203 0.56529 0.0
C568 C 0.06766 0.04661 0.59429 0.0
C569 C 0.15652 0.06626 0.53907 0.0
C570 C 0.07973 0.91846 0.57261 0.0
C571 C 0.27005 0.54335 0.63228 0.0
N572 N 0.22007 0.4592 0.6633 0.0
C573 C 0.24075 0.63279 0.62807 0.0
C574 C 0.1054 0.59802 0.68059 0.0
C575 C 0.08387 0.49684 0.7058 0.0
C576 C 0.14164 0.43635 0.69583 0.0
C577 C 0.36073 0.50722 0.7667 0.0
C578 C 0.27564 0.32292 0.74336 0.0
C579 C 0.33865 0.48198 0.72854 0.0
N580 N 0.28727 0.3897 0.71799 0.0
C581 C 0.30601 0.34621 0.78102 0.0
C582 C 0.34346 0.43844 0.79326 0.0
C583 C 0.26758 0.17685 0.65277 0.0
C584 C 0.41487 0.34638 0.50708 0.0
C585 C 0.3488 0.21292 0.56412 0.0
C586 C 0.43018 0.23299 0.54396 0.0
C587 C 0.46138 0.29761 0.51425 0.0
N588 N 0.30049 0.25898 0.55662 0.0
C589 C 0.33872 0.33051 0.53023 0.0
Co590 Co 0.90777 0.25084 0.00719 0.0
Co591 Co 0.97701 0.20067 0.9209 0.0
O592 O 0.90925 0.24915 0.94905 0.0
C593 C 0.00228 0.44434 0.98185 0.0
O594 O 0.06745 0.43573 0.96381 0.0
C595 C 0.83785 0.17531 0.85129 0.0
O596 O 0.79676 0.21501 0.86925 0.0
O597 O 0.88676 0.07391 0.95066 0.0
O598 O 0.86608 0.11114 0.01083 0.0
H599 H 0.14272 0.05606 0.95148 0.0
H600 H 0.80988 0.34484 0.95884 0.0
O601 O 0.9413 0.37995 0.00225 0.0
H602 H 0.55549 0.02873 0.05587 0.0
H603 H 0.94242 0.44377 0.12243 0.0
H604 H 0.82232 0.12247 0.08068 0.0
H605 H 0.72717 0.08628 0.03929 0.0
H606 H 0.00117 0.41312 0.06291 0.0
O607 O 0.89448 0.15725 0.87037 0.0
H608 H 0.02683 0.08358 0.9554 0.0
H609 H 0.09492 0.22141 0.84835 0.0
H610 H 0.76316 0.15062 0.13924 0.0
H611 H 0.62867 0.3127 0.94683 0.0
H612 H 0.81989 0.31509 0.15978 0.0
H613 H 0.52943 0.15064 -0.00305 0.0
O614 O 0.05042 0.28411 0.01498 0.0
H615 H 0.03387 0.49505 0.85243 0.0
H616 H 0.18761 0.33517 0.90936 0.0
H617 H 0.28395 0.48808 0.87888 0.0
H618 H 0.20727 0.56876 0.84892 0.0
H619 H 0.9414 0.3445 0.88549 0.0
H620 H 0.22361 0.17801 0.84177 0.0
H621 H 0.2456 0.08975 0.89172 0.0
O622 O 0.07939 0.24606 0.95964 0.0
C623 C 0.85387 0.04885 0.98562 0.0
C624 C 0.13389 0.08273 0.926 0.0
C625 C 0.17335 0.15252 0.86465 0.0
N626 N 0.04809 0.14881 0.90071 0.0
C627 C 0.06295 0.10026 0.92833 0.0
C628 C 0.1026 0.17654 0.86871 0.0
C629 C 0.18831 0.10395 0.89345 0.0
C630 C 0.75329 0.28846 0.97477 0.0
N631 N 0.77404 0.22175 0.00288 0.0
C632 C 0.6369 0.2678 0.96711 0.0
C633 C 0.51792 0.11643 0.00898 0.0
C634 C 0.58475 0.0789 0.03331 0.0
C635 C 0.70416 0.13105 0.02824 0.0
C636 C 0.91539 0.37326 0.1127 0.0
C637 C 0.84788 0.19308 0.08805 0.0
C638 C 0.9461 0.35436 0.0783 0.0
N639 N 0.90379 0.26504 0.06373 0.0
C640 C 0.81454 0.209 0.12236 0.0
C641 C 0.84623 0.3003 0.13396 0.0
C642 C 0.10916 0.27721 -0.00782 0.0
C643 C 0.06797 0.45888 0.86393 0.0
C644 C 0.1526 0.36737 0.89593 0.0
C645 C 0.20813 0.4552 0.87883 0.0
C646 C 0.16523 0.50057 0.86219 0.0
N647 N 0.05638 0.32351 0.89576 0.0
C648 C 0.015 0.3712 0.88155 0.0
Co649 Co 0.65575 0.91192 0.3344 0.0
Co650 Co 0.7916 0.00174 0.25078 0.0
O651 O 0.67285 0.91807 0.27736 0.0
C652 C 0.56031 0.01068 0.3076 0.0
O653 O 0.63961 0.08457 0.29742 0.0
C654 C 0.68624 0.85333 0.18135 0.0
O655 O 0.60832 0.80287 0.20097 0.0
O656 O 0.84123 0.92688 0.28255 0.0
O657 O 0.7591 0.87744 0.33921 0.0
H658 H 0.14201 0.23339 0.24579 0.0
H659 H 0.46085 0.80113 0.28515 0.0
O660 O 0.55861 0.94304 0.32494 0.0
H661 H 0.53459 0.5707 0.39125 0.0
H662 H 0.45544 0.89059 0.44758 0.0
H663 H 0.72692 0.86653 0.40684 0.0
H664 H 0.64272 0.74368 0.37233 0.0
H665 H 0.52893 0.95318 0.38651 0.0
O666 O 0.75772 0.92137 0.19896 0.0
H667 H 0.99604 0.10124 0.2748 0.0
H668 H 0.84589 0.10049 0.17639 0.0
H669 H 0.64947 0.79632 0.46809 0.0
H670 H 0.31318 0.61667 0.27804 0.0
H671 H 0.51166 0.80833 0.48869 0.0
H672 H 0.37852 0.52938 0.33302 0.0
O673 O 0.7609 0.05084 0.34484 0.0
H674 H 0.54862 0.03938 0.17562 0.0
H675 H 0.83411 0.20337 0.25273 0.0
H676 H 0.76048 0.28941 0.2293 0.0
H677 H 0.61681 0.20804 0.18948 0.0
H678 H 0.61581 0.95177 0.20532 0.0
H679 H 0.9893 0.23576 0.15003 0.0
H680 H 0.1403 0.29401 0.18313 0.0
O681 O 0.84395 0.09391 0.29191 0.0
C682 C 0.82468 0.88463 0.31628 0.0
C683 C 0.078 0.19819 0.23013 0.0
C684 C 0.9918 0.20363 0.17672 0.0
N685 N 0.91183 0.08839 0.2264 0.0
C686 C 0.99469 0.12509 0.24605 0.0
C687 C 0.91027 0.12808 0.19232 0.0
C688 C 0.07677 0.23579 0.19493 0.0
C689 C 0.46231 0.74818 0.3029 0.0
N690 N 0.55245 0.77627 0.33049 0.0
C691 C 0.36603 0.62978 0.29914 0.0
C692 C 0.40303 0.52168 0.34569 0.0
C693 C 0.50979 0.59529 0.36815 0.0
C694 C 0.57572 0.71359 0.35897 0.0
C695 C 0.51487 0.88439 0.43869 0.0
C696 C 0.66814 0.87229 0.41537 0.0
C697 C 0.55735 0.91867 0.40315 0.0
N698 N 0.6283 0.90477 0.39005 0.0
C699 C 0.62458 0.83286 0.45043 0.0
C700 C 0.54674 0.83832 0.46187 0.0
C701 C 0.8324 0.11197 0.32538 0.0
C702 C 0.61043 0.07487 0.19327 0.0
C703 C 0.77225 0.16582 0.2359 0.0
C704 C 0.72986 0.21554 0.2228 0.0
C705 C 0.64915 0.16993 0.20074 0.0
N706 N 0.73438 0.07185 0.22867 0.0
C707 C 0.65193 0.02618 0.20873 0.0
loop_
_geom_bond_atom_site_label_1
_geom_bond_atom_site_label_2
_geom_bond_distance
_geom_bond_site_symmetry_2
_ccdc_geom_bond_type
Co0 O2 2.128 1_556 S
Co0 O8 2.076 . S
Co0 O11 2.091 1_556 S
Co0 O24 2.099 . S
Co0 N41 2.150 1_556 S
Co0 N49 2.229 . S
Co1 O2 2.160 . S
Co1 O7 2.058 . S
Co1 O17 2.057 . S
Co1 O32 2.037 . S
Co1 N36 2.145 . S
Co1 N57 2.257 . S
O2 Co0 2.128 1_554 S
O2 Co1 2.160 . S
C3 O4 1.278 . S
C3 O11 1.224 . S
O4 C3 1.278 . S
C5 O6 1.245 . S
C5 O17 1.232 . S
O6 C5 1.245 . S
O7 Co1 2.058 . S
O7 C33 1.269 . S
O8 Co0 2.076 . S
O8 C33 1.257 1_556 S
H9 C34 0.930 . S
H10 C40 0.930 . S
O11 Co0 2.091 1_554 S
O11 C3 1.224 . S
H12 C44 0.929 . S
H13 C46 0.930 . S
H14 C47 0.930 . S
H15 C45 0.929 . S
H16 C48 0.928 . S
O17 Co1 2.057 . S
O17 C5 1.232 . S
H18 C37 0.929 . S
H19 C38 0.929 . S
H20 C50 0.931 . S
H21 C42 0.929 . S
H22 C51 0.930 . S
H23 C43 0.934 . S
O24 Co0 2.099 . S
O24 C52 1.214 1_556 S
H25 C53 0.929 . S
H26 C54 0.929 . S
H27 C55 0.930 . S
H28 C56 0.929 . S
H29 C58 0.930 . S
H30 C35 0.930 . S
H31 C39 0.930 . S
O32 Co1 2.037 . S
O32 C52 1.234 . S
C33 O7 1.269 . S
C33 O8 1.257 1_554 S
C34 H9 0.930 . S
C34 C37 1.388 1_565 S
C34 C39 1.418 . S
C35 H30 0.930 . S
C35 C38 1.404 1_665 S
C35 C39 1.353 . S
N36 Co1 2.145 . S
N36 C37 1.397 1_455 S
N36 C38 1.334 . S
C37 H18 0.929 . S
C37 C34 1.388 1_545 S
C37 N36 1.397 1_655 S
C38 H19 0.929 . S
C38 C35 1.404 1_445 S
C38 N36 1.334 . S
C39 H31 0.930 . S
C39 C34 1.418 . S
C39 C35 1.353 . S
C40 H10 0.930 . S
C40 N41 1.330 . S
C40 C42 1.446 . S
N41 Co0 2.150 1_554 S
N41 C40 1.330 . S
N41 C45 1.418 1_554 S
C42 H21 0.929 . S
C42 C40 1.446 . S
C42 C43 1.312 1_554 S
C43 H23 0.934 . S
C43 C42 1.312 1_556 S
C43 C44 1.284 . S
C44 H12 0.929 . S
C44 C43 1.284 . S
C44 C45 1.251 . S
C45 H15 0.929 . S
C45 N41 1.418 1_556 S
C45 C44 1.251 . S
C46 H13 0.930 . S
C46 C48 1.406 . S
C46 C51 1.261 . S
C47 H14 0.930 . S
C47 N49 1.325 . S
C47 C50 1.357 . S
C48 H16 0.928 . S
C48 C46 1.406 . S
C48 N49 1.261 . S
N49 Co0 2.229 . S
N49 C47 1.325 . S
N49 C48 1.261 . S
C50 H20 0.931 . S
C50 C47 1.357 . S
C50 C51 1.312 . S
C51 H22 0.930 . S
C51 C46 1.261 . S
C51 C50 1.312 . S
C52 O24 1.214 1_554 S
C52 O32 1.234 . S
C53 H25 0.929 . S
C53 C56 1.391 . S
C53 C58 1.391 . S
C54 H26 0.929 . S
C54 C55 1.390 . S
C54 N57 1.391 . S
C55 H27 0.930 . S
C55 C54 1.390 . S
C55 C56 1.392 . S
C56 H28 0.929 . S
C56 C53 1.391 . S
C56 C55 1.392 . S
N57 Co1 2.257 . S
N57 C54 1.391 . S
N57 C58 1.388 . S
C58 H29 0.930 . S
C58 C53 1.391 . S
C58 N57 1.388 . S
Co59 O61 2.143 . S
Co59 O67 2.074 . S
Co59 O70 2.093 . S
Co59 O83 2.097 1_455 S
Co59 N100 2.151 . S
Co59 N108 2.214 . S
Co60 O61 2.160 . S
Co60 O66 2.058 . S
Co60 O76 2.057 . S
Co60 O91 2.037 1_455 S
Co60 N95 2.145 1_455 S
Co60 N116 2.257 1_455 S
O61 Co59 2.143 . S
O61 Co60 2.160 . S
C62 O63 1.278 1_455 S
C62 O70 1.224 . S
O63 C62 1.278 1_655 S
C64 O65 1.245 . S
C64 O76 1.232 . S
O65 C64 1.245 . S
O66 Co60 2.058 . S
O66 C92 1.269 . S
O67 Co59 2.074 . S
O67 C92 1.257 . S
H68 C93 0.930 . S
H69 C99 0.930 . S
O70 Co59 2.093 . S
O70 C62 1.224 . S
H71 C103 0.929 . S
H72 C105 0.930 . S
H73 C106 0.930 . S
H74 C104 0.929 . S
H75 C107 0.928 . S
O76 Co60 2.057 . S
O76 C64 1.232 . S
H77 C96 0.929 . S
H78 C97 0.929 . S
H79 C109 0.931 . S
H80 C101 0.929 . S
H81 C110 0.930 . S
H82 C102 0.931 . S
O83 Co59 2.097 1_655 S
O83 C111 1.214 . S
H84 C112 0.929 . S
H85 C113 0.929 . S
H86 C114 0.930 . S
H87 C115 0.929 . S
H88 C117 0.930 . S
H89 C94 0.930 . S
H90 C98 0.930 . S
O91 Co60 2.037 1_655 S
O91 C111 1.234 . S
C92 O66 1.269 . S
C92 O67 1.257 . S
C93 H68 0.930 . S
C93 C96 1.388 . S
C93 C98 1.418 . S
C94 H89 0.930 . S
C94 C97 1.404 1_665 S
C94 C98 1.353 . S
N95 Co60 2.145 1_655 S
N95 C96 1.397 1_545 S
N95 C97 1.334 1_655 S
C96 H77 0.929 . S
C96 C93 1.388 . S
C96 N95 1.397 1_565 S
C97 H78 0.929 . S
C97 C94 1.404 1_445 S
C97 N95 1.334 1_455 S
C98 H90 0.930 . S
C98 C93 1.418 . S
C98 C94 1.353 . S
C99 H69 0.930 . S
C99 N100 1.330 . S
C99 C101 1.446 . S
N100 Co59 2.151 . S
N100 C99 1.330 . S
N100 C104 1.418 . S
C101 H80 0.929 . S
C101 C99 1.446 . S
C101 C102 1.332 . S
C102 H82 0.931 . S
C102 C101 1.332 . S
C102 C103 1.267 . S
C103 H71 0.929 . S
C103 C102 1.267 . S
C103 C104 1.251 . S
C104 H74 0.929 . S
C104 N100 1.418 . S
C104 C103 1.251 . S
C105 H72 0.930 . S
C105 C107 1.406 . S
C105 C110 1.261 . S
C106 H73 0.930 . S
C106 N108 1.325 . S
C106 C109 1.357 . S
C107 H75 0.928 . S
C107 C105 1.406 . S
C107 N108 1.261 . S
N108 Co59 2.214 . S
N108 C106 1.325 . S
N108 C107 1.261 . S
C109 H79 0.931 . S
C109 C106 1.357 . S
C109 C110 1.312 . S
C110 H81 0.930 . S
C110 C105 1.261 . S
C110 C109 1.312 . S
C111 O83 1.214 . S
C111 O91 1.234 . S
C112 H84 0.929 . S
C112 C115 1.391 . S
C112 C117 1.391 . S
C113 H85 0.929 . S
C113 C114 1.390 . S
C113 N116 1.391 . S
C114 H86 0.930 . S
C114 C113 1.390 . S
C114 C115 1.392 . S
C115 H87 0.929 . S
C115 C112 1.391 . S
C115 C114 1.392 . S
N116 Co60 2.257 1_655 S
N116 C113 1.391 . S
N116 C117 1.388 . S
C117 H88 0.930 . S
C117 C112 1.391 . S
C117 N116 1.388 . S
Co118 O120 2.143 . S
Co118 O126 2.074 . S
Co118 O129 2.093 . S
Co118 O142 2.097 1_545 S
Co118 N159 2.151 . S
Co118 N167 2.214 . S
Co119 O120 2.160 . S
Co119 O125 2.058 . S
Co119 O135 2.057 . S
Co119 O150 2.037 1_545 S
Co119 N154 2.145 1_545 S
Co119 N175 2.257 1_545 S
O120 Co118 2.143 . S
O120 Co119 2.160 . S
C121 O122 1.278 1_545 S
C121 O129 1.224 . S
O122 C121 1.278 1_565 S
C123 O124 1.245 . S
C123 O135 1.232 . S
O124 C123 1.245 . S
O125 Co119 2.058 . S
O125 C151 1.269 . S
O126 Co118 2.074 . S
O126 C151 1.257 . S
H127 C152 0.930 . S
H128 C158 0.930 . S
O129 Co118 2.093 . S
O129 C121 1.224 . S
H130 C162 0.929 . S
H131 C164 0.930 . S
H132 C165 0.930 . S
H133 C163 0.929 . S
H134 C166 0.928 . S
O135 Co119 2.057 . S
O135 C123 1.232 . S
H136 C155 0.929 . S
H137 C156 0.929 . S
H138 C168 0.931 . S
H139 C160 0.929 . S
H140 C169 0.930 . S
H141 C161 0.931 . S
O142 Co118 2.097 1_565 S
O142 C170 1.214 . S
H143 C171 0.929 . S
H144 C172 0.929 . S
H145 C173 0.930 . S
H146 C174 0.929 . S
H147 C176 0.930 . S
H148 C153 0.930 . S
H149 C157 0.930 . S
O150 Co119 2.037 1_565 S
O150 C170 1.234 . S
C151 O125 1.269 . S
C151 O126 1.257 . S
C152 H127 0.930 . S
C152 C155 1.388 1_455 S
C152 C157 1.418 . S
C153 H148 0.930 . S
C153 C156 1.404 1_465 S
C153 C157 1.353 . S
N154 Co119 2.145 1_565 S
N154 C155 1.397 . S
N154 C156 1.334 1_565 S
C155 H136 0.929 . S
C155 C152 1.388 1_655 S
C155 N154 1.397 . S
C156 H137 0.929 . S
C156 C153 1.404 1_645 S
C156 N154 1.334 1_545 S
C157 H149 0.930 . S
C157 C152 1.418 . S
C157 C153 1.353 . S
C158 H128 0.930 . S
C158 N159 1.330 . S
C158 C160 1.446 . S
N159 Co118 2.151 . S
N159 C158 1.330 . S
N159 C163 1.418 . S
C160 H139 0.929 . S
C160 C158 1.446 . S
C160 C161 1.332 . S
C161 H141 0.931 . S
C161 C160 1.332 . S
C161 C162 1.267 . S
C162 H130 0.929 . S
C162 C161 1.267 . S
C162 C163 1.251 . S
C163 H133 0.929 . S
C163 N159 1.418 . S
C163 C162 1.251 . S
C164 H131 0.930 . S
C164 C166 1.406 . S
C164 C169 1.261 . S
C165 H132 0.930 . S
C165 N167 1.325 . S
C165 C168 1.357 . S
C166 H134 0.928 . S
C166 C164 1.406 . S
C166 N167 1.261 . S
N167 Co118 2.214 . S
N167 C165 1.325 . S
N167 C166 1.261 . S
C168 H138 0.931 . S
C168 C165 1.357 . S
C168 C169 1.312 . S
C169 H140 0.930 . S
C169 C164 1.261 . S
C169 C168 1.312 . S
C170 O142 1.214 . S
C170 O150 1.234 . S
C171 H143 0.929 . S
C171 C174 1.391 . S
C171 C176 1.391 . S
C172 H144 0.929 . S
C172 C173 1.390 . S
C172 N175 1.391 . S
C173 H145 0.930 . S
C173 C172 1.390 . S
C173 C174 1.392 . S
C174 H146 0.929 . S
C174 C171 1.391 . S
C174 C173 1.392 . S
N175 Co119 2.257 1_565 S
N175 C172 1.391 . S
N175 C176 1.388 . S
C176 H147 0.930 . S
C176 C171 1.391 . S
C176 N175 1.388 . S
Co177 O179 2.128 1_556 S
Co177 O185 2.076 . S
Co177 O188 2.091 1_556 S
Co177 O201 2.099 . S
Co177 N218 2.150 1_556 S
Co177 N226 2.229 . S
Co178 O179 2.160 . S
Co178 O184 2.058 . S
Co178 O194 2.057 . S
Co178 O209 2.037 . S
Co178 N213 2.145 . S
Co178 N234 2.257 . S
O179 Co177 2.128 1_554 S
O179 Co178 2.160 . S
C180 O181 1.278 . S
C180 O188 1.224 . S
O181 C180 1.278 . S
C182 O183 1.245 . S
C182 O194 1.232 . S
O183 C182 1.245 . S
O184 Co178 2.058 . S
O184 C210 1.269 . S
O185 Co177 2.076 . S
O185 C210 1.257 1_556 S
H186 C211 0.930 . S
H187 C217 0.930 . S
O188 Co177 2.091 1_554 S
O188 C180 1.224 . S
H189 C221 0.929 . S
H190 C223 0.930 . S
H191 C224 0.930 . S
H192 C222 0.929 . S
H193 C225 0.928 . S
O194 Co178 2.057 . S
O194 C182 1.232 . S
H195 C214 0.929 . S
H196 C215 0.929 . S
H197 C227 0.931 . S
H198 C219 0.929 . S
H199 C228 0.930 . S
H200 C220 0.934 . S
O201 Co177 2.099 . S
O201 C229 1.214 1_556 S
H202 C230 0.929 . S
H203 C231 0.929 . S
H204 C232 0.930 . S
H205 C233 0.929 . S
H206 C235 0.930 . S
H207 C212 0.930 . S
H208 C216 0.930 . S
O209 Co178 2.037 . S
O209 C229 1.234 . S
C210 O184 1.269 . S
C210 O185 1.257 1_554 S
C211 H186 0.930 . S
C211 C214 1.388 1_545 S
C211 C216 1.418 . S
C212 H207 0.930 . S
C212 C215 1.404 1_445 S
C212 C216 1.353 . S
N213 Co178 2.145 . S
N213 C214 1.397 1_655 S
N213 C215 1.334 . S
C214 H195 0.929 . S
C214 C211 1.388 1_565 S
C214 N213 1.397 1_455 S
C215 H196 0.929 . S
C215 C212 1.404 1_665 S
C215 N213 1.334 . S
C216 H208 0.930 . S
C216 C211 1.418 . S
C216 C212 1.353 . S
C217 H187 0.930 . S
C217 N218 1.330 . S
C217 C219 1.446 . S
N218 Co177 2.150 1_554 S
N218 C217 1.330 . S
N218 C222 1.418 1_554 S
C219 H198 0.929 . S
C219 C217 1.446 . S
C219 C220 1.312 1_554 S
C220 H200 0.934 . S
C220 C219 1.312 1_556 S
C220 C221 1.284 . S
C221 H189 0.929 . S
C221 C220 1.284 . S
C221 C222 1.251 . S
C222 H192 0.929 . S
C222 N218 1.418 1_556 S
C222 C221 1.251 . S
C223 H190 0.930 . S
C223 C225 1.406 . S
C223 C228 1.261 . S
C224 H191 0.930 . S
C224 N226 1.325 . S
C224 C227 1.357 . S
C225 H193 0.928 . S
C225 C223 1.406 . S
C225 N226 1.261 . S
N226 Co177 2.229 . S
N226 C224 1.325 . S
N226 C225 1.261 . S
C227 H197 0.931 . S
C227 C224 1.357 . S
C227 C228 1.312 . S
C228 H199 0.930 . S
C228 C223 1.261 . S
C228 C227 1.312 . S
C229 O201 1.214 1_554 S
C229 O209 1.234 . S
C230 H202 0.929 . S
C230 C233 1.391 . S
C230 C235 1.391 . S
C231 H203 0.929 . S
C231 C232 1.390 . S
C231 N234 1.391 . S
C232 H204 0.930 . S
C232 C231 1.390 . S
C232 C233 1.392 . S
C233 H205 0.929 . S
C233 C230 1.391 . S
C233 C232 1.392 . S
N234 Co178 2.257 . S
N234 C231 1.391 . S
N234 C235 1.388 . S
C235 H206 0.930 . S
C235 C230 1.391 . S
C235 N234 1.388 . S
Co236 O238 2.143 . S
Co236 O244 2.074 . S
Co236 O247 2.093 . S
Co236 O260 2.097 1_655 S
Co236 N277 2.151 . S
Co236 N285 2.214 . S
Co237 O238 2.160 . S
Co237 O243 2.058 . S
Co237 O253 2.057 . S
Co237 O268 2.037 1_655 S
Co237 N272 2.145 1_655 S
Co237 N293 2.257 1_655 S
O238 Co236 2.143 . S
O238 Co237 2.160 . S
C239 O240 1.278 1_655 S
C239 O247 1.224 . S
O240 C239 1.278 1_455 S
C241 O242 1.245 . S
C241 O253 1.232 . S
O242 C241 1.245 . S
O243 Co237 2.058 . S
O243 C269 1.269 . S
O244 Co236 2.074 . S
O244 C269 1.257 . S
H245 C270 0.930 . S
H246 C276 0.930 . S
O247 Co236 2.093 . S
O247 C239 1.224 . S
H248 C280 0.929 . S
H249 C282 0.930 . S
H250 C283 0.930 . S
H251 C281 0.929 . S
H252 C284 0.928 . S
O253 Co237 2.057 . S
O253 C241 1.232 . S
H254 C273 0.929 . S
H255 C274 0.929 . S
H256 C286 0.931 . S
H257 C278 0.929 . S
H258 C287 0.930 . S
H259 C279 0.931 . S
O260 Co236 2.097 1_455 S
O260 C288 1.214 . S
H261 C289 0.929 . S
H262 C290 0.929 . S
H263 C291 0.930 . S
H264 C292 0.929 . S
H265 C294 0.930 . S
H266 C271 0.930 . S
H267 C275 0.930 . S
O268 Co237 2.037 1_455 S
O268 C288 1.234 . S
C269 O243 1.269 . S
C269 O244 1.257 . S
C270 H245 0.930 . S
C270 C273 1.388 . S
C270 C275 1.418 . S
C271 H266 0.930 . S
C271 C274 1.404 1_445 S
C271 C275 1.353 . S
N272 Co237 2.145 1_455 S
N272 C273 1.397 1_565 S
N272 C274 1.334 1_455 S
C273 H254 0.929 . S
C273 C270 1.388 . S
C273 N272 1.397 1_545 S
C274 H255 0.929 . S
C274 C271 1.404 1_665 S
C274 N272 1.334 1_655 S
C275 H267 0.930 . S
C275 C270 1.418 . S
C275 C271 1.353 . S
C276 H246 0.930 . S
C276 N277 1.330 . S
C276 C278 1.446 . S
N277 Co236 2.151 . S
N277 C276 1.330 . S
N277 C281 1.418 . S
C278 H257 0.929 . S
C278 C276 1.446 . S
C278 C279 1.332 . S
C279 H259 0.931 . S
C279 C278 1.332 . S
C279 C280 1.267 . S
C280 H248 0.929 . S
C280 C279 1.267 . S
C280 C281 1.251 . S
C281 H251 0.929 . S
C281 N277 1.418 . S
C281 C280 1.251 . S
C282 H249 0.930 . S
C282 C284 1.406 . S
C282 C287 1.261 . S
C283 H250 0.930 . S
C283 N285 1.325 . S
C283 C286 1.357 . S
C284 H252 0.928 . S
C284 C282 1.406 . S
C284 N285 1.261 . S
N285 Co236 2.214 . S
N285 C283 1.325 . S
N285 C284 1.261 . S
C286 H256 0.931 . S
C286 C283 1.357 . S
C286 C287 1.312 . S
C287 H258 0.930 . S
C287 C282 1.261 . S
C287 C286 1.312 . S
C288 O260 1.214 . S
C288 O268 1.234 . S
C289 H261 0.929 . S
C289 C292 1.391 . S
C289 C294 1.391 . S
C290 H262 0.929 . S
C290 C291 1.390 . S
C290 N293 1.391 . S
C291 H263 0.930 . S
C291 C290 1.390 . S
C291 C292 1.392 . S
C292 H264 0.929 . S
C292 C289 1.391 . S
C292 C291 1.392 . S
N293 Co237 2.257 1_455 S
N293 C290 1.391 . S
N293 C294 1.388 . S
C294 H265 0.930 . S
C294 C289 1.391 . S
C294 N293 1.388 . S
Co295 O297 2.143 . S
Co295 O303 2.074 . S
Co295 O306 2.093 . S
Co295 O319 2.097 1_565 S
Co295 N336 2.151 . S
Co295 N344 2.214 . S
Co296 O297 2.160 . S
Co296 O302 2.058 . S
Co296 O312 2.057 . S
Co296 O327 2.037 1_565 S
Co296 N331 2.145 1_565 S
Co296 N352 2.257 1_565 S
O297 Co295 2.143 . S
O297 Co296 2.160 . S
C298 O299 1.278 1_565 S
C298 O306 1.224 . S
O299 C298 1.278 1_545 S
C300 O301 1.245 . S
C300 O312 1.232 . S
O301 C300 1.245 . S
O302 Co296 2.058 . S
O302 C328 1.269 . S
O303 Co295 2.074 . S
O303 C328 1.257 . S
H304 C329 0.930 . S
H305 C335 0.930 . S
O306 Co295 2.093 . S
O306 C298 1.224 . S
H307 C339 0.929 . S
H308 C341 0.930 . S
H309 C342 0.930 . S
H310 C340 0.929 . S
H311 C343 0.928 . S
O312 Co296 2.057 . S
O312 C300 1.232 . S
H313 C332 0.929 . S
H314 C333 0.929 . S
H315 C345 0.931 . S
H316 C337 0.929 . S
H317 C346 0.930 . S
H318 C338 0.931 . S
O319 Co295 2.097 1_545 S
O319 C347 1.214 . S
H320 C348 0.929 . S
H321 C349 0.929 . S
H322 C350 0.930 . S
H323 C351 0.929 . S
H324 C353 0.930 . S
H325 C330 0.930 . S
H326 C334 0.930 . S
O327 Co296 2.037 1_545 S
O327 C347 1.234 . S
C328 O302 1.269 . S
C328 O303 1.257 . S
C329 H304 0.930 . S
C329 C332 1.388 1_655 S
C329 C334 1.418 . S
C330 H325 0.930 . S
C330 C333 1.404 1_645 S
C330 C334 1.353 . S
N331 Co296 2.145 1_545 S
N331 C332 1.397 . S
N331 C333 1.334 1_545 S
C332 H313 0.929 . S
C332 C329 1.388 1_455 S
C332 N331 1.397 . S
C333 H314 0.929 . S
C333 C330 1.404 1_465 S
C333 N331 1.334 1_565 S
C334 H326 0.930 . S
C334 C329 1.418 . S
C334 C330 1.353 . S
C335 H305 0.930 . S
C335 N336 1.330 . S
C335 C337 1.446 . S
N336 Co295 2.151 . S
N336 C335 1.330 . S
N336 C340 1.418 . S
C337 H316 0.929 . S
C337 C335 1.446 . S
C337 C338 1.332 . S
C338 H318 0.931 . S
C338 C337 1.332 . S
C338 C339 1.267 . S
C339 H307 0.929 . S
C339 C338 1.267 . S
C339 C340 1.251 . S
C340 H310 0.929 . S
C340 N336 1.418 . S
C340 C339 1.251 . S
C341 H308 0.930 . S
C341 C343 1.406 . S
C341 C346 1.261 . S
C342 H309 0.930 . S
C342 N344 1.325 . S
C342 C345 1.357 . S
C343 H311 0.928 . S
C343 C341 1.406 . S
C343 N344 1.261 . S
N344 Co295 2.214 . S
N344 C342 1.325 . S
N344 C343 1.261 . S
C345 H315 0.931 . S
C345 C342 1.357 . S
C345 C346 1.312 . S
C346 H317 0.930 . S
C346 C341 1.261 . S
C346 C345 1.312 . S
C347 O319 1.214 . S
C347 O327 1.234 . S
C348 H320 0.929 . S
C348 C351 1.391 . S
C348 C353 1.391 . S
C349 H321 0.929 . S
C349 C350 1.390 . S
C349 N352 1.391 . S
C350 H322 0.930 . S
C350 C349 1.390 . S
C350 C351 1.392 . S
C351 H323 0.929 . S
C351 C348 1.391 . S
C351 C350 1.392 . S
N352 Co296 2.257 1_545 S
N352 C349 1.391 . S
N352 C353 1.388 . S
C353 H324 0.930 . S
C353 C348 1.391 . S
C353 N352 1.388 . S
Co354 O356 2.143 . S
Co354 O362 2.074 . S
Co354 O365 2.093 . S
Co354 O378 2.097 . S
Co354 N395 2.151 . S
Co354 N403 2.214 . S
Co355 O356 2.160 . S
Co355 O361 2.058 . S
Co355 O371 2.057 . S
Co355 O386 2.037 . S
Co355 N390 2.145 . S
Co355 N411 2.257 . S
O356 Co354 2.143 . S
O356 Co355 2.160 . S
C357 O358 1.278 . S
C357 O365 1.224 . S
O358 C357 1.278 . S
C359 O360 1.245 . S
C359 O371 1.232 . S
O360 C359 1.245 . S
O361 Co355 2.058 . S
O361 C387 1.269 . S
O362 Co354 2.074 . S
O362 C387 1.257 . S
H363 C388 0.930 . S
H364 C394 0.930 . S
O365 Co354 2.093 . S
O365 C357 1.224 . S
H366 C398 0.929 . S
H367 C400 0.930 . S
H368 C401 0.930 . S
H369 C399 0.929 . S
H370 C402 0.928 . S
O371 Co355 2.057 . S
O371 C359 1.232 . S
H372 C391 0.929 . S
H373 C392 0.929 . S
H374 C404 0.931 . S
H375 C396 0.929 . S
H376 C405 0.930 . S
H377 C397 0.931 . S
O378 Co354 2.097 . S
O378 C406 1.214 . S
H379 C407 0.929 . S
H380 C408 0.929 . S
H381 C409 0.930 . S
H382 C410 0.929 . S
H383 C412 0.930 . S
H384 C389 0.930 . S
H385 C393 0.930 . S
O386 Co355 2.037 . S
O386 C406 1.234 . S
C387 O361 1.269 . S
C387 O362 1.257 . S
C388 H363 0.930 . S
C388 C391 1.388 1_455 S
C388 C393 1.418 . S
C389 H384 0.930 . S
C389 C392 1.404 1_445 S
C389 C393 1.353 . S
N390 Co355 2.145 . S
N390 C391 1.397 1_565 S
N390 C392 1.334 . S
C391 H372 0.929 . S
C391 C388 1.388 1_655 S
C391 N390 1.397 1_545 S
C392 H373 0.929 . S
C392 C389 1.404 1_665 S
C392 N390 1.334 . S
C393 H385 0.930 . S
C393 C388 1.418 . S
C393 C389 1.353 . S
C394 H364 0.930 . S
C394 N395 1.330 . S
C394 C396 1.446 . S
N395 Co354 2.151 . S
N395 C394 1.330 . S
N395 C399 1.418 . S
C396 H375 0.929 . S
C396 C394 1.446 . S
C396 C397 1.332 . S
C397 H377 0.931 . S
C397 C396 1.332 . S
C397 C398 1.267 . S
C398 H366 0.929 . S
C398 C397 1.267 . S
C398 C399 1.251 . S
C399 H369 0.929 . S
C399 N395 1.418 . S
C399 C398 1.251 . S
C400 H367 0.930 . S
C400 C402 1.406 . S
C400 C405 1.261 . S
C401 H368 0.930 . S
C401 N403 1.325 . S
C401 C404 1.357 . S
C402 H370 0.928 . S
C402 C400 1.406 . S
C402 N403 1.261 . S
N403 Co354 2.214 . S
N403 C401 1.325 . S
N403 C402 1.261 . S
C404 H374 0.931 . S
C404 C401 1.357 . S
C404 C405 1.312 . S
C405 H376 0.930 . S
C405 C400 1.261 . S
C405 C404 1.312 . S
C406 O378 1.214 . S
C406 O386 1.234 . S
C407 H379 0.929 . S
C407 C410 1.391 . S
C407 C412 1.391 . S
C408 H380 0.929 . S
C408 C409 1.390 . S
C408 N411 1.391 . S
C409 H381 0.930 . S
C409 C408 1.390 . S
C409 C410 1.392 . S
C410 H382 0.929 . S
C410 C407 1.391 . S
C410 C409 1.392 . S
N411 Co355 2.257 . S
N411 C408 1.391 . S
N411 C412 1.388 . S
C412 H383 0.930 . S
C412 C407 1.391 . S
C412 N411 1.388 . S
Co413 O415 2.128 1_554 S
Co413 O421 2.076 . S
Co413 O424 2.091 1_554 S
Co413 O437 2.099 1_455 S
Co413 N454 2.150 1_554 S
Co413 N462 2.228 . S
Co414 O415 2.160 . S
Co414 O420 2.058 . S
Co414 O430 2.057 . S
Co414 O445 2.037 1_455 S
Co414 N449 2.145 1_455 S
Co414 N470 2.257 1_455 S
O415 Co413 2.128 1_556 S
O415 Co414 2.160 . S
C416 O417 1.278 1_455 S
C416 O424 1.224 . S
O417 C416 1.278 1_655 S
C418 O419 1.245 . S
C418 O430 1.232 . S
O419 C418 1.245 . S
O420 Co414 2.058 . S
O420 C446 1.269 . S
O421 Co413 2.076 . S
O421 C446 1.257 1_554 S
H422 C447 0.930 . S
H423 C453 0.930 . S
O424 Co413 2.091 1_556 S
O424 C416 1.224 . S
H425 C457 0.929 . S
H426 C459 0.930 . S
H427 C460 0.930 . S
H428 C458 0.929 . S
H429 C461 0.928 . S
O430 Co414 2.057 . S
O430 C418 1.232 . S
H431 C450 0.929 . S
H432 C451 0.929 . S
H433 C463 0.931 . S
H434 C455 0.929 . S
H435 C464 0.930 . S
H436 C456 0.934 . S
O437 Co413 2.099 1_655 S
O437 C465 1.214 1_554 S
H438 C466 0.929 . S
H439 C467 0.929 . S
H440 C468 0.930 . S
H441 C469 0.929 . S
H442 C471 0.930 . S
H443 C448 0.930 . S
H444 C452 0.930 . S
O445 Co414 2.037 1_655 S
O445 C465 1.234 . S
C446 O420 1.269 . S
C446 O421 1.257 1_556 S
C447 H422 0.930 . S
C447 C450 1.388 1_545 S
C447 C452 1.418 . S
C448 H443 0.930 . S
C448 C451 1.404 1_645 S
C448 C452 1.353 . S
N449 Co414 2.145 1_655 S
N449 C450 1.397 . S
N449 C451 1.334 1_655 S
C450 H431 0.929 . S
C450 C447 1.388 1_565 S
C450 N449 1.397 . S
C451 H432 0.929 . S
C451 C448 1.404 1_465 S
C451 N449 1.334 1_455 S
C452 H444 0.930 . S
C452 C447 1.418 . S
C452 C448 1.353 . S
C453 H423 0.930 . S
C453 N454 1.330 . S
C453 C455 1.446 . S
N454 Co413 2.150 1_556 S
N454 C453 1.330 . S
N454 C458 1.418 1_556 S
C455 H434 0.929 . S
C455 C453 1.446 . S
C455 C456 1.312 1_556 S
C456 H436 0.934 . S
C456 C455 1.312 1_554 S
C456 C457 1.284 . S
C457 H425 0.929 . S
C457 C456 1.284 . S
C457 C458 1.251 . S
C458 H428 0.929 . S
C458 N454 1.418 1_554 S
C458 C457 1.251 . S
C459 H426 0.930 . S
C459 C461 1.406 . S
C459 C464 1.261 . S
C460 H427 0.930 . S
C460 N462 1.325 . S
C460 C463 1.357 . S
C461 H429 0.928 . S
C461 C459 1.406 . S
C461 N462 1.261 . S
N462 Co413 2.228 . S
N462 C460 1.325 . S
N462 C461 1.261 . S
C463 H433 0.931 . S
C463 C460 1.357 . S
C463 C464 1.312 . S
C464 H435 0.930 . S
C464 C459 1.261 . S
C464 C463 1.312 . S
C465 O437 1.214 1_556 S
C465 O445 1.234 . S
C466 H438 0.929 . S
C466 C469 1.391 . S
C466 C471 1.391 . S
C467 H439 0.929 . S
C467 C468 1.390 . S
C467 N470 1.391 . S
C468 H440 0.930 . S
C468 C467 1.390 . S
C468 C469 1.392 . S
C469 H441 0.929 . S
C469 C466 1.391 . S
C469 C468 1.392 . S
N470 Co414 2.257 1_655 S
N470 C467 1.391 . S
N470 C471 1.388 . S
C471 H442 0.930 . S
C471 C466 1.391 . S
C471 N470 1.388 . S
Co472 O474 2.143 . S
Co472 O480 2.074 . S
Co472 O483 2.093 . S
Co472 O496 2.097 1_545 S
Co472 N513 2.151 . S
Co472 N521 2.214 . S
Co473 O474 2.160 . S
Co473 O479 2.058 . S
Co473 O489 2.057 . S
Co473 O504 2.037 1_545 S
Co473 N508 2.145 1_545 S
Co473 N529 2.257 1_545 S
O474 Co472 2.143 . S
O474 Co473 2.160 . S
C475 O476 1.278 1_545 S
C475 O483 1.224 . S
O476 C475 1.278 1_565 S
C477 O478 1.245 . S
C477 O489 1.232 . S
O478 C477 1.245 . S
O479 Co473 2.058 . S
O479 C505 1.269 . S
O480 Co472 2.074 . S
O480 C505 1.257 . S
H481 C506 0.930 . S
H482 C512 0.930 . S
O483 Co472 2.093 . S
O483 C475 1.224 . S
H484 C516 0.929 . S
H485 C518 0.930 . S
H486 C519 0.930 . S
H487 C517 0.929 . S
H488 C520 0.928 . S
O489 Co473 2.057 . S
O489 C477 1.232 . S
H490 C509 0.929 . S
H491 C510 0.929 . S
H492 C522 0.931 . S
H493 C514 0.929 . S
H494 C523 0.930 . S
H495 C515 0.931 . S
O496 Co472 2.097 1_565 S
O496 C524 1.214 . S
H497 C525 0.929 . S
H498 C526 0.929 . S
H499 C527 0.930 . S
H500 C528 0.929 . S
H501 C530 0.930 . S
H502 C507 0.930 . S
H503 C511 0.930 . S
O504 Co473 2.037 1_565 S
O504 C524 1.234 . S
C505 O479 1.269 . S
C505 O480 1.257 . S
C506 H481 0.930 . S
C506 C509 1.388 . S
C506 C511 1.418 . S
C507 H502 0.930 . S
C507 C510 1.404 1_665 S
C507 C511 1.353 . S
N508 Co473 2.145 1_565 S
N508 C509 1.397 1_455 S
N508 C510 1.334 1_565 S
C509 H490 0.929 . S
C509 C506 1.388 . S
C509 N508 1.397 1_655 S
C510 H491 0.929 . S
C510 C507 1.404 1_445 S
C510 N508 1.334 1_545 S
C511 H503 0.930 . S
C511 C506 1.418 . S
C511 C507 1.353 . S
C512 H482 0.930 . S
C512 N513 1.330 . S
C512 C514 1.446 . S
N513 Co472 2.151 . S
N513 C512 1.330 . S
N513 C517 1.418 . S
C514 H493 0.929 . S
C514 C512 1.446 . S
C514 C515 1.332 . S
C515 H495 0.931 . S
C515 C514 1.332 . S
C515 C516 1.267 . S
C516 H484 0.929 . S
C516 C515 1.267 . S
C516 C517 1.251 . S
C517 H487 0.929 . S
C517 N513 1.418 . S
C517 C516 1.251 . S
C518 H485 0.930 . S
C518 C520 1.406 . S
C518 C523 1.261 . S
C519 H486 0.930 . S
C519 N521 1.325 . S
C519 C522 1.357 . S
C520 H488 0.928 . S
C520 C518 1.406 . S
C520 N521 1.261 . S
N521 Co472 2.214 . S
N521 C519 1.325 . S
N521 C520 1.261 . S
C522 H492 0.931 . S
C522 C519 1.357 . S
C522 C523 1.312 . S
C523 H494 0.930 . S
C523 C518 1.261 . S
C523 C522 1.312 . S
C524 O496 1.214 . S
C524 O504 1.234 . S
C525 H497 0.929 . S
C525 C528 1.391 . S
C525 C530 1.391 . S
C526 H498 0.929 . S
C526 C527 1.390 . S
C526 N529 1.391 . S
C527 H499 0.930 . S
C527 C526 1.390 . S
C527 C528 1.392 . S
C528 H500 0.929 . S
C528 C525 1.391 . S
C528 C527 1.392 . S
N529 Co473 2.257 1_565 S
N529 C526 1.391 . S
N529 C530 1.388 . S
C530 H501 0.930 . S
C530 C525 1.391 . S
C530 N529 1.388 . S
Co531 O533 2.143 . S
Co531 O539 2.074 . S
Co531 O542 2.093 . S
Co531 O555 2.097 . S
Co531 N572 2.151 . S
Co531 N580 2.214 . S
Co532 O533 2.160 . S
Co532 O538 2.058 . S
Co532 O548 2.057 . S
Co532 O563 2.037 . S
Co532 N567 2.145 . S
Co532 N588 2.257 . S
O533 Co531 2.143 . S
O533 Co532 2.160 . S
C534 O535 1.278 . S
C534 O542 1.224 . S
O535 C534 1.278 . S
C536 O537 1.245 . S
C536 O548 1.232 . S
O537 C536 1.245 . S
O538 Co532 2.058 . S
O538 C564 1.269 . S
O539 Co531 2.074 . S
O539 C564 1.257 . S
H540 C565 0.930 . S
H541 C571 0.930 . S
O542 Co531 2.093 . S
O542 C534 1.224 . S
H543 C575 0.929 . S
H544 C577 0.930 . S
H545 C578 0.930 . S
H546 C576 0.929 . S
H547 C579 0.928 . S
O548 Co532 2.057 . S
O548 C536 1.232 . S
H549 C568 0.929 . S
H550 C569 0.929 . S
H551 C581 0.931 . S
H552 C573 0.929 . S
H553 C582 0.930 . S
H554 C574 0.931 . S
O555 Co531 2.097 . S
O555 C583 1.214 . S
H556 C584 0.929 . S
H557 C585 0.929 . S
H558 C586 0.930 . S
H559 C587 0.929 . S
H560 C589 0.930 . S
H561 C566 0.930 . S
H562 C570 0.930 . S
O563 Co532 2.037 . S
O563 C583 1.234 . S
C564 O538 1.269 . S
C564 O539 1.257 . S
C565 H540 0.930 . S
C565 C568 1.388 1_655 S
C565 C570 1.418 . S
C566 H561 0.930 . S
C566 C569 1.404 1_665 S
C566 C570 1.353 . S
N567 Co532 2.145 . S
N567 C568 1.397 1_545 S
N567 C569 1.334 . S
C568 H549 0.929 . S
C568 C565 1.388 1_455 S
C568 N567 1.397 1_565 S
C569 H550 0.929 . S
C569 C566 1.404 1_445 S
C569 N567 1.334 . S
C570 H562 0.930 . S
C570 C565 1.418 . S
C570 C566 1.353 . S
C571 H541 0.930 . S
C571 N572 1.330 . S
C571 C573 1.446 . S
N572 Co531 2.151 . S
N572 C571 1.330 . S
N572 C576 1.418 . S
C573 H552 0.929 . S
C573 C571 1.446 . S
C573 C574 1.332 . S
C574 H554 0.931 . S
C574 C573 1.332 . S
C574 C575 1.267 . S
C575 H543 0.929 . S
C575 C574 1.267 . S
C575 C576 1.251 . S
C576 H546 0.929 . S
C576 N572 1.418 . S
C576 C575 1.251 . S
C577 H544 0.930 . S
C577 C579 1.406 . S
C577 C582 1.261 . S
C578 H545 0.930 . S
C578 N580 1.325 . S
C578 C581 1.357 . S
C579 H547 0.928 . S
C579 C577 1.406 . S
C579 N580 1.261 . S
N580 Co531 2.214 . S
N580 C578 1.325 . S
N580 C579 1.261 . S
C581 H551 0.931 . S
C581 C578 1.357 . S
C581 C582 1.312 . S
C582 H553 0.930 . S
C582 C577 1.261 . S
C582 C581 1.312 . S
C583 O555 1.214 . S
C583 O563 1.234 . S
C584 H556 0.929 . S
C584 C587 1.391 . S
C584 C589 1.391 . S
C585 H557 0.929 . S
C585 C586 1.390 . S
C585 N588 1.391 . S
C586 H558 0.930 . S
C586 C585 1.390 . S
C586 C587 1.392 . S
C587 H559 0.929 . S
C587 C584 1.391 . S
C587 C586 1.392 . S
N588 Co532 2.257 . S
N588 C585 1.391 . S
N588 C589 1.388 . S
C589 H560 0.930 . S
C589 C584 1.391 . S
C589 N588 1.388 . S
Co590 O592 2.128 1_554 S
Co590 O598 2.076 . S
Co590 O601 2.091 1_554 S
Co590 O614 2.099 1_655 S
Co590 N631 2.150 1_554 S
Co590 N639 2.229 . S
Co591 O592 2.160 . S
Co591 O597 2.058 . S
Co591 O607 2.057 . S
Co591 O622 2.037 1_655 S
Co591 N626 2.145 1_655 S
Co591 N647 2.257 1_655 S
O592 Co590 2.128 1_556 S
O592 Co591 2.160 . S
C593 O594 1.278 1_655 S
C593 O601 1.224 . S
O594 C593 1.278 1_455 S
C595 O596 1.245 . S
C595 O607 1.232 . S
O596 C595 1.245 . S
O597 Co591 2.058 . S
O597 C623 1.269 . S
O598 Co590 2.076 . S
O598 C623 1.257 1_554 S
H599 C624 0.930 . S
H600 C630 0.930 . S
O601 Co590 2.091 1_556 S
O601 C593 1.224 . S
H602 C634 0.929 . S
H603 C636 0.930 . S
H604 C637 0.930 . S
H605 C635 0.929 . S
H606 C638 0.928 . S
O607 Co591 2.057 . S
O607 C595 1.232 . S
H608 C627 0.929 . S
H609 C628 0.929 . S
H610 C640 0.931 . S
H611 C632 0.929 . S
H612 C641 0.930 . S
H613 C633 0.934 . S
O614 Co590 2.099 1_455 S
O614 C642 1.214 1_554 S
H615 C643 0.929 . S
H616 C644 0.929 . S
H617 C645 0.930 . S
H618 C646 0.929 . S
H619 C648 0.930 . S
H620 C625 0.930 . S
H621 C629 0.930 . S
O622 Co591 2.037 1_455 S
O622 C642 1.234 . S
C623 O597 1.269 . S
C623 O598 1.257 1_556 S
C624 H599 0.930 . S
C624 C627 1.388 1_565 S
C624 C629 1.418 . S
C625 H620 0.930 . S
C625 C628 1.404 1_465 S
C625 C629 1.353 . S
N626 Co591 2.145 1_455 S
N626 C627 1.397 . S
N626 C628 1.334 1_455 S
C627 H608 0.929 . S
C627 C624 1.388 1_545 S
C627 N626 1.397 . S
C628 H609 0.929 . S
C628 C625 1.404 1_645 S
C628 N626 1.334 1_655 S
C629 H621 0.930 . S
C629 C624 1.418 . S
C629 C625 1.353 . S
C630 H600 0.930 . S
C630 N631 1.330 . S
C630 C632 1.446 . S
N631 Co590 2.150 1_556 S
N631 C630 1.330 . S
N631 C635 1.418 1_556 S
C632 H611 0.929 . S
C632 C630 1.446 . S
C632 C633 1.312 1_556 S
C633 H613 0.934 . S
C633 C632 1.312 1_554 S
C633 C634 1.284 . S
C634 H602 0.929 . S
C634 C633 1.284 . S
C634 C635 1.251 . S
C635 H605 0.929 . S
C635 N631 1.418 1_554 S
C635 C634 1.251 . S
C636 H603 0.930 . S
C636 C638 1.406 . S
C636 C641 1.261 . S
C637 H604 0.930 . S
C637 N639 1.325 . S
C637 C640 1.357 . S
C638 H606 0.928 . S
C638 C636 1.406 . S
C638 N639 1.261 . S
N639 Co590 2.229 . S
N639 C637 1.325 . S
N639 C638 1.261 . S
C640 H610 0.931 . S
C640 C637 1.357 . S
C640 C641 1.312 . S
C641 H612 0.930 . S
C641 C636 1.261 . S
C641 C640 1.312 . S
C642 O614 1.214 1_556 S
C642 O622 1.234 . S
C643 H615 0.929 . S
C643 C646 1.391 . S
C643 C648 1.391 . S
C644 H616 0.929 . S
C644 C645 1.390 . S
C644 N647 1.391 . S
C645 H617 0.930 . S
C645 C644 1.390 . S
C645 C646 1.392 . S
C646 H618 0.929 . S
C646 C643 1.391 . S
C646 C645 1.392 . S
N647 Co591 2.257 1_455 S
N647 C644 1.391 . S
N647 C648 1.388 . S
C648 H619 0.930 . S
C648 C643 1.391 . S
C648 N647 1.388 . S
Co649 O651 2.143 . S
Co649 O657 2.074 . S
Co649 O660 2.093 . S
Co649 O673 2.097 1_565 S
Co649 N690 2.151 . S
Co649 N698 2.214 . S
Co650 O651 2.160 . S
Co650 O656 2.058 . S
Co650 O666 2.057 . S
Co650 O681 2.037 1_565 S
Co650 N685 2.145 1_565 S
Co650 N706 2.257 1_565 S
O651 Co649 2.143 . S
O651 Co650 2.160 . S
C652 O653 1.278 1_565 S
C652 O660 1.224 . S
O653 C652 1.278 1_545 S
C654 O655 1.245 . S
C654 O666 1.232 . S
O655 C654 1.245 . S
O656 Co650 2.058 . S
O656 C682 1.269 . S
O657 Co649 2.074 . S
O657 C682 1.257 . S
H658 C683 0.930 . S
H659 C689 0.930 . S
O660 Co649 2.093 . S
O660 C652 1.224 . S
H661 C693 0.929 . S
H662 C695 0.930 . S
H663 C696 0.930 . S
H664 C694 0.929 . S
H665 C697 0.928 . S
O666 Co650 2.057 . S
O666 C654 1.232 . S
H667 C686 0.929 . S
H668 C687 0.929 . S
H669 C699 0.931 . S
H670 C691 0.929 . S
H671 C700 0.930 . S
H672 C692 0.931 . S
O673 Co649 2.097 1_545 S
O673 C701 1.214 . S
H674 C702 0.929 . S
H675 C703 0.929 . S
H676 C704 0.930 . S
H677 C705 0.929 . S
H678 C707 0.930 . S
H679 C684 0.930 . S
H680 C688 0.930 . S
O681 Co650 2.037 1_545 S
O681 C701 1.234 . S
C682 O656 1.269 . S
C682 O657 1.257 . S
C683 H658 0.930 . S
C683 C686 1.388 . S
C683 C688 1.418 . S
C684 H679 0.930 . S
C684 C687 1.404 1_445 S
C684 C688 1.353 . S
N685 Co650 2.145 1_545 S
N685 C686 1.397 1_655 S
N685 C687 1.334 1_545 S
C686 H667 0.929 . S
C686 C683 1.388 . S
C686 N685 1.397 1_455 S
C687 H668 0.929 . S
C687 C684 1.404 1_665 S
C687 N685 1.334 1_565 S
C688 H680 0.930 . S
C688 C683 1.418 . S
C688 C684 1.353 . S
C689 H659 0.930 . S
C689 N690 1.330 . S
C689 C691 1.446 . S
N690 Co649 2.151 . S
N690 C689 1.330 . S
N690 C694 1.418 . S
C691 H670 0.929 . S
C691 C689 1.446 . S
C691 C692 1.332 . S
C692 H672 0.931 . S
C692 C691 1.332 . S
C692 C693 1.267 . S
C693 H661 0.929 . S
C693 C692 1.267 . S
C693 C694 1.251 . S
C694 H664 0.929 . S
C694 N690 1.418 . S
C694 C693 1.251 . S
C695 H662 0.930 . S
C695 C697 1.406 . S
C695 C700 1.261 . S
C696 H663 0.930 . S
C696 N698 1.325 . S
C696 C699 1.357 . S
C697 H665 0.928 . S
C697 C695 1.406 . S
C697 N698 1.261 . S
N698 Co649 2.214 . S
N698 C696 1.325 . S
N698 C697 1.261 . S
C699 H669 0.931 . S
C699 C696 1.357 . S
C699 C700 1.312 . S
C700 H671 0.930 . S
C700 C695 1.261 . S
C700 C699 1.312 . S
C701 O673 1.214 . S
C701 O681 1.234 . S
C702 H674 0.929 . S
C702 C705 1.391 . S
C702 C707 1.391 . S
C703 H675 0.929 . S
C703 C704 1.390 . S
C703 N706 1.391 . S
C704 H676 0.930 . S
C704 C703 1.390 . S
C704 C705 1.392 . S
C705 H677 0.929 . S
C705 C702 1.391 . S
C705 C704 1.392 . S
N706 Co650 2.257 1_545 S
N706 C703 1.391 . S
N706 C707 1.388 . S
C707 H678 0.930 . S
C707 C702 1.391 . S
C707 N706 1.388 . S
C180 C3 1.339 . S
C62 C239 1.338 1_455 S
C298 C121 1.338 1_565 S
C357 C534 1.339 . S
C593 C416 1.338 1_655 S
C475 C652 1.338 1_545 S
C477 C5 1.812 . S
C64 C536 1.812 . S
C123 C595 1.812 . S
C182 C654 1.812 . S
C359 C241 1.813 . S
C418 C300 1.812 . S
C446 C33 1.642 1_566 S
C92 C505 1.642 . S
C151 C564 1.642 1_655 S
C210 C623 1.642 1_564 S
C682 C269 1.642 . S
C328 C387 1.642 1_455 S
C642 C52 1.637 1_556 S
C701 C111 1.637 . S
C406 C170 1.637 . S
C229 C465 1.637 1_554 S
C288 C524 1.637 . S
C347 C583 1.637 . S
