# Generated by pormake.
# Topology wmc, (6)-cn, num edge types: 1
# Building blocks:
#     Node 0, Type 0, BuildingBlock: VOLQOD_clean_sbu_1, # of connection points: 6
#     Node 1, Type 0, BuildingBlock: VOLQOD_clean_sbu_1, # of connection points: 6
#     Node 2, Type 0, BuildingBlock: VOLQOD_clean_sbu_1, # of connection points: 6
#     Node 3, Type 0, BuildingBlock: VOLQOD_clean_sbu_1, # of connection points: 6
#     Node 4, Type 0, BuildingBlock: VOLQOD_clean_sbu_1, # of connection points: 6
#     Node 5, Type 0, BuildingBlock: VOLQOD_clean_sbu_1, # of connection points: 6
#     Node 6, Type 0, BuildingBlock: VOLQOD_clean_sbu_1, # of connection points: 6
#     Node 7, Type 0, BuildingBlock: VOLQOD_clean_sbu_1, # of connection points: 6
#     Node 8, Type 0, BuildingBlock: VOLQOD_clean_sbu_1, # of connection points: 6
#     Node 9, Type 0, BuildingBlock: VOLQOD_clean_sbu_1, # of connection points: 6
#     Node 10, Type 0, BuildingBlock: VOLQOD_clean_sbu_1, # of connection points: 6
#     Node 11, Type 0, BuildingBlock: VOLQOD_clean_sbu_1, # of connection points: 6
#     Node 12, Type 0, BuildingBlock: VOLQOD_clean_sbu_1, # of connection points: 6
#     Node 13, Type 0, BuildingBlock: VOLQOD_clean_sbu_1, # of connection points: 6
#     Node 14, Type 0, BuildingBlock: VOLQOD_clean_sbu_1, # of connection points: 6
#     Node 15, Type 0, BuildingBlock: VOLQOD_clean_sbu_1, # of connection points: 6
#     Node 16, Type 0, BuildingBlock: VOLQOD_clean_sbu_1, # of connection points: 6
#     Node 17, Type 0, BuildingBlock: VOLQOD_clean_sbu_1, # of connection points: 6
#     Edge 18, Type (0, 0), BuildingBlock: UVAHIK_clean_linker_0, # of connection points: 2
#     Edge 19, Type (0, 0), BuildingBlock: UVAHIK_clean_linker_0, # of connection points: 2
#     Edge 20, Type (0, 0), BuildingBlock: UVAHIK_clean_linker_0, # of connection points: 2
#     Edge 21, Type (0, 0), BuildingBlock: UVAHIK_clean_linker_0, # of connection points: 2
#     Edge 22, Type (0, 0), BuildingBlock: UVAHIK_clean_linker_0, # of connection points: 2
#     Edge 23, Type (0, 0), BuildingBlock: UVAHIK_clean_linker_0, # of connection points: 2
#     Edge 24, Type (0, 0), BuildingBlock: UVAHIK_clean_linker_0, # of connection points: 2
#     Edge 25, Type (0, 0), BuildingBlock: UVAHIK_clean_linker_0, # of connection points: 2
#     Edge 26, Type (0, 0), BuildingBlock: UVAHIK_clean_linker_0, # of connection points: 2
#     Edge 27, Type (0, 0), BuildingBlock: UVAHIK_clean_linker_0, # of connection points: 2
#     Edge 28, Type (0, 0), BuildingBlock: UVAHIK_clean_linker_0, # of connection points: 2
#     Edge 29, Type (0, 0), BuildingBlock: UVAHIK_clean_linker_0, # of connection points: 2
#     Edge 30, Type (0, 0), BuildingBlock: UVAHIK_clean_linker_0, # of connection points: 2
#     Edge 31, Type (0, 0), BuildingBlock: UVAHIK_clean_linker_0, # of connection points: 2
#     Edge 32, Type (0, 0), BuildingBlock: UVAHIK_clean_linker_0, # of connection points: 2
#     Edge 33, Type (0, 0), BuildingBlock: UVAHIK_clean_linker_0, # of connection points: 2
#     Edge 34, Type (0, 0), BuildingBlock: UVAHIK_clean_linker_0, # of connection points: 2
#     Edge 35, Type (0, 0), BuildingBlock: UVAHIK_clean_linker_0, # of connection points: 2
#     Edge 36, Type (0, 0), BuildingBlock: UVAHIK_clean_linker_0, # of connection points: 2
#     Edge 37, Type (0, 0), BuildingBlock: UVAHIK_clean_linker_0, # of connection points: 2
#     Edge 38, Type (0, 0), BuildingBlock: UVAHIK_clean_linker_0, # of connection points: 2
#     Edge 39, Type (0, 0), BuildingBlock: UVAHIK_clean_linker_0, # of connection points: 2
#     Edge 40, Type (0, 0), BuildingBlock: UVAHIK_clean_linker_0, # of connection points: 2
#     Edge 41, Type (0, 0), BuildingBlock: UVAHIK_clean_linker_0, # of connection points: 2
#     Edge 42, Type (0, 0), BuildingBlock: UVAHIK_clean_linker_0, # of connection points: 2
#     Edge 43, Type (0, 0), BuildingBlock: UVAHIK_clean_linker_0, # of connection points: 2
#     Edge 44, Type (0, 0), BuildingBlock: UVAHIK_clean_linker_0, # of connection points: 2
#     Edge 45, Type (0, 0), BuildingBlock: UVAHIK_clean_linker_0, # of connection points: 2
#     Edge 46, Type (0, 0), BuildingBlock: UVAHIK_clean_linker_0, # of connection points: 2
#     Edge 47, Type (0, 0), BuildingBlock: UVAHIK_clean_linker_0, # of connection points: 2
#     Edge 48, Type (0, 0), BuildingBlock: UVAHIK_clean_linker_0, # of connection points: 2
#     Edge 49, Type (0, 0), BuildingBlock: UVAHIK_clean_linker_0, # of connection points: 2
#     Edge 50, Type (0, 0), BuildingBlock: UVAHIK_clean_linker_0, # of connection points: 2
#     Edge 51, Type (0, 0), BuildingBlock: UVAHIK_clean_linker_0, # of connection points: 2
#     Edge 52, Type (0, 0), BuildingBlock: UVAHIK_clean_linker_0, # of connection points: 2
#     Edge 53, Type (0, 0), BuildingBlock: UVAHIK_clean_linker_0, # of connection points: 2
#     Edge 54, Type (0, 0), BuildingBlock: UVAHIK_clean_linker_0, # of connection points: 2
#     Edge 55, Type (0, 0), BuildingBlock: UVAHIK_clean_linker_0, # of connection points: 2
#     Edge 56, Type (0, 0), BuildingBlock: UVAHIK_clean_linker_0, # of connection points: 2
#     Edge 57, Type (0, 0), BuildingBlock: UVAHIK_clean_linker_0, # of connection points: 2
#     Edge 58, Type (0, 0), BuildingBlock: UVAHIK_clean_linker_0, # of connection points: 2
#     Edge 59, Type (0, 0), BuildingBlock: UVAHIK_clean_linker_0, # of connection points: 2
#     Edge 60, Type (0, 0), BuildingBlock: UVAHIK_clean_linker_0, # of connection points: 2
#     Edge 61, Type (0, 0), BuildingBlock: UVAHIK_clean_linker_0, # of connection points: 2
#     Edge 62, Type (0, 0), BuildingBlock: UVAHIK_clean_linker_0, # of connection points: 2
#     Edge 63, Type (0, 0), BuildingBlock: UVAHIK_clean_linker_0, # of connection points: 2
#     Edge 64, Type (0, 0), BuildingBlock: UVAHIK_clean_linker_0, # of connection points: 2
#     Edge 65, Type (0, 0), BuildingBlock: UVAHIK_clean_linker_0, # of connection points: 2
#     Edge 66, Type (0, 0), BuildingBlock: UVAHIK_clean_linker_0, # of connection points: 2
#     Edge 67, Type (0, 0), BuildingBlock: UVAHIK_clean_linker_0, # of connection points: 2
#     Edge 68, Type (0, 0), BuildingBlock: UVAHIK_clean_linker_0, # of connection points: 2
#     Edge 69, Type (0, 0), BuildingBlock: UVAHIK_clean_linker_0, # of connection points: 2
#     Edge 70, Type (0, 0), BuildingBlock: UVAHIK_clean_linker_0, # of connection points: 2
#     Edge 71, Type (0, 0), BuildingBlock: UVAHIK_clean_linker_0, # of connection points: 2
# Relax obj value: 0.293
# Max RMSD: 0.168
# Mean RMSD: 0.168
data_MOF--net-wmc--node1-VOLQOD_clean_sbu_1--edge1-UVAHIK_clean_linker_0
_symmetry_space_group_name_H-M    P1
_symmetry_Int_Tables_number       1
_symmetry_cell_setting            triclinic
loop_
_symmetry_equiv_pos_as_xyz
'x, y, z'
_cell_length_a     63.041082
_cell_length_b     63.047298
_cell_length_c     39.225487
_cell_angle_alpha  90.010039
_cell_angle_beta   89.939942
_cell_angle_gamma 119.99258
loop_
_atom_site_label
_atom_site_type_symbol
_atom_site_fract_x
_atom_site_fract_y
_atom_site_fract_z
_atom_type_partial_charge
O0 O 0.66205 0.15692 0.97366 0.0
Zn1 Zn 0.63798 0.12056 0.97349 0.0
O2 O 0.60853 0.11325 -0.00153 0.0
Zn3 Zn 0.58283 0.1071 0.96674 0.0
Zn4 Zn 0.61571 0.14142 0.02606 0.0
Zn5 Zn 0.59829 0.08487 0.02798 0.0
O6 O 0.55458 0.07378 0.97414 0.0
O7 O 0.5674 0.05452 0.00892 0.0
O8 O 0.63063 0.10938 0.9245 0.0
O9 O 0.59362 0.10548 0.91971 0.0
O10 O 0.57121 0.13171 0.96966 0.0
O11 O 0.59398 0.15455 0.01261 0.0
O12 O 0.60775 0.13257 0.0752 0.0
O13 O 0.65472 0.1053 -0.00196 0.0
O14 O 0.58758 0.09193 0.07274 0.0
O15 O 0.62853 0.08145 0.0381 0.0
C16 C 0.6652 0.17353 -0.00509 0.0
C17 C 0.55119 0.05449 0.98922 0.0
C18 C 0.57751 0.14947 0.9903 0.0
C19 C 0.61199 0.10519 0.90687 0.0
C20 C 0.59398 0.11176 0.08884 0.0
C21 C 0.64957 0.09117 0.0237 0.0
O22 O 0.64986 0.16929 0.01877 0.0
O23 O 0.8436 0.50715 0.97415 0.0
Zn24 Zn 0.87932 0.51683 0.972 0.0
O25 O 0.8851 0.49323 -0.00423 0.0
Zn26 Zn 0.89099 0.47389 0.96323 0.0
Zn27 Zn 0.85588 0.47215 0.02117 0.0
Zn28 Zn 0.91283 0.50959 0.02691 0.0
O29 O 0.92352 0.47712 0.97164 0.0
O30 O 0.94284 0.5085 0.00763 0.0
O31 O 0.89001 0.5209 0.92275 0.0
O32 O 0.89461 0.48827 0.91705 0.0
O33 O 0.86429 0.43813 0.96232 0.0
O34 O 0.83875 0.43886 0.00053 0.0
O35 O 0.86393 0.46668 0.0683 0.0
O36 O 0.89642 0.54857 -0.00294 0.0
O37 O 0.90439 0.49021 0.07057 0.0
O38 O 0.91756 0.54356 0.03866 0.0
C39 C 0.82787 0.49582 -0.00248 0.0
C40 C 0.94276 0.49251 0.98738 0.0
C41 C 0.84407 0.42743 0.97856 0.0
C42 C 0.89481 0.50702 0.90477 0.0
C43 C 0.88419 0.47415 0.08371 0.0
C44 C 0.90969 0.55633 0.02368 0.0
O45 O 0.83169 0.48391 0.0206 0.0
O46 O 0.49465 0.33477 0.97448 0.0
Zn47 Zn 0.48457 0.36043 0.97061 0.0
O48 O 0.50813 0.39003 -0.00622 0.0
Zn49 Zn 0.52807 0.41316 0.95961 0.0
Zn50 Zn 0.52841 0.38278 0.02296 0.0
Zn51 Zn 0.49137 0.40279 0.02148 0.0
O52 O 0.52177 0.44104 0.95987 0.0
O53 O 0.49301 0.43321 -0.00114 0.0
O54 O 0.48157 0.36589 0.92039 0.0
O55 O 0.51873 0.39835 0.91342 0.0
O56 O 0.56408 0.42615 0.96656 0.0
O57 O 0.56371 0.40328 0.00969 0.0
O58 O 0.52782 0.39274 0.0713 0.0
O59 O 0.45263 0.34599 -0.00475 0.0
O60 O 0.50967 0.41499 0.06562 0.0
O61 O 0.45741 0.37388 0.034 0.0
C62 C 0.50753 0.33144 -0.00346 0.0
C63 C 0.50749 0.44671 0.97519 0.0
C64 C 0.57532 0.41995 0.98766 0.0
C65 C 0.49894 0.38099 0.90131 0.0
C66 C 0.52213 0.40806 0.08309 0.0
C67 C 0.44487 0.35249 0.02093 0.0
O68 O 0.51989 0.34765 0.01887 0.0
O69 O 0.84445 0.33936 0.48219 0.0
Zn70 Zn 0.88031 0.36351 0.47478 0.0
O71 O 0.89004 0.3938 0.49906 0.0
Zn72 Zn 0.89483 0.41898 0.46714 0.0
Zn73 Zn 0.86379 0.38784 0.5298 0.0
Zn74 Zn 0.92002 0.40418 0.52508 0.0
O75 O 0.92831 0.4475 0.472 0.0
O76 O 0.94922 0.43414 0.5024 0.0
O77 O 0.88655 0.36878 0.42412 0.0
O78 O 0.89449 0.40727 0.42005 0.0
O79 O 0.86941 0.4296 0.47125 0.0
O80 O 0.84744 0.40618 0.51436 0.0
O81 O 0.87637 0.40105 0.57609 0.0
O82 O 0.89768 0.3475 0.49548 0.0
O83 O 0.91651 0.41661 0.57087 0.0
O84 O 0.92345 0.37387 0.53385 0.0
C85 C 0.83071 0.33641 0.50771 0.0
C86 C 0.94834 0.45048 0.48403 0.0
C87 C 0.85139 0.42217 0.49174 0.0
C88 C 0.89178 0.38775 0.40652 0.0
C89 C 0.89796 0.41337 0.58801 0.0
C90 C 0.91311 0.3528 0.51953 0.0
O91 O 0.83736 0.35262 0.53092 0.0
O92 O 0.66581 0.50647 0.47819 0.0
Zn93 Zn 0.64048 0.5169 0.47259 0.0
O94 O 0.61124 0.49506 0.49799 0.0
Zn95 Zn 0.58725 0.47347 0.4659 0.0
Zn96 Zn 0.61863 0.47609 0.52951 0.0
Zn97 Zn 0.59952 0.51371 0.52348 0.0
O98 O 0.55995 0.48065 0.46436 0.0
O99 O 0.56906 0.51156 0.50008 0.0
O100 O 0.6341 0.51688 0.42204 0.0
O101 O 0.60138 0.47956 0.41912 0.0
O102 O 0.57371 0.43788 0.47705 0.0
O103 O 0.59758 0.44022 0.51998 0.0
O104 O 0.60966 0.47936 0.57737 0.0
O105 O 0.65566 0.55026 0.49306 0.0
O106 O 0.58769 0.49759 0.56925 0.0
O107 O 0.62913 0.54808 0.53245 0.0
C108 C 0.66917 0.49439 0.50152 0.0
C109 C 0.55499 0.49605 0.47777 0.0
C110 C 0.58028 0.42762 0.49925 0.0
C111 C 0.61867 0.49842 0.4049 0.0
C112 C 0.59459 0.48574 0.58814 0.0
C113 C 0.65003 0.55968 0.5177 0.0
O114 O 0.65334 0.48352 0.52493 0.0
O115 O 0.49471 0.16003 0.48514 0.0
Zn116 Zn 0.48571 0.12501 0.4765 0.0
O117 O 0.50778 0.11752 0.501 0.0
Zn118 Zn 0.53011 0.1166 0.4685 0.0
Zn119 Zn 0.52605 0.14328 0.53373 0.0
Zn120 Zn 0.48915 0.08626 0.5247 0.0
O121 O 0.52469 0.0827 0.4664 0.0
O122 O 0.49307 0.05924 0.50029 0.0
O123 O 0.48626 0.12036 0.42568 0.0
O124 O 0.52324 0.12421 0.42194 0.0
O125 O 0.56551 0.14028 0.47917 0.0
O126 O 0.56183 0.1605 0.52283 0.0
O127 O 0.52434 0.12959 0.58025 0.0
O128 O 0.45213 0.10544 0.49559 0.0
O129 O 0.50411 0.08947 0.57092 0.0
O130 O 0.45421 0.08013 0.53328 0.0
C131 C 0.50542 0.17441 0.51009 0.0
C132 C 0.50949 0.06184 0.47871 0.0
C133 C 0.57505 0.15713 0.50147 0.0
C134 C 0.5045 0.12318 0.40819 0.0
C135 C 0.51679 0.10775 0.59023 0.0
C136 C 0.44251 0.08951 0.51912 0.0
O137 O 0.5163 0.16909 0.53302 0.0
O138 O 0.33697 0.49531 0.31588 0.0
Zn139 Zn 0.31044 0.46021 0.30955 0.0
O140 O 0.28076 0.45424 0.3323 0.0
Zn141 Zn 0.25805 0.45252 0.29833 0.0
Zn142 Zn 0.28855 0.48138 0.36263 0.0
Zn143 Zn 0.26724 0.42373 0.358 0.0
O144 O 0.22904 0.41884 0.29772 0.0
O145 O 0.23647 0.39623 0.3342 0.0
O146 O 0.30558 0.45314 0.25939 0.0
O147 O 0.27314 0.45784 0.25212 0.0
O148 O 0.24692 0.47713 0.30571 0.0
O149 O 0.27127 0.49931 0.34795 0.0
O150 O 0.27602 0.46936 0.40974 0.0
O151 O 0.32353 0.4409 0.33183 0.0
O152 O 0.25521 0.42895 0.40267 0.0
O153 O 0.29527 0.41692 0.36956 0.0
C154 C 0.34077 0.51044 0.33985 0.0
C155 C 0.22296 0.39832 0.31161 0.0
C156 C 0.25481 0.49525 0.32603 0.0
C157 C 0.29066 0.45553 0.24021 0.0
C158 C 0.26122 0.44791 0.4207 0.0
C159 C 0.31654 0.42553 0.35616 0.0
O160 O 0.32442 0.50618 0.36217 0.0
O161 O 0.51137 0.83923 0.32263 0.0
Zn162 Zn 0.54726 0.85108 0.31477 0.0
O163 O 0.5564 0.82955 0.33742 0.0
Zn164 Zn 0.5589 0.80907 0.30331 0.0
Zn165 Zn 0.53104 0.80932 0.36972 0.0
Zn166 Zn 0.58729 0.84854 0.36161 0.0
O167 O 0.59338 0.81633 0.30075 0.0
O168 O 0.61544 0.84712 0.33646 0.0
O169 O 0.55305 0.85281 0.26392 0.0
O170 O 0.55104 0.81677 0.25746 0.0
O171 O 0.53703 0.7731 0.31236 0.0
O172 O 0.51688 0.77385 0.35819 0.0
O173 O 0.54441 0.81196 0.41672 0.0
O174 O 0.56514 0.88407 0.3362 0.0
O175 O 0.58445 0.83205 0.40658 0.0
O176 O 0.5918 0.8827 0.37214 0.0
C177 C 0.49675 0.82636 0.34635 0.0
C178 C 0.61386 0.83178 0.31375 0.0
C179 C 0.52103 0.76203 0.33542 0.0
C180 C 0.55139 0.83559 0.24512 0.0
C181 C 0.56631 0.81922 0.42609 0.0
C182 C 0.58132 0.89382 0.35938 0.0
O183 O 0.5029 0.81558 0.36838 0.0
O184 O 0.1689 0.67964 0.30961 0.0
Zn185 Zn 0.15655 0.70379 0.30964 0.0
O186 O 0.17544 0.72977 0.34092 0.0
Zn187 Zn 0.19875 0.75872 0.31854 0.0
Zn188 Zn 0.19152 0.71856 0.37083 0.0
Zn189 Zn 0.15502 0.73906 0.36539 0.0
O190 O 0.19761 0.78784 0.33623 0.0
O191 O 0.15732 0.76992 0.34332 0.0
O192 O 0.15779 0.71752 0.26245 0.0
O193 O 0.18848 0.75568 0.27029 0.0
O194 O 0.23294 0.76423 0.32202 0.0
O195 O 0.22745 0.7357 0.35973 0.0
O196 O 0.18935 0.72824 0.4186 0.0
O197 O 0.12246 0.68494 0.32866 0.0
O198 O 0.16968 0.74908 0.41217 0.0
O199 O 0.12125 0.70848 0.37014 0.0
C200 C 0.17427 0.67133 0.3359 0.0
C201 C 0.17815 0.78915 0.33829 0.0
C202 C 0.24136 0.75336 0.34014 0.0
C203 C 0.17208 0.73918 0.25151 0.0
C204 C 0.18207 0.74239 0.43031 0.0
C205 C 0.11142 0.6883 0.35354 0.0
O206 O 0.17923 0.68262 0.36435 0.0
O207 O 0.51373 0.67518 0.81647 0.0
Zn208 Zn 0.55008 0.69986 0.81348 0.0
O209 O 0.5581 0.72843 0.84099 0.0
Zn210 Zn 0.56262 0.75489 0.81234 0.0
Zn211 Zn 0.53109 0.71985 0.87135 0.0
Zn212 Zn 0.58775 0.73878 0.86739 0.0
O213 O 0.59519 0.78411 0.82035 0.0
O214 O 0.6169 0.76965 0.8461 0.0
O215 O 0.55999 0.709 0.764 0.0
O216 O 0.56483 0.74644 0.76447 0.0
O217 O 0.53616 0.76372 0.81737 0.0
O218 O 0.51443 0.73869 0.85931 0.0
O219 O 0.54239 0.7297 0.91917 0.0
O220 O 0.56667 0.68308 0.83451 0.0
O221 O 0.58287 0.74969 0.91358 0.0
O222 O 0.5915 0.7085 0.87453 0.0
C223 C 0.4992 0.67034 0.84167 0.0
C224 C 0.6155 0.78685 0.83075 0.0
C225 C 0.51812 0.75534 0.83791 0.0
C226 C 0.56476 0.72877 0.74878 0.0
C227 C 0.5637 0.74356 0.93125 0.0
C228 C 0.58153 0.68781 0.85918 0.0
O229 O 0.50517 0.68467 0.86722 0.0
O230 O 0.33333 0.8396 0.81706 0.0
Zn231 Zn 0.30886 0.85073 0.80931 0.0
O232 O 0.27859 0.82908 0.83244 0.0
Zn233 Zn 0.25618 0.80723 0.79892 0.0
Zn234 Zn 0.28477 0.81056 0.86625 0.0
Zn235 Zn 0.26607 0.84826 0.8546 0.0
O236 O 0.22772 0.81272 0.79581 0.0
O237 O 0.23585 0.84472 0.82883 0.0
O238 O 0.30443 0.85216 0.75876 0.0
O239 O 0.27173 0.81508 0.75292 0.0
O240 O 0.24424 0.77165 0.80912 0.0
O241 O 0.26463 0.7746 0.85653 0.0
O242 O 0.27431 0.81482 0.91274 0.0
O243 O 0.32373 0.88366 0.83033 0.0
O244 O 0.25347 0.83375 0.90066 0.0
O245 O 0.2951 0.88303 0.86422 0.0
C246 C 0.33604 0.82819 0.84196 0.0
C247 C 0.22214 0.82818 0.80737 0.0
C248 C 0.24952 0.76171 0.8334 0.0
C249 C 0.28951 0.83436 0.74026 0.0
C250 C 0.25973 0.82235 0.92141 0.0
C251 C 0.31698 0.89385 0.85243 0.0
O252 O 0.3197 0.81819 0.86499 0.0
O253 O 0.16996 0.49316 0.81692 0.0
Zn254 Zn 0.15771 0.45673 0.81398 0.0
O255 O 0.17719 0.44828 0.84259 0.0
Zn256 Zn 0.19918 0.44232 0.81666 0.0
Zn257 Zn 0.19551 0.4751 0.87283 0.0
Zn258 Zn 0.15669 0.41842 0.86742 0.0
O259 O 0.19722 0.41097 0.83061 0.0
O260 O 0.15784 0.3893 0.84498 0.0
O261 O 0.15794 0.44634 0.7651 0.0
O262 O 0.18782 0.43732 0.76883 0.0
O263 O 0.23417 0.46984 0.81924 0.0
O264 O 0.23111 0.49246 0.86009 0.0
O265 O 0.19391 0.46273 0.92002 0.0
O266 O 0.12391 0.44097 0.83394 0.0
O267 O 0.17196 0.4223 0.91364 0.0
O268 O 0.12308 0.4156 0.87415 0.0
C269 C 0.1782 0.50703 0.84304 0.0
C270 C 0.17801 0.39051 0.83627 0.0
C271 C 0.2439 0.48854 0.83859 0.0
C272 C 0.17152 0.4389 0.75175 0.0
C273 C 0.1856 0.44112 0.93158 0.0
C274 C 0.11311 0.42621 0.85855 0.0
O275 O 0.18536 0.50049 0.86935 0.0
O276 O 1.00069 0.82737 0.64945 0.0
Zn277 Zn 0.97493 0.79205 0.64134 0.0
O278 O 0.9451 0.78433 0.66545 0.0
Zn279 Zn 0.92189 0.78285 0.63251 0.0
Zn280 Zn 0.95207 0.81009 0.69781 0.0
Zn281 Zn 0.93255 0.75341 0.68995 0.0
O282 O 0.8941 0.74859 0.62987 0.0
O283 O 0.90235 0.72589 0.66509 0.0
O284 O 0.96988 0.787 0.59049 0.0
O285 O 0.93686 0.79101 0.5862 0.0
O286 O 0.90897 0.80557 0.64315 0.0
O287 O 0.93194 0.82577 0.68753 0.0
O288 O 0.94163 0.7969 0.74483 0.0
O289 O 0.98903 0.77276 0.66122 0.0
O290 O 0.91992 0.75684 0.73564 0.0
O291 O 0.96167 0.74789 0.6994 0.0
C292 C 0.00368 0.84213 0.67361 0.0
C293 C 0.88871 0.72794 0.64266 0.0
C294 C 0.91537 0.82199 0.66597 0.0
C295 C 0.95463 0.7899 0.57272 0.0
C296 C 0.92649 0.77533 0.75496 0.0
C297 C 0.98275 0.75714 0.68519 0.0
O298 O 0.98713 0.83685 0.696 0.0
O299 O 0.17616 0.17174 0.64822 0.0
Zn300 Zn 0.21197 0.18375 0.6412 0.0
O301 O 0.22111 0.16325 0.66599 0.0
Zn302 Zn 0.2227 0.14136 0.63372 0.0
Zn303 Zn 0.19598 0.14485 0.69954 0.0
Zn304 Zn 0.25247 0.18338 0.68846 0.0
O305 O 0.25701 0.1481 0.63093 0.0
O306 O 0.28 0.18089 0.66315 0.0
O307 O 0.21817 0.18438 0.59069 0.0
O308 O 0.21435 0.14743 0.58714 0.0
O309 O 0.20018 0.106 0.64531 0.0
O310 O 0.17967 0.10879 0.68938 0.0
O311 O 0.21067 0.14798 0.74582 0.0
O312 O 0.22899 0.21702 0.66146 0.0
O313 O 0.25055 0.16856 0.73439 0.0
O314 O 0.25686 0.2178 0.69697 0.0
C315 C 0.16261 0.16209 0.67426 0.0
C316 C 0.2778 0.1643 0.6422 0.0
C317 C 0.18358 0.09598 0.66792 0.0
C318 C 0.21551 0.1662 0.57326 0.0
C319 C 0.23283 0.15592 0.75462 0.0
C320 C 0.24543 0.22789 0.68402 0.0
O321 O 0.16934 0.15363 0.69889 0.0
O322 O 0.82672 0.00316 0.65272 0.0
Zn323 Zn 0.81744 0.02942 0.64681 0.0
O324 O 0.84017 0.05867 0.67126 0.0
Zn325 Zn 0.86192 0.08225 0.63896 0.0
Zn326 Zn 0.8587 0.05032 0.7019 0.0
Zn327 Zn 0.82284 0.07159 0.69726 0.0
O328 O 0.85589 0.1103 0.6375 0.0
O329 O 0.82499 0.10171 0.67307 0.0
O330 O 0.81691 0.03568 0.59625 0.0
O331 O 0.85449 0.06797 0.59225 0.0
O332 O 0.89744 0.09423 0.64897 0.0
O333 O 0.89397 0.06721 0.68797 0.0
O334 O 0.85938 0.06299 0.7488 0.0
O335 O 0.78456 0.01542 0.66877 0.0
O336 O 0.84024 0.08422 0.74208 0.0
O337 O 0.78848 0.04275 0.70796 0.0
C338 C 0.83682 0.99884 0.67786 0.0
C339 C 0.84062 0.11553 0.65068 0.0
C340 C 0.90701 0.08504 0.66819 0.0
C341 C 0.83518 0.05092 0.57858 0.0
C342 C 0.85319 0.0781 0.75993 0.0
C343 C 0.77609 0.02169 0.69391 0.0
O344 O 0.84731 0.01454 0.70147 0.0
O345 O 0.18002 0.00829 0.13858 0.0
Zn346 Zn 0.21625 0.03333 0.13814 0.0
O347 O 0.22299 0.06035 0.16764 0.0
Zn348 Zn 0.22801 0.08792 0.14179 0.0
Zn349 Zn 0.1951 0.05007 0.19672 0.0
Zn350 Zn 0.25252 0.07034 0.19397 0.0
O351 O 0.25798 0.11773 0.15757 0.0
O352 O 0.28144 0.10273 0.17501 0.0
O353 O 0.22828 0.04501 0.09003 0.0
O354 O 0.23475 0.08302 0.09398 0.0
O355 O 0.19953 0.0939 0.14379 0.0
O356 O 0.17698 0.06748 0.18397 0.0
O357 O 0.20574 0.05973 0.24487 0.0
O358 O 0.23193 0.01571 0.15907 0.0
O359 O 0.24636 0.0793 0.24071 0.0
O360 O 0.25687 0.04022 0.19958 0.0
C361 C 0.16545 1.00146 0.16403 0.0
C362 C 0.27885 0.12085 0.1659 0.0
C363 C 0.1806 0.08421 0.16273 0.0
C364 C 0.23489 0.06593 0.0769 0.0
C365 C 0.2269 0.07304 0.25779 0.0
C366 C 0.24654 0.01967 0.18382 0.0
O367 O 0.17085 0.01437 0.19106 0.0
O368 O 0.99858 0.17328 0.15144 0.0
Zn369 Zn 0.97407 0.18482 0.14588 0.0
O370 O 0.94397 0.16295 0.16971 0.0
Zn371 Zn 0.9205 0.14259 0.13604 0.0
Zn372 Zn 0.94998 0.14256 0.20038 0.0
Zn373 Zn 0.93235 0.18147 0.19604 0.0
O374 O 0.89341 0.15002 0.13519 0.0
O375 O 0.90205 0.17983 0.17273 0.0
O376 O 0.96896 0.18672 0.09533 0.0
O377 O 0.93526 0.15036 0.08961 0.0
O378 O 0.90649 0.10653 0.14447 0.0
O379 O 0.92841 0.10712 0.18889 0.0
O380 O 0.94083 0.14513 0.24828 0.0
O381 O 0.98931 0.21765 0.1678 0.0
O382 O 0.92021 0.1649 0.24167 0.0
O383 O 0.96209 0.21578 0.20578 0.0
C384 C 1.0008 0.16008 0.17419 0.0
C385 C 0.88831 0.16502 0.14953 0.0
C386 C 0.91195 0.09537 0.1667 0.0
C387 C 0.95328 0.16937 0.07684 0.0
C388 C 0.92654 0.15223 0.25983 0.0
C389 C 0.98333 0.22716 0.19191 0.0
O390 O 0.98427 0.14891 0.19663 0.0
O391 O 0.83074 0.82822 0.14458 0.0
Zn392 Zn 0.82116 0.79268 0.1392 0.0
O393 O 0.84448 0.78623 0.16243 0.0
Zn394 Zn 0.86443 0.78272 0.1284 0.0
Zn395 Zn 0.86504 0.81374 0.19148 0.0
Zn396 Zn 0.82725 0.75667 0.19021 0.0
O397 O 0.85821 0.74853 0.1294 0.0
O398 O 0.82877 0.72781 0.16763 0.0
O399 O 0.81861 0.78502 0.08887 0.0
O400 O 0.85486 0.78756 0.08197 0.0
O401 O 0.9005 0.80623 0.13451 0.0
O402 O 0.90025 0.82906 0.17729 0.0
O403 O 0.86501 0.80301 0.23941 0.0
O404 O 0.78879 0.77441 0.1623 0.0
O405 O 0.84526 0.76248 0.23464 0.0
O406 O 0.79304 0.75153 0.20196 0.0
C407 C 0.84344 0.84403 0.16719 0.0
C408 C 0.84355 0.72863 0.14453 0.0
C409 C 0.91178 0.82402 0.15509 0.0
C410 C 0.83549 0.78612 0.06984 0.0
C411 C 0.85849 0.78192 0.25165 0.0
C412 C 0.78055 0.76004 0.1878 0.0
O413 O 0.856 0.83998 0.18892 0.0
C414 C 0.57001 0.18151 0.01526 0.0
C415 C 0.56537 0.16438 0.98927 0.0
C416 C 0.55881 0.19574 0.01493 0.0
C417 C 0.53209 0.22183 0.95836 0.0
H418 H 0.50975 0.23527 0.04357 0.0
C419 C 0.49832 0.29187 0.96864 0.0
C420 C 0.50882 0.30864 -0.00434 0.0
C421 C 0.50077 0.27103 0.96706 0.0
C422 C 0.51592 0.23171 0.01958 0.0
H423 H 0.54519 0.14874 0.94249 0.0
H424 H 0.52565 0.17399 0.94181 0.0
H425 H 0.52201 0.20424 0.04179 0.0
H426 H 0.52958 0.31629 0.04263 0.0
H427 H 0.53389 0.28013 0.03977 0.0
H428 H 0.52673 0.24991 0.93643 0.0
C429 C 0.53802 0.17625 0.96243 0.0
C430 C 0.52291 0.21394 0.01855 0.0
C431 C 0.54915 0.16179 0.96287 0.0
C432 C 0.52128 0.3038 0.02143 0.0
C433 C 0.5236 0.28295 0.01994 0.0
C434 C 0.52508 0.23966 0.9594 0.0
C435 C 0.54271 0.1933 0.98857 0.0
C436 C 0.53177 0.20934 0.98819 0.0
C437 C 0.51357 0.26645 0.99261 0.0
C438 C 0.51761 0.24526 0.99027 0.0
H439 H 0.58237 0.18402 0.03603 0.0
H440 H 0.56315 0.20903 0.0351 0.0
H441 H 0.53898 0.21877 0.93466 0.0
H442 H 0.48857 0.29503 0.94838 0.0
H443 H 0.49271 0.25854 0.94582 0.0
C444 C 0.68662 0.21811 0.00906 0.0
C445 C 0.68596 0.19876 0.99038 0.0
C446 C 0.70475 0.24223 0.00279 0.0
C447 C 0.7662 0.2816 0.9702 0.0
H448 H 0.7433 0.32797 0.9588 0.0
C449 C 0.83223 0.3864 0.95246 0.0
C450 C 0.82645 0.4011 0.97303 0.0
C451 C 0.81561 0.36126 0.94908 0.0
C452 C 0.75002 0.31528 0.96202 0.0
H453 H 0.7045 0.18956 0.95141 0.0
H454 H 0.7366 0.23201 0.94092 0.0
H455 H 0.71373 0.28452 0.96475 0.0
H456 H 0.7985 0.40089 0.00574 0.0
H457 H 0.77002 0.35755 0.00015 0.0
H458 H 0.80258 0.3126 0.96889 0.0
C459 C 0.72283 0.2283 0.96016 0.0
C460 C 0.73309 0.29043 0.96538 0.0
C461 C 0.70445 0.20406 0.96615 0.0
C462 C 0.80362 0.39022 0.98963 0.0
C463 C 0.78713 0.3653 0.9862 0.0
C464 C 0.78324 0.30662 0.96712 0.0
C465 C 0.72279 0.2476 0.97796 0.0
C466 C 0.74099 0.27344 0.97043 0.0
C467 C 0.79288 0.35048 0.966 0.0
C468 C 0.77528 0.32378 0.964 0.0
H469 H 0.67274 0.21475 0.02795 0.0
H470 H 0.70455 0.25678 0.01724 0.0
H471 H 0.77271 0.26881 0.97405 0.0
H472 H 0.84968 0.39421 0.93938 0.0
H473 H 0.8205 0.35029 0.93322 0.0
C474 C 0.61597 0.449 0.96103 0.0
C475 C 0.6024 0.43273 0.98744 0.0
C476 C 0.64158 0.46101 0.96124 0.0
C477 C 0.69424 0.47884 0.01847 0.0
H478 H 0.72776 0.4754 0.93753 0.0
C479 C 0.78722 0.48384 0.02361 0.0
C480 C 0.80414 0.49529 -0.00297 0.0
C481 C 0.76404 0.48145 0.02205 0.0
C482 C 0.71879 0.47701 0.96014 0.0
H483 H 0.6051 0.41656 0.03496 0.0
H484 H 0.64955 0.43739 0.0352 0.0
H485 H 0.68401 0.46129 0.93507 0.0
H486 H 0.81028 0.51407 0.94852 0.0
H487 H 0.76963 0.50989 0.94589 0.0
H488 H 0.72881 0.49393 0.04382 0.0
C489 C 0.64046 0.44103 0.01449 0.0
C490 C 0.69373 0.46889 0.95872 0.0
C491 C 0.61495 0.42891 0.01416 0.0
C492 C 0.79763 0.50506 0.96937 0.0
C493 C 0.77434 0.50258 0.96777 0.0
C494 C 0.71927 0.48702 0.01986 0.0
C495 C 0.65404 0.45717 0.98806 0.0
C496 C 0.68109 0.46904 0.98815 0.0
C497 C 0.75719 0.49044 -0.00611 0.0
C498 C 0.73166 0.4855 0.991 0.0
H499 H 0.60684 0.45236 0.9401 0.0
H500 H 0.65164 0.4734 0.94058 0.0
H501 H 0.68503 0.4796 0.04137 0.0
H502 H 0.79162 0.47616 0.04535 0.0
H503 H 0.75115 0.4717 0.04238 0.0
C504 C 0.69387 0.47658 0.52445 0.0
C505 C 0.69091 0.49124 0.50009 0.0
C506 C 0.71271 0.47123 0.52125 0.0
C507 C 0.77208 0.48959 0.48156 0.0
H508 H 0.7515 0.42092 0.49389 0.0
C509 C 0.8367 0.44872 0.46431 0.0
C510 C 0.83445 0.43201 0.4898 0.0
C511 C 0.82003 0.45728 0.46274 0.0
C512 C 0.75759 0.44018 0.49057 0.0
H513 H 0.7063 0.51282 0.45415 0.0
H514 H 0.7394 0.50341 0.44871 0.0
H515 H 0.7214 0.43419 0.4975 0.0
H516 H 0.81327 0.41175 0.53411 0.0
H517 H 0.78471 0.42673 0.53148 0.0
H518 H 0.80849 0.49553 0.47527 0.0
C519 C 0.72698 0.49607 0.47019 0.0
C520 C 0.74035 0.44777 0.49267 0.0
C521 C 0.70799 0.50138 0.4733 0.0
C522 C 0.81548 0.42439 0.51389 0.0
C523 C 0.79896 0.43289 0.5123 0.0
C524 C 0.78946 0.48197 0.4796 0.0
C525 C 0.7291 0.48044 0.49369 0.0
C526 C 0.74747 0.4726 0.48893 0.0
C527 C 0.80082 0.44918 0.48653 0.0
C528 C 0.78243 0.45725 0.48487 0.0
H529 H 0.68122 0.46863 0.54559 0.0
H530 H 0.71422 0.4595 0.54012 0.0
H531 H 0.77802 0.50884 0.47853 0.0
H532 H 0.85115 0.45499 0.44543 0.0
H533 H 0.82187 0.46981 0.44256 0.0
C534 C 0.49574 0.20535 0.4856 0.0
C535 C 0.50652 0.1984 0.51141 0.0
C536 C 0.49873 0.22885 0.48525 0.0
C537 C 0.51834 0.28438 0.53823 0.0
H538 H 0.53817 0.31844 0.45155 0.0
C539 C 0.57323 0.38913 0.52772 0.0
C540 C 0.56767 0.40058 0.50123 0.0
C541 C 0.56179 0.36367 0.52945 0.0
C542 C 0.53224 0.30909 0.47582 0.0
H543 H 0.52807 0.21043 0.55787 0.0
H544 H 0.53349 0.25138 0.55698 0.0
H545 H 0.52467 0.2749 0.4541 0.0
H546 H 0.54543 0.39417 0.45602 0.0
H547 H 0.52549 0.34956 0.45906 0.0
H548 H 0.52669 0.31881 0.56008 0.0
C549 C 0.52252 0.23862 0.5372 0.0
C550 C 0.52447 0.28412 0.4773 0.0
C551 C 0.51954 0.21515 0.53756 0.0
C552 C 0.55018 0.38593 0.47671 0.0
C553 C 0.53881 0.36041 0.47836 0.0
C554 C 0.52617 0.30935 0.53676 0.0
C555 C 0.51251 0.24588 0.51072 0.0
C556 C 0.51793 0.27161 0.50863 0.0
C557 C 0.54459 0.34904 0.50469 0.0
C558 C 0.53369 0.32207 0.50566 0.0
H559 H 0.48546 0.19285 0.46519 0.0
H560 H 0.49052 0.23381 0.46477 0.0
H561 H 0.513 0.27515 0.56265 0.0
H562 H 0.58657 0.39982 0.54708 0.0
H563 H 0.5669 0.35546 0.54975 0.0
C564 C 0.61714 0.17276 0.47696 0.0
C565 C 0.60194 0.17329 0.50281 0.0
C566 C 0.64246 0.18878 0.47798 0.0
C567 C 0.68792 0.24785 0.5155 0.0
H568 H 0.73504 0.22807 0.49037 0.0
C569 C 0.79037 0.31157 0.53699 0.0
C570 C 0.80586 0.31467 0.50933 0.0
C571 C 0.76607 0.29264 0.53698 0.0
C572 C 0.72205 0.23384 0.49724 0.0
H573 H 0.60154 0.19048 0.55062 0.0
H574 H 0.64549 0.218 0.55259 0.0
H575 H 0.69118 0.19813 0.48843 0.0
H576 H 0.80824 0.29951 0.46072 0.0
H577 H 0.76563 0.26645 0.46071 0.0
H578 H 0.71859 0.28346 0.5243 0.0
C579 C 0.63787 0.20563 0.53113 0.0
C580 C 0.69698 0.21675 0.49606 0.0
C581 C 0.61265 0.18975 0.53005 0.0
C582 C 0.79678 0.29769 0.48238 0.0
C583 C 0.77241 0.27869 0.48241 0.0
C584 C 0.71288 0.26483 0.51678 0.0
C585 C 0.65304 0.20559 0.5049 0.0
C586 C 0.67966 0.22357 0.5054 0.0
C587 C 0.75668 0.27636 0.50935 0.0
C588 C 0.73022 0.258 0.50788 0.0
H589 H 0.60946 0.16028 0.45563 0.0
H590 H 0.65365 0.18843 0.45726 0.0
H591 H 0.67506 0.25385 0.52208 0.0
H592 H 0.7968 0.32415 0.55834 0.0
H593 H 0.75448 0.29099 0.55841 0.0
C594 C 0.17451 0.63542 0.36228 0.0
C595 C 0.1766 0.64922 0.33309 0.0
C596 C 0.17931 0.6161 0.36056 0.0
C597 C 0.19108 0.57713 0.30025 0.0
H598 H 0.22663 0.57257 0.37781 0.0
C599 C 0.25717 0.53499 0.34015 0.0
C600 C 0.24455 0.51182 0.32473 0.0
C601 C 0.24731 0.55047 0.34015 0.0
C602 C 0.21695 0.57372 0.35574 0.0
H603 H 0.1845 0.65311 0.27894 0.0
H604 H 0.19388 0.62005 0.27612 0.0
H605 H 0.21187 0.60135 0.37918 0.0
H606 H 0.21172 0.48675 0.29695 0.0
H607 H 0.19408 0.51352 0.29785 0.0
H608 H 0.19747 0.55037 0.27614 0.0
C609 C 0.18792 0.62366 0.30023 0.0
C610 C 0.20802 0.58997 0.35678 0.0
C611 C 0.18266 0.64272 0.30184 0.0
C612 C 0.22193 0.50456 0.30893 0.0
C613 C 0.21188 0.51996 0.30932 0.0
C614 C 0.20031 0.56104 0.29905 0.0
C615 C 0.18683 0.61044 0.32975 0.0
C616 C 0.19507 0.59202 0.329 0.0
C617 C 0.22437 0.54304 0.3252 0.0
C618 C 0.21358 0.55933 0.32668 0.0
H619 H 0.16952 0.6398 0.38663 0.0
H620 H 0.17755 0.60591 0.38363 0.0
H621 H 0.18092 0.57796 0.27854 0.0
H622 H 0.27478 0.54127 0.35217 0.0
H623 H 0.2578 0.56834 0.35182 0.0
C624 C 0.50925 0.7211 0.30972 0.0
C625 C 0.5069 0.73495 0.33602 0.0
C626 C 0.4953 0.69553 0.31016 0.0
C627 C 0.45829 0.64285 0.3671 0.0
H628 H 0.42298 0.6107 0.28461 0.0
C629 C 0.36886 0.55061 0.36765 0.0
C630 C 0.36412 0.53401 0.34088 0.0
C631 C 0.3899 0.57366 0.36734 0.0
C632 C 0.43307 0.61929 0.30769 0.0
H633 H 0.4884 0.73273 0.38375 0.0
H634 H 0.46405 0.68836 0.38429 0.0
H635 H 0.45352 0.65415 0.28323 0.0
H636 H 0.37832 0.52829 0.29343 0.0
H637 H 0.41514 0.56864 0.29299 0.0
H638 H 0.43728 0.60816 0.3918 0.0
C639 C 0.47684 0.69719 0.36353 0.0
C640 C 0.45055 0.64419 0.30689 0.0
C641 C 0.49066 0.72268 0.36303 0.0
C642 C 0.38134 0.54068 0.31437 0.0
C643 C 0.40239 0.56382 0.31402 0.0
C644 C 0.44082 0.61797 0.3679 0.0
C645 C 0.47888 0.68334 0.33701 0.0
C646 C 0.46287 0.65636 0.3368 0.0
C647 C 0.40668 0.58067 0.34025 0.0
C648 C 0.42757 0.60608 0.3384 0.0
H649 H 0.52166 0.73 0.28858 0.0
H650 H 0.49734 0.6853 0.28948 0.0
H651 H 0.46784 0.65166 0.39041 0.0
H652 H 0.35603 0.54606 0.38853 0.0
H653 H 0.39252 0.58634 0.38771 0.0
C654 C 0.45458 0.80622 0.37122 0.0
C655 C 0.47147 0.8222 0.34701 0.0
C656 C 0.4301 0.8002 0.36992 0.0
C657 C 0.38763 0.81902 0.33658 0.0
H658 H 0.34012 0.7498 0.34464 0.0
C659 C 0.28358 0.78001 0.31629 0.0
C660 C 0.26784 0.76165 0.33913 0.0
C661 C 0.30865 0.788 0.31596 0.0
C662 C 0.35311 0.76922 0.34272 0.0
H663 H 0.47603 0.84525 0.30331 0.0
H664 H 0.43311 0.83471 0.30118 0.0
H665 H 0.38363 0.76347 0.34764 0.0
H666 H 0.26617 0.73742 0.37969 0.0
H667 H 0.30974 0.75159 0.37946 0.0
H668 H 0.35702 0.82477 0.33212 0.0
C669 C 0.43894 0.82687 0.32111 0.0
C670 C 0.37804 0.77704 0.34441 0.0
C671 C 0.46349 0.83283 0.32229 0.0
C672 C 0.27771 0.75147 0.36159 0.0
C673 C 0.30272 0.75951 0.36134 0.0
C674 C 0.36261 0.8112 0.33508 0.0
C675 C 0.42194 0.81009 0.34448 0.0
C676 C 0.39555 0.80202 0.3417 0.0
C677 C 0.31849 0.77783 0.3385 0.0
C678 C 0.34508 0.78621 0.33847 0.0
H679 H 0.46009 0.79781 0.39076 0.0
H680 H 0.41746 0.78755 0.38863 0.0
H681 H 0.40076 0.8384 0.33457 0.0
H682 H 0.27656 0.7882 0.2986 0.0
H683 H 0.32028 0.80195 0.2978 0.0
C684 C 0.50269 0.78166 0.81228 0.0
C685 C 0.50102 0.76499 0.83741 0.0
C686 C 0.48604 0.79022 0.81192 0.0
C687 C 0.42446 0.7737 0.84313 0.0
H688 H 0.44482 0.84188 0.82633 0.0
C689 C 0.36001 0.81091 0.86901 0.0
C690 C 0.35766 0.82488 0.84294 0.0
C691 C 0.3789 0.80549 0.86814 0.0
C692 C 0.4389 0.82276 0.8308 0.0
H693 H 0.48095 0.74475 0.88237 0.0
H694 H 0.45237 0.75986 0.88195 0.0
H695 H 0.47514 0.82843 0.82426 0.0
H696 H 0.37409 0.84515 0.79637 0.0
H697 H 0.40714 0.83558 0.79493 0.0
H698 H 0.38835 0.76798 0.84996 0.0
C699 C 0.46614 0.76595 0.86209 0.0
C700 C 0.4562 0.81505 0.82952 0.0
C701 C 0.48265 0.75737 0.8624 0.0
C702 C 0.37532 0.83426 0.81679 0.0
C703 C 0.3943 0.82887 0.816 0.0
C704 C 0.40727 0.78139 0.84455 0.0
C705 C 0.46746 0.78225 0.83668 0.0
C706 C 0.44917 0.79047 0.8361 0.0
C707 C 0.3959 0.81395 0.84125 0.0
C708 C 0.41434 0.80603 0.83881 0.0
H709 H 0.51666 0.78789 0.79268 0.0
H710 H 0.48741 0.80267 0.79189 0.0
H711 H 0.41835 0.75452 0.84751 0.0
H712 H 0.34688 0.80356 0.8897 0.0
H713 H 0.37997 0.79432 0.88829 0.0
C714 C 0.19048 0.54719 0.87094 0.0
C715 C 0.1811 0.53184 0.84231 0.0
C716 C 0.19546 0.57135 0.86959 0.0
C717 C 0.18332 0.61481 0.82284 0.0
H718 H 0.24652 0.66269 0.85953 0.0
C719 C 0.22563 0.72007 0.80649 0.0
C720 C 0.23863 0.73477 0.83448 0.0
C721 C 0.21686 0.69482 0.807 0.0
C722 C 0.22867 0.64957 0.84958 0.0
H723 H 0.16858 0.52962 0.79021 0.0
H724 H 0.17739 0.57203 0.7879 0.0
H725 H 0.23396 0.61947 0.86141 0.0
H726 H 0.25163 0.73427 0.88555 0.0
H727 H 0.23604 0.69043 0.88663 0.0
H728 H 0.17809 0.64511 0.81113 0.0
C729 C 0.18082 0.56522 0.81139 0.0
C730 C 0.22148 0.62479 0.85062 0.0
C731 C 0.17587 0.54097 0.81269 0.0
C732 C 0.24196 0.72357 0.86336 0.0
C733 C 0.23312 0.69842 0.86393 0.0
C734 C 0.1905 0.63971 0.82191 0.0
C735 C 0.19117 0.58078 0.83961 0.0
C736 C 0.19867 0.60711 0.83757 0.0
C737 C 0.22087 0.68379 0.83555 0.0
C738 C 0.21318 0.65735 0.83558 0.0
H739 H 0.19453 0.54076 0.89431 0.0
H740 H 0.20299 0.58277 0.89197 0.0
H741 H 0.16559 0.60155 0.81271 0.0
H742 H 0.22275 0.72813 0.78384 0.0
H743 H 0.20762 0.68409 0.78465 0.0
C744 C 0.28179 0.5249 0.86069 0.0
C745 C 0.27054 0.50606 0.83648 0.0
C746 C 0.30681 0.54162 0.85896 0.0
C747 C 0.36523 0.55145 0.8229 0.0
H748 H 0.38663 0.61907 0.84568 0.0
C749 C 0.46597 0.63297 0.81218 0.0
C750 C 0.47412 0.64885 0.84044 0.0
C751 C 0.44148 0.61423 0.80996 0.0
C752 C 0.38093 0.60022 0.83942 0.0
H753 H 0.2769 0.48995 0.79151 0.0
H754 H 0.32072 0.51956 0.78815 0.0
H755 H 0.34309 0.58929 0.84398 0.0
H756 H 0.46311 0.65671 0.88919 0.0
H757 H 0.4207 0.62429 0.88511 0.0
H758 H 0.40339 0.56276 0.81813 0.0
C759 C 0.31013 0.52113 0.80874 0.0
C760 C 0.35599 0.58314 0.83853 0.0
C761 C 0.285 0.50425 0.81057 0.0
C762 C 0.45751 0.64499 0.86691 0.0
C763 C 0.43313 0.62648 0.86455 0.0
C764 C 0.3903 0.56868 0.82353 0.0
C765 C 0.32127 0.54011 0.83283 0.0
C766 C 0.34782 0.55844 0.83098 0.0
C767 C 0.42475 0.61124 0.83579 0.0
C768 C 0.39834 0.59312 0.83249 0.0
H769 H 0.2713 0.52673 0.8812 0.0
H770 H 0.31487 0.55566 0.87839 0.0
H771 H 0.35954 0.53255 0.81716 0.0
H772 H 0.47831 0.63539 0.7914 0.0
H773 H 0.43544 0.60269 0.78751 0.0
C774 C 0.83222 0.96096 0.64968 0.0
C775 C 0.83848 0.97625 0.67847 0.0
C776 C 0.83715 0.94165 0.64888 0.0
C777 C 0.88058 0.92595 0.6859 0.0
H778 H 0.83835 0.8609 0.6495 0.0
C779 C 0.90725 0.85201 0.69631 0.0
C780 C 0.90355 0.83716 0.66768 0.0
C781 C 0.89707 0.86716 0.69773 0.0
C782 C 0.85041 0.87908 0.65941 0.0
H783 H 0.85308 0.98207 0.72989 0.0
H784 H 0.86147 0.94843 0.72847 0.0
H785 H 0.82367 0.89027 0.65214 0.0
H786 H 0.8857 0.82612 0.6184 0.0
H787 H 0.86829 0.85311 0.62061 0.0
H788 H 0.90748 0.91524 0.69267 0.0
C789 C 0.85325 0.95168 0.70629 0.0
C790 C 0.84199 0.89583 0.66099 0.0
C791 C 0.84836 0.97091 0.70711 0.0
C792 C 0.88891 0.83737 0.6408 0.0
C793 C 0.87883 0.85273 0.64214 0.0
C794 C 0.88901 0.90936 0.68417 0.0
C795 C 0.84842 0.93734 0.67683 0.0
C796 C 0.85694 0.91934 0.6746 0.0
C797 C 0.88311 0.86805 0.67044 0.0
C798 C 0.87397 0.88564 0.67126 0.0
H799 H 0.82452 0.96454 0.62723 0.0
H800 H 0.83326 0.93088 0.62582 0.0
H801 H 0.89275 0.94415 0.69571 0.0
H802 H 0.91812 0.85204 0.71769 0.0
H803 H 0.90025 0.8783 0.72026 0.0
C804 C 0.15118 0.05751 0.69552 0.0
C805 C 0.16845 0.06895 0.6693 0.0
C806 C 0.13655 0.03206 0.69657 0.0
C807 C 0.11096 0.97796 0.64156 0.0
H808 H 0.09545 0.94288 0.7275 0.0
C809 C 0.04406 0.87382 0.64909 0.0
C810 C 0.02623 0.86643 0.67487 0.0
C811 C 0.06433 0.89751 0.64903 0.0
C812 C 0.09954 0.95244 0.70332 0.0
H813 H 0.18409 0.06252 0.62382 0.0
H814 H 0.15845 0.01801 0.62571 0.0
H815 H 0.12553 0.98653 0.72607 0.0
H816 H 0.01621 0.87791 0.72146 0.0
H817 H 0.05128 0.91911 0.72109 0.0
H818 H 0.08451 0.94406 0.61893 0.0
C819 C 0.15619 0.02883 0.64531 0.0
C820 C 0.11675 0.97741 0.70251 0.0
C821 C 0.17092 0.05431 0.64433 0.0
C822 C 0.02955 0.88297 0.70116 0.0
C823 C 0.04978 0.90658 0.70111 0.0
C824 C 0.09371 0.95298 0.64238 0.0
C825 C 0.13879 0.01745 0.67137 0.0
C826 C 0.1223 0.99053 0.67173 0.0
C827 C 0.06722 0.91425 0.67479 0.0
C828 C 0.08747 0.94005 0.67338 0.0
H829 H 0.14879 0.0682 0.71518 0.0
H830 H 0.12307 0.02386 0.71671 0.0
H831 H 0.11467 0.98762 0.61751 0.0
H832 H 0.04214 0.86152 0.62854 0.0
H833 H 0.07763 0.9028 0.62863 0.0
C834 C 0.94369 0.08088 0.67895 0.0
C835 C 0.93378 0.09533 0.66818 0.0
C836 C 0.96897 0.09062 0.68018 0.0
C837 C 0.02789 0.14269 0.64966 0.0
H838 H 0.05372 0.11892 0.72029 0.0
C839 C 0.12584 0.15665 0.70612 0.0
C840 C 0.13798 0.15938 0.67504 0.0
C841 C 0.10186 0.15236 0.7066 0.0
C842 C 0.047 0.1262 0.70075 0.0
H843 H 0.94247 0.13131 0.65025 0.0
H844 H 0.98677 0.14871 0.65365 0.0
H845 H 0.0104 0.10521 0.71922 0.0
H846 H 0.1348 0.16022 0.62009 0.0
H847 H 0.0927 0.15157 0.62074 0.0
H848 H 0.06474 0.16451 0.6321 0.0
C849 C 0.97503 0.12963 0.66028 0.0
C850 C 0.02195 0.1179 0.69972 0.0
C851 C 0.94965 0.11971 0.65844 0.0
C852 C 0.12593 0.15833 0.64447 0.0
C853 C 0.10179 0.15353 0.64489 0.0
C854 C 0.05306 0.15135 0.65105 0.0
C855 C 0.98501 0.11522 0.67136 0.0
C856 C 0.01197 0.12559 0.67374 0.0
C857 C 0.0893 0.15015 0.67595 0.0
C858 C 0.06289 0.14284 0.67623 0.0
H859 H 0.93188 0.06193 0.68621 0.0
H860 H 0.97589 0.07872 0.68788 0.0
H861 H 0.0209 0.14895 0.62915 0.0
H862 H 0.13483 0.15769 0.7301 0.0
H863 H 0.0931 0.15049 0.73105 0.0
C864 C 0.16564 0.11099 0.13738 0.0
C865 C 0.16267 0.09282 0.16083 0.0
C866 C 0.14882 0.11932 0.13641 0.0
C867 C 0.08573 0.10164 0.1626 0.0
H868 H 0.10825 0.17109 0.15559 0.0
C869 C 0.02336 0.13987 0.19667 0.0
C870 C 0.0219 0.15591 0.17313 0.0
C871 C 0.04159 0.13364 0.19371 0.0
C872 C 0.10172 0.15164 0.15722 0.0
H873 H 0.13974 0.06926 0.20171 0.0
H874 H 0.11082 0.08396 0.2003 0.0
H875 H 0.13786 0.15681 0.15208 0.0
H876 H 0.03926 0.17888 0.12893 0.0
H877 H 0.07133 0.16798 0.12394 0.0
H878 H 0.04973 0.09646 0.16842 0.0
C879 C 0.12583 0.09149 0.18223 0.0
C880 C 0.11862 0.14345 0.15512 0.0
C881 C 0.14254 0.08315 0.18317 0.0
C882 C 0.03981 0.16642 0.14742 0.0
C883 C 0.0582 0.16024 0.14459 0.0
C884 C 0.06894 0.10981 0.1649 0.0
C885 C 0.12873 0.10962 0.15884 0.0
C886 C 0.11082 0.11837 0.15835 0.0
C887 C 0.05887 0.14334 0.16725 0.0
C888 C 0.07679 0.13491 0.16279 0.0
H889 H 0.18095 0.11881 0.1198 0.0
H890 H 0.15143 0.13316 0.1179 0.0
H891 H 0.07904 0.08216 0.16437 0.0
H892 H 0.01001 0.13156 0.21696 0.0
H893 H 0.04197 0.12091 0.21192 0.0
C894 C 0.85654 0.88468 0.19417 0.0
C895 C 0.84425 0.8679 0.16776 0.0
C896 C 0.8585 0.9077 0.19399 0.0
C897 C 0.85952 0.95328 0.13559 0.0
H898 H 0.85656 0.98437 0.21939 0.0
C899 C 0.88305 0.05454 0.14048 0.0
C900 C 0.89923 0.06829 0.16684 0.0
C901 C 0.87187 0.02899 0.14029 0.0
C902 C 0.85746 0.97593 0.19578 0.0
H903 H 0.82381 0.86198 0.12082 0.0
H904 H 0.82733 0.90237 0.12053 0.0
H905 H 0.84463 0.94112 0.21973 0.0
H906 H 0.91589 0.06589 0.21404 0.0
H907 H 0.89661 0.02157 0.21352 0.0
H908 H 0.87309 0.9883 0.11188 0.0
C909 C 0.83555 0.89765 0.14125 0.0
C910 C 0.85063 0.95119 0.19598 0.0
C911 C 0.83346 0.8745 0.14151 0.0
C912 C 0.90357 0.05592 0.1933 0.0
C913 C 0.89234 0.03045 0.19318 0.0
C914 C 0.86637 0.97806 0.1354 0.0
C915 C 0.84827 0.91455 0.16735 0.0
C916 C 0.85222 0.93978 0.1661 0.0
C917 C 0.87651 0.01671 0.16657 0.0
C918 C 0.86604 0.98979 0.1657 0.0
H919 H 0.86502 0.8802 0.21483 0.0
H920 H 0.86872 0.92044 0.21421 0.0
H921 H 0.86113 0.94504 0.11222 0.0
H922 H 0.87927 0.06352 0.11975 0.0
H923 H 0.85963 0.01884 0.11956 0.0
C924 C 0.13366 0.9648 0.13182 0.0
C925 C 0.14127 0.97881 0.16188 0.0
C926 C 0.11009 0.94442 0.12938 0.0
C927 C 0.0563 0.90174 0.18185 0.0
H928 H 0.019 0.8964 0.10051 0.0
C929 C 0.95167 0.85452 0.18117 0.0
C930 C 0.93882 0.83886 0.15392 0.0
C931 C 0.97715 0.86848 0.18054 0.0
C932 C 0.0293 0.89741 0.12315 0.0
H933 H 0.13023 0.98194 0.21326 0.0
H934 H 0.08933 0.94689 0.20881 0.0
H935 H 0.06274 0.92629 0.10241 0.0
H936 H 0.9427 0.82566 0.10452 0.0
H937 H 0.98747 0.85055 0.10324 0.0
H938 H 0.02261 0.8736 0.20308 0.0
C939 C 0.10158 0.95132 0.18725 0.0
C940 C 0.05436 0.91447 0.12423 0.0
C941 C 0.12505 0.9716 0.18969 0.0
C942 C 0.95208 0.83753 0.12593 0.0
C943 C 0.97765 0.85179 0.12512 0.0
C944 C 0.03127 0.88485 0.18084 0.0
C945 C 0.0937 0.93762 0.15697 0.0
C946 C 0.068 0.91727 0.15395 0.0
C947 C 0.99041 0.86732 0.15251 0.0
C948 C 0.01741 0.88295 0.15181 0.0
H949 H 0.14573 0.96979 0.10996 0.0
H950 H 0.10464 0.93409 0.10581 0.0
H951 H 0.06638 0.90305 0.20484 0.0
H952 H 0.94205 0.85594 0.20318 0.0
H953 H 0.98649 0.88056 0.20179 0.0
C954 C 0.48606 0.10461 0.35228 0.0
C955 C 0.50415 0.1243 0.37099 0.0
C956 C 0.48945 0.10268 0.31741 0.0
C957 C 0.52732 0.13539 0.2426 0.0
H958 H 0.531 0.07647 0.22773 0.0
C959 C 0.59078 0.13223 0.14148 0.0
C960 C 0.58239 0.11086 0.12192 0.0
C961 C 0.57752 0.13249 0.16977 0.0
C962 C 0.52964 0.0928 0.23109 0.0
H963 H 0.53869 0.15829 0.36836 0.0
H964 H 0.54427 0.15543 0.3074 0.0
H965 H 0.51095 0.08009 0.27875 0.0
H966 H 0.554 0.07272 0.11748 0.0
H967 H 0.53074 0.07327 0.16672 0.0
H968 H 0.54651 0.1484 0.19542 0.0
C969 C 0.52761 0.14142 0.31934 0.0
C970 C 0.51805 0.09481 0.26022 0.0
C971 C 0.52449 0.14305 0.35417 0.0
C972 C 0.56105 0.08945 0.13215 0.0
C973 C 0.54766 0.08977 0.16033 0.0
C974 C 0.53872 0.1333 0.21333 0.0
C975 C 0.5107 0.1207 0.30099 0.0
C976 C 0.51753 0.11645 0.26675 0.0
C977 C 0.55547 0.11146 0.17897 0.0
C978 C 0.54078 0.11235 0.20788 0.0
H979 H 0.47038 0.08984 0.36504 0.0
H980 H 0.4762 0.08655 0.30368 0.0
H981 H 0.52702 0.15219 0.24705 0.0
H982 H 0.60726 0.14898 0.13442 0.0
H983 H 0.58444 0.1493 0.18423 0.0
C984 C 0.9132 0.40841 0.35345 0.0
C985 C 0.89435 0.3876 0.36941 0.0
C986 C 0.91301 0.41125 0.31831 0.0
C987 C 0.86836 0.39865 0.25443 0.0
H988 H 0.92454 0.42997 0.1941 0.0
C989 C 0.86381 0.4395 0.12499 0.0
C990 C 0.88443 0.46184 0.11562 0.0
C991 C 0.86473 0.42639 0.15303 0.0
C992 C 0.90871 0.42137 0.21072 0.0
H993 H 0.86142 0.35267 0.36153 0.0
H994 H 0.86065 0.35797 0.29955 0.0
H995 H 0.92761 0.41174 0.24746 0.0
H996 H 0.92193 0.48829 0.12889 0.0
H997 H 0.92322 0.46592 0.17871 0.0
H998 H 0.84989 0.40958 0.21915 0.0
C999 C 0.87571 0.37187 0.3143 0.0
C1000 C 0.91041 0.4107 0.241 0.0
C1001 C 0.8762 0.36879 0.34956 0.0
C1002 C 0.90577 0.47111 0.13541 0.0
C1003 C 0.90659 0.45811 0.16371 0.0
C1004 C 0.86673 0.40955 0.22437 0.0
C1005 C 0.89368 0.39353 0.29864 0.0
C1006 C 0.89045 0.39982 0.26352 0.0
C1007 C 0.88617 0.43545 0.17259 0.0
C1008 C 0.88711 0.42163 0.20263 0.0
H1009 H 0.92738 0.42311 0.36842 0.0
H1010 H 0.92694 0.42822 0.30696 0.0
H1011 H 0.85283 0.39075 0.27165 0.0
H1012 H 0.84715 0.43169 0.11006 0.0
H1013 H 0.84875 0.4089 0.15892 0.0
C1014 C 0.61839 0.47801 0.35121 0.0
C1015 C 0.61991 0.49844 0.36765 0.0
C1016 C 0.61394 0.47475 0.31634 0.0
C1017 C 0.57833 0.48468 0.25471 0.0
H1018 H 0.6049 0.45609 0.19239 0.0
C1019 C 0.53314 0.44198 0.12494 0.0
C1020 C 0.53292 0.4203 0.11582 0.0
C1021 C 0.54641 0.45549 0.15329 0.0
C1022 C 0.5972 0.46394 0.20957 0.0
H1023 H 0.61922 0.53216 0.36095 0.0
H1024 H 0.61067 0.52613 0.29945 0.0
H1025 H 0.62677 0.47527 0.24498 0.0
H1026 H 0.54542 0.39515 0.1303 0.0
H1027 H 0.56786 0.41825 0.18026 0.0
H1028 H 0.54806 0.47215 0.22042 0.0
C1029 C 0.61335 0.51289 0.31356 0.0
C1030 C 0.60986 0.47513 0.23942 0.0
C1031 C 0.61837 0.51641 0.34851 0.0
C1032 C 0.54535 0.41187 0.13647 0.0
C1033 C 0.55847 0.42527 0.16488 0.0
C1034 C 0.56555 0.47331 0.22495 0.0
C1035 C 0.61039 0.49164 0.29747 0.0
C1036 C 0.60017 0.48494 0.26272 0.0
C1037 C 0.55961 0.44751 0.17318 0.0
C1038 C 0.57447 0.46213 0.20262 0.0
H1039 H 0.61939 0.4639 0.3657 0.0
H1040 H 0.61146 0.45808 0.30469 0.0
H1041 H 0.5703 0.49182 0.27251 0.0
H1042 H 0.52386 0.44907 0.10944 0.0
H1043 H 0.54695 0.47257 0.15897 0.0
C1044 C 0.88257 0.50542 0.8446 0.0
C1045 C 0.90117 0.51234 0.8688 0.0
C1046 C 0.88713 0.50277 0.81047 0.0
C1047 C 0.92656 0.4854 0.76457 0.0
H1048 H 0.8898 0.48705 0.6865 0.0
C1049 C 0.92517 0.44144 0.63398 0.0
C1050 C 0.90157 0.42669 0.62044 0.0
C1051 C 0.92871 0.45635 0.66225 0.0
C1052 C 0.90023 0.48657 0.70811 0.0
H1053 H 0.93938 0.524 0.87684 0.0
H1054 H 0.9478 0.52056 0.81693 0.0
H1055 H 0.891 0.50905 0.7384 0.0
H1056 H 0.86311 0.41551 0.62666 0.0
H1057 H 0.86936 0.44134 0.67591 0.0
H1058 H 0.93527 0.46244 0.73452 0.0
C1059 C 0.92957 0.51654 0.82413 0.0
C1060 C 0.90094 0.49915 0.73776 0.0
C1061 C 0.92488 0.51881 0.85828 0.0
C1062 C 0.88155 0.42664 0.63635 0.0
C1063 C 0.88512 0.44166 0.66433 0.0
C1064 C 0.92602 0.47301 0.73484 0.0
C1065 C 0.91041 0.50712 0.80022 0.0
C1066 C 0.91347 0.49806 0.7667 0.0
C1067 C 0.90874 0.45691 0.67722 0.0
C1068 C 0.9122 0.47284 0.70677 0.0
H1069 H 0.86406 0.49995 0.85251 0.0
H1070 H 0.87188 0.49529 0.79285 0.0
H1071 H 0.93606 0.48376 0.7865 0.0
H1072 H 0.94099 0.44194 0.62227 0.0
H1073 H 0.9471 0.46789 0.67188 0.0
C1074 C 0.56129 0.47726 0.6302 0.0
C1075 C 0.58201 0.47564 0.62097 0.0
C1076 C 0.5467 0.46379 0.65778 0.0
C1077 C 0.52691 0.44202 0.72857 0.0
H1078 H 0.51607 0.37606 0.73817 0.0
C1079 C 0.48074 0.38595 0.848 0.0
C1080 C 0.49654 0.37954 0.86423 0.0
C1081 C 0.48404 0.39231 0.81344 0.0
C1082 C 0.51872 0.39434 0.73562 0.0
H1083 H 0.60455 0.4599 0.63494 0.0
H1084 H 0.57939 0.43684 0.6832 0.0
H1085 H 0.53789 0.40047 0.68838 0.0
H1086 H 0.52671 0.37281 0.85745 0.0
H1087 H 0.53214 0.38323 0.79715 0.0
H1088 H 0.50867 0.43627 0.77655 0.0
C1089 C 0.57404 0.44797 0.66854 0.0
C1090 C 0.53136 0.40837 0.70732 0.0
C1091 C 0.58862 0.46143 0.64111 0.0
C1092 C 0.51415 0.37741 0.84512 0.0
C1093 C 0.51721 0.38337 0.81062 0.0
C1094 C 0.51426 0.42797 0.75694 0.0
C1095 C 0.55257 0.44845 0.67654 0.0
C1096 C 0.53636 0.43266 0.70417 0.0
C1097 C 0.50299 0.39203 0.79484 0.0
C1098 C 0.51083 0.40431 0.76132 0.0
H1099 H 0.55565 0.48801 0.6152 0.0
H1100 H 0.5303 0.46459 0.66352 0.0
H1101 H 0.53049 0.46068 0.72677 0.0
H1102 H 0.46732 0.38807 0.8626 0.0
H1103 H 0.47277 0.39882 0.8018 0.0
C1104 C 0.59319 0.07612 0.85947 0.0
C1105 C 0.6108 0.09948 0.87065 0.0
C1106 C 0.58618 0.07221 0.82532 0.0
C1107 C 0.59794 0.10268 0.74012 0.0
H1108 H 0.52691 0.06888 0.73672 0.0
C1109 C 0.51717 0.08005 0.63574 0.0
C1110 C 0.52585 0.10384 0.62299 0.0
C1111 C 0.52817 0.07623 0.66418 0.0
C1112 C 0.54673 0.07803 0.73712 0.0
H1113 H 0.63609 0.13674 0.85549 0.0
H1114 H 0.6235 0.1303 0.79587 0.0
H1115 H 0.5472 0.06698 0.78831 0.0
H1116 H 0.55242 0.14232 0.63072 0.0
H1117 H 0.57148 0.13556 0.68024 0.0
H1118 H 0.5972 0.11484 0.68938 0.0
C1119 C 0.61548 0.11471 0.81293 0.0
C1120 C 0.55843 0.07683 0.76659 0.0
C1121 C 0.62275 0.11848 0.84705 0.0
C1122 C 0.54523 0.12376 0.63988 0.0
C1123 C 0.55637 0.1199 0.66798 0.0
C1124 C 0.5862 0.10408 0.71077 0.0
C1125 C 0.59623 0.09183 0.80209 0.0
C1126 C 0.58419 0.08964 0.76876 0.0
C1127 C 0.54821 0.0961 0.68003 0.0
C1128 C 0.56052 0.09227 0.7094 0.0
H1129 H 0.58366 0.06131 0.87757 0.0
H1130 H 0.57172 0.05424 0.81763 0.0
H1131 H 0.61776 0.11242 0.74076 0.0
H1132 H 0.50228 0.06432 0.62328 0.0
H1133 H 0.5215 0.05771 0.67317 0.0
C1134 C 0.22705 0.42377 0.46141 0.0
C1135 C 0.24934 0.44511 0.45402 0.0
C1136 C 0.21491 0.4217 0.49205 0.0
C1137 C 0.22629 0.4419 0.57913 0.0
H1138 H 0.15777 0.42409 0.58351 0.0
C1139 C 0.17668 0.41601 0.70447 0.0
C1140 C 0.16974 0.4329 0.71531 0.0
C1141 C 0.18126 0.41436 0.67023 0.0
C1142 C 0.17687 0.42904 0.58244 0.0
H1143 H 0.27652 0.48087 0.4729 0.0
H1144 H 0.25558 0.47686 0.527 0.0
H1145 H 0.17759 0.4287 0.5277 0.0
H1146 H 0.15956 0.4594 0.69881 0.0
H1147 H 0.16778 0.45653 0.6382 0.0
H1148 H 0.22568 0.44196 0.63355 0.0
C1149 C 0.24746 0.46195 0.50881 0.0
C1150 C 0.18813 0.43158 0.55077 0.0
C1151 C 0.2594 0.4642 0.47796 0.0
C1152 C 0.16495 0.44629 0.69097 0.0
C1153 C 0.16962 0.44465 0.65644 0.0
C1154 C 0.21499 0.43898 0.61058 0.0
C1155 C 0.22508 0.44074 0.51596 0.0
C1156 C 0.21294 0.43811 0.54901 0.0
C1157 C 0.17898 0.42956 0.64627 0.0
C1158 C 0.19023 0.43246 0.61249 0.0
H1159 H 0.21874 0.40884 0.44328 0.0
H1160 H 0.19778 0.40509 0.49729 0.0
H1161 H 0.24539 0.4468 0.57832 0.0
H1162 H 0.18006 0.40514 0.72275 0.0
H1163 H 0.18817 0.40238 0.66274 0.0
C1164 C 0.55164 0.79897 0.48268 0.0
C1165 C 0.57029 0.80946 0.45811 0.0
C1166 C 0.55396 0.78665 0.51066 0.0
C1167 C 0.59937 0.77934 0.56097 0.0
H1168 H 0.54041 0.72434 0.59791 0.0
C1169 C 0.58724 0.7563 0.70085 0.0
C1170 C 0.57132 0.73242 0.71242 0.0
C1171 C 0.59103 0.76128 0.66622 0.0
C1172 C 0.5572 0.73922 0.58751 0.0
H1173 H 0.60619 0.81557 0.44381 0.0
H1174 H 0.61006 0.7937 0.49233 0.0
H1175 H 0.53865 0.74213 0.54376 0.0
H1176 H 0.5483 0.69462 0.69717 0.0
H1177 H 0.55482 0.70338 0.63577 0.0
H1178 H 0.61789 0.77641 0.60476 0.0
C1179 C 0.5938 0.79531 0.49033 0.0
C1180 C 0.55609 0.74977 0.55678 0.0
C1181 C 0.59161 0.80793 0.46255 0.0
C1182 C 0.56055 0.7132 0.68876 0.0
C1183 C 0.56421 0.71825 0.65375 0.0
C1184 C 0.60054 0.76859 0.59146 0.0
C1185 C 0.57484 0.78422 0.51446 0.0
C1186 C 0.57691 0.77065 0.544 0.0
C1187 C 0.57894 0.7425 0.64219 0.0
C1188 C 0.57922 0.74921 0.60591 0.0
H1189 H 0.53504 0.79994 0.48001 0.0
H1190 H 0.53932 0.779 0.5293 0.0
H1191 H 0.6158 0.79532 0.55186 0.0
H1192 H 0.59607 0.77142 0.71863 0.0
H1193 H 0.60221 0.7802 0.65839 0.0
C1194 C 0.28925 0.85449 0.68602 0.0
C1195 C 0.29131 0.83608 0.70314 0.0
C1196 C 0.28363 0.85199 0.65125 0.0
C1197 C 0.27662 0.81481 0.57454 0.0
H1198 H 0.21318 0.81033 0.56584 0.0
C1199 C 0.20488 0.74664 0.48401 0.0
C1200 C 0.19217 0.75465 0.46318 0.0
C1201 C 0.21925 0.76114 0.51083 0.0
C1202 C 0.23106 0.81192 0.56754 0.0
H1203 H 0.29153 0.80206 0.69774 0.0
H1204 H 0.28251 0.79798 0.63703 0.0
H1205 H 0.23916 0.83151 0.61467 0.0
H1206 H 0.18315 0.78337 0.45566 0.0
H1207 H 0.20822 0.80865 0.50289 0.0
H1208 H 0.26808 0.79428 0.52826 0.0
C1209 C 0.28505 0.81425 0.65006 0.0
C1210 C 0.24602 0.82419 0.59533 0.0
C1211 C 0.29013 0.81649 0.68478 0.0
C1212 C 0.1927 0.77665 0.47129 0.0
C1213 C 0.20715 0.79121 0.49819 0.0
C1214 C 0.26172 0.80262 0.54676 0.0
C1215 C 0.28054 0.83131 0.63338 0.0
C1216 C 0.26845 0.82482 0.59977 0.0
C1217 C 0.22123 0.78396 0.51738 0.0
C1218 C 0.23837 0.80013 0.54383 0.0
H1219 H 0.28986 0.8696 0.70002 0.0
H1220 H 0.28024 0.86536 0.63885 0.0
H1221 H 0.29393 0.81525 0.57729 0.0
H1222 H 0.20465 0.72966 0.47867 0.0
H1223 H 0.2293 0.75473 0.52597 0.0
C1224 C 0.58742 0.77735 0.97297 0.0
C1225 C 0.56572 0.75579 0.96417 0.0
C1226 C 0.58771 0.7916 0.00046 0.0
C1227 C 0.54521 0.8032 0.05101 0.0
H1228 H 0.59709 0.83024 0.11834 0.0
C1229 C 0.5321 0.8181 0.18992 0.0
C1230 C 0.5511 0.83734 0.20802 0.0
C1231 C 0.53463 0.8154 0.1552 0.0
C1232 C 0.58278 0.8234 0.09923 0.0
H1233 H 0.52791 0.73135 0.9788 0.0
H1234 H 0.52864 0.75584 0.02709 0.0
H1235 H 0.60102 0.80933 0.06847 0.0
H1236 H 0.58696 0.8697 0.20445 0.0
H1237 H 0.5917 0.86474 0.14328 0.0
H1238 H 0.52641 0.81615 0.08272 0.0
C1239 C 0.54517 0.76217 0.0121 0.0
C1240 C 0.58497 0.81129 0.07081 0.0
C1241 C 0.54485 0.74799 0.98468 0.0
C1242 C 0.57197 0.85494 0.19064 0.0
C1243 C 0.57474 0.85198 0.15588 0.0
C1244 C 0.543 0.81522 0.07944 0.0
C1245 C 0.56635 0.7845 0.01961 0.0
C1246 C 0.56577 0.80027 0.04713 0.0
C1247 C 0.55646 0.83162 0.13823 0.0
C1248 C 0.56136 0.82464 0.10442 0.0
H1249 H 0.60379 0.78391 0.95758 0.0
H1250 H 0.60434 0.80868 0.0058 0.0
H1251 H 0.53042 0.79546 0.03263 0.0
H1252 H 0.51601 0.80422 0.20312 0.0
H1253 H 0.52037 0.79938 0.1424 0.0
C1254 C 0.22582 0.81496 0.96125 0.0
C1255 C 0.24832 0.81596 0.95539 0.0
C1256 C 0.21389 0.80681 0.99252 0.0
C1257 C 0.22482 0.80183 0.08173 0.0
H1258 H 0.15815 0.74715 0.08565 0.0
C1259 C 0.17767 0.77036 0.2088 0.0
C1260 C 0.17059 0.7459 0.21613 0.0
C1261 C 0.18181 0.77869 0.17534 0.0
C1262 C 0.17669 0.76251 0.08477 0.0
H1263 H 0.27628 0.80986 0.97776 0.0
H1264 H 0.25569 0.79626 0.0328 0.0
H1265 H 0.17767 0.76328 0.03007 0.0
H1266 H 0.15988 0.71036 0.19441 0.0
H1267 H 0.16754 0.72514 0.1353 0.0
H1268 H 0.22421 0.80103 0.13609 0.0
C1269 C 0.24725 0.80154 0.01302 0.0
C1270 C 0.18776 0.77177 0.05318 0.0
C1271 C 0.25897 0.80928 0.9816 0.0
C1272 C 0.16542 0.72931 0.18927 0.0
C1273 C 0.16974 0.73775 0.15557 0.0
C1274 C 0.2137 0.79286 0.11315 0.0
C1275 C 0.22452 0.8 0.01854 0.0
C1276 C 0.21203 0.79125 0.05155 0.0
C1277 C 0.17911 0.76276 0.14864 0.0
C1278 C 0.18964 0.773 0.11497 0.0
H1279 H 0.21709 0.81982 0.94138 0.0
H1280 H 0.19644 0.80589 -0.00356 0.0
H1281 H 0.24352 0.81692 0.081 0.0
H1282 H 0.18129 0.78339 0.22911 0.0
H1283 H 0.18859 0.79795 0.1705 0.0
C1284 C 0.2096 0.45872 0.98467 0.0
C1285 C 0.1957 0.43819 0.96396 0.0
C1286 C 0.22383 0.45765 0.01095 0.0
C1287 C 0.23298 0.41724 0.06761 0.0
H1288 H 0.29772 0.47455 0.07576 0.0
C1289 C 0.28966 0.43309 0.18773 0.0
C1290 C 0.29239 0.45436 0.20324 0.0
C1291 C 0.2844 0.42919 0.15291 0.0
C1292 C 0.27989 0.45823 0.07341 0.0
H1293 H 0.18443 0.39987 0.95612 0.0
H1294 H 0.20923 0.39801 0.00261 0.0
H1295 H 0.27238 0.47021 0.02633 0.0
H1296 H 0.2941 0.48909 0.19507 0.0
H1297 H 0.28573 0.48277 0.13426 0.0
H1298 H 0.24002 0.40595 0.11567 0.0
C1299 C 0.20922 0.41495 -0.0019 0.0
C1300 C 0.26531 0.45585 0.04541 0.0
C1301 C 0.19493 0.41601 0.97168 0.0
C1302 C 0.29217 0.47265 0.18334 0.0
C1303 C 0.28749 0.46903 0.14858 0.0
C1304 C 0.24762 0.4196 0.09566 0.0
C1305 C 0.22446 0.43604 0.0171 0.0
C1306 C 0.24129 0.43596 0.04316 0.0
C1307 C 0.28238 0.44679 0.1334 0.0
C1308 C 0.2707 0.44071 0.09955 0.0
H1309 H 0.21037 0.47599 0.97965 0.0
H1310 H 0.2348 0.47396 0.02601 0.0
H1311 H 0.21457 0.40168 0.06638 0.0
H1312 H 0.28953 0.41869 0.20295 0.0
H1313 H 0.28048 0.4119 0.14169 0.0
C1314 C 0.89222 0.75037 0.7957 0.0
C1315 C 0.91359 0.77247 0.78758 0.0
C1316 C 0.87756 0.74922 0.82322 0.0
C1317 C 0.85805 0.75089 0.89469 0.0
H1318 H 0.85017 0.80769 0.90654 0.0
C1319 C 0.81582 0.76337 0.01675 0.0
C1320 C 0.83297 0.78513 0.03279 0.0
C1321 C 0.81814 0.76002 0.98196 0.0
C1322 C 0.85194 0.79158 0.90331 0.0
H1323 H 0.93718 0.81018 0.80344 0.0
H1324 H 0.91187 0.80802 0.85149 0.0
H1325 H 0.87072 0.80436 0.85578 0.0
H1326 H 0.86469 0.82102 0.02559 0.0
H1327 H 0.86844 0.8156 0.96489 0.0
H1328 H 0.84032 0.7387 0.94306 0.0
C1329 C 0.90609 0.79179 0.83605 0.0
C1330 C 0.86384 0.78974 0.87446 0.0
C1331 C 0.92072 0.79293 0.80872 0.0
C1332 C 0.85113 0.80423 0.01342 0.0
C1333 C 0.8532 0.80109 0.97871 0.0
C1334 C 0.84613 0.75273 0.92362 0.0
C1335 C 0.88401 0.77017 0.84295 0.0
C1336 C 0.86791 0.7699 0.8706 0.0
C1337 C 0.83743 0.77857 0.96297 0.0
C1338 C 0.84388 0.77359 0.92882 0.0
H1339 H 0.88619 0.73427 0.77989 0.0
H1340 H 0.8607 0.73227 0.8282 0.0
H1341 H 0.86092 0.73538 0.89229 0.0
H1342 H 0.80191 0.74832 0.03155 0.0
H1343 H 0.80575 0.74253 0.97035 0.0
C1344 C 0.25999 0.14768 0.79193 0.0
C1345 C 0.23771 0.1473 0.78703 0.0
C1346 C 0.26324 0.1361 0.82012 0.0
C1347 C 0.22746 0.08933 0.88586 0.0
H1348 H 0.28883 0.11977 0.9354 0.0
C1349 C 0.23343 0.05236 0.01634 0.0
C1350 C 0.24253 0.07101 0.04095 0.0
C1351 C 0.23753 0.05834 0.98166 0.0
C1352 C 0.27162 0.11092 0.92167 0.0
H1353 H 0.20186 0.13558 0.80868 0.0
H1354 H 0.20789 0.1163 0.85856 0.0
H1355 H 0.28555 0.13824 0.88268 0.0
H1356 H 0.265 0.11018 0.04909 0.0
H1357 H 0.27178 0.12055 0.98931 0.0
H1358 H 0.21297 0.06312 0.92618 0.0
C1359 C 0.22252 0.12472 0.83998 0.0
C1360 C 0.26979 0.12142 0.89132 0.0
C1361 C 0.21917 0.13605 0.81164 0.0
C1362 C 0.25742 0.09543 0.03061 0.0
C1363 C 0.26159 0.10136 -0.00377 0.0
C1364 C 0.22922 0.07899 0.91639 0.0
C1365 C 0.24437 0.12411 0.84415 0.0
C1366 C 0.2474 0.11125 0.87377 0.0
C1367 C 0.25096 0.08301 0.97129 0.0
C1368 C 0.25104 0.09024 0.93531 0.0
H1369 H 0.27457 0.156 0.77325 0.0
H1370 H 0.28026 0.1359 0.82249 0.0
H1371 H 0.21016 0.08062 0.87238 0.0
H1372 H 0.22202 0.03337 0.02372 0.0
H1373 H 0.22935 0.04379 0.96297 0.0
C1374 C 0.86383 0.11263 0.80069 0.0
C1375 C 0.86415 0.09111 0.79215 0.0
C1376 C 0.87755 0.127 0.82824 0.0
C1377 C 0.93075 0.13868 0.88126 0.0
H1378 H 0.90345 0.16416 0.94738 0.0
C1379 C 0.95496 0.15173 0.02163 0.0
C1380 C 0.95504 0.17092 0.03968 0.0
C1381 C 0.95026 0.14922 0.98678 0.0
C1382 C 0.91161 0.15776 0.92866 0.0
H1383 H 0.878 0.06712 0.80702 0.0
H1384 H 0.90134 0.09179 0.85535 0.0
H1385 H 0.88026 0.14399 0.89608 0.0
H1386 H 0.95156 0.20328 0.03592 0.0
H1387 H 0.94271 0.19862 0.97447 0.0
H1388 H 0.96147 0.15124 0.91482 0.0
C1389 C 0.89113 0.09798 0.84016 0.0
C1390 C 0.89826 0.14609 0.89938 0.0
C1391 C 0.8775 0.08368 0.81269 0.0
C1392 C 0.9519 0.18854 0.02217 0.0
C1393 C 0.94668 0.18577 0.98725 0.0
C1394 C 0.94401 0.15023 0.91056 0.0
C1395 C 0.8918 0.12009 0.84773 0.0
C1396 C 0.90731 0.13561 0.87606 0.0
C1397 C 0.94501 0.16559 0.96956 0.0
C1398 C 0.93416 0.15908 0.93511 0.0
H1399 H 0.85381 0.11892 0.78528 0.0
H1400 H 0.87766 0.14391 0.83355 0.0
H1401 H 0.93847 0.13136 0.86324 0.0
H1402 H 0.9571 0.13783 0.0349 0.0
H1403 H 0.94879 0.13332 0.97393 0.0
C1404 C 0.20757 0.07649 0.31138 0.0
C1405 C 0.22861 0.0846 0.29114 0.0
C1406 C 0.20773 0.09019 0.33934 0.0
C1407 C 0.24754 0.13898 0.39892 0.0
H1408 H 0.18879 0.14335 0.41182 0.0
C1409 C 0.2353 0.18427 0.5178 0.0
C1410 C 0.21493 0.1667 0.53607 0.0
C1411 C 0.2377 0.18062 0.48315 0.0
C1412 C 0.20543 0.14256 0.40823 0.0
H1413 H 0.26677 0.11274 0.2855 0.0
H1414 H 0.26699 0.13671 0.33442 0.0
H1415 H 0.1926 0.12266 0.36159 0.0
H1416 H 0.18028 0.13289 0.53283 0.0
H1417 H 0.18398 0.12686 0.47227 0.0
H1418 H 0.25999 0.15826 0.44618 0.0
C1419 C 0.25039 0.11974 0.32862 0.0
C1420 C 0.20752 0.1305 0.37976 0.0
C1421 C 0.25027 0.10593 0.30068 0.0
C1422 C 0.19602 0.14671 0.51895 0.0
C1423 C 0.19815 0.14333 0.48434 0.0
C1424 C 0.2455 0.15118 0.42734 0.0
C1425 C 0.22889 0.11237 0.34756 0.0
C1426 C 0.22819 0.1278 0.37549 0.0
C1427 C 0.2195 0.15963 0.46652 0.0
C1428 C 0.22405 0.1523 0.43281 0.0
H1429 H 0.19066 0.06001 0.3049 0.0
H1430 H 0.19109 0.08364 0.35413 0.0
H1431 H 0.26368 0.13718 0.39633 0.0
H1432 H 0.2502 0.19964 0.53083 0.0
H1433 H 0.2543 0.19342 0.46985 0.0
C1434 C 0.89298 0.14271 0.30195 0.0
C1435 C 0.91442 0.14238 0.29298 0.0
C1436 C 0.87914 0.12948 0.33021 0.0
C1437 C 0.86841 0.07685 0.38362 0.0
H1438 H 0.84233 0.10347 0.44988 0.0
C1439 C 0.85388 0.0507 0.52353 0.0
C1440 C 0.83432 0.0501 0.54131 0.0
C1441 C 0.85699 0.0562 0.4889 0.0
C1442 C 0.84894 0.09552 0.43112 0.0
H1443 H 0.93902 0.1293 0.30797 0.0
H1444 H 0.91527 0.1068 0.35747 0.0
H1445 H 0.86255 0.12698 0.39866 0.0
H1446 H 0.80194 0.05354 0.53717 0.0
H1447 H 0.80765 0.06378 0.47612 0.0
H1448 H 0.8559 0.04597 0.41691 0.0
C1449 C 0.9087 0.11661 0.34211 0.0
C1450 C 0.86063 0.10905 0.40191 0.0
C1451 C 0.92247 0.12974 0.31394 0.0
C1452 C 0.81696 0.05359 0.52365 0.0
C1453 C 0.82034 0.05962 0.48896 0.0
C1454 C 0.85682 0.06341 0.41281 0.0
C1455 C 0.88654 0.11573 0.34997 0.0
C1456 C 0.87126 0.10022 0.37852 0.0
C1457 C 0.84085 0.06174 0.47161 0.0
C1458 C 0.84773 0.07299 0.43739 0.0
H1459 H 0.88623 0.15221 0.28625 0.0
H1460 H 0.86218 0.12922 0.33576 0.0
H1461 H 0.87584 0.06928 0.36553 0.0
H1462 H 0.86757 0.04829 0.53689 0.0
H1463 H 0.87311 0.05798 0.47632 0.0
C1464 C 0.86957 0.75895 0.29329 0.0
C1465 C 0.86927 0.7804 0.2843 0.0
C1466 C 0.88307 0.7588 0.32142 0.0
C1467 C 0.9343 0.80144 0.37686 0.0
H1468 H 0.90784 0.74722 0.44067 0.0
C1469 C 0.95473 0.80975 0.51858 0.0
C1470 C 0.95644 0.79111 0.53553 0.0
C1471 C 0.95065 0.80832 0.48359 0.0
C1472 C 0.91576 0.76223 0.4226 0.0
H1473 H 0.88176 0.81804 0.29882 0.0
H1474 H 0.90458 0.81751 0.34838 0.0
H1475 H 0.88535 0.7441 0.38861 0.0
H1476 H 0.95654 0.75703 0.52967 0.0
H1477 H 0.9486 0.75408 0.46798 0.0
H1478 H 0.96395 0.8201 0.41203 0.0
C1479 C 0.89512 0.80107 0.33306 0.0
C1480 C 0.90284 0.7605 0.39287 0.0
C1481 C 0.88178 0.80128 0.30489 0.0
C1482 C 0.95553 0.77171 0.51682 0.0
C1483 C 0.95087 0.76997 0.48176 0.0
C1484 C 0.9471 0.80323 0.40669 0.0
C1485 C 0.89641 0.78003 0.34116 0.0
C1486 C 0.91156 0.78043 0.3703 0.0
C1487 C 0.94765 0.78792 0.46514 0.0
C1488 C 0.93753 0.78395 0.43032 0.0
H1489 H 0.86024 0.74259 0.27779 0.0
H1490 H 0.88371 0.7423 0.327 0.0
H1491 H 0.94185 0.81685 0.35947 0.0
H1492 H 0.95525 0.82477 0.53273 0.0
H1493 H 0.94797 0.82225 0.4715 0.0
C1494 C 0.35827 0.93105 0.85046 0.0
C1495 C 0.33686 0.91598 0.86913 0.0
C1496 C 0.38035 0.9462 0.86712 0.0
C1497 C 0.41105 0.97412 0.94841 0.0
H1498 H 0.46193 0.96332 0.9112 0.0
C1499 C 0.50932 0.02101 0.00591 0.0
C1500 C 0.52802 0.03192 0.98145 0.0
C1501 C 0.48517 0.00435 -0.00415 0.0
C1502 C 0.44804 0.9667 0.92186 0.0
H1503 H 0.32142 0.9068 0.91998 0.0
H1504 H 0.36014 0.93377 0.94922 0.0
H1505 H 0.42122 0.94252 0.88616 0.0
H1506 H 0.53653 0.0336 0.92776 0.0
H1507 H 0.49498 0.00447 0.91025 0.0
H1508 H 0.43823 0.99888 0.98361 0.0
C1509 C 0.35976 0.93366 0.92162 0.0
C1510 C 0.42467 0.95481 0.90742 0.0
C1511 C 0.33751 0.91839 0.90485 0.0
C1512 C 0.52252 0.02498 0.94719 0.0
C1513 C 0.49861 0.00831 0.93719 0.0
C1514 C 0.43463 0.98626 0.96277 0.0
C1515 C 0.38163 0.9467 0.90289 0.0
C1516 C 0.40602 0.95874 0.91998 0.0
C1517 C 0.47943 0.99828 0.96118 0.0
C1518 C 0.45357 0.98307 0.94919 0.0
H1519 H 0.35837 0.92968 0.82293 0.0
H1520 H 0.39676 0.95652 0.85194 0.0
H1521 H 0.39703 0.97743 0.95875 0.0
H1522 H 0.51303 0.02656 0.03238 0.0
H1523 H 0.47091 0.99683 0.01503 0.0
C1524 C 0.97186 0.49282 0.94491 0.0
C1525 C 0.96533 0.49196 0.9793 0.0
C1526 C 0.98949 0.48681 0.93515 0.0
C1527 C 0.01524 0.44856 0.96132 0.0
H1528 H 0.06027 0.48192 0.88687 0.0
C1529 C 0.08625 0.42255 0.90826 0.0
C1530 C 0.09113 0.42584 0.87304 0.0
C1531 C 0.0702 0.42918 0.92341 0.0
C1532 C 0.0476 0.47218 0.90741 0.0
H1533 H 0.9723 0.48455 0.03066 0.0
H1534 H 0.00349 0.47397 0.01359 0.0
H1535 H 0.03654 0.49914 0.91076 0.0
H1536 H 0.08116 0.4364 0.82576 0.0
H1537 H 0.05282 0.44719 0.85186 0.0
H1538 H 0.02623 0.42141 0.95755 0.0
C1539 C 0.99497 0.47945 -0.0058 0.0
C1540 C 0.0341 0.48217 0.92127 0.0
C1541 C 0.97743 0.48583 0.00405 0.0
C1542 C 0.078 0.43382 0.85298 0.0
C1543 C 0.06195 0.44031 0.86803 0.0
C1544 C 0.02882 0.43852 0.94739 0.0
C1545 C 1.00083 0.47941 0.95951 0.0
C1546 C 0.01739 0.47029 0.94795 0.0
C1547 C 0.05869 0.43915 0.9036 0.0
C1548 C 0.0448 0.44997 0.91977 0.0
H1549 H 0.96246 0.4971 0.92532 0.0
H1550 H 0.99325 0.4867 0.90822 0.0
H1551 H 1.00236 0.4388 0.98164 0.0
H1552 H 0.09621 0.41665 0.92451 0.0
H1553 H 0.06806 0.42795 0.95085 0.0
C1554 C 0.57849 0.64701 0.85276 0.0
C1555 C 0.5829 0.66684 0.87381 0.0
C1556 C 0.57298 0.62447 0.86686 0.0
C1557 C 0.54379 0.58704 0.94244 0.0
H1558 H 0.56482 0.54432 0.90267 0.0
C1559 C 0.51234 0.48757 0.9909 0.0
C1560 C 0.50976 0.47049 0.96588 0.0
C1561 C 0.52107 0.51218 0.982 0.0
C1562 C 0.55849 0.55588 0.91385 0.0
H1563 H 0.58621 0.67889 0.92627 0.0
H1564 H 0.57658 0.63936 0.951 0.0
H1565 H 0.58352 0.58667 0.88378 0.0
H1566 H 0.51231 0.46517 0.91182 0.0
H1567 H 0.52637 0.50747 0.89614 0.0
H1568 H 0.51833 0.55598 0.97201 0.0
C1569 C 0.57733 0.64132 0.92352 0.0
C1570 C 0.56937 0.58024 0.90313 0.0
C1571 C 0.58322 0.66407 0.90935 0.0
C1572 C 0.51423 0.47799 0.93165 0.0
C1573 C 0.52264 0.50233 0.92276 0.0
C1574 C 0.53278 0.56254 0.95311 0.0
C1575 C 0.57143 0.62107 0.9024 0.0
C1576 C 0.56189 0.59604 0.91683 0.0
C1577 C 0.52722 0.52001 0.94791 0.0
C1578 C 0.53964 0.5465 0.93841 0.0
H1579 H 0.57794 0.64852 0.8253 0.0
H1580 H 0.56842 0.60926 0.84981 0.0
H1581 H 0.53741 0.59866 0.95327 0.0
H1582 H 0.50935 0.48233 0.01754 0.0
H1583 H 0.52432 0.52527 0.00204 0.0
C1584 C 0.98205 0.49258 0.49816 0.0
C1585 C 0.97057 0.4734 0.47456 0.0
C1586 C 0.99781 0.51661 0.48686 0.0
C1587 C 0.00725 0.55401 0.40963 0.0
H1588 H 0.06597 0.603 0.45513 0.0
C1589 C 0.07668 0.64543 0.34687 0.0
C1590 C 0.08936 0.66645 0.36727 0.0
C1591 C 0.06023 0.62283 0.36143 0.0
C1592 C 0.04937 0.58963 0.44244 0.0
H1593 H 0.96735 0.46379 0.42114 0.0
H1594 H 0.99553 0.50527 0.4015 0.0
H1595 H 0.04368 0.56134 0.47793 0.0
H1596 H 0.09342 0.68039 0.41883 0.0
H1597 H 0.06442 0.64089 0.44421 0.0
H1598 H 0.01298 0.58209 0.37399 0.0
C1599 C 0.99209 0.50211 0.42859 0.0
C1600 C 0.03666 0.56571 0.45544 0.0
C1601 C 0.97629 0.47827 0.43985 0.0
C1602 C 0.08386 0.66463 0.4023 0.0
C1603 C 0.06751 0.64191 0.41695 0.0
C1604 C 0.01992 0.57783 0.39666 0.0
C1605 C 1.00221 0.52177 0.45176 0.0
C1606 C 0.01564 0.54749 0.43887 0.0
C1607 C 0.0561 0.6206 0.39682 0.0
C1608 C 0.04133 0.59589 0.4126 0.0
H1609 H 0.97739 0.48932 0.52498 0.0
H1610 H 0.00522 0.53129 0.5054 0.0
H1611 H 0.99074 0.54067 0.39672 0.0
H1612 H 0.08051 0.64614 0.31983 0.0
H1613 H 0.05188 0.60683 0.34512 0.0
C1614 C 0.51537 0.49488 0.49159 0.0
C1615 C 0.53159 0.49432 0.46747 0.0
C1616 C 0.49115 0.48773 0.48232 0.0
C1617 C 0.45119 0.47694 0.40701 0.0
H1618 H 0.39871 0.42882 0.4637 0.0
C1619 C 0.35486 0.42357 0.35286 0.0
C1620 C 0.33595 0.42261 0.37295 0.0
C1621 C 0.37757 0.43006 0.36723 0.0
C1622 C 0.41314 0.44237 0.44772 0.0
H1623 H 0.53565 0.48709 0.41459 0.0
H1624 H 0.49403 0.47528 0.39834 0.0
H1625 H 0.44121 0.44805 0.48366 0.0
H1626 H 0.32537 0.42572 0.42443 0.0
H1627 H 0.36515 0.43705 0.44971 0.0
H1628 H 0.42349 0.47136 0.37102 0.0
C1629 C 0.4997 0.48108 0.42436 0.0
C1630 C 0.43748 0.45351 0.45924 0.0
C1631 C 0.52361 0.48785 0.43368 0.0
C1632 C 0.33947 0.42594 0.40838 0.0
C1633 C 0.36238 0.43267 0.42281 0.0
C1634 C 0.42702 0.46587 0.39556 0.0
C1635 C 0.48294 0.48032 0.44867 0.0
C1636 C 0.45684 0.47061 0.4387 0.0
C1637 C 0.38207 0.43606 0.40203 0.0
C1638 C 0.40768 0.44807 0.41538 0.0
H1639 H 0.52094 0.49944 0.51793 0.0
H1640 H 0.47872 0.48752 0.50157 0.0
H1641 H 0.46556 0.49037 0.39081 0.0
H1642 H 0.3527 0.42113 0.32549 0.0
H1643 H 0.39208 0.43173 0.35064 0.0
C1644 C 0.58258 0.91775 0.41101 0.0
C1645 C 0.58388 0.91625 0.37537 0.0
C1646 C 0.57709 0.93473 0.4258 0.0
C1647 C 0.57341 0.99069 0.40866 0.0
H1648 H 0.51773 0.96216 0.47018 0.0
C1649 C 0.52026 0.04041 0.4348 0.0
C1650 C 0.51265 0.041 0.46828 0.0
C1651 C 0.52875 0.02454 0.42582 0.0
C1652 C 0.53349 0.97055 0.45343 0.0
H1653 H 0.58213 0.9324 0.32751 0.0
H1654 H 0.57355 0.96252 0.35319 0.0
H1655 H 0.53629 0.938 0.45183 0.0
H1656 H 0.50695 0.0246 0.51834 0.0
H1657 H 0.52214 0.99682 0.5028 0.0
H1658 H 0.57079 0.02316 0.41003 0.0
C1659 C 0.5765 0.95052 0.36981 0.0
C1660 C 0.54419 0.95671 0.44297 0.0
C1661 C 0.58154 0.93332 0.35506 0.0
C1662 C 0.51241 0.02431 0.49223 0.0
C1663 C 0.52125 0.00851 0.48331 0.0
C1664 C 0.56288 0.00454 0.41926 0.0
C1665 C 0.57326 0.95081 0.40525 0.0
C1666 C 0.56397 0.96647 0.4199 0.0
C1667 C 0.53032 0.00904 0.45022 0.0
C1668 C 0.54239 0.99451 0.44113 0.0
H1669 H 0.58384 0.90453 0.42727 0.0
H1670 H 0.57494 0.93467 0.45321 0.0
H1671 H 0.58883 0.99887 0.39127 0.0
H1672 H 0.52052 0.05298 0.41573 0.0
H1673 H 0.53473 0.02494 0.39982 0.0
C1674 C 0.19091 0.37616 0.2677 0.0
C1675 C 0.19911 0.37717 0.30128 0.0
C1676 C 0.16705 0.35893 0.2583 0.0
C1677 C 0.10496 0.32275 0.29251 0.0
H1678 H 0.09201 0.29031 0.20481 0.0
C1679 C 0.00725 0.25081 0.243 0.0
C1680 C 0.00355 0.24953 0.20754 0.0
C1681 C 0.03026 0.26733 0.25685 0.0
C1682 C 0.09521 0.2995 0.22916 0.0
H1683 H 0.1888 0.36051 0.35127 0.0
H1684 H 0.14661 0.33017 0.3348 0.0
H1685 H 0.13397 0.31475 0.22457 0.0
H1686 H 0.02019 0.26605 0.15921 0.0
H1687 H 0.05968 0.29556 0.18328 0.0
H1688 H 0.06606 0.3077 0.29676 0.0
C1689 C 0.15887 0.34282 0.31578 0.0
C1690 C 0.11933 0.31337 0.24062 0.0
C1691 C 0.18306 0.35995 0.32511 0.0
C1692 C 0.0225 0.26661 0.18663 0.0
C1693 C 0.04529 0.28325 0.20043 0.0
C1694 C 0.08069 0.30888 0.28093 0.0
C1695 C 0.15053 0.34236 0.28231 0.0
C1696 C 0.12459 0.32549 0.27218 0.0
C1697 C 0.04991 0.28297 0.23548 0.0
C1698 C 0.07553 0.29742 0.24878 0.0
H1699 H 0.20282 0.38925 0.24878 0.0
H1700 H 0.16124 0.35927 0.23242 0.0
H1701 H 0.10841 0.33203 0.31684 0.0
H1702 H 0.99312 0.2376 0.2597 0.0
H1703 H 0.03307 0.26659 0.28395 0.0
C1704 C 0.63669 0.82373 0.26878 0.0
C1705 C 0.6355 0.8302 0.30271 0.0
C1706 C 0.65381 0.81706 0.25886 0.0
C1707 C 0.68882 0.78958 0.29239 0.0
H1708 H 0.72015 0.80765 0.20377 0.0
C1709 C 0.7585 0.76142 0.24016 0.0
C1710 C 0.75865 0.75819 0.20469 0.0
C1711 C 0.74262 0.76849 0.25478 0.0
C1712 C 0.71128 0.80209 0.22841 0.0
H1713 H 0.65181 0.83541 0.35275 0.0
H1714 H 0.68205 0.82364 0.33534 0.0
H1715 H 0.69709 0.82652 0.2243 0.0
H1716 H 0.74063 0.75733 0.15733 0.0
H1717 H 0.71235 0.76851 0.18282 0.0
H1718 H 0.70295 0.76491 0.29621 0.0
C1719 C 0.66961 0.82379 0.31644 0.0
C1720 C 0.69818 0.81309 0.24029 0.0
C1721 C 0.65257 0.83085 0.32632 0.0
C1722 C 0.74098 0.75973 0.18472 0.0
C1723 C 0.72504 0.76654 0.1993 0.0
C1724 C 0.70198 0.77849 0.28044 0.0
C1725 C 0.67009 0.81638 0.28268 0.0
C1726 C 0.68641 0.8067 0.27215 0.0
C1727 C 0.72653 0.7723 0.23419 0.0
C1728 C 0.71298 0.78428 0.24796 0.0
H1729 H 0.62365 0.8229 0.25007 0.0
H1730 H 0.65344 0.81126 0.23276 0.0
H1731 H 0.67979 0.78407 0.31694 0.0
H1732 H 0.77214 0.76073 0.25615 0.0
H1733 H 0.74423 0.77267 0.28175 0.0
C1734 C 0.19903 0.83436 0.3451 0.0
C1735 C 0.18042 0.813 0.32975 0.0
C1736 C 0.20602 0.85743 0.3314 0.0
C1737 C 0.21191 0.88571 0.24936 0.0
H1738 H 0.22169 0.94303 0.29913 0.0
C1739 C 0.23482 0.97551 0.18086 0.0
C1740 C 0.24693 0.99801 0.1983 0.0
C1741 C 0.22897 0.9536 0.19728 0.0
C1742 C 0.21962 0.92739 0.2849 0.0
H1743 H 0.15418 0.79893 0.2885 0.0
H1744 H 0.1667 0.83938 0.26403 0.0
H1745 H 0.20458 0.90362 0.32829 0.0
H1746 H 0.26429 0.01512 0.24609 0.0
H1747 H 0.25522 0.97694 0.27431 0.0
H1748 H 0.22776 0.90926 0.20639 0.0
C1749 C 0.17557 0.83824 0.28705 0.0
C1750 C 0.2095 0.90472 0.30161 0.0
C1751 C 0.16817 0.81516 0.30127 0.0
C1752 C 0.25493 0.99818 0.23181 0.0
C1753 C 0.24931 0.97615 0.24821 0.0
C1754 C 0.22247 0.90841 0.23283 0.0
C1755 C 0.195 0.85955 0.30149 0.0
C1756 C 0.20524 0.8836 0.28388 0.0
C1757 C 0.23541 0.95343 0.23157 0.0
C1758 C 0.22619 0.9296 0.25015 0.0
H1759 H 0.20904 0.83311 0.36672 0.0
H1760 H 0.22112 0.8735 0.34295 0.0
H1761 H 0.20937 0.86983 0.23526 0.0
H1762 H 0.22837 0.97455 0.15501 0.0
H1763 H 0.21811 0.93669 0.18342 0.0
C1764 C 0.73783 0.981 0.69205 0.0
C1765 C 0.75402 1.00185 0.71089 0.0
C1766 C 0.72144 0.9592 0.70851 0.0
C1767 C 0.71598 0.92642 0.78869 0.0
H1768 H 0.65323 0.87909 0.75041 0.0
C1769 C 0.64962 0.82878 0.84541 0.0
C1770 C 0.63744 0.81007 0.82129 0.0
C1771 C 0.66499 0.85307 0.83468 0.0
C1772 C 0.67083 0.89202 0.76127 0.0
H1773 H 0.76442 0.0166 0.76194 0.0
H1774 H 0.7354 0.97854 0.79081 0.0
H1775 H 0.67486 0.92055 0.72773 0.0
H1776 H 0.63249 0.80163 0.76744 0.0
H1777 H 0.6597 0.8436 0.74873 0.0
H1778 H 0.7118 0.89759 0.82218 0.0
C1779 C 0.7357 0.979 0.76321 0.0
C1780 C 0.68321 0.91586 0.74832 0.0
C1781 C 0.75205 1.00095 0.74665 0.0
C1782 C 0.64201 0.81571 0.78651 0.0
C1783 C 0.65726 0.8398 0.77583 0.0
C1784 C 0.70347 0.90251 0.80182 0.0
C1785 C 0.72082 0.95761 0.74431 0.0
C1786 C 0.7062 0.93327 0.76129 0.0
C1787 C 0.66813 0.85895 0.79969 0.0
C1788 C 0.68102 0.88487 0.78768 0.0
H1789 H 0.73894 0.98104 0.66448 0.0
H1790 H 0.71043 0.94317 0.69302 0.0
H1791 H 0.73377 0.93923 0.79909 0.0
H1792 H 0.64586 0.82494 0.87235 0.0
H1793 H 0.67309 0.86741 0.85369 0.0
C1794 C 0.00662 0.75746 0.73624 0.0
C1795 C 1.00275 0.75461 0.70084 0.0
C1796 C 0.02968 0.76411 0.75001 0.0
C1797 C 0.0945 0.79645 0.72158 0.0
H1798 H 0.10803 0.77962 0.81083 0.0
C1799 C 0.19052 0.81738 0.76253 0.0
C1800 C 0.19852 0.82547 0.79592 0.0
C1801 C 0.16668 0.81038 0.75251 0.0
C1802 C 0.10449 0.78475 0.78604 0.0
H1803 H 0.01911 0.75403 0.65258 0.0
H1804 H 0.05869 0.76417 0.67657 0.0
H1805 H 0.06566 0.76073 0.79066 0.0
H1806 H 0.1879 0.83308 0.8449 0.0
H1807 H 0.14575 0.82058 0.82736 0.0
H1808 H 0.13323 0.8201 0.71666 0.0
C1809 C 0.0444 0.76237 0.6937 0.0
C1810 C 0.0802 0.77385 0.7744 0.0
C1811 C 0.02155 0.75609 0.67996 0.0
C1812 C 0.18232 0.82723 0.81887 0.0
C1813 C 0.15815 0.81978 0.80896 0.0
C1814 C 0.11866 0.80717 0.73309 0.0
C1815 C 0.04922 0.7678 0.72863 0.0
C1816 C 0.07491 0.77929 0.74175 0.0
C1817 C 0.14999 0.81093 0.77576 0.0
C1818 C 0.12402 0.80126 0.76526 0.0
H1819 H 0.99261 0.75687 0.7529 0.0
H1820 H 0.03261 0.76807 0.777 0.0
H1821 H 0.09122 0.8018 0.69679 0.0
H1822 H 0.20256 0.81571 0.74433 0.0
H1823 H 0.16099 0.8035 0.72687 0.0
C1824 C 0.23691 0.26246 0.6816 0.0
C1825 C 0.24711 0.25029 0.6993 0.0
C1826 C 0.23155 0.27876 0.69833 0.0
C1827 C 0.21872 0.2927 0.7857 0.0
H1828 H 0.21378 0.34374 0.7375 0.0
C1829 C 0.19654 0.36434 0.84611 0.0
C1830 C 0.17954 0.36845 0.82848 0.0
C1831 C 0.20387 0.34833 0.83301 0.0
C1832 C 0.21485 0.32938 0.75119 0.0
H1833 H 0.2616 0.24744 0.74806 0.0
H1834 H 0.25332 0.27691 0.77709 0.0
H1835 H 0.23269 0.32288 0.70956 0.0
H1836 H 0.15657 0.3589 0.78372 0.0
H1837 H 0.16958 0.33105 0.76046 0.0
H1838 H 0.20159 0.30017 0.82784 0.0
C1839 C 0.24862 0.27312 0.75039 0.0
C1840 C 0.2257 0.31734 0.73518 0.0
C1841 C 0.25383 0.25654 0.73358 0.0
C1842 C 0.16918 0.35549 0.79825 0.0
C1843 C 0.17689 0.33987 0.78474 0.0
C1844 C 0.20829 0.30514 0.80197 0.0
C1845 C 0.23651 0.28375 0.7333 0.0
C1846 C 0.22742 0.29846 0.7519 0.0
C1847 C 0.19486 0.3367 0.8015 0.0
C1848 C 0.20586 0.32331 0.78464 0.0
H1849 H 0.2315 0.25816 0.65516 0.0
H1850 H 0.22207 0.28621 0.68409 0.0
H1851 H 0.21928 0.27808 0.79939 0.0
H1852 H 0.20524 0.37463 0.86903 0.0
H1853 H 0.21783 0.34637 0.84635 0.0
C1854 C 0.67381 0.58341 0.56882 0.0
C1855 C 0.67047 0.58194 0.53328 0.0
C1856 C 0.6968 0.59961 0.58297 0.0
C1857 C 0.76201 0.63027 0.55669 0.0
H1858 H 0.77481 0.66307 0.64411 0.0
C1859 C 0.85788 0.70557 0.5975 0.0
C1860 C 0.86534 0.70658 0.63148 0.0
C1861 C 0.83414 0.68851 0.58736 0.0
C1862 C 0.77147 0.6537 0.61987 0.0
H1863 H 0.6878 0.59794 0.48504 0.0
H1864 H 0.72732 0.6269 0.50961 0.0
H1865 H 0.73268 0.63964 0.62301 0.0
H1866 H 0.85392 0.6901 0.68143 0.0
H1867 H 0.81196 0.66007 0.66365 0.0
H1868 H 0.80069 0.64457 0.55322 0.0
C1869 C 0.71262 0.61493 0.52661 0.0
C1870 C 0.74732 0.64035 0.6077 0.0
C1871 C 0.68983 0.59861 0.51251 0.0
C1872 C 0.84875 0.68948 0.65496 0.0
C1873 C 0.82469 0.67255 0.64488 0.0
C1874 C 0.78603 0.64364 0.56874 0.0
C1875 C 0.71682 0.61477 0.56183 0.0
C1876 C 0.74232 0.62878 0.57564 0.0
C1877 C 0.81703 0.67218 0.61103 0.0
C1878 C 0.79114 0.65582 0.60024 0.0
H1879 H 0.65936 0.57055 0.58546 0.0
H1880 H 0.69927 0.59897 0.61019 0.0
H1881 H 0.7589 0.62098 0.53243 0.0
H1882 H 0.87023 0.71863 0.57889 0.0
H1883 H 0.82886 0.68891 0.5612 0.0
C1884 C 0.30001 0.15564 0.59706 0.0
C1885 C 0.29917 0.16235 0.63097 0.0
C1886 C 0.31669 0.14839 0.58706 0.0
C1887 C 0.35015 0.11933 0.62046 0.0
H1888 H 0.38231 0.1373 0.5324 0.0
C1889 C 0.41876 0.08941 0.57022 0.0
C1890 C 0.41998 0.08703 0.53472 0.0
C1891 C 0.40277 0.09655 0.58421 0.0
C1892 C 0.37316 0.13172 0.55685 0.0
H1893 H 0.31555 0.16732 0.68091 0.0
H1894 H 0.34497 0.15448 0.66338 0.0
H1895 H 0.3599 0.15693 0.55265 0.0
H1896 H 0.40366 0.0877 0.48651 0.0
H1897 H 0.37501 0.09882 0.51086 0.0
H1898 H 0.36323 0.09383 0.62436 0.0
C1899 C 0.33266 0.15495 0.64455 0.0
C1900 C 0.36046 0.14318 0.56859 0.0
C1901 C 0.31611 0.16263 0.65448 0.0
C1902 C 0.40313 0.08937 0.51395 0.0
C1903 C 0.38701 0.0962 0.52791 0.0
C1904 C 0.36284 0.10774 0.60862 0.0
C1905 C 0.33278 0.1473 0.61082 0.0
C1906 C 0.3485 0.13692 0.60031 0.0
C1907 C 0.38759 0.10126 0.56296 0.0
C1908 C 0.37418 0.1135 0.57636 0.0
H1909 H 0.287 0.15503 0.57848 0.0
H1910 H 0.31608 0.14244 0.56099 0.0
H1911 H 0.34092 0.1139 0.64488 0.0
H1912 H 0.43179 0.08813 0.58683 0.0
H1913 H 0.4037 0.10017 0.61131 0.0
C1914 C 0.914 0.32957 0.57075 0.0
C1915 C 0.91436 0.33205 0.53509 0.0
C1916 C 0.9069 0.30672 0.58562 0.0
C1917 C 0.86871 0.24123 0.563 0.0
H1918 H 0.89214 0.22898 0.6479 0.0
C1919 C 0.84698 0.14531 0.605 0.0
C1920 C 0.84228 0.1387 0.63953 0.0
C1921 C 0.8537 0.16896 0.59439 0.0
C1922 C 0.88516 0.2322 0.62443 0.0
H1923 H 0.91005 0.31326 0.48718 0.0
H1924 H 0.89886 0.27389 0.51292 0.0
H1925 H 0.91132 0.2707 0.62507 0.0
H1926 H 0.84032 0.15145 0.69003 0.0
H1927 H 0.85232 0.19329 0.6714 0.0
H1928 H 0.84289 0.2028 0.56196 0.0
C1929 C 0.90305 0.28922 0.52952 0.0
C1930 C 0.89623 0.25609 0.61126 0.0
C1931 C 0.90985 0.31189 0.51473 0.0
C1932 C 0.84348 0.156 0.66318 0.0
C1933 C 0.85065 0.17997 0.65258 0.0
C1934 C 0.85778 0.21746 0.57604 0.0
C1935 C 0.90022 0.286 0.56507 0.0
C1936 C 0.88841 0.26084 0.58002 0.0
C1937 C 0.85626 0.18679 0.61811 0.0
C1938 C 0.86608 0.21255 0.60662 0.0
H1939 H 0.91706 0.34469 0.58712 0.0
H1940 H 0.90501 0.30498 0.61307 0.0
H1941 H 0.86161 0.24422 0.53947 0.0
H1942 H 0.84639 0.13237 0.5863 0.0
H1943 H 0.85808 0.1736 0.56774 0.0
C1944 C 0.32277 0.15084 0.15015 0.0
C1945 C 0.29988 0.1461 0.16248 0.0
C1946 C 0.34041 0.17468 0.14009 0.0
C1947 C 0.3553 0.24036 0.14249 0.0
H1948 H 0.38554 0.24403 0.05504 0.0
C1949 C 0.4235 0.33242 0.07551 0.0
C1950 C 0.42378 0.3327 0.03966 0.0
C1951 C 0.4083 0.31068 0.09332 0.0
C1952 C 0.37705 0.24338 0.07933 0.0
H1953 H 0.27826 0.16283 0.17633 0.0
H1954 H 0.30857 0.20384 0.15898 0.0
H1955 H 0.36168 0.20456 0.08293 0.0
H1956 H 0.4067 0.31099 -0.00546 0.0
H1957 H 0.37954 0.27356 0.02542 0.0
H1958 H 0.36989 0.2791 0.13816 0.0
C1959 C 0.31322 0.18951 0.15699 0.0
C1960 C 0.36372 0.22071 0.09569 0.0
C1961 C 0.2957 0.16586 0.16679 0.0
C1962 C 0.40701 0.31137 0.02216 0.0
C1963 C 0.3917 0.28978 0.0399 0.0
C1964 C 0.36857 0.26306 0.12605 0.0
C1965 C 0.33553 0.1942 0.14248 0.0
C1966 C 0.35232 0.21878 0.12726 0.0
C1967 C 0.39292 0.28881 0.07564 0.0
C1968 C 0.37928 0.26483 0.09393 0.0
H1969 H 0.32646 0.13597 0.14638 0.0
H1970 H 0.35756 0.17768 0.12949 0.0
H1971 H 0.34706 0.2397 0.16699 0.0
H1972 H 0.43643 0.34841 0.08977 0.0
H1973 H 0.40977 0.31071 0.12082 0.0
C1974 C 0.85794 0.15901 0.10501 0.0
C1975 C 0.86491 0.16335 0.13943 0.0
C1976 C 0.83377 0.1508 0.09537 0.0
C1977 C 0.77323 0.14103 0.1232 0.0
H1978 H 0.75001 0.08954 0.05515 0.0
C1979 C 0.67244 0.09072 0.0758 0.0
C1980 C 0.67028 0.09022 0.04007 0.0
C1981 C 0.6949 0.0968 0.09113 0.0
C1982 C 0.75618 0.10391 0.0741 0.0
H1983 H 0.85233 0.16377 0.19063 0.0
H1984 H 0.80969 0.14923 0.17379 0.0
H1985 H 0.79202 0.1083 0.07536 0.0
H1986 H 0.68944 0.09403 0.99258 0.0
H1987 H 0.72818 0.10396 0.01911 0.0
H1988 H 0.73721 0.13663 0.12154 0.0
C1989 C 0.82308 0.15241 0.1542 0.0
C1990 C 0.78035 0.11481 0.0856 0.0
C1991 C 0.84751 0.16091 0.16386 0.0
C1992 C 0.69046 0.09411 0.02016 0.0
C1993 C 0.71272 0.09985 0.03542 0.0
C1994 C 0.74892 0.13004 0.1117 0.0
C1995 C 0.81575 0.14631 0.11995 0.0
C1996 C 0.78941 0.13391 0.1097 0.0
C1997 C 0.71549 0.10211 0.07104 0.0
C1998 C 0.74025 0.11167 0.08649 0.0
H1999 H 0.87101 0.1608 0.08563 0.0
H2000 H 0.82902 0.14707 0.06865 0.0
H2001 H 0.77957 0.15566 0.14176 0.0
H2002 H 0.65733 0.08815 0.09183 0.0
H2003 H 0.69636 0.09811 0.11865 0.0
C2004 C 0.90972 0.59576 0.02011 0.0
C2005 C 0.91127 0.57819 0.04032 0.0
C2006 C 0.90333 0.61204 0.03456 0.0
C2007 C 0.89354 0.63704 0.11516 0.0
H2008 H 0.8449 0.64172 0.06024 0.0
C2009 C 0.84443 0.69017 0.15955 0.0
C2010 C 0.84504 0.70669 0.13495 0.0
C2011 C 0.85077 0.67243 0.15059 0.0
C2012 C 0.8585 0.64068 0.07589 0.0
H2013 H 0.90918 0.56521 0.09203 0.0
H2014 H 0.89799 0.59378 0.11741 0.0
H2015 H 0.86239 0.61727 0.04018 0.0
H2016 H 0.85154 0.71684 0.0816 0.0
H2017 H 0.86196 0.68591 0.06594 0.0
H2018 H 0.88961 0.66076 0.15078 0.0
C2019 C 0.90181 0.59499 0.09034 0.0
C2020 C 0.86868 0.62678 0.06428 0.0
C2021 C 0.90841 0.57872 0.07583 0.0
C2022 C 0.85081 0.70431 0.10109 0.0
C2023 C 0.85675 0.68651 0.0921 0.0
C2024 C 0.88329 0.65103 0.12684 0.0
C2025 C 0.89806 0.61104 0.06957 0.0
C2026 C 0.88674 0.62519 0.08334 0.0
C2027 C 0.85736 0.67068 0.11679 0.0
C2028 C 0.866 0.6534 0.10696 0.0
H2029 H 0.91191 0.59588 0.9927 0.0
H2030 H 0.90138 0.62468 0.01794 0.0
H2031 H 0.90733 0.63614 0.13053 0.0
H2032 H 0.84035 0.69181 0.18592 0.0
H2033 H 0.8509 0.66038 0.17014 0.0
loop_
_geom_bond_atom_site_label_1
_geom_bond_atom_site_label_2
_geom_bond_distance
_geom_bond_site_symmetry_2
_ccdc_geom_bond_type
O0 Zn1 1.953 . S
O0 C16 1.225 1_556 S
Zn1 O0 1.953 . S
Zn1 O2 1.949 1_556 S
Zn1 O8 1.919 . S
Zn1 O13 1.924 . S
O2 Zn1 1.949 1_554 S
O2 Zn3 1.923 1_554 S
O2 Zn4 1.950 . S
O2 Zn5 1.945 . S
Zn3 O2 1.923 1_556 S
Zn3 O6 1.933 . S
Zn3 O9 1.941 . S
Zn3 O10 1.965 . S
Zn4 O2 1.950 . S
Zn4 O11 1.938 . S
Zn4 O12 1.906 . S
Zn4 O22 1.953 . S
Zn5 O2 1.945 . S
Zn5 O7 1.932 . S
Zn5 O14 1.977 . S
Zn5 O15 1.910 . S
O6 Zn3 1.933 . S
O6 C17 1.227 . S
O7 Zn5 1.932 . S
O7 C17 1.307 1_554 S
O8 Zn1 1.919 . S
O8 C19 1.253 . S
O9 Zn3 1.941 . S
O9 C19 1.283 . S
O10 Zn3 1.965 . S
O10 C18 1.303 1_556 S
O11 Zn4 1.938 . S
O11 C18 1.247 . S
O12 Zn4 1.906 . S
O12 C20 1.304 . S
O13 Zn1 1.924 . S
O13 C21 1.311 1_556 S
O14 Zn5 1.977 . S
O14 C20 1.272 . S
O15 Zn5 1.910 . S
O15 C21 1.231 . S
C16 O0 1.225 1_554 S
C16 O22 1.298 . S
C17 O6 1.227 . S
C17 O7 1.307 1_556 S
C18 O10 1.303 1_554 S
C18 O11 1.247 . S
C19 O8 1.253 . S
C19 O9 1.283 . S
C20 O12 1.304 . S
C20 O14 1.272 . S
C21 O13 1.311 1_554 S
C21 O15 1.231 . S
O22 Zn4 1.953 . S
O22 C16 1.298 . S
O23 Zn24 1.953 . S
O23 C39 1.225 1_556 S
Zn24 O23 1.953 . S
Zn24 O25 1.949 1_556 S
Zn24 O31 1.919 . S
Zn24 O36 1.924 . S
O25 Zn24 1.949 1_554 S
O25 Zn26 1.923 1_554 S
O25 Zn27 1.950 . S
O25 Zn28 1.945 . S
Zn26 O25 1.923 1_556 S
Zn26 O29 1.933 . S
Zn26 O32 1.941 . S
Zn26 O33 1.965 . S
Zn27 O25 1.950 . S
Zn27 O34 1.938 . S
Zn27 O35 1.906 . S
Zn27 O45 1.953 . S
Zn28 O25 1.945 . S
Zn28 O30 1.932 . S
Zn28 O37 1.977 . S
Zn28 O38 1.910 . S
O29 Zn26 1.933 . S
O29 C40 1.227 . S
O30 Zn28 1.932 . S
O30 C40 1.307 1_554 S
O31 Zn24 1.919 . S
O31 C42 1.253 . S
O32 Zn26 1.941 . S
O32 C42 1.283 . S
O33 Zn26 1.965 . S
O33 C41 1.303 1_556 S
O34 Zn27 1.938 . S
O34 C41 1.247 . S
O35 Zn27 1.906 . S
O35 C43 1.304 . S
O36 Zn24 1.924 . S
O36 C44 1.311 1_556 S
O37 Zn28 1.977 . S
O37 C43 1.272 . S
O38 Zn28 1.910 . S
O38 C44 1.231 . S
C39 O23 1.225 1_554 S
C39 O45 1.298 . S
C40 O29 1.227 . S
C40 O30 1.307 1_556 S
C41 O33 1.303 1_554 S
C41 O34 1.247 . S
C42 O31 1.253 . S
C42 O32 1.283 . S
C43 O35 1.304 . S
C43 O37 1.272 . S
C44 O36 1.311 1_554 S
C44 O38 1.231 . S
O45 Zn27 1.953 . S
O45 C39 1.298 . S
O46 Zn47 1.953 . S
O46 C62 1.225 1_556 S
Zn47 O46 1.953 . S
Zn47 O48 1.949 1_556 S
Zn47 O54 1.919 . S
Zn47 O59 1.924 . S
O48 Zn47 1.949 1_554 S
O48 Zn49 1.923 1_554 S
O48 Zn50 1.950 . S
O48 Zn51 1.945 . S
Zn49 O48 1.923 1_556 S
Zn49 O52 1.933 . S
Zn49 O55 1.941 . S
Zn49 O56 1.965 . S
Zn50 O48 1.950 . S
Zn50 O57 1.938 . S
Zn50 O58 1.906 . S
Zn50 O68 1.953 . S
Zn51 O48 1.945 . S
Zn51 O53 1.932 . S
Zn51 O60 1.977 . S
Zn51 O61 1.910 . S
O52 Zn49 1.933 . S
O52 C63 1.227 . S
O53 Zn51 1.932 . S
O53 C63 1.306 1_554 S
O54 Zn47 1.919 . S
O54 C65 1.253 . S
O55 Zn49 1.941 . S
O55 C65 1.283 . S
O56 Zn49 1.965 . S
O56 C64 1.303 1_556 S
O57 Zn50 1.938 . S
O57 C64 1.247 . S
O58 Zn50 1.906 . S
O58 C66 1.304 . S
O59 Zn47 1.924 . S
O59 C67 1.311 1_556 S
O60 Zn51 1.977 . S
O60 C66 1.272 . S
O61 Zn51 1.910 . S
O61 C67 1.231 . S
C62 O46 1.225 1_554 S
C62 O68 1.298 . S
C63 O52 1.227 . S
C63 O53 1.306 1_556 S
C64 O56 1.303 1_554 S
C64 O57 1.247 . S
C65 O54 1.253 . S
C65 O55 1.283 . S
C66 O58 1.304 . S
C66 O60 1.272 . S
C67 O59 1.311 1_554 S
C67 O61 1.231 . S
O68 Zn50 1.953 . S
O68 C62 1.298 . S
O69 Zn70 1.953 . S
O69 C85 1.225 . S
Zn70 O69 1.953 . S
Zn70 O71 1.949 . S
Zn70 O77 1.919 . S
Zn70 O82 1.924 . S
O71 Zn70 1.949 . S
O71 Zn72 1.923 . S
O71 Zn73 1.950 . S
O71 Zn74 1.945 . S
Zn72 O71 1.923 . S
Zn72 O75 1.933 . S
Zn72 O78 1.941 . S
Zn72 O79 1.965 . S
Zn73 O71 1.950 . S
Zn73 O80 1.938 . S
Zn73 O81 1.906 . S
Zn73 O91 1.953 . S
Zn74 O71 1.945 . S
Zn74 O76 1.932 . S
Zn74 O83 1.977 . S
Zn74 O84 1.910 . S
O75 Zn72 1.933 . S
O75 C86 1.226 . S
O76 Zn74 1.932 . S
O76 C86 1.307 . S
O77 Zn70 1.919 . S
O77 C88 1.253 . S
O78 Zn72 1.941 . S
O78 C88 1.283 . S
O79 Zn72 1.965 . S
O79 C87 1.303 . S
O80 Zn73 1.938 . S
O80 C87 1.247 . S
O81 Zn73 1.906 . S
O81 C89 1.304 . S
O82 Zn70 1.924 . S
O82 C90 1.311 . S
O83 Zn74 1.977 . S
O83 C89 1.272 . S
O84 Zn74 1.910 . S
O84 C90 1.231 . S
C85 O69 1.225 . S
C85 O91 1.298 . S
C86 O75 1.226 . S
C86 O76 1.307 . S
C87 O79 1.303 . S
C87 O80 1.247 . S
C88 O77 1.253 . S
C88 O78 1.283 . S
C89 O81 1.304 . S
C89 O83 1.272 . S
C90 O82 1.311 . S
C90 O84 1.231 . S
O91 Zn73 1.953 . S
O91 C85 1.298 . S
O92 Zn93 1.953 . S
O92 C108 1.225 . S
Zn93 O92 1.953 . S
Zn93 O94 1.949 . S
Zn93 O100 1.919 . S
Zn93 O105 1.924 . S
O94 Zn93 1.949 . S
O94 Zn95 1.923 . S
O94 Zn96 1.950 . S
O94 Zn97 1.945 . S
Zn95 O94 1.923 . S
Zn95 O98 1.933 . S
Zn95 O101 1.941 . S
Zn95 O102 1.965 . S
Zn96 O94 1.950 . S
Zn96 O103 1.938 . S
Zn96 O104 1.906 . S
Zn96 O114 1.953 . S
Zn97 O94 1.945 . S
Zn97 O99 1.932 . S
Zn97 O106 1.977 . S
Zn97 O107 1.910 . S
O98 Zn95 1.933 . S
O98 C109 1.226 . S
O99 Zn97 1.932 . S
O99 C109 1.307 . S
O100 Zn93 1.919 . S
O100 C111 1.253 . S
O101 Zn95 1.941 . S
O101 C111 1.283 . S
O102 Zn95 1.965 . S
O102 C110 1.303 . S
O103 Zn96 1.938 . S
O103 C110 1.247 . S
O104 Zn96 1.906 . S
O104 C112 1.304 . S
O105 Zn93 1.924 . S
O105 C113 1.311 . S
O106 Zn97 1.977 . S
O106 C112 1.272 . S
O107 Zn97 1.910 . S
O107 C113 1.231 . S
C108 O92 1.225 . S
C108 O114 1.298 . S
C109 O98 1.226 . S
C109 O99 1.307 . S
C110 O102 1.303 . S
C110 O103 1.247 . S
C111 O100 1.253 . S
C111 O101 1.283 . S
C112 O104 1.304 . S
C112 O106 1.272 . S
C113 O105 1.311 . S
C113 O107 1.231 . S
O114 Zn96 1.953 . S
O114 C108 1.298 . S
O115 Zn116 1.953 . S
O115 C131 1.225 . S
Zn116 O115 1.953 . S
Zn116 O117 1.949 . S
Zn116 O123 1.919 . S
Zn116 O128 1.924 . S
O117 Zn116 1.949 . S
O117 Zn118 1.923 . S
O117 Zn119 1.950 . S
O117 Zn120 1.945 . S
Zn118 O117 1.923 . S
Zn118 O121 1.933 . S
Zn118 O124 1.941 . S
Zn118 O125 1.965 . S
Zn119 O117 1.950 . S
Zn119 O126 1.938 . S
Zn119 O127 1.906 . S
Zn119 O137 1.953 . S
Zn120 O117 1.945 . S
Zn120 O122 1.932 . S
Zn120 O129 1.977 . S
Zn120 O130 1.910 . S
O121 Zn118 1.933 . S
O121 C132 1.226 . S
O122 Zn120 1.932 . S
O122 C132 1.307 . S
O123 Zn116 1.919 . S
O123 C134 1.253 . S
O124 Zn118 1.941 . S
O124 C134 1.283 . S
O125 Zn118 1.965 . S
O125 C133 1.303 . S
O126 Zn119 1.938 . S
O126 C133 1.247 . S
O127 Zn119 1.906 . S
O127 C135 1.304 . S
O128 Zn116 1.924 . S
O128 C136 1.311 . S
O129 Zn120 1.977 . S
O129 C135 1.272 . S
O130 Zn120 1.910 . S
O130 C136 1.231 . S
C131 O115 1.225 . S
C131 O137 1.298 . S
C132 O121 1.226 . S
C132 O122 1.307 . S
C133 O125 1.303 . S
C133 O126 1.247 . S
C134 O123 1.253 . S
C134 O124 1.283 . S
C135 O127 1.304 . S
C135 O129 1.272 . S
C136 O128 1.311 . S
C136 O130 1.231 . S
O137 Zn119 1.953 . S
O137 C131 1.298 . S
O138 Zn139 1.953 . S
O138 C154 1.225 . S
Zn139 O138 1.953 . S
Zn139 O140 1.949 . S
Zn139 O146 1.919 . S
Zn139 O151 1.924 . S
O140 Zn139 1.949 . S
O140 Zn141 1.923 . S
O140 Zn142 1.950 . S
O140 Zn143 1.945 . S
Zn141 O140 1.923 . S
Zn141 O144 1.933 . S
Zn141 O147 1.941 . S
Zn141 O148 1.965 . S
Zn142 O140 1.950 . S
Zn142 O149 1.938 . S
Zn142 O150 1.906 . S
Zn142 O160 1.953 . S
Zn143 O140 1.945 . S
Zn143 O145 1.932 . S
Zn143 O152 1.977 . S
Zn143 O153 1.910 . S
O144 Zn141 1.933 . S
O144 C155 1.226 . S
O145 Zn143 1.932 . S
O145 C155 1.307 . S
O146 Zn139 1.919 . S
O146 C157 1.253 . S
O147 Zn141 1.941 . S
O147 C157 1.283 . S
O148 Zn141 1.965 . S
O148 C156 1.303 . S
O149 Zn142 1.938 . S
O149 C156 1.247 . S
O150 Zn142 1.906 . S
O150 C158 1.304 . S
O151 Zn139 1.924 . S
O151 C159 1.311 . S
O152 Zn143 1.977 . S
O152 C158 1.272 . S
O153 Zn143 1.910 . S
O153 C159 1.231 . S
C154 O138 1.225 . S
C154 O160 1.298 . S
C155 O144 1.226 . S
C155 O145 1.307 . S
C156 O148 1.303 . S
C156 O149 1.247 . S
C157 O146 1.253 . S
C157 O147 1.283 . S
C158 O150 1.304 . S
C158 O152 1.272 . S
C159 O151 1.311 . S
C159 O153 1.231 . S
O160 Zn142 1.953 . S
O160 C154 1.298 . S
O161 Zn162 1.953 . S
O161 C177 1.225 . S
Zn162 O161 1.953 . S
Zn162 O163 1.949 . S
Zn162 O169 1.919 . S
Zn162 O174 1.924 . S
O163 Zn162 1.949 . S
O163 Zn164 1.923 . S
O163 Zn165 1.950 . S
O163 Zn166 1.945 . S
Zn164 O163 1.923 . S
Zn164 O167 1.933 . S
Zn164 O170 1.941 . S
Zn164 O171 1.965 . S
Zn165 O163 1.950 . S
Zn165 O172 1.938 . S
Zn165 O173 1.906 . S
Zn165 O183 1.953 . S
Zn166 O163 1.945 . S
Zn166 O168 1.932 . S
Zn166 O175 1.977 . S
Zn166 O176 1.910 . S
O167 Zn164 1.933 . S
O167 C178 1.226 . S
O168 Zn166 1.932 . S
O168 C178 1.307 . S
O169 Zn162 1.919 . S
O169 C180 1.253 . S
O170 Zn164 1.941 . S
O170 C180 1.283 . S
O171 Zn164 1.965 . S
O171 C179 1.303 . S
O172 Zn165 1.938 . S
O172 C179 1.247 . S
O173 Zn165 1.906 . S
O173 C181 1.304 . S
O174 Zn162 1.924 . S
O174 C182 1.311 . S
O175 Zn166 1.977 . S
O175 C181 1.272 . S
O176 Zn166 1.910 . S
O176 C182 1.231 . S
C177 O161 1.225 . S
C177 O183 1.298 . S
C178 O167 1.226 . S
C178 O168 1.307 . S
C179 O171 1.303 . S
C179 O172 1.247 . S
C180 O169 1.253 . S
C180 O170 1.283 . S
C181 O173 1.304 . S
C181 O175 1.272 . S
C182 O174 1.311 . S
C182 O176 1.231 . S
O183 Zn165 1.953 . S
O183 C177 1.298 . S
O184 Zn185 1.953 . S
O184 C200 1.225 . S
Zn185 O184 1.953 . S
Zn185 O186 1.949 . S
Zn185 O192 1.919 . S
Zn185 O197 1.924 . S
O186 Zn185 1.949 . S
O186 Zn187 1.923 . S
O186 Zn188 1.950 . S
O186 Zn189 1.945 . S
Zn187 O186 1.923 . S
Zn187 O190 1.933 . S
Zn187 O193 1.941 . S
Zn187 O194 1.965 . S
Zn188 O186 1.950 . S
Zn188 O195 1.938 . S
Zn188 O196 1.906 . S
Zn188 O206 1.953 . S
Zn189 O186 1.945 . S
Zn189 O191 1.932 . S
Zn189 O198 1.977 . S
Zn189 O199 1.910 . S
O190 Zn187 1.933 . S
O190 C201 1.226 . S
O191 Zn189 1.932 . S
O191 C201 1.307 . S
O192 Zn185 1.919 . S
O192 C203 1.253 . S
O193 Zn187 1.941 . S
O193 C203 1.283 . S
O194 Zn187 1.965 . S
O194 C202 1.303 . S
O195 Zn188 1.938 . S
O195 C202 1.247 . S
O196 Zn188 1.906 . S
O196 C204 1.304 . S
O197 Zn185 1.924 . S
O197 C205 1.311 . S
O198 Zn189 1.977 . S
O198 C204 1.272 . S
O199 Zn189 1.910 . S
O199 C205 1.231 . S
C200 O184 1.225 . S
C200 O206 1.298 . S
C201 O190 1.226 . S
C201 O191 1.307 . S
C202 O194 1.303 . S
C202 O195 1.247 . S
C203 O192 1.253 . S
C203 O193 1.283 . S
C204 O196 1.304 . S
C204 O198 1.272 . S
C205 O197 1.311 . S
C205 O199 1.231 . S
O206 Zn188 1.953 . S
O206 C200 1.298 . S
O207 Zn208 1.953 . S
O207 C223 1.225 . S
Zn208 O207 1.953 . S
Zn208 O209 1.949 . S
Zn208 O215 1.919 . S
Zn208 O220 1.924 . S
O209 Zn208 1.949 . S
O209 Zn210 1.923 . S
O209 Zn211 1.950 . S
O209 Zn212 1.945 . S
Zn210 O209 1.923 . S
Zn210 O213 1.933 . S
Zn210 O216 1.941 . S
Zn210 O217 1.965 . S
Zn211 O209 1.950 . S
Zn211 O218 1.938 . S
Zn211 O219 1.906 . S
Zn211 O229 1.953 . S
Zn212 O209 1.945 . S
Zn212 O214 1.932 . S
Zn212 O221 1.977 . S
Zn212 O222 1.910 . S
O213 Zn210 1.933 . S
O213 C224 1.226 . S
O214 Zn212 1.932 . S
O214 C224 1.307 . S
O215 Zn208 1.919 . S
O215 C226 1.253 . S
O216 Zn210 1.941 . S
O216 C226 1.283 . S
O217 Zn210 1.965 . S
O217 C225 1.303 . S
O218 Zn211 1.938 . S
O218 C225 1.247 . S
O219 Zn211 1.906 . S
O219 C227 1.304 . S
O220 Zn208 1.924 . S
O220 C228 1.311 . S
O221 Zn212 1.977 . S
O221 C227 1.272 . S
O222 Zn212 1.910 . S
O222 C228 1.231 . S
C223 O207 1.225 . S
C223 O229 1.298 . S
C224 O213 1.226 . S
C224 O214 1.307 . S
C225 O217 1.303 . S
C225 O218 1.247 . S
C226 O215 1.253 . S
C226 O216 1.283 . S
C227 O219 1.304 . S
C227 O221 1.272 . S
C228 O220 1.311 . S
C228 O222 1.231 . S
O229 Zn211 1.953 . S
O229 C223 1.298 . S
O230 Zn231 1.953 . S
O230 C246 1.225 . S
Zn231 O230 1.953 . S
Zn231 O232 1.949 . S
Zn231 O238 1.919 . S
Zn231 O243 1.924 . S
O232 Zn231 1.949 . S
O232 Zn233 1.923 . S
O232 Zn234 1.950 . S
O232 Zn235 1.945 . S
Zn233 O232 1.923 . S
Zn233 O236 1.933 . S
Zn233 O239 1.941 . S
Zn233 O240 1.965 . S
Zn234 O232 1.950 . S
Zn234 O241 1.938 . S
Zn234 O242 1.906 . S
Zn234 O252 1.953 . S
Zn235 O232 1.945 . S
Zn235 O237 1.932 . S
Zn235 O244 1.977 . S
Zn235 O245 1.910 . S
O236 Zn233 1.933 . S
O236 C247 1.226 . S
O237 Zn235 1.932 . S
O237 C247 1.307 . S
O238 Zn231 1.919 . S
O238 C249 1.253 . S
O239 Zn233 1.941 . S
O239 C249 1.283 . S
O240 Zn233 1.965 . S
O240 C248 1.303 . S
O241 Zn234 1.938 . S
O241 C248 1.247 . S
O242 Zn234 1.906 . S
O242 C250 1.304 . S
O243 Zn231 1.924 . S
O243 C251 1.311 . S
O244 Zn235 1.977 . S
O244 C250 1.272 . S
O245 Zn235 1.910 . S
O245 C251 1.231 . S
C246 O230 1.225 . S
C246 O252 1.298 . S
C247 O236 1.226 . S
C247 O237 1.307 . S
C248 O240 1.303 . S
C248 O241 1.247 . S
C249 O238 1.253 . S
C249 O239 1.283 . S
C250 O242 1.304 . S
C250 O244 1.272 . S
C251 O243 1.311 . S
C251 O245 1.231 . S
O252 Zn234 1.953 . S
O252 C246 1.298 . S
O253 Zn254 1.953 . S
O253 C269 1.225 . S
Zn254 O253 1.953 . S
Zn254 O255 1.949 . S
Zn254 O261 1.919 . S
Zn254 O266 1.924 . S
O255 Zn254 1.949 . S
O255 Zn256 1.923 . S
O255 Zn257 1.950 . S
O255 Zn258 1.945 . S
Zn256 O255 1.923 . S
Zn256 O259 1.933 . S
Zn256 O262 1.941 . S
Zn256 O263 1.965 . S
Zn257 O255 1.950 . S
Zn257 O264 1.938 . S
Zn257 O265 1.906 . S
Zn257 O275 1.953 . S
Zn258 O255 1.945 . S
Zn258 O260 1.932 . S
Zn258 O267 1.977 . S
Zn258 O268 1.910 . S
O259 Zn256 1.933 . S
O259 C270 1.226 . S
O260 Zn258 1.932 . S
O260 C270 1.307 . S
O261 Zn254 1.919 . S
O261 C272 1.253 . S
O262 Zn256 1.941 . S
O262 C272 1.283 . S
O263 Zn256 1.965 . S
O263 C271 1.303 . S
O264 Zn257 1.938 . S
O264 C271 1.247 . S
O265 Zn257 1.906 . S
O265 C273 1.304 . S
O266 Zn254 1.924 . S
O266 C274 1.311 . S
O267 Zn258 1.977 . S
O267 C273 1.272 . S
O268 Zn258 1.910 . S
O268 C274 1.231 . S
C269 O253 1.225 . S
C269 O275 1.298 . S
C270 O259 1.226 . S
C270 O260 1.307 . S
C271 O263 1.303 . S
C271 O264 1.247 . S
C272 O261 1.253 . S
C272 O262 1.283 . S
C273 O265 1.304 . S
C273 O267 1.272 . S
C274 O266 1.311 . S
C274 O268 1.231 . S
O275 Zn257 1.953 . S
O275 C269 1.298 . S
O276 Zn277 1.953 . S
O276 C292 1.225 . S
Zn277 O276 1.953 . S
Zn277 O278 1.949 . S
Zn277 O284 1.919 . S
Zn277 O289 1.924 . S
O278 Zn277 1.949 . S
O278 Zn279 1.923 . S
O278 Zn280 1.950 . S
O278 Zn281 1.945 . S
Zn279 O278 1.923 . S
Zn279 O282 1.933 . S
Zn279 O285 1.941 . S
Zn279 O286 1.965 . S
Zn280 O278 1.950 . S
Zn280 O287 1.938 . S
Zn280 O288 1.906 . S
Zn280 O298 1.953 . S
Zn281 O278 1.945 . S
Zn281 O283 1.932 . S
Zn281 O290 1.977 . S
Zn281 O291 1.910 . S
O282 Zn279 1.933 . S
O282 C293 1.226 . S
O283 Zn281 1.932 . S
O283 C293 1.307 . S
O284 Zn277 1.919 . S
O284 C295 1.253 . S
O285 Zn279 1.941 . S
O285 C295 1.283 . S
O286 Zn279 1.965 . S
O286 C294 1.303 . S
O287 Zn280 1.938 . S
O287 C294 1.247 . S
O288 Zn280 1.906 . S
O288 C296 1.304 . S
O289 Zn277 1.924 . S
O289 C297 1.311 . S
O290 Zn281 1.977 . S
O290 C296 1.272 . S
O291 Zn281 1.910 . S
O291 C297 1.231 . S
C292 O276 1.225 . S
C292 O298 1.298 . S
C293 O282 1.226 . S
C293 O283 1.307 . S
C294 O286 1.303 . S
C294 O287 1.247 . S
C295 O284 1.253 . S
C295 O285 1.283 . S
C296 O288 1.304 . S
C296 O290 1.272 . S
C297 O289 1.311 . S
C297 O291 1.231 . S
O298 Zn280 1.953 . S
O298 C292 1.298 . S
O299 Zn300 1.953 . S
O299 C315 1.225 . S
Zn300 O299 1.953 . S
Zn300 O301 1.949 . S
Zn300 O307 1.919 . S
Zn300 O312 1.924 . S
O301 Zn300 1.949 . S
O301 Zn302 1.923 . S
O301 Zn303 1.950 . S
O301 Zn304 1.945 . S
Zn302 O301 1.923 . S
Zn302 O305 1.933 . S
Zn302 O308 1.941 . S
Zn302 O309 1.965 . S
Zn303 O301 1.950 . S
Zn303 O310 1.938 . S
Zn303 O311 1.906 . S
Zn303 O321 1.953 . S
Zn304 O301 1.945 . S
Zn304 O306 1.932 . S
Zn304 O313 1.977 . S
Zn304 O314 1.910 . S
O305 Zn302 1.933 . S
O305 C316 1.226 . S
O306 Zn304 1.932 . S
O306 C316 1.307 . S
O307 Zn300 1.919 . S
O307 C318 1.253 . S
O308 Zn302 1.941 . S
O308 C318 1.283 . S
O309 Zn302 1.965 . S
O309 C317 1.303 . S
O310 Zn303 1.938 . S
O310 C317 1.247 . S
O311 Zn303 1.906 . S
O311 C319 1.304 . S
O312 Zn300 1.924 . S
O312 C320 1.311 . S
O313 Zn304 1.977 . S
O313 C319 1.272 . S
O314 Zn304 1.910 . S
O314 C320 1.231 . S
C315 O299 1.225 . S
C315 O321 1.298 . S
C316 O305 1.226 . S
C316 O306 1.307 . S
C317 O309 1.303 . S
C317 O310 1.247 . S
C318 O307 1.253 . S
C318 O308 1.283 . S
C319 O311 1.304 . S
C319 O313 1.272 . S
C320 O312 1.311 . S
C320 O314 1.231 . S
O321 Zn303 1.953 . S
O321 C315 1.298 . S
O322 Zn323 1.953 . S
O322 C338 1.225 . S
Zn323 O322 1.953 . S
Zn323 O324 1.949 . S
Zn323 O330 1.919 . S
Zn323 O335 1.924 . S
O324 Zn323 1.949 . S
O324 Zn325 1.923 . S
O324 Zn326 1.950 . S
O324 Zn327 1.945 . S
Zn325 O324 1.923 . S
Zn325 O328 1.933 . S
Zn325 O331 1.941 . S
Zn325 O332 1.965 . S
Zn326 O324 1.950 . S
Zn326 O333 1.938 . S
Zn326 O334 1.906 . S
Zn326 O344 1.953 . S
Zn327 O324 1.945 . S
Zn327 O329 1.932 . S
Zn327 O336 1.977 . S
Zn327 O337 1.910 . S
O328 Zn325 1.933 . S
O328 C339 1.226 . S
O329 Zn327 1.932 . S
O329 C339 1.307 . S
O330 Zn323 1.919 . S
O330 C341 1.253 . S
O331 Zn325 1.941 . S
O331 C341 1.283 . S
O332 Zn325 1.965 . S
O332 C340 1.303 . S
O333 Zn326 1.938 . S
O333 C340 1.247 . S
O334 Zn326 1.906 . S
O334 C342 1.304 . S
O335 Zn323 1.924 . S
O335 C343 1.311 . S
O336 Zn327 1.977 . S
O336 C342 1.272 . S
O337 Zn327 1.910 . S
O337 C343 1.231 . S
C338 O322 1.225 . S
C338 O344 1.298 . S
C339 O328 1.226 . S
C339 O329 1.307 . S
C340 O332 1.303 . S
C340 O333 1.247 . S
C341 O330 1.253 . S
C341 O331 1.283 . S
C342 O334 1.304 . S
C342 O336 1.272 . S
C343 O335 1.311 . S
C343 O337 1.231 . S
O344 Zn326 1.953 . S
O344 C338 1.298 . S
O345 Zn346 1.953 . S
O345 C361 1.225 . S
Zn346 O345 1.953 . S
Zn346 O347 1.949 . S
Zn346 O353 1.919 . S
Zn346 O358 1.924 . S
O347 Zn346 1.949 . S
O347 Zn348 1.923 . S
O347 Zn349 1.950 . S
O347 Zn350 1.945 . S
Zn348 O347 1.923 . S
Zn348 O351 1.933 . S
Zn348 O354 1.941 . S
Zn348 O355 1.965 . S
Zn349 O347 1.950 . S
Zn349 O356 1.938 . S
Zn349 O357 1.906 . S
Zn349 O367 1.953 . S
Zn350 O347 1.945 . S
Zn350 O352 1.932 . S
Zn350 O359 1.977 . S
Zn350 O360 1.910 . S
O351 Zn348 1.933 . S
O351 C362 1.226 . S
O352 Zn350 1.932 . S
O352 C362 1.307 . S
O353 Zn346 1.919 . S
O353 C364 1.253 . S
O354 Zn348 1.941 . S
O354 C364 1.283 . S
O355 Zn348 1.965 . S
O355 C363 1.303 . S
O356 Zn349 1.938 . S
O356 C363 1.247 . S
O357 Zn349 1.906 . S
O357 C365 1.304 . S
O358 Zn346 1.924 . S
O358 C366 1.311 . S
O359 Zn350 1.977 . S
O359 C365 1.272 . S
O360 Zn350 1.910 . S
O360 C366 1.231 . S
C361 O345 1.225 . S
C361 O367 1.298 . S
C362 O351 1.226 . S
C362 O352 1.307 . S
C363 O355 1.303 . S
C363 O356 1.247 . S
C364 O353 1.253 . S
C364 O354 1.283 . S
C365 O357 1.304 . S
C365 O359 1.272 . S
C366 O358 1.311 . S
C366 O360 1.231 . S
O367 Zn349 1.953 . S
O367 C361 1.298 . S
O368 Zn369 1.953 . S
O368 C384 1.225 . S
Zn369 O368 1.953 . S
Zn369 O370 1.949 . S
Zn369 O376 1.919 . S
Zn369 O381 1.924 . S
O370 Zn369 1.949 . S
O370 Zn371 1.923 . S
O370 Zn372 1.950 . S
O370 Zn373 1.945 . S
Zn371 O370 1.923 . S
Zn371 O374 1.933 . S
Zn371 O377 1.941 . S
Zn371 O378 1.965 . S
Zn372 O370 1.950 . S
Zn372 O379 1.938 . S
Zn372 O380 1.906 . S
Zn372 O390 1.953 . S
Zn373 O370 1.945 . S
Zn373 O375 1.932 . S
Zn373 O382 1.977 . S
Zn373 O383 1.910 . S
O374 Zn371 1.933 . S
O374 C385 1.226 . S
O375 Zn373 1.932 . S
O375 C385 1.307 . S
O376 Zn369 1.919 . S
O376 C387 1.253 . S
O377 Zn371 1.941 . S
O377 C387 1.283 . S
O378 Zn371 1.965 . S
O378 C386 1.303 . S
O379 Zn372 1.938 . S
O379 C386 1.247 . S
O380 Zn372 1.906 . S
O380 C388 1.304 . S
O381 Zn369 1.924 . S
O381 C389 1.311 . S
O382 Zn373 1.977 . S
O382 C388 1.272 . S
O383 Zn373 1.910 . S
O383 C389 1.231 . S
C384 O368 1.225 . S
C384 O390 1.298 . S
C385 O374 1.226 . S
C385 O375 1.307 . S
C386 O378 1.303 . S
C386 O379 1.247 . S
C387 O376 1.253 . S
C387 O377 1.283 . S
C388 O380 1.304 . S
C388 O382 1.272 . S
C389 O381 1.311 . S
C389 O383 1.231 . S
O390 Zn372 1.953 . S
O390 C384 1.298 . S
O391 Zn392 1.953 . S
O391 C407 1.225 . S
Zn392 O391 1.953 . S
Zn392 O393 1.949 . S
Zn392 O399 1.919 . S
Zn392 O404 1.924 . S
O393 Zn392 1.949 . S
O393 Zn394 1.923 . S
O393 Zn395 1.950 . S
O393 Zn396 1.945 . S
Zn394 O393 1.923 . S
Zn394 O397 1.933 . S
Zn394 O400 1.941 . S
Zn394 O401 1.965 . S
Zn395 O393 1.950 . S
Zn395 O402 1.938 . S
Zn395 O403 1.906 . S
Zn395 O413 1.953 . S
Zn396 O393 1.945 . S
Zn396 O398 1.932 . S
Zn396 O405 1.977 . S
Zn396 O406 1.910 . S
O397 Zn394 1.933 . S
O397 C408 1.226 . S
O398 Zn396 1.932 . S
O398 C408 1.307 . S
O399 Zn392 1.919 . S
O399 C410 1.253 . S
O400 Zn394 1.941 . S
O400 C410 1.283 . S
O401 Zn394 1.965 . S
O401 C409 1.303 . S
O402 Zn395 1.938 . S
O402 C409 1.247 . S
O403 Zn395 1.906 . S
O403 C411 1.304 . S
O404 Zn392 1.924 . S
O404 C412 1.311 . S
O405 Zn396 1.977 . S
O405 C411 1.272 . S
O406 Zn396 1.910 . S
O406 C412 1.231 . S
C407 O391 1.225 . S
C407 O413 1.298 . S
C408 O397 1.226 . S
C408 O398 1.307 . S
C409 O401 1.303 . S
C409 O402 1.247 . S
C410 O399 1.253 . S
C410 O400 1.283 . S
C411 O403 1.304 . S
C411 O405 1.272 . S
C412 O404 1.311 . S
C412 O406 1.231 . S
O413 Zn395 1.953 . S
O413 C407 1.298 . S
C414 C415 1.349 1_554 S
C414 C416 1.327 . S
C414 H439 0.950 . S
C415 C414 1.349 1_556 S
C415 C431 1.349 . S
C416 C414 1.327 . S
C416 C435 1.429 . S
C416 H440 0.950 . S
C417 C434 1.574 . S
C417 C436 1.368 1_556 S
C417 H441 0.949 . S
H418 C422 0.949 . S
C419 C420 1.349 1_556 S
C419 C421 1.327 . S
C419 H442 0.950 . S
C420 C419 1.349 1_554 S
C420 C432 1.349 . S
C421 C419 1.327 . S
C421 C437 1.429 1_556 S
C421 H443 0.950 . S
C422 H418 0.949 . S
C422 C430 1.574 . S
C422 C438 1.368 . S
H423 C431 0.950 . S
H424 C429 0.950 . S
H425 C430 0.949 . S
H426 C432 0.950 . S
H427 C433 0.950 . S
H428 C434 0.949 . S
C429 H424 0.950 . S
C429 C431 1.327 . S
C429 C435 1.429 1_556 S
C430 C422 1.574 . S
C430 H425 0.949 . S
C430 C436 1.368 . S
C431 C415 1.349 . S
C431 H423 0.950 . S
C431 C429 1.327 . S
C432 C420 1.349 . S
C432 H426 0.950 . S
C432 C433 1.327 . S
C433 H427 0.950 . S
C433 C432 1.327 . S
C433 C437 1.429 . S
C434 C417 1.574 . S
C434 H428 0.949 . S
C434 C438 1.368 1_556 S
C435 C416 1.429 . S
C435 C429 1.429 1_554 S
C435 C436 1.523 . S
C436 C417 1.368 1_554 S
C436 C430 1.368 . S
C436 C435 1.523 . S
C437 C421 1.429 1_554 S
C437 C433 1.429 . S
C437 C438 1.523 . S
C438 C422 1.368 . S
C438 C434 1.368 1_554 S
C438 C437 1.523 . S
H439 C414 0.950 . S
H440 C416 0.950 . S
H441 C417 0.949 . S
H442 C419 0.950 . S
H443 C421 0.950 . S
C444 C445 1.349 . S
C444 C446 1.327 . S
C444 H469 0.950 . S
C445 C444 1.349 . S
C445 C461 1.349 1_554 S
C446 C444 1.327 . S
C446 C465 1.429 . S
C446 H470 0.950 . S
C447 C464 1.574 . S
C447 C466 1.368 1_556 S
C447 H471 0.949 . S
H448 C452 0.949 . S
C449 C450 1.349 . S
C449 C451 1.327 . S
C449 H472 0.950 . S
C450 C449 1.349 . S
C450 C462 1.349 1_556 S
C451 C449 1.327 . S
C451 C467 1.429 1_556 S
C451 H473 0.950 . S
C452 H448 0.949 . S
C452 C460 1.574 . S
C452 C468 1.368 . S
H453 C461 0.950 . S
H454 C459 0.950 . S
H455 C460 0.949 . S
H456 C462 0.950 . S
H457 C463 0.950 . S
H458 C464 0.949 . S
C459 H454 0.950 . S
C459 C461 1.327 . S
C459 C465 1.429 1_556 S
C460 C452 1.574 . S
C460 H455 0.949 . S
C460 C466 1.368 . S
C461 C445 1.349 1_556 S
C461 H453 0.950 . S
C461 C459 1.327 . S
C462 C450 1.349 1_554 S
C462 H456 0.950 . S
C462 C463 1.327 . S
C463 H457 0.950 . S
C463 C462 1.327 . S
C463 C467 1.429 . S
C464 C447 1.574 . S
C464 H458 0.949 . S
C464 C468 1.368 1_556 S
C465 C446 1.429 . S
C465 C459 1.429 1_554 S
C465 C466 1.523 . S
C466 C447 1.368 1_554 S
C466 C460 1.368 . S
C466 C465 1.523 . S
C467 C451 1.429 1_554 S
C467 C463 1.429 . S
C467 C468 1.523 . S
C468 C452 1.368 . S
C468 C464 1.368 1_554 S
C468 C467 1.523 . S
H469 C444 0.950 . S
H470 C446 0.950 . S
H471 C447 0.949 . S
H472 C449 0.950 . S
H473 C451 0.950 . S
C474 C475 1.349 . S
C474 C476 1.327 1_556 S
C474 H499 0.950 . S
C475 C474 1.349 . S
C475 C491 1.347 1_556 S
C476 C474 1.327 1_554 S
C476 C495 1.429 . S
C476 H500 0.950 1_554 S
C477 C494 1.574 . S
C477 C496 1.368 . S
C477 H501 0.949 . S
H478 C482 0.949 . S
C479 C480 1.349 . S
C479 C481 1.327 . S
C479 H502 0.950 . S
C480 C479 1.349 . S
C480 C492 1.349 . S
C481 C479 1.327 . S
C481 C497 1.429 . S
C481 H503 0.950 . S
C482 H478 0.949 . S
C482 C490 1.574 . S
C482 C498 1.368 . S
H483 C491 0.951 . S
H484 C489 0.950 . S
H485 C490 0.949 . S
H486 C492 0.950 . S
H487 C493 0.950 . S
H488 C494 0.949 . S
C489 H484 0.950 . S
C489 C491 1.329 . S
C489 C495 1.429 . S
C490 C482 1.574 . S
C490 H485 0.949 . S
C490 C496 1.368 . S
C491 C475 1.347 1_554 S
C491 H483 0.951 . S
C491 C489 1.329 . S
C492 C480 1.349 . S
C492 H486 0.950 . S
C492 C493 1.327 . S
C493 H487 0.950 . S
C493 C492 1.327 . S
C493 C497 1.429 . S
C494 C477 1.574 . S
C494 H488 0.949 . S
C494 C498 1.368 . S
C495 C476 1.429 . S
C495 C489 1.429 . S
C495 C496 1.523 . S
C496 C477 1.368 . S
C496 C490 1.368 . S
C496 C495 1.523 . S
C497 C481 1.429 . S
C497 C493 1.429 . S
C497 C498 1.523 . S
C498 C482 1.368 . S
C498 C494 1.368 . S
C498 C497 1.523 . S
H499 C474 0.950 . S
H500 C476 0.950 1_556 S
H501 C477 0.949 . S
H502 C479 0.950 . S
H503 C481 0.950 . S
C504 C505 1.349 . S
C504 C506 1.327 . S
C504 H529 0.950 . S
C505 C504 1.349 . S
C505 C521 1.349 . S
C506 C504 1.327 . S
C506 C525 1.429 . S
C506 H530 0.950 . S
C507 C524 1.574 . S
C507 C526 1.368 . S
C507 H531 0.949 . S
H508 C512 0.949 . S
C509 C510 1.349 . S
C509 C511 1.327 . S
C509 H532 0.950 . S
C510 C509 1.349 . S
C510 C522 1.349 . S
C511 C509 1.327 . S
C511 C527 1.429 . S
C511 H533 0.950 . S
C512 H508 0.949 . S
C512 C520 1.574 . S
C512 C528 1.368 . S
H513 C521 0.950 . S
H514 C519 0.950 . S
H515 C520 0.949 . S
H516 C522 0.950 . S
H517 C523 0.950 . S
H518 C524 0.949 . S
C519 H514 0.950 . S
C519 C521 1.327 . S
C519 C525 1.429 . S
C520 C512 1.574 . S
C520 H515 0.949 . S
C520 C526 1.368 . S
C521 C505 1.349 . S
C521 H513 0.950 . S
C521 C519 1.327 . S
C522 C510 1.349 . S
C522 H516 0.950 . S
C522 C523 1.327 . S
C523 H517 0.950 . S
C523 C522 1.327 . S
C523 C527 1.429 . S
C524 C507 1.574 . S
C524 H518 0.949 . S
C524 C528 1.368 . S
C525 C506 1.429 . S
C525 C519 1.429 . S
C525 C526 1.523 . S
C526 C507 1.368 . S
C526 C520 1.368 . S
C526 C525 1.523 . S
C527 C511 1.429 . S
C527 C523 1.429 . S
C527 C528 1.523 . S
C528 C512 1.368 . S
C528 C524 1.368 . S
C528 C527 1.523 . S
H529 C504 0.950 . S
H530 C506 0.950 . S
H531 C507 0.949 . S
H532 C509 0.950 . S
H533 C511 0.950 . S
C534 C535 1.349 . S
C534 C536 1.327 . S
C534 H559 0.950 . S
C535 C534 1.349 . S
C535 C551 1.349 . S
C536 C534 1.327 . S
C536 C555 1.429 . S
C536 H560 0.950 . S
C537 C554 1.574 . S
C537 C556 1.368 . S
C537 H561 0.949 . S
H538 C542 0.949 . S
C539 C540 1.349 . S
C539 C541 1.327 . S
C539 H562 0.950 . S
C540 C539 1.349 . S
C540 C552 1.349 . S
C541 C539 1.327 . S
C541 C557 1.429 . S
C541 H563 0.950 . S
C542 H538 0.949 . S
C542 C550 1.574 . S
C542 C558 1.368 . S
H543 C551 0.950 . S
H544 C549 0.950 . S
H545 C550 0.949 . S
H546 C552 0.950 . S
H547 C553 0.950 . S
H548 C554 0.949 . S
C549 H544 0.950 . S
C549 C551 1.327 . S
C549 C555 1.429 . S
C550 C542 1.574 . S
C550 H545 0.949 . S
C550 C556 1.368 . S
C551 C535 1.349 . S
C551 H543 0.950 . S
C551 C549 1.327 . S
C552 C540 1.349 . S
C552 H546 0.950 . S
C552 C553 1.327 . S
C553 H547 0.950 . S
C553 C552 1.327 . S
C553 C557 1.429 . S
C554 C537 1.574 . S
C554 H548 0.949 . S
C554 C558 1.368 . S
C555 C536 1.429 . S
C555 C549 1.429 . S
C555 C556 1.523 . S
C556 C537 1.368 . S
C556 C550 1.368 . S
C556 C555 1.523 . S
C557 C541 1.429 . S
C557 C553 1.429 . S
C557 C558 1.523 . S
C558 C542 1.368 . S
C558 C554 1.368 . S
C558 C557 1.523 . S
H559 C534 0.950 . S
H560 C536 0.950 . S
H561 C537 0.949 . S
H562 C539 0.950 . S
H563 C541 0.950 . S
C564 C565 1.349 . S
C564 C566 1.327 . S
C564 H589 0.950 . S
C565 C564 1.349 . S
C565 C581 1.349 . S
C566 C564 1.327 . S
C566 C585 1.429 . S
C566 H590 0.950 . S
C567 C584 1.574 . S
C567 C586 1.368 . S
C567 H591 0.949 . S
H568 C572 0.949 . S
C569 C570 1.349 . S
C569 C571 1.327 . S
C569 H592 0.950 . S
C570 C569 1.349 . S
C570 C582 1.349 . S
C571 C569 1.327 . S
C571 C587 1.429 . S
C571 H593 0.950 . S
C572 H568 0.949 . S
C572 C580 1.574 . S
C572 C588 1.368 . S
H573 C581 0.950 . S
H574 C579 0.950 . S
H575 C580 0.949 . S
H576 C582 0.950 . S
H577 C583 0.950 . S
H578 C584 0.949 . S
C579 H574 0.950 . S
C579 C581 1.327 . S
C579 C585 1.429 . S
C580 C572 1.574 . S
C580 H575 0.949 . S
C580 C586 1.368 . S
C581 C565 1.349 . S
C581 H573 0.950 . S
C581 C579 1.327 . S
C582 C570 1.349 . S
C582 H576 0.950 . S
C582 C583 1.327 . S
C583 H577 0.950 . S
C583 C582 1.327 . S
C583 C587 1.429 . S
C584 C567 1.574 . S
C584 H578 0.949 . S
C584 C588 1.368 . S
C585 C566 1.429 . S
C585 C579 1.429 . S
C585 C586 1.523 . S
C586 C567 1.368 . S
C586 C580 1.368 . S
C586 C585 1.523 . S
C587 C571 1.429 . S
C587 C583 1.429 . S
C587 C588 1.523 . S
C588 C572 1.368 . S
C588 C584 1.368 . S
C588 C587 1.523 . S
H589 C564 0.950 . S
H590 C566 0.950 . S
H591 C567 0.949 . S
H592 C569 0.950 . S
H593 C571 0.950 . S
C594 C595 1.349 . S
C594 C596 1.327 . S
C594 H619 0.950 . S
C595 C594 1.349 . S
C595 C611 1.349 . S
C596 C594 1.327 . S
C596 C615 1.429 . S
C596 H620 0.950 . S
C597 C614 1.574 . S
C597 C616 1.368 . S
C597 H621 0.949 . S
H598 C602 0.949 . S
C599 C600 1.349 . S
C599 C601 1.327 . S
C599 H622 0.950 . S
C600 C599 1.349 . S
C600 C612 1.349 . S
C601 C599 1.327 . S
C601 C617 1.429 . S
C601 H623 0.950 . S
C602 H598 0.949 . S
C602 C610 1.574 . S
C602 C618 1.368 . S
H603 C611 0.950 . S
H604 C609 0.950 . S
H605 C610 0.949 . S
H606 C612 0.950 . S
H607 C613 0.950 . S
H608 C614 0.949 . S
C609 H604 0.950 . S
C609 C611 1.327 . S
C609 C615 1.429 . S
C610 C602 1.574 . S
C610 H605 0.949 . S
C610 C616 1.368 . S
C611 C595 1.349 . S
C611 H603 0.950 . S
C611 C609 1.327 . S
C612 C600 1.349 . S
C612 H606 0.950 . S
C612 C613 1.327 . S
C613 H607 0.950 . S
C613 C612 1.327 . S
C613 C617 1.429 . S
C614 C597 1.574 . S
C614 H608 0.949 . S
C614 C618 1.368 . S
C615 C596 1.429 . S
C615 C609 1.429 . S
C615 C616 1.523 . S
C616 C597 1.368 . S
C616 C610 1.368 . S
C616 C615 1.523 . S
C617 C601 1.429 . S
C617 C613 1.429 . S
C617 C618 1.523 . S
C618 C602 1.368 . S
C618 C614 1.368 . S
C618 C617 1.523 . S
H619 C594 0.950 . S
H620 C596 0.950 . S
H621 C597 0.949 . S
H622 C599 0.950 . S
H623 C601 0.950 . S
C624 C625 1.349 . S
C624 C626 1.327 . S
C624 H649 0.950 . S
C625 C624 1.349 . S
C625 C641 1.349 . S
C626 C624 1.327 . S
C626 C645 1.429 . S
C626 H650 0.950 . S
C627 C644 1.574 . S
C627 C646 1.368 . S
C627 H651 0.949 . S
H628 C632 0.949 . S
C629 C630 1.349 . S
C629 C631 1.327 . S
C629 H652 0.950 . S
C630 C629 1.349 . S
C630 C642 1.349 . S
C631 C629 1.327 . S
C631 C647 1.429 . S
C631 H653 0.950 . S
C632 H628 0.949 . S
C632 C640 1.574 . S
C632 C648 1.368 . S
H633 C641 0.950 . S
H634 C639 0.950 . S
H635 C640 0.949 . S
H636 C642 0.950 . S
H637 C643 0.950 . S
H638 C644 0.949 . S
C639 H634 0.950 . S
C639 C641 1.327 . S
C639 C645 1.429 . S
C640 C632 1.574 . S
C640 H635 0.949 . S
C640 C646 1.368 . S
C641 C625 1.349 . S
C641 H633 0.950 . S
C641 C639 1.327 . S
C642 C630 1.349 . S
C642 H636 0.950 . S
C642 C643 1.327 . S
C643 H637 0.950 . S
C643 C642 1.327 . S
C643 C647 1.429 . S
C644 C627 1.574 . S
C644 H638 0.949 . S
C644 C648 1.368 . S
C645 C626 1.429 . S
C645 C639 1.429 . S
C645 C646 1.523 . S
C646 C627 1.368 . S
C646 C640 1.368 . S
C646 C645 1.523 . S
C647 C631 1.429 . S
C647 C643 1.429 . S
C647 C648 1.523 . S
C648 C632 1.368 . S
C648 C644 1.368 . S
C648 C647 1.523 . S
H649 C624 0.950 . S
H650 C626 0.950 . S
H651 C627 0.949 . S
H652 C629 0.950 . S
H653 C631 0.950 . S
C654 C655 1.349 . S
C654 C656 1.327 . S
C654 H679 0.950 . S
C655 C654 1.349 . S
C655 C671 1.349 . S
C656 C654 1.327 . S
C656 C675 1.429 . S
C656 H680 0.950 . S
C657 C674 1.574 . S
C657 C676 1.368 . S
C657 H681 0.949 . S
H658 C662 0.949 . S
C659 C660 1.349 . S
C659 C661 1.327 . S
C659 H682 0.950 . S
C660 C659 1.349 . S
C660 C672 1.349 . S
C661 C659 1.327 . S
C661 C677 1.429 . S
C661 H683 0.950 . S
C662 H658 0.949 . S
C662 C670 1.574 . S
C662 C678 1.368 . S
H663 C671 0.950 . S
H664 C669 0.950 . S
H665 C670 0.949 . S
H666 C672 0.950 . S
H667 C673 0.950 . S
H668 C674 0.949 . S
C669 H664 0.950 . S
C669 C671 1.327 . S
C669 C675 1.429 . S
C670 C662 1.574 . S
C670 H665 0.949 . S
C670 C676 1.368 . S
C671 C655 1.349 . S
C671 H663 0.950 . S
C671 C669 1.327 . S
C672 C660 1.349 . S
C672 H666 0.950 . S
C672 C673 1.327 . S
C673 H667 0.950 . S
C673 C672 1.327 . S
C673 C677 1.429 . S
C674 C657 1.574 . S
C674 H668 0.949 . S
C674 C678 1.368 . S
C675 C656 1.429 . S
C675 C669 1.429 . S
C675 C676 1.523 . S
C676 C657 1.368 . S
C676 C670 1.368 . S
C676 C675 1.523 . S
C677 C661 1.429 . S
C677 C673 1.429 . S
C677 C678 1.523 . S
C678 C662 1.368 . S
C678 C674 1.368 . S
C678 C677 1.523 . S
H679 C654 0.950 . S
H680 C656 0.950 . S
H681 C657 0.949 . S
H682 C659 0.950 . S
H683 C661 0.950 . S
C684 C685 1.349 . S
C684 C686 1.327 . S
C684 H709 0.950 . S
C685 C684 1.349 . S
C685 C701 1.349 . S
C686 C684 1.327 . S
C686 C705 1.429 . S
C686 H710 0.950 . S
C687 C704 1.574 . S
C687 C706 1.368 . S
C687 H711 0.949 . S
H688 C692 0.949 . S
C689 C690 1.349 . S
C689 C691 1.327 . S
C689 H712 0.950 . S
C690 C689 1.349 . S
C690 C702 1.349 . S
C691 C689 1.327 . S
C691 C707 1.429 . S
C691 H713 0.950 . S
C692 H688 0.949 . S
C692 C700 1.574 . S
C692 C708 1.368 . S
H693 C701 0.950 . S
H694 C699 0.950 . S
H695 C700 0.949 . S
H696 C702 0.950 . S
H697 C703 0.950 . S
H698 C704 0.949 . S
C699 H694 0.950 . S
C699 C701 1.327 . S
C699 C705 1.429 . S
C700 C692 1.574 . S
C700 H695 0.949 . S
C700 C706 1.368 . S
C701 C685 1.349 . S
C701 H693 0.950 . S
C701 C699 1.327 . S
C702 C690 1.349 . S
C702 H696 0.950 . S
C702 C703 1.327 . S
C703 H697 0.950 . S
C703 C702 1.327 . S
C703 C707 1.429 . S
C704 C687 1.574 . S
C704 H698 0.949 . S
C704 C708 1.368 . S
C705 C686 1.429 . S
C705 C699 1.429 . S
C705 C706 1.523 . S
C706 C687 1.368 . S
C706 C700 1.368 . S
C706 C705 1.523 . S
C707 C691 1.429 . S
C707 C703 1.429 . S
C707 C708 1.523 . S
C708 C692 1.368 . S
C708 C704 1.368 . S
C708 C707 1.523 . S
H709 C684 0.950 . S
H710 C686 0.950 . S
H711 C687 0.949 . S
H712 C689 0.950 . S
H713 C691 0.950 . S
C714 C715 1.349 . S
C714 C716 1.327 . S
C714 H739 0.950 . S
C715 C714 1.349 . S
C715 C731 1.349 . S
C716 C714 1.327 . S
C716 C735 1.429 . S
C716 H740 0.950 . S
C717 C734 1.574 . S
C717 C736 1.368 . S
C717 H741 0.949 . S
H718 C722 0.949 . S
C719 C720 1.349 . S
C719 C721 1.327 . S
C719 H742 0.950 . S
C720 C719 1.349 . S
C720 C732 1.349 . S
C721 C719 1.327 . S
C721 C737 1.429 . S
C721 H743 0.950 . S
C722 H718 0.949 . S
C722 C730 1.574 . S
C722 C738 1.368 . S
H723 C731 0.950 . S
H724 C729 0.950 . S
H725 C730 0.949 . S
H726 C732 0.950 . S
H727 C733 0.950 . S
H728 C734 0.949 . S
C729 H724 0.950 . S
C729 C731 1.327 . S
C729 C735 1.429 . S
C730 C722 1.574 . S
C730 H725 0.949 . S
C730 C736 1.368 . S
C731 C715 1.349 . S
C731 H723 0.950 . S
C731 C729 1.327 . S
C732 C720 1.349 . S
C732 H726 0.950 . S
C732 C733 1.327 . S
C733 H727 0.950 . S
C733 C732 1.327 . S
C733 C737 1.429 . S
C734 C717 1.574 . S
C734 H728 0.949 . S
C734 C738 1.368 . S
C735 C716 1.429 . S
C735 C729 1.429 . S
C735 C736 1.523 . S
C736 C717 1.368 . S
C736 C730 1.368 . S
C736 C735 1.523 . S
C737 C721 1.429 . S
C737 C733 1.429 . S
C737 C738 1.523 . S
C738 C722 1.368 . S
C738 C734 1.368 . S
C738 C737 1.523 . S
H739 C714 0.950 . S
H740 C716 0.950 . S
H741 C717 0.949 . S
H742 C719 0.950 . S
H743 C721 0.950 . S
C744 C745 1.349 . S
C744 C746 1.327 . S
C744 H769 0.950 . S
C745 C744 1.349 . S
C745 C761 1.349 . S
C746 C744 1.327 . S
C746 C765 1.429 . S
C746 H770 0.950 . S
C747 C764 1.574 . S
C747 C766 1.368 . S
C747 H771 0.949 . S
H748 C752 0.949 . S
C749 C750 1.349 . S
C749 C751 1.327 . S
C749 H772 0.950 . S
C750 C749 1.349 . S
C750 C762 1.349 . S
C751 C749 1.327 . S
C751 C767 1.429 . S
C751 H773 0.950 . S
C752 H748 0.949 . S
C752 C760 1.574 . S
C752 C768 1.368 . S
H753 C761 0.950 . S
H754 C759 0.950 . S
H755 C760 0.949 . S
H756 C762 0.950 . S
H757 C763 0.950 . S
H758 C764 0.949 . S
C759 H754 0.950 . S
C759 C761 1.327 . S
C759 C765 1.429 . S
C760 C752 1.574 . S
C760 H755 0.949 . S
C760 C766 1.368 . S
C761 C745 1.349 . S
C761 H753 0.950 . S
C761 C759 1.327 . S
C762 C750 1.349 . S
C762 H756 0.950 . S
C762 C763 1.327 . S
C763 H757 0.950 . S
C763 C762 1.327 . S
C763 C767 1.429 . S
C764 C747 1.574 . S
C764 H758 0.949 . S
C764 C768 1.368 . S
C765 C746 1.429 . S
C765 C759 1.429 . S
C765 C766 1.523 . S
C766 C747 1.368 . S
C766 C760 1.368 . S
C766 C765 1.523 . S
C767 C751 1.429 . S
C767 C763 1.429 . S
C767 C768 1.523 . S
C768 C752 1.368 . S
C768 C764 1.368 . S
C768 C767 1.523 . S
H769 C744 0.950 . S
H770 C746 0.950 . S
H771 C747 0.949 . S
H772 C749 0.950 . S
H773 C751 0.950 . S
C774 C775 1.349 . S
C774 C776 1.327 1_545 S
C774 H799 0.950 . S
C775 C774 1.349 . S
C775 C791 1.349 1_545 S
C776 C774 1.327 1_565 S
C776 C795 1.429 . S
C776 H800 0.950 . S
C777 C794 1.574 . S
C777 C796 1.368 . S
C777 H801 0.949 . S
H778 C782 0.949 . S
C779 C780 1.349 . S
C779 C781 1.327 . S
C779 H802 0.950 . S
C780 C779 1.349 . S
C780 C792 1.349 . S
C781 C779 1.327 . S
C781 C797 1.429 . S
C781 H803 0.950 . S
C782 H778 0.949 . S
C782 C790 1.574 . S
C782 C798 1.368 . S
H783 C791 0.950 . S
H784 C789 0.950 . S
H785 C790 0.949 . S
H786 C792 0.950 . S
H787 C793 0.950 . S
H788 C794 0.949 . S
C789 H784 0.950 . S
C789 C791 1.327 . S
C789 C795 1.429 . S
C790 C782 1.574 . S
C790 H785 0.949 . S
C790 C796 1.368 . S
C791 C775 1.349 1_565 S
C791 H783 0.950 . S
C791 C789 1.327 . S
C792 C780 1.349 . S
C792 H786 0.950 . S
C792 C793 1.327 . S
C793 H787 0.950 . S
C793 C792 1.327 . S
C793 C797 1.429 . S
C794 C777 1.574 . S
C794 H788 0.949 . S
C794 C798 1.368 . S
C795 C776 1.429 . S
C795 C789 1.429 . S
C795 C796 1.523 . S
C796 C777 1.368 . S
C796 C790 1.368 . S
C796 C795 1.523 . S
C797 C781 1.429 . S
C797 C793 1.429 . S
C797 C798 1.523 . S
C798 C782 1.368 . S
C798 C794 1.368 . S
C798 C797 1.523 . S
H799 C774 0.950 . S
H800 C776 0.950 . S
H801 C777 0.949 . S
H802 C779 0.950 . S
H803 C781 0.950 . S
C804 C805 1.349 . S
C804 C806 1.327 . S
C804 H829 0.950 . S
C805 C804 1.349 . S
C805 C821 1.349 . S
C806 C804 1.327 . S
C806 C825 1.429 . S
C806 H830 0.950 . S
C807 C824 1.574 . S
C807 C826 1.368 . S
C807 H831 0.949 . S
H808 C812 0.949 . S
C809 C810 1.349 1_455 S
C809 C811 1.327 . S
C809 H832 0.950 . S
C810 C809 1.349 1_655 S
C810 C822 1.349 . S
C811 C809 1.327 . S
C811 C827 1.429 . S
C811 H833 0.950 . S
C812 H808 0.949 . S
C812 C820 1.574 . S
C812 C828 1.368 . S
H813 C821 0.950 . S
H814 C819 0.950 . S
H815 C820 0.949 . S
H816 C822 0.950 . S
H817 C823 0.950 . S
H818 C824 0.949 . S
C819 H814 0.950 . S
C819 C821 1.327 . S
C819 C825 1.429 . S
C820 C812 1.574 . S
C820 H815 0.949 . S
C820 C826 1.368 . S
C821 C805 1.349 . S
C821 H813 0.950 . S
C821 C819 1.327 . S
C822 C810 1.349 . S
C822 H816 0.950 . S
C822 C823 1.327 1_655 S
C823 H817 0.950 . S
C823 C822 1.327 1_455 S
C823 C827 1.429 . S
C824 C807 1.574 . S
C824 H818 0.949 . S
C824 C828 1.368 . S
C825 C806 1.429 . S
C825 C819 1.429 . S
C825 C826 1.523 1_545 S
C826 C807 1.368 . S
C826 C820 1.368 . S
C826 C825 1.523 1_565 S
C827 C811 1.429 . S
C827 C823 1.429 . S
C827 C828 1.523 . S
C828 C812 1.368 . S
C828 C824 1.368 . S
C828 C827 1.523 . S
H829 C804 0.950 . S
H830 C806 0.950 . S
H831 C807 0.949 . S
H832 C809 0.950 . S
H833 C811 0.950 . S
C834 C835 1.349 . S
C834 C836 1.327 . S
C834 H859 0.950 . S
C835 C834 1.349 . S
C835 C851 1.349 . S
C836 C834 1.327 . S
C836 C855 1.429 . S
C836 H860 0.950 . S
C837 C854 1.574 . S
C837 C856 1.368 . S
C837 H861 0.949 . S
H838 C842 0.949 . S
C839 C840 1.349 . S
C839 C841 1.327 . S
C839 H862 0.950 . S
C840 C839 1.349 . S
C840 C852 1.349 . S
C841 C839 1.327 . S
C841 C857 1.429 . S
C841 H863 0.950 . S
C842 H838 0.949 . S
C842 C850 1.574 . S
C842 C858 1.368 . S
H843 C851 0.950 . S
H844 C849 0.959 . S
H845 C850 0.949 . S
H846 C852 0.950 . S
H847 C853 0.950 . S
H848 C854 0.949 . S
C849 H844 0.959 . S
C849 C851 1.327 . S
C849 C855 1.429 . S
C850 C842 1.574 . S
C850 H845 0.949 . S
C850 C856 1.368 . S
C851 C835 1.349 . S
C851 H843 0.950 . S
C851 C849 1.327 . S
C852 C840 1.349 . S
C852 H846 0.950 . S
C852 C853 1.327 . S
C853 H847 0.950 . S
C853 C852 1.327 . S
C853 C857 1.429 . S
C854 C837 1.574 . S
C854 H848 0.949 . S
C854 C858 1.368 . S
C855 C836 1.429 . S
C855 C849 1.429 . S
C855 C856 1.523 1_655 S
C856 C837 1.368 . S
C856 C850 1.368 . S
C856 C855 1.523 1_455 S
C857 C841 1.429 . S
C857 C853 1.429 . S
C857 C858 1.523 . S
C858 C842 1.368 . S
C858 C854 1.368 . S
C858 C857 1.523 . S
H859 C834 0.950 . S
H860 C836 0.950 . S
H861 C837 0.949 . S
H862 C839 0.950 . S
H863 C841 0.950 . S
C864 C865 1.349 . S
C864 C866 1.327 . S
C864 H889 0.950 . S
C865 C864 1.349 . S
C865 C881 1.349 . S
C866 C864 1.327 . S
C866 C885 1.429 . S
C866 H890 0.950 . S
C867 C884 1.574 . S
C867 C886 1.368 . S
C867 H891 0.949 . S
H868 C872 0.949 . S
C869 C870 1.349 1_455 S
C869 C871 1.327 . S
C869 H892 0.950 1_455 S
C870 C869 1.349 1_655 S
C870 C882 1.349 1_655 S
C871 C869 1.327 . S
C871 C887 1.429 . S
C871 H893 0.950 . S
C872 H868 0.949 . S
C872 C880 1.574 . S
C872 C888 1.368 . S
H873 C881 0.950 . S
H874 C879 0.950 . S
H875 C880 0.949 . S
H876 C882 0.950 1_655 S
H877 C883 0.950 . S
H878 C884 0.949 . S
C879 H874 0.950 . S
C879 C881 1.327 . S
C879 C885 1.429 . S
C880 C872 1.574 . S
C880 H875 0.949 . S
C880 C886 1.368 . S
C881 C865 1.349 . S
C881 H873 0.950 . S
C881 C879 1.327 . S
C882 C870 1.349 1_455 S
C882 H876 0.950 1_455 S
C882 C883 1.327 . S
C883 H877 0.950 . S
C883 C882 1.327 . S
C883 C887 1.429 . S
C884 C867 1.574 . S
C884 H878 0.949 . S
C884 C888 1.368 . S
C885 C866 1.429 . S
C885 C879 1.429 . S
C885 C886 1.523 . S
C886 C867 1.368 . S
C886 C880 1.368 . S
C886 C885 1.523 . S
C887 C871 1.429 . S
C887 C883 1.429 . S
C887 C888 1.523 . S
C888 C872 1.368 . S
C888 C884 1.368 . S
C888 C887 1.523 . S
H889 C864 0.950 . S
H890 C866 0.950 . S
H891 C867 0.949 . S
H892 C869 0.950 1_655 S
H893 C871 0.950 . S
C894 C895 1.349 . S
C894 C896 1.327 . S
C894 H919 0.950 . S
C895 C894 1.349 . S
C895 C911 1.349 . S
C896 C894 1.327 . S
C896 C915 1.429 . S
C896 H920 0.950 . S
C897 C914 1.574 . S
C897 C916 1.368 . S
C897 H921 0.949 . S
H898 C902 0.949 . S
C899 C900 1.349 . S
C899 C901 1.327 . S
C899 H922 0.950 . S
C900 C899 1.349 . S
C900 C912 1.349 . S
C901 C899 1.327 . S
C901 C917 1.429 . S
C901 H923 0.950 . S
C902 H898 0.949 . S
C902 C910 1.574 . S
C902 C918 1.368 . S
H903 C911 0.950 . S
H904 C909 0.950 . S
H905 C910 0.949 . S
H906 C912 0.950 . S
H907 C913 0.950 . S
H908 C914 0.949 . S
C909 H904 0.950 . S
C909 C911 1.327 . S
C909 C915 1.429 . S
C910 C902 1.574 . S
C910 H905 0.949 . S
C910 C916 1.368 . S
C911 C895 1.349 . S
C911 H903 0.950 . S
C911 C909 1.327 . S
C912 C900 1.349 . S
C912 H906 0.950 . S
C912 C913 1.327 . S
C913 H907 0.950 . S
C913 C912 1.327 . S
C913 C917 1.429 . S
C914 C897 1.574 . S
C914 H908 0.949 . S
C914 C918 1.368 . S
C915 C896 1.429 . S
C915 C909 1.429 . S
C915 C916 1.523 . S
C916 C897 1.368 . S
C916 C910 1.368 . S
C916 C915 1.523 . S
C917 C901 1.429 . S
C917 C913 1.429 . S
C917 C918 1.523 1_545 S
C918 C902 1.368 . S
C918 C914 1.368 . S
C918 C917 1.523 1_565 S
H919 C894 0.950 . S
H920 C896 0.950 . S
H921 C897 0.949 . S
H922 C899 0.950 . S
H923 C901 0.950 . S
C924 C925 1.349 1_565 S
C924 C926 1.327 . S
C924 H949 0.950 . S
C925 C924 1.349 1_545 S
C925 C941 1.349 . S
C926 C924 1.327 . S
C926 C945 1.429 . S
C926 H950 0.950 . S
C927 C944 1.574 . S
C927 C946 1.368 . S
C927 H951 0.949 . S
H928 C932 0.949 . S
C929 C930 1.349 . S
C929 C931 1.327 . S
C929 H952 0.950 . S
C930 C929 1.349 . S
C930 C942 1.349 . S
C931 C929 1.327 . S
C931 C947 1.429 . S
C931 H953 0.950 . S
C932 H928 0.949 . S
C932 C940 1.574 . S
C932 C948 1.368 . S
H933 C941 0.950 . S
H934 C939 0.950 . S
H935 C940 0.949 . S
H936 C942 0.950 . S
H937 C943 0.950 . S
H938 C944 0.949 . S
C939 H934 0.950 . S
C939 C941 1.327 1_565 S
C939 C945 1.429 . S
C940 C932 1.574 . S
C940 H935 0.949 . S
C940 C946 1.368 . S
C941 C925 1.349 . S
C941 H933 0.950 . S
C941 C939 1.327 1_545 S
C942 C930 1.349 . S
C942 H936 0.950 . S
C942 C943 1.327 . S
C943 H937 0.950 . S
C943 C942 1.327 . S
C943 C947 1.429 . S
C944 C927 1.574 . S
C944 H938 0.949 . S
C944 C948 1.368 . S
C945 C926 1.429 . S
C945 C939 1.429 . S
C945 C946 1.523 . S
C946 C927 1.368 . S
C946 C940 1.368 . S
C946 C945 1.523 . S
C947 C931 1.429 . S
C947 C943 1.429 . S
C947 C948 1.523 1_655 S
C948 C932 1.368 . S
C948 C944 1.368 . S
C948 C947 1.523 1_455 S
H949 C924 0.950 . S
H950 C926 0.950 . S
H951 C927 0.949 . S
H952 C929 0.950 . S
H953 C931 0.950 . S
C954 C955 1.349 . S
C954 C956 1.327 . S
C954 H979 0.950 . S
C955 C954 1.349 . S
C955 C971 1.349 . S
C956 C954 1.327 . S
C956 C975 1.429 . S
C956 H980 0.950 . S
C957 C974 1.574 . S
C957 C976 1.368 . S
C957 H981 0.949 . S
H958 C962 0.949 . S
C959 C960 1.349 . S
C959 C961 1.327 . S
C959 H982 0.950 . S
C960 C959 1.349 . S
C960 C972 1.349 . S
C961 C959 1.327 . S
C961 C977 1.429 . S
C961 H983 0.950 . S
C962 H958 0.949 . S
C962 C970 1.574 . S
C962 C978 1.368 . S
H963 C971 0.950 . S
H964 C969 0.950 . S
H965 C970 0.949 . S
H966 C972 0.950 . S
H967 C973 0.950 . S
H968 C974 0.949 . S
C969 H964 0.950 . S
C969 C971 1.327 . S
C969 C975 1.429 . S
C970 C962 1.574 . S
C970 H965 0.949 . S
C970 C976 1.368 . S
C971 C955 1.349 . S
C971 H963 0.950 . S
C971 C969 1.327 . S
C972 C960 1.349 . S
C972 H966 0.950 . S
C972 C973 1.327 . S
C973 H967 0.950 . S
C973 C972 1.327 . S
C973 C977 1.429 . S
C974 C957 1.574 . S
C974 H968 0.949 . S
C974 C978 1.368 . S
C975 C956 1.429 . S
C975 C969 1.429 . S
C975 C976 1.523 . S
C976 C957 1.368 . S
C976 C970 1.368 . S
C976 C975 1.523 . S
C977 C961 1.429 . S
C977 C973 1.429 . S
C977 C978 1.523 . S
C978 C962 1.368 . S
C978 C974 1.368 . S
C978 C977 1.523 . S
H979 C954 0.950 . S
H980 C956 0.950 . S
H981 C957 0.949 . S
H982 C959 0.950 . S
H983 C961 0.950 . S
C984 C985 1.349 . S
C984 C986 1.327 . S
C984 H1009 0.950 . S
C985 C984 1.349 . S
C985 C1001 1.349 . S
C986 C984 1.327 . S
C986 C1005 1.429 . S
C986 H1010 0.950 . S
C987 C1004 1.574 . S
C987 C1006 1.368 . S
C987 H1011 0.949 . S
H988 C992 0.949 . S
C989 C990 1.349 . S
C989 C991 1.327 . S
C989 H1012 0.950 . S
C990 C989 1.349 . S
C990 C1002 1.349 . S
C991 C989 1.327 . S
C991 C1007 1.429 . S
C991 H1013 0.950 . S
C992 H988 0.949 . S
C992 C1000 1.574 . S
C992 C1008 1.368 . S
H993 C1001 0.950 . S
H994 C999 0.950 . S
H995 C1000 0.949 . S
H996 C1002 0.950 . S
H997 C1003 0.950 . S
H998 C1004 0.949 . S
C999 H994 0.950 . S
C999 C1001 1.327 . S
C999 C1005 1.429 . S
C1000 C992 1.574 . S
C1000 H995 0.949 . S
C1000 C1006 1.368 . S
C1001 C985 1.349 . S
C1001 H993 0.950 . S
C1001 C999 1.327 . S
C1002 C990 1.349 . S
C1002 H996 0.950 . S
C1002 C1003 1.327 . S
C1003 H997 0.950 . S
C1003 C1002 1.327 . S
C1003 C1007 1.429 . S
C1004 C987 1.574 . S
C1004 H998 0.949 . S
C1004 C1008 1.368 . S
C1005 C986 1.429 . S
C1005 C999 1.429 . S
C1005 C1006 1.523 . S
C1006 C987 1.368 . S
C1006 C1000 1.368 . S
C1006 C1005 1.523 . S
C1007 C991 1.429 . S
C1007 C1003 1.429 . S
C1007 C1008 1.523 . S
C1008 C992 1.368 . S
C1008 C1004 1.368 . S
C1008 C1007 1.523 . S
H1009 C984 0.950 . S
H1010 C986 0.950 . S
H1011 C987 0.949 . S
H1012 C989 0.950 . S
H1013 C991 0.950 . S
C1014 C1015 1.349 . S
C1014 C1016 1.327 . S
C1014 H1039 0.950 . S
C1015 C1014 1.349 . S
C1015 C1031 1.349 . S
C1016 C1014 1.327 . S
C1016 C1035 1.429 . S
C1016 H1040 0.950 . S
C1017 C1034 1.574 . S
C1017 C1036 1.368 . S
C1017 H1041 0.949 . S
H1018 C1022 0.949 . S
C1019 C1020 1.349 . S
C1019 C1021 1.327 . S
C1019 H1042 0.950 . S
C1020 C1019 1.349 . S
C1020 C1032 1.349 . S
C1021 C1019 1.327 . S
C1021 C1037 1.429 . S
C1021 H1043 0.950 . S
C1022 H1018 0.949 . S
C1022 C1030 1.574 . S
C1022 C1038 1.368 . S
H1023 C1031 0.950 . S
H1024 C1029 0.950 . S
H1025 C1030 0.949 . S
H1026 C1032 0.950 . S
H1027 C1033 0.950 . S
H1028 C1034 0.949 . S
C1029 H1024 0.950 . S
C1029 C1031 1.327 . S
C1029 C1035 1.429 . S
C1030 C1022 1.574 . S
C1030 H1025 0.949 . S
C1030 C1036 1.368 . S
C1031 C1015 1.349 . S
C1031 H1023 0.950 . S
C1031 C1029 1.327 . S
C1032 C1020 1.349 . S
C1032 H1026 0.950 . S
C1032 C1033 1.327 . S
C1033 H1027 0.950 . S
C1033 C1032 1.327 . S
C1033 C1037 1.429 . S
C1034 C1017 1.574 . S
C1034 H1028 0.949 . S
C1034 C1038 1.368 . S
C1035 C1016 1.429 . S
C1035 C1029 1.429 . S
C1035 C1036 1.523 . S
C1036 C1017 1.368 . S
C1036 C1030 1.368 . S
C1036 C1035 1.523 . S
C1037 C1021 1.429 . S
C1037 C1033 1.429 . S
C1037 C1038 1.523 . S
C1038 C1022 1.368 . S
C1038 C1034 1.368 . S
C1038 C1037 1.523 . S
H1039 C1014 0.950 . S
H1040 C1016 0.950 . S
H1041 C1017 0.949 . S
H1042 C1019 0.950 . S
H1043 C1021 0.950 . S
C1044 C1045 1.349 . S
C1044 C1046 1.327 . S
C1044 H1069 0.950 . S
C1045 C1044 1.349 . S
C1045 C1061 1.349 . S
C1046 C1044 1.327 . S
C1046 C1065 1.429 . S
C1046 H1070 0.950 . S
C1047 C1064 1.574 . S
C1047 C1066 1.368 . S
C1047 H1071 0.949 . S
H1048 C1052 0.949 . S
C1049 C1050 1.349 . S
C1049 C1051 1.327 . S
C1049 H1072 0.950 . S
C1050 C1049 1.349 . S
C1050 C1062 1.349 . S
C1051 C1049 1.327 . S
C1051 C1067 1.429 . S
C1051 H1073 0.950 . S
C1052 H1048 0.949 . S
C1052 C1060 1.574 . S
C1052 C1068 1.368 . S
H1053 C1061 0.950 . S
H1054 C1059 0.950 . S
H1055 C1060 0.949 . S
H1056 C1062 0.950 . S
H1057 C1063 0.950 . S
H1058 C1064 0.949 . S
C1059 H1054 0.950 . S
C1059 C1061 1.327 . S
C1059 C1065 1.429 . S
C1060 C1052 1.574 . S
C1060 H1055 0.949 . S
C1060 C1066 1.368 . S
C1061 C1045 1.349 . S
C1061 H1053 0.950 . S
C1061 C1059 1.327 . S
C1062 C1050 1.349 . S
C1062 H1056 0.950 . S
C1062 C1063 1.327 . S
C1063 H1057 0.950 . S
C1063 C1062 1.327 . S
C1063 C1067 1.429 . S
C1064 C1047 1.574 . S
C1064 H1058 0.949 . S
C1064 C1068 1.368 . S
C1065 C1046 1.429 . S
C1065 C1059 1.429 . S
C1065 C1066 1.523 . S
C1066 C1047 1.368 . S
C1066 C1060 1.368 . S
C1066 C1065 1.523 . S
C1067 C1051 1.429 . S
C1067 C1063 1.429 . S
C1067 C1068 1.523 . S
C1068 C1052 1.368 . S
C1068 C1064 1.368 . S
C1068 C1067 1.523 . S
H1069 C1044 0.950 . S
H1070 C1046 0.950 . S
H1071 C1047 0.949 . S
H1072 C1049 0.950 . S
H1073 C1051 0.950 . S
C1074 C1075 1.349 . S
C1074 C1076 1.327 . S
C1074 H1099 0.950 . S
C1075 C1074 1.349 . S
C1075 C1091 1.349 . S
C1076 C1074 1.327 . S
C1076 C1095 1.429 . S
C1076 H1100 0.950 . S
C1077 C1094 1.574 . S
C1077 C1096 1.368 . S
C1077 H1101 0.949 . S
H1078 C1082 0.949 . S
C1079 C1080 1.349 . S
C1079 C1081 1.327 . S
C1079 H1102 0.950 . S
C1080 C1079 1.349 . S
C1080 C1092 1.349 . S
C1081 C1079 1.327 . S
C1081 C1097 1.429 . S
C1081 H1103 0.950 . S
C1082 H1078 0.949 . S
C1082 C1090 1.574 . S
C1082 C1098 1.368 . S
H1083 C1091 0.950 . S
H1084 C1089 0.950 . S
H1085 C1090 0.949 . S
H1086 C1092 0.950 . S
H1087 C1093 0.950 . S
H1088 C1094 0.949 . S
C1089 H1084 0.950 . S
C1089 C1091 1.327 . S
C1089 C1095 1.429 . S
C1090 C1082 1.574 . S
C1090 H1085 0.949 . S
C1090 C1096 1.368 . S
C1091 C1075 1.349 . S
C1091 H1083 0.950 . S
C1091 C1089 1.327 . S
C1092 C1080 1.349 . S
C1092 H1086 0.950 . S
C1092 C1093 1.327 . S
C1093 H1087 0.950 . S
C1093 C1092 1.327 . S
C1093 C1097 1.429 . S
C1094 C1077 1.574 . S
C1094 H1088 0.949 . S
C1094 C1098 1.368 . S
C1095 C1076 1.429 . S
C1095 C1089 1.429 . S
C1095 C1096 1.523 . S
C1096 C1077 1.368 . S
C1096 C1090 1.368 . S
C1096 C1095 1.523 . S
C1097 C1081 1.429 . S
C1097 C1093 1.429 . S
C1097 C1098 1.523 . S
C1098 C1082 1.368 . S
C1098 C1094 1.368 . S
C1098 C1097 1.523 . S
H1099 C1074 0.950 . S
H1100 C1076 0.950 . S
H1101 C1077 0.949 . S
H1102 C1079 0.950 . S
H1103 C1081 0.950 . S
C1104 C1105 1.349 . S
C1104 C1106 1.327 . S
C1104 H1129 0.950 . S
C1105 C1104 1.349 . S
C1105 C1121 1.349 . S
C1106 C1104 1.327 . S
C1106 C1125 1.429 . S
C1106 H1130 0.950 . S
C1107 C1124 1.574 . S
C1107 C1126 1.368 . S
C1107 H1131 0.949 . S
H1108 C1112 0.949 . S
C1109 C1110 1.349 . S
C1109 C1111 1.327 . S
C1109 H1132 0.950 . S
C1110 C1109 1.349 . S
C1110 C1122 1.349 . S
C1111 C1109 1.327 . S
C1111 C1127 1.429 . S
C1111 H1133 0.950 . S
C1112 H1108 0.949 . S
C1112 C1120 1.574 . S
C1112 C1128 1.368 . S
H1113 C1121 0.950 . S
H1114 C1119 0.950 . S
H1115 C1120 0.949 . S
H1116 C1122 0.950 . S
H1117 C1123 0.950 . S
H1118 C1124 0.949 . S
C1119 H1114 0.950 . S
C1119 C1121 1.327 . S
C1119 C1125 1.429 . S
C1120 C1112 1.574 . S
C1120 H1115 0.949 . S
C1120 C1126 1.368 . S
C1121 C1105 1.349 . S
C1121 H1113 0.950 . S
C1121 C1119 1.327 . S
C1122 C1110 1.349 . S
C1122 H1116 0.950 . S
C1122 C1123 1.327 . S
C1123 H1117 0.950 . S
C1123 C1122 1.327 . S
C1123 C1127 1.429 . S
C1124 C1107 1.574 . S
C1124 H1118 0.949 . S
C1124 C1128 1.368 . S
C1125 C1106 1.429 . S
C1125 C1119 1.429 . S
C1125 C1126 1.523 . S
C1126 C1107 1.368 . S
C1126 C1120 1.368 . S
C1126 C1125 1.523 . S
C1127 C1111 1.429 . S
C1127 C1123 1.429 . S
C1127 C1128 1.523 . S
C1128 C1112 1.368 . S
C1128 C1124 1.368 . S
C1128 C1127 1.523 . S
H1129 C1104 0.950 . S
H1130 C1106 0.950 . S
H1131 C1107 0.949 . S
H1132 C1109 0.950 . S
H1133 C1111 0.950 . S
C1134 C1135 1.349 . S
C1134 C1136 1.327 . S
C1134 H1159 0.950 . S
C1135 C1134 1.349 . S
C1135 C1151 1.349 . S
C1136 C1134 1.327 . S
C1136 C1155 1.429 . S
C1136 H1160 0.950 . S
C1137 C1154 1.574 . S
C1137 C1156 1.368 . S
C1137 H1161 0.949 . S
H1138 C1142 0.949 . S
C1139 C1140 1.349 . S
C1139 C1141 1.327 . S
C1139 H1162 0.950 . S
C1140 C1139 1.349 . S
C1140 C1152 1.349 . S
C1141 C1139 1.327 . S
C1141 C1157 1.429 . S
C1141 H1163 0.950 . S
C1142 H1138 0.949 . S
C1142 C1150 1.574 . S
C1142 C1158 1.368 . S
H1143 C1151 0.950 . S
H1144 C1149 0.950 . S
H1145 C1150 0.949 . S
H1146 C1152 0.950 . S
H1147 C1153 0.950 . S
H1148 C1154 0.949 . S
C1149 H1144 0.950 . S
C1149 C1151 1.327 . S
C1149 C1155 1.429 . S
C1150 C1142 1.574 . S
C1150 H1145 0.949 . S
C1150 C1156 1.368 . S
C1151 C1135 1.349 . S
C1151 H1143 0.950 . S
C1151 C1149 1.327 . S
C1152 C1140 1.349 . S
C1152 H1146 0.950 . S
C1152 C1153 1.327 . S
C1153 H1147 0.950 . S
C1153 C1152 1.327 . S
C1153 C1157 1.429 . S
C1154 C1137 1.574 . S
C1154 H1148 0.949 . S
C1154 C1158 1.368 . S
C1155 C1136 1.429 . S
C1155 C1149 1.429 . S
C1155 C1156 1.523 . S
C1156 C1137 1.368 . S
C1156 C1150 1.368 . S
C1156 C1155 1.523 . S
C1157 C1141 1.429 . S
C1157 C1153 1.429 . S
C1157 C1158 1.523 . S
C1158 C1142 1.368 . S
C1158 C1154 1.368 . S
C1158 C1157 1.523 . S
H1159 C1134 0.950 . S
H1160 C1136 0.950 . S
H1161 C1137 0.949 . S
H1162 C1139 0.950 . S
H1163 C1141 0.950 . S
C1164 C1165 1.349 . S
C1164 C1166 1.327 . S
C1164 H1189 0.950 . S
C1165 C1164 1.349 . S
C1165 C1181 1.349 . S
C1166 C1164 1.327 . S
C1166 C1185 1.429 . S
C1166 H1190 0.950 . S
C1167 C1184 1.574 . S
C1167 C1186 1.368 . S
C1167 H1191 0.949 . S
H1168 C1172 0.949 . S
C1169 C1170 1.349 . S
C1169 C1171 1.327 . S
C1169 H1192 0.950 . S
C1170 C1169 1.349 . S
C1170 C1182 1.349 . S
C1171 C1169 1.327 . S
C1171 C1187 1.429 . S
C1171 H1193 0.950 . S
C1172 H1168 0.949 . S
C1172 C1180 1.574 . S
C1172 C1188 1.368 . S
H1173 C1181 0.950 . S
H1174 C1179 0.950 . S
H1175 C1180 0.949 . S
H1176 C1182 0.950 . S
H1177 C1183 0.950 . S
H1178 C1184 0.949 . S
C1179 H1174 0.950 . S
C1179 C1181 1.327 . S
C1179 C1185 1.429 . S
C1180 C1172 1.574 . S
C1180 H1175 0.949 . S
C1180 C1186 1.368 . S
C1181 C1165 1.349 . S
C1181 H1173 0.950 . S
C1181 C1179 1.327 . S
C1182 C1170 1.349 . S
C1182 H1176 0.950 . S
C1182 C1183 1.327 . S
C1183 H1177 0.950 . S
C1183 C1182 1.327 . S
C1183 C1187 1.429 . S
C1184 C1167 1.574 . S
C1184 H1178 0.949 . S
C1184 C1188 1.368 . S
C1185 C1166 1.429 . S
C1185 C1179 1.429 . S
C1185 C1186 1.523 . S
C1186 C1167 1.368 . S
C1186 C1180 1.368 . S
C1186 C1185 1.523 . S
C1187 C1171 1.429 . S
C1187 C1183 1.429 . S
C1187 C1188 1.523 . S
C1188 C1172 1.368 . S
C1188 C1184 1.368 . S
C1188 C1187 1.523 . S
H1189 C1164 0.950 . S
H1190 C1166 0.950 . S
H1191 C1167 0.949 . S
H1192 C1169 0.950 . S
H1193 C1171 0.950 . S
C1194 C1195 1.349 . S
C1194 C1196 1.327 . S
C1194 H1219 0.950 . S
C1195 C1194 1.349 . S
C1195 C1211 1.349 . S
C1196 C1194 1.327 . S
C1196 C1215 1.429 . S
C1196 H1220 0.950 . S
C1197 C1214 1.574 . S
C1197 C1216 1.368 . S
C1197 H1221 0.949 . S
H1198 C1202 0.949 . S
C1199 C1200 1.349 . S
C1199 C1201 1.327 . S
C1199 H1222 0.950 . S
C1200 C1199 1.349 . S
C1200 C1212 1.349 . S
C1201 C1199 1.327 . S
C1201 C1217 1.429 . S
C1201 H1223 0.950 . S
C1202 H1198 0.949 . S
C1202 C1210 1.574 . S
C1202 C1218 1.368 . S
H1203 C1211 0.950 . S
H1204 C1209 0.950 . S
H1205 C1210 0.949 . S
H1206 C1212 0.950 . S
H1207 C1213 0.950 . S
H1208 C1214 0.949 . S
C1209 H1204 0.950 . S
C1209 C1211 1.327 . S
C1209 C1215 1.429 . S
C1210 C1202 1.574 . S
C1210 H1205 0.949 . S
C1210 C1216 1.368 . S
C1211 C1195 1.349 . S
C1211 H1203 0.950 . S
C1211 C1209 1.327 . S
C1212 C1200 1.349 . S
C1212 H1206 0.950 . S
C1212 C1213 1.327 . S
C1213 H1207 0.950 . S
C1213 C1212 1.327 . S
C1213 C1217 1.429 . S
C1214 C1197 1.574 . S
C1214 H1208 0.949 . S
C1214 C1218 1.368 . S
C1215 C1196 1.429 . S
C1215 C1209 1.429 . S
C1215 C1216 1.523 . S
C1216 C1197 1.368 . S
C1216 C1210 1.368 . S
C1216 C1215 1.523 . S
C1217 C1201 1.429 . S
C1217 C1213 1.429 . S
C1217 C1218 1.523 . S
C1218 C1202 1.368 . S
C1218 C1214 1.368 . S
C1218 C1217 1.523 . S
H1219 C1194 0.950 . S
H1220 C1196 0.950 . S
H1221 C1197 0.949 . S
H1222 C1199 0.950 . S
H1223 C1201 0.950 . S
C1224 C1225 1.349 . S
C1224 C1226 1.327 . S
C1224 H1249 0.950 . S
C1225 C1224 1.349 . S
C1225 C1241 1.349 . S
C1226 C1224 1.327 . S
C1226 C1245 1.429 1_556 S
C1226 H1250 0.950 . S
C1227 C1244 1.574 . S
C1227 C1246 1.368 . S
C1227 H1251 0.949 . S
H1228 C1232 0.949 . S
C1229 C1230 1.349 . S
C1229 C1231 1.327 . S
C1229 H1252 0.950 . S
C1230 C1229 1.349 . S
C1230 C1242 1.349 . S
C1231 C1229 1.327 . S
C1231 C1247 1.429 . S
C1231 H1253 0.950 . S
C1232 H1228 0.949 . S
C1232 C1240 1.574 . S
C1232 C1248 1.368 . S
H1233 C1241 0.950 . S
H1234 C1239 0.950 . S
H1235 C1240 0.949 . S
H1236 C1242 0.950 . S
H1237 C1243 0.950 . S
H1238 C1244 0.949 . S
C1239 H1234 0.950 . S
C1239 C1241 1.327 1_554 S
C1239 C1245 1.429 . S
C1240 C1232 1.574 . S
C1240 H1235 0.949 . S
C1240 C1246 1.368 . S
C1241 C1225 1.349 . S
C1241 H1233 0.950 . S
C1241 C1239 1.327 1_556 S
C1242 C1230 1.349 . S
C1242 H1236 0.950 . S
C1242 C1243 1.327 . S
C1243 H1237 0.950 . S
C1243 C1242 1.327 . S
C1243 C1247 1.429 . S
C1244 C1227 1.574 . S
C1244 H1238 0.949 . S
C1244 C1248 1.368 . S
C1245 C1226 1.429 1_554 S
C1245 C1239 1.429 . S
C1245 C1246 1.523 . S
C1246 C1227 1.368 . S
C1246 C1240 1.368 . S
C1246 C1245 1.523 . S
C1247 C1231 1.429 . S
C1247 C1243 1.429 . S
C1247 C1248 1.523 . S
C1248 C1232 1.368 . S
C1248 C1244 1.368 . S
C1248 C1247 1.523 . S
H1249 C1224 0.950 . S
H1250 C1226 0.950 . S
H1251 C1227 0.949 . S
H1252 C1229 0.950 . S
H1253 C1231 0.950 . S
C1254 C1255 1.349 . S
C1254 C1256 1.327 . S
C1254 H1279 0.950 . S
C1255 C1254 1.349 . S
C1255 C1271 1.349 . S
C1256 C1254 1.327 . S
C1256 C1275 1.429 1_556 S
C1256 H1280 0.950 1_556 S
C1257 C1274 1.574 . S
C1257 C1276 1.368 . S
C1257 H1281 0.949 . S
H1258 C1262 0.949 . S
C1259 C1260 1.349 . S
C1259 C1261 1.327 . S
C1259 H1282 0.950 . S
C1260 C1259 1.349 . S
C1260 C1272 1.349 . S
C1261 C1259 1.327 . S
C1261 C1277 1.429 . S
C1261 H1283 0.950 . S
C1262 H1258 0.949 . S
C1262 C1270 1.574 . S
C1262 C1278 1.368 . S
H1263 C1271 0.950 . S
H1264 C1269 0.950 . S
H1265 C1270 0.949 . S
H1266 C1272 0.950 . S
H1267 C1273 0.950 . S
H1268 C1274 0.949 . S
C1269 H1264 0.950 . S
C1269 C1271 1.327 1_554 S
C1269 C1275 1.429 . S
C1270 C1262 1.574 . S
C1270 H1265 0.949 . S
C1270 C1276 1.368 . S
C1271 C1255 1.349 . S
C1271 H1263 0.950 . S
C1271 C1269 1.327 1_556 S
C1272 C1260 1.349 . S
C1272 H1266 0.950 . S
C1272 C1273 1.327 . S
C1273 H1267 0.950 . S
C1273 C1272 1.327 . S
C1273 C1277 1.429 . S
C1274 C1257 1.574 . S
C1274 H1268 0.949 . S
C1274 C1278 1.368 . S
C1275 C1256 1.429 1_554 S
C1275 C1269 1.429 . S
C1275 C1276 1.523 . S
C1276 C1257 1.368 . S
C1276 C1270 1.368 . S
C1276 C1275 1.523 . S
C1277 C1261 1.429 . S
C1277 C1273 1.429 . S
C1277 C1278 1.523 . S
C1278 C1262 1.368 . S
C1278 C1274 1.368 . S
C1278 C1277 1.523 . S
H1279 C1254 0.950 . S
H1280 C1256 0.950 1_554 S
H1281 C1257 0.949 . S
H1282 C1259 0.950 . S
H1283 C1261 0.950 . S
C1284 C1285 1.349 . S
C1284 C1286 1.327 1_556 S
C1284 H1309 0.950 . S
C1285 C1284 1.349 . S
C1285 C1301 1.349 . S
C1286 C1284 1.327 1_554 S
C1286 C1305 1.429 . S
C1286 H1310 0.950 . S
C1287 C1304 1.574 . S
C1287 C1306 1.368 . S
C1287 H1311 0.949 . S
H1288 C1292 0.949 . S
C1289 C1290 1.349 . S
C1289 C1291 1.327 . S
C1289 H1312 0.950 . S
C1290 C1289 1.349 . S
C1290 C1302 1.349 . S
C1291 C1289 1.327 . S
C1291 C1307 1.429 . S
C1291 H1313 0.950 . S
C1292 H1288 0.949 . S
C1292 C1300 1.574 . S
C1292 C1308 1.368 . S
H1293 C1301 0.950 . S
H1294 C1299 0.950 1_554 S
H1295 C1300 0.949 . S
H1296 C1302 0.950 . S
H1297 C1303 0.950 . S
H1298 C1304 0.949 . S
C1299 H1294 0.950 1_556 S
C1299 C1301 1.327 . S
C1299 C1305 1.429 1_556 S
C1300 C1292 1.574 . S
C1300 H1295 0.949 . S
C1300 C1306 1.368 . S
C1301 C1285 1.349 . S
C1301 H1293 0.950 . S
C1301 C1299 1.327 . S
C1302 C1290 1.349 . S
C1302 H1296 0.950 . S
C1302 C1303 1.327 . S
C1303 H1297 0.950 . S
C1303 C1302 1.327 . S
C1303 C1307 1.429 . S
C1304 C1287 1.574 . S
C1304 H1298 0.949 . S
C1304 C1308 1.368 . S
C1305 C1286 1.429 . S
C1305 C1299 1.429 1_554 S
C1305 C1306 1.523 . S
C1306 C1287 1.368 . S
C1306 C1300 1.368 . S
C1306 C1305 1.523 . S
C1307 C1291 1.429 . S
C1307 C1303 1.429 . S
C1307 C1308 1.523 . S
C1308 C1292 1.368 . S
C1308 C1304 1.368 . S
C1308 C1307 1.523 . S
H1309 C1284 0.950 . S
H1310 C1286 0.950 . S
H1311 C1287 0.949 . S
H1312 C1289 0.950 . S
H1313 C1291 0.950 . S
C1314 C1315 1.349 . S
C1314 C1316 1.327 . S
C1314 H1339 0.950 . S
C1315 C1314 1.349 . S
C1315 C1331 1.349 . S
C1316 C1314 1.327 . S
C1316 C1335 1.429 . S
C1316 H1340 0.950 . S
C1317 C1334 1.574 . S
C1317 C1336 1.368 . S
C1317 H1341 0.949 . S
H1318 C1322 0.949 . S
C1319 C1320 1.349 . S
C1319 C1321 1.327 . S
C1319 H1342 0.950 . S
C1320 C1319 1.349 . S
C1320 C1332 1.349 . S
C1321 C1319 1.327 . S
C1321 C1337 1.429 1_554 S
C1321 H1343 0.950 . S
C1322 H1318 0.949 . S
C1322 C1330 1.574 . S
C1322 C1338 1.368 . S
H1323 C1331 0.950 . S
H1324 C1329 0.950 . S
H1325 C1330 0.949 . S
H1326 C1332 0.950 . S
H1327 C1333 0.950 1_556 S
H1328 C1334 0.949 . S
C1329 H1324 0.950 . S
C1329 C1331 1.327 . S
C1329 C1335 1.429 . S
C1330 C1322 1.574 . S
C1330 H1325 0.949 . S
C1330 C1336 1.368 . S
C1331 C1315 1.349 . S
C1331 H1323 0.950 . S
C1331 C1329 1.327 . S
C1332 C1320 1.349 . S
C1332 H1326 0.950 . S
C1332 C1333 1.327 . S
C1333 H1327 0.950 1_554 S
C1333 C1332 1.327 . S
C1333 C1337 1.429 1_554 S
C1334 C1317 1.574 . S
C1334 H1328 0.949 . S
C1334 C1338 1.368 . S
C1335 C1316 1.429 . S
C1335 C1329 1.429 . S
C1335 C1336 1.523 . S
C1336 C1317 1.368 . S
C1336 C1330 1.368 . S
C1336 C1335 1.523 . S
C1337 C1321 1.429 1_556 S
C1337 C1333 1.429 1_556 S
C1337 C1338 1.523 . S
C1338 C1322 1.368 . S
C1338 C1334 1.368 . S
C1338 C1337 1.523 . S
H1339 C1314 0.950 . S
H1340 C1316 0.950 . S
H1341 C1317 0.949 . S
H1342 C1319 0.950 . S
H1343 C1321 0.950 . S
C1344 C1345 1.349 . S
C1344 C1346 1.327 . S
C1344 H1369 0.950 . S
C1345 C1344 1.349 . S
C1345 C1361 1.349 . S
C1346 C1344 1.327 . S
C1346 C1365 1.429 . S
C1346 H1370 0.950 . S
C1347 C1364 1.574 . S
C1347 C1366 1.368 . S
C1347 H1371 0.949 . S
H1348 C1352 0.949 . S
C1349 C1350 1.349 . S
C1349 C1351 1.327 . S
C1349 H1372 0.950 . S
C1350 C1349 1.349 . S
C1350 C1362 1.349 . S
C1351 C1349 1.327 . S
C1351 C1367 1.429 1_554 S
C1351 H1373 0.950 . S
C1352 H1348 0.949 . S
C1352 C1360 1.574 . S
C1352 C1368 1.368 . S
H1353 C1361 0.950 . S
H1354 C1359 0.950 . S
H1355 C1360 0.949 . S
H1356 C1362 0.950 . S
H1357 C1363 0.950 1_556 S
H1358 C1364 0.949 . S
C1359 H1354 0.950 . S
C1359 C1361 1.327 . S
C1359 C1365 1.429 . S
C1360 C1352 1.574 . S
C1360 H1355 0.949 . S
C1360 C1366 1.368 . S
C1361 C1345 1.349 . S
C1361 H1353 0.950 . S
C1361 C1359 1.327 . S
C1362 C1350 1.349 . S
C1362 H1356 0.950 . S
C1362 C1363 1.327 . S
C1363 H1357 0.950 1_554 S
C1363 C1362 1.327 . S
C1363 C1367 1.429 1_554 S
C1364 C1347 1.574 . S
C1364 H1358 0.949 . S
C1364 C1368 1.368 . S
C1365 C1346 1.429 . S
C1365 C1359 1.429 . S
C1365 C1366 1.523 . S
C1366 C1347 1.368 . S
C1366 C1360 1.368 . S
C1366 C1365 1.523 . S
C1367 C1351 1.429 1_556 S
C1367 C1363 1.429 1_556 S
C1367 C1368 1.523 . S
C1368 C1352 1.368 . S
C1368 C1364 1.368 . S
C1368 C1367 1.523 . S
H1369 C1344 0.950 . S
H1370 C1346 0.950 . S
H1371 C1347 0.949 . S
H1372 C1349 0.950 . S
H1373 C1351 0.950 . S
C1374 C1375 1.349 . S
C1374 C1376 1.327 . S
C1374 H1399 0.950 . S
C1375 C1374 1.349 . S
C1375 C1391 1.349 . S
C1376 C1374 1.327 . S
C1376 C1395 1.429 . S
C1376 H1400 0.950 . S
C1377 C1394 1.574 . S
C1377 C1396 1.368 . S
C1377 H1401 0.949 . S
H1378 C1382 0.949 . S
C1379 C1380 1.349 . S
C1379 C1381 1.327 . S
C1379 H1402 0.950 . S
C1380 C1379 1.349 . S
C1380 C1392 1.349 . S
C1381 C1379 1.327 . S
C1381 C1397 1.429 1_554 S
C1381 H1403 0.950 . S
C1382 H1378 0.949 . S
C1382 C1390 1.574 . S
C1382 C1398 1.368 . S
H1383 C1391 0.950 . S
H1384 C1389 0.950 . S
H1385 C1390 0.949 . S
H1386 C1392 0.950 . S
H1387 C1393 0.950 . S
H1388 C1394 0.949 . S
C1389 H1384 0.950 . S
C1389 C1391 1.327 . S
C1389 C1395 1.429 . S
C1390 C1382 1.574 . S
C1390 H1385 0.949 . S
C1390 C1396 1.368 . S
C1391 C1375 1.349 . S
C1391 H1383 0.950 . S
C1391 C1389 1.327 . S
C1392 C1380 1.349 . S
C1392 H1386 0.950 . S
C1392 C1393 1.327 . S
C1393 H1387 0.950 . S
C1393 C1392 1.327 . S
C1393 C1397 1.429 1_554 S
C1394 C1377 1.574 . S
C1394 H1388 0.949 . S
C1394 C1398 1.368 . S
C1395 C1376 1.429 . S
C1395 C1389 1.429 . S
C1395 C1396 1.523 . S
C1396 C1377 1.368 . S
C1396 C1390 1.368 . S
C1396 C1395 1.523 . S
C1397 C1381 1.429 1_556 S
C1397 C1393 1.429 1_556 S
C1397 C1398 1.523 . S
C1398 C1382 1.368 . S
C1398 C1394 1.368 . S
C1398 C1397 1.523 . S
H1399 C1374 0.950 . S
H1400 C1376 0.950 . S
H1401 C1377 0.949 . S
H1402 C1379 0.950 . S
H1403 C1381 0.950 . S
C1404 C1405 1.349 . S
C1404 C1406 1.327 . S
C1404 H1429 0.950 . S
C1405 C1404 1.349 . S
C1405 C1421 1.349 . S
C1406 C1404 1.327 . S
C1406 C1425 1.429 . S
C1406 H1430 0.950 . S
C1407 C1424 1.574 . S
C1407 C1426 1.368 . S
C1407 H1431 0.949 . S
H1408 C1412 0.949 . S
C1409 C1410 1.349 . S
C1409 C1411 1.327 . S
C1409 H1432 0.950 . S
C1410 C1409 1.349 . S
C1410 C1422 1.349 . S
C1411 C1409 1.327 . S
C1411 C1427 1.429 . S
C1411 H1433 0.950 . S
C1412 H1408 0.949 . S
C1412 C1420 1.574 . S
C1412 C1428 1.368 . S
H1413 C1421 0.950 . S
H1414 C1419 0.950 . S
H1415 C1420 0.949 . S
H1416 C1422 0.950 . S
H1417 C1423 0.950 . S
H1418 C1424 0.949 . S
C1419 H1414 0.950 . S
C1419 C1421 1.327 . S
C1419 C1425 1.429 . S
C1420 C1412 1.574 . S
C1420 H1415 0.949 . S
C1420 C1426 1.368 . S
C1421 C1405 1.349 . S
C1421 H1413 0.950 . S
C1421 C1419 1.327 . S
C1422 C1410 1.349 . S
C1422 H1416 0.950 . S
C1422 C1423 1.327 . S
C1423 H1417 0.950 . S
C1423 C1422 1.327 . S
C1423 C1427 1.429 . S
C1424 C1407 1.574 . S
C1424 H1418 0.949 . S
C1424 C1428 1.368 . S
C1425 C1406 1.429 . S
C1425 C1419 1.429 . S
C1425 C1426 1.523 . S
C1426 C1407 1.368 . S
C1426 C1420 1.368 . S
C1426 C1425 1.523 . S
C1427 C1411 1.429 . S
C1427 C1423 1.429 . S
C1427 C1428 1.523 . S
C1428 C1412 1.368 . S
C1428 C1424 1.368 . S
C1428 C1427 1.523 . S
H1429 C1404 0.950 . S
H1430 C1406 0.950 . S
H1431 C1407 0.949 . S
H1432 C1409 0.950 . S
H1433 C1411 0.950 . S
C1434 C1435 1.349 . S
C1434 C1436 1.327 . S
C1434 H1459 0.950 . S
C1435 C1434 1.349 . S
C1435 C1451 1.349 . S
C1436 C1434 1.327 . S
C1436 C1455 1.429 . S
C1436 H1460 0.950 . S
C1437 C1454 1.574 . S
C1437 C1456 1.368 . S
C1437 H1461 0.949 . S
H1438 C1442 0.949 . S
C1439 C1440 1.349 . S
C1439 C1441 1.327 . S
C1439 H1462 0.950 . S
C1440 C1439 1.349 . S
C1440 C1452 1.349 . S
C1441 C1439 1.327 . S
C1441 C1457 1.429 . S
C1441 H1463 0.950 . S
C1442 H1438 0.949 . S
C1442 C1450 1.574 . S
C1442 C1458 1.368 . S
H1443 C1451 0.950 . S
H1444 C1449 0.950 . S
H1445 C1450 0.949 . S
H1446 C1452 0.950 . S
H1447 C1453 0.950 . S
H1448 C1454 0.949 . S
C1449 H1444 0.950 . S
C1449 C1451 1.327 . S
C1449 C1455 1.429 . S
C1450 C1442 1.574 . S
C1450 H1445 0.949 . S
C1450 C1456 1.368 . S
C1451 C1435 1.349 . S
C1451 H1443 0.950 . S
C1451 C1449 1.327 . S
C1452 C1440 1.349 . S
C1452 H1446 0.950 . S
C1452 C1453 1.327 . S
C1453 H1447 0.950 . S
C1453 C1452 1.327 . S
C1453 C1457 1.429 . S
C1454 C1437 1.574 . S
C1454 H1448 0.949 . S
C1454 C1458 1.368 . S
C1455 C1436 1.429 . S
C1455 C1449 1.429 . S
C1455 C1456 1.523 . S
C1456 C1437 1.368 . S
C1456 C1450 1.368 . S
C1456 C1455 1.523 . S
C1457 C1441 1.429 . S
C1457 C1453 1.429 . S
C1457 C1458 1.523 . S
C1458 C1442 1.368 . S
C1458 C1454 1.368 . S
C1458 C1457 1.523 . S
H1459 C1434 0.950 . S
H1460 C1436 0.950 . S
H1461 C1437 0.949 . S
H1462 C1439 0.950 . S
H1463 C1441 0.950 . S
C1464 C1465 1.349 . S
C1464 C1466 1.327 . S
C1464 H1489 0.950 . S
C1465 C1464 1.349 . S
C1465 C1481 1.349 . S
C1466 C1464 1.327 . S
C1466 C1485 1.429 . S
C1466 H1490 0.950 . S
C1467 C1484 1.574 . S
C1467 C1486 1.368 . S
C1467 H1491 0.949 . S
H1468 C1472 0.949 . S
C1469 C1470 1.349 . S
C1469 C1471 1.327 . S
C1469 H1492 0.950 . S
C1470 C1469 1.349 . S
C1470 C1482 1.349 . S
C1471 C1469 1.327 . S
C1471 C1487 1.429 . S
C1471 H1493 0.950 . S
C1472 H1468 0.949 . S
C1472 C1480 1.574 . S
C1472 C1488 1.368 . S
H1473 C1481 0.950 . S
H1474 C1479 0.950 . S
H1475 C1480 0.949 . S
H1476 C1482 0.950 . S
H1477 C1483 0.950 . S
H1478 C1484 0.949 . S
C1479 H1474 0.950 . S
C1479 C1481 1.327 . S
C1479 C1485 1.429 . S
C1480 C1472 1.574 . S
C1480 H1475 0.949 . S
C1480 C1486 1.368 . S
C1481 C1465 1.349 . S
C1481 H1473 0.950 . S
C1481 C1479 1.327 . S
C1482 C1470 1.349 . S
C1482 H1476 0.950 . S
C1482 C1483 1.327 . S
C1483 H1477 0.950 . S
C1483 C1482 1.327 . S
C1483 C1487 1.429 . S
C1484 C1467 1.574 . S
C1484 H1478 0.949 . S
C1484 C1488 1.368 . S
C1485 C1466 1.429 . S
C1485 C1479 1.429 . S
C1485 C1486 1.523 . S
C1486 C1467 1.368 . S
C1486 C1480 1.368 . S
C1486 C1485 1.523 . S
C1487 C1471 1.429 . S
C1487 C1483 1.429 . S
C1487 C1488 1.523 . S
C1488 C1472 1.368 . S
C1488 C1484 1.368 . S
C1488 C1487 1.523 . S
H1489 C1464 0.950 . S
H1490 C1466 0.950 . S
H1491 C1467 0.949 . S
H1492 C1469 0.950 . S
H1493 C1471 0.950 . S
C1494 C1495 1.349 . S
C1494 C1496 1.327 . S
C1494 H1519 0.950 . S
C1495 C1494 1.349 . S
C1495 C1511 1.349 . S
C1496 C1494 1.327 . S
C1496 C1515 1.429 . S
C1496 H1520 0.950 . S
C1497 C1514 1.574 . S
C1497 C1516 1.368 . S
C1497 H1521 0.949 . S
H1498 C1502 0.949 . S
C1499 C1500 1.349 . S
C1499 C1501 1.327 . S
C1499 H1522 0.950 . S
C1500 C1499 1.349 . S
C1500 C1512 1.349 . S
C1501 C1499 1.327 . S
C1501 C1517 1.429 . S
C1501 H1523 0.950 . S
C1502 H1498 0.949 . S
C1502 C1510 1.574 . S
C1502 C1518 1.368 . S
H1503 C1511 0.950 . S
H1504 C1509 0.950 . S
H1505 C1510 0.949 . S
H1506 C1512 0.950 . S
H1507 C1513 0.943 1_565 S
H1508 C1514 0.949 1_545 S
C1509 H1504 0.950 . S
C1509 C1511 1.327 . S
C1509 C1515 1.429 . S
C1510 C1502 1.574 . S
C1510 H1505 0.949 . S
C1510 C1516 1.368 . S
C1511 C1495 1.349 . S
C1511 H1503 0.950 . S
C1511 C1509 1.327 . S
C1512 C1500 1.349 . S
C1512 H1506 0.950 . S
C1512 C1513 1.330 . S
C1513 H1507 0.943 1_545 S
C1513 C1512 1.330 . S
C1513 C1517 1.433 . S
C1514 C1497 1.574 . S
C1514 H1508 0.949 1_565 S
C1514 C1518 1.368 . S
C1515 C1496 1.429 . S
C1515 C1509 1.429 . S
C1515 C1516 1.523 . S
C1516 C1497 1.368 . S
C1516 C1510 1.368 . S
C1516 C1515 1.523 . S
C1517 C1501 1.429 . S
C1517 C1513 1.433 . S
C1517 C1518 1.523 1_545 S
C1518 C1502 1.368 . S
C1518 C1514 1.368 . S
C1518 C1517 1.523 1_565 S
H1519 C1494 0.950 . S
H1520 C1496 0.950 . S
H1521 C1497 0.949 . S
H1522 C1499 0.950 . S
H1523 C1501 0.950 . S
C1524 C1525 1.349 . S
C1524 C1526 1.331 . S
C1524 H1549 0.950 1_556 S
C1525 C1524 1.349 . S
C1525 C1541 1.349 . S
C1526 C1524 1.331 . S
C1526 C1545 1.428 . S
C1526 H1550 0.947 1_655 S
C1527 C1544 1.574 . S
C1527 C1546 1.368 . S
C1527 H1551 0.949 1_455 S
H1528 C1532 0.949 . S
C1529 C1530 1.349 . S
C1529 C1531 1.327 . S
C1529 H1552 0.950 . S
C1530 C1529 1.349 . S
C1530 C1542 1.349 . S
C1531 C1529 1.327 . S
C1531 C1547 1.429 . S
C1531 H1553 0.950 . S
C1532 H1528 0.949 . S
C1532 C1540 1.574 . S
C1532 C1548 1.368 . S
H1533 C1541 0.950 . S
H1534 C1539 0.950 . S
H1535 C1540 0.949 . S
H1536 C1542 0.950 . S
H1537 C1543 0.950 . S
H1538 C1544 0.949 . S
C1539 H1534 0.950 . S
C1539 C1541 1.327 . S
C1539 C1545 1.429 . S
C1540 C1532 1.574 . S
C1540 H1535 0.949 . S
C1540 C1546 1.368 . S
C1541 C1525 1.349 . S
C1541 H1533 0.950 . S
C1541 C1539 1.327 . S
C1542 C1530 1.349 . S
C1542 H1536 0.950 . S
C1542 C1543 1.327 . S
C1543 H1537 0.950 . S
C1543 C1542 1.327 . S
C1543 C1547 1.429 . S
C1544 C1527 1.574 . S
C1544 H1538 0.949 . S
C1544 C1548 1.368 . S
C1545 C1526 1.428 . S
C1545 C1539 1.429 . S
C1545 C1546 1.523 1_655 S
C1546 C1527 1.368 . S
C1546 C1540 1.368 . S
C1546 C1545 1.523 1_455 S
C1547 C1531 1.429 . S
C1547 C1543 1.429 . S
C1547 C1548 1.523 . S
C1548 C1532 1.368 . S
C1548 C1544 1.368 . S
C1548 C1547 1.523 . S
H1549 C1524 0.950 1_554 S
H1550 C1526 0.947 1_455 S
H1551 C1527 0.949 1_655 S
H1552 C1529 0.950 . S
H1553 C1531 0.950 . S
C1554 C1555 1.349 . S
C1554 C1556 1.327 . S
C1554 H1579 0.950 . S
C1555 C1554 1.349 . S
C1555 C1571 1.349 . S
C1556 C1554 1.327 . S
C1556 C1575 1.429 . S
C1556 H1580 0.950 . S
C1557 C1574 1.574 . S
C1557 C1576 1.368 . S
C1557 H1581 0.949 . S
H1558 C1562 0.949 . S
C1559 C1560 1.349 1_554 S
C1559 C1561 1.327 1_554 S
C1559 H1582 0.950 . S
C1560 C1559 1.349 1_556 S
C1560 C1572 1.349 . S
C1561 C1559 1.327 1_556 S
C1561 C1577 1.429 . S
C1561 H1583 0.950 1_556 S
C1562 H1558 0.949 . S
C1562 C1570 1.574 . S
C1562 C1578 1.368 . S
H1563 C1571 0.950 . S
H1564 C1569 0.950 . S
H1565 C1570 0.949 . S
H1566 C1572 0.950 . S
H1567 C1573 0.950 . S
H1568 C1574 0.949 . S
C1569 H1564 0.950 . S
C1569 C1571 1.327 . S
C1569 C1575 1.429 . S
C1570 C1562 1.574 . S
C1570 H1565 0.949 . S
C1570 C1576 1.368 . S
C1571 C1555 1.349 . S
C1571 H1563 0.950 . S
C1571 C1569 1.327 . S
C1572 C1560 1.349 . S
C1572 H1566 0.950 . S
C1572 C1573 1.327 . S
C1573 H1567 0.950 . S
C1573 C1572 1.327 . S
C1573 C1577 1.429 . S
C1574 C1557 1.574 . S
C1574 H1568 0.949 . S
C1574 C1578 1.368 . S
C1575 C1556 1.429 . S
C1575 C1569 1.429 . S
C1575 C1576 1.523 . S
C1576 C1557 1.368 . S
C1576 C1570 1.368 . S
C1576 C1575 1.523 . S
C1577 C1561 1.429 . S
C1577 C1573 1.429 . S
C1577 C1578 1.523 . S
C1578 C1562 1.368 . S
C1578 C1574 1.368 . S
C1578 C1577 1.523 . S
H1579 C1554 0.950 . S
H1580 C1556 0.950 . S
H1581 C1557 0.949 . S
H1582 C1559 0.950 . S
H1583 C1561 0.950 1_554 S
C1584 C1585 1.349 . S
C1584 C1586 1.327 . S
C1584 H1609 0.950 . S
C1585 C1584 1.349 . S
C1585 C1601 1.349 . S
C1586 C1584 1.327 . S
C1586 C1605 1.429 . S
C1586 H1610 0.950 1_655 S
C1587 C1604 1.574 . S
C1587 C1606 1.368 . S
C1587 H1611 0.949 1_455 S
H1588 C1592 0.949 . S
C1589 C1590 1.349 . S
C1589 C1591 1.327 . S
C1589 H1612 0.950 . S
C1590 C1589 1.349 . S
C1590 C1602 1.349 . S
C1591 C1589 1.327 . S
C1591 C1607 1.429 . S
C1591 H1613 0.950 . S
C1592 H1588 0.949 . S
C1592 C1600 1.574 . S
C1592 C1608 1.368 . S
H1593 C1601 0.950 . S
H1594 C1599 0.950 . S
H1595 C1600 0.949 . S
H1596 C1602 0.950 . S
H1597 C1603 0.950 . S
H1598 C1604 0.949 . S
C1599 H1594 0.950 . S
C1599 C1601 1.327 . S
C1599 C1605 1.429 . S
C1600 C1592 1.574 . S
C1600 H1595 0.949 . S
C1600 C1606 1.368 . S
C1601 C1585 1.349 . S
C1601 H1593 0.950 . S
C1601 C1599 1.327 . S
C1602 C1590 1.349 . S
C1602 H1596 0.950 . S
C1602 C1603 1.327 . S
C1603 H1597 0.950 . S
C1603 C1602 1.327 . S
C1603 C1607 1.429 . S
C1604 C1587 1.574 . S
C1604 H1598 0.949 . S
C1604 C1608 1.368 . S
C1605 C1586 1.429 . S
C1605 C1599 1.429 . S
C1605 C1606 1.523 1_655 S
C1606 C1587 1.368 . S
C1606 C1600 1.368 . S
C1606 C1605 1.523 1_455 S
C1607 C1591 1.429 . S
C1607 C1603 1.429 . S
C1607 C1608 1.523 . S
C1608 C1592 1.368 . S
C1608 C1604 1.368 . S
C1608 C1607 1.523 . S
H1609 C1584 0.950 . S
H1610 C1586 0.950 1_455 S
H1611 C1587 0.949 1_655 S
H1612 C1589 0.950 . S
H1613 C1591 0.950 . S
C1614 C1615 1.349 . S
C1614 C1616 1.327 . S
C1614 H1639 0.950 . S
C1615 C1614 1.349 . S
C1615 C1631 1.349 . S
C1616 C1614 1.327 . S
C1616 C1635 1.429 . S
C1616 H1640 0.950 . S
C1617 C1634 1.574 . S
C1617 C1636 1.368 . S
C1617 H1641 0.949 . S
H1618 C1622 0.949 . S
C1619 C1620 1.349 . S
C1619 C1621 1.327 . S
C1619 H1642 0.950 . S
C1620 C1619 1.349 . S
C1620 C1632 1.349 . S
C1621 C1619 1.327 . S
C1621 C1637 1.429 . S
C1621 H1643 0.950 . S
C1622 H1618 0.949 . S
C1622 C1630 1.574 . S
C1622 C1638 1.368 . S
H1623 C1631 0.950 . S
H1624 C1629 0.950 . S
H1625 C1630 0.949 . S
H1626 C1632 0.950 . S
H1627 C1633 0.950 . S
H1628 C1634 0.949 . S
C1629 H1624 0.950 . S
C1629 C1631 1.327 . S
C1629 C1635 1.429 . S
C1630 C1622 1.574 . S
C1630 H1625 0.949 . S
C1630 C1636 1.368 . S
C1631 C1615 1.349 . S
C1631 H1623 0.950 . S
C1631 C1629 1.327 . S
C1632 C1620 1.349 . S
C1632 H1626 0.950 . S
C1632 C1633 1.327 . S
C1633 H1627 0.950 . S
C1633 C1632 1.327 . S
C1633 C1637 1.429 . S
C1634 C1617 1.574 . S
C1634 H1628 0.949 . S
C1634 C1638 1.368 . S
C1635 C1616 1.429 . S
C1635 C1629 1.429 . S
C1635 C1636 1.523 . S
C1636 C1617 1.368 . S
C1636 C1630 1.368 . S
C1636 C1635 1.523 . S
C1637 C1621 1.429 . S
C1637 C1633 1.429 . S
C1637 C1638 1.523 . S
C1638 C1622 1.368 . S
C1638 C1634 1.368 . S
C1638 C1637 1.523 . S
H1639 C1614 0.950 . S
H1640 C1616 0.950 . S
H1641 C1617 0.949 . S
H1642 C1619 0.950 . S
H1643 C1621 0.950 . S
C1644 C1645 1.349 . S
C1644 C1646 1.327 . S
C1644 H1669 0.950 . S
C1645 C1644 1.349 . S
C1645 C1661 1.349 . S
C1646 C1644 1.327 . S
C1646 C1665 1.429 . S
C1646 H1670 0.950 . S
C1647 C1664 1.574 . S
C1647 C1666 1.368 . S
C1647 H1671 0.949 . S
H1648 C1652 0.949 . S
C1649 C1650 1.349 . S
C1649 C1651 1.327 . S
C1649 H1672 0.950 . S
C1650 C1649 1.349 . S
C1650 C1662 1.349 . S
C1651 C1649 1.327 . S
C1651 C1667 1.429 . S
C1651 H1673 0.950 . S
C1652 H1648 0.949 . S
C1652 C1660 1.574 . S
C1652 C1668 1.368 . S
H1653 C1661 0.950 . S
H1654 C1659 0.950 . S
H1655 C1660 0.949 . S
H1656 C1662 0.950 . S
H1657 C1663 0.950 . S
H1658 C1664 0.949 . S
C1659 H1654 0.950 . S
C1659 C1661 1.327 . S
C1659 C1665 1.429 . S
C1660 C1652 1.574 . S
C1660 H1655 0.949 . S
C1660 C1666 1.368 . S
C1661 C1645 1.349 . S
C1661 H1653 0.950 . S
C1661 C1659 1.327 . S
C1662 C1650 1.349 . S
C1662 H1656 0.950 . S
C1662 C1663 1.327 . S
C1663 H1657 0.950 . S
C1663 C1662 1.327 . S
C1663 C1667 1.429 . S
C1664 C1647 1.574 . S
C1664 H1658 0.949 . S
C1664 C1668 1.368 . S
C1665 C1646 1.429 . S
C1665 C1659 1.429 . S
C1665 C1666 1.523 . S
C1666 C1647 1.368 . S
C1666 C1660 1.368 . S
C1666 C1665 1.523 . S
C1667 C1651 1.429 . S
C1667 C1663 1.429 . S
C1667 C1668 1.523 1_545 S
C1668 C1652 1.368 . S
C1668 C1664 1.368 . S
C1668 C1667 1.523 1_565 S
H1669 C1644 0.950 . S
H1670 C1646 0.950 . S
H1671 C1647 0.949 . S
H1672 C1649 0.950 . S
H1673 C1651 0.950 . S
C1674 C1675 1.349 . S
C1674 C1676 1.327 . S
C1674 H1699 0.950 . S
C1675 C1674 1.349 . S
C1675 C1691 1.349 . S
C1676 C1674 1.327 . S
C1676 C1695 1.429 . S
C1676 H1700 0.950 . S
C1677 C1694 1.574 . S
C1677 C1696 1.368 . S
C1677 H1701 0.949 . S
H1678 C1682 0.949 . S
C1679 C1680 1.349 . S
C1679 C1681 1.327 . S
C1679 H1702 0.950 1_455 S
C1680 C1679 1.349 . S
C1680 C1692 1.349 . S
C1681 C1679 1.327 . S
C1681 C1697 1.429 . S
C1681 H1703 0.950 . S
C1682 H1678 0.949 . S
C1682 C1690 1.574 . S
C1682 C1698 1.368 . S
H1683 C1691 0.950 . S
H1684 C1689 0.950 . S
H1685 C1690 0.949 . S
H1686 C1692 0.950 . S
H1687 C1693 0.950 . S
H1688 C1694 0.949 . S
C1689 H1684 0.950 . S
C1689 C1691 1.327 . S
C1689 C1695 1.429 . S
C1690 C1682 1.574 . S
C1690 H1685 0.949 . S
C1690 C1696 1.368 . S
C1691 C1675 1.349 . S
C1691 H1683 0.950 . S
C1691 C1689 1.327 . S
C1692 C1680 1.349 . S
C1692 H1686 0.950 . S
C1692 C1693 1.327 . S
C1693 H1687 0.950 . S
C1693 C1692 1.327 . S
C1693 C1697 1.429 . S
C1694 C1677 1.574 . S
C1694 H1688 0.949 . S
C1694 C1698 1.368 . S
C1695 C1676 1.429 . S
C1695 C1689 1.429 . S
C1695 C1696 1.523 . S
C1696 C1677 1.368 . S
C1696 C1690 1.368 . S
C1696 C1695 1.523 . S
C1697 C1681 1.429 . S
C1697 C1693 1.429 . S
C1697 C1698 1.523 . S
C1698 C1682 1.368 . S
C1698 C1694 1.368 . S
C1698 C1697 1.523 . S
H1699 C1674 0.950 . S
H1700 C1676 0.950 . S
H1701 C1677 0.949 . S
H1702 C1679 0.950 1_655 S
H1703 C1681 0.950 . S
C1704 C1705 1.349 . S
C1704 C1706 1.327 . S
C1704 H1729 0.950 . S
C1705 C1704 1.349 . S
C1705 C1721 1.349 . S
C1706 C1704 1.327 . S
C1706 C1725 1.429 . S
C1706 H1730 0.950 . S
C1707 C1724 1.574 . S
C1707 C1726 1.368 . S
C1707 H1731 0.949 . S
H1708 C1712 0.949 . S
C1709 C1710 1.349 . S
C1709 C1711 1.327 . S
C1709 H1732 0.950 . S
C1710 C1709 1.349 . S
C1710 C1722 1.349 . S
C1711 C1709 1.327 . S
C1711 C1727 1.429 . S
C1711 H1733 0.950 . S
C1712 H1708 0.949 . S
C1712 C1720 1.574 . S
C1712 C1728 1.368 . S
H1713 C1721 0.950 . S
H1714 C1719 0.950 . S
H1715 C1720 0.949 . S
H1716 C1722 0.950 . S
H1717 C1723 0.950 . S
H1718 C1724 0.949 . S
C1719 H1714 0.950 . S
C1719 C1721 1.327 . S
C1719 C1725 1.429 . S
C1720 C1712 1.574 . S
C1720 H1715 0.949 . S
C1720 C1726 1.368 . S
C1721 C1705 1.349 . S
C1721 H1713 0.950 . S
C1721 C1719 1.327 . S
C1722 C1710 1.349 . S
C1722 H1716 0.950 . S
C1722 C1723 1.327 . S
C1723 H1717 0.950 . S
C1723 C1722 1.327 . S
C1723 C1727 1.429 . S
C1724 C1707 1.574 . S
C1724 H1718 0.949 . S
C1724 C1728 1.368 . S
C1725 C1706 1.429 . S
C1725 C1719 1.429 . S
C1725 C1726 1.523 . S
C1726 C1707 1.368 . S
C1726 C1720 1.368 . S
C1726 C1725 1.523 . S
C1727 C1711 1.429 . S
C1727 C1723 1.429 . S
C1727 C1728 1.523 . S
C1728 C1712 1.368 . S
C1728 C1724 1.368 . S
C1728 C1727 1.523 . S
H1729 C1704 0.950 . S
H1730 C1706 0.950 . S
H1731 C1707 0.949 . S
H1732 C1709 0.950 . S
H1733 C1711 0.950 . S
C1734 C1735 1.349 . S
C1734 C1736 1.327 . S
C1734 H1759 0.950 . S
C1735 C1734 1.349 . S
C1735 C1751 1.349 . S
C1736 C1734 1.327 . S
C1736 C1755 1.429 . S
C1736 H1760 0.950 . S
C1737 C1754 1.574 . S
C1737 C1756 1.368 . S
C1737 H1761 0.949 . S
H1738 C1742 0.949 . S
C1739 C1740 1.349 . S
C1739 C1741 1.327 . S
C1739 H1762 0.950 . S
C1740 C1739 1.349 . S
C1740 C1752 1.349 . S
C1741 C1739 1.327 . S
C1741 C1757 1.429 . S
C1741 H1763 0.950 . S
C1742 H1738 0.949 . S
C1742 C1750 1.574 . S
C1742 C1758 1.368 . S
H1743 C1751 0.950 . S
H1744 C1749 0.950 . S
H1745 C1750 0.949 . S
H1746 C1752 0.950 1_545 S
H1747 C1753 0.950 . S
H1748 C1754 0.949 . S
C1749 H1744 0.950 . S
C1749 C1751 1.327 . S
C1749 C1755 1.429 . S
C1750 C1742 1.574 . S
C1750 H1745 0.949 . S
C1750 C1756 1.368 . S
C1751 C1735 1.349 . S
C1751 H1743 0.950 . S
C1751 C1749 1.327 . S
C1752 C1740 1.349 . S
C1752 H1746 0.950 1_565 S
C1752 C1753 1.327 . S
C1753 H1747 0.950 . S
C1753 C1752 1.327 . S
C1753 C1757 1.429 . S
C1754 C1737 1.574 . S
C1754 H1748 0.949 . S
C1754 C1758 1.368 . S
C1755 C1736 1.429 . S
C1755 C1749 1.429 . S
C1755 C1756 1.523 . S
C1756 C1737 1.368 . S
C1756 C1750 1.368 . S
C1756 C1755 1.523 . S
C1757 C1741 1.429 . S
C1757 C1753 1.429 . S
C1757 C1758 1.523 . S
C1758 C1742 1.368 . S
C1758 C1754 1.368 . S
C1758 C1757 1.523 . S
H1759 C1734 0.950 . S
H1760 C1736 0.950 . S
H1761 C1737 0.949 . S
H1762 C1739 0.950 . S
H1763 C1741 0.950 . S
C1764 C1765 1.349 . S
C1764 C1766 1.327 . S
C1764 H1789 0.950 . S
C1765 C1764 1.349 . S
C1765 C1781 1.349 . S
C1766 C1764 1.327 . S
C1766 C1785 1.429 . S
C1766 H1790 0.950 . S
C1767 C1784 1.574 . S
C1767 C1786 1.368 . S
C1767 H1791 0.949 . S
H1768 C1772 0.949 . S
C1769 C1770 1.349 . S
C1769 C1771 1.327 . S
C1769 H1792 0.950 . S
C1770 C1769 1.349 . S
C1770 C1782 1.349 . S
C1771 C1769 1.327 . S
C1771 C1787 1.429 . S
C1771 H1793 0.950 . S
C1772 H1768 0.949 . S
C1772 C1780 1.574 . S
C1772 C1788 1.368 . S
H1773 C1781 0.950 1_545 S
H1774 C1779 0.950 . S
H1775 C1780 0.949 . S
H1776 C1782 0.950 . S
H1777 C1783 0.950 . S
H1778 C1784 0.949 . S
C1779 H1774 0.950 . S
C1779 C1781 1.327 . S
C1779 C1785 1.429 . S
C1780 C1772 1.574 . S
C1780 H1775 0.949 . S
C1780 C1786 1.368 . S
C1781 C1765 1.349 . S
C1781 H1773 0.950 1_565 S
C1781 C1779 1.327 . S
C1782 C1770 1.349 . S
C1782 H1776 0.950 . S
C1782 C1783 1.327 . S
C1783 H1777 0.950 . S
C1783 C1782 1.327 . S
C1783 C1787 1.429 . S
C1784 C1767 1.574 . S
C1784 H1778 0.949 . S
C1784 C1788 1.368 . S
C1785 C1766 1.429 . S
C1785 C1779 1.429 . S
C1785 C1786 1.523 . S
C1786 C1767 1.368 . S
C1786 C1780 1.368 . S
C1786 C1785 1.523 . S
C1787 C1771 1.429 . S
C1787 C1783 1.429 . S
C1787 C1788 1.523 . S
C1788 C1772 1.368 . S
C1788 C1784 1.368 . S
C1788 C1787 1.523 . S
H1789 C1764 0.950 . S
H1790 C1766 0.950 . S
H1791 C1767 0.949 . S
H1792 C1769 0.950 . S
H1793 C1771 0.950 . S
C1794 C1795 1.349 . S
C1794 C1796 1.327 . S
C1794 H1819 0.950 1_455 S
C1795 C1794 1.349 . S
C1795 C1811 1.349 . S
C1796 C1794 1.327 . S
C1796 C1815 1.429 . S
C1796 H1820 0.950 . S
C1797 C1814 1.574 . S
C1797 C1816 1.368 . S
C1797 H1821 0.949 . S
H1798 C1802 0.949 . S
C1799 C1800 1.349 . S
C1799 C1801 1.327 . S
C1799 H1822 0.950 . S
C1800 C1799 1.349 . S
C1800 C1812 1.349 . S
C1801 C1799 1.327 . S
C1801 C1817 1.429 . S
C1801 H1823 0.950 . S
C1802 H1798 0.949 . S
C1802 C1810 1.574 . S
C1802 C1818 1.368 . S
H1803 C1811 0.950 . S
H1804 C1809 0.950 . S
H1805 C1810 0.949 . S
H1806 C1812 0.950 . S
H1807 C1813 0.950 . S
H1808 C1814 0.949 . S
C1809 H1804 0.950 . S
C1809 C1811 1.327 . S
C1809 C1815 1.429 . S
C1810 C1802 1.574 . S
C1810 H1805 0.949 . S
C1810 C1816 1.368 . S
C1811 C1795 1.349 . S
C1811 H1803 0.950 . S
C1811 C1809 1.327 . S
C1812 C1800 1.349 . S
C1812 H1806 0.950 . S
C1812 C1813 1.327 . S
C1813 H1807 0.950 . S
C1813 C1812 1.327 . S
C1813 C1817 1.429 . S
C1814 C1797 1.574 . S
C1814 H1808 0.949 . S
C1814 C1818 1.368 . S
C1815 C1796 1.429 . S
C1815 C1809 1.429 . S
C1815 C1816 1.523 . S
C1816 C1797 1.368 . S
C1816 C1810 1.368 . S
C1816 C1815 1.523 . S
C1817 C1801 1.429 . S
C1817 C1813 1.429 . S
C1817 C1818 1.523 . S
C1818 C1802 1.368 . S
C1818 C1814 1.368 . S
C1818 C1817 1.523 . S
H1819 C1794 0.950 1_655 S
H1820 C1796 0.950 . S
H1821 C1797 0.949 . S
H1822 C1799 0.950 . S
H1823 C1801 0.950 . S
C1824 C1825 1.349 . S
C1824 C1826 1.327 . S
C1824 H1849 0.950 . S
C1825 C1824 1.349 . S
C1825 C1841 1.349 . S
C1826 C1824 1.327 . S
C1826 C1845 1.429 . S
C1826 H1850 0.950 . S
C1827 C1844 1.574 . S
C1827 C1846 1.368 . S
C1827 H1851 0.949 . S
H1828 C1832 0.949 . S
C1829 C1830 1.349 . S
C1829 C1831 1.327 . S
C1829 H1852 0.950 . S
C1830 C1829 1.349 . S
C1830 C1842 1.349 . S
C1831 C1829 1.327 . S
C1831 C1847 1.429 . S
C1831 H1853 0.950 . S
C1832 H1828 0.949 . S
C1832 C1840 1.574 . S
C1832 C1848 1.368 . S
H1833 C1841 0.950 . S
H1834 C1839 0.950 . S
H1835 C1840 0.949 . S
H1836 C1842 0.950 . S
H1837 C1843 0.950 . S
H1838 C1844 0.949 . S
C1839 H1834 0.950 . S
C1839 C1841 1.327 . S
C1839 C1845 1.429 . S
C1840 C1832 1.574 . S
C1840 H1835 0.949 . S
C1840 C1846 1.368 . S
C1841 C1825 1.349 . S
C1841 H1833 0.950 . S
C1841 C1839 1.327 . S
C1842 C1830 1.349 . S
C1842 H1836 0.950 . S
C1842 C1843 1.327 . S
C1843 H1837 0.950 . S
C1843 C1842 1.327 . S
C1843 C1847 1.429 . S
C1844 C1827 1.574 . S
C1844 H1838 0.949 . S
C1844 C1848 1.368 . S
C1845 C1826 1.429 . S
C1845 C1839 1.429 . S
C1845 C1846 1.523 . S
C1846 C1827 1.368 . S
C1846 C1840 1.368 . S
C1846 C1845 1.523 . S
C1847 C1831 1.429 . S
C1847 C1843 1.429 . S
C1847 C1848 1.523 . S
C1848 C1832 1.368 . S
C1848 C1844 1.368 . S
C1848 C1847 1.523 . S
H1849 C1824 0.950 . S
H1850 C1826 0.950 . S
H1851 C1827 0.949 . S
H1852 C1829 0.950 . S
H1853 C1831 0.950 . S
C1854 C1855 1.349 . S
C1854 C1856 1.327 . S
C1854 H1879 0.950 . S
C1855 C1854 1.349 . S
C1855 C1871 1.349 . S
C1856 C1854 1.327 . S
C1856 C1875 1.429 . S
C1856 H1880 0.950 . S
C1857 C1874 1.574 . S
C1857 C1876 1.368 . S
C1857 H1881 0.949 . S
H1858 C1862 0.949 . S
C1859 C1860 1.349 . S
C1859 C1861 1.327 . S
C1859 H1882 0.950 . S
C1860 C1859 1.349 . S
C1860 C1872 1.349 . S
C1861 C1859 1.327 . S
C1861 C1877 1.429 . S
C1861 H1883 0.950 . S
C1862 H1858 0.949 . S
C1862 C1870 1.574 . S
C1862 C1878 1.368 . S
H1863 C1871 0.950 . S
H1864 C1869 0.950 . S
H1865 C1870 0.949 . S
H1866 C1872 0.950 . S
H1867 C1873 0.950 . S
H1868 C1874 0.949 . S
C1869 H1864 0.950 . S
C1869 C1871 1.327 . S
C1869 C1875 1.429 . S
C1870 C1862 1.574 . S
C1870 H1865 0.949 . S
C1870 C1876 1.368 . S
C1871 C1855 1.349 . S
C1871 H1863 0.950 . S
C1871 C1869 1.327 . S
C1872 C1860 1.349 . S
C1872 H1866 0.950 . S
C1872 C1873 1.327 . S
C1873 H1867 0.950 . S
C1873 C1872 1.327 . S
C1873 C1877 1.429 . S
C1874 C1857 1.574 . S
C1874 H1868 0.949 . S
C1874 C1878 1.368 . S
C1875 C1856 1.429 . S
C1875 C1869 1.429 . S
C1875 C1876 1.523 . S
C1876 C1857 1.368 . S
C1876 C1870 1.368 . S
C1876 C1875 1.523 . S
C1877 C1861 1.429 . S
C1877 C1873 1.429 . S
C1877 C1878 1.523 . S
C1878 C1862 1.368 . S
C1878 C1874 1.368 . S
C1878 C1877 1.523 . S
H1879 C1854 0.950 . S
H1880 C1856 0.950 . S
H1881 C1857 0.949 . S
H1882 C1859 0.950 . S
H1883 C1861 0.950 . S
C1884 C1885 1.349 . S
C1884 C1886 1.327 . S
C1884 H1909 0.950 . S
C1885 C1884 1.349 . S
C1885 C1901 1.349 . S
C1886 C1884 1.327 . S
C1886 C1905 1.429 . S
C1886 H1910 0.950 . S
C1887 C1904 1.574 . S
C1887 C1906 1.368 . S
C1887 H1911 0.949 . S
H1888 C1892 0.949 . S
C1889 C1890 1.349 . S
C1889 C1891 1.327 . S
C1889 H1912 0.950 . S
C1890 C1889 1.349 . S
C1890 C1902 1.349 . S
C1891 C1889 1.327 . S
C1891 C1907 1.429 . S
C1891 H1913 0.950 . S
C1892 H1888 0.949 . S
C1892 C1900 1.574 . S
C1892 C1908 1.368 . S
H1893 C1901 0.950 . S
H1894 C1899 0.950 . S
H1895 C1900 0.949 . S
H1896 C1902 0.950 . S
H1897 C1903 0.950 . S
H1898 C1904 0.949 . S
C1899 H1894 0.950 . S
C1899 C1901 1.327 . S
C1899 C1905 1.429 . S
C1900 C1892 1.574 . S
C1900 H1895 0.949 . S
C1900 C1906 1.368 . S
C1901 C1885 1.349 . S
C1901 H1893 0.950 . S
C1901 C1899 1.327 . S
C1902 C1890 1.349 . S
C1902 H1896 0.950 . S
C1902 C1903 1.327 . S
C1903 H1897 0.950 . S
C1903 C1902 1.327 . S
C1903 C1907 1.429 . S
C1904 C1887 1.574 . S
C1904 H1898 0.949 . S
C1904 C1908 1.368 . S
C1905 C1886 1.429 . S
C1905 C1899 1.429 . S
C1905 C1906 1.523 . S
C1906 C1887 1.368 . S
C1906 C1900 1.368 . S
C1906 C1905 1.523 . S
C1907 C1891 1.429 . S
C1907 C1903 1.429 . S
C1907 C1908 1.523 . S
C1908 C1892 1.368 . S
C1908 C1904 1.368 . S
C1908 C1907 1.523 . S
H1909 C1884 0.950 . S
H1910 C1886 0.950 . S
H1911 C1887 0.949 . S
H1912 C1889 0.950 . S
H1913 C1891 0.950 . S
C1914 C1915 1.349 . S
C1914 C1916 1.327 . S
C1914 H1939 0.950 . S
C1915 C1914 1.349 . S
C1915 C1931 1.349 . S
C1916 C1914 1.327 . S
C1916 C1935 1.429 . S
C1916 H1940 0.950 . S
C1917 C1934 1.574 . S
C1917 C1936 1.368 . S
C1917 H1941 0.949 . S
H1918 C1922 0.949 . S
C1919 C1920 1.349 . S
C1919 C1921 1.327 . S
C1919 H1942 0.950 . S
C1920 C1919 1.349 . S
C1920 C1932 1.349 . S
C1921 C1919 1.327 . S
C1921 C1937 1.429 . S
C1921 H1943 0.950 . S
C1922 H1918 0.949 . S
C1922 C1930 1.574 . S
C1922 C1938 1.368 . S
H1923 C1931 0.950 . S
H1924 C1929 0.950 . S
H1925 C1930 0.949 . S
H1926 C1932 0.950 . S
H1927 C1933 0.950 . S
H1928 C1934 0.949 . S
C1929 H1924 0.950 . S
C1929 C1931 1.327 . S
C1929 C1935 1.429 . S
C1930 C1922 1.574 . S
C1930 H1925 0.949 . S
C1930 C1936 1.368 . S
C1931 C1915 1.349 . S
C1931 H1923 0.950 . S
C1931 C1929 1.327 . S
C1932 C1920 1.349 . S
C1932 H1926 0.950 . S
C1932 C1933 1.327 . S
C1933 H1927 0.950 . S
C1933 C1932 1.327 . S
C1933 C1937 1.429 . S
C1934 C1917 1.574 . S
C1934 H1928 0.949 . S
C1934 C1938 1.368 . S
C1935 C1916 1.429 . S
C1935 C1929 1.429 . S
C1935 C1936 1.523 . S
C1936 C1917 1.368 . S
C1936 C1930 1.368 . S
C1936 C1935 1.523 . S
C1937 C1921 1.429 . S
C1937 C1933 1.429 . S
C1937 C1938 1.523 . S
C1938 C1922 1.368 . S
C1938 C1934 1.368 . S
C1938 C1937 1.523 . S
H1939 C1914 0.950 . S
H1940 C1916 0.950 . S
H1941 C1917 0.949 . S
H1942 C1919 0.950 . S
H1943 C1921 0.950 . S
C1944 C1945 1.349 . S
C1944 C1946 1.327 . S
C1944 H1969 0.950 . S
C1945 C1944 1.349 . S
C1945 C1961 1.349 . S
C1946 C1944 1.327 . S
C1946 C1965 1.429 . S
C1946 H1970 0.950 . S
C1947 C1964 1.574 . S
C1947 C1966 1.368 . S
C1947 H1971 0.949 . S
H1948 C1952 0.949 . S
C1949 C1950 1.349 . S
C1949 C1951 1.327 . S
C1949 H1972 0.950 . S
C1950 C1949 1.349 . S
C1950 C1962 1.349 . S
C1951 C1949 1.327 . S
C1951 C1967 1.429 . S
C1951 H1973 0.950 . S
C1952 H1948 0.949 . S
C1952 C1960 1.574 . S
C1952 C1968 1.368 . S
H1953 C1961 0.950 . S
H1954 C1959 0.950 . S
H1955 C1960 0.949 . S
H1956 C1962 0.950 . S
H1957 C1963 0.950 . S
H1958 C1964 0.949 . S
C1959 H1954 0.950 . S
C1959 C1961 1.327 . S
C1959 C1965 1.429 . S
C1960 C1952 1.574 . S
C1960 H1955 0.949 . S
C1960 C1966 1.368 . S
C1961 C1945 1.349 . S
C1961 H1953 0.950 . S
C1961 C1959 1.327 . S
C1962 C1950 1.349 . S
C1962 H1956 0.950 . S
C1962 C1963 1.327 . S
C1963 H1957 0.950 . S
C1963 C1962 1.327 . S
C1963 C1967 1.429 . S
C1964 C1947 1.574 . S
C1964 H1958 0.949 . S
C1964 C1968 1.368 . S
C1965 C1946 1.429 . S
C1965 C1959 1.429 . S
C1965 C1966 1.523 . S
C1966 C1947 1.368 . S
C1966 C1960 1.368 . S
C1966 C1965 1.523 . S
C1967 C1951 1.429 . S
C1967 C1963 1.429 . S
C1967 C1968 1.523 . S
C1968 C1952 1.368 . S
C1968 C1964 1.368 . S
C1968 C1967 1.523 . S
H1969 C1944 0.950 . S
H1970 C1946 0.950 . S
H1971 C1947 0.949 . S
H1972 C1949 0.950 . S
H1973 C1951 0.950 . S
C1974 C1975 1.349 . S
C1974 C1976 1.327 . S
C1974 H1999 0.950 . S
C1975 C1974 1.349 . S
C1975 C1991 1.349 . S
C1976 C1974 1.327 . S
C1976 C1995 1.429 . S
C1976 H2000 0.950 . S
C1977 C1994 1.574 . S
C1977 C1996 1.368 . S
C1977 H2001 0.949 . S
H1978 C1982 0.949 . S
C1979 C1980 1.349 . S
C1979 C1981 1.327 . S
C1979 H2002 0.950 . S
C1980 C1979 1.349 . S
C1980 C1992 1.349 . S
C1981 C1979 1.327 . S
C1981 C1997 1.429 . S
C1981 H2003 0.950 . S
C1982 H1978 0.949 . S
C1982 C1990 1.574 . S
C1982 C1998 1.368 . S
H1983 C1991 0.950 . S
H1984 C1989 0.950 . S
H1985 C1990 0.949 . S
H1986 C1992 0.961 . S
H1987 C1993 0.950 . S
H1988 C1994 0.949 . S
C1989 H1984 0.950 . S
C1989 C1991 1.327 . S
C1989 C1995 1.429 . S
C1990 C1982 1.574 . S
C1990 H1985 0.949 . S
C1990 C1996 1.368 . S
C1991 C1975 1.349 . S
C1991 H1983 0.950 . S
C1991 C1989 1.327 . S
C1992 C1980 1.349 . S
C1992 H1986 0.961 . S
C1992 C1993 1.327 . S
C1993 H1987 0.950 . S
C1993 C1992 1.327 . S
C1993 C1997 1.429 . S
C1994 C1977 1.574 . S
C1994 H1988 0.949 . S
C1994 C1998 1.368 . S
C1995 C1976 1.429 . S
C1995 C1989 1.429 . S
C1995 C1996 1.523 . S
C1996 C1977 1.368 . S
C1996 C1990 1.368 . S
C1996 C1995 1.523 . S
C1997 C1981 1.429 . S
C1997 C1993 1.429 . S
C1997 C1998 1.523 . S
C1998 C1982 1.368 . S
C1998 C1994 1.368 . S
C1998 C1997 1.523 . S
H1999 C1974 0.950 . S
H2000 C1976 0.950 . S
H2001 C1977 0.949 . S
H2002 C1979 0.950 . S
H2003 C1981 0.950 . S
C2004 C2005 1.349 . S
C2004 C2006 1.327 . S
C2004 H2029 0.950 . S
C2005 C2004 1.349 . S
C2005 C2021 1.349 . S
C2006 C2004 1.327 . S
C2006 C2025 1.429 . S
C2006 H2030 0.950 . S
C2007 C2024 1.574 . S
C2007 C2026 1.368 . S
C2007 H2031 0.949 . S
H2008 C2012 0.949 . S
C2009 C2010 1.349 . S
C2009 C2011 1.327 . S
C2009 H2032 0.950 . S
C2010 C2009 1.349 . S
C2010 C2022 1.349 . S
C2011 C2009 1.327 . S
C2011 C2027 1.429 . S
C2011 H2033 0.950 . S
C2012 H2008 0.949 . S
C2012 C2020 1.574 . S
C2012 C2028 1.368 . S
H2013 C2021 0.950 . S
H2014 C2019 0.950 . S
H2015 C2020 0.949 . S
H2016 C2022 0.950 . S
H2017 C2023 0.950 . S
H2018 C2024 0.949 . S
C2019 H2014 0.950 . S
C2019 C2021 1.327 . S
C2019 C2025 1.429 . S
C2020 C2012 1.574 . S
C2020 H2015 0.949 . S
C2020 C2026 1.368 . S
C2021 C2005 1.349 . S
C2021 H2013 0.950 . S
C2021 C2019 1.327 . S
C2022 C2010 1.349 . S
C2022 H2016 0.950 . S
C2022 C2023 1.327 . S
C2023 H2017 0.950 . S
C2023 C2022 1.327 . S
C2023 C2027 1.429 . S
C2024 C2007 1.574 . S
C2024 H2018 0.949 . S
C2024 C2028 1.368 . S
C2025 C2006 1.429 . S
C2025 C2019 1.429 . S
C2025 C2026 1.523 . S
C2026 C2007 1.368 . S
C2026 C2020 1.368 . S
C2026 C2025 1.523 . S
C2027 C2011 1.429 . S
C2027 C2023 1.429 . S
C2027 C2028 1.523 . S
C2028 C2012 1.368 . S
C2028 C2024 1.368 . S
C2028 C2027 1.523 . S
H2029 C2004 0.950 . S
H2030 C2006 0.950 . S
H2031 C2007 0.949 . S
H2032 C2009 0.950 . S
H2033 C2011 0.950 . S
C415 C18 0.650 1_556 S
C420 C62 0.641 . S
C445 C16 0.641 . S
C450 C41 0.650 1_556 S
C475 C64 0.650 1_556 S
C480 C39 0.641 . S
C505 C108 0.641 . S
C510 C87 0.650 . S
C535 C131 0.641 . S
C540 C110 0.650 . S
C565 C133 0.650 . S
C570 C85 0.641 . S
C595 C200 0.641 . S
C600 C156 0.650 . S
C625 C179 0.650 . S
C630 C154 0.641 . S
C655 C177 0.641 . S
C660 C202 0.650 . S
C685 C225 0.650 . S
C690 C246 0.641 . S
C715 C269 0.641 . S
C720 C248 0.650 . S
C745 C271 0.650 . S
C750 C223 0.641 . S
C775 C338 0.641 . S
C780 C294 0.650 . S
C805 C317 0.650 . S
C810 C292 0.641 . S
C835 C340 0.650 . S
C840 C315 0.641 . S
C865 C363 0.650 . S
C870 C384 0.641 . S
C895 C407 0.641 . S
C900 C386 0.650 . S
C925 C361 0.641 . S
C930 C409 0.650 . S
C955 C134 0.840 . S
C960 C20 0.844 . S
C985 C88 0.840 . S
C990 C43 0.844 . S
C1015 C111 0.840 . S
C1020 C66 0.844 . S
C1045 C42 0.840 . S
C1050 C89 0.844 . S
C1075 C112 0.844 . S
C1080 C65 0.839 . S
C1105 C19 0.839 . S
C1110 C135 0.844 . S
C1135 C158 0.844 . S
C1140 C272 0.840 . S
C1165 C181 0.844 . S
C1170 C226 0.840 . S
C1195 C249 0.840 . S
C1200 C204 0.844 . S
C1225 C227 0.844 . S
C1230 C180 0.840 . S
C1255 C250 0.844 . S
C1260 C203 0.839 . S
C1285 C273 0.844 . S
C1290 C157 0.839 . S
C1315 C296 0.844 . S
C1320 C410 0.840 . S
C1345 C319 0.844 . S
C1350 C364 0.840 . S
C1375 C342 0.844 . S
C1380 C387 0.840 . S
C1405 C365 0.844 . S
C1410 C318 0.840 . S
C1435 C388 0.844 . S
C1440 C341 0.839 . S
C1465 C411 0.844 . S
C1470 C295 0.839 . S
C1495 C251 2.187 . S
C1500 C17 2.164 . S
C1525 C40 2.164 . S
C1530 C274 2.187 . S
C1555 C228 2.187 . S
C1560 C63 2.165 . S
C1585 C86 2.164 . S
C1590 C205 2.186 . S
C1615 C109 2.164 . S
C1620 C159 2.187 . S
C1645 C182 2.187 . S
C1650 C132 2.164 . S
C1675 C155 2.164 . S
C1680 C389 2.187 1_455 S
C1705 C178 2.164 . S
C1710 C412 2.187 . S
C1735 C201 2.164 . S
C1740 C366 2.187 1_565 S
C1765 C343 2.186 1_565 S
C1770 C224 2.164 . S
C1795 C297 2.187 1_455 S
C1800 C247 2.164 . S
C1825 C320 2.187 . S
C1830 C270 2.164 . S
C1855 C113 2.187 . S
C1860 C293 2.164 . S
C1885 C316 2.164 . S
C1890 C136 2.187 . S
C1915 C90 2.187 . S
C1920 C339 2.164 . S
C1945 C362 2.164 . S
C1950 C67 2.187 . S
C1975 C385 2.164 . S
C1980 C21 2.187 . S
C2005 C44 2.187 . S
C2010 C408 2.164 . S
