# Generated by pormake.
# Topology lcs, (4)-cn, num edge types: 1
# Building blocks:
#     Node 0, Type 0, BuildingBlock: ICAMEG_clean_sbu_1, # of connection points: 4
#     Node 1, Type 0, BuildingBlock: ICAMEG_clean_sbu_1, # of connection points: 4
#     Node 2, Type 0, BuildingBlock: ICAMEG_clean_sbu_1, # of connection points: 4
#     Node 3, Type 0, BuildingBlock: ICAMEG_clean_sbu_1, # of connection points: 4
#     Node 4, Type 0, BuildingBlock: ICAMEG_clean_sbu_1, # of connection points: 4
#     Node 5, Type 0, BuildingBlock: ICAMEG_clean_sbu_1, # of connection points: 4
#     Node 6, Type 0, BuildingBlock: ICAMEG_clean_sbu_1, # of connection points: 4
#     Node 7, Type 0, BuildingBlock: ICAMEG_clean_sbu_1, # of connection points: 4
#     Node 8, Type 0, BuildingBlock: ICAMEG_clean_sbu_1, # of connection points: 4
#     Node 9, Type 0, BuildingBlock: ICAMEG_clean_sbu_1, # of connection points: 4
#     Node 10, Type 0, BuildingBlock: ICAMEG_clean_sbu_1, # of connection points: 4
#     Node 11, Type 0, BuildingBlock: ICAMEG_clean_sbu_1, # of connection points: 4
#     Node 12, Type 0, BuildingBlock: ICAMEG_clean_sbu_1, # of connection points: 4
#     Node 13, Type 0, BuildingBlock: ICAMEG_clean_sbu_1, # of connection points: 4
#     Node 14, Type 0, BuildingBlock: ICAMEG_clean_sbu_1, # of connection points: 4
#     Node 15, Type 0, BuildingBlock: ICAMEG_clean_sbu_1, # of connection points: 4
#     Node 16, Type 0, BuildingBlock: ICAMEG_clean_sbu_1, # of connection points: 4
#     Node 17, Type 0, BuildingBlock: ICAMEG_clean_sbu_1, # of connection points: 4
#     Node 18, Type 0, BuildingBlock: ICAMEG_clean_sbu_1, # of connection points: 4
#     Node 19, Type 0, BuildingBlock: ICAMEG_clean_sbu_1, # of connection points: 4
#     Node 20, Type 0, BuildingBlock: ICAMEG_clean_sbu_1, # of connection points: 4
#     Node 21, Type 0, BuildingBlock: ICAMEG_clean_sbu_1, # of connection points: 4
#     Node 22, Type 0, BuildingBlock: ICAMEG_clean_sbu_1, # of connection points: 4
#     Node 23, Type 0, BuildingBlock: ICAMEG_clean_sbu_1, # of connection points: 4
#     Edge 24, Type (0, 0), BuildingBlock: EZIPEK_clean_linker_0, # of connection points: 2
#     Edge 25, Type (0, 0), BuildingBlock: EZIPEK_clean_linker_0, # of connection points: 2
#     Edge 26, Type (0, 0), BuildingBlock: EZIPEK_clean_linker_0, # of connection points: 2
#     Edge 27, Type (0, 0), BuildingBlock: EZIPEK_clean_linker_0, # of connection points: 2
#     Edge 28, Type (0, 0), BuildingBlock: EZIPEK_clean_linker_0, # of connection points: 2
#     Edge 29, Type (0, 0), BuildingBlock: EZIPEK_clean_linker_0, # of connection points: 2
#     Edge 30, Type (0, 0), BuildingBlock: EZIPEK_clean_linker_0, # of connection points: 2
#     Edge 31, Type (0, 0), BuildingBlock: EZIPEK_clean_linker_0, # of connection points: 2
#     Edge 32, Type (0, 0), BuildingBlock: EZIPEK_clean_linker_0, # of connection points: 2
#     Edge 33, Type (0, 0), BuildingBlock: EZIPEK_clean_linker_0, # of connection points: 2
#     Edge 34, Type (0, 0), BuildingBlock: EZIPEK_clean_linker_0, # of connection points: 2
#     Edge 35, Type (0, 0), BuildingBlock: EZIPEK_clean_linker_0, # of connection points: 2
#     Edge 36, Type (0, 0), BuildingBlock: EZIPEK_clean_linker_0, # of connection points: 2
#     Edge 37, Type (0, 0), BuildingBlock: EZIPEK_clean_linker_0, # of connection points: 2
#     Edge 38, Type (0, 0), BuildingBlock: EZIPEK_clean_linker_0, # of connection points: 2
#     Edge 39, Type (0, 0), BuildingBlock: EZIPEK_clean_linker_0, # of connection points: 2
#     Edge 40, Type (0, 0), BuildingBlock: EZIPEK_clean_linker_0, # of connection points: 2
#     Edge 41, Type (0, 0), BuildingBlock: EZIPEK_clean_linker_0, # of connection points: 2
#     Edge 42, Type (0, 0), BuildingBlock: EZIPEK_clean_linker_0, # of connection points: 2
#     Edge 43, Type (0, 0), BuildingBlock: EZIPEK_clean_linker_0, # of connection points: 2
#     Edge 44, Type (0, 0), BuildingBlock: EZIPEK_clean_linker_0, # of connection points: 2
#     Edge 45, Type (0, 0), BuildingBlock: EZIPEK_clean_linker_0, # of connection points: 2
#     Edge 46, Type (0, 0), BuildingBlock: EZIPEK_clean_linker_0, # of connection points: 2
#     Edge 47, Type (0, 0), BuildingBlock: EZIPEK_clean_linker_0, # of connection points: 2
#     Edge 48, Type (0, 0), BuildingBlock: EZIPEK_clean_linker_0, # of connection points: 2
#     Edge 49, Type (0, 0), BuildingBlock: EZIPEK_clean_linker_0, # of connection points: 2
#     Edge 50, Type (0, 0), BuildingBlock: EZIPEK_clean_linker_0, # of connection points: 2
#     Edge 51, Type (0, 0), BuildingBlock: EZIPEK_clean_linker_0, # of connection points: 2
#     Edge 52, Type (0, 0), BuildingBlock: EZIPEK_clean_linker_0, # of connection points: 2
#     Edge 53, Type (0, 0), BuildingBlock: EZIPEK_clean_linker_0, # of connection points: 2
#     Edge 54, Type (0, 0), BuildingBlock: EZIPEK_clean_linker_0, # of connection points: 2
#     Edge 55, Type (0, 0), BuildingBlock: EZIPEK_clean_linker_0, # of connection points: 2
#     Edge 56, Type (0, 0), BuildingBlock: EZIPEK_clean_linker_0, # of connection points: 2
#     Edge 57, Type (0, 0), BuildingBlock: EZIPEK_clean_linker_0, # of connection points: 2
#     Edge 58, Type (0, 0), BuildingBlock: EZIPEK_clean_linker_0, # of connection points: 2
#     Edge 59, Type (0, 0), BuildingBlock: EZIPEK_clean_linker_0, # of connection points: 2
#     Edge 60, Type (0, 0), BuildingBlock: EZIPEK_clean_linker_0, # of connection points: 2
#     Edge 61, Type (0, 0), BuildingBlock: EZIPEK_clean_linker_0, # of connection points: 2
#     Edge 62, Type (0, 0), BuildingBlock: EZIPEK_clean_linker_0, # of connection points: 2
#     Edge 63, Type (0, 0), BuildingBlock: EZIPEK_clean_linker_0, # of connection points: 2
#     Edge 64, Type (0, 0), BuildingBlock: EZIPEK_clean_linker_0, # of connection points: 2
#     Edge 65, Type (0, 0), BuildingBlock: EZIPEK_clean_linker_0, # of connection points: 2
#     Edge 66, Type (0, 0), BuildingBlock: EZIPEK_clean_linker_0, # of connection points: 2
#     Edge 67, Type (0, 0), BuildingBlock: EZIPEK_clean_linker_0, # of connection points: 2
#     Edge 68, Type (0, 0), BuildingBlock: EZIPEK_clean_linker_0, # of connection points: 2
#     Edge 69, Type (0, 0), BuildingBlock: EZIPEK_clean_linker_0, # of connection points: 2
#     Edge 70, Type (0, 0), BuildingBlock: EZIPEK_clean_linker_0, # of connection points: 2
#     Edge 71, Type (0, 0), BuildingBlock: EZIPEK_clean_linker_0, # of connection points: 2
# Relax obj value: 0.041
# Max RMSD: 0.109
# Mean RMSD: 0.106
data_MOF--net-lcs--node1-ICAMEG_clean_sbu_1--edge1-EZIPEK_clean_linker_0
_symmetry_space_group_name_H-M    P1
_symmetry_Int_Tables_number       1
_symmetry_cell_setting            triclinic
loop_
_symmetry_equiv_pos_as_xyz
'x, y, z'
_cell_length_a     38.901912
_cell_length_b     38.940007
_cell_length_c     38.95395
_cell_angle_alpha  93.671496
_cell_angle_beta   93.787876
_cell_angle_gamma 93.905785
loop_
_atom_site_label
_atom_site_type_symbol
_atom_site_fract_x
_atom_site_fract_y
_atom_site_fract_z
_atom_type_partial_charge
Co0 Co 1.00091 0.2394 0.43323 0.0
Co1 Co 0.04003 0.25285 0.35801 0.0
O2 O 0.01315 0.2693 0.39611 0.0
C3 C 0.93678 0.27644 0.41804 0.0
O4 O 0.94085 0.27378 0.38489 0.0
C5 C 0.05942 0.33096 0.37005 0.0
O6 O 0.03825 0.333 0.3948 0.0
O7 O 0.07713 0.24104 0.39291 0.0
O8 O 0.0446 0.21465 0.43021 0.0
H9 H 0.11063 0.16606 0.29955 0.0
H10 H 1.00241 0.31532 0.44618 0.0
O11 O 0.95756 0.26359 0.43934 0.0
H12 H 0.08136 0.27663 0.53773 0.0
H13 H 0.95087 0.21325 0.54563 0.0
H14 H 1.00402 0.16485 0.4437 0.0
H15 H 0.05078 0.2346 0.49425 0.0
H16 H 0.96887 0.25067 0.50044 0.0
O17 O 0.06437 0.30135 0.35526 0.0
H18 H 0.07464 0.18866 0.34425 0.0
H19 H 0.06558 0.28072 0.29314 0.0
H20 H 0.98667 0.12645 0.48836 0.0
H21 H 0.03295 0.35834 0.48874 0.0
H22 H 0.95982 0.15065 0.53985 0.0
H23 H 0.07275 0.33904 0.535 0.0
O24 O 0.97621 0.2055 0.39772 0.0
H25 H 0.94631 0.32324 0.30919 0.0
H26 H 1.00835 0.21806 0.29189 0.0
H27 H 0.96355 0.23117 0.24815 0.0
H28 H 0.93212 0.28414 0.25654 0.0
H29 H 0.99153 0.3095 0.35196 0.0
H30 H 0.10172 0.25958 0.24806 0.0
H31 H 0.12445 0.20167 0.25092 0.0
O32 O 0.01522 0.20471 0.35746 0.0
C33 C 0.0738 0.22229 0.41846 0.0
C34 C 0.10089 0.19134 0.29797 0.0
C35 C 0.09596 0.24382 0.26915 0.0
N36 N 0.06792 0.23606 0.32157 0.0
C37 C 0.08044 0.20424 0.32327 0.0
C38 C 0.07561 0.25583 0.29496 0.0
C39 C 0.10866 0.21133 0.27073 0.0
C40 C 0.01994 0.30678 0.46599 0.0
N41 N 0.02514 0.27256 0.46738 0.0
C42 C 0.03705 0.33123 0.49013 0.0
C43 C 0.05934 0.32039 0.51609 0.0
C44 C 0.06418 0.28538 0.51765 0.0
C45 C 0.04683 0.26171 0.49288 0.0
C46 C 0.9625 0.20238 0.52331 0.0
C47 C 0.99244 0.17553 0.46594 0.0
C48 C 0.97265 0.22342 0.49751 0.0
N49 N 0.98752 0.20993 0.46927 0.0
C50 C 0.98263 0.15369 0.4912 0.0
C51 C 0.96755 0.16727 0.52006 0.0
C52 C 0.98765 0.19237 0.37016 0.0
C53 C 0.96016 0.30033 0.30496 0.0
C54 C 0.99551 0.24164 0.29551 0.0
C55 C 0.96989 0.24876 0.27068 0.0
C56 C 0.95218 0.27839 0.27546 0.0
N57 N 1.00389 0.26372 0.32407 0.0
C58 C 0.98608 0.29246 0.32914 0.0
Co59 Co 0.02326 0.77717 0.58804 0.0
Co60 Co 0.04469 0.75042 0.66842 0.0
O61 O 0.01094 0.75727 0.63051 0.0
C62 C 0.9663 0.82166 0.60876 0.0
O63 O 0.98413 0.83044 0.63817 0.0
C64 C 0.98806 0.69155 0.66697 0.0
O65 O 0.9725 0.70326 0.63973 0.0
O66 O 0.07229 0.72311 0.63583 0.0
O67 O 0.06808 0.75294 0.58851 0.0
H68 H 0.1644 0.74042 0.72224 0.0
H69 H 0.95453 0.73862 0.58728 0.0
O70 O 0.97803 0.80075 0.58639 0.0
H71 H 0.01584 0.67738 0.49823 0.0
H72 H 0.9977 0.81269 0.46753 0.0
H73 H 0.08549 0.81507 0.56486 0.0
H74 H 0.04348 0.72919 0.53115 0.0
H75 H 0.98404 0.78632 0.52135 0.0
O76 O 0.01697 0.70627 0.68001 0.0
H77 H 0.12112 0.7502 0.67549 0.0
H78 H 0.04024 0.73145 0.74127 0.0
H79 H 0.10064 0.84115 0.51138 0.0
H80 H 0.92553 0.68721 0.55471 0.0
H81 H 0.05649 0.8401 0.46216 0.0
H82 H 0.95639 0.65603 0.50986 0.0
O83 O 0.04726 0.81824 0.61527 0.0
H84 H 0.93672 0.79459 0.71517 0.0
H85 H 0.06397 0.80627 0.72343 0.0
H86 H 0.0322 0.8444 0.76072 0.0
H87 H 0.96807 0.83859 0.75696 0.0
H88 H 0.96935 0.75737 0.67816 0.0
H89 H 0.08251 0.72086 0.78863 0.0
H90 H 0.14518 0.72568 0.7794 0.0
O91 O 0.07294 0.79428 0.65961 0.0
C92 C 0.08225 0.73014 0.60616 0.0
C93 C 0.13719 0.73863 0.72673 0.0
C94 C 0.09125 0.72759 0.76395 0.0
N95 N 0.07819 0.74253 0.70587 0.0
C96 C 0.11257 0.74446 0.7004 0.0
C97 C 0.06739 0.7336 0.737 0.0
C98 C 0.12639 0.73028 0.75876 0.0
C99 C 0.9679 0.72544 0.56774 0.0
N100 N 1.00065 0.73689 0.56149 0.0
C101 C 0.95146 0.69622 0.54939 0.0
C102 C 0.96879 0.67871 0.52428 0.0
C103 C 1.00216 0.69064 0.51779 0.0
C104 C 0.01776 0.71993 0.53672 0.0
C105 C 0.0173 0.81297 0.48863 0.0
C106 C 0.06657 0.8136 0.54328 0.0
C107 C 1.00974 0.79801 0.51915 0.0
N108 N 0.03445 0.79796 0.5458 0.0
C109 C 0.07509 0.82884 0.51318 0.0
C110 C 0.05027 0.82834 0.48563 0.0
C111 C 0.06947 0.82003 0.641 0.0
C112 C 0.96467 0.79704 0.71745 0.0
C113 C 0.03607 0.80316 0.72183 0.0
C114 C 0.01822 0.825 0.74297 0.0
C115 C 0.98226 0.82177 0.74081 0.0
N116 N 0.01871 0.77843 0.69936 0.0
C117 C 0.98341 0.77571 0.69666 0.0
Co118 Co 0.50121 0.73756 0.93251 0.0
Co119 Co 0.53633 0.75392 0.85656 0.0
O120 O 0.51297 0.77009 0.89732 0.0
C121 C 0.44832 0.79181 0.93499 0.0
O122 O 0.46301 0.80828 0.91092 0.0
C123 C 0.55815 0.83161 0.86815 0.0
O124 O 0.53897 0.83433 0.89446 0.0
O125 O 0.5752 0.7415 0.88905 0.0
O126 O 0.54286 0.71119 0.9236 0.0
H127 H 0.60491 0.6688 0.79324 0.0
H128 H 0.5178 0.81355 0.94879 0.0
O129 O 0.45924 0.76334 0.9444 0.0
H130 H 0.58472 0.75698 0.03769 0.0
H131 H 0.45576 0.69957 0.04363 0.0
H132 H 0.50076 0.66157 0.93316 0.0
H133 H 0.54879 0.72233 0.99213 0.0
H134 H 0.47315 0.74193 1.00265 0.0
O135 O 0.56082 0.80193 0.8525 0.0
H136 H 0.5734 0.69162 0.8415 0.0
H137 H 0.55284 0.78024 0.78813 0.0
H138 H 0.48414 0.61833 0.97366 0.0
H139 H 0.55516 0.84909 0.99243 0.0
H140 H 0.46143 0.63722 0.02937 0.0
H141 H 0.58854 0.8209 0.03789 0.0
O142 O 0.47268 0.70821 0.89593 0.0
H143 H 0.43905 0.82486 0.81712 0.0
H144 H 0.49781 0.71853 0.79394 0.0
H145 H 0.44709 0.73011 0.7566 0.0
H146 H 0.41726 0.78365 0.76798 0.0
H147 H 0.48988 0.81238 0.8536 0.0
H148 H 0.5846 0.75893 0.73951 0.0
H149 H 0.61073 0.70259 0.7417 0.0
O150 O 0.51188 0.70615 0.85677 0.0
C151 C 0.5722 0.7212 0.91345 0.0
C152 C 0.59356 0.69334 0.79189 0.0
C153 C 0.58224 0.74393 0.7618 0.0
N154 N 0.56099 0.73718 0.81768 0.0
C155 C 0.57557 0.70633 0.81914 0.0
C156 C 0.56441 0.75605 0.78955 0.0
C157 C 0.59686 0.71232 0.76302 0.0
C158 C 0.53263 0.8009 0.96776 0.0
N159 N 0.53006 0.76577 0.96807 0.0
C160 C 0.55361 0.82126 0.99277 0.0
C161 C 0.57227 0.80546 0.01829 0.0
C162 C 0.57006 0.76963 0.01825 0.0
C163 C 0.54923 0.75012 0.9925 0.0
C164 C 0.46567 0.69101 0.01946 0.0
C165 C 0.49117 0.67009 0.95745 0.0
C166 C 0.4754 0.71493 0.99602 0.0
N167 N 0.48825 0.7044 0.96556 0.0
C168 C 0.48167 0.64543 0.98024 0.0
C169 C 0.46888 0.65604 0.01146 0.0
C170 C 0.48285 0.69554 0.8676 0.0
C171 C 0.45198 0.80157 0.81169 0.0
C172 C 0.48543 0.74219 0.79894 0.0
C173 C 0.45651 0.74848 0.77772 0.0
C174 C 0.43975 0.77845 0.78415 0.0
N175 N 0.49766 0.76519 0.82576 0.0
C176 C 0.48096 0.79436 0.83239 0.0
Co177 Co 0.524 0.27769 0.08856 0.0
Co178 Co 0.54323 0.25189 0.17064 0.0
O179 O 0.51001 0.25855 0.13156 0.0
C180 C 0.45436 0.30717 0.10161 0.0
O181 O 0.45561 0.29614 0.13267 0.0
C182 C 0.48757 0.19215 0.16862 0.0
O183 O 0.47203 0.2037 0.14132 0.0
O184 O 0.57197 0.22459 0.13909 0.0
O185 O 0.56849 0.25347 0.09137 0.0
H186 H 0.66267 0.24686 0.22687 0.0
H187 H 0.45628 0.23705 0.08876 0.0
O188 O 0.47937 0.30258 0.08236 0.0
H189 H 0.51988 0.17589 1.00134 0.0
H190 H 0.50718 0.30803 0.96487 0.0
H191 H 0.5869 0.31734 0.06917 0.0
H192 H 0.54568 0.22937 0.03268 0.0
H193 H 0.48989 0.28284 0.01804 0.0
O194 O 0.51613 0.20733 0.18195 0.0
H195 H 0.61963 0.25538 0.17945 0.0
H196 H 0.53817 0.23196 0.24325 0.0
H197 H 0.60559 0.34238 0.01643 0.0
H198 H 0.42947 0.18367 0.05802 0.0
H199 H 0.56559 0.33778 0.96367 0.0
H200 H 0.46131 0.15267 0.01387 0.0
O201 O 0.54683 0.31922 0.11597 0.0
H202 H 0.43418 0.29183 0.2192 0.0
H203 H 0.5611 0.30904 0.22459 0.0
H204 H 0.52851 0.34619 0.26197 0.0
H205 H 0.46453 0.33767 0.25961 0.0
H206 H 0.46764 0.25563 0.18202 0.0
H207 H 0.58019 0.22255 0.29122 0.0
H208 H 0.64302 0.23028 0.2833 0.0
O209 O 0.57063 0.2961 0.1623 0.0
C210 C 0.58233 0.23099 0.10948 0.0
C211 C 0.63537 0.24366 0.23074 0.0
C212 C 0.5891 0.22994 0.26682 0.0
N213 N 0.57637 0.24486 0.20868 0.0
C214 C 0.61087 0.2487 0.20402 0.0
C215 C 0.56537 0.23522 0.2395 0.0
C216 C 0.62433 0.23429 0.26237 0.0
C217 C 0.47029 0.22383 0.06959 0.0
N218 N 0.50238 0.23663 0.06247 0.0
C219 C 0.45496 0.19357 0.05223 0.0
C220 C 0.47284 0.17617 0.02749 0.0
C221 C 0.50569 0.18919 0.02045 0.0
C222 C 0.52017 0.21952 0.03835 0.0
C223 C 0.52501 0.30986 0.98756 0.0
C224 C 0.56966 0.31448 0.0462 0.0
C225 C 0.51536 0.29558 0.01779 0.0
N226 N 0.53784 0.29739 0.04647 0.0
C227 C 0.58024 0.32906 0.01645 0.0
C228 C 0.55777 0.32656 0.9869 0.0
C229 C 0.56653 0.32174 0.14376 0.0
C230 C 0.46207 0.29566 0.22067 0.0
C231 C 0.53327 0.30495 0.22332 0.0
C232 C 0.51496 0.32616 0.24464 0.0
C233 C 0.47909 0.32139 0.24329 0.0
N234 N 0.51647 0.27948 0.20128 0.0
C235 C 0.48127 0.275 0.19968 0.0
Co236 Co 0.02331 0.73537 0.10277 0.0
Co237 Co 0.99552 0.75063 0.1843 0.0
O238 O 0.01643 0.76621 0.14308 0.0
C239 C 0.09413 0.77439 0.11263 0.0
O240 O 0.0988 0.76442 0.14405 0.0
C241 C 0.95578 0.81129 0.16504 0.0
O242 O 0.95345 0.79882 0.13281 0.0
O243 O 0.95542 0.72656 0.15545 0.0
O244 O 0.97885 0.70702 0.10786 0.0
H245 H 0.93738 0.66352 0.25518 0.0
H246 H 0.02581 0.81088 0.0952 0.0
O247 O 0.06661 0.7643 0.09418 0.0
H248 H 0.9298 0.76136 0.01418 0.0
H249 H 0.05238 0.70993 0.97996 0.0
H250 H 0.02388 0.65954 0.08815 0.0
H251 H 0.96427 0.72365 0.04886 0.0
H252 H 0.04206 0.74731 0.0311 0.0
O253 O 0.97048 0.79472 0.18846 0.0
H254 H 0.96519 0.68363 0.20424 0.0
H255 H 0.9795 0.78548 0.25139 0.0
H256 H 0.03361 0.62107 0.03764 0.0
H257 H 0.99245 0.84943 0.06037 0.0
H258 H 0.04797 0.64626 0.9829 0.0
H259 H 0.94388 0.82473 0.01966 0.0
O260 O 0.04973 0.7043 0.13345 0.0
H261 H 0.08275 0.84959 0.22064 0.0
H262 H 0.04085 0.73154 0.24388 0.0
H263 H 0.09013 0.76079 0.27987 0.0
H264 H 0.1114 0.82026 0.26833 0.0
H265 H 0.03363 0.81932 0.18519 0.0
H266 H 0.95147 0.76657 0.30262 0.0
H267 H 0.93035 0.70515 0.30481 0.0
O268 O 0.02127 0.70716 0.18213 0.0
C269 C 0.9531 0.70884 0.12655 0.0
C270 C 0.94659 0.69032 0.25458 0.0
C271 C 0.95444 0.74817 0.28118 0.0
N272 N 0.97421 0.7356 0.22496 0.0
C273 C 0.96247 0.70183 0.22587 0.0
C274 C 0.9702 0.75875 0.25204 0.0
C275 C 0.94261 0.71371 0.2824 0.0
C276 C 1.00505 0.79984 0.07721 0.0
N277 N 0.99709 0.765 0.07418 0.0
C278 C 0.98612 0.82184 0.05767 0.0
C279 C 0.95883 0.80798 0.0349 0.0
C280 C 0.95088 0.77243 0.03184 0.0
C281 C 0.9704 0.75122 0.05176 0.0
C282 C 0.04578 0.69859 1.00353 0.0
C283 C 0.02948 0.67064 0.06442 0.0
C284 C 0.03975 0.71963 0.0326 0.0
N285 N 0.03127 0.70557 0.06249 0.0
C286 C 0.03525 0.64875 0.03588 0.0
C287 C 0.04335 0.66289 1.00521 0.0
C288 C 0.04327 0.69377 0.1632 0.0
C289 C 0.0737 0.8237 0.22595 0.0
C290 C 0.04992 0.75744 0.23873 0.0
C291 C 0.07783 0.77388 0.25921 0.0
C292 C 0.08977 0.80723 0.2527 0.0
N293 N 0.03432 0.77375 0.21251 0.0
C294 C 0.04588 0.80644 0.20598 0.0
Co295 Co 0.5285 0.73654 0.41859 0.0
Co296 Co 0.53993 0.77435 0.34267 0.0
O297 O 0.50996 0.76108 0.37941 0.0
C298 C 0.45109 0.71414 0.40894 0.0
O299 O 0.44729 0.73418 0.38344 0.0
C300 C 0.48581 0.82758 0.34558 0.0
O301 O 0.47054 0.81211 0.36995 0.0
O302 O 0.57065 0.80225 0.37865 0.0
O303 O 0.57581 0.762 0.417 0.0
H304 H 0.65547 0.79469 0.29391 0.0
H305 H 0.4698 0.78232 0.42534 0.0
O306 O 0.48121 0.7111 0.42351 0.0
H307 H 0.55286 0.8192 0.52368 0.0
H308 H 0.52712 0.68068 0.53214 0.0
H309 H 0.59374 0.70334 0.4318 0.0
H310 H 0.56506 0.77218 0.4821 0.0
H311 H 0.50362 0.71418 0.48576 0.0
O312 O 0.51326 0.81648 0.3339 0.0
H313 H 0.61549 0.77597 0.33666 0.0
H314 H 0.53025 0.80426 0.27379 0.0
H315 H 0.61863 0.67 0.47774 0.0
H316 H 0.45705 0.83003 0.46562 0.0
H317 H 0.58519 0.65842 0.52845 0.0
H318 H 0.49854 0.84865 0.5156 0.0
O319 O 0.5402 0.69905 0.38444 0.0
H320 H 0.42572 0.72244 0.28675 0.0
H321 H 0.55207 0.72818 0.28108 0.0
H322 H 0.51519 0.69318 0.23645 0.0
H323 H 0.45147 0.68973 0.23923 0.0
H324 H 0.46346 0.75877 0.32952 0.0
H325 H 0.56919 0.82371 0.23051 0.0
H326 H 0.63235 0.81882 0.24031 0.0
O327 O 0.56735 0.73247 0.34842 0.0
C328 C 0.58496 0.79132 0.40591 0.0
C329 C 0.628 0.79691 0.2893 0.0
C330 C 0.5796 0.81326 0.25377 0.0
N331 N 0.5705 0.78887 0.30786 0.0
C332 C 0.60523 0.78627 0.31344 0.0
C333 C 0.55764 0.80238 0.27852 0.0
C334 C 0.61502 0.81048 0.25926 0.0
C335 C 0.48812 0.79013 0.44667 0.0
N336 N 0.51773 0.77359 0.45147 0.0
C337 C 0.48069 0.81724 0.46961 0.0
C338 C 0.50394 0.82765 0.49765 0.0
C339 C 0.53433 0.81105 0.50227 0.0
C340 C 0.54097 0.78421 0.47865 0.0
C341 C 0.54194 0.68548 0.51015 0.0
C342 C 0.5791 0.69849 0.4537 0.0
C343 C 0.5286 0.7043 0.48364 0.0
N344 N 0.5472 0.71075 0.45588 0.0
C345 C 0.5933 0.67955 0.47968 0.0
C346 C 0.57452 0.67304 0.5081 0.0
C347 C 0.55895 0.70283 0.35899 0.0
C348 C 0.45345 0.72378 0.28515 0.0
C349 C 0.52436 0.72774 0.28211 0.0
C350 C 0.50359 0.70754 0.25683 0.0
C351 C 0.46788 0.70552 0.25847 0.0
N352 N 0.51003 0.74638 0.3078 0.0
C353 C 0.47504 0.74412 0.30967 0.0
Co354 Co 0.52079 0.23597 0.60279 0.0
Co355 Co 0.49714 0.25587 0.68457 0.0
O356 O 0.5153 0.26922 0.64151 0.0
C357 C 0.59001 0.27737 0.60805 0.0
O358 O 0.59504 0.26943 0.64017 0.0
C359 C 0.45332 0.3138 0.6661 0.0
O360 O 0.44747 0.29899 0.63484 0.0
O361 O 0.45554 0.23118 0.6585 0.0
O362 O 0.47821 0.20667 0.61279 0.0
H363 H 0.43677 0.17635 0.76191 0.0
H364 H 0.51901 0.31046 0.59092 0.0
O365 O 0.56258 0.26543 0.59022 0.0
H366 H 0.42107 0.2526 0.51757 0.0
H367 H 0.54431 0.20266 0.47992 0.0
H368 H 0.52219 0.15975 0.59326 0.0
H369 H 0.45957 0.21877 0.5526 0.0
H370 H 0.53559 0.24318 0.52929 0.0
O371 O 0.47224 0.29998 0.68863 0.0
H372 H 0.46055 0.1929 0.70781 0.0
H373 H 0.49081 0.29334 0.75281 0.0
H374 H 0.53031 0.11827 0.54454 0.0
H375 H 0.48147 0.3452 0.55578 0.0
H376 H 0.54145 0.13966 0.48729 0.0
H377 H 0.43197 0.31629 0.51891 0.0
O378 O 0.54978 0.20769 0.6336 0.0
H379 H 0.58434 0.35638 0.71441 0.0
H380 H 0.54855 0.23716 0.7394 0.0
H381 H 0.60045 0.2669 0.77066 0.0
H382 H 0.61851 0.32704 0.75841 0.0
H383 H 0.53314 0.32532 0.68298 0.0
H384 H 0.46675 0.27824 0.8073 0.0
H385 H 0.43978 0.21924 0.81224 0.0
O386 O 0.52242 0.2119 0.6825 0.0
C387 C 0.45325 0.20932 0.63247 0.0
C388 C 0.44896 0.20197 0.76029 0.0
C389 C 0.46571 0.25916 0.78572 0.0
N390 N 0.47848 0.24347 0.72752 0.0
C391 C 0.46292 0.21129 0.72981 0.0
C392 C 0.4794 0.26751 0.75481 0.0
C393 C 0.45055 0.22607 0.78847 0.0
C394 C 0.49783 0.29761 0.57458 0.0
N395 N 0.49165 0.26259 0.57375 0.0
C396 C 0.47654 0.31745 0.55487 0.0
C397 C 0.44873 0.30122 0.53424 0.0
C398 C 0.44258 0.2655 0.5335 0.0
C399 C 0.46442 0.24649 0.55353 0.0
C400 C 0.53913 0.19298 0.50463 0.0
C401 C 0.52639 0.16924 0.56836 0.0
C402 C 0.53407 0.2158 0.53269 0.0
N403 N 0.52735 0.20379 0.56397 0.0
C404 C 0.53125 0.14563 0.54088 0.0
C405 C 0.53756 0.15765 0.5088 0.0
C406 C 0.54409 0.19762 0.6636 0.0
C407 C 0.57668 0.3302 0.72002 0.0
C408 C 0.55648 0.26317 0.73357 0.0
C409 C 0.58578 0.27995 0.75152 0.0
C410 C 0.59588 0.31371 0.74467 0.0
N411 N 0.53774 0.27954 0.70945 0.0
C412 C 0.54763 0.31254 0.70241 0.0
Co413 Co 0.02349 0.23834 0.91574 0.0
Co414 Co 0.03229 0.27148 0.83729 0.0
O415 O 1.00367 0.26087 0.87592 0.0
C416 C 0.94646 0.21463 0.90801 0.0
O417 O 0.94216 0.23435 0.88232 0.0
C418 C 0.97725 0.3239 0.8376 0.0
O419 O 0.96337 0.31073 0.86403 0.0
O420 O 0.06343 0.30225 0.87076 0.0
O421 O 0.0701 0.26476 0.91187 0.0
H422 H 0.14519 0.29026 0.78289 0.0
H423 H 0.96395 0.28326 0.92227 0.0
O424 O 0.9768 0.21236 0.92253 0.0
H425 H 0.04851 0.32435 0.01807 0.0
H426 H 0.02762 0.18713 0.03183 0.0
H427 H 0.08975 0.20692 0.92784 0.0
H428 H 0.061 0.27689 0.97713 0.0
H429 H 1.00155 0.2182 0.98481 0.0
O430 O 1.00425 0.31196 0.82578 0.0
H431 H 0.1076 0.27472 0.82878 0.0
H432 H 0.01894 0.29405 0.76579 0.0
H433 H 0.11718 0.17612 0.97446 0.0
H434 H 0.95078 0.33117 0.96203 0.0
H435 H 0.08604 0.166 0.02696 0.0
H436 H 0.99305 0.35196 0.01071 0.0
O437 O 0.03476 0.19961 0.88303 0.0
H438 H 0.91792 0.21319 0.78872 0.0
H439 H 0.04397 0.21939 0.78045 0.0
H440 H 1.00699 0.17777 0.74183 0.0
H441 H 0.94342 0.17426 0.74587 0.0
H442 H 0.95579 0.25509 0.82603 0.0
H443 H 0.05539 0.3102 0.71925 0.0
H444 H 0.11907 0.30822 0.72754 0.0
O445 O 0.06132 0.23138 0.84566 0.0
C446 C 0.07847 0.29331 0.89868 0.0
C447 C 0.11748 0.29124 0.77893 0.0
C448 C 0.06711 0.30248 0.74326 0.0
N449 N 0.0611 0.28348 0.8002 0.0
C450 C 0.09609 0.28243 0.8049 0.0
C451 C 0.04657 0.29348 0.76984 0.0
C452 C 0.10282 0.30133 0.74791 0.0
C453 C 0.98251 0.2918 0.94317 0.0
N454 N 0.01276 0.27626 0.94761 0.0
C455 C 0.97489 0.31913 0.96574 0.0
C456 C 0.9986 0.33079 0.99304 0.0
C457 C 0.02963 0.31523 0.99725 0.0
C458 C 0.03645 0.28814 0.974 0.0
C459 C 0.04145 0.19134 0.00907 0.0
C460 C 0.07609 0.20277 0.95062 0.0
C461 C 0.02664 0.20876 0.98222 0.0
N462 N 0.04401 0.21448 0.95352 0.0
C463 C 0.09173 0.18524 0.97693 0.0
C464 C 0.07424 0.17953 1.00635 0.0
C465 C 0.05315 0.20223 0.85726 0.0
C466 C 0.94557 0.21452 0.78659 0.0
C467 C 0.01631 0.21863 0.78206 0.0
C468 C 0.99549 0.19478 0.76017 0.0
C469 C 0.95987 0.19273 0.76254 0.0
N470 N 1.00213 0.24027 0.80545 0.0
C471 C 0.96723 0.23812 0.80796 0.0
Co472 Co 0.35673 0.03876 0.2588 0.0
Co473 Co 0.43378 1.00489 0.24431 0.0
O474 O 0.39741 0.01573 0.27539 0.0
C475 C 0.37586 0.07304 0.33052 0.0
O476 O 0.40885 0.07071 0.32653 0.0
C477 C 0.42274 0.94182 0.2833 0.0
O478 O 0.38948 0.94566 0.28219 0.0
O479 O 0.39872 0.97765 0.21181 0.0
O480 O 0.35629 0.0136 0.21154 0.0
H481 H 0.48398 0.99118 0.12908 0.0
H482 H 0.35326 1.00042 0.32198 0.0
O483 O 0.35341 0.06311 0.30592 0.0
H484 H 0.25904 0.946 0.24161 0.0
H485 H 0.23935 0.08494 0.26655 0.0
H486 H 0.33933 0.07476 0.1961 0.0
H487 H 0.29605 0.99509 0.22481 0.0
H488 H 0.28955 0.05465 0.28722 0.0
O489 O 0.44314 0.96258 0.26915 0.0
H490 H 0.4397 1.00596 0.16892 0.0
H491 H 0.50387 0.97843 0.25382 0.0
H492 H 0.28945 0.10481 0.17414 0.0
H493 H 0.31636 0.95184 0.34011 0.0
H494 H 0.23897 0.11005 0.2095 0.0
H495 H 0.26895 0.92412 0.2997 0.0
O496 O 0.38828 0.07779 0.24484 0.0
H497 H 0.49174 0.0423 0.36109 0.0
H498 H 0.49023 0.0594 0.23668 0.0
H499 H 0.53201 0.09461 0.27698 0.0
H500 H 0.53303 0.08612 0.33969 0.0
H501 H 0.44995 1.00806 0.31993 0.0
H502 H 0.54868 0.96302 0.21484 0.0
H503 H 0.53894 0.96951 0.15199 0.0
O504 O 0.42703 0.04718 0.2187 0.0
C505 C 0.36958 0.98647 0.19955 0.0
C506 C 0.48857 0.98834 0.15642 0.0
C507 C 0.52487 0.9725 0.20455 0.0
N508 N 0.46928 0.99334 0.21369 0.0
C509 C 0.46364 0.99677 0.17912 0.0
C510 C 0.49936 0.98119 0.22649 0.0
C511 C 0.51939 0.97615 0.16929 0.0
C512 C 0.33239 0.98887 0.30444 0.0
N513 N 0.32683 1.00073 0.27244 0.0
C514 C 0.31169 0.9612 0.31477 0.0
C515 C 0.28515 0.94562 0.29207 0.0
C516 C 0.2796 0.95786 0.25946 0.0
C517 C 0.30078 0.9856 0.25005 0.0
C518 C 0.26111 0.08266 0.25082 0.0
C519 C 0.31728 0.07655 0.21138 0.0
C520 C 0.28964 0.06557 0.2624 0.0
N521 N 0.31709 0.06238 0.24254 0.0
C522 C 0.28919 0.09377 0.19893 0.0
C523 C 0.26091 0.09675 0.21881 0.0
C524 C 0.41389 0.07559 0.22597 0.0
C525 C 0.49163 0.04618 0.33381 0.0
C526 C 0.49035 0.05563 0.26393 0.0
C527 C 0.51418 0.07559 0.28663 0.0
C528 C 0.51474 0.0708 0.3218 0.0
N529 N 0.46762 0.03165 0.27593 0.0
C530 C 0.46812 0.02674 0.31036 0.0
Co531 Co 0.25395 0.17399 0.54185 0.0
Co532 Co 0.27889 0.09237 0.52111 0.0
O533 O 0.25935 0.13518 0.50852 0.0
C534 C 0.18307 0.16596 0.50362 0.0
O535 O 0.17954 0.13366 0.51151 0.0
C536 C 0.31972 0.11299 0.46164 0.0
O537 O 0.3225 0.14493 0.47502 0.0
O538 O 0.32038 0.11898 0.54557 0.0
O539 O 0.2984 0.16618 0.56868 0.0
H540 H 0.34327 0.01593 0.59827 0.0
H541 H 0.25086 0.18504 0.46699 0.0
O542 O 0.21022 0.18471 0.5146 0.0
H543 H 0.34845 0.26294 0.51881 0.0
H544 H 0.22609 0.29536 0.5761 0.0
H545 H 0.25908 0.18469 0.61814 0.0
H546 H 0.31376 0.22671 0.5552 0.0
H547 H 0.23432 0.24618 0.53513 0.0
O548 O 0.30346 0.08941 0.47678 0.0
H549 H 0.318 0.06961 0.58282 0.0
H550 H 0.28556 0.02451 0.48295 0.0
H551 H 0.25158 0.23329 0.66006 0.0
H552 H 0.28451 0.22134 0.42977 0.0
H553 H 0.23492 0.28917 0.63908 0.0
H554 H 0.33383 0.2605 0.45562 0.0
O555 O 0.22771 0.1425 0.57204 0.0
H556 H 0.1916 0.06119 0.4211 0.0
H557 H 0.22867 0.03627 0.53987 0.0
H558 H 0.17726 1.004 0.51031 0.0
H559 H 0.15857 0.01618 0.45037 0.0
H560 H 0.24224 0.09371 0.45202 0.0
H561 H 0.31105 0.97048 0.49698 0.0
H562 H 0.33987 0.96577 0.55514 0.0
O563 O 0.25402 0.0932 0.56529 0.0
C564 C 0.32331 0.1467 0.56532 0.0
C565 C 0.33024 0.01742 0.57304 0.0
C566 C 0.31222 0.99195 0.51619 0.0
N567 N 0.29872 0.04974 0.5327 0.0
C568 C 0.31542 0.04765 0.56435 0.0
C569 C 0.29767 0.02259 0.50847 0.0
C570 C 0.32842 0.98933 0.5488 0.0
C571 C 0.27194 0.20239 0.47855 0.0
N572 N 0.28016 0.20381 0.5133 0.0
C573 C 0.29104 0.22275 0.45729 0.0
C574 C 0.31875 0.24465 0.4718 0.0
C575 C 0.32698 0.24601 0.50724 0.0
C576 C 0.3073 0.22531 0.52771 0.0
C577 C 0.23353 0.27122 0.58557 0.0
C578 C 0.25228 0.20899 0.60883 0.0
C579 C 0.23824 0.24326 0.56249 0.0
N580 N 0.24777 0.21271 0.57424 0.0
C581 C 0.24787 0.2364 0.63268 0.0
C582 C 0.23848 0.26772 0.6209 0.0
C583 C 0.23306 0.11196 0.58082 0.0
C584 C 0.19954 0.0556 0.44718 0.0
C585 C 0.22043 0.04213 0.51398 0.0
C586 C 0.19142 0.02358 0.49729 0.0
C587 C 0.18098 0.03039 0.46364 0.0
N588 N 0.23854 0.06682 0.49764 0.0
C589 C 0.22828 0.07383 0.46477 0.0
Co590 Co 0.18414 0.99537 0.75144 0.0
Co591 Co 0.10286 0.02192 0.73154 0.0
O592 O 0.14199 0.01589 0.76469 0.0
C593 C 0.1665 0.95663 0.81424 0.0
O594 O 0.13433 0.95151 0.80167 0.0
C595 C 0.10701 0.08337 0.7849 0.0
O596 O 0.13486 0.07237 0.79999 0.0
O597 O 0.13461 0.0478 0.70181 0.0
O598 O 0.18193 0.01819 0.70585 0.0
H599 H 0.04502 0.02344 0.61246 0.0
H600 H 0.18709 0.03671 0.81833 0.0
O601 O 0.18876 0.97338 0.79769 0.0
H602 H 0.2745 0.09459 0.75186 0.0
H603 H 0.30578 0.96058 0.77187 0.0
H604 H 0.20367 0.95516 0.68935 0.0
H605 H 0.24058 0.042 0.72734 0.0
H606 H 0.253 0.98769 0.78755 0.0
O607 O 0.09262 0.06724 0.75736 0.0
H608 H 0.09277 0.01539 0.6553 0.0
H609 H 0.03094 0.04378 0.73673 0.0
H610 H 0.25602 0.92818 0.67231 0.0
H611 H 0.22076 0.08895 0.84433 0.0
H612 H 0.30764 0.93082 0.71375 0.0
H613 H 0.26479 0.11842 0.81084 0.0
O614 O 0.1558 0.95354 0.72991 0.0
H615 H 0.05815 0.98478 0.84317 0.0
H616 H 0.04671 0.96608 0.71649 0.0
H617 H 1.00948 0.93075 0.75131 0.0
H618 H 0.01486 0.94013 0.81515 0.0
H619 H 0.09512 0.01914 0.80753 0.0
H620 H 0.98266 0.05277 0.69486 0.0
H621 H 0.98942 0.04231 0.63217 0.0
O622 O 0.11012 0.97699 0.70507 0.0
C623 C 0.16426 0.04098 0.6918 0.0
C624 C 0.04165 0.02787 0.63971 0.0
C625 C 1.0067 0.04441 0.68594 0.0
N626 N 0.06456 0.02853 0.69855 0.0
C627 C 0.06857 0.02314 0.6641 0.0
C628 C 0.0342 0.03938 0.70957 0.0
C629 C 0.0105 0.03852 0.65078 0.0
C630 C 0.20637 0.04912 0.80393 0.0
N631 N 0.21163 0.03626 0.77148 0.0
C632 C 0.2253 0.07882 0.81863 0.0
C633 C 0.24994 0.09537 0.79981 0.0
C634 C 0.25536 0.08205 0.76671 0.0
C635 C 0.23588 0.05231 0.75289 0.0
C636 C 0.2836 0.95958 0.75344 0.0
C637 C 0.22623 0.9571 0.70718 0.0
C638 C 0.25365 0.97494 0.76214 0.0
N639 N 0.22566 0.9741 0.73887 0.0
C640 C 0.25571 0.94146 0.69755 0.0
C641 C 0.28462 0.94287 0.72084 0.0
C642 C 0.12847 0.95134 0.70945 0.0
C643 C 0.05522 0.98077 0.81535 0.0
C644 C 0.04907 0.97067 0.74424 0.0
C645 C 0.02794 0.95044 0.76383 0.0
C646 C 0.031 0.95567 0.79963 0.0
N647 N 0.07242 0.99573 0.75976 0.0
C648 C 0.07597 1.00045 0.79491 0.0
Co649 Co 0.27309 0.84199 0.03775 0.0
Co650 Co 0.23761 0.91808 0.02362 0.0
O651 O 0.26269 0.87884 1.00736 0.0
C652 C 0.33916 0.85578 1.00457 0.0
O653 O 0.33819 0.88898 0.01222 0.0
C654 C 0.21814 0.90671 0.94566 0.0
O655 O 0.23778 0.8807 0.94349 0.0
O656 O 0.19866 0.88469 0.03451 0.0
O657 O 0.22971 0.84714 0.06205 0.0
H658 H 0.16083 0.97711 0.10411 0.0
H659 H 0.27194 0.82785 0.962 0.0
O660 O 0.31608 0.83433 0.01373 0.0
H661 H 0.18873 0.74015 1.00125 0.0
H662 H 0.3188 0.7284 0.06636 0.0
H663 H 0.26659 0.83216 0.11219 0.0
H664 H 0.22075 0.78297 0.04295 0.0
H665 H 0.30397 0.77406 0.02822 0.0
O666 O 0.2145 0.92228 0.97516 0.0
H667 H 0.19509 0.93033 0.08295 0.0
H668 H 0.22252 0.98723 0.99849 0.0
H669 H 0.28039 0.78675 0.15103 0.0
H670 H 0.24004 0.78588 0.91931 0.0
H671 H 0.30687 0.73448 0.12822 0.0
H672 H 0.19807 0.74158 0.93888 0.0
O673 O 0.29865 0.8771 0.07142 0.0
H674 H 0.33562 0.96113 0.95515 0.0
H675 H 0.27401 0.98124 0.0602 0.0
H676 H 0.32389 0.02046 0.04979 0.0
H677 H 0.35497 0.01078 0.99672 0.0
H678 H 0.28615 0.92227 0.96691 0.0
H679 H 0.18827 0.03451 0.01827 0.0
H680 H 0.15728 0.02981 0.07171 0.0
O681 O 0.26058 0.91719 0.07226 0.0
C682 C 0.20109 0.85958 0.05398 0.0
C683 C 0.17437 0.97959 0.08089 0.0
C684 C 0.18971 0.01176 0.03273 0.0
N685 N 0.21139 0.95609 0.03976 0.0
C686 C 0.19393 0.95317 0.06884 0.0
C687 C 0.20902 0.98478 0.02151 0.0
C688 C 0.17235 1.00912 0.06269 0.0
C689 C 0.25352 0.80886 0.97067 0.0
N690 N 0.24794 0.80819 1.00487 0.0
C691 C 0.23562 0.78507 0.9464 0.0
C692 C 0.2121 0.76022 0.9574 0.0
C693 C 0.20684 0.7594 0.99238 0.0
C694 C 0.22503 0.78377 0.01587 0.0
C695 C 0.30733 0.75109 0.07662 0.0
C696 C 0.2777 0.80932 0.1019 0.0
C697 C 0.29906 0.77718 0.05518 0.0
N698 N 0.28446 0.80589 0.06791 0.0
C699 C 0.28566 0.78377 0.1241 0.0
C700 C 0.30058 0.75449 0.11131 0.0
C701 C 0.28704 0.90377 0.08601 0.0
C702 C 0.32203 0.96592 0.97814 0.0
C703 C 0.28718 0.97679 0.037 0.0
C704 C 0.3155 0.99915 0.03124 0.0
C705 C 0.33294 0.9937 1.00151 0.0
N706 N 0.27614 0.94987 0.01369 0.0
C707 C 0.29363 0.94406 0.98483 0.0
Co708 Co 0.23753 0.4362 1.00304 0.0
Co709 Co 0.24741 0.35651 0.03275 0.0
O710 O 0.26621 0.39745 0.0115 0.0
C711 C 0.27623 0.43004 0.9387 0.0
O712 O 0.26893 0.3966 0.93557 0.0
C713 C 0.32479 0.36467 0.0556 0.0
O714 O 0.32868 0.39254 0.03869 0.0
O715 O 0.23552 0.38738 0.0728 0.0
O716 O 0.20935 0.42691 0.04346 0.0
H717 H 0.15532 0.29235 0.0929 0.0
H718 H 0.31372 0.44949 0.01039 0.0
O719 O 0.26539 0.4483 0.96339 0.0
H720 H 0.27011 0.52685 0.10013 0.0
H721 H 0.21717 0.55624 0.96898 0.0
H722 H 0.16262 0.44675 1.0025 0.0
H723 H 0.22973 0.48919 0.06057 0.0
H724 H 0.25245 0.50807 0.98256 0.0
O725 O 0.29457 0.3497 0.05752 0.0
H726 H 0.18129 0.34083 0.06348 0.0
H727 H 0.27202 0.28789 0.05167 0.0
H728 H 0.12624 0.49427 0.98943 0.0
H729 H 0.35507 0.48668 0.0495 0.0
H730 H 0.15356 0.54959 0.97244 0.0
H731 H 0.33331 0.52567 0.09484 0.0
O732 O 0.20477 0.40387 0.97233 0.0
H733 H 0.31871 0.32011 0.93487 0.0
H734 H 0.21308 0.29316 0.99398 0.0
H735 H 0.22724 0.25467 0.94527 0.0
H736 H 0.28038 0.26799 0.91521 0.0
H737 H 0.30441 0.35713 0.98447 0.0
H738 H 0.24735 0.23912 0.08135 0.0
H739 H 0.18843 0.24097 0.10202 0.0
O740 O 0.2004 0.36002 1.00716 0.0
C741 C 0.2169 0.41312 0.07157 0.0
C742 C 0.18097 0.29115 0.08388 0.0
C743 C 0.23263 0.26133 0.07747 0.0
N744 N 0.22808 0.31722 0.05545 0.0
C745 C 0.19577 0.3185 0.06706 0.0
C746 C 0.2466 0.28919 0.06078 0.0
C747 C 0.19957 0.26237 0.08904 0.0
C748 C 0.30407 0.46627 0.03013 0.0
N749 N 0.26937 0.46675 0.03345 0.0
C750 C 0.3276 0.48734 0.05215 0.0
C751 C 0.31537 0.50922 0.07757 0.0
C752 C 0.27993 0.50991 0.08055 0.0
C753 C 0.25719 0.4884 0.05813 0.0
C754 C 0.20494 0.53226 0.9763 0.0
C755 C 0.17461 0.47059 0.99516 0.0
C756 C 0.22477 0.5048 0.98393 0.0
N757 N 0.20954 0.47438 0.99321 0.0
C758 C 0.15393 0.4975 0.98778 0.0
C759 C 0.16926 0.52852 0.97826 0.0
C760 C 0.19029 0.37519 0.98034 0.0
C761 C 0.29574 0.31371 0.94806 0.0
C762 C 0.23688 0.29868 0.98195 0.0
C763 C 0.24455 0.27689 0.95402 0.0
C764 C 0.27425 0.28448 0.93706 0.0
N765 N 0.25869 0.32673 0.99346 0.0
C766 C 0.28741 0.33471 0.9763 0.0
Co767 Co 0.75314 0.17962 0.99549 0.0
Co768 Co 0.73318 0.09896 0.02329 0.0
O769 O 0.76639 0.13776 0.01646 0.0
C770 C 0.81598 0.16127 0.95764 0.0
O771 O 0.80297 0.12925 0.95272 0.0
C772 C 0.78826 0.10324 0.08347 0.0
O773 O 0.80331 0.1306 0.07142 0.0
O774 O 0.70393 0.13115 0.04904 0.0
O775 O 0.70746 0.17756 0.01802 0.0
H776 H 0.61369 0.04217 0.02726 0.0
H777 H 0.82024 0.18336 0.03694 0.0
O778 O 0.79949 0.1839 0.97373 0.0
H779 H 0.75324 0.27058 0.09361 0.0
H780 H 0.77394 0.30074 0.95931 0.0
H781 H 0.69121 0.19869 0.95436 0.0
H782 H 0.72885 0.23622 0.04133 0.0
H783 H 0.7894 0.2483 0.98723 0.0
O784 O 0.75992 0.0891 0.06849 0.0
H785 H 0.65679 0.08941 0.018 0.0
H786 H 0.73811 0.02724 0.04596 0.0
H787 H 0.67438 0.2507 0.92655 0.0
H788 H 0.84611 0.21741 0.08892 0.0
H789 H 0.71592 0.30229 0.92896 0.0
H790 H 0.81235 0.26136 0.11778 0.0
O791 O 0.7315 0.15088 0.95412 0.0
H792 H 0.84383 0.05308 0.98475 0.0
H793 H 0.71677 0.04231 0.9685 0.0
H794 H 0.75058 1.0044 0.93312 0.0
H795 H 0.81461 0.00941 0.94128 0.0
H796 H 0.8092 0.09076 0.01913 0.0
H797 H 0.69602 0.97948 0.05617 0.0
H798 H 0.63324 0.98666 0.04653 0.0
O799 O 0.7061 0.10592 0.97841 0.0
C800 C 0.69352 0.16039 0.04126 0.0
C801 C 0.64098 0.03862 0.03133 0.0
C802 C 0.68717 1.00348 0.04764 0.0
N803 N 0.70002 0.061 0.03085 0.0
C804 C 0.66552 0.06524 0.0259 0.0
C805 C 0.71094 0.0307 0.04193 0.0
C806 C 0.65195 1.00752 0.04221 0.0
C807 C 0.8057 0.20254 0.04913 0.0
N808 N 0.77316 0.20748 0.03611 0.0
C809 C 0.82033 0.22171 0.07866 0.0
C810 C 0.80137 0.24631 0.09487 0.0
C811 C 0.7682 0.25145 0.08135 0.0
C812 C 0.75445 0.23172 0.0518 0.0
C813 C 0.75546 0.27858 0.95842 0.0
C814 C 0.70907 0.22125 0.95622 0.0
C815 C 0.76403 0.24883 0.97426 0.0
N816 N 0.74068 0.22086 0.97357 0.0
C817 C 0.69956 0.25053 0.9401 0.0
C818 C 0.72291 0.27943 0.94138 0.0
C819 C 0.71061 0.12385 0.9524 0.0
C820 C 0.81592 0.05028 0.9813 0.0
C821 C 0.74461 0.04452 0.97259 0.0
C822 C 0.76362 0.023 0.95231 0.0
C823 C 0.79953 0.02586 0.95685 0.0
N824 N 0.76078 0.06807 0.99705 0.0
C825 C 0.79604 0.07144 1.00104 0.0
Co826 Co 0.0888 0.52548 0.28092 0.0
Co827 Co 0.1686 0.54074 0.24928 0.0
O828 O 0.12904 0.50958 0.25856 0.0
C829 C 0.10762 0.46544 0.32354 0.0
O830 O 0.13895 0.48011 0.33001 0.0
C831 C 0.16184 0.48378 0.1907 0.0
O832 O 0.13467 0.46911 0.20353 0.0
O833 O 0.13623 0.5696 0.22284 0.0
O834 O 0.09085 0.56984 0.25595 0.0
H835 H 0.22809 0.65708 0.23462 0.0
H836 H 0.08267 0.45716 0.24158 0.0
O837 O 0.08513 0.48019 0.30512 0.0
H838 H 0.99147 0.52231 0.18861 0.0
H839 H 0.97202 0.51019 0.32876 0.0
H840 H 0.07122 0.59225 0.31352 0.0
H841 H 0.02948 0.54835 0.23785 0.0
H842 H 0.02193 0.49118 0.29855 0.0
O843 O 0.17637 0.51219 0.20485 0.0
H844 H 0.17996 0.61664 0.24752 0.0
H845 H 0.23971 0.53169 0.22648 0.0
H846 H 0.02172 0.61244 0.34361 0.0
H847 H 0.04525 0.42981 0.19248 0.0
H848 H 0.97167 0.57126 0.35139 0.0
H849 H 0.99922 0.46258 0.16552 0.0
O850 O 0.11942 0.54857 0.32004 0.0
H851 H 0.2099 0.43025 0.29286 0.0
H852 H 0.22793 0.55707 0.30153 0.0
H853 H 0.26503 0.52322 0.33785 0.0
H854 H 0.25635 0.45928 0.33353 0.0
H855 H 0.17328 0.46496 0.25728 0.0
H856 H 0.28833 0.57102 0.2126 0.0
H857 H 0.28287 0.63431 0.21698 0.0
O858 O 0.16456 0.56984 0.29369 0.0
C859 C 0.10772 0.58133 0.23134 0.0
C860 C 0.23098 0.62959 0.23302 0.0
C861 C 0.26473 0.5813 0.22058 0.0
N862 N 0.20728 0.57185 0.23895 0.0
C863 C 0.20387 0.60658 0.24067 0.0
C864 C 0.23706 0.55911 0.22846 0.0
C865 C 0.26166 0.6168 0.22304 0.0
C866 C 0.06269 0.47134 0.23018 0.0
N867 N 0.05848 0.5042 0.24261 0.0
C868 C 0.04156 0.45584 0.20229 0.0
C869 C 0.01577 0.47424 0.18717 0.0
C870 C 0.0114 0.50772 0.20011 0.0
C871 C 0.0331 0.52236 0.22799 0.0
C872 C 0.99366 0.52839 0.32548 0.0
C873 C 0.04943 0.57424 0.31662 0.0
C874 C 0.02202 0.51775 0.30849 0.0
N875 N 0.04933 0.54065 0.30409 0.0
C876 C 0.02152 0.58579 0.33377 0.0
C877 C 0.99347 0.56266 0.33816 0.0
C878 C 0.14751 0.56761 0.32062 0.0
C879 C 0.21432 0.45807 0.2946 0.0
C880 C 0.22419 0.52924 0.29901 0.0
C881 C 0.24523 0.51021 0.31985 0.0
C882 C 0.2403 0.47436 0.31747 0.0
N883 N 0.19917 0.5131 0.27599 0.0
C884 C 0.19374 0.47796 0.27421 0.0
Co885 Co 0.74487 0.93505 0.5018 0.0
Co886 Co 0.75586 0.85989 0.54173 0.0
O887 O 0.77385 0.89769 0.51513 0.0
C888 C 0.78391 0.91881 0.43959 0.0
O889 O 0.78102 0.88586 0.44459 0.0
C890 C 0.83354 0.87137 0.56274 0.0
O891 O 0.83631 0.89615 0.54165 0.0
O892 O 0.74378 0.89517 0.57809 0.0
O893 O 0.71866 0.93241 0.54463 0.0
H894 H 0.66557 0.80315 0.61014 0.0
H895 H 0.82104 0.94765 0.50529 0.0
O896 O 0.77045 0.94063 0.45924 0.0
H897 H 0.78087 0.03967 0.58233 0.0
H898 H 0.72153 0.04741 0.45026 0.0
H899 H 0.67019 0.94585 0.50249 0.0
H900 H 0.73922 0.9963 0.55094 0.0
H901 H 0.75797 1.00208 0.4697 0.0
O902 O 0.80364 0.8567 0.56714 0.0
H903 H 0.6903 0.84733 0.57461 0.0
H904 H 0.78162 0.79466 0.56863 0.0
H905 H 0.63275 0.99065 0.48367 0.0
H906 H 0.86369 0.99013 0.53664 0.0
H907 H 0.65844 0.04195 0.45729 0.0
H908 H 0.84365 0.03663 0.57548 0.0
O909 O 0.71141 0.89969 0.47642 0.0
H910 H 0.82797 0.80924 0.45057 0.0
H911 H 0.72052 0.79406 0.50981 0.0
H912 H 0.73396 0.74977 0.46587 0.0
H913 H 0.78805 0.75711 0.43583 0.0
H914 H 0.81389 0.85255 0.49498 0.0
H915 H 0.75837 0.75008 0.60436 0.0
H916 H 0.69973 0.75397 0.62531 0.0
O917 O 0.70842 0.8599 0.51581 0.0
C918 C 0.72548 0.92087 0.57406 0.0
C919 C 0.69116 0.80111 0.60118 0.0
C920 C 0.74322 0.7714 0.598 0.0
N921 N 0.73747 0.82384 0.56942 0.0
C922 C 0.70526 0.82612 0.58098 0.0
C923 C 0.75645 0.79694 0.57788 0.0
C924 C 0.71033 0.77356 0.60971 0.0
C925 C 0.81217 0.96756 0.52241 0.0
N926 N 0.77774 0.96912 0.52664 0.0
C927 C 0.83642 0.99165 0.53998 0.0
C928 C 0.82516 0.01775 0.56173 0.0
C929 C 0.78995 0.01949 0.56557 0.0
C930 C 0.76649 0.99477 0.54778 0.0
C931 C 0.71002 0.02518 0.4617 0.0
C932 C 0.68152 0.96803 0.49115 0.0
C933 C 0.73051 0.99932 0.47266 0.0
N934 N 0.7162 0.97121 0.4873 0.0
C935 C 0.66021 0.99336 0.48049 0.0
C936 C 0.67463 0.02211 0.46567 0.0
C937 C 0.69754 0.87227 0.4876 0.0
C938 C 0.80454 0.80549 0.4638 0.0
C939 C 0.74456 0.79722 0.49759 0.0
C940 C 0.75188 0.77208 0.47245 0.0
C941 C 0.78214 0.77627 0.45552 0.0
N942 N 0.76705 0.82552 0.50627 0.0
C943 C 0.79645 0.82999 0.48923 0.0
Co944 Co 0.84703 0.03084 0.27057 0.0
Co945 Co 0.92413 0.01922 0.23594 0.0
O946 O 0.88419 1.00095 0.2592 0.0
C947 C 0.84912 0.9779 0.32498 0.0
O948 O 0.87491 0.96343 0.31126 0.0
C949 C 0.90719 0.94715 0.20158 0.0
O950 O 0.87414 0.95166 0.20126 0.0
O951 O 0.89137 0.03098 0.19707 0.0
O952 O 0.85437 0.05814 0.22894 0.0
H953 H 0.98765 0.10736 0.1704 0.0
H954 H 0.83465 0.95426 0.25659 0.0
O955 O 0.83688 1.00449 0.31254 0.0
H956 H 0.74671 1.00432 0.1821 0.0
H957 H 0.7317 0.05815 0.3135 0.0
H958 H 0.84013 0.10624 0.27127 0.0
H959 H 0.78836 0.04191 0.22017 0.0
H960 H 0.77664 0.02008 0.29676 0.0
O961 O 0.92933 0.97176 0.21256 0.0
H962 H 0.93951 0.08368 0.20198 0.0
H963 H 0.99151 0.99291 0.21729 0.0
H964 H 0.79581 0.14538 0.28731 0.0
H965 H 0.79366 0.91579 0.21882 0.0
H966 H 0.74104 0.12135 0.30868 0.0
H967 H 0.74907 0.94071 0.18124 0.0
O968 O 0.88204 0.06228 0.29933 0.0
H969 H 0.96901 0.94188 0.32443 0.0
H970 H 0.98537 0.05561 0.27666 0.0
H971 H 0.02504 0.04077 0.32454 0.0
H972 H 0.01687 0.98361 0.34892 0.0
H973 H 0.9303 0.9576 0.27614 0.0
H974 H 0.04002 0.01538 0.18555 0.0
H975 H 0.03837 0.07308 0.162 0.0
O976 O 0.92235 0.06685 0.26085 0.0
C977 C 0.86564 0.04954 0.19977 0.0
C978 C 0.98871 0.08222 0.18061 0.0
C979 C 0.01807 0.03057 0.18907 0.0
N980 N 0.96274 0.03708 0.21163 0.0
C981 C 0.96156 0.06874 0.19858 0.0
C982 C 0.99045 0.01793 0.20691 0.0
C983 C 0.01715 0.06296 0.17588 0.0
C984 C 0.81526 0.96545 0.24072 0.0
N985 N 0.81346 1.00039 0.24163 0.0
C986 C 0.79208 0.94345 0.21922 0.0
C987 C 0.76711 0.95743 0.19813 0.0
C988 C 0.76571 0.99309 0.19868 0.0
C989 C 0.78932 0.01426 0.22051 0.0
C990 C 0.75547 0.06896 0.30428 0.0
C991 C 0.81647 0.09561 0.28043 0.0
C992 C 0.78115 0.04751 0.29494 0.0
N993 N 0.81118 0.06089 0.28304 0.0
C994 C 0.79141 0.11789 0.28953 0.0
C995 C 0.7607 0.1044 0.30154 0.0
C996 C 0.9098 0.07667 0.28926 0.0
C997 C 0.9728 0.9669 0.3141 0.0
C998 C 0.98169 0.03062 0.287 0.0
C999 C 1.0043 0.02235 0.3141 0.0
C1000 C 0.99966 0.9903 0.32779 0.0
N1001 N 0.95533 1.00755 0.27375 0.0
C1002 C 0.95087 0.97598 0.28683 0.0
Co1003 Co 0.25895 0.68376 0.49757 0.0
Co1004 Co 0.23636 0.60186 0.51991 0.0
O1005 O 0.27029 0.64072 0.51699 0.0
C1006 C 0.31929 0.66335 0.45732 0.0
O1007 O 0.30321 0.63269 0.45055 0.0
C1008 C 0.27484 0.6075 0.59029 0.0
O1009 O 0.26815 0.64007 0.59428 0.0
O1010 O 0.20607 0.63275 0.54625 0.0
O1011 O 0.21305 0.68222 0.51988 0.0
H1012 H 0.11708 0.54305 0.51804 0.0
H1013 H 0.32398 0.68084 0.54127 0.0
O1014 O 0.30552 0.68632 0.47598 0.0
H1015 H 0.26296 0.7734 0.59714 0.0
H1016 H 0.28643 0.80563 0.46647 0.0
H1017 H 0.19865 0.7076 0.4571 0.0
H1018 H 0.23721 0.74063 0.54441 0.0
H1019 H 0.29871 0.75107 0.49205 0.0
O1020 O 0.26266 0.5893 0.56331 0.0
H1021 H 0.15987 0.59186 0.51325 0.0
H1022 H 0.2417 0.5287 0.53706 0.0
H1023 H 0.18489 0.76179 0.43172 0.0
H1024 H 0.35167 0.71389 0.59317 0.0
H1025 H 0.22901 0.81139 0.43636 0.0
H1026 H 0.32083 0.76039 0.62168 0.0
O1027 O 0.23647 0.65798 0.45493 0.0
H1028 H 0.34883 0.55567 0.48925 0.0
H1029 H 0.22347 0.5511 0.45874 0.0
H1030 H 0.26018 0.51602 0.42353 0.0
H1031 H 0.32333 0.51805 0.43878 0.0
H1032 H 0.3113 0.59082 0.52343 0.0
H1033 H 0.19982 0.47928 0.54265 0.0
H1034 H 0.13699 0.4862 0.53285 0.0
O1035 O 0.21046 0.61157 0.4756 0.0
C1036 C 0.19707 0.66314 0.54049 0.0
C1037 C 0.14439 0.53962 0.52211 0.0
C1038 C 0.19082 0.50384 0.53595 0.0
N1039 N 0.20325 0.56301 0.52412 0.0
C1040 C 0.16874 0.56714 0.5192 0.0
C1041 C 0.21441 0.53194 0.53275 0.0
C1042 C 0.15558 0.50775 0.53047 0.0
C1043 C 0.31108 0.70159 0.55296 0.0
N1044 N 0.2796 0.70923 0.53927 0.0
C1045 C 0.32656 0.71999 0.58259 0.0
C1046 C 0.30922 0.74602 0.59862 0.0
C1047 C 0.27675 0.7533 0.58489 0.0
C1048 C 0.26225 0.73452 0.55508 0.0
C1049 C 0.26682 0.78438 0.46467 0.0
C1050 C 0.21754 0.72929 0.46009 0.0
C1051 C 0.27358 0.75344 0.47918 0.0
N1052 N 0.2488 0.72661 0.47741 0.0
C1053 C 0.20981 0.75982 0.44526 0.0
C1054 C 0.23461 0.78759 0.44777 0.0
C1055 C 0.21543 0.6312 0.45105 0.0
C1056 C 0.32132 0.55444 0.48244 0.0
C1057 C 0.25094 0.55228 0.46551 0.0
C1058 C 0.27159 0.53225 0.44551 0.0
C1059 C 0.30701 0.53339 0.45409 0.0
N1060 N 0.26515 0.57288 0.49331 0.0
C1061 C 0.29989 0.57414 0.50184 0.0
Co1062 Co 0.33877 0.53344 0.76969 0.0
Co1063 Co 0.41597 0.51883 0.73676 0.0
O1064 O 0.37567 0.50295 0.76061 0.0
C1065 C 0.3507 0.50281 0.83794 0.0
O1066 O 0.384 0.51132 0.83867 0.0
C1067 C 0.3981 0.44571 0.70522 0.0
O1068 O 0.36495 0.44986 0.70576 0.0
O1069 O 0.38427 0.5299 0.69655 0.0
O1070 O 0.34458 0.55643 0.72569 0.0
H1071 H 0.48175 0.59629 0.66159 0.0
H1072 H 0.32562 0.45759 0.76998 0.0
O1073 O 0.33043 0.51045 0.8131 0.0
H1074 H 0.23755 0.49406 0.68566 0.0
H1075 H 0.22412 0.56244 0.81271 0.0
H1076 H 0.32871 0.60744 0.76065 0.0
H1077 H 0.28017 0.53681 0.71659 0.0
H1078 H 0.27017 0.52427 0.79963 0.0
O1079 O 0.42027 0.47049 0.71552 0.0
H1080 H 0.43221 0.57712 0.69363 0.0
H1081 H 0.48428 0.49098 0.72525 0.0
H1082 H 0.28287 0.64627 0.77261 0.0
H1083 H 0.28359 0.41395 0.73944 0.0
H1084 H 0.2302 0.6239 0.79905 0.0
H1085 H 0.23916 0.4321 0.6969 0.0
O1086 O 0.37339 0.56812 0.79497 0.0
H1087 H 0.45508 0.44508 0.83099 0.0
H1088 H 0.47657 0.55556 0.77831 0.0
H1089 H 0.51282 0.54291 0.82957 0.0
H1090 H 0.50228 0.4872 0.85621 0.0
H1091 H 0.41905 0.45915 0.78006 0.0
H1092 H 0.53434 0.50898 0.69335 0.0
H1093 H 0.53342 0.56216 0.66142 0.0
O1094 O 0.41513 0.56778 0.75864 0.0
C1095 C 0.35842 0.54853 0.69781 0.0
C1096 C 0.48264 0.57327 0.6757 0.0
C1097 C 0.51213 0.52428 0.69351 0.0
N1098 N 0.45567 0.53363 0.71221 0.0
C1099 C 0.45469 0.56242 0.69405 0.0
C1100 C 0.48371 0.51427 0.7116 0.0
C1101 C 0.51158 0.55409 0.67557 0.0
C1102 C 0.30633 0.46571 0.75155 0.0
N1103 N 0.30542 0.49971 0.74505 0.0
C1104 C 0.28262 0.44087 0.73431 0.0
C1105 C 0.25771 0.45107 0.71044 0.0
C1106 C 0.25679 0.48582 0.70411 0.0
C1107 C 0.28104 0.50991 0.72169 0.0
C1108 C 0.24698 0.57252 0.80126 0.0
C1109 C 0.3057 0.59733 0.77175 0.0
C1110 C 0.2733 0.55107 0.79399 0.0
N1111 N 0.30229 0.56359 0.77954 0.0
C1112 C 0.2799 0.61953 0.77865 0.0
C1113 C 0.25038 0.60698 0.79354 0.0
C1114 C 0.4007 0.58233 0.78395 0.0
C1115 C 0.45999 0.46941 0.81959 0.0
C1116 C 0.47158 0.53147 0.78992 0.0
C1117 C 0.49233 0.52434 0.81885 0.0
C1118 C 0.48643 0.49307 0.83375 0.0
N1119 N 0.44567 0.50816 0.77616 0.0
C1120 C 0.43975 0.47746 0.79065 0.0
Co1121 Co 0.59038 0.02259 0.77462 0.0
Co1122 Co 0.6719 0.04429 0.75165 0.0
O1123 O 0.63309 0.01045 0.7552 0.0
C1124 C 0.6084 0.96292 0.81688 0.0
O1125 O 0.63864 0.97921 0.82583 0.0
C1126 C 0.66704 1.00614 0.68129 0.0
O1127 O 0.63495 0.01429 0.6765 0.0
O1128 O 0.64106 0.07352 0.72401 0.0
O1129 O 0.59253 0.06838 0.75197 0.0
H1130 H 0.73012 0.16311 0.74703 0.0
H1131 H 0.59245 0.95752 0.73103 0.0
O1132 O 0.58676 0.97625 0.79631 0.0
H1133 H 0.50033 0.01956 0.67522 0.0
H1134 H 0.4683 0.99776 0.80665 0.0
H1135 H 0.56792 0.08367 0.81452 0.0
H1136 H 0.53344 0.04492 0.72794 0.0
H1137 H 0.52236 0.9842 0.78077 0.0
O1138 O 0.68483 0.01687 0.70906 0.0
H1139 H 0.6813 0.12078 0.75324 0.0
H1140 H 0.74565 0.03837 0.73695 0.0
H1141 H 0.51424 0.09872 0.84016 0.0
H1142 H 0.55913 0.93036 0.67906 0.0
H1143 H 0.46386 0.05552 0.83631 0.0
H1144 H 0.51283 0.96167 0.6506 0.0
O1145 O 0.61704 0.04437 0.81724 0.0
H1146 H 0.71766 0.93322 0.78723 0.0
H1147 H 0.72229 0.05915 0.81303 0.0
H1148 H 0.75685 0.02371 0.85028 0.0
H1149 H 0.75479 0.96026 0.8374 0.0
H1150 H 0.68302 0.96956 0.75095 0.0
H1151 H 0.79514 0.07976 0.73014 0.0
H1152 H 0.78763 0.14268 0.73546 0.0
O1153 O 0.66161 0.07162 0.7951 0.0
C1154 C 0.61109 0.08331 0.73024 0.0
C1155 C 0.73384 0.13578 0.74506 0.0
C1156 C 0.77031 0.08902 0.73556 0.0
N1157 N 0.7108 0.07716 0.74662 0.0
C1158 C 0.70631 0.11169 0.74883 0.0
C1159 C 0.7422 0.0657 0.73955 0.0
C1160 C 0.76608 0.1243 0.7385 0.0
C1161 C 0.57181 0.97071 0.71934 0.0
N1162 N 0.56445 1.00223 0.73306 0.0
C1163 C 0.55324 0.95548 0.68968 0.0
C1164 C 0.52733 0.97309 0.67368 0.0
C1165 C 0.52032 1.00556 0.68745 0.0
C1166 C 0.53928 0.01984 0.71728 0.0
C1167 C 0.48991 0.01697 0.80812 0.0
C1168 C 0.54586 0.06521 0.81184 0.0
C1169 C 0.52057 0.00947 0.79346 0.0
N1170 N 0.54785 0.03372 0.79486 0.0
C1171 C 0.51563 0.07365 0.82683 0.0
C1172 C 0.48743 0.04937 0.82477 0.0
C1173 C 0.64257 0.06694 0.82023 0.0
C1174 C 0.7189 0.96086 0.79301 0.0
C1175 C 0.72109 0.03155 0.8073 0.0
C1176 C 0.74084 0.01162 0.82844 0.0
C1177 C 0.73968 0.97604 0.8212 0.0
N1178 N 0.70076 0.01649 0.77967 0.0
C1179 C 0.69947 0.9816 0.77245 0.0
Co1180 Co 0.75038 0.67372 0.03917 0.0
Co1181 Co 0.7758 0.59185 0.01997 0.0
O1182 O 0.75568 0.6342 1.00638 0.0
C1183 C 0.67989 0.66549 1.00049 0.0
O1184 O 0.67587 0.63354 0.0093 0.0
C1185 C 0.80409 0.60644 0.9502 0.0
O1186 O 0.78778 0.63475 0.9495 0.0
O1187 O 0.81704 0.61965 0.04295 0.0
O1188 O 0.7944 0.6661 0.06664 0.0
H1189 H 0.84166 0.5203 0.10101 0.0
H1190 H 0.74677 0.68607 0.9644 0.0
O1191 O 0.70706 0.68422 0.01135 0.0
H1192 H 0.84663 0.76083 0.01619 0.0
H1193 H 0.72334 0.79577 0.0716 0.0
H1194 H 0.75506 0.68538 0.11538 0.0
H1195 H 0.81129 0.72523 0.05246 0.0
H1196 H 0.7315 0.74601 0.03134 0.0
O1197 O 0.80163 0.58741 0.97578 0.0
H1198 H 0.81562 0.57262 0.08274 0.0
H1199 H 0.78266 0.52201 0.98536 0.0
H1200 H 0.74756 0.73457 0.1566 0.0
H1201 H 0.78105 0.72188 0.92733 0.0
H1202 H 0.73154 0.7903 0.13475 0.0
H1203 H 0.8316 0.75937 0.95312 0.0
O1204 O 0.7237 0.64293 0.0695 0.0
H1205 H 0.68453 0.55739 0.92361 0.0
H1206 H 0.72841 0.53487 0.04103 0.0
H1207 H 0.67701 0.50065 0.01401 0.0
H1208 H 0.65493 0.51152 0.95469 0.0
H1209 H 0.73506 0.59179 0.95201 0.0
H1210 H 0.809 0.46931 1.00214 0.0
H1211 H 0.83846 0.46804 0.06055 0.0
O1212 O 0.75088 0.59404 0.06425 0.0
C1213 C 0.81975 0.64744 0.06249 0.0
C1214 C 0.82845 0.52033 0.07567 0.0
C1215 C 0.81022 0.49176 0.02018 0.0
N1216 N 0.79631 0.55011 0.03354 0.0
C1217 C 0.81325 0.54982 0.06535 0.0
C1218 C 0.7953 0.52173 0.01081 0.0
C1219 C 0.82675 0.49107 0.05293 0.0
C1220 C 0.76845 0.70259 0.97597 0.0
N1221 N 0.77711 0.70316 0.01058 0.0
C1222 C 0.78788 0.72272 0.95478 0.0
C1223 C 0.81627 0.7437 0.96925 0.0
C1224 C 0.82475 0.74449 1.00461 0.0
C1225 C 0.80472 0.72403 0.025 0.0
C1226 C 0.73047 0.77169 0.08145 0.0
C1227 C 0.74844 0.7096 0.10568 0.0
C1228 C 0.73513 0.7434 0.05877 0.0
N1229 N 0.7442 0.7129 0.07099 0.0
C1230 C 0.74407 0.73735 0.12914 0.0
C1231 C 0.73506 0.76859 0.11687 0.0
C1232 C 0.7295 0.61283 0.07917 0.0
C1233 C 0.69407 0.55221 0.94937 0.0
C1234 C 0.71887 0.54004 0.01531 0.0
C1235 C 0.68978 0.52044 1.0001 0.0
C1236 C 0.67742 0.52654 0.96684 0.0
N1237 N 0.73541 0.56493 0.99784 0.0
C1238 C 0.72295 0.57149 0.96551 0.0
Co1239 Co 0.85516 0.53637 0.75108 0.0
Co1240 Co 0.93157 0.50201 0.73846 0.0
O1241 O 0.89364 0.51073 0.76759 0.0
C1242 C 0.87107 0.56781 0.82466 0.0
O1243 O 0.90414 0.57137 0.81983 0.0
C1244 C 0.91585 0.43443 0.76786 0.0
O1245 O 0.88313 0.43563 0.7578 0.0
O1246 O 0.89757 0.47775 0.70247 0.0
O1247 O 0.85778 0.51626 0.70162 0.0
H1248 H 0.99212 0.50043 0.62823 0.0
H1249 H 0.84902 0.48647 0.80505 0.0
O1250 O 0.84945 0.55501 0.80028 0.0
H1251 H 0.75306 0.45087 0.71868 0.0
H1252 H 0.73928 0.58595 0.75797 0.0
H1253 H 0.84366 0.58091 0.69317 0.0
H1254 H 0.79285 0.50125 0.71098 0.0
H1255 H 0.78666 0.55107 0.77699 0.0
O1256 O 0.93814 0.45797 0.76115 0.0
H1257 H 0.94467 0.51195 0.66524 0.0
H1258 H 0.99934 0.47131 0.74971 0.0
H1259 H 0.79678 0.61586 0.673 0.0
H1260 H 0.80931 0.43653 0.81466 0.0
H1261 H 0.74404 0.61844 0.70545 0.0
H1262 H 0.76092 0.41824 0.77107 0.0
O1263 O 0.88893 0.57629 0.74328 0.0
H1264 H 0.98189 0.53158 0.85976 0.0
H1265 H 0.99011 0.55583 0.73777 0.0
H1266 H 0.02997 0.58782 0.78231 0.0
H1267 H 0.02609 0.57571 0.84382 0.0
H1268 H 0.94219 0.50055 0.81441 0.0
H1269 H 0.04705 0.45872 0.71337 0.0
H1270 H 0.04372 0.47344 0.65219 0.0
O1271 O 0.92727 0.54645 0.71582 0.0
C1272 C 0.87128 0.49004 0.68757 0.0
C1273 C 0.9939 0.49392 0.65486 0.0
C1274 C 0.02466 0.4704 0.7026 0.0
N1275 N 0.9691 0.49225 0.70963 0.0
C1276 C 0.96718 0.50057 0.67603 0.0
C1277 C 0.99743 0.4774 0.723 0.0
C1278 C 0.02281 0.47873 0.6683 0.0
C1279 C 0.82759 0.47929 0.7866 0.0
N1280 N 0.82298 0.49731 0.75796 0.0
C1281 C 0.80536 0.45071 0.79189 0.0
C1282 C 0.7783 0.4404 0.76738 0.0
C1283 C 0.77389 0.45867 0.73799 0.0
C1284 C 0.79663 0.48715 0.73368 0.0
C1285 C 0.76201 0.58482 0.74345 0.0
C1286 C 0.82066 0.58162 0.70719 0.0
C1287 C 0.78894 0.56512 0.7541 0.0
N1288 N 0.81756 0.56326 0.73567 0.0
C1289 C 0.79425 0.60158 0.69575 0.0
C1290 C 0.7647 0.60306 0.714 0.0
C1291 C 0.91472 0.57482 0.72455 0.0
C1292 C 0.98393 0.537 0.83304 0.0
C1293 C 0.98818 0.55041 0.76447 0.0
C1294 C 0.01088 0.56859 0.78958 0.0
C1295 C 1.00869 0.56179 0.82408 0.0
N1296 N 0.9639 0.52616 0.77345 0.0
C1297 C 0.96161 0.51938 0.80723 0.0
Co1298 Co 0.76894 0.3423 0.53222 0.0
Co1299 Co 0.73491 0.41884 0.516 0.0
O1300 O 0.75724 0.37752 0.49999 0.0
C1301 C 0.82357 0.34212 0.47951 0.0
O1302 O 0.80931 0.36677 0.46358 0.0
C1303 C 0.70039 0.4005 0.44378 0.0
O1304 O 0.7004 0.36738 0.448 0.0
O1305 O 0.69545 0.38758 0.52983 0.0
O1306 O 0.72666 0.35039 0.55805 0.0
H1307 H 0.66901 0.488 0.5991 0.0
H1308 H 0.75453 0.32722 0.45593 0.0
O1309 O 0.81156 0.33138 0.50702 0.0
H1310 H 0.68544 0.23728 0.50952 0.0
H1311 H 0.81406 0.23067 0.56872 0.0
H1312 H 0.76839 0.34039 0.608 0.0
H1313 H 0.72062 0.28249 0.54555 0.0
H1314 H 0.79711 0.27237 0.52696 0.0
O1315 O 0.71132 0.42251 0.46841 0.0
H1316 H 0.69862 0.43756 0.57813 0.0
H1317 H 0.72041 0.48598 0.48669 0.0
H1318 H 0.78458 0.29917 0.65065 0.0
H1319 H 0.71876 0.28328 0.41904 0.0
H1320 H 0.80763 0.24384 0.63111 0.0
H1321 H 0.68412 0.2375 0.44572 0.0
O1322 O 0.79706 0.37857 0.56248 0.0
H1323 H 0.82444 0.45658 0.43623 0.0
H1324 H 0.77891 0.47932 0.55 0.0
H1325 H 0.8295 0.51477 0.53408 0.0
H1326 H 0.85264 0.50353 0.47681 0.0
H1327 H 0.77406 0.42153 0.45336 0.0
H1328 H 0.69061 0.53677 0.50633 0.0
H1329 H 0.66485 0.53812 0.56303 0.0
O1330 O 0.75949 0.41929 0.56363 0.0
C1331 C 0.69784 0.36248 0.54946 0.0
C1332 C 0.68029 0.48783 0.57443 0.0
C1333 C 0.69238 0.51516 0.52235 0.0
N1334 N 0.71171 0.45899 0.53155 0.0
C1335 C 0.69724 0.45938 0.56254 0.0
C1336 C 0.70918 0.48628 0.51134 0.0
C1337 C 0.67793 0.51591 0.55417 0.0
C1338 C 0.73964 0.30761 0.46795 0.0
N1339 N 0.74088 0.30698 0.50303 0.0
C1340 C 0.71936 0.28267 0.44681 0.0
C1341 C 0.69994 0.25701 0.46178 0.0
C1342 C 0.70074 0.25682 0.49755 0.0
C1343 C 0.72105 0.28239 0.51784 0.0
C1344 C 0.80401 0.25467 0.57757 0.0
C1345 C 0.77815 0.31627 0.59922 0.0
C1346 C 0.79453 0.2785 0.554 0.0
N1347 N 0.78153 0.30876 0.5649 0.0
C1348 C 0.78739 0.29307 0.62353 0.0
C1349 C 0.80037 0.26206 0.61255 0.0
C1350 C 0.78775 0.4074 0.57479 0.0
C1351 C 0.81464 0.46172 0.46128 0.0
C1352 C 0.7889 0.47405 0.52511 0.0
C1353 C 0.81751 0.49434 0.51619 0.0
C1354 C 0.83046 0.48803 0.48406 0.0
N1355 N 0.77365 0.44808 0.50272 0.0
C1356 C 0.78608 0.44195 0.4711 0.0
Co1357 Co 0.68445 0.49812 0.25183 0.0
Co1358 Co 0.60212 0.52286 0.23356 0.0
O1359 O 0.64196 0.51737 0.26564 0.0
C1360 C 0.66478 0.45628 0.31095 0.0
O1361 O 0.63288 0.45304 0.29729 0.0
C1362 C 0.6116 0.59369 0.27122 0.0
O1363 O 0.64339 0.59717 0.26181 0.0
O1364 O 0.63249 0.54909 0.20235 0.0
O1365 O 0.68246 0.52363 0.20794 0.0
H1366 H 0.5391 0.52797 0.11725 0.0
H1367 H 0.68491 0.53357 0.32166 0.0
O1368 O 0.68825 0.47295 0.29596 0.0
H1369 H 0.77285 0.59966 0.26212 0.0
H1370 H 0.8069 0.466 0.27316 0.0
H1371 H 0.70607 0.45994 0.18912 0.0
H1372 H 0.73975 0.54885 0.23246 0.0
H1373 H 0.75304 0.49102 0.2886 0.0
O1374 O 0.59248 0.56652 0.26124 0.0
H1375 H 0.58914 0.52017 0.15742 0.0
H1376 H 0.52998 0.54146 0.24295 0.0
H1377 H 0.75953 0.43517 0.17227 0.0
H1378 H 0.7184 0.58348 0.35271 0.0
H1379 H 0.81055 0.43813 0.21448 0.0
H1380 H 0.7625 0.6171 0.32281 0.0
O1381 O 0.65749 0.45697 0.22725 0.0
H1382 H 0.55845 0.4926 0.34731 0.0
H1383 H 0.54927 0.46301 0.22189 0.0
H1384 H 0.51439 0.42841 0.25951 0.0
H1385 H 0.51873 0.44321 0.32269 0.0
H1386 H 0.59343 0.52612 0.30887 0.0
H1387 H 0.47938 0.55001 0.20377 0.0
H1388 H 0.48365 0.54301 0.14039 0.0
O1389 O 0.60899 0.47837 0.20645 0.0
C1390 C 0.66289 0.54428 0.19284 0.0
C1391 C 0.53679 0.53073 0.14481 0.0
C1392 C 0.50329 0.54312 0.19335 0.0
N1393 N 0.5623 0.5293 0.20249 0.0
C1394 C 0.565 0.52603 0.16768 0.0
C1395 C 0.53203 0.53816 0.21542 0.0
C1396 C 0.50571 0.53923 0.15781 0.0
C1397 C 0.70442 0.54775 0.30862 0.0
N1398 N 0.71045 0.53815 0.27534 0.0
C1399 C 0.7232 0.57609 0.32629 0.0
C1400 C 0.74789 0.59498 0.30948 0.0
C1401 C 0.75366 0.58525 0.27542 0.0
C1402 C 0.73463 0.55658 0.25866 0.0
C1403 C 0.78505 0.46503 0.25434 0.0
C1404 C 0.72838 0.46234 0.2072 0.0
C1405 C 0.7545 0.47932 0.26287 0.0
N1406 N 0.72687 0.47855 0.23914 0.0
C1407 C 0.7585 0.4478 0.19771 0.0
C1408 C 0.78707 0.44936 0.22144 0.0
C1409 C 0.62898 0.4537 0.20866 0.0
C1410 C 0.55623 0.48599 0.3198 0.0
C1411 C 0.55155 0.46951 0.24938 0.0
C1412 C 0.53158 0.44989 0.27054 0.0
C1413 C 0.53401 0.45823 0.30598 0.0
N1414 N 0.57337 0.49669 0.26312 0.0
C1415 C 0.57584 0.50501 0.29786 0.0
C1416 C 0.09778 0.42486 0.37171 0.0
C1417 C 0.09883 0.43021 0.33599 0.0
C1418 C 0.07402 0.37084 0.32232 0.0
C1419 C 0.07546 0.36418 0.35792 0.0
N1420 N 0.09741 0.38352 0.41585 0.0
N1421 N 0.10053 0.40326 0.2789 0.0
C1422 C 0.08997 0.39085 0.38245 0.0
C1423 C 0.0908 0.40165 0.31178 0.0
N1424 N 0.10316 0.45231 0.39548 0.0
N1425 N 0.05459 0.34929 0.29853 0.0
H1426 H 0.11604 0.42407 0.27156 0.0
H1427 H 0.09736 0.38217 0.26079 0.0
H1428 H 0.03895 0.32853 0.30535 0.0
H1429 H 0.05064 0.35476 0.27276 0.0
H1430 H 0.09899 0.45066 0.42149 0.0
H1431 H 0.10906 0.4773 0.38865 0.0
H1432 H 0.11085 0.40102 0.43413 0.0
H1433 H 0.09356 0.35876 0.42433 0.0
C1434 C 0.90217 0.81171 0.59481 0.0
C1435 C 0.9315 0.8352 0.60173 0.0
C1436 C 0.89382 0.88269 0.59263 0.0
C1437 C 0.8663 0.85863 0.57883 0.0
N1438 N 0.84971 0.79919 0.55892 0.0
N1439 N 0.95583 0.89405 0.60425 0.0
C1440 C 0.87177 0.82278 0.57803 0.0
C1441 C 0.92749 0.87108 0.60005 0.0
N1442 N 0.90282 0.77901 0.60529 0.0
N1443 N 0.88765 0.91645 0.59964 0.0
H1444 H 0.98077 0.88661 0.60959 0.0
H1445 H 0.95488 0.92005 0.59965 0.0
H1446 H 0.86314 0.92556 0.59615 0.0
H1447 H 0.90592 0.93446 0.61242 0.0
H1448 H 0.88114 0.76151 0.60281 0.0
H1449 H 0.92355 0.77141 0.62068 0.0
H1450 H 0.8544 0.77318 0.55558 0.0
H1451 H 0.82956 0.80631 0.54277 0.0
C1452 C 0.40383 0.63561 0.82962 0.0
C1453 C 0.41852 0.61537 0.8028 0.0
C1454 C 0.47502 0.64445 0.82238 0.0
C1455 C 0.46044 0.66736 0.84631 0.0
N1456 N 0.40699 0.69187 0.86034 0.0
N1457 N 0.46479 0.62085 0.76416 0.0
C1458 C 0.42368 0.66499 0.84666 0.0
C1459 C 0.45317 0.62571 0.79618 0.0
N1460 N 0.37095 0.62854 0.83867 0.0
N1461 N 0.50941 0.63959 0.82447 0.0
H1462 H 0.44778 0.61511 0.7425 0.0
H1463 H 0.48983 0.62911 0.75871 0.0
H1464 H 0.5258 0.64899 0.84564 0.0
H1465 H 0.52007 0.62198 0.80761 0.0
H1466 H 0.36205 0.63965 0.8612 0.0
H1467 H 0.35255 0.61186 0.82476 0.0
H1468 H 0.38016 0.6923 0.85845 0.0
H1469 H 0.41943 0.71573 0.86877 0.0
C1470 C 0.62258 0.17964 0.10543 0.0
C1471 C 0.61182 0.21196 0.09453 0.0
C1472 C 0.64694 0.20338 0.04516 0.0
C1473 C 0.66391 0.17591 0.05963 0.0
N1474 N 0.67194 0.1455 0.11213 0.0
N1475 N 0.63028 0.25977 0.06152 0.0
C1476 C 0.65305 0.1661 0.09235 0.0
C1477 C 0.62891 0.22549 0.06662 0.0
N1478 N 0.60369 0.16074 0.12681 0.0
N1479 N 0.64591 0.20762 0.01072 0.0
H1480 H 0.62405 0.27774 0.08067 0.0
H1481 H 0.64329 0.27009 0.04149 0.0
H1482 H 0.65237 0.18814 0.99324 0.0
H1483 H 0.63301 0.22737 0.99979 0.0
H1484 H 0.60995 0.13617 0.13309 0.0
H1485 H 0.57961 0.16696 0.13432 0.0
H1486 H 0.66558 0.14007 0.13691 0.0
H1487 H 0.69614 0.13797 0.10639 0.0
C1488 C 0.07001 0.60261 0.18236 0.0
C1489 C 0.0932 0.61014 0.21202 0.0
C1490 C 0.08907 0.67221 0.20435 0.0
C1491 C 0.06239 0.66474 0.17769 0.0
N1492 N 0.02186 0.62178 0.14767 0.0
N1493 N 0.11786 0.65275 0.25585 0.0
C1494 C 0.05142 0.62958 0.16826 0.0
C1495 C 0.10087 0.64517 0.22426 0.0
N1496 N 0.06552 0.5697 0.16764 0.0
N1497 N 0.1035 0.70512 0.21053 0.0
H1498 H 0.12453 0.63353 0.27188 0.0
H1499 H 0.12156 0.67767 0.26755 0.0
H1500 H 0.09585 0.72527 0.19611 0.0
H1501 H 0.12509 0.71159 0.22758 0.0
H1502 H 0.05124 0.56327 0.14426 0.0
H1503 H 0.07859 0.54945 0.1773 0.0
H1504 H 0.0108 0.59672 0.14237 0.0
H1505 H 1.00643 0.64082 0.13931 0.0
C1506 C 0.64877 0.80546 0.42234 0.0
C1507 C 0.61394 0.81326 0.42535 0.0
C1508 C 0.63352 0.85895 0.47047 0.0
C1509 C 0.6685 0.85265 0.46578 0.0
N1510 N 0.70914 0.82579 0.43051 0.0
N1511 N 0.57402 0.85296 0.44655 0.0
C1512 C 0.67603 0.82763 0.4397 0.0
C1513 C 0.60659 0.84178 0.44763 0.0
N1514 N 0.65598 0.7766 0.4032 0.0
N1515 N 0.62586 0.88074 0.49726 0.0
H1516 H 0.55359 0.84093 0.43051 0.0
H1517 H 0.56789 0.87571 0.45953 0.0
H1518 H 0.64492 0.89392 0.51404 0.0
H1519 H 0.60083 0.8835 0.50445 0.0
H1520 H 0.68047 0.76729 0.40332 0.0
H1521 H 0.63685 0.76058 0.38919 0.0
H1522 H 0.71573 0.81077 0.40917 0.0
H1523 H 0.72972 0.84154 0.44252 0.0
C1524 C 0.4142 0.34919 0.70128 0.0
C1525 C 0.43819 0.3473 0.67534 0.0
C1526 C 0.43194 0.40868 0.66588 0.0
C1527 C 0.41052 0.41138 0.694 0.0
N1528 N 0.38575 0.38533 0.74214 0.0
N1529 N 0.47427 0.37663 0.63679 0.0
C1530 C 0.40273 0.38188 0.71261 0.0
C1531 C 0.44814 0.37742 0.65858 0.0
N1532 N 0.40148 0.31954 0.71438 0.0
N1533 N 0.43597 0.43571 0.64542 0.0
H1534 H 0.48709 0.3545 0.63119 0.0
H1535 H 0.48538 0.39852 0.62668 0.0
H1536 H 0.42434 0.45882 0.64972 0.0
H1537 H 0.44817 0.43419 0.62243 0.0
H1538 H 0.38116 0.31863 0.73049 0.0
H1539 H 0.40915 0.29521 0.70678 0.0
H1540 H 0.38288 0.36583 0.75903 0.0
H1541 H 0.37703 0.40863 0.75146 0.0
C1542 C 0.9089 0.19907 0.95698 0.0
C1543 C 0.91476 0.19707 0.92124 0.0
C1544 C 0.85486 0.17235 0.90884 0.0
C1545 C 0.85051 0.17132 0.94469 0.0
N1546 N 0.87873 0.17205 1.00162 0.0
N1547 N 0.89533 0.17272 0.86409 0.0
C1548 C 0.87921 0.18105 0.96841 0.0
C1549 C 0.88833 0.18085 0.89743 0.0
N1550 N 0.92991 0.22014 0.97991 0.0
N1551 N 0.82692 0.16668 0.88564 0.0
H1552 H 0.91988 0.17695 0.85521 0.0
H1553 H 0.87785 0.15831 0.84646 0.0
H1554 H 0.80202 0.16172 0.8932 0.0
H1555 H 0.82805 0.17037 0.85947 0.0
H1556 H 0.92487 0.22423 1.00576 0.0
H1557 H 0.94939 0.23693 0.97222 0.0
H1558 H 0.90004 0.17673 0.01941 0.0
H1559 H 0.85892 0.15565 0.00956 0.0
C1560 C 0.32504 0.11983 0.39791 0.0
C1561 C 0.33549 0.10402 0.42843 0.0
C1562 C 0.37195 0.06717 0.39469 0.0
C1563 C 0.36371 0.08496 0.36476 0.0
N1564 N 0.33747 0.13266 0.33962 0.0
N1565 N 0.37412 0.0674 0.45712 0.0
C1566 C 0.34171 0.1126 0.36692 0.0
C1567 C 0.36047 0.07905 0.42716 0.0
N1568 N 0.298 0.14049 0.39799 0.0
N1569 N 0.3892 0.03778 0.39194 0.0
H1570 H 0.36673 0.07564 0.48138 0.0
H1571 H 0.39507 0.05211 0.45821 0.0
H1572 H 0.39773 0.02776 0.36882 0.0
H1573 H 0.39233 0.02153 0.41197 0.0
H1574 H 0.28671 0.14972 0.37574 0.0
H1575 H 0.28463 0.14585 0.41982 0.0
H1576 H 0.3247 0.15531 0.34079 0.0
H1577 H 0.34961 0.12853 0.31677 0.0
C1578 C 0.16971 0.09322 0.65281 0.0
C1579 C 0.17962 0.06016 0.66254 0.0
C1580 C 0.22859 0.06832 0.62674 0.0
C1581 C 0.21469 0.09657 0.6106 0.0
N1582 N 0.16397 0.12979 0.6051 0.0
N1583 N 0.21166 0.01195 0.64362 0.0
C1584 C 0.1828 0.10734 0.62255 0.0
C1585 C 0.20697 0.04631 0.64493 0.0
N1586 N 0.14959 0.11243 0.67277 0.0
N1587 N 0.26291 0.06356 0.62716 0.0
H1588 H 0.19264 0.99408 0.65054 0.0
H1589 H 0.23128 1.00143 0.63022 0.0
H1590 H 0.28052 0.08305 0.62071 0.0
H1591 H 0.27371 0.04344 0.63958 0.0
H1592 H 0.14412 0.13746 0.66738 0.0
H1593 H 0.1426 0.10588 0.69694 0.0
H1594 H 0.13955 0.13591 0.61201 0.0
H1595 H 0.17022 0.13877 0.5816 0.0
C1596 C 0.18628 0.96689 0.87742 0.0
C1597 C 0.17706 0.9434 0.84852 0.0
C1598 C 0.18716 0.89574 0.88585 0.0
C1599 C 0.20239 0.91955 0.9128 0.0
N1600 N 0.22493 0.97839 0.92827 0.0
N1601 N 0.17404 0.88468 0.82424 0.0
C1602 C 0.20415 0.95538 0.90708 0.0
C1603 C 0.1789 0.90753 0.85246 0.0
N1604 N 0.17696 1.0 0.87719 0.0
N1605 N 0.17945 0.86211 0.89225 0.0
H1606 H 0.16921 0.89255 0.79946 0.0
H1607 H 0.17831 0.85861 0.82508 0.0
H1608 H 0.18332 0.85285 0.91664 0.0
H1609 H 0.16566 0.84445 0.87435 0.0
H1610 H 0.18121 0.01755 0.89867 0.0
H1611 H 0.16079 1.00805 0.85732 0.0
H1612 H 0.22883 1.00435 0.92346 0.0
H1613 H 0.24183 0.97065 0.94756 0.0
C1614 C 0.29871 0.95591 0.12965 0.0
C1615 C 0.30627 0.92177 0.11869 0.0
C1616 C 0.35132 0.92748 0.16733 0.0
C1617 C 0.34941 0.96401 0.1707 0.0
N1618 N 0.32546 0.01272 0.14436 0.0
N1619 N 0.34472 0.87565 0.1299 0.0
C1620 C 0.32459 0.9782 0.14842 0.0
C1621 C 0.33436 0.9078 0.1379 0.0
N1622 N 0.26617 0.96652 0.12552 0.0
N1623 N 0.3664 0.91061 0.19341 0.0
H1624 H 0.33108 0.85688 0.11346 0.0
H1625 H 0.36813 0.8677 0.14008 0.0
H1626 H 0.37486 0.92264 0.21733 0.0
H1627 H 0.36571 0.88378 0.19319 0.0
H1628 H 0.26011 0.99114 0.13424 0.0
H1629 H 0.24485 0.94899 0.11989 0.0
H1630 H 0.30799 0.02324 0.12718 0.0
H1631 H 0.34622 0.02958 0.15411 0.0
C1632 C 0.37941 0.36718 0.0956 0.0
C1633 C 0.35677 0.34889 0.06942 0.0
C1634 C 0.40092 0.30724 0.06025 0.0
C1635 C 0.4223 0.32343 0.08858 0.0
N1636 N 0.43105 0.3682 0.13466 0.0
N1637 N 0.34394 0.29747 0.03145 0.0
C1638 C 0.41117 0.35318 0.10673 0.0
C1639 C 0.36692 0.31774 0.05326 0.0
N1640 N 0.37068 0.3982 0.10964 0.0
N1641 N 0.41312 0.28224 0.0391 0.0
H1642 H 0.31923 0.30418 0.02479 0.0
H1643 H 0.34812 0.2724 0.02258 0.0
H1644 H 0.43743 0.27332 0.04288 0.0
H1645 H 0.40056 0.2728 0.01561 0.0
H1646 H 0.38754 0.41506 0.1256 0.0
H1647 H 0.3468 0.40799 0.104 0.0
H1648 H 0.42273 0.38701 0.15176 0.0
H1649 H 0.45569 0.36086 0.14169 0.0
C1650 C 0.95705 0.87584 0.15931 0.0
C1651 C 0.94298 0.84601 0.17416 0.0
C1652 C 0.9078 0.88298 0.20927 0.0
C1653 C 0.91911 0.91221 0.19171 0.0
N1654 N 0.95035 0.93514 0.14583 0.0
N1655 N 0.90079 0.82054 0.20938 0.0
C1656 C 0.94261 0.90824 0.16556 0.0
C1657 C 0.91719 0.84942 0.19808 0.0
N1658 N 0.9854 0.87365 0.14057 0.0
N1659 N 0.88951 0.88737 0.23783 0.0
H1660 H 0.90683 0.7956 0.20183 0.0
H1661 H 0.87917 0.82114 0.22375 0.0
H1662 H 0.88283 0.9114 0.24752 0.0
H1663 H 0.88385 0.86769 0.25391 0.0
H1664 H 0.99907 0.89507 0.13213 0.0
H1665 H 0.99744 0.8508 0.1364 0.0
H1666 H 0.96433 0.93277 0.12401 0.0
H1667 H 0.94009 0.95907 0.1493 0.0
C1668 C 0.14998 0.70561 0.54366 0.0
C1669 C 0.16639 0.67768 0.55787 0.0
C1670 C 0.12245 0.67903 0.60125 0.0
C1671 C 0.11212 0.71179 0.59118 0.0
N1672 N 0.13144 0.76112 0.56072 0.0
N1673 N 0.17136 0.64434 0.60862 0.0
C1674 C 0.13041 0.72663 0.56471 0.0
C1675 C 0.15365 0.66615 0.5892 0.0
N1676 N 0.15083 0.71114 0.5096 0.0
N1677 N 0.10235 0.65911 0.62075 0.0
H1678 H 0.19569 0.63675 0.60344 0.0
H1679 H 0.16375 0.63763 0.63263 0.0
H1680 H 0.07775 0.66496 0.62704 0.0
H1681 H 0.10826 0.63426 0.62641 0.0
H1682 H 0.13831 0.73112 0.49866 0.0
H1683 H 0.1585 0.69234 0.49205 0.0
H1684 H 0.14533 0.77242 0.5418 0.0
H1685 H 0.1239 0.7783 0.57992 0.0
C1686 C 0.96315 0.66343 0.71833 0.0
C1687 C 0.97046 0.66149 0.68291 0.0
C1688 C 0.93451 0.60665 0.67435 0.0
C1689 C 0.93077 0.60654 0.7104 0.0
N1690 N 0.94778 0.63212 0.76757 0.0
N1691 N 0.96875 0.627 0.62901 0.0
C1692 C 0.94678 0.63421 0.73266 0.0
C1693 C 0.95766 0.63187 0.66143 0.0
N1694 N 0.97016 0.69361 0.73811 0.0
N1695 N 0.91517 0.58311 0.65221 0.0
H1696 H 0.9868 0.64403 0.61907 0.0
H1697 H 0.96299 0.60428 0.61348 0.0
H1698 H 0.89722 0.56489 0.66055 0.0
H1699 H 0.91427 0.58401 0.6255 0.0
H1700 H 0.96196 0.69751 0.76291 0.0
H1701 H 0.98105 0.71587 0.72864 0.0
H1702 H 0.96259 0.6496 0.78487 0.0
H1703 H 0.93638 0.61126 0.77913 0.0
C1704 C 0.14588 0.2148 0.48783 0.0
C1705 C 0.15605 0.18079 0.48047 0.0
C1706 C 0.11257 0.17407 0.43109 0.0
C1707 C 0.1049 0.20904 0.43662 0.0
N1708 N 0.12139 0.26503 0.46508 0.0
N1709 N 0.15558 0.13258 0.43814 0.0
C1710 C 0.12407 0.2302 0.46319 0.0
C1711 C 0.1412 0.16162 0.45012 0.0
N1712 N 0.15491 0.23165 0.5193 0.0
N1713 N 0.09242 0.15248 0.40786 0.0
H1714 H 0.17822 0.12426 0.44954 0.0
H1715 H 0.1476 0.11932 0.41456 0.0
H1716 H 0.07205 0.16093 0.39276 0.0
H1717 H 0.09442 0.12589 0.40556 0.0
H1718 H 0.1457 0.25525 0.52696 0.0
H1719 H 0.168 0.2202 0.53926 0.0
H1720 H 0.1372 0.28203 0.48202 0.0
H1721 H 0.10551 0.27712 0.44766 0.0
C1722 C 0.62743 0.38704 0.1993 0.0
C1723 C 0.61735 0.4196 0.18885 0.0
C1724 C 0.5728 0.38837 0.14864 0.0
C1725 C 0.58554 0.35599 0.15612 0.0
N1726 N 0.63636 0.32923 0.17738 0.0
N1727 N 0.59162 0.44736 0.14067 0.0
C1728 C 0.61645 0.35671 0.17797 0.0
C1729 C 0.59348 0.41915 0.15947 0.0
N1730 N 0.64573 0.38395 0.22992 0.0
N1731 N 0.54067 0.39073 0.13304 0.0
H1732 H 0.61006 0.4682 0.14461 0.0
H1733 H 0.57552 0.44735 0.11815 0.0
H1734 H 0.52246 0.3699 0.12805 0.0
H1735 H 0.53061 0.41451 0.12941 0.0
H1736 H 0.65116 0.35995 0.23856 0.0
H1737 H 0.65148 0.4041 0.24861 0.0
H1738 H 0.65999 0.32957 0.19177 0.0
H1739 H 0.63179 0.30876 0.15867 0.0
C1740 C 0.39563 0.82881 1.00659 0.0
C1741 C 0.36832 0.84202 0.98687 0.0
C1742 C 0.39099 0.81855 0.93357 0.0
C1743 C 0.42016 0.80803 0.9531 0.0
N1744 N 0.45352 0.81033 1.00801 0.0
N1745 N 0.34202 0.85413 0.93169 0.0
C1746 C 0.42332 0.81495 0.98959 0.0
C1747 C 0.36671 0.83843 0.95034 0.0
N1748 N 0.39497 0.82906 0.04168 0.0
N1749 N 0.38556 0.80808 0.89934 0.0
H1750 H 0.32358 0.86839 0.94323 0.0
H1751 H 0.34155 0.85548 0.90506 0.0
H1752 H 0.40204 0.79252 0.88643 0.0
H1753 H 0.36309 0.81196 0.88449 0.0
H1754 H 0.41173 0.81572 0.05699 0.0
H1755 H 0.3761 0.84057 0.05535 0.0
H1756 H 0.45868 0.81872 0.03388 0.0
H1757 H 0.47479 0.80116 0.99677 0.0
C1758 C 0.93293 0.407 0.82228 0.0
C1759 C 0.92802 0.40468 0.7858 0.0
C1760 C 0.95084 0.34764 0.78365 0.0
C1761 C 0.96003 0.35172 0.8198 0.0
N1762 N 0.96453 0.38828 0.87264 0.0
N1763 N 0.93648 0.37522 0.73108 0.0
C1764 C 0.95214 0.38216 0.83897 0.0
C1765 C 0.93821 0.37571 0.76629 0.0
N1766 N 0.91887 0.43275 0.84096 0.0
N1767 N 0.95225 0.31639 0.76607 0.0
H1768 H 0.92607 0.39466 0.71731 0.0
H1769 H 0.94764 0.35679 0.71566 0.0
H1770 H 0.95993 0.29479 0.77787 0.0
H1771 H 0.94239 0.31094 0.74064 0.0
H1772 H 0.91867 0.43396 0.86773 0.0
H1773 H 0.90447 0.4511 0.82943 0.0
H1774 H 0.96262 0.41157 0.88684 0.0
H1775 H 0.97971 0.37142 0.88551 0.0
C1776 C 0.38968 0.15174 0.57335 0.0
C1777 C 0.35696 0.15733 0.58611 0.0
C1778 C 0.38691 0.19324 0.63528 0.0
C1779 C 0.41974 0.18722 0.62221 0.0
N1780 N 0.44845 0.14276 0.59173 0.0
N1781 N 0.32787 0.16974 0.63775 0.0
C1782 C 0.41999 0.16087 0.59519 0.0
C1783 C 0.35652 0.17417 0.6196 0.0
N1784 N 0.39269 0.13912 0.54029 0.0
N1785 N 0.38378 0.21627 0.66263 0.0
H1786 H 0.30698 0.15252 0.6289 0.0
H1787 H 0.32695 0.17908 0.66333 0.0
H1788 H 0.40397 0.22641 0.67978 0.0
H1789 H 0.35999 0.2251 0.6685 0.0
H1790 H 0.41668 0.13722 0.53008 0.0
H1791 H 0.37192 0.1344 0.52206 0.0
H1792 H 0.4491 0.12215 0.57335 0.0
H1793 H 0.46873 0.14485 0.61083 0.0
C1794 C 0.54919 0.65237 0.31474 0.0
C1795 C 0.57158 0.67192 0.34008 0.0
C1796 C 0.61845 0.63586 0.32436 0.0
C1797 C 0.59785 0.62075 0.29499 0.0
N1798 N 0.54495 0.62108 0.25878 0.0
N1799 N 0.6292 0.68441 0.36656 0.0
C1800 C 0.56342 0.63054 0.28936 0.0
C1801 C 0.60677 0.6644 0.34401 0.0
N1802 N 0.51433 0.65475 0.31464 0.0
N1803 N 0.64813 0.62166 0.335 0.0
H1804 H 0.62119 0.70419 0.38263 0.0
H1805 H 0.65586 0.68269 0.36757 0.0
H1806 H 0.65595 0.59901 0.32328 0.0
H1807 H 0.66255 0.62978 0.35793 0.0
H1808 H 0.49665 0.63857 0.29879 0.0
H1809 H 0.50301 0.67086 0.33239 0.0
H1810 H 0.52073 0.62971 0.25237 0.0
H1811 H 0.55548 0.60817 0.23816 0.0
C1812 C 0.13691 0.82739 0.11726 0.0
C1813 C 0.12083 0.79778 0.09772 0.0
C1814 C 0.14972 0.81665 0.04702 0.0
C1815 C 0.16992 0.84263 0.06794 0.0
N1816 N 0.18657 0.86895 0.12493 0.0
N1817 N 0.11981 0.76011 0.04581 0.0
C1818 C 0.16467 0.84688 0.10368 0.0
C1819 C 0.12913 0.79141 0.06293 0.0
N1820 N 0.12482 0.83803 0.148 0.0
N1821 N 0.1508 0.81546 0.01201 0.0
H1822 H 0.10829 0.73952 0.05775 0.0
H1823 H 0.12752 0.75318 0.02137 0.0
H1824 H 0.1661 0.83313 0.99954 0.0
H1825 H 0.13425 0.79885 0.99539 0.0
H1826 H 0.1337 0.86116 0.16168 0.0
H1827 H 0.10329 0.82591 0.15788 0.0
H1828 H 0.18615 0.87021 0.1517 0.0
H1829 H 0.20687 0.884 0.116 0.0
C1830 C 0.67627 0.93391 0.61129 0.0
C1831 C 0.71159 0.9392 0.60456 0.0
C1832 C 0.71706 0.99004 0.64586 0.0
C1833 C 0.68257 0.9829 0.65502 0.0
N1834 N 0.63375 0.94085 0.65325 0.0
N1835 N 0.76768 0.96704 0.62247 0.0
C1836 C 0.66335 0.95279 0.63962 0.0
C1837 C 0.73269 0.96543 0.62432 0.0
N1838 N 0.65481 0.91107 0.59053 0.0
N1839 N 0.73422 0.02127 0.6556 0.0
H1840 H 0.77995 0.94965 0.60678 0.0
H1841 H 0.78455 0.98369 0.63872 0.0
H1842 H 0.72278 0.04119 0.66867 0.0
H1843 H 0.75823 0.02884 0.64706 0.0
H1844 H 0.62809 0.909 0.59191 0.0
H1845 H 0.66356 0.89614 0.57026 0.0
H1846 H 0.62036 0.91741 0.64484 0.0
H1847 H 0.62511 0.95207 0.67576 0.0
C1848 C 0.85289 0.95489 0.38424 0.0
C1849 C 0.83249 0.9618 0.35414 0.0
C1850 C 0.78013 0.94066 0.3807 0.0
C1851 C 0.80082 0.93124 0.40934 0.0
N1852 N 0.85705 0.92417 0.43656 0.0
N1853 N 0.77738 0.95349 0.32096 0.0
C1854 C 0.83731 0.93656 0.41044 0.0
C1855 C 0.79626 0.9527 0.35166 0.0
N1856 N 0.88669 0.96749 0.38872 0.0
N1857 N 0.74492 0.93836 0.38124 0.0
H1858 H 0.78814 0.96095 0.29875 0.0
H1859 H 0.75185 0.94344 0.31659 0.0
H1860 H 0.73188 0.92764 0.40102 0.0
H1861 H 0.72871 0.94922 0.36321 0.0
H1862 H 0.90189 0.96638 0.41158 0.0
H1863 H 0.89875 0.98208 0.37081 0.0
H1864 H 0.88383 0.92403 0.43694 0.0
H1865 H 0.84643 0.91135 0.45652 0.0
C1866 C 0.8136 0.05271 0.11272 0.0
C1867 C 0.80624 0.08813 0.11374 0.0
C1868 C 0.84458 0.09853 0.16666 0.0
C1869 C 0.84793 0.06264 0.1683 0.0
N1870 N 0.82975 1.00472 0.14536 0.0
N1871 N 0.80923 0.14303 0.14678 0.0
C1872 C 0.83074 0.03945 0.14204 0.0
C1873 C 0.82009 0.11051 0.14229 0.0
N1874 N 0.80628 0.03198 0.08321 0.0
N1875 N 0.86623 0.12138 0.18717 0.0
H1876 H 0.79017 0.15231 0.13044 0.0
H1877 H 0.81633 0.15927 0.16878 0.0
H1878 H 0.88661 0.11317 0.20249 0.0
H1879 H 0.8669 0.148 0.18536 0.0
H1880 H 0.81438 1.00708 0.08006 0.0
H1881 H 0.79554 0.04081 0.06064 0.0
H1882 H 0.81424 0.98694 0.12899 0.0
H1883 H 0.8418 0.99395 0.16632 0.0
C1884 C 0.68197 0.11185 0.85598 0.0
C1885 C 0.65339 0.08696 0.85471 0.0
C1886 C 0.65573 0.09715 0.91826 0.0
C1887 C 0.69006 0.11258 0.91872 0.0
N1888 N 0.73803 0.12644 0.88418 0.0
N1889 N 0.61102 0.05797 0.88886 0.0
C1890 C 0.70384 0.11774 0.8865 0.0
C1891 C 0.6396 0.07993 0.88704 0.0
N1892 N 0.68724 0.13159 0.82894 0.0
N1893 N 0.63726 0.10136 0.94664 0.0
H1894 H 0.59391 0.04938 0.86808 0.0
H1895 H 0.60418 0.04838 0.91206 0.0
H1896 H 0.64638 0.11769 0.96802 0.0
H1897 H 0.61127 0.09295 0.9469 0.0
H1898 H 0.70734 0.15087 0.82966 0.0
H1899 H 0.66823 0.13239 0.80889 0.0
H1900 H 0.74874 0.12855 0.86046 0.0
H1901 H 0.7559 0.12637 0.90516 0.0
C1902 C 0.62349 0.72981 0.95677 0.0
C1903 C 0.60334 0.70802 0.93138 0.0
C1904 C 0.63774 0.65996 0.94717 0.0
C1905 C 0.65338 0.68007 0.97661 0.0
N1906 N 0.65424 0.73285 0.01302 0.0
N1907 N 0.58827 0.65045 0.90579 0.0
C1908 C 0.64465 0.71483 0.98225 0.0
C1909 C 0.60949 0.67248 0.92768 0.0
N1910 N 0.62184 0.76476 0.9572 0.0
N1911 N 0.651 0.62987 0.93642 0.0
H1912 H 0.568 0.65874 0.8904 0.0
H1913 H 0.58932 0.62373 0.90495 0.0
H1914 H 0.67347 0.62138 0.94798 0.0
H1915 H 0.64233 0.61577 0.91347 0.0
H1916 H 0.63841 0.78197 0.97316 0.0
H1917 H 0.60594 0.77661 0.93963 0.0
H1918 H 0.64667 0.75748 0.01934 0.0
H1919 H 0.66601 0.72162 0.03389 0.0
C1920 C 0.05671 0.11303 0.80993 0.0
C1921 C 0.09186 0.11424 0.80147 0.0
C1922 C 0.10226 0.16976 0.83549 0.0
C1923 C 0.06646 0.17068 0.84019 0.0
N1924 N 1.00844 0.14534 0.82598 0.0
N1925 N 0.14597 0.14823 0.80009 0.0
C1926 C 0.04331 0.14292 0.82572 0.0
C1927 C 0.11398 0.144 0.81242 0.0
N1928 N 0.03642 0.0829 0.80484 0.0
N1929 N 0.12538 0.1924 0.85458 0.0
H1930 H 0.15503 0.13068 0.78205 0.0
H1931 H 0.16185 0.17092 0.80483 0.0
H1932 H 0.11768 0.20928 0.87392 0.0
H1933 H 0.15205 0.19123 0.85443 0.0
H1934 H 0.01192 0.07966 0.81399 0.0
H1935 H 0.04527 0.06012 0.79467 0.0
H1936 H 0.9905 0.12765 0.81224 0.0
H1937 H 0.99739 0.16661 0.8371 0.0
C1938 C 0.8792 0.27264 0.44317 0.0
C1939 C 0.9069 0.29327 0.43156 0.0
C1940 C 0.88218 0.3455 0.45505 0.0
C1941 C 0.85275 0.32509 0.46388 0.0
N1942 N 0.82032 0.2695 0.45915 0.0
N1943 N 0.93292 0.34943 0.42191 0.0
C1944 C 0.85053 0.28869 0.45617 0.0
C1945 C 0.90771 0.32978 0.43595 0.0
N1946 N 0.88026 0.23754 0.44196 0.0
N1947 N 0.88668 0.37955 0.4665 0.0
H1948 H 0.9525 0.33879 0.40861 0.0
H1949 H 0.93288 0.3761 0.42103 0.0
H1950 H 0.86931 0.3917 0.48162 0.0
H1951 H 0.90918 0.39497 0.46395 0.0
H1952 H 0.86318 0.22152 0.45429 0.0
H1953 H 0.89963 0.22449 0.43061 0.0
H1954 H 0.81592 0.24372 0.45009 0.0
H1955 H 0.79837 0.28005 0.46755 0.0
C1956 C 0.59967 0.92407 0.86649 0.0
C1957 C 0.59924 0.9284 0.83047 0.0
C1958 C 0.57069 0.8703 0.81921 0.0
C1959 C 0.57413 0.86421 0.85488 0.0
N1960 N 0.60013 0.88364 0.91144 0.0
N1961 N 0.59609 0.90007 0.77353 0.0
C1962 C 0.59113 0.89063 0.87826 0.0
C1963 C 0.58834 0.8998 0.80713 0.0
N1964 N 0.60682 0.95195 0.88958 0.0
N1965 N 0.5486 0.84961 0.79697 0.0
H1966 H 0.61247 0.91958 0.76507 0.0
H1967 H 0.5906 0.8788 0.75589 0.0
H1968 H 0.53211 0.83026 0.80525 0.0
H1969 H 0.54342 0.85483 0.77128 0.0
H1970 H 0.60395 0.95087 0.9159 0.0
H1971 H 0.61259 0.97681 0.88214 0.0
H1972 H 0.61525 0.90094 0.92866 0.0
H1973 H 0.59574 0.85924 0.9206 0.0
C1974 C 0.94051 0.16893 0.32522 0.0
C1975 C 0.96677 0.16252 0.35061 0.0
C1976 C 0.95048 0.10015 0.34022 0.0
C1977 C 0.92823 0.10645 0.31122 0.0
N1978 N 0.90523 0.1475 0.27384 0.0
N1979 N 0.99965 0.12117 0.37925 0.0
C1980 C 0.92424 0.14107 0.30306 0.0
C1981 C 0.97254 0.12783 0.35728 0.0
N1982 N 0.93009 0.20154 0.323 0.0
N1983 N 0.95004 0.06786 0.35207 0.0
H1984 H 0.01607 0.14075 0.39205 0.0
H1985 H 1.00751 0.09644 0.38239 0.0
H1986 H 0.93431 0.04703 0.34036 0.0
H1987 H 0.96307 0.06242 0.37509 0.0
H1988 H 0.90861 0.20725 0.30757 0.0
H1989 H 0.94111 0.22248 0.33889 0.0
H1990 H 0.90461 0.17187 0.26431 0.0
H1991 H 0.89219 0.12785 0.25782 0.0
C1992 C 0.6083 0.12617 0.6807 0.0
C1993 C 0.59649 0.11361 0.71209 0.0
C1994 C 0.54713 0.14878 0.70383 0.0
C1995 C 0.5623 0.1673 0.67776 0.0
N1996 N 0.61474 0.17673 0.64784 0.0
N1997 N 0.562 0.12943 0.75949 0.0
C1998 C 0.59515 0.15703 0.66796 0.0
C1999 C 0.56804 0.12976 0.72552 0.0
N2000 N 0.63054 0.10856 0.6618 0.0
N2001 N 0.51246 0.1473 0.70696 0.0
H2002 H 0.58087 0.12276 0.7776 0.0
H2003 H 0.54151 0.14166 0.76973 0.0
H2004 H 0.49561 0.15502 0.68747 0.0
H2005 H 0.50086 0.13321 0.72557 0.0
H2006 H 0.63738 0.11594 0.63775 0.0
H2007 H 0.63841 0.08444 0.66731 0.0
H2008 H 0.63982 0.17121 0.64265 0.0
H2009 H 0.6081 0.20057 0.64003 0.0
C2010 C 0.12618 0.36209 0.96238 0.0
C2011 C 0.16134 0.35734 0.95682 0.0
C2012 C 0.14231 0.3106 0.91272 0.0
C2013 C 0.10721 0.31679 0.91674 0.0
N2014 N 0.06653 0.35504 0.93894 0.0
N2015 N 0.20191 0.33352 0.91946 0.0
C2016 C 0.09941 0.34472 0.93947 0.0
C2017 C 0.16907 0.33362 0.92969 0.0
N2018 N 0.11815 0.3822 0.99022 0.0
N2019 N 0.15029 0.28217 0.89345 0.0
H2020 H 0.22215 0.34968 0.93148 0.0
H2021 H 0.20838 0.31951 0.8974 0.0
H2022 H 0.13142 0.26512 0.8805 0.0
H2023 H 0.17527 0.27415 0.89274 0.0
H2024 H 0.09306 0.38369 0.99777 0.0
H2025 H 0.13703 0.39499 1.00739 0.0
H2026 H 0.06001 0.37732 0.95251 0.0
H2027 H 0.04632 0.34291 0.92266 0.0
C2028 C 0.39414 0.6783 0.39814 0.0
C2029 C 0.41922 0.69674 0.4219 0.0
C2030 C 0.38244 0.68268 0.46871 0.0
C2031 C 0.35462 0.67102 0.44465 0.0
N2032 N 0.33417 0.65797 0.38503 0.0
N2033 N 0.43283 0.7221 0.48002 0.0
C2034 C 0.36058 0.6686 0.40891 0.0
C2035 C 0.41232 0.7003 0.45733 0.0
N2036 N 0.40272 0.66901 0.36553 0.0
N2037 N 0.38123 0.67511 0.5023 0.0
H2038 H 0.45335 0.73762 0.47249 0.0
H2039 H 0.42686 0.72763 0.5054 0.0
H2040 H 0.36185 0.65807 0.51 0.0
H2041 H 0.40185 0.68111 0.52067 0.0
H2042 H 0.38678 0.65274 0.34806 0.0
H2043 H 0.42728 0.67458 0.35714 0.0
H2044 H 0.3357 0.66004 0.35864 0.0
H2045 H 0.31004 0.64879 0.39174 0.0
C2046 C 0.84258 0.55194 0.8783 0.0
C2047 C 0.85828 0.57771 0.85922 0.0
C2048 C 0.84582 0.6211 0.9047 0.0
C2049 C 0.8242 0.59602 0.91987 0.0
N2050 N 0.7965 0.53812 0.9146 0.0
N2051 N 0.87246 0.63811 0.85308 0.0
C2052 C 0.82118 0.56149 0.90502 0.0
C2053 C 0.85937 0.61272 0.87215 0.0
N2054 N 0.84937 0.51834 0.87198 0.0
N2055 N 0.85467 0.65246 0.92194 0.0
H2056 H 0.88303 0.63293 0.82953 0.0
H2057 H 0.87044 0.66426 0.8594 0.0
H2058 H 0.84707 0.6589 0.94657 0.0
H2059 H 0.87269 0.67051 0.91353 0.0
H2060 H 0.84038 0.49865 0.88674 0.0
H2061 H 0.86813 0.51138 0.85546 0.0
H2062 H 0.79173 0.51349 0.90235 0.0
H2063 H 0.77803 0.54465 0.9315 0.0
C2064 C 0.66571 0.59484 0.15118 0.0
C2065 C 0.67701 0.56287 0.16257 0.0
C2066 C 0.72589 0.57096 0.12668 0.0
C2067 C 0.71133 0.59816 0.10943 0.0
N2068 N 0.6596 0.62962 0.10203 0.0
N2069 N 0.70978 0.51496 0.14483 0.0
C2070 C 0.6789 0.6084 0.12063 0.0
C2071 C 0.70471 0.54919 0.14545 0.0
N2072 N 0.64376 0.61337 0.16956 0.0
N2073 N 0.76035 0.56684 0.12736 0.0
H2074 H 0.69069 0.49723 0.15186 0.0
H2075 H 0.72961 0.50439 0.13178 0.0
H2076 H 0.77762 0.58631 0.12022 0.0
H2077 H 0.77153 0.54736 0.14048 0.0
H2078 H 0.63745 0.63792 0.16331 0.0
H2079 H 0.63534 0.60665 0.19314 0.0
H2080 H 0.63477 0.63514 0.10815 0.0
H2081 H 0.66603 0.63811 0.07839 0.0
C2082 C 0.66342 0.43627 0.40619 0.0
C2083 C 0.69001 0.41313 0.40922 0.0
C2084 C 0.69777 0.41576 0.347 0.0
C2085 C 0.67347 0.44132 0.34476 0.0
N2086 N 0.63782 0.48052 0.37385 0.0
N2087 N 0.73684 0.38562 0.38358 0.0
C2088 C 0.65746 0.45275 0.3748 0.0
C2089 C 0.70828 0.40403 0.37986 0.0
N2090 N 0.64306 0.44176 0.43302 0.0
N2091 N 0.71011 0.40182 0.31755 0.0
H2092 H 0.74572 0.37678 0.40702 0.0
H2093 H 0.75356 0.3817 0.36414 0.0
H2094 H 0.70327 0.40973 0.29312 0.0
H2095 H 0.72475 0.3804 0.31698 0.0
H2096 H 0.62098 0.4554 0.43121 0.0
H2097 H 0.64634 0.42994 0.45618 0.0
H2098 H 0.62848 0.49246 0.39568 0.0
H2099 H 0.63359 0.49383 0.35175 0.0
C2100 C 0.86746 0.44408 0.63464 0.0
C2101 C 0.85347 0.47168 0.65432 0.0
C2102 C 0.79676 0.45349 0.62507 0.0
C2103 C 0.81065 0.42842 0.60284 0.0
N2104 N 0.86376 0.41185 0.57914 0.0
N2105 N 0.80894 0.51194 0.64762 0.0
C2106 C 0.84731 0.42683 0.60555 0.0
C2107 C 0.81933 0.47935 0.6435 0.0
N2108 N 0.90016 0.43472 0.64188 0.0
N2109 N 0.76232 0.45275 0.62965 0.0
H2110 H 0.82664 0.53309 0.65355 0.0
H2111 H 0.78433 0.51817 0.63891 0.0
H2112 H 0.74531 0.43189 0.62061 0.0
H2113 H 0.7521 0.47047 0.64674 0.0
H2114 H 0.90864 0.41164 0.6316 0.0
H2115 H 0.91886 0.44932 0.65767 0.0
H2116 H 0.89058 0.41273 0.57889 0.0
H2117 H 0.85133 0.40328 0.55535 0.0
C2118 C 0.44586 0.13478 0.23395 0.0
C2119 C 0.43035 0.10695 0.2116 0.0
C2120 C 0.45816 0.13209 0.16303 0.0
C2121 C 0.47019 0.16197 0.18449 0.0
N2122 N 0.46885 0.19419 0.23955 0.0
N2123 N 0.41682 0.0824 0.1535 0.0
C2124 C 0.4623 0.16397 0.21976 0.0
C2125 C 0.43509 0.10662 0.17572 0.0
N2126 N 0.44645 0.13285 0.26889 0.0
N2127 N 0.4699 0.12727 0.13088 0.0
H2128 H 0.39924 0.06381 0.16175 0.0
H2129 H 0.41646 0.08289 0.12678 0.0
H2130 H 0.48785 0.14456 0.12114 0.0
H2131 H 0.46477 0.10445 0.11538 0.0
H2132 H 0.46104 0.15044 0.28625 0.0
H2133 H 0.43512 0.11198 0.28051 0.0
H2134 H 0.46001 0.19817 0.26406 0.0
H2135 H 0.48014 0.21634 0.23035 0.0
C2136 C 0.08484 0.88657 0.63827 0.0
C2137 C 0.0904 0.85401 0.65237 0.0
C2138 C 0.12133 0.88533 0.70306 0.0
C2139 C 0.11731 0.91764 0.68901 0.0
N2140 N 0.10798 0.94578 0.63615 0.0
N2141 N 0.13315 0.82698 0.68725 0.0
C2142 C 0.10263 0.91743 0.65454 0.0
C2143 C 0.11459 0.85469 0.68143 0.0
N2144 N 0.06365 0.88899 0.60931 0.0
N2145 N 0.12994 0.88312 0.73722 0.0
H2146 H 0.13376 0.80689 0.66835 0.0
H2147 H 0.152 0.82713 0.70763 0.0
H2148 H 0.13117 0.90441 0.75481 0.0
H2149 H 0.13102 0.85944 0.74826 0.0
H2150 H 0.05479 0.91246 0.60241 0.0
H2151 H 0.05515 0.86853 0.59183 0.0
H2152 H 0.10029 0.94616 0.61004 0.0
H2153 H 0.12441 0.96703 0.64563 0.0
C2154 C 0.46096 0.88586 0.35079 0.0
C2155 C 0.46941 0.85693 0.32964 0.0
C2156 C 0.44839 0.88471 0.27809 0.0
C2157 C 0.43713 0.91195 0.2994 0.0
N2158 N 0.42826 0.93672 0.35614 0.0
N2159 N 0.46326 0.82563 0.27364 0.0
C2160 C 0.44187 0.91187 0.33583 0.0
C2161 C 0.46114 0.85554 0.29339 0.0
N2162 N 0.47271 0.88943 0.38479 0.0
N2163 N 0.44708 0.88662 0.24308 0.0
H2164 H 0.47113 0.80326 0.28377 0.0
H2165 H 0.45382 0.8219 0.24792 0.0
H2166 H 0.43619 0.90652 0.23049 0.0
H2167 H 0.45909 0.86972 0.2267 0.0
H2168 H 0.47046 0.91156 0.40071 0.0
H2169 H 0.48769 0.8716 0.39643 0.0
H2170 H 0.42758 0.936 0.38276 0.0
H2171 H 0.41521 0.95679 0.3461 0.0
C2172 C 0.85568 0.67878 0.11327 0.0
C2173 C 0.85413 0.65976 0.08077 0.0
C2174 C 0.91732 0.6641 0.0853 0.0
C2175 C 0.91866 0.69036 0.11284 0.0
N2176 N 0.88347 0.72886 0.14537 0.0
N2177 N 0.88636 0.64348 0.03162 0.0
C2178 C 0.88629 0.69952 0.12493 0.0
C2179 C 0.88573 0.65503 0.0654 0.0
N2180 N 0.82848 0.67661 0.13358 0.0
N2181 N 0.94533 0.64616 0.07899 0.0
H2182 H 0.8644 0.63978 0.01465 0.0
H2183 H 0.90943 0.64209 0.01953 0.0
H2184 H 0.96689 0.64756 0.0963 0.0
H2185 H 0.94453 0.62587 0.06004 0.0
H2186 H 0.82955 0.68871 0.15835 0.0
H2187 H 0.8072 0.65897 0.1276 0.0
H2188 H 0.85963 0.73651 0.15256 0.0
H2189 H 0.90321 0.74815 0.15069 0.0
C2190 C 0.63142 0.33133 0.6114 0.0
C2191 C 0.61597 0.30115 0.5923 0.0
C2192 C 0.64643 0.31908 0.54207 0.0
C2193 C 0.66632 0.34533 0.56302 0.0
N2194 N 0.68074 0.37322 0.61967 0.0
N2195 N 0.61549 0.26293 0.54079 0.0
C2196 C 0.65973 0.35046 0.59833 0.0
C2197 C 0.62501 0.29425 0.5578 0.0
N2198 N 0.61801 0.34296 0.64113 0.0
N2199 N 0.64843 0.31735 0.50716 0.0
H2200 H 0.60319 0.24265 0.5525 0.0
H2201 H 0.62358 0.25563 0.51659 0.0
H2202 H 0.6643 0.33466 0.49491 0.0
H2203 H 0.63213 0.30072 0.49033 0.0
H2204 H 0.62649 0.36636 0.6545 0.0
H2205 H 0.59563 0.33147 0.65 0.0
H2206 H 0.67942 0.37523 0.64635 0.0
H2207 H 0.70114 0.38815 0.61088 0.0
C2208 C 0.2258 0.44287 0.13163 0.0
C2209 C 0.20303 0.42828 0.1037 0.0
C2210 C 0.15454 0.45404 0.13077 0.0
C2211 C 0.1766 0.46583 0.1603 0.0
N2212 N 0.23208 0.46353 0.19168 0.0
N2213 N 0.14453 0.41263 0.08144 0.0
C2214 C 0.21196 0.45812 0.16152 0.0
C2215 C 0.16702 0.43179 0.10467 0.0
N2216 N 0.26074 0.44337 0.12934 0.0
N2217 N 0.12199 0.46509 0.12687 0.0
H2218 H 0.15289 0.3944 0.06373 0.0
H2219 H 0.1178 0.41173 0.08256 0.0
H2220 H 0.11225 0.4824 0.14467 0.0
H2221 H 0.10606 0.45996 0.1043 0.0
H2222 H 0.27838 0.45739 0.14711 0.0
H2223 H 0.27214 0.43244 0.10818 0.0
H2224 H 0.25682 0.45501 0.19496 0.0
H2225 H 0.22281 0.47318 0.21446 0.0
C2226 C 0.34569 0.45321 0.87694 0.0
C2227 C 0.33496 0.48539 0.86661 0.0
C2228 C 0.28359 0.47795 0.89918 0.0
C2229 C 0.29608 0.4478 0.91272 0.0
N2230 N 0.34335 0.4111 0.92008 0.0
N2231 N 0.2988 0.53259 0.87606 0.0
C2232 C 0.32841 0.4366 0.90322 0.0
C2233 C 0.3055 0.49907 0.88034 0.0
N2234 N 0.37117 0.43763 0.86071 0.0
N2235 N 0.25017 0.48559 0.90267 0.0
H2236 H 0.3152 0.54939 0.86374 0.0
H2237 H 0.27924 0.54463 0.8881 0.0
H2238 H 0.23238 0.46949 0.91411 0.0
H2239 H 0.23907 0.50569 0.89061 0.0
H2240 H 0.37732 0.4125 0.86473 0.0
H2241 H 0.38408 0.44853 0.841 0.0
H2242 H 0.36839 0.40439 0.91642 0.0
H2243 H 0.33218 0.399 0.94015 0.0
C2244 C 0.29075 0.55729 0.62554 0.0
C2245 C 0.29822 0.59171 0.61637 0.0
C2246 C 0.34781 0.59718 0.65955 0.0
C2247 C 0.34223 0.56188 0.66603 0.0
N2248 N 0.31341 0.50627 0.64847 0.0
N2249 N 0.34134 0.6396 0.61744 0.0
C2250 C 0.31554 0.54121 0.64651 0.0
C2251 C 0.32893 0.61035 0.63131 0.0
N2252 N 0.25906 0.54069 0.61654 0.0
N2253 N 0.37056 0.61847 0.68068 0.0
H2254 H 0.33026 0.64815 0.59479 0.0
H2255 H 0.36505 0.65256 0.62575 0.0
H2256 H 0.38504 0.60982 0.70147 0.0
H2257 H 0.37286 0.64514 0.67911 0.0
H2258 H 0.25143 0.51668 0.62501 0.0
H2259 H 0.23889 0.5526 0.60432 0.0
H2260 H 0.29626 0.48964 0.63251 0.0
H2261 H 0.33097 0.49385 0.66386 0.0
C2262 C 0.151 0.57978 0.38732 0.0
C2263 C 0.16168 0.58788 0.35408 0.0
C2264 C 0.2078 0.62794 0.38408 0.0
C2265 C 0.19524 0.62139 0.41679 0.0
N2266 N 0.1435 0.60483 0.44435 0.0
N2267 N 0.19044 0.63341 0.32447 0.0
C2268 C 0.16316 0.60175 0.41675 0.0
C2269 C 0.18724 0.61599 0.35344 0.0
N2270 N 0.13105 0.55056 0.39214 0.0
N2271 N 0.2391 0.64512 0.38123 0.0
H2272 H 0.17248 0.62953 0.30353 0.0
H2273 H 0.20706 0.65548 0.32362 0.0
H2274 H 0.25504 0.65619 0.40187 0.0
H2275 H 0.25026 0.64637 0.35767 0.0
H2276 H 0.12526 0.54361 0.41666 0.0
H2277 H 0.12443 0.53094 0.37322 0.0
H2278 H 0.11889 0.59238 0.44448 0.0
H2279 H 0.1498 0.62356 0.46459 0.0
loop_
_geom_bond_atom_site_label_1
_geom_bond_atom_site_label_2
_geom_bond_distance
_geom_bond_site_symmetry_2
_ccdc_geom_bond_type
Co0 O2 2.143 . S
Co0 O8 2.074 1_655 S
Co0 O11 2.093 . S
Co0 O24 2.097 . S
Co0 N41 2.151 1_655 S
Co0 N49 2.214 . S
Co1 O2 2.160 1_455 S
Co1 O7 2.058 . S
Co1 O17 2.057 . S
Co1 O32 2.037 1_455 S
Co1 N36 2.145 . S
Co1 N57 2.257 1_455 S
O2 Co0 2.143 . S
O2 Co1 2.160 1_655 S
C3 O4 1.278 . S
C3 O11 1.224 . S
O4 C3 1.278 . S
C5 O6 1.245 . S
C5 O17 1.232 . S
O6 C5 1.245 . S
O7 Co1 2.058 . S
O7 C33 1.269 . S
O8 Co0 2.074 1_455 S
O8 C33 1.257 . S
H9 C34 0.930 . S
H10 C40 0.930 . S
O11 Co0 2.093 . S
O11 C3 1.224 . S
H12 C44 0.929 . S
H13 C46 0.930 . S
H14 C47 0.930 . S
H15 C45 0.929 . S
H16 C48 0.928 . S
O17 Co1 2.057 . S
O17 C5 1.232 . S
H18 C37 0.929 . S
H19 C38 0.929 . S
H20 C50 0.931 . S
H21 C42 0.929 . S
H22 C51 0.930 . S
H23 C43 0.931 . S
O24 Co0 2.097 . S
O24 C52 1.214 . S
H25 C53 0.929 . S
H26 C54 0.929 . S
H27 C55 0.930 . S
H28 C56 0.929 . S
H29 C58 0.930 . S
H30 C35 0.930 . S
H31 C39 0.930 . S
O32 Co1 2.037 1_655 S
O32 C52 1.234 . S
C33 O7 1.269 . S
C33 O8 1.257 . S
C34 H9 0.930 . S
C34 C37 1.388 . S
C34 C39 1.418 . S
C35 H30 0.930 . S
C35 C38 1.404 . S
C35 C39 1.353 . S
N36 Co1 2.145 . S
N36 C37 1.397 . S
N36 C38 1.334 . S
C37 H18 0.929 . S
C37 C34 1.388 . S
C37 N36 1.397 . S
C38 H19 0.929 . S
C38 C35 1.404 . S
C38 N36 1.334 . S
C39 H31 0.930 . S
C39 C34 1.418 . S
C39 C35 1.353 . S
C40 H10 0.930 . S
C40 N41 1.330 1_655 S
C40 C42 1.446 1_655 S
N41 Co0 2.151 1_455 S
N41 C40 1.330 1_455 S
N41 C45 1.418 . S
C42 H21 0.929 . S
C42 C40 1.446 1_455 S
C42 C43 1.332 . S
C43 H23 0.931 . S
C43 C42 1.332 . S
C43 C44 1.267 . S
C44 H12 0.929 . S
C44 C43 1.267 . S
C44 C45 1.251 . S
C45 H15 0.929 . S
C45 N41 1.418 . S
C45 C44 1.251 . S
C46 H13 0.930 . S
C46 C48 1.406 . S
C46 C51 1.261 . S
C47 H14 0.930 . S
C47 N49 1.325 . S
C47 C50 1.357 . S
C48 H16 0.928 . S
C48 C46 1.406 . S
C48 N49 1.261 . S
N49 Co0 2.214 . S
N49 C47 1.325 . S
N49 C48 1.261 . S
C50 H20 0.931 . S
C50 C47 1.357 . S
C50 C51 1.312 . S
C51 H22 0.930 . S
C51 C46 1.261 . S
C51 C50 1.312 . S
C52 O24 1.214 . S
C52 O32 1.234 . S
C53 H25 0.929 . S
C53 C56 1.391 . S
C53 C58 1.391 . S
C54 H26 0.929 . S
C54 C55 1.390 . S
C54 N57 1.391 . S
C55 H27 0.930 . S
C55 C54 1.390 . S
C55 C56 1.392 . S
C56 H28 0.929 . S
C56 C53 1.391 . S
C56 C55 1.392 . S
N57 Co1 2.257 1_655 S
N57 C54 1.391 . S
N57 C58 1.388 . S
C58 H29 0.930 . S
C58 C53 1.391 . S
C58 N57 1.388 . S
Co59 O61 2.143 1_455 S
Co59 O67 2.074 . S
Co59 O70 2.093 1_455 S
Co59 O83 2.097 . S
Co59 N100 2.151 1_455 S
Co59 N108 2.214 . S
Co60 O61 2.160 1_455 S
Co60 O66 2.058 . S
Co60 O76 2.057 1_455 S
Co60 O91 2.037 . S
Co60 N95 2.145 . S
Co60 N116 2.257 1_455 S
O61 Co59 2.143 1_655 S
O61 Co60 2.160 1_655 S
C62 O63 1.278 . S
C62 O70 1.224 . S
O63 C62 1.278 . S
C64 O65 1.245 . S
C64 O76 1.232 . S
O65 C64 1.245 . S
O66 Co60 2.058 . S
O66 C92 1.269 . S
O67 Co59 2.074 . S
O67 C92 1.257 . S
H68 C93 0.930 . S
H69 C99 0.930 . S
O70 Co59 2.093 1_655 S
O70 C62 1.224 . S
H71 C103 0.929 . S
H72 C105 0.930 . S
H73 C106 0.930 . S
H74 C104 0.929 . S
H75 C107 0.928 1_655 S
O76 Co60 2.057 1_655 S
O76 C64 1.232 . S
H77 C96 0.929 . S
H78 C97 0.929 . S
H79 C109 0.931 . S
H80 C101 0.929 . S
H81 C110 0.930 . S
H82 C102 0.931 . S
O83 Co59 2.097 . S
O83 C111 1.214 . S
H84 C112 0.929 . S
H85 C113 0.959 . S
H86 C114 0.930 . S
H87 C115 0.929 . S
H88 C117 0.930 . S
H89 C94 0.930 . S
H90 C98 0.930 . S
O91 Co60 2.037 . S
O91 C111 1.234 . S
C92 O66 1.269 . S
C92 O67 1.257 . S
C93 H68 0.930 . S
C93 C96 1.388 . S
C93 C98 1.418 . S
C94 H89 0.930 . S
C94 C97 1.404 . S
C94 C98 1.353 . S
N95 Co60 2.145 . S
N95 C96 1.397 . S
N95 C97 1.334 . S
C96 H77 0.929 . S
C96 C93 1.388 . S
C96 N95 1.397 . S
C97 H78 0.929 . S
C97 C94 1.404 . S
C97 N95 1.334 . S
C98 H90 0.930 . S
C98 C93 1.418 . S
C98 C94 1.353 . S
C99 H69 0.930 . S
C99 N100 1.330 . S
C99 C101 1.446 . S
N100 Co59 2.151 1_655 S
N100 C99 1.330 . S
N100 C104 1.418 1_655 S
C101 H80 0.929 . S
C101 C99 1.446 . S
C101 C102 1.332 . S
C102 H82 0.931 . S
C102 C101 1.332 . S
C102 C103 1.267 1_655 S
C103 H71 0.929 . S
C103 C102 1.267 1_455 S
C103 C104 1.251 . S
C104 H74 0.929 . S
C104 N100 1.418 1_455 S
C104 C103 1.251 . S
C105 H72 0.930 . S
C105 C107 1.406 . S
C105 C110 1.261 . S
C106 H73 0.930 . S
C106 N108 1.325 . S
C106 C109 1.357 . S
C107 H75 0.928 1_455 S
C107 C105 1.406 . S
C107 N108 1.261 . S
N108 Co59 2.214 . S
N108 C106 1.325 . S
N108 C107 1.261 . S
C109 H79 0.931 . S
C109 C106 1.357 . S
C109 C110 1.312 . S
C110 H81 0.930 . S
C110 C105 1.261 . S
C110 C109 1.312 . S
C111 O83 1.214 . S
C111 O91 1.234 . S
C112 H84 0.929 . S
C112 C115 1.391 . S
C112 C117 1.391 . S
C113 H85 0.959 . S
C113 C114 1.369 1_455 S
C113 N116 1.383 1_455 S
C114 H86 0.930 . S
C114 C113 1.369 1_655 S
C114 C115 1.392 . S
C115 H87 0.929 . S
C115 C112 1.391 . S
C115 C114 1.392 . S
N116 Co60 2.257 1_655 S
N116 C113 1.383 1_655 S
N116 C117 1.388 . S
C117 H88 0.930 . S
C117 C112 1.391 . S
C117 N116 1.388 . S
Co118 O120 2.143 . S
Co118 O126 2.074 . S
Co118 O129 2.093 . S
Co118 O142 2.097 . S
Co118 N159 2.151 . S
Co118 N167 2.214 . S
Co119 O120 2.160 . S
Co119 O125 2.058 . S
Co119 O135 2.057 . S
Co119 O150 2.037 . S
Co119 N154 2.145 . S
Co119 N175 2.257 . S
O120 Co118 2.143 . S
O120 Co119 2.160 . S
C121 O122 1.278 . S
C121 O129 1.224 . S
O122 C121 1.278 . S
C123 O124 1.245 . S
C123 O135 1.232 . S
O124 C123 1.245 . S
O125 Co119 2.058 . S
O125 C151 1.269 . S
O126 Co118 2.074 . S
O126 C151 1.257 . S
H127 C152 0.930 . S
H128 C158 0.930 . S
O129 Co118 2.093 . S
O129 C121 1.224 . S
H130 C162 0.929 . S
H131 C164 0.930 . S
H132 C165 0.930 . S
H133 C163 0.929 . S
H134 C166 0.928 . S
O135 Co119 2.057 . S
O135 C123 1.232 . S
H136 C155 0.929 . S
H137 C156 0.929 . S
H138 C168 0.931 . S
H139 C160 0.928 1_554 S
H140 C169 0.930 . S
H141 C161 0.931 . S
O142 Co118 2.097 . S
O142 C170 1.214 . S
H143 C171 0.929 . S
H144 C172 0.929 . S
H145 C173 0.930 . S
H146 C174 0.929 . S
H147 C176 0.930 . S
H148 C153 0.930 . S
H149 C157 0.930 . S
O150 Co119 2.037 . S
O150 C170 1.234 . S
C151 O125 1.269 . S
C151 O126 1.257 . S
C152 H127 0.930 . S
C152 C155 1.388 . S
C152 C157 1.418 . S
C153 H148 0.930 . S
C153 C156 1.404 . S
C153 C157 1.353 . S
N154 Co119 2.145 . S
N154 C155 1.397 . S
N154 C156 1.334 . S
C155 H136 0.929 . S
C155 C152 1.388 . S
C155 N154 1.397 . S
C156 H137 0.929 . S
C156 C153 1.404 . S
C156 N154 1.334 . S
C157 H149 0.930 . S
C157 C152 1.418 . S
C157 C153 1.353 . S
C158 H128 0.930 . S
C158 N159 1.330 . S
C158 C160 1.462 . S
N159 Co118 2.151 . S
N159 C158 1.330 . S
N159 C163 1.418 . S
C160 H139 0.928 1_556 S
C160 C158 1.462 . S
C160 C161 1.318 1_556 S
C161 H141 0.931 . S
C161 C160 1.318 1_554 S
C161 C162 1.267 . S
C162 H130 0.929 . S
C162 C161 1.267 . S
C162 C163 1.251 1_554 S
C163 H133 0.929 . S
C163 N159 1.418 . S
C163 C162 1.251 1_556 S
C164 H131 0.930 . S
C164 C166 1.406 1_554 S
C164 C169 1.261 . S
C165 H132 0.930 . S
C165 N167 1.325 . S
C165 C168 1.357 . S
C166 H134 0.928 . S
C166 C164 1.406 1_556 S
C166 N167 1.261 . S
N167 Co118 2.214 . S
N167 C165 1.325 . S
N167 C166 1.261 . S
C168 H138 0.931 . S
C168 C165 1.357 . S
C168 C169 1.312 1_556 S
C169 H140 0.930 . S
C169 C164 1.261 . S
C169 C168 1.312 1_554 S
C170 O142 1.214 . S
C170 O150 1.234 . S
C171 H143 0.929 . S
C171 C174 1.391 . S
C171 C176 1.391 . S
C172 H144 0.929 . S
C172 C173 1.390 . S
C172 N175 1.391 . S
C173 H145 0.930 . S
C173 C172 1.390 . S
C173 C174 1.392 . S
C174 H146 0.929 . S
C174 C171 1.391 . S
C174 C173 1.392 . S
N175 Co119 2.257 . S
N175 C172 1.391 . S
N175 C176 1.388 . S
C176 H147 0.930 . S
C176 C171 1.391 . S
C176 N175 1.388 . S
Co177 O179 2.143 . S
Co177 O185 2.074 . S
Co177 O188 2.093 . S
Co177 O201 2.097 . S
Co177 N218 2.151 . S
Co177 N226 2.214 . S
Co178 O179 2.160 . S
Co178 O184 2.058 . S
Co178 O194 2.057 . S
Co178 O209 2.037 . S
Co178 N213 2.145 . S
Co178 N234 2.257 . S
O179 Co177 2.143 . S
O179 Co178 2.160 . S
C180 O181 1.278 . S
C180 O188 1.224 . S
O181 C180 1.278 . S
C182 O183 1.245 . S
C182 O194 1.232 . S
O183 C182 1.245 . S
O184 Co178 2.058 . S
O184 C210 1.269 . S
O185 Co177 2.074 . S
O185 C210 1.257 . S
H186 C211 0.930 . S
H187 C217 0.930 . S
O188 Co177 2.093 . S
O188 C180 1.224 . S
H189 C221 0.929 . S
H190 C223 0.930 . S
H191 C224 0.930 . S
H192 C222 0.929 . S
H193 C225 0.928 . S
O194 Co178 2.057 . S
O194 C182 1.232 . S
H195 C214 0.929 . S
H196 C215 0.929 . S
H197 C227 0.931 . S
H198 C219 0.929 1_556 S
H199 C228 0.939 . S
H200 C220 0.931 . S
O201 Co177 2.097 . S
O201 C229 1.214 . S
H202 C230 0.929 . S
H203 C231 0.929 . S
H204 C232 0.930 . S
H205 C233 0.929 . S
H206 C235 0.930 . S
H207 C212 0.930 . S
H208 C216 0.930 . S
O209 Co178 2.037 . S
O209 C229 1.234 . S
C210 O184 1.269 . S
C210 O185 1.257 . S
C211 H186 0.930 . S
C211 C214 1.388 . S
C211 C216 1.418 . S
C212 H207 0.930 . S
C212 C215 1.404 . S
C212 C216 1.353 . S
N213 Co178 2.145 . S
N213 C214 1.397 . S
N213 C215 1.334 . S
C214 H195 0.929 . S
C214 C211 1.388 . S
C214 N213 1.397 . S
C215 H196 0.929 . S
C215 C212 1.404 . S
C215 N213 1.334 . S
C216 H208 0.930 . S
C216 C211 1.418 . S
C216 C212 1.353 . S
C217 H187 0.930 . S
C217 N218 1.330 . S
C217 C219 1.446 . S
N218 Co177 2.151 . S
N218 C217 1.330 . S
N218 C222 1.418 . S
C219 H198 0.929 1_554 S
C219 C217 1.446 . S
C219 C220 1.332 1_554 S
C220 H200 0.931 . S
C220 C219 1.332 1_556 S
C220 C221 1.267 . S
C221 H189 0.929 . S
C221 C220 1.267 . S
C221 C222 1.251 1_556 S
C222 H192 0.929 . S
C222 N218 1.418 . S
C222 C221 1.251 1_554 S
C223 H190 0.930 . S
C223 C225 1.406 1_556 S
C223 C228 1.263 . S
C224 H191 0.930 . S
C224 N226 1.325 . S
C224 C227 1.357 . S
C225 H193 0.928 . S
C225 C223 1.406 1_554 S
C225 N226 1.261 . S
N226 Co177 2.214 . S
N226 C224 1.325 . S
N226 C225 1.261 . S
C227 H197 0.931 . S
C227 C224 1.357 . S
C227 C228 1.301 1_554 S
C228 H199 0.939 . S
C228 C223 1.263 . S
C228 C227 1.301 1_556 S
C229 O201 1.214 . S
C229 O209 1.234 . S
C230 H202 0.929 . S
C230 C233 1.391 . S
C230 C235 1.391 . S
C231 H203 0.929 . S
C231 C232 1.390 . S
C231 N234 1.391 . S
C232 H204 0.930 . S
C232 C231 1.390 . S
C232 C233 1.392 . S
C233 H205 0.929 . S
C233 C230 1.391 . S
C233 C232 1.392 . S
N234 Co178 2.257 . S
N234 C231 1.391 . S
N234 C235 1.388 . S
C235 H206 0.930 . S
C235 C230 1.391 . S
C235 N234 1.388 . S
Co236 O238 2.143 . S
Co236 O244 2.074 1_455 S
Co236 O247 2.093 . S
Co236 O260 2.097 . S
Co236 N277 2.151 . S
Co236 N285 2.214 . S
Co237 O238 2.160 1_655 S
Co237 O243 2.058 . S
Co237 O253 2.057 . S
Co237 O268 2.037 1_655 S
Co237 N272 2.145 . S
Co237 N293 2.257 1_655 S
O238 Co236 2.143 . S
O238 Co237 2.160 1_455 S
C239 O240 1.278 . S
C239 O247 1.224 . S
O240 C239 1.278 . S
C241 O242 1.245 . S
C241 O253 1.232 . S
O242 C241 1.245 . S
O243 Co237 2.058 . S
O243 C269 1.269 . S
O244 Co236 2.074 1_655 S
O244 C269 1.257 . S
H245 C270 0.930 . S
H246 C276 0.930 . S
O247 Co236 2.093 . S
O247 C239 1.224 . S
H248 C280 0.929 1_556 S
H249 C282 0.930 1_556 S
H250 C283 0.930 . S
H251 C281 0.929 . S
H252 C284 0.928 . S
O253 Co237 2.057 . S
O253 C241 1.232 . S
H254 C273 0.929 . S
H255 C274 0.929 . S
H256 C286 0.931 . S
H257 C278 0.929 . S
H258 C287 0.930 1_556 S
H259 C279 0.931 . S
O260 Co236 2.097 . S
O260 C288 1.214 . S
H261 C289 0.929 . S
H262 C290 0.929 . S
H263 C291 0.930 . S
H264 C292 0.929 . S
H265 C294 0.930 . S
H266 C271 0.930 . S
H267 C275 0.930 . S
O268 Co237 2.037 1_455 S
O268 C288 1.234 . S
C269 O243 1.269 . S
C269 O244 1.257 . S
C270 H245 0.930 . S
C270 C273 1.388 . S
C270 C275 1.418 . S
C271 H266 0.930 . S
C271 C274 1.404 . S
C271 C275 1.353 . S
N272 Co237 2.145 . S
N272 C273 1.397 . S
N272 C274 1.334 . S
C273 H254 0.929 . S
C273 C270 1.388 . S
C273 N272 1.397 . S
C274 H255 0.929 . S
C274 C271 1.404 . S
C274 N272 1.334 . S
C275 H267 0.930 . S
C275 C270 1.418 . S
C275 C271 1.353 . S
C276 H246 0.930 . S
C276 N277 1.330 . S
C276 C278 1.446 . S
N277 Co236 2.151 . S
N277 C276 1.330 . S
N277 C281 1.418 1_455 S
C278 H257 0.929 . S
C278 C276 1.446 . S
C278 C279 1.332 1_454 S
C279 H259 0.931 . S
C279 C278 1.332 1_656 S
C279 C280 1.267 1_556 S
C280 H248 0.929 1_554 S
C280 C279 1.267 1_554 S
C280 C281 1.251 . S
C281 H251 0.929 . S
C281 N277 1.418 1_655 S
C281 C280 1.251 . S
C282 H249 0.930 1_554 S
C282 C284 1.406 . S
C282 C287 1.261 . S
C283 H250 0.930 . S
C283 N285 1.325 . S
C283 C286 1.357 . S
C284 H252 0.928 . S
C284 C282 1.406 . S
C284 N285 1.261 . S
N285 Co236 2.214 . S
N285 C283 1.325 . S
N285 C284 1.261 . S
C286 H256 0.931 . S
C286 C283 1.357 . S
C286 C287 1.312 . S
C287 H258 0.930 1_554 S
C287 C282 1.261 . S
C287 C286 1.312 . S
C288 O260 1.214 . S
C288 O268 1.234 . S
C289 H261 0.929 . S
C289 C292 1.391 . S
C289 C294 1.391 . S
C290 H262 0.929 . S
C290 C291 1.390 . S
C290 N293 1.391 . S
C291 H263 0.930 . S
C291 C290 1.390 . S
C291 C292 1.392 . S
C292 H264 0.929 . S
C292 C289 1.391 . S
C292 C291 1.392 . S
N293 Co237 2.257 1_455 S
N293 C290 1.391 . S
N293 C294 1.388 . S
C294 H265 0.930 . S
C294 C289 1.391 . S
C294 N293 1.388 . S
Co295 O297 2.143 . S
Co295 O303 2.074 . S
Co295 O306 2.093 . S
Co295 O319 2.097 . S
Co295 N336 2.151 . S
Co295 N344 2.214 . S
Co296 O297 2.160 . S
Co296 O302 2.058 . S
Co296 O312 2.057 . S
Co296 O327 2.037 . S
Co296 N331 2.145 . S
Co296 N352 2.257 . S
O297 Co295 2.143 . S
O297 Co296 2.160 . S
C298 O299 1.278 . S
C298 O306 1.224 . S
O299 C298 1.278 . S
C300 O301 1.245 . S
C300 O312 1.232 . S
O301 C300 1.245 . S
O302 Co296 2.058 . S
O302 C328 1.269 . S
O303 Co295 2.074 . S
O303 C328 1.257 . S
H304 C329 0.930 . S
H305 C335 0.930 . S
O306 Co295 2.093 . S
O306 C298 1.224 . S
H307 C339 0.929 . S
H308 C341 0.930 . S
H309 C342 0.930 . S
H310 C340 0.929 . S
H311 C343 0.928 . S
O312 Co296 2.057 . S
O312 C300 1.232 . S
H313 C332 0.929 . S
H314 C333 0.929 . S
H315 C345 0.931 . S
H316 C337 0.929 . S
H317 C346 0.930 . S
H318 C338 0.931 . S
O319 Co295 2.097 . S
O319 C347 1.214 . S
H320 C348 0.929 . S
H321 C349 0.929 . S
H322 C350 0.930 . S
H323 C351 0.929 . S
H324 C353 0.930 . S
H325 C330 0.930 . S
H326 C334 0.930 . S
O327 Co296 2.037 . S
O327 C347 1.234 . S
C328 O302 1.269 . S
C328 O303 1.257 . S
C329 H304 0.930 . S
C329 C332 1.388 . S
C329 C334 1.418 . S
C330 H325 0.930 . S
C330 C333 1.404 . S
C330 C334 1.353 . S
N331 Co296 2.145 . S
N331 C332 1.397 . S
N331 C333 1.334 . S
C332 H313 0.929 . S
C332 C329 1.388 . S
C332 N331 1.397 . S
C333 H314 0.929 . S
C333 C330 1.404 . S
C333 N331 1.334 . S
C334 H326 0.930 . S
C334 C329 1.418 . S
C334 C330 1.353 . S
C335 H305 0.930 . S
C335 N336 1.330 . S
C335 C337 1.446 . S
N336 Co295 2.151 . S
N336 C335 1.330 . S
N336 C340 1.418 . S
C337 H316 0.929 . S
C337 C335 1.446 . S
C337 C338 1.332 . S
C338 H318 0.931 . S
C338 C337 1.332 . S
C338 C339 1.267 . S
C339 H307 0.929 . S
C339 C338 1.267 . S
C339 C340 1.251 . S
C340 H310 0.929 . S
C340 N336 1.418 . S
C340 C339 1.251 . S
C341 H308 0.930 . S
C341 C343 1.406 . S
C341 C346 1.261 . S
C342 H309 0.930 . S
C342 N344 1.325 . S
C342 C345 1.357 . S
C343 H311 0.928 . S
C343 C341 1.406 . S
C343 N344 1.261 . S
N344 Co295 2.214 . S
N344 C342 1.325 . S
N344 C343 1.261 . S
C345 H315 0.931 . S
C345 C342 1.357 . S
C345 C346 1.312 . S
C346 H317 0.930 . S
C346 C341 1.261 . S
C346 C345 1.312 . S
C347 O319 1.214 . S
C347 O327 1.234 . S
C348 H320 0.929 . S
C348 C351 1.391 . S
C348 C353 1.391 . S
C349 H321 0.929 . S
C349 C350 1.390 . S
C349 N352 1.391 . S
C350 H322 0.930 . S
C350 C349 1.390 . S
C350 C351 1.392 . S
C351 H323 0.929 . S
C351 C348 1.391 . S
C351 C350 1.392 . S
N352 Co296 2.257 . S
N352 C349 1.391 . S
N352 C353 1.388 . S
C353 H324 0.930 . S
C353 C348 1.391 . S
C353 N352 1.388 . S
Co354 O356 2.143 . S
Co354 O362 2.074 . S
Co354 O365 2.093 . S
Co354 O378 2.097 . S
Co354 N395 2.151 . S
Co354 N403 2.214 . S
Co355 O356 2.160 . S
Co355 O361 2.058 . S
Co355 O371 2.057 . S
Co355 O386 2.037 . S
Co355 N390 2.145 . S
Co355 N411 2.257 . S
O356 Co354 2.143 . S
O356 Co355 2.160 . S
C357 O358 1.278 . S
C357 O365 1.224 . S
O358 C357 1.278 . S
C359 O360 1.245 . S
C359 O371 1.232 . S
O360 C359 1.245 . S
O361 Co355 2.058 . S
O361 C387 1.269 . S
O362 Co354 2.074 . S
O362 C387 1.257 . S
H363 C388 0.930 . S
H364 C394 0.930 . S
O365 Co354 2.093 . S
O365 C357 1.224 . S
H366 C398 0.929 . S
H367 C400 0.930 . S
H368 C401 0.930 . S
H369 C399 0.929 . S
H370 C402 0.928 . S
O371 Co355 2.057 . S
O371 C359 1.232 . S
H372 C391 0.929 . S
H373 C392 0.929 . S
H374 C404 0.931 . S
H375 C396 0.929 . S
H376 C405 0.930 . S
H377 C397 0.931 . S
O378 Co354 2.097 . S
O378 C406 1.214 . S
H379 C407 0.929 . S
H380 C408 0.929 . S
H381 C409 0.930 . S
H382 C410 0.929 . S
H383 C412 0.930 . S
H384 C389 0.930 . S
H385 C393 0.930 . S
O386 Co355 2.037 . S
O386 C406 1.234 . S
C387 O361 1.269 . S
C387 O362 1.257 . S
C388 H363 0.930 . S
C388 C391 1.388 . S
C388 C393 1.418 . S
C389 H384 0.930 . S
C389 C392 1.404 . S
C389 C393 1.353 . S
N390 Co355 2.145 . S
N390 C391 1.397 . S
N390 C392 1.334 . S
C391 H372 0.929 . S
C391 C388 1.388 . S
C391 N390 1.397 . S
C392 H373 0.929 . S
C392 C389 1.404 . S
C392 N390 1.334 . S
C393 H385 0.930 . S
C393 C388 1.418 . S
C393 C389 1.353 . S
C394 H364 0.930 . S
C394 N395 1.330 . S
C394 C396 1.446 . S
N395 Co354 2.151 . S
N395 C394 1.330 . S
N395 C399 1.418 . S
C396 H375 0.929 . S
C396 C394 1.446 . S
C396 C397 1.332 . S
C397 H377 0.931 . S
C397 C396 1.332 . S
C397 C398 1.267 . S
C398 H366 0.929 . S
C398 C397 1.267 . S
C398 C399 1.251 . S
C399 H369 0.929 . S
C399 N395 1.418 . S
C399 C398 1.251 . S
C400 H367 0.930 . S
C400 C402 1.406 . S
C400 C405 1.261 . S
C401 H368 0.930 . S
C401 N403 1.325 . S
C401 C404 1.357 . S
C402 H370 0.928 . S
C402 C400 1.406 . S
C402 N403 1.261 . S
N403 Co354 2.214 . S
N403 C401 1.325 . S
N403 C402 1.261 . S
C404 H374 0.931 . S
C404 C401 1.357 . S
C404 C405 1.312 . S
C405 H376 0.930 . S
C405 C400 1.261 . S
C405 C404 1.312 . S
C406 O378 1.214 . S
C406 O386 1.234 . S
C407 H379 0.929 . S
C407 C410 1.391 . S
C407 C412 1.391 . S
C408 H380 0.929 . S
C408 C409 1.390 . S
C408 N411 1.391 . S
C409 H381 0.930 . S
C409 C408 1.390 . S
C409 C410 1.392 . S
C410 H382 0.929 . S
C410 C407 1.391 . S
C410 C409 1.392 . S
N411 Co355 2.257 . S
N411 C408 1.391 . S
N411 C412 1.388 . S
C412 H383 0.930 . S
C412 C407 1.391 . S
C412 N411 1.388 . S
Co413 O415 2.143 1_455 S
Co413 O421 2.074 . S
Co413 O424 2.093 1_455 S
Co413 O437 2.097 . S
Co413 N454 2.145 1_455 S
Co413 N462 2.214 . S
Co414 O415 2.160 1_455 S
Co414 O420 2.058 . S
Co414 O430 2.057 1_455 S
Co414 O445 2.037 . S
Co414 N449 2.145 . S
Co414 N470 2.257 1_455 S
O415 Co413 2.143 1_655 S
O415 Co414 2.160 1_655 S
C416 O417 1.278 . S
C416 O424 1.224 . S
O417 C416 1.278 . S
C418 O419 1.245 . S
C418 O430 1.232 . S
O419 C418 1.245 . S
O420 Co414 2.058 . S
O420 C446 1.269 . S
O421 Co413 2.074 . S
O421 C446 1.257 . S
H422 C447 0.930 . S
H423 C453 0.930 . S
O424 Co413 2.093 1_655 S
O424 C416 1.224 . S
H425 C457 0.929 . S
H426 C459 0.930 . S
H427 C460 0.930 . S
H428 C458 0.929 . S
H429 C461 0.928 . S
O430 Co414 2.057 1_655 S
O430 C418 1.232 . S
H431 C450 0.929 . S
H432 C451 0.929 . S
H433 C463 0.931 . S
H434 C455 0.929 . S
H435 C464 0.930 1_554 S
H436 C456 0.931 . S
O437 Co413 2.097 . S
O437 C465 1.214 . S
H438 C466 0.929 . S
H439 C467 0.929 1_455 S
H440 C468 0.930 . S
H441 C469 0.929 . S
H442 C471 0.930 . S
H443 C448 0.930 . S
H444 C452 0.930 . S
O445 Co414 2.037 . S
O445 C465 1.234 . S
C446 O420 1.269 . S
C446 O421 1.257 . S
C447 H422 0.930 . S
C447 C450 1.388 . S
C447 C452 1.418 . S
C448 H443 0.930 . S
C448 C451 1.404 . S
C448 C452 1.353 . S
N449 Co414 2.145 . S
N449 C450 1.397 . S
N449 C451 1.334 . S
C450 H431 0.929 . S
C450 C447 1.388 . S
C450 N449 1.397 . S
C451 H432 0.929 . S
C451 C448 1.404 . S
C451 N449 1.334 . S
C452 H444 0.930 . S
C452 C447 1.418 . S
C452 C448 1.353 . S
C453 H423 0.930 . S
C453 N454 1.348 . S
C453 C455 1.446 . S
N454 Co413 2.145 1_655 S
N454 C453 1.348 . S
N454 C458 1.406 1_655 S
C455 H434 0.929 . S
C455 C453 1.446 . S
C455 C456 1.332 1_556 S
C456 H436 0.931 . S
C456 C455 1.332 1_554 S
C456 C457 1.267 1_655 S
C457 H425 0.929 . S
C457 C456 1.267 1_455 S
C457 C458 1.251 1_554 S
C458 H428 0.929 . S
C458 N454 1.406 1_455 S
C458 C457 1.251 1_556 S
C459 H426 0.930 . S
C459 C461 1.406 1_554 S
C459 C464 1.261 1_554 S
C460 H427 0.930 . S
C460 N462 1.325 . S
C460 C463 1.357 . S
C461 H429 0.928 . S
C461 C459 1.406 1_556 S
C461 N462 1.261 . S
N462 Co413 2.214 . S
N462 C460 1.325 . S
N462 C461 1.261 . S
C463 H433 0.931 . S
C463 C460 1.357 . S
C463 C464 1.312 . S
C464 H435 0.930 1_556 S
C464 C459 1.261 1_556 S
C464 C463 1.312 . S
C465 O437 1.214 . S
C465 O445 1.234 . S
C466 H438 0.929 . S
C466 C469 1.391 . S
C466 C471 1.391 . S
C467 H439 0.929 1_655 S
C467 C468 1.390 . S
C467 N470 1.391 . S
C468 H440 0.930 . S
C468 C467 1.390 . S
C468 C469 1.392 . S
C469 H441 0.929 . S
C469 C466 1.391 . S
C469 C468 1.392 . S
N470 Co414 2.257 1_655 S
N470 C467 1.391 . S
N470 C471 1.388 . S
C471 H442 0.930 . S
C471 C466 1.391 . S
C471 N470 1.388 . S
Co472 O474 2.143 1_545 S
Co472 O480 2.074 1_545 S
Co472 O483 2.093 . S
Co472 O496 2.097 . S
Co472 N513 2.151 1_545 S
Co472 N521 2.214 . S
Co473 O474 2.160 . S
Co473 O479 2.058 . S
Co473 O489 2.057 . S
Co473 O504 2.037 1_565 S
Co473 N508 2.145 . S
Co473 N529 2.257 1_565 S
O474 Co472 2.143 1_565 S
O474 Co473 2.160 . S
C475 O476 1.278 . S
C475 O483 1.224 . S
O476 C475 1.278 . S
C477 O478 1.245 . S
C477 O489 1.232 . S
O478 C477 1.245 . S
O479 Co473 2.058 . S
O479 C505 1.269 . S
O480 Co472 2.074 1_565 S
O480 C505 1.257 . S
H481 C506 0.930 . S
H482 C512 0.930 . S
O483 Co472 2.093 . S
O483 C475 1.224 . S
H484 C516 0.929 . S
H485 C518 0.930 . S
H486 C519 0.930 . S
H487 C517 0.929 . S
H488 C520 0.928 . S
O489 Co473 2.057 . S
O489 C477 1.232 . S
H490 C509 0.929 1_545 S
H491 C510 0.929 . S
H492 C522 0.931 . S
H493 C514 0.929 . S
H494 C523 0.930 . S
H495 C515 0.931 . S
O496 Co472 2.097 . S
O496 C524 1.214 . S
H497 C525 0.929 . S
H498 C526 0.929 . S
H499 C527 0.930 . S
H500 C528 0.929 . S
H501 C530 0.930 1_565 S
H502 C507 0.930 . S
H503 C511 0.930 . S
O504 Co473 2.037 1_545 S
O504 C524 1.234 . S
C505 O479 1.269 . S
C505 O480 1.257 . S
C506 H481 0.930 . S
C506 C509 1.388 . S
C506 C511 1.418 . S
C507 H502 0.930 . S
C507 C510 1.404 . S
C507 C511 1.353 . S
N508 Co473 2.145 . S
N508 C509 1.397 . S
N508 C510 1.334 . S
C509 H490 0.929 1_565 S
C509 C506 1.388 . S
C509 N508 1.397 . S
C510 H491 0.929 . S
C510 C507 1.404 . S
C510 N508 1.334 . S
C511 H503 0.930 . S
C511 C506 1.418 . S
C511 C507 1.353 . S
C512 H482 0.930 . S
C512 N513 1.330 . S
C512 C514 1.446 . S
N513 Co472 2.151 1_565 S
N513 C512 1.330 . S
N513 C517 1.418 . S
C514 H493 0.929 . S
C514 C512 1.446 . S
C514 C515 1.332 . S
C515 H495 0.931 . S
C515 C514 1.332 . S
C515 C516 1.267 . S
C516 H484 0.929 . S
C516 C515 1.267 . S
C516 C517 1.251 . S
C517 H487 0.929 . S
C517 N513 1.418 . S
C517 C516 1.251 . S
C518 H485 0.930 . S
C518 C520 1.406 . S
C518 C523 1.261 . S
C519 H486 0.930 . S
C519 N521 1.325 . S
C519 C522 1.357 . S
C520 H488 0.928 . S
C520 C518 1.406 . S
C520 N521 1.261 . S
N521 Co472 2.214 . S
N521 C519 1.325 . S
N521 C520 1.261 . S
C522 H492 0.931 . S
C522 C519 1.357 . S
C522 C523 1.312 . S
C523 H494 0.930 . S
C523 C518 1.261 . S
C523 C522 1.312 . S
C524 O496 1.214 . S
C524 O504 1.234 . S
C525 H497 0.929 . S
C525 C528 1.391 . S
C525 C530 1.391 . S
C526 H498 0.929 . S
C526 C527 1.390 . S
C526 N529 1.391 . S
C527 H499 0.930 . S
C527 C526 1.390 . S
C527 C528 1.392 . S
C528 H500 0.929 . S
C528 C525 1.391 . S
C528 C527 1.392 . S
N529 Co473 2.257 1_545 S
N529 C526 1.391 . S
N529 C530 1.388 . S
C530 H501 0.930 1_545 S
C530 C525 1.391 . S
C530 N529 1.388 . S
Co531 O533 2.143 . S
Co531 O539 2.074 . S
Co531 O542 2.093 . S
Co531 O555 2.097 . S
Co531 N572 2.151 . S
Co531 N580 2.214 . S
Co532 O533 2.160 . S
Co532 O538 2.058 . S
Co532 O548 2.057 . S
Co532 O563 2.037 . S
Co532 N567 2.145 . S
Co532 N588 2.257 . S
O533 Co531 2.143 . S
O533 Co532 2.160 . S
C534 O535 1.278 . S
C534 O542 1.224 . S
O535 C534 1.278 . S
C536 O537 1.245 . S
C536 O548 1.232 . S
O537 C536 1.245 . S
O538 Co532 2.058 . S
O538 C564 1.269 . S
O539 Co531 2.074 . S
O539 C564 1.257 . S
H540 C565 0.930 . S
H541 C571 0.930 . S
O542 Co531 2.093 . S
O542 C534 1.224 . S
H543 C575 0.929 . S
H544 C577 0.930 . S
H545 C578 0.930 . S
H546 C576 0.929 . S
H547 C579 0.928 . S
O548 Co532 2.057 . S
O548 C536 1.232 . S
H549 C568 0.929 . S
H550 C569 0.929 . S
H551 C581 0.931 . S
H552 C573 0.929 . S
H553 C582 0.930 . S
H554 C574 0.931 . S
O555 Co531 2.097 . S
O555 C583 1.214 . S
H556 C584 0.929 . S
H557 C585 0.929 . S
H558 C586 0.930 1_565 S
H559 C587 0.929 1_565 S
H560 C589 0.930 . S
H561 C566 0.930 . S
H562 C570 0.930 . S
O563 Co532 2.037 . S
O563 C583 1.234 . S
C564 O538 1.269 . S
C564 O539 1.257 . S
C565 H540 0.930 . S
C565 C568 1.388 . S
C565 C570 1.418 1_545 S
C566 H561 0.930 . S
C566 C569 1.404 1_565 S
C566 C570 1.353 . S
N567 Co532 2.145 . S
N567 C568 1.397 . S
N567 C569 1.334 . S
C568 H549 0.929 . S
C568 C565 1.388 . S
C568 N567 1.397 . S
C569 H550 0.929 . S
C569 C566 1.404 1_545 S
C569 N567 1.334 . S
C570 H562 0.930 . S
C570 C565 1.418 1_565 S
C570 C566 1.353 . S
C571 H541 0.930 . S
C571 N572 1.330 . S
C571 C573 1.446 . S
N572 Co531 2.151 . S
N572 C571 1.330 . S
N572 C576 1.418 . S
C573 H552 0.929 . S
C573 C571 1.446 . S
C573 C574 1.332 . S
C574 H554 0.931 . S
C574 C573 1.332 . S
C574 C575 1.267 . S
C575 H543 0.929 . S
C575 C574 1.267 . S
C575 C576 1.251 . S
C576 H546 0.929 . S
C576 N572 1.418 . S
C576 C575 1.251 . S
C577 H544 0.930 . S
C577 C579 1.406 . S
C577 C582 1.261 . S
C578 H545 0.930 . S
C578 N580 1.325 . S
C578 C581 1.357 . S
C579 H547 0.928 . S
C579 C577 1.406 . S
C579 N580 1.261 . S
N580 Co531 2.214 . S
N580 C578 1.325 . S
N580 C579 1.261 . S
C581 H551 0.931 . S
C581 C578 1.357 . S
C581 C582 1.312 . S
C582 H553 0.930 . S
C582 C577 1.261 . S
C582 C581 1.312 . S
C583 O555 1.214 . S
C583 O563 1.234 . S
C584 H556 0.929 . S
C584 C587 1.391 . S
C584 C589 1.391 . S
C585 H557 0.929 . S
C585 C586 1.390 . S
C585 N588 1.391 . S
C586 H558 0.930 1_545 S
C586 C585 1.390 . S
C586 C587 1.392 . S
C587 H559 0.929 1_545 S
C587 C584 1.391 . S
C587 C586 1.392 . S
N588 Co532 2.257 . S
N588 C585 1.391 . S
N588 C589 1.388 . S
C589 H560 0.930 . S
C589 C584 1.391 . S
C589 N588 1.388 . S
Co590 O592 2.143 1_565 S
Co590 O598 2.074 1_565 S
Co590 O601 2.093 . S
Co590 O614 2.097 . S
Co590 N631 2.151 1_565 S
Co590 N639 2.214 . S
Co591 O592 2.160 . S
Co591 O597 2.058 . S
Co591 O607 2.057 . S
Co591 O622 2.037 1_545 S
Co591 N626 2.145 . S
Co591 N647 2.257 1_545 S
O592 Co590 2.143 1_545 S
O592 Co591 2.160 . S
C593 O594 1.278 . S
C593 O601 1.224 . S
O594 C593 1.278 . S
C595 O596 1.245 . S
C595 O607 1.232 . S
O596 C595 1.245 . S
O597 Co591 2.058 . S
O597 C623 1.269 . S
O598 Co590 2.074 1_545 S
O598 C623 1.257 . S
H599 C624 0.930 . S
H600 C630 0.930 . S
O601 Co590 2.093 . S
O601 C593 1.224 . S
H602 C634 0.929 . S
H603 C636 0.930 . S
H604 C637 0.930 . S
H605 C635 0.929 . S
H606 C638 0.928 . S
O607 Co591 2.057 . S
O607 C595 1.232 . S
H608 C627 0.929 1_565 S
H609 C628 0.929 . S
H610 C640 0.931 . S
H611 C632 0.929 . S
H612 C641 0.930 . S
H613 C633 0.931 . S
O614 Co590 2.097 . S
O614 C642 1.214 . S
H615 C643 0.929 . S
H616 C644 0.929 . S
H617 C645 0.930 . S
H618 C646 0.929 . S
H619 C648 0.930 . S
H620 C625 0.930 1_655 S
H621 C629 0.930 . S
O622 Co591 2.037 1_565 S
O622 C642 1.234 . S
C623 O597 1.269 . S
C623 O598 1.257 . S
C624 H599 0.930 . S
C624 C627 1.388 . S
C624 C629 1.418 1_455 S
C625 H620 0.930 1_455 S
C625 C628 1.404 . S
C625 C629 1.353 1_455 S
N626 Co591 2.145 . S
N626 C627 1.397 . S
N626 C628 1.334 . S
C627 H608 0.929 1_545 S
C627 C624 1.388 . S
C627 N626 1.397 . S
C628 H609 0.929 . S
C628 C625 1.404 . S
C628 N626 1.334 . S
C629 H621 0.930 . S
C629 C624 1.418 1_655 S
C629 C625 1.353 1_655 S
C630 H600 0.930 . S
C630 N631 1.330 . S
C630 C632 1.446 . S
N631 Co590 2.151 1_545 S
N631 C630 1.330 . S
N631 C635 1.418 . S
C632 H611 0.929 . S
C632 C630 1.446 . S
C632 C633 1.332 . S
C633 H613 0.931 . S
C633 C632 1.332 . S
C633 C634 1.267 . S
C634 H602 0.929 . S
C634 C633 1.267 . S
C634 C635 1.251 . S
C635 H605 0.929 . S
C635 N631 1.418 . S
C635 C634 1.251 . S
C636 H603 0.930 . S
C636 C638 1.406 . S
C636 C641 1.261 . S
C637 H604 0.930 . S
C637 N639 1.325 . S
C637 C640 1.357 . S
C638 H606 0.928 . S
C638 C636 1.406 . S
C638 N639 1.261 . S
N639 Co590 2.214 . S
N639 C637 1.325 . S
N639 C638 1.261 . S
C640 H610 0.931 . S
C640 C637 1.357 . S
C640 C641 1.312 . S
C641 H612 0.930 . S
C641 C636 1.261 . S
C641 C640 1.312 . S
C642 O614 1.214 . S
C642 O622 1.234 . S
C643 H615 0.929 . S
C643 C646 1.391 . S
C643 C648 1.391 1_565 S
C644 H616 0.929 . S
C644 C645 1.390 . S
C644 N647 1.391 . S
C645 H617 0.930 . S
C645 C644 1.390 . S
C645 C646 1.392 . S
C646 H618 0.929 . S
C646 C643 1.391 . S
C646 C645 1.392 . S
N647 Co591 2.257 1_565 S
N647 C644 1.391 . S
N647 C648 1.388 1_565 S
C648 H619 0.930 . S
C648 C643 1.391 1_545 S
C648 N647 1.388 1_545 S
Co649 O651 2.143 1_554 S
Co649 O657 2.074 . S
Co649 O660 2.077 1_554 S
Co649 O673 2.097 . S
Co649 N690 2.151 1_554 S
Co649 N698 2.214 . S
Co650 O651 2.160 1_554 S
Co650 O656 2.058 . S
Co650 O666 2.057 1_554 S
Co650 O681 2.037 . S
Co650 N685 2.145 . S
Co650 N706 2.257 1_554 S
O651 Co649 2.143 1_556 S
O651 Co650 2.160 1_556 S
C652 O653 1.278 . S
C652 O660 1.251 . S
O653 C652 1.278 . S
C654 O655 1.245 . S
C654 O666 1.232 . S
O655 C654 1.245 . S
O656 Co650 2.058 . S
O656 C682 1.269 . S
O657 Co649 2.074 . S
O657 C682 1.257 . S
H658 C683 0.930 . S
H659 C689 0.930 . S
O660 Co649 2.077 1_556 S
O660 C652 1.251 . S
H661 C693 0.929 . S
H662 C695 0.930 . S
H663 C696 0.930 . S
H664 C694 0.929 1_554 S
H665 C697 0.928 . S
O666 Co650 2.057 1_556 S
O666 C654 1.232 . S
H667 C686 0.929 . S
H668 C687 0.929 1_556 S
H669 C699 0.931 . S
H670 C691 0.929 . S
H671 C700 0.930 . S
H672 C692 0.931 . S
O673 Co649 2.097 . S
O673 C701 1.214 . S
H674 C702 0.929 . S
H675 C703 0.929 . S
H676 C704 0.930 1_545 S
H677 C705 0.929 1_545 S
H678 C707 0.930 . S
H679 C684 0.930 . S
H680 C688 0.930 . S
O681 Co650 2.037 . S
O681 C701 1.234 . S
C682 O656 1.269 . S
C682 O657 1.257 . S
C683 H658 0.930 . S
C683 C686 1.388 . S
C683 C688 1.418 1_565 S
C684 H679 0.930 . S
C684 C687 1.404 1_545 S
C684 C688 1.353 . S
N685 Co650 2.145 . S
N685 C686 1.397 . S
N685 C687 1.334 . S
C686 H667 0.929 . S
C686 C683 1.388 . S
C686 N685 1.397 . S
C687 H668 0.929 1_554 S
C687 C684 1.404 1_565 S
C687 N685 1.334 . S
C688 H680 0.930 . S
C688 C683 1.418 1_545 S
C688 C684 1.353 . S
C689 H659 0.930 . S
C689 N690 1.330 . S
C689 C691 1.446 . S
N690 Co649 2.151 1_556 S
N690 C689 1.330 . S
N690 C694 1.418 . S
C691 H670 0.929 . S
C691 C689 1.446 . S
C691 C692 1.332 . S
C692 H672 0.931 . S
C692 C691 1.332 . S
C692 C693 1.267 . S
C693 H661 0.929 . S
C693 C692 1.267 . S
C693 C694 1.251 . S
C694 H664 0.929 1_556 S
C694 N690 1.418 . S
C694 C693 1.251 . S
C695 H662 0.930 . S
C695 C697 1.406 . S
C695 C700 1.261 . S
C696 H663 0.930 . S
C696 N698 1.325 . S
C696 C699 1.357 . S
C697 H665 0.928 . S
C697 C695 1.406 . S
C697 N698 1.261 . S
N698 Co649 2.214 . S
N698 C696 1.325 . S
N698 C697 1.261 . S
C699 H669 0.931 . S
C699 C696 1.357 . S
C699 C700 1.312 . S
C700 H671 0.930 . S
C700 C695 1.261 . S
C700 C699 1.312 . S
C701 O673 1.214 . S
C701 O681 1.234 . S
C702 H674 0.929 . S
C702 C705 1.391 . S
C702 C707 1.391 . S
C703 H675 0.929 . S
C703 C704 1.390 . S
C703 N706 1.391 1_554 S
C704 H676 0.930 1_565 S
C704 C703 1.390 . S
C704 C705 1.392 1_554 S
C705 H677 0.929 1_565 S
C705 C702 1.391 . S
C705 C704 1.392 1_556 S
N706 Co650 2.257 1_556 S
N706 C703 1.391 1_556 S
N706 C707 1.388 . S
C707 H678 0.930 . S
C707 C702 1.391 . S
C707 N706 1.388 . S
Co708 O710 2.143 . S
Co708 O716 2.074 1_556 S
Co708 O719 2.093 . S
Co708 O732 2.097 . S
Co708 N749 2.151 1_556 S
Co708 N757 2.214 . S
Co709 O710 2.160 1_554 S
Co709 O715 2.058 . S
Co709 O725 2.057 . S
Co709 O740 2.037 1_554 S
Co709 N744 2.145 . S
Co709 N765 2.257 1_554 S
O710 Co708 2.143 . S
O710 Co709 2.160 1_556 S
C711 O712 1.278 . S
C711 O719 1.224 . S
O712 C711 1.278 . S
C713 O714 1.245 . S
C713 O725 1.232 . S
O714 C713 1.245 . S
O715 Co709 2.058 . S
O715 C741 1.269 . S
O716 Co708 2.074 1_554 S
O716 C741 1.257 . S
H717 C742 0.930 . S
H718 C748 0.930 . S
O719 Co708 2.093 . S
O719 C711 1.224 . S
H720 C752 0.929 . S
H721 C754 0.930 . S
H722 C755 0.930 . S
H723 C753 0.929 . S
H724 C756 0.928 . S
O725 Co709 2.057 . S
O725 C713 1.232 . S
H726 C745 0.929 . S
H727 C746 0.929 . S
H728 C758 0.931 . S
H729 C750 0.929 . S
H730 C759 0.930 . S
H731 C751 0.931 . S
O732 Co708 2.097 . S
O732 C760 1.214 . S
H733 C761 0.929 . S
H734 C762 0.929 . S
H735 C763 0.930 . S
H736 C764 0.929 . S
H737 C766 0.930 . S
H738 C743 0.930 . S
H739 C747 0.930 . S
O740 Co709 2.037 1_556 S
O740 C760 1.234 . S
C741 O715 1.269 . S
C741 O716 1.257 . S
C742 H717 0.930 . S
C742 C745 1.388 . S
C742 C747 1.418 . S
C743 H738 0.930 . S
C743 C746 1.404 . S
C743 C747 1.353 . S
N744 Co709 2.145 . S
N744 C745 1.397 . S
N744 C746 1.334 . S
C745 H726 0.929 . S
C745 C742 1.388 . S
C745 N744 1.397 . S
C746 H727 0.929 . S
C746 C743 1.404 . S
C746 N744 1.334 . S
C747 H739 0.930 . S
C747 C742 1.418 . S
C747 C743 1.353 . S
C748 H718 0.930 . S
C748 N749 1.330 1_556 S
C748 C750 1.446 1_556 S
N749 Co708 2.151 1_554 S
N749 C748 1.330 1_554 S
N749 C753 1.418 . S
C750 H729 0.929 . S
C750 C748 1.446 1_554 S
C750 C751 1.332 . S
C751 H731 0.931 . S
C751 C750 1.332 . S
C751 C752 1.267 . S
C752 H720 0.929 . S
C752 C751 1.267 . S
C752 C753 1.251 . S
C753 H723 0.929 . S
C753 N749 1.418 . S
C753 C752 1.251 . S
C754 H721 0.930 . S
C754 C756 1.406 . S
C754 C759 1.261 . S
C755 H722 0.930 . S
C755 N757 1.325 . S
C755 C758 1.357 . S
C756 H724 0.928 . S
C756 C754 1.406 . S
C756 N757 1.261 . S
N757 Co708 2.214 . S
N757 C755 1.325 . S
N757 C756 1.261 . S
C758 H728 0.931 . S
C758 C755 1.357 . S
C758 C759 1.312 . S
C759 H730 0.930 . S
C759 C754 1.261 . S
C759 C758 1.312 . S
C760 O732 1.214 . S
C760 O740 1.234 . S
C761 H733 0.929 . S
C761 C764 1.391 . S
C761 C766 1.391 . S
C762 H734 0.929 . S
C762 C763 1.390 . S
C762 N765 1.391 . S
C763 H735 0.930 . S
C763 C762 1.390 . S
C763 C764 1.392 . S
C764 H736 0.929 . S
C764 C761 1.391 . S
C764 C763 1.392 . S
N765 Co709 2.257 1_556 S
N765 C762 1.391 . S
N765 C766 1.388 . S
C766 H737 0.930 . S
C766 C761 1.391 . S
C766 N765 1.388 . S
Co767 O769 2.143 1_556 S
Co767 O775 2.074 1_556 S
Co767 O778 2.093 . S
Co767 O791 2.097 . S
Co767 N808 2.151 1_556 S
Co767 N816 2.214 . S
Co768 O769 2.160 . S
Co768 O774 2.058 . S
Co768 O784 2.057 . S
Co768 O799 2.037 1_554 S
Co768 N803 2.145 . S
Co768 N824 2.257 1_554 S
O769 Co767 2.143 1_554 S
O769 Co768 2.160 . S
C770 O771 1.278 . S
C770 O778 1.224 . S
O771 C770 1.278 . S
C772 O773 1.245 . S
C772 O784 1.232 . S
O773 C772 1.245 . S
O774 Co768 2.058 . S
O774 C800 1.269 . S
O775 Co767 2.074 1_554 S
O775 C800 1.257 . S
H776 C801 0.930 . S
H777 C807 0.930 . S
O778 Co767 2.093 . S
O778 C770 1.224 . S
H779 C811 0.929 . S
H780 C813 0.930 . S
H781 C814 0.930 . S
H782 C812 0.929 . S
H783 C815 0.928 . S
O784 Co768 2.057 . S
O784 C772 1.232 . S
H785 C804 0.929 1_556 S
H786 C805 0.929 . S
H787 C817 0.931 . S
H788 C809 0.929 . S
H789 C818 0.930 . S
H790 C810 0.931 . S
O791 Co767 2.097 . S
O791 C819 1.214 . S
H792 C820 0.929 . S
H793 C821 0.929 . S
H794 C822 0.930 . S
H795 C823 0.929 . S
H796 C825 0.930 . S
H797 C802 0.930 1_565 S
H798 C806 0.930 . S
O799 Co768 2.037 1_556 S
O799 C819 1.234 . S
C800 O774 1.269 . S
C800 O775 1.257 . S
C801 H776 0.930 . S
C801 C804 1.388 . S
C801 C806 1.418 1_545 S
C802 H797 0.930 1_545 S
C802 C805 1.404 . S
C802 C806 1.353 1_545 S
N803 Co768 2.145 . S
N803 C804 1.397 . S
N803 C805 1.334 . S
C804 H785 0.929 1_554 S
C804 C801 1.388 . S
C804 N803 1.397 . S
C805 H786 0.929 . S
C805 C802 1.404 . S
C805 N803 1.334 . S
C806 H798 0.930 . S
C806 C801 1.418 1_565 S
C806 C802 1.353 1_565 S
C807 H777 0.930 . S
C807 N808 1.330 . S
C807 C809 1.446 . S
N808 Co767 2.151 1_554 S
N808 C807 1.330 . S
N808 C812 1.418 . S
C809 H788 0.929 . S
C809 C807 1.446 . S
C809 C810 1.332 . S
C810 H790 0.931 . S
C810 C809 1.332 . S
C810 C811 1.267 . S
C811 H779 0.929 . S
C811 C810 1.267 . S
C811 C812 1.251 . S
C812 H782 0.929 . S
C812 N808 1.418 . S
C812 C811 1.251 . S
C813 H780 0.930 . S
C813 C815 1.406 . S
C813 C818 1.261 . S
C814 H781 0.930 . S
C814 N816 1.325 . S
C814 C817 1.357 . S
C815 H783 0.928 . S
C815 C813 1.406 . S
C815 N816 1.261 . S
N816 Co767 2.214 . S
N816 C814 1.325 . S
N816 C815 1.261 . S
C817 H787 0.931 . S
C817 C814 1.357 . S
C817 C818 1.312 . S
C818 H789 0.930 . S
C818 C813 1.261 . S
C818 C817 1.312 . S
C819 O791 1.214 . S
C819 O799 1.234 . S
C820 H792 0.929 . S
C820 C823 1.391 . S
C820 C825 1.391 1_556 S
C821 H793 0.929 . S
C821 C822 1.390 . S
C821 N824 1.391 . S
C822 H794 0.930 . S
C822 C821 1.390 . S
C822 C823 1.392 . S
C823 H795 0.929 . S
C823 C820 1.391 . S
C823 C822 1.392 . S
N824 Co768 2.257 1_556 S
N824 C821 1.391 . S
N824 C825 1.388 1_556 S
C825 H796 0.930 . S
C825 C820 1.391 1_554 S
C825 N824 1.388 1_554 S
Co826 O828 2.143 . S
Co826 O834 2.074 . S
Co826 O837 2.093 . S
Co826 O850 2.097 . S
Co826 N867 2.151 . S
Co826 N875 2.214 . S
Co827 O828 2.160 . S
Co827 O833 2.058 . S
Co827 O843 2.057 . S
Co827 O858 2.037 . S
Co827 N862 2.145 . S
Co827 N883 2.257 . S
O828 Co826 2.143 . S
O828 Co827 2.160 . S
C829 O830 1.278 . S
C829 O837 1.224 . S
O830 C829 1.278 . S
C831 O832 1.245 . S
C831 O843 1.232 . S
O832 C831 1.245 . S
O833 Co827 2.058 . S
O833 C859 1.269 . S
O834 Co826 2.074 . S
O834 C859 1.257 . S
H835 C860 0.930 . S
H836 C866 0.930 . S
O837 Co826 2.093 . S
O837 C829 1.224 . S
H838 C870 0.929 . S
H839 C872 0.930 . S
H840 C873 0.930 . S
H841 C871 0.929 . S
H842 C874 0.928 . S
O843 Co827 2.057 . S
O843 C831 1.232 . S
H844 C863 0.929 . S
H845 C864 0.929 . S
H846 C876 0.931 . S
H847 C868 0.929 1_655 S
H848 C877 0.938 . S
H849 C869 0.931 . S
O850 Co826 2.097 . S
O850 C878 1.214 . S
H851 C879 0.929 . S
H852 C880 0.929 . S
H853 C881 0.930 . S
H854 C882 0.929 . S
H855 C884 0.930 . S
H856 C861 0.930 . S
H857 C865 0.930 . S
O858 Co827 2.037 . S
O858 C878 1.234 . S
C859 O833 1.269 . S
C859 O834 1.257 . S
C860 H835 0.930 . S
C860 C863 1.388 . S
C860 C865 1.418 . S
C861 H856 0.930 . S
C861 C864 1.404 . S
C861 C865 1.353 . S
N862 Co827 2.145 . S
N862 C863 1.397 . S
N862 C864 1.334 . S
C863 H844 0.929 . S
C863 C860 1.388 . S
C863 N862 1.397 . S
C864 H845 0.929 . S
C864 C861 1.404 . S
C864 N862 1.334 . S
C865 H857 0.930 . S
C865 C860 1.418 . S
C865 C861 1.353 . S
C866 H836 0.930 . S
C866 N867 1.330 . S
C866 C868 1.446 . S
N867 Co826 2.151 . S
N867 C866 1.330 . S
N867 C871 1.418 . S
C868 H847 0.929 1_455 S
C868 C866 1.446 . S
C868 C869 1.332 1_455 S
C869 H849 0.931 . S
C869 C868 1.332 1_655 S
C869 C870 1.267 . S
C870 H838 0.929 . S
C870 C869 1.267 . S
C870 C871 1.251 1_655 S
C871 H841 0.929 . S
C871 N867 1.418 . S
C871 C870 1.251 1_455 S
C872 H839 0.930 . S
C872 C874 1.406 1_655 S
C872 C877 1.263 . S
C873 H840 0.930 . S
C873 N875 1.325 . S
C873 C876 1.357 . S
C874 H842 0.928 . S
C874 C872 1.406 1_455 S
C874 N875 1.261 . S
N875 Co826 2.214 . S
N875 C873 1.325 . S
N875 C874 1.261 . S
C876 H846 0.931 . S
C876 C873 1.357 . S
C876 C877 1.303 1_455 S
C877 H848 0.938 . S
C877 C872 1.263 . S
C877 C876 1.303 1_655 S
C878 O850 1.214 . S
C878 O858 1.234 . S
C879 H851 0.929 . S
C879 C882 1.391 . S
C879 C884 1.391 . S
C880 H852 0.929 . S
C880 C881 1.390 . S
C880 N883 1.391 . S
C881 H853 0.930 . S
C881 C880 1.390 . S
C881 C882 1.392 . S
C882 H854 0.929 . S
C882 C879 1.391 . S
C882 C881 1.392 . S
N883 Co827 2.257 . S
N883 C880 1.391 . S
N883 C884 1.388 . S
C884 H855 0.930 . S
C884 C879 1.391 . S
C884 N883 1.388 . S
Co885 O887 2.143 . S
Co885 O893 2.074 . S
Co885 O896 2.093 . S
Co885 O909 2.097 . S
Co885 N926 2.151 . S
Co885 N934 2.214 . S
Co886 O887 2.160 . S
Co886 O892 2.058 . S
Co886 O902 2.057 . S
Co886 O917 2.037 . S
Co886 N921 2.145 . S
Co886 N942 2.257 . S
O887 Co885 2.143 . S
O887 Co886 2.160 . S
C888 O889 1.278 . S
C888 O896 1.224 . S
O889 C888 1.278 . S
C890 O891 1.245 . S
C890 O902 1.232 . S
O891 C890 1.245 . S
O892 Co886 2.058 . S
O892 C918 1.269 . S
O893 Co885 2.074 . S
O893 C918 1.257 . S
H894 C919 0.930 . S
H895 C925 0.930 . S
O896 Co885 2.093 . S
O896 C888 1.224 . S
H897 C929 0.929 . S
H898 C931 0.930 . S
H899 C932 0.930 . S
H900 C930 0.929 . S
H901 C933 0.928 . S
O902 Co886 2.057 . S
O902 C890 1.232 . S
H903 C922 0.929 . S
H904 C923 0.929 . S
H905 C935 0.931 . S
H906 C927 0.927 1_545 S
H907 C936 0.930 . S
H908 C928 0.931 . S
O909 Co885 2.097 . S
O909 C937 1.214 . S
H910 C938 0.929 . S
H911 C939 0.929 . S
H912 C940 0.930 . S
H913 C941 0.929 . S
H914 C943 0.930 . S
H915 C920 0.930 . S
H916 C924 0.930 . S
O917 Co886 2.037 . S
O917 C937 1.234 . S
C918 O892 1.269 . S
C918 O893 1.257 . S
C919 H894 0.930 . S
C919 C922 1.388 . S
C919 C924 1.418 . S
C920 H915 0.930 . S
C920 C923 1.404 . S
C920 C924 1.353 . S
N921 Co886 2.145 . S
N921 C922 1.397 . S
N921 C923 1.334 . S
C922 H903 0.929 . S
C922 C919 1.388 . S
C922 N921 1.397 . S
C923 H904 0.929 . S
C923 C920 1.404 . S
C923 N921 1.334 . S
C924 H916 0.930 . S
C924 C919 1.418 . S
C924 C920 1.353 . S
C925 H895 0.930 . S
C925 N926 1.330 . S
C925 C927 1.471 . S
N926 Co885 2.151 . S
N926 C925 1.330 . S
N926 C930 1.418 . S
C927 H906 0.927 1_565 S
C927 C925 1.471 . S
C927 C928 1.310 1_565 S
C928 H908 0.931 . S
C928 C927 1.310 1_545 S
C928 C929 1.267 . S
C929 H897 0.929 . S
C929 C928 1.267 . S
C929 C930 1.251 1_545 S
C930 H900 0.929 . S
C930 N926 1.418 . S
C930 C929 1.251 1_565 S
C931 H898 0.930 . S
C931 C933 1.406 1_545 S
C931 C936 1.261 . S
C932 H899 0.930 . S
C932 N934 1.325 . S
C932 C935 1.357 . S
C933 H901 0.928 . S
C933 C931 1.406 1_565 S
C933 N934 1.261 . S
N934 Co885 2.214 . S
N934 C932 1.325 . S
N934 C933 1.261 . S
C935 H905 0.931 . S
C935 C932 1.357 . S
C935 C936 1.312 1_565 S
C936 H907 0.930 . S
C936 C931 1.261 . S
C936 C935 1.312 1_545 S
C937 O909 1.214 . S
C937 O917 1.234 . S
C938 H910 0.929 . S
C938 C941 1.391 . S
C938 C943 1.391 . S
C939 H911 0.929 . S
C939 C940 1.390 . S
C939 N942 1.391 . S
C940 H912 0.930 . S
C940 C939 1.390 . S
C940 C941 1.392 . S
C941 H913 0.929 . S
C941 C938 1.391 . S
C941 C940 1.392 . S
N942 Co886 2.257 . S
N942 C939 1.391 . S
N942 C943 1.388 . S
C943 H914 0.930 . S
C943 C938 1.391 . S
C943 N942 1.388 . S
Co944 O946 2.143 1_545 S
Co944 O952 2.074 . S
Co944 O955 2.080 1_545 S
Co944 O968 2.097 . S
Co944 N985 2.151 1_545 S
Co944 N993 2.214 . S
Co945 O946 2.160 1_545 S
Co945 O951 2.058 . S
Co945 O961 2.057 1_545 S
Co945 O976 2.037 . S
Co945 N980 2.145 . S
Co945 N1001 2.257 1_545 S
O946 Co944 2.143 1_565 S
O946 Co945 2.160 1_565 S
C947 O948 1.278 . S
C947 O955 1.245 . S
O948 C947 1.278 . S
C949 O950 1.245 . S
C949 O961 1.232 . S
O950 C949 1.245 . S
O951 Co945 2.058 . S
O951 C977 1.269 . S
O952 Co944 2.074 . S
O952 C977 1.257 . S
H953 C978 0.930 . S
H954 C984 0.930 . S
O955 Co944 2.080 1_565 S
O955 C947 1.245 . S
H956 C988 0.929 . S
H957 C990 0.930 . S
H958 C991 0.930 . S
H959 C989 0.929 1_545 S
H960 C992 0.928 . S
O961 Co945 2.057 1_565 S
O961 C949 1.232 . S
H962 C981 0.929 . S
H963 C982 0.929 1_565 S
H964 C994 0.931 . S
H965 C986 0.929 . S
H966 C995 0.930 . S
H967 C987 0.931 . S
O968 Co944 2.097 . S
O968 C996 1.214 . S
H969 C997 0.929 . S
H970 C998 0.929 . S
H971 C999 0.930 1_455 S
H972 C1000 0.929 1_455 S
H973 C1002 0.930 . S
H974 C979 0.930 . S
H975 C983 0.930 . S
O976 Co945 2.037 . S
O976 C996 1.234 . S
C977 O951 1.269 . S
C977 O952 1.257 . S
C978 H953 0.930 . S
C978 C981 1.388 . S
C978 C983 1.418 1_655 S
C979 H974 0.930 . S
C979 C982 1.404 1_455 S
C979 C983 1.353 . S
N980 Co945 2.145 . S
N980 C981 1.397 . S
N980 C982 1.334 . S
C981 H962 0.929 . S
C981 C978 1.388 . S
C981 N980 1.397 . S
C982 H963 0.929 1_545 S
C982 C979 1.404 1_655 S
C982 N980 1.334 . S
C983 H975 0.930 . S
C983 C978 1.418 1_455 S
C983 C979 1.353 . S
C984 H954 0.930 . S
C984 N985 1.330 . S
C984 C986 1.446 . S
N985 Co944 2.151 1_565 S
N985 C984 1.330 . S
N985 C989 1.418 . S
C986 H965 0.929 . S
C986 C984 1.446 . S
C986 C987 1.332 . S
C987 H967 0.931 . S
C987 C986 1.332 . S
C987 C988 1.267 . S
C988 H956 0.929 . S
C988 C987 1.267 . S
C988 C989 1.251 . S
C989 H959 0.929 1_565 S
C989 N985 1.418 . S
C989 C988 1.251 . S
C990 H957 0.930 . S
C990 C992 1.406 . S
C990 C995 1.261 . S
C991 H958 0.930 . S
C991 N993 1.325 . S
C991 C994 1.357 . S
C992 H960 0.928 . S
C992 C990 1.406 . S
C992 N993 1.261 . S
N993 Co944 2.214 . S
N993 C991 1.325 . S
N993 C992 1.261 . S
C994 H964 0.931 . S
C994 C991 1.357 . S
C994 C995 1.312 . S
C995 H966 0.930 . S
C995 C990 1.261 . S
C995 C994 1.312 . S
C996 O968 1.214 . S
C996 O976 1.234 . S
C997 H969 0.929 . S
C997 C1000 1.391 . S
C997 C1002 1.391 . S
C998 H970 0.929 . S
C998 C999 1.390 . S
C998 N1001 1.391 1_545 S
C999 H971 0.930 1_655 S
C999 C998 1.390 . S
C999 C1000 1.392 1_545 S
C1000 H972 0.929 1_655 S
C1000 C997 1.391 . S
C1000 C999 1.392 1_565 S
N1001 Co945 2.257 1_565 S
N1001 C998 1.391 1_565 S
N1001 C1002 1.388 . S
C1002 H973 0.930 . S
C1002 C997 1.391 . S
C1002 N1001 1.388 . S
Co1003 O1005 2.143 . S
Co1003 O1011 2.074 . S
Co1003 O1014 2.093 . S
Co1003 O1027 2.097 . S
Co1003 N1044 2.151 . S
Co1003 N1052 2.214 . S
Co1004 O1005 2.160 . S
Co1004 O1010 2.058 . S
Co1004 O1020 2.057 . S
Co1004 O1035 2.037 . S
Co1004 N1039 2.145 . S
Co1004 N1060 2.257 . S
O1005 Co1003 2.143 . S
O1005 Co1004 2.160 . S
C1006 O1007 1.278 . S
C1006 O1014 1.224 . S
O1007 C1006 1.278 . S
C1008 O1009 1.245 . S
C1008 O1020 1.232 . S
O1009 C1008 1.245 . S
O1010 Co1004 2.058 . S
O1010 C1036 1.269 . S
O1011 Co1003 2.074 . S
O1011 C1036 1.257 . S
H1012 C1037 0.930 . S
H1013 C1043 0.930 . S
O1014 Co1003 2.093 . S
O1014 C1006 1.224 . S
H1015 C1047 0.929 . S
H1016 C1049 0.930 . S
H1017 C1050 0.930 . S
H1018 C1048 0.929 . S
H1019 C1051 0.928 . S
O1020 Co1004 2.057 . S
O1020 C1008 1.232 . S
H1021 C1040 0.929 . S
H1022 C1041 0.929 . S
H1023 C1053 0.931 . S
H1024 C1045 0.929 . S
H1025 C1054 0.930 . S
H1026 C1046 0.931 . S
O1027 Co1003 2.097 . S
O1027 C1055 1.214 . S
H1028 C1056 0.929 . S
H1029 C1057 0.929 . S
H1030 C1058 0.930 . S
H1031 C1059 0.929 . S
H1032 C1061 0.930 . S
H1033 C1038 0.930 . S
H1034 C1042 0.930 . S
O1035 Co1004 2.037 . S
O1035 C1055 1.234 . S
C1036 O1010 1.269 . S
C1036 O1011 1.257 . S
C1037 H1012 0.930 . S
C1037 C1040 1.388 . S
C1037 C1042 1.418 . S
C1038 H1033 0.930 . S
C1038 C1041 1.404 . S
C1038 C1042 1.353 . S
N1039 Co1004 2.145 . S
N1039 C1040 1.397 . S
N1039 C1041 1.334 . S
C1040 H1021 0.929 . S
C1040 C1037 1.388 . S
C1040 N1039 1.397 . S
C1041 H1022 0.929 . S
C1041 C1038 1.404 . S
C1041 N1039 1.334 . S
C1042 H1034 0.930 . S
C1042 C1037 1.418 . S
C1042 C1038 1.353 . S
C1043 H1013 0.930 . S
C1043 N1044 1.330 . S
C1043 C1045 1.446 . S
N1044 Co1003 2.151 . S
N1044 C1043 1.330 . S
N1044 C1048 1.418 . S
C1045 H1024 0.929 . S
C1045 C1043 1.446 . S
C1045 C1046 1.332 . S
C1046 H1026 0.931 . S
C1046 C1045 1.332 . S
C1046 C1047 1.267 . S
C1047 H1015 0.929 . S
C1047 C1046 1.267 . S
C1047 C1048 1.251 . S
C1048 H1018 0.929 . S
C1048 N1044 1.418 . S
C1048 C1047 1.251 . S
C1049 H1016 0.930 . S
C1049 C1051 1.406 . S
C1049 C1054 1.261 . S
C1050 H1017 0.930 . S
C1050 N1052 1.325 . S
C1050 C1053 1.357 . S
C1051 H1019 0.928 . S
C1051 C1049 1.406 . S
C1051 N1052 1.261 . S
N1052 Co1003 2.214 . S
N1052 C1050 1.325 . S
N1052 C1051 1.261 . S
C1053 H1023 0.931 . S
C1053 C1050 1.357 . S
C1053 C1054 1.312 . S
C1054 H1025 0.930 . S
C1054 C1049 1.261 . S
C1054 C1053 1.312 . S
C1055 O1027 1.214 . S
C1055 O1035 1.234 . S
C1056 H1028 0.929 . S
C1056 C1059 1.391 . S
C1056 C1061 1.391 . S
C1057 H1029 0.929 . S
C1057 C1058 1.390 . S
C1057 N1060 1.391 . S
C1058 H1030 0.930 . S
C1058 C1057 1.390 . S
C1058 C1059 1.392 . S
C1059 H1031 0.929 . S
C1059 C1056 1.391 . S
C1059 C1058 1.392 . S
N1060 Co1004 2.257 . S
N1060 C1057 1.391 . S
N1060 C1061 1.388 . S
C1061 H1032 0.930 . S
C1061 C1056 1.391 . S
C1061 N1060 1.388 . S
Co1062 O1064 2.143 . S
Co1062 O1070 2.074 . S
Co1062 O1073 2.093 . S
Co1062 O1086 2.097 . S
Co1062 N1103 2.151 . S
Co1062 N1111 2.214 . S
Co1063 O1064 2.160 . S
Co1063 O1069 2.058 . S
Co1063 O1079 2.057 . S
Co1063 O1094 2.037 . S
Co1063 N1098 2.145 . S
Co1063 N1119 2.257 . S
O1064 Co1062 2.143 . S
O1064 Co1063 2.160 . S
C1065 O1066 1.278 . S
C1065 O1073 1.224 . S
O1066 C1065 1.278 . S
C1067 O1068 1.245 . S
C1067 O1079 1.232 . S
O1068 C1067 1.245 . S
O1069 Co1063 2.058 . S
O1069 C1095 1.269 . S
O1070 Co1062 2.074 . S
O1070 C1095 1.257 . S
H1071 C1096 0.930 . S
H1072 C1102 0.930 . S
O1073 Co1062 2.093 . S
O1073 C1065 1.224 . S
H1074 C1106 0.929 . S
H1075 C1108 0.930 . S
H1076 C1109 0.930 . S
H1077 C1107 0.929 . S
H1078 C1110 0.928 . S
O1079 Co1063 2.057 . S
O1079 C1067 1.232 . S
H1080 C1099 0.929 . S
H1081 C1100 0.929 . S
H1082 C1112 0.931 . S
H1083 C1104 0.929 . S
H1084 C1113 0.930 . S
H1085 C1105 0.931 . S
O1086 Co1062 2.097 . S
O1086 C1114 1.214 . S
H1087 C1115 0.929 . S
H1088 C1116 0.929 . S
H1089 C1117 0.930 . S
H1090 C1118 0.929 . S
H1091 C1120 0.930 . S
H1092 C1097 0.930 . S
H1093 C1101 0.930 . S
O1094 Co1063 2.037 . S
O1094 C1114 1.234 . S
C1095 O1069 1.269 . S
C1095 O1070 1.257 . S
C1096 H1071 0.930 . S
C1096 C1099 1.388 . S
C1096 C1101 1.418 . S
C1097 H1092 0.930 . S
C1097 C1100 1.404 . S
C1097 C1101 1.353 . S
N1098 Co1063 2.145 . S
N1098 C1099 1.397 . S
N1098 C1100 1.334 . S
C1099 H1080 0.929 . S
C1099 C1096 1.388 . S
C1099 N1098 1.397 . S
C1100 H1081 0.929 . S
C1100 C1097 1.404 . S
C1100 N1098 1.334 . S
C1101 H1093 0.930 . S
C1101 C1096 1.418 . S
C1101 C1097 1.353 . S
C1102 H1072 0.930 . S
C1102 N1103 1.330 . S
C1102 C1104 1.446 . S
N1103 Co1062 2.151 . S
N1103 C1102 1.330 . S
N1103 C1107 1.418 . S
C1104 H1083 0.929 . S
C1104 C1102 1.446 . S
C1104 C1105 1.332 . S
C1105 H1085 0.931 . S
C1105 C1104 1.332 . S
C1105 C1106 1.267 . S
C1106 H1074 0.929 . S
C1106 C1105 1.267 . S
C1106 C1107 1.251 . S
C1107 H1077 0.929 . S
C1107 N1103 1.418 . S
C1107 C1106 1.251 . S
C1108 H1075 0.930 . S
C1108 C1110 1.406 . S
C1108 C1113 1.261 . S
C1109 H1076 0.930 . S
C1109 N1111 1.325 . S
C1109 C1112 1.357 . S
C1110 H1078 0.928 . S
C1110 C1108 1.406 . S
C1110 N1111 1.261 . S
N1111 Co1062 2.214 . S
N1111 C1109 1.325 . S
N1111 C1110 1.261 . S
C1112 H1082 0.931 . S
C1112 C1109 1.357 . S
C1112 C1113 1.312 . S
C1113 H1084 0.930 . S
C1113 C1108 1.261 . S
C1113 C1112 1.312 . S
C1114 O1086 1.214 . S
C1114 O1094 1.234 . S
C1115 H1087 0.929 . S
C1115 C1118 1.391 . S
C1115 C1120 1.391 . S
C1116 H1088 0.929 . S
C1116 C1117 1.390 . S
C1116 N1119 1.391 . S
C1117 H1089 0.930 . S
C1117 C1116 1.390 . S
C1117 C1118 1.392 . S
C1118 H1090 0.929 . S
C1118 C1115 1.391 . S
C1118 C1117 1.392 . S
N1119 Co1063 2.257 . S
N1119 C1116 1.391 . S
N1119 C1120 1.388 . S
C1120 H1091 0.930 . S
C1120 C1115 1.391 . S
C1120 N1119 1.388 . S
Co1121 O1123 2.143 1_545 S
Co1121 O1129 2.074 . S
Co1121 O1132 2.093 1_545 S
Co1121 O1145 2.097 . S
Co1121 N1162 2.151 1_545 S
Co1121 N1170 2.214 . S
Co1122 O1123 2.160 1_545 S
Co1122 O1128 2.058 . S
Co1122 O1138 2.057 1_545 S
Co1122 O1153 2.037 . S
Co1122 N1157 2.145 . S
Co1122 N1178 2.257 1_545 S
O1123 Co1121 2.143 1_565 S
O1123 Co1122 2.160 1_565 S
C1124 O1125 1.278 . S
C1124 O1132 1.224 . S
O1125 C1124 1.278 . S
C1126 O1127 1.245 . S
C1126 O1138 1.232 . S
O1127 C1126 1.245 . S
O1128 Co1122 2.058 . S
O1128 C1154 1.269 . S
O1129 Co1121 2.074 . S
O1129 C1154 1.257 . S
H1130 C1155 0.930 . S
H1131 C1161 0.930 . S
O1132 Co1121 2.093 1_565 S
O1132 C1124 1.224 . S
H1133 C1165 0.929 . S
H1134 C1167 0.930 . S
H1135 C1168 0.930 . S
H1136 C1166 0.929 . S
H1137 C1169 0.928 1_565 S
O1138 Co1122 2.057 1_565 S
O1138 C1126 1.232 . S
H1139 C1158 0.929 . S
H1140 C1159 0.929 . S
H1141 C1171 0.931 . S
H1142 C1163 0.929 . S
H1143 C1172 0.930 . S
H1144 C1164 0.931 . S
O1145 Co1121 2.097 . S
O1145 C1173 1.214 . S
H1146 C1174 0.929 . S
H1147 C1175 0.929 . S
H1148 C1176 0.930 . S
H1149 C1177 0.929 . S
H1150 C1179 0.930 . S
H1151 C1156 0.930 . S
H1152 C1160 0.930 . S
O1153 Co1122 2.037 . S
O1153 C1173 1.234 . S
C1154 O1128 1.269 . S
C1154 O1129 1.257 . S
C1155 H1130 0.930 . S
C1155 C1158 1.388 . S
C1155 C1160 1.418 . S
C1156 H1151 0.930 . S
C1156 C1159 1.404 . S
C1156 C1160 1.353 . S
N1157 Co1122 2.145 . S
N1157 C1158 1.397 . S
N1157 C1159 1.334 . S
C1158 H1139 0.929 . S
C1158 C1155 1.388 . S
C1158 N1157 1.397 . S
C1159 H1140 0.929 . S
C1159 C1156 1.404 . S
C1159 N1157 1.334 . S
C1160 H1152 0.930 . S
C1160 C1155 1.418 . S
C1160 C1156 1.353 . S
C1161 H1131 0.930 . S
C1161 N1162 1.330 . S
C1161 C1163 1.446 . S
N1162 Co1121 2.151 1_565 S
N1162 C1161 1.330 . S
N1162 C1166 1.418 1_565 S
C1163 H1142 0.929 . S
C1163 C1161 1.446 . S
C1163 C1164 1.332 . S
C1164 H1144 0.931 . S
C1164 C1163 1.332 . S
C1164 C1165 1.267 1_565 S
C1165 H1133 0.929 . S
C1165 C1164 1.267 1_545 S
C1165 C1166 1.251 . S
C1166 H1136 0.929 . S
C1166 N1162 1.418 1_545 S
C1166 C1165 1.251 . S
C1167 H1134 0.930 . S
C1167 C1169 1.406 . S
C1167 C1172 1.261 . S
C1168 H1135 0.930 . S
C1168 N1170 1.325 . S
C1168 C1171 1.357 . S
C1169 H1137 0.928 1_545 S
C1169 C1167 1.406 . S
C1169 N1170 1.261 . S
N1170 Co1121 2.214 . S
N1170 C1168 1.325 . S
N1170 C1169 1.261 . S
C1171 H1141 0.931 . S
C1171 C1168 1.357 . S
C1171 C1172 1.312 . S
C1172 H1143 0.930 . S
C1172 C1167 1.261 . S
C1172 C1171 1.312 . S
C1173 O1145 1.214 . S
C1173 O1153 1.234 . S
C1174 H1146 0.929 . S
C1174 C1177 1.391 . S
C1174 C1179 1.391 . S
C1175 H1147 0.929 . S
C1175 C1176 1.390 1_545 S
C1175 N1178 1.391 1_545 S
C1176 H1148 0.930 . S
C1176 C1175 1.390 1_565 S
C1176 C1177 1.392 . S
C1177 H1149 0.929 . S
C1177 C1174 1.391 . S
C1177 C1176 1.392 . S
N1178 Co1122 2.257 1_565 S
N1178 C1175 1.391 1_565 S
N1178 C1179 1.388 . S
C1179 H1150 0.930 . S
C1179 C1174 1.391 . S
C1179 N1178 1.388 . S
Co1180 O1182 2.143 1_554 S
Co1180 O1188 2.074 . S
Co1180 O1191 2.093 . S
Co1180 O1204 2.097 . S
Co1180 N1221 2.151 1_554 S
Co1180 N1229 2.214 . S
Co1181 O1182 2.160 1_554 S
Co1181 O1187 2.058 . S
Co1181 O1197 2.057 1_554 S
Co1181 O1212 2.037 . S
Co1181 N1216 2.145 . S
Co1181 N1237 2.257 1_554 S
O1182 Co1180 2.143 1_556 S
O1182 Co1181 2.160 1_556 S
C1183 O1184 1.278 . S
C1183 O1191 1.224 1_556 S
O1184 C1183 1.278 . S
C1185 O1186 1.245 . S
C1185 O1197 1.232 . S
O1186 C1185 1.245 . S
O1187 Co1181 2.058 . S
O1187 C1213 1.269 . S
O1188 Co1180 2.074 . S
O1188 C1213 1.257 . S
H1189 C1214 0.930 . S
H1190 C1220 0.930 . S
O1191 Co1180 2.093 . S
O1191 C1183 1.224 1_554 S
H1192 C1224 0.929 1_554 S
H1193 C1226 0.930 . S
H1194 C1227 0.930 . S
H1195 C1225 0.929 . S
H1196 C1228 0.928 . S
O1197 Co1181 2.057 1_556 S
O1197 C1185 1.232 . S
H1198 C1217 0.929 . S
H1199 C1218 0.927 . S
H1200 C1230 0.931 . S
H1201 C1222 0.929 . S
H1202 C1231 0.930 . S
H1203 C1223 0.931 . S
O1204 Co1180 2.097 . S
O1204 C1232 1.214 . S
H1205 C1233 0.929 . S
H1206 C1234 0.929 . S
H1207 C1235 0.913 1_554 S
H1208 C1236 0.929 . S
H1209 C1238 0.930 . S
H1210 C1215 0.930 1_556 S
H1211 C1219 0.930 . S
O1212 Co1181 2.037 . S
O1212 C1232 1.234 . S
C1213 O1187 1.269 . S
C1213 O1188 1.257 . S
C1214 H1189 0.930 . S
C1214 C1217 1.388 . S
C1214 C1219 1.418 . S
C1215 H1210 0.930 1_554 S
C1215 C1218 1.404 1_554 S
C1215 C1219 1.353 . S
N1216 Co1181 2.145 . S
N1216 C1217 1.397 . S
N1216 C1218 1.336 1_554 S
C1217 H1198 0.929 . S
C1217 C1214 1.388 . S
C1217 N1216 1.397 . S
C1218 H1199 0.927 . S
C1218 C1215 1.404 1_556 S
C1218 N1216 1.336 1_556 S
C1219 H1211 0.930 . S
C1219 C1214 1.418 . S
C1219 C1215 1.353 . S
C1220 H1190 0.930 . S
C1220 N1221 1.330 . S
C1220 C1222 1.446 . S
N1221 Co1180 2.151 1_556 S
N1221 C1220 1.330 . S
N1221 C1225 1.418 1_556 S
C1222 H1201 0.929 . S
C1222 C1220 1.446 . S
C1222 C1223 1.332 . S
C1223 H1203 0.931 . S
C1223 C1222 1.332 . S
C1223 C1224 1.267 . S
C1224 H1192 0.929 1_556 S
C1224 C1223 1.267 . S
C1224 C1225 1.251 1_556 S
C1225 H1195 0.929 . S
C1225 N1221 1.418 1_554 S
C1225 C1224 1.251 1_554 S
C1226 H1193 0.930 . S
C1226 C1228 1.406 . S
C1226 C1231 1.261 . S
C1227 H1194 0.930 . S
C1227 N1229 1.325 . S
C1227 C1230 1.357 . S
C1228 H1196 0.928 . S
C1228 C1226 1.406 . S
C1228 N1229 1.261 . S
N1229 Co1180 2.214 . S
N1229 C1227 1.325 . S
N1229 C1228 1.261 . S
C1230 H1200 0.931 . S
C1230 C1227 1.357 . S
C1230 C1231 1.312 . S
C1231 H1202 0.930 . S
C1231 C1226 1.261 . S
C1231 C1230 1.312 . S
C1232 O1204 1.214 . S
C1232 O1212 1.234 . S
C1233 H1205 0.929 . S
C1233 C1236 1.391 . S
C1233 C1238 1.391 . S
C1234 H1206 0.929 . S
C1234 C1235 1.385 1_554 S
C1234 N1237 1.391 1_554 S
C1235 H1207 0.913 1_556 S
C1235 C1234 1.385 1_556 S
C1235 C1236 1.414 . S
C1236 H1208 0.929 . S
C1236 C1233 1.391 . S
C1236 C1235 1.414 . S
N1237 Co1181 2.257 1_556 S
N1237 C1234 1.391 1_556 S
N1237 C1238 1.388 . S
C1238 H1209 0.930 . S
C1238 C1233 1.391 . S
C1238 N1237 1.388 . S
Co1239 O1241 2.143 . S
Co1239 O1247 2.074 . S
Co1239 O1250 2.093 . S
Co1239 O1263 2.097 . S
Co1239 N1280 2.151 . S
Co1239 N1288 2.214 . S
Co1240 O1241 2.160 . S
Co1240 O1246 2.058 . S
Co1240 O1256 2.057 . S
Co1240 O1271 2.037 . S
Co1240 N1275 2.145 . S
Co1240 N1296 2.257 . S
O1241 Co1239 2.143 . S
O1241 Co1240 2.160 . S
C1242 O1243 1.278 . S
C1242 O1250 1.224 . S
O1243 C1242 1.278 . S
C1244 O1245 1.245 . S
C1244 O1256 1.232 . S
O1245 C1244 1.245 . S
O1246 Co1240 2.058 . S
O1246 C1272 1.269 . S
O1247 Co1239 2.074 . S
O1247 C1272 1.257 . S
H1248 C1273 0.930 . S
H1249 C1279 0.930 . S
O1250 Co1239 2.093 . S
O1250 C1242 1.224 . S
H1251 C1283 0.929 . S
H1252 C1285 0.930 . S
H1253 C1286 0.930 . S
H1254 C1284 0.929 . S
H1255 C1287 0.928 . S
O1256 Co1240 2.057 . S
O1256 C1244 1.232 . S
H1257 C1276 0.929 . S
H1258 C1277 0.929 . S
H1259 C1289 0.931 . S
H1260 C1281 0.929 . S
H1261 C1290 0.930 . S
H1262 C1282 0.931 . S
O1263 Co1239 2.097 . S
O1263 C1291 1.214 . S
H1264 C1292 0.929 . S
H1265 C1293 0.929 . S
H1266 C1294 0.924 1_455 S
H1267 C1295 0.929 1_455 S
H1268 C1297 0.930 . S
H1269 C1274 0.930 . S
H1270 C1278 0.930 . S
O1271 Co1240 2.037 . S
O1271 C1291 1.234 . S
C1272 O1246 1.269 . S
C1272 O1247 1.257 . S
C1273 H1248 0.930 . S
C1273 C1276 1.388 . S
C1273 C1278 1.418 1_655 S
C1274 H1269 0.930 . S
C1274 C1277 1.404 1_455 S
C1274 C1278 1.353 . S
N1275 Co1240 2.145 . S
N1275 C1276 1.397 . S
N1275 C1277 1.334 . S
C1276 H1257 0.929 . S
C1276 C1273 1.388 . S
C1276 N1275 1.397 . S
C1277 H1258 0.929 . S
C1277 C1274 1.404 1_655 S
C1277 N1275 1.334 . S
C1278 H1270 0.930 . S
C1278 C1273 1.418 1_455 S
C1278 C1274 1.353 . S
C1279 H1249 0.930 . S
C1279 N1280 1.330 . S
C1279 C1281 1.446 . S
N1280 Co1239 2.151 . S
N1280 C1279 1.330 . S
N1280 C1284 1.418 . S
C1281 H1260 0.929 . S
C1281 C1279 1.446 . S
C1281 C1282 1.332 . S
C1282 H1262 0.931 . S
C1282 C1281 1.332 . S
C1282 C1283 1.267 . S
C1283 H1251 0.929 . S
C1283 C1282 1.267 . S
C1283 C1284 1.251 . S
C1284 H1254 0.929 . S
C1284 N1280 1.418 . S
C1284 C1283 1.251 . S
C1285 H1252 0.930 . S
C1285 C1287 1.406 . S
C1285 C1290 1.261 . S
C1286 H1253 0.930 . S
C1286 N1288 1.325 . S
C1286 C1289 1.357 . S
C1287 H1255 0.928 . S
C1287 C1285 1.406 . S
C1287 N1288 1.261 . S
N1288 Co1239 2.214 . S
N1288 C1286 1.325 . S
N1288 C1287 1.261 . S
C1289 H1259 0.931 . S
C1289 C1286 1.357 . S
C1289 C1290 1.312 . S
C1290 H1261 0.930 . S
C1290 C1285 1.261 . S
C1290 C1289 1.312 . S
C1291 O1263 1.214 . S
C1291 O1271 1.234 . S
C1292 H1264 0.929 . S
C1292 C1295 1.391 . S
C1292 C1297 1.391 . S
C1293 H1265 0.929 . S
C1293 C1294 1.394 . S
C1293 N1296 1.391 . S
C1294 H1266 0.924 1_655 S
C1294 C1293 1.394 . S
C1294 C1295 1.393 . S
C1295 H1267 0.929 1_655 S
C1295 C1292 1.391 . S
C1295 C1294 1.393 . S
N1296 Co1240 2.257 . S
N1296 C1293 1.391 . S
N1296 C1297 1.388 . S
C1297 H1268 0.930 . S
C1297 C1292 1.391 . S
C1297 N1296 1.388 . S
Co1298 O1300 2.143 . S
Co1298 O1306 2.074 . S
Co1298 O1309 2.093 . S
Co1298 O1322 2.097 . S
Co1298 N1339 2.151 . S
Co1298 N1347 2.214 . S
Co1299 O1300 2.160 . S
Co1299 O1305 2.058 . S
Co1299 O1315 2.057 . S
Co1299 O1330 2.037 . S
Co1299 N1334 2.145 . S
Co1299 N1355 2.257 . S
O1300 Co1298 2.143 . S
O1300 Co1299 2.160 . S
C1301 O1302 1.278 . S
C1301 O1309 1.224 . S
O1302 C1301 1.278 . S
C1303 O1304 1.245 . S
C1303 O1315 1.232 . S
O1304 C1303 1.245 . S
O1305 Co1299 2.058 . S
O1305 C1331 1.269 . S
O1306 Co1298 2.074 . S
O1306 C1331 1.257 . S
H1307 C1332 0.930 . S
H1308 C1338 0.930 . S
O1309 Co1298 2.093 . S
O1309 C1301 1.224 . S
H1310 C1342 0.929 . S
H1311 C1344 0.930 . S
H1312 C1345 0.930 . S
H1313 C1343 0.929 . S
H1314 C1346 0.928 . S
O1315 Co1299 2.057 . S
O1315 C1303 1.232 . S
H1316 C1335 0.929 . S
H1317 C1336 0.929 . S
H1318 C1348 0.931 . S
H1319 C1340 0.929 . S
H1320 C1349 0.930 . S
H1321 C1341 0.931 . S
O1322 Co1298 2.097 . S
O1322 C1350 1.214 . S
H1323 C1351 0.929 . S
H1324 C1352 0.929 . S
H1325 C1353 0.930 . S
H1326 C1354 0.929 . S
H1327 C1356 0.930 . S
H1328 C1333 0.930 . S
H1329 C1337 0.930 . S
O1330 Co1299 2.037 . S
O1330 C1350 1.234 . S
C1331 O1305 1.269 . S
C1331 O1306 1.257 . S
C1332 H1307 0.930 . S
C1332 C1335 1.388 . S
C1332 C1337 1.418 . S
C1333 H1328 0.930 . S
C1333 C1336 1.404 . S
C1333 C1337 1.353 . S
N1334 Co1299 2.145 . S
N1334 C1335 1.397 . S
N1334 C1336 1.334 . S
C1335 H1316 0.929 . S
C1335 C1332 1.388 . S
C1335 N1334 1.397 . S
C1336 H1317 0.929 . S
C1336 C1333 1.404 . S
C1336 N1334 1.334 . S
C1337 H1329 0.930 . S
C1337 C1332 1.418 . S
C1337 C1333 1.353 . S
C1338 H1308 0.930 . S
C1338 N1339 1.330 . S
C1338 C1340 1.446 . S
N1339 Co1298 2.151 . S
N1339 C1338 1.330 . S
N1339 C1343 1.418 . S
C1340 H1319 0.929 . S
C1340 C1338 1.446 . S
C1340 C1341 1.332 . S
C1341 H1321 0.931 . S
C1341 C1340 1.332 . S
C1341 C1342 1.267 . S
C1342 H1310 0.929 . S
C1342 C1341 1.267 . S
C1342 C1343 1.251 . S
C1343 H1313 0.929 . S
C1343 N1339 1.418 . S
C1343 C1342 1.251 . S
C1344 H1311 0.930 . S
C1344 C1346 1.406 . S
C1344 C1349 1.261 . S
C1345 H1312 0.930 . S
C1345 N1347 1.325 . S
C1345 C1348 1.357 . S
C1346 H1314 0.928 . S
C1346 C1344 1.406 . S
C1346 N1347 1.261 . S
N1347 Co1298 2.214 . S
N1347 C1345 1.325 . S
N1347 C1346 1.261 . S
C1348 H1318 0.931 . S
C1348 C1345 1.357 . S
C1348 C1349 1.312 . S
C1349 H1320 0.930 . S
C1349 C1344 1.261 . S
C1349 C1348 1.312 . S
C1350 O1322 1.214 . S
C1350 O1330 1.234 . S
C1351 H1323 0.929 . S
C1351 C1354 1.391 . S
C1351 C1356 1.391 . S
C1352 H1324 0.929 . S
C1352 C1353 1.390 . S
C1352 N1355 1.391 . S
C1353 H1325 0.930 . S
C1353 C1352 1.390 . S
C1353 C1354 1.392 . S
C1354 H1326 0.929 . S
C1354 C1351 1.391 . S
C1354 C1353 1.392 . S
N1355 Co1299 2.257 . S
N1355 C1352 1.391 . S
N1355 C1356 1.388 . S
C1356 H1327 0.930 . S
C1356 C1351 1.391 . S
C1356 N1355 1.388 . S
Co1357 O1359 2.143 . S
Co1357 O1365 2.074 . S
Co1357 O1368 2.093 . S
Co1357 O1381 2.097 . S
Co1357 N1398 2.151 . S
Co1357 N1406 2.214 . S
Co1358 O1359 2.160 . S
Co1358 O1364 2.058 . S
Co1358 O1374 2.057 . S
Co1358 O1389 2.037 . S
Co1358 N1393 2.145 . S
Co1358 N1414 2.257 . S
O1359 Co1357 2.143 . S
O1359 Co1358 2.160 . S
C1360 O1361 1.278 . S
C1360 O1368 1.224 . S
O1361 C1360 1.278 . S
C1362 O1363 1.245 . S
C1362 O1374 1.232 . S
O1363 C1362 1.245 . S
O1364 Co1358 2.058 . S
O1364 C1390 1.269 . S
O1365 Co1357 2.074 . S
O1365 C1390 1.257 . S
H1366 C1391 0.930 . S
H1367 C1397 0.930 . S
O1368 Co1357 2.093 . S
O1368 C1360 1.224 . S
H1369 C1401 0.929 . S
H1370 C1403 0.930 . S
H1371 C1404 0.930 . S
H1372 C1402 0.929 . S
H1373 C1405 0.928 . S
O1374 Co1358 2.057 . S
O1374 C1362 1.232 . S
H1375 C1394 0.929 . S
H1376 C1395 0.929 . S
H1377 C1407 0.931 . S
H1378 C1399 0.929 . S
H1379 C1408 0.930 . S
H1380 C1400 0.931 . S
O1381 Co1357 2.097 . S
O1381 C1409 1.214 . S
H1382 C1410 0.929 . S
H1383 C1411 0.929 . S
H1384 C1412 0.930 . S
H1385 C1413 0.929 . S
H1386 C1415 0.930 . S
H1387 C1392 0.930 . S
H1388 C1396 0.930 . S
O1389 Co1358 2.037 . S
O1389 C1409 1.234 . S
C1390 O1364 1.269 . S
C1390 O1365 1.257 . S
C1391 H1366 0.930 . S
C1391 C1394 1.388 . S
C1391 C1396 1.418 . S
C1392 H1387 0.930 . S
C1392 C1395 1.404 . S
C1392 C1396 1.353 . S
N1393 Co1358 2.145 . S
N1393 C1394 1.397 . S
N1393 C1395 1.334 . S
C1394 H1375 0.929 . S
C1394 C1391 1.388 . S
C1394 N1393 1.397 . S
C1395 H1376 0.929 . S
C1395 C1392 1.404 . S
C1395 N1393 1.334 . S
C1396 H1388 0.930 . S
C1396 C1391 1.418 . S
C1396 C1392 1.353 . S
C1397 H1367 0.930 . S
C1397 N1398 1.330 . S
C1397 C1399 1.446 . S
N1398 Co1357 2.151 . S
N1398 C1397 1.330 . S
N1398 C1402 1.418 . S
C1399 H1378 0.929 . S
C1399 C1397 1.446 . S
C1399 C1400 1.332 . S
C1400 H1380 0.931 . S
C1400 C1399 1.332 . S
C1400 C1401 1.267 . S
C1401 H1369 0.929 . S
C1401 C1400 1.267 . S
C1401 C1402 1.251 . S
C1402 H1372 0.929 . S
C1402 N1398 1.418 . S
C1402 C1401 1.251 . S
C1403 H1370 0.930 . S
C1403 C1405 1.406 . S
C1403 C1408 1.261 . S
C1404 H1371 0.930 . S
C1404 N1406 1.325 . S
C1404 C1407 1.357 . S
C1405 H1373 0.928 . S
C1405 C1403 1.406 . S
C1405 N1406 1.261 . S
N1406 Co1357 2.214 . S
N1406 C1404 1.325 . S
N1406 C1405 1.261 . S
C1407 H1377 0.931 . S
C1407 C1404 1.357 . S
C1407 C1408 1.312 . S
C1408 H1379 0.930 . S
C1408 C1403 1.261 . S
C1408 C1407 1.312 . S
C1409 O1381 1.214 . S
C1409 O1389 1.234 . S
C1410 H1382 0.929 . S
C1410 C1413 1.391 . S
C1410 C1415 1.391 . S
C1411 H1383 0.929 . S
C1411 C1412 1.390 . S
C1411 N1414 1.391 . S
C1412 H1384 0.930 . S
C1412 C1411 1.390 . S
C1412 C1413 1.392 . S
C1413 H1385 0.929 . S
C1413 C1410 1.391 . S
C1413 C1412 1.392 . S
N1414 Co1358 2.257 . S
N1414 C1411 1.391 . S
N1414 C1415 1.388 . S
C1415 H1386 0.930 . S
C1415 C1410 1.391 . S
C1415 N1414 1.388 . S
C1416 C1417 1.363 . S
C1416 C1422 1.379 . S
C1416 N1424 1.356 . S
C1417 C1416 1.363 . S
C1417 C1423 1.363 . S
C1418 C1419 1.363 . S
C1418 C1423 1.379 . S
C1418 N1425 1.356 . S
C1419 C1418 1.363 . S
C1419 C1422 1.363 . S
N1420 C1422 1.356 . S
N1420 H1432 0.984 . S
N1420 H1433 0.985 . S
N1421 C1423 1.356 . S
N1421 H1426 0.984 . S
N1421 H1427 0.985 . S
C1422 C1416 1.379 . S
C1422 C1419 1.363 . S
C1422 N1420 1.356 . S
C1423 C1417 1.363 . S
C1423 C1418 1.379 . S
C1423 N1421 1.356 . S
N1424 C1416 1.356 . S
N1424 H1430 0.984 . S
N1424 H1431 0.984 . S
N1425 C1418 1.356 . S
N1425 H1428 0.984 . S
N1425 H1429 0.985 . S
H1426 N1421 0.984 . S
H1427 N1421 0.985 . S
H1428 N1425 0.984 . S
H1429 N1425 0.985 . S
H1430 N1424 0.984 . S
H1431 N1424 0.984 . S
H1432 N1420 0.984 . S
H1433 N1420 0.985 . S
C1434 C1435 1.363 . S
C1434 C1440 1.379 . S
C1434 N1442 1.356 . S
C1435 C1434 1.363 . S
C1435 C1441 1.363 . S
C1436 C1437 1.363 . S
C1436 C1441 1.379 . S
C1436 N1443 1.356 . S
C1437 C1436 1.363 . S
C1437 C1440 1.363 . S
N1438 C1440 1.356 . S
N1438 H1450 0.984 . S
N1438 H1451 0.985 . S
N1439 C1441 1.356 . S
N1439 H1444 0.984 . S
N1439 H1445 0.985 . S
C1440 C1434 1.379 . S
C1440 C1437 1.363 . S
C1440 N1438 1.356 . S
C1441 C1435 1.363 . S
C1441 C1436 1.379 . S
C1441 N1439 1.356 . S
N1442 C1434 1.356 . S
N1442 H1448 0.984 . S
N1442 H1449 0.984 . S
N1443 C1436 1.356 . S
N1443 H1446 0.984 . S
N1443 H1447 0.985 . S
H1444 N1439 0.984 . S
H1445 N1439 0.985 . S
H1446 N1443 0.984 . S
H1447 N1443 0.985 . S
H1448 N1442 0.984 . S
H1449 N1442 0.984 . S
H1450 N1438 0.984 . S
H1451 N1438 0.985 . S
C1452 C1453 1.363 . S
C1452 C1458 1.379 . S
C1452 N1460 1.356 . S
C1453 C1452 1.363 . S
C1453 C1459 1.363 . S
C1454 C1455 1.363 . S
C1454 C1459 1.379 . S
C1454 N1461 1.356 . S
C1455 C1454 1.363 . S
C1455 C1458 1.363 . S
N1456 C1458 1.356 . S
N1456 H1468 0.984 . S
N1456 H1469 0.985 . S
N1457 C1459 1.356 . S
N1457 H1462 0.984 . S
N1457 H1463 0.985 . S
C1458 C1452 1.379 . S
C1458 C1455 1.363 . S
C1458 N1456 1.356 . S
C1459 C1453 1.363 . S
C1459 C1454 1.379 . S
C1459 N1457 1.356 . S
N1460 C1452 1.356 . S
N1460 H1466 0.984 . S
N1460 H1467 0.984 . S
N1461 C1454 1.356 . S
N1461 H1464 0.984 . S
N1461 H1465 0.985 . S
H1462 N1457 0.984 . S
H1463 N1457 0.985 . S
H1464 N1461 0.984 . S
H1465 N1461 0.985 . S
H1466 N1460 0.984 . S
H1467 N1460 0.984 . S
H1468 N1456 0.984 . S
H1469 N1456 0.985 . S
C1470 C1471 1.363 . S
C1470 C1476 1.379 . S
C1470 N1478 1.356 . S
C1471 C1470 1.363 . S
C1471 C1477 1.363 . S
C1472 C1473 1.363 . S
C1472 C1477 1.379 . S
C1472 N1479 1.356 . S
C1473 C1472 1.363 . S
C1473 C1476 1.363 . S
N1474 C1476 1.356 . S
N1474 H1486 0.984 . S
N1474 H1487 0.985 . S
N1475 C1477 1.356 . S
N1475 H1480 0.984 . S
N1475 H1481 0.985 . S
C1476 C1470 1.379 . S
C1476 C1473 1.363 . S
C1476 N1474 1.356 . S
C1477 C1471 1.363 . S
C1477 C1472 1.379 . S
C1477 N1475 1.356 . S
N1478 C1470 1.356 . S
N1478 H1484 0.984 . S
N1478 H1485 0.984 . S
N1479 C1472 1.356 . S
N1479 H1482 0.984 1_554 S
N1479 H1483 0.985 1_554 S
H1480 N1475 0.984 . S
H1481 N1475 0.985 . S
H1482 N1479 0.984 1_556 S
H1483 N1479 0.985 1_556 S
H1484 N1478 0.984 . S
H1485 N1478 0.984 . S
H1486 N1474 0.984 . S
H1487 N1474 0.985 . S
C1488 C1489 1.363 . S
C1488 C1494 1.379 . S
C1488 N1496 1.356 . S
C1489 C1488 1.363 . S
C1489 C1495 1.363 . S
C1490 C1491 1.363 . S
C1490 C1495 1.379 . S
C1490 N1497 1.356 . S
C1491 C1490 1.363 . S
C1491 C1494 1.363 . S
N1492 C1494 1.356 1_655 S
N1492 H1504 0.984 . S
N1492 H1505 0.985 . S
N1493 C1495 1.356 . S
N1493 H1498 0.984 . S
N1493 H1499 0.985 . S
C1494 C1488 1.379 . S
C1494 C1491 1.363 . S
C1494 N1492 1.356 1_455 S
C1495 C1489 1.363 . S
C1495 C1490 1.379 . S
C1495 N1493 1.356 . S
N1496 C1488 1.356 . S
N1496 H1502 0.984 . S
N1496 H1503 0.984 . S
N1497 C1490 1.356 . S
N1497 H1500 0.984 . S
N1497 H1501 0.985 . S
H1498 N1493 0.984 . S
H1499 N1493 0.985 . S
H1500 N1497 0.984 . S
H1501 N1497 0.985 . S
H1502 N1496 0.984 . S
H1503 N1496 0.984 . S
H1504 N1492 0.984 . S
H1505 N1492 0.985 . S
C1506 C1507 1.363 . S
C1506 C1512 1.379 . S
C1506 N1514 1.356 . S
C1507 C1506 1.363 . S
C1507 C1513 1.363 . S
C1508 C1509 1.363 . S
C1508 C1513 1.379 . S
C1508 N1515 1.356 . S
C1509 C1508 1.363 . S
C1509 C1512 1.363 . S
N1510 C1512 1.356 . S
N1510 H1522 0.984 . S
N1510 H1523 0.985 . S
N1511 C1513 1.356 . S
N1511 H1516 0.984 . S
N1511 H1517 0.985 . S
C1512 C1506 1.379 . S
C1512 C1509 1.363 . S
C1512 N1510 1.356 . S
C1513 C1507 1.363 . S
C1513 C1508 1.379 . S
C1513 N1511 1.356 . S
N1514 C1506 1.356 . S
N1514 H1520 0.984 . S
N1514 H1521 0.984 . S
N1515 C1508 1.356 . S
N1515 H1518 0.984 . S
N1515 H1519 0.985 . S
H1516 N1511 0.984 . S
H1517 N1511 0.985 . S
H1518 N1515 0.984 . S
H1519 N1515 0.985 . S
H1520 N1514 0.984 . S
H1521 N1514 0.984 . S
H1522 N1510 0.984 . S
H1523 N1510 0.985 . S
C1524 C1525 1.363 . S
C1524 C1530 1.379 . S
C1524 N1532 1.356 . S
C1525 C1524 1.363 . S
C1525 C1531 1.363 . S
C1526 C1527 1.363 . S
C1526 C1531 1.379 . S
C1526 N1533 1.356 . S
C1527 C1526 1.363 . S
C1527 C1530 1.363 . S
N1528 C1530 1.356 . S
N1528 H1540 0.984 . S
N1528 H1541 0.985 . S
N1529 C1531 1.356 . S
N1529 H1534 0.984 . S
N1529 H1535 0.985 . S
C1530 C1524 1.379 . S
C1530 C1527 1.363 . S
C1530 N1528 1.356 . S
C1531 C1525 1.363 . S
C1531 C1526 1.379 . S
C1531 N1529 1.356 . S
N1532 C1524 1.356 . S
N1532 H1538 0.984 . S
N1532 H1539 0.984 . S
N1533 C1526 1.356 . S
N1533 H1536 0.984 . S
N1533 H1537 0.985 . S
H1534 N1529 0.984 . S
H1535 N1529 0.985 . S
H1536 N1533 0.984 . S
H1537 N1533 0.985 . S
H1538 N1532 0.984 . S
H1539 N1532 0.984 . S
H1540 N1528 0.984 . S
H1541 N1528 0.985 . S
C1542 C1543 1.363 . S
C1542 C1548 1.379 . S
C1542 N1550 1.356 . S
C1543 C1542 1.363 . S
C1543 C1549 1.363 . S
C1544 C1545 1.363 . S
C1544 C1549 1.379 . S
C1544 N1551 1.356 . S
C1545 C1544 1.363 . S
C1545 C1548 1.363 . S
N1546 C1548 1.356 1_554 S
N1546 H1558 0.984 . S
N1546 H1559 0.985 . S
N1547 C1549 1.356 . S
N1547 H1552 0.984 . S
N1547 H1553 0.985 . S
C1548 C1542 1.379 . S
C1548 C1545 1.363 . S
C1548 N1546 1.356 1_556 S
C1549 C1543 1.363 . S
C1549 C1544 1.379 . S
C1549 N1547 1.356 . S
N1550 C1542 1.356 . S
N1550 H1556 0.984 . S
N1550 H1557 0.984 . S
N1551 C1544 1.356 . S
N1551 H1554 0.984 . S
N1551 H1555 0.985 . S
H1552 N1547 0.984 . S
H1553 N1547 0.985 . S
H1554 N1551 0.984 . S
H1555 N1551 0.985 . S
H1556 N1550 0.984 . S
H1557 N1550 0.984 . S
H1558 N1546 0.984 . S
H1559 N1546 0.985 . S
C1560 C1561 1.363 . S
C1560 C1566 1.379 . S
C1560 N1568 1.356 . S
C1561 C1560 1.363 . S
C1561 C1567 1.363 . S
C1562 C1563 1.363 . S
C1562 C1567 1.379 . S
C1562 N1569 1.356 . S
C1563 C1562 1.363 . S
C1563 C1566 1.363 . S
N1564 C1566 1.356 . S
N1564 H1576 0.984 . S
N1564 H1577 0.985 . S
N1565 C1567 1.356 . S
N1565 H1570 0.984 . S
N1565 H1571 0.985 . S
C1566 C1560 1.379 . S
C1566 C1563 1.363 . S
C1566 N1564 1.356 . S
C1567 C1561 1.363 . S
C1567 C1562 1.379 . S
C1567 N1565 1.356 . S
N1568 C1560 1.356 . S
N1568 H1574 0.984 . S
N1568 H1575 0.984 . S
N1569 C1562 1.356 . S
N1569 H1572 0.984 . S
N1569 H1573 0.985 1_545 S
H1570 N1565 0.984 . S
H1571 N1565 0.985 . S
H1572 N1569 0.984 . S
H1573 N1569 0.985 1_565 S
H1574 N1568 0.984 . S
H1575 N1568 0.984 . S
H1576 N1564 0.984 . S
H1577 N1564 0.985 . S
C1578 C1579 1.363 . S
C1578 C1584 1.379 . S
C1578 N1586 1.356 . S
C1579 C1578 1.363 . S
C1579 C1585 1.363 . S
C1580 C1581 1.363 . S
C1580 C1585 1.379 . S
C1580 N1587 1.356 . S
C1581 C1580 1.363 . S
C1581 C1584 1.363 . S
N1582 C1584 1.356 . S
N1582 H1594 0.984 . S
N1582 H1595 0.985 . S
N1583 C1585 1.356 . S
N1583 H1588 0.984 1_545 S
N1583 H1589 0.985 1_545 S
C1584 C1578 1.379 . S
C1584 C1581 1.363 . S
C1584 N1582 1.356 . S
C1585 C1579 1.363 . S
C1585 C1580 1.379 . S
C1585 N1583 1.356 . S
N1586 C1578 1.356 . S
N1586 H1592 0.984 . S
N1586 H1593 0.984 . S
N1587 C1580 1.356 . S
N1587 H1590 0.984 . S
N1587 H1591 0.985 . S
H1588 N1583 0.984 1_565 S
H1589 N1583 0.985 1_565 S
H1590 N1587 0.984 . S
H1591 N1587 0.985 . S
H1592 N1586 0.984 . S
H1593 N1586 0.984 . S
H1594 N1582 0.984 . S
H1595 N1582 0.985 . S
C1596 C1597 1.363 . S
C1596 C1602 1.379 . S
C1596 N1604 1.336 1_565 S
C1597 C1596 1.363 . S
C1597 C1603 1.363 . S
C1598 C1599 1.363 . S
C1598 C1603 1.379 . S
C1598 N1605 1.356 . S
C1599 C1598 1.363 . S
C1599 C1602 1.363 . S
N1600 C1602 1.356 . S
N1600 H1612 0.984 . S
N1600 H1613 0.985 . S
N1601 C1603 1.356 . S
N1601 H1606 0.984 . S
N1601 H1607 0.985 . S
C1602 C1596 1.379 . S
C1602 C1599 1.363 . S
C1602 N1600 1.356 . S
C1603 C1597 1.363 . S
C1603 C1598 1.379 . S
C1603 N1601 1.356 . S
N1604 C1596 1.336 1_545 S
N1604 H1610 0.998 . S
N1604 H1611 0.992 . S
N1605 C1598 1.356 . S
N1605 H1608 0.984 . S
N1605 H1609 0.985 . S
H1606 N1601 0.984 . S
H1607 N1601 0.985 . S
H1608 N1605 0.984 . S
H1609 N1605 0.985 . S
H1610 N1604 0.998 . S
H1611 N1604 0.992 . S
H1612 N1600 0.984 . S
H1613 N1600 0.985 . S
C1614 C1615 1.363 . S
C1614 C1620 1.379 . S
C1614 N1622 1.356 . S
C1615 C1614 1.363 . S
C1615 C1621 1.363 . S
C1616 C1617 1.363 . S
C1616 C1621 1.379 . S
C1616 N1623 1.356 . S
C1617 C1616 1.363 . S
C1617 C1620 1.363 . S
N1618 C1620 1.356 . S
N1618 H1630 0.984 1_565 S
N1618 H1631 0.985 1_565 S
N1619 C1621 1.356 . S
N1619 H1624 0.984 . S
N1619 H1625 0.985 . S
C1620 C1614 1.379 . S
C1620 C1617 1.363 . S
C1620 N1618 1.356 . S
C1621 C1615 1.363 . S
C1621 C1616 1.379 . S
C1621 N1619 1.356 . S
N1622 C1614 1.356 . S
N1622 H1628 0.984 . S
N1622 H1629 0.984 . S
N1623 C1616 1.356 . S
N1623 H1626 0.984 . S
N1623 H1627 0.985 . S
H1624 N1619 0.984 . S
H1625 N1619 0.985 . S
H1626 N1623 0.984 . S
H1627 N1623 0.985 . S
H1628 N1622 0.984 . S
H1629 N1622 0.984 . S
H1630 N1618 0.984 1_545 S
H1631 N1618 0.985 1_545 S
C1632 C1633 1.363 . S
C1632 C1638 1.379 . S
C1632 N1640 1.356 . S
C1633 C1632 1.363 . S
C1633 C1639 1.363 . S
C1634 C1635 1.363 . S
C1634 C1639 1.379 . S
C1634 N1641 1.356 . S
C1635 C1634 1.363 . S
C1635 C1638 1.363 . S
N1636 C1638 1.356 . S
N1636 H1648 0.984 . S
N1636 H1649 0.985 . S
N1637 C1639 1.356 . S
N1637 H1642 0.984 . S
N1637 H1643 0.984 . S
C1638 C1632 1.379 . S
C1638 C1635 1.363 . S
C1638 N1636 1.356 . S
C1639 C1633 1.363 . S
C1639 C1634 1.379 . S
C1639 N1637 1.356 . S
N1640 C1632 1.356 . S
N1640 H1646 0.984 . S
N1640 H1647 0.984 . S
N1641 C1634 1.356 . S
N1641 H1644 0.984 . S
N1641 H1645 0.985 . S
H1642 N1637 0.984 . S
H1643 N1637 0.984 . S
H1644 N1641 0.984 . S
H1645 N1641 0.985 . S
H1646 N1640 0.984 . S
H1647 N1640 0.984 . S
H1648 N1636 0.984 . S
H1649 N1636 0.985 . S
C1650 C1651 1.363 . S
C1650 C1656 1.379 . S
C1650 N1658 1.356 . S
C1651 C1650 1.363 . S
C1651 C1657 1.363 . S
C1652 C1653 1.363 . S
C1652 C1657 1.379 . S
C1652 N1659 1.356 . S
C1653 C1652 1.363 . S
C1653 C1656 1.363 . S
N1654 C1656 1.356 . S
N1654 H1666 0.984 . S
N1654 H1667 0.985 . S
N1655 C1657 1.356 . S
N1655 H1660 0.984 . S
N1655 H1661 0.985 . S
C1656 C1650 1.379 . S
C1656 C1653 1.363 . S
C1656 N1654 1.356 . S
C1657 C1651 1.363 . S
C1657 C1652 1.379 . S
C1657 N1655 1.356 . S
N1658 C1650 1.356 . S
N1658 H1664 0.984 . S
N1658 H1665 0.984 . S
N1659 C1652 1.356 . S
N1659 H1662 0.984 . S
N1659 H1663 0.985 . S
H1660 N1655 0.984 . S
H1661 N1655 0.985 . S
H1662 N1659 0.984 . S
H1663 N1659 0.985 . S
H1664 N1658 0.984 . S
H1665 N1658 0.984 . S
H1666 N1654 0.984 . S
H1667 N1654 0.985 . S
C1668 C1669 1.363 . S
C1668 C1674 1.379 . S
C1668 N1676 1.356 . S
C1669 C1668 1.363 . S
C1669 C1675 1.363 . S
C1670 C1671 1.363 . S
C1670 C1675 1.379 . S
C1670 N1677 1.356 . S
C1671 C1670 1.363 . S
C1671 C1674 1.363 . S
N1672 C1674 1.356 . S
N1672 H1684 0.984 . S
N1672 H1685 0.985 . S
N1673 C1675 1.356 . S
N1673 H1678 0.984 . S
N1673 H1679 0.985 . S
C1674 C1668 1.379 . S
C1674 C1671 1.363 . S
C1674 N1672 1.356 . S
C1675 C1669 1.363 . S
C1675 C1670 1.379 . S
C1675 N1673 1.356 . S
N1676 C1668 1.356 . S
N1676 H1682 0.984 . S
N1676 H1683 0.984 . S
N1677 C1670 1.356 . S
N1677 H1680 0.984 . S
N1677 H1681 0.985 . S
H1678 N1673 0.984 . S
H1679 N1673 0.985 . S
H1680 N1677 0.984 . S
H1681 N1677 0.985 . S
H1682 N1676 0.984 . S
H1683 N1676 0.984 . S
H1684 N1672 0.984 . S
H1685 N1672 0.985 . S
C1686 C1687 1.363 . S
C1686 C1692 1.379 . S
C1686 N1694 1.356 . S
C1687 C1686 1.363 . S
C1687 C1693 1.363 . S
C1688 C1689 1.363 . S
C1688 C1693 1.379 . S
C1688 N1695 1.356 . S
C1689 C1688 1.363 . S
C1689 C1692 1.363 . S
N1690 C1692 1.356 . S
N1690 H1702 0.984 . S
N1690 H1703 0.985 . S
N1691 C1693 1.356 . S
N1691 H1696 0.984 1_655 S
N1691 H1697 0.985 1_655 S
C1692 C1686 1.379 . S
C1692 C1689 1.363 . S
C1692 N1690 1.356 . S
C1693 C1687 1.363 . S
C1693 C1688 1.379 . S
C1693 N1691 1.356 . S
N1694 C1686 1.356 . S
N1694 H1700 0.984 . S
N1694 H1701 0.984 . S
N1695 C1688 1.356 . S
N1695 H1698 0.984 . S
N1695 H1699 0.985 . S
H1696 N1691 0.984 1_455 S
H1697 N1691 0.985 1_455 S
H1698 N1695 0.984 . S
H1699 N1695 0.985 . S
H1700 N1694 0.984 . S
H1701 N1694 0.984 . S
H1702 N1690 0.984 . S
H1703 N1690 0.985 . S
C1704 C1705 1.363 . S
C1704 C1710 1.379 . S
C1704 N1712 1.356 . S
C1705 C1704 1.363 . S
C1705 C1711 1.363 . S
C1706 C1707 1.363 . S
C1706 C1711 1.379 . S
C1706 N1713 1.356 . S
C1707 C1706 1.363 . S
C1707 C1710 1.363 . S
N1708 C1710 1.356 . S
N1708 H1720 0.984 . S
N1708 H1721 0.985 . S
N1709 C1711 1.356 . S
N1709 H1714 0.984 . S
N1709 H1715 0.985 . S
C1710 C1704 1.379 . S
C1710 C1707 1.363 . S
C1710 N1708 1.356 . S
C1711 C1705 1.363 . S
C1711 C1706 1.379 . S
C1711 N1709 1.356 . S
N1712 C1704 1.356 . S
N1712 H1718 0.984 . S
N1712 H1719 0.984 . S
N1713 C1706 1.356 . S
N1713 H1716 0.984 . S
N1713 H1717 0.985 . S
H1714 N1709 0.984 . S
H1715 N1709 0.985 . S
H1716 N1713 0.984 . S
H1717 N1713 0.985 . S
H1718 N1712 0.984 . S
H1719 N1712 0.984 . S
H1720 N1708 0.984 . S
H1721 N1708 0.985 . S
C1722 C1723 1.363 . S
C1722 C1728 1.379 . S
C1722 N1730 1.356 . S
C1723 C1722 1.363 . S
C1723 C1729 1.363 . S
C1724 C1725 1.363 . S
C1724 C1729 1.379 . S
C1724 N1731 1.356 . S
C1725 C1724 1.363 . S
C1725 C1728 1.363 . S
N1726 C1728 1.356 . S
N1726 H1738 0.984 . S
N1726 H1739 0.985 . S
N1727 C1729 1.356 . S
N1727 H1732 0.984 . S
N1727 H1733 0.985 . S
C1728 C1722 1.379 . S
C1728 C1725 1.363 . S
C1728 N1726 1.356 . S
C1729 C1723 1.363 . S
C1729 C1724 1.379 . S
C1729 N1727 1.356 . S
N1730 C1722 1.356 . S
N1730 H1736 0.984 . S
N1730 H1737 0.984 . S
N1731 C1724 1.356 . S
N1731 H1734 0.984 . S
N1731 H1735 0.985 . S
H1732 N1727 0.984 . S
H1733 N1727 0.985 . S
H1734 N1731 0.984 . S
H1735 N1731 0.985 . S
H1736 N1730 0.984 . S
H1737 N1730 0.984 . S
H1738 N1726 0.984 . S
H1739 N1726 0.985 . S
C1740 C1741 1.363 . S
C1740 C1746 1.379 . S
C1740 N1748 1.356 1_556 S
C1741 C1740 1.363 . S
C1741 C1747 1.363 . S
C1742 C1743 1.363 . S
C1742 C1747 1.379 . S
C1742 N1749 1.356 . S
C1743 C1742 1.363 . S
C1743 C1746 1.363 . S
N1744 C1746 1.356 . S
N1744 H1756 0.984 . S
N1744 H1757 0.985 . S
N1745 C1747 1.356 . S
N1745 H1750 0.984 . S
N1745 H1751 0.985 . S
C1746 C1740 1.379 . S
C1746 C1743 1.363 . S
C1746 N1744 1.356 . S
C1747 C1741 1.363 . S
C1747 C1742 1.379 . S
C1747 N1745 1.356 . S
N1748 C1740 1.356 1_554 S
N1748 H1754 0.984 . S
N1748 H1755 0.984 . S
N1749 C1742 1.356 . S
N1749 H1752 0.984 . S
N1749 H1753 0.985 . S
H1750 N1745 0.984 . S
H1751 N1745 0.985 . S
H1752 N1749 0.984 . S
H1753 N1749 0.985 . S
H1754 N1748 0.984 . S
H1755 N1748 0.984 . S
H1756 N1744 0.984 . S
H1757 N1744 0.985 . S
C1758 C1759 1.363 . S
C1758 C1764 1.379 . S
C1758 N1766 1.356 . S
C1759 C1758 1.363 . S
C1759 C1765 1.363 . S
C1760 C1761 1.363 . S
C1760 C1765 1.379 . S
C1760 N1767 1.356 . S
C1761 C1760 1.363 . S
C1761 C1764 1.363 . S
N1762 C1764 1.356 . S
N1762 H1774 0.984 . S
N1762 H1775 0.985 . S
N1763 C1765 1.356 . S
N1763 H1768 0.984 . S
N1763 H1769 0.985 . S
C1764 C1758 1.379 . S
C1764 C1761 1.363 . S
C1764 N1762 1.356 . S
C1765 C1759 1.363 . S
C1765 C1760 1.379 . S
C1765 N1763 1.356 . S
N1766 C1758 1.356 . S
N1766 H1772 0.984 . S
N1766 H1773 0.984 . S
N1767 C1760 1.356 . S
N1767 H1770 0.984 . S
N1767 H1771 0.985 . S
H1768 N1763 0.984 . S
H1769 N1763 0.985 . S
H1770 N1767 0.984 . S
H1771 N1767 0.985 . S
H1772 N1766 0.984 . S
H1773 N1766 0.984 . S
H1774 N1762 0.984 . S
H1775 N1762 0.985 . S
C1776 C1777 1.363 . S
C1776 C1782 1.379 . S
C1776 N1784 1.356 . S
C1777 C1776 1.363 . S
C1777 C1783 1.363 . S
C1778 C1779 1.363 . S
C1778 C1783 1.379 . S
C1778 N1785 1.356 . S
C1779 C1778 1.363 . S
C1779 C1782 1.363 . S
N1780 C1782 1.356 . S
N1780 H1792 0.984 . S
N1780 H1793 0.985 . S
N1781 C1783 1.356 . S
N1781 H1786 0.984 . S
N1781 H1787 0.985 . S
C1782 C1776 1.379 . S
C1782 C1779 1.363 . S
C1782 N1780 1.356 . S
C1783 C1777 1.363 . S
C1783 C1778 1.379 . S
C1783 N1781 1.356 . S
N1784 C1776 1.356 . S
N1784 H1790 0.984 . S
N1784 H1791 0.984 . S
N1785 C1778 1.356 . S
N1785 H1788 0.984 . S
N1785 H1789 0.985 . S
H1786 N1781 0.984 . S
H1787 N1781 0.985 . S
H1788 N1785 0.984 . S
H1789 N1785 0.985 . S
H1790 N1784 0.984 . S
H1791 N1784 0.984 . S
H1792 N1780 0.984 . S
H1793 N1780 0.985 . S
C1794 C1795 1.363 . S
C1794 C1800 1.379 . S
C1794 N1802 1.356 . S
C1795 C1794 1.363 . S
C1795 C1801 1.363 . S
C1796 C1797 1.363 . S
C1796 C1801 1.379 . S
C1796 N1803 1.356 . S
C1797 C1796 1.363 . S
C1797 C1800 1.363 . S
N1798 C1800 1.356 . S
N1798 H1810 0.984 . S
N1798 H1811 0.985 . S
N1799 C1801 1.356 . S
N1799 H1804 0.984 . S
N1799 H1805 0.985 . S
C1800 C1794 1.379 . S
C1800 C1797 1.363 . S
C1800 N1798 1.356 . S
C1801 C1795 1.363 . S
C1801 C1796 1.379 . S
C1801 N1799 1.356 . S
N1802 C1794 1.356 . S
N1802 H1808 0.984 . S
N1802 H1809 0.984 . S
N1803 C1796 1.356 . S
N1803 H1806 0.984 . S
N1803 H1807 0.985 . S
H1804 N1799 0.984 . S
H1805 N1799 0.985 . S
H1806 N1803 0.984 . S
H1807 N1803 0.985 . S
H1808 N1802 0.984 . S
H1809 N1802 0.984 . S
H1810 N1798 0.984 . S
H1811 N1798 0.985 . S
C1812 C1813 1.363 . S
C1812 C1818 1.379 . S
C1812 N1820 1.356 . S
C1813 C1812 1.363 . S
C1813 C1819 1.363 . S
C1814 C1815 1.363 . S
C1814 C1819 1.379 . S
C1814 N1821 1.356 . S
C1815 C1814 1.363 . S
C1815 C1818 1.363 . S
N1816 C1818 1.356 . S
N1816 H1828 0.984 . S
N1816 H1829 0.985 . S
N1817 C1819 1.356 . S
N1817 H1822 0.984 . S
N1817 H1823 0.985 . S
C1818 C1812 1.379 . S
C1818 C1815 1.363 . S
C1818 N1816 1.356 . S
C1819 C1813 1.363 . S
C1819 C1814 1.379 . S
C1819 N1817 1.356 . S
N1820 C1812 1.356 . S
N1820 H1826 0.984 . S
N1820 H1827 0.984 . S
N1821 C1814 1.356 . S
N1821 H1824 0.984 . S
N1821 H1825 0.985 . S
H1822 N1817 0.984 . S
H1823 N1817 0.985 . S
H1824 N1821 0.984 . S
H1825 N1821 0.985 . S
H1826 N1820 0.984 . S
H1827 N1820 0.984 . S
H1828 N1816 0.984 . S
H1829 N1816 0.985 . S
C1830 C1831 1.363 . S
C1830 C1836 1.379 . S
C1830 N1838 1.356 . S
C1831 C1830 1.363 . S
C1831 C1837 1.363 . S
C1832 C1833 1.363 . S
C1832 C1837 1.379 . S
C1832 N1839 1.356 1_565 S
C1833 C1832 1.363 . S
C1833 C1836 1.363 . S
N1834 C1836 1.356 . S
N1834 H1846 0.984 . S
N1834 H1847 0.985 . S
N1835 C1837 1.356 . S
N1835 H1840 0.984 . S
N1835 H1841 0.985 . S
C1836 C1830 1.379 . S
C1836 C1833 1.363 . S
C1836 N1834 1.356 . S
C1837 C1831 1.363 . S
C1837 C1832 1.379 . S
C1837 N1835 1.356 . S
N1838 C1830 1.356 . S
N1838 H1844 0.984 . S
N1838 H1845 0.984 . S
N1839 C1832 1.356 1_545 S
N1839 H1842 0.984 . S
N1839 H1843 0.985 . S
H1840 N1835 0.984 . S
H1841 N1835 0.985 . S
H1842 N1839 0.984 . S
H1843 N1839 0.985 . S
H1844 N1838 0.984 . S
H1845 N1838 0.984 . S
H1846 N1834 0.984 . S
H1847 N1834 0.985 . S
C1848 C1849 1.363 . S
C1848 C1854 1.379 . S
C1848 N1856 1.356 . S
C1849 C1848 1.363 . S
C1849 C1855 1.363 . S
C1850 C1851 1.363 . S
C1850 C1855 1.379 . S
C1850 N1857 1.356 . S
C1851 C1850 1.363 . S
C1851 C1854 1.363 . S
N1852 C1854 1.356 . S
N1852 H1864 0.984 . S
N1852 H1865 0.985 . S
N1853 C1855 1.356 . S
N1853 H1858 0.984 . S
N1853 H1859 0.985 . S
C1854 C1848 1.379 . S
C1854 C1851 1.363 . S
C1854 N1852 1.356 . S
C1855 C1849 1.363 . S
C1855 C1850 1.379 . S
C1855 N1853 1.356 . S
N1856 C1848 1.356 . S
N1856 H1862 0.984 . S
N1856 H1863 0.984 . S
N1857 C1850 1.356 . S
N1857 H1860 0.984 . S
N1857 H1861 0.985 . S
H1858 N1853 0.984 . S
H1859 N1853 0.985 . S
H1860 N1857 0.984 . S
H1861 N1857 0.985 . S
H1862 N1856 0.984 . S
H1863 N1856 0.984 . S
H1864 N1852 0.984 . S
H1865 N1852 0.985 . S
C1866 C1867 1.363 . S
C1866 C1872 1.379 . S
C1866 N1874 1.356 . S
C1867 C1866 1.363 . S
C1867 C1873 1.363 . S
C1868 C1869 1.363 . S
C1868 C1873 1.379 . S
C1868 N1875 1.356 . S
C1869 C1868 1.363 . S
C1869 C1872 1.363 . S
N1870 C1872 1.356 . S
N1870 H1882 0.984 . S
N1870 H1883 0.985 . S
N1871 C1873 1.356 . S
N1871 H1876 0.984 . S
N1871 H1877 0.985 . S
C1872 C1866 1.379 . S
C1872 C1869 1.363 . S
C1872 N1870 1.356 . S
C1873 C1867 1.363 . S
C1873 C1868 1.379 . S
C1873 N1871 1.356 . S
N1874 C1866 1.356 . S
N1874 H1880 0.984 . S
N1874 H1881 0.984 . S
N1875 C1868 1.356 . S
N1875 H1878 0.984 . S
N1875 H1879 0.985 . S
H1876 N1871 0.984 . S
H1877 N1871 0.985 . S
H1878 N1875 0.984 . S
H1879 N1875 0.985 . S
H1880 N1874 0.984 . S
H1881 N1874 0.984 . S
H1882 N1870 0.984 . S
H1883 N1870 0.985 . S
C1884 C1885 1.363 . S
C1884 C1890 1.379 . S
C1884 N1892 1.356 . S
C1885 C1884 1.363 . S
C1885 C1891 1.363 . S
C1886 C1887 1.363 . S
C1886 C1891 1.379 . S
C1886 N1893 1.356 . S
C1887 C1886 1.363 . S
C1887 C1890 1.363 . S
N1888 C1890 1.356 . S
N1888 H1900 0.984 . S
N1888 H1901 0.985 . S
N1889 C1891 1.356 . S
N1889 H1894 0.984 . S
N1889 H1895 0.985 . S
C1890 C1884 1.379 . S
C1890 C1887 1.363 . S
C1890 N1888 1.356 . S
C1891 C1885 1.363 . S
C1891 C1886 1.379 . S
C1891 N1889 1.356 . S
N1892 C1884 1.356 . S
N1892 H1898 0.984 . S
N1892 H1899 0.984 . S
N1893 C1886 1.356 . S
N1893 H1896 0.984 . S
N1893 H1897 0.985 . S
H1894 N1889 0.984 . S
H1895 N1889 0.985 . S
H1896 N1893 0.984 . S
H1897 N1893 0.985 . S
H1898 N1892 0.984 . S
H1899 N1892 0.984 . S
H1900 N1888 0.984 . S
H1901 N1888 0.985 . S
C1902 C1903 1.363 . S
C1902 C1908 1.379 . S
C1902 N1910 1.356 . S
C1903 C1902 1.363 . S
C1903 C1909 1.363 . S
C1904 C1905 1.363 . S
C1904 C1909 1.379 . S
C1904 N1911 1.356 . S
C1905 C1904 1.363 . S
C1905 C1908 1.363 . S
N1906 C1908 1.356 1_554 S
N1906 H1918 0.984 . S
N1906 H1919 0.985 . S
N1907 C1909 1.356 . S
N1907 H1912 0.984 . S
N1907 H1913 0.985 . S
C1908 C1902 1.379 . S
C1908 C1905 1.363 . S
C1908 N1906 1.356 1_556 S
C1909 C1903 1.363 . S
C1909 C1904 1.379 . S
C1909 N1907 1.356 . S
N1910 C1902 1.356 . S
N1910 H1916 0.984 . S
N1910 H1917 0.984 . S
N1911 C1904 1.356 . S
N1911 H1914 0.984 . S
N1911 H1915 0.985 . S
H1912 N1907 0.984 . S
H1913 N1907 0.985 . S
H1914 N1911 0.984 . S
H1915 N1911 0.985 . S
H1916 N1910 0.984 . S
H1917 N1910 0.984 . S
H1918 N1906 0.984 . S
H1919 N1906 0.985 . S
C1920 C1921 1.363 . S
C1920 C1926 1.379 . S
C1920 N1928 1.356 . S
C1921 C1920 1.363 . S
C1921 C1927 1.363 . S
C1922 C1923 1.363 . S
C1922 C1927 1.379 . S
C1922 N1929 1.356 . S
C1923 C1922 1.363 . S
C1923 C1926 1.363 . S
N1924 C1926 1.356 . S
N1924 H1936 0.984 . S
N1924 H1937 0.985 . S
N1925 C1927 1.356 . S
N1925 H1930 0.984 . S
N1925 H1931 0.985 . S
C1926 C1920 1.379 . S
C1926 C1923 1.363 . S
C1926 N1924 1.356 . S
C1927 C1921 1.363 . S
C1927 C1922 1.379 . S
C1927 N1925 1.356 . S
N1928 C1920 1.356 . S
N1928 H1934 0.984 . S
N1928 H1935 0.984 . S
N1929 C1922 1.356 . S
N1929 H1932 0.984 . S
N1929 H1933 0.985 . S
H1930 N1925 0.984 . S
H1931 N1925 0.985 . S
H1932 N1929 0.984 . S
H1933 N1929 0.985 . S
H1934 N1928 0.984 . S
H1935 N1928 0.984 . S
H1936 N1924 0.984 . S
H1937 N1924 0.985 . S
C1938 C1939 1.363 . S
C1938 C1944 1.379 . S
C1938 N1946 1.356 . S
C1939 C1938 1.363 . S
C1939 C1945 1.363 . S
C1940 C1941 1.363 . S
C1940 C1945 1.379 . S
C1940 N1947 1.356 . S
C1941 C1940 1.363 . S
C1941 C1944 1.363 . S
N1942 C1944 1.356 . S
N1942 H1954 0.984 . S
N1942 H1955 0.985 . S
N1943 C1945 1.356 . S
N1943 H1948 0.984 . S
N1943 H1949 0.985 . S
C1944 C1938 1.379 . S
C1944 C1941 1.363 . S
C1944 N1942 1.356 . S
C1945 C1939 1.363 . S
C1945 C1940 1.379 . S
C1945 N1943 1.356 . S
N1946 C1938 1.356 . S
N1946 H1952 0.984 . S
N1946 H1953 0.984 . S
N1947 C1940 1.356 . S
N1947 H1950 0.984 . S
N1947 H1951 0.985 . S
H1948 N1943 0.984 . S
H1949 N1943 0.985 . S
H1950 N1947 0.984 . S
H1951 N1947 0.985 . S
H1952 N1946 0.984 . S
H1953 N1946 0.984 . S
H1954 N1942 0.984 . S
H1955 N1942 0.985 . S
C1956 C1957 1.363 . S
C1956 C1962 1.379 . S
C1956 N1964 1.356 . S
C1957 C1956 1.363 . S
C1957 C1963 1.363 . S
C1958 C1959 1.363 . S
C1958 C1963 1.379 . S
C1958 N1965 1.356 . S
C1959 C1958 1.363 . S
C1959 C1962 1.363 . S
N1960 C1962 1.356 . S
N1960 H1972 0.984 . S
N1960 H1973 0.985 . S
N1961 C1963 1.356 . S
N1961 H1966 0.984 . S
N1961 H1967 0.985 . S
C1962 C1956 1.379 . S
C1962 C1959 1.363 . S
C1962 N1960 1.356 . S
C1963 C1957 1.363 . S
C1963 C1958 1.379 . S
C1963 N1961 1.356 . S
N1964 C1956 1.356 . S
N1964 H1970 0.984 . S
N1964 H1971 0.984 . S
N1965 C1958 1.356 . S
N1965 H1968 0.984 . S
N1965 H1969 0.985 . S
H1966 N1961 0.984 . S
H1967 N1961 0.985 . S
H1968 N1965 0.984 . S
H1969 N1965 0.985 . S
H1970 N1964 0.984 . S
H1971 N1964 0.984 . S
H1972 N1960 0.984 . S
H1973 N1960 0.985 . S
C1974 C1975 1.363 . S
C1974 C1980 1.379 . S
C1974 N1982 1.356 . S
C1975 C1974 1.363 . S
C1975 C1981 1.363 . S
C1976 C1977 1.363 . S
C1976 C1981 1.379 . S
C1976 N1983 1.356 . S
C1977 C1976 1.363 . S
C1977 C1980 1.363 . S
N1978 C1980 1.356 . S
N1978 H1990 0.984 . S
N1978 H1991 0.985 . S
N1979 C1981 1.356 . S
N1979 H1984 0.984 . S
N1979 H1985 0.985 . S
C1980 C1974 1.379 . S
C1980 C1977 1.363 . S
C1980 N1978 1.356 . S
C1981 C1975 1.363 . S
C1981 C1976 1.379 . S
C1981 N1979 1.356 . S
N1982 C1974 1.356 . S
N1982 H1988 0.984 . S
N1982 H1989 0.984 . S
N1983 C1976 1.356 . S
N1983 H1986 0.984 . S
N1983 H1987 0.985 . S
H1984 N1979 0.984 . S
H1985 N1979 0.985 . S
H1986 N1983 0.984 . S
H1987 N1983 0.985 . S
H1988 N1982 0.984 . S
H1989 N1982 0.984 . S
H1990 N1978 0.984 . S
H1991 N1978 0.985 . S
C1992 C1993 1.363 . S
C1992 C1998 1.379 . S
C1992 N2000 1.356 . S
C1993 C1992 1.363 . S
C1993 C1999 1.363 . S
C1994 C1995 1.363 . S
C1994 C1999 1.379 . S
C1994 N2001 1.356 . S
C1995 C1994 1.363 . S
C1995 C1998 1.363 . S
N1996 C1998 1.356 . S
N1996 H2008 0.984 . S
N1996 H2009 0.985 . S
N1997 C1999 1.356 . S
N1997 H2002 0.984 . S
N1997 H2003 0.985 . S
C1998 C1992 1.379 . S
C1998 C1995 1.363 . S
C1998 N1996 1.356 . S
C1999 C1993 1.363 . S
C1999 C1994 1.379 . S
C1999 N1997 1.356 . S
N2000 C1992 1.356 . S
N2000 H2006 0.984 . S
N2000 H2007 0.984 . S
N2001 C1994 1.356 . S
N2001 H2004 0.984 . S
N2001 H2005 0.985 . S
H2002 N1997 0.984 . S
H2003 N1997 0.985 . S
H2004 N2001 0.984 . S
H2005 N2001 0.985 . S
H2006 N2000 0.984 . S
H2007 N2000 0.984 . S
H2008 N1996 0.984 . S
H2009 N1996 0.985 . S
C2010 C2011 1.363 . S
C2010 C2016 1.379 . S
C2010 N2018 1.356 . S
C2011 C2010 1.363 . S
C2011 C2017 1.363 . S
C2012 C2013 1.363 . S
C2012 C2017 1.379 . S
C2012 N2019 1.356 . S
C2013 C2012 1.363 . S
C2013 C2016 1.363 . S
N2014 C2016 1.356 . S
N2014 H2026 0.984 . S
N2014 H2027 0.985 . S
N2015 C2017 1.356 . S
N2015 H2020 0.984 . S
N2015 H2021 0.985 . S
C2016 C2010 1.379 . S
C2016 C2013 1.363 . S
C2016 N2014 1.356 . S
C2017 C2011 1.363 . S
C2017 C2012 1.379 . S
C2017 N2015 1.356 . S
N2018 C2010 1.356 . S
N2018 H2024 0.984 . S
N2018 H2025 0.984 . S
N2019 C2012 1.356 . S
N2019 H2022 0.984 . S
N2019 H2023 0.985 . S
H2020 N2015 0.984 . S
H2021 N2015 0.985 . S
H2022 N2019 0.984 . S
H2023 N2019 0.985 . S
H2024 N2018 0.984 . S
H2025 N2018 0.984 . S
H2026 N2014 0.984 . S
H2027 N2014 0.985 . S
C2028 C2029 1.363 . S
C2028 C2034 1.379 . S
C2028 N2036 1.356 . S
C2029 C2028 1.363 . S
C2029 C2035 1.363 . S
C2030 C2031 1.363 . S
C2030 C2035 1.379 . S
C2030 N2037 1.356 . S
C2031 C2030 1.363 . S
C2031 C2034 1.363 . S
N2032 C2034 1.356 . S
N2032 H2044 0.984 . S
N2032 H2045 0.985 . S
N2033 C2035 1.356 . S
N2033 H2038 0.984 . S
N2033 H2039 0.985 . S
C2034 C2028 1.379 . S
C2034 C2031 1.363 . S
C2034 N2032 1.356 . S
C2035 C2029 1.363 . S
C2035 C2030 1.379 . S
C2035 N2033 1.356 . S
N2036 C2028 1.356 . S
N2036 H2042 0.984 . S
N2036 H2043 0.984 . S
N2037 C2030 1.356 . S
N2037 H2040 0.984 . S
N2037 H2041 0.985 . S
H2038 N2033 0.984 . S
H2039 N2033 0.985 . S
H2040 N2037 0.984 . S
H2041 N2037 0.985 . S
H2042 N2036 0.984 . S
H2043 N2036 0.984 . S
H2044 N2032 0.984 . S
H2045 N2032 0.985 . S
C2046 C2047 1.363 . S
C2046 C2052 1.379 . S
C2046 N2054 1.356 . S
C2047 C2046 1.363 . S
C2047 C2053 1.363 . S
C2048 C2049 1.363 . S
C2048 C2053 1.379 . S
C2048 N2055 1.356 . S
C2049 C2048 1.363 . S
C2049 C2052 1.363 . S
N2050 C2052 1.356 . S
N2050 H2062 0.984 . S
N2050 H2063 0.985 . S
N2051 C2053 1.356 . S
N2051 H2056 0.984 . S
N2051 H2057 0.985 . S
C2052 C2046 1.379 . S
C2052 C2049 1.363 . S
C2052 N2050 1.356 . S
C2053 C2047 1.363 . S
C2053 C2048 1.379 . S
C2053 N2051 1.356 . S
N2054 C2046 1.356 . S
N2054 H2060 0.984 . S
N2054 H2061 0.984 . S
N2055 C2048 1.356 . S
N2055 H2058 0.984 . S
N2055 H2059 0.985 . S
H2056 N2051 0.984 . S
H2057 N2051 0.985 . S
H2058 N2055 0.984 . S
H2059 N2055 0.985 . S
H2060 N2054 0.984 . S
H2061 N2054 0.984 . S
H2062 N2050 0.984 . S
H2063 N2050 0.985 . S
C2064 C2065 1.363 . S
C2064 C2070 1.379 . S
C2064 N2072 1.356 . S
C2065 C2064 1.363 . S
C2065 C2071 1.363 . S
C2066 C2067 1.363 . S
C2066 C2071 1.379 . S
C2066 N2073 1.356 . S
C2067 C2066 1.363 . S
C2067 C2070 1.363 . S
N2068 C2070 1.356 . S
N2068 H2080 0.984 . S
N2068 H2081 0.985 . S
N2069 C2071 1.356 . S
N2069 H2074 0.984 . S
N2069 H2075 0.985 . S
C2070 C2064 1.379 . S
C2070 C2067 1.363 . S
C2070 N2068 1.356 . S
C2071 C2065 1.363 . S
C2071 C2066 1.379 . S
C2071 N2069 1.356 . S
N2072 C2064 1.356 . S
N2072 H2078 0.984 . S
N2072 H2079 0.984 . S
N2073 C2066 1.356 . S
N2073 H2076 0.984 . S
N2073 H2077 0.985 . S
H2074 N2069 0.984 . S
H2075 N2069 0.985 . S
H2076 N2073 0.984 . S
H2077 N2073 0.985 . S
H2078 N2072 0.984 . S
H2079 N2072 0.984 . S
H2080 N2068 0.984 . S
H2081 N2068 0.985 . S
C2082 C2083 1.363 . S
C2082 C2088 1.379 . S
C2082 N2090 1.356 . S
C2083 C2082 1.363 . S
C2083 C2089 1.363 . S
C2084 C2085 1.363 . S
C2084 C2089 1.379 . S
C2084 N2091 1.356 . S
C2085 C2084 1.363 . S
C2085 C2088 1.363 . S
N2086 C2088 1.356 . S
N2086 H2098 0.984 . S
N2086 H2099 0.985 . S
N2087 C2089 1.356 . S
N2087 H2092 0.984 . S
N2087 H2093 0.985 . S
C2088 C2082 1.379 . S
C2088 C2085 1.363 . S
C2088 N2086 1.356 . S
C2089 C2083 1.363 . S
C2089 C2084 1.379 . S
C2089 N2087 1.356 . S
N2090 C2082 1.356 . S
N2090 H2096 0.984 . S
N2090 H2097 0.984 . S
N2091 C2084 1.356 . S
N2091 H2094 0.984 . S
N2091 H2095 0.985 . S
H2092 N2087 0.984 . S
H2093 N2087 0.985 . S
H2094 N2091 0.984 . S
H2095 N2091 0.985 . S
H2096 N2090 0.984 . S
H2097 N2090 0.984 . S
H2098 N2086 0.984 . S
H2099 N2086 0.985 . S
C2100 C2101 1.363 . S
C2100 C2106 1.379 . S
C2100 N2108 1.356 . S
C2101 C2100 1.363 . S
C2101 C2107 1.363 . S
C2102 C2103 1.363 . S
C2102 C2107 1.379 . S
C2102 N2109 1.356 . S
C2103 C2102 1.363 . S
C2103 C2106 1.363 . S
N2104 C2106 1.356 . S
N2104 H2116 0.984 . S
N2104 H2117 0.985 . S
N2105 C2107 1.356 . S
N2105 H2110 0.984 . S
N2105 H2111 0.985 . S
C2106 C2100 1.379 . S
C2106 C2103 1.363 . S
C2106 N2104 1.356 . S
C2107 C2101 1.363 . S
C2107 C2102 1.379 . S
C2107 N2105 1.356 . S
N2108 C2100 1.356 . S
N2108 H2114 0.984 . S
N2108 H2115 0.984 . S
N2109 C2102 1.356 . S
N2109 H2112 0.984 . S
N2109 H2113 0.985 . S
H2110 N2105 0.984 . S
H2111 N2105 0.985 . S
H2112 N2109 0.984 . S
H2113 N2109 0.985 . S
H2114 N2108 0.984 . S
H2115 N2108 0.984 . S
H2116 N2104 0.984 . S
H2117 N2104 0.985 . S
C2118 C2119 1.363 . S
C2118 C2124 1.379 . S
C2118 N2126 1.356 . S
C2119 C2118 1.363 . S
C2119 C2125 1.363 . S
C2120 C2121 1.363 . S
C2120 C2125 1.379 . S
C2120 N2127 1.356 . S
C2121 C2120 1.363 . S
C2121 C2124 1.363 . S
N2122 C2124 1.356 . S
N2122 H2134 0.984 . S
N2122 H2135 0.985 . S
N2123 C2125 1.356 . S
N2123 H2128 0.984 . S
N2123 H2129 0.985 . S
C2124 C2118 1.379 . S
C2124 C2121 1.363 . S
C2124 N2122 1.356 . S
C2125 C2119 1.363 . S
C2125 C2120 1.379 . S
C2125 N2123 1.356 . S
N2126 C2118 1.356 . S
N2126 H2132 0.984 . S
N2126 H2133 0.984 . S
N2127 C2120 1.356 . S
N2127 H2130 0.984 . S
N2127 H2131 0.985 . S
H2128 N2123 0.984 . S
H2129 N2123 0.985 . S
H2130 N2127 0.984 . S
H2131 N2127 0.985 . S
H2132 N2126 0.984 . S
H2133 N2126 0.984 . S
H2134 N2122 0.984 . S
H2135 N2122 0.985 . S
C2136 C2137 1.363 . S
C2136 C2142 1.379 . S
C2136 N2144 1.356 . S
C2137 C2136 1.363 . S
C2137 C2143 1.363 . S
C2138 C2139 1.363 . S
C2138 C2143 1.379 . S
C2138 N2145 1.356 . S
C2139 C2138 1.363 . S
C2139 C2142 1.363 . S
N2140 C2142 1.356 . S
N2140 H2152 0.984 . S
N2140 H2153 0.985 . S
N2141 C2143 1.356 . S
N2141 H2146 0.984 . S
N2141 H2147 0.985 . S
C2142 C2136 1.379 . S
C2142 C2139 1.363 . S
C2142 N2140 1.356 . S
C2143 C2137 1.363 . S
C2143 C2138 1.379 . S
C2143 N2141 1.356 . S
N2144 C2136 1.356 . S
N2144 H2150 0.984 . S
N2144 H2151 0.984 . S
N2145 C2138 1.356 . S
N2145 H2148 0.984 . S
N2145 H2149 0.985 . S
H2146 N2141 0.984 . S
H2147 N2141 0.985 . S
H2148 N2145 0.984 . S
H2149 N2145 0.985 . S
H2150 N2144 0.984 . S
H2151 N2144 0.984 . S
H2152 N2140 0.984 . S
H2153 N2140 0.985 . S
C2154 C2155 1.363 . S
C2154 C2160 1.379 . S
C2154 N2162 1.356 . S
C2155 C2154 1.363 . S
C2155 C2161 1.363 . S
C2156 C2157 1.363 . S
C2156 C2161 1.379 . S
C2156 N2163 1.356 . S
C2157 C2156 1.363 . S
C2157 C2160 1.363 . S
N2158 C2160 1.356 . S
N2158 H2170 0.984 . S
N2158 H2171 0.985 . S
N2159 C2161 1.356 . S
N2159 H2164 0.984 . S
N2159 H2165 0.985 . S
C2160 C2154 1.379 . S
C2160 C2157 1.363 . S
C2160 N2158 1.356 . S
C2161 C2155 1.363 . S
C2161 C2156 1.379 . S
C2161 N2159 1.356 . S
N2162 C2154 1.356 . S
N2162 H2168 0.984 . S
N2162 H2169 0.984 . S
N2163 C2156 1.356 . S
N2163 H2166 0.984 . S
N2163 H2167 0.985 . S
H2164 N2159 0.984 . S
H2165 N2159 0.985 . S
H2166 N2163 0.984 . S
H2167 N2163 0.985 . S
H2168 N2162 0.984 . S
H2169 N2162 0.984 . S
H2170 N2158 0.984 . S
H2171 N2158 0.985 . S
C2172 C2173 1.363 . S
C2172 C2178 1.379 . S
C2172 N2180 1.356 . S
C2173 C2172 1.363 . S
C2173 C2179 1.363 . S
C2174 C2175 1.363 . S
C2174 C2179 1.379 . S
C2174 N2181 1.356 . S
C2175 C2174 1.363 . S
C2175 C2178 1.363 . S
N2176 C2178 1.356 . S
N2176 H2188 0.984 . S
N2176 H2189 0.985 . S
N2177 C2179 1.356 . S
N2177 H2182 0.984 . S
N2177 H2183 0.985 . S
C2178 C2172 1.379 . S
C2178 C2175 1.363 . S
C2178 N2176 1.356 . S
C2179 C2173 1.363 . S
C2179 C2174 1.379 . S
C2179 N2177 1.356 . S
N2180 C2172 1.356 . S
N2180 H2186 0.984 . S
N2180 H2187 0.984 . S
N2181 C2174 1.356 . S
N2181 H2184 0.984 . S
N2181 H2185 0.985 . S
H2182 N2177 0.984 . S
H2183 N2177 0.985 . S
H2184 N2181 0.984 . S
H2185 N2181 0.985 . S
H2186 N2180 0.984 . S
H2187 N2180 0.984 . S
H2188 N2176 0.984 . S
H2189 N2176 0.985 . S
C2190 C2191 1.363 . S
C2190 C2196 1.379 . S
C2190 N2198 1.356 . S
C2191 C2190 1.363 . S
C2191 C2197 1.363 . S
C2192 C2193 1.363 . S
C2192 C2197 1.379 . S
C2192 N2199 1.356 . S
C2193 C2192 1.363 . S
C2193 C2196 1.363 . S
N2194 C2196 1.356 . S
N2194 H2206 0.984 . S
N2194 H2207 0.985 . S
N2195 C2197 1.356 . S
N2195 H2200 0.984 . S
N2195 H2201 0.985 . S
C2196 C2190 1.379 . S
C2196 C2193 1.363 . S
C2196 N2194 1.356 . S
C2197 C2191 1.363 . S
C2197 C2192 1.379 . S
C2197 N2195 1.356 . S
N2198 C2190 1.356 . S
N2198 H2204 0.984 . S
N2198 H2205 0.984 . S
N2199 C2192 1.356 . S
N2199 H2202 0.984 . S
N2199 H2203 0.985 . S
H2200 N2195 0.984 . S
H2201 N2195 0.985 . S
H2202 N2199 0.984 . S
H2203 N2199 0.985 . S
H2204 N2198 0.984 . S
H2205 N2198 0.984 . S
H2206 N2194 0.984 . S
H2207 N2194 0.985 . S
C2208 C2209 1.363 . S
C2208 C2214 1.379 . S
C2208 N2216 1.356 . S
C2209 C2208 1.363 . S
C2209 C2215 1.363 . S
C2210 C2211 1.363 . S
C2210 C2215 1.379 . S
C2210 N2217 1.356 . S
C2211 C2210 1.363 . S
C2211 C2214 1.363 . S
N2212 C2214 1.356 . S
N2212 H2224 0.984 . S
N2212 H2225 0.985 . S
N2213 C2215 1.356 . S
N2213 H2218 0.984 . S
N2213 H2219 0.985 . S
C2214 C2208 1.379 . S
C2214 C2211 1.363 . S
C2214 N2212 1.356 . S
C2215 C2209 1.363 . S
C2215 C2210 1.379 . S
C2215 N2213 1.356 . S
N2216 C2208 1.356 . S
N2216 H2222 0.984 . S
N2216 H2223 0.984 . S
N2217 C2210 1.356 . S
N2217 H2220 0.984 . S
N2217 H2221 0.985 . S
H2218 N2213 0.984 . S
H2219 N2213 0.985 . S
H2220 N2217 0.984 . S
H2221 N2217 0.985 . S
H2222 N2216 0.984 . S
H2223 N2216 0.984 . S
H2224 N2212 0.984 . S
H2225 N2212 0.985 . S
C2226 C2227 1.363 . S
C2226 C2232 1.379 . S
C2226 N2234 1.356 . S
C2227 C2226 1.363 . S
C2227 C2233 1.363 . S
C2228 C2229 1.363 . S
C2228 C2233 1.379 . S
C2228 N2235 1.356 . S
C2229 C2228 1.363 . S
C2229 C2232 1.363 . S
N2230 C2232 1.356 . S
N2230 H2242 0.984 . S
N2230 H2243 0.985 . S
N2231 C2233 1.356 . S
N2231 H2236 0.984 . S
N2231 H2237 0.985 . S
C2232 C2226 1.379 . S
C2232 C2229 1.363 . S
C2232 N2230 1.356 . S
C2233 C2227 1.363 . S
C2233 C2228 1.379 . S
C2233 N2231 1.356 . S
N2234 C2226 1.356 . S
N2234 H2240 0.984 . S
N2234 H2241 0.984 . S
N2235 C2228 1.356 . S
N2235 H2238 0.984 . S
N2235 H2239 0.985 . S
H2236 N2231 0.984 . S
H2237 N2231 0.985 . S
H2238 N2235 0.984 . S
H2239 N2235 0.985 . S
H2240 N2234 0.984 . S
H2241 N2234 0.984 . S
H2242 N2230 0.984 . S
H2243 N2230 0.985 . S
C2244 C2245 1.363 . S
C2244 C2250 1.379 . S
C2244 N2252 1.356 . S
C2245 C2244 1.363 . S
C2245 C2251 1.363 . S
C2246 C2247 1.363 . S
C2246 C2251 1.379 . S
C2246 N2253 1.356 . S
C2247 C2246 1.363 . S
C2247 C2250 1.363 . S
N2248 C2250 1.356 . S
N2248 H2260 0.984 . S
N2248 H2261 0.985 . S
N2249 C2251 1.356 . S
N2249 H2254 0.984 . S
N2249 H2255 0.985 . S
C2250 C2244 1.379 . S
C2250 C2247 1.363 . S
C2250 N2248 1.356 . S
C2251 C2245 1.363 . S
C2251 C2246 1.379 . S
C2251 N2249 1.356 . S
N2252 C2244 1.356 . S
N2252 H2258 0.984 . S
N2252 H2259 0.984 . S
N2253 C2246 1.356 . S
N2253 H2256 0.984 . S
N2253 H2257 0.985 . S
H2254 N2249 0.984 . S
H2255 N2249 0.985 . S
H2256 N2253 0.984 . S
H2257 N2253 0.985 . S
H2258 N2252 0.984 . S
H2259 N2252 0.984 . S
H2260 N2248 0.984 . S
H2261 N2248 0.985 . S
C2262 C2263 1.363 . S
C2262 C2268 1.379 . S
C2262 N2270 1.356 . S
C2263 C2262 1.363 . S
C2263 C2269 1.363 . S
C2264 C2265 1.363 . S
C2264 C2269 1.379 . S
C2264 N2271 1.356 . S
C2265 C2264 1.363 . S
C2265 C2268 1.363 . S
N2266 C2268 1.356 . S
N2266 H2278 0.984 . S
N2266 H2279 0.985 . S
N2267 C2269 1.356 . S
N2267 H2272 0.984 . S
N2267 H2273 0.985 . S
C2268 C2262 1.379 . S
C2268 C2265 1.363 . S
C2268 N2266 1.356 . S
C2269 C2263 1.363 . S
C2269 C2264 1.379 . S
C2269 N2267 1.356 . S
N2270 C2262 1.356 . S
N2270 H2276 0.984 . S
N2270 H2277 0.984 . S
N2271 C2264 1.356 . S
N2271 H2274 0.984 . S
N2271 H2275 0.985 . S
H2272 N2267 0.984 . S
H2273 N2267 0.985 . S
H2274 N2271 0.984 . S
H2275 N2271 0.985 . S
H2276 N2270 0.984 . S
H2277 N2270 0.984 . S
H2278 N2266 0.984 . S
H2279 N2266 0.985 . S
C1417 C829 1.407 . S
C1419 C5 1.423 . S
C1435 C62 1.403 . S
C1437 C890 1.419 . S
C1453 C1114 1.568 . S
C1455 C170 1.567 . S
C1471 C210 1.825 . S
C1473 C800 1.825 . S
C1489 C859 1.828 . S
C1491 C288 1.818 . S
C1507 C328 1.578 . S
C1509 C937 1.565 . S
C1525 C359 1.416 . S
C1527 C1067 1.419 . S
C1543 C416 1.419 . S
C1545 C770 1.405 . S
C1561 C536 1.416 . S
C1563 C475 1.418 . S
C1579 C623 1.826 . S
C1581 C583 1.816 . S
C1597 C593 1.406 . S
C1599 C654 1.422 . S
C1615 C701 1.565 . S
C1617 C505 1.577 . S
C1633 C713 1.419 . S
C1635 C180 1.403 . S
C1651 C241 1.416 . S
C1653 C949 1.419 . S
C1669 C1036 1.825 . S
C1671 C92 1.825 . S
C1687 C64 1.710 . S
C1689 C1291 1.705 . S
C1705 C534 1.714 . S
C1707 C33 1.712 . S
C1723 C1409 1.804 . S
C1725 C229 1.804 . S
C1741 C652 1.322 . S
C1743 C121 1.322 . S
C1759 C1244 1.319 . S
C1761 C418 1.319 . S
C1777 C564 1.813 . S
C1779 C387 1.813 . S
C1795 C347 1.707 . S
C1797 C1362 1.711 . S
C1813 C239 1.712 . S
C1815 C682 1.710 . S
C1831 C918 1.708 . S
C1833 C1126 1.710 . S
C1849 C947 1.321 . S
C1851 C888 1.321 . S
C1867 C772 1.711 . S
C1869 C977 1.709 . S
C1885 C1173 1.807 . S
C1887 C819 1.807 . S
C1903 C151 1.712 . S
C1905 C1183 1.714 . S
C1921 C595 1.711 . S
C1923 C465 1.707 . S
C1939 C3 1.322 . S
C1941 C1301 1.322 . S
C1957 C1124 1.407 . S
C1959 C123 1.423 . S
C1975 C52 1.567 . S
C1977 C996 1.567 . S
C1993 C1154 1.828 . S
C1995 C406 1.818 . S
C2011 C760 1.565 . S
C2013 C446 1.578 . S
C2029 C298 1.419 . S
C2031 C1006 1.405 . S
C2047 C1242 1.418 . S
C2049 C1185 1.417 . S
C2065 C1390 1.826 . S
C2067 C1232 1.816 . S
C2083 C1303 1.422 . S
C2085 C1360 1.406 . S
C2101 C1272 1.577 . S
C2103 C1350 1.564 . S
C2119 C524 1.705 . S
C2121 C182 1.710 . S
C2137 C111 1.804 . S
C2139 C642 1.804 . S
C2155 C300 1.319 . S
C2157 C477 1.319 . S
C2173 C1213 1.813 . S
C2175 C269 1.813 . S
C2191 C357 1.712 . S
C2193 C1331 1.710 . S
C2209 C741 1.708 . S
C2211 C831 1.710 . S
C2227 C1065 1.321 . S
C2229 C711 1.321 . S
C2245 C1008 1.711 . S
C2247 C1095 1.708 . S
C2263 C878 1.807 . S
C2265 C1055 1.807 . S
