# Generated by pormake.
# Topology can, (4)-cn, num edge types: 1
# Building blocks:
#     Node 0, Type 0, BuildingBlock: NAHDIM_clean_sbu_0, # of connection points: 4
#     Node 1, Type 0, BuildingBlock: NAHDIM_clean_sbu_0, # of connection points: 4
#     Node 2, Type 0, BuildingBlock: NAHDIM_clean_sbu_0, # of connection points: 4
#     Node 3, Type 0, BuildingBlock: NAHDIM_clean_sbu_0, # of connection points: 4
#     Node 4, Type 0, BuildingBlock: NAHDIM_clean_sbu_0, # of connection points: 4
#     Node 5, Type 0, BuildingBlock: NAHDIM_clean_sbu_0, # of connection points: 4
#     Node 6, Type 0, BuildingBlock: NAHDIM_clean_sbu_0, # of connection points: 4
#     Node 7, Type 0, BuildingBlock: NAHDIM_clean_sbu_0, # of connection points: 4
#     Node 8, Type 0, BuildingBlock: NAHDIM_clean_sbu_0, # of connection points: 4
#     Node 9, Type 0, BuildingBlock: NAHDIM_clean_sbu_0, # of connection points: 4
#     Node 10, Type 0, BuildingBlock: NAHDIM_clean_sbu_0, # of connection points: 4
#     Node 11, Type 0, BuildingBlock: NAHDIM_clean_sbu_0, # of connection points: 4
#     Edge 12, Type (0, 0), BuildingBlock: KIFKEQ_clean_linker_1, # of connection points: 2
#     Edge 13, Type (0, 0), BuildingBlock: KIFKEQ_clean_linker_1, # of connection points: 2
#     Edge 14, Type (0, 0), BuildingBlock: KIFKEQ_clean_linker_1, # of connection points: 2
#     Edge 15, Type (0, 0), BuildingBlock: KIFKEQ_clean_linker_1, # of connection points: 2
#     Edge 16, Type (0, 0), BuildingBlock: KIFKEQ_clean_linker_1, # of connection points: 2
#     Edge 17, Type (0, 0), BuildingBlock: KIFKEQ_clean_linker_1, # of connection points: 2
#     Edge 18, Type (0, 0), BuildingBlock: KIFKEQ_clean_linker_1, # of connection points: 2
#     Edge 19, Type (0, 0), BuildingBlock: KIFKEQ_clean_linker_1, # of connection points: 2
#     Edge 20, Type (0, 0), BuildingBlock: KIFKEQ_clean_linker_1, # of connection points: 2
#     Edge 21, Type (0, 0), BuildingBlock: KIFKEQ_clean_linker_1, # of connection points: 2
#     Edge 22, Type (0, 0), BuildingBlock: KIFKEQ_clean_linker_1, # of connection points: 2
#     Edge 23, Type (0, 0), BuildingBlock: KIFKEQ_clean_linker_1, # of connection points: 2
#     Edge 24, Type (0, 0), BuildingBlock: KIFKEQ_clean_linker_1, # of connection points: 2
#     Edge 25, Type (0, 0), BuildingBlock: KIFKEQ_clean_linker_1, # of connection points: 2
#     Edge 26, Type (0, 0), BuildingBlock: KIFKEQ_clean_linker_1, # of connection points: 2
#     Edge 27, Type (0, 0), BuildingBlock: KIFKEQ_clean_linker_1, # of connection points: 2
#     Edge 28, Type (0, 0), BuildingBlock: KIFKEQ_clean_linker_1, # of connection points: 2
#     Edge 29, Type (0, 0), BuildingBlock: KIFKEQ_clean_linker_1, # of connection points: 2
#     Edge 30, Type (0, 0), BuildingBlock: KIFKEQ_clean_linker_1, # of connection points: 2
#     Edge 31, Type (0, 0), BuildingBlock: KIFKEQ_clean_linker_1, # of connection points: 2
#     Edge 32, Type (0, 0), BuildingBlock: KIFKEQ_clean_linker_1, # of connection points: 2
#     Edge 33, Type (0, 0), BuildingBlock: KIFKEQ_clean_linker_1, # of connection points: 2
#     Edge 34, Type (0, 0), BuildingBlock: KIFKEQ_clean_linker_1, # of connection points: 2
#     Edge 35, Type (0, 0), BuildingBlock: KIFKEQ_clean_linker_1, # of connection points: 2
# Relax obj value: 0.093
# Max RMSD: 0.085
# Mean RMSD: 0.085
data_MOF--net-can--node1-NAHDIM_clean_sbu_0--edge1-KIFKEQ_clean_linker_1
_symmetry_space_group_name_H-M    P1
_symmetry_Int_Tables_number       1
_symmetry_cell_setting            triclinic
loop_
_symmetry_equiv_pos_as_xyz
'x, y, z'
_cell_length_a     60.510894
_cell_length_b     60.556475
_cell_length_c     25.605782
_cell_angle_alpha  89.932068
_cell_angle_beta   90.069991
_cell_angle_gamma 119.97917
loop_
_atom_site_label
_atom_site_type_symbol
_atom_site_fract_x
_atom_site_fract_y
_atom_site_fract_z
_atom_type_partial_charge
C0 C 0.12228 0.42157 0.21599 0.0
O1 O 0.11957 0.43351 0.17576 0.0
O2 O 0.05657 0.39658 0.17041 0.0
Zn3 Zn 0.07211 0.41229 0.23976 0.0
O4 O 0.04881 0.39402 0.30007 0.0
C5 C 0.06623 0.45495 0.21279 0.0
O6 O 0.04736 0.43736 0.18511 0.0
O7 O 0.10434 0.41112 0.24912 0.0
C8 C 0.0247 0.38402 0.29854 0.0
O9 O 0.01369 0.38474 0.25482 0.0
C10 C 0.04393 0.37291 0.16012 0.0
O11 O 0.0399 0.35624 0.19708 0.0
O12 O 0.07992 0.44878 0.23996 0.0
C13 C 0.70338 0.11807 0.73083 0.0
O14 O 0.68639 0.11606 0.69631 0.0
O15 O 0.65561 0.04805 0.70398 0.0
Zn16 Zn 0.66191 0.07025 0.76684 0.0
O17 O 0.65779 0.05025 0.83228 0.0
C18 C 0.62312 0.08122 0.72883 0.0
O19 O 0.62861 0.07521 0.68328 0.0
O20 O 0.69713 0.10068 0.76487 0.0
C21 C 0.63524 0.03532 0.84823 0.0
O22 O 0.6159 0.03281 0.82023 0.0
C23 C 0.67315 0.04707 0.67873 0.0
O24 O 0.69692 0.06079 0.69443 0.0
O25 O 0.63555 0.08133 0.76897 0.0
C26 C 0.60906 0.71432 0.23459 0.0
O27 O 0.6303 0.71477 0.2218 0.0
O28 O 0.61037 0.66117 0.17773 0.0
Zn29 Zn 0.59127 0.66108 0.24204 0.0
O30 O 0.60818 0.65883 0.30783 0.0
C31 C 0.55351 0.60861 0.24312 0.0
O32 O 0.57415 0.6067 0.24685 0.0
O33 O 0.58931 0.69308 0.24461 0.0
C34 C 0.5958 0.65568 0.34985 0.0
O35 O 0.5736 0.65464 0.34757 0.0
C36 C 0.6262 0.65319 0.17751 0.0
O37 O 0.63094 0.64493 0.2212 0.0
O38 O 0.55586 0.63063 0.23971 0.0
C39 C 0.8795 0.59492 0.7737 0.0
O40 O 0.89787 0.61363 0.80036 0.0
O41 O 0.94074 0.59889 0.70625 0.0
Zn42 Zn 0.91704 0.57959 0.76548 0.0
O43 O 0.93176 0.59538 0.83541 0.0
C44 C 0.93231 0.54285 0.77572 0.0
O45 O 0.95364 0.56377 0.7874 0.0
O46 O 0.88323 0.57766 0.7548 0.0
C47 C 0.95469 0.61303 0.842 0.0
O48 O 0.96979 0.62238 0.8013 0.0
C49 C 0.94187 0.61796 0.68293 0.0
O50 O 0.92728 0.627 0.69865 0.0
O51 O 0.91265 0.54443 0.76475 0.0
C52 C 0.27822 0.88428 0.24477 0.0
O53 O 0.27991 0.90585 0.2595 0.0
O54 O 0.33601 0.93574 0.16452 0.0
Zn55 Zn 0.3319 0.91674 0.23169 0.0
O56 O 0.33386 0.93666 0.29635 0.0
C57 C 0.38299 0.92754 0.2331 0.0
O58 O 0.38632 0.95031 0.22342 0.0
O59 O 0.2983 0.88417 0.23078 0.0
C60 C 0.34659 0.96076 0.3013 0.0
O61 O 0.35878 0.97495 0.26079 0.0
C62 C 0.32674 0.95002 0.15436 0.0
O63 O 0.31343 0.9538 0.19011 0.0
O64 O 0.3604 0.90885 0.23715 0.0
C65 C 0.38113 0.27262 0.75077 0.0
O66 O 0.36265 0.27317 0.77654 0.0
O67 O 0.38131 0.33186 0.67824 0.0
Zn68 Zn 0.39869 0.32599 0.73923 0.0
O69 O 0.38241 0.32613 0.80759 0.0
C70 C 0.43761 0.37746 0.73791 0.0
O71 O 0.41728 0.37983 0.73281 0.0
O72 O 0.39877 0.29309 0.73082 0.0
C73 C 0.36824 0.33588 0.81344 0.0
O74 O 0.36273 0.34545 0.7727 0.0
C75 C 0.36216 0.31489 0.65338 0.0
O76 O 0.35162 0.29096 0.66813 0.0
O77 O 0.43476 0.35525 0.74128 0.0
C78 C 0.60423 0.87765 0.27183 0.0
O79 O 0.625 0.89904 0.2839 0.0
O80 O 0.60069 0.92797 0.33964 0.0
Zn81 Zn 0.58317 0.9105 0.27275 0.0
O82 O 0.60032 0.93255 0.21013 0.0
C83 C 0.54025 0.91563 0.30427 0.0
O84 O 0.55694 0.93157 0.33803 0.0
O85 O 0.58348 0.87775 0.26528 0.0
C86 C 0.59751 0.95168 0.20174 0.0
O87 O 0.5849 0.95733 0.23588 0.0
C88 C 0.62248 0.94798 0.34233 0.0
O89 O 0.63547 0.958 0.29928 0.0
O90 O 0.54686 0.90355 0.27333 0.0
C91 C 0.71285 0.59245 0.72944 0.0
O92 O 0.71277 0.61372 0.71978 0.0
O93 O 0.66116 0.59125 0.81561 0.0
Zn94 Zn 0.66035 0.5752 0.74629 0.0
O95 O 0.6583 0.59517 0.68536 0.0
C96 C 0.60889 0.53787 0.76615 0.0
O97 O 0.60988 0.55769 0.7893 0.0
O98 O 0.69197 0.57252 0.74079 0.0
C99 C 0.64561 0.60671 0.68662 0.0
O100 O 0.63411 0.60674 0.73006 0.0
C101 C 0.67199 0.61487 0.82632 0.0
O102 O 0.68438 0.63178 0.78962 0.0
O103 O 0.6289 0.54036 0.74443 0.0
C104 C 0.10928 0.72029 0.25639 0.0
O105 O 0.08785 0.72006 0.24662 0.0
O106 O 0.0576 0.6657 0.3393 0.0
Zn107 Zn 0.07479 0.66725 0.27126 0.0
O108 O 0.05339 0.66572 0.2097 0.0
C109 C 0.08389 0.62923 0.22476 0.0
O110 O 0.08548 0.64187 0.18186 0.0
O111 O 0.10853 0.69954 0.26811 0.0
C112 C 0.0328 0.64525 0.19954 0.0
O113 O 0.02516 0.62568 0.2312 0.0
C114 C 0.03922 0.67 0.3448 0.0
O115 O 0.03042 0.67627 0.30387 0.0
O116 O 0.08 0.63698 0.26803 0.0
C117 C 0.3889 0.11033 0.73244 0.0
O118 O 0.36802 0.08803 0.72798 0.0
O119 O 0.39271 0.05912 0.8028 0.0
Zn120 Zn 0.41061 0.07836 0.73733 0.0
O121 O 0.39344 0.05899 0.67182 0.0
C122 C 0.45484 0.07493 0.76845 0.0
O123 O 0.43895 0.05898 0.8033 0.0
O124 O 0.41023 0.1112 0.73685 0.0
C125 C 0.3955 0.03998 0.65782 0.0
O126 O 0.40803 0.03238 0.68791 0.0
C127 C 0.37344 0.03677 0.80424 0.0
O128 O 0.36345 0.02461 0.76039 0.0
O129 O 0.44705 0.08574 0.73675 0.0
C130 C 0.27698 0.40076 0.24785 0.0
O131 O 0.27391 0.37802 0.25678 0.0
O132 O 0.32654 0.39451 0.31208 0.0
Zn133 Zn 0.3287 0.41289 0.24493 0.0
O134 O 0.32718 0.39243 0.18183 0.0
C135 C 0.38087 0.44944 0.27037 0.0
O136 O 0.37834 0.43082 0.30076 0.0
O137 O 0.29939 0.41946 0.24151 0.0
C138 C 0.34547 0.38857 0.1712 0.0
O139 O 0.36498 0.39713 0.20332 0.0
C140 C 0.32099 0.37137 0.31579 0.0
O141 O 0.31549 0.35738 0.27343 0.0
O142 O 0.36197 0.44632 0.24302 0.0
C143 C 0.87994 0.27212 0.74001 0.0
O144 O 0.90037 0.26974 0.74044 0.0
O145 O 0.93656 0.32241 0.80705 0.0
Zn146 Zn 0.91761 0.3248 0.74462 0.0
O147 O 0.93563 0.32727 0.677 0.0
C148 C 0.93438 0.37789 0.74273 0.0
O149 O 0.9555 0.37868 0.72752 0.0
O150 O 0.88258 0.29426 0.74193 0.0
C151 C 0.92652 0.33189 0.63638 0.0
O152 O 0.90606 0.33407 0.64093 0.0
C153 C 0.96064 0.33205 0.80768 0.0
O154 O 0.97375 0.34289 0.76515 0.0
O155 O 0.91489 0.3564 0.75266 0.0
H156 H 0.00976 0.32451 0.12697 0.0
H157 H 0.05402 0.40241 0.07325 0.0
H158 H 0.99085 0.31151 0.03995 0.0
H159 H 0.03507 0.38948 0.98701 0.0
H160 H 0.01203 0.35692 0.82606 0.0
H161 H 0.03353 0.36415 0.91018 0.0
H162 H 0.96074 0.3188 0.98619 0.0
H163 H 0.93921 0.3113 0.90213 0.0
C164 C 0.01558 0.33881 0.09658 0.0
C165 C 0.0333 0.3645 0.10708 0.0
C166 C 0.00469 0.33138 0.04686 0.0
C167 C 0.01152 0.34946 0.00663 0.0
C168 C 0.02968 0.37502 0.01693 0.0
C169 C 0.04038 0.38246 0.06655 0.0
C170 C 0.00062 0.34818 0.86057 0.0
C171 C 0.97388 0.33377 0.85745 0.0
C172 C 0.01294 0.35242 0.90878 0.0
C173 C -0.00119 0.34225 0.95485 0.0
C174 C 0.97218 0.32675 0.95137 0.0
C175 C 0.95984 0.3226 0.9032 0.0
H176 H 0.60058 0.93158 0.43811 0.0
H177 H 0.66577 0.99357 0.36168 0.0
H178 H 0.61413 0.95423 0.52083 0.0
H179 H 0.67906 0.01648 0.44452 0.0
H180 H 0.70579 0.04164 0.61278 0.0
H181 H 0.69494 0.01626 0.53289 0.0
H182 H 0.61532 0.99191 0.55676 0.0
H183 H 0.626 0.01677 0.63665 0.0
C184 C 0.61788 0.95 0.43897 0.0
C185 C 0.63199 0.96087 0.39319 0.0
C186 C 0.62556 0.96303 0.48638 0.0
C187 C 0.64751 0.98726 0.48914 0.0
C188 C 0.66215 -0.00224 0.44376 0.0
C189 C 0.65447 0.98468 0.39624 0.0
C190 C 0.68596 0.03074 0.60109 0.0
C191 C 0.66676 0.03122 0.6311 0.0
C192 C 0.67978 0.01632 0.55521 0.0
C193 C 0.65427 0.00202 0.53857 0.0
C194 C 0.63511 0.00237 0.5689 0.0
C195 C 0.64127 0.01677 0.61459 0.0
H196 H 0.65479 0.63043 0.16015 0.0
H197 H 0.62302 0.6716 0.082 0.0
H198 H 0.66983 0.62382 0.0764 0.0
H199 H 0.63789 0.66479 -0.00162 0.0
H200 H 0.68394 0.66264 0.85936 0.0
H201 H 0.6768 0.67484 0.94612 0.0
H202 H 0.64682 0.59733 -0.00071 0.0
H203 H 0.654 0.58518 0.91324 0.0
C204 C 0.65124 0.6383 0.12524 0.0
C205 C 0.63748 0.65131 0.12766 0.0
C206 C 0.65977 0.63442 0.07728 0.0
C207 C 0.65489 0.64365 0.03085 0.0
C208 C 0.64212 0.65763 0.03355 0.0
C209 C 0.63344 0.66136 0.08144 0.0
C210 C 0.67607 0.64829 0.88976 0.0
C211 C 0.66941 0.62292 0.87937 0.0
C212 C 0.6719 0.65526 0.9393 0.0
C213 C 0.66127 0.63704 0.97945 0.0
C214 C 0.65533 0.61187 0.96937 0.0
C215 C 0.65927 0.60488 0.91988 0.0
H216 H 0.05611 0.66255 0.43831 0.0
H217 H 0.99462 0.6691 0.36823 0.0
H218 H 0.03457 0.65326 0.52232 0.0
H219 H 0.97267 0.65909 0.45222 0.0
H220 H 0.94798 0.65761 0.62099 0.0
H221 H 0.97339 0.67341 0.54133 0.0
H222 H -0.00256 0.61757 0.55925 0.0
H223 H 0.97273 0.60229 0.63904 0.0
C224 C 0.038 0.66206 0.44085 0.0
C225 C 0.02695 0.66632 0.39647 0.0
C226 C 0.02559 0.65662 0.489 0.0
C227 C 0.00176 0.65513 0.4939 0.0
C228 C 0.99112 0.66029 0.44991 0.0
C229 C 0.00362 0.66589 0.40169 0.0
C230 C 0.9589 0.64889 0.60811 0.0
C231 C 0.95829 0.62866 0.63631 0.0
C232 C 0.97332 0.65784 0.56232 0.0
C233 C 0.98744 0.64676 0.54389 0.0
C234 C 0.98713 0.62684 0.57271 0.0
C235 C 0.97279 0.61794 0.61837 0.0
H236 H 0.3404 0.98621 0.82253 0.0
H237 H 0.38421 0.0586 0.90106 0.0
H238 H 0.32671 0.96486 0.90708 0.0
H239 H 0.37037 0.03719 0.98544 0.0
H240 H 0.32094 0.99043 0.12577 0.0
H241 H 0.32977 0.01134 0.04025 0.0
H242 H 0.35117 0.958 0.98066 0.0
H243 H 0.3426 0.93727 0.06576 0.0
C244 C 0.34689 -0.0024 0.85775 0.0
C245 C 0.36352 0.02407 0.85513 0.0
C246 C 0.33913 0.98536 0.90609 0.0
C247 C 0.34757 -0.00061 0.95271 0.0
C248 C 0.36344 0.02595 0.95009 0.0
C249 C 0.37147 0.03816 0.90179 0.0
C250 C 0.3274 0.98312 0.0943 0.0
C251 C 0.33116 0.96228 0.10252 0.0
C252 C 0.33252 0.99512 0.04551 0.0
C253 C 0.34107 0.98621 0.00389 0.0
C254 C 0.34434 0.96508 0.0119 0.0
C255 C 0.3396 0.95335 0.06075 0.0
H256 H 0.32712 0.39362 0.41127 0.0
H257 H 0.31877 0.32591 0.33647 0.0
H258 H 0.3336 0.37862 0.49493 0.0
H259 H 0.32596 0.31121 0.42016 0.0
H260 H 0.32307 0.28378 0.5875 0.0
H261 H 0.30961 0.29605 0.50776 0.0
H262 H 0.36766 0.37456 0.53308 0.0
H263 H 0.38061 0.36251 0.61283 0.0
C264 C 0.32658 0.37547 0.4127 0.0
C265 C 0.32268 0.36107 0.36712 0.0
C266 C 0.33041 0.36693 0.46065 0.0
C267 C 0.33061 0.34386 0.46415 0.0
C268 C 0.32572 0.32896 0.41891 0.0
C269 C 0.32174 0.33746 0.37088 0.0
C270 C 0.33278 0.30368 0.5762 0.0
C271 C 0.35294 0.32215 0.60647 0.0
C272 C 0.32516 0.31068 0.53039 0.0
C273 C 0.33754 0.33629 0.51406 0.0
C274 C 0.35741 0.35474 0.5449 0.0
C275 C 0.36498 0.34778 0.59054 0.0
H276 H 0.00406 0.6455 0.87115 0.0
H277 H 0.92825 0.59854 0.93392 0.0
H278 H 0.02133 0.65511 0.95942 0.0
H279 H 0.94548 0.60866 0.02224 0.0
H280 H 0.991 0.60281 0.16149 0.0
H281 H 0.97107 0.59738 0.07632 0.0
H282 H 0.02331 0.67656 0.04051 0.0
H283 H 0.04369 0.68187 0.1254 0.0
C284 C 0.99102 0.63755 0.90378 0.0
C285 C 0.96482 0.62106 0.89548 0.0
C286 C 0.00091 0.64318 0.95445 0.0
C287 C 0.9848 0.63251 0.99793 0.0
C288 C 0.95846 0.61683 0.98959 0.0
C289 C 0.94858 0.61114 0.93894 0.0
C290 C -0.00192 0.61914 0.13571 0.0
C291 C 0.01906 0.64271 0.15009 0.0
C292 C 0.98655 0.61607 0.08693 0.0
C293 C -0.00433 0.63651 0.05146 0.0
C294 C 0.01608 0.66033 0.0666 0.0
C295 C 0.02766 0.6634 0.11538 0.0
H296 H 0.37233 0.01142 0.32691 0.0
H297 H 0.3286 0.9362 0.39445 0.0
H298 H 0.38149 0.03001 0.41431 0.0
H299 H 0.33769 0.95484 0.48158 0.0
H300 H 0.39195 0.99601 0.62118 0.0
H301 H 0.37727 0.97667 0.53544 0.0
H302 H 0.36088 0.03613 0.49365 0.0
H303 H 0.37566 0.05561 0.57948 0.0
C304 C 0.36441 -0.00112 0.36029 0.0
C305 C 0.34991 0.97232 0.35369 0.0
C306 C 0.36957 0.00954 0.41034 0.0
C307 C 0.36046 0.99384 0.45475 0.0
C308 C 0.34524 0.96737 0.44807 0.0
C309 C 0.33994 0.95673 0.3981 0.0
C310 C 0.38506 0.00488 0.59389 0.0
C311 C 0.38507 0.02739 0.60707 0.0
C312 C 0.3765 0.99371 0.54488 0.0
C313 C 0.36795 0.00492 0.50784 0.0
C314 C 0.36757 0.02721 0.52128 0.0
C315 C 0.37591 0.03826 0.57051 0.0
H316 H 0.34337 0.36128 0.84185 0.0
H317 H 0.37581 0.31754 0.90524 0.0
H318 H 0.33525 0.37053 0.93002 0.0
H319 H 0.36719 0.32635 0.99339 0.0
H320 H 0.38283 0.38002 0.13418 0.0
H321 H 0.38516 0.36379 0.04873 0.0
H322 H 0.3109 0.35303 0.00984 0.0
H323 H 0.30877 0.3698 0.09511 0.0
C324 C 0.34838 0.35328 0.87455 0.0
C325 C 0.36049 0.33892 0.86652 0.0
C326 C 0.3436 0.35847 0.92514 0.0
C327 C 0.35077 0.34935 0.96877 0.0
C328 C 0.36185 0.33403 0.96062 0.0
C329 C 0.36667 0.32889 0.91007 0.0
C330 C 0.36688 0.37397 0.10765 0.0
C331 C 0.34572 0.3764 0.12131 0.0
C332 C 0.36814 0.3645 0.05872 0.0
C333 C 0.34824 0.3572 0.02236 0.0
C334 C 0.32669 0.35884 0.0367 0.0
C335 C 0.32543 0.36832 0.08566 0.0
H336 H 0.91574 0.34878 0.54646 0.0
H337 H 0.96677 0.32526 0.61096 0.0
H338 H 0.9387 0.35894 0.46411 0.0
H339 H 0.98929 0.33461 0.52775 0.0
H340 H 0.04236 0.38594 0.39753 0.0
H341 H 0.01772 0.37102 0.47762 0.0
H342 H 0.94791 0.34195 0.38866 0.0
H343 H 0.9727 0.35772 0.30847 0.0
C344 C 0.93166 0.34544 0.54284 0.0
C345 C 0.93953 0.33636 0.58537 0.0
C346 C 0.94474 0.35111 0.4954 0.0
C347 C 0.9659 0.34764 0.48919 0.0
C348 C 0.97334 0.3379 0.5314 0.0
C349 C 0.96035 0.33241 0.57903 0.0
C350 C 0.02174 0.37622 0.39494 0.0
C351 C 0.00949 0.37318 0.34662 0.0
C352 C 0.00757 0.36748 0.44093 0.0
C353 C 0.98079 0.35532 0.43973 0.0
C354 C 0.96852 0.35163 0.39115 0.0
C355 C 0.98272 0.36054 0.34512 0.0
H356 H 0.59026 0.00977 0.90091 0.0
H357 H 0.67004 0.032 0.91146 0.0
H358 H 0.583 0.99057 0.98736 0.0
H359 H 0.66261 0.01262 -0.0017 0.0
H360 H 0.62715 0.94768 0.12576 0.0
H361 H 0.63749 0.96821 0.03994 0.0
H362 H 0.59685 0.00766 0.07905 0.0
H363 H 0.58652 0.9873 0.16459 0.0
C364 C 0.60623 0.01044 0.92153 0.0
C365 C 0.63075 0.02248 0.89941 0.0
C366 C 0.60208 -0.0004 0.97118 0.0
C367 C 0.62229 0.00032 -0.00039 0.0
C368 C 0.6467 0.01177 0.97709 0.0
C369 C 0.65094 0.0229 0.92753 0.0
C370 C 0.62064 0.96092 0.1162 0.0
C371 C 0.60588 0.96575 0.15182 0.0
C372 C 0.62663 0.97271 0.06719 0.0
C373 C 0.61774 0.98929 0.05278 0.0
C374 C 0.60363 0.99466 0.08894 0.0
C375 C 0.59787 0.98311 0.13803 0.0
H376 H 0.57087 0.64225 0.44314 0.0
H377 H 0.64241 0.66042 0.37045 0.0
H378 H 0.58533 0.63337 0.52485 0.0
H379 H 0.65732 0.65235 0.45302 0.0
H380 H 0.6593 0.60235 0.5872 0.0
H381 H 0.64921 0.61687 0.50682 0.0
H382 H 0.61402 0.65155 0.59634 0.0
H383 H 0.62335 0.6362 0.67675 0.0
C384 C 0.58985 0.64469 0.44479 0.0
C385 C 0.60544 0.6519 0.40022 0.0
C386 C 0.59824 0.63978 0.49186 0.0
C387 C 0.62252 0.64215 0.49565 0.0
C388 C 0.63837 0.64998 0.45131 0.0
C389 C 0.62988 0.65472 0.40404 0.0
C390 C 0.64962 0.61328 0.58979 0.0
C391 C 0.64189 0.6179 0.63834 0.0
C392 C 0.64396 0.62176 0.54364 0.0
C393 C 0.63062 0.63524 0.54498 0.0
C394 C 0.62386 0.64077 0.59378 0.0
C395 C 0.62934 0.63211 0.63992 0.0
H396 H 0.08513 0.60383 0.13766 0.0
H397 H 0.08388 0.60003 0.3063 0.0
H398 H 0.0831 0.5626 0.13359 0.0
H399 H 0.08164 0.55873 0.30208 0.0
H400 H 0.09985 0.49482 0.27385 0.0
H401 H 0.10664 0.53813 0.27555 0.0
H402 H 0.05013 0.51808 0.15423 0.0
H403 H 0.04345 0.47496 0.15216 0.0
C404 C 0.08462 0.59431 0.17386 0.0
C405 C 0.08454 0.60516 0.2223 0.0
C406 C 0.08331 0.57063 0.17149 0.0
C407 C 0.08209 0.55739 0.2175 0.0
C408 C 0.08279 0.56859 0.26596 0.0
C409 C 0.08393 0.59218 0.26834 0.0
C410 C 0.08898 0.4997 0.24737 0.0
C411 C 0.07106 0.48143 0.21298 0.0
C412 C 0.0928 0.52446 0.24852 0.0
C413 C 0.07893 0.53149 0.21501 0.0
C414 C 0.06132 0.51332 0.18008 0.0
C415 C 0.05738 0.48856 0.17917 0.0
H416 H 0.47755 0.05564 0.83143 0.0
H417 H 0.49146 0.10365 0.69624 0.0
H418 H 0.51975 0.06044 0.8221 0.0
H419 H 0.53394 0.10876 0.68742 0.0
H420 H 0.59124 0.0804 0.65208 0.0
H421 H 0.55187 0.08168 0.66287 0.0
H422 H 0.56523 0.09178 0.82915 0.0
H423 H 0.60438 0.0901 0.81859 0.0
C424 C 0.48969 0.06742 0.8 0.0
C425 C 0.48108 0.07917 0.76445 0.0
C426 C 0.51397 0.07032 0.79487 0.0
C427 C 0.5302 0.085 0.75402 0.0
C428 C 0.52178 0.09712 0.71898 0.0
C429 C 0.49749 0.09429 0.72421 0.0
C430 C 0.58594 0.08318 0.69088 0.0
C431 C 0.60085 0.08493 0.73451 0.0
C432 C 0.56343 0.08404 0.69702 0.0
C433 C 0.55533 0.08663 0.74692 0.0
C434 C 0.57076 0.08936 0.79029 0.0
C435 C 0.59328 0.08855 0.78416 0.0
H436 H 0.50691 0.60582 0.24179 0.0
H437 H 0.5423 0.55909 0.2488 0.0
H438 H 0.46493 0.56766 0.24847 0.0
H439 H 0.5004 0.52101 0.25442 0.0
H440 H 0.4245 0.46193 0.32425 0.0
H441 H 0.46581 0.5006 0.31688 0.0
H442 H 0.43522 0.52946 0.19985 0.0
H443 H 0.39362 0.49089 0.20794 0.0
C444 C 0.50573 0.58741 0.24438 0.0
C445 C 0.52795 0.5855 0.24497 0.0
C446 C 0.48167 0.56554 0.24796 0.0
C447 C 0.47933 0.5413 0.25224 0.0
C448 C 0.50156 0.53942 0.25206 0.0
C449 C 0.52558 0.56125 0.24851 0.0
C450 C 0.42652 0.47653 0.29702 0.0
C451 C 0.40576 0.47329 0.26662 0.0
C452 C 0.45027 0.49864 0.29256 0.0
C453 C 0.45386 0.51805 0.25754 0.0
C454 C 0.43302 0.51497 0.22754 0.0
C455 C 0.40922 0.49281 0.23201 0.0
H456 H 0.97021 0.53317 0.80285 0.0
H457 H 0.893 0.49665 0.74363 0.0
H458 H 0.97002 0.49301 0.79657 0.0
H459 H 0.89305 0.45648 0.73617 0.0
H460 H 0.89463 0.3834 0.77764 0.0
H461 H 0.89357 0.42293 0.78774 0.0
H462 H 0.97071 0.46559 0.72909 0.0
H463 H 0.972 0.42627 0.72016 0.0
C464 C 0.95319 0.51657 0.7884 0.0
C465 C 0.93165 0.51813 0.77354 0.0
C466 C 0.95314 0.49357 0.78451 0.0
C467 C 0.9316 0.47158 0.76547 0.0
C468 C 0.90987 0.47302 0.75144 0.0
C469 C 0.90989 0.49606 0.75548 0.0
C470 C 0.91136 0.40123 0.76695 0.0
C471 C 0.93343 0.40171 0.74825 0.0
C472 C 0.9107 0.42387 0.77248 0.0
C473 C 0.93208 0.44743 0.7594 0.0
C474 C 0.95406 0.44782 0.74038 0.0
C475 C 0.95474 0.42524 0.73495 0.0
H476 H 0.38363 0.88291 0.24672 0.0
H477 H 0.43278 0.96474 0.24101 0.0
H478 H 0.42062 0.87809 0.26622 0.0
H479 H 0.46947 0.95984 0.26035 0.0
H480 H 0.52342 0.94409 0.35456 0.0
H481 H 0.48449 0.94541 0.3378 0.0
H482 H 0.46181 0.88604 0.22229 0.0
H483 H 0.50088 0.8846 0.23903 0.0
C484 C 0.40229 0.89983 0.24942 0.0
C485 C 0.40527 0.92421 0.24248 0.0
C486 C 0.42343 0.89704 0.26043 0.0
C487 C 0.44784 0.9186 0.26526 0.0
C488 C 0.45081 0.94291 0.25766 0.0
C489 C 0.42979 0.94568 0.24621 0.0
C490 C 0.51006 0.9311 0.32596 0.0
C491 C 0.51535 0.91437 0.29784 0.0
C492 C 0.48783 0.93199 0.31617 0.0
C493 C 0.4703 0.91603 0.27835 0.0
C494 C 0.47499 0.8985 0.25176 0.0
C495 C 0.49738 0.89775 0.26126 0.0
H496 H 0.59874 0.49387 0.71549 0.0
H497 H 0.56379 0.5267 0.81144 0.0
H498 H 0.55762 0.45454 0.70819 0.0
H499 H 0.52304 0.48742 0.80493 0.0
H500 H 0.44944 0.42706 0.73076 0.0
H501 H 0.49124 0.46505 0.73763 0.0
H502 H 0.52567 0.41808 0.75973 0.0
H503 H 0.48371 0.37984 0.75187 0.0
C504 C 0.58236 0.49263 0.73534 0.0
C505 C 0.58449 0.51347 0.76374 0.0
C506 C 0.55885 0.47008 0.73135 0.0
C507 C 0.53704 0.46796 0.75562 0.0
C508 C 0.53937 0.48861 0.78494 0.0
C509 C 0.56279 0.5111 0.78891 0.0
C510 C 0.46589 0.42476 0.73698 0.0
C511 C 0.46322 0.40041 0.74096 0.0
C512 C 0.48986 0.44657 0.74124 0.0
C513 C 0.51175 0.44458 0.74967 0.0
C514 C 0.50918 0.42023 0.75288 0.0
C515 C 0.48514 0.39834 0.74862 0.0
H516 H 0.1642 0.4415 0.15246 0.0
H517 H 0.13295 0.39712 0.29315 0.0
H518 H 0.20187 0.43692 0.16105 0.0
H519 H 0.17075 0.39289 0.30203 0.0
H520 H 0.22695 0.36522 0.26363 0.0
H521 H 0.18999 0.37097 0.25654 0.0
H522 H 0.23942 0.45035 0.21787 0.0
H523 H 0.27645 0.44456 0.22424 0.0
C524 C 0.16542 0.4309 0.18536 0.0
C525 C 0.14554 0.4196 0.222 0.0
C526 C 0.18706 0.4284 0.19042 0.0
C527 C 0.18923 0.41448 0.23213 0.0
C528 C 0.16947 0.40343 0.26907 0.0
C529 C 0.14788 0.40598 0.2641 0.0
C530 C 0.22997 0.38391 0.25367 0.0
C531 C 0.25463 0.40442 0.24445 0.0
C532 C 0.20879 0.38724 0.24991 0.0
C533 C 0.21181 0.41112 0.2367 0.0
C534 C 0.23648 0.43166 0.22757 0.0
C535 C 0.25768 0.42836 0.23151 0.0
H536 H 0.86737 0.22204 0.74192 0.0
H537 H 0.83426 0.27076 0.73172 0.0
H538 H 0.82482 0.18456 0.73771 0.0
H539 H 0.79177 0.23328 0.72813 0.0
H540 H 0.72216 0.16032 0.66843 0.0
H541 H 0.7651 0.19734 0.66899 0.0
H542 H 0.78637 0.16337 0.7934 0.0
H543 H 0.74362 0.12626 0.79255 0.0
C544 C 0.85104 0.22476 0.73882 0.0
C545 C 0.85419 0.24937 0.73724 0.0
C546 C 0.82667 0.20329 0.73665 0.0
C547 C 0.80498 0.206 0.7326 0.0
C548 C 0.80815 0.2306 0.73063 0.0
C549 C 0.83249 0.25206 0.73305 0.0
C550 C 0.73601 0.16072 0.6958 0.0
C551 C 0.72946 0.14038 0.7305 0.0
C552 C 0.76056 0.18197 0.69628 0.0
C553 C 0.77908 0.18325 0.73127 0.0
C554 C 0.77259 0.1628 0.7656 0.0
C555 C 0.74804 0.14162 0.7653 0.0
H556 H 0.64654 0.76243 0.20866 0.0
H557 H 0.56982 0.72034 0.2698 0.0
H558 H 0.64533 0.80193 0.21619 0.0
H559 H 0.56888 0.75987 0.27869 0.0
H560 H 0.566 0.83149 0.23791 0.0
H561 H 0.56733 0.79224 0.22703 0.0
H562 H 0.64531 0.83041 0.28199 0.0
H563 H 0.64422 0.86988 0.29148 0.0
C564 C 0.62945 0.76162 0.22387 0.0
C565 C 0.60827 0.73826 0.23859 0.0
C566 C 0.62882 0.78428 0.22849 0.0
C567 C 0.60702 0.78407 0.24812 0.0
C568 C 0.58582 0.76067 0.2627 0.0
C569 C 0.58642 0.73801 0.25786 0.0
C570 C 0.58344 0.83152 0.24764 0.0
C571 C 0.605 0.85379 0.26559 0.0
C572 C 0.58416 0.80897 0.24166 0.0
C573 C 0.60641 0.80816 0.25373 0.0
C574 C 0.62799 0.83047 0.27163 0.0
C575 C 0.62731 0.85306 0.27739 0.0
H576 H 0.83728 0.55854 0.72228 0.0
H577 H 0.86643 0.62991 0.80516 0.0
H578 H 0.79704 0.55778 0.7076 0.0
H579 H 0.82614 0.62891 0.79112 0.0
H580 H 0.76081 0.63235 0.71203 0.0
H581 H 0.80111 0.63268 0.71973 0.0
H582 H 0.76028 0.55255 0.75875 0.0
H583 H 0.7199 0.55207 0.7503 0.0
C584 C 0.83509 0.57403 0.73745 0.0
C585 C 0.85504 0.59429 0.76492 0.0
C586 C 0.81201 0.57353 0.72921 0.0
C587 C 0.80845 0.59331 0.7481 0.0
C588 C 0.82843 0.61358 0.77543 0.0
C589 C 0.85146 0.61405 0.78379 0.0
C590 C 0.76039 0.61475 0.72188 0.0
C591 C 0.73715 0.59221 0.73081 0.0
C592 C 0.7835 0.61499 0.72659 0.0
C593 C 0.78387 0.59269 0.74022 0.0
C594 C 0.7606 0.56999 0.74779 0.0
C595 C 0.73748 0.56976 0.74319 0.0
H596 H 0.26782 0.83706 0.21233 0.0
H597 H 0.23233 0.87741 0.27817 0.0
H598 H 0.22688 0.79761 0.21371 0.0
H599 H 0.19151 0.83781 0.28069 0.0
H600 H 0.11783 0.76742 0.22781 0.0
H601 H 0.15858 0.80706 0.22342 0.0
H602 H 0.19721 0.76734 0.27618 0.0
H603 H 0.15658 0.72762 0.27937 0.0
C604 C 0.25131 0.8375 0.22726 0.0
C605 C 0.25333 0.86037 0.2452 0.0
C606 C 0.22787 0.81485 0.22832 0.0
C607 C 0.20595 0.81455 0.24745 0.0
C608 C 0.20797 0.83746 0.2651 0.0
C609 C 0.2314 0.86013 0.26393 0.0
C610 C 0.13502 0.76714 0.23842 0.0
C611 C 0.13397 0.74437 0.25391 0.0
C612 C 0.15836 0.78989 0.23617 0.0
C613 C 0.18114 0.79036 0.24946 0.0
C614 C 0.18006 0.76757 0.26495 0.0
C615 C 0.15674 0.74482 0.26709 0.0
H616 H 0.41592 0.26481 0.69826 0.0
H617 H 0.34766 0.22609 0.79229 0.0
H618 H 0.41734 0.22541 0.69169 0.0
H619 H 0.34942 0.18683 0.78659 0.0
H620 H 0.34654 0.11514 0.72218 0.0
H621 H 0.34432 0.15424 0.72431 0.0
H622 H 0.42589 0.1981 0.74771 0.0
H623 H 0.42822 0.15913 0.74449 0.0
C624 C 0.40124 0.24791 0.7176 0.0
C625 C 0.38171 0.24859 0.7459 0.0
C626 C 0.40214 0.22537 0.71406 0.0
C627 C 0.38355 0.20302 0.73876 0.0
C628 C 0.36386 0.20365 0.7666 0.0
C629 C 0.36294 0.22619 0.77011 0.0
C630 C 0.36401 0.13313 0.72764 0.0
C631 C 0.38755 0.13403 0.73318 0.0
C632 C 0.36271 0.15552 0.72914 0.0
C633 C 0.38492 0.17926 0.73623 0.0
C634 C 0.40848 0.18015 0.74149 0.0
C635 C 0.40978 0.15778 0.73995 0.0
loop_
_geom_bond_atom_site_label_1
_geom_bond_atom_site_label_2
_geom_bond_distance
_geom_bond_site_symmetry_2
_ccdc_geom_bond_type
C0 O1 1.160 . S
C0 O7 1.185 . S
O1 C0 1.160 . S
O2 Zn3 1.899 . S
O2 C10 1.284 . S
Zn3 O2 1.899 . S
Zn3 O4 2.032 . S
Zn3 O7 2.086 . S
Zn3 O12 1.977 . S
O4 Zn3 2.032 . S
O4 C8 1.278 . S
C5 O6 1.203 . S
C5 O12 1.267 . S
O6 C5 1.203 . S
O7 C0 1.185 . S
O7 Zn3 2.086 . S
C8 O4 1.278 . S
C8 O9 1.211 . S
O9 C8 1.211 . S
C10 O2 1.284 . S
C10 O11 1.273 . S
O11 C10 1.273 . S
O12 Zn3 1.977 . S
O12 C5 1.267 . S
C13 O14 1.160 . S
C13 O20 1.185 . S
O14 C13 1.160 . S
O15 Zn16 1.899 . S
O15 C23 1.284 . S
Zn16 O15 1.899 . S
Zn16 O17 2.032 . S
Zn16 O20 2.086 . S
Zn16 O25 1.977 . S
O17 Zn16 2.032 . S
O17 C21 1.278 . S
C18 O19 1.203 . S
C18 O25 1.267 . S
O19 C18 1.203 . S
O20 C13 1.185 . S
O20 Zn16 2.086 . S
C21 O17 1.278 . S
C21 O22 1.211 . S
O22 C21 1.211 . S
C23 O15 1.284 . S
C23 O24 1.273 . S
O24 C23 1.273 . S
O25 Zn16 1.977 . S
O25 C18 1.267 . S
C26 O27 1.160 . S
C26 O33 1.185 . S
O27 C26 1.160 . S
O28 Zn29 1.899 . S
O28 C36 1.284 . S
Zn29 O28 1.899 . S
Zn29 O30 2.032 . S
Zn29 O33 2.086 . S
Zn29 O38 1.977 . S
O30 Zn29 2.032 . S
O30 C34 1.278 . S
C31 O32 1.203 . S
C31 O38 1.267 . S
O32 C31 1.203 . S
O33 C26 1.185 . S
O33 Zn29 2.086 . S
C34 O30 1.278 . S
C34 O35 1.211 . S
O35 C34 1.211 . S
C36 O28 1.284 . S
C36 O37 1.273 . S
O37 C36 1.273 . S
O38 Zn29 1.977 . S
O38 C31 1.267 . S
C39 O40 1.160 . S
C39 O46 1.185 . S
O40 C39 1.160 . S
O41 Zn42 1.899 . S
O41 C49 1.284 . S
Zn42 O41 1.899 . S
Zn42 O43 2.032 . S
Zn42 O46 2.086 . S
Zn42 O51 1.977 . S
O43 Zn42 2.032 . S
O43 C47 1.278 . S
C44 O45 1.203 . S
C44 O51 1.267 . S
O45 C44 1.203 . S
O46 C39 1.185 . S
O46 Zn42 2.086 . S
C47 O43 1.278 . S
C47 O48 1.211 . S
O48 C47 1.211 . S
C49 O41 1.284 . S
C49 O50 1.273 . S
O50 C49 1.273 . S
O51 Zn42 1.977 . S
O51 C44 1.267 . S
C52 O53 1.160 . S
C52 O59 1.185 . S
O53 C52 1.160 . S
O54 Zn55 1.899 . S
O54 C62 1.284 . S
Zn55 O54 1.899 . S
Zn55 O56 2.032 . S
Zn55 O59 2.086 . S
Zn55 O64 1.977 . S
O56 Zn55 2.032 . S
O56 C60 1.278 . S
C57 O58 1.203 . S
C57 O64 1.267 . S
O58 C57 1.203 . S
O59 C52 1.185 . S
O59 Zn55 2.086 . S
C60 O56 1.278 . S
C60 O61 1.211 . S
O61 C60 1.211 . S
C62 O54 1.284 . S
C62 O63 1.273 . S
O63 C62 1.273 . S
O64 Zn55 1.977 . S
O64 C57 1.267 . S
C65 O66 1.160 . S
C65 O72 1.185 . S
O66 C65 1.160 . S
O67 Zn68 1.899 . S
O67 C75 1.284 . S
Zn68 O67 1.899 . S
Zn68 O69 2.032 . S
Zn68 O72 2.086 . S
Zn68 O77 1.977 . S
O69 Zn68 2.032 . S
O69 C73 1.278 . S
C70 O71 1.203 . S
C70 O77 1.267 . S
O71 C70 1.203 . S
O72 C65 1.185 . S
O72 Zn68 2.086 . S
C73 O69 1.278 . S
C73 O74 1.211 . S
O74 C73 1.211 . S
C75 O67 1.284 . S
C75 O76 1.273 . S
O76 C75 1.273 . S
O77 Zn68 1.977 . S
O77 C70 1.267 . S
C78 O79 1.160 . S
C78 O85 1.185 . S
O79 C78 1.160 . S
O80 Zn81 1.899 . S
O80 C88 1.284 . S
Zn81 O80 1.899 . S
Zn81 O82 2.032 . S
Zn81 O85 2.086 . S
Zn81 O90 1.977 . S
O82 Zn81 2.032 . S
O82 C86 1.278 . S
C83 O84 1.203 . S
C83 O90 1.267 . S
O84 C83 1.203 . S
O85 C78 1.185 . S
O85 Zn81 2.086 . S
C86 O82 1.278 . S
C86 O87 1.211 . S
O87 C86 1.211 . S
C88 O80 1.284 . S
C88 O89 1.273 . S
O89 C88 1.273 . S
O90 Zn81 1.977 . S
O90 C83 1.267 . S
C91 O92 1.160 . S
C91 O98 1.185 . S
O92 C91 1.160 . S
O93 Zn94 1.899 . S
O93 C101 1.284 . S
Zn94 O93 1.899 . S
Zn94 O95 2.032 . S
Zn94 O98 2.086 . S
Zn94 O103 1.977 . S
O95 Zn94 2.032 . S
O95 C99 1.278 . S
C96 O97 1.203 . S
C96 O103 1.267 . S
O97 C96 1.203 . S
O98 C91 1.185 . S
O98 Zn94 2.086 . S
C99 O95 1.278 . S
C99 O100 1.211 . S
O100 C99 1.211 . S
C101 O93 1.284 . S
C101 O102 1.273 . S
O102 C101 1.273 . S
O103 Zn94 1.977 . S
O103 C96 1.267 . S
C104 O105 1.160 . S
C104 O111 1.185 . S
O105 C104 1.160 . S
O106 Zn107 1.899 . S
O106 C114 1.284 . S
Zn107 O106 1.899 . S
Zn107 O108 2.032 . S
Zn107 O111 2.086 . S
Zn107 O116 1.977 . S
O108 Zn107 2.032 . S
O108 C112 1.278 . S
C109 O110 1.203 . S
C109 O116 1.267 . S
O110 C109 1.203 . S
O111 C104 1.185 . S
O111 Zn107 2.086 . S
C112 O108 1.278 . S
C112 O113 1.211 . S
O113 C112 1.211 . S
C114 O106 1.284 . S
C114 O115 1.273 . S
O115 C114 1.273 . S
O116 Zn107 1.977 . S
O116 C109 1.267 . S
C117 O118 1.160 . S
C117 O124 1.185 . S
O118 C117 1.160 . S
O119 Zn120 1.899 . S
O119 C127 1.284 . S
Zn120 O119 1.899 . S
Zn120 O121 2.032 . S
Zn120 O124 2.086 . S
Zn120 O129 1.977 . S
O121 Zn120 2.032 . S
O121 C125 1.278 . S
C122 O123 1.203 . S
C122 O129 1.267 . S
O123 C122 1.203 . S
O124 C117 1.185 . S
O124 Zn120 2.086 . S
C125 O121 1.278 . S
C125 O126 1.211 . S
O126 C125 1.211 . S
C127 O119 1.284 . S
C127 O128 1.273 . S
O128 C127 1.273 . S
O129 Zn120 1.977 . S
O129 C122 1.267 . S
C130 O131 1.160 . S
C130 O137 1.185 . S
O131 C130 1.160 . S
O132 Zn133 1.899 . S
O132 C140 1.284 . S
Zn133 O132 1.899 . S
Zn133 O134 2.032 . S
Zn133 O137 2.086 . S
Zn133 O142 1.977 . S
O134 Zn133 2.032 . S
O134 C138 1.278 . S
C135 O136 1.203 . S
C135 O142 1.267 . S
O136 C135 1.203 . S
O137 C130 1.185 . S
O137 Zn133 2.086 . S
C138 O134 1.278 . S
C138 O139 1.211 . S
O139 C138 1.211 . S
C140 O132 1.284 . S
C140 O141 1.273 . S
O141 C140 1.273 . S
O142 Zn133 1.977 . S
O142 C135 1.267 . S
C143 O144 1.160 . S
C143 O150 1.185 . S
O144 C143 1.160 . S
O145 Zn146 1.899 . S
O145 C153 1.284 . S
Zn146 O145 1.899 . S
Zn146 O147 2.032 . S
Zn146 O150 2.086 . S
Zn146 O155 1.977 . S
O147 Zn146 2.032 . S
O147 C151 1.278 . S
C148 O149 1.203 . S
C148 O155 1.267 . S
O149 C148 1.203 . S
O150 C143 1.185 . S
O150 Zn146 2.086 . S
C151 O147 1.278 . S
C151 O152 1.211 . S
O152 C151 1.211 . S
C153 O145 1.284 . S
C153 O154 1.273 . S
O154 C153 1.273 . S
O155 Zn146 1.977 . S
O155 C148 1.267 . S
H156 C164 0.955 . S
H157 C169 0.950 . S
H158 C166 0.950 . S
H159 C168 0.950 . S
H160 C170 0.955 . S
H161 C172 0.950 . S
H162 C174 0.950 . S
H163 C175 0.950 . S
C164 H156 0.955 . S
C164 C165 1.386 . S
C164 C166 1.391 1_455 S
C165 C164 1.386 . S
C165 C169 1.393 . S
C166 H158 0.950 . S
C166 C164 1.391 1_655 S
C166 C167 1.400 1_655 S
C167 C166 1.400 1_455 S
C167 C168 1.398 . S
C167 C173 1.491 1_454 S
C168 H159 0.950 . S
C168 C167 1.398 . S
C168 C169 1.391 . S
C169 H157 0.950 . S
C169 C165 1.393 . S
C169 C168 1.391 . S
C170 H160 0.955 . S
C170 C171 1.386 . S
C170 C172 1.391 1_655 S
C171 C170 1.386 . S
C171 C175 1.393 . S
C172 H161 0.950 . S
C172 C170 1.391 1_455 S
C172 C173 1.400 1_455 S
C173 C167 1.491 1_656 S
C173 C172 1.400 1_655 S
C173 C174 1.398 . S
C174 H162 0.950 . S
C174 C173 1.398 . S
C174 C175 1.391 . S
C175 H163 0.950 . S
C175 C171 1.393 . S
C175 C174 1.391 . S
H176 C184 0.950 . S
H177 C189 0.950 . S
H178 C186 0.950 . S
H179 C188 0.950 . S
H180 C190 0.950 . S
H181 C192 0.950 . S
H182 C194 0.950 . S
H183 C195 0.950 . S
C184 H176 0.950 . S
C184 C185 1.386 . S
C184 C186 1.391 . S
C185 C184 1.386 . S
C185 C189 1.393 . S
C186 H178 0.950 . S
C186 C184 1.391 . S
C186 C187 1.400 . S
C187 C186 1.400 . S
C187 C188 1.398 . S
C187 C193 1.491 1_565 S
C188 H179 0.950 . S
C188 C187 1.398 . S
C188 C189 1.391 . S
C189 H177 0.950 . S
C189 C185 1.393 . S
C189 C188 1.391 . S
C190 H180 0.950 . S
C190 C191 1.386 . S
C190 C192 1.391 . S
C191 C190 1.386 . S
C191 C195 1.393 . S
C192 H181 0.950 . S
C192 C190 1.391 . S
C192 C193 1.400 . S
C193 C187 1.491 1_545 S
C193 C192 1.400 . S
C193 C194 1.398 . S
C194 H182 0.950 . S
C194 C193 1.398 . S
C194 C195 1.391 . S
C195 H183 0.950 . S
C195 C191 1.393 . S
C195 C194 1.391 . S
H196 C204 0.950 . S
H197 C209 0.950 . S
H198 C206 0.950 . S
H199 C208 0.950 . S
H200 C210 0.950 . S
H201 C212 0.950 . S
H202 C214 0.950 . S
H203 C215 0.950 . S
C204 H196 0.950 . S
C204 C205 1.386 . S
C204 C206 1.391 . S
C205 C204 1.386 . S
C205 C209 1.393 . S
C206 H198 0.950 . S
C206 C204 1.391 . S
C206 C207 1.400 . S
C207 C206 1.400 . S
C207 C208 1.398 . S
C207 C213 1.491 1_554 S
C208 H199 0.950 . S
C208 C207 1.398 . S
C208 C209 1.391 . S
C209 H197 0.950 . S
C209 C205 1.393 . S
C209 C208 1.391 . S
C210 H200 0.950 . S
C210 C211 1.386 . S
C210 C212 1.391 . S
C211 C210 1.386 . S
C211 C215 1.393 . S
C212 H201 0.950 . S
C212 C210 1.391 . S
C212 C213 1.400 . S
C213 C207 1.491 1_556 S
C213 C212 1.400 . S
C213 C214 1.398 . S
C214 H202 0.950 . S
C214 C213 1.398 . S
C214 C215 1.391 . S
C215 H203 0.950 . S
C215 C211 1.393 . S
C215 C214 1.391 . S
H216 C224 0.950 . S
H217 C229 0.950 . S
H218 C226 0.950 . S
H219 C228 0.950 . S
H220 C230 0.950 . S
H221 C232 0.950 . S
H222 C234 0.950 . S
H223 C235 0.950 . S
C224 H216 0.950 . S
C224 C225 1.386 . S
C224 C226 1.391 . S
C225 C224 1.386 . S
C225 C229 1.393 . S
C226 H218 0.950 . S
C226 C224 1.391 . S
C226 C227 1.400 . S
C227 C226 1.400 . S
C227 C228 1.398 . S
C227 C233 1.491 1_455 S
C228 H219 0.950 . S
C228 C227 1.398 . S
C228 C229 1.391 . S
C229 H217 0.950 . S
C229 C225 1.393 . S
C229 C228 1.391 . S
C230 H220 0.950 . S
C230 C231 1.386 . S
C230 C232 1.391 . S
C231 C230 1.386 . S
C231 C235 1.393 . S
C232 H221 0.950 . S
C232 C230 1.391 . S
C232 C233 1.400 . S
C233 C227 1.491 1_655 S
C233 C232 1.400 . S
C233 C234 1.398 . S
C234 H222 0.950 . S
C234 C233 1.398 . S
C234 C235 1.391 . S
C235 H223 0.950 . S
C235 C231 1.393 . S
C235 C234 1.391 . S
H236 C244 0.950 . S
H237 C249 0.950 . S
H238 C246 0.950 . S
H239 C248 0.950 . S
H240 C250 0.950 . S
H241 C252 0.950 . S
H242 C254 0.950 . S
H243 C255 0.950 . S
C244 H236 0.950 . S
C244 C245 1.386 . S
C244 C246 1.391 1_545 S
C245 C244 1.386 . S
C245 C249 1.393 . S
C246 H238 0.950 . S
C246 C244 1.391 1_565 S
C246 C247 1.400 1_565 S
C247 C246 1.400 1_545 S
C247 C248 1.398 . S
C247 C253 1.491 1_546 S
C248 H239 0.950 . S
C248 C247 1.398 . S
C248 C249 1.391 . S
C249 H237 0.950 . S
C249 C245 1.393 . S
C249 C248 1.391 . S
C250 H240 0.950 . S
C250 C251 1.386 . S
C250 C252 1.391 1_565 S
C251 C250 1.386 . S
C251 C255 1.393 . S
C252 H241 0.950 . S
C252 C250 1.391 1_545 S
C252 C253 1.400 1_545 S
C253 C247 1.491 1_564 S
C253 C252 1.400 1_565 S
C253 C254 1.398 . S
C254 H242 0.950 . S
C254 C253 1.398 . S
C254 C255 1.391 . S
C255 H243 0.950 . S
C255 C251 1.393 . S
C255 C254 1.391 . S
H256 C264 0.950 . S
H257 C269 0.950 . S
H258 C266 0.950 . S
H259 C268 0.950 . S
H260 C270 0.950 . S
H261 C272 0.950 . S
H262 C274 0.950 . S
H263 C275 0.950 . S
C264 H256 0.950 . S
C264 C265 1.386 . S
C264 C266 1.391 . S
C265 C264 1.386 . S
C265 C269 1.393 . S
C266 H258 0.950 . S
C266 C264 1.391 . S
C266 C267 1.400 . S
C267 C266 1.400 . S
C267 C268 1.398 . S
C267 C273 1.491 . S
C268 H259 0.950 . S
C268 C267 1.398 . S
C268 C269 1.391 . S
C269 H257 0.950 . S
C269 C265 1.393 . S
C269 C268 1.391 . S
C270 H260 0.950 . S
C270 C271 1.386 . S
C270 C272 1.391 . S
C271 C270 1.386 . S
C271 C275 1.393 . S
C272 H261 0.950 . S
C272 C270 1.391 . S
C272 C273 1.400 . S
C273 C267 1.491 . S
C273 C272 1.400 . S
C273 C274 1.398 . S
C274 H262 0.950 . S
C274 C273 1.398 . S
C274 C275 1.391 . S
C275 H263 0.950 . S
C275 C271 1.393 . S
C275 C274 1.391 . S
H276 C284 0.951 1_455 S
H277 C289 0.950 . S
H278 C286 0.950 . S
H279 C288 0.932 1_554 S
H280 C290 0.951 1_655 S
H281 C292 0.950 . S
H282 C294 0.932 1_556 S
H283 C295 0.950 . S
C284 H276 0.951 1_655 S
C284 C285 1.386 . S
C284 C286 1.391 1_655 S
C285 C284 1.386 . S
C285 C289 1.393 . S
C286 H278 0.950 . S
C286 C284 1.391 1_455 S
C286 C287 1.400 1_455 S
C287 C286 1.400 1_655 S
C287 C288 1.398 . S
C287 C293 1.491 1_656 S
C288 H279 0.932 1_556 S
C288 C287 1.398 . S
C288 C289 1.391 . S
C289 H277 0.950 . S
C289 C285 1.393 . S
C289 C288 1.391 . S
C290 H280 0.951 1_455 S
C290 C291 1.386 . S
C290 C292 1.391 1_455 S
C291 C290 1.386 . S
C291 C295 1.393 . S
C292 H281 0.950 . S
C292 C290 1.391 1_655 S
C292 C293 1.400 1_655 S
C293 C287 1.491 1_454 S
C293 C292 1.400 1_455 S
C293 C294 1.398 . S
C294 H282 0.932 1_554 S
C294 C293 1.398 . S
C294 C295 1.391 . S
C295 H283 0.950 . S
C295 C291 1.393 . S
C295 C294 1.391 . S
H296 C304 0.950 1_545 S
H297 C309 0.950 . S
H298 C306 0.950 . S
H299 C308 0.950 . S
H300 C310 0.950 1_565 S
H301 C312 0.950 . S
H302 C314 0.950 . S
H303 C315 0.950 . S
C304 H296 0.950 1_565 S
C304 C305 1.386 . S
C304 C306 1.391 1_565 S
C305 C304 1.386 . S
C305 C309 1.393 . S
C306 H298 0.950 . S
C306 C304 1.391 1_545 S
C306 C307 1.400 1_545 S
C307 C306 1.400 1_565 S
C307 C308 1.398 . S
C307 C313 1.491 1_565 S
C308 H299 0.950 . S
C308 C307 1.398 . S
C308 C309 1.391 . S
C309 H297 0.950 . S
C309 C305 1.393 . S
C309 C308 1.391 . S
C310 H300 0.950 1_545 S
C310 C311 1.386 . S
C310 C312 1.391 1_545 S
C311 C310 1.386 . S
C311 C315 1.393 . S
C312 H301 0.950 . S
C312 C310 1.391 1_565 S
C312 C313 1.400 1_565 S
C313 C307 1.491 1_545 S
C313 C312 1.400 1_545 S
C313 C314 1.398 . S
C314 H302 0.950 . S
C314 C313 1.398 . S
C314 C315 1.391 . S
C315 H303 0.950 . S
C315 C311 1.393 . S
C315 C314 1.391 . S
H316 C324 0.950 . S
H317 C329 0.950 . S
H318 C326 0.950 . S
H319 C328 0.950 1_554 S
H320 C330 0.950 . S
H321 C332 0.950 . S
H322 C334 0.950 1_556 S
H323 C335 0.950 . S
C324 H316 0.950 . S
C324 C325 1.386 . S
C324 C326 1.391 . S
C325 C324 1.386 . S
C325 C329 1.393 . S
C326 H318 0.950 . S
C326 C324 1.391 . S
C326 C327 1.400 . S
C327 C326 1.400 . S
C327 C328 1.398 . S
C327 C333 1.491 1_556 S
C328 H319 0.950 1_556 S
C328 C327 1.398 . S
C328 C329 1.391 . S
C329 H317 0.950 . S
C329 C325 1.393 . S
C329 C328 1.391 . S
C330 H320 0.950 . S
C330 C331 1.386 . S
C330 C332 1.391 . S
C331 C330 1.386 . S
C331 C335 1.393 . S
C332 H321 0.950 . S
C332 C330 1.391 . S
C332 C333 1.400 . S
C333 C327 1.491 1_554 S
C333 C332 1.400 . S
C333 C334 1.398 . S
C334 H322 0.950 1_554 S
C334 C333 1.398 . S
C334 C335 1.391 . S
C335 H323 0.950 . S
C335 C331 1.393 . S
C335 C334 1.391 . S
H336 C344 0.950 . S
H337 C349 0.950 . S
H338 C346 0.950 . S
H339 C348 0.950 1_455 S
H340 C350 0.950 . S
H341 C352 0.950 . S
H342 C354 0.950 1_655 S
H343 C355 0.950 . S
C344 H336 0.950 . S
C344 C345 1.386 . S
C344 C346 1.391 . S
C345 C344 1.386 . S
C345 C349 1.393 . S
C346 H338 0.950 . S
C346 C344 1.391 . S
C346 C347 1.400 . S
C347 C346 1.400 . S
C347 C348 1.398 . S
C347 C353 1.491 1_655 S
C348 H339 0.950 1_655 S
C348 C347 1.398 . S
C348 C349 1.391 . S
C349 H337 0.950 . S
C349 C345 1.393 . S
C349 C348 1.391 . S
C350 H340 0.950 . S
C350 C351 1.386 . S
C350 C352 1.391 . S
C351 C350 1.386 . S
C351 C355 1.393 . S
C352 H341 0.950 . S
C352 C350 1.391 . S
C352 C353 1.400 . S
C353 C347 1.491 1_455 S
C353 C352 1.400 . S
C353 C354 1.398 . S
C354 H342 0.950 1_455 S
C354 C353 1.398 . S
C354 C355 1.391 . S
C355 H343 0.950 . S
C355 C351 1.393 . S
C355 C354 1.391 . S
H356 C364 0.950 . S
H357 C369 0.950 . S
H358 C366 0.950 . S
H359 C368 0.950 1_565 S
H360 C370 0.950 . S
H361 C372 0.950 . S
H362 C374 0.950 1_545 S
H363 C375 0.950 . S
C364 H356 0.950 . S
C364 C365 1.386 . S
C364 C366 1.391 . S
C365 C364 1.386 . S
C365 C369 1.393 . S
C366 H358 0.950 . S
C366 C364 1.391 . S
C366 C367 1.400 . S
C367 C366 1.400 . S
C367 C368 1.398 . S
C367 C373 1.491 1_546 S
C368 H359 0.950 1_545 S
C368 C367 1.398 . S
C368 C369 1.391 . S
C369 H357 0.950 . S
C369 C365 1.393 . S
C369 C368 1.391 . S
C370 H360 0.950 . S
C370 C371 1.386 . S
C370 C372 1.391 . S
C371 C370 1.386 . S
C371 C375 1.393 . S
C372 H361 0.950 . S
C372 C370 1.391 . S
C372 C373 1.400 . S
C373 C367 1.491 1_564 S
C373 C372 1.400 . S
C373 C374 1.398 . S
C374 H362 0.950 1_565 S
C374 C373 1.398 . S
C374 C375 1.391 . S
C375 H363 0.950 . S
C375 C371 1.393 . S
C375 C374 1.391 . S
H376 C384 0.950 . S
H377 C389 0.950 . S
H378 C386 0.950 . S
H379 C388 0.950 . S
H380 C390 0.950 . S
H381 C392 0.950 . S
H382 C394 0.950 . S
H383 C395 0.950 . S
C384 H376 0.950 . S
C384 C385 1.386 . S
C384 C386 1.391 . S
C385 C384 1.386 . S
C385 C389 1.393 . S
C386 H378 0.950 . S
C386 C384 1.391 . S
C386 C387 1.400 . S
C387 C386 1.400 . S
C387 C388 1.398 . S
C387 C393 1.491 . S
C388 H379 0.950 . S
C388 C387 1.398 . S
C388 C389 1.391 . S
C389 H377 0.950 . S
C389 C385 1.393 . S
C389 C388 1.391 . S
C390 H380 0.950 . S
C390 C391 1.386 . S
C390 C392 1.391 . S
C391 C390 1.386 . S
C391 C395 1.393 . S
C392 H381 0.950 . S
C392 C390 1.391 . S
C392 C393 1.400 . S
C393 C387 1.491 . S
C393 C392 1.400 . S
C393 C394 1.398 . S
C394 H382 0.950 . S
C394 C393 1.398 . S
C394 C395 1.391 . S
C395 H383 0.950 . S
C395 C391 1.393 . S
C395 C394 1.391 . S
H396 C404 0.950 . S
H397 C409 0.950 . S
H398 C406 0.950 . S
H399 C408 0.950 . S
H400 C410 0.950 . S
H401 C412 0.950 . S
H402 C414 0.950 . S
H403 C415 0.950 . S
C404 H396 0.950 . S
C404 C405 1.386 . S
C404 C406 1.391 . S
C405 C404 1.386 . S
C405 C409 1.393 . S
C406 H398 0.950 . S
C406 C404 1.391 . S
C406 C407 1.400 . S
C407 C406 1.400 . S
C407 C408 1.398 . S
C407 C413 1.491 . S
C408 H399 0.950 . S
C408 C407 1.398 . S
C408 C409 1.391 . S
C409 H397 0.950 . S
C409 C405 1.393 . S
C409 C408 1.391 . S
C410 H400 0.950 . S
C410 C411 1.386 . S
C410 C412 1.391 . S
C411 C410 1.386 . S
C411 C415 1.393 . S
C412 H401 0.950 . S
C412 C410 1.391 . S
C412 C413 1.400 . S
C413 C407 1.491 . S
C413 C412 1.400 . S
C413 C414 1.398 . S
C414 H402 0.950 . S
C414 C413 1.398 . S
C414 C415 1.391 . S
C415 H403 0.950 . S
C415 C411 1.393 . S
C415 C414 1.391 . S
H416 C424 0.950 . S
H417 C429 0.950 . S
H418 C426 0.950 . S
H419 C428 0.950 . S
H420 C430 0.950 . S
H421 C432 0.950 . S
H422 C434 0.950 . S
H423 C435 0.950 . S
C424 H416 0.950 . S
C424 C425 1.386 . S
C424 C426 1.391 . S
C425 C424 1.386 . S
C425 C429 1.393 . S
C426 H418 0.950 . S
C426 C424 1.391 . S
C426 C427 1.400 . S
C427 C426 1.400 . S
C427 C428 1.398 . S
C427 C433 1.491 . S
C428 H419 0.950 . S
C428 C427 1.398 . S
C428 C429 1.391 . S
C429 H417 0.950 . S
C429 C425 1.393 . S
C429 C428 1.391 . S
C430 H420 0.950 . S
C430 C431 1.386 . S
C430 C432 1.391 . S
C431 C430 1.386 . S
C431 C435 1.393 . S
C432 H421 0.950 . S
C432 C430 1.391 . S
C432 C433 1.400 . S
C433 C427 1.491 . S
C433 C432 1.400 . S
C433 C434 1.398 . S
C434 H422 0.950 . S
C434 C433 1.398 . S
C434 C435 1.391 . S
C435 H423 0.950 . S
C435 C431 1.393 . S
C435 C434 1.391 . S
H436 C444 0.950 . S
H437 C449 0.950 . S
H438 C446 0.950 . S
H439 C448 0.950 . S
H440 C450 0.950 . S
H441 C452 0.950 . S
H442 C454 0.950 . S
H443 C455 0.950 . S
C444 H436 0.950 . S
C444 C445 1.386 . S
C444 C446 1.391 . S
C445 C444 1.386 . S
C445 C449 1.393 . S
C446 H438 0.950 . S
C446 C444 1.391 . S
C446 C447 1.400 . S
C447 C446 1.400 . S
C447 C448 1.398 . S
C447 C453 1.491 . S
C448 H439 0.950 . S
C448 C447 1.398 . S
C448 C449 1.391 . S
C449 H437 0.950 . S
C449 C445 1.393 . S
C449 C448 1.391 . S
C450 H440 0.950 . S
C450 C451 1.386 . S
C450 C452 1.391 . S
C451 C450 1.386 . S
C451 C455 1.393 . S
C452 H441 0.950 . S
C452 C450 1.391 . S
C452 C453 1.400 . S
C453 C447 1.491 . S
C453 C452 1.400 . S
C453 C454 1.398 . S
C454 H442 0.950 . S
C454 C453 1.398 . S
C454 C455 1.391 . S
C455 H443 0.950 . S
C455 C451 1.393 . S
C455 C454 1.391 . S
H456 C464 0.950 . S
H457 C469 0.950 . S
H458 C466 0.950 . S
H459 C468 0.950 . S
H460 C470 0.950 . S
H461 C472 0.950 . S
H462 C474 0.950 . S
H463 C475 0.950 . S
C464 H456 0.950 . S
C464 C465 1.386 . S
C464 C466 1.391 . S
C465 C464 1.386 . S
C465 C469 1.393 . S
C466 H458 0.950 . S
C466 C464 1.391 . S
C466 C467 1.400 . S
C467 C466 1.400 . S
C467 C468 1.398 . S
C467 C473 1.491 . S
C468 H459 0.950 . S
C468 C467 1.398 . S
C468 C469 1.391 . S
C469 H457 0.950 . S
C469 C465 1.393 . S
C469 C468 1.391 . S
C470 H460 0.950 . S
C470 C471 1.386 . S
C470 C472 1.391 . S
C471 C470 1.386 . S
C471 C475 1.393 . S
C472 H461 0.950 . S
C472 C470 1.391 . S
C472 C473 1.400 . S
C473 C467 1.491 . S
C473 C472 1.400 . S
C473 C474 1.398 . S
C474 H462 0.950 . S
C474 C473 1.398 . S
C474 C475 1.391 . S
C475 H463 0.950 . S
C475 C471 1.393 . S
C475 C474 1.391 . S
H476 C484 0.950 . S
H477 C489 0.950 . S
H478 C486 0.950 . S
H479 C488 0.950 . S
H480 C490 0.950 . S
H481 C492 0.950 . S
H482 C494 0.950 . S
H483 C495 0.950 . S
C484 H476 0.950 . S
C484 C485 1.386 . S
C484 C486 1.391 . S
C485 C484 1.386 . S
C485 C489 1.393 . S
C486 H478 0.950 . S
C486 C484 1.391 . S
C486 C487 1.400 . S
C487 C486 1.400 . S
C487 C488 1.398 . S
C487 C493 1.491 . S
C488 H479 0.950 . S
C488 C487 1.398 . S
C488 C489 1.391 . S
C489 H477 0.950 . S
C489 C485 1.393 . S
C489 C488 1.391 . S
C490 H480 0.950 . S
C490 C491 1.386 . S
C490 C492 1.391 . S
C491 C490 1.386 . S
C491 C495 1.393 . S
C492 H481 0.950 . S
C492 C490 1.391 . S
C492 C493 1.400 . S
C493 C487 1.491 . S
C493 C492 1.400 . S
C493 C494 1.398 . S
C494 H482 0.950 . S
C494 C493 1.398 . S
C494 C495 1.391 . S
C495 H483 0.950 . S
C495 C491 1.393 . S
C495 C494 1.391 . S
H496 C504 0.950 . S
H497 C509 0.950 . S
H498 C506 0.950 . S
H499 C508 0.950 . S
H500 C510 0.950 . S
H501 C512 0.950 . S
H502 C514 0.950 . S
H503 C515 0.950 . S
C504 H496 0.950 . S
C504 C505 1.386 . S
C504 C506 1.391 . S
C505 C504 1.386 . S
C505 C509 1.393 . S
C506 H498 0.950 . S
C506 C504 1.391 . S
C506 C507 1.400 . S
C507 C506 1.400 . S
C507 C508 1.398 . S
C507 C513 1.491 . S
C508 H499 0.950 . S
C508 C507 1.398 . S
C508 C509 1.391 . S
C509 H497 0.950 . S
C509 C505 1.393 . S
C509 C508 1.391 . S
C510 H500 0.950 . S
C510 C511 1.386 . S
C510 C512 1.391 . S
C511 C510 1.386 . S
C511 C515 1.393 . S
C512 H501 0.950 . S
C512 C510 1.391 . S
C512 C513 1.400 . S
C513 C507 1.491 . S
C513 C512 1.400 . S
C513 C514 1.398 . S
C514 H502 0.950 . S
C514 C513 1.398 . S
C514 C515 1.391 . S
C515 H503 0.950 . S
C515 C511 1.393 . S
C515 C514 1.391 . S
H516 C524 0.950 . S
H517 C529 0.950 . S
H518 C526 0.950 . S
H519 C528 0.950 . S
H520 C530 0.950 . S
H521 C532 0.950 . S
H522 C534 0.950 . S
H523 C535 0.950 . S
C524 H516 0.950 . S
C524 C525 1.386 . S
C524 C526 1.391 . S
C525 C524 1.386 . S
C525 C529 1.393 . S
C526 H518 0.950 . S
C526 C524 1.391 . S
C526 C527 1.400 . S
C527 C526 1.400 . S
C527 C528 1.398 . S
C527 C533 1.491 . S
C528 H519 0.950 . S
C528 C527 1.398 . S
C528 C529 1.391 . S
C529 H517 0.950 . S
C529 C525 1.393 . S
C529 C528 1.391 . S
C530 H520 0.950 . S
C530 C531 1.386 . S
C530 C532 1.391 . S
C531 C530 1.386 . S
C531 C535 1.393 . S
C532 H521 0.950 . S
C532 C530 1.391 . S
C532 C533 1.400 . S
C533 C527 1.491 . S
C533 C532 1.400 . S
C533 C534 1.398 . S
C534 H522 0.950 . S
C534 C533 1.398 . S
C534 C535 1.391 . S
C535 H523 0.950 . S
C535 C531 1.393 . S
C535 C534 1.391 . S
H536 C544 0.950 . S
H537 C549 0.950 . S
H538 C546 0.950 . S
H539 C548 0.950 . S
H540 C550 0.950 . S
H541 C552 0.950 . S
H542 C554 0.950 . S
H543 C555 0.950 . S
C544 H536 0.950 . S
C544 C545 1.386 . S
C544 C546 1.391 . S
C545 C544 1.386 . S
C545 C549 1.393 . S
C546 H538 0.950 . S
C546 C544 1.391 . S
C546 C547 1.400 . S
C547 C546 1.400 . S
C547 C548 1.398 . S
C547 C553 1.491 . S
C548 H539 0.950 . S
C548 C547 1.398 . S
C548 C549 1.391 . S
C549 H537 0.950 . S
C549 C545 1.393 . S
C549 C548 1.391 . S
C550 H540 0.950 . S
C550 C551 1.386 . S
C550 C552 1.391 . S
C551 C550 1.386 . S
C551 C555 1.393 . S
C552 H541 0.950 . S
C552 C550 1.391 . S
C552 C553 1.400 . S
C553 C547 1.491 . S
C553 C552 1.400 . S
C553 C554 1.398 . S
C554 H542 0.950 . S
C554 C553 1.398 . S
C554 C555 1.391 . S
C555 H543 0.950 . S
C555 C551 1.393 . S
C555 C554 1.391 . S
H556 C564 0.950 . S
H557 C569 0.950 . S
H558 C566 0.950 . S
H559 C568 0.950 . S
H560 C570 0.950 . S
H561 C572 0.950 . S
H562 C574 0.950 . S
H563 C575 0.950 . S
C564 H556 0.950 . S
C564 C565 1.386 . S
C564 C566 1.391 . S
C565 C564 1.386 . S
C565 C569 1.393 . S
C566 H558 0.950 . S
C566 C564 1.391 . S
C566 C567 1.400 . S
C567 C566 1.400 . S
C567 C568 1.398 . S
C567 C573 1.491 . S
C568 H559 0.950 . S
C568 C567 1.398 . S
C568 C569 1.391 . S
C569 H557 0.950 . S
C569 C565 1.393 . S
C569 C568 1.391 . S
C570 H560 0.950 . S
C570 C571 1.386 . S
C570 C572 1.391 . S
C571 C570 1.386 . S
C571 C575 1.393 . S
C572 H561 0.950 . S
C572 C570 1.391 . S
C572 C573 1.400 . S
C573 C567 1.491 . S
C573 C572 1.400 . S
C573 C574 1.398 . S
C574 H562 0.950 . S
C574 C573 1.398 . S
C574 C575 1.391 . S
C575 H563 0.950 . S
C575 C571 1.393 . S
C575 C574 1.391 . S
H576 C584 0.950 . S
H577 C589 0.950 . S
H578 C586 0.950 . S
H579 C588 0.950 . S
H580 C590 0.950 . S
H581 C592 0.950 . S
H582 C594 0.950 . S
H583 C595 0.950 . S
C584 H576 0.950 . S
C584 C585 1.386 . S
C584 C586 1.391 . S
C585 C584 1.386 . S
C585 C589 1.393 . S
C586 H578 0.950 . S
C586 C584 1.391 . S
C586 C587 1.400 . S
C587 C586 1.400 . S
C587 C588 1.398 . S
C587 C593 1.491 . S
C588 H579 0.950 . S
C588 C587 1.398 . S
C588 C589 1.391 . S
C589 H577 0.950 . S
C589 C585 1.393 . S
C589 C588 1.391 . S
C590 H580 0.950 . S
C590 C591 1.386 . S
C590 C592 1.391 . S
C591 C590 1.386 . S
C591 C595 1.393 . S
C592 H581 0.950 . S
C592 C590 1.391 . S
C592 C593 1.400 . S
C593 C587 1.491 . S
C593 C592 1.400 . S
C593 C594 1.398 . S
C594 H582 0.950 . S
C594 C593 1.398 . S
C594 C595 1.391 . S
C595 H583 0.950 . S
C595 C591 1.393 . S
C595 C594 1.391 . S
H596 C604 0.950 . S
H597 C609 0.950 . S
H598 C606 0.950 . S
H599 C608 0.950 . S
H600 C610 0.950 . S
H601 C612 0.950 . S
H602 C614 0.950 . S
H603 C615 0.950 . S
C604 H596 0.950 . S
C604 C605 1.386 . S
C604 C606 1.391 . S
C605 C604 1.386 . S
C605 C609 1.393 . S
C606 H598 0.950 . S
C606 C604 1.391 . S
C606 C607 1.400 . S
C607 C606 1.400 . S
C607 C608 1.398 . S
C607 C613 1.491 . S
C608 H599 0.950 . S
C608 C607 1.398 . S
C608 C609 1.391 . S
C609 H597 0.950 . S
C609 C605 1.393 . S
C609 C608 1.391 . S
C610 H600 0.950 . S
C610 C611 1.386 . S
C610 C612 1.391 . S
C611 C610 1.386 . S
C611 C615 1.393 . S
C612 H601 0.950 . S
C612 C610 1.391 . S
C612 C613 1.400 . S
C613 C607 1.491 . S
C613 C612 1.400 . S
C613 C614 1.398 . S
C614 H602 0.950 . S
C614 C613 1.398 . S
C614 C615 1.391 . S
C615 H603 0.950 . S
C615 C611 1.393 . S
C615 C614 1.391 . S
H616 C624 0.950 . S
H617 C629 0.950 . S
H618 C626 0.950 . S
H619 C628 0.950 . S
H620 C630 0.950 . S
H621 C632 0.950 . S
H622 C634 0.950 . S
H623 C635 0.950 . S
C624 H616 0.950 . S
C624 C625 1.386 . S
C624 C626 1.391 . S
C625 C624 1.386 . S
C625 C629 1.393 . S
C626 H618 0.950 . S
C626 C624 1.391 . S
C626 C627 1.400 . S
C627 C626 1.400 . S
C627 C628 1.398 . S
C627 C633 1.491 . S
C628 H619 0.950 . S
C628 C627 1.398 . S
C628 C629 1.391 . S
C629 H617 0.950 . S
C629 C625 1.393 . S
C629 C628 1.391 . S
C630 H620 0.950 . S
C630 C631 1.386 . S
C630 C632 1.391 . S
C631 C630 1.386 . S
C631 C635 1.393 . S
C632 H621 0.950 . S
C632 C630 1.391 . S
C632 C633 1.400 . S
C633 C627 1.491 . S
C633 C632 1.400 . S
C633 C634 1.398 . S
C634 H622 0.950 . S
C634 C633 1.398 . S
C634 C635 1.391 . S
C635 H623 0.950 . S
C635 C631 1.393 . S
C635 C634 1.391 . S
C165 C10 1.327 . S
C171 C153 1.333 . S
C185 C88 1.337 . S
C191 C23 1.337 . S
C205 C36 1.333 . S
C211 C101 1.338 . S
C225 C114 1.337 . S
C231 C49 1.337 . S
C245 C127 1.333 . S
C251 C62 1.338 . S
C265 C140 1.336 . S
C271 C75 1.337 . S
C285 C47 1.369 . S
C291 C112 1.339 . S
C305 C60 1.370 . S
C311 C125 1.338 . S
C325 C73 1.370 . S
C331 C138 1.338 . S
C345 C151 1.351 . S
C351 C8 1.358 . S
C365 C21 1.351 . S
C371 C86 1.358 . S
C385 C34 1.345 . S
C391 C99 1.363 . S
C405 C109 1.484 . S
C411 C5 1.469 . S
C425 C122 1.472 . S
C431 C18 1.482 . S
C445 C31 1.464 . S
C451 C135 1.480 . S
C465 C44 1.478 . S
C471 C148 1.477 . S
C485 C57 1.474 . S
C491 C83 1.468 . S
C505 C96 1.470 . S
C511 C70 1.471 . S
C525 C0 1.316 . S
C531 C130 1.310 . S
C545 C143 1.318 . S
C551 C13 1.313 . S
C565 C26 1.301 . S
C571 C78 1.301 . S
C585 C39 1.323 . S
C591 C91 1.322 . S
C605 C52 1.316 . S
C611 C104 1.321 . S
C625 C65 1.320 . S
C631 C117 1.315 . S
