# Generated by pormake.
# Topology sol, (6)-cn, num edge types: 1
# Building blocks:
#     Node 0, Type 0, BuildingBlock: OJICUG_clean_sbu_0, # of connection points: 6
#     Node 1, Type 0, BuildingBlock: OJICUG_clean_sbu_0, # of connection points: 6
#     Node 2, Type 0, BuildingBlock: OJICUG_clean_sbu_0, # of connection points: 6
#     Node 3, Type 0, BuildingBlock: OJICUG_clean_sbu_0, # of connection points: 6
#     Node 4, Type 0, BuildingBlock: OJICUG_clean_sbu_0, # of connection points: 6
#     Node 5, Type 0, BuildingBlock: OJICUG_clean_sbu_0, # of connection points: 6
#     Node 6, Type 0, BuildingBlock: OJICUG_clean_sbu_0, # of connection points: 6
#     Node 7, Type 0, BuildingBlock: OJICUG_clean_sbu_0, # of connection points: 6
#     Edge 8, Type (0, 0), BuildingBlock: TEMPAE_clean_linker_10, # of connection points: 2
#     Edge 9, Type (0, 0), BuildingBlock: TEMPAE_clean_linker_10, # of connection points: 2
#     Edge 10, Type (0, 0), BuildingBlock: TEMPAE_clean_linker_10, # of connection points: 2
#     Edge 11, Type (0, 0), BuildingBlock: TEMPAE_clean_linker_10, # of connection points: 2
#     Edge 12, Type (0, 0), BuildingBlock: TEMPAE_clean_linker_10, # of connection points: 2
#     Edge 13, Type (0, 0), BuildingBlock: TEMPAE_clean_linker_10, # of connection points: 2
#     Edge 14, Type (0, 0), BuildingBlock: TEMPAE_clean_linker_10, # of connection points: 2
#     Edge 15, Type (0, 0), BuildingBlock: TEMPAE_clean_linker_10, # of connection points: 2
#     Edge 16, Type (0, 0), BuildingBlock: TEMPAE_clean_linker_10, # of connection points: 2
#     Edge 17, Type (0, 0), BuildingBlock: TEMPAE_clean_linker_10, # of connection points: 2
#     Edge 18, Type (0, 0), BuildingBlock: TEMPAE_clean_linker_10, # of connection points: 2
#     Edge 19, Type (0, 0), BuildingBlock: TEMPAE_clean_linker_10, # of connection points: 2
#     Edge 20, Type (0, 0), BuildingBlock: TEMPAE_clean_linker_10, # of connection points: 2
#     Edge 21, Type (0, 0), BuildingBlock: TEMPAE_clean_linker_10, # of connection points: 2
#     Edge 22, Type (0, 0), BuildingBlock: TEMPAE_clean_linker_10, # of connection points: 2
#     Edge 23, Type (0, 0), BuildingBlock: TEMPAE_clean_linker_10, # of connection points: 2
#     Edge 24, Type (0, 0), BuildingBlock: TEMPAE_clean_linker_10, # of connection points: 2
#     Edge 25, Type (0, 0), BuildingBlock: TEMPAE_clean_linker_10, # of connection points: 2
#     Edge 26, Type (0, 0), BuildingBlock: TEMPAE_clean_linker_10, # of connection points: 2
#     Edge 27, Type (0, 0), BuildingBlock: TEMPAE_clean_linker_10, # of connection points: 2
#     Edge 28, Type (0, 0), BuildingBlock: TEMPAE_clean_linker_10, # of connection points: 2
#     Edge 29, Type (0, 0), BuildingBlock: TEMPAE_clean_linker_10, # of connection points: 2
#     Edge 30, Type (0, 0), BuildingBlock: TEMPAE_clean_linker_10, # of connection points: 2
#     Edge 31, Type (0, 0), BuildingBlock: TEMPAE_clean_linker_10, # of connection points: 2
# Relax obj value: 0.163
# Max RMSD: 0.156
# Mean RMSD: 0.156
data_MOF--net-sol--node1-OJICUG_clean_sbu_0--edge1-TEMPAE_clean_linker_10
_symmetry_space_group_name_H-M    P1
_symmetry_Int_Tables_number       1
_symmetry_cell_setting            triclinic
loop_
_symmetry_equiv_pos_as_xyz
'x, y, z'
_cell_length_a     35.041477
_cell_length_b     28.283536
_cell_length_c     30.624731
_cell_angle_alpha  90.021369
_cell_angle_beta   89.992855
_cell_angle_gamma 90.021042
loop_
_atom_site_label
_atom_site_type_symbol
_atom_site_fract_x
_atom_site_fract_y
_atom_site_fract_z
_atom_type_partial_charge
Sc0 Sc 0.21061 0.2304 0.10119 0.0
Sc1 Sc 0.11308 0.22551 0.07375 0.0
Sc2 Sc 0.15253 0.14153 0.14612 0.0
O3 O 0.15874 0.199 0.1069 0.0
C4 C 0.23229 0.12094 0.10086 0.0
C5 C 0.17941 0.22988 1.0026 0.0
C6 C 0.09361 0.1151 0.07045 0.0
C7 C 0.15695 0.32037 0.09776 0.0
C8 C 0.21085 0.20512 0.20233 0.0
C9 C 0.07949 0.20483 0.16856 0.0
O10 O 0.23958 0.16402 0.09263 0.0
O11 O 0.14406 0.22485 0.01189 0.0
O12 O 0.11727 0.10272 0.09982 0.0
O13 O 0.18812 0.30065 0.10842 0.0
O14 O 0.18667 0.17173 0.19845 0.0
O15 O 0.07976 0.22908 0.13341 0.0
O16 O 0.22148 0.2302 0.17018 0.0
O17 O 0.12855 0.29758 0.08341 0.0
O18 O 0.10304 0.17162 0.17625 0.0
O19 O 0.2053 0.23371 0.03149 0.0
O20 O 0.20168 0.10735 0.11926 0.0
O21 O 0.08927 0.15772 0.05877 0.0
Sc22 Sc 0.34957 0.34917 0.64626 0.0
Sc23 Sc 0.38769 0.2646 0.57343 0.0
Sc24 Sc 0.29047 0.26116 0.6015 0.0
O25 O 0.34258 0.29185 0.60696 0.0
C26 C 0.29066 0.28679 0.70269 0.0
C27 C 0.42179 0.28412 0.668 0.0
C28 C 0.3429 0.17056 0.59788 0.0
C29 C 0.40855 0.37471 0.57059 0.0
C30 C 0.26993 0.37078 0.60078 0.0
C31 C 0.32142 0.26122 0.50266 0.0
O32 O 0.3156 0.31934 0.69897 0.0
O33 O 0.42061 0.25954 0.63308 0.0
O34 O 0.31235 0.19089 0.60979 0.0
O35 O 0.38472 0.38754 0.59962 0.0
O36 O 0.26245 0.32784 0.59224 0.0
O37 O 0.35675 0.26679 0.51172 0.0
O38 O 0.3004 0.38398 0.61978 0.0
O39 O 0.41268 0.33195 0.55918 0.0
O40 O 0.29574 0.25681 0.53175 0.0
O41 O 0.39923 0.31839 0.67581 0.0
O42 O 0.27938 0.26237 0.67041 0.0
O43 O 0.37108 0.19274 0.5822 0.0
Sc44 Sc 0.67165 0.33323 0.93743 0.0
Sc45 Sc 0.6245 0.26515 0.01485 0.0
Sc46 Sc 0.72452 0.26081 1.00435 0.0
O47 O 0.67336 0.28623 0.98606 0.0
C48 C 0.73921 0.26644 0.90489 0.0
C49 C 0.60593 0.26477 0.91178 0.0
C50 C 0.67099 0.17005 0.01249 0.0
C51 C 0.60104 0.36875 0.99495 0.0
C52 C 0.74078 0.37036 0.98787 0.0
C53 C 0.68346 0.27696 0.09519 0.0
O54 O 0.72067 0.30499 0.90381 0.0
O55 O 0.59566 0.25916 0.9516 0.0
O56 O 0.70306 0.19077 0.01531 0.0
O57 O 0.6218 0.36924 0.96107 0.0
O58 O 0.75246 0.32839 0.99476 0.0
O59 O 0.65005 0.2689 0.07995 0.0
O60 O 0.70747 0.37976 0.9739 0.0
O61 O 0.60336 0.3364 0.02359 0.0
O62 O 0.71306 0.27932 0.07108 0.0
O63 O 0.6361 0.28685 0.90086 0.0
O64 O 0.73902 0.23977 0.9383 0.0
O65 O 0.63964 0.19199 0.00812 0.0
Sc66 Sc 0.82688 0.14833 0.44254 0.0
Sc67 Sc 0.87458 0.22398 0.51503 0.0
Sc68 Sc 0.77408 0.22752 0.50428 0.0
O69 O 0.82546 0.20006 0.48754 0.0
C70 C 0.76249 0.21748 0.40363 0.0
C71 C 0.89435 0.21591 0.413 0.0
C72 C 0.82724 0.31882 0.51023 0.0
C73 C 0.89591 0.11565 0.50368 0.0
C74 C 0.75416 0.1184 0.49265 0.0
C75 C 0.81575 0.21364 0.59578 0.0
O76 O 0.7823 0.17979 0.40352 0.0
O77 O 0.90214 0.23044 0.45152 0.0
O78 O 0.79522 0.29802 0.51126 0.0
O79 O 0.87168 0.10902 0.47358 0.0
O80 O 0.74418 0.161 0.49892 0.0
O81 O 0.84946 0.21931 0.58036 0.0
O82 O 0.78676 0.10684 0.47824 0.0
O83 O 0.89903 0.15465 0.52393 0.0
O84 O 0.78591 0.21331 0.57188 0.0
O85 O 0.86728 0.18727 0.40476 0.0
O86 O 0.75977 0.24384 0.43719 0.0
O87 O 0.8587 0.29691 0.50848 0.0
Sc88 Sc 0.79226 0.76452 0.90878 0.0
Sc89 Sc 0.88871 0.76981 0.94057 0.0
Sc90 Sc 0.85267 0.84965 0.86177 0.0
O91 O 0.84461 0.79476 0.90382 0.0
C92 C 0.79406 0.78494 0.80701 0.0
C93 C 0.84574 0.67435 0.91687 0.0
C94 C 0.92536 0.78495 0.84557 0.0
C95 C 0.8197 0.76767 0.00864 0.0
C96 C 0.7729 0.87473 0.90467 0.0
C97 C 0.90881 0.87965 0.93985 0.0
O98 O 0.78361 0.76043 0.83955 0.0
O99 O 0.8744 0.69724 0.93055 0.0
O100 O 0.90114 0.81573 0.83344 0.0
O101 O 0.7946 0.76488 0.97879 0.0
O102 O 0.80451 0.88714 0.88768 0.0
O103 O 0.90977 0.83884 0.95689 0.0
O104 O 0.76424 0.83195 0.9126 0.0
O105 O 0.85537 0.77063 1.0006 0.0
O106 O 0.88977 0.88889 0.90553 0.0
O107 O 0.8145 0.69389 0.90614 0.0
O108 O 0.81763 0.81899 0.81047 0.0
O109 O 0.92507 0.7654 0.88314 0.0
Sc110 Sc 0.70883 0.7265 0.40896 0.0
Sc111 Sc 0.61224 0.71957 0.44039 0.0
Sc112 Sc 0.64942 0.64046 0.36172 0.0
O113 O 0.65677 0.69546 0.40381 0.0
C114 C 0.70728 0.7064 0.30718 0.0
C115 C 0.65403 0.81583 0.41705 0.0
C116 C 0.5757 0.70311 0.34541 0.0
C117 C 0.68133 0.72302 0.50863 0.0
C118 C 0.72944 0.61656 0.40426 0.0
C119 C 0.59375 0.60943 0.43996 0.0
O120 O 0.71724 0.73132 0.3397 0.0
O121 O 0.62533 0.7923 0.42965 0.0
O122 O 0.60077 0.67346 0.33322 0.0
O123 O 0.70655 0.72541 0.4789 0.0
O124 O 0.69782 0.60376 0.38763 0.0
O125 O 0.59253 0.65013 0.45724 0.0
O126 O 0.7378 0.65947 0.41219 0.0
O127 O 0.64566 0.72028 0.50045 0.0
O128 O 0.61257 0.60067 0.40536 0.0
O129 O 0.68577 0.79691 0.40722 0.0
O130 O 0.68431 0.67172 0.31067 0.0
O131 O 0.57543 0.72243 0.3831 0.0
Sc132 Sc 0.32841 0.65408 0.07072 0.0
Sc133 Sc 0.37629 0.72779 0.99687 0.0
Sc134 Sc 0.27585 0.73249 0.00844 0.0
O135 O 0.32717 0.70499 0.02507 0.0
C136 C 0.25588 0.62361 0.02143 0.0
C137 C 0.3977 0.61994 0.01066 0.0
C138 C 0.3169 0.71591 0.91679 0.0
C139 C 0.39543 0.72261 0.0993 0.0
C140 C 0.26393 0.72357 0.10883 0.0
C141 C 0.32948 0.82312 0.99949 0.0
O142 O 0.28877 0.61204 0.03493 0.0
O143 O 0.4006 0.65822 0.98929 0.0
O144 O 0.28724 0.71666 0.941 0.0
O145 O 0.36824 0.69433 0.10805 0.0
O146 O 0.26197 0.7503 0.07545 0.0
O147 O 0.36083 0.80101 1.00147 0.0
O148 O 0.28328 0.68554 0.10885 0.0
O149 O 0.40379 0.73571 0.06046 0.0
O150 O 0.29733 0.80261 0.99973 0.0
O151 O 0.37362 0.61429 0.04106 0.0
O152 O 0.24579 0.66623 0.01547 0.0
O153 O 0.35081 0.72145 0.93175 0.0
Sc154 Sc 0.2232 0.75663 0.50831 0.0
Sc155 Sc 0.12317 0.76176 0.49735 0.0
Sc156 Sc 0.17046 0.82828 0.57582 0.0
O157 O 0.17204 0.78197 0.52664 0.0
C158 C 0.23814 0.7613 0.60755 0.0
C159 C 0.16939 0.66638 0.49728 0.0
C160 C 0.10528 0.75867 0.60065 0.0
C161 C 0.18245 0.77541 0.4175 0.0
C162 C 0.23943 0.8659 0.52606 0.0
C163 C 0.09958 0.86488 0.51953 0.0
O164 O 0.23749 0.73451 0.5742 0.0
O165 O 0.13808 0.68836 0.50172 0.0
O166 O 0.13528 0.78102 0.61173 0.0
O167 O 0.21198 0.77636 0.44182 0.0
O168 O 0.20598 0.87525 0.5396 0.0
O169 O 0.10191 0.83315 0.49032 0.0
O170 O 0.25119 0.82396 0.51913 0.0
O171 O 0.14884 0.7676 0.43233 0.0
O172 O 0.12041 0.86466 0.55333 0.0
O173 O 0.20161 0.68694 0.49601 0.0
O174 O 0.21978 0.79996 0.60874 0.0
O175 O 0.09466 0.75386 0.56081 0.0
C176 C 0.04349 0.18106 0.23497 0.0
C177 C 0.05089 0.21516 0.20281 0.0
C178 C 0.01748 0.18968 0.26861 0.0
C179 C 0.99846 0.23373 0.27053 0.0
C180 C 0.0059 0.26864 0.2385 0.0
C181 C 0.03192 0.25881 0.2047 0.0
C182 C 0.00999 0.15116 0.30177 0.0
C183 C 0.98636 0.31615 0.23994 0.0
C184 C 0.90675 0.2203 0.33298 0.0
C185 C 0.91874 0.23024 0.37578 0.0
C186 C 0.93157 0.22541 0.29754 0.0
C187 C 0.96928 0.24121 0.30497 0.0
C188 C 0.98044 0.25573 0.34738 0.0
C189 C 0.955 0.24995 0.38245 0.0
C190 C 0.91844 0.20951 0.25289 0.0
C191 C 0.02023 0.27367 0.35635 0.0
H192 H 0.05781 0.14713 0.23368 0.0
H193 H 0.03779 0.28546 0.18017 0.0
H194 H 0.01612 0.16433 0.33515 0.0
H195 H 0.97945 0.14079 0.30081 0.0
H196 H 0.02759 0.11912 0.29587 0.0
H197 H 0.99672 0.3403 0.2139 0.0
H198 H 0.95511 0.31153 0.23612 0.0
H199 H 0.99118 0.33314 0.27214 0.0
H200 H 0.87842 0.20617 0.32725 0.0
H201 H 0.96433 0.25838 0.41529 0.0
H202 H 0.93176 0.17493 0.24504 0.0
H203 H 0.92745 0.23499 0.2274 0.0
H204 H 0.88694 0.20531 0.25124 0.0
H205 H 0.04038 0.24341 0.35674 0.0
H206 H 0.02207 0.29202 0.38837 0.0
H207 H 0.02968 0.29828 0.3303 0.0
C208 C 0.46313 0.30837 0.72987 0.0
C209 C 0.45024 0.2726 0.70186 0.0
C210 C 0.48867 0.2985 0.7637 0.0
C211 C 0.50122 0.25146 0.7702 0.0
C212 C 0.48832 0.21502 0.74212 0.0
C213 C 0.46317 0.22614 0.70786 0.0
C214 C 0.50234 0.33862 0.79237 0.0
C215 C 0.50066 0.1644 0.74867 0.0
C216 C 0.59355 0.25089 0.8327 0.0
C217 C 0.58027 0.24974 0.87597 0.0
C218 C 0.56832 0.2472 0.79748 0.0
C219 C 0.52888 0.24168 0.80572 0.0
C220 C 0.51581 0.23538 0.84911 0.0
C221 C 0.54171 0.23966 0.88388 0.0
C222 C 0.58353 0.25408 0.75175 0.0
C223 C 0.47401 0.22832 0.85906 0.0
H224 H 0.45337 0.34439 0.72513 0.0
H225 H 0.45287 0.19834 0.68652 0.0
H226 H 0.49436 0.33179 0.82685 0.0
H227 H 0.53392 0.34114 0.79096 0.0
H228 H 0.49015 0.37326 0.78251 0.0
H229 H 0.48824 0.14028 0.7238 0.0
H230 H 0.53221 0.16173 0.7472 0.0
H231 H 0.4918 0.15214 0.78156 0.0
H232 H 0.62349 0.25754 0.82619 0.0
H233 H 0.53127 0.23808 0.91717 0.0
H234 H 0.57603 0.29011 0.74025 0.0
H235 H 0.57046 0.22846 0.72878 0.0
H236 H 0.61506 0.25018 0.75031 0.0
H237 H 0.45886 0.26258 0.85583 0.0
H238 H 0.46948 0.21488 0.89275 0.0
H239 H 0.46091 0.20323 0.83558 0.0
C240 C 0.9654 0.72435 0.80752 0.0
C241 C 0.95477 0.77166 0.81357 0.0
C242 C 0.99002 0.71148 0.77323 0.0
C243 C 0.0047 0.747 0.74528 0.0
C244 C 0.99495 0.79498 0.75241 0.0
C245 C 0.96981 0.80659 0.78616 0.0
C246 C 0.99924 0.65996 0.76602 0.0
C247 C 0.01071 0.83417 0.72408 0.0
C248 C 0.09485 0.74059 0.67928 0.0
C249 C 0.08023 0.74257 0.63661 0.0
C250 C 0.07057 0.73723 0.7154 0.0
C251 C 0.03071 0.73522 0.70862 0.0
C252 C 0.0161 0.73146 0.66561 0.0
C253 C 0.0411 0.73538 0.62992 0.0
C254 C 0.08745 0.74119 0.76064 0.0
C255 C 0.97377 0.72795 0.65718 0.0
H256 H 0.95326 0.69732 0.82843 0.0
H257 H 0.96166 0.84321 0.79105 0.0
H258 H 0.98627 0.64802 0.73486 0.0
H259 H 0.0305 0.65474 0.76312 0.0
H260 H 0.9883 0.63723 0.79283 0.0
H261 H 0.00131 0.86974 0.7351 0.0
H262 H 0.04237 0.83322 0.72433 0.0
H263 H 0.00131 0.82914 0.6898 0.0
H264 H 0.12524 0.74487 0.68473 0.0
H265 H 0.02962 0.7362 0.59706 0.0
H266 H 0.07334 0.71638 0.78355 0.0
H267 H 0.08279 0.77755 0.7732 0.0
H268 H 0.11863 0.73401 0.76071 0.0
H269 H 0.9601 0.70324 0.68057 0.0
H270 H 0.9676 0.71589 0.62337 0.0
H271 H 0.96051 0.76323 0.66182 0.0
C272 C 0.53377 0.67985 0.28411 0.0
C273 C 0.54576 0.71484 0.31341 0.0
C274 C 0.50814 0.69018 0.25053 0.0
C275 C 0.49449 0.73698 0.24564 0.0
C276 C 0.50596 0.77249 0.27553 0.0
C277 C 0.53136 0.76087 0.30948 0.0
C278 C 0.49598 0.65091 0.22002 0.0
C279 C 0.49229 0.82282 0.27091 0.0
C280 C 0.45748 0.75109 0.13068 0.0
C281 C 0.41925 0.73807 0.13655 0.0
C282 C 0.48194 0.75589 0.16679 0.0
C283 C 0.46766 0.74736 0.20938 0.0
C284 C 0.42824 0.73918 0.21558 0.0
C285 C 0.40452 0.73472 0.17908 0.0
C286 C 0.52372 0.76567 0.159 0.0
C287 C 0.41169 0.73015 0.26036 0.0
H288 H 0.54467 0.64413 0.28735 0.0
H289 H 0.54101 0.78804 0.33189 0.0
H290 H 0.46445 0.64729 0.22034 0.0
H291 H 0.50463 0.65949 0.18609 0.0
H292 H 0.50869 0.61627 0.229 0.0
H293 H 0.50155 0.84539 0.29866 0.0
H294 H 0.5037 0.83811 0.24021 0.0
H295 H 0.46071 0.82394 0.26865 0.0
H296 H 0.46894 0.75433 0.09794 0.0
H297 H 0.37469 0.7259 0.18392 0.0
H298 H 0.54004 0.73222 0.16212 0.0
H299 H 0.53499 0.79074 0.18371 0.0
H300 H 0.5289 0.78039 0.1259 0.0
H301 H 0.4195 0.69391 0.27102 0.0
H302 H 0.38007 0.73305 0.26048 0.0
H303 H 0.42347 0.75525 0.2847 0.0
C304 C 0.0295 0.09317 0.042 0.0
C305 C 0.06719 0.07974 0.05136 0.0
C306 C 0.00321 0.06094 0.0245 0.0
C307 C 0.01508 0.01432 0.01479 0.0
C308 C 0.05325 0.00056 0.02373 0.0
C309 C 0.07873 0.03327 0.04265 0.0
C310 C 0.96257 0.07674 0.01686 0.0
C311 C 0.06725 0.95151 0.01282 0.0
C312 C 0.93968 0.91796 1.0044 0.0
C313 C 0.93363 0.91654 0.95915 0.0
C314 C 0.96576 0.94992 0.02297 0.0
C315 C 0.9873 0.98013 0.99551 0.0
C316 C 0.98137 0.97872 0.94973 0.0
C317 C 0.95416 0.94745 0.93217 0.0
C318 C 0.97018 0.95142 0.072 0.0
C319 C 0.00432 0.00954 0.91923 0.0
H320 H 0.02027 0.1289 0.04928 0.0
H321 H 0.10785 0.02285 0.04972 0.0
H322 H 0.95544 0.07404 0.98167 0.0
H323 H 0.9426 0.05325 0.03476 0.0
H324 H 0.95761 0.11375 0.02761 0.0
H325 H 0.09804 0.94686 0.02033 0.0
H326 H 0.05074 0.92485 0.03147 0.0
H327 H 0.06261 0.94415 0.97762 0.0
H328 H 0.92386 0.89404 0.02533 0.0
H329 H 0.95005 0.94585 0.89711 0.0
H330 H 0.9647 0.98777 0.08413 0.0
H331 H 0.99987 0.94218 0.08117 0.0
H332 H 0.95042 0.9267 0.08883 0.0
H333 H 0.99896 0.04737 0.92652 0.0
H334 H 0.99734 0.00291 0.88438 0.0
H335 H 0.03525 0.00309 0.92426 0.0
C336 C 0.54876 0.54129 0.43224 0.0
C337 C 0.5693 0.57218 0.45925 0.0
C338 C 0.52163 0.50994 0.44981 0.0
C339 C 0.51577 0.50845 0.49559 0.0
C340 C 0.53741 0.53853 0.52308 0.0
C341 C 0.56343 0.57056 0.50452 0.0
C342 C 0.49857 0.47923 0.41929 0.0
C343 C 0.53306 0.53694 0.57212 0.0
C344 C 0.42401 0.45629 0.54272 0.0
C345 C 0.43523 0.40971 0.55147 0.0
C346 C 0.4497 0.4887 0.52378 0.0
C347 C 0.48778 0.47453 0.51484 0.0
C348 C 0.49933 0.42779 0.52456 0.0
C349 C 0.47282 0.39587 0.5421 0.0
C350 C 0.43604 0.53789 0.51289 0.0
C351 C 0.53986 0.41158 0.5169 0.0
H352 H 0.55273 0.54304 0.39717 0.0
H353 H 0.57926 0.59446 0.52547 0.0
H354 H 0.50362 0.44137 0.4267 0.0
H355 H 0.46767 0.48605 0.42416 0.0
H356 H 0.50572 0.48564 0.38445 0.0
H357 H 0.55308 0.56135 0.58897 0.0
H358 H 0.50347 0.5466 0.58137 0.0
H359 H 0.53822 0.50049 0.58414 0.0
H360 H 0.39496 0.46703 0.54979 0.0
H361 H 0.48182 0.36005 0.54939 0.0
H362 H 0.44077 0.5452 0.4777 0.0
H363 H 0.45271 0.56438 0.53157 0.0
H364 H 0.40528 0.54285 0.52036 0.0
H365 H 0.54704 0.41428 0.48173 0.0
H366 H 0.54456 0.37449 0.52757 0.0
H367 H 0.55999 0.43482 0.53487 0.0
C368 C 0.4639 0.59353 0.9933 0.0
C369 C 0.42604 0.58202 1.00355 0.0
C370 C 0.49241 0.55866 0.99271 0.0
C371 C 0.48259 0.51099 1.00138 0.0
C372 C 0.44411 0.49895 0.01013 0.0
C373 C 0.41639 0.53473 0.01174 0.0
C374 C 0.53322 0.57303 0.98399 0.0
C375 C 0.43229 0.44834 0.01812 0.0
C376 C 0.55147 0.41814 0.95957 0.0
C377 C 0.57052 0.40457 0.99786 0.0
C378 C 0.52224 0.45186 0.96049 0.0
C379 C 0.5125 0.47366 1.00052 0.0
C380 C 0.53168 0.46019 0.03939 0.0
C381 C 0.56013 0.4251 0.03771 0.0
C382 C 0.50174 0.46405 0.91857 0.0
C383 C 0.5226 0.48344 0.08252 0.0
H384 H 0.47158 0.63016 0.98768 0.0
H385 H 0.38711 0.52576 0.0197 0.0
H386 H 0.5515 0.56261 0.01198 0.0
H387 H 0.54421 0.55433 0.95475 0.0
H388 H 0.53623 0.61171 0.97869 0.0
H389 H 0.40095 0.44465 0.0225 0.0
H390 H 0.44131 0.42578 0.99032 0.0
H391 H 0.44669 0.4346 0.04776 0.0
H392 H 0.55906 0.40168 0.92878 0.0
H393 H 0.57489 0.41461 0.06727 0.0
H394 H 0.50666 0.50173 0.91027 0.0
H395 H 0.47052 0.45925 0.92275 0.0
H396 H 0.51136 0.44194 0.89067 0.0
H397 H 0.52725 0.52216 0.08002 0.0
H398 H 0.54044 0.46946 0.10959 0.0
H399 H 0.49213 0.4779 0.09085 0.0
C400 C 0.91466 0.03045 0.50479 0.0
C401 C 0.92434 0.078 0.51152 0.0
C402 C 0.9425 -0.00519 0.50674 0.0
C403 C 0.98109 0.00725 0.5143 0.0
C404 C 0.99092 0.05518 0.52163 0.0
C405 C 0.96232 0.08992 0.52075 0.0
C406 C 0.93068 0.94396 0.50019 0.0
C407 C 0.03184 0.06995 0.52902 0.0
C408 C 0.05109 0.91545 0.5557 0.0
C409 C 0.06923 0.90102 0.51708 0.0
C410 C 0.02185 0.9492 0.55509 0.0
C411 C 0.01117 0.97011 0.51499 0.0
C412 C 0.02948 0.95585 0.4758 0.0
C413 C 0.05795 0.9208 0.47723 0.0
C414 C 0.0023 0.96228 0.59738 0.0
C415 C 0.01939 0.97814 0.43255 0.0
H416 H 0.8853 0.02117 0.49761 0.0
H417 H 0.97001 0.12674 0.52523 0.0
H418 H 0.94436 0.92959 0.47034 0.0
H419 H 0.94052 0.92213 0.52811 0.0
H420 H 0.89926 0.93999 0.49698 0.0
H421 H 0.03478 0.10874 0.5337 0.0
H422 H 0.04353 0.05182 0.5582 0.0
H423 H 0.04956 0.05919 0.50067 0.0
H424 H 0.05933 0.8996 0.58653 0.0
H425 H 0.072 0.90967 0.4474 0.0
H426 H 0.97103 0.95706 0.59429 0.0
H427 H 0.00715 0.0002 0.60472 0.0
H428 H 0.01273 0.94098 0.62542 0.0
H429 H 0.98879 0.97212 0.42514 0.0
H430 H 0.03676 0.96379 0.40525 0.0
H431 H 0.02381 0.01696 0.43428 0.0
C432 C 0.35679 0.89897 0.02667 0.0
C433 C 0.32948 0.87501 1.00159 0.0
C434 C 0.3508 0.94616 0.03899 0.0
C435 C 0.31691 0.96918 0.02568 0.0
C436 C 0.29208 0.94698 0.99554 0.0
C437 C 0.29861 0.89992 0.98402 0.0
C438 C 0.37847 0.96934 0.07007 0.0
C439 C 0.25608 0.97079 0.97967 0.0
C440 C 0.25753 0.0391 0.10453 0.0
C441 C 0.2595 0.08446 0.08643 0.0
C442 C 0.27877 0.00191 0.08703 0.0
C443 C 0.30248 0.01036 0.05039 0.0
C444 C 0.30707 0.05684 0.0342 0.0
C445 C 0.2854 0.09354 0.05247 0.0
C446 C 0.27343 0.95286 0.10574 0.0
C447 C 0.33254 0.06737 0.99568 0.0
H448 H 0.38099 0.87983 0.03986 0.0
H449 H 0.27802 0.8816 0.96367 0.0
H450 H 0.38151 0.0076 0.06286 0.0
H451 H 0.36754 0.96589 0.10393 0.0
H452 H 0.40705 0.9524 0.06857 0.0
H453 H 0.24315 0.95179 0.95156 0.0
H454 H 0.23486 0.97175 0.00658 0.0
H455 H 0.26196 0.00779 0.96978 0.0
H456 H 0.23819 0.03218 0.13142 0.0
H457 H 0.28726 0.12871 0.03856 0.0
H458 H 0.30148 0.93614 0.11223 0.0
H459 H 0.25812 0.93033 0.08176 0.0
H460 H 0.25676 0.95318 0.1366 0.0
H461 H 0.35831 0.04459 0.99572 0.0
H462 H 0.3416 0.10503 0.99542 0.0
H463 H 0.31663 0.06039 0.96504 0.0
C464 C 0.19995 0.58967 0.48055 0.0
C465 C 0.16956 0.61451 0.4993 0.0
C466 C 0.20739 0.54296 0.49255 0.0
C467 C 0.18396 0.52111 0.52432 0.0
C468 C 0.15034 0.54385 0.53884 0.0
C469 C 0.14341 0.59064 0.52602 0.0
C470 C 0.24301 0.51934 0.47536 0.0
C471 C 0.12415 0.52099 0.57174 0.0
C472 C 0.21635 0.39756 0.55286 0.0
C473 C 0.24309 0.40744 0.58579 0.0
C474 C 0.19446 0.43382 0.53428 0.0
C475 C 0.19967 0.48072 0.54906 0.0
C476 C 0.22451 0.49023 0.58449 0.0
C477 C 0.24596 0.45342 0.60236 0.0
C478 C 0.16791 0.42223 0.49698 0.0
C479 C 0.2305 0.53983 0.60168 0.0
H480 H 0.21963 0.6079 0.459 0.0
H481 H 0.11958 0.6097 0.54017 0.0
H482 H 0.2653 0.51964 0.50112 0.0
H483 H 0.23725 0.48193 0.46676 0.0
H484 H 0.25451 0.5377 0.44612 0.0
H485 H 0.09541 0.5376 0.57156 0.0
H486 H 0.12109 0.48257 0.56529 0.0
H487 H 0.13645 0.52519 0.60491 0.0
H488 H 0.21381 0.36195 0.54006 0.0
H489 H 0.26601 0.46106 0.62839 0.0
H490 H 0.18283 0.42875 0.4656 0.0
H491 H 0.14202 0.44478 0.49767 0.0
H492 H 0.15907 0.3845 0.49769 0.0
H493 H 0.24486 0.56163 0.57642 0.0
H494 H 0.24829 0.54046 0.63171 0.0
H495 H 0.20269 0.55672 0.60911 0.0
C496 C 0.75766 0.45388 1.00129 0.0
C497 C 0.76863 0.40883 0.98755 0.0
C498 C 0.78004 0.49326 0.99123 0.0
C499 C 0.81339 0.4872 0.96565 0.0
C500 C 0.82619 0.4413 0.95477 0.0
C501 C 0.80368 0.40234 0.96633 0.0
C502 C 0.76616 0.54169 1.00473 0.0
C503 C 0.86141 0.43344 0.92736 0.0
C504 C 0.82159 0.59511 0.89565 0.0
C505 C 0.84634 0.62263 0.92088 0.0
C506 C 0.814 0.54821 0.90714 0.0
C507 C 0.83089 0.52927 0.94533 0.0
C508 C 0.85905 0.55519 0.96805 0.0
C509 C 0.86676 0.6017 0.95521 0.0
C510 C 0.78485 0.52078 0.88109 0.0
C511 C 0.87777 0.53607 0.00875 0.0
H512 H 0.73059 0.45852 0.01793 0.0
H513 H 0.81188 0.3673 0.9554 0.0
H514 H 0.78993 0.56284 0.01857 0.0
H515 H 0.75521 0.56079 0.97567 0.0
H516 H 0.74289 0.5397 0.02931 0.0
H517 H 0.8725 0.39686 0.93105 0.0
H518 H 0.85414 0.439 0.89247 0.0
H519 H 0.88436 0.4588 0.93596 0.0
H520 H 0.80634 0.61112 0.86861 0.0
H521 H 0.88612 0.62291 0.97472 0.0
H522 H 0.75752 0.51963 0.89939 0.0
H523 H 0.79443 0.4838 0.87604 0.0
H524 H 0.7794 0.53719 0.84873 0.0
H525 H 0.85796 0.54034 0.03676 0.0
H526 H 0.9046 0.55527 0.01646 0.0
H527 H 0.88418 0.49784 0.00546 0.0
C528 C 0.73456 0.03663 0.50931 0.0
C529 C 0.72507 0.08139 0.4935 0.0
C530 C 0.7123 -0.00265 0.49856 0.0
C531 C 0.6807 0.00321 0.4702 0.0
C532 C 0.66885 0.04904 0.4578 0.0
C533 C 0.69116 0.08796 0.47006 0.0
C534 C 0.72503 0.94907 0.51381 0.0
C535 C 0.63533 0.05674 0.42771 0.0
C536 C 0.67874 0.89577 0.39885 0.0
C537 C 0.65259 0.86757 0.42144 0.0
C538 C 0.68497 0.94267 0.41142 0.0
C539 C 0.66513 0.96103 0.44801 0.0
C540 C 0.63569 0.93445 0.46772 0.0
C541 C 0.62949 0.88791 0.45388 0.0
C542 C 0.71566 0.97076 0.38847 0.0
C543 C 0.61373 0.95294 0.50653 0.0
H544 H 0.76078 0.03195 0.52764 0.0
H545 H 0.6841 0.12277 0.45761 0.0
H546 H 0.70029 0.92804 0.52538 0.0
H547 H 0.73819 0.92969 0.48612 0.0
H548 H 0.74632 0.95136 0.54061 0.0
H549 H 0.62394 0.09326 0.43063 0.0
H550 H 0.64472 0.05136 0.39345 0.0
H551 H 0.61201 0.03123 0.43442 0.0
H552 H 0.69606 0.88031 0.3732 0.0
H553 H 0.60898 0.86628 0.47131 0.0
H554 H 0.74143 0.97245 0.40949 0.0
H555 H 0.706 0.00754 0.3825 0.0
H556 H 0.72385 0.95457 0.35677 0.0
H557 H 0.63101 0.94773 0.53651 0.0
H558 H 0.58625 0.93387 0.51079 0.0
H559 H 0.60786 0.99132 0.50335 0.0
C560 C 0.64646 0.09586 0.97906 0.0
C561 C 0.67156 0.11835 0.00804 0.0
C562 C 0.654 0.04985 0.96435 0.0
C563 C 0.68713 0.02637 0.97937 0.0
C564 C 0.70959 0.04676 0.01285 0.0
C565 C 0.70159 0.09276 0.02666 0.0
C566 C 0.62895 0.0287 0.92936 0.0
C567 C 0.74467 0.02231 0.03049 0.0
C568 C 0.71802 0.90246 0.95008 0.0
C569 C 0.74616 0.91203 0.91864 0.0
C570 C 0.69627 0.93907 0.96829 0.0
C571 C 0.70296 0.98605 0.95459 0.0
C572 C 0.72924 -0.00461 0.9205 0.0
C573 C 0.75061 0.95822 0.90303 0.0
C574 C 0.66825 0.92773 1.00423 0.0
C575 C 0.73678 0.04509 0.90447 0.0
H576 H 0.62302 0.11557 0.96483 0.0
H577 H 0.72053 0.10994 0.04977 0.0
H578 H 0.64259 0.03406 0.89703 0.0
H579 H 0.62538 0.99009 0.93425 0.0
H580 H 0.60035 0.04563 0.92866 0.0
H581 H 0.75551 0.03958 0.06064 0.0
H582 H 0.73852 0.98468 0.03779 0.0
H583 H 0.76761 0.02328 0.0055 0.0
H584 H 0.71427 0.86673 0.96217 0.0
H585 H 0.77181 0.96566 0.87817 0.0
H586 H 0.64232 0.95007 1.00177 0.0
H587 H 0.68173 0.93501 0.03631 0.0
H588 H 0.65962 0.88994 1.00356 0.0
H589 H 0.70956 0.06318 0.89659 0.0
H590 H 0.75525 0.04566 0.87498 0.0
H591 H 0.75108 0.06579 0.93056 0.0
C592 C 0.75306 0.53385 0.40029 0.0
C593 C 0.75648 0.57942 0.41771 0.0
C594 C 0.77406 0.49625 0.41748 0.0
C595 C 0.79892 0.5045 0.45315 0.0
C596 C 0.80489 0.55105 0.46856 0.0
C597 C 0.78352 0.58815 0.45056 0.0
C598 C 0.76731 0.4471 0.39962 0.0
C599 C 0.83148 0.56128 0.50615 0.0
C600 C 0.79609 0.39608 0.5229 0.0
C601 C 0.82683 0.37054 0.50577 0.0
C602 C 0.78909 0.44247 0.50952 0.0
C603 C 0.81331 0.46335 0.47796 0.0
C604 C 0.84688 0.43972 0.46448 0.0
C605 C 0.85337 0.39328 0.47873 0.0
C606 C 0.7534 0.46694 0.52548 0.0
C607 C 0.87375 0.46137 0.4316 0.0
H608 H 0.73276 0.52714 0.37429 0.0
H609 H 0.78647 0.62344 0.464 0.0
H610 H 0.79485 0.42924 0.39287 0.0
H611 H 0.75184 0.42559 0.42423 0.0
H612 H 0.75019 0.4475 0.36908 0.0
H613 H 0.84024 0.59903 0.50676 0.0
H614 H 0.8167 0.5533 0.53733 0.0
H615 H 0.85741 0.53885 0.50453 0.0
H616 H 0.77601 0.37869 0.54456 0.0
H617 H 0.87736 0.3736 0.46569 0.0
H618 H 0.73177 0.46716 0.499 0.0
H619 H 0.75953 0.50422 0.53423 0.0
H620 H 0.74085 0.44895 0.55436 0.0
H621 H 0.86178 0.45675 0.39832 0.0
H622 H 0.90226 0.44422 0.43251 0.0
H623 H 0.87724 0.49985 0.4374 0.0
C624 C 0.13166 0.39382 0.06399 0.0
C625 C 0.15594 0.37227 0.09458 0.0
C626 C 0.13768 0.44061 0.0509 0.0
C627 C 0.16819 0.46623 0.06949 0.0
C628 C 0.18936 0.4467 0.10453 0.0
C629 C 0.18322 0.39957 0.1164 0.0
C630 C 0.11427 0.46042 0.01381 0.0
C631 C 0.22123 0.47382 0.12633 0.0
C632 C 0.23531 0.54217 1.00521 0.0
C633 C 0.22671 0.58678 0.022 0.0
C634 C 0.21344 0.50289 0.01693 0.0
C635 C 0.18322 0.50862 0.04725 0.0
C636 C 0.17222 0.55435 0.06096 0.0
C637 C 0.19405 0.59326 0.04769 0.0
C638 C 0.22517 0.45473 1.00032 0.0
C639 C 0.14028 0.56188 0.09326 0.0
H640 H 0.11015 0.37303 0.04728 0.0
H641 H 0.20144 0.38328 0.14074 0.0
H642 H 0.10864 0.49869 0.01842 0.0
H643 H 0.13035 0.4562 0.98284 0.0
H644 H 0.08659 0.4416 0.01041 0.0
H645 H 0.23051 0.4568 0.15726 0.0
H646 H 0.24615 0.47556 0.10401 0.0
H647 H 0.21222 0.5106 0.13349 0.0
H648 H 0.26061 0.53757 0.98523 0.0
H649 H 0.18777 0.62797 0.06095 0.0
H650 H 0.19981 0.43415 0.98985 0.0
H651 H 0.23934 0.43477 0.02697 0.0
H652 H 0.24531 0.45722 0.97239 0.0
H653 H 0.11659 0.53653 0.08792 0.0
H654 H 0.12886 0.59847 0.09137 0.0
H655 H 0.15136 0.55621 0.1268 0.0
C656 C 0.25719 0.94905 0.51276 0.0
C657 C 0.26735 0.90416 0.52763 0.0
C658 C 0.27922 0.98843 0.52377 0.0
C659 C 0.31126 0.98251 0.55148 0.0
C660 C 0.32328 0.93672 0.56375 0.0
C661 C 0.30122 0.89775 0.55119 0.0
C662 C 0.26627 0.03673 0.50879 0.0
C663 C 0.35703 0.92904 0.59352 0.0
C664 C 0.36493 0.09653 0.56245 0.0
C665 C 0.34312 0.1187 0.59502 0.0
C666 C 0.35752 0.04975 0.55033 0.0
C667 C 0.32821 0.02479 0.57198 0.0
C668 C 0.30981 0.04494 0.60871 0.0
C669 C 0.3172 0.09208 0.61954 0.0
C670 C 0.37791 0.02926 0.51125 0.0
C671 C 0.27939 0.01848 0.63368 0.0
H672 H 0.23097 0.95358 0.49441 0.0
H673 H 0.30869 0.86282 0.56305 0.0
H674 H 0.25422 0.05649 0.53691 0.0
H675 H 0.29077 0.05738 0.49601 0.0
H676 H 0.24409 0.03452 0.48295 0.0
H677 H 0.36821 0.89239 0.59084 0.0
H678 H 0.38044 0.95425 0.58632 0.0
H679 H 0.34798 0.9349 0.62783 0.0
H680 H 0.38534 0.11689 0.5436 0.0
H681 H 0.30094 0.10891 0.64536 0.0
H682 H 0.35933 0.03264 0.48207 0.0
H683 H 0.38407 0.99115 0.51596 0.0
H684 H 0.4051 0.04813 0.50452 0.0
H685 H 0.25285 0.01719 0.61394 0.0
H686 H 0.27273 0.03574 0.66537 0.0
H687 H 0.28845 0.98152 0.63998 0.0
C688 C 0.22914 0.21827 0.94546 0.0
C689 C 0.19204 0.2328 0.95644 0.0
C690 C 0.24399 0.22554 0.90349 0.0
C691 C 0.22143 0.24852 0.87161 0.0
C692 C 0.18352 0.26209 0.88202 0.0
C693 C 0.16913 0.25372 0.9243 0.0
C694 C 0.28426 0.20967 0.89367 0.0
C695 C 0.15866 0.2869 0.84897 0.0
C696 C 0.27643 0.30987 0.78041 0.0
C697 C 0.27318 0.27719 0.74611 0.0
C698 C 0.25894 0.30152 0.82105 0.0
C699 C 0.23809 0.25919 0.82783 0.0
C700 C 0.2348 0.22603 0.79343 0.0
C701 C 0.25217 0.23551 0.75302 0.0
C702 C 0.26295 0.33791 0.85685 0.0
C703 C 0.2134 0.18014 0.7995 0.0
H704 H 0.24691 0.20168 0.97006 0.0
H705 H 0.14059 0.26535 0.93271 0.0
H706 H 0.28462 0.18684 0.8642 0.0
H707 H 0.30241 0.24088 0.88659 0.0
H708 H 0.29719 0.1898 0.92124 0.0
H709 H 0.12938 0.29341 0.8615 0.0
H710 H 0.17171 0.32134 0.84008 0.0
H711 H 0.15669 0.26562 0.81863 0.0
H712 H 0.29231 0.34231 0.77539 0.0
H713 H 0.24955 0.20987 0.72689 0.0
H714 H 0.27849 0.32238 0.88495 0.0
H715 H 0.23434 0.34869 0.86878 0.0
H716 H 0.27855 0.36994 0.84578 0.0
H717 H 0.22701 0.15901 0.82574 0.0
H718 H 0.21269 0.15854 0.7692 0.0
H719 H 0.18364 0.18736 0.80988 0.0
C720 C 0.2481 0.25724 0.2532 0.0
C721 C 0.22822 0.21482 0.24577 0.0
C722 C 0.26528 0.26679 0.29371 0.0
C723 C 0.26299 0.23294 0.32762 0.0
C724 C 0.2433 0.18988 0.32028 0.0
C725 C 0.22595 0.18147 0.27959 0.0
C726 C 0.28541 0.31345 0.30041 0.0
C727 C 0.2404 0.15273 0.35553 0.0
C728 C 0.332 0.23921 0.42394 0.0
C729 C 0.30862 0.25847 0.45655 0.0
C730 C 0.31775 0.23122 0.38154 0.0
C731 C 0.27949 0.24349 0.37149 0.0
C732 C 0.2564 0.26483 0.40387 0.0
C733 C 0.27114 0.27175 0.44595 0.0
C734 C 0.34318 0.20816 0.34795 0.0
C735 C 0.21572 0.27929 0.39445 0.0
H736 H 0.24994 0.28338 0.22742 0.0
H737 H 0.21097 0.14846 0.27415 0.0
H738 H 0.2713 0.33352 0.32704 0.0
H739 H 0.31539 0.30733 0.31056 0.0
H740 H 0.28542 0.33559 0.27045 0.0
H741 H 0.22565 0.12026 0.34404 0.0
H742 H 0.26933 0.14295 0.36718 0.0
H743 H 0.22454 0.16711 0.38393 0.0
H744 H 0.36086 0.22859 0.43202 0.0
H745 H 0.25301 0.28712 0.47089 0.0
H746 H 0.34448 0.23015 0.31801 0.0
H747 H 0.33106 0.17339 0.33847 0.0
H748 H 0.37266 0.20263 0.36025 0.0
H749 H 0.21469 0.30263 0.36537 0.0
H750 H 0.20237 0.29813 0.42239 0.0
H751 H 0.19836 0.24751 0.38693 0.0
C752 C 0.7405 0.19768 0.32827 0.0
C753 C 0.74333 0.23098 0.36214 0.0
C754 C 0.72626 0.21012 0.28712 0.0
C755 C 0.7143 0.25715 0.27931 0.0
C756 C 0.71536 0.29056 0.31383 0.0
C757 C 0.72987 0.27708 0.35491 0.0
C758 C 0.72566 0.17324 0.25139 0.0
C759 C 0.70263 0.34096 0.30688 0.0
C760 C 0.72565 0.28984 0.16019 0.0
C761 C 0.6892 0.27991 0.14334 0.0
C762 C 0.7335 0.28566 0.20492 0.0
C763 C 0.70418 0.27152 0.23389 0.0
C764 C 0.66667 0.26484 0.21772 0.0
C765 C 0.65962 0.26898 0.17261 0.0
C766 C 0.77394 0.2931 0.22063 0.0
C767 C 0.63449 0.25039 0.24763 0.0
H768 H 0.7503 0.16178 0.33353 0.0
H769 H 0.73186 0.30307 0.38084 0.0
H770 H 0.69682 0.17099 0.23663 0.0
H771 H 0.74583 0.1835 0.22509 0.0
H772 H 0.73379 0.13761 0.26348 0.0
H773 H 0.70095 0.36101 0.33802 0.0
H774 H 0.72306 0.35922 0.28495 0.0
H775 H 0.67429 0.34181 0.29073 0.0
H776 H 0.74871 0.29898 0.13816 0.0
H777 H 0.63128 0.26162 0.16016 0.0
H778 H 0.78642 0.25862 0.23035 0.0
H779 H 0.77436 0.31635 0.24979 0.0
H780 H 0.79242 0.309 0.19506 0.0
H781 H 0.6382 0.21285 0.25721 0.0
H782 H 0.60619 0.25425 0.23169 0.0
H783 H 0.63483 0.27183 0.27798 0.0
C784 C 0.84096 0.2135 0.67312 0.0
C785 C 0.81013 0.21014 0.64395 0.0
C786 C 0.83489 0.21572 0.71856 0.0
C787 C 0.79715 0.21511 0.73517 0.0
C788 C 0.76616 0.20893 0.70608 0.0
C789 C 0.77303 0.20629 0.66105 0.0
C790 C 0.86873 0.22125 0.74859 0.0
C791 C 0.7254 0.20826 0.72222 0.0
C792 C 0.76864 0.20541 0.85503 0.0
C793 C 0.76019 0.25277 0.86467 0.0
C794 C 0.78315 0.19252 0.81375 0.0
C795 C 0.78918 0.22784 0.78158 0.0
C796 C 0.78305 0.2759 0.79234 0.0
C797 C 0.76878 0.28769 0.83362 0.0
C798 C 0.78985 0.14095 0.80384 0.0
C799 C 0.78912 0.31485 0.75927 0.0
H800 H 0.86978 0.21594 0.66048 0.0
H801 H 0.74889 0.20307 0.63913 0.0
H802 H 0.87003 0.2582 0.76068 0.0
H803 H 0.86582 0.19784 0.77746 0.0
H804 H 0.89605 0.21308 0.73179 0.0
H805 H 0.70483 0.19895 0.69598 0.0
H806 H 0.72215 0.18254 0.74928 0.0
H807 H 0.71775 0.24366 0.73519 0.0
H808 H 0.7622 0.17821 0.87886 0.0
H809 H 0.76302 0.3245 0.84101 0.0
H810 H 0.81655 0.13611 0.78487 0.0
H811 H 0.76597 0.12727 0.78369 0.0
H812 H 0.79153 0.11941 0.83411 0.0
H813 H 0.81793 0.31208 0.74452 0.0
H814 H 0.78601 0.3506 0.77388 0.0
H815 H 0.76798 0.31123 0.73249 0.0
C816 C 0.82903 0.7461 0.08758 0.0
C817 C 0.80601 0.76497 0.05444 0.0
C818 C 0.8142 0.7379 0.12965 0.0
C819 C 0.77565 0.74948 0.13887 0.0
C820 C 0.75287 0.77047 0.10603 0.0
C821 C 0.76823 0.77768 0.06426 0.0
C822 C 0.83934 0.71526 0.16374 0.0
C823 C 0.71187 0.78412 0.1146 0.0
C824 C 0.72254 0.68483 0.22947 0.0
C825 C 0.72415 0.71764 0.26381 0.0
C826 C 0.73971 0.69445 0.18893 0.0
C827 C 0.75857 0.73819 0.18227 0.0
C828 C 0.76002 0.77163 0.21663 0.0
C829 C 0.74301 0.76087 0.25698 0.0
C830 C 0.73771 0.65773 0.15318 0.0
C831 C 0.7793 0.81895 0.21066 0.0
H832 H 0.85813 0.73591 0.08017 0.0
H833 H 0.75033 0.79272 0.03895 0.0
H834 H 0.83978 0.73712 0.19381 0.0
H835 H 0.82757 0.68017 0.17278 0.0
H836 H 0.86912 0.71044 0.15213 0.0
H837 H 0.69883 0.80299 0.08651 0.0
H838 H 0.69475 0.75194 0.1214 0.0
H839 H 0.71001 0.80712 0.14387 0.0
H840 H 0.7083 0.65123 0.23442 0.0
H841 H 0.74432 0.78662 0.28316 0.0
H842 H 0.76691 0.64846 0.1421 0.0
H843 H 0.72224 0.67227 0.12458 0.0
H844 H 0.72303 0.62492 0.16396 0.0
H845 H 0.80961 0.81378 0.20136 0.0
H846 H 0.77819 0.84096 0.24068 0.0
H847 H 0.7654 0.83867 0.18369 0.0
C848 C 0.75754 0.73105 0.75702 0.0
C849 C 0.7771 0.77385 0.76363 0.0
C850 C 0.74043 0.72039 0.71671 0.0
C851 C 0.74249 0.75348 0.68214 0.0
C852 C 0.76205 0.79681 0.68856 0.0
C853 C 0.77931 0.80634 0.72909 0.0
C854 C 0.7204 0.67351 0.711 0.0
C855 C 0.76473 0.83315 0.65258 0.0
C856 C 0.73251 0.71267 0.56451 0.0
C857 C 0.69492 0.72602 0.55446 0.0
C858 C 0.7479 0.72019 0.60621 0.0
C859 C 0.72537 0.74217 0.63875 0.0
C860 C 0.68701 0.75445 0.6293 0.0
C861 C 0.67212 0.74591 0.58731 0.0
C862 C 0.78869 0.70577 0.61504 0.0
C863 C 0.66214 0.77815 0.66307 0.0
H864 H 0.75577 0.70555 0.78335 0.0
H865 H 0.79409 0.83961 0.73388 0.0
H866 H 0.69021 0.67934 0.70153 0.0
H867 H 0.73407 0.65318 0.68425 0.0
H868 H 0.72104 0.65177 0.7412 0.0
H869 H 0.77987 0.8657 0.66319 0.0
H870 H 0.78007 0.81799 0.62415 0.0
H871 H 0.73571 0.84301 0.64131 0.0
H872 H 0.75023 0.69687 0.53942 0.0
H873 H 0.64318 0.75663 0.57969 0.0
H874 H 0.79013 0.68301 0.64448 0.0
H875 H 0.80623 0.73763 0.62166 0.0
H876 H 0.80155 0.68635 0.58714 0.0
H877 H 0.66124 0.75665 0.69333 0.0
H878 H 0.63248 0.78358 0.65128 0.0
H879 H 0.67447 0.81303 0.67183 0.0
C880 C 0.27008 0.78366 0.6771 0.0
C881 C 0.25969 0.74803 0.64746 0.0
C882 C 0.28465 0.77277 0.71845 0.0
C883 C 0.28925 0.72488 0.73074 0.0
C884 C 0.28149 0.68868 0.69988 0.0
C885 C 0.26673 0.70068 0.65847 0.0
C886 C 0.29258 0.81266 0.75004 0.0
C887 C 0.2866 0.63724 0.71143 0.0
C888 C 0.34147 0.71198 0.83918 0.0
C889 C 0.31081 0.71125 0.86875 0.0
C890 C 0.33509 0.71282 0.79373 0.0
C891 C 0.29722 0.71359 0.77749 0.0
C892 C 0.26631 0.71021 0.80708 0.0
C893 C 0.27346 0.70881 0.8521 0.0
C894 C 0.36884 0.71539 0.76323 0.0
C895 C 0.22541 0.71124 0.7914 0.0
H896 H 0.26543 0.82042 0.66858 0.0
H897 H 0.25891 0.67295 0.63571 0.0
H898 H 0.27162 0.8114 0.77719 0.0
H899 H 0.32141 0.80882 0.76451 0.0
H900 H 0.29066 0.84792 0.73422 0.0
H901 H 0.28609 0.61424 0.68201 0.0
H902 H 0.3139 0.63169 0.72905 0.0
H903 H 0.26319 0.62598 0.7335 0.0
H904 H 0.37045 0.71331 0.85147 0.0
H905 H 0.24941 0.70771 0.87433 0.0
H906 H 0.3715 0.75184 0.75021 0.0
H907 H 0.36477 0.69133 0.73498 0.0
H908 H 0.39594 0.70607 0.77997 0.0
H909 H 0.21895 0.74651 0.77734 0.0
H910 H 0.20475 0.70416 0.81814 0.0
H911 H 0.22095 0.68469 0.76525 0.0
C912 C 0.15899 0.77103 0.3396 0.0
C913 C 0.18856 0.7799 0.36948 0.0
C914 C 0.1663 0.7684 0.29442 0.0
C915 C 0.20406 0.77444 0.27878 0.0
C916 C 0.23343 0.78653 0.30847 0.0
C917 C 0.22532 0.78931 0.35324 0.0
C918 C 0.13406 0.7562 0.26377 0.0
C919 C 0.27415 0.79316 0.2934 0.0
C920 C 0.23995 0.70235 0.183 0.0
C921 C 0.2442 0.7366 0.15015 0.0
C922 C 0.22529 0.71397 0.22417 0.0
C923 C 0.21432 0.76115 0.23307 0.0
C924 C 0.21669 0.79557 0.19949 0.0
C925 C 0.23163 0.78289 0.15834 0.0
C926 C 0.22332 0.67601 0.25883 0.0
C927 C 0.20494 0.84612 0.20758 0.0
H928 H 0.13041 0.76413 0.35156 0.0
H929 H 0.2484 0.79691 0.37573 0.0
H930 H 0.13524 0.77851 0.23401 0.0
H931 H 0.13685 0.71882 0.25324 0.0
H932 H 0.10572 0.76073 0.2795 0.0
H933 H 0.29276 0.8075 0.31962 0.0
H934 H 0.28596 0.75862 0.28273 0.0
H935 H 0.27534 0.8174 0.26499 0.0
H936 H 0.24898 0.66628 0.17694 0.0
H937 H 0.23468 0.80958 0.13319 0.0
H938 H 0.19424 0.67436 0.27304 0.0
H939 H 0.24336 0.68467 0.28573 0.0
H940 H 0.23075 0.64049 0.24588 0.0
H941 H 0.17652 0.84744 0.22352 0.0
H942 H 0.2039 0.86706 0.17691 0.0
H943 H 0.22561 0.86312 0.2301 0.0
loop_
_geom_bond_atom_site_label_1
_geom_bond_atom_site_label_2
_geom_bond_distance
_geom_bond_site_symmetry_2
_ccdc_geom_bond_type
Sc0 O3 2.025 . S
Sc0 O10 2.105 . S
Sc0 O13 2.105 . S
Sc0 O16 2.105 . S
Sc0 O19 2.105 . S
Sc1 O3 2.025 . S
Sc1 O11 2.105 . S
Sc1 O15 2.105 . S
Sc1 O17 2.105 . S
Sc1 O21 2.105 . S
Sc2 O3 2.025 . S
Sc2 O12 2.105 . S
Sc2 O14 2.105 . S
Sc2 O18 2.105 . S
Sc2 O20 2.105 . S
O3 Sc0 2.025 . S
O3 Sc1 2.025 . S
O3 Sc2 2.025 . S
C4 O10 1.268 . S
C4 O20 1.268 . S
C5 O11 1.269 1_556 S
C5 O19 1.270 1_556 S
C6 O12 1.268 . S
C6 O21 1.268 . S
C7 O13 1.268 . S
C7 O17 1.268 . S
C8 O14 1.268 . S
C8 O16 1.268 . S
C9 O15 1.268 . S
C9 O18 1.268 . S
O10 Sc0 2.105 . S
O10 C4 1.268 . S
O11 Sc1 2.105 . S
O11 C5 1.269 1_554 S
O12 Sc2 2.105 . S
O12 C6 1.268 . S
O13 Sc0 2.105 . S
O13 C7 1.268 . S
O14 Sc2 2.105 . S
O14 C8 1.268 . S
O15 Sc1 2.105 . S
O15 C9 1.268 . S
O16 Sc0 2.105 . S
O16 C8 1.268 . S
O17 Sc1 2.105 . S
O17 C7 1.268 . S
O18 Sc2 2.105 . S
O18 C9 1.268 . S
O19 Sc0 2.105 . S
O19 C5 1.270 1_554 S
O20 Sc2 2.105 . S
O20 C4 1.268 . S
O21 Sc1 2.105 . S
O21 C6 1.268 . S
Sc22 O25 2.025 . S
Sc22 O32 2.105 . S
Sc22 O35 2.105 . S
Sc22 O38 2.105 . S
Sc22 O41 2.105 . S
Sc23 O25 2.025 . S
Sc23 O33 2.105 . S
Sc23 O37 2.105 . S
Sc23 O39 2.105 . S
Sc23 O43 2.105 . S
Sc24 O25 2.025 . S
Sc24 O34 2.105 . S
Sc24 O36 2.105 . S
Sc24 O40 2.105 . S
Sc24 O42 2.105 . S
O25 Sc22 2.025 . S
O25 Sc23 2.025 . S
O25 Sc24 2.025 . S
C26 O32 1.268 . S
C26 O42 1.268 . S
C27 O33 1.268 . S
C27 O41 1.268 . S
C28 O34 1.268 . S
C28 O43 1.268 . S
C29 O35 1.268 . S
C29 O39 1.268 . S
C30 O36 1.268 . S
C30 O38 1.268 . S
C31 O37 1.268 . S
C31 O40 1.268 . S
O32 Sc22 2.105 . S
O32 C26 1.268 . S
O33 Sc23 2.105 . S
O33 C27 1.268 . S
O34 Sc24 2.105 . S
O34 C28 1.268 . S
O35 Sc22 2.105 . S
O35 C29 1.268 . S
O36 Sc24 2.105 . S
O36 C30 1.268 . S
O37 Sc23 2.105 . S
O37 C31 1.268 . S
O38 Sc22 2.105 . S
O38 C30 1.268 . S
O39 Sc23 2.105 . S
O39 C29 1.268 . S
O40 Sc24 2.105 . S
O40 C31 1.268 . S
O41 Sc22 2.105 . S
O41 C27 1.268 . S
O42 Sc24 2.105 . S
O42 C26 1.268 . S
O43 Sc23 2.105 . S
O43 C28 1.268 . S
Sc44 O47 2.025 . S
Sc44 O54 2.105 . S
Sc44 O57 2.105 . S
Sc44 O60 2.105 . S
Sc44 O63 2.105 . S
Sc45 O47 2.025 . S
Sc45 O55 2.105 . S
Sc45 O59 2.105 . S
Sc45 O61 2.105 . S
Sc45 O65 2.105 . S
Sc46 O47 2.025 . S
Sc46 O56 2.105 . S
Sc46 O58 2.105 . S
Sc46 O62 2.105 . S
Sc46 O64 2.105 . S
O47 Sc44 2.025 . S
O47 Sc45 2.025 . S
O47 Sc46 2.025 . S
C48 O54 1.268 . S
C48 O64 1.268 . S
C49 O55 1.268 . S
C49 O63 1.268 . S
C50 O56 1.268 . S
C50 O65 1.268 . S
C51 O57 1.268 . S
C51 O61 1.268 . S
C52 O58 1.268 . S
C52 O60 1.268 . S
C53 O59 1.269 1_554 S
C53 O62 1.270 1_554 S
O54 Sc44 2.105 . S
O54 C48 1.268 . S
O55 Sc45 2.105 . S
O55 C49 1.268 . S
O56 Sc46 2.105 . S
O56 C50 1.268 . S
O57 Sc44 2.105 . S
O57 C51 1.268 . S
O58 Sc46 2.105 . S
O58 C52 1.268 . S
O59 Sc45 2.105 . S
O59 C53 1.269 1_556 S
O60 Sc44 2.105 . S
O60 C52 1.268 . S
O61 Sc45 2.105 . S
O61 C51 1.268 . S
O62 Sc46 2.105 . S
O62 C53 1.270 1_556 S
O63 Sc44 2.105 . S
O63 C49 1.268 . S
O64 Sc46 2.105 . S
O64 C48 1.268 . S
O65 Sc45 2.105 . S
O65 C50 1.268 . S
Sc66 O69 2.025 . S
Sc66 O76 2.105 . S
Sc66 O79 2.105 . S
Sc66 O82 2.105 . S
Sc66 O85 2.105 . S
Sc67 O69 2.025 . S
Sc67 O77 2.105 . S
Sc67 O81 2.105 . S
Sc67 O83 2.105 . S
Sc67 O87 2.105 . S
Sc68 O69 2.025 . S
Sc68 O78 2.105 . S
Sc68 O80 2.105 . S
Sc68 O84 2.105 . S
Sc68 O86 2.105 . S
O69 Sc66 2.025 . S
O69 Sc67 2.025 . S
O69 Sc68 2.025 . S
C70 O76 1.268 . S
C70 O86 1.268 . S
C71 O77 1.268 . S
C71 O85 1.268 . S
C72 O78 1.268 . S
C72 O87 1.268 . S
C73 O79 1.268 . S
C73 O83 1.268 . S
C74 O80 1.268 . S
C74 O82 1.268 . S
C75 O81 1.268 . S
C75 O84 1.268 . S
O76 Sc66 2.105 . S
O76 C70 1.268 . S
O77 Sc67 2.105 . S
O77 C71 1.268 . S
O78 Sc68 2.105 . S
O78 C72 1.268 . S
O79 Sc66 2.105 . S
O79 C73 1.268 . S
O80 Sc68 2.105 . S
O80 C74 1.268 . S
O81 Sc67 2.105 . S
O81 C75 1.268 . S
O82 Sc66 2.105 . S
O82 C74 1.268 . S
O83 Sc67 2.105 . S
O83 C73 1.268 . S
O84 Sc68 2.105 . S
O84 C75 1.268 . S
O85 Sc66 2.105 . S
O85 C71 1.268 . S
O86 Sc68 2.105 . S
O86 C70 1.268 . S
O87 Sc67 2.105 . S
O87 C72 1.268 . S
Sc88 O91 2.025 . S
Sc88 O98 2.105 . S
Sc88 O101 2.105 . S
Sc88 O104 2.105 . S
Sc88 O107 2.105 . S
Sc89 O91 2.025 . S
Sc89 O99 2.105 . S
Sc89 O103 2.105 . S
Sc89 O105 2.105 . S
Sc89 O109 2.105 . S
Sc90 O91 2.025 . S
Sc90 O100 2.105 . S
Sc90 O102 2.105 . S
Sc90 O106 2.105 . S
Sc90 O108 2.105 . S
O91 Sc88 2.025 . S
O91 Sc89 2.025 . S
O91 Sc90 2.025 . S
C92 O98 1.268 . S
C92 O108 1.268 . S
C93 O99 1.268 . S
C93 O107 1.268 . S
C94 O100 1.268 . S
C94 O109 1.268 . S
C95 O101 1.270 1_554 S
C95 O105 1.269 1_554 S
C96 O102 1.268 . S
C96 O104 1.268 . S
C97 O103 1.268 . S
C97 O106 1.268 . S
O98 Sc88 2.105 . S
O98 C92 1.268 . S
O99 Sc89 2.105 . S
O99 C93 1.268 . S
O100 Sc90 2.105 . S
O100 C94 1.268 . S
O101 Sc88 2.105 . S
O101 C95 1.270 1_556 S
O102 Sc90 2.105 . S
O102 C96 1.268 . S
O103 Sc89 2.105 . S
O103 C97 1.268 . S
O104 Sc88 2.105 . S
O104 C96 1.268 . S
O105 Sc89 2.105 . S
O105 C95 1.269 1_556 S
O106 Sc90 2.105 . S
O106 C97 1.268 . S
O107 Sc88 2.105 . S
O107 C93 1.268 . S
O108 Sc90 2.105 . S
O108 C92 1.268 . S
O109 Sc89 2.105 . S
O109 C94 1.268 . S
Sc110 O113 2.025 . S
Sc110 O120 2.105 . S
Sc110 O123 2.105 . S
Sc110 O126 2.105 . S
Sc110 O129 2.105 . S
Sc111 O113 2.025 . S
Sc111 O121 2.105 . S
Sc111 O125 2.105 . S
Sc111 O127 2.105 . S
Sc111 O131 2.105 . S
Sc112 O113 2.025 . S
Sc112 O122 2.105 . S
Sc112 O124 2.105 . S
Sc112 O128 2.105 . S
Sc112 O130 2.105 . S
O113 Sc110 2.025 . S
O113 Sc111 2.025 . S
O113 Sc112 2.025 . S
C114 O120 1.268 . S
C114 O130 1.268 . S
C115 O121 1.268 . S
C115 O129 1.268 . S
C116 O122 1.268 . S
C116 O131 1.268 . S
C117 O123 1.268 . S
C117 O127 1.268 . S
C118 O124 1.268 . S
C118 O126 1.268 . S
C119 O125 1.268 . S
C119 O128 1.268 . S
O120 Sc110 2.105 . S
O120 C114 1.268 . S
O121 Sc111 2.105 . S
O121 C115 1.268 . S
O122 Sc112 2.105 . S
O122 C116 1.268 . S
O123 Sc110 2.105 . S
O123 C117 1.268 . S
O124 Sc112 2.105 . S
O124 C118 1.268 . S
O125 Sc111 2.105 . S
O125 C119 1.268 . S
O126 Sc110 2.105 . S
O126 C118 1.268 . S
O127 Sc111 2.105 . S
O127 C117 1.268 . S
O128 Sc112 2.105 . S
O128 C119 1.268 . S
O129 Sc110 2.105 . S
O129 C115 1.268 . S
O130 Sc112 2.105 . S
O130 C114 1.268 . S
O131 Sc111 2.105 . S
O131 C116 1.268 . S
Sc132 O135 2.025 . S
Sc132 O142 2.105 . S
Sc132 O145 2.105 . S
Sc132 O148 2.105 . S
Sc132 O151 2.105 . S
Sc133 O135 2.025 . S
Sc133 O143 2.105 . S
Sc133 O147 2.105 . S
Sc133 O149 2.105 . S
Sc133 O153 2.105 . S
Sc134 O135 2.025 . S
Sc134 O144 2.105 . S
Sc134 O146 2.105 . S
Sc134 O150 2.105 . S
Sc134 O152 2.105 . S
O135 Sc132 2.025 . S
O135 Sc133 2.025 . S
O135 Sc134 2.025 . S
C136 O142 1.268 . S
C136 O152 1.268 . S
C137 O143 1.268 . S
C137 O151 1.268 . S
C138 O144 1.270 1_556 S
C138 O153 1.269 1_556 S
C139 O145 1.268 . S
C139 O149 1.268 . S
C140 O146 1.268 . S
C140 O148 1.268 . S
C141 O147 1.268 . S
C141 O150 1.268 . S
O142 Sc132 2.105 . S
O142 C136 1.268 . S
O143 Sc133 2.105 . S
O143 C137 1.268 . S
O144 Sc134 2.105 . S
O144 C138 1.270 1_554 S
O145 Sc132 2.105 . S
O145 C139 1.268 . S
O146 Sc134 2.105 . S
O146 C140 1.268 . S
O147 Sc133 2.105 . S
O147 C141 1.268 . S
O148 Sc132 2.105 . S
O148 C140 1.268 . S
O149 Sc133 2.105 . S
O149 C139 1.268 . S
O150 Sc134 2.105 . S
O150 C141 1.268 . S
O151 Sc132 2.105 . S
O151 C137 1.268 . S
O152 Sc134 2.105 . S
O152 C136 1.268 . S
O153 Sc133 2.105 . S
O153 C138 1.269 1_554 S
Sc154 O157 2.025 . S
Sc154 O164 2.105 . S
Sc154 O167 2.105 . S
Sc154 O170 2.105 . S
Sc154 O173 2.105 . S
Sc155 O157 2.025 . S
Sc155 O165 2.105 . S
Sc155 O169 2.105 . S
Sc155 O171 2.105 . S
Sc155 O175 2.105 . S
Sc156 O157 2.025 . S
Sc156 O166 2.105 . S
Sc156 O168 2.105 . S
Sc156 O172 2.105 . S
Sc156 O174 2.105 . S
O157 Sc154 2.025 . S
O157 Sc155 2.025 . S
O157 Sc156 2.025 . S
C158 O164 1.268 . S
C158 O174 1.268 . S
C159 O165 1.268 . S
C159 O173 1.268 . S
C160 O166 1.268 . S
C160 O175 1.268 . S
C161 O167 1.268 . S
C161 O171 1.268 . S
C162 O168 1.268 . S
C162 O170 1.268 . S
C163 O169 1.268 . S
C163 O172 1.268 . S
O164 Sc154 2.105 . S
O164 C158 1.268 . S
O165 Sc155 2.105 . S
O165 C159 1.268 . S
O166 Sc156 2.105 . S
O166 C160 1.268 . S
O167 Sc154 2.105 . S
O167 C161 1.268 . S
O168 Sc156 2.105 . S
O168 C162 1.268 . S
O169 Sc155 2.105 . S
O169 C163 1.268 . S
O170 Sc154 2.105 . S
O170 C162 1.268 . S
O171 Sc155 2.105 . S
O171 C161 1.268 . S
O172 Sc156 2.105 . S
O172 C163 1.268 . S
O173 Sc154 2.105 . S
O173 C159 1.268 . S
O174 Sc156 2.105 . S
O174 C158 1.268 . S
O175 Sc155 2.105 . S
O175 C160 1.268 . S
C176 C177 1.391 . S
C176 C178 1.394 . S
C176 H192 0.931 . S
C177 C176 1.391 . S
C177 C181 1.376 . S
C178 C176 1.394 . S
C178 C179 1.369 . S
C178 C182 1.531 . S
C179 C178 1.369 . S
C179 C180 1.410 . S
C179 C187 1.503 1_455 S
C180 C179 1.410 . S
C180 C181 1.392 . S
C180 C183 1.511 1_455 S
C181 C177 1.376 . S
C181 C180 1.392 . S
C181 H193 0.929 . S
C182 C178 1.531 . S
C182 H194 0.960 . S
C182 H195 0.962 . S
C182 H196 0.960 . S
C183 C180 1.511 1_655 S
C183 H197 0.961 . S
C183 H198 0.961 . S
C183 H199 0.961 . S
C184 C185 1.370 . S
C184 C186 1.363 . S
C184 H200 0.931 . S
C185 C184 1.370 . S
C185 C189 1.408 . S
C186 C184 1.363 . S
C186 C187 1.370 . S
C186 C190 1.524 . S
C187 C179 1.503 1_655 S
C187 C186 1.370 . S
C187 C188 1.403 . S
C188 C187 1.403 . S
C188 C189 1.404 . S
C188 C191 1.539 . S
C189 C185 1.408 . S
C189 C188 1.404 . S
C189 H201 0.930 . S
C190 C186 1.524 . S
C190 H202 0.956 1_655 S
C190 H203 0.961 . S
C190 H204 0.961 . S
C191 C188 1.539 . S
C191 H205 0.958 . S
C191 H206 0.961 . S
C191 H207 0.960 . S
H192 C176 0.931 . S
H193 C181 0.929 . S
H194 C182 0.960 . S
H195 C182 0.962 . S
H196 C182 0.960 . S
H197 C183 0.961 . S
H198 C183 0.961 . S
H199 C183 0.961 . S
H200 C184 0.931 . S
H201 C189 0.930 . S
H202 C190 0.956 1_455 S
H203 C190 0.961 . S
H204 C190 0.961 . S
H205 C191 0.958 . S
H206 C191 0.961 . S
H207 C191 0.960 . S
C208 C209 1.391 . S
C208 C210 1.394 . S
C208 H224 0.931 . S
C209 C208 1.391 . S
C209 C213 1.376 . S
C210 C208 1.394 . S
C210 C211 1.369 . S
C210 C214 1.531 . S
C211 C210 1.369 . S
C211 C212 1.410 . S
C211 C219 1.503 . S
C212 C211 1.410 . S
C212 C213 1.392 . S
C212 C215 1.511 . S
C213 C209 1.376 . S
C213 C212 1.392 . S
C213 H225 0.929 . S
C214 C210 1.531 . S
C214 H226 0.960 . S
C214 H227 0.962 . S
C214 H228 0.960 . S
C215 C212 1.511 . S
C215 H229 0.961 . S
C215 H230 0.961 . S
C215 H231 0.961 . S
C216 C217 1.370 . S
C216 C218 1.363 . S
C216 H232 0.931 . S
C217 C216 1.370 . S
C217 C221 1.408 . S
C218 C216 1.363 . S
C218 C219 1.370 . S
C218 C222 1.524 . S
C219 C211 1.503 . S
C219 C218 1.370 . S
C219 C220 1.403 . S
C220 C219 1.403 . S
C220 C221 1.404 . S
C220 C223 1.539 . S
C221 C217 1.408 . S
C221 C220 1.404 . S
C221 H233 0.930 . S
C222 C218 1.524 . S
C222 H234 0.956 . S
C222 H235 0.961 . S
C222 H236 0.961 . S
C223 C220 1.539 . S
C223 H237 0.958 . S
C223 H238 0.961 . S
C223 H239 0.960 . S
H224 C208 0.931 . S
H225 C213 0.929 . S
H226 C214 0.960 . S
H227 C214 0.962 . S
H228 C214 0.960 . S
H229 C215 0.961 . S
H230 C215 0.961 . S
H231 C215 0.961 . S
H232 C216 0.931 . S
H233 C221 0.930 . S
H234 C222 0.956 . S
H235 C222 0.961 . S
H236 C222 0.961 . S
H237 C223 0.958 . S
H238 C223 0.961 . S
H239 C223 0.960 . S
C240 C241 1.391 . S
C240 C242 1.394 . S
C240 H256 0.931 . S
C241 C240 1.391 . S
C241 C245 1.376 . S
C242 C240 1.394 . S
C242 C243 1.369 . S
C242 C246 1.531 1_655 S
C243 C242 1.369 . S
C243 C244 1.410 . S
C243 C251 1.503 1_655 S
C244 C243 1.410 . S
C244 C245 1.392 . S
C244 C247 1.511 . S
C245 C241 1.376 . S
C245 C244 1.392 . S
C245 H257 0.929 . S
C246 C242 1.531 1_455 S
C246 H258 0.960 . S
C246 H259 0.962 . S
C246 H260 0.960 1_455 S
C247 C244 1.511 . S
C247 H261 0.961 . S
C247 H262 0.961 . S
C247 H263 0.961 . S
C248 C249 1.370 . S
C248 C250 1.363 . S
C248 H264 0.931 . S
C249 C248 1.370 . S
C249 C253 1.408 . S
C250 C248 1.363 . S
C250 C251 1.370 . S
C250 C254 1.524 . S
C251 C243 1.503 1_455 S
C251 C250 1.370 . S
C251 C252 1.403 . S
C252 C251 1.403 . S
C252 C253 1.404 . S
C252 C255 1.539 1_455 S
C253 C249 1.408 . S
C253 C252 1.404 . S
C253 H265 0.930 . S
C254 C250 1.524 . S
C254 H266 0.956 . S
C254 H267 0.961 . S
C254 H268 0.961 . S
C255 C252 1.539 1_655 S
C255 H269 0.958 . S
C255 H270 0.961 . S
C255 H271 0.960 . S
H256 C240 0.931 . S
H257 C245 0.929 . S
H258 C246 0.960 . S
H259 C246 0.962 . S
H260 C246 0.960 1_655 S
H261 C247 0.961 . S
H262 C247 0.961 . S
H263 C247 0.961 . S
H264 C248 0.931 . S
H265 C253 0.930 . S
H266 C254 0.956 . S
H267 C254 0.961 . S
H268 C254 0.961 . S
H269 C255 0.958 . S
H270 C255 0.961 . S
H271 C255 0.960 . S
C272 C273 1.391 . S
C272 C274 1.394 . S
C272 H288 0.931 . S
C273 C272 1.391 . S
C273 C277 1.376 . S
C274 C272 1.394 . S
C274 C275 1.369 . S
C274 C278 1.531 . S
C275 C274 1.369 . S
C275 C276 1.410 . S
C275 C283 1.503 . S
C276 C275 1.410 . S
C276 C277 1.392 . S
C276 C279 1.511 . S
C277 C273 1.376 . S
C277 C276 1.392 . S
C277 H289 0.929 . S
C278 C274 1.531 . S
C278 H290 0.960 . S
C278 H291 0.962 . S
C278 H292 0.960 . S
C279 C276 1.511 . S
C279 H293 0.961 . S
C279 H294 0.961 . S
C279 H295 0.961 . S
C280 C281 1.370 . S
C280 C282 1.363 . S
C280 H296 0.931 . S
C281 C280 1.370 . S
C281 C285 1.408 . S
C282 C280 1.363 . S
C282 C283 1.370 . S
C282 C286 1.524 . S
C283 C275 1.503 . S
C283 C282 1.370 . S
C283 C284 1.403 . S
C284 C283 1.403 . S
C284 C285 1.404 . S
C284 C287 1.539 . S
C285 C281 1.408 . S
C285 C284 1.404 . S
C285 H297 0.930 . S
C286 C282 1.524 . S
C286 H298 0.956 . S
C286 H299 0.961 . S
C286 H300 0.961 . S
C287 C284 1.539 . S
C287 H301 0.958 . S
C287 H302 0.961 . S
C287 H303 0.960 . S
H288 C272 0.931 . S
H289 C277 0.929 . S
H290 C278 0.960 . S
H291 C278 0.962 . S
H292 C278 0.960 . S
H293 C279 0.961 . S
H294 C279 0.961 . S
H295 C279 0.961 . S
H296 C280 0.931 . S
H297 C285 0.930 . S
H298 C286 0.956 . S
H299 C286 0.961 . S
H300 C286 0.961 . S
H301 C287 0.958 . S
H302 C287 0.961 . S
H303 C287 0.960 . S
C304 C305 1.391 . S
C304 C306 1.406 . S
C304 H320 0.931 . S
C305 C304 1.391 . S
C305 C309 1.376 . S
C306 C304 1.406 . S
C306 C307 1.371 1_554 S
C306 C310 1.516 1_454 S
C307 C306 1.371 1_556 S
C307 C308 1.410 1_556 S
C307 C315 1.503 1_445 S
C308 C307 1.410 1_554 S
C308 C309 1.392 . S
C308 C311 1.511 1_545 S
C309 C305 1.376 . S
C309 C308 1.392 . S
C309 H321 0.929 . S
C310 C306 1.516 1_656 S
C310 H322 0.960 . S
C310 H323 0.962 1_556 S
C310 H324 0.960 . S
C311 C308 1.511 1_565 S
C311 H325 0.961 . S
C311 H326 0.961 . S
C311 H327 0.961 1_554 S
C312 C313 1.370 1_554 S
C312 C314 1.363 . S
C312 H328 0.931 . S
C313 C312 1.370 1_556 S
C313 C317 1.408 . S
C314 C312 1.363 . S
C314 C315 1.370 1_554 S
C314 C318 1.524 . S
C315 C307 1.503 1_665 S
C315 C314 1.370 1_556 S
C315 C316 1.403 . S
C316 C315 1.403 . S
C316 C317 1.404 . S
C316 C319 1.539 1_655 S
C317 C313 1.408 . S
C317 C316 1.404 . S
C317 H329 0.930 . S
C318 C314 1.524 . S
C318 H330 0.956 1_565 S
C318 H331 0.961 1_655 S
C318 H332 0.961 . S
C319 C316 1.539 1_455 S
C319 H333 0.958 1_465 S
C319 H334 0.961 . S
C319 H335 0.960 1_565 S
H320 C304 0.931 . S
H321 C309 0.929 . S
H322 C310 0.960 . S
H323 C310 0.962 1_554 S
H324 C310 0.960 . S
H325 C311 0.961 . S
H326 C311 0.961 . S
H327 C311 0.961 1_556 S
H328 C312 0.931 . S
H329 C317 0.930 . S
H330 C318 0.956 1_545 S
H331 C318 0.961 1_455 S
H332 C318 0.961 . S
H333 C319 0.958 1_645 S
H334 C319 0.961 . S
H335 C319 0.960 1_545 S
C336 C337 1.391 . S
C336 C338 1.394 . S
C336 H352 0.931 . S
C337 C336 1.391 . S
C337 C341 1.376 . S
C338 C336 1.394 . S
C338 C339 1.369 . S
C338 C342 1.531 . S
C339 C338 1.369 . S
C339 C340 1.410 . S
C339 C347 1.503 . S
C340 C339 1.410 . S
C340 C341 1.392 . S
C340 C343 1.511 . S
C341 C337 1.376 . S
C341 C340 1.392 . S
C341 H353 0.929 . S
C342 C338 1.531 . S
C342 H354 0.960 . S
C342 H355 0.962 . S
C342 H356 0.960 . S
C343 C340 1.511 . S
C343 H357 0.961 . S
C343 H358 0.961 . S
C343 H359 0.961 . S
C344 C345 1.370 . S
C344 C346 1.363 . S
C344 H360 0.931 . S
C345 C344 1.370 . S
C345 C349 1.408 . S
C346 C344 1.363 . S
C346 C347 1.370 . S
C346 C350 1.524 . S
C347 C339 1.503 . S
C347 C346 1.370 . S
C347 C348 1.403 . S
C348 C347 1.403 . S
C348 C349 1.404 . S
C348 C351 1.539 . S
C349 C345 1.408 . S
C349 C348 1.404 . S
C349 H361 0.930 . S
C350 C346 1.524 . S
C350 H362 0.956 . S
C350 H363 0.961 . S
C350 H364 0.961 . S
C351 C348 1.539 . S
C351 H365 0.958 . S
C351 H366 0.961 . S
C351 H367 0.960 . S
H352 C336 0.931 . S
H353 C341 0.929 . S
H354 C342 0.960 . S
H355 C342 0.962 . S
H356 C342 0.960 . S
H357 C343 0.961 . S
H358 C343 0.961 . S
H359 C343 0.961 . S
H360 C344 0.931 . S
H361 C349 0.930 . S
H362 C350 0.956 . S
H363 C350 0.961 . S
H364 C350 0.961 . S
H365 C351 0.958 . S
H366 C351 0.961 . S
H367 C351 0.960 . S
C368 C369 1.391 . S
C368 C370 1.394 . S
C368 H384 0.931 . S
C369 C368 1.391 . S
C369 C373 1.376 . S
C370 C368 1.394 . S
C370 C371 1.369 . S
C370 C374 1.531 1_554 S
C371 C370 1.369 . S
C371 C372 1.410 . S
C371 C379 1.503 . S
C372 C371 1.410 . S
C372 C373 1.392 . S
C372 C375 1.511 . S
C373 C369 1.376 . S
C373 C372 1.392 . S
C373 H385 0.929 . S
C374 C370 1.531 1_556 S
C374 H386 0.960 1_556 S
C374 H387 0.962 . S
C374 H388 0.960 1_556 S
C375 C372 1.511 . S
C375 H389 0.961 . S
C375 H390 0.961 . S
C375 H391 0.961 . S
C376 C377 1.370 . S
C376 C378 1.363 . S
C376 H392 0.931 . S
C377 C376 1.370 . S
C377 C381 1.408 1_556 S
C378 C376 1.363 . S
C378 C379 1.373 1_556 S
C378 C382 1.524 . S
C379 C371 1.503 . S
C379 C378 1.373 1_554 S
C379 C380 1.401 . S
C380 C379 1.401 . S
C380 C381 1.404 . S
C380 C383 1.539 . S
C381 C377 1.408 1_554 S
C381 C380 1.404 . S
C381 H393 0.930 . S
C382 C378 1.524 . S
C382 H394 0.956 . S
C382 H395 0.961 . S
C382 H396 0.961 . S
C383 C380 1.539 . S
C383 H397 0.958 . S
C383 H398 0.961 . S
C383 H399 0.960 . S
H384 C368 0.931 . S
H385 C373 0.929 . S
H386 C374 0.960 1_554 S
H387 C374 0.962 . S
H388 C374 0.960 1_554 S
H389 C375 0.961 . S
H390 C375 0.961 . S
H391 C375 0.961 . S
H392 C376 0.931 . S
H393 C381 0.930 . S
H394 C382 0.956 . S
H395 C382 0.961 . S
H396 C382 0.961 . S
H397 C383 0.958 . S
H398 C383 0.961 . S
H399 C383 0.960 . S
C400 C401 1.391 . S
C400 C402 1.394 . S
C400 H416 0.931 . S
C401 C400 1.391 . S
C401 C405 1.376 . S
C402 C400 1.394 . S
C402 C403 1.369 . S
C402 C406 1.531 1_545 S
C403 C402 1.369 . S
C403 C404 1.410 1_655 S
C403 C411 1.503 1_645 S
C404 C403 1.410 1_455 S
C404 C405 1.392 1_455 S
C404 C407 1.511 . S
C405 C401 1.376 . S
C405 C404 1.392 1_655 S
C405 H417 0.929 . S
C406 C402 1.531 1_565 S
C406 H418 0.960 . S
C406 H419 0.962 . S
C406 H420 0.960 . S
C407 C404 1.511 . S
C407 H421 0.961 . S
C407 H422 0.961 . S
C407 H423 0.961 . S
C408 C409 1.370 . S
C408 C410 1.363 . S
C408 H424 0.931 . S
C409 C408 1.370 . S
C409 C413 1.408 . S
C410 C408 1.363 . S
C410 C411 1.370 . S
C410 C414 1.524 1_465 S
C411 C403 1.503 1_465 S
C411 C410 1.370 . S
C411 C412 1.403 . S
C412 C411 1.403 . S
C412 C413 1.404 . S
C412 C415 1.539 . S
C413 C409 1.408 . S
C413 C412 1.404 . S
C413 H425 0.930 . S
C414 C410 1.524 1_645 S
C414 H426 0.956 1_545 S
C414 H427 0.961 1_655 S
C414 H428 0.961 1_645 S
C415 C412 1.539 . S
C415 H429 0.958 . S
C415 H430 0.961 . S
C415 H431 0.960 . S
H416 C400 0.931 . S
H417 C405 0.929 . S
H418 C406 0.960 . S
H419 C406 0.962 . S
H420 C406 0.960 . S
H421 C407 0.961 . S
H422 C407 0.961 . S
H423 C407 0.961 . S
H424 C408 0.931 . S
H425 C413 0.930 . S
H426 C414 0.956 1_565 S
H427 C414 0.961 1_455 S
H428 C414 0.961 1_465 S
H429 C415 0.958 . S
H430 C415 0.961 . S
H431 C415 0.960 . S
C432 C433 1.391 . S
C432 C434 1.394 . S
C432 H448 0.931 . S
C433 C432 1.391 . S
C433 C437 1.376 . S
C434 C432 1.394 . S
C434 C435 1.369 . S
C434 C438 1.531 . S
C435 C434 1.369 . S
C435 C436 1.410 . S
C435 C443 1.504 . S
C436 C435 1.410 . S
C436 C437 1.392 . S
C436 C439 1.511 . S
C437 C433 1.376 . S
C437 C436 1.392 . S
C437 H449 0.929 . S
C438 C434 1.531 . S
C438 H450 0.960 . S
C438 H451 0.962 . S
C438 H452 0.960 . S
C439 C436 1.511 . S
C439 H453 0.961 . S
C439 H454 0.961 1_565 S
C439 H455 0.961 1_565 S
C440 C441 1.370 . S
C440 C442 1.363 . S
C440 H456 0.931 . S
C441 C440 1.370 . S
C441 C445 1.408 . S
C442 C440 1.363 . S
C442 C443 1.370 1_545 S
C442 C446 1.524 1_545 S
C443 C435 1.504 . S
C443 C442 1.370 1_565 S
C443 C444 1.402 1_565 S
C444 C443 1.402 1_545 S
C444 C445 1.404 . S
C444 C447 1.539 . S
C445 C441 1.408 . S
C445 C444 1.404 . S
C445 H457 0.930 . S
C446 C442 1.524 1_565 S
C446 H458 0.956 . S
C446 H459 0.961 . S
C446 H460 0.961 . S
C447 C444 1.539 . S
C447 H461 0.958 . S
C447 H462 0.961 . S
C447 H463 0.960 . S
H448 C432 0.931 . S
H449 C437 0.929 . S
H450 C438 0.960 . S
H451 C438 0.962 . S
H452 C438 0.960 . S
H453 C439 0.961 . S
H454 C439 0.961 1_545 S
H455 C439 0.961 1_545 S
H456 C440 0.931 . S
H457 C445 0.930 . S
H458 C446 0.956 . S
H459 C446 0.961 . S
H460 C446 0.961 . S
H461 C447 0.958 . S
H462 C447 0.961 . S
H463 C447 0.960 . S
C464 C465 1.391 . S
C464 C466 1.394 . S
C464 H480 0.931 . S
C465 C464 1.391 . S
C465 C469 1.376 . S
C466 C464 1.394 . S
C466 C467 1.369 . S
C466 C470 1.531 . S
C467 C466 1.369 . S
C467 C468 1.410 . S
C467 C475 1.503 . S
C468 C467 1.410 . S
C468 C469 1.392 . S
C468 C471 1.511 . S
C469 C465 1.376 . S
C469 C468 1.392 . S
C469 H481 0.929 . S
C470 C466 1.531 . S
C470 H482 0.960 . S
C470 H483 0.962 . S
C470 H484 0.960 . S
C471 C468 1.511 . S
C471 H485 0.961 . S
C471 H486 0.961 . S
C471 H487 0.961 . S
C472 C473 1.370 . S
C472 C474 1.363 . S
C472 H488 0.931 . S
C473 C472 1.370 . S
C473 C477 1.408 . S
C474 C472 1.363 . S
C474 C475 1.370 . S
C474 C478 1.524 . S
C475 C467 1.503 . S
C475 C474 1.370 . S
C475 C476 1.403 . S
C476 C475 1.403 . S
C476 C477 1.404 . S
C476 C479 1.539 . S
C477 C473 1.408 . S
C477 C476 1.404 . S
C477 H489 0.930 . S
C478 C474 1.524 . S
C478 H490 0.956 . S
C478 H491 0.961 . S
C478 H492 0.961 . S
C479 C476 1.539 . S
C479 H493 0.958 . S
C479 H494 0.961 . S
C479 H495 0.960 . S
H480 C464 0.931 . S
H481 C469 0.929 . S
H482 C470 0.960 . S
H483 C470 0.962 . S
H484 C470 0.960 . S
H485 C471 0.961 . S
H486 C471 0.961 . S
H487 C471 0.961 . S
H488 C472 0.931 . S
H489 C477 0.930 . S
H490 C478 0.956 . S
H491 C478 0.961 . S
H492 C478 0.961 . S
H493 C479 0.958 . S
H494 C479 0.961 . S
H495 C479 0.960 . S
C496 C497 1.391 . S
C496 C498 1.394 . S
C496 H512 0.931 . S
C497 C496 1.391 . S
C497 C501 1.376 . S
C498 C496 1.394 . S
C498 C499 1.369 . S
C498 C502 1.531 . S
C499 C498 1.369 . S
C499 C500 1.410 . S
C499 C507 1.503 . S
C500 C499 1.410 . S
C500 C501 1.392 . S
C500 C503 1.511 . S
C501 C497 1.376 . S
C501 C500 1.392 . S
C501 H513 0.929 . S
C502 C498 1.531 . S
C502 H514 0.960 . S
C502 H515 0.962 . S
C502 H516 0.960 . S
C503 C500 1.511 . S
C503 H517 0.961 . S
C503 H518 0.961 . S
C503 H519 0.961 . S
C504 C505 1.370 . S
C504 C506 1.363 . S
C504 H520 0.931 . S
C505 C504 1.370 . S
C505 C509 1.408 . S
C506 C504 1.363 . S
C506 C507 1.370 . S
C506 C510 1.524 . S
C507 C499 1.503 . S
C507 C506 1.370 . S
C507 C508 1.403 . S
C508 C507 1.403 . S
C508 C509 1.404 . S
C508 C511 1.539 . S
C509 C505 1.408 . S
C509 C508 1.404 . S
C509 H521 0.930 . S
C510 C506 1.524 . S
C510 H522 0.956 . S
C510 H523 0.961 . S
C510 H524 0.961 . S
C511 C508 1.539 . S
C511 H525 0.958 . S
C511 H526 0.961 1_556 S
C511 H527 0.960 . S
H512 C496 0.931 . S
H513 C501 0.929 . S
H514 C502 0.960 . S
H515 C502 0.962 . S
H516 C502 0.960 . S
H517 C503 0.961 . S
H518 C503 0.961 . S
H519 C503 0.961 . S
H520 C504 0.931 . S
H521 C509 0.930 . S
H522 C510 0.956 . S
H523 C510 0.961 . S
H524 C510 0.961 . S
H525 C511 0.958 . S
H526 C511 0.961 1_554 S
H527 C511 0.960 . S
C528 C529 1.391 . S
C528 C530 1.394 . S
C528 H544 0.931 . S
C529 C528 1.391 . S
C529 C533 1.376 . S
C530 C528 1.394 . S
C530 C531 1.369 . S
C530 C534 1.531 1_545 S
C531 C530 1.369 . S
C531 C532 1.409 . S
C531 C539 1.504 1_545 S
C532 C531 1.409 . S
C532 C533 1.392 . S
C532 C535 1.511 . S
C533 C529 1.376 . S
C533 C532 1.392 . S
C533 H545 0.929 . S
C534 C530 1.531 1_565 S
C534 H546 0.960 . S
C534 H547 0.962 . S
C534 H548 0.960 . S
C535 C532 1.511 . S
C535 H549 0.961 . S
C535 H550 0.961 . S
C535 H551 0.961 . S
C536 C537 1.370 . S
C536 C538 1.363 . S
C536 H552 0.931 . S
C537 C536 1.370 . S
C537 C541 1.408 . S
C538 C536 1.363 . S
C538 C539 1.370 . S
C538 C542 1.524 . S
C539 C531 1.504 1_565 S
C539 C538 1.370 . S
C539 C540 1.403 . S
C540 C539 1.403 . S
C540 C541 1.404 . S
C540 C543 1.539 . S
C541 C537 1.408 . S
C541 C540 1.404 . S
C541 H553 0.930 . S
C542 C538 1.524 . S
C542 H554 0.956 . S
C542 H555 0.961 . S
C542 H556 0.961 . S
C543 C540 1.539 . S
C543 H557 0.958 . S
C543 H558 0.961 . S
C543 H559 0.960 1_565 S
H544 C528 0.931 . S
H545 C533 0.929 . S
H546 C534 0.960 . S
H547 C534 0.962 . S
H548 C534 0.960 . S
H549 C535 0.961 . S
H550 C535 0.961 . S
H551 C535 0.961 . S
H552 C536 0.931 . S
H553 C541 0.930 . S
H554 C542 0.956 . S
H555 C542 0.961 . S
H556 C542 0.961 . S
H557 C543 0.958 . S
H558 C543 0.961 . S
H559 C543 0.960 1_545 S
C560 C561 1.391 . S
C560 C562 1.394 . S
C560 H576 0.931 . S
C561 C560 1.391 . S
C561 C565 1.376 . S
C562 C560 1.394 . S
C562 C563 1.369 . S
C562 C566 1.531 . S
C563 C562 1.369 . S
C563 C564 1.410 . S
C563 C571 1.503 . S
C564 C563 1.410 . S
C564 C565 1.392 . S
C564 C567 1.511 . S
C565 C561 1.376 . S
C565 C564 1.392 . S
C565 H577 0.929 . S
C566 C562 1.531 . S
C566 H578 0.960 . S
C566 H579 0.963 1_545 S
C566 H580 0.960 . S
C567 C564 1.511 . S
C567 H581 0.961 . S
C567 H582 0.961 . S
C567 H583 0.961 . S
C568 C569 1.370 . S
C568 C570 1.363 . S
C568 H584 0.931 . S
C569 C568 1.370 . S
C569 C573 1.408 . S
C570 C568 1.363 . S
C570 C571 1.370 1_565 S
C570 C574 1.524 . S
C571 C563 1.503 . S
C571 C570 1.370 1_545 S
C571 C572 1.403 1_545 S
C572 C571 1.403 1_565 S
C572 C573 1.404 . S
C572 C575 1.539 1_565 S
C573 C569 1.408 . S
C573 C572 1.404 . S
C573 H585 0.930 . S
C574 C570 1.524 . S
C574 H586 0.956 . S
C574 H587 0.961 1_565 S
C574 H588 0.961 . S
C575 C572 1.539 1_545 S
C575 H589 0.958 . S
C575 H590 0.961 . S
C575 H591 0.960 . S
H576 C560 0.931 . S
H577 C565 0.929 . S
H578 C566 0.960 . S
H579 C566 0.963 1_565 S
H580 C566 0.960 . S
H581 C567 0.961 . S
H582 C567 0.961 . S
H583 C567 0.961 . S
H584 C568 0.931 . S
H585 C573 0.930 . S
H586 C574 0.956 . S
H587 C574 0.961 1_545 S
H588 C574 0.961 . S
H589 C575 0.958 . S
H590 C575 0.961 . S
H591 C575 0.960 . S
C592 C593 1.391 . S
C592 C594 1.394 . S
C592 H608 0.931 . S
C593 C592 1.391 . S
C593 C597 1.376 . S
C594 C592 1.394 . S
C594 C595 1.369 . S
C594 C598 1.531 . S
C595 C594 1.369 . S
C595 C596 1.410 . S
C595 C603 1.503 . S
C596 C595 1.410 . S
C596 C597 1.392 . S
C596 C599 1.511 . S
C597 C593 1.376 . S
C597 C596 1.392 . S
C597 H609 0.929 . S
C598 C594 1.531 . S
C598 H610 0.960 . S
C598 H611 0.962 . S
C598 H612 0.960 . S
C599 C596 1.511 . S
C599 H613 0.961 . S
C599 H614 0.961 . S
C599 H615 0.961 . S
C600 C601 1.370 . S
C600 C602 1.363 . S
C600 H616 0.931 . S
C601 C600 1.370 . S
C601 C605 1.408 . S
C602 C600 1.363 . S
C602 C603 1.370 . S
C602 C606 1.524 . S
C603 C595 1.503 . S
C603 C602 1.370 . S
C603 C604 1.403 . S
C604 C603 1.403 . S
C604 C605 1.404 . S
C604 C607 1.539 . S
C605 C601 1.408 . S
C605 C604 1.404 . S
C605 H617 0.930 . S
C606 C602 1.524 . S
C606 H618 0.956 . S
C606 H619 0.961 . S
C606 H620 0.961 . S
C607 C604 1.539 . S
C607 H621 0.958 . S
C607 H622 0.961 . S
C607 H623 0.960 . S
H608 C592 0.931 . S
H609 C597 0.929 . S
H610 C598 0.960 . S
H611 C598 0.962 . S
H612 C598 0.960 . S
H613 C599 0.961 . S
H614 C599 0.961 . S
H615 C599 0.961 . S
H616 C600 0.931 . S
H617 C605 0.930 . S
H618 C606 0.956 . S
H619 C606 0.961 . S
H620 C606 0.961 . S
H621 C607 0.958 . S
H622 C607 0.961 . S
H623 C607 0.960 . S
C624 C625 1.391 . S
C624 C626 1.394 . S
C624 H640 0.931 . S
C625 C624 1.391 . S
C625 C629 1.376 . S
C626 C624 1.394 . S
C626 C627 1.369 . S
C626 C630 1.531 . S
C627 C626 1.369 . S
C627 C628 1.410 . S
C627 C635 1.503 . S
C628 C627 1.410 . S
C628 C629 1.392 . S
C628 C631 1.511 . S
C629 C625 1.376 . S
C629 C628 1.392 . S
C629 H641 0.929 . S
C630 C626 1.531 . S
C630 H642 0.960 . S
C630 H643 0.962 . S
C630 H644 0.943 1_554 S
C631 C628 1.511 . S
C631 H645 0.961 . S
C631 H646 0.961 . S
C631 H647 0.961 . S
C632 C633 1.370 . S
C632 C634 1.363 . S
C632 H648 0.931 . S
C633 C632 1.370 . S
C633 C637 1.408 . S
C634 C632 1.363 . S
C634 C635 1.370 . S
C634 C638 1.524 . S
C635 C627 1.503 . S
C635 C634 1.370 . S
C635 C636 1.403 . S
C636 C635 1.403 . S
C636 C637 1.404 . S
C636 C639 1.539 . S
C637 C633 1.408 . S
C637 C636 1.404 . S
C637 H649 0.930 . S
C638 C634 1.524 . S
C638 H650 0.956 . S
C638 H651 0.961 . S
C638 H652 0.961 . S
C639 C636 1.539 . S
C639 H653 0.958 . S
C639 H654 0.961 . S
C639 H655 0.960 . S
H640 C624 0.931 . S
H641 C629 0.929 . S
H642 C630 0.960 . S
H643 C630 0.962 . S
H644 C630 0.943 1_556 S
H645 C631 0.961 . S
H646 C631 0.961 . S
H647 C631 0.961 . S
H648 C632 0.931 . S
H649 C637 0.930 . S
H650 C638 0.956 . S
H651 C638 0.961 . S
H652 C638 0.961 . S
H653 C639 0.958 . S
H654 C639 0.961 . S
H655 C639 0.960 . S
C656 C657 1.391 . S
C656 C658 1.394 . S
C656 H672 0.931 . S
C657 C656 1.391 . S
C657 C661 1.376 . S
C658 C656 1.394 . S
C658 C659 1.369 . S
C658 C662 1.531 1_565 S
C659 C658 1.369 . S
C659 C660 1.410 . S
C659 C667 1.503 1_565 S
C660 C659 1.410 . S
C660 C661 1.392 . S
C660 C663 1.511 . S
C661 C657 1.376 . S
C661 C660 1.392 . S
C661 H673 0.929 . S
C662 C658 1.531 1_545 S
C662 H674 0.960 . S
C662 H675 0.962 . S
C662 H676 0.960 . S
C663 C660 1.511 . S
C663 H677 0.961 . S
C663 H678 0.961 1_565 S
C663 H679 0.961 . S
C664 C665 1.370 . S
C664 C666 1.363 . S
C664 H680 0.931 . S
C665 C664 1.370 . S
C665 C669 1.408 . S
C666 C664 1.363 . S
C666 C667 1.370 . S
C666 C670 1.524 . S
C667 C659 1.503 1_545 S
C667 C666 1.370 . S
C667 C668 1.403 . S
C668 C667 1.403 . S
C668 C669 1.404 . S
C668 C671 1.539 . S
C669 C665 1.408 . S
C669 C668 1.404 . S
C669 H681 0.930 . S
C670 C666 1.524 . S
C670 H682 0.956 . S
C670 H683 0.961 . S
C670 H684 0.961 . S
C671 C668 1.539 . S
C671 H685 0.958 . S
C671 H686 0.961 . S
C671 H687 0.960 1_545 S
H672 C656 0.931 . S
H673 C661 0.929 . S
H674 C662 0.960 . S
H675 C662 0.962 . S
H676 C662 0.960 . S
H677 C663 0.961 . S
H678 C663 0.961 1_545 S
H679 C663 0.961 . S
H680 C664 0.931 . S
H681 C669 0.930 . S
H682 C670 0.956 . S
H683 C670 0.961 . S
H684 C670 0.961 . S
H685 C671 0.958 . S
H686 C671 0.961 . S
H687 C671 0.960 1_565 S
C688 C689 1.391 . S
C688 C690 1.394 . S
C688 H704 0.931 . S
C689 C688 1.391 . S
C689 C693 1.376 . S
C690 C688 1.394 . S
C690 C691 1.369 . S
C690 C694 1.531 . S
C691 C690 1.369 . S
C691 C692 1.410 . S
C691 C699 1.503 . S
C692 C691 1.410 . S
C692 C693 1.392 . S
C692 C695 1.511 . S
C693 C689 1.376 . S
C693 C692 1.392 . S
C693 H705 0.929 . S
C694 C690 1.531 . S
C694 H706 0.960 . S
C694 H707 0.962 . S
C694 H708 0.960 . S
C695 C692 1.511 . S
C695 H709 0.961 . S
C695 H710 0.961 . S
C695 H711 0.961 . S
C696 C697 1.370 . S
C696 C698 1.363 . S
C696 H712 0.931 . S
C697 C696 1.370 . S
C697 C701 1.408 . S
C698 C696 1.363 . S
C698 C699 1.370 . S
C698 C702 1.524 . S
C699 C691 1.503 . S
C699 C698 1.370 . S
C699 C700 1.403 . S
C700 C699 1.403 . S
C700 C701 1.404 . S
C700 C703 1.539 . S
C701 C697 1.408 . S
C701 C700 1.404 . S
C701 H713 0.930 . S
C702 C698 1.524 . S
C702 H714 0.956 . S
C702 H715 0.961 . S
C702 H716 0.961 . S
C703 C700 1.539 . S
C703 H717 0.958 . S
C703 H718 0.961 . S
C703 H719 0.960 . S
H704 C688 0.931 . S
H705 C693 0.929 . S
H706 C694 0.960 . S
H707 C694 0.962 . S
H708 C694 0.960 . S
H709 C695 0.961 . S
H710 C695 0.961 . S
H711 C695 0.961 . S
H712 C696 0.931 . S
H713 C701 0.930 . S
H714 C702 0.956 . S
H715 C702 0.961 . S
H716 C702 0.961 . S
H717 C703 0.958 . S
H718 C703 0.961 . S
H719 C703 0.960 . S
C720 C721 1.391 . S
C720 C722 1.394 . S
C720 H736 0.931 . S
C721 C720 1.391 . S
C721 C725 1.376 . S
C722 C720 1.394 . S
C722 C723 1.369 . S
C722 C726 1.531 . S
C723 C722 1.369 . S
C723 C724 1.410 . S
C723 C731 1.503 . S
C724 C723 1.410 . S
C724 C725 1.392 . S
C724 C727 1.511 . S
C725 C721 1.376 . S
C725 C724 1.392 . S
C725 H737 0.929 . S
C726 C722 1.531 . S
C726 H738 0.960 . S
C726 H739 0.962 . S
C726 H740 0.960 . S
C727 C724 1.511 . S
C727 H741 0.961 . S
C727 H742 0.961 . S
C727 H743 0.961 . S
C728 C729 1.370 . S
C728 C730 1.363 . S
C728 H744 0.931 . S
C729 C728 1.370 . S
C729 C733 1.408 . S
C730 C728 1.363 . S
C730 C731 1.370 . S
C730 C734 1.524 . S
C731 C723 1.503 . S
C731 C730 1.370 . S
C731 C732 1.403 . S
C732 C731 1.403 . S
C732 C733 1.404 . S
C732 C735 1.539 . S
C733 C729 1.408 . S
C733 C732 1.404 . S
C733 H745 0.930 . S
C734 C730 1.524 . S
C734 H746 0.956 . S
C734 H747 0.961 . S
C734 H748 0.961 . S
C735 C732 1.539 . S
C735 H749 0.958 . S
C735 H750 0.961 . S
C735 H751 0.960 . S
H736 C720 0.931 . S
H737 C725 0.929 . S
H738 C726 0.960 . S
H739 C726 0.962 . S
H740 C726 0.960 . S
H741 C727 0.961 . S
H742 C727 0.961 . S
H743 C727 0.961 . S
H744 C728 0.931 . S
H745 C733 0.930 . S
H746 C734 0.956 . S
H747 C734 0.961 . S
H748 C734 0.961 . S
H749 C735 0.958 . S
H750 C735 0.961 . S
H751 C735 0.960 . S
C752 C753 1.391 . S
C752 C754 1.394 . S
C752 H768 0.931 . S
C753 C752 1.391 . S
C753 C757 1.376 . S
C754 C752 1.394 . S
C754 C755 1.369 . S
C754 C758 1.531 . S
C755 C754 1.369 . S
C755 C756 1.410 . S
C755 C763 1.503 . S
C756 C755 1.410 . S
C756 C757 1.392 . S
C756 C759 1.511 . S
C757 C753 1.376 . S
C757 C756 1.392 . S
C757 H769 0.929 . S
C758 C754 1.531 . S
C758 H770 0.960 . S
C758 H771 0.962 . S
C758 H772 0.960 . S
C759 C756 1.511 . S
C759 H773 0.961 . S
C759 H774 0.961 . S
C759 H775 0.961 . S
C760 C761 1.370 . S
C760 C762 1.363 . S
C760 H776 0.931 . S
C761 C760 1.370 . S
C761 C765 1.408 . S
C762 C760 1.363 . S
C762 C763 1.370 . S
C762 C766 1.524 . S
C763 C755 1.503 . S
C763 C762 1.370 . S
C763 C764 1.403 . S
C764 C763 1.403 . S
C764 C765 1.404 . S
C764 C767 1.539 . S
C765 C761 1.408 . S
C765 C764 1.404 . S
C765 H777 0.930 . S
C766 C762 1.524 . S
C766 H778 0.956 . S
C766 H779 0.961 . S
C766 H780 0.961 . S
C767 C764 1.539 . S
C767 H781 0.958 . S
C767 H782 0.961 . S
C767 H783 0.960 . S
H768 C752 0.931 . S
H769 C757 0.929 . S
H770 C758 0.960 . S
H771 C758 0.962 . S
H772 C758 0.960 . S
H773 C759 0.961 . S
H774 C759 0.961 . S
H775 C759 0.961 . S
H776 C760 0.931 . S
H777 C765 0.930 . S
H778 C766 0.956 . S
H779 C766 0.961 . S
H780 C766 0.961 . S
H781 C767 0.958 . S
H782 C767 0.961 . S
H783 C767 0.960 . S
C784 C785 1.391 . S
C784 C786 1.394 . S
C784 H800 0.931 . S
C785 C784 1.391 . S
C785 C789 1.376 . S
C786 C784 1.394 . S
C786 C787 1.369 . S
C786 C790 1.531 . S
C787 C786 1.369 . S
C787 C788 1.410 . S
C787 C795 1.503 . S
C788 C787 1.410 . S
C788 C789 1.392 . S
C788 C791 1.511 . S
C789 C785 1.376 . S
C789 C788 1.392 . S
C789 H801 0.929 . S
C790 C786 1.531 . S
C790 H802 0.960 . S
C790 H803 0.962 . S
C790 H804 0.960 . S
C791 C788 1.511 . S
C791 H805 0.961 . S
C791 H806 0.961 . S
C791 H807 0.961 . S
C792 C793 1.370 . S
C792 C794 1.363 . S
C792 H808 0.931 . S
C793 C792 1.370 . S
C793 C797 1.408 . S
C794 C792 1.363 . S
C794 C795 1.370 . S
C794 C798 1.524 . S
C795 C787 1.503 . S
C795 C794 1.370 . S
C795 C796 1.403 . S
C796 C795 1.403 . S
C796 C797 1.404 . S
C796 C799 1.539 . S
C797 C793 1.408 . S
C797 C796 1.404 . S
C797 H809 0.930 . S
C798 C794 1.524 . S
C798 H810 0.956 . S
C798 H811 0.961 . S
C798 H812 0.961 . S
C799 C796 1.539 . S
C799 H813 0.958 . S
C799 H814 0.961 . S
C799 H815 0.960 . S
H800 C784 0.931 . S
H801 C789 0.929 . S
H802 C790 0.960 . S
H803 C790 0.962 . S
H804 C790 0.960 . S
H805 C791 0.961 . S
H806 C791 0.961 . S
H807 C791 0.961 . S
H808 C792 0.931 . S
H809 C797 0.930 . S
H810 C798 0.956 . S
H811 C798 0.961 . S
H812 C798 0.961 . S
H813 C799 0.958 . S
H814 C799 0.961 . S
H815 C799 0.960 . S
C816 C817 1.391 . S
C816 C818 1.394 . S
C816 H832 0.931 . S
C817 C816 1.391 . S
C817 C821 1.376 . S
C818 C816 1.394 . S
C818 C819 1.369 . S
C818 C822 1.531 . S
C819 C818 1.369 . S
C819 C820 1.410 . S
C819 C827 1.503 . S
C820 C819 1.410 . S
C820 C821 1.392 . S
C820 C823 1.511 . S
C821 C817 1.376 . S
C821 C820 1.392 . S
C821 H833 0.929 . S
C822 C818 1.531 . S
C822 H834 0.960 . S
C822 H835 0.962 . S
C822 H836 0.960 . S
C823 C820 1.511 . S
C823 H837 0.961 . S
C823 H838 0.961 . S
C823 H839 0.961 . S
C824 C825 1.370 . S
C824 C826 1.363 . S
C824 H840 0.931 . S
C825 C824 1.370 . S
C825 C829 1.408 . S
C826 C824 1.363 . S
C826 C827 1.370 . S
C826 C830 1.524 . S
C827 C819 1.503 . S
C827 C826 1.370 . S
C827 C828 1.403 . S
C828 C827 1.403 . S
C828 C829 1.404 . S
C828 C831 1.539 . S
C829 C825 1.408 . S
C829 C828 1.404 . S
C829 H841 0.930 . S
C830 C826 1.524 . S
C830 H842 0.956 . S
C830 H843 0.961 . S
C830 H844 0.961 . S
C831 C828 1.539 . S
C831 H845 0.958 . S
C831 H846 0.961 . S
C831 H847 0.960 . S
H832 C816 0.931 . S
H833 C821 0.929 . S
H834 C822 0.960 . S
H835 C822 0.962 . S
H836 C822 0.960 . S
H837 C823 0.961 . S
H838 C823 0.961 . S
H839 C823 0.961 . S
H840 C824 0.931 . S
H841 C829 0.930 . S
H842 C830 0.956 . S
H843 C830 0.961 . S
H844 C830 0.961 . S
H845 C831 0.958 . S
H846 C831 0.961 . S
H847 C831 0.960 . S
C848 C849 1.391 . S
C848 C850 1.394 . S
C848 H864 0.931 . S
C849 C848 1.391 . S
C849 C853 1.376 . S
C850 C848 1.394 . S
C850 C851 1.369 . S
C850 C854 1.531 . S
C851 C850 1.369 . S
C851 C852 1.410 . S
C851 C859 1.503 . S
C852 C851 1.410 . S
C852 C853 1.392 . S
C852 C855 1.511 . S
C853 C849 1.376 . S
C853 C852 1.392 . S
C853 H865 0.929 . S
C854 C850 1.531 . S
C854 H866 0.960 . S
C854 H867 0.962 . S
C854 H868 0.960 . S
C855 C852 1.511 . S
C855 H869 0.961 . S
C855 H870 0.961 . S
C855 H871 0.961 . S
C856 C857 1.370 . S
C856 C858 1.363 . S
C856 H872 0.931 . S
C857 C856 1.370 . S
C857 C861 1.408 . S
C858 C856 1.363 . S
C858 C859 1.370 . S
C858 C862 1.524 . S
C859 C851 1.503 . S
C859 C858 1.370 . S
C859 C860 1.403 . S
C860 C859 1.403 . S
C860 C861 1.404 . S
C860 C863 1.539 . S
C861 C857 1.408 . S
C861 C860 1.404 . S
C861 H873 0.930 . S
C862 C858 1.524 . S
C862 H874 0.956 . S
C862 H875 0.961 . S
C862 H876 0.961 . S
C863 C860 1.539 . S
C863 H877 0.958 . S
C863 H878 0.961 . S
C863 H879 0.960 . S
H864 C848 0.931 . S
H865 C853 0.929 . S
H866 C854 0.960 . S
H867 C854 0.962 . S
H868 C854 0.960 . S
H869 C855 0.961 . S
H870 C855 0.961 . S
H871 C855 0.961 . S
H872 C856 0.931 . S
H873 C861 0.930 . S
H874 C862 0.956 . S
H875 C862 0.961 . S
H876 C862 0.961 . S
H877 C863 0.958 . S
H878 C863 0.961 . S
H879 C863 0.960 . S
C880 C881 1.391 . S
C880 C882 1.394 . S
C880 H896 0.931 . S
C881 C880 1.391 . S
C881 C885 1.376 . S
C882 C880 1.394 . S
C882 C883 1.369 . S
C882 C886 1.531 . S
C883 C882 1.369 . S
C883 C884 1.410 . S
C883 C891 1.503 . S
C884 C883 1.410 . S
C884 C885 1.392 . S
C884 C887 1.511 . S
C885 C881 1.376 . S
C885 C884 1.392 . S
C885 H897 0.929 . S
C886 C882 1.531 . S
C886 H898 0.960 . S
C886 H899 0.962 . S
C886 H900 0.960 . S
C887 C884 1.511 . S
C887 H901 0.961 . S
C887 H902 0.961 . S
C887 H903 0.961 . S
C888 C889 1.370 . S
C888 C890 1.363 . S
C888 H904 0.931 . S
C889 C888 1.370 . S
C889 C893 1.408 . S
C890 C888 1.363 . S
C890 C891 1.370 . S
C890 C894 1.524 . S
C891 C883 1.503 . S
C891 C890 1.370 . S
C891 C892 1.403 . S
C892 C891 1.403 . S
C892 C893 1.404 . S
C892 C895 1.539 . S
C893 C889 1.408 . S
C893 C892 1.404 . S
C893 H905 0.930 . S
C894 C890 1.524 . S
C894 H906 0.956 . S
C894 H907 0.961 . S
C894 H908 0.961 . S
C895 C892 1.539 . S
C895 H909 0.958 . S
C895 H910 0.961 . S
C895 H911 0.960 . S
H896 C880 0.931 . S
H897 C885 0.929 . S
H898 C886 0.960 . S
H899 C886 0.962 . S
H900 C886 0.960 . S
H901 C887 0.961 . S
H902 C887 0.961 . S
H903 C887 0.961 . S
H904 C888 0.931 . S
H905 C893 0.930 . S
H906 C894 0.956 . S
H907 C894 0.961 . S
H908 C894 0.961 . S
H909 C895 0.958 . S
H910 C895 0.961 . S
H911 C895 0.960 . S
C912 C913 1.391 . S
C912 C914 1.394 . S
C912 H928 0.931 . S
C913 C912 1.391 . S
C913 C917 1.376 . S
C914 C912 1.394 . S
C914 C915 1.369 . S
C914 C918 1.531 . S
C915 C914 1.369 . S
C915 C916 1.410 . S
C915 C923 1.503 . S
C916 C915 1.410 . S
C916 C917 1.392 . S
C916 C919 1.511 . S
C917 C913 1.376 . S
C917 C916 1.392 . S
C917 H929 0.929 . S
C918 C914 1.531 . S
C918 H930 0.960 . S
C918 H931 0.962 . S
C918 H932 0.960 . S
C919 C916 1.511 . S
C919 H933 0.961 . S
C919 H934 0.961 . S
C919 H935 0.961 . S
C920 C921 1.370 . S
C920 C922 1.363 . S
C920 H936 0.931 . S
C921 C920 1.370 . S
C921 C925 1.408 . S
C922 C920 1.363 . S
C922 C923 1.370 . S
C922 C926 1.524 . S
C923 C915 1.503 . S
C923 C922 1.370 . S
C923 C924 1.403 . S
C924 C923 1.403 . S
C924 C925 1.404 . S
C924 C927 1.539 . S
C925 C921 1.408 . S
C925 C924 1.404 . S
C925 H937 0.930 . S
C926 C922 1.524 . S
C926 H938 0.956 . S
C926 H939 0.961 . S
C926 H940 0.961 . S
C927 C924 1.539 . S
C927 H941 0.958 . S
C927 H942 0.961 . S
C927 H943 0.960 . S
H928 C912 0.931 . S
H929 C917 0.929 . S
H930 C918 0.960 . S
H931 C918 0.962 . S
H932 C918 0.960 . S
H933 C919 0.961 . S
H934 C919 0.961 . S
H935 C919 0.961 . S
H936 C920 0.931 . S
H937 C925 0.930 . S
H938 C926 0.956 . S
H939 C926 0.961 . S
H940 C926 0.961 . S
H941 C927 0.958 . S
H942 C927 0.961 . S
H943 C927 0.960 . S
C177 C9 0.779 . S
C185 C71 0.745 . S
C209 C27 0.762 . S
C217 C49 0.737 . S
C241 C94 0.753 . S
C249 C160 0.725 . S
C273 C116 0.679 . S
C281 C139 0.711 . S
C305 C6 1.994 . S
C313 C97 1.975 . S
C337 C119 1.990 . S
C345 C29 1.977 . S
C369 C137 1.961 . S
C377 C51 1.989 . S
C401 C73 1.961 . S
C409 C163 1.989 . S
C433 C141 0.991 . S
C441 C4 0.943 . S
C465 C159 0.960 . S
C473 C30 0.941 . S
C497 C52 0.990 . S
C505 C93 0.930 . S
C529 C74 0.982 . S
C537 C115 0.945 . S
C561 C50 0.945 . S
C569 C96 0.948 . S
C593 C118 0.947 . S
C601 C72 0.959 . S
C625 C7 0.955 . S
C633 C136 0.960 . S
C657 C162 0.930 . S
C665 C28 0.965 . S
C689 C5 1.646 . S
C697 C26 1.662 . S
C721 C8 1.667 . S
C729 C31 1.635 . S
C753 C70 1.649 . S
C761 C53 1.634 . S
C785 C75 1.607 . S
C793 C48 1.660 . S
C817 C95 1.645 . S
C825 C114 1.664 . S
C849 C92 1.646 . S
C857 C117 1.621 . S
C881 C158 1.652 . S
C889 C138 1.620 . S
C913 C161 1.649 . S
C921 C140 1.663 . S
