# Generated by pormake.
# Topology umw, (4)-cn, num edge types: 1
# Building blocks:
#     Node 0, Type 0, BuildingBlock: NAHDIM_clean_sbu_0, # of connection points: 4
#     Node 1, Type 0, BuildingBlock: NAHDIM_clean_sbu_0, # of connection points: 4
#     Node 2, Type 0, BuildingBlock: NAHDIM_clean_sbu_0, # of connection points: 4
#     Node 3, Type 0, BuildingBlock: NAHDIM_clean_sbu_0, # of connection points: 4
#     Node 4, Type 0, BuildingBlock: NAHDIM_clean_sbu_0, # of connection points: 4
#     Node 5, Type 0, BuildingBlock: NAHDIM_clean_sbu_0, # of connection points: 4
#     Node 6, Type 0, BuildingBlock: NAHDIM_clean_sbu_0, # of connection points: 4
#     Node 7, Type 0, BuildingBlock: NAHDIM_clean_sbu_0, # of connection points: 4
#     Edge 8, Type (0, 0), BuildingBlock: ZUJKAS_clean_linker_0, # of connection points: 2
#     Edge 9, Type (0, 0), BuildingBlock: ZUJKAS_clean_linker_0, # of connection points: 2
#     Edge 10, Type (0, 0), BuildingBlock: ZUJKAS_clean_linker_0, # of connection points: 2
#     Edge 11, Type (0, 0), BuildingBlock: ZUJKAS_clean_linker_0, # of connection points: 2
#     Edge 12, Type (0, 0), BuildingBlock: ZUJKAS_clean_linker_0, # of connection points: 2
#     Edge 13, Type (0, 0), BuildingBlock: ZUJKAS_clean_linker_0, # of connection points: 2
#     Edge 14, Type (0, 0), BuildingBlock: ZUJKAS_clean_linker_0, # of connection points: 2
#     Edge 15, Type (0, 0), BuildingBlock: ZUJKAS_clean_linker_0, # of connection points: 2
#     Edge 16, Type (0, 0), BuildingBlock: ZUJKAS_clean_linker_0, # of connection points: 2
#     Edge 17, Type (0, 0), BuildingBlock: ZUJKAS_clean_linker_0, # of connection points: 2
#     Edge 18, Type (0, 0), BuildingBlock: ZUJKAS_clean_linker_0, # of connection points: 2
#     Edge 19, Type (0, 0), BuildingBlock: ZUJKAS_clean_linker_0, # of connection points: 2
#     Edge 20, Type (0, 0), BuildingBlock: ZUJKAS_clean_linker_0, # of connection points: 2
#     Edge 21, Type (0, 0), BuildingBlock: ZUJKAS_clean_linker_0, # of connection points: 2
#     Edge 22, Type (0, 0), BuildingBlock: ZUJKAS_clean_linker_0, # of connection points: 2
#     Edge 23, Type (0, 0), BuildingBlock: ZUJKAS_clean_linker_0, # of connection points: 2
# Relax obj value: 0.146
# Max RMSD: 0.106
# Mean RMSD: 0.106
data_MOF--net-umw--node1-NAHDIM_clean_sbu_0--edge1-ZUJKAS_clean_linker_0
_symmetry_space_group_name_H-M    P1
_symmetry_Int_Tables_number       1
_symmetry_cell_setting            triclinic
loop_
_symmetry_equiv_pos_as_xyz
'x, y, z'
_cell_length_a     56.736769
_cell_length_b     56.659138
_cell_length_c     30.59561
_cell_angle_alpha  89.954963
_cell_angle_beta   89.883028
_cell_angle_gamma 90.01917
loop_
_atom_site_label
_atom_site_type_symbol
_atom_site_fract_x
_atom_site_fract_y
_atom_site_fract_z
_atom_type_partial_charge
C0 C 0.3728 0.21342 0.26863 0.0
O1 O 0.39515 0.21942 0.26652 0.0
O2 O 0.41338 0.18129 0.19863 0.0
Zn3 Zn 0.39376 0.17009 0.24954 0.0
O4 O 0.41289 0.17002 0.30456 0.0
C5 C 0.39796 0.12114 0.23808 0.0
O6 O 0.42022 0.12748 0.23927 0.0
O7 O 0.36703 0.19226 0.26018 0.0
C8 C 0.40255 0.16483 0.34016 0.0
O9 O 0.37998 0.15964 0.33945 0.0
C10 C 0.43574 0.1817 0.2009 0.0
O11 O 0.44612 0.17452 0.23687 0.0
O12 O 0.38219 0.137 0.24031 0.0
C13 C 0.78857 0.36293 0.54167 0.0
O14 O 0.78038 0.38451 0.53756 0.0
O15 O 0.82042 0.40435 0.46772 0.0
Zn16 Zn 0.83176 0.38589 0.52018 0.0
O17 O 0.83211 0.40656 0.57386 0.0
C18 C 0.87912 0.38333 0.48534 0.0
O19 O 0.87276 0.40259 0.46455 0.0
O20 O 0.81019 0.35901 0.53376 0.0
C21 C 0.85069 0.4163 0.58843 0.0
O22 O 0.87073 0.41327 0.56766 0.0
C23 C 0.82214 0.42673 0.46741 0.0
O24 O 0.83096 0.43748 0.50167 0.0
O25 O 0.86431 0.37297 0.50992 0.0
C26 C 0.61722 0.77707 0.79372 0.0
O27 O 0.59497 0.77074 0.79181 0.0
O28 O 0.58107 0.80976 0.70955 0.0
Zn29 Zn 0.59716 0.82014 0.765 0.0
O30 O 0.57369 0.82091 0.81423 0.0
C31 C 0.60105 0.86713 0.73042 0.0
O32 O 0.58443 0.85941 0.70425 0.0
O33 O 0.62295 0.79783 0.78212 0.0
C34 C 0.55574 0.8343 0.81302 0.0
O35 O 0.5523 0.8477 0.77857 0.0
C36 C 0.56228 0.79752 0.71014 0.0
O37 O 0.55374 0.79032 0.74778 0.0
O38 O 0.60997 0.85308 0.75824 0.0
C39 C 0.20687 0.61709 0.0525 0.0
O40 O 0.20977 0.59427 0.05792 0.0
O41 O 0.1747 0.58487 0.95605 0.0
Zn42 Zn 0.16501 0.6006 0.01222 0.0
O43 O 0.1617 0.57628 0.05963 0.0
C44 C 0.11706 0.60318 0.98864 0.0
O45 O 0.12242 0.58215 0.97353 0.0
O46 O 0.18884 0.62444 0.03203 0.0
C47 C 0.15038 0.5819 0.09394 0.0
O48 O 0.14114 0.6031 0.09681 0.0
C49 C 0.18756 0.56651 0.95646 0.0
O50 O 0.1953 0.5584 0.99401 0.0
O51 O 0.13323 0.61568 0.00551 0.0
C52 C 0.36286 0.7816 0.25837 0.0
O53 O 0.38446 0.77495 0.26778 0.0
O54 O 0.40281 0.81578 0.32283 0.0
Zn55 Zn 0.38439 0.82595 0.26972 0.0
O56 O 0.40532 0.82501 0.21678 0.0
C57 C 0.38275 0.87405 0.30019 0.0
O58 O 0.40045 0.86696 0.32446 0.0
O59 O 0.35792 0.80346 0.25858 0.0
C60 C 0.39936 0.83609 0.18243 0.0
O61 O 0.37943 0.84789 0.18216 0.0
C62 C 0.42516 0.81736 0.32281 0.0
O63 O 0.4359 0.8259 0.28816 0.0
O64 O 0.3724 0.85923 0.27569 0.0
C65 C 0.21409 0.37087 0.48696 0.0
O66 O 0.21896 0.39353 0.48815 0.0
O67 O 0.17948 0.40538 0.57104 0.0
Zn68 Zn 0.17001 0.38822 0.51613 0.0
O69 O 0.16753 0.41096 0.46596 0.0
C70 C 0.12328 0.38125 0.5503 0.0
O71 O 0.12938 0.39889 0.57574 0.0
O72 O 0.19389 0.36388 0.49937 0.0
C73 C 0.15263 0.42768 0.46567 0.0
O74 O 0.13869 0.43062 0.49955 0.0
C75 C 0.19022 0.42507 0.56979 0.0
O76 O 0.19609 0.43413 0.53177 0.0
O77 O 0.13823 0.37306 0.52332 0.0
C78 C 0.6397 0.19364 0.75473 0.0
O79 O 0.64175 0.18795 0.79619 0.0
O80 O 0.58526 0.17581 0.81368 0.0
Zn81 Zn 0.59718 0.16452 0.75561 0.0
O82 O 0.57107 0.16552 0.71145 0.0
C83 C 0.59548 0.11612 0.77894 0.0
O84 O 0.57557 0.12329 0.79643 0.0
O85 O 0.62258 0.18555 0.73273 0.0
C86 C 0.54935 0.16218 0.71957 0.0
O87 O 0.54258 0.15761 0.75978 0.0
C88 C 0.57342 0.19477 0.81663 0.0
O89 O 0.56989 0.20752 0.78136 0.0
O90 O 0.60869 0.1311 0.76005 0.0
C91 C 0.78129 0.6206 0.00041 0.0
O92 O 0.77599 0.59803 0.00111 0.0
O93 O 0.81868 0.58451 0.0792 0.0
Zn94 Zn 0.82586 0.6018 0.02304 0.0
O95 O 0.82542 0.57902 0.97295 0.0
C96 C 0.87054 0.61929 0.05816 0.0
O97 O 0.8612 0.61512 0.09672 0.0
O98 O 0.80204 0.62698 0.01051 0.0
C99 C 0.84116 0.56316 0.97002 0.0
O100 O 0.85731 0.56164 0.00061 0.0
C101 C 0.8072 0.56523 0.07876 0.0
O102 O 0.79941 0.55699 0.04137 0.0
O103 O 0.85841 0.61557 0.02401 0.0
H104 H 0.44923 0.17445 0.35257 0.0
H105 H 0.4709 0.17442 0.42153 0.0
H106 H 0.40736 0.15561 0.49089 0.0
H107 H 0.38553 0.15532 0.42199 0.0
H108 H 0.46161 0.20207 0.49696 0.0
H109 H 0.45563 0.10576 0.53128 0.0
H110 H 0.44965 0.11805 0.47798 0.0
H111 H 0.42819 0.12057 0.52094 0.0
C112 C 0.43985 0.17022 0.38245 0.0
C113 C 0.41568 0.16479 0.3818 0.0
C114 C 0.45226 0.17025 0.42179 0.0
C115 C 0.44076 0.16475 0.46112 0.0
C116 C 0.41661 0.1595 0.46073 0.0
H117 H 0.50178 0.15384 0.72358 0.0
H118 H 0.47342 0.1557 0.66327 0.0
C119 C 0.40417 0.15945 0.42136 0.0
C120 C 0.45413 0.16493 0.50252 0.0
H121 H 0.47479 0.1293 0.58389 0.0
C122 C 0.46442 0.1862 0.5161 0.0
C123 C 0.45756 0.1442 0.52749 0.0
C124 C 0.44735 0.12077 0.51368 0.0
C125 C 0.4784 0.18724 0.55376 0.0
C126 C 0.48247 0.16637 0.57793 0.0
C127 C 0.47159 0.14525 0.56517 0.0
C128 C 0.4993 0.16578 0.6147 0.0
C129 C 0.48879 0.21064 0.56726 0.0
C130 C 0.52319 0.17055 0.60708 0.0
C131 C 0.53938 0.16947 0.64123 0.0
C132 C 0.53199 0.16347 0.68371 0.0
C133 C 0.50801 0.15858 0.69126 0.0
C134 C 0.4918 0.15962 0.65692 0.0
H135 H 0.47874 0.22568 0.55329 0.0
H136 H 0.48909 0.21242 0.6034 0.0
H137 H 0.50718 0.21183 0.55508 0.0
H138 H 0.52938 0.17487 0.57451 0.0
H139 H 0.55772 0.17324 0.63421 0.0
H140 H 0.81264 0.42435 0.64132 0.0
H141 H 0.81099 0.44911 0.70672 0.0
H142 H 0.88455 0.46632 0.69097 0.0
H143 H 0.88641 0.44171 0.62541 0.0
H144 H 0.83916 0.44503 0.7846 0.0
H145 H 0.8505 0.53116 0.69989 0.0
H146 H 0.84202 0.50456 0.67149 0.0
H147 H 0.87219 0.5091 0.68699 0.0
C148 C 0.82847 0.43344 0.65167 0.0
C149 C 0.84965 0.43115 0.62807 0.0
C150 C 0.82749 0.44752 0.68907 0.0
C151 C 0.84758 0.45968 0.70327 0.0
C152 C 0.86878 0.45731 0.68008 0.0
H153 H 0.87212 0.52721 0.95375 0.0
H154 H 0.87336 0.50144 0.88963 0.0
C155 C 0.86982 0.44317 0.64275 0.0
C156 C 0.84637 0.4747 0.74265 0.0
H157 H 0.85094 0.53173 0.77728 0.0
C158 C 0.8417 0.46399 0.7831 0.0
C159 C 0.84948 0.49942 0.7403 0.0
C160 C 0.85364 0.51186 0.69734 0.0
C161 C 0.84034 0.47739 0.82156 0.0
C162 C 0.84396 0.50205 0.81934 0.0
C163 C 0.84834 0.51278 0.7788 0.0
C164 C 0.84291 0.51714 0.85865 0.0
C165 C 0.83468 0.46516 0.86413 0.0
C166 C 0.82556 0.53466 0.86206 0.0
C167 C 0.82482 0.54943 0.89853 0.0
C168 C 0.84156 0.54704 0.93208 0.0
C169 C 0.85892 0.52944 0.92855 0.0
C170 C 0.85961 0.51463 0.89207 0.0
H171 H 0.82721 0.44726 0.85881 0.0
H172 H 0.85108 0.46326 0.88353 0.0
H173 H 0.82196 0.47569 0.88368 0.0
H174 H 0.81258 0.53689 0.83646 0.0
H175 H 0.81124 0.56283 0.9002 0.0
H176 H 0.39322 0.8601 0.10575 0.0
H177 H 0.41887 0.85965 0.04132 0.0
H178 H 0.46592 0.81141 0.10648 0.0
H179 H 0.4404 0.81161 0.17096 0.0
H180 H 0.46795 0.87207 0.03774 0.0
H181 H 0.45156 0.77926 0.9878 0.0
H182 H 0.43237 0.79498 0.02486 0.0
H183 H 0.45982 0.78308 0.04402 0.0
C184 C 0.40897 0.8493 0.10632 0.0
C185 C 0.41473 0.8358 0.14339 0.0
C186 C 0.42359 0.84911 0.06953 0.0
C187 C 0.44407 0.83526 0.06905 0.0
C188 C 0.44996 0.82189 0.10602 0.0
H189 H 0.55806 0.80904 0.889 0.0
H190 H 0.53057 0.81012 0.95053 0.0
C191 C 0.43541 0.82213 0.14288 0.0
C192 C 0.45962 0.83523 0.03026 0.0
H193 H 0.48241 0.7995 0.95107 0.0
C194 C 0.47102 0.85628 0.01853 0.0
C195 C 0.46355 0.81456 0.0055 0.0
C196 C 0.45105 0.7917 0.01583 0.0
C197 C 0.4868 0.85706 0.98319 0.0
C198 C 0.49085 0.83633 0.95857 0.0
C199 C 0.47926 0.81534 0.97009 0.0
C200 C 0.50738 0.83591 0.92114 0.0
C201 C 0.4995 0.87986 0.97329 0.0
C202 C 0.50325 0.84987 0.88405 0.0
C203 C 0.51896 0.84936 0.84883 0.0
C204 C 0.53897 0.83474 0.85004 0.0
C205 C 0.54286 0.82055 0.88707 0.0
C206 C 0.52717 0.82111 0.92225 0.0
H207 H 0.49885 0.89228 0.00136 0.0
H208 H 0.51823 0.87652 0.96475 0.0
H209 H 0.49098 0.88858 0.94494 0.0
H210 H 0.48781 0.86106 0.88224 0.0
H211 H 0.51539 0.86039 0.82069 0.0
H212 H 0.17749 0.425 0.3893 0.0
H213 H 0.17486 0.45127 0.32609 0.0
H214 H 0.12151 0.49227 0.3918 0.0
H215 H 0.12403 0.46615 0.4554 0.0
H216 H 0.13317 0.46227 0.27492 0.0
H217 H 0.17302 0.54088 0.35487 0.0
H218 H 0.17619 0.51142 0.37662 0.0
H219 H 0.14897 0.52713 0.38358 0.0
C220 C 0.16522 0.43963 0.39042 0.0
C221 C 0.15104 0.44357 0.42746 0.0
C222 C 0.16372 0.45457 0.35423 0.0
C223 C 0.14817 0.47378 0.35458 0.0
C224 C 0.13384 0.47768 0.39126 0.0
H225 H 0.12478 0.58731 0.1689 0.0
H226 H 0.12254 0.56029 0.23109 0.0
C227 C 0.13527 0.46271 0.42747 0.0
C228 C 0.14696 0.48966 0.31635 0.0
H229 H 0.15903 0.54581 0.28291 0.0
C230 C 0.1388 0.48054 0.27655 0.0
C231 C 0.15426 0.51346 0.31885 0.0
C232 C 0.16378 0.52386 0.36063 0.0
C233 C 0.13758 0.49473 0.23902 0.0
C234 C 0.14523 0.51846 0.24132 0.0
C235 C 0.15317 0.5276 0.28129 0.0
C236 C 0.1456 0.53407 0.20253 0.0
C237 C 0.12779 0.48429 0.19749 0.0
C238 C 0.15937 0.52828 0.16592 0.0
C239 C 0.16061 0.54363 0.13024 0.0
C240 C 0.14832 0.56516 0.1308 0.0
C241 C 0.13448 0.57087 0.16747 0.0
C242 C 0.13317 0.55546 0.20303 0.0
H243 H 0.11658 0.46861 0.20427 0.0
H244 H 0.11719 0.49746 0.17919 0.0
H245 H 0.14259 0.47853 0.17629 0.0
H246 H 0.16955 0.51212 0.1653 0.0
H247 H 0.17155 0.5388 0.1026 0.0
H248 H 0.37954 0.25973 0.28966 0.0
H249 H 0.3516 0.28626 0.3256 0.0
H250 H 0.29853 0.2318 0.32286 0.0
H251 H 0.32635 0.20502 0.2871 0.0
H252 H 0.30481 0.30114 0.29877 0.0
H253 H 0.30537 0.25016 0.45428 0.0
H254 H 0.32771 0.24654 0.41269 0.0
H255 H 0.29911 0.23353 0.40564 0.0
C256 C 0.36186 0.25344 0.29634 0.0
C257 C 0.3552 0.23022 0.28587 0.0
C258 C 0.34596 0.26862 0.31685 0.0
C259 C 0.32322 0.26079 0.32744 0.0
C260 C 0.31618 0.23797 0.31553 0.0
H261 H 0.20727 0.32402 0.46974 0.0
H262 H 0.23391 0.29736 0.43087 0.0
C263 C 0.33205 0.22277 0.29489 0.0
C264 C 0.3071 0.27636 0.35192 0.0
H265 H 0.27936 0.28262 0.45028 0.0
C266 C 0.29922 0.29716 0.3319 0.0
C267 C 0.29994 0.271 0.39508 0.0
C268 C 0.30856 0.2492 0.41848 0.0
C269 C 0.28402 0.31269 0.3538 0.0
C270 C 0.27702 0.30744 0.39715 0.0
C271 C 0.28483 0.28657 0.41707 0.0
C272 C 0.26147 0.32336 0.42231 0.0
C273 C 0.27524 0.33431 0.33003 0.0
C274 C 0.26848 0.34658 0.43139 0.0
C275 C 0.2533 0.36188 0.45345 0.0
C276 C 0.23094 0.35413 0.46716 0.0
C277 C 0.22436 0.33056 0.45951 0.0
C278 C 0.23952 0.31531 0.43728 0.0
H279 H 0.27711 0.33248 0.29403 0.0
H280 H 0.25644 0.33781 0.33786 0.0
H281 H 0.28574 0.34985 0.34037 0.0
H282 H 0.28562 0.35293 0.42104 0.0
H283 H 0.25897 0.37987 0.45918 0.0
H284 H 0.74117 0.36424 0.55786 0.0
H285 H 0.71731 0.33407 0.59427 0.0
H286 H 0.77844 0.28922 0.60517 0.0
H287 H 0.80227 0.31895 0.56783 0.0
H288 H 0.73978 0.26472 0.58066 0.0
H289 H 0.71908 0.32059 0.72436 0.0
H290 H 0.71046 0.3338 0.67353 0.0
H291 H 0.74118 0.32863 0.68453 0.0
C292 C 0.7495 0.34789 0.56776 0.0
C293 C 0.77364 0.34405 0.56026 0.0
C294 C 0.73589 0.33077 0.58888 0.0
C295 C 0.74626 0.30968 0.60337 0.0
C296 C 0.77015 0.30547 0.59457 0.0
H297 H 0.67907 0.21406 0.79042 0.0
H298 H 0.70676 0.24106 0.75436 0.0
C299 C 0.78373 0.32248 0.57316 0.0
C300 C 0.73224 0.29198 0.62769 0.0
H301 H 0.6976 0.28459 0.718 0.0
C302 C 0.73067 0.26901 0.61082 0.0
C303 C 0.72079 0.29749 0.66754 0.0
C304 C 0.72313 0.3214 0.68884 0.0
C305 C 0.71733 0.25158 0.63204 0.0
C306 C 0.70486 0.25747 0.67059 0.0
C307 C 0.70702 0.28021 0.68821 0.0
C308 C 0.6887 0.24059 0.69213 0.0
C309 C 0.71685 0.227 0.6131 0.0
C310 C 0.6693 0.23167 0.66919 0.0
C311 C 0.65357 0.21627 0.68953 0.0
C312 C 0.65679 0.20966 0.73345 0.0
C313 C 0.67616 0.21875 0.75654 0.0
C314 C 0.69197 0.23417 0.73603 0.0
H315 H 0.73259 0.22356 0.59239 0.0
H316 H 0.71607 0.21343 0.63928 0.0
H317 H 0.701 0.22504 0.59224 0.0
H318 H 0.66613 0.23687 0.63564 0.0
H319 H 0.63875 0.20974 0.67084 0.0
H320 H 0.73562 0.61267 0.9767 0.0
H321 H 0.70834 0.64063 0.94292 0.0
H322 H 0.76063 0.69561 0.95241 0.0
H323 H 0.78815 0.66779 0.98605 0.0
H324 H 0.69159 0.68578 0.97495 0.0
H325 H 0.74294 0.69272 0.8203 0.0
H326 H 0.74738 0.66913 0.85914 0.0
H327 H 0.75905 0.69799 0.86989 0.0
C328 C 0.74129 0.63075 0.97189 0.0
C329 C 0.76411 0.63798 0.98373 0.0
C330 C 0.72568 0.64667 0.95261 0.0
C331 C 0.73267 0.67 0.94462 0.0
C332 C 0.75511 0.67753 0.95771 0.0
H333 H 0.66339 0.78657 0.81245 0.0
H334 H 0.69156 0.76079 0.84961 0.0
C335 C 0.77073 0.66164 0.97713 0.0
C336 C 0.71653 0.68632 0.92189 0.0
H337 H 0.70917 0.71681 0.82667 0.0
C338 C 0.69538 0.6926 0.94254 0.0
C339 C 0.72167 0.69514 0.8797 0.0
C340 C 0.7439 0.68832 0.85565 0.0
C341 C 0.6792 0.70771 0.92217 0.0
C342 C 0.68415 0.71626 0.87967 0.0
C343 C 0.70544 0.71015 0.85921 0.0
C344 C 0.66736 0.73145 0.85576 0.0
C345 C 0.65715 0.71468 0.94663 0.0
C346 C 0.64468 0.72321 0.8459 0.0
C347 C 0.62853 0.73788 0.82484 0.0
C348 C 0.63489 0.76098 0.81286 0.0
C349 C 0.65793 0.76888 0.82135 0.0
C350 C 0.67404 0.75421 0.84261 0.0
H351 H 0.65911 0.71205 0.98244 0.0
H352 H 0.65256 0.73343 0.94041 0.0
H353 H 0.64226 0.70353 0.93544 0.0
H354 H 0.6394 0.70547 0.85481 0.0
H355 H 0.61099 0.73119 0.81842 0.0
H356 H 0.20378 0.66527 0.0546 0.0
H357 H 0.23035 0.69279 0.09159 0.0
H358 H 0.27364 0.63456 0.13376 0.0
H359 H 0.24732 0.60691 0.09679 0.0
H360 H 0.24216 0.69197 0.18372 0.0
H361 H 0.32042 0.68154 0.07571 0.0
H362 H 0.29114 0.67283 0.05918 0.0
H363 H 0.30774 0.65457 0.09592 0.0
C364 C 0.21907 0.65833 0.0714 0.0
C365 C 0.22349 0.63391 0.07266 0.0
C366 C 0.23416 0.67406 0.09259 0.0
C367 C 0.25399 0.66567 0.115 0.0
C368 C 0.25857 0.64137 0.11608 0.0
H369 H 0.36744 0.73364 0.25635 0.0
H370 H 0.33993 0.70504 0.22525 0.0
C371 C 0.24347 0.62561 0.09503 0.0
C372 C 0.26955 0.68227 0.13837 0.0
H373 H 0.3255 0.70422 0.13982 0.0
C374 C 0.26037 0.69475 0.17414 0.0
C375 C 0.29329 0.68565 0.1258 0.0
C376 C 0.30377 0.67311 0.08685 0.0
C377 C 0.27446 0.71041 0.19814 0.0
C378 C 0.29816 0.71396 0.18532 0.0
C379 C 0.30733 0.70139 0.14962 0.0
C380 C 0.3137 0.73107 0.20769 0.0
C381 C 0.26398 0.72263 0.23743 0.0
C382 C 0.30795 0.75514 0.20841 0.0
C383 C 0.32356 0.77152 0.22636 0.0
C384 C 0.34533 0.76411 0.24341 0.0
C385 C 0.35082 0.73992 0.24344 0.0
C386 C 0.33515 0.72355 0.22566 0.0
H387 H 0.24834 0.71302 0.25019 0.0
H388 H 0.27712 0.72431 0.2641 0.0
H389 H 0.25821 0.74062 0.22788 0.0
H390 H 0.29171 0.76137 0.19386 0.0
H391 H 0.31887 0.79005 0.2256 0.0
H392 H 0.3504 0.89532 0.2467 0.0
H393 H 0.34531 0.93769 0.23416 0.0
H394 H 0.39776 0.95258 0.33216 0.0
H395 H 0.40276 0.91038 0.34538 0.0
H396 H 0.35825 0.98334 0.3342 0.0
H397 H 0.39708 0.97439 0.16771 0.0
H398 H 0.37172 0.95639 0.17928 0.0
H399 H 0.3988 0.95116 0.20795 0.0
C400 C 0.36059 0.90761 0.26607 0.0
C401 C 0.37721 0.89948 0.29668 0.0
C402 C 0.35773 0.93179 0.25869 0.0
C403 C 0.37147 0.94818 0.28169 0.0
C404 C 0.38707 0.94017 0.31395 0.0
H405 H 0.42766 0.08347 0.2333 0.0
H406 H 0.41772 0.04179 0.24098 0.0
C407 C 0.38994 0.91604 0.32138 0.0
C408 C 0.37094 0.97356 0.27043 0.0
H409 H 0.38755 0.01265 0.1912 0.0
C410 C 0.36433 0.98981 0.30276 0.0
C411 C 0.37914 0.98182 0.22948 0.0
C412 C 0.38728 0.96512 0.19411 0.0
C413 C 0.36633 0.01421 0.29567 0.0
C414 C 0.3749 0.02245 0.25498 0.0
C415 C 0.38083 0.0062 0.22221 0.0
C416 C 0.3802 0.04769 0.24742 0.0
C417 C 0.36039 0.03093 0.33245 0.0
C418 C 0.36229 0.06475 0.24749 0.0
C419 C 0.36792 0.08868 0.24314 0.0
C420 C 0.39155 0.09585 0.23857 0.0
C421 C 0.4093 0.07858 0.23695 0.0
C422 C 0.40366 0.05473 0.24127 0.0
H423 H 0.35791 0.02156 0.36405 0.0
H424 H 0.37452 0.04432 0.33646 0.0
H425 H 0.3438 0.04037 0.32463 0.0
H426 H 0.34403 0.05959 0.25149 0.0
H427 H 0.35383 0.10156 0.24433 0.0
H428 H 0.91701 0.40708 0.45236 0.0
H429 H 0.95851 0.39712 0.46099 0.0
H430 H 0.93928 0.33244 0.52654 0.0
H431 H 0.89759 0.34268 0.51922 0.0
H432 H 0.97073 0.3558 0.57244 0.0
H433 H 0.00225 0.35189 0.40204 0.0
H434 H 0.98728 0.37923 0.41168 0.0
H435 H 0.97127 0.3518 0.41567 0.0
C436 C 0.92156 0.39052 0.46788 0.0
C437 C 0.90402 0.37571 0.48523 0.0
C438 C 0.94533 0.38474 0.4725 0.0
C439 C 0.95203 0.36383 0.4938 0.0
C440 C 0.93451 0.3486 0.5098 0.0
H441 H 0.10508 0.34381 0.50504 0.0
H442 H 0.06344 0.33401 0.49497 0.0
C443 C 0.91071 0.35448 0.50556 0.0
C444 C 0.97723 0.35929 0.50325 0.0
H445 H 0.03185 0.36108 0.45678 0.0
C446 C 0.98408 0.35646 0.54703 0.0
C447 C -0.00535 0.35961 0.47014 0.0
C448 C 0.98843 0.36052 0.42224 0.0
C449 C 0.00793 0.35556 0.55882 0.0
C450 C 0.02535 0.35825 0.52607 0.0
C451 C 0.01851 0.35942 0.48203 0.0
C452 C 0.05054 0.36198 0.5368 0.0
C453 C 0.01415 0.35214 0.60632 0.0
C454 C 0.05713 0.38074 0.56412 0.0
C455 C 0.08086 0.38623 0.57027 0.0
C456 C 0.09848 0.37334 0.54854 0.0
C457 C 0.09191 0.3541 0.52219 0.0
C458 C 0.06813 0.34849 0.51637 0.0
H459 H 0.00036 0.34174 0.62355 0.0
H460 H 0.03133 0.343 0.61013 0.0
H461 H 0.01524 0.36962 0.62251 0.0
H462 H 0.0439 0.39183 0.57926 0.0
H463 H 0.08531 0.40125 0.59052 0.0
H464 H 0.63628 0.88884 0.77651 0.0
H465 H 0.64287 0.93133 0.78449 0.0
H466 H 0.58526 0.94521 0.69635 0.0
H467 H 0.57903 0.90293 0.68715 0.0
H468 H 0.62202 0.97495 0.6824 0.0
H469 H 0.59961 0.97132 0.85931 0.0
H470 H 0.62416 0.95331 0.84324 0.0
H471 H 0.59515 0.94658 0.82324 0.0
C472 C 0.62521 0.90096 0.75843 0.0
C473 C 0.60695 0.89253 0.73158 0.0
C474 C 0.62891 0.92522 0.76325 0.0
C475 C 0.6142 0.94141 0.74182 0.0
C476 C 0.59674 0.93301 0.71338 0.0
H477 H 0.5674 0.07937 0.8034 0.0
H478 H 0.5754 0.03732 0.7955 0.0
C479 C 0.59318 0.90881 0.7082 0.0
C480 C 0.616 0.96708 0.75033 0.0
H481 H 0.60859 0.0086 0.82998 0.0
C482 C 0.61931 0.98236 0.71471 0.0
C483 C 0.6122 0.97663 0.79251 0.0
C484 C 0.60737 0.96117 0.83176 0.0
C485 C 0.6182 0.00694 0.71982 0.0
C486 C 0.61429 0.01647 0.76197 0.0
C487 C 0.61175 0.00121 0.7978 0.0
C488 C 0.61049 0.04206 0.76898 0.0
C489 C 0.62001 0.02238 0.67971 0.0
C490 C 0.62778 0.0587 0.75762 0.0
C491 C 0.62315 0.08285 0.76167 0.0
C492 C 0.60127 0.0907 0.77776 0.0
C493 C 0.58441 0.07394 0.79083 0.0
C494 C 0.58897 0.04987 0.78637 0.0
H495 H 0.61764 0.01213 0.64909 0.0
H496 H 0.60661 0.03665 0.68059 0.0
H497 H 0.63771 0.03069 0.67862 0.0
H498 H 0.64473 0.05304 0.74512 0.0
H499 H 0.63659 0.09534 0.75172 0.0
H500 H 0.89519 0.62714 0.98286 0.0
H501 H 0.93777 0.6309 0.9746 0.0
H502 H 0.94596 0.62883 0.11463 0.0
H503 H 0.90323 0.62463 0.12334 0.0
H504 H 0.97252 0.66228 0.0062 0.0
H505 H 0.98304 0.57106 0.07096 0.0
H506 H 0.95473 0.58298 0.05582 0.0
H507 H 0.9682 0.59145 0.10655 0.0
C508 C 0.90596 0.62778 0.01202 0.0
C509 C 0.89584 0.62518 0.05378 0.0
C510 C 0.93031 0.63003 0.00719 0.0
C511 C 0.94499 0.62973 0.04395 0.0
C512 C 0.9349 0.62869 0.08583 0.0
H513 H 0.09891 0.64156 0.0315 0.0
H514 H 0.05726 0.65047 0.04442 0.0
C515 C 0.91049 0.62637 0.09073 0.0
C516 C 0.97083 0.62836 0.03783 0.0
H517 H 0.01746 0.59089 0.04927 0.0
C518 C 0.98245 0.64679 0.01591 0.0
C519 C 0.98357 0.60794 0.04999 0.0
C520 C 0.9718 0.58711 0.07182 0.0
C521 C 0.00652 0.64521 0.00541 0.0
C522 C 0.01919 0.62476 0.01755 0.0
C523 C 0.00763 0.60654 0.04006 0.0
C524 C 0.04426 0.62125 0.00589 0.0
C525 C 0.01802 0.665 0.98017 0.0
C526 C 0.0507 0.60196 0.97975 0.0
C527 C 0.07442 0.59672 0.97256 0.0
C528 C 0.09215 0.61065 0.99151 0.0
C529 C 0.08566 0.63054 0.01628 0.0
C530 C 0.06187 0.63573 0.02358 0.0
H531 H 0.0048 0.67706 0.9654 0.0
H532 H 0.02925 0.67547 0.00259 0.0
H533 H 0.02947 0.6579 0.9538 0.0
H534 H 0.03734 0.59058 0.96584 0.0
H535 H 0.07881 0.58133 0.95322 0.0
H536 H 0.5801 0.17458 0.89664 0.0
H537 H 0.55656 0.18064 0.96272 0.0
H538 H 0.51553 0.23367 0.89646 0.0
H539 H 0.53907 0.2279 0.83005 0.0
H540 H 0.54231 0.22953 0.01002 0.0
H541 H 0.4715 0.17372 0.9372 0.0
H542 H 0.50186 0.1708 0.9202 0.0
H543 H 0.48532 0.19637 0.90459 0.0
C544 C 0.56632 0.18781 0.89626 0.0
C545 C 0.5613 0.20062 0.85801 0.0
C546 C 0.55298 0.19129 0.93406 0.0
C547 C 0.53435 0.20751 0.93416 0.0
C548 C 0.5299 0.22109 0.89679 0.0
H549 H 0.42047 0.20355 0.12641 0.0
H550 H 0.44396 0.21443 0.06233 0.0
C551 C 0.54336 0.21775 0.85897 0.0
C552 C 0.51834 0.20845 0.9721 0.0
H553 H 0.46684 0.18522 0.01018 0.0
C554 C 0.52565 0.22012 0.01009 0.0
C555 C 0.49663 0.19629 0.97167 0.0
C556 C 0.4882 0.18348 0.93139 0.0
C557 C 0.51191 0.21948 0.0483 0.0
C558 C 0.49073 0.20624 0.04861 0.0
C559 C 0.48308 0.19533 0.00997 0.0
C560 C 0.47699 0.20201 0.08912 0.0
C561 C 0.52025 0.23298 0.08784 0.0
C562 C 0.48775 0.19142 0.12546 0.0
C563 C 0.47442 0.18536 0.1622 0.0
C564 C 0.44998 0.18936 0.16297 0.0
C565 C 0.43925 0.20016 0.12673 0.0
C566 C 0.45265 0.20644 0.09015 0.0
H567 H 0.53132 0.24831 0.07819 0.0
H568 H 0.50521 0.23945 0.10777 0.0
H569 H 0.53123 0.22122 0.10846 0.0
H570 H 0.50635 0.18715 0.12495 0.0
H571 H 0.48319 0.17693 0.18946 0.0
H572 H 0.78768 0.52139 0.08723 0.0
H573 H 0.78484 0.49739 0.15349 0.0
H574 H 0.81682 0.5534 0.22803 0.0
H575 H 0.81973 0.57761 0.16199 0.0
H576 H 0.82465 0.484 0.20496 0.0
H577 H 0.75837 0.53383 0.30157 0.0
H578 H 0.76162 0.53726 0.24314 0.0
H579 H 0.78197 0.55141 0.27962 0.0
C580 C 0.79386 0.52875 0.1178 0.0
C581 C 0.80397 0.55141 0.11935 0.0
C582 C 0.79221 0.51499 0.15558 0.0
C583 C 0.80037 0.52375 0.19562 0.0
C584 C 0.81004 0.54651 0.19752 0.0
H585 H 0.82807 0.47394 0.45404 0.0
H586 H 0.82064 0.49624 0.38723 0.0
C587 C 0.81182 0.56025 0.15971 0.0
C588 C 0.80046 0.50844 0.23476 0.0
H589 H 0.7801 0.50427 0.33949 0.0
C590 C 0.81471 0.48822 0.23426 0.0
C591 C 0.78751 0.51413 0.2728 0.0
C592 C 0.77132 0.53522 0.27441 0.0
C593 C 0.8171 0.47397 0.27149 0.0
C594 C 0.80443 0.47985 0.30986 0.0
C595 C 0.78975 0.4998 0.31 0.0
C596 C 0.80733 0.46633 0.35093 0.0
C597 C 0.83396 0.45337 0.26994 0.0
C598 C 0.8018 0.44221 0.35297 0.0
C599 C 0.8062 0.42932 0.39109 0.0
C600 C 0.81598 0.44044 0.42792 0.0
C601 C 0.82063 0.4648 0.42622 0.0
C602 C 0.81635 0.47761 0.38808 0.0
H603 H 0.8463 0.45463 0.2418 0.0
H604 H 0.84443 0.45225 0.3005 0.0
H605 H 0.82378 0.43675 0.26649 0.0
H606 H 0.79434 0.43329 0.32492 0.0
H607 H 0.80222 0.41063 0.3915 0.0
H608 H 0.57425 0.81119 0.62727 0.0
H609 H 0.54994 0.80865 0.56152 0.0
H610 H 0.49568 0.77284 0.63483 0.0
H611 H 0.51976 0.77537 0.7009 0.0
H612 H 0.52774 0.76801 0.5183 0.0
H613 H 0.46395 0.83363 0.5846 0.0
H614 H 0.49302 0.8297 0.60737 0.0
H615 H 0.47027 0.80852 0.61859 0.0
C616 C 0.55726 0.80254 0.62936 0.0
C617 C 0.54883 0.79369 0.66942 0.0
C618 C 0.54343 0.80107 0.59175 0.0
C619 C 0.52095 0.79085 0.59361 0.0
C620 C 0.51289 0.78107 0.633 0.0
H621 H 0.40889 0.79752 0.39874 0.0
H622 H 0.4317 0.78777 0.46413 0.0
C623 C 0.52671 0.78248 0.67064 0.0
C624 C 0.50551 0.79166 0.55483 0.0
H625 H 0.45638 0.81858 0.51451 0.0
C626 C 0.51204 0.77893 0.51744 0.0
C627 C 0.48505 0.80588 0.55406 0.0
C628 C 0.47763 0.82038 0.59311 0.0
C629 C 0.49866 0.78018 0.47897 0.0
C630 C 0.47858 0.79498 0.47777 0.0
C631 C 0.47176 0.80724 0.51556 0.0
C632 C 0.46511 0.79914 0.43709 0.0
C633 C 0.5061 0.76559 0.4401 0.0
C634 C 0.47633 0.80885 0.40034 0.0
C635 C 0.46339 0.81438 0.36297 0.0
C636 C 0.43891 0.81056 0.36182 0.0
C637 C 0.42772 0.80069 0.3986 0.0
C638 C 0.44072 0.79508 0.43595 0.0
H639 H 0.51667 0.75003 0.45026 0.0
H640 H 0.4906 0.75936 0.42125 0.0
H641 H 0.51725 0.77654 0.41818 0.0
H642 H 0.49502 0.81271 0.40092 0.0
H643 H 0.47253 0.82207 0.3353 0.0
H644 H 0.17148 0.57667 0.87436 0.0
H645 H 0.17566 0.55259 0.80851 0.0
H646 H 0.21728 0.50211 0.88023 0.0
H647 H 0.21339 0.52614 0.94627 0.0
H648 H 0.23458 0.51308 0.79369 0.0
H649 H 0.13961 0.48909 0.79691 0.0
H650 H 0.14553 0.52024 0.79806 0.0
H651 H 0.15443 0.50204 0.84321 0.0
C652 C 0.18172 0.56057 0.87609 0.0
C653 C 0.1919 0.55319 0.91568 0.0
C654 C 0.18401 0.54681 0.83848 0.0
C655 C 0.19645 0.52544 0.83982 0.0
C656 C 0.20751 0.51852 0.8787 0.0
H657 H 0.18033 0.41146 0.6536 0.0
H658 H 0.18428 0.43499 0.72011 0.0
C659 C 0.20522 0.53225 0.91638 0.0
C660 C 0.19699 0.50979 0.80122 0.0
H661 H 0.16153 0.47696 0.73502 0.0
C662 C 0.21866 0.50511 0.78082 0.0
C663 C 0.17621 0.49916 0.7851 0.0
C664 C 0.15263 0.50266 0.80709 0.0
C665 C 0.22001 0.4904 0.74397 0.0
C666 C 0.1991 0.4804 0.72702 0.0
C667 C 0.17752 0.48476 0.74798 0.0
C668 C 0.19897 0.4655 0.68731 0.0
C669 C 0.2438 0.48546 0.72386 0.0
C670 C 0.20606 0.47482 0.64689 0.0
C671 C 0.20389 0.46141 0.60881 0.0
C672 C 0.19436 0.4385 0.61047 0.0
C673 C 0.18772 0.42905 0.65118 0.0
C674 C 0.18996 0.44245 0.68922 0.0
H675 H 0.25835 0.48901 0.74722 0.0
H676 H 0.24507 0.46686 0.71271 0.0
H677 H 0.24635 0.49711 0.69506 0.0
H678 H 0.21259 0.49275 0.64457 0.0
H679 H 0.20908 0.46925 0.57797 0.0
loop_
_geom_bond_atom_site_label_1
_geom_bond_atom_site_label_2
_geom_bond_distance
_geom_bond_site_symmetry_2
_ccdc_geom_bond_type
C0 O1 1.160 . S
C0 O7 1.185 . S
O1 C0 1.160 . S
O2 Zn3 1.899 . S
O2 C10 1.284 . S
Zn3 O2 1.899 . S
Zn3 O4 2.032 . S
Zn3 O7 2.086 . S
Zn3 O12 1.977 . S
O4 Zn3 2.032 . S
O4 C8 1.278 . S
C5 O6 1.203 . S
C5 O12 1.267 . S
O6 C5 1.203 . S
O7 C0 1.185 . S
O7 Zn3 2.086 . S
C8 O4 1.278 . S
C8 O9 1.211 . S
O9 C8 1.211 . S
C10 O2 1.284 . S
C10 O11 1.273 . S
O11 C10 1.273 . S
O12 Zn3 1.977 . S
O12 C5 1.267 . S
C13 O14 1.160 . S
C13 O20 1.185 . S
O14 C13 1.160 . S
O15 Zn16 1.899 . S
O15 C23 1.284 . S
Zn16 O15 1.899 . S
Zn16 O17 2.032 . S
Zn16 O20 2.086 . S
Zn16 O25 1.977 . S
O17 Zn16 2.032 . S
O17 C21 1.278 . S
C18 O19 1.203 . S
C18 O25 1.267 . S
O19 C18 1.203 . S
O20 C13 1.185 . S
O20 Zn16 2.086 . S
C21 O17 1.278 . S
C21 O22 1.211 . S
O22 C21 1.211 . S
C23 O15 1.284 . S
C23 O24 1.273 . S
O24 C23 1.273 . S
O25 Zn16 1.977 . S
O25 C18 1.267 . S
C26 O27 1.160 . S
C26 O33 1.185 . S
O27 C26 1.160 . S
O28 Zn29 1.899 . S
O28 C36 1.284 . S
Zn29 O28 1.899 . S
Zn29 O30 2.032 . S
Zn29 O33 2.086 . S
Zn29 O38 1.977 . S
O30 Zn29 2.032 . S
O30 C34 1.278 . S
C31 O32 1.203 . S
C31 O38 1.267 . S
O32 C31 1.203 . S
O33 C26 1.185 . S
O33 Zn29 2.086 . S
C34 O30 1.278 . S
C34 O35 1.211 . S
O35 C34 1.211 . S
C36 O28 1.284 . S
C36 O37 1.273 . S
O37 C36 1.273 . S
O38 Zn29 1.977 . S
O38 C31 1.267 . S
C39 O40 1.160 . S
C39 O46 1.185 . S
O40 C39 1.160 . S
O41 Zn42 1.899 1_556 S
O41 C49 1.284 . S
Zn42 O41 1.899 1_554 S
Zn42 O43 2.032 . S
Zn42 O46 2.086 . S
Zn42 O51 1.977 . S
O43 Zn42 2.032 . S
O43 C47 1.278 . S
C44 O45 1.209 . S
C44 O51 1.267 . S
O45 C44 1.209 . S
O46 C39 1.185 . S
O46 Zn42 2.086 . S
C47 O43 1.278 . S
C47 O48 1.211 . S
O48 C47 1.211 . S
C49 O41 1.284 . S
C49 O50 1.273 . S
O50 C49 1.273 . S
O51 Zn42 1.977 . S
O51 C44 1.267 . S
C52 O53 1.160 . S
C52 O59 1.185 . S
O53 C52 1.160 . S
O54 Zn55 1.899 . S
O54 C62 1.284 . S
Zn55 O54 1.899 . S
Zn55 O56 2.032 . S
Zn55 O59 2.086 . S
Zn55 O64 1.977 . S
O56 Zn55 2.032 . S
O56 C60 1.278 . S
C57 O58 1.203 . S
C57 O64 1.267 . S
O58 C57 1.203 . S
O59 C52 1.185 . S
O59 Zn55 2.086 . S
C60 O56 1.278 . S
C60 O61 1.211 . S
O61 C60 1.211 . S
C62 O54 1.284 . S
C62 O63 1.273 . S
O63 C62 1.273 . S
O64 Zn55 1.977 . S
O64 C57 1.267 . S
C65 O66 1.160 . S
C65 O72 1.185 . S
O66 C65 1.160 . S
O67 Zn68 1.899 . S
O67 C75 1.284 . S
Zn68 O67 1.899 . S
Zn68 O69 2.032 . S
Zn68 O72 2.086 . S
Zn68 O77 1.977 . S
O69 Zn68 2.032 . S
O69 C73 1.278 . S
C70 O71 1.203 . S
C70 O77 1.267 . S
O71 C70 1.203 . S
O72 C65 1.185 . S
O72 Zn68 2.086 . S
C73 O69 1.278 . S
C73 O74 1.211 . S
O74 C73 1.211 . S
C75 O67 1.284 . S
C75 O76 1.273 . S
O76 C75 1.273 . S
O77 Zn68 1.977 . S
O77 C70 1.267 . S
C78 O79 1.160 . S
C78 O85 1.185 . S
O79 C78 1.160 . S
O80 Zn81 1.899 . S
O80 C88 1.284 . S
Zn81 O80 1.899 . S
Zn81 O82 2.032 . S
Zn81 O85 2.086 . S
Zn81 O90 1.977 . S
O82 Zn81 2.032 . S
O82 C86 1.278 . S
C83 O84 1.203 . S
C83 O90 1.267 . S
O84 C83 1.203 . S
O85 C78 1.185 . S
O85 Zn81 2.086 . S
C86 O82 1.278 . S
C86 O87 1.211 . S
O87 C86 1.211 . S
C88 O80 1.284 . S
C88 O89 1.273 . S
O89 C88 1.273 . S
O90 Zn81 1.977 . S
O90 C83 1.267 . S
C91 O92 1.160 . S
C91 O98 1.185 1_554 S
O92 C91 1.160 . S
O93 Zn94 1.899 . S
O93 C101 1.284 . S
Zn94 O93 1.899 . S
Zn94 O95 2.032 1_554 S
Zn94 O98 2.086 1_554 S
Zn94 O103 1.977 . S
O95 Zn94 2.032 1_556 S
O95 C99 1.278 . S
C96 O97 1.203 . S
C96 O103 1.267 . S
O97 C96 1.203 . S
O98 C91 1.185 1_556 S
O98 Zn94 2.086 1_556 S
C99 O95 1.278 . S
C99 O100 1.211 . S
O100 C99 1.211 . S
C101 O93 1.284 . S
C101 O102 1.273 . S
O102 C101 1.273 . S
O103 Zn94 1.977 . S
O103 C96 1.267 . S
H104 C112 0.929 . S
H105 C114 0.930 . S
H106 C116 0.930 . S
H107 C119 0.929 . S
H108 C122 0.930 . S
H109 C124 0.960 . S
H110 C124 0.960 . S
H111 C124 0.960 . S
C112 H104 0.929 . S
C112 C113 1.377 . S
C112 C114 1.384 . S
C113 C112 1.377 . S
C113 C119 1.390 . S
C114 H105 0.930 . S
C114 C112 1.384 . S
C114 C115 1.372 . S
C115 C114 1.372 . S
C115 C116 1.400 . S
C115 C120 1.490 . S
C116 H106 0.930 . S
C116 C115 1.400 . S
C116 C119 1.386 . S
H117 C133 0.930 . S
H118 C134 0.931 . S
C119 H107 0.929 . S
C119 C113 1.390 . S
C119 C116 1.386 . S
C120 C115 1.490 . S
C120 C122 1.395 . S
C120 C123 1.403 . S
H121 C127 0.930 . S
C122 H108 0.930 . S
C122 C120 1.395 . S
C122 C125 1.403 . S
C123 C120 1.403 . S
C123 C124 1.524 . S
C123 C127 1.400 . S
C124 H109 0.960 . S
C124 H110 0.960 . S
C124 H111 0.960 . S
C124 C123 1.524 . S
C125 C122 1.403 . S
C125 C126 1.392 . S
C125 C129 1.495 . S
C126 C125 1.392 . S
C126 C127 1.385 . S
C126 C128 1.478 . S
C127 H121 0.930 . S
C127 C123 1.400 . S
C127 C126 1.385 . S
C128 C126 1.478 . S
C128 C130 1.381 . S
C128 C134 1.383 . S
C129 C125 1.495 . S
C129 H135 0.959 . S
C129 H136 0.961 . S
C129 H137 0.960 . S
C130 C128 1.381 . S
C130 C131 1.394 . S
C130 H138 0.930 . S
C131 C130 1.394 . S
C131 C132 1.383 . S
C131 H139 0.929 . S
C132 C131 1.383 . S
C132 C133 1.377 . S
C133 H117 0.930 . S
C133 C132 1.377 . S
C133 C134 1.379 . S
C134 H118 0.931 . S
C134 C128 1.383 . S
C134 C133 1.379 . S
H135 C129 0.959 . S
H136 C129 0.961 . S
H137 C129 0.960 . S
H138 C130 0.930 . S
H139 C131 0.929 . S
H140 C148 0.929 . S
H141 C150 0.930 . S
H142 C152 0.930 . S
H143 C155 0.929 . S
H144 C158 0.930 . S
H145 C160 0.960 . S
H146 C160 0.960 . S
H147 C160 0.960 . S
C148 H140 0.929 . S
C148 C149 1.377 . S
C148 C150 1.384 . S
C149 C148 1.377 . S
C149 C155 1.390 . S
C150 H141 0.930 . S
C150 C148 1.384 . S
C150 C151 1.372 . S
C151 C150 1.372 . S
C151 C152 1.400 . S
C151 C156 1.490 . S
C152 H142 0.930 . S
C152 C151 1.400 . S
C152 C155 1.386 . S
H153 C169 0.930 . S
H154 C170 0.931 . S
C155 H143 0.929 . S
C155 C149 1.390 . S
C155 C152 1.386 . S
C156 C151 1.490 . S
C156 C158 1.395 . S
C156 C159 1.403 . S
H157 C163 0.930 . S
C158 H144 0.930 . S
C158 C156 1.395 . S
C158 C161 1.403 . S
C159 C156 1.403 . S
C159 C160 1.524 . S
C159 C163 1.400 . S
C160 H145 0.960 . S
C160 H146 0.960 . S
C160 H147 0.960 . S
C160 C159 1.524 . S
C161 C158 1.403 . S
C161 C162 1.392 . S
C161 C165 1.495 . S
C162 C161 1.392 . S
C162 C163 1.385 . S
C162 C164 1.478 . S
C163 H157 0.930 . S
C163 C159 1.400 . S
C163 C162 1.385 . S
C164 C162 1.478 . S
C164 C166 1.381 . S
C164 C170 1.383 . S
C165 C161 1.495 . S
C165 H171 0.959 . S
C165 H172 0.961 . S
C165 H173 0.960 . S
C166 C164 1.381 . S
C166 C167 1.394 . S
C166 H174 0.930 . S
C167 C166 1.394 . S
C167 C168 1.383 . S
C167 H175 0.929 . S
C168 C167 1.383 . S
C168 C169 1.377 . S
C169 H153 0.930 . S
C169 C168 1.377 . S
C169 C170 1.379 . S
C170 H154 0.931 . S
C170 C164 1.383 . S
C170 C169 1.379 . S
H171 C165 0.959 . S
H172 C165 0.961 . S
H173 C165 0.960 . S
H174 C166 0.930 . S
H175 C167 0.929 . S
H176 C184 0.929 . S
H177 C186 0.930 . S
H178 C188 0.930 . S
H179 C191 0.929 . S
H180 C194 0.930 . S
H181 C196 0.960 1_556 S
H182 C196 0.960 . S
H183 C196 0.960 . S
C184 H176 0.929 . S
C184 C185 1.377 . S
C184 C186 1.384 . S
C185 C184 1.377 . S
C185 C191 1.390 . S
C186 H177 0.930 . S
C186 C184 1.384 . S
C186 C187 1.372 . S
C187 C186 1.372 . S
C187 C188 1.400 . S
C187 C192 1.490 . S
C188 H178 0.930 . S
C188 C187 1.400 . S
C188 C191 1.386 . S
H189 C205 0.930 . S
H190 C206 0.931 . S
C191 H179 0.929 . S
C191 C185 1.390 . S
C191 C188 1.386 . S
C192 C187 1.490 . S
C192 C194 1.395 . S
C192 C195 1.403 . S
H193 C199 0.930 . S
C194 H180 0.930 . S
C194 C192 1.395 . S
C194 C197 1.403 . S
C195 C192 1.403 . S
C195 C196 1.524 . S
C195 C199 1.400 1_554 S
C196 H181 0.960 1_554 S
C196 H182 0.960 . S
C196 H183 0.960 . S
C196 C195 1.524 . S
C197 C194 1.403 . S
C197 C198 1.392 1_554 S
C197 C201 1.495 . S
C198 C197 1.392 1_556 S
C198 C199 1.385 . S
C198 C200 1.478 . S
C199 H193 0.930 . S
C199 C195 1.400 1_556 S
C199 C198 1.385 . S
C200 C198 1.478 . S
C200 C202 1.381 . S
C200 C206 1.383 . S
C201 C197 1.495 . S
C201 H207 0.959 . S
C201 H208 0.961 . S
C201 H209 0.960 . S
C202 C200 1.381 . S
C202 C203 1.394 . S
C202 H210 0.930 . S
C203 C202 1.394 . S
C203 C204 1.383 . S
C203 H211 0.929 . S
C204 C203 1.383 . S
C204 C205 1.377 . S
C205 H189 0.930 . S
C205 C204 1.377 . S
C205 C206 1.379 . S
C206 H190 0.931 . S
C206 C200 1.383 . S
C206 C205 1.379 . S
H207 C201 0.959 . S
H208 C201 0.961 . S
H209 C201 0.960 . S
H210 C202 0.930 . S
H211 C203 0.929 . S
H212 C220 0.929 . S
H213 C222 0.930 . S
H214 C224 0.930 . S
H215 C227 0.929 . S
H216 C230 0.930 . S
H217 C232 0.960 . S
H218 C232 0.960 . S
H219 C232 0.960 . S
C220 H212 0.929 . S
C220 C221 1.377 . S
C220 C222 1.384 . S
C221 C220 1.377 . S
C221 C227 1.390 . S
C222 H213 0.930 . S
C222 C220 1.384 . S
C222 C223 1.372 . S
C223 C222 1.372 . S
C223 C224 1.400 . S
C223 C228 1.490 . S
C224 H214 0.930 . S
C224 C223 1.400 . S
C224 C227 1.386 . S
H225 C241 0.930 . S
H226 C242 0.931 . S
C227 H215 0.929 . S
C227 C221 1.390 . S
C227 C224 1.386 . S
C228 C223 1.490 . S
C228 C230 1.395 . S
C228 C231 1.403 . S
H229 C235 0.930 . S
C230 H216 0.930 . S
C230 C228 1.395 . S
C230 C233 1.403 . S
C231 C228 1.403 . S
C231 C232 1.524 . S
C231 C235 1.400 . S
C232 H217 0.960 . S
C232 H218 0.960 . S
C232 H219 0.960 . S
C232 C231 1.524 . S
C233 C230 1.403 . S
C233 C234 1.392 . S
C233 C237 1.495 . S
C234 C233 1.392 . S
C234 C235 1.385 . S
C234 C236 1.478 . S
C235 H229 0.930 . S
C235 C231 1.400 . S
C235 C234 1.385 . S
C236 C234 1.478 . S
C236 C238 1.381 . S
C236 C242 1.383 . S
C237 C233 1.495 . S
C237 H243 0.959 . S
C237 H244 0.961 . S
C237 H245 0.960 . S
C238 C236 1.381 . S
C238 C239 1.394 . S
C238 H246 0.930 . S
C239 C238 1.394 . S
C239 C240 1.383 . S
C239 H247 0.929 . S
C240 C239 1.383 . S
C240 C241 1.377 . S
C241 H225 0.930 . S
C241 C240 1.377 . S
C241 C242 1.379 . S
C242 H226 0.931 . S
C242 C236 1.383 . S
C242 C241 1.379 . S
H243 C237 0.959 . S
H244 C237 0.961 . S
H245 C237 0.960 . S
H246 C238 0.930 . S
H247 C239 0.929 . S
H248 C256 0.929 . S
H249 C258 0.930 . S
H250 C260 0.930 . S
H251 C263 0.929 . S
H252 C266 0.930 . S
H253 C268 0.960 . S
H254 C268 0.960 . S
H255 C268 0.960 . S
C256 H248 0.929 . S
C256 C257 1.377 . S
C256 C258 1.384 . S
C257 C256 1.377 . S
C257 C263 1.390 . S
C258 H249 0.930 . S
C258 C256 1.384 . S
C258 C259 1.372 . S
C259 C258 1.372 . S
C259 C260 1.400 . S
C259 C264 1.490 . S
C260 H250 0.930 . S
C260 C259 1.400 . S
C260 C263 1.386 . S
H261 C277 0.930 . S
H262 C278 0.931 . S
C263 H251 0.929 . S
C263 C257 1.390 . S
C263 C260 1.386 . S
C264 C259 1.490 . S
C264 C266 1.395 . S
C264 C267 1.403 . S
H265 C271 0.930 . S
C266 H252 0.930 . S
C266 C264 1.395 . S
C266 C269 1.403 . S
C267 C264 1.403 . S
C267 C268 1.524 . S
C267 C271 1.400 . S
C268 H253 0.960 . S
C268 H254 0.960 . S
C268 H255 0.960 . S
C268 C267 1.524 . S
C269 C266 1.403 . S
C269 C270 1.392 . S
C269 C273 1.495 . S
C270 C269 1.392 . S
C270 C271 1.385 . S
C270 C272 1.478 . S
C271 H265 0.930 . S
C271 C267 1.400 . S
C271 C270 1.385 . S
C272 C270 1.478 . S
C272 C274 1.381 . S
C272 C278 1.383 . S
C273 C269 1.495 . S
C273 H279 0.959 . S
C273 H280 0.961 . S
C273 H281 0.960 . S
C274 C272 1.381 . S
C274 C275 1.394 . S
C274 H282 0.930 . S
C275 C274 1.394 . S
C275 C276 1.383 . S
C275 H283 0.929 . S
C276 C275 1.383 . S
C276 C277 1.377 . S
C277 H261 0.930 . S
C277 C276 1.377 . S
C277 C278 1.379 . S
C278 H262 0.931 . S
C278 C272 1.383 . S
C278 C277 1.379 . S
H279 C273 0.959 . S
H280 C273 0.961 . S
H281 C273 0.960 . S
H282 C274 0.930 . S
H283 C275 0.929 . S
H284 C292 0.929 . S
H285 C294 0.930 . S
H286 C296 0.930 . S
H287 C299 0.929 . S
H288 C302 0.930 . S
H289 C304 0.960 . S
H290 C304 0.960 . S
H291 C304 0.960 . S
C292 H284 0.929 . S
C292 C293 1.377 . S
C292 C294 1.384 . S
C293 C292 1.377 . S
C293 C299 1.390 . S
C294 H285 0.930 . S
C294 C292 1.384 . S
C294 C295 1.372 . S
C295 C294 1.372 . S
C295 C296 1.400 . S
C295 C300 1.490 . S
C296 H286 0.930 . S
C296 C295 1.400 . S
C296 C299 1.386 . S
H297 C313 0.930 . S
H298 C314 0.931 . S
C299 H287 0.929 . S
C299 C293 1.390 . S
C299 C296 1.386 . S
C300 C295 1.490 . S
C300 C302 1.395 . S
C300 C303 1.403 . S
H301 C307 0.930 . S
C302 H288 0.930 . S
C302 C300 1.395 . S
C302 C305 1.403 . S
C303 C300 1.403 . S
C303 C304 1.524 . S
C303 C307 1.400 . S
C304 H289 0.960 . S
C304 H290 0.960 . S
C304 H291 0.960 . S
C304 C303 1.524 . S
C305 C302 1.403 . S
C305 C306 1.392 . S
C305 C309 1.495 . S
C306 C305 1.392 . S
C306 C307 1.385 . S
C306 C308 1.478 . S
C307 H301 0.930 . S
C307 C303 1.400 . S
C307 C306 1.385 . S
C308 C306 1.478 . S
C308 C310 1.381 . S
C308 C314 1.383 . S
C309 C305 1.495 . S
C309 H315 0.959 . S
C309 H316 0.961 . S
C309 H317 0.960 . S
C310 C308 1.381 . S
C310 C311 1.394 . S
C310 H318 0.930 . S
C311 C310 1.394 . S
C311 C312 1.383 . S
C311 H319 0.929 . S
C312 C311 1.383 . S
C312 C313 1.377 . S
C313 H297 0.930 . S
C313 C312 1.377 . S
C313 C314 1.379 . S
C314 H298 0.931 . S
C314 C308 1.383 . S
C314 C313 1.379 . S
H315 C309 0.959 . S
H316 C309 0.961 . S
H317 C309 0.960 . S
H318 C310 0.930 . S
H319 C311 0.929 . S
H320 C328 0.929 . S
H321 C330 0.930 . S
H322 C332 0.930 . S
H323 C335 0.929 1_554 S
H324 C338 0.930 . S
H325 C340 0.960 . S
H326 C340 0.960 . S
H327 C340 0.960 . S
C328 H320 0.929 . S
C328 C329 1.377 . S
C328 C330 1.384 . S
C329 C328 1.377 . S
C329 C335 1.390 . S
C330 H321 0.930 . S
C330 C328 1.384 . S
C330 C331 1.372 . S
C331 C330 1.372 . S
C331 C332 1.400 . S
C331 C336 1.490 . S
C332 H322 0.930 . S
C332 C331 1.400 . S
C332 C335 1.386 . S
H333 C349 0.930 . S
H334 C350 0.931 . S
C335 H323 0.929 1_556 S
C335 C329 1.390 . S
C335 C332 1.386 . S
C336 C331 1.490 . S
C336 C338 1.395 . S
C336 C339 1.403 . S
H337 C343 0.930 . S
C338 H324 0.930 . S
C338 C336 1.395 . S
C338 C341 1.403 . S
C339 C336 1.403 . S
C339 C340 1.524 . S
C339 C343 1.400 . S
C340 H325 0.960 . S
C340 H326 0.960 . S
C340 H327 0.960 . S
C340 C339 1.524 . S
C341 C338 1.403 . S
C341 C342 1.392 . S
C341 C345 1.495 . S
C342 C341 1.392 . S
C342 C343 1.385 . S
C342 C344 1.478 . S
C343 H337 0.930 . S
C343 C339 1.400 . S
C343 C342 1.385 . S
C344 C342 1.478 . S
C344 C346 1.381 . S
C344 C350 1.383 . S
C345 C341 1.495 . S
C345 H351 0.959 . S
C345 H352 0.961 . S
C345 H353 0.960 . S
C346 C344 1.381 . S
C346 C347 1.394 . S
C346 H354 0.930 . S
C347 C346 1.394 . S
C347 C348 1.383 . S
C347 H355 0.929 . S
C348 C347 1.383 . S
C348 C349 1.377 . S
C349 H333 0.930 . S
C349 C348 1.377 . S
C349 C350 1.379 . S
C350 H334 0.931 . S
C350 C344 1.383 . S
C350 C349 1.379 . S
H351 C345 0.959 . S
H352 C345 0.961 . S
H353 C345 0.960 . S
H354 C346 0.930 . S
H355 C347 0.929 . S
H356 C364 0.929 . S
H357 C366 0.930 . S
H358 C368 0.930 . S
H359 C371 0.929 . S
H360 C374 0.930 . S
H361 C376 0.960 . S
H362 C376 0.960 . S
H363 C376 0.960 . S
C364 H356 0.929 . S
C364 C365 1.377 . S
C364 C366 1.384 . S
C365 C364 1.377 . S
C365 C371 1.390 . S
C366 H357 0.930 . S
C366 C364 1.384 . S
C366 C367 1.372 . S
C367 C366 1.372 . S
C367 C368 1.400 . S
C367 C372 1.490 . S
C368 H358 0.930 . S
C368 C367 1.400 . S
C368 C371 1.386 . S
H369 C385 0.930 . S
H370 C386 0.931 . S
C371 H359 0.929 . S
C371 C365 1.390 . S
C371 C368 1.386 . S
C372 C367 1.490 . S
C372 C374 1.395 . S
C372 C375 1.403 . S
H373 C379 0.930 . S
C374 H360 0.930 . S
C374 C372 1.395 . S
C374 C377 1.403 . S
C375 C372 1.403 . S
C375 C376 1.524 . S
C375 C379 1.400 . S
C376 H361 0.960 . S
C376 H362 0.960 . S
C376 H363 0.960 . S
C376 C375 1.524 . S
C377 C374 1.403 . S
C377 C378 1.392 . S
C377 C381 1.495 . S
C378 C377 1.392 . S
C378 C379 1.385 . S
C378 C380 1.478 . S
C379 H373 0.930 . S
C379 C375 1.400 . S
C379 C378 1.385 . S
C380 C378 1.478 . S
C380 C382 1.381 . S
C380 C386 1.383 . S
C381 C377 1.495 . S
C381 H387 0.959 . S
C381 H388 0.961 . S
C381 H389 0.960 . S
C382 C380 1.381 . S
C382 C383 1.394 . S
C382 H390 0.930 . S
C383 C382 1.394 . S
C383 C384 1.383 . S
C383 H391 0.929 . S
C384 C383 1.383 . S
C384 C385 1.377 . S
C385 H369 0.930 . S
C385 C384 1.377 . S
C385 C386 1.379 . S
C386 H370 0.931 . S
C386 C380 1.383 . S
C386 C385 1.379 . S
H387 C381 0.959 . S
H388 C381 0.961 . S
H389 C381 0.960 . S
H390 C382 0.930 . S
H391 C383 0.929 . S
H392 C400 0.929 . S
H393 C402 0.930 . S
H394 C404 0.930 . S
H395 C407 0.929 . S
H396 C410 0.930 . S
H397 C412 0.960 . S
H398 C412 0.960 . S
H399 C412 0.960 . S
C400 H392 0.929 . S
C400 C401 1.377 . S
C400 C402 1.384 . S
C401 C400 1.377 . S
C401 C407 1.390 . S
C402 H393 0.930 . S
C402 C400 1.384 . S
C402 C403 1.372 . S
C403 C402 1.372 . S
C403 C404 1.400 . S
C403 C408 1.490 . S
C404 H394 0.930 . S
C404 C403 1.400 . S
C404 C407 1.386 . S
H405 C421 0.930 . S
H406 C422 0.931 . S
C407 H395 0.929 . S
C407 C401 1.390 . S
C407 C404 1.386 . S
C408 C403 1.490 . S
C408 C410 1.395 . S
C408 C411 1.403 . S
H409 C415 0.930 . S
C410 H396 0.930 . S
C410 C408 1.395 . S
C410 C413 1.403 1_565 S
C411 C408 1.403 . S
C411 C412 1.524 . S
C411 C415 1.400 1_565 S
C412 H397 0.960 . S
C412 H398 0.960 . S
C412 H399 0.960 . S
C412 C411 1.524 . S
C413 C410 1.403 1_545 S
C413 C414 1.392 . S
C413 C417 1.495 . S
C414 C413 1.392 . S
C414 C415 1.385 . S
C414 C416 1.478 . S
C415 H409 0.930 . S
C415 C411 1.400 1_545 S
C415 C414 1.385 . S
C416 C414 1.478 . S
C416 C418 1.381 . S
C416 C422 1.383 . S
C417 C413 1.495 . S
C417 H423 0.959 . S
C417 H424 0.961 . S
C417 H425 0.960 . S
C418 C416 1.381 . S
C418 C419 1.394 . S
C418 H426 0.930 . S
C419 C418 1.394 . S
C419 C420 1.383 . S
C419 H427 0.929 . S
C420 C419 1.383 . S
C420 C421 1.377 . S
C421 H405 0.930 . S
C421 C420 1.377 . S
C421 C422 1.379 . S
C422 H406 0.931 . S
C422 C416 1.383 . S
C422 C421 1.379 . S
H423 C417 0.959 . S
H424 C417 0.961 . S
H425 C417 0.960 . S
H426 C418 0.930 . S
H427 C419 0.929 . S
H428 C436 0.929 . S
H429 C438 0.930 . S
H430 C440 0.930 . S
H431 C443 0.929 . S
H432 C446 0.930 . S
H433 C448 0.960 . S
H434 C448 0.960 . S
H435 C448 0.960 . S
C436 H428 0.929 . S
C436 C437 1.377 . S
C436 C438 1.384 . S
C437 C436 1.377 . S
C437 C443 1.390 . S
C438 H429 0.930 . S
C438 C436 1.384 . S
C438 C439 1.372 . S
C439 C438 1.372 . S
C439 C440 1.400 . S
C439 C444 1.490 . S
C440 H430 0.930 . S
C440 C439 1.400 . S
C440 C443 1.386 . S
H441 C457 0.930 . S
H442 C458 0.931 . S
C443 H431 0.929 . S
C443 C437 1.390 . S
C443 C440 1.386 . S
C444 C439 1.490 . S
C444 C446 1.395 . S
C444 C447 1.403 . S
H445 C451 0.930 . S
C446 H432 0.930 . S
C446 C444 1.395 . S
C446 C449 1.403 1_655 S
C447 C444 1.403 . S
C447 C448 1.524 . S
C447 C451 1.400 1_655 S
C448 H433 0.960 . S
C448 H434 0.960 . S
C448 H435 0.960 . S
C448 C447 1.524 . S
C449 C446 1.403 1_455 S
C449 C450 1.392 . S
C449 C453 1.495 . S
C450 C449 1.392 . S
C450 C451 1.385 . S
C450 C452 1.478 . S
C451 H445 0.930 . S
C451 C447 1.400 1_455 S
C451 C450 1.385 . S
C452 C450 1.478 . S
C452 C454 1.381 . S
C452 C458 1.383 . S
C453 C449 1.495 . S
C453 H459 0.959 . S
C453 H460 0.961 . S
C453 H461 0.960 . S
C454 C452 1.381 . S
C454 C455 1.394 . S
C454 H462 0.930 . S
C455 C454 1.394 . S
C455 C456 1.383 . S
C455 H463 0.929 . S
C456 C455 1.383 . S
C456 C457 1.377 . S
C457 H441 0.930 . S
C457 C456 1.377 . S
C457 C458 1.379 . S
C458 H442 0.931 . S
C458 C452 1.383 . S
C458 C457 1.379 . S
H459 C453 0.959 . S
H460 C453 0.961 . S
H461 C453 0.960 . S
H462 C454 0.930 . S
H463 C455 0.929 . S
H464 C472 0.929 . S
H465 C474 0.930 . S
H466 C476 0.930 . S
H467 C479 0.929 . S
H468 C482 0.930 . S
H469 C484 0.960 . S
H470 C484 0.960 . S
H471 C484 0.960 . S
C472 H464 0.929 . S
C472 C473 1.377 . S
C472 C474 1.384 . S
C473 C472 1.377 . S
C473 C479 1.390 . S
C474 H465 0.930 . S
C474 C472 1.384 . S
C474 C475 1.372 . S
C475 C474 1.372 . S
C475 C476 1.400 . S
C475 C480 1.490 . S
C476 H466 0.930 . S
C476 C475 1.400 . S
C476 C479 1.386 . S
H477 C493 0.930 . S
H478 C494 0.931 . S
C479 H467 0.929 . S
C479 C473 1.390 . S
C479 C476 1.386 . S
C480 C475 1.490 . S
C480 C482 1.395 . S
C480 C483 1.403 . S
H481 C487 0.930 . S
C482 H468 0.930 . S
C482 C480 1.395 . S
C482 C485 1.403 1_565 S
C483 C480 1.403 . S
C483 C484 1.524 . S
C483 C487 1.400 1_565 S
C484 H469 0.960 . S
C484 H470 0.960 . S
C484 H471 0.960 . S
C484 C483 1.524 . S
C485 C482 1.403 1_545 S
C485 C486 1.392 . S
C485 C489 1.495 . S
C486 C485 1.392 . S
C486 C487 1.385 . S
C486 C488 1.478 . S
C487 H481 0.930 . S
C487 C483 1.400 1_545 S
C487 C486 1.385 . S
C488 C486 1.478 . S
C488 C490 1.381 . S
C488 C494 1.383 . S
C489 C485 1.495 . S
C489 H495 0.959 . S
C489 H496 0.961 . S
C489 H497 0.960 . S
C490 C488 1.381 . S
C490 C491 1.394 . S
C490 H498 0.930 . S
C491 C490 1.394 . S
C491 C492 1.383 . S
C491 H499 0.929 . S
C492 C491 1.383 . S
C492 C493 1.377 . S
C493 H477 0.930 . S
C493 C492 1.377 . S
C493 C494 1.379 . S
C494 H478 0.931 . S
C494 C488 1.383 . S
C494 C493 1.379 . S
H495 C489 0.959 . S
H496 C489 0.961 . S
H497 C489 0.960 . S
H498 C490 0.930 . S
H499 C491 0.929 . S
H500 C508 0.929 . S
H501 C510 0.930 . S
H502 C512 0.930 . S
H503 C515 0.929 . S
H504 C518 0.930 . S
H505 C520 0.960 . S
H506 C520 0.960 . S
H507 C520 0.960 . S
C508 H500 0.929 . S
C508 C509 1.377 1_556 S
C508 C510 1.384 . S
C509 C508 1.377 1_554 S
C509 C515 1.390 . S
C510 H501 0.930 . S
C510 C508 1.384 . S
C510 C511 1.372 1_556 S
C511 C510 1.372 1_554 S
C511 C512 1.400 . S
C511 C516 1.490 . S
C512 H502 0.930 . S
C512 C511 1.400 . S
C512 C515 1.386 . S
H513 C529 0.930 . S
H514 C530 0.931 . S
C515 H503 0.929 . S
C515 C509 1.390 . S
C515 C512 1.386 . S
C516 C511 1.490 . S
C516 C518 1.395 1_554 S
C516 C519 1.403 . S
H517 C523 0.930 . S
C518 H504 0.930 . S
C518 C516 1.395 1_556 S
C518 C521 1.403 1_655 S
C519 C516 1.403 . S
C519 C520 1.524 . S
C519 C523 1.400 1_655 S
C520 H505 0.960 . S
C520 H506 0.960 . S
C520 H507 0.960 . S
C520 C519 1.524 . S
C521 C518 1.403 1_455 S
C521 C522 1.392 1_556 S
C521 C525 1.495 . S
C522 C521 1.392 1_554 S
C522 C523 1.385 . S
C522 C524 1.478 . S
C523 H517 0.930 . S
C523 C519 1.400 1_455 S
C523 C522 1.385 . S
C524 C522 1.478 . S
C524 C526 1.381 1_554 S
C524 C530 1.383 . S
C525 C521 1.495 . S
C525 H531 0.959 . S
C525 H532 0.961 . S
C525 H533 0.960 . S
C526 C524 1.381 1_556 S
C526 C527 1.394 . S
C526 H534 0.930 . S
C527 C526 1.394 . S
C527 C528 1.383 1_556 S
C527 H535 0.929 . S
C528 C527 1.383 1_554 S
C528 C529 1.377 . S
C529 H513 0.930 . S
C529 C528 1.377 . S
C529 C530 1.379 . S
C530 H514 0.931 . S
C530 C524 1.383 . S
C530 C529 1.379 . S
H531 C525 0.959 . S
H532 C525 0.961 . S
H533 C525 0.960 . S
H534 C526 0.930 . S
H535 C527 0.929 . S
H536 C544 0.929 . S
H537 C546 0.930 . S
H538 C548 0.930 . S
H539 C551 0.929 . S
H540 C554 0.930 . S
H541 C556 0.960 . S
H542 C556 0.960 . S
H543 C556 0.960 . S
C544 H536 0.929 . S
C544 C545 1.377 . S
C544 C546 1.384 . S
C545 C544 1.377 . S
C545 C551 1.390 . S
C546 H537 0.930 . S
C546 C544 1.384 . S
C546 C547 1.372 . S
C547 C546 1.372 . S
C547 C548 1.400 . S
C547 C552 1.490 . S
C548 H538 0.930 . S
C548 C547 1.400 . S
C548 C551 1.386 . S
H549 C565 0.930 . S
H550 C566 0.931 . S
C551 H539 0.929 . S
C551 C545 1.390 . S
C551 C548 1.386 . S
C552 C547 1.490 . S
C552 C554 1.395 1_556 S
C552 C555 1.403 . S
H553 C559 0.930 . S
C554 H540 0.930 . S
C554 C552 1.395 1_554 S
C554 C557 1.403 . S
C555 C552 1.403 . S
C555 C556 1.524 . S
C555 C559 1.400 1_556 S
C556 H541 0.960 . S
C556 H542 0.960 . S
C556 H543 0.960 . S
C556 C555 1.524 . S
C557 C554 1.403 . S
C557 C558 1.392 . S
C557 C561 1.495 . S
C558 C557 1.392 . S
C558 C559 1.385 . S
C558 C560 1.478 . S
C559 H553 0.930 . S
C559 C555 1.400 1_554 S
C559 C558 1.385 . S
C560 C558 1.478 . S
C560 C562 1.381 . S
C560 C566 1.383 . S
C561 C557 1.495 . S
C561 H567 0.959 . S
C561 H568 0.961 . S
C561 H569 0.960 . S
C562 C560 1.381 . S
C562 C563 1.394 . S
C562 H570 0.930 . S
C563 C562 1.394 . S
C563 C564 1.383 . S
C563 H571 0.929 . S
C564 C563 1.383 . S
C564 C565 1.377 . S
C565 H549 0.930 . S
C565 C564 1.377 . S
C565 C566 1.379 . S
C566 H550 0.931 . S
C566 C560 1.383 . S
C566 C565 1.379 . S
H567 C561 0.959 . S
H568 C561 0.961 . S
H569 C561 0.960 . S
H570 C562 0.930 . S
H571 C563 0.929 . S
H572 C580 0.929 . S
H573 C582 0.930 . S
H574 C584 0.930 . S
H575 C587 0.929 . S
H576 C590 0.930 . S
H577 C592 0.960 . S
H578 C592 0.960 . S
H579 C592 0.960 . S
C580 H572 0.929 . S
C580 C581 1.377 . S
C580 C582 1.384 . S
C581 C580 1.377 . S
C581 C587 1.390 . S
C582 H573 0.930 . S
C582 C580 1.384 . S
C582 C583 1.372 . S
C583 C582 1.372 . S
C583 C584 1.400 . S
C583 C588 1.490 . S
C584 H574 0.930 . S
C584 C583 1.400 . S
C584 C587 1.386 . S
H585 C601 0.930 . S
H586 C602 0.931 . S
C587 H575 0.929 . S
C587 C581 1.390 . S
C587 C584 1.386 . S
C588 C583 1.490 . S
C588 C590 1.395 . S
C588 C591 1.403 . S
H589 C595 0.930 . S
C590 H576 0.930 . S
C590 C588 1.395 . S
C590 C593 1.403 . S
C591 C588 1.403 . S
C591 C592 1.524 . S
C591 C595 1.400 . S
C592 H577 0.960 . S
C592 H578 0.960 . S
C592 H579 0.960 . S
C592 C591 1.524 . S
C593 C590 1.403 . S
C593 C594 1.392 . S
C593 C597 1.495 . S
C594 C593 1.392 . S
C594 C595 1.385 . S
C594 C596 1.478 . S
C595 H589 0.930 . S
C595 C591 1.400 . S
C595 C594 1.385 . S
C596 C594 1.478 . S
C596 C598 1.381 . S
C596 C602 1.383 . S
C597 C593 1.495 . S
C597 H603 0.959 . S
C597 H604 0.961 . S
C597 H605 0.960 . S
C598 C596 1.381 . S
C598 C599 1.394 . S
C598 H606 0.930 . S
C599 C598 1.394 . S
C599 C600 1.383 . S
C599 H607 0.929 . S
C600 C599 1.383 . S
C600 C601 1.377 . S
C601 H585 0.930 . S
C601 C600 1.377 . S
C601 C602 1.379 . S
C602 H586 0.931 . S
C602 C596 1.383 . S
C602 C601 1.379 . S
H603 C597 0.959 . S
H604 C597 0.961 . S
H605 C597 0.960 . S
H606 C598 0.930 . S
H607 C599 0.929 . S
H608 C616 0.929 . S
H609 C618 0.930 . S
H610 C620 0.930 . S
H611 C623 0.929 . S
H612 C626 0.930 . S
H613 C628 0.960 . S
H614 C628 0.960 . S
H615 C628 0.960 . S
C616 H608 0.929 . S
C616 C617 1.377 . S
C616 C618 1.384 . S
C617 C616 1.377 . S
C617 C623 1.390 . S
C618 H609 0.930 . S
C618 C616 1.384 . S
C618 C619 1.372 . S
C619 C618 1.372 . S
C619 C620 1.400 . S
C619 C624 1.490 . S
C620 H610 0.930 . S
C620 C619 1.400 . S
C620 C623 1.386 . S
H621 C637 0.930 . S
H622 C638 0.931 . S
C623 H611 0.929 . S
C623 C617 1.390 . S
C623 C620 1.386 . S
C624 C619 1.490 . S
C624 C626 1.395 . S
C624 C627 1.403 . S
H625 C631 0.930 . S
C626 H612 0.930 . S
C626 C624 1.395 . S
C626 C629 1.403 . S
C627 C624 1.403 . S
C627 C628 1.524 . S
C627 C631 1.400 . S
C628 H613 0.960 . S
C628 H614 0.960 . S
C628 H615 0.960 . S
C628 C627 1.524 . S
C629 C626 1.403 . S
C629 C630 1.392 . S
C629 C633 1.495 . S
C630 C629 1.392 . S
C630 C631 1.385 . S
C630 C632 1.478 . S
C631 H625 0.930 . S
C631 C627 1.400 . S
C631 C630 1.385 . S
C632 C630 1.478 . S
C632 C634 1.381 . S
C632 C638 1.383 . S
C633 C629 1.495 . S
C633 H639 0.959 . S
C633 H640 0.961 . S
C633 H641 0.960 . S
C634 C632 1.381 . S
C634 C635 1.394 . S
C634 H642 0.930 . S
C635 C634 1.394 . S
C635 C636 1.383 . S
C635 H643 0.929 . S
C636 C635 1.383 . S
C636 C637 1.377 . S
C637 H621 0.930 . S
C637 C636 1.377 . S
C637 C638 1.379 . S
C638 H622 0.931 . S
C638 C632 1.383 . S
C638 C637 1.379 . S
H639 C633 0.959 . S
H640 C633 0.961 . S
H641 C633 0.960 . S
H642 C634 0.930 . S
H643 C635 0.929 . S
H644 C652 0.929 . S
H645 C654 0.930 . S
H646 C656 0.930 . S
H647 C659 0.929 . S
H648 C662 0.930 . S
H649 C664 0.960 . S
H650 C664 0.960 . S
H651 C664 0.960 . S
C652 H644 0.929 . S
C652 C653 1.377 . S
C652 C654 1.384 . S
C653 C652 1.377 . S
C653 C659 1.390 . S
C654 H645 0.930 . S
C654 C652 1.384 . S
C654 C655 1.372 . S
C655 C654 1.372 . S
C655 C656 1.400 . S
C655 C660 1.490 . S
C656 H646 0.930 . S
C656 C655 1.400 . S
C656 C659 1.386 . S
H657 C673 0.930 . S
H658 C674 0.931 . S
C659 H647 0.929 . S
C659 C653 1.390 . S
C659 C656 1.386 . S
C660 C655 1.490 . S
C660 C662 1.395 . S
C660 C663 1.403 . S
H661 C667 0.930 . S
C662 H648 0.930 . S
C662 C660 1.395 . S
C662 C665 1.403 . S
C663 C660 1.403 . S
C663 C664 1.524 . S
C663 C667 1.400 . S
C664 H649 0.960 . S
C664 H650 0.960 . S
C664 H651 0.960 . S
C664 C663 1.524 . S
C665 C662 1.403 . S
C665 C666 1.392 . S
C665 C669 1.495 . S
C666 C665 1.392 . S
C666 C667 1.385 . S
C666 C668 1.478 . S
C667 H661 0.930 . S
C667 C663 1.400 . S
C667 C666 1.385 . S
C668 C666 1.478 . S
C668 C670 1.381 . S
C668 C674 1.383 . S
C669 C665 1.495 . S
C669 H675 0.959 . S
C669 H676 0.961 . S
C669 H677 0.960 . S
C670 C668 1.381 . S
C670 C671 1.394 . S
C670 H678 0.930 . S
C671 C670 1.394 . S
C671 C672 1.383 . S
C671 H679 0.929 . S
C672 C671 1.383 . S
C672 C673 1.377 . S
C673 H657 0.930 . S
C673 C672 1.377 . S
C673 C674 1.379 . S
C674 H658 0.931 . S
C674 C668 1.383 . S
C674 C673 1.379 . S
H675 C669 0.959 . S
H676 C669 0.961 . S
H677 C669 0.960 . S
H678 C670 0.930 . S
H679 C671 0.929 . S
C113 C8 0.875 . S
C132 C86 0.918 . S
C149 C21 0.886 . S
C168 C99 0.867 . S
C185 C60 0.873 . S
C204 C34 0.855 . S
C221 C73 0.886 . S
C240 C47 0.868 . S
C257 C0 1.198 . S
C276 C65 1.186 . S
C293 C13 1.196 . S
C312 C78 1.211 . S
C329 C91 1.199 1_556 S
C348 C26 1.183 . S
C365 C39 1.197 . S
C384 C52 1.210 . S
C401 C57 1.288 . S
C420 C5 1.303 . S
C437 C18 1.277 . S
C456 C70 1.270 . S
C473 C31 1.287 . S
C492 C83 1.309 . S
C509 C96 1.278 . S
C528 C44 1.292 . S
C545 C88 1.491 . S
C564 C10 1.476 . S
C581 C101 1.494 . S
C600 C23 1.503 . S
C617 C36 1.490 . S
C636 C62 1.470 . S
C653 C49 1.492 . S
C672 C75 1.478 . S
