# Generated by pormake.
# Topology wjt, (5)-cn, num edge types: 1
# Building blocks:
#     Node 0, Type 0, BuildingBlock: XOMCOT_clean_sbu_1, # of connection points: 5
#     Node 1, Type 0, BuildingBlock: XOMCOT_clean_sbu_1, # of connection points: 5
#     Node 2, Type 0, BuildingBlock: XOMCOT_clean_sbu_1, # of connection points: 5
#     Node 3, Type 0, BuildingBlock: XOMCOT_clean_sbu_1, # of connection points: 5
#     Node 4, Type 0, BuildingBlock: XOMCOT_clean_sbu_1, # of connection points: 5
#     Node 5, Type 0, BuildingBlock: XOMCOT_clean_sbu_1, # of connection points: 5
#     Node 6, Type 0, BuildingBlock: XOMCOT_clean_sbu_1, # of connection points: 5
#     Node 7, Type 0, BuildingBlock: XOMCOT_clean_sbu_1, # of connection points: 5
#     Node 8, Type 0, BuildingBlock: XOMCOT_clean_sbu_1, # of connection points: 5
#     Node 9, Type 0, BuildingBlock: XOMCOT_clean_sbu_1, # of connection points: 5
#     Node 10, Type 0, BuildingBlock: XOMCOT_clean_sbu_1, # of connection points: 5
#     Node 11, Type 0, BuildingBlock: XOMCOT_clean_sbu_1, # of connection points: 5
#     Edge 12, Type (0, 0), BuildingBlock: CIFDUS_clean_linker_0, # of connection points: 2
#     Edge 13, Type (0, 0), BuildingBlock: CIFDUS_clean_linker_0, # of connection points: 2
#     Edge 14, Type (0, 0), BuildingBlock: CIFDUS_clean_linker_0, # of connection points: 2
#     Edge 15, Type (0, 0), BuildingBlock: CIFDUS_clean_linker_0, # of connection points: 2
#     Edge 16, Type (0, 0), BuildingBlock: CIFDUS_clean_linker_0, # of connection points: 2
#     Edge 17, Type (0, 0), BuildingBlock: CIFDUS_clean_linker_0, # of connection points: 2
#     Edge 18, Type (0, 0), BuildingBlock: CIFDUS_clean_linker_0, # of connection points: 2
#     Edge 19, Type (0, 0), BuildingBlock: CIFDUS_clean_linker_0, # of connection points: 2
#     Edge 20, Type (0, 0), BuildingBlock: CIFDUS_clean_linker_0, # of connection points: 2
#     Edge 21, Type (0, 0), BuildingBlock: CIFDUS_clean_linker_0, # of connection points: 2
#     Edge 22, Type (0, 0), BuildingBlock: CIFDUS_clean_linker_0, # of connection points: 2
#     Edge 23, Type (0, 0), BuildingBlock: CIFDUS_clean_linker_0, # of connection points: 2
#     Edge 24, Type (0, 0), BuildingBlock: CIFDUS_clean_linker_0, # of connection points: 2
#     Edge 25, Type (0, 0), BuildingBlock: CIFDUS_clean_linker_0, # of connection points: 2
#     Edge 26, Type (0, 0), BuildingBlock: CIFDUS_clean_linker_0, # of connection points: 2
#     Edge 27, Type (0, 0), BuildingBlock: CIFDUS_clean_linker_0, # of connection points: 2
#     Edge 28, Type (0, 0), BuildingBlock: CIFDUS_clean_linker_0, # of connection points: 2
#     Edge 29, Type (0, 0), BuildingBlock: CIFDUS_clean_linker_0, # of connection points: 2
#     Edge 30, Type (0, 0), BuildingBlock: CIFDUS_clean_linker_0, # of connection points: 2
#     Edge 31, Type (0, 0), BuildingBlock: CIFDUS_clean_linker_0, # of connection points: 2
#     Edge 32, Type (0, 0), BuildingBlock: CIFDUS_clean_linker_0, # of connection points: 2
#     Edge 33, Type (0, 0), BuildingBlock: CIFDUS_clean_linker_0, # of connection points: 2
#     Edge 34, Type (0, 0), BuildingBlock: CIFDUS_clean_linker_0, # of connection points: 2
#     Edge 35, Type (0, 0), BuildingBlock: CIFDUS_clean_linker_0, # of connection points: 2
#     Edge 36, Type (0, 0), BuildingBlock: CIFDUS_clean_linker_0, # of connection points: 2
#     Edge 37, Type (0, 0), BuildingBlock: CIFDUS_clean_linker_0, # of connection points: 2
#     Edge 38, Type (0, 0), BuildingBlock: CIFDUS_clean_linker_0, # of connection points: 2
#     Edge 39, Type (0, 0), BuildingBlock: CIFDUS_clean_linker_0, # of connection points: 2
#     Edge 40, Type (0, 0), BuildingBlock: CIFDUS_clean_linker_0, # of connection points: 2
#     Edge 41, Type (0, 0), BuildingBlock: CIFDUS_clean_linker_0, # of connection points: 2
# Relax obj value: 0.218
# Max RMSD: 0.164
# Mean RMSD: 0.164
data_MOF--net-wjt--node1-XOMCOT_clean_sbu_1--edge1-CIFDUS_clean_linker_0
_symmetry_space_group_name_H-M    P1
_symmetry_Int_Tables_number       1
_symmetry_cell_setting            triclinic
loop_
_symmetry_equiv_pos_as_xyz
'x, y, z'
_cell_length_a     60.522808
_cell_length_b     60.470854
_cell_length_c     15.45968
_cell_angle_alpha  90.065986
_cell_angle_beta   89.961008
_cell_angle_gamma 119.89875
loop_
_atom_site_label
_atom_site_type_symbol
_atom_site_fract_x
_atom_site_fract_y
_atom_site_fract_z
_atom_type_partial_charge
C0 C 0.27524 0.43119 0.37817 0.0
C1 C 0.27103 0.42862 0.46604 0.0
N2 N 0.28841 0.42384 0.5028 0.0
N3 N 0.2951 0.42786 0.35855 0.0
C4 C 0.3027 0.42341 0.43603 0.0
H5 H 0.26492 0.4361 0.33236 0.0
Co6 Co 0.31085 0.43219 0.24949 0.0
C7 C 0.31626 0.38536 0.23435 0.0
O8 O 0.31356 0.38369 0.14999 0.0
N9 N 0.32712 0.43709 0.1377 0.0
C10 C 0.3553 0.4537 0.02971 0.0
C11 C 0.35166 0.45388 0.11731 0.0
C12 C 0.3164 0.42701 0.05946 0.0
N13 N 0.33308 0.43684 0.99272 0.0
O14 O 0.27778 0.41128 0.19583 0.0
H15 H 0.3662 0.46657 0.1618 0.0
H16 H 0.29663 0.41267 0.05102 0.0
O17 O 0.31493 0.40295 0.27555 0.0
C18 C 0.27113 0.42658 0.16386 0.0
O19 O 0.28649 0.4512 0.1746 0.0
N20 N 0.34221 0.45461 0.30147 0.0
C21 C 0.38658 0.49413 0.37484 0.0
C22 C 0.38345 0.46958 0.36554 0.0
C23 C 0.36099 0.44994 0.32879 0.0
C24 C 0.34493 0.47823 0.31016 0.0
C25 C 0.3669 0.49822 0.34632 0.0
H26 H 0.35895 0.43125 0.32162 0.0
H27 H 0.3299 0.48156 0.28791 0.0
H28 H 0.3188 0.42044 0.44346 0.0
H29 H 0.25694 0.43127 0.50047 0.0
H30 H 0.37283 0.46608 0.99571 0.0
H31 H 0.39809 0.46554 0.38703 0.0
H32 H 0.36857 0.51688 0.35049 0.0
C33 C 0.87241 0.32339 0.58966 0.0
C34 C 0.86875 0.32039 0.67761 0.0
N35 N 0.88473 0.31294 0.70923 0.0
N36 N 0.8909 0.31825 0.56677 0.0
C37 C 0.89766 0.31146 0.64069 0.0
H38 H 0.86302 0.32997 0.54575 0.0
Co39 Co 0.90556 0.32315 0.4586 0.0
C40 C 0.96099 0.34366 0.49285 0.0
O41 O 0.96637 0.35908 0.42648 0.0
N42 N 0.91941 0.32703 0.34804 0.0
C43 C 0.93534 0.31776 0.23281 0.0
C44 C 0.93368 0.31683 0.32126 0.0
C45 C 0.91182 0.33309 0.27411 0.0
N46 N 0.92136 0.32781 0.20321 0.0
O47 O 0.89181 0.28685 0.44588 0.0
H48 H 0.94094 0.30755 0.36289 0.0
H49 H 0.89747 0.33865 0.27114 0.0
O50 O 0.93762 0.32803 0.51194 0.0
C51 C 0.86857 0.27689 0.42234 0.0
O52 O 0.85842 0.29163 0.41671 0.0
N53 N 0.91639 0.35842 0.46937 0.0
C54 C 0.91946 0.40533 0.5053 0.0
C55 C 0.93485 0.39786 0.54959 0.0
C56 C 0.93255 0.37407 0.53239 0.0
C57 C 0.90134 0.36555 0.42586 0.0
C58 C 0.90278 0.38897 0.44192 0.0
H59 H 0.94222 0.36765 0.57523 0.0
H60 H 0.88637 0.35207 0.38431 0.0
H61 H 0.91273 0.30684 0.64521 0.0
H62 H 0.85597 0.32416 0.71568 0.0
H63 H 0.9449 0.31027 0.19341 0.0
H64 H 0.9472 0.40945 0.60161 0.0
H65 H 0.89005 0.3937 0.40778 0.0
C66 C 0.57894 0.84818 0.03621 0.0
C67 C 0.57871 0.8447 0.1243 0.0
N68 N 0.58751 0.86748 0.16343 0.0
N69 N 0.58813 0.87313 0.01908 0.0
C70 C 0.59296 0.88432 0.09819 0.0
H71 H 0.57239 0.83324 0.98823 0.0
Co72 Co 0.59182 0.88833 0.9096 0.0
C73 C 0.64198 0.9368 0.92943 0.0
O74 O 0.65021 0.93493 0.85262 0.0
N75 N 0.59511 0.90364 0.79956 0.0
C76 C 0.60015 0.93155 0.69663 0.0
C77 C 0.5999 0.92762 0.78438 0.0
C78 C 0.59205 0.8933 0.71944 0.0
N79 N 0.59519 0.90989 0.65541 0.0
O80 O 0.61452 0.87604 0.87392 0.0
H81 H 0.60303 0.94149 0.83403 0.0
H82 H 0.58692 0.87376 0.70771 0.0
O83 O 0.62006 0.91966 0.95551 0.0
C84 C 0.60247 0.85435 0.83657 0.0
O85 O 0.57765 0.8436 0.82756 0.0
N86 N 0.5681 0.89809 0.94233 0.0
C87 C 0.52716 0.90454 0.99032 0.0
C88 C 0.55216 0.92245 0.01489 0.0
C89 C 0.57245 0.91894 0.99003 0.0
C90 C 0.54405 0.88071 0.91701 0.0
C91 C 0.52331 0.88357 0.94005 0.0
H92 H 0.59144 0.93282 0.01053 0.0
H93 H 0.54096 0.86423 0.87988 0.0
H94 H 0.60031 0.90449 0.10797 0.0
H95 H 0.57197 0.82664 0.157 0.0
H96 H 0.6039 0.94915 0.66593 0.0
H97 H 0.55603 0.93903 0.05299 0.0
H98 H 0.50435 0.86907 0.9206 0.0
C99 C 0.72657 0.55969 0.29036 0.0
C100 C 0.7307 0.55977 0.37797 0.0
N101 N 0.72302 0.57475 0.41666 0.0
N102 N 0.71664 0.57483 0.27302 0.0
C103 C 0.71473 0.58374 0.35167 0.0
H104 H 0.72947 0.54823 0.243 0.0
Co105 Co 0.70483 0.57798 0.1631 0.0
C106 C 0.70054 0.62386 0.22427 0.0
O107 O 0.72348 0.64174 0.20145 0.0
N108 N 0.69299 0.58098 0.05316 0.0
C109 C 0.67156 0.58744 0.94911 0.0
C110 C 0.67437 0.58646 0.03692 0.0
C111 C 0.70089 0.57827 0.97373 0.0
N112 N 0.68824 0.58226 0.90863 0.0
O113 O 0.73829 0.6058 0.13395 0.0
H114 H 0.66335 0.58951 0.08566 0.0
H115 H 0.7154 0.57309 0.96409 0.0
O116 O 0.69353 0.60043 0.21118 0.0
C117 C 0.75147 0.59641 0.10346 0.0
O118 O 0.74107 0.57151 0.09952 0.0
N119 N 0.67298 0.54944 0.18772 0.0
C120 C 0.62802 0.50367 0.2205 0.0
C121 C 0.63551 0.525 0.27412 0.0
C122 C 0.65816 0.54765 0.25702 0.0
C123 C 0.66609 0.52894 0.1351 0.0
C124 C 0.64361 0.50594 0.14987 0.0
H125 H 0.6641 0.5634 0.30129 0.0
H126 H 0.67832 0.53034 0.08186 0.0
H127 H 0.70655 0.59586 0.36198 0.0
H128 H 0.73745 0.54851 0.41112 0.0
H129 H 0.65826 0.59193 0.91822 0.0
H130 H 0.62443 0.52396 0.33058 0.0
H131 H 0.63858 0.49005 0.10651 0.0
C132 C 0.15199 0.72978 0.65441 0.0
C133 C 0.15069 0.73105 0.7431 0.0
N134 N 0.12699 0.71352 0.76786 0.0
N135 N 0.12914 0.71158 0.62454 0.0
C136 C 0.11428 0.70242 0.69499 0.0
H137 H 0.16893 0.74018 0.61543 0.0
Co138 Co 0.12021 0.69722 0.51645 0.0
C139 C 0.06527 0.68495 0.49361 0.0
O140 O 0.06212 0.67225 0.42149 0.0
N141 N 0.11176 0.68286 0.4066 0.0
C142 C 0.11026 0.66195 0.28665 0.0
C143 C 0.11279 0.66256 0.37512 0.0
C144 C 0.10855 0.69415 0.3364 0.0
N145 N 0.10784 0.68205 0.26266 0.0
O146 O 0.13518 0.73101 0.46537 0.0
H147 H 0.11689 0.64999 0.41274 0.0
H148 H 0.10755 0.7115 0.33913 0.0
O149 O 0.08686 0.69528 0.53217 0.0
C150 C 0.15729 0.73703 0.43687 0.0
O151 O 0.16592 0.72129 0.45189 0.0
N152 N 0.10837 0.6646 0.56595 0.0
C153 C 0.09899 0.61849 0.64066 0.0
C154 C 0.0788 0.62254 0.61795 0.0
C155 C 0.08385 0.64564 0.58014 0.0
C156 C 0.12819 0.66106 0.58784 0.0
C157 C 0.12398 0.63822 0.62463 0.0
H158 H 0.06795 0.648 0.56331 0.0
H159 H 0.1475 0.67612 0.5755 0.0
H160 H 0.09495 0.68656 0.69366 0.0
H161 H 0.16643 0.74234 0.78637 0.0
H162 H 0.11211 0.64894 0.2431 0.0
H163 H 0.05919 0.6081 0.62988 0.0
H164 H 0.14027 0.63598 0.63884 0.0
C165 C 0.46248 0.15747 0.92661 0.0
C166 C 0.46043 0.15925 0.01433 0.0
N167 N 0.43805 0.13932 0.04035 0.0
N168 N 0.44154 0.1365 0.89763 0.0
C169 C 0.42675 0.12619 0.96772 0.0
H170 H 0.47895 0.16951 0.8873 0.0
Co171 Co 0.4385 0.123 0.78881 0.0
C172 C 0.39252 0.07146 0.83354 0.0
O173 O 0.37533 0.07546 0.79627 0.0
N174 N 0.43582 0.11009 0.68043 0.0
C175 C 0.43036 0.08748 0.5617 0.0
C176 C 0.43056 0.087 0.65078 0.0
C177 C 0.43911 0.12425 0.60992 0.0
N178 N 0.4357 0.111 0.53654 0.0
O179 O 0.41045 0.129 0.7612 0.0
H180 H 0.42713 0.07097 0.69098 0.0
H181 H 0.44355 0.14391 0.61312 0.0
O182 O 0.41597 0.08877 0.83235 0.0
C183 C 0.41515 0.15211 0.76021 0.0
O184 O 0.43724 0.17012 0.7891 0.0
N185 N 0.46691 0.11893 0.8116 0.0
C186 C 0.51208 0.11848 0.84602 0.0
C187 C 0.49085 0.1058 0.9007 0.0
C188 C 0.46851 0.10641 0.88271 0.0
C189 C 0.48732 0.13138 0.75777 0.0
C190 C 0.50995 0.13116 0.7732 0.0
H191 H 0.45294 0.09781 0.92822 0.0
H192 H 0.48626 0.14201 0.70331 0.0
H193 H 0.40881 0.1085 0.9663 0.0
H194 H 0.47533 0.17287 0.05625 0.0
H195 H 0.42681 0.07185 0.51905 0.0
H196 H 0.49179 0.09638 0.95897 0.0
H197 H 0.52576 0.14116 0.72894 0.0
C198 C 0.56008 0.70164 0.42233 0.0
C199 C 0.55992 0.70587 0.3349 0.0
N200 N 0.58245 0.71056 0.30173 0.0
N201 N 0.58247 0.70335 0.44352 0.0
C202 C 0.59587 0.7093 0.36917 0.0
H203 H 0.54449 0.69647 0.46697 0.0
Co204 Co 0.59049 0.69579 0.55082 0.0
C205 C 0.62124 0.67179 0.50486 0.0
O206 O 0.6067 0.65302 0.55745 0.0
N207 N 0.59875 0.68953 0.66178 0.0
C208 C 0.62129 0.69292 0.78004 0.0
C209 C 0.62125 0.69279 0.69116 0.0
C210 C 0.58604 0.68888 0.73446 0.0
N211 N 0.59909 0.69052 0.80699 0.0
O212 O 0.61347 0.73165 0.57028 0.0
H213 H 0.63763 0.69717 0.65161 0.0
H214 H 0.5687 0.68989 0.73449 0.0
O215 O 0.61792 0.69108 0.49813 0.0
C216 C 0.60153 0.74146 0.60743 0.0
O217 O 0.57711 0.7269 0.62334 0.0
N218 N 0.56563 0.66054 0.53207 0.0
C219 C 0.52402 0.61192 0.49508 0.0
C220 C 0.54422 0.62435 0.43629 0.0
C221 C 0.56461 0.6486 0.45554 0.0
C222 C 0.54595 0.64878 0.58933 0.0
C223 C 0.5254 0.6244 0.57317 0.0
H224 H 0.57916 0.65814 0.40695 0.0
H225 H 0.54516 0.65854 0.64616 0.0
H226 H 0.61446 0.71099 0.3632 0.0
H227 H 0.54415 0.7047 0.29819 0.0
H228 H 0.63699 0.69594 0.82136 0.0
H229 H 0.54383 0.616 0.37391 0.0
H230 H 0.51036 0.61577 0.62091 0.0
C231 C 0.84334 0.55662 0.59398 0.0
C232 C 0.84095 0.55851 0.50653 0.0
N233 N 0.85943 0.58173 0.48025 0.0
N234 N 0.86325 0.57848 0.62286 0.0
C235 C 0.87229 0.59362 0.55282 0.0
H236 H 0.83249 0.53975 0.63308 0.0
Co237 Co 0.87713 0.58232 0.73161 0.0
C238 C 0.92824 0.63072 0.70948 0.0
O239 O 0.92727 0.64165 0.78174 0.0
N240 N 0.89015 0.58537 0.84051 0.0
C241 C 0.91255 0.59081 0.95989 0.0
C242 C 0.91322 0.59078 0.87072 0.0
C243 C 0.87573 0.58145 0.91098 0.0
N244 N 0.88885 0.58492 0.98453 0.0
O245 O 0.86674 0.60704 0.76213 0.0
H246 H 0.92937 0.59444 0.83076 0.0
H247 H 0.85592 0.57638 0.90805 0.0
O248 O 0.9099 0.60877 0.68877 0.0
C249 C 0.84273 0.59792 0.76987 0.0
O250 O 0.82738 0.57381 0.75107 0.0
N251 N 0.88566 0.55713 0.70461 0.0
C252 C 0.89122 0.51529 0.66101 0.0
C253 C 0.90549 0.53873 0.61849 0.0
C254 C 0.90225 0.55937 0.64062 0.0
C255 C 0.87198 0.53466 0.74772 0.0
C256 C 0.87448 0.51351 0.72708 0.0
H257 H 0.91236 0.57672 0.60368 0.0
H258 H 0.8585 0.53296 0.79691 0.0
H259 H 0.88887 0.61246 0.55435 0.0
H260 H 0.82802 0.54307 0.46487 0.0
H261 H 0.9281 0.59453 0.00303 0.0
H262 H 0.91824 0.5408 0.56597 0.0
H263 H 0.86315 0.49581 0.76179 0.0
C264 C 0.30679 0.85066 0.01625 0.0
C265 C 0.30253 0.84622 0.929 0.0
N266 N 0.29783 0.86406 0.89588 0.0
N267 N 0.30494 0.87128 0.03773 0.0
C268 C 0.29902 0.87877 0.96339 0.0
H269 H 0.31228 0.84039 0.06049 0.0
Co270 Co 0.31333 0.88691 0.14537 0.0
C271 C 0.33764 0.94164 0.10347 0.0
O272 O 0.35574 0.94485 0.15773 0.0
N273 N 0.3204 0.9013 0.25624 0.0
C274 C 0.31648 0.91988 0.37521 0.0
C275 C 0.31654 0.92012 0.28656 0.0
C276 C 0.32133 0.88918 0.3283 0.0
N277 N 0.31929 0.90024 0.40136 0.0
O278 O 0.27773 0.8743 0.16981 0.0
H279 H 0.31148 0.93177 0.24782 0.0
H280 H 0.32052 0.87091 0.32728 0.0
O281 O 0.31808 0.91934 0.09407 0.0
C282 C 0.26785 0.85117 0.19488 0.0
O283 O 0.28216 0.84049 0.19534 0.0
N284 N 0.34823 0.89694 0.12262 0.0
C285 C 0.39564 0.90272 0.07543 0.0
C286 C 0.38313 0.91162 0.02171 0.0
C287 C 0.35941 0.90821 0.04566 0.0
C288 C 0.36026 0.88824 0.17579 0.0
C289 C 0.38409 0.89127 0.15413 0.0
H290 H 0.34962 0.91382 4e-05 0.0
H291 H 0.35091 0.8775 0.23286 0.0
H292 H 0.29754 0.8958 0.95743 0.0
H293 H 0.30385 0.83167 0.89227 0.0
H294 H 0.31298 0.9322 0.4169 0.0
H295 H 0.39123 0.92051 0.96014 0.0
H296 H 0.39268 0.8834 0.19645 0.0
C297 C 0.43594 0.27398 0.31047 0.0
C298 C 0.43578 0.27066 0.22244 0.0
N299 N 0.42811 0.28565 0.18408 0.0
N300 N 0.42807 0.29079 0.32869 0.0
C301 C 0.42365 0.29771 0.24989 0.0
H302 H 0.44229 0.26515 0.3572 0.0
Co303 Co 0.42678 0.30393 0.43851 0.0
C304 C 0.37865 0.30635 0.42536 0.0
O305 O 0.37081 0.2965 0.50262 0.0
N306 N 0.42606 0.31755 0.54814 0.0
C307 C 0.42365 0.34186 0.65179 0.0
C308 C 0.42304 0.33785 0.56401 0.0
C309 C 0.42906 0.30998 0.62766 0.0
N310 N 0.42742 0.32427 0.69229 0.0
O311 O 0.40217 0.27001 0.47899 0.0
H312 H 0.42031 0.34897 0.51491 0.0
H313 H 0.43288 0.29456 0.63806 0.0
O314 O 0.39974 0.30954 0.39593 0.0
C315 C 0.41264 0.25787 0.50979 0.0
O316 O 0.43762 0.26921 0.51141 0.0
N317 N 0.45205 0.33637 0.40229 0.0
C318 C 0.4944 0.38292 0.35662 0.0
C319 C 0.46966 0.37744 0.33462 0.0
C320 C 0.44868 0.35401 0.35793 0.0
C321 C 0.47585 0.34134 0.42436 0.0
C322 C 0.4973 0.36448 0.40231 0.0
H323 H 0.42992 0.35025 0.33971 0.0
H324 H 0.47813 0.32715 0.45958 0.0
H325 H 0.41766 0.31165 0.24072 0.0
H326 H 0.44181 0.2588 0.18917 0.0
H327 H 0.42105 0.35642 0.68301 0.0
H328 H 0.46654 0.39099 0.29854 0.0
H329 H 0.51595 0.36797 0.4218 0.0
C330 C 0.15031 0.4631 0.78725 0.0
C331 C 0.15479 0.46334 0.69995 0.0
N332 N 0.13829 0.44014 0.6676 0.0
N333 N 0.13095 0.43994 0.80934 0.0
C334 C 0.12439 0.42623 0.73562 0.0
H335 H 0.15969 0.47908 0.83117 0.0
Co336 Co 0.1155 0.43112 0.91689 0.0
C337 C 0.06068 0.39904 0.87464 0.0
O338 O 0.05588 0.41192 0.93297 0.0
N339 N 0.10131 0.42212 0.02761 0.0
C340 C 0.08325 0.39898 0.14576 0.0
C341 C 0.08297 0.39914 0.05695 0.0
C342 C 0.11337 0.4349 0.10006 0.0
N343 N 0.10247 0.42156 0.17258 0.0
O344 O 0.12898 0.40848 0.93474 0.0
H345 H 0.0715 0.3826 0.01723 0.0
H346 H 0.13145 0.45249 0.09969 0.0
O347 O 0.08366 0.40388 0.86297 0.0
C348 C 0.15231 0.42159 0.95759 0.0
O349 O 0.16287 0.44654 0.96088 0.0
N350 N 0.10443 0.45553 0.90059 0.0
C351 C 0.10043 0.49874 0.85936 0.0
C352 C 0.09121 0.47783 0.80273 0.0
C353 C 0.09338 0.45652 0.82442 0.0
C354 C 0.11287 0.47546 0.95716 0.0
C355 C 0.11045 0.49678 0.939 0.0
H356 H 0.08784 0.44167 0.77653 0.0
H357 H 0.12317 0.47603 0.01426 0.0
H358 H 0.10868 0.40691 0.73076 0.0
H359 H 0.16848 0.47959 0.66278 0.0
H360 H 0.07113 0.38302 0.18702 0.0
H361 H 0.08384 0.47843 0.73953 0.0
H362 H 0.11757 0.51213 0.98583 0.0
C363 C 0.7412 0.1648 0.00605 0.0
C364 C 0.74519 0.16732 0.9181 0.0
N365 N 0.73103 0.14427 0.88084 0.0
N366 N 0.7247 0.14019 0.02527 0.0
C367 C 0.71887 0.12819 0.94742 0.0
H368 H 0.74918 0.18027 0.05213 0.0
Co369 Co 0.71012 0.12672 0.13434 0.0
C370 C 0.70739 0.0757 0.14043 0.0
O371 O 0.70926 0.07575 0.22503 0.0
N372 N 0.69486 0.11303 0.24587 0.0
C373 C 0.66638 0.09385 0.35171 0.0
C374 C 0.66979 0.09804 0.26412 0.0
C375 C 0.70615 0.11712 0.32501 0.0
N376 N 0.68931 0.10597 0.39061 0.0
O377 O 0.74394 0.14058 0.18448 0.0
H378 H 0.65446 0.09077 0.2177 0.0
H379 H 0.72645 0.12776 0.33501 0.0
O380 O 0.70838 0.09479 0.10169 0.0
C381 C 0.74952 0.16227 0.21658 0.0
O382 O 0.73269 0.16986 0.20874 0.0
N383 N 0.67794 0.11632 0.08633 0.0
C384 C 0.63205 0.10924 0.01864 0.0
C385 C 0.63878 0.09019 0.00989 0.0
C386 C 0.66194 0.09412 0.04396 0.0
C387 C 0.67169 0.13491 0.09542 0.0
C388 C 0.64888 0.13177 0.06247 0.0
H389 H 0.66683 0.07935 0.036 0.0
H390 H 0.68463 0.15238 0.1288 0.0
H391 H 0.70547 0.10808 0.93949 0.0
H392 H 0.75676 0.18508 0.88407 0.0
H393 H 0.64818 0.08331 0.38403 0.0
H394 H 0.62646 0.07258 0.97597 0.0
H395 H 0.64437 0.14682 0.07219 0.0
H396 H 0.21973 0.39508 0.19202 0.0
H397 H 0.27497 0.44237 0.00083 0.0
H398 H 0.24131 0.44009 0.90883 0.0
H399 H 0.1978 0.4322 0.89646 0.0
H400 H 0.14197 0.38754 0.08922 0.0
H401 H 0.17373 0.38092 0.16636 0.0
C402 C 0.22413 0.40399 0.12875 0.0
C403 C 0.24976 0.41856 0.10243 0.0
C404 C 0.20454 0.40351 0.07729 0.0
C405 C 0.25536 0.43065 0.02147 0.0
C406 C 0.23613 0.42962 0.96926 0.0
C407 C 0.19237 0.42017 0.95354 0.0
C408 C 0.16766 0.41021 0.9869 0.0
C409 C 0.21086 0.41715 0.99831 0.0
C410 C 0.16082 0.395 0.06157 0.0
C411 C 0.1791 0.39154 0.10627 0.0
H412 H 0.80121 0.18174 0.19155 0.0
H413 H 0.74538 0.1764 0.37638 0.0
H414 H 0.77877 0.20818 0.46773 0.0
H415 H 0.82242 0.24318 0.48125 0.0
H416 H 0.87906 0.25182 0.29526 0.0
H417 H 0.84729 0.21327 0.21892 0.0
C418 C 0.79659 0.18698 0.25326 0.0
C419 C 0.77085 0.17655 0.27767 0.0
C420 C 0.81608 0.2063 0.30453 0.0
C421 C 0.76504 0.18391 0.35682 0.0
C422 C 0.78412 0.20229 0.40882 0.0
C423 C 0.82799 0.23601 0.42588 0.0
C424 C 0.85296 0.25009 0.39416 0.0
C425 C 0.80953 0.21442 0.38147 0.0
C426 C 0.86 0.24096 0.32169 0.0
C427 C 0.84171 0.21912 0.27738 0.0
H428 H 0.61798 0.76229 0.76519 0.0
H429 H 0.60886 0.78035 0.50314 0.0
H430 H 0.61326 0.82099 0.551 0.0
H431 H 0.6108 0.84662 0.6711 0.0
H432 H 0.61901 0.82821 0.93358 0.0
H433 H 0.62447 0.79282 0.8826 0.0
C434 C 0.6182 0.77575 0.71834 0.0
C435 C 0.61352 0.76866 0.63067 0.0
C436 C 0.62019 0.79882 0.74688 0.0
C437 C 0.61302 0.78576 0.57058 0.0
C438 C 0.61519 0.80882 0.59819 0.0
C439 C 0.61496 0.83554 0.7166 0.0
C440 C 0.61485 0.84011 0.80577 0.0
C441 C 0.61757 0.81495 0.68664 0.0
C442 C 0.61958 0.82531 0.86461 0.0
C443 C 0.62235 0.80488 0.83542 0.0
H444 H 0.8508 0.61394 0.93658 0.0
H445 H 0.80791 0.60947 0.70865 0.0
H446 H 0.77826 0.61648 0.79613 0.0
H447 H 0.75893 0.61284 0.93893 0.0
H448 H 0.79826 0.61054 0.16735 0.0
H449 H 0.83492 0.61756 0.07982 0.0
C450 C 0.83559 0.61559 0.9059 0.0
C451 C 0.83165 0.61147 0.81624 0.0
C452 C 0.81759 0.61786 0.95754 0.0
C453 C 0.81149 0.61297 0.77737 0.0
C454 C 0.79433 0.61662 0.82759 0.0
C455 C 0.77608 0.6152 0.96966 0.0
C456 C 0.77615 0.61166 0.05947 0.0
C457 C 0.79635 0.61757 0.9181 0.0
C458 C 0.79809 0.61386 0.09855 0.0
C459 C 0.81888 0.61745 0.04821 0.0
H460 H 0.17799 0.78913 0.45167 0.0
H461 H 0.16788 0.72938 0.27599 0.0
H462 H 0.19803 0.76077 0.17495 0.0
H463 H 0.23275 0.804 0.149 0.0
H464 H 0.24596 0.86445 0.32539 0.0
H465 H 0.20916 0.83446 0.41283 0.0
C466 C 0.18186 0.78321 0.38996 0.0
C467 C 0.17065 0.75701 0.37082 0.0
C468 C 0.2001 0.80152 0.33288 0.0
C469 C 0.1762 0.74945 0.29167 0.0
C470 C 0.19354 0.76738 0.23405 0.0
C471 C 0.22695 0.81076 0.20488 0.0
C472 C 0.24182 0.83632 0.23055 0.0
C473 C 0.2064 0.79331 0.25565 0.0
C474 C 0.23445 0.84491 0.30359 0.0
C475 C 0.21363 0.82765 0.35422 0.0
H476 H 0.40181 0.21052 0.46043 0.0
H477 H 0.39383 0.2524 0.67162 0.0
H478 H 0.3893 0.21943 0.77341 0.0
H479 H 0.39782 0.18414 0.80336 0.0
H480 H 0.40181 0.14002 0.59129 0.0
H481 H 0.39687 0.16783 0.48812 0.0
C482 C 0.39771 0.21169 0.52807 0.0
C483 C 0.39846 0.23394 0.55904 0.0
C484 C 0.39482 0.19244 0.58595 0.0
C485 C 0.39345 0.23548 0.64675 0.0
C486 C 0.39104 0.2167 0.70497 0.0
C487 C 0.39629 0.17987 0.73472 0.0
C488 C 0.40067 0.16038 0.7049 0.0
C489 C 0.39318 0.19584 0.67576 0.0
C490 C 0.3987 0.15501 0.61591 0.0
C491 C 0.3961 0.17109 0.55672 0.0
H492 H 0.47437 0.59621 0.53495 0.0
H493 H 0.5213 0.57164 0.40267 0.0
H494 H 0.48317 0.53265 0.35659 0.0
H495 H 0.43622 0.50637 0.34821 0.0
H496 H 0.39001 0.53054 0.4872 0.0
H497 H 0.4282 0.56852 0.53758 0.0
C498 C 0.47646 0.58216 0.49774 0.0
C499 C 0.50088 0.58712 0.47233 0.0
C500 C 0.45449 0.55962 0.47225 0.0
C501 C 0.50284 0.56871 0.42218 0.0
C502 C 0.48101 0.54626 0.39615 0.0
C503 C 0.43452 0.51972 0.39071 0.0
C504 C 0.41018 0.5157 0.41271 0.0
C505 C 0.45668 0.54163 0.41996 0.0
C506 C 0.40842 0.53336 0.46752 0.0
C507 C 0.43028 0.55508 0.49675 0.0
H508 H 0.93372 0.51201 0.62436 0.0
H509 H 0.85164 0.46724 0.63392 0.0
H510 H 0.85319 0.42966 0.58503 0.0
H511 H 0.8777 0.40936 0.53966 0.0
H512 H 0.95975 0.45336 0.53263 0.0
H513 H 0.95842 0.49139 0.58006 0.0
C514 C 0.91619 0.49403 0.61539 0.0
C515 C 0.8926 0.49244 0.63306 0.0
C516 C 0.91722 0.47238 0.58747 0.0
C517 C 0.87006 0.46894 0.62199 0.0
C518 C 0.87091 0.44746 0.59346 0.0
C519 C 0.89528 0.42736 0.54752 0.0
C520 C 0.91878 0.42864 0.53165 0.0
C521 C 0.89435 0.44896 0.57589 0.0
C522 C 0.94143 0.45193 0.54429 0.0
C523 C 0.94066 0.47365 0.57133 0.0
H524 H 0.48603 0.89637 0.89469 0.0
H525 H 0.5186 0.91857 0.14985 0.0
H526 H 0.48124 0.9207 0.19842 0.0
H527 H 0.4385 0.91482 0.16953 0.0
H528 H 0.40595 0.89169 0.91451 0.0
H529 H 0.44401 0.89134 0.86511 0.0
C530 C 0.48493 0.90158 0.96105 0.0
C531 C 0.50506 0.90719 0.01855 0.0
C532 C 0.46333 0.90259 0.9887 0.0
C533 C 0.5035 0.91438 0.10392 0.0
C534 C 0.48205 0.91544 0.13194 0.0
C535 C 0.43975 0.90966 0.10323 0.0
C536 C 0.41939 0.9034 0.04586 0.0
C537 C 0.46173 0.90935 0.0751 0.0
C538 C 0.42145 0.897 0.95983 0.0
C539 C 0.44316 0.89662 0.93155 0.0
H540 H 0.58163 0.49573 0.27468 0.0
H541 H 0.62207 0.45587 0.2114 0.0
H542 H 0.58432 0.41523 0.24564 0.0
H543 H 0.54002 0.39093 0.29537 0.0
H544 H 0.49974 0.43063 0.36289 0.0
H545 H 0.53716 0.47132 0.32498 0.0
C546 C 0.58223 0.47817 0.26888 0.0
C547 C 0.6047 0.47893 0.24023 0.0
C548 C 0.56045 0.45479 0.28935 0.0
C549 C 0.60498 0.4559 0.23198 0.0
C550 C 0.58342 0.43262 0.25213 0.0
C551 C 0.53947 0.40849 0.30253 0.0
C552 C 0.51708 0.40767 0.33223 0.0
C553 C 0.5611 0.43184 0.28117 0.0
C554 C 0.5166 0.43063 0.33937 0.0
C555 C 0.53805 0.45394 0.31818 0.0
H556 H 0.06755 0.50585 0.75511 0.0
H557 H 0.13758 0.54749 0.90023 0.0
H558 H 0.14185 0.58754 0.85173 0.0
H559 H 0.1272 0.61112 0.76324 0.0
H560 H 0.05989 0.56998 0.60522 0.0
H561 H 0.05321 0.52966 0.66389 0.0
C562 C 0.08386 0.52362 0.77589 0.0
C563 C 0.10202 0.52328 0.83227 0.0
C564 C 0.08681 0.54688 0.7452 0.0
C565 C 0.12279 0.54677 0.859 0.0
C566 C 0.1255 0.56987 0.83037 0.0
C567 C 0.11118 0.59338 0.74064 0.0
C568 C 0.09421 0.59382 0.67925 0.0
C569 C 0.10782 0.57016 0.77268 0.0
C570 C 0.07318 0.57047 0.65307 0.0
C571 C 0.06943 0.54729 0.68611 0.0
H572 H 0.62442 0.14448 0.9354 0.0
H573 H 0.58472 0.06631 0.02242 0.0
H574 H 0.54427 0.06182 0.97321 0.0
H575 H 0.5199 0.08082 0.91146 0.0
H576 H 0.55998 0.15965 0.83074 0.0
H577 H 0.60042 0.16308 0.87145 0.0
C578 C 0.60691 0.12647 0.94406 0.0
C579 C 0.60764 0.10585 0.98333 0.0
C580 C 0.58372 0.12413 0.91677 0.0
C581 C 0.5848 0.08247 0.99197 0.0
C582 C 0.56161 0.07994 0.96438 0.0
C583 C 0.53747 0.09877 0.90303 0.0
C584 C 0.53677 0.11991 0.86785 0.0
C585 C 0.5608 0.10076 0.92771 0.0
C586 C 0.55985 0.14292 0.85629 0.0
C587 C 0.58304 0.14498 0.8802 0.0
H588 H 0.33722 0.35824 0.16767 0.0
H589 H 0.31238 0.37527 0.40765 0.0
H590 H 0.32748 0.35048 0.48732 0.0
H591 H 0.35014 0.32602 0.49001 0.0
H592 H 0.37746 0.31157 0.25088 0.0
H593 H 0.35894 0.33305 0.16995 0.0
C594 C 0.33481 0.35627 0.23727 0.0
C595 C 0.32361 0.36859 0.28146 0.0
C596 C 0.34412 0.34248 0.28304 0.0
C597 C 0.32097 0.36607 0.37191 0.0
C598 C 0.32961 0.35187 0.41761 0.0
C599 C 0.35168 0.32724 0.42008 0.0
C600 C 0.36512 0.31714 0.37653 0.0
C601 C 0.34154 0.34027 0.37404 0.0
C602 C 0.36732 0.31927 0.286 0.0
C603 C 0.35672 0.33156 0.23964 0.0
H604 H 0.06336 0.39003 0.70309 0.0
H605 H 0.01069 0.36987 0.91575 0.0
H606 H 0.97472 0.34725 0.81696 0.0
H607 H 0.95821 0.33815 0.6682 0.0
H608 H 0.01085 0.36148 0.45439 0.0
H609 H 0.04675 0.37753 0.55493 0.0
C610 C 0.04406 0.38008 0.72799 0.0
C611 C 0.0397 0.38156 0.81663 0.0
C612 C 0.02339 0.36789 0.67021 0.0
C613 C 0.01451 0.36902 0.8477 0.0
C614 C 0.99393 0.35615 0.7912 0.0
C615 C 0.97746 0.34607 0.64368 0.0
C616 C 0.98183 0.34855 0.55392 0.0
C617 C 0.9981 0.35614 0.70196 0.0
C618 C 1.00699 0.35938 0.52323 0.0
C619 C 0.02755 0.36866 0.58072 0.0
H620 H 0.68498 0.02691 0.20045 0.0
H621 H 0.71332 0.07138 0.9671 0.0
H622 H 0.69763 0.03234 0.88178 0.0
H623 H 0.67305 0.98533 0.87203 0.0
H624 H 0.64244 0.94114 0.10467 0.0
H625 H 0.66186 0.98009 0.19142 0.0
C626 C 0.68809 0.02809 0.13111 0.0
C627 C 0.70034 0.05209 0.09036 0.0
C628 C 0.67841 1.0055 0.08208 0.0
C629 C 0.70387 0.05319 0.00018 0.0
C630 C 0.69488 0.03084 0.95126 0.0
C631 C 0.67101 0.98424 0.94184 0.0
C632 C 0.65628 0.96034 0.98181 0.0
C633 C 0.68173 0.00686 0.99127 0.0
C634 C 0.65348 0.95928 0.07223 0.0
C635 C 0.66463 0.98157 0.12194 0.0
H636 H 0.61288 0.62828 0.43058 0.0
H637 H 0.66903 0.70802 0.44879 0.0
H638 H 0.69886 0.70068 0.36161 0.0
H639 H 0.70936 0.67056 0.28584 0.0
H640 H 0.65053 0.59166 0.26028 0.0
H641 H 0.62156 0.59968 0.34475 0.0
C642 C 0.63167 0.64409 0.41544 0.0
C643 C 0.63896 0.66855 0.44716 0.0
C644 C 0.64833 0.63979 0.36442 0.0
C645 C 0.66308 0.68898 0.42531 0.0
C646 C 0.68011 0.68474 0.37573 0.0
C647 C 0.69017 0.65518 0.29837 0.0
C648 C 0.6826 0.63026 0.26896 0.0
C649 C 0.67305 0.66009 0.34569 0.0
C650 C 0.65742 0.61075 0.28461 0.0
C651 C 0.64062 0.61535 0.33244 0.0
H652 H 0.01614 0.6581 0.44013 0.0
H653 H 0.06252 0.70393 0.65297 0.0
H654 H 0.02405 0.69307 0.7366 0.0
H655 H 0.97703 0.66727 0.75379 0.0
H656 H 0.932 0.61951 0.5422 0.0
H657 H 0.96997 0.63452 0.45393 0.0
C658 C 0.01796 0.66605 0.50439 0.0
C659 C 0.0423 0.68171 0.54013 0.0
C660 C 0.99585 0.6592 0.55285 0.0
C661 C 0.04409 0.69178 0.62364 0.0
C662 C 0.02206 0.68548 0.67175 0.0
C663 C 0.97553 0.66047 0.68795 0.0
C664 C 0.95154 0.64227 0.65477 0.0
C665 C 0.9978 0.66871 0.63776 0.0
C666 C 0.95006 0.63349 0.56955 0.0
C667 C 0.97186 0.64203 0.51888 0.0
H668 H 0.3443 0.03179 0.87309 0.0
H669 H 0.42426 0.05561 0.89534 0.0
H670 H 0.41407 0.01819 0.98041 0.0
H671 H 0.38316 0.97932 0.05185 0.0
H672 H 0.3028 0.95222 0.02549 0.0
H673 H 0.31235 0.98994 0.93764 0.0
C674 C 0.35945 0.02871 0.89627 0.0
C675 C 0.38515 0.04712 0.87963 0.0
C676 C 0.35339 0.00649 0.94438 0.0
C677 C 0.40444 0.04248 0.90924 0.0
C678 C 0.39862 0.02085 0.95752 0.0
C679 C 0.36764 0.98164 0.02727 0.0
C680 C 0.34232 0.96327 0.04648 0.0
C681 C 0.37327 1.00296 0.97638 0.0
C682 C 0.32247 0.96622 0.01203 0.0
C683 C 0.32796 0.9878 0.962 0.0
H684 H 0.3324 0.43518 0.58538 0.0
H685 H 0.25259 0.40846 0.62892 0.0
H686 H 0.259 0.40872 0.78479 0.0
H687 H 0.28762 0.41844 0.90943 0.0
H688 H 0.36742 0.44513 0.86578 0.0
H689 H 0.3605 0.44246 0.7101 0.0
C690 C 0.3163 0.42901 0.62866 0.0
C691 C 0.29205 0.42201 0.59472 0.0
C692 C 0.32012 0.42927 0.71878 0.0
C693 C 0.27155 0.41437 0.6527 0.0
C694 C 0.27517 0.41438 0.74213 0.0
C695 C 0.30351 0.42353 0.86632 0.0
C696 C 0.32815 0.43253 0.9005 0.0
C697 C 0.29945 0.42214 0.7761 0.0
C698 C 0.34835 0.43875 0.84227 0.0
C699 C 0.3444 0.43712 0.75276 0.0
H700 H 0.91844 0.29658 0.0739 0.0
H701 H 0.90769 0.36027 0.13436 0.0
H702 H 0.89363 0.36025 0.98621 0.0
H703 H 0.88531 0.34262 0.83902 0.0
H704 H 0.89754 0.28 0.77783 0.0
H705 H 0.91047 0.27922 0.92721 0.0
C706 C 0.9134 0.31071 0.05454 0.0
C707 C 0.9142 0.32847 0.11501 0.0
C708 C 0.90552 0.31067 0.96945 0.0
C709 C 0.90703 0.34628 0.08913 0.0
C710 C 0.89905 0.34631 0.0045 0.0
C711 C 0.89041 0.32857 0.85897 0.0
C712 C 0.89031 0.31124 0.79825 0.0
C713 C 0.89817 0.32855 0.94426 0.0
C714 C 0.89754 0.2935 0.82392 0.0
C715 C 0.90493 0.29308 0.90901 0.0
H716 H 0.58409 0.90479 0.24894 0.0
H717 H 0.59678 0.84133 0.28651 0.0
H718 H 0.60026 0.84878 0.44239 0.0
H719 H 0.59992 0.87341 0.56834 0.0
H720 H 0.58609 0.93623 0.53122 0.0
H721 H 0.58341 0.92925 0.37557 0.0
C722 C 0.58784 0.89274 0.29109 0.0
C723 C 0.59012 0.87248 0.25558 0.0
C724 C 0.58972 0.89706 0.38115 0.0
C725 C 0.59462 0.85685 0.31177 0.0
C726 C 0.59674 0.86117 0.4011 0.0
C727 C 0.59606 0.88546 0.5267 0.0
C728 C 0.59329 0.9054 0.5627 0.0
C729 C 0.59422 0.88116 0.43666 0.0
C730 C 0.5887 0.92097 0.50633 0.0
C731 C 0.587 0.91691 0.41684 0.0
H732 H 0.72717 0.581 0.82319 0.0
H733 H 0.6566 0.5811 0.78081 0.0
H734 H 0.66217 0.58059 0.62602 0.0
H735 H 0.68614 0.57885 0.5006 0.0
H736 H 0.75532 0.57641 0.54066 0.0
H737 H 0.75091 0.57859 0.69736 0.0
C738 C 0.71286 0.58076 0.78071 0.0
C739 C 0.69156 0.58133 0.81568 0.0
C740 C 0.71587 0.57999 0.69035 0.0
C741 C 0.67346 0.58114 0.75771 0.0
C742 C 0.67651 0.5807 0.66826 0.0
C743 C 0.70046 0.5792 0.54358 0.0
C744 C 0.72113 0.57764 0.5088 0.0
C745 C 0.69761 0.58011 0.63374 0.0
C746 C 0.7392 0.57752 0.56571 0.0
C747 C 0.7367 0.57883 0.6554 0.0
H748 H 0.09228 0.65448 0.11692 0.0
H749 H 0.12747 0.73152 0.21471 0.0
H750 H 0.13573 0.74819 0.06837 0.0
H751 H 0.13585 0.74104 0.91183 0.0
H752 H 0.10046 0.66411 0.81408 0.0
H753 H 0.08933 0.64721 0.96059 0.0
C754 C 0.10166 0.67488 0.10599 0.0
C755 C 0.10967 0.69165 0.17656 0.0
C756 C 0.10639 0.68439 0.02157 0.0
C757 C 0.1212 0.71808 0.16172 0.0
C758 C 0.12607 0.72772 0.07789 0.0
C759 C 0.12556 0.72063 0.92323 0.0
C760 C 0.11896 0.70384 0.85328 0.0
C761 C 0.11924 0.71107 0.00743 0.0
C762 C 0.10543 0.67736 0.8675 0.0
C763 C 0.09922 0.66769 0.95107 0.0
H764 H 0.41191 0.08305 0.39582 0.0
H765 H 0.46222 0.1601 0.483 0.0
H766 H 0.4642 0.17605 0.33743 0.0
H767 H 0.45389 0.16795 0.18423 0.0
H768 H 0.40696 0.09046 0.09457 0.0
H769 H 0.40089 0.07504 0.24228 0.0
C770 C 0.42348 0.10328 0.38284 0.0
C771 C 0.43695 0.12027 0.45021 0.0
C772 C 0.42496 0.11234 0.29857 0.0
C773 C 0.45141 0.14656 0.43267 0.0
C774 C 0.45266 0.15574 0.34928 0.0
C775 C 0.44235 0.14769 0.19685 0.0
C776 C 0.43122 0.13052 0.12792 0.0
C777 C 0.43978 0.13876 0.28164 0.0
C778 C 0.41569 0.10433 0.14585 0.0
C779 C 0.41241 0.09536 0.23053 0.0
H780 H 0.5507 0.68685 0.16866 0.0
H781 H 0.62969 0.73678 0.23356 0.0
H782 H 0.64205 0.73515 0.08414 0.0
H783 H 0.63043 0.71821 0.93664 0.0
H784 H 0.55148 0.66789 0.87226 0.0
H785 H 0.53893 0.67127 0.01985 0.0
C786 C 0.57055 0.69777 0.14972 0.0
C787 C 0.58927 0.71189 0.212 0.0
C788 C 0.5775 0.6965 0.06409 0.0
C789 C 0.61499 0.72558 0.18681 0.0
C790 C 0.62204 0.72466 0.10151 0.0
C791 C 0.61052 0.70782 0.95516 0.0
C792 C 0.59191 0.69264 0.89398 0.0
C793 C 0.60349 0.70983 0.03999 0.0
C794 C 0.56611 0.67976 0.91829 0.0
C795 C 0.55895 0.68164 0.0026 0.0
H796 H 0.9154 0.6113 0.12387 0.0
H797 H 0.84032 0.55478 0.03795 0.0
H798 H 0.82363 0.5517 0.18346 0.0
H799 H 0.83096 0.56285 0.33643 0.0
H800 H 0.90662 0.61773 0.42383 0.0
H801 H 0.92221 0.62416 0.2765 0.0
C802 C 0.89545 0.59819 0.13732 0.0
C803 C 0.87921 0.58313 0.07059 0.0
C804 C 0.886 0.59633 0.2213 0.0
C805 C 0.85322 0.56668 0.0882 0.0
C806 C 0.84365 0.56485 0.17141 0.0
C807 C 0.85087 0.5762 0.32354 0.0
C808 C 0.8676 0.58913 0.39219 0.0
C809 C 0.85996 0.5793 0.23866 0.0
C810 C 0.89316 0.60716 0.37331 0.0
C811 C 0.90225 0.61077 0.28867 0.0
H812 H 0.29093 0.90367 0.5292 0.0
H813 H 0.34146 0.87484 0.4679 0.0
H814 H 0.33773 0.85914 0.616 0.0
H815 H 0.32194 0.85582 0.76429 0.0
H816 H 0.27204 0.88537 0.82597 0.0
H817 H 0.27388 0.89893 0.67592 0.0
C818 C 0.30132 0.89417 0.54841 0.0
C819 C 0.3167 0.89068 0.48806 0.0
C820 C 0.29918 0.88537 0.63346 0.0
C821 C 0.32947 0.87769 0.51329 0.0
C822 C 0.3274 0.8688 0.59788 0.0
C823 C 0.31107 0.86477 0.74455 0.0
C824 C 0.29686 0.8696 0.80602 0.0
C825 C 0.31246 0.87272 0.65862 0.0
C826 C 0.28327 0.88167 0.77982 0.0
C827 C 0.28431 0.88939 0.69419 0.0
H828 H 0.42024 0.28202 0.77834 0.0
H829 H 0.43795 0.35984 0.81778 0.0
H830 H 0.4387 0.35449 0.97356 0.0
H831 H 0.43485 0.32789 0.09991 0.0
H832 H 0.41752 0.25028 0.05964 0.0
H833 H 0.41633 0.2555 0.90358 0.0
C834 C 0.42438 0.2979 0.82044 0.0
C835 C 0.42878 0.32123 0.785 0.0
C836 C 0.42489 0.29476 0.91059 0.0
C837 C 0.43403 0.34147 0.84211 0.0
C838 C 0.43459 0.33849 0.93173 0.0
C839 C 0.43054 0.31205 0.0571 0.0
C840 C 0.42634 0.28873 0.09192 0.0
C841 C 0.42997 0.3152 0.96686 0.0
C842 C 0.42115 0.26853 0.03494 0.0
C843 C 0.42038 0.27147 0.94548 0.0
H844 H 0.14516 0.47125 0.5336 0.0
H845 H 0.11875 0.39274 0.60049 0.0
H846 H 0.10516 0.37981 0.45125 0.0
H847 H 0.09971 0.3908 0.30305 0.0
H848 H 0.12589 0.4693 0.237 0.0
H849 H 0.1412 0.48241 0.3847 0.0
C850 C 0.13693 0.45139 0.51527 0.0
C851 C 0.13297 0.43298 0.57806 0.0
C852 C 0.12904 0.44411 0.42972 0.0
C853 C 0.12178 0.40723 0.55345 0.0
C854 C 0.11404 0.39984 0.46821 0.0
C855 C 0.10857 0.41073 0.32121 0.0
C856 C 0.11152 0.42905 0.25951 0.0
C857 C 0.11725 0.41809 0.40613 0.0
C858 C 0.12357 0.45489 0.2834 0.0
C859 C 0.13223 0.46238 0.36777 0.0
H860 H 0.73212 0.14107 0.47451 0.0
H861 H 0.65791 0.07532 0.5183 0.0
H862 H 0.66455 0.08085 0.67382 0.0
H863 H 0.69046 0.1056 0.79848 0.0
H864 H 0.76498 0.17076 0.754 0.0
H865 H 0.75906 0.16413 0.5983 0.0
C866 C 0.71741 0.12775 0.51739 0.0
C867 C 0.69432 0.10805 0.48314 0.0
C868 C 0.72133 0.131 0.60748 0.0
C869 C 0.67567 0.09105 0.5415 0.0
C870 C 0.67949 0.0941 0.63105 0.0
C871 C 0.7056 0.11815 0.75505 0.0
C872 C 0.72807 0.13885 0.78879 0.0
C873 C 0.7021 0.11422 0.66492 0.0
C874 C 0.74729 0.15498 0.73053 0.0
C875 C 0.74398 0.15112 0.64115 0.0
loop_
_geom_bond_atom_site_label_1
_geom_bond_atom_site_label_2
_geom_bond_distance
_geom_bond_site_symmetry_2
_ccdc_geom_bond_type
C0 C1 1.351 . S
C0 N3 1.368 . S
C0 H5 0.931 . S
C1 C0 1.351 . S
C1 N2 1.373 . S
C1 H29 0.930 . S
N2 C1 1.373 . S
N2 C4 1.340 . S
N3 C0 1.368 . S
N3 C4 1.321 . S
N3 Co6 2.135 . S
C4 N2 1.340 . S
C4 N3 1.321 . S
C4 H28 0.930 . S
H5 C0 0.931 . S
Co6 N3 2.135 . S
Co6 N9 2.121 . S
Co6 O14 2.055 . S
Co6 O17 2.039 . S
Co6 N20 2.140 . S
C7 O8 1.227 . S
C7 O17 1.265 . S
O8 C7 1.227 . S
N9 Co6 2.121 . S
N9 C11 1.375 . S
N9 C12 1.313 . S
C10 C11 1.338 1_556 S
C10 N13 1.377 . S
C10 H30 0.930 . S
C11 N9 1.375 . S
C11 C10 1.338 1_554 S
C11 H15 0.931 . S
C12 N9 1.313 . S
C12 N13 1.344 1_554 S
C12 H16 0.930 . S
N13 C10 1.377 . S
N13 C12 1.344 1_556 S
O14 Co6 2.055 . S
O14 C18 1.253 . S
H15 C11 0.931 . S
H16 C12 0.930 . S
O17 Co6 2.039 . S
O17 C7 1.265 . S
C18 O14 1.253 . S
C18 O19 1.227 . S
O19 C18 1.227 . S
N20 Co6 2.140 . S
N20 C23 1.346 . S
N20 C24 1.345 . S
C21 C22 1.387 . S
C21 C25 1.391 . S
C22 C21 1.387 . S
C22 C23 1.369 . S
C22 H31 0.929 . S
C23 N20 1.346 . S
C23 C22 1.369 . S
C23 H26 0.928 . S
C24 N20 1.345 . S
C24 C25 1.371 . S
C24 H27 0.931 . S
C25 C21 1.391 . S
C25 C24 1.371 . S
C25 H32 0.930 . S
H26 C23 0.928 . S
H27 C24 0.931 . S
H28 C4 0.930 . S
H29 C1 0.930 . S
H30 C10 0.930 . S
H31 C22 0.929 . S
H32 C25 0.930 . S
C33 C34 1.351 . S
C33 N36 1.368 . S
C33 H38 0.931 . S
C34 C33 1.351 . S
C34 N35 1.373 . S
C34 H62 0.930 . S
N35 C34 1.373 . S
N35 C37 1.340 . S
N36 C33 1.368 . S
N36 C37 1.321 . S
N36 Co39 2.135 . S
C37 N35 1.340 . S
C37 N36 1.321 . S
C37 H61 0.930 . S
H38 C33 0.931 . S
Co39 N36 2.135 . S
Co39 N42 2.121 . S
Co39 O47 2.055 . S
Co39 O50 2.039 . S
Co39 N53 2.140 . S
C40 O41 1.227 . S
C40 O50 1.265 . S
O41 C40 1.227 . S
N42 Co39 2.121 . S
N42 C44 1.375 . S
N42 C45 1.313 . S
C43 C44 1.338 . S
C43 N46 1.377 . S
C43 H63 0.930 . S
C44 N42 1.375 . S
C44 C43 1.338 . S
C44 H48 0.931 . S
C45 N42 1.313 . S
C45 N46 1.344 . S
C45 H49 0.930 . S
N46 C43 1.377 . S
N46 C45 1.344 . S
O47 Co39 2.055 . S
O47 C51 1.253 . S
H48 C44 0.931 . S
H49 C45 0.930 . S
O50 Co39 2.039 . S
O50 C40 1.265 . S
C51 O47 1.253 . S
C51 O52 1.227 . S
O52 C51 1.227 . S
N53 Co39 2.140 . S
N53 C56 1.346 . S
N53 C57 1.345 . S
C54 C55 1.387 . S
C54 C58 1.391 . S
C55 C54 1.387 . S
C55 C56 1.369 . S
C55 H64 0.929 . S
C56 N53 1.346 . S
C56 C55 1.369 . S
C56 H59 0.928 . S
C57 N53 1.345 . S
C57 C58 1.371 . S
C57 H60 0.931 . S
C58 C54 1.391 . S
C58 C57 1.371 . S
C58 H65 0.930 . S
H59 C56 0.928 . S
H60 C57 0.931 . S
H61 C37 0.930 . S
H62 C34 0.930 . S
H63 C43 0.930 . S
H64 C55 0.929 . S
H65 C58 0.930 . S
C66 C67 1.351 . S
C66 N69 1.368 . S
C66 H71 0.931 . S
C67 C66 1.351 . S
C67 N68 1.373 . S
C67 H95 0.930 . S
N68 C67 1.373 . S
N68 C70 1.340 . S
N69 C66 1.368 . S
N69 C70 1.321 . S
N69 Co72 2.135 1_554 S
C70 N68 1.340 . S
C70 N69 1.321 . S
C70 H94 0.930 . S
H71 C66 0.931 . S
Co72 N69 2.135 1_556 S
Co72 N75 2.121 . S
Co72 O80 2.055 . S
Co72 O83 2.039 . S
Co72 N86 2.140 . S
C73 O74 1.227 . S
C73 O83 1.265 . S
O74 C73 1.227 . S
N75 Co72 2.121 . S
N75 C77 1.375 . S
N75 C78 1.313 . S
C76 C77 1.338 . S
C76 N79 1.377 . S
C76 H96 0.930 . S
C77 N75 1.375 . S
C77 C76 1.338 . S
C77 H81 0.931 . S
C78 N75 1.313 . S
C78 N79 1.344 . S
C78 H82 0.930 . S
N79 C76 1.377 . S
N79 C78 1.344 . S
O80 Co72 2.055 . S
O80 C84 1.253 . S
H81 C77 0.931 . S
H82 C78 0.930 . S
O83 Co72 2.039 . S
O83 C73 1.265 . S
C84 O80 1.253 . S
C84 O85 1.227 . S
O85 C84 1.227 . S
N86 Co72 2.140 . S
N86 C89 1.346 . S
N86 C90 1.345 . S
C87 C88 1.387 1_556 S
C87 C91 1.391 . S
C88 C87 1.387 1_554 S
C88 C89 1.369 1_554 S
C88 H97 0.929 . S
C89 N86 1.346 . S
C89 C88 1.369 1_556 S
C89 H92 0.928 1_556 S
C90 N86 1.345 . S
C90 C91 1.371 . S
C90 H93 0.931 . S
C91 C87 1.391 . S
C91 C90 1.371 . S
C91 H98 0.930 . S
H92 C89 0.928 1_554 S
H93 C90 0.931 . S
H94 C70 0.930 . S
H95 C67 0.930 . S
H96 C76 0.930 . S
H97 C88 0.929 . S
H98 C91 0.930 . S
C99 C100 1.351 . S
C99 N102 1.368 . S
C99 H104 0.931 . S
C100 C99 1.351 . S
C100 N101 1.373 . S
C100 H128 0.930 . S
N101 C100 1.373 . S
N101 C103 1.340 . S
N102 C99 1.368 . S
N102 C103 1.321 . S
N102 Co105 2.135 . S
C103 N101 1.340 . S
C103 N102 1.321 . S
C103 H127 0.930 . S
H104 C99 0.931 . S
Co105 N102 2.135 . S
Co105 N108 2.121 . S
Co105 O113 2.055 . S
Co105 O116 2.039 . S
Co105 N119 2.140 . S
C106 O107 1.227 . S
C106 O116 1.265 . S
O107 C106 1.227 . S
N108 Co105 2.121 . S
N108 C110 1.375 . S
N108 C111 1.313 . S
C109 C110 1.338 1_556 S
C109 N112 1.377 . S
C109 H129 0.930 . S
C110 N108 1.375 . S
C110 C109 1.338 1_554 S
C110 H114 0.931 . S
C111 N108 1.313 . S
C111 N112 1.344 1_554 S
C111 H115 0.930 . S
N112 C109 1.377 . S
N112 C111 1.344 1_556 S
O113 Co105 2.055 . S
O113 C117 1.253 . S
H114 C110 0.931 . S
H115 C111 0.930 . S
O116 Co105 2.039 . S
O116 C106 1.265 . S
C117 O113 1.253 . S
C117 O118 1.227 . S
O118 C117 1.227 . S
N119 Co105 2.140 . S
N119 C122 1.346 . S
N119 C123 1.345 . S
C120 C121 1.387 . S
C120 C124 1.391 . S
C121 C120 1.387 . S
C121 C122 1.369 . S
C121 H130 0.929 . S
C122 N119 1.346 . S
C122 C121 1.369 . S
C122 H125 0.928 . S
C123 N119 1.345 . S
C123 C124 1.371 . S
C123 H126 0.931 . S
C124 C120 1.391 . S
C124 C123 1.371 . S
C124 H131 0.930 . S
H125 C122 0.928 . S
H126 C123 0.931 . S
H127 C103 0.930 . S
H128 C100 0.930 . S
H129 C109 0.930 . S
H130 C121 0.929 . S
H131 C124 0.930 . S
C132 C133 1.351 . S
C132 N135 1.368 . S
C132 H137 0.931 . S
C133 C132 1.351 . S
C133 N134 1.373 . S
C133 H161 0.930 . S
N134 C133 1.373 . S
N134 C136 1.340 . S
N135 C132 1.368 . S
N135 C136 1.321 . S
N135 Co138 2.135 . S
C136 N134 1.340 . S
C136 N135 1.321 . S
C136 H160 0.930 . S
H137 C132 0.931 . S
Co138 N135 2.135 . S
Co138 N141 2.121 . S
Co138 O146 2.055 . S
Co138 O149 2.039 . S
Co138 N152 2.140 . S
C139 O140 1.227 . S
C139 O149 1.265 . S
O140 C139 1.227 . S
N141 Co138 2.121 . S
N141 C143 1.375 . S
N141 C144 1.313 . S
C142 C143 1.338 . S
C142 N145 1.377 . S
C142 H162 0.930 . S
C143 N141 1.375 . S
C143 C142 1.338 . S
C143 H147 0.931 . S
C144 N141 1.313 . S
C144 N145 1.344 . S
C144 H148 0.930 . S
N145 C142 1.377 . S
N145 C144 1.344 . S
O146 Co138 2.055 . S
O146 C150 1.253 . S
H147 C143 0.931 . S
H148 C144 0.930 . S
O149 Co138 2.039 . S
O149 C139 1.265 . S
C150 O146 1.253 . S
C150 O151 1.227 . S
O151 C150 1.227 . S
N152 Co138 2.140 . S
N152 C155 1.346 . S
N152 C156 1.345 . S
C153 C154 1.387 . S
C153 C157 1.391 . S
C154 C153 1.387 . S
C154 C155 1.369 . S
C154 H163 0.929 . S
C155 N152 1.346 . S
C155 C154 1.369 . S
C155 H158 0.928 . S
C156 N152 1.345 . S
C156 C157 1.371 . S
C156 H159 0.931 . S
C157 C153 1.391 . S
C157 C156 1.371 . S
C157 H164 0.930 . S
H158 C155 0.928 . S
H159 C156 0.931 . S
H160 C136 0.930 . S
H161 C133 0.930 . S
H162 C142 0.930 . S
H163 C154 0.929 . S
H164 C157 0.930 . S
C165 C166 1.351 . S
C165 N168 1.368 . S
C165 H170 0.931 . S
C166 C165 1.351 . S
C166 N167 1.373 . S
C166 H194 0.930 . S
N167 C166 1.373 . S
N167 C169 1.340 . S
N168 C165 1.368 . S
N168 C169 1.321 . S
N168 Co171 2.135 1_554 S
C169 N167 1.340 . S
C169 N168 1.321 . S
C169 H193 0.930 . S
H170 C165 0.931 . S
Co171 N168 2.135 1_556 S
Co171 N174 2.121 . S
Co171 O179 2.055 . S
Co171 O182 2.039 . S
Co171 N185 2.140 . S
C172 O173 1.227 . S
C172 O182 1.265 . S
O173 C172 1.227 . S
N174 Co171 2.121 . S
N174 C176 1.375 . S
N174 C177 1.313 . S
C175 C176 1.338 . S
C175 N178 1.377 . S
C175 H195 0.930 . S
C176 N174 1.375 . S
C176 C175 1.338 . S
C176 H180 0.931 . S
C177 N174 1.313 . S
C177 N178 1.344 . S
C177 H181 0.930 . S
N178 C175 1.377 . S
N178 C177 1.344 . S
O179 Co171 2.055 . S
O179 C183 1.253 . S
H180 C176 0.931 . S
H181 C177 0.930 . S
O182 Co171 2.039 . S
O182 C172 1.265 . S
C183 O179 1.253 . S
C183 O184 1.227 . S
O184 C183 1.227 . S
N185 Co171 2.140 . S
N185 C188 1.346 . S
N185 C189 1.345 . S
C186 C187 1.387 1_556 S
C186 C190 1.391 . S
C187 C186 1.387 1_554 S
C187 C188 1.369 1_554 S
C187 H196 0.929 . S
C188 N185 1.346 . S
C188 C187 1.369 1_556 S
C188 H191 0.928 1_556 S
C189 N185 1.345 . S
C189 C190 1.371 . S
C189 H192 0.931 . S
C190 C186 1.391 . S
C190 C189 1.371 . S
C190 H197 0.930 . S
H191 C188 0.928 1_554 S
H192 C189 0.931 . S
H193 C169 0.930 . S
H194 C166 0.930 . S
H195 C175 0.930 . S
H196 C187 0.929 . S
H197 C190 0.930 . S
C198 C199 1.351 . S
C198 N201 1.368 . S
C198 H203 0.931 . S
C199 C198 1.351 . S
C199 N200 1.373 . S
C199 H227 0.930 . S
N200 C199 1.373 . S
N200 C202 1.340 . S
N201 C198 1.368 . S
N201 C202 1.321 . S
N201 Co204 2.135 . S
C202 N200 1.340 . S
C202 N201 1.321 . S
C202 H226 0.930 . S
H203 C198 0.931 . S
Co204 N201 2.135 . S
Co204 N207 2.121 . S
Co204 O212 2.055 . S
Co204 O215 2.039 . S
Co204 N218 2.140 . S
C205 O206 1.227 . S
C205 O215 1.265 . S
O206 C205 1.227 . S
N207 Co204 2.121 . S
N207 C209 1.375 . S
N207 C210 1.313 . S
C208 C209 1.338 . S
C208 N211 1.377 . S
C208 H228 0.930 . S
C209 N207 1.375 . S
C209 C208 1.338 . S
C209 H213 0.931 . S
C210 N207 1.313 . S
C210 N211 1.344 . S
C210 H214 0.930 . S
N211 C208 1.377 . S
N211 C210 1.344 . S
O212 Co204 2.055 . S
O212 C216 1.253 . S
H213 C209 0.931 . S
H214 C210 0.930 . S
O215 Co204 2.039 . S
O215 C205 1.265 . S
C216 O212 1.253 . S
C216 O217 1.227 . S
O217 C216 1.227 . S
N218 Co204 2.140 . S
N218 C221 1.346 . S
N218 C222 1.345 . S
C219 C220 1.387 . S
C219 C223 1.391 . S
C220 C219 1.387 . S
C220 C221 1.369 . S
C220 H229 0.929 . S
C221 N218 1.346 . S
C221 C220 1.369 . S
C221 H224 0.928 . S
C222 N218 1.345 . S
C222 C223 1.371 . S
C222 H225 0.931 . S
C223 C219 1.391 . S
C223 C222 1.371 . S
C223 H230 0.930 . S
H224 C221 0.928 . S
H225 C222 0.931 . S
H226 C202 0.930 . S
H227 C199 0.930 . S
H228 C208 0.930 . S
H229 C220 0.929 . S
H230 C223 0.930 . S
C231 C232 1.351 . S
C231 N234 1.368 . S
C231 H236 0.931 . S
C232 C231 1.351 . S
C232 N233 1.373 . S
C232 H260 0.930 . S
N233 C232 1.373 . S
N233 C235 1.340 . S
N234 C231 1.368 . S
N234 C235 1.321 . S
N234 Co237 2.135 . S
C235 N233 1.340 . S
C235 N234 1.321 . S
C235 H259 0.930 . S
H236 C231 0.931 . S
Co237 N234 2.135 . S
Co237 N240 2.121 . S
Co237 O245 2.055 . S
Co237 O248 2.039 . S
Co237 N251 2.140 . S
C238 O239 1.227 . S
C238 O248 1.265 . S
O239 C238 1.227 . S
N240 Co237 2.121 . S
N240 C242 1.375 . S
N240 C243 1.313 . S
C241 C242 1.338 1_554 S
C241 N244 1.377 . S
C241 H261 0.930 . S
C242 N240 1.375 . S
C242 C241 1.338 1_556 S
C242 H246 0.931 . S
C243 N240 1.313 . S
C243 N244 1.344 1_556 S
C243 H247 0.930 . S
N244 C241 1.377 . S
N244 C243 1.344 1_554 S
O245 Co237 2.055 . S
O245 C249 1.253 . S
H246 C242 0.931 . S
H247 C243 0.930 . S
O248 Co237 2.039 . S
O248 C238 1.265 . S
C249 O245 1.253 . S
C249 O250 1.227 . S
O250 C249 1.227 . S
N251 Co237 2.140 . S
N251 C254 1.346 . S
N251 C255 1.345 . S
C252 C253 1.387 . S
C252 C256 1.391 . S
C253 C252 1.387 . S
C253 C254 1.369 . S
C253 H262 0.929 . S
C254 N251 1.346 . S
C254 C253 1.369 . S
C254 H257 0.928 . S
C255 N251 1.345 . S
C255 C256 1.371 . S
C255 H258 0.931 . S
C256 C252 1.391 . S
C256 C255 1.371 . S
C256 H263 0.930 . S
H257 C254 0.928 . S
H258 C255 0.931 . S
H259 C235 0.930 . S
H260 C232 0.930 . S
H261 C241 0.930 . S
H262 C253 0.929 . S
H263 C256 0.930 . S
C264 C265 1.351 . S
C264 N267 1.368 . S
C264 H269 0.931 . S
C265 C264 1.351 . S
C265 N266 1.373 . S
C265 H293 0.930 . S
N266 C265 1.373 . S
N266 C268 1.340 . S
N267 C264 1.368 . S
N267 C268 1.321 . S
N267 Co270 2.135 1_556 S
C268 N266 1.340 . S
C268 N267 1.321 . S
C268 H292 0.930 . S
H269 C264 0.931 . S
Co270 N267 2.135 1_554 S
Co270 N273 2.121 . S
Co270 O278 2.055 . S
Co270 O281 2.039 . S
Co270 N284 2.140 . S
C271 O272 1.227 . S
C271 O281 1.265 . S
O272 C271 1.227 . S
N273 Co270 2.121 . S
N273 C275 1.375 . S
N273 C276 1.313 . S
C274 C275 1.338 . S
C274 N277 1.377 . S
C274 H294 0.930 . S
C275 N273 1.375 . S
C275 C274 1.338 . S
C275 H279 0.931 . S
C276 N273 1.313 . S
C276 N277 1.344 . S
C276 H280 0.930 . S
N277 C274 1.377 . S
N277 C276 1.344 . S
O278 Co270 2.055 . S
O278 C282 1.253 . S
H279 C275 0.931 . S
H280 C276 0.930 . S
O281 Co270 2.039 . S
O281 C271 1.265 . S
C282 O278 1.253 . S
C282 O283 1.227 . S
O283 C282 1.227 . S
N284 Co270 2.140 . S
N284 C287 1.346 . S
N284 C288 1.345 . S
C285 C286 1.387 1_554 S
C285 C289 1.391 . S
C286 C285 1.387 1_556 S
C286 C287 1.369 1_556 S
C286 H295 0.929 . S
C287 N284 1.346 . S
C287 C286 1.369 1_554 S
C287 H290 0.928 1_554 S
C288 N284 1.345 . S
C288 C289 1.371 . S
C288 H291 0.931 . S
C289 C285 1.391 . S
C289 C288 1.371 . S
C289 H296 0.930 . S
H290 C287 0.928 1_556 S
H291 C288 0.931 . S
H292 C268 0.930 . S
H293 C265 0.930 . S
H294 C274 0.930 . S
H295 C286 0.929 . S
H296 C289 0.930 . S
C297 C298 1.351 . S
C297 N300 1.368 . S
C297 H302 0.931 . S
C298 C297 1.351 . S
C298 N299 1.373 . S
C298 H326 0.930 . S
N299 C298 1.373 . S
N299 C301 1.340 . S
N300 C297 1.368 . S
N300 C301 1.321 . S
N300 Co303 2.135 . S
C301 N299 1.340 . S
C301 N300 1.321 . S
C301 H325 0.930 . S
H302 C297 0.931 . S
Co303 N300 2.135 . S
Co303 N306 2.121 . S
Co303 O311 2.055 . S
Co303 O314 2.039 . S
Co303 N317 2.140 . S
C304 O305 1.227 . S
C304 O314 1.265 . S
O305 C304 1.227 . S
N306 Co303 2.121 . S
N306 C308 1.375 . S
N306 C309 1.313 . S
C307 C308 1.338 . S
C307 N310 1.377 . S
C307 H327 0.930 . S
C308 N306 1.375 . S
C308 C307 1.338 . S
C308 H312 0.931 . S
C309 N306 1.313 . S
C309 N310 1.344 . S
C309 H313 0.930 . S
N310 C307 1.377 . S
N310 C309 1.344 . S
O311 Co303 2.055 . S
O311 C315 1.253 . S
H312 C308 0.931 . S
H313 C309 0.930 . S
O314 Co303 2.039 . S
O314 C304 1.265 . S
C315 O311 1.253 . S
C315 O316 1.227 . S
O316 C315 1.227 . S
N317 Co303 2.140 . S
N317 C320 1.346 . S
N317 C321 1.345 . S
C318 C319 1.387 . S
C318 C322 1.391 . S
C319 C318 1.387 . S
C319 C320 1.369 . S
C319 H328 0.929 . S
C320 N317 1.346 . S
C320 C319 1.369 . S
C320 H323 0.928 . S
C321 N317 1.345 . S
C321 C322 1.371 . S
C321 H324 0.931 . S
C322 C318 1.391 . S
C322 C321 1.371 . S
C322 H329 0.930 . S
H323 C320 0.928 . S
H324 C321 0.931 . S
H325 C301 0.930 . S
H326 C298 0.930 . S
H327 C307 0.930 . S
H328 C319 0.929 . S
H329 C322 0.930 . S
C330 C331 1.351 . S
C330 N333 1.368 . S
C330 H335 0.931 . S
C331 C330 1.351 . S
C331 N332 1.373 . S
C331 H359 0.930 . S
N332 C331 1.373 . S
N332 C334 1.340 . S
N333 C330 1.368 . S
N333 C334 1.321 . S
N333 Co336 2.135 . S
C334 N332 1.340 . S
C334 N333 1.321 . S
C334 H358 0.930 . S
H335 C330 0.931 . S
Co336 N333 2.135 . S
Co336 N339 2.121 . S
Co336 O344 2.055 . S
Co336 O347 2.039 . S
Co336 N350 2.140 . S
C337 O338 1.227 . S
C337 O347 1.265 . S
O338 C337 1.227 . S
N339 Co336 2.121 . S
N339 C341 1.375 . S
N339 C342 1.313 . S
C340 C341 1.338 1_554 S
C340 N343 1.377 . S
C340 H360 0.930 . S
C341 N339 1.375 . S
C341 C340 1.338 1_556 S
C341 H345 0.931 . S
C342 N339 1.313 . S
C342 N343 1.344 1_556 S
C342 H346 0.930 . S
N343 C340 1.377 . S
N343 C342 1.344 1_554 S
O344 Co336 2.055 . S
O344 C348 1.253 . S
H345 C341 0.931 . S
H346 C342 0.930 . S
O347 Co336 2.039 . S
O347 C337 1.265 . S
C348 O344 1.253 . S
C348 O349 1.227 . S
O349 C348 1.227 . S
N350 Co336 2.140 . S
N350 C353 1.346 . S
N350 C354 1.345 . S
C351 C352 1.387 . S
C351 C355 1.391 . S
C352 C351 1.387 . S
C352 C353 1.369 . S
C352 H361 0.929 . S
C353 N350 1.346 . S
C353 C352 1.369 . S
C353 H356 0.928 . S
C354 N350 1.345 . S
C354 C355 1.371 . S
C354 H357 0.931 . S
C355 C351 1.391 . S
C355 C354 1.371 . S
C355 H362 0.930 . S
H356 C353 0.928 . S
H357 C354 0.931 . S
H358 C334 0.930 . S
H359 C331 0.930 . S
H360 C340 0.930 . S
H361 C352 0.929 . S
H362 C355 0.930 . S
C363 C364 1.351 . S
C363 N366 1.368 . S
C363 H368 0.931 . S
C364 C363 1.351 . S
C364 N365 1.373 . S
C364 H392 0.930 . S
N365 C364 1.373 . S
N365 C367 1.340 . S
N366 C363 1.368 . S
N366 C367 1.321 . S
N366 Co369 2.135 1_556 S
C367 N365 1.340 . S
C367 N366 1.321 . S
C367 H391 0.930 . S
H368 C363 0.931 . S
Co369 N366 2.135 1_554 S
Co369 N372 2.121 . S
Co369 O377 2.055 . S
Co369 O380 2.039 . S
Co369 N383 2.140 . S
C370 O371 1.227 . S
C370 O380 1.265 . S
O371 C370 1.227 . S
N372 Co369 2.121 . S
N372 C374 1.375 . S
N372 C375 1.313 . S
C373 C374 1.338 . S
C373 N376 1.377 . S
C373 H393 0.930 . S
C374 N372 1.375 . S
C374 C373 1.338 . S
C374 H378 0.931 . S
C375 N372 1.313 . S
C375 N376 1.344 . S
C375 H379 0.930 . S
N376 C373 1.377 . S
N376 C375 1.344 . S
O377 Co369 2.055 . S
O377 C381 1.253 . S
H378 C374 0.931 . S
H379 C375 0.930 . S
O380 Co369 2.039 . S
O380 C370 1.265 . S
C381 O377 1.253 . S
C381 O382 1.227 . S
O382 C381 1.227 . S
N383 Co369 2.140 . S
N383 C386 1.346 . S
N383 C387 1.345 . S
C384 C385 1.387 1_554 S
C384 C388 1.391 . S
C385 C384 1.387 1_556 S
C385 C386 1.369 1_556 S
C385 H394 0.929 . S
C386 N383 1.346 . S
C386 C385 1.369 1_554 S
C386 H389 0.928 1_554 S
C387 N383 1.345 . S
C387 C388 1.371 . S
C387 H390 0.931 . S
C388 C384 1.391 . S
C388 C387 1.371 . S
C388 H395 0.930 . S
H389 C386 0.928 1_556 S
H390 C387 0.931 . S
H391 C367 0.930 . S
H392 C364 0.930 . S
H393 C373 0.930 . S
H394 C385 0.929 . S
H395 C388 0.930 . S
H396 C402 0.930 . S
H397 C405 0.930 . S
H398 C406 0.930 . S
H399 C407 0.930 . S
H400 C410 0.930 . S
H401 C411 0.930 . S
C402 H396 0.930 . S
C402 C403 1.355 . S
C402 C404 1.415 . S
C403 C402 1.355 . S
C403 C405 1.419 . S
C404 C402 1.415 . S
C404 C409 1.425 1_554 S
C404 C411 1.409 . S
C405 H397 0.930 . S
C405 C403 1.419 . S
C405 C406 1.362 1_554 S
C406 H398 0.930 . S
C406 C405 1.362 1_556 S
C406 C409 1.409 . S
C407 H399 0.930 . S
C407 C408 1.355 . S
C407 C409 1.415 . S
C408 C407 1.355 . S
C408 C410 1.419 . S
C409 C404 1.425 1_556 S
C409 C406 1.409 . S
C409 C407 1.415 . S
C410 H400 0.930 . S
C410 C408 1.419 . S
C410 C411 1.362 1_556 S
C411 H401 0.930 . S
C411 C404 1.409 . S
C411 C410 1.362 1_554 S
H412 C418 0.930 . S
H413 C421 0.930 . S
H414 C422 0.930 . S
H415 C423 0.930 . S
H416 C426 0.930 . S
H417 C427 0.930 . S
C418 H412 0.930 . S
C418 C419 1.355 . S
C418 C420 1.415 . S
C419 C418 1.355 . S
C419 C421 1.419 . S
C420 C418 1.415 . S
C420 C425 1.425 . S
C420 C427 1.409 . S
C421 H413 0.930 . S
C421 C419 1.419 . S
C421 C422 1.362 . S
C422 H414 0.930 . S
C422 C421 1.362 . S
C422 C425 1.409 . S
C423 H415 0.930 . S
C423 C424 1.355 . S
C423 C425 1.415 . S
C424 C423 1.355 . S
C424 C426 1.419 . S
C425 C420 1.425 . S
C425 C422 1.409 . S
C425 C423 1.415 . S
C426 H416 0.930 . S
C426 C424 1.419 . S
C426 C427 1.362 . S
C427 H417 0.930 . S
C427 C420 1.409 . S
C427 C426 1.362 . S
H428 C434 0.930 . S
H429 C437 0.930 . S
H430 C438 0.930 . S
H431 C439 0.930 . S
H432 C442 0.930 . S
H433 C443 0.930 . S
C434 H428 0.930 . S
C434 C435 1.355 . S
C434 C436 1.415 . S
C435 C434 1.355 . S
C435 C437 1.419 . S
C436 C434 1.415 . S
C436 C441 1.425 . S
C436 C443 1.409 . S
C437 H429 0.930 . S
C437 C435 1.419 . S
C437 C438 1.362 . S
C438 H430 0.930 . S
C438 C437 1.362 . S
C438 C441 1.409 . S
C439 H431 0.930 . S
C439 C440 1.355 . S
C439 C441 1.415 . S
C440 C439 1.355 . S
C440 C442 1.419 . S
C441 C436 1.425 . S
C441 C438 1.409 . S
C441 C439 1.415 . S
C442 H432 0.930 . S
C442 C440 1.419 . S
C442 C443 1.362 . S
C443 H433 0.930 . S
C443 C436 1.409 . S
C443 C442 1.362 . S
H444 C450 0.930 . S
H445 C453 0.930 . S
H446 C454 0.930 . S
H447 C455 0.930 . S
H448 C458 0.930 . S
H449 C459 0.930 . S
C450 H444 0.930 . S
C450 C451 1.355 . S
C450 C452 1.415 1_556 S
C451 C450 1.355 . S
C451 C453 1.419 . S
C452 C450 1.415 1_554 S
C452 C457 1.425 1_554 S
C452 C459 1.409 . S
C453 H445 0.930 . S
C453 C451 1.419 . S
C453 C454 1.362 . S
C454 H446 0.930 . S
C454 C453 1.362 . S
C454 C457 1.409 . S
C455 H447 0.930 . S
C455 C456 1.355 . S
C455 C457 1.415 1_554 S
C456 C455 1.355 . S
C456 C458 1.419 . S
C457 C452 1.425 1_556 S
C457 C454 1.409 . S
C457 C455 1.415 1_556 S
C458 H448 0.930 . S
C458 C456 1.419 . S
C458 C459 1.362 . S
C459 H449 0.930 . S
C459 C452 1.409 . S
C459 C458 1.362 . S
H460 C466 0.930 . S
H461 C469 0.930 . S
H462 C470 0.930 . S
H463 C471 0.930 . S
H464 C474 0.930 . S
H465 C475 0.930 . S
C466 H460 0.930 . S
C466 C467 1.355 . S
C466 C468 1.415 . S
C467 C466 1.355 . S
C467 C469 1.419 . S
C468 C466 1.415 . S
C468 C473 1.425 . S
C468 C475 1.409 . S
C469 H461 0.930 . S
C469 C467 1.419 . S
C469 C470 1.362 . S
C470 H462 0.930 . S
C470 C469 1.362 . S
C470 C473 1.409 . S
C471 H463 0.930 . S
C471 C472 1.355 . S
C471 C473 1.415 . S
C472 C471 1.355 . S
C472 C474 1.419 . S
C473 C468 1.425 . S
C473 C470 1.409 . S
C473 C471 1.415 . S
C474 H464 0.930 . S
C474 C472 1.419 . S
C474 C475 1.362 . S
C475 H465 0.930 . S
C475 C468 1.409 . S
C475 C474 1.362 . S
H476 C482 0.930 . S
H477 C485 0.930 . S
H478 C486 0.930 . S
H479 C487 0.930 . S
H480 C490 0.930 . S
H481 C491 0.930 . S
C482 H476 0.930 . S
C482 C483 1.355 . S
C482 C484 1.415 . S
C483 C482 1.355 . S
C483 C485 1.419 . S
C484 C482 1.415 . S
C484 C489 1.425 . S
C484 C491 1.409 . S
C485 H477 0.930 . S
C485 C483 1.419 . S
C485 C486 1.362 . S
C486 H478 0.930 . S
C486 C485 1.362 . S
C486 C489 1.409 . S
C487 H479 0.930 . S
C487 C488 1.355 . S
C487 C489 1.415 . S
C488 C487 1.355 . S
C488 C490 1.419 . S
C489 C484 1.425 . S
C489 C486 1.409 . S
C489 C487 1.415 . S
C490 H480 0.930 . S
C490 C488 1.419 . S
C490 C491 1.362 . S
C491 H481 0.930 . S
C491 C484 1.409 . S
C491 C490 1.362 . S
H492 C498 0.930 . S
H493 C501 0.930 . S
H494 C502 0.930 . S
H495 C503 0.930 . S
H496 C506 0.930 . S
H497 C507 0.930 . S
C498 H492 0.930 . S
C498 C499 1.355 . S
C498 C500 1.415 . S
C499 C498 1.355 . S
C499 C501 1.419 . S
C500 C498 1.415 . S
C500 C505 1.425 . S
C500 C507 1.409 . S
C501 H493 0.930 . S
C501 C499 1.419 . S
C501 C502 1.362 . S
C502 H494 0.930 . S
C502 C501 1.362 . S
C502 C505 1.409 . S
C503 H495 0.930 . S
C503 C504 1.355 . S
C503 C505 1.415 . S
C504 C503 1.355 . S
C504 C506 1.419 . S
C505 C500 1.425 . S
C505 C502 1.409 . S
C505 C503 1.415 . S
C506 H496 0.930 . S
C506 C504 1.419 . S
C506 C507 1.362 . S
C507 H497 0.930 . S
C507 C500 1.409 . S
C507 C506 1.362 . S
H508 C514 0.930 . S
H509 C517 0.930 . S
H510 C518 0.930 . S
H511 C519 0.930 . S
H512 C522 0.930 . S
H513 C523 0.930 . S
C514 H508 0.930 . S
C514 C515 1.355 . S
C514 C516 1.415 . S
C515 C514 1.355 . S
C515 C517 1.419 . S
C516 C514 1.415 . S
C516 C521 1.425 . S
C516 C523 1.409 . S
C517 H509 0.930 . S
C517 C515 1.419 . S
C517 C518 1.362 . S
C518 H510 0.930 . S
C518 C517 1.362 . S
C518 C521 1.409 . S
C519 H511 0.930 . S
C519 C520 1.355 . S
C519 C521 1.415 . S
C520 C519 1.355 . S
C520 C522 1.419 . S
C521 C516 1.425 . S
C521 C518 1.409 . S
C521 C519 1.415 . S
C522 H512 0.930 . S
C522 C520 1.419 . S
C522 C523 1.362 . S
C523 H513 0.930 . S
C523 C516 1.409 . S
C523 C522 1.362 . S
H524 C530 0.930 . S
H525 C533 0.930 . S
H526 C534 0.930 . S
H527 C535 0.930 . S
H528 C538 0.930 . S
H529 C539 0.930 . S
C530 H524 0.930 . S
C530 C531 1.355 . S
C530 C532 1.415 . S
C531 C530 1.355 . S
C531 C533 1.419 1_556 S
C532 C530 1.415 . S
C532 C537 1.425 1_556 S
C532 C539 1.409 . S
C533 H525 0.930 . S
C533 C531 1.419 1_554 S
C533 C534 1.362 . S
C534 H526 0.930 . S
C534 C533 1.362 . S
C534 C537 1.409 . S
C535 H527 0.930 . S
C535 C536 1.355 . S
C535 C537 1.415 . S
C536 C535 1.355 . S
C536 C538 1.419 1_554 S
C537 C532 1.425 1_554 S
C537 C534 1.409 . S
C537 C535 1.415 . S
C538 H528 0.930 . S
C538 C536 1.419 1_556 S
C538 C539 1.362 . S
C539 H529 0.930 . S
C539 C532 1.409 . S
C539 C538 1.362 . S
H540 C546 0.930 . S
H541 C549 0.930 . S
H542 C550 0.930 . S
H543 C551 0.930 . S
H544 C554 0.930 . S
H545 C555 0.930 . S
C546 H540 0.930 . S
C546 C547 1.355 . S
C546 C548 1.415 . S
C547 C546 1.355 . S
C547 C549 1.419 . S
C548 C546 1.415 . S
C548 C553 1.425 . S
C548 C555 1.409 . S
C549 H541 0.930 . S
C549 C547 1.419 . S
C549 C550 1.362 . S
C550 H542 0.930 . S
C550 C549 1.362 . S
C550 C553 1.409 . S
C551 H543 0.930 . S
C551 C552 1.355 . S
C551 C553 1.415 . S
C552 C551 1.355 . S
C552 C554 1.419 . S
C553 C548 1.425 . S
C553 C550 1.409 . S
C553 C551 1.415 . S
C554 H544 0.930 . S
C554 C552 1.419 . S
C554 C555 1.362 . S
C555 H545 0.930 . S
C555 C548 1.409 . S
C555 C554 1.362 . S
H556 C562 0.930 . S
H557 C565 0.930 . S
H558 C566 0.930 . S
H559 C567 0.930 . S
H560 C570 0.930 . S
H561 C571 0.930 . S
C562 H556 0.930 . S
C562 C563 1.355 . S
C562 C564 1.415 . S
C563 C562 1.355 . S
C563 C565 1.419 . S
C564 C562 1.415 . S
C564 C569 1.425 . S
C564 C571 1.409 . S
C565 H557 0.930 . S
C565 C563 1.419 . S
C565 C566 1.362 . S
C566 H558 0.930 . S
C566 C565 1.362 . S
C566 C569 1.409 . S
C567 H559 0.930 . S
C567 C568 1.355 . S
C567 C569 1.415 . S
C568 C567 1.355 . S
C568 C570 1.419 . S
C569 C564 1.425 . S
C569 C566 1.409 . S
C569 C567 1.415 . S
C570 H560 0.930 . S
C570 C568 1.419 . S
C570 C571 1.362 . S
C571 H561 0.930 . S
C571 C564 1.409 . S
C571 C570 1.362 . S
H572 C578 0.930 . S
H573 C581 0.930 . S
H574 C582 0.930 . S
H575 C583 0.930 . S
H576 C586 0.930 . S
H577 C587 0.930 . S
C578 H572 0.930 . S
C578 C579 1.355 1_556 S
C578 C580 1.415 . S
C579 C578 1.355 1_554 S
C579 C581 1.419 . S
C580 C578 1.415 . S
C580 C585 1.425 1_556 S
C580 C587 1.409 . S
C581 H573 0.930 . S
C581 C579 1.419 . S
C581 C582 1.362 . S
C582 H574 0.930 . S
C582 C581 1.362 . S
C582 C585 1.409 . S
C583 H575 0.930 . S
C583 C584 1.355 1_554 S
C583 C585 1.415 . S
C584 C583 1.355 1_556 S
C584 C586 1.419 . S
C585 C580 1.425 1_554 S
C585 C582 1.409 . S
C585 C583 1.415 . S
C586 H576 0.930 . S
C586 C584 1.419 . S
C586 C587 1.362 . S
C587 H577 0.930 . S
C587 C580 1.409 . S
C587 C586 1.362 . S
H588 C594 0.930 . S
H589 C597 0.930 . S
H590 C598 0.930 . S
H591 C599 0.930 . S
H592 C602 0.930 . S
H593 C603 0.930 . S
C594 H588 0.930 . S
C594 C595 1.355 . S
C594 C596 1.415 . S
C595 C594 1.355 . S
C595 C597 1.419 . S
C596 C594 1.415 . S
C596 C601 1.425 . S
C596 C603 1.409 . S
C597 H589 0.930 . S
C597 C595 1.419 . S
C597 C598 1.362 . S
C598 H590 0.930 . S
C598 C597 1.362 . S
C598 C601 1.409 . S
C599 H591 0.930 . S
C599 C600 1.355 . S
C599 C601 1.415 . S
C600 C599 1.355 . S
C600 C602 1.419 . S
C601 C596 1.425 . S
C601 C598 1.409 . S
C601 C599 1.415 . S
C602 H592 0.930 . S
C602 C600 1.419 . S
C602 C603 1.362 . S
C603 H593 0.930 . S
C603 C596 1.409 . S
C603 C602 1.362 . S
H604 C610 0.930 . S
H605 C613 0.930 . S
H606 C614 0.930 1_655 S
H607 C615 0.930 . S
H608 C618 0.930 . S
H609 C619 0.930 1_455 S
C610 H604 0.930 . S
C610 C611 1.355 . S
C610 C612 1.415 . S
C611 C610 1.355 . S
C611 C613 1.419 . S
C612 C610 1.415 . S
C612 C617 1.425 1_455 S
C612 C619 1.409 1_455 S
C613 H605 0.930 . S
C613 C611 1.419 . S
C613 C614 1.362 . S
C614 H606 0.930 1_455 S
C614 C613 1.362 . S
C614 C617 1.409 1_455 S
C615 H607 0.930 . S
C615 C616 1.355 . S
C615 C617 1.415 . S
C616 C615 1.355 . S
C616 C618 1.419 . S
C617 C612 1.425 1_655 S
C617 C614 1.409 1_655 S
C617 C615 1.415 . S
C618 H608 0.930 . S
C618 C616 1.419 . S
C618 C619 1.362 . S
C619 H609 0.930 1_655 S
C619 C612 1.409 1_655 S
C619 C618 1.362 . S
H620 C626 0.930 . S
H621 C629 0.930 . S
H622 C630 0.930 . S
H623 C631 0.930 . S
H624 C634 0.930 . S
H625 C635 0.930 . S
C626 H620 0.930 . S
C626 C627 1.355 . S
C626 C628 1.415 . S
C627 C626 1.355 . S
C627 C629 1.419 1_554 S
C628 C626 1.415 . S
C628 C633 1.425 1_544 S
C628 C635 1.409 1_545 S
C629 H621 0.930 . S
C629 C627 1.419 1_556 S
C629 C630 1.362 . S
C630 H622 0.930 . S
C630 C629 1.362 . S
C630 C633 1.409 1_545 S
C631 H623 0.930 . S
C631 C632 1.355 . S
C631 C633 1.415 . S
C632 C631 1.355 . S
C632 C634 1.419 1_556 S
C633 C628 1.425 1_566 S
C633 C630 1.409 1_565 S
C633 C631 1.415 . S
C634 H624 0.930 . S
C634 C632 1.419 1_554 S
C634 C635 1.362 . S
C635 H625 0.930 . S
C635 C628 1.409 1_565 S
C635 C634 1.362 . S
H636 C642 0.930 . S
H637 C645 0.930 . S
H638 C646 0.930 . S
H639 C647 0.930 . S
H640 C650 0.930 . S
H641 C651 0.930 . S
C642 H636 0.930 . S
C642 C643 1.355 . S
C642 C644 1.415 . S
C643 C642 1.355 . S
C643 C645 1.419 . S
C644 C642 1.415 . S
C644 C649 1.425 . S
C644 C651 1.409 . S
C645 H637 0.930 . S
C645 C643 1.419 . S
C645 C646 1.362 . S
C646 H638 0.930 . S
C646 C645 1.362 . S
C646 C649 1.409 . S
C647 H639 0.930 . S
C647 C648 1.355 . S
C647 C649 1.415 . S
C648 C647 1.355 . S
C648 C650 1.419 . S
C649 C644 1.425 . S
C649 C646 1.409 . S
C649 C647 1.415 . S
C650 H640 0.930 . S
C650 C648 1.419 . S
C650 C651 1.362 . S
C651 H641 0.930 . S
C651 C644 1.409 . S
C651 C650 1.362 . S
H652 C658 0.930 . S
H653 C661 0.930 . S
H654 C662 0.930 . S
H655 C663 0.930 . S
H656 C666 0.930 . S
H657 C667 0.930 . S
C658 H652 0.930 . S
C658 C659 1.355 . S
C658 C660 1.415 . S
C659 C658 1.355 . S
C659 C661 1.419 . S
C660 C658 1.415 . S
C660 C665 1.425 1_455 S
C660 C667 1.409 1_455 S
C661 H653 0.930 . S
C661 C659 1.419 . S
C661 C662 1.362 . S
C662 H654 0.930 . S
C662 C661 1.362 . S
C662 C665 1.409 1_455 S
C663 H655 0.930 . S
C663 C664 1.355 . S
C663 C665 1.415 . S
C664 C663 1.355 . S
C664 C666 1.419 . S
C665 C660 1.425 1_655 S
C665 C662 1.409 1_655 S
C665 C663 1.415 . S
C666 H656 0.930 . S
C666 C664 1.419 . S
C666 C667 1.362 . S
C667 H657 0.930 . S
C667 C660 1.409 1_655 S
C667 C666 1.362 . S
H668 C674 0.930 . S
H669 C677 0.930 . S
H670 C678 0.930 1_565 S
H671 C679 0.930 . S
H672 C682 0.930 . S
H673 C683 0.930 1_545 S
C674 H668 0.930 . S
C674 C675 1.355 1_554 S
C674 C676 1.415 . S
C675 C674 1.355 1_556 S
C675 C677 1.419 . S
C676 C674 1.415 . S
C676 C681 1.425 1_544 S
C676 C683 1.409 1_545 S
C677 H669 0.930 . S
C677 C675 1.419 . S
C677 C678 1.362 . S
C678 H670 0.930 1_545 S
C678 C677 1.362 . S
C678 C681 1.409 1_545 S
C679 H671 0.930 . S
C679 C680 1.355 1_556 S
C679 C681 1.415 . S
C680 C679 1.355 1_554 S
C680 C682 1.419 . S
C681 C676 1.425 1_566 S
C681 C678 1.409 1_565 S
C681 C679 1.415 . S
C682 H672 0.930 . S
C682 C680 1.419 . S
C682 C683 1.362 . S
C683 H673 0.930 1_565 S
C683 C676 1.409 1_565 S
C683 C682 1.362 . S
H684 C690 0.930 . S
H685 C693 0.930 . S
H686 C694 0.930 . S
H687 C695 0.930 . S
H688 C698 0.930 . S
H689 C699 0.930 . S
C690 H684 0.930 . S
C690 C691 1.355 . S
C690 C692 1.415 . S
C691 C690 1.355 . S
C691 C693 1.419 . S
C692 C690 1.415 . S
C692 C697 1.425 . S
C692 C699 1.409 . S
C693 H685 0.930 . S
C693 C691 1.419 . S
C693 C694 1.362 . S
C694 H686 0.930 . S
C694 C693 1.362 . S
C694 C697 1.409 . S
C695 H687 0.930 . S
C695 C696 1.355 . S
C695 C697 1.415 . S
C696 C695 1.355 . S
C696 C698 1.419 . S
C697 C692 1.425 . S
C697 C694 1.409 . S
C697 C695 1.415 . S
C698 H688 0.930 . S
C698 C696 1.419 . S
C698 C699 1.362 . S
C699 H689 0.930 . S
C699 C692 1.409 . S
C699 C698 1.362 . S
H700 C706 0.930 . S
H701 C709 0.930 . S
H702 C710 0.930 . S
H703 C711 0.930 . S
H704 C714 0.930 . S
H705 C715 0.930 . S
C706 H700 0.930 . S
C706 C707 1.355 . S
C706 C708 1.415 . S
C707 C706 1.355 . S
C707 C709 1.419 . S
C708 C706 1.415 . S
C708 C713 1.425 . S
C708 C715 1.409 . S
C709 H701 0.930 . S
C709 C707 1.419 . S
C709 C710 1.362 . S
C710 H702 0.930 . S
C710 C709 1.362 . S
C710 C713 1.409 . S
C711 H703 0.930 . S
C711 C712 1.355 . S
C711 C713 1.415 1_556 S
C712 C711 1.355 . S
C712 C714 1.419 . S
C713 C708 1.425 . S
C713 C710 1.409 . S
C713 C711 1.415 1_554 S
C714 H704 0.930 . S
C714 C712 1.419 . S
C714 C715 1.362 1_556 S
C715 H705 0.930 . S
C715 C708 1.409 . S
C715 C714 1.362 1_554 S
H716 C722 0.930 . S
H717 C725 0.930 . S
H718 C726 0.930 . S
H719 C727 0.930 . S
H720 C730 0.930 . S
H721 C731 0.930 . S
C722 H716 0.930 . S
C722 C723 1.355 . S
C722 C724 1.415 . S
C723 C722 1.355 . S
C723 C725 1.419 . S
C724 C722 1.415 . S
C724 C729 1.425 . S
C724 C731 1.409 . S
C725 H717 0.930 . S
C725 C723 1.419 . S
C725 C726 1.362 . S
C726 H718 0.930 . S
C726 C725 1.362 . S
C726 C729 1.409 . S
C727 H719 0.930 . S
C727 C728 1.355 . S
C727 C729 1.415 . S
C728 C727 1.355 . S
C728 C730 1.419 . S
C729 C724 1.425 . S
C729 C726 1.409 . S
C729 C727 1.415 . S
C730 H720 0.930 . S
C730 C728 1.419 . S
C730 C731 1.362 . S
C731 H721 0.930 . S
C731 C724 1.409 . S
C731 C730 1.362 . S
H732 C738 0.930 . S
H733 C741 0.930 . S
H734 C742 0.930 . S
H735 C743 0.930 . S
H736 C746 0.930 . S
H737 C747 0.930 . S
C738 H732 0.930 . S
C738 C739 1.355 . S
C738 C740 1.415 . S
C739 C738 1.355 . S
C739 C741 1.419 . S
C740 C738 1.415 . S
C740 C745 1.425 . S
C740 C747 1.409 . S
C741 H733 0.930 . S
C741 C739 1.419 . S
C741 C742 1.362 . S
C742 H734 0.930 . S
C742 C741 1.362 . S
C742 C745 1.409 . S
C743 H735 0.930 . S
C743 C744 1.355 . S
C743 C745 1.415 . S
C744 C743 1.355 . S
C744 C746 1.419 . S
C745 C740 1.425 . S
C745 C742 1.409 . S
C745 C743 1.415 . S
C746 H736 0.930 . S
C746 C744 1.419 . S
C746 C747 1.362 . S
C747 H737 0.930 . S
C747 C740 1.409 . S
C747 C746 1.362 . S
H748 C754 0.930 . S
H749 C757 0.930 . S
H750 C758 0.930 . S
H751 C759 0.930 . S
H752 C762 0.930 . S
H753 C763 0.930 . S
C754 H748 0.930 . S
C754 C755 1.355 . S
C754 C756 1.415 . S
C755 C754 1.355 . S
C755 C757 1.419 . S
C756 C754 1.415 . S
C756 C761 1.425 . S
C756 C763 1.409 . S
C757 H749 0.930 . S
C757 C755 1.419 . S
C757 C758 1.362 . S
C758 H750 0.930 . S
C758 C757 1.362 . S
C758 C761 1.409 . S
C759 H751 0.930 . S
C759 C760 1.355 . S
C759 C761 1.415 1_556 S
C760 C759 1.355 . S
C760 C762 1.419 . S
C761 C756 1.425 . S
C761 C758 1.409 . S
C761 C759 1.415 1_554 S
C762 H752 0.930 . S
C762 C760 1.419 . S
C762 C763 1.362 1_556 S
C763 H753 0.930 . S
C763 C756 1.409 . S
C763 C762 1.362 1_554 S
H764 C770 0.930 . S
H765 C773 0.930 . S
H766 C774 0.930 . S
H767 C775 0.930 . S
H768 C778 0.930 . S
H769 C779 0.930 . S
C770 H764 0.930 . S
C770 C771 1.355 . S
C770 C772 1.415 . S
C771 C770 1.355 . S
C771 C773 1.419 . S
C772 C770 1.415 . S
C772 C777 1.425 . S
C772 C779 1.409 . S
C773 H765 0.930 . S
C773 C771 1.419 . S
C773 C774 1.362 . S
C774 H766 0.930 . S
C774 C773 1.362 . S
C774 C777 1.409 . S
C775 H767 0.930 . S
C775 C776 1.355 . S
C775 C777 1.415 . S
C776 C775 1.355 . S
C776 C778 1.419 . S
C777 C772 1.425 . S
C777 C774 1.409 . S
C777 C775 1.415 . S
C778 H768 0.930 . S
C778 C776 1.419 . S
C778 C779 1.362 . S
C779 H769 0.930 . S
C779 C772 1.409 . S
C779 C778 1.362 . S
H780 C786 0.930 . S
H781 C789 0.930 . S
H782 C790 0.930 . S
H783 C791 0.930 . S
H784 C794 0.930 . S
H785 C795 0.930 . S
C786 H780 0.930 . S
C786 C787 1.355 . S
C786 C788 1.415 1_554 S
C787 C786 1.355 . S
C787 C789 1.419 . S
C788 C786 1.415 1_556 S
C788 C793 1.425 . S
C788 C795 1.409 . S
C789 H781 0.930 . S
C789 C787 1.419 . S
C789 C790 1.362 1_554 S
C790 H782 0.930 . S
C790 C789 1.362 1_556 S
C790 C793 1.409 . S
C791 H783 0.930 . S
C791 C792 1.355 . S
C791 C793 1.415 . S
C792 C791 1.355 . S
C792 C794 1.419 . S
C793 C788 1.425 . S
C793 C790 1.409 . S
C793 C791 1.415 . S
C794 H784 0.930 . S
C794 C792 1.419 . S
C794 C795 1.362 . S
C795 H785 0.930 . S
C795 C788 1.409 . S
C795 C794 1.362 . S
H796 C802 0.930 . S
H797 C805 0.930 . S
H798 C806 0.930 . S
H799 C807 0.930 . S
H800 C810 0.930 . S
H801 C811 0.930 . S
C802 H796 0.930 . S
C802 C803 1.355 . S
C802 C804 1.415 . S
C803 C802 1.355 . S
C803 C805 1.419 . S
C804 C802 1.415 . S
C804 C809 1.425 . S
C804 C811 1.409 . S
C805 H797 0.930 . S
C805 C803 1.419 . S
C805 C806 1.362 . S
C806 H798 0.930 . S
C806 C805 1.362 . S
C806 C809 1.409 . S
C807 H799 0.930 . S
C807 C808 1.355 . S
C807 C809 1.415 . S
C808 C807 1.355 . S
C808 C810 1.419 . S
C809 C804 1.425 . S
C809 C806 1.409 . S
C809 C807 1.415 . S
C810 H800 0.930 . S
C810 C808 1.419 . S
C810 C811 1.362 . S
C811 H801 0.930 . S
C811 C804 1.409 . S
C811 C810 1.362 . S
H812 C818 0.930 . S
H813 C821 0.930 . S
H814 C822 0.930 . S
H815 C823 0.930 . S
H816 C826 0.930 . S
H817 C827 0.930 . S
C818 H812 0.930 . S
C818 C819 1.355 . S
C818 C820 1.415 . S
C819 C818 1.355 . S
C819 C821 1.419 . S
C820 C818 1.415 . S
C820 C825 1.425 . S
C820 C827 1.409 . S
C821 H813 0.930 . S
C821 C819 1.419 . S
C821 C822 1.362 . S
C822 H814 0.930 . S
C822 C821 1.362 . S
C822 C825 1.409 . S
C823 H815 0.930 . S
C823 C824 1.355 . S
C823 C825 1.415 . S
C824 C823 1.355 . S
C824 C826 1.419 . S
C825 C820 1.425 . S
C825 C822 1.409 . S
C825 C823 1.415 . S
C826 H816 0.930 . S
C826 C824 1.419 . S
C826 C827 1.362 . S
C827 H817 0.930 . S
C827 C820 1.409 . S
C827 C826 1.362 . S
H828 C834 0.930 . S
H829 C837 0.930 . S
H830 C838 0.930 . S
H831 C839 0.930 . S
H832 C842 0.930 . S
H833 C843 0.930 . S
C834 H828 0.930 . S
C834 C835 1.355 . S
C834 C836 1.415 . S
C835 C834 1.355 . S
C835 C837 1.419 . S
C836 C834 1.415 . S
C836 C841 1.425 . S
C836 C843 1.409 . S
C837 H829 0.930 . S
C837 C835 1.419 . S
C837 C838 1.362 . S
C838 H830 0.930 . S
C838 C837 1.362 . S
C838 C841 1.409 . S
C839 H831 0.930 . S
C839 C840 1.355 . S
C839 C841 1.415 1_554 S
C840 C839 1.355 . S
C840 C842 1.419 . S
C841 C836 1.425 . S
C841 C838 1.409 . S
C841 C839 1.415 1_556 S
C842 H832 0.930 . S
C842 C840 1.419 . S
C842 C843 1.362 1_554 S
C843 H833 0.930 . S
C843 C836 1.409 . S
C843 C842 1.362 1_556 S
H844 C850 0.930 . S
H845 C853 0.930 . S
H846 C854 0.930 . S
H847 C855 0.930 . S
H848 C858 0.930 . S
H849 C859 0.930 . S
C850 H844 0.930 . S
C850 C851 1.355 . S
C850 C852 1.415 . S
C851 C850 1.355 . S
C851 C853 1.419 . S
C852 C850 1.415 . S
C852 C857 1.425 . S
C852 C859 1.409 . S
C853 H845 0.930 . S
C853 C851 1.419 . S
C853 C854 1.362 . S
C854 H846 0.930 . S
C854 C853 1.362 . S
C854 C857 1.409 . S
C855 H847 0.930 . S
C855 C856 1.355 . S
C855 C857 1.415 . S
C856 C855 1.355 . S
C856 C858 1.419 . S
C857 C852 1.425 . S
C857 C854 1.409 . S
C857 C855 1.415 . S
C858 H848 0.930 . S
C858 C856 1.419 . S
C858 C859 1.362 . S
C859 H849 0.930 . S
C859 C852 1.409 . S
C859 C858 1.362 . S
H860 C866 0.930 . S
H861 C869 0.930 . S
H862 C870 0.930 . S
H863 C871 0.930 . S
H864 C874 0.930 . S
H865 C875 0.930 . S
C866 H860 0.930 . S
C866 C867 1.355 . S
C866 C868 1.415 . S
C867 C866 1.355 . S
C867 C869 1.419 . S
C868 C866 1.415 . S
C868 C873 1.425 . S
C868 C875 1.409 . S
C869 H861 0.930 . S
C869 C867 1.419 . S
C869 C870 1.362 . S
C870 H862 0.930 . S
C870 C869 1.362 . S
C870 C873 1.409 . S
C871 H863 0.930 . S
C871 C872 1.355 . S
C871 C873 1.415 . S
C872 C871 1.355 . S
C872 C874 1.419 . S
C873 C868 1.425 . S
C873 C870 1.409 . S
C873 C871 1.415 . S
C874 H864 0.930 . S
C874 C872 1.419 . S
C874 C875 1.362 . S
C875 H865 0.930 . S
C875 C868 1.409 . S
C875 C874 1.362 . S
C403 C18 1.425 . S
C408 C348 1.428 . S
C419 C381 1.427 . S
C424 C51 1.442 . S
C435 C216 1.495 . S
C440 C84 1.509 . S
C451 C249 1.476 . S
C456 C117 1.497 . S
C467 C150 1.431 . S
C472 C282 1.448 . S
C483 C315 1.427 . S
C488 C183 1.425 . S
C499 C219 1.581 . S
C504 C21 1.596 . S
C515 C252 1.589 . S
C520 C54 1.571 . S
C531 C87 1.575 . S
C536 C285 1.574 . S
C547 C120 1.593 . S
C552 C318 1.573 . S
C563 C351 1.594 . S
C568 C153 1.575 . S
C579 C384 1.589 . S
C584 C186 1.594 . S
C595 C7 1.405 . S
C600 C304 1.349 . S
C611 C337 1.389 . S
C616 C40 1.391 . S
C627 C370 1.398 . S
C632 C73 1.345 . S
C643 C205 1.401 . S
C648 C106 1.376 . S
C659 C139 1.407 . S
C664 C238 1.360 . S
C675 C172 1.373 . S
C680 C271 1.403 . S
C691 N2 1.127 . S
C696 N13 1.128 . S
C707 N46 1.131 . S
C712 N35 1.131 . S
C723 N68 1.114 . S
C728 N79 1.115 . S
C739 N112 1.125 . S
C744 N101 1.124 . S
C755 N145 1.105 . S
C760 N134 1.106 . S
C771 N178 1.125 . S
C776 N167 1.124 . S
C787 N200 1.129 . S
C792 N211 1.130 . S
C803 N244 1.111 . S
C808 N233 1.112 . S
C819 N277 1.125 . S
C824 N266 1.124 . S
C835 N310 1.131 . S
C840 N299 1.131 . S
C851 N332 1.117 . S
C856 N343 1.116 . S
C867 N376 1.116 . S
C872 N365 1.115 . S
