# Generated by pormake.
# Topology wjf, (4)-cn, num edge types: 1
# Building blocks:
#     Node 0, Type 0, BuildingBlock: ESEHIV_clean_sbu_0, # of connection points: 4
#     Node 1, Type 0, BuildingBlock: ESEHIV_clean_sbu_0, # of connection points: 4
#     Node 2, Type 0, BuildingBlock: ESEHIV_clean_sbu_0, # of connection points: 4
#     Node 3, Type 0, BuildingBlock: ESEHIV_clean_sbu_0, # of connection points: 4
#     Node 4, Type 0, BuildingBlock: ESEHIV_clean_sbu_0, # of connection points: 4
#     Node 5, Type 0, BuildingBlock: ESEHIV_clean_sbu_0, # of connection points: 4
#     Node 6, Type 0, BuildingBlock: ESEHIV_clean_sbu_0, # of connection points: 4
#     Node 7, Type 0, BuildingBlock: ESEHIV_clean_sbu_0, # of connection points: 4
#     Node 8, Type 0, BuildingBlock: ESEHIV_clean_sbu_0, # of connection points: 4
#     Node 9, Type 0, BuildingBlock: ESEHIV_clean_sbu_0, # of connection points: 4
#     Node 10, Type 0, BuildingBlock: ESEHIV_clean_sbu_0, # of connection points: 4
#     Node 11, Type 0, BuildingBlock: ESEHIV_clean_sbu_0, # of connection points: 4
#     Edge 12, Type (0, 0), BuildingBlock: CIFDUS_clean_linker_0, # of connection points: 2
#     Edge 13, Type (0, 0), BuildingBlock: CIFDUS_clean_linker_0, # of connection points: 2
#     Edge 14, Type (0, 0), BuildingBlock: CIFDUS_clean_linker_0, # of connection points: 2
#     Edge 15, Type (0, 0), BuildingBlock: CIFDUS_clean_linker_0, # of connection points: 2
#     Edge 16, Type (0, 0), BuildingBlock: CIFDUS_clean_linker_0, # of connection points: 2
#     Edge 17, Type (0, 0), BuildingBlock: CIFDUS_clean_linker_0, # of connection points: 2
#     Edge 18, Type (0, 0), BuildingBlock: CIFDUS_clean_linker_0, # of connection points: 2
#     Edge 19, Type (0, 0), BuildingBlock: CIFDUS_clean_linker_0, # of connection points: 2
#     Edge 20, Type (0, 0), BuildingBlock: CIFDUS_clean_linker_0, # of connection points: 2
#     Edge 21, Type (0, 0), BuildingBlock: CIFDUS_clean_linker_0, # of connection points: 2
#     Edge 22, Type (0, 0), BuildingBlock: CIFDUS_clean_linker_0, # of connection points: 2
#     Edge 23, Type (0, 0), BuildingBlock: CIFDUS_clean_linker_0, # of connection points: 2
#     Edge 24, Type (0, 0), BuildingBlock: CIFDUS_clean_linker_0, # of connection points: 2
#     Edge 25, Type (0, 0), BuildingBlock: CIFDUS_clean_linker_0, # of connection points: 2
#     Edge 26, Type (0, 0), BuildingBlock: CIFDUS_clean_linker_0, # of connection points: 2
#     Edge 27, Type (0, 0), BuildingBlock: CIFDUS_clean_linker_0, # of connection points: 2
#     Edge 28, Type (0, 0), BuildingBlock: CIFDUS_clean_linker_0, # of connection points: 2
#     Edge 29, Type (0, 0), BuildingBlock: CIFDUS_clean_linker_0, # of connection points: 2
#     Edge 30, Type (0, 0), BuildingBlock: CIFDUS_clean_linker_0, # of connection points: 2
#     Edge 31, Type (0, 0), BuildingBlock: CIFDUS_clean_linker_0, # of connection points: 2
#     Edge 32, Type (0, 0), BuildingBlock: CIFDUS_clean_linker_0, # of connection points: 2
#     Edge 33, Type (0, 0), BuildingBlock: CIFDUS_clean_linker_0, # of connection points: 2
#     Edge 34, Type (0, 0), BuildingBlock: CIFDUS_clean_linker_0, # of connection points: 2
#     Edge 35, Type (0, 0), BuildingBlock: CIFDUS_clean_linker_0, # of connection points: 2
# Relax obj value: 0.109
# Max RMSD: 0.239
# Mean RMSD: 0.239
data_MOF--net-wjf--node1-ESEHIV_clean_sbu_0--edge1-CIFDUS_clean_linker_0
_symmetry_space_group_name_H-M    P1
_symmetry_Int_Tables_number       1
_symmetry_cell_setting            triclinic
loop_
_symmetry_equiv_pos_as_xyz
'x, y, z'
_cell_length_a     52.960451
_cell_length_b     52.952175
_cell_length_c     24.708582
_cell_angle_alpha  89.987188
_cell_angle_beta   89.852991
_cell_angle_gamma 120.00652
loop_
_atom_site_label
_atom_site_type_symbol
_atom_site_fract_x
_atom_site_fract_y
_atom_site_fract_z
_atom_type_partial_charge
Cu0 Cu 0.33841 0.40388 0.11861 0.0
N1 N 0.37408 0.43782 0.10912 0.0
N2 N 0.42228 0.46791 0.10541 0.0
C3 C 0.40043 0.44161 0.12181 0.0
C4 C 0.4089 0.48106 0.08161 0.0
C5 C 0.37921 0.46243 0.08391 0.0
O6 O 0.34063 0.38444 0.18301 0.0
C7 C 0.33119 0.38696 1.00962 0.0
O8 O 0.33045 0.41119 1.00269 0.0
H9 H 0.40336 0.42513 0.14202 0.0
H10 H 0.36256 0.46617 0.06693 0.0
N11 N 0.30877 0.41309 0.12339 0.0
N12 N 0.26731 0.41341 0.10801 0.0
C13 C 0.28225 0.39912 0.10025 0.0
C14 C 0.31074 0.43694 0.14672 0.0
C15 C 0.28526 0.43719 0.13745 0.0
C16 C 0.34266 0.39512 0.22989 0.0
O17 O 0.34171 0.41931 0.23526 0.0
H18 H 0.27446 0.3792 0.07731 0.0
H19 H 0.32983 0.45356 0.16735 0.0
O20 O 0.33304 0.37909 0.05732 0.0
H21 H 0.41969 0.50218 0.06206 0.0
H22 H 0.28095 0.45432 0.14947 0.0
Cu23 Cu 0.95093 0.34174 0.41908 0.0
N24 N 0.94941 0.37594 0.42661 0.0
N25 N 0.96453 0.42332 0.43709 0.0
C26 C 0.97215 0.40249 0.43775 0.0
C27 C 0.93581 0.40918 0.42515 0.0
C28 C 0.92657 0.37998 0.41862 0.0
O29 O 0.97544 0.34189 0.47817 0.0
C30 C 0.97409 0.32648 0.32564 0.0
O31 O 0.97119 0.30397 0.35326 0.0
H32 H 0.99406 0.4065 0.44436 0.0
H33 H 0.90486 0.36298 0.40781 0.0
N34 N 0.91298 0.30997 0.42276 0.0
N35 N 0.87203 0.26851 0.40332 0.0
C36 C 0.90023 0.28666 0.38973 0.0
C37 C 0.89211 0.30662 0.458 0.0
C38 C 0.86691 0.28104 0.44634 0.0
C39 C 0.96564 0.32603 0.52046 0.0
O40 O 0.93819 0.30536 0.52225 0.0
H41 H 0.91135 0.28319 0.35629 0.0
H42 H 0.895 0.32196 0.48962 0.0
O43 O 0.96738 0.34408 0.34761 0.0
H44 H 0.92241 0.4192 0.42118 0.0
H45 H 0.84619 0.27279 0.46693 0.0
Cu46 Cu 0.60717 0.93376 0.78543 0.0
N47 N 0.57056 0.93076 0.783 0.0
N48 N 0.53669 0.9442 0.78028 0.0
C49 C 0.56552 0.95322 0.77988 0.0
C50 C 0.5232 0.9148 0.78357 0.0
C51 C 0.54414 0.9066 0.78518 0.0
O52 O 0.62679 0.95394 0.85131 0.0
C53 C 0.62055 0.94781 0.67539 0.0
O54 O 0.59744 0.922 0.66808 0.0
H55 H 0.58282 0.9757 0.77704 0.0
H56 H 0.54035 0.8846 0.78828 0.0
N57 N 0.60338 0.89672 0.78544 0.0
N58 N 0.60764 0.85798 0.76369 0.0
C59 C 0.61467 0.88553 0.75026 0.0
C60 C 0.58895 0.87572 0.82254 0.0
C61 C 0.59148 0.85184 0.80928 0.0
C62 C 0.61269 0.9484 0.89563 0.0
O63 O 0.58479 0.92883 0.8961 0.0
H64 H 0.62759 0.89732 0.7154 0.0
H65 H 0.57747 0.87768 0.85706 0.0
O66 O 0.62911 0.95663 0.72333 0.0
H67 H 0.49989 0.90017 0.7857 0.0
H68 H 0.5825 0.83174 0.83215 0.0
Cu69 Cu 0.67767 0.61896 0.10951 0.0
N70 N 0.64315 0.58339 0.109 0.0
N71 N 0.59514 0.55218 0.10812 0.0
C72 C 0.61647 0.5801 0.11546 0.0
C73 C 0.6092 0.53737 0.09697 0.0
C74 C 0.63883 0.55672 0.09742 0.0
O75 O 0.67523 0.63902 0.17419 0.0
C76 C 0.6969 0.66149 1.02144 0.0
O77 O 0.71823 0.67987 0.05272 0.0
H78 H 0.61297 0.5981 0.12453 0.0
H79 H 0.65596 0.5519 0.08826 0.0
N80 N 0.70881 0.61198 0.1139 0.0
N81 N 0.74881 0.60992 0.09299 0.0
C82 C 0.73034 0.61921 0.07753 0.0
C83 C 0.71362 0.59748 0.15347 0.0
C84 C 0.73834 0.59627 0.14084 0.0
C85 C 0.69495 0.65057 0.21032 0.0
O86 O 0.7209 0.65407 0.20061 0.0
H87 H 0.73234 0.63098 0.04049 0.0
H88 H 0.69987 0.58816 0.18874 0.0
O89 O 0.67826 0.63654 0.03976 0.0
H90 H 0.59891 0.51443 0.08706 0.0
H91 H 0.74739 0.58544 0.16434 0.0
Cu92 Cu 0.06602 0.678 0.45014 0.0
N93 N 0.06774 0.64372 0.45124 0.0
N94 N 0.05238 0.59607 0.44641 0.0
C95 C 0.04476 0.61686 0.44388 0.0
C96 C 0.08138 0.61054 0.45588 0.0
C97 C 0.09082 0.63999 0.45866 0.0
O98 O 0.04506 0.67862 0.51503 0.0
C99 C 0.04311 0.69647 0.36122 0.0
O100 O 0.0518 0.72105 0.38738 0.0
H101 H 0.02282 0.61273 0.43733 0.0
H102 H 0.1129 0.65744 0.46545 0.0
N103 N 0.1037 0.71046 0.45043 0.0
N104 N 0.14389 0.75173 0.42569 0.0
C105 C 0.11748 0.72974 0.41011 0.0
C106 C 0.12203 0.72045 0.49275 0.0
C107 C 0.14672 0.74579 0.47774 0.0
C108 C 0.05178 0.67164 0.55996 0.0
O109 O 0.07172 0.66383 0.56016 0.0
H110 H 0.10813 0.72777 0.3704 0.0
H111 H 0.11756 0.7105 0.53235 0.0
O112 O 0.04642 0.67647 0.38267 0.0
H113 H 0.0949 0.60064 0.45956 0.0
H114 H 0.16482 0.75931 0.50403 0.0
Cu115 Cu 0.42104 0.07969 0.78889 0.0
N116 N 0.45559 0.07888 0.77987 0.0
N117 N 0.48778 0.06333 0.77818 0.0
C118 C 0.45981 0.05607 0.7877 0.0
C119 C 0.50156 0.09169 0.7636 0.0
C120 C 0.48164 0.10117 0.76445 0.0
O121 O 0.40572 0.06428 0.8608 0.0
C122 C 0.40376 0.06831 0.68051 0.0
O123 O 0.42816 0.09322 0.67433 0.0
H124 H 0.44282 0.03476 0.8009 0.0
H125 H 0.48584 0.12281 0.75439 0.0
N126 N 0.42999 0.11859 0.78941 0.0
N127 N 0.42943 0.1601 0.7763 0.0
C128 C 0.41736 0.13161 0.76275 0.0
C129 C 0.45053 0.13942 0.82083 0.0
C130 C 0.45032 0.165 0.81276 0.0
C131 C 0.38573 0.03868 0.87347 0.0
O132 O 0.37242 0.01932 0.83514 0.0
H133 H 0.39931 0.12027 0.73509 0.0
H134 H 0.46457 0.13609 0.84805 0.0
O135 O 0.39553 0.05837 0.72833 0.0
H136 H 0.52433 0.10457 0.75239 0.0
H137 H 0.46462 0.18566 0.83207 0.0
Cu138 Cu 0.63244 0.65943 0.60933 0.0
N139 N 0.59327 0.6304 0.61027 0.0
N140 N 0.55337 0.58612 0.61028 0.0
C141 C 0.58285 0.6014 0.60956 0.0
C142 C 0.54507 0.60645 0.61157 0.0
C143 C 0.5697 0.63369 0.61157 0.0
O144 O 0.6486 0.65507 0.5412 0.0
C145 C 0.66648 0.67435 0.70745 0.0
O146 O 0.67637 0.70164 0.69346 0.0
H147 H 0.5967 0.5918 0.60768 0.0
H148 H 0.57036 0.65443 0.61245 0.0
N149 N 0.63504 0.69595 0.60884 0.0
N150 N 0.63068 0.73446 0.63172 0.0
C151 C 0.62499 0.70743 0.64597 0.0
C152 C 0.64732 0.71625 0.56974 0.0
C153 C 0.64473 0.74001 0.58374 0.0
C154 C 0.67526 0.66968 0.52701 0.0
O155 O 0.69469 0.68755 0.56184 0.0
H156 H 0.614 0.69625 0.68283 0.0
H157 H 0.65724 0.71384 0.53328 0.0
O158 O 0.64972 0.65404 0.67518 0.0
H159 H 0.5228 0.60204 0.61305 0.0
H160 H 0.65209 0.75959 0.5598 0.0
Cu161 Cu 0.96756 0.61745 0.95819 0.0
N162 N 0.96308 0.58039 0.95219 0.0
N163 N 0.97439 0.54519 0.944 0.0
C164 C 0.98449 0.5742 0.94337 0.0
C165 C 0.94546 0.53273 0.95347 0.0
C166 C 0.93856 0.55451 0.95852 0.0
O167 O 0.99343 0.64009 0.89874 0.0
C168 C 0.98883 0.65406 0.0546 0.0
O169 O 0.98302 0.67274 0.03073 0.0
H170 H 1.00715 0.59074 0.93815 0.0
H171 H 0.91725 0.55171 0.96693 0.0
N172 N 0.93061 0.61366 0.95277 0.0
N173 N 0.88872 0.61206 0.97363 0.0
C174 C 0.916 0.61992 0.99018 0.0
C175 C 0.91184 0.60106 0.91162 0.0
C176 C 0.88611 0.60023 0.92412 0.0
C177 C 0.98682 0.65106 0.85905 0.0
O178 O 0.96213 0.65125 0.85999 0.0
H179 H 0.92501 0.62955 1.02905 0.0
H180 H 0.91638 0.59241 0.87558 0.0
O181 O 0.98435 0.63118 1.02954 0.0
H182 H 0.93031 0.50954 0.95647 0.0
H183 H 0.86662 0.59059 0.89955 0.0
Cu184 Cu 0.34552 0.97661 0.28228 0.0
N185 N 0.37204 0.96335 0.28492 0.0
N186 N 0.41524 0.96573 0.29146 0.0
C187 C 0.40025 0.97993 0.29852 0.0
C188 C 0.39548 0.939 0.27311 0.0
C189 C 0.36885 0.93765 0.26885 0.0
O190 O 0.3498 0.99433 0.21105 0.0
C191 C 0.34946 0.99293 0.39107 0.0
O192 O 0.33716 0.96456 0.39723 0.0
H193 H 0.40961 1.00221 0.3123 0.0
H194 H 0.34887 0.91964 0.2533 0.0
N195 N 0.30726 0.94567 0.28828 0.0
N196 N 0.2679 0.90306 0.30989 0.0
C197 C 0.29732 0.91952 0.31234 0.0
C198 C 0.28348 0.94578 0.26982 0.0
C199 C 0.25921 0.91962 0.28306 0.0
C200 C 0.37283 0.01728 0.19589 0.0
O201 O 0.39383 0.03147 0.23106 0.0
H202 H 0.31142 0.91288 0.33146 0.0
H203 H 0.28379 0.96389 0.24893 0.0
O204 O 0.35451 1.00343 0.34316 0.0
H205 H 0.40016 0.92208 0.2613 0.0
H206 H 0.23686 0.91372 0.27491 0.0
Cu207 Cu 0.38925 0.34276 0.62199 0.0
N208 N 0.42906 0.36963 0.62487 0.0
N209 N 0.46974 0.41327 0.62598 0.0
C210 C 0.4403 0.39869 0.62734 0.0
C211 C 0.47726 0.39241 0.6227 0.0
C212 C 0.45209 0.36549 0.62175 0.0
O213 O 0.37414 0.35225 0.55905 0.0
C214 C 0.36979 0.33867 0.73102 0.0
O215 O 0.38149 0.32221 0.73918 0.0
H216 H 0.42698 0.40885 0.62991 0.0
H217 H 0.45073 0.34451 0.61783 0.0
N218 N 0.38102 0.3041 0.61743 0.0
N219 N 0.38159 0.26249 0.62901 0.0
C220 C 0.39385 0.29094 0.64287 0.0
C221 C 0.35989 0.28328 0.58686 0.0
C222 C 0.36024 0.25767 0.59373 0.0
C223 C 0.38056 0.34842 0.51135 0.0
O224 O 0.39725 0.33685 0.50436 0.0
H225 H 0.41188 0.30204 0.67065 0.0
H226 H 0.34514 0.28652 0.56146 0.0
O227 O 0.37059 0.34875 0.684 0.0
H228 H 0.49932 0.39629 0.61959 0.0
H229 H 0.34551 0.23697 0.57498 0.0
Cu230 Cu 0.04799 0.3701 0.92644 0.0
N231 N 0.05547 0.40839 0.92798 0.0
N232 N 0.04622 0.44504 0.93558 0.0
C233 C 0.03502 0.41588 0.93691 0.0
C234 C 0.07495 0.45633 0.92522 0.0
C235 C 0.08061 0.43361 0.92072 0.0
O236 O 0.02399 0.35144 0.86302 0.0
C237 C 0.02958 0.33293 1.02107 0.0
O238 O 0.04292 0.31998 0.99991 0.0
H239 H 0.01224 0.40006 0.94342 0.0
H240 H 0.1015 0.43532 0.91266 0.0
N241 N 0.08258 0.36896 0.9199 0.0
N242 N 0.12471 0.37047 0.93799 0.0
C243 C 0.10323 0.37481 0.95743 0.0
C244 C 0.09126 0.36071 0.87545 0.0
C245 C 0.11717 0.36176 0.88627 0.0
C246 C 0.03312 0.36457 0.81779 0.0
O247 O 0.05755 0.38976 0.81676 0.0
H248 H 0.10207 0.38142 0.99836 0.0
H249 H 0.07943 0.35405 0.83774 0.0
O250 O 0.02844 0.35296 0.99459 0.0
H251 H 0.0908 0.47932 0.92184 0.0
H252 H 0.12952 0.35665 0.85782 0.0
Cu253 Cu 0.65985 0.04826 0.28712 0.0
N254 N 0.63147 0.05817 0.30175 0.0
N255 N 0.58764 0.05429 0.30909 0.0
C256 C 0.60253 0.04055 0.29632 0.0
C257 C 0.60814 0.08164 0.32312 0.0
C258 C 0.63517 0.08395 0.31859 0.0
O259 O 0.64733 0.0245 0.22232 0.0
C260 C 0.66233 0.03411 0.39594 0.0
O261 O 0.66562 0.06006 0.40464 0.0
H262 H 0.59273 0.0183 0.28206 0.0
H263 H 0.65606 0.10306 0.32676 0.0
N264 N 0.69549 0.08246 0.27638 0.0
N265 N 0.73742 0.12354 0.29294 0.0
C266 C 0.71634 0.0978 0.31318 0.0
C267 C 0.70362 0.09898 0.23136 0.0
C268 C 0.72951 0.12422 0.2413 0.0
C269 C 0.66375 0.02347 0.18579 0.0
O270 O 0.6922 0.03888 0.19114 0.0
H271 H 0.71566 0.09058 0.35434 0.0
H272 H 0.69091 0.09356 0.19461 0.0
O273 O 0.66065 0.02526 0.34749 0.0
H274 H 0.60394 0.09873 0.33603 0.0
H275 H 0.74072 0.14234 0.21354 0.0
H276 H 0.33868 0.40591 0.33605 0.0
H277 H 0.35994 0.35445 0.22987 0.0
H278 H 0.37307 0.33502 0.30768 0.0
H279 H 0.38036 0.33413 0.40566 0.0
H280 H 0.35784 0.38462 0.51188 0.0
H281 H 0.34329 0.40285 0.43427 0.0
C282 C 0.34606 0.39034 0.32995 0.0
C283 C 0.3485 0.38179 0.27727 0.0
C284 C 0.35345 0.37915 0.37486 0.0
C285 C 0.35783 0.36138 0.27005 0.0
C286 C 0.36545 0.35033 0.3145 0.0
C287 C 0.3722 0.34906 0.41181 0.0
C288 C 0.37039 0.35816 0.46439 0.0
C289 C 0.36365 0.3593 0.36704 0.0
C290 C 0.35947 0.37727 0.47179 0.0
C291 C 0.35119 0.38777 0.42743 0.0
H292 H 0.94915 0.3012 0.62053 0.0
H293 H 0.02237 0.36917 0.53307 0.0
H294 H 0.04978 0.38628 0.61721 0.0
H295 H 0.05194 0.38395 0.71589 0.0
H296 H 0.97883 0.31652 0.80424 0.0
H297 H 0.95239 0.29722 0.71929 0.0
C298 C 0.97123 0.31954 0.61967 0.0
C299 C 0.98358 0.33393 0.57036 0.0
C300 C 0.98679 0.32956 0.66843 0.0
C301 C 0.01225 0.35767 0.57026 0.0
C302 C 0.02793 0.36757 0.61846 0.0
C303 C 0.03023 0.36498 0.71672 0.0
C304 C 0.01728 0.35188 0.76652 0.0
C305 C 0.01521 0.35404 0.66784 0.0
C306 C 0.98927 0.32711 0.76658 0.0
C307 C 0.97415 0.31607 0.71799 0.0
H308 H 0.58736 0.94435 0.99316 0.0
H309 H 0.67065 0.98771 0.91142 0.0
H310 H 0.6941 0.0139 0.99461 0.0
H311 H 0.69067 0.02531 0.09023 0.0
H312 H 0.6068 0.98254 0.17017 0.0
H313 H 0.58398 0.95524 0.08805 0.0
C314 C 0.61067 0.95945 0.99345 0.0
C315 C 0.62719 0.96404 0.94605 0.0
C316 C 0.62395 0.97457 0.04118 0.0
C317 C 0.65738 0.98378 0.94728 0.0
C318 C 0.67082 0.99876 0.99487 0.0
C319 C 0.66744 0.00986 0.08978 0.0
C320 C 0.65051 1.006 0.13637 0.0
C321 C 0.65429 0.99442 0.04204 0.0
C322 C 0.62038 0.98603 0.13492 0.0
C323 C 0.60727 0.97038 0.08794 0.0
H324 H 0.73094 0.67332 0.29779 0.0
H325 H 0.6413 0.63783 0.24874 0.0
H326 H 0.62735 0.64005 0.34205 0.0
H327 H 0.64011 0.65032 0.43833 0.0
H328 H 0.72982 0.68701 0.48739 0.0
H329 H 0.7441 0.68584 0.39359 0.0
C330 C 0.70838 0.66633 0.30732 0.0
C331 C 0.68724 0.65535 0.26597 0.0
C332 C 0.70042 0.66754 0.36133 0.0
C333 C 0.65812 0.64646 0.27941 0.0
C334 C 0.65005 0.64755 0.33296 0.0
C335 C 0.66278 0.65793 0.42859 0.0
C336 C 0.68381 0.66842 0.47009 0.0
C337 C 0.67093 0.65766 0.37437 0.0
C338 C 0.71315 0.67868 0.45643 0.0
C339 C 0.72135 0.67807 0.40271 0.0
H340 H 0.97391 0.66509 0.76027 0.0
H341 H 0.03953 0.65451 0.84406 0.0
H342 H 0.06578 0.66127 0.75927 0.0
H343 H 0.06851 0.66679 0.66097 0.0
H344 H 1.00309 0.67685 0.5756 0.0
H345 H 0.97842 0.67377 0.6615 0.0
C346 C 0.99417 0.66466 0.76017 0.0
C347 C 1.0046 0.65913 0.80868 0.0
C348 C 1.00905 0.66818 0.71091 0.0
C349 C 0.03088 0.65862 0.80753 0.0
C350 C 0.0459 0.66239 0.75894 0.0
C351 C 0.0489 0.66842 0.66097 0.0
C352 C 0.03751 0.67173 0.61173 0.0
C353 C 0.03487 0.66657 0.71031 0.0
C354 C 0.01228 0.67418 0.61281 0.0
C355 C 0.99816 0.67239 0.66195 0.0
H356 H 0.34171 0.98572 0.10799 0.0
H357 H 0.41422 0.06932 0.15347 0.0
H358 H 0.42391 0.08355 0.05836 0.0
H359 H 0.41307 0.07177 0.96211 0.0
H360 H 0.34174 0.98759 0.91585 0.0
H361 H 0.33041 0.97416 1.01118 0.0
C362 C 0.35946 0.00717 0.09715 0.0
C363 C 0.37716 0.02644 0.13806 0.0
C364 C 0.36528 0.01507 0.04209 0.0
C365 C 0.40024 0.05402 0.12303 0.0
C366 C 0.40584 0.06219 0.06854 0.0
C367 C 0.39494 0.05051 0.97273 0.0
C368 C 0.37831 0.03074 0.93156 0.0
C369 C 0.38871 0.0428 1.0277 0.0
C370 C 0.35498 1.00326 0.94645 0.0
C371 C 0.34845 0.99555 1.00107 0.0
H372 H 0.14969 0.40245 1.02818 0.0
H373 H 0.1576 0.3461 0.91133 0.0
H374 H 0.2022 0.35417 0.95419 0.0
H375 H 0.24 0.37848 1.02239 0.0
H376 H 0.23113 0.43266 0.14278 0.0
H377 H 0.18586 0.42396 0.10101 0.0
C378 C 0.16088 0.3916 1.01239 0.0
C379 C 0.15026 0.37403 0.96586 0.0
C380 C 0.18652 0.39601 0.03775 0.0
C381 C 0.16541 0.36035 0.9461 0.0
C382 C 0.19093 0.36476 0.97089 0.0
C383 C 0.22808 0.38808 0.04026 0.0
C384 C 0.23938 0.40647 0.08556 0.0
C385 C 0.20185 0.38277 1.01638 0.0
C386 C 0.22345 0.41888 0.10736 0.0
C387 C 0.19738 0.41379 0.08364 0.0
H388 H 0.82501 0.22247 0.44762 0.0
H389 H 0.87194 0.25513 0.29735 0.0
H390 H 0.83501 0.21188 0.25016 0.0
H391 H 0.7881 0.16593 0.2508 0.0
H392 H 0.74046 0.13435 0.40079 0.0
H393 H 0.77901 0.17585 0.44881 0.0
C394 C 0.82711 0.2202 0.40452 0.0
C395 C 0.85113 0.24218 0.37608 0.0
C396 C 0.80565 0.19541 0.37754 0.0
C397 C 0.85384 0.23852 0.3204 0.0
C398 C 0.83261 0.21385 0.29328 0.0
C399 C 0.7861 0.16814 0.29395 0.0
C400 C 0.76125 0.14701 0.3219 0.0
C401 C 0.80822 0.19235 0.32132 0.0
C402 C 0.75937 0.14999 0.37813 0.0
C403 C 0.78135 0.1739 0.40566 0.0
H404 H 0.58012 0.79908 0.76824 0.0
H405 H 0.65358 0.87409 0.69556 0.0
H406 H 0.66712 0.84227 0.64804 0.0
H407 H 0.65854 0.79322 0.6279 0.0
H408 H 0.58545 0.71828 0.70124 0.0
H409 H 0.57191 0.75012 0.74908 0.0
C410 C 0.59928 0.80859 0.74255 0.0
C411 C 0.61572 0.83909 0.73568 0.0
C412 C 0.60717 0.79016 0.71572 0.0
C413 C 0.64021 0.85078 0.70124 0.0
C414 C 0.64812 0.83257 0.67424 0.0
C415 C 0.6395 0.7838 0.65398 0.0
C416 C 0.62302 0.75333 0.66078 0.0
C417 C 0.63175 0.80224 0.68114 0.0
C418 C 0.59874 0.74161 0.69565 0.0
C419 C 0.59086 0.75982 0.72277 0.0
H420 H 0.79658 0.61152 0.13482 0.0
H421 H 0.75692 0.61429 0.9843 0.0
H422 H 0.79773 0.61665 0.93397 0.0
H423 H 0.84377 0.61607 0.93246 0.0
H424 H 0.8828 0.61189 0.08277 0.0
H425 H 0.84329 0.61212 0.13337 0.0
C426 C 0.79678 0.61248 0.09101 0.0
C427 C 0.77358 0.61256 0.06348 0.0
C428 C 0.82024 0.61361 0.06224 0.0
C429 C 0.77454 0.61446 1.00666 0.0
C430 C 0.79782 0.61562 0.97778 0.0
C431 C 0.84358 0.61506 0.97627 0.0
C432 C 0.8662 0.61377 1.00363 0.0
C433 C 0.82063 0.61491 1.00512 0.0
C434 C 0.86589 0.61314 0.06055 0.0
C435 C 0.84316 0.61306 0.08956 0.0
H436 H 0.20143 0.78729 0.44461 0.0
H437 H 0.1317 0.77458 0.33754 0.0
H438 H 0.16468 0.81953 0.28995 0.0
H439 H 0.21259 0.8637 0.28146 0.0
H440 H 0.2813 0.87791 0.3925 0.0
H441 H 0.24939 0.83114 0.43555 0.0
C442 C 0.19327 0.79434 0.41117 0.0
C443 C 0.16388 0.77744 0.39526 0.0
C444 C 0.21221 0.82061 0.38458 0.0
C445 C 0.15414 0.78679 0.35072 0.0
C446 C 0.17298 0.81271 0.3236 0.0
C447 C 0.22062 0.85676 0.31528 0.0
C448 C 0.24941 0.87464 0.33368 0.0
C449 C 0.20194 0.83 0.34068 0.0
C450 C 0.25945 0.86471 0.37688 0.0
C451 C 0.24111 0.83796 0.4019 0.0
H452 H 0.40588 0.1602 0.67949 0.0
H453 H 0.43537 0.20735 0.82986 0.0
H454 H 0.42379 0.24375 0.79694 0.0
H455 H 0.4049 0.26213 0.72576 0.0
H456 H 0.37518 0.21504 0.57544 0.0
H457 H 0.38675 0.17853 0.60828 0.0
C458 C 0.40951 0.17827 0.70522 0.0
C459 C 0.42163 0.18102 0.75699 0.0
C460 C 0.40271 0.19918 0.68607 0.0
C461 C 0.42652 0.20486 0.78953 0.0
C462 C 0.41976 0.22566 0.77084 0.0
C463 C 0.40123 0.24406 0.69998 0.0
C464 C 0.38916 0.24139 0.64822 0.0
C465 C 0.40795 0.22312 0.71911 0.0
C466 C 0.38411 0.21749 0.6157 0.0
C467 C 0.39084 0.19664 0.63436 0.0
H468 H 0.36268 0.32004 0.83574 0.0
H469 H 0.35015 0.37747 0.72913 0.0
H470 H 0.33474 0.39569 0.80544 0.0
H471 H 0.32838 0.39811 0.90315 0.0
H472 H 0.34109 0.34098 1.01019 0.0
H473 H 0.35246 0.31967 0.93294 0.0
C474 C 0.35636 0.33637 0.82912 0.0
C475 C 0.35791 0.34757 0.77683 0.0
C476 C 0.34759 0.3469 0.87329 0.0
C477 C 0.34936 0.36855 0.76895 0.0
C478 C 0.34055 0.37904 0.81261 0.0
C479 C 0.33332 0.38077 0.9096 0.0
C480 C 0.33418 0.37142 0.96245 0.0
C481 C 0.34012 0.36879 0.86507 0.0
C482 C 0.34039 0.34874 0.96996 0.0
C483 C 0.34702 0.33658 0.9258 0.0
H484 H 0.99083 0.29415 0.26414 0.0
H485 H 0.97905 0.36914 0.25738 0.0
H486 H 0.99388 0.37679 0.16282 0.0
H487 H 0.01063 0.36286 0.08209 0.0
H488 H 0.02389 0.28885 0.08764 0.0
H489 H 1.00787 0.28012 0.18223 0.0
C490 C 0.99154 0.31218 0.24201 0.0
C491 C 0.98381 0.33102 0.26818 0.0
C492 C 1.00024 0.31661 0.18721 0.0
C493 C 0.98489 0.35427 0.23863 0.0
C494 C 0.99333 0.35868 0.18434 0.0
C495 C 1.00985 0.34465 0.10373 0.0
C496 C 0.01837 0.32648 0.07755 0.0
C497 C 1.00104 0.34002 0.15822 0.0
C498 C 0.01742 0.30318 0.10664 0.0
C499 C 1.00831 0.2982 0.16084 0.0
H500 H 0.61643 0.93322 0.56901 0.0
H501 H 0.65558 0.00698 0.67714 0.0
H502 H 0.67367 0.04023 0.59992 0.0
H503 H 0.67501 0.04849 0.5018 0.0
H504 H 0.63699 0.97477 0.39351 0.0
H505 H 0.62212 0.94142 0.4706 0.0
C506 C 0.62915 0.95656 0.57565 0.0
C507 C 0.63436 0.9676 0.62873 0.0
C508 C 0.6396 0.97559 0.53104 0.0
C509 C 0.65121 0.99789 0.6367 0.0
C510 C 0.66147 0.01695 0.59255 0.0
C511 C 0.66373 0.02512 0.49506 0.0
C512 C 0.65684 0.01414 0.44204 0.0
C513 C 0.65529 1.00606 0.53957 0.0
C514 C 0.64255 0.98382 0.43391 0.0
C515 C 0.6339 0.96471 0.478 0.0
H516 H 0.70073 0.7119 0.78679 0.0
H517 H 0.64307 0.62043 0.75433 0.0
H518 H 0.64725 0.60864 0.8481 0.0
H519 H 0.66582 0.6242 0.94018 0.0
H520 H 0.72444 0.71534 0.97298 0.0
H521 H 0.72123 0.72728 0.87844 0.0
C522 C 0.68926 0.68935 0.80003 0.0
C523 C 0.67153 0.66713 0.76324 0.0
C524 C 0.69171 0.68264 0.85432 0.0
C525 C 0.65691 0.63803 0.78142 0.0
C526 C 0.65918 0.63124 0.83524 0.0
C527 C 0.67786 0.64672 0.92678 0.0
C528 C 0.69514 0.66888 0.96395 0.0
C529 C 0.67622 0.65338 0.8722 0.0
C530 C 0.7109 0.69786 0.94545 0.0
C531 C 0.70908 0.7047 0.89131 0.0
H532 H 0.03031 0.65148 0.29291 0.0
H533 H 0.03087 0.73314 0.3025 0.0
H534 H 0.01426 0.72748 0.20858 0.0
H535 H 1.00006 0.6994 0.12301 0.0
H536 H 1.00073 0.61823 0.11494 0.0
H537 H 0.01647 0.62383 0.20867 0.0
C538 C 0.02669 0.66805 0.27472 0.0
C539 C 0.03179 0.69267 0.305 0.0
C540 C 0.01748 0.66483 0.22063 0.0
C541 C 0.02709 0.71392 0.28033 0.0
C542 C 0.01764 0.71072 0.22651 0.0
C543 C 1.00371 0.68298 0.14171 0.0
C544 C 0.9992 0.65844 0.11159 0.0
C545 C 0.01289 0.68631 0.19611 0.0
C546 C 1.00403 0.63738 0.13676 0.0
C547 C 0.01301 0.64051 0.19058 0.0
H548 H 0.33481 0.97679 0.49615 0.0
H549 H 0.38693 0.05201 0.39556 0.0
H550 H 0.40708 0.08221 0.47637 0.0
H551 H 0.41221 0.08655 0.57552 0.0
H552 H 0.35979 0.01132 0.67595 0.0
H553 H 0.33731 0.98191 0.59522 0.0
C554 C 0.35042 0.99985 0.49178 0.0
C555 C 0.35949 0.01203 0.43968 0.0
C556 C 0.36196 0.01707 0.53846 0.0
C557 C 0.37954 0.04202 0.435 0.0
C558 C 0.39116 0.05929 0.48127 0.0
C559 C 0.3957 0.06376 0.57987 0.0
C560 C 0.38791 0.05114 0.63191 0.0
C561 C 0.38289 0.04694 0.53319 0.0
C562 C 0.36626 0.02164 0.63658 0.0
C563 C 0.35346 1.00477 0.59035 0.0
H564 H 0.46526 0.52419 0.09947 0.0
H565 H 0.44972 0.43657 0.12038 0.0
H566 H 0.50198 0.45514 0.12521 0.0
H567 H 0.55226 0.49613 0.12149 0.0
H568 H 0.56742 0.58326 0.0947 0.0
H569 H 0.51525 0.56488 0.09416 0.0
C570 C 0.47317 0.50903 0.10457 0.0
C571 C 0.45329 0.47895 0.10943 0.0
C572 C 0.50334 0.51977 0.10635 0.0
C573 C 0.46424 0.45985 0.11717 0.0
C574 C 0.49425 0.47043 0.11956 0.0
C575 C 0.54424 0.51112 0.1151 0.0
C576 C 0.56405 0.54112 0.10836 0.0
C577 C 0.51402 0.50034 0.11386 0.0
C578 C 0.553 0.56017 0.10096 0.0
C579 C 0.52302 0.54964 0.10021 0.0
H580 H 0.05928 0.55293 0.48906 0.0
H581 H 1.0026 0.5692 0.388 0.0
H582 H 0.96994 0.51694 0.37724 0.0
H583 H 0.95777 0.4666 0.3952 0.0
H584 H 0.01424 0.44994 0.49605 0.0
H585 H 0.04694 0.5023 0.50729 0.0
C586 C 0.03993 0.54505 0.46433 0.0
C587 C 0.03342 0.56507 0.43959 0.0
C588 C 0.02122 0.51486 0.45807 0.0
C589 C 1.00798 0.55439 0.40823 0.0
C590 C 0.98933 0.52446 0.40176 0.0
C591 C 0.97703 0.47436 0.42014 0.0
C592 C 0.98346 0.45427 0.44471 0.0
C593 C 0.9957 0.50449 0.42656 0.0
C594 C 1.00888 0.46485 0.47612 0.0
C595 C 0.02755 0.49482 0.48279 0.0
H596 H 0.56163 1.00153 0.80508 0.0
H597 H 0.48107 0.92761 0.75085 0.0
H598 H 0.45834 0.95779 0.74761 0.0
H599 H 0.46162 1.00566 0.75789 0.0
H600 H 0.54277 0.0797 0.80852 0.0
H601 H 0.56512 0.04913 0.81432 0.0
C602 C 0.53922 0.99195 0.79193 0.0
C603 C 0.52324 0.96217 0.77823 0.0
C604 C 0.52636 0.00956 0.78928 0.0
C605 C 0.49395 0.95028 0.76235 0.0
C606 C 0.48091 0.96761 0.76014 0.0
C607 C 0.48411 0.01498 0.77063 0.0
C608 C 0.50052 0.04491 0.7827 0.0
C609 C 0.49691 0.99729 0.77342 0.0
C610 C 0.52978 0.05681 0.79842 0.0
C611 C 0.54253 0.03931 0.80196 0.0
H612 H 0.56643 0.5454 0.64443 0.0
H613 H 0.49783 0.55589 0.57349 0.0
H614 H 0.46581 0.50318 0.5725 0.0
H615 H 0.45729 0.45407 0.59075 0.0
H616 H 0.52563 0.44313 0.66135 0.0
H617 H 0.55796 0.49599 0.66212 0.0
C618 C 0.54459 0.5362 0.62827 0.0
C619 C 0.53465 0.55479 0.60924 0.0
C620 C 0.52624 0.50573 0.62747 0.0
C621 C 0.50604 0.54231 0.58919 0.0
C622 C 0.48771 0.51208 0.58827 0.0
C623 C 0.47913 0.46318 0.60687 0.0
C624 C 0.48889 0.44452 0.62618 0.0
C625 C 0.49754 0.49359 0.60743 0.0
C626 C 0.51757 0.45687 0.64577 0.0
C627 C 0.53604 0.48714 0.6465 0.0
H628 H 0.96219 0.49349 0.98686 0.0
H629 H 0.0246 0.5643 0.88728 0.0
H630 H 0.05311 0.53987 0.87699 0.0
H631 H 0.05967 0.4977 0.89467 0.0
H632 H 0.99707 0.42716 0.99469 0.0
H633 H 0.96905 0.4519 1.00556 0.0
C634 C 0.98186 0.50347 0.96248 0.0
C635 C 0.99114 0.53067 0.93778 0.0
C636 C 0.99809 0.48927 0.95662 0.0
C637 C 0.01706 0.54353 0.90719 0.0
C638 C 0.03332 0.52949 0.90107 0.0
C639 C 0.04008 0.48788 0.91927 0.0
C640 C 0.03045 0.46047 0.94346 0.0
C641 C 0.02403 0.50232 0.92556 0.0
C642 C 1.00477 0.44796 0.97477 0.0
C643 C 0.98878 0.46218 0.98129 0.0
H644 H 0.5458 0.99783 0.31984 0.0
H645 H 0.55919 0.08414 0.29204 0.0
H646 H 0.50667 0.06424 0.28538 0.0
H647 H 0.4572 0.02232 0.28441 0.0
H648 H 0.44339 0.93585 0.31212 0.0
H649 H 0.49596 0.95578 0.32044 0.0
C650 C 0.53727 0.01227 0.31195 0.0
C651 C 0.55652 0.04247 0.30637 0.0
C652 C 0.507 1.00064 0.30776 0.0
C653 C 0.54496 0.0609 0.29714 0.0
C654 C 0.5149 0.0495 0.29297 0.0
C655 C 0.46554 0.0078 0.29306 0.0
C656 C 0.44624 0.97758 0.29774 0.0
C657 C 0.49574 0.01942 0.29803 0.0
C658 C 0.4577 0.95913 0.30776 0.0
C659 C 0.48777 0.97054 0.31279 0.0
loop_
_geom_bond_atom_site_label_1
_geom_bond_atom_site_label_2
_geom_bond_distance
_geom_bond_site_symmetry_2
_ccdc_geom_bond_type
Cu0 N1 1.999 . S
Cu0 O6 1.974 . S
Cu0 N11 1.985 . S
Cu0 O20 1.959 . S
N1 Cu0 1.999 . S
N1 C3 1.263 . S
N1 C5 1.389 . S
N2 C3 1.358 . S
N2 C4 1.400 . S
C3 N1 1.263 . S
C3 N2 1.358 . S
C3 H9 0.930 . S
C4 N2 1.400 . S
C4 C5 1.351 . S
C4 H21 0.930 . S
C5 N1 1.389 . S
C5 C4 1.351 . S
C5 H10 0.930 . S
O6 Cu0 1.974 . S
O6 C16 1.282 . S
C7 O8 1.261 1_556 S
C7 O20 1.251 1_556 S
O8 C7 1.261 1_554 S
H9 C3 0.930 . S
H10 C5 0.930 . S
N11 Cu0 1.985 . S
N11 C13 1.335 . S
N11 C14 1.390 . S
N12 C13 1.345 . S
N12 C15 1.336 . S
C13 N11 1.335 . S
C13 N12 1.345 . S
C13 H18 0.930 . S
C14 N11 1.390 . S
C14 C15 1.346 . S
C14 H19 0.930 . S
C15 N12 1.336 . S
C15 C14 1.346 . S
C15 H22 0.929 . S
C16 O6 1.282 . S
C16 O17 1.216 . S
O17 C16 1.216 . S
H18 C13 0.930 . S
H19 C14 0.930 . S
O20 Cu0 1.959 . S
O20 C7 1.251 1_554 S
H21 C4 0.930 . S
H22 C15 0.929 . S
Cu23 N24 1.999 . S
Cu23 O29 1.974 . S
Cu23 N34 1.985 . S
Cu23 O43 1.959 . S
N24 Cu23 1.999 . S
N24 C26 1.282 . S
N24 C28 1.389 . S
N25 C26 1.366 1_455 S
N25 C27 1.400 1_455 S
C26 N24 1.282 . S
C26 N25 1.366 1_655 S
C26 H32 0.907 1_655 S
C27 N25 1.400 1_655 S
C27 C28 1.351 . S
C27 H44 0.930 . S
C28 N24 1.389 . S
C28 C27 1.351 . S
C28 H33 0.930 . S
O29 Cu23 1.974 . S
O29 C39 1.282 . S
C30 O31 1.251 1_655 S
C30 O43 1.251 . S
O31 C30 1.251 1_455 S
H32 C26 0.907 1_455 S
H33 C28 0.930 . S
N34 Cu23 1.985 . S
N34 C36 1.335 . S
N34 C37 1.390 . S
N35 C36 1.345 . S
N35 C38 1.336 . S
C36 N34 1.335 . S
C36 N35 1.345 . S
C36 H41 0.930 . S
C37 N34 1.390 . S
C37 C38 1.346 . S
C37 H42 0.930 . S
C38 N35 1.336 . S
C38 C37 1.346 . S
C38 H45 0.929 . S
C39 O29 1.282 . S
C39 O40 1.191 1_655 S
O40 C39 1.191 1_455 S
H41 C36 0.930 . S
H42 C37 0.930 . S
O43 Cu23 1.959 . S
O43 C30 1.251 . S
H44 C27 0.930 . S
H45 C38 0.929 . S
Cu46 N47 1.999 . S
Cu46 O52 1.974 . S
Cu46 N57 1.985 . S
Cu46 O66 1.959 . S
N47 Cu46 1.999 . S
N47 C49 1.295 . S
N47 C51 1.389 . S
N48 C49 1.327 1_545 S
N48 C50 1.400 1_545 S
C49 N47 1.295 . S
C49 N48 1.327 1_565 S
C49 H55 0.931 1_565 S
C50 N48 1.400 1_565 S
C50 C51 1.351 . S
C50 H67 0.930 . S
C51 N47 1.389 . S
C51 C50 1.351 . S
C51 H56 0.930 . S
O52 Cu46 1.974 . S
O52 C62 1.282 . S
C53 O54 1.255 1_565 S
C53 O66 1.251 . S
O54 C53 1.255 1_545 S
H55 C49 0.931 1_545 S
H56 C51 0.930 . S
N57 Cu46 1.985 . S
N57 C59 1.335 . S
N57 C60 1.390 . S
N58 C59 1.345 . S
N58 C61 1.336 . S
C59 N57 1.335 . S
C59 N58 1.345 . S
C59 H64 0.930 . S
C60 N57 1.390 . S
C60 C61 1.346 . S
C60 H65 0.930 . S
C61 N58 1.336 . S
C61 C60 1.346 . S
C61 H68 0.929 . S
C62 O52 1.282 . S
C62 O63 1.206 1_565 S
O63 C62 1.206 1_545 S
H64 C59 0.930 . S
H65 C60 0.930 . S
O66 Cu46 1.959 . S
O66 C53 1.251 . S
H67 C50 0.930 . S
H68 C61 0.929 . S
Cu69 N70 1.999 . S
Cu69 O75 1.974 . S
Cu69 N80 1.985 . S
Cu69 O89 1.959 . S
N70 Cu69 1.999 . S
N70 C72 1.263 . S
N70 C74 1.389 . S
N71 C72 1.358 . S
N71 C73 1.400 . S
C72 N70 1.263 . S
C72 N71 1.358 . S
C72 H78 0.930 . S
C73 N71 1.400 . S
C73 C74 1.351 . S
C73 H90 0.930 . S
C74 N70 1.389 . S
C74 C73 1.351 . S
C74 H79 0.930 . S
O75 Cu69 1.974 . S
O75 C85 1.282 . S
C76 O77 1.261 1_556 S
C76 O89 1.251 1_556 S
O77 C76 1.261 1_554 S
H78 C72 0.930 . S
H79 C74 0.930 . S
N80 Cu69 1.985 . S
N80 C82 1.335 . S
N80 C83 1.390 . S
N81 C82 1.345 . S
N81 C84 1.336 . S
C82 N80 1.335 . S
C82 N81 1.345 . S
C82 H87 0.930 . S
C83 N80 1.390 . S
C83 C84 1.346 . S
C83 H88 0.930 . S
C84 N81 1.336 . S
C84 C83 1.346 . S
C84 H91 0.929 . S
C85 O75 1.282 . S
C85 O86 1.216 . S
O86 C85 1.216 . S
H87 C82 0.930 . S
H88 C83 0.930 . S
O89 Cu69 1.959 . S
O89 C76 1.251 1_554 S
H90 C73 0.930 . S
H91 C84 0.929 . S
Cu92 N93 1.999 . S
Cu92 O98 1.974 . S
Cu92 N103 1.985 . S
Cu92 O112 1.959 . S
N93 Cu92 1.999 . S
N93 C95 1.282 . S
N93 C97 1.389 . S
N94 C95 1.366 1_655 S
N94 C96 1.400 1_655 S
C95 N93 1.282 . S
C95 N94 1.366 1_455 S
C95 H101 0.907 1_455 S
C96 N94 1.400 1_455 S
C96 C97 1.351 . S
C96 H113 0.930 . S
C97 N93 1.389 . S
C97 C96 1.351 . S
C97 H102 0.930 . S
O98 Cu92 1.974 . S
O98 C108 1.282 . S
C99 O100 1.251 1_455 S
C99 O112 1.251 . S
O100 C99 1.251 1_655 S
H101 C95 0.907 1_655 S
H102 C97 0.930 . S
N103 Cu92 1.985 . S
N103 C105 1.335 . S
N103 C106 1.390 . S
N104 C105 1.345 . S
N104 C107 1.336 . S
C105 N103 1.335 . S
C105 N104 1.345 . S
C105 H110 0.930 . S
C106 N103 1.390 . S
C106 C107 1.346 . S
C106 H111 0.930 . S
C107 N104 1.336 . S
C107 C106 1.346 . S
C107 H114 0.929 . S
C108 O98 1.282 . S
C108 O109 1.191 1_455 S
O109 C108 1.191 1_655 S
H110 C105 0.930 . S
H111 C106 0.930 . S
O112 Cu92 1.959 . S
O112 C99 1.251 . S
H113 C96 0.930 . S
H114 C107 0.929 . S
Cu115 N116 1.999 . S
Cu115 O121 1.974 . S
Cu115 N126 1.985 . S
Cu115 O135 1.959 . S
N116 Cu115 1.999 . S
N116 C118 1.295 . S
N116 C120 1.389 . S
N117 C118 1.327 1_565 S
N117 C119 1.400 1_565 S
C118 N116 1.295 . S
C118 N117 1.327 1_545 S
C118 H124 0.931 1_545 S
C119 N117 1.400 1_545 S
C119 C120 1.351 . S
C119 H136 0.930 . S
C120 N116 1.389 . S
C120 C119 1.351 . S
C120 H125 0.930 . S
O121 Cu115 1.974 . S
O121 C131 1.282 . S
C122 O123 1.255 1_545 S
C122 O135 1.251 . S
O123 C122 1.255 1_565 S
H124 C118 0.931 1_565 S
H125 C120 0.930 . S
N126 Cu115 1.985 . S
N126 C128 1.335 . S
N126 C129 1.390 . S
N127 C128 1.345 . S
N127 C130 1.336 . S
C128 N126 1.335 . S
C128 N127 1.345 . S
C128 H133 0.930 . S
C129 N126 1.390 . S
C129 C130 1.346 . S
C129 H134 0.930 . S
C130 N127 1.336 . S
C130 C129 1.346 . S
C130 H137 0.929 . S
C131 O121 1.282 . S
C131 O132 1.206 1_545 S
O132 C131 1.206 1_565 S
H133 C128 0.930 . S
H134 C129 0.930 . S
O135 Cu115 1.959 . S
O135 C122 1.251 . S
H136 C119 0.930 . S
H137 C130 0.929 . S
Cu138 N139 1.999 . S
Cu138 O144 1.974 . S
Cu138 N149 1.985 . S
Cu138 O158 1.959 . S
N139 Cu138 1.999 . S
N139 C141 1.263 . S
N139 C143 1.389 . S
N140 C141 1.358 . S
N140 C142 1.400 . S
C141 N139 1.263 . S
C141 N140 1.358 . S
C141 H147 0.930 . S
C142 N140 1.400 . S
C142 C143 1.351 . S
C142 H159 0.930 . S
C143 N139 1.389 . S
C143 C142 1.351 . S
C143 H148 0.930 . S
O144 Cu138 1.974 . S
O144 C154 1.282 . S
C145 O146 1.261 . S
C145 O158 1.251 . S
O146 C145 1.261 . S
H147 C141 0.930 . S
H148 C143 0.930 . S
N149 Cu138 1.985 . S
N149 C151 1.335 . S
N149 C152 1.390 . S
N150 C151 1.345 . S
N150 C153 1.336 . S
C151 N149 1.335 . S
C151 N150 1.345 . S
C151 H156 0.930 . S
C152 N149 1.390 . S
C152 C153 1.346 . S
C152 H157 0.930 . S
C153 N150 1.336 . S
C153 C152 1.346 . S
C153 H160 0.929 . S
C154 O144 1.282 . S
C154 O155 1.216 . S
O155 C154 1.216 . S
H156 C151 0.930 . S
H157 C152 0.930 . S
O158 Cu138 1.959 . S
O158 C145 1.251 . S
H159 C142 0.930 . S
H160 C153 0.929 . S
Cu161 N162 1.999 . S
Cu161 O167 1.974 . S
Cu161 N172 1.985 . S
Cu161 O181 1.959 . S
N162 Cu161 1.999 . S
N162 C164 1.295 . S
N162 C166 1.389 . S
N163 C164 1.326 1_455 S
N163 C165 1.400 1_455 S
C164 N162 1.295 . S
C164 N163 1.326 1_655 S
C164 H170 0.931 1_655 S
C165 N163 1.400 1_655 S
C165 C166 1.351 . S
C165 H182 0.930 . S
C166 N162 1.389 . S
C166 C165 1.351 . S
C166 H171 0.930 . S
O167 Cu161 1.974 . S
O167 C177 1.282 . S
C168 O169 1.255 1_654 S
C168 O181 1.251 1_554 S
O169 C168 1.255 1_456 S
H170 C164 0.931 1_455 S
H171 C166 0.930 . S
N172 Cu161 1.985 . S
N172 C174 1.335 . S
N172 C175 1.390 . S
N173 C174 1.345 . S
N173 C176 1.336 . S
C174 N172 1.335 . S
C174 N173 1.345 . S
C174 H179 0.930 . S
C175 N172 1.390 . S
C175 C176 1.346 . S
C175 H180 0.930 . S
C176 N173 1.336 . S
C176 C175 1.346 . S
C176 H183 0.929 . S
C177 O167 1.282 . S
C177 O178 1.206 1_655 S
O178 C177 1.206 1_455 S
H179 C174 0.930 . S
H180 C175 0.930 . S
O181 Cu161 1.959 . S
O181 C168 1.251 1_556 S
H182 C165 0.930 . S
H183 C176 0.929 . S
Cu184 N185 1.999 . S
Cu184 O190 1.974 . S
Cu184 N195 1.985 . S
Cu184 O204 1.959 . S
N185 Cu184 1.999 . S
N185 C187 1.282 . S
N185 C189 1.389 . S
N186 C187 1.366 1_545 S
N186 C188 1.400 1_545 S
C187 N185 1.282 . S
C187 N186 1.366 1_565 S
C187 H193 0.907 1_565 S
C188 N186 1.400 1_565 S
C188 C189 1.351 . S
C188 H205 0.930 . S
C189 N185 1.389 . S
C189 C188 1.351 . S
C189 H194 0.930 . S
O190 Cu184 1.974 . S
O190 C200 1.282 . S
C191 O192 1.251 1_565 S
C191 O204 1.251 . S
O192 C191 1.251 1_545 S
H193 C187 0.907 1_545 S
H194 C189 0.930 . S
N195 Cu184 1.985 . S
N195 C197 1.335 . S
N195 C198 1.390 . S
N196 C197 1.345 . S
N196 C199 1.336 . S
C197 N195 1.335 . S
C197 N196 1.345 . S
C197 H202 0.930 . S
C198 N195 1.390 . S
C198 C199 1.346 . S
C198 H203 0.930 . S
C199 N196 1.336 . S
C199 C198 1.346 . S
C199 H206 0.929 . S
C200 O190 1.282 . S
C200 O201 1.191 1_565 S
O201 C200 1.191 1_545 S
H202 C197 0.930 . S
H203 C198 0.930 . S
O204 Cu184 1.959 . S
O204 C191 1.251 . S
H205 C188 0.930 . S
H206 C199 0.929 . S
Cu207 N208 1.999 . S
Cu207 O213 1.974 . S
Cu207 N218 1.985 . S
Cu207 O227 1.959 . S
N208 Cu207 1.999 . S
N208 C210 1.263 . S
N208 C212 1.389 . S
N209 C210 1.358 . S
N209 C211 1.400 . S
C210 N208 1.263 . S
C210 N209 1.358 . S
C210 H216 0.930 . S
C211 N209 1.400 . S
C211 C212 1.351 . S
C211 H228 0.930 . S
C212 N208 1.389 . S
C212 C211 1.351 . S
C212 H217 0.930 . S
O213 Cu207 1.974 . S
O213 C223 1.282 . S
C214 O215 1.261 . S
C214 O227 1.251 . S
O215 C214 1.261 . S
H216 C210 0.930 . S
H217 C212 0.930 . S
N218 Cu207 1.985 . S
N218 C220 1.335 . S
N218 C221 1.390 . S
N219 C220 1.345 . S
N219 C222 1.336 . S
C220 N218 1.335 . S
C220 N219 1.345 . S
C220 H225 0.930 . S
C221 N218 1.390 . S
C221 C222 1.346 . S
C221 H226 0.930 . S
C222 N219 1.336 . S
C222 C221 1.346 . S
C222 H229 0.929 . S
C223 O213 1.282 . S
C223 O224 1.216 . S
O224 C223 1.216 . S
H225 C220 0.930 . S
H226 C221 0.930 . S
O227 Cu207 1.959 . S
O227 C214 1.251 . S
H228 C211 0.930 . S
H229 C222 0.929 . S
Cu230 N231 1.999 . S
Cu230 O236 1.974 . S
Cu230 N241 1.985 . S
Cu230 O250 1.959 . S
N231 Cu230 1.999 . S
N231 C233 1.295 . S
N231 C235 1.389 . S
N232 C233 1.326 1_655 S
N232 C234 1.400 1_655 S
C233 N231 1.295 . S
C233 N232 1.326 1_455 S
C233 H239 0.931 1_455 S
C234 N232 1.400 1_455 S
C234 C235 1.351 . S
C234 H251 0.930 . S
C235 N231 1.389 . S
C235 C234 1.351 . S
C235 H240 0.930 . S
O236 Cu230 1.974 . S
O236 C246 1.282 . S
C237 O238 1.255 1_454 S
C237 O250 1.251 1_554 S
O238 C237 1.255 1_656 S
H239 C233 0.931 1_655 S
H240 C235 0.930 . S
N241 Cu230 1.985 . S
N241 C243 1.335 . S
N241 C244 1.390 . S
N242 C243 1.345 . S
N242 C245 1.336 . S
C243 N241 1.335 . S
C243 N242 1.345 . S
C243 H248 0.930 . S
C244 N241 1.390 . S
C244 C245 1.346 . S
C244 H249 0.930 . S
C245 N242 1.336 . S
C245 C244 1.346 . S
C245 H252 0.929 . S
C246 O236 1.282 . S
C246 O247 1.206 1_455 S
O247 C246 1.206 1_655 S
H248 C243 0.930 . S
H249 C244 0.930 . S
O250 Cu230 1.959 . S
O250 C237 1.251 1_556 S
H251 C234 0.930 . S
H252 C245 0.929 . S
Cu253 N254 1.999 . S
Cu253 O259 1.974 . S
Cu253 N264 1.985 . S
Cu253 O273 1.959 . S
N254 Cu253 1.999 . S
N254 C256 1.282 . S
N254 C258 1.389 . S
N255 C256 1.366 1_565 S
N255 C257 1.400 1_565 S
C256 N254 1.282 . S
C256 N255 1.366 1_545 S
C256 H262 0.907 1_545 S
C257 N255 1.400 1_545 S
C257 C258 1.351 . S
C257 H274 0.930 . S
C258 N254 1.389 . S
C258 C257 1.351 . S
C258 H263 0.930 . S
O259 Cu253 1.974 . S
O259 C269 1.282 . S
C260 O261 1.251 1_545 S
C260 O273 1.251 . S
O261 C260 1.251 1_565 S
H262 C256 0.907 1_565 S
H263 C258 0.930 . S
N264 Cu253 1.985 . S
N264 C266 1.335 . S
N264 C267 1.390 . S
N265 C266 1.345 . S
N265 C268 1.336 . S
C266 N264 1.335 . S
C266 N265 1.345 . S
C266 H271 0.930 . S
C267 N264 1.390 . S
C267 C268 1.346 . S
C267 H272 0.930 . S
C268 N265 1.336 . S
C268 C267 1.346 . S
C268 H275 0.929 . S
C269 O259 1.282 . S
C269 O270 1.191 1_545 S
O270 C269 1.191 1_565 S
H271 C266 0.930 . S
H272 C267 0.930 . S
O273 Cu253 1.959 . S
O273 C260 1.251 . S
H274 C257 0.930 . S
H275 C268 0.929 . S
H276 C282 0.930 . S
H277 C285 0.930 . S
H278 C286 0.930 . S
H279 C287 0.930 . S
H280 C290 0.930 . S
H281 C291 0.930 . S
C282 H276 0.930 . S
C282 C283 1.355 . S
C282 C284 1.415 . S
C283 C282 1.355 . S
C283 C285 1.419 . S
C284 C282 1.415 . S
C284 C289 1.425 . S
C284 C291 1.409 . S
C285 H277 0.930 . S
C285 C283 1.419 . S
C285 C286 1.362 . S
C286 H278 0.930 . S
C286 C285 1.362 . S
C286 C289 1.409 . S
C287 H279 0.930 . S
C287 C288 1.355 . S
C287 C289 1.415 . S
C288 C287 1.355 . S
C288 C290 1.419 . S
C289 C284 1.425 . S
C289 C286 1.409 . S
C289 C287 1.415 . S
C290 H280 0.930 . S
C290 C288 1.419 . S
C290 C291 1.362 . S
C291 H281 0.930 . S
C291 C284 1.409 . S
C291 C290 1.362 . S
H292 C298 0.930 . S
H293 C301 0.935 1_455 S
H294 C302 0.930 . S
H295 C303 0.930 . S
H296 C306 0.935 1_655 S
H297 C307 0.930 . S
C298 H292 0.930 . S
C298 C299 1.355 . S
C298 C300 1.415 . S
C299 C298 1.355 . S
C299 C301 1.419 . S
C300 C298 1.415 . S
C300 C305 1.425 1_655 S
C300 C307 1.409 . S
C301 H293 0.935 1_655 S
C301 C299 1.419 . S
C301 C302 1.358 1_655 S
C302 H294 0.930 . S
C302 C301 1.358 1_455 S
C302 C305 1.409 . S
C303 H295 0.930 . S
C303 C304 1.355 . S
C303 C305 1.415 . S
C304 C303 1.355 . S
C304 C306 1.419 . S
C305 C300 1.425 1_455 S
C305 C302 1.409 . S
C305 C303 1.415 . S
C306 H296 0.935 1_455 S
C306 C304 1.419 . S
C306 C307 1.358 1_455 S
C307 H297 0.930 . S
C307 C300 1.409 . S
C307 C306 1.358 1_655 S
H308 C314 0.930 . S
H309 C317 0.930 . S
H310 C318 0.930 1_554 S
H311 C319 0.930 . S
H312 C322 0.930 . S
H313 C323 0.930 1_556 S
C314 H308 0.930 . S
C314 C315 1.355 1_545 S
C314 C316 1.415 . S
C315 C314 1.355 1_565 S
C315 C317 1.419 . S
C316 C314 1.415 . S
C316 C321 1.425 1_546 S
C316 C323 1.409 1_556 S
C317 H309 0.930 . S
C317 C315 1.419 . S
C317 C318 1.362 . S
C318 H310 0.930 1_556 S
C318 C317 1.362 . S
C318 C321 1.409 1_556 S
C319 H311 0.930 . S
C319 C320 1.355 1_565 S
C319 C321 1.415 . S
C320 C319 1.355 1_545 S
C320 C322 1.419 . S
C321 C316 1.425 1_564 S
C321 C318 1.409 1_554 S
C321 C319 1.415 . S
C322 H312 0.930 . S
C322 C320 1.419 . S
C322 C323 1.362 . S
C323 H313 0.930 1_554 S
C323 C316 1.409 1_554 S
C323 C322 1.362 . S
H324 C330 0.930 . S
H325 C333 0.930 . S
H326 C334 0.930 . S
H327 C335 0.930 . S
H328 C338 0.930 . S
H329 C339 0.930 . S
C330 H324 0.930 . S
C330 C331 1.355 . S
C330 C332 1.415 . S
C331 C330 1.355 . S
C331 C333 1.419 . S
C332 C330 1.415 . S
C332 C337 1.425 . S
C332 C339 1.409 . S
C333 H325 0.930 . S
C333 C331 1.419 . S
C333 C334 1.362 . S
C334 H326 0.930 . S
C334 C333 1.362 . S
C334 C337 1.409 . S
C335 H327 0.930 . S
C335 C336 1.355 . S
C335 C337 1.415 . S
C336 C335 1.355 . S
C336 C338 1.419 . S
C337 C332 1.425 . S
C337 C334 1.409 . S
C337 C335 1.415 . S
C338 H328 0.930 . S
C338 C336 1.419 . S
C338 C339 1.362 . S
C339 H329 0.930 . S
C339 C332 1.409 . S
C339 C338 1.362 . S
H340 C346 0.930 . S
H341 C349 0.930 1_455 S
H342 C350 0.930 . S
H343 C351 0.930 . S
H344 C354 0.930 1_655 S
H345 C355 0.930 . S
C346 H340 0.930 . S
C346 C347 1.355 . S
C346 C348 1.415 . S
C347 C346 1.355 . S
C347 C349 1.419 . S
C348 C346 1.415 . S
C348 C353 1.425 1_655 S
C348 C355 1.409 . S
C349 H341 0.930 1_655 S
C349 C347 1.419 . S
C349 C350 1.362 1_655 S
C350 H342 0.930 . S
C350 C349 1.362 1_455 S
C350 C353 1.409 . S
C351 H343 0.930 . S
C351 C352 1.355 . S
C351 C353 1.415 . S
C352 C351 1.355 . S
C352 C354 1.419 . S
C353 C348 1.425 1_455 S
C353 C350 1.409 . S
C353 C351 1.415 . S
C354 H344 0.930 1_455 S
C354 C352 1.419 . S
C354 C355 1.362 1_455 S
C355 H345 0.930 . S
C355 C348 1.409 . S
C355 C354 1.362 1_655 S
H356 C362 0.930 . S
H357 C365 0.930 . S
H358 C366 0.930 . S
H359 C367 0.930 . S
H360 C370 0.930 . S
H361 C371 0.930 . S
C362 H356 0.930 . S
C362 C363 1.355 . S
C362 C364 1.415 . S
C363 C362 1.355 . S
C363 C365 1.419 1_565 S
C364 C362 1.415 . S
C364 C369 1.425 1_564 S
C364 C371 1.409 1_554 S
C365 H357 0.930 . S
C365 C363 1.419 1_545 S
C365 C366 1.362 . S
C366 H358 0.930 . S
C366 C365 1.362 . S
C366 C369 1.409 1_554 S
C367 H359 0.930 . S
C367 C368 1.355 . S
C367 C369 1.415 . S
C368 C367 1.355 . S
C368 C370 1.419 1_545 S
C369 C364 1.425 1_546 S
C369 C366 1.409 1_556 S
C369 C367 1.415 . S
C370 H360 0.930 . S
C370 C368 1.419 1_565 S
C370 C371 1.362 . S
C371 H361 0.930 . S
C371 C364 1.409 1_556 S
C371 C370 1.362 . S
H372 C378 0.930 . S
H373 C381 0.930 . S
H374 C382 0.930 . S
H375 C383 0.930 . S
H376 C386 0.930 . S
H377 C387 0.930 . S
C378 H372 0.930 . S
C378 C379 1.355 1_554 S
C378 C380 1.415 . S
C379 C378 1.355 1_556 S
C379 C381 1.419 . S
C380 C378 1.415 . S
C380 C385 1.425 1_554 S
C380 C387 1.409 . S
C381 H373 0.930 . S
C381 C379 1.419 . S
C381 C382 1.362 . S
C382 H374 0.930 . S
C382 C381 1.362 . S
C382 C385 1.409 . S
C383 H375 0.930 . S
C383 C384 1.355 1_556 S
C383 C385 1.415 . S
C384 C383 1.355 1_554 S
C384 C386 1.419 . S
C385 C380 1.425 1_556 S
C385 C382 1.409 . S
C385 C383 1.415 . S
C386 H376 0.930 . S
C386 C384 1.419 . S
C386 C387 1.362 . S
C387 H377 0.930 . S
C387 C380 1.409 . S
C387 C386 1.362 . S
H388 C394 0.930 . S
H389 C397 0.930 . S
H390 C398 0.930 . S
H391 C399 0.930 . S
H392 C402 0.930 . S
H393 C403 0.930 . S
C394 H388 0.930 . S
C394 C395 1.355 . S
C394 C396 1.415 . S
C395 C394 1.355 . S
C395 C397 1.419 . S
C396 C394 1.415 . S
C396 C401 1.425 . S
C396 C403 1.409 . S
C397 H389 0.930 . S
C397 C395 1.419 . S
C397 C398 1.362 . S
C398 H390 0.930 . S
C398 C397 1.362 . S
C398 C401 1.409 . S
C399 H391 0.930 . S
C399 C400 1.355 . S
C399 C401 1.415 . S
C400 C399 1.355 . S
C400 C402 1.419 . S
C401 C396 1.425 . S
C401 C398 1.409 . S
C401 C399 1.415 . S
C402 H392 0.930 . S
C402 C400 1.419 . S
C402 C403 1.362 . S
C403 H393 0.930 . S
C403 C396 1.409 . S
C403 C402 1.362 . S
H404 C410 0.930 . S
H405 C413 0.930 . S
H406 C414 0.930 . S
H407 C415 0.930 . S
H408 C418 0.930 . S
H409 C419 0.930 . S
C410 H404 0.930 . S
C410 C411 1.355 . S
C410 C412 1.415 . S
C411 C410 1.355 . S
C411 C413 1.419 . S
C412 C410 1.415 . S
C412 C417 1.425 . S
C412 C419 1.409 . S
C413 H405 0.930 . S
C413 C411 1.419 . S
C413 C414 1.362 . S
C414 H406 0.930 . S
C414 C413 1.362 . S
C414 C417 1.409 . S
C415 H407 0.930 . S
C415 C416 1.355 . S
C415 C417 1.415 . S
C416 C415 1.355 . S
C416 C418 1.419 . S
C417 C412 1.425 . S
C417 C414 1.409 . S
C417 C415 1.415 . S
C418 H408 0.930 . S
C418 C416 1.419 . S
C418 C419 1.362 . S
C419 H409 0.930 . S
C419 C412 1.409 . S
C419 C418 1.362 . S
H420 C426 0.930 . S
H421 C429 0.930 . S
H422 C430 0.930 . S
H423 C431 0.930 . S
H424 C434 0.930 . S
H425 C435 0.930 . S
C426 H420 0.930 . S
C426 C427 1.355 . S
C426 C428 1.415 . S
C427 C426 1.355 . S
C427 C429 1.419 1_554 S
C428 C426 1.415 . S
C428 C433 1.425 1_554 S
C428 C435 1.409 . S
C429 H421 0.930 . S
C429 C427 1.419 1_556 S
C429 C430 1.362 . S
C430 H422 0.930 . S
C430 C429 1.362 . S
C430 C433 1.409 . S
C431 H423 0.930 . S
C431 C432 1.355 . S
C431 C433 1.415 . S
C432 C431 1.355 . S
C432 C434 1.419 1_556 S
C433 C428 1.425 1_556 S
C433 C430 1.409 . S
C433 C431 1.415 . S
C434 H424 0.930 . S
C434 C432 1.419 1_554 S
C434 C435 1.362 . S
C435 H425 0.930 . S
C435 C428 1.409 . S
C435 C434 1.362 . S
H436 C442 0.930 . S
H437 C445 0.930 . S
H438 C446 0.930 . S
H439 C447 0.930 . S
H440 C450 0.930 . S
H441 C451 0.930 . S
C442 H436 0.930 . S
C442 C443 1.355 . S
C442 C444 1.415 . S
C443 C442 1.355 . S
C443 C445 1.419 . S
C444 C442 1.415 . S
C444 C449 1.425 . S
C444 C451 1.409 . S
C445 H437 0.930 . S
C445 C443 1.419 . S
C445 C446 1.362 . S
C446 H438 0.930 . S
C446 C445 1.362 . S
C446 C449 1.409 . S
C447 H439 0.930 . S
C447 C448 1.355 . S
C447 C449 1.415 . S
C448 C447 1.355 . S
C448 C450 1.419 . S
C449 C444 1.425 . S
C449 C446 1.409 . S
C449 C447 1.415 . S
C450 H440 0.930 . S
C450 C448 1.419 . S
C450 C451 1.362 . S
C451 H441 0.930 . S
C451 C444 1.409 . S
C451 C450 1.362 . S
H452 C458 0.930 . S
H453 C461 0.930 . S
H454 C462 0.930 . S
H455 C463 0.930 . S
H456 C466 0.930 . S
H457 C467 0.930 . S
C458 H452 0.930 . S
C458 C459 1.355 . S
C458 C460 1.415 . S
C459 C458 1.355 . S
C459 C461 1.419 . S
C460 C458 1.415 . S
C460 C465 1.425 . S
C460 C467 1.409 . S
C461 H453 0.930 . S
C461 C459 1.419 . S
C461 C462 1.362 . S
C462 H454 0.930 . S
C462 C461 1.362 . S
C462 C465 1.409 . S
C463 H455 0.930 . S
C463 C464 1.355 . S
C463 C465 1.415 . S
C464 C463 1.355 . S
C464 C466 1.419 . S
C465 C460 1.425 . S
C465 C462 1.409 . S
C465 C463 1.415 . S
C466 H456 0.930 . S
C466 C464 1.419 . S
C466 C467 1.362 . S
C467 H457 0.930 . S
C467 C460 1.409 . S
C467 C466 1.362 . S
H468 C474 0.930 . S
H469 C477 0.930 . S
H470 C478 0.930 . S
H471 C479 0.930 . S
H472 C482 0.930 . S
H473 C483 0.930 . S
C474 H468 0.930 . S
C474 C475 1.355 . S
C474 C476 1.415 . S
C475 C474 1.355 . S
C475 C477 1.419 . S
C476 C474 1.415 . S
C476 C481 1.425 . S
C476 C483 1.409 . S
C477 H469 0.930 . S
C477 C475 1.419 . S
C477 C478 1.362 . S
C478 H470 0.930 . S
C478 C477 1.362 . S
C478 C481 1.409 . S
C479 H471 0.930 . S
C479 C480 1.355 . S
C479 C481 1.415 . S
C480 C479 1.355 . S
C480 C482 1.419 . S
C481 C476 1.425 . S
C481 C478 1.409 . S
C481 C479 1.415 . S
C482 H472 0.930 . S
C482 C480 1.419 . S
C482 C483 1.362 . S
C483 H473 0.930 . S
C483 C476 1.409 . S
C483 C482 1.362 . S
H484 C490 0.930 . S
H485 C493 0.930 . S
H486 C494 0.930 . S
H487 C495 0.930 . S
H488 C498 0.930 . S
H489 C499 0.930 . S
C490 H484 0.930 . S
C490 C491 1.355 . S
C490 C492 1.415 1_655 S
C491 C490 1.355 . S
C491 C493 1.419 . S
C492 C490 1.415 1_455 S
C492 C497 1.425 1_455 S
C492 C499 1.409 . S
C493 H485 0.930 . S
C493 C491 1.419 . S
C493 C494 1.362 . S
C494 H486 0.930 . S
C494 C493 1.362 . S
C494 C497 1.409 . S
C495 H487 0.930 . S
C495 C496 1.355 . S
C495 C497 1.415 1_455 S
C496 C495 1.355 . S
C496 C498 1.419 . S
C497 C492 1.425 1_655 S
C497 C494 1.409 . S
C497 C495 1.415 1_655 S
C498 H488 0.930 . S
C498 C496 1.419 . S
C498 C499 1.362 . S
C499 H489 0.930 . S
C499 C492 1.409 . S
C499 C498 1.362 . S
H500 C506 0.930 . S
H501 C509 0.930 . S
H502 C510 0.930 . S
H503 C511 0.930 . S
H504 C514 0.930 . S
H505 C515 0.930 . S
C506 H500 0.930 . S
C506 C507 1.355 . S
C506 C508 1.415 . S
C507 C506 1.355 . S
C507 C509 1.419 1_565 S
C508 C506 1.415 . S
C508 C513 1.425 1_565 S
C508 C515 1.409 . S
C509 H501 0.930 . S
C509 C507 1.419 1_545 S
C509 C510 1.362 . S
C510 H502 0.930 . S
C510 C509 1.362 . S
C510 C513 1.409 . S
C511 H503 0.930 . S
C511 C512 1.355 . S
C511 C513 1.415 . S
C512 C511 1.355 . S
C512 C514 1.419 1_545 S
C513 C508 1.425 1_545 S
C513 C510 1.409 . S
C513 C511 1.415 . S
C514 H504 0.930 . S
C514 C512 1.419 1_565 S
C514 C515 1.362 . S
C515 H505 0.930 . S
C515 C508 1.409 . S
C515 C514 1.362 . S
H516 C522 0.930 . S
H517 C525 0.930 . S
H518 C526 0.930 . S
H519 C527 0.930 . S
H520 C530 0.930 . S
H521 C531 0.930 . S
C522 H516 0.930 . S
C522 C523 1.355 . S
C522 C524 1.415 . S
C523 C522 1.355 . S
C523 C525 1.419 . S
C524 C522 1.415 . S
C524 C529 1.425 . S
C524 C531 1.409 . S
C525 H517 0.930 . S
C525 C523 1.419 . S
C525 C526 1.362 . S
C526 H518 0.930 . S
C526 C525 1.362 . S
C526 C529 1.409 . S
C527 H519 0.930 . S
C527 C528 1.355 . S
C527 C529 1.415 . S
C528 C527 1.355 . S
C528 C530 1.419 . S
C529 C524 1.425 . S
C529 C526 1.409 . S
C529 C527 1.415 . S
C530 H520 0.930 . S
C530 C528 1.419 . S
C530 C531 1.362 . S
C531 H521 0.930 . S
C531 C524 1.409 . S
C531 C530 1.362 . S
H532 C538 0.930 . S
H533 C541 0.930 . S
H534 C542 0.930 . S
H535 C543 0.930 . S
H536 C546 0.930 . S
H537 C547 0.930 . S
C538 H532 0.930 . S
C538 C539 1.355 . S
C538 C540 1.431 . S
C539 C538 1.355 . S
C539 C541 1.419 . S
C540 C538 1.431 . S
C540 C545 1.381 1_455 S
C540 C547 1.416 1_455 S
C541 H533 0.930 . S
C541 C539 1.419 . S
C541 C542 1.362 . S
C542 H534 0.930 . S
C542 C541 1.362 . S
C542 C545 1.416 1_455 S
C543 H535 0.930 . S
C543 C544 1.355 . S
C543 C545 1.431 . S
C544 C543 1.355 . S
C544 C546 1.419 . S
C545 C540 1.381 1_655 S
C545 C542 1.416 1_655 S
C545 C543 1.431 . S
C546 H536 0.930 . S
C546 C544 1.419 . S
C546 C547 1.362 . S
C547 H537 0.930 . S
C547 C540 1.416 1_655 S
C547 C546 1.362 . S
H548 C554 0.930 1_545 S
H549 C557 0.930 . S
H550 C558 0.930 . S
H551 C559 0.930 1_565 S
H552 C562 0.930 . S
H553 C563 0.930 . S
C554 H548 0.930 1_565 S
C554 C555 1.355 . S
C554 C556 1.415 1_565 S
C555 C554 1.355 . S
C555 C557 1.419 . S
C556 C554 1.415 1_545 S
C556 C561 1.425 1_545 S
C556 C563 1.409 . S
C557 H549 0.930 . S
C557 C555 1.419 . S
C557 C558 1.362 . S
C558 H550 0.930 . S
C558 C557 1.362 . S
C558 C561 1.409 . S
C559 H551 0.930 1_545 S
C559 C560 1.355 . S
C559 C561 1.415 1_545 S
C560 C559 1.355 . S
C560 C562 1.419 . S
C561 C556 1.425 1_565 S
C561 C558 1.409 . S
C561 C559 1.415 1_565 S
C562 H552 0.930 . S
C562 C560 1.419 . S
C562 C563 1.362 . S
C563 H553 0.930 . S
C563 C556 1.409 . S
C563 C562 1.362 . S
H564 C570 0.930 . S
H565 C573 0.930 . S
H566 C574 0.930 . S
H567 C575 0.930 . S
H568 C578 0.930 . S
H569 C579 0.930 . S
C570 H564 0.930 . S
C570 C571 1.355 . S
C570 C572 1.415 . S
C571 C570 1.355 . S
C571 C573 1.419 . S
C572 C570 1.415 . S
C572 C577 1.425 . S
C572 C579 1.409 . S
C573 H565 0.930 . S
C573 C571 1.419 . S
C573 C574 1.362 . S
C574 H566 0.930 . S
C574 C573 1.362 . S
C574 C577 1.409 . S
C575 H567 0.930 . S
C575 C576 1.355 . S
C575 C577 1.415 . S
C576 C575 1.355 . S
C576 C578 1.419 . S
C577 C572 1.425 . S
C577 C574 1.409 . S
C577 C575 1.415 . S
C578 H568 0.930 . S
C578 C576 1.419 . S
C578 C579 1.362 . S
C579 H569 0.930 . S
C579 C572 1.409 . S
C579 C578 1.362 . S
H580 C586 0.930 . S
H581 C589 0.930 . S
H582 C590 0.930 . S
H583 C591 0.930 . S
H584 C594 0.930 . S
H585 C595 0.930 . S
C586 H580 0.930 . S
C586 C587 1.355 1_455 S
C586 C588 1.415 . S
C587 C586 1.355 1_655 S
C587 C589 1.419 . S
C588 C586 1.415 . S
C588 C593 1.425 1_455 S
C588 C595 1.409 . S
C589 H581 0.930 . S
C589 C587 1.419 . S
C589 C590 1.362 . S
C590 H582 0.930 . S
C590 C589 1.362 . S
C590 C593 1.409 . S
C591 H583 0.930 . S
C591 C592 1.355 1_655 S
C591 C593 1.415 . S
C592 C591 1.355 1_455 S
C592 C594 1.419 . S
C593 C588 1.425 1_655 S
C593 C590 1.409 . S
C593 C591 1.415 . S
C594 H584 0.930 . S
C594 C592 1.419 . S
C594 C595 1.362 . S
C595 H585 0.930 . S
C595 C588 1.409 . S
C595 C594 1.362 . S
H596 C602 0.930 . S
H597 C605 0.930 . S
H598 C606 0.930 . S
H599 C607 0.930 . S
H600 C610 0.930 . S
H601 C611 0.930 . S
C602 H596 0.930 . S
C602 C603 1.355 . S
C602 C604 1.415 . S
C603 C602 1.355 . S
C603 C605 1.419 1_545 S
C604 C602 1.415 . S
C604 C609 1.425 1_545 S
C604 C611 1.409 . S
C605 H597 0.930 . S
C605 C603 1.419 1_565 S
C605 C606 1.362 . S
C606 H598 0.930 . S
C606 C605 1.362 . S
C606 C609 1.409 . S
C607 H599 0.930 . S
C607 C608 1.355 . S
C607 C609 1.415 . S
C608 C607 1.355 . S
C608 C610 1.419 1_565 S
C609 C604 1.425 1_565 S
C609 C606 1.409 . S
C609 C607 1.415 . S
C610 H600 0.930 . S
C610 C608 1.419 1_545 S
C610 C611 1.362 . S
C611 H601 0.930 . S
C611 C604 1.409 . S
C611 C610 1.362 . S
H612 C618 0.930 . S
H613 C621 0.930 . S
H614 C622 0.930 . S
H615 C623 0.930 . S
H616 C626 0.930 . S
H617 C627 0.930 . S
C618 H612 0.930 . S
C618 C619 1.355 . S
C618 C620 1.415 . S
C619 C618 1.355 . S
C619 C621 1.419 . S
C620 C618 1.415 . S
C620 C625 1.425 . S
C620 C627 1.409 . S
C621 H613 0.930 . S
C621 C619 1.419 . S
C621 C622 1.362 . S
C622 H614 0.930 . S
C622 C621 1.362 . S
C622 C625 1.409 . S
C623 H615 0.930 . S
C623 C624 1.355 . S
C623 C625 1.415 . S
C624 C623 1.355 . S
C624 C626 1.419 . S
C625 C620 1.425 . S
C625 C622 1.409 . S
C625 C623 1.415 . S
C626 H616 0.930 . S
C626 C624 1.419 . S
C626 C627 1.362 . S
C627 H617 0.930 . S
C627 C620 1.409 . S
C627 C626 1.362 . S
H628 C634 0.930 . S
H629 C637 0.930 . S
H630 C638 0.930 . S
H631 C639 0.930 . S
H632 C642 0.930 . S
H633 C643 0.930 . S
C634 H628 0.930 . S
C634 C635 1.355 1_655 S
C634 C636 1.415 . S
C635 C634 1.355 1_455 S
C635 C637 1.419 . S
C636 C634 1.415 . S
C636 C641 1.425 1_655 S
C636 C643 1.409 . S
C637 H629 0.930 . S
C637 C635 1.419 . S
C637 C638 1.362 . S
C638 H630 0.930 . S
C638 C637 1.362 . S
C638 C641 1.409 . S
C639 H631 0.930 . S
C639 C640 1.355 1_455 S
C639 C641 1.415 . S
C640 C639 1.355 1_655 S
C640 C642 1.419 . S
C641 C636 1.425 1_455 S
C641 C638 1.409 . S
C641 C639 1.415 . S
C642 H632 0.930 . S
C642 C640 1.419 . S
C642 C643 1.362 . S
C643 H633 0.930 . S
C643 C636 1.409 . S
C643 C642 1.362 . S
H644 C650 0.930 . S
H645 C653 0.930 . S
H646 C654 0.930 . S
H647 C655 0.930 . S
H648 C658 0.930 . S
H649 C659 0.930 . S
C650 H644 0.930 . S
C650 C651 1.355 . S
C650 C652 1.415 . S
C651 C650 1.355 . S
C651 C653 1.419 1_565 S
C652 C650 1.415 . S
C652 C657 1.425 1_565 S
C652 C659 1.409 . S
C653 H645 0.930 . S
C653 C651 1.419 1_545 S
C653 C654 1.362 . S
C654 H646 0.930 . S
C654 C653 1.362 . S
C654 C657 1.409 . S
C655 H647 0.930 . S
C655 C656 1.355 . S
C655 C657 1.415 . S
C656 C655 1.355 . S
C656 C658 1.419 1_545 S
C657 C652 1.425 1_545 S
C657 C654 1.409 . S
C657 C655 1.415 . S
C658 H648 0.930 . S
C658 C656 1.419 1_565 S
C658 C659 1.362 . S
C659 H649 0.930 . S
C659 C652 1.409 . S
C659 C658 1.362 . S
C283 C16 1.529 . S
C288 C223 1.522 . S
C299 C39 1.516 . S
C304 C246 1.482 . S
C315 C62 1.510 . S
C320 C269 1.531 . S
C331 C85 1.523 . S
C336 C154 1.490 . S
C347 C177 1.516 . S
C352 C108 1.483 . S
C363 C200 1.480 . S
C368 C131 1.475 . S
C379 N242 2.129 . S
C384 N12 2.123 . S
C395 N35 2.157 . S
C400 N265 2.155 . S
C411 N58 2.152 . S
C416 N150 2.128 . S
C427 N81 2.159 . S
C432 N173 2.153 . S
C443 N104 2.145 . S
C448 N196 2.123 . S
C459 N127 2.126 . S
C464 N219 2.126 . S
C475 C214 1.605 . S
C480 C7 1.619 . S
C491 C30 1.589 . S
C496 C237 1.605 . S
C507 C53 1.591 . S
C512 C260 1.579 . S
C523 C145 1.587 . S
C528 C76 1.604 . S
C539 C99 1.616 . S
C544 C168 1.601 . S
C555 C191 1.596 . S
C560 C122 1.612 . S
C571 N2 2.113 . S
C576 N71 2.149 . S
C587 N94 2.120 . S
C592 N25 2.151 . S
C603 N48 2.070 . S
C608 N117 2.067 . S
C619 N140 2.096 . S
C624 N209 2.063 . S
C635 N163 2.152 . S
C640 N232 2.132 . S
C651 N255 2.117 . S
C656 N186 2.073 . S
