# Generated by pormake.
# Topology skc, (5)-cn, num edge types: 1
# Building blocks:
#     Node 0, Type 0, BuildingBlock: BEQFEK_clean_sbu_0, # of connection points: 5
#     Node 1, Type 0, BuildingBlock: BEQFEK_clean_sbu_0, # of connection points: 5
#     Node 2, Type 0, BuildingBlock: BEQFEK_clean_sbu_0, # of connection points: 5
#     Node 3, Type 0, BuildingBlock: BEQFEK_clean_sbu_0, # of connection points: 5
#     Node 4, Type 0, BuildingBlock: BEQFEK_clean_sbu_0, # of connection points: 5
#     Node 5, Type 0, BuildingBlock: BEQFEK_clean_sbu_0, # of connection points: 5
#     Node 6, Type 0, BuildingBlock: BEQFEK_clean_sbu_0, # of connection points: 5
#     Node 7, Type 0, BuildingBlock: BEQFEK_clean_sbu_0, # of connection points: 5
#     Edge 8, Type (0, 0), BuildingBlock: XUDNAN_clean_linker_2, # of connection points: 2
#     Edge 9, Type (0, 0), BuildingBlock: XUDNAN_clean_linker_2, # of connection points: 2
#     Edge 10, Type (0, 0), BuildingBlock: XUDNAN_clean_linker_2, # of connection points: 2
#     Edge 11, Type (0, 0), BuildingBlock: XUDNAN_clean_linker_2, # of connection points: 2
#     Edge 12, Type (0, 0), BuildingBlock: XUDNAN_clean_linker_2, # of connection points: 2
#     Edge 13, Type (0, 0), BuildingBlock: XUDNAN_clean_linker_2, # of connection points: 2
#     Edge 14, Type (0, 0), BuildingBlock: XUDNAN_clean_linker_2, # of connection points: 2
#     Edge 15, Type (0, 0), BuildingBlock: XUDNAN_clean_linker_2, # of connection points: 2
#     Edge 16, Type (0, 0), BuildingBlock: XUDNAN_clean_linker_2, # of connection points: 2
#     Edge 17, Type (0, 0), BuildingBlock: XUDNAN_clean_linker_2, # of connection points: 2
#     Edge 18, Type (0, 0), BuildingBlock: XUDNAN_clean_linker_2, # of connection points: 2
#     Edge 19, Type (0, 0), BuildingBlock: XUDNAN_clean_linker_2, # of connection points: 2
#     Edge 20, Type (0, 0), BuildingBlock: XUDNAN_clean_linker_2, # of connection points: 2
#     Edge 21, Type (0, 0), BuildingBlock: XUDNAN_clean_linker_2, # of connection points: 2
#     Edge 22, Type (0, 0), BuildingBlock: XUDNAN_clean_linker_2, # of connection points: 2
#     Edge 23, Type (0, 0), BuildingBlock: XUDNAN_clean_linker_2, # of connection points: 2
#     Edge 24, Type (0, 0), BuildingBlock: XUDNAN_clean_linker_2, # of connection points: 2
#     Edge 25, Type (0, 0), BuildingBlock: XUDNAN_clean_linker_2, # of connection points: 2
#     Edge 26, Type (0, 0), BuildingBlock: XUDNAN_clean_linker_2, # of connection points: 2
#     Edge 27, Type (0, 0), BuildingBlock: XUDNAN_clean_linker_2, # of connection points: 2
# Relax obj value: 0.153
# Max RMSD: 0.194
# Mean RMSD: 0.194
data_MOF--net-skc--node1-BEQFEK_clean_sbu_0--edge1-XUDNAN_clean_linker_2
_symmetry_space_group_name_H-M    P1
_symmetry_Int_Tables_number       1
_symmetry_cell_setting            triclinic
loop_
_symmetry_equiv_pos_as_xyz
'x, y, z'
_cell_length_a     46.266412
_cell_length_b     22.189228
_cell_length_c     24.713587
_cell_angle_alpha  89.938898
_cell_angle_beta   89.444591
_cell_angle_gamma 90.0381
loop_
_atom_site_label
_atom_site_type_symbol
_atom_site_fract_x
_atom_site_fract_y
_atom_site_fract_z
_atom_type_partial_charge
Co0 Co 0.05752 0.18605 0.1299 0.0
Co1 Co 0.09667 0.22089 0.02915 0.0
C2 C 0.05345 0.12064 0.02369 0.0
O3 O 0.04556 0.12906 0.07261 0.0
O4 O 0.07386 0.1515 0.0025 0.0
C5 C 0.01936 0.1226 0.20462 0.0
O6 O 0.01164 0.09162 0.16188 0.0
C7 C 0.14436 0.20983 0.94909 0.0
C8 C 0.14827 0.30371 0.92005 0.0
C9 C 0.16009 0.24674 0.91391 0.0
N10 N 0.12455 0.2438 0.97508 0.0
N11 N 0.12693 0.29976 0.95726 0.0
C12 C 0.14692 0.14305 0.95623 0.0
H13 H 0.12627 0.12382 0.9714 0.0
H14 H 0.1638 0.13317 0.98652 0.0
H15 H 0.15315 0.12121 0.91744 0.0
C16 C 0.11391 0.18921 0.1835 0.0
N17 N 0.09806 0.18993 0.13815 0.0
N18 N 0.11457 0.20617 0.09697 0.0
C19 C 0.14151 0.21706 0.11514 0.0
C20 C 0.14193 0.20664 0.17058 0.0
C21 C 0.10185 0.1756 0.23859 0.0
H22 H 0.0888 0.13369 0.237 0.0
H23 H 0.11922 0.16987 0.2688 0.0
H24 H 0.08738 0.21291 0.25146 0.0
O25 O 0.04267 0.26674 0.10955 0.0
O26 O 0.06898 0.28844 0.03619 0.0
H27 H 0.15609 0.28367 0.05825 0.0
H28 H 0.18287 0.26258 0.10737 0.0
C29 C 0.16502 0.24564 0.08188 0.0
H30 H 0.17389 0.21196 0.05314 0.0
H31 H 0.11407 0.33544 0.97076 0.0
O32 O 0.03843 0.16362 0.19964 0.0
C33 C 0.04894 0.3013 0.06993 0.0
Co34 Co 0.92115 0.77587 0.13443 0.0
Co35 Co 0.88561 0.75363 0.02894 0.0
C36 C 0.93504 0.84218 0.03218 0.0
O37 O 0.93985 0.83258 0.0822 0.0
O38 O 0.91441 0.81571 0.008 0.0
C39 C 0.94947 0.83045 0.22956 0.0
O40 O 0.94885 0.88307 0.20519 0.0
C41 C 0.84427 0.7812 0.94208 0.0
C42 C 0.83362 0.68945 0.91377 0.0
C43 C 0.82718 0.74974 0.90567 0.0
N44 N 0.85962 0.74104 0.97074 0.0
N45 N 0.85335 0.68639 0.95322 0.0
C46 C 0.8471 0.84805 0.94825 0.0
H47 H 0.86866 0.85989 0.96419 0.0
H48 H 0.83062 0.86453 0.97754 0.0
H49 H 0.84373 0.87104 0.90889 0.0
C50 C 0.86186 0.79554 0.17925 0.0
N51 N 0.88024 0.784 0.13783 0.0
N52 N 0.86525 0.77253 0.09404 0.0
C53 C 0.83683 0.77528 0.10648 0.0
C54 C 0.83368 0.79049 0.16074 0.0
C55 C 0.87134 0.81244 0.23491 0.0
H56 H 0.88794 0.84839 0.23206 0.0
H57 H 0.85304 0.82865 0.26028 0.0
H58 H 0.88138 0.77269 0.25448 0.0
O59 O 0.93214 0.69274 0.11189 0.0
O60 O 0.90735 0.67819 0.03665 0.0
H61 H 0.81978 0.71831 0.04433 0.0
H62 H 0.79295 0.74639 0.09116 0.0
C63 C 0.81312 0.75784 0.06875 0.0
H64 H 0.80857 0.79592 0.0411 0.0
H65 H 0.8622 0.64687 0.96882 0.0
O66 O 0.9385 0.78457 0.20679 0.0
C67 C 0.92536 0.66013 0.0716 0.0
Co68 Co 0.08973 0.78765 0.66344 0.0
Co69 Co 0.13191 0.75635 0.75845 0.0
C70 C 0.08477 0.84906 0.7709 0.0
O71 O 0.07606 0.84111 0.72259 0.0
O72 O 0.10678 0.82124 0.78914 0.0
C73 C 0.05599 0.84362 0.57228 0.0
O74 O 0.05775 0.89796 0.59304 0.0
C75 C 0.18018 0.76937 0.83619 0.0
C76 C 0.18892 0.67358 0.85426 0.0
C77 C 0.19804 0.73153 0.86603 0.0
N78 N 0.1617 0.73497 0.80794 0.0
N79 N 0.16704 0.67785 0.81916 0.0
C80 C 0.17963 0.83678 0.8359 0.0
H81 H 0.15815 0.85348 0.82325 0.0
H82 H 0.19595 0.85372 0.80642 0.0
H83 H 0.1849 0.85472 0.87654 0.0
C84 C 0.14497 0.79805 0.60377 0.0
N85 N 0.13005 0.79189 0.65048 0.0
N86 N 0.14794 0.77671 0.68926 0.0
C87 C 0.17489 0.77219 0.6681 0.0
C88 C 0.17388 0.78548 0.61311 0.0
C89 C 0.13136 0.81232 0.55059 0.0
H90 H 0.11812 0.77336 0.53748 0.0
H91 H 0.11686 0.85173 0.55542 0.0
H92 H 0.14784 0.82265 0.519 0.0
O93 O 0.07887 0.70495 0.68421 0.0
O94 O 0.10709 0.68359 0.75357 0.0
H95 H 0.19385 0.7049 0.7187 0.0
H96 H 0.21891 0.73853 0.67106 0.0
C97 C 0.20018 0.74744 0.69821 0.0
H98 H 0.20674 0.78017 0.72963 0.0
H99 H 0.15582 0.64162 0.80256 0.0
O100 O 0.06787 0.79934 0.59593 0.0
C101 C 0.08692 0.66936 0.72142 0.0
Co102 Co 0.92457 0.24023 0.65378 0.0
Co103 Co 0.88838 0.28429 0.75465 0.0
C104 C 0.92004 0.17001 0.75986 0.0
O105 O 0.93022 0.17983 0.71251 0.0
O106 O 0.90149 0.20518 0.7815 0.0
C107 C 0.93282 0.15691 0.56646 0.0
O108 O 0.91257 0.12625 0.59201 0.0
C109 C 0.84257 0.30324 0.83898 0.0
C110 C 0.84371 0.40259 0.84425 0.0
C111 C 0.82904 0.35241 0.86365 0.0
N112 N 0.86373 0.32409 0.80605 0.0
N113 N 0.86453 0.38337 0.81027 0.0
C114 C 0.83425 0.23818 0.84275 0.0
H115 H 0.84408 0.21218 0.80894 0.0
H116 H 0.81038 0.23326 0.84209 0.0
H117 H 0.84224 0.21937 0.88143 0.0
C118 C 0.86899 0.26564 0.59927 0.0
N119 N 0.88529 0.26161 0.64403 0.0
N120 N 0.86972 0.27806 0.68635 0.0
C121 C 0.84272 0.29141 0.66995 0.0
C122 C 0.84137 0.28411 0.61415 0.0
C123 C 0.88036 0.25776 0.54278 0.0
H124 H 0.90324 0.27236 0.54018 0.0
H125 H 0.87898 0.20951 0.53143 0.0
H126 H 0.86751 0.2843 0.5135 0.0
O127 O 0.94692 0.31206 0.67333 0.0
O128 O 0.92354 0.33655 0.74917 0.0
H129 H 0.82255 0.35296 0.7251 0.0
H130 H 0.79724 0.30813 0.68687 0.0
C131 C 0.8184 0.30788 0.70744 0.0
H132 H 0.81722 0.2746 0.74068 0.0
H133 H 0.87872 0.41099 0.78839 0.0
O134 O 0.94132 0.20672 0.58607 0.0
C135 C 0.94426 0.3444 0.71553 0.0
Co136 Co 0.57819 0.72122 0.63759 0.0
Co137 Co 0.61212 0.75907 0.53132 0.0
C138 C 0.57721 0.64746 0.53416 0.0
O139 O 0.56956 0.65875 0.58277 0.0
O140 O 0.59532 0.681 0.50911 0.0
C141 C 0.56906 0.64113 0.72754 0.0
O142 O 0.58664 0.60567 0.70027 0.0
C143 C 0.65525 0.76952 0.44035 0.0
C144 C 0.65141 0.8669 0.42308 0.0
C145 C 0.66571 0.81516 0.40672 0.0
N146 N 0.6358 0.79365 0.47508 0.0
N147 N 0.63376 0.85185 0.4644 0.0
C148 C 0.6624 0.70385 0.43765 0.0
H149 H 0.66428 0.68913 0.39484 0.0
H150 H 0.64574 0.67674 0.45913 0.0
H151 H 0.68351 0.69591 0.45727 0.0
C152 C 0.63543 0.74613 0.68489 0.0
N153 N 0.61807 0.73958 0.64186 0.0
N154 N 0.63255 0.75408 0.59756 0.0
C155 C 0.65979 0.76926 0.61107 0.0
C156 C 0.66239 0.76484 0.66674 0.0
C157 C 0.62608 0.73611 0.74237 0.0
H158 H 0.62439 0.68699 0.74997 0.0
H159 H 0.64172 0.75504 0.77149 0.0
H160 H 0.60453 0.75665 0.74945 0.0
O161 O 0.55649 0.79402 0.6169 0.0
O162 O 0.57875 0.8149 0.53897 0.0
H163 H 0.67371 0.83339 0.55168 0.0
H164 H 0.70258 0.80402 0.59269 0.0
C165 C 0.68209 0.79256 0.57212 0.0
H166 H 0.68646 0.75792 0.54087 0.0
H167 H 0.62012 0.88144 0.48525 0.0
O168 O 0.56272 0.69254 0.70825 0.0
C169 C 0.5589 0.82517 0.57381 0.0
Co170 Co 0.41023 0.26756 0.62279 0.0
Co171 Co 0.37232 0.23722 0.52197 0.0
C172 C 0.41829 0.33354 0.51866 0.0
O173 O 0.42555 0.324 0.56753 0.0
O174 O 0.39738 0.30513 0.49704 0.0
C175 C 0.44147 0.32606 0.71318 0.0
O176 O 0.44584 0.37431 0.68337 0.0
C177 C 0.32539 0.25341 0.44308 0.0
C178 C 0.32118 0.16083 0.41121 0.0
C179 C 0.30962 0.21823 0.4073 0.0
N180 N 0.34501 0.21802 0.46729 0.0
N181 N 0.34248 0.16288 0.44776 0.0
C182 C 0.32306 0.31986 0.45247 0.0
H183 H 0.34388 0.33809 0.46721 0.0
H184 H 0.30634 0.32876 0.48387 0.0
H185 H 0.31675 0.34336 0.41472 0.0
C186 C 0.35303 0.27144 0.67542 0.0
N187 N 0.36949 0.26883 0.63029 0.0
N188 N 0.3533 0.253 0.58921 0.0
C189 C 0.32598 0.24392 0.60733 0.0
C190 C 0.32495 0.25547 0.66259 0.0
C191 C 0.36449 0.28442 0.73062 0.0
H192 H 0.37843 0.32507 0.72895 0.0
H193 H 0.34676 0.2921 0.76038 0.0
H194 H 0.37782 0.24583 0.74423 0.0
O195 O 0.42318 0.18607 0.60204 0.0
O196 O 0.39779 0.16587 0.52852 0.0
H197 H 0.31158 0.17832 0.54986 0.0
H198 H 0.28481 0.19798 0.60063 0.0
C199 C 0.30256 0.21563 0.57455 0.0
H200 H 0.29345 0.2498 0.54683 0.0
H201 H 0.3551 0.1264 0.45984 0.0
O202 O 0.42788 0.28136 0.69388 0.0
C203 C 0.4169 0.15148 0.56287 0.0
Co204 Co 0.57435 0.28416 0.15022 0.0
Co205 Co 0.61777 0.25804 0.24369 0.0
C206 C 0.5669 0.34272 0.25715 0.0
O207 O 0.55982 0.33735 0.20775 0.0
O208 O 0.58864 0.31462 0.27621 0.0
C209 C 0.54213 0.34175 0.06005 0.0
O210 O 0.55068 0.39548 0.07541 0.0
C211 C 0.66206 0.28204 0.3264 0.0
C212 C 0.67958 0.19045 0.33834 0.0
C213 C 0.68254 0.24958 0.35564 0.0
N214 N 0.64804 0.24355 0.29379 0.0
N215 N 0.65854 0.18893 0.30135 0.0
C216 C 0.65671 0.34852 0.32615 0.0
H217 H 0.64488 0.36185 0.28914 0.0
H218 H 0.67745 0.37355 0.32804 0.0
H219 H 0.64321 0.36069 0.36183 0.0
C220 C 0.62925 0.31074 0.09125 0.0
N221 N 0.61443 0.29523 0.13634 0.0
N222 N 0.63279 0.28527 0.17573 0.0
C223 C 0.65995 0.29417 0.15681 0.0
C224 C 0.65857 0.31085 0.10265 0.0
C225 C 0.61565 0.3215 0.03739 0.0
H226 H 0.59847 0.28764 0.03038 0.0
H227 H 0.60568 0.36693 0.03717 0.0
H228 H 0.63179 0.3188 0.00397 0.0
O229 O 0.56584 0.20049 0.17257 0.0
O230 O 0.59867 0.17897 0.23445 0.0
H231 H 0.68782 0.24201 0.20706 0.0
H232 H 0.70649 0.29866 0.16719 0.0
C233 C 0.68651 0.28839 0.1905 0.0
H234 H 0.68504 0.32011 0.22496 0.0
H235 H 0.65147 0.15061 0.28093 0.0
O236 O 0.55056 0.29509 0.08521 0.0
C237 C 0.57733 0.16382 0.20549 0.0
Co238 Co 0.44293 0.68056 0.1615 0.0
Co239 Co 0.40619 0.73841 0.25642 0.0
C240 C 0.44249 0.62495 0.26971 0.0
O241 O 0.45018 0.62278 0.22018 0.0
O242 O 0.42591 0.66642 0.28761 0.0
C243 C 0.48268 0.617 0.09064 0.0
O244 O 0.49284 0.59376 0.13552 0.0
C245 C 0.35699 0.73765 0.33285 0.0
C246 C 0.35571 0.83227 0.36042 0.0
C247 C 0.34163 0.77738 0.36585 0.0
N248 N 0.3787 0.768 0.30852 0.0
N249 N 0.37792 0.82443 0.32551 0.0
C250 C 0.35211 0.67138 0.32599 0.0
H251 H 0.37247 0.64854 0.31403 0.0
H252 H 0.33622 0.66378 0.2934 0.0
H253 H 0.34352 0.65119 0.364 0.0
C254 C 0.38718 0.69359 0.10568 0.0
N255 N 0.40313 0.696 0.15092 0.0
N256 N 0.38778 0.72133 0.18984 0.0
C257 C 0.36166 0.73654 0.1702 0.0
C258 C 0.3604 0.71888 0.11651 0.0
C259 C 0.39832 0.67226 0.052 0.0
H260 H 0.41523 0.70385 0.03716 0.0
H261 H 0.40841 0.62725 0.05675 0.0
H262 H 0.38078 0.66962 0.02175 0.0
O263 O 0.46339 0.75526 0.18153 0.0
O264 O 0.43646 0.80088 0.24445 0.0
H265 H 0.35071 0.81121 0.22146 0.0
H266 H 0.32354 0.79318 0.17182 0.0
C267 C 0.33977 0.77403 0.1998 0.0
H268 H 0.32829 0.74562 0.22998 0.0
H269 H 0.39238 0.85783 0.31279 0.0
O270 O 0.4613 0.6529 0.09306 0.0
C271 C 0.45875 0.79897 0.21379 0.0
H272 H 0.02321 0.37519 0.14517 0.0
H273 H 0.03415 0.34777 0.97235 0.0
H274 H 0.00152 0.4334 0.95452 0.0
H275 H 0.94866 0.4202 0.14482 0.0
H276 H 0.95293 0.4777 0.19559 0.0
H277 H 0.97635 0.41287 0.19524 0.0
H278 H 0.02127 0.4826 0.19073 0.0
H279 H 0.998 0.54762 0.19162 0.0
H280 H 0.0241 0.53817 0.13766 0.0
H281 H 0.9661 0.51806 0.95545 0.0
H282 H 0.93569 0.60694 0.97424 0.0
H283 H 0.95088 0.58572 0.14631 0.0
C284 C 0.01869 0.38739 0.10365 0.0
C285 C 0.03099 0.3549 0.06007 0.0
C286 C 0.02499 0.3724 0.00624 0.0
C287 C 0.00635 0.42061 0.99573 0.0
C288 C 0.99434 0.45142 0.03955 0.0
C289 C 1.00069 0.43642 0.09241 0.0
C290 C 0.98616 0.47921 0.13193 0.0
C291 C 0.96476 0.44546 0.16908 0.0
C292 C 0.00873 0.51396 0.16492 0.0
C293 C 0.97054 0.52034 0.09297 0.0
C294 C 0.97516 0.50273 0.03996 0.0
C295 C 0.96248 0.53263 0.99674 0.0
C296 C 0.94511 0.58281 0.00788 0.0
C297 C 0.94102 0.60323 0.06171 0.0
C298 C 0.95375 0.57122 0.10478 0.0
H299 H 0.9741 0.41405 0.64289 0.0
H300 H 0.96443 0.37723 0.8145 0.0
H301 H 0.00336 0.45031 0.83412 0.0
H302 H 0.05153 0.43716 0.63946 0.0
H303 H 0.04977 0.49876 0.592 0.0
H304 H 0.02264 0.44049 0.59112 0.0
H305 H 0.98236 0.52078 0.60264 0.0
H306 H 0.00933 0.57924 0.60296 0.0
H307 H 0.98396 0.57285 0.65849 0.0
H308 H 0.04391 0.5263 0.8345 0.0
H309 H 0.07772 0.61072 0.81729 0.0
H310 H 0.05795 0.60322 0.64617 0.0
C311 C 0.98034 0.42122 0.68452 0.0
C312 C 0.96654 0.38989 0.72721 0.0
C313 C 0.97479 0.40105 0.7813 0.0
C314 C 0.997 0.44202 0.79276 0.0
C315 C 0.01035 0.47199 0.74967 0.0
C316 C 0.00196 0.46295 0.69674 0.0
C317 C 0.01814 0.5043 0.65826 0.0
C318 C 0.03661 0.46799 0.61783 0.0
C319 C 0.9972 0.54682 0.62888 0.0
C320 C 0.03685 0.53821 0.69782 0.0
C321 C 0.03251 0.51804 0.7502 0.0
C322 C 0.04744 0.54258 0.79368 0.0
C323 C 0.06672 0.59019 0.78349 0.0
C324 C 0.07036 0.61339 0.73046 0.0
C325 C 0.05554 0.58633 0.68712 0.0
H326 H 0.5289 0.89567 0.64595 0.0
H327 H 0.53969 0.85875 0.47456 0.0
H328 H 0.50155 0.93285 0.45375 0.0
H329 H 0.45159 0.92037 0.64662 0.0
H330 H 0.45311 0.98189 0.69408 0.0
H331 H 0.47998 0.9232 0.69601 0.0
H332 H 0.52068 0.00291 0.68589 0.0
H333 H 0.49396 0.0618 0.68445 0.0
H334 H 0.51989 0.05502 0.6299 0.0
H335 H 0.46173 0.00937 0.45171 0.0
H336 H 0.42778 0.0936 0.4674 0.0
H337 H 0.44552 0.08601 0.63942 0.0
C338 C 0.52309 0.90309 0.60411 0.0
C339 C 0.53703 0.8714 0.56184 0.0
C340 C 0.52928 0.88283 0.50749 0.0
C341 C 0.50751 0.92441 0.49531 0.0
C342 C 0.49404 0.95472 0.53792 0.0
C343 C 0.50185 0.94542 0.59114 0.0
C344 C 0.48544 0.98701 0.62897 0.0
C345 C 0.4664 0.95095 0.66876 0.0
C346 C 0.50623 0.02919 0.65905 0.0
C347 C 0.46728 0.02125 0.58866 0.0
C348 C 0.47214 0.0011 0.53648 0.0
C349 C 0.45778 0.02569 0.49236 0.0
C350 C 0.43843 0.07323 0.5017 0.0
C351 C 0.43412 0.0963 0.55457 0.0
C352 C 0.44848 0.06932 0.59857 0.0
H353 H 0.45044 0.92103 0.21971 0.0
H354 H 0.51676 0.78315 0.21469 0.0
H355 H 0.55461 0.8617 0.21805 0.0
H356 H 0.48674 0.02116 0.13036 0.0
H357 H 0.475 0.08883 0.16432 0.0
H358 H 0.4531 0.02185 0.1678 0.0
H359 H 0.45401 0.02595 0.27261 0.0
H360 H 0.47591 0.09307 0.26946 0.0
H361 H 0.48824 0.02833 0.30678 0.0
H362 H 0.58518 0.95513 0.22202 0.0
H363 H 0.6064 0.05759 0.21603 0.0
H364 H 0.52032 0.13414 0.20872 0.0
C365 C 0.47294 0.90763 0.22011 0.0
C366 C 0.48085 0.84638 0.21745 0.0
C367 C 0.51043 0.8301 0.21676 0.0
C368 C 0.53202 0.87427 0.21895 0.0
C369 C 0.52361 0.93446 0.22092 0.0
C370 C 0.49481 0.95128 0.22083 0.0
C371 C 0.49168 0.01913 0.21855 0.0
C372 C 0.47569 0.03888 0.1672 0.0
C373 C 0.47657 0.04301 0.26991 0.0
C374 C 0.52317 0.03766 0.21656 0.0
C375 C 0.54125 0.98824 0.21933 0.0
C376 C 0.57127 0.9942 0.21949 0.0
C377 C 0.58311 0.05231 0.21613 0.0
C378 C 0.56493 0.10315 0.21122 0.0
C379 C 0.53464 0.09567 0.21164 0.0
H380 H 0.29545 0.17161 0.3093 0.0
H381 H 0.26542 0.29687 0.43219 0.0
H382 H 0.22081 0.31369 0.38069 0.0
H383 H 0.26362 0.24976 0.19164 0.0
H384 H 0.25429 0.17988 0.15904 0.0
H385 H 0.28542 0.18354 0.20222 0.0
H386 H 0.26488 0.09522 0.25956 0.0
H387 H 0.23363 0.09157 0.21692 0.0
H388 H 0.22918 0.10149 0.2889 0.0
H389 H 0.17736 0.30884 0.32079 0.0
H390 H 0.139 0.28516 0.25496 0.0
H391 H 0.19694 0.16243 0.17152 0.0
C392 C 0.27975 0.2036 0.32476 0.0
C393 C 0.28431 0.23417 0.37406 0.0
C394 C 0.26303 0.27473 0.39356 0.0
C395 C 0.23742 0.28409 0.3648 0.0
C396 C 0.23346 0.25261 0.31666 0.0
C397 C 0.25415 0.21352 0.29653 0.0
C398 C 0.24392 0.18244 0.24563 0.0
C399 C 0.26295 0.19997 0.19674 0.0
C400 C 0.24284 0.11362 0.25325 0.0
C401 C 0.21391 0.20887 0.24107 0.0
C402 C 0.20836 0.24953 0.28226 0.0
C403 C 0.18157 0.2776 0.28807 0.0
C404 C 0.15991 0.26365 0.25083 0.0
C405 C 0.16519 0.22197 0.20862 0.0
C406 C 0.19258 0.19477 0.20337 0.0
H407 H 0.71714 0.75162 0.40047 0.0
H408 H 0.66281 0.87604 0.31198 0.0
H409 H 0.69947 0.88146 0.23906 0.0
H410 H 0.78352 0.82288 0.36895 0.0
H411 H 0.80411 0.75437 0.36188 0.0
H412 H 0.77283 0.75618 0.40578 0.0
H413 H 0.7504 0.66639 0.35404 0.0
H414 H 0.78181 0.66376 0.31039 0.0
H415 H 0.74631 0.67115 0.28169 0.0
H416 H 0.7424 0.8773 0.17779 0.0
H417 H 0.7892 0.86225 0.1307 0.0
H418 H 0.81628 0.74057 0.25786 0.0
C419 C 0.71261 0.77857 0.36507 0.0
C420 C 0.68687 0.81262 0.36143 0.0
C421 C 0.68231 0.84935 0.3154 0.0
C422 C 0.70298 0.85269 0.27376 0.0
C423 C 0.72826 0.81928 0.27881 0.0
C424 C 0.73319 0.78274 0.32311 0.0
C425 C 0.76282 0.75361 0.3193 0.0
C426 C 0.78194 0.77294 0.36681 0.0
C427 C 0.76017 0.68463 0.31615 0.0
C428 C 0.77377 0.77991 0.26622 0.0
C429 C 0.75338 0.8175 0.24355 0.0
C430 C 0.75848 0.84769 0.19494 0.0
C431 C 0.78506 0.83889 0.1685 0.0
C432 C 0.80622 0.80039 0.19072 0.0
C433 C 0.80051 0.77067 0.2403 0.0
H434 H 0.32619 0.83006 0.46195 0.0
H435 H 0.29556 0.70449 0.34081 0.0
H436 H 0.25052 0.69017 0.39303 0.0
H437 H 0.29487 0.75438 0.5795 0.0
H438 H 0.28522 0.82368 0.61306 0.0
H439 H 0.31595 0.82158 0.56775 0.0
H440 H 0.29413 0.90905 0.51193 0.0
H441 H 0.26332 0.91135 0.55697 0.0
H442 H 0.25816 0.90154 0.48532 0.0
H443 H 0.20807 0.69191 0.45635 0.0
H444 H 0.17089 0.70988 0.52701 0.0
H445 H 0.22797 0.83609 0.60655 0.0
C446 C 0.31011 0.79906 0.44675 0.0
C447 C 0.31488 0.76684 0.39811 0.0
C448 C 0.29309 0.7276 0.37904 0.0
C449 C 0.2672 0.71974 0.40815 0.0
C450 C 0.26329 0.75178 0.4561 0.0
C451 C 0.2841 0.7907 0.47534 0.0
C452 C 0.27406 0.82107 0.52719 0.0
C453 C 0.2937 0.80415 0.57468 0.0
C454 C 0.27231 0.88983 0.51989 0.0
C455 C 0.24425 0.79345 0.5338 0.0
C456 C 0.23854 0.75353 0.49233 0.0
C457 C 0.2123 0.72302 0.48903 0.0
C458 C 0.1913 0.73367 0.52911 0.0
C459 C 0.19662 0.77456 0.57176 0.0
C460 C 0.2235 0.80452 0.57431 0.0
H461 H 0.82279 0.20809 0.53534 0.0
H462 H 0.80367 0.3795 0.6116 0.0
H463 H 0.7608 0.39113 0.55317 0.0
H464 H 0.80332 0.25516 0.39953 0.0
H465 H 0.78882 0.18234 0.38222 0.0
H466 H 0.81761 0.18805 0.43051 0.0
H467 H 0.78645 0.12988 0.501 0.0
H468 H 0.75755 0.12422 0.45305 0.0
H469 H 0.75094 0.15754 0.51849 0.0
H470 H 0.71827 0.37995 0.48951 0.0
H471 H 0.68169 0.35066 0.42297 0.0
H472 H 0.73213 0.19161 0.38255 0.0
C473 C 0.80977 0.24841 0.5393 0.0
C474 C 0.81624 0.29257 0.57833 0.0
C475 C 0.79863 0.34453 0.58265 0.0
C476 C 0.77441 0.35169 0.54942 0.0
C477 C 0.7685 0.30693 0.51155 0.0
C478 C 0.78591 0.25667 0.50595 0.0
C479 C 0.77515 0.21534 0.46194 0.0
C480 C 0.79756 0.20993 0.41581 0.0
C481 C 0.76704 0.15308 0.48502 0.0
C482 C 0.7487 0.24972 0.44407 0.0
C483 C 0.74509 0.30228 0.47318 0.0
C484 C 0.72127 0.33963 0.4655 0.0
C485 C 0.70069 0.32291 0.42684 0.0
C486 C 0.70431 0.26978 0.39567 0.0
C487 C 0.72873 0.23298 0.40492 0.0
H488 H 0.81126 0.6998 0.81013 0.0
H489 H 0.79028 0.84616 0.9199 0.0
H490 H 0.74915 0.87415 0.86282 0.0
H491 H 0.7876 0.77425 0.68276 0.0
H492 H 0.77283 0.70503 0.65674 0.0
H493 H 0.80359 0.70306 0.70095 0.0
H494 H 0.77586 0.63078 0.76555 0.0
H495 H 0.74504 0.63277 0.72185 0.0
H496 H 0.74105 0.65301 0.79215 0.0
H497 H 0.70672 0.87801 0.80096 0.0
H498 H 0.66635 0.85705 0.73852 0.0
H499 H 0.71409 0.70712 0.67022 0.0
C500 C 0.79848 0.73879 0.82134 0.0
C501 C 0.80464 0.77198 0.86858 0.0
C502 C 0.78694 0.82167 0.88274 0.0
C503 C 0.76326 0.83758 0.85075 0.0
C504 C 0.75756 0.8033 0.80486 0.0
C505 C 0.77476 0.75507 0.79001 0.0
C506 C 0.76242 0.72186 0.74197 0.0
C507 C 0.78283 0.72635 0.69268 0.0
C508 C 0.75569 0.65572 0.75627 0.0
C509 C 0.73506 0.75769 0.73325 0.0
C510 C 0.73283 0.80496 0.76952 0.0
C511 C 0.70846 0.84181 0.77181 0.0
C512 C 0.68567 0.82957 0.7365 0.0
C513 C 0.68747 0.78081 0.69991 0.0
C514 C 0.7126 0.74516 0.69756 0.0
H515 H 0.17424 0.29841 0.81692 0.0
H516 H 0.20398 0.16573 0.93282 0.0
H517 H 0.24734 0.14779 0.87664 0.0
H518 H 0.20213 0.22333 0.69428 0.0
H519 H 0.21257 0.2934 0.66269 0.0
H520 H 0.18231 0.29135 0.70914 0.0
H521 H 0.20617 0.37481 0.76682 0.0
H522 H 0.23651 0.37699 0.72072 0.0
H523 H 0.24227 0.36362 0.79176 0.0
H524 H 0.28939 0.15028 0.81224 0.0
H525 H 0.32703 0.17262 0.7433 0.0
H526 H 0.27066 0.30415 0.66913 0.0
C527 C 0.18964 0.26479 0.82998 0.0
C528 C 0.18519 0.23211 0.87853 0.0
C529 C 0.20614 0.18946 0.89479 0.0
C530 C 0.23108 0.17942 0.86336 0.0
C531 C 0.2348 0.21248 0.81582 0.0
C532 C 0.21463 0.25419 0.79904 0.0
C533 C 0.2246 0.28619 0.7479 0.0
C534 C 0.20419 0.27274 0.70071 0.0
C535 C 0.22757 0.35443 0.7574 0.0
C536 C 0.25383 0.25684 0.73917 0.0
C537 C 0.2592 0.21422 0.77871 0.0
C538 C 0.2853 0.18308 0.78081 0.0
C539 C 0.30654 0.19616 0.74173 0.0
C540 C 0.30156 0.23997 0.70127 0.0
C541 C 0.27476 0.27007 0.69951 0.0
H542 H 0.70725 0.24525 0.07727 0.0
H543 H 0.66347 0.41379 0.04412 0.0
H544 H 0.70242 0.44214 0.97977 0.0
H545 H 0.78035 0.30578 0.07187 0.0
H546 H 0.79544 0.23976 0.03994 0.0
H547 H 0.76423 0.2329 0.08369 0.0
H548 H 0.73623 0.18066 0.00648 0.0
H549 H 0.76728 0.18779 0.96237 0.0
H550 H 0.73292 0.21815 0.94207 0.0
H551 H 0.74532 0.45192 0.91922 0.0
H552 H 0.78995 0.44336 0.86509 0.0
H553 H 0.80742 0.26949 0.93888 0.0
C554 C 0.70614 0.28835 0.05679 0.0
C555 C 0.68254 0.32764 0.06557 0.0
C556 C 0.68141 0.38319 0.03762 0.0
C557 C 0.70341 0.39965 0.0012 0.0
C558 C 0.72639 0.35998 0.99329 0.0
C559 C 0.72802 0.30555 0.02029 0.0
C560 C 0.7551 0.27125 0.00393 0.0
C561 C 0.77496 0.26189 0.05277 0.0
C562 C 0.74741 0.21089 0.97712 0.0
C563 C 0.76832 0.31484 0.96334 0.0
C564 C 0.75134 0.36566 0.958 0.0
C565 C 0.75882 0.41237 0.92306 0.0
C566 C 0.78432 0.40707 0.89258 0.0
C567 C 0.80215 0.35533 0.89692 0.0
C568 C 0.79403 0.30882 0.93323 0.0
H569 H 0.21527 0.66727 0.95363 0.0
H570 H 0.23726 0.82553 0.85844 0.0
H571 H 0.27979 0.84277 0.91572 0.0
H572 H 0.23893 0.72329 0.08456 0.0
H573 H 0.25318 0.6512 0.10479 0.0
H574 H 0.22307 0.65479 0.05921 0.0
H575 H 0.25155 0.59017 0.98956 0.0
H576 H 0.28179 0.58669 0.03471 0.0
H577 H 0.28675 0.61489 0.96683 0.0
H578 H 0.32219 0.83807 0.97941 0.0
H579 H 0.36005 0.81305 0.04632 0.0
H580 H 0.3105 0.65774 0.09881 0.0
C581 C 0.22877 0.70614 0.94527 0.0
C582 C 0.2224 0.74597 0.90236 0.0
C583 C 0.2409 0.79569 0.89226 0.0
C584 C 0.26538 0.80546 0.92427 0.0
C585 C 0.2711 0.76496 0.96599 0.0
C586 C 0.25323 0.7164 0.97664 0.0
C587 C 0.26482 0.67776 0.02205 0.0
C588 C 0.24374 0.67674 0.07053 0.0
C589 C 0.27163 0.6136 0.00207 0.0
C590 C 0.29215 0.71191 0.03517 0.0
C591 C 0.29544 0.76207 0.00236 0.0
C592 C 0.31968 0.79927 0.0056 0.0
C593 C 0.34103 0.78478 0.04341 0.0
C594 C 0.33782 0.73384 0.07728 0.0
C595 C 0.31312 0.69717 0.07334 0.0
H596 H 0.03149 0.17638 0.30158 0.0
H597 H 0.97384 0.04695 0.22701 0.0
H598 H 0.94698 0.03687 0.3134 0.0
H599 H 0.03281 0.10382 0.43543 0.0
H600 H 0.03387 0.17501 0.47046 0.0
H601 H 0.04978 0.16824 0.4039 0.0
H602 H 0.01801 0.2567 0.37033 0.0
H603 H 0.00192 0.26359 0.43659 0.0
H604 H 0.9793 0.25238 0.37848 0.0
H605 H 0.92417 0.04703 0.40633 0.0
H606 H 0.90839 0.0738 0.49901 0.0
H607 H 0.98093 0.19686 0.51194 0.0
C608 C 0.01343 0.14534 0.3035 0.0
C609 C 0.00469 0.11268 0.25741 0.0
C610 C 0.98093 0.07255 0.26173 0.0
C611 C 0.96553 0.06648 0.31065 0.0
C612 C 0.97438 0.10031 0.35501 0.0
C613 C 0.99795 0.13851 0.35198 0.0
C614 C 0.00246 0.1714 0.40484 0.0
C615 C 0.03145 0.15353 0.43015 0.0
C616 C 1.00028 0.24007 0.39706 0.0
C617 C 0.97723 0.14715 0.43764 0.0
C618 C 0.96144 0.10577 0.40843 0.0
C619 C 0.93662 0.07874 0.42982 0.0
C620 C 0.92784 0.09419 0.48251 0.0
C621 C 0.94349 0.13723 0.51274 0.0
C622 C 0.96858 0.16364 0.48991 0.0
H623 H 0.03213 0.92618 0.50095 0.0
H624 H 0.04354 0.73421 0.52918 0.0
H625 H 0.01709 0.71184 0.44618 0.0
H626 H 0.96027 0.91397 0.44819 0.0
H627 H 0.96426 0.96952 0.39566 0.0
H628 H 0.98472 0.97649 0.4571 0.0
H629 H 0.03287 0.9793 0.40508 0.0
H630 H 0.01342 0.97663 0.34239 0.0
H631 H 0.04104 0.92156 0.35596 0.0
H632 H 0.98932 0.70841 0.36249 0.0
H633 H 0.96303 0.72428 0.27795 0.0
H634 H 0.96984 0.91824 0.29921 0.0
C635 C 0.02904 0.87952 0.48959 0.0
C636 C 0.03997 0.83202 0.52177 0.0
C637 C 0.0355 0.77151 0.50538 0.0
C638 C 0.02043 0.75818 0.45824 0.0
C639 C 0.00999 0.80573 0.42753 0.0
C640 C 0.01412 0.8652 0.44207 0.0
C641 C 1.00053 0.90726 0.40098 0.0
C642 C 0.97601 0.94402 0.42715 0.0
C643 C 0.02333 0.94861 0.37454 0.0
C644 C 0.98869 0.86193 0.36085 0.0
C645 C 0.99414 0.80371 0.37767 0.0
C646 C 0.98497 0.75375 0.34863 0.0
C647 C 0.96995 0.76335 0.30065 0.0
C648 C 0.96441 0.82252 0.28174 0.0
C649 C 0.97387 0.8725 0.31245 0.0
H650 H 0.02635 0.85564 0.76663 0.0
H651 H 0.09929 0.90608 0.86552 0.0
H652 H 0.06575 0.93257 0.9404 0.0
H653 H 0.97093 0.96265 0.82349 0.0
H654 H 0.94319 0.90587 0.82185 0.0
H655 H 0.97177 0.90597 0.77165 0.0
H656 H 0.98479 0.79628 0.79608 0.0
H657 H 0.95626 0.795 0.84574 0.0
H658 H 0.99272 0.77733 0.86532 0.0
H659 H 0.02616 0.92885 0.01008 0.0
H660 H 0.98411 0.90038 0.06672 0.0
H661 H 0.93684 0.85273 0.9221 0.0
C662 C 0.03521 0.87513 0.80305 0.0
C663 C 0.06539 0.87994 0.80995 0.0
C664 C 0.07621 0.90298 0.85916 0.0
C665 C 0.0573 0.91804 0.90188 0.0
C666 C 0.02768 0.90929 0.89485 0.0
C667 C 0.0167 0.88882 0.84636 0.0
C668 C 0.98487 0.87376 0.85146 0.0
C669 C 0.96661 0.91451 0.81497 0.0
C670 C 0.97937 0.80666 0.83896 0.0
C671 C 0.97974 0.88745 0.91076 0.0
C672 C 0.00463 0.90805 0.93515 0.0
C673 C 0.00632 0.91447 0.99119 0.0
C674 C 0.98225 0.89824 0.02311 0.0
C675 C 0.95697 0.87474 0.99898 0.0
C676 C 0.95548 0.87192 0.94191 0.0
H677 H 0.05875 0.10561 0.91435 0.0
H678 H 0.00303 0.06237 0.05101 0.0
H679 H 0.96306 0.0423 0.98902 0.0
H680 H 0.01342 0.19304 0.85623 0.0
H681 H 0.02127 0.17569 0.78639 0.0
H682 H 0.04827 0.16341 0.83656 0.0
H683 H 0.05254 0.04996 0.81018 0.0
H684 H 0.02676 0.06465 0.75742 0.0
H685 H 0.02015 0.00536 0.80547 0.0
H686 H 0.92649 0.06028 0.91939 0.0
H687 H 0.89793 0.10887 0.84755 0.0
H688 H 0.9763 0.13775 0.75377 0.0
C689 C 0.03864 0.08849 0.93103 0.0
C690 C 0.03405 0.08618 0.98759 0.0
C691 C 0.00719 0.06478 0.00789 0.0
C692 C 0.98424 0.05322 0.97282 0.0
C693 C 0.98862 0.06175 0.91748 0.0
C694 C 0.01545 0.07741 0.89642 0.0
C695 C 0.01327 0.09616 0.83761 0.0
C696 C 0.0247 0.16086 0.82878 0.0
C697 C 0.02914 0.05135 0.80051 0.0
C698 C 0.98087 0.0927 0.83008 0.0
C699 C 0.96704 0.07166 0.87625 0.0
C700 C 0.93703 0.07473 0.8823 0.0
C701 C 0.92093 0.10238 0.84134 0.0
C702 C 0.93487 0.12596 0.79475 0.0
C703 C 0.96497 0.11811 0.78805 0.0
H704 H 0.47212 0.6721 0.99372 0.0
H705 H 0.52724 0.53851 0.06916 0.0
H706 H 0.55422 0.52668 0.98294 0.0
H707 H 0.46913 0.60261 0.86083 0.0
H708 H 0.47017 0.67388 0.82583 0.0
H709 H 0.45425 0.66895 0.89251 0.0
H710 H 0.48869 0.75283 0.92603 0.0
H711 H 0.50472 0.75807 0.85956 0.0
H712 H 0.52718 0.74376 0.91736 0.0
H713 H 0.57604 0.53194 0.8887 0.0
H714 H 0.59167 0.55571 0.79509 0.0
H715 H 0.52305 0.68817 0.78342 0.0
C716 C 0.48962 0.63973 0.99207 0.0
C717 C 0.49754 0.60616 0.03822 0.0
C718 C 0.52077 0.56474 0.03434 0.0
C719 C 0.53623 0.55771 0.98556 0.0
C720 C 0.52811 0.5923 0.9411 0.0
C721 C 0.50531 0.63239 0.94395 0.0
C722 C 0.50158 0.66596 0.89117 0.0
C723 C 0.47203 0.65198 0.86611 0.0
C724 C 0.50581 0.73418 0.89902 0.0
C725 C 0.52599 0.63883 0.85815 0.0
C726 C 0.54085 0.59592 0.88738 0.0
C727 C 0.56445 0.56522 0.86536 0.0
C728 C 0.57314 0.57896 0.81217 0.0
C729 C 0.5586 0.62384 0.78209 0.0
C730 C 0.53464 0.65375 0.80547 0.0
H731 H 0.47365 0.40974 0.76999 0.0
H732 H 0.4335 0.23303 0.78344 0.0
H733 H 0.4523 0.2224 0.87533 0.0
H734 H 0.53773 0.37421 0.83792 0.0
H735 H 0.54101 0.44373 0.87485 0.0
H736 H 0.52281 0.44285 0.81079 0.0
H737 H 0.47745 0.48886 0.85396 0.0
H738 H 0.49427 0.49073 0.91938 0.0
H739 H 0.46032 0.45261 0.91122 0.0
H740 H 0.47771 0.22598 0.96151 0.0
H741 H 0.50834 0.24465 0.0403 0.0
H742 H 0.53187 0.42008 0.97524 0.0
C743 C 0.46861 0.36912 0.7925 0.0
C744 C 0.45214 0.3222 0.76929 0.0
C745 C 0.4461 0.26963 0.80007 0.0
C746 C 0.45661 0.26312 0.85249 0.0
C747 C 0.47296 0.3097 0.87394 0.0
C748 C 0.4789 0.36184 0.84533 0.0
C749 C 0.49775 0.40399 0.87807 0.0
C750 C 0.52652 0.41694 0.8486 0.0
C751 C 0.48147 0.46254 0.89141 0.0
C752 C 0.50229 0.36621 0.92852 0.0
C753 C 0.48748 0.31228 0.92516 0.0
C754 C 0.48919 0.26827 0.96503 0.0
C755 C 0.50679 0.27925 0.00951 0.0
C756 C 0.52247 0.33386 0.01392 0.0
C757 C 0.51985 0.37831 0.97321 0.0
H758 H 0.56568 0.3378 0.36794 0.0
H759 H 0.52035 0.41265 0.23043 0.0
H760 H 0.47944 0.43959 0.29003 0.0
H761 H 0.50873 0.26585 0.4216 0.0
H762 H 0.51732 0.27779 0.49177 0.0
H763 H 0.54562 0.27821 0.44168 0.0
H764 H 0.56129 0.38314 0.47383 0.0
H765 H 0.53237 0.38587 0.52329 0.0
H766 H 0.53609 0.44466 0.47338 0.0
H767 H 0.43926 0.43133 0.35665 0.0
H768 H 0.40496 0.39916 0.42834 0.0
H769 H 0.47663 0.33736 0.52522 0.0
C770 C 0.54773 0.36231 0.35076 0.0
C771 C 0.5463 0.37305 0.29448 0.0
C772 C 0.52203 0.40386 0.27341 0.0
C773 C 0.49864 0.41948 0.307 0.0
C774 C 0.49997 0.40489 0.36176 0.0
C775 C 0.52418 0.37819 0.38379 0.0
C776 C 0.51874 0.35988 0.44206 0.0
C777 C 0.52282 0.29142 0.44965 0.0
C778 C 0.53825 0.39553 0.48045 0.0
C779 C 0.48729 0.37785 0.44856 0.0
C780 C 0.47684 0.4038 0.40176 0.0
C781 C 0.44733 0.41347 0.39436 0.0
C782 C 0.42797 0.39508 0.43522 0.0
C783 C 0.43823 0.36748 0.4829 0.0
C784 C 0.46831 0.36101 0.49032 0.0
H785 H 0.58263 0.61935 0.42677 0.0
H786 H 0.53032 0.58235 0.5696 0.0
H787 H 0.49131 0.54471 0.51201 0.0
H788 H 0.5322 0.68314 0.3561 0.0
H789 H 0.54208 0.65435 0.29029 0.0
H790 H 0.56882 0.65976 0.34192 0.0
H791 H 0.58014 0.54803 0.3293 0.0
H792 H 0.55204 0.5377 0.27999 0.0
H793 H 0.55262 0.49227 0.34056 0.0
H794 H 0.45365 0.54812 0.44253 0.0
H795 H 0.42297 0.57732 0.36558 0.0
H796 H 0.49941 0.60078 0.26552 0.0
C797 C 0.56361 0.60027 0.44609 0.0
C798 C 0.55948 0.60457 0.50263 0.0
C799 C 0.53408 0.57983 0.52634 0.0
C800 C 0.51166 0.55841 0.49386 0.0
C801 C 0.51533 0.56007 0.43786 0.0
C802 C 0.54108 0.57855 0.41414 0.0
C803 C 0.53812 0.58488 0.35345 0.0
C804 C 0.54572 0.64931 0.33442 0.0
C805 C 0.55681 0.53792 0.32398 0.0
C806 C 0.50618 0.57163 0.34728 0.0
C807 C 0.49342 0.55701 0.39645 0.0
C808 C 0.46341 0.55659 0.40328 0.0
C809 C 0.44609 0.57315 0.35944 0.0
C810 C 0.45885 0.58937 0.30935 0.0
C811 C 0.48912 0.58554 0.30263 0.0
loop_
_geom_bond_atom_site_label_1
_geom_bond_atom_site_label_2
_geom_bond_distance
_geom_bond_site_symmetry_2
_ccdc_geom_bond_type
Co0 O3 1.970 . S
Co0 N17 1.989 . S
Co0 O25 1.967 . S
Co0 O32 1.920 . S
Co1 O4 1.966 1_554 S
Co1 N10 2.022 1_554 S
Co1 N18 1.993 . S
Co1 O26 1.941 . S
C2 O3 1.258 . S
C2 O4 1.263 1_554 S
O3 Co0 1.970 . S
O3 C2 1.258 . S
O4 Co1 1.966 1_556 S
O4 C2 1.263 1_556 S
C5 O6 1.235 . S
C5 O32 1.289 . S
O6 C5 1.235 . S
C7 C9 1.400 . S
C7 N10 1.351 . S
C7 C12 1.501 . S
C8 C9 1.387 . S
C8 N11 1.341 . S
C9 C7 1.400 . S
C9 C8 1.387 . S
N10 Co1 2.022 1_556 S
N10 C7 1.351 . S
N10 N11 1.365 . S
N11 C8 1.341 . S
N11 N10 1.365 . S
N11 H31 0.862 . S
C12 C7 1.501 . S
C12 H13 0.961 . S
C12 H14 0.961 . S
C12 H15 0.960 . S
H13 C12 0.961 . S
H14 C12 0.961 . S
H15 C12 0.960 . S
C16 N17 1.342 . S
C16 C20 1.401 . S
C16 C21 1.499 . S
N17 Co0 1.989 . S
N17 C16 1.342 . S
N17 N18 1.388 . S
N18 Co1 1.993 . S
N18 N17 1.388 . S
N18 C19 1.346 . S
C19 N18 1.346 . S
C19 C20 1.396 . S
C19 C29 1.510 . S
C20 C16 1.401 . S
C20 C19 1.396 . S
C21 C16 1.499 . S
C21 H22 0.959 . S
C21 H23 0.960 . S
C21 H24 0.961 . S
H22 C21 0.959 . S
H23 C21 0.960 . S
H24 C21 0.961 . S
O25 Co0 1.967 . S
O25 C33 1.258 . S
O26 Co1 1.941 . S
O26 C33 1.266 . S
H27 C29 0.959 . S
H28 C29 0.961 . S
C29 C19 1.510 . S
C29 H27 0.959 . S
C29 H28 0.961 . S
C29 H30 0.960 . S
H30 C29 0.960 . S
H31 N11 0.862 . S
O32 Co0 1.920 . S
O32 C5 1.289 . S
C33 O25 1.258 . S
C33 O26 1.266 . S
Co34 O37 1.970 . S
Co34 N51 1.989 . S
Co34 O59 1.967 . S
Co34 O66 1.920 . S
Co35 O38 1.966 1_554 S
Co35 N44 2.022 1_554 S
Co35 N52 1.993 . S
Co35 O60 1.941 . S
C36 O37 1.258 . S
C36 O38 1.263 1_554 S
O37 Co34 1.970 . S
O37 C36 1.258 . S
O38 Co35 1.966 1_556 S
O38 C36 1.263 1_556 S
C39 O40 1.235 . S
C39 O66 1.289 . S
O40 C39 1.235 . S
C41 C43 1.400 . S
C41 N44 1.351 . S
C41 C46 1.501 . S
C42 C43 1.387 . S
C42 N45 1.341 . S
C43 C41 1.400 . S
C43 C42 1.387 . S
N44 Co35 2.022 1_556 S
N44 C41 1.351 . S
N44 N45 1.365 . S
N45 C42 1.341 . S
N45 N44 1.365 . S
N45 H65 0.862 . S
C46 C41 1.501 . S
C46 H47 0.961 . S
C46 H48 0.961 . S
C46 H49 0.960 . S
H47 C46 0.961 . S
H48 C46 0.961 . S
H49 C46 0.960 . S
C50 N51 1.342 . S
C50 C54 1.401 . S
C50 C55 1.499 . S
N51 Co34 1.989 . S
N51 C50 1.342 . S
N51 N52 1.388 . S
N52 Co35 1.993 . S
N52 N51 1.388 . S
N52 C53 1.346 . S
C53 N52 1.346 . S
C53 C54 1.396 . S
C53 C63 1.510 . S
C54 C50 1.401 . S
C54 C53 1.396 . S
C55 C50 1.499 . S
C55 H56 0.959 . S
C55 H57 0.960 . S
C55 H58 0.961 . S
H56 C55 0.959 . S
H57 C55 0.960 . S
H58 C55 0.961 . S
O59 Co34 1.967 . S
O59 C67 1.258 . S
O60 Co35 1.941 . S
O60 C67 1.266 . S
H61 C63 0.959 . S
H62 C63 0.961 . S
C63 C53 1.510 . S
C63 H61 0.959 . S
C63 H62 0.961 . S
C63 H64 0.960 . S
H64 C63 0.960 . S
H65 N45 0.862 . S
O66 Co34 1.920 . S
O66 C39 1.289 . S
C67 O59 1.258 . S
C67 O60 1.266 . S
Co68 O71 1.970 . S
Co68 N85 1.989 . S
Co68 O93 1.967 . S
Co68 O100 1.920 . S
Co69 O72 1.966 . S
Co69 N78 2.022 . S
Co69 N86 1.993 . S
Co69 O94 1.941 . S
C70 O71 1.258 . S
C70 O72 1.263 . S
O71 Co68 1.970 . S
O71 C70 1.258 . S
O72 Co69 1.966 . S
O72 C70 1.263 . S
C73 O74 1.235 . S
C73 O100 1.289 . S
O74 C73 1.235 . S
C75 C77 1.400 . S
C75 N78 1.351 . S
C75 C80 1.501 . S
C76 C77 1.387 . S
C76 N79 1.341 . S
C77 C75 1.400 . S
C77 C76 1.387 . S
N78 Co69 2.022 . S
N78 C75 1.351 . S
N78 N79 1.365 . S
N79 C76 1.341 . S
N79 N78 1.365 . S
N79 H99 0.862 . S
C80 C75 1.501 . S
C80 H81 0.961 . S
C80 H82 0.961 . S
C80 H83 0.960 . S
H81 C80 0.961 . S
H82 C80 0.961 . S
H83 C80 0.960 . S
C84 N85 1.342 . S
C84 C88 1.401 . S
C84 C89 1.499 . S
N85 Co68 1.989 . S
N85 C84 1.342 . S
N85 N86 1.388 . S
N86 Co69 1.993 . S
N86 N85 1.388 . S
N86 C87 1.346 . S
C87 N86 1.346 . S
C87 C88 1.396 . S
C87 C97 1.510 . S
C88 C84 1.401 . S
C88 C87 1.396 . S
C89 C84 1.499 . S
C89 H90 0.959 . S
C89 H91 0.960 . S
C89 H92 0.961 . S
H90 C89 0.959 . S
H91 C89 0.960 . S
H92 C89 0.961 . S
O93 Co68 1.967 . S
O93 C101 1.258 . S
O94 Co69 1.941 . S
O94 C101 1.266 . S
H95 C97 0.959 . S
H96 C97 0.961 . S
C97 C87 1.510 . S
C97 H95 0.959 . S
C97 H96 0.961 . S
C97 H98 0.960 . S
H98 C97 0.960 . S
H99 N79 0.862 . S
O100 Co68 1.920 . S
O100 C73 1.289 . S
C101 O93 1.258 . S
C101 O94 1.266 . S
Co102 O105 1.970 . S
Co102 N119 1.989 . S
Co102 O127 1.967 . S
Co102 O134 1.920 . S
Co103 O106 1.966 . S
Co103 N112 2.022 . S
Co103 N120 1.993 . S
Co103 O128 1.941 . S
C104 O105 1.258 . S
C104 O106 1.263 . S
O105 Co102 1.970 . S
O105 C104 1.258 . S
O106 Co103 1.966 . S
O106 C104 1.263 . S
C107 O108 1.235 . S
C107 O134 1.289 . S
O108 C107 1.235 . S
C109 C111 1.400 . S
C109 N112 1.351 . S
C109 C114 1.501 . S
C110 C111 1.387 . S
C110 N113 1.341 . S
C111 C109 1.400 . S
C111 C110 1.387 . S
N112 Co103 2.022 . S
N112 C109 1.351 . S
N112 N113 1.365 . S
N113 C110 1.341 . S
N113 N112 1.365 . S
N113 H133 0.862 . S
C114 C109 1.501 . S
C114 H115 0.961 . S
C114 H116 0.961 . S
C114 H117 0.960 . S
H115 C114 0.961 . S
H116 C114 0.961 . S
H117 C114 0.960 . S
C118 N119 1.342 . S
C118 C122 1.401 . S
C118 C123 1.499 . S
N119 Co102 1.989 . S
N119 C118 1.342 . S
N119 N120 1.388 . S
N120 Co103 1.993 . S
N120 N119 1.388 . S
N120 C121 1.346 . S
C121 N120 1.346 . S
C121 C122 1.396 . S
C121 C131 1.510 . S
C122 C118 1.401 . S
C122 C121 1.396 . S
C123 C118 1.499 . S
C123 H124 0.959 . S
C123 H125 0.960 . S
C123 H126 0.961 . S
H124 C123 0.959 . S
H125 C123 0.960 . S
H126 C123 0.961 . S
O127 Co102 1.967 . S
O127 C135 1.258 . S
O128 Co103 1.941 . S
O128 C135 1.266 . S
H129 C131 0.959 . S
H130 C131 0.961 . S
C131 C121 1.510 . S
C131 H129 0.959 . S
C131 H130 0.961 . S
C131 H132 0.960 . S
H132 C131 0.960 . S
H133 N113 0.862 . S
O134 Co102 1.920 . S
O134 C107 1.289 . S
C135 O127 1.258 . S
C135 O128 1.266 . S
Co136 O139 1.970 . S
Co136 N153 1.989 . S
Co136 O161 1.967 . S
Co136 O168 1.920 . S
Co137 O140 1.966 . S
Co137 N146 2.022 . S
Co137 N154 1.993 . S
Co137 O162 1.941 . S
C138 O139 1.258 . S
C138 O140 1.263 . S
O139 Co136 1.970 . S
O139 C138 1.258 . S
O140 Co137 1.966 . S
O140 C138 1.263 . S
C141 O142 1.235 . S
C141 O168 1.289 . S
O142 C141 1.235 . S
C143 C145 1.400 . S
C143 N146 1.351 . S
C143 C148 1.501 . S
C144 C145 1.387 . S
C144 N147 1.341 . S
C145 C143 1.400 . S
C145 C144 1.387 . S
N146 Co137 2.022 . S
N146 C143 1.351 . S
N146 N147 1.365 . S
N147 C144 1.341 . S
N147 N146 1.365 . S
N147 H167 0.862 . S
C148 C143 1.501 . S
C148 H149 0.961 . S
C148 H150 0.961 . S
C148 H151 0.960 . S
H149 C148 0.961 . S
H150 C148 0.961 . S
H151 C148 0.960 . S
C152 N153 1.342 . S
C152 C156 1.401 . S
C152 C157 1.499 . S
N153 Co136 1.989 . S
N153 C152 1.342 . S
N153 N154 1.388 . S
N154 Co137 1.993 . S
N154 N153 1.388 . S
N154 C155 1.346 . S
C155 N154 1.346 . S
C155 C156 1.396 . S
C155 C165 1.510 . S
C156 C152 1.401 . S
C156 C155 1.396 . S
C157 C152 1.499 . S
C157 H158 0.959 . S
C157 H159 0.960 . S
C157 H160 0.961 . S
H158 C157 0.959 . S
H159 C157 0.960 . S
H160 C157 0.961 . S
O161 Co136 1.967 . S
O161 C169 1.258 . S
O162 Co137 1.941 . S
O162 C169 1.266 . S
H163 C165 0.959 . S
H164 C165 0.961 . S
C165 C155 1.510 . S
C165 H163 0.959 . S
C165 H164 0.961 . S
C165 H166 0.960 . S
H166 C165 0.960 . S
H167 N147 0.862 . S
O168 Co136 1.920 . S
O168 C141 1.289 . S
C169 O161 1.258 . S
C169 O162 1.266 . S
Co170 O173 1.970 . S
Co170 N187 1.989 . S
Co170 O195 1.967 . S
Co170 O202 1.920 . S
Co171 O174 1.966 . S
Co171 N180 2.022 . S
Co171 N188 1.993 . S
Co171 O196 1.941 . S
C172 O173 1.258 . S
C172 O174 1.263 . S
O173 Co170 1.970 . S
O173 C172 1.258 . S
O174 Co171 1.966 . S
O174 C172 1.263 . S
C175 O176 1.235 . S
C175 O202 1.289 . S
O176 C175 1.235 . S
C177 C179 1.400 . S
C177 N180 1.351 . S
C177 C182 1.501 . S
C178 C179 1.387 . S
C178 N181 1.341 . S
C179 C177 1.400 . S
C179 C178 1.387 . S
N180 Co171 2.022 . S
N180 C177 1.351 . S
N180 N181 1.365 . S
N181 C178 1.341 . S
N181 N180 1.365 . S
N181 H201 0.862 . S
C182 C177 1.501 . S
C182 H183 0.961 . S
C182 H184 0.961 . S
C182 H185 0.960 . S
H183 C182 0.961 . S
H184 C182 0.961 . S
H185 C182 0.960 . S
C186 N187 1.342 . S
C186 C190 1.401 . S
C186 C191 1.499 . S
N187 Co170 1.989 . S
N187 C186 1.342 . S
N187 N188 1.388 . S
N188 Co171 1.993 . S
N188 N187 1.388 . S
N188 C189 1.346 . S
C189 N188 1.346 . S
C189 C190 1.396 . S
C189 C199 1.510 . S
C190 C186 1.401 . S
C190 C189 1.396 . S
C191 C186 1.499 . S
C191 H192 0.959 . S
C191 H193 0.960 . S
C191 H194 0.961 . S
H192 C191 0.959 . S
H193 C191 0.960 . S
H194 C191 0.961 . S
O195 Co170 1.967 . S
O195 C203 1.258 . S
O196 Co171 1.941 . S
O196 C203 1.266 . S
H197 C199 0.959 . S
H198 C199 0.961 . S
C199 C189 1.510 . S
C199 H197 0.959 . S
C199 H198 0.961 . S
C199 H200 0.960 . S
H200 C199 0.960 . S
H201 N181 0.862 . S
O202 Co170 1.920 . S
O202 C175 1.289 . S
C203 O195 1.258 . S
C203 O196 1.266 . S
Co204 O207 1.970 . S
Co204 N221 1.989 . S
Co204 O229 1.967 . S
Co204 O236 1.920 . S
Co205 O208 1.966 . S
Co205 N214 2.022 . S
Co205 N222 1.993 . S
Co205 O230 1.941 . S
C206 O207 1.258 . S
C206 O208 1.263 . S
O207 Co204 1.970 . S
O207 C206 1.258 . S
O208 Co205 1.966 . S
O208 C206 1.263 . S
C209 O210 1.235 . S
C209 O236 1.289 . S
O210 C209 1.235 . S
C211 C213 1.400 . S
C211 N214 1.351 . S
C211 C216 1.501 . S
C212 C213 1.387 . S
C212 N215 1.341 . S
C213 C211 1.400 . S
C213 C212 1.387 . S
N214 Co205 2.022 . S
N214 C211 1.351 . S
N214 N215 1.365 . S
N215 C212 1.341 . S
N215 N214 1.365 . S
N215 H235 0.862 . S
C216 C211 1.501 . S
C216 H217 0.961 . S
C216 H218 0.961 . S
C216 H219 0.960 . S
H217 C216 0.961 . S
H218 C216 0.961 . S
H219 C216 0.960 . S
C220 N221 1.342 . S
C220 C224 1.401 . S
C220 C225 1.499 . S
N221 Co204 1.989 . S
N221 C220 1.342 . S
N221 N222 1.388 . S
N222 Co205 1.993 . S
N222 N221 1.388 . S
N222 C223 1.346 . S
C223 N222 1.346 . S
C223 C224 1.396 . S
C223 C233 1.510 . S
C224 C220 1.401 . S
C224 C223 1.396 . S
C225 C220 1.499 . S
C225 H226 0.959 . S
C225 H227 0.960 . S
C225 H228 0.961 . S
H226 C225 0.959 . S
H227 C225 0.960 . S
H228 C225 0.961 . S
O229 Co204 1.967 . S
O229 C237 1.258 . S
O230 Co205 1.941 . S
O230 C237 1.266 . S
H231 C233 0.959 . S
H232 C233 0.961 . S
C233 C223 1.510 . S
C233 H231 0.959 . S
C233 H232 0.961 . S
C233 H234 0.960 . S
H234 C233 0.960 . S
H235 N215 0.862 . S
O236 Co204 1.920 . S
O236 C209 1.289 . S
C237 O229 1.258 . S
C237 O230 1.266 . S
Co238 O241 1.970 . S
Co238 N255 1.989 . S
Co238 O263 1.967 . S
Co238 O270 1.920 . S
Co239 O242 1.966 . S
Co239 N248 2.022 . S
Co239 N256 1.993 . S
Co239 O264 1.941 . S
C240 O241 1.258 . S
C240 O242 1.263 . S
O241 Co238 1.970 . S
O241 C240 1.258 . S
O242 Co239 1.966 . S
O242 C240 1.263 . S
C243 O244 1.235 . S
C243 O270 1.289 . S
O244 C243 1.235 . S
C245 C247 1.400 . S
C245 N248 1.351 . S
C245 C250 1.501 . S
C246 C247 1.387 . S
C246 N249 1.341 . S
C247 C245 1.400 . S
C247 C246 1.387 . S
N248 Co239 2.022 . S
N248 C245 1.351 . S
N248 N249 1.365 . S
N249 C246 1.341 . S
N249 N248 1.365 . S
N249 H269 0.862 . S
C250 C245 1.501 . S
C250 H251 0.961 . S
C250 H252 0.961 . S
C250 H253 0.960 . S
H251 C250 0.961 . S
H252 C250 0.961 . S
H253 C250 0.960 . S
C254 N255 1.342 . S
C254 C258 1.401 . S
C254 C259 1.499 . S
N255 Co238 1.989 . S
N255 C254 1.342 . S
N255 N256 1.388 . S
N256 Co239 1.993 . S
N256 N255 1.388 . S
N256 C257 1.346 . S
C257 N256 1.346 . S
C257 C258 1.396 . S
C257 C267 1.510 . S
C258 C254 1.401 . S
C258 C257 1.396 . S
C259 C254 1.499 . S
C259 H260 0.959 . S
C259 H261 0.960 . S
C259 H262 0.961 . S
H260 C259 0.959 . S
H261 C259 0.960 . S
H262 C259 0.961 . S
O263 Co238 1.967 . S
O263 C271 1.258 . S
O264 Co239 1.941 . S
O264 C271 1.266 . S
H265 C267 0.959 . S
H266 C267 0.961 . S
C267 C257 1.510 . S
C267 H265 0.959 . S
C267 H266 0.961 . S
C267 H268 0.960 . S
H268 C267 0.960 . S
H269 N249 0.862 . S
O270 Co238 1.920 . S
O270 C243 1.289 . S
C271 O263 1.258 . S
C271 O264 1.266 . S
H272 C284 0.930 . S
H273 C286 0.930 1_556 S
H274 C287 0.930 1_556 S
H275 C291 0.959 . S
H276 C291 0.959 . S
H277 C291 0.961 . S
H278 C292 0.960 . S
H279 C292 0.961 1_655 S
H280 C292 0.959 . S
H281 C295 0.929 1_556 S
H282 C296 0.931 1_556 S
H283 C298 0.930 . S
C284 H272 0.930 . S
C284 C285 1.399 . S
C284 C289 1.399 . S
C285 C284 1.399 . S
C285 C286 1.376 . S
C286 H273 0.930 1_554 S
C286 C285 1.376 . S
C286 C287 1.388 . S
C287 H274 0.930 1_554 S
C287 C286 1.388 . S
C287 C288 1.390 . S
C288 C287 1.390 . S
C288 C289 1.394 . S
C288 C294 1.465 1_455 S
C289 C284 1.399 . S
C289 C288 1.394 . S
C289 C290 1.516 1_455 S
C290 C289 1.516 1_655 S
C290 C291 1.502 . S
C290 C292 1.561 1_655 S
C290 C293 1.526 . S
C291 H275 0.959 . S
C291 H276 0.959 . S
C291 H277 0.961 . S
C291 C290 1.502 . S
C292 H278 0.960 . S
C292 H279 0.961 1_455 S
C292 H280 0.959 . S
C292 C290 1.561 1_455 S
C293 C290 1.526 . S
C293 C294 1.396 . S
C293 C298 1.390 . S
C294 C288 1.465 1_655 S
C294 C293 1.396 . S
C294 C295 1.399 . S
C295 H281 0.929 1_554 S
C295 C294 1.399 . S
C295 C296 1.385 . S
C296 H282 0.931 1_554 S
C296 C295 1.385 . S
C296 C297 1.389 . S
C297 C296 1.389 . S
C297 C298 1.387 . S
C298 H283 0.930 . S
C298 C293 1.390 . S
C298 C297 1.387 . S
H299 C311 0.930 . S
H300 C313 0.930 . S
H301 C314 0.930 . S
H302 C318 0.959 . S
H303 C318 0.959 . S
H304 C318 0.961 . S
H305 C319 0.960 . S
H306 C319 0.961 1_455 S
H307 C319 0.959 . S
H308 C322 0.929 . S
H309 C323 0.931 . S
H310 C325 0.930 . S
C311 H299 0.930 . S
C311 C312 1.399 . S
C311 C316 1.399 . S
C312 C311 1.399 . S
C312 C313 1.376 . S
C313 H300 0.930 . S
C313 C312 1.376 . S
C313 C314 1.388 . S
C314 H301 0.930 . S
C314 C313 1.388 . S
C314 C315 1.390 . S
C315 C314 1.390 . S
C315 C316 1.394 . S
C315 C321 1.465 1_655 S
C316 C311 1.399 . S
C316 C315 1.394 . S
C316 C317 1.516 1_655 S
C317 C316 1.516 1_455 S
C317 C318 1.502 . S
C317 C319 1.561 1_455 S
C317 C320 1.526 . S
C318 H302 0.959 . S
C318 H303 0.959 . S
C318 H304 0.961 . S
C318 C317 1.502 . S
C319 H305 0.960 . S
C319 H306 0.961 1_655 S
C319 H307 0.959 . S
C319 C317 1.561 1_655 S
C320 C317 1.526 . S
C320 C321 1.396 . S
C320 C325 1.390 . S
C321 C315 1.465 1_455 S
C321 C320 1.396 . S
C321 C322 1.399 . S
C322 H308 0.929 . S
C322 C321 1.399 . S
C322 C323 1.385 . S
C323 H309 0.931 . S
C323 C322 1.385 . S
C323 C324 1.389 . S
C324 C323 1.389 . S
C324 C325 1.387 . S
C325 H310 0.930 . S
C325 C320 1.390 . S
C325 C324 1.387 . S
H326 C338 0.930 . S
H327 C340 0.930 . S
H328 C341 0.930 1_545 S
H329 C345 0.959 . S
H330 C345 0.959 . S
H331 C345 0.961 . S
H332 C346 0.960 1_565 S
H333 C346 0.961 . S
H334 C346 0.959 . S
H335 C349 0.929 . S
H336 C350 0.931 . S
H337 C352 0.930 . S
C338 H326 0.930 . S
C338 C339 1.399 . S
C338 C343 1.399 . S
C339 C338 1.399 . S
C339 C340 1.376 . S
C340 H327 0.930 . S
C340 C339 1.376 . S
C340 C341 1.388 . S
C341 H328 0.930 1_565 S
C341 C340 1.388 . S
C341 C342 1.390 . S
C342 C341 1.390 . S
C342 C343 1.394 . S
C342 C348 1.465 1_565 S
C343 C338 1.399 . S
C343 C342 1.394 . S
C343 C344 1.516 . S
C344 C343 1.516 . S
C344 C345 1.502 . S
C344 C346 1.561 1_565 S
C344 C347 1.526 1_565 S
C345 H329 0.959 . S
C345 H330 0.959 . S
C345 H331 0.961 . S
C345 C344 1.502 . S
C346 H332 0.960 1_545 S
C346 H333 0.961 . S
C346 H334 0.959 . S
C346 C344 1.561 1_545 S
C347 C344 1.526 1_545 S
C347 C348 1.396 . S
C347 C352 1.390 . S
C348 C342 1.465 1_545 S
C348 C347 1.396 . S
C348 C349 1.399 . S
C349 H335 0.929 . S
C349 C348 1.399 . S
C349 C350 1.385 . S
C350 H336 0.931 . S
C350 C349 1.385 . S
C350 C351 1.389 . S
C351 C350 1.389 . S
C351 C352 1.387 . S
C352 H337 0.930 . S
C352 C347 1.390 . S
C352 C351 1.387 . S
H353 C365 0.930 . S
H354 C367 0.930 . S
H355 C368 0.930 . S
H356 C372 0.959 . S
H357 C372 0.959 . S
H358 C372 0.961 . S
H359 C373 0.960 1_565 S
H360 C373 0.961 . S
H361 C373 0.959 1_565 S
H362 C376 0.929 1_565 S
H363 C377 0.931 . S
H364 C379 0.930 . S
C365 H353 0.930 . S
C365 C366 1.399 . S
C365 C370 1.399 . S
C366 C365 1.399 . S
C366 C367 1.376 . S
C367 H354 0.930 . S
C367 C366 1.376 . S
C367 C368 1.388 . S
C368 H355 0.930 . S
C368 C367 1.388 . S
C368 C369 1.390 . S
C369 C368 1.390 . S
C369 C370 1.394 . S
C369 C375 1.465 1_565 S
C370 C365 1.399 . S
C370 C369 1.394 . S
C370 C371 1.516 1_565 S
C371 C370 1.516 1_545 S
C371 C372 1.502 . S
C371 C373 1.561 . S
C371 C374 1.526 . S
C372 H356 0.959 . S
C372 H357 0.959 . S
C372 H358 0.961 . S
C372 C371 1.502 . S
C373 H359 0.960 1_545 S
C373 H360 0.961 . S
C373 H361 0.959 1_545 S
C373 C371 1.561 . S
C374 C371 1.526 . S
C374 C375 1.396 . S
C374 C379 1.390 . S
C375 C369 1.465 1_545 S
C375 C374 1.396 . S
C375 C376 1.399 . S
C376 H362 0.929 1_545 S
C376 C375 1.399 . S
C376 C377 1.385 . S
C377 H363 0.931 . S
C377 C376 1.385 . S
C377 C378 1.389 . S
C378 C377 1.389 . S
C378 C379 1.387 . S
C379 H364 0.930 . S
C379 C374 1.390 . S
C379 C378 1.387 . S
H380 C392 0.930 . S
H381 C394 0.930 . S
H382 C395 0.930 . S
H383 C399 0.959 . S
H384 C399 0.959 . S
H385 C399 0.961 . S
H386 C400 0.960 . S
H387 C400 0.961 . S
H388 C400 0.959 . S
H389 C403 0.929 . S
H390 C404 0.931 . S
H391 C406 0.930 . S
C392 H380 0.930 . S
C392 C393 1.399 . S
C392 C397 1.399 . S
C393 C392 1.399 . S
C393 C394 1.376 . S
C394 H381 0.930 . S
C394 C393 1.376 . S
C394 C395 1.388 . S
C395 H382 0.930 . S
C395 C394 1.388 . S
C395 C396 1.390 . S
C396 C395 1.390 . S
C396 C397 1.394 . S
C396 C402 1.465 . S
C397 C392 1.399 . S
C397 C396 1.394 . S
C397 C398 1.516 . S
C398 C397 1.516 . S
C398 C399 1.502 . S
C398 C400 1.561 . S
C398 C401 1.526 . S
C399 H383 0.959 . S
C399 H384 0.959 . S
C399 H385 0.961 . S
C399 C398 1.502 . S
C400 H386 0.960 . S
C400 H387 0.961 . S
C400 H388 0.959 . S
C400 C398 1.561 . S
C401 C398 1.526 . S
C401 C402 1.396 . S
C401 C406 1.390 . S
C402 C396 1.465 . S
C402 C401 1.396 . S
C402 C403 1.399 . S
C403 H389 0.929 . S
C403 C402 1.399 . S
C403 C404 1.385 . S
C404 H390 0.931 . S
C404 C403 1.385 . S
C404 C405 1.389 . S
C405 C404 1.389 . S
C405 C406 1.387 . S
C406 H391 0.930 . S
C406 C401 1.390 . S
C406 C405 1.387 . S
H407 C419 0.930 . S
H408 C421 0.930 . S
H409 C422 0.930 . S
H410 C426 0.959 . S
H411 C426 0.959 . S
H412 C426 0.961 . S
H413 C427 0.960 . S
H414 C427 0.961 . S
H415 C427 0.959 . S
H416 C430 0.929 . S
H417 C431 0.931 . S
H418 C433 0.930 . S
C419 H407 0.930 . S
C419 C420 1.399 . S
C419 C424 1.399 . S
C420 C419 1.399 . S
C420 C421 1.376 . S
C421 H408 0.930 . S
C421 C420 1.376 . S
C421 C422 1.388 . S
C422 H409 0.930 . S
C422 C421 1.388 . S
C422 C423 1.390 . S
C423 C422 1.390 . S
C423 C424 1.394 . S
C423 C429 1.465 . S
C424 C419 1.399 . S
C424 C423 1.394 . S
C424 C425 1.516 . S
C425 C424 1.516 . S
C425 C426 1.502 . S
C425 C427 1.561 . S
C425 C428 1.526 . S
C426 H410 0.959 . S
C426 H411 0.959 . S
C426 H412 0.961 . S
C426 C425 1.502 . S
C427 H413 0.960 . S
C427 H414 0.961 . S
C427 H415 0.959 . S
C427 C425 1.561 . S
C428 C425 1.526 . S
C428 C429 1.396 . S
C428 C433 1.390 . S
C429 C423 1.465 . S
C429 C428 1.396 . S
C429 C430 1.399 . S
C430 H416 0.929 . S
C430 C429 1.399 . S
C430 C431 1.385 . S
C431 H417 0.931 . S
C431 C430 1.385 . S
C431 C432 1.389 . S
C432 C431 1.389 . S
C432 C433 1.387 . S
C433 H418 0.930 . S
C433 C428 1.390 . S
C433 C432 1.387 . S
H434 C446 0.930 . S
H435 C448 0.930 . S
H436 C449 0.930 . S
H437 C453 0.959 . S
H438 C453 0.959 . S
H439 C453 0.961 . S
H440 C454 0.960 . S
H441 C454 0.961 . S
H442 C454 0.959 . S
H443 C457 0.929 . S
H444 C458 0.931 . S
H445 C460 0.930 . S
C446 H434 0.930 . S
C446 C447 1.399 . S
C446 C451 1.399 . S
C447 C446 1.399 . S
C447 C448 1.376 . S
C448 H435 0.930 . S
C448 C447 1.376 . S
C448 C449 1.388 . S
C449 H436 0.930 . S
C449 C448 1.388 . S
C449 C450 1.390 . S
C450 C449 1.390 . S
C450 C451 1.394 . S
C450 C456 1.465 . S
C451 C446 1.399 . S
C451 C450 1.394 . S
C451 C452 1.516 . S
C452 C451 1.516 . S
C452 C453 1.502 . S
C452 C454 1.561 . S
C452 C455 1.526 . S
C453 H437 0.959 . S
C453 H438 0.959 . S
C453 H439 0.961 . S
C453 C452 1.502 . S
C454 H440 0.960 . S
C454 H441 0.961 . S
C454 H442 0.959 . S
C454 C452 1.561 . S
C455 C452 1.526 . S
C455 C456 1.396 . S
C455 C460 1.390 . S
C456 C450 1.465 . S
C456 C455 1.396 . S
C456 C457 1.399 . S
C457 H443 0.929 . S
C457 C456 1.399 . S
C457 C458 1.385 . S
C458 H444 0.931 . S
C458 C457 1.385 . S
C458 C459 1.389 . S
C459 C458 1.389 . S
C459 C460 1.387 . S
C460 H445 0.930 . S
C460 C455 1.390 . S
C460 C459 1.387 . S
H461 C473 0.930 . S
H462 C475 0.930 . S
H463 C476 0.930 . S
H464 C480 0.959 . S
H465 C480 0.959 . S
H466 C480 0.961 . S
H467 C481 0.960 . S
H468 C481 0.961 . S
H469 C481 0.959 . S
H470 C484 0.929 . S
H471 C485 0.931 . S
H472 C487 0.930 . S
C473 H461 0.930 . S
C473 C474 1.399 . S
C473 C478 1.399 . S
C474 C473 1.399 . S
C474 C475 1.376 . S
C475 H462 0.930 . S
C475 C474 1.376 . S
C475 C476 1.388 . S
C476 H463 0.930 . S
C476 C475 1.388 . S
C476 C477 1.390 . S
C477 C476 1.390 . S
C477 C478 1.394 . S
C477 C483 1.465 . S
C478 C473 1.399 . S
C478 C477 1.394 . S
C478 C479 1.516 . S
C479 C478 1.516 . S
C479 C480 1.502 . S
C479 C481 1.561 . S
C479 C482 1.526 . S
C480 H464 0.959 . S
C480 H465 0.959 . S
C480 H466 0.961 . S
C480 C479 1.502 . S
C481 H467 0.960 . S
C481 H468 0.961 . S
C481 H469 0.959 . S
C481 C479 1.561 . S
C482 C479 1.526 . S
C482 C483 1.396 . S
C482 C487 1.390 . S
C483 C477 1.465 . S
C483 C482 1.396 . S
C483 C484 1.399 . S
C484 H470 0.929 . S
C484 C483 1.399 . S
C484 C485 1.385 . S
C485 H471 0.931 . S
C485 C484 1.385 . S
C485 C486 1.389 . S
C486 C485 1.389 . S
C486 C487 1.387 . S
C487 H472 0.930 . S
C487 C482 1.390 . S
C487 C486 1.387 . S
H488 C500 0.930 . S
H489 C502 0.930 . S
H490 C503 0.930 . S
H491 C507 0.959 . S
H492 C507 0.959 . S
H493 C507 0.961 . S
H494 C508 0.960 . S
H495 C508 0.961 . S
H496 C508 0.959 . S
H497 C511 0.929 . S
H498 C512 0.931 . S
H499 C514 0.930 . S
C500 H488 0.930 . S
C500 C501 1.399 . S
C500 C505 1.399 . S
C501 C500 1.399 . S
C501 C502 1.376 . S
C502 H489 0.930 . S
C502 C501 1.376 . S
C502 C503 1.388 . S
C503 H490 0.930 . S
C503 C502 1.388 . S
C503 C504 1.390 . S
C504 C503 1.390 . S
C504 C505 1.394 . S
C504 C510 1.465 . S
C505 C500 1.399 . S
C505 C504 1.394 . S
C505 C506 1.516 . S
C506 C505 1.516 . S
C506 C507 1.502 . S
C506 C508 1.561 . S
C506 C509 1.526 . S
C507 H491 0.959 . S
C507 H492 0.959 . S
C507 H493 0.961 . S
C507 C506 1.502 . S
C508 H494 0.960 . S
C508 H495 0.961 . S
C508 H496 0.959 . S
C508 C506 1.561 . S
C509 C506 1.526 . S
C509 C510 1.396 . S
C509 C514 1.390 . S
C510 C504 1.465 . S
C510 C509 1.396 . S
C510 C511 1.399 . S
C511 H497 0.929 . S
C511 C510 1.399 . S
C511 C512 1.385 . S
C512 H498 0.931 . S
C512 C511 1.385 . S
C512 C513 1.389 . S
C513 C512 1.389 . S
C513 C514 1.387 . S
C514 H499 0.930 . S
C514 C509 1.390 . S
C514 C513 1.387 . S
H515 C527 0.930 . S
H516 C529 0.930 . S
H517 C530 0.930 . S
H518 C534 0.959 . S
H519 C534 0.959 . S
H520 C534 0.961 . S
H521 C535 0.960 . S
H522 C535 0.961 . S
H523 C535 0.959 . S
H524 C538 0.929 . S
H525 C539 0.931 . S
H526 C541 0.930 . S
C527 H515 0.930 . S
C527 C528 1.399 . S
C527 C532 1.399 . S
C528 C527 1.399 . S
C528 C529 1.376 . S
C529 H516 0.930 . S
C529 C528 1.376 . S
C529 C530 1.388 . S
C530 H517 0.930 . S
C530 C529 1.388 . S
C530 C531 1.390 . S
C531 C530 1.390 . S
C531 C532 1.394 . S
C531 C537 1.465 . S
C532 C527 1.399 . S
C532 C531 1.394 . S
C532 C533 1.516 . S
C533 C532 1.516 . S
C533 C534 1.502 . S
C533 C535 1.561 . S
C533 C536 1.526 . S
C534 H518 0.959 . S
C534 H519 0.959 . S
C534 H520 0.961 . S
C534 C533 1.502 . S
C535 H521 0.960 . S
C535 H522 0.961 . S
C535 H523 0.959 . S
C535 C533 1.561 . S
C536 C533 1.526 . S
C536 C537 1.396 . S
C536 C541 1.390 . S
C537 C531 1.465 . S
C537 C536 1.396 . S
C537 C538 1.399 . S
C538 H524 0.929 . S
C538 C537 1.399 . S
C538 C539 1.385 . S
C539 H525 0.931 . S
C539 C538 1.385 . S
C539 C540 1.389 . S
C540 C539 1.389 . S
C540 C541 1.387 . S
C541 H526 0.930 . S
C541 C536 1.390 . S
C541 C540 1.387 . S
H542 C554 0.930 . S
H543 C556 0.930 . S
H544 C557 0.930 . S
H545 C561 0.959 . S
H546 C561 0.959 . S
H547 C561 0.961 . S
H548 C562 0.960 . S
H549 C562 0.960 . S
H550 C562 0.959 1_556 S
H551 C565 0.929 . S
H552 C566 0.931 . S
H553 C568 0.930 . S
C554 H542 0.930 . S
C554 C555 1.399 . S
C554 C559 1.399 . S
C555 C554 1.399 . S
C555 C556 1.376 . S
C556 H543 0.930 . S
C556 C555 1.376 . S
C556 C557 1.388 1_554 S
C557 H544 0.930 . S
C557 C556 1.388 1_556 S
C557 C558 1.390 . S
C558 C557 1.390 . S
C558 C559 1.394 1_556 S
C558 C564 1.465 . S
C559 C554 1.399 . S
C559 C558 1.394 1_554 S
C559 C560 1.516 . S
C560 C559 1.516 . S
C560 C561 1.502 . S
C560 C562 1.561 . S
C560 C563 1.526 1_554 S
C561 H545 0.959 . S
C561 H546 0.959 . S
C561 H547 0.961 . S
C561 C560 1.502 . S
C562 H548 0.960 . S
C562 H549 0.960 . S
C562 H550 0.959 1_554 S
C562 C560 1.561 . S
C563 C560 1.526 1_556 S
C563 C564 1.396 . S
C563 C568 1.390 . S
C564 C558 1.465 . S
C564 C563 1.396 . S
C564 C565 1.399 . S
C565 H551 0.929 . S
C565 C564 1.399 . S
C565 C566 1.385 . S
C566 H552 0.931 . S
C566 C565 1.385 . S
C566 C567 1.389 . S
C567 C566 1.389 . S
C567 C568 1.387 . S
C568 H553 0.930 . S
C568 C563 1.390 . S
C568 C567 1.387 . S
H569 C581 0.930 . S
H570 C583 0.930 . S
H571 C584 0.930 . S
H572 C588 0.959 . S
H573 C588 0.959 . S
H574 C588 0.961 1_556 S
H575 C589 0.960 . S
H576 C589 0.961 . S
H577 C589 0.959 . S
H578 C592 0.929 . S
H579 C593 0.931 . S
H580 C595 0.930 . S
C581 H569 0.930 . S
C581 C582 1.399 . S
C581 C586 1.399 . S
C582 C581 1.399 . S
C582 C583 1.376 . S
C583 H570 0.930 . S
C583 C582 1.376 . S
C583 C584 1.388 . S
C584 H571 0.930 . S
C584 C583 1.388 . S
C584 C585 1.390 . S
C585 C584 1.390 . S
C585 C586 1.394 . S
C585 C591 1.465 1_556 S
C586 C581 1.399 . S
C586 C585 1.394 . S
C586 C587 1.516 . S
C587 C586 1.516 . S
C587 C588 1.502 1_556 S
C587 C589 1.561 . S
C587 C590 1.526 1_556 S
C588 H572 0.959 . S
C588 H573 0.959 . S
C588 H574 0.961 1_554 S
C588 C587 1.502 1_554 S
C589 H575 0.960 . S
C589 H576 0.961 . S
C589 H577 0.959 . S
C589 C587 1.561 . S
C590 C587 1.526 1_554 S
C590 C591 1.396 . S
C590 C595 1.390 . S
C591 C585 1.465 1_554 S
C591 C590 1.396 . S
C591 C592 1.399 . S
C592 H578 0.929 . S
C592 C591 1.399 . S
C592 C593 1.385 . S
C593 H579 0.931 . S
C593 C592 1.385 . S
C593 C594 1.389 . S
C594 C593 1.389 . S
C594 C595 1.387 . S
C595 H580 0.930 . S
C595 C590 1.390 . S
C595 C594 1.387 . S
H596 C608 0.930 . S
H597 C610 0.930 . S
H598 C611 0.930 . S
H599 C615 0.959 . S
H600 C615 0.959 . S
H601 C615 0.961 . S
H602 C616 0.960 1_455 S
H603 C616 0.961 . S
H604 C616 0.959 . S
H605 C619 0.929 . S
H606 C620 0.931 . S
H607 C622 0.930 . S
C608 H596 0.930 . S
C608 C609 1.399 . S
C608 C613 1.399 . S
C609 C608 1.399 . S
C609 C610 1.376 . S
C610 H597 0.930 . S
C610 C609 1.376 . S
C610 C611 1.388 1_455 S
C611 H598 0.930 . S
C611 C610 1.388 1_655 S
C611 C612 1.390 . S
C612 C611 1.390 . S
C612 C613 1.394 1_655 S
C612 C618 1.465 . S
C613 C608 1.399 . S
C613 C612 1.394 1_455 S
C613 C614 1.516 . S
C614 C613 1.516 . S
C614 C615 1.502 . S
C614 C616 1.561 1_455 S
C614 C617 1.526 1_455 S
C615 H599 0.959 . S
C615 H600 0.959 . S
C615 H601 0.961 . S
C615 C614 1.502 . S
C616 H602 0.960 1_655 S
C616 H603 0.961 . S
C616 H604 0.959 . S
C616 C614 1.561 1_655 S
C617 C614 1.526 1_655 S
C617 C618 1.396 . S
C617 C622 1.390 . S
C618 C612 1.465 . S
C618 C617 1.396 . S
C618 C619 1.399 . S
C619 H605 0.929 . S
C619 C618 1.399 . S
C619 C620 1.385 . S
C620 H606 0.931 . S
C620 C619 1.385 . S
C620 C621 1.389 . S
C621 C620 1.389 . S
C621 C622 1.387 . S
C622 H607 0.930 . S
C622 C617 1.390 . S
C622 C621 1.387 . S
H623 C635 0.930 . S
H624 C637 0.930 . S
H625 C638 0.930 . S
H626 C642 0.959 . S
H627 C642 0.959 . S
H628 C642 0.961 . S
H629 C643 0.960 . S
H630 C643 0.963 1_655 S
H631 C643 0.959 . S
H632 C646 0.929 . S
H633 C647 0.931 . S
H634 C649 0.930 . S
C635 H623 0.930 . S
C635 C636 1.399 . S
C635 C640 1.399 . S
C636 C635 1.399 . S
C636 C637 1.376 . S
C637 H624 0.930 . S
C637 C636 1.376 . S
C637 C638 1.388 . S
C638 H625 0.930 . S
C638 C637 1.388 . S
C638 C639 1.390 . S
C639 C638 1.390 . S
C639 C640 1.394 . S
C639 C645 1.465 . S
C640 C635 1.399 . S
C640 C639 1.394 . S
C640 C641 1.516 1_455 S
C641 C640 1.516 1_655 S
C641 C642 1.502 . S
C641 C643 1.561 1_655 S
C641 C644 1.526 . S
C642 H626 0.959 . S
C642 H627 0.959 . S
C642 H628 0.961 . S
C642 C641 1.502 . S
C643 H629 0.960 . S
C643 H630 0.963 1_455 S
C643 H631 0.959 . S
C643 C641 1.561 1_455 S
C644 C641 1.526 . S
C644 C645 1.396 1_655 S
C644 C649 1.390 . S
C645 C639 1.465 . S
C645 C644 1.396 1_455 S
C645 C646 1.399 . S
C646 H632 0.929 . S
C646 C645 1.399 . S
C646 C647 1.385 1_455 S
C647 H633 0.931 . S
C647 C646 1.385 1_655 S
C647 C648 1.389 . S
C648 C647 1.389 . S
C648 C649 1.387 . S
C649 H634 0.930 . S
C649 C644 1.390 . S
C649 C648 1.387 . S
H650 C662 0.930 . S
H651 C664 0.930 . S
H652 C665 0.930 . S
H653 C669 0.959 . S
H654 C669 0.959 . S
H655 C669 0.961 . S
H656 C670 0.960 . S
H657 C670 0.961 1_655 S
H658 C670 0.959 . S
H659 C673 0.929 . S
H660 C674 0.931 1_554 S
H661 C676 0.930 . S
C662 H650 0.930 . S
C662 C663 1.399 . S
C662 C667 1.399 . S
C663 C662 1.399 . S
C663 C664 1.376 . S
C664 H651 0.930 . S
C664 C663 1.376 . S
C664 C665 1.388 . S
C665 H652 0.930 . S
C665 C664 1.388 . S
C665 C666 1.390 . S
C666 C665 1.390 . S
C666 C667 1.394 . S
C666 C672 1.465 1_455 S
C667 C662 1.399 . S
C667 C666 1.394 . S
C667 C668 1.516 1_455 S
C668 C667 1.516 1_655 S
C668 C669 1.502 . S
C668 C670 1.561 1_655 S
C668 C671 1.526 . S
C669 H653 0.959 . S
C669 H654 0.959 . S
C669 H655 0.961 . S
C669 C668 1.502 . S
C670 H656 0.960 . S
C670 H657 0.961 1_455 S
C670 H658 0.959 . S
C670 C668 1.561 1_455 S
C671 C668 1.526 . S
C671 C672 1.396 . S
C671 C676 1.390 . S
C672 C666 1.465 1_655 S
C672 C671 1.396 . S
C672 C673 1.399 . S
C673 H659 0.929 . S
C673 C672 1.399 . S
C673 C674 1.385 . S
C674 H660 0.931 1_556 S
C674 C673 1.385 . S
C674 C675 1.389 . S
C675 C674 1.389 . S
C675 C676 1.387 . S
C676 H661 0.930 . S
C676 C671 1.390 . S
C676 C675 1.387 . S
H677 C689 0.930 . S
H678 C691 0.930 . S
H679 C692 0.930 . S
H680 C696 0.959 . S
H681 C696 0.959 . S
H682 C696 0.961 1_455 S
H683 C697 0.960 . S
H684 C697 0.961 . S
H685 C697 0.959 . S
H686 C700 0.929 . S
H687 C701 0.931 . S
H688 C703 0.930 . S
C689 H677 0.930 . S
C689 C690 1.399 . S
C689 C694 1.399 . S
C690 C689 1.399 . S
C690 C691 1.376 . S
C691 H678 0.930 . S
C691 C690 1.376 . S
C691 C692 1.388 . S
C692 H679 0.930 . S
C692 C691 1.388 . S
C692 C693 1.390 . S
C693 C692 1.390 . S
C693 C694 1.394 . S
C693 C699 1.465 1_455 S
C694 C689 1.399 . S
C694 C693 1.394 . S
C694 C695 1.516 . S
C695 C694 1.516 . S
C695 C696 1.502 1_455 S
C695 C697 1.561 . S
C695 C698 1.526 1_455 S
C696 H680 0.959 . S
C696 H681 0.959 . S
C696 H682 0.961 1_655 S
C696 C695 1.502 1_655 S
C697 H683 0.960 . S
C697 H684 0.961 . S
C697 H685 0.959 . S
C697 C695 1.561 . S
C698 C695 1.526 1_655 S
C698 C699 1.396 . S
C698 C703 1.390 . S
C699 C693 1.465 1_655 S
C699 C698 1.396 . S
C699 C700 1.399 . S
C700 H686 0.929 . S
C700 C699 1.399 . S
C700 C701 1.385 . S
C701 H687 0.931 . S
C701 C700 1.385 . S
C701 C702 1.389 . S
C702 C701 1.389 . S
C702 C703 1.387 . S
C703 H688 0.930 . S
C703 C698 1.390 . S
C703 C702 1.387 . S
H704 C716 0.930 . S
H705 C718 0.930 . S
H706 C719 0.930 . S
H707 C723 0.959 . S
H708 C723 0.959 . S
H709 C723 0.961 . S
H710 C724 0.960 . S
H711 C724 0.961 . S
H712 C724 0.959 . S
H713 C727 0.929 . S
H714 C728 0.931 . S
H715 C730 0.930 . S
C716 H704 0.930 . S
C716 C717 1.399 1_556 S
C716 C721 1.399 . S
C717 C716 1.399 1_554 S
C717 C718 1.376 . S
C718 H705 0.930 . S
C718 C717 1.376 . S
C718 C719 1.388 1_554 S
C719 H706 0.930 . S
C719 C718 1.388 1_556 S
C719 C720 1.390 . S
C720 C719 1.390 . S
C720 C721 1.394 . S
C720 C726 1.465 . S
C721 C716 1.399 . S
C721 C720 1.394 . S
C721 C722 1.516 . S
C722 C721 1.516 . S
C722 C723 1.502 . S
C722 C724 1.561 . S
C722 C725 1.526 . S
C723 H707 0.959 . S
C723 H708 0.959 . S
C723 H709 0.961 . S
C723 C722 1.502 . S
C724 H710 0.960 . S
C724 H711 0.961 . S
C724 H712 0.959 . S
C724 C722 1.561 . S
C725 C722 1.526 . S
C725 C726 1.396 . S
C725 C730 1.390 . S
C726 C720 1.465 . S
C726 C725 1.396 . S
C726 C727 1.399 . S
C727 H713 0.929 . S
C727 C726 1.399 . S
C727 C728 1.385 . S
C728 H714 0.931 . S
C728 C727 1.385 . S
C728 C729 1.389 . S
C729 C728 1.389 . S
C729 C730 1.387 . S
C730 H715 0.930 . S
C730 C725 1.390 . S
C730 C729 1.387 . S
H731 C743 0.930 . S
H732 C745 0.930 . S
H733 C746 0.930 . S
H734 C750 0.959 . S
H735 C750 0.959 . S
H736 C750 0.961 . S
H737 C751 0.960 . S
H738 C751 0.961 . S
H739 C751 0.959 . S
H740 C754 0.929 . S
H741 C755 0.931 . S
H742 C757 0.930 . S
C743 H731 0.930 . S
C743 C744 1.399 . S
C743 C748 1.399 . S
C744 C743 1.399 . S
C744 C745 1.376 . S
C745 H732 0.930 . S
C745 C744 1.376 . S
C745 C746 1.388 . S
C746 H733 0.930 . S
C746 C745 1.388 . S
C746 C747 1.390 . S
C747 C746 1.390 . S
C747 C748 1.394 . S
C747 C753 1.465 . S
C748 C743 1.399 . S
C748 C747 1.394 . S
C748 C749 1.516 . S
C749 C748 1.516 . S
C749 C750 1.502 . S
C749 C751 1.561 . S
C749 C752 1.526 . S
C750 H734 0.959 . S
C750 H735 0.959 . S
C750 H736 0.961 . S
C750 C749 1.502 . S
C751 H737 0.960 . S
C751 H738 0.961 . S
C751 H739 0.959 . S
C751 C749 1.561 . S
C752 C749 1.526 . S
C752 C753 1.396 . S
C752 C757 1.390 . S
C753 C747 1.465 . S
C753 C752 1.396 . S
C753 C754 1.399 . S
C754 H740 0.929 . S
C754 C753 1.399 . S
C754 C755 1.385 1_556 S
C755 H741 0.931 . S
C755 C754 1.385 1_554 S
C755 C756 1.389 . S
C756 C755 1.389 . S
C756 C757 1.387 1_554 S
C757 H742 0.930 . S
C757 C752 1.390 . S
C757 C756 1.387 1_556 S
H758 C770 0.930 . S
H759 C772 0.930 . S
H760 C773 0.930 . S
H761 C777 0.959 . S
H762 C777 0.959 . S
H763 C777 0.961 . S
H764 C778 0.960 . S
H765 C778 0.961 . S
H766 C778 0.959 . S
H767 C781 0.929 . S
H768 C782 0.931 . S
H769 C784 0.930 . S
C770 H758 0.930 . S
C770 C771 1.399 . S
C770 C775 1.399 . S
C771 C770 1.399 . S
C771 C772 1.376 . S
C772 H759 0.930 . S
C772 C771 1.376 . S
C772 C773 1.388 . S
C773 H760 0.930 . S
C773 C772 1.388 . S
C773 C774 1.390 . S
C774 C773 1.390 . S
C774 C775 1.394 . S
C774 C780 1.465 . S
C775 C770 1.399 . S
C775 C774 1.394 . S
C775 C776 1.516 . S
C776 C775 1.516 . S
C776 C777 1.502 . S
C776 C778 1.561 . S
C776 C779 1.526 . S
C777 H761 0.959 . S
C777 H762 0.959 . S
C777 H763 0.961 . S
C777 C776 1.502 . S
C778 H764 0.960 . S
C778 H765 0.961 . S
C778 H766 0.959 . S
C778 C776 1.561 . S
C779 C776 1.526 . S
C779 C780 1.396 . S
C779 C784 1.390 . S
C780 C774 1.465 . S
C780 C779 1.396 . S
C780 C781 1.399 . S
C781 H767 0.929 . S
C781 C780 1.399 . S
C781 C782 1.385 . S
C782 H768 0.931 . S
C782 C781 1.385 . S
C782 C783 1.389 . S
C783 C782 1.389 . S
C783 C784 1.387 . S
C784 H769 0.930 . S
C784 C779 1.390 . S
C784 C783 1.387 . S
H785 C797 0.930 . S
H786 C799 0.930 . S
H787 C800 0.930 . S
H788 C804 0.959 . S
H789 C804 0.959 . S
H790 C804 0.961 . S
H791 C805 0.960 . S
H792 C805 0.961 . S
H793 C805 0.959 . S
H794 C808 0.929 . S
H795 C809 0.931 . S
H796 C811 0.930 . S
C797 H785 0.930 . S
C797 C798 1.399 . S
C797 C802 1.399 . S
C798 C797 1.399 . S
C798 C799 1.376 . S
C799 H786 0.930 . S
C799 C798 1.376 . S
C799 C800 1.388 . S
C800 H787 0.930 . S
C800 C799 1.388 . S
C800 C801 1.390 . S
C801 C800 1.390 . S
C801 C802 1.394 . S
C801 C807 1.465 . S
C802 C797 1.399 . S
C802 C801 1.394 . S
C802 C803 1.516 . S
C803 C802 1.516 . S
C803 C804 1.502 . S
C803 C805 1.561 . S
C803 C806 1.526 . S
C804 H788 0.959 . S
C804 H789 0.959 . S
C804 H790 0.961 . S
C804 C803 1.502 . S
C805 H791 0.960 . S
C805 H792 0.961 . S
C805 H793 0.959 . S
C805 C803 1.561 . S
C806 C803 1.526 . S
C806 C807 1.396 . S
C806 C811 1.390 . S
C807 C801 1.465 . S
C807 C806 1.396 . S
C807 C808 1.399 . S
C808 H794 0.929 . S
C808 C807 1.399 . S
C808 C809 1.385 . S
C809 H795 0.931 . S
C809 C808 1.385 . S
C809 C810 1.389 . S
C810 C809 1.389 . S
C810 C811 1.387 . S
C811 H796 0.930 . S
C811 C806 1.390 . S
C811 C810 1.387 . S
C285 C33 1.567 . S
C297 C67 1.544 . S
C312 C135 1.567 . S
C324 C101 1.544 . S
C339 C169 1.570 . S
C351 C203 1.540 . S
C366 C271 1.534 . S
C378 C237 1.568 . S
C393 C179 1.419 . S
C405 C20 1.473 . S
C420 C145 1.392 . S
C432 C54 1.500 . S
C447 C247 1.433 . S
C459 C88 1.472 . S
C474 C122 1.482 . S
C486 C213 1.441 . S
C501 C43 1.390 . S
C513 C156 1.479 . S
C528 C9 1.396 . S
C540 C190 1.478 . S
C555 C224 1.495 . S
C567 C111 1.347 . S
C582 C77 1.430 . S
C594 C258 1.472 . S
C609 C5 1.468 . S
C621 C107 1.437 . S
C636 C73 1.431 . S
C648 C39 1.461 . S
C663 C70 1.011 . S
C675 C36 1.012 1_556 S
C690 C2 1.021 1_556 S
C702 C104 1.020 . S
C717 C243 1.467 . S
C729 C141 1.438 . S
C744 C175 1.432 . S
C756 C209 1.459 . S
C771 C206 0.917 . S
C783 C172 0.917 . S
C798 C138 1.021 . S
C810 C240 1.021 . S
