# Generated by pormake.
# Topology uki, (4)-cn, num edge types: 1
# Building blocks:
#     Node 0, Type 0, BuildingBlock: KUFVIS_clean_sbu_0, # of connection points: 4
#     Node 1, Type 0, BuildingBlock: KUFVIS_clean_sbu_0, # of connection points: 4
#     Node 2, Type 0, BuildingBlock: KUFVIS_clean_sbu_0, # of connection points: 4
#     Node 3, Type 0, BuildingBlock: KUFVIS_clean_sbu_0, # of connection points: 4
#     Node 4, Type 0, BuildingBlock: KUFVIS_clean_sbu_0, # of connection points: 4
#     Node 5, Type 0, BuildingBlock: KUFVIS_clean_sbu_0, # of connection points: 4
#     Node 6, Type 0, BuildingBlock: KUFVIS_clean_sbu_0, # of connection points: 4
#     Node 7, Type 0, BuildingBlock: KUFVIS_clean_sbu_0, # of connection points: 4
#     Node 8, Type 0, BuildingBlock: KUFVIS_clean_sbu_0, # of connection points: 4
#     Node 9, Type 0, BuildingBlock: KUFVIS_clean_sbu_0, # of connection points: 4
#     Node 10, Type 0, BuildingBlock: KUFVIS_clean_sbu_0, # of connection points: 4
#     Node 11, Type 0, BuildingBlock: KUFVIS_clean_sbu_0, # of connection points: 4
#     Node 12, Type 0, BuildingBlock: KUFVIS_clean_sbu_0, # of connection points: 4
#     Node 13, Type 0, BuildingBlock: KUFVIS_clean_sbu_0, # of connection points: 4
#     Node 14, Type 0, BuildingBlock: KUFVIS_clean_sbu_0, # of connection points: 4
#     Node 15, Type 0, BuildingBlock: KUFVIS_clean_sbu_0, # of connection points: 4
#     Edge 16, Type (0, 0), BuildingBlock: CIFDUS_clean_linker_0, # of connection points: 2
#     Edge 17, Type (0, 0), BuildingBlock: CIFDUS_clean_linker_0, # of connection points: 2
#     Edge 18, Type (0, 0), BuildingBlock: CIFDUS_clean_linker_0, # of connection points: 2
#     Edge 19, Type (0, 0), BuildingBlock: CIFDUS_clean_linker_0, # of connection points: 2
#     Edge 20, Type (0, 0), BuildingBlock: CIFDUS_clean_linker_0, # of connection points: 2
#     Edge 21, Type (0, 0), BuildingBlock: CIFDUS_clean_linker_0, # of connection points: 2
#     Edge 22, Type (0, 0), BuildingBlock: CIFDUS_clean_linker_0, # of connection points: 2
#     Edge 23, Type (0, 0), BuildingBlock: CIFDUS_clean_linker_0, # of connection points: 2
#     Edge 24, Type (0, 0), BuildingBlock: CIFDUS_clean_linker_0, # of connection points: 2
#     Edge 25, Type (0, 0), BuildingBlock: CIFDUS_clean_linker_0, # of connection points: 2
#     Edge 26, Type (0, 0), BuildingBlock: CIFDUS_clean_linker_0, # of connection points: 2
#     Edge 27, Type (0, 0), BuildingBlock: CIFDUS_clean_linker_0, # of connection points: 2
#     Edge 28, Type (0, 0), BuildingBlock: CIFDUS_clean_linker_0, # of connection points: 2
#     Edge 29, Type (0, 0), BuildingBlock: CIFDUS_clean_linker_0, # of connection points: 2
#     Edge 30, Type (0, 0), BuildingBlock: CIFDUS_clean_linker_0, # of connection points: 2
#     Edge 31, Type (0, 0), BuildingBlock: CIFDUS_clean_linker_0, # of connection points: 2
#     Edge 32, Type (0, 0), BuildingBlock: CIFDUS_clean_linker_0, # of connection points: 2
#     Edge 33, Type (0, 0), BuildingBlock: CIFDUS_clean_linker_0, # of connection points: 2
#     Edge 34, Type (0, 0), BuildingBlock: CIFDUS_clean_linker_0, # of connection points: 2
#     Edge 35, Type (0, 0), BuildingBlock: CIFDUS_clean_linker_0, # of connection points: 2
#     Edge 36, Type (0, 0), BuildingBlock: CIFDUS_clean_linker_0, # of connection points: 2
#     Edge 37, Type (0, 0), BuildingBlock: CIFDUS_clean_linker_0, # of connection points: 2
#     Edge 38, Type (0, 0), BuildingBlock: CIFDUS_clean_linker_0, # of connection points: 2
#     Edge 39, Type (0, 0), BuildingBlock: CIFDUS_clean_linker_0, # of connection points: 2
#     Edge 40, Type (0, 0), BuildingBlock: CIFDUS_clean_linker_0, # of connection points: 2
#     Edge 41, Type (0, 0), BuildingBlock: CIFDUS_clean_linker_0, # of connection points: 2
#     Edge 42, Type (0, 0), BuildingBlock: CIFDUS_clean_linker_0, # of connection points: 2
#     Edge 43, Type (0, 0), BuildingBlock: CIFDUS_clean_linker_0, # of connection points: 2
#     Edge 44, Type (0, 0), BuildingBlock: CIFDUS_clean_linker_0, # of connection points: 2
#     Edge 45, Type (0, 0), BuildingBlock: CIFDUS_clean_linker_0, # of connection points: 2
#     Edge 46, Type (0, 0), BuildingBlock: CIFDUS_clean_linker_0, # of connection points: 2
#     Edge 47, Type (0, 0), BuildingBlock: CIFDUS_clean_linker_0, # of connection points: 2
# Relax obj value: 0.140
# Max RMSD: 0.245
# Mean RMSD: 0.245
data_MOF--net-uki--node1-KUFVIS_clean_sbu_0--edge1-CIFDUS_clean_linker_0
_symmetry_space_group_name_H-M    P1
_symmetry_Int_Tables_number       1
_symmetry_cell_setting            triclinic
loop_
_symmetry_equiv_pos_as_xyz
'x, y, z'
_cell_length_a     27.126651
_cell_length_b     27.161815
_cell_length_c     58.997125
_cell_angle_alpha  89.872836
_cell_angle_beta   90.035208
_cell_angle_gamma 90.091654
loop_
_atom_site_label
_atom_site_type_symbol
_atom_site_fract_x
_atom_site_fract_y
_atom_site_fract_z
_atom_type_partial_charge
Mn0 Mn 0.07343 0.24906 0.30258 0.0
Mn1 Mn 0.00891 0.25806 0.35107 0.0
C2 C 0.99022 0.26626 0.30132 0.0
C3 C 0.12045 0.28834 0.27495 0.0
C4 C 0.03632 0.16052 0.32976 0.0
O5 O 0.12747 0.25514 0.32648 0.0
O6 O 0.081 0.26339 0.35784 0.0
C7 C 0.03195 0.36206 0.36166 0.0
N8 N 0.99809 0.32623 0.35729 0.0
C9 C 0.93128 0.38408 0.36013 0.0
C10 C 0.96542 0.42152 0.36483 0.0
C11 C 0.01596 0.41045 0.36558 0.0
C12 C 0.94935 0.33645 0.35658 0.0
H13 H 0.07087 0.35382 0.36206 0.0
C14 C 0.12299 0.26113 0.34785 0.0
O15 O 0.12339 0.24089 0.27763 0.0
O16 O 0.0925 0.31237 0.28874 0.0
N17 N 0.93903 0.25407 0.34688 0.0
C18 C 0.91117 0.21435 0.34092 0.0
C19 C 0.85989 0.21957 0.33874 0.0
C20 C 0.8378 0.26546 0.34276 0.0
C21 C 0.86719 0.30571 0.34903 0.0
C22 C 0.91805 0.2982 0.35114 0.0
H23 H 0.92799 0.17908 0.33764 0.0
O24 O 0.01263 0.24865 0.28373 0.0
O25 O 0.01771 0.27414 0.31906 0.0
O26 O 0.05893 0.17787 0.31247 0.0
O27 O 0.01736 0.18702 0.34536 0.0
C28 C 0.84813 0.35319 0.35283 0.0
C29 C 0.88015 0.39235 0.35838 0.0
H30 H 0.95327 0.45897 0.36768 0.0
H31 H 0.04255 0.43921 0.36906 0.0
H32 H 0.83747 0.18836 0.33383 0.0
H33 H 0.79829 0.26945 0.34083 0.0
H34 H 0.80895 0.36013 0.35129 0.0
H35 H 0.86511 0.42881 0.36101 0.0
Mn36 Mn 0.23247 0.90532 0.70458 0.0
Mn37 Mn 0.2395 0.97703 0.65804 0.0
C38 C 0.24951 0.98813 0.70819 0.0
C39 C 0.27347 0.85354 0.72995 0.0
C40 C 0.14264 0.94453 0.67894 0.0
O41 O 0.23778 0.85554 0.67889 0.0
O42 O 0.24657 0.90655 0.64902 0.0
C43 C 0.34404 0.95883 0.64647 0.0
N44 N 0.30734 0.99081 0.65195 0.0
C45 C 0.36338 0.05955 0.65093 0.0
C46 C 0.4017 0.02739 0.6451 0.0
C47 C 0.39197 0.97681 0.64288 0.0
C48 C 0.31626 0.03957 0.65408 0.0
H49 H 0.33682 0.91986 0.64495 0.0
C50 C 0.24423 0.86326 0.65773 0.0
O51 O 0.22582 0.85094 0.72767 0.0
O52 O 0.29667 0.8845 0.71716 0.0
N53 N 0.23374 0.04586 0.66443 0.0
C54 C 0.19332 0.07152 0.67132 0.0
C55 C 0.19718 0.12244 0.67499 0.0
C56 C 0.24245 0.14645 0.67149 0.0
C57 C 0.28341 0.11934 0.66421 0.0
C58 C 0.27723 0.06876 0.6606 0.0
H59 H 0.15852 0.0532 0.67421 0.0
O60 O 0.23295 0.96314 0.72533 0.0
O61 O 0.25635 0.96343 0.6896 0.0
O62 O 0.16058 0.92062 0.69575 0.0
O63 O 0.16869 0.96555 0.66367 0.0
C64 C 0.33037 0.14034 0.66083 0.0
C65 C 0.37032 0.11047 0.6542 0.0
H66 H 0.43882 0.04105 0.6425 0.0
H67 H 0.42142 0.95172 0.63852 0.0
H68 H 0.16542 0.14309 0.68066 0.0
H69 H 0.24541 0.18563 0.6746 0.0
H70 H 0.33629 0.17933 0.66356 0.0
H71 H 0.40637 0.12695 0.65191 0.0
Mn72 Mn 0.9211 0.7834 0.29953 0.0
Mn73 Mn 0.99356 0.78551 0.34597 0.0
C74 C 0.00484 0.77229 0.29582 0.0
C75 C 0.8709 0.73865 0.27508 0.0
C76 C 0.95854 0.87799 0.32214 0.0
O77 O 0.87154 0.7774 0.32524 0.0
O78 O 0.92283 0.77865 0.35512 0.0
C79 C 0.97582 0.68242 0.36027 0.0
N80 N 0.00774 0.71885 0.35414 0.0
C81 C 0.07709 0.66413 0.35742 0.0
C82 C 0.04499 0.62613 0.36393 0.0
C83 C 0.99414 0.63533 0.36533 0.0
C84 C 0.05673 0.71039 0.35271 0.0
H85 H 0.93666 0.68916 0.36118 0.0
C86 C 0.87946 0.77611 0.34652 0.0
O87 O 0.86619 0.78614 0.27674 0.0
O88 O 0.90327 0.71756 0.28793 0.0
N89 N 0.06272 0.79144 0.34011 0.0
C90 C 0.08856 0.83166 0.33298 0.0
C91 C 0.13989 0.82834 0.3303 0.0
C92 C 0.16415 0.78392 0.33519 0.0
C93 C 0.13692 0.74334 0.34295 0.0
C94 C 0.0859 0.74896 0.3455 0.0
H95 H 0.07011 0.86586 0.32911 0.0
O96 O 0.97823 0.78512 0.27853 0.0
O97 O 0.98122 0.76439 0.31474 0.0
O98 O 0.93266 0.8565 0.30693 0.0
O99 O 0.98183 0.85498 0.33778 0.0
C100 C 0.15827 0.69729 0.34787 0.0
C101 C 0.12836 0.65768 0.35506 0.0
H102 H 0.05893 0.58968 0.36771 0.0
H103 H 0.9691 0.60611 0.37021 0.0
H104 H 0.16066 0.85986 0.32436 0.0
H105 H 0.20367 0.78135 0.33286 0.0
H106 H 0.19758 0.69176 0.34594 0.0
H107 H 0.14513 0.6223 0.35853 0.0
Mn108 Mn 0.76576 0.06835 0.70392 0.0
Mn109 Mn 0.76835 0.99867 0.65675 0.0
C110 C 0.74623 0.98583 0.70604 0.0
C111 C 0.72217 0.12114 0.72757 0.0
C112 C 0.86029 0.02581 0.6833 0.0
O113 O 0.7671 0.11925 0.67862 0.0
O114 O 0.76685 0.06999 0.64804 0.0
C115 C 0.6685 0.02293 0.6398 0.0
N116 N 0.70195 0.98879 0.64683 0.0
C117 C 0.6431 0.92319 0.64212 0.0
C118 C 0.60817 0.95761 0.63466 0.0
C119 C 0.62093 0.0077 0.63352 0.0
C120 C 0.69004 0.94049 0.64801 0.0
H121 H 0.67796 0.06153 0.63908 0.0
C122 C 0.76665 0.11279 0.65722 0.0
O123 O 0.77008 0.12161 0.72737 0.0
O124 O 0.70007 0.09118 0.7139 0.0
N125 N 0.76907 0.92924 0.66248 0.0
C126 C 0.80651 0.90091 0.67068 0.0
C127 C 0.79938 0.84998 0.67327 0.0
C128 C 0.754 0.82869 0.66729 0.0
C129 C 0.71629 0.85846 0.65856 0.0
C130 C 0.72569 0.90892 0.65614 0.0
H131 H 0.84139 0.91707 0.67543 0.0
O132 O 0.75931 0.0098 0.72407 0.0
O133 O 0.7438 0.01137 0.68737 0.0
O134 O 0.83865 0.05147 0.69847 0.0
O135 O 0.83764 0.00575 0.66666 0.0
C136 C 0.6695 0.84016 0.65249 0.0
C137 C 0.63291 0.8725 0.6443 0.0
H138 H 0.57133 0.94606 0.62995 0.0
H139 H 0.59408 0.03452 0.62791 0.0
H140 H 0.82868 0.82725 0.68 0.0
H141 H 0.74847 0.78948 0.66954 0.0
H142 H 0.66111 0.80133 0.65424 0.0
H143 H 0.59692 0.85806 0.63989 0.0
Mn144 Mn 0.08324 0.2687 0.95918 0.0
Mn145 Mn 0.00776 0.262 0.91391 0.0
C146 C 0.99989 0.25905 0.96471 0.0
C147 C 0.13484 0.22699 0.98429 0.0
C148 C 0.04581 0.35837 0.93274 0.0
O149 O 0.13075 0.25865 0.933 0.0
O150 O 0.07764 0.25261 0.90391 0.0
C151 C 0.0229 0.1562 0.90428 0.0
N152 N 0.99202 0.19413 0.90929 0.0
C153 C 0.92191 0.13977 0.91032 0.0
C154 C 0.95291 0.10018 0.905 0.0
C155 C 0.00362 0.10845 0.90198 0.0
C156 C 0.94317 0.18659 0.91223 0.0
H157 H 0.06197 0.16231 0.90217 0.0
C158 C 0.12157 0.253 0.91198 0.0
O159 O 0.14007 0.27409 0.981 0.0
O160 O 0.10123 0.20465 0.97266 0.0
N161 N 0.93928 0.27012 0.92072 0.0
C162 C 0.91468 0.31202 0.9264 0.0
C163 C 0.86368 0.30993 0.93038 0.0
C164 C 0.8385 0.26493 0.92833 0.0
C165 C 0.86446 0.22249 0.92207 0.0
C166 C 0.91517 0.22692 0.91808 0.0
H167 H 0.9339 0.34665 0.92813 0.0
O168 O 0.02802 0.27433 0.98102 0.0
O169 O 0.02197 0.24762 0.94579 0.0
O170 O 0.07123 0.3403 0.94906 0.0
O171 O 0.02154 0.3326 0.91842 0.0
C172 C 0.8422 0.17581 0.92001 0.0
C173 C 0.87091 0.13447 0.91418 0.0
H174 H 0.93824 0.06324 0.90337 0.0
H175 H 0.02782 0.07803 0.898 0.0
H176 H 0.84388 0.34286 0.93517 0.0
H177 H 0.79926 0.26336 0.93167 0.0
H178 H 0.8031 0.1712 0.92311 0.0
H179 H 0.85346 0.09869 0.91288 0.0
Mn180 Mn 0.27196 0.91855 0.04612 0.0
Mn181 Mn 0.25745 0.97896 0.09535 0.0
C182 C 0.25004 1.00039 0.04557 0.0
C183 C 0.23559 0.86862 0.01876 0.0
C184 C 0.35753 0.95849 0.07447 0.0
O185 O 0.26883 0.86353 0.06942 0.0
O186 O 0.25551 0.9063 0.1014 0.0
C187 C 0.15414 0.9499 0.10452 0.0
N188 N 0.1884 0.98581 0.10095 0.0
C189 C 0.12676 0.04914 0.10369 0.0
C190 C 0.0909 0.01286 0.10759 0.0
C191 C 0.10467 0.96303 0.10799 0.0
C192 C 0.17558 0.03388 0.10058 0.0
H193 H 0.16446 0.91152 0.10462 0.0
C194 C 0.26119 0.86559 0.0907 0.0
O195 O 0.28326 0.8691 0.02126 0.0
O196 O 0.20993 0.89604 0.03214 0.0
N197 N 0.25796 0.04909 0.09201 0.0
C198 C 0.29655 0.07933 0.08692 0.0
C199 C 0.28869 0.1303 0.08522 0.0
C200 C 0.24135 0.14963 0.08883 0.0
C201 C 0.20232 0.11783 0.09425 0.0
C202 C 0.21245 0.06741 0.09594 0.0
H203 H 0.33292 0.06463 0.08394 0.0
O204 O 0.26893 0.97992 0.02774 0.0
O205 O 0.24346 0.97162 0.06302 0.0
O206 O 0.34209 0.93676 0.05657 0.0
O207 O 0.32925 0.97441 0.09018 0.0
C208 C 0.15357 0.13408 0.09761 0.0
C209 C 0.11582 0.09976 0.10233 0.0
H210 H 0.05263 0.0228 0.11008 0.0
H211 H 0.07716 0.93479 0.11084 0.0
H212 H 0.31898 0.1546 0.08098 0.0
H213 H 0.23534 0.18891 0.08725 0.0
H214 H 0.14459 0.17283 0.09635 0.0
H215 H 0.07839 0.11265 0.10462 0.0
Mn216 Mn 0.9228 0.73051 0.96548 0.0
Mn217 Mn 0.98234 0.73268 0.9154 0.0
C218 C 0.00472 0.75271 0.96426 0.0
C219 C 0.8728 0.77032 0.99152 0.0
C220 C 0.96401 0.63891 0.9421 0.0
O221 O 0.86707 0.72812 0.94257 0.0
O222 O 0.90933 0.73213 0.90986 0.0
C223 C 0.95145 0.83224 0.90063 0.0
N224 N 0.98799 0.79975 0.90581 0.0
C225 C 0.05046 0.86096 0.89885 0.0
C226 C 0.01351 0.89495 0.89328 0.0
C227 C 0.9638 0.88052 0.89419 0.0
C228 C 0.03595 0.81326 0.90498 0.0
H229 H 0.91316 0.82149 0.90149 0.0
C230 C 0.86873 0.73 0.921 0.0
O231 O 0.87447 0.72253 0.99088 0.0
O232 O 0.89937 0.79449 0.97706 0.0
N233 N 0.0527 0.7341 0.91803 0.0
C234 C 0.08382 0.69736 0.92459 0.0
C235 C 0.13483 0.70616 0.92505 0.0
C236 C 0.15335 0.75246 0.91865 0.0
C237 C 0.12068 0.78943 0.91163 0.0
C238 C 0.07023 0.7784 0.91131 0.0
H239 H 0.06983 0.66178 0.92966 0.0
O240 O 0.98478 0.73818 0.98311 0.0
O241 O 0.97545 0.75531 0.94676 0.0
O242 O 0.94114 0.65901 0.95858 0.0
O243 O 0.9796 0.66276 0.92479 0.0
C244 C 0.13614 0.83704 0.90528 0.0
C245 C 0.10106 0.87279 0.89891 0.0
H246 H 0.02285 0.93232 0.88845 0.0
H247 H 0.93506 0.90662 0.89004 0.0
H248 H 0.15981 0.67742 0.93047 0.0
H249 H 0.19268 0.75925 0.91926 0.0
H250 H 0.1749 0.8467 0.90544 0.0
H251 H 0.11337 0.9094 0.89427 0.0
Mn252 Mn 0.73668 0.07886 0.05084 0.0
Mn253 Mn 0.73123 0.01204 0.09888 0.0
C254 C 0.75436 0.99585 0.05024 0.0
C255 C 0.78277 0.12584 0.0255 0.0
C256 C 0.64072 0.03899 0.07138 0.0
O257 O 0.73644 0.13206 0.07521 0.0
O258 O 0.73256 0.08382 0.10624 0.0
C259 C 0.83029 0.03756 0.11648 0.0
N260 N 0.79718 0.00293 0.10958 0.0
C261 C 0.85602 0.93791 0.11545 0.0
C262 C 0.89062 0.97285 0.12277 0.0
C263 C 0.87768 0.02289 0.12328 0.0
C264 C 0.80924 0.95467 0.10905 0.0
H265 H 0.82073 0.07613 0.1167 0.0
C266 C 0.73463 0.12629 0.09669 0.0
O267 O 0.73494 0.12886 0.02566 0.0
O268 O 0.80327 0.09826 0.04067 0.0
N269 N 0.73064 0.94228 0.09425 0.0
C270 C 0.69353 0.91339 0.08612 0.0
C271 C 0.70087 0.86241 0.08416 0.0
C272 C 0.74613 0.84165 0.09067 0.0
C273 C 0.78351 0.87203 0.09929 0.0
C274 C 0.7739 0.92252 0.10107 0.0
H275 H 0.65879 0.92917 0.08094 0.0
O276 O 0.74149 0.01862 0.03186 0.0
O277 O 0.75716 0.02266 0.06844 0.0
O278 O 0.66321 0.06434 0.05627 0.0
O279 O 0.6625 0.01854 0.08818 0.0
C280 C 0.83017 0.85429 0.10585 0.0
C281 C 0.86641 0.88721 0.11391 0.0
H282 H 0.92733 0.96173 0.12787 0.0
H283 H 0.90426 0.05011 0.12878 0.0
H284 H 0.67184 0.8392 0.0775 0.0
H285 H 0.75184 0.80239 0.0889 0.0
H286 H 0.83872 0.81545 0.10459 0.0
H287 H 0.9023 0.87319 0.11872 0.0
Mn288 Mn 0.58266 0.71972 0.79192 0.0
Mn289 Mn 0.52254 0.73195 0.84141 0.0
C290 C 0.50052 0.74099 0.79167 0.0
C291 C 0.63262 0.75692 0.76479 0.0
C292 C 0.54369 0.633 0.8198 0.0
O293 O 0.63784 0.72237 0.81512 0.0
O294 O 0.59538 0.73453 0.84732 0.0
C295 C 0.55045 0.83513 0.85121 0.0
N296 N 0.51489 0.80062 0.84747 0.0
C297 C 0.45074 0.86127 0.85077 0.0
C298 C 0.48666 0.89739 0.85484 0.0
C299 C 0.53672 0.88424 0.85505 0.0
C300 C 0.46661 0.81284 0.84728 0.0
H301 H 0.589 0.8253 0.85116 0.0
C302 C 0.63603 0.72943 0.83644 0.0
O303 O 0.63214 0.70925 0.76701 0.0
O304 O 0.60501 0.78217 0.77827 0.0
N305 N 0.45232 0.73069 0.83822 0.0
C306 C 0.42248 0.69196 0.83296 0.0
C307 C 0.37134 0.69921 0.83144 0.0
C308 C 0.35142 0.74611 0.83541 0.0
C309 C 0.38283 0.78531 0.841 0.0
C310 C 0.43345 0.77577 0.84248 0.0
H311 H 0.43761 0.65591 0.82971 0.0
O312 O 0.52113 0.72299 0.77368 0.0
O313 O 0.52939 0.74721 0.80912 0.0
O314 O 0.56488 0.64928 0.80191 0.0
O315 O 0.52788 0.66045 0.83581 0.0
C316 C 0.36598 0.83365 0.84473 0.0
C317 C 0.39991 0.8716 0.84962 0.0
H318 H 0.47625 0.93539 0.85763 0.0
H319 H 0.56467 0.91196 0.85804 0.0
H320 H 0.34735 0.6688 0.82708 0.0
H321 H 0.31201 0.75167 0.83398 0.0
H322 H 0.32705 0.84216 0.84365 0.0
H323 H 0.38656 0.90873 0.85222 0.0
Mn324 Mn 0.73688 0.4307 0.20787 0.0
Mn325 Mn 0.7504 0.50053 0.16104 0.0
C326 C 0.76024 0.51189 0.21127 0.0
C327 C 0.77212 0.37644 0.23375 0.0
C328 C 0.65112 0.47794 0.18217 0.0
O329 O 0.73826 0.38001 0.1825 0.0
O330 O 0.75021 0.42937 0.15232 0.0
C331 C 0.85254 0.47122 0.14977 0.0
N332 N 0.81935 0.507 0.15501 0.0
C333 C 0.88242 0.56939 0.15404 0.0
C334 C 0.9172 0.53325 0.14847 0.0
C335 C 0.90218 0.48395 0.14634 0.0
C336 C 0.8334 0.55455 0.15709 0.0
H337 H 0.84126 0.43321 0.14833 0.0
C338 C 0.74457 0.38661 0.16128 0.0
O339 O 0.72453 0.37794 0.23116 0.0
O340 O 0.79854 0.40463 0.22091 0.0
N341 N 0.75177 0.56981 0.16692 0.0
C342 C 0.714 0.59991 0.17313 0.0
C343 C 0.72308 0.65032 0.17642 0.0
C344 C 0.77078 0.66925 0.17319 0.0
C345 C 0.8089 0.63767 0.1665 0.0
C346 C 0.79755 0.58787 0.16325 0.0
H347 H 0.67733 0.58551 0.1758 0.0
O348 O 0.7416 0.48845 0.22841 0.0
O349 O 0.76589 0.48645 0.19276 0.0
O350 O 0.66704 0.45197 0.19874 0.0
O351 O 0.67875 0.49661 0.16683 0.0
C352 C 0.85789 0.65351 0.16328 0.0
C353 C 0.89462 0.61939 0.15707 0.0
H354 H 0.95559 0.54286 0.14597 0.0
H355 H 0.92885 0.45581 0.14218 0.0
H356 H 0.69346 0.67445 0.18159 0.0
H357 H 0.77775 0.70805 0.17598 0.0
H358 H 0.86781 0.69178 0.16574 0.0
H359 H 0.93224 0.63193 0.15486 0.0
Mn360 Mn 0.4141 0.25851 0.79388 0.0
Mn361 Mn 0.48922 0.25825 0.83929 0.0
C362 C 0.49624 0.23866 0.78963 0.0
C363 C 0.35941 0.21602 0.77077 0.0
C364 C 0.45944 0.35158 0.81451 0.0
O365 O 0.36585 0.25849 0.82027 0.0
O366 O 0.41889 0.25663 0.84958 0.0
C367 C 0.46602 0.1578 0.85579 0.0
N368 N 0.49963 0.19135 0.84825 0.0
C369 C 0.56508 0.13181 0.85046 0.0
C370 C 0.53123 0.09674 0.85842 0.0
C371 C 0.48149 0.10981 0.86108 0.0
C372 C 0.5476 0.17917 0.84564 0.0
H373 H 0.42766 0.16749 0.85766 0.0
C374 C 0.37495 0.257 0.84148 0.0
O375 O 0.35861 0.26386 0.77148 0.0
O376 O 0.39034 0.1935 0.78384 0.0
N377 N 0.55793 0.25889 0.83187 0.0
C378 C 0.58557 0.2965 0.82329 0.0
C379 C 0.63601 0.28913 0.81921 0.0
C380 C 0.65753 0.2433 0.82406 0.0
C381 C 0.62849 0.20537 0.83316 0.0
C382 C 0.57852 0.21502 0.83711 0.0
H383 H 0.56919 0.33171 0.81938 0.0
O384 O 0.4704 0.25316 0.77237 0.0
O385 O 0.47277 0.23544 0.80882 0.0
O386 O 0.43188 0.33088 0.79973 0.0
O387 O 0.48153 0.32803 0.83034 0.0
C388 C 0.64698 0.15812 0.83813 0.0
C389 C 0.61529 0.12136 0.84676 0.0
H390 H 0.54293 0.05957 0.86235 0.0
H391 H 0.45508 0.08287 0.86708 0.0
H392 H 0.65818 0.31858 0.81217 0.0
H393 H 0.69633 0.23758 0.82063 0.0
H394 H 0.68542 0.14952 0.83517 0.0
H395 H 0.62984 0.08503 0.8503 0.0
Mn396 Mn 0.27565 0.5854 0.22207 0.0
Mn397 Mn 0.277 0.52346 0.17275 0.0
C398 C 0.26723 0.50124 0.22237 0.0
C399 C 0.22954 0.62844 0.24865 0.0
C400 C 0.37002 0.5559 0.19695 0.0
O401 O 0.26728 0.63959 0.19875 0.0
O402 O 0.26848 0.59565 0.16656 0.0
C403 C 0.17282 0.54157 0.1603 0.0
N404 N 0.21006 0.50944 0.16486 0.0
C405 C 0.15584 0.43996 0.16023 0.0
C406 C 0.11702 0.4723 0.15531 0.0
C407 C 0.12557 0.52332 0.15535 0.0
C408 C 0.20225 0.46027 0.16484 0.0
H409 H 0.17905 0.58083 0.16055 0.0
C410 C 0.26545 0.63667 0.17723 0.0
O411 O 0.27691 0.63537 0.24719 0.0
O412 O 0.20952 0.59814 0.23453 0.0
N413 N 0.2844 0.45369 0.17582 0.0
C414 C 0.32542 0.42754 0.18155 0.0
C415 C 0.32284 0.37596 0.18269 0.0
C416 C 0.27828 0.35181 0.17778 0.0
C417 C 0.2368 0.37945 0.17154 0.0
C418 C 0.24171 0.43074 0.17047 0.0
H419 H 0.35968 0.44592 0.18549 0.0
O420 O 0.28008 0.52468 0.24056 0.0
O421 O 0.25753 0.52831 0.20461 0.0
O422 O 0.34885 0.57778 0.21353 0.0
O423 O 0.34664 0.5353 0.18066 0.0
C424 C 0.19056 0.35819 0.16675 0.0
C425 C 0.1501 0.38842 0.16112 0.0
H426 H 0.08042 0.45839 0.15165 0.0
H427 H 0.09572 0.54853 0.15171 0.0
H428 H 0.35503 0.35488 0.18748 0.0
H429 H 0.2763 0.31204 0.17891 0.0
H430 H 0.18559 0.31864 0.16755 0.0
H431 H 0.11462 0.37167 0.15769 0.0
Mn432 Mn 0.58185 0.77639 0.46139 0.0
Mn433 Mn 0.50835 0.77315 0.41537 0.0
C434 C 0.49855 0.76357 0.4658 0.0
C435 C 0.63343 0.735 0.48638 0.0
C436 C 0.54173 0.86805 0.4373 0.0
O437 O 0.6309 0.76988 0.43559 0.0
O438 O 0.5791 0.76832 0.40589 0.0
C439 C 0.52907 0.6698 0.40271 0.0
N440 N 0.49615 0.70546 0.40847 0.0
C441 C 0.42869 0.64789 0.40698 0.0
C442 C 0.46182 0.61065 0.40086 0.0
C443 C 0.51223 0.62167 0.39873 0.0
C444 C 0.44757 0.69524 0.41058 0.0
H445 H 0.5679 0.67796 0.40127 0.0
C446 C 0.62268 0.76764 0.41436 0.0
O447 O 0.63716 0.78242 0.48382 0.0
O448 O 0.60135 0.71207 0.47406 0.0
N449 N 0.43921 0.77703 0.42158 0.0
C450 C 0.41226 0.81684 0.42813 0.0
C451 C 0.36121 0.81182 0.43135 0.0
C452 C 0.33836 0.76611 0.42763 0.0
C453 C 0.3667 0.72593 0.42046 0.0
C454 C 0.41735 0.73326 0.41731 0.0
H455 H 0.42965 0.85202 0.43112 0.0
O456 O 0.5253 0.77842 0.48267 0.0
O457 O 0.52187 0.75471 0.4469 0.0
O458 O 0.56858 0.8483 0.45266 0.0
O459 O 0.51815 0.8435 0.4223 0.0
C460 C 0.34682 0.6787 0.4167 0.0
C461 C 0.3778 0.63969 0.41 0.0
H462 H 0.44904 0.5734 0.39792 0.0
H463 H 0.53807 0.59306 0.39414 0.0
H464 H 0.33957 0.84304 0.43683 0.0
H465 H 0.29906 0.76225 0.43038 0.0
H466 H 0.30782 0.67185 0.41913 0.0
H467 H 0.36217 0.60342 0.40739 0.0
Mn468 Mn 0.76339 0.42664 0.54968 0.0
Mn469 Mn 0.7542 0.48989 0.59851 0.0
C470 C 0.74424 0.5093 0.54901 0.0
C471 C 0.72463 0.38054 0.5216 0.0
C472 C 0.85182 0.46565 0.57636 0.0
O473 O 0.75941 0.37177 0.57336 0.0
O474 O 0.75159 0.41771 0.60487 0.0
C475 C 0.65125 0.46302 0.6097 0.0
N476 N 0.6858 0.49817 0.60526 0.0
C477 C 0.62565 0.56274 0.60872 0.0
C478 C 0.58949 0.52725 0.6135 0.0
C479 C 0.60236 0.47718 0.61398 0.0
C480 C 0.67384 0.54646 0.6048 0.0
H481 H 0.66087 0.42446 0.60989 0.0
C482 C 0.75454 0.37596 0.59481 0.0
O483 O 0.77221 0.37833 0.52414 0.0
O484 O 0.70016 0.40662 0.53598 0.0
N485 N 0.7557 0.5599 0.59471 0.0
C486 C 0.79446 0.58929 0.5889 0.0
C487 C 0.78747 0.64037 0.58711 0.0
C488 C 0.74082 0.66069 0.59141 0.0
C489 C 0.70163 0.62975 0.59761 0.0
C490 C 0.71091 0.57917 0.59933 0.0
H491 H 0.8303 0.57383 0.58541 0.0
O492 O 0.76192 0.48792 0.53119 0.0
O493 O 0.73736 0.48121 0.56663 0.0
O494 O 0.83448 0.44253 0.55924 0.0
O495 O 0.82533 0.48396 0.59215 0.0
C496 C 0.65353 0.64702 0.60175 0.0
C497 C 0.61557 0.61354 0.6073 0.0
H498 H 0.55166 0.53799 0.61663 0.0
H499 H 0.5746 0.44955 0.61752 0.0
H500 H 0.81788 0.664 0.58229 0.0
H501 H 0.73545 0.70005 0.58978 0.0
H502 H 0.64522 0.68592 0.6005 0.0
H503 H 0.57863 0.6272 0.61022 0.0
Mn504 Mn 0.43404 0.23781 0.45381 0.0
Mn505 Mn 0.50259 0.24704 0.40645 0.0
C506 C 0.51809 0.24617 0.4568 0.0
C507 C 0.38776 0.27679 0.48152 0.0
C508 C 0.4673 0.14983 0.42536 0.0
O509 O 0.38267 0.25098 0.42949 0.0
O510 O 0.43118 0.25627 0.39874 0.0
C511 C 0.48508 0.35314 0.39821 0.0
N512 N 0.51697 0.31532 0.402 0.0
C513 C 0.58647 0.37051 0.40179 0.0
C514 C 0.5544 0.40999 0.3977 0.0
C515 C 0.50349 0.40125 0.39591 0.0
C516 C 0.56603 0.32332 0.40374 0.0
H517 H 0.44588 0.34669 0.39706 0.0
C518 C 0.38862 0.25678 0.40823 0.0
O519 O 0.38122 0.23021 0.47742 0.0
O520 O 0.41911 0.30041 0.46908 0.0
N521 N 0.57198 0.23935 0.41113 0.0
C522 C 0.59775 0.19747 0.41576 0.0
C523 C 0.64913 0.20001 0.41846 0.0
C524 C 0.67348 0.24544 0.41624 0.0
C525 C 0.64627 0.28789 0.41112 0.0
C526 C 0.5952 0.28303 0.4084 0.0
H527 H 0.57917 0.16251 0.41765 0.0
O528 O 0.49231 0.22936 0.47361 0.0
O529 O 0.49334 0.25972 0.43885 0.0
O530 O 0.44348 0.16729 0.44223 0.0
O531 O 0.49027 0.17605 0.41075 0.0
C532 C 0.66769 0.33496 0.409 0.0
C533 C 0.63781 0.37625 0.40437 0.0
H534 H 0.56841 0.44721 0.39609 0.0
H535 H 0.47848 0.43158 0.3929 0.0
H536 H 0.66988 0.16708 0.42239 0.0
H537 H 0.71305 0.24733 0.41856 0.0
H538 H 0.70706 0.3399 0.41111 0.0
H539 H 0.65465 0.41232 0.40299 0.0
Mn540 Mn 0.23217 0.56773 0.54256 0.0
Mn541 Mn 0.22731 0.49423 0.58852 0.0
C542 C 0.23893 0.48387 0.5384 0.0
C543 C 0.28025 0.61465 0.51796 0.0
C544 C 0.13618 0.53446 0.56536 0.0
O545 O 0.24091 0.61615 0.56845 0.0
O546 O 0.23686 0.56423 0.5981 0.0
C547 C 0.33121 0.50733 0.60271 0.0
N548 N 0.29355 0.47716 0.59633 0.0
C549 C 0.34606 0.40592 0.5982 0.0
C550 C 0.38529 0.43619 0.60497 0.0
C551 C 0.37782 0.48711 0.60723 0.0
C552 C 0.30033 0.4281 0.59412 0.0
H553 H 0.3258 0.54655 0.60424 0.0
C554 C 0.2413 0.60762 0.5897 0.0
O555 O 0.23313 0.62273 0.51961 0.0
O556 O 0.29904 0.58151 0.5311 0.0
N557 N 0.21867 0.42573 0.58205 0.0
C558 C 0.17743 0.40188 0.5747 0.0
C559 C 0.17898 0.35079 0.57118 0.0
C560 C 0.22275 0.32475 0.57538 0.0
C561 C 0.26446 0.34997 0.58331 0.0
C562 C 0.26056 0.40082 0.58674 0.0
H563 H 0.14377 0.42176 0.5713 0.0
O564 O 0.227 0.51148 0.52133 0.0
O565 O 0.24838 0.50657 0.55736 0.0
O566 O 0.15849 0.55991 0.55019 0.0
O567 O 0.15838 0.50922 0.5806 0.0
C568 C 0.30998 0.3268 0.58754 0.0
C569 C 0.35077 0.35476 0.59496 0.0
H570 H 0.4214 0.42079 0.6083 0.0
H571 H 0.408 0.51075 0.61231 0.0
H572 H 0.14661 0.33158 0.56509 0.0
H573 H 0.22396 0.28544 0.5724 0.0
H574 H 0.31417 0.28757 0.58493 0.0
H575 H 0.38571 0.33661 0.59792 0.0
H576 H 0.21855 0.30052 0.26733 0.0
H577 H 0.07462 0.33891 0.24213 0.0
H578 H 0.11019 0.40426 0.21878 0.0
H579 H 0.17883 0.4615 0.21279 0.0
H580 H 0.32215 0.42727 0.23977 0.0
H581 H 0.29083 0.34944 0.2551 0.0
C582 C 0.19553 0.32199 0.25599 0.0
C583 C 0.14427 0.31522 0.2563 0.0
C584 C 0.21607 0.36097 0.24334 0.0
C585 C 0.1143 0.34369 0.24199 0.0
C586 C 0.13453 0.38128 0.22881 0.0
C587 C 0.20362 0.43576 0.22103 0.0
C588 C 0.25279 0.44933 0.22481 0.0
C589 C 0.18493 0.39196 0.23033 0.0
C590 C 0.28425 0.41691 0.23642 0.0
C591 C 0.26626 0.37266 0.24531 0.0
H592 H 0.41518 0.70216 0.77592 0.0
H593 H 0.48158 0.83701 0.79926 0.0
H594 H 0.41134 0.88397 0.78499 0.0
H595 H 0.33907 0.88765 0.75996 0.0
H596 H 0.27197 0.7537 0.73605 0.0
H597 H 0.33392 0.70501 0.75661 0.0
C598 C 0.41322 0.74164 0.7785 0.0
C599 C 0.45286 0.76617 0.78895 0.0
C600 C 0.37307 0.76844 0.7698 0.0
C601 C 0.45079 0.81735 0.79183 0.0
C602 C 0.41095 0.84422 0.7834 0.0
C603 C 0.33731 0.84772 0.75982 0.0
C604 C 0.30157 0.82405 0.74646 0.0
C605 C 0.37303 0.82035 0.77152 0.0
C606 C 0.29917 0.77249 0.74635 0.0
C607 C 0.33481 0.74479 0.75793 0.0
H608 H 0.72118 0.59516 0.22863 0.0
H609 H 0.85696 0.53074 0.20534 0.0
H610 H 0.9036 0.59994 0.22093 0.0
H611 H 0.90627 0.67178 0.2461 0.0
H612 H 0.77111 0.73804 0.26901 0.0
H613 H 0.72322 0.6756 0.24841 0.0
C614 C 0.76084 0.59728 0.22646 0.0
C615 C 0.78577 0.55864 0.2156 0.0
C616 C 0.78732 0.63704 0.23563 0.0
C617 C 0.83713 0.56083 0.21317 0.0
C618 C 0.86376 0.60007 0.22228 0.0
C619 C 0.86628 0.67307 0.24611 0.0
C620 C 0.84196 0.70873 0.25915 0.0
C621 C 0.83937 0.63736 0.23424 0.0
C622 C 0.79033 0.71074 0.259 0.0
C623 C 0.7631 0.67491 0.24739 0.0
H624 H 0.57708 0.27571 0.76872 0.0
H625 H 0.51804 0.14421 0.7994 0.0
H626 H 0.58757 0.09637 0.78504 0.0
H627 H 0.65827 0.09018 0.75913 0.0
H628 H 0.71923 0.22128 0.72899 0.0
H629 H 0.65643 0.27156 0.74797 0.0
C630 C 0.58041 0.23685 0.77271 0.0
C631 C 0.54319 0.21344 0.78532 0.0
C632 C 0.62046 0.20964 0.76431 0.0
C633 C 0.54701 0.16301 0.79014 0.0
C634 C 0.58645 0.13563 0.78176 0.0
C635 C 0.65844 0.12994 0.75726 0.0
C636 C 0.6928 0.15229 0.74274 0.0
C637 C 0.62244 0.15826 0.7682 0.0
C638 C 0.6931 0.20363 0.74028 0.0
C639 C 0.65701 0.23219 0.75096 0.0
H640 H 0.28796 0.08616 0.02983 0.0
H641 H 0.15347 0.01758 0.05259 0.0
H642 H 0.10571 0.0873 0.03842 0.0
H643 H 0.10142 0.16006 0.01386 0.0
H644 H 0.2349 0.22928 0.99033 0.0
H645 H 0.28425 0.16756 0.01068 0.0
C646 C 0.24835 0.0875 0.03227 0.0
C647 C 0.22416 0.04749 0.04259 0.0
C648 C 0.22109 0.12735 0.02361 0.0
C649 C 0.17283 0.04872 0.04529 0.0
C650 C 0.14552 0.08825 0.03692 0.0
C651 C 0.14138 0.16225 0.01369 0.0
C652 C 0.16474 0.19851 1.0005 0.0
C653 C 0.1691 0.12667 0.02525 0.0
C654 C 0.21634 0.20159 1.00045 0.0
C655 C 0.24442 0.1661 0.01192 0.0
H656 H 0.17291 0.89978 0.98684 0.0
H657 H 0.23759 0.76874 0.01517 0.0
H658 H 0.1734 0.71827 0.99725 0.0
H659 H 0.09015 0.71455 0.98002 0.0
H660 H 0.02547 0.84653 0.95252 0.0
H661 H 0.09868 0.89373 0.96316 0.0
C662 C 0.17393 0.85994 0.98829 0.0
C663 C 0.20957 0.83773 1.0022 0.0
C664 C 0.13647 0.83163 0.97836 0.0
C665 C 0.21069 0.78633 0.00426 0.0
C666 C 0.17363 0.75766 0.99428 0.0
C667 C 0.09304 0.75332 0.97576 0.0
C668 C 0.05307 0.77711 0.96527 0.0
C669 C 0.13499 0.78026 0.98226 0.0
C670 C 0.05639 0.82743 0.96013 0.0
C671 C 0.098 0.85444 0.96642 0.0
H672 H 0.90312 0.83226 0.02397 0.0
H673 H 0.77292 0.7705 0.99338 0.0
H674 H 0.72171 0.83267 0.01213 0.0
H675 H 0.71708 0.91306 0.03162 0.0
H676 H 0.84768 0.97392 0.06232 0.0
H677 H 0.89583 0.90313 0.04967 0.0
C678 C 0.86331 0.83158 0.0221 0.0
C679 C 0.84147 0.79737 0.00741 0.0
C680 C 0.83448 0.86747 0.03279 0.0
C681 C 0.79012 0.7965 0.00484 0.0
C682 C 0.76104 0.83226 0.01536 0.0
C683 C 0.75573 0.90976 0.03611 0.0
C684 C 0.77891 0.948 0.04804 0.0
C685 C 0.78316 0.86919 0.02856 0.0
C686 C 0.82907 0.94422 0.05354 0.0
C687 C 0.85665 0.90406 0.04611 0.0
H688 H 0.80202 0.22231 0.01615 0.0
H689 H 0.83384 0.07407 0.99503 0.0
H690 H 0.90003 0.10377 0.97046 0.0
H691 H 0.95799 0.16974 0.96067 0.0
H692 H 0.93036 0.31753 0.98341 0.0
H693 H 0.8537 0.29073 1.00164 0.0
C694 C 0.82256 0.19698 0.00558 0.0
C695 C 0.81336 0.14628 0.00722 0.0
C696 C 0.86186 0.21422 0.99211 0.0
C697 C 0.84053 0.11335 0.99387 0.0
C698 C 0.87852 0.13023 0.97996 0.0
C699 C 0.934 0.19629 0.9688 0.0
C700 C 0.9488 0.24561 0.97027 0.0
C701 C 0.89088 0.18029 0.97972 0.0
C702 C 0.91888 0.27947 0.98177 0.0
C703 C 0.87529 0.26411 0.99229 0.0
H704 H 0.60142 0.81686 0.73178 0.0
H705 H 0.73272 0.75841 0.76267 0.0
H706 H 0.78245 0.82268 0.74431 0.0
H707 H 0.78508 0.904 0.7252 0.0
H708 H 0.65303 0.96185 0.69462 0.0
H709 H 0.60684 0.88908 0.70677 0.0
C710 C 0.64122 0.81721 0.73372 0.0
C711 C 0.66368 0.78325 0.74839 0.0
C712 C 0.66909 0.85461 0.72346 0.0
C713 C 0.71501 0.78396 0.75114 0.0
C714 C 0.74322 0.82107 0.74091 0.0
C715 C 0.74654 0.89972 0.7207 0.0
C716 C 0.72242 0.93757 0.70883 0.0
C717 C 0.72024 0.8579 0.7279 0.0
C718 C 0.67237 0.93251 0.70334 0.0
C719 C 0.64594 0.89115 0.71044 0.0
H720 H 0.90818 0.22595 0.28299 0.0
H721 H 0.96765 0.36116 0.30959 0.0
H722 H 0.89798 0.40698 0.2941 0.0
H723 H 0.82983 0.41032 0.26683 0.0
H724 H 0.7711 0.27641 0.23869 0.0
H725 H 0.83026 0.2279 0.26101 0.0
C726 C 0.90473 0.26518 0.28599 0.0
C727 C 0.94225 0.29017 0.29775 0.0
C728 C 0.86523 0.29144 0.27639 0.0
C729 C 0.93835 0.34108 0.30119 0.0
C730 C 0.89891 0.36734 0.29205 0.0
C731 C 0.82908 0.37038 0.26621 0.0
C732 C 0.79667 0.34667 0.25122 0.0
C733 C 0.86348 0.3432 0.27877 0.0
C734 C 0.79568 0.29513 0.25032 0.0
C735 C 0.82977 0.26758 0.2629 0.0
H736 H 0.20923 0.06929 0.72734 0.0
H737 H 0.34456 0.01065 0.70047 0.0
H738 H 0.39006 0.08175 0.71475 0.0
H739 H 0.39303 0.15332 0.73984 0.0
H740 H 0.25894 0.21281 0.76743 0.0
H741 H 0.21071 0.14926 0.74767 0.0
C742 C 0.24844 0.07305 0.72416 0.0
C743 C 0.27359 0.0356 0.71256 0.0
C744 C 0.27442 0.11379 0.73273 0.0
C745 C 0.32446 0.03986 0.70885 0.0
C746 C 0.35049 0.08019 0.7172 0.0
C747 C 0.35308 0.15303 0.74097 0.0
C748 C 0.32926 0.18709 0.75501 0.0
C749 C 0.32612 0.11639 0.72982 0.0
C750 C 0.27771 0.18687 0.75652 0.0
C751 C 0.25034 0.15034 0.74541 0.0
H752 H 0.04589 0.68455 0.30524 0.0
H753 H 0.0763 0.82614 0.27548 0.0
H754 H 0.15589 0.79631 0.26152 0.0
H755 H 0.21028 0.72586 0.25289 0.0
H756 H 0.1761 0.58326 0.28083 0.0
H757 H 0.1059 0.61768 0.30132 0.0
C758 C 0.07094 0.70926 0.29647 0.0
C759 C 0.05623 0.75767 0.29185 0.0
C760 C 0.11597 0.69149 0.28816 0.0
C761 C 0.08763 0.7889 0.27952 0.0
C762 C 0.13296 0.77182 0.27151 0.0
C763 C 0.18846 0.70299 0.26418 0.0
C764 C 0.19822 0.65239 0.26562 0.0
C765 C 0.14679 0.72267 0.27508 0.0
C766 C 0.16919 0.62249 0.27974 0.0
C767 C 0.12882 0.64201 0.29123 0.0
H768 H 0.78403 0.5931 0.53231 0.0
H769 H 0.64868 0.52964 0.55705 0.0
H770 H 0.60232 0.60006 0.54263 0.0
H771 H 0.59907 0.6713 0.51709 0.0
H772 H 0.73346 0.73531 0.49165 0.0
H773 H 0.78193 0.67354 0.51242 0.0
C774 C 0.74461 0.59576 0.53513 0.0
C775 C 0.71969 0.55696 0.546 0.0
C776 C 0.71817 0.63593 0.52634 0.0
C777 C 0.66858 0.55985 0.54925 0.0
C778 C 0.64207 0.59976 0.54075 0.0
C779 C 0.63907 0.67238 0.51664 0.0
C780 C 0.66297 0.70703 0.5028 0.0
C781 C 0.66625 0.63681 0.52843 0.0
C782 C 0.71459 0.70878 0.5023 0.0
C783 C 0.74213 0.6733 0.51401 0.0
H784 H 0.71216 0.28431 0.50969 0.0
H785 H 0.67657 0.43296 0.49021 0.0
H786 H 0.61435 0.40296 0.46367 0.0
H787 H 0.55866 0.33615 0.45262 0.0
H788 H 0.5899 0.18766 0.47364 0.0
H789 H 0.6651 0.21529 0.49278 0.0
C790 C 0.69194 0.30975 0.49898 0.0
C791 C 0.6986 0.36059 0.50178 0.0
C792 C 0.65478 0.29223 0.48435 0.0
C793 C 0.67179 0.39357 0.4882 0.0
C794 C 0.63603 0.3765 0.47316 0.0
C795 C 0.58331 0.30965 0.46044 0.0
C796 C 0.56957 0.25995 0.4614 0.0
C797 C 0.62549 0.32611 0.47197 0.0
C798 C 0.60046 0.22608 0.47245 0.0
C799 C 0.64318 0.24193 0.48353 0.0
H800 H 0.32688 0.44307 0.54702 0.0
H801 H 0.18511 0.41366 0.5172 0.0
H802 H 0.21698 0.33814 0.49997 0.0
H803 H 0.28949 0.28985 0.4878 0.0
H804 H 0.43218 0.32447 0.51562 0.0
H805 H 0.39568 0.38707 0.54004 0.0
C806 C 0.30254 0.41882 0.53762 0.0
C807 C 0.25363 0.43293 0.53373 0.0
C808 C 0.32158 0.37655 0.52726 0.0
C809 C 0.22277 0.40272 0.52065 0.0
C810 C 0.24106 0.3598 0.51072 0.0
C811 C 0.312 0.30996 0.49985 0.0
C812 C 0.3632 0.30293 0.50006 0.0
C813 C 0.29102 0.34753 0.51308 0.0
C814 C 0.39256 0.32958 0.51532 0.0
C815 C 0.37182 0.36556 0.52913 0.0
H816 H 0.46057 0.6735 0.45874 0.0
H817 H 0.42577 0.81652 0.48548 0.0
H818 H 0.34832 0.78467 0.50115 0.0
H819 H 0.29709 0.71279 0.512 0.0
H820 H 0.33641 0.56912 0.48716 0.0
H821 H 0.40415 0.60446 0.46523 0.0
C822 C 0.43498 0.69796 0.46724 0.0
C823 C 0.44785 0.7474 0.47049 0.0
C824 C 0.3914 0.67904 0.47665 0.0
C825 C 0.41581 0.77845 0.48246 0.0
C826 C 0.37174 0.7602 0.49148 0.0
C827 C 0.31965 0.68974 0.50119 0.0
C828 C 0.31207 0.63863 0.50106 0.0
C829 C 0.35993 0.71011 0.48936 0.0
C830 C 0.34187 0.60865 0.48741 0.0
C831 C 0.38074 0.62874 0.47502 0.0
H832 H 0.29246 0.26431 0.42172 0.0
H833 H 0.38362 0.26081 0.36176 0.0
H834 H 0.31012 0.26324 0.33789 0.0
H835 H 0.21962 0.26283 0.33391 0.0
H836 H 0.12903 0.2667 0.39409 0.0
H837 H 0.20255 0.26775 0.41776 0.0
C838 C 0.29646 0.26433 0.40343 0.0
C839 C 0.34387 0.26205 0.39368 0.0
C840 C 0.25395 0.26558 0.38973 0.0
C841 C 0.34786 0.26245 0.36988 0.0
C842 C 0.30573 0.26371 0.35615 0.0
C843 C 0.21584 0.26408 0.3522 0.0
C844 C 0.16844 0.26432 0.36207 0.0
C845 C 0.25851 0.26469 0.36587 0.0
C846 C 0.16471 0.2663 0.38586 0.0
C847 C 0.20687 0.26687 0.3995 0.0
H848 H 0.25174 0.70521 0.57912 0.0
H849 H 0.23959 0.60603 0.63619 0.0
H850 H 0.24094 0.67576 0.66215 0.0
H851 H 0.24235 0.76514 0.66874 0.0
H852 H 0.25453 0.86406 0.61156 0.0
H853 H 0.25651 0.7942 0.58578 0.0
C854 C 0.24962 0.69866 0.59723 0.0
C855 C 0.24526 0.65014 0.60555 0.0
C856 C 0.25023 0.73901 0.61216 0.0
C857 C 0.2428 0.64276 0.62916 0.0
C858 C 0.2435 0.68272 0.64409 0.0
C859 C 0.24563 0.77156 0.65066 0.0
C860 C 0.24794 0.82014 0.64223 0.0
C861 C 0.24667 0.73106 0.63578 0.0
C862 C 0.25246 0.82733 0.61867 0.0
C863 C 0.25358 0.78729 0.60383 0.0
H864 H 0.72081 0.76793 0.42522 0.0
H865 H 0.62182 0.76323 0.36789 0.0
H866 H 0.69199 0.76436 0.34205 0.0
H867 H 0.78145 0.76916 0.33554 0.0
H868 H 0.88023 0.77397 0.39296 0.0
H869 H 0.81016 0.77024 0.41875 0.0
C870 C 0.7144 0.76694 0.40708 0.0
C871 C 0.66573 0.76572 0.39864 0.0
C872 C 0.75501 0.76779 0.39222 0.0
C873 C 0.65861 0.76432 0.375 0.0
C874 C 0.69883 0.76502 0.36015 0.0
C875 C 0.78782 0.76928 0.35369 0.0
C876 C 0.8364 0.77214 0.36216 0.0
C877 C 0.7472 0.76718 0.36855 0.0
C878 C 0.8435 0.772 0.38581 0.0
C879 C 0.80334 0.76986 0.40064 0.0
H880 H 0.75347 0.20864 0.66965 0.0
H881 H 0.77539 0.11686 0.61086 0.0
H882 H 0.77252 0.18944 0.58637 0.0
H883 H 0.7649 0.27945 0.58159 0.0
H884 H 0.74212 0.37023 0.64072 0.0
H885 H 0.74407 0.29763 0.66488 0.0
C886 C 0.75776 0.20432 0.65149 0.0
C887 C 0.76494 0.15707 0.64224 0.0
C888 C 0.75583 0.2462 0.63744 0.0
C889 C 0.76993 0.15259 0.61858 0.0
C890 C 0.76828 0.19417 0.6045 0.0
C891 C 0.76016 0.28343 0.59974 0.0
C892 C 0.75356 0.33066 0.60918 0.0
C893 C 0.76135 0.24125 0.61374 0.0
C894 C 0.74744 0.33468 0.63282 0.0
C895 C 0.74858 0.29305 0.64675 0.0
H896 H 0.22012 0.25637 0.92184 0.0
H897 H 0.11869 0.2416 0.86579 0.0
H898 H 0.18762 0.2412 0.83924 0.0
H899 H 0.2766 0.2475 0.83169 0.0
H900 H 0.37783 0.26207 0.88784 0.0
H901 H 0.30905 0.26013 0.9144 0.0
C902 C 0.21291 0.25276 0.90384 0.0
C903 C 0.16392 0.2492 0.89595 0.0
C904 C 0.25279 0.25282 0.88856 0.0
C905 C 0.15576 0.24449 0.87248 0.0
C906 C 0.19525 0.24437 0.85722 0.0
C907 C 0.28376 0.2503 0.84973 0.0
C908 C 0.33264 0.25526 0.85762 0.0
C909 C 0.24391 0.24901 0.86504 0.0
C910 C 0.34084 0.25838 0.88114 0.0
C911 C 0.30142 0.25725 0.89641 0.0
H912 H 0.26786 0.64921 0.13111 0.0
H913 H 0.25234 0.72994 0.19369 0.0
H914 H 0.2482 0.80703 0.17263 0.0
H915 H 0.25148 0.85238 0.13657 0.0
H916 H 0.26781 0.77178 0.07399 0.0
H917 H 0.26895 0.69442 0.09495 0.0
C918 C 0.26335 0.68358 0.14018 0.0
C919 C 0.26067 0.68336 0.16405 0.0
C920 C 0.26126 0.72818 0.12796 0.0
C921 C 0.25476 0.72859 0.17538 0.0
C922 C 0.25238 0.77292 0.16334 0.0
C923 C 0.2551 0.81795 0.12745 0.0
C924 C 0.25979 0.81836 0.10366 0.0
C925 C 0.256 0.77326 0.13963 0.0
C926 C 0.26435 0.77303 0.09227 0.0
C927 C 0.26501 0.72855 0.10425 0.0
H928 H 0.85425 0.73132 0.87499 0.0
H929 H 0.77521 0.73002 0.93853 0.0
H930 H 0.697 0.73091 0.91824 0.0
H931 H 0.65036 0.73116 0.88246 0.0
H932 H 0.72946 0.73156 0.81894 0.0
H933 H 0.80766 0.73206 0.83924 0.0
C934 C 0.81999 0.7312 0.88445 0.0
C935 C 0.82107 0.73043 0.90834 0.0
C936 C 0.77478 0.7316 0.87267 0.0
C937 C 0.77595 0.73041 0.92018 0.0
C938 C 0.73097 0.73099 0.90857 0.0
C939 C 0.68464 0.73153 0.87302 0.0
C940 C 0.6836 0.73122 0.84913 0.0
C941 C 0.72986 0.73149 0.88481 0.0
C942 C 0.72873 0.73159 0.8373 0.0
C943 C 0.77369 0.73189 0.84891 0.0
H944 H 0.7466 0.22328 0.0845 0.0
H945 H 0.72477 0.12923 0.14281 0.0
H946 H 0.72639 0.20062 0.16763 0.0
H947 H 0.73361 0.28975 0.1731 0.0
H948 H 0.75602 0.38432 0.11506 0.0
H949 H 0.75467 0.31287 0.09008 0.0
C950 C 0.74209 0.2183 0.10263 0.0
C951 C 0.73543 0.17059 0.11161 0.0
C952 C 0.74323 0.25974 0.11699 0.0
C953 C 0.72993 0.16523 0.13524 0.0
C954 C 0.73086 0.20616 0.14954 0.0
C955 C 0.73827 0.29492 0.155 0.0
C956 C 0.7448 0.3427 0.14611 0.0
C957 C 0.73746 0.25359 0.14063 0.0
C958 C 0.75085 0.34821 0.12252 0.0
C959 C 0.75005 0.30727 0.10815 0.0
H960 H 0.99583 0.93885 0.35443 0.0
H961 H 0.94049 0.9383 0.28579 0.0
H962 H 0.9632 0.02489 0.28153 0.0
H963 H 1.00022 0.10073 0.29715 0.0
H964 H 0.05083 0.10205 0.36639 0.0
H965 H 0.02954 0.01484 0.37045 0.0
C966 C 0.98836 0.95766 0.33856 0.0
C967 C 0.96647 0.93193 0.32046 0.0
C968 C 0.00153 0.00739 0.33622 0.0
C969 C 0.9569 0.95716 0.30008 0.0
C970 C 0.9703 0.00662 0.29755 0.0
C971 C 0.0072 0.08151 0.31297 0.0
C972 C 0.02795 0.1071 0.33132 0.0
C973 C 0.99315 0.03194 0.31541 0.0
C974 C 0.03548 0.08262 0.35199 0.0
C975 C 0.02304 0.03297 0.35434 0.0
H976 H 0.92141 0.9825 0.65266 0.0
H977 H 0.91947 0.04401 0.7201 0.0
H978 H 0.00546 0.02014 0.72548 0.0
H979 H 0.08188 0.98207 0.71089 0.0
H980 H 0.08454 0.92545 0.64276 0.0
H981 H 0.99734 0.94612 0.63794 0.0
C982 C 0.93971 0.99095 0.66854 0.0
C983 C 0.91375 0.01517 0.68591 0.0
C984 C 0.98918 0.97723 0.67152 0.0
C985 C 0.93843 0.02578 0.70633 0.0
C986 C 0.98759 0.01181 0.70951 0.0
C987 C 0.06289 0.97352 0.6952 0.0
C988 C 0.08894 0.9514 0.67735 0.0
C989 C 0.01328 0.98727 0.69227 0.0
C990 C 0.06475 0.94184 0.65679 0.0
C991 C 0.01512 0.95397 0.654 0.0
H992 H 0.01931 0.41907 0.96663 0.0
H993 H 0.05405 0.41624 0.8954 0.0
H994 H 0.03171 0.50329 0.89191 0.0
H995 H 0.99918 0.57895 0.90886 0.0
H996 H 0.95873 0.57992 0.97967 0.0
H997 H 0.98556 0.49466 0.98349 0.0
C998 C 0.02291 0.43799 0.95049 0.0
C999 C 0.03924 0.41199 0.93139 0.0
C1000 C 0.00799 0.48729 0.94845 0.0
C1001 C 0.04223 0.43605 0.91036 0.0
C1002 C 0.02912 0.48558 0.90835 0.0
C1003 C 0.99604 0.56054 0.92513 0.0
C1004 C 0.97677 0.58596 0.94391 0.0
C1005 C 0.01127 0.51136 0.92721 0.0
C1006 C 0.97294 0.56128 0.96484 0.0
C1007 C 0.98864 0.51257 0.96711 0.0
H1008 H 0.42148 0.99005 0.04212 0.0
H1009 H 0.41182 0.95139 0.11289 0.0
H1010 H 0.4983 0.97397 0.11834 0.0
H1011 H 0.5762 0.00547 0.10315 0.0
H1012 H 0.58519 0.04889 0.03283 0.0
H1013 H 0.49931 0.02457 0.02715 0.0
C1014 C 0.43866 0.98601 0.05863 0.0
C1015 C 0.41074 0.96838 0.07702 0.0
C1016 C 0.48797 1.00065 0.0618 0.0
C1017 C 0.43284 0.96451 0.09848 0.0
C1018 C 0.48215 0.9776 0.10161 0.0
C1019 C 0.55938 0.0099 0.08658 0.0
C1020 C 0.58726 0.02903 0.06847 0.0
C1021 C 0.50997 0.99602 0.08344 0.0
C1022 C 0.5646 0.0347 0.04716 0.0
C1023 C 0.51555 0.02041 0.04383 0.0
H1024 H 0.49872 0.41277 0.84625 0.0
H1025 H 0.44486 0.41042 0.77738 0.0
H1026 H 0.46951 0.49628 0.77241 0.0
H1027 H 0.50711 0.57222 0.78756 0.0
H1028 H 0.55587 0.57575 0.85707 0.0
H1029 H 0.5333 0.48904 0.86176 0.0
C1030 C 0.4921 0.43104 0.83017 0.0
C1031 C 0.46994 0.40501 0.81223 0.0
C1032 C 0.50613 0.48049 0.82745 0.0
C1033 C 0.46146 0.42953 0.79156 0.0
C1034 C 0.47591 0.47858 0.78863 0.0
C1035 C 0.51335 0.55364 0.8036 0.0
C1036 C 0.53387 0.5798 0.82184 0.0
C1037 C 0.49863 0.50432 0.80639 0.0
C1038 C 0.54055 0.55599 0.84276 0.0
C1039 C 0.52745 0.50659 0.84547 0.0
H1040 H 0.59276 0.50506 0.21716 0.0
H1041 H 0.59227 0.48061 0.14499 0.0
H1042 H 0.50567 0.50541 0.14297 0.0
H1043 H 0.43015 0.53285 0.16179 0.0
H1044 H 0.43135 0.56154 0.23374 0.0
H1045 H 0.51803 0.53749 0.2357 0.0
C1046 C 0.57337 0.50471 0.20107 0.0
C1047 C 0.59827 0.49016 0.1813 0.0
C1048 C 0.52413 0.52054 0.19994 0.0
C1049 C 0.57347 0.49119 0.16042 0.0
C1050 C 0.52414 0.50556 0.15926 0.0
C1051 C 0.44945 0.53433 0.17789 0.0
C1052 C 0.42416 0.54887 0.19759 0.0
C1053 C 0.49915 0.52033 0.17891 0.0
C1054 C 0.44993 0.5509 0.21826 0.0
C1055 C 0.4994 0.53666 0.21945 0.0
H1056 H 0.4992 0.09123 0.45887 0.0
H1057 H 0.45486 0.09042 0.38875 0.0
H1058 H 0.47515 0.00264 0.38603 0.0
H1059 H 0.50664 0.92688 0.40361 0.0
H1060 H 0.55677 0.92979 0.4731 0.0
H1061 H 0.53412 0.01643 0.47594 0.0
C1062 C 0.49327 0.07142 0.44314 0.0
C1063 C 0.4745 0.0964 0.42418 0.0
C1064 C 0.50696 0.02181 0.4415 0.0
C1065 C 0.46852 0.07131 0.40362 0.0
C1066 C 0.48043 0.0214 0.40204 0.0
C1067 C 0.51291 0.94652 0.41934 0.0
C1068 C 0.53335 0.92181 0.43811 0.0
C1069 C 0.50003 0.9964 0.42085 0.0
C1070 C 0.54151 0.94794 0.45832 0.0
C1071 C 0.52816 0.9974 0.46004 0.0
H1072 H 0.9117 0.4972 0.54262 0.0
H1073 H 0.91036 0.45673 0.61331 0.0
H1074 H 0.99801 0.47701 0.61645 0.0
H1075 H 0.0747 0.50562 0.59907 0.0
H1076 H 0.07585 0.55041 0.52883 0.0
H1077 H 0.9882 0.53031 0.52565 0.0
C1078 C 0.93095 0.49233 0.5586 0.0
C1079 C 0.90523 0.47465 0.57762 0.0
C1080 C 0.98088 0.50565 0.56044 0.0
C1081 C 0.92983 0.46979 0.59843 0.0
C1082 C 0.97974 0.4816 0.60024 0.0
C1083 C 0.05575 0.51141 0.58309 0.0
C1084 C 0.08188 0.52937 0.56421 0.0
C1085 C 0.00556 0.49967 0.58138 0.0
C1086 C 0.05658 0.53701 0.54369 0.0
C1087 C 0.00656 0.52505 0.5418 0.0
loop_
_geom_bond_atom_site_label_1
_geom_bond_atom_site_label_2
_geom_bond_distance
_geom_bond_site_symmetry_2
_ccdc_geom_bond_type
Mn0 O5 2.095 . S
Mn0 O15 2.162 . S
Mn0 O16 2.297 . S
Mn0 O24 2.385 . S
Mn0 O25 2.209 . S
Mn0 O26 2.094 . S
Mn1 O6 2.121 . S
Mn1 N8 2.257 1_455 S
Mn1 N17 2.282 1_455 S
Mn1 O25 2.215 . S
Mn1 O27 2.117 . S
C2 O24 1.234 . S
C2 O25 1.283 . S
C3 O15 1.281 . S
C3 O16 1.236 . S
C4 O26 1.240 . S
C4 O27 1.264 . S
O5 Mn0 2.095 . S
O5 C14 1.250 . S
O6 Mn1 2.121 . S
O6 C14 1.258 . S
C7 N8 1.326 . S
C7 C11 1.460 . S
C7 H13 0.929 1_655 S
N8 Mn1 2.257 1_655 S
N8 C7 1.326 . S
N8 C12 1.362 . S
C9 C10 1.258 . S
C9 C12 1.431 . S
C9 C29 1.449 . S
C10 C9 1.258 . S
C10 C11 1.477 . S
C10 H30 0.931 . S
C11 C7 1.460 . S
C11 C10 1.477 . S
C11 H31 0.930 . S
C12 N8 1.362 . S
C12 C9 1.431 . S
C12 C22 1.476 . S
H13 C7 0.929 1_455 S
C14 O5 1.250 . S
C14 O6 1.258 . S
O15 Mn0 2.162 . S
O15 C3 1.281 . S
O16 Mn0 2.297 . S
O16 C3 1.236 . S
N17 Mn1 2.282 1_655 S
N17 C18 1.328 . S
N17 C22 1.318 . S
C18 N17 1.328 . S
C18 C19 1.457 . S
C18 H23 0.929 . S
C19 C18 1.457 . S
C19 C20 1.291 . S
C19 H32 0.931 . S
C20 C19 1.291 . S
C20 C21 1.373 . S
C20 H33 0.929 . S
C21 C20 1.373 . S
C21 C22 1.396 . S
C21 C28 1.403 . S
C22 C12 1.476 . S
C22 N17 1.318 . S
C22 C21 1.396 . S
H23 C18 0.929 . S
O24 Mn0 2.385 . S
O24 C2 1.234 . S
O25 Mn0 2.209 . S
O25 Mn1 2.215 . S
O25 C2 1.283 . S
O26 Mn0 2.094 . S
O26 C4 1.240 . S
O27 Mn1 2.117 . S
O27 C4 1.264 . S
C28 C21 1.403 . S
C28 C29 1.399 . S
C28 H34 0.929 . S
C29 C9 1.449 . S
C29 C28 1.399 . S
C29 H35 0.930 . S
H30 C10 0.931 . S
H31 C11 0.930 . S
H32 C19 0.931 . S
H33 C20 0.929 . S
H34 C28 0.929 . S
H35 C29 0.930 . S
Mn36 O41 2.095 . S
Mn36 O51 2.162 . S
Mn36 O52 2.297 . S
Mn36 O60 2.385 . S
Mn36 O61 2.209 . S
Mn36 O62 2.094 . S
Mn37 O42 2.121 . S
Mn37 N44 2.257 1_565 S
Mn37 N53 2.282 1_565 S
Mn37 O61 2.215 . S
Mn37 O63 2.117 . S
C38 O60 1.234 . S
C38 O61 1.283 . S
C39 O51 1.281 . S
C39 O52 1.236 . S
C40 O62 1.240 . S
C40 O63 1.264 . S
O41 Mn36 2.095 . S
O41 C50 1.250 . S
O42 Mn37 2.121 . S
O42 C50 1.258 . S
C43 N44 1.326 . S
C43 C47 1.460 . S
C43 H49 0.929 1_545 S
N44 Mn37 2.257 1_545 S
N44 C43 1.326 . S
N44 C48 1.362 . S
C45 C46 1.258 . S
C45 C48 1.431 . S
C45 C65 1.449 . S
C46 C45 1.258 . S
C46 C47 1.477 . S
C46 H66 0.931 . S
C47 C43 1.460 . S
C47 C46 1.477 . S
C47 H67 0.930 . S
C48 N44 1.362 . S
C48 C45 1.431 . S
C48 C58 1.476 . S
H49 C43 0.929 1_565 S
C50 O41 1.250 . S
C50 O42 1.258 . S
O51 Mn36 2.162 . S
O51 C39 1.281 . S
O52 Mn36 2.297 . S
O52 C39 1.236 . S
N53 Mn37 2.282 1_545 S
N53 C54 1.328 . S
N53 C58 1.318 . S
C54 N53 1.328 . S
C54 C55 1.457 . S
C54 H59 0.929 . S
C55 C54 1.457 . S
C55 C56 1.291 . S
C55 H68 0.931 . S
C56 C55 1.291 . S
C56 C57 1.373 . S
C56 H69 0.929 . S
C57 C56 1.373 . S
C57 C58 1.396 . S
C57 C64 1.403 . S
C58 C48 1.476 . S
C58 N53 1.318 . S
C58 C57 1.396 . S
H59 C54 0.929 . S
O60 Mn36 2.385 . S
O60 C38 1.234 . S
O61 Mn36 2.209 . S
O61 Mn37 2.215 . S
O61 C38 1.283 . S
O62 Mn36 2.094 . S
O62 C40 1.240 . S
O63 Mn37 2.117 . S
O63 C40 1.264 . S
C64 C57 1.403 . S
C64 C65 1.399 . S
C64 H70 0.929 . S
C65 C45 1.449 . S
C65 C64 1.399 . S
C65 H71 0.930 . S
H66 C46 0.931 . S
H67 C47 0.930 . S
H68 C55 0.931 . S
H69 C56 0.929 . S
H70 C64 0.929 . S
H71 C65 0.930 . S
Mn72 O77 2.095 . S
Mn72 O87 2.162 . S
Mn72 O88 2.297 . S
Mn72 O96 2.385 . S
Mn72 O97 2.209 . S
Mn72 O98 2.094 . S
Mn73 O78 2.121 . S
Mn73 N80 2.257 1_655 S
Mn73 N89 2.282 1_655 S
Mn73 O97 2.215 . S
Mn73 O99 2.117 . S
C74 O96 1.234 . S
C74 O97 1.283 . S
C75 O87 1.281 . S
C75 O88 1.236 . S
C76 O98 1.240 . S
C76 O99 1.264 . S
O77 Mn72 2.095 . S
O77 C86 1.250 . S
O78 Mn73 2.121 . S
O78 C86 1.258 . S
C79 N80 1.326 . S
C79 C83 1.460 . S
C79 H85 0.929 1_455 S
N80 Mn73 2.257 1_455 S
N80 C79 1.326 . S
N80 C84 1.362 . S
C81 C82 1.258 . S
C81 C84 1.431 . S
C81 C101 1.449 . S
C82 C81 1.258 . S
C82 C83 1.477 . S
C82 H102 0.931 . S
C83 C79 1.460 . S
C83 C82 1.477 . S
C83 H103 0.930 . S
C84 N80 1.362 . S
C84 C81 1.431 . S
C84 C94 1.476 . S
H85 C79 0.929 1_655 S
C86 O77 1.250 . S
C86 O78 1.258 . S
O87 Mn72 2.162 . S
O87 C75 1.281 . S
O88 Mn72 2.297 . S
O88 C75 1.236 . S
N89 Mn73 2.282 1_455 S
N89 C90 1.328 . S
N89 C94 1.318 . S
C90 N89 1.328 . S
C90 C91 1.457 . S
C90 H95 0.929 . S
C91 C90 1.457 . S
C91 C92 1.291 . S
C91 H104 0.931 . S
C92 C91 1.291 . S
C92 C93 1.373 . S
C92 H105 0.929 . S
C93 C92 1.373 . S
C93 C94 1.396 . S
C93 C100 1.403 . S
C94 C84 1.476 . S
C94 N89 1.318 . S
C94 C93 1.396 . S
H95 C90 0.929 . S
O96 Mn72 2.385 . S
O96 C74 1.234 . S
O97 Mn72 2.209 . S
O97 Mn73 2.215 . S
O97 C74 1.283 . S
O98 Mn72 2.094 . S
O98 C76 1.240 . S
O99 Mn73 2.117 . S
O99 C76 1.264 . S
C100 C93 1.403 . S
C100 C101 1.399 . S
C100 H106 0.929 . S
C101 C81 1.449 . S
C101 C100 1.399 . S
C101 H107 0.930 . S
H102 C82 0.931 . S
H103 C83 0.930 . S
H104 C91 0.931 . S
H105 C92 0.929 . S
H106 C100 0.929 . S
H107 C101 0.930 . S
Mn108 O113 2.095 . S
Mn108 O123 2.162 . S
Mn108 O124 2.297 . S
Mn108 O132 2.385 . S
Mn108 O133 2.209 . S
Mn108 O134 2.094 . S
Mn109 O114 2.121 . S
Mn109 N116 2.257 1_545 S
Mn109 N125 2.282 1_545 S
Mn109 O133 2.215 . S
Mn109 O135 2.117 . S
C110 O132 1.234 . S
C110 O133 1.283 . S
C111 O123 1.281 . S
C111 O124 1.236 . S
C112 O134 1.240 . S
C112 O135 1.264 . S
O113 Mn108 2.095 . S
O113 C122 1.250 . S
O114 Mn109 2.121 . S
O114 C122 1.258 . S
C115 N116 1.326 . S
C115 C119 1.460 . S
C115 H121 0.929 1_565 S
N116 Mn109 2.257 1_565 S
N116 C115 1.326 . S
N116 C120 1.362 . S
C117 C118 1.258 . S
C117 C120 1.431 . S
C117 C137 1.449 . S
C118 C117 1.258 . S
C118 C119 1.477 . S
C118 H138 0.931 . S
C119 C115 1.460 . S
C119 C118 1.477 . S
C119 H139 0.930 . S
C120 N116 1.362 . S
C120 C117 1.431 . S
C120 C130 1.476 . S
H121 C115 0.929 1_545 S
C122 O113 1.250 . S
C122 O114 1.258 . S
O123 Mn108 2.162 . S
O123 C111 1.281 . S
O124 Mn108 2.297 . S
O124 C111 1.236 . S
N125 Mn109 2.282 1_565 S
N125 C126 1.328 . S
N125 C130 1.318 . S
C126 N125 1.328 . S
C126 C127 1.457 . S
C126 H131 0.929 . S
C127 C126 1.457 . S
C127 C128 1.291 . S
C127 H140 0.931 . S
C128 C127 1.291 . S
C128 C129 1.373 . S
C128 H141 0.929 . S
C129 C128 1.373 . S
C129 C130 1.396 . S
C129 C136 1.403 . S
C130 C120 1.476 . S
C130 N125 1.318 . S
C130 C129 1.396 . S
H131 C126 0.929 . S
O132 Mn108 2.385 . S
O132 C110 1.234 . S
O133 Mn108 2.209 . S
O133 Mn109 2.215 . S
O133 C110 1.283 . S
O134 Mn108 2.094 . S
O134 C112 1.240 . S
O135 Mn109 2.117 . S
O135 C112 1.264 . S
C136 C129 1.403 . S
C136 C137 1.399 . S
C136 H142 0.929 . S
C137 C117 1.449 . S
C137 C136 1.399 . S
C137 H143 0.930 . S
H138 C118 0.931 . S
H139 C119 0.930 . S
H140 C127 0.931 . S
H141 C128 0.929 . S
H142 C136 0.929 . S
H143 C137 0.930 . S
Mn144 O149 2.095 . S
Mn144 O159 2.162 . S
Mn144 O160 2.297 . S
Mn144 O168 2.385 . S
Mn144 O169 2.209 . S
Mn144 O170 2.094 . S
Mn145 O150 2.121 . S
Mn145 N152 2.257 1_455 S
Mn145 N161 2.282 1_455 S
Mn145 O169 2.215 . S
Mn145 O171 2.117 . S
C146 O168 1.234 . S
C146 O169 1.283 . S
C147 O159 1.281 . S
C147 O160 1.236 . S
C148 O170 1.240 . S
C148 O171 1.264 . S
O149 Mn144 2.095 . S
O149 C158 1.250 . S
O150 Mn145 2.121 . S
O150 C158 1.258 . S
C151 N152 1.326 . S
C151 C155 1.460 . S
C151 H157 0.929 1_655 S
N152 Mn145 2.257 1_655 S
N152 C151 1.326 . S
N152 C156 1.362 . S
C153 C154 1.258 . S
C153 C156 1.431 . S
C153 C173 1.449 . S
C154 C153 1.258 . S
C154 C155 1.477 . S
C154 H174 0.931 . S
C155 C151 1.460 . S
C155 C154 1.477 . S
C155 H175 0.930 . S
C156 N152 1.362 . S
C156 C153 1.431 . S
C156 C166 1.476 . S
H157 C151 0.929 1_455 S
C158 O149 1.250 . S
C158 O150 1.258 . S
O159 Mn144 2.162 . S
O159 C147 1.281 . S
O160 Mn144 2.297 . S
O160 C147 1.236 . S
N161 Mn145 2.282 1_655 S
N161 C162 1.328 . S
N161 C166 1.318 . S
C162 N161 1.328 . S
C162 C163 1.457 . S
C162 H167 0.929 . S
C163 C162 1.457 . S
C163 C164 1.291 . S
C163 H176 0.931 . S
C164 C163 1.291 . S
C164 C165 1.373 . S
C164 H177 0.929 . S
C165 C164 1.373 . S
C165 C166 1.396 . S
C165 C172 1.403 . S
C166 C156 1.476 . S
C166 N161 1.318 . S
C166 C165 1.396 . S
H167 C162 0.929 . S
O168 Mn144 2.385 . S
O168 C146 1.234 . S
O169 Mn144 2.209 . S
O169 Mn145 2.215 . S
O169 C146 1.283 . S
O170 Mn144 2.094 . S
O170 C148 1.240 . S
O171 Mn145 2.117 . S
O171 C148 1.264 . S
C172 C165 1.403 . S
C172 C173 1.399 . S
C172 H178 0.929 . S
C173 C153 1.449 . S
C173 C172 1.399 . S
C173 H179 0.930 . S
H174 C154 0.931 . S
H175 C155 0.930 . S
H176 C163 0.931 . S
H177 C164 0.929 . S
H178 C172 0.929 . S
H179 C173 0.930 . S
Mn180 O185 2.095 . S
Mn180 O195 2.162 . S
Mn180 O196 2.297 . S
Mn180 O204 2.385 . S
Mn180 O205 2.209 . S
Mn180 O206 2.094 . S
Mn181 O186 2.121 . S
Mn181 N188 2.257 1_565 S
Mn181 N197 2.282 1_565 S
Mn181 O205 2.215 . S
Mn181 O207 2.117 . S
C182 O204 1.234 . S
C182 O205 1.283 . S
C183 O195 1.281 . S
C183 O196 1.236 . S
C184 O206 1.240 . S
C184 O207 1.264 . S
O185 Mn180 2.095 . S
O185 C194 1.250 . S
O186 Mn181 2.121 . S
O186 C194 1.258 . S
C187 N188 1.326 . S
C187 C191 1.460 . S
C187 H193 0.929 1_545 S
N188 Mn181 2.257 1_545 S
N188 C187 1.326 . S
N188 C192 1.362 . S
C189 C190 1.258 . S
C189 C192 1.431 . S
C189 C209 1.449 . S
C190 C189 1.258 . S
C190 C191 1.477 . S
C190 H210 0.931 . S
C191 C187 1.460 . S
C191 C190 1.477 . S
C191 H211 0.930 . S
C192 N188 1.362 . S
C192 C189 1.431 . S
C192 C202 1.476 . S
H193 C187 0.929 1_565 S
C194 O185 1.250 . S
C194 O186 1.258 . S
O195 Mn180 2.162 . S
O195 C183 1.281 . S
O196 Mn180 2.297 . S
O196 C183 1.236 . S
N197 Mn181 2.282 1_545 S
N197 C198 1.328 . S
N197 C202 1.318 . S
C198 N197 1.328 . S
C198 C199 1.457 . S
C198 H203 0.929 . S
C199 C198 1.457 . S
C199 C200 1.291 . S
C199 H212 0.931 . S
C200 C199 1.291 . S
C200 C201 1.373 . S
C200 H213 0.929 . S
C201 C200 1.373 . S
C201 C202 1.396 . S
C201 C208 1.403 . S
C202 C192 1.476 . S
C202 N197 1.318 . S
C202 C201 1.396 . S
H203 C198 0.929 . S
O204 Mn180 2.385 . S
O204 C182 1.234 . S
O205 Mn180 2.209 . S
O205 Mn181 2.215 . S
O205 C182 1.283 . S
O206 Mn180 2.094 . S
O206 C184 1.240 . S
O207 Mn181 2.117 . S
O207 C184 1.264 . S
C208 C201 1.403 . S
C208 C209 1.399 . S
C208 H214 0.929 . S
C209 C189 1.449 . S
C209 C208 1.399 . S
C209 H215 0.930 . S
H210 C190 0.931 . S
H211 C191 0.930 . S
H212 C199 0.931 . S
H213 C200 0.929 . S
H214 C208 0.929 . S
H215 C209 0.930 . S
Mn216 O221 2.095 . S
Mn216 O231 2.162 . S
Mn216 O232 2.297 . S
Mn216 O240 2.385 . S
Mn216 O241 2.209 . S
Mn216 O242 2.094 . S
Mn217 O222 2.121 . S
Mn217 N224 2.257 1_655 S
Mn217 N233 2.282 1_655 S
Mn217 O241 2.215 . S
Mn217 O243 2.117 . S
C218 O240 1.234 . S
C218 O241 1.283 . S
C219 O231 1.281 . S
C219 O232 1.236 . S
C220 O242 1.240 . S
C220 O243 1.264 . S
O221 Mn216 2.095 . S
O221 C230 1.250 . S
O222 Mn217 2.121 . S
O222 C230 1.258 . S
C223 N224 1.326 . S
C223 C227 1.460 . S
C223 H229 0.929 1_455 S
N224 Mn217 2.257 1_455 S
N224 C223 1.326 . S
N224 C228 1.362 . S
C225 C226 1.258 . S
C225 C228 1.431 . S
C225 C245 1.449 . S
C226 C225 1.258 . S
C226 C227 1.477 . S
C226 H246 0.931 . S
C227 C223 1.460 . S
C227 C226 1.477 . S
C227 H247 0.930 . S
C228 N224 1.362 . S
C228 C225 1.431 . S
C228 C238 1.476 . S
H229 C223 0.929 1_655 S
C230 O221 1.250 . S
C230 O222 1.258 . S
O231 Mn216 2.162 . S
O231 C219 1.281 . S
O232 Mn216 2.297 . S
O232 C219 1.236 . S
N233 Mn217 2.282 1_455 S
N233 C234 1.328 . S
N233 C238 1.318 . S
C234 N233 1.328 . S
C234 C235 1.457 . S
C234 H239 0.929 . S
C235 C234 1.457 . S
C235 C236 1.291 . S
C235 H248 0.931 . S
C236 C235 1.291 . S
C236 C237 1.373 . S
C236 H249 0.929 . S
C237 C236 1.373 . S
C237 C238 1.396 . S
C237 C244 1.403 . S
C238 C228 1.476 . S
C238 N233 1.318 . S
C238 C237 1.396 . S
H239 C234 0.929 . S
O240 Mn216 2.385 . S
O240 C218 1.234 . S
O241 Mn216 2.209 . S
O241 Mn217 2.215 . S
O241 C218 1.283 . S
O242 Mn216 2.094 . S
O242 C220 1.240 . S
O243 Mn217 2.117 . S
O243 C220 1.264 . S
C244 C237 1.403 . S
C244 C245 1.399 . S
C244 H250 0.929 . S
C245 C225 1.449 . S
C245 C244 1.399 . S
C245 H251 0.930 . S
H246 C226 0.931 . S
H247 C227 0.930 . S
H248 C235 0.931 . S
H249 C236 0.929 . S
H250 C244 0.929 . S
H251 C245 0.930 . S
Mn252 O257 2.095 . S
Mn252 O267 2.162 . S
Mn252 O268 2.297 . S
Mn252 O276 2.385 . S
Mn252 O277 2.209 . S
Mn252 O278 2.094 . S
Mn253 O258 2.121 . S
Mn253 N260 2.257 1_545 S
Mn253 N269 2.282 1_545 S
Mn253 O277 2.215 . S
Mn253 O279 2.117 . S
C254 O276 1.234 . S
C254 O277 1.283 . S
C255 O267 1.281 . S
C255 O268 1.236 . S
C256 O278 1.240 . S
C256 O279 1.264 . S
O257 Mn252 2.095 . S
O257 C266 1.250 . S
O258 Mn253 2.121 . S
O258 C266 1.258 . S
C259 N260 1.326 . S
C259 C263 1.460 . S
C259 H265 0.929 1_565 S
N260 Mn253 2.257 1_565 S
N260 C259 1.326 . S
N260 C264 1.362 . S
C261 C262 1.258 . S
C261 C264 1.431 . S
C261 C281 1.449 . S
C262 C261 1.258 . S
C262 C263 1.477 . S
C262 H282 0.931 . S
C263 C259 1.460 . S
C263 C262 1.477 . S
C263 H283 0.930 . S
C264 N260 1.362 . S
C264 C261 1.431 . S
C264 C274 1.476 . S
H265 C259 0.929 1_545 S
C266 O257 1.250 . S
C266 O258 1.258 . S
O267 Mn252 2.162 . S
O267 C255 1.281 . S
O268 Mn252 2.297 . S
O268 C255 1.236 . S
N269 Mn253 2.282 1_565 S
N269 C270 1.328 . S
N269 C274 1.318 . S
C270 N269 1.328 . S
C270 C271 1.457 . S
C270 H275 0.929 . S
C271 C270 1.457 . S
C271 C272 1.291 . S
C271 H284 0.931 . S
C272 C271 1.291 . S
C272 C273 1.373 . S
C272 H285 0.929 . S
C273 C272 1.373 . S
C273 C274 1.396 . S
C273 C280 1.403 . S
C274 C264 1.476 . S
C274 N269 1.318 . S
C274 C273 1.396 . S
H275 C270 0.929 . S
O276 Mn252 2.385 . S
O276 C254 1.234 . S
O277 Mn252 2.209 . S
O277 Mn253 2.215 . S
O277 C254 1.283 . S
O278 Mn252 2.094 . S
O278 C256 1.240 . S
O279 Mn253 2.117 . S
O279 C256 1.264 . S
C280 C273 1.403 . S
C280 C281 1.399 . S
C280 H286 0.929 . S
C281 C261 1.449 . S
C281 C280 1.399 . S
C281 H287 0.930 . S
H282 C262 0.931 . S
H283 C263 0.930 . S
H284 C271 0.931 . S
H285 C272 0.929 . S
H286 C280 0.929 . S
H287 C281 0.930 . S
Mn288 O293 2.095 . S
Mn288 O303 2.162 . S
Mn288 O304 2.297 . S
Mn288 O312 2.385 . S
Mn288 O313 2.209 . S
Mn288 O314 2.094 . S
Mn289 O294 2.121 . S
Mn289 N296 2.257 . S
Mn289 N305 2.282 . S
Mn289 O313 2.215 . S
Mn289 O315 2.117 . S
C290 O312 1.234 . S
C290 O313 1.283 . S
C291 O303 1.281 . S
C291 O304 1.236 . S
C292 O314 1.240 . S
C292 O315 1.264 . S
O293 Mn288 2.095 . S
O293 C302 1.250 . S
O294 Mn289 2.121 . S
O294 C302 1.258 . S
C295 N296 1.326 . S
C295 C299 1.460 . S
C295 H301 0.929 . S
N296 Mn289 2.257 . S
N296 C295 1.326 . S
N296 C300 1.362 . S
C297 C298 1.258 . S
C297 C300 1.431 . S
C297 C317 1.449 . S
C298 C297 1.258 . S
C298 C299 1.477 . S
C298 H318 0.931 . S
C299 C295 1.460 . S
C299 C298 1.477 . S
C299 H319 0.930 . S
C300 N296 1.362 . S
C300 C297 1.431 . S
C300 C310 1.476 . S
H301 C295 0.929 . S
C302 O293 1.250 . S
C302 O294 1.258 . S
O303 Mn288 2.162 . S
O303 C291 1.281 . S
O304 Mn288 2.297 . S
O304 C291 1.236 . S
N305 Mn289 2.282 . S
N305 C306 1.328 . S
N305 C310 1.318 . S
C306 N305 1.328 . S
C306 C307 1.457 . S
C306 H311 0.929 . S
C307 C306 1.457 . S
C307 C308 1.291 . S
C307 H320 0.931 . S
C308 C307 1.291 . S
C308 C309 1.373 . S
C308 H321 0.929 . S
C309 C308 1.373 . S
C309 C310 1.396 . S
C309 C316 1.403 . S
C310 C300 1.476 . S
C310 N305 1.318 . S
C310 C309 1.396 . S
H311 C306 0.929 . S
O312 Mn288 2.385 . S
O312 C290 1.234 . S
O313 Mn288 2.209 . S
O313 Mn289 2.215 . S
O313 C290 1.283 . S
O314 Mn288 2.094 . S
O314 C292 1.240 . S
O315 Mn289 2.117 . S
O315 C292 1.264 . S
C316 C309 1.403 . S
C316 C317 1.399 . S
C316 H322 0.929 . S
C317 C297 1.449 . S
C317 C316 1.399 . S
C317 H323 0.930 . S
H318 C298 0.931 . S
H319 C299 0.930 . S
H320 C307 0.931 . S
H321 C308 0.929 . S
H322 C316 0.929 . S
H323 C317 0.930 . S
Mn324 O329 2.095 . S
Mn324 O339 2.162 . S
Mn324 O340 2.297 . S
Mn324 O348 2.385 . S
Mn324 O349 2.209 . S
Mn324 O350 2.094 . S
Mn325 O330 2.121 . S
Mn325 N332 2.257 . S
Mn325 N341 2.282 . S
Mn325 O349 2.215 . S
Mn325 O351 2.117 . S
C326 O348 1.234 . S
C326 O349 1.283 . S
C327 O339 1.281 . S
C327 O340 1.236 . S
C328 O350 1.240 . S
C328 O351 1.264 . S
O329 Mn324 2.095 . S
O329 C338 1.250 . S
O330 Mn325 2.121 . S
O330 C338 1.258 . S
C331 N332 1.326 . S
C331 C335 1.460 . S
C331 H337 0.929 . S
N332 Mn325 2.257 . S
N332 C331 1.326 . S
N332 C336 1.362 . S
C333 C334 1.258 . S
C333 C336 1.431 . S
C333 C353 1.449 . S
C334 C333 1.258 . S
C334 C335 1.477 . S
C334 H354 0.931 . S
C335 C331 1.460 . S
C335 C334 1.477 . S
C335 H355 0.930 . S
C336 N332 1.362 . S
C336 C333 1.431 . S
C336 C346 1.476 . S
H337 C331 0.929 . S
C338 O329 1.250 . S
C338 O330 1.258 . S
O339 Mn324 2.162 . S
O339 C327 1.281 . S
O340 Mn324 2.297 . S
O340 C327 1.236 . S
N341 Mn325 2.282 . S
N341 C342 1.328 . S
N341 C346 1.318 . S
C342 N341 1.328 . S
C342 C343 1.457 . S
C342 H347 0.929 . S
C343 C342 1.457 . S
C343 C344 1.291 . S
C343 H356 0.931 . S
C344 C343 1.291 . S
C344 C345 1.373 . S
C344 H357 0.929 . S
C345 C344 1.373 . S
C345 C346 1.396 . S
C345 C352 1.403 . S
C346 C336 1.476 . S
C346 N341 1.318 . S
C346 C345 1.396 . S
H347 C342 0.929 . S
O348 Mn324 2.385 . S
O348 C326 1.234 . S
O349 Mn324 2.209 . S
O349 Mn325 2.215 . S
O349 C326 1.283 . S
O350 Mn324 2.094 . S
O350 C328 1.240 . S
O351 Mn325 2.117 . S
O351 C328 1.264 . S
C352 C345 1.403 . S
C352 C353 1.399 . S
C352 H358 0.929 . S
C353 C333 1.449 . S
C353 C352 1.399 . S
C353 H359 0.930 . S
H354 C334 0.931 . S
H355 C335 0.930 . S
H356 C343 0.931 . S
H357 C344 0.929 . S
H358 C352 0.929 . S
H359 C353 0.930 . S
Mn360 O365 2.095 . S
Mn360 O375 2.162 . S
Mn360 O376 2.297 . S
Mn360 O384 2.385 . S
Mn360 O385 2.209 . S
Mn360 O386 2.094 . S
Mn361 O366 2.121 . S
Mn361 N368 2.257 . S
Mn361 N377 2.282 . S
Mn361 O385 2.215 . S
Mn361 O387 2.117 . S
C362 O384 1.234 . S
C362 O385 1.283 . S
C363 O375 1.281 . S
C363 O376 1.236 . S
C364 O386 1.240 . S
C364 O387 1.264 . S
O365 Mn360 2.095 . S
O365 C374 1.250 . S
O366 Mn361 2.121 . S
O366 C374 1.258 . S
C367 N368 1.326 . S
C367 C371 1.460 . S
C367 H373 0.929 . S
N368 Mn361 2.257 . S
N368 C367 1.326 . S
N368 C372 1.362 . S
C369 C370 1.258 . S
C369 C372 1.431 . S
C369 C389 1.449 . S
C370 C369 1.258 . S
C370 C371 1.477 . S
C370 H390 0.931 . S
C371 C367 1.460 . S
C371 C370 1.477 . S
C371 H391 0.930 . S
C372 N368 1.362 . S
C372 C369 1.431 . S
C372 C382 1.476 . S
H373 C367 0.929 . S
C374 O365 1.250 . S
C374 O366 1.258 . S
O375 Mn360 2.162 . S
O375 C363 1.281 . S
O376 Mn360 2.297 . S
O376 C363 1.236 . S
N377 Mn361 2.282 . S
N377 C378 1.328 . S
N377 C382 1.318 . S
C378 N377 1.328 . S
C378 C379 1.457 . S
C378 H383 0.929 . S
C379 C378 1.457 . S
C379 C380 1.291 . S
C379 H392 0.931 . S
C380 C379 1.291 . S
C380 C381 1.373 . S
C380 H393 0.929 . S
C381 C380 1.373 . S
C381 C382 1.396 . S
C381 C388 1.403 . S
C382 C372 1.476 . S
C382 N377 1.318 . S
C382 C381 1.396 . S
H383 C378 0.929 . S
O384 Mn360 2.385 . S
O384 C362 1.234 . S
O385 Mn360 2.209 . S
O385 Mn361 2.215 . S
O385 C362 1.283 . S
O386 Mn360 2.094 . S
O386 C364 1.240 . S
O387 Mn361 2.117 . S
O387 C364 1.264 . S
C388 C381 1.403 . S
C388 C389 1.399 . S
C388 H394 0.929 . S
C389 C369 1.449 . S
C389 C388 1.399 . S
C389 H395 0.930 . S
H390 C370 0.931 . S
H391 C371 0.930 . S
H392 C379 0.931 . S
H393 C380 0.929 . S
H394 C388 0.929 . S
H395 C389 0.930 . S
Mn396 O401 2.095 . S
Mn396 O411 2.162 . S
Mn396 O412 2.297 . S
Mn396 O420 2.385 . S
Mn396 O421 2.209 . S
Mn396 O422 2.094 . S
Mn397 O402 2.121 . S
Mn397 N404 2.257 . S
Mn397 N413 2.282 . S
Mn397 O421 2.215 . S
Mn397 O423 2.117 . S
C398 O420 1.234 . S
C398 O421 1.283 . S
C399 O411 1.281 . S
C399 O412 1.236 . S
C400 O422 1.240 . S
C400 O423 1.264 . S
O401 Mn396 2.095 . S
O401 C410 1.250 . S
O402 Mn397 2.121 . S
O402 C410 1.258 . S
C403 N404 1.326 . S
C403 C407 1.460 . S
C403 H409 0.929 . S
N404 Mn397 2.257 . S
N404 C403 1.326 . S
N404 C408 1.362 . S
C405 C406 1.258 . S
C405 C408 1.431 . S
C405 C425 1.449 . S
C406 C405 1.258 . S
C406 C407 1.477 . S
C406 H426 0.931 . S
C407 C403 1.460 . S
C407 C406 1.477 . S
C407 H427 0.930 . S
C408 N404 1.362 . S
C408 C405 1.431 . S
C408 C418 1.476 . S
H409 C403 0.929 . S
C410 O401 1.250 . S
C410 O402 1.258 . S
O411 Mn396 2.162 . S
O411 C399 1.281 . S
O412 Mn396 2.297 . S
O412 C399 1.236 . S
N413 Mn397 2.282 . S
N413 C414 1.328 . S
N413 C418 1.318 . S
C414 N413 1.328 . S
C414 C415 1.457 . S
C414 H419 0.929 . S
C415 C414 1.457 . S
C415 C416 1.291 . S
C415 H428 0.931 . S
C416 C415 1.291 . S
C416 C417 1.373 . S
C416 H429 0.929 . S
C417 C416 1.373 . S
C417 C418 1.396 . S
C417 C424 1.403 . S
C418 C408 1.476 . S
C418 N413 1.318 . S
C418 C417 1.396 . S
H419 C414 0.929 . S
O420 Mn396 2.385 . S
O420 C398 1.234 . S
O421 Mn396 2.209 . S
O421 Mn397 2.215 . S
O421 C398 1.283 . S
O422 Mn396 2.094 . S
O422 C400 1.240 . S
O423 Mn397 2.117 . S
O423 C400 1.264 . S
C424 C417 1.403 . S
C424 C425 1.399 . S
C424 H430 0.929 . S
C425 C405 1.449 . S
C425 C424 1.399 . S
C425 H431 0.930 . S
H426 C406 0.931 . S
H427 C407 0.930 . S
H428 C415 0.931 . S
H429 C416 0.929 . S
H430 C424 0.929 . S
H431 C425 0.930 . S
Mn432 O437 2.095 . S
Mn432 O447 2.162 . S
Mn432 O448 2.297 . S
Mn432 O456 2.385 . S
Mn432 O457 2.209 . S
Mn432 O458 2.094 . S
Mn433 O438 2.121 . S
Mn433 N440 2.257 . S
Mn433 N449 2.282 . S
Mn433 O457 2.215 . S
Mn433 O459 2.117 . S
C434 O456 1.234 . S
C434 O457 1.283 . S
C435 O447 1.281 . S
C435 O448 1.236 . S
C436 O458 1.240 . S
C436 O459 1.264 . S
O437 Mn432 2.095 . S
O437 C446 1.250 . S
O438 Mn433 2.121 . S
O438 C446 1.258 . S
C439 N440 1.326 . S
C439 C443 1.460 . S
C439 H445 0.929 . S
N440 Mn433 2.257 . S
N440 C439 1.326 . S
N440 C444 1.362 . S
C441 C442 1.258 . S
C441 C444 1.431 . S
C441 C461 1.449 . S
C442 C441 1.258 . S
C442 C443 1.477 . S
C442 H462 0.931 . S
C443 C439 1.460 . S
C443 C442 1.477 . S
C443 H463 0.930 . S
C444 N440 1.362 . S
C444 C441 1.431 . S
C444 C454 1.476 . S
H445 C439 0.929 . S
C446 O437 1.250 . S
C446 O438 1.258 . S
O447 Mn432 2.162 . S
O447 C435 1.281 . S
O448 Mn432 2.297 . S
O448 C435 1.236 . S
N449 Mn433 2.282 . S
N449 C450 1.328 . S
N449 C454 1.318 . S
C450 N449 1.328 . S
C450 C451 1.457 . S
C450 H455 0.929 . S
C451 C450 1.457 . S
C451 C452 1.291 . S
C451 H464 0.931 . S
C452 C451 1.291 . S
C452 C453 1.373 . S
C452 H465 0.929 . S
C453 C452 1.373 . S
C453 C454 1.396 . S
C453 C460 1.403 . S
C454 C444 1.476 . S
C454 N449 1.318 . S
C454 C453 1.396 . S
H455 C450 0.929 . S
O456 Mn432 2.385 . S
O456 C434 1.234 . S
O457 Mn432 2.209 . S
O457 Mn433 2.215 . S
O457 C434 1.283 . S
O458 Mn432 2.094 . S
O458 C436 1.240 . S
O459 Mn433 2.117 . S
O459 C436 1.264 . S
C460 C453 1.403 . S
C460 C461 1.399 . S
C460 H466 0.929 . S
C461 C441 1.449 . S
C461 C460 1.399 . S
C461 H467 0.930 . S
H462 C442 0.931 . S
H463 C443 0.930 . S
H464 C451 0.931 . S
H465 C452 0.929 . S
H466 C460 0.929 . S
H467 C461 0.930 . S
Mn468 O473 2.095 . S
Mn468 O483 2.162 . S
Mn468 O484 2.297 . S
Mn468 O492 2.385 . S
Mn468 O493 2.209 . S
Mn468 O494 2.094 . S
Mn469 O474 2.121 . S
Mn469 N476 2.257 . S
Mn469 N485 2.282 . S
Mn469 O493 2.215 . S
Mn469 O495 2.117 . S
C470 O492 1.234 . S
C470 O493 1.283 . S
C471 O483 1.281 . S
C471 O484 1.236 . S
C472 O494 1.240 . S
C472 O495 1.264 . S
O473 Mn468 2.095 . S
O473 C482 1.250 . S
O474 Mn469 2.121 . S
O474 C482 1.258 . S
C475 N476 1.326 . S
C475 C479 1.460 . S
C475 H481 0.929 . S
N476 Mn469 2.257 . S
N476 C475 1.326 . S
N476 C480 1.362 . S
C477 C478 1.258 . S
C477 C480 1.431 . S
C477 C497 1.449 . S
C478 C477 1.258 . S
C478 C479 1.477 . S
C478 H498 0.931 . S
C479 C475 1.460 . S
C479 C478 1.477 . S
C479 H499 0.930 . S
C480 N476 1.362 . S
C480 C477 1.431 . S
C480 C490 1.476 . S
H481 C475 0.929 . S
C482 O473 1.250 . S
C482 O474 1.258 . S
O483 Mn468 2.162 . S
O483 C471 1.281 . S
O484 Mn468 2.297 . S
O484 C471 1.236 . S
N485 Mn469 2.282 . S
N485 C486 1.328 . S
N485 C490 1.318 . S
C486 N485 1.328 . S
C486 C487 1.457 . S
C486 H491 0.929 . S
C487 C486 1.457 . S
C487 C488 1.291 . S
C487 H500 0.931 . S
C488 C487 1.291 . S
C488 C489 1.373 . S
C488 H501 0.929 . S
C489 C488 1.373 . S
C489 C490 1.396 . S
C489 C496 1.403 . S
C490 C480 1.476 . S
C490 N485 1.318 . S
C490 C489 1.396 . S
H491 C486 0.929 . S
O492 Mn468 2.385 . S
O492 C470 1.234 . S
O493 Mn468 2.209 . S
O493 Mn469 2.215 . S
O493 C470 1.283 . S
O494 Mn468 2.094 . S
O494 C472 1.240 . S
O495 Mn469 2.117 . S
O495 C472 1.264 . S
C496 C489 1.403 . S
C496 C497 1.399 . S
C496 H502 0.929 . S
C497 C477 1.449 . S
C497 C496 1.399 . S
C497 H503 0.930 . S
H498 C478 0.931 . S
H499 C479 0.930 . S
H500 C487 0.931 . S
H501 C488 0.929 . S
H502 C496 0.929 . S
H503 C497 0.930 . S
Mn504 O509 2.095 . S
Mn504 O519 2.162 . S
Mn504 O520 2.297 . S
Mn504 O528 2.385 . S
Mn504 O529 2.209 . S
Mn504 O530 2.094 . S
Mn505 O510 2.121 . S
Mn505 N512 2.257 . S
Mn505 N521 2.282 . S
Mn505 O529 2.215 . S
Mn505 O531 2.117 . S
C506 O528 1.234 . S
C506 O529 1.283 . S
C507 O519 1.281 . S
C507 O520 1.236 . S
C508 O530 1.240 . S
C508 O531 1.264 . S
O509 Mn504 2.095 . S
O509 C518 1.250 . S
O510 Mn505 2.121 . S
O510 C518 1.258 . S
C511 N512 1.326 . S
C511 C515 1.460 . S
C511 H517 0.929 . S
N512 Mn505 2.257 . S
N512 C511 1.326 . S
N512 C516 1.362 . S
C513 C514 1.258 . S
C513 C516 1.431 . S
C513 C533 1.449 . S
C514 C513 1.258 . S
C514 C515 1.477 . S
C514 H534 0.931 . S
C515 C511 1.460 . S
C515 C514 1.477 . S
C515 H535 0.930 . S
C516 N512 1.362 . S
C516 C513 1.431 . S
C516 C526 1.476 . S
H517 C511 0.929 . S
C518 O509 1.250 . S
C518 O510 1.258 . S
O519 Mn504 2.162 . S
O519 C507 1.281 . S
O520 Mn504 2.297 . S
O520 C507 1.236 . S
N521 Mn505 2.282 . S
N521 C522 1.328 . S
N521 C526 1.318 . S
C522 N521 1.328 . S
C522 C523 1.457 . S
C522 H527 0.929 . S
C523 C522 1.457 . S
C523 C524 1.291 . S
C523 H536 0.931 . S
C524 C523 1.291 . S
C524 C525 1.373 . S
C524 H537 0.929 . S
C525 C524 1.373 . S
C525 C526 1.396 . S
C525 C532 1.403 . S
C526 C516 1.476 . S
C526 N521 1.318 . S
C526 C525 1.396 . S
H527 C522 0.929 . S
O528 Mn504 2.385 . S
O528 C506 1.234 . S
O529 Mn504 2.209 . S
O529 Mn505 2.215 . S
O529 C506 1.283 . S
O530 Mn504 2.094 . S
O530 C508 1.240 . S
O531 Mn505 2.117 . S
O531 C508 1.264 . S
C532 C525 1.403 . S
C532 C533 1.399 . S
C532 H538 0.929 . S
C533 C513 1.449 . S
C533 C532 1.399 . S
C533 H539 0.930 . S
H534 C514 0.931 . S
H535 C515 0.930 . S
H536 C523 0.931 . S
H537 C524 0.929 . S
H538 C532 0.929 . S
H539 C533 0.930 . S
Mn540 O545 2.095 . S
Mn540 O555 2.162 . S
Mn540 O556 2.297 . S
Mn540 O564 2.385 . S
Mn540 O565 2.209 . S
Mn540 O566 2.094 . S
Mn541 O546 2.121 . S
Mn541 N548 2.257 . S
Mn541 N557 2.282 . S
Mn541 O565 2.215 . S
Mn541 O567 2.117 . S
C542 O564 1.234 . S
C542 O565 1.283 . S
C543 O555 1.281 . S
C543 O556 1.236 . S
C544 O566 1.240 . S
C544 O567 1.264 . S
O545 Mn540 2.095 . S
O545 C554 1.250 . S
O546 Mn541 2.121 . S
O546 C554 1.258 . S
C547 N548 1.326 . S
C547 C551 1.460 . S
C547 H553 0.929 . S
N548 Mn541 2.257 . S
N548 C547 1.326 . S
N548 C552 1.362 . S
C549 C550 1.258 . S
C549 C552 1.431 . S
C549 C569 1.449 . S
C550 C549 1.258 . S
C550 C551 1.477 . S
C550 H570 0.931 . S
C551 C547 1.460 . S
C551 C550 1.477 . S
C551 H571 0.930 . S
C552 N548 1.362 . S
C552 C549 1.431 . S
C552 C562 1.476 . S
H553 C547 0.929 . S
C554 O545 1.250 . S
C554 O546 1.258 . S
O555 Mn540 2.162 . S
O555 C543 1.281 . S
O556 Mn540 2.297 . S
O556 C543 1.236 . S
N557 Mn541 2.282 . S
N557 C558 1.328 . S
N557 C562 1.318 . S
C558 N557 1.328 . S
C558 C559 1.457 . S
C558 H563 0.929 . S
C559 C558 1.457 . S
C559 C560 1.291 . S
C559 H572 0.931 . S
C560 C559 1.291 . S
C560 C561 1.373 . S
C560 H573 0.929 . S
C561 C560 1.373 . S
C561 C562 1.396 . S
C561 C568 1.403 . S
C562 C552 1.476 . S
C562 N557 1.318 . S
C562 C561 1.396 . S
H563 C558 0.929 . S
O564 Mn540 2.385 . S
O564 C542 1.234 . S
O565 Mn540 2.209 . S
O565 Mn541 2.215 . S
O565 C542 1.283 . S
O566 Mn540 2.094 . S
O566 C544 1.240 . S
O567 Mn541 2.117 . S
O567 C544 1.264 . S
C568 C561 1.403 . S
C568 C569 1.399 . S
C568 H574 0.929 . S
C569 C549 1.449 . S
C569 C568 1.399 . S
C569 H575 0.930 . S
H570 C550 0.931 . S
H571 C551 0.930 . S
H572 C559 0.931 . S
H573 C560 0.929 . S
H574 C568 0.929 . S
H575 C569 0.930 . S
H576 C582 0.930 . S
H577 C585 0.930 . S
H578 C586 0.930 . S
H579 C587 0.930 . S
H580 C590 0.930 . S
H581 C591 0.930 . S
C582 H576 0.930 . S
C582 C583 1.355 . S
C582 C584 1.415 . S
C583 C582 1.355 . S
C583 C585 1.419 . S
C584 C582 1.415 . S
C584 C589 1.425 . S
C584 C591 1.409 . S
C585 H577 0.930 . S
C585 C583 1.419 . S
C585 C586 1.362 . S
C586 H578 0.930 . S
C586 C585 1.362 . S
C586 C589 1.409 . S
C587 H579 0.930 . S
C587 C588 1.355 . S
C587 C589 1.415 . S
C588 C587 1.355 . S
C588 C590 1.419 . S
C589 C584 1.425 . S
C589 C586 1.409 . S
C589 C587 1.415 . S
C590 H580 0.930 . S
C590 C588 1.419 . S
C590 C591 1.362 . S
C591 H581 0.930 . S
C591 C584 1.409 . S
C591 C590 1.362 . S
H592 C598 0.930 . S
H593 C601 0.930 . S
H594 C602 0.930 . S
H595 C603 0.930 . S
H596 C606 0.930 . S
H597 C607 0.930 . S
C598 H592 0.930 . S
C598 C599 1.355 . S
C598 C600 1.415 . S
C599 C598 1.355 . S
C599 C601 1.419 . S
C600 C598 1.415 . S
C600 C605 1.425 . S
C600 C607 1.409 . S
C601 H593 0.930 . S
C601 C599 1.419 . S
C601 C602 1.362 . S
C602 H594 0.930 . S
C602 C601 1.362 . S
C602 C605 1.409 . S
C603 H595 0.930 . S
C603 C604 1.355 . S
C603 C605 1.415 . S
C604 C603 1.355 . S
C604 C606 1.419 . S
C605 C600 1.425 . S
C605 C602 1.409 . S
C605 C603 1.415 . S
C606 H596 0.930 . S
C606 C604 1.419 . S
C606 C607 1.362 . S
C607 H597 0.930 . S
C607 C600 1.409 . S
C607 C606 1.362 . S
H608 C614 0.930 . S
H609 C617 0.930 . S
H610 C618 0.930 . S
H611 C619 0.930 . S
H612 C622 0.930 . S
H613 C623 0.930 . S
C614 H608 0.930 . S
C614 C615 1.355 . S
C614 C616 1.415 . S
C615 C614 1.355 . S
C615 C617 1.419 . S
C616 C614 1.415 . S
C616 C621 1.425 . S
C616 C623 1.409 . S
C617 H609 0.930 . S
C617 C615 1.419 . S
C617 C618 1.362 . S
C618 H610 0.930 . S
C618 C617 1.362 . S
C618 C621 1.409 . S
C619 H611 0.930 . S
C619 C620 1.355 . S
C619 C621 1.415 . S
C620 C619 1.355 . S
C620 C622 1.419 . S
C621 C616 1.425 . S
C621 C618 1.409 . S
C621 C619 1.415 . S
C622 H612 0.930 . S
C622 C620 1.419 . S
C622 C623 1.362 . S
C623 H613 0.930 . S
C623 C616 1.409 . S
C623 C622 1.362 . S
H624 C630 0.930 . S
H625 C633 0.930 . S
H626 C634 0.930 . S
H627 C635 0.930 . S
H628 C638 0.930 . S
H629 C639 0.930 . S
C630 H624 0.930 . S
C630 C631 1.355 . S
C630 C632 1.415 . S
C631 C630 1.355 . S
C631 C633 1.419 . S
C632 C630 1.415 . S
C632 C637 1.425 . S
C632 C639 1.409 . S
C633 H625 0.930 . S
C633 C631 1.419 . S
C633 C634 1.362 . S
C634 H626 0.930 . S
C634 C633 1.362 . S
C634 C637 1.409 . S
C635 H627 0.930 . S
C635 C636 1.355 . S
C635 C637 1.415 . S
C636 C635 1.355 . S
C636 C638 1.419 . S
C637 C632 1.425 . S
C637 C634 1.409 . S
C637 C635 1.415 . S
C638 H628 0.930 . S
C638 C636 1.419 . S
C638 C639 1.362 . S
C639 H629 0.930 . S
C639 C632 1.409 . S
C639 C638 1.362 . S
H640 C646 0.930 . S
H641 C649 0.930 1_565 S
H642 C650 0.930 . S
H643 C651 0.930 . S
H644 C654 0.930 . S
H645 C655 0.930 . S
C646 H640 0.930 . S
C646 C647 1.355 . S
C646 C648 1.415 . S
C647 C646 1.355 . S
C647 C649 1.419 . S
C648 C646 1.415 . S
C648 C653 1.425 . S
C648 C655 1.409 . S
C649 H641 0.930 1_545 S
C649 C647 1.419 . S
C649 C650 1.362 . S
C650 H642 0.930 . S
C650 C649 1.362 . S
C650 C653 1.409 . S
C651 H643 0.930 . S
C651 C652 1.355 . S
C651 C653 1.415 1_556 S
C652 C651 1.355 . S
C652 C654 1.419 1_556 S
C653 C648 1.425 . S
C653 C650 1.409 . S
C653 C651 1.415 1_554 S
C654 H644 0.930 . S
C654 C652 1.419 1_554 S
C654 C655 1.362 . S
C655 H645 0.930 . S
C655 C648 1.409 . S
C655 C654 1.362 . S
H656 C662 0.930 . S
H657 C665 0.930 . S
H658 C666 0.930 . S
H659 C667 0.930 . S
H660 C670 0.930 1_654 S
H661 C671 0.930 . S
C662 H656 0.930 . S
C662 C663 1.359 . S
C662 C664 1.415 1_554 S
C663 C662 1.359 . S
C663 C665 1.410 1_554 S
C664 C662 1.415 1_556 S
C664 C669 1.425 . S
C664 C671 1.409 1_556 S
C665 H657 0.930 . S
C665 C663 1.410 1_556 S
C665 C666 1.362 . S
C666 H658 0.930 . S
C666 C665 1.362 . S
C666 C669 1.409 . S
C667 H659 0.930 . S
C667 C668 1.355 . S
C667 C669 1.415 . S
C668 C667 1.355 . S
C668 C670 1.419 . S
C669 C664 1.425 . S
C669 C666 1.409 . S
C669 C667 1.415 . S
C670 H660 0.930 1_456 S
C670 C668 1.419 . S
C670 C671 1.362 1_556 S
C671 H661 0.930 . S
C671 C664 1.409 1_554 S
C671 C670 1.362 1_554 S
H672 C678 0.930 . S
H673 C681 0.930 . S
H674 C682 0.930 . S
H675 C683 0.930 . S
H676 C686 0.930 1_545 S
H677 C687 0.930 . S
C678 H672 0.930 . S
C678 C679 1.352 1_556 S
C678 C680 1.415 1_556 S
C679 C678 1.352 1_554 S
C679 C681 1.425 . S
C680 C678 1.415 1_554 S
C680 C685 1.425 . S
C680 C687 1.409 1_554 S
C681 H673 0.930 . S
C681 C679 1.425 . S
C681 C682 1.362 . S
C682 H674 0.930 . S
C682 C681 1.362 . S
C682 C685 1.409 . S
C683 H675 0.930 . S
C683 C684 1.355 . S
C683 C685 1.415 . S
C684 C683 1.355 . S
C684 C686 1.419 . S
C685 C680 1.425 . S
C685 C682 1.409 . S
C685 C683 1.415 . S
C686 H676 0.930 1_565 S
C686 C684 1.419 . S
C686 C687 1.362 1_554 S
C687 H677 0.930 . S
C687 C680 1.409 1_556 S
C687 C686 1.362 1_556 S
H688 C694 0.930 . S
H689 C697 0.930 . S
H690 C698 0.930 . S
H691 C699 0.930 . S
H692 C702 0.930 . S
H693 C703 0.958 . S
C694 H688 0.930 . S
C694 C695 1.354 1_554 S
C694 C696 1.415 1_554 S
C695 C694 1.354 1_556 S
C695 C697 1.421 . S
C696 C694 1.415 1_556 S
C696 C701 1.425 . S
C696 C703 1.400 1_556 S
C697 H689 0.930 . S
C697 C695 1.421 . S
C697 C698 1.362 . S
C698 H690 0.930 . S
C698 C697 1.362 . S
C698 C701 1.409 . S
C699 H691 0.930 . S
C699 C700 1.355 . S
C699 C701 1.415 . S
C700 C699 1.355 . S
C700 C702 1.419 . S
C701 C696 1.425 . S
C701 C698 1.409 . S
C701 C699 1.415 . S
C702 H692 0.930 . S
C702 C700 1.419 . S
C702 C703 1.345 1_556 S
C703 H693 0.958 . S
C703 C696 1.400 1_554 S
C703 C702 1.345 1_554 S
H704 C710 0.930 . S
H705 C713 0.930 . S
H706 C714 0.930 . S
H707 C715 0.930 . S
H708 C718 0.930 . S
H709 C719 0.930 . S
C710 H704 0.930 . S
C710 C711 1.355 . S
C710 C712 1.415 . S
C711 C710 1.355 . S
C711 C713 1.419 . S
C712 C710 1.415 . S
C712 C717 1.425 . S
C712 C719 1.409 . S
C713 H705 0.930 . S
C713 C711 1.419 . S
C713 C714 1.362 . S
C714 H706 0.930 . S
C714 C713 1.362 . S
C714 C717 1.409 . S
C715 H707 0.930 . S
C715 C716 1.355 . S
C715 C717 1.415 . S
C716 C715 1.355 . S
C716 C718 1.419 . S
C717 C712 1.425 . S
C717 C714 1.409 . S
C717 C715 1.415 . S
C718 H708 0.930 . S
C718 C716 1.419 . S
C718 C719 1.362 . S
C719 H709 0.930 . S
C719 C712 1.409 . S
C719 C718 1.362 . S
H720 C726 0.930 . S
H721 C729 0.930 1_455 S
H722 C730 0.930 . S
H723 C731 0.930 . S
H724 C734 0.930 . S
H725 C735 0.930 . S
C726 H720 0.930 . S
C726 C727 1.355 . S
C726 C728 1.415 . S
C727 C726 1.355 . S
C727 C729 1.419 . S
C728 C726 1.415 . S
C728 C733 1.425 . S
C728 C735 1.409 . S
C729 H721 0.930 1_655 S
C729 C727 1.419 . S
C729 C730 1.362 . S
C730 H722 0.930 . S
C730 C729 1.362 . S
C730 C733 1.409 . S
C731 H723 0.930 . S
C731 C732 1.355 . S
C731 C733 1.415 . S
C732 C731 1.355 . S
C732 C734 1.419 . S
C733 C728 1.425 . S
C733 C730 1.409 . S
C733 C731 1.415 . S
C734 H724 0.930 . S
C734 C732 1.419 . S
C734 C735 1.362 . S
C735 H725 0.930 . S
C735 C728 1.409 . S
C735 C734 1.362 . S
H736 C742 0.930 . S
H737 C745 0.930 . S
H738 C746 0.930 . S
H739 C747 0.930 . S
H740 C750 0.930 . S
H741 C751 0.930 . S
C742 H736 0.930 . S
C742 C743 1.355 . S
C742 C744 1.415 . S
C743 C742 1.355 . S
C743 C745 1.419 . S
C744 C742 1.415 . S
C744 C749 1.425 . S
C744 C751 1.409 . S
C745 H737 0.930 . S
C745 C743 1.419 . S
C745 C746 1.362 . S
C746 H738 0.930 . S
C746 C745 1.362 . S
C746 C749 1.409 . S
C747 H739 0.930 . S
C747 C748 1.355 . S
C747 C749 1.415 . S
C748 C747 1.355 . S
C748 C750 1.419 . S
C749 C744 1.425 . S
C749 C746 1.409 . S
C749 C747 1.415 . S
C750 H740 0.930 . S
C750 C748 1.419 . S
C750 C751 1.362 . S
C751 H741 0.930 . S
C751 C744 1.409 . S
C751 C750 1.362 . S
H752 C758 0.930 . S
H753 C761 0.930 . S
H754 C762 0.930 . S
H755 C763 0.930 . S
H756 C766 0.930 . S
H757 C767 0.930 . S
C758 H752 0.930 . S
C758 C759 1.355 . S
C758 C760 1.415 . S
C759 C758 1.355 . S
C759 C761 1.419 . S
C760 C758 1.415 . S
C760 C765 1.425 . S
C760 C767 1.409 . S
C761 H753 0.930 . S
C761 C759 1.419 . S
C761 C762 1.362 . S
C762 H754 0.930 . S
C762 C761 1.362 . S
C762 C765 1.409 . S
C763 H755 0.930 . S
C763 C764 1.355 . S
C763 C765 1.415 . S
C764 C763 1.355 . S
C764 C766 1.419 . S
C765 C760 1.425 . S
C765 C762 1.409 . S
C765 C763 1.415 . S
C766 H756 0.930 . S
C766 C764 1.419 . S
C766 C767 1.362 . S
C767 H757 0.930 . S
C767 C760 1.409 . S
C767 C766 1.362 . S
H768 C774 0.930 . S
H769 C777 0.930 . S
H770 C778 0.930 . S
H771 C779 0.930 . S
H772 C782 0.930 . S
H773 C783 0.930 . S
C774 H768 0.930 . S
C774 C775 1.355 . S
C774 C776 1.415 . S
C775 C774 1.355 . S
C775 C777 1.419 . S
C776 C774 1.415 . S
C776 C781 1.425 . S
C776 C783 1.409 . S
C777 H769 0.930 . S
C777 C775 1.419 . S
C777 C778 1.362 . S
C778 H770 0.930 . S
C778 C777 1.362 . S
C778 C781 1.409 . S
C779 H771 0.930 . S
C779 C780 1.355 . S
C779 C781 1.415 . S
C780 C779 1.355 . S
C780 C782 1.419 . S
C781 C776 1.425 . S
C781 C778 1.409 . S
C781 C779 1.415 . S
C782 H772 0.930 . S
C782 C780 1.419 . S
C782 C783 1.362 . S
C783 H773 0.930 . S
C783 C776 1.409 . S
C783 C782 1.362 . S
H784 C790 0.930 . S
H785 C793 0.930 . S
H786 C794 0.930 . S
H787 C795 0.930 . S
H788 C798 0.930 . S
H789 C799 0.930 . S
C790 H784 0.930 . S
C790 C791 1.355 . S
C790 C792 1.415 . S
C791 C790 1.355 . S
C791 C793 1.419 . S
C792 C790 1.415 . S
C792 C797 1.425 . S
C792 C799 1.409 . S
C793 H785 0.930 . S
C793 C791 1.419 . S
C793 C794 1.362 . S
C794 H786 0.930 . S
C794 C793 1.362 . S
C794 C797 1.409 . S
C795 H787 0.930 . S
C795 C796 1.355 . S
C795 C797 1.415 . S
C796 C795 1.355 . S
C796 C798 1.419 . S
C797 C792 1.425 . S
C797 C794 1.409 . S
C797 C795 1.415 . S
C798 H788 0.930 . S
C798 C796 1.419 . S
C798 C799 1.362 . S
C799 H789 0.930 . S
C799 C792 1.409 . S
C799 C798 1.362 . S
H800 C806 0.930 . S
H801 C809 0.930 . S
H802 C810 0.930 . S
H803 C811 0.930 . S
H804 C814 0.930 . S
H805 C815 0.930 . S
C806 H800 0.930 . S
C806 C807 1.355 . S
C806 C808 1.415 . S
C807 C806 1.355 . S
C807 C809 1.419 . S
C808 C806 1.415 . S
C808 C813 1.425 . S
C808 C815 1.409 . S
C809 H801 0.930 . S
C809 C807 1.419 . S
C809 C810 1.362 . S
C810 H802 0.930 . S
C810 C809 1.362 . S
C810 C813 1.409 . S
C811 H803 0.930 . S
C811 C812 1.355 . S
C811 C813 1.415 . S
C812 C811 1.355 . S
C812 C814 1.419 . S
C813 C808 1.425 . S
C813 C810 1.409 . S
C813 C811 1.415 . S
C814 H804 0.930 . S
C814 C812 1.419 . S
C814 C815 1.362 . S
C815 H805 0.930 . S
C815 C808 1.409 . S
C815 C814 1.362 . S
H816 C822 0.930 . S
H817 C825 0.930 . S
H818 C826 0.930 . S
H819 C827 0.930 . S
H820 C830 0.930 . S
H821 C831 0.930 . S
C822 H816 0.930 . S
C822 C823 1.355 . S
C822 C824 1.415 . S
C823 C822 1.355 . S
C823 C825 1.419 . S
C824 C822 1.415 . S
C824 C829 1.425 . S
C824 C831 1.409 . S
C825 H817 0.930 . S
C825 C823 1.419 . S
C825 C826 1.362 . S
C826 H818 0.930 . S
C826 C825 1.362 . S
C826 C829 1.409 . S
C827 H819 0.930 . S
C827 C828 1.355 . S
C827 C829 1.415 . S
C828 C827 1.355 . S
C828 C830 1.419 . S
C829 C824 1.425 . S
C829 C826 1.409 . S
C829 C827 1.415 . S
C830 H820 0.930 . S
C830 C828 1.419 . S
C830 C831 1.362 . S
C831 H821 0.930 . S
C831 C824 1.409 . S
C831 C830 1.362 . S
H832 C838 0.930 . S
H833 C841 0.930 . S
H834 C842 0.930 . S
H835 C843 0.930 . S
H836 C846 0.930 . S
H837 C847 0.930 . S
C838 H832 0.930 . S
C838 C839 1.355 . S
C838 C840 1.415 . S
C839 C838 1.355 . S
C839 C841 1.419 . S
C840 C838 1.415 . S
C840 C845 1.425 . S
C840 C847 1.409 . S
C841 H833 0.930 . S
C841 C839 1.419 . S
C841 C842 1.362 . S
C842 H834 0.930 . S
C842 C841 1.362 . S
C842 C845 1.409 . S
C843 H835 0.930 . S
C843 C844 1.355 . S
C843 C845 1.415 . S
C844 C843 1.355 . S
C844 C846 1.419 . S
C845 C840 1.425 . S
C845 C842 1.409 . S
C845 C843 1.415 . S
C846 H836 0.930 . S
C846 C844 1.419 . S
C846 C847 1.362 . S
C847 H837 0.930 . S
C847 C840 1.409 . S
C847 C846 1.362 . S
H848 C854 0.930 . S
H849 C857 0.930 . S
H850 C858 0.930 . S
H851 C859 0.930 . S
H852 C862 0.930 . S
H853 C863 0.930 . S
C854 H848 0.930 . S
C854 C855 1.355 . S
C854 C856 1.415 . S
C855 C854 1.355 . S
C855 C857 1.419 . S
C856 C854 1.415 . S
C856 C861 1.425 . S
C856 C863 1.409 . S
C857 H849 0.930 . S
C857 C855 1.419 . S
C857 C858 1.362 . S
C858 H850 0.930 . S
C858 C857 1.362 . S
C858 C861 1.409 . S
C859 H851 0.930 . S
C859 C860 1.355 . S
C859 C861 1.415 . S
C860 C859 1.355 . S
C860 C862 1.419 . S
C861 C856 1.425 . S
C861 C858 1.409 . S
C861 C859 1.415 . S
C862 H852 0.930 . S
C862 C860 1.419 . S
C862 C863 1.362 . S
C863 H853 0.930 . S
C863 C856 1.409 . S
C863 C862 1.362 . S
H864 C870 0.930 . S
H865 C873 0.930 . S
H866 C874 0.930 . S
H867 C875 0.930 . S
H868 C878 0.930 . S
H869 C879 0.930 . S
C870 H864 0.930 . S
C870 C871 1.355 . S
C870 C872 1.415 . S
C871 C870 1.355 . S
C871 C873 1.419 . S
C872 C870 1.415 . S
C872 C877 1.425 . S
C872 C879 1.409 . S
C873 H865 0.930 . S
C873 C871 1.419 . S
C873 C874 1.362 . S
C874 H866 0.930 . S
C874 C873 1.362 . S
C874 C877 1.409 . S
C875 H867 0.930 . S
C875 C876 1.355 . S
C875 C877 1.415 . S
C876 C875 1.355 . S
C876 C878 1.419 . S
C877 C872 1.425 . S
C877 C874 1.409 . S
C877 C875 1.415 . S
C878 H868 0.930 . S
C878 C876 1.419 . S
C878 C879 1.362 . S
C879 H869 0.930 . S
C879 C872 1.409 . S
C879 C878 1.362 . S
H880 C886 0.930 . S
H881 C889 0.930 . S
H882 C890 0.930 . S
H883 C891 0.930 . S
H884 C894 0.930 . S
H885 C895 0.930 . S
C886 H880 0.930 . S
C886 C887 1.355 . S
C886 C888 1.415 . S
C887 C886 1.355 . S
C887 C889 1.419 . S
C888 C886 1.415 . S
C888 C893 1.425 . S
C888 C895 1.409 . S
C889 H881 0.930 . S
C889 C887 1.419 . S
C889 C890 1.362 . S
C890 H882 0.930 . S
C890 C889 1.362 . S
C890 C893 1.409 . S
C891 H883 0.930 . S
C891 C892 1.355 . S
C891 C893 1.415 . S
C892 C891 1.355 . S
C892 C894 1.419 . S
C893 C888 1.425 . S
C893 C890 1.409 . S
C893 C891 1.415 . S
C894 H884 0.930 . S
C894 C892 1.419 . S
C894 C895 1.362 . S
C895 H885 0.930 . S
C895 C888 1.409 . S
C895 C894 1.362 . S
H896 C902 0.930 . S
H897 C905 0.930 . S
H898 C906 0.930 . S
H899 C907 0.930 . S
H900 C910 0.930 . S
H901 C911 0.930 . S
C902 H896 0.930 . S
C902 C903 1.355 . S
C902 C904 1.415 . S
C903 C902 1.355 . S
C903 C905 1.419 . S
C904 C902 1.415 . S
C904 C909 1.425 . S
C904 C911 1.409 . S
C905 H897 0.930 . S
C905 C903 1.419 . S
C905 C906 1.362 . S
C906 H898 0.930 . S
C906 C905 1.362 . S
C906 C909 1.409 . S
C907 H899 0.930 . S
C907 C908 1.355 . S
C907 C909 1.415 . S
C908 C907 1.355 . S
C908 C910 1.419 . S
C909 C904 1.425 . S
C909 C906 1.409 . S
C909 C907 1.415 . S
C910 H900 0.930 . S
C910 C908 1.419 . S
C910 C911 1.362 . S
C911 H901 0.930 . S
C911 C904 1.409 . S
C911 C910 1.362 . S
H912 C918 0.930 . S
H913 C921 0.930 . S
H914 C922 0.930 . S
H915 C923 0.930 . S
H916 C926 0.930 . S
H917 C927 0.930 . S
C918 H912 0.930 . S
C918 C919 1.355 . S
C918 C920 1.415 . S
C919 C918 1.355 . S
C919 C921 1.419 . S
C920 C918 1.415 . S
C920 C925 1.425 . S
C920 C927 1.409 . S
C921 H913 0.930 . S
C921 C919 1.419 . S
C921 C922 1.362 . S
C922 H914 0.930 . S
C922 C921 1.362 . S
C922 C925 1.409 . S
C923 H915 0.930 . S
C923 C924 1.355 . S
C923 C925 1.415 . S
C924 C923 1.355 . S
C924 C926 1.419 . S
C925 C920 1.425 . S
C925 C922 1.409 . S
C925 C923 1.415 . S
C926 H916 0.930 . S
C926 C924 1.419 . S
C926 C927 1.362 . S
C927 H917 0.930 . S
C927 C920 1.409 . S
C927 C926 1.362 . S
H928 C934 0.930 . S
H929 C937 0.930 . S
H930 C938 0.930 . S
H931 C939 0.930 . S
H932 C942 0.930 . S
H933 C943 0.930 . S
C934 H928 0.930 . S
C934 C935 1.355 . S
C934 C936 1.415 . S
C935 C934 1.355 . S
C935 C937 1.419 . S
C936 C934 1.415 . S
C936 C941 1.425 . S
C936 C943 1.409 . S
C937 H929 0.930 . S
C937 C935 1.419 . S
C937 C938 1.362 . S
C938 H930 0.930 . S
C938 C937 1.362 . S
C938 C941 1.409 . S
C939 H931 0.930 . S
C939 C940 1.355 . S
C939 C941 1.415 . S
C940 C939 1.355 . S
C940 C942 1.419 . S
C941 C936 1.425 . S
C941 C938 1.409 . S
C941 C939 1.415 . S
C942 H932 0.930 . S
C942 C940 1.419 . S
C942 C943 1.362 . S
C943 H933 0.930 . S
C943 C936 1.409 . S
C943 C942 1.362 . S
H944 C950 0.930 . S
H945 C953 0.930 . S
H946 C954 0.930 . S
H947 C955 0.930 . S
H948 C958 0.930 . S
H949 C959 0.930 . S
C950 H944 0.930 . S
C950 C951 1.355 . S
C950 C952 1.415 . S
C951 C950 1.355 . S
C951 C953 1.419 . S
C952 C950 1.415 . S
C952 C957 1.425 . S
C952 C959 1.409 . S
C953 H945 0.930 . S
C953 C951 1.419 . S
C953 C954 1.362 . S
C954 H946 0.930 . S
C954 C953 1.362 . S
C954 C957 1.409 . S
C955 H947 0.930 . S
C955 C956 1.355 . S
C955 C957 1.415 . S
C956 C955 1.355 . S
C956 C958 1.419 . S
C957 C952 1.425 . S
C957 C954 1.409 . S
C957 C955 1.415 . S
C958 H948 0.930 . S
C958 C956 1.419 . S
C958 C959 1.362 . S
C959 H949 0.930 . S
C959 C952 1.409 . S
C959 C958 1.362 . S
H960 C966 0.930 . S
H961 C969 0.930 . S
H962 C970 0.930 . S
H963 C971 0.930 . S
H964 C974 0.930 . S
H965 C975 0.930 . S
C966 H960 0.930 . S
C966 C967 1.355 . S
C966 C968 1.415 1_655 S
C967 C966 1.355 . S
C967 C969 1.419 . S
C968 C966 1.415 1_455 S
C968 C973 1.425 1_465 S
C968 C975 1.409 . S
C969 H961 0.930 . S
C969 C967 1.419 . S
C969 C970 1.362 1_565 S
C970 H962 0.930 . S
C970 C969 1.362 1_545 S
C970 C973 1.409 . S
C971 H963 0.930 . S
C971 C972 1.355 . S
C971 C973 1.415 1_455 S
C972 C971 1.355 . S
C972 C974 1.419 . S
C973 C968 1.425 1_645 S
C973 C970 1.409 . S
C973 C971 1.415 1_655 S
C974 H964 0.930 . S
C974 C972 1.419 . S
C974 C975 1.362 1_545 S
C975 H965 0.930 . S
C975 C968 1.409 . S
C975 C974 1.362 1_565 S
H976 C982 0.930 . S
H977 C985 0.930 . S
H978 C986 0.930 . S
H979 C987 0.930 . S
H980 C990 0.930 . S
H981 C991 0.930 . S
C982 H976 0.930 . S
C982 C983 1.355 . S
C982 C984 1.415 1_545 S
C983 C982 1.355 . S
C983 C985 1.419 . S
C984 C982 1.415 1_565 S
C984 C989 1.425 1_665 S
C984 C991 1.409 . S
C985 H977 0.930 . S
C985 C983 1.419 . S
C985 C986 1.362 1_655 S
C986 H978 0.930 . S
C986 C985 1.362 1_455 S
C986 C989 1.409 . S
C987 H979 0.930 . S
C987 C988 1.355 . S
C987 C989 1.415 1_565 S
C988 C987 1.355 . S
C988 C990 1.419 . S
C989 C984 1.425 1_445 S
C989 C986 1.409 . S
C989 C987 1.415 1_545 S
C990 H980 0.930 . S
C990 C988 1.419 . S
C990 C991 1.362 1_455 S
C991 H981 0.930 . S
C991 C984 1.409 . S
C991 C990 1.362 1_655 S
H992 C998 0.924 1_655 S
H993 C1001 0.930 . S
H994 C1002 0.930 . S
H995 C1003 0.924 1_455 S
H996 C1006 0.930 . S
H997 C1007 0.930 . S
C998 H992 0.924 1_455 S
C998 C999 1.355 . S
C998 C1000 1.415 1_455 S
C999 C998 1.355 . S
C999 C1001 1.419 . S
C1000 C998 1.415 1_655 S
C1000 C1005 1.425 1_655 S
C1000 C1007 1.409 . S
C1001 H993 0.930 . S
C1001 C999 1.419 . S
C1001 C1002 1.362 . S
C1002 H994 0.930 . S
C1002 C1001 1.362 . S
C1002 C1005 1.409 . S
C1003 H995 0.924 1_655 S
C1003 C1004 1.355 . S
C1003 C1005 1.415 1_655 S
C1004 C1003 1.355 . S
C1004 C1006 1.419 . S
C1005 C1000 1.425 1_455 S
C1005 C1002 1.409 . S
C1005 C1003 1.415 1_455 S
C1006 H996 0.930 . S
C1006 C1004 1.419 . S
C1006 C1007 1.362 . S
C1007 H997 0.930 . S
C1007 C1000 1.409 . S
C1007 C1006 1.362 . S
H1008 C1014 0.930 . S
H1009 C1017 0.930 . S
H1010 C1018 0.930 . S
H1011 C1019 0.930 . S
H1012 C1022 0.930 . S
H1013 C1023 0.930 . S
C1014 H1008 0.930 . S
C1014 C1015 1.355 . S
C1014 C1016 1.415 . S
C1015 C1014 1.355 . S
C1015 C1017 1.419 . S
C1016 C1014 1.415 . S
C1016 C1021 1.425 1_565 S
C1016 C1023 1.409 . S
C1017 H1009 0.930 . S
C1017 C1015 1.419 . S
C1017 C1018 1.362 1_565 S
C1018 H1010 0.930 . S
C1018 C1017 1.362 1_545 S
C1018 C1021 1.409 . S
C1019 H1011 0.930 . S
C1019 C1020 1.355 . S
C1019 C1021 1.415 . S
C1020 C1019 1.355 . S
C1020 C1022 1.419 . S
C1021 C1016 1.425 1_545 S
C1021 C1018 1.409 . S
C1021 C1019 1.415 . S
C1022 H1012 0.930 . S
C1022 C1020 1.419 . S
C1022 C1023 1.362 1_545 S
C1023 H1013 0.930 . S
C1023 C1016 1.409 . S
C1023 C1022 1.362 1_565 S
H1024 C1030 0.930 . S
H1025 C1033 0.930 . S
H1026 C1034 0.930 . S
H1027 C1035 0.930 . S
H1028 C1038 0.930 . S
H1029 C1039 0.930 . S
C1030 H1024 0.930 . S
C1030 C1031 1.355 . S
C1030 C1032 1.415 . S
C1031 C1030 1.355 . S
C1031 C1033 1.419 . S
C1032 C1030 1.415 . S
C1032 C1037 1.425 . S
C1032 C1039 1.409 . S
C1033 H1025 0.930 . S
C1033 C1031 1.419 . S
C1033 C1034 1.362 . S
C1034 H1026 0.930 . S
C1034 C1033 1.362 . S
C1034 C1037 1.409 . S
C1035 H1027 0.930 . S
C1035 C1036 1.355 . S
C1035 C1037 1.415 . S
C1036 C1035 1.355 . S
C1036 C1038 1.419 . S
C1037 C1032 1.425 . S
C1037 C1034 1.409 . S
C1037 C1035 1.415 . S
C1038 H1028 0.930 . S
C1038 C1036 1.419 . S
C1038 C1039 1.362 . S
C1039 H1029 0.930 . S
C1039 C1032 1.409 . S
C1039 C1038 1.362 . S
H1040 C1046 0.930 . S
H1041 C1049 0.930 . S
H1042 C1050 0.930 . S
H1043 C1051 0.930 . S
H1044 C1054 0.930 . S
H1045 C1055 0.930 . S
C1046 H1040 0.930 . S
C1046 C1047 1.355 . S
C1046 C1048 1.415 . S
C1047 C1046 1.355 . S
C1047 C1049 1.419 . S
C1048 C1046 1.415 . S
C1048 C1053 1.425 . S
C1048 C1055 1.409 . S
C1049 H1041 0.930 . S
C1049 C1047 1.419 . S
C1049 C1050 1.362 . S
C1050 H1042 0.930 . S
C1050 C1049 1.362 . S
C1050 C1053 1.409 . S
C1051 H1043 0.930 . S
C1051 C1052 1.355 . S
C1051 C1053 1.415 . S
C1052 C1051 1.355 . S
C1052 C1054 1.419 . S
C1053 C1048 1.425 . S
C1053 C1050 1.409 . S
C1053 C1051 1.415 . S
C1054 H1044 0.930 . S
C1054 C1052 1.419 . S
C1054 C1055 1.362 . S
C1055 H1045 0.930 . S
C1055 C1048 1.409 . S
C1055 C1054 1.362 . S
H1056 C1062 0.930 . S
H1057 C1065 0.930 . S
H1058 C1066 0.930 . S
H1059 C1067 0.930 . S
H1060 C1070 0.930 . S
H1061 C1071 0.930 . S
C1062 H1056 0.930 . S
C1062 C1063 1.355 . S
C1062 C1064 1.415 1_545 S
C1063 C1062 1.355 . S
C1063 C1065 1.419 . S
C1064 C1062 1.415 1_565 S
C1064 C1069 1.425 1_565 S
C1064 C1071 1.409 . S
C1065 H1057 0.930 . S
C1065 C1063 1.419 . S
C1065 C1066 1.362 . S
C1066 H1058 0.930 . S
C1066 C1065 1.362 . S
C1066 C1069 1.409 . S
C1067 H1059 0.930 . S
C1067 C1068 1.355 . S
C1067 C1069 1.415 1_565 S
C1068 C1067 1.355 . S
C1068 C1070 1.419 . S
C1069 C1064 1.425 1_545 S
C1069 C1066 1.409 . S
C1069 C1067 1.415 1_545 S
C1070 H1060 0.930 . S
C1070 C1068 1.419 . S
C1070 C1071 1.362 . S
C1071 H1061 0.930 . S
C1071 C1064 1.409 . S
C1071 C1070 1.362 . S
H1072 C1078 0.930 . S
H1073 C1081 0.930 . S
H1074 C1082 0.930 . S
H1075 C1083 0.930 . S
H1076 C1086 0.930 . S
H1077 C1087 0.930 . S
C1078 H1072 0.930 . S
C1078 C1079 1.355 . S
C1078 C1080 1.415 1_655 S
C1079 C1078 1.355 . S
C1079 C1081 1.419 . S
C1080 C1078 1.415 1_455 S
C1080 C1085 1.425 1_455 S
C1080 C1087 1.409 . S
C1081 H1073 0.930 . S
C1081 C1079 1.419 . S
C1081 C1082 1.362 . S
C1082 H1074 0.930 . S
C1082 C1081 1.362 . S
C1082 C1085 1.409 . S
C1083 H1075 0.930 . S
C1083 C1084 1.355 . S
C1083 C1085 1.415 1_455 S
C1084 C1083 1.355 . S
C1084 C1086 1.419 . S
C1085 C1080 1.425 1_655 S
C1085 C1082 1.409 . S
C1085 C1083 1.415 1_655 S
C1086 H1076 0.930 . S
C1086 C1084 1.419 . S
C1086 C1087 1.362 . S
C1087 H1077 0.930 . S
C1087 C1080 1.409 . S
C1087 C1086 1.362 . S
C583 C3 1.173 . S
C588 C398 1.121 . S
C599 C290 1.154 . S
C604 C39 1.203 . S
C615 C326 1.200 . S
C620 C75 1.161 . S
C631 C362 1.197 . S
C636 C111 1.150 . S
C647 C182 1.181 1_545 S
C652 C147 1.194 . S
C663 C183 1.209 . S
C668 C218 1.151 1_455 S
C679 C219 1.196 1_554 S
C684 C254 1.137 1_565 S
C695 C255 1.174 1_556 S
C700 C146 1.121 1_655 S
C711 C291 1.168 . S
C716 C110 1.200 1_565 S
C727 C2 1.165 1_655 S
C732 C327 1.201 . S
C743 C38 1.198 1_545 S
C748 C363 1.173 . S
C759 C74 1.168 1_455 S
C764 C399 1.137 . S
C775 C470 1.167 . S
C780 C435 1.201 . S
C791 C471 1.184 . S
C796 C506 1.122 . S
C807 C542 1.122 . S
C812 C507 1.171 . S
C823 C434 1.126 . S
C828 C543 1.192 . S
C839 C518 1.591 . S
C844 C14 1.585 . S
C855 C554 1.589 . S
C860 C50 1.586 . S
C871 C446 1.585 . S
C876 C86 1.591 . S
C887 C122 1.582 . S
C892 C482 1.594 . S
C903 C158 1.584 . S
C908 C374 1.591 . S
C919 C410 1.593 . S
C924 C194 1.597 . S
C935 C230 1.608 . S
C940 C302 1.579 . S
C951 C266 1.587 . S
C956 C338 1.588 . S
C967 C76 1.356 . S
C972 C4 1.354 . S
C983 C112 1.354 . S
C988 C40 1.325 . S
C999 C148 1.334 . S
C1004 C220 1.357 . S
C1015 C184 1.256 . S
C1020 C256 1.270 . S
C1031 C364 1.265 . S
C1036 C292 1.257 . S
C1047 C328 1.261 . S
C1052 C400 1.291 . S
C1063 C508 1.274 . S
C1068 C436 1.256 . S
C1079 C472 1.257 . S
C1084 C544 1.265 . S
