# Generated by pormake.
# Topology umq, (4)-cn, num edge types: 1
# Building blocks:
#     Node 0, Type 0, BuildingBlock: GALJAG_clean_sbu_0, # of connection points: 4
#     Node 1, Type 0, BuildingBlock: GALJAG_clean_sbu_0, # of connection points: 4
#     Node 2, Type 0, BuildingBlock: GALJAG_clean_sbu_0, # of connection points: 4
#     Node 3, Type 0, BuildingBlock: GALJAG_clean_sbu_0, # of connection points: 4
#     Node 4, Type 0, BuildingBlock: GALJAG_clean_sbu_0, # of connection points: 4
#     Node 5, Type 0, BuildingBlock: GALJAG_clean_sbu_0, # of connection points: 4
#     Node 6, Type 0, BuildingBlock: GALJAG_clean_sbu_0, # of connection points: 4
#     Node 7, Type 0, BuildingBlock: GALJAG_clean_sbu_0, # of connection points: 4
#     Node 8, Type 0, BuildingBlock: GALJAG_clean_sbu_0, # of connection points: 4
#     Node 9, Type 0, BuildingBlock: GALJAG_clean_sbu_0, # of connection points: 4
#     Node 10, Type 0, BuildingBlock: GALJAG_clean_sbu_0, # of connection points: 4
#     Node 11, Type 0, BuildingBlock: GALJAG_clean_sbu_0, # of connection points: 4
#     Node 12, Type 0, BuildingBlock: GALJAG_clean_sbu_0, # of connection points: 4
#     Node 13, Type 0, BuildingBlock: GALJAG_clean_sbu_0, # of connection points: 4
#     Node 14, Type 0, BuildingBlock: GALJAG_clean_sbu_0, # of connection points: 4
#     Node 15, Type 0, BuildingBlock: GALJAG_clean_sbu_0, # of connection points: 4
#     Node 16, Type 0, BuildingBlock: GALJAG_clean_sbu_0, # of connection points: 4
#     Node 17, Type 0, BuildingBlock: GALJAG_clean_sbu_0, # of connection points: 4
#     Node 18, Type 0, BuildingBlock: GALJAG_clean_sbu_0, # of connection points: 4
#     Node 19, Type 0, BuildingBlock: GALJAG_clean_sbu_0, # of connection points: 4
#     Node 20, Type 0, BuildingBlock: GALJAG_clean_sbu_0, # of connection points: 4
#     Node 21, Type 0, BuildingBlock: GALJAG_clean_sbu_0, # of connection points: 4
#     Node 22, Type 0, BuildingBlock: GALJAG_clean_sbu_0, # of connection points: 4
#     Node 23, Type 0, BuildingBlock: GALJAG_clean_sbu_0, # of connection points: 4
#     Node 24, Type 0, BuildingBlock: GALJAG_clean_sbu_0, # of connection points: 4
#     Node 25, Type 0, BuildingBlock: GALJAG_clean_sbu_0, # of connection points: 4
#     Node 26, Type 0, BuildingBlock: GALJAG_clean_sbu_0, # of connection points: 4
#     Node 27, Type 0, BuildingBlock: GALJAG_clean_sbu_0, # of connection points: 4
#     Node 28, Type 0, BuildingBlock: GALJAG_clean_sbu_0, # of connection points: 4
#     Node 29, Type 0, BuildingBlock: GALJAG_clean_sbu_0, # of connection points: 4
#     Node 30, Type 0, BuildingBlock: GALJAG_clean_sbu_0, # of connection points: 4
#     Node 31, Type 0, BuildingBlock: GALJAG_clean_sbu_0, # of connection points: 4
#     Edge 32, Type (0, 0), BuildingBlock: XUDNAN_clean_linker_2, # of connection points: 2
#     Edge 33, Type (0, 0), BuildingBlock: XUDNAN_clean_linker_2, # of connection points: 2
#     Edge 34, Type (0, 0), BuildingBlock: XUDNAN_clean_linker_2, # of connection points: 2
#     Edge 35, Type (0, 0), BuildingBlock: XUDNAN_clean_linker_2, # of connection points: 2
#     Edge 36, Type (0, 0), BuildingBlock: XUDNAN_clean_linker_2, # of connection points: 2
#     Edge 37, Type (0, 0), BuildingBlock: XUDNAN_clean_linker_2, # of connection points: 2
#     Edge 38, Type (0, 0), BuildingBlock: XUDNAN_clean_linker_2, # of connection points: 2
#     Edge 39, Type (0, 0), BuildingBlock: XUDNAN_clean_linker_2, # of connection points: 2
#     Edge 40, Type (0, 0), BuildingBlock: XUDNAN_clean_linker_2, # of connection points: 2
#     Edge 41, Type (0, 0), BuildingBlock: XUDNAN_clean_linker_2, # of connection points: 2
#     Edge 42, Type (0, 0), BuildingBlock: XUDNAN_clean_linker_2, # of connection points: 2
#     Edge 43, Type (0, 0), BuildingBlock: XUDNAN_clean_linker_2, # of connection points: 2
#     Edge 44, Type (0, 0), BuildingBlock: XUDNAN_clean_linker_2, # of connection points: 2
#     Edge 45, Type (0, 0), BuildingBlock: XUDNAN_clean_linker_2, # of connection points: 2
#     Edge 46, Type (0, 0), BuildingBlock: XUDNAN_clean_linker_2, # of connection points: 2
#     Edge 47, Type (0, 0), BuildingBlock: XUDNAN_clean_linker_2, # of connection points: 2
#     Edge 48, Type (0, 0), BuildingBlock: XUDNAN_clean_linker_2, # of connection points: 2
#     Edge 49, Type (0, 0), BuildingBlock: XUDNAN_clean_linker_2, # of connection points: 2
#     Edge 50, Type (0, 0), BuildingBlock: XUDNAN_clean_linker_2, # of connection points: 2
#     Edge 51, Type (0, 0), BuildingBlock: XUDNAN_clean_linker_2, # of connection points: 2
#     Edge 52, Type (0, 0), BuildingBlock: XUDNAN_clean_linker_2, # of connection points: 2
#     Edge 53, Type (0, 0), BuildingBlock: XUDNAN_clean_linker_2, # of connection points: 2
#     Edge 54, Type (0, 0), BuildingBlock: XUDNAN_clean_linker_2, # of connection points: 2
#     Edge 55, Type (0, 0), BuildingBlock: XUDNAN_clean_linker_2, # of connection points: 2
#     Edge 56, Type (0, 0), BuildingBlock: XUDNAN_clean_linker_2, # of connection points: 2
#     Edge 57, Type (0, 0), BuildingBlock: XUDNAN_clean_linker_2, # of connection points: 2
#     Edge 58, Type (0, 0), BuildingBlock: XUDNAN_clean_linker_2, # of connection points: 2
#     Edge 59, Type (0, 0), BuildingBlock: XUDNAN_clean_linker_2, # of connection points: 2
#     Edge 60, Type (0, 0), BuildingBlock: XUDNAN_clean_linker_2, # of connection points: 2
#     Edge 61, Type (0, 0), BuildingBlock: XUDNAN_clean_linker_2, # of connection points: 2
#     Edge 62, Type (0, 0), BuildingBlock: XUDNAN_clean_linker_2, # of connection points: 2
#     Edge 63, Type (0, 0), BuildingBlock: XUDNAN_clean_linker_2, # of connection points: 2
#     Edge 64, Type (0, 0), BuildingBlock: XUDNAN_clean_linker_2, # of connection points: 2
#     Edge 65, Type (0, 0), BuildingBlock: XUDNAN_clean_linker_2, # of connection points: 2
#     Edge 66, Type (0, 0), BuildingBlock: XUDNAN_clean_linker_2, # of connection points: 2
#     Edge 67, Type (0, 0), BuildingBlock: XUDNAN_clean_linker_2, # of connection points: 2
#     Edge 68, Type (0, 0), BuildingBlock: XUDNAN_clean_linker_2, # of connection points: 2
#     Edge 69, Type (0, 0), BuildingBlock: XUDNAN_clean_linker_2, # of connection points: 2
#     Edge 70, Type (0, 0), BuildingBlock: XUDNAN_clean_linker_2, # of connection points: 2
#     Edge 71, Type (0, 0), BuildingBlock: XUDNAN_clean_linker_2, # of connection points: 2
#     Edge 72, Type (0, 0), BuildingBlock: XUDNAN_clean_linker_2, # of connection points: 2
#     Edge 73, Type (0, 0), BuildingBlock: XUDNAN_clean_linker_2, # of connection points: 2
#     Edge 74, Type (0, 0), BuildingBlock: XUDNAN_clean_linker_2, # of connection points: 2
#     Edge 75, Type (0, 0), BuildingBlock: XUDNAN_clean_linker_2, # of connection points: 2
#     Edge 76, Type (0, 0), BuildingBlock: XUDNAN_clean_linker_2, # of connection points: 2
#     Edge 77, Type (0, 0), BuildingBlock: XUDNAN_clean_linker_2, # of connection points: 2
#     Edge 78, Type (0, 0), BuildingBlock: XUDNAN_clean_linker_2, # of connection points: 2
#     Edge 79, Type (0, 0), BuildingBlock: XUDNAN_clean_linker_2, # of connection points: 2
#     Edge 80, Type (0, 0), BuildingBlock: XUDNAN_clean_linker_2, # of connection points: 2
#     Edge 81, Type (0, 0), BuildingBlock: XUDNAN_clean_linker_2, # of connection points: 2
#     Edge 82, Type (0, 0), BuildingBlock: XUDNAN_clean_linker_2, # of connection points: 2
#     Edge 83, Type (0, 0), BuildingBlock: XUDNAN_clean_linker_2, # of connection points: 2
#     Edge 84, Type (0, 0), BuildingBlock: XUDNAN_clean_linker_2, # of connection points: 2
#     Edge 85, Type (0, 0), BuildingBlock: XUDNAN_clean_linker_2, # of connection points: 2
#     Edge 86, Type (0, 0), BuildingBlock: XUDNAN_clean_linker_2, # of connection points: 2
#     Edge 87, Type (0, 0), BuildingBlock: XUDNAN_clean_linker_2, # of connection points: 2
#     Edge 88, Type (0, 0), BuildingBlock: XUDNAN_clean_linker_2, # of connection points: 2
#     Edge 89, Type (0, 0), BuildingBlock: XUDNAN_clean_linker_2, # of connection points: 2
#     Edge 90, Type (0, 0), BuildingBlock: XUDNAN_clean_linker_2, # of connection points: 2
#     Edge 91, Type (0, 0), BuildingBlock: XUDNAN_clean_linker_2, # of connection points: 2
#     Edge 92, Type (0, 0), BuildingBlock: XUDNAN_clean_linker_2, # of connection points: 2
#     Edge 93, Type (0, 0), BuildingBlock: XUDNAN_clean_linker_2, # of connection points: 2
#     Edge 94, Type (0, 0), BuildingBlock: XUDNAN_clean_linker_2, # of connection points: 2
#     Edge 95, Type (0, 0), BuildingBlock: XUDNAN_clean_linker_2, # of connection points: 2
# Relax obj value: 0.107
# Max RMSD: 0.085
# Mean RMSD: 0.085
data_MOF--net-umq--node1-GALJAG_clean_sbu_0--edge1-XUDNAN_clean_linker_2
_symmetry_space_group_name_H-M    P1
_symmetry_Int_Tables_number       1
_symmetry_cell_setting            triclinic
loop_
_symmetry_equiv_pos_as_xyz
'x, y, z'
_cell_length_a     63.088803
_cell_length_b     63.060461
_cell_length_c     47.625124
_cell_angle_alpha  89.957153
_cell_angle_beta   89.977177
_cell_angle_gamma 89.891639
loop_
_atom_site_label
_atom_site_type_symbol
_atom_site_fract_x
_atom_site_fract_y
_atom_site_fract_z
_atom_type_partial_charge
In0 In 0.23297 0.09881 0.16058 0.0
O1 O 0.19993 0.11319 0.16389 0.0
O2 O 0.22174 0.11999 0.19667 0.0
C3 C 0.22996 0.08852 0.1053 0.0
C4 C 0.22767 0.06358 0.19227 0.0
C5 C 0.26921 0.1217 0.16165 0.0
O6 O 0.22263 0.10552 0.11523 0.0
O7 O 0.23864 0.07663 0.1232 0.0
O8 O 0.26851 0.10252 0.1692 0.0
O9 O 0.2517 0.12926 0.15373 0.0
C10 C 0.20326 0.12239 0.187 0.0
O11 O 0.24547 0.0725 0.18968 0.0
O12 O 0.2129 0.07213 0.17846 0.0
In13 In 0.89935 0.23754 0.16117 0.0
O14 O 0.87189 0.22362 0.18632 0.0
O15 O 0.89642 0.20259 0.17397 0.0
C16 C 0.91009 0.2319 0.10632 0.0
C17 C 0.9343 0.24468 0.19256 0.0
C18 C 0.87381 0.27186 0.16571 0.0
O19 O 0.89306 0.22492 0.1166 0.0
O20 O 0.92172 0.24143 0.12369 0.0
O21 O 0.88671 0.26633 0.18456 0.0
O22 O 0.87366 0.26001 0.14434 0.0
C23 C 0.8792 0.20503 0.18706 0.0
O24 O 0.92499 0.25913 0.17898 0.0
O25 O 0.92641 0.22644 0.18959 0.0
In26 In 0.76491 0.90437 0.16248 0.0
O27 O 0.7477 0.93564 0.17016 0.0
O28 O 0.77918 0.93298 0.18537 0.0
C29 C 0.72974 0.87991 0.1615 0.0
C30 C 0.78619 0.88211 0.20211 0.0
C31 C 0.77809 0.9105 0.10866 0.0
O32 O 0.72997 0.89841 0.17145 0.0
O33 O 0.74727 0.87369 0.15169 0.0
O34 O 0.7907 0.90541 0.12812 0.0
O35 O 0.75912 0.91258 0.11641 0.0
C36 C 0.76265 0.94417 0.18352 0.0
O37 O 0.79165 0.8818 0.17656 0.0
O38 O 0.77024 0.89352 0.20733 0.0
In39 In 0.09647 0.76746 0.15849 0.0
O40 O 0.11679 0.79594 0.17184 0.0
O41 O 0.10748 0.77359 0.20297 0.0
C42 C 0.08678 0.776 0.10443 0.0
C43 C 0.05799 0.77061 0.18276 0.0
C44 C 0.12518 0.73622 0.15075 0.0
O45 O 0.09538 0.78945 0.12045 0.0
O46 O 0.08272 0.75835 0.11584 0.0
O47 O 0.10756 0.73259 0.16255 0.0
O48 O 0.12799 0.75521 0.14341 0.0
C49 C 0.11705 0.79062 0.19745 0.0
O50 O 0.06805 0.75319 0.18234 0.0
O51 O 0.06692 0.7856 0.16983 0.0
In52 In 0.2314 0.90389 0.34847 0.0
O53 O 0.19947 0.88721 0.34677 0.0
O54 O 0.21773 0.88841 0.30919 0.0
C55 C 0.23106 0.91562 0.40319 0.0
C56 C 0.22764 0.9406 0.31964 0.0
C57 C 0.26114 0.87292 0.34834 0.0
O58 O 0.2166 0.9046 0.39229 0.0
O59 O 0.24556 0.92108 0.38641 0.0
O60 O 0.26506 0.89102 0.33809 0.0
O61 O 0.24289 0.87106 0.35866 0.0
C62 C 0.201 0.88217 0.32117 0.0
O63 O 0.2447 0.93 0.31959 0.0
O64 O 0.21308 0.93294 0.33468 0.0
In65 In 0.09284 0.23621 0.34499 0.0
O66 O 0.06756 0.2592 0.32935 0.0
O67 O 0.06011 0.22634 0.3294 0.0
C68 C 0.11921 0.26961 0.3388 0.0
C69 C 0.11177 0.20761 0.31042 0.0
C70 C 0.08543 0.22629 0.3997 0.0
O71 O 0.10347 0.26648 0.32306 0.0
O72 O 0.12183 0.25577 0.35765 0.0
O73 O 0.09077 0.21264 0.3817 0.0
O74 O 0.08356 0.24479 0.39008 0.0
C75 C 0.05431 0.24496 0.32327 0.0
O76 O 0.12149 0.21616 0.33056 0.0
O77 O 0.09268 0.21311 0.30826 0.0
In78 In 0.76718 0.09748 0.34907 0.0
O79 O 0.79954 0.0986 0.32751 0.0
O80 O 0.77968 0.12569 0.32398 0.0
C81 C 0.77798 0.08966 0.40347 0.0
C82 C 0.75963 0.06507 0.31319 0.0
C83 C 0.73186 0.12124 0.35527 0.0
O84 O 0.78905 0.10095 0.38732 0.0
O85 O 0.76169 0.08195 0.39215 0.0
O86 O 0.7314 0.10129 0.353 0.0
O87 O 0.75021 0.12923 0.35487 0.0
C88 C 0.79698 0.11693 0.3174 0.0
O89 O 0.75026 0.08269 0.31178 0.0
O90 O 0.77253 0.0634 0.33332 0.0
In91 In 0.90603 0.7708 0.35136 0.0
O92 O 0.87856 0.79444 0.35177 0.0
O93 O 0.88905 0.78327 0.3121 0.0
C94 C 0.91744 0.7785 0.40564 0.0
C95 C 0.94124 0.77593 0.31945 0.0
C96 C 0.88527 0.73335 0.35038 0.0
O97 O 0.91235 0.79297 0.3887 0.0
O98 O 0.91747 0.76021 0.39505 0.0
O99 O 0.90401 0.73537 0.34151 0.0
O100 O 0.87706 0.75017 0.35973 0.0
C101 C 0.87641 0.79506 0.32544 0.0
O102 O 0.93429 0.7579 0.32616 0.0
O103 O 0.93098 0.79124 0.32973 0.0
In104 In 0.77276 0.9003 0.85226 0.0
O105 O 0.797 0.89108 0.81829 0.0
O106 O 0.79018 0.86858 0.85002 0.0
C107 C 0.78528 0.91357 0.90384 0.0
C108 C 0.76461 0.93433 0.81915 0.0
C109 C 0.73754 0.87655 0.85988 0.0
O110 O 0.79734 0.90334 0.88759 0.0
O111 O 0.7675 0.91822 0.89337 0.0
O112 O 0.74504 0.8802 0.83579 0.0
O113 O 0.74766 0.88495 0.87974 0.0
C114 C 0.80041 0.8728 0.82801 0.0
O115 O 0.75108 0.92024 0.82456 0.0
O116 O 0.78227 0.9317 0.83114 0.0
In117 In 0.10063 0.75895 0.84945 0.0
O118 O 0.07745 0.73634 0.82805 0.0
O119 O 0.07068 0.76932 0.82626 0.0
C120 C 0.12868 0.72709 0.85883 0.0
C121 C 0.12616 0.78718 0.8229 0.0
C122 C 0.08485 0.7708 0.89995 0.0
O123 O 0.12 0.72976 0.83522 0.0
O124 O 0.12312 0.74027 0.87723 0.0
O125 O 0.0919 0.78396 0.88228 0.0
O126 O 0.08467 0.75183 0.8915 0.0
C127 C 0.06534 0.75081 0.81916 0.0
O128 O 0.12589 0.78481 0.84915 0.0
O129 O 0.11346 0.77538 0.80984 0.0
In130 In 0.23683 0.09616 0.84501 0.0
O131 O 0.20819 0.11676 0.83216 0.0
O132 O 0.23299 0.11152 0.80259 0.0
C133 C 0.23007 0.08635 0.8996 0.0
C134 C 0.23036 0.05954 0.81744 0.0
C135 C 0.27274 0.11894 0.84936 0.0
O136 O 0.22073 0.10171 0.88782 0.0
O137 O 0.24221 0.07592 0.88375 0.0
O138 O 0.27286 0.0998 0.84156 0.0
O139 O 0.25468 0.12629 0.85522 0.0
C140 C 0.2153 0.12003 0.80765 0.0
O141 O 0.24861 0.06755 0.82012 0.0
O142 O 0.21561 0.06968 0.82941 0.0
In143 In 0.90017 0.23635 0.84745 0.0
O144 O 0.88052 0.20727 0.83414 0.0
O145 O 0.88131 0.23424 0.8073 0.0
C146 C 0.9122 0.22893 0.90093 0.0
C147 C 0.93644 0.23008 0.81881 0.0
C148 C 0.87646 0.27099 0.85817 0.0
O149 O 0.89709 0.21894 0.88954 0.0
O150 O 0.92153 0.24198 0.88505 0.0
O151 O 0.89215 0.27179 0.84162 0.0
O152 O 0.87299 0.25301 0.86878 0.0
C153 C 0.87472 0.21561 0.8112 0.0
O154 O 0.92879 0.24847 0.82238 0.0
O155 O 0.92615 0.21532 0.8304 0.0
In156 In 0.76696 0.09301 0.66275 0.0
O157 O 0.78551 0.12397 0.66334 0.0
O158 O 0.78871 0.10372 0.69865 0.0
C159 C 0.77776 0.08386 0.60885 0.0
C160 C 0.76299 0.05464 0.68767 0.0
C161 C 0.73135 0.11632 0.6703 0.0
O162 O 0.79128 0.08849 0.62735 0.0
O163 O 0.75897 0.08302 0.61777 0.0
O164 O 0.73914 0.10482 0.68934 0.0
O165 O 0.74132 0.11585 0.64738 0.0
C166 C 0.79359 0.1211 0.68724 0.0
O167 O 0.7479 0.06386 0.67526 0.0
O168 O 0.78042 0.06441 0.68666 0.0
In169 In 0.9072 0.7608 0.66352 0.0
O170 O 0.93241 0.73799 0.68016 0.0
O171 O 0.93801 0.77101 0.68464 0.0
C172 C 0.8758 0.73335 0.65143 0.0
C173 C 0.88654 0.7826 0.7041 0.0
C174 C 0.91828 0.77281 0.61089 0.0
O175 O 0.89207 0.72781 0.66506 0.0
O176 O 0.8755 0.75255 0.64399 0.0
O177 O 0.91164 0.78586 0.62903 0.0
O178 O 0.92004 0.75401 0.61966 0.0
C179 C 0.94439 0.75238 0.68941 0.0
O180 O 0.89204 0.79128 0.68129 0.0
O181 O 0.89149 0.7633 0.70614 0.0
In182 In 0.23434 0.90065 0.66177 0.0
O183 O 0.2053 0.88081 0.67496 0.0
O184 O 0.23094 0.88473 0.70367 0.0
C185 C 0.23 0.9145 0.60858 0.0
C186 C 0.22939 0.93712 0.68997 0.0
C187 C 0.26612 0.87336 0.65165 0.0
O188 O 0.21692 0.90162 0.61943 0.0
O189 O 0.24452 0.92069 0.62487 0.0
O190 O 0.26886 0.88958 0.6669 0.0
O191 O 0.24764 0.87117 0.642 0.0
C192 C 0.21283 0.877 0.69914 0.0
O193 O 0.24744 0.92852 0.68705 0.0
O194 O 0.2143 0.92766 0.67787 0.0
In195 In 0.0942 0.23111 0.65979 0.0
O196 O 0.12197 0.20802 0.65993 0.0
O197 O 0.11006 0.21785 0.69952 0.0
C198 C 0.08377 0.22337 0.60532 0.0
C199 C 0.05801 0.22581 0.68956 0.0
C200 C 0.11525 0.26839 0.66092 0.0
O201 O 0.08872 0.20896 0.62242 0.0
O202 O 0.08337 0.24169 0.61583 0.0
O203 O 0.09651 0.26656 0.66991 0.0
O204 O 0.12323 0.25151 0.65143 0.0
C205 C 0.12337 0.20674 0.68629 0.0
O206 O 0.06601 0.24384 0.68518 0.0
O207 O 0.06792 0.21066 0.6783 0.0
In208 In 0.73032 0.59952 0.65273 0.0
O209 O 0.69893 0.61741 0.65561 0.0
O210 O 0.71992 0.61909 0.69052 0.0
C211 C 0.72787 0.58388 0.59995 0.0
C212 C 0.72693 0.56503 0.68598 0.0
C213 C 0.76176 0.62796 0.64522 0.0
O214 O 0.71454 0.59691 0.60965 0.0
O215 O 0.74194 0.57811 0.6172 0.0
O216 O 0.76396 0.6123 0.66159 0.0
O217 O 0.74407 0.62894 0.6331 0.0
C218 C 0.70243 0.62461 0.67992 0.0
O219 O 0.74452 0.57419 0.68205 0.0
O220 O 0.71158 0.57287 0.6725 0.0
In221 In 0.40745 0.73525 0.65965 0.0
O222 O 0.39689 0.7009 0.66508 0.0
O223 O 0.38305 0.72419 0.69176 0.0
C224 C 0.42364 0.73462 0.60709 0.0
C225 C 0.44021 0.73386 0.69592 0.0
C226 C 0.37784 0.76532 0.65126 0.0
O227 O 0.411 0.72068 0.61606 0.0
O228 O 0.42885 0.74838 0.62503 0.0
O229 O 0.39254 0.7678 0.66904 0.0
O230 O 0.37818 0.74784 0.6384 0.0
C231 C 0.38439 0.70486 0.68514 0.0
O232 O 0.43044 0.751 0.69103 0.0
O233 O 0.43404 0.71821 0.68172 0.0
In234 In 0.25691 0.4046 0.66269 0.0
O235 O 0.24622 0.43412 0.68703 0.0
O236 O 0.27926 0.42918 0.68055 0.0
C237 C 0.2205 0.38242 0.65975 0.0
C238 C 0.27844 0.37942 0.6987 0.0
C239 C 0.26271 0.41489 0.60793 0.0
O240 O 0.22129 0.40079 0.67029 0.0
O241 O 0.23791 0.37558 0.65033 0.0
O242 O 0.27243 0.3996 0.61934 0.0
O243 O 0.25069 0.42507 0.62425 0.0
C244 C 0.26492 0.44038 0.69164 0.0
O245 O 0.28597 0.3842 0.67485 0.0
O246 O 0.26027 0.3869 0.70359 0.0
In247 In 0.59752 0.26147 0.66225 0.0
O248 O 0.56672 0.24414 0.67211 0.0
O249 O 0.57012 0.27543 0.68786 0.0
C250 C 0.62134 0.2262 0.67025 0.0
C251 C 0.62494 0.28961 0.68485 0.0
C252 C 0.58738 0.27091 0.60841 0.0
O253 O 0.60848 0.23298 0.68841 0.0
O254 O 0.62201 0.23705 0.64806 0.0
O255 O 0.59048 0.28497 0.62679 0.0
O256 O 0.58879 0.25214 0.61738 0.0
C257 C 0.55874 0.25905 0.68627 0.0
O258 O 0.62587 0.28382 0.65954 0.0
O259 O 0.61001 0.28143 0.69871 0.0
In260 In 0.73435 0.40528 0.84048 0.0
O261 O 0.70729 0.38381 0.82586 0.0
O262 O 0.73271 0.38938 0.79761 0.0
C263 C 0.72172 0.41295 0.89363 0.0
C264 C 0.72996 0.44369 0.81586 0.0
C265 C 0.76822 0.38086 0.85291 0.0
O266 O 0.7105 0.40289 0.87617 0.0
O267 O 0.73906 0.41984 0.88397 0.0
O268 O 0.76997 0.39702 0.8373 0.0
O269 O 0.74972 0.37724 0.86163 0.0
C270 C 0.71515 0.38045 0.8019 0.0
O271 O 0.74798 0.43525 0.81923 0.0
O272 O 0.71474 0.43312 0.8257 0.0
In273 In 0.59917 0.7371 0.8478 0.0
O274 O 0.62154 0.71039 0.83304 0.0
O275 O 0.60895 0.73153 0.8026 0.0
C276 C 0.59105 0.72579 0.90128 0.0
C277 C 0.55939 0.73508 0.82745 0.0
C278 C 0.62503 0.77041 0.85642 0.0
O279 O 0.59977 0.71333 0.88392 0.0
O280 O 0.58609 0.74376 0.89146 0.0
O281 O 0.60937 0.77163 0.83996 0.0
O282 O 0.62759 0.75265 0.86801 0.0
C283 C 0.6203 0.71551 0.80745 0.0
O284 O 0.56929 0.75248 0.82891 0.0
O285 O 0.56932 0.71929 0.83704 0.0
In286 In 0.27671 0.59634 0.85206 0.0
O287 O 0.26002 0.57291 0.82203 0.0
O288 O 0.28746 0.56269 0.84392 0.0
C289 C 0.24273 0.62146 0.8604 0.0
C290 C 0.30446 0.61703 0.81805 0.0
C291 C 0.28629 0.58955 0.90661 0.0
O292 O 0.24273 0.60716 0.84174 0.0
O293 O 0.25968 0.62296 0.87428 0.0
O294 O 0.29799 0.60024 0.89038 0.0
O295 O 0.26994 0.58188 0.89518 0.0
C296 C 0.27348 0.55836 0.82599 0.0
O297 O 0.30912 0.60036 0.83115 0.0
O298 O 0.28601 0.62378 0.82267 0.0
In299 In 0.40078 0.26873 0.8451 0.0
O300 O 0.37085 0.28906 0.84522 0.0
O301 O 0.39013 0.29036 0.8088 0.0
C302 C 0.41269 0.27866 0.89845 0.0
C303 C 0.43328 0.26332 0.80872 0.0
C304 C 0.37881 0.2321 0.8487 0.0
O305 O 0.40854 0.29261 0.88027 0.0
O306 O 0.41186 0.25996 0.88935 0.0
O307 O 0.39878 0.23264 0.84862 0.0
O308 O 0.36995 0.25 0.8471 0.0
C309 C 0.37341 0.2965 0.82087 0.0
O310 O 0.41663 0.25234 0.80847 0.0
O311 O 0.4338 0.27742 0.82759 0.0
In312 In 0.26516 0.40258 0.34675 0.0
O313 O 0.29592 0.38336 0.34623 0.0
O314 O 0.27702 0.38327 0.30933 0.0
C315 C 0.2666 0.41375 0.40188 0.0
C316 C 0.27179 0.43873 0.31743 0.0
C317 C 0.22929 0.37931 0.34232 0.0
O318 O 0.27715 0.39852 0.39196 0.0
O319 O 0.25563 0.4236 0.38398 0.0
O320 O 0.23232 0.39604 0.32842 0.0
O321 O 0.24418 0.37448 0.35874 0.0
C322 C 0.29361 0.37679 0.32138 0.0
O323 O 0.25348 0.43158 0.32223 0.0
O324 O 0.28666 0.42809 0.32828 0.0
In325 In 0.59623 0.26543 0.3478 0.0
O326 O 0.57213 0.25301 0.3153 0.0
O327 O 0.5652 0.28175 0.3363 0.0
C328 C 0.6205 0.23019 0.35126 0.0
C329 C 0.61877 0.29395 0.31796 0.0
C330 C 0.58917 0.27283 0.4031 0.0
O331 O 0.60063 0.22947 0.34825 0.0
O332 O 0.62811 0.24866 0.35247 0.0
O333 O 0.59951 0.28519 0.38752 0.0
O334 O 0.58216 0.25654 0.39089 0.0
C335 C 0.55972 0.26856 0.31789 0.0
O336 O 0.61084 0.2979 0.34169 0.0
O337 O 0.61585 0.27525 0.30933 0.0
In338 In 0.74563 0.59552 0.34174 0.0
O339 O 0.71771 0.61753 0.33042 0.0
O340 O 0.74283 0.61346 0.30101 0.0
C341 C 0.73818 0.58343 0.3954 0.0
C342 C 0.7377 0.56088 0.31042 0.0
C343 C 0.78178 0.61782 0.34743 0.0
O344 O 0.72809 0.59844 0.3839 0.0
O345 O 0.7515 0.5744 0.37967 0.0
O346 O 0.78147 0.5996 0.33639 0.0
O347 O 0.76404 0.6244 0.35603 0.0
C348 C 0.7252 0.62196 0.30644 0.0
O349 O 0.75639 0.56684 0.31579 0.0
O350 O 0.72331 0.57172 0.32201 0.0
In351 In 0.40671 0.73701 0.34875 0.0
O352 O 0.38881 0.7057 0.3497 0.0
O353 O 0.39076 0.72218 0.31071 0.0
C354 C 0.42061 0.7384 0.4024 0.0
C355 C 0.44256 0.73197 0.31858 0.0
C356 C 0.37489 0.76573 0.34916 0.0
O357 O 0.41087 0.7227 0.39231 0.0
O358 O 0.42371 0.75338 0.38527 0.0
O359 O 0.39232 0.76987 0.33716 0.0
O360 O 0.37423 0.74793 0.36108 0.0
C361 C 0.38382 0.7063 0.32401 0.0
O362 O 0.43207 0.74911 0.31777 0.0
O363 O 0.43523 0.7181 0.33498 0.0
In364 In 0.26837 0.59981 0.16518 0.0
O365 O 0.25378 0.57074 0.18742 0.0
O366 O 0.28668 0.57055 0.17763 0.0
C367 C 0.23644 0.62746 0.15523 0.0
C368 C 0.29012 0.62129 0.20472 0.0
C369 C 0.28017 0.59152 0.11181 0.0
O370 O 0.23302 0.60987 0.16725 0.0
O371 O 0.25552 0.63076 0.14886 0.0
O372 O 0.29215 0.60055 0.12934 0.0
O373 O 0.26227 0.58613 0.12139 0.0
C374 C 0.27136 0.56108 0.18907 0.0
O375 O 0.29605 0.62056 0.17942 0.0
O376 O 0.27309 0.61162 0.20986 0.0
In377 In 0.40371 0.26612 0.15889 0.0
O378 O 0.37934 0.29136 0.17252 0.0
O379 O 0.39402 0.27243 0.20394 0.0
C380 C 0.40959 0.27645 0.10405 0.0
C381 C 0.4423 0.27126 0.1825 0.0
C382 C 0.38064 0.23009 0.15762 0.0
O383 O 0.4017 0.28917 0.12165 0.0
O384 O 0.41467 0.25865 0.11412 0.0
O385 O 0.40014 0.2302 0.1636 0.0
O386 O 0.37294 0.24806 0.1519 0.0
C387 C 0.38125 0.28723 0.19839 0.0
O388 O 0.43414 0.25316 0.17911 0.0
O389 O 0.43153 0.28639 0.17261 0.0
In390 In 0.72749 0.4044 0.15432 0.0
O391 O 0.70212 0.40406 0.18818 0.0
O392 O 0.70994 0.37447 0.17022 0.0
C393 C 0.71861 0.40902 0.09904 0.0
C394 C 0.72924 0.44434 0.17446 0.0
C395 C 0.76345 0.38155 0.1609 0.0
O396 O 0.70614 0.40009 0.11604 0.0
O397 O 0.73553 0.41577 0.10994 0.0
O398 O 0.75769 0.39562 0.17812 0.0
O399 O 0.75126 0.37923 0.14017 0.0
C400 C 0.69901 0.38441 0.18802 0.0
O401 O 0.74467 0.43163 0.17664 0.0
O402 O 0.71366 0.43724 0.16081 0.0
In403 In 0.60084 0.73052 0.16039 0.0
O404 O 0.62869 0.70759 0.16037 0.0
O405 O 0.61708 0.71768 0.20004 0.0
C406 C 0.58987 0.72207 0.10638 0.0
C407 C 0.56466 0.72549 0.19021 0.0
C408 C 0.62258 0.7674 0.16147 0.0
O409 O 0.59547 0.70792 0.12352 0.0
O410 O 0.58909 0.74046 0.11666 0.0
O411 O 0.60447 0.7655 0.17245 0.0
O412 O 0.62953 0.75084 0.14988 0.0
C413 C 0.63041 0.70663 0.18672 0.0
O414 O 0.57136 0.74352 0.18291 0.0
O415 O 0.57587 0.71017 0.18186 0.0
H416 H 0.33843 0.22657 0.14557 0.0
H417 H 0.39326 0.18983 0.17155 0.0
H418 H 0.37088 0.15773 0.17468 0.0
H419 H 0.30112 0.20163 0.19063 0.0
H420 H 0.27978 0.2024 0.1655 0.0
H421 H 0.30029 0.22219 0.16433 0.0
H422 H 0.30803 0.21268 0.11238 0.0
H423 H 0.28749 0.1929 0.11336 0.0
H424 H 0.31403 0.18561 0.10315 0.0
H425 H 0.34202 0.12989 0.17647 0.0
H426 H 0.30921 0.10844 0.17581 0.0
H427 H 0.2736 0.16364 0.14839 0.0
C428 C 0.34578 0.21174 0.15172 0.0
C429 C 0.36759 0.21066 0.15828 0.0
C430 C 0.37658 0.19099 0.16636 0.0
C431 C 0.364 0.17269 0.16822 0.0
C432 C 0.34249 0.17435 0.16184 0.0
C433 C 0.33349 0.19337 0.15363 0.0
C434 C 0.30996 0.19105 0.14833 0.0
C435 C 0.29703 0.20515 0.1684 0.0
C436 C 0.30457 0.19584 0.11747 0.0
C437 C 0.30706 0.16779 0.15503 0.0
C438 C 0.32599 0.1584 0.16276 0.0
C439 C 0.32713 0.13706 0.17033 0.0
C440 C 0.30843 0.12502 0.16993 0.0
C441 C 0.28889 0.13437 0.16201 0.0
C442 C 0.28831 0.15602 0.15446 0.0
H443 H 0.84265 0.28559 0.12977 0.0
H444 H 0.87332 0.30013 0.209 0.0
H445 H 0.84948 0.33083 0.21529 0.0
H446 H 0.83376 0.34029 0.1078 0.0
H447 H 0.80827 0.33464 0.09246 0.0
H448 H 0.82843 0.31438 0.09349 0.0
H449 H 0.80257 0.28925 0.11953 0.0
H450 H 0.78234 0.30941 0.11857 0.0
H451 H 0.79023 0.29798 0.15167 0.0
H452 H 0.8216 0.35917 0.21384 0.0
H453 H 0.79107 0.38287 0.20505 0.0
H454 H 0.77838 0.34981 0.12695 0.0
C455 C 0.84444 0.29534 0.14831 0.0
C456 C 0.85985 0.29053 0.16887 0.0
C457 C 0.86163 0.30356 0.19296 0.0
C458 C 0.8482 0.32105 0.19671 0.0
C459 C 0.83309 0.32531 0.17615 0.0
C460 C 0.83112 0.31285 0.15242 0.0
C461 C 0.8131 0.3205 0.13398 0.0
C462 C 0.82139 0.32789 0.10523 0.0
C463 C 0.79605 0.30326 0.13076 0.0
C464 C 0.80508 0.33901 0.15124 0.0
C465 C 0.81692 0.34161 0.17538 0.0
C466 C 0.81226 0.35738 0.19493 0.0
C467 C 0.79491 0.37075 0.18976 0.0
C468 C 0.78241 0.36819 0.16532 0.0
C469 C 0.78772 0.3522 0.14576 0.0
H470 H 0.6631 0.77354 0.14295 0.0
H471 H 0.61021 0.80584 0.18267 0.0
H472 H 0.63153 0.83868 0.18544 0.0
H473 H 0.7036 0.79727 0.18418 0.0
H474 H 0.72235 0.79902 0.15572 0.0
H475 H 0.7026 0.77846 0.15572 0.0
H476 H 0.68963 0.79082 0.10672 0.0
H477 H 0.70936 0.81143 0.10656 0.0
H478 H 0.68181 0.81807 0.10167 0.0
H479 H 0.65899 0.8676 0.18497 0.0
H480 H 0.69069 0.89042 0.18198 0.0
H481 H 0.72566 0.83897 0.14289 0.0
C482 C 0.65593 0.78757 0.15204 0.0
C483 C 0.63498 0.78722 0.16253 0.0
C484 C 0.62623 0.80582 0.17448 0.0
C485 C 0.6382 0.82452 0.1761 0.0
C486 C 0.65886 0.82429 0.16569 0.0
C487 C 0.66765 0.8063 0.15391 0.0
C488 C 0.69039 0.81002 0.14503 0.0
C489 C 0.70563 0.79532 0.16113 0.0
C490 C 0.69294 0.80743 0.1131 0.0
C491 C 0.69309 0.83291 0.15383 0.0
C492 C 0.67469 0.84088 0.16558 0.0
C493 C 0.67345 0.86156 0.17571 0.0
C494 C 0.69154 0.87439 0.17392 0.0
C495 C 0.7106 0.86647 0.16217 0.0
C496 C 0.71128 0.84549 0.15187 0.0
H497 H 0.19677 0.63291 0.17958 0.0
H498 H 0.23902 0.65802 0.11576 0.0
H499 H 0.21353 0.68647 0.10552 0.0
H500 H 0.14635 0.64639 0.14309 0.0
H501 H 0.13305 0.65388 0.17509 0.0
H502 H 0.15352 0.6339 0.1758 0.0
H503 H 0.17385 0.65546 0.21337 0.0
H504 H 0.15351 0.67551 0.21271 0.0
H505 H 0.18072 0.68268 0.20625 0.0
H506 H 0.18586 0.7136 0.10444 0.0
H507 H 0.15666 0.73869 0.11251 0.0
H508 H 0.13102 0.69728 0.17695 0.0
C509 C 0.20037 0.64419 0.1631 0.0
C510 C 0.21984 0.64322 0.14837 0.0
C511 C 0.22423 0.65847 0.12733 0.0
C512 C 0.20981 0.67466 0.12126 0.0
C513 C 0.19099 0.67548 0.13641 0.0
C514 C 0.1861 0.66072 0.15687 0.0
C515 C 0.16526 0.66636 0.17115 0.0
C516 C 0.14856 0.6491 0.16597 0.0
C517 C 0.16854 0.67023 0.20274 0.0
C518 C 0.15958 0.68679 0.15588 0.0
C519 C 0.17466 0.69152 0.13579 0.0
C520 C 0.17379 0.70999 0.11986 0.0
C521 C 0.15716 0.72418 0.1247 0.0
C522 C 0.14153 0.7199 0.14526 0.0
C523 C 0.14259 0.70079 0.16082 0.0
H524 H 0.30439 0.87224 0.33617 0.0
H525 H 0.25116 0.83224 0.35942 0.0
H526 H 0.2745 0.80117 0.36013 0.0
H527 H 0.33111 0.83317 0.29131 0.0
H528 H 0.3574 0.84034 0.30263 0.0
H529 H 0.33653 0.8599 0.3026 0.0
H530 H 0.34339 0.86736 0.35527 0.0
H531 H 0.36426 0.84782 0.35547 0.0
H532 H 0.34262 0.84574 0.38003 0.0
H533 H 0.30252 0.77484 0.36048 0.0
H534 H 0.33493 0.75344 0.3602 0.0
H535 H 0.37168 0.80885 0.33645 0.0
C536 C 0.29772 0.85689 0.34119 0.0
C537 C 0.27592 0.85469 0.34778 0.0
C538 C 0.26778 0.83439 0.35444 0.0
C539 C 0.28089 0.81657 0.35483 0.0
C540 C 0.30222 0.81921 0.34855 0.0
C541 C 0.31074 0.83873 0.34184 0.0
C542 C 0.33451 0.83681 0.33686 0.0
C543 C 0.34022 0.84292 0.30654 0.0
C544 C 0.34693 0.85023 0.35818 0.0
C545 C 0.33785 0.81321 0.342 0.0
C546 C 0.31886 0.80356 0.34867 0.0
C547 C 0.31751 0.78214 0.35518 0.0
C548 C 0.33608 0.77013 0.35506 0.0
C549 C 0.35586 0.77946 0.34836 0.0
C550 C 0.35675 0.8013 0.34149 0.0
H551 H 0.21959 0.34263 0.37025 0.0
H552 H 0.19627 0.38569 0.30613 0.0
H553 H 0.16529 0.36245 0.29862 0.0
H554 H 0.2047 0.29471 0.33605 0.0
H555 H 0.19713 0.28127 0.36791 0.0
H556 H 0.2171 0.30161 0.36889 0.0
H557 H 0.19548 0.32203 0.40647 0.0
H558 H 0.17547 0.3017 0.4057 0.0
H559 H 0.16826 0.32896 0.39941 0.0
H560 H 0.13758 0.33395 0.29699 0.0
H561 H 0.1144 0.30268 0.30234 0.0
H562 H 0.15564 0.27842 0.3679 0.0
C563 C 0.20789 0.34725 0.35477 0.0
C564 C 0.21028 0.36596 0.33878 0.0
C565 C 0.19469 0.37144 0.31865 0.0
C566 C 0.17707 0.35834 0.31422 0.0
C567 C 0.17528 0.33989 0.33016 0.0
C568 C 0.1902 0.33439 0.35013 0.0
C569 C 0.18465 0.31359 0.36423 0.0
C570 C 0.20192 0.29681 0.35894 0.0
C571 C 0.18073 0.31677 0.39583 0.0
C572 C 0.16435 0.30818 0.34895 0.0
C573 C 0.15923 0.32354 0.32936 0.0
C574 C 0.14136 0.32186 0.31234 0.0
C575 C 0.12833 0.30404 0.3155 0.0
C576 C 0.13322 0.28817 0.33555 0.0
C577 C 0.15147 0.29033 0.35246 0.0
H578 H 0.72876 0.1646 0.35694 0.0
H579 H 0.69093 0.1072 0.35674 0.0
H580 H 0.65824 0.12882 0.35691 0.0
H581 H 0.69414 0.19551 0.40242 0.0
H582 H 0.69855 0.21984 0.38343 0.0
H583 H 0.71893 0.1998 0.38448 0.0
H584 H 0.71992 0.19916 0.33008 0.0
H585 H 0.6995 0.21912 0.32886 0.0
H586 H 0.69581 0.19428 0.31084 0.0
H587 H 0.62968 0.15671 0.35514 0.0
H588 H 0.60733 0.1889 0.35249 0.0
H589 H 0.66382 0.22806 0.35405 0.0
C590 C 0.7136 0.15659 0.35721 0.0
C591 C 0.71236 0.13422 0.35691 0.0
C592 C 0.69223 0.12432 0.35705 0.0
C593 C 0.67358 0.13646 0.35714 0.0
C594 C 0.67534 0.15848 0.35714 0.0
C595 C 0.69483 0.16846 0.35729 0.0
C596 C 0.69235 0.19235 0.35662 0.0
C597 C 0.70153 0.20247 0.38333 0.0
C598 C 0.70249 0.20177 0.33002 0.0
C599 C 0.66842 0.19425 0.35584 0.0
C600 C 0.6589 0.17453 0.35619 0.0
C601 C 0.63695 0.17224 0.35502 0.0
C602 C 0.6244 0.1906 0.35347 0.0
C603 C 0.63384 0.21095 0.35313 0.0
C604 C 0.65614 0.21271 0.3544 0.0
H605 H 0.78468 0.65848 0.36645 0.0
H606 H 0.82202 0.60753 0.33021 0.0
H607 H 0.85334 0.63113 0.32893 0.0
H608 H 0.80617 0.69955 0.32541 0.0
H609 H 0.80567 0.71903 0.35308 0.0
H610 H 0.78681 0.69766 0.35315 0.0
H611 H 0.79893 0.68675 0.40313 0.0
H612 H 0.81777 0.70818 0.40328 0.0
H613 H 0.82657 0.6814 0.40963 0.0
H614 H 0.87999 0.66115 0.32924 0.0
H615 H 0.89981 0.69493 0.33155 0.0
H616 H 0.84457 0.72591 0.36727 0.0
C617 C 0.79952 0.65216 0.35862 0.0
C618 C 0.80099 0.63115 0.34855 0.0
C619 C 0.82061 0.62356 0.33815 0.0
C620 C 0.83846 0.63684 0.33734 0.0
C621 C 0.83636 0.6576 0.34705 0.0
C622 C 0.81739 0.66517 0.35759 0.0
C623 C 0.81897 0.68832 0.36562 0.0
C624 C 0.80349 0.70194 0.34827 0.0
C625 C 0.81535 0.69133 0.3973 0.0
C626 C 0.84174 0.69272 0.35764 0.0
C627 C 0.85157 0.67481 0.34709 0.0
C628 C 0.87248 0.67523 0.33765 0.0
C629 C 0.8836 0.69448 0.339 0.0
C630 C 0.87373 0.713 0.34963 0.0
C631 C 0.85257 0.71199 0.35915 0.0
H632 H 0.71001 0.85982 0.82089 0.0
H633 H 0.72345 0.86199 0.91025 0.0
H634 H 0.69411 0.83715 0.91914 0.0
H635 H 0.65168 0.85637 0.82833 0.0
H636 H 0.64901 0.83859 0.79893 0.0
H637 H 0.67021 0.85771 0.79955 0.0
H638 H 0.69762 0.8275 0.79277 0.0
H639 H 0.67655 0.80832 0.79217 0.0
H640 H 0.69791 0.80554 0.81703 0.0
H641 H 0.66657 0.80923 0.91806 0.0
H642 H 0.64034 0.78138 0.90724 0.0
H643 H 0.64237 0.79872 0.81919 0.0
C644 C 0.70657 0.85525 0.84234 0.0
C645 C 0.71901 0.86278 0.86489 0.0
C646 C 0.71409 0.85644 0.89266 0.0
C647 C 0.69745 0.84235 0.89795 0.0
C648 C 0.68566 0.835 0.87528 0.0
C649 C 0.68976 0.84138 0.84805 0.0
C650 C 0.67498 0.83052 0.82749 0.0
C651 C 0.66061 0.84677 0.8127 0.0
C652 C 0.68752 0.81718 0.80611 0.0
C653 C 0.66238 0.81659 0.84736 0.0
C654 C 0.66887 0.81946 0.87483 0.0
C655 C 0.661 0.80715 0.89675 0.0
C656 C 0.6462 0.79137 0.89043 0.0
C657 C 0.63919 0.78828 0.86254 0.0
C658 C 0.64712 0.80124 0.84078 0.0
H659 H 0.14469 0.69685 0.82262 0.0
H660 H 0.1487 0.71986 0.90837 0.0
H661 H 0.17652 0.69357 0.91853 0.0
H662 H 0.15398 0.64047 0.83951 0.0
H663 H 0.16965 0.63588 0.80844 0.0
H664 H 0.14895 0.65562 0.80809 0.0
H665 H 0.17606 0.68402 0.79221 0.0
H666 H 0.19682 0.6644 0.79253 0.0
H667 H 0.19961 0.68833 0.81285 0.0
H668 H 0.20558 0.66735 0.91872 0.0
H669 H 0.23403 0.64151 0.90924 0.0
H670 H 0.21109 0.63387 0.82396 0.0
C671 C 0.15127 0.69614 0.8436 0.0
C672 C 0.14453 0.71039 0.86472 0.0
C673 C 0.15359 0.7091 0.89187 0.0
C674 C 0.16938 0.69419 0.89788 0.0
C675 C 0.17585 0.68053 0.8766 0.0
C676 C 0.16705 0.6812 0.85005 0.0
C677 C 0.17757 0.66512 0.83082 0.0
C678 C 0.16158 0.64827 0.82115 0.0
C679 C 0.18814 0.67613 0.80562 0.0
C680 C 0.19393 0.6557 0.8506 0.0
C681 C 0.19254 0.66485 0.8769 0.0
C682 C 0.20667 0.65984 0.89834 0.0
C683 C 0.2228 0.6452 0.89273 0.0
C684 C 0.2246 0.63562 0.86598 0.0
C685 C 0.2098 0.64071 0.84474 0.0
H686 H 0.33602 0.22767 0.85446 0.0
H687 H 0.39426 0.19155 0.84568 0.0
H688 H 0.37362 0.15821 0.84619 0.0
H689 H 0.30968 0.19108 0.90157 0.0
H690 H 0.28398 0.19546 0.88607 0.0
H691 H 0.30348 0.21628 0.88564 0.0
H692 H 0.30015 0.21891 0.83148 0.0
H693 H 0.28066 0.1981 0.83174 0.0
H694 H 0.30412 0.1955 0.81041 0.0
H695 H 0.34614 0.1289 0.84531 0.0
H696 H 0.31419 0.10608 0.84486 0.0
H697 H 0.27455 0.16177 0.85574 0.0
C698 C 0.34446 0.21274 0.85279 0.0
C699 C 0.3667 0.21214 0.84999 0.0
C700 C 0.37718 0.19232 0.84789 0.0
C701 C 0.36561 0.17333 0.84814 0.0
C702 C 0.34363 0.17449 0.85074 0.0
C703 C 0.3332 0.1937 0.85321 0.0
C704 C 0.30949 0.19072 0.8555 0.0
C705 C 0.30118 0.19886 0.88389 0.0
C706 C 0.29794 0.20144 0.83081 0.0
C707 C 0.30816 0.16684 0.85366 0.0
C708 C 0.32797 0.15771 0.85085 0.0
C709 C 0.33055 0.13586 0.84775 0.0
C710 C 0.31236 0.12305 0.84748 0.0
C711 C 0.29197 0.13217 0.85047 0.0
C712 C 0.28995 0.15432 0.85374 0.0
H713 H 0.86872 0.3066 0.82594 0.0
H714 H 0.85231 0.27592 0.90455 0.0
H715 H 0.82589 0.30374 0.91406 0.0
H716 H 0.85969 0.36264 0.85022 0.0
H717 H 0.84827 0.37047 0.8171 0.0
H718 H 0.86833 0.35008 0.8182 0.0
H719 H 0.84304 0.32439 0.79227 0.0
H720 H 0.82292 0.34462 0.79119 0.0
H721 H 0.81715 0.31921 0.80675 0.0
H722 H 0.79854 0.3313 0.91263 0.0
H723 H 0.77138 0.35781 0.90045 0.0
H724 H 0.80459 0.37185 0.82286 0.0
C725 C 0.85996 0.30617 0.84548 0.0
C726 C 0.86263 0.28924 0.86465 0.0
C727 C 0.85052 0.28879 0.88965 0.0
C728 C 0.83554 0.30457 0.89531 0.0
C729 C 0.83283 0.32075 0.87575 0.0
C730 C 0.8447 0.3218 0.85137 0.0
C731 C 0.83706 0.33985 0.83275 0.0
C732 C 0.85437 0.35676 0.82937 0.0
C733 C 0.8296 0.33151 0.80405 0.0
C734 C 0.81861 0.34818 0.85006 0.0
C735 C 0.81673 0.33703 0.87493 0.0
C736 C 0.80005 0.34045 0.8935 0.0
C737 C 0.78465 0.35546 0.88633 0.0
C738 C 0.78604 0.36695 0.86088 0.0
C739 C 0.80346 0.36358 0.84274 0.0
H740 H 0.65064 0.2096 0.63412 0.0
H741 H 0.6232 0.20085 0.71688 0.0
H742 H 0.64737 0.17056 0.72523 0.0
H743 H 0.65857 0.15368 0.61824 0.0
H744 H 0.68333 0.15825 0.60036 0.0
H745 H 0.66316 0.17852 0.6005 0.0
H746 H 0.69002 0.20527 0.62136 0.0
H747 H 0.71025 0.18511 0.62131 0.0
H748 H 0.70373 0.19875 0.65344 0.0
H749 H 0.67579 0.14236 0.72531 0.0
H750 H 0.70612 0.11825 0.71697 0.0
H751 H 0.71456 0.14545 0.63399 0.0
C752 C 0.64957 0.20119 0.6539 0.0
C753 C 0.63504 0.20751 0.67485 0.0
C754 C 0.6342 0.19621 0.70053 0.0
C755 C 0.64784 0.17899 0.70544 0.0
C756 C 0.66212 0.17328 0.68442 0.0
C757 C 0.66302 0.184 0.65912 0.0
C758 C 0.68023 0.17514 0.64031 0.0
C759 C 0.67075 0.16584 0.61326 0.0
C760 C 0.69705 0.19208 0.63373 0.0
C761 C 0.68905 0.1579 0.65909 0.0
C762 C 0.67837 0.15702 0.68441 0.0
C763 C 0.68416 0.14279 0.70547 0.0
C764 C 0.7014 0.12919 0.70057 0.0
C765 C 0.71259 0.12993 0.67481 0.0
C766 C 0.70618 0.14439 0.6538 0.0
H767 H 0.8005 0.63245 0.67169 0.0
H768 H 0.75959 0.66085 0.60865 0.0
H769 H 0.78526 0.6897 0.60196 0.0
H770 H 0.81703 0.68073 0.703 0.0
H771 H 0.84398 0.67242 0.70917 0.0
H772 H 0.82308 0.65303 0.70803 0.0
H773 H 0.84314 0.63254 0.66905 0.0
H774 H 0.86414 0.65186 0.67012 0.0
H775 H 0.85089 0.64624 0.63744 0.0
H776 H 0.81363 0.71656 0.60395 0.0
H777 H 0.84409 0.73981 0.61382 0.0
H778 H 0.8676 0.69429 0.67481 0.0
C779 C 0.79712 0.64462 0.65627 0.0
C780 C 0.77806 0.64439 0.64068 0.0
C781 C 0.77408 0.66068 0.62085 0.0
C782 C 0.78857 0.67714 0.61683 0.0
C783 C 0.80706 0.67708 0.6327 0.0
C784 C 0.8115 0.66125 0.65193 0.0
C785 C 0.83231 0.66552 0.66684 0.0
C786 C 0.82889 0.66808 0.69864 0.0
C787 C 0.84858 0.64799 0.66047 0.0
C788 C 0.8386 0.68636 0.65326 0.0
C789 C 0.82378 0.69265 0.63359 0.0
C790 C 0.82549 0.71174 0.61908 0.0
C791 C 0.8428 0.72485 0.62489 0.0
C792 C 0.85821 0.71878 0.64494 0.0
C793 C 0.85616 0.69919 0.65913 0.0
H794 H 0.30339 0.86605 0.68049 0.0
H795 H 0.26622 0.845 0.60909 0.0
H796 H 0.29226 0.81679 0.59975 0.0
H797 H 0.35614 0.85426 0.65008 0.0
H798 H 0.36681 0.84496 0.68297 0.0
H799 H 0.34638 0.86498 0.68271 0.0
H800 H 0.32319 0.84154 0.71513 0.0
H801 H 0.34349 0.82144 0.7154 0.0
H802 H 0.31694 0.81483 0.70453 0.0
H803 H 0.32019 0.78965 0.59974 0.0
H804 H 0.3491 0.76443 0.60903 0.0
H805 H 0.36888 0.802 0.68075 0.0
C806 C 0.30102 0.85572 0.66261 0.0
C807 C 0.28287 0.85772 0.64541 0.0
C808 C 0.28002 0.84371 0.62252 0.0
C809 C 0.29475 0.82769 0.61697 0.0
C810 C 0.31226 0.82584 0.63454 0.0
C811 C 0.31556 0.83942 0.65687 0.0
C812 C 0.33511 0.83293 0.67341 0.0
C813 C 0.35212 0.85032 0.67221 0.0
C814 C 0.32933 0.82735 0.70392 0.0
C815 C 0.34194 0.81339 0.65712 0.0
C816 C 0.32856 0.80979 0.63467 0.0
C817 C 0.33092 0.79236 0.61708 0.0
C818 C 0.34736 0.77809 0.62261 0.0
C819 C 0.36125 0.78128 0.64557 0.0
C820 C 0.3586 0.79929 0.66292 0.0
H821 H 0.15559 0.27534 0.64252 0.0
H822 H 0.10178 0.30688 0.68106 0.0
H823 H 0.12226 0.34031 0.68306 0.0
H824 H 0.19537 0.30054 0.68296 0.0
H825 H 0.21406 0.30229 0.65441 0.0
H826 H 0.19476 0.28132 0.65497 0.0
H827 H 0.1815 0.29272 0.60568 0.0
H828 H 0.20076 0.31377 0.60499 0.0
H829 H 0.17306 0.31971 0.59999 0.0
H830 H 0.14943 0.36997 0.68238 0.0
H831 H 0.18102 0.39315 0.67944 0.0
H832 H 0.21649 0.34177 0.64103 0.0
C833 C 0.14804 0.2893 0.65122 0.0
C834 C 0.1271 0.28856 0.66161 0.0
C835 C 0.11782 0.30714 0.67295 0.0
C836 C 0.1293 0.32618 0.67413 0.0
C837 C 0.14999 0.32634 0.66379 0.0
C838 C 0.15923 0.30836 0.65252 0.0
C839 C 0.18185 0.31246 0.64352 0.0
C840 C 0.19742 0.29832 0.65995 0.0
C841 C 0.18443 0.30949 0.61165 0.0
C842 C 0.18402 0.3355 0.65176 0.0
C843 C 0.16548 0.3433 0.66331 0.0
C844 C 0.16398 0.36406 0.67319 0.0
C845 C 0.18197 0.3771 0.67143 0.0
C846 C 0.20114 0.36928 0.65991 0.0
C847 C 0.20201 0.34827 0.64975 0.0
H848 H 0.21514 0.11338 0.06214 0.0
H849 H 0.24317 0.05194 0.08009 0.0
H850 H 0.24349 0.0437 0.02941 0.0
H851 H 0.18189 0.0962 1.00297 0.0
H852 H 0.18628 0.12028 0.98341 0.0
H853 H 0.1867 0.12076 0.02124 0.0
H854 H 0.22425 0.1373 0.02022 0.0
H855 H 0.22394 0.13689 0.98243 0.0
H856 H 0.24515 0.12401 1.00126 0.0
H857 H 0.24321 0.0431 0.977 0.0
H858 H 0.24259 0.05021 0.92607 0.0
H859 H 0.21435 0.1119 0.94162 0.0
C860 C 0.22107 0.09808 0.05542 0.0
C861 C 0.22906 0.08325 0.07505 0.0
C862 C 0.23692 0.0635 0.06542 0.0
C863 C 0.23712 0.05866 0.03669 0.0
C864 C 0.22933 0.07369 0.01786 0.0
C865 C 0.2214 0.09299 0.02678 0.0
C866 C 0.21499 0.10675 1.00204 0.0
C867 C 0.19104 0.11126 1.00245 0.0
C868 C 0.22786 0.12746 1.00146 0.0
C869 C 0.22094 0.09234 0.97781 0.0
C870 C 0.22905 0.0733 0.98746 0.0
C871 C 0.23667 0.05783 0.96918 0.0
C872 C 0.23627 0.06204 0.94029 0.0
C873 C 0.22828 0.08152 0.9299 0.0
C874 C 0.22022 0.09672 0.94894 0.0
H875 H 0.88754 0.21259 0.94327 0.0
H876 H 0.94828 0.24223 0.92683 0.0
H877 H 0.95558 0.24332 0.97772 0.0
H878 H 0.87469 0.24364 1.0015 0.0
H879 H 0.86188 0.22286 0.02115 0.0
H880 H 0.8625 0.22172 0.98341 0.0
H881 H 0.88013 0.18462 0.9856 0.0
H882 H 0.87944 0.18557 0.02342 0.0
H883 H 0.9042 0.18109 0.00547 0.0
H884 H 0.95501 0.24418 0.03017 0.0
H885 H 0.94655 0.24486 0.08077 0.0
H886 H 0.88586 0.21527 0.06368 0.0
C887 C 0.9026 0.21878 0.95039 0.0
C888 C 0.91746 0.22712 0.93111 0.0
C889 C 0.93675 0.23563 0.94123 0.0
C890 C 0.94105 0.23629 0.9701 0.0
C891 C 0.92588 0.22841 0.98862 0.0
C892 C 0.90706 0.21975 0.97921 0.0
C893 C 0.89276 0.21392 1.00364 0.0
C894 C 0.87172 0.22628 1.00234 0.0
C895 C 0.88891 0.18987 1.00458 0.0
C896 C 0.90628 0.22109 0.02818 0.0
C897 C 0.92541 0.22919 0.01902 0.0
C898 C 0.94018 0.23766 0.03762 0.0
C899 C 0.93521 0.23802 0.06632 0.0
C900 C 0.9156 0.23005 0.07619 0.0
C901 C 0.90107 0.22129 0.05681 0.0
H902 H 0.75794 0.92619 0.94508 0.0
H903 H 0.82311 0.90698 0.93089 0.0
H904 H 0.82942 0.9071 0.98219 0.0
H905 H 0.76748 0.95981 0.00775 0.0
H906 H 0.74331 0.95114 0.02434 0.0
H907 H 0.74497 0.95249 0.98659 0.0
H908 H 0.73391 0.91301 0.98343 0.0
H909 H 0.73242 0.91147 0.02109 0.0
H910 H 0.74913 0.89326 1.00203 0.0
H911 H 0.82748 0.90595 0.03544 0.0
H912 H 0.81745 0.90371 0.08565 0.0
H913 H 0.75331 0.92273 0.06442 0.0
C914 C 0.77373 0.92263 0.9527 0.0
C915 C 0.79012 0.91684 0.93397 0.0
C916 C 0.81038 0.91169 0.94485 0.0
C917 C 0.8141 0.9117 0.97395 0.0
C918 C 0.79739 0.91688 0.9919 0.0
C919 C 0.77763 0.92237 0.98163 0.0
C920 C 0.76184 0.92555 0.00523 0.0
C921 C 0.75394 0.94862 0.00602 0.0
C922 C 0.74324 0.90989 1.00279 0.0
C923 C 0.77564 0.92054 0.03038 0.0
C924 C 0.79616 0.91581 0.02235 0.0
C925 C 0.81151 0.90985 0.04195 0.0
C926 C 0.80567 0.90859 0.07041 0.0
C927 C 0.78463 0.91309 0.07896 0.0
C928 C 0.76956 0.91931 0.05859 0.0
H929 H 0.0754 0.74416 0.94361 0.0
H930 H 0.08493 0.8105 0.92313 0.0
H931 H 0.08291 0.81958 0.97352 0.0
H932 H 0.03919 0.75274 1.00464 0.0
H933 H 0.05076 0.73101 0.02393 0.0
H934 H 0.04991 0.73021 0.98612 0.0
H935 H 0.09056 0.72439 0.9848 0.0
H936 H 0.09159 0.72536 0.02251 0.0
H937 H 0.10769 0.74318 1.00202 0.0
H938 H 0.08462 0.82078 0.02627 0.0
H939 H 0.08835 0.81417 0.07722 0.0
H940 H 0.07722 0.74713 0.0634 0.0
C941 C 0.07642 0.76067 0.94965 0.0
C942 C 0.08015 0.77665 0.92942 0.0
C943 C 0.08189 0.79802 0.93824 0.0
C944 C 0.08077 0.80333 0.96683 0.0
C945 C 0.07776 0.78711 0.98633 0.0
C946 C 0.07536 0.76623 0.9781 0.0
C947 C 0.07393 0.7516 1.0033 0.0
C948 C 0.05215 0.74075 1.00457 0.0
C949 C 0.09202 0.73517 1.00313 0.0
C950 C 0.07654 0.7674 0.02697 0.0
C951 C 0.07858 0.78783 0.01677 0.0
C952 C 0.08266 0.80491 0.03453 0.0
C953 C 0.08483 0.801 0.06342 0.0
C954 C 0.08289 0.78018 0.07428 0.0
C955 C 0.07842 0.76326 0.05577 0.0
H956 H 0.20727 0.89794 0.44528 0.0
H957 H 0.25634 0.94457 0.4295 0.0
H958 H 0.25869 0.95179 0.4804 0.0
H959 H 0.18175 0.92515 0.50491 0.0
H960 H 0.17704 0.90076 0.52365 0.0
H961 H 0.17758 0.90084 0.48581 0.0
H962 H 0.20666 0.87177 0.48634 0.0
H963 H 0.20619 0.87159 0.52411 0.0
H964 H 0.23076 0.87624 0.50579 0.0
H965 H 0.25751 0.9522 0.53281 0.0
H966 H 0.2541 0.94479 0.58342 0.0
H967 H 0.2062 0.89734 0.56574 0.0
C968 C 0.21822 0.90995 0.45252 0.0
C969 C 0.23151 0.92086 0.43345 0.0
C970 C 0.24596 0.93612 0.44374 0.0
C971 C 0.24734 0.94037 0.47259 0.0
C972 C 0.23421 0.92918 0.49088 0.0
C973 C 0.21995 0.91424 0.48129 0.0
C974 C 0.20883 0.90329 0.50554 0.0
C975 C 0.18488 0.90778 0.50494 0.0
C976 C 0.21339 0.87931 0.50543 0.0
C977 C 0.21934 0.91414 0.53028 0.0
C978 C 0.23374 0.92919 0.52129 0.0
C979 C 0.24614 0.94061 0.54011 0.0
C980 C 0.24409 0.93627 0.56883 0.0
C981 C 0.2298 0.92057 0.57855 0.0
C982 C 0.21702 0.90964 0.55898 0.0
H983 H 0.07828 0.25257 0.56319 0.0
H984 H 0.08293 0.18494 0.5789 0.0
H985 H 0.08139 0.17812 0.52787 0.0
H986 H 0.04246 0.24923 0.50207 0.0
H987 H 0.05547 0.27075 0.48409 0.0
H988 H 0.05488 0.27013 0.52191 0.0
H989 H 0.09586 0.27273 0.52306 0.0
H990 H 0.09659 0.27323 0.4853 0.0
H991 H 0.11147 0.25343 0.50423 0.0
H992 H 0.08249 0.17885 0.47505 0.0
H993 H 0.08528 0.18709 0.4244 0.0
H994 H 0.07966 0.2542 0.4431 0.0
C995 C 0.07853 0.23631 0.55591 0.0
C996 C 0.0806 0.21927 0.57501 0.0
C997 C 0.08124 0.19823 0.56465 0.0
C998 C 0.08037 0.1942 0.5357 0.0
C999 C 0.07877 0.21137 0.51738 0.0
C1000 C 0.07772 0.23201 0.52707 0.0
C1001 C 0.07719 0.24768 0.50294 0.0
C1002 C 0.05625 0.26018 0.50275 0.0
C1003 C 0.09642 0.26264 0.50395 0.0
C1004 C 0.07854 0.23266 0.47818 0.0
C1005 C 0.07933 0.21178 0.48694 0.0
C1006 C 0.08162 0.19513 0.46792 0.0
C1007 C 0.08324 0.19995 0.43922 0.0
C1008 C 0.08255 0.22125 0.42981 0.0
C1009 C 0.07998 0.23774 0.44962 0.0
H1010 H 0.75111 0.07344 0.56554 0.0
H1011 H 0.81628 0.09036 0.58386 0.0
H1012 H 0.82417 0.09116 0.53303 0.0
H1013 H 0.76282 0.03983 0.50365 0.0
H1014 H 0.73943 0.04863 0.48527 0.0
H1015 H 0.7395 0.04745 0.52309 0.0
H1016 H 0.72858 0.08705 0.52521 0.0
H1017 H 0.7286 0.08839 0.48748 0.0
H1018 H 0.74462 0.10656 0.5075 0.0
H1019 H 0.82387 0.09409 0.48022 0.0
H1020 H 0.81591 0.09679 0.42948 0.0
H1021 H 0.75134 0.07662 0.44549 0.0
C1022 C 0.76715 0.07688 0.55888 0.0
C1023 C 0.78311 0.08176 0.57867 0.0
C1024 C 0.80384 0.08643 0.56909 0.0
C1025 C 0.80847 0.08695 0.54025 0.0
C1026 C 0.79225 0.08253 0.52126 0.0
C1027 C 0.77207 0.07732 0.53019 0.0
C1028 C 0.75726 0.07415 0.50549 0.0
C1029 C 0.74929 0.05114 0.50431 0.0
C1030 C 0.73867 0.08998 0.50649 0.0
C1031 C 0.7721 0.07893 0.48129 0.0
C1032 C 0.79223 0.0837 0.49082 0.0
C1033 C 0.80827 0.09002 0.4725 0.0
C1034 C 0.8036 0.09157 0.44374 0.0
C1035 C 0.7831 0.08669 0.43355 0.0
C1036 C 0.76727 0.08007 0.45261 0.0
H1037 H 0.92538 0.74591 0.56684 0.0
H1038 H 0.91818 0.81253 0.58742 0.0
H1039 H 0.92049 0.82161 0.53695 0.0
H1040 H 0.9618 0.75264 0.50681 0.0
H1041 H 0.9495 0.73159 0.48714 0.0
H1042 H 0.94972 0.73067 0.52497 0.0
H1043 H 0.90881 0.72706 0.52528 0.0
H1044 H 0.90845 0.72804 0.48754 0.0
H1045 H 0.8929 0.7467 0.50752 0.0
H1046 H 0.9206 0.82304 0.48391 0.0
H1047 H 0.91795 0.81673 0.4328 0.0
H1048 H 0.92463 0.74908 0.44702 0.0
C1049 C 0.92477 0.76246 0.5608 0.0
C1050 C 0.9218 0.77856 0.58108 0.0
C1051 C 0.92061 0.79997 0.57226 0.0
C1052 C 0.92193 0.80527 0.54364 0.0
C1053 C 0.92445 0.78896 0.52412 0.0
C1054 C 0.92591 0.76799 0.53236 0.0
C1055 C 0.92704 0.75333 0.50719 0.0
C1056 C 0.94828 0.74135 0.50649 0.0
C1057 C 0.90818 0.73788 0.50687 0.0
C1058 C 0.92556 0.76927 0.48347 0.0
C1059 C 0.9243 0.78976 0.49365 0.0
C1060 C 0.92182 0.80709 0.47572 0.0
C1061 C 0.92032 0.80334 0.44672 0.0
C1062 C 0.92121 0.78244 0.4359 0.0
C1063 C 0.92415 0.76527 0.4546 0.0
H1064 H 0.70785 0.60326 0.55582 0.0
H1065 H 0.74983 0.55099 0.57652 0.0
H1066 H 0.75399 0.54297 0.52603 0.0
H1067 H 0.68279 0.57898 0.493 0.0
H1068 H 0.68232 0.60381 0.47423 0.0
H1069 H 0.68027 0.60357 0.51199 0.0
H1070 H 0.71248 0.62888 0.51528 0.0
H1071 H 0.7147 0.62911 0.47762 0.0
H1072 H 0.73713 0.62145 0.49879 0.0
H1073 H 0.75629 0.54272 0.4736 0.0
H1074 H 0.75721 0.55058 0.42288 0.0
H1075 H 0.7144 0.60363 0.43586 0.0
C1076 C 0.71745 0.58977 0.54973 0.0
C1077 C 0.72832 0.57756 0.57006 0.0
C1078 C 0.74123 0.56042 0.56128 0.0
C1079 C 0.74365 0.55573 0.53266 0.0
C1080 C 0.7331 0.56837 0.51309 0.0
C1081 C 0.72022 0.58503 0.52122 0.0
C1082 C 0.71221 0.59731 0.49595 0.0
C1083 C 0.68796 0.59582 0.49366 0.0
C1084 C 0.71958 0.62056 0.49698 0.0
C1085 C 0.72299 0.58527 0.47238 0.0
C1086 C 0.73474 0.56847 0.48273 0.0
C1087 C 0.74695 0.55567 0.46522 0.0
C1088 C 0.7474 0.56029 0.43643 0.0
C1089 C 0.7358 0.57765 0.42538 0.0
C1090 C 0.72322 0.5901 0.44362 0.0
H1091 H 0.40915 0.7113 0.44449 0.0
H1092 H 0.44529 0.76842 0.42798 0.0
H1093 H 0.45332 0.77155 0.47867 0.0
H1094 H 0.38498 0.72956 0.5059 0.0
H1095 H 0.38543 0.70433 0.52371 0.0
H1096 H 0.38474 0.70526 0.48598 0.0
H1097 H 0.41874 0.68219 0.48377 0.0
H1098 H 0.41955 0.68121 0.52158 0.0
H1099 H 0.4422 0.69066 0.5022 0.0
H1100 H 0.45498 0.76992 0.53158 0.0
H1101 H 0.44894 0.76453 0.58238 0.0
H1102 H 0.41127 0.70874 0.56405 0.0
C1103 C 0.41911 0.72424 0.45146 0.0
C1104 C 0.42676 0.73953 0.43231 0.0
C1105 C 0.43937 0.75647 0.44231 0.0
C1106 C 0.44407 0.75833 0.47103 0.0
C1107 C 0.43602 0.74312 0.48943 0.0
C1108 C 0.4238 0.7264 0.48002 0.0
C1109 C 0.41566 0.71313 0.50423 0.0
C1110 C 0.39126 0.71309 0.50499 0.0
C1111 C 0.42458 0.69045 0.50286 0.0
C1112 C 0.42483 0.72523 0.52881 0.0
C1113 C 0.43676 0.74232 0.51986 0.0
C1114 C 0.44589 0.75644 0.53882 0.0
C1115 C 0.44239 0.75325 0.56763 0.0
C1116 C 0.42975 0.73615 0.57717 0.0
C1117 C 0.42123 0.72179 0.55744 0.0
H1118 H 0.28429 0.39121 0.44542 0.0
H1119 H 0.24767 0.44783 0.42691 0.0
H1120 H 0.24508 0.45557 0.47763 0.0
H1121 H 0.25487 0.37567 0.50494 0.0
H1122 H 0.27731 0.36595 0.52455 0.0
H1123 H 0.27795 0.36582 0.48677 0.0
H1124 H 0.31258 0.38783 0.48745 0.0
H1125 H 0.31206 0.38801 0.52529 0.0
H1126 H 0.31323 0.41266 0.50617 0.0
H1127 H 0.2445 0.456 0.53014 0.0
H1128 H 0.24542 0.4489 0.58104 0.0
H1129 H 0.28225 0.39182 0.56604 0.0
C1130 C 0.27601 0.40541 0.45203 0.0
C1131 C 0.26627 0.41901 0.4322 0.0
C1132 C 0.25531 0.43725 0.44171 0.0
C1133 C 0.2538 0.44179 0.47048 0.0
C1134 C 0.26335 0.42795 0.4895 0.0
C1135 C 0.27427 0.41013 0.48072 0.0
C1136 C 0.28209 0.39726 0.5056 0.0
C1137 C 0.27247 0.37485 0.50545 0.0
C1138 C 0.30644 0.39639 0.50615 0.0
C1139 C 0.2735 0.4104 0.52974 0.0
C1140 C 0.26291 0.42814 0.51993 0.0
C1141 C 0.25291 0.44228 0.53807 0.0
C1142 C 0.25351 0.43809 0.56697 0.0
C1143 C 0.26399 0.41986 0.57755 0.0
C1144 C 0.27433 0.406 0.55862 0.0
H1145 H 0.57976 0.24311 0.56533 0.0
H1146 H 0.58859 0.30994 0.58351 0.0
H1147 H 0.58731 0.31796 0.53277 0.0
H1148 H 0.61216 0.24101 0.50598 0.0
H1149 H 0.59576 0.22288 0.48645 0.0
H1150 H 0.59525 0.22255 0.52423 0.0
H1151 H 0.55459 0.22835 0.52366 0.0
H1152 H 0.55494 0.22857 0.48581 0.0
H1153 H 0.54366 0.25061 0.50475 0.0
H1154 H 0.58918 0.31821 0.48028 0.0
H1155 H 0.59191 0.31097 0.42945 0.0
H1156 H 0.58038 0.24419 0.44499 0.0
C1157 C 0.58101 0.25948 0.55865 0.0
C1158 C 0.58422 0.27593 0.57836 0.0
C1159 C 0.586 0.29711 0.5688 0.0
C1160 C 0.58531 0.30182 0.54002 0.0
C1161 C 0.58258 0.28519 0.52111 0.0
C1162 C 0.58019 0.26447 0.53001 0.0
C1163 C 0.5784 0.24944 0.50528 0.0
C1164 C 0.59647 0.23301 0.50551 0.0
C1165 C 0.5566 0.23861 0.50486 0.0
C1166 C 0.58073 0.26487 0.48108 0.0
C1167 C 0.58308 0.28542 0.4907 0.0
C1168 C 0.58697 0.30225 0.47247 0.0
C1169 C 0.58857 0.29798 0.44367 0.0
C1170 C 0.58613 0.27708 0.43333 0.0
C1171 C 0.5819 0.26038 0.45229 0.0
H1172 H 0.74663 0.42638 0.9373 0.0
H1173 H 0.68394 0.40233 0.91781 0.0
H1174 H 0.67544 0.40114 0.96841 0.0
H1175 H 0.75549 0.39387 0.99563 0.0
H1176 H 0.76947 0.41346 0.01597 0.0
H1177 H 0.76988 0.41478 0.97823 0.0
H1178 H 0.75531 0.4532 0.97996 0.0
H1179 H 0.755 0.45206 0.01778 0.0
H1180 H 0.73113 0.45863 0.99885 0.0
H1181 H 0.67484 0.39954 0.02103 0.0
H1182 H 0.68198 0.3983 0.072 0.0
H1183 H 0.74508 0.42329 0.05742 0.0
C1184 C 0.73094 0.42134 0.94366 0.0
C1185 C 0.71587 0.4146 0.92363 0.0
C1186 C 0.69568 0.40768 0.9328 0.0
C1187 C 0.6907 0.40695 0.96149 0.0
C1188 C 0.70607 0.41324 0.98075 0.0
C1189 C 0.72575 0.42042 0.97224 0.0
C1190 C 0.73988 0.42498 0.99725 0.0
C1191 C 0.75985 0.41093 0.99673 0.0
C1192 C 0.74566 0.44863 0.99853 0.0
C1193 C 0.72522 0.41885 0.02111 0.0
C1194 C 0.70575 0.41226 0.01114 0.0
C1195 C 0.68994 0.4049 0.0291 0.0
C1196 C 0.69416 0.40421 0.05801 0.0
C1197 C 0.71403 0.41079 0.06867 0.0
C1198 C 0.72966 0.41836 0.04992 0.0
H1199 H 0.581 0.75066 0.06455 0.0
H1200 H 0.592 0.68371 0.0799 0.0
H1201 H 0.59059 0.67685 0.02888 0.0
H1202 H 0.54501 0.74392 1.00371 0.0
H1203 H 0.55578 0.76665 0.98574 0.0
H1204 H 0.5554 0.76589 0.02357 0.0
H1205 H 0.59593 0.77249 0.02445 0.0
H1206 H 0.59645 0.77315 0.98669 0.0
H1207 H 0.61327 0.75485 0.00544 0.0
H1208 H 0.59188 0.67789 0.97614 0.0
H1209 H 0.59437 0.68661 0.9256 0.0
H1210 H 0.58173 0.75271 0.9446 0.0
C1211 C 0.58264 0.73449 0.05721 0.0
C1212 C 0.58651 0.71769 0.07619 0.0
C1213 C 0.58891 0.6968 0.06574 0.0
C1214 C 0.58812 0.69275 0.0368 0.0
C1215 C 0.58477 0.70973 0.01859 0.0
C1216 C 0.58186 0.73017 0.02838 0.0
C1217 C 0.57972 0.74577 1.00434 0.0
C1218 C 0.55766 0.75617 1.00434 0.0
C1219 C 0.5974 0.76255 0.0053 0.0
C1220 C 0.58242 0.73101 0.97951 0.0
C1221 C 0.58522 0.71027 0.98816 0.0
C1222 C 0.58937 0.69401 0.96909 0.0
C1223 C 0.59081 0.69912 0.94046 0.0
C1224 C 0.58805 0.72027 0.93119 0.0
C1225 C 0.58356 0.73633 0.95102 0.0
H1226 H 0.2552 0.57793 0.06813 0.0
H1227 H 0.31859 0.59988 0.088 0.0
H1228 H 0.32796 0.59883 0.0377 0.0
H1229 H 0.27042 0.54265 0.00942 0.0
H1230 H 0.24723 0.54941 0.98918 0.0
H1231 H 0.24613 0.54983 0.027 0.0
H1232 H 0.23321 0.58885 0.02558 0.0
H1233 H 0.23433 0.58857 0.98783 0.0
H1234 H 0.24877 0.60838 0.0072 0.0
H1235 H 0.32945 0.59874 0.98519 0.0
H1236 H 0.32309 0.59896 0.934 0.0
H1237 H 0.25895 0.57656 0.94795 0.0
C1238 C 0.27118 0.58209 0.06193 0.0
C1239 C 0.28622 0.58888 0.08199 0.0
C1240 C 0.30685 0.59455 0.07301 0.0
C1241 C 0.31233 0.59398 0.04449 0.0
C1242 C 0.29704 0.5876 0.02518 0.0
C1243 C 0.27692 0.58164 0.0335 0.0
C1244 C 0.26308 0.57665 0.00834 0.0
C1245 C 0.25632 0.55324 0.0085 0.0
C1246 C 0.24371 0.5915 0.00718 0.0
C1247 C 0.27843 0.58119 0.9846 0.0
C1248 C 0.29797 0.58737 0.99479 0.0
C1249 C 0.31432 0.59362 0.97694 0.0
C1250 C 0.31055 0.59373 0.94792 0.0
C1251 C 0.29062 0.58759 0.93702 0.0
C1252 C 0.27447 0.58098 0.95565 0.0
H1253 H 0.42094 0.25061 0.94096 0.0
H1254 H 0.41039 0.31744 0.92429 0.0
H1255 H 0.41071 0.32465 0.97535 0.0
H1256 H 0.3875 0.24677 0.99898 0.0
H1257 H 0.40398 0.22858 0.01844 0.0
H1258 H 0.40518 0.22901 0.9807 0.0
H1259 H 0.44567 0.23563 0.98272 0.0
H1260 H 0.44464 0.23503 0.02052 0.0
H1261 H 0.45572 0.25769 1.00273 0.0
H1262 H 0.40841 0.32384 0.02843 0.0
H1263 H 0.4057 0.31539 0.07906 0.0
H1264 H 0.41855 0.24922 0.06084 0.0
C1265 C 0.41916 0.26684 0.94801 0.0
C1266 C 0.41575 0.2835 0.92863 0.0
C1267 C 0.4132 0.30447 0.93874 0.0
C1268 C 0.41331 0.3087 0.96771 0.0
C1269 C 0.41617 0.29181 0.98628 0.0
C1270 C 0.41931 0.27133 0.9768 0.0
C1271 C 0.42103 0.25585 1.00105 0.0
C1272 C 0.40337 0.23907 0.9997 0.0
C1273 C 0.44308 0.24544 1.00179 0.0
C1274 C 0.4179 0.27071 0.02567 0.0
C1275 C 0.41517 0.2914 0.01675 0.0
C1276 C 0.41084 0.30774 0.03565 0.0
C1277 C 0.40926 0.30279 0.06435 0.0
C1278 C 0.41208 0.2817 0.0739 0.0
C1279 C 0.41661 0.26554 0.05423 0.0
H1280 H 0.25715 0.03658 0.21591 0.0
H1281 H 0.18963 0.04953 0.2113 0.0
H1282 H 0.18273 0.02012 0.24415 0.0
H1283 H 0.25193 0.97929 0.21778 0.0
H1284 H 0.27375 0.9755 0.24169 0.0
H1285 H 0.27359 0.9979 0.2182 0.0
H1286 H 0.27786 0.02327 0.26057 0.0
H1287 H 0.27793 0.00095 0.28421 0.0
H1288 H 0.25904 0.02212 0.28903 0.0
H1289 H 0.18298 0.99045 0.27833 0.0
H1290 H 0.18998 0.95989 0.30914 0.0
H1291 H 0.2572 0.96426 0.29037 0.0
C1292 C 0.24094 0.03317 0.22185 0.0
C1293 C 0.22391 0.04536 0.21115 0.0
C1294 C 0.2029 0.04036 0.21918 0.0
C1295 C 0.19882 0.02374 0.23791 0.0
C1296 C 0.2159 0.0121 0.2482 0.0
C1297 C 0.23653 0.01636 0.24026 0.0
C1298 C 0.25185 0.00086 0.25389 0.0
C1299 C 0.26346 0.9876 0.23156 0.0
C1300 C 0.2676 0.0125 0.27306 0.0
C1301 C 0.23659 0.98736 0.27082 0.0
C1302 C 0.21597 0.99432 0.26736 0.0
C1303 C 0.19903 0.98476 0.28111 0.0
C1304 C 0.2032 0.96744 0.29865 0.0
C1305 C 0.22412 0.95966 0.30212 0.0
C1306 C 0.24104 0.96983 0.28805 0.0
H1307 H 0.95744 0.21596 0.22315 0.0
H1308 H 0.95127 0.28324 0.20562 0.0
H1309 H 0.97991 0.29081 0.23949 0.0
H1310 H 0.96808 0.22073 0.29725 0.0
H1311 H 0.98716 0.19942 0.29779 0.0
H1312 H 0.96594 0.19923 0.27248 0.0
H1313 H 0.99321 0.19623 0.23194 0.0
H1314 H 0.01447 0.19618 0.25713 0.0
H1315 H 0.01417 0.21552 0.22925 0.0
H1316 H 0.00936 0.29104 0.27496 0.0
H1317 H 0.03915 0.28372 0.30722 0.0
H1318 H 0.02614 0.2163 0.30159 0.0
C1319 C 0.96215 0.23228 0.2264 0.0
C1320 C 0.95215 0.24903 0.21178 0.0
C1321 C 0.95876 0.27017 0.21657 0.0
C1322 C 0.97494 0.27463 0.23585 0.0
C1323 C 0.98433 0.25778 0.25014 0.0
C1324 C 0.9783 0.23701 0.24552 0.0
C1325 C 0.99135 0.22178 0.26305 0.0
C1326 C 0.97729 0.20957 0.28388 0.0
C1327 C 0.00405 0.20654 0.24421 0.0
C1328 C 0.00576 0.23721 0.27812 0.0
C1329 C 0.00135 0.25791 0.27054 0.0
C1330 C 0.01292 0.27491 0.28114 0.0
C1331 C 0.02975 0.2706 0.29952 0.0
C1332 C 0.03487 0.24947 0.30702 0.0
C1333 C 0.02246 0.23263 0.29649 0.0
H1334 H 0.78395 0.02951 0.30404 0.0
H1335 H 0.72847 0.06327 0.27372 0.0
H1336 H 0.72402 0.03669 0.23619 0.0
H1337 H 0.80422 0.01536 0.23589 0.0
H1338 H 0.81358 0.98961 0.24675 0.0
H1339 H 0.81226 0.01099 0.27176 0.0
H1340 H 0.78869 0.98811 0.30442 0.0
H1341 H 0.79011 0.9666 0.27965 0.0
H1342 H 0.76468 0.97659 0.29076 0.0
H1343 H 0.72519 0.00631 0.20247 0.0
H1344 H 0.73174 0.97374 0.175 0.0
H1345 H 0.78726 0.96035 0.22581 0.0
C1346 C 0.77077 0.03118 0.28963 0.0
C1347 C 0.75647 0.04838 0.29185 0.0
C1348 C 0.73958 0.05019 0.27242 0.0
C1349 C 0.73694 0.0352 0.251 0.0
C1350 C 0.75144 0.01859 0.24915 0.0
C1351 C 0.76803 0.01646 0.26791 0.0
C1352 C 0.78146 0.99719 0.26104 0.0
C1353 C 0.80423 0.00369 0.25341 0.0
C1354 C 0.78121 0.98118 0.28542 0.0
C1355 C 0.76972 0.98874 0.23566 0.0
C1356 C 0.75245 0.00133 0.22918 0.0
C1357 C 0.73875 0.9964 0.20721 0.0
C1358 C 0.74261 0.9779 0.1917 0.0
C1359 C 0.7601 0.96467 0.19812 0.0
C1360 C 0.77396 0.97036 0.22015 0.0
H1361 H 0.03615 0.74224 0.21641 0.0
H1362 H 0.03647 0.8077 0.18797 0.0
H1363 H 0.00708 0.81593 0.2201 0.0
H1364 H 0.97817 0.73842 0.22413 0.0
H1365 H 0.97984 0.72194 0.25499 0.0
H1366 H 0.00045 0.72083 0.22883 0.0
H1367 H 0.02838 0.72922 0.26708 0.0
H1368 H 0.00783 0.73063 0.29328 0.0
H1369 H 0.02542 0.75278 0.28816 0.0
H1370 H 0.97972 0.81803 0.25737 0.0
H1371 H 0.95284 0.81289 0.29432 0.0
H1372 H 0.96861 0.74589 0.29801 0.0
C1373 C 0.02978 0.7582 0.21664 0.0
C1374 C 0.03864 0.77432 0.19965 0.0
C1375 C 0.02996 0.79506 0.20071 0.0
C1376 C 0.01329 0.79994 0.21898 0.0
C1377 C 0.00527 0.78389 0.23594 0.0
C1378 C 0.01292 0.76335 0.23468 0.0
C1379 C 0.00131 0.74918 0.25536 0.0
C1380 C 0.98922 0.73155 0.2399 0.0
C1381 C 0.01666 0.73991 0.27727 0.0
C1382 C 0.9862 0.76506 0.26858 0.0
C1383 C 0.98891 0.785 0.25714 0.0
C1384 C 0.97727 0.80245 0.26634 0.0
C1385 C 0.96213 0.79939 0.28746 0.0
C1386 C 0.95862 0.77901 0.29901 0.0
C1387 C 0.97093 0.76165 0.28952 0.0
H1388 H 0.7921 0.96523 0.80068 0.0
H1389 H 0.72759 0.9424 0.79165 0.0
H1390 H 0.72065 0.96994 0.756 0.0
H1391 H 0.77981 0.02101 0.79314 0.0
H1392 H 0.80357 0.02686 0.77359 0.0
H1393 H 0.80343 0.0054 0.79857 0.0
H1394 H 0.81592 0.97954 0.75965 0.0
H1395 H 0.81591 0.00089 0.73449 0.0
H1396 H 0.80069 0.97727 0.72776 0.0
H1397 H 0.72063 0.99964 0.72122 0.0
H1398 H 0.72711 0.03072 0.69092 0.0
H1399 H 0.79166 0.03443 0.72204 0.0
C1400 C 0.77648 0.96613 0.79132 0.0
C1401 C 0.76036 0.95169 0.79898 0.0
C1402 C 0.74016 0.95331 0.78615 0.0
C1403 C 0.73608 0.96886 0.76582 0.0
C1404 C 0.75235 0.98269 0.7585 0.0
C1405 C 0.77212 0.98158 0.77092 0.0
C1406 C 0.78677 0.99849 0.75927 0.0
C1407 C 0.7938 0.01385 0.78253 0.0
C1408 C 0.80596 0.98844 0.74441 0.0
C1409 C 0.77211 0.00929 0.73845 0.0
C1410 C 0.75236 0.99985 0.73829 0.0
C1411 C 0.73604 0.00715 0.72111 0.0
C1412 C 0.73989 0.02479 0.70393 0.0
C1413 C 0.75989 0.03494 0.70403 0.0
C1414 C 0.77625 0.02689 0.72134 0.0
H1415 H 0.96981 0.78085 0.71669 0.0
H1416 H 0.9615 0.71354 0.70148 0.0
H1417 H 0.99152 0.70571 0.73323 0.0
H1418 H 0.02734 0.78024 0.72051 0.0
H1419 H 0.02825 0.79978 0.74808 0.0
H1420 H 0.00673 0.79997 0.72325 0.0
H1421 H 0.97982 0.79789 0.76429 0.0
H1422 H 0.00126 0.79749 0.78923 0.0
H1423 H 0.98185 0.77655 0.78937 0.0
H1424 H 0.02181 0.70524 0.76777 0.0
H1425 H 0.05091 0.71223 0.80126 0.0
H1426 H 0.03899 0.77984 0.79425 0.0
C1427 C 0.97447 0.76448 0.71976 0.0
C1428 C 0.9634 0.74779 0.70653 0.0
C1429 C 0.96983 0.72657 0.71132 0.0
C1430 C 0.98682 0.72197 0.72936 0.0
C1431 C 0.99718 0.73878 0.74244 0.0
C1432 C 0.99132 0.75961 0.73776 0.0
C1433 C 0.00478 0.77474 0.7548 0.0
C1434 C 0.01753 0.78955 0.73551 0.0
C1435 C 0.99111 0.78741 0.77566 0.0
C1436 C 0.01909 0.75916 0.76988 0.0
C1437 C 0.01446 0.7385 0.76247 0.0
C1438 C 0.02559 0.72136 0.77369 0.0
C1439 C 0.04204 0.72548 0.79275 0.0
C1440 C 0.04716 0.74656 0.8004 0.0
C1441 C 0.03539 0.76355 0.7889 0.0
H1442 H 0.259 0.96234 0.7162 0.0
H1443 H 0.19127 0.95409 0.70445 0.0
H1444 H 0.18435 0.98387 0.73665 0.0
H1445 H 0.25719 0.97568 0.78927 0.0
H1446 H 0.27775 0.99542 0.78721 0.0
H1447 H 0.27764 0.9735 0.76298 0.0
H1448 H 0.27785 0.99968 0.721 0.0
H1449 H 0.27815 0.02167 0.74511 0.0
H1450 H 0.2577 0.01992 0.7188 0.0
H1451 H 0.18452 0.0135 0.77112 0.0
H1452 H 0.19187 0.04333 0.8031 0.0
H1453 H 0.25947 0.03343 0.79179 0.0
C1454 C 0.24274 0.96691 0.72029 0.0
C1455 C 0.22567 0.9559 0.70784 0.0
C1456 C 0.2046 0.96234 0.71369 0.0
C1457 C 0.20049 0.97918 0.73203 0.0
C1458 C 0.21762 0.98954 0.74423 0.0
C1459 C 0.23833 0.98386 0.73843 0.0
C1460 C 0.25379 0.99791 0.75411 0.0
C1461 C 0.26739 0.98484 0.77461 0.0
C1462 C 0.26769 0.01055 0.73352 0.0
C1463 C 0.2385 0.01228 0.76968 0.0
C1464 C 0.21772 0.00703 0.7638 0.0
C1465 C 0.20072 0.01784 0.77582 0.0
C1466 C 0.20506 0.0347 0.79404 0.0
C1467 C 0.22622 0.04069 0.79991 0.0
C1468 C 0.24313 0.0292 0.78769 0.0
H1469 H 0.96191 0.25867 0.79074 0.0
H1470 H 0.95307 0.19141 0.80633 0.0
H1471 H 0.98272 0.18321 0.77447 0.0
H1472 H 0.97484 0.25423 0.71772 0.0
H1473 H 0.99472 0.27472 0.71825 0.0
H1474 H 0.97296 0.2756 0.74273 0.0
H1475 H 0.99939 0.2771 0.78431 0.0
H1476 H 0.02123 0.2764 0.75994 0.0
H1477 H 0.01951 0.2569 0.78753 0.0
H1478 H 0.01228 0.18199 0.7399 0.0
H1479 H 0.04182 0.188 0.70692 0.0
H1480 H 0.03247 0.25601 0.71411 0.0
C1481 C 0.96634 0.24225 0.78759 0.0
C1482 C 0.95517 0.22568 0.80103 0.0
C1483 C 0.96141 0.20437 0.79632 0.0
C1484 C 0.9782 0.19954 0.77819 0.0
C1485 C 0.9887 0.21617 0.76499 0.0
C1486 C 0.9832 0.23711 0.7696 0.0
C1487 C 0.99727 0.25191 0.75278 0.0
C1488 C 0.98416 0.26488 0.73162 0.0
C1489 C 0.01011 0.26643 0.77231 0.0
C1490 C 0.01144 0.23599 0.73799 0.0
C1491 C 0.0061 0.21547 0.74524 0.0
C1492 C 0.01669 0.19799 0.73413 0.0
C1493 C 0.03339 0.20156 0.71533 0.0
C1494 C 0.03944 0.22245 0.70796 0.0
C1495 C 0.0282 0.23986 0.71937 0.0
H1496 H 0.75739 0.53967 0.71102 0.0
H1497 H 0.68953 0.5508 0.70663 0.0
H1498 H 0.68359 0.5225 0.74135 0.0
H1499 H 0.75365 0.48272 0.716 0.0
H1500 H 0.77563 0.48001 0.7399 0.0
H1501 H 0.77485 0.50185 0.71554 0.0
H1502 H 0.77865 0.52825 0.75687 0.0
H1503 H 0.77929 0.50647 0.78139 0.0
H1504 H 0.75994 0.52731 0.78547 0.0
H1505 H 0.68458 0.49354 0.77616 0.0
H1506 H 0.69212 0.46296 0.8066 0.0
H1507 H 0.75928 0.46875 0.78805 0.0
C1508 C 0.74132 0.53613 0.71746 0.0
C1509 C 0.72391 0.54747 0.70618 0.0
C1510 C 0.70309 0.54229 0.71491 0.0
C1511 C 0.69955 0.52632 0.73474 0.0
C1512 C 0.71697 0.5155 0.74554 0.0
C1513 C 0.73744 0.51995 0.73708 0.0
C1514 C 0.75316 0.5051 0.75123 0.0
C1515 C 0.76502 0.49162 0.72936 0.0
C1516 C 0.76868 0.51753 0.76984 0.0
C1517 C 0.73826 0.49163 0.76881 0.0
C1518 C 0.71751 0.49816 0.76536 0.0
C1519 C 0.70076 0.48824 0.77905 0.0
C1520 C 0.70524 0.47088 0.79635 0.0
C1521 C 0.72629 0.46344 0.79972 0.0
C1522 C 0.74305 0.47415 0.786 0.0
H1523 H 0.53675 0.76491 0.79719 0.0
H1524 H 0.53582 0.69924 0.82473 0.0
H1525 H 0.50412 0.69283 0.79603 0.0
H1526 H 0.47791 0.77153 0.79422 0.0
H1527 H 0.47914 0.78801 0.76332 0.0
H1528 H 0.50063 0.78824 0.78826 0.0
H1529 H 0.52697 0.77889 0.74842 0.0
H1530 H 0.50558 0.77839 0.72343 0.0
H1531 H 0.5225 0.75552 0.72746 0.0
H1532 H 0.47588 0.69198 0.76067 0.0
H1533 H 0.44969 0.69756 0.72316 0.0
H1534 H 0.46675 0.76415 0.71896 0.0
C1535 C 0.52953 0.74935 0.79766 0.0
C1536 C 0.53874 0.73257 0.81322 0.0
C1537 C 0.52905 0.71234 0.81302 0.0
C1538 C 0.51102 0.70852 0.79678 0.0
C1539 C 0.5027 0.72515 0.78105 0.0
C1540 C 0.51134 0.74526 0.7816 0.0
C1541 C 0.4996 0.75997 0.76164 0.0
C1542 C 0.48867 0.77801 0.77783 0.0
C1543 C 0.51456 0.7687 0.73889 0.0
C1544 C 0.48349 0.74477 0.74926 0.0
C1545 C 0.48567 0.72478 0.76086 0.0
C1546 C 0.47372 0.70762 0.75174 0.0
C1547 C 0.45901 0.71093 0.73028 0.0
C1548 C 0.45617 0.73129 0.71829 0.0
C1549 C 0.46846 0.74849 0.72805 0.0
H1550 H 0.23864 0.47245 0.71046 0.0
H1551 H 0.30253 0.44729 0.71747 0.0
H1552 H 0.31077 0.47393 0.7536 0.0
H1553 H 0.2542 0.52801 0.71836 0.0
H1554 H 0.23082 0.53508 0.73801 0.0
H1555 H 0.22974 0.51392 0.71267 0.0
H1556 H 0.21576 0.4885 0.75118 0.0
H1557 H 0.21703 0.50952 0.77671 0.0
H1558 H 0.23084 0.48493 0.78299 0.0
H1559 H 0.31163 0.50125 0.79066 0.0
H1560 H 0.30695 0.53155 0.8225 0.0
H1561 H 0.24339 0.54156 0.79 0.0
C1562 C 0.25439 0.47272 0.71949 0.0
C1563 C 0.26996 0.45779 0.71123 0.0
C1564 C 0.29042 0.45864 0.72337 0.0
C1565 C 0.29521 0.47362 0.74404 0.0
C1566 C 0.27948 0.48788 0.75206 0.0
C1567 C 0.25962 0.48792 0.73985 0.0
C1568 C 0.24596 0.50559 0.75184 0.0
C1569 C 0.23983 0.5216 0.72885 0.0
C1570 C 0.22623 0.49659 0.76655 0.0
C1571 C 0.26123 0.51527 0.77285 0.0
C1572 C 0.28034 0.50453 0.77279 0.0
C1573 C 0.29683 0.50994 0.79075 0.0
C1574 C 0.29394 0.52712 0.80888 0.0
C1575 C 0.27482 0.53895 0.80869 0.0
C1576 C 0.25818 0.53282 0.79055 0.0
H1577 H 0.46906 0.28752 0.79929 0.0
H1578 H 0.43627 0.2308 0.77159 0.0
H1579 H 0.46431 0.22416 0.73672 0.0
H1580 H 0.48694 0.30382 0.73026 0.0
H1581 H 0.51223 0.31336 0.74246 0.0
H1582 H 0.4896 0.31382 0.76554 0.0
H1583 H 0.51041 0.29186 0.80239 0.0
H1584 H 0.53312 0.2914 0.77947 0.0
H1585 H 0.52207 0.26688 0.79227 0.0
H1586 H 0.49597 0.223 0.70564 0.0
H1587 H 0.52954 0.22765 0.67976 0.0
H1588 H 0.54176 0.28557 0.72618 0.0
C1589 C 0.46784 0.27371 0.7859 0.0
C1590 C 0.45049 0.25966 0.78819 0.0
C1591 C 0.44939 0.2418 0.77021 0.0
C1592 C 0.46524 0.23788 0.75031 0.0
C1593 C 0.48207 0.25203 0.74847 0.0
C1594 C 0.48351 0.26961 0.76568 0.0
C1595 C 0.50335 0.28226 0.75918 0.0
C1596 C 0.49768 0.30464 0.74874 0.0
C1597 C 0.51811 0.28314 0.78486 0.0
C1598 C 0.51284 0.26892 0.73583 0.0
C1599 C 0.50028 0.25155 0.73004 0.0
C1600 C 0.50591 0.23659 0.70985 0.0
C1601 C 0.525 0.23937 0.69527 0.0
C1602 C 0.53817 0.25701 0.70085 0.0
C1603 C 0.53189 0.27204 0.72127 0.0
H1604 H 0.24185 0.53749 0.21867 0.0
H1605 H 0.30867 0.54044 0.19708 0.0
H1606 H 0.31583 0.50997 0.22792 0.0
H1607 H 0.24865 0.52387 0.29069 0.0
H1608 H 0.22669 0.50566 0.29214 0.0
H1609 H 0.22631 0.52737 0.26755 0.0
H1610 H 0.22072 0.50109 0.22644 0.0
H1611 H 0.22085 0.47931 0.25095 0.0
H1612 H 0.23904 0.4794 0.22176 0.0
H1613 H 0.31645 0.4808 0.26295 0.0
H1614 H 0.30982 0.45204 0.29695 0.0
H1615 H 0.24253 0.46655 0.29522 0.0
C1616 C 0.25791 0.53152 0.22018 0.0
C1617 C 0.27469 0.54137 0.20544 0.0
C1618 C 0.29553 0.53316 0.20808 0.0
C1619 C 0.2998 0.51588 0.22564 0.0
C1620 C 0.28306 0.5068 0.24031 0.0
C1621 C 0.26248 0.51407 0.23753 0.0
C1622 C 0.24747 0.50125 0.25576 0.0
C1623 C 0.23664 0.51538 0.27784 0.0
C1624 C 0.23105 0.48957 0.23764 0.0
C1625 C 0.2629 0.48585 0.26933 0.0
C1626 C 0.28336 0.48947 0.26021 0.0
C1627 C 0.30048 0.47767 0.27011 0.0
C1628 C 0.29657 0.46144 0.28953 0.0
C1629 C 0.27569 0.45704 0.2987 0.0
C1630 C 0.25867 0.46953 0.28855 0.0
H1631 H 0.53875 0.23995 0.28403 0.0
H1632 H 0.5401 0.30622 0.30858 0.0
H1633 H 0.51186 0.31415 0.2744 0.0
H1634 H 0.52844 0.24791 0.2104 0.0
H1635 H 0.51033 0.22596 0.20734 0.0
H1636 H 0.53114 0.22525 0.23324 0.0
H1637 H 0.50343 0.21909 0.27256 0.0
H1638 H 0.48258 0.21952 0.24675 0.0
H1639 H 0.48158 0.23734 0.2763 0.0
H1640 H 0.48473 0.31539 0.23671 0.0
H1641 H 0.4564 0.30912 0.20216 0.0
H1642 H 0.47041 0.24169 0.20358 0.0
C1643 C 0.53301 0.25609 0.28222 0.0
C1644 C 0.54164 0.2725 0.29887 0.0
C1645 C 0.53365 0.2934 0.29612 0.0
C1646 C 0.51772 0.2981 0.27662 0.0
C1647 C 0.50972 0.28167 0.26028 0.0
C1648 C 0.51676 0.26102 0.26317 0.0
C1649 C 0.50462 0.24624 0.24387 0.0
C1650 C 0.51953 0.23572 0.22244 0.0
C1651 C 0.49232 0.22957 0.26089 0.0
C1652 C 0.48973 0.26186 0.2297 0.0
C1653 C 0.49325 0.28225 0.23921 0.0
C1654 C 0.48172 0.29949 0.22918 0.0
C1655 C 0.46574 0.29577 0.20942 0.0
C1656 C 0.4612 0.27493 0.20018 0.0
C1657 C 0.47357 0.2578 0.21022 0.0
H1658 H 0.76441 0.53028 0.28887 0.0
H1659 H 0.69989 0.55414 0.28477 0.0
H1660 H 0.69178 0.52855 0.24723 0.0
H1661 H 0.77136 0.52016 0.21504 0.0
H1662 H 0.7859 0.4958 0.21997 0.0
H1663 H 0.78709 0.51631 0.24624 0.0
H1664 H 0.77445 0.48975 0.28421 0.0
H1665 H 0.7735 0.4691 0.25814 0.0
H1666 H 0.75028 0.47512 0.27872 0.0
H1667 H 0.69075 0.50144 0.20948 0.0
H1668 H 0.69531 0.47088 0.17788 0.0
H1669 H 0.75993 0.46288 0.20749 0.0
C1670 C 0.74857 0.53001 0.28011 0.0
C1671 C 0.73278 0.54421 0.28966 0.0
C1672 C 0.7122 0.54334 0.27785 0.0
C1673 C 0.70748 0.52898 0.25637 0.0
C1674 C 0.72344 0.51541 0.24712 0.0
C1675 C 0.74346 0.51549 0.25888 0.0
C1676 C 0.75734 0.49845 0.24585 0.0
C1677 C 0.77656 0.50828 0.23088 0.0
C1678 C 0.76429 0.48214 0.26805 0.0
C1679 C 0.74196 0.48885 0.22496 0.0
C1680 C 0.72261 0.49913 0.22582 0.0
C1681 C 0.7058 0.4932 0.20864 0.0
C1682 C 0.70859 0.47588 0.19065 0.0
C1683 C 0.72797 0.4645 0.19019 0.0
C1684 C 0.74498 0.47134 0.20726 0.0
H1685 H 0.46488 0.75968 0.28456 0.0
H1686 H 0.46226 0.69403 0.31194 0.0
H1687 H 0.49229 0.68536 0.28106 0.0
H1688 H 0.47868 0.74923 0.21232 0.0
H1689 H 0.4967 0.77126 0.20939 0.0
H1690 H 0.47469 0.77261 0.23344 0.0
H1691 H 0.50047 0.78049 0.27445 0.0
H1692 H 0.52254 0.77929 0.25049 0.0
H1693 H 0.52219 0.76258 0.28121 0.0
H1694 H 0.52184 0.68327 0.24692 0.0
H1695 H 0.55128 0.6885 0.21363 0.0
H1696 H 0.53624 0.75563 0.20888 0.0
C1697 C 0.47069 0.74352 0.28404 0.0
C1698 C 0.46119 0.72753 0.30064 0.0
C1699 C 0.46928 0.70657 0.29949 0.0
C1700 C 0.4863 0.70144 0.28193 0.0
C1701 C 0.49522 0.71746 0.26572 0.0
C1702 C 0.4879 0.73812 0.26674 0.0
C1703 C 0.50084 0.75232 0.24754 0.0
C1704 C 0.48689 0.76192 0.22429 0.0
C1705 C 0.51218 0.76969 0.26443 0.0
C1706 C 0.51649 0.73636 0.23565 0.0
C1707 C 0.51279 0.71633 0.2463 0.0
C1708 C 0.52497 0.69889 0.23846 0.0
C1709 C 0.54162 0.70201 0.21947 0.0
C1710 C 0.54606 0.72246 0.20868 0.0
C1711 C 0.53321 0.73982 0.21678 0.0
H1712 H 0.20707 0.14553 0.23562 0.0
H1713 H 0.16165 0.12607 0.17227 0.0
H1714 H 0.13329 0.14499 0.19775 0.0
H1715 H 0.17223 0.14095 0.29519 0.0
H1716 H 0.18249 0.16408 0.31271 0.0
H1717 H 0.19934 0.14895 0.28963 0.0
H1718 H 0.20721 0.18275 0.2605 0.0
H1719 H 0.19048 0.19801 0.28357 0.0
H1720 H 0.18548 0.19795 0.24631 0.0
H1721 H 0.10988 0.16565 0.22996 0.0
H1722 H 0.09301 0.18815 0.26593 0.0
H1723 H 0.15351 0.19476 0.30842 0.0
C1724 C 0.19116 0.14529 0.22712 0.0
C1725 C 0.18654 0.13432 0.20198 0.0
C1726 C 0.16555 0.1344 0.19147 0.0
C1727 C 0.14932 0.14505 0.20582 0.0
C1728 C 0.15436 0.1556 0.23061 0.0
C1729 C 0.17477 0.15594 0.24113 0.0
C1730 C 0.17593 0.16879 0.26799 0.0
C1731 C 0.18291 0.15485 0.29285 0.0
C1732 C 0.19064 0.18801 0.26436 0.0
C1733 C 0.15298 0.1756 0.27091 0.0
C1734 C 0.14083 0.16773 0.24915 0.0
C1735 C 0.11922 0.17192 0.2471 0.0
C1736 C 0.10978 0.18469 0.26767 0.0
C1737 C 0.12193 0.19318 0.28998 0.0
C1738 C 0.1438 0.18842 0.29167 0.0
H1739 H 0.84168 0.20686 0.21569 0.0
H1740 H 0.89451 0.16504 0.19692 0.0
H1741 H 0.87924 0.13778 0.22832 0.0
H1742 H 0.83713 0.19406 0.28781 0.0
H1743 H 0.80859 0.19521 0.28847 0.0
H1744 H 0.82312 0.211 0.26356 0.0
H1745 H 0.80201 0.19417 0.2226 0.0
H1746 H 0.78724 0.17847 0.24741 0.0
H1747 H 0.8013 0.16572 0.2191 0.0
H1748 H 0.85889 0.11575 0.26352 0.0
H1749 H 0.83405 0.09989 0.29775 0.0
H1750 H 0.79454 0.1562 0.29305 0.0
C1751 C 0.84993 0.19188 0.21794 0.0
C1752 C 0.86925 0.18802 0.20385 0.0
C1753 C 0.87962 0.16827 0.20742 0.0
C1754 C 0.8711 0.15273 0.22527 0.0
C1755 C 0.85218 0.15718 0.23923 0.0
C1756 C 0.84163 0.17621 0.23556 0.0
C1757 C 0.82167 0.17718 0.25317 0.0
C1758 C 0.82271 0.19544 0.27452 0.0
C1759 C 0.80189 0.17898 0.23445 0.0
C1760 C 0.82275 0.15582 0.26762 0.0
C1761 C 0.84046 0.14451 0.25932 0.0
C1762 C 0.84492 0.12443 0.27006 0.0
C1763 C 0.83077 0.11559 0.28956 0.0
C1764 C 0.8124 0.12683 0.29807 0.0
C1765 C 0.80847 0.14724 0.28699 0.0
H1766 H 0.87195 0.80286 0.26893 0.0
H1767 H 0.84524 0.81845 0.35037 0.0
H1768 H 0.81916 0.84199 0.32744 0.0
H1769 H 0.86706 0.85502 0.23931 0.0
H1770 H 0.8603 0.84576 0.20466 0.0
H1771 H 0.87654 0.82961 0.22729 0.0
H1772 H 0.8501 0.79849 0.22199 0.0
H1773 H 0.83379 0.81453 0.1993 0.0
H1774 H 0.82252 0.80263 0.23031 0.0
H1775 H 0.79621 0.86389 0.29606 0.0
H1776 H 0.77794 0.88327 0.25817 0.0
H1777 H 0.81971 0.85419 0.19673 0.0
C1778 C 0.86053 0.81115 0.2819 0.0
C1779 C 0.86057 0.80878 0.31144 0.0
C1780 C 0.84549 0.82001 0.32772 0.0
C1781 C 0.8306 0.83341 0.31489 0.0
C1782 C 0.83105 0.83547 0.28577 0.0
C1783 C 0.84561 0.8247 0.26943 0.0
C1784 C 0.84287 0.83008 0.23858 0.0
C1785 C 0.86288 0.84075 0.22677 0.0
C1786 C 0.83696 0.81025 0.22155 0.0
C1787 C 0.82449 0.84557 0.24015 0.0
C1788 C 0.81791 0.84836 0.26759 0.0
C1789 C 0.80121 0.86184 0.27449 0.0
C1790 C 0.79093 0.87277 0.25279 0.0
C1791 C 0.7974 0.87026 0.22449 0.0
C1792 C 0.81443 0.85646 0.21816 0.0
H1793 H 0.19736 0.87437 0.2647 0.0
H1794 H 0.16895 0.85975 0.34542 0.0
H1795 H 0.14391 0.83539 0.32218 0.0
H1796 H 0.1477 0.87328 0.22471 0.0
H1797 H 0.15995 0.86164 0.19418 0.0
H1798 H 0.17519 0.8785 0.21705 0.0
H1799 H 0.20292 0.84851 0.22335 0.0
H1800 H 0.18771 0.83152 0.20066 0.0
H1801 H 0.19441 0.82284 0.23563 0.0
H1802 H 0.12402 0.81067 0.29102 0.0
H1803 H 0.10823 0.7892 0.25318 0.0
H1804 H 0.14798 0.8211 0.19198 0.0
C1805 C 0.18573 0.86618 0.27741 0.0
C1806 C 0.18509 0.86889 0.30686 0.0
C1807 C 0.16965 0.85795 0.32283 0.0
C1808 C 0.1554 0.84405 0.30983 0.0
C1809 C 0.15663 0.8415 0.28082 0.0
C1810 C 0.17118 0.85246 0.26472 0.0
C1811 C 0.16914 0.84675 0.23391 0.0
C1812 C 0.1626 0.8662 0.21643 0.0
C1813 C 0.18977 0.83681 0.22274 0.0
C1814 C 0.15144 0.83057 0.2353 0.0
C1815 C 0.14456 0.82774 0.26261 0.0
C1816 C 0.12908 0.81293 0.26951 0.0
C1817 C 0.12029 0.80074 0.2479 0.0
C1818 C 0.12683 0.80359 0.2197 0.0
C1819 C 0.14254 0.81878 0.21334 0.0
H1820 H 0.87095 0.82356 0.70421 0.0
H1821 H 0.87576 0.76662 0.75515 0.0
H1822 H 0.85559 0.78413 0.79288 0.0
H1823 H 0.87566 0.86139 0.76195 0.0
H1824 H 0.85666 0.87965 0.74722 0.0
H1825 H 0.87231 0.86305 0.72442 0.0
H1826 H 0.83801 0.84842 0.70171 0.0
H1827 H 0.82227 0.86497 0.72443 0.0
H1828 H 0.81792 0.83674 0.72374 0.0
H1829 H 0.83389 0.80691 0.82435 0.0
H1830 H 0.81171 0.83385 0.84778 0.0
H1831 H 0.82074 0.8764 0.77709 0.0
C1832 C 0.86789 0.81488 0.7234 0.0
C1833 C 0.87497 0.79374 0.72675 0.0
C1834 C 0.87052 0.78283 0.7521 0.0
C1835 C 0.8591 0.79264 0.7737 0.0
C1836 C 0.85223 0.8134 0.76972 0.0
C1837 C 0.85644 0.82445 0.74527 0.0
C1838 C 0.84665 0.84644 0.74621 0.0
C1839 C 0.86385 0.86365 0.74488 0.0
C1840 C 0.83024 0.8493 0.72263 0.0
C1841 C 0.83612 0.84587 0.77485 0.0
C1842 C 0.83964 0.82666 0.78805 0.0
C1843 C 0.83112 0.82207 0.81433 0.0
C1844 C 0.81853 0.83747 0.82747 0.0
C1845 C 0.81458 0.85723 0.81432 0.0
C1846 C 0.82364 0.86149 0.78774 0.0
H1847 H 0.17755 0.85119 0.69411 0.0
H1848 H 0.22264 0.87613 0.75445 0.0
H1849 H 0.20472 0.8567 0.79237 0.0
H1850 H 0.13149 0.85207 0.7401 0.0
H1851 H 0.12093 0.8274 0.72718 0.0
H1852 H 0.13674 0.84391 0.70449 0.0
H1853 H 0.16225 0.81242 0.69532 0.0
H1854 H 0.14652 0.79582 0.71796 0.0
H1855 H 0.17445 0.79906 0.72466 0.0
H1856 H 0.18245 0.83486 0.82382 0.0
H1857 H 0.15762 0.81031 0.84701 0.0
H1858 H 0.12724 0.79805 0.76687 0.0
C1859 C 0.18352 0.85261 0.71533 0.0
C1860 C 0.20146 0.8652 0.72134 0.0
C1861 C 0.20896 0.86653 0.74932 0.0
C1862 C 0.19885 0.85561 0.77106 0.0
C1863 C 0.18131 0.84326 0.76453 0.0
C1864 C 0.17371 0.84155 0.7374 0.0
C1865 C 0.15495 0.82653 0.73623 0.0
C1866 C 0.13484 0.83818 0.72642 0.0
C1867 C 0.15984 0.80732 0.71743 0.0
C1868 C 0.15332 0.82012 0.7669 0.0
C1869 C 0.16862 0.83013 0.7828 0.0
C1870 C 0.17039 0.82689 0.81163 0.0
C1871 C 0.15621 0.81293 0.82461 0.0
C1872 C 0.14055 0.80226 0.80876 0.0
C1873 C 0.13909 0.80596 0.77951 0.0
H1874 H 0.12605 0.1963 0.74234 0.0
H1875 H 0.1568 0.18669 0.66176 0.0
H1876 H 0.18363 0.16395 0.68444 0.0
H1877 H 0.17382 0.19791 0.78437 0.0
H1878 H 0.16241 0.18362 0.81346 0.0
H1879 H 0.14575 0.1996 0.79114 0.0
H1880 H 0.12194 0.16701 0.78129 0.0
H1881 H 0.13853 0.15093 0.80357 0.0
H1882 H 0.13373 0.14304 0.76777 0.0
H1883 H 0.20712 0.14268 0.71528 0.0
H1884 H 0.22557 0.12284 0.75247 0.0
H1885 H 0.17938 0.14489 0.81351 0.0
C1886 C 0.13849 0.18946 0.72954 0.0
C1887 C 0.13941 0.1933 0.70029 0.0
C1888 C 0.1558 0.18396 0.68418 0.0
C1889 C 0.17113 0.17105 0.69687 0.0
C1890 C 0.16978 0.16752 0.72568 0.0
C1891 C 0.15387 0.17634 0.74186 0.0
C1892 C 0.15591 0.16956 0.77234 0.0
C1893 C 0.1597 0.18882 0.79145 0.0
C1894 C 0.13637 0.15688 0.78179 0.0
C1895 C 0.17545 0.15555 0.77069 0.0
C1896 C 0.1832 0.15476 0.74355 0.0
C1897 C 0.2012 0.14313 0.7366 0.0
C1898 C 0.21158 0.13193 0.75792 0.0
C1899 C 0.2039 0.1323 0.78588 0.0
C1900 C 0.18556 0.14427 0.79231 0.0
H1901 H 0.85829 0.17502 0.81313 0.0
H1902 H 0.8631 0.23087 0.76012 0.0
H1903 H 0.84378 0.21236 0.72259 0.0
H1904 H 0.86515 0.13642 0.75813 0.0
H1905 H 0.84614 0.11799 0.77231 0.0
H1906 H 0.86036 0.13552 0.79543 0.0
H1907 H 0.82484 0.14983 0.81518 0.0
H1908 H 0.81052 0.13225 0.79225 0.0
H1909 H 0.80526 0.16035 0.79135 0.0
H1910 H 0.82454 0.18808 0.69053 0.0
H1911 H 0.80471 0.15976 0.66648 0.0
H1912 H 0.81164 0.11941 0.73984 0.0
C1913 C 0.85518 0.18334 0.79366 0.0
C1914 C 0.86221 0.2044 0.78956 0.0
C1915 C 0.85785 0.21476 0.76378 0.0
C1916 C 0.84693 0.20437 0.74227 0.0
C1917 C 0.84038 0.1836 0.74682 0.0
C1918 C 0.84417 0.17319 0.77188 0.0
C1919 C 0.83511 0.15092 0.77125 0.0
C1920 C 0.85274 0.13423 0.77447 0.0
C1921 C 0.81791 0.14819 0.79385 0.0
C1922 C 0.82568 0.15052 0.74195 0.0
C1923 C 0.82902 0.16953 0.72824 0.0
C1924 C 0.82178 0.17312 0.70102 0.0
C1925 C 0.81057 0.15691 0.68753 0.0
C1926 C 0.80665 0.13739 0.70126 0.0
C1927 C 0.81446 0.13415 0.72878 0.0
H1928 H 0.70152 0.63422 0.736 0.0
H1929 H 0.66964 0.64694 0.65703 0.0
H1930 H 0.64534 0.67171 0.68124 0.0
H1931 H 0.65398 0.63487 0.77883 0.0
H1932 H 0.66687 0.64715 0.80841 0.0
H1933 H 0.68188 0.63059 0.78483 0.0
H1934 H 0.70827 0.66137 0.77631 0.0
H1935 H 0.6933 0.67805 0.79978 0.0
H1936 H 0.69843 0.68667 0.76433 0.0
H1937 H 0.62576 0.6962 0.71337 0.0
H1938 H 0.61002 0.71683 0.75212 0.0
H1939 H 0.65311 0.68675 0.81103 0.0
C1940 C 0.6894 0.64222 0.72384 0.0
C1941 C 0.68748 0.6388 0.69463 0.0
C1942 C 0.67134 0.64936 0.67943 0.0
C1943 C 0.65752 0.66348 0.69297 0.0
C1944 C 0.65992 0.66661 0.72176 0.0
C1945 C 0.67527 0.65611 0.73712 0.0
C1946 C 0.67411 0.66199 0.76795 0.0
C1947 C 0.6689 0.64249 0.78607 0.0
C1948 C 0.69475 0.67266 0.77765 0.0
C1949 C 0.65584 0.67761 0.76749 0.0
C1950 C 0.64803 0.68015 0.74056 0.0
C1951 C 0.63162 0.69422 0.73457 0.0
C1952 C 0.62284 0.70591 0.75671 0.0
C1953 C 0.6303 0.7033 0.78455 0.0
C1954 C 0.647 0.68892 0.78997 0.0
H1955 H 0.30351 0.65781 0.79805 0.0
H1956 H 0.33779 0.59831 0.7915 0.0
H1957 H 0.36082 0.61385 0.75492 0.0
H1958 H 0.3053 0.67238 0.72509 0.0
H1959 H 0.30958 0.70017 0.73182 0.0
H1960 H 0.29531 0.68425 0.75689 0.0
H1961 H 0.32163 0.69526 0.79599 0.0
H1962 H 0.33586 0.71136 0.77111 0.0
H1963 H 0.34964 0.69117 0.79077 0.0
H1964 H 0.37923 0.6354 0.71793 0.0
H1965 H 0.39477 0.6629 0.6872 0.0
H1966 H 0.35016 0.70908 0.72007 0.0
C1967 C 0.31588 0.64809 0.78889 0.0
C1968 C 0.31886 0.62686 0.79743 0.0
C1969 C 0.33532 0.61465 0.78526 0.0
C1970 C 0.34838 0.62329 0.76437 0.0
C1971 C 0.34494 0.64423 0.75621 0.0
C1972 C 0.32933 0.6566 0.7684 0.0
C1973 C 0.32965 0.67896 0.75677 0.0
C1974 C 0.30871 0.68424 0.74175 0.0
C1975 C 0.33449 0.69514 0.78005 0.0
C1976 C 0.34782 0.6772 0.7361 0.0
C1977 C 0.3562 0.65694 0.7358 0.0
C1978 C 0.37289 0.65136 0.71808 0.0
C1979 C 0.38153 0.66703 0.70061 0.0
C1980 C 0.37368 0.68806 0.70135 0.0
C1981 C 0.3565 0.69312 0.71917 0.0
H1982 H 0.37417 0.3131 0.76728 0.0
H1983 H 0.3362 0.31037 0.84326 0.0
H1984 H 0.30814 0.33117 0.81997 0.0
H1985 H 0.35929 0.36702 0.74745 0.0
H1986 H 0.3587 0.36125 0.7104 0.0
H1987 H 0.37619 0.3466 0.7332 0.0
H1988 H 0.35955 0.31141 0.71601 0.0
H1989 H 0.34191 0.32595 0.6933 0.0
H1990 H 0.3313 0.30767 0.71877 0.0
H1991 H 0.28377 0.35086 0.78855 0.0
H1992 H 0.2648 0.37007 0.75129 0.0
H1993 H 0.31824 0.3609 0.69504 0.0
C1994 C 0.36003 0.31706 0.77906 0.0
C1995 C 0.35737 0.31014 0.80713 0.0
C1996 C 0.3386 0.31554 0.82179 0.0
C1997 C 0.32255 0.32731 0.80873 0.0
C1998 C 0.32552 0.33365 0.78099 0.0
C1999 C 0.3438 0.32889 0.76632 0.0
C2000 C 0.34276 0.33758 0.73659 0.0
C2001 C 0.36027 0.3541 0.73163 0.0
C2002 C 0.34395 0.31957 0.71489 0.0
C2003 C 0.32098 0.34784 0.73686 0.0
C2004 C 0.31137 0.34529 0.76273 0.0
C2005 C 0.29115 0.35306 0.76824 0.0
C2006 C 0.28048 0.36391 0.74686 0.0
C2007 C 0.29002 0.36701 0.72022 0.0
C2008 C 0.31054 0.35878 0.71517 0.0
H2009 H 0.62547 0.30509 0.73863 0.0
H2010 H 0.65964 0.30706 0.65955 0.0
H2011 H 0.68642 0.33057 0.68094 0.0
H2012 H 0.63475 0.35979 0.75801 0.0
H2013 H 0.63769 0.3539 0.79485 0.0
H2014 H 0.62109 0.33745 0.77318 0.0
H2015 H 0.64259 0.30431 0.78837 0.0
H2016 H 0.6593 0.32067 0.81 0.0
H2017 H 0.67092 0.30395 0.78343 0.0
H2018 H 0.70991 0.35306 0.71118 0.0
H2019 H 0.72794 0.37402 0.74783 0.0
H2020 H 0.67824 0.3578 0.80708 0.0
C2021 C 0.63854 0.31054 0.72578 0.0
C2022 C 0.64051 0.30427 0.69743 0.0
C2023 C 0.65783 0.31171 0.68131 0.0
C2024 C 0.67312 0.32504 0.69327 0.0
C2025 C 0.67081 0.33081 0.72134 0.0
C2026 C 0.65391 0.32391 0.73737 0.0
C2027 C 0.65516 0.33242 0.76706 0.0
C2028 C 0.63604 0.34674 0.77365 0.0
C2029 C 0.65711 0.31425 0.78847 0.0
C2030 C 0.67547 0.34512 0.76526 0.0
C2031 C 0.68426 0.34394 0.73871 0.0
C2032 C 0.70315 0.35416 0.73202 0.0
C2033 C 0.71329 0.36598 0.75298 0.0
C2034 C 0.70448 0.36754 0.78026 0.0
C2035 C 0.68533 0.35693 0.7864 0.0
H2036 H 0.34799 0.31538 0.19308 0.0
H2037 H 0.38956 0.28584 0.25436 0.0
H2038 H 0.37197 0.30584 0.29225 0.0
H2039 H 0.34549 0.36691 0.22559 0.0
H2040 H 0.31785 0.37102 0.21769 0.0
H2041 H 0.33387 0.35461 0.19512 0.0
H2042 H 0.3075 0.32353 0.20166 0.0
H2043 H 0.29138 0.33986 0.2242 0.0
H2044 H 0.30105 0.31463 0.23662 0.0
H2045 H 0.35067 0.32962 0.32341 0.0
H2046 H 0.3254 0.35416 0.34622 0.0
H2047 H 0.29648 0.36721 0.26534 0.0
C2048 C 0.35336 0.31316 0.21448 0.0
C2049 C 0.37017 0.2991 0.22079 0.0
C2050 C 0.37668 0.2965 0.24905 0.0
C2051 C 0.36683 0.30783 0.27073 0.0
C2052 C 0.35036 0.32158 0.26386 0.0
C2053 C 0.34352 0.32419 0.23649 0.0
C2054 C 0.32512 0.33966 0.23502 0.0
C2055 C 0.33094 0.35921 0.21731 0.0
C2056 C 0.30508 0.32876 0.22371 0.0
C2057 C 0.32277 0.34534 0.2658 0.0
C2058 C 0.33761 0.33486 0.28202 0.0
C2059 C 0.33889 0.33784 0.31097 0.0
C2060 C 0.32452 0.35184 0.32372 0.0
C2061 C 0.30896 0.36248 0.30757 0.0
C2062 C 0.30813 0.35915 0.27824 0.0
H2063 H 0.64316 0.28874 0.27044 0.0
H2064 H 0.61858 0.33636 0.32771 0.0
H2065 H 0.63531 0.36445 0.29942 0.0
H2066 H 0.69373 0.31418 0.25926 0.0
H2067 H 0.69541 0.30683 0.22276 0.0
H2068 H 0.681 0.29034 0.24703 0.0
H2069 H 0.64759 0.29328 0.21564 0.0
H2070 H 0.66186 0.30988 0.19135 0.0
H2071 H 0.63737 0.31911 0.20659 0.0
H2072 H 0.65401 0.38732 0.26529 0.0
H2073 H 0.67604 0.4039 0.22875 0.0
H2074 H 0.68992 0.34181 0.19378 0.0
C2075 C 0.64132 0.30509 0.27695 0.0
C2076 C 0.62954 0.31041 0.30121 0.0
C2077 C 0.62759 0.33194 0.30924 0.0
C2078 C 0.63695 0.34801 0.29326 0.0
C2079 C 0.64836 0.34229 0.26942 0.0
C2080 C 0.6508 0.32139 0.26137 0.0
C2081 C 0.66454 0.31967 0.2353 0.0
C2082 C 0.68488 0.30701 0.24147 0.0
C2083 C 0.65209 0.30991 0.21077 0.0
C2084 C 0.66935 0.34289 0.23 0.0
C2085 C 0.65968 0.35561 0.24987 0.0
C2086 C 0.66171 0.37756 0.24962 0.0
C2087 C 0.67423 0.38682 0.22873 0.0
C2088 C 0.68469 0.37414 0.20844 0.0
C2089 C 0.68206 0.35188 0.20897 0.0
H2090 H 0.68826 0.64519 0.31273 0.0
H2091 H 0.73679 0.62794 0.25217 0.0
H2092 H 0.71795 0.64798 0.21554 0.0
H2093 H 0.64405 0.64185 0.26594 0.0
H2094 H 0.63037 0.66455 0.28015 0.0
H2095 H 0.64779 0.64918 0.30219 0.0
H2096 H 0.66918 0.68302 0.31415 0.0
H2097 H 0.65177 0.69851 0.29222 0.0
H2098 H 0.67996 0.6989 0.28609 0.0
H2099 H 0.69342 0.6681 0.18487 0.0
H2100 H 0.66529 0.68928 0.16228 0.0
H2101 H 0.63296 0.69514 0.2424 0.0
C2102 C 0.69494 0.64577 0.2918 0.0
C2103 C 0.71399 0.63499 0.28531 0.0
C2104 C 0.72226 0.63611 0.25768 0.0
C2105 C 0.71166 0.64742 0.23667 0.0
C2106 C 0.69287 0.65772 0.24362 0.0
C2107 C 0.68463 0.65722 0.27051 0.0
C2108 C 0.66414 0.66981 0.27215 0.0
C2109 C 0.64549 0.65549 0.28061 0.0
C2110 C 0.66641 0.68868 0.29235 0.0
C2111 C 0.66212 0.67721 0.24194 0.0
C2112 C 0.67886 0.66993 0.22588 0.0
C2113 C 0.6803 0.67406 0.19722 0.0
C2114 C 0.66422 0.68604 0.18458 0.0
C2115 C 0.64704 0.69391 0.20061 0.0
C2116 C 0.64603 0.68946 0.22969 0.0
H2117 H 0.32177 0.65061 0.19819 0.0
H2118 H 0.28646 0.61569 0.26124 0.0
H2119 H 0.30785 0.63241 0.29859 0.0
H2120 H 0.37277 0.6489 0.23245 0.0
H2121 H 0.37983 0.67554 0.22248 0.0
H2122 H 0.36231 0.66026 0.20058 0.0
H2123 H 0.33394 0.68996 0.20361 0.0
H2124 H 0.35142 0.70538 0.22537 0.0
H2125 H 0.32514 0.69901 0.23758 0.0
H2126 H 0.33339 0.65246 0.32895 0.0
H2127 H 0.35914 0.677 0.3506 0.0
H2128 H 0.37654 0.7002 0.26795 0.0
C2129 C 0.3186 0.64646 0.21986 0.0
C2130 C 0.30256 0.63181 0.2269 0.0
C2131 C 0.29868 0.62692 0.25546 0.0
C2132 C 0.3108 0.63624 0.27678 0.0
C2133 C 0.32657 0.65057 0.26917 0.0
C2134 C 0.33034 0.65586 0.24144 0.0
C2135 C 0.3476 0.67242 0.23903 0.0
C2136 C 0.36676 0.66375 0.22267 0.0
C2137 C 0.339 0.69291 0.22561 0.0
C2138 C 0.3529 0.67565 0.26973 0.0
C2139 C 0.34078 0.66269 0.28675 0.0
C2140 C 0.34293 0.66273 0.31586 0.0
C2141 C 0.35763 0.67665 0.32795 0.0
C2142 C 0.36975 0.69049 0.31094 0.0
C2143 C 0.36743 0.68981 0.28146 0.0
loop_
_geom_bond_atom_site_label_1
_geom_bond_atom_site_label_2
_geom_bond_distance
_geom_bond_site_symmetry_2
_ccdc_geom_bond_type
In0 O1 2.294 . S
In0 O2 2.326 . S
In0 O6 2.266 . S
In0 O7 2.326 . S
In0 O8 2.266 . S
In0 O9 2.326 . S
In0 O11 2.294 . S
In0 O12 2.326 . S
O1 In0 2.294 . S
O1 C10 1.240 . S
O2 In0 2.326 . S
O2 C10 1.252 . S
C3 O6 1.252 . S
C3 O7 1.260 . S
C4 O11 1.240 . S
C4 O12 1.252 . S
C5 O8 1.252 . S
C5 O9 1.260 . S
O6 In0 2.266 . S
O6 C3 1.252 . S
O7 In0 2.326 . S
O7 C3 1.260 . S
O8 In0 2.266 . S
O8 C5 1.252 . S
O9 In0 2.326 . S
O9 C5 1.260 . S
C10 O1 1.240 . S
C10 O2 1.252 . S
O11 In0 2.294 . S
O11 C4 1.240 . S
O12 In0 2.326 . S
O12 C4 1.252 . S
In13 O14 2.294 . S
In13 O15 2.326 . S
In13 O19 2.266 . S
In13 O20 2.326 . S
In13 O21 2.266 . S
In13 O22 2.326 . S
In13 O24 2.294 . S
In13 O25 2.326 . S
O14 In13 2.294 . S
O14 C23 1.240 . S
O15 In13 2.326 . S
O15 C23 1.252 . S
C16 O19 1.252 . S
C16 O20 1.260 . S
C17 O24 1.240 . S
C17 O25 1.252 . S
C18 O21 1.252 . S
C18 O22 1.260 . S
O19 In13 2.266 . S
O19 C16 1.252 . S
O20 In13 2.326 . S
O20 C16 1.260 . S
O21 In13 2.266 . S
O21 C18 1.252 . S
O22 In13 2.326 . S
O22 C18 1.260 . S
C23 O14 1.240 . S
C23 O15 1.252 . S
O24 In13 2.294 . S
O24 C17 1.240 . S
O25 In13 2.326 . S
O25 C17 1.252 . S
In26 O27 2.294 . S
In26 O28 2.326 . S
In26 O32 2.266 . S
In26 O33 2.326 . S
In26 O34 2.266 . S
In26 O35 2.326 . S
In26 O37 2.294 . S
In26 O38 2.326 . S
O27 In26 2.294 . S
O27 C36 1.240 . S
O28 In26 2.326 . S
O28 C36 1.252 . S
C29 O32 1.252 . S
C29 O33 1.260 . S
C30 O37 1.240 . S
C30 O38 1.252 . S
C31 O34 1.252 . S
C31 O35 1.260 . S
O32 In26 2.266 . S
O32 C29 1.252 . S
O33 In26 2.326 . S
O33 C29 1.260 . S
O34 In26 2.266 . S
O34 C31 1.252 . S
O35 In26 2.326 . S
O35 C31 1.260 . S
C36 O27 1.240 . S
C36 O28 1.252 . S
O37 In26 2.294 . S
O37 C30 1.240 . S
O38 In26 2.326 . S
O38 C30 1.252 . S
In39 O40 2.294 . S
In39 O41 2.326 . S
In39 O45 2.266 . S
In39 O46 2.326 . S
In39 O47 2.266 . S
In39 O48 2.326 . S
In39 O50 2.294 . S
In39 O51 2.326 . S
O40 In39 2.294 . S
O40 C49 1.240 . S
O41 In39 2.326 . S
O41 C49 1.252 . S
C42 O45 1.252 . S
C42 O46 1.260 . S
C43 O50 1.240 . S
C43 O51 1.252 . S
C44 O47 1.252 . S
C44 O48 1.260 . S
O45 In39 2.266 . S
O45 C42 1.252 . S
O46 In39 2.326 . S
O46 C42 1.260 . S
O47 In39 2.266 . S
O47 C44 1.252 . S
O48 In39 2.326 . S
O48 C44 1.260 . S
C49 O40 1.240 . S
C49 O41 1.252 . S
O50 In39 2.294 . S
O50 C43 1.240 . S
O51 In39 2.326 . S
O51 C43 1.252 . S
In52 O53 2.294 . S
In52 O54 2.326 . S
In52 O58 2.266 . S
In52 O59 2.326 . S
In52 O60 2.266 . S
In52 O61 2.326 . S
In52 O63 2.294 . S
In52 O64 2.326 . S
O53 In52 2.294 . S
O53 C62 1.240 . S
O54 In52 2.326 . S
O54 C62 1.252 . S
C55 O58 1.252 . S
C55 O59 1.260 . S
C56 O63 1.240 . S
C56 O64 1.252 . S
C57 O60 1.252 . S
C57 O61 1.260 . S
O58 In52 2.266 . S
O58 C55 1.252 . S
O59 In52 2.326 . S
O59 C55 1.260 . S
O60 In52 2.266 . S
O60 C57 1.252 . S
O61 In52 2.326 . S
O61 C57 1.260 . S
C62 O53 1.240 . S
C62 O54 1.252 . S
O63 In52 2.294 . S
O63 C56 1.240 . S
O64 In52 2.326 . S
O64 C56 1.252 . S
In65 O66 2.294 . S
In65 O67 2.326 . S
In65 O71 2.266 . S
In65 O72 2.326 . S
In65 O73 2.266 . S
In65 O74 2.326 . S
In65 O76 2.294 . S
In65 O77 2.326 . S
O66 In65 2.294 . S
O66 C75 1.240 . S
O67 In65 2.326 . S
O67 C75 1.252 . S
C68 O71 1.252 . S
C68 O72 1.260 . S
C69 O76 1.240 . S
C69 O77 1.252 . S
C70 O73 1.252 . S
C70 O74 1.260 . S
O71 In65 2.266 . S
O71 C68 1.252 . S
O72 In65 2.326 . S
O72 C68 1.260 . S
O73 In65 2.266 . S
O73 C70 1.252 . S
O74 In65 2.326 . S
O74 C70 1.260 . S
C75 O66 1.240 . S
C75 O67 1.252 . S
O76 In65 2.294 . S
O76 C69 1.240 . S
O77 In65 2.326 . S
O77 C69 1.252 . S
In78 O79 2.294 . S
In78 O80 2.326 . S
In78 O84 2.266 . S
In78 O85 2.326 . S
In78 O86 2.266 . S
In78 O87 2.326 . S
In78 O89 2.294 . S
In78 O90 2.326 . S
O79 In78 2.294 . S
O79 C88 1.240 . S
O80 In78 2.326 . S
O80 C88 1.252 . S
C81 O84 1.252 . S
C81 O85 1.260 . S
C82 O89 1.240 . S
C82 O90 1.252 . S
C83 O86 1.252 . S
C83 O87 1.260 . S
O84 In78 2.266 . S
O84 C81 1.252 . S
O85 In78 2.326 . S
O85 C81 1.260 . S
O86 In78 2.266 . S
O86 C83 1.252 . S
O87 In78 2.326 . S
O87 C83 1.260 . S
C88 O79 1.240 . S
C88 O80 1.252 . S
O89 In78 2.294 . S
O89 C82 1.240 . S
O90 In78 2.326 . S
O90 C82 1.252 . S
In91 O92 2.294 . S
In91 O93 2.326 . S
In91 O97 2.266 . S
In91 O98 2.326 . S
In91 O99 2.266 . S
In91 O100 2.326 . S
In91 O102 2.294 . S
In91 O103 2.326 . S
O92 In91 2.294 . S
O92 C101 1.240 . S
O93 In91 2.326 . S
O93 C101 1.252 . S
C94 O97 1.252 . S
C94 O98 1.260 . S
C95 O102 1.240 . S
C95 O103 1.252 . S
C96 O99 1.252 . S
C96 O100 1.260 . S
O97 In91 2.266 . S
O97 C94 1.252 . S
O98 In91 2.326 . S
O98 C94 1.260 . S
O99 In91 2.266 . S
O99 C96 1.252 . S
O100 In91 2.326 . S
O100 C96 1.260 . S
C101 O92 1.240 . S
C101 O93 1.252 . S
O102 In91 2.294 . S
O102 C95 1.240 . S
O103 In91 2.326 . S
O103 C95 1.252 . S
In104 O105 2.294 . S
In104 O106 2.326 . S
In104 O110 2.266 . S
In104 O111 2.326 . S
In104 O112 2.266 . S
In104 O113 2.326 . S
In104 O115 2.294 . S
In104 O116 2.326 . S
O105 In104 2.294 . S
O105 C114 1.240 . S
O106 In104 2.326 . S
O106 C114 1.252 . S
C107 O110 1.252 . S
C107 O111 1.260 . S
C108 O115 1.240 . S
C108 O116 1.252 . S
C109 O112 1.252 . S
C109 O113 1.260 . S
O110 In104 2.266 . S
O110 C107 1.252 . S
O111 In104 2.326 . S
O111 C107 1.260 . S
O112 In104 2.266 . S
O112 C109 1.252 . S
O113 In104 2.326 . S
O113 C109 1.260 . S
C114 O105 1.240 . S
C114 O106 1.252 . S
O115 In104 2.294 . S
O115 C108 1.240 . S
O116 In104 2.326 . S
O116 C108 1.252 . S
In117 O118 2.294 . S
In117 O119 2.326 . S
In117 O123 2.266 . S
In117 O124 2.326 . S
In117 O125 2.266 . S
In117 O126 2.326 . S
In117 O128 2.294 . S
In117 O129 2.326 . S
O118 In117 2.294 . S
O118 C127 1.240 . S
O119 In117 2.326 . S
O119 C127 1.252 . S
C120 O123 1.252 . S
C120 O124 1.260 . S
C121 O128 1.240 . S
C121 O129 1.252 . S
C122 O125 1.252 . S
C122 O126 1.260 . S
O123 In117 2.266 . S
O123 C120 1.252 . S
O124 In117 2.326 . S
O124 C120 1.260 . S
O125 In117 2.266 . S
O125 C122 1.252 . S
O126 In117 2.326 . S
O126 C122 1.260 . S
C127 O118 1.240 . S
C127 O119 1.252 . S
O128 In117 2.294 . S
O128 C121 1.240 . S
O129 In117 2.326 . S
O129 C121 1.252 . S
In130 O131 2.294 . S
In130 O132 2.326 . S
In130 O136 2.266 . S
In130 O137 2.326 . S
In130 O138 2.266 . S
In130 O139 2.326 . S
In130 O141 2.294 . S
In130 O142 2.326 . S
O131 In130 2.294 . S
O131 C140 1.240 . S
O132 In130 2.326 . S
O132 C140 1.252 . S
C133 O136 1.252 . S
C133 O137 1.260 . S
C134 O141 1.240 . S
C134 O142 1.252 . S
C135 O138 1.252 . S
C135 O139 1.260 . S
O136 In130 2.266 . S
O136 C133 1.252 . S
O137 In130 2.326 . S
O137 C133 1.260 . S
O138 In130 2.266 . S
O138 C135 1.252 . S
O139 In130 2.326 . S
O139 C135 1.260 . S
C140 O131 1.240 . S
C140 O132 1.252 . S
O141 In130 2.294 . S
O141 C134 1.240 . S
O142 In130 2.326 . S
O142 C134 1.252 . S
In143 O144 2.294 . S
In143 O145 2.326 . S
In143 O149 2.266 . S
In143 O150 2.326 . S
In143 O151 2.266 . S
In143 O152 2.326 . S
In143 O154 2.294 . S
In143 O155 2.326 . S
O144 In143 2.294 . S
O144 C153 1.240 . S
O145 In143 2.326 . S
O145 C153 1.252 . S
C146 O149 1.252 . S
C146 O150 1.260 . S
C147 O154 1.240 . S
C147 O155 1.252 . S
C148 O151 1.252 . S
C148 O152 1.260 . S
O149 In143 2.266 . S
O149 C146 1.252 . S
O150 In143 2.326 . S
O150 C146 1.260 . S
O151 In143 2.266 . S
O151 C148 1.252 . S
O152 In143 2.326 . S
O152 C148 1.260 . S
C153 O144 1.240 . S
C153 O145 1.252 . S
O154 In143 2.294 . S
O154 C147 1.240 . S
O155 In143 2.326 . S
O155 C147 1.252 . S
In156 O157 2.294 . S
In156 O158 2.326 . S
In156 O162 2.266 . S
In156 O163 2.326 . S
In156 O164 2.266 . S
In156 O165 2.326 . S
In156 O167 2.294 . S
In156 O168 2.326 . S
O157 In156 2.294 . S
O157 C166 1.240 . S
O158 In156 2.326 . S
O158 C166 1.252 . S
C159 O162 1.252 . S
C159 O163 1.260 . S
C160 O167 1.240 . S
C160 O168 1.252 . S
C161 O164 1.252 . S
C161 O165 1.260 . S
O162 In156 2.266 . S
O162 C159 1.252 . S
O163 In156 2.326 . S
O163 C159 1.260 . S
O164 In156 2.266 . S
O164 C161 1.252 . S
O165 In156 2.326 . S
O165 C161 1.260 . S
C166 O157 1.240 . S
C166 O158 1.252 . S
O167 In156 2.294 . S
O167 C160 1.240 . S
O168 In156 2.326 . S
O168 C160 1.252 . S
In169 O170 2.294 . S
In169 O171 2.326 . S
In169 O175 2.266 . S
In169 O176 2.326 . S
In169 O177 2.266 . S
In169 O178 2.326 . S
In169 O180 2.294 . S
In169 O181 2.326 . S
O170 In169 2.294 . S
O170 C179 1.240 . S
O171 In169 2.326 . S
O171 C179 1.252 . S
C172 O175 1.252 . S
C172 O176 1.260 . S
C173 O180 1.240 . S
C173 O181 1.252 . S
C174 O177 1.252 . S
C174 O178 1.260 . S
O175 In169 2.266 . S
O175 C172 1.252 . S
O176 In169 2.326 . S
O176 C172 1.260 . S
O177 In169 2.266 . S
O177 C174 1.252 . S
O178 In169 2.326 . S
O178 C174 1.260 . S
C179 O170 1.240 . S
C179 O171 1.252 . S
O180 In169 2.294 . S
O180 C173 1.240 . S
O181 In169 2.326 . S
O181 C173 1.252 . S
In182 O183 2.294 . S
In182 O184 2.326 . S
In182 O188 2.266 . S
In182 O189 2.326 . S
In182 O190 2.266 . S
In182 O191 2.326 . S
In182 O193 2.294 . S
In182 O194 2.326 . S
O183 In182 2.294 . S
O183 C192 1.240 . S
O184 In182 2.326 . S
O184 C192 1.252 . S
C185 O188 1.252 . S
C185 O189 1.260 . S
C186 O193 1.240 . S
C186 O194 1.252 . S
C187 O190 1.252 . S
C187 O191 1.260 . S
O188 In182 2.266 . S
O188 C185 1.252 . S
O189 In182 2.326 . S
O189 C185 1.260 . S
O190 In182 2.266 . S
O190 C187 1.252 . S
O191 In182 2.326 . S
O191 C187 1.260 . S
C192 O183 1.240 . S
C192 O184 1.252 . S
O193 In182 2.294 . S
O193 C186 1.240 . S
O194 In182 2.326 . S
O194 C186 1.252 . S
In195 O196 2.294 . S
In195 O197 2.326 . S
In195 O201 2.266 . S
In195 O202 2.326 . S
In195 O203 2.266 . S
In195 O204 2.326 . S
In195 O206 2.294 . S
In195 O207 2.326 . S
O196 In195 2.294 . S
O196 C205 1.240 . S
O197 In195 2.326 . S
O197 C205 1.252 . S
C198 O201 1.252 . S
C198 O202 1.260 . S
C199 O206 1.240 . S
C199 O207 1.252 . S
C200 O203 1.252 . S
C200 O204 1.260 . S
O201 In195 2.266 . S
O201 C198 1.252 . S
O202 In195 2.326 . S
O202 C198 1.260 . S
O203 In195 2.266 . S
O203 C200 1.252 . S
O204 In195 2.326 . S
O204 C200 1.260 . S
C205 O196 1.240 . S
C205 O197 1.252 . S
O206 In195 2.294 . S
O206 C199 1.240 . S
O207 In195 2.326 . S
O207 C199 1.252 . S
In208 O209 2.294 . S
In208 O210 2.326 . S
In208 O214 2.266 . S
In208 O215 2.326 . S
In208 O216 2.266 . S
In208 O217 2.326 . S
In208 O219 2.294 . S
In208 O220 2.326 . S
O209 In208 2.294 . S
O209 C218 1.240 . S
O210 In208 2.326 . S
O210 C218 1.252 . S
C211 O214 1.252 . S
C211 O215 1.260 . S
C212 O219 1.240 . S
C212 O220 1.252 . S
C213 O216 1.252 . S
C213 O217 1.260 . S
O214 In208 2.266 . S
O214 C211 1.252 . S
O215 In208 2.326 . S
O215 C211 1.260 . S
O216 In208 2.266 . S
O216 C213 1.252 . S
O217 In208 2.326 . S
O217 C213 1.260 . S
C218 O209 1.240 . S
C218 O210 1.252 . S
O219 In208 2.294 . S
O219 C212 1.240 . S
O220 In208 2.326 . S
O220 C212 1.252 . S
In221 O222 2.294 . S
In221 O223 2.326 . S
In221 O227 2.266 . S
In221 O228 2.326 . S
In221 O229 2.266 . S
In221 O230 2.326 . S
In221 O232 2.294 . S
In221 O233 2.326 . S
O222 In221 2.294 . S
O222 C231 1.240 . S
O223 In221 2.326 . S
O223 C231 1.252 . S
C224 O227 1.252 . S
C224 O228 1.260 . S
C225 O232 1.240 . S
C225 O233 1.252 . S
C226 O229 1.252 . S
C226 O230 1.260 . S
O227 In221 2.266 . S
O227 C224 1.252 . S
O228 In221 2.326 . S
O228 C224 1.260 . S
O229 In221 2.266 . S
O229 C226 1.252 . S
O230 In221 2.326 . S
O230 C226 1.260 . S
C231 O222 1.240 . S
C231 O223 1.252 . S
O232 In221 2.294 . S
O232 C225 1.240 . S
O233 In221 2.326 . S
O233 C225 1.252 . S
In234 O235 2.294 . S
In234 O236 2.326 . S
In234 O240 2.266 . S
In234 O241 2.326 . S
In234 O242 2.266 . S
In234 O243 2.326 . S
In234 O245 2.294 . S
In234 O246 2.326 . S
O235 In234 2.294 . S
O235 C244 1.240 . S
O236 In234 2.326 . S
O236 C244 1.252 . S
C237 O240 1.252 . S
C237 O241 1.260 . S
C238 O245 1.240 . S
C238 O246 1.252 . S
C239 O242 1.252 . S
C239 O243 1.260 . S
O240 In234 2.266 . S
O240 C237 1.252 . S
O241 In234 2.326 . S
O241 C237 1.260 . S
O242 In234 2.266 . S
O242 C239 1.252 . S
O243 In234 2.326 . S
O243 C239 1.260 . S
C244 O235 1.240 . S
C244 O236 1.252 . S
O245 In234 2.294 . S
O245 C238 1.240 . S
O246 In234 2.326 . S
O246 C238 1.252 . S
In247 O248 2.294 . S
In247 O249 2.326 . S
In247 O253 2.266 . S
In247 O254 2.326 . S
In247 O255 2.266 . S
In247 O256 2.326 . S
In247 O258 2.294 . S
In247 O259 2.326 . S
O248 In247 2.294 . S
O248 C257 1.240 . S
O249 In247 2.326 . S
O249 C257 1.252 . S
C250 O253 1.252 . S
C250 O254 1.260 . S
C251 O258 1.240 . S
C251 O259 1.252 . S
C252 O255 1.252 . S
C252 O256 1.260 . S
O253 In247 2.266 . S
O253 C250 1.252 . S
O254 In247 2.326 . S
O254 C250 1.260 . S
O255 In247 2.266 . S
O255 C252 1.252 . S
O256 In247 2.326 . S
O256 C252 1.260 . S
C257 O248 1.240 . S
C257 O249 1.252 . S
O258 In247 2.294 . S
O258 C251 1.240 . S
O259 In247 2.326 . S
O259 C251 1.252 . S
In260 O261 2.294 . S
In260 O262 2.326 . S
In260 O266 2.266 . S
In260 O267 2.326 . S
In260 O268 2.266 . S
In260 O269 2.326 . S
In260 O271 2.294 . S
In260 O272 2.326 . S
O261 In260 2.294 . S
O261 C270 1.240 . S
O262 In260 2.326 . S
O262 C270 1.252 . S
C263 O266 1.252 . S
C263 O267 1.260 . S
C264 O271 1.240 . S
C264 O272 1.252 . S
C265 O268 1.252 . S
C265 O269 1.260 . S
O266 In260 2.266 . S
O266 C263 1.252 . S
O267 In260 2.326 . S
O267 C263 1.260 . S
O268 In260 2.266 . S
O268 C265 1.252 . S
O269 In260 2.326 . S
O269 C265 1.260 . S
C270 O261 1.240 . S
C270 O262 1.252 . S
O271 In260 2.294 . S
O271 C264 1.240 . S
O272 In260 2.326 . S
O272 C264 1.252 . S
In273 O274 2.294 . S
In273 O275 2.326 . S
In273 O279 2.266 . S
In273 O280 2.326 . S
In273 O281 2.266 . S
In273 O282 2.326 . S
In273 O284 2.294 . S
In273 O285 2.326 . S
O274 In273 2.294 . S
O274 C283 1.240 . S
O275 In273 2.326 . S
O275 C283 1.252 . S
C276 O279 1.252 . S
C276 O280 1.260 . S
C277 O284 1.240 . S
C277 O285 1.252 . S
C278 O281 1.252 . S
C278 O282 1.260 . S
O279 In273 2.266 . S
O279 C276 1.252 . S
O280 In273 2.326 . S
O280 C276 1.260 . S
O281 In273 2.266 . S
O281 C278 1.252 . S
O282 In273 2.326 . S
O282 C278 1.260 . S
C283 O274 1.240 . S
C283 O275 1.252 . S
O284 In273 2.294 . S
O284 C277 1.240 . S
O285 In273 2.326 . S
O285 C277 1.252 . S
In286 O287 2.294 . S
In286 O288 2.326 . S
In286 O292 2.266 . S
In286 O293 2.326 . S
In286 O294 2.266 . S
In286 O295 2.326 . S
In286 O297 2.294 . S
In286 O298 2.326 . S
O287 In286 2.294 . S
O287 C296 1.240 . S
O288 In286 2.326 . S
O288 C296 1.252 . S
C289 O292 1.252 . S
C289 O293 1.260 . S
C290 O297 1.240 . S
C290 O298 1.252 . S
C291 O294 1.252 . S
C291 O295 1.260 . S
O292 In286 2.266 . S
O292 C289 1.252 . S
O293 In286 2.326 . S
O293 C289 1.260 . S
O294 In286 2.266 . S
O294 C291 1.252 . S
O295 In286 2.326 . S
O295 C291 1.260 . S
C296 O287 1.240 . S
C296 O288 1.252 . S
O297 In286 2.294 . S
O297 C290 1.240 . S
O298 In286 2.326 . S
O298 C290 1.252 . S
In299 O300 2.294 . S
In299 O301 2.326 . S
In299 O305 2.266 . S
In299 O306 2.326 . S
In299 O307 2.266 . S
In299 O308 2.326 . S
In299 O310 2.294 . S
In299 O311 2.326 . S
O300 In299 2.294 . S
O300 C309 1.240 . S
O301 In299 2.326 . S
O301 C309 1.252 . S
C302 O305 1.252 . S
C302 O306 1.260 . S
C303 O310 1.240 . S
C303 O311 1.252 . S
C304 O307 1.252 . S
C304 O308 1.260 . S
O305 In299 2.266 . S
O305 C302 1.252 . S
O306 In299 2.326 . S
O306 C302 1.260 . S
O307 In299 2.266 . S
O307 C304 1.252 . S
O308 In299 2.326 . S
O308 C304 1.260 . S
C309 O300 1.240 . S
C309 O301 1.252 . S
O310 In299 2.294 . S
O310 C303 1.240 . S
O311 In299 2.326 . S
O311 C303 1.252 . S
In312 O313 2.294 . S
In312 O314 2.326 . S
In312 O318 2.266 . S
In312 O319 2.326 . S
In312 O320 2.266 . S
In312 O321 2.326 . S
In312 O323 2.294 . S
In312 O324 2.326 . S
O313 In312 2.294 . S
O313 C322 1.240 . S
O314 In312 2.326 . S
O314 C322 1.252 . S
C315 O318 1.252 . S
C315 O319 1.260 . S
C316 O323 1.240 . S
C316 O324 1.252 . S
C317 O320 1.252 . S
C317 O321 1.260 . S
O318 In312 2.266 . S
O318 C315 1.252 . S
O319 In312 2.326 . S
O319 C315 1.260 . S
O320 In312 2.266 . S
O320 C317 1.252 . S
O321 In312 2.326 . S
O321 C317 1.260 . S
C322 O313 1.240 . S
C322 O314 1.252 . S
O323 In312 2.294 . S
O323 C316 1.240 . S
O324 In312 2.326 . S
O324 C316 1.252 . S
In325 O326 2.294 . S
In325 O327 2.326 . S
In325 O331 2.266 . S
In325 O332 2.326 . S
In325 O333 2.266 . S
In325 O334 2.326 . S
In325 O336 2.294 . S
In325 O337 2.326 . S
O326 In325 2.294 . S
O326 C335 1.240 . S
O327 In325 2.326 . S
O327 C335 1.252 . S
C328 O331 1.252 . S
C328 O332 1.260 . S
C329 O336 1.240 . S
C329 O337 1.252 . S
C330 O333 1.252 . S
C330 O334 1.260 . S
O331 In325 2.266 . S
O331 C328 1.252 . S
O332 In325 2.326 . S
O332 C328 1.260 . S
O333 In325 2.266 . S
O333 C330 1.252 . S
O334 In325 2.326 . S
O334 C330 1.260 . S
C335 O326 1.240 . S
C335 O327 1.252 . S
O336 In325 2.294 . S
O336 C329 1.240 . S
O337 In325 2.326 . S
O337 C329 1.252 . S
In338 O339 2.294 . S
In338 O340 2.326 . S
In338 O344 2.266 . S
In338 O345 2.326 . S
In338 O346 2.266 . S
In338 O347 2.326 . S
In338 O349 2.294 . S
In338 O350 2.326 . S
O339 In338 2.294 . S
O339 C348 1.240 . S
O340 In338 2.326 . S
O340 C348 1.252 . S
C341 O344 1.252 . S
C341 O345 1.260 . S
C342 O349 1.240 . S
C342 O350 1.252 . S
C343 O346 1.252 . S
C343 O347 1.260 . S
O344 In338 2.266 . S
O344 C341 1.252 . S
O345 In338 2.326 . S
O345 C341 1.260 . S
O346 In338 2.266 . S
O346 C343 1.252 . S
O347 In338 2.326 . S
O347 C343 1.260 . S
C348 O339 1.240 . S
C348 O340 1.252 . S
O349 In338 2.294 . S
O349 C342 1.240 . S
O350 In338 2.326 . S
O350 C342 1.252 . S
In351 O352 2.294 . S
In351 O353 2.326 . S
In351 O357 2.266 . S
In351 O358 2.326 . S
In351 O359 2.266 . S
In351 O360 2.326 . S
In351 O362 2.294 . S
In351 O363 2.326 . S
O352 In351 2.294 . S
O352 C361 1.240 . S
O353 In351 2.326 . S
O353 C361 1.252 . S
C354 O357 1.252 . S
C354 O358 1.260 . S
C355 O362 1.240 . S
C355 O363 1.252 . S
C356 O359 1.252 . S
C356 O360 1.260 . S
O357 In351 2.266 . S
O357 C354 1.252 . S
O358 In351 2.326 . S
O358 C354 1.260 . S
O359 In351 2.266 . S
O359 C356 1.252 . S
O360 In351 2.326 . S
O360 C356 1.260 . S
C361 O352 1.240 . S
C361 O353 1.252 . S
O362 In351 2.294 . S
O362 C355 1.240 . S
O363 In351 2.326 . S
O363 C355 1.252 . S
In364 O365 2.294 . S
In364 O366 2.326 . S
In364 O370 2.266 . S
In364 O371 2.326 . S
In364 O372 2.266 . S
In364 O373 2.326 . S
In364 O375 2.294 . S
In364 O376 2.326 . S
O365 In364 2.294 . S
O365 C374 1.240 . S
O366 In364 2.326 . S
O366 C374 1.252 . S
C367 O370 1.252 . S
C367 O371 1.260 . S
C368 O375 1.240 . S
C368 O376 1.252 . S
C369 O372 1.252 . S
C369 O373 1.260 . S
O370 In364 2.266 . S
O370 C367 1.252 . S
O371 In364 2.326 . S
O371 C367 1.260 . S
O372 In364 2.266 . S
O372 C369 1.252 . S
O373 In364 2.326 . S
O373 C369 1.260 . S
C374 O365 1.240 . S
C374 O366 1.252 . S
O375 In364 2.294 . S
O375 C368 1.240 . S
O376 In364 2.326 . S
O376 C368 1.252 . S
In377 O378 2.294 . S
In377 O379 2.326 . S
In377 O383 2.266 . S
In377 O384 2.326 . S
In377 O385 2.266 . S
In377 O386 2.326 . S
In377 O388 2.294 . S
In377 O389 2.326 . S
O378 In377 2.294 . S
O378 C387 1.240 . S
O379 In377 2.326 . S
O379 C387 1.252 . S
C380 O383 1.252 . S
C380 O384 1.260 . S
C381 O388 1.240 . S
C381 O389 1.252 . S
C382 O385 1.252 . S
C382 O386 1.260 . S
O383 In377 2.266 . S
O383 C380 1.252 . S
O384 In377 2.326 . S
O384 C380 1.260 . S
O385 In377 2.266 . S
O385 C382 1.252 . S
O386 In377 2.326 . S
O386 C382 1.260 . S
C387 O378 1.240 . S
C387 O379 1.252 . S
O388 In377 2.294 . S
O388 C381 1.240 . S
O389 In377 2.326 . S
O389 C381 1.252 . S
In390 O391 2.294 . S
In390 O392 2.326 . S
In390 O396 2.266 . S
In390 O397 2.326 . S
In390 O398 2.266 . S
In390 O399 2.326 . S
In390 O401 2.294 . S
In390 O402 2.326 . S
O391 In390 2.294 . S
O391 C400 1.240 . S
O392 In390 2.326 . S
O392 C400 1.252 . S
C393 O396 1.252 . S
C393 O397 1.260 . S
C394 O401 1.240 . S
C394 O402 1.252 . S
C395 O398 1.252 . S
C395 O399 1.260 . S
O396 In390 2.266 . S
O396 C393 1.252 . S
O397 In390 2.326 . S
O397 C393 1.260 . S
O398 In390 2.266 . S
O398 C395 1.252 . S
O399 In390 2.326 . S
O399 C395 1.260 . S
C400 O391 1.240 . S
C400 O392 1.252 . S
O401 In390 2.294 . S
O401 C394 1.240 . S
O402 In390 2.326 . S
O402 C394 1.252 . S
In403 O404 2.294 . S
In403 O405 2.326 . S
In403 O409 2.266 . S
In403 O410 2.326 . S
In403 O411 2.266 . S
In403 O412 2.326 . S
In403 O414 2.294 . S
In403 O415 2.326 . S
O404 In403 2.294 . S
O404 C413 1.240 . S
O405 In403 2.326 . S
O405 C413 1.252 . S
C406 O409 1.252 . S
C406 O410 1.260 . S
C407 O414 1.240 . S
C407 O415 1.252 . S
C408 O411 1.252 . S
C408 O412 1.260 . S
O409 In403 2.266 . S
O409 C406 1.252 . S
O410 In403 2.326 . S
O410 C406 1.260 . S
O411 In403 2.266 . S
O411 C408 1.252 . S
O412 In403 2.326 . S
O412 C408 1.260 . S
C413 O404 1.240 . S
C413 O405 1.252 . S
O414 In403 2.294 . S
O414 C407 1.240 . S
O415 In403 2.326 . S
O415 C407 1.252 . S
H416 C428 0.930 . S
H417 C430 0.930 . S
H418 C431 0.930 . S
H419 C435 0.959 . S
H420 C435 0.959 . S
H421 C435 0.961 . S
H422 C436 0.960 . S
H423 C436 0.961 . S
H424 C436 0.959 . S
H425 C439 0.929 . S
H426 C440 0.931 . S
H427 C442 0.930 . S
C428 H416 0.930 . S
C428 C429 1.399 . S
C428 C433 1.399 . S
C429 C428 1.399 . S
C429 C430 1.376 . S
C430 H417 0.930 . S
C430 C429 1.376 . S
C430 C431 1.388 . S
C431 H418 0.930 . S
C431 C430 1.388 . S
C431 C432 1.390 . S
C432 C431 1.390 . S
C432 C433 1.394 . S
C432 C438 1.465 . S
C433 C428 1.399 . S
C433 C432 1.394 . S
C433 C434 1.516 . S
C434 C433 1.516 . S
C434 C435 1.502 . S
C434 C436 1.561 . S
C434 C437 1.526 . S
C435 H419 0.959 . S
C435 H420 0.959 . S
C435 H421 0.961 . S
C435 C434 1.502 . S
C436 H422 0.960 . S
C436 H423 0.961 . S
C436 H424 0.959 . S
C436 C434 1.561 . S
C437 C434 1.526 . S
C437 C438 1.396 . S
C437 C442 1.390 . S
C438 C432 1.465 . S
C438 C437 1.396 . S
C438 C439 1.399 . S
C439 H425 0.929 . S
C439 C438 1.399 . S
C439 C440 1.385 . S
C440 H426 0.931 . S
C440 C439 1.385 . S
C440 C441 1.389 . S
C441 C440 1.389 . S
C441 C442 1.387 . S
C442 H427 0.930 . S
C442 C437 1.390 . S
C442 C441 1.387 . S
H443 C455 0.930 . S
H444 C457 0.930 . S
H445 C458 0.930 . S
H446 C462 0.959 . S
H447 C462 0.959 . S
H448 C462 0.961 . S
H449 C463 0.960 . S
H450 C463 0.961 . S
H451 C463 0.959 . S
H452 C466 0.929 . S
H453 C467 0.931 . S
H454 C469 0.930 . S
C455 H443 0.930 . S
C455 C456 1.399 . S
C455 C460 1.399 . S
C456 C455 1.399 . S
C456 C457 1.376 . S
C457 H444 0.930 . S
C457 C456 1.376 . S
C457 C458 1.388 . S
C458 H445 0.930 . S
C458 C457 1.388 . S
C458 C459 1.390 . S
C459 C458 1.390 . S
C459 C460 1.394 . S
C459 C465 1.465 . S
C460 C455 1.399 . S
C460 C459 1.394 . S
C460 C461 1.516 . S
C461 C460 1.516 . S
C461 C462 1.502 . S
C461 C463 1.561 . S
C461 C464 1.526 . S
C462 H446 0.959 . S
C462 H447 0.959 . S
C462 H448 0.961 . S
C462 C461 1.502 . S
C463 H449 0.960 . S
C463 H450 0.961 . S
C463 H451 0.959 . S
C463 C461 1.561 . S
C464 C461 1.526 . S
C464 C465 1.396 . S
C464 C469 1.390 . S
C465 C459 1.465 . S
C465 C464 1.396 . S
C465 C466 1.399 . S
C466 H452 0.929 . S
C466 C465 1.399 . S
C466 C467 1.385 . S
C467 H453 0.931 . S
C467 C466 1.385 . S
C467 C468 1.389 . S
C468 C467 1.389 . S
C468 C469 1.387 . S
C469 H454 0.930 . S
C469 C464 1.390 . S
C469 C468 1.387 . S
H470 C482 0.930 . S
H471 C484 0.930 . S
H472 C485 0.930 . S
H473 C489 0.959 . S
H474 C489 0.959 . S
H475 C489 0.961 . S
H476 C490 0.960 . S
H477 C490 0.961 . S
H478 C490 0.959 . S
H479 C493 0.929 . S
H480 C494 0.931 . S
H481 C496 0.930 . S
C482 H470 0.930 . S
C482 C483 1.399 . S
C482 C487 1.399 . S
C483 C482 1.399 . S
C483 C484 1.376 . S
C484 H471 0.930 . S
C484 C483 1.376 . S
C484 C485 1.388 . S
C485 H472 0.930 . S
C485 C484 1.388 . S
C485 C486 1.390 . S
C486 C485 1.390 . S
C486 C487 1.394 . S
C486 C492 1.465 . S
C487 C482 1.399 . S
C487 C486 1.394 . S
C487 C488 1.516 . S
C488 C487 1.516 . S
C488 C489 1.502 . S
C488 C490 1.561 . S
C488 C491 1.526 . S
C489 H473 0.959 . S
C489 H474 0.959 . S
C489 H475 0.961 . S
C489 C488 1.502 . S
C490 H476 0.960 . S
C490 H477 0.961 . S
C490 H478 0.959 . S
C490 C488 1.561 . S
C491 C488 1.526 . S
C491 C492 1.396 . S
C491 C496 1.390 . S
C492 C486 1.465 . S
C492 C491 1.396 . S
C492 C493 1.399 . S
C493 H479 0.929 . S
C493 C492 1.399 . S
C493 C494 1.385 . S
C494 H480 0.931 . S
C494 C493 1.385 . S
C494 C495 1.389 . S
C495 C494 1.389 . S
C495 C496 1.387 . S
C496 H481 0.930 . S
C496 C491 1.390 . S
C496 C495 1.387 . S
H497 C509 0.930 . S
H498 C511 0.930 . S
H499 C512 0.930 . S
H500 C516 0.959 . S
H501 C516 0.959 . S
H502 C516 0.961 . S
H503 C517 0.960 . S
H504 C517 0.961 . S
H505 C517 0.959 . S
H506 C520 0.929 . S
H507 C521 0.931 . S
H508 C523 0.930 . S
C509 H497 0.930 . S
C509 C510 1.399 . S
C509 C514 1.399 . S
C510 C509 1.399 . S
C510 C511 1.376 . S
C511 H498 0.930 . S
C511 C510 1.376 . S
C511 C512 1.388 . S
C512 H499 0.930 . S
C512 C511 1.388 . S
C512 C513 1.390 . S
C513 C512 1.390 . S
C513 C514 1.394 . S
C513 C519 1.465 . S
C514 C509 1.399 . S
C514 C513 1.394 . S
C514 C515 1.516 . S
C515 C514 1.516 . S
C515 C516 1.502 . S
C515 C517 1.561 . S
C515 C518 1.526 . S
C516 H500 0.959 . S
C516 H501 0.959 . S
C516 H502 0.961 . S
C516 C515 1.502 . S
C517 H503 0.960 . S
C517 H504 0.961 . S
C517 H505 0.959 . S
C517 C515 1.561 . S
C518 C515 1.526 . S
C518 C519 1.396 . S
C518 C523 1.390 . S
C519 C513 1.465 . S
C519 C518 1.396 . S
C519 C520 1.399 . S
C520 H506 0.929 . S
C520 C519 1.399 . S
C520 C521 1.385 . S
C521 H507 0.931 . S
C521 C520 1.385 . S
C521 C522 1.389 . S
C522 C521 1.389 . S
C522 C523 1.387 . S
C523 H508 0.930 . S
C523 C518 1.390 . S
C523 C522 1.387 . S
H524 C536 0.930 . S
H525 C538 0.930 . S
H526 C539 0.930 . S
H527 C543 0.959 . S
H528 C543 0.959 . S
H529 C543 0.961 . S
H530 C544 0.960 . S
H531 C544 0.961 . S
H532 C544 0.959 . S
H533 C547 0.929 . S
H534 C548 0.931 . S
H535 C550 0.930 . S
C536 H524 0.930 . S
C536 C537 1.399 . S
C536 C541 1.399 . S
C537 C536 1.399 . S
C537 C538 1.376 . S
C538 H525 0.930 . S
C538 C537 1.376 . S
C538 C539 1.388 . S
C539 H526 0.930 . S
C539 C538 1.388 . S
C539 C540 1.390 . S
C540 C539 1.390 . S
C540 C541 1.394 . S
C540 C546 1.465 . S
C541 C536 1.399 . S
C541 C540 1.394 . S
C541 C542 1.516 . S
C542 C541 1.516 . S
C542 C543 1.502 . S
C542 C544 1.561 . S
C542 C545 1.526 . S
C543 H527 0.959 . S
C543 H528 0.959 . S
C543 H529 0.961 . S
C543 C542 1.502 . S
C544 H530 0.960 . S
C544 H531 0.961 . S
C544 H532 0.959 . S
C544 C542 1.561 . S
C545 C542 1.526 . S
C545 C546 1.396 . S
C545 C550 1.390 . S
C546 C540 1.465 . S
C546 C545 1.396 . S
C546 C547 1.399 . S
C547 H533 0.929 . S
C547 C546 1.399 . S
C547 C548 1.385 . S
C548 H534 0.931 . S
C548 C547 1.385 . S
C548 C549 1.389 . S
C549 C548 1.389 . S
C549 C550 1.387 . S
C550 H535 0.930 . S
C550 C545 1.390 . S
C550 C549 1.387 . S
H551 C563 0.930 . S
H552 C565 0.930 . S
H553 C566 0.930 . S
H554 C570 0.959 . S
H555 C570 0.959 . S
H556 C570 0.961 . S
H557 C571 0.960 . S
H558 C571 0.961 . S
H559 C571 0.959 . S
H560 C574 0.929 . S
H561 C575 0.931 . S
H562 C577 0.930 . S
C563 H551 0.930 . S
C563 C564 1.399 . S
C563 C568 1.399 . S
C564 C563 1.399 . S
C564 C565 1.376 . S
C565 H552 0.930 . S
C565 C564 1.376 . S
C565 C566 1.388 . S
C566 H553 0.930 . S
C566 C565 1.388 . S
C566 C567 1.390 . S
C567 C566 1.390 . S
C567 C568 1.394 . S
C567 C573 1.465 . S
C568 C563 1.399 . S
C568 C567 1.394 . S
C568 C569 1.516 . S
C569 C568 1.516 . S
C569 C570 1.502 . S
C569 C571 1.561 . S
C569 C572 1.526 . S
C570 H554 0.959 . S
C570 H555 0.959 . S
C570 H556 0.961 . S
C570 C569 1.502 . S
C571 H557 0.960 . S
C571 H558 0.961 . S
C571 H559 0.959 . S
C571 C569 1.561 . S
C572 C569 1.526 . S
C572 C573 1.396 . S
C572 C577 1.390 . S
C573 C567 1.465 . S
C573 C572 1.396 . S
C573 C574 1.399 . S
C574 H560 0.929 . S
C574 C573 1.399 . S
C574 C575 1.385 . S
C575 H561 0.931 . S
C575 C574 1.385 . S
C575 C576 1.389 . S
C576 C575 1.389 . S
C576 C577 1.387 . S
C577 H562 0.930 . S
C577 C572 1.390 . S
C577 C576 1.387 . S
H578 C590 0.930 . S
H579 C592 0.930 . S
H580 C593 0.930 . S
H581 C597 0.959 . S
H582 C597 0.959 . S
H583 C597 0.961 . S
H584 C598 0.960 . S
H585 C598 0.961 . S
H586 C598 0.959 . S
H587 C601 0.929 . S
H588 C602 0.931 . S
H589 C604 0.930 . S
C590 H578 0.930 . S
C590 C591 1.399 . S
C590 C595 1.399 . S
C591 C590 1.399 . S
C591 C592 1.376 . S
C592 H579 0.930 . S
C592 C591 1.376 . S
C592 C593 1.388 . S
C593 H580 0.930 . S
C593 C592 1.388 . S
C593 C594 1.390 . S
C594 C593 1.390 . S
C594 C595 1.394 . S
C594 C600 1.465 . S
C595 C590 1.399 . S
C595 C594 1.394 . S
C595 C596 1.516 . S
C596 C595 1.516 . S
C596 C597 1.502 . S
C596 C598 1.561 . S
C596 C599 1.526 . S
C597 H581 0.959 . S
C597 H582 0.959 . S
C597 H583 0.961 . S
C597 C596 1.502 . S
C598 H584 0.960 . S
C598 H585 0.961 . S
C598 H586 0.959 . S
C598 C596 1.561 . S
C599 C596 1.526 . S
C599 C600 1.396 . S
C599 C604 1.390 . S
C600 C594 1.465 . S
C600 C599 1.396 . S
C600 C601 1.399 . S
C601 H587 0.929 . S
C601 C600 1.399 . S
C601 C602 1.385 . S
C602 H588 0.931 . S
C602 C601 1.385 . S
C602 C603 1.389 . S
C603 C602 1.389 . S
C603 C604 1.387 . S
C604 H589 0.930 . S
C604 C599 1.390 . S
C604 C603 1.387 . S
H605 C617 0.930 . S
H606 C619 0.930 . S
H607 C620 0.930 . S
H608 C624 0.959 . S
H609 C624 0.959 . S
H610 C624 0.961 . S
H611 C625 0.960 . S
H612 C625 0.961 . S
H613 C625 0.959 . S
H614 C628 0.929 . S
H615 C629 0.931 . S
H616 C631 0.930 . S
C617 H605 0.930 . S
C617 C618 1.399 . S
C617 C622 1.399 . S
C618 C617 1.399 . S
C618 C619 1.376 . S
C619 H606 0.930 . S
C619 C618 1.376 . S
C619 C620 1.388 . S
C620 H607 0.930 . S
C620 C619 1.388 . S
C620 C621 1.390 . S
C621 C620 1.390 . S
C621 C622 1.394 . S
C621 C627 1.465 . S
C622 C617 1.399 . S
C622 C621 1.394 . S
C622 C623 1.516 . S
C623 C622 1.516 . S
C623 C624 1.502 . S
C623 C625 1.561 . S
C623 C626 1.526 . S
C624 H608 0.959 . S
C624 H609 0.959 . S
C624 H610 0.961 . S
C624 C623 1.502 . S
C625 H611 0.960 . S
C625 H612 0.961 . S
C625 H613 0.959 . S
C625 C623 1.561 . S
C626 C623 1.526 . S
C626 C627 1.396 . S
C626 C631 1.390 . S
C627 C621 1.465 . S
C627 C626 1.396 . S
C627 C628 1.399 . S
C628 H614 0.929 . S
C628 C627 1.399 . S
C628 C629 1.385 . S
C629 H615 0.931 . S
C629 C628 1.385 . S
C629 C630 1.389 . S
C630 C629 1.389 . S
C630 C631 1.387 . S
C631 H616 0.930 . S
C631 C626 1.390 . S
C631 C630 1.387 . S
H632 C644 0.930 . S
H633 C646 0.930 . S
H634 C647 0.930 . S
H635 C651 0.959 . S
H636 C651 0.959 . S
H637 C651 0.961 . S
H638 C652 0.960 . S
H639 C652 0.961 . S
H640 C652 0.959 . S
H641 C655 0.929 . S
H642 C656 0.931 . S
H643 C658 0.930 . S
C644 H632 0.930 . S
C644 C645 1.399 . S
C644 C649 1.399 . S
C645 C644 1.399 . S
C645 C646 1.376 . S
C646 H633 0.930 . S
C646 C645 1.376 . S
C646 C647 1.388 . S
C647 H634 0.930 . S
C647 C646 1.388 . S
C647 C648 1.390 . S
C648 C647 1.390 . S
C648 C649 1.394 . S
C648 C654 1.465 . S
C649 C644 1.399 . S
C649 C648 1.394 . S
C649 C650 1.516 . S
C650 C649 1.516 . S
C650 C651 1.502 . S
C650 C652 1.561 . S
C650 C653 1.526 . S
C651 H635 0.959 . S
C651 H636 0.959 . S
C651 H637 0.961 . S
C651 C650 1.502 . S
C652 H638 0.960 . S
C652 H639 0.961 . S
C652 H640 0.959 . S
C652 C650 1.561 . S
C653 C650 1.526 . S
C653 C654 1.396 . S
C653 C658 1.390 . S
C654 C648 1.465 . S
C654 C653 1.396 . S
C654 C655 1.399 . S
C655 H641 0.929 . S
C655 C654 1.399 . S
C655 C656 1.385 . S
C656 H642 0.931 . S
C656 C655 1.385 . S
C656 C657 1.389 . S
C657 C656 1.389 . S
C657 C658 1.387 . S
C658 H643 0.930 . S
C658 C653 1.390 . S
C658 C657 1.387 . S
H659 C671 0.930 . S
H660 C673 0.930 . S
H661 C674 0.930 . S
H662 C678 0.959 . S
H663 C678 0.959 . S
H664 C678 0.961 . S
H665 C679 0.960 . S
H666 C679 0.961 . S
H667 C679 0.959 . S
H668 C682 0.929 . S
H669 C683 0.931 . S
H670 C685 0.930 . S
C671 H659 0.930 . S
C671 C672 1.399 . S
C671 C676 1.399 . S
C672 C671 1.399 . S
C672 C673 1.376 . S
C673 H660 0.930 . S
C673 C672 1.376 . S
C673 C674 1.388 . S
C674 H661 0.930 . S
C674 C673 1.388 . S
C674 C675 1.390 . S
C675 C674 1.390 . S
C675 C676 1.394 . S
C675 C681 1.465 . S
C676 C671 1.399 . S
C676 C675 1.394 . S
C676 C677 1.516 . S
C677 C676 1.516 . S
C677 C678 1.502 . S
C677 C679 1.561 . S
C677 C680 1.526 . S
C678 H662 0.959 . S
C678 H663 0.959 . S
C678 H664 0.961 . S
C678 C677 1.502 . S
C679 H665 0.960 . S
C679 H666 0.961 . S
C679 H667 0.959 . S
C679 C677 1.561 . S
C680 C677 1.526 . S
C680 C681 1.396 . S
C680 C685 1.390 . S
C681 C675 1.465 . S
C681 C680 1.396 . S
C681 C682 1.399 . S
C682 H668 0.929 . S
C682 C681 1.399 . S
C682 C683 1.385 . S
C683 H669 0.931 . S
C683 C682 1.385 . S
C683 C684 1.389 . S
C684 C683 1.389 . S
C684 C685 1.387 . S
C685 H670 0.930 . S
C685 C680 1.390 . S
C685 C684 1.387 . S
H686 C698 0.930 . S
H687 C700 0.930 . S
H688 C701 0.930 . S
H689 C705 0.959 . S
H690 C705 0.959 . S
H691 C705 0.961 . S
H692 C706 0.960 . S
H693 C706 0.961 . S
H694 C706 0.959 . S
H695 C709 0.929 . S
H696 C710 0.931 . S
H697 C712 0.930 . S
C698 H686 0.930 . S
C698 C699 1.399 . S
C698 C703 1.399 . S
C699 C698 1.399 . S
C699 C700 1.376 . S
C700 H687 0.930 . S
C700 C699 1.376 . S
C700 C701 1.388 . S
C701 H688 0.930 . S
C701 C700 1.388 . S
C701 C702 1.390 . S
C702 C701 1.390 . S
C702 C703 1.394 . S
C702 C708 1.465 . S
C703 C698 1.399 . S
C703 C702 1.394 . S
C703 C704 1.516 . S
C704 C703 1.516 . S
C704 C705 1.502 . S
C704 C706 1.561 . S
C704 C707 1.526 . S
C705 H689 0.959 . S
C705 H690 0.959 . S
C705 H691 0.961 . S
C705 C704 1.502 . S
C706 H692 0.960 . S
C706 H693 0.961 . S
C706 H694 0.959 . S
C706 C704 1.561 . S
C707 C704 1.526 . S
C707 C708 1.396 . S
C707 C712 1.390 . S
C708 C702 1.465 . S
C708 C707 1.396 . S
C708 C709 1.399 . S
C709 H695 0.929 . S
C709 C708 1.399 . S
C709 C710 1.385 . S
C710 H696 0.931 . S
C710 C709 1.385 . S
C710 C711 1.389 . S
C711 C710 1.389 . S
C711 C712 1.387 . S
C712 H697 0.930 . S
C712 C707 1.390 . S
C712 C711 1.387 . S
H713 C725 0.930 . S
H714 C727 0.930 . S
H715 C728 0.930 . S
H716 C732 0.959 . S
H717 C732 0.959 . S
H718 C732 0.961 . S
H719 C733 0.960 . S
H720 C733 0.961 . S
H721 C733 0.959 . S
H722 C736 0.929 . S
H723 C737 0.931 . S
H724 C739 0.930 . S
C725 H713 0.930 . S
C725 C726 1.399 . S
C725 C730 1.399 . S
C726 C725 1.399 . S
C726 C727 1.376 . S
C727 H714 0.930 . S
C727 C726 1.376 . S
C727 C728 1.388 . S
C728 H715 0.930 . S
C728 C727 1.388 . S
C728 C729 1.390 . S
C729 C728 1.390 . S
C729 C730 1.394 . S
C729 C735 1.465 . S
C730 C725 1.399 . S
C730 C729 1.394 . S
C730 C731 1.516 . S
C731 C730 1.516 . S
C731 C732 1.502 . S
C731 C733 1.561 . S
C731 C734 1.526 . S
C732 H716 0.959 . S
C732 H717 0.959 . S
C732 H718 0.961 . S
C732 C731 1.502 . S
C733 H719 0.960 . S
C733 H720 0.961 . S
C733 H721 0.959 . S
C733 C731 1.561 . S
C734 C731 1.526 . S
C734 C735 1.396 . S
C734 C739 1.390 . S
C735 C729 1.465 . S
C735 C734 1.396 . S
C735 C736 1.399 . S
C736 H722 0.929 . S
C736 C735 1.399 . S
C736 C737 1.385 . S
C737 H723 0.931 . S
C737 C736 1.385 . S
C737 C738 1.389 . S
C738 C737 1.389 . S
C738 C739 1.387 . S
C739 H724 0.930 . S
C739 C734 1.390 . S
C739 C738 1.387 . S
H740 C752 0.930 . S
H741 C754 0.930 . S
H742 C755 0.930 . S
H743 C759 0.959 . S
H744 C759 0.959 . S
H745 C759 0.961 . S
H746 C760 0.960 . S
H747 C760 0.961 . S
H748 C760 0.959 . S
H749 C763 0.929 . S
H750 C764 0.931 . S
H751 C766 0.930 . S
C752 H740 0.930 . S
C752 C753 1.399 . S
C752 C757 1.399 . S
C753 C752 1.399 . S
C753 C754 1.376 . S
C754 H741 0.930 . S
C754 C753 1.376 . S
C754 C755 1.388 . S
C755 H742 0.930 . S
C755 C754 1.388 . S
C755 C756 1.390 . S
C756 C755 1.390 . S
C756 C757 1.394 . S
C756 C762 1.465 . S
C757 C752 1.399 . S
C757 C756 1.394 . S
C757 C758 1.516 . S
C758 C757 1.516 . S
C758 C759 1.502 . S
C758 C760 1.561 . S
C758 C761 1.526 . S
C759 H743 0.959 . S
C759 H744 0.959 . S
C759 H745 0.961 . S
C759 C758 1.502 . S
C760 H746 0.960 . S
C760 H747 0.961 . S
C760 H748 0.959 . S
C760 C758 1.561 . S
C761 C758 1.526 . S
C761 C762 1.396 . S
C761 C766 1.390 . S
C762 C756 1.465 . S
C762 C761 1.396 . S
C762 C763 1.399 . S
C763 H749 0.929 . S
C763 C762 1.399 . S
C763 C764 1.385 . S
C764 H750 0.931 . S
C764 C763 1.385 . S
C764 C765 1.389 . S
C765 C764 1.389 . S
C765 C766 1.387 . S
C766 H751 0.930 . S
C766 C761 1.390 . S
C766 C765 1.387 . S
H767 C779 0.930 . S
H768 C781 0.930 . S
H769 C782 0.930 . S
H770 C786 0.959 . S
H771 C786 0.959 . S
H772 C786 0.961 . S
H773 C787 0.960 . S
H774 C787 0.961 . S
H775 C787 0.959 . S
H776 C790 0.929 . S
H777 C791 0.931 . S
H778 C793 0.930 . S
C779 H767 0.930 . S
C779 C780 1.399 . S
C779 C784 1.399 . S
C780 C779 1.399 . S
C780 C781 1.376 . S
C781 H768 0.930 . S
C781 C780 1.376 . S
C781 C782 1.388 . S
C782 H769 0.930 . S
C782 C781 1.388 . S
C782 C783 1.390 . S
C783 C782 1.390 . S
C783 C784 1.394 . S
C783 C789 1.465 . S
C784 C779 1.399 . S
C784 C783 1.394 . S
C784 C785 1.516 . S
C785 C784 1.516 . S
C785 C786 1.502 . S
C785 C787 1.561 . S
C785 C788 1.526 . S
C786 H770 0.959 . S
C786 H771 0.959 . S
C786 H772 0.961 . S
C786 C785 1.502 . S
C787 H773 0.960 . S
C787 H774 0.961 . S
C787 H775 0.959 . S
C787 C785 1.561 . S
C788 C785 1.526 . S
C788 C789 1.396 . S
C788 C793 1.390 . S
C789 C783 1.465 . S
C789 C788 1.396 . S
C789 C790 1.399 . S
C790 H776 0.929 . S
C790 C789 1.399 . S
C790 C791 1.385 . S
C791 H777 0.931 . S
C791 C790 1.385 . S
C791 C792 1.389 . S
C792 C791 1.389 . S
C792 C793 1.387 . S
C793 H778 0.930 . S
C793 C788 1.390 . S
C793 C792 1.387 . S
H794 C806 0.930 . S
H795 C808 0.930 . S
H796 C809 0.930 . S
H797 C813 0.959 . S
H798 C813 0.959 . S
H799 C813 0.961 . S
H800 C814 0.960 . S
H801 C814 0.961 . S
H802 C814 0.959 . S
H803 C817 0.929 . S
H804 C818 0.931 . S
H805 C820 0.930 . S
C806 H794 0.930 . S
C806 C807 1.399 . S
C806 C811 1.399 . S
C807 C806 1.399 . S
C807 C808 1.376 . S
C808 H795 0.930 . S
C808 C807 1.376 . S
C808 C809 1.388 . S
C809 H796 0.930 . S
C809 C808 1.388 . S
C809 C810 1.390 . S
C810 C809 1.390 . S
C810 C811 1.394 . S
C810 C816 1.465 . S
C811 C806 1.399 . S
C811 C810 1.394 . S
C811 C812 1.516 . S
C812 C811 1.516 . S
C812 C813 1.502 . S
C812 C814 1.561 . S
C812 C815 1.526 . S
C813 H797 0.959 . S
C813 H798 0.959 . S
C813 H799 0.961 . S
C813 C812 1.502 . S
C814 H800 0.960 . S
C814 H801 0.961 . S
C814 H802 0.959 . S
C814 C812 1.561 . S
C815 C812 1.526 . S
C815 C816 1.396 . S
C815 C820 1.390 . S
C816 C810 1.465 . S
C816 C815 1.396 . S
C816 C817 1.399 . S
C817 H803 0.929 . S
C817 C816 1.399 . S
C817 C818 1.385 . S
C818 H804 0.931 . S
C818 C817 1.385 . S
C818 C819 1.389 . S
C819 C818 1.389 . S
C819 C820 1.387 . S
C820 H805 0.930 . S
C820 C815 1.390 . S
C820 C819 1.387 . S
H821 C833 0.930 . S
H822 C835 0.930 . S
H823 C836 0.930 . S
H824 C840 0.959 . S
H825 C840 0.959 . S
H826 C840 0.961 . S
H827 C841 0.960 . S
H828 C841 0.961 . S
H829 C841 0.959 . S
H830 C844 0.929 . S
H831 C845 0.931 . S
H832 C847 0.930 . S
C833 H821 0.930 . S
C833 C834 1.399 . S
C833 C838 1.399 . S
C834 C833 1.399 . S
C834 C835 1.376 . S
C835 H822 0.930 . S
C835 C834 1.376 . S
C835 C836 1.388 . S
C836 H823 0.930 . S
C836 C835 1.388 . S
C836 C837 1.390 . S
C837 C836 1.390 . S
C837 C838 1.394 . S
C837 C843 1.465 . S
C838 C833 1.399 . S
C838 C837 1.394 . S
C838 C839 1.516 . S
C839 C838 1.516 . S
C839 C840 1.502 . S
C839 C841 1.561 . S
C839 C842 1.526 . S
C840 H824 0.959 . S
C840 H825 0.959 . S
C840 H826 0.961 . S
C840 C839 1.502 . S
C841 H827 0.960 . S
C841 H828 0.961 . S
C841 H829 0.959 . S
C841 C839 1.561 . S
C842 C839 1.526 . S
C842 C843 1.396 . S
C842 C847 1.390 . S
C843 C837 1.465 . S
C843 C842 1.396 . S
C843 C844 1.399 . S
C844 H830 0.929 . S
C844 C843 1.399 . S
C844 C845 1.385 . S
C845 H831 0.931 . S
C845 C844 1.385 . S
C845 C846 1.389 . S
C846 C845 1.389 . S
C846 C847 1.387 . S
C847 H832 0.930 . S
C847 C842 1.390 . S
C847 C846 1.387 . S
H848 C860 0.930 . S
H849 C862 0.930 . S
H850 C863 0.930 . S
H851 C867 0.962 . S
H852 C867 0.980 . S
H853 C867 0.939 1_554 S
H854 C868 0.957 1_554 S
H855 C868 0.964 . S
H856 C868 0.959 . S
H857 C871 0.929 . S
H858 C872 0.931 . S
H859 C874 0.930 . S
C860 H848 0.930 . S
C860 C861 1.399 . S
C860 C865 1.399 . S
C861 C860 1.399 . S
C861 C862 1.376 . S
C862 H849 0.930 . S
C862 C861 1.376 . S
C862 C863 1.388 . S
C863 H850 0.930 . S
C863 C862 1.388 . S
C863 C864 1.390 . S
C864 C863 1.390 . S
C864 C865 1.394 . S
C864 C870 1.465 1_554 S
C865 C860 1.399 . S
C865 C864 1.394 . S
C865 C866 1.516 1_554 S
C866 C865 1.516 1_556 S
C866 C867 1.502 . S
C866 C868 1.561 . S
C866 C869 1.526 . S
C867 H851 0.962 . S
C867 H852 0.980 . S
C867 H853 0.939 1_556 S
C867 C866 1.502 . S
C868 H854 0.957 1_556 S
C868 H855 0.964 . S
C868 H856 0.959 . S
C868 C866 1.561 . S
C869 C866 1.526 . S
C869 C870 1.396 . S
C869 C874 1.390 . S
C870 C864 1.465 1_556 S
C870 C869 1.396 . S
C870 C871 1.399 . S
C871 H857 0.929 . S
C871 C870 1.399 . S
C871 C872 1.385 . S
C872 H858 0.931 . S
C872 C871 1.385 . S
C872 C873 1.389 . S
C873 C872 1.389 . S
C873 C874 1.387 . S
C874 H859 0.930 . S
C874 C869 1.390 . S
C874 C873 1.387 . S
H875 C887 0.930 . S
H876 C889 0.930 . S
H877 C890 0.930 . S
H878 C894 0.962 . S
H879 C894 0.980 . S
H880 C894 0.939 1_556 S
H881 C895 0.957 1_556 S
H882 C895 0.964 . S
H883 C895 0.959 . S
H884 C898 0.929 . S
H885 C899 0.931 . S
H886 C901 0.930 . S
C887 H875 0.930 . S
C887 C888 1.399 . S
C887 C892 1.399 . S
C888 C887 1.399 . S
C888 C889 1.376 . S
C889 H876 0.930 . S
C889 C888 1.376 . S
C889 C890 1.388 . S
C890 H877 0.930 . S
C890 C889 1.388 . S
C890 C891 1.390 . S
C891 C890 1.390 . S
C891 C892 1.394 . S
C891 C897 1.465 1_556 S
C892 C887 1.399 . S
C892 C891 1.394 . S
C892 C893 1.516 1_556 S
C893 C892 1.516 1_554 S
C893 C894 1.502 . S
C893 C895 1.561 . S
C893 C896 1.526 . S
C894 H878 0.962 . S
C894 H879 0.980 . S
C894 H880 0.939 1_554 S
C894 C893 1.502 . S
C895 H881 0.957 1_554 S
C895 H882 0.964 . S
C895 H883 0.959 . S
C895 C893 1.561 . S
C896 C893 1.526 . S
C896 C897 1.396 . S
C896 C901 1.390 . S
C897 C891 1.465 1_554 S
C897 C896 1.396 . S
C897 C898 1.399 . S
C898 H884 0.929 . S
C898 C897 1.399 . S
C898 C899 1.385 . S
C899 H885 0.931 . S
C899 C898 1.385 . S
C899 C900 1.389 . S
C900 C899 1.389 . S
C900 C901 1.387 . S
C901 H886 0.930 . S
C901 C896 1.390 . S
C901 C900 1.387 . S
H902 C914 0.930 . S
H903 C916 0.930 . S
H904 C917 0.930 . S
H905 C921 0.962 . S
H906 C921 0.980 . S
H907 C921 0.939 1_556 S
H908 C922 0.957 1_556 S
H909 C922 0.964 . S
H910 C922 0.959 . S
H911 C925 0.929 . S
H912 C926 0.931 . S
H913 C928 0.930 . S
C914 H902 0.930 . S
C914 C915 1.399 . S
C914 C919 1.399 . S
C915 C914 1.399 . S
C915 C916 1.376 . S
C916 H903 0.930 . S
C916 C915 1.376 . S
C916 C917 1.388 . S
C917 H904 0.930 . S
C917 C916 1.388 . S
C917 C918 1.390 . S
C918 C917 1.390 . S
C918 C919 1.394 . S
C918 C924 1.465 1_556 S
C919 C914 1.399 . S
C919 C918 1.394 . S
C919 C920 1.516 1_556 S
C920 C919 1.516 1_554 S
C920 C921 1.502 . S
C920 C922 1.561 . S
C920 C923 1.526 . S
C921 H905 0.962 . S
C921 H906 0.980 . S
C921 H907 0.939 1_554 S
C921 C920 1.502 . S
C922 H908 0.957 1_554 S
C922 H909 0.964 . S
C922 H910 0.959 . S
C922 C920 1.561 . S
C923 C920 1.526 . S
C923 C924 1.396 . S
C923 C928 1.390 . S
C924 C918 1.465 1_554 S
C924 C923 1.396 . S
C924 C925 1.399 . S
C925 H911 0.929 . S
C925 C924 1.399 . S
C925 C926 1.385 . S
C926 H912 0.931 . S
C926 C925 1.385 . S
C926 C927 1.389 . S
C927 C926 1.389 . S
C927 C928 1.387 . S
C928 H913 0.930 . S
C928 C923 1.390 . S
C928 C927 1.387 . S
H929 C941 0.930 . S
H930 C943 0.930 . S
H931 C944 0.930 . S
H932 C948 0.962 . S
H933 C948 0.980 . S
H934 C948 0.939 1_556 S
H935 C949 0.957 1_556 S
H936 C949 0.964 . S
H937 C949 0.959 . S
H938 C952 0.929 . S
H939 C953 0.931 . S
H940 C955 0.930 . S
C941 H929 0.930 . S
C941 C942 1.399 . S
C941 C946 1.399 . S
C942 C941 1.399 . S
C942 C943 1.376 . S
C943 H930 0.930 . S
C943 C942 1.376 . S
C943 C944 1.388 . S
C944 H931 0.930 . S
C944 C943 1.388 . S
C944 C945 1.390 . S
C945 C944 1.390 . S
C945 C946 1.394 . S
C945 C951 1.465 1_556 S
C946 C941 1.399 . S
C946 C945 1.394 . S
C946 C947 1.516 1_556 S
C947 C946 1.516 1_554 S
C947 C948 1.502 . S
C947 C949 1.561 . S
C947 C950 1.526 . S
C948 H932 0.962 . S
C948 H933 0.980 . S
C948 H934 0.939 1_554 S
C948 C947 1.502 . S
C949 H935 0.957 1_554 S
C949 H936 0.964 . S
C949 H937 0.959 . S
C949 C947 1.561 . S
C950 C947 1.526 . S
C950 C951 1.396 . S
C950 C955 1.390 . S
C951 C945 1.465 1_554 S
C951 C950 1.396 . S
C951 C952 1.399 . S
C952 H938 0.929 . S
C952 C951 1.399 . S
C952 C953 1.385 . S
C953 H939 0.931 . S
C953 C952 1.385 . S
C953 C954 1.389 . S
C954 C953 1.389 . S
C954 C955 1.387 . S
C955 H940 0.930 . S
C955 C950 1.390 . S
C955 C954 1.387 . S
H956 C968 0.930 . S
H957 C970 0.930 . S
H958 C971 0.930 . S
H959 C975 0.959 . S
H960 C975 0.959 . S
H961 C975 0.961 . S
H962 C976 0.960 . S
H963 C976 0.961 . S
H964 C976 0.959 . S
H965 C979 0.929 . S
H966 C980 0.931 . S
H967 C982 0.930 . S
C968 H956 0.930 . S
C968 C969 1.399 . S
C968 C973 1.399 . S
C969 C968 1.399 . S
C969 C970 1.376 . S
C970 H957 0.930 . S
C970 C969 1.376 . S
C970 C971 1.388 . S
C971 H958 0.930 . S
C971 C970 1.388 . S
C971 C972 1.390 . S
C972 C971 1.390 . S
C972 C973 1.394 . S
C972 C978 1.465 . S
C973 C968 1.399 . S
C973 C972 1.394 . S
C973 C974 1.516 . S
C974 C973 1.516 . S
C974 C975 1.502 . S
C974 C976 1.561 . S
C974 C977 1.526 . S
C975 H959 0.959 . S
C975 H960 0.959 . S
C975 H961 0.961 . S
C975 C974 1.502 . S
C976 H962 0.960 . S
C976 H963 0.961 . S
C976 H964 0.959 . S
C976 C974 1.561 . S
C977 C974 1.526 . S
C977 C978 1.396 . S
C977 C982 1.390 . S
C978 C972 1.465 . S
C978 C977 1.396 . S
C978 C979 1.399 . S
C979 H965 0.929 . S
C979 C978 1.399 . S
C979 C980 1.385 . S
C980 H966 0.931 . S
C980 C979 1.385 . S
C980 C981 1.389 . S
C981 C980 1.389 . S
C981 C982 1.387 . S
C982 H967 0.930 . S
C982 C977 1.390 . S
C982 C981 1.387 . S
H983 C995 0.930 . S
H984 C997 0.930 . S
H985 C998 0.930 . S
H986 C1002 0.959 . S
H987 C1002 0.959 . S
H988 C1002 0.961 . S
H989 C1003 0.960 . S
H990 C1003 0.961 . S
H991 C1003 0.959 . S
H992 C1006 0.929 . S
H993 C1007 0.931 . S
H994 C1009 0.930 . S
C995 H983 0.930 . S
C995 C996 1.399 . S
C995 C1000 1.399 . S
C996 C995 1.399 . S
C996 C997 1.376 . S
C997 H984 0.930 . S
C997 C996 1.376 . S
C997 C998 1.388 . S
C998 H985 0.930 . S
C998 C997 1.388 . S
C998 C999 1.390 . S
C999 C998 1.390 . S
C999 C1000 1.394 . S
C999 C1005 1.465 . S
C1000 C995 1.399 . S
C1000 C999 1.394 . S
C1000 C1001 1.516 . S
C1001 C1000 1.516 . S
C1001 C1002 1.502 . S
C1001 C1003 1.561 . S
C1001 C1004 1.526 . S
C1002 H986 0.959 . S
C1002 H987 0.959 . S
C1002 H988 0.961 . S
C1002 C1001 1.502 . S
C1003 H989 0.960 . S
C1003 H990 0.961 . S
C1003 H991 0.959 . S
C1003 C1001 1.561 . S
C1004 C1001 1.526 . S
C1004 C1005 1.396 . S
C1004 C1009 1.390 . S
C1005 C999 1.465 . S
C1005 C1004 1.396 . S
C1005 C1006 1.399 . S
C1006 H992 0.929 . S
C1006 C1005 1.399 . S
C1006 C1007 1.385 . S
C1007 H993 0.931 . S
C1007 C1006 1.385 . S
C1007 C1008 1.389 . S
C1008 C1007 1.389 . S
C1008 C1009 1.387 . S
C1009 H994 0.930 . S
C1009 C1004 1.390 . S
C1009 C1008 1.387 . S
H1010 C1022 0.930 . S
H1011 C1024 0.930 . S
H1012 C1025 0.930 . S
H1013 C1029 0.959 . S
H1014 C1029 0.959 . S
H1015 C1029 0.961 . S
H1016 C1030 0.960 . S
H1017 C1030 0.961 . S
H1018 C1030 0.959 . S
H1019 C1033 0.929 . S
H1020 C1034 0.931 . S
H1021 C1036 0.930 . S
C1022 H1010 0.930 . S
C1022 C1023 1.399 . S
C1022 C1027 1.399 . S
C1023 C1022 1.399 . S
C1023 C1024 1.376 . S
C1024 H1011 0.930 . S
C1024 C1023 1.376 . S
C1024 C1025 1.388 . S
C1025 H1012 0.930 . S
C1025 C1024 1.388 . S
C1025 C1026 1.390 . S
C1026 C1025 1.390 . S
C1026 C1027 1.394 . S
C1026 C1032 1.465 . S
C1027 C1022 1.399 . S
C1027 C1026 1.394 . S
C1027 C1028 1.516 . S
C1028 C1027 1.516 . S
C1028 C1029 1.502 . S
C1028 C1030 1.561 . S
C1028 C1031 1.526 . S
C1029 H1013 0.959 . S
C1029 H1014 0.959 . S
C1029 H1015 0.961 . S
C1029 C1028 1.502 . S
C1030 H1016 0.960 . S
C1030 H1017 0.961 . S
C1030 H1018 0.959 . S
C1030 C1028 1.561 . S
C1031 C1028 1.526 . S
C1031 C1032 1.396 . S
C1031 C1036 1.390 . S
C1032 C1026 1.465 . S
C1032 C1031 1.396 . S
C1032 C1033 1.399 . S
C1033 H1019 0.929 . S
C1033 C1032 1.399 . S
C1033 C1034 1.385 . S
C1034 H1020 0.931 . S
C1034 C1033 1.385 . S
C1034 C1035 1.389 . S
C1035 C1034 1.389 . S
C1035 C1036 1.387 . S
C1036 H1021 0.930 . S
C1036 C1031 1.390 . S
C1036 C1035 1.387 . S
H1037 C1049 0.930 . S
H1038 C1051 0.930 . S
H1039 C1052 0.930 . S
H1040 C1056 0.959 . S
H1041 C1056 0.959 . S
H1042 C1056 0.961 . S
H1043 C1057 0.960 . S
H1044 C1057 0.961 . S
H1045 C1057 0.959 . S
H1046 C1060 0.929 . S
H1047 C1061 0.931 . S
H1048 C1063 0.930 . S
C1049 H1037 0.930 . S
C1049 C1050 1.399 . S
C1049 C1054 1.399 . S
C1050 C1049 1.399 . S
C1050 C1051 1.376 . S
C1051 H1038 0.930 . S
C1051 C1050 1.376 . S
C1051 C1052 1.388 . S
C1052 H1039 0.930 . S
C1052 C1051 1.388 . S
C1052 C1053 1.390 . S
C1053 C1052 1.390 . S
C1053 C1054 1.394 . S
C1053 C1059 1.465 . S
C1054 C1049 1.399 . S
C1054 C1053 1.394 . S
C1054 C1055 1.516 . S
C1055 C1054 1.516 . S
C1055 C1056 1.502 . S
C1055 C1057 1.561 . S
C1055 C1058 1.526 . S
C1056 H1040 0.959 . S
C1056 H1041 0.959 . S
C1056 H1042 0.961 . S
C1056 C1055 1.502 . S
C1057 H1043 0.960 . S
C1057 H1044 0.961 . S
C1057 H1045 0.959 . S
C1057 C1055 1.561 . S
C1058 C1055 1.526 . S
C1058 C1059 1.396 . S
C1058 C1063 1.390 . S
C1059 C1053 1.465 . S
C1059 C1058 1.396 . S
C1059 C1060 1.399 . S
C1060 H1046 0.929 . S
C1060 C1059 1.399 . S
C1060 C1061 1.385 . S
C1061 H1047 0.931 . S
C1061 C1060 1.385 . S
C1061 C1062 1.389 . S
C1062 C1061 1.389 . S
C1062 C1063 1.387 . S
C1063 H1048 0.930 . S
C1063 C1058 1.390 . S
C1063 C1062 1.387 . S
H1064 C1076 0.930 . S
H1065 C1078 0.930 . S
H1066 C1079 0.930 . S
H1067 C1083 0.959 . S
H1068 C1083 0.959 . S
H1069 C1083 0.961 . S
H1070 C1084 0.960 . S
H1071 C1084 0.961 . S
H1072 C1084 0.959 . S
H1073 C1087 0.929 . S
H1074 C1088 0.931 . S
H1075 C1090 0.930 . S
C1076 H1064 0.930 . S
C1076 C1077 1.399 . S
C1076 C1081 1.399 . S
C1077 C1076 1.399 . S
C1077 C1078 1.376 . S
C1078 H1065 0.930 . S
C1078 C1077 1.376 . S
C1078 C1079 1.388 . S
C1079 H1066 0.930 . S
C1079 C1078 1.388 . S
C1079 C1080 1.390 . S
C1080 C1079 1.390 . S
C1080 C1081 1.394 . S
C1080 C1086 1.465 . S
C1081 C1076 1.399 . S
C1081 C1080 1.394 . S
C1081 C1082 1.516 . S
C1082 C1081 1.516 . S
C1082 C1083 1.502 . S
C1082 C1084 1.561 . S
C1082 C1085 1.526 . S
C1083 H1067 0.959 . S
C1083 H1068 0.959 . S
C1083 H1069 0.961 . S
C1083 C1082 1.502 . S
C1084 H1070 0.960 . S
C1084 H1071 0.961 . S
C1084 H1072 0.959 . S
C1084 C1082 1.561 . S
C1085 C1082 1.526 . S
C1085 C1086 1.396 . S
C1085 C1090 1.390 . S
C1086 C1080 1.465 . S
C1086 C1085 1.396 . S
C1086 C1087 1.399 . S
C1087 H1073 0.929 . S
C1087 C1086 1.399 . S
C1087 C1088 1.385 . S
C1088 H1074 0.931 . S
C1088 C1087 1.385 . S
C1088 C1089 1.389 . S
C1089 C1088 1.389 . S
C1089 C1090 1.387 . S
C1090 H1075 0.930 . S
C1090 C1085 1.390 . S
C1090 C1089 1.387 . S
H1091 C1103 0.930 . S
H1092 C1105 0.930 . S
H1093 C1106 0.930 . S
H1094 C1110 0.959 . S
H1095 C1110 0.959 . S
H1096 C1110 0.961 . S
H1097 C1111 0.960 . S
H1098 C1111 0.961 . S
H1099 C1111 0.959 . S
H1100 C1114 0.929 . S
H1101 C1115 0.931 . S
H1102 C1117 0.930 . S
C1103 H1091 0.930 . S
C1103 C1104 1.399 . S
C1103 C1108 1.399 . S
C1104 C1103 1.399 . S
C1104 C1105 1.376 . S
C1105 H1092 0.930 . S
C1105 C1104 1.376 . S
C1105 C1106 1.388 . S
C1106 H1093 0.930 . S
C1106 C1105 1.388 . S
C1106 C1107 1.390 . S
C1107 C1106 1.390 . S
C1107 C1108 1.394 . S
C1107 C1113 1.465 . S
C1108 C1103 1.399 . S
C1108 C1107 1.394 . S
C1108 C1109 1.516 . S
C1109 C1108 1.516 . S
C1109 C1110 1.502 . S
C1109 C1111 1.561 . S
C1109 C1112 1.526 . S
C1110 H1094 0.959 . S
C1110 H1095 0.959 . S
C1110 H1096 0.961 . S
C1110 C1109 1.502 . S
C1111 H1097 0.960 . S
C1111 H1098 0.961 . S
C1111 H1099 0.959 . S
C1111 C1109 1.561 . S
C1112 C1109 1.526 . S
C1112 C1113 1.396 . S
C1112 C1117 1.390 . S
C1113 C1107 1.465 . S
C1113 C1112 1.396 . S
C1113 C1114 1.399 . S
C1114 H1100 0.929 . S
C1114 C1113 1.399 . S
C1114 C1115 1.385 . S
C1115 H1101 0.931 . S
C1115 C1114 1.385 . S
C1115 C1116 1.389 . S
C1116 C1115 1.389 . S
C1116 C1117 1.387 . S
C1117 H1102 0.930 . S
C1117 C1112 1.390 . S
C1117 C1116 1.387 . S
H1118 C1130 0.930 . S
H1119 C1132 0.930 . S
H1120 C1133 0.930 . S
H1121 C1137 0.959 . S
H1122 C1137 0.959 . S
H1123 C1137 0.961 . S
H1124 C1138 0.960 . S
H1125 C1138 0.961 . S
H1126 C1138 0.959 . S
H1127 C1141 0.929 . S
H1128 C1142 0.931 . S
H1129 C1144 0.930 . S
C1130 H1118 0.930 . S
C1130 C1131 1.399 . S
C1130 C1135 1.399 . S
C1131 C1130 1.399 . S
C1131 C1132 1.376 . S
C1132 H1119 0.930 . S
C1132 C1131 1.376 . S
C1132 C1133 1.388 . S
C1133 H1120 0.930 . S
C1133 C1132 1.388 . S
C1133 C1134 1.390 . S
C1134 C1133 1.390 . S
C1134 C1135 1.394 . S
C1134 C1140 1.465 . S
C1135 C1130 1.399 . S
C1135 C1134 1.394 . S
C1135 C1136 1.516 . S
C1136 C1135 1.516 . S
C1136 C1137 1.502 . S
C1136 C1138 1.561 . S
C1136 C1139 1.526 . S
C1137 H1121 0.959 . S
C1137 H1122 0.959 . S
C1137 H1123 0.961 . S
C1137 C1136 1.502 . S
C1138 H1124 0.960 . S
C1138 H1125 0.961 . S
C1138 H1126 0.959 . S
C1138 C1136 1.561 . S
C1139 C1136 1.526 . S
C1139 C1140 1.396 . S
C1139 C1144 1.390 . S
C1140 C1134 1.465 . S
C1140 C1139 1.396 . S
C1140 C1141 1.399 . S
C1141 H1127 0.929 . S
C1141 C1140 1.399 . S
C1141 C1142 1.385 . S
C1142 H1128 0.931 . S
C1142 C1141 1.385 . S
C1142 C1143 1.389 . S
C1143 C1142 1.389 . S
C1143 C1144 1.387 . S
C1144 H1129 0.930 . S
C1144 C1139 1.390 . S
C1144 C1143 1.387 . S
H1145 C1157 0.930 . S
H1146 C1159 0.930 . S
H1147 C1160 0.930 . S
H1148 C1164 0.959 . S
H1149 C1164 0.959 . S
H1150 C1164 0.961 . S
H1151 C1165 0.960 . S
H1152 C1165 0.961 . S
H1153 C1165 0.959 . S
H1154 C1168 0.929 . S
H1155 C1169 0.931 . S
H1156 C1171 0.930 . S
C1157 H1145 0.930 . S
C1157 C1158 1.399 . S
C1157 C1162 1.399 . S
C1158 C1157 1.399 . S
C1158 C1159 1.376 . S
C1159 H1146 0.930 . S
C1159 C1158 1.376 . S
C1159 C1160 1.388 . S
C1160 H1147 0.930 . S
C1160 C1159 1.388 . S
C1160 C1161 1.390 . S
C1161 C1160 1.390 . S
C1161 C1162 1.394 . S
C1161 C1167 1.465 . S
C1162 C1157 1.399 . S
C1162 C1161 1.394 . S
C1162 C1163 1.516 . S
C1163 C1162 1.516 . S
C1163 C1164 1.502 . S
C1163 C1165 1.561 . S
C1163 C1166 1.526 . S
C1164 H1148 0.959 . S
C1164 H1149 0.959 . S
C1164 H1150 0.961 . S
C1164 C1163 1.502 . S
C1165 H1151 0.960 . S
C1165 H1152 0.961 . S
C1165 H1153 0.959 . S
C1165 C1163 1.561 . S
C1166 C1163 1.526 . S
C1166 C1167 1.396 . S
C1166 C1171 1.390 . S
C1167 C1161 1.465 . S
C1167 C1166 1.396 . S
C1167 C1168 1.399 . S
C1168 H1154 0.929 . S
C1168 C1167 1.399 . S
C1168 C1169 1.385 . S
C1169 H1155 0.931 . S
C1169 C1168 1.385 . S
C1169 C1170 1.389 . S
C1170 C1169 1.389 . S
C1170 C1171 1.387 . S
C1171 H1156 0.930 . S
C1171 C1166 1.390 . S
C1171 C1170 1.387 . S
H1172 C1184 0.930 . S
H1173 C1186 0.930 . S
H1174 C1187 0.930 . S
H1175 C1191 0.962 . S
H1176 C1191 0.980 . S
H1177 C1191 0.939 1_556 S
H1178 C1192 0.957 1_556 S
H1179 C1192 0.964 . S
H1180 C1192 0.959 . S
H1181 C1195 0.929 . S
H1182 C1196 0.931 . S
H1183 C1198 0.930 . S
C1184 H1172 0.930 . S
C1184 C1185 1.399 . S
C1184 C1189 1.399 . S
C1185 C1184 1.399 . S
C1185 C1186 1.376 . S
C1186 H1173 0.930 . S
C1186 C1185 1.376 . S
C1186 C1187 1.388 . S
C1187 H1174 0.930 . S
C1187 C1186 1.388 . S
C1187 C1188 1.390 . S
C1188 C1187 1.390 . S
C1188 C1189 1.394 . S
C1188 C1194 1.465 1_556 S
C1189 C1184 1.399 . S
C1189 C1188 1.394 . S
C1189 C1190 1.516 1_556 S
C1190 C1189 1.516 1_554 S
C1190 C1191 1.502 . S
C1190 C1192 1.561 . S
C1190 C1193 1.526 . S
C1191 H1175 0.962 . S
C1191 H1176 0.980 . S
C1191 H1177 0.939 1_554 S
C1191 C1190 1.502 . S
C1192 H1178 0.957 1_554 S
C1192 H1179 0.964 . S
C1192 H1180 0.959 . S
C1192 C1190 1.561 . S
C1193 C1190 1.526 . S
C1193 C1194 1.396 . S
C1193 C1198 1.390 . S
C1194 C1188 1.465 1_554 S
C1194 C1193 1.396 . S
C1194 C1195 1.399 . S
C1195 H1181 0.929 . S
C1195 C1194 1.399 . S
C1195 C1196 1.385 . S
C1196 H1182 0.931 . S
C1196 C1195 1.385 . S
C1196 C1197 1.389 . S
C1197 C1196 1.389 . S
C1197 C1198 1.387 . S
C1198 H1183 0.930 . S
C1198 C1193 1.390 . S
C1198 C1197 1.387 . S
H1199 C1211 0.930 . S
H1200 C1213 0.930 . S
H1201 C1214 0.930 . S
H1202 C1218 0.962 . S
H1203 C1218 0.980 . S
H1204 C1218 0.939 1_554 S
H1205 C1219 0.957 1_554 S
H1206 C1219 0.964 . S
H1207 C1219 0.959 . S
H1208 C1222 0.929 . S
H1209 C1223 0.931 . S
H1210 C1225 0.930 . S
C1211 H1199 0.930 . S
C1211 C1212 1.399 . S
C1211 C1216 1.399 . S
C1212 C1211 1.399 . S
C1212 C1213 1.376 . S
C1213 H1200 0.930 . S
C1213 C1212 1.376 . S
C1213 C1214 1.388 . S
C1214 H1201 0.930 . S
C1214 C1213 1.388 . S
C1214 C1215 1.390 . S
C1215 C1214 1.390 . S
C1215 C1216 1.394 . S
C1215 C1221 1.465 1_554 S
C1216 C1211 1.399 . S
C1216 C1215 1.394 . S
C1216 C1217 1.516 1_554 S
C1217 C1216 1.516 1_556 S
C1217 C1218 1.502 . S
C1217 C1219 1.561 . S
C1217 C1220 1.526 . S
C1218 H1202 0.962 . S
C1218 H1203 0.980 . S
C1218 H1204 0.939 1_556 S
C1218 C1217 1.502 . S
C1219 H1205 0.957 1_556 S
C1219 H1206 0.964 . S
C1219 H1207 0.959 . S
C1219 C1217 1.561 . S
C1220 C1217 1.526 . S
C1220 C1221 1.396 . S
C1220 C1225 1.390 . S
C1221 C1215 1.465 1_556 S
C1221 C1220 1.396 . S
C1221 C1222 1.399 . S
C1222 H1208 0.929 . S
C1222 C1221 1.399 . S
C1222 C1223 1.385 . S
C1223 H1209 0.931 . S
C1223 C1222 1.385 . S
C1223 C1224 1.389 . S
C1224 C1223 1.389 . S
C1224 C1225 1.387 . S
C1225 H1210 0.930 . S
C1225 C1220 1.390 . S
C1225 C1224 1.387 . S
H1226 C1238 0.930 . S
H1227 C1240 0.930 . S
H1228 C1241 0.930 . S
H1229 C1245 0.962 . S
H1230 C1245 0.980 . S
H1231 C1245 0.939 1_554 S
H1232 C1246 0.957 1_554 S
H1233 C1246 0.964 . S
H1234 C1246 0.959 . S
H1235 C1249 0.929 . S
H1236 C1250 0.931 . S
H1237 C1252 0.930 . S
C1238 H1226 0.930 . S
C1238 C1239 1.399 . S
C1238 C1243 1.399 . S
C1239 C1238 1.399 . S
C1239 C1240 1.376 . S
C1240 H1227 0.930 . S
C1240 C1239 1.376 . S
C1240 C1241 1.388 . S
C1241 H1228 0.930 . S
C1241 C1240 1.388 . S
C1241 C1242 1.390 . S
C1242 C1241 1.390 . S
C1242 C1243 1.394 . S
C1242 C1248 1.465 1_554 S
C1243 C1238 1.399 . S
C1243 C1242 1.394 . S
C1243 C1244 1.516 1_554 S
C1244 C1243 1.516 1_556 S
C1244 C1245 1.502 . S
C1244 C1246 1.561 . S
C1244 C1247 1.526 . S
C1245 H1229 0.962 . S
C1245 H1230 0.980 . S
C1245 H1231 0.939 1_556 S
C1245 C1244 1.502 . S
C1246 H1232 0.957 1_556 S
C1246 H1233 0.964 . S
C1246 H1234 0.959 . S
C1246 C1244 1.561 . S
C1247 C1244 1.526 . S
C1247 C1248 1.396 . S
C1247 C1252 1.390 . S
C1248 C1242 1.465 1_556 S
C1248 C1247 1.396 . S
C1248 C1249 1.399 . S
C1249 H1235 0.929 . S
C1249 C1248 1.399 . S
C1249 C1250 1.385 . S
C1250 H1236 0.931 . S
C1250 C1249 1.385 . S
C1250 C1251 1.389 . S
C1251 C1250 1.389 . S
C1251 C1252 1.387 . S
C1252 H1237 0.930 . S
C1252 C1247 1.390 . S
C1252 C1251 1.387 . S
H1253 C1265 0.930 . S
H1254 C1267 0.930 . S
H1255 C1268 0.930 . S
H1256 C1272 0.962 . S
H1257 C1272 0.980 . S
H1258 C1272 0.939 1_556 S
H1259 C1273 0.957 1_556 S
H1260 C1273 0.964 . S
H1261 C1273 0.959 . S
H1262 C1276 0.929 . S
H1263 C1277 0.931 . S
H1264 C1279 0.930 . S
C1265 H1253 0.930 . S
C1265 C1266 1.399 . S
C1265 C1270 1.399 . S
C1266 C1265 1.399 . S
C1266 C1267 1.376 . S
C1267 H1254 0.930 . S
C1267 C1266 1.376 . S
C1267 C1268 1.388 . S
C1268 H1255 0.930 . S
C1268 C1267 1.388 . S
C1268 C1269 1.390 . S
C1269 C1268 1.390 . S
C1269 C1270 1.394 . S
C1269 C1275 1.465 1_556 S
C1270 C1265 1.399 . S
C1270 C1269 1.394 . S
C1270 C1271 1.516 1_556 S
C1271 C1270 1.516 1_554 S
C1271 C1272 1.502 . S
C1271 C1273 1.561 . S
C1271 C1274 1.526 . S
C1272 H1256 0.962 . S
C1272 H1257 0.980 . S
C1272 H1258 0.939 1_554 S
C1272 C1271 1.502 . S
C1273 H1259 0.957 1_554 S
C1273 H1260 0.964 . S
C1273 H1261 0.959 . S
C1273 C1271 1.561 . S
C1274 C1271 1.526 . S
C1274 C1275 1.396 . S
C1274 C1279 1.390 . S
C1275 C1269 1.465 1_554 S
C1275 C1274 1.396 . S
C1275 C1276 1.399 . S
C1276 H1262 0.929 . S
C1276 C1275 1.399 . S
C1276 C1277 1.385 . S
C1277 H1263 0.931 . S
C1277 C1276 1.385 . S
C1277 C1278 1.389 . S
C1278 C1277 1.389 . S
C1278 C1279 1.387 . S
C1279 H1264 0.930 . S
C1279 C1274 1.390 . S
C1279 C1278 1.387 . S
H1280 C1292 0.930 . S
H1281 C1294 0.930 . S
H1282 C1295 0.930 . S
H1283 C1299 0.959 . S
H1284 C1299 0.959 . S
H1285 C1299 0.961 . S
H1286 C1300 0.960 1_545 S
H1287 C1300 0.961 . S
H1288 C1300 0.959 1_545 S
H1289 C1303 0.929 1_545 S
H1290 C1304 0.931 . S
H1291 C1306 0.930 . S
C1292 H1280 0.930 . S
C1292 C1293 1.399 . S
C1292 C1297 1.399 . S
C1293 C1292 1.399 . S
C1293 C1294 1.376 . S
C1294 H1281 0.930 . S
C1294 C1293 1.376 . S
C1294 C1295 1.388 . S
C1295 H1282 0.930 . S
C1295 C1294 1.388 . S
C1295 C1296 1.390 . S
C1296 C1295 1.390 . S
C1296 C1297 1.394 . S
C1296 C1302 1.465 1_545 S
C1297 C1292 1.399 . S
C1297 C1296 1.394 . S
C1297 C1298 1.516 1_545 S
C1298 C1297 1.516 1_565 S
C1298 C1299 1.502 . S
C1298 C1300 1.561 . S
C1298 C1301 1.526 . S
C1299 H1283 0.959 . S
C1299 H1284 0.959 . S
C1299 H1285 0.961 . S
C1299 C1298 1.502 . S
C1300 H1286 0.960 1_565 S
C1300 H1287 0.961 . S
C1300 H1288 0.959 1_565 S
C1300 C1298 1.561 . S
C1301 C1298 1.526 . S
C1301 C1302 1.396 . S
C1301 C1306 1.390 . S
C1302 C1296 1.465 1_565 S
C1302 C1301 1.396 . S
C1302 C1303 1.399 . S
C1303 H1289 0.929 1_565 S
C1303 C1302 1.399 . S
C1303 C1304 1.385 . S
C1304 H1290 0.931 . S
C1304 C1303 1.385 . S
C1304 C1305 1.389 . S
C1305 C1304 1.389 . S
C1305 C1306 1.387 . S
C1306 H1291 0.930 . S
C1306 C1301 1.390 . S
C1306 C1305 1.387 . S
H1307 C1319 0.930 . S
H1308 C1321 0.930 . S
H1309 C1322 0.930 . S
H1310 C1326 0.959 . S
H1311 C1326 0.959 . S
H1312 C1326 0.961 . S
H1313 C1327 0.960 . S
H1314 C1327 0.961 . S
H1315 C1327 0.959 . S
H1316 C1330 0.929 . S
H1317 C1331 0.931 . S
H1318 C1333 0.930 . S
C1319 H1307 0.930 . S
C1319 C1320 1.399 . S
C1319 C1324 1.399 . S
C1320 C1319 1.399 . S
C1320 C1321 1.376 . S
C1321 H1308 0.930 . S
C1321 C1320 1.376 . S
C1321 C1322 1.388 . S
C1322 H1309 0.930 . S
C1322 C1321 1.388 . S
C1322 C1323 1.390 . S
C1323 C1322 1.390 . S
C1323 C1324 1.394 . S
C1323 C1329 1.465 1_655 S
C1324 C1319 1.399 . S
C1324 C1323 1.394 . S
C1324 C1325 1.516 1_655 S
C1325 C1324 1.516 1_455 S
C1325 C1326 1.502 1_455 S
C1325 C1327 1.561 . S
C1325 C1328 1.526 . S
C1326 H1310 0.959 . S
C1326 H1311 0.959 . S
C1326 H1312 0.961 . S
C1326 C1325 1.502 1_655 S
C1327 H1313 0.960 . S
C1327 H1314 0.961 . S
C1327 H1315 0.959 . S
C1327 C1325 1.561 . S
C1328 C1325 1.526 . S
C1328 C1329 1.396 . S
C1328 C1333 1.390 . S
C1329 C1323 1.465 1_455 S
C1329 C1328 1.396 . S
C1329 C1330 1.399 . S
C1330 H1316 0.929 . S
C1330 C1329 1.399 . S
C1330 C1331 1.385 . S
C1331 H1317 0.931 . S
C1331 C1330 1.385 . S
C1331 C1332 1.389 . S
C1332 C1331 1.389 . S
C1332 C1333 1.387 . S
C1333 H1318 0.930 . S
C1333 C1328 1.390 . S
C1333 C1332 1.387 . S
H1334 C1346 0.930 . S
H1335 C1348 0.930 . S
H1336 C1349 0.930 . S
H1337 C1353 0.959 . S
H1338 C1353 0.959 . S
H1339 C1353 0.961 . S
H1340 C1354 0.960 . S
H1341 C1354 0.961 . S
H1342 C1354 0.959 . S
H1343 C1357 0.929 1_545 S
H1344 C1358 0.931 . S
H1345 C1360 0.930 . S
C1346 H1334 0.930 . S
C1346 C1347 1.399 . S
C1346 C1351 1.399 . S
C1347 C1346 1.399 . S
C1347 C1348 1.376 . S
C1348 H1335 0.930 . S
C1348 C1347 1.376 . S
C1348 C1349 1.388 . S
C1349 H1336 0.930 . S
C1349 C1348 1.388 . S
C1349 C1350 1.390 . S
C1350 C1349 1.390 . S
C1350 C1351 1.394 . S
C1350 C1356 1.465 1_545 S
C1351 C1346 1.399 . S
C1351 C1350 1.394 . S
C1351 C1352 1.516 1_545 S
C1352 C1351 1.516 1_565 S
C1352 C1353 1.502 . S
C1352 C1354 1.561 . S
C1352 C1355 1.526 . S
C1353 H1337 0.959 . S
C1353 H1338 0.959 . S
C1353 H1339 0.961 . S
C1353 C1352 1.502 . S
C1354 H1340 0.960 . S
C1354 H1341 0.961 . S
C1354 H1342 0.959 . S
C1354 C1352 1.561 . S
C1355 C1352 1.526 . S
C1355 C1356 1.396 . S
C1355 C1360 1.390 . S
C1356 C1350 1.465 1_565 S
C1356 C1355 1.396 . S
C1356 C1357 1.399 . S
C1357 H1343 0.929 1_565 S
C1357 C1356 1.399 . S
C1357 C1358 1.385 . S
C1358 H1344 0.931 . S
C1358 C1357 1.385 . S
C1358 C1359 1.389 . S
C1359 C1358 1.389 . S
C1359 C1360 1.387 . S
C1360 H1345 0.930 . S
C1360 C1355 1.390 . S
C1360 C1359 1.387 . S
H1361 C1373 0.930 . S
H1362 C1375 0.930 . S
H1363 C1376 0.930 . S
H1364 C1380 0.959 . S
H1365 C1380 0.959 . S
H1366 C1380 0.961 . S
H1367 C1381 0.960 . S
H1368 C1381 0.961 1_655 S
H1369 C1381 0.959 . S
H1370 C1384 0.929 . S
H1371 C1385 0.931 . S
H1372 C1387 0.930 . S
C1373 H1361 0.930 . S
C1373 C1374 1.399 . S
C1373 C1378 1.399 . S
C1374 C1373 1.399 . S
C1374 C1375 1.376 . S
C1375 H1362 0.930 . S
C1375 C1374 1.376 . S
C1375 C1376 1.388 . S
C1376 H1363 0.930 . S
C1376 C1375 1.388 . S
C1376 C1377 1.390 . S
C1377 C1376 1.390 . S
C1377 C1378 1.394 . S
C1377 C1383 1.465 1_455 S
C1378 C1373 1.399 . S
C1378 C1377 1.394 . S
C1378 C1379 1.516 1_455 S
C1379 C1378 1.516 1_655 S
C1379 C1380 1.502 . S
C1379 C1381 1.561 1_655 S
C1379 C1382 1.526 . S
C1380 H1364 0.959 . S
C1380 H1365 0.959 . S
C1380 H1366 0.961 . S
C1380 C1379 1.502 . S
C1381 H1367 0.960 . S
C1381 H1368 0.961 1_455 S
C1381 H1369 0.959 . S
C1381 C1379 1.561 1_455 S
C1382 C1379 1.526 . S
C1382 C1383 1.396 . S
C1382 C1387 1.390 . S
C1383 C1377 1.465 1_655 S
C1383 C1382 1.396 . S
C1383 C1384 1.399 . S
C1384 H1370 0.929 . S
C1384 C1383 1.399 . S
C1384 C1385 1.385 . S
C1385 H1371 0.931 . S
C1385 C1384 1.385 . S
C1385 C1386 1.389 . S
C1386 C1385 1.389 . S
C1386 C1387 1.387 . S
C1387 H1372 0.930 . S
C1387 C1382 1.390 . S
C1387 C1386 1.387 . S
H1388 C1400 0.930 . S
H1389 C1402 0.930 . S
H1390 C1403 0.930 . S
H1391 C1407 0.959 1_545 S
H1392 C1407 0.959 1_545 S
H1393 C1407 0.961 . S
H1394 C1408 0.960 . S
H1395 C1408 0.961 . S
H1396 C1408 0.959 . S
H1397 C1411 0.929 . S
H1398 C1412 0.931 . S
H1399 C1414 0.930 . S
C1400 H1388 0.930 . S
C1400 C1401 1.399 . S
C1400 C1405 1.399 . S
C1401 C1400 1.399 . S
C1401 C1402 1.376 . S
C1402 H1389 0.930 . S
C1402 C1401 1.376 . S
C1402 C1403 1.388 . S
C1403 H1390 0.930 . S
C1403 C1402 1.388 . S
C1403 C1404 1.390 . S
C1404 C1403 1.390 . S
C1404 C1405 1.394 . S
C1404 C1410 1.465 1_565 S
C1405 C1400 1.399 . S
C1405 C1404 1.394 . S
C1405 C1406 1.516 . S
C1406 C1405 1.516 . S
C1406 C1407 1.502 . S
C1406 C1408 1.561 . S
C1406 C1409 1.526 1_565 S
C1407 H1391 0.959 1_565 S
C1407 H1392 0.959 1_565 S
C1407 H1393 0.961 . S
C1407 C1406 1.502 . S
C1408 H1394 0.960 . S
C1408 H1395 0.961 . S
C1408 H1396 0.959 . S
C1408 C1406 1.561 . S
C1409 C1406 1.526 1_545 S
C1409 C1410 1.396 . S
C1409 C1414 1.390 . S
C1410 C1404 1.465 1_545 S
C1410 C1409 1.396 . S
C1410 C1411 1.399 . S
C1411 H1397 0.929 . S
C1411 C1410 1.399 . S
C1411 C1412 1.385 . S
C1412 H1398 0.931 . S
C1412 C1411 1.385 . S
C1412 C1413 1.389 . S
C1413 C1412 1.389 . S
C1413 C1414 1.387 . S
C1414 H1399 0.930 . S
C1414 C1409 1.390 . S
C1414 C1413 1.387 . S
H1415 C1427 0.930 . S
H1416 C1429 0.930 . S
H1417 C1430 0.896 1_455 S
H1418 C1434 0.940 1_455 S
H1419 C1434 0.959 . S
H1420 C1434 0.961 . S
H1421 C1435 0.960 . S
H1422 C1435 0.961 . S
H1423 C1435 0.959 . S
H1424 C1438 0.929 . S
H1425 C1439 0.931 . S
H1426 C1441 0.930 . S
C1427 H1415 0.930 . S
C1427 C1428 1.399 . S
C1427 C1432 1.399 . S
C1428 C1427 1.399 . S
C1428 C1429 1.376 . S
C1429 H1416 0.930 . S
C1429 C1428 1.376 . S
C1429 C1430 1.388 . S
C1430 H1417 0.896 1_655 S
C1430 C1429 1.388 . S
C1430 C1431 1.390 . S
C1431 C1430 1.390 . S
C1431 C1432 1.394 . S
C1431 C1437 1.465 1_655 S
C1432 C1427 1.399 . S
C1432 C1431 1.394 . S
C1432 C1433 1.516 . S
C1433 C1432 1.516 . S
C1433 C1434 1.502 . S
C1433 C1435 1.561 . S
C1433 C1436 1.526 1_655 S
C1434 H1418 0.940 1_655 S
C1434 H1419 0.959 . S
C1434 H1420 0.961 . S
C1434 C1433 1.502 . S
C1435 H1421 0.960 . S
C1435 H1422 0.961 . S
C1435 H1423 0.959 . S
C1435 C1433 1.561 . S
C1436 C1433 1.526 1_455 S
C1436 C1437 1.396 . S
C1436 C1441 1.390 . S
C1437 C1431 1.465 1_455 S
C1437 C1436 1.396 . S
C1437 C1438 1.399 . S
C1438 H1424 0.929 . S
C1438 C1437 1.399 . S
C1438 C1439 1.385 . S
C1439 H1425 0.931 . S
C1439 C1438 1.385 . S
C1439 C1440 1.389 . S
C1440 C1439 1.389 . S
C1440 C1441 1.387 . S
C1441 H1426 0.930 . S
C1441 C1436 1.390 . S
C1441 C1440 1.387 . S
H1442 C1454 0.930 . S
H1443 C1456 0.930 . S
H1444 C1457 0.930 . S
H1445 C1461 0.959 . S
H1446 C1461 0.959 . S
H1447 C1461 0.961 . S
H1448 C1462 0.960 . S
H1449 C1462 0.961 . S
H1450 C1462 0.959 . S
H1451 C1465 0.929 1_565 S
H1452 C1466 0.931 . S
H1453 C1468 0.930 . S
C1454 H1442 0.930 . S
C1454 C1455 1.399 . S
C1454 C1459 1.399 . S
C1455 C1454 1.399 . S
C1455 C1456 1.376 . S
C1456 H1443 0.930 . S
C1456 C1455 1.376 . S
C1456 C1457 1.388 . S
C1457 H1444 0.930 . S
C1457 C1456 1.388 . S
C1457 C1458 1.390 . S
C1458 C1457 1.390 . S
C1458 C1459 1.394 . S
C1458 C1464 1.465 1_565 S
C1459 C1454 1.399 . S
C1459 C1458 1.394 . S
C1459 C1460 1.516 1_565 S
C1460 C1459 1.516 1_545 S
C1460 C1461 1.502 . S
C1460 C1462 1.561 . S
C1460 C1463 1.526 . S
C1461 H1445 0.959 . S
C1461 H1446 0.959 . S
C1461 H1447 0.961 . S
C1461 C1460 1.502 . S
C1462 H1448 0.960 . S
C1462 H1449 0.961 . S
C1462 H1450 0.959 . S
C1462 C1460 1.561 . S
C1463 C1460 1.526 . S
C1463 C1464 1.396 . S
C1463 C1468 1.390 . S
C1464 C1458 1.465 1_545 S
C1464 C1463 1.396 . S
C1464 C1465 1.399 . S
C1465 H1451 0.929 1_545 S
C1465 C1464 1.399 . S
C1465 C1466 1.385 . S
C1466 H1452 0.931 . S
C1466 C1465 1.385 . S
C1466 C1467 1.389 . S
C1467 C1466 1.389 . S
C1467 C1468 1.387 . S
C1468 H1453 0.930 . S
C1468 C1463 1.390 . S
C1468 C1467 1.387 . S
H1469 C1481 0.930 . S
H1470 C1483 0.930 . S
H1471 C1484 0.930 1_455 S
H1472 C1488 0.959 . S
H1473 C1488 0.959 . S
H1474 C1488 0.961 . S
H1475 C1489 0.960 . S
H1476 C1489 0.961 . S
H1477 C1489 0.959 . S
H1478 C1492 0.929 . S
H1479 C1493 0.931 . S
H1480 C1495 0.930 . S
C1481 H1469 0.930 . S
C1481 C1482 1.399 . S
C1481 C1486 1.399 . S
C1482 C1481 1.399 . S
C1482 C1483 1.376 . S
C1483 H1470 0.930 . S
C1483 C1482 1.376 . S
C1483 C1484 1.388 . S
C1484 H1471 0.930 1_655 S
C1484 C1483 1.388 . S
C1484 C1485 1.390 . S
C1485 C1484 1.390 . S
C1485 C1486 1.394 . S
C1485 C1491 1.465 1_655 S
C1486 C1481 1.399 . S
C1486 C1485 1.394 . S
C1486 C1487 1.516 . S
C1487 C1486 1.516 . S
C1487 C1488 1.502 . S
C1487 C1489 1.561 . S
C1487 C1490 1.526 1_655 S
C1488 H1472 0.959 . S
C1488 H1473 0.959 . S
C1488 H1474 0.961 . S
C1488 C1487 1.502 . S
C1489 H1475 0.960 . S
C1489 H1476 0.961 . S
C1489 H1477 0.959 . S
C1489 C1487 1.561 . S
C1490 C1487 1.526 1_455 S
C1490 C1491 1.396 . S
C1490 C1495 1.390 . S
C1491 C1485 1.465 1_455 S
C1491 C1490 1.396 . S
C1491 C1492 1.399 . S
C1492 H1478 0.929 . S
C1492 C1491 1.399 . S
C1492 C1493 1.385 . S
C1493 H1479 0.931 . S
C1493 C1492 1.385 . S
C1493 C1494 1.389 . S
C1494 C1493 1.389 . S
C1494 C1495 1.387 . S
C1495 H1480 0.930 . S
C1495 C1490 1.390 . S
C1495 C1494 1.387 . S
H1496 C1508 0.930 . S
H1497 C1510 0.930 . S
H1498 C1511 0.930 . S
H1499 C1515 0.959 . S
H1500 C1515 0.959 . S
H1501 C1515 0.961 . S
H1502 C1516 0.960 . S
H1503 C1516 0.961 . S
H1504 C1516 0.959 . S
H1505 C1519 0.929 . S
H1506 C1520 0.931 . S
H1507 C1522 0.930 . S
C1508 H1496 0.930 . S
C1508 C1509 1.399 . S
C1508 C1513 1.399 . S
C1509 C1508 1.399 . S
C1509 C1510 1.376 . S
C1510 H1497 0.930 . S
C1510 C1509 1.376 . S
C1510 C1511 1.388 . S
C1511 H1498 0.930 . S
C1511 C1510 1.388 . S
C1511 C1512 1.390 . S
C1512 C1511 1.390 . S
C1512 C1513 1.394 . S
C1512 C1518 1.465 . S
C1513 C1508 1.399 . S
C1513 C1512 1.394 . S
C1513 C1514 1.516 . S
C1514 C1513 1.516 . S
C1514 C1515 1.502 . S
C1514 C1516 1.561 . S
C1514 C1517 1.526 . S
C1515 H1499 0.959 . S
C1515 H1500 0.959 . S
C1515 H1501 0.961 . S
C1515 C1514 1.502 . S
C1516 H1502 0.960 . S
C1516 H1503 0.961 . S
C1516 H1504 0.959 . S
C1516 C1514 1.561 . S
C1517 C1514 1.526 . S
C1517 C1518 1.396 . S
C1517 C1522 1.390 . S
C1518 C1512 1.465 . S
C1518 C1517 1.396 . S
C1518 C1519 1.399 . S
C1519 H1505 0.929 . S
C1519 C1518 1.399 . S
C1519 C1520 1.385 . S
C1520 H1506 0.931 . S
C1520 C1519 1.385 . S
C1520 C1521 1.389 . S
C1521 C1520 1.389 . S
C1521 C1522 1.387 . S
C1522 H1507 0.930 . S
C1522 C1517 1.390 . S
C1522 C1521 1.387 . S
H1523 C1535 0.930 . S
H1524 C1537 0.930 . S
H1525 C1538 0.930 . S
H1526 C1542 0.959 . S
H1527 C1542 0.959 . S
H1528 C1542 0.961 . S
H1529 C1543 0.960 . S
H1530 C1543 0.961 . S
H1531 C1543 0.959 . S
H1532 C1546 0.929 . S
H1533 C1547 0.931 . S
H1534 C1549 0.930 . S
C1535 H1523 0.930 . S
C1535 C1536 1.399 . S
C1535 C1540 1.399 . S
C1536 C1535 1.399 . S
C1536 C1537 1.376 . S
C1537 H1524 0.930 . S
C1537 C1536 1.376 . S
C1537 C1538 1.388 . S
C1538 H1525 0.930 . S
C1538 C1537 1.388 . S
C1538 C1539 1.390 . S
C1539 C1538 1.390 . S
C1539 C1540 1.394 . S
C1539 C1545 1.465 . S
C1540 C1535 1.399 . S
C1540 C1539 1.394 . S
C1540 C1541 1.516 . S
C1541 C1540 1.516 . S
C1541 C1542 1.502 . S
C1541 C1543 1.561 . S
C1541 C1544 1.526 . S
C1542 H1526 0.959 . S
C1542 H1527 0.959 . S
C1542 H1528 0.961 . S
C1542 C1541 1.502 . S
C1543 H1529 0.960 . S
C1543 H1530 0.961 . S
C1543 H1531 0.959 . S
C1543 C1541 1.561 . S
C1544 C1541 1.526 . S
C1544 C1545 1.396 . S
C1544 C1549 1.390 . S
C1545 C1539 1.465 . S
C1545 C1544 1.396 . S
C1545 C1546 1.399 . S
C1546 H1532 0.929 . S
C1546 C1545 1.399 . S
C1546 C1547 1.385 . S
C1547 H1533 0.931 . S
C1547 C1546 1.385 . S
C1547 C1548 1.389 . S
C1548 C1547 1.389 . S
C1548 C1549 1.387 . S
C1549 H1534 0.930 . S
C1549 C1544 1.390 . S
C1549 C1548 1.387 . S
H1550 C1562 0.930 . S
H1551 C1564 0.930 . S
H1552 C1565 0.930 . S
H1553 C1569 0.959 . S
H1554 C1569 0.959 . S
H1555 C1569 0.961 . S
H1556 C1570 0.960 . S
H1557 C1570 0.961 . S
H1558 C1570 0.959 . S
H1559 C1573 0.929 . S
H1560 C1574 0.931 . S
H1561 C1576 0.930 . S
C1562 H1550 0.930 . S
C1562 C1563 1.399 . S
C1562 C1567 1.399 . S
C1563 C1562 1.399 . S
C1563 C1564 1.376 . S
C1564 H1551 0.930 . S
C1564 C1563 1.376 . S
C1564 C1565 1.388 . S
C1565 H1552 0.930 . S
C1565 C1564 1.388 . S
C1565 C1566 1.390 . S
C1566 C1565 1.390 . S
C1566 C1567 1.394 . S
C1566 C1572 1.465 . S
C1567 C1562 1.399 . S
C1567 C1566 1.394 . S
C1567 C1568 1.516 . S
C1568 C1567 1.516 . S
C1568 C1569 1.502 . S
C1568 C1570 1.561 . S
C1568 C1571 1.526 . S
C1569 H1553 0.959 . S
C1569 H1554 0.959 . S
C1569 H1555 0.961 . S
C1569 C1568 1.502 . S
C1570 H1556 0.960 . S
C1570 H1557 0.961 . S
C1570 H1558 0.959 . S
C1570 C1568 1.561 . S
C1571 C1568 1.526 . S
C1571 C1572 1.396 . S
C1571 C1576 1.390 . S
C1572 C1566 1.465 . S
C1572 C1571 1.396 . S
C1572 C1573 1.399 . S
C1573 H1559 0.929 . S
C1573 C1572 1.399 . S
C1573 C1574 1.385 . S
C1574 H1560 0.931 . S
C1574 C1573 1.385 . S
C1574 C1575 1.389 . S
C1575 C1574 1.389 . S
C1575 C1576 1.387 . S
C1576 H1561 0.930 . S
C1576 C1571 1.390 . S
C1576 C1575 1.387 . S
H1577 C1589 0.930 . S
H1578 C1591 0.930 . S
H1579 C1592 0.930 . S
H1580 C1596 0.959 . S
H1581 C1596 0.959 . S
H1582 C1596 0.961 . S
H1583 C1597 0.960 . S
H1584 C1597 0.961 . S
H1585 C1597 0.959 . S
H1586 C1600 0.929 . S
H1587 C1601 0.931 . S
H1588 C1603 0.930 . S
C1589 H1577 0.930 . S
C1589 C1590 1.399 . S
C1589 C1594 1.399 . S
C1590 C1589 1.399 . S
C1590 C1591 1.376 . S
C1591 H1578 0.930 . S
C1591 C1590 1.376 . S
C1591 C1592 1.388 . S
C1592 H1579 0.930 . S
C1592 C1591 1.388 . S
C1592 C1593 1.390 . S
C1593 C1592 1.390 . S
C1593 C1594 1.394 . S
C1593 C1599 1.465 . S
C1594 C1589 1.399 . S
C1594 C1593 1.394 . S
C1594 C1595 1.516 . S
C1595 C1594 1.516 . S
C1595 C1596 1.502 . S
C1595 C1597 1.561 . S
C1595 C1598 1.526 . S
C1596 H1580 0.959 . S
C1596 H1581 0.959 . S
C1596 H1582 0.961 . S
C1596 C1595 1.502 . S
C1597 H1583 0.960 . S
C1597 H1584 0.961 . S
C1597 H1585 0.959 . S
C1597 C1595 1.561 . S
C1598 C1595 1.526 . S
C1598 C1599 1.396 . S
C1598 C1603 1.390 . S
C1599 C1593 1.465 . S
C1599 C1598 1.396 . S
C1599 C1600 1.399 . S
C1600 H1586 0.929 . S
C1600 C1599 1.399 . S
C1600 C1601 1.385 . S
C1601 H1587 0.931 . S
C1601 C1600 1.385 . S
C1601 C1602 1.389 . S
C1602 C1601 1.389 . S
C1602 C1603 1.387 . S
C1603 H1588 0.930 . S
C1603 C1598 1.390 . S
C1603 C1602 1.387 . S
H1604 C1616 0.930 . S
H1605 C1618 0.930 . S
H1606 C1619 0.930 . S
H1607 C1623 0.959 . S
H1608 C1623 0.959 . S
H1609 C1623 0.961 . S
H1610 C1624 0.960 . S
H1611 C1624 0.961 . S
H1612 C1624 0.959 . S
H1613 C1627 0.929 . S
H1614 C1628 0.931 . S
H1615 C1630 0.930 . S
C1616 H1604 0.930 . S
C1616 C1617 1.399 . S
C1616 C1621 1.399 . S
C1617 C1616 1.399 . S
C1617 C1618 1.376 . S
C1618 H1605 0.930 . S
C1618 C1617 1.376 . S
C1618 C1619 1.388 . S
C1619 H1606 0.930 . S
C1619 C1618 1.388 . S
C1619 C1620 1.390 . S
C1620 C1619 1.390 . S
C1620 C1621 1.394 . S
C1620 C1626 1.465 . S
C1621 C1616 1.399 . S
C1621 C1620 1.394 . S
C1621 C1622 1.516 . S
C1622 C1621 1.516 . S
C1622 C1623 1.502 . S
C1622 C1624 1.561 . S
C1622 C1625 1.526 . S
C1623 H1607 0.959 . S
C1623 H1608 0.959 . S
C1623 H1609 0.961 . S
C1623 C1622 1.502 . S
C1624 H1610 0.960 . S
C1624 H1611 0.961 . S
C1624 H1612 0.959 . S
C1624 C1622 1.561 . S
C1625 C1622 1.526 . S
C1625 C1626 1.396 . S
C1625 C1630 1.390 . S
C1626 C1620 1.465 . S
C1626 C1625 1.396 . S
C1626 C1627 1.399 . S
C1627 H1613 0.929 . S
C1627 C1626 1.399 . S
C1627 C1628 1.385 . S
C1628 H1614 0.931 . S
C1628 C1627 1.385 . S
C1628 C1629 1.389 . S
C1629 C1628 1.389 . S
C1629 C1630 1.387 . S
C1630 H1615 0.930 . S
C1630 C1625 1.390 . S
C1630 C1629 1.387 . S
H1631 C1643 0.930 . S
H1632 C1645 0.930 . S
H1633 C1646 0.930 . S
H1634 C1650 0.959 . S
H1635 C1650 0.959 . S
H1636 C1650 0.961 . S
H1637 C1651 0.960 . S
H1638 C1651 0.961 . S
H1639 C1651 0.959 . S
H1640 C1654 0.929 . S
H1641 C1655 0.931 . S
H1642 C1657 0.930 . S
C1643 H1631 0.930 . S
C1643 C1644 1.399 . S
C1643 C1648 1.399 . S
C1644 C1643 1.399 . S
C1644 C1645 1.376 . S
C1645 H1632 0.930 . S
C1645 C1644 1.376 . S
C1645 C1646 1.388 . S
C1646 H1633 0.930 . S
C1646 C1645 1.388 . S
C1646 C1647 1.390 . S
C1647 C1646 1.390 . S
C1647 C1648 1.394 . S
C1647 C1653 1.465 . S
C1648 C1643 1.399 . S
C1648 C1647 1.394 . S
C1648 C1649 1.516 . S
C1649 C1648 1.516 . S
C1649 C1650 1.502 . S
C1649 C1651 1.561 . S
C1649 C1652 1.526 . S
C1650 H1634 0.959 . S
C1650 H1635 0.959 . S
C1650 H1636 0.961 . S
C1650 C1649 1.502 . S
C1651 H1637 0.960 . S
C1651 H1638 0.961 . S
C1651 H1639 0.959 . S
C1651 C1649 1.561 . S
C1652 C1649 1.526 . S
C1652 C1653 1.396 . S
C1652 C1657 1.390 . S
C1653 C1647 1.465 . S
C1653 C1652 1.396 . S
C1653 C1654 1.399 . S
C1654 H1640 0.929 . S
C1654 C1653 1.399 . S
C1654 C1655 1.385 . S
C1655 H1641 0.931 . S
C1655 C1654 1.385 . S
C1655 C1656 1.389 . S
C1656 C1655 1.389 . S
C1656 C1657 1.387 . S
C1657 H1642 0.930 . S
C1657 C1652 1.390 . S
C1657 C1656 1.387 . S
H1658 C1670 0.930 . S
H1659 C1672 0.930 . S
H1660 C1673 0.930 . S
H1661 C1677 0.959 . S
H1662 C1677 0.959 . S
H1663 C1677 0.961 . S
H1664 C1678 0.960 . S
H1665 C1678 0.961 . S
H1666 C1678 0.959 . S
H1667 C1681 0.929 . S
H1668 C1682 0.931 . S
H1669 C1684 0.930 . S
C1670 H1658 0.930 . S
C1670 C1671 1.399 . S
C1670 C1675 1.399 . S
C1671 C1670 1.399 . S
C1671 C1672 1.376 . S
C1672 H1659 0.930 . S
C1672 C1671 1.376 . S
C1672 C1673 1.388 . S
C1673 H1660 0.930 . S
C1673 C1672 1.388 . S
C1673 C1674 1.390 . S
C1674 C1673 1.390 . S
C1674 C1675 1.394 . S
C1674 C1680 1.465 . S
C1675 C1670 1.399 . S
C1675 C1674 1.394 . S
C1675 C1676 1.516 . S
C1676 C1675 1.516 . S
C1676 C1677 1.502 . S
C1676 C1678 1.561 . S
C1676 C1679 1.526 . S
C1677 H1661 0.959 . S
C1677 H1662 0.959 . S
C1677 H1663 0.961 . S
C1677 C1676 1.502 . S
C1678 H1664 0.960 . S
C1678 H1665 0.961 . S
C1678 H1666 0.959 . S
C1678 C1676 1.561 . S
C1679 C1676 1.526 . S
C1679 C1680 1.396 . S
C1679 C1684 1.390 . S
C1680 C1674 1.465 . S
C1680 C1679 1.396 . S
C1680 C1681 1.399 . S
C1681 H1667 0.929 . S
C1681 C1680 1.399 . S
C1681 C1682 1.385 . S
C1682 H1668 0.931 . S
C1682 C1681 1.385 . S
C1682 C1683 1.389 . S
C1683 C1682 1.389 . S
C1683 C1684 1.387 . S
C1684 H1669 0.930 . S
C1684 C1679 1.390 . S
C1684 C1683 1.387 . S
H1685 C1697 0.930 . S
H1686 C1699 0.930 . S
H1687 C1700 0.930 . S
H1688 C1704 0.959 . S
H1689 C1704 0.959 . S
H1690 C1704 0.961 . S
H1691 C1705 0.960 . S
H1692 C1705 0.961 . S
H1693 C1705 0.959 . S
H1694 C1708 0.929 . S
H1695 C1709 0.931 . S
H1696 C1711 0.930 . S
C1697 H1685 0.930 . S
C1697 C1698 1.399 . S
C1697 C1702 1.399 . S
C1698 C1697 1.399 . S
C1698 C1699 1.376 . S
C1699 H1686 0.930 . S
C1699 C1698 1.376 . S
C1699 C1700 1.388 . S
C1700 H1687 0.930 . S
C1700 C1699 1.388 . S
C1700 C1701 1.390 . S
C1701 C1700 1.390 . S
C1701 C1702 1.394 . S
C1701 C1707 1.465 . S
C1702 C1697 1.399 . S
C1702 C1701 1.394 . S
C1702 C1703 1.516 . S
C1703 C1702 1.516 . S
C1703 C1704 1.502 . S
C1703 C1705 1.561 . S
C1703 C1706 1.526 . S
C1704 H1688 0.959 . S
C1704 H1689 0.959 . S
C1704 H1690 0.961 . S
C1704 C1703 1.502 . S
C1705 H1691 0.960 . S
C1705 H1692 0.961 . S
C1705 H1693 0.959 . S
C1705 C1703 1.561 . S
C1706 C1703 1.526 . S
C1706 C1707 1.396 . S
C1706 C1711 1.390 . S
C1707 C1701 1.465 . S
C1707 C1706 1.396 . S
C1707 C1708 1.399 . S
C1708 H1694 0.929 . S
C1708 C1707 1.399 . S
C1708 C1709 1.385 . S
C1709 H1695 0.931 . S
C1709 C1708 1.385 . S
C1709 C1710 1.389 . S
C1710 C1709 1.389 . S
C1710 C1711 1.387 . S
C1711 H1696 0.930 . S
C1711 C1706 1.390 . S
C1711 C1710 1.387 . S
H1712 C1724 0.930 . S
H1713 C1726 0.930 . S
H1714 C1727 0.930 . S
H1715 C1731 0.959 . S
H1716 C1731 0.959 . S
H1717 C1731 0.961 . S
H1718 C1732 0.960 . S
H1719 C1732 0.961 . S
H1720 C1732 0.959 . S
H1721 C1735 0.929 . S
H1722 C1736 0.931 . S
H1723 C1738 0.930 . S
C1724 H1712 0.930 . S
C1724 C1725 1.399 . S
C1724 C1729 1.399 . S
C1725 C1724 1.399 . S
C1725 C1726 1.376 . S
C1726 H1713 0.930 . S
C1726 C1725 1.376 . S
C1726 C1727 1.388 . S
C1727 H1714 0.930 . S
C1727 C1726 1.388 . S
C1727 C1728 1.390 . S
C1728 C1727 1.390 . S
C1728 C1729 1.394 . S
C1728 C1734 1.465 . S
C1729 C1724 1.399 . S
C1729 C1728 1.394 . S
C1729 C1730 1.516 . S
C1730 C1729 1.516 . S
C1730 C1731 1.502 . S
C1730 C1732 1.561 . S
C1730 C1733 1.526 . S
C1731 H1715 0.959 . S
C1731 H1716 0.959 . S
C1731 H1717 0.961 . S
C1731 C1730 1.502 . S
C1732 H1718 0.960 . S
C1732 H1719 0.961 . S
C1732 H1720 0.959 . S
C1732 C1730 1.561 . S
C1733 C1730 1.526 . S
C1733 C1734 1.396 . S
C1733 C1738 1.390 . S
C1734 C1728 1.465 . S
C1734 C1733 1.396 . S
C1734 C1735 1.399 . S
C1735 H1721 0.929 . S
C1735 C1734 1.399 . S
C1735 C1736 1.385 . S
C1736 H1722 0.931 . S
C1736 C1735 1.385 . S
C1736 C1737 1.389 . S
C1737 C1736 1.389 . S
C1737 C1738 1.387 . S
C1738 H1723 0.930 . S
C1738 C1733 1.390 . S
C1738 C1737 1.387 . S
H1739 C1751 0.930 . S
H1740 C1753 0.930 . S
H1741 C1754 0.930 . S
H1742 C1758 0.959 . S
H1743 C1758 0.959 . S
H1744 C1758 0.961 . S
H1745 C1759 0.960 . S
H1746 C1759 0.961 . S
H1747 C1759 0.959 . S
H1748 C1762 0.929 . S
H1749 C1763 0.931 . S
H1750 C1765 0.930 . S
C1751 H1739 0.930 . S
C1751 C1752 1.399 . S
C1751 C1756 1.399 . S
C1752 C1751 1.399 . S
C1752 C1753 1.376 . S
C1753 H1740 0.930 . S
C1753 C1752 1.376 . S
C1753 C1754 1.388 . S
C1754 H1741 0.930 . S
C1754 C1753 1.388 . S
C1754 C1755 1.390 . S
C1755 C1754 1.390 . S
C1755 C1756 1.394 . S
C1755 C1761 1.465 . S
C1756 C1751 1.399 . S
C1756 C1755 1.394 . S
C1756 C1757 1.516 . S
C1757 C1756 1.516 . S
C1757 C1758 1.502 . S
C1757 C1759 1.561 . S
C1757 C1760 1.526 . S
C1758 H1742 0.959 . S
C1758 H1743 0.959 . S
C1758 H1744 0.961 . S
C1758 C1757 1.502 . S
C1759 H1745 0.960 . S
C1759 H1746 0.961 . S
C1759 H1747 0.959 . S
C1759 C1757 1.561 . S
C1760 C1757 1.526 . S
C1760 C1761 1.396 . S
C1760 C1765 1.390 . S
C1761 C1755 1.465 . S
C1761 C1760 1.396 . S
C1761 C1762 1.399 . S
C1762 H1748 0.929 . S
C1762 C1761 1.399 . S
C1762 C1763 1.385 . S
C1763 H1749 0.931 . S
C1763 C1762 1.385 . S
C1763 C1764 1.389 . S
C1764 C1763 1.389 . S
C1764 C1765 1.387 . S
C1765 H1750 0.930 . S
C1765 C1760 1.390 . S
C1765 C1764 1.387 . S
H1766 C1778 0.930 . S
H1767 C1780 0.930 . S
H1768 C1781 0.930 . S
H1769 C1785 0.959 . S
H1770 C1785 0.959 . S
H1771 C1785 0.961 . S
H1772 C1786 0.960 . S
H1773 C1786 0.961 . S
H1774 C1786 0.959 . S
H1775 C1789 0.929 . S
H1776 C1790 0.931 . S
H1777 C1792 0.930 . S
C1778 H1766 0.930 . S
C1778 C1779 1.399 . S
C1778 C1783 1.399 . S
C1779 C1778 1.399 . S
C1779 C1780 1.376 . S
C1780 H1767 0.930 . S
C1780 C1779 1.376 . S
C1780 C1781 1.388 . S
C1781 H1768 0.930 . S
C1781 C1780 1.388 . S
C1781 C1782 1.390 . S
C1782 C1781 1.390 . S
C1782 C1783 1.394 . S
C1782 C1788 1.465 . S
C1783 C1778 1.399 . S
C1783 C1782 1.394 . S
C1783 C1784 1.516 . S
C1784 C1783 1.516 . S
C1784 C1785 1.502 . S
C1784 C1786 1.561 . S
C1784 C1787 1.526 . S
C1785 H1769 0.959 . S
C1785 H1770 0.959 . S
C1785 H1771 0.961 . S
C1785 C1784 1.502 . S
C1786 H1772 0.960 . S
C1786 H1773 0.961 . S
C1786 H1774 0.959 . S
C1786 C1784 1.561 . S
C1787 C1784 1.526 . S
C1787 C1788 1.396 . S
C1787 C1792 1.390 . S
C1788 C1782 1.465 . S
C1788 C1787 1.396 . S
C1788 C1789 1.399 . S
C1789 H1775 0.929 . S
C1789 C1788 1.399 . S
C1789 C1790 1.385 . S
C1790 H1776 0.931 . S
C1790 C1789 1.385 . S
C1790 C1791 1.389 . S
C1791 C1790 1.389 . S
C1791 C1792 1.387 . S
C1792 H1777 0.930 . S
C1792 C1787 1.390 . S
C1792 C1791 1.387 . S
H1793 C1805 0.930 . S
H1794 C1807 0.930 . S
H1795 C1808 0.930 . S
H1796 C1812 0.959 . S
H1797 C1812 0.959 . S
H1798 C1812 0.961 . S
H1799 C1813 0.960 . S
H1800 C1813 0.961 . S
H1801 C1813 0.959 . S
H1802 C1816 0.929 . S
H1803 C1817 0.931 . S
H1804 C1819 0.930 . S
C1805 H1793 0.930 . S
C1805 C1806 1.399 . S
C1805 C1810 1.399 . S
C1806 C1805 1.399 . S
C1806 C1807 1.376 . S
C1807 H1794 0.930 . S
C1807 C1806 1.376 . S
C1807 C1808 1.388 . S
C1808 H1795 0.930 . S
C1808 C1807 1.388 . S
C1808 C1809 1.390 . S
C1809 C1808 1.390 . S
C1809 C1810 1.394 . S
C1809 C1815 1.465 . S
C1810 C1805 1.399 . S
C1810 C1809 1.394 . S
C1810 C1811 1.516 . S
C1811 C1810 1.516 . S
C1811 C1812 1.502 . S
C1811 C1813 1.561 . S
C1811 C1814 1.526 . S
C1812 H1796 0.959 . S
C1812 H1797 0.959 . S
C1812 H1798 0.961 . S
C1812 C1811 1.502 . S
C1813 H1799 0.960 . S
C1813 H1800 0.961 . S
C1813 H1801 0.959 . S
C1813 C1811 1.561 . S
C1814 C1811 1.526 . S
C1814 C1815 1.396 . S
C1814 C1819 1.390 . S
C1815 C1809 1.465 . S
C1815 C1814 1.396 . S
C1815 C1816 1.399 . S
C1816 H1802 0.929 . S
C1816 C1815 1.399 . S
C1816 C1817 1.385 . S
C1817 H1803 0.931 . S
C1817 C1816 1.385 . S
C1817 C1818 1.389 . S
C1818 C1817 1.389 . S
C1818 C1819 1.387 . S
C1819 H1804 0.930 . S
C1819 C1814 1.390 . S
C1819 C1818 1.387 . S
H1820 C1832 0.930 . S
H1821 C1834 0.930 . S
H1822 C1835 0.930 . S
H1823 C1839 0.959 . S
H1824 C1839 0.959 . S
H1825 C1839 0.961 . S
H1826 C1840 0.960 . S
H1827 C1840 0.961 . S
H1828 C1840 0.959 . S
H1829 C1843 0.929 . S
H1830 C1844 0.931 . S
H1831 C1846 0.930 . S
C1832 H1820 0.930 . S
C1832 C1833 1.399 . S
C1832 C1837 1.399 . S
C1833 C1832 1.399 . S
C1833 C1834 1.376 . S
C1834 H1821 0.930 . S
C1834 C1833 1.376 . S
C1834 C1835 1.388 . S
C1835 H1822 0.930 . S
C1835 C1834 1.388 . S
C1835 C1836 1.390 . S
C1836 C1835 1.390 . S
C1836 C1837 1.394 . S
C1836 C1842 1.465 . S
C1837 C1832 1.399 . S
C1837 C1836 1.394 . S
C1837 C1838 1.516 . S
C1838 C1837 1.516 . S
C1838 C1839 1.502 . S
C1838 C1840 1.561 . S
C1838 C1841 1.526 . S
C1839 H1823 0.959 . S
C1839 H1824 0.959 . S
C1839 H1825 0.961 . S
C1839 C1838 1.502 . S
C1840 H1826 0.960 . S
C1840 H1827 0.961 . S
C1840 H1828 0.959 . S
C1840 C1838 1.561 . S
C1841 C1838 1.526 . S
C1841 C1842 1.396 . S
C1841 C1846 1.390 . S
C1842 C1836 1.465 . S
C1842 C1841 1.396 . S
C1842 C1843 1.399 . S
C1843 H1829 0.929 . S
C1843 C1842 1.399 . S
C1843 C1844 1.385 . S
C1844 H1830 0.931 . S
C1844 C1843 1.385 . S
C1844 C1845 1.389 . S
C1845 C1844 1.389 . S
C1845 C1846 1.387 . S
C1846 H1831 0.930 . S
C1846 C1841 1.390 . S
C1846 C1845 1.387 . S
H1847 C1859 0.930 . S
H1848 C1861 0.930 . S
H1849 C1862 0.930 . S
H1850 C1866 0.959 . S
H1851 C1866 0.959 . S
H1852 C1866 0.961 . S
H1853 C1867 0.960 . S
H1854 C1867 0.961 . S
H1855 C1867 0.959 . S
H1856 C1870 0.929 . S
H1857 C1871 0.931 . S
H1858 C1873 0.930 . S
C1859 H1847 0.930 . S
C1859 C1860 1.399 . S
C1859 C1864 1.399 . S
C1860 C1859 1.399 . S
C1860 C1861 1.376 . S
C1861 H1848 0.930 . S
C1861 C1860 1.376 . S
C1861 C1862 1.388 . S
C1862 H1849 0.930 . S
C1862 C1861 1.388 . S
C1862 C1863 1.390 . S
C1863 C1862 1.390 . S
C1863 C1864 1.394 . S
C1863 C1869 1.465 . S
C1864 C1859 1.399 . S
C1864 C1863 1.394 . S
C1864 C1865 1.516 . S
C1865 C1864 1.516 . S
C1865 C1866 1.502 . S
C1865 C1867 1.561 . S
C1865 C1868 1.526 . S
C1866 H1850 0.959 . S
C1866 H1851 0.959 . S
C1866 H1852 0.961 . S
C1866 C1865 1.502 . S
C1867 H1853 0.960 . S
C1867 H1854 0.961 . S
C1867 H1855 0.959 . S
C1867 C1865 1.561 . S
C1868 C1865 1.526 . S
C1868 C1869 1.396 . S
C1868 C1873 1.390 . S
C1869 C1863 1.465 . S
C1869 C1868 1.396 . S
C1869 C1870 1.399 . S
C1870 H1856 0.929 . S
C1870 C1869 1.399 . S
C1870 C1871 1.385 . S
C1871 H1857 0.931 . S
C1871 C1870 1.385 . S
C1871 C1872 1.389 . S
C1872 C1871 1.389 . S
C1872 C1873 1.387 . S
C1873 H1858 0.930 . S
C1873 C1868 1.390 . S
C1873 C1872 1.387 . S
H1874 C1886 0.930 . S
H1875 C1888 0.930 . S
H1876 C1889 0.930 . S
H1877 C1893 0.959 . S
H1878 C1893 0.959 . S
H1879 C1893 0.961 . S
H1880 C1894 0.960 . S
H1881 C1894 0.961 . S
H1882 C1894 0.959 . S
H1883 C1897 0.929 . S
H1884 C1898 0.931 . S
H1885 C1900 0.930 . S
C1886 H1874 0.930 . S
C1886 C1887 1.399 . S
C1886 C1891 1.399 . S
C1887 C1886 1.399 . S
C1887 C1888 1.376 . S
C1888 H1875 0.930 . S
C1888 C1887 1.376 . S
C1888 C1889 1.388 . S
C1889 H1876 0.930 . S
C1889 C1888 1.388 . S
C1889 C1890 1.390 . S
C1890 C1889 1.390 . S
C1890 C1891 1.394 . S
C1890 C1896 1.465 . S
C1891 C1886 1.399 . S
C1891 C1890 1.394 . S
C1891 C1892 1.516 . S
C1892 C1891 1.516 . S
C1892 C1893 1.502 . S
C1892 C1894 1.561 . S
C1892 C1895 1.526 . S
C1893 H1877 0.959 . S
C1893 H1878 0.959 . S
C1893 H1879 0.961 . S
C1893 C1892 1.502 . S
C1894 H1880 0.960 . S
C1894 H1881 0.961 . S
C1894 H1882 0.959 . S
C1894 C1892 1.561 . S
C1895 C1892 1.526 . S
C1895 C1896 1.396 . S
C1895 C1900 1.390 . S
C1896 C1890 1.465 . S
C1896 C1895 1.396 . S
C1896 C1897 1.399 . S
C1897 H1883 0.929 . S
C1897 C1896 1.399 . S
C1897 C1898 1.385 . S
C1898 H1884 0.931 . S
C1898 C1897 1.385 . S
C1898 C1899 1.389 . S
C1899 C1898 1.389 . S
C1899 C1900 1.387 . S
C1900 H1885 0.930 . S
C1900 C1895 1.390 . S
C1900 C1899 1.387 . S
H1901 C1913 0.930 . S
H1902 C1915 0.930 . S
H1903 C1916 0.930 . S
H1904 C1920 0.959 . S
H1905 C1920 0.959 . S
H1906 C1920 0.961 . S
H1907 C1921 0.960 . S
H1908 C1921 0.961 . S
H1909 C1921 0.959 . S
H1910 C1924 0.929 . S
H1911 C1925 0.931 . S
H1912 C1927 0.930 . S
C1913 H1901 0.930 . S
C1913 C1914 1.399 . S
C1913 C1918 1.399 . S
C1914 C1913 1.399 . S
C1914 C1915 1.376 . S
C1915 H1902 0.930 . S
C1915 C1914 1.376 . S
C1915 C1916 1.388 . S
C1916 H1903 0.930 . S
C1916 C1915 1.388 . S
C1916 C1917 1.390 . S
C1917 C1916 1.390 . S
C1917 C1918 1.394 . S
C1917 C1923 1.465 . S
C1918 C1913 1.399 . S
C1918 C1917 1.394 . S
C1918 C1919 1.516 . S
C1919 C1918 1.516 . S
C1919 C1920 1.502 . S
C1919 C1921 1.561 . S
C1919 C1922 1.526 . S
C1920 H1904 0.959 . S
C1920 H1905 0.959 . S
C1920 H1906 0.961 . S
C1920 C1919 1.502 . S
C1921 H1907 0.960 . S
C1921 H1908 0.961 . S
C1921 H1909 0.959 . S
C1921 C1919 1.561 . S
C1922 C1919 1.526 . S
C1922 C1923 1.396 . S
C1922 C1927 1.390 . S
C1923 C1917 1.465 . S
C1923 C1922 1.396 . S
C1923 C1924 1.399 . S
C1924 H1910 0.929 . S
C1924 C1923 1.399 . S
C1924 C1925 1.385 . S
C1925 H1911 0.931 . S
C1925 C1924 1.385 . S
C1925 C1926 1.389 . S
C1926 C1925 1.389 . S
C1926 C1927 1.387 . S
C1927 H1912 0.930 . S
C1927 C1922 1.390 . S
C1927 C1926 1.387 . S
H1928 C1940 0.930 . S
H1929 C1942 0.930 . S
H1930 C1943 0.930 . S
H1931 C1947 0.959 . S
H1932 C1947 0.959 . S
H1933 C1947 0.961 . S
H1934 C1948 0.960 . S
H1935 C1948 0.961 . S
H1936 C1948 0.959 . S
H1937 C1951 0.929 . S
H1938 C1952 0.931 . S
H1939 C1954 0.930 . S
C1940 H1928 0.930 . S
C1940 C1941 1.399 . S
C1940 C1945 1.399 . S
C1941 C1940 1.399 . S
C1941 C1942 1.376 . S
C1942 H1929 0.930 . S
C1942 C1941 1.376 . S
C1942 C1943 1.388 . S
C1943 H1930 0.930 . S
C1943 C1942 1.388 . S
C1943 C1944 1.390 . S
C1944 C1943 1.390 . S
C1944 C1945 1.394 . S
C1944 C1950 1.465 . S
C1945 C1940 1.399 . S
C1945 C1944 1.394 . S
C1945 C1946 1.516 . S
C1946 C1945 1.516 . S
C1946 C1947 1.502 . S
C1946 C1948 1.561 . S
C1946 C1949 1.526 . S
C1947 H1931 0.959 . S
C1947 H1932 0.959 . S
C1947 H1933 0.961 . S
C1947 C1946 1.502 . S
C1948 H1934 0.960 . S
C1948 H1935 0.961 . S
C1948 H1936 0.959 . S
C1948 C1946 1.561 . S
C1949 C1946 1.526 . S
C1949 C1950 1.396 . S
C1949 C1954 1.390 . S
C1950 C1944 1.465 . S
C1950 C1949 1.396 . S
C1950 C1951 1.399 . S
C1951 H1937 0.929 . S
C1951 C1950 1.399 . S
C1951 C1952 1.385 . S
C1952 H1938 0.931 . S
C1952 C1951 1.385 . S
C1952 C1953 1.389 . S
C1953 C1952 1.389 . S
C1953 C1954 1.387 . S
C1954 H1939 0.930 . S
C1954 C1949 1.390 . S
C1954 C1953 1.387 . S
H1955 C1967 0.930 . S
H1956 C1969 0.930 . S
H1957 C1970 0.930 . S
H1958 C1974 0.959 . S
H1959 C1974 0.959 . S
H1960 C1974 0.961 . S
H1961 C1975 0.960 . S
H1962 C1975 0.961 . S
H1963 C1975 0.959 . S
H1964 C1978 0.929 . S
H1965 C1979 0.931 . S
H1966 C1981 0.930 . S
C1967 H1955 0.930 . S
C1967 C1968 1.399 . S
C1967 C1972 1.399 . S
C1968 C1967 1.399 . S
C1968 C1969 1.376 . S
C1969 H1956 0.930 . S
C1969 C1968 1.376 . S
C1969 C1970 1.388 . S
C1970 H1957 0.930 . S
C1970 C1969 1.388 . S
C1970 C1971 1.390 . S
C1971 C1970 1.390 . S
C1971 C1972 1.394 . S
C1971 C1977 1.465 . S
C1972 C1967 1.399 . S
C1972 C1971 1.394 . S
C1972 C1973 1.516 . S
C1973 C1972 1.516 . S
C1973 C1974 1.502 . S
C1973 C1975 1.561 . S
C1973 C1976 1.526 . S
C1974 H1958 0.959 . S
C1974 H1959 0.959 . S
C1974 H1960 0.961 . S
C1974 C1973 1.502 . S
C1975 H1961 0.960 . S
C1975 H1962 0.961 . S
C1975 H1963 0.959 . S
C1975 C1973 1.561 . S
C1976 C1973 1.526 . S
C1976 C1977 1.396 . S
C1976 C1981 1.390 . S
C1977 C1971 1.465 . S
C1977 C1976 1.396 . S
C1977 C1978 1.399 . S
C1978 H1964 0.929 . S
C1978 C1977 1.399 . S
C1978 C1979 1.385 . S
C1979 H1965 0.931 . S
C1979 C1978 1.385 . S
C1979 C1980 1.389 . S
C1980 C1979 1.389 . S
C1980 C1981 1.387 . S
C1981 H1966 0.930 . S
C1981 C1976 1.390 . S
C1981 C1980 1.387 . S
H1982 C1994 0.930 . S
H1983 C1996 0.930 . S
H1984 C1997 0.930 . S
H1985 C2001 0.959 . S
H1986 C2001 0.959 . S
H1987 C2001 0.961 . S
H1988 C2002 0.960 . S
H1989 C2002 0.961 . S
H1990 C2002 0.959 . S
H1991 C2005 0.929 . S
H1992 C2006 0.931 . S
H1993 C2008 0.930 . S
C1994 H1982 0.930 . S
C1994 C1995 1.399 . S
C1994 C1999 1.399 . S
C1995 C1994 1.399 . S
C1995 C1996 1.376 . S
C1996 H1983 0.930 . S
C1996 C1995 1.376 . S
C1996 C1997 1.388 . S
C1997 H1984 0.930 . S
C1997 C1996 1.388 . S
C1997 C1998 1.390 . S
C1998 C1997 1.390 . S
C1998 C1999 1.394 . S
C1998 C2004 1.465 . S
C1999 C1994 1.399 . S
C1999 C1998 1.394 . S
C1999 C2000 1.516 . S
C2000 C1999 1.516 . S
C2000 C2001 1.502 . S
C2000 C2002 1.561 . S
C2000 C2003 1.526 . S
C2001 H1985 0.959 . S
C2001 H1986 0.959 . S
C2001 H1987 0.961 . S
C2001 C2000 1.502 . S
C2002 H1988 0.960 . S
C2002 H1989 0.961 . S
C2002 H1990 0.959 . S
C2002 C2000 1.561 . S
C2003 C2000 1.526 . S
C2003 C2004 1.396 . S
C2003 C2008 1.390 . S
C2004 C1998 1.465 . S
C2004 C2003 1.396 . S
C2004 C2005 1.399 . S
C2005 H1991 0.929 . S
C2005 C2004 1.399 . S
C2005 C2006 1.385 . S
C2006 H1992 0.931 . S
C2006 C2005 1.385 . S
C2006 C2007 1.389 . S
C2007 C2006 1.389 . S
C2007 C2008 1.387 . S
C2008 H1993 0.930 . S
C2008 C2003 1.390 . S
C2008 C2007 1.387 . S
H2009 C2021 0.930 . S
H2010 C2023 0.930 . S
H2011 C2024 0.930 . S
H2012 C2028 0.959 . S
H2013 C2028 0.959 . S
H2014 C2028 0.961 . S
H2015 C2029 0.960 . S
H2016 C2029 0.961 . S
H2017 C2029 0.959 . S
H2018 C2032 0.929 . S
H2019 C2033 0.931 . S
H2020 C2035 0.930 . S
C2021 H2009 0.930 . S
C2021 C2022 1.399 . S
C2021 C2026 1.399 . S
C2022 C2021 1.399 . S
C2022 C2023 1.376 . S
C2023 H2010 0.930 . S
C2023 C2022 1.376 . S
C2023 C2024 1.388 . S
C2024 H2011 0.930 . S
C2024 C2023 1.388 . S
C2024 C2025 1.390 . S
C2025 C2024 1.390 . S
C2025 C2026 1.394 . S
C2025 C2031 1.465 . S
C2026 C2021 1.399 . S
C2026 C2025 1.394 . S
C2026 C2027 1.516 . S
C2027 C2026 1.516 . S
C2027 C2028 1.502 . S
C2027 C2029 1.561 . S
C2027 C2030 1.526 . S
C2028 H2012 0.959 . S
C2028 H2013 0.959 . S
C2028 H2014 0.961 . S
C2028 C2027 1.502 . S
C2029 H2015 0.960 . S
C2029 H2016 0.961 . S
C2029 H2017 0.959 . S
C2029 C2027 1.561 . S
C2030 C2027 1.526 . S
C2030 C2031 1.396 . S
C2030 C2035 1.390 . S
C2031 C2025 1.465 . S
C2031 C2030 1.396 . S
C2031 C2032 1.399 . S
C2032 H2018 0.929 . S
C2032 C2031 1.399 . S
C2032 C2033 1.385 . S
C2033 H2019 0.931 . S
C2033 C2032 1.385 . S
C2033 C2034 1.389 . S
C2034 C2033 1.389 . S
C2034 C2035 1.387 . S
C2035 H2020 0.930 . S
C2035 C2030 1.390 . S
C2035 C2034 1.387 . S
H2036 C2048 0.930 . S
H2037 C2050 0.930 . S
H2038 C2051 0.930 . S
H2039 C2055 0.959 . S
H2040 C2055 0.959 . S
H2041 C2055 0.961 . S
H2042 C2056 0.960 . S
H2043 C2056 0.961 . S
H2044 C2056 0.959 . S
H2045 C2059 0.929 . S
H2046 C2060 0.931 . S
H2047 C2062 0.930 . S
C2048 H2036 0.930 . S
C2048 C2049 1.399 . S
C2048 C2053 1.399 . S
C2049 C2048 1.399 . S
C2049 C2050 1.376 . S
C2050 H2037 0.930 . S
C2050 C2049 1.376 . S
C2050 C2051 1.388 . S
C2051 H2038 0.930 . S
C2051 C2050 1.388 . S
C2051 C2052 1.390 . S
C2052 C2051 1.390 . S
C2052 C2053 1.394 . S
C2052 C2058 1.465 . S
C2053 C2048 1.399 . S
C2053 C2052 1.394 . S
C2053 C2054 1.516 . S
C2054 C2053 1.516 . S
C2054 C2055 1.502 . S
C2054 C2056 1.561 . S
C2054 C2057 1.526 . S
C2055 H2039 0.959 . S
C2055 H2040 0.959 . S
C2055 H2041 0.961 . S
C2055 C2054 1.502 . S
C2056 H2042 0.960 . S
C2056 H2043 0.961 . S
C2056 H2044 0.959 . S
C2056 C2054 1.561 . S
C2057 C2054 1.526 . S
C2057 C2058 1.396 . S
C2057 C2062 1.390 . S
C2058 C2052 1.465 . S
C2058 C2057 1.396 . S
C2058 C2059 1.399 . S
C2059 H2045 0.929 . S
C2059 C2058 1.399 . S
C2059 C2060 1.385 . S
C2060 H2046 0.931 . S
C2060 C2059 1.385 . S
C2060 C2061 1.389 . S
C2061 C2060 1.389 . S
C2061 C2062 1.387 . S
C2062 H2047 0.930 . S
C2062 C2057 1.390 . S
C2062 C2061 1.387 . S
H2063 C2075 0.930 . S
H2064 C2077 0.930 . S
H2065 C2078 0.930 . S
H2066 C2082 0.959 . S
H2067 C2082 0.959 . S
H2068 C2082 0.961 . S
H2069 C2083 0.960 . S
H2070 C2083 0.961 . S
H2071 C2083 0.959 . S
H2072 C2086 0.929 . S
H2073 C2087 0.931 . S
H2074 C2089 0.930 . S
C2075 H2063 0.930 . S
C2075 C2076 1.399 . S
C2075 C2080 1.399 . S
C2076 C2075 1.399 . S
C2076 C2077 1.376 . S
C2077 H2064 0.930 . S
C2077 C2076 1.376 . S
C2077 C2078 1.388 . S
C2078 H2065 0.930 . S
C2078 C2077 1.388 . S
C2078 C2079 1.390 . S
C2079 C2078 1.390 . S
C2079 C2080 1.394 . S
C2079 C2085 1.465 . S
C2080 C2075 1.399 . S
C2080 C2079 1.394 . S
C2080 C2081 1.516 . S
C2081 C2080 1.516 . S
C2081 C2082 1.502 . S
C2081 C2083 1.561 . S
C2081 C2084 1.526 . S
C2082 H2066 0.959 . S
C2082 H2067 0.959 . S
C2082 H2068 0.961 . S
C2082 C2081 1.502 . S
C2083 H2069 0.960 . S
C2083 H2070 0.961 . S
C2083 H2071 0.959 . S
C2083 C2081 1.561 . S
C2084 C2081 1.526 . S
C2084 C2085 1.396 . S
C2084 C2089 1.390 . S
C2085 C2079 1.465 . S
C2085 C2084 1.396 . S
C2085 C2086 1.399 . S
C2086 H2072 0.929 . S
C2086 C2085 1.399 . S
C2086 C2087 1.385 . S
C2087 H2073 0.931 . S
C2087 C2086 1.385 . S
C2087 C2088 1.389 . S
C2088 C2087 1.389 . S
C2088 C2089 1.387 . S
C2089 H2074 0.930 . S
C2089 C2084 1.390 . S
C2089 C2088 1.387 . S
H2090 C2102 0.930 . S
H2091 C2104 0.930 . S
H2092 C2105 0.930 . S
H2093 C2109 0.959 . S
H2094 C2109 0.959 . S
H2095 C2109 0.961 . S
H2096 C2110 0.960 . S
H2097 C2110 0.961 . S
H2098 C2110 0.959 . S
H2099 C2113 0.929 . S
H2100 C2114 0.931 . S
H2101 C2116 0.930 . S
C2102 H2090 0.930 . S
C2102 C2103 1.399 . S
C2102 C2107 1.399 . S
C2103 C2102 1.399 . S
C2103 C2104 1.376 . S
C2104 H2091 0.930 . S
C2104 C2103 1.376 . S
C2104 C2105 1.388 . S
C2105 H2092 0.930 . S
C2105 C2104 1.388 . S
C2105 C2106 1.390 . S
C2106 C2105 1.390 . S
C2106 C2107 1.394 . S
C2106 C2112 1.465 . S
C2107 C2102 1.399 . S
C2107 C2106 1.394 . S
C2107 C2108 1.516 . S
C2108 C2107 1.516 . S
C2108 C2109 1.502 . S
C2108 C2110 1.561 . S
C2108 C2111 1.526 . S
C2109 H2093 0.959 . S
C2109 H2094 0.959 . S
C2109 H2095 0.961 . S
C2109 C2108 1.502 . S
C2110 H2096 0.960 . S
C2110 H2097 0.961 . S
C2110 H2098 0.959 . S
C2110 C2108 1.561 . S
C2111 C2108 1.526 . S
C2111 C2112 1.396 . S
C2111 C2116 1.390 . S
C2112 C2106 1.465 . S
C2112 C2111 1.396 . S
C2112 C2113 1.399 . S
C2113 H2099 0.929 . S
C2113 C2112 1.399 . S
C2113 C2114 1.385 . S
C2114 H2100 0.931 . S
C2114 C2113 1.385 . S
C2114 C2115 1.389 . S
C2115 C2114 1.389 . S
C2115 C2116 1.387 . S
C2116 H2101 0.930 . S
C2116 C2111 1.390 . S
C2116 C2115 1.387 . S
H2117 C2129 0.930 . S
H2118 C2131 0.930 . S
H2119 C2132 0.930 . S
H2120 C2136 0.959 . S
H2121 C2136 0.959 . S
H2122 C2136 0.961 . S
H2123 C2137 0.960 . S
H2124 C2137 0.961 . S
H2125 C2137 0.959 . S
H2126 C2140 0.929 . S
H2127 C2141 0.931 . S
H2128 C2143 0.930 . S
C2129 H2117 0.930 . S
C2129 C2130 1.399 . S
C2129 C2134 1.399 . S
C2130 C2129 1.399 . S
C2130 C2131 1.376 . S
C2131 H2118 0.930 . S
C2131 C2130 1.376 . S
C2131 C2132 1.388 . S
C2132 H2119 0.930 . S
C2132 C2131 1.388 . S
C2132 C2133 1.390 . S
C2133 C2132 1.390 . S
C2133 C2134 1.394 . S
C2133 C2139 1.465 . S
C2134 C2129 1.399 . S
C2134 C2133 1.394 . S
C2134 C2135 1.516 . S
C2135 C2134 1.516 . S
C2135 C2136 1.502 . S
C2135 C2137 1.561 . S
C2135 C2138 1.526 . S
C2136 H2120 0.959 . S
C2136 H2121 0.959 . S
C2136 H2122 0.961 . S
C2136 C2135 1.502 . S
C2137 H2123 0.960 . S
C2137 H2124 0.961 . S
C2137 H2125 0.959 . S
C2137 C2135 1.561 . S
C2138 C2135 1.526 . S
C2138 C2139 1.396 . S
C2138 C2143 1.390 . S
C2139 C2133 1.465 . S
C2139 C2138 1.396 . S
C2139 C2140 1.399 . S
C2140 H2126 0.929 . S
C2140 C2139 1.399 . S
C2140 C2141 1.385 . S
C2141 H2127 0.931 . S
C2141 C2140 1.385 . S
C2141 C2142 1.389 . S
C2142 C2141 1.389 . S
C2142 C2143 1.387 . S
C2143 H2128 0.930 . S
C2143 C2138 1.390 . S
C2143 C2142 1.387 . S
C429 C382 1.674 . S
C441 C5 1.672 . S
C456 C18 1.666 . S
C468 C395 1.667 . S
C483 C408 1.673 . S
C495 C29 1.671 . S
C510 C367 1.676 . S
C522 C44 1.679 . S
C537 C57 1.666 . S
C549 C356 1.666 . S
C564 C317 1.672 . S
C576 C68 1.670 . S
C591 C83 1.683 . S
C603 C328 1.684 . S
C618 C343 1.674 . S
C630 C96 1.672 . S
C645 C109 1.675 . S
C657 C278 1.678 . S
C672 C120 1.676 . S
C684 C289 1.679 . S
C699 C304 1.683 . S
C711 C135 1.684 . S
C726 C148 1.675 . S
C738 C265 1.678 . S
C753 C250 1.666 . S
C765 C161 1.667 . S
C780 C213 1.674 . S
C792 C172 1.672 . S
C807 C187 1.675 . S
C819 C226 1.678 . S
C834 C200 1.675 . S
C846 C237 1.672 . S
C861 C3 1.369 . S
C873 C133 1.372 . S
C888 C146 1.371 . S
C900 C16 1.367 . S
C915 C107 1.351 . S
C927 C31 1.349 . S
C942 C122 1.353 . S
C954 C42 1.357 . S
C969 C55 1.363 . S
C981 C185 1.367 . S
C996 C198 1.354 . S
C1008 C70 1.358 . S
C1023 C159 1.351 . S
C1035 C81 1.349 . S
C1050 C174 1.357 . S
C1062 C94 1.362 . S
C1077 C211 1.371 . S
C1089 C341 1.373 . S
C1104 C354 1.368 . S
C1116 C224 1.364 . S
C1131 C315 1.353 . S
C1143 C239 1.350 . S
C1158 C252 1.372 . S
C1170 C330 1.369 . S
C1185 C263 1.352 . S
C1197 C393 1.350 . S
C1212 C406 1.354 . S
C1224 C276 1.358 . S
C1239 C369 1.348 . S
C1251 C291 1.348 . S
C1266 C302 1.374 . S
C1278 C380 1.371 . S
C1293 C4 1.636 . S
C1305 C56 1.670 . S
C1320 C17 1.659 . S
C1332 C75 1.643 . S
C1347 C82 1.636 . S
C1359 C36 1.666 . S
C1374 C43 1.641 . S
C1386 C95 1.666 . S
C1401 C108 1.647 . S
C1413 C160 1.642 . S
C1428 C179 1.653 . S
C1440 C127 1.638 . S
C1455 C186 1.650 . S
C1467 C134 1.668 . S
C1482 C147 1.673 . S
C1494 C199 1.635 . S
C1509 C212 1.642 . S
C1521 C264 1.665 . S
C1536 C277 1.641 . S
C1548 C225 1.665 . S
C1563 C244 1.631 . S
C1575 C296 1.672 . S
C1590 C303 1.663 . S
C1602 C257 1.639 . S
C1617 C374 1.672 . S
C1629 C316 1.642 . S
C1644 C335 1.668 . S
C1656 C381 1.650 . S
C1671 C342 1.667 . S
C1683 C394 1.652 . S
C1698 C355 1.669 . S
C1710 C407 1.650 . S
C1725 C10 1.405 . S
C1737 C69 1.417 . S
C1752 C23 1.415 . S
C1764 C88 1.402 . S
C1779 C101 1.397 . S
C1791 C30 1.411 . S
C1806 C62 1.397 . S
C1818 C49 1.411 . S
C1833 C173 1.396 . S
C1845 C114 1.395 . S
C1860 C192 1.400 . S
C1872 C121 1.396 . S
C1887 C205 1.415 . S
C1899 C140 1.418 . S
C1914 C153 1.402 . S
C1926 C166 1.396 . S
C1941 C218 1.394 . S
C1953 C283 1.403 . S
C1968 C290 1.408 . S
C1980 C231 1.418 . S
C1995 C309 1.396 . S
C2007 C238 1.397 . S
C2022 C251 1.399 . S
C2034 C270 1.413 . S
C2049 C387 1.402 . S
C2061 C322 1.397 . S
C2076 C329 1.417 . S
C2088 C400 1.418 . S
C2103 C348 1.410 . S
C2115 C413 1.403 . S
C2130 C368 1.398 . S
C2142 C361 1.395 . S
