# Generated by pormake.
# Topology zfj, (5)-cn, num edge types: 1
# Building blocks:
#     Node 0, Type 0, BuildingBlock: XOMCOT_clean_sbu_0, # of connection points: 5
#     Node 1, Type 0, BuildingBlock: XOMCOT_clean_sbu_0, # of connection points: 5
#     Node 2, Type 0, BuildingBlock: XOMCOT_clean_sbu_0, # of connection points: 5
#     Node 3, Type 0, BuildingBlock: XOMCOT_clean_sbu_0, # of connection points: 5
#     Node 4, Type 0, BuildingBlock: XOMCOT_clean_sbu_0, # of connection points: 5
#     Node 5, Type 0, BuildingBlock: XOMCOT_clean_sbu_0, # of connection points: 5
#     Node 6, Type 0, BuildingBlock: XOMCOT_clean_sbu_0, # of connection points: 5
#     Node 7, Type 0, BuildingBlock: XOMCOT_clean_sbu_0, # of connection points: 5
#     Node 8, Type 0, BuildingBlock: XOMCOT_clean_sbu_0, # of connection points: 5
#     Node 9, Type 0, BuildingBlock: XOMCOT_clean_sbu_0, # of connection points: 5
#     Node 10, Type 0, BuildingBlock: XOMCOT_clean_sbu_0, # of connection points: 5
#     Node 11, Type 0, BuildingBlock: XOMCOT_clean_sbu_0, # of connection points: 5
#     Node 12, Type 0, BuildingBlock: XOMCOT_clean_sbu_0, # of connection points: 5
#     Node 13, Type 0, BuildingBlock: XOMCOT_clean_sbu_0, # of connection points: 5
#     Node 14, Type 0, BuildingBlock: XOMCOT_clean_sbu_0, # of connection points: 5
#     Node 15, Type 0, BuildingBlock: XOMCOT_clean_sbu_0, # of connection points: 5
#     Edge 16, Type (0, 0), BuildingBlock: TEMPAE_clean_linker_10, # of connection points: 2
#     Edge 17, Type (0, 0), BuildingBlock: TEMPAE_clean_linker_10, # of connection points: 2
#     Edge 18, Type (0, 0), BuildingBlock: TEMPAE_clean_linker_10, # of connection points: 2
#     Edge 19, Type (0, 0), BuildingBlock: TEMPAE_clean_linker_10, # of connection points: 2
#     Edge 20, Type (0, 0), BuildingBlock: TEMPAE_clean_linker_10, # of connection points: 2
#     Edge 21, Type (0, 0), BuildingBlock: TEMPAE_clean_linker_10, # of connection points: 2
#     Edge 22, Type (0, 0), BuildingBlock: TEMPAE_clean_linker_10, # of connection points: 2
#     Edge 23, Type (0, 0), BuildingBlock: TEMPAE_clean_linker_10, # of connection points: 2
#     Edge 24, Type (0, 0), BuildingBlock: TEMPAE_clean_linker_10, # of connection points: 2
#     Edge 25, Type (0, 0), BuildingBlock: TEMPAE_clean_linker_10, # of connection points: 2
#     Edge 26, Type (0, 0), BuildingBlock: TEMPAE_clean_linker_10, # of connection points: 2
#     Edge 27, Type (0, 0), BuildingBlock: TEMPAE_clean_linker_10, # of connection points: 2
#     Edge 28, Type (0, 0), BuildingBlock: TEMPAE_clean_linker_10, # of connection points: 2
#     Edge 29, Type (0, 0), BuildingBlock: TEMPAE_clean_linker_10, # of connection points: 2
#     Edge 30, Type (0, 0), BuildingBlock: TEMPAE_clean_linker_10, # of connection points: 2
#     Edge 31, Type (0, 0), BuildingBlock: TEMPAE_clean_linker_10, # of connection points: 2
#     Edge 32, Type (0, 0), BuildingBlock: TEMPAE_clean_linker_10, # of connection points: 2
#     Edge 33, Type (0, 0), BuildingBlock: TEMPAE_clean_linker_10, # of connection points: 2
#     Edge 34, Type (0, 0), BuildingBlock: TEMPAE_clean_linker_10, # of connection points: 2
#     Edge 35, Type (0, 0), BuildingBlock: TEMPAE_clean_linker_10, # of connection points: 2
#     Edge 36, Type (0, 0), BuildingBlock: TEMPAE_clean_linker_10, # of connection points: 2
#     Edge 37, Type (0, 0), BuildingBlock: TEMPAE_clean_linker_10, # of connection points: 2
#     Edge 38, Type (0, 0), BuildingBlock: TEMPAE_clean_linker_10, # of connection points: 2
#     Edge 39, Type (0, 0), BuildingBlock: TEMPAE_clean_linker_10, # of connection points: 2
#     Edge 40, Type (0, 0), BuildingBlock: TEMPAE_clean_linker_10, # of connection points: 2
#     Edge 41, Type (0, 0), BuildingBlock: TEMPAE_clean_linker_10, # of connection points: 2
#     Edge 42, Type (0, 0), BuildingBlock: TEMPAE_clean_linker_10, # of connection points: 2
#     Edge 43, Type (0, 0), BuildingBlock: TEMPAE_clean_linker_10, # of connection points: 2
#     Edge 44, Type (0, 0), BuildingBlock: TEMPAE_clean_linker_10, # of connection points: 2
#     Edge 45, Type (0, 0), BuildingBlock: TEMPAE_clean_linker_10, # of connection points: 2
#     Edge 46, Type (0, 0), BuildingBlock: TEMPAE_clean_linker_10, # of connection points: 2
#     Edge 47, Type (0, 0), BuildingBlock: TEMPAE_clean_linker_10, # of connection points: 2
#     Edge 48, Type (0, 0), BuildingBlock: TEMPAE_clean_linker_10, # of connection points: 2
#     Edge 49, Type (0, 0), BuildingBlock: TEMPAE_clean_linker_10, # of connection points: 2
#     Edge 50, Type (0, 0), BuildingBlock: TEMPAE_clean_linker_10, # of connection points: 2
#     Edge 51, Type (0, 0), BuildingBlock: TEMPAE_clean_linker_10, # of connection points: 2
#     Edge 52, Type (0, 0), BuildingBlock: TEMPAE_clean_linker_10, # of connection points: 2
#     Edge 53, Type (0, 0), BuildingBlock: TEMPAE_clean_linker_10, # of connection points: 2
#     Edge 54, Type (0, 0), BuildingBlock: TEMPAE_clean_linker_10, # of connection points: 2
#     Edge 55, Type (0, 0), BuildingBlock: TEMPAE_clean_linker_10, # of connection points: 2
# Relax obj value: 0.189
# Max RMSD: 0.167
# Mean RMSD: 0.167
data_MOF--net-zfj--node1-XOMCOT_clean_sbu_0--edge1-TEMPAE_clean_linker_10
_symmetry_space_group_name_H-M    P1
_symmetry_Int_Tables_number       1
_symmetry_cell_setting            triclinic
loop_
_symmetry_equiv_pos_as_xyz
'x, y, z'
_cell_length_a     35.469645
_cell_length_b     35.463134
_cell_length_c     50.109065
_cell_angle_alpha  90.07038
_cell_angle_beta   89.969811
_cell_angle_gamma 90.063148
loop_
_atom_site_label
_atom_site_type_symbol
_atom_site_fract_x
_atom_site_fract_y
_atom_site_fract_z
_atom_type_partial_charge
Co0 Co 0.50711 0.22846 0.14018 0.0
C1 C 0.49765 0.31155 0.14774 0.0
C2 C 0.44652 0.28097 0.1549 0.0
C3 C 0.43896 0.31897 0.15676 0.0
N4 N 0.48349 0.27618 0.14968 0.0
N5 N 0.47112 0.33825 0.15215 0.0
H6 H 0.52637 0.31791 0.14239 0.0
H7 H 0.42614 0.25834 0.1563 0.0
C8 C 0.47382 0.21446 0.19487 0.0
O9 O 0.4819 0.24898 0.20254 0.0
N10 N 0.53023 0.18106 0.13021 0.0
C11 C 0.56252 0.1766 0.11641 0.0
C12 C 0.56994 0.1386 0.11406 0.0
C13 C 0.51834 0.14579 0.13598 0.0
N14 N 0.54222 0.11927 0.12647 0.0
C15 C 0.5783 0.26438 0.14568 0.0
C16 C 0.60093 0.23071 0.19256 0.0
C17 C 0.6271 0.25308 0.17854 0.0
C18 C 0.61482 0.27001 0.15479 0.0
C19 C 0.56472 0.2246 0.1821 0.0
N20 N 0.55349 0.24182 0.15903 0.0
H21 H 0.57094 0.27692 0.12684 0.0
H22 H 0.54684 0.20452 0.19206 0.0
H23 H 0.57975 0.19939 0.10886 0.0
H24 H 0.49261 0.13959 0.14665 0.0
O25 O 0.51928 0.24902 0.10575 0.0
O26 O 0.46636 0.21874 0.11523 0.0
O27 O 0.4838 0.20265 0.17187 0.0
C28 C 0.48684 0.2365 0.09774 0.0
H29 H 0.41146 0.3314 0.15993 0.0
H30 H 0.59439 0.12621 0.10457 0.0
H31 H 0.60844 0.21686 0.21102 0.0
H32 H 0.6336 0.28606 0.14215 0.0
Co33 Co 0.28103 0.49245 0.63587 0.0
C34 C 0.19768 0.4814 0.64168 0.0
C35 C 0.22845 0.43032 0.64799 0.0
C36 C 0.1904 0.42235 0.64927 0.0
N37 N 0.23313 0.46754 0.64361 0.0
N38 N 0.17105 0.45456 0.64518 0.0
H39 H 0.19102 0.5102 0.63715 0.0
H40 H 0.25119 0.41012 0.64939 0.0
C41 C 0.2927 0.45886 0.69045 0.0
O42 O 0.25756 0.46581 0.6971 0.0
N43 N 0.32872 0.51674 0.62786 0.0
C44 C 0.33349 0.55267 0.61978 0.0
C45 C 0.37144 0.56097 0.61987 0.0
C46 C 0.36391 0.50336 0.63221 0.0
N47 N 0.39043 0.52999 0.62763 0.0
C48 C 0.24148 0.5615 0.64277 0.0
C49 C 0.27416 0.58394 0.69014 0.0
C50 C 0.24854 0.60818 0.67745 0.0
C51 C 0.23209 0.59626 0.65354 0.0
C52 C 0.28277 0.54893 0.67859 0.0
N53 N 0.26577 0.53762 0.65541 0.0
H54 H 0.23005 0.55469 0.62345 0.0
H55 H 0.30459 0.5322 0.68768 0.0
H56 H 0.31091 0.57197 0.61503 0.0
H57 H 0.36991 0.47537 0.63964 0.0
O58 O 0.26216 0.50589 0.60128 0.0
O59 O 0.29248 0.45288 0.61035 0.0
O60 O 0.30547 0.46874 0.66774 0.0
C61 C 0.27509 0.47377 0.59293 0.0
H62 H 0.17805 0.39468 0.65185 0.0
H63 H 0.38415 0.58788 0.61502 0.0
H64 H 0.28836 0.59242 0.70831 0.0
H65 H 0.21367 0.61458 0.64221 0.0
Co66 Co 0.02259 0.28882 0.12841 0.0
C67 C 0.0319 0.20543 0.13242 0.0
C68 C 0.08378 0.23462 0.13968 0.0
C69 C 0.09049 0.19632 0.14089 0.0
N70 N 0.04679 0.24039 0.13496 0.0
N71 N 0.0578 0.17808 0.13619 0.0
H72 H 1.00302 0.19965 0.12728 0.0
H73 H 0.1046 0.25676 0.14161 0.0
C74 C 0.06061 0.29933 0.18184 0.0
O75 O 0.0517 0.26477 0.18887 0.0
N76 N 0.9986 0.33689 0.12154 0.0
C77 C 0.96249 0.34196 0.11398 0.0
C78 C 0.95441 0.3799 0.11463 0.0
C79 C 0.01232 0.37191 0.12613 0.0
N80 N 0.98571 0.39859 0.12221 0.0
C81 C 0.95264 0.25177 0.13709 0.0
C82 C 0.93519 0.28201 0.18625 0.0
C83 C 0.90814 0.25929 0.17335 0.0
C84 C 0.91774 0.24431 0.14835 0.0
C85 C 0.96969 0.28997 0.17367 0.0
N86 N 0.97853 0.27417 0.14955 0.0
H87 H 0.95761 0.24086 0.11737 0.0
H88 H 0.98809 0.31027 0.18295 0.0
H89 H 0.94296 0.31958 0.10912 0.0
H90 H 0.04056 0.3777 0.13318 0.0
O91 O 1.00606 0.27048 0.09428 0.0
O92 O 0.06029 0.29974 0.10126 0.0
O93 O 0.04965 0.31256 0.15948 0.0
C94 C 0.0376 0.28293 0.08464 0.0
H95 H 0.11757 0.18295 0.14394 0.0
H96 H 0.92748 0.39283 0.11026 0.0
H97 H 0.92956 0.29471 0.20547 0.0
H98 H 0.89789 0.22847 0.1364 0.0
Co99 Co 0.23088 0.00992 0.63712 0.0
C100 C 0.31419 0.02113 0.64113 0.0
C101 C 0.28546 0.05365 0.67077 0.0
C102 C 0.32369 0.05959 0.67343 0.0
N103 N 0.27929 0.02864 0.65089 0.0
N104 N 0.34176 0.03898 0.65481 0.0
H105 H 0.31956 1.0025 0.62447 0.0
H106 H 0.26409 0.06783 0.68228 0.0
C107 C 0.19896 0.03583 0.69039 0.0
O108 O 0.21841 0.01068 0.70377 0.0
N109 N 0.18312 0.99193 0.62291 0.0
C110 C 0.17825 0.96053 0.60815 0.0
C111 C 0.14025 0.95428 0.6049 0.0
C112 C 0.14793 1.00455 0.62825 0.0
N113 N 0.12111 0.9818 0.61769 0.0
C114 C 0.26619 0.94291 0.6561 0.0
C115 C 0.20259 0.91121 0.67873 0.0
C116 C 0.23466 0.88878 0.67493 0.0
C117 C 0.26718 0.90559 0.66455 0.0
C118 C 0.20292 0.94878 0.67023 0.0
N119 N 0.23427 0.96408 0.65848 0.0
H120 H 0.29035 0.9534 0.6456 0.0
H121 H 0.17711 0.96479 0.67162 0.0
H122 H 0.20073 0.94225 0.60142 0.0
H123 H 0.14201 0.02914 0.64031 0.0
O124 O 0.25586 0.99127 0.60575 0.0
O125 O 0.23169 0.04873 0.61008 0.0
O126 O 0.20238 0.03903 0.66515 0.0
C127 C 0.24904 0.02405 0.59522 0.0
H128 H 0.33703 0.07843 0.68758 0.0
H129 H 0.12776 0.93007 0.59514 0.0
H130 H 0.17671 0.89924 0.68648 0.0
H131 H 0.29269 0.88937 0.66147 0.0
Co132 Co 0.49302 0.28522 0.86167 0.0
C133 C 0.4877 0.2019 0.85389 0.0
C134 C 0.44193 0.23053 0.835 0.0
C135 C 0.43681 0.19225 0.83181 0.0
N136 N 0.47467 0.23683 0.84804 0.0
N137 N 0.46561 0.17432 0.84381 0.0
H138 H 0.51156 0.19629 0.86653 0.0
H139 H 0.42202 0.25209 0.82926 0.0
C140 C 0.46617 0.30591 0.80683 0.0
O141 O 0.48448 0.27684 0.79699 0.0
N142 N 0.51092 0.33297 0.87583 0.0
C143 C 0.54076 0.33761 0.89216 0.0
C144 C 0.54765 0.37559 0.89517 0.0
C145 C 0.50009 0.36824 0.86913 0.0
N146 N 0.52224 0.39483 0.88052 0.0
C147 C 0.56527 0.25418 0.84961 0.0
C148 C 0.589 0.31134 0.81615 0.0
C149 C 0.61489 0.28384 0.82421 0.0
C150 C 0.60232 0.25449 0.84057 0.0
C151 C 0.5519 0.30985 0.82559 0.0
N152 N 0.54024 0.2813 0.84202 0.0
H153 H 0.55799 0.23373 0.86448 0.0
H154 H 0.5335 0.3332 0.82112 0.0
H155 H 0.5575 0.31493 0.90034 0.0
H156 H 0.47709 0.37444 0.85577 0.0
O157 O 0.50831 0.2605 0.89396 0.0
O158 O 0.45185 0.28562 0.88704 0.0
O159 O 0.46717 0.31295 0.83181 0.0
C160 C 0.47469 0.26766 0.9029 0.0
H161 H 0.41269 0.17862 0.8227 0.0
H162 H 0.57084 0.388 0.90615 0.0
H163 H 0.59786 0.33503 0.80404 0.0
H164 H 0.62147 0.23279 0.84742 0.0
Co165 Co 0.23721 0.48899 0.35722 0.0
C166 C 0.32031 0.48576 0.34792 0.0
C167 C 0.29366 0.43246 0.34124 0.0
C168 C 0.33219 0.42775 0.33945 0.0
N169 N 0.2861 0.46899 0.34639 0.0
N170 N 0.34901 0.46136 0.34385 0.0
H171 H 0.32458 0.51486 0.35284 0.0
H172 H 0.27265 0.41039 0.34013 0.0
C173 C 0.22463 0.46 0.30131 0.0
O174 O 0.25867 0.47072 0.29427 0.0
N175 N 0.18872 0.50854 0.36843 0.0
C176 C 0.18282 0.53893 0.38402 0.0
C177 C 0.14458 0.54528 0.38582 0.0
C178 C 0.15402 0.49675 0.36101 0.0
N179 N 0.12649 0.51886 0.37121 0.0
C180 C 0.27031 0.56181 0.35361 0.0
C181 C 0.23266 0.58684 0.3089 0.0
C182 C 0.25688 0.61163 0.32247 0.0
C183 C 0.27624 0.59834 0.34479 0.0
C184 C 0.22785 0.54988 0.31831 0.0
N185 N 0.24732 0.53741 0.34015 0.0
H186 H 0.28403 0.5537 0.37187 0.0
H187 H 0.20704 0.53229 0.30876 0.0
H188 H 0.20484 0.55593 0.3929 0.0
H189 H 0.14892 0.47257 0.34841 0.0
O190 O 0.25803 0.50012 0.39162 0.0
O191 O 0.23067 0.44601 0.38091 0.0
O192 O 0.21232 0.4667 0.32477 0.0
C193 C 0.2481 0.46642 0.39866 0.0
H194 H 0.34657 0.40115 0.33665 0.0
H195 H 0.13122 0.56844 0.39624 0.0
H196 H 0.21631 0.5964 0.29197 0.0
H197 H 0.29527 0.61638 0.35591 0.0
Co198 Co 0.01257 0.24462 0.8456 0.0
C199 C 0.02605 0.32787 0.84454 0.0
C200 C 0.06167 0.29951 0.81659 0.0
C201 C 0.06841 0.33771 0.81489 0.0
N202 N 0.0341 0.2932 0.83462 0.0
N203 N 0.04575 0.35566 0.83239 0.0
H204 H 0.00722 0.33279 0.86109 0.0
H205 H 0.07681 0.27812 0.80567 0.0
C206 C 0.03553 0.22106 0.78937 0.0
O207 O 0.01444 0.24681 0.77793 0.0
N208 N 0.99161 0.19645 0.85671 0.0
C209 C 0.96172 0.19136 0.87292 0.0
C210 C 0.95412 0.15332 0.87467 0.0
C211 C 1.00167 0.16139 0.8487 0.0
N212 N 0.97912 0.13452 0.85934 0.0
C213 C 0.94575 0.28557 0.83464 0.0
C214 C 0.91384 0.23644 0.79841 0.0
C215 C 0.89305 0.26824 0.80659 0.0
C216 C 0.90983 0.29275 0.82504 0.0
C217 C 0.9498 0.22982 0.80914 0.0
N218 N 0.96589 0.25499 0.82643 0.0
H219 H 0.95599 0.30349 0.85027 0.0
H220 H 0.96411 0.20389 0.80413 0.0
H221 H 0.94586 0.21381 0.88227 0.0
H222 H 0.02478 0.1555 0.83525 0.0
O223 O 0.99842 0.26634 0.87929 0.0
O224 O 0.05327 0.2387 0.87109 0.0
O225 O 0.03739 0.21826 0.81469 0.0
C226 C 0.0314 0.25622 0.88792 0.0
H227 H 0.08841 0.35107 0.80161 0.0
H228 H 0.9311 0.14059 0.88564 0.0
H229 H 0.9022 0.21618 0.7845 0.0
H230 H 0.89465 0.31633 0.83355 0.0
Co231 Co 0.28929 1.00286 0.35387 0.0
C232 C 0.20626 0.01518 0.34487 0.0
C233 C 0.23799 0.0666 0.34635 0.0
C234 C 0.20021 0.07546 0.34544 0.0
N235 N 0.24199 0.02875 0.34606 0.0
N236 N 0.1804 0.0431 0.34445 0.0
H237 H 0.19859 0.98588 0.34595 0.0
H238 H 0.261 0.08642 0.34842 0.0
C239 C 0.30401 0.04341 0.3022 0.0
O240 O 0.26971 0.03566 0.29396 0.0
N241 N 0.33631 0.97785 0.36212 0.0
C242 C 0.34032 0.94291 0.3722 0.0
C243 C 0.37821 0.93482 0.37395 0.0
C244 C 0.37171 0.99065 0.35801 0.0
N245 N 0.39795 0.9648 0.36495 0.0
C246 C 0.25111 0.93476 0.34061 0.0
C247 C 0.29443 0.91572 0.29682 0.0
C248 C 0.26861 0.88929 0.30686 0.0
C249 C 0.24625 0.89969 0.32868 0.0
C250 C 0.29814 0.95097 0.30927 0.0
N251 N 0.27649 0.96025 0.33093 0.0
H252 H 0.23607 0.94014 0.35891 0.0
H253 H 0.32047 0.96934 0.30261 0.0
H254 H 0.31727 0.92433 0.37741 0.0
H255 H 0.37816 0.01831 0.35022 0.0
O256 O 0.26798 0.98496 0.38694 0.0
O257 O 0.29896 0.03881 0.38211 0.0
O258 O 0.31566 0.0311 0.32461 0.0
C259 C 0.28095 0.0157 0.39771 0.0
H260 H 0.18813 0.10346 0.34627 0.0
H261 H 0.39022 0.90841 0.38061 0.0
H262 H 0.31283 0.9086 0.28032 0.0
H263 H 0.22707 0.87979 0.3379 0.0
Co264 Co 0.51484 0.7849 0.85996 0.0
C265 C 0.52408 0.7014 0.85672 0.0
C266 C 0.56765 0.72953 0.83507 0.0
C267 C 0.57355 0.69118 0.83336 0.0
N268 N 0.53561 0.73609 0.84885 0.0
N269 N 0.54593 0.67337 0.84695 0.0
H270 H 0.50182 0.69664 0.87095 0.0
H271 H 0.58646 0.75095 0.82749 0.0
C272 C 0.54396 0.80408 0.80523 0.0
O273 O 0.52585 0.77478 0.79551 0.0
N274 N 0.49436 0.83297 0.87174 0.0
C275 C 0.46456 0.8374 0.8881 0.0
C276 C 0.45614 0.87512 0.88993 0.0
C277 C 0.50358 0.86823 0.86377 0.0
N278 N 0.48041 0.89467 0.8744 0.0
C279 C 0.44595 0.7488 0.84506 0.0
C280 C 0.42022 0.80513 0.8117 0.0
C281 C 0.39563 0.776 0.81909 0.0
C282 C 0.40944 0.7469 0.83512 0.0
C283 C 0.45698 0.80569 0.82187 0.0
N284 N 0.46946 0.77784 0.83858 0.0
H285 H 0.45374 0.72846 0.85981 0.0
H286 H 0.47436 0.83002 0.81779 0.0
H287 H 0.44918 0.81469 0.89752 0.0
H288 H 0.52571 0.87428 0.84965 0.0
O289 O 0.49743 0.76197 0.89246 0.0
O290 O 0.55363 0.78842 0.88708 0.0
O291 O 0.54234 0.81155 0.83015 0.0
C292 C 0.52986 0.77102 0.90265 0.0
H293 H 0.59683 0.67773 0.82318 0.0
H294 H 0.43345 0.88695 0.90166 0.0
H295 H 0.41043 0.82856 0.79973 0.0
H296 H 0.39138 0.72386 0.84135 0.0
Co297 Co 0.73762 0.51135 0.35388 0.0
C298 C 0.82002 0.51511 0.34668 0.0
C299 C 0.79221 0.55762 0.32349 0.0
C300 C 0.83065 0.56136 0.32017 0.0
N301 N 0.78565 0.5286 0.34012 0.0
N302 N 0.84824 0.53471 0.33489 0.0
H303 H 0.82415 0.49215 0.36056 0.0
H304 H 0.7707 0.5753 0.31476 0.0
C305 C 0.68484 0.51887 0.30708 0.0
O306 O 0.67332 0.48407 0.31099 0.0
N307 N 0.68928 0.49413 0.36844 0.0
C308 C 0.68346 0.46562 0.38578 0.0
C309 C 0.64545 0.46133 0.38998 0.0
C310 C 0.65441 0.50834 0.3639 0.0
N311 N 0.62696 0.4879 0.37592 0.0
C312 C 0.75429 0.43297 0.3534 0.0
C313 C 0.75577 0.42219 0.29885 0.0
C314 C 0.7601 0.39099 0.31577 0.0
C315 C 0.75999 0.39702 0.34334 0.0
C316 C 0.75024 0.45814 0.30995 0.0
N317 N 0.74687 0.46266 0.33698 0.0
H318 H 0.75643 0.43667 0.37461 0.0
H319 H 0.74872 0.48215 0.29678 0.0
H320 H 0.70495 0.44893 0.39523 0.0
H321 H 0.64909 0.53308 0.35193 0.0
O322 O 0.76137 0.50133 0.38749 0.0
O323 O 0.73436 0.55557 0.37672 0.0
O324 O 0.71113 0.5328 0.32154 0.0
C325 C 0.75247 0.53547 0.39427 0.0
H326 H 0.8444 0.58237 0.30792 0.0
H327 H 0.63258 0.43939 0.40188 0.0
H328 H 0.75705 0.41891 0.27738 0.0
H329 H 0.76376 0.37401 0.35728 0.0
Co330 Co 0.99492 0.74454 0.84311 0.0
C331 C 0.9853 0.82736 0.83593 0.0
C332 C 0.93717 0.79689 0.82194 0.0
C333 C 0.93024 0.835 0.81937 0.0
N334 N 0.97218 0.79199 0.8317 0.0
N335 N 0.96061 0.85439 0.82826 0.0
H336 H 0.01133 0.83335 0.84598 0.0
H337 H 0.91752 0.77435 0.81764 0.0
C338 C 0.96583 0.72558 0.78763 0.0
O339 O 0.97603 0.75864 0.77825 0.0
N340 N 0.01749 0.69773 0.85496 0.0
C341 C 0.04951 0.69428 0.86918 0.0
C342 C 0.05746 0.65651 0.87227 0.0
C343 C 1.00626 0.66207 0.84971 0.0
N344 N 0.03034 0.63628 0.8599 0.0
C345 C 0.06541 0.78178 0.83721 0.0
C346 C 0.09177 0.74219 0.79363 0.0
C347 C 0.11565 0.76852 0.80609 0.0
C348 C 0.1017 0.78844 0.82807 0.0
C349 C 0.05525 0.73621 0.80361 0.0
N350 N 0.0421 0.75654 0.82489 0.0
H351 H 0.05727 0.79557 0.85543 0.0
H352 H 0.03869 0.7138 0.79502 0.0
H353 H 0.06641 0.71762 0.87628 0.0
H354 H 0.98099 0.65507 0.83878 0.0
O355 O 1.00586 0.76704 0.87713 0.0
O356 O 0.95311 0.73649 0.8674 0.0
O357 O 0.97288 0.71663 0.81176 0.0
C358 C 0.9731 0.75494 0.88484 0.0
H359 H 0.90429 0.84712 0.81206 0.0
H360 H 0.08203 0.6449 0.88205 0.0
H361 H 0.10155 0.7255 0.77691 0.0
H362 H 0.11942 0.80756 0.83936 0.0
Co363 Co 0.78921 0.9985 0.3518 0.0
C364 C 0.7057 0.98689 0.34666 0.0
C365 C 0.73701 0.93582 0.34138 0.0
C366 C 0.69912 0.9274 0.34016 0.0
N367 N 0.74128 0.97327 0.34499 0.0
N368 N 0.67943 0.95956 0.34358 0.0
H369 H 0.69873 0.01585 0.35065 0.0
H370 H 0.75997 0.91581 0.34038 0.0
C371 C 0.79982 0.96158 0.29836 0.0
O372 O 0.76512 0.97051 0.29174 0.0
N373 N 0.83704 0.02296 0.3589 0.0
C374 C 0.84207 0.05936 0.36584 0.0
C375 C 0.88007 0.06737 0.36543 0.0
C376 C 0.8721 0.00906 0.3549 0.0
N377 N 0.89881 0.03577 0.35861 0.0
C378 C 0.75061 0.06726 0.34193 0.0
C379 C 0.78563 0.08649 0.2947 0.0
C380 C 0.76123 0.11275 0.30674 0.0
C381 C 0.74359 0.10224 0.33065 0.0
C382 C 0.79268 0.05178 0.30715 0.0
N383 N 0.77466 0.04212 0.33033 0.0
H384 H 0.73822 0.06169 0.36114 0.0
H385 H 0.81428 0.034 0.2988 0.0
H386 H 0.81962 0.0791 0.37003 0.0
H387 H 0.87788 0.98056 0.34835 0.0
O388 O 0.7702 0.01526 0.38569 0.0
O389 O 0.79992 0.9612 0.37917 0.0
O390 O 0.81332 0.97167 0.32086 0.0
C391 C 0.78248 0.98379 0.39554 0.0
H392 H 0.68706 0.89952 0.33806 0.0
H393 H 0.89299 0.09447 0.36945 0.0
H394 H 0.80039 0.09306 0.27639 0.0
H395 H 0.72614 0.12163 0.34184 0.0
Co396 Co 0.50757 0.72892 0.1429 0.0
C397 C 0.52484 0.81147 0.14339 0.0
C398 C 0.55966 0.78196 0.17115 0.0
C399 C 0.56826 0.81981 0.17247 0.0
N400 N 0.53137 0.77664 0.15354 0.0
N401 N 0.54611 0.83852 0.15508 0.0
H402 H 0.50573 0.81693 0.12709 0.0
H403 H 0.57412 0.76009 0.182 0.0
C404 C 0.53265 0.70353 0.1981 0.0
O405 O 0.51381 0.73072 0.20991 0.0
N406 N 0.48487 0.6816 0.13199 0.0
C407 C 0.45101 0.67682 0.12036 0.0
C408 C 0.44409 0.63871 0.11793 0.0
C409 C 0.49826 0.64646 0.13624 0.0
N410 N 0.47376 0.61956 0.12802 0.0
C411 C 0.44373 0.77259 0.15824 0.0
C412 C 0.41015 0.71984 0.19104 0.0
C413 C 0.39049 0.75315 0.18501 0.0
C414 C 0.40824 0.77988 0.16877 0.0
C415 C 0.44609 0.71374 0.18012 0.0
N416 N 0.46261 0.74012 0.16397 0.0
H417 H 0.45442 0.79202 0.14374 0.0
H418 H 0.45973 0.68695 0.18356 0.0
H419 H 0.43212 0.69946 0.1149 0.0
H420 H 0.52524 0.64072 0.14538 0.0
O421 O 0.49165 0.75144 0.1099 0.0
O422 O 0.54622 0.72215 0.11606 0.0
O423 O 0.53316 0.70092 0.17271 0.0
C424 C 0.52364 0.74018 0.10004 0.0
H425 H 0.5892 0.83238 0.1854 0.0
H426 H 0.41845 0.62619 0.11026 0.0
H427 H 0.39734 0.69808 0.20318 0.0
H428 H 0.39372 0.80519 0.16245 0.0
Co429 Co 0.78151 0.5093 0.63228 0.0
C430 C 0.69884 0.51877 0.64163 0.0
C431 C 0.72811 0.57168 0.64005 0.0
C432 C 0.68991 0.57869 0.64087 0.0
N433 N 0.73385 0.53407 0.64051 0.0
N434 N 0.67164 0.5454 0.6419 0.0
H435 H 0.69288 0.489 0.64045 0.0
H436 H 0.75014 0.59256 0.63792 0.0
C437 C 0.79518 0.54909 0.68494 0.0
O438 O 0.75958 0.54574 0.69176 0.0
N439 N 0.82857 0.4845 0.62343 0.0
C440 C 0.83211 0.45108 0.61091 0.0
C441 C 0.86974 0.44197 0.60941 0.0
C442 C 0.86417 0.49547 0.62917 0.0
N443 N 0.88999 0.46983 0.62094 0.0
C444 C 0.74619 0.43805 0.63843 0.0
C445 C 0.77416 0.41955 0.68802 0.0
C446 C 0.75448 0.39174 0.67348 0.0
C447 C 0.74039 0.40202 0.64835 0.0
C448 C 0.78074 0.45523 0.67675 0.0
N449 N 0.76672 0.46421 0.65215 0.0
H450 H 0.73527 0.44406 0.61886 0.0
H451 H 0.79843 0.47461 0.68755 0.0
H452 H 0.80891 0.43415 0.60365 0.0
H453 H 0.87107 0.52173 0.63894 0.0
O454 O 0.76146 0.49605 0.59778 0.0
O455 O 0.79277 0.54855 0.60647 0.0
O456 O 0.80743 0.53388 0.66354 0.0
C457 C 0.77493 0.52781 0.58919 0.0
H458 H 0.67651 0.60606 0.63987 0.0
H459 H 0.88113 0.41622 0.60109 0.0
H460 H 0.78548 0.4138 0.70762 0.0
H461 H 0.7264 0.38214 0.63534 0.0
Co462 Co 0.99351 0.7896 0.12156 0.0
C463 C 0.99142 0.70687 0.13408 0.0
C464 C 0.93757 0.73365 0.1382 0.0
C465 C 0.93267 0.6953 0.14078 0.0
N466 N 0.97443 0.7411 0.134 0.0
N467 N 0.96655 0.67865 0.13828 0.0
H468 H 0.02059 0.70193 0.12925 0.0
H469 H 0.91541 0.75457 0.13785 0.0
C470 C 0.96268 0.80464 0.1762 0.0
O471 O 0.97646 0.77225 0.18433 0.0
N472 N 0.01219 0.83797 0.10857 0.0
C473 C 0.03206 0.84388 0.08601 0.0
C474 C 0.04136 0.88142 0.08436 0.0
C475 C 0.01012 0.87224 0.12045 0.0
N476 N 0.02778 0.89941 0.10609 0.0
C477 C 0.06751 0.76036 0.12891 0.0
C478 C 0.08855 0.80727 0.17035 0.0
C479 C 0.11562 0.78371 0.1587 0.0
C480 C 0.10453 0.75965 0.13802 0.0
C481 C 0.05163 0.80715 0.16058 0.0
N482 N 0.04121 0.78345 0.14029 0.0
H483 H 0.06067 0.74332 0.11178 0.0
H484 H 0.03241 0.82789 0.16839 0.0
H485 H 0.0398 0.82248 0.07166 0.0
H486 H 0.99702 0.87708 0.13958 0.0
O487 O 1.00672 0.76581 0.08833 0.0
O488 O 0.95159 0.79256 0.09688 0.0
O489 O 0.96843 0.81592 0.15237 0.0
C490 C 0.9731 0.77454 0.08016 0.0
H491 H 0.90611 0.68061 0.14314 0.0
H492 H 0.05685 0.89431 0.06816 0.0
H493 H 0.09624 0.82697 0.18597 0.0
H494 H 0.12457 0.74098 0.12845 0.0
Co495 Co 0.73099 0.99428 0.63414 0.0
C496 C 0.81372 0.98706 0.64285 0.0
C497 C 0.78534 0.93392 0.64599 0.0
C498 C 0.82365 0.9278 0.64757 0.0
N499 N 0.77902 0.9712 0.64335 0.0
N500 N 0.84155 0.96128 0.64544 0.0
H501 H 0.81884 0.0166 0.63965 0.0
H502 H 0.76362 0.9125 0.64562 0.0
C503 C 0.71728 0.9574 0.68757 0.0
O504 O 0.7521 0.9646 0.6949 0.0
N505 N 0.68343 0.01731 0.62438 0.0
C506 C 0.67923 0.04924 0.61021 0.0
C507 C 0.64151 0.05813 0.60913 0.0
C508 C 0.64815 1.00708 0.63163 0.0
N509 N 0.62186 0.03178 0.62277 0.0
C510 C 0.76495 0.06589 0.6423 0.0
C511 C 0.73157 0.08404 0.69031 0.0
C512 C 0.75405 0.1113 0.6775 0.0
C513 C 0.7707 0.10139 0.65313 0.0
C514 C 0.7256 0.04878 0.67825 0.0
N515 N 0.74289 0.03966 0.65469 0.0
H516 H 0.7775 0.06039 0.62314 0.0
H517 H 0.70565 0.02996 0.68745 0.0
H518 H 0.7021 0.0654 0.60165 0.0
H519 H 0.64193 0.98263 0.64365 0.0
O520 O 0.75251 0.00923 0.60061 0.0
O521 O 0.72306 0.95508 0.60735 0.0
O522 O 0.705 0.96855 0.66497 0.0
C523 C 0.74146 0.9771 0.59113 0.0
H524 H 0.83722 0.90053 0.64869 0.0
H525 H 0.62966 0.08233 0.59906 0.0
H526 H 0.71765 0.09008 0.70904 0.0
H527 H 0.78671 0.12139 0.64141 0.0
C528 C 0.49416 0.26791 0.05392 0.0
C529 C 0.47483 0.24188 0.06987 0.0
C530 C 0.48634 0.27115 0.0267 0.0
C531 C 0.45863 0.24757 0.01506 0.0
C532 C 0.43754 0.22261 0.0313 0.0
C533 C 0.44586 0.2201 0.05868 0.0
C534 C 0.50927 0.29845 0.01015 0.0
C535 C 0.4077 0.19718 0.01958 0.0
C536 C 0.43689 0.27775 0.94437 0.0
C537 C 0.46436 0.2574 0.93038 0.0
C538 C 0.43223 0.27265 0.97198 0.0
C539 C 0.45542 0.24646 0.98555 0.0
C540 C 0.48065 0.22344 0.97094 0.0
C541 C 0.48497 0.22938 0.94353 0.0
C542 C 0.40483 0.29749 0.98687 0.0
C543 C 0.50551 0.19476 0.98456 0.0
H544 H 0.51619 0.28523 0.06261 0.0
H545 H 0.43077 0.20006 0.07103 0.0
H546 H 0.52762 0.28253 -0.00382 0.0
H547 H 0.49044 0.3165 -0.00203 0.0
H548 H 0.52741 0.31695 0.02263 0.0
H549 H 0.38968 0.1843 0.03526 0.0
H550 H 0.38951 0.21296 0.00548 0.0
H551 H 0.42145 0.17417 0.00815 0.0
H552 H 0.42078 0.2993 0.93415 0.0
H553 H 0.50573 0.21311 0.93257 0.0
H554 H 0.42061 0.32023 -0.00278 0.0
H555 H 0.38943 0.28117 0.0023 0.0
H556 H 0.38405 0.31077 0.97322 0.0
H557 H 0.52769 0.20959 -0.00385 0.0
H558 H 0.51949 0.17564 0.97003 0.0
H559 H 0.48889 0.17748 -0.00123 0.0
C560 C 0.23236 0.42796 0.43901 0.0
C561 C 0.25632 0.45319 0.42581 0.0
C562 C 0.23622 0.4218 0.46659 0.0
C563 C 0.26474 0.44125 0.48087 0.0
C564 C 0.29125 0.46365 0.46694 0.0
C565 C 0.28656 0.46946 0.43959 0.0
C566 C 0.20785 0.39719 0.48073 0.0
C567 C 0.32239 0.48455 0.48128 0.0
C568 C 0.24604 0.48353 0.54852 0.0
C569 C 0.26961 0.46205 0.56496 0.0
C570 C 0.24233 0.47528 0.52138 0.0
C571 C 0.26278 0.44476 0.51034 0.0
C572 C 0.28494 0.42154 0.5271 0.0
C573 C 0.28816 0.43052 0.55435 0.0
C574 C 0.21821 0.50072 0.50426 0.0
C575 C 0.30677 0.38853 0.51607 0.0
H576 H 0.20913 0.41514 0.42824 0.0
H577 H 0.30562 0.48836 0.42919 0.0
H578 H 0.22159 0.3802 0.49655 0.0
H579 H 0.18637 0.41529 0.49047 0.0
H580 H 0.19319 0.37792 0.46664 0.0
H581 H 0.34352 0.49639 0.4672 0.0
H582 H 0.31009 0.50815 0.49294 0.0
H583 H 0.33709 0.46568 0.49549 0.0
H584 H 0.23109 0.50755 0.55671 0.0
H585 H 0.30611 0.41361 0.5671 0.0
H586 H 0.19834 0.48376 0.49208 0.0
H587 H 0.23644 0.51679 0.4903 0.0
H588 H 0.20169 0.52117 0.51633 0.0
H589 H 0.2896 0.37253 0.50142 0.0
H590 H 0.31608 0.36905 0.53211 0.0
H591 H 0.33217 0.39904 0.50549 0.0
C592 C 0.07138 0.24354 0.92816 0.0
C593 C 0.04241 0.26387 0.91578 0.0
C594 C 0.07821 0.24753 0.95567 0.0
C595 C 0.05564 0.27256 0.97087 0.0
C596 C 0.02823 0.29505 0.95797 0.0
C597 C 0.02186 0.2903 0.93063 0.0
C598 C 0.10779 0.22321 0.96871 0.0
C599 C 1.00376 0.32234 0.97336 0.0
C600 C 0.0262 0.25072 0.0415 0.0
C601 C 0.04647 0.27764 0.05612 0.0
C602 C 0.03089 0.24721 0.01391 0.0
C603 C 0.05628 0.27149 0.0005 0.0
C604 C 0.07839 0.29739 0.01533 0.0
C605 C 0.07332 0.30008 0.04313 0.0
C606 C 1.00701 0.21891 -0.00107 0.0
C607 C 0.10582 0.32361 0.00171 0.0
H608 H 0.08745 0.22322 0.91667 0.0
H609 H 0.99987 0.30657 0.92102 0.0
H610 H 0.12473 0.23988 0.98312 0.0
H611 H 0.0938 0.20024 0.98003 0.0
H612 H 0.12705 0.21026 0.9538 0.0
H613 H 0.98689 0.34071 0.95998 0.0
H614 H 0.98407 0.30636 0.98635 0.0
H615 H 0.02129 0.34046 0.98647 0.0
H616 H 1.00588 0.23283 0.05156 0.0
H617 H 0.08916 0.32078 0.05445 0.0
H618 H 0.02483 0.20158 0.98549 0.0
H619 H 0.98623 0.234 0.98632 0.0
H620 H 0.9914 0.19976 0.01257 0.0
H621 H 0.12309 0.30808 0.98688 0.0
H622 H 0.1249 0.33772 0.0162 0.0
H623 H 0.08995 0.34565 0.99076 0.0
C624 C 0.29777 0.051 0.43926 0.0
C625 C 0.27603 0.02337 0.42643 0.0
C626 C 0.29503 0.05652 0.46696 0.0
C627 C 0.26965 0.03415 0.48195 0.0
C628 C 0.24661 0.00725 0.46886 0.0
C629 C 0.25027 1.00203 0.44128 0.0
C630 C 0.32025 0.08521 0.48029 0.0
C631 C 0.21884 0.98316 0.48411 0.0
C632 C 0.28552 0.00902 0.5543 0.0
C633 C 0.25846 0.03139 0.56708 0.0
C634 C 0.2912 0.01151 0.52671 0.0
C635 C 0.2688 0.03657 0.51153 0.0
C636 C 0.24288 0.06076 0.52455 0.0
C637 C 0.23819 0.05805 0.55232 0.0
C638 C 0.31963 0.98572 0.51364 0.0
C639 C 0.21839 0.08768 0.509 0.0
H640 H 0.31774 0.06755 0.42781 0.0
H641 H 0.23315 0.98089 0.43137 0.0
H642 H 0.30341 0.10428 0.49317 0.0
H643 H 0.34078 0.07056 0.49336 0.0
H644 H 0.33611 0.10249 0.46559 0.0
H645 H 0.20116 0.96553 0.47071 0.0
H646 H 0.23426 0.96426 0.49794 0.0
H647 H 0.20005 1.00119 0.49638 0.0
H648 H 0.30156 0.98871 0.56579 0.0
H649 H 0.2172 0.07533 0.5622 0.0
H650 H 0.33793 1.00183 0.49977 0.0
H651 H 0.30466 0.96399 0.50172 0.0
H652 H 0.33776 0.97122 0.5285 0.0
H653 H 0.23553 0.10394 0.49449 0.0
H654 H 0.20327 0.10776 0.52224 0.0
H655 H 0.1972 0.07144 0.49744 0.0
C656 C 0.56514 0.78402 0.94496 0.0
C657 C 0.5379 0.76326 0.93099 0.0
C658 C 0.56896 0.78016 0.97275 0.0
C659 C 0.54523 0.75469 0.98664 0.0
C660 C 0.51938 0.73201 0.97228 0.0
C661 C 0.51589 0.73674 0.94466 0.0
C662 C 0.59676 0.80487 0.9874 0.0
C663 C 0.49388 0.70415 0.98625 0.0
C664 C 0.56048 0.72527 0.05872 0.0
C665 C 0.53284 0.74675 0.07171 0.0
C666 C 0.56623 0.7287 0.03106 0.0
C667 C 0.54405 0.75448 0.01629 0.0
C668 C 0.51761 0.77767 0.02965 0.0
C669 C 0.51218 0.77336 0.05716 0.0
C670 C 0.59455 0.7034 0.01748 0.0
C671 C 0.49369 0.80583 0.0147 0.0
H672 H 0.58218 0.80455 0.9344 0.0
H673 H 0.49512 0.72028 0.93384 0.0
H674 H 0.58124 0.82655 -0.00101 0.0
H675 H 0.61343 0.78801 0.00181 0.0
H676 H 0.61643 0.81942 0.97355 0.0
H677 H 0.4782 0.68602 0.97195 0.0
H678 H 0.51049 0.6858 -0.00026 0.0
H679 H 0.47313 0.71961 -0.0013 0.0
H680 H 0.57652 0.70468 0.06994 0.0
H681 H 0.49111 0.79037 0.0672 0.0
H682 H 0.61278 0.71994 0.00383 0.0
H683 H 0.57947 0.68214 0.0052 0.0
H684 H 0.61268 0.68833 0.03205 0.0
H685 H 0.51166 0.82401 0.00194 0.0
H686 H 0.47709 0.82413 0.02835 0.0
H687 H 0.4738 0.79065 0.00138 0.0
C688 C 0.73665 0.57371 0.43468 0.0
C689 C 0.76092 0.54887 0.4214 0.0
C690 C 0.73984 0.57919 0.46239 0.0
C691 C 0.76804 0.55949 0.47674 0.0
C692 C 0.79489 0.53751 0.4628 0.0
C693 C 0.79085 0.53233 0.4353 0.0
C694 C 0.71103 0.60327 0.47653 0.0
C695 C 0.82571 0.51639 0.47722 0.0
C696 C 0.78918 0.57054 0.55062 0.0
C697 C 0.77029 0.53906 0.56105 0.0
C698 C 0.78703 0.57917 0.52328 0.0
C699 C 0.76558 0.55567 0.50619 0.0
C700 C 0.74492 0.52507 0.51696 0.0
C701 C 0.74758 0.51716 0.54422 0.0
C702 C 0.80914 0.6122 0.51254 0.0
C703 C 0.72153 0.49936 0.49947 0.0
H704 H 0.71354 0.58658 0.42387 0.0
H705 H 0.81002 0.51359 0.42487 0.0
H706 H 0.68957 0.58478 0.48594 0.0
H707 H 0.72437 0.62017 0.49261 0.0
H708 H 0.69641 0.6226 0.46252 0.0
H709 H 0.84723 0.50504 0.46324 0.0
H710 H 0.83996 0.53494 0.49192 0.0
H711 H 0.81318 0.49242 0.48836 0.0
H712 H 0.80655 0.58774 0.56363 0.0
H713 H 0.73249 0.49309 0.55223 0.0
H714 H 0.79203 0.62851 0.49808 0.0
H715 H 0.83438 0.6017 0.50178 0.0
H716 H 0.81868 0.6314 0.52873 0.0
H717 H 0.70186 0.51611 0.48703 0.0
H718 H 0.70486 0.47872 0.51126 0.0
H719 H 0.74029 0.48351 0.48573 0.0
C720 C 0.98294 0.74168 0.03704 0.0
C721 C 0.96149 0.76657 0.05252 0.0
C722 C 0.97653 0.73804 0.00963 0.0
C723 C 0.94814 0.76009 -0.00258 0.0
C724 C 0.92442 0.78307 0.0133 0.0
C725 C 0.93137 0.78601 0.04082 0.0
C726 C 1.00219 0.71283 0.99346 0.0
C727 C 0.89364 0.80667 0.00101 0.0
C728 C 0.97877 0.78774 0.92826 0.0
C729 C 0.96086 0.76032 0.91264 0.0
C730 C 0.97249 0.78974 0.95576 0.0
C731 C 0.94788 0.76344 0.96793 0.0
C732 C 0.92756 0.73745 0.95198 0.0
C733 C 0.93425 0.73624 0.92435 0.0
C734 C 0.99439 0.81825 0.97199 0.0
C735 C 0.90088 0.70921 0.96426 0.0
H736 H 1.00585 0.72611 0.04615 0.0
H737 H 0.91456 0.80511 0.05282 0.0
H738 H 0.98551 0.69488 0.97969 0.0
H739 H 0.02129 0.73045 0.98111 0.0
H740 H 0.01971 0.69429 0.00629 0.0
H741 H 0.87332 0.81696 0.01624 0.0
H742 H 0.90641 0.8315 0.99102 0.0
H743 H 0.87806 0.79042 0.98562 0.0
H744 H 0.99892 0.8068 0.91913 0.0
H745 H 0.92028 0.71509 0.91223 0.0
H746 H 0.01573 0.80346 0.98432 0.0
H747 H 0.97536 0.83361 0.98579 0.0
H748 H 0.00919 0.83915 0.95922 0.0
H749 H 0.91739 0.68642 0.9739 0.0
H750 H 0.88208 0.69622 0.94908 0.0
H751 H 0.8833 0.72262 0.97994 0.0
C752 C 0.7934 0.94376 0.43614 0.0
C753 C 0.7755 0.97435 0.42381 0.0
C754 C 0.78799 0.93649 0.46348 0.0
C755 C 0.76406 0.96033 0.47859 0.0
C756 C 0.74461 0.9901 0.46584 0.0
C757 C 0.75066 0.99677 0.43868 0.0
C758 C 0.8091 0.90444 0.4764 0.0
C759 C 0.71869 0.01613 0.48115 0.0
C760 C 0.72758 0.94218 0.54866 0.0
C761 C 0.75032 0.967 0.5633 0.0
C762 C 0.73329 0.9374 0.52106 0.0
C763 C 0.76255 0.95769 0.50817 0.0
C764 C 0.7873 0.98041 0.52341 0.0
C765 C 0.78074 0.98491 0.55074 0.0
C766 C 0.70647 0.91279 0.50546 0.0
C767 C 0.81909 1.00225 0.51058 0.0
H768 H 0.8124 0.92617 0.42464 0.0
H769 H 0.73625 0.02012 0.42918 0.0
H770 H 0.83176 0.91599 0.48931 0.0
H771 H 0.79001 0.88772 0.48935 0.0
H772 H 0.82213 0.88538 0.46141 0.0
H773 H 0.70324 0.03581 0.46784 0.0
H774 H 0.69782 0.99958 0.49275 0.0
H775 H 0.73538 0.03305 0.49558 0.0
H776 H 0.70417 0.92816 0.55843 0.0
H777 H 0.79884 1.00357 0.56216 0.0
H778 H 0.72199 0.89523 0.49079 0.0
H779 H 0.68664 0.93088 0.49412 0.0
H780 H 0.68975 0.89404 0.51871 0.0
H781 H 0.8357 0.98377 0.49714 0.0
H782 H 0.83843 0.01482 0.5256 0.0
H783 H 0.80725 0.02538 0.49827 0.0
C784 C 0.57473 0.90236 0.15816 0.0
C785 C 0.54468 0.87889 0.15045 0.0
C786 C 0.57324 0.94164 0.15447 0.0
C787 C 0.54111 0.95811 0.14244 0.0
C788 C 0.51077 0.93473 0.13445 0.0
C789 C 0.5128 0.89557 0.13869 0.0
C790 C 0.60613 0.96556 0.16344 0.0
C791 C 0.47612 0.95107 0.12136 0.0
C792 C 0.5243 0.06333 0.15315 0.0
C793 C 0.54 0.07887 0.12992 0.0
C794 C 0.52419 0.02411 0.15744 0.0
C795 C 0.53964 0.99974 0.13784 0.0
C796 C 0.55462 0.01525 0.11404 0.0
C797 C 0.55482 0.05455 0.11046 0.0
C798 C 0.5082 0.00881 0.18318 0.0
C799 C 0.57084 0.99033 0.09245 0.0
H800 H 0.5997 0.8901 0.16697 0.0
H801 H 0.48904 0.87815 0.13304 0.0
H802 H 0.61854 0.98046 0.14607 0.0
H803 H 0.59634 0.98741 0.17771 0.0
H804 H 0.62857 0.94862 0.17317 0.0
H805 H 0.45515 0.92906 0.11596 0.0
H806 H 0.46249 0.97165 0.13497 0.0
H807 H 0.48422 0.96657 0.103 0.0
H808 H 0.51313 0.08193 0.16838 0.0
H809 H 0.56649 0.06633 0.09232 0.0
H810 H 0.52998 0.99217 0.19381 0.0
H811 H 0.48436 0.9895 0.17883 0.0
H812 H 0.49806 0.03153 0.19666 0.0
H813 H 0.59541 0.97457 0.10034 0.0
H814 H 0.58004 1.00667 0.0747 0.0
H815 H 0.54957 0.96921 0.08605 0.0
C816 C 0.61308 0.51452 0.65736 0.0
C817 C 0.63147 0.5396 0.64011 0.0
C818 C 0.57359 0.51007 0.65653 0.0
C819 C 0.55219 0.53027 0.63739 0.0
C820 C 0.57099 0.55462 0.61932 0.0
C821 C 0.61025 0.55942 0.62119 0.0
C822 C 0.55467 0.4847 0.67666 0.0
C823 C 0.5496 0.57591 0.5981 0.0
C824 C 0.45195 0.49953 0.61952 0.0
C825 C 0.43048 0.52755 0.63203 0.0
C826 C 0.49162 0.49954 0.62143 0.0
C827 C 0.51004 0.52758 0.63691 0.0
C828 C 0.48809 0.55477 0.65065 0.0
C829 C 0.44869 0.55479 0.64767 0.0
C830 C 0.51385 0.47065 0.60589 0.0
C831 C 0.50627 0.58447 0.66802 0.0
H832 H 0.62956 0.49934 0.67203 0.0
H833 H 0.62459 0.57842 0.60763 0.0
H834 H 0.53535 0.50158 0.68935 0.0
H835 H 0.5373 0.46312 0.66637 0.0
H836 H 0.57532 0.47018 0.68975 0.0
H837 H 0.56867 0.59135 0.58431 0.0
H838 H 0.532 0.55615 0.58626 0.0
H839 H 0.53031 0.59654 0.6076 0.0
H840 H 0.43774 0.4787 0.60728 0.0
H841 H 0.43192 0.57624 0.65748 0.0
H842 H 0.53367 0.45558 0.61924 0.0
H843 H 0.53101 0.48506 0.59043 0.0
H844 H 0.49536 0.4496 0.59594 0.0
H845 H 0.52606 0.57115 0.68233 0.0
H846 H 0.48516 0.6011 0.67941 0.0
H847 H 0.52292 0.60412 0.65546 0.0
C848 C 0.96206 0.45623 0.14362 0.0
C849 C 0.98843 0.43849 0.12704 0.0
C850 C 0.96192 0.49558 0.14682 0.0
C851 C 0.98803 0.5179 0.13236 0.0
C852 C 0.01533 0.49995 0.116 0.0
C853 C 0.01553 0.46032 0.11385 0.0
C854 C 0.93306 0.5133 0.16509 0.0
C855 C 0.04304 0.52263 0.09973 0.0
C856 C 0.95319 0.61717 0.11763 0.0
C857 C 0.97353 0.6388 0.13605 0.0
C858 C 0.95885 0.57808 0.11551 0.0
C859 C 0.98464 0.55994 0.13287 0.0
C860 C 1.00544 0.58183 0.15146 0.0
C861 C 1.00006 0.62117 0.15251 0.0
C862 C 0.93684 0.55614 0.09489 0.0
C863 C 0.03234 0.56356 0.17084 0.0
H864 H 0.94131 0.43913 0.15391 0.0
H865 H 0.03566 0.44642 0.10089 0.0
H866 H 0.94691 0.53344 0.17894 0.0
H867 H 0.91234 0.52945 0.15313 0.0
H868 H 0.91755 0.49192 0.17702 0.0
H869 H 0.06396 0.50447 0.08939 0.0
H870 H 0.02756 0.53926 0.08453 0.0
H871 H 0.05831 0.54296 0.11263 0.0
H872 H 0.93301 0.63107 0.10474 0.0
H873 H 0.0156 0.63809 0.16679 0.0
H874 H 0.91704 0.53654 0.10495 0.0
H875 H 0.95625 0.53882 0.08257 0.0
H876 H 0.92039 0.57484 0.08147 0.0
H877 H 0.01654 0.54418 0.18416 0.0
H878 H 0.04742 0.58461 0.18334 0.0
H879 H 0.05345 0.54636 0.15996 0.0
C880 C 0.9074 0.94152 0.65418 0.0
C881 C 0.88183 0.9676 0.64342 0.0
C882 C 0.94654 0.9461 0.65104 0.0
C883 C 0.96069 0.97769 0.63692 0.0
C884 C 0.93518 1.00474 0.62672 0.0
C885 C 0.89617 0.99931 0.62997 0.0
C886 C 0.97275 0.91657 0.66224 0.0
C887 C 0.94905 0.03891 0.61167 0.0
C888 C 0.0653 1.00063 0.64451 0.0
C889 C 0.08072 0.98343 0.6217 0.0
C890 C 0.02624 0.99975 0.64949 0.0
C891 C 1.00195 0.98102 0.63134 0.0
C892 C 0.01722 0.96444 0.608 0.0
C893 C 0.05626 0.96599 0.60344 0.0
C894 C 0.0111 0.01811 0.67449 0.0
C895 C 0.99239 0.94432 0.58806 0.0
H896 H 0.89682 0.9173 0.66498 0.0
H897 H 0.87697 0.01948 0.62122 0.0
H898 H 0.9883 0.90268 0.64572 0.0
H899 H 0.99398 0.92994 0.67547 0.0
H900 H 0.95746 0.89459 0.67375 0.0
H901 H 0.9259 0.05888 0.60692 0.0
H902 H 0.97079 0.05403 0.62348 0.0
H903 H 0.96248 0.02989 0.59271 0.0
H904 H 0.08382 0.01385 0.65892 0.0
H905 H 0.06769 0.95324 0.58555 0.0
H906 H 0.99876 0.99632 0.68775 0.0
H907 H 0.98822 0.03814 0.66939 0.0
H908 H 0.03331 0.03353 0.68572 0.0
H909 H 0.9781 0.92015 0.59783 0.0
H910 H 0.00852 0.93362 0.57062 0.0
H911 H 0.97007 0.96362 0.58075 0.0
C912 C 0.57078 0.6078 0.84623 0.0
C913 C 0.54107 0.63312 0.85104 0.0
C914 C 0.56632 0.56878 0.85025 0.0
C915 C 0.53147 0.55451 0.85969 0.0
C916 C 0.5013 0.57971 0.86443 0.0
C917 C 0.50632 0.61849 0.85984 0.0
C918 C 0.59912 0.54282 0.84466 0.0
C919 C 0.46374 0.56573 0.87466 0.0
C920 C 0.51115 0.44955 0.8509 0.0
C921 C 0.52202 0.43501 0.87578 0.0
C922 C 0.51365 0.48839 0.84544 0.0
C923 C 0.52704 0.51339 0.8654 0.0
C924 C 0.53702 0.49897 0.89078 0.0
C925 C 0.53456 0.46002 0.8956 0.0
C926 C 0.50296 0.50248 0.81805 0.0
C927 C 0.55075 0.52465 0.91279 0.0
H928 H 0.59783 0.61834 0.83963 0.0
H929 H 0.48275 0.63727 0.86307 0.0
H930 H 0.60802 0.52872 0.86338 0.0
H931 H 0.59047 0.52039 0.83047 0.0
H932 H 0.62375 0.55804 0.83619 0.0
H933 H 0.44298 0.5889 0.87719 0.0
H934 H 0.45183 0.54457 0.86069 0.0
H935 H 0.46761 0.55151 0.89418 0.0
H936 H 0.50188 0.4304 0.83538 0.0
H937 H 0.54252 0.44902 0.91495 0.0
H938 H 0.52821 0.51435 0.80802 0.0
H939 H 0.48194 0.5255 0.81968 0.0
H940 H 0.49106 0.47978 0.80527 0.0
H941 H 0.57733 0.53864 0.9066 0.0
H942 H 0.55594 0.50922 0.93172 0.0
H943 H 0.52974 0.54718 0.91661 0.0
C944 C 0.9032 0.49579 0.34856 0.0
C945 C 0.88852 0.52986 0.33869 0.0
C946 C 0.94202 0.49139 0.3535 0.0
C947 C 0.96707 0.5216 0.34822 0.0
C948 C 0.95267 0.5557 0.33769 0.0
C949 C 0.91372 0.55947 0.33319 0.0
C950 C 0.95615 0.45459 0.36482 0.0
C951 C 0.97836 0.58858 0.33162 0.0
C952 C 0.06053 0.52948 0.38523 0.0
C953 C 0.08644 0.51693 0.36602 0.0
C954 C 0.02162 0.53012 0.37995 0.0
C955 C 0.00812 0.5183 0.35468 0.0
C956 C 0.03405 0.50491 0.33533 0.0
C957 C 0.07283 0.50414 0.3413 0.0
C958 C 0.995 0.54416 0.40128 0.0
C959 C 0.02093 0.49227 0.3081 0.0
H960 H 0.88438 0.47242 0.3525 0.0
H961 H 0.90306 0.58609 0.3259 0.0
H962 H 0.97822 0.44256 0.35164 0.0
H963 H 0.9693 0.45962 0.3846 0.0
H964 H 0.93325 0.43347 0.36719 0.0
H965 H 0.96311 0.61246 0.32221 0.0
H966 H 0.99168 0.59881 0.35031 0.0
H967 H 1.00139 0.57952 0.31806 0.0
H968 H 0.07077 0.53889 0.40448 0.0
H969 H 0.09265 0.49473 0.32625 0.0
H970 H 0.97281 0.5228 0.4052 0.0
H971 H 0.98066 0.57014 0.39433 0.0
H972 H 0.00975 0.55054 0.42032 0.0
H973 H 1.00118 0.46817 0.31012 0.0
H974 H 0.04471 0.48358 0.29504 0.0
H975 H 1.00533 0.51541 0.29814 0.0
C976 C 0.96866 0.06894 0.87424 0.0
C977 C 0.97966 0.09437 0.85427 0.0
C978 C 0.96717 0.02992 0.86936 0.0
C979 C 0.97634 0.0158 0.8437 0.0
C980 C 0.98792 0.04129 0.82349 0.0
C981 C 0.98972 0.0802 0.82908 0.0
C982 C 0.95547 1.00381 0.89167 0.0
C983 C 0.99762 0.02757 0.7958 0.0
C984 C 0.99992 0.91111 0.8381 0.0
C985 C 0.965 0.8951 0.83086 0.0
C986 C 1.00414 0.9502 0.84199 0.0
C987 C 0.97298 0.97444 0.83804 0.0
C988 C 0.93805 0.95889 0.82986 0.0
C989 C 0.93441 0.91961 0.82657 0.0
C990 C 0.04184 0.96549 0.85095 0.0
C991 C 0.90421 0.98376 0.82502 0.0
H992 H 0.96136 0.07966 0.89382 0.0
H993 H 0.99789 0.0997 0.81348 0.0
H994 H 0.92905 0.98893 0.88618 0.0
H995 H 0.97741 0.982 0.89485 0.0
H996 H 0.95079 0.01905 0.91076 0.0
H997 H 1.00605 0.05096 0.78232 0.0
H998 H 0.02103 1.00691 0.79675 0.0
H999 H 0.97298 0.01282 0.78696 0.0
H1000 H 0.02425 0.89327 0.84096 0.0
H1001 H 0.90724 0.90833 0.82096 0.0
H1002 H 0.0388 0.9793 0.87071 0.0
H1003 H 0.05196 0.98725 0.83677 0.0
H1004 H 0.06361 0.9431 0.85254 0.0
H1005 H 0.89557 0.99747 0.84397 0.0
H1006 H 0.87977 0.96774 0.817 0.0
H1007 H 0.91152 1.00652 0.81074 0.0
C1008 C 0.46224 0.947 0.37913 0.0
C1009 C 0.43845 0.96748 0.36212 0.0
C1010 C 0.50157 0.94763 0.37589 0.0
C1011 C 0.51774 0.96919 0.35503 0.0
C1012 C 0.49398 0.99047 0.33803 0.0
C1013 C 0.45466 0.98948 0.34184 0.0
C1014 C 0.52582 0.92476 0.3946 0.0
C1015 C 0.51005 0.01378 0.31554 0.0
C1016 C 0.62252 0.99175 0.36111 0.0
C1017 C 0.63888 0.96332 0.34538 0.0
C1018 C 0.58315 0.9946 0.36392 0.0
C1019 C 0.55943 0.96843 0.35068 0.0
C1020 C 0.57572 0.94022 0.3343 0.0
C1021 C 0.61515 0.93799 0.33189 0.0
C1022 C 0.56699 0.025 0.38165 0.0
C1023 C 0.55149 0.91192 0.31967 0.0
H1024 H 0.45005 0.93043 0.3951 0.0
H1025 H 0.43655 1.00512 0.32845 0.0
H1026 H 0.54153 0.90306 0.38315 0.0
H1027 H 0.54698 0.94321 0.40439 0.0
H1028 H 0.50899 0.91042 0.4103 0.0
H1029 H 0.48777 0.02826 0.30383 0.0
H1030 H 0.52963 0.03534 0.32364 0.0
H1031 H 0.52658 0.99556 0.30185 0.0
H1032 H 0.64049 0.01118 0.37189 0.0
H1033 H 0.62745 0.91634 0.31937 0.0
H1034 H 0.55238 0.01191 0.3989 0.0
H1035 H 0.54571 0.04169 0.37057 0.0
H1036 H 0.58903 0.04447 0.38933 0.0
H1037 H 0.53563 0.89453 0.33425 0.0
H1038 H 0.56838 0.89285 0.30675 0.0
H1039 H 0.53047 0.92672 0.30709 0.0
C1040 C 0.45887 0.10915 0.82697 0.0
C1041 C 0.47011 0.13414 0.84717 0.0
C1042 C 0.46252 0.06992 0.83013 0.0
C1043 C 0.47723 0.05524 0.85426 0.0
C1044 C 0.48896 0.08039 0.87463 0.0
C1045 C 0.48544 0.11948 0.87078 0.0
C1046 C 0.45014 0.04415 0.80777 0.0
C1047 C 0.50426 0.06599 0.90081 0.0
C1048 C 0.44753 0.9564 0.87485 0.0
C1049 C 0.47982 0.93489 0.86906 0.0
C1050 C 0.44643 0.99539 0.87012 0.0
C1051 C 0.47817 0.01365 0.85891 0.0
C1052 C 0.51068 0.99225 0.85257 0.0
C1053 C 0.51122 0.95326 0.85786 0.0
C1054 C 0.4112 0.0171 0.87727 0.0
C1055 C 0.54498 0.0106 0.84032 0.0
H1056 H 0.44744 0.12039 0.80858 0.0
H1057 H 0.49371 0.13859 0.88662 0.0
H1058 H 0.47329 0.02455 0.80237 0.0
H1059 H 0.42594 0.0267 0.81445 0.0
H1060 H 0.4416 0.06001 0.78966 0.0
H1061 H 0.51355 0.0892 0.9142 0.0
H1062 H 0.48223 0.04934 0.91124 0.0
H1063 H 0.52848 0.0469 0.89721 0.0
H1064 H 0.42271 0.94285 0.88291 0.0
H1065 H 0.53647 0.93736 0.85343 0.0
H1066 H 0.39951 0.03086 0.85921 0.0
H1067 H 0.41813 0.03976 0.89175 0.0
H1068 H 0.38904 0.99881 0.88611 0.0
H1069 H 0.53702 0.02553 0.82172 0.0
H1070 H 0.56746 0.98985 0.83558 0.0
H1071 H 0.55663 0.032 0.85423 0.0
C1072 C 0.40191 0.50069 0.36083 0.0
C1073 C 0.38905 0.4689 0.34663 0.0
C1074 C 0.44057 0.50748 0.36466 0.0
C1075 C 0.4673 0.4816 0.35452 0.0
C1076 C 0.45475 0.44997 0.33969 0.0
C1077 C 0.4159 0.44412 0.33581 0.0
C1078 C 0.45279 0.54201 0.38007 0.0
C1079 C 0.48239 0.42179 0.32842 0.0
C1080 C 0.57154 0.50718 0.34891 0.0
C1081 C 0.58657 0.49009 0.37185 0.0
C1082 C 0.53266 0.50583 0.3434 0.0
C1083 C 0.50818 0.48622 0.36092 0.0
C1084 C 0.52294 0.46998 0.3845 0.0
C1085 C 0.56173 0.47248 0.38979 0.0
C1086 C 0.51821 0.52428 0.31829 0.0
C1087 C 0.49789 0.44894 0.40382 0.0
H1088 H 0.3819 0.52 0.36966 0.0
H1089 H 0.40661 0.41991 0.3244 0.0
H1090 H 0.46643 0.53337 0.39902 0.0
H1091 H 0.47398 0.55816 0.36844 0.0
H1092 H 0.42877 0.56093 0.38486 0.0
H1093 H 0.46823 0.39914 0.3168 0.0
H1094 H 0.50295 0.43629 0.31527 0.0
H1095 H 0.49857 0.40862 0.34491 0.0
H1096 H 0.59019 0.52062 0.33471 0.0
H1097 H 0.57263 0.45994 0.40787 0.0
H1098 H 0.49051 0.53797 0.32168 0.0
H1099 H 0.51441 0.50248 0.30262 0.0
H1100 H 0.5383 0.54579 0.31069 0.0
H1101 H 0.47478 0.46751 0.41085 0.0
H1102 H 0.51362 0.43843 0.42147 0.0
H1103 H 0.48467 0.42452 0.39357 0.0
C1104 C 0.00974 0.41136 0.84828 0.0
C1105 C 0.04246 0.39597 0.83676 0.0
C1106 C 1.00592 0.45044 0.85232 0.0
C1107 C 0.03533 0.47504 0.84443 0.0
C1108 C 0.0683 0.45985 0.83263 0.0
C1109 C 0.07154 0.42063 0.82908 0.0
C1110 C 0.9704 0.4654 0.86512 0.0
C1111 C 0.10028 0.48507 0.8238 0.0
C1112 C 0.01457 0.57945 0.83336 0.0
C1113 C 0.02933 0.59577 0.85666 0.0
C1114 C 0.01596 0.54021 0.8292 0.0
C1115 C 0.03205 0.5166 0.84896 0.0
C1116 C 0.04601 0.53286 0.87283 0.0
C1117 C 0.04466 0.57218 0.87631 0.0
C1118 C 1.00097 0.52411 0.80339 0.0
C1119 C 0.06287 0.50876 0.89458 0.0
H1120 H 0.98672 0.39295 0.85387 0.0
H1121 H 0.09712 0.40934 0.82045 0.0
H1122 H 0.97753 0.48123 0.88355 0.0
H1123 H 0.9562 0.48538 0.85141 0.0
H1124 H 0.95024 0.44256 0.87033 0.0
H1125 H 0.12354 0.46902 0.81425 0.0
H1126 H 0.08977 0.50639 0.80943 0.0
H1127 H 0.11181 0.50059 0.84122 0.0
H1128 H 1.00303 0.59748 0.81798 0.0
H1129 H 0.05561 0.58454 0.8945 0.0
H1130 H 0.97809 0.50362 0.80762 0.0
H1131 H 0.02366 0.50859 0.79281 0.0
H1132 H 0.98981 0.54627 0.78989 0.0
H1133 H 0.04241 0.4868 0.90084 0.0
H1134 H 0.07107 0.52557 0.91238 0.0
H1135 H 0.08823 0.49401 0.88691 0.0
C1136 C 0.95974 1.00453 0.36719 0.0
C1137 C 0.93884 0.03263 0.35436 0.0
C1138 C 0.99938 1.00371 0.36527 0.0
C1139 C 0.01833 0.03097 0.34945 0.0
C1140 C 0.99696 0.05828 0.33545 0.0
C1141 C 0.95758 0.05914 0.33845 0.0
C1142 C 0.02103 0.97475 0.38108 0.0
C1143 C 0.01574 0.08713 0.31772 0.0
C1144 C 0.11944 0.06023 0.36468 0.0
C1145 C 0.14 0.03914 0.34604 0.0
C1146 C 0.08005 0.05683 0.36656 0.0
C1147 C 0.06049 0.0326 0.34878 0.0
C1148 C 0.08121 0.01124 0.32985 0.0
C1149 C 0.12081 0.01432 0.32902 0.0
C1150 C 0.05933 0.07932 0.38755 0.0
C1151 C 0.06149 0.98597 0.31001 0.0
H1152 H 0.94513 0.98426 0.37963 0.0
H1153 H 0.94123 0.08065 0.32838 0.0
H1154 H 0.04027 0.95872 0.36782 0.0
H1155 H 0.03878 0.9892 0.39621 0.0
H1156 H 1.00213 0.95453 0.39147 0.0
H1157 H 0.99495 0.10401 0.30625 0.0
H1158 H 0.03294 0.10665 0.33003 0.0
H1159 H 0.03509 0.073 0.30347 0.0
H1160 H 0.1344 0.07901 0.37807 0.0
H1161 H 0.1368 0.99817 0.31455 0.0
H1162 H 0.04136 0.06036 0.39975 0.0
H1163 H 0.04045 0.10009 0.37784 0.0
H1164 H 0.07886 0.09474 0.40103 0.0
H1165 H 0.04382 0.96493 0.32059 0.0
H1166 H 0.08165 0.97079 0.29687 0.0
H1167 H 0.04235 1.00305 0.29736 0.0
C1168 C 0.45069 0.40287 0.16402 0.0
C1169 C 0.47513 0.37879 0.15002 0.0
C1170 C 0.45271 0.44224 0.16106 0.0
C1171 C 0.47985 0.45819 0.14365 0.0
C1172 C 0.50529 0.43417 0.13 0.0
C1173 C 0.50262 0.39484 0.13332 0.0
C1174 C 0.42525 0.46678 0.17618 0.0
C1175 C 0.53481 0.45 0.1114 0.0
C1176 C 0.45638 0.55456 0.11461 0.0
C1177 C 0.47709 0.57906 0.13107 0.0
C1178 C 0.45757 0.51528 0.11823 0.0
C1179 C 0.48022 0.4998 0.13875 0.0
C1180 C 0.50205 0.52421 0.15498 0.0
C1181 C 0.50008 0.56347 0.15105 0.0
C1182 C 0.434 0.49035 0.10035 0.0
C1183 C 0.5267 0.50908 0.17705 0.0
H1184 H 0.42982 0.39087 0.17731 0.0
H1185 H 0.52143 0.37666 0.12219 0.0
H1186 H 0.44077 0.4879 0.18829 0.0
H1187 H 0.40728 0.48252 0.16191 0.0
H1188 H 0.4067 0.45015 0.18964 0.0
H1189 H 0.5538 0.4278 0.1034 0.0
H1190 H 0.52092 0.46437 0.09439 0.0
H1191 H 0.55211 0.47142 0.12195 0.0
H1192 H 0.43908 0.56609 0.09882 0.0
H1193 H 0.51587 0.58192 0.16416 0.0
H1194 H 0.41305 0.47466 0.11249 0.0
H1195 H 0.45215 0.46917 0.09032 0.0
H1196 H 0.41872 0.50665 0.08484 0.0
H1197 H 0.50869 0.49955 0.19385 0.0
H1198 H 0.5466 0.53077 0.18468 0.0
H1199 H 0.54316 0.48437 0.17008 0.0
C1200 C 0.106 0.43383 0.65596 0.0
C1201 C 0.13054 0.45901 0.64305 0.0
C1202 C 0.06663 0.43716 0.65341 0.0
C1203 C 0.05121 0.46642 0.63759 0.0
C1204 C 0.07574 0.49237 0.62493 0.0
C1205 C 0.11497 0.48829 0.62773 0.0
C1206 C 0.04152 0.40892 0.66729 0.0
C1207 C 0.06056 0.52394 0.60785 0.0
C1208 C 0.95411 0.45018 0.60734 0.0
C1209 C 0.9305 0.47065 0.62457 0.0
C1210 C 0.99328 0.4488 0.6113 0.0
C1211 C 0.0096 0.46852 0.633 0.0
C1212 C 0.98612 0.48984 0.65024 0.0
C1213 C 0.9469 0.49068 0.64581 0.0
C1214 C 0.0172 0.42586 0.59235 0.0
C1215 C 1.00239 0.51146 0.67351 0.0
H1216 H 0.11758 0.41147 0.66814 0.0
H1217 H 0.13341 0.50762 0.6173 0.0
H1218 H 0.02081 0.42374 0.68015 0.0
H1219 H 0.02529 0.39264 0.65224 0.0
H1220 H 0.05776 0.38882 0.67978 0.0
H1221 H 0.08317 0.54318 0.60076 0.0
H1222 H 0.04587 0.512 0.59021 0.0
H1223 H 0.03956 0.54067 0.61921 0.0
H1224 H 0.94196 0.4352 0.59059 0.0
H1225 H 0.92903 0.50633 0.65939 0.0
H1226 H 0.03228 0.40348 0.60351 0.0
H1227 H 0.03887 0.44409 0.58294 0.0
H1228 H 1.00023 0.41237 0.57633 0.0
H1229 H 0.0182 0.4921 0.68679 0.0
H1230 H 0.98031 0.52592 0.68545 0.0
H1231 H 0.02269 0.5329 0.66616 0.0
C1232 C 0.06012 0.96085 0.10004 0.0
C1233 C 0.03205 0.9391 0.11253 0.0
C1234 C 0.06382 0.99963 0.10509 0.0
C1235 C 0.0393 0.01739 0.1235 0.0
C1236 C 0.01153 0.99561 0.13678 0.0
C1237 C 0.00807 0.95686 0.13103 0.0
C1238 C 0.09374 0.02175 0.09038 0.0
C1239 C 0.9851 0.01335 0.15678 0.0
C1240 C 0.07248 0.11273 0.14987 0.0
C1241 C 0.05212 0.13787 0.13382 0.0
C1242 C 0.06763 0.07348 0.14742 0.0
C1243 C 0.04228 0.05895 0.12811 0.0
C1244 C 0.02139 0.08425 0.11202 0.0
C1245 C 0.02639 0.12333 0.11519 0.0
C1246 C 0.08998 0.04754 0.16527 0.0
C1247 C 0.99454 0.07005 0.0909 0.0
H1248 H 0.07948 0.94767 0.08622 0.0
H1249 H 0.98609 0.94072 0.14073 0.0
H1250 H 0.08038 0.0445 0.07852 0.0
H1251 H 0.11311 0.03542 0.10483 0.0
H1252 H 0.11063 1.00376 0.07671 0.0
H1253 H 0.96695 0.99214 0.16685 0.0
H1254 H 1.00137 0.02889 0.17218 0.0
H1255 H 0.9667 0.03412 0.1466 0.0
H1256 H 0.09203 0.12385 0.16451 0.0
H1257 H 0.01092 0.14256 0.10249 0.0
H1258 H 0.10962 0.03037 0.15305 0.0
H1259 H 0.07078 0.0277 0.17569 0.0
H1260 H 0.10661 0.06326 0.18043 0.0
H1261 H 0.01035 0.0537 0.07568 0.0
H1262 H 0.97936 0.09334 0.08073 0.0
H1263 H 0.97348 0.05072 0.0999 0.0
C1264 C 0.40726 0.04164 0.67184 0.0
C1265 C 0.38205 0.03629 0.65057 0.0
C1266 C 0.44649 0.03929 0.66803 0.0
C1267 C 0.46104 0.03155 0.64228 0.0
C1268 C 0.43577 0.02572 0.62077 0.0
C1269 C 0.39667 0.02812 0.62517 0.0
C1270 C 0.47237 0.04548 0.69156 0.0
C1271 C 0.45006 0.01761 0.59296 0.0
C1272 C 0.56049 0.06489 0.62601 0.0
C1273 C 0.5816 0.03147 0.62788 0.0
C1274 C 0.52143 0.06522 0.63064 0.0
C1275 C 0.50268 0.03136 0.63756 0.0
C1276 C 0.52373 0.99757 0.63983 0.0
C1277 C 0.56283 0.998 0.63491 0.0
C1278 C 0.50019 0.10195 0.62814 0.0
C1279 C 0.50489 0.96088 0.64731 0.0
H1280 H 0.3963 0.04733 0.69161 0.0
H1281 H 0.37755 0.02436 0.60854 0.0
H1282 H 0.49143 0.02094 0.69398 0.0
H1283 H 0.49039 0.07056 0.68796 0.0
H1284 H 0.45662 0.04978 0.71048 0.0
H1285 H 0.42678 0.01225 0.57862 0.0
H1286 H 0.46691 0.04189 0.58566 0.0
H1287 H 0.46893 0.99269 0.5932 0.0
H1288 H 0.5745 0.09113 0.62121 0.0
H1289 H 0.57855 0.97193 0.63625 0.0
H1290 H 0.48624 0.10888 0.64735 0.0
H1291 H 0.4777 0.09918 0.61288 0.0
H1292 H 0.51885 0.12582 0.62248 0.0
H1293 H 0.48984 0.96403 0.6666 0.0
H1294 H 0.52534 0.93731 0.64909 0.0
H1295 H 0.48353 0.95331 0.63204 0.0
C1296 C 0.85149 0.28205 0.19957 0.0
C1297 C 0.86876 0.25433 0.18373 0.0
C1298 C 0.81259 0.28116 0.20485 0.0
C1299 C 0.78963 0.25301 0.19269 0.0
C1300 C 0.80732 0.22406 0.17762 0.0
C1301 C 0.8466 0.2239 0.17492 0.0
C1302 C 0.79675 0.31242 0.22192 0.0
C1303 C 0.78545 0.19406 0.16268 0.0
C1304 C 0.6857 0.22705 0.20078 0.0
C1305 C 0.66777 0.25609 0.18662 0.0
C1306 C 0.72492 0.22705 0.20478 0.0
C1307 C 0.7475 0.25579 0.19304 0.0
C1308 C 0.72935 0.28558 0.17916 0.0
C1309 C 0.68993 0.28639 0.17764 0.0
C1310 C 0.74127 0.19494 0.22075 0.0
C1311 C 0.75072 0.31602 0.16437 0.0
H1312 H 0.86768 0.30577 0.20691 0.0
H1313 H 0.85952 0.20069 0.16427 0.0
H1314 H 0.76698 0.30786 0.22734 0.0
H1315 H 0.81358 0.3155 0.24046 0.0
H1316 H 0.79937 0.33961 0.21114 0.0
H1317 H 0.80037 0.18573 0.14408 0.0
H1318 H 0.78339 0.16844 0.17526 0.0
H1319 H 0.75668 0.2033 0.15708 0.0
H1320 H 0.66961 0.20325 0.20806 0.0
H1321 H 0.67679 0.31033 0.16803 0.0
H1322 H 0.77177 0.198 0.2247 0.0
H1323 H 0.7363 0.168 0.21001 0.0
H1324 H 0.7262 0.19251 0.2401 0.0
H1325 H 0.75253 0.34151 0.17714 0.0
H1326 H 0.73541 0.32439 0.14596 0.0
H1327 H 0.77954 0.30729 0.15845 0.0
C1328 C 0.20705 0.66469 0.68292 0.0
C1329 C 0.24239 0.64766 0.68641 0.0
C1330 C 0.20295 0.70397 0.68385 0.0
C1331 C 0.23474 0.72679 0.68971 0.0
C1332 C 0.26969 0.70932 0.69596 0.0
C1333 C 0.27303 0.67001 0.69418 0.0
C1334 C 0.16489 0.7205 0.67706 0.0
C1335 C 0.30482 0.73134 0.70293 0.0
C1336 C 0.24884 0.82353 0.65941 0.0
C1337 C 0.2334 0.84736 0.6789 0.0
C1338 C 0.24835 0.78433 0.66245 0.0
C1339 C 0.23277 0.76836 0.68589 0.0
C1340 C 0.21556 0.7922 0.70509 0.0
C1341 C 0.21612 0.83147 0.70136 0.0
C1342 C 0.26441 0.76007 0.64039 0.0
C1343 C 0.19578 0.77689 0.72935 0.0
H1344 H 0.18291 0.64737 0.67776 0.0
H1345 H 0.30048 0.65722 0.69702 0.0
H1346 H 0.16715 0.74846 0.66729 0.0
H1347 H 0.14868 0.70148 0.66366 0.0
H1348 H 0.14834 0.72378 0.6957 0.0
H1349 H 0.32826 0.72282 0.68952 0.0
H1350 H 0.3014 0.76229 0.70158 0.0
H1351 H 0.31362 0.72403 0.72356 0.0
H1352 H 0.26091 0.83556 0.64145 0.0
H1353 H 0.20346 0.84973 0.71624 0.0
H1354 H 0.24562 0.73569 0.63623 0.0
H1355 H 0.29221 0.74886 0.64664 0.0
H1356 H 0.26846 0.77617 0.6216 0.0
H1357 H 0.16516 0.77476 0.72515 0.0
H1358 H 0.19904 0.79658 0.74637 0.0
H1359 H 0.20627 0.74865 0.73518 0.0
C1360 C 0.837 0.31049 0.79948 0.0
C1361 C 0.85264 0.27403 0.79912 0.0
C1362 C 0.79789 0.316 0.8001 0.0
C1363 C 0.77369 0.28438 0.79866 0.0
C1364 C 0.78917 0.24804 0.79449 0.0
C1365 C 0.82841 0.24315 0.79534 0.0
C1366 C 0.78318 0.35536 0.80493 0.0
C1367 C 0.76426 0.21383 0.79122 0.0
C1368 C 0.68247 0.28092 0.83768 0.0
C1369 C 0.65551 0.28706 0.81769 0.0
C1370 C 0.72105 0.28149 0.83186 0.0
C1371 C 0.73302 0.28815 0.80536 0.0
C1372 C 0.70606 0.2965 0.78542 0.0
C1373 C 0.6675 0.29574 0.79178 0.0
C1374 C 0.74899 0.27445 0.85405 0.0
C1375 C 0.71799 0.30494 0.75728 0.0
H1376 H 0.85526 0.3349 0.80101 0.0
H1377 H 0.83964 0.21479 0.79476 0.0
H1378 H 0.75444 0.35957 0.79684 0.0
H1379 H 0.78204 0.36049 0.82677 0.0
H1380 H 0.80227 0.37683 0.79607 0.0
H1381 H 0.77996 0.18952 0.78273 0.0
H1382 H 0.75286 0.20544 0.81097 0.0
H1383 H 0.74002 0.22026 0.77803 0.0
H1384 H 0.67335 0.2755 0.85797 0.0
H1385 H 0.64674 0.30084 0.77633 0.0
H1386 H 0.77063 0.29707 0.85437 0.0
H1387 H 0.76378 0.24735 0.8505 0.0
H1388 H 0.73523 0.27318 0.87395 0.0
H1389 H 0.73802 0.32895 0.75689 0.0
H1390 H 0.69377 0.31169 0.7441 0.0
H1391 H 0.73304 0.28004 0.74936 0.0
C1392 C 0.30234 0.8296 0.29474 0.0
C1393 C 0.26832 0.84932 0.2978 0.0
C1394 C 0.30278 0.79001 0.29348 0.0
C1395 C 0.2684 0.76983 0.29533 0.0
C1396 C 0.23385 0.78978 0.29588 0.0
C1397 C 0.23424 0.82926 0.29687 0.0
C1398 C 0.34018 0.76978 0.29293 0.0
C1399 C 0.19638 0.76965 0.29791 0.0
C1400 C 0.26486 0.66277 0.28829 0.0
C1401 C 0.26044 0.65192 0.31496 0.0
C1402 C 0.26932 0.70092 0.2814 0.0
C1403 C 0.26856 0.72886 0.30169 0.0
C1404 C 0.26532 0.71777 0.32873 0.0
C1405 C 0.26075 0.67963 0.33496 0.0
C1406 C 0.27444 0.71036 0.25236 0.0
C1407 C 0.26659 0.7462 0.35123 0.0
H1408 H 0.32883 0.84481 0.29556 0.0
H1409 H 0.20779 0.84436 0.29868 0.0
H1410 H 0.3449 0.75571 0.31242 0.0
H1411 H 0.34014 0.74757 0.27734 0.0
H1412 H 0.36407 0.78932 0.28907 0.0
H1413 H 0.17321 0.78707 0.28957 0.0
H1414 H 0.19686 0.74206 0.28745 0.0
H1415 H 0.1898 0.76435 0.31922 0.0
H1416 H 0.26535 0.64141 0.27279 0.0
H1417 H 0.25707 0.6715 0.35565 0.0
H1418 H 0.29479 0.69051 0.24305 0.0
H1419 H 0.28465 0.73947 0.24899 0.0
H1420 H 0.24714 0.7064 0.24199 0.0
H1421 H 0.26894 0.73251 0.37109 0.0
H1422 H 0.2406 0.76353 0.35108 0.0
H1423 H 0.29091 0.76559 0.34863 0.0
C1424 C 0.17809 0.74084 0.7928 0.0
C1425 C 0.15617 0.77263 0.79886 0.0
C1426 C 0.21758 0.74333 0.79154 0.0
C1427 C 0.23552 0.77816 0.79712 0.0
C1428 C 0.2135 0.81082 0.80139 0.0
C1429 C 0.17411 0.80777 0.8017 0.0
C1430 C 0.24017 0.70825 0.78562 0.0
C1431 C 0.23135 0.84843 0.80783 0.0
C1432 C 0.32862 0.77004 0.8333 0.0
C1433 C 0.35476 0.7778 0.81301 0.0
C1434 C 0.28985 0.77056 0.82834 0.0
C1435 C 0.27671 0.77913 0.80241 0.0
C1436 C 0.30281 0.78815 0.78198 0.0
C1437 C 0.34167 0.78737 0.78752 0.0
C1438 C 0.26295 0.76183 0.85091 0.0
C1439 C 0.28968 0.79797 0.75428 0.0
H1440 H 0.1647 0.71356 0.79052 0.0
H1441 H 0.15737 0.83272 0.80563 0.0
H1442 H 0.26236 0.71438 0.77061 0.0
H1443 H 0.25445 0.69859 0.80409 0.0
H1444 H 0.22218 0.68493 0.77802 0.0
H1445 H 0.21089 0.872 0.80612 0.0
H1446 H 0.24219 0.84783 0.8286 0.0
H1447 H 0.25562 0.85425 0.79452 0.0
H1448 H 0.33854 0.76376 0.85327 0.0
H1449 H 0.3618 0.79357 0.77184 0.0
H1450 H 0.24652 0.73605 0.84614 0.0
H1451 H 0.24256 0.78528 0.85344 0.0
H1452 H 0.27776 0.75733 0.87017 0.0
H1453 H 0.2732 0.7741 0.7461 0.0
H1454 H 0.3135 0.80431 0.7406 0.0
H1455 H 0.27065 0.82273 0.75486 0.0
C1456 C 0.7252 0.17352 0.30343 0.0
C1457 C 0.75745 0.15246 0.29697 0.0
C1458 C 0.72526 0.21296 0.30222 0.0
C1459 C 0.75697 0.23199 0.29135 0.0
C1460 C 0.78748 0.21037 0.28111 0.0
C1461 C 0.78775 0.17109 0.28468 0.0
C1462 C 0.69201 0.23338 0.31439 0.0
C1463 C 0.82141 0.22808 0.26788 0.0
C1464 C 0.73882 0.338 0.28625 0.0
C1465 C 0.76379 0.3519 0.30553 0.0
C1466 C 0.73693 0.29923 0.28053 0.0
C1467 C 0.76068 0.2737 0.29457 0.0
C1468 C 0.78654 0.28809 0.31369 0.0
C1469 C 0.78861 0.32696 0.31813 0.0
C1470 C 0.70711 0.28629 0.2611 0.0
C1471 C 0.81074 0.26287 0.33097 0.0
H1472 H 0.70049 0.15943 0.31135 0.0
H1473 H 0.81285 0.15561 0.2791 0.0
H1474 H 0.68036 0.21733 0.33156 0.0
H1475 H 0.6991 0.26212 0.32153 0.0
H1476 H 0.66924 0.23538 0.2993 0.0
H1477 H 0.82731 0.21374 0.24862 0.0
H1478 H 0.81799 0.25858 0.2641 0.0
H1479 H 0.84667 0.22366 0.28055 0.0
H1480 H 0.71913 0.35709 0.27673 0.0
H1481 H 0.80841 0.3377 0.33278 0.0
H1482 H 0.67902 0.28882 0.27068 0.0
H1483 H 0.7111 0.25681 0.25459 0.0
H1484 H 0.70633 0.30492 0.24333 0.0
H1485 H 0.79725 0.23521 0.33496 0.0
H1486 H 0.81699 0.27637 0.3505 0.0
H1487 H 0.83812 0.25799 0.32088 0.0
C1488 C 0.32445 0.72844 0.18827 0.0
C1489 C 0.34992 0.7583 0.19178 0.0
C1490 C 0.28543 0.73493 0.18772 0.0
C1491 C 0.27161 0.77224 0.19027 0.0
C1492 C 0.29691 0.80191 0.19626 0.0
C1493 C 0.33574 0.79447 0.19731 0.0
C1494 C 0.25934 0.7021 0.18241 0.0
C1495 C 0.28331 0.84199 0.19939 0.0
C1496 C 0.18437 0.78524 0.14792 0.0
C1497 C 0.15562 0.78499 0.16712 0.0
C1498 C 0.22236 0.78337 0.15542 0.0
C1499 C 0.23186 0.78057 0.1828 0.0
C1500 C 0.20299 0.78295 0.20228 0.0
C1501 C 0.1652 0.78495 0.1942 0.0
C1502 C 0.25228 0.78372 0.13395 0.0
C1503 C 0.21088 0.78213 0.23172 0.0
H1504 H 0.33491 0.70036 0.18403 0.0
H1505 H 0.35524 0.81752 0.20077 0.0
H1506 H 0.23221 0.70544 0.1932 0.0
H1507 H 0.25308 0.70063 0.16075 0.0
H1508 H 0.27239 0.67494 0.18842 0.0
H1509 H 0.30642 0.8616 0.20504 0.0
H1510 H 0.27075 0.85176 0.18033 0.0
H1511 H 0.26098 0.84351 0.21485 0.0
H1512 H 0.1771 0.7866 0.12693 0.0
H1513 H 0.14309 0.78516 0.20916 0.0
H1514 H 0.26527 0.75538 0.13231 0.0
H1515 H 0.275 0.80399 0.13917 0.0
H1516 H 0.24062 0.79146 0.11413 0.0
H1517 H 0.20094 0.7548 0.23982 0.0
H1518 H 0.19449 0.80466 0.24184 0.0
H1519 H 0.24102 0.78598 0.23667 0.0
C1520 C 0.72722 0.16855 0.70075 0.0
C1521 C 0.75714 0.15112 0.68723 0.0
C1522 C 0.72647 0.20778 0.70469 0.0
C1523 C 0.7558 0.23058 0.69387 0.0
C1524 C 0.78711 0.21271 0.68153 0.0
C1525 C 0.78819 0.17334 0.67979 0.0
C1526 C 0.69295 0.22378 0.71945 0.0
C1527 C 0.81884 0.23436 0.66836 0.0
C1528 C 0.72326 0.32777 0.67201 0.0
C1529 C 0.75117 0.35155 0.68277 0.0
C1530 C 0.72479 0.28858 0.67509 0.0
C1531 C 0.75203 0.27251 0.69237 0.0
C1532 C 0.77774 0.2967 0.70582 0.0
C1533 C 0.77776 0.33556 0.70022 0.0
C1534 C 0.69798 0.2648 0.65865 0.0
C1535 C 0.80625 0.28218 0.72566 0.0
H1536 H 0.70313 0.15207 0.7071 0.0
H1537 H 0.81272 0.16022 0.67088 0.0
H1538 H 0.69007 0.25466 0.71761 0.0
H1539 H 0.66649 0.21053 0.71216 0.0
H1540 H 0.69546 0.21664 0.74092 0.0
H1541 H 0.82982 0.21885 0.65071 0.0
H1542 H 0.8103 0.26286 0.66161 0.0
H1543 H 0.84256 0.23709 0.68264 0.0
H1544 H 0.70079 0.33934 0.65996 0.0
H1545 H 0.79959 0.35285 0.70905 0.0
H1546 H 0.67236 0.25853 0.67053 0.0
H1547 H 0.71093 0.23773 0.65237 0.0
H1548 H 0.68872 0.27994 0.64039 0.0
H1549 H 0.80745 0.30129 0.74318 0.0
H1550 H 0.83473 0.28267 0.71653 0.0
H1551 H 0.79988 0.25324 0.73275 0.0
C1552 C 0.3674 0.0719 0.29375 0.0
C1553 C 0.32962 0.06729 0.286 0.0
C1554 C 0.39182 0.09576 0.27966 0.0
C1555 C 0.37822 0.11557 0.25717 0.0
C1556 C 0.34026 0.11079 0.249 0.0
C1557 C 0.3164 0.08665 0.2635 0.0
C1558 C 0.43217 0.09977 0.2889 0.0
C1559 C 0.32484 0.13134 0.22501 0.0
C1560 C 0.43102 0.20311 0.23395 0.0
C1561 C 0.4515 0.18899 0.2122 0.0
C1562 C 0.40719 0.17948 0.24891 0.0
C1563 C 0.40393 0.14085 0.24196 0.0
C1564 C 0.42525 0.12629 0.22045 0.0
C1565 C 0.44878 0.15049 0.2059 0.0
C1566 C 0.38503 0.19594 0.27185 0.0
C1567 C 0.42293 0.08522 0.21256 0.0
H1568 H 0.37804 0.05695 0.31099 0.0
H1569 H 0.28726 0.08335 0.25741 0.0
H1570 H 0.45158 0.08953 0.27311 0.0
H1571 H 0.43895 0.1299 0.29251 0.0
H1572 H 0.43782 0.08371 0.30749 0.0
H1573 H 0.29469 0.12465 0.22129 0.0
H1574 H 0.32771 0.16224 0.22791 0.0
H1575 H 0.34135 0.12377 0.20697 0.0
H1576 H 0.43287 0.23282 0.2389 0.0
H1577 H 0.46483 0.13917 0.18938 0.0
H1578 H 0.39152 0.18044 0.29051 0.0
H1579 H 0.35439 0.19263 0.26805 0.0
H1580 H 0.39124 0.22633 0.27501 0.0
H1581 H 0.43258 0.06726 0.22932 0.0
H1582 H 0.44037 0.07869 0.19471 0.0
H1583 H 0.39327 0.07736 0.20823 0.0
C1584 C 0.42927 0.31605 0.76492 0.0
C1585 C 0.44264 0.32981 0.78937 0.0
C1586 C 0.40485 0.33773 0.74911 0.0
C1587 C 0.39411 0.37421 0.7578 0.0
C1588 C 0.40837 0.38862 0.78212 0.0
C1589 C 0.43218 0.36611 0.7977 0.0
C1590 C 0.39007 0.3214 0.7233 0.0
C1591 C 0.3983 0.42769 0.79179 0.0
C1592 C 0.35749 0.44163 0.70524 0.0
C1593 C 0.31835 0.4392 0.70903 0.0
C1594 C 0.38248 0.42114 0.72126 0.0
C1595 C 0.36798 0.39733 0.74143 0.0
C1596 C 0.32853 0.39528 0.74573 0.0
C1597 C 0.30414 0.41648 0.72956 0.0
C1598 C 0.42438 0.42461 0.71634 0.0
C1599 C 0.31209 0.37005 0.76702 0.0
H1600 H 0.4371 0.28795 0.75845 0.0
H1601 H 0.44265 0.37708 0.81643 0.0
H1602 H 0.35882 0.32008 0.72392 0.0
H1603 H 0.39794 0.33989 0.70635 0.0
H1604 H 0.40113 0.29262 0.71938 0.0
H1605 H 0.41318 0.43529 0.81056 0.0
H1606 H 0.40546 0.4489 0.77633 0.0
H1607 H 0.36748 0.42951 0.79533 0.0
H1608 H 0.3687 0.4595 0.68959 0.0
H1609 H 0.27392 0.41439 0.73247 0.0
H1610 H 0.43604 0.39685 0.71034 0.0
H1611 H 0.43896 0.43319 0.73497 0.0
H1612 H 0.4311 0.44547 0.7005 0.0
H1613 H 0.31994 0.3403 0.76297 0.0
H1614 H 0.28086 0.37203 0.76806 0.0
H1615 H 0.32392 0.37761 0.7868 0.0
C1616 C 0.21551 0.42099 0.25999 0.0
C1617 C 0.20022 0.43894 0.28246 0.0
C1618 C 0.19286 0.39853 0.2433 0.0
C1619 C 0.15399 0.39416 0.24914 0.0
C1620 C 0.13826 0.41297 0.27142 0.0
C1621 C 0.16154 0.4351 0.28775 0.0
C1622 C 0.21062 0.3789 0.21969 0.0
C1623 C 0.09688 0.40954 0.27817 0.0
C1624 C 0.08815 0.36206 0.19385 0.0
C1625 C 0.08353 0.3236 0.19969 0.0
C1626 C 0.11091 0.38533 0.20978 0.0
C1627 C 0.12973 0.36979 0.23207 0.0
C1628 C 0.12501 0.33108 0.23824 0.0
C1629 C 0.10186 0.30846 0.22202 0.0
C1630 C 0.11488 0.42653 0.20268 0.0
C1631 C 0.14456 0.31354 0.26192 0.0
H1632 H 0.24538 0.42371 0.25581 0.0
H1633 H 0.14933 0.44929 0.3048 0.0
H1634 H 0.20751 0.34792 0.22185 0.0
H1635 H 0.19592 0.3871 0.20104 0.0
H1636 H 0.24105 0.3857 0.21759 0.0
H1637 H 0.08943 0.42473 0.29684 0.0
H1638 H 0.07966 0.42112 0.26163 0.0
H1639 H 0.089 0.37944 0.28048 0.0
H1640 H 0.07398 0.37414 0.17674 0.0
H1641 H 0.09856 0.27879 0.22663 0.0
H1642 H 0.14492 0.43334 0.1988 0.0
H1643 H 0.10559 0.44434 0.21966 0.0
H1644 H 0.09812 0.43427 0.18478 0.0
H1645 H 0.17553 0.31708 0.25998 0.0
H1646 H 0.13814 0.28301 0.26394 0.0
H1647 H 0.13585 0.32811 0.28053 0.0
C1648 C 0.09512 0.18599 0.78212 0.0
C1649 C 0.05888 0.19535 0.77324 0.0
C1650 C 0.11739 0.16 0.76816 0.0
C1651 C 0.10257 0.14199 0.74523 0.0
C1652 C 0.06577 0.1511 0.73627 0.0
C1653 C 0.04453 0.17824 0.75019 0.0
C1654 C 0.15684 0.15191 0.77794 0.0
C1655 C 0.04862 0.1316 0.71238 0.0
C1656 C 0.17245 0.10019 0.69608 0.0
C1657 C 0.17429 0.06261 0.70456 0.0
C1658 C 0.1491 0.12627 0.70907 0.0
C1659 C 0.12606 0.11414 0.73049 0.0
C1660 C 0.12704 0.07589 0.73866 0.0
C1661 C 0.15172 0.05066 0.72587 0.0
C1662 C 0.14974 0.16699 0.70028 0.0
C1663 C 0.10199 0.06165 0.76086 0.0
H1664 H 0.10619 0.19932 0.79996 0.0
H1665 H 0.01624 0.18511 0.74362 0.0
H1666 H 0.15935 0.12177 0.78354 0.0
H1667 H 0.17751 0.15729 0.76175 0.0
H1668 H 0.1646 0.16942 0.79551 0.0
H1669 H 0.01948 0.14144 0.70825 0.0
H1670 H 0.06618 0.13664 0.69441 0.0
H1671 H 0.04797 0.10069 0.71576 0.0
H1672 H 0.19002 0.10939 0.6796 0.0
H1673 H 0.15277 0.02142 0.73212 0.0
H1674 H 0.15867 0.18522 0.71715 0.0
H1675 H 0.12105 0.1761 0.69434 0.0
H1676 H 0.16921 0.17179 0.68324 0.0
H1677 H 0.10967 0.07562 0.77992 0.0
H1678 H 0.10423 0.03064 0.76357 0.0
H1679 H 0.07215 0.06885 0.75663 0.0
C1680 C 0.70584 0.91232 0.72514 0.0
C1681 C 0.69152 0.93673 0.70566 0.0
C1682 C 0.68154 0.89094 0.74133 0.0
C1683 C 0.64199 0.89455 0.73825 0.0
C1684 C 0.6274 0.91981 0.71901 0.0
C1685 C 0.65233 0.9404 0.70286 0.0
C1686 C 0.69819 0.86399 0.76142 0.0
C1687 C 0.58544 0.92505 0.71541 0.0
C1688 C 0.579 0.8146 0.7624 0.0
C1689 C 0.56793 0.82768 0.78763 0.0
C1690 C 0.6031 0.83607 0.74611 0.0
C1691 C 0.61591 0.87175 0.75508 0.0
C1692 C 0.60415 0.88546 0.78028 0.0
C1693 C 0.58065 0.86311 0.79634 0.0
C1694 C 0.61534 0.82031 0.71948 0.0
C1695 C 0.61653 0.92367 0.79037 0.0
H1696 H 0.73609 0.90922 0.72728 0.0
H1697 H 0.64105 0.95962 0.68813 0.0
H1698 H 0.68827 0.87126 0.78178 0.0
H1699 H 0.68849 0.83485 0.75711 0.0
H1700 H 0.72951 0.86439 0.7613 0.0
H1701 H 0.57868 0.94628 0.69983 0.0
H1702 H 0.57216 0.89786 0.70974 0.0
H1703 H 0.57247 0.93412 0.73451 0.0
H1704 H 0.56947 0.78718 0.75557 0.0
H1705 H 0.57222 0.87353 0.81575 0.0
H1706 H 0.64651 0.81782 0.7189 0.0
H1707 H 0.60703 0.83979 0.70321 0.0
H1708 H 0.60286 0.79214 0.71539 0.0
H1709 H 0.64765 0.92433 0.79251 0.0
H1710 H 0.60365 0.93082 0.80995 0.0
H1711 H 0.60877 0.94582 0.77576 0.0
C1712 C 0.55119 0.67394 0.24172 0.0
C1713 C 0.55451 0.67573 0.21387 0.0
C1714 C 0.57172 0.64728 0.25653 0.0
C1715 C 0.59641 0.62213 0.24319 0.0
C1716 C 0.59968 0.62366 0.21508 0.0
C1717 C 0.57864 0.6503 0.2008 0.0
C1718 C 0.56706 0.64603 0.28647 0.0
C1719 C 0.62577 0.59748 0.2001 0.0
C1720 C 0.67705 0.58035 0.28328 0.0
C1721 C 0.66351 0.54405 0.28895 0.0
C1722 C 0.65565 0.60585 0.26818 0.0
C1723 C 0.61968 0.59492 0.25866 0.0
C1724 C 0.6061 0.5581 0.26389 0.0
C1725 C 0.62823 0.53304 0.27889 0.0
C1726 C 0.67136 0.64468 0.2627 0.0
C1727 C 0.56798 0.54535 0.25392 0.0
H1728 H 0.53239 0.69321 0.25196 0.0
H1729 H 0.58146 0.65136 0.17927 0.0
H1730 H 0.5582 0.61737 0.29277 0.0
H1731 H 0.59445 0.65204 0.29629 0.0
H1732 H 0.54592 0.66671 0.29375 0.0
H1733 H 0.62475 0.60205 0.17818 0.0
H1734 H 0.6552 0.6017 0.20699 0.0
H1735 H 0.6182 0.56771 0.20425 0.0
H1736 H 0.70428 0.58908 0.29091 0.0
H1737 H 0.6174 0.50515 0.2833 0.0
H1738 H 0.65265 0.66638 0.27158 0.0
H1739 H 0.6723 0.64986 0.24088 0.0
H1740 H 0.70018 0.64845 0.27095 0.0
H1741 H 0.54572 0.56474 0.26124 0.0
H1742 H 0.561 0.51621 0.26038 0.0
H1743 H 0.56732 0.54637 0.23182 0.0
C1744 C 0.80802 0.59502 0.7221 0.0
C1745 C 0.82139 0.57258 0.70107 0.0
C1746 C 0.83227 0.61967 0.7359 0.0
C1747 C 0.87077 0.62199 0.72846 0.0
C1748 C 0.88456 0.59891 0.70761 0.0
C1749 C 0.85979 0.57444 0.69428 0.0
C1750 C 0.81661 0.64356 0.75826 0.0
C1751 C 0.92543 0.60025 0.69915 0.0
C1752 C 0.92519 0.71061 0.7479 0.0
C1753 C 0.94399 0.69866 0.77099 0.0
C1754 C 0.90155 0.68584 0.73366 0.0
C1755 C 0.89673 0.64826 0.7427 0.0
C1756 C 0.91651 0.63579 0.76553 0.0
C1757 C 0.9399 0.66107 0.7793 0.0
C1758 C 0.88115 0.70005 0.70924 0.0
C1759 C 0.91256 0.5959 0.77572 0.0
H1760 H 0.77845 0.59388 0.7275 0.0
H1761 H 0.87059 0.55709 0.67826 0.0
H1762 H 0.83227 0.6379 0.77699 0.0
H1763 H 0.82045 0.67388 0.75351 0.0
H1764 H 0.78617 0.63816 0.76181 0.0
H1765 H 0.93123 0.58185 0.68167 0.0
H1766 H 0.9336 0.62957 0.69402 0.0
H1767 H 0.94369 0.59117 0.71591 0.0
H1768 H 0.92812 0.73959 0.74135 0.0
H1769 H 0.9547 0.65134 0.79683 0.0
H1770 H 0.85025 0.6984 0.71248 0.0
H1771 H 0.88786 0.68195 0.69179 0.0
H1772 H 0.88872 0.72965 0.70436 0.0
H1773 H 0.88252 0.58959 0.78001 0.0
H1774 H 0.92922 0.59095 0.79416 0.0
H1775 H 0.92205 0.57566 0.76023 0.0
C1776 C 0.92595 0.81362 0.21843 0.0
C1777 C 0.94024 0.82846 0.19456 0.0
C1778 C 0.90309 0.83552 0.23527 0.0
C1779 C 0.89478 0.87328 0.22823 0.0
C1780 C 0.9097 0.88862 0.20441 0.0
C1781 C 0.932 0.86595 0.18778 0.0
C1782 C 0.88742 0.81812 0.26044 0.0
C1783 C 0.90205 0.92896 0.19643 0.0
C1784 C 0.80818 0.91968 0.25855 0.0
C1785 C 0.82402 0.94014 0.27971 0.0
C1786 C 0.8309 0.89775 0.24162 0.0
C1787 C 0.8704 0.89673 0.24577 0.0
C1788 C 0.8866 0.91796 0.26676 0.0
C1789 C 0.8632 0.93922 0.28356 0.0
C1790 C 0.81261 0.87526 0.21953 0.0
C1791 C 0.92864 0.91807 0.27158 0.0
H1792 H 0.932 0.78463 0.22372 0.0
H1793 H 0.94296 0.87772 0.16941 0.0
H1794 H 0.89671 0.83456 0.2781 0.0
H1795 H 0.85615 0.81904 0.26002 0.0
H1796 H 0.89645 0.78836 0.26302 0.0
H1797 H 0.91612 0.93668 0.17739 0.0
H1798 H 0.87127 0.93346 0.1942 0.0
H1799 H 0.91202 0.94841 0.2123 0.0
H1800 H 0.77792 0.92014 0.25556 0.0
H1801 H 0.87569 0.95524 0.29973 0.0
H1802 H 0.81874 0.84483 0.22223 0.0
H1803 H 0.82453 0.8837 0.19995 0.0
H1804 H 0.78155 0.87916 0.21893 0.0
H1805 H 0.93839 0.88909 0.27619 0.0
H1806 H 0.93685 0.93695 0.28832 0.0
H1807 H 0.94367 0.92731 0.2533 0.0
loop_
_geom_bond_atom_site_label_1
_geom_bond_atom_site_label_2
_geom_bond_distance
_geom_bond_site_symmetry_2
_ccdc_geom_bond_type
Co0 N4 2.148 . S
Co0 N10 2.128 . S
Co0 N20 2.194 . S
Co0 O25 2.351 . S
Co0 O26 2.155 . S
Co0 O27 2.096 . S
C1 N4 1.301 . S
C1 N5 1.328 . S
C1 H6 0.930 . S
C2 C3 1.333 . S
C2 N4 1.317 . S
C2 H7 0.930 . S
C3 C2 1.333 . S
C3 N5 1.350 . S
C3 H29 0.931 . S
N4 Co0 2.148 . S
N4 C1 1.301 . S
N4 C2 1.317 . S
N5 C1 1.328 . S
N5 C3 1.350 . S
H6 C1 0.930 . S
H7 C2 0.930 . S
C8 O9 1.224 . S
C8 O27 1.247 . S
O9 C8 1.224 . S
N10 Co0 2.128 . S
N10 C11 1.355 . S
N10 C13 1.311 . S
C11 N10 1.355 . S
C11 C12 1.363 . S
C11 H23 0.929 . S
C12 C11 1.363 . S
C12 N14 1.375 . S
C12 H30 0.931 . S
C13 N10 1.311 . S
C13 N14 1.347 . S
C13 H24 0.929 . S
N14 C12 1.375 . S
N14 C13 1.347 . S
C15 C18 1.365 . S
C15 N20 1.328 . S
C15 H21 0.929 . S
C16 C17 1.362 . S
C16 C19 1.378 . S
C16 H31 0.929 . S
C17 C16 1.362 . S
C17 C18 1.366 . S
C18 C15 1.365 . S
C18 C17 1.366 . S
C18 H32 0.930 . S
C19 C16 1.378 . S
C19 N20 1.315 . S
C19 H22 0.930 . S
N20 Co0 2.194 . S
N20 C15 1.328 . S
N20 C19 1.315 . S
H21 C15 0.929 . S
H22 C19 0.930 . S
H23 C11 0.929 . S
H24 C13 0.929 . S
O25 Co0 2.351 . S
O25 C28 1.244 . S
O26 Co0 2.155 . S
O26 C28 1.240 . S
O27 Co0 2.096 . S
O27 C8 1.247 . S
C28 O25 1.244 . S
C28 O26 1.240 . S
H29 C3 0.931 . S
H30 C12 0.931 . S
H31 C16 0.929 . S
H32 C18 0.930 . S
Co33 N37 2.148 . S
Co33 N43 2.128 . S
Co33 N53 2.194 . S
Co33 O58 2.351 . S
Co33 O59 2.155 . S
Co33 O60 2.096 . S
C34 N37 1.301 . S
C34 N38 1.328 . S
C34 H39 0.930 . S
C35 C36 1.333 . S
C35 N37 1.317 . S
C35 H40 0.930 . S
C36 C35 1.333 . S
C36 N38 1.350 . S
C36 H62 0.931 . S
N37 Co33 2.148 . S
N37 C34 1.301 . S
N37 C35 1.317 . S
N38 C34 1.328 . S
N38 C36 1.350 . S
H39 C34 0.930 . S
H40 C35 0.930 . S
C41 O42 1.224 . S
C41 O60 1.247 . S
O42 C41 1.224 . S
N43 Co33 2.128 . S
N43 C44 1.355 . S
N43 C46 1.311 . S
C44 N43 1.355 . S
C44 C45 1.363 . S
C44 H56 0.929 . S
C45 C44 1.363 . S
C45 N47 1.375 . S
C45 H63 0.931 . S
C46 N43 1.311 . S
C46 N47 1.347 . S
C46 H57 0.929 . S
N47 C45 1.375 . S
N47 C46 1.347 . S
C48 C51 1.365 . S
C48 N53 1.328 . S
C48 H54 0.929 . S
C49 C50 1.362 . S
C49 C52 1.378 . S
C49 H64 0.929 . S
C50 C49 1.362 . S
C50 C51 1.366 . S
C51 C48 1.365 . S
C51 C50 1.366 . S
C51 H65 0.930 . S
C52 C49 1.378 . S
C52 N53 1.315 . S
C52 H55 0.930 . S
N53 Co33 2.194 . S
N53 C48 1.328 . S
N53 C52 1.315 . S
H54 C48 0.929 . S
H55 C52 0.930 . S
H56 C44 0.929 . S
H57 C46 0.929 . S
O58 Co33 2.351 . S
O58 C61 1.244 . S
O59 Co33 2.155 . S
O59 C61 1.240 . S
O60 Co33 2.096 . S
O60 C41 1.247 . S
C61 O58 1.244 . S
C61 O59 1.240 . S
H62 C36 0.931 . S
H63 C45 0.931 . S
H64 C49 0.929 . S
H65 C51 0.930 . S
Co66 N70 2.148 . S
Co66 N76 2.128 . S
Co66 N86 2.194 1_455 S
Co66 O91 2.351 1_455 S
Co66 O92 2.155 . S
Co66 O93 2.096 . S
C67 N70 1.301 . S
C67 N71 1.328 . S
C67 H72 0.930 1_455 S
C68 C69 1.333 . S
C68 N70 1.317 . S
C68 H73 0.930 . S
C69 C68 1.333 . S
C69 N71 1.350 . S
C69 H95 0.931 . S
N70 Co66 2.148 . S
N70 C67 1.301 . S
N70 C68 1.317 . S
N71 C67 1.328 . S
N71 C69 1.350 . S
H72 C67 0.930 1_655 S
H73 C68 0.930 . S
C74 O75 1.224 . S
C74 O93 1.247 . S
O75 C74 1.224 . S
N76 Co66 2.128 . S
N76 C77 1.355 1_455 S
N76 C79 1.311 . S
C77 N76 1.355 1_655 S
C77 C78 1.363 . S
C77 H89 0.929 . S
C78 C77 1.363 . S
C78 N80 1.366 1_655 S
C78 H96 0.931 . S
C79 N76 1.311 . S
C79 N80 1.353 . S
C79 H90 0.929 . S
N80 C78 1.366 1_455 S
N80 C79 1.353 . S
C81 C84 1.365 . S
C81 N86 1.328 . S
C81 H87 0.929 . S
C82 C83 1.362 . S
C82 C85 1.378 . S
C82 H97 0.929 . S
C83 C82 1.362 . S
C83 C84 1.366 . S
C84 C81 1.365 . S
C84 C83 1.366 . S
C84 H98 0.930 . S
C85 C82 1.378 . S
C85 N86 1.315 . S
C85 H88 0.930 . S
N86 Co66 2.194 1_655 S
N86 C81 1.328 . S
N86 C85 1.315 . S
H87 C81 0.929 . S
H88 C85 0.930 . S
H89 C77 0.929 . S
H90 C79 0.929 . S
O91 Co66 2.351 1_655 S
O91 C94 1.244 1_655 S
O92 Co66 2.155 . S
O92 C94 1.240 . S
O93 Co66 2.096 . S
O93 C74 1.247 . S
C94 O91 1.244 1_455 S
C94 O92 1.240 . S
H95 C69 0.931 . S
H96 C78 0.931 . S
H97 C82 0.929 . S
H98 C84 0.930 . S
Co99 N103 2.148 . S
Co99 N109 2.128 . S
Co99 N119 2.194 1_545 S
Co99 O124 2.351 1_545 S
Co99 O125 2.155 . S
Co99 O126 2.096 . S
C100 N103 1.301 . S
C100 N104 1.328 . S
C100 H105 0.930 1_545 S
C101 C102 1.333 . S
C101 N103 1.317 . S
C101 H106 0.930 . S
C102 C101 1.333 . S
C102 N104 1.350 . S
C102 H128 0.931 . S
N103 Co99 2.148 . S
N103 C100 1.301 . S
N103 C101 1.317 . S
N104 C100 1.328 . S
N104 C102 1.350 . S
H105 C100 0.930 1_565 S
H106 C101 0.930 . S
C107 O108 1.224 . S
C107 O126 1.247 . S
O108 C107 1.224 . S
N109 Co99 2.128 . S
N109 C110 1.355 1_545 S
N109 C112 1.311 . S
C110 N109 1.355 1_565 S
C110 C111 1.363 . S
C110 H122 0.929 . S
C111 C110 1.363 . S
C111 N113 1.366 1_565 S
C111 H129 0.931 . S
C112 N109 1.311 . S
C112 N113 1.353 . S
C112 H123 0.929 . S
N113 C111 1.366 1_545 S
N113 C112 1.353 . S
C114 C117 1.365 . S
C114 N119 1.328 . S
C114 H120 0.929 . S
C115 C116 1.362 . S
C115 C118 1.378 . S
C115 H130 0.929 . S
C116 C115 1.362 . S
C116 C117 1.366 . S
C117 C114 1.365 . S
C117 C116 1.366 . S
C117 H131 0.930 . S
C118 C115 1.378 . S
C118 N119 1.315 . S
C118 H121 0.930 . S
N119 Co99 2.194 1_565 S
N119 C114 1.328 . S
N119 C118 1.315 . S
H120 C114 0.929 . S
H121 C118 0.930 . S
H122 C110 0.929 . S
H123 C112 0.929 . S
O124 Co99 2.351 1_565 S
O124 C127 1.244 1_565 S
O125 Co99 2.155 . S
O125 C127 1.240 . S
O126 Co99 2.096 . S
O126 C107 1.247 . S
C127 O124 1.244 1_545 S
C127 O125 1.240 . S
H128 C102 0.931 . S
H129 C111 0.931 . S
H130 C115 0.929 . S
H131 C117 0.930 . S
Co132 N136 2.148 . S
Co132 N142 2.128 . S
Co132 N152 2.194 . S
Co132 O157 2.351 . S
Co132 O158 2.155 . S
Co132 O159 2.096 . S
C133 N136 1.301 . S
C133 N137 1.328 . S
C133 H138 0.930 . S
C134 C135 1.333 . S
C134 N136 1.317 . S
C134 H139 0.930 . S
C135 C134 1.333 . S
C135 N137 1.350 . S
C135 H161 0.931 . S
N136 Co132 2.148 . S
N136 C133 1.301 . S
N136 C134 1.317 . S
N137 C133 1.328 . S
N137 C135 1.350 . S
H138 C133 0.930 . S
H139 C134 0.930 . S
C140 O141 1.224 . S
C140 O159 1.247 . S
O141 C140 1.224 . S
N142 Co132 2.128 . S
N142 C143 1.355 . S
N142 C145 1.311 . S
C143 N142 1.355 . S
C143 C144 1.363 . S
C143 H155 0.929 . S
C144 C143 1.363 . S
C144 N146 1.375 . S
C144 H162 0.931 . S
C145 N142 1.311 . S
C145 N146 1.347 . S
C145 H156 0.929 . S
N146 C144 1.375 . S
N146 C145 1.347 . S
C147 C150 1.365 . S
C147 N152 1.328 . S
C147 H153 0.929 . S
C148 C149 1.362 . S
C148 C151 1.378 . S
C148 H163 0.929 . S
C149 C148 1.362 . S
C149 C150 1.366 . S
C150 C147 1.365 . S
C150 C149 1.366 . S
C150 H164 0.930 . S
C151 C148 1.378 . S
C151 N152 1.315 . S
C151 H154 0.930 . S
N152 Co132 2.194 . S
N152 C147 1.328 . S
N152 C151 1.315 . S
H153 C147 0.929 . S
H154 C151 0.930 . S
H155 C143 0.929 . S
H156 C145 0.929 . S
O157 Co132 2.351 . S
O157 C160 1.244 . S
O158 Co132 2.155 . S
O158 C160 1.240 . S
O159 Co132 2.096 . S
O159 C140 1.247 . S
C160 O157 1.244 . S
C160 O158 1.240 . S
H161 C135 0.931 . S
H162 C144 0.931 . S
H163 C148 0.929 . S
H164 C150 0.930 . S
Co165 N169 2.148 . S
Co165 N175 2.128 . S
Co165 N185 2.194 . S
Co165 O190 2.351 . S
Co165 O191 2.155 . S
Co165 O192 2.096 . S
C166 N169 1.301 . S
C166 N170 1.328 . S
C166 H171 0.930 . S
C167 C168 1.333 . S
C167 N169 1.317 . S
C167 H172 0.930 . S
C168 C167 1.333 . S
C168 N170 1.350 . S
C168 H194 0.931 . S
N169 Co165 2.148 . S
N169 C166 1.301 . S
N169 C167 1.317 . S
N170 C166 1.328 . S
N170 C168 1.350 . S
H171 C166 0.930 . S
H172 C167 0.930 . S
C173 O174 1.224 . S
C173 O192 1.247 . S
O174 C173 1.224 . S
N175 Co165 2.128 . S
N175 C176 1.355 . S
N175 C178 1.311 . S
C176 N175 1.355 . S
C176 C177 1.363 . S
C176 H188 0.929 . S
C177 C176 1.363 . S
C177 N179 1.375 . S
C177 H195 0.931 . S
C178 N175 1.311 . S
C178 N179 1.347 . S
C178 H189 0.929 . S
N179 C177 1.375 . S
N179 C178 1.347 . S
C180 C183 1.365 . S
C180 N185 1.328 . S
C180 H186 0.929 . S
C181 C182 1.362 . S
C181 C184 1.378 . S
C181 H196 0.929 . S
C182 C181 1.362 . S
C182 C183 1.366 . S
C183 C180 1.365 . S
C183 C182 1.366 . S
C183 H197 0.930 . S
C184 C181 1.378 . S
C184 N185 1.315 . S
C184 H187 0.930 . S
N185 Co165 2.194 . S
N185 C180 1.328 . S
N185 C184 1.315 . S
H186 C180 0.929 . S
H187 C184 0.930 . S
H188 C176 0.929 . S
H189 C178 0.929 . S
O190 Co165 2.351 . S
O190 C193 1.244 . S
O191 Co165 2.155 . S
O191 C193 1.240 . S
O192 Co165 2.096 . S
O192 C173 1.247 . S
C193 O190 1.244 . S
C193 O191 1.240 . S
H194 C168 0.931 . S
H195 C177 0.931 . S
H196 C181 0.929 . S
H197 C183 0.930 . S
Co198 N202 2.148 . S
Co198 N208 2.128 . S
Co198 N218 2.194 1_455 S
Co198 O223 2.351 1_455 S
Co198 O224 2.155 . S
Co198 O225 2.096 . S
C199 N202 1.301 . S
C199 N203 1.328 . S
C199 H204 0.930 1_455 S
C200 C201 1.333 . S
C200 N202 1.317 . S
C200 H205 0.930 . S
C201 C200 1.333 . S
C201 N203 1.350 . S
C201 H227 0.931 . S
N202 Co198 2.148 . S
N202 C199 1.301 . S
N202 C200 1.317 . S
N203 C199 1.328 . S
N203 C201 1.350 . S
H204 C199 0.930 1_655 S
H205 C200 0.930 . S
C206 O207 1.224 . S
C206 O225 1.247 . S
O207 C206 1.224 . S
N208 Co198 2.128 . S
N208 C209 1.355 1_455 S
N208 C211 1.311 . S
C209 N208 1.355 1_655 S
C209 C210 1.363 . S
C209 H221 0.929 . S
C210 C209 1.363 . S
C210 N212 1.366 1_655 S
C210 H228 0.931 . S
C211 N208 1.311 . S
C211 N212 1.353 . S
C211 H222 0.929 . S
N212 C210 1.366 1_455 S
N212 C211 1.353 . S
C213 C216 1.365 . S
C213 N218 1.328 . S
C213 H219 0.929 . S
C214 C215 1.362 . S
C214 C217 1.378 . S
C214 H229 0.929 . S
C215 C214 1.362 . S
C215 C216 1.366 . S
C216 C213 1.365 . S
C216 C215 1.366 . S
C216 H230 0.930 . S
C217 C214 1.378 . S
C217 N218 1.315 . S
C217 H220 0.930 . S
N218 Co198 2.194 1_655 S
N218 C213 1.328 . S
N218 C217 1.315 . S
H219 C213 0.929 . S
H220 C217 0.930 . S
H221 C209 0.929 . S
H222 C211 0.929 . S
O223 Co198 2.351 1_655 S
O223 C226 1.244 1_655 S
O224 Co198 2.155 . S
O224 C226 1.240 . S
O225 Co198 2.096 . S
O225 C206 1.247 . S
C226 O223 1.244 1_455 S
C226 O224 1.240 . S
H227 C201 0.931 . S
H228 C210 0.931 . S
H229 C214 0.929 . S
H230 C216 0.930 . S
Co231 N235 2.148 . S
Co231 N241 2.128 . S
Co231 N251 2.194 1_545 S
Co231 O256 2.351 1_545 S
Co231 O257 2.155 . S
Co231 O258 2.096 . S
C232 N235 1.301 . S
C232 N236 1.328 . S
C232 H237 0.930 1_545 S
C233 C234 1.333 . S
C233 N235 1.317 . S
C233 H238 0.930 . S
C234 C233 1.333 . S
C234 N236 1.350 . S
C234 H260 0.931 . S
N235 Co231 2.148 . S
N235 C232 1.301 . S
N235 C233 1.317 . S
N236 C232 1.328 . S
N236 C234 1.350 . S
H237 C232 0.930 1_565 S
H238 C233 0.930 . S
C239 O240 1.224 . S
C239 O258 1.247 . S
O240 C239 1.224 . S
N241 Co231 2.128 . S
N241 C242 1.355 1_545 S
N241 C244 1.311 . S
C242 N241 1.355 1_565 S
C242 C243 1.363 . S
C242 H254 0.929 . S
C243 C242 1.363 . S
C243 N245 1.366 1_565 S
C243 H261 0.931 . S
C244 N241 1.311 . S
C244 N245 1.353 . S
C244 H255 0.929 . S
N245 C243 1.366 1_545 S
N245 C244 1.353 . S
C246 C249 1.365 . S
C246 N251 1.328 . S
C246 H252 0.929 . S
C247 C248 1.362 . S
C247 C250 1.378 . S
C247 H262 0.929 . S
C248 C247 1.362 . S
C248 C249 1.366 . S
C249 C246 1.365 . S
C249 C248 1.366 . S
C249 H263 0.930 . S
C250 C247 1.378 . S
C250 N251 1.315 . S
C250 H253 0.930 . S
N251 Co231 2.194 1_565 S
N251 C246 1.328 . S
N251 C250 1.315 . S
H252 C246 0.929 . S
H253 C250 0.930 . S
H254 C242 0.929 . S
H255 C244 0.929 . S
O256 Co231 2.351 1_565 S
O256 C259 1.244 1_565 S
O257 Co231 2.155 . S
O257 C259 1.240 . S
O258 Co231 2.096 . S
O258 C239 1.247 . S
C259 O256 1.244 1_545 S
C259 O257 1.240 . S
H260 C234 0.931 . S
H261 C243 0.931 . S
H262 C247 0.929 . S
H263 C249 0.930 . S
Co264 N268 2.148 . S
Co264 N274 2.128 . S
Co264 N284 2.194 . S
Co264 O289 2.351 . S
Co264 O290 2.155 . S
Co264 O291 2.096 . S
C265 N268 1.301 . S
C265 N269 1.328 . S
C265 H270 0.930 . S
C266 C267 1.333 . S
C266 N268 1.317 . S
C266 H271 0.930 . S
C267 C266 1.333 . S
C267 N269 1.350 . S
C267 H293 0.931 . S
N268 Co264 2.148 . S
N268 C265 1.301 . S
N268 C266 1.317 . S
N269 C265 1.328 . S
N269 C267 1.350 . S
H270 C265 0.930 . S
H271 C266 0.930 . S
C272 O273 1.224 . S
C272 O291 1.247 . S
O273 C272 1.224 . S
N274 Co264 2.128 . S
N274 C275 1.355 . S
N274 C277 1.311 . S
C275 N274 1.355 . S
C275 C276 1.363 . S
C275 H287 0.929 . S
C276 C275 1.363 . S
C276 N278 1.375 . S
C276 H294 0.931 . S
C277 N274 1.311 . S
C277 N278 1.347 . S
C277 H288 0.929 . S
N278 C276 1.375 . S
N278 C277 1.347 . S
C279 C282 1.365 . S
C279 N284 1.328 . S
C279 H285 0.929 . S
C280 C281 1.362 . S
C280 C283 1.378 . S
C280 H295 0.929 . S
C281 C280 1.362 . S
C281 C282 1.366 . S
C282 C279 1.365 . S
C282 C281 1.366 . S
C282 H296 0.930 . S
C283 C280 1.378 . S
C283 N284 1.315 . S
C283 H286 0.930 . S
N284 Co264 2.194 . S
N284 C279 1.328 . S
N284 C283 1.315 . S
H285 C279 0.929 . S
H286 C283 0.930 . S
H287 C275 0.929 . S
H288 C277 0.929 . S
O289 Co264 2.351 . S
O289 C292 1.244 . S
O290 Co264 2.155 . S
O290 C292 1.240 . S
O291 Co264 2.096 . S
O291 C272 1.247 . S
C292 O289 1.244 . S
C292 O290 1.240 . S
H293 C267 0.931 . S
H294 C276 0.931 . S
H295 C280 0.929 . S
H296 C282 0.930 . S
Co297 N301 2.148 . S
Co297 N307 2.128 . S
Co297 N317 2.194 . S
Co297 O322 2.351 . S
Co297 O323 2.155 . S
Co297 O324 2.096 . S
C298 N301 1.301 . S
C298 N302 1.328 . S
C298 H303 0.930 . S
C299 C300 1.333 . S
C299 N301 1.317 . S
C299 H304 0.930 . S
C300 C299 1.333 . S
C300 N302 1.350 . S
C300 H326 0.931 . S
N301 Co297 2.148 . S
N301 C298 1.301 . S
N301 C299 1.317 . S
N302 C298 1.328 . S
N302 C300 1.350 . S
H303 C298 0.930 . S
H304 C299 0.930 . S
C305 O306 1.224 . S
C305 O324 1.247 . S
O306 C305 1.224 . S
N307 Co297 2.128 . S
N307 C308 1.355 . S
N307 C310 1.311 . S
C308 N307 1.355 . S
C308 C309 1.363 . S
C308 H320 0.929 . S
C309 C308 1.363 . S
C309 N311 1.375 . S
C309 H327 0.931 . S
C310 N307 1.311 . S
C310 N311 1.347 . S
C310 H321 0.929 . S
N311 C309 1.375 . S
N311 C310 1.347 . S
C312 C315 1.365 . S
C312 N317 1.328 . S
C312 H318 0.929 . S
C313 C314 1.362 . S
C313 C316 1.378 . S
C313 H328 0.929 . S
C314 C313 1.362 . S
C314 C315 1.366 . S
C315 C312 1.365 . S
C315 C314 1.366 . S
C315 H329 0.930 . S
C316 C313 1.378 . S
C316 N317 1.315 . S
C316 H319 0.930 . S
N317 Co297 2.194 . S
N317 C312 1.328 . S
N317 C316 1.315 . S
H318 C312 0.929 . S
H319 C316 0.930 . S
H320 C308 0.929 . S
H321 C310 0.929 . S
O322 Co297 2.351 . S
O322 C325 1.244 . S
O323 Co297 2.155 . S
O323 C325 1.240 . S
O324 Co297 2.096 . S
O324 C305 1.247 . S
C325 O322 1.244 . S
C325 O323 1.240 . S
H326 C300 0.931 . S
H327 C309 0.931 . S
H328 C313 0.929 . S
H329 C315 0.930 . S
Co330 N334 2.148 . S
Co330 N340 2.128 . S
Co330 N350 2.194 1_655 S
Co330 O355 2.351 1_655 S
Co330 O356 2.155 . S
Co330 O357 2.096 . S
C331 N334 1.301 . S
C331 N335 1.328 . S
C331 H336 0.930 1_655 S
C332 C333 1.333 . S
C332 N334 1.317 . S
C332 H337 0.930 . S
C333 C332 1.333 . S
C333 N335 1.350 . S
C333 H359 0.931 . S
N334 Co330 2.148 . S
N334 C331 1.301 . S
N334 C332 1.317 . S
N335 C331 1.328 . S
N335 C333 1.350 . S
H336 C331 0.930 1_455 S
H337 C332 0.930 . S
C338 O339 1.224 . S
C338 O357 1.247 . S
O339 C338 1.224 . S
N340 Co330 2.128 . S
N340 C341 1.355 1_655 S
N340 C343 1.311 . S
C341 N340 1.355 1_455 S
C341 C342 1.363 . S
C341 H353 0.929 . S
C342 C341 1.363 . S
C342 N344 1.366 1_455 S
C342 H360 0.931 . S
C343 N340 1.311 . S
C343 N344 1.353 . S
C343 H354 0.929 . S
N344 C342 1.366 1_655 S
N344 C343 1.353 . S
C345 C348 1.365 . S
C345 N350 1.328 . S
C345 H351 0.929 . S
C346 C347 1.362 . S
C346 C349 1.378 . S
C346 H361 0.929 . S
C347 C346 1.362 . S
C347 C348 1.366 . S
C348 C345 1.365 . S
C348 C347 1.366 . S
C348 H362 0.930 . S
C349 C346 1.378 . S
C349 N350 1.315 . S
C349 H352 0.930 . S
N350 Co330 2.194 1_455 S
N350 C345 1.328 . S
N350 C349 1.315 . S
H351 C345 0.929 . S
H352 C349 0.930 . S
H353 C341 0.929 . S
H354 C343 0.929 . S
O355 Co330 2.351 1_455 S
O355 C358 1.244 1_455 S
O356 Co330 2.155 . S
O356 C358 1.240 . S
O357 Co330 2.096 . S
O357 C338 1.247 . S
C358 O355 1.244 1_655 S
C358 O356 1.240 . S
H359 C333 0.931 . S
H360 C342 0.931 . S
H361 C346 0.929 . S
H362 C348 0.930 . S
Co363 N367 2.148 . S
Co363 N373 2.128 . S
Co363 N383 2.194 1_565 S
Co363 O388 2.351 1_565 S
Co363 O389 2.155 . S
Co363 O390 2.096 . S
C364 N367 1.301 . S
C364 N368 1.328 . S
C364 H369 0.930 1_565 S
C365 C366 1.333 . S
C365 N367 1.317 . S
C365 H370 0.930 . S
C366 C365 1.333 . S
C366 N368 1.350 . S
C366 H392 0.931 . S
N367 Co363 2.148 . S
N367 C364 1.301 . S
N367 C365 1.317 . S
N368 C364 1.328 . S
N368 C366 1.350 . S
H369 C364 0.930 1_545 S
H370 C365 0.930 . S
C371 O372 1.224 . S
C371 O390 1.247 . S
O372 C371 1.224 . S
N373 Co363 2.128 . S
N373 C374 1.355 1_565 S
N373 C376 1.311 . S
C374 N373 1.355 1_545 S
C374 C375 1.363 . S
C374 H386 0.929 . S
C375 C374 1.363 . S
C375 N377 1.366 1_545 S
C375 H393 0.931 . S
C376 N373 1.311 . S
C376 N377 1.353 . S
C376 H387 0.929 . S
N377 C375 1.366 1_565 S
N377 C376 1.353 . S
C378 C381 1.365 . S
C378 N383 1.328 . S
C378 H384 0.929 . S
C379 C380 1.362 . S
C379 C382 1.378 . S
C379 H394 0.929 . S
C380 C379 1.362 . S
C380 C381 1.366 . S
C381 C378 1.365 . S
C381 C380 1.366 . S
C381 H395 0.930 . S
C382 C379 1.378 . S
C382 N383 1.315 . S
C382 H385 0.930 . S
N383 Co363 2.194 1_545 S
N383 C378 1.328 . S
N383 C382 1.315 . S
H384 C378 0.929 . S
H385 C382 0.930 . S
H386 C374 0.929 . S
H387 C376 0.929 . S
O388 Co363 2.351 1_545 S
O388 C391 1.244 1_545 S
O389 Co363 2.155 . S
O389 C391 1.240 . S
O390 Co363 2.096 . S
O390 C371 1.247 . S
C391 O388 1.244 1_565 S
C391 O389 1.240 . S
H392 C366 0.931 . S
H393 C375 0.931 . S
H394 C379 0.929 . S
H395 C381 0.930 . S
Co396 N400 2.148 . S
Co396 N406 2.128 . S
Co396 N416 2.194 . S
Co396 O421 2.351 . S
Co396 O422 2.155 . S
Co396 O423 2.096 . S
C397 N400 1.301 . S
C397 N401 1.328 . S
C397 H402 0.930 . S
C398 C399 1.333 . S
C398 N400 1.317 . S
C398 H403 0.930 . S
C399 C398 1.333 . S
C399 N401 1.350 . S
C399 H425 0.931 . S
N400 Co396 2.148 . S
N400 C397 1.301 . S
N400 C398 1.317 . S
N401 C397 1.328 . S
N401 C399 1.350 . S
H402 C397 0.930 . S
H403 C398 0.930 . S
C404 O405 1.224 . S
C404 O423 1.247 . S
O405 C404 1.224 . S
N406 Co396 2.128 . S
N406 C407 1.355 . S
N406 C409 1.311 . S
C407 N406 1.355 . S
C407 C408 1.363 . S
C407 H419 0.929 . S
C408 C407 1.363 . S
C408 N410 1.375 . S
C408 H426 0.931 . S
C409 N406 1.311 . S
C409 N410 1.347 . S
C409 H420 0.929 . S
N410 C408 1.375 . S
N410 C409 1.347 . S
C411 C414 1.365 . S
C411 N416 1.328 . S
C411 H417 0.929 . S
C412 C413 1.362 . S
C412 C415 1.378 . S
C412 H427 0.929 . S
C413 C412 1.362 . S
C413 C414 1.366 . S
C414 C411 1.365 . S
C414 C413 1.366 . S
C414 H428 0.930 . S
C415 C412 1.378 . S
C415 N416 1.315 . S
C415 H418 0.930 . S
N416 Co396 2.194 . S
N416 C411 1.328 . S
N416 C415 1.315 . S
H417 C411 0.929 . S
H418 C415 0.930 . S
H419 C407 0.929 . S
H420 C409 0.929 . S
O421 Co396 2.351 . S
O421 C424 1.244 . S
O422 Co396 2.155 . S
O422 C424 1.240 . S
O423 Co396 2.096 . S
O423 C404 1.247 . S
C424 O421 1.244 . S
C424 O422 1.240 . S
H425 C399 0.931 . S
H426 C408 0.931 . S
H427 C412 0.929 . S
H428 C414 0.930 . S
Co429 N433 2.148 . S
Co429 N439 2.128 . S
Co429 N449 2.194 . S
Co429 O454 2.351 . S
Co429 O455 2.155 . S
Co429 O456 2.096 . S
C430 N433 1.301 . S
C430 N434 1.328 . S
C430 H435 0.930 . S
C431 C432 1.333 . S
C431 N433 1.317 . S
C431 H436 0.930 . S
C432 C431 1.333 . S
C432 N434 1.350 . S
C432 H458 0.931 . S
N433 Co429 2.148 . S
N433 C430 1.301 . S
N433 C431 1.317 . S
N434 C430 1.328 . S
N434 C432 1.350 . S
H435 C430 0.930 . S
H436 C431 0.930 . S
C437 O438 1.224 . S
C437 O456 1.247 . S
O438 C437 1.224 . S
N439 Co429 2.128 . S
N439 C440 1.355 . S
N439 C442 1.311 . S
C440 N439 1.355 . S
C440 C441 1.363 . S
C440 H452 0.929 . S
C441 C440 1.363 . S
C441 N443 1.375 . S
C441 H459 0.931 . S
C442 N439 1.311 . S
C442 N443 1.347 . S
C442 H453 0.929 . S
N443 C441 1.375 . S
N443 C442 1.347 . S
C444 C447 1.365 . S
C444 N449 1.328 . S
C444 H450 0.929 . S
C445 C446 1.362 . S
C445 C448 1.378 . S
C445 H460 0.929 . S
C446 C445 1.362 . S
C446 C447 1.366 . S
C447 C444 1.365 . S
C447 C446 1.366 . S
C447 H461 0.930 . S
C448 C445 1.378 . S
C448 N449 1.315 . S
C448 H451 0.930 . S
N449 Co429 2.194 . S
N449 C444 1.328 . S
N449 C448 1.315 . S
H450 C444 0.929 . S
H451 C448 0.930 . S
H452 C440 0.929 . S
H453 C442 0.929 . S
O454 Co429 2.351 . S
O454 C457 1.244 . S
O455 Co429 2.155 . S
O455 C457 1.240 . S
O456 Co429 2.096 . S
O456 C437 1.247 . S
C457 O454 1.244 . S
C457 O455 1.240 . S
H458 C432 0.931 . S
H459 C441 0.931 . S
H460 C445 0.929 . S
H461 C447 0.930 . S
Co462 N466 2.148 . S
Co462 N472 2.128 . S
Co462 N482 2.194 1_655 S
Co462 O487 2.351 1_655 S
Co462 O488 2.155 . S
Co462 O489 2.096 . S
C463 N466 1.301 . S
C463 N467 1.328 . S
C463 H468 0.930 1_655 S
C464 C465 1.333 . S
C464 N466 1.317 . S
C464 H469 0.930 . S
C465 C464 1.333 . S
C465 N467 1.350 . S
C465 H491 0.931 . S
N466 Co462 2.148 . S
N466 C463 1.301 . S
N466 C464 1.317 . S
N467 C463 1.328 . S
N467 C465 1.350 . S
H468 C463 0.930 1_455 S
H469 C464 0.930 . S
C470 O471 1.224 . S
C470 O489 1.247 . S
O471 C470 1.224 . S
N472 Co462 2.128 . S
N472 C473 1.355 1_655 S
N472 C475 1.311 . S
C473 N472 1.355 1_455 S
C473 C474 1.363 . S
C473 H485 0.929 . S
C474 C473 1.363 . S
C474 N476 1.366 1_455 S
C474 H492 0.931 . S
C475 N472 1.311 . S
C475 N476 1.353 . S
C475 H486 0.929 . S
N476 C474 1.366 1_655 S
N476 C475 1.353 . S
C477 C480 1.365 . S
C477 N482 1.328 . S
C477 H483 0.929 . S
C478 C479 1.362 . S
C478 C481 1.378 . S
C478 H493 0.929 . S
C479 C478 1.362 . S
C479 C480 1.366 . S
C480 C477 1.365 . S
C480 C479 1.366 . S
C480 H494 0.930 . S
C481 C478 1.378 . S
C481 N482 1.315 . S
C481 H484 0.930 . S
N482 Co462 2.194 1_455 S
N482 C477 1.328 . S
N482 C481 1.315 . S
H483 C477 0.929 . S
H484 C481 0.930 . S
H485 C473 0.929 . S
H486 C475 0.929 . S
O487 Co462 2.351 1_455 S
O487 C490 1.244 1_455 S
O488 Co462 2.155 . S
O488 C490 1.240 . S
O489 Co462 2.096 . S
O489 C470 1.247 . S
C490 O487 1.244 1_655 S
C490 O488 1.240 . S
H491 C465 0.931 . S
H492 C474 0.931 . S
H493 C478 0.929 . S
H494 C480 0.930 . S
Co495 N499 2.148 . S
Co495 N505 2.128 . S
Co495 N515 2.194 1_565 S
Co495 O520 2.351 1_565 S
Co495 O521 2.155 . S
Co495 O522 2.096 . S
C496 N499 1.301 . S
C496 N500 1.328 . S
C496 H501 0.930 1_565 S
C497 C498 1.333 . S
C497 N499 1.317 . S
C497 H502 0.930 . S
C498 C497 1.333 . S
C498 N500 1.350 . S
C498 H524 0.931 . S
N499 Co495 2.148 . S
N499 C496 1.301 . S
N499 C497 1.317 . S
N500 C496 1.328 . S
N500 C498 1.350 . S
H501 C496 0.930 1_545 S
H502 C497 0.930 . S
C503 O504 1.224 . S
C503 O522 1.247 . S
O504 C503 1.224 . S
N505 Co495 2.128 . S
N505 C506 1.355 1_565 S
N505 C508 1.311 . S
C506 N505 1.355 1_545 S
C506 C507 1.363 . S
C506 H518 0.929 . S
C507 C506 1.363 . S
C507 N509 1.366 1_545 S
C507 H525 0.931 . S
C508 N505 1.311 . S
C508 N509 1.353 . S
C508 H519 0.929 . S
N509 C507 1.366 1_565 S
N509 C508 1.353 . S
C510 C513 1.365 . S
C510 N515 1.328 . S
C510 H516 0.929 . S
C511 C512 1.362 . S
C511 C514 1.378 . S
C511 H526 0.929 . S
C512 C511 1.362 . S
C512 C513 1.366 . S
C513 C510 1.365 . S
C513 C512 1.366 . S
C513 H527 0.930 . S
C514 C511 1.378 . S
C514 N515 1.315 . S
C514 H517 0.930 . S
N515 Co495 2.194 1_545 S
N515 C510 1.328 . S
N515 C514 1.315 . S
H516 C510 0.929 . S
H517 C514 0.930 . S
H518 C506 0.929 . S
H519 C508 0.929 . S
O520 Co495 2.351 1_545 S
O520 C523 1.244 1_545 S
O521 Co495 2.155 . S
O521 C523 1.240 . S
O522 Co495 2.096 . S
O522 C503 1.247 . S
C523 O520 1.244 1_565 S
C523 O521 1.240 . S
H524 C498 0.931 . S
H525 C507 0.931 . S
H526 C511 0.929 . S
H527 C513 0.930 . S
C528 C529 1.391 . S
C528 C530 1.394 . S
C528 H544 0.931 . S
C529 C528 1.391 . S
C529 C533 1.376 . S
C530 C528 1.394 . S
C530 C531 1.369 . S
C530 C534 1.531 . S
C531 C530 1.369 . S
C531 C532 1.410 . S
C531 C539 1.503 1_554 S
C532 C531 1.410 . S
C532 C533 1.392 . S
C532 C535 1.511 . S
C533 C529 1.376 . S
C533 C532 1.392 . S
C533 H545 0.929 . S
C534 C530 1.531 . S
C534 H546 0.960 1_554 S
C534 H547 0.962 . S
C534 H548 0.960 . S
C535 C532 1.511 . S
C535 H549 0.961 . S
C535 H550 0.961 1_554 S
C535 H551 0.961 . S
C536 C537 1.370 . S
C536 C538 1.363 . S
C536 H552 0.931 . S
C537 C536 1.370 . S
C537 C541 1.408 . S
C538 C536 1.363 . S
C538 C539 1.370 . S
C538 C542 1.524 . S
C539 C531 1.503 1_556 S
C539 C538 1.370 . S
C539 C540 1.403 . S
C540 C539 1.403 . S
C540 C541 1.404 . S
C540 C543 1.539 . S
C541 C537 1.408 . S
C541 C540 1.404 . S
C541 H553 0.930 . S
C542 C538 1.524 . S
C542 H554 0.947 1_556 S
C542 H555 0.961 1_556 S
C542 H556 0.961 . S
C543 C540 1.539 . S
C543 H557 0.958 . S
C543 H558 0.961 . S
C543 H559 0.960 . S
H544 C528 0.931 . S
H545 C533 0.929 . S
H546 C534 0.960 1_556 S
H547 C534 0.962 . S
H548 C534 0.960 . S
H549 C535 0.961 . S
H550 C535 0.961 1_556 S
H551 C535 0.961 . S
H552 C536 0.931 . S
H553 C541 0.930 . S
H554 C542 0.947 1_554 S
H555 C542 0.961 1_554 S
H556 C542 0.961 . S
H557 C543 0.958 . S
H558 C543 0.961 . S
H559 C543 0.960 . S
C560 C561 1.391 . S
C560 C562 1.394 . S
C560 H576 0.931 . S
C561 C560 1.391 . S
C561 C565 1.376 . S
C562 C560 1.394 . S
C562 C563 1.369 . S
C562 C566 1.531 . S
C563 C562 1.369 . S
C563 C564 1.410 . S
C563 C571 1.503 . S
C564 C563 1.410 . S
C564 C565 1.392 . S
C564 C567 1.511 . S
C565 C561 1.376 . S
C565 C564 1.392 . S
C565 H577 0.929 . S
C566 C562 1.531 . S
C566 H578 0.960 . S
C566 H579 0.962 . S
C566 H580 0.960 . S
C567 C564 1.511 . S
C567 H581 0.961 . S
C567 H582 0.961 . S
C567 H583 0.961 . S
C568 C569 1.370 . S
C568 C570 1.363 . S
C568 H584 0.931 . S
C569 C568 1.370 . S
C569 C573 1.408 . S
C570 C568 1.363 . S
C570 C571 1.370 . S
C570 C574 1.524 . S
C571 C563 1.503 . S
C571 C570 1.370 . S
C571 C572 1.403 . S
C572 C571 1.403 . S
C572 C573 1.404 . S
C572 C575 1.539 . S
C573 C569 1.408 . S
C573 C572 1.404 . S
C573 H585 0.930 . S
C574 C570 1.524 . S
C574 H586 0.956 . S
C574 H587 0.961 . S
C574 H588 0.961 . S
C575 C572 1.539 . S
C575 H589 0.958 . S
C575 H590 0.961 . S
C575 H591 0.960 . S
H576 C560 0.931 . S
H577 C565 0.929 . S
H578 C566 0.960 . S
H579 C566 0.962 . S
H580 C566 0.960 . S
H581 C567 0.961 . S
H582 C567 0.961 . S
H583 C567 0.961 . S
H584 C568 0.931 . S
H585 C573 0.930 . S
H586 C574 0.956 . S
H587 C574 0.961 . S
H588 C574 0.961 . S
H589 C575 0.958 . S
H590 C575 0.961 . S
H591 C575 0.960 . S
C592 C593 1.391 . S
C592 C594 1.394 . S
C592 H608 0.931 . S
C593 C592 1.391 . S
C593 C597 1.376 . S
C594 C592 1.394 . S
C594 C595 1.369 . S
C594 C598 1.531 . S
C595 C594 1.369 . S
C595 C596 1.410 . S
C595 C603 1.503 1_556 S
C596 C595 1.410 . S
C596 C597 1.392 . S
C596 C599 1.511 1_455 S
C597 C593 1.376 . S
C597 C596 1.392 . S
C597 H609 0.929 1_455 S
C598 C594 1.531 . S
C598 H610 0.938 1_556 S
C598 H611 0.962 . S
C598 H612 0.960 . S
C599 C596 1.511 1_655 S
C599 H613 0.961 . S
C599 H614 0.961 1_556 S
C599 H615 0.961 . S
C600 C601 1.370 . S
C600 C602 1.363 . S
C600 H616 0.931 . S
C601 C600 1.370 . S
C601 C605 1.408 . S
C602 C600 1.363 . S
C602 C603 1.370 . S
C602 C606 1.524 . S
C603 C595 1.503 1_554 S
C603 C602 1.370 . S
C603 C604 1.403 . S
C604 C603 1.403 . S
C604 C605 1.404 . S
C604 C607 1.550 . S
C605 C601 1.408 . S
C605 C604 1.404 . S
C605 H617 0.930 . S
C606 C602 1.524 . S
C606 H618 0.956 . S
C606 H619 0.980 . S
C606 H620 0.961 . S
C607 C604 1.550 . S
C607 H621 0.975 . S
C607 H622 0.944 1_455 S
C607 H623 0.951 1_454 S
H608 C592 0.931 . S
H609 C597 0.929 1_655 S
H610 C598 0.938 1_554 S
H611 C598 0.962 . S
H612 C598 0.960 . S
H613 C599 0.961 . S
H614 C599 0.961 1_554 S
H615 C599 0.961 . S
H616 C600 0.931 . S
H617 C605 0.930 . S
H618 C606 0.956 . S
H619 C606 0.980 . S
H620 C606 0.961 . S
H621 C607 0.975 . S
H622 C607 0.944 1_655 S
H623 C607 0.951 1_656 S
C624 C625 1.391 . S
C624 C626 1.394 . S
C624 H640 0.931 . S
C625 C624 1.391 . S
C625 C629 1.376 . S
C626 C624 1.394 . S
C626 C627 1.369 . S
C626 C630 1.531 . S
C627 C626 1.369 . S
C627 C628 1.410 . S
C627 C635 1.503 . S
C628 C627 1.410 . S
C628 C629 1.392 . S
C628 C631 1.511 . S
C629 C625 1.376 . S
C629 C628 1.392 . S
C629 H641 0.929 . S
C630 C626 1.531 . S
C630 H642 0.960 . S
C630 H643 0.962 . S
C630 H644 0.960 . S
C631 C628 1.511 . S
C631 H645 0.961 1_545 S
C631 H646 0.961 1_545 S
C631 H647 0.961 . S
C632 C633 1.370 . S
C632 C634 1.363 . S
C632 H648 0.931 1_545 S
C633 C632 1.370 . S
C633 C637 1.408 . S
C634 C632 1.363 . S
C634 C635 1.370 . S
C634 C638 1.524 1_545 S
C635 C627 1.503 . S
C635 C634 1.370 . S
C635 C636 1.403 . S
C636 C635 1.403 . S
C636 C637 1.404 . S
C636 C639 1.539 . S
C637 C633 1.408 . S
C637 C636 1.404 . S
C637 H649 0.930 . S
C638 C634 1.524 1_565 S
C638 H650 0.956 . S
C638 H651 0.961 . S
C638 H652 0.961 . S
C639 C636 1.539 . S
C639 H653 0.958 . S
C639 H654 0.961 . S
C639 H655 0.960 . S
H640 C624 0.931 . S
H641 C629 0.929 . S
H642 C630 0.960 . S
H643 C630 0.962 . S
H644 C630 0.960 . S
H645 C631 0.961 1_565 S
H646 C631 0.961 1_565 S
H647 C631 0.961 . S
H648 C632 0.931 1_565 S
H649 C637 0.930 . S
H650 C638 0.956 . S
H651 C638 0.961 . S
H652 C638 0.961 . S
H653 C639 0.958 . S
H654 C639 0.961 . S
H655 C639 0.960 . S
C656 C657 1.391 . S
C656 C658 1.394 . S
C656 H672 0.931 . S
C657 C656 1.391 . S
C657 C661 1.376 . S
C658 C656 1.394 . S
C658 C659 1.369 . S
C658 C662 1.531 . S
C659 C658 1.369 . S
C659 C660 1.410 . S
C659 C667 1.503 1_556 S
C660 C659 1.410 . S
C660 C661 1.392 . S
C660 C663 1.511 . S
C661 C657 1.376 . S
C661 C660 1.392 . S
C661 H673 0.929 . S
C662 C658 1.531 . S
C662 H674 0.960 1_556 S
C662 H675 0.962 . S
C662 H676 0.960 . S
C663 C660 1.511 . S
C663 H677 0.961 . S
C663 H678 0.961 1_556 S
C663 H679 0.961 . S
C664 C665 1.370 . S
C664 C666 1.363 . S
C664 H680 0.931 . S
C665 C664 1.370 . S
C665 C669 1.408 . S
C666 C664 1.363 . S
C666 C667 1.370 . S
C666 C670 1.524 . S
C667 C659 1.503 1_554 S
C667 C666 1.370 . S
C667 C668 1.403 . S
C668 C667 1.403 . S
C668 C669 1.404 . S
C668 C671 1.539 . S
C669 C665 1.408 . S
C669 C668 1.404 . S
C669 H681 0.930 . S
C670 C666 1.524 . S
C670 H682 0.946 1_554 S
C670 H683 0.961 1_554 S
C670 H684 0.961 . S
C671 C668 1.539 . S
C671 H685 0.958 . S
C671 H686 0.961 . S
C671 H687 0.960 . S
H672 C656 0.931 . S
H673 C661 0.929 . S
H674 C662 0.960 1_554 S
H675 C662 0.962 . S
H676 C662 0.960 . S
H677 C663 0.961 . S
H678 C663 0.961 1_554 S
H679 C663 0.961 . S
H680 C664 0.931 . S
H681 C669 0.930 . S
H682 C670 0.946 1_556 S
H683 C670 0.961 1_556 S
H684 C670 0.961 . S
H685 C671 0.958 . S
H686 C671 0.961 . S
H687 C671 0.960 . S
C688 C689 1.391 . S
C688 C690 1.394 . S
C688 H704 0.931 . S
C689 C688 1.391 . S
C689 C693 1.376 . S
C690 C688 1.394 . S
C690 C691 1.369 . S
C690 C694 1.531 . S
C691 C690 1.369 . S
C691 C692 1.410 . S
C691 C699 1.503 . S
C692 C691 1.410 . S
C692 C693 1.392 . S
C692 C695 1.511 . S
C693 C689 1.376 . S
C693 C692 1.392 . S
C693 H705 0.929 . S
C694 C690 1.531 . S
C694 H706 0.960 . S
C694 H707 0.962 . S
C694 H708 0.960 . S
C695 C692 1.511 . S
C695 H709 0.961 . S
C695 H710 0.961 . S
C695 H711 0.961 . S
C696 C697 1.370 . S
C696 C698 1.363 . S
C696 H712 0.931 . S
C697 C696 1.370 . S
C697 C701 1.408 . S
C698 C696 1.363 . S
C698 C699 1.370 . S
C698 C702 1.524 . S
C699 C691 1.503 . S
C699 C698 1.370 . S
C699 C700 1.403 . S
C700 C699 1.403 . S
C700 C701 1.404 . S
C700 C703 1.539 . S
C701 C697 1.408 . S
C701 C700 1.404 . S
C701 H713 0.930 . S
C702 C698 1.524 . S
C702 H714 0.956 . S
C702 H715 0.961 . S
C702 H716 0.961 . S
C703 C700 1.539 . S
C703 H717 0.958 . S
C703 H718 0.961 . S
C703 H719 0.960 . S
H704 C688 0.931 . S
H705 C693 0.929 . S
H706 C694 0.960 . S
H707 C694 0.962 . S
H708 C694 0.960 . S
H709 C695 0.961 . S
H710 C695 0.961 . S
H711 C695 0.961 . S
H712 C696 0.931 . S
H713 C701 0.930 . S
H714 C702 0.956 . S
H715 C702 0.961 . S
H716 C702 0.961 . S
H717 C703 0.958 . S
H718 C703 0.961 . S
H719 C703 0.960 . S
C720 C721 1.391 . S
C720 C722 1.394 . S
C720 H736 0.931 1_655 S
C721 C720 1.391 . S
C721 C725 1.376 . S
C722 C720 1.394 . S
C722 C723 1.369 . S
C722 C726 1.531 1_655 S
C723 C722 1.369 . S
C723 C724 1.410 . S
C723 C731 1.503 1_554 S
C724 C723 1.410 . S
C724 C725 1.392 . S
C724 C727 1.511 . S
C725 C721 1.376 . S
C725 C724 1.392 . S
C725 H737 0.929 . S
C726 C722 1.531 1_455 S
C726 H738 0.947 1_554 S
C726 H739 0.962 . S
C726 H740 0.960 . S
C727 C724 1.511 . S
C727 H741 0.961 . S
C727 H742 0.961 1_554 S
C727 H743 0.961 . S
C728 C729 1.370 . S
C728 C730 1.363 . S
C728 H744 0.931 . S
C729 C728 1.370 . S
C729 C733 1.408 . S
C730 C728 1.363 . S
C730 C731 1.370 . S
C730 C734 1.524 . S
C731 C723 1.503 1_556 S
C731 C730 1.370 . S
C731 C732 1.403 . S
C732 C731 1.403 . S
C732 C733 1.404 . S
C732 C735 1.539 . S
C733 C729 1.408 . S
C733 C732 1.404 . S
C733 H745 0.930 . S
C734 C730 1.524 . S
C734 H746 0.956 1_655 S
C734 H747 0.979 . S
C734 H748 0.961 1_655 S
C735 C732 1.539 . S
C735 H749 0.958 . S
C735 H750 0.961 . S
C735 H751 0.960 1_556 S
H736 C720 0.931 1_455 S
H737 C725 0.929 . S
H738 C726 0.947 1_556 S
H739 C726 0.962 . S
H740 C726 0.960 . S
H741 C727 0.961 . S
H742 C727 0.961 1_556 S
H743 C727 0.961 . S
H744 C728 0.931 . S
H745 C733 0.930 . S
H746 C734 0.956 1_455 S
H747 C734 0.979 . S
H748 C734 0.961 1_455 S
H749 C735 0.958 . S
H750 C735 0.961 . S
H751 C735 0.960 1_554 S
C752 C753 1.391 . S
C752 C754 1.394 . S
C752 H768 0.931 . S
C753 C752 1.391 . S
C753 C757 1.376 . S
C754 C752 1.394 . S
C754 C755 1.369 . S
C754 C758 1.531 . S
C755 C754 1.369 . S
C755 C756 1.410 . S
C755 C763 1.503 . S
C756 C755 1.410 . S
C756 C757 1.392 . S
C756 C759 1.511 1_565 S
C757 C753 1.376 . S
C757 C756 1.392 . S
C757 H769 0.929 1_565 S
C758 C754 1.531 . S
C758 H770 0.960 . S
C758 H771 0.962 . S
C758 H772 0.960 . S
C759 C756 1.511 1_545 S
C759 H773 0.961 . S
C759 H774 0.961 . S
C759 H775 0.961 . S
C760 C761 1.370 . S
C760 C762 1.363 . S
C760 H776 0.931 . S
C761 C760 1.370 . S
C761 C765 1.408 . S
C762 C760 1.363 . S
C762 C763 1.370 . S
C762 C766 1.524 . S
C763 C755 1.503 . S
C763 C762 1.370 . S
C763 C764 1.403 . S
C764 C763 1.403 . S
C764 C765 1.404 . S
C764 C767 1.539 . S
C765 C761 1.408 . S
C765 C764 1.404 . S
C765 H777 0.930 . S
C766 C762 1.524 . S
C766 H778 0.956 . S
C766 H779 0.950 1_565 S
C766 H780 0.961 . S
C767 C764 1.539 . S
C767 H781 0.958 . S
C767 H782 0.961 . S
C767 H783 0.960 . S
H768 C752 0.931 . S
H769 C757 0.929 1_545 S
H770 C758 0.960 . S
H771 C758 0.962 . S
H772 C758 0.960 . S
H773 C759 0.961 . S
H774 C759 0.961 . S
H775 C759 0.961 . S
H776 C760 0.931 . S
H777 C765 0.930 . S
H778 C766 0.956 . S
H779 C766 0.950 1_545 S
H780 C766 0.961 . S
H781 C767 0.958 . S
H782 C767 0.961 . S
H783 C767 0.960 . S
C784 C785 1.391 . S
C784 C786 1.394 . S
C784 H800 0.931 . S
C785 C784 1.391 . S
C785 C789 1.376 . S
C786 C784 1.394 . S
C786 C787 1.369 . S
C786 C790 1.531 . S
C787 C786 1.369 . S
C787 C788 1.410 . S
C787 C795 1.503 . S
C788 C787 1.410 . S
C788 C789 1.392 . S
C788 C791 1.511 . S
C789 C785 1.376 . S
C789 C788 1.392 . S
C789 H801 0.929 . S
C790 C786 1.531 . S
C790 H802 0.960 . S
C790 H803 0.962 . S
C790 H804 0.960 . S
C791 C788 1.511 . S
C791 H805 0.961 . S
C791 H806 0.961 . S
C791 H807 0.961 . S
C792 C793 1.370 . S
C792 C794 1.363 . S
C792 H808 0.931 . S
C793 C792 1.370 . S
C793 C797 1.408 . S
C794 C792 1.363 . S
C794 C795 1.370 1_545 S
C794 C798 1.524 1_545 S
C795 C787 1.503 . S
C795 C794 1.370 1_565 S
C795 C796 1.403 1_565 S
C796 C795 1.403 1_545 S
C796 C797 1.404 . S
C796 C799 1.539 1_545 S
C797 C793 1.408 . S
C797 C796 1.404 . S
C797 H809 0.930 . S
C798 C794 1.524 1_565 S
C798 H810 0.956 . S
C798 H811 0.961 . S
C798 H812 0.961 1_565 S
C799 C796 1.539 1_565 S
C799 H813 0.958 . S
C799 H814 0.961 1_565 S
C799 H815 0.960 . S
H800 C784 0.931 . S
H801 C789 0.929 . S
H802 C790 0.960 . S
H803 C790 0.962 . S
H804 C790 0.960 . S
H805 C791 0.961 . S
H806 C791 0.961 . S
H807 C791 0.961 . S
H808 C792 0.931 . S
H809 C797 0.930 . S
H810 C798 0.956 . S
H811 C798 0.961 . S
H812 C798 0.961 1_545 S
H813 C799 0.958 . S
H814 C799 0.961 1_545 S
H815 C799 0.960 . S
C816 C817 1.391 . S
C816 C818 1.394 . S
C816 H832 0.931 . S
C817 C816 1.391 . S
C817 C821 1.376 . S
C818 C816 1.394 . S
C818 C819 1.369 . S
C818 C822 1.531 . S
C819 C818 1.369 . S
C819 C820 1.410 . S
C819 C827 1.503 . S
C820 C819 1.410 . S
C820 C821 1.392 . S
C820 C823 1.511 . S
C821 C817 1.376 . S
C821 C820 1.392 . S
C821 H833 0.929 . S
C822 C818 1.531 . S
C822 H834 0.960 . S
C822 H835 0.962 . S
C822 H836 0.960 . S
C823 C820 1.511 . S
C823 H837 0.961 . S
C823 H838 0.961 . S
C823 H839 0.961 . S
C824 C825 1.370 . S
C824 C826 1.363 . S
C824 H840 0.931 . S
C825 C824 1.370 . S
C825 C829 1.408 . S
C826 C824 1.363 . S
C826 C827 1.370 . S
C826 C830 1.524 . S
C827 C819 1.503 . S
C827 C826 1.370 . S
C827 C828 1.403 . S
C828 C827 1.403 . S
C828 C829 1.404 . S
C828 C831 1.539 . S
C829 C825 1.408 . S
C829 C828 1.404 . S
C829 H841 0.930 . S
C830 C826 1.524 . S
C830 H842 0.956 . S
C830 H843 0.961 . S
C830 H844 0.961 . S
C831 C828 1.539 . S
C831 H845 0.958 . S
C831 H846 0.961 . S
C831 H847 0.960 . S
H832 C816 0.931 . S
H833 C821 0.929 . S
H834 C822 0.960 . S
H835 C822 0.962 . S
H836 C822 0.960 . S
H837 C823 0.961 . S
H838 C823 0.961 . S
H839 C823 0.961 . S
H840 C824 0.931 . S
H841 C829 0.930 . S
H842 C830 0.956 . S
H843 C830 0.961 . S
H844 C830 0.961 . S
H845 C831 0.958 . S
H846 C831 0.961 . S
H847 C831 0.960 . S
C848 C849 1.391 1_655 S
C848 C850 1.394 . S
C848 H864 0.931 . S
C849 C848 1.391 1_455 S
C849 C853 1.376 . S
C850 C848 1.394 . S
C850 C851 1.369 . S
C850 C854 1.531 . S
C851 C850 1.369 . S
C851 C852 1.410 1_655 S
C851 C859 1.503 . S
C852 C851 1.410 1_455 S
C852 C853 1.392 . S
C852 C855 1.511 . S
C853 C849 1.376 . S
C853 C852 1.392 . S
C853 H865 0.929 . S
C854 C850 1.531 . S
C854 H866 0.960 . S
C854 H867 0.962 . S
C854 H868 0.960 . S
C855 C852 1.511 . S
C855 H869 0.961 . S
C855 H870 0.961 . S
C855 H871 0.961 . S
C856 C857 1.370 . S
C856 C858 1.363 . S
C856 H872 0.931 . S
C857 C856 1.370 . S
C857 C861 1.420 . S
C858 C856 1.363 . S
C858 C859 1.370 . S
C858 C862 1.524 . S
C859 C851 1.503 . S
C859 C858 1.370 . S
C859 C860 1.403 1_655 S
C860 C859 1.403 1_455 S
C860 C861 1.401 1_455 S
C860 C863 1.539 . S
C861 C857 1.420 . S
C861 C860 1.401 1_655 S
C861 H873 0.922 1_655 S
C862 C858 1.524 . S
C862 H874 0.956 . S
C862 H875 0.961 . S
C862 H876 0.961 . S
C863 C860 1.539 . S
C863 H877 0.958 . S
C863 H878 0.961 . S
C863 H879 0.960 . S
H864 C848 0.931 . S
H865 C853 0.929 . S
H866 C854 0.960 . S
H867 C854 0.962 . S
H868 C854 0.960 . S
H869 C855 0.961 . S
H870 C855 0.961 . S
H871 C855 0.961 . S
H872 C856 0.931 . S
H873 C861 0.922 1_455 S
H874 C862 0.956 . S
H875 C862 0.961 . S
H876 C862 0.961 . S
H877 C863 0.958 . S
H878 C863 0.961 . S
H879 C863 0.960 . S
C880 C881 1.391 . S
C880 C882 1.394 . S
C880 H896 0.931 . S
C881 C880 1.391 . S
C881 C885 1.376 1_565 S
C882 C880 1.394 . S
C882 C883 1.369 . S
C882 C886 1.531 . S
C883 C882 1.369 . S
C883 C884 1.410 1_565 S
C883 C891 1.503 . S
C884 C883 1.410 1_545 S
C884 C885 1.392 . S
C884 C887 1.511 . S
C885 C881 1.376 1_545 S
C885 C884 1.392 . S
C885 H897 0.929 . S
C886 C882 1.531 . S
C886 H898 0.960 . S
C886 H899 0.962 . S
C886 H900 0.960 . S
C887 C884 1.511 . S
C887 H901 0.961 . S
C887 H902 0.961 . S
C887 H903 0.961 . S
C888 C889 1.370 . S
C888 C890 1.363 . S
C888 H904 0.931 . S
C889 C888 1.370 . S
C889 C893 1.408 1_545 S
C890 C888 1.363 . S
C890 C891 1.370 1_445 S
C890 C894 1.524 1_455 S
C891 C883 1.503 . S
C891 C890 1.370 1_665 S
C891 C892 1.403 1_655 S
C892 C891 1.403 1_455 S
C892 C893 1.404 . S
C892 C895 1.539 . S
C893 C889 1.408 1_565 S
C893 C892 1.404 . S
C893 H905 0.930 . S
C894 C890 1.524 1_655 S
C894 H906 0.956 . S
C894 H907 0.961 . S
C894 H908 0.961 1_655 S
C895 C892 1.539 . S
C895 H909 0.958 . S
C895 H910 0.961 . S
C895 H911 0.960 1_455 S
H896 C880 0.931 . S
H897 C885 0.929 . S
H898 C886 0.960 . S
H899 C886 0.962 . S
H900 C886 0.960 . S
H901 C887 0.961 . S
H902 C887 0.961 . S
H903 C887 0.961 . S
H904 C888 0.931 . S
H905 C893 0.930 . S
H906 C894 0.956 . S
H907 C894 0.961 . S
H908 C894 0.961 1_455 S
H909 C895 0.958 . S
H910 C895 0.961 . S
H911 C895 0.960 1_655 S
C912 C913 1.391 . S
C912 C914 1.394 . S
C912 H928 0.931 . S
C913 C912 1.391 . S
C913 C917 1.376 . S
C914 C912 1.394 . S
C914 C915 1.369 . S
C914 C918 1.531 . S
C915 C914 1.369 . S
C915 C916 1.410 . S
C915 C923 1.503 . S
C916 C915 1.410 . S
C916 C917 1.392 . S
C916 C919 1.511 . S
C917 C913 1.376 . S
C917 C916 1.392 . S
C917 H929 0.929 . S
C918 C914 1.531 . S
C918 H930 0.960 . S
C918 H931 0.962 . S
C918 H932 0.960 . S
C919 C916 1.511 . S
C919 H933 0.961 . S
C919 H934 0.961 . S
C919 H935 0.961 . S
C920 C921 1.370 . S
C920 C922 1.363 . S
C920 H936 0.931 . S
C921 C920 1.370 . S
C921 C925 1.408 . S
C922 C920 1.363 . S
C922 C923 1.370 . S
C922 C926 1.524 . S
C923 C915 1.503 . S
C923 C922 1.370 . S
C923 C924 1.403 . S
C924 C923 1.403 . S
C924 C925 1.404 . S
C924 C927 1.539 . S
C925 C921 1.408 . S
C925 C924 1.404 . S
C925 H937 0.930 . S
C926 C922 1.524 . S
C926 H938 0.956 . S
C926 H939 0.961 . S
C926 H940 0.961 . S
C927 C924 1.539 . S
C927 H941 0.958 . S
C927 H942 0.961 . S
C927 H943 0.960 . S
H928 C912 0.931 . S
H929 C917 0.929 . S
H930 C918 0.960 . S
H931 C918 0.962 . S
H932 C918 0.960 . S
H933 C919 0.961 . S
H934 C919 0.961 . S
H935 C919 0.961 . S
H936 C920 0.931 . S
H937 C925 0.930 . S
H938 C926 0.956 . S
H939 C926 0.961 . S
H940 C926 0.961 . S
H941 C927 0.958 . S
H942 C927 0.961 . S
H943 C927 0.960 . S
C944 C945 1.391 . S
C944 C946 1.394 . S
C944 H960 0.931 . S
C945 C944 1.391 . S
C945 C949 1.376 . S
C946 C944 1.394 . S
C946 C947 1.369 . S
C946 C950 1.531 . S
C947 C946 1.369 . S
C947 C948 1.410 . S
C947 C955 1.503 . S
C948 C947 1.410 . S
C948 C949 1.392 . S
C948 C951 1.511 . S
C949 C945 1.376 . S
C949 C948 1.392 . S
C949 H961 0.929 . S
C950 C946 1.531 . S
C950 H962 0.960 . S
C950 H963 0.962 . S
C950 H964 0.960 . S
C951 C948 1.511 . S
C951 H965 0.961 . S
C951 H966 0.961 . S
C951 H967 0.961 . S
C952 C953 1.370 . S
C952 C954 1.363 . S
C952 H968 0.931 . S
C953 C952 1.370 . S
C953 C957 1.408 . S
C954 C952 1.363 . S
C954 C955 1.370 1_455 S
C954 C958 1.524 1_455 S
C955 C947 1.503 . S
C955 C954 1.370 1_655 S
C955 C956 1.403 1_655 S
C956 C955 1.403 1_455 S
C956 C957 1.404 . S
C956 C959 1.539 . S
C957 C953 1.408 . S
C957 C956 1.404 . S
C957 H969 0.930 . S
C958 C954 1.524 1_655 S
C958 H970 0.956 . S
C958 H971 0.961 . S
C958 H972 0.961 1_655 S
C959 C956 1.539 . S
C959 H973 0.958 1_455 S
C959 H974 0.961 . S
C959 H975 0.960 1_455 S
H960 C944 0.931 . S
H961 C949 0.929 . S
H962 C950 0.960 . S
H963 C950 0.962 . S
H964 C950 0.960 . S
H965 C951 0.961 . S
H966 C951 0.961 . S
H967 C951 0.961 . S
H968 C952 0.931 . S
H969 C957 0.930 . S
H970 C958 0.956 . S
H971 C958 0.961 . S
H972 C958 0.961 1_455 S
H973 C959 0.958 1_655 S
H974 C959 0.961 . S
H975 C959 0.960 1_655 S
C976 C977 1.396 . S
C976 C978 1.394 . S
C976 H992 0.931 . S
C977 C976 1.396 . S
C977 C981 1.369 1_455 S
C978 C976 1.394 . S
C978 C979 1.369 1_445 S
C978 C982 1.531 1_545 S
C979 C978 1.369 1_665 S
C979 C980 1.410 1_565 S
C979 C987 1.503 . S
C980 C979 1.410 1_545 S
C980 C981 1.392 . S
C980 C983 1.511 . S
C981 C977 1.369 1_655 S
C981 C980 1.392 . S
C981 H993 0.929 . S
C982 C978 1.531 1_565 S
C982 H994 0.960 . S
C982 H995 0.962 . S
C982 H996 0.960 1_565 S
C983 C980 1.511 . S
C983 H997 0.961 . S
C983 H998 0.961 1_545 S
C983 H999 0.961 . S
C984 C985 1.370 1_455 S
C984 C986 1.363 . S
C984 H1000 0.931 . S
C985 C984 1.370 1_655 S
C985 C989 1.408 . S
C986 C984 1.363 . S
C986 C987 1.370 1_455 S
C986 C990 1.524 . S
C987 C979 1.503 . S
C987 C986 1.370 1_655 S
C987 C988 1.403 . S
C988 C987 1.403 . S
C988 C989 1.404 . S
C988 C991 1.539 . S
C989 C985 1.408 . S
C989 C988 1.404 . S
C989 H1001 0.930 . S
C990 C986 1.524 . S
C990 H1002 0.956 . S
C990 H1003 0.961 . S
C990 H1004 0.961 . S
C991 C988 1.539 . S
C991 H1005 0.958 . S
C991 H1006 0.961 . S
C991 H1007 0.960 . S
H992 C976 0.931 . S
H993 C981 0.929 . S
H994 C982 0.960 . S
H995 C982 0.962 . S
H996 C982 0.960 1_545 S
H997 C983 0.961 . S
H998 C983 0.961 1_565 S
H999 C983 0.961 . S
H1000 C984 0.931 . S
H1001 C989 0.930 . S
H1002 C990 0.956 . S
H1003 C990 0.961 . S
H1004 C990 0.961 . S
H1005 C991 0.958 . S
H1006 C991 0.961 . S
H1007 C991 0.960 . S
C1008 C1009 1.392 . S
C1008 C1010 1.394 . S
C1008 H1024 0.931 . S
C1009 C1008 1.392 . S
C1009 C1013 1.376 1_565 S
C1010 C1008 1.394 . S
C1010 C1011 1.369 . S
C1010 C1014 1.531 . S
C1011 C1010 1.369 . S
C1011 C1012 1.410 . S
C1011 C1019 1.503 . S
C1012 C1011 1.410 . S
C1012 C1013 1.392 1_565 S
C1012 C1015 1.511 . S
C1013 C1009 1.376 1_545 S
C1013 C1012 1.392 1_545 S
C1013 H1025 0.929 . S
C1014 C1010 1.531 . S
C1014 H1026 0.960 . S
C1014 H1027 0.962 . S
C1014 H1028 0.960 . S
C1015 C1012 1.511 . S
C1015 H1029 0.961 1_565 S
C1015 H1030 0.961 1_565 S
C1015 H1031 0.961 . S
C1016 C1017 1.370 1_545 S
C1016 C1018 1.363 . S
C1016 H1032 0.931 . S
C1017 C1016 1.370 1_565 S
C1017 C1021 1.408 . S
C1018 C1016 1.363 . S
C1018 C1019 1.370 1_545 S
C1018 C1022 1.524 . S
C1019 C1011 1.503 . S
C1019 C1018 1.370 1_565 S
C1019 C1020 1.403 . S
C1020 C1019 1.403 . S
C1020 C1021 1.404 . S
C1020 C1023 1.539 . S
C1021 C1017 1.408 . S
C1021 C1020 1.404 . S
C1021 H1033 0.930 . S
C1022 C1018 1.524 . S
C1022 H1034 0.956 . S
C1022 H1035 0.961 . S
C1022 H1036 0.961 . S
C1023 C1020 1.539 . S
C1023 H1037 0.958 . S
C1023 H1038 0.961 . S
C1023 H1039 0.960 . S
H1024 C1008 0.931 . S
H1025 C1013 0.929 . S
H1026 C1014 0.960 . S
H1027 C1014 0.962 . S
H1028 C1014 0.960 . S
H1029 C1015 0.961 1_545 S
H1030 C1015 0.961 1_545 S
H1031 C1015 0.961 . S
H1032 C1016 0.931 . S
H1033 C1021 0.930 . S
H1034 C1022 0.956 . S
H1035 C1022 0.961 . S
H1036 C1022 0.961 . S
H1037 C1023 0.958 . S
H1038 C1023 0.961 . S
H1039 C1023 0.960 . S
C1040 C1041 1.391 . S
C1040 C1042 1.394 . S
C1040 H1056 0.931 . S
C1041 C1040 1.391 . S
C1041 C1045 1.376 . S
C1042 C1040 1.394 . S
C1042 C1043 1.369 . S
C1042 C1046 1.531 . S
C1043 C1042 1.369 . S
C1043 C1044 1.410 . S
C1043 C1051 1.503 . S
C1044 C1043 1.410 . S
C1044 C1045 1.392 . S
C1044 C1047 1.511 . S
C1045 C1041 1.376 . S
C1045 C1044 1.392 . S
C1045 H1057 0.929 . S
C1046 C1042 1.531 . S
C1046 H1058 0.960 . S
C1046 H1059 0.962 . S
C1046 H1060 0.960 . S
C1047 C1044 1.511 . S
C1047 H1061 0.961 . S
C1047 H1062 0.961 . S
C1047 H1063 0.961 . S
C1048 C1049 1.370 . S
C1048 C1050 1.363 . S
C1048 H1064 0.931 . S
C1049 C1048 1.370 . S
C1049 C1053 1.408 . S
C1050 C1048 1.363 . S
C1050 C1051 1.370 1_565 S
C1050 C1054 1.524 1_565 S
C1051 C1043 1.503 . S
C1051 C1050 1.370 1_545 S
C1051 C1052 1.403 1_545 S
C1052 C1051 1.403 1_565 S
C1052 C1053 1.404 . S
C1052 C1055 1.539 1_565 S
C1053 C1049 1.408 . S
C1053 C1052 1.404 . S
C1053 H1065 0.930 . S
C1054 C1050 1.524 1_545 S
C1054 H1066 0.956 . S
C1054 H1067 0.961 . S
C1054 H1068 0.961 1_545 S
C1055 C1052 1.539 1_545 S
C1055 H1069 0.958 . S
C1055 H1070 0.961 1_545 S
C1055 H1071 0.960 . S
H1056 C1040 0.931 . S
H1057 C1045 0.929 . S
H1058 C1046 0.960 . S
H1059 C1046 0.962 . S
H1060 C1046 0.960 . S
H1061 C1047 0.961 . S
H1062 C1047 0.961 . S
H1063 C1047 0.961 . S
H1064 C1048 0.931 . S
H1065 C1053 0.930 . S
H1066 C1054 0.956 . S
H1067 C1054 0.961 . S
H1068 C1054 0.961 1_565 S
H1069 C1055 0.958 . S
H1070 C1055 0.961 1_565 S
H1071 C1055 0.960 . S
C1072 C1073 1.391 . S
C1072 C1074 1.394 . S
C1072 H1088 0.931 . S
C1073 C1072 1.391 . S
C1073 C1077 1.376 . S
C1074 C1072 1.394 . S
C1074 C1075 1.369 . S
C1074 C1078 1.531 . S
C1075 C1074 1.369 . S
C1075 C1076 1.410 . S
C1075 C1083 1.503 . S
C1076 C1075 1.410 . S
C1076 C1077 1.392 . S
C1076 C1079 1.511 . S
C1077 C1073 1.376 . S
C1077 C1076 1.392 . S
C1077 H1089 0.929 . S
C1078 C1074 1.531 . S
C1078 H1090 0.960 . S
C1078 H1091 0.962 . S
C1078 H1092 0.960 . S
C1079 C1076 1.511 . S
C1079 H1093 0.961 . S
C1079 H1094 0.961 . S
C1079 H1095 0.961 . S
C1080 C1081 1.370 . S
C1080 C1082 1.363 . S
C1080 H1096 0.931 . S
C1081 C1080 1.370 . S
C1081 C1085 1.408 . S
C1082 C1080 1.363 . S
C1082 C1083 1.370 . S
C1082 C1086 1.524 . S
C1083 C1075 1.503 . S
C1083 C1082 1.370 . S
C1083 C1084 1.403 . S
C1084 C1083 1.403 . S
C1084 C1085 1.404 . S
C1084 C1087 1.539 . S
C1085 C1081 1.408 . S
C1085 C1084 1.404 . S
C1085 H1097 0.930 . S
C1086 C1082 1.524 . S
C1086 H1098 0.956 . S
C1086 H1099 0.961 . S
C1086 H1100 0.961 . S
C1087 C1084 1.539 . S
C1087 H1101 0.958 . S
C1087 H1102 0.961 . S
C1087 H1103 0.960 . S
H1088 C1072 0.931 . S
H1089 C1077 0.929 . S
H1090 C1078 0.960 . S
H1091 C1078 0.962 . S
H1092 C1078 0.960 . S
H1093 C1079 0.961 . S
H1094 C1079 0.961 . S
H1095 C1079 0.961 . S
H1096 C1080 0.931 . S
H1097 C1085 0.930 . S
H1098 C1086 0.956 . S
H1099 C1086 0.961 . S
H1100 C1086 0.961 . S
H1101 C1087 0.958 . S
H1102 C1087 0.961 . S
H1103 C1087 0.960 . S
C1104 C1105 1.391 1_655 S
C1104 C1106 1.394 . S
C1104 H1120 0.931 . S
C1105 C1104 1.391 1_455 S
C1105 C1109 1.376 . S
C1106 C1104 1.394 . S
C1106 C1107 1.369 1_655 S
C1106 C1110 1.531 . S
C1107 C1106 1.369 1_455 S
C1107 C1108 1.410 . S
C1107 C1115 1.503 . S
C1108 C1107 1.410 . S
C1108 C1109 1.392 . S
C1108 C1111 1.511 . S
C1109 C1105 1.376 . S
C1109 C1108 1.392 . S
C1109 H1121 0.929 . S
C1110 C1106 1.531 . S
C1110 H1122 0.960 . S
C1110 H1123 0.962 . S
C1110 H1124 0.960 . S
C1111 C1108 1.511 . S
C1111 H1125 0.961 . S
C1111 H1126 0.961 . S
C1111 H1127 0.961 . S
C1112 C1113 1.370 . S
C1112 C1114 1.363 . S
C1112 H1128 0.931 . S
C1113 C1112 1.370 . S
C1113 C1117 1.408 1_655 S
C1114 C1112 1.363 . S
C1114 C1115 1.370 1_655 S
C1114 C1118 1.524 . S
C1115 C1107 1.503 . S
C1115 C1114 1.370 1_455 S
C1115 C1116 1.403 . S
C1116 C1115 1.403 . S
C1116 C1117 1.404 . S
C1116 C1119 1.539 . S
C1117 C1113 1.408 1_455 S
C1117 C1116 1.404 . S
C1117 H1129 0.930 . S
C1118 C1114 1.524 . S
C1118 H1130 0.956 . S
C1118 H1131 0.961 1_655 S
C1118 H1132 0.961 . S
C1119 C1116 1.539 . S
C1119 H1133 0.958 . S
C1119 H1134 0.961 . S
C1119 H1135 0.960 . S
H1120 C1104 0.931 . S
H1121 C1109 0.929 . S
H1122 C1110 0.960 . S
H1123 C1110 0.962 . S
H1124 C1110 0.960 . S
H1125 C1111 0.961 . S
H1126 C1111 0.961 . S
H1127 C1111 0.961 . S
H1128 C1112 0.931 . S
H1129 C1117 0.930 . S
H1130 C1118 0.956 . S
H1131 C1118 0.961 1_455 S
H1132 C1118 0.961 . S
H1133 C1119 0.958 . S
H1134 C1119 0.961 . S
H1135 C1119 0.960 . S
C1136 C1137 1.391 . S
C1136 C1138 1.394 . S
C1136 H1152 0.931 . S
C1137 C1136 1.391 . S
C1137 C1141 1.376 1_565 S
C1138 C1136 1.394 . S
C1138 C1139 1.369 1_665 S
C1138 C1142 1.531 1_655 S
C1139 C1138 1.369 1_445 S
C1139 C1140 1.410 1_455 S
C1139 C1147 1.503 . S
C1140 C1139 1.410 1_655 S
C1140 C1141 1.392 . S
C1140 C1143 1.511 . S
C1141 C1137 1.376 1_545 S
C1141 C1140 1.392 . S
C1141 H1153 0.929 . S
C1142 C1138 1.531 1_455 S
C1142 H1154 0.960 . S
C1142 H1155 0.962 . S
C1142 H1156 0.960 . S
C1143 C1140 1.511 . S
C1143 H1157 0.961 . S
C1143 H1158 0.961 1_655 S
C1143 H1159 0.963 . S
C1144 C1145 1.370 . S
C1144 C1146 1.363 . S
C1144 H1160 0.931 . S
C1145 C1144 1.370 . S
C1145 C1149 1.409 1_545 S
C1146 C1144 1.363 . S
C1146 C1147 1.370 . S
C1146 C1150 1.524 . S
C1147 C1139 1.503 . S
C1147 C1146 1.370 . S
C1147 C1148 1.403 1_545 S
C1148 C1147 1.403 1_565 S
C1148 C1149 1.404 . S
C1148 C1151 1.539 . S
C1149 C1145 1.409 1_565 S
C1149 C1148 1.404 . S
C1149 H1161 0.929 . S
C1150 C1146 1.524 . S
C1150 H1162 0.956 . S
C1150 H1163 0.961 . S
C1150 H1164 0.961 . S
C1151 C1148 1.539 . S
C1151 H1165 0.958 . S
C1151 H1166 0.961 . S
C1151 H1167 0.960 . S
H1152 C1136 0.931 . S
H1153 C1141 0.929 . S
H1154 C1142 0.960 . S
H1155 C1142 0.962 . S
H1156 C1142 0.960 . S
H1157 C1143 0.961 . S
H1158 C1143 0.961 1_455 S
H1159 C1143 0.963 . S
H1160 C1144 0.931 . S
H1161 C1149 0.929 . S
H1162 C1150 0.956 . S
H1163 C1150 0.961 . S
H1164 C1150 0.961 . S
H1165 C1151 0.958 . S
H1166 C1151 0.961 . S
H1167 C1151 0.960 . S
C1168 C1169 1.391 . S
C1168 C1170 1.394 . S
C1168 H1184 0.931 . S
C1169 C1168 1.391 . S
C1169 C1173 1.376 . S
C1170 C1168 1.394 . S
C1170 C1171 1.369 . S
C1170 C1174 1.531 . S
C1171 C1170 1.369 . S
C1171 C1172 1.410 . S
C1171 C1179 1.503 . S
C1172 C1171 1.410 . S
C1172 C1173 1.392 . S
C1172 C1175 1.511 . S
C1173 C1169 1.376 . S
C1173 C1172 1.392 . S
C1173 H1185 0.929 . S
C1174 C1170 1.531 . S
C1174 H1186 0.960 . S
C1174 H1187 0.962 . S
C1174 H1188 0.960 . S
C1175 C1172 1.511 . S
C1175 H1189 0.961 . S
C1175 H1190 0.961 . S
C1175 H1191 0.961 . S
C1176 C1177 1.370 . S
C1176 C1178 1.363 . S
C1176 H1192 0.931 . S
C1177 C1176 1.370 . S
C1177 C1181 1.408 . S
C1178 C1176 1.363 . S
C1178 C1179 1.370 . S
C1178 C1182 1.524 . S
C1179 C1171 1.503 . S
C1179 C1178 1.370 . S
C1179 C1180 1.403 . S
C1180 C1179 1.403 . S
C1180 C1181 1.404 . S
C1180 C1183 1.539 . S
C1181 C1177 1.408 . S
C1181 C1180 1.404 . S
C1181 H1193 0.930 . S
C1182 C1178 1.524 . S
C1182 H1194 0.956 . S
C1182 H1195 0.961 . S
C1182 H1196 0.961 . S
C1183 C1180 1.539 . S
C1183 H1197 0.958 . S
C1183 H1198 0.961 . S
C1183 H1199 0.960 . S
H1184 C1168 0.931 . S
H1185 C1173 0.929 . S
H1186 C1174 0.960 . S
H1187 C1174 0.962 . S
H1188 C1174 0.960 . S
H1189 C1175 0.961 . S
H1190 C1175 0.961 . S
H1191 C1175 0.961 . S
H1192 C1176 0.931 . S
H1193 C1181 0.930 . S
H1194 C1182 0.956 . S
H1195 C1182 0.961 . S
H1196 C1182 0.961 . S
H1197 C1183 0.958 . S
H1198 C1183 0.961 . S
H1199 C1183 0.960 . S
C1200 C1201 1.391 . S
C1200 C1202 1.394 . S
C1200 H1216 0.931 . S
C1201 C1200 1.391 . S
C1201 C1205 1.376 . S
C1202 C1200 1.394 . S
C1202 C1203 1.369 . S
C1202 C1206 1.531 . S
C1203 C1202 1.369 . S
C1203 C1204 1.410 . S
C1203 C1211 1.503 . S
C1204 C1203 1.410 . S
C1204 C1205 1.392 . S
C1204 C1207 1.511 . S
C1205 C1201 1.376 . S
C1205 C1204 1.392 . S
C1205 H1217 0.929 . S
C1206 C1202 1.531 . S
C1206 H1218 0.960 . S
C1206 H1219 0.962 . S
C1206 H1220 0.960 . S
C1207 C1204 1.511 . S
C1207 H1221 0.961 . S
C1207 H1222 0.961 . S
C1207 H1223 0.961 . S
C1208 C1209 1.370 . S
C1208 C1210 1.363 . S
C1208 H1224 0.931 . S
C1209 C1208 1.370 . S
C1209 C1213 1.408 . S
C1210 C1208 1.363 . S
C1210 C1211 1.370 1_655 S
C1210 C1214 1.515 1_655 S
C1211 C1203 1.503 . S
C1211 C1210 1.370 1_455 S
C1211 C1212 1.403 1_455 S
C1212 C1211 1.403 1_655 S
C1212 C1213 1.404 . S
C1212 C1215 1.539 1_655 S
C1213 C1209 1.408 . S
C1213 C1212 1.404 . S
C1213 H1225 0.930 . S
C1214 C1210 1.515 1_455 S
C1214 H1226 0.967 . S
C1214 H1227 0.975 . S
C1214 H1228 0.945 1_455 S
C1215 C1212 1.539 1_455 S
C1215 H1229 0.958 . S
C1215 H1230 0.961 1_455 S
C1215 H1231 0.960 . S
H1216 C1200 0.931 . S
H1217 C1205 0.929 . S
H1218 C1206 0.960 . S
H1219 C1206 0.962 . S
H1220 C1206 0.960 . S
H1221 C1207 0.961 . S
H1222 C1207 0.961 . S
H1223 C1207 0.961 . S
H1224 C1208 0.931 . S
H1225 C1213 0.930 . S
H1226 C1214 0.967 . S
H1227 C1214 0.975 . S
H1228 C1214 0.945 1_655 S
H1229 C1215 0.958 . S
H1230 C1215 0.961 1_655 S
H1231 C1215 0.960 . S
C1232 C1233 1.391 1_455 S
C1232 C1234 1.394 . S
C1232 H1248 0.931 . S
C1233 C1232 1.391 1_655 S
C1233 C1237 1.376 . S
C1234 C1232 1.394 . S
C1234 C1235 1.369 1_565 S
C1234 C1238 1.531 . S
C1235 C1234 1.369 1_545 S
C1235 C1236 1.410 1_445 S
C1235 C1243 1.503 . S
C1236 C1235 1.410 1_665 S
C1236 C1237 1.392 . S
C1236 C1239 1.511 1_565 S
C1237 C1233 1.376 . S
C1237 C1236 1.392 . S
C1237 H1249 0.929 . S
C1238 C1234 1.531 . S
C1238 H1250 0.960 1_565 S
C1238 H1251 0.962 1_565 S
C1238 H1252 0.960 . S
C1239 C1236 1.511 1_545 S
C1239 H1253 0.961 . S
C1239 H1254 0.961 . S
C1239 H1255 0.961 . S
C1240 C1241 1.370 . S
C1240 C1242 1.363 . S
C1240 H1256 0.931 . S
C1241 C1240 1.370 . S
C1241 C1245 1.408 . S
C1242 C1240 1.363 . S
C1242 C1243 1.370 . S
C1242 C1246 1.524 . S
C1243 C1235 1.503 . S
C1243 C1242 1.370 . S
C1243 C1244 1.403 . S
C1244 C1243 1.403 . S
C1244 C1245 1.404 . S
C1244 C1247 1.539 . S
C1245 C1241 1.408 . S
C1245 C1244 1.404 . S
C1245 H1257 0.930 . S
C1246 C1242 1.524 . S
C1246 H1258 0.956 . S
C1246 H1259 0.961 1_455 S
C1246 H1260 0.961 . S
C1247 C1244 1.539 . S
C1247 H1261 0.958 . S
C1247 H1262 0.961 1_455 S
C1247 H1263 0.960 1_455 S
H1248 C1232 0.931 . S
H1249 C1237 0.929 . S
H1250 C1238 0.960 1_545 S
H1251 C1238 0.962 1_545 S
H1252 C1238 0.960 . S
H1253 C1239 0.961 . S
H1254 C1239 0.961 . S
H1255 C1239 0.961 . S
H1256 C1240 0.931 . S
H1257 C1245 0.930 . S
H1258 C1246 0.956 . S
H1259 C1246 0.961 1_655 S
H1260 C1246 0.961 . S
H1261 C1247 0.958 . S
H1262 C1247 0.961 1_655 S
H1263 C1247 0.960 1_655 S
C1264 C1265 1.391 1_565 S
C1264 C1266 1.394 . S
C1264 H1280 0.931 . S
C1265 C1264 1.391 1_545 S
C1265 C1269 1.376 . S
C1266 C1264 1.394 . S
C1266 C1267 1.369 1_565 S
C1266 C1270 1.531 . S
C1267 C1266 1.369 1_545 S
C1267 C1268 1.410 . S
C1267 C1275 1.503 . S
C1268 C1267 1.410 . S
C1268 C1269 1.392 . S
C1268 C1271 1.511 . S
C1269 C1265 1.376 . S
C1269 C1268 1.392 . S
C1269 H1281 0.929 . S
C1270 C1266 1.531 . S
C1270 H1282 0.960 . S
C1270 H1283 0.962 . S
C1270 H1284 0.960 . S
C1271 C1268 1.511 . S
C1271 H1285 0.961 . S
C1271 H1286 0.961 . S
C1271 H1287 0.961 . S
C1272 C1273 1.370 1_545 S
C1272 C1274 1.363 . S
C1272 H1288 0.931 . S
C1273 C1272 1.370 1_565 S
C1273 C1277 1.408 . S
C1274 C1272 1.363 . S
C1274 C1275 1.370 . S
C1274 C1278 1.524 . S
C1275 C1267 1.503 . S
C1275 C1274 1.370 . S
C1275 C1276 1.403 1_545 S
C1276 C1275 1.403 1_565 S
C1276 C1277 1.404 . S
C1276 C1279 1.539 . S
C1277 C1273 1.408 . S
C1277 C1276 1.404 . S
C1277 H1289 0.930 . S
C1278 C1274 1.524 . S
C1278 H1290 0.956 . S
C1278 H1291 0.961 . S
C1278 H1292 0.961 . S
C1279 C1276 1.539 . S
C1279 H1293 0.958 . S
C1279 H1294 0.961 . S
C1279 H1295 0.960 . S
H1280 C1264 0.931 . S
H1281 C1269 0.929 . S
H1282 C1270 0.960 . S
H1283 C1270 0.962 . S
H1284 C1270 0.960 . S
H1285 C1271 0.961 . S
H1286 C1271 0.961 . S
H1287 C1271 0.961 . S
H1288 C1272 0.931 . S
H1289 C1277 0.930 . S
H1290 C1278 0.956 . S
H1291 C1278 0.961 . S
H1292 C1278 0.961 . S
H1293 C1279 0.958 . S
H1294 C1279 0.961 . S
H1295 C1279 0.960 . S
C1296 C1297 1.391 . S
C1296 C1298 1.394 . S
C1296 H1312 0.931 . S
C1297 C1296 1.391 . S
C1297 C1301 1.376 . S
C1298 C1296 1.394 . S
C1298 C1299 1.369 . S
C1298 C1302 1.531 . S
C1299 C1298 1.369 . S
C1299 C1300 1.410 . S
C1299 C1307 1.503 . S
C1300 C1299 1.410 . S
C1300 C1301 1.392 . S
C1300 C1303 1.511 . S
C1301 C1297 1.376 . S
C1301 C1300 1.392 . S
C1301 H1313 0.929 . S
C1302 C1298 1.531 . S
C1302 H1314 0.960 . S
C1302 H1315 0.962 . S
C1302 H1316 0.960 . S
C1303 C1300 1.511 . S
C1303 H1317 0.961 . S
C1303 H1318 0.961 . S
C1303 H1319 0.961 . S
C1304 C1305 1.370 . S
C1304 C1306 1.363 . S
C1304 H1320 0.931 . S
C1305 C1304 1.370 . S
C1305 C1309 1.408 . S
C1306 C1304 1.363 . S
C1306 C1307 1.370 . S
C1306 C1310 1.524 . S
C1307 C1299 1.503 . S
C1307 C1306 1.370 . S
C1307 C1308 1.403 . S
C1308 C1307 1.403 . S
C1308 C1309 1.404 . S
C1308 C1311 1.539 . S
C1309 C1305 1.408 . S
C1309 C1308 1.404 . S
C1309 H1321 0.930 . S
C1310 C1306 1.524 . S
C1310 H1322 0.956 . S
C1310 H1323 0.961 . S
C1310 H1324 0.961 . S
C1311 C1308 1.539 . S
C1311 H1325 0.958 . S
C1311 H1326 0.961 . S
C1311 H1327 0.960 . S
H1312 C1296 0.931 . S
H1313 C1301 0.929 . S
H1314 C1302 0.960 . S
H1315 C1302 0.962 . S
H1316 C1302 0.960 . S
H1317 C1303 0.961 . S
H1318 C1303 0.961 . S
H1319 C1303 0.961 . S
H1320 C1304 0.931 . S
H1321 C1309 0.930 . S
H1322 C1310 0.956 . S
H1323 C1310 0.961 . S
H1324 C1310 0.961 . S
H1325 C1311 0.958 . S
H1326 C1311 0.961 . S
H1327 C1311 0.960 . S
C1328 C1329 1.391 . S
C1328 C1330 1.394 . S
C1328 H1344 0.931 . S
C1329 C1328 1.391 . S
C1329 C1333 1.376 . S
C1330 C1328 1.394 . S
C1330 C1331 1.369 . S
C1330 C1334 1.531 . S
C1331 C1330 1.369 . S
C1331 C1332 1.410 . S
C1331 C1339 1.503 . S
C1332 C1331 1.410 . S
C1332 C1333 1.392 . S
C1332 C1335 1.511 . S
C1333 C1329 1.376 . S
C1333 C1332 1.392 . S
C1333 H1345 0.929 . S
C1334 C1330 1.531 . S
C1334 H1346 0.960 . S
C1334 H1347 0.962 . S
C1334 H1348 0.960 . S
C1335 C1332 1.511 . S
C1335 H1349 0.961 . S
C1335 H1350 0.961 . S
C1335 H1351 0.961 . S
C1336 C1337 1.370 . S
C1336 C1338 1.363 . S
C1336 H1352 0.931 . S
C1337 C1336 1.370 . S
C1337 C1341 1.408 . S
C1338 C1336 1.363 . S
C1338 C1339 1.370 . S
C1338 C1342 1.524 . S
C1339 C1331 1.503 . S
C1339 C1338 1.370 . S
C1339 C1340 1.403 . S
C1340 C1339 1.403 . S
C1340 C1341 1.404 . S
C1340 C1343 1.539 . S
C1341 C1337 1.408 . S
C1341 C1340 1.404 . S
C1341 H1353 0.930 . S
C1342 C1338 1.524 . S
C1342 H1354 0.956 . S
C1342 H1355 0.961 . S
C1342 H1356 0.961 . S
C1343 C1340 1.539 . S
C1343 H1357 0.958 . S
C1343 H1358 0.961 . S
C1343 H1359 0.960 . S
H1344 C1328 0.931 . S
H1345 C1333 0.929 . S
H1346 C1334 0.960 . S
H1347 C1334 0.962 . S
H1348 C1334 0.960 . S
H1349 C1335 0.961 . S
H1350 C1335 0.961 . S
H1351 C1335 0.961 . S
H1352 C1336 0.931 . S
H1353 C1341 0.930 . S
H1354 C1342 0.956 . S
H1355 C1342 0.961 . S
H1356 C1342 0.961 . S
H1357 C1343 0.958 . S
H1358 C1343 0.961 . S
H1359 C1343 0.960 . S
C1360 C1361 1.391 . S
C1360 C1362 1.394 . S
C1360 H1376 0.931 . S
C1361 C1360 1.391 . S
C1361 C1365 1.376 . S
C1362 C1360 1.394 . S
C1362 C1363 1.369 . S
C1362 C1366 1.531 . S
C1363 C1362 1.369 . S
C1363 C1364 1.410 . S
C1363 C1371 1.503 . S
C1364 C1363 1.410 . S
C1364 C1365 1.392 . S
C1364 C1367 1.511 . S
C1365 C1361 1.376 . S
C1365 C1364 1.392 . S
C1365 H1377 0.929 . S
C1366 C1362 1.531 . S
C1366 H1378 0.960 . S
C1366 H1379 0.962 . S
C1366 H1380 0.960 . S
C1367 C1364 1.511 . S
C1367 H1381 0.961 . S
C1367 H1382 0.961 . S
C1367 H1383 0.961 . S
C1368 C1369 1.370 . S
C1368 C1370 1.363 . S
C1368 H1384 0.931 . S
C1369 C1368 1.370 . S
C1369 C1373 1.408 . S
C1370 C1368 1.363 . S
C1370 C1371 1.370 . S
C1370 C1374 1.524 . S
C1371 C1363 1.503 . S
C1371 C1370 1.370 . S
C1371 C1372 1.403 . S
C1372 C1371 1.403 . S
C1372 C1373 1.404 . S
C1372 C1375 1.539 . S
C1373 C1369 1.408 . S
C1373 C1372 1.404 . S
C1373 H1385 0.930 . S
C1374 C1370 1.524 . S
C1374 H1386 0.956 . S
C1374 H1387 0.961 . S
C1374 H1388 0.961 . S
C1375 C1372 1.539 . S
C1375 H1389 0.958 . S
C1375 H1390 0.961 . S
C1375 H1391 0.960 . S
H1376 C1360 0.931 . S
H1377 C1365 0.929 . S
H1378 C1366 0.960 . S
H1379 C1366 0.962 . S
H1380 C1366 0.960 . S
H1381 C1367 0.961 . S
H1382 C1367 0.961 . S
H1383 C1367 0.961 . S
H1384 C1368 0.931 . S
H1385 C1373 0.930 . S
H1386 C1374 0.956 . S
H1387 C1374 0.961 . S
H1388 C1374 0.961 . S
H1389 C1375 0.958 . S
H1390 C1375 0.961 . S
H1391 C1375 0.960 . S
C1392 C1393 1.391 . S
C1392 C1394 1.394 . S
C1392 H1408 0.931 . S
C1393 C1392 1.391 . S
C1393 C1397 1.376 . S
C1394 C1392 1.394 . S
C1394 C1395 1.369 . S
C1394 C1398 1.531 . S
C1395 C1394 1.369 . S
C1395 C1396 1.410 . S
C1395 C1403 1.503 . S
C1396 C1395 1.410 . S
C1396 C1397 1.392 . S
C1396 C1399 1.511 . S
C1397 C1393 1.376 . S
C1397 C1396 1.392 . S
C1397 H1409 0.929 . S
C1398 C1394 1.531 . S
C1398 H1410 0.960 . S
C1398 H1411 0.962 . S
C1398 H1412 0.960 . S
C1399 C1396 1.511 . S
C1399 H1413 0.961 . S
C1399 H1414 0.961 . S
C1399 H1415 0.961 . S
C1400 C1401 1.370 . S
C1400 C1402 1.363 . S
C1400 H1416 0.931 . S
C1401 C1400 1.370 . S
C1401 C1405 1.408 . S
C1402 C1400 1.363 . S
C1402 C1403 1.370 . S
C1402 C1406 1.524 . S
C1403 C1395 1.503 . S
C1403 C1402 1.370 . S
C1403 C1404 1.403 . S
C1404 C1403 1.403 . S
C1404 C1405 1.404 . S
C1404 C1407 1.539 . S
C1405 C1401 1.408 . S
C1405 C1404 1.404 . S
C1405 H1417 0.930 . S
C1406 C1402 1.524 . S
C1406 H1418 0.956 . S
C1406 H1419 0.961 . S
C1406 H1420 0.961 . S
C1407 C1404 1.539 . S
C1407 H1421 0.958 . S
C1407 H1422 0.961 . S
C1407 H1423 0.960 . S
H1408 C1392 0.931 . S
H1409 C1397 0.929 . S
H1410 C1398 0.960 . S
H1411 C1398 0.962 . S
H1412 C1398 0.960 . S
H1413 C1399 0.961 . S
H1414 C1399 0.961 . S
H1415 C1399 0.961 . S
H1416 C1400 0.931 . S
H1417 C1405 0.930 . S
H1418 C1406 0.956 . S
H1419 C1406 0.961 . S
H1420 C1406 0.961 . S
H1421 C1407 0.958 . S
H1422 C1407 0.961 . S
H1423 C1407 0.960 . S
C1424 C1425 1.391 . S
C1424 C1426 1.394 . S
C1424 H1440 0.931 . S
C1425 C1424 1.391 . S
C1425 C1429 1.376 . S
C1426 C1424 1.394 . S
C1426 C1427 1.369 . S
C1426 C1430 1.531 . S
C1427 C1426 1.369 . S
C1427 C1428 1.410 . S
C1427 C1435 1.503 . S
C1428 C1427 1.410 . S
C1428 C1429 1.392 . S
C1428 C1431 1.511 . S
C1429 C1425 1.376 . S
C1429 C1428 1.392 . S
C1429 H1441 0.929 . S
C1430 C1426 1.531 . S
C1430 H1442 0.960 . S
C1430 H1443 0.962 . S
C1430 H1444 0.960 . S
C1431 C1428 1.511 . S
C1431 H1445 0.961 . S
C1431 H1446 0.961 . S
C1431 H1447 0.961 . S
C1432 C1433 1.370 . S
C1432 C1434 1.363 . S
C1432 H1448 0.931 . S
C1433 C1432 1.370 . S
C1433 C1437 1.408 . S
C1434 C1432 1.363 . S
C1434 C1435 1.370 . S
C1434 C1438 1.524 . S
C1435 C1427 1.503 . S
C1435 C1434 1.370 . S
C1435 C1436 1.403 . S
C1436 C1435 1.403 . S
C1436 C1437 1.404 . S
C1436 C1439 1.539 . S
C1437 C1433 1.408 . S
C1437 C1436 1.404 . S
C1437 H1449 0.930 . S
C1438 C1434 1.524 . S
C1438 H1450 0.956 . S
C1438 H1451 0.961 . S
C1438 H1452 0.961 . S
C1439 C1436 1.539 . S
C1439 H1453 0.958 . S
C1439 H1454 0.961 . S
C1439 H1455 0.960 . S
H1440 C1424 0.931 . S
H1441 C1429 0.929 . S
H1442 C1430 0.960 . S
H1443 C1430 0.962 . S
H1444 C1430 0.960 . S
H1445 C1431 0.961 . S
H1446 C1431 0.961 . S
H1447 C1431 0.961 . S
H1448 C1432 0.931 . S
H1449 C1437 0.930 . S
H1450 C1438 0.956 . S
H1451 C1438 0.961 . S
H1452 C1438 0.961 . S
H1453 C1439 0.958 . S
H1454 C1439 0.961 . S
H1455 C1439 0.960 . S
C1456 C1457 1.391 . S
C1456 C1458 1.394 . S
C1456 H1472 0.931 . S
C1457 C1456 1.391 . S
C1457 C1461 1.376 . S
C1458 C1456 1.394 . S
C1458 C1459 1.369 . S
C1458 C1462 1.531 . S
C1459 C1458 1.369 . S
C1459 C1460 1.410 . S
C1459 C1467 1.503 . S
C1460 C1459 1.410 . S
C1460 C1461 1.392 . S
C1460 C1463 1.511 . S
C1461 C1457 1.376 . S
C1461 C1460 1.392 . S
C1461 H1473 0.929 . S
C1462 C1458 1.531 . S
C1462 H1474 0.960 . S
C1462 H1475 0.962 . S
C1462 H1476 0.960 . S
C1463 C1460 1.511 . S
C1463 H1477 0.961 . S
C1463 H1478 0.961 . S
C1463 H1479 0.961 . S
C1464 C1465 1.370 . S
C1464 C1466 1.363 . S
C1464 H1480 0.931 . S
C1465 C1464 1.370 . S
C1465 C1469 1.408 . S
C1466 C1464 1.363 . S
C1466 C1467 1.370 . S
C1466 C1470 1.524 . S
C1467 C1459 1.503 . S
C1467 C1466 1.370 . S
C1467 C1468 1.403 . S
C1468 C1467 1.403 . S
C1468 C1469 1.404 . S
C1468 C1471 1.539 . S
C1469 C1465 1.408 . S
C1469 C1468 1.404 . S
C1469 H1481 0.930 . S
C1470 C1466 1.524 . S
C1470 H1482 0.956 . S
C1470 H1483 0.961 . S
C1470 H1484 0.961 . S
C1471 C1468 1.539 . S
C1471 H1485 0.958 . S
C1471 H1486 0.961 . S
C1471 H1487 0.960 . S
H1472 C1456 0.931 . S
H1473 C1461 0.929 . S
H1474 C1462 0.960 . S
H1475 C1462 0.962 . S
H1476 C1462 0.960 . S
H1477 C1463 0.961 . S
H1478 C1463 0.961 . S
H1479 C1463 0.961 . S
H1480 C1464 0.931 . S
H1481 C1469 0.930 . S
H1482 C1470 0.956 . S
H1483 C1470 0.961 . S
H1484 C1470 0.961 . S
H1485 C1471 0.958 . S
H1486 C1471 0.961 . S
H1487 C1471 0.960 . S
C1488 C1489 1.391 . S
C1488 C1490 1.394 . S
C1488 H1504 0.931 . S
C1489 C1488 1.391 . S
C1489 C1493 1.376 . S
C1490 C1488 1.394 . S
C1490 C1491 1.369 . S
C1490 C1494 1.531 . S
C1491 C1490 1.369 . S
C1491 C1492 1.410 . S
C1491 C1499 1.503 . S
C1492 C1491 1.410 . S
C1492 C1493 1.392 . S
C1492 C1495 1.511 . S
C1493 C1489 1.376 . S
C1493 C1492 1.392 . S
C1493 H1505 0.929 . S
C1494 C1490 1.531 . S
C1494 H1506 0.960 . S
C1494 H1507 0.962 . S
C1494 H1508 0.960 . S
C1495 C1492 1.511 . S
C1495 H1509 0.961 . S
C1495 H1510 0.961 . S
C1495 H1511 0.961 . S
C1496 C1497 1.370 . S
C1496 C1498 1.363 . S
C1496 H1512 0.931 . S
C1497 C1496 1.370 . S
C1497 C1501 1.408 . S
C1498 C1496 1.363 . S
C1498 C1499 1.370 . S
C1498 C1502 1.524 . S
C1499 C1491 1.503 . S
C1499 C1498 1.370 . S
C1499 C1500 1.403 . S
C1500 C1499 1.403 . S
C1500 C1501 1.404 . S
C1500 C1503 1.539 . S
C1501 C1497 1.408 . S
C1501 C1500 1.404 . S
C1501 H1513 0.930 . S
C1502 C1498 1.524 . S
C1502 H1514 0.956 . S
C1502 H1515 0.961 . S
C1502 H1516 0.961 . S
C1503 C1500 1.539 . S
C1503 H1517 0.958 . S
C1503 H1518 0.961 . S
C1503 H1519 0.960 . S
H1504 C1488 0.931 . S
H1505 C1493 0.929 . S
H1506 C1494 0.960 . S
H1507 C1494 0.962 . S
H1508 C1494 0.960 . S
H1509 C1495 0.961 . S
H1510 C1495 0.961 . S
H1511 C1495 0.961 . S
H1512 C1496 0.931 . S
H1513 C1501 0.930 . S
H1514 C1502 0.956 . S
H1515 C1502 0.961 . S
H1516 C1502 0.961 . S
H1517 C1503 0.958 . S
H1518 C1503 0.961 . S
H1519 C1503 0.960 . S
C1520 C1521 1.391 . S
C1520 C1522 1.394 . S
C1520 H1536 0.931 . S
C1521 C1520 1.391 . S
C1521 C1525 1.376 . S
C1522 C1520 1.394 . S
C1522 C1523 1.369 . S
C1522 C1526 1.531 . S
C1523 C1522 1.369 . S
C1523 C1524 1.410 . S
C1523 C1531 1.503 . S
C1524 C1523 1.410 . S
C1524 C1525 1.392 . S
C1524 C1527 1.511 . S
C1525 C1521 1.376 . S
C1525 C1524 1.392 . S
C1525 H1537 0.929 . S
C1526 C1522 1.531 . S
C1526 H1538 0.960 . S
C1526 H1539 0.962 . S
C1526 H1540 0.960 . S
C1527 C1524 1.511 . S
C1527 H1541 0.961 . S
C1527 H1542 0.961 . S
C1527 H1543 0.961 . S
C1528 C1529 1.370 . S
C1528 C1530 1.363 . S
C1528 H1544 0.931 . S
C1529 C1528 1.370 . S
C1529 C1533 1.408 . S
C1530 C1528 1.363 . S
C1530 C1531 1.370 . S
C1530 C1534 1.524 . S
C1531 C1523 1.503 . S
C1531 C1530 1.370 . S
C1531 C1532 1.403 . S
C1532 C1531 1.403 . S
C1532 C1533 1.404 . S
C1532 C1535 1.539 . S
C1533 C1529 1.408 . S
C1533 C1532 1.404 . S
C1533 H1545 0.930 . S
C1534 C1530 1.524 . S
C1534 H1546 0.956 . S
C1534 H1547 0.961 . S
C1534 H1548 0.961 . S
C1535 C1532 1.539 . S
C1535 H1549 0.958 . S
C1535 H1550 0.961 . S
C1535 H1551 0.960 . S
H1536 C1520 0.931 . S
H1537 C1525 0.929 . S
H1538 C1526 0.960 . S
H1539 C1526 0.962 . S
H1540 C1526 0.960 . S
H1541 C1527 0.961 . S
H1542 C1527 0.961 . S
H1543 C1527 0.961 . S
H1544 C1528 0.931 . S
H1545 C1533 0.930 . S
H1546 C1534 0.956 . S
H1547 C1534 0.961 . S
H1548 C1534 0.961 . S
H1549 C1535 0.958 . S
H1550 C1535 0.961 . S
H1551 C1535 0.960 . S
C1552 C1553 1.391 . S
C1552 C1554 1.394 . S
C1552 H1568 0.931 . S
C1553 C1552 1.391 . S
C1553 C1557 1.376 . S
C1554 C1552 1.394 . S
C1554 C1555 1.369 . S
C1554 C1558 1.531 . S
C1555 C1554 1.369 . S
C1555 C1556 1.410 . S
C1555 C1563 1.503 . S
C1556 C1555 1.410 . S
C1556 C1557 1.392 . S
C1556 C1559 1.511 . S
C1557 C1553 1.376 . S
C1557 C1556 1.392 . S
C1557 H1569 0.929 . S
C1558 C1554 1.531 . S
C1558 H1570 0.960 . S
C1558 H1571 0.962 . S
C1558 H1572 0.960 . S
C1559 C1556 1.511 . S
C1559 H1573 0.961 . S
C1559 H1574 0.961 . S
C1559 H1575 0.961 . S
C1560 C1561 1.370 . S
C1560 C1562 1.363 . S
C1560 H1576 0.931 . S
C1561 C1560 1.370 . S
C1561 C1565 1.408 . S
C1562 C1560 1.363 . S
C1562 C1563 1.370 . S
C1562 C1566 1.524 . S
C1563 C1555 1.503 . S
C1563 C1562 1.370 . S
C1563 C1564 1.403 . S
C1564 C1563 1.403 . S
C1564 C1565 1.404 . S
C1564 C1567 1.539 . S
C1565 C1561 1.408 . S
C1565 C1564 1.404 . S
C1565 H1577 0.930 . S
C1566 C1562 1.524 . S
C1566 H1578 0.956 . S
C1566 H1579 0.961 . S
C1566 H1580 0.961 . S
C1567 C1564 1.539 . S
C1567 H1581 0.958 . S
C1567 H1582 0.961 . S
C1567 H1583 0.960 . S
H1568 C1552 0.931 . S
H1569 C1557 0.929 . S
H1570 C1558 0.960 . S
H1571 C1558 0.962 . S
H1572 C1558 0.960 . S
H1573 C1559 0.961 . S
H1574 C1559 0.961 . S
H1575 C1559 0.961 . S
H1576 C1560 0.931 . S
H1577 C1565 0.930 . S
H1578 C1566 0.956 . S
H1579 C1566 0.961 . S
H1580 C1566 0.961 . S
H1581 C1567 0.958 . S
H1582 C1567 0.961 . S
H1583 C1567 0.960 . S
C1584 C1585 1.391 . S
C1584 C1586 1.394 . S
C1584 H1600 0.931 . S
C1585 C1584 1.391 . S
C1585 C1589 1.376 . S
C1586 C1584 1.394 . S
C1586 C1587 1.369 . S
C1586 C1590 1.531 . S
C1587 C1586 1.369 . S
C1587 C1588 1.410 . S
C1587 C1595 1.503 . S
C1588 C1587 1.410 . S
C1588 C1589 1.392 . S
C1588 C1591 1.511 . S
C1589 C1585 1.376 . S
C1589 C1588 1.392 . S
C1589 H1601 0.929 . S
C1590 C1586 1.531 . S
C1590 H1602 0.960 . S
C1590 H1603 0.962 . S
C1590 H1604 0.960 . S
C1591 C1588 1.511 . S
C1591 H1605 0.961 . S
C1591 H1606 0.961 . S
C1591 H1607 0.961 . S
C1592 C1593 1.370 . S
C1592 C1594 1.363 . S
C1592 H1608 0.931 . S
C1593 C1592 1.370 . S
C1593 C1597 1.408 . S
C1594 C1592 1.363 . S
C1594 C1595 1.370 . S
C1594 C1598 1.524 . S
C1595 C1587 1.503 . S
C1595 C1594 1.370 . S
C1595 C1596 1.403 . S
C1596 C1595 1.403 . S
C1596 C1597 1.404 . S
C1596 C1599 1.539 . S
C1597 C1593 1.408 . S
C1597 C1596 1.404 . S
C1597 H1609 0.930 . S
C1598 C1594 1.524 . S
C1598 H1610 0.956 . S
C1598 H1611 0.961 . S
C1598 H1612 0.961 . S
C1599 C1596 1.539 . S
C1599 H1613 0.958 . S
C1599 H1614 0.961 . S
C1599 H1615 0.960 . S
H1600 C1584 0.931 . S
H1601 C1589 0.929 . S
H1602 C1590 0.960 . S
H1603 C1590 0.962 . S
H1604 C1590 0.960 . S
H1605 C1591 0.961 . S
H1606 C1591 0.961 . S
H1607 C1591 0.961 . S
H1608 C1592 0.931 . S
H1609 C1597 0.930 . S
H1610 C1598 0.956 . S
H1611 C1598 0.961 . S
H1612 C1598 0.961 . S
H1613 C1599 0.958 . S
H1614 C1599 0.961 . S
H1615 C1599 0.960 . S
C1616 C1617 1.391 . S
C1616 C1618 1.394 . S
C1616 H1632 0.931 . S
C1617 C1616 1.391 . S
C1617 C1621 1.376 . S
C1618 C1616 1.394 . S
C1618 C1619 1.369 . S
C1618 C1622 1.531 . S
C1619 C1618 1.369 . S
C1619 C1620 1.410 . S
C1619 C1627 1.503 . S
C1620 C1619 1.410 . S
C1620 C1621 1.392 . S
C1620 C1623 1.511 . S
C1621 C1617 1.376 . S
C1621 C1620 1.392 . S
C1621 H1633 0.929 . S
C1622 C1618 1.531 . S
C1622 H1634 0.960 . S
C1622 H1635 0.962 . S
C1622 H1636 0.960 . S
C1623 C1620 1.511 . S
C1623 H1637 0.961 . S
C1623 H1638 0.961 . S
C1623 H1639 0.961 . S
C1624 C1625 1.370 . S
C1624 C1626 1.363 . S
C1624 H1640 0.931 . S
C1625 C1624 1.370 . S
C1625 C1629 1.408 . S
C1626 C1624 1.363 . S
C1626 C1627 1.370 . S
C1626 C1630 1.524 . S
C1627 C1619 1.503 . S
C1627 C1626 1.370 . S
C1627 C1628 1.403 . S
C1628 C1627 1.403 . S
C1628 C1629 1.404 . S
C1628 C1631 1.539 . S
C1629 C1625 1.408 . S
C1629 C1628 1.404 . S
C1629 H1641 0.930 . S
C1630 C1626 1.524 . S
C1630 H1642 0.956 . S
C1630 H1643 0.961 . S
C1630 H1644 0.961 . S
C1631 C1628 1.539 . S
C1631 H1645 0.958 . S
C1631 H1646 0.961 . S
C1631 H1647 0.960 . S
H1632 C1616 0.931 . S
H1633 C1621 0.929 . S
H1634 C1622 0.960 . S
H1635 C1622 0.962 . S
H1636 C1622 0.960 . S
H1637 C1623 0.961 . S
H1638 C1623 0.961 . S
H1639 C1623 0.961 . S
H1640 C1624 0.931 . S
H1641 C1629 0.930 . S
H1642 C1630 0.956 . S
H1643 C1630 0.961 . S
H1644 C1630 0.961 . S
H1645 C1631 0.958 . S
H1646 C1631 0.961 . S
H1647 C1631 0.960 . S
C1648 C1649 1.391 . S
C1648 C1650 1.394 . S
C1648 H1664 0.931 . S
C1649 C1648 1.391 . S
C1649 C1653 1.376 . S
C1650 C1648 1.394 . S
C1650 C1651 1.369 . S
C1650 C1654 1.531 . S
C1651 C1650 1.369 . S
C1651 C1652 1.410 . S
C1651 C1659 1.503 . S
C1652 C1651 1.410 . S
C1652 C1653 1.392 . S
C1652 C1655 1.511 . S
C1653 C1649 1.376 . S
C1653 C1652 1.392 . S
C1653 H1665 0.929 . S
C1654 C1650 1.531 . S
C1654 H1666 0.960 . S
C1654 H1667 0.962 . S
C1654 H1668 0.960 . S
C1655 C1652 1.511 . S
C1655 H1669 0.961 . S
C1655 H1670 0.961 . S
C1655 H1671 0.961 . S
C1656 C1657 1.370 . S
C1656 C1658 1.363 . S
C1656 H1672 0.931 . S
C1657 C1656 1.370 . S
C1657 C1661 1.408 . S
C1658 C1656 1.363 . S
C1658 C1659 1.370 . S
C1658 C1662 1.524 . S
C1659 C1651 1.503 . S
C1659 C1658 1.370 . S
C1659 C1660 1.403 . S
C1660 C1659 1.403 . S
C1660 C1661 1.404 . S
C1660 C1663 1.539 . S
C1661 C1657 1.408 . S
C1661 C1660 1.404 . S
C1661 H1673 0.930 . S
C1662 C1658 1.524 . S
C1662 H1674 0.956 . S
C1662 H1675 0.961 . S
C1662 H1676 0.961 . S
C1663 C1660 1.539 . S
C1663 H1677 0.958 . S
C1663 H1678 0.961 . S
C1663 H1679 0.960 . S
H1664 C1648 0.931 . S
H1665 C1653 0.929 . S
H1666 C1654 0.960 . S
H1667 C1654 0.962 . S
H1668 C1654 0.960 . S
H1669 C1655 0.961 . S
H1670 C1655 0.961 . S
H1671 C1655 0.961 . S
H1672 C1656 0.931 . S
H1673 C1661 0.930 . S
H1674 C1662 0.956 . S
H1675 C1662 0.961 . S
H1676 C1662 0.961 . S
H1677 C1663 0.958 . S
H1678 C1663 0.961 . S
H1679 C1663 0.960 . S
C1680 C1681 1.391 . S
C1680 C1682 1.394 . S
C1680 H1696 0.931 . S
C1681 C1680 1.391 . S
C1681 C1685 1.376 . S
C1682 C1680 1.394 . S
C1682 C1683 1.369 . S
C1682 C1686 1.531 . S
C1683 C1682 1.369 . S
C1683 C1684 1.410 . S
C1683 C1691 1.503 . S
C1684 C1683 1.410 . S
C1684 C1685 1.392 . S
C1684 C1687 1.511 . S
C1685 C1681 1.376 . S
C1685 C1684 1.392 . S
C1685 H1697 0.929 . S
C1686 C1682 1.531 . S
C1686 H1698 0.960 . S
C1686 H1699 0.962 . S
C1686 H1700 0.960 . S
C1687 C1684 1.511 . S
C1687 H1701 0.961 . S
C1687 H1702 0.961 . S
C1687 H1703 0.961 . S
C1688 C1689 1.370 . S
C1688 C1690 1.363 . S
C1688 H1704 0.931 . S
C1689 C1688 1.370 . S
C1689 C1693 1.408 . S
C1690 C1688 1.363 . S
C1690 C1691 1.370 . S
C1690 C1694 1.524 . S
C1691 C1683 1.503 . S
C1691 C1690 1.370 . S
C1691 C1692 1.403 . S
C1692 C1691 1.403 . S
C1692 C1693 1.404 . S
C1692 C1695 1.539 . S
C1693 C1689 1.408 . S
C1693 C1692 1.404 . S
C1693 H1705 0.930 . S
C1694 C1690 1.524 . S
C1694 H1706 0.956 . S
C1694 H1707 0.961 . S
C1694 H1708 0.961 . S
C1695 C1692 1.539 . S
C1695 H1709 0.958 . S
C1695 H1710 0.961 . S
C1695 H1711 0.960 . S
H1696 C1680 0.931 . S
H1697 C1685 0.929 . S
H1698 C1686 0.960 . S
H1699 C1686 0.962 . S
H1700 C1686 0.960 . S
H1701 C1687 0.961 . S
H1702 C1687 0.961 . S
H1703 C1687 0.961 . S
H1704 C1688 0.931 . S
H1705 C1693 0.930 . S
H1706 C1694 0.956 . S
H1707 C1694 0.961 . S
H1708 C1694 0.961 . S
H1709 C1695 0.958 . S
H1710 C1695 0.961 . S
H1711 C1695 0.960 . S
C1712 C1713 1.391 . S
C1712 C1714 1.394 . S
C1712 H1728 0.931 . S
C1713 C1712 1.391 . S
C1713 C1717 1.376 . S
C1714 C1712 1.394 . S
C1714 C1715 1.369 . S
C1714 C1718 1.531 . S
C1715 C1714 1.369 . S
C1715 C1716 1.410 . S
C1715 C1723 1.503 . S
C1716 C1715 1.410 . S
C1716 C1717 1.392 . S
C1716 C1719 1.511 . S
C1717 C1713 1.376 . S
C1717 C1716 1.392 . S
C1717 H1729 0.929 . S
C1718 C1714 1.531 . S
C1718 H1730 0.960 . S
C1718 H1731 0.962 . S
C1718 H1732 0.960 . S
C1719 C1716 1.511 . S
C1719 H1733 0.961 . S
C1719 H1734 0.961 . S
C1719 H1735 0.961 . S
C1720 C1721 1.370 . S
C1720 C1722 1.363 . S
C1720 H1736 0.931 . S
C1721 C1720 1.370 . S
C1721 C1725 1.408 . S
C1722 C1720 1.363 . S
C1722 C1723 1.370 . S
C1722 C1726 1.524 . S
C1723 C1715 1.503 . S
C1723 C1722 1.370 . S
C1723 C1724 1.403 . S
C1724 C1723 1.403 . S
C1724 C1725 1.404 . S
C1724 C1727 1.539 . S
C1725 C1721 1.408 . S
C1725 C1724 1.404 . S
C1725 H1737 0.930 . S
C1726 C1722 1.524 . S
C1726 H1738 0.956 . S
C1726 H1739 0.961 . S
C1726 H1740 0.961 . S
C1727 C1724 1.539 . S
C1727 H1741 0.958 . S
C1727 H1742 0.961 . S
C1727 H1743 0.960 . S
H1728 C1712 0.931 . S
H1729 C1717 0.929 . S
H1730 C1718 0.960 . S
H1731 C1718 0.962 . S
H1732 C1718 0.960 . S
H1733 C1719 0.961 . S
H1734 C1719 0.961 . S
H1735 C1719 0.961 . S
H1736 C1720 0.931 . S
H1737 C1725 0.930 . S
H1738 C1726 0.956 . S
H1739 C1726 0.961 . S
H1740 C1726 0.961 . S
H1741 C1727 0.958 . S
H1742 C1727 0.961 . S
H1743 C1727 0.960 . S
C1744 C1745 1.391 . S
C1744 C1746 1.394 . S
C1744 H1760 0.931 . S
C1745 C1744 1.391 . S
C1745 C1749 1.376 . S
C1746 C1744 1.394 . S
C1746 C1747 1.369 . S
C1746 C1750 1.531 . S
C1747 C1746 1.369 . S
C1747 C1748 1.410 . S
C1747 C1755 1.503 . S
C1748 C1747 1.410 . S
C1748 C1749 1.392 . S
C1748 C1751 1.511 . S
C1749 C1745 1.376 . S
C1749 C1748 1.392 . S
C1749 H1761 0.929 . S
C1750 C1746 1.531 . S
C1750 H1762 0.960 . S
C1750 H1763 0.962 . S
C1750 H1764 0.960 . S
C1751 C1748 1.511 . S
C1751 H1765 0.961 . S
C1751 H1766 0.961 . S
C1751 H1767 0.961 . S
C1752 C1753 1.370 . S
C1752 C1754 1.363 . S
C1752 H1768 0.931 . S
C1753 C1752 1.370 . S
C1753 C1757 1.408 . S
C1754 C1752 1.363 . S
C1754 C1755 1.370 . S
C1754 C1758 1.524 . S
C1755 C1747 1.503 . S
C1755 C1754 1.370 . S
C1755 C1756 1.403 . S
C1756 C1755 1.403 . S
C1756 C1757 1.404 . S
C1756 C1759 1.539 . S
C1757 C1753 1.408 . S
C1757 C1756 1.404 . S
C1757 H1769 0.930 . S
C1758 C1754 1.524 . S
C1758 H1770 0.956 . S
C1758 H1771 0.961 . S
C1758 H1772 0.961 . S
C1759 C1756 1.539 . S
C1759 H1773 0.958 . S
C1759 H1774 0.961 . S
C1759 H1775 0.960 . S
H1760 C1744 0.931 . S
H1761 C1749 0.929 . S
H1762 C1750 0.960 . S
H1763 C1750 0.962 . S
H1764 C1750 0.960 . S
H1765 C1751 0.961 . S
H1766 C1751 0.961 . S
H1767 C1751 0.961 . S
H1768 C1752 0.931 . S
H1769 C1757 0.930 . S
H1770 C1758 0.956 . S
H1771 C1758 0.961 . S
H1772 C1758 0.961 . S
H1773 C1759 0.958 . S
H1774 C1759 0.961 . S
H1775 C1759 0.960 . S
C1776 C1777 1.391 . S
C1776 C1778 1.394 . S
C1776 H1792 0.931 . S
C1777 C1776 1.391 . S
C1777 C1781 1.376 . S
C1778 C1776 1.394 . S
C1778 C1779 1.369 . S
C1778 C1782 1.531 . S
C1779 C1778 1.369 . S
C1779 C1780 1.410 . S
C1779 C1787 1.503 . S
C1780 C1779 1.410 . S
C1780 C1781 1.392 . S
C1780 C1783 1.511 . S
C1781 C1777 1.376 . S
C1781 C1780 1.392 . S
C1781 H1793 0.929 . S
C1782 C1778 1.531 . S
C1782 H1794 0.960 . S
C1782 H1795 0.962 . S
C1782 H1796 0.960 . S
C1783 C1780 1.511 . S
C1783 H1797 0.961 . S
C1783 H1798 0.961 . S
C1783 H1799 0.961 . S
C1784 C1785 1.370 . S
C1784 C1786 1.363 . S
C1784 H1800 0.931 . S
C1785 C1784 1.370 . S
C1785 C1789 1.408 . S
C1786 C1784 1.363 . S
C1786 C1787 1.370 . S
C1786 C1790 1.524 . S
C1787 C1779 1.503 . S
C1787 C1786 1.370 . S
C1787 C1788 1.403 . S
C1788 C1787 1.403 . S
C1788 C1789 1.404 . S
C1788 C1791 1.539 . S
C1789 C1785 1.408 . S
C1789 C1788 1.404 . S
C1789 H1801 0.930 . S
C1790 C1786 1.524 . S
C1790 H1802 0.956 . S
C1790 H1803 0.961 . S
C1790 H1804 0.961 . S
C1791 C1788 1.539 . S
C1791 H1805 0.958 . S
C1791 H1806 0.961 . S
C1791 H1807 0.960 . S
H1792 C1776 0.931 . S
H1793 C1781 0.929 . S
H1794 C1782 0.960 . S
H1795 C1782 0.962 . S
H1796 C1782 0.960 . S
H1797 C1783 0.961 . S
H1798 C1783 0.961 . S
H1799 C1783 0.961 . S
H1800 C1784 0.931 . S
H1801 C1789 0.930 . S
H1802 C1790 0.956 . S
H1803 C1790 0.961 . S
H1804 C1790 0.961 . S
H1805 C1791 0.958 . S
H1806 C1791 0.961 . S
H1807 C1791 0.960 . S
C529 C28 1.511 . S
C537 C160 1.526 . S
C561 C193 1.533 . S
C569 C61 1.519 . S
C593 C226 1.519 . S
C601 C94 1.511 . S
C625 C259 1.533 . S
C633 C127 1.520 . S
C657 C292 1.497 . S
C665 C424 1.519 . S
C689 C325 1.506 . S
C697 C457 1.510 . S
C721 C490 1.532 . S
C729 C358 1.519 . S
C753 C391 1.507 . S
C761 C523 1.524 . S
C785 N401 1.333 . S
C793 N14 1.300 . S
C817 N434 1.308 . S
C825 N47 1.295 . S
C849 N80 1.325 . S
C857 N467 1.318 . S
C881 N500 1.330 . S
C889 N113 1.292 . S
C913 N269 1.333 . S
C921 N146 1.296 . S
C945 N302 1.304 . S
C953 N179 1.304 . S
C977 N212 1.270 . S
C985 N335 1.324 . S
C1009 N245 1.278 1_565 S
C1017 N368 1.318 . S
C1041 N137 1.329 . S
C1049 N278 1.304 . S
C1073 N170 1.328 . S
C1081 N311 1.289 . S
C1105 N203 1.332 . S
C1113 N344 1.292 . S
C1137 N377 1.325 . S
C1145 N236 1.317 . S
C1169 N5 1.314 . S
C1177 N410 1.312 . S
C1201 N38 1.324 . S
C1209 N443 1.308 . S
C1233 N476 1.285 . S
C1241 N71 1.328 . S
C1265 N104 1.329 . S
C1273 N509 1.305 . S
C1297 C83 1.360 . S
C1305 C17 1.362 . S
C1329 C50 1.379 . S
C1337 C116 1.376 . S
C1361 C215 1.377 . S
C1369 C149 1.377 . S
C1393 C248 1.351 . S
C1401 C182 1.370 . S
C1425 C347 1.380 . S
C1433 C281 1.377 . S
C1457 C380 1.351 . S
C1465 C314 1.362 . S
C1489 C413 1.381 . S
C1497 C479 1.377 . S
C1521 C512 1.372 . S
C1529 C446 1.376 . S
C1553 C239 1.076 . S
C1561 C8 1.059 . S
C1585 C140 1.085 . S
C1593 C41 1.078 . S
C1617 C173 1.062 . S
C1625 C74 1.076 . S
C1649 C206 1.033 . S
C1657 C107 1.056 . S
C1681 C503 1.050 . S
C1689 C272 1.053 . S
C1713 C404 1.042 . S
C1721 C305 1.072 . S
C1745 C437 1.052 . S
C1753 C338 1.053 . S
C1777 C470 1.080 . S
C1785 C371 1.057 . S
