# Generated by pormake.
# Topology yfr, (5)-cn, num edge types: 1
# Building blocks:
#     Node 0, Type 0, BuildingBlock: BEQFEK_clean_sbu_0, # of connection points: 5
#     Node 1, Type 0, BuildingBlock: BEQFEK_clean_sbu_0, # of connection points: 5
#     Node 2, Type 0, BuildingBlock: BEQFEK_clean_sbu_0, # of connection points: 5
#     Node 3, Type 0, BuildingBlock: BEQFEK_clean_sbu_0, # of connection points: 5
#     Node 4, Type 0, BuildingBlock: BEQFEK_clean_sbu_0, # of connection points: 5
#     Node 5, Type 0, BuildingBlock: BEQFEK_clean_sbu_0, # of connection points: 5
#     Node 6, Type 0, BuildingBlock: BEQFEK_clean_sbu_0, # of connection points: 5
#     Node 7, Type 0, BuildingBlock: BEQFEK_clean_sbu_0, # of connection points: 5
#     Node 8, Type 0, BuildingBlock: BEQFEK_clean_sbu_0, # of connection points: 5
#     Node 9, Type 0, BuildingBlock: BEQFEK_clean_sbu_0, # of connection points: 5
#     Node 10, Type 0, BuildingBlock: BEQFEK_clean_sbu_0, # of connection points: 5
#     Node 11, Type 0, BuildingBlock: BEQFEK_clean_sbu_0, # of connection points: 5
#     Node 12, Type 0, BuildingBlock: BEQFEK_clean_sbu_0, # of connection points: 5
#     Node 13, Type 0, BuildingBlock: BEQFEK_clean_sbu_0, # of connection points: 5
#     Node 14, Type 0, BuildingBlock: BEQFEK_clean_sbu_0, # of connection points: 5
#     Node 15, Type 0, BuildingBlock: BEQFEK_clean_sbu_0, # of connection points: 5
#     Node 16, Type 0, BuildingBlock: BEQFEK_clean_sbu_0, # of connection points: 5
#     Node 17, Type 0, BuildingBlock: BEQFEK_clean_sbu_0, # of connection points: 5
#     Node 18, Type 0, BuildingBlock: BEQFEK_clean_sbu_0, # of connection points: 5
#     Node 19, Type 0, BuildingBlock: BEQFEK_clean_sbu_0, # of connection points: 5
#     Node 20, Type 0, BuildingBlock: BEQFEK_clean_sbu_0, # of connection points: 5
#     Node 21, Type 0, BuildingBlock: BEQFEK_clean_sbu_0, # of connection points: 5
#     Node 22, Type 0, BuildingBlock: BEQFEK_clean_sbu_0, # of connection points: 5
#     Node 23, Type 0, BuildingBlock: BEQFEK_clean_sbu_0, # of connection points: 5
#     Node 24, Type 0, BuildingBlock: BEQFEK_clean_sbu_0, # of connection points: 5
#     Node 25, Type 0, BuildingBlock: BEQFEK_clean_sbu_0, # of connection points: 5
#     Node 26, Type 0, BuildingBlock: BEQFEK_clean_sbu_0, # of connection points: 5
#     Node 27, Type 0, BuildingBlock: BEQFEK_clean_sbu_0, # of connection points: 5
#     Node 28, Type 0, BuildingBlock: BEQFEK_clean_sbu_0, # of connection points: 5
#     Node 29, Type 0, BuildingBlock: BEQFEK_clean_sbu_0, # of connection points: 5
#     Node 30, Type 0, BuildingBlock: BEQFEK_clean_sbu_0, # of connection points: 5
#     Node 31, Type 0, BuildingBlock: BEQFEK_clean_sbu_0, # of connection points: 5
#     Edge 32, Type (0, 0), BuildingBlock: KIFKEQ_clean_linker_1, # of connection points: 2
#     Edge 33, Type (0, 0), BuildingBlock: KIFKEQ_clean_linker_1, # of connection points: 2
#     Edge 34, Type (0, 0), BuildingBlock: KIFKEQ_clean_linker_1, # of connection points: 2
#     Edge 35, Type (0, 0), BuildingBlock: KIFKEQ_clean_linker_1, # of connection points: 2
#     Edge 36, Type (0, 0), BuildingBlock: KIFKEQ_clean_linker_1, # of connection points: 2
#     Edge 37, Type (0, 0), BuildingBlock: KIFKEQ_clean_linker_1, # of connection points: 2
#     Edge 38, Type (0, 0), BuildingBlock: KIFKEQ_clean_linker_1, # of connection points: 2
#     Edge 39, Type (0, 0), BuildingBlock: KIFKEQ_clean_linker_1, # of connection points: 2
#     Edge 40, Type (0, 0), BuildingBlock: KIFKEQ_clean_linker_1, # of connection points: 2
#     Edge 41, Type (0, 0), BuildingBlock: KIFKEQ_clean_linker_1, # of connection points: 2
#     Edge 42, Type (0, 0), BuildingBlock: KIFKEQ_clean_linker_1, # of connection points: 2
#     Edge 43, Type (0, 0), BuildingBlock: KIFKEQ_clean_linker_1, # of connection points: 2
#     Edge 44, Type (0, 0), BuildingBlock: KIFKEQ_clean_linker_1, # of connection points: 2
#     Edge 45, Type (0, 0), BuildingBlock: KIFKEQ_clean_linker_1, # of connection points: 2
#     Edge 46, Type (0, 0), BuildingBlock: KIFKEQ_clean_linker_1, # of connection points: 2
#     Edge 47, Type (0, 0), BuildingBlock: KIFKEQ_clean_linker_1, # of connection points: 2
#     Edge 48, Type (0, 0), BuildingBlock: KIFKEQ_clean_linker_1, # of connection points: 2
#     Edge 49, Type (0, 0), BuildingBlock: KIFKEQ_clean_linker_1, # of connection points: 2
#     Edge 50, Type (0, 0), BuildingBlock: KIFKEQ_clean_linker_1, # of connection points: 2
#     Edge 51, Type (0, 0), BuildingBlock: KIFKEQ_clean_linker_1, # of connection points: 2
#     Edge 52, Type (0, 0), BuildingBlock: KIFKEQ_clean_linker_1, # of connection points: 2
#     Edge 53, Type (0, 0), BuildingBlock: KIFKEQ_clean_linker_1, # of connection points: 2
#     Edge 54, Type (0, 0), BuildingBlock: KIFKEQ_clean_linker_1, # of connection points: 2
#     Edge 55, Type (0, 0), BuildingBlock: KIFKEQ_clean_linker_1, # of connection points: 2
#     Edge 56, Type (0, 0), BuildingBlock: KIFKEQ_clean_linker_1, # of connection points: 2
#     Edge 57, Type (0, 0), BuildingBlock: KIFKEQ_clean_linker_1, # of connection points: 2
#     Edge 58, Type (0, 0), BuildingBlock: KIFKEQ_clean_linker_1, # of connection points: 2
#     Edge 59, Type (0, 0), BuildingBlock: KIFKEQ_clean_linker_1, # of connection points: 2
#     Edge 60, Type (0, 0), BuildingBlock: KIFKEQ_clean_linker_1, # of connection points: 2
#     Edge 61, Type (0, 0), BuildingBlock: KIFKEQ_clean_linker_1, # of connection points: 2
#     Edge 62, Type (0, 0), BuildingBlock: KIFKEQ_clean_linker_1, # of connection points: 2
#     Edge 63, Type (0, 0), BuildingBlock: KIFKEQ_clean_linker_1, # of connection points: 2
#     Edge 64, Type (0, 0), BuildingBlock: KIFKEQ_clean_linker_1, # of connection points: 2
#     Edge 65, Type (0, 0), BuildingBlock: KIFKEQ_clean_linker_1, # of connection points: 2
#     Edge 66, Type (0, 0), BuildingBlock: KIFKEQ_clean_linker_1, # of connection points: 2
#     Edge 67, Type (0, 0), BuildingBlock: KIFKEQ_clean_linker_1, # of connection points: 2
#     Edge 68, Type (0, 0), BuildingBlock: KIFKEQ_clean_linker_1, # of connection points: 2
#     Edge 69, Type (0, 0), BuildingBlock: KIFKEQ_clean_linker_1, # of connection points: 2
#     Edge 70, Type (0, 0), BuildingBlock: KIFKEQ_clean_linker_1, # of connection points: 2
#     Edge 71, Type (0, 0), BuildingBlock: KIFKEQ_clean_linker_1, # of connection points: 2
#     Edge 72, Type (0, 0), BuildingBlock: KIFKEQ_clean_linker_1, # of connection points: 2
#     Edge 73, Type (0, 0), BuildingBlock: KIFKEQ_clean_linker_1, # of connection points: 2
#     Edge 74, Type (0, 0), BuildingBlock: KIFKEQ_clean_linker_1, # of connection points: 2
#     Edge 75, Type (0, 0), BuildingBlock: KIFKEQ_clean_linker_1, # of connection points: 2
#     Edge 76, Type (0, 0), BuildingBlock: KIFKEQ_clean_linker_1, # of connection points: 2
#     Edge 77, Type (0, 0), BuildingBlock: KIFKEQ_clean_linker_1, # of connection points: 2
#     Edge 78, Type (0, 0), BuildingBlock: KIFKEQ_clean_linker_1, # of connection points: 2
#     Edge 79, Type (0, 0), BuildingBlock: KIFKEQ_clean_linker_1, # of connection points: 2
#     Edge 80, Type (0, 0), BuildingBlock: KIFKEQ_clean_linker_1, # of connection points: 2
#     Edge 81, Type (0, 0), BuildingBlock: KIFKEQ_clean_linker_1, # of connection points: 2
#     Edge 82, Type (0, 0), BuildingBlock: KIFKEQ_clean_linker_1, # of connection points: 2
#     Edge 83, Type (0, 0), BuildingBlock: KIFKEQ_clean_linker_1, # of connection points: 2
#     Edge 84, Type (0, 0), BuildingBlock: KIFKEQ_clean_linker_1, # of connection points: 2
#     Edge 85, Type (0, 0), BuildingBlock: KIFKEQ_clean_linker_1, # of connection points: 2
#     Edge 86, Type (0, 0), BuildingBlock: KIFKEQ_clean_linker_1, # of connection points: 2
#     Edge 87, Type (0, 0), BuildingBlock: KIFKEQ_clean_linker_1, # of connection points: 2
#     Edge 88, Type (0, 0), BuildingBlock: KIFKEQ_clean_linker_1, # of connection points: 2
#     Edge 89, Type (0, 0), BuildingBlock: KIFKEQ_clean_linker_1, # of connection points: 2
#     Edge 90, Type (0, 0), BuildingBlock: KIFKEQ_clean_linker_1, # of connection points: 2
#     Edge 91, Type (0, 0), BuildingBlock: KIFKEQ_clean_linker_1, # of connection points: 2
#     Edge 92, Type (0, 0), BuildingBlock: KIFKEQ_clean_linker_1, # of connection points: 2
#     Edge 93, Type (0, 0), BuildingBlock: KIFKEQ_clean_linker_1, # of connection points: 2
#     Edge 94, Type (0, 0), BuildingBlock: KIFKEQ_clean_linker_1, # of connection points: 2
#     Edge 95, Type (0, 0), BuildingBlock: KIFKEQ_clean_linker_1, # of connection points: 2
#     Edge 96, Type (0, 0), BuildingBlock: KIFKEQ_clean_linker_1, # of connection points: 2
#     Edge 97, Type (0, 0), BuildingBlock: KIFKEQ_clean_linker_1, # of connection points: 2
#     Edge 98, Type (0, 0), BuildingBlock: KIFKEQ_clean_linker_1, # of connection points: 2
#     Edge 99, Type (0, 0), BuildingBlock: KIFKEQ_clean_linker_1, # of connection points: 2
#     Edge 100, Type (0, 0), BuildingBlock: KIFKEQ_clean_linker_1, # of connection points: 2
#     Edge 101, Type (0, 0), BuildingBlock: KIFKEQ_clean_linker_1, # of connection points: 2
#     Edge 102, Type (0, 0), BuildingBlock: KIFKEQ_clean_linker_1, # of connection points: 2
#     Edge 103, Type (0, 0), BuildingBlock: KIFKEQ_clean_linker_1, # of connection points: 2
#     Edge 104, Type (0, 0), BuildingBlock: KIFKEQ_clean_linker_1, # of connection points: 2
#     Edge 105, Type (0, 0), BuildingBlock: KIFKEQ_clean_linker_1, # of connection points: 2
#     Edge 106, Type (0, 0), BuildingBlock: KIFKEQ_clean_linker_1, # of connection points: 2
#     Edge 107, Type (0, 0), BuildingBlock: KIFKEQ_clean_linker_1, # of connection points: 2
#     Edge 108, Type (0, 0), BuildingBlock: KIFKEQ_clean_linker_1, # of connection points: 2
#     Edge 109, Type (0, 0), BuildingBlock: KIFKEQ_clean_linker_1, # of connection points: 2
#     Edge 110, Type (0, 0), BuildingBlock: KIFKEQ_clean_linker_1, # of connection points: 2
#     Edge 111, Type (0, 0), BuildingBlock: KIFKEQ_clean_linker_1, # of connection points: 2
# Relax obj value: 0.451
# Max RMSD: 0.214
# Mean RMSD: 0.203
data_MOF--net-yfr--node1-BEQFEK_clean_sbu_0--edge1-KIFKEQ_clean_linker_1
_symmetry_space_group_name_H-M    P1
_symmetry_Int_Tables_number       1
_symmetry_cell_setting            triclinic
loop_
_symmetry_equiv_pos_as_xyz
'x, y, z'
_cell_length_a     62.488007
_cell_length_b     62.4505
_cell_length_c     56.649645
_cell_angle_alpha  89.944
_cell_angle_beta   90.127974
_cell_angle_gamma 89.814495
loop_
_atom_site_label
_atom_site_type_symbol
_atom_site_fract_x
_atom_site_fract_y
_atom_site_fract_z
_atom_type_partial_charge
Co0 Co 0.03379 0.14452 0.31367 0.0
Co1 Co 0.07231 0.15183 0.28043 0.0
C2 C 0.03318 0.18241 0.28179 0.0
O3 O 0.02269 0.17021 0.29569 0.0
O4 O 0.05182 0.17685 0.27471 0.0
C5 C 0.99546 0.14412 0.34176 0.0
O6 O 0.98607 0.15306 0.32346 0.0
C7 C 0.08996 0.15678 0.23334 0.0
C8 C 0.12359 0.14651 0.23791 0.0
C9 C 0.10885 0.15329 0.22119 0.0
N10 N 0.09333 0.1523 0.25621 0.0
N11 N 0.11352 0.14639 0.25893 0.0
C12 C 0.06846 0.16208 0.22317 0.0
H13 H 0.0662 0.17971 0.22345 0.0
H14 H 0.05565 0.15469 0.23396 0.0
H15 H 0.06715 0.15647 0.20464 0.0
C16 C 0.03695 0.09954 0.2941 0.0
N17 N 0.04276 0.12043 0.29495 0.0
N18 N 0.05942 0.12337 0.28121 0.0
C19 C 0.06477 0.10431 0.27128 0.0
C20 C 0.05078 0.08834 0.27905 0.0
C21 C 0.01956 0.0903 0.30903 0.0
H22 H 0.02292 0.09387 0.32786 0.0
H23 H 1.00415 0.09816 0.30444 0.0
H24 H 0.01814 0.07273 0.30668 0.0
O25 O 0.05772 0.15616 0.3325 0.0
O26 O 0.08682 0.15944 0.3108 0.0
H27 H 0.09823 0.10483 0.26366 0.0
H28 H 0.08352 0.08496 0.24709 0.0
C29 C 0.08296 0.1014 0.25443 0.0
H30 H 0.08121 0.11287 0.23962 0.0
H31 H 0.12024 0.14163 0.27499 0.0
O32 O 0.01427 0.1367 0.33957 0.0
C33 C 0.07724 0.16148 0.33049 0.0
Co34 Co 0.11713 0.79051 0.57598 0.0
Co35 Co 0.10816 0.82526 0.53803 0.0
C36 C 0.08022 0.78523 0.54316 0.0
O37 O 0.0924 0.77716 0.55894 0.0
O38 O 0.08475 0.80322 0.5337 0.0
C39 C 0.12529 0.75112 0.60068 0.0
O40 O 0.12025 0.7418 0.58065 0.0
C41 C 0.1038 0.83747 0.48838 0.0
C42 C 0.1124 0.87172 0.48841 0.0
C43 C 0.107 0.8549 0.4736 0.0
N44 N 0.10713 0.84367 0.51084 0.0
N45 N 0.11201 0.86425 0.51076 0.0
C46 C 0.10024 0.8147 0.4812 0.0
H47 H 0.10797 0.80369 0.49406 0.0
H48 H 0.10667 0.8116 0.46328 0.0
H49 H 0.0828 0.81144 0.48108 0.0
C50 C 0.16137 0.79215 0.55571 0.0
N51 N 0.14058 0.7983 0.55632 0.0
N52 N 0.13721 0.81327 0.54041 0.0
C53 C 0.15601 0.81709 0.52912 0.0
C54 C 0.17213 0.8038 0.53836 0.0
C55 C 0.17096 0.77635 0.57258 0.0
H56 H 0.1658 0.78021 0.59081 0.0
H57 H 0.16499 0.7601 0.56826 0.0
H58 H 0.18869 0.77636 0.5719 0.0
O59 O 0.10497 0.81527 0.59322 0.0
O60 O 0.09847 0.8413 0.56755 0.0
H61 H 0.15403 0.84893 0.5154 0.0
H62 H 0.17479 0.83277 0.50196 0.0
C63 C 0.15833 0.83265 0.50919 0.0
H64 H 0.14714 0.82823 0.49482 0.0
H65 H 0.1159 0.87298 0.52586 0.0
O66 O 0.12611 0.77137 0.6016 0.0
C67 C 0.09779 0.8339 0.58862 0.0
Co68 Co 0.48889 0.866 0.81221 0.0
Co69 Co 0.44543 0.85909 0.7866 0.0
C70 C 0.48396 0.82853 0.78092 0.0
O71 O 0.49673 0.84085 0.79199 0.0
O72 O 0.46444 0.83397 0.77796 0.0
C73 C 0.5249 0.85801 0.83926 0.0
O74 O 0.52892 0.84385 0.82272 0.0
C75 C 0.4242 0.85453 0.74163 0.0
C76 C 0.3909 0.86466 0.74849 0.0
C77 C 0.40469 0.85816 0.73074 0.0
N78 N 0.42215 0.85859 0.76477 0.0
N79 N 0.40213 0.8644 0.76889 0.0
C80 C 0.44515 0.8499 0.72989 0.0
H81 H 0.45837 0.85779 0.73964 0.0
H82 H 0.44511 0.85546 0.71127 0.0
H83 H 0.44803 0.83235 0.73011 0.0
C84 C 0.48325 0.9108 0.79359 0.0
N85 N 0.47735 0.89005 0.79563 0.0
N86 N 0.45882 0.88728 0.78503 0.0
C87 C 0.45239 0.90633 0.77585 0.0
C88 C 0.46761 0.92206 0.78096 0.0
C89 C 0.50278 0.91988 0.80513 0.0
H90 H 0.50409 0.91375 0.82345 0.0
H91 H 0.51715 0.91441 0.79535 0.0
H92 H 0.50239 0.93763 0.80543 0.0
O93 O 0.46789 0.85452 0.83482 0.0
O94 O 0.43553 0.85152 0.81932 0.0
H95 H 0.41827 0.90567 0.77324 0.0
H96 H 0.43066 0.9258 0.75481 0.0
C97 C 0.43224 0.90933 0.7619 0.0
H98 H 0.4322 0.89806 0.74682 0.0
H99 H 0.39636 0.869 0.7854 0.0
O100 O 0.5121 0.87326 0.83452 0.0
C101 C 0.44831 0.84944 0.8368 0.0
Co102 Co 0.39789 0.21991 0.07567 0.0
Co103 Co 0.40626 0.1889 0.03353 0.0
C104 C 0.43613 0.22592 0.04368 0.0
O105 O 0.4246 0.23177 0.06107 0.0
O106 O 0.43054 0.21008 0.03089 0.0
C107 C 0.3939 0.25876 0.1016 0.0
O108 O 0.39984 0.26748 0.08155 0.0
C109 C 0.40688 0.1785 0.98269 0.0
C110 C 0.4035 0.14334 0.98293 0.0
C111 C 0.40478 0.16082 0.96784 0.0
N112 N 0.40641 0.17173 1.00529 0.0
N113 N 0.40453 0.15067 1.00526 0.0
C114 C 0.40989 0.20144 0.97572 0.0
H115 H 0.41725 0.21071 0.99019 0.0
H116 H 0.39411 0.20881 0.97179 0.0
H117 H 0.42009 0.2026 0.95976 0.0
C118 C 0.35415 0.22229 0.05384 0.0
N119 N 0.37474 0.21548 0.05414 0.0
N120 N 0.3779 0.20215 0.03651 0.0
C121 C 0.3592 0.20018 0.02439 0.0
C122 C 0.34345 0.21297 0.03483 0.0
C123 C 0.34497 0.23742 0.07161 0.0
H124 H 0.34567 0.22989 0.08935 0.0
H125 H 0.35487 0.25212 0.07223 0.0
H126 H 0.32819 0.24182 0.06735 0.0
O127 O 0.40661 0.19294 0.09111 0.0
O128 O 0.4146 0.17047 0.06207 0.0
H129 H 0.36374 0.16948 1.00821 0.0
H130 H 0.33844 0.18209 1.00126 0.0
C131 C 0.35574 0.18496 1.00438 0.0
H132 H 0.36271 0.19178 0.98807 0.0
H133 H 0.40356 0.14132 0.0205 0.0
O134 O 0.39023 0.23879 0.10228 0.0
C135 C 0.41371 0.17493 0.08411 0.0
Co136 Co 0.04106 0.87545 0.19412 0.0
Co137 Co 0.07543 0.86326 0.23124 0.0
C138 C 0.03488 0.83698 0.2254 0.0
O139 O 0.02799 0.84972 0.20948 0.0
O140 O 0.05252 0.84076 0.23596 0.0
C141 C 1.0006 0.88993 0.17525 0.0
O142 O 0.99323 0.88772 0.19682 0.0
C143 C 0.08855 0.85668 0.28016 0.0
C144 C 0.12326 0.86306 0.27969 0.0
C145 C 0.10641 0.85821 0.29465 0.0
N146 N 0.09452 0.86037 0.25772 0.0
N147 N 0.11536 0.86394 0.25751 0.0
C148 C 0.06575 0.85438 0.28778 0.0
H149 H 0.055 0.86315 0.27549 0.0
H150 H 0.06344 0.86051 0.30598 0.0
H151 H 0.06138 0.83718 0.28744 0.0
C152 C 0.04477 0.91876 0.217 0.0
N153 N 0.0499 0.89772 0.21514 0.0
N154 N 0.06476 0.89295 0.23077 0.0
C155 C 0.06948 0.91105 0.24311 0.0
C156 C 0.05686 0.92814 0.23492 0.0
C157 C 0.02966 0.93015 0.20071 0.0
H158 H 0.03205 0.92448 0.18237 0.0
H159 H 0.01299 0.92657 0.20604 0.0
H160 H 0.03204 0.94774 0.20125 0.0
O161 O 0.06497 0.86406 0.17476 0.0
O162 O 0.08997 0.85387 0.20032 0.0
H163 H 0.10122 0.90642 0.25632 0.0
H164 H 0.08688 0.9282 0.2703 0.0
C165 C 0.0854 0.91187 0.26283 0.0
H166 H 0.08031 0.90084 0.27707 0.0
H167 H 0.12404 0.86777 0.24237 0.0
O168 O 0.02022 0.88623 0.17113 0.0
C169 C 0.08292 0.85515 0.17908 0.0
Co170 Co 0.38727 0.77452 0.46374 0.0
Co171 Co 0.39612 0.81487 0.49395 0.0
C172 C 0.42752 0.77687 0.49227 0.0
O173 O 0.41479 0.76561 0.47983 0.0
O174 O 0.42193 0.79558 0.49885 0.0
C175 C 0.37736 0.73071 0.45246 0.0
O176 O 0.38278 0.7269 0.4745 0.0
C177 C 0.39691 0.83116 0.54151 0.0
C178 C 0.39727 0.86631 0.53742 0.0
C179 C 0.3963 0.85014 0.55423 0.0
N180 N 0.39763 0.83586 0.51838 0.0
N181 N 0.39801 0.8569 0.51599 0.0
C182 C 0.39711 0.80873 0.55095 0.0
H183 H 0.40435 0.79755 0.5381 0.0
H184 H 0.38044 0.80338 0.55404 0.0
H185 H 0.40606 0.80788 0.56787 0.0
C186 C 0.3435 0.7788 0.4856 0.0
N187 N 0.36445 0.78419 0.48378 0.0
N188 N 0.36783 0.80191 0.49567 0.0
C189 C 0.34895 0.80856 0.50508 0.0
C190 C 0.33276 0.79405 0.49925 0.0
C191 C 0.33346 0.76077 0.47223 0.0
H192 H 0.33794 0.7619 0.45334 0.0
H193 H 0.33971 0.74536 0.47918 0.0
H194 H 0.31577 0.76095 0.47374 0.0
O195 O 0.39538 0.79774 0.44086 0.0
O196 O 0.40136 0.82729 0.46187 0.0
H197 H 0.35517 0.84203 0.50987 0.0
H198 H 0.32925 0.83362 0.5205 0.0
C199 C 0.34627 0.82895 0.51867 0.0
H200 H 0.35287 0.82677 0.53667 0.0
H201 H 0.39836 0.86483 0.49977 0.0
O202 O 0.37773 0.74983 0.44475 0.0
C203 C 0.40085 0.81742 0.44211 0.0
Co204 Co 0.4792 0.1341 0.69728 0.0
Co205 Co 0.44078 0.14497 0.7299 0.0
C206 C 0.48 0.17334 0.72799 0.0
O207 O 0.48913 0.1609 0.71328 0.0
O208 O 0.46172 0.16865 0.73638 0.0
C209 C 0.52215 0.12083 0.68706 0.0
O210 O 0.52568 0.12486 0.70949 0.0
C211 C 0.42402 0.15215 0.7769 0.0
C212 C 0.38959 0.14494 0.77388 0.0
C213 C 0.40535 0.15074 0.78991 0.0
N214 N 0.4196 0.14758 0.75422 0.0
N215 N 0.39892 0.14346 0.75245 0.0
C216 C 0.44622 0.15509 0.78633 0.0
H217 H 0.45794 0.14637 0.77518 0.0
H218 H 0.44749 0.14927 0.80479 0.0
H219 H 0.45021 0.17238 0.78604 0.0
C220 C 0.47485 0.09105 0.72024 0.0
N221 N 0.46931 0.11191 0.71773 0.0
N222 N 0.453 0.11621 0.73157 0.0
C223 C 0.44784 0.09809 0.74356 0.0
C224 C 0.4616 0.08142 0.73689 0.0
C225 C 0.49116 0.07991 0.70529 0.0
H226 H 0.49021 0.08586 0.68688 0.0
H227 H 0.50736 0.0833 0.71236 0.0
H228 H 0.48872 0.06232 0.70522 0.0
O229 O 0.45658 0.14339 0.67471 0.0
O230 O 0.42883 0.15242 0.6972 0.0
H231 H 0.41487 0.10117 0.753 0.0
H232 H 0.42911 0.08073 0.76948 0.0
C233 C 0.43031 0.09687 0.76146 0.0
H234 H 0.43348 0.10857 0.77571 0.0
H235 H 0.39132 0.13897 0.73681 0.0
O236 O 0.50349 0.12359 0.67858 0.0
C237 C 0.43774 0.15104 0.67687 0.0
Co238 Co 0.12853 0.24295 0.95333 0.0
Co239 Co 0.12191 0.2026 0.98486 0.0
C240 C 0.09131 0.24132 0.98565 0.0
O241 O 0.10343 0.25273 0.97271 0.0
O242 O 0.09681 0.22227 0.99114 0.0
C243 C 0.1204 0.278 0.92383 0.0
O244 O 0.1083 0.28403 0.94154 0.0
C245 C 0.12263 0.18638 0.03274 0.0
C246 C 0.12087 0.15131 0.02831 0.0
C247 C 0.1224 0.16725 0.04529 0.0
N248 N 0.12163 0.1819 1.00959 0.0
N249 N 0.12056 0.16091 1.00699 0.0
C250 C 0.12284 0.20875 0.0423 0.0
H251 H 0.11739 0.22039 0.02883 0.0
H252 H 0.13943 0.21315 0.04726 0.0
H253 H 0.11255 0.20996 0.05819 0.0
C254 C 0.17371 0.23919 0.97255 0.0
N255 N 0.15288 0.23329 0.97123 0.0
N256 N 0.15003 0.21609 0.98429 0.0
C257 C 0.16903 0.21055 0.99423 0.0
C258 C 0.18478 0.22506 0.98737 0.0
C259 C 0.1829 0.25781 0.95951 0.0
H260 H 0.17037 0.27012 0.9563 0.0
H261 H 0.19647 0.26485 0.9695 0.0
H262 H 0.18897 0.2522 0.94219 0.0
O263 O 0.11704 0.21932 0.93415 0.0
O264 O 0.11415 0.18898 0.95402 0.0
H265 H 0.18981 0.18559 1.00767 0.0
H266 H 0.16817 0.19322 0.02676 0.0
C267 C 0.17272 0.19046 1.00812 0.0
H268 H 0.16284 0.17729 1.00091 0.0
H269 H 0.1196 0.15317 0.99072 0.0
O270 O 0.13457 0.26371 0.92752 0.0
C271 C 0.11199 0.19964 0.93494 0.0
Co272 Co 0.95621 0.84635 0.74504 0.0
Co273 Co 0.94852 0.89274 0.72953 0.0
C274 C 0.98812 0.86812 0.71387 0.0
O275 O 0.98241 0.85179 0.72575 0.0
O276 O 0.9768 0.88512 0.71426 0.0
C277 C 0.97558 0.81418 0.77252 0.0
O278 O 0.99158 0.82774 0.77367 0.0
C279 C 0.9598 0.9371 0.72451 0.0
C280 C 0.93151 0.95094 0.70661 0.0
C281 C 0.9522 0.9557 0.71386 0.0
N282 N 0.94455 0.92212 0.72308 0.0
N283 N 0.92763 0.93043 0.71243 0.0
C284 C 0.98083 0.93332 0.73652 0.0
H285 H 0.97965 0.91955 0.74886 0.0
H286 H 0.98592 0.94779 0.74637 0.0
H287 H 0.99312 0.9294 0.72309 0.0
C288 C 0.94458 0.86366 0.79191 0.0
N289 N 0.95011 0.86659 0.76911 0.0
N290 N 0.94633 0.88657 0.76305 0.0
C291 C 0.93834 0.89704 0.78214 0.0
C292 C 0.9373 0.88282 0.80122 0.0
C293 C 0.94244 0.84223 0.80358 0.0
H294 H 0.93492 0.8308 0.79121 0.0
H295 H 0.95851 0.83638 0.80886 0.0
H296 H 0.93237 0.84288 0.81965 0.0
O297 O 0.9312 0.84402 0.72425 0.0
O298 O 0.92579 0.87733 0.71179 0.0
H299 H 0.92381 0.92454 0.7989 0.0
H300 H 0.94353 0.93039 0.77636 0.0
C301 C 0.93028 0.91958 0.78151 0.0
H302 H 0.91763 0.92102 0.76781 0.0
H303 H 0.91373 0.92192 0.70849 0.0
O304 O 0.9594 0.81858 0.75991 0.0
C305 C 0.92078 0.8576 0.71204 0.0
Co306 Co 0.94945 0.2622 0.51405 0.0
Co307 Co 0.90425 0.24738 0.4996 0.0
C308 C 0.92077 0.28707 0.47941 0.0
O309 O 0.93806 0.28272 0.49019 0.0
O310 O 0.90432 0.27564 0.48289 0.0
C311 C 0.96108 0.297 0.53855 0.0
O312 O 0.94048 0.29534 0.54265 0.0
C313 C 0.85843 0.24618 0.4969 0.0
C314 C 0.85166 0.21279 0.48638 0.0
C315 C 0.84197 0.23214 0.49193 0.0
N316 N 0.87698 0.23559 0.49461 0.0
N317 N 0.87295 0.21569 0.48812 0.0
C318 C 0.85701 0.26963 0.50229 0.0
H319 H 0.86367 0.27875 0.48721 0.0
H320 H 0.86692 0.27332 0.51805 0.0
H321 H 0.84036 0.27519 0.50496 0.0
C322 C 0.93463 0.2482 0.56066 0.0
N323 N 0.9305 0.25296 0.53792 0.0
N324 N 0.91097 0.24702 0.53254 0.0
C325 C 0.90206 0.23795 0.55191 0.0
C326 C 0.91676 0.23866 0.57049 0.0
C327 C 0.95627 0.25018 0.57186 0.0
H328 H 0.96898 0.24881 0.5583 0.0
H329 H 0.95753 0.26611 0.58039 0.0
H330 H 0.95875 0.23772 0.58559 0.0
O331 O 0.95883 0.2369 0.49487 0.0
O332 O 0.92553 0.22942 0.48305 0.0
H333 H 0.88098 0.21353 0.53953 0.0
H334 H 0.87658 0.22126 0.56995 0.0
C335 C 0.88074 0.22717 0.55207 0.0
H336 H 0.86828 0.23862 0.546 0.0
H337 H 0.88469 0.2041 0.4851 0.0
O338 O 0.97076 0.28124 0.52888 0.0
C339 C 0.94568 0.22609 0.48225 0.0
Co340 Co 0.54078 0.16868 0.24327 0.0
Co341 Co 0.55475 0.12227 0.23592 0.0
C342 C 0.51342 0.13803 0.21516 0.0
O343 O 0.51715 0.156 0.2248 0.0
O344 O 0.52638 0.12239 0.21805 0.0
C345 C 0.5173 0.19616 0.27199 0.0
O346 O 0.50833 0.1782 0.27884 0.0
C347 C 0.55853 0.07643 0.24412 0.0
C348 C 0.59215 0.07045 0.23376 0.0
C349 C 0.57429 0.06082 0.24339 0.0
N350 N 0.56687 0.09463 0.2357 0.0
N351 N 0.58686 0.09093 0.22924 0.0
C352 C 0.53571 0.07406 0.25166 0.0
H353 H 0.52762 0.06246 0.23983 0.0
H354 H 0.52724 0.08969 0.25086 0.0
H355 H 0.5347 0.06759 0.26982 0.0
C356 C 0.55654 0.16033 0.29152 0.0
N357 N 0.55046 0.15333 0.27002 0.0
N358 N 0.55452 0.13276 0.26825 0.0
C359 C 0.56219 0.12582 0.28947 0.0
C360 C 0.56316 0.14314 0.30506 0.0
C361 C 0.56161 0.18317 0.29726 0.0
H362 H 0.56189 0.19324 0.28117 0.0
H363 H 0.54987 0.18933 0.31017 0.0
H364 H 0.57757 0.18418 0.30585 0.0
O365 O 0.56522 0.17359 0.22271 0.0
O366 O 0.57522 0.13985 0.21707 0.0
H367 H 0.58256 0.0992 0.2816 0.0
H368 H 0.57612 0.1019 0.31259 0.0
C369 C 0.56984 0.10356 0.29436 0.0
H370 H 0.55635 0.09232 0.29207 0.0
H371 H 0.59714 0.10256 0.22252 0.0
O372 O 0.53009 0.19585 0.25461 0.0
C373 C 0.57772 0.15983 0.21352 0.0
Co374 Co 0.56715 0.75639 0.02082 0.0
Co375 Co 0.60288 0.78186 0.99561 0.0
C376 C 0.59248 0.73751 0.98017 0.0
O377 O 0.57798 0.73718 0.99579 0.0
O378 O 0.60486 0.75358 0.97854 0.0
C379 C 0.56555 0.72237 0.05082 0.0
O380 O 0.58615 0.72459 0.04697 0.0
C381 C 0.64638 0.79434 0.9882 0.0
C382 C 0.64372 0.8268 0.9729 0.0
C383 C 0.65831 0.81187 0.98133 0.0
N384 N 0.62568 0.79887 0.98466 0.0
N385 N 0.62411 0.8181 0.97502 0.0
C386 C 0.65426 0.77376 0.99874 0.0
H387 H 0.64448 0.76021 0.99223 0.0
H388 H 0.6525 0.77432 0.01821 0.0
H389 H 0.67134 0.77093 0.99435 0.0
C390 C 0.58582 0.77671 0.06213 0.0
N391 N 0.58782 0.77061 0.03944 0.0
N392 N 0.60303 0.78176 0.02931 0.0
C393 C 0.61091 0.7958 0.04534 0.0
C394 C 0.60051 0.79275 0.06681 0.0
C395 C 0.56698 0.77097 0.07722 0.0
H396 H 0.55231 0.77004 0.06623 0.0
H397 H 0.56986 0.75508 0.08541 0.0
H398 H 0.56426 0.78276 0.09154 0.0
O399 O 0.54893 0.77823 1.00411 0.0
O400 O 0.57583 0.79545 0.98637 0.0
H401 H 0.61784 0.82348 0.02439 0.0
H402 H 0.62728 0.82524 0.05455 0.0
C403 C 0.62496 0.81438 0.03929 0.0
H404 H 0.64084 0.8084 0.03381 0.0
H405 H 0.60964 0.82566 0.97095 0.0
O406 O 0.55258 0.73588 0.0417 0.0
C407 C 0.55594 0.79313 0.99065 0.0
Co408 Co 0.95239 0.19254 0.80397 0.0
Co409 Co 0.9636 0.14534 0.79253 0.0
C410 C 0.99403 0.17627 0.81871 0.0
O411 O 0.98176 0.19257 0.81701 0.0
O412 O 0.98851 0.15817 0.81019 0.0
C413 C 0.91701 0.21985 0.8031 0.0
O414 O 0.90744 0.20124 0.80105 0.0
C415 C 0.98566 0.11191 0.76458 0.0
C416 C 0.97565 0.08319 0.78443 0.0
C417 C 0.9877 0.08984 0.76534 0.0
N418 N 0.97289 0.118 0.78247 0.0
N419 N 0.96725 0.10075 0.79442 0.0
C420 C 0.9972 0.12695 0.74851 0.0
H421 H 0.99267 0.1438 0.75221 0.0
H422 H 0.99378 0.12297 0.72983 0.0
H423 H 0.0147 0.12497 0.75116 0.0
C424 C 0.94696 0.1948 0.7524 0.0
N425 N 0.95202 0.18367 0.77199 0.0
N426 N 0.95387 0.16325 0.7668 0.0
C427 C 0.94857 0.16062 0.74375 0.0
C428 C 0.94404 0.18064 0.73378 0.0
C429 C 0.94674 0.21874 0.75118 0.0
H430 H 0.93016 0.22459 0.75333 0.0
H431 H 0.9568 0.22564 0.7654 0.0
H432 H 0.95266 0.22432 0.73377 0.0
O433 O 0.9347 0.17405 0.82391 0.0
O434 O 0.94031 0.13993 0.81551 0.0
H435 H 0.94489 0.12635 0.74546 0.0
H436 H 0.93053 0.13945 0.7216 0.0
C437 C 0.94553 0.13935 0.73214 0.0
H438 H 0.95892 0.13629 0.71979 0.0
H439 H 0.95746 0.10094 0.80931 0.0
O440 O 0.93729 0.22032 0.80578 0.0
C441 C 0.93057 0.15439 0.82694 0.0
Co442 Co 0.58045 0.19114 0.53881 0.0
Co443 Co 0.62957 0.19308 0.53858 0.0
C444 C 0.60191 0.2272 0.56338 0.0
O445 O 0.58443 0.21842 0.55682 0.0
O446 O 0.62 0.21923 0.55735 0.0
C447 C 0.54764 0.1639 0.52628 0.0
O448 O 0.56434 0.15159 0.52238 0.0
C449 C 0.67156 0.21039 0.52624 0.0
C450 C 0.69242 0.1835 0.53734 0.0
C451 C 0.6927 0.20405 0.52827 0.0
N452 N 0.65929 0.19425 0.53396 0.0
N453 N 0.67183 0.17817 0.54034 0.0
C454 C 0.66317 0.23175 0.5186 0.0
H455 H 0.64591 0.23334 0.52281 0.0
H456 H 0.66525 0.23346 0.49925 0.0
H457 H 0.67241 0.24472 0.52727 0.0
C458 C 0.58684 0.19024 0.48647 0.0
N459 N 0.59426 0.19171 0.50883 0.0
N460 N 0.61519 0.18973 0.50869 0.0
C461 C 0.62159 0.18545 0.48633 0.0
C462 C 0.60377 0.18562 0.4714 0.0
C463 C 0.56389 0.19288 0.47939 0.0
H464 H 0.55791 0.17768 0.47182 0.0
H465 H 0.55387 0.1981 0.49438 0.0
H466 H 0.5625 0.20523 0.46542 0.0
O467 O 0.59065 0.16717 0.55841 0.0
O468 O 0.62593 0.16783 0.55899 0.0
H469 H 0.65164 0.16968 0.49201 0.0
H470 H 0.64556 0.17512 0.46119 0.0
C471 C 0.64432 0.18128 0.4795 0.0
H472 H 0.65344 0.19643 0.48074 0.0
H473 H 0.66637 0.16369 0.54723 0.0
O474 O 0.55048 0.18282 0.53412 0.0
C475 C 0.60842 0.15934 0.56496 0.0
Co476 Co 0.50973 0.8208 0.25904 0.0
Co477 Co 0.5351 0.85739 0.28261 0.0
C478 C 0.49214 0.84665 0.30041 0.0
O479 O 0.49201 0.83157 0.28544 0.0
O480 O 0.50762 0.85983 0.30088 0.0
C481 C 0.47354 0.81908 0.2325 0.0
O482 O 0.47651 0.83974 0.23532 0.0
C483 C 0.54917 0.89999 0.29356 0.0
C484 C 0.58282 0.89515 0.30454 0.0
C485 C 0.56745 0.9108 0.30054 0.0
N486 N 0.55356 0.87902 0.29344 0.0
N487 N 0.57354 0.87609 0.30045 0.0
C488 C 0.5287 0.90922 0.28417 0.0
H489 H 0.51949 0.89688 0.27444 0.0
H490 H 0.53201 0.92297 0.27231 0.0
H491 H 0.51883 0.91502 0.29912 0.0
C492 C 0.52715 0.8402 0.21665 0.0
N493 N 0.52231 0.84195 0.23969 0.0
N494 N 0.53313 0.85782 0.24904 0.0
C495 C 0.5456 0.86654 0.23205 0.0
C496 C 0.542 0.85578 0.21085 0.0
C497 C 0.52137 0.82103 0.20204 0.0
H498 H 0.52098 0.80649 0.21327 0.0
H499 H 0.5052 0.82351 0.19436 0.0
H500 H 0.53282 0.81834 0.1874 0.0
O501 O 0.53281 0.80256 0.27347 0.0
O502 O 0.54901 0.83029 0.29058 0.0
H503 H 0.57472 0.87519 0.24946 0.0
H504 H 0.57165 0.88669 0.22029 0.0
C505 C 0.56314 0.88223 0.23675 0.0
H506 H 0.55629 0.8969 0.24473 0.0
H507 H 0.58108 0.86118 0.30148 0.0
O508 O 0.48787 0.80614 0.23999 0.0
C509 C 0.54778 0.81033 0.28626 0.0
Co510 Co 0.92007 0.80558 0.01546 0.0
Co511 Co 0.87426 0.81851 0.02789 0.0
C512 C 0.8928 0.77718 0.04687 0.0
O513 O 0.90992 0.78136 0.03567 0.0
O514 O 0.87665 0.78968 0.04496 0.0
C515 C 0.94438 0.78199 0.98413 0.0
O516 O 0.92576 0.77296 0.98011 0.0
C517 C 0.82802 0.81985 0.02359 0.0
C518 C 0.82052 0.85242 0.03656 0.0
C519 C 0.81146 0.83437 0.02656 0.0
N520 N 0.84615 0.82911 0.03094 0.0
N521 N 0.84159 0.84848 0.03892 0.0
C522 C 0.82674 0.79735 0.01457 0.0
H523 H 0.84005 0.78756 0.02183 0.0
H524 H 0.82815 0.79731 0.99508 0.0
H525 H 0.81116 0.79005 0.01936 0.0
C526 C 0.90777 0.82248 0.96876 0.0
N527 N 0.90234 0.81522 0.99041 0.0
N528 N 0.88232 0.82021 0.99476 0.0
C529 C 0.87421 0.83036 0.97537 0.0
C530 C 0.89005 0.83159 0.95801 0.0
C531 C 0.93035 0.82577 0.96055 0.0
H532 H 0.94141 0.82727 0.97573 0.0
H533 H 0.93515 0.81219 0.94913 0.0
H534 H 0.93173 0.84059 0.94983 0.0
O535 O 0.92591 0.83041 0.03567 0.0
O536 O 0.89251 0.83865 0.04598 0.0
H537 H 0.85113 0.85242 0.98908 0.0
H538 H 0.85012 0.84931 0.95733 0.0
C539 C 0.85269 0.84086 0.97433 0.0
H540 H 0.84009 0.8286 0.97632 0.0
H541 H 0.85294 0.85922 0.04535 0.0
O542 O 0.94615 0.79557 1.00068 0.0
C543 C 0.91259 0.84193 0.04701 0.0
Co544 Co 0.52137 0.63229 0.8137 0.0
Co545 Co 0.5633 0.64043 0.78541 0.0
C546 C 0.52606 0.67174 0.78327 0.0
O547 O 0.51467 0.65986 0.79653 0.0
O548 O 0.54476 0.66575 0.77725 0.0
C549 C 0.4763 0.62911 0.8224 0.0
O550 O 0.47484 0.64001 0.80262 0.0
C551 C 0.58481 0.64654 0.74096 0.0
C552 C 0.61815 0.63648 0.74778 0.0
C553 C 0.60443 0.64361 0.73017 0.0
N554 N 0.58674 0.64153 0.76391 0.0
N555 N 0.60678 0.63574 0.76801 0.0
C556 C 0.56386 0.65135 0.72916 0.0
H557 H 0.56094 0.66888 0.72969 0.0
H558 H 0.55063 0.64322 0.7386 0.0
H559 H 0.56396 0.64611 0.71044 0.0
C560 C 0.5261 0.5886 0.79206 0.0
N561 N 0.5319 0.60938 0.79437 0.0
N562 N 0.54972 0.61262 0.78263 0.0
C563 C 0.55577 0.59391 0.77241 0.0
C564 C 0.54107 0.57786 0.77804 0.0
C565 C 0.50775 0.57886 0.80512 0.0
H566 H 0.50865 0.58347 0.82401 0.0
H567 H 0.49253 0.58534 0.7979 0.0
H568 H 0.5077 0.56115 0.80374 0.0
O569 O 0.54297 0.64005 0.83854 0.0
O570 O 0.573 0.6464 0.81863 0.0
H571 H 0.58977 0.59433 0.76844 0.0
H572 H 0.57642 0.57531 0.7494 0.0
C573 C 0.57534 0.59142 0.75748 0.0
H574 H 0.57498 0.60344 0.74311 0.0
H575 H 0.6125 0.63057 0.78438 0.0
O576 O 0.49465 0.62349 0.83 0.0
C577 C 0.56256 0.64586 0.83801 0.0
Co578 Co 0.62935 0.2797 0.07152 0.0
Co579 Co 0.61794 0.31819 0.03901 0.0
C580 C 0.58952 0.27865 0.04198 0.0
O581 O 0.60259 0.26936 0.05594 0.0
O582 O 0.59375 0.29717 0.03376 0.0
C583 C 0.63882 0.23672 0.08465 0.0
O584 O 0.63155 0.23241 0.0634 0.0
C585 C 0.61086 0.33398 0.99156 0.0
C586 C 0.61742 0.36861 0.99381 0.0
C587 C 0.61212 0.35245 0.97809 0.0
N588 N 0.61507 0.3389 0.01419 0.0
N589 N 0.6188 0.3597 0.0155 0.0
C590 C 0.6081 0.31157 0.98274 0.0
H591 H 0.61676 0.30013 0.99436 0.0
H592 H 0.61402 0.30997 0.96437 0.0
H593 H 0.59083 0.30749 0.98298 0.0
C594 C 0.67207 0.28452 0.04878 0.0
N595 N 0.65111 0.28963 0.05089 0.0
N596 N 0.64661 0.30587 0.03697 0.0
C597 C 0.66472 0.31138 0.02523 0.0
C598 C 0.68155 0.29804 0.03233 0.0
C599 C 0.68289 0.26726 0.06276 0.0
H600 H 0.68058 0.27033 0.08188 0.0
H601 H 0.67536 0.25167 0.05856 0.0
H602 H 0.70025 0.26625 0.05883 0.0
O603 O 0.61986 0.30253 0.0934 0.0
O604 O 0.61183 0.33101 0.07153 0.0
H605 H 0.66023 0.34466 0.01779 0.0
H606 H 0.68313 0.33286 1.00321 0.0
C607 C 0.66637 0.3301 1.00886 0.0
H608 H 0.65633 0.32714 0.99304 0.0
H609 H 0.62297 0.36767 0.03102 0.0
O610 O 0.64014 0.2561 0.09123 0.0
C611 C 0.6129 0.32169 0.09169 0.0
Co612 Co 0.98963 0.38077 0.30373 0.0
Co613 Co 0.94767 0.37067 0.27684 0.0
C614 C 0.98595 0.33937 0.27758 0.0
O615 O 0.99786 0.35268 0.28843 0.0
O616 O 0.96683 0.34463 0.27219 0.0
C617 C 0.03362 0.39178 0.30973 0.0
O618 O 0.03489 0.38635 0.28737 0.0
C619 C 0.93097 0.36888 0.22959 0.0
C620 C 0.89593 0.36694 0.23345 0.0
C621 C 0.91204 0.36848 0.21667 0.0
N622 N 0.92628 0.36817 0.25271 0.0
N623 N 0.90527 0.36686 0.25499 0.0
C624 C 0.95342 0.36967 0.22033 0.0
H625 H 0.96491 0.36335 0.2335 0.0
H626 H 0.95787 0.38653 0.21676 0.0
H627 H 0.95482 0.36037 0.20372 0.0
C628 C 0.98342 0.424 0.28084 0.0
N629 N 0.9786 0.40295 0.28355 0.0
N630 N 0.96022 0.39905 0.27316 0.0
C631 C 0.9526 0.41766 0.26385 0.0
C632 C 0.96712 0.43424 0.26815 0.0
C633 C 1.00192 0.43468 0.29275 0.0
H634 H 1.00228 0.43014 0.31167 0.0
H635 H 0.01702 0.42908 0.28453 0.0
H636 H 1.00097 0.45237 0.29129 0.0
O637 O 0.96776 0.37357 0.32847 0.0
O638 O 0.93687 0.36677 0.31013 0.0
H639 H 0.91913 0.41035 0.26164 0.0
H640 H 0.92596 0.43663 0.25056 0.0
C641 C 0.93128 0.41975 0.25191 0.0
H642 H 0.93247 0.41333 0.23374 0.0
H643 H 0.89734 0.36627 0.27113 0.0
O644 O 0.01558 0.39101 0.32005 0.0
C645 C 0.94803 0.36815 0.32909 0.0
Co646 Co 0.89332 0.71603 0.57757 0.0
Co647 Co 0.90362 0.68235 0.53856 0.0
C648 C 0.9307 0.72226 0.54486 0.0
O649 O 0.9185 0.72952 0.56099 0.0
O650 O 0.92634 0.70461 0.53474 0.0
C651 C 0.87903 0.75673 0.59371 0.0
O652 O 0.87967 0.76152 0.57113 0.0
C653 C 0.91106 0.67039 0.48887 0.0
C654 C 0.89712 0.63806 0.4866 0.0
C655 C 0.90566 0.65434 0.47289 0.0
N656 N 0.9053 0.6642 0.51078 0.0
N657 N 0.89733 0.64466 0.5093 0.0
C658 C 0.92197 0.69118 0.48362 0.0
H659 H 0.93647 0.69249 0.49478 0.0
H660 H 0.9111 0.70468 0.48801 0.0
H661 H 0.92722 0.69237 0.46502 0.0
C662 C 0.84884 0.71223 0.5573 0.0
N663 N 0.87004 0.70746 0.55749 0.0
N664 N 0.8743 0.69415 0.54017 0.0
C665 C 0.85593 0.6909 0.5277 0.0
C666 C 0.83886 0.70214 0.53817 0.0
C667 C 0.83795 0.7245 0.57655 0.0
H668 H 0.84639 0.72199 0.59356 0.0
H669 H 0.83821 0.74182 0.5722 0.0
H670 H 0.82107 0.71939 0.57857 0.0
O671 O 0.90519 0.69149 0.59599 0.0
O672 O 0.91343 0.66681 0.56913 0.0
H673 H 0.85509 0.66111 0.50922 0.0
H674 H 0.84049 0.68246 0.49473 0.0
C675 C 0.85499 0.67848 0.50516 0.0
H676 H 0.86915 0.68224 0.49425 0.0
H677 H 0.89104 0.63623 0.52359 0.0
O678 O 0.88362 0.7378 0.60029 0.0
C679 C 0.91328 0.67335 0.59066 0.0
Co680 Co 0.53561 0.36393 0.69737 0.0
Co681 Co 0.57022 0.35394 0.73545 0.0
C682 C 0.52936 0.32713 0.72957 0.0
O683 O 0.52162 0.33945 0.71373 0.0
O684 O 0.54732 0.33132 0.73928 0.0
C685 C 0.49798 0.37066 0.66899 0.0
O686 O 0.48742 0.36298 0.68713 0.0
C687 C 0.58195 0.35294 0.78578 0.0
C688 C 0.61724 0.35287 0.78474 0.0
C689 C 0.60005 0.35343 0.80024 0.0
N690 N 0.58825 0.35252 0.76304 0.0
N691 N 0.60938 0.35237 0.76258 0.0
C692 C 0.55897 0.35244 0.79323 0.0
H693 H 0.54863 0.34632 0.77894 0.0
H694 H 0.55349 0.36891 0.79737 0.0
H695 H 0.557 0.34227 0.80915 0.0
C696 C 0.53787 0.40766 0.71833 0.0
N697 N 0.54388 0.38686 0.71735 0.0
N698 N 0.55926 0.3833 0.73273 0.0
C699 C 0.56377 0.40209 0.74375 0.0
C700 C 0.55022 0.41826 0.73517 0.0
C701 C 0.52142 0.41731 0.70226 0.0
H702 H 0.52614 0.41443 0.68366 0.0
H703 H 0.50584 0.40925 0.70515 0.0
H704 H 0.51959 0.43479 0.70509 0.0
O705 O 0.56 0.35073 0.68081 0.0
O706 O 0.58605 0.34336 0.70612 0.0
H707 H 0.59516 0.39563 0.75739 0.0
H708 H 0.58445 0.42145 0.76588 0.0
C709 C 0.58047 0.40445 0.76254 0.0
H710 H 0.57441 0.39749 0.77921 0.0
H711 H 0.61844 0.35226 0.74713 0.0
O712 O 0.51792 0.37387 0.6709 0.0
C713 C 0.57833 0.34277 0.68518 0.0
Co714 Co 0.89578 0.2792 0.95486 0.0
Co715 Co 0.90307 0.32176 0.98209 0.0
C716 C 0.93479 0.2844 0.98484 0.0
O717 O 0.92273 0.27222 0.97267 0.0
O718 O 0.92886 0.30344 0.98967 0.0
C719 C 0.8874 0.23446 0.9483 0.0
O720 O 0.89322 0.23293 0.97054 0.0
C721 C 0.90752 0.3416 0.02774 0.0
C722 C 0.89793 0.37527 0.02216 0.0
C723 C 0.904 0.36072 0.03945 0.0
N724 N 0.90378 0.34458 1.00461 0.0
N725 N 0.89829 0.36483 1.00128 0.0
C726 C 0.91185 0.32017 0.03865 0.0
H727 H 0.90432 0.30734 0.02798 0.0
H728 H 0.90573 0.31945 0.05701 0.0
H729 H 0.92939 0.31735 0.03903 0.0
C730 C 0.85188 0.28363 0.97567 0.0
N731 N 0.87256 0.28972 0.97345 0.0
N732 N 0.87553 0.30762 0.98517 0.0
C733 C 0.85677 0.31323 0.99558 0.0
C734 C 0.84107 0.29822 0.98994 0.0
C735 C 0.84246 0.26449 0.96371 0.0
H736 H 0.84972 0.24979 0.97128 0.0
H737 H 0.82486 0.26372 0.96606 0.0
H738 H 0.8463 0.26495 0.94461 0.0
O739 O 0.90412 0.30063 0.93033 0.0
O740 O 0.90846 0.33187 0.94857 0.0
H741 H 0.83625 0.33584 0.01376 0.0
H742 H 0.86297 0.33303 0.02552 0.0
C743 C 0.85333 0.33352 1.00907 0.0
H744 H 0.85875 0.34729 0.99831 0.0
H745 H 0.89394 0.37129 0.98496 0.0
O746 O 0.88705 0.25276 0.93842 0.0
C747 C 0.90895 0.32049 0.92976 0.0
Co748 Co 0.96675 0.64951 0.18922 0.0
Co749 Co 0.93426 0.65971 0.22896 0.0
C750 C 0.97435 0.68635 0.22264 0.0
O751 O 0.9803 0.67454 0.2055 0.0
O752 O 0.95736 0.68194 0.23408 0.0
C753 C 0.0062 0.63588 0.16737 0.0
O754 O 0.0144 0.63597 0.18875 0.0
C755 C 0.92301 0.66296 0.27901 0.0
C756 C 0.88837 0.65625 0.27935 0.0
C757 C 0.90572 0.66009 0.29406 0.0
N758 N 0.91623 0.66089 0.25653 0.0
N759 N 0.89543 0.65714 0.25686 0.0
C760 C 0.94608 0.66488 0.28584 0.0
H761 H 0.95641 0.65744 0.27219 0.0
H762 H 0.9492 0.65714 0.30315 0.0
H763 H 0.95027 0.68209 0.28719 0.0
C764 C 0.96439 0.60512 0.20971 0.0
N765 N 0.959 0.62616 0.2093 0.0
N766 N 0.94513 0.6301 0.22617 0.0
C767 C 0.94145 0.61146 0.238 0.0
C768 C 0.95365 0.59486 0.22806 0.0
C769 C 0.97837 0.59455 0.19171 0.0
H770 H 0.97537 0.60161 0.17406 0.0
H771 H 0.99538 0.59716 0.19651 0.0
H772 H 0.9754 0.57706 0.19088 0.0
O773 O 0.94204 0.66158 0.17179 0.0
O774 O 0.91844 0.67092 0.19915 0.0
H775 H 0.91087 0.61534 0.25432 0.0
H776 H 0.92631 0.59309 0.26587 0.0
C777 C 0.92716 0.6097 0.25905 0.0
H778 H 0.9334 0.62008 0.27331 0.0
H779 H 0.88621 0.65432 0.24181 0.0
O780 O 0.98655 0.64032 0.16446 0.0
C781 C 0.92444 0.67048 0.17748 0.0
Co782 Co 0.62184 0.72761 0.45913 0.0
Co783 Co 0.61291 0.68925 0.49255 0.0
C784 C 0.58402 0.72943 0.49085 0.0
O785 O 0.5966 0.73968 0.47719 0.0
O786 O 0.58896 0.7106 0.49779 0.0
C787 C 0.6195 0.76338 0.4282 0.0
O788 O 0.60667 0.77154 0.4442 0.0
C789 C 0.60814 0.67308 0.54056 0.0
C790 C 0.61756 0.63909 0.53732 0.0
C791 C 0.61222 0.6547 0.55368 0.0
N792 N 0.61161 0.66871 0.51765 0.0
N793 N 0.61688 0.64827 0.51577 0.0
C794 C 0.601 0.69456 0.54935 0.0
H795 H 0.58617 0.69935 0.53997 0.0
H796 H 0.61346 0.70665 0.54534 0.0
H797 H 0.59744 0.69449 0.56849 0.0
C798 C 0.66691 0.72215 0.4781 0.0
N799 N 0.64574 0.71736 0.47748 0.0
N800 N 0.64201 0.70135 0.49196 0.0
C801 C 0.66073 0.6959 0.50277 0.0
C802 C 0.67747 0.70872 0.49425 0.0
C803 C 0.67707 0.73821 0.46205 0.0
H804 H 0.66851 0.73876 0.44493 0.0
H805 H 0.67601 0.75429 0.47028 0.0
H806 H 0.69414 0.73428 0.45883 0.0
O807 O 0.60921 0.70444 0.44034 0.0
O808 O 0.60397 0.67533 0.46171 0.0
H809 H 0.65974 0.66336 0.51453 0.0
H810 H 0.67792 0.68007 0.53129 0.0
C811 C 0.6623 0.67955 0.52204 0.0
H812 H 0.64972 0.68268 0.53529 0.0
H813 H 0.62088 0.6408 0.4999 0.0
O814 O 0.63026 0.74672 0.43315 0.0
C815 C 0.60265 0.6853 0.44205 0.0
Co816 Co 0.49518 0.34155 0.26825 0.0
Co817 Co 0.47584 0.38051 0.24312 0.0
C818 C 0.51983 0.36228 0.23028 0.0
O819 O 0.51985 0.34903 0.24733 0.0
O820 O 0.50393 0.37471 0.2272 0.0
C821 C 0.52192 0.32253 0.30365 0.0
O822 O 0.53384 0.33968 0.30131 0.0
C823 C 0.48005 0.42505 0.23618 0.0
C824 C 0.45548 0.43329 0.20957 0.0
C825 C 0.47247 0.4417 0.22233 0.0
N826 N 0.46815 0.40773 0.23187 0.0
N827 N 0.45343 0.4126 0.21597 0.0
C828 C 0.49951 0.42468 0.25171 0.0
H829 H 0.5122 0.43521 0.24451 0.0
H830 H 0.50577 0.40815 0.25365 0.0
H831 H 0.49506 0.43039 0.26958 0.0
C832 C 0.47586 0.3625 0.30966 0.0
N833 N 0.48358 0.36384 0.28744 0.0
N834 N 0.47446 0.38013 0.27673 0.0
C835 C 0.46019 0.38928 0.29165 0.0
C836 C 0.46084 0.37856 0.31326 0.0
C837 C 0.47823 0.34312 0.325 0.0
H838 H 0.47415 0.32873 0.31454 0.0
H839 H 0.4949 0.34221 0.33152 0.0
H840 H 0.4677 0.34338 0.34069 0.0
O841 O 0.47133 0.32961 0.24772 0.0
O842 O 0.45636 0.3587 0.23172 0.0
H843 H 0.43489 0.39861 0.2683 0.0
H844 H 0.43198 0.40855 0.29825 0.0
C845 C 0.44353 0.40503 0.2839 0.0
H846 H 0.45145 0.4201 0.2784 0.0
H847 H 0.44256 0.40168 0.20891 0.0
O848 O 0.50579 0.31969 0.29025 0.0
C849 C 0.45703 0.33849 0.23467 0.0
Co850 Co 0.44291 0.69982 0.98695 0.0
Co851 Co 0.39453 0.70969 0.98792 0.0
C852 C 0.4279 0.73926 0.96456 0.0
O853 O 0.44422 0.72803 0.97038 0.0
O854 O 0.40908 0.73349 0.97048 0.0
C855 C 0.46846 0.66534 0.99831 0.0
O856 O 0.44925 0.65733 1.00139 0.0
C857 C 0.35848 0.73381 1.00751 0.0
C858 C 0.33147 0.71957 0.98795 0.0
C859 C 0.33648 0.73449 1.00514 0.0
N860 N 0.36613 0.71903 0.9925 0.0
N861 N 0.34994 0.71087 0.98054 0.0
C862 C 0.37201 0.74785 0.02282 0.0
H863 H 0.38917 0.74344 0.02139 0.0
H864 H 0.36672 0.74685 0.04144 0.0
H865 H 0.36988 0.76475 0.01717 0.0
C866 C 0.43715 0.69908 0.03883 0.0
N867 N 0.42937 0.70177 0.0168 0.0
N868 N 0.4084 0.70332 0.01762 0.0
C869 C 0.40215 0.70061 0.04035 0.0
C870 C 0.42023 0.698 0.05453 0.0
C871 C 0.46043 0.69853 0.04506 0.0
H872 H 0.47021 0.70561 0.03075 0.0
H873 H 0.46327 0.70743 0.06172 0.0
H874 H 0.46545 0.68174 0.04809 0.0
O875 O 0.42824 0.67969 0.9661 0.0
O876 O 0.39324 0.68436 0.96657 0.0
H877 H 0.36857 0.69607 0.03301 0.0
H878 H 0.3781 0.68431 0.06031 0.0
C879 C 0.37947 0.69827 0.04827 0.0
H880 H 0.37469 0.71264 0.05846 0.0
H881 H 0.35145 0.69896 0.96773 0.0
O882 O 0.47033 0.68476 0.99156 0.0
C883 C 0.40967 0.6743 0.95942 0.0
Co884 Co 0.03397 0.66228 0.7661 0.0
Co885 Co 0.05773 0.62438 0.74399 0.0
C886 C 0.01326 0.6371 0.7268 0.0
O887 O 0.01298 0.65173 0.74237 0.0
O888 O 0.02918 0.62425 0.72579 0.0
C889 C 1.00022 0.67626 0.79474 0.0
O890 O 0.99213 0.65744 0.78965 0.0
C891 C 0.06847 0.57963 0.74266 0.0
C892 C 0.09801 0.5786 0.72127 0.0
C893 C 0.08418 0.56597 0.73429 0.0
N894 N 0.07302 0.59949 0.73541 0.0
N895 N 0.09061 0.59886 0.7225 0.0
C896 C 0.04898 0.57406 0.75667 0.0
H897 H 0.03638 0.58642 0.75416 0.0
H898 H 0.05313 0.5735 0.7757 0.0
H899 H 0.04282 0.5581 0.75141 0.0
C900 C 0.053 0.64571 0.80973 0.0
N901 N 0.04671 0.64229 0.78718 0.0
N902 N 0.05831 0.62688 0.778 0.0
C903 C 0.07306 0.62063 0.79433 0.0
C904 C 0.06991 0.63212 0.81522 0.0
C905 C 0.04626 0.66471 0.82406 0.0
H906 H 0.02907 0.66314 0.8284 0.0
H907 H 0.05532 0.6661 0.84082 0.0
H908 H 0.0487 0.67957 0.81371 0.0
O909 O 0.05727 0.67712 0.74812 0.0
O910 O 0.07365 0.6489 0.7322 0.0
H911 H 0.10438 0.60776 0.80297 0.0
H912 H 0.08704 0.59011 0.78688 0.0
C913 C 0.09214 0.60699 0.78878 0.0
H914 H 0.09931 0.6122 0.77183 0.0
H915 H 0.09772 0.61227 0.71485 0.0
O916 O 0.01777 0.68218 0.78552 0.0
C917 C 0.07199 0.66903 0.7352 0.0
Co918 Co 0.0837 0.3204 0.45008 0.0
Co919 Co 0.13128 0.3182 0.46516 0.0
C920 C 0.10785 0.28131 0.43998 0.0
O921 O 0.08971 0.2908 0.44005 0.0
O922 O 0.12474 0.29006 0.44843 0.0
C923 C 0.05221 0.35132 0.44806 0.0
O924 O 0.06957 0.36305 0.44925 0.0
C925 C 0.16735 0.30279 0.49373 0.0
C926 C 0.18739 0.33194 0.49402 0.0
C927 C 0.18576 0.31152 0.50335 0.0
N928 N 0.15832 0.31765 0.47972 0.0
N929 N 0.17047 0.33491 0.47978 0.0
C930 C 0.15742 0.28164 0.49929 0.0
H931 H 0.13979 0.28253 0.49696 0.0
H932 H 0.16142 0.2766 0.51758 0.0
H933 H 0.16376 0.26943 0.4869 0.0
C934 C 0.07771 0.32551 0.50151 0.0
N935 N 0.09038 0.3236 0.48241 0.0
N936 N 0.11049 0.32453 0.48899 0.0
C937 C 0.11121 0.32813 0.51256 0.0
C938 C 0.09038 0.32885 0.52133 0.0
C939 C 0.05411 0.32165 0.5012 0.0
H940 H 0.04575 0.33716 0.4993 0.0
H941 H 0.04965 0.31123 0.48614 0.0
H942 H 0.04882 0.31413 0.51795 0.0
O943 O 0.09997 0.33942 0.42933 0.0
O944 O 0.13359 0.34124 0.44118 0.0
H945 H 0.14279 0.34116 0.51563 0.0
H946 H 0.12804 0.34067 0.54289 0.0
C947 C 0.13132 0.33182 0.52632 0.0
H948 H 0.13867 0.31616 0.53087 0.0
H949 H 0.16679 0.34904 0.47077 0.0
O950 O 0.05411 0.33103 0.44616 0.0
C951 C 0.11863 0.34701 0.42747 0.0
Co952 Co 0.44797 0.68836 0.30073 0.0
Co953 Co 0.45526 0.64003 0.29242 0.0
C954 C 0.48748 0.66766 0.31942 0.0
O955 O 0.47672 0.68488 0.3161 0.0
O956 O 0.48103 0.64975 0.3111 0.0
C957 C 0.41609 0.71865 0.29597 0.0
O958 O 0.40548 0.70086 0.29211 0.0
C959 C 0.47504 0.60374 0.26839 0.0
C960 C 0.44842 0.5805 0.26999 0.0
C961 C 0.4684 0.58399 0.26028 0.0
N962 N 0.45929 0.61186 0.2818 0.0
N963 N 0.44365 0.59773 0.2831 0.0
C964 C 0.49473 0.61571 0.26143 0.0
H965 H 0.49248 0.63316 0.26428 0.0
H966 H 0.49877 0.61248 0.24269 0.0
H967 H 0.50831 0.61013 0.27251 0.0
C968 C 0.44486 0.68863 0.24807 0.0
N969 N 0.44787 0.67856 0.26896 0.0
N970 N 0.44934 0.65783 0.26533 0.0
C971 C 0.4466 0.65406 0.24194 0.0
C972 C 0.44376 0.67346 0.23024 0.0
C973 C 0.44414 0.7124 0.24486 0.0
H974 H 0.42723 0.71768 0.24393 0.0
H975 H 0.45227 0.72063 0.25968 0.0
H976 H 0.45188 0.71697 0.22797 0.0
O977 O 0.42713 0.67304 0.32019 0.0
O978 O 0.43073 0.63826 0.31453 0.0
H979 H 0.43657 0.62124 0.24312 0.0
H980 H 0.43595 0.63302 0.21407 0.0
C981 C 0.4449 0.63234 0.231 0.0
H982 H 0.46117 0.6261 0.22732 0.0
H983 H 0.42919 0.60036 0.29181 0.0
O984 O 0.436 0.71758 0.30094 0.0
C985 C 0.42135 0.65398 0.32415 0.0
Co986 Co 0.09502 0.72481 1.00968 0.0
Co987 Co 0.13811 0.71097 0.03027 0.0
C988 C 0.11733 0.75288 0.04509 0.0
O989 O 0.10182 0.74953 0.031 0.0
O990 O 0.13287 0.73966 0.04589 0.0
C991 C 0.07423 0.74853 0.97474 0.0
O992 O 0.09276 0.75836 0.97359 0.0
C993 C 0.18238 0.71714 0.03946 0.0
C994 C 0.19162 0.68897 0.06085 0.0
C995 C 0.19898 0.70863 0.05282 0.0
N996 N 0.16592 0.7035 0.04011 0.0
N997 N 0.17144 0.68664 0.05285 0.0
C998 C 0.18182 0.73762 0.02571 0.0
H999 H 0.16939 0.73684 0.01172 0.0
H1000 H 0.19763 0.74086 0.01759 0.0
H1001 H 0.17767 0.75103 0.03771 0.0
C1002 C 0.11352 0.70705 0.96611 0.0
N1003 N 0.11615 0.71496 0.98814 0.0
N1004 N 0.13488 0.70891 0.99639 0.0
C1005 C 0.14487 0.69709 0.97954 0.0
C1006 C 0.13175 0.69595 0.95952 0.0
C1007 C 0.09234 0.70536 0.95365 0.0
H1008 H 0.07931 0.70293 0.96656 0.0
H1009 H 0.08949 0.72014 0.94327 0.0
H1010 H 0.09187 0.69177 0.94109 0.0
O1011 O 0.08659 0.70002 0.0294 0.0
O1012 O 0.11809 0.69064 0.04487 0.0
H1013 H 0.16192 0.67253 0.99792 0.0
H1014 H 0.17029 0.67625 0.96756 0.0
C1015 C 0.16489 0.68452 0.98384 0.0
H1016 H 0.17763 0.69542 0.99025 0.0
H1017 H 0.1612 0.67396 0.0568 0.0
O1018 O 0.07113 0.73433 0.99042 0.0
C1019 C 0.09798 0.68799 0.04268 0.0
Co1020 Co 0.00789 0.31732 0.7459 0.0
Co1021 Co 0.037 0.35518 0.76094 0.0
C1022 C 0.99433 0.34931 0.78351 0.0
O1023 O 0.99171 0.33317 0.77027 0.0
O1024 O 0.01124 0.36055 0.78186 0.0
C1025 C 0.96964 0.3126 0.72381 0.0
O1026 O 0.97295 0.33335 0.72281 0.0
C1027 C 0.05336 0.39869 0.76269 0.0
C1028 C 0.08789 0.39345 0.76921 0.0
C1029 C 0.07276 0.40917 0.76469 0.0
N1030 N 0.0569 0.37763 0.76528 0.0
N1031 N 0.07751 0.37459 0.76953 0.0
C1032 C 0.03173 0.40846 0.75862 0.0
H1033 H 0.01914 0.39853 0.76688 0.0
H1034 H 0.02835 0.40928 0.73943 0.0
H1035 H 0.03106 0.42495 0.76589 0.0
C1036 C 0.02197 0.33065 0.69865 0.0
N1037 N 0.02021 0.33444 0.72199 0.0
N1038 N 0.0321 0.35094 0.72776 0.0
C1039 C 0.04202 0.35812 0.70802 0.0
C1040 C 0.03574 0.34558 0.68885 0.0
C1041 C 0.01342 0.31103 0.68678 0.0
H1042 H 0.01314 0.29741 0.69935 0.0
H1043 H 0.99682 0.31423 0.68072 0.0
H1044 H 0.02322 0.30653 0.67123 0.0
O1045 O 0.03057 0.30088 0.7636 0.0
O1046 O 0.05067 0.32904 0.77321 0.0
H1047 H 0.07237 0.3704 0.71898 0.0
H1048 H 0.06432 0.37884 0.68968 0.0
C1049 C 0.05863 0.37533 0.70779 0.0
H1050 H 0.05179 0.39021 0.71516 0.0
H1051 H 0.08459 0.35959 0.77192 0.0
O1052 O 0.98454 0.30053 0.73171 0.0
C1053 C 0.04707 0.30898 0.7736 0.0
Co1054 Co 0.43462 0.26934 0.49747 0.0
Co1055 Co 0.39345 0.28869 0.51811 0.0
C1056 C 0.40968 0.24645 0.53584 0.0
O1057 O 0.42535 0.24809 0.52176 0.0
O1058 O 0.39509 0.26064 0.53567 0.0
C1059 C 0.44355 0.23623 0.46892 0.0
O1060 O 0.42255 0.23657 0.47011 0.0
C1061 C 0.3483 0.28998 0.52363 0.0
C1062 C 0.34268 0.31774 0.547 0.0
C1063 C 0.3325 0.30075 0.53595 0.0
N1064 N 0.36687 0.30011 0.52716 0.0
N1065 N 0.36353 0.31673 0.54109 0.0
C1066 C 0.34644 0.26931 0.51038 0.0
H1067 H 0.36224 0.26135 0.50879 0.0
H1068 H 0.34061 0.27263 0.49223 0.0
H1069 H 0.33492 0.25844 0.5192 0.0
C1070 C 0.41737 0.28795 0.45424 0.0
N1071 N 0.41385 0.28056 0.47626 0.0
N1072 N 0.39615 0.28898 0.48455 0.0
C1073 C 0.38795 0.30242 0.46801 0.0
C1074 C 0.40105 0.30206 0.44804 0.0
C1075 C 0.43839 0.28547 0.44178 0.0
H1076 H 0.45171 0.28632 0.45471 0.0
H1077 H 0.43893 0.26956 0.43313 0.0
H1078 H 0.44083 0.29796 0.42812 0.0
O1079 O 0.44723 0.29405 0.51526 0.0
O1080 O 0.41657 0.30685 0.52996 0.0
H1081 H 0.36625 0.32761 0.45685 0.0
H1082 H 0.35575 0.30909 0.47837 0.0
C1083 C 0.3702 0.31795 0.47274 0.0
H1084 H 0.37493 0.32873 0.4874 0.0
H1085 H 0.37557 0.32686 0.54724 0.0
O1086 O 0.45404 0.25132 0.47867 0.0
C1087 C 0.43686 0.30775 0.52765 0.0
H1088 H 0.14319 0.19094 0.07934 0.0
H1089 H 0.10334 0.13514 0.07006 0.0
H1090 H 0.14026 0.18732 0.12197 0.0
H1091 H 0.10165 0.13079 0.11302 0.0
H1092 H 0.1269 0.1235 0.19244 0.0
H1093 H 0.13148 0.12567 0.14942 0.0
H1094 H 0.10383 0.18908 0.1497 0.0
H1095 H 0.09877 0.18671 0.19251 0.0
C1096 C 0.13351 0.17812 0.08628 0.0
C1097 C 0.12262 0.16395 0.07122 0.0
C1098 C 0.13217 0.17587 0.11073 0.0
C1099 C 0.12052 0.15897 0.12061 0.0
C1100 C 0.11068 0.144 0.1057 0.0
C1101 C 0.11166 0.14651 0.08118 0.0
C1102 C 0.12188 0.13788 0.18322 0.0
C1103 C 0.11239 0.1549 0.19557 0.0
C1104 C 0.12439 0.13906 0.15873 0.0
C1105 C 0.11797 0.15752 0.14644 0.0
C1106 C 0.10892 0.17472 0.1589 0.0
C1107 C 0.10596 0.17333 0.18326 0.0
H1108 H 0.07664 0.8391 0.44366 0.0
H1109 H 0.13721 0.87187 0.44472 0.0
H1110 H 0.07649 0.84009 0.40065 0.0
H1111 H 0.13801 0.87176 0.40174 0.0
H1112 H 0.12515 0.88655 0.32459 0.0
H1113 H 0.12486 0.88622 0.36759 0.0
H1114 H 0.09025 0.82629 0.36642 0.0
H1115 H 0.08948 0.82763 0.32343 0.0
C1116 C 0.09008 0.84626 0.43459 0.0
C1117 C 0.10696 0.85535 0.44745 0.0
C1118 C 0.09013 0.84672 0.40987 0.0
C1119 C 0.1073 0.85592 0.39735 0.0
C1120 C 0.12425 0.86492 0.41047 0.0
C1121 C 0.12392 0.86487 0.43518 0.0
C1122 C 0.11753 0.87333 0.33364 0.0
C1123 C 0.1072 0.85721 0.32076 0.0
C1124 C 0.11744 0.87301 0.35836 0.0
C1125 C 0.10749 0.85623 0.37085 0.0
C1126 C 0.09762 0.83981 0.35771 0.0
C1127 C 0.09729 0.84042 0.333 0.0
H1128 H 0.3882 0.88985 0.70303 0.0
H1129 H 0.41163 0.82482 0.70118 0.0
H1130 H 0.38418 0.88947 0.65981 0.0
H1131 H 0.40712 0.82422 0.65823 0.0
H1132 H 0.37313 0.82617 0.58574 0.0
H1133 H 0.37354 0.82857 0.62862 0.0
H1134 H 0.41364 0.88453 0.62451 0.0
H1135 H 0.41429 0.88145 0.58132 0.0
C1136 C 0.39213 0.87541 0.69336 0.0
C1137 C 0.40019 0.85735 0.70522 0.0
C1138 C 0.38998 0.87525 0.66875 0.0
C1139 C 0.39537 0.85683 0.65582 0.0
C1140 C 0.40277 0.83857 0.66785 0.0
C1141 C 0.40537 0.83891 0.69232 0.0
C1142 C 0.38252 0.83866 0.59387 0.0
C1143 C 0.39457 0.85298 0.58015 0.0
C1144 C 0.38244 0.84022 0.61843 0.0
C1145 C 0.39384 0.85655 0.62978 0.0
C1146 C 0.40475 0.87176 0.6161 0.0
C1147 C 0.40515 0.86997 0.59145 0.0
H1148 H 0.41995 0.18316 0.8176 0.0
H1149 H 0.38576 0.12332 0.82039 0.0
H1150 H 0.41853 0.18572 0.86071 0.0
H1151 H 0.38463 0.12567 0.86366 0.0
H1152 H 0.41633 0.1274 0.93967 0.0
H1153 H 0.4146 0.12502 0.89663 0.0
H1154 H 0.38871 0.18904 0.89334 0.0
H1155 H 0.3892 0.19107 0.93618 0.0
C1156 C 0.41209 0.1706 0.82749 0.0
C1157 C 0.40306 0.15299 0.81578 0.0
C1158 C 0.4112 0.1721 0.8521 0.0
C1159 C 0.40158 0.15583 0.8655 0.0
C1160 C 0.39228 0.13835 0.85374 0.0
C1161 C 0.39278 0.13708 0.82906 0.0
C1162 C 0.4102 0.14098 0.92982 0.0
C1163 C 0.4037 0.15976 0.94157 0.0
C1164 C 0.40917 0.13956 0.90518 0.0
C1165 C 0.40175 0.15695 0.89168 0.0
C1166 C 0.3949 0.17556 0.90333 0.0
C1167 C 0.39555 0.17683 0.92798 0.0
H1168 H 0.90185 0.81345 0.91683 0.0
H1169 H 0.881 0.87375 0.9459 0.0
H1170 H 0.91113 0.83126 0.87981 0.0
H1171 H 0.88996 0.89164 0.90828 0.0
H1172 H 0.89507 0.88777 0.81371 0.0
H1173 H 0.87951 0.87824 0.85229 0.0
H1174 H 0.94292 0.87017 0.88099 0.0
H1175 H 0.95835 0.87986 0.84278 0.0
C1176 C 0.89858 0.83042 0.91502 0.0
C1177 C 0.89039 0.84209 0.93423 0.0
C1178 C 0.90401 0.84063 0.89385 0.0
C1179 C 0.90127 0.86281 0.89115 0.0
C1180 C 0.89206 0.87447 0.90983 0.0
C1181 C 0.88674 0.86421 0.93126 0.0
C1182 C 0.90563 0.88508 0.82862 0.0
C1183 C 0.92796 0.885 0.82534 0.0
C1184 C 0.89673 0.87941 0.85062 0.0
C1185 C 0.91003 0.87348 0.86964 0.0
C1186 C 0.9323 0.87484 0.86673 0.0
C1187 C 0.94114 0.8806 0.84491 0.0
H1188 H 0.91203 0.20829 0.72114 0.0
H1189 H 0.95908 0.16557 0.69119 0.0
H1190 H 0.90286 0.22124 0.68179 0.0
H1191 H 0.94919 0.17794 0.65151 0.0
H1192 H 0.91365 0.19618 0.58196 0.0
H1193 H 0.91816 0.18 0.62132 0.0
H1194 H 0.92339 0.24312 0.65177 0.0
H1195 H 0.91926 0.25905 0.61254 0.0
C1196 C 0.92042 0.20161 0.70615 0.0
C1197 C 0.93662 0.18618 0.70942 0.0
C1198 C 0.91503 0.20895 0.68356 0.0
C1199 C 0.9254 0.20077 0.66349 0.0
C1200 C 0.9408 0.18448 0.6666 0.0
C1201 C 0.94642 0.17733 0.68933 0.0
C1202 C 0.91529 0.2065 0.59721 0.0
C1203 C 0.91577 0.22885 0.59436 0.0
C1204 C 0.91811 0.19728 0.61966 0.0
C1205 C 0.92113 0.21026 0.6397 0.0
C1206 C 0.92087 0.23265 0.63679 0.0
C1207 C 0.91845 0.2418 0.61436 0.0
H1208 H 0.54022 0.16024 0.34056 0.0
H1209 H 0.60143 0.13103 0.32638 0.0
H1210 H 0.5522 0.17002 0.38001 0.0
H1211 H 0.61356 0.14063 0.36644 0.0
H1212 H 0.61539 0.14749 0.45099 0.0
H1213 H 0.60681 0.13494 0.41093 0.0
H1214 H 0.57849 0.19644 0.39512 0.0
H1215 H 0.58745 0.20894 0.43474 0.0
C1216 C 0.55617 0.15554 0.34609 0.0
C1217 C 0.56981 0.14475 0.33037 0.0
C1218 C 0.56313 0.16134 0.36866 0.0
C1219 C 0.584 0.15647 0.37636 0.0
C1220 C 0.59738 0.14463 0.36111 0.0
C1221 C 0.5904 0.13895 0.33824 0.0
C1222 C 0.60778 0.15844 0.43871 0.0
C1223 C 0.60191 0.17915 0.44609 0.0
C1224 C 0.60278 0.15123 0.4158 0.0
C1225 C 0.59159 0.16452 0.39988 0.0
C1226 C 0.58666 0.18556 0.40704 0.0
C1227 C 0.59181 0.19277 0.42976 0.0
H1228 H 0.6091 0.78316 0.1125 0.0
H1229 H 0.58769 0.83454 0.06736 0.0
H1230 H 0.59916 0.80402 0.14725 0.0
H1231 H 0.57797 0.85575 0.1021 0.0
H1232 H 0.58447 0.84604 0.20805 0.0
H1233 H 0.604 0.8354 0.17248 0.0
H1234 H 0.54864 0.85136 0.13006 0.0
H1235 H 0.52944 0.8622 0.1656 0.0
C1236 C 0.603 0.79928 0.11012 0.0
C1237 C 0.59939 0.80737 0.08736 0.0
C1238 C 0.59731 0.81129 0.13 0.0
C1239 C 0.58767 0.83158 0.12751 0.0
C1240 C 0.58521 0.84013 0.10465 0.0
C1241 C 0.591 0.82812 0.08477 0.0
C1242 C 0.57688 0.84808 0.19099 0.0
C1243 C 0.55556 0.85513 0.18944 0.0
C1244 C 0.58793 0.84173 0.17065 0.0
C1245 C 0.57785 0.84232 0.14839 0.0
C1246 C 0.55703 0.85091 0.1468 0.0
C1247 C 0.54599 0.85715 0.16713 0.0
H1248 H 0.63015 0.68243 0.58527 0.0
H1249 H 0.59883 0.62108 0.58052 0.0
H1250 H 0.63044 0.67967 0.62825 0.0
H1251 H 0.59987 0.61793 0.6237 0.0
H1252 H 0.62343 0.6141 0.7016 0.0
H1253 H 0.62745 0.61599 0.6585 0.0
H1254 H 0.59975 0.67943 0.65879 0.0
H1255 H 0.59555 0.67739 0.70164 0.0
C1256 C 0.62303 0.6685 0.59344 0.0
C1257 C 0.61354 0.65242 0.57965 0.0
C1258 C 0.62346 0.66681 0.61801 0.0
C1259 C 0.61495 0.64872 0.62926 0.0
C1260 C 0.60654 0.63205 0.61543 0.0
C1261 C 0.60585 0.63389 0.5908 0.0
C1262 C 0.6185 0.62851 0.69238 0.0
C1263 C 0.6091 0.64557 0.70475 0.0
C1264 C 0.62063 0.62953 0.6678 0.0
C1265 C 0.61383 0.64782 0.65537 0.0
C1266 C 0.60522 0.66519 0.66795 0.0
C1267 C 0.60274 0.66401 0.6924 0.0
H1268 H 0.63977 0.37131 0.94736 0.0
H1269 H 0.57968 0.33762 0.95056 0.0
H1270 H 0.63724 0.37226 0.90405 0.0
H1271 H 0.57688 0.33905 0.9074 0.0
H1272 H 0.57184 0.37151 0.8325 0.0
H1273 H 0.57451 0.37139 0.87527 0.0
H1274 H 0.63617 0.34054 0.87089 0.0
H1275 H 0.63298 0.33923 0.82785 0.0
C1276 C 0.62594 0.36434 0.93877 0.0
C1277 C 0.60996 0.35431 0.95217 0.0
C1278 C 0.62456 0.36476 0.91408 0.0
C1279 C 0.6069 0.35568 0.90247 0.0
C1280 C 0.59063 0.3462 0.91596 0.0
C1281 C 0.59227 0.34532 0.94057 0.0
C1282 C 0.58562 0.36392 0.8404 0.0
C1283 C 0.60173 0.35446 0.8265 0.0
C1284 C 0.58729 0.36424 0.86503 0.0
C1285 C 0.60544 0.35579 0.87634 0.0
C1286 C 0.62199 0.34715 0.86256 0.0
C1287 C 0.6201 0.34639 0.83793 0.0
H1288 H 0.93545 0.39176 0.18457 0.0
H1289 H 0.88125 0.34928 0.18971 0.0
H1290 H 0.93308 0.39064 0.14172 0.0
H1291 H 0.8781 0.34936 0.14647 0.0
H1292 H 0.87243 0.37685 0.06749 0.0
H1293 H 0.87278 0.38 0.11081 0.0
H1294 H 0.93754 0.35586 0.11233 0.0
H1295 H 0.93695 0.35214 0.06926 0.0
C1296 C 0.92324 0.38188 0.17664 0.0
C1297 C 0.90922 0.3697 0.19062 0.0
C1298 C 0.92168 0.38158 0.15206 0.0
C1299 C 0.90561 0.3697 0.14087 0.0
C1300 C 0.89069 0.35859 0.15475 0.0
C1301 C 0.89252 0.35854 0.17943 0.0
C1302 C 0.88674 0.3724 0.07717 0.0
C1303 C 0.90468 0.36429 0.0652 0.0
C1304 C 0.88688 0.37404 0.10184 0.0
C1305 C 0.90518 0.36814 0.11479 0.0
C1306 C 0.92328 0.36056 0.1027 0.0
C1307 C 0.92294 0.35843 0.07815 0.0
H1308 H 0.92543 0.68725 0.32506 0.0
H1309 H 0.88573 0.63092 0.32218 0.0
H1310 H 0.92544 0.68546 0.36827 0.0
H1311 H 0.88593 0.62897 0.36543 0.0
H1312 H 0.9142 0.62157 0.44232 0.0
H1313 H 0.914 0.62254 0.39899 0.0
H1314 H 0.89644 0.68938 0.40083 0.0
H1315 H 0.89555 0.68815 0.44384 0.0
C1316 C 0.91686 0.67439 0.33367 0.0
C1317 C 0.90572 0.65913 0.32026 0.0
C1318 C 0.91675 0.67344 0.35839 0.0
C1319 C 0.90576 0.65701 0.37023 0.0
C1320 C 0.8947 0.64169 0.3568 0.0
C1321 C 0.89447 0.64289 0.33208 0.0
C1322 C 0.91035 0.63646 0.43344 0.0
C1323 C 0.90584 0.65502 0.44659 0.0
C1324 C 0.91019 0.63701 0.40866 0.0
C1325 C 0.90557 0.65615 0.39652 0.0
C1326 C 0.9006 0.67455 0.40968 0.0
C1327 C 0.90039 0.67389 0.43437 0.0
H1328 H 0.40488 0.34578 0.44961 0.0
H1329 H 0.40093 0.29278 0.40123 0.0
H1330 H 0.41361 0.36985 0.41678 0.0
H1331 H 0.40989 0.31651 0.36847 0.0
H1332 H 0.42092 0.36153 0.31003 0.0
H1333 H 0.40067 0.3462 0.34287 0.0
H1334 H 0.445 0.37475 0.39215 0.0
H1335 H 0.4649 0.39015 0.35925 0.0
C1336 C 0.40523 0.33943 0.43183 0.0
C1337 C 0.40195 0.31745 0.42791 0.0
C1338 C 0.41049 0.35315 0.41303 0.0
C1339 C 0.41253 0.34523 0.38983 0.0
C1340 C 0.40815 0.32339 0.3859 0.0
C1341 C 0.40303 0.3097 0.40469 0.0
C1342 C 0.4256 0.36545 0.32794 0.0
C1343 C 0.4443 0.37731 0.3321 0.0
C1344 C 0.41427 0.3563 0.34679 0.0
C1345 C 0.42137 0.35883 0.37027 0.0
C1346 C 0.43889 0.3725 0.37443 0.0
C1347 C 0.45025 0.38155 0.35556 0.0
H1348 H 0.40537 0.7227 0.09084 0.0
H1349 H 0.43857 0.66368 0.07619 0.0
H1350 H 0.41108 0.7173 0.13311 0.0
H1351 H 0.44318 0.65728 0.11828 0.0
H1352 H 0.46805 0.66009 0.19314 0.0
H1353 H 0.46192 0.66621 0.15118 0.0
H1354 H 0.40333 0.70013 0.16768 0.0
H1355 H 0.4105 0.69504 0.20967 0.0
C1356 C 0.41352 0.70833 0.09679 0.0
C1357 C 0.4216 0.69366 0.08031 0.0
C1358 C 0.41677 0.70511 0.12109 0.0
C1359 C 0.42782 0.68686 0.12956 0.0
C1360 C 0.43518 0.67186 0.1128 0.0
C1361 C 0.43234 0.67535 0.08856 0.0
C1362 C 0.45392 0.6689 0.18767 0.0
C1363 C 0.43978 0.67712 0.20462 0.0
C1364 C 0.45021 0.67228 0.16353 0.0
C1365 C 0.43194 0.68359 0.15556 0.0
C1366 C 0.41777 0.69171 0.17277 0.0
C1367 C 0.42177 0.6887 0.19695 0.0
H1368 H 0.13723 0.70885 0.91433 0.0
H1369 H 0.12575 0.65261 0.95632 0.0
H1370 H 0.12619 0.68965 0.87887 0.0
H1371 H 0.11467 0.63308 0.92077 0.0
H1372 H 0.06246 0.62298 0.86151 0.0
H1373 H 0.08289 0.63501 0.8959 0.0
H1374 H 0.13073 0.66174 0.84965 0.0
H1375 H 0.10999 0.64978 0.81532 0.0
C1376 C 0.13336 0.692 0.91576 0.0
C1377 C 0.1329 0.68212 0.93806 0.0
C1378 C 0.12681 0.68096 0.8954 0.0
C1379 C 0.11926 0.65975 0.89677 0.0
C1380 C 0.12013 0.64943 0.91895 0.0
C1381 C 0.12689 0.66047 0.93931 0.0
C1382 C 0.07769 0.63082 0.85877 0.0
C1383 C 0.08477 0.63512 0.83572 0.0
C1384 C 0.08946 0.63777 0.8785 0.0
C1385 C 0.10856 0.64948 0.87576 0.0
C1386 C 0.11606 0.65296 0.85259 0.0
C1387 C 0.10433 0.64587 0.83285 0.0
H1388 H 0.013 0.34585 0.64787 0.0
H1389 H 0.0776 0.34361 0.67462 0.0
H1390 H 0.02643 0.34224 0.60757 0.0
H1391 H 0.09125 0.34074 0.63429 0.0
H1392 H 0.10562 0.31019 0.56188 0.0
H1393 H 0.09288 0.31539 0.60224 0.0
H1394 H 0.04556 0.36049 0.57681 0.0
H1395 H 0.05841 0.35526 0.53658 0.0
C1396 C 0.03012 0.34493 0.64504 0.0
C1397 C 0.04426 0.34533 0.66433 0.0
C1398 C 0.03786 0.34296 0.62194 0.0
C1399 C 0.05998 0.34123 0.61755 0.0
C1400 C 0.07412 0.34183 0.63694 0.0
C1401 C 0.06635 0.34381 0.66005 0.0
C1402 C 0.09267 0.3214 0.56499 0.0
C1403 C 0.08304 0.33232 0.54605 0.0
C1404 C 0.08535 0.32441 0.58814 0.0
C1405 C 0.06816 0.33839 0.59292 0.0
C1406 C 0.05861 0.34937 0.57387 0.0
C1407 C 0.06597 0.34638 0.55076 0.0
H1408 H 0.0222 0.95185 0.24924 0.0
H1409 H 0.09006 0.95707 0.23807 0.0
H1410 H 0.02058 0.98945 0.26082 0.0
H1411 H 0.0886 0.99498 0.2486 0.0
H1412 H 0.08426 0.06011 0.28489 0.0
H1413 H 0.08582 0.02195 0.27571 0.0
H1414 H 0.0205 0.0248 0.25057 0.0
H1415 H 0.01894 0.06275 0.26087 0.0
C1416 C 0.03683 0.96111 0.2492 0.0
C1417 C 0.05628 0.95125 0.24288 0.0
C1418 C 0.03592 0.98291 0.25567 0.0
C1419 C 0.05442 0.99592 0.25573 0.0
C1420 C 0.07393 0.98587 0.24938 0.0
C1421 C 0.07484 0.96396 0.2432 0.0
C1422 C 0.07022 0.05252 0.27744 0.0
C1423 C 0.05147 0.06463 0.27365 0.0
C1424 C 0.07111 0.03049 0.27194 0.0
C1425 C 0.05334 0.01967 0.26213 0.0
C1426 C 0.03454 0.03197 0.25843 0.0
C1427 C 0.0336 0.05395 0.26423 0.0
H1428 H 0.19588 0.76811 0.52712 0.0
H1429 H 0.20162 0.83641 0.53502 0.0
H1430 H 0.23387 0.76561 0.51726 0.0
H1431 H 0.23973 0.83409 0.5256 0.0
H1432 H 0.30435 0.82637 0.48813 0.0
H1433 H 0.26611 0.82872 0.49682 0.0
H1434 H 0.2692 0.76691 0.53098 0.0
H1435 H 0.30739 0.7646 0.52174 0.0
C1436 C 0.2053 0.78263 0.52684 0.0
C1437 C 0.19552 0.80247 0.53177 0.0
C1438 C 0.22726 0.78122 0.52128 0.0
C1439 C 0.24036 0.79962 0.52055 0.0
C1440 C 0.23043 0.8195 0.52548 0.0
C1441 C 0.20845 0.82088 0.53096 0.0
C1442 C 0.29688 0.81337 0.49767 0.0
C1443 C 0.30912 0.79543 0.5045 0.0
C1444 C 0.27482 0.8147 0.50276 0.0
C1445 C 0.26411 0.79809 0.51485 0.0
C1446 C 0.27645 0.78001 0.52141 0.0
C1447 C 0.29851 0.77868 0.51624 0.0
H1448 H 0.42848 0.05238 0.73839 0.0
H1449 H 0.49592 0.0581 0.75273 0.0
H1450 H 0.42988 0.01446 0.74924 0.0
H1451 H 0.49747 0.02034 0.76394 0.0
H1452 H 0.49834 0.94686 0.7598 0.0
H1453 H 0.49676 0.98493 0.74974 0.0
H1454 H 0.43339 0.98886 0.77978 0.0
H1455 H 0.43504 0.95072 0.78942 0.0
C1456 C 0.44356 0.04561 0.74425 0.0
C1457 C 0.46205 0.0584 0.74482 0.0
C1458 C 0.44442 0.02376 0.7505 0.0
C1459 C 0.46382 0.01394 0.75754 0.0
C1460 C 0.48226 0.02693 0.75828 0.0
C1461 C 0.48138 0.04873 0.75198 0.0
C1462 C 0.48412 0.9559 0.76432 0.0
C1463 C 0.46677 0.94561 0.77526 0.0
C1464 C 0.48319 0.97786 0.75864 0.0
C1465 C 0.46489 0.99035 0.76381 0.0
C1466 C 0.44763 0.97997 0.77501 0.0
C1467 C 0.44857 0.95801 0.78064 0.0
H1468 H 0.32679 0.22829 0.99327 0.0
H1469 H 0.30776 0.20261 0.06046 0.0
H1470 H 0.28935 0.23268 0.98199 0.0
H1471 H 0.27029 0.20531 0.04892 0.0
H1472 H 0.20239 0.22501 0.0316 0.0
H1473 H 0.23992 0.22334 0.04298 0.0
H1474 H 0.25765 0.22066 0.96922 0.0
H1475 H 0.22001 0.22395 0.95826 0.0
C1476 C 0.3145 0.22338 1.00557 0.0
C1477 C 0.32031 0.21526 0.02784 0.0
C1478 C 0.29281 0.22568 0.99904 0.0
C1479 C 0.27605 0.21943 0.01434 0.0
C1480 C 0.28216 0.21096 0.03658 0.0
C1481 C 0.30384 0.20916 0.04327 0.0
C1482 C 0.2144 0.22427 0.01786 0.0
C1483 C 0.20813 0.22473 0.99402 0.0
C1484 C 0.23614 0.22302 0.02435 0.0
C1485 C 0.25255 0.2216 1.00723 0.0
C1486 C 0.24604 0.22212 0.98325 0.0
C1487 C 0.22427 0.2239 0.9768 0.0
H1488 H 0.01367 0.0556 0.77099 0.0
H1489 H 0.97626 0.08991 0.71915 0.0
H1490 H 0.01113 0.02324 0.74735 0.0
H1491 H 0.97378 0.05754 0.69532 0.0
H1492 H 0.99529 0.96461 0.7081 0.0
H1493 H 0.01216 0.99972 0.71057 0.0
H1494 H 0.94972 0.02946 0.7132 0.0
H1495 H 0.93295 0.99453 0.71188 0.0
C1496 C 0.00607 0.05651 0.7538 0.0
C1497 C 0.99503 0.07508 0.74693 0.0
C1498 C 1.00461 0.03798 0.7402 0.0
C1499 C 0.99177 0.03781 0.71981 0.0
C1500 C 0.98356 0.05726 0.71113 0.0
C1501 C 0.98519 0.07586 0.72466 0.0
C1502 C 0.98516 0.97859 0.70951 0.0
C1503 C 0.96278 0.97672 0.7112 0.0
C1504 C 0.99486 0.99871 0.71033 0.0
C1505 C 0.98229 0.01729 0.71219 0.0
C1506 C 0.95988 0.01546 0.71149 0.0
C1507 C 0.95024 0.99539 0.71102 0.0
H1508 H 0.81017 0.21937 0.46257 0.0
H1509 H 0.822 0.25109 0.52899 0.0
H1510 H 0.77176 0.21988 0.47067 0.0
H1511 H 0.78371 0.25266 0.53652 0.0
H1512 H 0.72673 0.20792 0.55688 0.0
H1513 H 0.76179 0.22167 0.54669 0.0
H1514 H 0.73797 0.24068 0.47805 0.0
H1515 H 0.70263 0.22651 0.48838 0.0
C1516 C 0.80444 0.22707 0.47849 0.0
C1517 C 0.81889 0.2355 0.49497 0.0
C1518 C 0.78251 0.22761 0.483 0.0
C1519 C 0.7748 0.23639 0.50419 0.0
C1520 C 0.78925 0.24584 0.52004 0.0
C1521 C 0.81113 0.24516 0.5156 0.0
C1522 C 0.72889 0.21553 0.53985 0.0
C1523 C 0.71217 0.21621 0.52337 0.0
C1524 C 0.74888 0.22358 0.53406 0.0
C1525 C 0.75258 0.23224 0.51156 0.0
C1526 C 0.73548 0.23404 0.4955 0.0
C1527 C 0.7153 0.22613 0.50144 0.0
H1528 H 0.56284 0.05017 0.2881 0.0
H1529 H 0.58681 0.02384 0.22289 0.0
H1530 H 0.56369 0.01465 0.30607 0.0
H1531 H 0.58766 0.9882 0.24072 0.0
H1532 H 0.60259 0.92988 0.28222 0.0
H1533 H 0.6062 0.96744 0.27111 0.0
H1534 H 0.54439 0.981 0.30193 0.0
H1535 H 0.54131 0.94366 0.31393 0.0
C1536 C 0.56774 0.03663 0.27746 0.0
C1537 C 0.57399 0.03941 0.25389 0.0
C1538 C 0.56851 0.0164 0.28782 0.0
C1539 C 0.57571 0.99869 0.27479 0.0
C1540 C 0.58232 1.00162 0.2513 0.0
C1541 C 0.58161 0.02188 0.241 0.0
C1542 C 0.59007 0.94104 0.28716 0.0
C1543 C 0.57139 0.93389 0.29831 0.0
C1544 C 0.59201 0.96244 0.28057 0.0
C1545 C 0.57534 0.97699 0.28514 0.0
C1546 C 0.55746 0.97013 0.29807 0.0
C1547 C 0.55557 0.94874 0.3047 0.0
H1548 H 0.7963 0.81785 0.98526 0.0
H1549 H 0.77636 0.84747 0.05049 0.0
H1550 H 0.75892 0.81386 0.97344 0.0
H1551 H 0.73892 0.84388 0.03846 0.0
H1552 H 0.67837 0.80457 0.02304 0.0
H1553 H 0.7155 0.81147 0.03301 0.0
H1554 H 0.72613 0.83688 0.96307 0.0
H1555 H 0.68857 0.82963 0.9529 0.0
C1556 C 0.78389 0.82327 0.99716 0.0
C1557 C 0.78905 0.83232 0.01911 0.0
C1558 C 0.76258 0.82135 0.99021 0.0
C1559 C 0.74614 0.82844 1.00513 0.0
C1560 C 0.75136 0.83807 0.02678 0.0
C1561 C 0.77268 0.84014 0.03364 0.0
C1562 C 0.68865 0.81134 1.00965 0.0
C1563 C 0.68084 0.81609 0.987 0.0
C1564 C 0.70982 0.81558 0.01549 0.0
C1565 C 0.72359 0.82469 0.9988 0.0
C1566 C 0.71578 0.82968 0.97616 0.0
C1567 C 0.69441 0.82561 0.97038 0.0
H1568 H 0.51547 0.44078 0.75129 0.0
H1569 H 0.58211 0.44856 0.73431 0.0
H1570 H 0.51308 0.47865 0.76204 0.0
H1571 H 0.57987 0.48652 0.74461 0.0
H1572 H 0.57472 0.55005 0.7847 0.0
H1573 H 0.57694 0.512 0.775 0.0
H1574 H 0.51217 0.51421 0.74828 0.0
H1575 H 0.51003 0.55224 0.75845 0.0
C1576 C 0.52964 0.45064 0.74982 0.0
C1577 C 0.54903 0.44151 0.74214 0.0
C1578 C 0.52827 0.47249 0.75586 0.0
C1579 C 0.54626 0.48606 0.75432 0.0
C1580 C 0.56568 0.47679 0.74656 0.0
C1581 C 0.56702 0.45492 0.74058 0.0
C1582 C 0.56099 0.54242 0.77663 0.0
C1583 C 0.54224 0.55433 0.77224 0.0
C1584 C 0.56226 0.52049 0.77095 0.0
C1585 C 0.54479 0.50963 0.76065 0.0
C1586 C 0.52594 0.52164 0.75645 0.0
C1587 C 0.52469 0.54357 0.7622 0.0
H1588 H 0.82251 0.29287 0.03323 0.0
H1589 H 0.80693 0.30478 0.96039 0.0
H1590 H 0.78453 0.29264 0.04318 0.0
H1591 H 0.76892 0.30604 0.97017 0.0
H1592 H 0.69999 0.28946 0.9895 0.0
H1593 H 0.73796 0.28914 0.97932 0.0
H1594 H 0.75341 0.31011 0.0501 0.0
H1595 H 0.71552 0.30894 0.06029 0.0
C1596 C 0.81086 0.29568 0.01937 0.0
C1597 C 0.81772 0.29872 0.99602 0.0
C1598 C 0.78893 0.29577 0.02505 0.0
C1599 C 0.77305 0.29938 1.00762 0.0
C1600 C 0.78019 0.30272 0.98423 0.0
C1601 C 0.80212 0.3022 0.97853 0.0
C1602 C 0.7116 0.29399 1.0028 0.0
C1603 C 0.70476 0.29915 0.0257 0.0
C1604 C 0.73352 0.29398 0.99697 0.0
C1605 C 0.74936 0.29956 0.01377 0.0
C1606 C 0.74219 0.30517 0.03662 0.0
C1607 C 0.72032 0.30476 0.04251 0.0
H1608 H 0.92127 0.5654 0.23495 0.0
H1609 H 0.98989 0.5711 0.23658 0.0
H1610 H 0.92432 0.52729 0.24452 0.0
H1611 H 0.99315 0.5332 0.2466 0.0
H1612 H 0.9945 0.45985 0.243 0.0
H1613 H 0.99114 0.49795 0.23358 0.0
H1614 H 0.93177 0.50057 0.27241 0.0
H1615 H 0.93513 0.46236 0.28125 0.0
C1616 C 0.93704 0.5586 0.23772 0.0
C1617 C 0.95531 0.57152 0.23511 0.0
C1618 C 0.93886 0.53659 0.24326 0.0
C1619 C 0.95904 0.52664 0.24643 0.0
C1620 C 0.97729 0.53977 0.24395 0.0
C1621 C 0.97544 0.56171 0.23832 0.0
C1622 C 0.98071 0.46859 0.24946 0.0
C1623 C 0.96494 0.45783 0.26258 0.0
C1624 C 0.97879 0.49062 0.2442 0.0
C1625 C 0.96109 0.50285 0.25207 0.0
C1626 C 0.94544 0.49198 0.26547 0.0
C1627 C 0.94735 0.46993 0.27063 0.0
H1628 H 0.7061 0.74204 0.50044 0.0
H1629 H 0.70339 0.67318 0.50131 0.0
H1630 H 0.74409 0.74064 0.50891 0.0
H1631 H 0.74074 0.6715 0.51259 0.0
H1632 H 0.81281 0.66984 0.52065 0.0
H1633 H 0.77561 0.67157 0.50866 0.0
H1634 H 0.77314 0.73795 0.53039 0.0
H1635 H 0.81092 0.73658 0.53954 0.0
C1636 C 0.71355 0.7265 0.50263 0.0
C1637 C 0.70122 0.70776 0.50026 0.0
C1638 C 0.73563 0.72561 0.50804 0.0
C1639 C 0.74643 0.70591 0.51194 0.0
C1640 C 0.73388 0.68716 0.50958 0.0
C1641 C 0.71195 0.68809 0.50354 0.0
C1642 C 0.80449 0.68499 0.5223 0.0
C1643 C 0.81535 0.70308 0.53103 0.0
C1644 C 0.78263 0.68594 0.51583 0.0
C1645 C 0.77034 0.70493 0.51841 0.0
C1646 C 0.78136 0.72296 0.52743 0.0
C1647 C 0.80334 0.72211 0.53327 0.0
H1648 H 0.50874 0.56748 0.26243 0.0
H1649 H 0.45079 0.56758 0.22094 0.0
H1650 H 0.51961 0.53378 0.24388 0.0
H1651 H 0.46134 0.53411 0.20263 0.0
H1652 H 0.47394 0.46797 0.18386 0.0
H1653 H 0.48325 0.50608 0.18328 0.0
H1654 H 0.49785 0.50298 0.25781 0.0
H1655 H 0.48796 0.46583 0.25852 0.0
C1656 C 0.49892 0.56085 0.24847 0.0
C1657 C 0.47872 0.56952 0.24347 0.0
C1658 C 0.50509 0.54161 0.23788 0.0
C1659 C 0.49099 0.53103 0.22239 0.0
C1660 C 0.4725 0.54175 0.21458 0.0
C1661 C 0.46632 0.56082 0.22525 0.0
C1662 C 0.47958 0.47545 0.19995 0.0
C1663 C 0.48047 0.46385 0.22118 0.0
C1664 C 0.48514 0.49712 0.19954 0.0
C1665 C 0.4916 0.50745 0.2204 0.0
C1666 C 0.49364 0.49542 0.24125 0.0
C1667 C 0.4879 0.47396 0.24168 0.0
H1668 H 0.30207 0.75918 0.99521 0.0
H1669 H 0.3346 0.72635 0.05197 0.0
H1670 H 0.26915 0.75936 0.01817 0.0
H1671 H 0.30159 0.72623 0.07489 0.0
H1672 H 0.21023 0.75095 0.05875 0.0
H1673 H 0.24634 0.76557 0.05653 0.0
H1674 H 0.27224 0.70139 0.05717 0.0
H1675 H 0.23622 0.68677 0.05805 0.0
C1676 C 0.30243 0.75314 0.01315 0.0
C1677 C 0.3207 0.74277 0.02189 0.0
C1678 C 0.28364 0.75326 0.02634 0.0
C1679 C 0.28285 0.74251 0.04813 0.0
C1680 C 0.30187 0.73458 0.05812 0.0
C1681 C 0.32077 0.7348 0.04507 0.0
C1682 C 0.22361 0.73996 0.05824 0.0
C1683 C 0.22043 0.7177 0.05706 0.0
C1684 C 0.24426 0.74838 0.05756 0.0
C1685 C 0.26198 0.73461 0.05645 0.0
C1686 C 0.25883 0.71239 0.05818 0.0
C1687 C 0.2382 0.704 0.05845 0.0
H1688 H 0.0981 0.43604 0.79 0.0
H1689 H 0.05828 0.43283 0.72775 0.0
H1690 H 0.10466 0.47414 0.78226 0.0
H1691 H 0.06453 0.4707 0.72017 0.0
H1692 H 0.09373 0.53485 0.70257 0.0
H1693 H 0.09437 0.4961 0.70953 0.0
H1694 H 0.08055 0.50684 0.78328 0.0
H1695 H 0.08026 0.5454 0.77635 0.0
C1696 C 0.0908 0.44353 0.7747 0.0
C1697 C 0.07723 0.43182 0.75983 0.0
C1698 C 0.09451 0.46522 0.77029 0.0
C1699 C 0.08504 0.47529 0.75067 0.0
C1700 C 0.07213 0.46328 0.73534 0.0
C1701 C 0.06825 0.44174 0.7399 0.0
C1702 C 0.09107 0.52883 0.72026 0.0
C1703 C 0.08636 0.5429 0.73881 0.0
C1704 C 0.09137 0.50677 0.72423 0.0
C1705 C 0.08732 0.49856 0.74689 0.0
C1706 C 0.08377 0.51277 0.76566 0.0
C1707 C 0.08327 0.53477 0.76164 0.0
H1708 H 0.30672 0.28593 0.50086 0.0
H1709 H 0.30646 0.30452 0.57426 0.0
H1710 H 0.26869 0.27974 0.50228 0.0
H1711 H 0.2677 0.29873 0.57563 0.0
H1712 H 0.20552 0.33064 0.53999 0.0
H1713 H 0.24015 0.32055 0.55595 0.0
H1714 H 0.23726 0.26068 0.51787 0.0
H1715 H 0.20265 0.27117 0.50138 0.0
C1716 C 0.29869 0.28786 0.5176 0.0
C1717 C 0.30962 0.2954 0.53754 0.0
C1718 C 0.27677 0.28426 0.51846 0.0
C1719 C 0.2652 0.28846 0.53918 0.0
C1720 C 0.27626 0.29524 0.55946 0.0
C1721 C 0.29832 0.29875 0.55861 0.0
C1722 C 0.21192 0.31495 0.53581 0.0
C1723 C 0.20179 0.30188 0.51909 0.0
C1724 C 0.23168 0.30904 0.54514 0.0
C1725 C 0.24164 0.29006 0.53764 0.0
C1726 C 0.23003 0.27558 0.52359 0.0
C1727 C 0.21017 0.28151 0.51426 0.0
H1728 H 0.02627 0.32196 0.28451 0.0
H1729 H 0.96233 0.30456 0.26313 0.0
H1730 H 0.037 0.28428 0.28295 0.0
H1731 H 0.97304 0.26694 0.26166 0.0
H1732 H 0.05447 0.21579 0.26042 0.0
H1733 H 0.04342 0.25324 0.25708 0.0
H1734 H 0.98276 0.2378 0.28895 0.0
H1735 H 0.99383 0.20033 0.29241 0.0
C1736 C 0.01453 0.3102 0.27914 0.0
C1737 C 0.99338 0.31659 0.27389 0.0
C1738 C 0.02072 0.28846 0.27822 0.0
C1739 C 0.00592 0.27228 0.2723 0.0
C1740 C 0.9849 0.27874 0.26658 0.0
C1741 C 0.97878 0.30048 0.26722 0.0
C1742 C 0.03862 0.22023 0.26643 0.0
C1743 C 0.02509 0.20474 0.27665 0.0
C1744 C 0.03234 0.24188 0.26471 0.0
C1745 C 0.01219 0.24884 0.27287 0.0
C1746 C 0.99834 0.23321 0.28228 0.0
C1747 C 1.00471 0.21159 0.28427 0.0
H1748 H 0.06709 0.74412 0.55294 0.0
H1749 H 0.04442 0.80396 0.52383 0.0
H1750 H 0.03082 0.72959 0.55047 0.0
H1751 H 0.0081 0.78953 0.52186 0.0
H1752 H 0.94402 0.76304 0.55659 0.0
H1753 H 0.9801 0.77804 0.55304 0.0
H1754 H 1.00184 0.71967 0.52016 0.0
H1755 H 0.96588 0.70481 0.5233 0.0
C1756 C 0.05448 0.75409 0.54569 0.0
C1757 C 0.05885 0.77522 0.53849 0.0
C1758 C 0.03363 0.74575 0.54429 0.0
C1759 C 0.01645 0.75843 0.53611 0.0
C1760 C 0.02088 0.77938 0.52842 0.0
C1761 C 0.0418 0.78758 0.52936 0.0
C1762 C 0.95638 0.75353 0.54822 0.0
C1763 C 0.95185 0.73271 0.54013 0.0
C1764 C 0.97709 0.76215 0.54617 0.0
C1765 C 0.99396 0.75002 0.53643 0.0
C1766 C 0.98932 0.7294 0.52791 0.0
C1767 C 0.96857 0.72096 0.52953 0.0
H1768 H 0.52394 0.8102 0.78565 0.0
H1769 H 0.45937 0.79548 0.7639 0.0
H1770 H 0.53343 0.77235 0.7828 0.0
H1771 H 0.46893 0.75764 0.76099 0.0
H1772 H 0.54858 0.70379 0.76123 0.0
H1773 H 0.5387 0.74143 0.75687 0.0
H1774 H 0.47734 0.72847 0.78853 0.0
H1775 H 0.48717 0.69079 0.79286 0.0
C1776 C 0.51184 0.79901 0.77978 0.0
C1777 C 0.49084 0.80611 0.77506 0.0
C1778 C 0.51731 0.7772 0.77813 0.0
C1779 C 0.50192 0.76173 0.77188 0.0
C1780 C 0.48115 0.76895 0.76622 0.0
C1781 C 0.47573 0.79077 0.76767 0.0
C1782 C 0.53283 0.70883 0.76696 0.0
C1783 C 0.51873 0.69405 0.77746 0.0
C1784 C 0.52722 0.73055 0.76462 0.0
C1785 C 0.50725 0.7382 0.77249 0.0
C1786 C 0.49279 0.72326 0.78207 0.0
C1787 C 0.49846 0.70155 0.7846 0.0
H1788 H 0.45927 0.24899 0.07578 0.0
H1789 H 0.46256 0.22448 1.00461 0.0
H1790 H 0.49639 0.26078 0.07297 0.0
H1791 H 0.49975 0.23704 1.00167 0.0
H1792 H 0.55908 0.28901 1.00828 0.0
H1793 H 0.52172 0.27682 1.00638 0.0
H1794 H 0.53272 0.2361 0.06668 0.0
H1795 H 0.56999 0.24759 0.06823 0.0
C1796 C 0.46771 0.24648 0.05933 0.0
C1797 C 0.45777 0.23574 0.04042 0.0
C1798 C 0.48908 0.25314 0.05781 0.0
C1799 C 0.50105 0.24974 0.03716 0.0
C1800 C 0.49093 0.2399 0.01781 0.0
C1801 C 0.46962 0.23273 0.01951 0.0
C1802 C 0.55366 0.27713 0.02083 0.0
C1803 C 0.56771 0.26928 0.03836 0.0
C1804 C 0.53224 0.27018 0.01974 0.0
C1805 C 0.52423 0.25565 0.03651 0.0
C1806 C 0.53837 0.24742 0.05361 0.0
C1807 C 0.55983 0.25393 0.05436 0.0
H1808 H 1.00178 0.70717 0.19291 0.0
H1809 H 0.97129 0.71381 0.26087 0.0
H1810 H 0.01525 0.74368 0.19596 0.0
H1811 H 0.98551 0.7504 0.26411 0.0
H1812 H 0.04002 0.80754 0.26158 0.0
H1813 H 0.02593 0.77083 0.26346 0.0
H1814 H 0.99243 0.78109 0.19783 0.0
H1815 H 0.00579 0.81773 0.19619 0.0
C1816 C 0.99831 0.71618 0.20878 0.0
C1817 C 0.98538 0.70735 0.22665 0.0
C1818 C 0.00594 0.73724 0.21041 0.0
C1819 C 1.00133 0.75002 0.23018 0.0
C1820 C 0.98935 0.74095 0.24866 0.0
C1821 C 0.98124 0.71996 0.2468 0.0
C1822 C 0.02928 0.80213 0.2478 0.0
C1823 C 0.02404 0.81579 0.22877 0.0
C1824 C 0.02125 0.78107 0.24888 0.0
C1825 C 0.00823 0.77298 0.23067 0.0
C1826 C 1.00255 0.78678 0.21204 0.0
C1827 C 0.01012 0.8079 0.21123 0.0
H1828 H 0.55046 0.70853 0.51198 0.0
H1829 H 0.56655 0.76902 0.47976 0.0
H1830 H 0.5131 0.71971 0.51459 0.0
H1831 H 0.52906 0.78027 0.4826 0.0
H1832 H 0.46185 0.80027 0.50832 0.0
H1833 H 0.49949 0.78969 0.51034 0.0
H1834 H 0.48283 0.72619 0.48691 0.0
H1835 H 0.44514 0.73681 0.48466 0.0
C1836 C 0.54619 0.72439 0.50579 0.0
C1837 C 0.56182 0.73783 0.49569 0.0
C1838 C 0.52459 0.73073 0.50709 0.0
C1839 C 0.51782 0.75087 0.49865 0.0
C1840 C 0.53356 0.76469 0.48943 0.0
C1841 C 0.55517 0.75823 0.48782 0.0
C1842 C 0.46608 0.78394 0.50389 0.0
C1843 C 0.45019 0.76942 0.49639 0.0
C1844 C 0.48781 0.77792 0.50484 0.0
C1845 C 0.49442 0.75708 0.4987 0.0
C1846 C 0.47846 0.74234 0.49197 0.0
C1847 C 0.45675 0.74845 0.49066 0.0
H1848 H 0.47006 0.20184 0.76354 0.0
H1849 H 0.50982 0.19472 0.70175 0.0
H1850 H 0.48117 0.23945 0.76686 0.0
H1851 H 0.52023 0.23232 0.70477 0.0
H1852 H 0.50075 0.3062 0.70125 0.0
H1853 H 0.48982 0.26872 0.70351 0.0
H1854 H 0.52459 0.26134 0.76877 0.0
H1855 H 0.53625 0.29885 0.7663 0.0
C1856 C 0.48139 0.20813 0.7509 0.0
C1857 C 0.48909 0.1951 0.73243 0.0
C1858 C 0.48769 0.22968 0.7528 0.0
C1859 C 0.50142 0.2388 0.73597 0.0
C1860 C 0.50957 0.2257 0.71793 0.0
C1861 C 0.50369 0.20409 0.71633 0.0
C1862 C 0.50578 0.29682 0.71638 0.0
C1863 C 0.51941 0.30569 0.73361 0.0
C1864 C 0.49961 0.27528 0.71754 0.0
C1865 C 0.50647 0.26212 0.73622 0.0
C1866 C 0.51908 0.27115 0.75418 0.0
C1867 C 0.52568 0.29264 0.75277 0.0
H1868 H 0.05865 0.21879 1.00645 0.0
H1869 H 0.07299 0.28076 0.97666 0.0
H1870 H 0.02103 0.22893 1.00973 0.0
H1871 H 0.03532 0.29087 0.97994 0.0
H1872 H 0.96763 0.30851 1.00318 0.0
H1873 H 0.00537 0.29878 1.00689 0.0
H1874 H 0.99107 0.23503 0.98228 0.0
H1875 H 0.95332 0.24471 0.97856 0.0
C1876 C 0.05392 0.23473 1.00095 0.0
C1877 C 0.06907 0.2489 0.99124 0.0
C1878 C 0.03221 0.24048 1.00265 0.0
C1879 C 0.02494 0.26068 0.99492 0.0
C1880 C 0.04024 0.27523 0.98624 0.0
C1881 C 0.06194 0.26941 0.98433 0.0
C1882 C 0.97241 0.29229 0.9989 0.0
C1883 C 0.95723 0.27744 0.99052 0.0
C1884 C 0.99418 0.28676 1.00084 0.0
C1885 C 1.00146 0.26614 0.99473 0.0
C1886 C 0.98614 0.25101 0.98734 0.0
C1887 C 0.96441 0.2566 0.98516 0.0
H1888 H 0.94023 0.79237 0.78674 0.0
H1889 H 0.00905 0.79403 0.79387 0.0
H1890 H 0.93909 0.75908 0.80884 0.0
H1891 H 0.00821 0.76011 0.81448 0.0
H1892 H 0.01332 0.69866 0.83304 0.0
H1893 H 1.00024 0.73423 0.84289 0.0
H1894 H 0.94775 0.7256 0.79385 0.0
H1895 H 0.96003 0.68964 0.78566 0.0
C1896 C 0.95513 0.78567 0.79321 0.0
C1897 C 0.97485 0.79534 0.78798 0.0
C1898 C 0.95444 0.76665 0.80599 0.0
C1899 C 0.97351 0.75655 0.81301 0.0
C1900 C 0.99308 0.76735 0.80959 0.0
C1901 C 0.9937 0.78666 0.79733 0.0
C1902 C 0.99828 0.704 0.82553 0.0
C1903 C 0.98795 0.69197 0.80806 0.0
C1904 C 0.99084 0.72441 0.83103 0.0
C1905 C 0.97381 0.73326 0.81803 0.0
C1906 C 0.96123 0.71959 0.80391 0.0
C1907 C 0.96828 0.69889 0.79904 0.0
H1908 H 0.93979 0.33094 0.52054 0.0
H1909 H 1.00165 0.31121 0.54706 0.0
H1910 H 0.95635 0.36048 0.4995 0.0
H1911 H 0.0179 0.34197 0.52762 0.0
H1912 H 0.01158 0.33847 0.43844 0.0
H1913 H 0.98262 0.34044 0.46684 0.0
H1914 H 0.01956 0.38382 0.50973 0.0
H1915 H 0.04807 0.38304 0.4805 0.0
C1916 C 0.95674 0.33373 0.52314 0.0
C1917 C 0.96966 0.31854 0.53482 0.0
C1918 C 0.96611 0.35082 0.51125 0.0
C1919 C 0.98838 0.35314 0.51155 0.0
C1920 C 1.00069 0.34027 0.52686 0.0
C1921 C 0.99148 0.32261 0.53791 0.0
C1922 C 0.0129 0.34956 0.45307 0.0
C1923 C 0.03222 0.36 0.45775 0.0
C1924 C 0.99626 0.35083 0.4693 0.0
C1925 C 0.99918 0.36191 0.49066 0.0
C1926 C 0.01701 0.37521 0.49338 0.0
C1927 C 0.03335 0.37462 0.47662 0.0
H1928 H 0.56104 0.3075 0.31801 0.0
H1929 H 0.49332 0.30132 0.33123 0.0
H1930 H 0.56621 0.27078 0.33164 0.0
H1931 H 0.49871 0.26545 0.34526 0.0
H1932 H 0.50284 0.19888 0.31777 0.0
H1933 H 0.51202 0.22682 0.34652 0.0
H1934 H 0.54652 0.26067 0.29195 0.0
H1935 H 0.53717 0.2337 0.26383 0.0
C1936 C 0.5475 0.29886 0.32513 0.0
C1937 C 0.52659 0.30649 0.32188 0.0
C1938 C 0.55049 0.27796 0.33347 0.0
C1939 C 0.53242 0.26482 0.33665 0.0
C1940 C 0.51275 0.27483 0.34099 0.0
C1941 C 0.50955 0.29543 0.33239 0.0
C1942 C 0.51219 0.21249 0.31203 0.0
C1943 C 0.51914 0.21422 0.28849 0.0
C1944 C 0.51797 0.22805 0.32862 0.0
C1945 C 0.5308 0.24544 0.32186 0.0
C1946 C 0.5375 0.24704 0.29823 0.0
C1947 C 0.53155 0.23183 0.28179 0.0
H1948 H 0.58527 0.68354 0.04831 0.0
H1949 H 0.52745 0.71454 0.07235 0.0
H1950 H 0.566 0.64997 0.04422 0.0
H1951 H 0.50853 0.68085 0.06938 0.0
H1952 H 0.50946 0.66566 0.98273 0.0
H1953 H 0.54039 0.66198 1.00823 0.0
H1954 H 0.49996 0.63875 0.06437 0.0
H1955 H 0.46911 0.64094 0.03806 0.0
C1956 C 0.5688 0.68288 0.05417 0.0
C1957 C 0.55741 0.70175 0.0594 0.0
C1958 C 0.55787 0.66351 0.05216 0.0
C1959 C 0.53563 0.66308 0.05544 0.0
C1960 C 0.52563 0.68079 0.0662 0.0
C1961 C 0.53635 0.70027 0.06759 0.0
C1962 C 0.50743 0.65844 0.99998 0.0
C1963 C 0.48698 0.6545 1.0089 0.0
C1964 C 0.52519 0.65603 0.01461 0.0
C1965 C 0.52234 0.65092 0.03863 0.0
C1966 C 0.50249 0.64293 0.04603 0.0
C1967 C 0.4848 0.6445 0.031 0.0
H1968 H 0.88588 0.22207 0.76957 0.0
H1969 H 0.92434 0.26112 0.81591 0.0
H1970 H 0.88286 0.25182 0.74196 0.0
H1971 H 0.92018 0.29116 0.78914 0.0
H1972 H 0.95533 0.27324 0.71064 0.0
H1973 H 0.92344 0.25637 0.72647 0.0
H1974 H 0.90317 0.31684 0.75588 0.0
H1975 H 0.93438 0.33404 0.73869 0.0
C1976 C 0.89238 0.23745 0.7747 0.0
C1977 C 0.90619 0.23918 0.79426 0.0
C1978 C 0.89048 0.25452 0.7589 0.0
C1979 C 0.90183 0.27349 0.76308 0.0
C1980 C 0.91146 0.27659 0.7853 0.0
C1981 C 0.91402 0.25933 0.80064 0.0
C1982 C 0.94338 0.28314 0.71921 0.0
C1983 C 0.94756 0.30468 0.72415 0.0
C1984 C 0.92499 0.27357 0.72815 0.0
C1985 C 0.91126 0.28524 0.74308 0.0
C1986 C 0.91357 0.30753 0.74454 0.0
C1987 C 0.93161 0.31727 0.73487 0.0
H1988 H 0.42704 0.19626 0.47286 0.0
H1989 H 0.48451 0.23038 0.45376 0.0
H1990 H 0.44815 0.16411 0.48029 0.0
H1991 H 0.50537 0.19782 0.45998 0.0
H1992 H 0.50802 0.17295 0.54282 0.0
H1993 H 0.4766 0.17806 0.51801 0.0
H1994 H 0.51046 0.15098 0.45875 0.0
H1995 H 0.54136 0.14406 0.48423 0.0
C1996 C 0.44398 0.19656 0.46884 0.0
C1997 C 0.45438 0.21593 0.46354 0.0
C1998 C 0.45595 0.17803 0.47286 0.0
C1999 C 0.47827 0.17867 0.47091 0.0
C2000 C 0.4881 0.19699 0.46146 0.0
C2001 C 0.47624 0.2157 0.45818 0.0
C2002 C 0.50822 0.16681 0.52493 0.0
C2003 C 0.52714 0.1588 0.51512 0.0
C2004 C 0.49023 0.16956 0.51074 0.0
C2005 C 0.4914 0.16518 0.48645 0.0
C2006 C 0.50926 0.15434 0.47746 0.0
C2007 C 0.52694 0.15061 0.49201 0.0
H2008 H 0.46148 0.78108 0.21324 0.0
H2009 H 0.43648 0.83888 0.24477 0.0
H2010 H 0.42903 0.76226 0.22418 0.0
H2011 H 0.4045 0.81968 0.25683 0.0
H2012 H 0.38748 0.72456 0.26035 0.0
H2013 H 0.38621 0.7566 0.23578 0.0
H2014 H 0.42234 0.79087 0.28858 0.0
H2015 H 0.42489 0.75856 0.31228 0.0
C2016 C 0.44855 0.79002 0.22136 0.0
C2017 C 0.45171 0.81109 0.22896 0.0
C2018 C 0.42981 0.77935 0.22742 0.0
C2019 C 0.41462 0.78946 0.24198 0.0
C2020 C 0.41605 0.81159 0.24571 0.0
C2021 C 0.43453 0.82247 0.23899 0.0
C2022 C 0.39419 0.73926 0.26726 0.0
C2023 C 0.4071 0.73904 0.28763 0.0
C2024 C 0.39323 0.75763 0.25325 0.0
C2025 C 0.40454 0.77596 0.26007 0.0
C2026 C 0.41354 0.77687 0.28284 0.0
C2027 C 0.41525 0.75832 0.29636 0.0
H2028 H 0.04273 0.72135 0.96173 0.0
H2029 H 0.06899 0.78363 0.94615 0.0
H2030 H 0.0098 0.73111 0.94257 0.0
H2031 H 0.03563 0.79354 0.9263 0.0
H2032 H 0.94817 0.75296 0.94804 0.0
H2033 H 0.97983 0.74689 0.92359 0.0
H2034 H 0.01051 0.80119 0.95679 0.0
H2035 H 0.97938 0.80714 0.98049 0.0
C2036 C 0.04161 0.73701 0.95355 0.0
C2037 C 0.0576 0.75239 0.95694 0.0
C2038 C 0.02281 0.7425 0.94194 0.0
C2039 C 0.01954 0.76373 0.93449 0.0
C2040 C 0.0374 0.77739 0.93303 0.0
C2041 C 0.05635 0.77187 0.94469 0.0
C2042 C 0.96165 0.76371 0.9497 0.0
C2043 C 0.96194 0.77967 0.96713 0.0
C2044 C 0.97959 0.7605 0.93544 0.0
C2045 C 0.99806 0.77301 0.93879 0.0
C2046 C 0.99684 0.79093 0.95375 0.0
C2047 C 0.9791 0.79404 0.96797 0.0
H2048 H 0.09345 0.24247 0.45476 0.0
H2049 H 0.12501 0.27402 0.39696 0.0
H2050 H 0.09136 0.20951 0.43169 0.0
H2051 H 0.12165 0.24182 0.373 0.0
H2052 H 0.11676 0.18125 0.33238 0.0
H2053 H 0.12893 0.207 0.3619 0.0
H2054 H 0.07101 0.1963 0.40185 0.0
H2055 H 0.05976 0.16995 0.37351 0.0
C2056 C 0.10014 0.24218 0.43714 0.0
C2057 C 0.10947 0.26061 0.4276 0.0
C2058 C 0.09874 0.22339 0.42371 0.0
C2059 C 0.10596 0.22285 0.40011 0.0
C2060 C 0.11614 0.24125 0.39108 0.0
C2061 C 0.11799 0.25984 0.40475 0.0
C2062 C 0.10698 0.18397 0.34786 0.0
C2063 C 0.08716 0.17362 0.35033 0.0
C2064 C 0.11381 0.199 0.3647 0.0
C2065 C 0.10086 0.20425 0.38428 0.0
C2066 C 0.08172 0.19277 0.38738 0.0
C2067 C 0.0751 0.1776 0.37083 0.0
H2068 H 0.103 0.82922 0.63613 0.0
H2069 H 0.06429 0.86275 0.58482 0.0
H2070 H 0.0787 0.84019 0.66735 0.0
H2071 H 0.03947 0.87342 0.61617 0.0
H2072 H 1.00267 0.89761 0.68127 0.0
H2073 H 0.03111 0.89303 0.65203 0.0
H2074 H 0.04401 0.82976 0.6795 0.0
H2075 H 0.01605 0.83447 0.70877 0.0
C2076 C 0.08946 0.8393 0.63153 0.0
C2077 C 0.08566 0.84502 0.60783 0.0
C2078 C 0.07532 0.84541 0.64949 0.0
C2079 C 0.0567 0.85732 0.64441 0.0
C2080 C 0.0536 0.86429 0.62091 0.0
C2081 C 0.06791 0.85824 0.60286 0.0
C2082 C 0.01179 0.88283 0.6813 0.0
C2083 C 0.00696 0.86644 0.69757 0.0
C2084 C 0.02803 0.88013 0.66433 0.0
C2085 C 0.04004 0.86101 0.66321 0.0
C2086 C 0.03549 0.84488 0.67988 0.0
C2087 C 0.01927 0.84754 0.69673 0.0
H2088 H 0.41301 0.82396 0.8444 0.0
H2089 H 0.46987 0.84802 0.87869 0.0
H2090 H 0.40749 0.79926 0.87734 0.0
H2091 H 0.46428 0.82362 0.9115 0.0
H2092 H 0.39624 0.76546 0.94736 0.0
H2093 H 0.39939 0.79457 0.91899 0.0
H2094 H 0.4679 0.78541 0.91735 0.0
H2095 H 0.46482 0.75638 0.94599 0.0
C2096 C 0.42398 0.82444 0.85922 0.0
C2097 C 0.44193 0.83794 0.85873 0.0
C2098 C 0.42088 0.8102 0.87812 0.0
C2099 C 0.43565 0.80915 0.89697 0.0
C2100 C 0.45284 0.8236 0.8971 0.0
C2101 C 0.45591 0.83778 0.8783 0.0
C2102 C 0.41205 0.76974 0.94118 0.0
C2103 C 0.43029 0.75841 0.949 0.0
C2104 C 0.41381 0.7864 0.92473 0.0
C2105 C 0.43386 0.79233 0.91569 0.0
C2106 C 0.45219 0.78146 0.92406 0.0
C2107 C 0.45043 0.76472 0.94047 0.0
H2108 H 0.47849 0.16409 0.21326 0.0
H2109 H 0.50738 0.11031 0.17757 0.0
H2110 H 0.45256 0.16775 0.18174 0.0
H2111 H 0.48075 0.11364 0.14579 0.0
H2112 H 0.45047 0.15077 0.08032 0.0
H2113 H 0.47237 0.1372 0.11301 0.0
H2114 H 0.42241 0.15457 0.16203 0.0
H2115 H 0.40113 0.16884 0.12956 0.0
C2116 C 0.47899 0.15264 0.19891 0.0
C2117 C 0.49514 0.1369 0.19809 0.0
C2118 C 0.46393 0.15467 0.18073 0.0
C2119 C 0.46436 0.14102 0.16094 0.0
C2120 C 0.47995 0.12461 0.16055 0.0
C2121 C 0.49509 0.12251 0.17895 0.0
C2122 C 0.44391 0.15104 0.098 0.0
C2123 C 0.42406 0.161 0.1023 0.0
C2124 C 0.45652 0.14331 0.11685 0.0
C2125 C 0.4495 0.14519 0.14043 0.0
C2126 C 0.42876 0.15338 0.14432 0.0
C2127 C 0.41637 0.16134 0.1256 0.0
H2128 H 0.14547 0.76327 0.08107 0.0
H2129 H 0.08527 0.78271 0.05018 0.0
H2130 H 0.14061 0.78961 0.11258 0.0
H2131 H 0.08013 0.80846 0.08176 0.0
H2132 H 0.07911 0.8633 0.13185 0.0
H2133 H 0.09008 0.84091 0.09894 0.0
H2134 H 0.12057 0.79702 0.14754 0.0
H2135 H 0.11005 0.82001 0.18058 0.0
C2136 C 0.1313 0.77329 0.08079 0.0
C2137 C 0.11583 0.77076 0.06282 0.0
C2138 C 0.12838 0.78832 0.0991 0.0
C2139 C 0.10992 0.80138 0.10005 0.0
C2140 C 0.09477 0.79914 0.0817 0.0
C2141 C 0.09769 0.78418 0.06345 0.0
C2142 C 0.08854 0.8491 0.13557 0.0
C2143 C 0.09363 0.84357 0.15905 0.0
C2144 C 0.09465 0.83602 0.11658 0.0
C2145 C 0.10589 0.81669 0.1203 0.0
C2146 C 0.11203 0.81173 0.14371 0.0
C2147 C 0.10604 0.825 0.16279 0.0
H2148 H 0.43405 0.84567 0.43914 0.0
H2149 H 0.38843 0.81151 0.39633 0.0
H2150 H 0.45376 0.85581 0.40386 0.0
H2151 H 0.40701 0.82291 0.3608 0.0
H2152 H 0.46057 0.81728 0.30724 0.0
H2153 H 0.43658 0.81386 0.3402 0.0
H2154 H 0.4602 0.87347 0.36893 0.0
H2155 H 0.48549 0.8761 0.3362 0.0
C2156 C 0.42779 0.84098 0.42207 0.0
C2157 C 0.40975 0.82766 0.42056 0.0
C2158 C 0.43911 0.84684 0.40168 0.0
C2159 C 0.43243 0.8399 0.37914 0.0
C2160 C 0.4133 0.82799 0.37769 0.0
C2161 C 0.40236 0.82166 0.3981 0.0
C2162 C 0.4606 0.82985 0.3204 0.0
C2163 C 0.47523 0.8469 0.31902 0.0
C2164 C 0.44653 0.82798 0.33943 0.0
C2165 C 0.4462 0.84333 0.35765 0.0
C2166 C 0.46014 0.86101 0.35567 0.0
C2167 C 0.47456 0.86269 0.3367 0.0
H2168 H 0.44053 0.21595 0.54362 0.0
H2169 H 0.38006 0.23839 0.57094 0.0
H2170 H 0.44403 0.19153 0.57664 0.0
H2171 H 0.38309 0.21312 0.60378 0.0
H2172 H 0.41021 0.18555 0.67453 0.0
H2173 H 0.40103 0.20669 0.6396 0.0
H2174 H 0.43385 0.1606 0.59568 0.0
H2175 H 0.44379 0.14024 0.63065 0.0
C2176 C 0.42769 0.21539 0.55642 0.0
C2177 C 0.41002 0.22933 0.55445 0.0
C2178 C 0.42963 0.20115 0.57548 0.0
C2179 C 0.41388 0.2001 0.59325 0.0
C2180 C 0.3958 0.21354 0.59083 0.0
C2181 C 0.39392 0.22796 0.57177 0.0
C2182 C 0.41503 0.1797 0.65735 0.0
C2183 C 0.42783 0.16119 0.65551 0.0
C2184 C 0.40979 0.19188 0.63718 0.0
C2185 C 0.41699 0.18577 0.61452 0.0
C2186 C 0.42852 0.16639 0.61269 0.0
C2187 C 0.43402 0.15446 0.63282 0.0
H2188 H 0.01443 0.21256 0.83382 0.0
H2189 H 0.01939 0.14353 0.83515 0.0
H2190 H 0.04584 0.21503 0.85925 0.0
H2191 H 0.05087 0.14608 0.86069 0.0
H2192 H 0.08477 0.16502 0.93339 0.0
H2193 H 0.05828 0.15756 0.90256 0.0
H2194 H 0.08488 0.20797 0.8596 0.0
H2195 H 0.11121 0.21541 0.89014 0.0
C2196 C 0.02234 0.19791 0.83931 0.0
C2197 C 0.01432 0.17786 0.83241 0.0
C2198 C 0.04044 0.19932 0.85382 0.0
C2199 C 0.05089 0.18073 0.86202 0.0
C2200 C 0.04311 0.16068 0.85481 0.0
C2201 C 0.02514 0.15926 0.84004 0.0
C2202 C 0.08542 0.17402 0.91705 0.0
C2203 C 0.1 0.19095 0.91439 0.0
C2204 C 0.07016 0.16982 0.89941 0.0
C2205 C 0.06919 0.1825 0.87884 0.0
C2206 C 0.08489 0.19823 0.87544 0.0
C2207 C 0.10011 0.20236 0.89293 0.0
H2208 H 0.88913 0.82946 0.72189 0.0
H2209 H 0.9166 0.86662 0.66546 0.0
H2210 H 0.86938 0.80812 0.69322 0.0
H2211 H 0.89829 0.84441 0.63659 0.0
H2212 H 0.86962 0.79918 0.58646 0.0
H2213 H 0.87044 0.82778 0.61581 0.0
H2214 H 0.88317 0.78079 0.6703 0.0
H2215 H 0.88133 0.75254 0.64142 0.0
C2216 C 0.89047 0.83335 0.70331 0.0
C2217 C 0.90449 0.8494 0.69574 0.0
C2218 C 0.87938 0.82102 0.68685 0.0
C2219 C 0.88282 0.82397 0.66251 0.0
C2220 C 0.89515 0.84159 0.65511 0.0
C2221 C 0.90575 0.85434 0.67165 0.0
C2222 C 0.87208 0.79501 0.60483 0.0
C2223 C 0.87583 0.77366 0.61157 0.0
C2224 C 0.87264 0.8114 0.62165 0.0
C2225 C 0.87716 0.80674 0.64546 0.0
C2226 C 0.87934 0.78516 0.65228 0.0
C2227 C 0.87855 0.76884 0.63559 0.0
H2228 H 0.98092 0.19919 0.48338 0.0
H2229 H 0.92754 0.21895 0.43999 0.0
H2230 H 0.99194 0.17387 0.45261 0.0
H2231 H 0.93904 0.19532 0.409 0.0
H2232 H 0.01957 0.15407 0.38009 0.0
H2233 H 0.00755 0.17099 0.41616 0.0
H2234 H 0.94177 0.1618 0.39432 0.0
H2235 H 0.95415 0.14663 0.35713 0.0
C2236 C 0.97168 0.1982 0.46722 0.0
C2237 C 0.95334 0.2109 0.46414 0.0
C2238 C 0.97797 0.18376 0.44951 0.0
C2239 C 0.9663 0.18219 0.42817 0.0
C2240 C 0.9481 0.19524 0.42529 0.0
C2241 C 0.9416 0.20912 0.44307 0.0
C2242 C 1.00252 0.15531 0.38322 0.0
C2243 C 0.98775 0.14927 0.36569 0.0
C2244 C 0.99556 0.16499 0.40406 0.0
C2245 C 0.97362 0.16839 0.40816 0.0
C2246 C 0.95883 0.16035 0.3915 0.0
C2247 C 0.96584 0.15134 0.37027 0.0
H2248 H 0.65869 0.23884 0.12744 0.0
H2249 H 0.62246 0.19629 0.08258 0.0
H2250 H 0.65199 0.21547 0.16108 0.0
H2251 H 0.61528 0.1733 0.11627 0.0
H2252 H 0.60024 0.13646 0.18094 0.0
H2253 H 0.62411 0.15045 0.15044 0.0
H2254 H 0.61687 0.21404 0.17948 0.0
H2255 H 0.59345 0.20017 0.20979 0.0
C2256 C 0.64981 0.22418 0.12463 0.0
C2257 C 0.64053 0.21969 0.10259 0.0
C2258 C 0.64596 0.21083 0.14389 0.0
C2259 C 0.63259 0.19292 0.14145 0.0
C2260 C 0.62561 0.18701 0.11876 0.0
C2261 C 0.62964 0.20027 0.09943 0.0
C2262 C 0.60419 0.15334 0.18107 0.0
C2263 C 0.59467 0.16731 0.19746 0.0
C2264 C 0.61782 0.16132 0.16361 0.0
C2265 C 0.62233 0.18334 0.16249 0.0
C2266 C 0.614 0.19695 0.17998 0.0
C2267 C 0.60031 0.18904 0.19722 0.0
H2268 H 0.52259 0.77985 0.9636 0.0
H2269 H 0.5581 0.83593 0.9843 0.0
H2270 H 0.51049 0.79849 0.92791 0.0
H2271 H 0.54589 0.85459 0.94887 0.0
H2272 H 0.54048 0.82009 0.85577 0.0
H2273 H 0.53995 0.80693 0.89608 0.0
H2274 H 0.51488 0.86755 0.92008 0.0
H2275 H 0.51494 0.88087 0.8793 0.0
C2276 C 0.52676 0.79654 0.96122 0.0
C2277 C 0.54135 0.80646 0.9765 0.0
C2278 C 0.52008 0.80711 0.94069 0.0
C2279 C 0.5277 0.82777 0.93549 0.0
C2280 C 0.53983 0.83869 0.95246 0.0
C2281 C 0.54673 0.82804 0.97277 0.0
C2282 C 0.53495 0.83077 0.86954 0.0
C2283 C 0.52777 0.85158 0.86424 0.0
C2284 C 0.53431 0.82306 0.8926 0.0
C2285 C 0.5268 0.83604 0.91104 0.0
C2286 C 0.5204 0.85714 0.90606 0.0
C2287 C 0.52069 0.8648 0.8828 0.0
H2288 H 0.8874 0.15742 0.82636 0.0
H2289 H 0.94127 0.14227 0.87092 0.0
H2290 H 0.8669 0.16852 0.86084 0.0
H2291 H 0.92159 0.15445 0.9052 0.0
H2292 H 0.87275 0.2325 0.90314 0.0
H2293 H 0.87475 0.20235 0.87669 0.0
H2294 H 0.89541 0.16172 0.93436 0.0
H2295 H 0.89402 0.19249 0.96091 0.0
C2296 C 0.89437 0.15529 0.84374 0.0
C2297 C 0.91587 0.14921 0.84613 0.0
C2298 C 0.8828 0.16198 0.86348 0.0
C2299 C 0.89293 0.16339 0.88565 0.0
C2300 C 0.91323 0.15383 0.88846 0.0
C2301 C 0.9246 0.14671 0.86876 0.0
C2302 C 0.87728 0.21706 0.91035 0.0
C2303 C 0.88388 0.21504 0.93393 0.0
C2304 C 0.87814 0.19954 0.89519 0.0
C2305 C 0.88557 0.1795 0.90324 0.0
C2306 C 0.89 0.17699 0.92746 0.0
C2307 C 0.88919 0.19463 0.94268 0.0
H2308 H 0.59236 0.11934 0.56022 0.0
H2309 H 0.62189 0.16226 0.60997 0.0
H2310 H 0.57806 0.09812 0.59268 0.0
H2311 H 0.60625 0.14246 0.64241 0.0
H2312 H 0.51937 0.11059 0.64062 0.0
H2313 H 0.54798 0.10965 0.61236 0.0
H2314 H 0.59433 0.11642 0.66876 0.0
H2315 H 0.5651 0.11838 0.69724 0.0
C2316 C 0.59648 0.12366 0.57818 0.0
C2317 C 0.60791 0.14244 0.58281 0.0
C2318 C 0.58808 0.11173 0.5968 0.0
C2319 C 0.59004 0.11916 0.62018 0.0
C2320 C 0.60416 0.13622 0.62475 0.0
C2321 C 0.61317 0.14769 0.60611 0.0
C2322 C 0.53566 0.11149 0.64712 0.0
C2323 C 0.53994 0.11533 0.67105 0.0
C2324 C 0.55227 0.1106 0.63085 0.0
C2325 C 0.57365 0.11335 0.63811 0.0
C2326 C 0.57805 0.11479 0.66245 0.0
C2327 C 0.56131 0.11587 0.67879 0.0
H2328 H 0.58948 0.8193 0.29246 0.0
H2329 H 0.54167 0.77165 0.30823 0.0
H2330 H 0.61216 0.80533 0.32397 0.0
H2331 H 0.56482 0.75729 0.33967 0.0
H2332 H 0.6212 0.73632 0.39056 0.0
H2333 H 0.6076 0.74321 0.35069 0.0
H2334 H 0.59543 0.80904 0.36956 0.0
H2335 H 0.60822 0.80203 0.40971 0.0
C2336 C 0.58425 0.80522 0.30202 0.0
C2337 C 0.56372 0.7967 0.29822 0.0
C2338 C 0.59722 0.7973 0.32004 0.0
C2339 C 0.59002 0.78053 0.33432 0.0
C2340 C 0.57065 0.77026 0.32873 0.0
C2341 C 0.55749 0.77835 0.31071 0.0
C2342 C 0.61612 0.7524 0.38603 0.0
C2343 C 0.61583 0.76874 0.40318 0.0
C2344 C 0.60822 0.75623 0.3633 0.0
C2345 C 0.60056 0.7766 0.35722 0.0
C2346 C 0.60145 0.79322 0.3739 0.0
C2347 C 0.60877 0.78926 0.39679 0.0
H2348 H 0.01048 0.8879 0.12869 0.0
H2349 H 0.95753 0.89887 0.17615 0.0
H2350 H 0.98609 0.88418 0.09622 0.0
H2351 H 0.93271 0.89665 0.14294 0.0
H2352 H 0.94366 0.87134 0.039 0.0
H2353 H 0.96164 0.89333 0.06848 0.0
H2354 H 0.91902 0.86842 0.12205 0.0
H2355 H 0.90005 0.8483 0.09205 0.0
C2356 C 0.99357 0.89021 0.13207 0.0
C2357 C 0.98588 0.893 0.15513 0.0
C2358 C 0.97943 0.88834 0.11322 0.0
C2359 C 0.95719 0.88966 0.11682 0.0
C2360 C 0.94966 0.89482 0.13956 0.0
C2361 C 0.96388 0.89625 0.15861 0.0
C2362 C 0.93787 0.8712 0.05701 0.0
C2363 C 0.92082 0.85798 0.0635 0.0
C2364 C 0.94822 0.88362 0.07398 0.0
C2365 C 0.94236 0.88218 0.09795 0.0
C2366 C 0.92407 0.87019 0.1039 0.0
C2367 C 0.91324 0.85843 0.08674 0.0
H2368 H 0.55494 0.63441 0.88387 0.0
H2369 H 0.59121 0.67868 0.84156 0.0
H2370 H 0.56622 0.65295 0.91951 0.0
H2371 H 0.60121 0.69842 0.87686 0.0
H2372 H 0.56265 0.70632 0.9736 0.0
H2373 H 0.55856 0.68243 0.94059 0.0
H2374 H 0.6185 0.70485 0.91169 0.0
H2375 H 0.62173 0.73013 0.94439 0.0
C2376 C 0.56547 0.64808 0.88223 0.0
C2377 C 0.57216 0.65503 0.85986 0.0
C2378 C 0.57175 0.65901 0.90271 0.0
C2379 C 0.58432 0.67774 0.90144 0.0
C2380 C 0.59177 0.68406 0.87898 0.0
C2381 C 0.58596 0.67273 0.85855 0.0
C2382 C 0.57517 0.70606 0.96041 0.0
C2383 C 0.59248 0.72038 0.96174 0.0
C2384 C 0.5729 0.69206 0.94132 0.0
C2385 C 0.58811 0.69144 0.92299 0.0
C2386 C 0.60608 0.70502 0.92497 0.0
C2387 C 0.60813 0.71942 0.94396 0.0
H2388 H 0.51832 0.37782 0.18508 0.0
H2389 H 0.55977 0.34364 0.23319 0.0
H2390 H 0.543 0.37084 0.15295 0.0
H2391 H 0.5853 0.33776 0.20138 0.0
H2392 H 0.61019 0.30411 0.1357 0.0
H2393 H 0.5902 0.31656 0.16929 0.0
H2394 H 0.5742 0.37479 0.13175 0.0
H2395 H 0.59347 0.36148 0.09715 0.0
C2396 C 0.53303 0.36928 0.18898 0.0
C2397 C 0.53688 0.36113 0.21181 0.0
C2398 C 0.54737 0.36533 0.17042 0.0
C2399 C 0.56627 0.35338 0.17411 0.0
C2400 C 0.57071 0.34642 0.19738 0.0
C2401 C 0.55614 0.35001 0.21584 0.0
C2402 C 0.60266 0.31973 0.13451 0.0
C2403 C 0.60346 0.33166 0.1134 0.0
C2404 C 0.5912 0.32704 0.15411 0.0
C2405 C 0.58028 0.3468 0.15364 0.0
C2406 C 0.58193 0.35929 0.13288 0.0
C2407 C 0.59324 0.35178 0.113 0.0
H2408 H 0.88878 0.29822 0.4478 0.0
H2409 H 0.95406 0.31276 0.46677 0.0
H2410 H 0.89197 0.32111 0.41291 0.0
H2411 H 0.95763 0.33457 0.43172 0.0
H2412 H 0.91643 0.33855 0.33743 0.0
H2413 H 0.90736 0.32188 0.3751 0.0
H2414 H 0.95023 0.36532 0.41094 0.0
H2415 H 0.96003 0.38103 0.3732 0.0
C2416 C 0.90372 0.3065 0.44474 0.0
C2417 C 0.92116 0.30354 0.46021 0.0
C2418 C 0.90566 0.31947 0.42451 0.0
C2419 C 0.92513 0.32977 0.41911 0.0
C2420 C 0.94222 0.32739 0.4352 0.0
C2421 C 0.94022 0.31465 0.45541 0.0
C2422 C 0.92359 0.34479 0.35343 0.0
C2423 C 0.9391 0.36102 0.35221 0.0
C2424 C 0.91836 0.33523 0.37517 0.0
C2425 C 0.9283 0.34185 0.39634 0.0
C2426 C 0.94268 0.35917 0.39513 0.0
C2427 C 0.94816 0.36842 0.37343 0.0
H2428 H 0.9781 0.66324 0.72414 0.0
H2429 H 0.00984 0.61271 0.68576 0.0
H2430 H 0.95355 0.66853 0.69169 0.0
H2431 H 0.98432 0.61733 0.65318 0.0
H2432 H 0.95104 0.65023 0.58808 0.0
H2433 H 0.97379 0.63863 0.62099 0.0
H2434 H 0.9247 0.65831 0.67007 0.0
H2435 H 0.90281 0.67088 0.63733 0.0
C2436 C 0.9796 0.65282 0.70895 0.0
C2437 C 0.99616 0.63747 0.7079 0.0
C2438 C 0.96523 0.65579 0.69012 0.0
C2439 C 0.96653 0.64338 0.66935 0.0
C2440 C 0.98272 0.6275 0.66854 0.0
C2441 C 0.9973 0.62462 0.68746 0.0
C2442 C 0.94495 0.65162 0.60589 0.0
C2443 C 0.92501 0.66154 0.60992 0.0
C2444 C 0.95808 0.64499 0.62494 0.0
C2445 C 0.95158 0.64784 0.64865 0.0
C2446 C 0.93091 0.65642 0.65238 0.0
C2447 C 0.91806 0.66338 0.63345 0.0
H2448 H 0.60701 0.30895 0.68889 0.0
H2449 H 0.5709 0.34571 0.6379 0.0
H2450 H 0.61494 0.28219 0.65833 0.0
H2451 H 0.57869 0.31918 0.60773 0.0
H2452 H 0.56751 0.2529 0.57382 0.0
H2453 H 0.56551 0.28224 0.60209 0.0
H2454 H 0.6324 0.27375 0.61882 0.0
H2455 H 0.63448 0.24432 0.59029 0.0
C2456 C 0.60134 0.31171 0.67107 0.0
C2457 C 0.5882 0.32952 0.66602 0.0
C2458 C 0.60576 0.29628 0.65354 0.0
C2459 C 0.59706 0.29824 0.63062 0.0
C2460 C 0.58525 0.31682 0.62526 0.0
C2461 C 0.58096 0.33219 0.6426 0.0
C2462 C 0.58188 0.25735 0.58331 0.0
C2463 C 0.60117 0.24617 0.57958 0.0
C2464 C 0.58076 0.27429 0.59953 0.0
C2465 C 0.59882 0.2805 0.61279 0.0
C2466 C 0.61815 0.26939 0.60905 0.0
C2467 C 0.61936 0.25259 0.59253 0.0
H2468 H 0.92937 0.35917 0.92177 0.0
H2469 H 0.90877 0.30162 0.8863 0.0
H2470 H 0.94751 0.37076 0.88565 0.0
H2471 H 0.92721 0.31269 0.8509 0.0
H2472 H 0.95218 0.33825 0.78427 0.0
H2473 H 0.92887 0.33549 0.81843 0.0
H2474 H 0.97842 0.36275 0.86231 0.0
H2475 H 1.00146 0.36631 0.82768 0.0
C2476 C 0.92841 0.34912 0.90623 0.0
C2477 C 0.91753 0.32941 0.90712 0.0
C2478 C 0.93903 0.35567 0.88553 0.0
C2479 C 0.93899 0.34273 0.86511 0.0
C2480 C 0.92744 0.32341 0.8659 0.0
C2481 C 0.91688 0.31692 0.88645 0.0
C2482 C 0.95792 0.34419 0.80109 0.0
C2483 C 0.97877 0.35243 0.80318 0.0
C2484 C 0.9446 0.34237 0.82085 0.0
C2485 C 0.9518 0.34837 0.84349 0.0
C2486 C 0.97215 0.35799 0.84529 0.0
C2487 C 0.98543 0.36009 0.82536 0.0
H2488 H 0.92252 0.74509 0.05109 0.0
H2489 H 0.86435 0.76824 0.0832 0.0
H2490 H 0.92637 0.71856 0.08209 0.0
H2491 H 0.86801 0.74112 0.11439 0.0
H2492 H 0.92447 0.66261 0.13014 0.0
H2493 H 0.91359 0.68635 0.09825 0.0
H2494 H 0.88925 0.73166 0.14912 0.0
H2495 H 0.89978 0.70738 0.18126 0.0
C2496 C 0.91026 0.74431 0.06455 0.0
C2497 C 0.89305 0.75895 0.06434 0.0
C2498 C 0.91243 0.72888 0.08246 0.0
C2499 C 0.89751 0.72739 0.10103 0.0
C2500 C 0.87998 0.74174 0.10063 0.0
C2501 C 0.87773 0.7572 0.08252 0.0
C2502 C 0.91635 0.67741 0.13462 0.0
C2503 C 0.91308 0.68295 0.15845 0.0
C2504 C 0.9103 0.69125 0.11621 0.0
C2505 C 0.90092 0.71137 0.12083 0.0
C2506 C 0.89637 0.71638 0.14464 0.0
C2507 C 0.90234 0.70236 0.16318 0.0
H2508 H 0.60471 0.69839 0.3963 0.0
H2509 H 0.57139 0.65401 0.44158 0.0
H2510 H 0.57853 0.69238 0.36523 0.0
H2511 H 0.54507 0.64782 0.41008 0.0
H2512 H 0.50827 0.63367 0.34026 0.0
H2513 H 0.53813 0.63461 0.36827 0.0
H2514 H 0.54033 0.70344 0.36206 0.0
H2515 H 0.51045 0.70258 0.33426 0.0
C2516 C 0.59206 0.68692 0.39948 0.0
C2517 C 0.59014 0.67681 0.42163 0.0
C2518 C 0.57691 0.68363 0.38165 0.0
C2519 C 0.55941 0.66997 0.38527 0.0
C2520 C 0.55835 0.65849 0.4067 0.0
C2521 C 0.57353 0.66191 0.42473 0.0
C2522 C 0.51525 0.64902 0.34466 0.0
C2523 C 0.5069 0.66807 0.33488 0.0
C2524 C 0.53229 0.64952 0.36088 0.0
C2525 C 0.54169 0.66907 0.36745 0.0
C2526 C 0.53366 0.68806 0.35724 0.0
C2527 C 0.51644 0.68758 0.34132 0.0
H2528 H 0.45909 0.29534 0.22553 0.0
H2529 H 0.42115 0.35198 0.2116 0.0
H2530 H 0.43842 0.27579 0.19597 0.0
H2531 H 0.40049 0.33241 0.18235 0.0
H2532 H 0.40105 0.30156 0.10698 0.0
H2533 H 0.41171 0.31997 0.14295 0.0
H2534 H 0.40298 0.26165 0.18279 0.0
H2535 H 0.39237 0.24312 0.14673 0.0
C2536 C 0.44601 0.30345 0.21664 0.0
C2537 C 0.44205 0.32531 0.22061 0.0
C2538 C 0.43412 0.29224 0.19975 0.0
C2539 C 0.41805 0.30269 0.18659 0.0
C2540 C 0.41304 0.32406 0.19189 0.0
C2541 C 0.42488 0.33524 0.20871 0.0
C2542 C 0.40094 0.29276 0.12347 0.0
C2543 C 0.39609 0.27084 0.12392 0.0
C2544 C 0.40697 0.30333 0.14414 0.0
C2545 C 0.40836 0.29218 0.16568 0.0
C2546 C 0.4023 0.27057 0.1664 0.0
C2547 C 0.39609 0.26002 0.14574 0.0
H2548 H 0.44265 0.65659 0.82543 0.0
H2549 H 0.46799 0.59811 0.85509 0.0
H2550 H 0.41774 0.65962 0.8579 0.0
H2551 H 0.4418 0.60003 0.88688 0.0
H2552 H 0.43453 0.6392 0.95586 0.0
H2553 H 0.44307 0.62078 0.91984 0.0
H2554 H 0.39056 0.65309 0.88456 0.0
H2555 H 0.38278 0.67252 0.92106 0.0
C2556 C 0.44225 0.64387 0.83844 0.0
C2557 C 0.45763 0.62746 0.83818 0.0
C2558 C 0.42775 0.64547 0.85709 0.0
C2559 C 0.42805 0.63041 0.87564 0.0
C2560 C 0.44162 0.61243 0.8735 0.0
C2561 C 0.45656 0.6112 0.85522 0.0
C2562 C 0.42431 0.6418 0.94063 0.0
C2563 C 0.4084 0.65768 0.94103 0.0
C2564 C 0.42911 0.63107 0.91979 0.0
C2565 C 0.418 0.63589 0.89879 0.0
C2566 C 0.39997 0.64951 0.90015 0.0
C2567 C 0.39525 0.66043 0.92114 0.0
H2568 H 0.10847 0.65729 0.71241 0.0
H2569 H 0.06779 0.71201 0.72614 0.0
H2570 H 0.12764 0.67767 0.68263 0.0
H2571 H 0.08705 0.73237 0.69618 0.0
H2572 H 0.12935 0.76677 0.64547 0.0
H2573 H 0.12195 0.74785 0.68218 0.0
H2574 H 0.1137 0.68905 0.64319 0.0
H2575 H 0.12106 0.70788 0.60645 0.0
C2576 C 0.10386 0.67381 0.7094 0.0
C2577 C 0.0863 0.68293 0.72128 0.0
C2578 C 0.11487 0.68543 0.69233 0.0
C2579 C 0.10861 0.70643 0.68686 0.0
C2580 C 0.09227 0.7162 0.70013 0.0
C2581 C 0.08119 0.70453 0.71724 0.0
C2582 C 0.12642 0.7497 0.64474 0.0
C2583 C 0.12543 0.73886 0.62299 0.0
C2584 C 0.12212 0.73893 0.66579 0.0
C2585 C 0.11702 0.71709 0.66549 0.0
C2586 C 0.1177 0.7059 0.64396 0.0
C2587 C 0.12184 0.71669 0.62289 0.0
H2588 H 0.12799 0.33758 0.38248 0.0
H2589 H 0.11457 0.3901 0.42942 0.0
H2590 H 0.11428 0.35817 0.34945 0.0
H2591 H 0.10147 0.41137 0.39618 0.0
H2592 H 0.03613 0.40515 0.35535 0.0
H2593 H 0.06699 0.40315 0.381 0.0
H2594 H 0.10678 0.38592 0.32157 0.0
H2595 H 0.07542 0.38736 0.29581 0.0
C2596 C 0.12349 0.35415 0.38537 0.0
C2597 C 0.12215 0.36229 0.40834 0.0
C2598 C 0.11553 0.36604 0.36641 0.0
C2599 C 0.10602 0.3862 0.37029 0.0
C2600 C 0.10813 0.39565 0.39274 0.0
C2601 C 0.11592 0.38363 0.41174 0.0
C2602 C 0.05153 0.40143 0.3476 0.0
C2603 C 0.0532 0.39573 0.32372 0.0
C2604 C 0.06942 0.40057 0.3623 0.0
C2605 C 0.08943 0.39402 0.35346 0.0
C2606 C 0.09154 0.39065 0.32902 0.0
C2607 C 0.07356 0.39147 0.31427 0.0
H2608 H 0.37911 0.6635 0.32252 0.0
H2609 H 0.42901 0.63969 0.36817 0.0
H2610 H 0.35845 0.67473 0.35684 0.0
H2611 H 0.40937 0.65212 0.40243 0.0
H2612 H 0.38146 0.6875 0.46057 0.0
H2613 H 0.38281 0.65927 0.43079 0.0
H2614 H 0.36739 0.70598 0.37686 0.0
H2615 H 0.36526 0.7336 0.40644 0.0
C2616 C 0.38511 0.65972 0.34 0.0
C2617 C 0.40558 0.65086 0.34287 0.0
C2618 C 0.37349 0.66646 0.35968 0.0
C2619 C 0.38263 0.66524 0.38239 0.0
C2620 C 0.40175 0.65349 0.38531 0.0
C2621 C 0.41309 0.64625 0.36563 0.0
C2622 C 0.37777 0.69154 0.44241 0.0
C2623 C 0.37383 0.71288 0.43575 0.0
C2624 C 0.3786 0.67536 0.42532 0.0
C2625 C 0.3756 0.68028 0.40128 0.0
C2626 C 0.36963 0.70132 0.39511 0.0
C2627 C 0.36869 0.71737 0.41213 0.0
H2628 H 0.04812 0.62279 0.16525 0.0
H2629 H 0.99563 0.64551 0.12212 0.0
H2630 H 0.07226 0.62664 0.13172 0.0
H2631 H 0.01957 0.65081 0.08953 0.0
H2632 H 0.06262 0.66427 0.03237 0.0
H2633 H 0.04217 0.64216 0.05966 0.0
H2634 H 0.08851 0.65559 0.11464 0.0
H2635 H 0.10956 0.67594 0.0868 0.0
C2636 C 0.04172 0.62839 0.14855 0.0
C2637 C 0.02012 0.63431 0.14646 0.0
C2638 C 0.05555 0.63075 0.12935 0.0
C2639 C 0.0481 0.63956 0.10793 0.0
C2640 C 0.02608 0.64379 0.10547 0.0
C2641 C 0.01226 0.64097 0.12441 0.0
C2642 C 0.06858 0.66195 0.05017 0.0
C2643 C 0.08738 0.67206 0.05769 0.0
C2644 C 0.05684 0.64942 0.06589 0.0
C2645 C 0.06326 0.6475 0.08968 0.0
C2646 C 0.08299 0.6564 0.09654 0.0
C2647 C 0.09504 0.66833 0.08061 0.0
H2648 H 0.09007 0.31196 0.77913 0.0
H2649 H 0.03452 0.27867 0.80525 0.0
H2650 H 0.11023 0.30122 0.81424 0.0
H2651 H 0.05464 0.26823 0.84064 0.0
H2652 H 0.13955 0.26669 0.88183 0.0
H2653 H 0.12357 0.26848 0.84218 0.0
H2654 H 0.06717 0.29826 0.87136 0.0
H2655 H 0.08304 0.29708 0.91052 0.0
C2656 C 0.08248 0.30157 0.79192 0.0
C2657 C 0.06074 0.29616 0.78953 0.0
C2658 C 0.094 0.2955 0.81203 0.0
C2659 C 0.08385 0.28424 0.83025 0.0
C2660 C 0.06273 0.27709 0.82685 0.0
C2661 C 0.05131 0.28283 0.8065 0.0
C2662 C 0.12389 0.27392 0.87969 0.0
C2663 C 0.11263 0.28179 0.89939 0.0
C2664 C 0.1147 0.27474 0.85708 0.0
C2665 C 0.09396 0.283 0.8539 0.0
C2666 C 0.08299 0.29132 0.87344 0.0
C2667 C 0.09226 0.29091 0.89584 0.0
H2668 H 0.47884 0.30781 0.54203 0.0
H2669 H 0.42012 0.34445 0.54554 0.0
H2670 H 0.49408 0.33012 0.57323 0.0
H2671 H 0.43534 0.3666 0.57658 0.0
H2672 H 0.45629 0.36311 0.65706 0.0
H2673 H 0.44277 0.35393 0.61803 0.0
H2674 H 0.50472 0.36719 0.58783 0.0
H2675 H 0.5183 0.37655 0.62682 0.0
C2676 C 0.46947 0.32102 0.54889 0.0
C2677 C 0.44816 0.32407 0.54174 0.0
C2678 C 0.47818 0.33382 0.56672 0.0
C2679 C 0.46569 0.34982 0.57755 0.0
C2680 C 0.44515 0.35413 0.56879 0.0
C2681 C 0.43648 0.34143 0.55102 0.0
C2682 C 0.46687 0.36466 0.64204 0.0
C2683 C 0.48843 0.37021 0.64512 0.0
C2684 C 0.45911 0.35947 0.61964 0.0
C2685 C 0.47282 0.35962 0.59998 0.0
C2686 C 0.49392 0.36673 0.60276 0.0
C2687 C 0.50162 0.37216 0.6251 0.0
loop_
_geom_bond_atom_site_label_1
_geom_bond_atom_site_label_2
_geom_bond_distance
_geom_bond_site_symmetry_2
_ccdc_geom_bond_type
Co0 O3 1.970 . S
Co0 N17 1.989 . S
Co0 O25 1.967 . S
Co0 O32 1.920 . S
Co1 O4 1.966 . S
Co1 N10 2.022 . S
Co1 N18 1.993 . S
Co1 O26 1.941 . S
C2 O3 1.258 . S
C2 O4 1.263 . S
O3 Co0 1.970 . S
O3 C2 1.258 . S
O4 Co1 1.966 . S
O4 C2 1.263 . S
C5 O6 1.232 . S
C5 O32 1.294 1_655 S
O6 C5 1.232 . S
C7 C9 1.400 . S
C7 N10 1.351 . S
C7 C12 1.501 . S
C8 C9 1.387 . S
C8 N11 1.341 . S
C9 C7 1.400 . S
C9 C8 1.387 . S
N10 Co1 2.022 . S
N10 C7 1.351 . S
N10 N11 1.365 . S
N11 C8 1.341 . S
N11 N10 1.365 . S
N11 H31 0.862 . S
C12 C7 1.501 . S
C12 H13 0.961 . S
C12 H14 0.961 . S
C12 H15 0.960 . S
H13 C12 0.961 . S
H14 C12 0.961 . S
H15 C12 0.960 . S
C16 N17 1.342 . S
C16 C20 1.401 . S
C16 C21 1.499 . S
N17 Co0 1.989 . S
N17 C16 1.342 . S
N17 N18 1.388 . S
N18 Co1 1.993 . S
N18 N17 1.388 . S
N18 C19 1.346 . S
C19 N18 1.346 . S
C19 C20 1.396 . S
C19 C29 1.510 . S
C20 C16 1.401 . S
C20 C19 1.396 . S
C21 C16 1.499 . S
C21 H22 0.959 . S
C21 H23 0.960 . S
C21 H24 0.961 . S
H22 C21 0.959 . S
H23 C21 0.960 . S
H24 C21 0.961 . S
O25 Co0 1.967 . S
O25 C33 1.258 . S
O26 Co1 1.941 . S
O26 C33 1.266 . S
H27 C29 0.959 . S
H28 C29 0.961 . S
C29 C19 1.510 . S
C29 H27 0.959 . S
C29 H28 0.961 . S
C29 H30 0.960 . S
H30 C29 0.960 . S
H31 N11 0.862 . S
O32 Co0 1.920 . S
O32 C5 1.294 1_455 S
C33 O25 1.258 . S
C33 O26 1.266 . S
Co34 O37 1.970 . S
Co34 N51 1.989 . S
Co34 O59 1.967 . S
Co34 O66 1.920 . S
Co35 O38 1.966 . S
Co35 N44 2.022 . S
Co35 N52 1.993 . S
Co35 O60 1.941 . S
C36 O37 1.258 . S
C36 O38 1.263 . S
O37 Co34 1.970 . S
O37 C36 1.258 . S
O38 Co35 1.966 . S
O38 C36 1.263 . S
C39 O40 1.235 . S
C39 O66 1.289 . S
O40 C39 1.235 . S
C41 C43 1.400 . S
C41 N44 1.351 . S
C41 C46 1.501 . S
C42 C43 1.387 . S
C42 N45 1.341 . S
C43 C41 1.400 . S
C43 C42 1.387 . S
N44 Co35 2.022 . S
N44 C41 1.351 . S
N44 N45 1.365 . S
N45 C42 1.341 . S
N45 N44 1.365 . S
N45 H65 0.862 . S
C46 C41 1.501 . S
C46 H47 0.961 . S
C46 H48 0.961 . S
C46 H49 0.960 . S
H47 C46 0.961 . S
H48 C46 0.961 . S
H49 C46 0.960 . S
C50 N51 1.342 . S
C50 C54 1.401 . S
C50 C55 1.499 . S
N51 Co34 1.989 . S
N51 C50 1.342 . S
N51 N52 1.388 . S
N52 Co35 1.993 . S
N52 N51 1.388 . S
N52 C53 1.346 . S
C53 N52 1.346 . S
C53 C54 1.396 . S
C53 C63 1.510 . S
C54 C50 1.401 . S
C54 C53 1.396 . S
C55 C50 1.499 . S
C55 H56 0.959 . S
C55 H57 0.960 . S
C55 H58 0.961 . S
H56 C55 0.959 . S
H57 C55 0.960 . S
H58 C55 0.961 . S
O59 Co34 1.967 . S
O59 C67 1.258 . S
O60 Co35 1.941 . S
O60 C67 1.266 . S
H61 C63 0.959 . S
H62 C63 0.961 . S
C63 C53 1.510 . S
C63 H61 0.959 . S
C63 H62 0.961 . S
C63 H64 0.960 . S
H64 C63 0.960 . S
H65 N45 0.862 . S
O66 Co34 1.920 . S
O66 C39 1.289 . S
C67 O59 1.258 . S
C67 O60 1.266 . S
Co68 O71 1.970 . S
Co68 N85 1.989 . S
Co68 O93 1.967 . S
Co68 O100 1.920 . S
Co69 O72 1.966 . S
Co69 N78 2.022 . S
Co69 N86 1.993 . S
Co69 O94 1.941 . S
C70 O71 1.258 . S
C70 O72 1.263 . S
O71 Co68 1.970 . S
O71 C70 1.258 . S
O72 Co69 1.966 . S
O72 C70 1.263 . S
C73 O74 1.235 . S
C73 O100 1.289 . S
O74 C73 1.235 . S
C75 C77 1.400 . S
C75 N78 1.351 . S
C75 C80 1.501 . S
C76 C77 1.387 . S
C76 N79 1.341 . S
C77 C75 1.400 . S
C77 C76 1.387 . S
N78 Co69 2.022 . S
N78 C75 1.351 . S
N78 N79 1.365 . S
N79 C76 1.341 . S
N79 N78 1.365 . S
N79 H99 0.862 . S
C80 C75 1.501 . S
C80 H81 0.961 . S
C80 H82 0.961 . S
C80 H83 0.960 . S
H81 C80 0.961 . S
H82 C80 0.961 . S
H83 C80 0.960 . S
C84 N85 1.342 . S
C84 C88 1.401 . S
C84 C89 1.499 . S
N85 Co68 1.989 . S
N85 C84 1.342 . S
N85 N86 1.388 . S
N86 Co69 1.993 . S
N86 N85 1.388 . S
N86 C87 1.346 . S
C87 N86 1.346 . S
C87 C88 1.396 . S
C87 C97 1.510 . S
C88 C84 1.401 . S
C88 C87 1.396 . S
C89 C84 1.499 . S
C89 H90 0.959 . S
C89 H91 0.960 . S
C89 H92 0.961 . S
H90 C89 0.959 . S
H91 C89 0.960 . S
H92 C89 0.961 . S
O93 Co68 1.967 . S
O93 C101 1.258 . S
O94 Co69 1.941 . S
O94 C101 1.266 . S
H95 C97 0.959 . S
H96 C97 0.961 . S
C97 C87 1.510 . S
C97 H95 0.959 . S
C97 H96 0.961 . S
C97 H98 0.960 . S
H98 C97 0.960 . S
H99 N79 0.862 . S
O100 Co68 1.920 . S
O100 C73 1.289 . S
C101 O93 1.258 . S
C101 O94 1.266 . S
Co102 O105 1.970 . S
Co102 N119 1.989 . S
Co102 O127 1.967 . S
Co102 O134 1.920 . S
Co103 O106 1.966 . S
Co103 N112 2.022 1_554 S
Co103 N120 1.993 . S
Co103 O128 1.941 . S
C104 O105 1.258 . S
C104 O106 1.263 . S
O105 Co102 1.970 . S
O105 C104 1.258 . S
O106 Co103 1.966 . S
O106 C104 1.263 . S
C107 O108 1.235 . S
C107 O134 1.289 . S
O108 C107 1.235 . S
C109 C111 1.400 . S
C109 N112 1.351 . S
C109 C114 1.501 . S
C110 C111 1.387 . S
C110 N113 1.341 . S
C111 C109 1.400 . S
C111 C110 1.387 . S
N112 Co103 2.022 1_556 S
N112 C109 1.351 . S
N112 N113 1.365 . S
N113 C110 1.341 . S
N113 N112 1.365 . S
N113 H133 0.862 1_556 S
C114 C109 1.501 . S
C114 H115 0.961 . S
C114 H116 0.961 . S
C114 H117 0.960 . S
H115 C114 0.961 . S
H116 C114 0.961 . S
H117 C114 0.960 . S
C118 N119 1.342 . S
C118 C122 1.401 . S
C118 C123 1.499 . S
N119 Co102 1.989 . S
N119 C118 1.342 . S
N119 N120 1.388 . S
N120 Co103 1.993 . S
N120 N119 1.388 . S
N120 C121 1.346 . S
C121 N120 1.346 . S
C121 C122 1.396 . S
C121 C131 1.510 1_554 S
C122 C118 1.401 . S
C122 C121 1.396 . S
C123 C118 1.499 . S
C123 H124 0.959 . S
C123 H125 0.960 . S
C123 H126 0.961 . S
H124 C123 0.959 . S
H125 C123 0.960 . S
H126 C123 0.961 . S
O127 Co102 1.967 . S
O127 C135 1.258 . S
O128 Co103 1.941 . S
O128 C135 1.266 . S
H129 C131 0.959 . S
H130 C131 0.961 . S
C131 C121 1.510 1_556 S
C131 H129 0.959 . S
C131 H130 0.961 . S
C131 H132 0.960 . S
H132 C131 0.960 . S
H133 N113 0.862 1_554 S
O134 Co102 1.920 . S
O134 C107 1.289 . S
C135 O127 1.258 . S
C135 O128 1.266 . S
Co136 O139 1.970 . S
Co136 N153 1.989 . S
Co136 O161 1.967 . S
Co136 O168 1.920 . S
Co137 O140 1.966 . S
Co137 N146 2.022 . S
Co137 N154 1.993 . S
Co137 O162 1.941 . S
C138 O139 1.258 . S
C138 O140 1.263 . S
O139 Co136 1.970 . S
O139 C138 1.258 . S
O140 Co137 1.966 . S
O140 C138 1.263 . S
C141 O142 1.232 . S
C141 O168 1.294 1_655 S
O142 C141 1.232 . S
C143 C145 1.400 . S
C143 N146 1.351 . S
C143 C148 1.501 . S
C144 C145 1.387 . S
C144 N147 1.341 . S
C145 C143 1.400 . S
C145 C144 1.387 . S
N146 Co137 2.022 . S
N146 C143 1.351 . S
N146 N147 1.365 . S
N147 C144 1.341 . S
N147 N146 1.365 . S
N147 H167 0.862 . S
C148 C143 1.501 . S
C148 H149 0.961 . S
C148 H150 0.961 . S
C148 H151 0.960 . S
H149 C148 0.961 . S
H150 C148 0.961 . S
H151 C148 0.960 . S
C152 N153 1.342 . S
C152 C156 1.401 . S
C152 C157 1.499 . S
N153 Co136 1.989 . S
N153 C152 1.342 . S
N153 N154 1.388 . S
N154 Co137 1.993 . S
N154 N153 1.388 . S
N154 C155 1.346 . S
C155 N154 1.346 . S
C155 C156 1.396 . S
C155 C165 1.510 . S
C156 C152 1.401 . S
C156 C155 1.396 . S
C157 C152 1.499 . S
C157 H158 0.959 . S
C157 H159 0.960 . S
C157 H160 0.961 . S
H158 C157 0.959 . S
H159 C157 0.960 . S
H160 C157 0.961 . S
O161 Co136 1.967 . S
O161 C169 1.258 . S
O162 Co137 1.941 . S
O162 C169 1.266 . S
H163 C165 0.959 . S
H164 C165 0.961 . S
C165 C155 1.510 . S
C165 H163 0.959 . S
C165 H164 0.961 . S
C165 H166 0.960 . S
H166 C165 0.960 . S
H167 N147 0.862 . S
O168 Co136 1.920 . S
O168 C141 1.294 1_455 S
C169 O161 1.258 . S
C169 O162 1.266 . S
Co170 O173 1.970 . S
Co170 N187 1.989 . S
Co170 O195 1.967 . S
Co170 O202 1.920 . S
Co171 O174 1.966 . S
Co171 N180 2.022 . S
Co171 N188 1.993 . S
Co171 O196 1.941 . S
C172 O173 1.258 . S
C172 O174 1.263 . S
O173 Co170 1.970 . S
O173 C172 1.258 . S
O174 Co171 1.966 . S
O174 C172 1.263 . S
C175 O176 1.235 . S
C175 O202 1.289 . S
O176 C175 1.235 . S
C177 C179 1.400 . S
C177 N180 1.351 . S
C177 C182 1.501 . S
C178 C179 1.387 . S
C178 N181 1.341 . S
C179 C177 1.400 . S
C179 C178 1.387 . S
N180 Co171 2.022 . S
N180 C177 1.351 . S
N180 N181 1.365 . S
N181 C178 1.341 . S
N181 N180 1.365 . S
N181 H201 0.862 . S
C182 C177 1.501 . S
C182 H183 0.961 . S
C182 H184 0.961 . S
C182 H185 0.960 . S
H183 C182 0.961 . S
H184 C182 0.961 . S
H185 C182 0.960 . S
C186 N187 1.342 . S
C186 C190 1.401 . S
C186 C191 1.499 . S
N187 Co170 1.989 . S
N187 C186 1.342 . S
N187 N188 1.388 . S
N188 Co171 1.993 . S
N188 N187 1.388 . S
N188 C189 1.346 . S
C189 N188 1.346 . S
C189 C190 1.396 . S
C189 C199 1.510 . S
C190 C186 1.401 . S
C190 C189 1.396 . S
C191 C186 1.499 . S
C191 H192 0.959 . S
C191 H193 0.960 . S
C191 H194 0.961 . S
H192 C191 0.959 . S
H193 C191 0.960 . S
H194 C191 0.961 . S
O195 Co170 1.967 . S
O195 C203 1.258 . S
O196 Co171 1.941 . S
O196 C203 1.266 . S
H197 C199 0.959 . S
H198 C199 0.961 . S
C199 C189 1.510 . S
C199 H197 0.959 . S
C199 H198 0.961 . S
C199 H200 0.960 . S
H200 C199 0.960 . S
H201 N181 0.862 . S
O202 Co170 1.920 . S
O202 C175 1.289 . S
C203 O195 1.258 . S
C203 O196 1.266 . S
Co204 O207 1.970 . S
Co204 N221 1.989 . S
Co204 O229 1.967 . S
Co204 O236 1.920 . S
Co205 O208 1.966 . S
Co205 N214 2.022 . S
Co205 N222 1.993 . S
Co205 O230 1.941 . S
C206 O207 1.258 . S
C206 O208 1.263 . S
O207 Co204 1.970 . S
O207 C206 1.258 . S
O208 Co205 1.966 . S
O208 C206 1.263 . S
C209 O210 1.235 . S
C209 O236 1.289 . S
O210 C209 1.235 . S
C211 C213 1.400 . S
C211 N214 1.351 . S
C211 C216 1.501 . S
C212 C213 1.387 . S
C212 N215 1.341 . S
C213 C211 1.400 . S
C213 C212 1.387 . S
N214 Co205 2.022 . S
N214 C211 1.351 . S
N214 N215 1.365 . S
N215 C212 1.341 . S
N215 N214 1.365 . S
N215 H235 0.862 . S
C216 C211 1.501 . S
C216 H217 0.961 . S
C216 H218 0.961 . S
C216 H219 0.960 . S
H217 C216 0.961 . S
H218 C216 0.961 . S
H219 C216 0.960 . S
C220 N221 1.342 . S
C220 C224 1.401 . S
C220 C225 1.499 . S
N221 Co204 1.989 . S
N221 C220 1.342 . S
N221 N222 1.388 . S
N222 Co205 1.993 . S
N222 N221 1.388 . S
N222 C223 1.346 . S
C223 N222 1.346 . S
C223 C224 1.396 . S
C223 C233 1.510 . S
C224 C220 1.401 . S
C224 C223 1.396 . S
C225 C220 1.499 . S
C225 H226 0.959 . S
C225 H227 0.960 . S
C225 H228 0.961 . S
H226 C225 0.959 . S
H227 C225 0.960 . S
H228 C225 0.961 . S
O229 Co204 1.967 . S
O229 C237 1.258 . S
O230 Co205 1.941 . S
O230 C237 1.266 . S
H231 C233 0.959 . S
H232 C233 0.961 . S
C233 C223 1.510 . S
C233 H231 0.959 . S
C233 H232 0.961 . S
C233 H234 0.960 . S
H234 C233 0.960 . S
H235 N215 0.862 . S
O236 Co204 1.920 . S
O236 C209 1.289 . S
C237 O229 1.258 . S
C237 O230 1.266 . S
Co238 O241 1.970 . S
Co238 N255 1.989 . S
Co238 O263 1.967 . S
Co238 O270 1.920 . S
Co239 O242 1.966 . S
Co239 N248 2.022 1_556 S
Co239 N256 1.993 . S
Co239 O264 1.941 . S
C240 O241 1.258 . S
C240 O242 1.263 . S
O241 Co238 1.970 . S
O241 C240 1.258 . S
O242 Co239 1.966 . S
O242 C240 1.263 . S
C243 O244 1.235 . S
C243 O270 1.289 . S
O244 C243 1.235 . S
C245 C247 1.400 . S
C245 N248 1.351 . S
C245 C250 1.501 . S
C246 C247 1.387 . S
C246 N249 1.341 . S
C247 C245 1.400 . S
C247 C246 1.387 . S
N248 Co239 2.022 1_554 S
N248 C245 1.351 . S
N248 N249 1.365 . S
N249 C246 1.341 . S
N249 N248 1.365 . S
N249 H269 0.862 1_554 S
C250 C245 1.501 . S
C250 H251 0.961 . S
C250 H252 0.961 . S
C250 H253 0.960 . S
H251 C250 0.961 . S
H252 C250 0.961 . S
H253 C250 0.960 . S
C254 N255 1.342 . S
C254 C258 1.401 . S
C254 C259 1.499 . S
N255 Co238 1.989 . S
N255 C254 1.342 . S
N255 N256 1.388 . S
N256 Co239 1.993 . S
N256 N255 1.388 . S
N256 C257 1.346 . S
C257 N256 1.346 . S
C257 C258 1.396 . S
C257 C267 1.510 1_556 S
C258 C254 1.401 . S
C258 C257 1.396 . S
C259 C254 1.499 . S
C259 H260 0.959 . S
C259 H261 0.960 . S
C259 H262 0.961 . S
H260 C259 0.959 . S
H261 C259 0.960 . S
H262 C259 0.961 . S
O263 Co238 1.967 . S
O263 C271 1.258 . S
O264 Co239 1.941 . S
O264 C271 1.266 . S
H265 C267 0.959 . S
H266 C267 0.961 . S
C267 C257 1.510 1_554 S
C267 H265 0.959 . S
C267 H266 0.961 . S
C267 H268 0.960 . S
H268 C267 0.960 . S
H269 N249 0.862 1_556 S
O270 Co238 1.920 . S
O270 C243 1.289 . S
C271 O263 1.258 . S
C271 O264 1.266 . S
Co272 O275 1.970 . S
Co272 N289 1.989 . S
Co272 O297 1.967 . S
Co272 O304 1.920 . S
Co273 O276 1.966 . S
Co273 N282 2.022 . S
Co273 N290 1.993 . S
Co273 O298 1.941 . S
C274 O275 1.258 . S
C274 O276 1.263 . S
O275 Co272 1.970 . S
O275 C274 1.258 . S
O276 Co273 1.966 . S
O276 C274 1.263 . S
C277 O278 1.235 . S
C277 O304 1.289 . S
O278 C277 1.235 . S
C279 C281 1.400 . S
C279 N282 1.351 . S
C279 C284 1.501 . S
C280 C281 1.387 . S
C280 N283 1.341 . S
C281 C279 1.400 . S
C281 C280 1.387 . S
N282 Co273 2.022 . S
N282 C279 1.351 . S
N282 N283 1.365 . S
N283 C280 1.341 . S
N283 N282 1.365 . S
N283 H303 0.862 . S
C284 C279 1.501 . S
C284 H285 0.961 . S
C284 H286 0.961 . S
C284 H287 0.960 . S
H285 C284 0.961 . S
H286 C284 0.961 . S
H287 C284 0.960 . S
C288 N289 1.342 . S
C288 C292 1.401 . S
C288 C293 1.499 . S
N289 Co272 1.989 . S
N289 C288 1.342 . S
N289 N290 1.388 . S
N290 Co273 1.993 . S
N290 N289 1.388 . S
N290 C291 1.346 . S
C291 N290 1.346 . S
C291 C292 1.396 . S
C291 C301 1.510 . S
C292 C288 1.401 . S
C292 C291 1.396 . S
C293 C288 1.499 . S
C293 H294 0.959 . S
C293 H295 0.960 . S
C293 H296 0.961 . S
H294 C293 0.959 . S
H295 C293 0.960 . S
H296 C293 0.961 . S
O297 Co272 1.967 . S
O297 C305 1.258 . S
O298 Co273 1.941 . S
O298 C305 1.266 . S
H299 C301 0.959 . S
H300 C301 0.961 . S
C301 C291 1.510 . S
C301 H299 0.959 . S
C301 H300 0.961 . S
C301 H302 0.960 . S
H302 C301 0.960 . S
H303 N283 0.862 . S
O304 Co272 1.920 . S
O304 C277 1.289 . S
C305 O297 1.258 . S
C305 O298 1.266 . S
Co306 O309 1.970 . S
Co306 N323 1.989 . S
Co306 O331 1.967 . S
Co306 O338 1.920 . S
Co307 O310 1.966 . S
Co307 N316 2.022 . S
Co307 N324 1.993 . S
Co307 O332 1.941 . S
C308 O309 1.258 . S
C308 O310 1.263 . S
O309 Co306 1.970 . S
O309 C308 1.258 . S
O310 Co307 1.966 . S
O310 C308 1.263 . S
C311 O312 1.235 . S
C311 O338 1.289 . S
O312 C311 1.235 . S
C313 C315 1.400 . S
C313 N316 1.351 . S
C313 C318 1.501 . S
C314 C315 1.387 . S
C314 N317 1.341 . S
C315 C313 1.400 . S
C315 C314 1.387 . S
N316 Co307 2.022 . S
N316 C313 1.351 . S
N316 N317 1.365 . S
N317 C314 1.341 . S
N317 N316 1.365 . S
N317 H337 0.862 . S
C318 C313 1.501 . S
C318 H319 0.961 . S
C318 H320 0.961 . S
C318 H321 0.960 . S
H319 C318 0.961 . S
H320 C318 0.961 . S
H321 C318 0.960 . S
C322 N323 1.342 . S
C322 C326 1.401 . S
C322 C327 1.499 . S
N323 Co306 1.989 . S
N323 C322 1.342 . S
N323 N324 1.388 . S
N324 Co307 1.993 . S
N324 N323 1.388 . S
N324 C325 1.346 . S
C325 N324 1.346 . S
C325 C326 1.396 . S
C325 C335 1.510 . S
C326 C322 1.401 . S
C326 C325 1.396 . S
C327 C322 1.499 . S
C327 H328 0.959 . S
C327 H329 0.960 . S
C327 H330 0.961 . S
H328 C327 0.959 . S
H329 C327 0.960 . S
H330 C327 0.961 . S
O331 Co306 1.967 . S
O331 C339 1.258 . S
O332 Co307 1.941 . S
O332 C339 1.266 . S
H333 C335 0.959 . S
H334 C335 0.961 . S
C335 C325 1.510 . S
C335 H333 0.959 . S
C335 H334 0.961 . S
C335 H336 0.960 . S
H336 C335 0.960 . S
H337 N317 0.862 . S
O338 Co306 1.920 . S
O338 C311 1.289 . S
C339 O331 1.258 . S
C339 O332 1.266 . S
Co340 O343 1.970 . S
Co340 N357 1.989 . S
Co340 O365 1.967 . S
Co340 O372 1.920 . S
Co341 O344 1.966 . S
Co341 N350 2.022 . S
Co341 N358 1.993 . S
Co341 O366 1.941 . S
C342 O343 1.258 . S
C342 O344 1.263 . S
O343 Co340 1.970 . S
O343 C342 1.258 . S
O344 Co341 1.966 . S
O344 C342 1.263 . S
C345 O346 1.235 . S
C345 O372 1.289 . S
O346 C345 1.235 . S
C347 C349 1.400 . S
C347 N350 1.351 . S
C347 C352 1.501 . S
C348 C349 1.387 . S
C348 N351 1.341 . S
C349 C347 1.400 . S
C349 C348 1.387 . S
N350 Co341 2.022 . S
N350 C347 1.351 . S
N350 N351 1.365 . S
N351 C348 1.341 . S
N351 N350 1.365 . S
N351 H371 0.862 . S
C352 C347 1.501 . S
C352 H353 0.961 . S
C352 H354 0.961 . S
C352 H355 0.960 . S
H353 C352 0.961 . S
H354 C352 0.961 . S
H355 C352 0.960 . S
C356 N357 1.342 . S
C356 C360 1.401 . S
C356 C361 1.499 . S
N357 Co340 1.989 . S
N357 C356 1.342 . S
N357 N358 1.388 . S
N358 Co341 1.993 . S
N358 N357 1.388 . S
N358 C359 1.346 . S
C359 N358 1.346 . S
C359 C360 1.396 . S
C359 C369 1.510 . S
C360 C356 1.401 . S
C360 C359 1.396 . S
C361 C356 1.499 . S
C361 H362 0.959 . S
C361 H363 0.960 . S
C361 H364 0.961 . S
H362 C361 0.959 . S
H363 C361 0.960 . S
H364 C361 0.961 . S
O365 Co340 1.967 . S
O365 C373 1.258 . S
O366 Co341 1.941 . S
O366 C373 1.266 . S
H367 C369 0.959 . S
H368 C369 0.961 . S
C369 C359 1.510 . S
C369 H367 0.959 . S
C369 H368 0.961 . S
C369 H370 0.960 . S
H370 C369 0.960 . S
H371 N351 0.862 . S
O372 Co340 1.920 . S
O372 C345 1.289 . S
C373 O365 1.258 . S
C373 O366 1.266 . S
Co374 O377 1.970 . S
Co374 N391 1.989 1_556 S
Co374 O399 1.967 . S
Co374 O406 1.920 . S
Co375 O378 1.966 . S
Co375 N384 2.022 . S
Co375 N392 1.993 1_556 S
Co375 O400 1.941 . S
C376 O377 1.258 . S
C376 O378 1.263 . S
O377 Co374 1.970 . S
O377 C376 1.258 . S
O378 Co375 1.966 . S
O378 C376 1.263 . S
C379 O380 1.235 1_556 S
C379 O406 1.289 . S
O380 C379 1.235 1_554 S
C381 C383 1.400 . S
C381 N384 1.351 . S
C381 C386 1.501 . S
C382 C383 1.387 . S
C382 N385 1.341 . S
C383 C381 1.400 . S
C383 C382 1.387 . S
N384 Co375 2.022 . S
N384 C381 1.351 . S
N384 N385 1.365 . S
N385 C382 1.341 . S
N385 N384 1.365 . S
N385 H405 0.862 . S
C386 C381 1.501 . S
C386 H387 0.961 . S
C386 H388 0.961 . S
C386 H389 0.960 . S
H387 C386 0.961 . S
H388 C386 0.961 . S
H389 C386 0.960 . S
C390 N391 1.342 . S
C390 C394 1.401 . S
C390 C395 1.499 . S
N391 Co374 1.989 1_554 S
N391 C390 1.342 . S
N391 N392 1.388 . S
N392 Co375 1.993 1_554 S
N392 N391 1.388 . S
N392 C393 1.346 . S
C393 N392 1.346 . S
C393 C394 1.396 . S
C393 C403 1.510 . S
C394 C390 1.401 . S
C394 C393 1.396 . S
C395 C390 1.499 . S
C395 H396 0.959 . S
C395 H397 0.960 . S
C395 H398 0.961 . S
H396 C395 0.959 . S
H397 C395 0.960 . S
H398 C395 0.961 . S
O399 Co374 1.967 . S
O399 C407 1.258 . S
O400 Co375 1.941 . S
O400 C407 1.266 . S
H401 C403 0.959 . S
H402 C403 0.961 . S
C403 C393 1.510 . S
C403 H401 0.959 . S
C403 H402 0.961 . S
C403 H404 0.960 . S
H404 C403 0.960 . S
H405 N385 0.862 . S
O406 Co374 1.920 . S
O406 C379 1.289 . S
C407 O399 1.258 . S
C407 O400 1.266 . S
Co408 O411 1.970 . S
Co408 N425 1.989 . S
Co408 O433 1.967 . S
Co408 O440 1.920 . S
Co409 O412 1.966 . S
Co409 N418 2.022 . S
Co409 N426 1.993 . S
Co409 O434 1.941 . S
C410 O411 1.258 . S
C410 O412 1.263 . S
O411 Co408 1.970 . S
O411 C410 1.258 . S
O412 Co409 1.966 . S
O412 C410 1.263 . S
C413 O414 1.235 . S
C413 O440 1.289 . S
O414 C413 1.235 . S
C415 C417 1.400 . S
C415 N418 1.351 . S
C415 C420 1.501 . S
C416 C417 1.387 . S
C416 N419 1.341 . S
C417 C415 1.400 . S
C417 C416 1.387 . S
N418 Co409 2.022 . S
N418 C415 1.351 . S
N418 N419 1.365 . S
N419 C416 1.341 . S
N419 N418 1.365 . S
N419 H439 0.862 . S
C420 C415 1.501 . S
C420 H421 0.961 . S
C420 H422 0.961 . S
C420 H423 0.960 . S
H421 C420 0.961 . S
H422 C420 0.961 . S
H423 C420 0.960 . S
C424 N425 1.342 . S
C424 C428 1.401 . S
C424 C429 1.499 . S
N425 Co408 1.989 . S
N425 C424 1.342 . S
N425 N426 1.388 . S
N426 Co409 1.993 . S
N426 N425 1.388 . S
N426 C427 1.346 . S
C427 N426 1.346 . S
C427 C428 1.396 . S
C427 C437 1.510 . S
C428 C424 1.401 . S
C428 C427 1.396 . S
C429 C424 1.499 . S
C429 H430 0.959 . S
C429 H431 0.960 . S
C429 H432 0.961 . S
H430 C429 0.959 . S
H431 C429 0.960 . S
H432 C429 0.961 . S
O433 Co408 1.967 . S
O433 C441 1.258 . S
O434 Co409 1.941 . S
O434 C441 1.266 . S
H435 C437 0.959 . S
H436 C437 0.961 . S
C437 C427 1.510 . S
C437 H435 0.959 . S
C437 H436 0.961 . S
C437 H438 0.960 . S
H438 C437 0.960 . S
H439 N419 0.862 . S
O440 Co408 1.920 . S
O440 C413 1.289 . S
C441 O433 1.258 . S
C441 O434 1.266 . S
Co442 O445 1.970 . S
Co442 N459 1.989 . S
Co442 O467 1.967 . S
Co442 O474 1.920 . S
Co443 O446 1.966 . S
Co443 N452 2.022 . S
Co443 N460 1.993 . S
Co443 O468 1.941 . S
C444 O445 1.258 . S
C444 O446 1.263 . S
O445 Co442 1.970 . S
O445 C444 1.258 . S
O446 Co443 1.966 . S
O446 C444 1.263 . S
C447 O448 1.235 . S
C447 O474 1.289 . S
O448 C447 1.235 . S
C449 C451 1.400 . S
C449 N452 1.351 . S
C449 C454 1.501 . S
C450 C451 1.387 . S
C450 N453 1.341 . S
C451 C449 1.400 . S
C451 C450 1.387 . S
N452 Co443 2.022 . S
N452 C449 1.351 . S
N452 N453 1.365 . S
N453 C450 1.341 . S
N453 N452 1.365 . S
N453 H473 0.862 . S
C454 C449 1.501 . S
C454 H455 0.961 . S
C454 H456 0.961 . S
C454 H457 0.960 . S
H455 C454 0.961 . S
H456 C454 0.961 . S
H457 C454 0.960 . S
C458 N459 1.342 . S
C458 C462 1.401 . S
C458 C463 1.499 . S
N459 Co442 1.989 . S
N459 C458 1.342 . S
N459 N460 1.388 . S
N460 Co443 1.993 . S
N460 N459 1.388 . S
N460 C461 1.346 . S
C461 N460 1.346 . S
C461 C462 1.396 . S
C461 C471 1.510 . S
C462 C458 1.401 . S
C462 C461 1.396 . S
C463 C458 1.499 . S
C463 H464 0.959 . S
C463 H465 0.960 . S
C463 H466 0.961 . S
H464 C463 0.959 . S
H465 C463 0.960 . S
H466 C463 0.961 . S
O467 Co442 1.967 . S
O467 C475 1.258 . S
O468 Co443 1.941 . S
O468 C475 1.266 . S
H469 C471 0.959 . S
H470 C471 0.961 . S
C471 C461 1.510 . S
C471 H469 0.959 . S
C471 H470 0.961 . S
C471 H472 0.960 . S
H472 C471 0.960 . S
H473 N453 0.862 . S
O474 Co442 1.920 . S
O474 C447 1.289 . S
C475 O467 1.258 . S
C475 O468 1.266 . S
Co476 O479 1.970 . S
Co476 N493 1.989 . S
Co476 O501 1.967 . S
Co476 O508 1.920 . S
Co477 O480 1.966 . S
Co477 N486 2.022 . S
Co477 N494 1.993 . S
Co477 O502 1.941 . S
C478 O479 1.258 . S
C478 O480 1.263 . S
O479 Co476 1.970 . S
O479 C478 1.258 . S
O480 Co477 1.966 . S
O480 C478 1.263 . S
C481 O482 1.235 . S
C481 O508 1.289 . S
O482 C481 1.235 . S
C483 C485 1.400 . S
C483 N486 1.351 . S
C483 C488 1.501 . S
C484 C485 1.387 . S
C484 N487 1.341 . S
C485 C483 1.400 . S
C485 C484 1.387 . S
N486 Co477 2.022 . S
N486 C483 1.351 . S
N486 N487 1.365 . S
N487 C484 1.341 . S
N487 N486 1.365 . S
N487 H507 0.862 . S
C488 C483 1.501 . S
C488 H489 0.961 . S
C488 H490 0.961 . S
C488 H491 0.960 . S
H489 C488 0.961 . S
H490 C488 0.961 . S
H491 C488 0.960 . S
C492 N493 1.342 . S
C492 C496 1.401 . S
C492 C497 1.499 . S
N493 Co476 1.989 . S
N493 C492 1.342 . S
N493 N494 1.388 . S
N494 Co477 1.993 . S
N494 N493 1.388 . S
N494 C495 1.346 . S
C495 N494 1.346 . S
C495 C496 1.396 . S
C495 C505 1.510 . S
C496 C492 1.401 . S
C496 C495 1.396 . S
C497 C492 1.499 . S
C497 H498 0.959 . S
C497 H499 0.960 . S
C497 H500 0.961 . S
H498 C497 0.959 . S
H499 C497 0.960 . S
H500 C497 0.961 . S
O501 Co476 1.967 . S
O501 C509 1.258 . S
O502 Co477 1.941 . S
O502 C509 1.266 . S
H503 C505 0.959 . S
H504 C505 0.961 . S
C505 C495 1.510 . S
C505 H503 0.959 . S
C505 H504 0.961 . S
C505 H506 0.960 . S
H506 C505 0.960 . S
H507 N487 0.862 . S
O508 Co476 1.920 . S
O508 C481 1.289 . S
C509 O501 1.258 . S
C509 O502 1.266 . S
Co510 O513 1.970 . S
Co510 N527 1.989 1_554 S
Co510 O535 1.967 . S
Co510 O542 1.920 . S
Co511 O514 1.966 . S
Co511 N520 2.022 . S
Co511 N528 1.993 1_554 S
Co511 O536 1.941 . S
C512 O513 1.258 . S
C512 O514 1.263 . S
O513 Co510 1.970 . S
O513 C512 1.258 . S
O514 Co511 1.966 . S
O514 C512 1.263 . S
C515 O516 1.235 1_554 S
C515 O542 1.289 . S
O516 C515 1.235 1_556 S
C517 C519 1.400 . S
C517 N520 1.351 . S
C517 C522 1.501 . S
C518 C519 1.387 . S
C518 N521 1.341 . S
C519 C517 1.400 . S
C519 C518 1.387 . S
N520 Co511 2.022 . S
N520 C517 1.351 . S
N520 N521 1.365 . S
N521 C518 1.341 . S
N521 N520 1.365 . S
N521 H541 0.862 . S
C522 C517 1.501 . S
C522 H523 0.961 . S
C522 H524 0.961 . S
C522 H525 0.960 . S
H523 C522 0.961 . S
H524 C522 0.961 . S
H525 C522 0.960 . S
C526 N527 1.342 . S
C526 C530 1.401 . S
C526 C531 1.499 . S
N527 Co510 1.989 1_556 S
N527 C526 1.342 . S
N527 N528 1.388 . S
N528 Co511 1.993 1_556 S
N528 N527 1.388 . S
N528 C529 1.346 . S
C529 N528 1.346 . S
C529 C530 1.396 . S
C529 C539 1.510 . S
C530 C526 1.401 . S
C530 C529 1.396 . S
C531 C526 1.499 . S
C531 H532 0.959 . S
C531 H533 0.960 . S
C531 H534 0.961 . S
H532 C531 0.959 . S
H533 C531 0.960 . S
H534 C531 0.961 . S
O535 Co510 1.967 . S
O535 C543 1.258 . S
O536 Co511 1.941 . S
O536 C543 1.266 . S
H537 C539 0.959 . S
H538 C539 0.961 . S
C539 C529 1.510 . S
C539 H537 0.959 . S
C539 H538 0.961 . S
C539 H540 0.960 . S
H540 C539 0.960 . S
H541 N521 0.862 . S
O542 Co510 1.920 . S
O542 C515 1.289 . S
C543 O535 1.258 . S
C543 O536 1.266 . S
Co544 O547 1.970 . S
Co544 N561 1.989 . S
Co544 O569 1.967 . S
Co544 O576 1.920 . S
Co545 O548 1.966 . S
Co545 N554 2.022 . S
Co545 N562 1.993 . S
Co545 O570 1.941 . S
C546 O547 1.258 . S
C546 O548 1.263 . S
O547 Co544 1.970 . S
O547 C546 1.258 . S
O548 Co545 1.966 . S
O548 C546 1.263 . S
C549 O550 1.235 . S
C549 O576 1.289 . S
O550 C549 1.235 . S
C551 C553 1.400 . S
C551 N554 1.351 . S
C551 C556 1.501 . S
C552 C553 1.387 . S
C552 N555 1.341 . S
C553 C551 1.400 . S
C553 C552 1.387 . S
N554 Co545 2.022 . S
N554 C551 1.351 . S
N554 N555 1.365 . S
N555 C552 1.341 . S
N555 N554 1.365 . S
N555 H575 0.862 . S
C556 C551 1.501 . S
C556 H557 0.961 . S
C556 H558 0.961 . S
C556 H559 0.960 . S
H557 C556 0.961 . S
H558 C556 0.961 . S
H559 C556 0.960 . S
C560 N561 1.342 . S
C560 C564 1.401 . S
C560 C565 1.499 . S
N561 Co544 1.989 . S
N561 C560 1.342 . S
N561 N562 1.388 . S
N562 Co545 1.993 . S
N562 N561 1.388 . S
N562 C563 1.346 . S
C563 N562 1.346 . S
C563 C564 1.396 . S
C563 C573 1.510 . S
C564 C560 1.401 . S
C564 C563 1.396 . S
C565 C560 1.499 . S
C565 H566 0.959 . S
C565 H567 0.960 . S
C565 H568 0.961 . S
H566 C565 0.959 . S
H567 C565 0.960 . S
H568 C565 0.961 . S
O569 Co544 1.967 . S
O569 C577 1.258 . S
O570 Co545 1.941 . S
O570 C577 1.266 . S
H571 C573 0.959 . S
H572 C573 0.961 . S
C573 C563 1.510 . S
C573 H571 0.959 . S
C573 H572 0.961 . S
C573 H574 0.960 . S
H574 C573 0.960 . S
H575 N555 0.862 . S
O576 Co544 1.920 . S
O576 C549 1.289 . S
C577 O569 1.258 . S
C577 O570 1.266 . S
Co578 O581 1.970 . S
Co578 N595 1.989 . S
Co578 O603 1.967 . S
Co578 O610 1.920 . S
Co579 O582 1.966 . S
Co579 N588 2.022 1_554 S
Co579 N596 1.993 . S
Co579 O604 1.941 . S
C580 O581 1.258 . S
C580 O582 1.263 . S
O581 Co578 1.970 . S
O581 C580 1.258 . S
O582 Co579 1.966 . S
O582 C580 1.263 . S
C583 O584 1.235 . S
C583 O610 1.289 . S
O584 C583 1.235 . S
C585 C587 1.400 . S
C585 N588 1.351 . S
C585 C590 1.501 . S
C586 C587 1.387 . S
C586 N589 1.341 . S
C587 C585 1.400 . S
C587 C586 1.387 . S
N588 Co579 2.022 1_556 S
N588 C585 1.351 . S
N588 N589 1.365 . S
N589 C586 1.341 . S
N589 N588 1.365 . S
N589 H609 0.862 1_556 S
C590 C585 1.501 . S
C590 H591 0.961 . S
C590 H592 0.961 . S
C590 H593 0.960 . S
H591 C590 0.961 . S
H592 C590 0.961 . S
H593 C590 0.960 . S
C594 N595 1.342 . S
C594 C598 1.401 . S
C594 C599 1.499 . S
N595 Co578 1.989 . S
N595 C594 1.342 . S
N595 N596 1.388 . S
N596 Co579 1.993 . S
N596 N595 1.388 . S
N596 C597 1.346 . S
C597 N596 1.346 . S
C597 C598 1.396 . S
C597 C607 1.510 1_554 S
C598 C594 1.401 . S
C598 C597 1.396 . S
C599 C594 1.499 . S
C599 H600 0.959 . S
C599 H601 0.960 . S
C599 H602 0.961 . S
H600 C599 0.959 . S
H601 C599 0.960 . S
H602 C599 0.961 . S
O603 Co578 1.967 . S
O603 C611 1.258 . S
O604 Co579 1.941 . S
O604 C611 1.266 . S
H605 C607 0.959 . S
H606 C607 0.961 . S
C607 C597 1.510 1_556 S
C607 H605 0.959 . S
C607 H606 0.961 . S
C607 H608 0.960 . S
H608 C607 0.960 . S
H609 N589 0.862 1_554 S
O610 Co578 1.920 . S
O610 C583 1.289 . S
C611 O603 1.258 . S
C611 O604 1.266 . S
Co612 O615 1.970 . S
Co612 N629 1.989 . S
Co612 O637 1.967 . S
Co612 O644 1.920 . S
Co613 O616 1.966 . S
Co613 N622 2.022 . S
Co613 N630 1.993 . S
Co613 O638 1.941 . S
C614 O615 1.258 . S
C614 O616 1.263 . S
O615 Co612 1.970 . S
O615 C614 1.258 . S
O616 Co613 1.966 . S
O616 C614 1.263 . S
C617 O618 1.232 . S
C617 O644 1.294 1_455 S
O618 C617 1.232 . S
C619 C621 1.400 . S
C619 N622 1.351 . S
C619 C624 1.501 . S
C620 C621 1.387 . S
C620 N623 1.341 . S
C621 C619 1.400 . S
C621 C620 1.387 . S
N622 Co613 2.022 . S
N622 C619 1.351 . S
N622 N623 1.365 . S
N623 C620 1.341 . S
N623 N622 1.365 . S
N623 H643 0.862 . S
C624 C619 1.501 . S
C624 H625 0.961 . S
C624 H626 0.961 . S
C624 H627 0.960 . S
H625 C624 0.961 . S
H626 C624 0.961 . S
H627 C624 0.960 . S
C628 N629 1.342 . S
C628 C632 1.401 . S
C628 C633 1.499 . S
N629 Co612 1.989 . S
N629 C628 1.342 . S
N629 N630 1.388 . S
N630 Co613 1.993 . S
N630 N629 1.388 . S
N630 C631 1.346 . S
C631 N630 1.346 . S
C631 C632 1.396 . S
C631 C641 1.510 . S
C632 C628 1.401 . S
C632 C631 1.396 . S
C633 C628 1.499 . S
C633 H634 0.959 . S
C633 H635 0.960 . S
C633 H636 0.961 . S
H634 C633 0.959 . S
H635 C633 0.960 . S
H636 C633 0.961 . S
O637 Co612 1.967 . S
O637 C645 1.258 . S
O638 Co613 1.941 . S
O638 C645 1.266 . S
H639 C641 0.959 . S
H640 C641 0.961 . S
C641 C631 1.510 . S
C641 H639 0.959 . S
C641 H640 0.961 . S
C641 H642 0.960 . S
H642 C641 0.960 . S
H643 N623 0.862 . S
O644 Co612 1.920 . S
O644 C617 1.294 1_655 S
C645 O637 1.258 . S
C645 O638 1.266 . S
Co646 O649 1.970 . S
Co646 N663 1.989 . S
Co646 O671 1.967 . S
Co646 O678 1.920 . S
Co647 O650 1.966 . S
Co647 N656 2.022 . S
Co647 N664 1.993 . S
Co647 O672 1.941 . S
C648 O649 1.258 . S
C648 O650 1.263 . S
O649 Co646 1.970 . S
O649 C648 1.258 . S
O650 Co647 1.966 . S
O650 C648 1.263 . S
C651 O652 1.235 . S
C651 O678 1.289 . S
O652 C651 1.235 . S
C653 C655 1.400 . S
C653 N656 1.351 . S
C653 C658 1.501 . S
C654 C655 1.387 . S
C654 N657 1.341 . S
C655 C653 1.400 . S
C655 C654 1.387 . S
N656 Co647 2.022 . S
N656 C653 1.351 . S
N656 N657 1.365 . S
N657 C654 1.341 . S
N657 N656 1.365 . S
N657 H677 0.862 . S
C658 C653 1.501 . S
C658 H659 0.961 . S
C658 H660 0.961 . S
C658 H661 0.960 . S
H659 C658 0.961 . S
H660 C658 0.961 . S
H661 C658 0.960 . S
C662 N663 1.342 . S
C662 C666 1.401 . S
C662 C667 1.499 . S
N663 Co646 1.989 . S
N663 C662 1.342 . S
N663 N664 1.388 . S
N664 Co647 1.993 . S
N664 N663 1.388 . S
N664 C665 1.346 . S
C665 N664 1.346 . S
C665 C666 1.396 . S
C665 C675 1.510 . S
C666 C662 1.401 . S
C666 C665 1.396 . S
C667 C662 1.499 . S
C667 H668 0.959 . S
C667 H669 0.960 . S
C667 H670 0.961 . S
H668 C667 0.959 . S
H669 C667 0.960 . S
H670 C667 0.961 . S
O671 Co646 1.967 . S
O671 C679 1.258 . S
O672 Co647 1.941 . S
O672 C679 1.266 . S
H673 C675 0.959 . S
H674 C675 0.961 . S
C675 C665 1.510 . S
C675 H673 0.959 . S
C675 H674 0.961 . S
C675 H676 0.960 . S
H676 C675 0.960 . S
H677 N657 0.862 . S
O678 Co646 1.920 . S
O678 C651 1.289 . S
C679 O671 1.258 . S
C679 O672 1.266 . S
Co680 O683 1.970 . S
Co680 N697 1.989 . S
Co680 O705 1.967 . S
Co680 O712 1.920 . S
Co681 O684 1.966 . S
Co681 N690 2.022 . S
Co681 N698 1.993 . S
Co681 O706 1.941 . S
C682 O683 1.258 . S
C682 O684 1.263 . S
O683 Co680 1.970 . S
O683 C682 1.258 . S
O684 Co681 1.966 . S
O684 C682 1.263 . S
C685 O686 1.235 . S
C685 O712 1.289 . S
O686 C685 1.235 . S
C687 C689 1.400 . S
C687 N690 1.351 . S
C687 C692 1.501 . S
C688 C689 1.387 . S
C688 N691 1.341 . S
C689 C687 1.400 . S
C689 C688 1.387 . S
N690 Co681 2.022 . S
N690 C687 1.351 . S
N690 N691 1.365 . S
N691 C688 1.341 . S
N691 N690 1.365 . S
N691 H711 0.862 . S
C692 C687 1.501 . S
C692 H693 0.961 . S
C692 H694 0.961 . S
C692 H695 0.960 . S
H693 C692 0.961 . S
H694 C692 0.961 . S
H695 C692 0.960 . S
C696 N697 1.342 . S
C696 C700 1.401 . S
C696 C701 1.499 . S
N697 Co680 1.989 . S
N697 C696 1.342 . S
N697 N698 1.388 . S
N698 Co681 1.993 . S
N698 N697 1.388 . S
N698 C699 1.346 . S
C699 N698 1.346 . S
C699 C700 1.396 . S
C699 C709 1.510 . S
C700 C696 1.401 . S
C700 C699 1.396 . S
C701 C696 1.499 . S
C701 H702 0.959 . S
C701 H703 0.960 . S
C701 H704 0.961 . S
H702 C701 0.959 . S
H703 C701 0.960 . S
H704 C701 0.961 . S
O705 Co680 1.967 . S
O705 C713 1.258 . S
O706 Co681 1.941 . S
O706 C713 1.266 . S
H707 C709 0.959 . S
H708 C709 0.961 . S
C709 C699 1.510 . S
C709 H707 0.959 . S
C709 H708 0.961 . S
C709 H710 0.960 . S
H710 C709 0.960 . S
H711 N691 0.862 . S
O712 Co680 1.920 . S
O712 C685 1.289 . S
C713 O705 1.258 . S
C713 O706 1.266 . S
Co714 O717 1.970 . S
Co714 N731 1.989 . S
Co714 O739 1.967 . S
Co714 O746 1.920 . S
Co715 O718 1.966 . S
Co715 N724 2.022 1_556 S
Co715 N732 1.993 . S
Co715 O740 1.941 . S
C716 O717 1.258 . S
C716 O718 1.263 . S
O717 Co714 1.970 . S
O717 C716 1.258 . S
O718 Co715 1.966 . S
O718 C716 1.263 . S
C719 O720 1.235 . S
C719 O746 1.289 . S
O720 C719 1.235 . S
C721 C723 1.400 . S
C721 N724 1.351 . S
C721 C726 1.501 . S
C722 C723 1.387 . S
C722 N725 1.341 . S
C723 C721 1.400 . S
C723 C722 1.387 . S
N724 Co715 2.022 1_554 S
N724 C721 1.351 . S
N724 N725 1.365 . S
N725 C722 1.341 . S
N725 N724 1.365 . S
N725 H745 0.862 1_554 S
C726 C721 1.501 . S
C726 H727 0.961 . S
C726 H728 0.961 . S
C726 H729 0.960 . S
H727 C726 0.961 . S
H728 C726 0.961 . S
H729 C726 0.960 . S
C730 N731 1.342 . S
C730 C734 1.401 . S
C730 C735 1.499 . S
N731 Co714 1.989 . S
N731 C730 1.342 . S
N731 N732 1.388 . S
N732 Co715 1.993 . S
N732 N731 1.388 . S
N732 C733 1.346 . S
C733 N732 1.346 . S
C733 C734 1.396 . S
C733 C743 1.510 1_556 S
C734 C730 1.401 . S
C734 C733 1.396 . S
C735 C730 1.499 . S
C735 H736 0.959 . S
C735 H737 0.960 . S
C735 H738 0.961 . S
H736 C735 0.959 . S
H737 C735 0.960 . S
H738 C735 0.961 . S
O739 Co714 1.967 . S
O739 C747 1.258 . S
O740 Co715 1.941 . S
O740 C747 1.266 . S
H741 C743 0.959 . S
H742 C743 0.961 . S
C743 C733 1.510 1_554 S
C743 H741 0.959 . S
C743 H742 0.961 . S
C743 H744 0.960 . S
H744 C743 0.960 . S
H745 N725 0.862 1_556 S
O746 Co714 1.920 . S
O746 C719 1.289 . S
C747 O739 1.258 . S
C747 O740 1.266 . S
Co748 O751 1.970 . S
Co748 N765 1.989 . S
Co748 O773 1.967 . S
Co748 O780 1.920 . S
Co749 O752 1.966 . S
Co749 N758 2.022 . S
Co749 N766 1.993 . S
Co749 O774 1.941 . S
C750 O751 1.258 . S
C750 O752 1.263 . S
O751 Co748 1.970 . S
O751 C750 1.258 . S
O752 Co749 1.966 . S
O752 C750 1.263 . S
C753 O754 1.232 . S
C753 O780 1.294 1_455 S
O754 C753 1.232 . S
C755 C757 1.400 . S
C755 N758 1.351 . S
C755 C760 1.501 . S
C756 C757 1.387 . S
C756 N759 1.341 . S
C757 C755 1.400 . S
C757 C756 1.387 . S
N758 Co749 2.022 . S
N758 C755 1.351 . S
N758 N759 1.365 . S
N759 C756 1.341 . S
N759 N758 1.365 . S
N759 H779 0.862 . S
C760 C755 1.501 . S
C760 H761 0.961 . S
C760 H762 0.961 . S
C760 H763 0.960 . S
H761 C760 0.961 . S
H762 C760 0.961 . S
H763 C760 0.960 . S
C764 N765 1.342 . S
C764 C768 1.401 . S
C764 C769 1.499 . S
N765 Co748 1.989 . S
N765 C764 1.342 . S
N765 N766 1.388 . S
N766 Co749 1.993 . S
N766 N765 1.388 . S
N766 C767 1.346 . S
C767 N766 1.346 . S
C767 C768 1.396 . S
C767 C777 1.510 . S
C768 C764 1.401 . S
C768 C767 1.396 . S
C769 C764 1.499 . S
C769 H770 0.959 . S
C769 H771 0.960 . S
C769 H772 0.961 . S
H770 C769 0.959 . S
H771 C769 0.960 . S
H772 C769 0.961 . S
O773 Co748 1.967 . S
O773 C781 1.258 . S
O774 Co749 1.941 . S
O774 C781 1.266 . S
H775 C777 0.959 . S
H776 C777 0.961 . S
C777 C767 1.510 . S
C777 H775 0.959 . S
C777 H776 0.961 . S
C777 H778 0.960 . S
H778 C777 0.960 . S
H779 N759 0.862 . S
O780 Co748 1.920 . S
O780 C753 1.294 1_655 S
C781 O773 1.258 . S
C781 O774 1.266 . S
Co782 O785 1.970 . S
Co782 N799 1.989 . S
Co782 O807 1.967 . S
Co782 O814 1.920 . S
Co783 O786 1.966 . S
Co783 N792 2.022 . S
Co783 N800 1.993 . S
Co783 O808 1.941 . S
C784 O785 1.258 . S
C784 O786 1.263 . S
O785 Co782 1.970 . S
O785 C784 1.258 . S
O786 Co783 1.966 . S
O786 C784 1.263 . S
C787 O788 1.235 . S
C787 O814 1.289 . S
O788 C787 1.235 . S
C789 C791 1.400 . S
C789 N792 1.351 . S
C789 C794 1.501 . S
C790 C791 1.387 . S
C790 N793 1.341 . S
C791 C789 1.400 . S
C791 C790 1.387 . S
N792 Co783 2.022 . S
N792 C789 1.351 . S
N792 N793 1.365 . S
N793 C790 1.341 . S
N793 N792 1.365 . S
N793 H813 0.862 . S
C794 C789 1.501 . S
C794 H795 0.961 . S
C794 H796 0.961 . S
C794 H797 0.960 . S
H795 C794 0.961 . S
H796 C794 0.961 . S
H797 C794 0.960 . S
C798 N799 1.342 . S
C798 C802 1.401 . S
C798 C803 1.499 . S
N799 Co782 1.989 . S
N799 C798 1.342 . S
N799 N800 1.388 . S
N800 Co783 1.993 . S
N800 N799 1.388 . S
N800 C801 1.346 . S
C801 N800 1.346 . S
C801 C802 1.396 . S
C801 C811 1.510 . S
C802 C798 1.401 . S
C802 C801 1.396 . S
C803 C798 1.499 . S
C803 H804 0.959 . S
C803 H805 0.960 . S
C803 H806 0.961 . S
H804 C803 0.959 . S
H805 C803 0.960 . S
H806 C803 0.961 . S
O807 Co782 1.967 . S
O807 C815 1.258 . S
O808 Co783 1.941 . S
O808 C815 1.266 . S
H809 C811 0.959 . S
H810 C811 0.961 . S
C811 C801 1.510 . S
C811 H809 0.959 . S
C811 H810 0.961 . S
C811 H812 0.960 . S
H812 C811 0.960 . S
H813 N793 0.862 . S
O814 Co782 1.920 . S
O814 C787 1.289 . S
C815 O807 1.258 . S
C815 O808 1.266 . S
Co816 O819 1.970 . S
Co816 N833 1.989 . S
Co816 O841 1.967 . S
Co816 O848 1.920 . S
Co817 O820 1.966 . S
Co817 N826 2.022 . S
Co817 N834 1.993 . S
Co817 O842 1.941 . S
C818 O819 1.258 . S
C818 O820 1.263 . S
O819 Co816 1.970 . S
O819 C818 1.258 . S
O820 Co817 1.966 . S
O820 C818 1.263 . S
C821 O822 1.235 . S
C821 O848 1.289 . S
O822 C821 1.235 . S
C823 C825 1.400 . S
C823 N826 1.351 . S
C823 C828 1.501 . S
C824 C825 1.387 . S
C824 N827 1.341 . S
C825 C823 1.400 . S
C825 C824 1.387 . S
N826 Co817 2.022 . S
N826 C823 1.351 . S
N826 N827 1.365 . S
N827 C824 1.341 . S
N827 N826 1.365 . S
N827 H847 0.862 . S
C828 C823 1.501 . S
C828 H829 0.961 . S
C828 H830 0.961 . S
C828 H831 0.960 . S
H829 C828 0.961 . S
H830 C828 0.961 . S
H831 C828 0.960 . S
C832 N833 1.342 . S
C832 C836 1.401 . S
C832 C837 1.499 . S
N833 Co816 1.989 . S
N833 C832 1.342 . S
N833 N834 1.388 . S
N834 Co817 1.993 . S
N834 N833 1.388 . S
N834 C835 1.346 . S
C835 N834 1.346 . S
C835 C836 1.396 . S
C835 C845 1.510 . S
C836 C832 1.401 . S
C836 C835 1.396 . S
C837 C832 1.499 . S
C837 H838 0.959 . S
C837 H839 0.960 . S
C837 H840 0.961 . S
H838 C837 0.959 . S
H839 C837 0.960 . S
H840 C837 0.961 . S
O841 Co816 1.967 . S
O841 C849 1.258 . S
O842 Co817 1.941 . S
O842 C849 1.266 . S
H843 C845 0.959 . S
H844 C845 0.961 . S
C845 C835 1.510 . S
C845 H843 0.959 . S
C845 H844 0.961 . S
C845 H846 0.960 . S
H846 C845 0.960 . S
H847 N827 0.862 . S
O848 Co816 1.920 . S
O848 C821 1.289 . S
C849 O841 1.258 . S
C849 O842 1.266 . S
Co850 O853 1.970 . S
Co850 N867 1.989 1_556 S
Co850 O875 1.967 . S
Co850 O882 1.920 . S
Co851 O854 1.966 . S
Co851 N860 2.022 . S
Co851 N868 1.993 1_556 S
Co851 O876 1.941 . S
C852 O853 1.258 . S
C852 O854 1.263 . S
O853 Co850 1.970 . S
O853 C852 1.258 . S
O854 Co851 1.966 . S
O854 C852 1.263 . S
C855 O856 1.235 1_556 S
C855 O882 1.289 . S
O856 C855 1.235 1_554 S
C857 C859 1.400 . S
C857 N860 1.351 . S
C857 C862 1.501 . S
C858 C859 1.387 . S
C858 N861 1.341 . S
C859 C857 1.400 . S
C859 C858 1.387 . S
N860 Co851 2.022 . S
N860 C857 1.351 . S
N860 N861 1.365 . S
N861 C858 1.341 . S
N861 N860 1.365 . S
N861 H881 0.862 . S
C862 C857 1.501 . S
C862 H863 0.961 . S
C862 H864 0.961 . S
C862 H865 0.960 . S
H863 C862 0.961 . S
H864 C862 0.961 . S
H865 C862 0.960 . S
C866 N867 1.342 . S
C866 C870 1.401 . S
C866 C871 1.499 . S
N867 Co850 1.989 1_554 S
N867 C866 1.342 . S
N867 N868 1.388 . S
N868 Co851 1.993 1_554 S
N868 N867 1.388 . S
N868 C869 1.346 . S
C869 N868 1.346 . S
C869 C870 1.396 . S
C869 C879 1.510 . S
C870 C866 1.401 . S
C870 C869 1.396 . S
C871 C866 1.499 . S
C871 H872 0.959 . S
C871 H873 0.960 . S
C871 H874 0.961 . S
H872 C871 0.959 . S
H873 C871 0.960 . S
H874 C871 0.961 . S
O875 Co850 1.967 . S
O875 C883 1.258 . S
O876 Co851 1.941 . S
O876 C883 1.266 . S
H877 C879 0.959 . S
H878 C879 0.961 . S
C879 C869 1.510 . S
C879 H877 0.959 . S
C879 H878 0.961 . S
C879 H880 0.960 . S
H880 C879 0.960 . S
H881 N861 0.862 . S
O882 Co850 1.920 . S
O882 C855 1.289 . S
C883 O875 1.258 . S
C883 O876 1.266 . S
Co884 O887 1.970 . S
Co884 N901 1.989 . S
Co884 O909 1.967 . S
Co884 O916 1.920 . S
Co885 O888 1.966 . S
Co885 N894 2.022 . S
Co885 N902 1.993 . S
Co885 O910 1.941 . S
C886 O887 1.258 . S
C886 O888 1.263 . S
O887 Co884 1.970 . S
O887 C886 1.258 . S
O888 Co885 1.966 . S
O888 C886 1.263 . S
C889 O890 1.235 . S
C889 O916 1.289 . S
O890 C889 1.235 . S
C891 C893 1.400 . S
C891 N894 1.351 . S
C891 C896 1.501 . S
C892 C893 1.387 . S
C892 N895 1.341 . S
C893 C891 1.400 . S
C893 C892 1.387 . S
N894 Co885 2.022 . S
N894 C891 1.351 . S
N894 N895 1.365 . S
N895 C892 1.341 . S
N895 N894 1.365 . S
N895 H915 0.862 . S
C896 C891 1.501 . S
C896 H897 0.961 . S
C896 H898 0.961 . S
C896 H899 0.960 . S
H897 C896 0.961 . S
H898 C896 0.961 . S
H899 C896 0.960 . S
C900 N901 1.342 . S
C900 C904 1.401 . S
C900 C905 1.499 . S
N901 Co884 1.989 . S
N901 C900 1.342 . S
N901 N902 1.388 . S
N902 Co885 1.993 . S
N902 N901 1.388 . S
N902 C903 1.346 . S
C903 N902 1.346 . S
C903 C904 1.396 . S
C903 C913 1.510 . S
C904 C900 1.401 . S
C904 C903 1.396 . S
C905 C900 1.499 . S
C905 H906 0.959 . S
C905 H907 0.960 . S
C905 H908 0.961 . S
H906 C905 0.959 . S
H907 C905 0.960 . S
H908 C905 0.961 . S
O909 Co884 1.967 . S
O909 C917 1.258 . S
O910 Co885 1.941 . S
O910 C917 1.266 . S
H911 C913 0.959 . S
H912 C913 0.961 . S
C913 C903 1.510 . S
C913 H911 0.959 . S
C913 H912 0.961 . S
C913 H914 0.960 . S
H914 C913 0.960 . S
H915 N895 0.862 . S
O916 Co884 1.920 . S
O916 C889 1.289 . S
C917 O909 1.258 . S
C917 O910 1.266 . S
Co918 O921 1.970 . S
Co918 N935 1.989 . S
Co918 O943 1.967 . S
Co918 O950 1.920 . S
Co919 O922 1.966 . S
Co919 N928 2.022 . S
Co919 N936 1.993 . S
Co919 O944 1.941 . S
C920 O921 1.258 . S
C920 O922 1.263 . S
O921 Co918 1.970 . S
O921 C920 1.258 . S
O922 Co919 1.966 . S
O922 C920 1.263 . S
C923 O924 1.235 . S
C923 O950 1.289 . S
O924 C923 1.235 . S
C925 C927 1.400 . S
C925 N928 1.351 . S
C925 C930 1.501 . S
C926 C927 1.387 . S
C926 N929 1.341 . S
C927 C925 1.400 . S
C927 C926 1.387 . S
N928 Co919 2.022 . S
N928 C925 1.351 . S
N928 N929 1.365 . S
N929 C926 1.341 . S
N929 N928 1.365 . S
N929 H949 0.862 . S
C930 C925 1.501 . S
C930 H931 0.961 . S
C930 H932 0.961 . S
C930 H933 0.960 . S
H931 C930 0.961 . S
H932 C930 0.961 . S
H933 C930 0.960 . S
C934 N935 1.342 . S
C934 C938 1.401 . S
C934 C939 1.499 . S
N935 Co918 1.989 . S
N935 C934 1.342 . S
N935 N936 1.388 . S
N936 Co919 1.993 . S
N936 N935 1.388 . S
N936 C937 1.346 . S
C937 N936 1.346 . S
C937 C938 1.396 . S
C937 C947 1.510 . S
C938 C934 1.401 . S
C938 C937 1.396 . S
C939 C934 1.499 . S
C939 H940 0.959 . S
C939 H941 0.960 . S
C939 H942 0.961 . S
H940 C939 0.959 . S
H941 C939 0.960 . S
H942 C939 0.961 . S
O943 Co918 1.967 . S
O943 C951 1.258 . S
O944 Co919 1.941 . S
O944 C951 1.266 . S
H945 C947 0.959 . S
H946 C947 0.961 . S
C947 C937 1.510 . S
C947 H945 0.959 . S
C947 H946 0.961 . S
C947 H948 0.960 . S
H948 C947 0.960 . S
H949 N929 0.862 . S
O950 Co918 1.920 . S
O950 C923 1.289 . S
C951 O943 1.258 . S
C951 O944 1.266 . S
Co952 O955 1.970 . S
Co952 N969 1.989 . S
Co952 O977 1.967 . S
Co952 O984 1.920 . S
Co953 O956 1.966 . S
Co953 N962 2.022 . S
Co953 N970 1.993 . S
Co953 O978 1.941 . S
C954 O955 1.258 . S
C954 O956 1.263 . S
O955 Co952 1.970 . S
O955 C954 1.258 . S
O956 Co953 1.966 . S
O956 C954 1.263 . S
C957 O958 1.235 . S
C957 O984 1.289 . S
O958 C957 1.235 . S
C959 C961 1.400 . S
C959 N962 1.351 . S
C959 C964 1.501 . S
C960 C961 1.387 . S
C960 N963 1.341 . S
C961 C959 1.400 . S
C961 C960 1.387 . S
N962 Co953 2.022 . S
N962 C959 1.351 . S
N962 N963 1.365 . S
N963 C960 1.341 . S
N963 N962 1.365 . S
N963 H983 0.862 . S
C964 C959 1.501 . S
C964 H965 0.961 . S
C964 H966 0.961 . S
C964 H967 0.960 . S
H965 C964 0.961 . S
H966 C964 0.961 . S
H967 C964 0.960 . S
C968 N969 1.342 . S
C968 C972 1.401 . S
C968 C973 1.499 . S
N969 Co952 1.989 . S
N969 C968 1.342 . S
N969 N970 1.388 . S
N970 Co953 1.993 . S
N970 N969 1.388 . S
N970 C971 1.346 . S
C971 N970 1.346 . S
C971 C972 1.396 . S
C971 C981 1.510 . S
C972 C968 1.401 . S
C972 C971 1.396 . S
C973 C968 1.499 . S
C973 H974 0.959 . S
C973 H975 0.960 . S
C973 H976 0.961 . S
H974 C973 0.959 . S
H975 C973 0.960 . S
H976 C973 0.961 . S
O977 Co952 1.967 . S
O977 C985 1.258 . S
O978 Co953 1.941 . S
O978 C985 1.266 . S
H979 C981 0.959 . S
H980 C981 0.961 . S
C981 C971 1.510 . S
C981 H979 0.959 . S
C981 H980 0.961 . S
C981 H982 0.960 . S
H982 C981 0.960 . S
H983 N963 0.862 . S
O984 Co952 1.920 . S
O984 C957 1.289 . S
C985 O977 1.258 . S
C985 O978 1.266 . S
Co986 O989 1.970 . S
Co986 N1003 1.989 1_554 S
Co986 O1011 1.967 . S
Co986 O1018 1.920 . S
Co987 O990 1.966 . S
Co987 N996 2.022 . S
Co987 N1004 1.993 1_554 S
Co987 O1012 1.941 . S
C988 O989 1.258 . S
C988 O990 1.263 . S
O989 Co986 1.970 . S
O989 C988 1.258 . S
O990 Co987 1.966 . S
O990 C988 1.263 . S
C991 O992 1.235 1_554 S
C991 O1018 1.289 . S
O992 C991 1.235 1_556 S
C993 C995 1.400 . S
C993 N996 1.351 . S
C993 C998 1.501 . S
C994 C995 1.387 . S
C994 N997 1.341 . S
C995 C993 1.400 . S
C995 C994 1.387 . S
N996 Co987 2.022 . S
N996 C993 1.351 . S
N996 N997 1.365 . S
N997 C994 1.341 . S
N997 N996 1.365 . S
N997 H1017 0.862 . S
C998 C993 1.501 . S
C998 H999 0.961 . S
C998 H1000 0.961 . S
C998 H1001 0.960 . S
H999 C998 0.961 . S
H1000 C998 0.961 . S
H1001 C998 0.960 . S
C1002 N1003 1.342 . S
C1002 C1006 1.401 . S
C1002 C1007 1.499 . S
N1003 Co986 1.989 1_556 S
N1003 C1002 1.342 . S
N1003 N1004 1.388 . S
N1004 Co987 1.993 1_556 S
N1004 N1003 1.388 . S
N1004 C1005 1.346 . S
C1005 N1004 1.346 . S
C1005 C1006 1.396 . S
C1005 C1015 1.510 . S
C1006 C1002 1.401 . S
C1006 C1005 1.396 . S
C1007 C1002 1.499 . S
C1007 H1008 0.959 . S
C1007 H1009 0.960 . S
C1007 H1010 0.961 . S
H1008 C1007 0.959 . S
H1009 C1007 0.960 . S
H1010 C1007 0.961 . S
O1011 Co986 1.967 . S
O1011 C1019 1.258 . S
O1012 Co987 1.941 . S
O1012 C1019 1.266 . S
H1013 C1015 0.959 . S
H1014 C1015 0.961 . S
C1015 C1005 1.510 . S
C1015 H1013 0.959 . S
C1015 H1014 0.961 . S
C1015 H1016 0.960 . S
H1016 C1015 0.960 . S
H1017 N997 0.862 . S
O1018 Co986 1.920 . S
O1018 C991 1.289 . S
C1019 O1011 1.258 . S
C1019 O1012 1.266 . S
Co1020 O1023 1.970 . S
Co1020 N1037 1.989 . S
Co1020 O1045 1.967 . S
Co1020 O1052 1.920 . S
Co1021 O1024 1.966 . S
Co1021 N1030 2.022 . S
Co1021 N1038 1.993 . S
Co1021 O1046 1.941 . S
C1022 O1023 1.258 . S
C1022 O1024 1.263 . S
O1023 Co1020 1.970 . S
O1023 C1022 1.258 . S
O1024 Co1021 1.966 . S
O1024 C1022 1.263 . S
C1025 O1026 1.235 . S
C1025 O1052 1.289 . S
O1026 C1025 1.235 . S
C1027 C1029 1.400 . S
C1027 N1030 1.351 . S
C1027 C1032 1.501 . S
C1028 C1029 1.387 . S
C1028 N1031 1.341 . S
C1029 C1027 1.400 . S
C1029 C1028 1.387 . S
N1030 Co1021 2.022 . S
N1030 C1027 1.351 . S
N1030 N1031 1.365 . S
N1031 C1028 1.341 . S
N1031 N1030 1.365 . S
N1031 H1051 0.862 . S
C1032 C1027 1.501 . S
C1032 H1033 0.961 . S
C1032 H1034 0.961 . S
C1032 H1035 0.960 . S
H1033 C1032 0.961 . S
H1034 C1032 0.961 . S
H1035 C1032 0.960 . S
C1036 N1037 1.342 . S
C1036 C1040 1.401 . S
C1036 C1041 1.499 . S
N1037 Co1020 1.989 . S
N1037 C1036 1.342 . S
N1037 N1038 1.388 . S
N1038 Co1021 1.993 . S
N1038 N1037 1.388 . S
N1038 C1039 1.346 . S
C1039 N1038 1.346 . S
C1039 C1040 1.396 . S
C1039 C1049 1.510 . S
C1040 C1036 1.401 . S
C1040 C1039 1.396 . S
C1041 C1036 1.499 . S
C1041 H1042 0.959 . S
C1041 H1043 0.960 . S
C1041 H1044 0.961 . S
H1042 C1041 0.959 . S
H1043 C1041 0.960 . S
H1044 C1041 0.961 . S
O1045 Co1020 1.967 . S
O1045 C1053 1.258 . S
O1046 Co1021 1.941 . S
O1046 C1053 1.266 . S
H1047 C1049 0.959 . S
H1048 C1049 0.961 . S
C1049 C1039 1.510 . S
C1049 H1047 0.959 . S
C1049 H1048 0.961 . S
C1049 H1050 0.960 . S
H1050 C1049 0.960 . S
H1051 N1031 0.862 . S
O1052 Co1020 1.920 . S
O1052 C1025 1.289 . S
C1053 O1045 1.258 . S
C1053 O1046 1.266 . S
Co1054 O1057 1.970 . S
Co1054 N1071 1.989 . S
Co1054 O1079 1.967 . S
Co1054 O1086 1.920 . S
Co1055 O1058 1.966 . S
Co1055 N1064 2.022 . S
Co1055 N1072 1.993 . S
Co1055 O1080 1.941 . S
C1056 O1057 1.258 . S
C1056 O1058 1.263 . S
O1057 Co1054 1.970 . S
O1057 C1056 1.258 . S
O1058 Co1055 1.966 . S
O1058 C1056 1.263 . S
C1059 O1060 1.235 . S
C1059 O1086 1.289 . S
O1060 C1059 1.235 . S
C1061 C1063 1.400 . S
C1061 N1064 1.351 . S
C1061 C1066 1.501 . S
C1062 C1063 1.387 . S
C1062 N1065 1.341 . S
C1063 C1061 1.400 . S
C1063 C1062 1.387 . S
N1064 Co1055 2.022 . S
N1064 C1061 1.351 . S
N1064 N1065 1.365 . S
N1065 C1062 1.341 . S
N1065 N1064 1.365 . S
N1065 H1085 0.862 . S
C1066 C1061 1.501 . S
C1066 H1067 0.961 . S
C1066 H1068 0.961 . S
C1066 H1069 0.960 . S
H1067 C1066 0.961 . S
H1068 C1066 0.961 . S
H1069 C1066 0.960 . S
C1070 N1071 1.342 . S
C1070 C1074 1.401 . S
C1070 C1075 1.499 . S
N1071 Co1054 1.989 . S
N1071 C1070 1.342 . S
N1071 N1072 1.388 . S
N1072 Co1055 1.993 . S
N1072 N1071 1.388 . S
N1072 C1073 1.346 . S
C1073 N1072 1.346 . S
C1073 C1074 1.396 . S
C1073 C1083 1.510 . S
C1074 C1070 1.401 . S
C1074 C1073 1.396 . S
C1075 C1070 1.499 . S
C1075 H1076 0.959 . S
C1075 H1077 0.960 . S
C1075 H1078 0.961 . S
H1076 C1075 0.959 . S
H1077 C1075 0.960 . S
H1078 C1075 0.961 . S
O1079 Co1054 1.967 . S
O1079 C1087 1.258 . S
O1080 Co1055 1.941 . S
O1080 C1087 1.266 . S
H1081 C1083 0.959 . S
H1082 C1083 0.961 . S
C1083 C1073 1.510 . S
C1083 H1081 0.959 . S
C1083 H1082 0.961 . S
C1083 H1084 0.960 . S
H1084 C1083 0.960 . S
H1085 N1065 0.862 . S
O1086 Co1054 1.920 . S
O1086 C1059 1.289 . S
C1087 O1079 1.258 . S
C1087 O1080 1.266 . S
H1088 C1096 0.950 . S
H1089 C1101 0.950 . S
H1090 C1098 0.950 . S
H1091 C1100 0.950 . S
H1092 C1102 0.950 . S
H1093 C1104 0.950 . S
H1094 C1106 0.950 . S
H1095 C1107 0.950 . S
C1096 H1088 0.950 . S
C1096 C1097 1.386 . S
C1096 C1098 1.391 . S
C1097 C1096 1.386 . S
C1097 C1101 1.393 . S
C1098 H1090 0.950 . S
C1098 C1096 1.391 . S
C1098 C1099 1.400 . S
C1099 C1098 1.400 . S
C1099 C1100 1.398 . S
C1099 C1105 1.491 . S
C1100 H1091 0.950 . S
C1100 C1099 1.398 . S
C1100 C1101 1.391 . S
C1101 H1089 0.950 . S
C1101 C1097 1.393 . S
C1101 C1100 1.391 . S
C1102 H1092 0.950 . S
C1102 C1103 1.386 . S
C1102 C1104 1.391 . S
C1103 C1102 1.386 . S
C1103 C1107 1.393 . S
C1104 H1093 0.950 . S
C1104 C1102 1.391 . S
C1104 C1105 1.400 . S
C1105 C1099 1.491 . S
C1105 C1104 1.400 . S
C1105 C1106 1.398 . S
C1106 H1094 0.950 . S
C1106 C1105 1.398 . S
C1106 C1107 1.391 . S
C1107 H1095 0.950 . S
C1107 C1103 1.393 . S
C1107 C1106 1.391 . S
H1108 C1116 0.950 . S
H1109 C1121 0.950 . S
H1110 C1118 0.950 . S
H1111 C1120 0.950 . S
H1112 C1122 0.950 . S
H1113 C1124 0.950 . S
H1114 C1126 0.950 . S
H1115 C1127 0.950 . S
C1116 H1108 0.950 . S
C1116 C1117 1.386 . S
C1116 C1118 1.391 . S
C1117 C1116 1.386 . S
C1117 C1121 1.393 . S
C1118 H1110 0.950 . S
C1118 C1116 1.391 . S
C1118 C1119 1.400 . S
C1119 C1118 1.400 . S
C1119 C1120 1.398 . S
C1119 C1125 1.491 . S
C1120 H1111 0.950 . S
C1120 C1119 1.398 . S
C1120 C1121 1.391 . S
C1121 H1109 0.950 . S
C1121 C1117 1.393 . S
C1121 C1120 1.391 . S
C1122 H1112 0.950 . S
C1122 C1123 1.386 . S
C1122 C1124 1.391 . S
C1123 C1122 1.386 . S
C1123 C1127 1.393 . S
C1124 H1113 0.950 . S
C1124 C1122 1.391 . S
C1124 C1125 1.400 . S
C1125 C1119 1.491 . S
C1125 C1124 1.400 . S
C1125 C1126 1.398 . S
C1126 H1114 0.950 . S
C1126 C1125 1.398 . S
C1126 C1127 1.391 . S
C1127 H1115 0.950 . S
C1127 C1123 1.393 . S
C1127 C1126 1.391 . S
H1128 C1136 0.950 . S
H1129 C1141 0.950 . S
H1130 C1138 0.950 . S
H1131 C1140 0.950 . S
H1132 C1142 0.950 . S
H1133 C1144 0.950 . S
H1134 C1146 0.950 . S
H1135 C1147 0.950 . S
C1136 H1128 0.950 . S
C1136 C1137 1.386 . S
C1136 C1138 1.391 . S
C1137 C1136 1.386 . S
C1137 C1141 1.393 . S
C1138 H1130 0.950 . S
C1138 C1136 1.391 . S
C1138 C1139 1.400 . S
C1139 C1138 1.400 . S
C1139 C1140 1.398 . S
C1139 C1145 1.491 . S
C1140 H1131 0.950 . S
C1140 C1139 1.398 . S
C1140 C1141 1.391 . S
C1141 H1129 0.950 . S
C1141 C1137 1.393 . S
C1141 C1140 1.391 . S
C1142 H1132 0.950 . S
C1142 C1143 1.386 . S
C1142 C1144 1.391 . S
C1143 C1142 1.386 . S
C1143 C1147 1.393 . S
C1144 H1133 0.950 . S
C1144 C1142 1.391 . S
C1144 C1145 1.400 . S
C1145 C1139 1.491 . S
C1145 C1144 1.400 . S
C1145 C1146 1.398 . S
C1146 H1134 0.950 . S
C1146 C1145 1.398 . S
C1146 C1147 1.391 . S
C1147 H1135 0.950 . S
C1147 C1143 1.393 . S
C1147 C1146 1.391 . S
H1148 C1156 0.950 . S
H1149 C1161 0.950 . S
H1150 C1158 0.950 . S
H1151 C1160 0.950 . S
H1152 C1162 0.950 . S
H1153 C1164 0.950 . S
H1154 C1166 0.950 . S
H1155 C1167 0.950 . S
C1156 H1148 0.950 . S
C1156 C1157 1.386 . S
C1156 C1158 1.391 . S
C1157 C1156 1.386 . S
C1157 C1161 1.393 . S
C1158 H1150 0.950 . S
C1158 C1156 1.391 . S
C1158 C1159 1.400 . S
C1159 C1158 1.400 . S
C1159 C1160 1.398 . S
C1159 C1165 1.491 . S
C1160 H1151 0.950 . S
C1160 C1159 1.398 . S
C1160 C1161 1.391 . S
C1161 H1149 0.950 . S
C1161 C1157 1.393 . S
C1161 C1160 1.391 . S
C1162 H1152 0.950 . S
C1162 C1163 1.386 . S
C1162 C1164 1.391 . S
C1163 C1162 1.386 . S
C1163 C1167 1.393 . S
C1164 H1153 0.950 . S
C1164 C1162 1.391 . S
C1164 C1165 1.400 . S
C1165 C1159 1.491 . S
C1165 C1164 1.400 . S
C1165 C1166 1.398 . S
C1166 H1154 0.950 . S
C1166 C1165 1.398 . S
C1166 C1167 1.391 . S
C1167 H1155 0.950 . S
C1167 C1163 1.393 . S
C1167 C1166 1.391 . S
H1168 C1176 0.950 . S
H1169 C1181 0.950 . S
H1170 C1178 0.950 . S
H1171 C1180 0.950 . S
H1172 C1182 0.950 . S
H1173 C1184 0.950 . S
H1174 C1186 0.950 . S
H1175 C1187 0.950 . S
C1176 H1168 0.950 . S
C1176 C1177 1.386 . S
C1176 C1178 1.391 . S
C1177 C1176 1.386 . S
C1177 C1181 1.393 . S
C1178 H1170 0.950 . S
C1178 C1176 1.391 . S
C1178 C1179 1.400 . S
C1179 C1178 1.400 . S
C1179 C1180 1.398 . S
C1179 C1185 1.491 . S
C1180 H1171 0.950 . S
C1180 C1179 1.398 . S
C1180 C1181 1.391 . S
C1181 H1169 0.950 . S
C1181 C1177 1.393 . S
C1181 C1180 1.391 . S
C1182 H1172 0.950 . S
C1182 C1183 1.386 . S
C1182 C1184 1.391 . S
C1183 C1182 1.386 . S
C1183 C1187 1.393 . S
C1184 H1173 0.950 . S
C1184 C1182 1.391 . S
C1184 C1185 1.400 . S
C1185 C1179 1.491 . S
C1185 C1184 1.400 . S
C1185 C1186 1.398 . S
C1186 H1174 0.950 . S
C1186 C1185 1.398 . S
C1186 C1187 1.391 . S
C1187 H1175 0.950 . S
C1187 C1183 1.393 . S
C1187 C1186 1.391 . S
H1188 C1196 0.950 . S
H1189 C1201 0.950 . S
H1190 C1198 0.950 . S
H1191 C1200 0.950 . S
H1192 C1202 0.950 . S
H1193 C1204 0.950 . S
H1194 C1206 0.950 . S
H1195 C1207 0.950 . S
C1196 H1188 0.950 . S
C1196 C1197 1.386 . S
C1196 C1198 1.391 . S
C1197 C1196 1.386 . S
C1197 C1201 1.393 . S
C1198 H1190 0.950 . S
C1198 C1196 1.391 . S
C1198 C1199 1.400 . S
C1199 C1198 1.400 . S
C1199 C1200 1.398 . S
C1199 C1205 1.491 . S
C1200 H1191 0.950 . S
C1200 C1199 1.398 . S
C1200 C1201 1.391 . S
C1201 H1189 0.950 . S
C1201 C1197 1.393 . S
C1201 C1200 1.391 . S
C1202 H1192 0.950 . S
C1202 C1203 1.386 . S
C1202 C1204 1.391 . S
C1203 C1202 1.386 . S
C1203 C1207 1.393 . S
C1204 H1193 0.950 . S
C1204 C1202 1.391 . S
C1204 C1205 1.400 . S
C1205 C1199 1.491 . S
C1205 C1204 1.400 . S
C1205 C1206 1.398 . S
C1206 H1194 0.950 . S
C1206 C1205 1.398 . S
C1206 C1207 1.391 . S
C1207 H1195 0.950 . S
C1207 C1203 1.393 . S
C1207 C1206 1.391 . S
H1208 C1216 0.950 . S
H1209 C1221 0.950 . S
H1210 C1218 0.950 . S
H1211 C1220 0.950 . S
H1212 C1222 0.950 . S
H1213 C1224 0.950 . S
H1214 C1226 0.950 . S
H1215 C1227 0.950 . S
C1216 H1208 0.950 . S
C1216 C1217 1.386 . S
C1216 C1218 1.391 . S
C1217 C1216 1.386 . S
C1217 C1221 1.393 . S
C1218 H1210 0.950 . S
C1218 C1216 1.391 . S
C1218 C1219 1.400 . S
C1219 C1218 1.400 . S
C1219 C1220 1.398 . S
C1219 C1225 1.491 . S
C1220 H1211 0.950 . S
C1220 C1219 1.398 . S
C1220 C1221 1.391 . S
C1221 H1209 0.950 . S
C1221 C1217 1.393 . S
C1221 C1220 1.391 . S
C1222 H1212 0.950 . S
C1222 C1223 1.386 . S
C1222 C1224 1.391 . S
C1223 C1222 1.386 . S
C1223 C1227 1.393 . S
C1224 H1213 0.950 . S
C1224 C1222 1.391 . S
C1224 C1225 1.400 . S
C1225 C1219 1.491 . S
C1225 C1224 1.400 . S
C1225 C1226 1.398 . S
C1226 H1214 0.950 . S
C1226 C1225 1.398 . S
C1226 C1227 1.391 . S
C1227 H1215 0.950 . S
C1227 C1223 1.393 . S
C1227 C1226 1.391 . S
H1228 C1236 0.950 . S
H1229 C1241 0.950 . S
H1230 C1238 0.950 . S
H1231 C1240 0.950 . S
H1232 C1242 0.950 . S
H1233 C1244 0.950 . S
H1234 C1246 0.950 . S
H1235 C1247 0.950 . S
C1236 H1228 0.950 . S
C1236 C1237 1.386 . S
C1236 C1238 1.391 . S
C1237 C1236 1.386 . S
C1237 C1241 1.393 . S
C1238 H1230 0.950 . S
C1238 C1236 1.391 . S
C1238 C1239 1.400 . S
C1239 C1238 1.400 . S
C1239 C1240 1.398 . S
C1239 C1245 1.491 . S
C1240 H1231 0.950 . S
C1240 C1239 1.398 . S
C1240 C1241 1.391 . S
C1241 H1229 0.950 . S
C1241 C1237 1.393 . S
C1241 C1240 1.391 . S
C1242 H1232 0.950 . S
C1242 C1243 1.386 . S
C1242 C1244 1.391 . S
C1243 C1242 1.386 . S
C1243 C1247 1.393 . S
C1244 H1233 0.950 . S
C1244 C1242 1.391 . S
C1244 C1245 1.400 . S
C1245 C1239 1.491 . S
C1245 C1244 1.400 . S
C1245 C1246 1.398 . S
C1246 H1234 0.950 . S
C1246 C1245 1.398 . S
C1246 C1247 1.391 . S
C1247 H1235 0.950 . S
C1247 C1243 1.393 . S
C1247 C1246 1.391 . S
H1248 C1256 0.950 . S
H1249 C1261 0.950 . S
H1250 C1258 0.950 . S
H1251 C1260 0.950 . S
H1252 C1262 0.950 . S
H1253 C1264 0.950 . S
H1254 C1266 0.950 . S
H1255 C1267 0.950 . S
C1256 H1248 0.950 . S
C1256 C1257 1.386 . S
C1256 C1258 1.391 . S
C1257 C1256 1.386 . S
C1257 C1261 1.393 . S
C1258 H1250 0.950 . S
C1258 C1256 1.391 . S
C1258 C1259 1.400 . S
C1259 C1258 1.400 . S
C1259 C1260 1.398 . S
C1259 C1265 1.491 . S
C1260 H1251 0.950 . S
C1260 C1259 1.398 . S
C1260 C1261 1.391 . S
C1261 H1249 0.950 . S
C1261 C1257 1.393 . S
C1261 C1260 1.391 . S
C1262 H1252 0.950 . S
C1262 C1263 1.386 . S
C1262 C1264 1.391 . S
C1263 C1262 1.386 . S
C1263 C1267 1.393 . S
C1264 H1253 0.950 . S
C1264 C1262 1.391 . S
C1264 C1265 1.400 . S
C1265 C1259 1.491 . S
C1265 C1264 1.400 . S
C1265 C1266 1.398 . S
C1266 H1254 0.950 . S
C1266 C1265 1.398 . S
C1266 C1267 1.391 . S
C1267 H1255 0.950 . S
C1267 C1263 1.393 . S
C1267 C1266 1.391 . S
H1268 C1276 0.950 . S
H1269 C1281 0.950 . S
H1270 C1278 0.950 . S
H1271 C1280 0.950 . S
H1272 C1282 0.950 . S
H1273 C1284 0.950 . S
H1274 C1286 0.950 . S
H1275 C1287 0.950 . S
C1276 H1268 0.950 . S
C1276 C1277 1.386 . S
C1276 C1278 1.391 . S
C1277 C1276 1.386 . S
C1277 C1281 1.393 . S
C1278 H1270 0.950 . S
C1278 C1276 1.391 . S
C1278 C1279 1.400 . S
C1279 C1278 1.400 . S
C1279 C1280 1.398 . S
C1279 C1285 1.491 . S
C1280 H1271 0.950 . S
C1280 C1279 1.398 . S
C1280 C1281 1.391 . S
C1281 H1269 0.950 . S
C1281 C1277 1.393 . S
C1281 C1280 1.391 . S
C1282 H1272 0.950 . S
C1282 C1283 1.386 . S
C1282 C1284 1.391 . S
C1283 C1282 1.386 . S
C1283 C1287 1.393 . S
C1284 H1273 0.950 . S
C1284 C1282 1.391 . S
C1284 C1285 1.400 . S
C1285 C1279 1.491 . S
C1285 C1284 1.400 . S
C1285 C1286 1.398 . S
C1286 H1274 0.950 . S
C1286 C1285 1.398 . S
C1286 C1287 1.391 . S
C1287 H1275 0.950 . S
C1287 C1283 1.393 . S
C1287 C1286 1.391 . S
H1288 C1296 0.950 . S
H1289 C1301 0.950 . S
H1290 C1298 0.950 . S
H1291 C1300 0.950 . S
H1292 C1302 0.950 . S
H1293 C1304 0.950 . S
H1294 C1306 0.950 . S
H1295 C1307 0.950 . S
C1296 H1288 0.950 . S
C1296 C1297 1.386 . S
C1296 C1298 1.391 . S
C1297 C1296 1.386 . S
C1297 C1301 1.393 . S
C1298 H1290 0.950 . S
C1298 C1296 1.391 . S
C1298 C1299 1.400 . S
C1299 C1298 1.400 . S
C1299 C1300 1.398 . S
C1299 C1305 1.491 . S
C1300 H1291 0.950 . S
C1300 C1299 1.398 . S
C1300 C1301 1.391 . S
C1301 H1289 0.950 . S
C1301 C1297 1.393 . S
C1301 C1300 1.391 . S
C1302 H1292 0.950 . S
C1302 C1303 1.386 . S
C1302 C1304 1.391 . S
C1303 C1302 1.386 . S
C1303 C1307 1.393 . S
C1304 H1293 0.950 . S
C1304 C1302 1.391 . S
C1304 C1305 1.400 . S
C1305 C1299 1.491 . S
C1305 C1304 1.400 . S
C1305 C1306 1.398 . S
C1306 H1294 0.950 . S
C1306 C1305 1.398 . S
C1306 C1307 1.391 . S
C1307 H1295 0.950 . S
C1307 C1303 1.393 . S
C1307 C1306 1.391 . S
H1308 C1316 0.950 . S
H1309 C1321 0.950 . S
H1310 C1318 0.950 . S
H1311 C1320 0.950 . S
H1312 C1322 0.950 . S
H1313 C1324 0.950 . S
H1314 C1326 0.950 . S
H1315 C1327 0.950 . S
C1316 H1308 0.950 . S
C1316 C1317 1.386 . S
C1316 C1318 1.391 . S
C1317 C1316 1.386 . S
C1317 C1321 1.393 . S
C1318 H1310 0.950 . S
C1318 C1316 1.391 . S
C1318 C1319 1.400 . S
C1319 C1318 1.400 . S
C1319 C1320 1.398 . S
C1319 C1325 1.491 . S
C1320 H1311 0.950 . S
C1320 C1319 1.398 . S
C1320 C1321 1.391 . S
C1321 H1309 0.950 . S
C1321 C1317 1.393 . S
C1321 C1320 1.391 . S
C1322 H1312 0.950 . S
C1322 C1323 1.386 . S
C1322 C1324 1.391 . S
C1323 C1322 1.386 . S
C1323 C1327 1.393 . S
C1324 H1313 0.950 . S
C1324 C1322 1.391 . S
C1324 C1325 1.400 . S
C1325 C1319 1.491 . S
C1325 C1324 1.400 . S
C1325 C1326 1.398 . S
C1326 H1314 0.950 . S
C1326 C1325 1.398 . S
C1326 C1327 1.391 . S
C1327 H1315 0.950 . S
C1327 C1323 1.393 . S
C1327 C1326 1.391 . S
H1328 C1336 0.950 . S
H1329 C1341 0.950 . S
H1330 C1338 0.950 . S
H1331 C1340 0.950 . S
H1332 C1342 0.950 . S
H1333 C1344 0.950 . S
H1334 C1346 0.950 . S
H1335 C1347 0.950 . S
C1336 H1328 0.950 . S
C1336 C1337 1.386 . S
C1336 C1338 1.391 . S
C1337 C1336 1.386 . S
C1337 C1341 1.393 . S
C1338 H1330 0.950 . S
C1338 C1336 1.391 . S
C1338 C1339 1.400 . S
C1339 C1338 1.400 . S
C1339 C1340 1.398 . S
C1339 C1345 1.491 . S
C1340 H1331 0.950 . S
C1340 C1339 1.398 . S
C1340 C1341 1.391 . S
C1341 H1329 0.950 . S
C1341 C1337 1.393 . S
C1341 C1340 1.391 . S
C1342 H1332 0.950 . S
C1342 C1343 1.386 . S
C1342 C1344 1.391 . S
C1343 C1342 1.386 . S
C1343 C1347 1.393 . S
C1344 H1333 0.950 . S
C1344 C1342 1.391 . S
C1344 C1345 1.400 . S
C1345 C1339 1.491 . S
C1345 C1344 1.400 . S
C1345 C1346 1.398 . S
C1346 H1334 0.950 . S
C1346 C1345 1.398 . S
C1346 C1347 1.391 . S
C1347 H1335 0.950 . S
C1347 C1343 1.393 . S
C1347 C1346 1.391 . S
H1348 C1356 0.950 . S
H1349 C1361 0.950 . S
H1350 C1358 0.950 . S
H1351 C1360 0.950 . S
H1352 C1362 0.950 . S
H1353 C1364 0.950 . S
H1354 C1366 0.950 . S
H1355 C1367 0.950 . S
C1356 H1348 0.950 . S
C1356 C1357 1.386 . S
C1356 C1358 1.391 . S
C1357 C1356 1.386 . S
C1357 C1361 1.393 . S
C1358 H1350 0.950 . S
C1358 C1356 1.391 . S
C1358 C1359 1.400 . S
C1359 C1358 1.400 . S
C1359 C1360 1.398 . S
C1359 C1365 1.491 . S
C1360 H1351 0.950 . S
C1360 C1359 1.398 . S
C1360 C1361 1.391 . S
C1361 H1349 0.950 . S
C1361 C1357 1.393 . S
C1361 C1360 1.391 . S
C1362 H1352 0.950 . S
C1362 C1363 1.386 . S
C1362 C1364 1.391 . S
C1363 C1362 1.386 . S
C1363 C1367 1.393 . S
C1364 H1353 0.950 . S
C1364 C1362 1.391 . S
C1364 C1365 1.400 . S
C1365 C1359 1.491 . S
C1365 C1364 1.400 . S
C1365 C1366 1.398 . S
C1366 H1354 0.950 . S
C1366 C1365 1.398 . S
C1366 C1367 1.391 . S
C1367 H1355 0.950 . S
C1367 C1363 1.393 . S
C1367 C1366 1.391 . S
H1368 C1376 0.950 . S
H1369 C1381 0.950 . S
H1370 C1378 0.950 . S
H1371 C1380 0.950 . S
H1372 C1382 0.950 . S
H1373 C1384 0.950 . S
H1374 C1386 0.950 . S
H1375 C1387 0.950 . S
C1376 H1368 0.950 . S
C1376 C1377 1.386 . S
C1376 C1378 1.391 . S
C1377 C1376 1.386 . S
C1377 C1381 1.393 . S
C1378 H1370 0.950 . S
C1378 C1376 1.391 . S
C1378 C1379 1.400 . S
C1379 C1378 1.400 . S
C1379 C1380 1.398 . S
C1379 C1385 1.491 . S
C1380 H1371 0.950 . S
C1380 C1379 1.398 . S
C1380 C1381 1.391 . S
C1381 H1369 0.950 . S
C1381 C1377 1.393 . S
C1381 C1380 1.391 . S
C1382 H1372 0.950 . S
C1382 C1383 1.386 . S
C1382 C1384 1.391 . S
C1383 C1382 1.386 . S
C1383 C1387 1.393 . S
C1384 H1373 0.950 . S
C1384 C1382 1.391 . S
C1384 C1385 1.400 . S
C1385 C1379 1.491 . S
C1385 C1384 1.400 . S
C1385 C1386 1.398 . S
C1386 H1374 0.950 . S
C1386 C1385 1.398 . S
C1386 C1387 1.391 . S
C1387 H1375 0.950 . S
C1387 C1383 1.393 . S
C1387 C1386 1.391 . S
H1388 C1396 0.950 . S
H1389 C1401 0.950 . S
H1390 C1398 0.950 . S
H1391 C1400 0.950 . S
H1392 C1402 0.950 . S
H1393 C1404 0.950 . S
H1394 C1406 0.950 . S
H1395 C1407 0.950 . S
C1396 H1388 0.950 . S
C1396 C1397 1.386 . S
C1396 C1398 1.391 . S
C1397 C1396 1.386 . S
C1397 C1401 1.393 . S
C1398 H1390 0.950 . S
C1398 C1396 1.391 . S
C1398 C1399 1.400 . S
C1399 C1398 1.400 . S
C1399 C1400 1.398 . S
C1399 C1405 1.491 . S
C1400 H1391 0.950 . S
C1400 C1399 1.398 . S
C1400 C1401 1.391 . S
C1401 H1389 0.950 . S
C1401 C1397 1.393 . S
C1401 C1400 1.391 . S
C1402 H1392 0.950 . S
C1402 C1403 1.386 . S
C1402 C1404 1.391 . S
C1403 C1402 1.386 . S
C1403 C1407 1.393 . S
C1404 H1393 0.950 . S
C1404 C1402 1.391 . S
C1404 C1405 1.400 . S
C1405 C1399 1.491 . S
C1405 C1404 1.400 . S
C1405 C1406 1.398 . S
C1406 H1394 0.950 . S
C1406 C1405 1.398 . S
C1406 C1407 1.391 . S
C1407 H1395 0.950 . S
C1407 C1403 1.393 . S
C1407 C1406 1.391 . S
H1408 C1416 0.950 . S
H1409 C1421 0.950 . S
H1410 C1418 0.950 . S
H1411 C1420 0.950 . S
H1412 C1422 0.950 . S
H1413 C1424 0.950 . S
H1414 C1426 0.950 . S
H1415 C1427 0.950 . S
C1416 H1408 0.950 . S
C1416 C1417 1.386 . S
C1416 C1418 1.391 . S
C1417 C1416 1.386 . S
C1417 C1421 1.393 . S
C1418 H1410 0.950 . S
C1418 C1416 1.391 . S
C1418 C1419 1.400 . S
C1419 C1418 1.400 . S
C1419 C1420 1.398 . S
C1419 C1425 1.491 1_565 S
C1420 H1411 0.950 . S
C1420 C1419 1.398 . S
C1420 C1421 1.391 . S
C1421 H1409 0.950 . S
C1421 C1417 1.393 . S
C1421 C1420 1.391 . S
C1422 H1412 0.950 . S
C1422 C1423 1.386 . S
C1422 C1424 1.391 . S
C1423 C1422 1.386 . S
C1423 C1427 1.393 . S
C1424 H1413 0.950 . S
C1424 C1422 1.391 . S
C1424 C1425 1.400 . S
C1425 C1419 1.491 1_545 S
C1425 C1424 1.400 . S
C1425 C1426 1.398 . S
C1426 H1414 0.950 . S
C1426 C1425 1.398 . S
C1426 C1427 1.391 . S
C1427 H1415 0.950 . S
C1427 C1423 1.393 . S
C1427 C1426 1.391 . S
H1428 C1436 0.950 . S
H1429 C1441 0.950 . S
H1430 C1438 0.950 . S
H1431 C1440 0.950 . S
H1432 C1442 0.950 . S
H1433 C1444 0.950 . S
H1434 C1446 0.950 . S
H1435 C1447 0.950 . S
C1436 H1428 0.950 . S
C1436 C1437 1.386 . S
C1436 C1438 1.391 . S
C1437 C1436 1.386 . S
C1437 C1441 1.393 . S
C1438 H1430 0.950 . S
C1438 C1436 1.391 . S
C1438 C1439 1.400 . S
C1439 C1438 1.400 . S
C1439 C1440 1.398 . S
C1439 C1445 1.491 . S
C1440 H1431 0.950 . S
C1440 C1439 1.398 . S
C1440 C1441 1.391 . S
C1441 H1429 0.950 . S
C1441 C1437 1.393 . S
C1441 C1440 1.391 . S
C1442 H1432 0.950 . S
C1442 C1443 1.386 . S
C1442 C1444 1.391 . S
C1443 C1442 1.386 . S
C1443 C1447 1.393 . S
C1444 H1433 0.950 . S
C1444 C1442 1.391 . S
C1444 C1445 1.400 . S
C1445 C1439 1.491 . S
C1445 C1444 1.400 . S
C1445 C1446 1.398 . S
C1446 H1434 0.950 . S
C1446 C1445 1.398 . S
C1446 C1447 1.391 . S
C1447 H1435 0.950 . S
C1447 C1443 1.393 . S
C1447 C1446 1.391 . S
H1448 C1456 0.950 . S
H1449 C1461 0.950 . S
H1450 C1458 0.950 . S
H1451 C1460 0.950 . S
H1452 C1462 0.950 . S
H1453 C1464 0.950 . S
H1454 C1466 0.950 . S
H1455 C1467 0.950 . S
C1456 H1448 0.950 . S
C1456 C1457 1.386 . S
C1456 C1458 1.391 . S
C1457 C1456 1.386 . S
C1457 C1461 1.393 . S
C1458 H1450 0.950 . S
C1458 C1456 1.391 . S
C1458 C1459 1.400 . S
C1459 C1458 1.400 . S
C1459 C1460 1.398 . S
C1459 C1465 1.491 1_545 S
C1460 H1451 0.950 . S
C1460 C1459 1.398 . S
C1460 C1461 1.391 . S
C1461 H1449 0.950 . S
C1461 C1457 1.393 . S
C1461 C1460 1.391 . S
C1462 H1452 0.950 . S
C1462 C1463 1.386 . S
C1462 C1464 1.391 . S
C1463 C1462 1.386 . S
C1463 C1467 1.393 . S
C1464 H1453 0.950 . S
C1464 C1462 1.391 . S
C1464 C1465 1.400 . S
C1465 C1459 1.491 1_565 S
C1465 C1464 1.400 . S
C1465 C1466 1.398 . S
C1466 H1454 0.950 . S
C1466 C1465 1.398 . S
C1466 C1467 1.391 . S
C1467 H1455 0.950 . S
C1467 C1463 1.393 . S
C1467 C1466 1.391 . S
H1468 C1476 0.950 . S
H1469 C1481 0.950 . S
H1470 C1478 0.950 . S
H1471 C1480 0.950 . S
H1472 C1482 0.950 . S
H1473 C1484 0.950 . S
H1474 C1486 0.950 . S
H1475 C1487 0.950 . S
C1476 H1468 0.950 . S
C1476 C1477 1.386 1_556 S
C1476 C1478 1.391 . S
C1477 C1476 1.386 1_554 S
C1477 C1481 1.393 . S
C1478 H1470 0.950 . S
C1478 C1476 1.391 . S
C1478 C1479 1.400 1_556 S
C1479 C1478 1.400 1_554 S
C1479 C1480 1.398 . S
C1479 C1485 1.491 1_554 S
C1480 H1471 0.950 . S
C1480 C1479 1.398 . S
C1480 C1481 1.391 . S
C1481 H1469 0.950 . S
C1481 C1477 1.393 . S
C1481 C1480 1.391 . S
C1482 H1472 0.950 . S
C1482 C1483 1.386 1_554 S
C1482 C1484 1.391 . S
C1483 C1482 1.386 1_556 S
C1483 C1487 1.393 . S
C1484 H1473 0.950 . S
C1484 C1482 1.391 . S
C1484 C1485 1.400 1_554 S
C1485 C1479 1.491 1_556 S
C1485 C1484 1.400 1_556 S
C1485 C1486 1.398 . S
C1486 H1474 0.950 . S
C1486 C1485 1.398 . S
C1486 C1487 1.391 . S
C1487 H1475 0.950 . S
C1487 C1483 1.393 . S
C1487 C1486 1.391 . S
H1488 C1496 0.950 . S
H1489 C1501 0.950 . S
H1490 C1498 0.950 . S
H1491 C1500 0.950 . S
H1492 C1502 0.950 . S
H1493 C1504 0.950 . S
H1494 C1506 0.950 . S
H1495 C1507 0.950 . S
C1496 H1488 0.950 . S
C1496 C1497 1.386 . S
C1496 C1498 1.391 . S
C1497 C1496 1.386 . S
C1497 C1501 1.393 . S
C1498 H1490 0.950 . S
C1498 C1496 1.391 . S
C1498 C1499 1.400 . S
C1499 C1498 1.400 . S
C1499 C1500 1.398 . S
C1499 C1505 1.491 1_545 S
C1500 H1491 0.950 . S
C1500 C1499 1.398 . S
C1500 C1501 1.391 . S
C1501 H1489 0.950 . S
C1501 C1497 1.393 . S
C1501 C1500 1.391 . S
C1502 H1492 0.950 . S
C1502 C1503 1.386 . S
C1502 C1504 1.391 . S
C1503 C1502 1.386 . S
C1503 C1507 1.393 . S
C1504 H1493 0.950 . S
C1504 C1502 1.391 . S
C1504 C1505 1.400 . S
C1505 C1499 1.491 1_565 S
C1505 C1504 1.400 . S
C1505 C1506 1.398 . S
C1506 H1494 0.950 . S
C1506 C1505 1.398 . S
C1506 C1507 1.391 . S
C1507 H1495 0.950 . S
C1507 C1503 1.393 . S
C1507 C1506 1.391 . S
H1508 C1516 0.950 . S
H1509 C1521 0.950 . S
H1510 C1518 0.950 . S
H1511 C1520 0.950 . S
H1512 C1522 0.950 . S
H1513 C1524 0.950 . S
H1514 C1526 0.950 . S
H1515 C1527 0.950 . S
C1516 H1508 0.950 . S
C1516 C1517 1.386 . S
C1516 C1518 1.391 . S
C1517 C1516 1.386 . S
C1517 C1521 1.393 . S
C1518 H1510 0.950 . S
C1518 C1516 1.391 . S
C1518 C1519 1.400 . S
C1519 C1518 1.400 . S
C1519 C1520 1.398 . S
C1519 C1525 1.491 . S
C1520 H1511 0.950 . S
C1520 C1519 1.398 . S
C1520 C1521 1.391 . S
C1521 H1509 0.950 . S
C1521 C1517 1.393 . S
C1521 C1520 1.391 . S
C1522 H1512 0.950 . S
C1522 C1523 1.386 . S
C1522 C1524 1.391 . S
C1523 C1522 1.386 . S
C1523 C1527 1.393 . S
C1524 H1513 0.950 . S
C1524 C1522 1.391 . S
C1524 C1525 1.400 . S
C1525 C1519 1.491 . S
C1525 C1524 1.400 . S
C1525 C1526 1.398 . S
C1526 H1514 0.950 . S
C1526 C1525 1.398 . S
C1526 C1527 1.391 . S
C1527 H1515 0.950 . S
C1527 C1523 1.393 . S
C1527 C1526 1.391 . S
H1528 C1536 0.950 . S
H1529 C1541 0.950 . S
H1530 C1538 0.950 . S
H1531 C1540 0.950 . S
H1532 C1542 0.950 . S
H1533 C1544 0.950 . S
H1534 C1546 0.950 . S
H1535 C1547 0.950 . S
C1536 H1528 0.950 . S
C1536 C1537 1.386 . S
C1536 C1538 1.391 . S
C1537 C1536 1.386 . S
C1537 C1541 1.393 . S
C1538 H1530 0.950 . S
C1538 C1536 1.391 . S
C1538 C1539 1.400 . S
C1539 C1538 1.400 . S
C1539 C1540 1.398 . S
C1539 C1545 1.491 1_545 S
C1540 H1531 0.950 . S
C1540 C1539 1.398 . S
C1540 C1541 1.391 . S
C1541 H1529 0.950 . S
C1541 C1537 1.393 . S
C1541 C1540 1.391 . S
C1542 H1532 0.950 . S
C1542 C1543 1.386 . S
C1542 C1544 1.391 . S
C1543 C1542 1.386 . S
C1543 C1547 1.393 . S
C1544 H1533 0.950 . S
C1544 C1542 1.391 . S
C1544 C1545 1.400 . S
C1545 C1539 1.491 1_565 S
C1545 C1544 1.400 . S
C1545 C1546 1.398 . S
C1546 H1534 0.950 . S
C1546 C1545 1.398 . S
C1546 C1547 1.391 . S
C1547 H1535 0.950 . S
C1547 C1543 1.393 . S
C1547 C1546 1.391 . S
H1548 C1556 0.950 . S
H1549 C1561 0.950 . S
H1550 C1558 0.974 . S
H1551 C1560 0.950 . S
H1552 C1562 0.950 . S
H1553 C1564 0.974 . S
H1554 C1566 0.950 . S
H1555 C1567 0.950 . S
C1556 H1548 0.950 . S
C1556 C1557 1.386 . S
C1556 C1558 1.378 1_554 S
C1557 C1556 1.386 . S
C1557 C1561 1.393 . S
C1558 H1550 0.974 . S
C1558 C1556 1.378 1_556 S
C1558 C1559 1.392 1_556 S
C1559 C1558 1.392 1_554 S
C1559 C1560 1.398 . S
C1559 C1565 1.491 1_554 S
C1560 H1551 0.950 . S
C1560 C1559 1.398 . S
C1560 C1561 1.391 . S
C1561 H1549 0.950 . S
C1561 C1557 1.393 . S
C1561 C1560 1.391 . S
C1562 H1552 0.950 . S
C1562 C1563 1.386 . S
C1562 C1564 1.378 1_556 S
C1563 C1562 1.386 . S
C1563 C1567 1.393 . S
C1564 H1553 0.974 . S
C1564 C1562 1.378 1_554 S
C1564 C1565 1.392 1_554 S
C1565 C1559 1.491 1_556 S
C1565 C1564 1.392 1_556 S
C1565 C1566 1.398 . S
C1566 H1554 0.950 . S
C1566 C1565 1.398 . S
C1566 C1567 1.391 . S
C1567 H1555 0.950 . S
C1567 C1563 1.393 . S
C1567 C1566 1.391 . S
H1568 C1576 0.950 . S
H1569 C1581 0.950 . S
H1570 C1578 0.950 . S
H1571 C1580 0.950 . S
H1572 C1582 0.950 . S
H1573 C1584 0.950 . S
H1574 C1586 0.950 . S
H1575 C1587 0.950 . S
C1576 H1568 0.950 . S
C1576 C1577 1.386 . S
C1576 C1578 1.391 . S
C1577 C1576 1.386 . S
C1577 C1581 1.393 . S
C1578 H1570 0.950 . S
C1578 C1576 1.391 . S
C1578 C1579 1.400 . S
C1579 C1578 1.400 . S
C1579 C1580 1.398 . S
C1579 C1585 1.491 . S
C1580 H1571 0.950 . S
C1580 C1579 1.398 . S
C1580 C1581 1.391 . S
C1581 H1569 0.950 . S
C1581 C1577 1.393 . S
C1581 C1580 1.391 . S
C1582 H1572 0.950 . S
C1582 C1583 1.386 . S
C1582 C1584 1.391 . S
C1583 C1582 1.386 . S
C1583 C1587 1.393 . S
C1584 H1573 0.950 . S
C1584 C1582 1.391 . S
C1584 C1585 1.400 . S
C1585 C1579 1.491 . S
C1585 C1584 1.400 . S
C1585 C1586 1.398 . S
C1586 H1574 0.950 . S
C1586 C1585 1.398 . S
C1586 C1587 1.391 . S
C1587 H1575 0.950 . S
C1587 C1583 1.393 . S
C1587 C1586 1.391 . S
H1588 C1596 0.950 . S
H1589 C1601 0.950 . S
H1590 C1598 0.950 . S
H1591 C1600 0.950 . S
H1592 C1602 0.950 . S
H1593 C1604 0.950 . S
H1594 C1606 0.950 . S
H1595 C1607 0.950 . S
C1596 H1588 0.950 . S
C1596 C1597 1.386 1_554 S
C1596 C1598 1.391 . S
C1597 C1596 1.386 1_556 S
C1597 C1601 1.393 . S
C1598 H1590 0.950 . S
C1598 C1596 1.391 . S
C1598 C1599 1.400 1_554 S
C1599 C1598 1.400 1_556 S
C1599 C1600 1.398 . S
C1599 C1605 1.491 1_556 S
C1600 H1591 0.950 . S
C1600 C1599 1.398 . S
C1600 C1601 1.391 . S
C1601 H1589 0.950 . S
C1601 C1597 1.393 . S
C1601 C1600 1.391 . S
C1602 H1592 0.950 . S
C1602 C1603 1.386 1_556 S
C1602 C1604 1.391 . S
C1603 C1602 1.386 1_554 S
C1603 C1607 1.393 . S
C1604 H1593 0.950 . S
C1604 C1602 1.391 . S
C1604 C1605 1.400 1_556 S
C1605 C1599 1.491 1_554 S
C1605 C1604 1.400 1_554 S
C1605 C1606 1.398 . S
C1606 H1594 0.950 . S
C1606 C1605 1.398 . S
C1606 C1607 1.391 . S
C1607 H1595 0.950 . S
C1607 C1603 1.393 . S
C1607 C1606 1.391 . S
H1608 C1616 0.950 . S
H1609 C1621 0.950 . S
H1610 C1618 0.950 . S
H1611 C1620 0.950 . S
H1612 C1622 0.950 . S
H1613 C1624 0.950 . S
H1614 C1626 0.950 . S
H1615 C1627 0.950 . S
C1616 H1608 0.950 . S
C1616 C1617 1.386 . S
C1616 C1618 1.391 . S
C1617 C1616 1.386 . S
C1617 C1621 1.393 . S
C1618 H1610 0.950 . S
C1618 C1616 1.391 . S
C1618 C1619 1.400 . S
C1619 C1618 1.400 . S
C1619 C1620 1.398 . S
C1619 C1625 1.491 . S
C1620 H1611 0.950 . S
C1620 C1619 1.398 . S
C1620 C1621 1.391 . S
C1621 H1609 0.950 . S
C1621 C1617 1.393 . S
C1621 C1620 1.391 . S
C1622 H1612 0.950 . S
C1622 C1623 1.386 . S
C1622 C1624 1.391 . S
C1623 C1622 1.386 . S
C1623 C1627 1.393 . S
C1624 H1613 0.950 . S
C1624 C1622 1.391 . S
C1624 C1625 1.400 . S
C1625 C1619 1.491 . S
C1625 C1624 1.400 . S
C1625 C1626 1.398 . S
C1626 H1614 0.950 . S
C1626 C1625 1.398 . S
C1626 C1627 1.391 . S
C1627 H1615 0.950 . S
C1627 C1623 1.393 . S
C1627 C1626 1.391 . S
H1628 C1636 0.950 . S
H1629 C1641 0.950 . S
H1630 C1638 0.950 . S
H1631 C1640 0.950 . S
H1632 C1642 0.950 . S
H1633 C1644 0.950 . S
H1634 C1646 0.950 . S
H1635 C1647 0.950 . S
C1636 H1628 0.950 . S
C1636 C1637 1.386 . S
C1636 C1638 1.391 . S
C1637 C1636 1.386 . S
C1637 C1641 1.393 . S
C1638 H1630 0.950 . S
C1638 C1636 1.391 . S
C1638 C1639 1.400 . S
C1639 C1638 1.400 . S
C1639 C1640 1.398 . S
C1639 C1645 1.491 . S
C1640 H1631 0.950 . S
C1640 C1639 1.398 . S
C1640 C1641 1.391 . S
C1641 H1629 0.950 . S
C1641 C1637 1.393 . S
C1641 C1640 1.391 . S
C1642 H1632 0.950 . S
C1642 C1643 1.386 . S
C1642 C1644 1.391 . S
C1643 C1642 1.386 . S
C1643 C1647 1.393 . S
C1644 H1633 0.950 . S
C1644 C1642 1.391 . S
C1644 C1645 1.400 . S
C1645 C1639 1.491 . S
C1645 C1644 1.400 . S
C1645 C1646 1.398 . S
C1646 H1634 0.950 . S
C1646 C1645 1.398 . S
C1646 C1647 1.391 . S
C1647 H1635 0.950 . S
C1647 C1643 1.393 . S
C1647 C1646 1.391 . S
H1648 C1656 0.950 . S
H1649 C1661 0.950 . S
H1650 C1658 0.950 . S
H1651 C1660 0.950 . S
H1652 C1662 0.950 . S
H1653 C1664 0.950 . S
H1654 C1666 0.950 . S
H1655 C1667 0.950 . S
C1656 H1648 0.950 . S
C1656 C1657 1.386 . S
C1656 C1658 1.391 . S
C1657 C1656 1.386 . S
C1657 C1661 1.393 . S
C1658 H1650 0.950 . S
C1658 C1656 1.391 . S
C1658 C1659 1.400 . S
C1659 C1658 1.400 . S
C1659 C1660 1.398 . S
C1659 C1665 1.491 . S
C1660 H1651 0.950 . S
C1660 C1659 1.398 . S
C1660 C1661 1.391 . S
C1661 H1649 0.950 . S
C1661 C1657 1.393 . S
C1661 C1660 1.391 . S
C1662 H1652 0.950 . S
C1662 C1663 1.386 . S
C1662 C1664 1.391 . S
C1663 C1662 1.386 . S
C1663 C1667 1.393 . S
C1664 H1653 0.950 . S
C1664 C1662 1.391 . S
C1664 C1665 1.400 . S
C1665 C1659 1.491 . S
C1665 C1664 1.400 . S
C1665 C1666 1.398 . S
C1666 H1654 0.950 . S
C1666 C1665 1.398 . S
C1666 C1667 1.391 . S
C1667 H1655 0.950 . S
C1667 C1663 1.393 . S
C1667 C1666 1.391 . S
H1668 C1676 0.950 . S
H1669 C1681 0.950 . S
H1670 C1678 0.950 . S
H1671 C1680 0.950 . S
H1672 C1682 0.950 . S
H1673 C1684 0.950 . S
H1674 C1686 0.950 . S
H1675 C1687 0.950 . S
C1676 H1668 0.950 . S
C1676 C1677 1.386 . S
C1676 C1678 1.391 . S
C1677 C1676 1.386 . S
C1677 C1681 1.393 1_556 S
C1678 H1670 0.950 . S
C1678 C1676 1.391 . S
C1678 C1679 1.400 . S
C1679 C1678 1.400 . S
C1679 C1680 1.398 1_556 S
C1679 C1685 1.491 1_556 S
C1680 H1671 0.950 . S
C1680 C1679 1.398 1_554 S
C1680 C1681 1.391 . S
C1681 H1669 0.950 . S
C1681 C1677 1.393 1_554 S
C1681 C1680 1.391 . S
C1682 H1672 0.950 . S
C1682 C1683 1.386 . S
C1682 C1684 1.391 . S
C1683 C1682 1.386 . S
C1683 C1687 1.393 1_554 S
C1684 H1673 0.950 . S
C1684 C1682 1.391 . S
C1684 C1685 1.400 . S
C1685 C1679 1.491 1_554 S
C1685 C1684 1.400 . S
C1685 C1686 1.398 1_554 S
C1686 H1674 0.950 . S
C1686 C1685 1.398 1_556 S
C1686 C1687 1.391 . S
C1687 H1675 0.950 . S
C1687 C1683 1.393 1_556 S
C1687 C1686 1.391 . S
H1688 C1696 0.950 . S
H1689 C1701 0.950 . S
H1690 C1698 0.950 . S
H1691 C1700 0.950 . S
H1692 C1702 0.950 . S
H1693 C1704 0.950 . S
H1694 C1706 0.950 . S
H1695 C1707 0.950 . S
C1696 H1688 0.950 . S
C1696 C1697 1.386 . S
C1696 C1698 1.391 . S
C1697 C1696 1.386 . S
C1697 C1701 1.393 . S
C1698 H1690 0.950 . S
C1698 C1696 1.391 . S
C1698 C1699 1.400 . S
C1699 C1698 1.400 . S
C1699 C1700 1.398 . S
C1699 C1705 1.491 . S
C1700 H1691 0.950 . S
C1700 C1699 1.398 . S
C1700 C1701 1.391 . S
C1701 H1689 0.950 . S
C1701 C1697 1.393 . S
C1701 C1700 1.391 . S
C1702 H1692 0.950 . S
C1702 C1703 1.386 . S
C1702 C1704 1.391 . S
C1703 C1702 1.386 . S
C1703 C1707 1.393 . S
C1704 H1693 0.950 . S
C1704 C1702 1.391 . S
C1704 C1705 1.400 . S
C1705 C1699 1.491 . S
C1705 C1704 1.400 . S
C1705 C1706 1.398 . S
C1706 H1694 0.950 . S
C1706 C1705 1.398 . S
C1706 C1707 1.391 . S
C1707 H1695 0.950 . S
C1707 C1703 1.393 . S
C1707 C1706 1.391 . S
H1708 C1716 0.950 . S
H1709 C1721 0.950 . S
H1710 C1718 0.950 . S
H1711 C1720 0.950 . S
H1712 C1722 0.950 . S
H1713 C1724 0.950 . S
H1714 C1726 0.950 . S
H1715 C1727 0.950 . S
C1716 H1708 0.950 . S
C1716 C1717 1.386 . S
C1716 C1718 1.391 . S
C1717 C1716 1.386 . S
C1717 C1721 1.393 . S
C1718 H1710 0.950 . S
C1718 C1716 1.391 . S
C1718 C1719 1.400 . S
C1719 C1718 1.400 . S
C1719 C1720 1.398 . S
C1719 C1725 1.491 . S
C1720 H1711 0.950 . S
C1720 C1719 1.398 . S
C1720 C1721 1.391 . S
C1721 H1709 0.950 . S
C1721 C1717 1.393 . S
C1721 C1720 1.391 . S
C1722 H1712 0.950 . S
C1722 C1723 1.386 . S
C1722 C1724 1.391 . S
C1723 C1722 1.386 . S
C1723 C1727 1.393 . S
C1724 H1713 0.950 . S
C1724 C1722 1.391 . S
C1724 C1725 1.400 . S
C1725 C1719 1.491 . S
C1725 C1724 1.400 . S
C1725 C1726 1.398 . S
C1726 H1714 0.950 . S
C1726 C1725 1.398 . S
C1726 C1727 1.391 . S
C1727 H1715 0.950 . S
C1727 C1723 1.393 . S
C1727 C1726 1.391 . S
H1728 C1736 0.950 . S
H1729 C1741 0.950 . S
H1730 C1738 0.928 1_455 S
H1731 C1740 0.950 . S
H1732 C1742 0.950 . S
H1733 C1744 0.928 1_655 S
H1734 C1746 0.950 . S
H1735 C1747 0.950 . S
C1736 H1728 0.950 . S
C1736 C1737 1.386 . S
C1736 C1738 1.407 . S
C1737 C1736 1.386 . S
C1737 C1741 1.393 . S
C1738 H1730 0.928 1_655 S
C1738 C1736 1.407 . S
C1738 C1739 1.408 . S
C1739 C1738 1.408 . S
C1739 C1740 1.398 . S
C1739 C1745 1.491 1_655 S
C1740 H1731 0.950 . S
C1740 C1739 1.398 . S
C1740 C1741 1.391 . S
C1741 H1729 0.950 . S
C1741 C1737 1.393 . S
C1741 C1740 1.391 . S
C1742 H1732 0.950 . S
C1742 C1743 1.386 . S
C1742 C1744 1.407 . S
C1743 C1742 1.386 . S
C1743 C1747 1.393 . S
C1744 H1733 0.928 1_455 S
C1744 C1742 1.407 . S
C1744 C1745 1.408 . S
C1745 C1739 1.491 1_455 S
C1745 C1744 1.408 . S
C1745 C1746 1.398 . S
C1746 H1734 0.950 . S
C1746 C1745 1.398 . S
C1746 C1747 1.391 . S
C1747 H1735 0.950 . S
C1747 C1743 1.393 . S
C1747 C1746 1.391 . S
H1748 C1756 0.950 . S
H1749 C1761 0.950 . S
H1750 C1758 0.950 . S
H1751 C1760 0.950 . S
H1752 C1762 0.950 . S
H1753 C1764 0.950 . S
H1754 C1766 0.950 . S
H1755 C1767 0.950 . S
C1756 H1748 0.950 . S
C1756 C1757 1.386 . S
C1756 C1758 1.391 . S
C1757 C1756 1.386 . S
C1757 C1761 1.393 . S
C1758 H1750 0.950 . S
C1758 C1756 1.391 . S
C1758 C1759 1.400 . S
C1759 C1758 1.400 . S
C1759 C1760 1.398 . S
C1759 C1765 1.491 1_455 S
C1760 H1751 0.950 . S
C1760 C1759 1.398 . S
C1760 C1761 1.391 . S
C1761 H1749 0.950 . S
C1761 C1757 1.393 . S
C1761 C1760 1.391 . S
C1762 H1752 0.950 . S
C1762 C1763 1.386 . S
C1762 C1764 1.391 . S
C1763 C1762 1.386 . S
C1763 C1767 1.393 . S
C1764 H1753 0.950 . S
C1764 C1762 1.391 . S
C1764 C1765 1.400 . S
C1765 C1759 1.491 1_655 S
C1765 C1764 1.400 . S
C1765 C1766 1.398 . S
C1766 H1754 0.950 . S
C1766 C1765 1.398 . S
C1766 C1767 1.391 . S
C1767 H1755 0.950 . S
C1767 C1763 1.393 . S
C1767 C1766 1.391 . S
H1768 C1776 0.950 . S
H1769 C1781 0.950 . S
H1770 C1778 0.950 . S
H1771 C1780 0.950 . S
H1772 C1782 0.950 . S
H1773 C1784 0.950 . S
H1774 C1786 0.950 . S
H1775 C1787 0.950 . S
C1776 H1768 0.950 . S
C1776 C1777 1.386 . S
C1776 C1778 1.391 . S
C1777 C1776 1.386 . S
C1777 C1781 1.393 . S
C1778 H1770 0.950 . S
C1778 C1776 1.391 . S
C1778 C1779 1.400 . S
C1779 C1778 1.400 . S
C1779 C1780 1.398 . S
C1779 C1785 1.491 . S
C1780 H1771 0.950 . S
C1780 C1779 1.398 . S
C1780 C1781 1.391 . S
C1781 H1769 0.950 . S
C1781 C1777 1.393 . S
C1781 C1780 1.391 . S
C1782 H1772 0.950 . S
C1782 C1783 1.386 . S
C1782 C1784 1.391 . S
C1783 C1782 1.386 . S
C1783 C1787 1.393 . S
C1784 H1773 0.950 . S
C1784 C1782 1.391 . S
C1784 C1785 1.400 . S
C1785 C1779 1.491 . S
C1785 C1784 1.400 . S
C1785 C1786 1.398 . S
C1786 H1774 0.950 . S
C1786 C1785 1.398 . S
C1786 C1787 1.391 . S
C1787 H1775 0.950 . S
C1787 C1783 1.393 . S
C1787 C1786 1.391 . S
H1788 C1796 0.950 . S
H1789 C1801 0.964 . S
H1790 C1798 0.950 . S
H1791 C1800 0.952 . S
H1792 C1802 0.950 . S
H1793 C1804 0.950 . S
H1794 C1806 0.950 . S
H1795 C1807 0.950 . S
C1796 H1788 0.950 . S
C1796 C1797 1.386 . S
C1796 C1798 1.391 . S
C1797 C1796 1.386 . S
C1797 C1801 1.393 . S
C1798 H1790 0.950 . S
C1798 C1796 1.391 . S
C1798 C1799 1.400 . S
C1799 C1798 1.400 . S
C1799 C1800 1.398 . S
C1799 C1805 1.491 . S
C1800 H1791 0.952 . S
C1800 C1799 1.398 . S
C1800 C1801 1.391 . S
C1801 H1789 0.964 . S
C1801 C1797 1.393 . S
C1801 C1800 1.391 . S
C1802 H1792 0.950 . S
C1802 C1803 1.386 . S
C1802 C1804 1.391 . S
C1803 C1802 1.386 . S
C1803 C1807 1.393 . S
C1804 H1793 0.950 . S
C1804 C1802 1.391 . S
C1804 C1805 1.400 . S
C1805 C1799 1.491 . S
C1805 C1804 1.400 . S
C1805 C1806 1.398 . S
C1806 H1794 0.950 . S
C1806 C1805 1.398 . S
C1806 C1807 1.391 . S
C1807 H1795 0.950 . S
C1807 C1803 1.393 . S
C1807 C1806 1.391 . S
H1808 C1816 0.950 . S
H1809 C1821 0.950 . S
H1810 C1818 0.950 . S
H1811 C1820 0.950 . S
H1812 C1822 0.950 . S
H1813 C1824 0.950 . S
H1814 C1826 0.950 . S
H1815 C1827 0.950 . S
C1816 H1808 0.950 . S
C1816 C1817 1.386 . S
C1816 C1818 1.391 . S
C1817 C1816 1.386 . S
C1817 C1821 1.393 . S
C1818 H1810 0.950 . S
C1818 C1816 1.391 . S
C1818 C1819 1.400 . S
C1819 C1818 1.400 . S
C1819 C1820 1.398 . S
C1819 C1825 1.491 1_655 S
C1820 H1811 0.950 . S
C1820 C1819 1.398 . S
C1820 C1821 1.391 . S
C1821 H1809 0.950 . S
C1821 C1817 1.393 . S
C1821 C1820 1.391 . S
C1822 H1812 0.950 . S
C1822 C1823 1.386 . S
C1822 C1824 1.391 . S
C1823 C1822 1.386 . S
C1823 C1827 1.393 . S
C1824 H1813 0.950 . S
C1824 C1822 1.391 . S
C1824 C1825 1.400 . S
C1825 C1819 1.491 1_455 S
C1825 C1824 1.400 . S
C1825 C1826 1.398 . S
C1826 H1814 0.950 . S
C1826 C1825 1.398 . S
C1826 C1827 1.391 . S
C1827 H1815 0.950 . S
C1827 C1823 1.393 . S
C1827 C1826 1.391 . S
H1828 C1836 0.950 . S
H1829 C1841 0.950 . S
H1830 C1838 0.950 . S
H1831 C1840 0.950 . S
H1832 C1842 0.950 . S
H1833 C1844 0.950 . S
H1834 C1846 0.950 . S
H1835 C1847 0.950 . S
C1836 H1828 0.950 . S
C1836 C1837 1.386 . S
C1836 C1838 1.391 . S
C1837 C1836 1.386 . S
C1837 C1841 1.393 . S
C1838 H1830 0.950 . S
C1838 C1836 1.391 . S
C1838 C1839 1.400 . S
C1839 C1838 1.400 . S
C1839 C1840 1.398 . S
C1839 C1845 1.491 . S
C1840 H1831 0.950 . S
C1840 C1839 1.398 . S
C1840 C1841 1.391 . S
C1841 H1829 0.950 . S
C1841 C1837 1.393 . S
C1841 C1840 1.391 . S
C1842 H1832 0.950 . S
C1842 C1843 1.386 . S
C1842 C1844 1.391 . S
C1843 C1842 1.386 . S
C1843 C1847 1.393 . S
C1844 H1833 0.950 . S
C1844 C1842 1.391 . S
C1844 C1845 1.400 . S
C1845 C1839 1.491 . S
C1845 C1844 1.400 . S
C1845 C1846 1.398 . S
C1846 H1834 0.950 . S
C1846 C1845 1.398 . S
C1846 C1847 1.391 . S
C1847 H1835 0.950 . S
C1847 C1843 1.393 . S
C1847 C1846 1.391 . S
H1848 C1856 0.950 . S
H1849 C1861 0.950 . S
H1850 C1858 0.950 . S
H1851 C1860 0.950 . S
H1852 C1862 0.950 . S
H1853 C1864 0.950 . S
H1854 C1866 0.950 . S
H1855 C1867 0.950 . S
C1856 H1848 0.950 . S
C1856 C1857 1.386 . S
C1856 C1858 1.391 . S
C1857 C1856 1.386 . S
C1857 C1861 1.393 . S
C1858 H1850 0.950 . S
C1858 C1856 1.391 . S
C1858 C1859 1.400 . S
C1859 C1858 1.400 . S
C1859 C1860 1.398 . S
C1859 C1865 1.491 . S
C1860 H1851 0.950 . S
C1860 C1859 1.398 . S
C1860 C1861 1.391 . S
C1861 H1849 0.950 . S
C1861 C1857 1.393 . S
C1861 C1860 1.391 . S
C1862 H1852 0.950 . S
C1862 C1863 1.386 . S
C1862 C1864 1.391 . S
C1863 C1862 1.386 . S
C1863 C1867 1.393 . S
C1864 H1853 0.950 . S
C1864 C1862 1.391 . S
C1864 C1865 1.400 . S
C1865 C1859 1.491 . S
C1865 C1864 1.400 . S
C1865 C1866 1.398 . S
C1866 H1854 0.950 . S
C1866 C1865 1.398 . S
C1866 C1867 1.391 . S
C1867 H1855 0.950 . S
C1867 C1863 1.393 . S
C1867 C1866 1.391 . S
H1868 C1876 0.950 . S
H1869 C1881 0.950 . S
H1870 C1878 0.950 . S
H1871 C1880 0.950 . S
H1872 C1882 0.950 . S
H1873 C1884 0.950 . S
H1874 C1886 0.950 . S
H1875 C1887 0.950 . S
C1876 H1868 0.950 . S
C1876 C1877 1.386 . S
C1876 C1878 1.391 . S
C1877 C1876 1.386 . S
C1877 C1881 1.393 . S
C1878 H1870 0.950 . S
C1878 C1876 1.391 . S
C1878 C1879 1.400 . S
C1879 C1878 1.400 . S
C1879 C1880 1.398 . S
C1879 C1885 1.491 1_455 S
C1880 H1871 0.950 . S
C1880 C1879 1.398 . S
C1880 C1881 1.391 . S
C1881 H1869 0.950 . S
C1881 C1877 1.393 . S
C1881 C1880 1.391 . S
C1882 H1872 0.950 . S
C1882 C1883 1.386 . S
C1882 C1884 1.391 . S
C1883 C1882 1.386 . S
C1883 C1887 1.393 . S
C1884 H1873 0.950 . S
C1884 C1882 1.391 . S
C1884 C1885 1.400 . S
C1885 C1879 1.491 1_655 S
C1885 C1884 1.400 . S
C1885 C1886 1.398 . S
C1886 H1874 0.950 . S
C1886 C1885 1.398 . S
C1886 C1887 1.391 . S
C1887 H1875 0.950 . S
C1887 C1883 1.393 . S
C1887 C1886 1.391 . S
H1888 C1896 0.950 . S
H1889 C1901 0.950 . S
H1890 C1898 0.950 . S
H1891 C1900 0.950 1_455 S
H1892 C1902 0.950 . S
H1893 C1904 0.950 . S
H1894 C1906 0.950 1_655 S
H1895 C1907 0.950 . S
C1896 H1888 0.950 . S
C1896 C1897 1.386 . S
C1896 C1898 1.391 . S
C1897 C1896 1.386 . S
C1897 C1901 1.393 . S
C1898 H1890 0.950 . S
C1898 C1896 1.391 . S
C1898 C1899 1.400 . S
C1899 C1898 1.400 . S
C1899 C1900 1.398 . S
C1899 C1905 1.491 1_655 S
C1900 H1891 0.950 1_655 S
C1900 C1899 1.398 . S
C1900 C1901 1.391 . S
C1901 H1889 0.950 . S
C1901 C1897 1.393 . S
C1901 C1900 1.391 . S
C1902 H1892 0.950 . S
C1902 C1903 1.386 . S
C1902 C1904 1.391 . S
C1903 C1902 1.386 . S
C1903 C1907 1.393 . S
C1904 H1893 0.950 . S
C1904 C1902 1.391 . S
C1904 C1905 1.400 . S
C1905 C1899 1.491 1_455 S
C1905 C1904 1.400 . S
C1905 C1906 1.398 . S
C1906 H1894 0.950 1_455 S
C1906 C1905 1.398 . S
C1906 C1907 1.391 . S
C1907 H1895 0.950 . S
C1907 C1903 1.393 . S
C1907 C1906 1.391 . S
H1908 C1916 0.950 . S
H1909 C1921 0.950 . S
H1910 C1918 0.950 . S
H1911 C1920 0.950 1_455 S
H1912 C1922 0.950 . S
H1913 C1924 0.950 . S
H1914 C1926 0.950 1_655 S
H1915 C1927 0.950 . S
C1916 H1908 0.950 . S
C1916 C1917 1.386 . S
C1916 C1918 1.391 . S
C1917 C1916 1.386 . S
C1917 C1921 1.393 . S
C1918 H1910 0.950 . S
C1918 C1916 1.391 . S
C1918 C1919 1.400 . S
C1919 C1918 1.400 . S
C1919 C1920 1.398 . S
C1919 C1925 1.491 1_655 S
C1920 H1911 0.950 1_655 S
C1920 C1919 1.398 . S
C1920 C1921 1.391 . S
C1921 H1909 0.950 . S
C1921 C1917 1.393 . S
C1921 C1920 1.391 . S
C1922 H1912 0.950 . S
C1922 C1923 1.386 . S
C1922 C1924 1.391 . S
C1923 C1922 1.386 . S
C1923 C1927 1.393 . S
C1924 H1913 0.950 . S
C1924 C1922 1.391 . S
C1924 C1925 1.400 . S
C1925 C1919 1.491 1_455 S
C1925 C1924 1.400 . S
C1925 C1926 1.398 . S
C1926 H1914 0.950 1_455 S
C1926 C1925 1.398 . S
C1926 C1927 1.391 . S
C1927 H1915 0.950 . S
C1927 C1923 1.393 . S
C1927 C1926 1.391 . S
H1928 C1936 0.950 . S
H1929 C1941 0.950 . S
H1930 C1938 0.950 . S
H1931 C1940 0.950 . S
H1932 C1942 0.950 . S
H1933 C1944 0.950 . S
H1934 C1946 0.950 . S
H1935 C1947 0.950 . S
C1936 H1928 0.950 . S
C1936 C1937 1.386 . S
C1936 C1938 1.391 . S
C1937 C1936 1.386 . S
C1937 C1941 1.393 . S
C1938 H1930 0.950 . S
C1938 C1936 1.391 . S
C1938 C1939 1.400 . S
C1939 C1938 1.400 . S
C1939 C1940 1.398 . S
C1939 C1945 1.491 . S
C1940 H1931 0.950 . S
C1940 C1939 1.398 . S
C1940 C1941 1.391 . S
C1941 H1929 0.950 . S
C1941 C1937 1.393 . S
C1941 C1940 1.391 . S
C1942 H1932 0.950 . S
C1942 C1943 1.386 . S
C1942 C1944 1.391 . S
C1943 C1942 1.386 . S
C1943 C1947 1.393 . S
C1944 H1933 0.950 . S
C1944 C1942 1.391 . S
C1944 C1945 1.400 . S
C1945 C1939 1.491 . S
C1945 C1944 1.400 . S
C1945 C1946 1.398 . S
C1946 H1934 0.950 . S
C1946 C1945 1.398 . S
C1946 C1947 1.391 . S
C1947 H1935 0.950 . S
C1947 C1943 1.393 . S
C1947 C1946 1.391 . S
H1948 C1956 0.950 1_554 S
H1949 C1961 0.950 . S
H1950 C1958 0.950 1_554 S
H1951 C1960 0.950 . S
H1952 C1962 0.950 . S
H1953 C1964 0.950 . S
H1954 C1966 0.954 . S
H1955 C1967 0.946 1_554 S
C1956 H1948 0.950 1_556 S
C1956 C1957 1.386 . S
C1956 C1958 1.391 . S
C1957 C1956 1.386 . S
C1957 C1961 1.393 . S
C1958 H1950 0.950 1_556 S
C1958 C1956 1.391 . S
C1958 C1959 1.400 . S
C1959 C1958 1.400 . S
C1959 C1960 1.398 . S
C1959 C1965 1.491 . S
C1960 H1951 0.950 . S
C1960 C1959 1.398 . S
C1960 C1961 1.391 . S
C1961 H1949 0.950 . S
C1961 C1957 1.393 . S
C1961 C1960 1.391 . S
C1962 H1952 0.950 . S
C1962 C1963 1.386 . S
C1962 C1964 1.391 . S
C1963 C1962 1.386 . S
C1963 C1967 1.393 . S
C1964 H1953 0.950 . S
C1964 C1962 1.391 . S
C1964 C1965 1.400 . S
C1965 C1959 1.491 . S
C1965 C1964 1.400 . S
C1965 C1966 1.398 . S
C1966 H1954 0.954 . S
C1966 C1965 1.398 . S
C1966 C1967 1.391 . S
C1967 H1955 0.946 1_556 S
C1967 C1963 1.393 . S
C1967 C1966 1.391 . S
H1968 C1976 0.950 . S
H1969 C1981 0.950 . S
H1970 C1978 0.950 . S
H1971 C1980 0.950 1_455 S
H1972 C1982 0.950 . S
H1973 C1984 0.950 . S
H1974 C1986 0.950 1_655 S
H1975 C1987 0.950 . S
C1976 H1968 0.950 . S
C1976 C1977 1.386 . S
C1976 C1978 1.391 . S
C1977 C1976 1.386 . S
C1977 C1981 1.393 . S
C1978 H1970 0.950 . S
C1978 C1976 1.391 . S
C1978 C1979 1.400 . S
C1979 C1978 1.400 . S
C1979 C1980 1.398 . S
C1979 C1985 1.491 1_655 S
C1980 H1971 0.950 1_655 S
C1980 C1979 1.398 . S
C1980 C1981 1.391 . S
C1981 H1969 0.950 . S
C1981 C1977 1.393 . S
C1981 C1980 1.391 . S
C1982 H1972 0.950 . S
C1982 C1983 1.386 . S
C1982 C1984 1.391 . S
C1983 C1982 1.386 . S
C1983 C1987 1.393 . S
C1984 H1973 0.950 . S
C1984 C1982 1.391 . S
C1984 C1985 1.400 . S
C1985 C1979 1.491 1_455 S
C1985 C1984 1.400 . S
C1985 C1986 1.398 . S
C1986 H1974 0.950 1_455 S
C1986 C1985 1.398 . S
C1986 C1987 1.391 . S
C1987 H1975 0.950 . S
C1987 C1983 1.393 . S
C1987 C1986 1.391 . S
H1988 C1996 0.950 . S
H1989 C2001 0.950 . S
H1990 C1998 0.950 . S
H1991 C2000 0.950 . S
H1992 C2002 0.950 . S
H1993 C2004 0.950 . S
H1994 C2006 0.950 . S
H1995 C2007 0.950 . S
C1996 H1988 0.950 . S
C1996 C1997 1.386 . S
C1996 C1998 1.391 . S
C1997 C1996 1.386 . S
C1997 C2001 1.393 . S
C1998 H1990 0.950 . S
C1998 C1996 1.391 . S
C1998 C1999 1.400 . S
C1999 C1998 1.400 . S
C1999 C2000 1.398 . S
C1999 C2005 1.491 . S
C2000 H1991 0.950 . S
C2000 C1999 1.398 . S
C2000 C2001 1.391 . S
C2001 H1989 0.950 . S
C2001 C1997 1.393 . S
C2001 C2000 1.391 . S
C2002 H1992 0.950 . S
C2002 C2003 1.386 . S
C2002 C2004 1.391 . S
C2003 C2002 1.386 . S
C2003 C2007 1.393 . S
C2004 H1993 0.950 . S
C2004 C2002 1.391 . S
C2004 C2005 1.400 . S
C2005 C1999 1.491 . S
C2005 C2004 1.400 . S
C2005 C2006 1.398 . S
C2006 H1994 0.950 . S
C2006 C2005 1.398 . S
C2006 C2007 1.391 . S
C2007 H1995 0.950 . S
C2007 C2003 1.393 . S
C2007 C2006 1.391 . S
H2008 C2016 0.950 . S
H2009 C2021 0.950 . S
H2010 C2018 0.950 . S
H2011 C2020 0.950 . S
H2012 C2022 0.950 . S
H2013 C2024 0.950 . S
H2014 C2026 0.950 . S
H2015 C2027 0.950 . S
C2016 H2008 0.950 . S
C2016 C2017 1.386 . S
C2016 C2018 1.391 . S
C2017 C2016 1.386 . S
C2017 C2021 1.393 . S
C2018 H2010 0.950 . S
C2018 C2016 1.391 . S
C2018 C2019 1.400 . S
C2019 C2018 1.400 . S
C2019 C2020 1.398 . S
C2019 C2025 1.491 . S
C2020 H2011 0.950 . S
C2020 C2019 1.398 . S
C2020 C2021 1.391 . S
C2021 H2009 0.950 . S
C2021 C2017 1.393 . S
C2021 C2020 1.391 . S
C2022 H2012 0.950 . S
C2022 C2023 1.386 . S
C2022 C2024 1.391 . S
C2023 C2022 1.386 . S
C2023 C2027 1.393 . S
C2024 H2013 0.950 . S
C2024 C2022 1.391 . S
C2024 C2025 1.400 . S
C2025 C2019 1.491 . S
C2025 C2024 1.400 . S
C2025 C2026 1.398 . S
C2026 H2014 0.950 . S
C2026 C2025 1.398 . S
C2026 C2027 1.391 . S
C2027 H2015 0.950 . S
C2027 C2023 1.393 . S
C2027 C2026 1.391 . S
H2028 C2036 0.950 . S
H2029 C2041 0.950 . S
H2030 C2038 0.950 . S
H2031 C2040 0.950 . S
H2032 C2042 0.950 . S
H2033 C2044 0.950 . S
H2034 C2046 0.950 . S
H2035 C2047 0.950 . S
C2036 H2028 0.950 . S
C2036 C2037 1.386 . S
C2036 C2038 1.391 . S
C2037 C2036 1.386 . S
C2037 C2041 1.393 1_554 S
C2038 H2030 0.950 . S
C2038 C2036 1.391 . S
C2038 C2039 1.400 . S
C2039 C2038 1.400 . S
C2039 C2040 1.398 1_554 S
C2039 C2045 1.491 1_455 S
C2040 H2031 0.950 . S
C2040 C2039 1.398 1_556 S
C2040 C2041 1.391 . S
C2041 H2029 0.950 . S
C2041 C2037 1.393 1_556 S
C2041 C2040 1.391 . S
C2042 H2032 0.950 . S
C2042 C2043 1.386 1_556 S
C2042 C2044 1.391 . S
C2043 C2042 1.386 1_554 S
C2043 C2047 1.393 . S
C2044 H2033 0.950 . S
C2044 C2042 1.391 . S
C2044 C2045 1.400 1_556 S
C2045 C2039 1.491 1_655 S
C2045 C2044 1.400 1_554 S
C2045 C2046 1.398 . S
C2046 H2034 0.950 . S
C2046 C2045 1.398 . S
C2046 C2047 1.391 . S
C2047 H2035 0.950 . S
C2047 C2043 1.393 . S
C2047 C2046 1.391 . S
H2048 C2056 0.950 . S
H2049 C2061 0.950 . S
H2050 C2058 0.950 . S
H2051 C2060 0.950 . S
H2052 C2062 0.950 . S
H2053 C2064 0.950 . S
H2054 C2066 0.950 . S
H2055 C2067 0.950 . S
C2056 H2048 0.950 . S
C2056 C2057 1.386 . S
C2056 C2058 1.391 . S
C2057 C2056 1.386 . S
C2057 C2061 1.393 . S
C2058 H2050 0.950 . S
C2058 C2056 1.391 . S
C2058 C2059 1.400 . S
C2059 C2058 1.400 . S
C2059 C2060 1.398 . S
C2059 C2065 1.491 . S
C2060 H2051 0.950 . S
C2060 C2059 1.398 . S
C2060 C2061 1.391 . S
C2061 H2049 0.950 . S
C2061 C2057 1.393 . S
C2061 C2060 1.391 . S
C2062 H2052 0.950 . S
C2062 C2063 1.386 . S
C2062 C2064 1.391 . S
C2063 C2062 1.386 . S
C2063 C2067 1.393 . S
C2064 H2053 0.950 . S
C2064 C2062 1.391 . S
C2064 C2065 1.400 . S
C2065 C2059 1.491 . S
C2065 C2064 1.400 . S
C2065 C2066 1.398 . S
C2066 H2054 0.950 . S
C2066 C2065 1.398 . S
C2066 C2067 1.391 . S
C2067 H2055 0.950 . S
C2067 C2063 1.393 . S
C2067 C2066 1.391 . S
H2068 C2076 0.950 . S
H2069 C2081 0.950 . S
H2070 C2078 0.950 . S
H2071 C2080 0.950 . S
H2072 C2082 0.950 . S
H2073 C2084 0.950 1_655 S
H2074 C2086 0.950 . S
H2075 C2087 0.950 . S
C2076 H2068 0.950 . S
C2076 C2077 1.386 . S
C2076 C2078 1.391 . S
C2077 C2076 1.386 . S
C2077 C2081 1.393 . S
C2078 H2070 0.950 . S
C2078 C2076 1.391 . S
C2078 C2079 1.400 . S
C2079 C2078 1.400 . S
C2079 C2080 1.398 . S
C2079 C2085 1.491 . S
C2080 H2071 0.950 . S
C2080 C2079 1.398 . S
C2080 C2081 1.391 . S
C2081 H2069 0.950 . S
C2081 C2077 1.393 . S
C2081 C2080 1.391 . S
C2082 H2072 0.950 . S
C2082 C2083 1.386 . S
C2082 C2084 1.391 1_655 S
C2083 C2082 1.386 . S
C2083 C2087 1.393 1_655 S
C2084 H2073 0.950 1_455 S
C2084 C2082 1.391 1_455 S
C2084 C2085 1.400 . S
C2085 C2079 1.491 . S
C2085 C2084 1.400 . S
C2085 C2086 1.398 . S
C2086 H2074 0.950 . S
C2086 C2085 1.398 . S
C2086 C2087 1.391 . S
C2087 H2075 0.950 . S
C2087 C2083 1.393 1_455 S
C2087 C2086 1.391 . S
H2088 C2096 0.950 . S
H2089 C2101 0.950 . S
H2090 C2098 0.950 . S
H2091 C2100 0.950 . S
H2092 C2102 0.950 . S
H2093 C2104 0.950 . S
H2094 C2106 0.950 . S
H2095 C2107 0.950 . S
C2096 H2088 0.950 . S
C2096 C2097 1.386 . S
C2096 C2098 1.391 . S
C2097 C2096 1.386 . S
C2097 C2101 1.393 . S
C2098 H2090 0.950 . S
C2098 C2096 1.391 . S
C2098 C2099 1.400 . S
C2099 C2098 1.400 . S
C2099 C2100 1.398 . S
C2099 C2105 1.491 . S
C2100 H2091 0.950 . S
C2100 C2099 1.398 . S
C2100 C2101 1.391 . S
C2101 H2089 0.950 . S
C2101 C2097 1.393 . S
C2101 C2100 1.391 . S
C2102 H2092 0.950 . S
C2102 C2103 1.386 . S
C2102 C2104 1.391 . S
C2103 C2102 1.386 . S
C2103 C2107 1.393 . S
C2104 H2093 0.950 . S
C2104 C2102 1.391 . S
C2104 C2105 1.400 . S
C2105 C2099 1.491 . S
C2105 C2104 1.400 . S
C2105 C2106 1.398 . S
C2106 H2094 0.950 . S
C2106 C2105 1.398 . S
C2106 C2107 1.391 . S
C2107 H2095 0.950 . S
C2107 C2103 1.393 . S
C2107 C2106 1.391 . S
H2108 C2116 0.950 . S
H2109 C2121 0.950 . S
H2110 C2118 0.950 . S
H2111 C2120 0.950 . S
H2112 C2122 0.950 . S
H2113 C2124 0.950 . S
H2114 C2126 0.950 . S
H2115 C2127 0.950 . S
C2116 H2108 0.950 . S
C2116 C2117 1.386 . S
C2116 C2118 1.391 . S
C2117 C2116 1.386 . S
C2117 C2121 1.393 . S
C2118 H2110 0.950 . S
C2118 C2116 1.391 . S
C2118 C2119 1.400 . S
C2119 C2118 1.400 . S
C2119 C2120 1.398 . S
C2119 C2125 1.491 . S
C2120 H2111 0.950 . S
C2120 C2119 1.398 . S
C2120 C2121 1.391 . S
C2121 H2109 0.950 . S
C2121 C2117 1.393 . S
C2121 C2120 1.391 . S
C2122 H2112 0.950 . S
C2122 C2123 1.386 . S
C2122 C2124 1.391 . S
C2123 C2122 1.386 . S
C2123 C2127 1.393 . S
C2124 H2113 0.950 . S
C2124 C2122 1.391 . S
C2124 C2125 1.400 . S
C2125 C2119 1.491 . S
C2125 C2124 1.400 . S
C2125 C2126 1.398 . S
C2126 H2114 0.950 . S
C2126 C2125 1.398 . S
C2126 C2127 1.391 . S
C2127 H2115 0.950 . S
C2127 C2123 1.393 . S
C2127 C2126 1.391 . S
H2128 C2136 0.950 . S
H2129 C2141 0.950 . S
H2130 C2138 0.950 . S
H2131 C2140 0.950 . S
H2132 C2142 0.950 . S
H2133 C2144 0.950 . S
H2134 C2146 0.950 . S
H2135 C2147 0.950 . S
C2136 H2128 0.950 . S
C2136 C2137 1.386 . S
C2136 C2138 1.391 . S
C2137 C2136 1.386 . S
C2137 C2141 1.393 . S
C2138 H2130 0.950 . S
C2138 C2136 1.391 . S
C2138 C2139 1.400 . S
C2139 C2138 1.400 . S
C2139 C2140 1.398 . S
C2139 C2145 1.491 . S
C2140 H2131 0.950 . S
C2140 C2139 1.398 . S
C2140 C2141 1.391 . S
C2141 H2129 0.950 . S
C2141 C2137 1.393 . S
C2141 C2140 1.391 . S
C2142 H2132 0.950 . S
C2142 C2143 1.386 . S
C2142 C2144 1.391 . S
C2143 C2142 1.386 . S
C2143 C2147 1.393 . S
C2144 H2133 0.950 . S
C2144 C2142 1.391 . S
C2144 C2145 1.400 . S
C2145 C2139 1.491 . S
C2145 C2144 1.400 . S
C2145 C2146 1.398 . S
C2146 H2134 0.950 . S
C2146 C2145 1.398 . S
C2146 C2147 1.391 . S
C2147 H2135 0.950 . S
C2147 C2143 1.393 . S
C2147 C2146 1.391 . S
H2148 C2156 0.950 . S
H2149 C2161 0.950 . S
H2150 C2158 0.950 . S
H2151 C2160 0.950 . S
H2152 C2162 0.950 . S
H2153 C2164 0.950 . S
H2154 C2166 0.950 . S
H2155 C2167 0.950 . S
C2156 H2148 0.950 . S
C2156 C2157 1.386 . S
C2156 C2158 1.391 . S
C2157 C2156 1.386 . S
C2157 C2161 1.393 . S
C2158 H2150 0.950 . S
C2158 C2156 1.391 . S
C2158 C2159 1.400 . S
C2159 C2158 1.400 . S
C2159 C2160 1.398 . S
C2159 C2165 1.491 . S
C2160 H2151 0.950 . S
C2160 C2159 1.398 . S
C2160 C2161 1.391 . S
C2161 H2149 0.950 . S
C2161 C2157 1.393 . S
C2161 C2160 1.391 . S
C2162 H2152 0.950 . S
C2162 C2163 1.386 . S
C2162 C2164 1.391 . S
C2163 C2162 1.386 . S
C2163 C2167 1.393 . S
C2164 H2153 0.950 . S
C2164 C2162 1.391 . S
C2164 C2165 1.400 . S
C2165 C2159 1.491 . S
C2165 C2164 1.400 . S
C2165 C2166 1.398 . S
C2166 H2154 0.950 . S
C2166 C2165 1.398 . S
C2166 C2167 1.391 . S
C2167 H2155 0.950 . S
C2167 C2163 1.393 . S
C2167 C2166 1.391 . S
H2168 C2176 0.950 . S
H2169 C2181 0.950 . S
H2170 C2178 0.950 . S
H2171 C2180 0.950 . S
H2172 C2182 0.950 . S
H2173 C2184 0.950 . S
H2174 C2186 0.950 . S
H2175 C2187 0.950 . S
C2176 H2168 0.950 . S
C2176 C2177 1.386 . S
C2176 C2178 1.391 . S
C2177 C2176 1.386 . S
C2177 C2181 1.393 . S
C2178 H2170 0.950 . S
C2178 C2176 1.391 . S
C2178 C2179 1.400 . S
C2179 C2178 1.400 . S
C2179 C2180 1.398 . S
C2179 C2185 1.491 . S
C2180 H2171 0.950 . S
C2180 C2179 1.398 . S
C2180 C2181 1.391 . S
C2181 H2169 0.950 . S
C2181 C2177 1.393 . S
C2181 C2180 1.391 . S
C2182 H2172 0.950 . S
C2182 C2183 1.386 . S
C2182 C2184 1.391 . S
C2183 C2182 1.386 . S
C2183 C2187 1.393 . S
C2184 H2173 0.950 . S
C2184 C2182 1.391 . S
C2184 C2185 1.400 . S
C2185 C2179 1.491 . S
C2185 C2184 1.400 . S
C2185 C2186 1.398 . S
C2186 H2174 0.950 . S
C2186 C2185 1.398 . S
C2186 C2187 1.391 . S
C2187 H2175 0.950 . S
C2187 C2183 1.393 . S
C2187 C2186 1.391 . S
H2188 C2196 0.950 . S
H2189 C2201 0.950 . S
H2190 C2198 0.950 . S
H2191 C2200 0.950 . S
H2192 C2202 0.950 . S
H2193 C2204 0.950 . S
H2194 C2206 0.950 . S
H2195 C2207 0.950 . S
C2196 H2188 0.950 . S
C2196 C2197 1.386 . S
C2196 C2198 1.391 1_655 S
C2197 C2196 1.386 . S
C2197 C2201 1.393 . S
C2198 H2190 0.950 . S
C2198 C2196 1.391 1_455 S
C2198 C2199 1.400 . S
C2199 C2198 1.400 . S
C2199 C2200 1.398 . S
C2199 C2205 1.491 . S
C2200 H2191 0.950 . S
C2200 C2199 1.398 . S
C2200 C2201 1.391 1_455 S
C2201 H2189 0.950 . S
C2201 C2197 1.393 . S
C2201 C2200 1.391 1_655 S
C2202 H2192 0.950 . S
C2202 C2203 1.386 . S
C2202 C2204 1.391 . S
C2203 C2202 1.386 . S
C2203 C2207 1.393 . S
C2204 H2193 0.950 . S
C2204 C2202 1.391 . S
C2204 C2205 1.400 . S
C2205 C2199 1.491 . S
C2205 C2204 1.400 . S
C2205 C2206 1.398 . S
C2206 H2194 0.950 . S
C2206 C2205 1.398 . S
C2206 C2207 1.391 . S
C2207 H2195 0.950 . S
C2207 C2203 1.393 . S
C2207 C2206 1.391 . S
H2208 C2216 0.950 . S
H2209 C2221 0.950 . S
H2210 C2218 0.950 . S
H2211 C2220 0.950 . S
H2212 C2222 0.950 . S
H2213 C2224 0.950 . S
H2214 C2226 0.950 . S
H2215 C2227 0.950 . S
C2216 H2208 0.950 . S
C2216 C2217 1.386 . S
C2216 C2218 1.391 . S
C2217 C2216 1.386 . S
C2217 C2221 1.393 . S
C2218 H2210 0.950 . S
C2218 C2216 1.391 . S
C2218 C2219 1.400 . S
C2219 C2218 1.400 . S
C2219 C2220 1.398 . S
C2219 C2225 1.491 . S
C2220 H2211 0.950 . S
C2220 C2219 1.398 . S
C2220 C2221 1.391 . S
C2221 H2209 0.950 . S
C2221 C2217 1.393 . S
C2221 C2220 1.391 . S
C2222 H2212 0.950 . S
C2222 C2223 1.386 . S
C2222 C2224 1.391 . S
C2223 C2222 1.386 . S
C2223 C2227 1.393 . S
C2224 H2213 0.950 . S
C2224 C2222 1.391 . S
C2224 C2225 1.400 . S
C2225 C2219 1.491 . S
C2225 C2224 1.400 . S
C2225 C2226 1.398 . S
C2226 H2214 0.950 . S
C2226 C2225 1.398 . S
C2226 C2227 1.391 . S
C2227 H2215 0.950 . S
C2227 C2223 1.393 . S
C2227 C2226 1.391 . S
H2228 C2236 0.950 . S
H2229 C2241 0.950 . S
H2230 C2238 0.950 . S
H2231 C2240 0.950 . S
H2232 C2242 0.950 1_455 S
H2233 C2244 0.950 . S
H2234 C2246 0.950 . S
H2235 C2247 0.950 . S
C2236 H2228 0.950 . S
C2236 C2237 1.386 . S
C2236 C2238 1.391 . S
C2237 C2236 1.386 . S
C2237 C2241 1.393 . S
C2238 H2230 0.950 . S
C2238 C2236 1.391 . S
C2238 C2239 1.400 . S
C2239 C2238 1.400 . S
C2239 C2240 1.398 . S
C2239 C2245 1.491 . S
C2240 H2231 0.950 . S
C2240 C2239 1.398 . S
C2240 C2241 1.391 . S
C2241 H2229 0.950 . S
C2241 C2237 1.393 . S
C2241 C2240 1.391 . S
C2242 H2232 0.950 1_655 S
C2242 C2243 1.386 . S
C2242 C2244 1.391 . S
C2243 C2242 1.386 . S
C2243 C2247 1.393 . S
C2244 H2233 0.950 . S
C2244 C2242 1.391 . S
C2244 C2245 1.400 . S
C2245 C2239 1.491 . S
C2245 C2244 1.400 . S
C2245 C2246 1.398 . S
C2246 H2234 0.950 . S
C2246 C2245 1.398 . S
C2246 C2247 1.391 . S
C2247 H2235 0.950 . S
C2247 C2243 1.393 . S
C2247 C2246 1.391 . S
H2248 C2256 0.950 . S
H2249 C2261 0.950 . S
H2250 C2258 0.950 . S
H2251 C2260 0.950 . S
H2252 C2262 0.950 . S
H2253 C2264 0.950 . S
H2254 C2266 0.950 . S
H2255 C2267 0.950 . S
C2256 H2248 0.950 . S
C2256 C2257 1.386 . S
C2256 C2258 1.391 . S
C2257 C2256 1.386 . S
C2257 C2261 1.393 . S
C2258 H2250 0.950 . S
C2258 C2256 1.391 . S
C2258 C2259 1.400 . S
C2259 C2258 1.400 . S
C2259 C2260 1.398 . S
C2259 C2265 1.491 . S
C2260 H2251 0.950 . S
C2260 C2259 1.398 . S
C2260 C2261 1.391 . S
C2261 H2249 0.950 . S
C2261 C2257 1.393 . S
C2261 C2260 1.391 . S
C2262 H2252 0.950 . S
C2262 C2263 1.386 . S
C2262 C2264 1.391 . S
C2263 C2262 1.386 . S
C2263 C2267 1.393 . S
C2264 H2253 0.950 . S
C2264 C2262 1.391 . S
C2264 C2265 1.400 . S
C2265 C2259 1.491 . S
C2265 C2264 1.400 . S
C2265 C2266 1.398 . S
C2266 H2254 0.950 . S
C2266 C2265 1.398 . S
C2266 C2267 1.391 . S
C2267 H2255 0.950 . S
C2267 C2263 1.393 . S
C2267 C2266 1.391 . S
H2268 C2276 0.950 . S
H2269 C2281 0.950 . S
H2270 C2278 0.950 . S
H2271 C2280 0.950 . S
H2272 C2282 0.950 . S
H2273 C2284 0.950 . S
H2274 C2286 0.950 . S
H2275 C2287 0.950 . S
C2276 H2268 0.950 . S
C2276 C2277 1.386 . S
C2276 C2278 1.391 . S
C2277 C2276 1.386 . S
C2277 C2281 1.393 . S
C2278 H2270 0.950 . S
C2278 C2276 1.391 . S
C2278 C2279 1.400 . S
C2279 C2278 1.400 . S
C2279 C2280 1.398 . S
C2279 C2285 1.491 . S
C2280 H2271 0.950 . S
C2280 C2279 1.398 . S
C2280 C2281 1.391 . S
C2281 H2269 0.950 . S
C2281 C2277 1.393 . S
C2281 C2280 1.391 . S
C2282 H2272 0.950 . S
C2282 C2283 1.386 . S
C2282 C2284 1.391 . S
C2283 C2282 1.386 . S
C2283 C2287 1.393 . S
C2284 H2273 0.950 . S
C2284 C2282 1.391 . S
C2284 C2285 1.400 . S
C2285 C2279 1.491 . S
C2285 C2284 1.400 . S
C2285 C2286 1.398 . S
C2286 H2274 0.950 . S
C2286 C2285 1.398 . S
C2286 C2287 1.391 . S
C2287 H2275 0.950 . S
C2287 C2283 1.393 . S
C2287 C2286 1.391 . S
H2288 C2296 0.950 . S
H2289 C2301 0.950 . S
H2290 C2298 0.950 . S
H2291 C2300 0.950 . S
H2292 C2302 0.950 . S
H2293 C2304 0.950 . S
H2294 C2306 0.950 . S
H2295 C2307 0.950 . S
C2296 H2288 0.950 . S
C2296 C2297 1.386 . S
C2296 C2298 1.391 . S
C2297 C2296 1.386 . S
C2297 C2301 1.393 . S
C2298 H2290 0.950 . S
C2298 C2296 1.391 . S
C2298 C2299 1.400 . S
C2299 C2298 1.400 . S
C2299 C2300 1.398 . S
C2299 C2305 1.491 . S
C2300 H2291 0.950 . S
C2300 C2299 1.398 . S
C2300 C2301 1.391 . S
C2301 H2289 0.950 . S
C2301 C2297 1.393 . S
C2301 C2300 1.391 . S
C2302 H2292 0.950 . S
C2302 C2303 1.386 . S
C2302 C2304 1.391 . S
C2303 C2302 1.386 . S
C2303 C2307 1.393 . S
C2304 H2293 0.950 . S
C2304 C2302 1.391 . S
C2304 C2305 1.400 . S
C2305 C2299 1.491 . S
C2305 C2304 1.400 . S
C2305 C2306 1.398 . S
C2306 H2294 0.950 . S
C2306 C2305 1.398 . S
C2306 C2307 1.391 . S
C2307 H2295 0.950 . S
C2307 C2303 1.393 . S
C2307 C2306 1.391 . S
H2308 C2316 0.950 . S
H2309 C2321 0.950 . S
H2310 C2318 0.950 . S
H2311 C2320 0.950 . S
H2312 C2322 0.950 . S
H2313 C2324 0.950 . S
H2314 C2326 0.950 . S
H2315 C2327 0.950 . S
C2316 H2308 0.950 . S
C2316 C2317 1.386 . S
C2316 C2318 1.391 . S
C2317 C2316 1.386 . S
C2317 C2321 1.393 . S
C2318 H2310 0.950 . S
C2318 C2316 1.391 . S
C2318 C2319 1.400 . S
C2319 C2318 1.400 . S
C2319 C2320 1.398 . S
C2319 C2325 1.491 . S
C2320 H2311 0.950 . S
C2320 C2319 1.398 . S
C2320 C2321 1.391 . S
C2321 H2309 0.950 . S
C2321 C2317 1.393 . S
C2321 C2320 1.391 . S
C2322 H2312 0.950 . S
C2322 C2323 1.386 . S
C2322 C2324 1.391 . S
C2323 C2322 1.386 . S
C2323 C2327 1.393 . S
C2324 H2313 0.950 . S
C2324 C2322 1.391 . S
C2324 C2325 1.400 . S
C2325 C2319 1.491 . S
C2325 C2324 1.400 . S
C2325 C2326 1.398 . S
C2326 H2314 0.950 . S
C2326 C2325 1.398 . S
C2326 C2327 1.391 . S
C2327 H2315 0.950 . S
C2327 C2323 1.393 . S
C2327 C2326 1.391 . S
H2328 C2336 0.950 . S
H2329 C2341 0.950 . S
H2330 C2338 0.950 . S
H2331 C2340 0.950 . S
H2332 C2342 0.950 . S
H2333 C2344 0.950 . S
H2334 C2346 0.950 . S
H2335 C2347 0.950 . S
C2336 H2328 0.950 . S
C2336 C2337 1.386 . S
C2336 C2338 1.391 . S
C2337 C2336 1.386 . S
C2337 C2341 1.393 . S
C2338 H2330 0.950 . S
C2338 C2336 1.391 . S
C2338 C2339 1.400 . S
C2339 C2338 1.400 . S
C2339 C2340 1.398 . S
C2339 C2345 1.491 . S
C2340 H2331 0.950 . S
C2340 C2339 1.398 . S
C2340 C2341 1.391 . S
C2341 H2329 0.950 . S
C2341 C2337 1.393 . S
C2341 C2340 1.391 . S
C2342 H2332 0.950 . S
C2342 C2343 1.386 . S
C2342 C2344 1.391 . S
C2343 C2342 1.386 . S
C2343 C2347 1.393 . S
C2344 H2333 0.950 . S
C2344 C2342 1.391 . S
C2344 C2345 1.400 . S
C2345 C2339 1.491 . S
C2345 C2344 1.400 . S
C2345 C2346 1.398 . S
C2346 H2334 0.950 . S
C2346 C2345 1.398 . S
C2346 C2347 1.391 . S
C2347 H2335 0.950 . S
C2347 C2343 1.393 . S
C2347 C2346 1.391 . S
H2348 C2356 0.933 1_455 S
H2349 C2361 0.950 . S
H2350 C2358 0.950 . S
H2351 C2360 0.950 . S
H2352 C2362 0.950 . S
H2353 C2364 0.950 . S
H2354 C2366 0.950 . S
H2355 C2367 0.950 . S
C2356 H2348 0.933 1_655 S
C2356 C2357 1.386 . S
C2356 C2358 1.391 . S
C2357 C2356 1.386 . S
C2357 C2361 1.393 . S
C2358 H2350 0.950 . S
C2358 C2356 1.391 . S
C2358 C2359 1.400 . S
C2359 C2358 1.400 . S
C2359 C2360 1.398 . S
C2359 C2365 1.491 . S
C2360 H2351 0.950 . S
C2360 C2359 1.398 . S
C2360 C2361 1.391 . S
C2361 H2349 0.950 . S
C2361 C2357 1.393 . S
C2361 C2360 1.391 . S
C2362 H2352 0.950 . S
C2362 C2363 1.386 . S
C2362 C2364 1.391 . S
C2363 C2362 1.386 . S
C2363 C2367 1.393 . S
C2364 H2353 0.950 . S
C2364 C2362 1.391 . S
C2364 C2365 1.400 . S
C2365 C2359 1.491 . S
C2365 C2364 1.400 . S
C2365 C2366 1.398 . S
C2366 H2354 0.950 . S
C2366 C2365 1.398 . S
C2366 C2367 1.391 . S
C2367 H2355 0.950 . S
C2367 C2363 1.393 . S
C2367 C2366 1.391 . S
H2368 C2376 0.950 . S
H2369 C2381 0.950 . S
H2370 C2378 0.950 . S
H2371 C2380 0.950 . S
H2372 C2382 0.950 . S
H2373 C2384 0.950 . S
H2374 C2386 0.950 . S
H2375 C2387 0.950 . S
C2376 H2368 0.950 . S
C2376 C2377 1.386 . S
C2376 C2378 1.391 . S
C2377 C2376 1.386 . S
C2377 C2381 1.393 . S
C2378 H2370 0.950 . S
C2378 C2376 1.391 . S
C2378 C2379 1.400 . S
C2379 C2378 1.400 . S
C2379 C2380 1.398 . S
C2379 C2385 1.491 . S
C2380 H2371 0.950 . S
C2380 C2379 1.398 . S
C2380 C2381 1.391 . S
C2381 H2369 0.950 . S
C2381 C2377 1.393 . S
C2381 C2380 1.391 . S
C2382 H2372 0.950 . S
C2382 C2383 1.386 . S
C2382 C2384 1.391 . S
C2383 C2382 1.386 . S
C2383 C2387 1.393 . S
C2384 H2373 0.950 . S
C2384 C2382 1.391 . S
C2384 C2385 1.400 . S
C2385 C2379 1.491 . S
C2385 C2384 1.400 . S
C2385 C2386 1.398 . S
C2386 H2374 0.950 . S
C2386 C2385 1.398 . S
C2386 C2387 1.391 . S
C2387 H2375 0.950 . S
C2387 C2383 1.393 . S
C2387 C2386 1.391 . S
H2388 C2396 0.950 . S
H2389 C2401 0.950 . S
H2390 C2398 0.950 . S
H2391 C2400 0.950 . S
H2392 C2402 0.950 . S
H2393 C2404 0.950 . S
H2394 C2406 0.950 . S
H2395 C2407 0.950 . S
C2396 H2388 0.950 . S
C2396 C2397 1.386 . S
C2396 C2398 1.391 . S
C2397 C2396 1.386 . S
C2397 C2401 1.393 . S
C2398 H2390 0.950 . S
C2398 C2396 1.391 . S
C2398 C2399 1.400 . S
C2399 C2398 1.400 . S
C2399 C2400 1.398 . S
C2399 C2405 1.491 . S
C2400 H2391 0.950 . S
C2400 C2399 1.398 . S
C2400 C2401 1.391 . S
C2401 H2389 0.950 . S
C2401 C2397 1.393 . S
C2401 C2400 1.391 . S
C2402 H2392 0.950 . S
C2402 C2403 1.386 . S
C2402 C2404 1.391 . S
C2403 C2402 1.386 . S
C2403 C2407 1.393 . S
C2404 H2393 0.950 . S
C2404 C2402 1.391 . S
C2404 C2405 1.400 . S
C2405 C2399 1.491 . S
C2405 C2404 1.400 . S
C2405 C2406 1.398 . S
C2406 H2394 0.950 . S
C2406 C2405 1.398 . S
C2406 C2407 1.391 . S
C2407 H2395 0.950 . S
C2407 C2403 1.393 . S
C2407 C2406 1.391 . S
H2408 C2416 0.950 . S
H2409 C2421 0.950 . S
H2410 C2418 0.950 . S
H2411 C2420 0.950 . S
H2412 C2422 0.950 . S
H2413 C2424 0.950 . S
H2414 C2426 0.950 . S
H2415 C2427 0.950 . S
C2416 H2408 0.950 . S
C2416 C2417 1.386 . S
C2416 C2418 1.391 . S
C2417 C2416 1.386 . S
C2417 C2421 1.393 . S
C2418 H2410 0.950 . S
C2418 C2416 1.391 . S
C2418 C2419 1.400 . S
C2419 C2418 1.400 . S
C2419 C2420 1.398 . S
C2419 C2425 1.491 . S
C2420 H2411 0.950 . S
C2420 C2419 1.398 . S
C2420 C2421 1.391 . S
C2421 H2409 0.950 . S
C2421 C2417 1.393 . S
C2421 C2420 1.391 . S
C2422 H2412 0.950 . S
C2422 C2423 1.386 . S
C2422 C2424 1.391 . S
C2423 C2422 1.386 . S
C2423 C2427 1.393 . S
C2424 H2413 0.950 . S
C2424 C2422 1.391 . S
C2424 C2425 1.400 . S
C2425 C2419 1.491 . S
C2425 C2424 1.400 . S
C2425 C2426 1.398 . S
C2426 H2414 0.950 . S
C2426 C2425 1.398 . S
C2426 C2427 1.391 . S
C2427 H2415 0.950 . S
C2427 C2423 1.393 . S
C2427 C2426 1.391 . S
H2428 C2436 0.950 . S
H2429 C2441 0.950 . S
H2430 C2438 0.950 . S
H2431 C2440 0.950 1_455 S
H2432 C2442 0.950 . S
H2433 C2444 0.950 . S
H2434 C2446 0.950 . S
H2435 C2447 0.950 . S
C2436 H2428 0.950 . S
C2436 C2437 1.386 1_655 S
C2436 C2438 1.391 . S
C2437 C2436 1.386 1_455 S
C2437 C2441 1.393 . S
C2438 H2430 0.950 . S
C2438 C2436 1.391 . S
C2438 C2439 1.400 . S
C2439 C2438 1.400 . S
C2439 C2440 1.398 . S
C2439 C2445 1.491 . S
C2440 H2431 0.950 1_655 S
C2440 C2439 1.398 . S
C2440 C2441 1.391 1_655 S
C2441 H2429 0.950 . S
C2441 C2437 1.393 . S
C2441 C2440 1.391 1_455 S
C2442 H2432 0.950 . S
C2442 C2443 1.386 . S
C2442 C2444 1.391 . S
C2443 C2442 1.386 . S
C2443 C2447 1.393 . S
C2444 H2433 0.950 . S
C2444 C2442 1.391 . S
C2444 C2445 1.400 . S
C2445 C2439 1.491 . S
C2445 C2444 1.400 . S
C2445 C2446 1.398 . S
C2446 H2434 0.950 . S
C2446 C2445 1.398 . S
C2446 C2447 1.391 . S
C2447 H2435 0.950 . S
C2447 C2443 1.393 . S
C2447 C2446 1.391 . S
H2448 C2456 0.950 . S
H2449 C2461 0.950 . S
H2450 C2458 0.950 . S
H2451 C2460 0.950 . S
H2452 C2462 0.950 . S
H2453 C2464 0.950 . S
H2454 C2466 0.950 . S
H2455 C2467 0.950 . S
C2456 H2448 0.950 . S
C2456 C2457 1.386 . S
C2456 C2458 1.391 . S
C2457 C2456 1.386 . S
C2457 C2461 1.393 . S
C2458 H2450 0.950 . S
C2458 C2456 1.391 . S
C2458 C2459 1.400 . S
C2459 C2458 1.400 . S
C2459 C2460 1.398 . S
C2459 C2465 1.491 . S
C2460 H2451 0.950 . S
C2460 C2459 1.398 . S
C2460 C2461 1.391 . S
C2461 H2449 0.950 . S
C2461 C2457 1.393 . S
C2461 C2460 1.391 . S
C2462 H2452 0.950 . S
C2462 C2463 1.386 . S
C2462 C2464 1.391 . S
C2463 C2462 1.386 . S
C2463 C2467 1.393 . S
C2464 H2453 0.950 . S
C2464 C2462 1.391 . S
C2464 C2465 1.400 . S
C2465 C2459 1.491 . S
C2465 C2464 1.400 . S
C2465 C2466 1.398 . S
C2466 H2454 0.950 . S
C2466 C2465 1.398 . S
C2466 C2467 1.391 . S
C2467 H2455 0.950 . S
C2467 C2463 1.393 . S
C2467 C2466 1.391 . S
H2468 C2476 0.950 . S
H2469 C2481 0.950 . S
H2470 C2478 0.950 . S
H2471 C2480 0.950 . S
H2472 C2482 0.950 . S
H2473 C2484 0.950 . S
H2474 C2486 0.950 . S
H2475 C2487 0.950 . S
C2476 H2468 0.950 . S
C2476 C2477 1.386 . S
C2476 C2478 1.391 . S
C2477 C2476 1.386 . S
C2477 C2481 1.393 . S
C2478 H2470 0.950 . S
C2478 C2476 1.391 . S
C2478 C2479 1.400 . S
C2479 C2478 1.400 . S
C2479 C2480 1.398 . S
C2479 C2485 1.491 . S
C2480 H2471 0.950 . S
C2480 C2479 1.398 . S
C2480 C2481 1.391 . S
C2481 H2469 0.950 . S
C2481 C2477 1.393 . S
C2481 C2480 1.391 . S
C2482 H2472 0.950 . S
C2482 C2483 1.386 . S
C2482 C2484 1.391 1_455 S
C2483 C2482 1.386 . S
C2483 C2487 1.393 1_455 S
C2484 H2473 0.950 . S
C2484 C2482 1.391 1_655 S
C2484 C2485 1.400 . S
C2485 C2479 1.491 . S
C2485 C2484 1.400 . S
C2485 C2486 1.398 . S
C2486 H2474 0.950 . S
C2486 C2485 1.398 . S
C2486 C2487 1.391 . S
C2487 H2475 0.950 . S
C2487 C2483 1.393 1_655 S
C2487 C2486 1.391 . S
H2488 C2496 0.950 . S
H2489 C2501 0.950 . S
H2490 C2498 0.950 . S
H2491 C2500 0.950 . S
H2492 C2502 0.950 . S
H2493 C2504 0.950 . S
H2494 C2506 0.950 . S
H2495 C2507 0.950 . S
C2496 H2488 0.950 . S
C2496 C2497 1.386 . S
C2496 C2498 1.391 . S
C2497 C2496 1.386 . S
C2497 C2501 1.393 . S
C2498 H2490 0.950 . S
C2498 C2496 1.391 . S
C2498 C2499 1.400 . S
C2499 C2498 1.400 . S
C2499 C2500 1.398 . S
C2499 C2505 1.491 . S
C2500 H2491 0.950 . S
C2500 C2499 1.398 . S
C2500 C2501 1.391 . S
C2501 H2489 0.950 . S
C2501 C2497 1.393 . S
C2501 C2500 1.391 . S
C2502 H2492 0.950 . S
C2502 C2503 1.386 . S
C2502 C2504 1.391 . S
C2503 C2502 1.386 . S
C2503 C2507 1.393 . S
C2504 H2493 0.950 . S
C2504 C2502 1.391 . S
C2504 C2505 1.400 . S
C2505 C2499 1.491 . S
C2505 C2504 1.400 . S
C2505 C2506 1.398 . S
C2506 H2494 0.950 . S
C2506 C2505 1.398 . S
C2506 C2507 1.391 . S
C2507 H2495 0.950 . S
C2507 C2503 1.393 . S
C2507 C2506 1.391 . S
H2508 C2516 0.950 . S
H2509 C2521 0.950 . S
H2510 C2518 0.950 . S
H2511 C2520 0.950 . S
H2512 C2522 0.950 . S
H2513 C2524 0.950 . S
H2514 C2526 0.950 . S
H2515 C2527 0.950 . S
C2516 H2508 0.950 . S
C2516 C2517 1.386 . S
C2516 C2518 1.391 . S
C2517 C2516 1.386 . S
C2517 C2521 1.393 . S
C2518 H2510 0.950 . S
C2518 C2516 1.391 . S
C2518 C2519 1.400 . S
C2519 C2518 1.400 . S
C2519 C2520 1.398 . S
C2519 C2525 1.491 . S
C2520 H2511 0.950 . S
C2520 C2519 1.398 . S
C2520 C2521 1.391 . S
C2521 H2509 0.950 . S
C2521 C2517 1.393 . S
C2521 C2520 1.391 . S
C2522 H2512 0.950 . S
C2522 C2523 1.386 . S
C2522 C2524 1.391 . S
C2523 C2522 1.386 . S
C2523 C2527 1.393 . S
C2524 H2513 0.950 . S
C2524 C2522 1.391 . S
C2524 C2525 1.400 . S
C2525 C2519 1.491 . S
C2525 C2524 1.400 . S
C2525 C2526 1.398 . S
C2526 H2514 0.950 . S
C2526 C2525 1.398 . S
C2526 C2527 1.391 . S
C2527 H2515 0.950 . S
C2527 C2523 1.393 . S
C2527 C2526 1.391 . S
H2528 C2536 0.950 . S
H2529 C2541 0.950 . S
H2530 C2538 0.950 . S
H2531 C2540 0.950 . S
H2532 C2542 0.950 . S
H2533 C2544 0.950 . S
H2534 C2546 0.950 . S
H2535 C2547 0.950 . S
C2536 H2528 0.950 . S
C2536 C2537 1.386 . S
C2536 C2538 1.391 . S
C2537 C2536 1.386 . S
C2537 C2541 1.393 . S
C2538 H2530 0.950 . S
C2538 C2536 1.391 . S
C2538 C2539 1.400 . S
C2539 C2538 1.400 . S
C2539 C2540 1.398 . S
C2539 C2545 1.491 . S
C2540 H2531 0.950 . S
C2540 C2539 1.398 . S
C2540 C2541 1.391 . S
C2541 H2529 0.950 . S
C2541 C2537 1.393 . S
C2541 C2540 1.391 . S
C2542 H2532 0.950 . S
C2542 C2543 1.386 . S
C2542 C2544 1.391 . S
C2543 C2542 1.386 . S
C2543 C2547 1.393 . S
C2544 H2533 0.950 . S
C2544 C2542 1.391 . S
C2544 C2545 1.400 . S
C2545 C2539 1.491 . S
C2545 C2544 1.400 . S
C2545 C2546 1.398 . S
C2546 H2534 0.950 . S
C2546 C2545 1.398 . S
C2546 C2547 1.391 . S
C2547 H2535 0.950 . S
C2547 C2543 1.393 . S
C2547 C2546 1.391 . S
H2548 C2556 0.950 . S
H2549 C2561 0.950 . S
H2550 C2558 0.950 . S
H2551 C2560 0.950 . S
H2552 C2562 0.950 . S
H2553 C2564 0.950 . S
H2554 C2566 0.950 . S
H2555 C2567 0.950 . S
C2556 H2548 0.950 . S
C2556 C2557 1.386 . S
C2556 C2558 1.391 . S
C2557 C2556 1.386 . S
C2557 C2561 1.393 . S
C2558 H2550 0.950 . S
C2558 C2556 1.391 . S
C2558 C2559 1.400 . S
C2559 C2558 1.400 . S
C2559 C2560 1.398 . S
C2559 C2565 1.491 . S
C2560 H2551 0.950 . S
C2560 C2559 1.398 . S
C2560 C2561 1.391 . S
C2561 H2549 0.950 . S
C2561 C2557 1.393 . S
C2561 C2560 1.391 . S
C2562 H2552 0.950 . S
C2562 C2563 1.386 . S
C2562 C2564 1.391 . S
C2563 C2562 1.386 . S
C2563 C2567 1.393 . S
C2564 H2553 0.950 . S
C2564 C2562 1.391 . S
C2564 C2565 1.400 . S
C2565 C2559 1.491 . S
C2565 C2564 1.400 . S
C2565 C2566 1.398 . S
C2566 H2554 0.950 . S
C2566 C2565 1.398 . S
C2566 C2567 1.391 . S
C2567 H2555 0.950 . S
C2567 C2563 1.393 . S
C2567 C2566 1.391 . S
H2568 C2576 0.950 . S
H2569 C2581 0.950 . S
H2570 C2578 0.950 . S
H2571 C2580 0.950 . S
H2572 C2582 0.950 . S
H2573 C2584 0.950 . S
H2574 C2586 0.950 . S
H2575 C2587 0.950 . S
C2576 H2568 0.950 . S
C2576 C2577 1.386 . S
C2576 C2578 1.391 . S
C2577 C2576 1.386 . S
C2577 C2581 1.393 . S
C2578 H2570 0.950 . S
C2578 C2576 1.391 . S
C2578 C2579 1.400 . S
C2579 C2578 1.400 . S
C2579 C2580 1.398 . S
C2579 C2585 1.491 . S
C2580 H2571 0.950 . S
C2580 C2579 1.398 . S
C2580 C2581 1.391 . S
C2581 H2569 0.950 . S
C2581 C2577 1.393 . S
C2581 C2580 1.391 . S
C2582 H2572 0.950 . S
C2582 C2583 1.386 . S
C2582 C2584 1.391 . S
C2583 C2582 1.386 . S
C2583 C2587 1.393 . S
C2584 H2573 0.950 . S
C2584 C2582 1.391 . S
C2584 C2585 1.400 . S
C2585 C2579 1.491 . S
C2585 C2584 1.400 . S
C2585 C2586 1.398 . S
C2586 H2574 0.950 . S
C2586 C2585 1.398 . S
C2586 C2587 1.391 . S
C2587 H2575 0.950 . S
C2587 C2583 1.393 . S
C2587 C2586 1.391 . S
H2588 C2596 0.950 . S
H2589 C2601 0.950 . S
H2590 C2598 0.950 . S
H2591 C2600 0.950 . S
H2592 C2602 0.991 . S
H2593 C2604 0.950 . S
H2594 C2606 0.950 . S
H2595 C2607 0.950 . S
C2596 H2588 0.950 . S
C2596 C2597 1.386 . S
C2596 C2598 1.391 . S
C2597 C2596 1.386 . S
C2597 C2601 1.393 . S
C2598 H2590 0.950 . S
C2598 C2596 1.391 . S
C2598 C2599 1.400 . S
C2599 C2598 1.400 . S
C2599 C2600 1.398 . S
C2599 C2605 1.491 . S
C2600 H2591 0.950 . S
C2600 C2599 1.398 . S
C2600 C2601 1.391 . S
C2601 H2589 0.950 . S
C2601 C2597 1.393 . S
C2601 C2600 1.391 . S
C2602 H2592 0.991 . S
C2602 C2603 1.378 1_655 S
C2602 C2604 1.359 1_655 S
C2603 C2602 1.378 1_455 S
C2603 C2607 1.393 . S
C2604 H2593 0.950 . S
C2604 C2602 1.359 1_455 S
C2604 C2605 1.400 . S
C2605 C2599 1.491 . S
C2605 C2604 1.400 . S
C2605 C2606 1.398 . S
C2606 H2594 0.950 . S
C2606 C2605 1.398 . S
C2606 C2607 1.391 . S
C2607 H2595 0.950 . S
C2607 C2603 1.393 . S
C2607 C2606 1.391 . S
H2608 C2616 0.950 . S
H2609 C2621 0.950 . S
H2610 C2618 0.950 . S
H2611 C2620 0.950 . S
H2612 C2622 0.950 . S
H2613 C2624 0.950 . S
H2614 C2626 0.950 . S
H2615 C2627 0.950 . S
C2616 H2608 0.950 . S
C2616 C2617 1.386 . S
C2616 C2618 1.391 . S
C2617 C2616 1.386 . S
C2617 C2621 1.393 . S
C2618 H2610 0.950 . S
C2618 C2616 1.391 . S
C2618 C2619 1.400 . S
C2619 C2618 1.400 . S
C2619 C2620 1.398 . S
C2619 C2625 1.491 . S
C2620 H2611 0.950 . S
C2620 C2619 1.398 . S
C2620 C2621 1.391 . S
C2621 H2609 0.950 . S
C2621 C2617 1.393 . S
C2621 C2620 1.391 . S
C2622 H2612 0.950 . S
C2622 C2623 1.386 . S
C2622 C2624 1.391 . S
C2623 C2622 1.386 . S
C2623 C2627 1.393 . S
C2624 H2613 0.950 . S
C2624 C2622 1.391 . S
C2624 C2625 1.400 . S
C2625 C2619 1.491 . S
C2625 C2624 1.400 . S
C2625 C2626 1.398 . S
C2626 H2614 0.950 . S
C2626 C2625 1.398 . S
C2626 C2627 1.391 . S
C2627 H2615 0.950 . S
C2627 C2623 1.393 . S
C2627 C2626 1.391 . S
H2628 C2636 0.950 . S
H2629 C2641 0.950 . S
H2630 C2638 0.950 . S
H2631 C2640 0.950 . S
H2632 C2642 0.950 . S
H2633 C2644 0.950 . S
H2634 C2646 0.950 . S
H2635 C2647 0.950 . S
C2636 H2628 0.950 . S
C2636 C2637 1.386 . S
C2636 C2638 1.391 . S
C2637 C2636 1.386 . S
C2637 C2641 1.393 1_455 S
C2638 H2630 0.950 . S
C2638 C2636 1.391 . S
C2638 C2639 1.400 . S
C2639 C2638 1.400 . S
C2639 C2640 1.398 . S
C2639 C2645 1.491 . S
C2640 H2631 0.950 . S
C2640 C2639 1.398 . S
C2640 C2641 1.391 1_455 S
C2641 H2629 0.950 . S
C2641 C2637 1.393 1_655 S
C2641 C2640 1.391 1_655 S
C2642 H2632 0.950 . S
C2642 C2643 1.386 . S
C2642 C2644 1.391 . S
C2643 C2642 1.386 . S
C2643 C2647 1.393 . S
C2644 H2633 0.950 . S
C2644 C2642 1.391 . S
C2644 C2645 1.400 . S
C2645 C2639 1.491 . S
C2645 C2644 1.400 . S
C2645 C2646 1.398 . S
C2646 H2634 0.950 . S
C2646 C2645 1.398 . S
C2646 C2647 1.391 . S
C2647 H2635 0.950 . S
C2647 C2643 1.393 . S
C2647 C2646 1.391 . S
H2648 C2656 0.950 . S
H2649 C2661 0.950 . S
H2650 C2658 0.950 . S
H2651 C2660 0.950 . S
H2652 C2662 0.950 . S
H2653 C2664 0.950 . S
H2654 C2666 0.950 . S
H2655 C2667 0.950 . S
C2656 H2648 0.950 . S
C2656 C2657 1.386 . S
C2656 C2658 1.391 . S
C2657 C2656 1.386 . S
C2657 C2661 1.393 . S
C2658 H2650 0.950 . S
C2658 C2656 1.391 . S
C2658 C2659 1.400 . S
C2659 C2658 1.400 . S
C2659 C2660 1.398 . S
C2659 C2665 1.491 . S
C2660 H2651 0.950 . S
C2660 C2659 1.398 . S
C2660 C2661 1.391 . S
C2661 H2649 0.950 . S
C2661 C2657 1.393 . S
C2661 C2660 1.391 . S
C2662 H2652 0.950 . S
C2662 C2663 1.386 . S
C2662 C2664 1.391 . S
C2663 C2662 1.386 . S
C2663 C2667 1.393 . S
C2664 H2653 0.950 . S
C2664 C2662 1.391 . S
C2664 C2665 1.400 . S
C2665 C2659 1.491 . S
C2665 C2664 1.400 . S
C2665 C2666 1.398 . S
C2666 H2654 0.950 . S
C2666 C2665 1.398 . S
C2666 C2667 1.391 . S
C2667 H2655 0.950 . S
C2667 C2663 1.393 . S
C2667 C2666 1.391 . S
H2668 C2676 0.950 . S
H2669 C2681 0.950 . S
H2670 C2678 0.950 . S
H2671 C2680 0.950 . S
H2672 C2682 0.950 . S
H2673 C2684 0.950 . S
H2674 C2686 0.950 . S
H2675 C2687 0.950 . S
C2676 H2668 0.950 . S
C2676 C2677 1.386 . S
C2676 C2678 1.391 . S
C2677 C2676 1.386 . S
C2677 C2681 1.393 . S
C2678 H2670 0.950 . S
C2678 C2676 1.391 . S
C2678 C2679 1.400 . S
C2679 C2678 1.400 . S
C2679 C2680 1.398 . S
C2679 C2685 1.491 . S
C2680 H2671 0.950 . S
C2680 C2679 1.398 . S
C2680 C2681 1.391 . S
C2681 H2669 0.950 . S
C2681 C2677 1.393 . S
C2681 C2680 1.391 . S
C2682 H2672 0.950 . S
C2682 C2683 1.386 . S
C2682 C2684 1.391 . S
C2683 C2682 1.386 . S
C2683 C2687 1.393 . S
C2684 H2673 0.950 . S
C2684 C2682 1.391 . S
C2684 C2685 1.400 . S
C2685 C2679 1.491 . S
C2685 C2684 1.400 . S
C2685 C2686 1.398 . S
C2686 H2674 0.950 . S
C2686 C2685 1.398 . S
C2686 C2687 1.391 . S
C2687 H2675 0.950 . S
C2687 C2683 1.393 . S
C2687 C2686 1.391 . S
C1097 C247 1.229 . S
C1103 C9 1.222 . S
C1117 C43 1.224 . S
C1123 C145 1.224 . S
C1137 C77 1.234 . S
C1143 C179 1.226 . S
C1157 C213 1.222 . S
C1163 C111 1.227 . S
C1177 C530 1.563 . S
C1183 C292 1.568 . S
C1197 C428 1.558 . S
C1203 C326 1.571 . S
C1217 C360 1.567 . S
C1223 C462 1.564 . S
C1237 C394 1.567 . S
C1243 C496 1.564 . S
C1257 C791 1.229 . S
C1263 C553 1.222 . S
C1277 C587 1.234 . S
C1283 C689 1.225 . S
C1297 C621 1.230 . S
C1303 C723 1.222 . S
C1317 C757 1.222 . S
C1323 C655 1.227 . S
C1337 C1074 1.561 . S
C1343 C836 1.570 . S
C1357 C870 1.567 . S
C1363 C972 1.561 . S
C1377 C1006 1.570 . S
C1383 C904 1.561 . S
C1397 C1040 1.571 . S
C1403 C938 1.559 . S
C1417 C156 2.250 . S
C1423 C20 2.248 . S
C1437 C54 2.249 . S
C1443 C190 2.252 . S
C1457 C224 2.252 . S
C1463 C88 2.255 . S
C1477 C122 2.253 . S
C1483 C258 2.249 . S
C1497 C417 0.637 . S
C1503 C281 0.640 . S
C1517 C315 0.632 . S
C1523 C451 0.645 . S
C1537 C349 0.670 . S
C1543 C485 0.631 . S
C1557 C519 0.651 . S
C1563 C383 0.629 . S
C1577 C700 2.250 . S
C1583 C564 2.248 . S
C1597 C734 2.254 . S
C1603 C598 2.251 . S
C1617 C768 2.253 . S
C1623 C632 2.255 . S
C1637 C802 2.250 . S
C1643 C666 2.248 . S
C1657 C961 0.629 . S
C1663 C825 0.668 . S
C1677 C859 0.627 . S
C1683 C995 0.665 . S
C1697 C1029 0.627 . S
C1703 C893 0.660 . S
C1717 C1063 0.671 . S
C1723 C927 0.635 . S
C1737 C614 1.331 . S
C1743 C2 1.334 . S
C1757 C36 1.329 . S
C1763 C648 1.342 . S
C1777 C70 1.329 . S
C1783 C546 1.338 . S
C1797 C104 1.337 . S
C1803 C580 1.329 . S
C1817 C750 1.333 . S
C1823 C138 1.332 . S
C1837 C784 1.346 . S
C1843 C172 1.336 . S
C1857 C206 1.342 . S
C1863 C682 1.343 . S
C1877 C240 1.346 . S
C1883 C716 1.334 . S
C1897 C277 0.601 . S
C1903 C889 0.606 . S
C1917 C311 0.636 . S
C1923 C923 0.632 . S
C1937 C821 0.623 . S
C1943 C345 0.618 . S
C1957 C379 0.627 . S
C1963 C855 0.622 . S
C1977 C413 0.632 . S
C1983 C1025 0.636 . S
C1997 C1059 0.645 . S
C2003 C447 0.643 . S
C2017 C481 0.585 . S
C2023 C957 0.589 . S
C2037 C991 0.582 . S
C2043 C515 0.579 . S
C2057 C920 1.854 . S
C2063 C33 1.806 . S
C2077 C67 1.813 . S
C2083 C274 1.845 . S
C2097 C101 1.806 . S
C2103 C852 1.854 . S
C2117 C342 1.845 . S
C2123 C135 1.817 . S
C2137 C988 1.855 . S
C2143 C169 1.798 . S
C2157 C203 1.795 . S
C2163 C478 1.859 . S
C2177 C1056 1.845 . S
C2183 C237 1.817 . S
C2197 C410 1.851 . S
C2203 C271 1.811 . S
C2217 C305 0.657 . S
C2223 C651 0.619 . S
C2237 C339 0.625 . S
C2243 C5 0.657 . S
C2257 C583 0.646 . S
C2263 C373 0.645 . S
C2277 C407 0.642 . S
C2283 C73 0.649 . S
C2297 C441 0.618 . S
C2303 C719 0.659 . S
C2317 C475 0.622 . S
C2323 C209 0.659 . S
C2337 C509 0.610 . S
C2343 C787 0.614 . S
C2357 C141 0.605 . S
C2363 C543 0.617 . S
C2377 C577 1.810 . S
C2383 C376 1.847 . S
C2397 C818 1.850 . S
C2403 C611 1.805 . S
C2417 C308 1.844 . S
C2423 C645 1.817 . S
C2437 C886 1.844 . S
C2443 C679 1.816 . S
C2457 C713 1.794 . S
C2463 C444 1.859 . S
C2477 C747 1.805 . S
C2483 C1022 1.850 . S
C2497 C512 1.859 . S
C2503 C781 1.797 . S
C2517 C815 1.814 . S
C2523 C954 1.845 . S
C2537 C849 0.646 . S
C2543 C107 0.645 . S
C2557 C549 0.622 . S
C2563 C883 0.604 . S
C2577 C917 0.601 . S
C2583 C39 0.627 . S
C2597 C951 0.598 . S
C2603 C617 0.639 . S
C2617 C985 0.647 . S
C2623 C175 0.600 . S
C2637 C753 0.648 . S
C2643 C1019 0.600 . S
C2657 C1053 0.632 . S
C2663 C243 0.656 . S
C2677 C1087 0.657 . S
C2683 C685 0.618 . S
