# Generated by pormake.
# Topology wkf, (6)-cn, num edge types: 1
# Building blocks:
#     Node 0, Type 0, BuildingBlock: KUMJIN_clean_sbu_0, # of connection points: 6
#     Node 1, Type 0, BuildingBlock: KUMJIN_clean_sbu_0, # of connection points: 6
#     Node 2, Type 0, BuildingBlock: KUMJIN_clean_sbu_0, # of connection points: 6
#     Node 3, Type 0, BuildingBlock: KUMJIN_clean_sbu_0, # of connection points: 6
#     Node 4, Type 0, BuildingBlock: KUMJIN_clean_sbu_0, # of connection points: 6
#     Node 5, Type 0, BuildingBlock: KUMJIN_clean_sbu_0, # of connection points: 6
#     Node 6, Type 0, BuildingBlock: KUMJIN_clean_sbu_0, # of connection points: 6
#     Node 7, Type 0, BuildingBlock: KUMJIN_clean_sbu_0, # of connection points: 6
#     Node 8, Type 0, BuildingBlock: KUMJIN_clean_sbu_0, # of connection points: 6
#     Node 9, Type 0, BuildingBlock: KUMJIN_clean_sbu_0, # of connection points: 6
#     Node 10, Type 0, BuildingBlock: KUMJIN_clean_sbu_0, # of connection points: 6
#     Node 11, Type 0, BuildingBlock: KUMJIN_clean_sbu_0, # of connection points: 6
#     Edge 12, Type (0, 0), BuildingBlock: XIVTED_clean_linker_0, # of connection points: 2
#     Edge 13, Type (0, 0), BuildingBlock: XIVTED_clean_linker_0, # of connection points: 2
#     Edge 14, Type (0, 0), BuildingBlock: XIVTED_clean_linker_0, # of connection points: 2
#     Edge 15, Type (0, 0), BuildingBlock: XIVTED_clean_linker_0, # of connection points: 2
#     Edge 16, Type (0, 0), BuildingBlock: XIVTED_clean_linker_0, # of connection points: 2
#     Edge 17, Type (0, 0), BuildingBlock: XIVTED_clean_linker_0, # of connection points: 2
#     Edge 18, Type (0, 0), BuildingBlock: XIVTED_clean_linker_0, # of connection points: 2
#     Edge 19, Type (0, 0), BuildingBlock: XIVTED_clean_linker_0, # of connection points: 2
#     Edge 20, Type (0, 0), BuildingBlock: XIVTED_clean_linker_0, # of connection points: 2
#     Edge 21, Type (0, 0), BuildingBlock: XIVTED_clean_linker_0, # of connection points: 2
#     Edge 22, Type (0, 0), BuildingBlock: XIVTED_clean_linker_0, # of connection points: 2
#     Edge 23, Type (0, 0), BuildingBlock: XIVTED_clean_linker_0, # of connection points: 2
#     Edge 24, Type (0, 0), BuildingBlock: XIVTED_clean_linker_0, # of connection points: 2
#     Edge 25, Type (0, 0), BuildingBlock: XIVTED_clean_linker_0, # of connection points: 2
#     Edge 26, Type (0, 0), BuildingBlock: XIVTED_clean_linker_0, # of connection points: 2
#     Edge 27, Type (0, 0), BuildingBlock: XIVTED_clean_linker_0, # of connection points: 2
#     Edge 28, Type (0, 0), BuildingBlock: XIVTED_clean_linker_0, # of connection points: 2
#     Edge 29, Type (0, 0), BuildingBlock: XIVTED_clean_linker_0, # of connection points: 2
#     Edge 30, Type (0, 0), BuildingBlock: XIVTED_clean_linker_0, # of connection points: 2
#     Edge 31, Type (0, 0), BuildingBlock: XIVTED_clean_linker_0, # of connection points: 2
#     Edge 32, Type (0, 0), BuildingBlock: XIVTED_clean_linker_0, # of connection points: 2
#     Edge 33, Type (0, 0), BuildingBlock: XIVTED_clean_linker_0, # of connection points: 2
#     Edge 34, Type (0, 0), BuildingBlock: XIVTED_clean_linker_0, # of connection points: 2
#     Edge 35, Type (0, 0), BuildingBlock: XIVTED_clean_linker_0, # of connection points: 2
#     Edge 36, Type (0, 0), BuildingBlock: XIVTED_clean_linker_0, # of connection points: 2
#     Edge 37, Type (0, 0), BuildingBlock: XIVTED_clean_linker_0, # of connection points: 2
#     Edge 38, Type (0, 0), BuildingBlock: XIVTED_clean_linker_0, # of connection points: 2
#     Edge 39, Type (0, 0), BuildingBlock: XIVTED_clean_linker_0, # of connection points: 2
#     Edge 40, Type (0, 0), BuildingBlock: XIVTED_clean_linker_0, # of connection points: 2
#     Edge 41, Type (0, 0), BuildingBlock: XIVTED_clean_linker_0, # of connection points: 2
#     Edge 42, Type (0, 0), BuildingBlock: XIVTED_clean_linker_0, # of connection points: 2
#     Edge 43, Type (0, 0), BuildingBlock: XIVTED_clean_linker_0, # of connection points: 2
#     Edge 44, Type (0, 0), BuildingBlock: XIVTED_clean_linker_0, # of connection points: 2
#     Edge 45, Type (0, 0), BuildingBlock: XIVTED_clean_linker_0, # of connection points: 2
#     Edge 46, Type (0, 0), BuildingBlock: XIVTED_clean_linker_0, # of connection points: 2
#     Edge 47, Type (0, 0), BuildingBlock: XIVTED_clean_linker_0, # of connection points: 2
# Relax obj value: 0.170
# Max RMSD: 0.269
# Mean RMSD: 0.261
data_MOF--net-wkf--node1-KUMJIN_clean_sbu_0--edge1-XIVTED_clean_linker_0
_symmetry_space_group_name_H-M    P1
_symmetry_Int_Tables_number       1
_symmetry_cell_setting            triclinic
loop_
_symmetry_equiv_pos_as_xyz
'x, y, z'
_cell_length_a     29.955003
_cell_length_b     29.928132
_cell_length_c     81.568069
_cell_angle_alpha  89.98052
_cell_angle_beta   90.008884
_cell_angle_gamma 119.7537
loop_
_atom_site_label
_atom_site_type_symbol
_atom_site_fract_x
_atom_site_fract_y
_atom_site_fract_z
_atom_type_partial_charge
Eu0 Eu 0.56221 1.02359 0.36751 0.0
C1 C 0.45687 1.04105 0.30901 0.0
C2 C 0.40525 0.08225 0.31321 0.0
C3 C 0.44386 0.08702 0.28658 0.0
C4 C 0.42649 1.05261 0.31912 0.0
C5 C 0.46637 0.05887 0.29268 0.0
C6 C 0.41338 0.09864 0.2968 0.0
C7 C 0.52148 1.02169 0.2898 0.0
N8 N 0.47916 1.01471 0.31541 0.0
C9 C 0.51088 1.00464 0.30604 0.0
C10 C 0.49893 1.04863 0.28305 0.0
Eu11 Eu 0.45088 0.98112 0.34209 0.0
N12 N 0.42135 1.03828 0.33515 0.0
C13 C 0.39464 1.05114 0.34586 0.0
C14 C 0.37755 0.09554 0.3241 0.0
C15 C 0.37242 0.0801 0.3405 0.0
H16 H 0.52851 0.98373 0.31099 0.0
H17 H 0.35102 0.09013 0.34899 0.0
H18 H 0.39711 0.12121 0.29199 0.0
H19 H 0.54692 1.01384 0.28246 0.0
H20 H 0.38939 1.03776 0.35839 0.0
H21 H 0.64478 0.08456 0.30545 0.0
H22 H 0.36051 0.11819 0.32002 0.0
H23 H 0.5728 0.93902 0.39216 0.0
H24 H 0.58484 0.06921 0.32758 0.0
H25 H 0.62542 0.8978 0.39497 0.0
H26 H 0.4505 0.10073 0.27403 0.0
H27 H 0.70747 0.05412 0.30774 0.0
H28 H 0.74002 1.00455 0.32345 0.0
H29 H 0.50728 0.06176 0.27046 0.0
H30 H 0.73352 0.9522 0.3475 0.0
N31 N 0.61591 1.03612 0.34397 0.0
C32 C 0.61352 0.05856 0.32961 0.0
C33 C 0.68203 1.04875 0.31792 0.0
C34 C 0.68191 1.02213 0.33198 0.0
C35 C 0.64695 0.06618 0.31662 0.0
C36 C 0.64774 1.01596 0.34489 0.0
H37 H 0.69043 0.91156 0.37397 0.0
N38 N 0.60803 0.97782 0.36982 0.0
C39 C 0.63117 0.92266 0.3846 0.0
C40 C 0.64364 0.98592 0.35823 0.0
C41 C 0.60156 0.94667 0.38296 0.0
C42 C 0.66781 0.93054 0.37274 0.0
C43 C 0.67425 0.96218 0.35931 0.0
O44 O 0.56076 1.01177 0.39373 0.0
O45 O 0.48294 1.01497 0.36699 0.0
O46 O 0.50085 0.07266 0.34041 0.0
O47 O 0.57927 0.10011 0.35391 0.0
O48 O 0.54248 0.08311 0.37613 0.0
O49 O 0.629 0.07408 0.38262 0.0
O50 O 0.39388 0.92072 0.32602 0.0
O51 O 0.51496 0.96629 0.3489 0.0
O52 O 0.49933 0.94578 0.37761 0.0
O53 O 0.42412 0.93895 0.36692 0.0
O54 O 0.4705 0.92124 0.33072 0.0
O55 O 0.36865 0.94152 0.348 0.0
C56 C 0.49355 0.05776 0.37361 0.0
C57 C 0.6023 0.08878 0.40875 0.0
C58 C 0.6392 0.17456 0.42082 0.0
C59 C 0.64116 0.1404 0.40936 0.0
C60 C 0.59701 0.15656 0.43153 0.0
C61 C 0.56072 0.07136 0.41977 0.0
C62 C 0.55803 0.10521 0.43096 0.0
C63 C 0.54772 0.11059 0.34493 0.0
C64 C 0.60417 1.05376 0.3963 0.0
C65 C 0.70965 0.96997 0.34685 0.0
C66 C 0.71344 0.99987 0.33319 0.0
C67 C 0.50816 0.92822 0.34006 0.0
C68 C 0.31019 0.91248 0.32503 0.0
C69 C 0.28951 0.88076 0.31089 0.0
C70 C 0.24544 0.87643 0.30279 0.0
C71 C 0.22381 0.90554 0.30878 0.0
C72 C 0.28636 0.93987 0.3307 0.0
C73 C 0.24413 0.93687 0.32253 0.0
C74 C 0.44835 0.9238 0.37735 0.0
C75 C 0.35438 0.91488 0.33441 0.0
H76 H 0.67271 0.15414 0.40072 0.0
H77 H 0.59456 0.18178 0.44055 0.0
H78 H 0.5299 1.0317 0.41965 0.0
H79 H 0.52571 0.09152 0.43928 0.0
H80 H 0.30666 0.85853 0.30652 0.0
H81 H 0.19092 0.90419 0.30277 0.0
H82 H 0.29985 0.96334 0.34162 0.0
H83 H 0.2266 0.95861 0.327 0.0
Eu84 Eu 0.61067 0.53684 0.53559 0.0
C85 C 0.50059 0.44457 0.47363 0.0
C86 C 0.40725 0.39363 0.47495 0.0
C87 C 0.4489 0.43791 0.44973 0.0
C88 C 0.4559 0.41261 0.48232 0.0
C89 C 0.49725 0.4582 0.4573 0.0
C90 C 0.40405 0.40567 0.45852 0.0
C91 C 0.58944 0.51348 0.45736 0.0
N92 N 0.54691 0.46434 0.48139 0.0
C93 C 0.59098 0.49886 0.47354 0.0
C94 C 0.54249 0.49273 0.44915 0.0
Eu95 Eu 0.5436 0.43064 0.50805 0.0
N96 N 0.46001 0.40356 0.49843 0.0
C97 C 0.41743 0.37547 0.50786 0.0
C98 C 0.36324 0.36436 0.48449 0.0
C99 C 0.36837 0.35551 0.50103 0.0
H100 H 0.6277 0.51574 0.47958 0.0
H101 H 0.33458 0.33313 0.5085 0.0
H102 H 0.36701 0.39122 0.45261 0.0
H103 H 0.62456 0.54082 0.45124 0.0
H104 H 0.42164 0.36823 0.5206 0.0
H105 H 0.64233 0.63094 0.47565 0.0
H106 H 0.32517 0.34909 0.47927 0.0
H107 H 0.69768 0.5389 0.56232 0.0
H108 H 0.59155 0.57365 0.49795 0.0
H109 H 0.79173 0.5817 0.56547 0.0
H110 H 0.44571 0.44772 0.43715 0.0
H111 H 0.7372 0.67817 0.47722 0.0
H112 H 0.81705 0.69771 0.49267 0.0
H113 H 0.54152 0.50426 0.43662 0.0
H114 H 0.85753 0.68434 0.51698 0.0
N115 N 0.65615 0.58903 0.51276 0.0
C116 C 0.63256 0.59475 0.49924 0.0
C117 C 0.71494 0.65352 0.48728 0.0
C118 C 0.7391 0.64744 0.50108 0.0
C119 C 0.66144 0.62702 0.48637 0.0
C120 C 0.70832 0.61472 0.51384 0.0
H121 H 0.8485 0.64141 0.54409 0.0
N122 N 0.70068 0.57354 0.5392 0.0
C123 C 0.77525 0.58908 0.55471 0.0
C124 C 0.73119 0.607 0.52749 0.0
C125 C 0.72188 0.56468 0.5528 0.0
C126 C 0.80714 0.62291 0.54265 0.0
C127 C 0.78532 0.63214 0.52881 0.0
O128 O 0.63458 0.57256 0.55959 0.0
O129 O 0.53337 0.46849 0.53069 0.0
O130 O 0.4991 0.47772 0.50766 0.0
O131 O 0.5463 0.55019 0.52385 0.0
O132 O 0.55757 0.4804 0.55454 0.0
O133 O 0.60074 0.60205 0.54234 0.0
O134 O 0.54017 0.37062 0.49183 0.0
O135 O 0.62176 0.49398 0.5154 0.0
O136 O 0.62397 0.47333 0.54587 0.0
O137 O 0.56299 0.40046 0.53159 0.0
O138 O 0.62274 0.44861 0.49731 0.0
O139 O 0.49995 0.34911 0.51505 0.0
C140 C 0.51861 0.45222 0.54526 0.0
C141 C 0.57818 0.59904 0.57042 0.0
C142 C 0.51803 0.62569 0.58066 0.0
C143 C 0.54977 0.62427 0.56813 0.0
C144 C 0.51318 0.59851 0.59529 0.0
C145 C 0.57225 0.57199 0.5851 0.0
C146 C 0.53944 0.57131 0.59733 0.0
C147 C 0.50615 0.52218 0.51394 0.0
C148 C 0.61424 0.60174 0.55755 0.0
C149 C 0.81596 0.66497 0.5162 0.0
C150 C 0.7929 0.67256 0.50237 0.0
C151 C 0.65279 0.48558 0.50692 0.0
C152 C 0.46538 0.28702 0.49292 0.0
C153 C 0.4736 0.26518 0.4785 0.0
C154 C 0.43313 0.21947 0.47149 0.0
C155 C 0.38431 0.19722 0.47887 0.0
C156 C 0.4161 0.26272 0.49998 0.0
C157 C 0.37597 0.21873 0.49288 0.0
C158 C 0.5979 0.42264 0.54348 0.0
C159 C 0.50869 0.33265 0.50118 0.0
H160 H 0.55312 0.64316 0.55652 0.0
H161 H 0.49043 0.59922 0.60547 0.0
H162 H 0.59312 0.55158 0.58721 0.0
H163 H 0.53538 0.55067 0.60863 0.0
H164 H 0.51161 0.28269 0.47308 0.0
H165 H 0.35223 0.1629 0.47374 0.0
H166 H 0.40844 0.27725 0.51114 0.0
H167 H 0.33816 0.20074 0.49843 0.0
Eu168 Eu 0.10497 0.56392 0.70661 0.0
C169 C 1.06331 0.41478 0.65163 0.0
C170 C 1.0575 0.33642 0.66246 0.0
C171 C 1.01293 0.33382 0.63721 0.0
C172 C 1.07661 0.38987 0.66352 0.0
C173 C 1.03148 0.38699 0.63837 0.0
C174 C 1.02571 0.3086 0.64925 0.0
C175 C 1.03755 0.46631 0.62858 0.0
N176 N 0.08028 0.46622 0.6534 0.0
C177 C 1.06878 0.49243 0.64199 0.0
C178 C 1.01889 0.41348 0.62674 0.0
Eu179 Eu 0.13994 0.507 0.67485 0.0
N180 N 0.1078 0.41774 0.67614 0.0
C181 C 0.12184 0.39494 0.68795 0.0
C182 C 1.07097 0.31249 0.67473 0.0
C183 C 0.10323 0.34188 0.68753 0.0
H184 H 0.08392 0.53339 0.64325 0.0
H185 H 0.11425 0.32378 0.69696 0.0
H186 H 1.01079 0.2675 0.64822 0.0
H187 H 1.02816 0.48698 0.61959 0.0
H188 H 0.14815 0.41791 0.69754 0.0
H189 H 1.02614 0.60347 0.65094 0.0
H190 H 1.05692 0.27144 0.67438 0.0
H191 H 0.19598 0.64886 0.732 0.0
H192 H 1.04415 0.55125 0.66972 0.0
H193 H 0.24295 0.74215 0.7371 0.0
H194 H 0.98834 0.31176 0.62712 0.0
H195 H 1.06363 0.69666 0.6559 0.0
H196 H 0.12164 0.77396 0.67261 0.0
H197 H 0.99463 0.39346 0.61635 0.0
H198 H 0.18157 0.81183 0.6957 0.0
N199 N 0.08749 0.61181 0.68659 0.0
C200 C 1.05866 0.59072 0.6728 0.0
C201 C 1.07054 0.67335 0.66458 0.0
C202 C 0.10225 0.69555 0.67819 0.0
C203 C 1.04922 0.6208 0.66177 0.0
C204 C 0.1102 0.66347 0.68912 0.0
H205 H 0.22751 0.80047 0.71955 0.0
N206 N 0.15387 0.65367 0.71164 0.0
C207 C 0.21538 0.72663 0.72718 0.0
C208 C 0.1444 0.68496 0.70201 0.0
C209 C 0.18865 0.67368 0.72419 0.0
C210 C 0.20643 0.75937 0.71729 0.0
C211 C 0.17081 0.73879 0.70449 0.0
O212 O 0.10282 0.5796 0.73261 0.0
O213 O 0.09493 0.4885 0.69847 0.0
O214 O 1.04864 0.46653 0.67448 0.0
O215 O 1.02501 0.50152 0.69576 0.0
O216 O 0.11412 0.50801 0.72265 0.0
O217 O 1.03337 0.5502 0.71828 0.0
O218 O 0.19007 0.53653 0.65341 0.0
O219 O 0.16544 0.58383 0.68733 0.0
O220 O 0.18479 0.57724 0.7136 0.0
O221 O 0.19589 0.52043 0.69657 0.0
O222 O 0.16143 0.58513 0.66252 0.0
O223 O 0.19592 0.48133 0.66877 0.0
C224 C 0.1013 0.4716 0.71213 0.0
C225 C 1.02587 0.51629 0.74505 0.0
C226 C 0.94555 0.45312 0.75796 0.0
C227 C 0.97244 0.49347 0.74674 0.0
C228 C 0.9725 0.43503 0.76737 0.0
C229 C 1.05235 0.49777 0.75467 0.0
C230 C 1.02565 0.45711 0.76562 0.0
C231 C 1.01177 0.46717 0.68359 0.0
C232 C 1.05305 0.55828 0.73298 0.0
C233 C 0.16168 0.77048 0.69397 0.0
C234 C 0.12749 0.74891 0.68084 0.0
C235 C 0.17735 0.61469 0.67528 0.0
C236 C 0.21123 0.47934 0.63971 0.0
C237 C 0.25492 0.47587 0.63462 0.0
C238 C 0.25345 0.4501 0.61975 0.0
C239 C 0.20801 0.42714 0.61049 0.0
C240 C 0.16867 0.45959 0.62913 0.0
C241 C 0.16628 0.4324 0.61506 0.0
C242 C 0.20961 0.55219 0.70949 0.0
C243 C 0.21046 0.50706 0.655 0.0
H244 H 0.95194 0.50822 0.73963 0.0
H245 H 0.9525 0.4042 0.77615 0.0
H246 H 0.09364 0.51448 0.75376 0.0
H247 H 1.0463 0.44298 0.77288 0.0
H248 H 0.28974 0.49377 0.6419 0.0
H249 H 0.20582 0.4075 0.59909 0.0
H250 H 0.13772 0.46685 0.63128 0.0
H251 H 0.13248 0.41693 0.60732 0.0
Eu252 Eu 0.59577 0.09065 0.87038 0.0
C253 C 0.68256 0.0616 0.8092 0.0
C254 C 0.72827 1.01386 0.81223 0.0
C255 C 0.68615 1.01085 0.78645 0.0
C256 C 0.7125 1.04759 0.81858 0.0
C257 C 0.66842 1.04252 0.79311 0.0
C258 C 0.71594 0.99652 0.79599 0.0
C259 C 0.61709 0.0842 0.79174 0.0
N260 N 0.66443 0.09085 0.81623 0.0
C261 C 0.63196 0.10214 0.80775 0.0
C262 C 0.63571 0.05466 0.78433 0.0
Eu263 Eu 0.69973 0.12552 0.84233 0.0
N264 N 0.72149 0.06284 0.83455 0.0
C265 C 0.74687 1.04681 0.84471 0.0
C266 C 0.75437 0.99716 0.82259 0.0
C267 C 0.76341 1.01345 0.83893 0.0
H268 H 0.61685 0.12463 0.81322 0.0
H269 H 0.78372 1.00089 0.84699 0.0
H270 H 0.72808 0.97091 0.79083 0.0
H271 H 0.59123 0.09321 0.78511 0.0
H272 H 0.75579 0.06123 0.8571 0.0
H273 H 0.49833 1.02484 0.81049 0.0
H274 H 0.7671 0.97119 0.81817 0.0
H275 H 0.59522 0.17993 0.89523 0.0
H276 H 0.56167 1.03911 0.83135 0.0
H277 H 0.54765 0.22623 0.89897 0.0
H278 H 0.67594 0.99616 0.77407 0.0
H279 H 0.441 0.06144 0.81378 0.0
H280 H 0.41657 0.117 0.82985 0.0
H281 H 0.62388 1.04067 0.77194 0.0
H282 H 0.43115 0.17317 0.85357 0.0
N283 N 0.53787 0.07789 0.8481 0.0
C284 C 0.53537 1.05249 0.83388 0.0
C285 C 0.46794 0.06637 0.82344 0.0
C286 C 0.47291 0.09563 0.83734 0.0
C287 C 0.49998 1.04546 0.82158 0.0
C288 C 0.50886 0.1011 0.84955 0.0
H289 H 0.48027 0.21459 0.87917 0.0
N290 N 0.55476 0.14065 0.87357 0.0
C291 C 0.53864 0.20014 0.88873 0.0
C292 C 0.51753 0.13334 0.86271 0.0
C293 C 0.56539 0.17336 0.88656 0.0
C294 C 0.50062 0.19342 0.87755 0.0
C295 C 0.48979 0.15996 0.86431 0.0
O296 O 0.60315 0.10404 0.89663 0.0
O297 O 0.67318 0.09556 0.86795 0.0
O298 O 0.64544 1.03437 0.84154 0.0
O299 O 0.57299 1.011 0.85792 0.0
O300 O 0.61445 1.0301 0.87874 0.0
O301 O 0.53029 1.04573 0.88658 0.0
O302 O 0.75548 0.18355 0.8254 0.0
O303 O 0.63944 0.14453 0.85048 0.0
O304 O 0.6628 0.16821 0.87901 0.0
O305 O 0.73366 0.1703 0.86653 0.0
O306 O 0.6813 0.18661 0.83137 0.0
O307 O 0.78276 0.16031 0.84634 0.0
C308 C 0.66254 1.0532 0.8749 0.0
C309 C 0.55809 1.02713 0.91167 0.0
C310 C 0.51317 0.94125 0.92351 0.0
C311 C 0.51311 0.98003 0.91388 0.0
C312 C 0.55865 0.94998 0.93122 0.0
C313 C 0.60328 1.03605 0.91983 0.0
C314 C 0.60339 0.99759 0.92954 0.0
C315 C 0.60036 0.99807 0.84778 0.0
C316 C 0.55825 0.06458 0.89982 0.0
C317 C 0.4528 0.15311 0.85253 0.0
C318 C 0.44441 0.12103 0.83906 0.0
C319 C 0.64598 0.18209 0.84138 0.0
C320 C 0.83492 0.18415 0.82197 0.0
C321 C 0.85702 0.21761 0.80829 0.0
C322 C 0.89535 0.21558 0.79855 0.0
C323 C 0.90903 0.17803 0.80233 0.0
C324 C 0.85203 0.14929 0.82569 0.0
C325 C 0.88783 0.1456 0.81578 0.0
C326 C 0.71335 0.18803 0.87758 0.0
C327 C 0.79554 0.18652 0.83266 0.0
H328 H 0.47825 0.9727 0.90756 0.0
H329 H 0.55937 0.92028 0.93862 0.0
H330 H 0.6388 0.07221 0.91847 0.0
H331 H 0.6384 1.00449 0.9356 0.0
H332 H 0.84553 0.2459 0.80557 0.0
H333 H 0.93675 0.17386 0.79492 0.0
H334 H 0.8382 0.12492 0.83638 0.0
H335 H 0.89976 0.11777 0.81867 0.0
Eu336 Eu 0.56671 0.57685 0.03667 0.0
C337 C 0.64867 0.64335 0.9728 0.0
C338 C 0.74149 0.68751 0.96908 0.0
C339 C 0.68551 0.6314 0.94765 0.0
C340 C 0.69792 0.67633 0.97865 0.0
C341 C 0.64222 0.62055 0.95718 0.0
C342 C 0.73498 0.66486 0.95357 0.0
C343 C 0.5505 0.57843 0.96122 0.0
N344 N 0.60727 0.63368 0.98228 0.0
C345 C 0.55859 0.60214 0.97653 0.0
C346 C 0.59242 0.58757 0.9515 0.0
Eu347 Eu 0.62712 0.67796 0.0079 0.0
N348 N 0.70337 0.69666 0.9939 0.0
C349 C 0.75093 0.73027 1.00002 0.0
C350 C 0.7904 0.72118 0.9754 0.0
C351 C 0.79511 0.74283 0.99091 0.0
H352 H 0.52527 0.59434 0.98353 0.0
H353 H 0.83273 0.76897 0.99588 0.0
H354 H 0.76797 0.67294 0.94605 0.0
H355 H 0.51176 0.55314 0.9569 0.0
H356 H 0.75445 0.74625 0.01215 0.0
H357 H 0.53152 0.46748 0.97951 0.0
H358 H 0.82474 0.73075 0.96839 0.0
H359 H 0.47944 0.58228 0.0619 0.0
H360 H 0.58234 0.53644 0.99895 0.0
H361 H 0.38589 0.53641 0.06602 0.0
H362 H 0.68113 0.6142 0.93565 0.0
H363 H 0.43867 0.4097 0.98427 0.0
H364 H 0.36046 0.3872 1.00108 0.0
H365 H 0.58591 0.56924 0.93961 0.0
H366 H 0.32068 0.40709 0.02421 0.0
N367 N 0.52024 0.51692 0.01552 0.0
C368 C 0.54249 0.51083 1.00169 0.0
C369 C 0.46113 0.43946 0.99314 0.0
C370 C 0.43797 0.44705 1.00692 0.0
C371 C 0.51349 0.47196 0.99041 0.0
C372 C 0.46889 0.48665 0.01805 0.0
H373 H 0.32956 0.46352 0.04804 0.0
N374 N 0.47669 0.53806 0.04101 0.0
C375 C 0.40235 0.5253 0.0561 0.0
C376 C 0.44641 0.49783 0.0311 0.0
C377 C 0.45547 0.5518 0.05351 0.0
C378 C 0.37074 0.48397 0.04601 0.0
C379 C 0.39255 0.4697 0.03333 0.0
O380 O 0.5416 0.54159 0.06079 0.0
O381 O 0.64287 0.6461 0.03083 0.0
O382 O 0.67738 0.63657 0.00987 0.0
O383 O 0.62809 0.56071 0.02421 0.0
O384 O 0.61916 0.63771 0.05466 0.0
O385 O 0.58766 0.5208 0.04572 0.0
O386 O 0.63278 0.73532 0.99002 0.0
O387 O 0.54946 0.609 0.01442 0.0
O388 O 0.55232 0.64118 0.04579 0.0
O389 O 0.61108 0.71304 0.03083 0.0
O390 O 0.54696 0.6694 1.00401 0.0
O391 O 0.67348 0.76055 0.01315 0.0
C392 C 0.65738 0.66499 0.04509 0.0
C393 C 0.6075 0.53329 0.07397 0.0
C394 C 0.66931 0.51728 0.08856 0.0
C395 C 0.63261 0.50475 0.07606 0.0
C396 C 0.68179 0.55967 0.09875 0.0
C397 C 0.61987 0.57516 0.0845 0.0
C398 C 0.65728 0.58857 0.09664 0.0
C399 C 0.66955 0.59065 0.0151 0.0
C400 C 0.57023 0.52022 0.0604 0.0
C401 C 0.36202 0.42916 0.02263 0.0
C402 C 0.38468 0.41779 0.00948 0.0
C403 C 0.51857 0.62607 0.01117 0.0
C404 C 0.70696 0.81983 0.9902 0.0
C405 C 0.69722 0.8412 0.97594 0.0
C406 C 0.73691 0.88669 0.96855 0.0
C407 C 0.78652 0.90906 0.97537 0.0
C408 C 0.75685 0.84456 0.99679 0.0
C409 C 0.79626 0.88818 0.98929 0.0
C410 C 0.57669 0.69157 0.04284 0.0
C411 C 0.66435 0.77473 0.99889 0.0
H412 H 0.62236 0.47174 0.06823 0.0
H413 H 0.70994 0.56994 0.10844 0.0
H414 H 0.60089 0.59777 0.08339 0.0
H415 H 0.66687 0.62111 0.10456 0.0
H416 H 0.65861 0.82351 0.97099 0.0
H417 H 0.81817 0.94303 0.96992 0.0
H418 H 0.76559 0.83069 0.0079 0.0
H419 H 0.83461 0.90642 0.99444 0.0
Eu420 Eu 1.04727 0.54028 0.20314 0.0
C421 C 1.06996 0.65211 0.14161 0.0
C422 C 0.11669 0.7454 0.14414 0.0
C423 C 0.11821 0.70528 0.1184 0.0
C424 C 0.08406 0.69633 0.15082 0.0
C425 C 0.08774 0.65633 0.12537 0.0
C426 C 0.13269 0.74968 0.12776 0.0
C427 C 1.04715 0.56359 0.12446 0.0
N428 N 1.04188 0.60519 0.14893 0.0
C429 C 1.03043 0.56122 0.14061 0.0
C430 C 1.07554 0.61126 0.11676 0.0
Eu431 Eu 1.00882 0.60693 0.17523 0.0
N432 N 1.07016 0.6908 0.16691 0.0
C433 C 0.0867 0.73252 0.17692 0.0
C434 C 0.13377 0.78853 0.15433 0.0
C435 C 0.11902 0.78202 0.17081 0.0
H436 H 1.00869 0.524 0.14629 0.0
H437 H 0.13198 0.81514 0.17875 0.0
H438 H 0.15742 0.7871 0.12235 0.0
H439 H 1.03805 0.52857 0.11794 0.0
H440 H 1.07354 0.72752 0.18946 0.0
H441 H 0.10892 0.5059 0.14284 0.0
H442 H 0.15894 0.82692 0.14965 0.0
H443 H 0.96183 0.45246 0.22911 0.0
H444 H 0.09642 0.55608 0.16379 0.0
H445 H 0.91666 0.35906 0.23341 0.0
H446 H 0.13189 0.70921 0.10589 0.0
H447 H 1.07254 0.41232 0.14647 0.0
H448 H 1.01868 0.33343 0.16307 0.0
H449 H 0.08855 0.61288 0.10426 0.0
H450 H 0.96512 0.29329 0.18738 0.0
N451 N 1.05851 0.49432 0.1808 0.0
C452 C 0.083 0.5165 0.16641 0.0
C453 C 1.06829 0.43477 0.15613 0.0
C454 C 1.0402 0.41128 0.17028 0.0
C455 C 0.08908 0.48753 0.15409 0.0
C456 C 1.03558 0.44232 0.18249 0.0
H457 H 0.92647 0.30239 0.21346 0.0
N458 N 0.99831 0.44991 0.20693 0.0
C459 C 0.94136 0.37549 0.22284 0.0
C460 C 1.00472 0.41953 0.19599 0.0
C461 C 0.96742 0.42871 0.22034 0.0
C462 C 0.94705 0.34368 0.21158 0.0
C463 C 0.97879 0.36547 0.19792 0.0
O464 O 1.03802 0.53641 0.22961 0.0
O465 O 1.0407 0.61196 0.2007 0.0
O466 O 0.10009 0.64462 0.17384 0.0
O467 O 0.12558 0.59677 0.19007 0.0
O468 O 0.10749 0.61983 0.21086 0.0
O469 O 0.09396 0.51972 0.21855 0.0
O470 O 0.94939 0.60326 0.15854 0.0
O471 O 0.99139 0.52839 0.18366 0.0
O472 O 0.97051 0.53015 0.21264 0.0
O473 O 0.96554 0.59694 0.1997 0.0
O474 O 0.94753 0.52695 0.16488 0.0
O475 O 0.97322 0.65483 0.17915 0.0
C476 C 0.08338 0.64422 0.20728 0.0
C477 C 0.11747 0.5684 0.24322 0.0
C478 C 0.20648 0.61236 0.25259 0.0
C479 C 0.16646 0.57354 0.24337 0.0
C480 C 0.1971 0.64645 0.26181 0.0
C481 C 0.1083 0.60218 0.25281 0.0
C482 C 0.14801 0.64101 0.26199 0.0
C483 C 0.1373 0.63659 0.17987 0.0
C484 C 1.07774 0.5305 0.2321 0.0
C485 C 0.9847 0.33479 0.18609 0.0
C486 C 1.01529 0.35765 0.17229 0.0
C487 C 0.95315 0.49685 0.17493 0.0
C488 C 0.9473 0.68133 0.15474 0.0
C489 C 0.91241 0.6692 0.1414 0.0
C490 C 0.91351 0.70886 0.13146 0.0
C491 C 0.95161 0.76005 0.13469 0.0
C492 C 0.98256 0.73332 0.15792 0.0
C493 C 0.98537 0.77201 0.1478 0.0
C494 C 0.94956 0.56006 0.2111 0.0
C495 C 0.9462 0.64048 0.16564 0.0
H496 H 0.17395 0.5481 0.23586 0.0
H497 H 0.2274 0.6767 0.26901 0.0
H498 H 1.07082 0.59934 0.25299 0.0
H499 H 0.14078 0.66714 0.26919 0.0
H500 H 0.88381 0.62944 0.13909 0.0
H501 H 0.95518 0.79137 0.1271 0.0
H502 H 1.00798 0.74451 0.16835 0.0
H503 H 1.01356 0.81176 0.15027 0.0
Eu504 Eu 0.12744 0.57174 0.47409 0.0
C505 C 0.10312 0.65967 0.53644 0.0
C506 C 1.05914 0.70935 0.53413 0.0
C507 C 1.05462 0.66503 0.55958 0.0
C508 C 0.09072 0.6915 0.52739 0.0
C509 C 0.08422 0.64542 0.55255 0.0
C510 C 1.04212 0.69689 0.5504 0.0
C511 C 0.12168 0.59019 0.55321 0.0
N512 N 0.13073 0.6401 0.52913 0.0
C513 C 0.13958 0.60527 0.53721 0.0
C514 C 0.09436 0.61071 0.56098 0.0
Eu515 Eu 0.16398 0.67457 0.50282 0.0
N516 N 0.10555 0.70076 0.51142 0.0
C517 C 0.09078 0.72786 0.50153 0.0
C518 C 1.04416 0.73769 0.52412 0.0
C519 C 1.05974 0.74664 0.50772 0.0
H520 H 0.16016 0.58853 0.53146 0.0
H521 H 1.04818 0.76831 0.49989 0.0
H522 H 1.01812 0.71057 0.55585 0.0
H523 H 0.12894 0.56264 0.55954 0.0
H524 H 0.10388 0.73561 0.48896 0.0
H525 H 1.06194 0.47329 0.53327 0.0
H526 H 1.01988 0.75206 0.52886 0.0
H527 H 0.21275 0.56986 0.44749 0.0
H528 H 1.07074 0.53325 0.51151 0.0
H529 H 0.26207 0.52482 0.44386 0.0
H530 H 1.04013 0.65475 0.57198 0.0
H531 H 0.10683 0.42308 0.53108 0.0
H532 H 0.16576 0.40214 0.51532 0.0
H533 H 0.0804 0.59871 0.57336 0.0
H534 H 0.22009 0.41619 0.49112 0.0
N535 N 0.11818 0.51632 0.49633 0.0
C536 C 0.08931 0.51084 0.50993 0.0
C537 C 0.11016 0.44891 0.52125 0.0
C538 C 0.1403 0.45504 0.50744 0.0
C539 C 0.08469 0.47707 0.52251 0.0
C540 C 0.14351 0.48935 0.49499 0.0
H541 H 0.25615 0.46167 0.46452 0.0
N542 N 0.17867 0.5325 0.47006 0.0
C543 C 0.23758 0.51674 0.45448 0.0
C544 C 0.17438 0.49746 0.48142 0.0
C545 C 0.20957 0.54226 0.45663 0.0
C546 C 0.23401 0.48103 0.46614 0.0
C547 C 0.20239 0.47115 0.47985 0.0
O548 O 0.11774 0.53933 0.44959 0.0
O549 O 0.11782 0.64041 0.47947 0.0
O550 O 1.07303 0.62594 0.50299 0.0
O551 O 1.04904 0.55737 0.48512 0.0
O552 O 0.13567 0.63143 0.45576 0.0
O553 O 1.05221 0.51048 0.46581 0.0
O554 O 0.21869 0.7318 0.52004 0.0
O555 O 0.17924 0.61159 0.49495 0.0
O556 O 0.20612 0.63523 0.46542 0.0
O557 O 0.21635 0.70714 0.48001 0.0
O558 O 0.22325 0.65401 0.51379 0.0
O559 O 0.20218 0.75714 0.49717 0.0
C560 C 0.12283 0.65834 0.46494 0.0
C561 C 1.0392 0.52416 0.43806 0.0
C562 C 0.95719 0.5052 0.42599 0.0
C563 C 0.9855 0.49476 0.43761 0.0
C564 C 0.9831 0.54619 0.41497 0.0
C565 C 1.06462 0.56471 0.42675 0.0
C566 C 1.03659 0.57578 0.4154 0.0
C567 C 1.03637 0.58329 0.49576 0.0
C568 C 1.06793 0.51336 0.45071 0.0
C569 C 0.19873 0.43656 0.4921 0.0
C570 C 0.1678 0.42856 0.50587 0.0
C571 C 0.21743 0.61824 0.50377 0.0
C572 C 0.22538 0.81465 0.52044 0.0
C573 C 0.25598 0.8366 0.53475 0.0
C574 C 0.25633 0.87875 0.54297 0.0
C575 C 0.22371 0.89643 0.53699 0.0
C576 C 0.19591 0.83586 0.51452 0.0
C577 C 0.19429 0.87549 0.52292 0.0
C578 C 0.23067 0.68568 0.4683 0.0
C579 C 0.22572 0.77132 0.51136 0.0
H580 H 0.96589 0.46266 0.44601 0.0
H581 H 0.96203 0.55471 0.40588 0.0
H582 H 0.10611 0.58812 0.42665 0.0
H583 H 1.05649 0.60709 0.40679 0.0
H584 H 0.28037 0.82192 0.53913 0.0
H585 H 0.22107 0.92707 0.54316 0.0
H586 H 0.17414 0.82216 0.5033 0.0
H587 H 0.17044 0.89056 0.51836 0.0
Eu588 Eu 0.58373 0.08354 0.64337 0.0
C589 C 0.47196 0.066 0.70495 0.0
C590 C 0.37897 1.02667 0.70262 0.0
C591 C 0.41709 1.02008 0.72816 0.0
C592 C 0.42854 0.05578 0.69585 0.0
C593 C 0.46635 1.04727 0.72113 0.0
C594 C 0.37355 1.00984 0.71894 0.0
C595 C 0.55808 0.08033 0.72189 0.0
N596 N 0.51915 0.09146 0.69767 0.0
C597 C 0.56187 0.09821 0.70583 0.0
C598 C 0.51026 0.05523 0.72964 0.0
Eu599 Eu 0.51983 0.12532 0.6713 0.0
N600 N 0.43476 0.0703 0.67984 0.0
C601 C 0.3935 0.0575 0.66991 0.0
C602 C 0.33628 1.01386 0.69259 0.0
C603 C 0.34359 1.02901 0.67614 0.0
H604 H 0.59916 0.11714 0.7001 0.0
H605 H 0.31083 1.01902 0.66829 0.0
H606 H 0.33577 0.98772 0.7244 0.0
H607 H 0.59213 0.08591 0.72829 0.0
H608 H 0.39942 0.07 0.65726 0.0
H609 H 0.6071 1.01187 0.70294 0.0
H610 H 0.29754 0.99153 0.69735 0.0
H611 H 0.67536 0.16861 0.61781 0.0
H612 H 0.55983 1.0236 0.68062 0.0
H613 H 0.76969 0.21694 0.61568 0.0
H614 H 0.41216 1.00577 0.74061 0.0
H615 H 0.70192 0.0553 0.70208 0.0
H616 H 0.78378 0.11444 0.68754 0.0
H617 H 0.50753 1.04132 0.74207 0.0
H618 H 0.82786 0.17035 0.664 0.0
N619 N 0.62603 0.07085 0.66617 0.0
C620 C 0.6007 1.04137 0.67948 0.0
C621 C 0.68112 0.0598 0.69193 0.0
C622 C 0.70718 0.09076 0.67849 0.0
C623 C 0.62766 1.03514 0.69244 0.0
C624 C 0.67828 0.09549 0.66559 0.0
H625 H 0.82302 0.20878 0.6373 0.0
N626 N 0.67456 0.13273 0.6405 0.0
C627 C 0.75154 0.19187 0.62607 0.0
C628 C 0.7032 0.12718 0.65237 0.0
C629 C 0.69796 0.1644 0.62738 0.0
C630 C 0.78148 0.18705 0.63826 0.0
C631 C 0.7575 0.1546 0.65164 0.0
O632 O 0.6102 0.07382 0.61946 0.0
O633 O 0.50748 0.07844 0.64826 0.0
O634 O 0.47335 1.03373 0.67128 0.0
O635 O 0.51722 1.00617 0.65433 0.0
O636 O 0.53468 0.09486 0.62471 0.0
O637 O 0.56401 1.00685 0.63431 0.0
O638 O 0.51895 0.1817 0.68822 0.0
O639 O 0.59731 0.13743 0.66391 0.0
O640 O 0.60239 0.16303 0.63422 0.0
O641 O 0.54346 0.17854 0.64843 0.0
O642 O 0.59929 0.18249 0.68256 0.0
O643 O 0.47824 0.16637 0.66516 0.0
C644 C 0.49541 0.08439 0.63376 0.0
C645 C 0.54466 1.0011 0.60595 0.0
C646 C 0.48234 0.92512 0.59089 0.0
C647 C 0.51851 0.94769 0.60363 0.0
C648 C 0.47109 0.95637 0.58085 0.0
C649 C 0.53391 1.03191 0.5954 0.0
C650 C 0.49673 1.0095 0.58316 0.0
C651 C 0.47782 0.99533 0.66445 0.0
C652 C 0.58163 1.02407 0.61966 0.0
C653 C 0.7862 0.14948 0.66435 0.0
C654 C 0.76111 0.11764 0.67774 0.0
C655 C 0.62902 0.1755 0.67277 0.0
C656 C 0.44536 0.1928 0.68814 0.0
C657 C 0.45487 0.22277 0.70265 0.0
C658 C 0.41464 0.22687 0.71051 0.0
C659 C 0.36478 0.1989 0.7039 0.0
C660 C 0.39526 0.16729 0.68173 0.0
C661 C 0.35536 0.16965 0.6897 0.0
C662 C 0.57918 0.1905 0.63683 0.0
C663 C 0.48792 0.1903 0.6793 0.0
H664 H 0.52783 0.92397 0.61136 0.0
H665 H 0.44329 0.93977 0.57101 0.0
H666 H 0.55401 0.07338 0.59656 0.0
H667 H 0.48832 1.03348 0.57527 0.0
H668 H 0.49361 0.24394 0.70748 0.0
H669 H 0.33267 0.19968 0.70972 0.0
H670 H 0.38666 0.14565 0.67044 0.0
H671 H 0.31683 0.14909 0.68471 0.0
Eu672 Eu 0.56459 0.57593 0.80909 0.0
C673 C 0.45743 0.44262 0.8664 0.0
C674 C 0.40164 0.35168 0.86043 0.0
C675 C 0.44311 0.37806 0.88705 0.0
C676 C 0.42459 0.40376 0.85573 0.0
C677 C 0.4677 0.42982 0.88206 0.0
C678 C 0.41021 0.33911 0.87626 0.0
C679 C 0.52922 0.51973 0.88626 0.0
N680 N 0.48226 0.49232 0.86096 0.0
C681 C 0.51809 0.53066 0.87061 0.0
C682 C 0.50362 0.46923 0.89207 0.0
Eu683 Eu 0.45343 0.50523 0.83515 0.0
N684 N 0.41891 0.41688 0.84021 0.0
C685 C 0.39032 0.38032 0.8289 0.0
C686 C 0.37203 0.31375 0.84889 0.0
C687 C 0.36657 0.32815 0.83303 0.0
H688 H 0.53857 0.56995 0.86644 0.0
H689 H 0.3436 0.29912 0.82406 0.0
H690 H 0.39262 0.2993 0.88014 0.0
H691 H 0.55762 0.55035 0.89383 0.0
H692 H 0.38441 0.39163 0.81689 0.0
H693 H 0.65466 0.59325 0.86966 0.0
H694 H 0.35373 0.27328 0.85203 0.0
H695 H 0.56153 0.66867 0.78656 0.0
H696 H 0.59845 0.54754 0.84693 0.0
H697 H 0.60425 0.76309 0.78584 0.0
H698 H 0.45031 0.36762 0.89908 0.0
H699 H 0.70199 0.68816 0.87015 0.0
H700 H 0.72123 0.77097 0.85698 0.0
H701 H 0.51263 0.46096 0.90417 0.0
H702 H 0.70738 0.817 0.8344 0.0
N703 N 0.61431 0.61475 0.83327 0.0
C704 C 0.61944 0.58854 0.84621 0.0
C705 C 0.67767 0.66813 0.85976 0.0
C706 C 0.67161 0.69515 0.84681 0.0
C707 C 0.65117 0.61462 0.8595 0.0
C708 C 0.63925 0.66722 0.83357 0.0
H709 H 0.66414 0.8145 0.80797 0.0
N710 N 0.59719 0.66587 0.80888 0.0
C711 C 0.61206 0.74403 0.79579 0.0
C712 C 0.63091 0.69339 0.82095 0.0
C713 C 0.58784 0.69034 0.7963 0.0
C714 C 0.64595 0.77289 0.80827 0.0
C715 C 0.65551 0.74774 0.8211 0.0
O716 O 0.58706 0.6021 0.78404 0.0
O717 O 0.49237 0.50207 0.81244 0.0
O718 O 0.50223 0.46232 0.8354 0.0
O719 O 0.57798 0.51127 0.82047 0.0
O720 O 0.53455 0.50734 0.7919 0.0
O721 O 0.64047 0.59408 0.80013 0.0
O722 O 0.39937 0.50953 0.85254 0.0
O723 O 0.50927 0.58536 0.82542 0.0
O724 O 0.49811 0.57967 0.7963 0.0
O725 O 0.42469 0.51653 0.81 0.0
O726 O 0.48517 0.58363 0.84863 0.0
O727 O 0.37118 0.46971 0.82961 0.0
C728 C 0.49278 0.47764 0.79965 0.0
C729 C 0.64185 0.57733 0.77155 0.0
C730 C 0.6683 0.51741 0.76115 0.0
C731 C 0.65586 0.53958 0.77436 0.0
C732 C 0.6641 0.53202 0.74505 0.0
C733 C 0.6382 0.59134 0.7554 0.0
C734 C 0.64873 0.56836 0.74224 0.0
C735 C 0.54733 0.46958 0.82954 0.0
C736 C 0.63066 0.60261 0.78516 0.0
C737 C 0.68836 0.77534 0.83408 0.0
C738 C 0.69627 0.74912 0.84692 0.0
C739 C 0.51359 0.61497 0.83732 0.0
C740 C 0.31277 0.43845 0.8526 0.0
C741 C 0.29184 0.44819 0.867 0.0
C742 C 0.24605 0.40847 0.87432 0.0
C743 C 0.22312 0.35903 0.86734 0.0
C744 C 0.28737 0.38856 0.84594 0.0
C745 C 0.24362 0.34929 0.85337 0.0
C746 C 0.44721 0.54998 0.7977 0.0
C747 C 0.35867 0.48032 0.84386 0.0
H748 H 0.65767 0.52798 0.7868 0.0
H749 H 0.67449 0.51695 0.73457 0.0
H750 H 0.62725 0.62022 0.75297 0.0
H751 H 0.64608 0.5796 0.72982 0.0
H752 H 0.31006 0.48662 0.87214 0.0
H753 H 0.18885 0.32753 0.87271 0.0
H754 H 0.30068 0.37968 0.83476 0.0
H755 H 0.22494 0.31105 0.84811 0.0
Eu756 Eu 1.04372 0.53417 0.97734 0.0
C757 C 1.06084 0.44547 0.03787 0.0
C758 C 0.10685 0.39751 0.03769 0.0
C759 C 0.10674 0.44351 0.06225 0.0
C760 C 1.0759 0.41413 0.02976 0.0
C761 C 1.07668 0.46083 0.05417 0.0
C762 C 0.12168 0.41187 0.05404 0.0
C763 C 1.03276 0.51013 0.05329 0.0
N764 N 1.03211 0.4621 0.02967 0.0
C765 C 1.01757 0.49361 0.03718 0.0
C766 C 1.06225 0.49355 0.06185 0.0
Eu767 Eu 1.00406 0.42608 1.00328 0.0
N768 N 1.06306 0.40291 0.01368 0.0
C769 C 1.0781 0.37375 1.00497 0.0
C770 C 0.12259 0.36757 0.02885 0.0
C771 C 0.10811 0.35562 0.01243 0.0
H772 H 0.99443 0.50645 0.03088 0.0
H773 H 0.12005 0.33247 1.00553 0.0
H774 H 0.14532 0.39931 0.06039 0.0
H775 H 1.02143 0.53544 0.05913 0.0
H776 H 1.06635 0.36419 0.99232 0.0
H777 H 0.12339 0.63643 0.03588 0.0
H778 H 0.14622 0.35385 0.03455 0.0
H779 H 0.94099 0.5279 0.95781 0.0
H780 H 0.0959 0.56543 0.01663 0.0
H781 H 0.89902 0.57987 0.95486 0.0
H782 H 0.11904 0.45476 0.0748 0.0
H783 H 0.10073 0.70421 0.03102 0.0
H784 H 1.05015 0.73478 0.01479 0.0
H785 H 1.07378 0.50635 0.07435 0.0
H786 H 0.98695 0.71805 0.99304 0.0
N787 N 1.06347 0.59479 0.9993 0.0
C788 C 0.08822 0.59576 0.01353 0.0
C789 C 0.08999 0.67375 0.02209 0.0
C790 C 1.05989 0.66976 0.00849 0.0
C791 C 0.10291 0.63567 0.02486 0.0
C792 C 1.04665 0.62905 0.99727 0.0
H793 H 0.92876 0.65916 0.9712 0.0
N794 N 0.99411 0.57616 0.97609 0.0
C795 C 0.93041 0.59149 0.96345 0.0
C796 C 1.01061 0.6193 0.98524 0.0
C797 C 0.95426 0.56178 0.96531 0.0
C798 C 0.94754 0.63639 0.97259 0.0
C799 C 0.98766 0.65052 0.9838 0.0
O800 O 1.0265 0.53495 0.95152 0.0
O801 O 1.03686 0.45556 0.97809 0.0
O802 O 0.0954 0.47508 1.00411 0.0
O803 O 0.12167 0.55258 0.9902 0.0
O804 O 0.10312 0.51526 0.96799 0.0
O805 O 0.09359 0.60037 0.96197 0.0
O806 O 0.94733 0.36933 0.02033 0.0
O807 O 0.99373 0.49503 0.99863 0.0
O808 O 0.96697 0.46791 0.96735 0.0
O809 O 0.96326 0.39501 0.97856 0.0
O810 O 0.933 0.43486 0.00932 0.0
O811 O 0.96809 0.34338 0.99842 0.0
C812 C 0.07925 0.46658 0.97108 0.0
C813 C 0.10122 0.57362 0.93525 0.0
C814 C 0.18155 0.61407 0.92002 0.0
C815 C 0.14794 0.61714 0.93133 0.0
C816 C 0.16799 0.56711 0.91236 0.0
C817 C 0.08726 0.52683 0.92718 0.0
C818 C 0.12055 0.52379 0.91579 0.0
C819 C 0.13278 0.52188 0.99938 0.0
C820 C 1.06951 0.57695 0.94853 0.0
C821 C 1.00377 0.69339 0.99408 0.0
C822 C 1.03985 0.703 1.00643 0.0
C823 C 0.94714 0.47922 1.00295 0.0
C824 C 0.94143 0.28645 0.02182 0.0
C825 C 0.90941 0.26521 0.03586 0.0
C826 C 0.90576 0.22145 0.04399 0.0
C827 C 0.93593 0.20082 0.0382 0.0
C828 C 0.96975 0.26347 0.01628 0.0
C829 C 0.9676 0.22171 0.02455 0.0
C830 C 0.94622 0.41704 0.96799 0.0
C831 C 0.94238 0.32962 0.01222 0.0
H832 H 0.1591 0.6532 0.93757 0.0
H833 H 0.19381 0.56413 0.9037 0.0
H834 H 1.05119 0.49239 0.92985 0.0
H835 H 0.1098 0.48763 0.90976 0.0
H836 H 0.88619 0.28145 0.04007 0.0
H837 H 0.93488 0.16805 0.04423 0.0
H838 H 0.99315 0.27708 1.00536 0.0
H839 H 0.99003 0.20482 0.02017 0.0
Eu840 Eu 0.56221 1.02442 0.14277 0.0
C841 C 0.67554 1.04337 0.20303 0.0
C842 C 0.76883 0.08777 0.20084 0.0
C843 C 0.72854 0.09064 0.22639 0.0
C844 C 0.71979 0.05648 0.19397 0.0
C845 C 0.67969 0.06111 0.21927 0.0
C846 C 0.77296 0.10392 0.2172 0.0
C847 C 0.58712 1.02171 0.22 0.0
N848 N 0.62874 1.01588 0.19563 0.0
C849 C 0.58481 1.0049 0.20387 0.0
C850 C 0.63467 1.04961 0.22778 0.0
Eu851 Eu 0.63051 0.98324 0.1693 0.0
N852 N 0.71454 1.04255 0.17789 0.0
C853 C 0.75645 0.05738 0.1681 0.0
C854 C 0.81217 0.10324 0.19088 0.0
C855 C 0.80592 0.08819 0.17442 0.0
H856 H 0.5477 0.98346 0.19813 0.0
H857 H 0.83919 0.0999 0.16666 0.0
H858 H 0.81034 0.12773 0.22275 0.0
H859 H 0.55213 1.01304 0.22644 0.0
H860 H 0.75151 1.04435 0.15554 0.0
H861 H 0.53629 0.09016 0.20362 0.0
H862 H 0.85054 0.12732 0.19571 0.0
H863 H 0.47144 0.9356 0.11817 0.0
H864 H 0.58433 0.07911 0.18173 0.0
H865 H 0.37752 0.88727 0.11576 0.0
H866 H 0.7324 0.1043 0.23889 0.0
H867 H 0.44175 1.04798 0.20213 0.0
H868 H 0.36075 0.98934 0.18729 0.0
H869 H 0.63624 0.06263 0.24027 0.0
H870 H 0.31759 0.93334 0.16371 0.0
N871 N 0.51962 1.03512 0.16619 0.0
C872 C 0.54391 0.06264 0.17997 0.0
C873 C 0.46303 1.04406 0.19202 0.0
C874 C 0.43771 1.01371 0.17843 0.0
C875 C 0.51632 0.06811 0.19286 0.0
C876 C 0.46726 1.00964 0.16558 0.0
H877 H 0.32341 0.895 0.13717 0.0
N878 N 0.47174 0.97166 0.14079 0.0
C879 C 0.39529 0.91242 0.12616 0.0
C880 C 0.44274 0.97732 0.15247 0.0
C881 C 0.44881 0.94017 0.12761 0.0
C882 C 0.36492 0.91696 0.13823 0.0
C883 C 0.38843 0.94947 0.15162 0.0
O884 O 0.55055 1.01759 0.11639 0.0
O885 O 0.63308 1.01656 0.14432 0.0
O886 O 0.67093 0.07498 0.17039 0.0
O887 O 0.62202 0.10208 0.15535 0.0
O888 O 0.64068 0.08184 0.13302 0.0
O889 O 0.53828 0.07309 0.12992 0.0
O890 O 0.62896 0.92427 0.1858 0.0
O891 O 0.55166 0.9672 0.16176 0.0
O892 O 0.55328 0.94969 0.13165 0.0
O893 O 0.61753 0.9401 0.1446 0.0
O894 O 0.55111 0.92104 0.17973 0.0
O895 O 0.67638 0.94615 0.16416 0.0
C896 C 0.66487 0.05779 0.13694 0.0
C897 C 0.57044 0.09383 0.10258 0.0
C898 C 0.62853 0.1821 0.09363 0.0
C899 C 0.60337 0.14601 0.10625 0.0
C900 C 0.6223 0.1643 0.07733 0.0
C901 C 0.56489 0.07714 0.08627 0.0
C902 C 0.59118 0.11215 0.07375 0.0
C903 C 0.66302 0.11286 0.16483 0.0
C904 C 0.54171 0.05594 0.11548 0.0
C905 C 0.35923 0.95448 0.16416 0.0
C906 C 0.38381 0.98644 0.17755 0.0
C907 C 0.52064 0.92777 0.17017 0.0
C908 C 0.70569 0.91806 0.18753 0.0
C909 C 0.69467 0.88517 0.20142 0.0
C910 C 0.73465 0.88155 0.20969 0.0
C911 C 0.78542 0.91246 0.20416 0.0
C912 C 0.75706 0.94733 0.18236 0.0
C913 C 0.7964 0.94501 0.19072 0.0
C914 C 0.58129 0.92657 0.13307 0.0
C915 C 0.66391 0.91951 0.17777 0.0
H916 H 0.60874 0.15846 0.11892 0.0
H917 H 0.6398 0.19066 0.06719 0.0
H918 H 0.54003 1.03695 0.08322 0.0
H919 H 0.58643 0.09903 0.06118 0.0
H920 H 0.65524 0.86144 0.20543 0.0
H921 H 0.81699 0.9114 0.21028 0.0
H922 H 0.76713 0.97168 0.17164 0.0
H923 H 0.83575 0.96812 0.18659 0.0
Eu924 Eu 0.60064 0.54173 0.30773 0.0
C925 C 0.67493 0.64102 0.37068 0.0
C926 C 0.71703 0.73455 0.37063 0.0
C927 C 0.67157 0.68648 0.39496 0.0
C928 C 0.70483 0.68796 0.36278 0.0
C929 C 0.65748 0.63997 0.3868 0.0
C930 C 0.7012 0.73361 0.3869 0.0
C931 C 0.61135 0.54703 0.38535 0.0
N932 N 0.66071 0.59653 0.36228 0.0
C933 C 0.62962 0.54989 0.36938 0.0
C934 C 0.62556 0.59219 0.39413 0.0
Eu935 Eu 0.70098 0.60691 0.33655 0.0
N936 N 0.71737 0.68744 0.34675 0.0
C937 C 0.74262 0.73196 0.33792 0.0
C938 C 0.74296 0.78046 0.36168 0.0
C939 C 0.75537 0.77909 0.34522 0.0
H940 H 0.61873 0.51468 0.36288 0.0
H941 H 0.77532 0.81439 0.33823 0.0
H942 H 0.71054 0.76904 0.39321 0.0
H943 H 0.58652 0.50993 0.39091 0.0
H944 H 0.7536 0.73085 0.32537 0.0
H945 H 0.48635 0.51174 0.36401 0.0
H946 H 0.75283 0.81704 0.36728 0.0
H947 H 0.61096 0.44819 0.28788 0.0
H948 H 0.56141 0.55699 0.34637 0.0
H949 H 0.55969 0.35508 0.28339 0.0
H950 H 0.65877 0.68638 0.40739 0.0
H951 H 0.41939 0.42283 0.35734 0.0
H952 H 0.39215 0.34423 0.34011 0.0
H953 H 0.61127 0.58974 0.4065 0.0
H954 H 0.41349 0.30065 0.31851 0.0
N955 N 0.53519 0.49832 0.32813 0.0
C956 C 0.53149 0.52 0.34247 0.0
C957 C 0.45165 0.44349 0.34911 0.0
C958 C 0.4584 0.41926 0.33546 0.0
C959 C 0.48926 0.49364 0.35289 0.0
C960 C 0.50138 0.4479 0.32519 0.0
H961 H 0.47701 0.30391 0.29787 0.0
N962 N 0.55874 0.45074 0.30515 0.0
C963 C 0.54622 0.37372 0.29183 0.0
C964 C 0.51371 0.42321 0.31327 0.0
C965 C 0.57546 0.42672 0.29456 0.0
C966 C 0.49943 0.34504 0.29992 0.0
C967 C 0.48289 0.36954 0.31096 0.0
O968 O 0.60924 0.52958 0.28195 0.0
O969 O 0.67832 0.61365 0.31066 0.0
O970 O 0.64703 0.6446 0.33705 0.0
O971 O 0.57736 0.59921 0.31941 0.0
O972 O 0.62054 0.62101 0.29925 0.0
O973 O 0.53893 0.52597 0.29032 0.0
O974 O 0.75268 0.59931 0.35397 0.0
O975 O 0.63431 0.52829 0.33004 0.0
O976 O 0.66905 0.53121 0.30024 0.0
O977 O 0.73823 0.60133 0.31234 0.0
O978 O 0.69219 0.52689 0.34218 0.0
O979 O 0.78472 0.65952 0.33583 0.0
C980 C 0.66815 0.64572 0.30364 0.0
C981 C 0.57279 0.56596 0.26464 0.0
C982 C 0.53548 0.609 0.24918 0.0
C983 C 0.53039 0.57106 0.26034 0.0
C984 C 0.5835 0.64194 0.24212 0.0
C985 C 0.62058 0.59833 0.25711 0.0
C986 C 0.62573 0.63604 0.24593 0.0
C987 C 0.60339 0.63784 0.33013 0.0
C988 C 0.56722 0.52919 0.27766 0.0
C989 C 0.43788 0.34174 0.32024 0.0
C990 C 0.42565 0.36659 0.33249 0.0
C991 C 0.64968 0.49731 0.33477 0.0
C992 C 0.82873 0.67569 0.36195 0.0
C993 C 0.85255 0.65937 0.37383 0.0
C994 C 0.88308 0.69299 0.38663 0.0
C995 C 0.88901 0.74251 0.38736 0.0
C996 C 0.83803 0.72645 0.36279 0.0
C997 C 0.8671 0.75913 0.37548 0.0
C998 C 0.71937 0.56267 0.30157 0.0
C999 C 0.7941 0.63997 0.34889 0.0
H1000 H 0.49353 0.54648 0.26613 0.0
H1001 H 0.58811 0.67167 0.23358 0.0
H1002 H 0.65419 0.59523 0.26005 0.0
H1003 H 0.66268 0.66109 0.24034 0.0
H1004 H 0.84718 0.62084 0.37319 0.0
H1005 H 0.9122 0.76916 0.3969 0.0
H1006 H 0.82315 0.74133 0.3536 0.0
H1007 H 0.87319 0.7979 0.376 0.0
H1008 H 1.02791 0.65296 0.2327 0.0
H1009 H 0.29095 0.86433 0.27485 0.0
H1010 H 0.1714 0.73494 0.20675 0.0
H1011 H 0.14264 0.8104 0.29731 0.0
H1012 H 0.2476 0.81446 0.25014 0.0
H1013 H 1.06721 0.71103 0.2562 0.0
C1014 C 1.06679 0.68489 0.23159 0.0
C1015 C 0.09593 0.68989 0.21752 0.0
C1016 C 0.22451 0.81359 0.26047 0.0
C1017 C 0.14249 0.75452 0.24483 0.0
C1018 C 0.24937 0.84163 0.27468 0.0
C1019 C 0.2206 0.84196 0.28823 0.0
C1020 C 0.17034 0.78505 0.25978 0.0
C1021 C 0.16657 0.81194 0.28713 0.0
C1022 C 0.08974 0.71735 0.24518 0.0
C1023 C 0.14718 0.73036 0.2172 0.0
N1024 N 0.14337 0.78484 0.27326 0.0
N1025 N 0.16896 0.7604 0.23066 0.0
H1026 H 0.40093 0.11686 0.46733 0.0
H1027 H 0.48668 0.14387 0.37293 0.0
H1028 H 0.4803 0.26186 0.44181 0.0
H1029 H 0.43671 1.00455 0.40054 0.0
H1030 H 0.47088 0.18349 0.39679 0.0
H1031 H 0.40444 0.07277 0.44247 0.0
C1032 C 0.41928 0.13956 0.45649 0.0
C1033 C 0.44028 0.1934 0.45675 0.0
C1034 C 0.46197 0.14378 0.39758 0.0
C1035 C 0.44365 0.14252 0.42794 0.0
C1036 C 0.4698 0.12064 0.38379 0.0
C1037 C 0.46158 0.07019 0.3845 0.0
C1038 C 0.44592 0.11652 0.41242 0.0
C1039 C 0.44187 1.04282 0.3992 0.0
C1040 C 0.42115 0.11421 0.44227 0.0
C1041 C 0.46392 0.2205 0.4423 0.0
N1042 N 0.43524 0.06646 0.4126 0.0
N1043 N 0.46462 0.19483 0.42852 0.0
H1044 H 0.3407 0.53234 0.6078 0.0
H1045 H 0.44501 0.36585 0.56104 0.0
H1046 H 0.26619 0.36757 0.61275 0.0
H1047 H 0.48612 0.52105 0.54856 0.0
H1048 H 0.38207 0.36405 0.58094 0.0
H1049 H 0.40071 0.5289 0.58803 0.0
C1050 C 0.3383 0.49569 0.60523 0.0
C1051 C 0.299 0.45032 0.61222 0.0
C1052 C 0.40383 0.39799 0.57346 0.0
C1053 C 0.36677 0.44586 0.58914 0.0
C1054 C 0.43899 0.3986 0.56186 0.0
C1055 C 0.469 0.44273 0.55237 0.0
C1056 C 0.39988 0.4425 0.57595 0.0
C1057 C 0.46171 0.4852 0.55472 0.0
C1058 C 0.37198 0.4936 0.59371 0.0
C1059 C 0.29655 0.40357 0.60789 0.0
N1060 N 0.42856 0.48425 0.5663 0.0
N1061 N 0.32976 0.40249 0.59664 0.0
H1062 H 0.13126 0.41424 0.72953 0.0
H1063 H 0.85701 0.25374 0.77447 0.0
H1064 H 0.99617 0.41638 0.71313 0.0
H1065 H 0.99785 0.26224 0.79098 0.0
H1066 H 0.90409 0.30824 0.75083 0.0
H1067 H 0.07922 0.34938 0.74999 0.0
C1068 C 0.09004 0.39907 0.72964 0.0
C1069 C 1.06778 0.4194 0.71902 0.0
C1070 C 0.92448 0.29779 0.7596 0.0
C1071 C 1.00784 0.34713 0.7433 0.0
C1072 C 0.8977 0.26711 0.77322 0.0
C1073 C 0.92307 0.25247 0.78473 0.0
C1074 C 0.97709 0.31408 0.75746 0.0
C1075 C 0.97602 0.27117 0.78232 0.0
C1076 C 1.06037 0.36277 0.74161 0.0
C1077 C 1.01451 0.40017 0.72041 0.0
N1078 N 1.00091 0.30054 0.76905 0.0
N1079 N 0.98651 0.36571 0.73241 0.0
H1080 H 0.73029 0.10776 0.89963 0.0
H1081 H 0.68076 0.84235 0.94029 0.0
H1082 H 0.66301 0.96364 0.87374 0.0
H1083 H 0.77341 0.98999 0.96333 0.0
H1084 H 0.67343 0.88654 0.9159 0.0
H1085 H 0.75105 0.0675 0.9225 0.0
C1086 C 0.72235 0.06845 0.89837 0.0
C1087 C 0.69595 1.03941 0.88454 0.0
C1088 C 0.69553 0.90932 0.92628 0.0
C1089 C 0.71652 0.99188 0.91114 0.0
C1090 C 0.69923 0.88396 0.94031 0.0
C1091 C 0.72801 0.91223 0.95396 0.0
C1092 C 0.72034 0.96355 0.92584 0.0
C1093 C 0.75142 0.96636 0.95308 0.0
C1094 C 0.73307 1.045 0.91161 0.0
C1095 C 0.68418 0.98772 0.88403 0.0
N1096 N 0.74701 0.99005 0.93937 0.0
N1097 N 0.69375 0.96551 0.89715 0.0
H1098 H 0.87225 0.63087 0.10791 0.0
H1099 H 0.71718 0.75156 0.06241 0.0
H1100 H 0.86675 0.7652 0.12416 0.0
H1101 H 0.70739 0.60946 0.04708 0.0
H1102 H 0.78066 0.76156 0.08311 0.0
H1103 H 0.81639 0.62345 0.0846 0.0
C1104 C 0.85922 0.6586 0.10668 0.0
C1105 C 0.87524 0.69924 0.11799 0.0
C1106 C 0.76583 0.7288 0.07493 0.0
C1107 C 0.81215 0.69169 0.09108 0.0
C1108 C 0.73034 0.72376 0.06284 0.0
C1109 C 0.70848 0.68087 0.05242 0.0
C1110 C 0.77914 0.69011 0.07695 0.0
C1111 C 0.725 0.64447 0.05421 0.0
C1112 C 0.82774 0.65467 0.09325 0.0
C1113 C 0.85686 0.73396 0.11563 0.0
N1114 N 0.75886 0.64964 0.06629 0.0
N1115 N 0.82687 0.72955 0.10251 0.0
H1116 H 0.44461 0.11566 0.61358 0.0
H1117 H 0.28428 0.83894 0.56959 0.0
H1118 H 0.43862 0.97916 0.63277 0.0
H1119 H 0.30794 0.98243 0.54946 0.0
H1120 H 0.33479 0.88628 0.59386 0.0
H1121 H 0.38451 0.06385 0.59193 0.0
C1122 C 0.42855 0.07427 0.61377 0.0
C1123 C 0.4451 1.05156 0.62556 0.0
C1124 C 0.32852 0.9072 0.58415 0.0
C1125 C 0.37825 0.9917 0.60002 0.0
C1126 C 0.30007 0.88022 0.57017 0.0
C1127 C 0.2907 0.90625 0.55742 0.0
C1128 C 0.34779 0.9607 0.58544 0.0
C1129 C 0.3125 0.96001 0.55905 0.0
C1130 C 0.39502 1.04469 0.60115 0.0
C1131 C 0.42503 0.99797 0.62455 0.0
N1132 N 0.33946 0.98504 0.5727 0.0
N1133 N 0.3932 0.97001 0.61198 0.0
H1134 H 0.47469 0.24171 0.73823 0.0
H1135 H 0.41189 0.44864 0.77897 0.0
H1136 H 0.37343 0.28927 0.71669 0.0
H1137 H 0.50135 0.39201 0.80318 0.0
H1138 H 0.3894 0.38336 0.75764 0.0
H1139 H 0.48199 0.29298 0.76274 0.0
C1140 C 0.45422 0.26304 0.73856 0.0
C1141 C 0.42312 0.26059 0.72528 0.0
C1142 C 0.41276 0.38403 0.76787 0.0
C1143 C 0.43071 0.31911 0.75353 0.0
C1144 C 0.4245 0.42062 0.78034 0.0
C1145 C 0.45765 0.42533 0.79323 0.0
C1146 C 0.43505 0.35218 0.76805 0.0
C1147 C 0.4748 0.38927 0.79376 0.0
C1148 C 0.45794 0.29193 0.75267 0.0
C1149 C 0.39722 0.289 0.72663 0.0
N1150 N 0.46422 0.35505 0.78127 0.0
N1151 N 0.40165 0.31684 0.74037 0.0
H1152 H 0.16799 0.46494 0.97222 0.0
H1153 H 0.14405 0.37856 0.87804 0.0
H1154 H 1.02659 0.40328 0.94512 0.0
H1155 H 0.2878 0.45483 0.90423 0.0
H1156 H 0.09912 0.38068 0.90283 0.0
H1157 H 0.2092 0.44995 0.94872 0.0
C1158 C 0.14471 0.44555 0.96162 0.0
C1159 C 0.09319 0.43411 0.96094 0.0
C1160 C 0.14046 0.39705 0.90321 0.0
C1161 C 0.14138 0.41949 0.93327 0.0
C1162 C 0.16634 0.3961 0.889 0.0
C1163 C 0.22007 0.41653 0.88894 0.0
C1164 C 0.1681 0.41823 0.91774 0.0
C1165 C 0.24658 0.439 0.90357 0.0
C1166 C 0.16877 0.43823 0.94797 0.0
C1167 C 1.06582 0.41125 0.94647 0.0
N1168 N 0.22038 0.43895 0.91734 0.0
N1169 N 0.09035 0.40533 0.93318 0.0
H1170 H 0.75676 0.14418 0.13973 0.0
H1171 H 0.83819 0.11855 0.04795 0.0
H1172 H 0.6772 1.0048 0.11157 0.0
H1173 H 0.89306 0.2638 0.07264 0.0
H1174 H 0.78695 0.07409 0.07215 0.0
H1175 H 0.81742 0.18464 0.11712 0.0
C1176 C 0.75358 0.12118 0.12908 0.0
C1177 C 0.71241 0.07051 0.12777 0.0
C1178 C 0.81007 0.11566 0.07232 0.0
C1179 C 0.7806 0.11765 0.10129 0.0
C1180 C 0.83932 0.14121 0.05846 0.0
C1181 C 0.87017 0.19522 0.05818 0.0
C1182 C 0.81172 0.14396 0.08625 0.0
C1183 C 0.86965 0.22229 0.07219 0.0
C1184 C 0.78762 0.14476 0.11599 0.0
C1185 C 0.70921 1.0433 0.11338 0.0
N1186 N 0.84126 0.19643 0.08565 0.0
N1187 N 0.74235 0.06733 0.10065 0.0
H1188 H 0.67084 0.73661 0.30609 0.0
H1189 H 0.76936 0.81294 0.2133 0.0
H1190 H 0.73432 0.65922 0.27831 0.0
H1191 H 0.68129 0.86956 0.23867 0.0
H1192 H 0.76499 0.7629 0.23763 0.0
H1193 H 0.68721 0.7951 0.28307 0.0
C1194 C 0.69072 0.73356 0.29543 0.0
C1195 C 0.7021 0.69337 0.29435 0.0
C1196 C 0.74648 0.7861 0.23792 0.0
C1197 C 0.71891 0.7592 0.26737 0.0
C1198 C 0.7487 0.81458 0.22397 0.0
C1199 C 0.72555 0.84565 0.22383 0.0
C1200 C 0.72144 0.78883 0.25212 0.0
C1201 C 0.69928 0.84593 0.23808 0.0
C1202 C 0.69895 0.76632 0.28209 0.0
C1203 C 0.72623 0.69042 0.27994 0.0
N1204 N 0.69827 0.81837 0.25162 0.0
N1205 N 0.73324 0.72233 0.26698 0.0
H1206 H 1.0288 0.64987 0.47455 0.0
H1207 H 0.95941 0.66958 0.38105 0.0
H1208 H 0.13993 0.7038 0.43542 0.0
H1209 H 0.87508 0.6902 0.42025 0.0
H1210 H 1.01844 0.66658 0.40138 0.0
H1211 H 0.96627 0.65369 0.4558 0.0
C1212 C 1.04065 0.66372 0.46223 0.0
C1213 C 0.08999 0.67638 0.45665 0.0
C1214 C 0.98658 0.67103 0.40558 0.0
C1215 C 1.01788 0.67917 0.43487 0.0
C1216 C 0.95245 0.672 0.39396 0.0
C1217 C 0.91187 0.67961 0.39892 0.0
C1218 C 0.97988 0.67689 0.42239 0.0
C1219 C 0.90559 0.68381 0.41589 0.0
C1220 C 1.00468 0.66545 0.45143 0.0
C1221 C 0.10258 0.69392 0.44037 0.0
N1222 N 0.93901 0.68226 0.42699 0.0
N1223 N 1.0668 0.69394 0.43007 0.0
H1224 H 0.55615 0.67265 0.3081 0.0
H1225 H 0.52315 0.87392 0.36588 0.0
H1226 H 0.61584 0.70167 0.35726 0.0
H1227 H 0.5363 0.89044 0.31358 0.0
H1228 H 0.54876 0.80715 0.3642 0.0
H1229 H 0.53809 0.74419 0.31082 0.0
C1230 C 0.56498 0.69336 0.31961 0.0
C1231 C 0.58784 0.67979 0.33244 0.0
C1232 C 0.54721 0.82605 0.35307 0.0
C1233 C 0.56624 0.76386 0.33577 0.0
C1234 C 0.5339 0.86572 0.3541 0.0
C1235 C 0.53102 0.89181 0.34002 0.0
C1236 C 0.55528 0.80924 0.33769 0.0
C1237 C 0.53984 0.87378 0.32495 0.0
C1238 C 0.55495 0.735 0.3211 0.0
C1239 C 0.59872 0.70996 0.34689 0.0
N1240 N 0.55104 0.83428 0.32421 0.0
N1241 N 0.58752 0.7495 0.34818 0.0
H1242 H 0.71938 0.49032 0.53215 0.0
H1243 H 0.95471 0.53628 0.47378 0.0
H1244 H 0.71995 0.52335 0.4809 0.0
H1245 H 0.98611 0.59615 0.52296 0.0
H1246 H 0.86501 0.51705 0.4769 0.0
H1247 H 0.81154 0.51598 0.53017 0.0
C1248 C 0.73908 0.50492 0.52061 0.0
C1249 C 0.71151 0.50786 0.50696 0.0
C1250 C 0.89128 0.53412 0.48709 0.0
C1251 C 0.81779 0.53283 0.50414 0.0
C1252 C 0.94292 0.54486 0.48536 0.0
C1253 C 0.97935 0.56793 0.49812 0.0
C1254 C 0.87395 0.54472 0.50193 0.0
C1255 C 0.96041 0.57851 0.51269 0.0
C1256 C 0.7919 0.51862 0.51939 0.0
C1257 C 0.73923 0.52238 0.492 0.0
N1258 N 0.90965 0.5664 0.51423 0.0
N1259 N 0.78978 0.53383 0.49101 0.0
H1260 H 0.40834 0.94979 0.69061 0.0
H1261 H 0.20835 0.6822 0.64886 0.0
H1262 H 0.4463 0.90857 0.64424 0.0
H1263 H 0.25046 0.67914 0.69902 0.0
H1264 H 0.28033 0.77136 0.64651 0.0
H1265 H 0.33759 0.86005 0.69381 0.0
C1266 C 0.40207 0.92238 0.681 0.0
C1267 C 0.43462 0.93857 0.66705 0.0
C1268 C 0.27346 0.75163 0.65816 0.0
C1269 C 0.35054 0.83343 0.67054 0.0
C1270 C 0.23185 0.7002 0.65957 0.0
C1271 C 0.22086 0.67195 0.67439 0.0
C1272 C 0.30511 0.77726 0.67175 0.0
C1273 C 0.25466 0.69883 0.68756 0.0
C1274 C 0.3613 0.87055 0.68291 0.0
C1275 C 0.42322 0.89941 0.65525 0.0
N1276 N 0.294 0.74933 0.68602 0.0
N1277 N 0.38238 0.84994 0.65712 0.0
H1278 H 0.52212 0.39942 0.85558 0.0
H1279 H 0.61263 0.21314 0.8146 0.0
H1280 H 0.60625 0.44067 0.81018 0.0
H1281 H 0.63542 0.24248 0.86627 0.0
H1282 H 0.59048 0.28191 0.81211 0.0
H1283 H 0.54299 0.32983 0.85927 0.0
C1284 C 0.54495 0.39423 0.84632 0.0
C1285 C 0.56232 0.42744 0.83252 0.0
C1286 C 0.59885 0.27252 0.82413 0.0
C1287 C 0.5856 0.34469 0.83656 0.0
C1288 C 0.61114 0.23249 0.82564 0.0
C1289 C 0.62296 0.21837 0.84092 0.0
C1290 C 0.59767 0.30001 0.83801 0.0
C1291 C 0.62259 0.24793 0.85446 0.0
C1292 C 0.55707 0.3541 0.84851 0.0
C1293 C 0.59206 0.41734 0.82113 0.0
N1294 N 0.60959 0.28616 0.85275 0.0
N1295 N 0.60178 0.3771 0.82326 0.0
H1296 H 0.22119 0.6197 1.00193 0.0
H1297 H 0.43779 0.53689 0.99655 0.0
H1298 H 0.17703 0.45946 1.00368 0.0
H1299 H 0.46426 0.66798 0.02525 0.0
H1300 H 0.34547 0.51021 0.99516 0.0
H1301 H 0.31176 0.64189 1.00614 0.0
C1302 C 0.23002 0.5889 1.00321 0.0
C1303 C 0.1897 0.53715 1.00255 0.0
C1304 C 0.37113 0.54428 1.00209 0.0
C1305 C 0.29601 0.56293 1.00692 0.0
C1306 C 0.42421 0.55891 1.00327 0.0
C1307 C 0.45965 0.60284 0.01221 0.0
C1308 C 0.35253 0.57539 0.00893 0.0
C1309 C 0.43894 0.63245 0.01892 0.0
C1310 C 0.28226 0.60176 1.00565 0.0
C1311 C 0.20541 0.49975 1.0043 0.0
N1312 N 0.38787 0.61865 0.01707 0.0
N1313 N 0.25639 0.51314 1.00611 0.0
H1314 H 0.89643 0.42895 0.20078 0.0
H1315 H 0.69344 0.19696 0.144 0.0
H1316 H 0.91709 0.43 0.14873 0.0
H1317 H 0.73227 0.16116 0.19112 0.0
H1318 H 0.76478 0.2861 0.14685 0.0
H1319 H 0.83014 0.33671 0.19921 0.0
C1320 C 0.88927 0.40951 0.18912 0.0
C1321 C 0.91651 0.43777 0.1751 0.0
C1322 C 0.75774 0.25902 0.15667 0.0
C1323 C 0.83427 0.33126 0.1728 0.0
C1324 C 0.71627 0.20759 0.15511 0.0
C1325 C 0.70543 0.16987 0.16731 0.0
C1326 C 0.78907 0.27514 0.17084 0.0
C1327 C 0.73823 0.18766 0.18124 0.0
C1328 C 0.84987 0.35664 0.18813 0.0
C1329 C 0.8996 0.41038 0.16009 0.0
N1330 N 0.77742 0.23827 0.18267 0.0
N1331 N 0.86021 0.35992 0.15936 0.0
H1332 H 0.27748 0.61178 0.47812 0.0
H1333 H 0.48305 0.58592 0.53304 0.0
H1334 H 0.25054 0.58353 0.52973 0.0
H1335 H 0.43166 0.49456 0.48909 0.0
H1336 H 0.41164 0.60397 0.53031 0.0
H1337 H 0.34406 0.58588 0.4797 0.0
C1338 C 0.28355 0.59789 0.48965 0.0
C1339 C 0.25443 0.59625 0.50352 0.0
C1340 C 0.41593 0.58005 0.5212 0.0
C1341 C 0.33655 0.57184 0.50589 0.0
C1342 C 0.45717 0.56956 0.52274 0.0
C1343 C 0.46421 0.53758 0.51147 0.0
C1344 C 0.38145 0.56059 0.50785 0.0
C1345 C 0.42848 0.5188 0.49829 0.0
C1346 C 0.3229 0.58426 0.49065 0.0
C1347 C 0.26956 0.58338 0.51847 0.0
N1348 N 0.38969 0.53091 0.49678 0.0
N1349 N 0.30907 0.5723 0.51925 0.0
H1350 H 0.69489 0.20453 0.69902 0.0
H1351 H 0.96291 0.40692 0.65586 0.0
H1352 H 0.69786 0.2375 0.64769 0.0
H1353 H 0.92678 0.42938 0.70507 0.0
H1354 H 0.87386 0.3359 0.65244 0.0
H1355 H 0.78468 0.27454 0.70139 0.0
C1356 C 0.71473 0.22505 0.68802 0.0
C1357 C 0.68805 0.2117 0.67288 0.0
C1358 C 0.88524 0.35617 0.66403 0.0
C1359 C 0.79361 0.2952 0.67567 0.0
C1360 C 0.93683 0.3971 0.66605 0.0
C1361 C 0.95452 0.42523 0.68087 0.0
C1362 C 0.84958 0.34095 0.67706 0.0
C1363 C 0.91665 0.40972 0.69338 0.0
C1364 C 0.76639 0.26587 0.68947 0.0
C1365 C 0.71662 0.24277 0.65941 0.0
N1366 N 0.86726 0.36892 0.69129 0.0
N1367 N 0.76718 0.28192 0.66106 0.0
H1368 H 0.55255 0.91629 0.86977 0.0
H1369 H 0.50264 0.67656 0.81304 0.0
H1370 H 0.61251 0.94648 0.82062 0.0
H1371 H 0.55281 0.68516 0.86285 0.0
H1372 H 0.52452 0.76794 0.81474 0.0
H1373 H 0.53378 0.82647 0.86699 0.0
C1374 C 0.56112 0.90422 0.85824 0.0
C1375 C 0.58423 0.94053 0.84542 0.0
C1376 C 0.53137 0.75016 0.82527 0.0
C1377 C 0.56131 0.83463 0.842 0.0
C1378 C 0.51954 0.69772 0.82422 0.0
C1379 C 0.52842 0.67258 0.83748 0.0
C1380 C 0.54994 0.77829 0.84003 0.0
C1381 C 0.54659 0.70229 0.85203 0.0
C1382 C 0.55065 0.85246 0.85672 0.0
C1383 C 0.59484 0.92104 0.83095 0.0
N1384 N 0.55629 0.75245 0.8529 0.0
N1385 N 0.58284 0.87013 0.8296 0.0
H1386 H 0.65983 0.49291 0.01258 0.0
H1387 H 0.95973 0.57278 0.01575 0.0
H1388 H 0.77663 0.65261 0.01179 0.0
H1389 H 0.84767 0.43498 0.9916 0.0
H1390 H 0.89554 0.60176 0.01744 0.0
H1391 H 0.72717 0.46919 0.00855 0.0
C1392 C 0.69949 0.52327 0.01156 0.0
C1393 C 0.71137 0.57524 0.01237 0.0
C1394 C 0.88507 0.56558 0.01146 0.0
C1395 C 0.79084 0.54762 0.00811 0.0
C1396 C 0.92257 0.54947 0.01011 0.0
C1397 C 0.91135 0.5027 1.00238 0.0
C1398 C 0.83397 0.53361 1.00594 0.0
C1399 C 0.85973 0.47228 0.99702 0.0
C1400 C 0.73831 0.50953 0.00921 0.0
C1401 C 0.76448 0.6121 0.011 0.0
N1402 N 0.8237 0.48785 0.99894 0.0
N1403 N 0.80158 0.59777 0.00915 0.0
H1404 H 0.45544 0.86609 0.14468 0.0
H1405 H 0.21982 0.66987 0.20149 0.0
H1406 H 0.45172 0.89588 0.19597 0.0
H1407 H 0.18731 0.7025 0.15298 0.0
H1408 H 0.30888 0.7414 0.19876 0.0
H1409 H 0.36359 0.79882 0.14613 0.0
C1410 C 0.43503 0.86043 0.15611 0.0
C1411 C 0.46176 0.89062 0.1699 0.0
C1412 C 0.28256 0.73289 0.18861 0.0
C1413 C 0.35564 0.80775 0.17217 0.0
C1414 C 0.2312 0.69128 0.1901 0.0
C1415 C 0.19444 0.67861 0.17745 0.0
C1416 C 0.29959 0.76249 0.17409 0.0
C1417 C 0.21311 0.70978 0.16318 0.0
C1418 C 0.38237 0.8207 0.15704 0.0
C1419 C 0.4332 0.87612 0.18473 0.0
N1420 N 0.26366 0.74911 0.16184 0.0
N1421 N 0.38289 0.83638 0.18546 0.0
H1422 H 0.55337 0.41276 0.34405 0.0
H1423 H 0.64483 0.20004 0.34404 0.0
H1424 H 0.70047 0.44639 0.3251 0.0
H1425 H 0.48477 0.1539 0.33914 0.0
H1426 H 0.66661 0.29055 0.34025 0.0
H1427 H 0.52736 0.32035 0.34487 0.0
C1428 C 0.57954 0.4009 0.3393 0.0
C1429 C 0.62822 0.43855 0.33331 0.0
C1430 C 0.6266 0.26072 0.33993 0.0
C1431 C 0.60024 0.33086 0.33598 0.0
C1432 C 0.61398 0.20842 0.34211 0.0
C1433 C 0.56249 0.16751 0.34177 0.0
C1434 C 0.58773 0.27407 0.33783 0.0
C1435 C 0.52498 0.18278 0.3393 0.0
C1436 C 0.56504 0.34766 0.3402 0.0
C1437 C 0.6618 0.4196 0.32914 0.0
N1438 N 0.5381 0.23387 0.33765 0.0
N1439 N 0.64756 0.36826 0.33062 0.0
H1440 H 0.23161 0.66295 0.43588 0.0
H1441 H 0.4798 0.92187 0.40882 0.0
H1442 H 0.31088 0.78617 0.47069 0.0
H1443 H 0.34857 0.84374 0.37688 0.0
H1444 H 0.42893 0.86453 0.43133 0.0
H1445 H 0.2849 0.72025 0.41392 0.0
C1446 C 0.26082 0.70181 0.43901 0.0
C1447 C 0.26687 0.71951 0.45529 0.0
C1448 C 0.41142 0.8599 0.41937 0.0
C1449 C 0.32845 0.78545 0.42997 0.0
C1450 C 0.44048 0.89231 0.40647 0.0
C1451 C 0.41851 0.88751 0.39086 0.0
C1452 C 0.36037 0.82131 0.4166 0.0
C1453 C 0.3671 0.84885 0.38867 0.0
C1454 C 0.2909 0.73462 0.42638 0.0
C1455 C 0.30492 0.77074 0.45838 0.0
N1456 N 0.34 0.81693 0.40131 0.0
N1457 N 0.33456 0.80176 0.44588 0.0
H1458 H 0.57577 0.32147 0.54195 0.0
H1459 H 0.56508 0.27533 0.6385 0.0
H1460 H 0.62195 0.44729 0.57591 0.0
H1461 H 0.60585 0.19042 0.60477 0.0
H1462 H 0.57228 0.33319 0.61581 0.0
H1463 H 0.57318 0.2666 0.56485 0.0
C1464 C 0.58571 0.33769 0.55416 0.0
C1465 C 0.59973 0.38938 0.55688 0.0
C1466 C 0.57989 0.30198 0.61347 0.0
C1467 C 0.59517 0.32619 0.58329 0.0
C1468 C 0.57576 0.26896 0.62641 0.0
C1469 C 0.58547 0.22819 0.62368 0.0
C1470 C 0.59225 0.29326 0.59755 0.0
C1471 C 0.59875 0.22166 0.60762 0.0
C1472 C 0.58417 0.30634 0.56723 0.0
C1473 C 0.61169 0.40798 0.5731 0.0
N1474 N 0.60118 0.25332 0.59522 0.0
N1475 N 0.60858 0.3764 0.58565 0.0
H1476 H 0.47203 0.57586 0.76522 0.0
H1477 H 0.21211 0.57145 0.7422 0.0
H1478 H 0.34614 0.52634 0.79927 0.0
H1479 H 0.29213 0.53438 0.70543 0.0
H1480 H 0.26977 0.5704 0.76305 0.0
H1481 H 0.41567 0.57541 0.74314 0.0
C1482 C 0.4327 0.56527 0.76811 0.0
C1483 C 0.41398 0.55137 0.78422 0.0
C1484 C 0.27496 0.56267 0.75043 0.0
C1485 C 0.34945 0.55135 0.75896 0.0
C1486 C 0.24222 0.56365 0.7384 0.0
C1487 C 0.24724 0.55337 0.72186 0.0
C1488 C 0.31424 0.55241 0.74606 0.0
C1489 C 0.28676 0.54266 0.71796 0.0
C1490 C 0.4005 0.56465 0.75545 0.0
C1491 C 0.3624 0.53738 0.7871 0.0
N1492 N 0.31908 0.54297 0.72993 0.0
N1493 N 0.33229 0.5383 0.77469 0.0
H1494 H 0.68867 0.19155 0.9097 0.0
H1495 H 0.94492 0.44404 0.93587 0.0
H1496 H 0.81484 0.26549 0.87566 0.0
H1497 H 0.86705 0.31692 0.96939 0.0
H1498 H 0.88913 0.38937 0.91361 0.0
H1499 H 0.74469 0.24719 0.93162 0.0
C1500 C 0.72799 0.21989 0.90675 0.0
C1501 C 0.74691 0.22387 0.89071 0.0
C1502 C 0.88417 0.37359 0.92586 0.0
C1503 C 0.81119 0.28841 0.91589 0.0
C1504 C 0.91569 0.40485 0.93861 0.0
C1505 C 0.91055 0.38516 0.9546 0.0
C1506 C 0.84606 0.32261 0.92913 0.0
C1507 C 0.87238 0.33375 0.9573 0.0
C1508 C 0.76002 0.25139 0.91934 0.0
C1509 C 0.79857 0.26103 0.8878 0.0
N1510 N 0.84128 0.30452 0.94478 0.0
N1511 N 0.82871 0.2922 0.9002 0.0
H1512 H 0.55261 0.92503 0.10099 0.0
H1513 H 0.55469 0.66958 0.07539 0.0
H1514 H 0.60321 0.84738 0.13434 0.0
H1515 H 0.59308 0.79103 0.04024 0.0
H1516 H 0.55534 0.72613 0.09715 0.0
H1517 H 0.55079 0.86874 0.07876 0.0
C1518 C 0.56286 0.89583 0.10371 0.0
C1519 C 0.57791 0.89091 0.11965 0.0
C1520 C 0.56334 0.74034 0.08467 0.0
C1521 C 0.57524 0.82581 0.09417 0.0
C1522 C 0.56255 0.70792 0.07216 0.0
C1523 C 0.57353 0.72529 0.05582 0.0
C1524 C 0.57398 0.79045 0.08093 0.0
C1525 C 0.58429 0.77586 0.05259 0.0
C1526 C 0.56215 0.86398 0.09095 0.0
C1527 C 0.59136 0.85266 0.12229 0.0
N1528 N 0.58378 0.80645 0.06498 0.0
N1529 N 0.58919 0.82132 0.10976 0.0
H1530 H 0.69404 0.53266 0.26963 0.0
H1531 H 0.95068 0.53701 0.24356 0.0
H1532 H 0.82197 0.58964 0.30316 0.0
H1533 H 0.86995 0.58124 0.20929 0.0
H1534 H 0.89614 0.53875 0.26575 0.0
H1535 H 0.7498 0.53284 0.24765 0.0
C1536 C 0.73375 0.54478 0.27245 0.0
C1537 C 0.75318 0.561 0.28838 0.0
C1538 C 0.8903 0.54791 0.25337 0.0
C1539 C 0.81721 0.56045 0.26312 0.0
C1540 C 0.92109 0.54652 0.24064 0.0
C1541 C 0.91473 0.55868 0.22445 0.0
C1542 C 0.85167 0.56008 0.24989 0.0
C1543 C 0.87619 0.57149 0.22154 0.0
C1544 C 0.76563 0.54517 0.25982 0.0
C1545 C 0.80529 0.57682 0.29111 0.0
N1546 N 0.84574 0.57123 0.23407 0.0
N1547 N 0.83531 0.57555 0.27869 0.0
H1548 H 0.90534 0.46087 0.39791 0.0
H1549 H 0.74174 0.20902 0.41712 0.0
H1550 H 0.88361 0.4659 0.45006 0.0
H1551 H 0.6345 0.26306 0.42671 0.0
H1552 H 0.81162 0.29792 0.4169 0.0
H1553 H 0.8198 0.38462 0.39603 0.0
C1554 C 0.88182 0.44716 0.40885 0.0
C1555 C 0.90163 0.46902 0.42421 0.0
C1556 C 0.7726 0.28996 0.41897 0.0
C1557 C 0.80465 0.38267 0.42205 0.0
C1558 C 0.73268 0.23945 0.41902 0.0
C1559 C 0.68191 0.22849 0.42162 0.0
C1560 C 0.76201 0.32979 0.42184 0.0
C1561 C 0.67305 0.26975 0.4247 0.0
C1562 C 0.8333 0.40375 0.40775 0.0
C1563 C 0.86979 0.44937 0.43805 0.0
N1564 N 0.71299 0.31898 0.42481 0.0
N1565 N 0.82292 0.40639 0.43671 0.0
H1566 H 0.4792 0.88432 0.56088 0.0
H1567 H 0.43087 0.61657 0.59616 0.0
H1568 H 0.44111 0.84193 0.61165 0.0
H1569 H 0.55005 0.71272 0.56157 0.0
H1570 H 0.40211 0.67984 0.59635 0.0
H1571 H 0.46797 0.79913 0.55538 0.0
C1572 C 0.46671 0.85647 0.57075 0.0
C1573 C 0.46212 0.87035 0.58682 0.0
C1574 C 0.43368 0.68585 0.58845 0.0
C1575 C 0.44962 0.77346 0.5806 0.0
C1576 C 0.45076 0.65009 0.58842 0.0
C1577 C 0.4939 0.65888 0.57901 0.0
C1578 C 0.45889 0.72993 0.57868 0.0
C1579 C 0.51638 0.70281 0.56889 0.0
C1580 C 0.46059 0.80806 0.56761 0.0
C1581 C 0.44611 0.83286 0.59917 0.0
N1582 N 0.49878 0.73662 0.56909 0.0
N1583 N 0.44126 0.78616 0.59587 0.0
H1584 H 0.6581 0.43569 0.74255 0.0
H1585 H 0.89833 0.44499 0.78719 0.0
H1586 H 0.73085 0.52189 0.78653 0.0
H1587 H 0.86829 0.42017 0.73533 0.0
H1588 H 0.81366 0.43718 0.79099 0.0
H1589 H 0.71259 0.39628 0.74413 0.0
C1590 C 0.6848 0.44583 0.75267 0.0
C1591 C 0.69098 0.4837 0.76409 0.0
C1592 C 0.82505 0.43197 0.77886 0.0
C1593 C 0.75195 0.43735 0.7662 0.0
C1594 C 0.87314 0.43614 0.7767 0.0
C1595 C 0.89045 0.43434 0.76088 0.0
C1596 C 0.79434 0.42582 0.76511 0.0
C1597 C 0.85652 0.42288 0.74767 0.0
C1598 C 0.71545 0.42288 0.75362 0.0
C1599 C 0.72465 0.49337 0.77733 0.0
N1600 N 0.81027 0.41993 0.75003 0.0
N1601 N 0.75443 0.47099 0.77786 0.0
H1602 H 0.41878 0.92462 0.93196 0.0
H1603 H 0.19878 0.70753 0.9101 0.0
H1604 H 0.49968 0.84533 0.91751 0.0
H1605 H 0.27708 0.62505 0.9238 0.0
H1606 H 0.28065 0.78789 0.91071 0.0
H1607 H 0.33765 0.84418 0.92968 0.0
C1608 C 0.41922 0.89 0.92833 0.0
C1609 C 0.46554 0.89137 0.92471 0.0
C1610 C 0.28001 0.75234 0.91371 0.0
C1611 C 0.37309 0.79987 0.92138 0.0
C1612 C 0.23354 0.70656 0.91309 0.0
C1613 C 0.23157 0.66018 0.9171 0.0
C1614 C 0.32456 0.75166 0.91867 0.0
C1615 C 0.27744 0.6604 0.92068 0.0
C1616 C 0.37299 0.84435 0.92678 0.0
C1617 C 0.46448 0.84552 0.92038 0.0
N1618 N 0.32237 0.7058 0.92155 0.0
N1619 N 0.41868 0.80133 0.91873 0.0
H1620 H 0.60827 0.23356 0.11788 0.0
H1621 H 0.71159 0.47889 0.06692 0.0
H1622 H 0.7122 0.26033 0.0775 0.0
H1623 H 0.67163 0.47517 0.11788 0.0
H1624 H 0.72324 0.40452 0.07158 0.0
H1625 H 0.64163 0.32521 0.12001 0.0
C1626 C 0.63906 0.25846 0.10969 0.0
C1627 C 0.65625 0.23841 0.09716 0.0
C1628 C 0.71343 0.42089 0.08186 0.0
C1629 C 0.69328 0.34428 0.09921 0.0
C1630 C 0.70659 0.46313 0.07918 0.0
C1631 C 0.68965 0.48229 0.09197 0.0
C1632 C 0.70196 0.39713 0.09733 0.0
C1633 C 0.68433 0.46117 0.10767 0.0
C1634 C 0.65799 0.31121 0.11088 0.0
C1635 C 0.69599 0.27354 0.08689 0.0
N1636 N 0.68914 0.41879 0.10983 0.0
N1637 N 0.71215 0.32467 0.08784 0.0
H1638 H 0.44171 0.53407 0.23934 0.0
H1639 H 0.30111 0.69956 0.24931 0.0
H1640 H 0.52652 0.69549 0.25151 0.0
H1641 H 0.22809 0.5346 0.25481 0.0
H1642 H 0.38437 0.70289 0.24594 0.0
H1643 H 0.3625 0.53819 0.23902 0.0
C1644 C 0.44354 0.57058 0.2417 0.0
C1645 C 0.49021 0.61433 0.24566 0.0
C1646 C 0.34996 0.66613 0.2479 0.0
C1647 C 0.40001 0.61926 0.24562 0.0
C1648 C 0.30271 0.66423 0.24997 0.0
C1649 C 0.25773 0.61666 0.25218 0.0
C1650 C 0.35167 0.6201 0.24794 0.0
C1651 C 0.26167 0.57196 0.2528 0.0
C1652 C 0.39844 0.5729 0.24163 0.0
C1653 C 0.49098 0.66096 0.24843 0.0
N1654 N 0.30771 0.57477 0.25058 0.0
N1655 N 0.44618 0.66216 0.24857 0.0
loop_
_geom_bond_atom_site_label_1
_geom_bond_atom_site_label_2
_geom_bond_distance
_geom_bond_site_symmetry_2
_ccdc_geom_bond_type
Eu0 N31 2.657 . S
Eu0 N38 2.609 1_545 S
Eu0 O44 2.558 . S
Eu0 O45 2.612 . S
Eu0 O47 2.339 . S
Eu0 O48 2.563 . S
Eu0 O49 2.419 . S
Eu0 O51 2.380 1_545 S
Eu0 O52 2.432 1_545 S
Eu0 C64 2.848 . S
C1 C4 1.429 . S
C1 C5 1.411 . S
C1 N8 1.377 . S
C2 C4 1.420 . S
C2 C6 1.423 . S
C2 C14 1.392 . S
C3 C5 1.420 . S
C3 C6 1.351 . S
C3 H26 0.931 . S
C4 C1 1.429 . S
C4 C2 1.420 . S
C4 N12 1.362 1_545 S
C5 C1 1.411 . S
C5 C3 1.420 . S
C5 C10 1.395 . S
C6 C2 1.423 . S
C6 C3 1.351 . S
C6 H18 0.930 . S
C7 C9 1.400 . S
C7 C10 1.386 . S
C7 H19 0.930 . S
N8 C1 1.377 . S
N8 C9 1.321 . S
N8 Eu11 2.609 1_545 S
C9 C7 1.400 . S
C9 N8 1.321 . S
C9 H16 0.930 . S
C10 C5 1.395 . S
C10 C7 1.386 . S
C10 H29 0.930 . S
Eu11 N8 2.609 1_565 S
Eu11 N12 2.657 . S
Eu11 O45 2.380 1_565 S
Eu11 O46 2.432 1_565 S
Eu11 O50 2.558 . S
Eu11 O51 2.612 . S
Eu11 O53 2.339 . S
Eu11 O54 2.563 . S
Eu11 O55 2.419 . S
Eu11 C75 2.848 . S
N12 C4 1.362 1_565 S
N12 Eu11 2.657 . S
N12 C13 1.334 . S
C13 N12 1.334 . S
C13 C15 1.413 . S
C13 H20 0.929 . S
C14 C2 1.392 . S
C14 C15 1.367 1_545 S
C14 H22 0.930 . S
C15 C13 1.413 . S
C15 C14 1.367 1_565 S
C15 H17 0.930 . S
H16 C9 0.930 . S
H17 C15 0.930 . S
H18 C6 0.930 . S
H19 C7 0.930 . S
H20 C13 0.929 . S
H21 C35 0.930 . S
H22 C14 0.930 . S
H23 C41 0.930 . S
H24 C32 0.929 . S
H25 C39 0.930 . S
H26 C3 0.931 . S
H27 C33 0.930 . S
H28 C66 0.930 . S
H29 C10 0.930 . S
H30 C65 0.931 . S
N31 Eu0 2.657 . S
N31 C32 1.334 . S
N31 C36 1.362 1_545 S
C32 H24 0.929 . S
C32 N31 1.334 . S
C32 C35 1.413 . S
C33 H27 0.930 . S
C33 C34 1.392 . S
C33 C35 1.367 1_565 S
C34 C33 1.392 . S
C34 C36 1.420 . S
C34 C66 1.423 . S
C35 H21 0.930 . S
C35 C32 1.413 . S
C35 C33 1.367 1_545 S
C36 N31 1.362 1_565 S
C36 C34 1.420 . S
C36 C40 1.429 . S
H37 C42 0.930 . S
N38 Eu0 2.609 1_565 S
N38 C40 1.377 . S
N38 C41 1.321 . S
C39 H25 0.930 . S
C39 C41 1.400 . S
C39 C42 1.386 . S
C40 C36 1.429 . S
C40 N38 1.377 . S
C40 C43 1.411 . S
C41 H23 0.930 . S
C41 N38 1.321 . S
C41 C39 1.400 . S
C42 H37 0.930 . S
C42 C39 1.386 . S
C42 C43 1.395 . S
C43 C40 1.411 . S
C43 C42 1.395 . S
C43 C65 1.420 . S
O44 Eu0 2.558 . S
O44 C64 1.257 . S
O45 Eu0 2.612 . S
O45 Eu11 2.380 1_545 S
O45 C56 1.276 . S
O46 Eu11 2.432 1_545 S
O46 C63 1.264 . S
O47 Eu0 2.339 . S
O47 C63 1.254 . S
O48 Eu0 2.563 . S
O48 C56 1.235 . S
O49 Eu0 2.419 . S
O49 C64 1.249 . S
O50 Eu11 2.558 . S
O50 C75 1.257 . S
O51 Eu0 2.380 1_565 S
O51 Eu11 2.612 . S
O51 C67 1.276 . S
O52 Eu0 2.432 1_565 S
O52 C74 1.264 . S
O53 Eu11 2.339 . S
O53 C74 1.254 . S
O54 Eu11 2.563 . S
O54 C67 1.235 . S
O55 Eu11 2.419 . S
O55 C75 1.249 . S
C56 O45 1.276 . S
C56 O48 1.235 . S
C57 C59 1.393 . S
C57 C61 1.395 . S
C57 C64 1.492 . S
C58 C59 1.392 . S
C58 C60 1.386 . S
C59 C57 1.393 . S
C59 C58 1.392 . S
C59 H76 0.930 . S
C60 C58 1.386 . S
C60 C62 1.395 . S
C60 H77 0.930 . S
C61 C57 1.395 . S
C61 C62 1.379 . S
C61 H78 0.930 . S
C62 C60 1.395 . S
C62 C61 1.379 . S
C62 H79 0.930 . S
C63 O46 1.264 . S
C63 O47 1.254 . S
C64 Eu0 2.848 . S
C64 O44 1.257 . S
C64 O49 1.249 . S
C64 C57 1.492 . S
C65 H30 0.931 . S
C65 C43 1.420 . S
C65 C66 1.351 . S
C66 H28 0.930 . S
C66 C34 1.423 . S
C66 C65 1.351 . S
C67 O51 1.276 . S
C67 O54 1.235 . S
C68 C69 1.393 . S
C68 C72 1.395 . S
C68 C75 1.492 . S
C69 C68 1.393 . S
C69 C70 1.392 . S
C69 H80 0.930 . S
C70 C69 1.392 . S
C70 C71 1.386 . S
C71 C70 1.386 . S
C71 C73 1.395 . S
C71 H81 0.930 . S
C72 C68 1.395 . S
C72 C73 1.379 . S
C72 H82 0.930 . S
C73 C71 1.395 . S
C73 C72 1.379 . S
C73 H83 0.930 . S
C74 O52 1.264 . S
C74 O53 1.254 . S
C75 Eu11 2.848 . S
C75 O50 1.257 . S
C75 O55 1.249 . S
C75 C68 1.492 . S
H76 C59 0.930 . S
H77 C60 0.930 . S
H78 C61 0.930 . S
H79 C62 0.930 . S
H80 C69 0.930 . S
H81 C71 0.930 . S
H82 C72 0.930 . S
H83 C73 0.930 . S
Eu84 N115 2.657 . S
Eu84 N122 2.609 . S
Eu84 O128 2.558 . S
Eu84 O129 2.612 . S
Eu84 O131 2.339 . S
Eu84 O132 2.563 . S
Eu84 O133 2.419 . S
Eu84 O135 2.380 . S
Eu84 O136 2.432 . S
Eu84 C148 2.848 . S
C85 C88 1.429 . S
C85 C89 1.411 . S
C85 N92 1.377 . S
C86 C88 1.420 . S
C86 C90 1.423 . S
C86 C98 1.392 . S
C87 C89 1.420 . S
C87 C90 1.351 . S
C87 H110 0.931 . S
C88 C85 1.429 . S
C88 C86 1.420 . S
C88 N96 1.362 . S
C89 C85 1.411 . S
C89 C87 1.420 . S
C89 C94 1.395 . S
C90 C86 1.423 . S
C90 C87 1.351 . S
C90 H102 0.930 . S
C91 C93 1.400 . S
C91 C94 1.386 . S
C91 H103 0.930 . S
N92 C85 1.377 . S
N92 C93 1.321 . S
N92 Eu95 2.609 . S
C93 C91 1.400 . S
C93 N92 1.321 . S
C93 H100 0.930 . S
C94 C89 1.395 . S
C94 C91 1.386 . S
C94 H113 0.930 . S
Eu95 N92 2.609 . S
Eu95 N96 2.657 . S
Eu95 O129 2.380 . S
Eu95 O130 2.432 . S
Eu95 O134 2.558 . S
Eu95 O135 2.612 . S
Eu95 O137 2.339 . S
Eu95 O138 2.563 . S
Eu95 O139 2.419 . S
Eu95 C159 2.848 . S
N96 C88 1.362 . S
N96 Eu95 2.657 . S
N96 C97 1.334 . S
C97 N96 1.334 . S
C97 C99 1.413 . S
C97 H104 0.929 . S
C98 C86 1.392 . S
C98 C99 1.367 . S
C98 H106 0.930 . S
C99 C97 1.413 . S
C99 C98 1.367 . S
C99 H101 0.930 . S
H100 C93 0.930 . S
H101 C99 0.930 . S
H102 C90 0.930 . S
H103 C91 0.930 . S
H104 C97 0.929 . S
H105 C119 0.930 . S
H106 C98 0.930 . S
H107 C125 0.930 . S
H108 C116 0.929 . S
H109 C123 0.930 . S
H110 C87 0.931 . S
H111 C117 0.930 . S
H112 C150 0.930 . S
H113 C94 0.930 . S
H114 C149 0.931 . S
N115 Eu84 2.657 . S
N115 C116 1.334 . S
N115 C120 1.362 . S
C116 H108 0.929 . S
C116 N115 1.334 . S
C116 C119 1.413 . S
C117 H111 0.930 . S
C117 C118 1.392 . S
C117 C119 1.367 . S
C118 C117 1.392 . S
C118 C120 1.420 . S
C118 C150 1.423 . S
C119 H105 0.930 . S
C119 C116 1.413 . S
C119 C117 1.367 . S
C120 N115 1.362 . S
C120 C118 1.420 . S
C120 C124 1.429 . S
H121 C126 0.930 . S
N122 Eu84 2.609 . S
N122 C124 1.377 . S
N122 C125 1.321 . S
C123 H109 0.930 . S
C123 C125 1.400 . S
C123 C126 1.386 . S
C124 C120 1.429 . S
C124 N122 1.377 . S
C124 C127 1.411 . S
C125 H107 0.930 . S
C125 N122 1.321 . S
C125 C123 1.400 . S
C126 H121 0.930 . S
C126 C123 1.386 . S
C126 C127 1.395 . S
C127 C124 1.411 . S
C127 C126 1.395 . S
C127 C149 1.420 . S
O128 Eu84 2.558 . S
O128 C148 1.257 . S
O129 Eu84 2.612 . S
O129 Eu95 2.380 . S
O129 C140 1.276 . S
O130 Eu95 2.432 . S
O130 C147 1.264 . S
O131 Eu84 2.339 . S
O131 C147 1.254 . S
O132 Eu84 2.563 . S
O132 C140 1.235 . S
O133 Eu84 2.419 . S
O133 C148 1.249 . S
O134 Eu95 2.558 . S
O134 C159 1.257 . S
O135 Eu84 2.380 . S
O135 Eu95 2.612 . S
O135 C151 1.276 . S
O136 Eu84 2.432 . S
O136 C158 1.264 . S
O137 Eu95 2.339 . S
O137 C158 1.254 . S
O138 Eu95 2.563 . S
O138 C151 1.235 . S
O139 Eu95 2.419 . S
O139 C159 1.249 . S
C140 O129 1.276 . S
C140 O132 1.235 . S
C141 C143 1.393 . S
C141 C145 1.395 . S
C141 C148 1.492 . S
C142 C143 1.392 . S
C142 C144 1.386 . S
C143 C141 1.393 . S
C143 C142 1.392 . S
C143 H160 0.930 . S
C144 C142 1.386 . S
C144 C146 1.395 . S
C144 H161 0.930 . S
C145 C141 1.395 . S
C145 C146 1.379 . S
C145 H162 0.930 . S
C146 C144 1.395 . S
C146 C145 1.379 . S
C146 H163 0.930 . S
C147 O130 1.264 . S
C147 O131 1.254 . S
C148 Eu84 2.848 . S
C148 O128 1.257 . S
C148 O133 1.249 . S
C148 C141 1.492 . S
C149 H114 0.931 . S
C149 C127 1.420 . S
C149 C150 1.351 . S
C150 H112 0.930 . S
C150 C118 1.423 . S
C150 C149 1.351 . S
C151 O135 1.276 . S
C151 O138 1.235 . S
C152 C153 1.393 . S
C152 C156 1.395 . S
C152 C159 1.492 . S
C153 C152 1.393 . S
C153 C154 1.392 . S
C153 H164 0.930 . S
C154 C153 1.392 . S
C154 C155 1.386 . S
C155 C154 1.386 . S
C155 C157 1.395 . S
C155 H165 0.930 . S
C156 C152 1.395 . S
C156 C157 1.379 . S
C156 H166 0.930 . S
C157 C155 1.395 . S
C157 C156 1.379 . S
C157 H167 0.930 . S
C158 O136 1.264 . S
C158 O137 1.254 . S
C159 Eu95 2.848 . S
C159 O134 1.257 . S
C159 O139 1.249 . S
C159 C152 1.492 . S
H160 C143 0.930 . S
H161 C144 0.930 . S
H162 C145 0.930 . S
H163 C146 0.930 . S
H164 C153 0.930 . S
H165 C155 0.930 . S
H166 C156 0.930 . S
H167 C157 0.930 . S
Eu168 N199 2.657 . S
Eu168 N206 2.609 1_655 S
Eu168 O212 2.558 . S
Eu168 O213 2.612 . S
Eu168 O215 2.339 . S
Eu168 O216 2.563 . S
Eu168 O217 2.419 . S
Eu168 O219 2.380 1_655 S
Eu168 O220 2.432 1_655 S
Eu168 C232 2.848 . S
C169 C172 1.429 . S
C169 C173 1.411 . S
C169 N176 1.377 . S
C170 C172 1.420 . S
C170 C174 1.423 . S
C170 C182 1.392 1_655 S
C171 C173 1.420 . S
C171 C174 1.351 . S
C171 H194 0.931 . S
C172 C169 1.429 . S
C172 C170 1.420 . S
C172 N180 1.362 1_655 S
C173 C169 1.411 . S
C173 C171 1.420 . S
C173 C178 1.395 . S
C174 C170 1.423 . S
C174 C171 1.351 . S
C174 H186 0.930 . S
C175 C177 1.400 . S
C175 C178 1.386 . S
C175 H187 0.930 . S
N176 C169 1.377 . S
N176 C177 1.321 . S
N176 Eu179 2.609 1_655 S
C177 C175 1.400 . S
C177 N176 1.321 . S
C177 H184 0.930 . S
C178 C173 1.395 . S
C178 C175 1.386 . S
C178 H197 0.930 . S
Eu179 N176 2.609 1_455 S
Eu179 N180 2.657 . S
Eu179 O213 2.380 1_455 S
Eu179 O214 2.432 1_455 S
Eu179 O218 2.558 . S
Eu179 O219 2.612 . S
Eu179 O221 2.339 . S
Eu179 O222 2.563 . S
Eu179 O223 2.419 . S
Eu179 C243 2.848 . S
N180 C172 1.362 1_455 S
N180 Eu179 2.657 . S
N180 C181 1.334 . S
C181 N180 1.334 . S
C181 C183 1.413 . S
C181 H188 0.929 . S
C182 C170 1.392 1_455 S
C182 C183 1.367 . S
C182 H190 0.934 1_455 S
C183 C181 1.413 . S
C183 C182 1.367 . S
C183 H185 0.930 . S
H184 C177 0.930 . S
H185 C183 0.930 . S
H186 C174 0.930 . S
H187 C175 0.930 . S
H188 C181 0.929 . S
H189 C203 0.930 . S
H190 C182 0.934 1_655 S
H191 C209 0.930 . S
H192 C200 0.929 . S
H193 C207 0.930 . S
H194 C171 0.931 . S
H195 C201 0.932 1_455 S
H196 C234 0.930 . S
H197 C178 0.930 . S
H198 C233 0.931 . S
N199 Eu168 2.657 . S
N199 C200 1.334 . S
N199 C204 1.362 1_655 S
C200 H192 0.929 . S
C200 N199 1.334 . S
C200 C203 1.413 . S
C201 H195 0.932 1_655 S
C201 C202 1.392 1_655 S
C201 C203 1.367 . S
C202 C201 1.392 1_455 S
C202 C204 1.420 . S
C202 C234 1.423 . S
C203 H189 0.930 . S
C203 C200 1.413 . S
C203 C201 1.367 . S
C204 N199 1.362 1_455 S
C204 C202 1.420 . S
C204 C208 1.429 . S
H205 C210 0.930 . S
N206 Eu168 2.609 1_455 S
N206 C208 1.377 . S
N206 C209 1.321 . S
C207 H193 0.930 . S
C207 C209 1.400 . S
C207 C210 1.386 . S
C208 C204 1.429 . S
C208 N206 1.377 . S
C208 C211 1.411 . S
C209 H191 0.930 . S
C209 N206 1.321 . S
C209 C207 1.400 . S
C210 H205 0.930 . S
C210 C207 1.386 . S
C210 C211 1.395 . S
C211 C208 1.411 . S
C211 C210 1.395 . S
C211 C233 1.420 . S
O212 Eu168 2.558 . S
O212 C232 1.257 . S
O213 Eu168 2.612 . S
O213 Eu179 2.380 1_655 S
O213 C224 1.276 . S
O214 Eu179 2.432 1_655 S
O214 C231 1.264 . S
O215 Eu168 2.339 . S
O215 C231 1.254 . S
O216 Eu168 2.563 . S
O216 C224 1.235 . S
O217 Eu168 2.419 . S
O217 C232 1.249 . S
O218 Eu179 2.558 . S
O218 C243 1.257 . S
O219 Eu168 2.380 1_455 S
O219 Eu179 2.612 . S
O219 C235 1.276 . S
O220 Eu168 2.432 1_455 S
O220 C242 1.264 . S
O221 Eu179 2.339 . S
O221 C242 1.254 . S
O222 Eu179 2.563 . S
O222 C235 1.235 . S
O223 Eu179 2.419 . S
O223 C243 1.249 . S
C224 O213 1.276 . S
C224 O216 1.235 . S
C225 C227 1.393 . S
C225 C229 1.395 . S
C225 C232 1.492 . S
C226 C227 1.392 . S
C226 C228 1.386 . S
C227 C225 1.393 . S
C227 C226 1.392 . S
C227 H244 0.930 . S
C228 C226 1.386 . S
C228 C230 1.395 . S
C228 H245 0.930 . S
C229 C225 1.395 . S
C229 C230 1.379 . S
C229 H246 0.930 . S
C230 C228 1.395 . S
C230 C229 1.379 . S
C230 H247 0.930 . S
C231 O214 1.264 . S
C231 O215 1.254 . S
C232 Eu168 2.848 . S
C232 O212 1.257 . S
C232 O217 1.249 . S
C232 C225 1.492 . S
C233 H198 0.931 . S
C233 C211 1.420 . S
C233 C234 1.351 . S
C234 H196 0.930 . S
C234 C202 1.423 . S
C234 C233 1.351 . S
C235 O219 1.276 . S
C235 O222 1.235 . S
C236 C237 1.393 . S
C236 C240 1.395 . S
C236 C243 1.492 . S
C237 C236 1.393 . S
C237 C238 1.392 . S
C237 H248 0.930 . S
C238 C237 1.392 . S
C238 C239 1.386 . S
C239 C238 1.386 . S
C239 C241 1.395 . S
C239 H249 0.930 . S
C240 C236 1.395 . S
C240 C241 1.379 . S
C240 H250 0.930 . S
C241 C239 1.395 . S
C241 C240 1.379 . S
C241 H251 0.930 . S
C242 O220 1.264 . S
C242 O221 1.254 . S
C243 Eu179 2.848 . S
C243 O218 1.257 . S
C243 O223 1.249 . S
C243 C236 1.492 . S
H244 C227 0.930 . S
H245 C228 0.930 . S
H246 C229 0.930 . S
H247 C230 0.930 . S
H248 C237 0.930 . S
H249 C239 0.930 . S
H250 C240 0.930 . S
H251 C241 0.930 . S
Eu252 N283 2.657 . S
Eu252 N290 2.609 1_565 S
Eu252 O296 2.558 . S
Eu252 O297 2.612 . S
Eu252 O299 2.339 . S
Eu252 O300 2.563 . S
Eu252 O301 2.419 . S
Eu252 O303 2.380 1_565 S
Eu252 O304 2.432 1_565 S
Eu252 C316 2.848 . S
C253 C256 1.429 . S
C253 C257 1.411 . S
C253 N260 1.377 . S
C254 C256 1.420 . S
C254 C258 1.423 . S
C254 C266 1.392 . S
C255 C257 1.420 . S
C255 C258 1.351 . S
C255 H278 0.931 . S
C256 C253 1.429 . S
C256 C254 1.420 . S
C256 N264 1.362 1_565 S
C257 C253 1.411 . S
C257 C255 1.420 . S
C257 C262 1.395 . S
C258 C254 1.423 . S
C258 C255 1.351 . S
C258 H270 0.930 . S
C259 C261 1.400 . S
C259 C262 1.386 . S
C259 H271 0.930 . S
N260 C253 1.377 . S
N260 C261 1.321 . S
N260 Eu263 2.609 1_565 S
C261 C259 1.400 . S
C261 N260 1.321 . S
C261 H268 0.930 . S
C262 C257 1.395 . S
C262 C259 1.386 . S
C262 H281 0.930 . S
Eu263 N260 2.609 1_545 S
Eu263 N264 2.657 . S
Eu263 O297 2.380 1_545 S
Eu263 O298 2.432 1_545 S
Eu263 O302 2.558 . S
Eu263 O303 2.612 . S
Eu263 O305 2.339 . S
Eu263 O306 2.563 . S
Eu263 O307 2.419 . S
Eu263 C327 2.848 . S
N264 C256 1.362 1_545 S
N264 Eu263 2.657 . S
N264 C265 1.334 . S
C265 N264 1.334 . S
C265 C267 1.413 . S
C265 H272 0.929 . S
C266 C254 1.392 . S
C266 C267 1.367 1_565 S
C266 H274 0.930 . S
C267 C265 1.413 . S
C267 C266 1.367 1_545 S
C267 H269 0.930 . S
H268 C261 0.930 . S
H269 C267 0.930 . S
H270 C258 0.930 . S
H271 C259 0.930 . S
H272 C265 0.929 . S
H273 C287 0.930 . S
H274 C266 0.930 . S
H275 C293 0.930 . S
H276 C284 0.929 . S
H277 C291 0.930 . S
H278 C255 0.931 . S
H279 C285 0.930 . S
H280 C318 0.930 . S
H281 C262 0.930 . S
H282 C317 0.931 . S
N283 Eu252 2.657 . S
N283 C284 1.334 . S
N283 C288 1.362 1_565 S
C284 H276 0.929 . S
C284 N283 1.334 . S
C284 C287 1.413 . S
C285 H279 0.930 . S
C285 C286 1.392 . S
C285 C287 1.367 1_545 S
C286 C285 1.392 . S
C286 C288 1.420 . S
C286 C318 1.423 . S
C287 H273 0.930 . S
C287 C284 1.413 . S
C287 C285 1.367 1_565 S
C288 N283 1.362 1_545 S
C288 C286 1.420 . S
C288 C292 1.429 . S
H289 C294 0.930 . S
N290 Eu252 2.609 1_545 S
N290 C292 1.377 . S
N290 C293 1.321 . S
C291 H277 0.930 . S
C291 C293 1.400 . S
C291 C294 1.386 . S
C292 C288 1.429 . S
C292 N290 1.377 . S
C292 C295 1.411 . S
C293 H275 0.930 . S
C293 N290 1.321 . S
C293 C291 1.400 . S
C294 H289 0.930 . S
C294 C291 1.386 . S
C294 C295 1.395 . S
C295 C292 1.411 . S
C295 C294 1.395 . S
C295 C317 1.420 . S
O296 Eu252 2.558 . S
O296 C316 1.257 . S
O297 Eu252 2.612 . S
O297 Eu263 2.380 1_565 S
O297 C308 1.276 . S
O298 Eu263 2.432 1_565 S
O298 C315 1.264 . S
O299 Eu252 2.339 . S
O299 C315 1.254 . S
O300 Eu252 2.563 . S
O300 C308 1.235 . S
O301 Eu252 2.419 . S
O301 C316 1.249 . S
O302 Eu263 2.558 . S
O302 C327 1.257 . S
O303 Eu252 2.380 1_545 S
O303 Eu263 2.612 . S
O303 C319 1.276 . S
O304 Eu252 2.432 1_545 S
O304 C326 1.264 . S
O305 Eu263 2.339 . S
O305 C326 1.254 . S
O306 Eu263 2.563 . S
O306 C319 1.235 . S
O307 Eu263 2.419 . S
O307 C327 1.249 . S
C308 O297 1.276 . S
C308 O300 1.235 . S
C309 C311 1.393 . S
C309 C313 1.395 . S
C309 C316 1.492 . S
C310 C311 1.392 . S
C310 C312 1.386 . S
C311 C309 1.393 . S
C311 C310 1.392 . S
C311 H328 0.930 . S
C312 C310 1.386 . S
C312 C314 1.395 . S
C312 H329 0.930 . S
C313 C309 1.395 . S
C313 C314 1.379 . S
C313 H330 0.930 . S
C314 C312 1.395 . S
C314 C313 1.379 . S
C314 H331 0.930 . S
C315 O298 1.264 . S
C315 O299 1.254 . S
C316 Eu252 2.848 . S
C316 O296 1.257 . S
C316 O301 1.249 . S
C316 C309 1.492 . S
C317 H282 0.931 . S
C317 C295 1.420 . S
C317 C318 1.351 . S
C318 H280 0.930 . S
C318 C286 1.423 . S
C318 C317 1.351 . S
C319 O303 1.276 . S
C319 O306 1.235 . S
C320 C321 1.393 . S
C320 C324 1.395 . S
C320 C327 1.492 . S
C321 C320 1.393 . S
C321 C322 1.392 . S
C321 H332 0.930 . S
C322 C321 1.392 . S
C322 C323 1.386 . S
C323 C322 1.386 . S
C323 C325 1.395 . S
C323 H333 0.930 . S
C324 C320 1.395 . S
C324 C325 1.379 . S
C324 H334 0.930 . S
C325 C323 1.395 . S
C325 C324 1.379 . S
C325 H335 0.930 . S
C326 O304 1.264 . S
C326 O305 1.254 . S
C327 Eu263 2.848 . S
C327 O302 1.257 . S
C327 O307 1.249 . S
C327 C320 1.492 . S
H328 C311 0.930 . S
H329 C312 0.930 . S
H330 C313 0.930 . S
H331 C314 0.930 . S
H332 C321 0.930 . S
H333 C323 0.930 . S
H334 C324 0.930 . S
H335 C325 0.930 . S
Eu336 N367 2.657 . S
Eu336 N374 2.609 . S
Eu336 O380 2.558 . S
Eu336 O381 2.612 . S
Eu336 O383 2.339 . S
Eu336 O384 2.563 . S
Eu336 O385 2.419 . S
Eu336 O387 2.380 . S
Eu336 O388 2.432 . S
Eu336 C400 2.848 . S
C337 C340 1.429 . S
C337 C341 1.411 . S
C337 N344 1.377 . S
C338 C340 1.420 . S
C338 C342 1.423 . S
C338 C350 1.392 . S
C339 C341 1.420 . S
C339 C342 1.351 . S
C339 H362 0.931 . S
C340 C337 1.429 . S
C340 C338 1.420 . S
C340 N348 1.362 . S
C341 C337 1.411 . S
C341 C339 1.420 . S
C341 C346 1.395 1_554 S
C342 C338 1.423 . S
C342 C339 1.351 . S
C342 H354 0.930 . S
C343 C345 1.400 . S
C343 C346 1.386 . S
C343 H355 0.930 . S
N344 C337 1.377 . S
N344 C345 1.321 1_554 S
N344 Eu347 2.609 . S
C345 C343 1.400 . S
C345 N344 1.321 1_556 S
C345 H352 0.930 . S
C346 C341 1.395 1_556 S
C346 C343 1.386 . S
C346 H365 0.930 . S
Eu347 N344 2.609 . S
Eu347 N348 2.657 . S
Eu347 O381 2.380 . S
Eu347 O382 2.432 . S
Eu347 O386 2.558 1_554 S
Eu347 O387 2.612 . S
Eu347 O389 2.339 . S
Eu347 O390 2.563 . S
Eu347 O391 2.419 . S
Eu347 C411 2.848 1_554 S
N348 C340 1.362 . S
N348 Eu347 2.657 . S
N348 C349 1.334 . S
C349 N348 1.334 . S
C349 C351 1.413 . S
C349 H356 0.929 . S
C350 C338 1.392 . S
C350 C351 1.367 . S
C350 H358 0.930 . S
C351 C349 1.413 . S
C351 C350 1.367 . S
C351 H353 0.930 . S
H352 C345 0.930 . S
H353 C351 0.930 . S
H354 C342 0.930 . S
H355 C343 0.930 . S
H356 C349 0.929 . S
H357 C371 0.930 1_556 S
H358 C350 0.930 . S
H359 C377 0.930 . S
H360 C368 0.929 . S
H361 C375 0.930 . S
H362 C339 0.931 . S
H363 C369 0.930 . S
H364 C402 0.930 . S
H365 C346 0.930 . S
H366 C401 0.931 . S
N367 Eu336 2.657 . S
N367 C368 1.334 . S
N367 C372 1.362 . S
C368 H360 0.929 . S
C368 N367 1.334 . S
C368 C371 1.413 . S
C369 H363 0.930 . S
C369 C370 1.392 . S
C369 C371 1.367 . S
C370 C369 1.392 . S
C370 C372 1.420 . S
C370 C402 1.423 . S
C371 H357 0.930 1_554 S
C371 C368 1.413 . S
C371 C369 1.367 . S
C372 N367 1.362 . S
C372 C370 1.420 . S
C372 C376 1.429 . S
H373 C378 0.930 . S
N374 Eu336 2.609 . S
N374 C376 1.377 . S
N374 C377 1.321 . S
C375 H361 0.930 . S
C375 C377 1.400 . S
C375 C378 1.386 . S
C376 C372 1.429 . S
C376 N374 1.377 . S
C376 C379 1.411 . S
C377 H359 0.930 . S
C377 N374 1.321 . S
C377 C375 1.400 . S
C378 H373 0.930 . S
C378 C375 1.386 . S
C378 C379 1.395 . S
C379 C376 1.411 . S
C379 C378 1.395 . S
C379 C401 1.420 . S
O380 Eu336 2.558 . S
O380 C400 1.257 . S
O381 Eu336 2.612 . S
O381 Eu347 2.380 . S
O381 C392 1.276 . S
O382 Eu347 2.432 . S
O382 C399 1.264 . S
O383 Eu336 2.339 . S
O383 C399 1.254 . S
O384 Eu336 2.563 . S
O384 C392 1.235 . S
O385 Eu336 2.419 . S
O385 C400 1.249 . S
O386 Eu347 2.558 1_556 S
O386 C411 1.257 . S
O387 Eu336 2.380 . S
O387 Eu347 2.612 . S
O387 C403 1.276 . S
O388 Eu336 2.432 . S
O388 C410 1.264 . S
O389 Eu347 2.339 . S
O389 C410 1.254 . S
O390 Eu347 2.563 . S
O390 C403 1.235 . S
O391 Eu347 2.419 . S
O391 C411 1.249 1_554 S
C392 O381 1.276 . S
C392 O384 1.235 . S
C393 C395 1.393 . S
C393 C397 1.395 . S
C393 C400 1.492 . S
C394 C395 1.392 . S
C394 C396 1.386 . S
C395 C393 1.393 . S
C395 C394 1.392 . S
C395 H412 0.930 . S
C396 C394 1.386 . S
C396 C398 1.395 . S
C396 H413 0.930 . S
C397 C393 1.395 . S
C397 C398 1.379 . S
C397 H414 0.930 . S
C398 C396 1.395 . S
C398 C397 1.379 . S
C398 H415 0.930 . S
C399 O382 1.264 . S
C399 O383 1.254 . S
C400 Eu336 2.848 . S
C400 O380 1.257 . S
C400 O385 1.249 . S
C400 C393 1.492 . S
C401 H366 0.931 . S
C401 C379 1.420 . S
C401 C402 1.351 . S
C402 H364 0.930 . S
C402 C370 1.423 . S
C402 C401 1.351 . S
C403 O387 1.276 . S
C403 O390 1.235 . S
C404 C405 1.393 . S
C404 C408 1.395 . S
C404 C411 1.492 . S
C405 C404 1.393 . S
C405 C406 1.392 . S
C405 H416 0.930 . S
C406 C405 1.392 . S
C406 C407 1.386 . S
C407 C406 1.386 . S
C407 C409 1.395 . S
C407 H417 0.930 . S
C408 C404 1.395 . S
C408 C409 1.379 . S
C408 H418 0.930 . S
C409 C407 1.395 . S
C409 C408 1.379 . S
C409 H419 0.930 . S
C410 O388 1.264 . S
C410 O389 1.254 . S
C411 Eu347 2.848 1_556 S
C411 O386 1.257 . S
C411 O391 1.249 1_556 S
C411 C404 1.492 . S
H412 C395 0.930 . S
H413 C396 0.930 . S
H414 C397 0.930 . S
H415 C398 0.930 . S
H416 C405 0.930 . S
H417 C407 0.930 . S
H418 C408 0.930 . S
H419 C409 0.930 . S
Eu420 N451 2.657 . S
Eu420 N458 2.609 1_455 S
Eu420 O464 2.558 . S
Eu420 O465 2.612 . S
Eu420 O467 2.339 . S
Eu420 O468 2.563 . S
Eu420 O469 2.419 . S
Eu420 O471 2.380 1_455 S
Eu420 O472 2.432 1_455 S
Eu420 C484 2.848 . S
C421 C424 1.429 . S
C421 C425 1.411 . S
C421 N428 1.377 . S
C422 C424 1.420 . S
C422 C426 1.423 . S
C422 C434 1.392 1_455 S
C423 C425 1.420 . S
C423 C426 1.351 . S
C423 H446 0.931 . S
C424 C421 1.429 . S
C424 C422 1.420 . S
C424 N432 1.362 1_455 S
C425 C421 1.411 . S
C425 C423 1.420 . S
C425 C430 1.395 . S
C426 C422 1.423 . S
C426 C423 1.351 . S
C426 H438 0.930 . S
C427 C429 1.400 . S
C427 C430 1.386 . S
C427 H439 0.930 . S
N428 C421 1.377 . S
N428 C429 1.321 . S
N428 Eu431 2.609 1_455 S
C429 C427 1.400 . S
C429 N428 1.321 . S
C429 H436 0.930 . S
C430 C425 1.395 . S
C430 C427 1.386 . S
C430 H449 0.930 . S
Eu431 N428 2.609 1_655 S
Eu431 N432 2.657 . S
Eu431 O465 2.380 1_655 S
Eu431 O466 2.432 1_655 S
Eu431 O470 2.558 . S
Eu431 O471 2.612 . S
Eu431 O473 2.339 . S
Eu431 O474 2.563 . S
Eu431 O475 2.419 . S
Eu431 C495 2.848 . S
N432 C424 1.362 1_655 S
N432 Eu431 2.657 . S
N432 C433 1.334 . S
C433 N432 1.334 . S
C433 C435 1.413 . S
C433 H440 0.929 . S
C434 C422 1.392 1_655 S
C434 C435 1.367 . S
C434 H442 0.934 1_655 S
C435 C433 1.413 . S
C435 C434 1.367 . S
C435 H437 0.930 . S
H436 C429 0.930 . S
H437 C435 0.930 . S
H438 C426 0.930 . S
H439 C427 0.930 . S
H440 C433 0.929 . S
H441 C455 0.930 . S
H442 C434 0.934 1_455 S
H443 C461 0.930 . S
H444 C452 0.929 . S
H445 C459 0.930 . S
H446 C423 0.931 . S
H447 C453 0.932 1_655 S
H448 C486 0.930 . S
H449 C430 0.930 . S
H450 C485 0.931 . S
N451 Eu420 2.657 . S
N451 C452 1.334 . S
N451 C456 1.362 1_455 S
C452 H444 0.929 . S
C452 N451 1.334 . S
C452 C455 1.413 . S
C453 H447 0.932 1_455 S
C453 C454 1.392 1_455 S
C453 C455 1.367 . S
C454 C453 1.392 1_655 S
C454 C456 1.420 . S
C454 C486 1.423 . S
C455 H441 0.930 . S
C455 C452 1.413 . S
C455 C453 1.367 . S
C456 N451 1.362 1_655 S
C456 C454 1.420 . S
C456 C460 1.429 . S
H457 C462 0.930 . S
N458 Eu420 2.609 1_655 S
N458 C460 1.377 . S
N458 C461 1.321 . S
C459 H445 0.930 . S
C459 C461 1.400 . S
C459 C462 1.386 . S
C460 C456 1.429 . S
C460 N458 1.377 . S
C460 C463 1.411 . S
C461 H443 0.930 . S
C461 N458 1.321 . S
C461 C459 1.400 . S
C462 H457 0.930 . S
C462 C459 1.386 . S
C462 C463 1.395 . S
C463 C460 1.411 . S
C463 C462 1.395 . S
C463 C485 1.420 . S
O464 Eu420 2.558 . S
O464 C484 1.257 . S
O465 Eu420 2.612 . S
O465 Eu431 2.380 1_455 S
O465 C476 1.276 . S
O466 Eu431 2.432 1_455 S
O466 C483 1.264 . S
O467 Eu420 2.339 . S
O467 C483 1.254 . S
O468 Eu420 2.563 . S
O468 C476 1.235 . S
O469 Eu420 2.419 . S
O469 C484 1.249 . S
O470 Eu431 2.558 . S
O470 C495 1.257 . S
O471 Eu420 2.380 1_655 S
O471 Eu431 2.612 . S
O471 C487 1.276 . S
O472 Eu420 2.432 1_655 S
O472 C494 1.264 . S
O473 Eu431 2.339 . S
O473 C494 1.254 . S
O474 Eu431 2.563 . S
O474 C487 1.235 . S
O475 Eu431 2.419 . S
O475 C495 1.249 . S
C476 O465 1.276 . S
C476 O468 1.235 . S
C477 C479 1.393 . S
C477 C481 1.395 . S
C477 C484 1.492 . S
C478 C479 1.392 . S
C478 C480 1.386 . S
C479 C477 1.393 . S
C479 C478 1.392 . S
C479 H496 0.930 . S
C480 C478 1.386 . S
C480 C482 1.395 . S
C480 H497 0.930 . S
C481 C477 1.395 . S
C481 C482 1.379 . S
C481 H498 0.930 . S
C482 C480 1.395 . S
C482 C481 1.379 . S
C482 H499 0.930 . S
C483 O466 1.264 . S
C483 O467 1.254 . S
C484 Eu420 2.848 . S
C484 O464 1.257 . S
C484 O469 1.249 . S
C484 C477 1.492 . S
C485 H450 0.931 . S
C485 C463 1.420 . S
C485 C486 1.351 . S
C486 H448 0.930 . S
C486 C454 1.423 . S
C486 C485 1.351 . S
C487 O471 1.276 . S
C487 O474 1.235 . S
C488 C489 1.393 . S
C488 C492 1.395 . S
C488 C495 1.492 . S
C489 C488 1.393 . S
C489 C490 1.392 . S
C489 H500 0.930 . S
C490 C489 1.392 . S
C490 C491 1.386 . S
C491 C490 1.386 . S
C491 C493 1.395 . S
C491 H501 0.930 . S
C492 C488 1.395 . S
C492 C493 1.379 . S
C492 H502 0.930 . S
C493 C491 1.395 . S
C493 C492 1.379 . S
C493 H503 0.930 . S
C494 O472 1.264 . S
C494 O473 1.254 . S
C495 Eu431 2.848 . S
C495 O470 1.257 . S
C495 O475 1.249 . S
C495 C488 1.492 . S
H496 C479 0.930 . S
H497 C480 0.930 . S
H498 C481 0.930 . S
H499 C482 0.930 . S
H500 C489 0.930 . S
H501 C491 0.930 . S
H502 C492 0.930 . S
H503 C493 0.930 . S
Eu504 N535 2.657 . S
Eu504 N542 2.609 1_655 S
Eu504 O548 2.558 . S
Eu504 O549 2.612 . S
Eu504 O551 2.339 . S
Eu504 O552 2.563 . S
Eu504 O553 2.419 . S
Eu504 O555 2.380 1_655 S
Eu504 O556 2.432 1_655 S
Eu504 C568 2.848 . S
C505 C508 1.429 . S
C505 C509 1.411 . S
C505 N512 1.377 . S
C506 C508 1.420 . S
C506 C510 1.423 . S
C506 C518 1.392 . S
C507 C509 1.420 . S
C507 C510 1.351 . S
C507 H530 0.931 . S
C508 C505 1.429 . S
C508 C506 1.420 . S
C508 N516 1.362 1_655 S
C509 C505 1.411 . S
C509 C507 1.420 . S
C509 C514 1.395 . S
C510 C506 1.423 . S
C510 C507 1.351 . S
C510 H522 0.930 . S
C511 C513 1.400 . S
C511 C514 1.386 . S
C511 H523 0.930 . S
N512 C505 1.377 . S
N512 C513 1.321 . S
N512 Eu515 2.609 1_655 S
C513 C511 1.400 . S
C513 N512 1.321 . S
C513 H520 0.930 . S
C514 C509 1.395 . S
C514 C511 1.386 . S
C514 H533 0.930 . S
Eu515 N512 2.609 1_455 S
Eu515 N516 2.657 . S
Eu515 O549 2.380 1_455 S
Eu515 O550 2.432 1_455 S
Eu515 O554 2.558 . S
Eu515 O555 2.612 . S
Eu515 O557 2.339 . S
Eu515 O558 2.563 . S
Eu515 O559 2.419 . S
Eu515 C579 2.848 . S
N516 C508 1.362 1_455 S
N516 Eu515 2.657 . S
N516 C517 1.334 . S
C517 N516 1.334 . S
C517 C519 1.413 . S
C517 H524 0.929 . S
C518 C506 1.392 . S
C518 C519 1.367 1_655 S
C518 H526 0.930 . S
C519 C517 1.413 . S
C519 C518 1.367 1_455 S
C519 H521 0.930 . S
H520 C513 0.930 . S
H521 C519 0.930 . S
H522 C510 0.930 . S
H523 C511 0.930 . S
H524 C517 0.929 . S
H525 C539 0.930 . S
H526 C518 0.930 . S
H527 C545 0.930 . S
H528 C536 0.929 . S
H529 C543 0.930 . S
H530 C507 0.931 . S
H531 C537 0.930 . S
H532 C570 0.930 . S
H533 C514 0.930 . S
H534 C569 0.931 . S
N535 Eu504 2.657 . S
N535 C536 1.334 . S
N535 C540 1.362 1_655 S
C536 H528 0.929 . S
C536 N535 1.334 . S
C536 C539 1.413 . S
C537 H531 0.930 . S
C537 C538 1.392 . S
C537 C539 1.367 1_455 S
C538 C537 1.392 . S
C538 C540 1.420 . S
C538 C570 1.423 . S
C539 H525 0.930 . S
C539 C536 1.413 . S
C539 C537 1.367 1_655 S
C540 N535 1.362 1_455 S
C540 C538 1.420 . S
C540 C544 1.429 . S
H541 C546 0.930 . S
N542 Eu504 2.609 1_455 S
N542 C544 1.377 . S
N542 C545 1.321 . S
C543 H529 0.930 . S
C543 C545 1.400 . S
C543 C546 1.386 . S
C544 C540 1.429 . S
C544 N542 1.377 . S
C544 C547 1.411 . S
C545 H527 0.930 . S
C545 N542 1.321 . S
C545 C543 1.400 . S
C546 H541 0.930 . S
C546 C543 1.386 . S
C546 C547 1.395 . S
C547 C544 1.411 . S
C547 C546 1.395 . S
C547 C569 1.420 . S
O548 Eu504 2.558 . S
O548 C568 1.257 . S
O549 Eu504 2.612 . S
O549 Eu515 2.380 1_655 S
O549 C560 1.276 . S
O550 Eu515 2.432 1_655 S
O550 C567 1.264 . S
O551 Eu504 2.339 . S
O551 C567 1.254 . S
O552 Eu504 2.563 . S
O552 C560 1.235 . S
O553 Eu504 2.419 . S
O553 C568 1.249 . S
O554 Eu515 2.558 . S
O554 C579 1.257 . S
O555 Eu504 2.380 1_455 S
O555 Eu515 2.612 . S
O555 C571 1.276 . S
O556 Eu504 2.432 1_455 S
O556 C578 1.264 . S
O557 Eu515 2.339 . S
O557 C578 1.254 . S
O558 Eu515 2.563 . S
O558 C571 1.235 . S
O559 Eu515 2.419 . S
O559 C579 1.249 . S
C560 O549 1.276 . S
C560 O552 1.235 . S
C561 C563 1.393 . S
C561 C565 1.395 . S
C561 C568 1.492 . S
C562 C563 1.392 . S
C562 C564 1.386 . S
C563 C561 1.393 . S
C563 C562 1.392 . S
C563 H580 0.930 . S
C564 C562 1.386 . S
C564 C566 1.395 . S
C564 H581 0.930 . S
C565 C561 1.395 . S
C565 C566 1.379 . S
C565 H582 0.930 . S
C566 C564 1.395 . S
C566 C565 1.379 . S
C566 H583 0.930 . S
C567 O550 1.264 . S
C567 O551 1.254 . S
C568 Eu504 2.848 . S
C568 O548 1.257 . S
C568 O553 1.249 . S
C568 C561 1.492 . S
C569 H534 0.931 . S
C569 C547 1.420 . S
C569 C570 1.351 . S
C570 H532 0.930 . S
C570 C538 1.423 . S
C570 C569 1.351 . S
C571 O555 1.276 . S
C571 O558 1.235 . S
C572 C573 1.393 . S
C572 C576 1.395 . S
C572 C579 1.492 . S
C573 C572 1.393 . S
C573 C574 1.392 . S
C573 H584 0.930 . S
C574 C573 1.392 . S
C574 C575 1.386 . S
C575 C574 1.386 . S
C575 C577 1.395 . S
C575 H585 0.930 . S
C576 C572 1.395 . S
C576 C577 1.379 . S
C576 H586 0.930 . S
C577 C575 1.395 . S
C577 C576 1.379 . S
C577 H587 0.930 . S
C578 O556 1.264 . S
C578 O557 1.254 . S
C579 Eu515 2.848 . S
C579 O554 1.257 . S
C579 O559 1.249 . S
C579 C572 1.492 . S
H580 C563 0.930 . S
H581 C564 0.930 . S
H582 C565 0.930 . S
H583 C566 0.930 . S
H584 C573 0.930 . S
H585 C575 0.930 . S
H586 C576 0.930 . S
H587 C577 0.930 . S
Eu588 N619 2.657 . S
Eu588 N626 2.609 1_565 S
Eu588 O632 2.558 . S
Eu588 O633 2.612 . S
Eu588 O635 2.339 . S
Eu588 O636 2.563 . S
Eu588 O637 2.419 . S
Eu588 O639 2.380 1_565 S
Eu588 O640 2.432 1_565 S
Eu588 C652 2.848 . S
C589 C592 1.429 . S
C589 C593 1.411 . S
C589 N596 1.377 . S
C590 C592 1.420 . S
C590 C594 1.423 . S
C590 C602 1.392 1_565 S
C591 C593 1.420 . S
C591 C594 1.351 . S
C591 H614 0.931 . S
C592 C589 1.429 . S
C592 C590 1.420 . S
C592 N600 1.362 1_565 S
C593 C589 1.411 . S
C593 C591 1.420 . S
C593 C598 1.395 . S
C594 C590 1.423 . S
C594 C591 1.351 . S
C594 H606 0.930 . S
C595 C597 1.400 . S
C595 C598 1.386 . S
C595 H607 0.930 . S
N596 C589 1.377 . S
N596 C597 1.321 . S
N596 Eu599 2.609 1_565 S
C597 C595 1.400 . S
C597 N596 1.321 . S
C597 H604 0.930 . S
C598 C593 1.395 . S
C598 C595 1.386 . S
C598 H617 0.930 . S
Eu599 N596 2.609 1_545 S
Eu599 N600 2.657 . S
Eu599 O633 2.380 1_545 S
Eu599 O634 2.432 1_545 S
Eu599 O638 2.558 . S
Eu599 O639 2.612 . S
Eu599 O641 2.339 . S
Eu599 O642 2.563 . S
Eu599 O643 2.419 . S
Eu599 C663 2.848 . S
N600 C592 1.362 1_545 S
N600 Eu599 2.657 . S
N600 C601 1.334 . S
C601 N600 1.334 . S
C601 C603 1.413 . S
C601 H608 0.929 . S
C602 C590 1.392 1_545 S
C602 C603 1.367 . S
C602 H610 0.934 1_545 S
C603 C601 1.413 . S
C603 C602 1.367 . S
C603 H605 0.930 . S
H604 C597 0.930 . S
H605 C603 0.930 . S
H606 C594 0.930 . S
H607 C595 0.930 . S
H608 C601 0.929 . S
H609 C623 0.930 . S
H610 C602 0.934 1_565 S
H611 C629 0.930 . S
H612 C620 0.929 . S
H613 C627 0.930 . S
H614 C591 0.931 . S
H615 C621 0.932 1_545 S
H616 C654 0.930 . S
H617 C598 0.930 . S
H618 C653 0.931 . S
N619 Eu588 2.657 . S
N619 C620 1.334 . S
N619 C624 1.362 1_565 S
C620 H612 0.929 . S
C620 N619 1.334 . S
C620 C623 1.413 . S
C621 H615 0.932 1_565 S
C621 C622 1.392 1_565 S
C621 C623 1.367 . S
C622 C621 1.392 1_545 S
C622 C624 1.420 . S
C622 C654 1.423 . S
C623 H609 0.930 . S
C623 C620 1.413 . S
C623 C621 1.367 . S
C624 N619 1.362 1_545 S
C624 C622 1.420 . S
C624 C628 1.429 . S
H625 C630 0.930 . S
N626 Eu588 2.609 1_545 S
N626 C628 1.377 . S
N626 C629 1.321 . S
C627 H613 0.930 . S
C627 C629 1.400 . S
C627 C630 1.386 . S
C628 C624 1.429 . S
C628 N626 1.377 . S
C628 C631 1.411 . S
C629 H611 0.930 . S
C629 N626 1.321 . S
C629 C627 1.400 . S
C630 H625 0.930 . S
C630 C627 1.386 . S
C630 C631 1.395 . S
C631 C628 1.411 . S
C631 C630 1.395 . S
C631 C653 1.420 . S
O632 Eu588 2.558 . S
O632 C652 1.257 . S
O633 Eu588 2.612 . S
O633 Eu599 2.380 1_565 S
O633 C644 1.276 . S
O634 Eu599 2.432 1_565 S
O634 C651 1.264 . S
O635 Eu588 2.339 . S
O635 C651 1.254 . S
O636 Eu588 2.563 . S
O636 C644 1.235 . S
O637 Eu588 2.419 . S
O637 C652 1.249 . S
O638 Eu599 2.558 . S
O638 C663 1.257 . S
O639 Eu588 2.380 1_545 S
O639 Eu599 2.612 . S
O639 C655 1.276 . S
O640 Eu588 2.432 1_545 S
O640 C662 1.264 . S
O641 Eu599 2.339 . S
O641 C662 1.254 . S
O642 Eu599 2.563 . S
O642 C655 1.235 . S
O643 Eu599 2.419 . S
O643 C663 1.249 . S
C644 O633 1.276 . S
C644 O636 1.235 . S
C645 C647 1.393 . S
C645 C649 1.395 . S
C645 C652 1.492 . S
C646 C647 1.392 . S
C646 C648 1.386 . S
C647 C645 1.393 . S
C647 C646 1.392 . S
C647 H664 0.930 . S
C648 C646 1.386 . S
C648 C650 1.395 . S
C648 H665 0.930 . S
C649 C645 1.395 . S
C649 C650 1.379 . S
C649 H666 0.930 . S
C650 C648 1.395 . S
C650 C649 1.379 . S
C650 H667 0.930 . S
C651 O634 1.264 . S
C651 O635 1.254 . S
C652 Eu588 2.848 . S
C652 O632 1.257 . S
C652 O637 1.249 . S
C652 C645 1.492 . S
C653 H618 0.931 . S
C653 C631 1.420 . S
C653 C654 1.351 . S
C654 H616 0.930 . S
C654 C622 1.423 . S
C654 C653 1.351 . S
C655 O639 1.276 . S
C655 O642 1.235 . S
C656 C657 1.393 . S
C656 C660 1.395 . S
C656 C663 1.492 . S
C657 C656 1.393 . S
C657 C658 1.392 . S
C657 H668 0.930 . S
C658 C657 1.392 . S
C658 C659 1.386 . S
C659 C658 1.386 . S
C659 C661 1.395 . S
C659 H669 0.930 . S
C660 C656 1.395 . S
C660 C661 1.379 . S
C660 H670 0.930 . S
C661 C659 1.395 . S
C661 C660 1.379 . S
C661 H671 0.930 . S
C662 O640 1.264 . S
C662 O641 1.254 . S
C663 Eu599 2.848 . S
C663 O638 1.257 . S
C663 O643 1.249 . S
C663 C656 1.492 . S
H664 C647 0.930 . S
H665 C648 0.930 . S
H666 C649 0.930 . S
H667 C650 0.930 . S
H668 C657 0.930 . S
H669 C659 0.930 . S
H670 C660 0.930 . S
H671 C661 0.930 . S
Eu672 N703 2.657 . S
Eu672 N710 2.609 . S
Eu672 O716 2.558 . S
Eu672 O717 2.612 . S
Eu672 O719 2.339 . S
Eu672 O720 2.563 . S
Eu672 O721 2.419 . S
Eu672 O723 2.380 . S
Eu672 O724 2.432 . S
Eu672 C736 2.848 . S
C673 C676 1.429 . S
C673 C677 1.411 . S
C673 N680 1.377 . S
C674 C676 1.420 . S
C674 C678 1.423 . S
C674 C686 1.392 . S
C675 C677 1.420 . S
C675 C678 1.351 . S
C675 H698 0.931 . S
C676 C673 1.429 . S
C676 C674 1.420 . S
C676 N684 1.362 . S
C677 C673 1.411 . S
C677 C675 1.420 . S
C677 C682 1.395 . S
C678 C674 1.423 . S
C678 C675 1.351 . S
C678 H690 0.930 . S
C679 C681 1.400 . S
C679 C682 1.386 . S
C679 H691 0.930 . S
N680 C673 1.377 . S
N680 C681 1.321 . S
N680 Eu683 2.609 . S
C681 C679 1.400 . S
C681 N680 1.321 . S
C681 H688 0.930 . S
C682 C677 1.395 . S
C682 C679 1.386 . S
C682 H701 0.930 . S
Eu683 N680 2.609 . S
Eu683 N684 2.657 . S
Eu683 O717 2.380 . S
Eu683 O718 2.432 . S
Eu683 O722 2.558 . S
Eu683 O723 2.612 . S
Eu683 O725 2.339 . S
Eu683 O726 2.563 . S
Eu683 O727 2.419 . S
Eu683 C747 2.848 . S
N684 C676 1.362 . S
N684 Eu683 2.657 . S
N684 C685 1.334 . S
C685 N684 1.334 . S
C685 C687 1.413 . S
C685 H692 0.929 . S
C686 C674 1.392 . S
C686 C687 1.367 . S
C686 H694 0.930 . S
C687 C685 1.413 . S
C687 C686 1.367 . S
C687 H689 0.930 . S
H688 C681 0.930 . S
H689 C687 0.930 . S
H690 C678 0.930 . S
H691 C679 0.930 . S
H692 C685 0.929 . S
H693 C707 0.930 . S
H694 C686 0.930 . S
H695 C713 0.930 . S
H696 C704 0.929 . S
H697 C711 0.930 . S
H698 C675 0.931 . S
H699 C705 0.930 . S
H700 C738 0.930 . S
H701 C682 0.930 . S
H702 C737 0.931 . S
N703 Eu672 2.657 . S
N703 C704 1.334 . S
N703 C708 1.362 . S
C704 H696 0.929 . S
C704 N703 1.334 . S
C704 C707 1.413 . S
C705 H699 0.930 . S
C705 C706 1.392 . S
C705 C707 1.367 . S
C706 C705 1.392 . S
C706 C708 1.420 . S
C706 C738 1.423 . S
C707 H693 0.930 . S
C707 C704 1.413 . S
C707 C705 1.367 . S
C708 N703 1.362 . S
C708 C706 1.420 . S
C708 C712 1.429 . S
H709 C714 0.930 . S
N710 Eu672 2.609 . S
N710 C712 1.377 . S
N710 C713 1.321 . S
C711 H697 0.930 . S
C711 C713 1.400 . S
C711 C714 1.386 . S
C712 C708 1.429 . S
C712 N710 1.377 . S
C712 C715 1.411 . S
C713 H695 0.930 . S
C713 N710 1.321 . S
C713 C711 1.400 . S
C714 H709 0.930 . S
C714 C711 1.386 . S
C714 C715 1.395 . S
C715 C712 1.411 . S
C715 C714 1.395 . S
C715 C737 1.420 . S
O716 Eu672 2.558 . S
O716 C736 1.257 . S
O717 Eu672 2.612 . S
O717 Eu683 2.380 . S
O717 C728 1.276 . S
O718 Eu683 2.432 . S
O718 C735 1.264 . S
O719 Eu672 2.339 . S
O719 C735 1.254 . S
O720 Eu672 2.563 . S
O720 C728 1.235 . S
O721 Eu672 2.419 . S
O721 C736 1.249 . S
O722 Eu683 2.558 . S
O722 C747 1.257 . S
O723 Eu672 2.380 . S
O723 Eu683 2.612 . S
O723 C739 1.276 . S
O724 Eu672 2.432 . S
O724 C746 1.264 . S
O725 Eu683 2.339 . S
O725 C746 1.254 . S
O726 Eu683 2.563 . S
O726 C739 1.235 . S
O727 Eu683 2.419 . S
O727 C747 1.249 . S
C728 O717 1.276 . S
C728 O720 1.235 . S
C729 C731 1.393 . S
C729 C733 1.395 . S
C729 C736 1.492 . S
C730 C731 1.392 . S
C730 C732 1.386 . S
C731 C729 1.393 . S
C731 C730 1.392 . S
C731 H748 0.930 . S
C732 C730 1.386 . S
C732 C734 1.395 . S
C732 H749 0.930 . S
C733 C729 1.395 . S
C733 C734 1.379 . S
C733 H750 0.930 . S
C734 C732 1.395 . S
C734 C733 1.379 . S
C734 H751 0.930 . S
C735 O718 1.264 . S
C735 O719 1.254 . S
C736 Eu672 2.848 . S
C736 O716 1.257 . S
C736 O721 1.249 . S
C736 C729 1.492 . S
C737 H702 0.931 . S
C737 C715 1.420 . S
C737 C738 1.351 . S
C738 H700 0.930 . S
C738 C706 1.423 . S
C738 C737 1.351 . S
C739 O723 1.276 . S
C739 O726 1.235 . S
C740 C741 1.393 . S
C740 C744 1.395 . S
C740 C747 1.492 . S
C741 C740 1.393 . S
C741 C742 1.392 . S
C741 H752 0.930 . S
C742 C741 1.392 . S
C742 C743 1.386 . S
C743 C742 1.386 . S
C743 C745 1.395 . S
C743 H753 0.930 . S
C744 C740 1.395 . S
C744 C745 1.379 . S
C744 H754 0.930 . S
C745 C743 1.395 . S
C745 C744 1.379 . S
C745 H755 0.930 . S
C746 O724 1.264 . S
C746 O725 1.254 . S
C747 Eu683 2.848 . S
C747 O722 1.257 . S
C747 O727 1.249 . S
C747 C740 1.492 . S
H748 C731 0.930 . S
H749 C732 0.930 . S
H750 C733 0.930 . S
H751 C734 0.930 . S
H752 C741 0.930 . S
H753 C743 0.930 . S
H754 C744 0.930 . S
H755 C745 0.930 . S
Eu756 N787 2.657 . S
Eu756 N794 2.609 1_455 S
Eu756 O800 2.558 . S
Eu756 O801 2.612 . S
Eu756 O803 2.339 . S
Eu756 O804 2.563 . S
Eu756 O805 2.419 . S
Eu756 O807 2.380 1_455 S
Eu756 O808 2.432 1_455 S
Eu756 C820 2.848 . S
C757 C760 1.429 . S
C757 C761 1.411 . S
C757 N764 1.377 . S
C758 C760 1.420 . S
C758 C762 1.423 . S
C758 C770 1.392 . S
C759 C761 1.420 . S
C759 C762 1.351 . S
C759 H782 0.931 . S
C760 C757 1.429 . S
C760 C758 1.420 . S
C760 N768 1.362 1_455 S
C761 C757 1.411 . S
C761 C759 1.420 . S
C761 C766 1.395 1_556 S
C762 C758 1.423 . S
C762 C759 1.351 . S
C762 H774 0.930 . S
C763 C765 1.400 . S
C763 C766 1.386 . S
C763 H775 0.930 . S
N764 C757 1.377 . S
N764 C765 1.321 1_556 S
N764 Eu767 2.609 1_455 S
C765 C763 1.400 . S
C765 N764 1.321 1_554 S
C765 H772 0.930 . S
C766 C761 1.395 1_554 S
C766 C763 1.386 . S
C766 H785 0.930 . S
Eu767 N764 2.609 1_655 S
Eu767 N768 2.657 . S
Eu767 O801 2.380 1_655 S
Eu767 O802 2.457 1_655 S
Eu767 O806 2.558 1_556 S
Eu767 O807 2.612 . S
Eu767 O809 2.339 . S
Eu767 O810 2.563 1_556 S
Eu767 O811 2.419 . S
Eu767 C831 2.848 1_556 S
N768 C760 1.362 1_655 S
N768 Eu767 2.657 . S
N768 C769 1.334 . S
C769 N768 1.334 . S
C769 C771 1.413 . S
C769 H776 0.929 . S
C770 C758 1.392 . S
C770 C771 1.367 1_455 S
C770 H778 0.930 . S
C771 C769 1.413 . S
C771 C770 1.367 1_655 S
C771 H773 0.930 . S
H772 C765 0.930 . S
H773 C771 0.930 . S
H774 C762 0.930 . S
H775 C763 0.930 . S
H776 C769 0.929 . S
H777 C791 0.927 . S
H778 C770 0.930 . S
H779 C797 0.930 . S
H780 C788 0.929 . S
H781 C795 0.930 . S
H782 C759 0.931 . S
H783 C789 0.896 1_554 S
H784 C822 0.930 . S
H785 C766 0.930 . S
H786 C821 0.931 . S
N787 Eu756 2.657 . S
N787 C788 1.334 . S
N787 C792 1.362 1_455 S
C788 H780 0.929 . S
C788 N787 1.334 . S
C788 C791 1.416 1_556 S
C789 H783 0.896 1_556 S
C789 C790 1.392 . S
C789 C791 1.369 1_656 S
C790 C789 1.392 . S
C790 C792 1.420 . S
C790 C822 1.423 . S
C791 H777 0.927 . S
C791 C788 1.416 1_554 S
C791 C789 1.369 1_454 S
C792 N787 1.362 1_655 S
C792 C790 1.420 . S
C792 C796 1.429 . S
H793 C798 0.930 . S
N794 Eu756 2.609 1_655 S
N794 C796 1.377 . S
N794 C797 1.321 . S
C795 H781 0.930 . S
C795 C797 1.400 . S
C795 C798 1.386 . S
C796 C792 1.429 . S
C796 N794 1.377 . S
C796 C799 1.411 . S
C797 H779 0.930 . S
C797 N794 1.321 . S
C797 C795 1.400 . S
C798 H793 0.930 . S
C798 C795 1.386 . S
C798 C799 1.395 . S
C799 C796 1.411 . S
C799 C798 1.395 . S
C799 C821 1.420 . S
O800 Eu756 2.558 . S
O800 C820 1.257 . S
O801 Eu756 2.612 . S
O801 Eu767 2.380 1_455 S
O801 C812 1.276 . S
O802 Eu767 2.457 1_455 S
O802 C819 1.303 . S
O803 Eu756 2.339 . S
O803 C819 1.254 . S
O804 Eu756 2.563 . S
O804 C812 1.235 . S
O805 Eu756 2.419 . S
O805 C820 1.249 . S
O806 Eu767 2.558 1_554 S
O806 C831 1.257 . S
O807 Eu756 2.380 1_655 S
O807 Eu767 2.612 . S
O807 C823 1.276 . S
O808 Eu756 2.432 1_655 S
O808 C830 1.264 . S
O809 Eu767 2.339 . S
O809 C830 1.254 . S
O810 Eu767 2.563 1_554 S
O810 C823 1.235 1_554 S
O811 Eu767 2.419 . S
O811 C831 1.249 1_556 S
C812 O801 1.276 . S
C812 O804 1.235 . S
C813 C815 1.393 . S
C813 C817 1.395 . S
C813 C820 1.492 . S
C814 C815 1.392 . S
C814 C816 1.386 . S
C815 C813 1.393 . S
C815 C814 1.392 . S
C815 H832 0.930 . S
C816 C814 1.386 . S
C816 C818 1.395 . S
C816 H833 0.930 . S
C817 C813 1.395 . S
C817 C818 1.379 . S
C817 H834 0.930 . S
C818 C816 1.395 . S
C818 C817 1.379 . S
C818 H835 0.930 . S
C819 O802 1.303 . S
C819 O803 1.254 . S
C820 Eu756 2.848 . S
C820 O800 1.257 . S
C820 O805 1.249 . S
C820 C813 1.492 . S
C821 H786 0.931 . S
C821 C799 1.420 . S
C821 C822 1.351 . S
C822 H784 0.930 . S
C822 C790 1.423 . S
C822 C821 1.351 . S
C823 O807 1.276 . S
C823 O810 1.235 1_556 S
C824 C825 1.393 . S
C824 C828 1.395 . S
C824 C831 1.492 . S
C825 C824 1.393 . S
C825 C826 1.392 . S
C825 H836 0.930 . S
C826 C825 1.392 . S
C826 C827 1.386 . S
C827 C826 1.386 . S
C827 C829 1.395 . S
C827 H837 0.930 . S
C828 C824 1.395 . S
C828 C829 1.379 . S
C828 H838 0.930 . S
C829 C827 1.395 . S
C829 C828 1.379 . S
C829 H839 0.930 . S
C830 O808 1.264 . S
C830 O809 1.254 . S
C831 Eu767 2.848 1_554 S
C831 O806 1.257 . S
C831 O811 1.249 1_554 S
C831 C824 1.492 . S
H832 C815 0.930 . S
H833 C816 0.930 . S
H834 C817 0.930 . S
H835 C818 0.930 . S
H836 C825 0.930 . S
H837 C827 0.930 . S
H838 C828 0.930 . S
H839 C829 0.930 . S
Eu840 N871 2.657 . S
Eu840 N878 2.609 1_545 S
Eu840 O884 2.558 . S
Eu840 O885 2.612 . S
Eu840 O887 2.339 . S
Eu840 O888 2.563 . S
Eu840 O889 2.419 . S
Eu840 O891 2.380 1_545 S
Eu840 O892 2.432 1_545 S
Eu840 C904 2.848 . S
C841 C844 1.429 . S
C841 C845 1.411 . S
C841 N848 1.377 . S
C842 C844 1.420 . S
C842 C846 1.423 . S
C842 C854 1.392 1_545 S
C843 C845 1.420 . S
C843 C846 1.351 . S
C843 H866 0.931 . S
C844 C841 1.429 . S
C844 C842 1.420 . S
C844 N852 1.362 1_545 S
C845 C841 1.411 . S
C845 C843 1.420 . S
C845 C850 1.395 . S
C846 C842 1.423 . S
C846 C843 1.351 . S
C846 H858 0.930 . S
C847 C849 1.400 . S
C847 C850 1.386 . S
C847 H859 0.930 . S
N848 C841 1.377 . S
N848 C849 1.321 . S
N848 Eu851 2.609 1_545 S
C849 C847 1.400 . S
C849 N848 1.321 . S
C849 H856 0.930 . S
C850 C845 1.395 . S
C850 C847 1.386 . S
C850 H869 0.930 . S
Eu851 N848 2.609 1_565 S
Eu851 N852 2.657 . S
Eu851 O885 2.380 1_565 S
Eu851 O886 2.432 1_565 S
Eu851 O890 2.558 . S
Eu851 O891 2.612 . S
Eu851 O893 2.339 . S
Eu851 O894 2.563 . S
Eu851 O895 2.419 . S
Eu851 C915 2.848 . S
N852 C844 1.362 1_565 S
N852 Eu851 2.657 . S
N852 C853 1.334 . S
C853 N852 1.334 . S
C853 C855 1.413 . S
C853 H860 0.929 . S
C854 C842 1.392 1_565 S
C854 C855 1.367 . S
C854 H862 0.934 1_565 S
C855 C853 1.413 . S
C855 C854 1.367 . S
C855 H857 0.930 . S
H856 C849 0.930 . S
H857 C855 0.930 . S
H858 C846 0.930 . S
H859 C847 0.930 . S
H860 C853 0.929 . S
H861 C875 0.930 . S
H862 C854 0.934 1_545 S
H863 C881 0.930 . S
H864 C872 0.929 . S
H865 C879 0.930 . S
H866 C843 0.931 . S
H867 C873 0.932 1_565 S
H868 C906 0.930 . S
H869 C850 0.930 . S
H870 C905 0.931 . S
N871 Eu840 2.657 . S
N871 C872 1.334 . S
N871 C876 1.362 1_545 S
C872 H864 0.929 . S
C872 N871 1.334 . S
C872 C875 1.413 . S
C873 H867 0.932 1_545 S
C873 C874 1.392 1_545 S
C873 C875 1.367 . S
C874 C873 1.392 1_565 S
C874 C876 1.420 . S
C874 C906 1.423 . S
C875 H861 0.930 . S
C875 C872 1.413 . S
C875 C873 1.367 . S
C876 N871 1.362 1_565 S
C876 C874 1.420 . S
C876 C880 1.429 . S
H877 C882 0.930 . S
N878 Eu840 2.609 1_565 S
N878 C880 1.377 . S
N878 C881 1.321 . S
C879 H865 0.930 . S
C879 C881 1.400 . S
C879 C882 1.386 . S
C880 C876 1.429 . S
C880 N878 1.377 . S
C880 C883 1.411 . S
C881 H863 0.930 . S
C881 N878 1.321 . S
C881 C879 1.400 . S
C882 H877 0.930 . S
C882 C879 1.386 . S
C882 C883 1.395 . S
C883 C880 1.411 . S
C883 C882 1.395 . S
C883 C905 1.420 . S
O884 Eu840 2.558 . S
O884 C904 1.257 . S
O885 Eu840 2.612 . S
O885 Eu851 2.380 1_545 S
O885 C896 1.276 . S
O886 Eu851 2.432 1_545 S
O886 C903 1.264 . S
O887 Eu840 2.339 . S
O887 C903 1.254 . S
O888 Eu840 2.563 . S
O888 C896 1.235 . S
O889 Eu840 2.419 . S
O889 C904 1.249 . S
O890 Eu851 2.558 . S
O890 C915 1.257 . S
O891 Eu840 2.380 1_565 S
O891 Eu851 2.612 . S
O891 C907 1.276 . S
O892 Eu840 2.432 1_565 S
O892 C914 1.264 . S
O893 Eu851 2.339 . S
O893 C914 1.254 . S
O894 Eu851 2.563 . S
O894 C907 1.235 . S
O895 Eu851 2.419 . S
O895 C915 1.249 . S
C896 O885 1.276 . S
C896 O888 1.235 . S
C897 C899 1.393 . S
C897 C901 1.395 . S
C897 C904 1.492 . S
C898 C899 1.392 . S
C898 C900 1.386 . S
C899 C897 1.393 . S
C899 C898 1.392 . S
C899 H916 0.930 . S
C900 C898 1.386 . S
C900 C902 1.395 . S
C900 H917 0.930 . S
C901 C897 1.395 . S
C901 C902 1.379 . S
C901 H918 0.930 . S
C902 C900 1.395 . S
C902 C901 1.379 . S
C902 H919 0.930 . S
C903 O886 1.264 . S
C903 O887 1.254 . S
C904 Eu840 2.848 . S
C904 O884 1.257 . S
C904 O889 1.249 . S
C904 C897 1.492 . S
C905 H870 0.931 . S
C905 C883 1.420 . S
C905 C906 1.351 . S
C906 H868 0.930 . S
C906 C874 1.423 . S
C906 C905 1.351 . S
C907 O891 1.276 . S
C907 O894 1.235 . S
C908 C909 1.393 . S
C908 C912 1.395 . S
C908 C915 1.492 . S
C909 C908 1.393 . S
C909 C910 1.392 . S
C909 H920 0.930 . S
C910 C909 1.392 . S
C910 C911 1.386 . S
C911 C910 1.386 . S
C911 C913 1.395 . S
C911 H921 0.930 . S
C912 C908 1.395 . S
C912 C913 1.379 . S
C912 H922 0.930 . S
C913 C911 1.395 . S
C913 C912 1.379 . S
C913 H923 0.930 . S
C914 O892 1.264 . S
C914 O893 1.254 . S
C915 Eu851 2.848 . S
C915 O890 1.257 . S
C915 O895 1.249 . S
C915 C908 1.492 . S
H916 C899 0.930 . S
H917 C900 0.930 . S
H918 C901 0.930 . S
H919 C902 0.930 . S
H920 C909 0.930 . S
H921 C911 0.930 . S
H922 C912 0.930 . S
H923 C913 0.930 . S
Eu924 N955 2.657 . S
Eu924 N962 2.609 . S
Eu924 O968 2.558 . S
Eu924 O969 2.612 . S
Eu924 O971 2.339 . S
Eu924 O972 2.563 . S
Eu924 O973 2.419 . S
Eu924 O975 2.380 . S
Eu924 O976 2.432 . S
Eu924 C988 2.848 . S
C925 C928 1.429 . S
C925 C929 1.411 . S
C925 N932 1.377 . S
C926 C928 1.420 . S
C926 C930 1.423 . S
C926 C938 1.392 . S
C927 C929 1.420 . S
C927 C930 1.351 . S
C927 H950 0.931 . S
C928 C925 1.429 . S
C928 C926 1.420 . S
C928 N936 1.362 . S
C929 C925 1.411 . S
C929 C927 1.420 . S
C929 C934 1.395 . S
C930 C926 1.423 . S
C930 C927 1.351 . S
C930 H942 0.930 . S
C931 C933 1.400 . S
C931 C934 1.386 . S
C931 H943 0.930 . S
N932 C925 1.377 . S
N932 C933 1.321 . S
N932 Eu935 2.609 . S
C933 C931 1.400 . S
C933 N932 1.321 . S
C933 H940 0.930 . S
C934 C929 1.395 . S
C934 C931 1.386 . S
C934 H953 0.930 . S
Eu935 N932 2.609 . S
Eu935 N936 2.657 . S
Eu935 O969 2.380 . S
Eu935 O970 2.432 . S
Eu935 O974 2.558 . S
Eu935 O975 2.612 . S
Eu935 O977 2.339 . S
Eu935 O978 2.563 . S
Eu935 O979 2.419 . S
Eu935 C999 2.848 . S
N936 C928 1.362 . S
N936 Eu935 2.657 . S
N936 C937 1.334 . S
C937 N936 1.334 . S
C937 C939 1.413 . S
C937 H944 0.929 . S
C938 C926 1.392 . S
C938 C939 1.367 . S
C938 H946 0.930 . S
C939 C937 1.413 . S
C939 C938 1.367 . S
C939 H941 0.930 . S
H940 C933 0.930 . S
H941 C939 0.930 . S
H942 C930 0.930 . S
H943 C931 0.930 . S
H944 C937 0.929 . S
H945 C959 0.930 . S
H946 C938 0.930 . S
H947 C965 0.930 . S
H948 C956 0.929 . S
H949 C963 0.930 . S
H950 C927 0.931 . S
H951 C957 0.930 . S
H952 C990 0.930 . S
H953 C934 0.930 . S
H954 C989 0.931 . S
N955 Eu924 2.657 . S
N955 C956 1.334 . S
N955 C960 1.362 . S
C956 H948 0.929 . S
C956 N955 1.334 . S
C956 C959 1.413 . S
C957 H951 0.930 . S
C957 C958 1.392 . S
C957 C959 1.367 . S
C958 C957 1.392 . S
C958 C960 1.420 . S
C958 C990 1.423 . S
C959 H945 0.930 . S
C959 C956 1.413 . S
C959 C957 1.367 . S
C960 N955 1.362 . S
C960 C958 1.420 . S
C960 C964 1.429 . S
H961 C966 0.930 . S
N962 Eu924 2.609 . S
N962 C964 1.377 . S
N962 C965 1.321 . S
C963 H949 0.930 . S
C963 C965 1.400 . S
C963 C966 1.386 . S
C964 C960 1.429 . S
C964 N962 1.377 . S
C964 C967 1.411 . S
C965 H947 0.930 . S
C965 N962 1.321 . S
C965 C963 1.400 . S
C966 H961 0.930 . S
C966 C963 1.386 . S
C966 C967 1.395 . S
C967 C964 1.411 . S
C967 C966 1.395 . S
C967 C989 1.420 . S
O968 Eu924 2.558 . S
O968 C988 1.257 . S
O969 Eu924 2.612 . S
O969 Eu935 2.380 . S
O969 C980 1.276 . S
O970 Eu935 2.432 . S
O970 C987 1.264 . S
O971 Eu924 2.339 . S
O971 C987 1.254 . S
O972 Eu924 2.563 . S
O972 C980 1.235 . S
O973 Eu924 2.419 . S
O973 C988 1.249 . S
O974 Eu935 2.558 . S
O974 C999 1.257 . S
O975 Eu924 2.380 . S
O975 Eu935 2.612 . S
O975 C991 1.276 . S
O976 Eu924 2.432 . S
O976 C998 1.264 . S
O977 Eu935 2.339 . S
O977 C998 1.254 . S
O978 Eu935 2.563 . S
O978 C991 1.235 . S
O979 Eu935 2.419 . S
O979 C999 1.249 . S
C980 O969 1.276 . S
C980 O972 1.235 . S
C981 C983 1.393 . S
C981 C985 1.395 . S
C981 C988 1.492 . S
C982 C983 1.392 . S
C982 C984 1.386 . S
C983 C981 1.393 . S
C983 C982 1.392 . S
C983 H1000 0.930 . S
C984 C982 1.386 . S
C984 C986 1.395 . S
C984 H1001 0.930 . S
C985 C981 1.395 . S
C985 C986 1.379 . S
C985 H1002 0.930 . S
C986 C984 1.395 . S
C986 C985 1.379 . S
C986 H1003 0.930 . S
C987 O970 1.264 . S
C987 O971 1.254 . S
C988 Eu924 2.848 . S
C988 O968 1.257 . S
C988 O973 1.249 . S
C988 C981 1.492 . S
C989 H954 0.931 . S
C989 C967 1.420 . S
C989 C990 1.351 . S
C990 H952 0.930 . S
C990 C958 1.423 . S
C990 C989 1.351 . S
C991 O975 1.276 . S
C991 O978 1.235 . S
C992 C993 1.393 . S
C992 C996 1.395 . S
C992 C999 1.492 . S
C993 C992 1.393 . S
C993 C994 1.392 . S
C993 H1004 0.930 . S
C994 C993 1.392 . S
C994 C995 1.386 . S
C995 C994 1.386 . S
C995 C997 1.395 . S
C995 H1005 0.930 . S
C996 C992 1.395 . S
C996 C997 1.379 . S
C996 H1006 0.930 . S
C997 C995 1.395 . S
C997 C996 1.379 . S
C997 H1007 0.930 . S
C998 O976 1.264 . S
C998 O977 1.254 . S
C999 Eu935 2.848 . S
C999 O974 1.257 . S
C999 O979 1.249 . S
C999 C992 1.492 . S
H1000 C983 0.930 . S
H1001 C984 0.930 . S
H1002 C985 0.930 . S
H1003 C986 0.930 . S
H1004 C993 0.930 . S
H1005 C995 0.930 . S
H1006 C996 0.930 . S
H1007 C997 0.930 . S
H1008 C1014 0.930 . S
H1009 C1018 0.930 . S
H1010 C1023 0.929 . S
H1011 C1021 0.929 . S
H1012 C1016 0.929 . S
H1013 C1022 0.929 . S
C1014 H1008 0.930 . S
C1014 C1015 1.367 . S
C1014 C1022 1.378 . S
C1015 C1014 1.367 . S
C1015 C1023 1.433 . S
C1016 H1012 0.929 . S
C1016 C1018 1.378 . S
C1016 C1020 1.350 . S
C1017 C1020 1.463 . S
C1017 C1022 1.350 . S
C1017 N1025 1.427 . S
C1018 H1009 0.930 . S
C1018 C1016 1.378 . S
C1018 C1019 1.367 . S
C1019 C1018 1.367 . S
C1019 C1021 1.433 . S
C1020 C1016 1.350 . S
C1020 C1017 1.463 . S
C1020 N1024 1.427 . S
C1021 H1011 0.929 . S
C1021 C1019 1.433 . S
C1021 N1024 1.384 . S
C1022 H1013 0.929 . S
C1022 C1014 1.378 . S
C1022 C1017 1.350 . S
C1023 H1010 0.929 . S
C1023 C1015 1.433 . S
C1023 N1025 1.384 . S
N1024 C1020 1.427 . S
N1024 C1021 1.384 . S
N1025 C1017 1.427 . S
N1025 C1023 1.384 . S
H1026 C1032 0.930 . S
H1027 C1036 0.930 . S
H1028 C1041 0.929 . S
H1029 C1039 0.929 . S
H1030 C1034 0.929 . S
H1031 C1040 0.929 . S
C1032 H1026 0.930 . S
C1032 C1033 1.367 . S
C1032 C1040 1.378 . S
C1033 C1032 1.367 . S
C1033 C1041 1.433 . S
C1034 H1030 0.929 . S
C1034 C1036 1.378 . S
C1034 C1038 1.350 . S
C1035 C1038 1.463 . S
C1035 C1040 1.350 . S
C1035 N1043 1.427 . S
C1036 H1027 0.930 . S
C1036 C1034 1.378 . S
C1036 C1037 1.367 . S
C1037 C1036 1.367 . S
C1037 C1039 1.433 . S
C1038 C1034 1.350 . S
C1038 C1035 1.463 . S
C1038 N1042 1.427 . S
C1039 H1029 0.929 . S
C1039 C1037 1.433 . S
C1039 N1042 1.384 . S
C1040 H1031 0.929 . S
C1040 C1032 1.378 . S
C1040 C1035 1.350 . S
C1041 H1028 0.929 . S
C1041 C1033 1.433 . S
C1041 N1043 1.384 . S
N1042 C1038 1.427 . S
N1042 C1039 1.384 . S
N1043 C1035 1.427 . S
N1043 C1041 1.384 . S
H1044 C1050 0.930 . S
H1045 C1054 0.930 . S
H1046 C1059 0.929 . S
H1047 C1057 0.929 . S
H1048 C1052 0.929 . S
H1049 C1058 0.929 . S
C1050 H1044 0.930 . S
C1050 C1051 1.367 . S
C1050 C1058 1.378 . S
C1051 C1050 1.367 . S
C1051 C1059 1.433 . S
C1052 H1048 0.929 . S
C1052 C1054 1.378 . S
C1052 C1056 1.350 . S
C1053 C1056 1.463 . S
C1053 C1058 1.350 . S
C1053 N1061 1.427 . S
C1054 H1045 0.930 . S
C1054 C1052 1.378 . S
C1054 C1055 1.367 . S
C1055 C1054 1.367 . S
C1055 C1057 1.433 . S
C1056 C1052 1.350 . S
C1056 C1053 1.463 . S
C1056 N1060 1.427 . S
C1057 H1047 0.929 . S
C1057 C1055 1.433 . S
C1057 N1060 1.384 . S
C1058 H1049 0.929 . S
C1058 C1050 1.378 . S
C1058 C1053 1.350 . S
C1059 H1046 0.929 . S
C1059 C1051 1.433 . S
C1059 N1061 1.384 . S
N1060 C1056 1.427 . S
N1060 C1057 1.384 . S
N1061 C1053 1.427 . S
N1061 C1059 1.384 . S
H1062 C1068 0.930 . S
H1063 C1072 0.930 . S
H1064 C1077 0.929 . S
H1065 C1075 0.929 . S
H1066 C1070 0.929 . S
H1067 C1076 0.929 . S
C1068 H1062 0.930 . S
C1068 C1069 1.367 . S
C1068 C1076 1.378 . S
C1069 C1068 1.367 . S
C1069 C1077 1.433 . S
C1070 H1066 0.929 . S
C1070 C1072 1.378 . S
C1070 C1074 1.350 . S
C1071 C1074 1.463 . S
C1071 C1076 1.350 . S
C1071 N1079 1.427 . S
C1072 H1063 0.930 . S
C1072 C1070 1.378 . S
C1072 C1073 1.367 . S
C1073 C1072 1.367 . S
C1073 C1075 1.433 . S
C1074 C1070 1.350 . S
C1074 C1071 1.463 . S
C1074 N1078 1.427 . S
C1075 H1065 0.929 . S
C1075 C1073 1.433 . S
C1075 N1078 1.384 . S
C1076 H1067 0.929 . S
C1076 C1068 1.378 . S
C1076 C1071 1.350 . S
C1077 H1064 0.929 . S
C1077 C1069 1.433 . S
C1077 N1079 1.384 . S
N1078 C1074 1.427 . S
N1078 C1075 1.384 . S
N1079 C1071 1.427 . S
N1079 C1077 1.384 . S
H1080 C1086 0.930 . S
H1081 C1090 0.930 . S
H1082 C1095 0.929 . S
H1083 C1093 0.929 . S
H1084 C1088 0.929 . S
H1085 C1094 0.929 . S
C1086 H1080 0.930 . S
C1086 C1087 1.367 . S
C1086 C1094 1.378 . S
C1087 C1086 1.367 . S
C1087 C1095 1.433 . S
C1088 H1084 0.929 . S
C1088 C1090 1.378 . S
C1088 C1092 1.350 . S
C1089 C1092 1.463 . S
C1089 C1094 1.350 . S
C1089 N1097 1.427 . S
C1090 H1081 0.930 . S
C1090 C1088 1.378 . S
C1090 C1091 1.367 . S
C1091 C1090 1.367 . S
C1091 C1093 1.433 . S
C1092 C1088 1.350 . S
C1092 C1089 1.463 . S
C1092 N1096 1.427 . S
C1093 H1083 0.929 . S
C1093 C1091 1.433 . S
C1093 N1096 1.384 . S
C1094 H1085 0.929 . S
C1094 C1086 1.378 . S
C1094 C1089 1.350 . S
C1095 H1082 0.929 . S
C1095 C1087 1.433 . S
C1095 N1097 1.384 . S
N1096 C1092 1.427 . S
N1096 C1093 1.384 . S
N1097 C1089 1.427 . S
N1097 C1095 1.384 . S
H1098 C1104 0.930 . S
H1099 C1108 0.930 . S
H1100 C1113 0.929 . S
H1101 C1111 0.929 . S
H1102 C1106 0.929 . S
H1103 C1112 0.929 . S
C1104 H1098 0.930 . S
C1104 C1105 1.367 . S
C1104 C1112 1.378 . S
C1105 C1104 1.367 . S
C1105 C1113 1.433 . S
C1106 H1102 0.929 . S
C1106 C1108 1.378 . S
C1106 C1110 1.350 . S
C1107 C1110 1.463 . S
C1107 C1112 1.350 . S
C1107 N1115 1.427 . S
C1108 H1099 0.930 . S
C1108 C1106 1.378 . S
C1108 C1109 1.367 . S
C1109 C1108 1.367 . S
C1109 C1111 1.433 . S
C1110 C1106 1.350 . S
C1110 C1107 1.463 . S
C1110 N1114 1.427 . S
C1111 H1101 0.929 . S
C1111 C1109 1.433 . S
C1111 N1114 1.384 . S
C1112 H1103 0.929 . S
C1112 C1104 1.378 . S
C1112 C1107 1.350 . S
C1113 H1100 0.929 . S
C1113 C1105 1.433 . S
C1113 N1115 1.384 . S
N1114 C1110 1.427 . S
N1114 C1111 1.384 . S
N1115 C1107 1.427 . S
N1115 C1113 1.384 . S
H1116 C1122 0.930 . S
H1117 C1126 0.930 . S
H1118 C1131 0.929 . S
H1119 C1129 0.929 . S
H1120 C1124 0.929 . S
H1121 C1130 0.929 . S
C1122 H1116 0.930 . S
C1122 C1123 1.367 . S
C1122 C1130 1.378 . S
C1123 C1122 1.367 . S
C1123 C1131 1.433 . S
C1124 H1120 0.929 . S
C1124 C1126 1.378 . S
C1124 C1128 1.350 . S
C1125 C1128 1.463 . S
C1125 C1130 1.350 . S
C1125 N1133 1.427 . S
C1126 H1117 0.930 . S
C1126 C1124 1.378 . S
C1126 C1127 1.367 . S
C1127 C1126 1.367 . S
C1127 C1129 1.433 . S
C1128 C1124 1.350 . S
C1128 C1125 1.463 . S
C1128 N1132 1.427 . S
C1129 H1119 0.929 . S
C1129 C1127 1.433 . S
C1129 N1132 1.384 . S
C1130 H1121 0.929 . S
C1130 C1122 1.378 . S
C1130 C1125 1.350 . S
C1131 H1118 0.929 . S
C1131 C1123 1.433 . S
C1131 N1133 1.384 . S
N1132 C1128 1.427 . S
N1132 C1129 1.384 . S
N1133 C1125 1.427 . S
N1133 C1131 1.384 . S
H1134 C1140 0.930 . S
H1135 C1144 0.930 . S
H1136 C1149 0.929 . S
H1137 C1147 0.929 . S
H1138 C1142 0.929 . S
H1139 C1148 0.929 . S
C1140 H1134 0.930 . S
C1140 C1141 1.367 . S
C1140 C1148 1.378 . S
C1141 C1140 1.367 . S
C1141 C1149 1.433 . S
C1142 H1138 0.929 . S
C1142 C1144 1.378 . S
C1142 C1146 1.350 . S
C1143 C1146 1.463 . S
C1143 C1148 1.350 . S
C1143 N1151 1.427 . S
C1144 H1135 0.930 . S
C1144 C1142 1.378 . S
C1144 C1145 1.367 . S
C1145 C1144 1.367 . S
C1145 C1147 1.433 . S
C1146 C1142 1.350 . S
C1146 C1143 1.463 . S
C1146 N1150 1.427 . S
C1147 H1137 0.929 . S
C1147 C1145 1.433 . S
C1147 N1150 1.384 . S
C1148 H1139 0.929 . S
C1148 C1140 1.378 . S
C1148 C1143 1.350 . S
C1149 H1136 0.929 . S
C1149 C1141 1.433 . S
C1149 N1151 1.384 . S
N1150 C1146 1.427 . S
N1150 C1147 1.384 . S
N1151 C1143 1.427 . S
N1151 C1149 1.384 . S
H1152 C1158 0.930 . S
H1153 C1162 0.930 . S
H1154 C1167 0.929 . S
H1155 C1165 0.929 . S
H1156 C1160 0.929 . S
H1157 C1166 0.929 . S
C1158 H1152 0.930 . S
C1158 C1159 1.367 . S
C1158 C1166 1.378 . S
C1159 C1158 1.367 . S
C1159 C1167 1.433 . S
C1160 H1156 0.929 . S
C1160 C1162 1.378 . S
C1160 C1164 1.350 . S
C1161 C1164 1.463 . S
C1161 C1166 1.350 . S
C1161 N1169 1.427 . S
C1162 H1153 0.930 . S
C1162 C1160 1.378 . S
C1162 C1163 1.367 . S
C1163 C1162 1.367 . S
C1163 C1165 1.433 . S
C1164 C1160 1.350 . S
C1164 C1161 1.463 . S
C1164 N1168 1.427 . S
C1165 H1155 0.929 . S
C1165 C1163 1.433 . S
C1165 N1168 1.384 . S
C1166 H1157 0.929 . S
C1166 C1158 1.378 . S
C1166 C1161 1.350 . S
C1167 H1154 0.929 . S
C1167 C1159 1.433 . S
C1167 N1169 1.384 . S
N1168 C1164 1.427 . S
N1168 C1165 1.384 . S
N1169 C1161 1.427 . S
N1169 C1167 1.384 . S
H1170 C1176 0.930 . S
H1171 C1180 0.930 . S
H1172 C1185 0.929 . S
H1173 C1183 0.929 . S
H1174 C1178 0.929 . S
H1175 C1184 0.929 . S
C1176 H1170 0.930 . S
C1176 C1177 1.367 . S
C1176 C1184 1.378 . S
C1177 C1176 1.367 . S
C1177 C1185 1.433 . S
C1178 H1174 0.929 . S
C1178 C1180 1.378 . S
C1178 C1182 1.350 . S
C1179 C1182 1.463 . S
C1179 C1184 1.350 . S
C1179 N1187 1.427 . S
C1180 H1171 0.930 . S
C1180 C1178 1.378 . S
C1180 C1181 1.367 . S
C1181 C1180 1.367 . S
C1181 C1183 1.433 . S
C1182 C1178 1.350 . S
C1182 C1179 1.463 . S
C1182 N1186 1.427 . S
C1183 H1173 0.929 . S
C1183 C1181 1.433 . S
C1183 N1186 1.384 . S
C1184 H1175 0.929 . S
C1184 C1176 1.378 . S
C1184 C1179 1.350 . S
C1185 H1172 0.929 . S
C1185 C1177 1.433 . S
C1185 N1187 1.384 . S
N1186 C1182 1.427 . S
N1186 C1183 1.384 . S
N1187 C1179 1.427 . S
N1187 C1185 1.384 . S
H1188 C1194 0.930 . S
H1189 C1198 0.930 . S
H1190 C1203 0.929 . S
H1191 C1201 0.929 . S
H1192 C1196 0.929 . S
H1193 C1202 0.929 . S
C1194 H1188 0.930 . S
C1194 C1195 1.367 . S
C1194 C1202 1.378 . S
C1195 C1194 1.367 . S
C1195 C1203 1.433 . S
C1196 H1192 0.929 . S
C1196 C1198 1.378 . S
C1196 C1200 1.350 . S
C1197 C1200 1.463 . S
C1197 C1202 1.350 . S
C1197 N1205 1.427 . S
C1198 H1189 0.930 . S
C1198 C1196 1.378 . S
C1198 C1199 1.367 . S
C1199 C1198 1.367 . S
C1199 C1201 1.433 . S
C1200 C1196 1.350 . S
C1200 C1197 1.463 . S
C1200 N1204 1.427 . S
C1201 H1191 0.929 . S
C1201 C1199 1.433 . S
C1201 N1204 1.384 . S
C1202 H1193 0.929 . S
C1202 C1194 1.378 . S
C1202 C1197 1.350 . S
C1203 H1190 0.929 . S
C1203 C1195 1.433 . S
C1203 N1205 1.384 . S
N1204 C1200 1.427 . S
N1204 C1201 1.384 . S
N1205 C1197 1.427 . S
N1205 C1203 1.384 . S
H1206 C1212 0.930 . S
H1207 C1216 0.930 . S
H1208 C1221 0.929 . S
H1209 C1219 0.929 . S
H1210 C1214 0.929 . S
H1211 C1220 0.929 . S
C1212 H1206 0.930 . S
C1212 C1213 1.367 . S
C1212 C1220 1.378 . S
C1213 C1212 1.367 . S
C1213 C1221 1.433 . S
C1214 H1210 0.929 . S
C1214 C1216 1.378 . S
C1214 C1218 1.350 . S
C1215 C1218 1.463 . S
C1215 C1220 1.350 . S
C1215 N1223 1.427 . S
C1216 H1207 0.930 . S
C1216 C1214 1.378 . S
C1216 C1217 1.367 . S
C1217 C1216 1.367 . S
C1217 C1219 1.433 . S
C1218 C1214 1.350 . S
C1218 C1215 1.463 . S
C1218 N1222 1.427 . S
C1219 H1209 0.929 . S
C1219 C1217 1.433 . S
C1219 N1222 1.384 . S
C1220 H1211 0.929 . S
C1220 C1212 1.378 . S
C1220 C1215 1.350 . S
C1221 H1208 0.929 . S
C1221 C1213 1.433 . S
C1221 N1223 1.384 . S
N1222 C1218 1.427 . S
N1222 C1219 1.384 . S
N1223 C1215 1.427 . S
N1223 C1221 1.384 . S
H1224 C1230 0.930 . S
H1225 C1234 0.930 . S
H1226 C1239 0.929 . S
H1227 C1237 0.929 . S
H1228 C1232 0.929 . S
H1229 C1238 0.929 . S
C1230 H1224 0.930 . S
C1230 C1231 1.367 . S
C1230 C1238 1.378 . S
C1231 C1230 1.367 . S
C1231 C1239 1.433 . S
C1232 H1228 0.929 . S
C1232 C1234 1.378 . S
C1232 C1236 1.350 . S
C1233 C1236 1.463 . S
C1233 C1238 1.350 . S
C1233 N1241 1.427 . S
C1234 H1225 0.930 . S
C1234 C1232 1.378 . S
C1234 C1235 1.367 . S
C1235 C1234 1.367 . S
C1235 C1237 1.433 . S
C1236 C1232 1.350 . S
C1236 C1233 1.463 . S
C1236 N1240 1.427 . S
C1237 H1227 0.929 . S
C1237 C1235 1.433 . S
C1237 N1240 1.384 . S
C1238 H1229 0.929 . S
C1238 C1230 1.378 . S
C1238 C1233 1.350 . S
C1239 H1226 0.929 . S
C1239 C1231 1.433 . S
C1239 N1241 1.384 . S
N1240 C1236 1.427 . S
N1240 C1237 1.384 . S
N1241 C1233 1.427 . S
N1241 C1239 1.384 . S
H1242 C1248 0.930 . S
H1243 C1252 0.930 . S
H1244 C1257 0.929 . S
H1245 C1255 0.929 . S
H1246 C1250 0.929 . S
H1247 C1256 0.929 . S
C1248 H1242 0.930 . S
C1248 C1249 1.367 . S
C1248 C1256 1.378 . S
C1249 C1248 1.367 . S
C1249 C1257 1.433 . S
C1250 H1246 0.929 . S
C1250 C1252 1.378 . S
C1250 C1254 1.350 . S
C1251 C1254 1.463 . S
C1251 C1256 1.350 . S
C1251 N1259 1.427 . S
C1252 H1243 0.930 . S
C1252 C1250 1.378 . S
C1252 C1253 1.367 . S
C1253 C1252 1.367 . S
C1253 C1255 1.433 . S
C1254 C1250 1.350 . S
C1254 C1251 1.463 . S
C1254 N1258 1.427 . S
C1255 H1245 0.929 . S
C1255 C1253 1.433 . S
C1255 N1258 1.384 . S
C1256 H1247 0.929 . S
C1256 C1248 1.378 . S
C1256 C1251 1.350 . S
C1257 H1244 0.929 . S
C1257 C1249 1.433 . S
C1257 N1259 1.384 . S
N1258 C1254 1.427 . S
N1258 C1255 1.384 . S
N1259 C1251 1.427 . S
N1259 C1257 1.384 . S
H1260 C1266 0.930 . S
H1261 C1270 0.930 . S
H1262 C1275 0.929 . S
H1263 C1273 0.929 . S
H1264 C1268 0.929 . S
H1265 C1274 0.929 . S
C1266 H1260 0.930 . S
C1266 C1267 1.367 . S
C1266 C1274 1.378 . S
C1267 C1266 1.367 . S
C1267 C1275 1.433 . S
C1268 H1264 0.929 . S
C1268 C1270 1.378 . S
C1268 C1272 1.350 . S
C1269 C1272 1.463 . S
C1269 C1274 1.350 . S
C1269 N1277 1.427 . S
C1270 H1261 0.930 . S
C1270 C1268 1.378 . S
C1270 C1271 1.367 . S
C1271 C1270 1.367 . S
C1271 C1273 1.433 . S
C1272 C1268 1.350 . S
C1272 C1269 1.463 . S
C1272 N1276 1.427 . S
C1273 H1263 0.929 . S
C1273 C1271 1.433 . S
C1273 N1276 1.384 . S
C1274 H1265 0.929 . S
C1274 C1266 1.378 . S
C1274 C1269 1.350 . S
C1275 H1262 0.929 . S
C1275 C1267 1.433 . S
C1275 N1277 1.384 . S
N1276 C1272 1.427 . S
N1276 C1273 1.384 . S
N1277 C1269 1.427 . S
N1277 C1275 1.384 . S
H1278 C1284 0.930 . S
H1279 C1288 0.930 . S
H1280 C1293 0.929 . S
H1281 C1291 0.929 . S
H1282 C1286 0.929 . S
H1283 C1292 0.929 . S
C1284 H1278 0.930 . S
C1284 C1285 1.367 . S
C1284 C1292 1.378 . S
C1285 C1284 1.367 . S
C1285 C1293 1.433 . S
C1286 H1282 0.929 . S
C1286 C1288 1.378 . S
C1286 C1290 1.350 . S
C1287 C1290 1.463 . S
C1287 C1292 1.350 . S
C1287 N1295 1.427 . S
C1288 H1279 0.930 . S
C1288 C1286 1.378 . S
C1288 C1289 1.367 . S
C1289 C1288 1.367 . S
C1289 C1291 1.433 . S
C1290 C1286 1.350 . S
C1290 C1287 1.463 . S
C1290 N1294 1.427 . S
C1291 H1281 0.929 . S
C1291 C1289 1.433 . S
C1291 N1294 1.384 . S
C1292 H1283 0.929 . S
C1292 C1284 1.378 . S
C1292 C1287 1.350 . S
C1293 H1280 0.929 . S
C1293 C1285 1.433 . S
C1293 N1295 1.384 . S
N1294 C1290 1.427 . S
N1294 C1291 1.384 . S
N1295 C1287 1.427 . S
N1295 C1293 1.384 . S
H1296 C1302 0.927 1_554 S
H1297 C1306 0.930 . S
H1298 C1311 0.929 . S
H1299 C1309 0.929 . S
H1300 C1304 0.929 1_556 S
H1301 C1310 0.929 . S
C1302 H1296 0.927 1_556 S
C1302 C1303 1.376 . S
C1302 C1310 1.373 1_556 S
C1303 C1302 1.376 . S
C1303 C1311 1.433 . S
C1304 H1300 0.929 1_554 S
C1304 C1306 1.378 . S
C1304 C1308 1.350 . S
C1305 C1308 1.465 . S
C1305 C1310 1.352 . S
C1305 N1313 1.424 1_554 S
C1306 H1297 0.930 . S
C1306 C1304 1.378 . S
C1306 C1307 1.367 . S
C1307 C1306 1.367 . S
C1307 C1309 1.433 . S
C1308 C1304 1.350 . S
C1308 C1305 1.465 . S
C1308 N1312 1.427 . S
C1309 H1299 0.929 . S
C1309 C1307 1.433 . S
C1309 N1312 1.384 . S
C1310 H1301 0.929 . S
C1310 C1302 1.373 1_554 S
C1310 C1305 1.352 . S
C1311 H1298 0.929 . S
C1311 C1303 1.433 . S
C1311 N1313 1.384 . S
N1312 C1308 1.427 . S
N1312 C1309 1.384 . S
N1313 C1305 1.424 1_556 S
N1313 C1311 1.384 . S
H1314 C1320 0.930 . S
H1315 C1324 0.930 . S
H1316 C1329 0.929 . S
H1317 C1327 0.929 . S
H1318 C1322 0.929 . S
H1319 C1328 0.929 . S
C1320 H1314 0.930 . S
C1320 C1321 1.367 . S
C1320 C1328 1.378 . S
C1321 C1320 1.367 . S
C1321 C1329 1.433 . S
C1322 H1318 0.929 . S
C1322 C1324 1.378 . S
C1322 C1326 1.350 . S
C1323 C1326 1.463 . S
C1323 C1328 1.350 . S
C1323 N1331 1.427 . S
C1324 H1315 0.930 . S
C1324 C1322 1.378 . S
C1324 C1325 1.367 . S
C1325 C1324 1.367 . S
C1325 C1327 1.433 . S
C1326 C1322 1.350 . S
C1326 C1323 1.463 . S
C1326 N1330 1.427 . S
C1327 H1317 0.929 . S
C1327 C1325 1.433 . S
C1327 N1330 1.384 . S
C1328 H1319 0.929 . S
C1328 C1320 1.378 . S
C1328 C1323 1.350 . S
C1329 H1316 0.929 . S
C1329 C1321 1.433 . S
C1329 N1331 1.384 . S
N1330 C1326 1.427 . S
N1330 C1327 1.384 . S
N1331 C1323 1.427 . S
N1331 C1329 1.384 . S
H1332 C1338 0.930 . S
H1333 C1342 0.930 . S
H1334 C1347 0.929 . S
H1335 C1345 0.929 . S
H1336 C1340 0.929 . S
H1337 C1346 0.929 . S
C1338 H1332 0.930 . S
C1338 C1339 1.367 . S
C1338 C1346 1.378 . S
C1339 C1338 1.367 . S
C1339 C1347 1.433 . S
C1340 H1336 0.929 . S
C1340 C1342 1.378 . S
C1340 C1344 1.350 . S
C1341 C1344 1.463 . S
C1341 C1346 1.350 . S
C1341 N1349 1.427 . S
C1342 H1333 0.930 . S
C1342 C1340 1.378 . S
C1342 C1343 1.367 . S
C1343 C1342 1.367 . S
C1343 C1345 1.433 . S
C1344 C1340 1.350 . S
C1344 C1341 1.463 . S
C1344 N1348 1.427 . S
C1345 H1335 0.929 . S
C1345 C1343 1.433 . S
C1345 N1348 1.384 . S
C1346 H1337 0.929 . S
C1346 C1338 1.378 . S
C1346 C1341 1.350 . S
C1347 H1334 0.929 . S
C1347 C1339 1.433 . S
C1347 N1349 1.384 . S
N1348 C1344 1.427 . S
N1348 C1345 1.384 . S
N1349 C1341 1.427 . S
N1349 C1347 1.384 . S
H1350 C1356 0.930 . S
H1351 C1360 0.930 . S
H1352 C1365 0.929 . S
H1353 C1363 0.929 . S
H1354 C1358 0.929 . S
H1355 C1364 0.929 . S
C1356 H1350 0.930 . S
C1356 C1357 1.367 . S
C1356 C1364 1.378 . S
C1357 C1356 1.367 . S
C1357 C1365 1.433 . S
C1358 H1354 0.929 . S
C1358 C1360 1.378 . S
C1358 C1362 1.350 . S
C1359 C1362 1.463 . S
C1359 C1364 1.350 . S
C1359 N1367 1.427 . S
C1360 H1351 0.930 . S
C1360 C1358 1.378 . S
C1360 C1361 1.367 . S
C1361 C1360 1.367 . S
C1361 C1363 1.433 . S
C1362 C1358 1.350 . S
C1362 C1359 1.463 . S
C1362 N1366 1.427 . S
C1363 H1353 0.929 . S
C1363 C1361 1.433 . S
C1363 N1366 1.384 . S
C1364 H1355 0.929 . S
C1364 C1356 1.378 . S
C1364 C1359 1.350 . S
C1365 H1352 0.929 . S
C1365 C1357 1.433 . S
C1365 N1367 1.384 . S
N1366 C1362 1.427 . S
N1366 C1363 1.384 . S
N1367 C1359 1.427 . S
N1367 C1365 1.384 . S
H1368 C1374 0.930 . S
H1369 C1378 0.930 . S
H1370 C1383 0.929 . S
H1371 C1381 0.929 . S
H1372 C1376 0.929 . S
H1373 C1382 0.929 . S
C1374 H1368 0.930 . S
C1374 C1375 1.367 . S
C1374 C1382 1.378 . S
C1375 C1374 1.367 . S
C1375 C1383 1.433 . S
C1376 H1372 0.929 . S
C1376 C1378 1.378 . S
C1376 C1380 1.350 . S
C1377 C1380 1.463 . S
C1377 C1382 1.350 . S
C1377 N1385 1.427 . S
C1378 H1369 0.930 . S
C1378 C1376 1.378 . S
C1378 C1379 1.367 . S
C1379 C1378 1.367 . S
C1379 C1381 1.433 . S
C1380 C1376 1.350 . S
C1380 C1377 1.463 . S
C1380 N1384 1.427 . S
C1381 H1371 0.929 . S
C1381 C1379 1.433 . S
C1381 N1384 1.384 . S
C1382 H1373 0.929 . S
C1382 C1374 1.378 . S
C1382 C1377 1.350 . S
C1383 H1370 0.929 . S
C1383 C1375 1.433 . S
C1383 N1385 1.384 . S
N1384 C1380 1.427 . S
N1384 C1381 1.384 . S
N1385 C1377 1.427 . S
N1385 C1383 1.384 . S
H1386 C1392 0.930 . S
H1387 C1396 0.932 . S
H1388 C1401 0.929 . S
H1389 C1399 0.928 . S
H1390 C1394 0.929 . S
H1391 C1400 0.929 . S
C1392 H1386 0.930 . S
C1392 C1393 1.367 . S
C1392 C1400 1.378 . S
C1393 C1392 1.367 . S
C1393 C1401 1.433 . S
C1394 H1390 0.929 . S
C1394 C1396 1.375 1_554 S
C1394 C1398 1.350 . S
C1395 C1398 1.463 . S
C1395 C1400 1.350 . S
C1395 N1403 1.427 . S
C1396 H1387 0.932 . S
C1396 C1394 1.375 1_556 S
C1396 C1397 1.368 . S
C1397 C1396 1.368 . S
C1397 C1399 1.434 . S
C1398 C1394 1.350 . S
C1398 C1395 1.463 . S
C1398 N1402 1.427 . S
C1399 H1389 0.928 . S
C1399 C1397 1.434 . S
C1399 N1402 1.382 1_556 S
C1400 H1391 0.929 . S
C1400 C1392 1.378 . S
C1400 C1395 1.350 . S
C1401 H1388 0.929 . S
C1401 C1393 1.433 . S
C1401 N1403 1.384 . S
N1402 C1398 1.427 . S
N1402 C1399 1.382 1_554 S
N1403 C1395 1.427 . S
N1403 C1401 1.384 . S
H1404 C1410 0.930 . S
H1405 C1414 0.930 . S
H1406 C1419 0.929 . S
H1407 C1417 0.929 . S
H1408 C1412 0.929 . S
H1409 C1418 0.929 . S
C1410 H1404 0.930 . S
C1410 C1411 1.367 . S
C1410 C1418 1.378 . S
C1411 C1410 1.367 . S
C1411 C1419 1.433 . S
C1412 H1408 0.929 . S
C1412 C1414 1.378 . S
C1412 C1416 1.350 . S
C1413 C1416 1.463 . S
C1413 C1418 1.350 . S
C1413 N1421 1.427 . S
C1414 H1405 0.930 . S
C1414 C1412 1.378 . S
C1414 C1415 1.367 . S
C1415 C1414 1.367 . S
C1415 C1417 1.433 . S
C1416 C1412 1.350 . S
C1416 C1413 1.463 . S
C1416 N1420 1.427 . S
C1417 H1407 0.929 . S
C1417 C1415 1.433 . S
C1417 N1420 1.384 . S
C1418 H1409 0.929 . S
C1418 C1410 1.378 . S
C1418 C1413 1.350 . S
C1419 H1406 0.929 . S
C1419 C1411 1.433 . S
C1419 N1421 1.384 . S
N1420 C1416 1.427 . S
N1420 C1417 1.384 . S
N1421 C1413 1.427 . S
N1421 C1419 1.384 . S
H1422 C1428 0.930 . S
H1423 C1432 0.930 . S
H1424 C1437 0.929 . S
H1425 C1435 0.929 . S
H1426 C1430 0.929 . S
H1427 C1436 0.929 . S
C1428 H1422 0.930 . S
C1428 C1429 1.367 . S
C1428 C1436 1.378 . S
C1429 C1428 1.367 . S
C1429 C1437 1.433 . S
C1430 H1426 0.929 . S
C1430 C1432 1.378 . S
C1430 C1434 1.350 . S
C1431 C1434 1.463 . S
C1431 C1436 1.350 . S
C1431 N1439 1.427 . S
C1432 H1423 0.930 . S
C1432 C1430 1.378 . S
C1432 C1433 1.367 . S
C1433 C1432 1.367 . S
C1433 C1435 1.433 . S
C1434 C1430 1.350 . S
C1434 C1431 1.463 . S
C1434 N1438 1.427 . S
C1435 H1425 0.929 . S
C1435 C1433 1.433 . S
C1435 N1438 1.384 . S
C1436 H1427 0.929 . S
C1436 C1428 1.378 . S
C1436 C1431 1.350 . S
C1437 H1424 0.929 . S
C1437 C1429 1.433 . S
C1437 N1439 1.384 . S
N1438 C1434 1.427 . S
N1438 C1435 1.384 . S
N1439 C1431 1.427 . S
N1439 C1437 1.384 . S
H1440 C1446 0.930 . S
H1441 C1450 0.930 . S
H1442 C1455 0.929 . S
H1443 C1453 0.929 . S
H1444 C1448 0.929 . S
H1445 C1454 0.929 . S
C1446 H1440 0.930 . S
C1446 C1447 1.367 . S
C1446 C1454 1.378 . S
C1447 C1446 1.367 . S
C1447 C1455 1.433 . S
C1448 H1444 0.929 . S
C1448 C1450 1.378 . S
C1448 C1452 1.350 . S
C1449 C1452 1.463 . S
C1449 C1454 1.350 . S
C1449 N1457 1.427 . S
C1450 H1441 0.930 . S
C1450 C1448 1.378 . S
C1450 C1451 1.367 . S
C1451 C1450 1.367 . S
C1451 C1453 1.433 . S
C1452 C1448 1.350 . S
C1452 C1449 1.463 . S
C1452 N1456 1.427 . S
C1453 H1443 0.929 . S
C1453 C1451 1.433 . S
C1453 N1456 1.384 . S
C1454 H1445 0.929 . S
C1454 C1446 1.378 . S
C1454 C1449 1.350 . S
C1455 H1442 0.929 . S
C1455 C1447 1.433 . S
C1455 N1457 1.384 . S
N1456 C1452 1.427 . S
N1456 C1453 1.384 . S
N1457 C1449 1.427 . S
N1457 C1455 1.384 . S
H1458 C1464 0.930 . S
H1459 C1468 0.930 . S
H1460 C1473 0.929 . S
H1461 C1471 0.929 . S
H1462 C1466 0.929 . S
H1463 C1472 0.929 . S
C1464 H1458 0.930 . S
C1464 C1465 1.367 . S
C1464 C1472 1.378 . S
C1465 C1464 1.367 . S
C1465 C1473 1.433 . S
C1466 H1462 0.929 . S
C1466 C1468 1.378 . S
C1466 C1470 1.350 . S
C1467 C1470 1.463 . S
C1467 C1472 1.350 . S
C1467 N1475 1.427 . S
C1468 H1459 0.930 . S
C1468 C1466 1.378 . S
C1468 C1469 1.367 . S
C1469 C1468 1.367 . S
C1469 C1471 1.433 . S
C1470 C1466 1.350 . S
C1470 C1467 1.463 . S
C1470 N1474 1.427 . S
C1471 H1461 0.929 . S
C1471 C1469 1.433 . S
C1471 N1474 1.384 . S
C1472 H1463 0.929 . S
C1472 C1464 1.378 . S
C1472 C1467 1.350 . S
C1473 H1460 0.929 . S
C1473 C1465 1.433 . S
C1473 N1475 1.384 . S
N1474 C1470 1.427 . S
N1474 C1471 1.384 . S
N1475 C1467 1.427 . S
N1475 C1473 1.384 . S
H1476 C1482 0.930 . S
H1477 C1486 0.930 . S
H1478 C1491 0.929 . S
H1479 C1489 0.929 . S
H1480 C1484 0.929 . S
H1481 C1490 0.929 . S
C1482 H1476 0.930 . S
C1482 C1483 1.367 . S
C1482 C1490 1.378 . S
C1483 C1482 1.367 . S
C1483 C1491 1.433 . S
C1484 H1480 0.929 . S
C1484 C1486 1.378 . S
C1484 C1488 1.350 . S
C1485 C1488 1.463 . S
C1485 C1490 1.350 . S
C1485 N1493 1.427 . S
C1486 H1477 0.930 . S
C1486 C1484 1.378 . S
C1486 C1487 1.367 . S
C1487 C1486 1.367 . S
C1487 C1489 1.433 . S
C1488 C1484 1.350 . S
C1488 C1485 1.463 . S
C1488 N1492 1.427 . S
C1489 H1479 0.929 . S
C1489 C1487 1.433 . S
C1489 N1492 1.384 . S
C1490 H1481 0.929 . S
C1490 C1482 1.378 . S
C1490 C1485 1.350 . S
C1491 H1478 0.929 . S
C1491 C1483 1.433 . S
C1491 N1493 1.384 . S
N1492 C1488 1.427 . S
N1492 C1489 1.384 . S
N1493 C1485 1.427 . S
N1493 C1491 1.384 . S
H1494 C1500 0.930 . S
H1495 C1504 0.930 . S
H1496 C1509 0.929 . S
H1497 C1507 0.929 . S
H1498 C1502 0.929 . S
H1499 C1508 0.929 . S
C1500 H1494 0.930 . S
C1500 C1501 1.367 . S
C1500 C1508 1.378 . S
C1501 C1500 1.367 . S
C1501 C1509 1.433 . S
C1502 H1498 0.929 . S
C1502 C1504 1.378 . S
C1502 C1506 1.350 . S
C1503 C1506 1.463 . S
C1503 C1508 1.350 . S
C1503 N1511 1.427 . S
C1504 H1495 0.930 . S
C1504 C1502 1.378 . S
C1504 C1505 1.367 . S
C1505 C1504 1.367 . S
C1505 C1507 1.433 . S
C1506 C1502 1.350 . S
C1506 C1503 1.463 . S
C1506 N1510 1.427 . S
C1507 H1497 0.929 . S
C1507 C1505 1.433 . S
C1507 N1510 1.384 . S
C1508 H1499 0.929 . S
C1508 C1500 1.378 . S
C1508 C1503 1.350 . S
C1509 H1496 0.929 . S
C1509 C1501 1.433 . S
C1509 N1511 1.384 . S
N1510 C1506 1.427 . S
N1510 C1507 1.384 . S
N1511 C1503 1.427 . S
N1511 C1509 1.384 . S
H1512 C1518 0.930 . S
H1513 C1522 0.930 . S
H1514 C1527 0.929 . S
H1515 C1525 0.929 . S
H1516 C1520 0.929 . S
H1517 C1526 0.929 . S
C1518 H1512 0.930 . S
C1518 C1519 1.367 . S
C1518 C1526 1.378 . S
C1519 C1518 1.367 . S
C1519 C1527 1.433 . S
C1520 H1516 0.929 . S
C1520 C1522 1.378 . S
C1520 C1524 1.350 . S
C1521 C1524 1.463 . S
C1521 C1526 1.350 . S
C1521 N1529 1.427 . S
C1522 H1513 0.930 . S
C1522 C1520 1.378 . S
C1522 C1523 1.367 . S
C1523 C1522 1.367 . S
C1523 C1525 1.433 . S
C1524 C1520 1.350 . S
C1524 C1521 1.463 . S
C1524 N1528 1.427 . S
C1525 H1515 0.929 . S
C1525 C1523 1.433 . S
C1525 N1528 1.384 . S
C1526 H1517 0.929 . S
C1526 C1518 1.378 . S
C1526 C1521 1.350 . S
C1527 H1514 0.929 . S
C1527 C1519 1.433 . S
C1527 N1529 1.384 . S
N1528 C1524 1.427 . S
N1528 C1525 1.384 . S
N1529 C1521 1.427 . S
N1529 C1527 1.384 . S
H1530 C1536 0.930 . S
H1531 C1540 0.930 . S
H1532 C1545 0.929 . S
H1533 C1543 0.929 . S
H1534 C1538 0.929 . S
H1535 C1544 0.929 . S
C1536 H1530 0.930 . S
C1536 C1537 1.367 . S
C1536 C1544 1.378 . S
C1537 C1536 1.367 . S
C1537 C1545 1.433 . S
C1538 H1534 0.929 . S
C1538 C1540 1.378 . S
C1538 C1542 1.350 . S
C1539 C1542 1.463 . S
C1539 C1544 1.350 . S
C1539 N1547 1.427 . S
C1540 H1531 0.930 . S
C1540 C1538 1.378 . S
C1540 C1541 1.367 . S
C1541 C1540 1.367 . S
C1541 C1543 1.433 . S
C1542 C1538 1.350 . S
C1542 C1539 1.463 . S
C1542 N1546 1.427 . S
C1543 H1533 0.929 . S
C1543 C1541 1.433 . S
C1543 N1546 1.384 . S
C1544 H1535 0.929 . S
C1544 C1536 1.378 . S
C1544 C1539 1.350 . S
C1545 H1532 0.929 . S
C1545 C1537 1.433 . S
C1545 N1547 1.384 . S
N1546 C1542 1.427 . S
N1546 C1543 1.384 . S
N1547 C1539 1.427 . S
N1547 C1545 1.384 . S
H1548 C1554 0.930 . S
H1549 C1558 0.930 . S
H1550 C1563 0.929 . S
H1551 C1561 0.929 . S
H1552 C1556 0.929 . S
H1553 C1562 0.929 . S
C1554 H1548 0.930 . S
C1554 C1555 1.367 . S
C1554 C1562 1.378 . S
C1555 C1554 1.367 . S
C1555 C1563 1.433 . S
C1556 H1552 0.929 . S
C1556 C1558 1.378 . S
C1556 C1560 1.350 . S
C1557 C1560 1.463 . S
C1557 C1562 1.350 . S
C1557 N1565 1.427 . S
C1558 H1549 0.930 . S
C1558 C1556 1.378 . S
C1558 C1559 1.367 . S
C1559 C1558 1.367 . S
C1559 C1561 1.433 . S
C1560 C1556 1.350 . S
C1560 C1557 1.463 . S
C1560 N1564 1.427 . S
C1561 H1551 0.929 . S
C1561 C1559 1.433 . S
C1561 N1564 1.384 . S
C1562 H1553 0.929 . S
C1562 C1554 1.378 . S
C1562 C1557 1.350 . S
C1563 H1550 0.929 . S
C1563 C1555 1.433 . S
C1563 N1565 1.384 . S
N1564 C1560 1.427 . S
N1564 C1561 1.384 . S
N1565 C1557 1.427 . S
N1565 C1563 1.384 . S
H1566 C1572 0.930 . S
H1567 C1576 0.930 . S
H1568 C1581 0.929 . S
H1569 C1579 0.929 . S
H1570 C1574 0.929 . S
H1571 C1580 0.929 . S
C1572 H1566 0.930 . S
C1572 C1573 1.367 . S
C1572 C1580 1.378 . S
C1573 C1572 1.367 . S
C1573 C1581 1.433 . S
C1574 H1570 0.929 . S
C1574 C1576 1.378 . S
C1574 C1578 1.350 . S
C1575 C1578 1.463 . S
C1575 C1580 1.350 . S
C1575 N1583 1.427 . S
C1576 H1567 0.930 . S
C1576 C1574 1.378 . S
C1576 C1577 1.367 . S
C1577 C1576 1.367 . S
C1577 C1579 1.433 . S
C1578 C1574 1.350 . S
C1578 C1575 1.463 . S
C1578 N1582 1.427 . S
C1579 H1569 0.929 . S
C1579 C1577 1.433 . S
C1579 N1582 1.384 . S
C1580 H1571 0.929 . S
C1580 C1572 1.378 . S
C1580 C1575 1.350 . S
C1581 H1568 0.929 . S
C1581 C1573 1.433 . S
C1581 N1583 1.384 . S
N1582 C1578 1.427 . S
N1582 C1579 1.384 . S
N1583 C1575 1.427 . S
N1583 C1581 1.384 . S
H1584 C1590 0.930 . S
H1585 C1594 0.930 . S
H1586 C1599 0.929 . S
H1587 C1597 0.929 . S
H1588 C1592 0.929 . S
H1589 C1598 0.929 . S
C1590 H1584 0.930 . S
C1590 C1591 1.367 . S
C1590 C1598 1.378 . S
C1591 C1590 1.367 . S
C1591 C1599 1.433 . S
C1592 H1588 0.929 . S
C1592 C1594 1.378 . S
C1592 C1596 1.350 . S
C1593 C1596 1.463 . S
C1593 C1598 1.350 . S
C1593 N1601 1.427 . S
C1594 H1585 0.930 . S
C1594 C1592 1.378 . S
C1594 C1595 1.367 . S
C1595 C1594 1.367 . S
C1595 C1597 1.433 . S
C1596 C1592 1.350 . S
C1596 C1593 1.463 . S
C1596 N1600 1.427 . S
C1597 H1587 0.929 . S
C1597 C1595 1.433 . S
C1597 N1600 1.384 . S
C1598 H1589 0.929 . S
C1598 C1590 1.378 . S
C1598 C1593 1.350 . S
C1599 H1586 0.929 . S
C1599 C1591 1.433 . S
C1599 N1601 1.384 . S
N1600 C1596 1.427 . S
N1600 C1597 1.384 . S
N1601 C1593 1.427 . S
N1601 C1599 1.384 . S
H1602 C1608 0.930 . S
H1603 C1612 0.930 . S
H1604 C1617 0.929 . S
H1605 C1615 0.929 . S
H1606 C1610 0.929 . S
H1607 C1616 0.929 . S
C1608 H1602 0.930 . S
C1608 C1609 1.367 . S
C1608 C1616 1.378 . S
C1609 C1608 1.367 . S
C1609 C1617 1.433 . S
C1610 H1606 0.929 . S
C1610 C1612 1.378 . S
C1610 C1614 1.350 . S
C1611 C1614 1.463 . S
C1611 C1616 1.350 . S
C1611 N1619 1.427 . S
C1612 H1603 0.930 . S
C1612 C1610 1.378 . S
C1612 C1613 1.367 . S
C1613 C1612 1.367 . S
C1613 C1615 1.433 . S
C1614 C1610 1.350 . S
C1614 C1611 1.463 . S
C1614 N1618 1.427 . S
C1615 H1605 0.929 . S
C1615 C1613 1.433 . S
C1615 N1618 1.384 . S
C1616 H1607 0.929 . S
C1616 C1608 1.378 . S
C1616 C1611 1.350 . S
C1617 H1604 0.929 . S
C1617 C1609 1.433 . S
C1617 N1619 1.384 . S
N1618 C1614 1.427 . S
N1618 C1615 1.384 . S
N1619 C1611 1.427 . S
N1619 C1617 1.384 . S
H1620 C1626 0.930 . S
H1621 C1630 0.930 . S
H1622 C1635 0.929 . S
H1623 C1633 0.929 . S
H1624 C1628 0.929 . S
H1625 C1634 0.929 . S
C1626 H1620 0.930 . S
C1626 C1627 1.367 . S
C1626 C1634 1.378 . S
C1627 C1626 1.367 . S
C1627 C1635 1.433 . S
C1628 H1624 0.929 . S
C1628 C1630 1.378 . S
C1628 C1632 1.350 . S
C1629 C1632 1.463 . S
C1629 C1634 1.350 . S
C1629 N1637 1.427 . S
C1630 H1621 0.930 . S
C1630 C1628 1.378 . S
C1630 C1631 1.367 . S
C1631 C1630 1.367 . S
C1631 C1633 1.433 . S
C1632 C1628 1.350 . S
C1632 C1629 1.463 . S
C1632 N1636 1.427 . S
C1633 H1623 0.929 . S
C1633 C1631 1.433 . S
C1633 N1636 1.384 . S
C1634 H1625 0.929 . S
C1634 C1626 1.378 . S
C1634 C1629 1.350 . S
C1635 H1622 0.929 . S
C1635 C1627 1.433 . S
C1635 N1637 1.384 . S
N1636 C1632 1.427 . S
N1636 C1633 1.384 . S
N1637 C1629 1.427 . S
N1637 C1635 1.384 . S
H1638 C1644 0.930 . S
H1639 C1648 0.930 . S
H1640 C1653 0.929 . S
H1641 C1651 0.929 . S
H1642 C1646 0.929 . S
H1643 C1652 0.929 . S
C1644 H1638 0.930 . S
C1644 C1645 1.367 . S
C1644 C1652 1.378 . S
C1645 C1644 1.367 . S
C1645 C1653 1.433 . S
C1646 H1642 0.929 . S
C1646 C1648 1.378 . S
C1646 C1650 1.350 . S
C1647 C1650 1.463 . S
C1647 C1652 1.350 . S
C1647 N1655 1.427 . S
C1648 H1639 0.930 . S
C1648 C1646 1.378 . S
C1648 C1649 1.367 . S
C1649 C1648 1.367 . S
C1649 C1651 1.433 . S
C1650 C1646 1.350 . S
C1650 C1647 1.463 . S
C1650 N1654 1.427 . S
C1651 H1641 0.929 . S
C1651 C1649 1.433 . S
C1651 N1654 1.384 . S
C1652 H1643 0.929 . S
C1652 C1644 1.378 . S
C1652 C1647 1.350 . S
C1653 H1640 0.929 . S
C1653 C1645 1.433 . S
C1653 N1655 1.384 . S
N1654 C1650 1.427 . S
N1654 C1651 1.384 . S
N1655 C1647 1.427 . S
N1655 C1653 1.384 . S
C1015 C476 1.338 . S
C1019 C70 1.230 . S
C1033 C154 1.226 . S
C1037 C56 1.345 . S
C1051 C238 1.326 . S
C1055 C140 1.443 . S
C1069 C224 1.364 . S
C1073 C322 1.262 . S
C1087 C308 1.333 . S
C1091 C406 1.208 . S
C1105 C490 1.322 . S
C1109 C392 1.440 . S
C1123 C644 1.349 . S
C1127 C574 1.244 . S
C1141 C658 1.310 . S
C1145 C728 1.430 . S
C1159 C812 1.349 . S
C1163 C742 1.225 . S
C1177 C896 1.361 . S
C1181 C826 1.257 . S
C1195 C980 1.441 . S
C1199 C910 1.328 . S
C1213 C560 1.345 . S
C1217 C994 1.221 . S
C1231 C987 3.475 . S
C1235 C67 3.468 . S
C1249 C151 2.859 . S
C1253 C567 2.866 . S
C1267 C651 3.173 . S
C1271 C235 3.158 . S
C1285 C735 3.474 . S
C1289 C319 3.466 . S
C1303 C819 2.870 . S
C1307 C403 2.857 . S
C1321 C487 3.161 . S
C1325 C903 3.173 . S
C1339 C571 3.463 . S
C1343 C147 3.477 . S
C1357 C655 3.162 . S
C1361 C231 3.174 . S
C1375 C315 2.869 . S
C1379 C739 2.856 . S
C1393 C399 3.476 . S
C1397 C823 3.468 . S
C1411 C907 3.161 . S
C1415 C483 3.173 . S
C1429 C991 2.859 . S
C1433 C63 2.866 . S
C1447 C578 2.706 . S
C1451 C74 2.712 . S
C1465 C158 1.851 . S
C1469 C662 1.874 . S
C1483 C746 1.849 . S
C1487 C242 1.863 . S
C1501 C326 2.709 . S
C1505 C830 2.709 . S
C1519 C914 1.861 . S
C1523 C410 1.848 . S
C1537 C998 1.837 . S
C1541 C494 1.873 . S
C1555 C562 0.717 . S
C1559 C58 0.704 . S
C1573 C646 0.451 . S
C1577 C142 0.466 . S
C1591 C730 0.464 . S
C1595 C226 0.452 . S
C1609 C310 0.719 . S
C1613 C814 0.701 . S
C1627 C898 0.448 . S
C1631 C394 0.471 . S
C1645 C982 0.431 . S
C1649 C478 0.500 . S
