# Generated by pormake.
# Topology rkf, (6)-cn, num edge types: 1
# Building blocks:
#     Node 0, Type 0, BuildingBlock: BETDAH_clean_sbu_0, # of connection points: 6
#     Node 1, Type 0, BuildingBlock: BETDAH_clean_sbu_0, # of connection points: 6
#     Node 2, Type 0, BuildingBlock: BETDAH_clean_sbu_0, # of connection points: 6
#     Node 3, Type 0, BuildingBlock: BETDAH_clean_sbu_0, # of connection points: 6
#     Node 4, Type 0, BuildingBlock: BETDAH_clean_sbu_0, # of connection points: 6
#     Node 5, Type 0, BuildingBlock: BETDAH_clean_sbu_0, # of connection points: 6
#     Edge 6, Type (0, 0), BuildingBlock: OJICUG_clean_linker_0, # of connection points: 2
#     Edge 7, Type (0, 0), BuildingBlock: OJICUG_clean_linker_0, # of connection points: 2
#     Edge 8, Type (0, 0), BuildingBlock: OJICUG_clean_linker_0, # of connection points: 2
#     Edge 9, Type (0, 0), BuildingBlock: OJICUG_clean_linker_0, # of connection points: 2
#     Edge 10, Type (0, 0), BuildingBlock: OJICUG_clean_linker_0, # of connection points: 2
#     Edge 11, Type (0, 0), BuildingBlock: OJICUG_clean_linker_0, # of connection points: 2
#     Edge 12, Type (0, 0), BuildingBlock: OJICUG_clean_linker_0, # of connection points: 2
#     Edge 13, Type (0, 0), BuildingBlock: OJICUG_clean_linker_0, # of connection points: 2
#     Edge 14, Type (0, 0), BuildingBlock: OJICUG_clean_linker_0, # of connection points: 2
#     Edge 15, Type (0, 0), BuildingBlock: OJICUG_clean_linker_0, # of connection points: 2
#     Edge 16, Type (0, 0), BuildingBlock: OJICUG_clean_linker_0, # of connection points: 2
#     Edge 17, Type (0, 0), BuildingBlock: OJICUG_clean_linker_0, # of connection points: 2
#     Edge 18, Type (0, 0), BuildingBlock: OJICUG_clean_linker_0, # of connection points: 2
#     Edge 19, Type (0, 0), BuildingBlock: OJICUG_clean_linker_0, # of connection points: 2
#     Edge 20, Type (0, 0), BuildingBlock: OJICUG_clean_linker_0, # of connection points: 2
#     Edge 21, Type (0, 0), BuildingBlock: OJICUG_clean_linker_0, # of connection points: 2
#     Edge 22, Type (0, 0), BuildingBlock: OJICUG_clean_linker_0, # of connection points: 2
#     Edge 23, Type (0, 0), BuildingBlock: OJICUG_clean_linker_0, # of connection points: 2
# Relax obj value: 1.041
# Max RMSD: 0.248
# Mean RMSD: 0.248
data_MOF--net-rkf--node1-BETDAH_clean_sbu_0--edge1-OJICUG_clean_linker_0
_symmetry_space_group_name_H-M    P1
_symmetry_Int_Tables_number       1
_symmetry_cell_setting            triclinic
loop_
_symmetry_equiv_pos_as_xyz
'x, y, z'
_cell_length_a     20.930436
_cell_length_b     19.952743
_cell_length_c     31.602609
_cell_angle_alpha  90.062854
_cell_angle_beta   89.742743
_cell_angle_gamma 122.20639
loop_
_atom_site_label
_atom_site_type_symbol
_atom_site_fract_x
_atom_site_fract_y
_atom_site_fract_z
_atom_type_partial_charge
Ho0 Ho 0.26318 0.00625 0.26075 0.0
Ho1 Ho 0.32254 0.15957 1.22298 0.0
C2 C 0.30682 0.14492 0.32551 0.0
C3 C 0.25384 0.87373 0.27488 0.0
C4 C 0.28219 0.84209 0.30611 0.0
C5 C 0.26236 0.76328 0.30291 0.0
C6 C 0.26638 0.72445 0.33857 0.0
C7 C 0.28667 0.76366 0.37785 0.0
C8 C 0.32148 0.84668 0.37826 0.0
C9 C 0.31818 0.88561 0.34255 0.0
C10 C 0.16059 0.04824 0.26296 0.0
C11 C 0.2317 0.01491 1.15885 0.0
C12 C 0.37231 0.30503 1.20291 0.0
C13 C 0.35875 0.36804 1.21288 0.0
C14 C 0.29299 0.35245 1.23394 0.0
C15 C 0.27336 0.40951 1.23411 0.0
C16 C 0.3189 0.48212 1.21274 0.0
C17 C 0.38843 0.49953 1.19571 0.0
C18 C 0.40801 0.44297 1.19575 0.0
C19 C 0.42125 0.10985 1.22285 0.0
O20 O 0.30632 0.0784 0.32135 0.0
O21 O 0.30078 0.17955 0.2913 0.0
O22 O 0.20476 0.89005 0.28916 0.0
O23 O 0.30453 0.92883 0.25 0.0
O24 O 0.1663 0.00567 0.2921 0.0
O25 O 0.2051 0.06094 1.23247 0.0
O26 O 0.26401 0.09227 1.16349 0.0
O27 O 0.22705 -0.02915 1.19158 0.0
O28 O 0.31816 0.2441 1.18278 0.0
O29 O 0.40239 0.2851 1.23245 0.0
O30 O 0.40906 0.14152 1.19083 0.0
O31 O 0.38026 0.10578 0.25329 0.0
H32 H 0.23644 0.72959 0.27436 0.0
H33 H 0.2416 0.661 0.33703 0.0
H34 H 0.33961 0.8796 0.40763 0.0
H35 H 0.33578 0.94734 0.34496 0.0
H36 H 0.25453 0.2946 0.24762 0.0
H37 H 0.21975 0.39434 0.24784 0.0
H38 H 0.42408 0.55348 1.17807 0.0
H39 H 0.45878 0.45551 1.17928 0.0
Ho40 Ho 0.35672 0.30774 0.59618 0.0
Ho41 Ho 0.24345 0.34579 0.56184 0.0
C42 C 0.26541 0.33939 0.66508 0.0
C43 C 0.48417 0.3177 0.60552 0.0
C44 C 0.53887 0.33682 0.63919 0.0
C45 C 0.59512 0.31967 0.63365 0.0
C46 C 0.63264 0.31462 0.66878 0.0
C47 C 0.61249 0.32458 0.7098 0.0
C48 C 0.56459 0.35401 0.71409 0.0
C49 C 0.5276 0.35948 0.67899 0.0
C50 C 0.21242 0.18827 0.5997 0.0
C51 C 0.30679 0.27816 0.493 0.0
C52 C 0.12634 0.35666 0.55814 0.0
C53 C 0.07723 0.37983 0.53899 0.0
C54 C 0.00107 0.32128 0.53263 0.0
C55 C -0.04886 0.34152 0.51748 0.0
C56 C -0.02351 0.42091 0.50862 0.0
C57 C 0.05226 0.47994 0.51659 0.0
C58 C 0.10232 0.45961 0.53165 0.0
C59 C 0.38917 0.46561 0.55964 0.0
O60 O 0.33117 0.34533 0.65898 0.0
O61 O 0.22042 0.32674 0.63264 0.0
O62 O 0.41833 0.25239 0.61146 0.0
O63 O 0.47863 0.37612 0.59156 0.0
O64 O 0.26124 0.19827 0.6285 0.0
O65 O 0.24422 0.23809 0.57042 0.0
O66 O 0.25712 0.29927 0.49961 0.0
O67 O 0.35063 0.28023 0.52438 0.0
O68 O 0.19149 0.41234 0.57318 0.0
O69 O 0.12698 0.29593 0.54288 0.0
O70 O 0.34112 0.45395 0.53014 0.0
O71 O 0.35636 0.41626 0.5891 0.0
H72 H 0.60526 0.30337 0.60276 0.0
H73 H 0.67078 0.29409 0.66423 0.0
H74 H 0.54759 0.36302 0.7449 0.0
H75 H 0.48488 0.37386 0.68358 0.0
H76 H -0.01981 0.25959 0.53916 0.0
H77 H 0.89355 0.29451 0.51082 0.0
H78 H 0.07322 0.54154 0.50998 0.0
H79 H 0.16047 0.5062 0.53731 0.0
Ho80 Ho 0.12791 0.38963 0.93057 0.0
Ho81 Ho -0.01701 0.26353 0.88853 0.0
C82 C -0.01305 0.27983 0.99243 0.0
C83 C 0.23737 0.52578 0.95561 0.0
C84 C 0.24715 0.56814 0.9955 0.0
C85 C 0.18405 0.55889 1.01707 0.0
C86 C 0.18913 0.57879 1.05983 0.0
C87 C 0.25693 0.6065 1.08185 0.0
C88 C 0.32212 0.62486 1.05869 0.0
C89 C 0.31711 0.60553 1.01585 0.0
C90 C 0.10101 0.24321 0.93429 0.0
C91 C 0.13184 0.34131 0.82984 0.0
C92 C 0.85754 0.13693 0.86739 0.0
C93 C 0.77518 0.09703 0.87432 0.0
C94 C 0.73251 0.1162 0.84885 0.0
C95 C 0.6545 0.06517 0.84634 0.0
C96 C 0.6169 -0.00707 0.86898 0.0
C97 C 0.65864 -0.01954 0.89939 0.0
C98 C 0.73722 0.03132 0.90151 0.0
C99 C 0.00758 0.41139 0.88892 0.0
O100 O 0.05285 0.34839 0.98936 0.0
O101 O -0.04732 0.23706 0.95829 0.0
O102 O 0.23766 0.46058 0.95956 0.0
O103 O 0.18361 0.51719 0.93069 0.0
O104 O 0.13459 0.29414 0.96472 0.0
O105 O 0.0894 0.27448 0.90325 0.0
O106 O 0.06271 0.279 0.83596 0.0
O107 O 0.16661 0.39491 0.86066 0.0
O108 O 0.89874 0.13948 0.89907 0.0
O109 O 0.8906 0.20207 0.8449 0.0
O110 O -0.02321 0.36235 0.8578 0.0
O111 O 0.01947 0.37798 0.9188 0.0
H112 H 0.12931 0.53009 1.00201 0.0
H113 H 0.13822 0.56496 1.07657 0.0
H114 H 0.37531 0.64566 1.07448 0.0
H115 H 0.36638 0.61311 0.99975 0.0
H116 H 0.7597 0.1671 0.82794 0.0
H117 H 0.62608 0.07909 0.82279 0.0
H118 H 0.63195 0.92785 0.91898 0.0
H119 H 0.76858 0.01585 0.9222 0.0
Ho120 Ho 0.82095 0.15741 0.2606 0.0
Ho121 Ho 0.76458 0.00107 1.22621 0.0
C122 C 0.78187 0.02508 0.32876 0.0
C123 C 0.82538 0.28791 0.27264 0.0
C124 C 0.79595 0.31678 0.30504 0.0
C125 C 0.81612 0.39584 0.30426 0.0
C126 C 0.81109 0.43107 0.34129 0.0
C127 C 0.78989 0.3881 0.37952 0.0
C128 C 0.75495 0.30517 0.37763 0.0
C129 C 0.75889 0.26977 0.34052 0.0
C130 C -0.07345 0.11973 0.26309 0.0
C131 C 0.84843 0.14098 1.15838 0.0
C132 C 0.71446 0.8541 1.21026 0.0
C133 C 0.66306 0.79478 1.17964 0.0
C134 C 0.62419 0.71465 1.19074 0.0
C135 C 0.58037 0.65671 1.16086 0.0
C136 C 0.57473 0.67779 1.11912 0.0
C137 C 0.60978 0.759 1.10925 0.0
C138 C 0.65336 0.8169 1.13928 0.0
C139 C 0.66316 0.04663 1.22453 0.0
O140 O 0.78108 0.09052 0.32308 0.0
O141 O 0.78797 -0.01147 0.29537 0.0
O142 O 0.87806 0.27619 0.28556 0.0
O143 O 0.77473 0.23012 0.24919 0.0
O144 O -0.07959 0.16328 0.29152 0.0
O145 O 0.88055 0.10361 1.2332 0.0
O146 O 0.81665 0.06379 1.16423 0.0
O147 O 0.85458 0.18707 1.19054 0.0
O148 O 0.68294 0.87696 1.23749 0.0
O149 O 0.77856 0.91286 1.19546 0.0
O150 O 0.67548 0.01296 1.19333 0.0
O151 O 0.70538 0.0546 0.25502 0.0
H152 H 0.84296 0.43229 0.27652 0.0
H153 H 0.83575 0.49455 0.3415 0.0
H154 H 0.73605 0.26936 0.40608 0.0
H155 H 0.74106 0.20784 0.34108 0.0
H156 H 0.62999 0.69671 1.22213 0.0
H157 H 0.55422 0.59544 1.1701 0.0
H158 H 0.60841 0.77855 1.07754 0.0
H159 H 0.68208 0.87884 1.13042 0.0
Ho160 Ho 0.74328 0.87153 0.60221 0.0
Ho161 Ho 0.85252 0.83115 0.5643 0.0
C162 C 0.83656 0.83585 0.66748 0.0
C163 C 0.61904 0.86397 0.62065 0.0
C164 C 0.57 0.83644 0.65815 0.0
C165 C 0.50986 0.84804 0.66178 0.0
C166 C 0.47278 0.83574 0.7007 0.0
C167 C 0.49693 0.81381 0.73685 0.0
C168 C 0.55212 0.79416 0.73122 0.0
C169 C 0.588 0.80532 0.69235 0.0
C170 C 0.88891 -0.01044 0.6034 0.0
C171 C 0.78785 0.90159 0.49823 0.0
C172 C -0.03366 0.81538 0.55678 0.0
C173 C 0.01055 0.78622 0.53729 0.0
C174 C 0.08815 0.83973 0.53165 0.0
C175 C 0.13374 0.81374 0.51634 0.0
C176 C 0.10247 0.73348 0.50645 0.0
C177 C 0.02491 0.67931 0.51348 0.0
C178 C -0.0208 0.70547 0.52881 0.0
C179 C 0.70588 0.71389 0.56211 0.0
O180 O 0.77019 0.82872 0.66261 0.0
O181 O 0.88112 0.85132 0.63431 0.0
O182 O 0.68618 0.92731 0.62655 0.0
O183 O 0.62143 0.80904 0.59936 0.0
O184 O 0.84192 -0.02037 0.63353 0.0
O185 O 0.85496 0.94033 0.57434 0.0
O186 O 0.83746 0.88011 0.50359 0.0
O187 O 0.74537 0.90009 0.53061 0.0
O188 O 0.90353 0.76414 0.57611 0.0
O189 O -0.03502 0.87416 0.53929 0.0
O190 O 0.75379 0.72598 0.53225 0.0
O191 O 0.73929 0.76092 0.59239 0.0
H192 H 0.49426 0.87065 0.63523 0.0
H193 H 0.42883 0.84866 0.70289 0.0
H194 H 0.57357 0.77723 0.75744 0.0
H195 H 0.63362 0.79485 0.68988 0.0
H196 H 0.11357 0.90199 0.53896 0.0
H197 H 0.19283 0.85729 0.51034 0.0
H198 H -0.00066 0.61718 0.506 0.0
H199 H -0.08041 0.66275 0.53384 0.0
Ho200 Ho -0.04202 0.76372 0.93157 0.0
Ho201 Ho 0.1078 0.88432 0.89285 0.0
C202 C 0.09099 0.87226 0.99469 0.0
C203 C 0.83497 0.6295 0.94704 0.0
C204 C 0.75398 0.5984 0.94418 0.0
C205 C 0.70205 0.52016 0.95652 0.0
C206 C 0.62996 0.49858 0.97035 0.0
C207 C 0.61086 0.5563 0.97367 0.0
C208 C 0.65821 0.63002 0.95359 0.0
C209 C 0.72959 0.65101 0.93908 0.0
C210 C -0.01338 0.91123 0.93498 0.0
C211 C -0.03382 0.81997 0.83041 0.0
C212 C 0.24346 0.00461 0.88136 0.0
C213 C 0.31837 0.03074 0.86385 0.0
C214 C 0.32851 0.01981 0.82115 0.0
C215 C 0.40107 0.05822 0.80386 0.0
C216 C 0.46474 0.10831 0.82896 0.0
C217 C 0.45451 0.11328 0.87252 0.0
C218 C 0.38183 0.07498 0.88975 0.0
C219 C 0.07314 0.73249 0.88984 0.0
O220 O 0.03371 0.7981 0.98959 0.0
O221 O 0.11779 0.92007 0.96164 0.0
O222 O 0.87265 0.64457 0.91154 0.0
O223 O 0.87047 0.68572 0.97508 0.0
O224 O -0.05608 0.85762 0.96278 0.0
O225 O 0.00352 0.88115 0.90563 0.0
O226 O 0.03889 0.87432 0.83583 0.0
O227 O -0.07464 0.77023 0.86194 0.0
O228 O 0.22257 0.95853 0.91444 0.0
O229 O 0.18789 -0.01433 0.85523 0.0
O230 O 0.10957 0.78412 0.86025 0.0
O231 O 0.06201 0.76543 0.92036 0.0
H232 H 0.71967 0.47828 0.95982 0.0
H233 H 0.59356 0.44015 0.98386 0.0
H234 H 0.6456 0.67602 0.95458 0.0
H235 H 0.76884 0.71144 0.92888 0.0
H236 H 0.28045 -0.01457 0.8006 0.0
H237 H 0.40645 0.05346 0.77007 0.0
H238 H 0.50228 0.15053 0.89274 0.0
H239 H 0.37503 0.08356 0.92296 0.0
C240 C 0.01685 0.0953 0.30099 0.0
C241 C -0.01317 0.10209 0.26274 0.0
H242 H 0.09454 0.07129 0.3309 0.0
C243 C 0.01483 0.09178 1.22439 0.0
H244 H -0.00397 0.10272 0.33096 0.0
C245 C 0.07259 0.07598 1.22433 0.0
C246 C 0.10146 0.06754 0.26265 0.0
H247 H -0.00722 0.097 1.19446 0.0
H248 H 0.09364 0.06885 1.19436 0.0
C249 C 0.07288 0.07705 0.30095 0.0
C250 C 0.01227 0.066 0.6421 0.0
C251 C -0.02854 0.04248 0.60408 0.0
H252 H 0.12245 0.12956 0.67065 0.0
C253 C 0.01044 0.06508 0.56539 0.0
H254 H -0.0169 0.04811 0.67229 0.0
C255 C 0.08885 0.1114 0.56447 0.0
C256 C 0.13006 0.13462 0.60221 0.0
H257 H -0.01985 0.0472 0.53566 0.0
H258 H 0.11739 0.12904 0.53407 0.0
C259 C 0.09152 0.1113 0.64116 0.0
C260 C 0.02302 0.03526 0.97449 0.0
C261 C 0.0126 -0.00474 0.93612 0.0
H262 H 0.0619 0.14767 1.00417 0.0
C263 C 0.03242 0.03731 0.89789 0.0
H264 H 0.00882 0.00366 1.00432 0.0
C265 C 0.06174 0.11816 0.89777 0.0
C266 C 0.07337 0.15878 0.93594 0.0
H267 H 0.02506 0.00757 0.86793 0.0
H268 H 0.07589 0.1491 0.86772 0.0
C269 C 0.05415 0.11721 0.97444 0.0
C270 C 0.21485 0.488 1.17941 0.0
C271 C 0.2872 0.52904 1.1975 0.0
H272 H 0.14746 0.48206 1.12776 0.0
C273 C 0.33598 0.60981 1.18746 0.0
H274 H 0.17468 0.42635 1.18691 0.0
C275 C 0.32063 0.642 1.1526 0.0
C276 C 0.25567 0.59403 1.12828 0.0
H277 H 0.39089 0.64431 1.20225 0.0
H278 H 0.36401 0.70032 1.14147 0.0
C279 C 0.19913 0.52038 1.14497 0.0
C280 C -0.04186 0.48248 0.44613 0.0
C281 C -0.0718 0.43901 0.48347 0.0
H282 H -0.06317 0.50669 0.38458 0.0
C283 C 0.85001 0.39974 0.49088 0.0
H284 H 0.01751 0.5103 0.43878 0.0
C285 C 0.80201 0.39439 0.45855 0.0
C286 C 0.8321 0.42801 0.41865 0.0
H287 H 0.82558 0.36645 0.51981 0.0
H288 H 0.74156 0.35565 0.46292 0.0
C289 C -0.08918 0.47941 0.41459 0.0
C290 C 0.50092 0.94004 0.82414 0.0
C291 C 0.54394 0.92504 0.85215 0.0
H292 H 0.45258 0.91713 0.76287 0.0
C293 C 0.53225 0.84865 0.85119 0.0
H294 H 0.50121 -0.00586 0.8265 0.0
C295 C 0.49845 0.80025 0.81593 0.0
C296 C 0.48049 0.83003 0.78062 0.0
H297 H 0.55868 0.83038 0.87381 0.0
H298 H 0.4982 0.74595 0.81378 0.0
C299 C 0.47153 0.89437 0.78757 0.0
C300 C 0.56229 0.55758 1.08583 0.0
C301 C 0.54695 0.61813 1.08433 0.0
H302 H 0.59137 0.48675 1.05115 0.0
C303 C 0.52222 0.63164 1.04571 0.0
H304 H 0.57971 0.54308 1.11478 0.0
C305 C 0.52947 0.59877 1.00823 0.0
C306 C 0.5616 0.55223 1.00911 0.0
H307 H 0.50542 0.6743 1.04366 0.0
H308 H 0.51933 0.6181 0.97839 0.0
C309 C 0.56884 0.5244 1.04859 0.0
C310 C 0.22508 0.74472 0.48915 0.0
C311 C 0.14766 0.71074 0.48131 0.0
H312 H 0.33334 0.78541 0.46128 0.0
C313 C 0.11731 0.66992 0.44339 0.0
H314 H 0.24971 0.77548 0.51858 0.0
C315 C 0.1643 0.67194 0.41165 0.0
C316 C 0.24318 0.72013 0.41616 0.0
H317 H 0.05854 0.64546 0.43584 0.0
H318 H 0.13872 0.64757 0.38124 0.0
C319 C 0.27284 0.74939 0.4566 0.0
C320 C 0.55801 0.145 0.77022 0.0
C321 C 0.53732 0.16595 0.80792 0.0
H322 H 0.60288 0.18201 0.70835 0.0
C323 C 0.5736 0.24675 0.81839 0.0
H324 H 0.53384 0.08333 0.76207 0.0
C325 C 0.6153 0.30432 0.78767 0.0
C326 C 0.61866 0.28103 0.74614 0.0
H327 H 0.56096 0.26547 0.84773 0.0
H328 H 0.63367 0.36524 0.79449 0.0
C329 C 0.5988 0.20239 0.73941 0.0
C330 C 0.51208 0.08311 1.1865 0.0
C331 C 0.4823 0.09243 1.22442 0.0
H332 H 0.59126 0.06052 1.157 0.0
C333 C 0.51291 0.08702 0.26295 0.0
H334 H 0.48986 0.08686 1.1563 0.0
C335 C 0.57277 0.07382 0.26331 0.0
C336 C 0.6018 0.06365 1.2252 0.0
H337 H 0.49139 0.09418 0.29272 0.0
H338 H 0.59564 0.07055 0.29337 0.0
C339 C 0.57032 0.06804 1.1869 0.0
C340 C 0.50783 0.55922 0.59881 0.0
C341 C 0.46976 0.53022 0.56017 0.0
H342 H 0.6121 0.64178 0.6297 0.0
C343 C 0.50967 0.56262 0.52222 0.0
H344 H 0.4783 0.53529 0.62854 0.0
C345 C 0.58673 0.62177 0.52288 0.0
C346 C 0.62461 0.65125 0.56152 0.0
H347 H 0.48167 0.54109 0.49203 0.0
H348 H 0.61653 0.64509 0.49317 0.0
C349 C 0.58424 0.62009 0.59949 0.0
C350 C 0.03579 0.53463 0.85135 0.0
C351 C 0.02408 0.49337 0.88947 0.0
H352 H 0.06204 0.64331 0.82173 0.0
C353 C 0.0281 0.53108 0.92783 0.0
H354 H 0.0331 0.50696 0.82134 0.0
C355 C 0.04292 0.60844 0.92801 0.0
C356 C 0.05589 0.65017 0.88987 0.0
H357 H 0.01865 0.5003 0.95762 0.0
H358 H 0.04518 0.63596 0.958 0.0
C359 C 0.05253 0.61263 0.85158 0.0
C360 C 0.28163 0.23044 0.37379 0.0
C361 C 0.3083 0.17911 0.36864 0.0
H362 H 0.25935 0.30046 0.41596 0.0
C363 C 0.33585 0.16179 0.405 0.0
H364 H 0.25952 0.24526 0.34691 0.0
C365 C 0.33728 0.19526 0.44486 0.0
C366 C 0.30954 0.24574 0.45002 0.0
H367 H 0.35698 0.1228 0.40262 0.0
H368 H 0.35885 0.18021 0.4719 0.0
C369 C 0.28143 0.2623 0.41368 0.0
C370 C 0.28149 0.3823 0.74357 0.0
C371 C 0.23534 0.34043 0.7086 0.0
H372 H 0.28629 0.41789 0.80891 0.0
C373 C 0.15657 0.3012 0.71447 0.0
H374 H 0.34233 0.41385 0.74042 0.0
C375 C 0.12483 0.30305 0.75331 0.0
C376 C 0.17008 0.34527 0.78827 0.0
H377 H 0.11851 0.26806 0.68878 0.0
H378 H 0.06385 0.27116 0.75576 0.0
C379 C 0.24929 0.38533 0.78278 0.0
C380 C 0.89532 0.16475 1.03943 0.0
C381 C -0.04908 0.24622 1.03513 0.0
H382 H 0.82074 0.06818 1.08064 0.0
C383 C -0.02812 0.29299 1.07203 0.0
H384 H 0.87773 0.12611 1.01213 0.0
C385 C -0.06218 0.25948 1.11161 0.0
C386 C 0.88283 0.17774 1.11586 0.0
H387 H 0.01446 0.35568 1.07035 0.0
H388 H -0.04431 0.29761 1.13912 0.0
C389 C 0.86251 0.13111 1.07901 0.0
C390 C 0.75558 0.01357 0.40896 0.0
C391 C 0.78191 -0.00593 0.37262 0.0
H392 H 0.73487 -0.00099 0.47639 0.0
C393 C 0.80872 0.94307 0.3784 0.0
H394 H 0.73439 0.05242 0.40614 0.0
C395 C 0.81011 0.9135 0.41869 0.0
C396 C 0.7833 0.93215 0.45504 0.0
H397 H 0.82995 0.92657 0.35164 0.0
H398 H 0.83215 0.87537 0.42124 0.0
C399 C 0.75548 -0.01758 0.44939 0.0
C400 C -0.05506 0.86536 0.71526 0.0
C401 C 0.86659 0.83157 0.71032 0.0
H402 H 0.03647 0.88824 0.75553 0.0
C403 C 0.82005 0.79235 0.74578 0.0
H404 H -0.01667 0.89642 0.68918 0.0
C405 C 0.85119 0.78648 0.7845 0.0
C406 C -0.07009 0.82085 0.78913 0.0
H407 H 0.75953 0.76518 0.74345 0.0
H408 H 0.81368 0.75594 0.81097 0.0
C409 C -0.02418 0.86062 0.75373 0.0
C410 C 0.17292 -0.01084 1.04226 0.0
C411 C 0.1251 0.90629 1.03747 0.0
H412 H 0.24286 0.08742 1.08304 0.0
C413 C 0.11271 0.85891 1.0734 0.0
H414 H 0.18404 0.02831 1.01574 0.0
C415 C 0.14772 0.8935 1.11254 0.0
C416 C 0.19546 -0.02342 1.11711 0.0
H417 H 0.07661 0.79507 1.07121 0.0
H418 H 0.13685 0.85501 1.13934 0.0
C419 C 0.20699 0.02351 1.08121 0.0
loop_
_geom_bond_atom_site_label_1
_geom_bond_atom_site_label_2
_geom_bond_distance
_geom_bond_site_symmetry_2
_ccdc_geom_bond_type
Ho0 C3 2.811 . S
Ho0 O20 2.322 . S
Ho0 O22 2.378 . S
Ho0 O23 2.524 . S
Ho0 O24 2.381 . S
Ho0 O25 2.669 . S
Ho0 O27 2.346 1_554 S
Ho0 O31 2.305 . S
Ho1 C12 2.811 . S
Ho1 O21 2.346 1_556 S
Ho1 O25 2.305 1_556 S
Ho1 O26 2.322 . S
Ho1 O28 2.378 . S
Ho1 O29 2.524 . S
Ho1 O30 2.381 . S
Ho1 O31 2.669 1_556 S
C2 O20 1.259 . S
C2 O21 1.268 . S
C3 Ho0 2.811 . S
C3 C4 1.488 . S
C3 O22 1.215 . S
C3 O23 1.289 . S
C4 C3 1.488 . S
C4 C5 1.348 . S
C4 C9 1.413 1_545 S
C5 C4 1.348 . S
C5 C6 1.442 . S
C5 H32 0.930 . S
C6 C5 1.442 . S
C6 C7 1.381 1_545 S
C6 H33 0.931 . S
C7 C6 1.381 1_565 S
C7 C8 1.321 . S
C8 C7 1.321 . S
C8 C9 1.403 . S
C8 H34 0.934 . S
C9 C4 1.413 1_565 S
C9 C8 1.403 . S
C9 H35 0.930 . S
C10 O24 1.275 . S
C10 O25 1.256 . S
C11 O26 1.259 . S
C11 O27 1.268 . S
C12 Ho1 2.811 . S
C12 C13 1.488 . S
C12 O28 1.215 . S
C12 O29 1.289 . S
C13 C12 1.488 . S
C13 C14 1.348 . S
C13 C18 1.413 . S
C14 C13 1.348 . S
C14 C15 1.442 . S
C14 H36 0.930 . S
C15 C14 1.442 . S
C15 C16 1.381 . S
C15 H37 0.931 . S
C16 C15 1.381 . S
C16 C17 1.321 . S
C17 C16 1.321 . S
C17 C18 1.403 . S
C17 H38 0.934 . S
C18 C13 1.413 . S
C18 C17 1.403 . S
C18 H39 0.930 . S
C19 O30 1.275 1_554 S
C19 O31 1.256 . S
O20 Ho0 2.322 . S
O20 C2 1.259 . S
O21 Ho1 2.346 1_554 S
O21 C2 1.268 . S
O22 Ho0 2.378 . S
O22 C3 1.215 . S
O23 Ho0 2.524 . S
O23 C3 1.289 . S
O24 Ho0 2.381 . S
O24 C10 1.275 . S
O25 Ho0 2.669 . S
O25 Ho1 2.305 1_554 S
O25 C10 1.256 . S
O26 Ho1 2.322 . S
O26 C11 1.259 . S
O27 Ho0 2.346 1_556 S
O27 C11 1.268 . S
O28 Ho1 2.378 . S
O28 C12 1.215 . S
O29 Ho1 2.524 . S
O29 C12 1.289 . S
O30 Ho1 2.381 . S
O30 C19 1.275 1_556 S
O31 Ho0 2.305 . S
O31 Ho1 2.669 1_554 S
O31 C19 1.256 . S
H32 C5 0.930 . S
H33 C6 0.931 . S
H34 C8 0.934 . S
H35 C9 0.930 . S
H36 C14 0.930 . S
H37 C15 0.931 . S
H38 C17 0.934 . S
H39 C18 0.930 . S
Ho40 C43 2.811 . S
Ho40 O60 2.322 . S
Ho40 O62 2.378 . S
Ho40 O63 2.524 . S
Ho40 O64 2.381 . S
Ho40 O65 2.669 . S
Ho40 O67 2.346 . S
Ho40 O71 2.305 . S
Ho41 C52 2.811 . S
Ho41 O61 2.346 . S
Ho41 O65 2.305 . S
Ho41 O66 2.322 . S
Ho41 O68 2.378 . S
Ho41 O69 2.524 . S
Ho41 O70 2.381 . S
Ho41 O71 2.669 . S
C42 O60 1.259 . S
C42 O61 1.268 . S
C43 Ho40 2.811 . S
C43 C44 1.488 . S
C43 O62 1.215 . S
C43 O63 1.289 . S
C44 C43 1.488 . S
C44 C45 1.348 . S
C44 C49 1.413 . S
C45 C44 1.348 . S
C45 C46 1.442 . S
C45 H72 0.930 . S
C46 C45 1.442 . S
C46 C47 1.381 . S
C46 H73 0.931 . S
C47 C46 1.381 . S
C47 C48 1.321 . S
C48 C47 1.321 . S
C48 C49 1.403 . S
C48 H74 0.934 . S
C49 C44 1.413 . S
C49 C48 1.403 . S
C49 H75 0.930 . S
C50 O64 1.275 . S
C50 O65 1.256 . S
C51 O66 1.259 . S
C51 O67 1.268 . S
C52 Ho41 2.811 . S
C52 C53 1.488 . S
C52 O68 1.215 . S
C52 O69 1.289 . S
C53 C52 1.488 . S
C53 C54 1.348 . S
C53 C58 1.413 . S
C54 C53 1.348 . S
C54 C55 1.442 . S
C54 H76 0.930 . S
C55 C54 1.442 . S
C55 C56 1.381 . S
C55 H77 0.931 . S
C56 C55 1.381 . S
C56 C57 1.321 . S
C57 C56 1.321 . S
C57 C58 1.403 . S
C57 H78 0.934 . S
C58 C53 1.413 . S
C58 C57 1.403 . S
C58 H79 0.930 . S
C59 O70 1.275 . S
C59 O71 1.256 . S
O60 Ho40 2.322 . S
O60 C42 1.259 . S
O61 Ho41 2.346 . S
O61 C42 1.268 . S
O62 Ho40 2.378 . S
O62 C43 1.215 . S
O63 Ho40 2.524 . S
O63 C43 1.289 . S
O64 Ho40 2.381 . S
O64 C50 1.275 . S
O65 Ho40 2.669 . S
O65 Ho41 2.305 . S
O65 C50 1.256 . S
O66 Ho41 2.322 . S
O66 C51 1.259 . S
O67 Ho40 2.346 . S
O67 C51 1.268 . S
O68 Ho41 2.378 . S
O68 C52 1.215 . S
O69 Ho41 2.524 . S
O69 C52 1.289 . S
O70 Ho41 2.381 . S
O70 C59 1.275 . S
O71 Ho40 2.305 . S
O71 Ho41 2.669 . S
O71 C59 1.256 . S
H72 C45 0.930 . S
H73 C46 0.931 . S
H74 C48 0.934 . S
H75 C49 0.930 . S
H76 C54 0.930 . S
H77 C55 0.931 . S
H78 C57 0.934 . S
H79 C58 0.930 . S
Ho80 C83 2.811 . S
Ho80 O100 2.322 . S
Ho80 O102 2.378 . S
Ho80 O103 2.524 . S
Ho80 O104 2.381 . S
Ho80 O105 2.669 . S
Ho80 O107 2.346 . S
Ho80 O111 2.305 . S
Ho81 C92 2.811 . S
Ho81 O101 2.346 . S
Ho81 O105 2.305 1_655 S
Ho81 O106 2.322 1_655 S
Ho81 O108 2.378 . S
Ho81 O109 2.524 . S
Ho81 O110 2.381 . S
Ho81 O111 2.669 1_655 S
C82 O100 1.259 1_655 S
C82 O101 1.268 . S
C83 Ho80 2.811 . S
C83 C84 1.488 . S
C83 O102 1.215 . S
C83 O103 1.289 . S
C84 C83 1.488 . S
C84 C85 1.348 . S
C84 C89 1.413 . S
C85 C84 1.348 . S
C85 C86 1.442 . S
C85 H112 0.930 . S
C86 C85 1.442 . S
C86 C87 1.381 . S
C86 H113 0.931 . S
C87 C86 1.381 . S
C87 C88 1.321 . S
C88 C87 1.321 . S
C88 C89 1.403 . S
C88 H114 0.934 . S
C89 C84 1.413 . S
C89 C88 1.403 . S
C89 H115 0.930 . S
C90 O104 1.275 . S
C90 O105 1.256 . S
C91 O106 1.259 . S
C91 O107 1.268 . S
C92 Ho81 2.811 . S
C92 C93 1.488 . S
C92 O108 1.215 . S
C92 O109 1.289 . S
C93 C92 1.488 . S
C93 C94 1.348 . S
C93 C98 1.413 . S
C94 C93 1.348 . S
C94 C95 1.442 . S
C94 H116 0.930 . S
C95 C94 1.442 . S
C95 C96 1.381 . S
C95 H117 0.931 . S
C96 C95 1.381 . S
C96 C97 1.321 . S
C97 C96 1.321 . S
C97 C98 1.403 . S
C97 H118 0.934 . S
C98 C93 1.413 . S
C98 C97 1.403 . S
C98 H119 0.930 . S
C99 O110 1.275 . S
C99 O111 1.256 1_655 S
O100 Ho80 2.322 . S
O100 C82 1.259 1_455 S
O101 Ho81 2.346 . S
O101 C82 1.268 . S
O102 Ho80 2.378 . S
O102 C83 1.215 . S
O103 Ho80 2.524 . S
O103 C83 1.289 . S
O104 Ho80 2.381 . S
O104 C90 1.275 . S
O105 Ho80 2.669 . S
O105 Ho81 2.305 1_455 S
O105 C90 1.256 . S
O106 Ho81 2.322 1_455 S
O106 C91 1.259 . S
O107 Ho80 2.346 . S
O107 C91 1.268 . S
O108 Ho81 2.378 . S
O108 C92 1.215 . S
O109 Ho81 2.524 . S
O109 C92 1.289 . S
O110 Ho81 2.381 . S
O110 C99 1.275 . S
O111 Ho80 2.305 . S
O111 Ho81 2.669 1_455 S
O111 C99 1.256 1_455 S
H112 C85 0.930 . S
H113 C86 0.931 . S
H114 C88 0.934 . S
H115 C89 0.930 . S
H116 C94 0.930 . S
H117 C95 0.931 . S
H118 C97 0.934 . S
H119 C98 0.930 . S
Ho120 C123 2.811 . S
Ho120 O140 2.322 1_545 S
Ho120 O142 2.378 . S
Ho120 O143 2.524 . S
Ho120 O144 2.381 . S
Ho120 O145 2.669 1_545 S
Ho120 O147 2.346 1_554 S
Ho120 O151 2.305 . S
Ho121 C132 2.811 . S
Ho121 O141 2.346 1_556 S
Ho121 O145 2.305 1_556 S
Ho121 O146 2.322 1_565 S
Ho121 O148 2.378 . S
Ho121 O149 2.524 . S
Ho121 O150 2.381 . S
Ho121 O151 2.669 1_566 S
C122 O140 1.259 . S
C122 O141 1.268 . S
C123 Ho120 2.811 . S
C123 C124 1.488 . S
C123 O142 1.215 . S
C123 O143 1.289 . S
C124 C123 1.488 . S
C124 C125 1.348 . S
C124 C129 1.413 . S
C125 C124 1.348 . S
C125 C126 1.442 . S
C125 H152 0.930 . S
C126 C125 1.442 . S
C126 C127 1.381 . S
C126 H153 0.931 . S
C127 C126 1.381 . S
C127 C128 1.321 . S
C128 C127 1.321 . S
C128 C129 1.403 . S
C128 H154 0.934 1_655 S
C129 C124 1.413 . S
C129 C128 1.403 . S
C129 H155 0.930 . S
C130 O144 1.275 . S
C130 O145 1.256 1_545 S
C131 O146 1.259 . S
C131 O147 1.268 . S
C132 Ho121 2.811 . S
C132 C133 1.488 . S
C132 O148 1.215 . S
C132 O149 1.289 . S
C133 C132 1.488 . S
C133 C134 1.348 . S
C133 C138 1.413 . S
C134 C133 1.348 . S
C134 C135 1.442 . S
C134 H156 0.930 . S
C135 C134 1.442 . S
C135 C136 1.381 . S
C135 H157 0.931 . S
C136 C135 1.381 . S
C136 C137 1.321 . S
C137 C136 1.321 . S
C137 C138 1.403 . S
C137 H158 0.934 . S
C138 C133 1.413 . S
C138 C137 1.403 . S
C138 H159 0.930 . S
C139 O150 1.275 1_554 S
C139 O151 1.256 1_565 S
O140 Ho120 2.322 1_565 S
O140 C122 1.259 . S
O141 Ho121 2.346 1_554 S
O141 C122 1.268 . S
O142 Ho120 2.378 . S
O142 C123 1.215 . S
O143 Ho120 2.524 . S
O143 C123 1.289 . S
O144 Ho120 2.381 . S
O144 C130 1.275 . S
O145 Ho120 2.669 1_565 S
O145 Ho121 2.305 1_554 S
O145 C130 1.256 1_565 S
O146 Ho121 2.322 1_545 S
O146 C131 1.259 . S
O147 Ho120 2.346 1_556 S
O147 C131 1.268 . S
O148 Ho121 2.378 . S
O148 C132 1.215 . S
O149 Ho121 2.524 . S
O149 C132 1.289 . S
O150 Ho121 2.381 . S
O150 C139 1.275 1_556 S
O151 Ho120 2.305 . S
O151 Ho121 2.669 1_544 S
O151 C139 1.256 1_545 S
H152 C125 0.930 . S
H153 C126 0.931 . S
H154 C128 0.934 1_455 S
H155 C129 0.930 . S
H156 C134 0.930 . S
H157 C135 0.931 . S
H158 C137 0.934 . S
H159 C138 0.930 . S
Ho160 C163 2.811 . S
Ho160 O180 2.322 . S
Ho160 O182 2.378 . S
Ho160 O183 2.524 . S
Ho160 O184 2.381 1_655 S
Ho160 O185 2.669 1_655 S
Ho160 O187 2.346 . S
Ho160 O191 2.305 . S
Ho161 C172 2.811 1_655 S
Ho161 O181 2.346 . S
Ho161 O185 2.305 1_655 S
Ho161 O186 2.322 . S
Ho161 O188 2.378 . S
Ho161 O189 2.524 1_655 S
Ho161 O190 2.381 . S
Ho161 O191 2.669 . S
C162 O180 1.259 . S
C162 O181 1.268 . S
C163 Ho160 2.811 . S
C163 C164 1.488 . S
C163 O182 1.215 . S
C163 O183 1.289 . S
C164 C163 1.488 . S
C164 C165 1.348 . S
C164 C169 1.413 . S
C165 C164 1.348 . S
C165 C166 1.442 . S
C165 H192 0.930 . S
C166 C165 1.442 . S
C166 C167 1.381 . S
C166 H193 0.931 . S
C167 C166 1.381 . S
C167 C168 1.321 . S
C168 C167 1.321 . S
C168 C169 1.403 . S
C168 H194 0.934 1_565 S
C169 C164 1.413 . S
C169 C168 1.403 . S
C169 H195 0.930 . S
C170 O184 1.275 . S
C170 O185 1.256 . S
C171 O186 1.259 . S
C171 O187 1.268 . S
C172 Ho161 2.811 1_455 S
C172 C173 1.488 . S
C172 O188 1.215 1_455 S
C172 O189 1.289 . S
C173 C172 1.488 . S
C173 C174 1.348 . S
C173 C178 1.413 . S
C174 C173 1.348 . S
C174 C175 1.442 . S
C174 H196 0.930 . S
C175 C174 1.442 . S
C175 C176 1.381 . S
C175 H197 0.931 . S
C176 C175 1.381 . S
C176 C177 1.321 . S
C177 C176 1.321 . S
C177 C178 1.403 . S
C177 H198 0.934 . S
C178 C173 1.413 . S
C178 C177 1.403 . S
C178 H199 0.930 1_455 S
C179 O190 1.275 . S
C179 O191 1.256 . S
O180 Ho160 2.322 . S
O180 C162 1.259 . S
O181 Ho161 2.346 . S
O181 C162 1.268 . S
O182 Ho160 2.378 . S
O182 C163 1.215 . S
O183 Ho160 2.524 . S
O183 C163 1.289 . S
O184 Ho160 2.381 1_455 S
O184 C170 1.275 . S
O185 Ho160 2.669 1_455 S
O185 Ho161 2.305 1_455 S
O185 C170 1.256 . S
O186 Ho161 2.322 . S
O186 C171 1.259 . S
O187 Ho160 2.346 . S
O187 C171 1.268 . S
O188 Ho161 2.378 . S
O188 C172 1.215 1_655 S
O189 Ho161 2.524 1_455 S
O189 C172 1.289 . S
O190 Ho161 2.381 . S
O190 C179 1.275 . S
O191 Ho160 2.305 . S
O191 Ho161 2.669 . S
O191 C179 1.256 . S
H192 C165 0.930 . S
H193 C166 0.931 . S
H194 C168 0.934 1_545 S
H195 C169 0.930 . S
H196 C174 0.930 . S
H197 C175 0.931 . S
H198 C177 0.934 . S
H199 C178 0.930 1_655 S
Ho200 C203 2.811 . S
Ho200 O220 2.322 . S
Ho200 O222 2.378 . S
Ho200 O223 2.524 . S
Ho200 O224 2.381 . S
Ho200 O225 2.670 1_565 S
Ho200 O227 2.346 . S
Ho200 O231 2.305 . S
Ho201 C212 2.811 1_565 S
Ho201 O221 2.346 . S
Ho201 O225 2.306 1_565 S
Ho201 O226 2.322 . S
Ho201 O228 2.378 . S
Ho201 O229 2.524 1_565 S
Ho201 O230 2.381 . S
Ho201 O231 2.669 . S
C202 O220 1.259 . S
C202 O221 1.268 . S
C203 Ho200 2.811 . S
C203 C204 1.488 . S
C203 O222 1.215 . S
C203 O223 1.289 . S
C204 C203 1.488 . S
C204 C205 1.348 . S
C204 C209 1.413 . S
C205 C204 1.348 . S
C205 C206 1.442 . S
C205 H232 0.930 . S
C206 C205 1.442 . S
C206 C207 1.381 1_455 S
C206 H233 0.931 . S
C207 C206 1.381 1_655 S
C207 C208 1.321 . S
C208 C207 1.321 . S
C208 C209 1.403 1_655 S
C208 H234 0.934 . S
C209 C204 1.413 . S
C209 C208 1.403 1_455 S
C209 H235 0.930 1_455 S
C210 O224 1.275 1_545 S
C210 O225 1.255 . S
C211 O226 1.259 . S
C211 O227 1.268 . S
C212 Ho201 2.811 1_545 S
C212 C213 1.488 . S
C212 O228 1.215 1_545 S
C212 O229 1.289 . S
C213 C212 1.488 . S
C213 C214 1.348 . S
C213 C218 1.413 . S
C214 C213 1.348 . S
C214 C215 1.442 . S
C214 H236 0.930 . S
C215 C214 1.442 . S
C215 C216 1.381 . S
C215 H237 0.931 . S
C216 C215 1.381 . S
C216 C217 1.321 . S
C217 C216 1.321 . S
C217 C218 1.403 . S
C217 H238 0.934 . S
C218 C213 1.413 . S
C218 C217 1.403 . S
C218 H239 0.930 1_545 S
C219 O230 1.275 . S
C219 O231 1.256 . S
O220 Ho200 2.322 . S
O220 C202 1.259 . S
O221 Ho201 2.346 . S
O221 C202 1.268 . S
O222 Ho200 2.378 . S
O222 C203 1.215 . S
O223 Ho200 2.524 . S
O223 C203 1.289 . S
O224 Ho200 2.381 . S
O224 C210 1.275 1_565 S
O225 Ho200 2.670 1_545 S
O225 Ho201 2.306 1_545 S
O225 C210 1.255 . S
O226 Ho201 2.322 . S
O226 C211 1.259 . S
O227 Ho200 2.346 . S
O227 C211 1.268 . S
O228 Ho201 2.378 . S
O228 C212 1.215 1_565 S
O229 Ho201 2.524 1_545 S
O229 C212 1.289 . S
O230 Ho201 2.381 . S
O230 C219 1.275 . S
O231 Ho200 2.305 . S
O231 Ho201 2.669 . S
O231 C219 1.256 . S
H232 C205 0.930 . S
H233 C206 0.931 . S
H234 C208 0.934 . S
H235 C209 0.930 1_655 S
H236 C214 0.930 . S
H237 C215 0.931 . S
H238 C217 0.934 . S
H239 C218 0.930 1_565 S
C240 C241 1.387 . S
C240 H244 0.950 . S
C240 C249 1.390 . S
C241 C240 1.387 . S
C241 C243 1.387 1_554 S
H242 C249 0.950 . S
C243 C241 1.387 1_556 S
C243 C245 1.390 . S
C243 H247 0.950 . S
H244 C240 0.950 . S
C245 C243 1.390 . S
C245 C246 1.387 1_556 S
C245 H248 0.950 . S
C246 C245 1.387 1_554 S
C246 C249 1.387 . S
H247 C243 0.950 . S
H248 C245 0.950 . S
C249 C240 1.390 . S
C249 H242 0.950 . S
C249 C246 1.387 . S
C250 C251 1.387 . S
C250 H254 0.950 . S
C250 C259 1.390 . S
C251 C250 1.387 . S
C251 C253 1.387 . S
H252 C259 0.950 . S
C253 C251 1.387 . S
C253 C255 1.390 . S
C253 H257 0.950 . S
H254 C250 0.950 . S
C255 C253 1.390 . S
C255 C256 1.387 . S
C255 H258 0.950 . S
C256 C255 1.387 . S
C256 C259 1.387 . S
H257 C253 0.950 . S
H258 C255 0.950 . S
C259 C250 1.390 . S
C259 H252 0.950 . S
C259 C256 1.387 . S
C260 C261 1.387 . S
C260 H264 0.950 . S
C260 C269 1.390 . S
C261 C260 1.387 . S
C261 C263 1.387 . S
H262 C269 0.950 . S
C263 C261 1.387 . S
C263 C265 1.390 . S
C263 H267 0.950 . S
H264 C260 0.950 . S
C265 C263 1.390 . S
C265 C266 1.387 . S
C265 H268 0.950 . S
C266 C265 1.387 . S
C266 C269 1.387 . S
H267 C263 0.950 . S
H268 C265 0.950 . S
C269 C260 1.390 . S
C269 H262 0.950 . S
C269 C266 1.387 . S
C270 C271 1.387 . S
C270 H274 0.950 . S
C270 C279 1.390 . S
C271 C270 1.387 . S
C271 C273 1.387 . S
H272 C279 0.950 . S
C273 C271 1.387 . S
C273 C275 1.390 . S
C273 H277 0.950 . S
H274 C270 0.950 . S
C275 C273 1.390 . S
C275 C276 1.387 . S
C275 H278 0.950 . S
C276 C275 1.387 . S
C276 C279 1.387 . S
H277 C273 0.950 . S
H278 C275 0.950 . S
C279 C270 1.390 . S
C279 H272 0.950 . S
C279 C276 1.387 . S
C280 C281 1.387 . S
C280 H284 0.950 . S
C280 C289 1.390 1_455 S
C281 C280 1.387 . S
C281 C283 1.387 . S
H282 C289 0.950 . S
C283 C281 1.387 . S
C283 C285 1.390 1_455 S
C283 H287 0.950 . S
H284 C280 0.950 . S
C285 C283 1.390 1_655 S
C285 C286 1.387 . S
C285 H288 0.950 . S
C286 C285 1.387 . S
C286 C289 1.387 . S
H287 C283 0.950 . S
H288 C285 0.950 . S
C289 C280 1.390 1_655 S
C289 H282 0.950 . S
C289 C286 1.387 . S
C290 C291 1.387 . S
C290 H294 0.950 . S
C290 C299 1.390 1_545 S
C291 C290 1.387 . S
C291 C293 1.387 . S
H292 C299 0.950 . S
C293 C291 1.387 . S
C293 C295 1.390 1_545 S
C293 H297 0.950 . S
H294 C290 0.950 . S
C295 C293 1.390 1_565 S
C295 C296 1.387 . S
C295 H298 0.950 . S
C296 C295 1.387 . S
C296 C299 1.387 . S
H297 C293 0.950 . S
H298 C295 0.950 . S
C299 C290 1.390 1_565 S
C299 H292 0.950 . S
C299 C296 1.387 . S
C300 C301 1.387 . S
C300 H304 0.950 . S
C300 C309 1.390 . S
C301 C300 1.387 . S
C301 C303 1.387 . S
H302 C309 0.950 . S
C303 C301 1.387 . S
C303 C305 1.390 . S
C303 H307 0.950 . S
H304 C300 0.950 . S
C305 C303 1.390 . S
C305 C306 1.387 . S
C305 H308 0.950 . S
C306 C305 1.387 . S
C306 C309 1.387 . S
H307 C303 0.950 . S
H308 C305 0.950 . S
C309 C300 1.390 . S
C309 H302 0.950 . S
C309 C306 1.387 . S
C310 C311 1.387 . S
C310 H314 0.950 . S
C310 C319 1.390 . S
C311 C310 1.387 . S
C311 C313 1.387 . S
H312 C319 0.950 . S
C313 C311 1.387 . S
C313 C315 1.390 . S
C313 H317 0.950 . S
H314 C310 0.950 . S
C315 C313 1.390 . S
C315 C316 1.387 . S
C315 H318 0.950 . S
C316 C315 1.387 . S
C316 C319 1.387 . S
H317 C313 0.950 . S
H318 C315 0.950 . S
C319 C310 1.390 . S
C319 H312 0.950 . S
C319 C316 1.387 . S
C320 C321 1.387 . S
C320 H324 0.950 . S
C320 C329 1.390 . S
C321 C320 1.387 . S
C321 C323 1.387 . S
H322 C329 0.950 . S
C323 C321 1.387 . S
C323 C325 1.390 . S
C323 H327 0.950 . S
H324 C320 0.950 . S
C325 C323 1.390 . S
C325 C326 1.387 . S
C325 H328 0.950 . S
C326 C325 1.387 . S
C326 C329 1.387 . S
H327 C323 0.950 . S
H328 C325 0.950 . S
C329 C320 1.390 . S
C329 H322 0.950 . S
C329 C326 1.387 . S
C330 C331 1.387 1_556 S
C330 H334 0.950 . S
C330 C339 1.390 . S
C331 C330 1.387 1_554 S
C331 C333 1.387 . S
H332 C339 0.950 . S
C333 C331 1.387 . S
C333 C335 1.390 . S
C333 H337 0.950 . S
H334 C330 0.950 . S
C335 C333 1.390 . S
C335 C336 1.387 . S
C335 H338 0.950 . S
C336 C335 1.387 . S
C336 C339 1.387 1_554 S
H337 C333 0.950 . S
H338 C335 0.950 . S
C339 C330 1.390 . S
C339 H332 0.950 . S
C339 C336 1.387 1_556 S
C340 C341 1.387 . S
C340 H344 0.950 . S
C340 C349 1.390 . S
C341 C340 1.387 . S
C341 C343 1.387 . S
H342 C349 0.950 . S
C343 C341 1.387 . S
C343 C345 1.390 . S
C343 H347 0.950 . S
H344 C340 0.950 . S
C345 C343 1.390 . S
C345 C346 1.387 . S
C345 H348 0.950 . S
C346 C345 1.387 . S
C346 C349 1.387 . S
H347 C343 0.950 . S
H348 C345 0.950 . S
C349 C340 1.390 . S
C349 H342 0.950 . S
C349 C346 1.387 . S
C350 C351 1.387 . S
C350 H354 0.950 . S
C350 C359 1.390 . S
C351 C350 1.387 . S
C351 C353 1.387 . S
H352 C359 0.950 . S
C353 C351 1.387 . S
C353 C355 1.390 . S
C353 H357 0.950 . S
H354 C350 0.950 . S
C355 C353 1.390 . S
C355 C356 1.387 . S
C355 H358 0.950 . S
C356 C355 1.387 . S
C356 C359 1.387 . S
H357 C353 0.950 . S
H358 C355 0.950 . S
C359 C350 1.390 . S
C359 H352 0.950 . S
C359 C356 1.387 . S
C360 C361 1.387 . S
C360 H364 0.950 . S
C360 C369 1.390 . S
C361 C360 1.387 . S
C361 C363 1.387 . S
H362 C369 0.950 . S
C363 C361 1.387 . S
C363 C365 1.390 . S
C363 H367 0.950 . S
H364 C360 0.950 . S
C365 C363 1.390 . S
C365 C366 1.387 . S
C365 H368 0.950 . S
C366 C365 1.387 . S
C366 C369 1.387 . S
H367 C363 0.950 . S
H368 C365 0.950 . S
C369 C360 1.390 . S
C369 H362 0.950 . S
C369 C366 1.387 . S
C370 C371 1.387 . S
C370 H374 0.950 . S
C370 C379 1.390 . S
C371 C370 1.387 . S
C371 C373 1.387 . S
H372 C379 0.950 . S
C373 C371 1.387 . S
C373 C375 1.390 . S
C373 H377 0.950 . S
H374 C370 0.950 . S
C375 C373 1.390 . S
C375 C376 1.387 . S
C375 H378 0.950 . S
C376 C375 1.387 . S
C376 C379 1.387 . S
H377 C373 0.950 . S
H378 C375 0.950 . S
C379 C370 1.390 . S
C379 H372 0.950 . S
C379 C376 1.387 . S
C380 C381 1.387 . S
C380 H384 0.950 . S
C380 C389 1.390 . S
C381 C380 1.387 . S
C381 C383 1.387 . S
H382 C389 0.950 . S
C383 C381 1.387 . S
C383 C385 1.390 . S
C383 H387 0.950 1_655 S
H384 C380 0.950 . S
C385 C383 1.390 . S
C385 C386 1.387 . S
C385 H388 0.950 . S
C386 C385 1.387 . S
C386 C389 1.387 . S
H387 C383 0.950 1_455 S
H388 C385 0.950 . S
C389 C380 1.390 . S
C389 H382 0.950 . S
C389 C386 1.387 . S
C390 C391 1.387 . S
C390 H394 0.950 1_565 S
C390 C399 1.390 . S
C391 C390 1.387 . S
C391 C393 1.387 . S
H392 C399 0.950 . S
C393 C391 1.387 . S
C393 C395 1.390 . S
C393 H397 0.950 . S
H394 C390 0.950 1_545 S
C395 C393 1.390 . S
C395 C396 1.387 . S
C395 H398 0.950 . S
C396 C395 1.387 . S
C396 C399 1.387 . S
H397 C393 0.950 . S
H398 C395 0.950 . S
C399 C390 1.390 . S
C399 H392 0.950 . S
C399 C396 1.387 . S
C400 C401 1.387 . S
C400 H404 0.950 . S
C400 C409 1.390 . S
C401 C400 1.387 . S
C401 C403 1.387 . S
H402 C409 0.950 . S
C403 C401 1.387 . S
C403 C405 1.390 . S
C403 H407 0.950 1_455 S
H404 C400 0.950 . S
C405 C403 1.390 . S
C405 C406 1.387 . S
C405 H408 0.950 . S
C406 C405 1.387 . S
C406 C409 1.387 . S
H407 C403 0.950 1_655 S
H408 C405 0.950 . S
C409 C400 1.390 . S
C409 H402 0.950 . S
C409 C406 1.387 . S
C410 C411 1.387 . S
C410 H414 0.950 . S
C410 C419 1.390 . S
C411 C410 1.387 . S
C411 C413 1.387 1_545 S
H412 C419 0.950 . S
C413 C411 1.387 1_565 S
C413 C415 1.390 . S
C413 H417 0.950 . S
H414 C410 0.950 . S
C415 C413 1.390 . S
C415 C416 1.387 1_565 S
C415 H418 0.950 . S
C416 C415 1.387 1_545 S
C416 C419 1.387 . S
H417 C413 0.950 . S
H418 C415 0.950 . S
C419 C410 1.390 . S
C419 H412 0.950 . S
C419 C416 1.387 . S
C241 C130 1.277 1_455 S
C246 C10 1.277 . S
C251 C170 1.278 1_545 S
C256 C50 1.278 . S
C261 C210 1.278 . S
C266 C90 1.278 . S
C271 C16 1.177 . S
C276 C87 1.281 . S
C281 C56 1.175 . S
C286 C127 1.275 . S
C291 C96 1.176 . S
C296 C167 1.277 . S
C301 C136 1.177 . S
C306 C207 1.280 . S
C311 C176 1.172 . S
C316 C7 1.279 . S
C321 C216 1.175 . S
C326 C47 1.277 . S
C331 C19 1.642 . S
C336 C139 1.640 1_545 S
C341 C59 1.649 . S
C346 C179 1.649 . S
C351 C99 1.643 1_455 S
C356 C219 1.643 . S
C361 C2 4.242 . S
C366 C51 4.304 . S
C371 C42 4.241 . S
C376 C91 4.304 . S
C381 C82 4.242 . S
C386 C131 4.304 . S
C391 C122 4.241 . S
C396 C171 4.305 . S
C401 C162 4.242 1_455 S
C406 C211 4.304 . S
C411 C202 4.242 1_545 S
C416 C11 4.304 . S
