# Generated by pormake.
# Topology mok, (4)-cn, num edge types: 1
# Building blocks:
#     Node 0, Type 0, BuildingBlock: QUQFOY_clean_sbu_1, # of connection points: 4
#     Node 1, Type 0, BuildingBlock: QUQFOY_clean_sbu_1, # of connection points: 4
#     Node 2, Type 0, BuildingBlock: QUQFOY_clean_sbu_1, # of connection points: 4
#     Node 3, Type 0, BuildingBlock: QUQFOY_clean_sbu_1, # of connection points: 4
#     Node 4, Type 0, BuildingBlock: QUQFOY_clean_sbu_1, # of connection points: 4
#     Node 5, Type 0, BuildingBlock: QUQFOY_clean_sbu_1, # of connection points: 4
#     Node 6, Type 0, BuildingBlock: QUQFOY_clean_sbu_1, # of connection points: 4
#     Node 7, Type 0, BuildingBlock: QUQFOY_clean_sbu_1, # of connection points: 4
#     Edge 8, Type (0, 0), BuildingBlock: FUNLAD_clean_linker_1, # of connection points: 2
#     Edge 9, Type (0, 0), BuildingBlock: FUNLAD_clean_linker_1, # of connection points: 2
#     Edge 10, Type (0, 0), BuildingBlock: FUNLAD_clean_linker_1, # of connection points: 2
#     Edge 11, Type (0, 0), BuildingBlock: FUNLAD_clean_linker_1, # of connection points: 2
#     Edge 12, Type (0, 0), BuildingBlock: FUNLAD_clean_linker_1, # of connection points: 2
#     Edge 13, Type (0, 0), BuildingBlock: FUNLAD_clean_linker_1, # of connection points: 2
#     Edge 14, Type (0, 0), BuildingBlock: FUNLAD_clean_linker_1, # of connection points: 2
#     Edge 15, Type (0, 0), BuildingBlock: FUNLAD_clean_linker_1, # of connection points: 2
#     Edge 16, Type (0, 0), BuildingBlock: FUNLAD_clean_linker_1, # of connection points: 2
#     Edge 17, Type (0, 0), BuildingBlock: FUNLAD_clean_linker_1, # of connection points: 2
#     Edge 18, Type (0, 0), BuildingBlock: FUNLAD_clean_linker_1, # of connection points: 2
#     Edge 19, Type (0, 0), BuildingBlock: FUNLAD_clean_linker_1, # of connection points: 2
#     Edge 20, Type (0, 0), BuildingBlock: FUNLAD_clean_linker_1, # of connection points: 2
#     Edge 21, Type (0, 0), BuildingBlock: FUNLAD_clean_linker_1, # of connection points: 2
#     Edge 22, Type (0, 0), BuildingBlock: FUNLAD_clean_linker_1, # of connection points: 2
#     Edge 23, Type (0, 0), BuildingBlock: FUNLAD_clean_linker_1, # of connection points: 2
# Relax obj value: 0.035
# Max RMSD: 0.075
# Mean RMSD: 0.075
data_MOF--net-mok--node1-QUQFOY_clean_sbu_1--edge1-FUNLAD_clean_linker_1
_symmetry_space_group_name_H-M    P1
_symmetry_Int_Tables_number       1
_symmetry_cell_setting            triclinic
loop_
_symmetry_equiv_pos_as_xyz
'x, y, z'
_cell_length_a     56.741215
_cell_length_b     16.384228
_cell_length_c     29.82822
_cell_angle_alpha  89.967738
_cell_angle_beta   89.853569
_cell_angle_gamma 89.504943
loop_
_atom_site_label
_atom_site_type_symbol
_atom_site_fract_x
_atom_site_fract_y
_atom_site_fract_z
_atom_type_partial_charge
O0 O 0.61897 0.31946 0.98974 0.0
Cd1 Cd 0.62403 0.24096 0.04342 0.0
Cd2 Cd 0.63171 0.38285 0.0864 0.0
O3 O 0.62093 0.43589 0.02689 0.0
O4 O 0.61029 0.134 0.02552 0.0
O5 O 0.59577 0.20969 0.08067 0.0
C6 C 0.59457 0.14481 0.05622 0.0
C7 C 0.61466 0.41704 0.15512 0.0
C8 C 0.61773 0.39706 0.99054 0.0
C9 C 0.67292 0.26761 0.0775 0.0
O10 O 0.66588 0.33886 0.0881 0.0
O11 O 0.65858 0.21594 0.06173 0.0
O12 O 0.62988 0.46403 0.13619 0.0
O13 O 0.60838 0.35176 0.13424 0.0
O14 O 0.41219 0.65845 0.99375 0.0
Cd15 Cd 0.40715 0.73736 0.04722 0.0
Cd16 Cd 0.3968 0.5942 0.08975 0.0
O17 O 0.40934 0.54225 0.03097 0.0
O18 O 0.42167 0.84253 0.02857 0.0
O19 O 0.43544 0.76744 0.08456 0.0
C20 C 0.43718 0.83144 0.05946 0.0
C21 C 0.40811 0.54568 0.16022 0.0
C22 C 0.41327 0.58086 0.99474 0.0
C23 C 0.35742 0.71689 0.07843 0.0
O24 O 0.36327 0.64399 0.08808 0.0
O25 O 0.37272 0.76705 0.06444 0.0
O26 O 0.39383 0.5056 0.1352 0.0
O27 O 0.41701 0.61221 0.1445 0.0
O28 O 0.62603 0.66331 0.65719 0.0
Cd29 Cd 0.63352 0.73538 0.60219 0.0
Cd30 Cd 0.63582 0.5885 0.56099 0.0
O31 O 0.6222 0.54638 0.62116 0.0
O32 O 0.62108 0.84713 0.61579 0.0
O33 O 0.60597 0.76782 0.56323 0.0
C34 C 0.60517 0.83519 0.58576 0.0
C35 C 0.62215 0.54289 0.49167 0.0
C36 C 0.62108 0.58772 0.6572 0.0
C37 C 0.68098 0.68423 0.56953 0.0
O38 O 0.67113 0.61714 0.56025 0.0
O39 O 0.66888 0.74434 0.58421 0.0
O40 O 0.63469 0.49666 0.51729 0.0
O41 O 0.61613 0.6143 0.50632 0.0
O42 O 0.4182 0.30813 0.66163 0.0
Cd43 Cd 0.41347 0.23192 0.60695 0.0
Cd44 Cd 0.40441 0.37587 0.56662 0.0
O45 O 0.41598 0.42635 0.6261 0.0
O46 O 0.42852 0.125 0.62318 0.0
O47 O 0.44198 0.20415 0.56892 0.0
C48 C 0.4441 0.13852 0.59264 0.0
C49 C 0.42007 0.41064 0.49688 0.0
C50 C 0.41934 0.3857 0.66189 0.0
C51 C 0.36391 0.26012 0.57576 0.0
O52 O 0.37041 0.33231 0.56675 0.0
O53 O 0.37882 0.20706 0.58909 0.0
O54 O 0.40523 0.4581 0.51716 0.0
O55 O 0.42684 0.34477 0.51704 0.0
O56 O 0.1209 0.83534 0.99506 0.0
Cd57 Cd 0.12408 0.75904 0.05006 0.0
Cd58 Cd 0.13617 0.90024 0.08992 0.0
O59 O 0.12555 0.95288 0.0302 0.0
O60 O 0.10476 0.65971 0.03796 0.0
O61 O 0.096 0.75009 0.09073 0.0
C62 C 0.09072 0.68437 0.06935 0.0
C63 C 0.1211 0.94087 0.15922 0.0
C64 C 0.12124 0.91302 0.99462 0.0
C65 C 0.17378 0.77034 0.0815 0.0
O66 O 0.16891 0.84453 0.09017 0.0
O67 O 0.15782 0.72223 0.06808 0.0
O68 O 0.13706 0.98312 0.13913 0.0
O69 O 0.11304 0.87723 0.13921 0.0
O70 O 0.91121 0.1788 0.99403 0.0
Cd71 Cd 0.90684 0.25233 0.04972 0.0
Cd72 Cd 0.89504 0.11029 0.08783 0.0
O73 O 0.90735 0.06022 0.02844 0.0
O74 O 0.92622 0.35192 0.03964 0.0
O75 O 0.93431 0.25945 0.09175 0.0
C76 C 0.93993 0.32579 0.07111 0.0
C77 C 0.90697 0.06267 0.15789 0.0
C78 C 0.91175 0.10117 0.99322 0.0
C79 C 0.85685 0.23795 0.07871 0.0
O80 O 0.86201 0.16373 0.08666 0.0
O81 O 0.87272 0.2875 0.06639 0.0
O82 O 0.89231 0.0223 0.13376 0.0
O83 O 0.91578 0.12871 0.14145 0.0
O84 O 0.12609 0.18341 0.66211 0.0
Cd85 Cd 0.12924 0.25801 0.60651 0.0
Cd86 Cd 0.14124 0.11693 0.56713 0.0
O87 O 0.1286 0.0661 0.62587 0.0
O88 O 0.10834 0.35556 0.61628 0.0
O89 O 0.10148 0.26114 0.56489 0.0
C90 C 0.09485 0.32694 0.58532 0.0
C91 C 0.13081 0.0681 0.49653 0.0
C92 C 0.12508 0.10586 0.6619 0.0
C93 C 0.17917 0.24314 0.57714 0.0
O94 O 0.17416 0.16895 0.56971 0.0
O95 O 0.16312 0.29362 0.5887 0.0
O96 O 0.14513 0.02804 0.52195 0.0
O97 O 0.12142 0.1345 0.51194 0.0
O98 O 0.91279 0.83398 0.66146 0.0
Cd99 Cd 0.90793 0.75747 0.6074 0.0
Cd100 Cd 0.90475 0.9016 0.56245 0.0
O101 O 0.91548 0.94947 0.62335 0.0
O102 O 0.92569 0.65234 0.61744 0.0
O103 O 0.93564 0.74438 0.56648 0.0
C104 C 0.94017 0.6765 0.58675 0.0
C105 C 0.92151 0.94107 0.49421 0.0
C106 C 0.91633 0.91056 0.66027 0.0
C107 C 0.8609 0.79697 0.56924 0.0
O108 O 0.87018 0.86442 0.5584 0.0
O109 O 0.87324 0.74054 0.5872 0.0
O110 O 0.90677 0.988 0.51504 0.0
O111 O 0.92767 0.87345 0.51307 0.0
H112 H 0.82802 0.32967 0.07453 0.0
C113 C 0.83206 0.26605 0.08179 0.0
H114 H 0.8181 0.15014 0.09765 0.0
H115 H 0.72439 0.33424 0.17038 0.0
H116 H 0.74746 0.34966 0.23816 0.0
H117 H 0.78989 0.3154 0.23888 0.0
H118 H 0.80951 0.26538 0.17174 0.0
C119 C 0.81445 0.21423 0.0911 0.0
C120 C 0.78931 0.24058 0.08989 0.0
C121 C 0.77815 0.27027 0.1292 0.0
C122 C 0.7537 0.29042 0.12866 0.0
C123 C 0.74294 0.31878 0.1687 0.0
C124 C 0.75597 0.32773 0.2079 0.0
C125 C 0.77986 0.30839 0.20832 0.0
C126 C 0.7909 0.27978 0.16957 0.0
H127 H 0.7034 0.18277 0.07432 0.0
C128 C 0.69817 0.24562 0.08093 0.0
H129 H 0.70982 0.36478 0.09568 0.0
H130 H 0.80548 0.18556 1.00882 0.0
H131 H 0.78302 0.17593 0.93995 0.0
H132 H 0.74116 0.2176 0.93777 0.0
H133 H 0.72142 0.26786 1.00445 0.0
C134 C 0.71483 0.30191 0.08862 0.0
C135 C 0.74046 0.28088 0.08874 0.0
C136 C 0.75189 0.2539 0.04891 0.0
C137 C 0.77624 0.23238 0.04976 0.0
C138 C 0.78709 0.20354 1.00991 0.0
C139 C 0.77442 0.19782 0.97012 0.0
C140 C 0.75085 0.22111 0.96893 0.0
C141 C 0.73966 0.2492 1.00765 0.0
H142 H 0.20186 0.67566 0.08072 0.0
C143 C 0.1984 0.74063 0.08463 0.0
H144 H 0.21322 0.85735 0.09331 0.0
H145 H 0.31156 0.75127 0.17005 0.0
H146 H 0.29357 0.81584 0.23503 0.0
H147 H 0.25163 0.85671 0.2344 0.0
H148 H 0.2274 0.83341 0.16886 0.0
C149 C 0.21656 0.7924 0.08901 0.0
C150 C 0.24162 0.76419 0.08957 0.0
C151 C 0.25554 0.77816 0.12824 0.0
C152 C 0.27972 0.75438 0.12872 0.0
C153 C 0.29315 0.76856 0.16785 0.0
C154 C 0.28304 0.8054 0.20541 0.0
C155 C 0.25942 0.82843 0.20505 0.0
C156 C 0.24574 0.81493 0.1671 0.0
H157 H 0.32817 0.80686 0.07521 0.0
C158 C 0.33251 0.74326 0.08193 0.0
H159 H 0.319 0.62611 0.09636 0.0
H160 H 0.22114 0.73835 1.00738 0.0
H161 H 0.23917 0.67261 0.94312 0.0
H162 H 0.28048 0.62471 0.94569 0.0
H163 H 0.30409 0.64359 0.01251 0.0
C164 C 0.31512 0.69046 0.09109 0.0
C165 C 0.28995 0.71649 0.0906 0.0
C166 C 0.27609 0.70231 0.05197 0.0
C167 C 0.25203 0.72757 0.05105 0.0
C168 C 0.23914 0.7173 0.01086 0.0
C169 C 0.24936 0.68026 0.97345 0.0
C170 C 0.27263 0.65347 0.97485 0.0
C171 C 0.28596 0.66455 0.01346 0.0
H172 H 0.82599 0.8395 0.54701 0.0
C173 C 0.8352 0.78882 0.563 0.0
H174 H 0.83126 0.67715 0.59729 0.0
H175 H 0.72746 0.75241 0.66314 0.0
H176 H 0.74912 0.74784 0.73301 0.0
H177 H 0.79248 0.73638 0.73323 0.0
H178 H 0.81445 0.72853 0.66362 0.0
C179 C 0.82254 0.72642 0.57922 0.0
C180 C 0.79618 0.72979 0.57863 0.0
C181 C 0.78357 0.73517 0.6197 0.0
C182 C 0.75855 0.74337 0.61958 0.0
C183 C 0.74646 0.74726 0.66116 0.0
C184 C 0.75866 0.74461 0.70158 0.0
C185 C 0.78307 0.73806 0.7017 0.0
C186 C 0.79547 0.73346 0.66141 0.0
H187 H 0.71586 0.63539 0.55074 0.0
C188 C 0.70686 0.68861 0.56459 0.0
H189 H 0.71128 0.80388 0.5948 0.0
H190 H 0.81433 0.71031 0.49408 0.0
H191 H 0.79285 0.72063 0.4241 0.0
H192 H 0.74996 0.7467 0.42381 0.0
H193 H 0.72823 0.76085 0.49352 0.0
C194 C 0.71978 0.7518 0.57881 0.0
C195 C 0.74611 0.74684 0.57841 0.0
C196 C 0.75874 0.74238 0.53731 0.0
C197 C 0.78369 0.73165 0.53744 0.0
C198 C 0.79558 0.72228 0.49594 0.0
C199 C 0.78343 0.72743 0.4555 0.0
C200 C 0.75927 0.74176 0.45534 0.0
C201 C 0.74699 0.7492 0.49564 0.0
H202 H 0.2079 0.33408 0.57921 0.0
C203 C 0.20399 0.26994 0.5741 0.0
H204 H 0.21814 0.15154 0.56374 0.0
H205 H 0.31113 0.33962 0.48865 0.0
H206 H 0.28721 0.36707 0.42301 0.0
H207 H 0.2447 0.33677 0.42294 0.0
H208 H 0.22582 0.27886 0.4886 0.0
C209 C 0.22175 0.21624 0.56725 0.0
C210 C 0.24696 0.24075 0.56825 0.0
C211 C 0.2577 0.2752 0.5298 0.0
C212 C 0.28224 0.29278 0.52992 0.0
C213 C 0.29254 0.32586 0.49068 0.0
C214 C 0.27903 0.34167 0.45267 0.0
C215 C 0.25509 0.32459 0.45262 0.0
C216 C 0.24447 0.29148 0.49057 0.0
H217 H 0.33378 0.17516 0.57782 0.0
C218 C 0.33867 0.23862 0.57318 0.0
H219 H 0.32642 0.35943 0.56337 0.0
H220 H 0.23174 0.17563 0.64748 0.0
H221 H 0.25514 0.1531 0.71437 0.0
H222 H 0.29719 0.18988 0.7161 0.0
H223 H 0.31617 0.24808 0.6509 0.0
C224 C 0.32167 0.29596 0.56841 0.0
C225 C 0.29603 0.27595 0.56854 0.0
C226 C 0.28506 0.2439 0.60757 0.0
C227 C 0.26061 0.22496 0.60707 0.0
C228 C 0.25021 0.19149 0.64612 0.0
C229 C 0.26341 0.17847 0.6848 0.0
C230 C 0.28709 0.19903 0.68573 0.0
C231 C 0.29784 0.23176 0.64781 0.0
H232 H 0.58849 0.41067 0.2102 0.0
C233 C 0.60541 0.43554 0.20033 0.0
H234 H 0.63539 0.5012 0.21968 0.0
H235 H 0.60576 0.70109 0.3847 0.0
H236 H 0.61307 0.80658 0.32992 0.0
H237 H 0.6183 0.77261 0.24997 0.0
H238 H 0.61666 0.63239 0.22455 0.0
C239 C 0.61842 0.47718 0.23009 0.0
C240 C 0.61048 0.4967 0.27675 0.0
C241 C 0.61034 0.57942 0.29097 0.0
C242 C 0.60653 0.59926 0.33693 0.0
C243 C 0.60797 0.68212 0.35026 0.0
C244 C 0.6122 0.74362 0.31909 0.0
C245 C 0.61519 0.7245 0.27411 0.0
C246 C 0.61431 0.64359 0.26003 0.0
H247 H 0.62799 0.46619 0.43251 0.0
C248 C 0.61741 0.51673 0.44529 0.0
H249 H 0.5919 0.60647 0.43038 0.0
H250 H 0.61146 0.32999 0.26342 0.0
H251 H 0.59912 0.22674 0.31614 0.0
H252 H 0.58585 0.2644 0.39225 0.0
H253 H 0.58594 0.40594 0.41649 0.0
C254 C 0.60231 0.55555 0.4177 0.0
C255 C 0.60198 0.53647 0.36853 0.0
C256 C 0.59949 0.45485 0.35332 0.0
C257 C 0.60503 0.43415 0.3081 0.0
C258 C 0.60562 0.35052 0.296 0.0
C259 C 0.59884 0.29021 0.32622 0.0
C260 C 0.59151 0.31133 0.36915 0.0
C261 C 0.59185 0.39257 0.38274 0.0
H262 H 0.40016 0.47281 0.21997 0.0
C263 C 0.41209 0.51855 0.2068 0.0
H264 H 0.44027 0.59703 0.221 0.0
H265 H 0.41917 0.62853 0.4281 0.0
H266 H 0.41961 0.76915 0.403 0.0
H267 H 0.42376 0.80251 0.32277 0.0
H268 H 0.42789 0.69581 0.26731 0.0
C269 C 0.42851 0.55061 0.23391 0.0
C270 C 0.42891 0.53052 0.28295 0.0
C271 C 0.42624 0.59399 0.31499 0.0
C272 C 0.4231 0.57471 0.36119 0.0
C273 C 0.42098 0.63946 0.39249 0.0
C274 C 0.42131 0.72057 0.37858 0.0
C275 C 0.42369 0.73934 0.33344 0.0
C276 C 0.42609 0.67718 0.30189 0.0
H277 H 0.44454 0.40086 0.43914 0.0
C278 C 0.42827 0.429 0.45095 0.0
H279 H 0.39868 0.50154 0.43496 0.0
H280 H 0.4407 0.39589 0.23328 0.0
H281 H 0.43848 0.25456 0.25733 0.0
H282 H 0.42662 0.2201 0.33462 0.0
H283 H 0.41793 0.32611 0.38862 0.0
C284 C 0.41499 0.47406 0.42277 0.0
C285 C 0.42182 0.49208 0.37533 0.0
C286 C 0.42517 0.42855 0.34341 0.0
C287 C 0.42995 0.44812 0.29774 0.0
C288 C 0.43544 0.38404 0.26754 0.0
C289 C 0.43445 0.30278 0.281 0.0
C290 C 0.42792 0.28341 0.32458 0.0
C291 C 0.42323 0.34521 0.35549 0.0
H292 H 0.41785 0.46798 0.95496 0.0
C293 C 0.41752 0.53425 0.95301 0.0
H294 H 0.4192 0.63691 0.91016 0.0
H295 H 0.4659 0.4525 0.74592 0.0
H296 H 0.49887 0.53291 0.77183 0.0
H297 H 0.4966 0.60846 0.8432 0.0
H298 H 0.46117 0.60495 0.88895 0.0
C299 C 0.41909 0.57074 0.91268 0.0
C300 C 0.4206 0.52295 0.87018 0.0
C301 C 0.44135 0.52605 0.84365 0.0
C302 C 0.44267 0.48257 0.80236 0.0
C303 C 0.4638 0.48545 0.7771 0.0
C304 C 0.48293 0.5309 0.79175 0.0
C305 C 0.48163 0.57356 0.83191 0.0
C306 C 0.46116 0.57121 0.85777 0.0
H307 H 0.42303 0.49619 0.70377 0.0
C308 C 0.42292 0.42985 0.70455 0.0
H309 H 0.42297 0.32483 0.74565 0.0
H310 H 0.37708 0.51083 0.91011 0.0
H311 H 0.34418 0.431 0.88405 0.0
H312 H 0.34697 0.35205 0.81384 0.0
H313 H 0.38264 0.35326 0.76907 0.0
C314 C 0.4241 0.39096 0.74425 0.0
C315 C 0.42315 0.43645 0.78751 0.0
C316 C 0.40241 0.43315 0.81409 0.0
C317 C 0.40098 0.47732 0.8551 0.0
C318 C 0.37954 0.47631 0.87957 0.0
C319 C 0.36038 0.43119 0.86479 0.0
C320 C 0.36193 0.38685 0.82524 0.0
C321 C 0.38258 0.3879 0.79994 0.0
H322 H 0.61448 0.50971 0.95017 0.0
C323 C 0.61442 0.44343 0.94847 0.0
H324 H 0.61305 0.34047 0.90582 0.0
H325 H 0.57206 0.53467 0.73893 0.0
H326 H 0.53719 0.46188 0.76283 0.0
H327 H 0.53672 0.38595 0.83425 0.0
H328 H 0.57132 0.38141 0.88199 0.0
C329 C 0.61349 0.40661 0.90821 0.0
C330 C 0.61365 0.45418 0.86561 0.0
C331 C 0.59339 0.45563 0.83788 0.0
C332 C 0.59369 0.49913 0.79653 0.0
C333 C 0.57299 0.50119 0.77014 0.0
C334 C 0.55277 0.46022 0.78366 0.0
C335 C 0.55252 0.41735 0.82384 0.0
C336 C 0.57252 0.41507 0.85085 0.0
H337 H 0.61337 0.47989 0.69918 0.0
C338 C 0.61564 0.5457 0.69982 0.0
H339 H 0.61828 0.65064 0.74049 0.0
H340 H 0.65642 0.45738 0.90847 0.0
H341 H 0.69132 0.52908 0.88428 0.0
H342 H 0.6915 0.60725 0.81361 0.0
H343 H 0.65682 0.61352 0.76657 0.0
C344 C 0.61519 0.5853 0.73932 0.0
C345 C 0.61436 0.5404 0.78277 0.0
C346 C 0.63461 0.53915 0.81057 0.0
C347 C 0.63437 0.49521 0.85173 0.0
C348 C 0.65528 0.4918 0.87763 0.0
C349 C 0.67555 0.53224 0.86396 0.0
C350 C 0.67566 0.57616 0.82416 0.0
C351 C 0.65556 0.57946 0.79754 0.0
H352 H 0.09613 0.93858 0.21623 0.0
C353 C 0.11298 0.96194 0.20481 0.0
H354 H 0.14383 0.02518 0.22182 0.0
H355 H 0.11502 0.22219 0.39021 0.0
H356 H 0.12175 0.3294 0.33607 0.0
H357 H 0.12695 0.2975 0.25586 0.0
H358 H 0.12582 0.15778 0.22947 0.0
C359 C 0.12693 0.00241 0.23342 0.0
C360 C 0.12007 0.0207 0.28078 0.0
C361 C 0.11981 0.10304 0.29556 0.0
C362 C 0.11609 0.12162 0.34169 0.0
C363 C 0.11719 0.20423 0.35559 0.0
C364 C 0.1211 0.26665 0.32482 0.0
C365 C 0.12407 0.2487 0.27968 0.0
C366 C 0.12347 0.16807 0.26504 0.0
H367 H 0.13909 0.99415 0.43715 0.0
C368 C 0.12728 0.04139 0.44986 0.0
H369 H 0.10001 0.12466 0.43442 0.0
H370 H 0.12193 0.85454 0.26615 0.0
H371 H 0.11102 0.74897 0.31868 0.0
H372 H 0.09848 0.78369 0.39564 0.0
H373 H 0.09776 0.92456 0.42084 0.0
C374 C 0.11157 0.0765 0.42203 0.0
C375 C 0.11192 0.0579 0.37291 0.0
C376 C 0.11011 0.97628 0.35741 0.0
C377 C 0.11536 0.95705 0.3119 0.0
C378 C 0.11638 0.87376 0.29915 0.0
C379 C 0.11041 0.81217 0.32922 0.0
C380 C 0.10349 0.83164 0.37261 0.0
C381 C 0.10335 0.91261 0.38675 0.0
H382 H 0.94615 0.93286 0.43679 0.0
C383 C 0.92987 0.96086 0.44868 0.0
H384 H 0.89997 0.03172 0.43248 0.0
H385 H 0.92838 0.21745 0.26106 0.0
H386 H 0.92478 0.32726 0.31479 0.0
H387 H 0.92111 0.29847 0.39564 0.0
H388 H 0.92063 0.15927 0.42311 0.0
C389 C 0.91635 0.00462 0.42039 0.0
C390 C 0.92282 0.02002 0.37256 0.0
C391 C 0.92409 0.10177 0.35705 0.0
C392 C 0.92692 0.11837 0.31049 0.0
C393 C 0.92679 0.20079 0.29598 0.0
C394 C 0.92469 0.26472 0.32652 0.0
C395 C 0.92258 0.24853 0.37202 0.0
C396 C 0.92224 0.16823 0.3873 0.0
H397 H 0.89973 0.99191 0.21876 0.0
C398 C 0.91154 0.03691 0.20443 0.0
H399 H 0.93994 0.11585 0.2161 0.0
H400 H 0.91878 0.85479 0.38875 0.0
H401 H 0.92699 0.74573 0.33638 0.0
H402 H 0.93838 0.77571 0.25825 0.0
H403 H 0.94057 0.91563 0.23179 0.0
C404 C 0.92831 0.0702 0.23025 0.0
C405 C 0.92925 0.05303 0.27952 0.0
C406 C 0.93034 0.97152 0.29563 0.0
C407 C 0.92587 0.95461 0.34169 0.0
C408 C 0.9239 0.87199 0.35521 0.0
C409 C 0.9283 0.80843 0.32525 0.0
C410 C 0.93457 0.82527 0.28121 0.0
C411 C 0.93555 0.90574 0.26637 0.0
H412 H 0.92225 0.02194 0.70035 0.0
C413 C 0.91989 0.95626 0.70235 0.0
H414 H 0.91649 0.85444 0.74544 0.0
H415 H 0.96036 0.02499 0.91571 0.0
H416 H 0.99253 0.93412 0.8947 0.0
H417 H 0.99147 0.85752 0.82356 0.0
H418 H 0.95831 0.87179 0.7728 0.0
C419 C 0.91844 0.92019 0.74279 0.0
C420 C 0.9192 0.96799 0.78521 0.0
C421 C 0.93853 0.95804 0.81483 0.0
C422 C 0.939 1.00141 0.85615 0.0
C423 C 0.95885 0.99213 0.88443 0.0
C424 C 0.9775 0.94051 0.87266 0.0
C425 C 0.97691 0.89744 0.83257 0.0
C426 C 0.95774 0.90603 0.8038 0.0
H427 H 0.91503 0.99144 0.95051 0.0
C428 C 0.91609 0.05767 0.95058 0.0
H429 H 0.92001 0.16386 0.91114 0.0
H430 H 0.87833 0.99585 0.73818 0.0
H431 H 0.8465 0.08758 0.75891 0.0
H432 H 0.84787 0.16555 0.82953 0.0
H433 H 0.88103 0.15153 0.88002 0.0
C434 C 0.91975 0.09755 0.91179 0.0
C435 C 0.91998 0.05383 0.86804 0.0
C436 C 0.90076 0.0645 0.83822 0.0
C437 C 0.9002 0.02075 0.79705 0.0
C438 C 0.88016 0.02946 0.76912 0.0
C439 C 0.86161 0.08152 0.78078 0.0
C440 C 0.86236 0.12532 0.82056 0.0
C441 C 0.88158 0.11683 0.84918 0.0
H442 H 0.11891 0.02402 0.95264 0.0
C443 C 0.11803 0.95776 0.95202 0.0
H444 H 0.11582 0.85275 0.91119 0.0
H445 H 0.07868 0.1388 0.76958 0.0
H446 H 0.04355 0.14549 0.81612 0.0
H447 H 0.0413 0.06849 0.88708 0.0
H448 H 0.07421 0.98468 0.91211 0.0
C449 C 0.11573 0.91903 0.91256 0.0
C450 C 0.11656 0.96432 0.86932 0.0
C451 C 0.09717 0.01293 0.85518 0.0
C452 C 0.0984 0.05675 0.81402 0.0
C453 C 0.07873 0.10451 0.8006 0.0
C454 C 0.05843 0.10874 0.82693 0.0
C455 C 0.05717 0.06544 0.86691 0.0
C456 C 0.07623 0.01784 0.88099 0.0
H457 H 0.1208 0.99435 0.70267 0.0
C458 C 0.12129 0.06062 0.70411 0.0
H459 H 0.12025 0.16441 0.74621 0.0
H460 H 0.15664 0.87532 0.8863 0.0
H461 H 0.19195 0.87002 0.84049 0.0
H462 H 0.19468 0.94974 0.77054 0.0
H463 H 0.16208 0.0344 0.74576 0.0
C464 C 0.12021 0.09819 0.74416 0.0
C465 C 0.11892 0.05128 0.78691 0.0
C466 C 0.13842 0.00311 0.8013 0.0
C467 C 0.13706 0.95864 0.84219 0.0
C468 C 0.15669 0.9105 0.85559 0.0
C469 C 0.17713 0.90704 0.82968 0.0
C470 C 0.17865 0.9518 0.79027 0.0
C471 C 0.15966 0.99969 0.77622 0.0
H472 H 0.45486 0.94807 0.04665 0.0
C473 C 0.45665 0.88994 0.06397 0.0
H474 H 0.47921 0.81344 0.10172 0.0
H475 H 0.54468 0.09648 0.99629 0.0
H476 H 0.53035 0.03739 0.9273 0.0
H477 H 0.50234 0.9231 0.92876 0.0
H478 H 0.4878 0.86981 0.99921 0.0
C479 C 0.47713 0.87128 0.08427 0.0
C480 C 0.49745 0.92889 0.08335 0.0
C481 C 0.50733 0.95446 0.04187 0.0
C482 C 0.52511 0.01521 0.0411 0.0
C483 C 0.53255 0.04622 0.99905 0.0
C484 C 0.52425 0.01347 0.95908 0.0
C485 C 0.50838 0.94955 0.9599 0.0
C486 C 0.49997 0.92013 1.00066 0.0
H487 H 0.57767 0.0262 0.04497 0.0
C488 C 0.57547 0.085 0.0614 0.0
H489 H 0.55242 0.16175 0.09804 0.0
H490 H 0.48293 0.8925 0.16856 0.0
H491 H 0.49944 0.94411 0.23776 0.0
H492 H 0.53258 0.04052 0.23658 0.0
H493 H 0.54924 0.08677 0.1662 0.0
C494 C 0.55484 0.10319 0.0815 0.0
C495 C 0.53483 0.04424 0.08192 0.0
C496 C 0.52553 0.01655 0.12338 0.0
C497 C 0.50671 0.95952 0.12409 0.0
C498 C 0.49743 0.93472 0.16601 0.0
C499 C 0.50672 0.96395 0.20603 0.0
C500 C 0.52536 0.01831 0.20536 0.0
C501 C 0.53473 0.04448 0.16467 0.0
H502 H 0.58812 0.95526 0.59549 0.0
C503 C 0.58591 0.89562 0.58018 0.0
H504 H 0.5624 0.81685 0.5471 0.0
H505 H 0.49577 0.10047 0.65057 0.0
H506 H 0.51233 0.0481 0.71963 0.0
H507 H 0.54242 0.93857 0.71846 0.0
H508 H 0.55671 0.88317 0.64822 0.0
C509 C 0.56491 0.87635 0.56236 0.0
C510 C 0.54438 0.93443 0.56361 0.0
C511 C 0.53491 0.96172 0.60523 0.0
C512 C 0.51613 0.01997 0.60604 0.0
C513 C 0.50879 0.05219 0.64795 0.0
C514 C 0.51834 0.02328 0.68793 0.0
C515 C 0.53538 0.96202 0.68726 0.0
C516 C 0.54361 0.93134 0.64656 0.0
H517 H 0.46306 0.02247 0.60393 0.0
C518 C 0.46415 0.08118 0.58707 0.0
H519 H 0.4856 0.15992 0.54899 0.0
H520 H 0.55802 0.89499 0.47827 0.0
H521 H 0.5397 0.94096 0.40925 0.0
H522 H 0.50526 0.03382 0.41082 0.0
H523 H 0.48905 0.08201 0.48137 0.0
C524 C 0.48429 0.10152 0.56607 0.0
C525 C 0.50526 0.04531 0.56539 0.0
C526 C 0.51439 0.01672 0.52388 0.0
C527 C 0.53403 0.96184 0.52299 0.0
C528 C 0.54297 0.93571 0.48096 0.0
C529 C 0.53265 0.96172 0.44106 0.0
C530 C 0.51327 0.01409 0.44194 0.0
C531 C 0.50416 0.0414 0.48272 0.0
H532 H 0.05493 0.67517 0.09787 0.0
C533 C 0.06826 0.64261 0.0785 0.0
H534 H 0.07667 0.53696 0.04147 0.0
H535 H 0.97414 0.46323 0.14887 0.0
H536 H 0.99531 0.48479 0.21827 0.0
H537 H 0.03719 0.52406 0.21745 0.0
H538 H 0.0579 0.54443 0.14721 0.0
C539 C 0.0634 0.56882 0.06132 0.0
C540 C 0.03913 0.53419 0.06279 0.0
C541 C 0.02772 0.51753 0.1042 0.0
C542 C 1.00402 0.4894 0.10468 0.0
C543 C 0.99248 0.48005 0.14649 0.0
C544 C 1.00438 0.49291 0.18662 0.0
C545 C 0.02791 0.51542 0.18616 0.0
C546 C 0.03954 0.52761 0.14556 0.0
H547 H 0.97562 0.33285 0.10003 0.0
C548 C 0.96251 0.36629 0.08069 0.0
H549 H 0.95478 0.47205 0.04326 0.0
H550 H 0.0554 0.56145 0.97731 0.0
H551 H 0.03525 0.53044 0.90815 0.0
H552 H 0.99561 0.47001 0.909 0.0
H553 H 0.97576 0.44154 0.97903 0.0
C554 C 0.96784 0.43953 0.06318 0.0
C555 C 0.99234 0.47217 0.06375 0.0
C556 C 1.00406 0.48625 0.02237 0.0
C557 C 0.02727 0.51845 0.02188 0.0
C558 C 0.03807 0.53494 0.97993 0.0
C559 C 0.02666 0.51773 0.93981 0.0
C560 C 1.00433 0.48392 0.94029 0.0
C561 C 0.99309 0.46822 0.98089 0.0
H562 H 0.05902 0.32866 0.5565 0.0
C563 C 0.07147 0.36383 0.57607 0.0
H564 H 0.07706 0.46978 0.61427 0.0
H565 H 0.97336 0.53279 0.50947 0.0
H566 H 0.99441 0.51449 0.4393 0.0
H567 H 0.03672 0.47856 0.43868 0.0
H568 H 0.05802 0.45814 0.50814 0.0
C569 C 0.06467 0.43569 0.59398 0.0
C570 C 0.0396 0.46486 0.59321 0.0
C571 C 0.02778 0.48151 0.55223 0.0
C572 C 1.00376 0.50797 0.5526 0.0
C573 C 0.99191 0.51741 0.51119 0.0
C574 C 1.00373 0.50637 0.47064 0.0
C575 C 0.02752 0.48572 0.47029 0.0
C576 C 0.03949 0.47347 0.51047 0.0
H577 H 0.97586 0.66431 0.55814 0.0
C578 C 0.96254 0.6326 0.57758 0.0
H579 H 0.95444 0.52798 0.61532 0.0
H580 H 0.05617 0.43344 0.6779 0.0
H581 H 0.03584 0.45944 0.74786 0.0
H582 H 0.99561 0.51746 0.74859 0.0
H583 H 0.97534 0.54849 0.67941 0.0
C584 C 0.96763 0.55896 0.59523 0.0
C585 C 0.99209 0.52388 0.59393 0.0
C586 C 1.004 0.50797 0.63488 0.0
C587 C 0.02756 0.47723 0.63449 0.0
C588 C 0.03858 0.45913 0.676 0.0
C589 C 0.02707 0.47339 0.71655 0.0
C590 C 1.00441 0.50584 0.71696 0.0
C591 C 0.99294 0.52309 0.67681 0.0
loop_
_geom_bond_atom_site_label_1
_geom_bond_atom_site_label_2
_geom_bond_distance
_geom_bond_site_symmetry_2
_ccdc_geom_bond_type
O0 Cd1 2.223 1_556 S
O0 C8 1.315 . S
Cd1 O0 2.223 1_554 S
Cd1 O4 2.297 1_554 S
Cd1 O5 2.439 . S
Cd1 O11 2.240 . S
Cd2 O3 2.240 . S
Cd2 O10 2.223 . S
Cd2 O12 2.297 . S
Cd2 O13 2.439 . S
O3 Cd2 2.240 . S
O3 C8 1.279 1_554 S
O4 Cd1 2.297 1_556 S
O4 C6 1.247 1_556 S
O5 Cd1 2.439 . S
O5 C6 1.208 . S
C6 O4 1.247 1_554 S
C6 O5 1.208 . S
C7 O12 1.247 . S
C7 O13 1.208 . S
C8 O0 1.315 . S
C8 O3 1.279 1_556 S
C9 O10 1.315 . S
C9 O11 1.279 . S
O10 Cd2 2.223 . S
O10 C9 1.315 . S
O11 Cd1 2.240 . S
O11 C9 1.279 . S
O12 Cd2 2.297 . S
O12 C7 1.247 . S
O13 Cd2 2.439 . S
O13 C7 1.208 . S
O14 Cd15 2.223 1_556 S
O14 C22 1.315 . S
Cd15 O14 2.223 1_554 S
Cd15 O18 2.297 1_554 S
Cd15 O19 2.439 . S
Cd15 O25 2.240 . S
Cd16 O17 2.240 . S
Cd16 O24 2.223 . S
Cd16 O26 2.297 . S
Cd16 O27 2.439 . S
O17 Cd16 2.240 . S
O17 C22 1.279 1_554 S
O18 Cd15 2.297 1_556 S
O18 C20 1.247 1_556 S
O19 Cd15 2.439 . S
O19 C20 1.208 . S
C20 O18 1.247 1_554 S
C20 O19 1.208 . S
C21 O26 1.247 . S
C21 O27 1.208 . S
C22 O14 1.315 . S
C22 O17 1.279 1_556 S
C23 O24 1.315 . S
C23 O25 1.279 . S
O24 Cd16 2.223 . S
O24 C23 1.315 . S
O25 Cd15 2.240 . S
O25 C23 1.279 . S
O26 Cd16 2.297 . S
O26 C21 1.247 . S
O27 Cd16 2.439 . S
O27 C21 1.208 . S
O28 Cd29 2.223 . S
O28 C36 1.315 . S
Cd29 O28 2.223 . S
Cd29 O32 2.297 . S
Cd29 O33 2.439 . S
Cd29 O39 2.240 . S
Cd30 O31 2.240 . S
Cd30 O38 2.223 . S
Cd30 O40 2.297 . S
Cd30 O41 2.439 . S
O31 Cd30 2.240 . S
O31 C36 1.279 . S
O32 Cd29 2.297 . S
O32 C34 1.247 . S
O33 Cd29 2.439 . S
O33 C34 1.208 . S
C34 O32 1.247 . S
C34 O33 1.208 . S
C35 O40 1.247 . S
C35 O41 1.208 . S
C36 O28 1.315 . S
C36 O31 1.279 . S
C37 O38 1.315 . S
C37 O39 1.279 . S
O38 Cd30 2.223 . S
O38 C37 1.315 . S
O39 Cd29 2.240 . S
O39 C37 1.279 . S
O40 Cd30 2.297 . S
O40 C35 1.247 . S
O41 Cd30 2.439 . S
O41 C35 1.208 . S
O42 Cd43 2.223 . S
O42 C50 1.315 . S
Cd43 O42 2.223 . S
Cd43 O46 2.297 . S
Cd43 O47 2.439 . S
Cd43 O53 2.240 . S
Cd44 O45 2.240 . S
Cd44 O52 2.223 . S
Cd44 O54 2.297 . S
Cd44 O55 2.439 . S
O45 Cd44 2.240 . S
O45 C50 1.279 . S
O46 Cd43 2.297 . S
O46 C48 1.247 . S
O47 Cd43 2.439 . S
O47 C48 1.208 . S
C48 O46 1.247 . S
C48 O47 1.208 . S
C49 O54 1.247 . S
C49 O55 1.208 . S
C50 O42 1.315 . S
C50 O45 1.279 . S
C51 O52 1.315 . S
C51 O53 1.279 . S
O52 Cd44 2.223 . S
O52 C51 1.315 . S
O53 Cd43 2.240 . S
O53 C51 1.279 . S
O54 Cd44 2.297 . S
O54 C49 1.247 . S
O55 Cd44 2.439 . S
O55 C49 1.208 . S
O56 Cd57 2.223 1_556 S
O56 C64 1.315 . S
Cd57 O56 2.223 1_554 S
Cd57 O60 2.297 1_554 S
Cd57 O61 2.439 . S
Cd57 O67 2.240 . S
Cd58 O59 2.240 . S
Cd58 O66 2.223 . S
Cd58 O68 2.297 . S
Cd58 O69 2.439 . S
O59 Cd58 2.240 . S
O59 C64 1.279 1_554 S
O60 Cd57 2.297 1_556 S
O60 C62 1.247 1_556 S
O61 Cd57 2.439 . S
O61 C62 1.208 . S
C62 O60 1.247 1_554 S
C62 O61 1.208 . S
C63 O68 1.247 . S
C63 O69 1.208 . S
C64 O56 1.315 . S
C64 O59 1.279 1_556 S
C65 O66 1.315 . S
C65 O67 1.279 . S
O66 Cd58 2.223 . S
O66 C65 1.315 . S
O67 Cd57 2.240 . S
O67 C65 1.279 . S
O68 Cd58 2.297 . S
O68 C63 1.247 . S
O69 Cd58 2.439 . S
O69 C63 1.208 . S
O70 Cd71 2.223 1_556 S
O70 C78 1.315 . S
Cd71 O70 2.223 1_554 S
Cd71 O74 2.297 1_554 S
Cd71 O75 2.439 . S
Cd71 O81 2.240 . S
Cd72 O73 2.240 . S
Cd72 O80 2.223 . S
Cd72 O82 2.297 . S
Cd72 O83 2.439 . S
O73 Cd72 2.240 . S
O73 C78 1.279 1_554 S
O74 Cd71 2.297 1_556 S
O74 C76 1.247 1_556 S
O75 Cd71 2.439 . S
O75 C76 1.208 . S
C76 O74 1.247 1_554 S
C76 O75 1.208 . S
C77 O82 1.247 . S
C77 O83 1.208 . S
C78 O70 1.315 . S
C78 O73 1.279 1_556 S
C79 O80 1.315 . S
C79 O81 1.279 . S
O80 Cd72 2.223 . S
O80 C79 1.315 . S
O81 Cd71 2.240 . S
O81 C79 1.279 . S
O82 Cd72 2.297 . S
O82 C77 1.247 . S
O83 Cd72 2.439 . S
O83 C77 1.208 . S
O84 Cd85 2.223 . S
O84 C92 1.315 . S
Cd85 O84 2.223 . S
Cd85 O88 2.297 . S
Cd85 O89 2.439 . S
Cd85 O95 2.240 . S
Cd86 O87 2.240 . S
Cd86 O94 2.223 . S
Cd86 O96 2.297 . S
Cd86 O97 2.439 . S
O87 Cd86 2.240 . S
O87 C92 1.279 . S
O88 Cd85 2.297 . S
O88 C90 1.247 . S
O89 Cd85 2.439 . S
O89 C90 1.208 . S
C90 O88 1.247 . S
C90 O89 1.208 . S
C91 O96 1.247 . S
C91 O97 1.208 . S
C92 O84 1.315 . S
C92 O87 1.279 . S
C93 O94 1.315 . S
C93 O95 1.279 . S
O94 Cd86 2.223 . S
O94 C93 1.315 . S
O95 Cd85 2.240 . S
O95 C93 1.279 . S
O96 Cd86 2.297 . S
O96 C91 1.247 . S
O97 Cd86 2.439 . S
O97 C91 1.208 . S
O98 Cd99 2.223 . S
O98 C106 1.315 . S
Cd99 O98 2.223 . S
Cd99 O102 2.297 . S
Cd99 O103 2.439 . S
Cd99 O109 2.240 . S
Cd100 O101 2.240 . S
Cd100 O108 2.223 . S
Cd100 O110 2.297 . S
Cd100 O111 2.439 . S
O101 Cd100 2.240 . S
O101 C106 1.279 . S
O102 Cd99 2.297 . S
O102 C104 1.247 . S
O103 Cd99 2.439 . S
O103 C104 1.208 . S
C104 O102 1.247 . S
C104 O103 1.208 . S
C105 O110 1.247 . S
C105 O111 1.208 . S
C106 O98 1.315 . S
C106 O101 1.279 . S
C107 O108 1.315 . S
C107 O109 1.279 . S
O108 Cd100 2.223 . S
O108 C107 1.315 . S
O109 Cd99 2.240 . S
O109 C107 1.279 . S
O110 Cd100 2.297 . S
O110 C105 1.247 . S
O111 Cd100 2.439 . S
O111 C105 1.208 . S
H112 C113 0.951 . S
C113 H112 0.951 . S
C113 C119 1.265 . S
H114 C119 0.950 . S
H115 C123 0.949 . S
H116 C124 0.950 . S
H117 C125 0.951 . S
H118 C126 0.951 . S
C119 C113 1.265 . S
C119 H114 0.950 . S
C119 C120 1.478 . S
C120 C119 1.478 . S
C120 C121 1.397 . S
C120 C137 1.394 . S
C121 C120 1.397 . S
C121 C122 1.438 . S
C121 C126 1.429 . S
C122 C121 1.438 . S
C122 C123 1.428 . S
C122 C135 1.394 . S
C123 H115 0.949 . S
C123 C122 1.428 . S
C123 C124 1.345 . S
C124 H116 0.950 . S
C124 C123 1.345 . S
C124 C125 1.424 . S
C125 H117 0.951 . S
C125 C124 1.424 . S
C125 C126 1.347 . S
C126 H118 0.951 . S
C126 C121 1.429 . S
C126 C125 1.347 . S
H127 C128 0.951 . S
C128 H127 0.951 . S
C128 C134 1.265 . S
H129 C134 0.950 . S
H130 C138 0.949 . S
H131 C139 0.950 . S
H132 C140 0.951 . S
H133 C141 0.951 . S
C134 C128 1.265 . S
C134 H129 0.950 . S
C134 C135 1.478 . S
C135 C122 1.394 . S
C135 C134 1.478 . S
C135 C136 1.397 1_554 S
C136 C135 1.397 1_556 S
C136 C137 1.438 1_556 S
C136 C141 1.429 . S
C137 C120 1.394 . S
C137 C136 1.438 1_554 S
C137 C138 1.428 1_554 S
C138 H130 0.949 . S
C138 C137 1.428 1_556 S
C138 C139 1.345 . S
C139 H131 0.950 . S
C139 C138 1.345 . S
C139 C140 1.424 . S
C140 H132 0.951 . S
C140 C139 1.424 . S
C140 C141 1.347 . S
C141 H133 0.951 . S
C141 C136 1.429 . S
C141 C140 1.347 . S
H142 C143 0.951 . S
C143 H142 0.951 . S
C143 C149 1.265 . S
H144 C149 0.950 . S
H145 C153 0.949 . S
H146 C154 0.950 . S
H147 C155 0.941 1_545 S
H148 C156 0.951 . S
C149 C143 1.265 . S
C149 H144 0.950 . S
C149 C150 1.478 . S
C150 C149 1.478 . S
C150 C151 1.397 . S
C150 C167 1.394 . S
C151 C150 1.397 . S
C151 C152 1.438 . S
C151 C156 1.429 . S
C152 C151 1.438 . S
C152 C153 1.428 . S
C152 C165 1.394 . S
C153 H145 0.949 . S
C153 C152 1.428 . S
C153 C154 1.345 . S
C154 H146 0.950 . S
C154 C153 1.345 . S
C154 C155 1.424 . S
C155 H147 0.941 1_565 S
C155 C154 1.424 . S
C155 C156 1.347 . S
C156 H148 0.951 . S
C156 C151 1.429 . S
C156 C155 1.347 . S
H157 C158 0.951 . S
C158 H157 0.951 . S
C158 C164 1.265 . S
H159 C164 0.950 . S
H160 C168 0.949 . S
H161 C169 0.950 . S
H162 C170 0.951 . S
H163 C171 0.951 . S
C164 C158 1.265 . S
C164 H159 0.950 . S
C164 C165 1.478 . S
C165 C152 1.394 . S
C165 C164 1.478 . S
C165 C166 1.397 . S
C166 C165 1.397 . S
C166 C167 1.438 . S
C166 C171 1.429 . S
C167 C150 1.394 . S
C167 C166 1.438 . S
C167 C168 1.428 1_554 S
C168 H160 0.949 . S
C168 C167 1.428 1_556 S
C168 C169 1.345 . S
C169 H161 0.950 . S
C169 C168 1.345 . S
C169 C170 1.424 . S
C170 H162 0.951 . S
C170 C169 1.424 . S
C170 C171 1.347 1_556 S
C171 H163 0.951 . S
C171 C166 1.429 . S
C171 C170 1.347 1_554 S
H172 C173 0.951 . S
C173 H172 0.951 . S
C173 C179 1.265 . S
H174 C179 0.950 . S
H175 C183 0.949 . S
H176 C184 0.950 . S
H177 C185 0.951 . S
H178 C186 0.951 . S
C179 C173 1.265 . S
C179 H174 0.950 . S
C179 C180 1.478 . S
C180 C179 1.478 . S
C180 C181 1.397 . S
C180 C197 1.394 . S
C181 C180 1.397 . S
C181 C182 1.438 . S
C181 C186 1.429 . S
C182 C181 1.438 . S
C182 C183 1.428 . S
C182 C195 1.394 . S
C183 H175 0.949 . S
C183 C182 1.428 . S
C183 C184 1.345 . S
C184 H176 0.950 . S
C184 C183 1.345 . S
C184 C185 1.424 . S
C185 H177 0.951 . S
C185 C184 1.424 . S
C185 C186 1.347 . S
C186 H178 0.951 . S
C186 C181 1.429 . S
C186 C185 1.347 . S
H187 C188 0.951 . S
C188 H187 0.951 . S
C188 C194 1.265 . S
H189 C194 0.950 . S
H190 C198 0.949 . S
H191 C199 0.950 . S
H192 C200 0.951 . S
H193 C201 0.951 . S
C194 C188 1.265 . S
C194 H189 0.950 . S
C194 C195 1.478 . S
C195 C182 1.394 . S
C195 C194 1.478 . S
C195 C196 1.397 . S
C196 C195 1.397 . S
C196 C197 1.438 . S
C196 C201 1.429 . S
C197 C180 1.394 . S
C197 C196 1.438 . S
C197 C198 1.428 . S
C198 H190 0.949 . S
C198 C197 1.428 . S
C198 C199 1.345 . S
C199 H191 0.950 . S
C199 C198 1.345 . S
C199 C200 1.424 . S
C200 H192 0.951 . S
C200 C199 1.424 . S
C200 C201 1.347 . S
C201 H193 0.951 . S
C201 C196 1.429 . S
C201 C200 1.347 . S
H202 C203 0.951 . S
C203 H202 0.951 . S
C203 C209 1.265 . S
H204 C209 0.950 . S
H205 C213 0.949 . S
H206 C214 0.950 . S
H207 C215 0.951 . S
H208 C216 0.951 . S
C209 C203 1.265 . S
C209 H204 0.950 . S
C209 C210 1.478 . S
C210 C209 1.478 . S
C210 C211 1.397 . S
C210 C227 1.394 . S
C211 C210 1.397 . S
C211 C212 1.438 . S
C211 C216 1.429 . S
C212 C211 1.438 . S
C212 C213 1.428 . S
C212 C225 1.394 . S
C213 H205 0.949 . S
C213 C212 1.428 . S
C213 C214 1.345 . S
C214 H206 0.950 . S
C214 C213 1.345 . S
C214 C215 1.424 . S
C215 H207 0.951 . S
C215 C214 1.424 . S
C215 C216 1.347 . S
C216 H208 0.951 . S
C216 C211 1.429 . S
C216 C215 1.347 . S
H217 C218 0.951 . S
C218 H217 0.951 . S
C218 C224 1.265 . S
H219 C224 0.950 . S
H220 C228 0.949 . S
H221 C229 0.950 . S
H222 C230 0.951 . S
H223 C231 0.951 . S
C224 C218 1.265 . S
C224 H219 0.950 . S
C224 C225 1.478 . S
C225 C212 1.394 . S
C225 C224 1.478 . S
C225 C226 1.397 . S
C226 C225 1.397 . S
C226 C227 1.438 . S
C226 C231 1.429 . S
C227 C210 1.394 . S
C227 C226 1.438 . S
C227 C228 1.428 . S
C228 H220 0.949 . S
C228 C227 1.428 . S
C228 C229 1.345 . S
C229 H221 0.950 . S
C229 C228 1.345 . S
C229 C230 1.424 . S
C230 H222 0.951 . S
C230 C229 1.424 . S
C230 C231 1.347 . S
C231 H223 0.951 . S
C231 C226 1.429 . S
C231 C230 1.347 . S
H232 C233 0.951 . S
C233 H232 0.951 . S
C233 C239 1.265 . S
H234 C239 0.950 . S
H235 C243 0.949 . S
H236 C244 0.950 . S
H237 C245 0.951 . S
H238 C246 0.951 . S
C239 C233 1.265 . S
C239 H234 0.950 . S
C239 C240 1.478 . S
C240 C239 1.478 . S
C240 C241 1.397 . S
C240 C257 1.394 . S
C241 C240 1.397 . S
C241 C242 1.438 . S
C241 C246 1.429 . S
C242 C241 1.438 . S
C242 C243 1.428 . S
C242 C255 1.394 . S
C243 H235 0.949 . S
C243 C242 1.428 . S
C243 C244 1.345 . S
C244 H236 0.950 . S
C244 C243 1.345 . S
C244 C245 1.424 . S
C245 H237 0.951 . S
C245 C244 1.424 . S
C245 C246 1.347 . S
C246 H238 0.951 . S
C246 C241 1.429 . S
C246 C245 1.347 . S
H247 C248 0.951 . S
C248 H247 0.951 . S
C248 C254 1.265 . S
H249 C254 0.950 . S
H250 C258 0.949 . S
H251 C259 0.950 . S
H252 C260 0.951 . S
H253 C261 0.951 . S
C254 C248 1.265 . S
C254 H249 0.950 . S
C254 C255 1.478 . S
C255 C242 1.394 . S
C255 C254 1.478 . S
C255 C256 1.397 . S
C256 C255 1.397 . S
C256 C257 1.438 . S
C256 C261 1.429 . S
C257 C240 1.394 . S
C257 C256 1.438 . S
C257 C258 1.428 . S
C258 H250 0.949 . S
C258 C257 1.428 . S
C258 C259 1.345 . S
C259 H251 0.950 . S
C259 C258 1.345 . S
C259 C260 1.424 . S
C260 H252 0.951 . S
C260 C259 1.424 . S
C260 C261 1.347 . S
C261 H253 0.951 . S
C261 C256 1.429 . S
C261 C260 1.347 . S
H262 C263 0.951 . S
C263 H262 0.951 . S
C263 C269 1.265 . S
H264 C269 0.950 . S
H265 C273 0.949 . S
H266 C274 0.950 . S
H267 C275 0.951 . S
H268 C276 0.951 . S
C269 C263 1.265 . S
C269 H264 0.950 . S
C269 C270 1.478 . S
C270 C269 1.478 . S
C270 C271 1.397 . S
C270 C287 1.394 . S
C271 C270 1.397 . S
C271 C272 1.438 . S
C271 C276 1.429 . S
C272 C271 1.438 . S
C272 C273 1.428 . S
C272 C285 1.394 . S
C273 H265 0.949 . S
C273 C272 1.428 . S
C273 C274 1.345 . S
C274 H266 0.950 . S
C274 C273 1.345 . S
C274 C275 1.424 . S
C275 H267 0.951 . S
C275 C274 1.424 . S
C275 C276 1.347 . S
C276 H268 0.951 . S
C276 C271 1.429 . S
C276 C275 1.347 . S
H277 C278 0.951 . S
C278 H277 0.951 . S
C278 C284 1.265 . S
H279 C284 0.950 . S
H280 C288 0.949 . S
H281 C289 0.950 . S
H282 C290 0.951 . S
H283 C291 0.951 . S
C284 C278 1.265 . S
C284 H279 0.950 . S
C284 C285 1.478 . S
C285 C272 1.394 . S
C285 C284 1.478 . S
C285 C286 1.397 . S
C286 C285 1.397 . S
C286 C287 1.438 . S
C286 C291 1.429 . S
C287 C270 1.394 . S
C287 C286 1.438 . S
C287 C288 1.428 . S
C288 H280 0.949 . S
C288 C287 1.428 . S
C288 C289 1.345 . S
C289 H281 0.950 . S
C289 C288 1.345 . S
C289 C290 1.424 . S
C290 H282 0.951 . S
C290 C289 1.424 . S
C290 C291 1.347 . S
C291 H283 0.951 . S
C291 C286 1.429 . S
C291 C290 1.347 . S
H292 C293 0.951 . S
C293 H292 0.951 . S
C293 C299 1.265 . S
H294 C299 0.950 . S
H295 C303 0.949 . S
H296 C304 0.950 . S
H297 C305 0.951 . S
H298 C306 0.951 . S
C299 C293 1.265 . S
C299 H294 0.950 . S
C299 C300 1.478 . S
C300 C299 1.478 . S
C300 C301 1.397 . S
C300 C317 1.394 . S
C301 C300 1.397 . S
C301 C302 1.438 . S
C301 C306 1.429 . S
C302 C301 1.438 . S
C302 C303 1.428 . S
C302 C315 1.394 . S
C303 H295 0.949 . S
C303 C302 1.428 . S
C303 C304 1.345 . S
C304 H296 0.950 . S
C304 C303 1.345 . S
C304 C305 1.424 . S
C305 H297 0.951 . S
C305 C304 1.424 . S
C305 C306 1.347 . S
C306 H298 0.951 . S
C306 C301 1.429 . S
C306 C305 1.347 . S
H307 C308 0.951 . S
C308 H307 0.951 . S
C308 C314 1.265 . S
H309 C314 0.950 . S
H310 C318 0.949 . S
H311 C319 0.950 . S
H312 C320 0.951 . S
H313 C321 0.951 . S
C314 C308 1.265 . S
C314 H309 0.950 . S
C314 C315 1.478 . S
C315 C302 1.394 . S
C315 C314 1.478 . S
C315 C316 1.397 . S
C316 C315 1.397 . S
C316 C317 1.438 . S
C316 C321 1.429 . S
C317 C300 1.394 . S
C317 C316 1.438 . S
C317 C318 1.428 . S
C318 H310 0.949 . S
C318 C317 1.428 . S
C318 C319 1.345 . S
C319 H311 0.950 . S
C319 C318 1.345 . S
C319 C320 1.424 . S
C320 H312 0.951 . S
C320 C319 1.424 . S
C320 C321 1.347 . S
C321 H313 0.951 . S
C321 C316 1.429 . S
C321 C320 1.347 . S
H322 C323 0.951 . S
C323 H322 0.951 . S
C323 C329 1.265 . S
H324 C329 0.950 . S
H325 C333 0.949 . S
H326 C334 0.950 . S
H327 C335 0.951 . S
H328 C336 0.951 . S
C329 C323 1.265 . S
C329 H324 0.950 . S
C329 C330 1.478 . S
C330 C329 1.478 . S
C330 C331 1.397 . S
C330 C347 1.394 . S
C331 C330 1.397 . S
C331 C332 1.438 . S
C331 C336 1.429 . S
C332 C331 1.438 . S
C332 C333 1.428 . S
C332 C345 1.394 . S
C333 H325 0.949 . S
C333 C332 1.428 . S
C333 C334 1.345 . S
C334 H326 0.950 . S
C334 C333 1.345 . S
C334 C335 1.424 . S
C335 H327 0.951 . S
C335 C334 1.424 . S
C335 C336 1.347 . S
C336 H328 0.951 . S
C336 C331 1.429 . S
C336 C335 1.347 . S
H337 C338 0.951 . S
C338 H337 0.951 . S
C338 C344 1.265 . S
H339 C344 0.950 . S
H340 C348 0.949 . S
H341 C349 0.950 . S
H342 C350 0.951 . S
H343 C351 0.951 . S
C344 C338 1.265 . S
C344 H339 0.950 . S
C344 C345 1.478 . S
C345 C332 1.394 . S
C345 C344 1.478 . S
C345 C346 1.397 . S
C346 C345 1.397 . S
C346 C347 1.438 . S
C346 C351 1.429 . S
C347 C330 1.394 . S
C347 C346 1.438 . S
C347 C348 1.428 . S
C348 H340 0.949 . S
C348 C347 1.428 . S
C348 C349 1.345 . S
C349 H341 0.950 . S
C349 C348 1.345 . S
C349 C350 1.424 . S
C350 H342 0.951 . S
C350 C349 1.424 . S
C350 C351 1.347 . S
C351 H343 0.951 . S
C351 C346 1.429 . S
C351 C350 1.347 . S
H352 C353 0.951 . S
C353 H352 0.951 . S
C353 C359 1.265 . S
H354 C359 0.950 . S
H355 C363 0.949 . S
H356 C364 0.950 . S
H357 C365 0.951 . S
H358 C366 0.951 . S
C359 C353 1.265 . S
C359 H354 0.950 . S
C359 C360 1.478 . S
C360 C359 1.478 . S
C360 C361 1.397 1_565 S
C360 C377 1.394 . S
C361 C360 1.397 1_545 S
C361 C362 1.438 . S
C361 C366 1.429 . S
C362 C361 1.438 . S
C362 C363 1.428 . S
C362 C375 1.394 . S
C363 H355 0.949 . S
C363 C362 1.428 . S
C363 C364 1.345 . S
C364 H356 0.950 . S
C364 C363 1.345 . S
C364 C365 1.424 . S
C365 H357 0.951 . S
C365 C364 1.424 . S
C365 C366 1.347 . S
C366 H358 0.951 . S
C366 C361 1.429 . S
C366 C365 1.347 . S
H367 C368 0.951 . S
C368 H367 0.951 . S
C368 C374 1.265 . S
H369 C374 0.950 . S
H370 C378 0.949 . S
H371 C379 0.950 . S
H372 C380 0.951 . S
H373 C381 0.951 . S
C374 C368 1.265 . S
C374 H369 0.950 . S
C374 C375 1.478 . S
C375 C362 1.394 . S
C375 C374 1.478 . S
C375 C376 1.397 1_545 S
C376 C375 1.397 1_565 S
C376 C377 1.438 . S
C376 C381 1.429 . S
C377 C360 1.394 . S
C377 C376 1.438 . S
C377 C378 1.428 . S
C378 H370 0.949 . S
C378 C377 1.428 . S
C378 C379 1.345 . S
C379 H371 0.950 . S
C379 C378 1.345 . S
C379 C380 1.424 . S
C380 H372 0.951 . S
C380 C379 1.424 . S
C380 C381 1.347 . S
C381 H373 0.951 . S
C381 C376 1.429 . S
C381 C380 1.347 . S
H382 C383 0.951 . S
C383 H382 0.951 . S
C383 C389 1.265 . S
H384 C389 0.950 . S
H385 C393 0.949 . S
H386 C394 0.950 . S
H387 C395 0.951 . S
H388 C396 0.951 . S
C389 C383 1.265 . S
C389 H384 0.950 . S
C389 C390 1.478 . S
C390 C389 1.478 . S
C390 C391 1.397 1_565 S
C390 C407 1.394 . S
C391 C390 1.397 1_545 S
C391 C392 1.438 . S
C391 C396 1.429 . S
C392 C391 1.438 . S
C392 C393 1.428 . S
C392 C405 1.394 . S
C393 H385 0.949 . S
C393 C392 1.428 . S
C393 C394 1.345 . S
C394 H386 0.950 . S
C394 C393 1.345 . S
C394 C395 1.424 . S
C395 H387 0.951 . S
C395 C394 1.424 . S
C395 C396 1.347 . S
C396 H388 0.951 . S
C396 C391 1.429 . S
C396 C395 1.347 . S
H397 C398 0.951 . S
C398 H397 0.951 . S
C398 C404 1.265 . S
H399 C404 0.950 . S
H400 C408 0.949 . S
H401 C409 0.950 . S
H402 C410 0.951 . S
H403 C411 0.951 . S
C404 C398 1.265 . S
C404 H399 0.950 . S
C404 C405 1.478 . S
C405 C392 1.394 . S
C405 C404 1.478 . S
C405 C406 1.397 1_545 S
C406 C405 1.397 1_565 S
C406 C407 1.438 . S
C406 C411 1.429 . S
C407 C390 1.394 . S
C407 C406 1.438 . S
C407 C408 1.428 . S
C408 H400 0.949 . S
C408 C407 1.428 . S
C408 C409 1.345 . S
C409 H401 0.950 . S
C409 C408 1.345 . S
C409 C410 1.424 . S
C410 H402 0.951 . S
C410 C409 1.424 . S
C410 C411 1.347 . S
C411 H403 0.951 . S
C411 C406 1.429 . S
C411 C410 1.347 . S
H412 C413 0.951 . S
C413 H412 0.951 . S
C413 C419 1.265 . S
H414 C419 0.950 . S
H415 C423 0.949 . S
H416 C424 0.950 . S
H417 C425 0.951 . S
H418 C426 0.951 . S
C419 C413 1.265 . S
C419 H414 0.950 . S
C419 C420 1.478 . S
C420 C419 1.478 . S
C420 C421 1.397 . S
C420 C437 1.394 1_565 S
C421 C420 1.397 . S
C421 C422 1.438 . S
C421 C426 1.429 . S
C422 C421 1.438 . S
C422 C423 1.428 . S
C422 C435 1.394 1_565 S
C423 H415 0.949 . S
C423 C422 1.428 . S
C423 C424 1.345 . S
C424 H416 0.950 . S
C424 C423 1.345 . S
C424 C425 1.424 . S
C425 H417 0.951 . S
C425 C424 1.424 . S
C425 C426 1.347 . S
C426 H418 0.951 . S
C426 C421 1.429 . S
C426 C425 1.347 . S
H427 C428 0.951 . S
C428 H427 0.951 . S
C428 C434 1.265 . S
H429 C434 0.950 . S
H430 C438 0.949 . S
H431 C439 0.950 . S
H432 C440 0.951 . S
H433 C441 0.951 . S
C434 C428 1.265 . S
C434 H429 0.950 . S
C434 C435 1.478 . S
C435 C422 1.394 1_545 S
C435 C434 1.478 . S
C435 C436 1.397 . S
C436 C435 1.397 . S
C436 C437 1.438 . S
C436 C441 1.429 . S
C437 C420 1.394 1_545 S
C437 C436 1.438 . S
C437 C438 1.428 . S
C438 H430 0.949 . S
C438 C437 1.428 . S
C438 C439 1.345 . S
C439 H431 0.950 . S
C439 C438 1.345 . S
C439 C440 1.424 . S
C440 H432 0.951 . S
C440 C439 1.424 . S
C440 C441 1.347 . S
C441 H433 0.951 . S
C441 C436 1.429 . S
C441 C440 1.347 . S
H442 C443 0.951 . S
C443 H442 0.951 . S
C443 C449 1.265 . S
H444 C449 0.950 . S
H445 C453 0.949 . S
H446 C454 0.950 . S
H447 C455 0.951 . S
H448 C456 0.951 . S
C449 C443 1.265 . S
C449 H444 0.950 . S
C449 C450 1.478 . S
C450 C449 1.478 . S
C450 C451 1.397 1_565 S
C450 C467 1.394 . S
C451 C450 1.397 1_545 S
C451 C452 1.438 . S
C451 C456 1.429 . S
C452 C451 1.438 . S
C452 C453 1.428 . S
C452 C465 1.394 . S
C453 H445 0.949 . S
C453 C452 1.428 . S
C453 C454 1.345 . S
C454 H446 0.950 . S
C454 C453 1.345 . S
C454 C455 1.424 . S
C455 H447 0.951 . S
C455 C454 1.424 . S
C455 C456 1.347 . S
C456 H448 0.951 . S
C456 C451 1.429 . S
C456 C455 1.347 . S
H457 C458 0.951 . S
C458 H457 0.951 . S
C458 C464 1.265 . S
H459 C464 0.950 . S
H460 C468 0.949 . S
H461 C469 0.950 . S
H462 C470 0.951 . S
H463 C471 0.951 . S
C464 C458 1.265 . S
C464 H459 0.950 . S
C464 C465 1.478 . S
C465 C452 1.394 . S
C465 C464 1.478 . S
C465 C466 1.397 1_545 S
C466 C465 1.397 1_565 S
C466 C467 1.438 . S
C466 C471 1.429 . S
C467 C450 1.394 . S
C467 C466 1.438 . S
C467 C468 1.428 . S
C468 H460 0.949 . S
C468 C467 1.428 . S
C468 C469 1.345 . S
C469 H461 0.950 . S
C469 C468 1.345 . S
C469 C470 1.424 . S
C470 H462 0.951 . S
C470 C469 1.424 . S
C470 C471 1.347 . S
C471 H463 0.951 . S
C471 C466 1.429 . S
C471 C470 1.347 . S
H472 C473 0.951 . S
C473 H472 0.951 . S
C473 C479 1.265 . S
H474 C479 0.950 . S
H475 C483 0.949 . S
H476 C484 0.950 . S
H477 C485 0.951 . S
H478 C486 0.951 . S
C479 C473 1.265 . S
C479 H474 0.950 . S
C479 C480 1.478 . S
C480 C479 1.478 . S
C480 C481 1.397 1_554 S
C480 C497 1.394 . S
C481 C480 1.397 1_556 S
C481 C482 1.438 1_565 S
C481 C486 1.429 . S
C482 C481 1.438 1_545 S
C482 C483 1.428 . S
C482 C495 1.394 1_556 S
C483 H475 0.949 . S
C483 C482 1.428 . S
C483 C484 1.345 1_545 S
C484 H476 0.950 . S
C484 C483 1.345 1_565 S
C484 C485 1.424 . S
C485 H477 0.951 . S
C485 C484 1.424 . S
C485 C486 1.347 . S
C486 H478 0.951 . S
C486 C481 1.429 . S
C486 C485 1.347 . S
H487 C488 0.951 . S
C488 H487 0.951 . S
C488 C494 1.265 . S
H489 C494 0.950 . S
H490 C498 0.949 . S
H491 C499 0.950 . S
H492 C500 0.951 . S
H493 C501 0.951 . S
C494 C488 1.265 . S
C494 H489 0.950 . S
C494 C495 1.478 . S
C495 C482 1.394 1_554 S
C495 C494 1.478 . S
C495 C496 1.397 . S
C496 C495 1.397 . S
C496 C497 1.438 1_545 S
C496 C501 1.429 . S
C497 C480 1.394 . S
C497 C496 1.438 1_565 S
C497 C498 1.428 . S
C498 H490 0.949 . S
C498 C497 1.428 . S
C498 C499 1.345 1_565 S
C499 H491 0.950 . S
C499 C498 1.345 1_545 S
C499 C500 1.424 . S
C500 H492 0.951 . S
C500 C499 1.424 . S
C500 C501 1.347 . S
C501 H493 0.951 . S
C501 C496 1.429 . S
C501 C500 1.347 . S
H502 C503 0.951 . S
C503 H502 0.951 . S
C503 C509 1.265 . S
H504 C509 0.950 . S
H505 C513 0.949 . S
H506 C514 0.950 1_545 S
H507 C515 0.951 . S
H508 C516 0.951 . S
C509 C503 1.265 . S
C509 H504 0.950 . S
C509 C510 1.478 . S
C510 C509 1.478 . S
C510 C511 1.397 . S
C510 C527 1.394 . S
C511 C510 1.397 . S
C511 C512 1.438 1_565 S
C511 C516 1.429 . S
C512 C511 1.438 1_545 S
C512 C513 1.428 . S
C512 C525 1.394 . S
C513 H505 0.949 . S
C513 C512 1.428 . S
C513 C514 1.345 1_545 S
C514 H506 0.950 1_565 S
C514 C513 1.345 1_565 S
C514 C515 1.424 . S
C515 H507 0.951 . S
C515 C514 1.424 . S
C515 C516 1.347 . S
C516 H508 0.951 . S
C516 C511 1.429 . S
C516 C515 1.347 . S
H517 C518 0.951 . S
C518 H517 0.951 . S
C518 C524 1.265 . S
H519 C524 0.950 . S
H520 C528 0.949 . S
H521 C529 0.950 1_565 S
H522 C530 0.951 . S
H523 C531 0.951 . S
C524 C518 1.265 . S
C524 H519 0.950 . S
C524 C525 1.478 . S
C525 C512 1.394 . S
C525 C524 1.478 . S
C525 C526 1.397 . S
C526 C525 1.397 . S
C526 C527 1.438 1_545 S
C526 C531 1.429 . S
C527 C510 1.394 . S
C527 C526 1.438 1_565 S
C527 C528 1.428 . S
C528 H520 0.949 . S
C528 C527 1.428 . S
C528 C529 1.345 1_565 S
C529 H521 0.950 1_545 S
C529 C528 1.345 1_545 S
C529 C530 1.424 . S
C530 H522 0.951 . S
C530 C529 1.424 . S
C530 C531 1.347 . S
C531 H523 0.951 . S
C531 C526 1.429 . S
C531 C530 1.347 . S
H532 C533 0.951 . S
C533 H532 0.951 . S
C533 C539 1.265 . S
H534 C539 0.950 . S
H535 C543 0.949 . S
H536 C544 0.950 . S
H537 C545 0.951 . S
H538 C546 0.951 . S
C539 C533 1.265 . S
C539 H534 0.950 . S
C539 C540 1.478 . S
C540 C539 1.478 . S
C540 C541 1.397 . S
C540 C557 1.394 1_554 S
C541 C540 1.397 . S
C541 C542 1.438 1_455 S
C541 C546 1.429 . S
C542 C541 1.438 1_655 S
C542 C543 1.428 . S
C542 C555 1.394 . S
C543 H535 0.949 . S
C543 C542 1.428 . S
C543 C544 1.345 . S
C544 H536 0.950 . S
C544 C543 1.345 . S
C544 C545 1.424 1_655 S
C545 H537 0.951 . S
C545 C544 1.424 1_455 S
C545 C546 1.347 . S
C546 H538 0.951 . S
C546 C541 1.429 . S
C546 C545 1.347 . S
H547 C548 0.951 . S
C548 H547 0.951 . S
C548 C554 1.265 . S
H549 C554 0.950 . S
H550 C558 0.949 . S
H551 C559 0.950 . S
H552 C560 0.951 . S
H553 C561 0.951 . S
C554 C548 1.265 . S
C554 H549 0.950 . S
C554 C555 1.478 . S
C555 C542 1.394 . S
C555 C554 1.478 . S
C555 C556 1.397 1_554 S
C556 C555 1.397 1_556 S
C556 C557 1.438 1_655 S
C556 C561 1.429 . S
C557 C540 1.394 1_556 S
C557 C556 1.438 1_455 S
C557 C558 1.428 . S
C558 H550 0.949 . S
C558 C557 1.428 . S
C558 C559 1.345 . S
C559 H551 0.950 . S
C559 C558 1.345 . S
C559 C560 1.424 1_455 S
C560 H552 0.951 . S
C560 C559 1.424 1_655 S
C560 C561 1.347 . S
C561 H553 0.951 . S
C561 C556 1.429 . S
C561 C560 1.347 . S
H562 C563 0.951 . S
C563 H562 0.951 . S
C563 C569 1.265 . S
H564 C569 0.950 . S
H565 C573 0.949 . S
H566 C574 0.950 . S
H567 C575 0.951 . S
H568 C576 0.951 . S
C569 C563 1.265 . S
C569 H564 0.950 . S
C569 C570 1.478 . S
C570 C569 1.478 . S
C570 C571 1.397 . S
C570 C587 1.394 . S
C571 C570 1.397 . S
C571 C572 1.438 1_455 S
C571 C576 1.429 . S
C572 C571 1.438 1_655 S
C572 C573 1.428 . S
C572 C585 1.394 . S
C573 H565 0.949 . S
C573 C572 1.428 . S
C573 C574 1.345 . S
C574 H566 0.950 . S
C574 C573 1.345 . S
C574 C575 1.424 1_655 S
C575 H567 0.951 . S
C575 C574 1.424 1_455 S
C575 C576 1.347 . S
C576 H568 0.951 . S
C576 C571 1.429 . S
C576 C575 1.347 . S
H577 C578 0.951 . S
C578 H577 0.951 . S
C578 C584 1.265 . S
H579 C584 0.950 . S
H580 C588 0.949 . S
H581 C589 0.950 . S
H582 C590 0.951 . S
H583 C591 0.951 . S
C584 C578 1.265 . S
C584 H579 0.950 . S
C584 C585 1.478 . S
C585 C572 1.394 . S
C585 C584 1.478 . S
C585 C586 1.397 . S
C586 C585 1.397 . S
C586 C587 1.438 1_655 S
C586 C591 1.429 . S
C587 C570 1.394 . S
C587 C586 1.438 1_455 S
C587 C588 1.428 . S
C588 H580 0.949 . S
C588 C587 1.428 . S
C588 C589 1.345 . S
C589 H581 0.950 . S
C589 C588 1.345 . S
C589 C590 1.424 1_455 S
C590 H582 0.951 . S
C590 C589 1.424 1_655 S
C590 C591 1.347 . S
C591 H583 0.951 . S
C591 C586 1.429 . S
C591 C590 1.347 . S
C113 C79 1.511 . S
C128 C9 1.485 . S
C143 C65 1.489 . S
C158 C23 1.511 . S
C173 C107 1.453 . S
C188 C37 1.453 . S
C203 C93 1.507 . S
C218 C51 1.471 . S
C233 C7 1.518 . S
C248 C35 1.501 . S
C263 C21 1.501 . S
C278 C49 1.518 . S
C293 C22 1.524 . S
C308 C50 1.535 . S
C323 C8 1.523 . S
C338 C36 1.535 . S
C353 C63 1.512 . S
C368 C91 1.495 . S
C383 C105 1.518 . S
C398 C77 1.501 . S
C413 C106 1.522 . S
C428 C78 1.534 . S
C443 C64 1.533 . S
C458 C92 1.522 . S
C473 C20 1.478 . S
C488 C6 1.478 . S
C503 C34 1.479 . S
C518 C48 1.477 . S
C533 C62 1.533 . S
C548 C76 1.535 . S
C563 C90 1.528 . S
C578 C104 1.535 . S
