# Generated by pormake.
# Topology wla, (5)-cn, num edge types: 1
# Building blocks:
#     Node 0, Type 0, BuildingBlock: XOMCOT_clean_sbu_0, # of connection points: 5
#     Node 1, Type 0, BuildingBlock: XOMCOT_clean_sbu_0, # of connection points: 5
#     Node 2, Type 0, BuildingBlock: XOMCOT_clean_sbu_0, # of connection points: 5
#     Node 3, Type 0, BuildingBlock: XOMCOT_clean_sbu_0, # of connection points: 5
#     Node 4, Type 0, BuildingBlock: XOMCOT_clean_sbu_0, # of connection points: 5
#     Node 5, Type 0, BuildingBlock: XOMCOT_clean_sbu_0, # of connection points: 5
#     Node 6, Type 0, BuildingBlock: XOMCOT_clean_sbu_0, # of connection points: 5
#     Node 7, Type 0, BuildingBlock: XOMCOT_clean_sbu_0, # of connection points: 5
#     Node 8, Type 0, BuildingBlock: XOMCOT_clean_sbu_0, # of connection points: 5
#     Node 9, Type 0, BuildingBlock: XOMCOT_clean_sbu_0, # of connection points: 5
#     Node 10, Type 0, BuildingBlock: XOMCOT_clean_sbu_0, # of connection points: 5
#     Node 11, Type 0, BuildingBlock: XOMCOT_clean_sbu_0, # of connection points: 5
#     Node 12, Type 0, BuildingBlock: XOMCOT_clean_sbu_0, # of connection points: 5
#     Node 13, Type 0, BuildingBlock: XOMCOT_clean_sbu_0, # of connection points: 5
#     Node 14, Type 0, BuildingBlock: XOMCOT_clean_sbu_0, # of connection points: 5
#     Node 15, Type 0, BuildingBlock: XOMCOT_clean_sbu_0, # of connection points: 5
#     Node 16, Type 0, BuildingBlock: XOMCOT_clean_sbu_0, # of connection points: 5
#     Node 17, Type 0, BuildingBlock: XOMCOT_clean_sbu_0, # of connection points: 5
#     Edge 18, Type (0, 0), None
#     Edge 19, Type (0, 0), None
#     Edge 20, Type (0, 0), None
#     Edge 21, Type (0, 0), None
#     Edge 22, Type (0, 0), None
#     Edge 23, Type (0, 0), None
#     Edge 24, Type (0, 0), None
#     Edge 25, Type (0, 0), None
#     Edge 26, Type (0, 0), None
#     Edge 27, Type (0, 0), None
#     Edge 28, Type (0, 0), None
#     Edge 29, Type (0, 0), None
#     Edge 30, Type (0, 0), None
#     Edge 31, Type (0, 0), None
#     Edge 32, Type (0, 0), None
#     Edge 33, Type (0, 0), None
#     Edge 34, Type (0, 0), None
#     Edge 35, Type (0, 0), None
#     Edge 36, Type (0, 0), None
#     Edge 37, Type (0, 0), None
#     Edge 38, Type (0, 0), None
#     Edge 39, Type (0, 0), None
#     Edge 40, Type (0, 0), None
#     Edge 41, Type (0, 0), None
#     Edge 42, Type (0, 0), None
#     Edge 43, Type (0, 0), None
#     Edge 44, Type (0, 0), None
#     Edge 45, Type (0, 0), None
#     Edge 46, Type (0, 0), None
#     Edge 47, Type (0, 0), None
#     Edge 48, Type (0, 0), None
#     Edge 49, Type (0, 0), None
#     Edge 50, Type (0, 0), None
#     Edge 51, Type (0, 0), None
#     Edge 52, Type (0, 0), None
#     Edge 53, Type (0, 0), None
#     Edge 54, Type (0, 0), None
#     Edge 55, Type (0, 0), None
#     Edge 56, Type (0, 0), None
#     Edge 57, Type (0, 0), None
#     Edge 58, Type (0, 0), None
#     Edge 59, Type (0, 0), None
#     Edge 60, Type (0, 0), None
#     Edge 61, Type (0, 0), None
#     Edge 62, Type (0, 0), None
# Relax obj value: 0.264
# Max RMSD: 0.267
# Mean RMSD: 0.264
data_MOF--net-wla--node1-XOMCOT_clean_sbu_0--edge1-none
_symmetry_space_group_name_H-M    P1
_symmetry_Int_Tables_number       1
_symmetry_cell_setting            triclinic
loop_
_symmetry_equiv_pos_as_xyz
'x, y, z'
_cell_length_a     31.017173
_cell_length_b     31.017195
_cell_length_c     15.911875
_cell_angle_alpha  90.21932
_cell_angle_beta   89.78152
_cell_angle_gamma 120.55036
loop_
_atom_site_label
_atom_site_type_symbol
_atom_site_fract_x
_atom_site_fract_y
_atom_site_fract_z
_atom_type_partial_charge
Co0 Co 0.17316 0.04411 0.18289 0.0
C1 C 0.28295 0.1104 0.19164 0.0
C2 C 0.24731 0.14718 0.13505 0.0
C3 C 0.29807 0.18074 0.13858 0.0
N4 N 0.23796 0.10347 0.16918 0.0
N5 N 0.31989 0.15702 0.17269 0.0
H6 H 0.28838 0.08274 0.22345 0.0
H7 H 0.21913 0.15435 0.11047 0.0
C8 C 0.11519 0.09189 0.26388 0.0
O9 O 0.09557 0.06135 0.32813 0.0
N10 N 0.10755 0.98234 0.19568 0.0
C11 C 0.09895 0.93517 0.18544 0.0
C12 C 0.04948 0.90094 0.20194 0.0
C13 C 0.06205 0.97538 0.21648 0.0
N14 N 0.02686 0.92646 0.22393 0.0
C15 C 0.18871 0.99363 0.32 0.0
C16 C 0.20174 0.06307 0.44167 0.0
C17 C 0.19446 0.0165 0.46695 0.0
C18 C 0.18995 0.98237 0.40462 0.0
C19 C 0.19973 0.07253 0.35634 0.0
N20 N 0.19002 0.03665 0.2974 0.0
H21 H 0.18464 0.96679 0.27282 0.0
H22 H 0.20394 0.10797 0.33804 0.0
H23 H 0.12655 0.92557 0.16685 0.0
H24 H 0.05275 1.0043 0.21769 0.0
O25 O 0.19655 0.00595 0.11717 0.0
O26 O 0.16036 0.04621 0.06718 0.0
O27 O 0.14644 0.08917 0.21502 0.0
C28 C 0.17975 0.0187 0.05226 0.0
H29 H 0.31739 0.21961 0.11951 0.0
H30 H 0.0317 0.86056 0.19882 0.0
H31 H 0.20598 0.09086 0.48753 0.0
H32 H 0.18586 0.94664 0.42123 0.0
Co33 Co 0.97229 0.13364 0.18117 0.0
C34 C 0.90048 0.16951 0.17312 0.0
C35 C 0.86519 0.09012 0.15144 0.0
C36 C 0.83009 0.10405 0.14012 0.0
N37 N 0.90917 0.13105 0.17184 0.0
N38 N 0.85239 0.15369 0.15397 0.0
H39 H 0.9292 0.20829 0.18213 0.0
H40 H 0.85953 0.05315 0.14098 0.0
C41 C 0.936 0.02759 0.17687 0.0
O42 O 0.96612 0.03916 0.11189 0.0
N43 N 0.03624 0.13604 0.19291 0.0
C44 C 0.07914 0.16534 0.15046 0.0
C45 C 0.11476 0.15449 0.17586 0.0
C46 C 0.04761 0.10965 0.24735 0.0
N47 N 0.09507 0.11945 0.23663 0.0
C48 C 0.02451 0.20161 0.31581 0.0
C49 C 0.95574 0.14556 0.43928 0.0
C50 C 1.0024 0.18609 0.46334 0.0
C51 C 0.03641 0.21522 0.40018 0.0
C52 C 0.94566 0.13286 0.35438 0.0
N53 N 0.98069 0.15959 0.29448 0.0
H54 H 0.05174 0.223 0.2677 0.0
H55 H 0.91059 0.10008 0.33707 0.0
H56 H 0.08492 0.19287 0.10377 0.0
H57 H 0.02083 0.0816 0.28994 0.0
O58 O 1.00485 0.19532 0.11316 0.0
O59 O 0.96836 0.11819 0.06432 0.0
O60 O 0.93607 0.06234 0.22086 0.0
C61 C 0.99229 0.16539 0.04817 0.0
H62 H 0.79187 0.08011 0.11949 0.0
H63 H 0.15207 0.17032 0.14988 0.0
H64 H 0.92841 0.12193 0.48587 0.0
H65 H 0.07254 0.2472 0.41595 0.0
Co66 Co 0.87284 0.83257 0.18423 0.0
C67 C 0.83651 0.72333 0.19027 0.0
C68 C 0.90954 0.76642 0.13411 0.0
C69 C 0.8982 0.71752 0.14004 0.0
N70 N 0.87126 0.77018 0.16625 0.0
N71 N 0.85251 0.69085 0.17513 0.0
H72 H 0.80151 0.71363 0.22085 0.0
H73 H 0.944 0.79747 0.11005 0.0
C74 C 0.9777 0.90745 0.24267 0.0
O75 O 0.96362 0.93599 0.28019 0.0
N76 N 0.87482 0.89609 0.20195 0.0
C77 C 0.85536 0.9099 0.266 0.0
C78 C 0.87413 0.96064 0.26285 0.0
C79 C 0.90375 0.9389 0.15898 0.0
N80 N 0.90545 0.97879 0.19695 0.0
C81 C 0.79731 0.79416 0.31676 0.0
C82 C 0.86347 0.8144 0.44761 0.0
C83 C 0.81506 0.80397 0.46691 0.0
C84 C 0.78102 0.79173 0.4005 0.0
C85 C 0.8784 0.81731 0.36366 0.0
N86 N 0.84664 0.81106 0.29914 0.0
H87 H 0.77163 0.78779 0.26606 0.0
H88 H 0.91643 0.82694 0.35175 0.0
H89 H 0.83178 0.88654 0.31585 0.0
H90 H 0.92709 0.9416 0.10611 0.0
O91 O 0.8117 0.80914 0.11532 0.0
O92 O 0.889 0.84861 0.06744 0.0
O93 O 0.9455 0.86296 0.21945 0.0
C94 C 0.84194 0.82823 0.05086 0.0
H95 H 0.92167 0.70275 0.12067 0.0
H96 H 0.86742 0.98278 0.30811 0.0
H97 H 0.89068 0.82338 0.49711 0.0
H98 H 0.74317 0.78336 0.41279 0.0
Co99 Co 0.04453 0.17277 0.83758 0.0
C100 C 0.11085 0.28255 0.82893 0.0
C101 C 0.1476 0.24688 0.88552 0.0
C102 C 0.18118 0.29763 0.88203 0.0
N103 N 0.10391 0.23755 0.85136 0.0
N104 N 0.15747 0.31947 0.84792 0.0
H105 H 0.08321 0.288 0.79711 0.0
H106 H 0.15475 0.21868 0.91008 0.0
C107 C 0.09227 0.11476 0.7566 0.0
O108 O 0.06171 0.09512 0.69239 0.0
N109 N 0.98276 0.10716 0.82473 0.0
C110 C 0.93559 0.09858 0.83485 0.0
C111 C 0.90136 0.04911 0.81837 0.0
C112 C 0.9758 0.06166 0.80404 0.0
N113 N 0.92688 0.02648 0.79653 0.0
C114 C 0.99411 0.1884 0.70048 0.0
C115 C 0.06353 0.20136 0.57881 0.0
C116 C 0.01698 0.19412 0.55353 0.0
C117 C 0.98287 0.18965 0.61585 0.0
C118 C 0.07299 0.19934 0.66414 0.0
N119 N 0.03711 0.18966 0.72308 0.0
H120 H 0.96729 0.18437 0.74766 0.0
H121 H 0.10841 0.20352 0.68244 0.0
H122 H 0.92598 0.1262 0.85335 0.0
H123 H 1.00472 0.05234 0.80297 0.0
O124 O 0.00637 0.19615 0.90329 0.0
O125 O 0.0466 0.15992 0.95328 0.0
O126 O 0.08959 0.14604 0.80544 0.0
C127 C 0.01909 0.17931 0.96817 0.0
H128 H 0.22004 0.31693 0.90112 0.0
H129 H 0.86098 0.03134 0.82142 0.0
H130 H 0.09131 0.20558 0.53296 0.0
H131 H 0.94715 0.1856 0.59924 0.0
Co132 Co 0.83297 0.87246 0.83625 0.0
C133 C 0.72374 0.83615 0.83025 0.0
C134 C 0.76685 0.9092 0.88635 0.0
C135 C 0.71795 0.89787 0.88044 0.0
N136 N 0.7706 0.8709 0.85424 0.0
N137 N 0.69127 0.85216 0.84539 0.0
H138 H 0.71402 0.80114 0.79971 0.0
H139 H 0.79791 0.94367 0.91038 0.0
C140 C 0.90788 0.97731 0.77784 0.0
O141 O 0.93644 0.96322 0.7404 0.0
N142 N 0.89647 0.8744 0.81853 0.0
C143 C 0.91028 0.85498 0.75443 0.0
C144 C 0.96103 0.87372 0.75762 0.0
C145 C 0.93927 0.90329 0.86156 0.0
N146 N 0.97916 0.90497 0.8236 0.0
C147 C 0.79455 0.79692 0.70373 0.0
C148 C 0.81478 0.86308 0.57288 0.0
C149 C 0.80436 0.81467 0.55359 0.0
C150 C 0.79212 0.78063 0.61999 0.0
C151 C 0.8177 0.87801 0.65684 0.0
N152 N 0.81144 0.84625 0.72135 0.0
H153 H 0.78818 0.77124 0.75443 0.0
H154 H 0.82733 0.91604 0.66874 0.0
H155 H 0.88695 0.83147 0.70451 0.0
H156 H 0.94198 0.9266 0.91446 0.0
O157 O 0.80951 0.81131 0.90515 0.0
O158 O 0.84902 0.88861 0.95305 0.0
O159 O 0.86338 0.94511 0.80102 0.0
C160 C 0.82864 0.84155 0.9696 0.0
H161 H 0.70319 0.92135 0.8998 0.0
H162 H 0.98317 0.86705 0.71232 0.0
H163 H 0.82376 0.89029 0.52338 0.0
H164 H 0.78374 0.74278 0.60769 0.0
Co165 Co 0.13403 0.97186 0.83934 0.0
C166 C 0.16988 0.90004 0.84742 0.0
C167 C 0.09049 0.86476 0.8691 0.0
C168 C 0.10442 0.82966 0.88044 0.0
N169 N 0.13143 0.90873 0.84868 0.0
N170 N 0.15406 0.85195 0.86659 0.0
H171 H 0.20866 0.92876 0.8384 0.0
H172 H 0.05352 0.85911 0.87956 0.0
C173 C 0.02797 0.93554 0.84367 0.0
O174 O 0.03952 0.96565 0.90866 0.0
N175 N 0.13642 0.0358 0.82757 0.0
C176 C 0.16575 0.07872 0.86998 0.0
C177 C 0.1549 0.11434 0.84456 0.0
C178 C 0.11002 0.04717 0.77315 0.0
N179 N 0.11984 0.09464 0.78384 0.0
C180 C 0.20198 0.02404 0.70466 0.0
C181 C 0.14589 0.95528 0.58122 0.0
C182 C 0.18642 1.00193 0.55714 0.0
C183 C 0.21558 0.03594 0.6203 0.0
C184 C 0.13321 0.9452 0.66612 0.0
N185 N 0.15996 0.98023 0.72601 0.0
H186 H 0.22338 0.05128 0.75277 0.0
H187 H 0.10042 0.91014 0.68344 0.0
H188 H 0.1933 0.0845 0.91664 0.0
H189 H 0.08194 0.02038 0.7306 0.0
O190 O 0.19572 1.00443 0.90729 0.0
O191 O 0.11858 0.96794 0.95619 0.0
O192 O 0.06272 0.93563 0.79966 0.0
C193 C 0.1658 0.99189 0.97227 0.0
H194 H 0.08048 0.79144 0.9011 0.0
H195 H 0.17075 0.15166 0.87051 0.0
H196 H 0.12226 0.92794 0.53463 0.0
H197 H 0.24757 0.07206 0.60452 0.0
Co198 Co 0.83943 0.3711 0.48399 0.0
C199 C 0.94705 0.45075 0.48247 0.0
C200 C 0.89946 0.48113 0.46072 0.0
C201 C 0.94816 0.52024 0.46623 0.0
N202 N 0.89845 0.43757 0.47338 0.0
N203 N 0.97765 0.5008 0.47894 0.0
H204 H 0.95988 0.42484 0.49403 0.0
H205 H 0.8672 0.48475 0.44939 0.0
C206 C 0.76234 0.40069 0.46882 0.0
O207 O 0.73993 0.36558 0.41166 0.0
N208 N 0.78196 0.30225 0.49755 0.0
C209 C 0.79002 0.26359 0.50785 0.0
C210 C 0.74697 0.22165 0.53277 0.0
C211 C 0.73275 0.28234 0.51888 0.0
N212 N 0.71077 0.23306 0.53983 0.0
C213 C 0.89188 0.36754 0.63556 0.0
C214 C 0.81483 0.35477 0.73956 0.0
C215 C 0.85719 0.35792 0.77638 0.0
C216 C 0.89598 0.36334 0.7231 0.0
C217 C 0.8134 0.36137 0.65455 0.0
N218 N 0.85164 0.36852 0.60299 0.0
H219 H 0.92034 0.36901 0.59459 0.0
H220 H 0.77959 0.35821 0.63032 0.0
H221 H 0.82582 0.26584 0.50279 0.0
H222 H 0.71383 0.30337 0.524 0.0
O223 O 0.87561 0.34182 0.4285 0.0
O224 O 0.83064 0.36935 0.36637 0.0
O225 O 0.79983 0.40485 0.50911 0.0
C226 C 0.85699 0.3481 0.35923 0.0
H227 H 0.96091 0.5598 0.46289 0.0
H228 H 0.74281 0.18544 0.54558 0.0
H229 H 0.78198 0.34673 0.77592 0.0
H230 H 0.92878 0.36425 0.74838 0.0
Co231 Co 0.63498 0.46712 0.52826 0.0
C232 C 0.56432 0.50478 0.51149 0.0
C233 C 0.53093 0.43494 0.57818 0.0
C234 C 0.49488 0.44773 0.5665 0.0
N235 N 0.5744 0.47037 0.5429 0.0
N236 N 0.51639 0.49158 0.52552 0.0
H237 H 0.59054 0.53769 0.47657 0.0
H238 H 0.52502 0.40134 0.60882 0.0
C239 C 0.60497 0.36147 0.58754 0.0
O240 O 0.6476 0.37549 0.62501 0.0
N241 N 0.69528 0.46344 0.50767 0.0
C242 C 0.74264 0.49926 0.5267 0.0
C243 C 0.77336 0.47959 0.51729 0.0
C244 C 0.69923 0.42508 0.47578 0.0
N245 N 0.74605 0.43313 0.48489 0.0
C246 C 0.63816 0.51606 0.68881 0.0
C247 C 0.69885 0.4891 0.77033 0.0
C248 C 0.6764 0.51031 0.81769 0.0
C249 C 0.64718 0.52594 0.77541 0.0
C250 C 0.6859 0.47662 0.68733 0.0
N251 N 0.65484 0.48866 0.64618 0.0
H252 H 0.61656 0.52957 0.65769 0.0
H253 H 0.70184 0.45693 0.65841 0.0
H254 H 0.75316 0.53546 0.55324 0.0
H255 H 0.66792 0.39065 0.452 0.0
O256 O 0.66929 0.53126 0.4703 0.0
O257 O 0.62089 0.45716 0.41156 0.0
O258 O 0.59478 0.3936 0.55826 0.0
C259 C 0.65152 0.50473 0.40164 0.0
H260 H 0.45599 0.42647 0.58549 0.0
H261 H 0.81263 0.49803 0.53351 0.0
H262 H 0.72436 0.47913 0.79846 0.0
H263 H 0.63008 0.5439 0.80896 0.0
Co264 Co 0.5553 0.17255 0.52005 0.0
C265 C 0.52159 0.06523 0.54691 0.0
C266 C 0.57955 0.09825 0.45325 0.0
C267 C 0.56474 0.04833 0.46024 0.0
N268 N 0.55392 0.10936 0.5098 0.0
N269 N 0.52841 0.02808 0.51868 0.0
H270 H 0.49328 0.06013 0.5922 0.0
H271 H 0.60721 0.12469 0.40984 0.0
C272 C 0.66193 0.19935 0.55851 0.0
O273 O 0.64875 0.15265 0.57364 0.0
N274 N 0.55436 0.23468 0.52964 0.0
C275 C 0.51982 0.24476 0.49885 0.0
C276 C 0.53302 0.29291 0.52017 0.0
C277 C 0.58714 0.27649 0.57174 0.0
N278 N 0.57542 0.31272 0.56558 0.0
C279 C 0.48852 0.15859 0.65668 0.0
C280 C 0.54536 0.15033 0.78206 0.0
C281 C 0.50452 0.15549 0.80527 0.0
C282 C 0.47524 0.15851 0.74111 0.0
C283 C 0.55795 0.1517 0.69713 0.0
N284 N 0.53065 0.1574 0.63569 0.0
H285 H 0.46638 0.16226 0.60805 0.0
H286 H 0.59061 0.14973 0.68145 0.0
H287 H 0.48709 0.21933 0.46297 0.0
H288 H 0.61988 0.28118 0.60404 0.0
O289 O 0.49316 0.143 0.45384 0.0
O290 O 0.57022 0.18436 0.40348 0.0
O291 O 0.62874 0.21199 0.55414 0.0
C292 C 0.52279 0.16151 0.38851 0.0
H293 H 0.57821 0.02809 0.42355 0.0
H294 H 0.51379 0.31232 0.50157 0.0
H295 H 0.56913 0.148 0.82934 0.0
H296 H 0.44305 0.16201 0.75609 0.0
Co297 Co 0.70293 0.49813 0.20126 0.0
C298 C 0.77824 0.60674 0.19317 0.0
C299 C 0.81272 0.56313 0.21838 0.0
C300 C 0.84988 0.61253 0.21055 0.0
N301 N 0.76788 0.55922 0.20513 0.0
N302 N 0.82787 0.63948 0.19493 0.0
H303 H 0.75056 0.61736 0.18244 0.0
H304 H 0.81838 0.53245 0.23305 0.0
C305 C 0.73804 0.42556 0.21769 0.0
O306 O 0.70439 0.40324 0.27704 0.0
N307 N 0.63515 0.43832 0.19471 0.0
C308 C 0.59443 0.44349 0.18915 0.0
C309 C 0.55291 0.39866 0.17002 0.0
C310 C 0.61689 0.38906 0.17597 0.0
N311 N 0.56667 0.36426 0.16172 0.0
C312 C 0.69042 0.54506 0.05073 0.0
C313 C 0.68063 0.46904 0.94712 0.0
C314 C 0.68014 0.50974 0.91066 0.0
C315 C 0.68378 0.54778 0.96374 0.0
C316 C 0.68953 0.46904 0.03169 0.0
N317 N 0.69563 0.50709 0.08272 0.0
H318 H 0.69055 0.57281 0.09183 0.0
H319 H 0.68945 0.43671 0.05618 0.0
H320 H 0.59459 0.47829 0.19386 0.0
H321 H 0.6395 0.37195 0.16833 0.0
O322 O 0.67258 0.53284 0.25715 0.0
O323 O 0.70555 0.49259 0.31903 0.0
O324 O 0.73915 0.46098 0.17509 0.0
C325 C 0.68199 0.51672 0.32643 0.0
H326 H 0.88978 0.62746 0.21585 0.0
H327 H 0.51534 0.39203 0.16199 0.0
H328 H 0.67435 0.43683 0.91051 0.0
H329 H 0.68181 0.57912 0.93863 0.0
Co330 Co 0.51493 0.21 0.18167 0.0
C331 C 0.40685 0.1757 0.16307 0.0
C332 C 0.44036 0.2278 0.26536 0.0
C333 C 0.39023 0.21258 0.26285 0.0
N334 N 0.4511 0.20575 0.20148 0.0
N335 N 0.36982 0.17982 0.19925 0.0
H336 H 0.40161 0.15127 0.11055 0.0
H337 H 0.46728 0.25379 0.3101 0.0
C338 C 0.53434 0.31453 0.14782 0.0
O339 O 0.48637 0.29832 0.13963 0.0
N340 N 0.57814 0.21267 0.1628 0.0
C341 C 0.59168 0.17975 0.18853 0.0
C342 C 0.63999 0.19635 0.16287 0.0
C343 C 0.61795 0.24795 0.11955 0.0
N344 N 0.6564 0.23938 0.12018 0.0
C345 C 0.4981 0.14417 0.04324 0.0
C346 C 0.4901 0.20254 0.92046 0.0
C347 C 0.49585 0.1623 0.89551 0.0
C348 C 0.49835 0.13203 0.95836 0.0
C349 C 0.49106 0.21397 1.00598 0.0
N350 N 0.49692 0.18605 0.06611 0.0
H351 H 0.50226 0.12175 0.09075 0.0
H352 H 0.48913 0.24649 0.02299 0.0
H353 H 0.56871 0.14623 0.22462 0.0
H354 H 0.61984 0.28043 0.09096 0.0
O355 O 0.48955 0.14714 0.24501 0.0
O356 O 0.53035 0.2238 0.29764 0.0
O357 O 0.54993 0.28359 0.14953 0.0
C358 C 0.50884 0.17621 0.3107 0.0
H359 H 0.37026 0.22427 0.30418 0.0
H360 H 0.66203 0.17926 0.1776 0.0
H361 H 0.48805 0.22695 0.87418 0.0
H362 H 0.50224 0.10024 0.94204 0.0
Co363 Co 0.81168 0.30508 0.15498 0.0
C364 C 0.84324 0.22828 0.16713 0.0
C365 C 0.787 0.21107 0.07319 0.0
C366 C 0.79685 0.17276 0.07469 0.0
N367 N 0.81558 0.24575 0.13134 0.0
N368 N 0.83201 0.18375 0.13338 0.0
H369 H 0.87015 0.24697 0.21689 0.0
H370 H 0.76099 0.21362 0.03139 0.0
C371 C 0.7044 0.27234 0.09805 0.0
O372 O 0.71529 0.31556 0.06605 0.0
N373 N 0.80643 0.36397 0.18105 0.0
C374 C 0.84035 0.41169 0.16036 0.0
C375 C 0.81843 0.44046 0.1691 0.0
C376 C 0.76695 0.36592 0.21297 0.0
N377 N 0.77244 0.41166 0.20243 0.0
C378 C 0.86696 0.3183 0.99843 0.0
C379 C 0.83206 0.37238 0.91672 0.0
C380 C 0.85781 0.35446 0.86963 0.0
C381 C 0.87757 0.3289 0.91232 0.0
C382 C 0.8187 0.35723 0.9988 0.0
N383 N 0.83462 0.3292 0.03953 0.0
H384 H 0.88325 0.29942 0.03059 0.0
H385 H 0.79582 0.36938 0.02825 0.0
H386 H 0.87653 0.42356 0.13237 0.0
H387 H 0.73323 0.33366 0.23657 0.0
O388 O 0.87501 0.33814 0.2158 0.0
O389 O 0.80057 0.28694 0.27047 0.0
O390 O 0.73865 0.26412 0.12304 0.0
C391 C 0.84768 0.31837 0.28317 0.0
H392 H 0.78015 0.13983 0.03494 0.0
H393 H 0.83488 0.47932 0.15123 0.0
H394 H 0.81913 0.39561 0.8889 0.0
H395 H 0.89915 0.31553 0.8794 0.0
Co396 Co 0.49855 0.70257 0.81937 0.0
C397 C 0.60716 0.77789 0.8274 0.0
C398 C 0.56353 0.81236 0.80225 0.0
C399 C 0.61293 0.84952 0.81005 0.0
N400 N 0.55963 0.76752 0.81548 0.0
N401 N 0.63989 0.82753 0.82563 0.0
H402 H 0.61778 0.75021 0.8381 0.0
H403 H 0.53285 0.81801 0.78761 0.0
C404 C 0.42597 0.73766 0.80295 0.0
O405 O 0.40366 0.70402 0.74359 0.0
N406 N 0.43876 0.63478 0.82594 0.0
C407 C 0.44395 0.59407 0.83152 0.0
C408 C 0.39913 0.55255 0.85066 0.0
C409 C 0.3895 0.61651 0.84465 0.0
N410 N 0.36472 0.56628 0.85892 0.0
C411 C 0.54552 0.6901 0.9699 0.0
C412 C 0.46949 0.68027 0.07351 0.0
C413 C 0.5102 0.6798 0.10997 0.0
C414 C 0.54825 0.68347 0.05688 0.0
C415 C 0.46948 0.68916 0.98894 0.0
N416 N 0.50753 0.69528 0.93791 0.0
H417 H 0.57327 0.69024 0.9288 0.0
H418 H 0.43714 0.68906 0.96445 0.0
H419 H 0.47876 0.59426 0.82684 0.0
H420 H 0.37237 0.6391 0.85226 0.0
O421 O 0.53326 0.67223 0.76345 0.0
O422 O 0.493 0.70517 0.7016 0.0
O423 O 0.4614 0.73877 0.84555 0.0
C424 C 0.51715 0.68163 0.69415 0.0
H425 H 0.62786 0.88942 0.80476 0.0
H426 H 0.39252 0.51499 0.85871 0.0
H427 H 0.43727 0.67397 0.11013 0.0
H428 H 0.5796 0.68152 0.082 0.0
Co429 Co 0.30546 0.81126 0.86566 0.0
C430 C 0.22865 0.84281 0.85348 0.0
C431 C 0.21144 0.78657 0.94741 0.0
C432 C 0.17312 0.79641 0.94589 0.0
N433 N 0.24612 0.81515 0.88928 0.0
N434 N 0.18412 0.83158 0.88721 0.0
H435 H 0.24735 0.86973 0.80372 0.0
H436 H 0.21398 0.76056 0.98921 0.0
C437 C 0.27273 0.70399 0.92249 0.0
O438 O 0.31594 0.71489 0.95458 0.0
N439 N 0.36436 0.80603 0.8396 0.0
C440 C 0.41208 0.83995 0.86031 0.0
C441 C 0.44085 0.81803 0.85157 0.0
C442 C 0.36632 0.76656 0.80766 0.0
N443 N 0.41206 0.77205 0.81822 0.0
C444 C 0.31865 0.86653 0.02222 0.0
C445 C 0.37275 0.83166 0.10393 0.0
C446 C 0.35482 0.8574 0.15102 0.0
C447 C 0.32925 0.87714 0.10833 0.0
C448 C 0.3576 0.81829 0.02185 0.0
N449 N 0.32956 0.83419 0.98112 0.0
H450 H 0.29977 0.88281 0.99005 0.0
H451 H 0.36976 0.79542 0.9924 0.0
H452 H 0.42394 0.87612 0.88831 0.0
H453 H 0.33406 0.73284 0.78405 0.0
O454 O 0.33851 0.87459 0.80483 0.0
O455 O 0.28734 0.80019 0.75017 0.0
O456 O 0.2645 0.73823 0.89756 0.0
C457 C 0.31877 0.84729 0.73742 0.0
H458 H 0.14019 0.7797 0.98563 0.0
H459 H 0.47971 0.83449 0.86945 0.0
H460 H 0.396 0.81873 0.13174 0.0
H461 H 0.31587 0.8987 0.14125 0.0
Co462 Co 0.21045 0.51451 0.83891 0.0
C463 C 0.17616 0.40644 0.85754 0.0
C464 C 0.22829 0.43994 0.75529 0.0
C465 C 0.21308 0.38982 0.75781 0.0
N466 N 0.20622 0.45068 0.81914 0.0
N467 N 0.1803 0.36941 0.82138 0.0
H468 H 0.15171 0.4012 0.91002 0.0
H469 H 0.25429 0.46687 0.71056 0.0
C470 C 0.31499 0.53395 0.87281 0.0
O471 O 0.29879 0.48599 0.88101 0.0
N472 N 0.21311 0.57771 0.85773 0.0
C473 C 0.18017 0.59124 0.83198 0.0
C474 C 0.19677 0.63956 0.85759 0.0
C475 C 0.24839 0.61755 0.90094 0.0
N476 N 0.23983 0.656 0.90021 0.0
C477 C 0.14463 0.49771 0.97733 0.0
C478 C 0.20298 0.48969 0.10012 0.0
C479 C 0.16275 0.49545 0.12508 0.0
C480 C 0.13249 0.49797 0.06222 0.0
C481 C 0.21441 0.49064 0.0146 0.0
N482 N 0.18649 0.49651 0.95447 0.0
H483 H 0.12221 0.50187 0.92983 0.0
H484 H 0.24692 0.4887 0.99759 0.0
H485 H 0.14665 0.56825 0.79594 0.0
H486 H 0.28088 0.61945 0.92956 0.0
O487 O 0.1476 0.48912 0.77553 0.0
O488 O 0.22426 0.5299 0.72293 0.0
O489 O 0.28404 0.54953 0.87106 0.0
C490 C 0.17666 0.50839 0.70983 0.0
H491 H 0.22477 0.36985 0.71649 0.0
H492 H 0.17966 0.66158 0.84288 0.0
H493 H 0.22739 0.48763 0.1464 0.0
H494 H 0.10071 0.50187 0.07854 0.0
Co495 Co 0.37148 0.83902 0.53664 0.0
C496 C 0.45118 0.94664 0.53795 0.0
C497 C 0.4815 0.89902 0.56005 0.0
C498 C 0.52065 0.9477 0.55443 0.0
N499 N 0.43796 0.89804 0.54722 0.0
N500 N 0.50124 0.97719 0.54141 0.0
H501 H 0.4253 0.9595 0.52632 0.0
H502 H 0.48507 0.86675 0.57159 0.0
C503 C 0.40108 0.76194 0.55182 0.0
O504 O 0.36598 0.73953 0.60897 0.0
N505 N 0.30264 0.78155 0.52312 0.0
C506 C 0.26396 0.78959 0.51287 0.0
C507 C 0.22203 0.74653 0.48797 0.0
C508 C 0.28274 0.73234 0.50176 0.0
N509 N 0.23346 0.71035 0.48085 0.0
C510 C 0.36787 0.89144 0.38509 0.0
C511 C 0.35515 0.81441 0.28108 0.0
C512 C 0.35828 0.85677 0.24426 0.0
C513 C 0.36367 0.89555 0.29755 0.0
C514 C 0.36176 0.81298 0.36608 0.0
N515 N 0.36889 0.85122 0.41765 0.0
H516 H 0.3693 0.91989 0.42606 0.0
H517 H 0.35861 0.77919 0.3903 0.0
H518 H 0.26619 0.82538 0.51798 0.0
H519 H 0.30379 0.71344 0.49659 0.0
O520 O 0.34222 0.87522 0.59211 0.0
O521 O 0.36975 0.83025 0.65426 0.0
O522 O 0.40523 0.79942 0.51153 0.0
C523 C 0.34849 0.85659 0.66136 0.0
H524 H 0.56019 0.96043 0.55794 0.0
H525 H 0.1858 0.74235 0.47521 0.0
H526 H 0.34712 0.78157 0.24472 0.0
H527 H 0.36455 0.92833 0.27228 0.0
Co528 Co 0.17301 0.55489 0.50054 0.0
C529 C 0.06569 0.52115 0.47362 0.0
C530 C 0.09864 0.57903 0.56742 0.0
C531 C 0.04872 0.56421 0.5604 0.0
N532 N 0.1098 0.55346 0.51081 0.0
N533 N 0.02851 0.52791 0.5019 0.0
H534 H 0.06062 0.4929 0.42823 0.0
H535 H 0.12506 0.60668 0.61087 0.0
C536 C 0.19975 0.6615 0.46217 0.0
O537 O 0.15304 0.6483 0.44709 0.0
N538 N 0.23514 0.55396 0.49093 0.0
C539 C 0.24524 0.51943 0.5217 0.0
C540 C 0.29338 0.53264 0.50032 0.0
C541 C 0.27694 0.58675 0.44879 0.0
N542 N 0.31316 0.57502 0.45485 0.0
C543 C 0.15903 0.48811 0.3639 0.0
C544 C 0.1508 0.54497 0.23852 0.0
C545 C 0.15595 0.50413 0.21531 0.0
C546 C 0.15896 0.47483 0.27946 0.0
C547 C 0.15217 0.55756 0.32346 0.0
N548 N 0.15786 0.53025 0.3849 0.0
H549 H 0.1627 0.46596 0.41252 0.0
H550 H 0.15022 0.59023 0.33915 0.0
H551 H 0.21983 0.48671 0.55761 0.0
H552 H 0.28162 0.61949 0.41652 0.0
O553 O 0.14347 0.49272 0.5667 0.0
O554 O 0.18481 0.5698 0.61712 0.0
O555 O 0.21242 0.62832 0.46648 0.0
C556 C 0.16198 0.52236 0.63203 0.0
H557 H 0.02845 0.57764 0.5971 0.0
H558 H 0.31281 0.51342 0.51892 0.0
H559 H 0.14849 0.56875 0.19125 0.0
H560 H 0.16244 0.44264 0.26448 0.0
Co561 Co 0.46757 0.63464 0.49235 0.0
C562 C 0.50519 0.56395 0.50927 0.0
C563 C 0.43546 0.53065 0.44222 0.0
C564 C 0.44821 0.49456 0.45396 0.0
N565 N 0.47084 0.57407 0.47769 0.0
N566 N 0.49198 0.51602 0.49521 0.0
H567 H 0.53805 0.59013 0.54432 0.0
H568 H 0.40193 0.52478 0.4114 0.0
C569 C 0.36193 0.60461 0.433 0.0
O570 O 0.37594 0.64726 0.39561 0.0
N571 N 0.46388 0.69492 0.51296 0.0
C572 C 0.49969 0.74229 0.49394 0.0
C573 C 0.48001 0.773 0.50338 0.0
C574 C 0.4255 0.69886 0.54485 0.0
N575 N 0.43354 0.74568 0.53575 0.0
C576 C 0.51656 0.63786 0.33184 0.0
C577 C 0.48956 0.69851 0.25029 0.0
C578 C 0.51077 0.67607 0.20295 0.0
C579 C 0.52643 0.64687 0.24523 0.0
C580 C 0.47708 0.68558 0.33329 0.0
N581 N 0.48914 0.65452 0.37445 0.0
H582 H 0.53007 0.61627 0.36297 0.0
H583 H 0.45738 0.7015 0.36222 0.0
H584 H 0.53589 0.75283 0.46742 0.0
H585 H 0.39108 0.66753 0.56861 0.0
O586 O 0.53172 0.66896 0.55031 0.0
O587 O 0.45759 0.62053 0.60905 0.0
O588 O 0.39407 0.59443 0.4623 0.0
C589 C 0.50516 0.65116 0.61893 0.0
H590 H 0.42698 0.4557 0.43483 0.0
H591 H 0.49844 0.81227 0.48718 0.0
H592 H 0.47957 0.72401 0.22215 0.0
H593 H 0.5444 0.62978 0.21169 0.0
loop_
_geom_bond_atom_site_label_1
_geom_bond_atom_site_label_2
_geom_bond_distance
_geom_bond_site_symmetry_2
_ccdc_geom_bond_type
Co0 N4 2.148 . S
Co0 N10 2.128 1_545 S
Co0 N20 2.194 1_545 S
Co0 O25 2.351 1_545 S
Co0 O26 2.155 1_545 S
Co0 O27 2.096 . S
C1 N4 1.301 . S
C1 N5 1.328 . S
C1 H6 0.930 . S
C2 C3 1.333 . S
C2 N4 1.317 . S
C2 H7 0.930 . S
C3 C2 1.333 . S
C3 N5 1.350 . S
C3 H29 0.931 . S
N4 Co0 2.148 . S
N4 C1 1.301 . S
N4 C2 1.317 . S
N5 C1 1.328 . S
N5 C3 1.350 . S
H6 C1 0.930 . S
H7 C2 0.930 . S
C8 O9 1.224 . S
C8 O27 1.247 . S
O9 C8 1.224 . S
N10 Co0 2.128 1_565 S
N10 C11 1.355 . S
N10 C13 1.311 . S
C11 N10 1.355 . S
C11 C12 1.363 . S
C11 H23 0.929 . S
C12 C11 1.363 . S
C12 N14 1.375 1_455 S
C12 H30 0.931 1_455 S
C13 N10 1.311 . S
C13 N14 1.347 1_455 S
C13 H24 0.929 . S
N14 C12 1.375 1_655 S
N14 C13 1.347 1_655 S
C15 C18 1.365 . S
C15 N20 1.328 . S
C15 H21 0.929 . S
C16 C17 1.362 . S
C16 C19 1.378 1_565 S
C16 H31 0.938 . S
C17 C16 1.362 . S
C17 C18 1.366 . S
C18 C15 1.365 . S
C18 C17 1.366 . S
C18 H32 0.930 . S
C19 C16 1.378 1_545 S
C19 N20 1.315 1_545 S
C19 H22 0.930 . S
N20 Co0 2.194 1_565 S
N20 C15 1.328 . S
N20 C19 1.315 1_565 S
H21 C15 0.929 . S
H22 C19 0.930 . S
H23 C11 0.929 . S
H24 C13 0.929 . S
O25 Co0 2.351 1_565 S
O25 C28 1.244 . S
O26 Co0 2.155 1_565 S
O26 C28 1.240 . S
O27 Co0 2.096 . S
O27 C8 1.247 . S
C28 O25 1.244 . S
C28 O26 1.240 . S
H29 C3 0.931 . S
H30 C12 0.931 1_655 S
H31 C16 0.938 . S
H32 C18 0.930 . S
Co33 N37 2.148 . S
Co33 N43 2.128 1_655 S
Co33 N53 2.194 1_655 S
Co33 O58 2.351 1_655 S
Co33 O59 2.155 1_655 S
Co33 O60 2.096 . S
C34 N37 1.301 . S
C34 N38 1.328 . S
C34 H39 0.930 . S
C35 C36 1.333 . S
C35 N37 1.317 . S
C35 H40 0.930 . S
C36 C35 1.333 . S
C36 N38 1.350 . S
C36 H62 0.931 . S
N37 Co33 2.148 . S
N37 C34 1.301 . S
N37 C35 1.317 . S
N38 C34 1.328 . S
N38 C36 1.350 . S
H39 C34 0.930 . S
H40 C35 0.930 . S
C41 O42 1.224 . S
C41 O60 1.247 . S
O42 C41 1.224 . S
N43 Co33 2.128 1_455 S
N43 C44 1.355 . S
N43 C46 1.311 . S
C44 N43 1.355 . S
C44 C45 1.363 . S
C44 H56 0.929 . S
C45 C44 1.363 . S
C45 N47 1.375 . S
C45 H63 0.931 . S
C46 N43 1.311 . S
C46 N47 1.347 . S
C46 H57 0.929 . S
N47 C45 1.375 . S
N47 C46 1.347 . S
C48 C51 1.365 . S
C48 N53 1.328 . S
C48 H54 0.929 . S
C49 C50 1.362 . S
C49 C52 1.378 1_455 S
C49 H64 0.930 . S
C50 C49 1.362 . S
C50 C51 1.366 . S
C51 C48 1.365 . S
C51 C50 1.366 . S
C51 H65 0.930 . S
C52 C49 1.378 1_655 S
C52 N53 1.315 1_655 S
C52 H55 0.930 . S
N53 Co33 2.194 1_455 S
N53 C48 1.328 . S
N53 C52 1.315 1_455 S
H54 C48 0.929 . S
H55 C52 0.930 . S
H56 C44 0.929 . S
H57 C46 0.929 . S
O58 Co33 2.351 1_455 S
O58 C61 1.244 . S
O59 Co33 2.155 1_455 S
O59 C61 1.240 . S
O60 Co33 2.096 . S
O60 C41 1.247 . S
C61 O58 1.244 . S
C61 O59 1.240 . S
H62 C36 0.931 . S
H63 C45 0.931 . S
H64 C49 0.930 . S
H65 C51 0.930 . S
Co66 N70 2.148 . S
Co66 N76 2.128 . S
Co66 N86 2.194 . S
Co66 O91 2.351 . S
Co66 O92 2.155 . S
Co66 O93 2.096 . S
C67 N70 1.301 . S
C67 N71 1.328 . S
C67 H72 0.930 . S
C68 C69 1.333 . S
C68 N70 1.317 . S
C68 H73 0.930 . S
C69 C68 1.333 . S
C69 N71 1.350 . S
C69 H95 0.931 . S
N70 Co66 2.148 . S
N70 C67 1.301 . S
N70 C68 1.317 . S
N71 C67 1.328 . S
N71 C69 1.350 . S
H72 C67 0.930 . S
H73 C68 0.930 . S
C74 O75 1.224 . S
C74 O93 1.247 . S
O75 C74 1.224 . S
N76 Co66 2.128 . S
N76 C77 1.355 . S
N76 C79 1.311 . S
C77 N76 1.355 . S
C77 C78 1.363 . S
C77 H89 0.929 . S
C78 C77 1.363 . S
C78 N80 1.375 1_565 S
C78 H96 0.931 1_565 S
C79 N76 1.311 . S
C79 N80 1.347 1_565 S
C79 H90 0.929 . S
N80 C78 1.375 1_545 S
N80 C79 1.347 1_545 S
C81 C84 1.365 . S
C81 N86 1.328 . S
C81 H87 0.929 . S
C82 C83 1.362 . S
C82 C85 1.378 . S
C82 H97 0.929 . S
C83 C82 1.362 . S
C83 C84 1.366 . S
C84 C81 1.365 . S
C84 C83 1.366 . S
C84 H98 0.930 . S
C85 C82 1.378 . S
C85 N86 1.315 . S
C85 H88 0.930 . S
N86 Co66 2.194 . S
N86 C81 1.328 . S
N86 C85 1.315 . S
H87 C81 0.929 . S
H88 C85 0.930 . S
H89 C77 0.929 . S
H90 C79 0.929 . S
O91 Co66 2.351 . S
O91 C94 1.244 . S
O92 Co66 2.155 . S
O92 C94 1.240 . S
O93 Co66 2.096 . S
O93 C74 1.247 . S
C94 O91 1.244 . S
C94 O92 1.240 . S
H95 C69 0.931 . S
H96 C78 0.931 1_545 S
H97 C82 0.929 . S
H98 C84 0.930 . S
Co99 N103 2.148 . S
Co99 N109 2.128 1_455 S
Co99 N119 2.194 1_455 S
Co99 O124 2.351 1_455 S
Co99 O125 2.155 1_455 S
Co99 O126 2.096 . S
C100 N103 1.301 . S
C100 N104 1.328 . S
C100 H105 0.930 . S
C101 C102 1.333 . S
C101 N103 1.317 . S
C101 H106 0.930 . S
C102 C101 1.333 . S
C102 N104 1.350 . S
C102 H128 0.931 . S
N103 Co99 2.148 . S
N103 C100 1.301 . S
N103 C101 1.317 . S
N104 C100 1.328 . S
N104 C102 1.350 . S
H105 C100 0.930 . S
H106 C101 0.930 . S
C107 O108 1.224 . S
C107 O126 1.247 . S
O108 C107 1.224 . S
N109 Co99 2.128 1_655 S
N109 C110 1.355 . S
N109 C112 1.311 . S
C110 N109 1.355 . S
C110 C111 1.363 . S
C110 H122 0.929 . S
C111 C110 1.363 . S
C111 N113 1.375 1_545 S
C111 H129 0.931 1_545 S
C112 N109 1.311 . S
C112 N113 1.347 1_545 S
C112 H123 0.929 . S
N113 C111 1.375 1_565 S
N113 C112 1.347 1_565 S
C114 C117 1.365 . S
C114 N119 1.328 . S
C114 H120 0.929 . S
C115 C116 1.362 . S
C115 C118 1.378 1_655 S
C115 H130 0.938 . S
C116 C115 1.362 . S
C116 C117 1.366 . S
C117 C114 1.365 . S
C117 C116 1.366 . S
C117 H131 0.930 . S
C118 C115 1.378 1_455 S
C118 N119 1.315 1_455 S
C118 H121 0.930 . S
N119 Co99 2.194 1_655 S
N119 C114 1.328 . S
N119 C118 1.315 1_655 S
H120 C114 0.929 . S
H121 C118 0.930 . S
H122 C110 0.929 . S
H123 C112 0.929 . S
O124 Co99 2.351 1_655 S
O124 C127 1.244 . S
O125 Co99 2.155 1_655 S
O125 C127 1.240 . S
O126 Co99 2.096 . S
O126 C107 1.247 . S
C127 O124 1.244 . S
C127 O125 1.240 . S
H128 C102 0.931 . S
H129 C111 0.931 1_565 S
H130 C115 0.938 . S
H131 C117 0.930 . S
Co132 N136 2.148 . S
Co132 N142 2.128 . S
Co132 N152 2.194 . S
Co132 O157 2.351 . S
Co132 O158 2.155 . S
Co132 O159 2.096 . S
C133 N136 1.301 . S
C133 N137 1.328 . S
C133 H138 0.930 . S
C134 C135 1.333 . S
C134 N136 1.317 . S
C134 H139 0.930 . S
C135 C134 1.333 . S
C135 N137 1.350 . S
C135 H161 0.931 . S
N136 Co132 2.148 . S
N136 C133 1.301 . S
N136 C134 1.317 . S
N137 C133 1.328 . S
N137 C135 1.350 . S
H138 C133 0.930 . S
H139 C134 0.930 . S
C140 O141 1.224 . S
C140 O159 1.247 . S
O141 C140 1.224 . S
N142 Co132 2.128 . S
N142 C143 1.355 . S
N142 C145 1.311 . S
C143 N142 1.355 . S
C143 C144 1.363 . S
C143 H155 0.929 . S
C144 C143 1.363 . S
C144 N146 1.375 1_655 S
C144 H162 0.931 1_655 S
C145 N142 1.311 . S
C145 N146 1.347 1_655 S
C145 H156 0.929 . S
N146 C144 1.375 1_455 S
N146 C145 1.347 1_455 S
C147 C150 1.365 . S
C147 N152 1.328 . S
C147 H153 0.929 . S
C148 C149 1.362 . S
C148 C151 1.378 . S
C148 H163 0.929 . S
C149 C148 1.362 . S
C149 C150 1.366 . S
C150 C147 1.365 . S
C150 C149 1.366 . S
C150 H164 0.930 . S
C151 C148 1.378 . S
C151 N152 1.315 . S
C151 H154 0.930 . S
N152 Co132 2.194 . S
N152 C147 1.328 . S
N152 C151 1.315 . S
H153 C147 0.929 . S
H154 C151 0.930 . S
H155 C143 0.929 . S
H156 C145 0.929 . S
O157 Co132 2.351 . S
O157 C160 1.244 . S
O158 Co132 2.155 . S
O158 C160 1.240 . S
O159 Co132 2.096 . S
O159 C140 1.247 . S
C160 O157 1.244 . S
C160 O158 1.240 . S
H161 C135 0.931 . S
H162 C144 0.931 1_455 S
H163 C148 0.929 . S
H164 C150 0.930 . S
Co165 N169 2.148 . S
Co165 N175 2.128 1_565 S
Co165 N185 2.194 1_565 S
Co165 O190 2.351 1_565 S
Co165 O191 2.155 1_565 S
Co165 O192 2.096 . S
C166 N169 1.301 . S
C166 N170 1.328 . S
C166 H171 0.930 . S
C167 C168 1.333 . S
C167 N169 1.317 . S
C167 H172 0.930 . S
C168 C167 1.333 . S
C168 N170 1.350 . S
C168 H194 0.931 . S
N169 Co165 2.148 . S
N169 C166 1.301 . S
N169 C167 1.317 . S
N170 C166 1.328 . S
N170 C168 1.350 . S
H171 C166 0.930 . S
H172 C167 0.930 . S
C173 O174 1.224 . S
C173 O192 1.247 . S
O174 C173 1.224 . S
N175 Co165 2.128 1_545 S
N175 C176 1.355 . S
N175 C178 1.311 . S
C176 N175 1.355 . S
C176 C177 1.363 . S
C176 H188 0.929 . S
C177 C176 1.363 . S
C177 N179 1.375 . S
C177 H195 0.931 . S
C178 N175 1.311 . S
C178 N179 1.347 . S
C178 H189 0.929 . S
N179 C177 1.375 . S
N179 C178 1.347 . S
C180 C183 1.365 . S
C180 N185 1.328 . S
C180 H186 0.929 . S
C181 C182 1.362 . S
C181 C184 1.378 1_545 S
C181 H196 0.930 . S
C182 C181 1.362 . S
C182 C183 1.366 . S
C183 C180 1.365 . S
C183 C182 1.366 . S
C183 H197 0.930 . S
C184 C181 1.378 1_565 S
C184 N185 1.315 1_565 S
C184 H187 0.930 . S
N185 Co165 2.194 1_545 S
N185 C180 1.328 . S
N185 C184 1.315 1_545 S
H186 C180 0.929 . S
H187 C184 0.930 . S
H188 C176 0.929 . S
H189 C178 0.929 . S
O190 Co165 2.351 1_545 S
O190 C193 1.244 . S
O191 Co165 2.155 1_545 S
O191 C193 1.240 . S
O192 Co165 2.096 . S
O192 C173 1.247 . S
C193 O190 1.244 . S
C193 O191 1.240 . S
H194 C168 0.931 . S
H195 C177 0.931 . S
H196 C181 0.930 . S
H197 C183 0.930 . S
Co198 N202 2.148 . S
Co198 N208 2.128 . S
Co198 N218 2.194 . S
Co198 O223 2.351 . S
Co198 O224 2.155 . S
Co198 O225 2.096 . S
C199 N202 1.301 . S
C199 N203 1.328 . S
C199 H204 0.930 . S
C200 C201 1.333 . S
C200 N202 1.317 . S
C200 H205 0.930 . S
C201 C200 1.333 . S
C201 N203 1.350 . S
C201 H227 0.931 . S
N202 Co198 2.148 . S
N202 C199 1.301 . S
N202 C200 1.317 . S
N203 C199 1.328 . S
N203 C201 1.350 . S
H204 C199 0.930 . S
H205 C200 0.930 . S
C206 O207 1.224 . S
C206 O225 1.247 . S
O207 C206 1.224 . S
N208 Co198 2.128 . S
N208 C209 1.355 . S
N208 C211 1.311 . S
C209 N208 1.355 . S
C209 C210 1.363 . S
C209 H221 0.929 . S
C210 C209 1.363 . S
C210 N212 1.375 . S
C210 H228 0.931 . S
C211 N208 1.311 . S
C211 N212 1.347 . S
C211 H222 0.929 . S
N212 C210 1.375 . S
N212 C211 1.347 . S
C213 C216 1.365 . S
C213 N218 1.328 . S
C213 H219 0.929 . S
C214 C215 1.362 . S
C214 C217 1.378 . S
C214 H229 0.929 . S
C215 C214 1.362 . S
C215 C216 1.366 . S
C216 C213 1.365 . S
C216 C215 1.366 . S
C216 H230 0.930 . S
C217 C214 1.378 . S
C217 N218 1.315 . S
C217 H220 0.930 . S
N218 Co198 2.194 . S
N218 C213 1.328 . S
N218 C217 1.315 . S
H219 C213 0.929 . S
H220 C217 0.930 . S
H221 C209 0.929 . S
H222 C211 0.929 . S
O223 Co198 2.351 . S
O223 C226 1.244 . S
O224 Co198 2.155 . S
O224 C226 1.240 . S
O225 Co198 2.096 . S
O225 C206 1.247 . S
C226 O223 1.244 . S
C226 O224 1.240 . S
H227 C201 0.931 . S
H228 C210 0.931 . S
H229 C214 0.929 . S
H230 C216 0.930 . S
Co231 N235 2.148 . S
Co231 N241 2.128 . S
Co231 N251 2.194 . S
Co231 O256 2.351 . S
Co231 O257 2.155 . S
Co231 O258 2.096 . S
C232 N235 1.301 . S
C232 N236 1.328 . S
C232 H237 0.930 . S
C233 C234 1.333 . S
C233 N235 1.317 . S
C233 H238 0.930 . S
C234 C233 1.333 . S
C234 N236 1.350 . S
C234 H260 0.931 . S
N235 Co231 2.148 . S
N235 C232 1.301 . S
N235 C233 1.317 . S
N236 C232 1.328 . S
N236 C234 1.350 . S
H237 C232 0.930 . S
H238 C233 0.930 . S
C239 O240 1.224 . S
C239 O258 1.247 . S
O240 C239 1.224 . S
N241 Co231 2.128 . S
N241 C242 1.355 . S
N241 C244 1.311 . S
C242 N241 1.355 . S
C242 C243 1.363 . S
C242 H254 0.929 . S
C243 C242 1.363 . S
C243 N245 1.375 . S
C243 H261 0.931 . S
C244 N241 1.311 . S
C244 N245 1.347 . S
C244 H255 0.929 . S
N245 C243 1.375 . S
N245 C244 1.347 . S
C246 C249 1.365 . S
C246 N251 1.328 . S
C246 H252 0.929 . S
C247 C248 1.362 . S
C247 C250 1.378 . S
C247 H262 0.929 . S
C248 C247 1.362 . S
C248 C249 1.366 . S
C249 C246 1.365 . S
C249 C248 1.366 . S
C249 H263 0.930 . S
C250 C247 1.378 . S
C250 N251 1.315 . S
C250 H253 0.930 . S
N251 Co231 2.194 . S
N251 C246 1.328 . S
N251 C250 1.315 . S
H252 C246 0.929 . S
H253 C250 0.930 . S
H254 C242 0.929 . S
H255 C244 0.929 . S
O256 Co231 2.351 . S
O256 C259 1.244 . S
O257 Co231 2.155 . S
O257 C259 1.240 . S
O258 Co231 2.096 . S
O258 C239 1.247 . S
C259 O256 1.244 . S
C259 O257 1.240 . S
H260 C234 0.931 . S
H261 C243 0.931 . S
H262 C247 0.929 . S
H263 C249 0.930 . S
Co264 N268 2.148 . S
Co264 N274 2.128 . S
Co264 N284 2.194 . S
Co264 O289 2.351 . S
Co264 O290 2.155 . S
Co264 O291 2.096 . S
C265 N268 1.301 . S
C265 N269 1.328 . S
C265 H270 0.930 . S
C266 C267 1.333 . S
C266 N268 1.317 . S
C266 H271 0.930 . S
C267 C266 1.333 . S
C267 N269 1.350 . S
C267 H293 0.931 . S
N268 Co264 2.148 . S
N268 C265 1.301 . S
N268 C266 1.317 . S
N269 C265 1.328 . S
N269 C267 1.350 . S
H270 C265 0.930 . S
H271 C266 0.930 . S
C272 O273 1.224 . S
C272 O291 1.247 . S
O273 C272 1.224 . S
N274 Co264 2.128 . S
N274 C275 1.355 . S
N274 C277 1.311 . S
C275 N274 1.355 . S
C275 C276 1.363 . S
C275 H287 0.929 . S
C276 C275 1.363 . S
C276 N278 1.375 . S
C276 H294 0.931 . S
C277 N274 1.311 . S
C277 N278 1.347 . S
C277 H288 0.929 . S
N278 C276 1.375 . S
N278 C277 1.347 . S
C279 C282 1.365 . S
C279 N284 1.328 . S
C279 H285 0.929 . S
C280 C281 1.362 . S
C280 C283 1.378 . S
C280 H295 0.929 . S
C281 C280 1.362 . S
C281 C282 1.366 . S
C282 C279 1.365 . S
C282 C281 1.366 . S
C282 H296 0.930 . S
C283 C280 1.378 . S
C283 N284 1.315 . S
C283 H286 0.930 . S
N284 Co264 2.194 . S
N284 C279 1.328 . S
N284 C283 1.315 . S
H285 C279 0.929 . S
H286 C283 0.930 . S
H287 C275 0.929 . S
H288 C277 0.929 . S
O289 Co264 2.351 . S
O289 C292 1.244 . S
O290 Co264 2.155 . S
O290 C292 1.240 . S
O291 Co264 2.096 . S
O291 C272 1.247 . S
C292 O289 1.244 . S
C292 O290 1.240 . S
H293 C267 0.931 . S
H294 C276 0.931 . S
H295 C280 0.929 . S
H296 C282 0.930 . S
Co297 N301 2.148 . S
Co297 N307 2.128 . S
Co297 N317 2.194 . S
Co297 O322 2.351 . S
Co297 O323 2.155 . S
Co297 O324 2.096 . S
C298 N301 1.301 . S
C298 N302 1.328 . S
C298 H303 0.930 . S
C299 C300 1.333 . S
C299 N301 1.317 . S
C299 H304 0.930 . S
C300 C299 1.333 . S
C300 N302 1.350 . S
C300 H326 0.931 . S
N301 Co297 2.148 . S
N301 C298 1.301 . S
N301 C299 1.317 . S
N302 C298 1.328 . S
N302 C300 1.350 . S
H303 C298 0.930 . S
H304 C299 0.930 . S
C305 O306 1.224 . S
C305 O324 1.247 . S
O306 C305 1.224 . S
N307 Co297 2.128 . S
N307 C308 1.355 . S
N307 C310 1.311 . S
C308 N307 1.355 . S
C308 C309 1.363 . S
C308 H320 0.929 . S
C309 C308 1.363 . S
C309 N311 1.375 . S
C309 H327 0.931 . S
C310 N307 1.311 . S
C310 N311 1.347 . S
C310 H321 0.929 . S
N311 C309 1.375 . S
N311 C310 1.347 . S
C312 C315 1.365 1_554 S
C312 N317 1.328 . S
C312 H318 0.929 . S
C313 C314 1.362 . S
C313 C316 1.378 . S
C313 H328 0.929 . S
C314 C313 1.362 . S
C314 C315 1.366 . S
C315 C312 1.365 1_556 S
C315 C314 1.366 . S
C315 H329 0.930 . S
C316 C313 1.378 . S
C316 N317 1.315 1_556 S
C316 H319 0.930 . S
N317 Co297 2.194 . S
N317 C312 1.328 . S
N317 C316 1.315 1_554 S
H318 C312 0.929 . S
H319 C316 0.930 . S
H320 C308 0.929 . S
H321 C310 0.929 . S
O322 Co297 2.351 . S
O322 C325 1.244 . S
O323 Co297 2.155 . S
O323 C325 1.240 . S
O324 Co297 2.096 . S
O324 C305 1.247 . S
C325 O322 1.244 . S
C325 O323 1.240 . S
H326 C300 0.931 . S
H327 C309 0.931 . S
H328 C313 0.929 . S
H329 C315 0.930 . S
Co330 N334 2.148 . S
Co330 N340 2.128 . S
Co330 N350 2.194 . S
Co330 O355 2.351 . S
Co330 O356 2.155 . S
Co330 O357 2.096 . S
C331 N334 1.301 . S
C331 N335 1.328 . S
C331 H336 0.930 . S
C332 C333 1.333 . S
C332 N334 1.317 . S
C332 H337 0.930 . S
C333 C332 1.333 . S
C333 N335 1.350 . S
C333 H359 0.931 . S
N334 Co330 2.148 . S
N334 C331 1.301 . S
N334 C332 1.317 . S
N335 C331 1.328 . S
N335 C333 1.350 . S
H336 C331 0.930 . S
H337 C332 0.930 . S
C338 O339 1.224 . S
C338 O357 1.247 . S
O339 C338 1.224 . S
N340 Co330 2.128 . S
N340 C341 1.355 . S
N340 C343 1.311 . S
C341 N340 1.355 . S
C341 C342 1.363 . S
C341 H353 0.929 . S
C342 C341 1.363 . S
C342 N344 1.375 . S
C342 H360 0.931 . S
C343 N340 1.311 . S
C343 N344 1.347 . S
C343 H354 0.929 . S
N344 C342 1.375 . S
N344 C343 1.347 . S
C345 C348 1.365 1_554 S
C345 N350 1.328 . S
C345 H351 0.929 . S
C346 C347 1.362 . S
C346 C349 1.378 . S
C346 H361 0.929 . S
C347 C346 1.362 . S
C347 C348 1.366 . S
C348 C345 1.365 1_556 S
C348 C347 1.366 . S
C348 H362 0.930 . S
C349 C346 1.378 . S
C349 N350 1.315 1_556 S
C349 H352 0.930 . S
N350 Co330 2.194 . S
N350 C345 1.328 . S
N350 C349 1.315 1_554 S
H351 C345 0.929 . S
H352 C349 0.930 . S
H353 C341 0.929 . S
H354 C343 0.929 . S
O355 Co330 2.351 . S
O355 C358 1.244 . S
O356 Co330 2.155 . S
O356 C358 1.240 . S
O357 Co330 2.096 . S
O357 C338 1.247 . S
C358 O355 1.244 . S
C358 O356 1.240 . S
H359 C333 0.931 . S
H360 C342 0.931 . S
H361 C346 0.929 . S
H362 C348 0.930 . S
Co363 N367 2.148 . S
Co363 N373 2.128 . S
Co363 N383 2.194 . S
Co363 O388 2.351 . S
Co363 O389 2.155 . S
Co363 O390 2.096 . S
C364 N367 1.301 . S
C364 N368 1.328 . S
C364 H369 0.930 . S
C365 C366 1.333 . S
C365 N367 1.317 . S
C365 H370 0.930 . S
C366 C365 1.333 . S
C366 N368 1.350 . S
C366 H392 0.931 . S
N367 Co363 2.148 . S
N367 C364 1.301 . S
N367 C365 1.317 . S
N368 C364 1.328 . S
N368 C366 1.350 . S
H369 C364 0.930 . S
H370 C365 0.930 . S
C371 O372 1.224 . S
C371 O390 1.247 . S
O372 C371 1.224 . S
N373 Co363 2.128 . S
N373 C374 1.355 . S
N373 C376 1.311 . S
C374 N373 1.355 . S
C374 C375 1.363 . S
C374 H386 0.929 . S
C375 C374 1.363 . S
C375 N377 1.375 . S
C375 H393 0.931 . S
C376 N373 1.311 . S
C376 N377 1.347 . S
C376 H387 0.929 . S
N377 C375 1.375 . S
N377 C376 1.347 . S
C378 C381 1.365 1_554 S
C378 N383 1.328 . S
C378 H384 0.929 . S
C379 C380 1.362 . S
C379 C382 1.378 . S
C379 H394 0.929 . S
C380 C379 1.362 . S
C380 C381 1.366 . S
C381 C378 1.365 1_556 S
C381 C380 1.366 . S
C381 H395 0.930 . S
C382 C379 1.378 . S
C382 N383 1.315 1_556 S
C382 H385 0.930 . S
N383 Co363 2.194 . S
N383 C378 1.328 . S
N383 C382 1.315 1_554 S
H384 C378 0.929 . S
H385 C382 0.930 . S
H386 C374 0.929 . S
H387 C376 0.929 . S
O388 Co363 2.351 . S
O388 C391 1.244 . S
O389 Co363 2.155 . S
O389 C391 1.240 . S
O390 Co363 2.096 . S
O390 C371 1.247 . S
C391 O388 1.244 . S
C391 O389 1.240 . S
H392 C366 0.931 . S
H393 C375 0.931 . S
H394 C379 0.929 . S
H395 C381 0.930 . S
Co396 N400 2.148 . S
Co396 N406 2.128 . S
Co396 N416 2.194 . S
Co396 O421 2.351 . S
Co396 O422 2.155 . S
Co396 O423 2.096 . S
C397 N400 1.301 . S
C397 N401 1.328 . S
C397 H402 0.930 . S
C398 C399 1.333 . S
C398 N400 1.317 . S
C398 H403 0.930 . S
C399 C398 1.333 . S
C399 N401 1.350 . S
C399 H425 0.931 . S
N400 Co396 2.148 . S
N400 C397 1.301 . S
N400 C398 1.317 . S
N401 C397 1.328 . S
N401 C399 1.350 . S
H402 C397 0.930 . S
H403 C398 0.930 . S
C404 O405 1.224 . S
C404 O423 1.247 . S
O405 C404 1.224 . S
N406 Co396 2.128 . S
N406 C407 1.355 . S
N406 C409 1.311 . S
C407 N406 1.355 . S
C407 C408 1.363 . S
C407 H419 0.929 . S
C408 C407 1.363 . S
C408 N410 1.375 . S
C408 H426 0.931 . S
C409 N406 1.311 . S
C409 N410 1.347 . S
C409 H420 0.929 . S
N410 C408 1.375 . S
N410 C409 1.347 . S
C411 C414 1.365 1_556 S
C411 N416 1.328 . S
C411 H417 0.929 . S
C412 C413 1.362 . S
C412 C415 1.378 . S
C412 H427 0.929 . S
C413 C412 1.362 . S
C413 C414 1.366 . S
C414 C411 1.365 1_554 S
C414 C413 1.366 . S
C414 H428 0.930 . S
C415 C412 1.378 . S
C415 N416 1.315 1_554 S
C415 H418 0.930 . S
N416 Co396 2.194 . S
N416 C411 1.328 . S
N416 C415 1.315 1_556 S
H417 C411 0.929 . S
H418 C415 0.930 . S
H419 C407 0.929 . S
H420 C409 0.929 . S
O421 Co396 2.351 . S
O421 C424 1.244 . S
O422 Co396 2.155 . S
O422 C424 1.240 . S
O423 Co396 2.096 . S
O423 C404 1.247 . S
C424 O421 1.244 . S
C424 O422 1.240 . S
H425 C399 0.931 . S
H426 C408 0.931 . S
H427 C412 0.929 . S
H428 C414 0.930 . S
Co429 N433 2.148 . S
Co429 N439 2.128 . S
Co429 N449 2.194 . S
Co429 O454 2.351 . S
Co429 O455 2.155 . S
Co429 O456 2.096 . S
C430 N433 1.301 . S
C430 N434 1.328 . S
C430 H435 0.930 . S
C431 C432 1.333 . S
C431 N433 1.317 . S
C431 H436 0.930 . S
C432 C431 1.333 . S
C432 N434 1.350 . S
C432 H458 0.931 . S
N433 Co429 2.148 . S
N433 C430 1.301 . S
N433 C431 1.317 . S
N434 C430 1.328 . S
N434 C432 1.350 . S
H435 C430 0.930 . S
H436 C431 0.930 . S
C437 O438 1.224 . S
C437 O456 1.247 . S
O438 C437 1.224 . S
N439 Co429 2.128 . S
N439 C440 1.355 . S
N439 C442 1.311 . S
C440 N439 1.355 . S
C440 C441 1.363 . S
C440 H452 0.929 . S
C441 C440 1.363 . S
C441 N443 1.375 . S
C441 H459 0.931 . S
C442 N439 1.311 . S
C442 N443 1.347 . S
C442 H453 0.929 . S
N443 C441 1.375 . S
N443 C442 1.347 . S
C444 C447 1.365 1_556 S
C444 N449 1.328 . S
C444 H450 0.929 . S
C445 C446 1.362 . S
C445 C448 1.378 . S
C445 H460 0.929 . S
C446 C445 1.362 . S
C446 C447 1.366 . S
C447 C444 1.365 1_554 S
C447 C446 1.366 . S
C447 H461 0.930 . S
C448 C445 1.378 . S
C448 N449 1.315 1_554 S
C448 H451 0.930 . S
N449 Co429 2.194 . S
N449 C444 1.328 . S
N449 C448 1.315 1_556 S
H450 C444 0.929 . S
H451 C448 0.930 . S
H452 C440 0.929 . S
H453 C442 0.929 . S
O454 Co429 2.351 . S
O454 C457 1.244 . S
O455 Co429 2.155 . S
O455 C457 1.240 . S
O456 Co429 2.096 . S
O456 C437 1.247 . S
C457 O454 1.244 . S
C457 O455 1.240 . S
H458 C432 0.931 . S
H459 C441 0.931 . S
H460 C445 0.929 . S
H461 C447 0.930 . S
Co462 N466 2.148 . S
Co462 N472 2.128 . S
Co462 N482 2.194 . S
Co462 O487 2.351 . S
Co462 O488 2.155 . S
Co462 O489 2.096 . S
C463 N466 1.301 . S
C463 N467 1.328 . S
C463 H468 0.930 . S
C464 C465 1.333 . S
C464 N466 1.317 . S
C464 H469 0.930 . S
C465 C464 1.333 . S
C465 N467 1.350 . S
C465 H491 0.931 . S
N466 Co462 2.148 . S
N466 C463 1.301 . S
N466 C464 1.317 . S
N467 C463 1.328 . S
N467 C465 1.350 . S
H468 C463 0.930 . S
H469 C464 0.930 . S
C470 O471 1.224 . S
C470 O489 1.247 . S
O471 C470 1.224 . S
N472 Co462 2.128 . S
N472 C473 1.355 . S
N472 C475 1.311 . S
C473 N472 1.355 . S
C473 C474 1.363 . S
C473 H485 0.929 . S
C474 C473 1.363 . S
C474 N476 1.375 . S
C474 H492 0.931 . S
C475 N472 1.311 . S
C475 N476 1.347 . S
C475 H486 0.929 . S
N476 C474 1.375 . S
N476 C475 1.347 . S
C477 C480 1.365 1_556 S
C477 N482 1.328 . S
C477 H483 0.929 . S
C478 C479 1.362 . S
C478 C481 1.378 . S
C478 H493 0.929 . S
C479 C478 1.362 . S
C479 C480 1.366 . S
C480 C477 1.365 1_554 S
C480 C479 1.366 . S
C480 H494 0.930 . S
C481 C478 1.378 . S
C481 N482 1.315 1_554 S
C481 H484 0.930 . S
N482 Co462 2.194 . S
N482 C477 1.328 . S
N482 C481 1.315 1_556 S
H483 C477 0.929 . S
H484 C481 0.930 . S
H485 C473 0.929 . S
H486 C475 0.929 . S
O487 Co462 2.351 . S
O487 C490 1.244 . S
O488 Co462 2.155 . S
O488 C490 1.240 . S
O489 Co462 2.096 . S
O489 C470 1.247 . S
C490 O487 1.244 . S
C490 O488 1.240 . S
H491 C465 0.931 . S
H492 C474 0.931 . S
H493 C478 0.929 . S
H494 C480 0.930 . S
Co495 N499 2.148 . S
Co495 N505 2.128 . S
Co495 N515 2.194 . S
Co495 O520 2.351 . S
Co495 O521 2.155 . S
Co495 O522 2.096 . S
C496 N499 1.301 . S
C496 N500 1.328 . S
C496 H501 0.930 . S
C497 C498 1.333 . S
C497 N499 1.317 . S
C497 H502 0.930 . S
C498 C497 1.333 . S
C498 N500 1.350 . S
C498 H524 0.931 . S
N499 Co495 2.148 . S
N499 C496 1.301 . S
N499 C497 1.317 . S
N500 C496 1.328 . S
N500 C498 1.350 . S
H501 C496 0.930 . S
H502 C497 0.930 . S
C503 O504 1.224 . S
C503 O522 1.247 . S
O504 C503 1.224 . S
N505 Co495 2.128 . S
N505 C506 1.355 . S
N505 C508 1.311 . S
C506 N505 1.355 . S
C506 C507 1.363 . S
C506 H518 0.929 . S
C507 C506 1.363 . S
C507 N509 1.375 . S
C507 H525 0.931 . S
C508 N505 1.311 . S
C508 N509 1.347 . S
C508 H519 0.929 . S
N509 C507 1.375 . S
N509 C508 1.347 . S
C510 C513 1.365 . S
C510 N515 1.328 . S
C510 H516 0.929 . S
C511 C512 1.362 . S
C511 C514 1.378 . S
C511 H526 0.929 . S
C512 C511 1.362 . S
C512 C513 1.366 . S
C513 C510 1.365 . S
C513 C512 1.366 . S
C513 H527 0.930 . S
C514 C511 1.378 . S
C514 N515 1.315 . S
C514 H517 0.930 . S
N515 Co495 2.194 . S
N515 C510 1.328 . S
N515 C514 1.315 . S
H516 C510 0.929 . S
H517 C514 0.930 . S
H518 C506 0.929 . S
H519 C508 0.929 . S
O520 Co495 2.351 . S
O520 C523 1.244 . S
O521 Co495 2.155 . S
O521 C523 1.240 . S
O522 Co495 2.096 . S
O522 C503 1.247 . S
C523 O520 1.244 . S
C523 O521 1.240 . S
H524 C498 0.931 . S
H525 C507 0.931 . S
H526 C511 0.929 . S
H527 C513 0.930 . S
Co528 N532 2.148 . S
Co528 N538 2.128 . S
Co528 N548 2.194 . S
Co528 O553 2.351 . S
Co528 O554 2.155 . S
Co528 O555 2.096 . S
C529 N532 1.301 . S
C529 N533 1.328 . S
C529 H534 0.930 . S
C530 C531 1.333 . S
C530 N532 1.317 . S
C530 H535 0.930 . S
C531 C530 1.333 . S
C531 N533 1.350 . S
C531 H557 0.931 . S
N532 Co528 2.148 . S
N532 C529 1.301 . S
N532 C530 1.317 . S
N533 C529 1.328 . S
N533 C531 1.350 . S
H534 C529 0.930 . S
H535 C530 0.930 . S
C536 O537 1.224 . S
C536 O555 1.247 . S
O537 C536 1.224 . S
N538 Co528 2.128 . S
N538 C539 1.355 . S
N538 C541 1.311 . S
C539 N538 1.355 . S
C539 C540 1.363 . S
C539 H551 0.929 . S
C540 C539 1.363 . S
C540 N542 1.375 . S
C540 H558 0.931 . S
C541 N538 1.311 . S
C541 N542 1.347 . S
C541 H552 0.929 . S
N542 C540 1.375 . S
N542 C541 1.347 . S
C543 C546 1.365 . S
C543 N548 1.328 . S
C543 H549 0.929 . S
C544 C545 1.362 . S
C544 C547 1.378 . S
C544 H559 0.929 . S
C545 C544 1.362 . S
C545 C546 1.366 . S
C546 C543 1.365 . S
C546 C545 1.366 . S
C546 H560 0.930 . S
C547 C544 1.378 . S
C547 N548 1.315 . S
C547 H550 0.930 . S
N548 Co528 2.194 . S
N548 C543 1.328 . S
N548 C547 1.315 . S
H549 C543 0.929 . S
H550 C547 0.930 . S
H551 C539 0.929 . S
H552 C541 0.929 . S
O553 Co528 2.351 . S
O553 C556 1.244 . S
O554 Co528 2.155 . S
O554 C556 1.240 . S
O555 Co528 2.096 . S
O555 C536 1.247 . S
C556 O553 1.244 . S
C556 O554 1.240 . S
H557 C531 0.931 . S
H558 C540 0.931 . S
H559 C544 0.929 . S
H560 C546 0.930 . S
Co561 N565 2.148 . S
Co561 N571 2.128 . S
Co561 N581 2.194 . S
Co561 O586 2.351 . S
Co561 O587 2.155 . S
Co561 O588 2.096 . S
C562 N565 1.301 . S
C562 N566 1.328 . S
C562 H567 0.930 . S
C563 C564 1.333 . S
C563 N565 1.317 . S
C563 H568 0.930 . S
C564 C563 1.333 . S
C564 N566 1.350 . S
C564 H590 0.931 . S
N565 Co561 2.148 . S
N565 C562 1.301 . S
N565 C563 1.317 . S
N566 C562 1.328 . S
N566 C564 1.350 . S
H567 C562 0.930 . S
H568 C563 0.930 . S
C569 O570 1.224 . S
C569 O588 1.247 . S
O570 C569 1.224 . S
N571 Co561 2.128 . S
N571 C572 1.355 . S
N571 C574 1.311 . S
C572 N571 1.355 . S
C572 C573 1.363 . S
C572 H584 0.929 . S
C573 C572 1.363 . S
C573 N575 1.375 . S
C573 H591 0.931 . S
C574 N571 1.311 . S
C574 N575 1.347 . S
C574 H585 0.929 . S
N575 C573 1.375 . S
N575 C574 1.347 . S
C576 C579 1.365 . S
C576 N581 1.328 . S
C576 H582 0.929 . S
C577 C578 1.362 . S
C577 C580 1.378 . S
C577 H592 0.929 . S
C578 C577 1.362 . S
C578 C579 1.366 . S
C579 C576 1.365 . S
C579 C578 1.366 . S
C579 H593 0.930 . S
C580 C577 1.378 . S
C580 N581 1.315 . S
C580 H583 0.930 . S
N581 Co561 2.194 . S
N581 C576 1.328 . S
N581 C580 1.315 . S
H582 C576 0.929 . S
H583 C580 0.930 . S
H584 C572 0.929 . S
H585 C574 0.929 . S
O586 Co561 2.351 . S
O586 C589 1.244 . S
O587 Co561 2.155 . S
O587 C589 1.240 . S
O588 Co561 2.096 . S
O588 C569 1.247 . S
C589 O586 1.244 . S
C589 O587 1.240 . S
H590 C564 0.931 . S
H591 C573 0.931 . S
H592 C577 0.929 . S
H593 C579 0.930 . S
C8 N47 1.163 . S
N80 C41 1.165 . S
C74 N14 1.198 . S
N179 C107 1.164 . S
N113 C140 1.199 . S
C173 N146 1.165 . S
N245 C206 1.187 . S
C239 N278 1.191 . S
C272 N212 1.188 . S
N377 C305 1.185 . S
N311 C338 1.181 . S
C371 N344 1.191 . S
N443 C404 1.185 . S
C437 N476 1.191 . S
C470 N410 1.181 . S
N575 C503 1.187 . S
N509 C536 1.187 . S
C569 N542 1.191 . S
N335 N5 1.535 . S
N368 N38 1.531 . S
N302 N71 1.543 . S
N104 N467 1.534 . S
N401 N137 1.543 . S
N434 N170 1.530 . S
N203 N533 1.550 1_655 S
N566 N236 1.549 . S
N500 N269 1.550 1_565 S
C17 C182 3.093 1_565 S
C116 C50 3.093 1_655 S
C149 C83 3.204 . S
C380 C215 3.190 . S
C314 C248 3.189 . S
C281 C347 3.173 . S
C578 C413 3.189 . S
C446 C512 3.190 . S
C545 C479 3.173 . S
C28 C193 2.422 1_564 S
C61 C127 2.422 1_454 S
C160 C94 2.551 1_556 S
C391 C226 2.526 . S
C325 C259 2.527 . S
C358 C292 2.508 . S
C424 C589 2.527 . S
C457 C523 2.526 . S
C556 C490 2.508 . S
