# Generated by pormake.
# Topology kag, (6)-cn, num edge types: 1
# Building blocks:
#     Node 0, Type 0, BuildingBlock: LEVNOQ01_clean_sbu_1, # of connection points: 6
#     Node 1, Type 0, BuildingBlock: LEVNOQ01_clean_sbu_1, # of connection points: 6
#     Node 2, Type 0, BuildingBlock: LEVNOQ01_clean_sbu_1, # of connection points: 6
#     Edge 3, Type (0, 0), BuildingBlock: UKIBIB_clean_linker_0, # of connection points: 2
#     Edge 4, Type (0, 0), BuildingBlock: UKIBIB_clean_linker_0, # of connection points: 2
#     Edge 5, Type (0, 0), BuildingBlock: UKIBIB_clean_linker_0, # of connection points: 2
#     Edge 6, Type (0, 0), BuildingBlock: UKIBIB_clean_linker_0, # of connection points: 2
#     Edge 7, Type (0, 0), BuildingBlock: UKIBIB_clean_linker_0, # of connection points: 2
#     Edge 8, Type (0, 0), BuildingBlock: UKIBIB_clean_linker_0, # of connection points: 2
#     Edge 9, Type (0, 0), BuildingBlock: UKIBIB_clean_linker_0, # of connection points: 2
#     Edge 10, Type (0, 0), BuildingBlock: UKIBIB_clean_linker_0, # of connection points: 2
#     Edge 11, Type (0, 0), BuildingBlock: UKIBIB_clean_linker_0, # of connection points: 2
# Relax obj value: 0.108
# Max RMSD: 0.157
# Mean RMSD: 0.150
data_MOF--net-kag--node1-LEVNOQ01_clean_sbu_1--edge1-UKIBIB_clean_linker_0
_symmetry_space_group_name_H-M    P1
_symmetry_Int_Tables_number       1
_symmetry_cell_setting            triclinic
loop_
_symmetry_equiv_pos_as_xyz
'x, y, z'
_cell_length_a     43.029922
_cell_length_b     43.015534
_cell_length_c     21.12344
_cell_angle_alpha  89.883747
_cell_angle_beta   102.3755
_cell_angle_gamma 120.21498
loop_
_atom_site_label
_atom_site_type_symbol
_atom_site_fract_x
_atom_site_fract_y
_atom_site_fract_z
_atom_type_partial_charge
O0 O 0.91049 0.38782 0.92455 0.0
Mg1 Mg 0.92309 0.43897 0.9041 0.0
O2 O 0.94017 0.41698 0.02321 0.0
Mg3 Mg -0.01634 0.4781 0.01021 0.0
O4 O -0.0246 0.47187 0.89558 0.0
O5 O 0.92469 0.44224 0.81116 0.0
O6 O 0.02949 0.53967 0.0065 0.0
O7 O 0.02565 0.45916 0.00453 0.0
Mg8 Mg 0.05314 0.51259 0.13531 0.0
O9 O -0.00324 0.48802 0.12155 0.0
O10 O 0.06641 0.56358 0.10685 0.0
O11 O 0.07373 0.48619 0.09013 0.0
O12 O 0.03257 0.48417 0.20895 0.0
C13 C 0.90663 0.48491 0.97665 0.0
C14 C 0.91822 0.38725 0.98522 0.0
C15 C -0.03985 0.46253 0.83314 0.0
C16 C 0.05572 0.56694 0.04767 0.0
C17 C 0.05712 0.46519 0.03718 0.0
C18 C -0.00036 0.47375 0.17468 0.0
O19 O 0.89311 0.46073 0.92861 0.0
O20 O 0.93932 0.49613 0.01237 0.0
O21 O 0.4938 0.90268 0.94173 0.0
Mg22 Mg 0.46209 0.92551 0.90932 0.0
O23 O 0.50481 0.93247 0.03561 0.0
Mg24 Mg 0.48759 -0.02209 0.01287 0.0
O25 O 0.48466 -0.0211 0.89894 0.0
O26 O 0.4639 0.93387 0.81775 0.0
O27 O 0.4724 0.025 0.00054 0.0
O28 O 0.54999 0.0201 0.01447 0.0
Mg29 Mg 0.52784 0.037 0.13192 0.0
O30 O 0.49202 -0.01876 0.12437 0.0
O31 O 0.49202 0.05633 0.0989 0.0
O32 O 0.57331 0.06426 0.0945 0.0
O33 O 0.54543 0.01064 0.19747 0.0
C34 C 0.39892 0.90528 0.96306 0.0
C35 C 0.50645 0.90859 0.00266 0.0
C36 C 0.47855 0.96771 0.83775 0.0
C37 C 0.47565 0.05041 0.03864 0.0
C38 C 0.57646 0.05041 0.04588 0.0
C39 C 0.5142 -0.01877 0.17658 0.0
O40 O 0.40765 0.89726 0.91495 0.0
O41 O 0.42321 0.93319 0.00454 0.0
O42 O 0.38554 0.43257 0.92477 0.0
Mg43 Mg 0.43582 0.47823 0.9207 0.0
O44 O 0.41973 0.45918 0.02174 0.0
Mg45 Mg 0.4803 0.47301 0.01157 0.0
O46 O 0.4755 0.47161 0.89741 0.0
O47 O 0.43457 0.4814 0.82704 0.0
O48 O 0.54221 0.4878 0.01587 0.0
O49 O 0.45862 0.40917 0.99198 0.0
Mg50 Mg 0.51609 0.44689 0.12963 0.0
O51 O 0.49115 0.47752 0.12071 0.0
O52 O 0.56757 0.48989 0.12036 0.0
O53 O 0.50349 0.40602 0.0593 0.0
O54 O 0.46629 0.42638 0.15992 0.0
C55 C 0.481 0.54994 0.00082 0.0
C56 C 0.38755 0.44101 0.983 0.0
C57 C 0.46175 0.47564 0.83908 0.0
C58 C 0.57074 0.49556 0.06233 0.0
C59 C 0.47585 0.39233 0.01084 0.0
C60 C 0.47003 0.45765 0.15634 0.0
O61 O 0.45044 0.53051 0.95926 0.0
O62 O 0.50019 0.5359 0.02606 0.0
C63 C -0.02295 0.44122 0.74671 0.0
C64 C -0.0176 0.47072 0.78559 0.0
C65 C -0.01497 0.44562 0.68582 0.0
C66 C -0.03177 0.48952 0.23988 0.0
C67 C -0.02821 0.46213 0.21239 0.0
C68 C -0.03559 0.48946 0.30386 0.0
H69 H 0.00363 0.52842 0.7958 0.0
H70 H 0.01813 0.53633 0.68817 0.0
H71 H -0.03276 0.41016 0.22403 0.0
H72 H -0.04136 0.40915 0.33496 0.0
C73 C -0.00018 0.50554 0.76657 0.0
C74 C 0.00786 0.50996 0.70523 0.0
C75 C -0.03569 0.43139 0.24434 0.0
C76 C -0.03998 0.4311 0.30802 0.0
C77 C -0.00168 0.47953 0.66348 0.0
C78 C -0.00533 0.48102 0.59475 0.0
C79 C -0.01 0.47838 0.53646 0.0
C80 C -0.03694 0.46149 0.33935 0.0
C81 C -0.02771 0.46733 0.4093 0.0
C82 C -0.01996 0.47236 0.46791 0.0
H83 H -0.03673 0.4141 0.76063 0.0
H84 H -0.0225 0.42191 0.65392 0.0
H85 H -0.0255 0.51375 0.21647 0.0
H86 H -0.03331 0.51307 0.32767 0.0
C87 C 0.52542 0.9639 0.2865 0.0
C88 C 0.49944 0.96042 0.22932 0.0
C89 C 0.51778 0.96387 0.34727 0.0
C90 C 0.4552 -0.01231 0.7411 0.0
C91 C 0.48618 -0.00786 0.78773 0.0
C92 C 0.45677 -0.00782 0.67629 0.0
H93 H 0.44254 0.94667 0.18999 0.0
H94 H 0.42848 0.94434 0.29703 0.0
H95 H 0.54432 0.00923 0.80613 0.0
H96 H 0.54747 0.01841 0.6924 0.0
C97 C 0.46325 0.94985 0.23314 0.0
C98 C 0.45536 0.94909 0.29432 0.0
C99 C 0.52029 0.00632 0.77105 0.0
C100 C 0.52195 0.01106 0.70602 0.0
C101 C 0.4835 0.95853 0.35138 0.0
C102 C 0.47962 0.96765 0.41345 0.0
C103 C 0.48035 -0.0237 0.46813 0.0
C104 C 0.48948 0.00154 0.65802 0.0
C105 C 0.48745 -0.00589 0.59054 0.0
C106 C 0.48433 -0.01255 0.53346 0.0
H107 H 0.55348 -0.02815 0.28503 0.0
H108 H 0.53973 0.97103 0.39104 0.0
H109 H 0.42848 -0.02403 0.75281 0.0
H110 H 0.43146 -0.01539 0.63963 0.0
C111 C 0.4766 0.44527 0.76094 0.0
C112 C 0.4783 0.47643 0.78576 0.0
C113 C 0.48181 0.44304 0.69838 0.0
C114 C 0.45013 0.48256 0.23585 0.0
C115 C 0.47602 0.4753 0.21999 0.0
C116 C 0.45149 0.48883 0.30171 0.0
H117 H 0.48975 0.53055 0.76985 0.0
H118 H 0.49938 0.52684 0.66131 0.0
H119 H 0.52534 0.47224 0.25753 0.0
H120 H 0.52667 0.48168 0.37144 0.0
C121 C 0.48862 0.50644 0.75115 0.0
C122 C 0.49403 0.50432 0.68943 0.0
C123 C 0.50521 0.47793 0.26925 0.0
C124 C 0.50601 0.48329 0.33414 0.0
C125 C 0.48886 0.4721 0.66189 0.0
C126 C 0.4849 0.46793 0.5934 0.0
C127 C 0.48233 0.47152 0.53676 0.0
C128 C 0.47828 0.48709 0.35035 0.0
C129 C 0.47485 0.48315 0.41575 0.0
C130 C 0.47767 0.47867 0.47207 0.0
H131 H 0.46813 0.42178 0.78717 0.0
H132 H 0.47757 0.41793 0.67691 0.0
H133 H 0.42766 0.4808 0.19807 0.0
H134 H 0.43012 0.4921 0.31442 0.0
C135 C 0.08776 0.42942 0.054 0.0
C136 C 0.07675 0.44979 0.0134 0.0
C137 C 0.11675 0.42509 0.04587 0.0
C138 C 0.33871 0.45623 0.94914 0.0
C139 C 0.35622 0.44301 -0.00405 0.0
C140 C 0.3082 0.45764 0.95732 0.0
H141 H 0.08572 0.48004 0.93049 0.0
H142 H 0.13682 0.4723 0.91601 0.0
H143 H 0.35724 0.4232 0.09021 0.0
H144 H 0.30221 0.42463 0.10379 0.0
C145 C 0.09324 0.4635 0.96132 0.0
C146 C 0.12261 0.45944 0.95355 0.0
C147 C 0.34372 0.43283 0.053 0.0
C148 C 0.31254 0.43379 0.06078 0.0
C149 C 0.13536 0.44146 -0.00241 0.0
C150 C 0.16976 0.44308 -0.00124 0.0
C151 C 0.19823 0.44314 0.00341 0.0
C152 C 0.29438 0.44561 0.0122 0.0
C153 C 0.2604 0.44381 0.01537 0.0
C154 C 0.23195 0.44367 0.0116 0.0
H155 H 0.07578 0.41916 0.09508 0.0
H156 H 0.12624 0.41105 0.08012 0.0
H157 H 0.34858 0.46542 0.90571 0.0
H158 H 0.29486 0.46736 0.91988 0.0
C159 C 0.60967 0.08658 0.96535 0.0
C160 C 0.61072 0.07218 0.02494 0.0
C161 C 0.64161 0.11724 0.95565 0.0
C162 C 0.87941 0.35221 0.06123 0.0
C163 C 0.89532 0.35284 0.00929 0.0
C164 C 0.84806 0.32015 0.06888 0.0
H165 H 0.64551 0.0768 0.11946 0.0
H166 H 0.70142 0.12946 0.10157 0.0
H167 H 0.89355 0.32016 0.92903 0.0
H168 H 0.83948 0.26437 0.94338 0.0
C169 C 0.64443 0.087 0.07256 0.0
C170 C 0.67617 0.11726 0.06271 0.0
C171 C 0.88184 0.32034 0.96953 0.0
C172 C 0.85082 0.28854 0.97732 0.0
C173 C 0.67452 0.13327 0.00544 0.0
C174 C 0.70585 0.16785 0.00188 0.0
C175 C 0.73414 0.19649 0.00673 0.0
C176 C 0.83292 0.28872 0.02507 0.0
C177 C 0.79738 0.25746 0.024 0.0
C178 C 0.76806 0.22966 0.01733 0.0
H179 H 0.58362 0.07621 0.92898 0.0
H180 H 0.64 0.12957 0.91122 0.0
H181 H 0.88901 0.377 0.09198 0.0
H182 H 0.83445 0.3205 0.10626 0.0
C183 C 0.53319 0.86962 -0.00344 0.0
C184 C 0.51854 0.88403 0.03307 0.0
C185 C 0.53533 0.8392 0.01318 0.0
C186 C 0.5121 0.60697 0.08111 0.0
C187 C 0.49331 0.58871 0.01744 0.0
C188 C 0.51917 0.64213 0.09675 0.0
H189 H 0.49669 0.87896 0.11838 0.0
H190 H 0.50099 0.82544 0.14822 0.0
H191 H 0.46866 0.59368 0.91984 0.0
H192 H 0.4818 0.65503 0.947 0.0
C193 C 0.50859 0.86882 0.08982 0.0
C194 C 0.51067 0.83804 0.10646 0.0
C195 C 0.48301 0.60688 0.96946 0.0
C196 C 0.49045 0.64198 0.98489 0.0
C197 C 0.52292 0.8224 0.06677 0.0
C198 C 0.5201 0.78768 0.07632 0.0
C199 C 0.51916 0.75901 0.07816 0.0
C200 C 0.50801 0.65966 0.0488 0.0
C201 C 0.51343 0.69524 0.06462 0.0
C202 C 0.51675 0.72477 0.0732 0.0
H203 H 0.54098 0.88063 0.95252 0.0
H204 H 0.54498 0.82772 0.98202 0.0
H205 H 0.51997 0.59357 0.11922 0.0
H206 H 0.53272 0.65533 0.1465 0.0
C207 C 0.85423 0.49532 0.93802 0.0
C208 C 0.88237 0.49796 0.99024 0.0
C209 C 0.82642 0.50071 0.94925 0.0
C210 C 0.63874 0.51925 0.10033 0.0
C211 C 0.60667 0.50485 0.04846 0.0
C212 C 0.6712 0.52179 0.09165 0.0
H213 H 0.90403 0.50976 0.09531 0.0
H214 H 0.85488 0.51962 0.11501 0.0
H215 H 0.58407 0.48266 0.94607 0.0
H216 H 0.64145 0.48754 0.93091 0.0
C217 C 0.88302 0.50795 0.0541 0.0
C218 C 0.85482 0.51328 0.06537 0.0
C219 C 0.60841 0.49442 0.98674 0.0
C220 C 0.64106 0.49688 0.97817 0.0
C221 C 0.82599 0.5089 0.01289 0.0
C222 C 0.79473 0.51084 0.02299 0.0
C223 C 0.76722 0.51167 0.02484 0.0
C224 C 0.67237 0.51 0.03103 0.0
C225 C 0.70533 0.51013 0.02491 0.0
C226 C 0.73387 0.51114 0.02407 0.0
H227 H 0.85292 0.48777 0.88819 0.0
H228 H 0.80453 0.49733 0.90812 0.0
H229 H 0.63839 0.52738 0.14854 0.0
H230 H 0.69509 0.53202 0.13299 0.0
C231 C 0.09172 0.63412 0.06849 0.0
C232 C 0.0785 0.60246 0.02646 0.0
C233 C 0.12118 0.66716 0.05963 0.0
C234 C 0.33831 0.84725 0.92701 0.0
C235 C 0.36173 0.87863 0.97293 0.0
C236 C 0.3055 0.81907 0.93813 0.0
H237 H 0.08491 0.58063 0.94106 0.0
H238 H 0.13683 0.63895 0.92546 0.0
H239 H 0.36787 0.90506 0.06583 0.0
H240 H 0.30911 0.85535 0.08446 0.0
C241 C 0.09397 0.60481 0.97312 0.0
C242 C 0.12386 0.63797 0.96469 0.0
C243 C 0.3505 0.88147 0.02943 0.0
C244 C 0.31712 0.85305 0.04026 0.0
C245 C 0.13816 0.66902 0.00905 0.0
C246 C 0.17168 0.7022 0.00614 0.0
C247 C 0.19958 0.73066 0.00627 0.0
C248 C 0.29484 0.82157 -0.00512 0.0
C249 C 0.26125 0.79115 0.0055 0.0
C250 C 0.23277 0.76377 0.00752 0.0
H251 H 0.08054 0.63288 0.11039 0.0
H252 H 0.13183 0.69089 0.09422 0.0
H253 H 0.34579 0.84372 0.88289 0.0
H254 H 0.28871 0.79497 0.90263 0.0
C255 C 0.49231 0.34667 0.98709 0.0
C256 C 0.4647 0.35591 0.98011 0.0
C257 C 0.48308 0.31107 0.97164 0.0
C258 C 0.43824 0.06948 0.95465 0.0
C259 C 0.46539 0.07724 0.01289 0.0
C260 C 0.4297 0.09602 0.93311 0.0
H261 H 0.40564 0.33485 0.94778 0.0
H262 H 0.38936 0.27176 0.91934 0.0
H263 H 0.50618 0.11979 0.09175 0.0
H264 H 0.49147 0.16532 0.05389 0.0
C265 C 0.42753 0.32873 0.95322 0.0
C266 C 0.41824 0.29269 0.93748 0.0
C267 C 0.48443 0.11234 0.04759 0.0
C268 C 0.47624 0.13867 0.02583 0.0
C269 C 0.44602 0.28361 0.94831 0.0
C270 C 0.43741 0.24632 0.94052 0.0
C271 C 0.43521 0.21707 0.93706 0.0
C272 C 0.44862 0.13073 0.96896 0.0
C273 C 0.44004 0.15855 0.94946 0.0
C274 C 0.43639 0.18455 0.94035 0.0
H275 H 0.52129 0.36686 0.0073 0.0
H276 H 0.50498 0.30481 0.98027 0.0
H277 H 0.42332 0.04292 0.92648 0.0
H278 H 0.40828 0.08939 0.88882 0.0
loop_
_geom_bond_atom_site_label_1
_geom_bond_atom_site_label_2
_geom_bond_distance
_geom_bond_site_symmetry_2
_ccdc_geom_bond_type
O0 Mg1 1.990 . S
O0 C14 1.253 . S
Mg1 O0 1.990 . S
Mg1 O4 2.180 1_655 S
Mg1 O5 2.117 . S
Mg1 O19 2.030 . S
O2 Mg3 2.072 1_655 S
O2 C14 1.260 1_554 S
Mg3 O2 2.072 1_455 S
Mg3 O4 2.099 1_554 S
Mg3 O6 2.079 . S
Mg3 O7 2.072 1_554 S
Mg3 O9 2.099 . S
Mg3 O20 2.079 1_455 S
O4 Mg1 2.180 1_455 S
O4 Mg3 2.099 1_556 S
O4 C15 1.279 . S
O5 Mg1 2.117 . S
O5 C15 1.250 1_655 S
O6 Mg3 2.079 . S
O6 C16 1.264 . S
O7 Mg3 2.072 1_556 S
O7 C17 1.260 1_556 S
Mg8 O9 2.180 . S
Mg8 O10 2.030 . S
Mg8 O11 1.990 . S
Mg8 O12 2.117 . S
O9 Mg3 2.099 . S
O9 Mg8 2.180 . S
O9 C18 1.279 . S
O10 Mg8 2.030 . S
O10 C16 1.248 . S
O11 Mg8 1.990 . S
O11 C17 1.253 . S
O12 Mg8 2.117 . S
O12 C18 1.250 . S
C13 O19 1.248 . S
C13 O20 1.264 1_556 S
C14 O0 1.253 . S
C14 O2 1.260 1_556 S
C15 O4 1.279 . S
C15 O5 1.250 1_455 S
C16 O6 1.264 . S
C16 O10 1.248 . S
C17 O7 1.260 1_554 S
C17 O11 1.253 . S
C18 O9 1.279 . S
C18 O12 1.250 . S
O19 Mg1 2.030 . S
O19 C13 1.248 . S
O20 Mg3 2.079 1_655 S
O20 C13 1.264 1_554 S
O21 Mg22 1.990 . S
O21 C35 1.253 1_556 S
Mg22 O21 1.990 . S
Mg22 O25 2.180 . S
Mg22 O26 2.117 . S
Mg22 O40 2.030 . S
O23 Mg24 2.072 1_565 S
O23 C35 1.260 . S
Mg24 O23 2.072 1_545 S
Mg24 O25 2.099 1_544 S
Mg24 O27 2.077 1_554 S
Mg24 O28 2.072 . S
Mg24 O30 2.099 . S
Mg24 O41 2.079 1_545 S
O25 Mg22 2.180 . S
O25 Mg24 2.099 1_566 S
O25 C36 1.279 . S
O26 Mg22 2.117 . S
O26 C36 1.250 . S
O27 Mg24 2.077 1_556 S
O27 C37 1.261 1_556 S
O28 Mg24 2.072 . S
O28 C38 1.260 . S
Mg29 O30 2.180 . S
Mg29 O31 2.030 . S
Mg29 O32 1.990 . S
Mg29 O33 2.117 . S
O30 Mg24 2.099 . S
O30 Mg29 2.180 . S
O30 C39 1.279 . S
O31 Mg29 2.030 . S
O31 C37 1.248 . S
O32 Mg29 1.990 . S
O32 C38 1.253 . S
O33 Mg29 2.117 . S
O33 C39 1.250 . S
C34 O40 1.248 . S
C34 O41 1.264 1_556 S
C35 O21 1.253 1_554 S
C35 O23 1.260 . S
C36 O25 1.279 . S
C36 O26 1.250 . S
C37 O27 1.261 1_554 S
C37 O31 1.248 . S
C38 O28 1.260 . S
C38 O32 1.253 . S
C39 O30 1.279 . S
C39 O33 1.250 . S
O40 Mg22 2.030 . S
O40 C34 1.248 . S
O41 Mg24 2.079 1_565 S
O41 C34 1.264 1_554 S
O42 Mg43 1.990 . S
O42 C56 1.253 . S
Mg43 O42 1.990 . S
Mg43 O46 2.180 . S
Mg43 O47 2.117 . S
Mg43 O61 2.030 . S
O44 Mg45 2.072 . S
O44 C56 1.260 1_554 S
Mg45 O44 2.072 . S
Mg45 O46 2.099 1_554 S
Mg45 O48 2.079 . S
Mg45 O49 2.072 1_554 S
Mg45 O51 2.099 . S
Mg45 O62 2.079 . S
O46 Mg43 2.180 . S
O46 Mg45 2.099 1_556 S
O46 C57 1.279 . S
O47 Mg43 2.117 . S
O47 C57 1.250 . S
O48 Mg45 2.079 . S
O48 C58 1.264 . S
O49 Mg45 2.072 1_556 S
O49 C59 1.260 1_556 S
Mg50 O51 2.180 . S
Mg50 O52 2.030 . S
Mg50 O53 1.990 . S
Mg50 O54 2.117 . S
O51 Mg45 2.099 . S
O51 Mg50 2.180 . S
O51 C60 1.279 . S
O52 Mg50 2.030 . S
O52 C58 1.248 . S
O53 Mg50 1.990 . S
O53 C59 1.253 . S
O54 Mg50 2.117 . S
O54 C60 1.250 . S
C55 O61 1.248 1_554 S
C55 O62 1.264 . S
C56 O42 1.253 . S
C56 O44 1.260 1_556 S
C57 O46 1.279 . S
C57 O47 1.250 . S
C58 O48 1.264 . S
C58 O52 1.248 . S
C59 O49 1.260 1_554 S
C59 O53 1.253 . S
C60 O51 1.279 . S
C60 O54 1.250 . S
O61 Mg43 2.030 . S
O61 C55 1.248 1_556 S
O62 Mg45 2.079 . S
O62 C55 1.264 . S
C63 C64 1.332 . S
C63 C65 1.345 . S
C63 H83 0.932 1_455 S
C64 C63 1.332 . S
C64 C73 1.332 . S
C65 C63 1.345 . S
C65 C77 1.334 . S
C65 H84 0.928 1_455 S
C66 C67 1.332 . S
C66 C68 1.345 . S
C66 H85 0.932 . S
C67 C66 1.332 . S
C67 C75 1.332 . S
C68 C66 1.345 . S
C68 C80 1.334 . S
C68 H86 0.928 . S
H69 C73 0.932 . S
H70 C74 0.928 . S
H71 C75 0.932 1_655 S
H72 C76 0.928 1_655 S
C73 C64 1.332 . S
C73 H69 0.932 . S
C73 C74 1.345 . S
C74 H70 0.928 . S
C74 C73 1.345 . S
C74 C77 1.334 . S
C75 C67 1.332 . S
C75 H71 0.932 1_455 S
C75 C76 1.345 . S
C76 H72 0.928 1_455 S
C76 C75 1.345 . S
C76 C80 1.334 . S
C77 C65 1.334 . S
C77 C74 1.334 . S
C77 C78 1.487 . S
C78 C77 1.487 . S
C78 C79 1.185 . S
C79 C78 1.185 . S
C79 C82 1.482 . S
C80 C68 1.334 . S
C80 C76 1.334 . S
C80 C81 1.487 . S
C81 C80 1.487 . S
C81 C82 1.185 . S
C82 C79 1.482 . S
C82 C81 1.185 . S
H83 C63 0.932 1_655 S
H84 C65 0.928 1_655 S
H85 C66 0.932 . S
H86 C68 0.928 . S
C87 C88 1.332 . S
C87 C89 1.345 . S
C87 H107 0.932 . S
C88 C87 1.332 . S
C88 C97 1.332 1_545 S
C89 C87 1.345 . S
C89 C101 1.334 . S
C89 H108 0.928 . S
C90 C91 1.332 1_565 S
C90 C92 1.345 . S
C90 H109 0.932 . S
C91 C90 1.332 1_545 S
C91 C99 1.332 . S
C92 C90 1.345 . S
C92 C104 1.334 1_565 S
C92 H110 0.928 . S
H93 C97 0.932 . S
H94 C98 0.928 . S
H95 C99 0.932 . S
H96 C100 0.928 . S
C97 C88 1.332 1_565 S
C97 H93 0.932 . S
C97 C98 1.345 . S
C98 H94 0.928 . S
C98 C97 1.345 . S
C98 C101 1.334 1_565 S
C99 C91 1.332 . S
C99 H95 0.932 . S
C99 C100 1.345 . S
C100 H96 0.928 . S
C100 C99 1.345 . S
C100 C104 1.334 . S
C101 C89 1.334 . S
C101 C98 1.334 1_545 S
C101 C102 1.487 . S
C102 C101 1.487 . S
C102 C103 1.185 . S
C103 C102 1.185 . S
C103 C106 1.482 . S
C104 C92 1.334 1_545 S
C104 C100 1.334 . S
C104 C105 1.487 . S
C105 C104 1.487 . S
C105 C106 1.185 . S
C106 C103 1.482 . S
C106 C105 1.185 . S
H107 C87 0.932 . S
H108 C89 0.928 . S
H109 C90 0.932 . S
H110 C92 0.928 . S
C111 C112 1.332 . S
C111 C113 1.345 . S
C111 H131 0.932 . S
C112 C111 1.332 . S
C112 C121 1.332 . S
C113 C111 1.345 . S
C113 C125 1.334 . S
C113 H132 0.928 . S
C114 C115 1.332 . S
C114 C116 1.345 . S
C114 H133 0.932 . S
C115 C114 1.332 . S
C115 C123 1.332 . S
C116 C114 1.345 . S
C116 C128 1.334 . S
C116 H134 0.928 . S
H117 C121 0.932 . S
H118 C122 0.928 . S
H119 C123 0.932 . S
H120 C124 0.928 . S
C121 C112 1.332 . S
C121 H117 0.932 . S
C121 C122 1.345 . S
C122 H118 0.928 . S
C122 C121 1.345 . S
C122 C125 1.334 . S
C123 C115 1.332 . S
C123 H119 0.932 . S
C123 C124 1.345 . S
C124 H120 0.928 . S
C124 C123 1.345 . S
C124 C128 1.334 . S
C125 C113 1.334 . S
C125 C122 1.334 . S
C125 C126 1.487 . S
C126 C125 1.487 . S
C126 C127 1.185 . S
C127 C126 1.185 . S
C127 C130 1.482 . S
C128 C116 1.334 . S
C128 C124 1.334 . S
C128 C129 1.487 . S
C129 C128 1.487 . S
C129 C130 1.185 . S
C130 C127 1.482 . S
C130 C129 1.185 . S
H131 C111 0.932 . S
H132 C113 0.928 . S
H133 C114 0.932 . S
H134 C116 0.928 . S
C135 C136 1.332 . S
C135 C137 1.345 . S
C135 H155 0.932 . S
C136 C135 1.332 . S
C136 C145 1.332 1_554 S
C137 C135 1.345 . S
C137 C149 1.334 . S
C137 H156 0.928 . S
C138 C139 1.332 1_556 S
C138 C140 1.345 . S
C138 H157 0.932 . S
C139 C138 1.332 1_554 S
C139 C147 1.332 . S
C140 C138 1.345 . S
C140 C152 1.334 1_556 S
C140 H158 0.928 . S
H141 C145 0.932 . S
H142 C146 0.928 . S
H143 C147 0.932 . S
H144 C148 0.928 . S
C145 C136 1.332 1_556 S
C145 H141 0.932 . S
C145 C146 1.345 . S
C146 H142 0.928 . S
C146 C145 1.345 . S
C146 C149 1.334 1_556 S
C147 C139 1.332 . S
C147 H143 0.932 . S
C147 C148 1.345 . S
C148 H144 0.928 . S
C148 C147 1.345 . S
C148 C152 1.334 . S
C149 C137 1.334 . S
C149 C146 1.334 1_554 S
C149 C150 1.487 . S
C150 C149 1.487 . S
C150 C151 1.185 . S
C151 C150 1.185 . S
C151 C154 1.482 . S
C152 C140 1.334 1_554 S
C152 C148 1.334 . S
C152 C153 1.487 . S
C153 C152 1.487 . S
C153 C154 1.185 . S
C154 C151 1.482 . S
C154 C153 1.185 . S
H155 C135 0.932 . S
H156 C137 0.928 . S
H157 C138 0.932 . S
H158 C140 0.928 . S
C159 C160 1.332 1_556 S
C159 C161 1.345 . S
C159 H179 0.932 . S
C160 C159 1.332 1_554 S
C160 C169 1.332 . S
C161 C159 1.345 . S
C161 C173 1.334 1_556 S
C161 H180 0.928 . S
C162 C163 1.332 . S
C162 C164 1.345 . S
C162 H181 0.932 . S
C163 C162 1.332 . S
C163 C171 1.332 1_554 S
C164 C162 1.345 . S
C164 C176 1.334 . S
C164 H182 0.928 . S
H165 C169 0.932 . S
H166 C170 0.928 . S
H167 C171 0.932 . S
H168 C172 0.928 . S
C169 C160 1.332 . S
C169 H165 0.932 . S
C169 C170 1.345 . S
C170 H166 0.928 . S
C170 C169 1.345 . S
C170 C173 1.334 . S
C171 C163 1.332 1_556 S
C171 H167 0.932 . S
C171 C172 1.345 . S
C172 H168 0.928 . S
C172 C171 1.345 . S
C172 C176 1.334 1_556 S
C173 C161 1.334 1_554 S
C173 C170 1.334 . S
C173 C174 1.487 . S
C174 C173 1.487 . S
C174 C175 1.185 . S
C175 C174 1.185 . S
C175 C178 1.482 . S
C176 C164 1.334 . S
C176 C172 1.334 1_554 S
C176 C177 1.487 . S
C177 C176 1.487 . S
C177 C178 1.185 . S
C178 C175 1.482 . S
C178 C177 1.185 . S
H179 C159 0.932 . S
H180 C161 0.928 . S
H181 C162 0.932 . S
H182 C164 0.928 . S
C183 C184 1.332 1_556 S
C183 C185 1.345 . S
C183 H203 0.932 . S
C184 C183 1.332 1_554 S
C184 C193 1.332 . S
C185 C183 1.345 . S
C185 C197 1.334 1_556 S
C185 H204 0.928 . S
C186 C187 1.332 . S
C186 C188 1.345 . S
C186 H205 0.932 . S
C187 C186 1.332 . S
C187 C195 1.332 1_554 S
C188 C186 1.345 . S
C188 C200 1.334 . S
C188 H206 0.928 . S
H189 C193 0.932 . S
H190 C194 0.928 . S
H191 C195 0.932 . S
H192 C196 0.928 . S
C193 C184 1.332 . S
C193 H189 0.932 . S
C193 C194 1.345 . S
C194 H190 0.928 . S
C194 C193 1.345 . S
C194 C197 1.334 . S
C195 C187 1.332 1_556 S
C195 H191 0.932 . S
C195 C196 1.345 . S
C196 H192 0.928 . S
C196 C195 1.345 . S
C196 C200 1.334 1_556 S
C197 C185 1.334 1_554 S
C197 C194 1.334 . S
C197 C198 1.487 . S
C198 C197 1.487 . S
C198 C199 1.185 . S
C199 C198 1.185 . S
C199 C202 1.482 . S
C200 C188 1.334 . S
C200 C196 1.334 1_554 S
C200 C201 1.487 . S
C201 C200 1.487 . S
C201 C202 1.185 . S
C202 C199 1.482 . S
C202 C201 1.185 . S
H203 C183 0.932 . S
H204 C185 0.928 . S
H205 C186 0.932 . S
H206 C188 0.928 . S
C207 C208 1.332 1_556 S
C207 C209 1.345 . S
C207 H227 0.932 . S
C208 C207 1.332 1_554 S
C208 C217 1.332 . S
C209 C207 1.345 . S
C209 C221 1.334 1_556 S
C209 H228 0.928 . S
C210 C211 1.332 . S
C210 C212 1.345 . S
C210 H229 0.932 . S
C211 C210 1.332 . S
C211 C219 1.332 1_554 S
C212 C210 1.345 . S
C212 C224 1.334 . S
C212 H230 0.928 . S
H213 C217 0.932 . S
H214 C218 0.928 . S
H215 C219 0.932 . S
H216 C220 0.928 . S
C217 C208 1.332 . S
C217 H213 0.932 . S
C217 C218 1.345 . S
C218 H214 0.928 . S
C218 C217 1.345 . S
C218 C221 1.334 . S
C219 C211 1.332 1_556 S
C219 H215 0.932 . S
C219 C220 1.345 . S
C220 H216 0.928 . S
C220 C219 1.345 . S
C220 C224 1.334 1_556 S
C221 C209 1.334 1_554 S
C221 C218 1.334 . S
C221 C222 1.487 . S
C222 C221 1.487 . S
C222 C223 1.185 . S
C223 C222 1.185 . S
C223 C226 1.482 . S
C224 C212 1.334 . S
C224 C220 1.334 1_554 S
C224 C225 1.487 . S
C225 C224 1.487 . S
C225 C226 1.185 . S
C226 C223 1.482 . S
C226 C225 1.185 . S
H227 C207 0.932 . S
H228 C209 0.928 . S
H229 C210 0.932 . S
H230 C212 0.928 . S
C231 C232 1.332 . S
C231 C233 1.345 . S
C231 H251 0.932 . S
C232 C231 1.332 . S
C232 C241 1.332 1_554 S
C233 C231 1.345 . S
C233 C245 1.334 . S
C233 H252 0.928 . S
C234 C235 1.332 1_556 S
C234 C236 1.345 . S
C234 H253 0.932 . S
C235 C234 1.332 1_554 S
C235 C243 1.332 . S
C236 C234 1.345 . S
C236 C248 1.334 1_556 S
C236 H254 0.928 . S
H237 C241 0.932 . S
H238 C242 0.928 . S
H239 C243 0.932 . S
H240 C244 0.928 . S
C241 C232 1.332 1_556 S
C241 H237 0.932 . S
C241 C242 1.345 . S
C242 H238 0.928 . S
C242 C241 1.345 . S
C242 C245 1.334 1_556 S
C243 C235 1.332 . S
C243 H239 0.932 . S
C243 C244 1.345 . S
C244 H240 0.928 . S
C244 C243 1.345 . S
C244 C248 1.334 . S
C245 C233 1.334 . S
C245 C242 1.334 1_554 S
C245 C246 1.487 . S
C246 C245 1.487 . S
C246 C247 1.185 . S
C247 C246 1.185 . S
C247 C250 1.482 . S
C248 C236 1.334 1_554 S
C248 C244 1.334 . S
C248 C249 1.487 . S
C249 C248 1.487 . S
C249 C250 1.185 . S
C250 C247 1.482 . S
C250 C249 1.185 . S
H251 C231 0.932 . S
H252 C233 0.928 . S
H253 C234 0.932 . S
H254 C236 0.928 . S
C255 C256 1.332 1_554 S
C255 C257 1.345 . S
C255 H275 0.932 . S
C256 C255 1.332 1_556 S
C256 C265 1.332 . S
C257 C255 1.345 . S
C257 C269 1.334 1_554 S
C257 H276 0.928 . S
C258 C259 1.332 . S
C258 C260 1.345 . S
C258 H277 0.932 . S
C259 C258 1.332 . S
C259 C267 1.332 1_556 S
C260 C258 1.345 . S
C260 C272 1.334 . S
C260 H278 0.928 . S
H261 C265 0.932 . S
H262 C266 0.928 . S
H263 C267 0.932 . S
H264 C268 0.928 . S
C265 C256 1.332 . S
C265 H261 0.932 . S
C265 C266 1.345 . S
C266 H262 0.928 . S
C266 C265 1.345 . S
C266 C269 1.334 . S
C267 C259 1.332 1_554 S
C267 H263 0.932 . S
C267 C268 1.345 . S
C268 H264 0.928 . S
C268 C267 1.345 . S
C268 C272 1.334 1_554 S
C269 C257 1.334 1_556 S
C269 C266 1.334 . S
C269 C270 1.487 . S
C270 C269 1.487 . S
C270 C271 1.185 . S
C271 C270 1.185 . S
C271 C274 1.482 . S
C272 C260 1.334 . S
C272 C268 1.334 1_556 S
C272 C273 1.487 . S
C273 C272 1.487 . S
C273 C274 1.185 . S
C274 C271 1.482 . S
C274 C273 1.185 . S
H275 C255 0.932 . S
H276 C257 0.928 . S
H277 C258 0.932 . S
H278 C260 0.928 . S
C64 C15 1.292 . S
C67 C18 1.292 . S
C88 C39 1.277 . S
C91 C36 1.277 1_545 S
C112 C57 1.277 . S
C115 C60 1.277 . S
C136 C17 1.076 . S
C139 C56 1.077 1_554 S
C160 C38 1.077 . S
C163 C14 1.076 1_554 S
C184 C35 1.052 . S
C187 C55 1.056 . S
C208 C13 1.033 1_554 S
C211 C58 1.034 . S
C232 C16 1.033 . S
C235 C34 1.034 1_554 S
C256 C59 1.052 1_556 S
C259 C37 1.056 1_556 S
