# Generated by pormake.
# Topology mok, (4)-cn, num edge types: 1
# Building blocks:
#     Node 0, Type 0, BuildingBlock: KUFVIS_clean_sbu_0, # of connection points: 4
#     Node 1, Type 0, BuildingBlock: KUFVIS_clean_sbu_0, # of connection points: 4
#     Node 2, Type 0, BuildingBlock: KUFVIS_clean_sbu_0, # of connection points: 4
#     Node 3, Type 0, BuildingBlock: KUFVIS_clean_sbu_0, # of connection points: 4
#     Node 4, Type 0, BuildingBlock: KUFVIS_clean_sbu_0, # of connection points: 4
#     Node 5, Type 0, BuildingBlock: KUFVIS_clean_sbu_0, # of connection points: 4
#     Node 6, Type 0, BuildingBlock: KUFVIS_clean_sbu_0, # of connection points: 4
#     Node 7, Type 0, BuildingBlock: KUFVIS_clean_sbu_0, # of connection points: 4
#     Edge 8, Type (0, 0), BuildingBlock: AJUNOK_clean_linker_0, # of connection points: 2
#     Edge 9, Type (0, 0), BuildingBlock: AJUNOK_clean_linker_0, # of connection points: 2
#     Edge 10, Type (0, 0), BuildingBlock: AJUNOK_clean_linker_0, # of connection points: 2
#     Edge 11, Type (0, 0), BuildingBlock: AJUNOK_clean_linker_0, # of connection points: 2
#     Edge 12, Type (0, 0), BuildingBlock: AJUNOK_clean_linker_0, # of connection points: 2
#     Edge 13, Type (0, 0), BuildingBlock: AJUNOK_clean_linker_0, # of connection points: 2
#     Edge 14, Type (0, 0), BuildingBlock: AJUNOK_clean_linker_0, # of connection points: 2
#     Edge 15, Type (0, 0), BuildingBlock: AJUNOK_clean_linker_0, # of connection points: 2
#     Edge 16, Type (0, 0), BuildingBlock: AJUNOK_clean_linker_0, # of connection points: 2
#     Edge 17, Type (0, 0), BuildingBlock: AJUNOK_clean_linker_0, # of connection points: 2
#     Edge 18, Type (0, 0), BuildingBlock: AJUNOK_clean_linker_0, # of connection points: 2
#     Edge 19, Type (0, 0), BuildingBlock: AJUNOK_clean_linker_0, # of connection points: 2
#     Edge 20, Type (0, 0), BuildingBlock: AJUNOK_clean_linker_0, # of connection points: 2
#     Edge 21, Type (0, 0), BuildingBlock: AJUNOK_clean_linker_0, # of connection points: 2
#     Edge 22, Type (0, 0), BuildingBlock: AJUNOK_clean_linker_0, # of connection points: 2
#     Edge 23, Type (0, 0), BuildingBlock: AJUNOK_clean_linker_0, # of connection points: 2
# Relax obj value: 0.031
# Max RMSD: 0.053
# Mean RMSD: 0.053
data_MOF--net-mok--node1-KUFVIS_clean_sbu_0--edge1-AJUNOK_clean_linker_0
_symmetry_space_group_name_H-M    P1
_symmetry_Int_Tables_number       1
_symmetry_cell_setting            triclinic
loop_
_symmetry_equiv_pos_as_xyz
'x, y, z'
_cell_length_a     42.087472
_cell_length_b     11.718051
_cell_length_c     18.353607
_cell_angle_alpha  89.628944
_cell_angle_beta   90.748417
_cell_angle_gamma 89.768273
loop_
_atom_site_label
_atom_site_type_symbol
_atom_site_fract_x
_atom_site_fract_y
_atom_site_fract_z
_atom_type_partial_charge
Mn0 Mn 0.6031 0.32006 1.02492 0.0
Mn1 Mn 0.5374 0.45157 0.03426 0.0
C2 C 0.58291 0.40113 0.91072 0.0
C3 C 0.65873 0.32956 0.03203 0.0
C4 C 0.5397 0.19798 0.06672 0.0
O5 O 0.60136 0.38014 0.13423 0.0
O6 O 0.56164 0.50498 0.11833 0.0
C7 C 0.55638 0.70119 1.00839 0.0
N8 N 0.53589 0.61211 1.00305 0.0
C9 C 0.4958 0.75851 0.93557 0.0
C10 C 0.51957 0.83962 0.94352 0.0
C11 C 0.54877 0.81111 0.97884 0.0
C12 C 0.50671 0.63015 0.98052 0.0
H13 H 0.57961 0.68724 0.03287 0.0
C14 C 0.58522 0.46765 0.1554 0.0
O15 O 0.64376 0.23504 0.04557 0.0
O16 O 0.64142 0.41655 1.01433 0.0
N17 N 0.51202 0.39463 0.95398 0.0
C18 C 0.51042 0.29408 0.89032 0.0
C19 C 0.48052 0.29059 0.81571 0.0
C20 C 0.44808 0.39179 0.80215 0.0
C21 C 0.4437 0.51363 0.8602 0.0
C22 C 0.4897 0.50194 0.96415 0.0
H23 H 0.51669 0.34544 0.93513 0.0
O24 O 0.60079 0.31058 0.91201 0.0
O25 O 0.57582 0.43232 0.97698 0.0
O26 O 0.56758 0.18629 0.03904 0.0
O27 O 0.53029 0.2985 0.07944 0.0
C28 C 0.43951 0.66106 0.82965 0.0
C29 C 0.46444 0.77523 0.8663 0.0
H30 H 0.51665 0.92279 0.91829 0.0
H31 H 0.56675 0.87669 0.98238 0.0
H32 H 0.48144 0.2195 0.77947 0.0
H33 H 0.43093 0.37798 0.75957 0.0
H34 H 0.42572 0.68043 0.78141 0.0
H35 H 0.46112 0.85883 0.84308 0.0
Mn36 Mn 0.36401 0.7535 0.08273 0.0
Mn37 Mn 0.4211 0.57013 0.0852 0.0
C38 C 0.37618 0.66252 0.9706 0.0
C39 C 0.30725 0.75465 0.07615 0.0
C40 C 0.43623 0.82996 0.09711 0.0
O41 O 0.36434 0.69875 0.1911 0.0
O42 O 0.40608 0.58157 0.18547 0.0
C43 C 0.3768 0.38279 0.11553 0.0
N44 N 0.4022 0.42418 0.0783 0.0
C45 C 0.40718 0.25214 1.01214 0.0
C46 C 0.3817 0.20553 0.05072 0.0
C47 C 0.36618 0.27191 0.10233 0.0
C48 C 0.41634 0.36336 1.02599 0.0
H49 H 0.36404 0.43476 0.15333 0.0
C50 C 0.38226 0.62066 0.21906 0.0
O51 O 0.32263 0.84803 0.08968 0.0
O52 O 0.32434 0.66564 0.07345 0.0
N53 N 0.43634 0.54379 0.99186 0.0
C54 C 0.45208 0.6341 0.95221 0.0
C55 C 0.49053 0.59843 0.86014 0.0
C56 C 0.49451 0.4739 0.84673 0.0
C57 C 0.45897 0.35979 0.92543 0.0
C58 C 0.43685 0.42216 0.98097 0.0
H59 H 0.44354 0.71537 0.97278 0.0
O60 O 0.36443 0.76431 0.97091 0.0
O61 O 0.38324 0.6266 0.03635 0.0
O62 O 0.40627 0.85831 0.09253 0.0
O63 O 0.44414 0.72345 0.09566 0.0
C64 C 0.45124 0.23534 0.93071 0.0
C65 C 0.42417 0.18997 0.96256 0.0
H66 H 0.37384 0.11894 0.04095 0.0
H67 H 0.34612 0.23799 0.13162 0.0
H68 H 0.50649 0.65279 0.82856 0.0
H69 H 0.51231 0.45327 0.80552 0.0
H70 H 0.46468 0.16594 0.90723 0.0
H71 H 0.41857 0.10066 0.95403 0.0
Mn72 Mn 0.61527 0.84178 0.55742 0.0
Mn73 Mn 0.55194 0.72079 0.51004 0.0
C74 C 0.59032 0.73207 0.65223 0.0
C75 C 0.67067 0.84069 0.56887 0.0
C76 C 0.54663 0.95887 0.54909 0.0
O77 O 0.62318 0.80404 0.44578 0.0
O78 O 0.57302 0.80515 0.43271 0.0
C79 C 0.58997 0.52482 0.44817 0.0
N80 N 0.56272 0.5742 0.47191 0.0
C81 C 0.53178 0.41086 0.44003 0.0
C82 C 0.55834 0.36502 0.40472 0.0
C83 C 0.58801 0.41954 0.41195 0.0
C84 C 0.53585 0.51427 0.47533 0.0
H85 H 0.61261 0.56673 0.45509 0.0
C86 C 0.59932 0.7814 0.40585 0.0
O87 O 0.65516 0.93642 0.56135 0.0
O88 O 0.65401 0.74919 0.57343 0.0
N89 N 0.52612 0.65082 0.57394 0.0
C90 C 0.51466 0.70699 0.64639 0.0
C91 C 0.48345 0.66895 0.69544 0.0
C92 C 0.46065 0.55664 0.67107 0.0
C93 C 0.48402 0.47384 0.54616 0.0
C94 C 0.51517 0.55148 0.5256 0.0
H95 H 0.52697 0.78143 0.66587 0.0
O96 O 0.60575 0.82554 0.66561 0.0
O97 O 0.58756 0.71135 0.58194 0.0
O98 O 0.57722 0.97408 0.54518 0.0
O99 O 0.53621 0.86061 0.54575 0.0
C100 C 0.47831 0.38767 0.4927 0.0
C101 C 0.50213 0.35586 0.44278 0.0
H102 H 0.55673 0.28449 0.37629 0.0
H103 H 0.60909 0.38129 0.38923 0.0
H104 H 0.4764 0.72849 0.7355 0.0
H105 H 0.43846 0.54081 0.69907 0.0
H106 H 0.45663 0.34198 0.48931 0.0
H107 H 0.49774 0.2845 0.407 0.0
Mn108 Mn 0.35211 0.23467 0.60488 0.0
Mn109 Mn 0.39209 0.4215 0.54646 0.0
C110 C 0.36633 0.35629 0.70799 0.0
C111 C 0.29616 0.22477 0.58984 0.0
C112 C 0.4158 0.16958 0.56183 0.0
O113 O 0.35352 0.23228 0.48701 0.0
O114 O 0.34965 0.4045 0.50799 0.0
C115 C 0.35268 0.63194 0.54577 0.0
N116 N 0.38154 0.57931 0.55408 0.0
C117 C 0.40904 0.75445 0.53141 0.0
C118 C 0.37967 0.81072 0.52326 0.0
C119 C 0.35137 0.74935 0.53097 0.0
C120 C 0.40874 0.63734 0.54499 0.0
H121 H 0.33077 0.58477 0.55027 0.0
C122 C 0.3469 0.33029 0.4618 0.0
O123 O 0.31317 0.1316 0.593 0.0
O124 O 0.31125 0.31703 0.60106 0.0
N125 N 0.43149 0.45299 0.58522 0.0
C126 C 0.45229 0.36545 0.63064 0.0
C127 C 0.4895 0.38213 0.66102 0.0
C128 C 0.50838 0.50446 0.64818 0.0
C129 C 0.46995 0.64642 0.57099 0.0
C130 C 0.43597 0.5765 0.55715 0.0
H131 H 0.44121 0.29022 0.65101 0.0
O132 O 0.35198 0.25976 0.71506 0.0
O133 O 0.37583 0.37463 0.64127 0.0
O134 O 0.39466 0.13908 0.60794 0.0
O135 O 0.40991 0.26016 0.52358 0.0
C136 C 0.46723 0.76375 0.54911 0.0
C137 C 0.43794 0.81329 0.52837 0.0
H138 H 0.37857 0.90171 0.5125 0.0
H139 H 0.32865 0.7922 0.52497 0.0
H140 H 0.50223 0.31231 0.68632 0.0
H141 H 0.53162 0.51435 0.67222 0.0
H142 H 0.48559 0.82372 0.55435 0.0
H143 H 0.4375 0.90298 0.51466 0.0
Mn144 Mn 0.11872 0.72594 0.99044 0.0
Mn145 Mn 0.05726 0.85792 1.01884 0.0
C146 C 0.0967 0.82402 0.8831 0.0
C147 C 0.1741 0.71818 0.99034 0.0
C148 C 0.04857 0.62011 0.9981 0.0
O149 O 0.12633 0.77782 0.10018 0.0
O150 O 0.07702 0.7701 0.0982 0.0
C151 C 0.10464 0.03557 0.06789 0.0
N152 N 0.07423 1.00141 0.0533 0.0
C153 C 0.05337 0.1822 0.08749 0.0
C154 C 0.08351 0.21371 0.11397 0.0
C155 C 0.10973 0.14257 0.10027 0.0
C156 C 0.05118 0.07908 0.05121 0.0
H157 H 0.12462 0.9804 0.05738 0.0
C158 C 0.10112 0.79871 0.13348 0.0
O159 O 0.15749 0.62618 1.0011 0.0
O160 O 0.15864 0.80947 0.97304 0.0
N161 N 0.02811 0.93824 0.96241 0.0
C162 C 0.00266 0.86509 0.9163 0.0
C163 C 0.96377 0.89551 0.90236 0.0
C164 C 0.94713 1.02054 0.93989 0.0
C165 C -0.00751 0.12608 1.01707 0.0
C166 C 0.02609 0.0518 1.00969 0.0
H167 H 0.02198 0.89753 0.9438 0.0
O168 O 0.11048 0.72486 0.8795 0.0
O169 O 0.09291 0.85705 0.95039 0.0
O170 O 0.07862 0.60436 1.0138 0.0
O171 O 0.04079 0.71658 0.97583 0.0
C172 C -0.0039 0.21954 0.0666 0.0
C173 C 0.02591 0.24821 0.09753 0.0
H174 H 0.08699 0.29394 0.14191 0.0
H175 H 0.13346 0.16851 0.11617 0.0
H176 H 0.95309 0.8148 0.8709 0.0
H177 H 0.9493 0.95014 0.913 0.0
H178 H 0.97647 0.26871 0.08474 0.0
H179 H 0.02741 0.32043 0.13337 0.0
Mn180 Mn 0.85239 0.32296 0.04342 0.0
Mn181 Mn 0.90704 0.16147 0.1038 0.0
C182 C 0.87105 0.19377 0.95168 0.0
C183 C 0.79692 0.3448 0.04071 0.0
C184 C 0.92091 0.40618 0.067 0.0
O185 O 0.84946 0.32793 0.15921 0.0
O186 O 0.87741 0.17206 0.18042 0.0
C187 C 0.87466 0.94343 0.13353 0.0
N188 N 0.9001 1.00232 0.10825 0.0
C189 C 0.93384 0.83901 0.11828 0.0
C190 C 0.90849 0.77636 0.14711 0.0
C191 C 0.87851 0.82835 0.15346 0.0
C192 C 0.9286 0.95363 0.1016 0.0
H193 H 0.852 0.98532 0.14 0.0
C194 C 0.85701 0.24228 0.19988 0.0
O195 O 0.81531 0.43362 0.03593 0.0
O196 O 0.81082 0.24728 0.04583 0.0
N197 N 0.93757 0.1387 0.03631 0.0
C198 C 0.94514 0.21964 0.96751 0.0
C199 C 0.97222 0.19073 0.90312 0.0
C200 C -0.00609 0.06804 0.90569 0.0
C201 C 0.97856 0.94856 1.02288 0.0
C202 C 0.95024 1.01868 0.06613 0.0
H203 H 0.93644 0.182 1.01408 0.0
O204 O 0.85601 0.28769 0.93744 0.0
O205 O 0.87452 0.17692 1.02318 0.0
O206 O 0.89474 0.42395 0.03179 0.0
O207 O 0.92137 0.32476 0.11309 0.0
C208 C -0.01428 0.84252 0.05887 0.0
C209 C 0.96357 0.79014 0.10482 0.0
H210 H 0.91146 0.68722 0.16187 0.0
H211 H 0.85865 0.78045 0.1744 0.0
H212 H 0.97559 0.25252 0.86037 0.0
H213 H 0.01048 0.04877 0.86494 0.0
H214 H 0.00744 0.7981 0.05305 0.0
H215 H 0.96907 0.70764 0.12756 0.0
Mn216 Mn 0.10586 0.24757 0.50909 0.0
Mn217 Mn 0.04697 0.07434 0.50143 0.0
C218 C 0.0928 0.14785 0.62037 0.0
C219 C 0.16203 0.25447 0.50975 0.0
C220 C 0.03357 0.33514 0.49603 0.0
O221 O 0.1057 0.20094 0.39871 0.0
O222 O 0.06141 0.09937 0.40219 0.0
C223 C 0.09154 0.89172 0.46222 0.0
N224 N 0.0657 0.92743 0.50024 0.0
C225 C 0.05949 0.74468 0.55368 0.0
C226 C 0.08535 0.70376 0.51389 0.0
C227 C 0.10181 0.7785 0.46855 0.0
C228 C 0.0511 0.85892 0.54784 0.0
H229 H 0.10487 0.94962 0.42904 0.0
C230 C 0.08525 0.13583 0.36794 0.0
O231 O 0.14524 0.34652 0.49841 0.0
O232 O 0.14633 0.16229 0.51719 0.0
N233 N 0.03094 0.03455 0.59194 0.0
C234 C 0.01512 0.11874 0.63697 0.0
C235 C 0.97875 0.06692 0.73025 0.0
C236 C 0.97511 0.94169 0.73616 0.0
C237 C 0.00906 0.84042 0.6487 0.0
C238 C 0.03054 0.91117 0.59571 0.0
H239 H 0.02269 0.20353 0.62017 0.0
O240 O 0.10534 0.24838 0.62182 0.0
O241 O 0.08529 0.11915 0.55343 0.0
O242 O 0.06387 0.35867 0.49866 0.0
O243 O 0.02483 0.22991 0.49892 0.0
C244 C 0.01516 0.71691 0.63295 0.0
C245 C 0.04119 0.67425 0.59573 0.0
H246 H 0.09266 0.6151 0.51764 0.0
H247 H 0.12215 0.74897 0.4384 0.0
H248 H 0.96339 0.11481 0.76694 0.0
H249 H 0.95571 0.91635 0.77103 0.0
H250 H 0.00161 0.64513 0.65304 0.0
H251 H 0.04575 0.58303 0.59637 0.0
Mn252 Mn 0.86412 0.80663 0.57588 0.0
Mn253 Mn 0.92693 0.94695 0.55667 0.0
C254 C 0.88563 0.88109 0.68822 0.0
C255 C 0.8085 0.80581 0.57433 0.0
C256 C 0.92726 0.69892 0.5217 0.0
O257 O 0.86194 0.87837 0.46856 0.0
O258 O 0.89869 1.01266 0.48322 0.0
C259 C 0.9092 0.19045 0.5992 0.0
N260 N 0.9301 0.10207 0.59596 0.0
C261 C 0.97135 0.23858 0.66639 0.0
C262 C 0.94646 0.31658 0.67008 0.0
C263 C 0.91673 0.29336 0.63626 0.0
C264 C 0.95995 0.1182 0.61437 0.0
H265 H 0.88586 0.18132 0.57475 0.0
C266 C 0.87403 0.97598 0.45082 0.0
O267 O 0.82465 0.71517 0.55722 0.0
O268 O 0.82468 0.8943 0.59305 0.0
N269 N 0.95567 0.87932 0.62702 0.0
C270 C 0.95833 0.76951 0.6851 0.0
C271 C -0.0103 0.75438 0.75642 0.0
C272 C 0.02234 0.85319 0.77201 0.0
C273 C 0.02562 0.98378 0.7206 0.0
C274 C 0.97776 0.98833 0.6206 0.0
H275 H 0.95132 0.8279 0.64392 0.0
O276 O 0.86927 0.78742 0.68699 0.0
O277 O 0.89071 0.91983 0.62203 0.0
O278 O 0.90158 0.68153 0.55743 0.0
O279 O 0.93197 0.80075 0.50105 0.0
C280 C 0.03015 0.12692 0.75872 0.0
C281 C 0.00407 0.24485 0.73249 0.0
H282 H 0.94936 0.39353 0.70172 0.0
H283 H 0.89836 0.3579 0.63974 0.0
H284 H -0.01104 0.67902 0.79069 0.0
H285 H 0.03938 0.83403 0.81424 0.0
H286 H 0.04504 0.14061 0.8058 0.0
H287 H 0.00679 0.32333 0.76257 0.0
C288 C 0.74518 0.2488 0.06079 0.0
C289 C 0.76173 0.34879 0.04135 0.0
C290 C 0.71201 0.2439 0.05827 0.0
C291 C 0.69384 0.3388 0.03626 0.0
H292 H 0.75792 0.17241 0.07774 0.0
H293 H 0.70062 0.16455 0.0732 0.0
S294 S 0.72534 0.62292 0.98217 0.0
N295 N 0.75739 0.54602 1.00121 0.0
N296 N 0.69482 0.53791 0.99648 0.0
C297 C 0.70997 0.44056 1.01811 0.0
C298 C 0.74394 0.44537 1.02076 0.0
C299 C 0.22036 0.82901 0.03826 0.0
C300 C 0.2082 0.72631 1.00928 0.0
C301 C 0.25228 0.83852 0.0608 0.0
C302 C 0.27316 0.74567 0.05487 0.0
H303 H 0.20491 0.90228 0.04494 0.0
H304 H 0.26055 0.9186 0.0831 0.0
S305 S 0.25339 0.46124 0.97578 0.0
N306 N 0.21959 0.53295 0.97227 0.0
N307 N 0.27949 0.54887 1.01277 0.0
C308 C 0.26123 0.64302 1.02425 0.0
C309 C 0.22878 0.63373 1.00202 0.0
C310 C 0.75784 0.91209 0.59518 0.0
C311 C 0.77334 0.81193 0.57169 0.0
C312 C 0.72463 0.92228 0.593 0.0
C313 C 0.70569 0.83225 0.56797 0.0
H314 H 0.77142 0.98356 0.61578 0.0
H315 H 0.71375 1.00019 0.61229 0.0
S316 S 0.73428 0.5559 0.49442 0.0
N317 N 0.76701 0.62386 0.51852 0.0
N318 N 0.70468 0.64232 0.51477 0.0
C319 C 0.72082 0.73249 0.54297 0.0
C320 C 0.75461 0.72243 0.54479 0.0
C321 C 0.21197 0.14354 0.53372 0.0
C322 C 0.19689 0.25062 0.52238 0.0
C323 C 0.24397 0.1348 0.55548 0.0
C324 C 0.2622 0.23281 0.56694 0.0
H325 H 0.19876 0.06502 0.52727 0.0
H326 H 0.25431 0.05093 0.56416 0.0
S327 S 0.23485 0.53371 0.53847 0.0
N328 N 0.20321 0.45595 0.52 0.0
N329 N 0.26322 0.44166 0.56029 0.0
C330 C 0.24767 0.34069 0.55322 0.0
C331 C 0.21511 0.34909 0.53095 0.0
C332 C 0.56584 0.5918 0.25542 0.0
C333 C 0.5919 0.53515 0.22416 0.0
C334 C 0.56944 0.67584 0.30876 0.0
C335 C 0.59936 0.70656 0.33821 0.0
H336 H 0.54185 0.57348 0.23687 0.0
H337 H 0.54785 0.71459 0.32873 0.0
S338 S 0.67607 0.57978 0.28022 0.0
N339 N 0.64943 0.51566 0.2277 0.0
N340 N 0.65614 0.66783 0.33312 0.0
C341 C 0.62599 0.64866 0.30937 0.0
C342 C 0.62229 0.56404 0.25217 0.0
C343 C 0.3931 0.46176 0.31019 0.0
C344 C 0.37219 0.54826 0.28321 0.0
C345 C 0.38343 0.37759 0.36046 0.0
C346 C 0.35229 0.37496 0.38695 0.0
H347 H 0.41752 0.45861 0.29237 0.0
H348 H 0.40115 0.31912 0.38243 0.0
S349 S 0.28782 0.57941 0.33619 0.0
N350 N 0.31829 0.62241 0.2874 0.0
N351 N 0.30056 0.46728 0.38328 0.0
C352 C 0.33099 0.45928 0.35988 0.0
C353 C 0.34078 0.5451 0.30845 0.0
C354 C 0.36865 0.46678 0.90781 0.0
C355 C 0.37224 0.5863 0.90286 0.0
C356 C 0.36778 0.3949 0.84548 0.0
C357 C 0.36876 0.4383 0.7732 0.0
H358 H 0.36515 0.42832 0.96039 0.0
H359 H 0.36594 0.30373 0.85434 0.0
S360 S 0.36345 0.74797 0.72856 0.0
N361 N 0.3667 0.74564 0.81832 0.0
N362 N 0.36472 0.61328 0.70271 0.0
C363 C 0.36785 0.55868 0.76754 0.0
C364 C 0.36881 0.63157 0.83144 0.0
C365 C 0.58322 0.60226 0.84899 0.0
C366 C 0.58229 0.48208 0.84234 0.0
C367 C 0.58427 0.67948 0.78839 0.0
C368 C 0.58634 0.64297 0.71507 0.0
H369 H 0.58567 0.63777 0.90204 0.0
H370 H 0.58465 0.77003 0.79979 0.0
S371 S 0.59118 0.33643 0.6636 0.0
N372 N 0.58659 0.33095 0.7529 0.0
N373 N 0.59201 0.4732 0.64108 0.0
C374 C 0.58826 0.5225 0.70716 0.0
C375 C 0.58542 0.44364 0.76928 0.0
C376 C 0.12477 0.93739 0.22882 0.0
C377 C 0.09819 0.88509 0.19482 0.0
C378 C 0.12123 0.02759 0.28 0.0
C379 C 0.091 0.07219 0.29778 0.0
H380 H 0.14848 0.90813 0.2161 0.0
H381 H 0.14218 0.05884 0.30818 0.0
S382 S 0.0138 0.97163 0.22164 0.0
N383 N 0.04038 0.88656 0.18504 0.0
N384 N 0.03435 0.06109 0.27235 0.0
C385 C 0.06459 0.02396 0.26129 0.0
C386 C 0.06795 0.92896 0.21313 0.0
C387 C 0.87225 0.17059 0.39007 0.0
C388 C 0.86034 0.05717 0.39336 0.0
C389 C 0.86478 0.24653 0.33236 0.0
C390 C 0.84504 0.21401 0.27395 0.0
H391 H 0.88931 0.20004 0.43034 0.0
H392 H 0.87797 0.32558 0.3288 0.0
S393 S 0.80056 0.9406 0.26419 0.0
N394 N 0.82252 0.92621 0.33904 0.0
N395 N 0.80826 0.06905 0.23123 0.0
C396 C 0.8293 0.10774 0.28198 0.0
C397 C 0.83721 0.02907 0.34061 0.0
C398 C 0.88772 0.91971 0.82931 0.0
C399 C 0.88306 0.95933 0.75626 0.0
C400 C 0.88295 0.99101 0.8923 0.0
C401 C 0.87525 0.10898 0.88653 0.0
H402 H 0.89468 0.83166 0.8382 0.0
H403 H 0.88603 0.95338 0.94597 0.0
S404 S 0.84428 0.23701 0.71237 0.0
N405 N 0.85712 0.11005 0.68783 0.0
N406 N 0.85343 0.24766 0.79956 0.0
C407 C 0.86727 0.14475 0.81385 0.0
C408 C 0.87014 0.07025 0.75109 0.0
C409 C 0.09797 0.86878 0.74343 0.0
C410 C 0.09774 0.90805 0.81665 0.0
C411 C 0.09773 0.9445 0.6815 0.0
C412 C 0.0964 0.06513 0.6875 0.0
H413 H 0.09785 0.77782 0.73347 0.0
H414 H 0.09945 0.90755 0.62827 0.0
S415 S 0.10731 0.2143 0.86509 0.0
N416 N 0.10424 0.07881 0.88929 0.0
N417 N 0.10453 0.21737 0.77517 0.0
C418 C 0.1011 0.10472 0.76003 0.0
C419 C 0.10088 0.02804 0.82339 0.0
C420 C 0.45725 0.03918 0.08455 0.0
C421 C 0.46351 0.92253 0.09799 0.0
C422 C 0.48167 0.12375 0.0762 0.0
C423 C 0.51486 0.09958 0.08015 0.0
H424 H 0.43277 0.06552 0.08185 0.0
H425 H 0.47425 0.21111 0.06723 0.0
S426 S 0.54425 0.82546 0.15843 0.0
N427 N 0.50616 0.79941 0.14324 0.0
N428 N 0.551 0.95595 0.12798 0.0
C429 C 0.52149 0.98672 0.10457 0.0
C430 C 0.49641 0.89992 0.1133 0.0
C431 C 0.50156 0.0821 0.49389 0.0
C432 C 0.51895 0.04522 0.55676 0.0
C433 C 0.46875 0.11762 0.49542 0.0
C434 C 0.45009 0.11622 0.55953 0.0
H435 H 0.513 0.0779 0.44147 0.0
H436 H 0.45758 0.1446 0.44468 0.0
S437 S 0.48075 1.00085 0.73597 0.0
N438 N 0.51223 0.9965 0.6837 0.0
N439 N 0.45163 0.05663 0.68607 0.0
C440 C 0.46657 0.07351 0.6219 0.0
C441 C 0.50021 0.0408 0.62067 0.0
C442 C -0.00479 0.52684 0.96253 0.0
C443 C 0.01935 0.5449 1.01658 0.0
C444 C 0.96352 0.48963 0.97872 0.0
C445 C 0.95303 0.46826 0.05074 0.0
H446 H 0.00066 0.54496 0.90614 0.0
H447 H 0.94722 0.47514 0.93363 0.0
S448 S 0.00394 0.51927 0.21527 0.0
N449 N 0.02772 0.55194 0.1473 0.0
N450 N 0.9701 0.47729 0.17754 0.0
C451 C 0.9766 0.48895 0.1056 0.0
C452 C 0.00876 0.52856 0.0889 0.0
C453 C 0.97538 0.40559 0.52062 0.0
C454 C 0.0064 0.42985 0.4947 0.0
C455 C 0.95043 0.48956 0.52808 0.0
C456 C 0.95349 0.60484 0.5064 0.0
H457 H 0.97 0.31846 0.53397 0.0
H458 H 0.92787 0.46365 0.54944 0.0
S459 S 0.02239 0.70205 0.39577 0.0
N460 N 0.03347 0.57253 0.42234 0.0
N461 N -0.0124 0.72648 0.4335 0.0
C462 C -0.01733 0.62666 0.46945 0.0
C463 C 0.00844 0.54124 0.4637 0.0
loop_
_geom_bond_atom_site_label_1
_geom_bond_atom_site_label_2
_geom_bond_distance
_geom_bond_site_symmetry_2
_ccdc_geom_bond_type
Mn0 O5 2.095 . S
Mn0 O15 2.162 . S
Mn0 O16 2.297 . S
Mn0 O24 2.385 1_554 S
Mn0 O25 2.209 1_554 S
Mn0 O26 2.094 . S
Mn1 O6 2.121 . S
Mn1 N8 2.257 1_554 S
Mn1 N17 2.282 1_554 S
Mn1 O25 2.215 1_554 S
Mn1 O27 2.117 . S
C2 O24 1.234 . S
C2 O25 1.283 . S
C3 O15 1.281 . S
C3 O16 1.236 . S
C4 O26 1.240 . S
C4 O27 1.264 . S
O5 Mn0 2.095 . S
O5 C14 1.250 . S
O6 Mn1 2.121 . S
O6 C14 1.258 . S
C7 N8 1.326 1_554 S
C7 C11 1.460 1_554 S
C7 H13 0.929 . S
N8 Mn1 2.257 1_556 S
N8 C7 1.326 1_556 S
N8 C12 1.362 . S
C9 C10 1.258 . S
C9 C12 1.431 . S
C9 C29 1.449 . S
C10 C9 1.258 . S
C10 C11 1.477 . S
C10 H30 0.931 . S
C11 C7 1.460 1_556 S
C11 C10 1.477 . S
C11 H31 0.930 1_556 S
C12 N8 1.362 . S
C12 C9 1.431 . S
C12 C22 1.476 . S
H13 C7 0.929 . S
C14 O5 1.250 . S
C14 O6 1.258 . S
O15 Mn0 2.162 . S
O15 C3 1.281 . S
O16 Mn0 2.297 . S
O16 C3 1.236 . S
N17 Mn1 2.282 1_556 S
N17 C18 1.328 . S
N17 C22 1.318 . S
C18 N17 1.328 . S
C18 C19 1.457 . S
C18 H23 0.929 . S
C19 C18 1.457 . S
C19 C20 1.291 . S
C19 H32 0.931 . S
C20 C19 1.291 . S
C20 C21 1.373 . S
C20 H33 0.929 . S
C21 C20 1.373 . S
C21 C22 1.396 . S
C21 C28 1.403 . S
C22 C12 1.476 . S
C22 N17 1.318 . S
C22 C21 1.396 . S
H23 C18 0.929 . S
O24 Mn0 2.385 1_556 S
O24 C2 1.234 . S
O25 Mn0 2.209 1_556 S
O25 Mn1 2.215 1_556 S
O25 C2 1.283 . S
O26 Mn0 2.094 . S
O26 C4 1.240 . S
O27 Mn1 2.117 . S
O27 C4 1.264 . S
C28 C21 1.403 . S
C28 C29 1.399 . S
C28 H34 0.929 . S
C29 C9 1.449 . S
C29 C28 1.399 . S
C29 H35 0.930 . S
H30 C10 0.931 . S
H31 C11 0.930 1_554 S
H32 C19 0.931 . S
H33 C20 0.929 . S
H34 C28 0.929 . S
H35 C29 0.930 . S
Mn36 O41 2.095 . S
Mn36 O51 2.162 . S
Mn36 O52 2.297 . S
Mn36 O60 2.385 1_554 S
Mn36 O61 2.209 1_554 S
Mn36 O62 2.094 . S
Mn37 O42 2.121 . S
Mn37 N44 2.257 1_554 S
Mn37 N53 2.282 1_554 S
Mn37 O61 2.215 1_554 S
Mn37 O63 2.117 . S
C38 O60 1.234 . S
C38 O61 1.283 . S
C39 O51 1.281 . S
C39 O52 1.236 . S
C40 O62 1.240 . S
C40 O63 1.264 . S
O41 Mn36 2.095 . S
O41 C50 1.250 . S
O42 Mn37 2.121 . S
O42 C50 1.258 . S
C43 N44 1.326 1_554 S
C43 C47 1.460 1_554 S
C43 H49 0.929 . S
N44 Mn37 2.257 1_556 S
N44 C43 1.326 1_556 S
N44 C48 1.362 . S
C45 C46 1.258 . S
C45 C48 1.431 . S
C45 C65 1.449 . S
C46 C45 1.258 . S
C46 C47 1.477 . S
C46 H66 0.931 . S
C47 C43 1.460 1_556 S
C47 C46 1.477 . S
C47 H67 0.930 1_556 S
C48 N44 1.362 . S
C48 C45 1.431 . S
C48 C58 1.476 . S
H49 C43 0.929 . S
C50 O41 1.250 . S
C50 O42 1.258 . S
O51 Mn36 2.162 . S
O51 C39 1.281 . S
O52 Mn36 2.297 . S
O52 C39 1.236 . S
N53 Mn37 2.282 1_556 S
N53 C54 1.328 . S
N53 C58 1.318 . S
C54 N53 1.328 . S
C54 C55 1.457 . S
C54 H59 0.929 . S
C55 C54 1.457 . S
C55 C56 1.291 . S
C55 H68 0.931 . S
C56 C55 1.291 . S
C56 C57 1.373 . S
C56 H69 0.929 . S
C57 C56 1.373 . S
C57 C58 1.396 . S
C57 C64 1.403 . S
C58 C48 1.476 . S
C58 N53 1.318 . S
C58 C57 1.396 . S
H59 C54 0.929 . S
O60 Mn36 2.385 1_556 S
O60 C38 1.234 . S
O61 Mn36 2.209 1_556 S
O61 Mn37 2.215 1_556 S
O61 C38 1.283 . S
O62 Mn36 2.094 . S
O62 C40 1.240 . S
O63 Mn37 2.117 . S
O63 C40 1.264 . S
C64 C57 1.403 . S
C64 C65 1.399 . S
C64 H70 0.929 . S
C65 C45 1.449 . S
C65 C64 1.399 . S
C65 H71 0.930 . S
H66 C46 0.931 . S
H67 C47 0.930 1_554 S
H68 C55 0.931 . S
H69 C56 0.929 . S
H70 C64 0.929 . S
H71 C65 0.930 . S
Mn72 O77 2.095 . S
Mn72 O87 2.162 . S
Mn72 O88 2.297 . S
Mn72 O96 2.385 . S
Mn72 O97 2.209 . S
Mn72 O98 2.094 . S
Mn73 O78 2.121 . S
Mn73 N80 2.257 . S
Mn73 N89 2.282 . S
Mn73 O97 2.215 . S
Mn73 O99 2.117 . S
C74 O96 1.234 . S
C74 O97 1.283 . S
C75 O87 1.281 . S
C75 O88 1.236 . S
C76 O98 1.240 . S
C76 O99 1.264 . S
O77 Mn72 2.095 . S
O77 C86 1.250 . S
O78 Mn73 2.121 . S
O78 C86 1.258 . S
C79 N80 1.326 . S
C79 C83 1.460 . S
C79 H85 0.929 . S
N80 Mn73 2.257 . S
N80 C79 1.326 . S
N80 C84 1.362 . S
C81 C82 1.258 . S
C81 C84 1.431 . S
C81 C101 1.449 . S
C82 C81 1.258 . S
C82 C83 1.477 . S
C82 H102 0.931 . S
C83 C79 1.460 . S
C83 C82 1.477 . S
C83 H103 0.930 . S
C84 N80 1.362 . S
C84 C81 1.431 . S
C84 C94 1.476 . S
H85 C79 0.929 . S
C86 O77 1.250 . S
C86 O78 1.258 . S
O87 Mn72 2.162 . S
O87 C75 1.281 . S
O88 Mn72 2.297 . S
O88 C75 1.236 . S
N89 Mn73 2.282 . S
N89 C90 1.328 . S
N89 C94 1.318 . S
C90 N89 1.328 . S
C90 C91 1.457 . S
C90 H95 0.929 . S
C91 C90 1.457 . S
C91 C92 1.291 . S
C91 H104 0.931 . S
C92 C91 1.291 . S
C92 C93 1.373 . S
C92 H105 0.929 . S
C93 C92 1.373 . S
C93 C94 1.396 . S
C93 C100 1.403 . S
C94 C84 1.476 . S
C94 N89 1.318 . S
C94 C93 1.396 . S
H95 C90 0.929 . S
O96 Mn72 2.385 . S
O96 C74 1.234 . S
O97 Mn72 2.209 . S
O97 Mn73 2.215 . S
O97 C74 1.283 . S
O98 Mn72 2.094 . S
O98 C76 1.240 . S
O99 Mn73 2.117 . S
O99 C76 1.264 . S
C100 C93 1.403 . S
C100 C101 1.399 . S
C100 H106 0.929 . S
C101 C81 1.449 . S
C101 C100 1.399 . S
C101 H107 0.930 . S
H102 C82 0.931 . S
H103 C83 0.930 . S
H104 C91 0.931 . S
H105 C92 0.929 . S
H106 C100 0.929 . S
H107 C101 0.930 . S
Mn108 O113 2.095 . S
Mn108 O123 2.162 . S
Mn108 O124 2.297 . S
Mn108 O132 2.385 . S
Mn108 O133 2.209 . S
Mn108 O134 2.094 . S
Mn109 O114 2.121 . S
Mn109 N116 2.257 . S
Mn109 N125 2.282 . S
Mn109 O133 2.215 . S
Mn109 O135 2.117 . S
C110 O132 1.234 . S
C110 O133 1.283 . S
C111 O123 1.281 . S
C111 O124 1.236 . S
C112 O134 1.240 . S
C112 O135 1.264 . S
O113 Mn108 2.095 . S
O113 C122 1.250 . S
O114 Mn109 2.121 . S
O114 C122 1.258 . S
C115 N116 1.326 . S
C115 C119 1.460 . S
C115 H121 0.929 . S
N116 Mn109 2.257 . S
N116 C115 1.326 . S
N116 C120 1.362 . S
C117 C118 1.258 . S
C117 C120 1.431 . S
C117 C137 1.449 . S
C118 C117 1.258 . S
C118 C119 1.477 . S
C118 H138 0.931 . S
C119 C115 1.460 . S
C119 C118 1.477 . S
C119 H139 0.930 . S
C120 N116 1.362 . S
C120 C117 1.431 . S
C120 C130 1.476 . S
H121 C115 0.929 . S
C122 O113 1.250 . S
C122 O114 1.258 . S
O123 Mn108 2.162 . S
O123 C111 1.281 . S
O124 Mn108 2.297 . S
O124 C111 1.236 . S
N125 Mn109 2.282 . S
N125 C126 1.328 . S
N125 C130 1.318 . S
C126 N125 1.328 . S
C126 C127 1.457 . S
C126 H131 0.929 . S
C127 C126 1.457 . S
C127 C128 1.291 . S
C127 H140 0.931 . S
C128 C127 1.291 . S
C128 C129 1.373 . S
C128 H141 0.929 . S
C129 C128 1.373 . S
C129 C130 1.396 . S
C129 C136 1.403 . S
C130 C120 1.476 . S
C130 N125 1.318 . S
C130 C129 1.396 . S
H131 C126 0.929 . S
O132 Mn108 2.385 . S
O132 C110 1.234 . S
O133 Mn108 2.209 . S
O133 Mn109 2.215 . S
O133 C110 1.283 . S
O134 Mn108 2.094 . S
O134 C112 1.240 . S
O135 Mn109 2.117 . S
O135 C112 1.264 . S
C136 C129 1.403 . S
C136 C137 1.399 . S
C136 H142 0.929 . S
C137 C117 1.449 . S
C137 C136 1.399 . S
C137 H143 0.930 . S
H138 C118 0.931 . S
H139 C119 0.930 . S
H140 C127 0.931 . S
H141 C128 0.929 . S
H142 C136 0.929 . S
H143 C137 0.930 . S
Mn144 O149 2.095 . S
Mn144 O159 2.162 . S
Mn144 O160 2.297 . S
Mn144 O168 2.385 1_554 S
Mn144 O169 2.209 1_554 S
Mn144 O170 2.094 . S
Mn145 O150 2.121 . S
Mn145 N152 2.257 1_564 S
Mn145 N161 2.282 1_554 S
Mn145 O169 2.215 1_554 S
Mn145 O171 2.117 . S
C146 O168 1.234 . S
C146 O169 1.283 . S
C147 O159 1.281 . S
C147 O160 1.236 . S
C148 O170 1.240 . S
C148 O171 1.264 . S
O149 Mn144 2.095 . S
O149 C158 1.250 . S
O150 Mn145 2.121 . S
O150 C158 1.258 . S
C151 N152 1.326 1_554 S
C151 C155 1.460 1_554 S
C151 H157 0.929 . S
N152 Mn145 2.257 1_546 S
N152 C151 1.326 1_556 S
N152 C156 1.362 . S
C153 C154 1.258 . S
C153 C156 1.431 . S
C153 C173 1.437 1_455 S
C154 C153 1.258 . S
C154 C155 1.477 . S
C154 H174 0.931 . S
C155 C151 1.460 1_556 S
C155 C154 1.477 . S
C155 H175 0.930 1_556 S
C156 N152 1.362 . S
C156 C153 1.431 . S
C156 C166 1.476 . S
H157 C151 0.929 . S
C158 O149 1.250 . S
C158 O150 1.258 . S
O159 Mn144 2.162 . S
O159 C147 1.281 . S
O160 Mn144 2.297 . S
O160 C147 1.236 . S
N161 Mn145 2.282 1_556 S
N161 C162 1.328 . S
N161 C166 1.318 1_565 S
C162 N161 1.328 . S
C162 C163 1.447 1_455 S
C162 H167 0.929 . S
C163 C162 1.447 1_655 S
C163 C164 1.297 . S
C163 H176 0.936 . S
C164 C163 1.297 . S
C164 C165 1.373 1_565 S
C164 H177 0.929 . S
C165 C164 1.373 1_545 S
C165 C166 1.396 1_655 S
C165 C172 1.403 . S
C166 C156 1.476 . S
C166 N161 1.318 1_545 S
C166 C165 1.396 1_455 S
H167 C162 0.929 . S
O168 Mn144 2.385 1_556 S
O168 C146 1.234 . S
O169 Mn144 2.209 1_556 S
O169 Mn145 2.215 1_556 S
O169 C146 1.283 . S
O170 Mn144 2.094 . S
O170 C148 1.240 . S
O171 Mn145 2.117 . S
O171 C148 1.264 . S
C172 C165 1.403 . S
C172 C173 1.405 . S
C172 H178 0.929 . S
C173 C153 1.437 1_655 S
C173 C172 1.405 . S
C173 H179 0.936 . S
H174 C154 0.931 . S
H175 C155 0.930 1_554 S
H176 C163 0.936 . S
H177 C164 0.929 . S
H178 C172 0.929 . S
H179 C173 0.936 . S
Mn180 O185 2.095 . S
Mn180 O195 2.162 . S
Mn180 O196 2.297 . S
Mn180 O204 2.385 1_554 S
Mn180 O205 2.209 1_554 S
Mn180 O206 2.094 . S
Mn181 O186 2.121 . S
Mn181 N188 2.257 1_544 S
Mn181 N197 2.282 1_554 S
Mn181 O205 2.215 1_554 S
Mn181 O207 2.117 . S
C182 O204 1.234 . S
C182 O205 1.283 . S
C183 O195 1.281 . S
C183 O196 1.236 . S
C184 O206 1.240 . S
C184 O207 1.264 . S
O185 Mn180 2.095 . S
O185 C194 1.250 . S
O186 Mn181 2.121 . S
O186 C194 1.258 . S
C187 N188 1.326 1_554 S
C187 C191 1.460 1_554 S
C187 H193 0.929 . S
N188 Mn181 2.257 1_566 S
N188 C187 1.326 1_556 S
N188 C192 1.362 . S
C189 C190 1.258 . S
C189 C192 1.431 . S
C189 C209 1.437 1_655 S
C190 C189 1.258 . S
C190 C191 1.477 . S
C190 H210 0.931 . S
C191 C187 1.460 1_556 S
C191 C190 1.477 . S
C191 H211 0.930 1_556 S
C192 N188 1.362 . S
C192 C189 1.431 . S
C192 C202 1.476 . S
H193 C187 0.929 . S
C194 O185 1.250 . S
C194 O186 1.258 . S
O195 Mn180 2.162 . S
O195 C183 1.281 . S
O196 Mn180 2.297 . S
O196 C183 1.236 . S
N197 Mn181 2.282 1_556 S
N197 C198 1.328 . S
N197 C202 1.318 1_545 S
C198 N197 1.328 . S
C198 C199 1.447 1_655 S
C198 H203 0.929 . S
C199 C198 1.447 1_455 S
C199 C200 1.297 . S
C199 H212 0.936 . S
C200 C199 1.297 . S
C200 C201 1.373 1_545 S
C200 H213 0.929 . S
C201 C200 1.373 1_565 S
C201 C202 1.396 1_455 S
C201 C208 1.403 . S
C202 C192 1.476 . S
C202 N197 1.318 1_565 S
C202 C201 1.396 1_655 S
H203 C198 0.929 . S
O204 Mn180 2.385 1_556 S
O204 C182 1.234 . S
O205 Mn180 2.209 1_556 S
O205 Mn181 2.215 1_556 S
O205 C182 1.283 . S
O206 Mn180 2.094 . S
O206 C184 1.240 . S
O207 Mn181 2.117 . S
O207 C184 1.264 . S
C208 C201 1.403 . S
C208 C209 1.405 . S
C208 H214 0.929 . S
C209 C189 1.437 1_455 S
C209 C208 1.405 . S
C209 H215 0.936 . S
H210 C190 0.931 . S
H211 C191 0.930 1_554 S
H212 C199 0.936 . S
H213 C200 0.929 . S
H214 C208 0.929 . S
H215 C209 0.936 . S
Mn216 O221 2.095 . S
Mn216 O231 2.162 . S
Mn216 O232 2.297 . S
Mn216 O240 2.385 . S
Mn216 O241 2.209 . S
Mn216 O242 2.094 . S
Mn217 O222 2.121 . S
Mn217 N224 2.257 1_545 S
Mn217 N233 2.282 . S
Mn217 O241 2.215 . S
Mn217 O243 2.117 . S
C218 O240 1.234 . S
C218 O241 1.283 . S
C219 O231 1.281 . S
C219 O232 1.236 . S
C220 O242 1.240 . S
C220 O243 1.264 . S
O221 Mn216 2.095 . S
O221 C230 1.250 . S
O222 Mn217 2.121 . S
O222 C230 1.258 . S
C223 N224 1.326 . S
C223 C227 1.460 . S
C223 H229 0.929 . S
N224 Mn217 2.257 1_565 S
N224 C223 1.326 . S
N224 C228 1.362 . S
C225 C226 1.258 . S
C225 C228 1.431 . S
C225 C245 1.438 1_455 S
C226 C225 1.258 . S
C226 C227 1.477 . S
C226 H246 0.931 . S
C227 C223 1.460 . S
C227 C226 1.477 . S
C227 H247 0.930 . S
C228 N224 1.362 . S
C228 C225 1.431 . S
C228 C238 1.476 . S
H229 C223 0.929 . S
C230 O221 1.250 . S
C230 O222 1.258 . S
O231 Mn216 2.162 . S
O231 C219 1.281 . S
O232 Mn216 2.297 . S
O232 C219 1.236 . S
N233 Mn217 2.282 . S
N233 C234 1.328 . S
N233 C238 1.318 1_545 S
C234 N233 1.328 . S
C234 C235 1.447 1_455 S
C234 H239 0.929 . S
C235 C234 1.447 1_655 S
C235 C236 1.297 . S
C235 H248 0.936 . S
C236 C235 1.297 . S
C236 C237 1.373 1_545 S
C236 H249 0.929 . S
C237 C236 1.373 1_565 S
C237 C238 1.396 1_655 S
C237 C244 1.403 . S
C238 C228 1.476 . S
C238 N233 1.318 1_565 S
C238 C237 1.396 1_455 S
H239 C234 0.929 . S
O240 Mn216 2.385 . S
O240 C218 1.234 . S
O241 Mn216 2.209 . S
O241 Mn217 2.215 . S
O241 C218 1.283 . S
O242 Mn216 2.094 . S
O242 C220 1.240 . S
O243 Mn217 2.117 . S
O243 C220 1.264 . S
C244 C237 1.403 . S
C244 C245 1.405 . S
C244 H250 0.929 . S
C245 C225 1.438 1_655 S
C245 C244 1.405 . S
C245 H251 0.936 . S
H246 C226 0.931 . S
H247 C227 0.930 . S
H248 C235 0.936 . S
H249 C236 0.929 . S
H250 C244 0.929 . S
H251 C245 0.936 . S
Mn252 O257 2.095 . S
Mn252 O267 2.162 . S
Mn252 O268 2.297 . S
Mn252 O276 2.385 . S
Mn252 O277 2.209 . S
Mn252 O278 2.094 . S
Mn253 O258 2.121 . S
Mn253 N260 2.257 1_565 S
Mn253 N269 2.282 . S
Mn253 O277 2.215 . S
Mn253 O279 2.117 . S
C254 O276 1.234 . S
C254 O277 1.283 . S
C255 O267 1.281 . S
C255 O268 1.236 . S
C256 O278 1.240 . S
C256 O279 1.264 . S
O257 Mn252 2.095 . S
O257 C266 1.250 . S
O258 Mn253 2.121 . S
O258 C266 1.258 . S
C259 N260 1.326 . S
C259 C263 1.460 . S
C259 H265 0.929 . S
N260 Mn253 2.257 1_545 S
N260 C259 1.326 . S
N260 C264 1.362 . S
C261 C262 1.258 . S
C261 C264 1.431 . S
C261 C281 1.438 1_655 S
C262 C261 1.258 . S
C262 C263 1.477 . S
C262 H282 0.931 . S
C263 C259 1.460 . S
C263 C262 1.477 . S
C263 H283 0.930 . S
C264 N260 1.362 . S
C264 C261 1.431 . S
C264 C274 1.476 . S
H265 C259 0.929 . S
C266 O257 1.250 . S
C266 O258 1.258 . S
O267 Mn252 2.162 . S
O267 C255 1.281 . S
O268 Mn252 2.297 . S
O268 C255 1.236 . S
N269 Mn253 2.282 . S
N269 C270 1.328 . S
N269 C274 1.318 1_565 S
C270 N269 1.328 . S
C270 C271 1.447 1_655 S
C270 H275 0.929 . S
C271 C270 1.447 1_455 S
C271 C272 1.297 . S
C271 H284 0.936 . S
C272 C271 1.297 . S
C272 C273 1.373 1_565 S
C272 H285 0.929 . S
C273 C272 1.373 1_545 S
C273 C274 1.396 1_455 S
C273 C280 1.403 . S
C274 C264 1.476 . S
C274 N269 1.318 1_545 S
C274 C273 1.396 1_655 S
H275 C270 0.929 . S
O276 Mn252 2.385 . S
O276 C254 1.234 . S
O277 Mn252 2.209 . S
O277 Mn253 2.215 . S
O277 C254 1.283 . S
O278 Mn252 2.094 . S
O278 C256 1.240 . S
O279 Mn253 2.117 . S
O279 C256 1.264 . S
C280 C273 1.403 . S
C280 C281 1.405 . S
C280 H286 0.929 . S
C281 C261 1.438 1_455 S
C281 C280 1.405 . S
C281 H287 0.936 . S
H282 C262 0.931 . S
H283 C263 0.930 . S
H284 C271 0.936 . S
H285 C272 0.929 . S
H286 C280 0.929 . S
H287 C281 0.936 . S
C288 C289 1.369 . S
C288 C290 1.419 . S
C288 H292 0.930 . S
C289 C288 1.369 . S
C289 C298 1.429 1_554 S
C290 C288 1.419 . S
C290 C291 1.363 . S
C290 H293 0.929 . S
C291 C290 1.363 . S
C291 C297 1.428 1_554 S
H292 C288 0.930 . S
H293 C290 0.929 . S
S294 N295 1.613 . S
S294 N296 1.610 . S
N295 S294 1.613 . S
N295 C298 1.350 . S
N296 S294 1.610 . S
N296 C297 1.351 . S
C297 C291 1.428 1_556 S
C297 N296 1.351 . S
C297 C298 1.434 . S
C298 C289 1.429 1_556 S
C298 N295 1.350 . S
C298 C297 1.434 . S
C299 C300 1.369 . S
C299 C301 1.419 . S
C299 H303 0.930 . S
C300 C299 1.369 . S
C300 C309 1.429 1_554 S
C301 C299 1.419 . S
C301 C302 1.363 . S
C301 H304 0.929 . S
C302 C301 1.363 . S
C302 C308 1.428 1_554 S
H303 C299 0.930 . S
H304 C301 0.929 . S
S305 N306 1.613 . S
S305 N307 1.610 . S
N306 S305 1.613 . S
N306 C309 1.350 . S
N307 S305 1.610 . S
N307 C308 1.351 . S
C308 C302 1.428 1_556 S
C308 N307 1.351 . S
C308 C309 1.434 . S
C309 C300 1.429 1_556 S
C309 N306 1.350 . S
C309 C308 1.434 . S
C310 C311 1.369 . S
C310 C312 1.419 . S
C310 H314 0.930 . S
C311 C310 1.369 . S
C311 C320 1.429 . S
C312 C310 1.419 . S
C312 C313 1.363 . S
C312 H315 0.929 . S
C313 C312 1.363 . S
C313 C319 1.428 . S
H314 C310 0.930 . S
H315 C312 0.929 . S
S316 N317 1.613 . S
S316 N318 1.610 . S
N317 S316 1.613 . S
N317 C320 1.350 . S
N318 S316 1.610 . S
N318 C319 1.351 . S
C319 C313 1.428 . S
C319 N318 1.351 . S
C319 C320 1.434 . S
C320 C311 1.429 . S
C320 N317 1.350 . S
C320 C319 1.434 . S
C321 C322 1.369 . S
C321 C323 1.419 . S
C321 H325 0.930 . S
C322 C321 1.369 . S
C322 C331 1.429 . S
C323 C321 1.419 . S
C323 C324 1.363 . S
C323 H326 0.929 . S
C324 C323 1.363 . S
C324 C330 1.428 . S
H325 C321 0.930 . S
H326 C323 0.929 . S
S327 N328 1.613 . S
S327 N329 1.610 . S
N328 S327 1.613 . S
N328 C331 1.350 . S
N329 S327 1.610 . S
N329 C330 1.351 . S
C330 C324 1.428 . S
C330 N329 1.351 . S
C330 C331 1.434 . S
C331 C322 1.429 . S
C331 N328 1.350 . S
C331 C330 1.434 . S
C332 C333 1.369 . S
C332 C334 1.419 . S
C332 H336 0.930 . S
C333 C332 1.369 . S
C333 C342 1.429 . S
C334 C332 1.419 . S
C334 C335 1.363 . S
C334 H337 0.929 . S
C335 C334 1.363 . S
C335 C341 1.428 . S
H336 C332 0.930 . S
H337 C334 0.929 . S
S338 N339 1.613 . S
S338 N340 1.610 . S
N339 S338 1.613 . S
N339 C342 1.350 . S
N340 S338 1.610 . S
N340 C341 1.351 . S
C341 C335 1.428 . S
C341 N340 1.351 . S
C341 C342 1.434 . S
C342 C333 1.429 . S
C342 N339 1.350 . S
C342 C341 1.434 . S
C343 C344 1.369 . S
C343 C345 1.419 . S
C343 H347 0.930 . S
C344 C343 1.369 . S
C344 C353 1.429 . S
C345 C343 1.419 . S
C345 C346 1.363 . S
C345 H348 0.929 . S
C346 C345 1.363 . S
C346 C352 1.428 . S
H347 C343 0.930 . S
H348 C345 0.929 . S
S349 N350 1.613 . S
S349 N351 1.610 . S
N350 S349 1.613 . S
N350 C353 1.350 . S
N351 S349 1.610 . S
N351 C352 1.351 . S
C352 C346 1.428 . S
C352 N351 1.351 . S
C352 C353 1.434 . S
C353 C344 1.429 . S
C353 N350 1.350 . S
C353 C352 1.434 . S
C354 C355 1.369 . S
C354 C356 1.419 . S
C354 H358 0.930 . S
C355 C354 1.369 . S
C355 C364 1.429 . S
C356 C354 1.419 . S
C356 C357 1.363 . S
C356 H359 0.929 . S
C357 C356 1.363 . S
C357 C363 1.428 . S
H358 C354 0.930 . S
H359 C356 0.929 . S
S360 N361 1.613 . S
S360 N362 1.610 . S
N361 S360 1.613 . S
N361 C364 1.350 . S
N362 S360 1.610 . S
N362 C363 1.351 . S
C363 C357 1.428 . S
C363 N362 1.351 . S
C363 C364 1.434 . S
C364 C355 1.429 . S
C364 N361 1.350 . S
C364 C363 1.434 . S
C365 C366 1.369 . S
C365 C367 1.419 . S
C365 H369 0.930 . S
C366 C365 1.369 . S
C366 C375 1.429 . S
C367 C365 1.419 . S
C367 C368 1.363 . S
C367 H370 0.929 . S
C368 C367 1.363 . S
C368 C374 1.428 . S
H369 C365 0.930 . S
H370 C367 0.929 . S
S371 N372 1.613 . S
S371 N373 1.610 . S
N372 S371 1.613 . S
N372 C375 1.350 . S
N373 S371 1.610 . S
N373 C374 1.351 . S
C374 C368 1.428 . S
C374 N373 1.351 . S
C374 C375 1.434 . S
C375 C366 1.429 . S
C375 N372 1.350 . S
C375 C374 1.434 . S
C376 C377 1.369 . S
C376 C378 1.419 1_565 S
C376 H380 0.930 . S
C377 C376 1.369 . S
C377 C386 1.429 . S
C378 C376 1.419 1_545 S
C378 C379 1.363 . S
C378 H381 0.929 . S
C379 C378 1.363 . S
C379 C385 1.428 . S
H380 C376 0.930 . S
H381 C378 0.929 . S
S382 N383 1.609 1_545 S
S382 N384 1.610 . S
N383 S382 1.609 1_565 S
N383 C386 1.350 . S
N384 S382 1.610 . S
N384 C385 1.351 . S
C385 C379 1.428 . S
C385 N384 1.351 . S
C385 C386 1.434 1_545 S
C386 C377 1.429 . S
C386 N383 1.350 . S
C386 C385 1.434 1_565 S
C387 C388 1.369 1_545 S
C387 C389 1.419 . S
C387 H391 0.930 . S
C388 C387 1.369 1_565 S
C388 C397 1.429 . S
C389 C387 1.419 . S
C389 C390 1.363 . S
C389 H392 0.929 . S
C390 C389 1.363 . S
C390 C396 1.428 1_545 S
H391 C387 0.930 . S
H392 C389 0.929 . S
S393 N394 1.613 . S
S393 N395 1.610 . S
N394 S393 1.613 . S
N394 C397 1.350 . S
N395 S393 1.610 . S
N395 C396 1.351 . S
C396 C390 1.428 1_565 S
C396 N395 1.351 . S
C396 C397 1.434 . S
C397 C388 1.429 . S
C397 N394 1.350 . S
C397 C396 1.434 . S
C398 C399 1.369 . S
C398 C400 1.419 1_565 S
C398 H402 0.930 . S
C399 C398 1.369 . S
C399 C408 1.429 . S
C400 C398 1.419 1_545 S
C400 C401 1.363 . S
C400 H403 0.929 . S
C401 C400 1.363 . S
C401 C407 1.428 . S
H402 C398 0.930 . S
H403 C400 0.929 . S
S404 N405 1.613 1_545 S
S404 N406 1.610 . S
N405 S404 1.613 1_565 S
N405 C408 1.350 . S
N406 S404 1.610 . S
N406 C407 1.351 . S
C407 C401 1.428 . S
C407 N406 1.351 . S
C407 C408 1.434 1_545 S
C408 C399 1.429 . S
C408 N405 1.350 . S
C408 C407 1.434 1_565 S
C409 C410 1.369 . S
C409 C411 1.419 . S
C409 H413 0.930 . S
C410 C409 1.369 . S
C410 C419 1.429 1_565 S
C411 C409 1.419 . S
C411 C412 1.363 1_565 S
C411 H414 0.929 . S
C412 C411 1.363 1_545 S
C412 C418 1.428 . S
H413 C409 0.930 . S
H414 C411 0.929 . S
S415 N416 1.613 . S
S415 N417 1.610 . S
N416 S415 1.613 . S
N416 C419 1.350 . S
N417 S415 1.610 . S
N417 C418 1.351 . S
C418 C412 1.428 . S
C418 N417 1.351 . S
C418 C419 1.434 . S
C419 C410 1.429 1_545 S
C419 N416 1.350 . S
C419 C418 1.434 . S
C420 C421 1.369 1_545 S
C420 C422 1.419 . S
C420 H424 0.930 . S
C421 C420 1.369 1_565 S
C421 C430 1.429 . S
C422 C420 1.419 . S
C422 C423 1.363 . S
C422 H425 0.929 . S
C423 C422 1.363 . S
C423 C429 1.428 1_545 S
H424 C420 0.930 . S
H425 C422 0.929 . S
S426 N427 1.613 . S
S426 N428 1.610 . S
N427 S426 1.613 . S
N427 C430 1.350 . S
N428 S426 1.610 . S
N428 C429 1.351 . S
C429 C423 1.428 1_565 S
C429 N428 1.351 . S
C429 C430 1.434 . S
C430 C421 1.429 . S
C430 N427 1.350 . S
C430 C429 1.434 . S
C431 C432 1.369 . S
C431 C433 1.419 1_565 S
C431 H435 0.930 . S
C432 C431 1.369 . S
C432 C441 1.429 . S
C433 C431 1.419 1_545 S
C433 C434 1.363 . S
C433 H436 0.929 . S
C434 C433 1.363 . S
C434 C440 1.428 . S
H435 C431 0.930 . S
H436 C433 0.929 . S
S437 N438 1.613 . S
S437 N439 1.610 1_565 S
N438 S437 1.613 . S
N438 C441 1.350 . S
N439 S437 1.610 1_545 S
N439 C440 1.351 . S
C440 C434 1.428 . S
C440 N439 1.351 . S
C440 C441 1.434 1_545 S
C441 C432 1.429 . S
C441 N438 1.350 . S
C441 C440 1.434 1_565 S
C442 C443 1.369 1_556 S
C442 C444 1.419 1_455 S
C442 H446 0.930 . S
C443 C442 1.369 1_554 S
C443 C452 1.429 . S
C444 C442 1.419 1_655 S
C444 C445 1.363 1_556 S
C444 H447 0.929 . S
C445 C444 1.363 1_554 S
C445 C451 1.434 . S
H446 C442 0.930 . S
H447 C444 0.929 . S
S448 N449 1.613 . S
S448 N450 1.610 . S
N449 S448 1.613 . S
N449 C452 1.350 . S
N450 S448 1.610 . S
N450 C451 1.350 1_455 S
C451 C445 1.434 . S
C451 N450 1.350 1_655 S
C451 C452 1.428 1_655 S
C452 C443 1.429 . S
C452 N449 1.350 . S
C452 C451 1.428 1_455 S
C453 C454 1.369 1_655 S
C453 C455 1.419 . S
C453 H457 0.930 . S
C454 C453 1.369 1_455 S
C454 C463 1.429 . S
C455 C453 1.419 . S
C455 C456 1.363 . S
C455 H458 0.929 . S
C456 C455 1.363 . S
C456 C462 1.428 1_655 S
H457 C453 0.930 . S
H458 C455 0.929 . S
S459 N460 1.613 . S
S459 N461 1.610 . S
N460 S459 1.613 . S
N460 C463 1.350 . S
N461 S459 1.610 . S
N461 C462 1.351 . S
C462 C456 1.428 1_455 S
C462 N461 1.351 . S
C462 C463 1.434 . S
C463 C454 1.429 . S
C463 N460 1.350 . S
C463 C462 1.434 . S
C289 C183 1.508 . S
C291 C3 1.507 . S
C300 C147 1.508 . S
C302 C39 1.507 . S
C311 C255 1.507 . S
C313 C75 1.507 . S
C322 C219 1.507 . S
C324 C111 1.507 . S
C333 C14 1.416 . S
C335 C86 1.417 . S
C344 C50 1.416 . S
C346 C122 1.416 . S
C355 C38 1.388 . S
C357 C110 1.393 . S
C366 C2 1.388 . S
C368 C74 1.390 . S
C377 C158 1.413 . S
C379 C230 1.413 . S
C388 C266 1.416 . S
C390 C194 1.416 . S
C399 C254 1.390 . S
C401 C182 1.389 . S
C410 C146 1.393 . S
C412 C218 1.390 . S
C421 C40 1.506 . S
C423 C4 1.507 . S
C432 C76 1.505 . S
C434 C112 1.506 . S
C443 C148 1.507 . S
C445 C184 1.506 . S
C454 C220 1.507 . S
C456 C256 1.506 . S
