# Generated by pormake.
# Topology srs-f, (5)-cn, num edge types: 1
# Building blocks:
#     Node 0, Type 0, BuildingBlock: XOMCOT_clean_sbu_0, # of connection points: 5
#     Node 1, Type 0, BuildingBlock: XOMCOT_clean_sbu_0, # of connection points: 5
#     Node 2, Type 0, BuildingBlock: XOMCOT_clean_sbu_0, # of connection points: 5
#     Node 3, Type 0, BuildingBlock: XOMCOT_clean_sbu_0, # of connection points: 5
#     Node 4, Type 0, BuildingBlock: XOMCOT_clean_sbu_0, # of connection points: 5
#     Node 5, Type 0, BuildingBlock: XOMCOT_clean_sbu_0, # of connection points: 5
#     Node 6, Type 0, BuildingBlock: XOMCOT_clean_sbu_0, # of connection points: 5
#     Node 7, Type 0, BuildingBlock: XOMCOT_clean_sbu_0, # of connection points: 5
#     Node 8, Type 0, BuildingBlock: XOMCOT_clean_sbu_0, # of connection points: 5
#     Node 9, Type 0, BuildingBlock: XOMCOT_clean_sbu_0, # of connection points: 5
#     Node 10, Type 0, BuildingBlock: XOMCOT_clean_sbu_0, # of connection points: 5
#     Node 11, Type 0, BuildingBlock: XOMCOT_clean_sbu_0, # of connection points: 5
#     Node 12, Type 0, BuildingBlock: XOMCOT_clean_sbu_0, # of connection points: 5
#     Node 13, Type 0, BuildingBlock: XOMCOT_clean_sbu_0, # of connection points: 5
#     Node 14, Type 0, BuildingBlock: XOMCOT_clean_sbu_0, # of connection points: 5
#     Node 15, Type 0, BuildingBlock: XOMCOT_clean_sbu_0, # of connection points: 5
#     Node 16, Type 0, BuildingBlock: XOMCOT_clean_sbu_0, # of connection points: 5
#     Node 17, Type 0, BuildingBlock: XOMCOT_clean_sbu_0, # of connection points: 5
#     Node 18, Type 0, BuildingBlock: XOMCOT_clean_sbu_0, # of connection points: 5
#     Node 19, Type 0, BuildingBlock: XOMCOT_clean_sbu_0, # of connection points: 5
#     Node 20, Type 0, BuildingBlock: XOMCOT_clean_sbu_0, # of connection points: 5
#     Node 21, Type 0, BuildingBlock: XOMCOT_clean_sbu_0, # of connection points: 5
#     Node 22, Type 0, BuildingBlock: XOMCOT_clean_sbu_0, # of connection points: 5
#     Node 23, Type 0, BuildingBlock: XOMCOT_clean_sbu_0, # of connection points: 5
#     Node 24, Type 0, BuildingBlock: XOMCOT_clean_sbu_0, # of connection points: 5
#     Node 25, Type 0, BuildingBlock: XOMCOT_clean_sbu_0, # of connection points: 5
#     Node 26, Type 0, BuildingBlock: XOMCOT_clean_sbu_0, # of connection points: 5
#     Node 27, Type 0, BuildingBlock: XOMCOT_clean_sbu_0, # of connection points: 5
#     Node 28, Type 0, BuildingBlock: XOMCOT_clean_sbu_0, # of connection points: 5
#     Node 29, Type 0, BuildingBlock: XOMCOT_clean_sbu_0, # of connection points: 5
#     Node 30, Type 0, BuildingBlock: XOMCOT_clean_sbu_0, # of connection points: 5
#     Node 31, Type 0, BuildingBlock: XOMCOT_clean_sbu_0, # of connection points: 5
#     Node 32, Type 0, BuildingBlock: XOMCOT_clean_sbu_0, # of connection points: 5
#     Node 33, Type 0, BuildingBlock: XOMCOT_clean_sbu_0, # of connection points: 5
#     Node 34, Type 0, BuildingBlock: XOMCOT_clean_sbu_0, # of connection points: 5
#     Node 35, Type 0, BuildingBlock: XOMCOT_clean_sbu_0, # of connection points: 5
#     Node 36, Type 0, BuildingBlock: XOMCOT_clean_sbu_0, # of connection points: 5
#     Node 37, Type 0, BuildingBlock: XOMCOT_clean_sbu_0, # of connection points: 5
#     Node 38, Type 0, BuildingBlock: XOMCOT_clean_sbu_0, # of connection points: 5
#     Node 39, Type 0, BuildingBlock: XOMCOT_clean_sbu_0, # of connection points: 5
#     Node 40, Type 0, BuildingBlock: XOMCOT_clean_sbu_0, # of connection points: 5
#     Node 41, Type 0, BuildingBlock: XOMCOT_clean_sbu_0, # of connection points: 5
#     Node 42, Type 0, BuildingBlock: XOMCOT_clean_sbu_0, # of connection points: 5
#     Node 43, Type 0, BuildingBlock: XOMCOT_clean_sbu_0, # of connection points: 5
#     Node 44, Type 0, BuildingBlock: XOMCOT_clean_sbu_0, # of connection points: 5
#     Node 45, Type 0, BuildingBlock: XOMCOT_clean_sbu_0, # of connection points: 5
#     Node 46, Type 0, BuildingBlock: XOMCOT_clean_sbu_0, # of connection points: 5
#     Node 47, Type 0, BuildingBlock: XOMCOT_clean_sbu_0, # of connection points: 5
#     Edge 48, Type (0, 0), None
#     Edge 49, Type (0, 0), None
#     Edge 50, Type (0, 0), None
#     Edge 51, Type (0, 0), None
#     Edge 52, Type (0, 0), None
#     Edge 53, Type (0, 0), None
#     Edge 54, Type (0, 0), None
#     Edge 55, Type (0, 0), None
#     Edge 56, Type (0, 0), None
#     Edge 57, Type (0, 0), None
#     Edge 58, Type (0, 0), None
#     Edge 59, Type (0, 0), None
#     Edge 60, Type (0, 0), None
#     Edge 61, Type (0, 0), None
#     Edge 62, Type (0, 0), None
#     Edge 63, Type (0, 0), None
#     Edge 64, Type (0, 0), None
#     Edge 65, Type (0, 0), None
#     Edge 66, Type (0, 0), None
#     Edge 67, Type (0, 0), None
#     Edge 68, Type (0, 0), None
#     Edge 69, Type (0, 0), None
#     Edge 70, Type (0, 0), None
#     Edge 71, Type (0, 0), None
#     Edge 72, Type (0, 0), None
#     Edge 73, Type (0, 0), None
#     Edge 74, Type (0, 0), None
#     Edge 75, Type (0, 0), None
#     Edge 76, Type (0, 0), None
#     Edge 77, Type (0, 0), None
#     Edge 78, Type (0, 0), None
#     Edge 79, Type (0, 0), None
#     Edge 80, Type (0, 0), None
#     Edge 81, Type (0, 0), None
#     Edge 82, Type (0, 0), None
#     Edge 83, Type (0, 0), None
#     Edge 84, Type (0, 0), None
#     Edge 85, Type (0, 0), None
#     Edge 86, Type (0, 0), None
#     Edge 87, Type (0, 0), None
#     Edge 88, Type (0, 0), None
#     Edge 89, Type (0, 0), None
#     Edge 90, Type (0, 0), None
#     Edge 91, Type (0, 0), None
#     Edge 92, Type (0, 0), None
#     Edge 93, Type (0, 0), None
#     Edge 94, Type (0, 0), None
#     Edge 95, Type (0, 0), None
#     Edge 96, Type (0, 0), None
#     Edge 97, Type (0, 0), None
#     Edge 98, Type (0, 0), None
#     Edge 99, Type (0, 0), None
#     Edge 100, Type (0, 0), None
#     Edge 101, Type (0, 0), None
#     Edge 102, Type (0, 0), None
#     Edge 103, Type (0, 0), None
#     Edge 104, Type (0, 0), None
#     Edge 105, Type (0, 0), None
#     Edge 106, Type (0, 0), None
#     Edge 107, Type (0, 0), None
#     Edge 108, Type (0, 0), None
#     Edge 109, Type (0, 0), None
#     Edge 110, Type (0, 0), None
#     Edge 111, Type (0, 0), None
#     Edge 112, Type (0, 0), None
#     Edge 113, Type (0, 0), None
#     Edge 114, Type (0, 0), None
#     Edge 115, Type (0, 0), None
#     Edge 116, Type (0, 0), None
#     Edge 117, Type (0, 0), None
#     Edge 118, Type (0, 0), None
#     Edge 119, Type (0, 0), None
#     Edge 120, Type (0, 0), None
#     Edge 121, Type (0, 0), None
#     Edge 122, Type (0, 0), None
#     Edge 123, Type (0, 0), None
#     Edge 124, Type (0, 0), None
#     Edge 125, Type (0, 0), None
#     Edge 126, Type (0, 0), None
#     Edge 127, Type (0, 0), None
#     Edge 128, Type (0, 0), None
#     Edge 129, Type (0, 0), None
#     Edge 130, Type (0, 0), None
#     Edge 131, Type (0, 0), None
#     Edge 132, Type (0, 0), None
#     Edge 133, Type (0, 0), None
#     Edge 134, Type (0, 0), None
#     Edge 135, Type (0, 0), None
#     Edge 136, Type (0, 0), None
#     Edge 137, Type (0, 0), None
#     Edge 138, Type (0, 0), None
#     Edge 139, Type (0, 0), None
#     Edge 140, Type (0, 0), None
#     Edge 141, Type (0, 0), None
#     Edge 142, Type (0, 0), None
#     Edge 143, Type (0, 0), None
#     Edge 144, Type (0, 0), None
#     Edge 145, Type (0, 0), None
#     Edge 146, Type (0, 0), None
#     Edge 147, Type (0, 0), None
#     Edge 148, Type (0, 0), None
#     Edge 149, Type (0, 0), None
#     Edge 150, Type (0, 0), None
#     Edge 151, Type (0, 0), None
#     Edge 152, Type (0, 0), None
#     Edge 153, Type (0, 0), None
#     Edge 154, Type (0, 0), None
#     Edge 155, Type (0, 0), None
#     Edge 156, Type (0, 0), None
#     Edge 157, Type (0, 0), None
#     Edge 158, Type (0, 0), None
#     Edge 159, Type (0, 0), None
#     Edge 160, Type (0, 0), None
#     Edge 161, Type (0, 0), None
#     Edge 162, Type (0, 0), None
#     Edge 163, Type (0, 0), None
#     Edge 164, Type (0, 0), None
#     Edge 165, Type (0, 0), None
#     Edge 166, Type (0, 0), None
#     Edge 167, Type (0, 0), None
# Relax obj value: 0.950
# Max RMSD: 0.274
# Mean RMSD: 0.274
data_MOF--net-srs-f--node1-XOMCOT_clean_sbu_0--edge1-none
_symmetry_space_group_name_H-M    P1
_symmetry_Int_Tables_number       1
_symmetry_cell_setting            triclinic
loop_
_symmetry_equiv_pos_as_xyz
'x, y, z'
_cell_length_a     46.122619
_cell_length_b     46.122367
_cell_length_c     46.123164
_cell_angle_alpha  89.988338
_cell_angle_beta   89.987673
_cell_angle_gamma 89.988214
loop_
_atom_site_label
_atom_site_type_symbol
_atom_site_fract_x
_atom_site_fract_y
_atom_site_fract_z
_atom_type_partial_charge
Co0 Co 0.07137 0.4569 0.21618 0.0
C1 C 0.073 0.39516 0.19953 0.0
C2 C 0.09158 0.40279 0.2411 0.0
C3 C 0.08575 0.37409 0.23905 0.0
N4 N 0.08317 0.41655 0.21654 0.0
N5 N 0.07386 0.36928 0.21306 0.0
H6 H 0.06044 0.39874 0.18011 0.0
H7 H 0.09604 0.41279 0.26166 0.0
C8 C 0.05036 0.46699 0.27902 0.0
O9 O 0.05459 0.4951 0.27785 0.0
N10 N 0.05772 0.49672 0.21752 0.0
C11 C 0.07147 0.5218 0.21167 0.0
C12 C 0.0513 0.54404 0.21232 0.0
C13 C 0.02952 0.50406 0.22161 0.0
N14 N 0.02498 0.53273 0.21852 0.0
C15 C 0.12809 0.47197 0.19902 0.0
C16 C 0.15343 0.44053 0.24271 0.0
C17 C 0.16605 0.43879 0.21473 0.0
C18 C 0.15422 0.45721 0.19359 0.0
C19 C 0.12718 0.45596 0.24702 0.0
N20 N 0.11248 0.46704 0.22383 0.0
H21 H 0.11857 0.48389 0.18127 0.0
H22 H 0.11673 0.45498 0.26797 0.0
H23 H 0.09422 0.52386 0.20652 0.0
H24 H 0.01248 0.48854 0.22612 0.0
O25 O 0.07423 0.45933 0.17414 0.0
O26 O 0.03434 0.44699 0.19728 0.0
O27 O 0.05869 0.45061 0.25823 0.0
C28 C 0.04703 0.4529 0.17268 0.0
H29 H 0.08497 0.35949 0.25726 0.0
H30 H 0.05557 0.56668 0.2078 0.0
H31 H 0.16204 0.42808 0.26062 0.0
H32 H 0.16395 0.45893 0.17231 0.0
Co33 Co 0.96499 0.82133 0.46627 0.0
C34 C 0.02673 0.82298 0.44961 0.0
C35 C 0.01908 0.84153 0.4912 0.0
C36 C 0.04778 0.83571 0.48914 0.0
N37 N 1.00532 0.83313 0.46663 0.0
N38 N 0.0526 0.82384 0.46315 0.0
H39 H 0.02317 0.81043 0.43018 0.0
H40 H 1.00906 0.84597 0.51176 0.0
C41 C 0.95487 0.80029 0.5291 0.0
O42 O 0.92676 0.80452 0.52793 0.0
N43 N 0.92517 0.80767 0.4676 0.0
C44 C 0.90009 0.82142 0.46176 0.0
C45 C 0.87785 0.80125 0.4624 0.0
C46 C 0.91784 0.77947 0.47168 0.0
N47 N 0.88918 0.77493 0.46859 0.0
C48 C 0.94988 0.87805 0.44913 0.0
C49 C 0.98131 0.90338 0.49282 0.0
C50 C 0.98305 0.91601 0.46484 0.0
C51 C 0.96464 0.90418 0.44371 0.0
C52 C 0.96589 0.87713 0.49712 0.0
N53 N 0.95482 0.86243 0.47393 0.0
H54 H 0.93798 0.86853 0.43138 0.0
H55 H 0.96687 0.86668 0.51807 0.0
H56 H 0.89802 0.84418 0.45662 0.0
H57 H 0.93337 0.76243 0.47617 0.0
O58 O 0.96257 0.8242 0.42423 0.0
O59 O 0.97491 0.78431 0.44735 0.0
O60 O 0.97126 0.80863 0.50831 0.0
C61 C 0.96902 0.79701 0.42275 0.0
H62 H 0.06238 0.83492 0.50735 0.0
H63 H 0.85521 0.80552 0.45788 0.0
H64 H 0.99375 0.91198 0.51073 0.0
H65 H 0.96292 0.91392 0.42243 0.0
Co66 Co 0.60045 0.715 0.71623 0.0
C67 C 0.59882 0.77674 0.69956 0.0
C68 C 0.58025 0.76911 0.74114 0.0
C69 C 0.58608 0.79781 0.73908 0.0
N70 N 0.58866 0.75535 0.71658 0.0
N71 N 0.59797 0.80262 0.71309 0.0
H72 H 0.61139 0.77317 0.68013 0.0
H73 H 0.5758 0.75911 0.76171 0.0
C74 C 0.62146 0.7049 0.77906 0.0
O75 O 0.61723 0.67679 0.7779 0.0
N76 N 0.6141 0.67518 0.71757 0.0
C77 C 0.60035 0.6501 0.71174 0.0
C78 C 0.62052 0.62786 0.71239 0.0
C79 C 0.6423 0.66783 0.72166 0.0
N80 N 0.64683 0.63917 0.71858 0.0
C81 C 0.54374 0.69993 0.69908 0.0
C82 C 0.51839 0.73139 0.74275 0.0
C83 C 0.50578 0.73313 0.71477 0.0
C84 C 0.51762 0.7147 0.69365 0.0
C85 C 0.54463 0.71595 0.74707 0.0
N86 N 0.55934 0.70486 0.72389 0.0
H87 H 0.55327 0.688 0.68135 0.0
H88 H 0.55507 0.71693 0.76802 0.0
H89 H 0.57759 0.64804 0.7066 0.0
H90 H 0.65934 0.68335 0.72615 0.0
O91 O 0.5976 0.71258 0.67419 0.0
O92 O 0.63749 0.7249 0.69732 0.0
O93 O 0.61313 0.72128 0.75827 0.0
C94 C 0.6248 0.71901 0.67272 0.0
H95 H 0.58687 0.81241 0.75729 0.0
H96 H 0.61625 0.60521 0.70787 0.0
H97 H 0.50978 0.74385 0.76065 0.0
H98 H 0.50789 0.71298 0.67237 0.0
Co99 Co 0.70685 0.3505 0.96633 0.0
C100 C 0.64511 0.34887 0.94971 0.0
C101 C 0.65276 0.33031 0.9913 0.0
C102 C 0.62406 0.33614 0.98926 0.0
N103 N 0.66651 0.33871 0.96672 0.0
N104 N 0.61923 0.34802 0.96327 0.0
H105 H 0.64867 0.36142 0.93028 0.0
H106 H 0.66278 0.32586 0.01185 0.0
C107 C 0.71698 0.37153 0.02915 0.0
O108 O 0.74509 0.36732 0.02796 0.0
N109 N 0.74667 0.36415 0.96763 0.0
C110 C 0.77176 0.35039 0.96179 0.0
C111 C 0.79399 0.37056 0.96241 0.0
C112 C 0.75401 0.39235 0.97171 0.0
N113 N 0.78267 0.39688 0.9686 0.0
C114 C 0.72197 0.29379 0.94916 0.0
C115 C 0.69051 0.26842 0.99283 0.0
C116 C 0.68879 0.25581 0.96485 0.0
C117 C 0.70722 0.26766 0.94373 0.0
C118 C 0.70592 0.29467 0.99716 0.0
N119 N 0.71702 0.30939 0.97398 0.0
H120 H 0.73388 0.30333 0.93143 0.0
H121 H 0.70494 0.3051 0.01811 0.0
H122 H 0.77382 0.32764 0.95666 0.0
H123 H 0.73848 0.40938 0.9762 0.0
O124 O 0.70926 0.34764 0.92429 0.0
O125 O 0.69693 0.38753 0.94742 0.0
O126 O 0.70059 0.36318 1.00838 0.0
C127 C 0.70282 0.37484 0.92281 0.0
H128 H 0.60947 0.33694 1.00748 0.0
H129 H 0.81664 0.36629 0.95789 0.0
H130 H 0.67806 0.2598 0.01074 0.0
H131 H 0.70895 0.25794 0.92245 0.0
Co132 Co 0.07135 0.71508 0.45553 0.0
C133 C 0.07289 0.77683 0.47214 0.0
C134 C 0.09154 0.76919 0.43059 0.0
C135 C 0.08567 0.79789 0.43259 0.0
N136 N 0.08311 0.75543 0.45516 0.0
N137 N 0.07372 0.80268 0.45855 0.0
H138 H 0.06031 0.77327 0.49156 0.0
H139 H 0.09603 0.75917 0.41004 0.0
C140 C 0.05033 0.70497 0.39271 0.0
O141 O 0.05455 0.67686 0.39389 0.0
N142 N 0.05772 0.67526 0.45422 0.0
C143 C 0.07149 0.65018 0.46004 0.0
C144 C 0.05133 0.62793 0.45939 0.0
C145 C 0.02952 0.66791 0.45013 0.0
N146 N 0.02501 0.63924 0.45321 0.0
C147 C 0.12805 0.69998 0.47273 0.0
C148 C 0.15344 0.73146 0.42909 0.0
C149 C 0.16602 0.73318 0.45708 0.0
C150 C 0.15416 0.71474 0.47819 0.0
C151 C 0.1272 0.71604 0.42474 0.0
N152 N 0.11247 0.70494 0.44791 0.0
H153 H 0.1185 0.68805 0.49045 0.0
H154 H 0.11679 0.71702 0.40378 0.0
H155 H 0.09424 0.64812 0.46517 0.0
H156 H 0.01248 0.68342 0.44564 0.0
O157 O 0.07419 0.71267 0.49758 0.0
O158 O 0.0343 0.72498 0.47443 0.0
O159 O 0.05868 0.72136 0.41348 0.0
C160 C 0.04699 0.71909 0.49904 0.0
H161 H 0.08489 0.81247 0.41437 0.0
H162 H 0.05562 0.60528 0.4639 0.0
H163 H 0.16207 0.74392 0.4112 0.0
H164 H 0.16387 0.713 0.49948 0.0
Co165 Co 0.70674 0.82129 0.70548 0.0
C166 C 0.64498 0.82287 0.72208 0.0
C167 C 0.65265 0.84151 0.68053 0.0
C168 C 0.62395 0.83566 0.68253 0.0
N169 N 0.66639 0.83308 0.7051 0.0
N170 N 0.61914 0.82372 0.70849 0.0
H171 H 0.64853 0.81029 0.7415 0.0
H172 H 0.66268 0.846 0.65998 0.0
C173 C 0.71687 0.80026 0.64266 0.0
O174 O 0.74499 0.80447 0.64384 0.0
N175 N 0.74656 0.80764 0.70417 0.0
C176 C 0.77164 0.82139 0.70999 0.0
C177 C 0.79389 0.80122 0.70934 0.0
C178 C 0.75391 0.77943 0.70009 0.0
N179 N 0.78257 0.7749 0.70317 0.0
C180 C 0.72185 0.87799 0.72266 0.0
C181 C 0.6904 0.90338 0.679 0.0
C182 C 0.68867 0.91598 0.70699 0.0
C183 C 0.7071 0.90412 0.72811 0.0
C184 C 0.70582 0.87713 0.67467 0.0
N185 N 0.7169 0.8624 0.69784 0.0
H186 H 0.73377 0.86844 0.74039 0.0
H187 H 0.70485 0.86671 0.65371 0.0
H188 H 0.7737 0.84415 0.71511 0.0
H189 H 0.73839 0.7624 0.6956 0.0
O190 O 0.70913 0.82414 0.74752 0.0
O191 O 0.69682 0.78425 0.72439 0.0
O192 O 0.70048 0.80862 0.66344 0.0
C193 C 0.70271 0.79695 0.749 0.0
H194 H 0.60937 0.83489 0.6643 0.0
H195 H 0.81653 0.80549 0.71385 0.0
H196 H 0.67795 0.91202 0.66111 0.0
H197 H 0.70883 0.91383 0.74939 0.0
Co198 Co 0.60053 0.45679 0.95563 0.0
C199 C 0.59898 0.39504 0.97225 0.0
C200 C 0.58032 0.40269 0.93072 0.0
C201 C 0.58617 0.37399 0.93273 0.0
N202 N 0.58876 0.41644 0.95528 0.0
N203 N 0.59813 0.36919 0.95868 0.0
H204 H 0.61157 0.39859 0.99166 0.0
H205 H 0.57582 0.41271 0.91017 0.0
C206 C 0.62154 0.4669 0.89279 0.0
O207 O 0.61731 0.49501 0.89396 0.0
N208 N 0.61416 0.49661 0.95429 0.0
C209 C 0.6004 0.52169 0.96014 0.0
C210 C 0.62056 0.54393 0.95948 0.0
C211 C 0.64236 0.50396 0.95019 0.0
N212 N 0.64688 0.53262 0.95328 0.0
C213 C 0.54382 0.47187 0.97282 0.0
C214 C 0.51846 0.44045 0.92914 0.0
C215 C 0.50585 0.43869 0.95713 0.0
C216 C 0.5177 0.45711 0.97826 0.0
C217 C 0.5447 0.45587 0.92482 0.0
N218 N 0.55942 0.46694 0.948 0.0
H219 H 0.55335 0.48378 0.99056 0.0
H220 H 0.55513 0.45491 0.90386 0.0
H221 H 0.57765 0.52375 0.96529 0.0
H222 H 0.6594 0.48844 0.94569 0.0
O223 O 0.59768 0.4592 0.99768 0.0
O224 O 0.63757 0.44688 0.97452 0.0
O225 O 0.6132 0.45051 0.91358 0.0
C226 C 0.62488 0.45277 0.99913 0.0
H227 H 0.58692 0.3594 0.91451 0.0
H228 H 0.61628 0.56658 0.964 0.0
H229 H 0.50984 0.42801 0.91124 0.0
H230 H 0.50797 0.45882 0.99955 0.0
Co231 Co 0.9651 0.3506 0.2055 0.0
C232 C 0.02685 0.34902 0.22208 0.0
C233 C 0.01919 0.33038 0.18054 0.0
C234 C 0.04789 0.33624 0.18253 0.0
N235 N 1.00544 0.33881 0.20511 0.0
N236 N 0.0527 0.34818 0.20848 0.0
H237 H 0.0233 0.3616 0.2415 0.0
H238 H 1.00916 0.32589 0.16 0.0
C239 C 0.95497 0.37164 0.14268 0.0
O240 O 0.92686 0.36743 0.14387 0.0
N241 N 0.92528 0.36426 0.2042 0.0
C242 C 0.90019 0.3505 0.21003 0.0
C243 C 0.87795 0.37067 0.20939 0.0
C244 C 0.91793 0.39246 0.20012 0.0
N245 N 0.88926 0.39699 0.2032 0.0
C246 C 0.94998 0.2939 0.2227 0.0
C247 C 0.98143 0.26851 0.17904 0.0
C248 C 0.98316 0.25591 0.20703 0.0
C249 C 0.96473 0.26777 0.22815 0.0
C250 C 0.96602 0.29476 0.1747 0.0
N251 N 0.95493 0.30949 0.19787 0.0
H252 H 0.93806 0.30345 0.24043 0.0
H253 H 0.96699 0.30519 0.15374 0.0
H254 H 0.89813 0.32774 0.21516 0.0
H255 H 0.93345 0.4095 0.19562 0.0
O256 O 0.9627 0.34774 0.24755 0.0
O257 O 0.97501 0.38763 0.2244 0.0
O258 O 0.97136 0.36328 0.16345 0.0
C259 C 0.96913 0.37494 0.24901 0.0
H260 H 0.06247 0.337 0.1643 0.0
H261 H 0.85531 0.3664 0.21391 0.0
H262 H 0.99388 0.25988 0.16114 0.0
H263 H 0.96299 0.25806 0.24944 0.0
Co264 Co 0.21618 0.07138 0.4569 0.0
C265 C 0.19952 0.07301 0.39516 0.0
C266 C 0.24109 0.09158 0.40279 0.0
C267 C 0.23904 0.08575 0.37409 0.0
N268 N 0.21653 0.08317 0.41655 0.0
N269 N 0.21306 0.07386 0.36928 0.0
H270 H 0.1801 0.06044 0.39874 0.0
H271 H 0.26165 0.09604 0.41279 0.0
C272 C 0.27902 0.05037 0.46699 0.0
O273 O 0.27784 0.0546 0.4951 0.0
N274 N 0.21751 0.05773 0.49672 0.0
C275 C 0.21166 0.07148 0.5218 0.0
C276 C 0.21231 0.05131 0.54404 0.0
C277 C 0.22161 0.02952 0.50406 0.0
N278 N 0.21852 0.02499 0.53272 0.0
C279 C 0.19901 0.1281 0.47197 0.0
C280 C 0.24269 0.15344 0.44052 0.0
C281 C 0.21471 0.16606 0.43878 0.0
C282 C 0.19358 0.15422 0.45721 0.0
C283 C 0.24701 0.12719 0.45595 0.0
N284 N 0.22382 0.11248 0.46704 0.0
H285 H 0.18126 0.11857 0.48389 0.0
H286 H 0.26796 0.11675 0.45497 0.0
H287 H 0.20651 0.09423 0.52386 0.0
H288 H 0.22611 0.01249 0.48854 0.0
O289 O 0.17413 0.07423 0.45933 0.0
O290 O 0.19728 0.03434 0.447 0.0
O291 O 0.25822 0.0587 0.45061 0.0
C292 C 0.17267 0.04703 0.4529 0.0
H293 H 0.25726 0.08496 0.35949 0.0
H294 H 0.20779 0.05558 0.56668 0.0
H295 H 0.2606 0.16205 0.42807 0.0
H296 H 0.17229 0.16395 0.45893 0.0
Co297 Co 0.35048 0.96635 0.70686 0.0
C298 C 0.34884 0.94972 0.64511 0.0
C299 C 0.33029 0.9913 0.65276 0.0
C300 C 0.33612 0.98926 0.62406 0.0
N301 N 0.33869 0.96673 0.66652 0.0
N302 N 0.348 0.96326 0.61924 0.0
H303 H 0.36139 0.93028 0.64868 0.0
H304 H 0.32585 0.01186 0.66277 0.0
C305 C 0.37151 0.02917 0.71698 0.0
O306 O 0.36728 0.02799 0.74509 0.0
N307 N 0.36412 0.96766 0.74667 0.0
C308 C 0.35037 0.96182 0.77176 0.0
C309 C 0.37054 0.96246 0.794 0.0
C310 C 0.39233 0.97173 0.75401 0.0
N311 N 0.39686 0.96864 0.78267 0.0
C312 C 0.29377 0.94918 0.72197 0.0
C313 C 0.2684 0.99284 0.6905 0.0
C314 C 0.2558 0.96485 0.68879 0.0
C315 C 0.26765 0.94373 0.70722 0.0
C316 C 0.29464 0.99717 0.70592 0.0
N317 N 0.30937 0.974 0.71702 0.0
H318 H 0.30331 0.93145 0.7339 0.0
H319 H 0.30507 0.01813 0.70493 0.0
H320 H 0.32762 0.9567 0.77383 0.0
H321 H 0.40936 0.97622 0.73848 0.0
O322 O 0.34762 0.9243 0.70927 0.0
O323 O 0.38751 0.94744 0.69693 0.0
O324 O 0.36316 1.00839 0.70059 0.0
C325 C 0.37482 0.92283 0.70283 0.0
H326 H 0.33693 1.00748 0.60947 0.0
H327 H 0.36627 0.95795 0.81664 0.0
H328 H 0.25977 0.01073 0.67804 0.0
H329 H 0.25793 0.92245 0.70896 0.0
Co330 Co 0.45565 0.10047 0.95687 0.0
C331 C 0.47232 0.09886 0.89513 0.0
C332 C 0.43074 0.08031 0.90276 0.0
C333 C 0.4328 0.08614 0.87406 0.0
N334 N 0.4553 0.0887 0.91652 0.0
N335 N 0.4588 0.09802 0.86925 0.0
H336 H 0.49175 0.11141 0.8987 0.0
H337 H 0.41017 0.07586 0.91276 0.0
C338 C 0.39281 0.12149 0.96697 0.0
O339 O 0.39398 0.11725 0.99508 0.0
N340 N 0.45431 0.1141 0.99669 0.0
C341 C 0.46014 0.10034 0.02176 0.0
C342 C 0.45949 0.1205 0.04401 0.0
C343 C 0.45022 0.14231 1.00403 0.0
N344 N 0.45329 0.14682 0.0327 0.0
C345 C 0.47279 0.04374 0.97193 0.0
C346 C 0.4291 0.01843 0.94049 0.0
C347 C 0.45708 1.0058 0.93875 0.0
C348 C 0.47822 0.01762 0.95717 0.0
C349 C 0.4248 0.04467 0.95592 0.0
N350 N 0.44799 0.05936 0.96701 0.0
H351 H 0.49054 0.05326 0.98385 0.0
H352 H 0.40385 0.05513 0.95495 0.0
H353 H 0.46529 0.07759 0.02382 0.0
H354 H 0.44572 0.15935 0.98851 0.0
O355 O 0.49769 0.0976 0.95929 0.0
O356 O 0.47456 0.1375 0.94696 0.0
O357 O 0.41361 0.11317 0.95058 0.0
C358 C 0.49917 0.1248 0.95286 0.0
H359 H 0.41459 0.08695 0.85947 0.0
H360 H 0.464 0.11622 0.06665 0.0
H361 H 0.4112 0.00983 0.92804 0.0
H362 H 0.49949 1.00788 0.95888 0.0
Co363 Co 0.32135 0.20556 0.20687 0.0
C364 C 0.323 0.22222 0.14513 0.0
C365 C 0.34156 0.18063 0.15277 0.0
C366 C 0.33574 0.18269 0.12407 0.0
N367 N 0.33315 0.2052 0.16653 0.0
N368 N 0.32386 0.20869 0.11926 0.0
H369 H 0.31044 0.24165 0.1487 0.0
H370 H 0.34601 0.16007 0.16278 0.0
C371 C 0.30033 0.14273 0.21699 0.0
O372 O 0.30455 0.1439 0.2451 0.0
N373 N 0.30769 0.20423 0.24669 0.0
C374 C 0.32144 0.21006 0.27177 0.0
C375 C 0.30126 0.20942 0.29401 0.0
C376 C 0.27948 0.20015 0.25403 0.0
N377 N 0.27495 0.20324 0.28269 0.0
C378 C 0.37806 0.2227 0.22197 0.0
C379 C 0.40341 0.17901 0.19052 0.0
C380 C 0.41604 0.20699 0.18879 0.0
C381 C 0.40419 0.22812 0.20721 0.0
C382 C 0.37716 0.1747 0.20594 0.0
N383 N 0.36245 0.19789 0.21703 0.0
H384 H 0.36853 0.24044 0.23389 0.0
H385 H 0.36672 0.15375 0.20496 0.0
H386 H 0.34419 0.21519 0.27384 0.0
H387 H 0.26245 0.19566 0.23851 0.0
O388 O 0.32422 0.2476 0.20929 0.0
O389 O 0.28432 0.22448 0.19696 0.0
O390 O 0.30867 0.16352 0.2006 0.0
C391 C 0.29702 0.24908 0.20285 0.0
H392 H 0.33495 0.16448 0.10948 0.0
H393 H 0.30552 0.21393 0.31666 0.0
H394 H 0.41203 0.16111 0.17807 0.0
H395 H 0.41392 0.2494 0.20894 0.0
Co396 Co 0.21632 0.10055 0.21508 0.0
C397 C 0.19963 0.09892 0.27681 0.0
C398 C 0.24122 0.08035 0.2692 0.0
C399 C 0.23914 0.08619 0.2979 0.0
N400 N 0.21666 0.08876 0.25543 0.0
N401 N 0.21315 0.09807 0.30269 0.0
H402 H 0.1802 0.11147 0.27323 0.0
H403 H 0.26179 0.0759 0.2592 0.0
C404 C 0.27916 0.12154 0.20498 0.0
O405 O 0.27799 0.11733 0.17686 0.0
N406 N 0.21767 0.11419 0.17526 0.0
C407 C 0.21185 0.10043 0.15018 0.0
C408 C 0.2125 0.1206 0.12793 0.0
C409 C 0.22175 0.1424 0.16791 0.0
N410 N 0.21868 0.14692 0.13924 0.0
C411 C 0.19916 0.04384 0.19998 0.0
C412 C 0.2428 0.01848 0.23148 0.0
C413 C 0.21482 1.00587 0.23319 0.0
C414 C 0.19371 0.01772 0.21475 0.0
C415 C 0.24714 0.04472 0.21605 0.0
N416 N 0.22398 0.05944 0.20494 0.0
H417 H 0.18144 0.05338 0.18805 0.0
H418 H 0.2681 0.05515 0.21704 0.0
H419 H 0.20672 0.07768 0.14812 0.0
H420 H 0.22623 0.15943 0.18343 0.0
O421 O 0.17428 0.09769 0.21265 0.0
O422 O 0.19741 0.13758 0.22498 0.0
O423 O 0.25836 0.11322 0.22136 0.0
C424 C 0.1728 0.12489 0.21908 0.0
H425 H 0.25735 0.08699 0.3125 0.0
H426 H 0.20801 0.11633 0.10529 0.0
H427 H 0.26069 0.00986 0.24395 0.0
H428 H 0.17243 1.008 0.21301 0.0
Co429 Co 0.32126 0.96637 0.4651 0.0
C430 C 0.32289 0.94971 0.52684 0.0
C431 C 0.34143 0.99131 0.51919 0.0
C432 C 0.33559 0.98925 0.54789 0.0
N433 N 0.33304 0.96674 0.50544 0.0
N434 N 0.32373 0.96325 0.55271 0.0
H435 H 0.31035 0.93028 0.52327 0.0
H436 H 0.34586 0.01187 0.50918 0.0
C437 C 0.30021 0.0292 0.45497 0.0
O438 O 0.30443 0.02802 0.42686 0.0
N439 N 0.30761 0.96769 0.42528 0.0
C440 C 0.32137 0.96187 0.4002 0.0
C441 C 0.3012 0.96252 0.37796 0.0
C442 C 0.2794 0.97177 0.41794 0.0
N443 N 0.27488 0.9687 0.38928 0.0
C444 C 0.37797 0.94922 0.44998 0.0
C445 C 0.40331 0.99288 0.48144 0.0
C446 C 0.41594 0.9649 0.48315 0.0
C447 C 0.4041 0.94378 0.46472 0.0
C448 C 0.37706 0.99721 0.46603 0.0
N449 N 0.36236 0.97403 0.45493 0.0
H450 H 0.36844 0.93149 0.43806 0.0
H451 H 0.36662 0.01816 0.46702 0.0
H452 H 0.34413 0.95675 0.39813 0.0
H453 H 0.26236 0.97625 0.43347 0.0
O454 O 0.32414 0.92432 0.46269 0.0
O455 O 0.28423 0.94745 0.47502 0.0
O456 O 0.30856 1.00841 0.47137 0.0
C457 C 0.29694 0.92285 0.46913 0.0
H458 H 0.33477 1.00747 0.56248 0.0
H459 H 0.30548 0.95802 0.35531 0.0
H460 H 0.41193 0.01078 0.49389 0.0
H461 H 0.41384 0.9225 0.46298 0.0
Co462 Co 0.45551 0.07137 0.71506 0.0
C463 C 0.47218 0.07298 0.77679 0.0
C464 C 0.43059 0.09154 0.76918 0.0
C465 C 0.43266 0.0857 0.79787 0.0
N466 N 0.45515 0.08314 0.7554 0.0
N467 N 0.45865 0.07382 0.80267 0.0
H468 H 0.49162 0.06043 0.77321 0.0
H469 H 0.41002 0.09599 0.75918 0.0
C470 C 0.39268 0.05036 0.70495 0.0
O471 O 0.39386 0.05458 0.67684 0.0
N472 N 0.45419 0.05773 0.67523 0.0
C473 C 0.46001 0.0715 0.65015 0.0
C474 C 0.45936 0.05134 0.62791 0.0
C475 C 0.45011 0.02953 0.66789 0.0
N476 N 0.45318 0.02501 0.63922 0.0
C477 C 0.47269 0.12807 0.69995 0.0
C478 C 0.42907 0.15344 0.73147 0.0
C479 C 0.45706 0.16603 0.73317 0.0
C480 C 0.47816 0.15418 0.71471 0.0
C481 C 0.42471 0.12721 0.71604 0.0
N482 N 0.44787 0.11248 0.70491 0.0
H483 H 0.49041 0.11853 0.688 0.0
H484 H 0.40375 0.11679 0.71704 0.0
H485 H 0.46513 0.09425 0.64809 0.0
H486 H 0.44562 0.01249 0.68341 0.0
O487 O 0.49756 0.07422 0.71263 0.0
O488 O 0.47442 0.03432 0.72496 0.0
O489 O 0.41347 0.0587 0.72134 0.0
C490 C 0.49903 0.04701 0.71906 0.0
H491 H 0.41444 0.08489 0.81247 0.0
H492 H 0.46386 0.05562 0.60526 0.0
H493 H 0.41119 0.16206 0.74395 0.0
H494 H 0.49945 0.16389 0.71296 0.0
Co495 Co 0.3506 0.20551 0.96507 0.0
C496 C 0.34895 0.22216 0.02681 0.0
C497 C 0.3304 0.18058 0.01918 0.0
C498 C 0.33622 0.18263 0.04788 0.0
N499 N 0.3388 0.20514 1.00541 0.0
N500 N 0.3481 0.20862 0.05269 0.0
H501 H 0.3615 0.24159 0.02323 0.0
H502 H 0.32595 0.16002 1.00917 0.0
C503 C 0.37162 0.14268 0.95496 0.0
O504 O 0.36741 0.14386 0.92685 0.0
N505 N 0.36426 0.20418 0.92525 0.0
C506 C 0.35051 0.21001 0.90017 0.0
C507 C 0.37069 0.20937 0.87793 0.0
C508 C 0.39247 0.2001 0.91791 0.0
N509 N 0.39701 0.20318 0.88925 0.0
C510 C 0.2939 0.22268 0.94995 0.0
C511 C 0.26853 0.17904 0.98144 0.0
C512 C 0.25592 0.20702 0.98315 0.0
C513 C 0.26777 0.22814 0.9647 0.0
C514 C 0.29478 0.1747 0.96602 0.0
N515 N 0.3095 0.19786 0.95491 0.0
H516 H 0.30344 0.24041 0.93802 0.0
H517 H 0.30521 0.15374 0.96701 0.0
H518 H 0.32776 0.21514 0.8981 0.0
H519 H 0.4095 0.19561 0.93344 0.0
O520 O 0.34774 0.24755 0.96265 0.0
O521 O 0.38763 0.22441 0.97499 0.0
O522 O 0.36328 0.16346 0.97135 0.0
C523 C 0.37494 0.24902 0.96909 0.0
H524 H 0.33702 0.16442 0.06248 0.0
H525 H 0.36642 0.21388 0.85528 0.0
H526 H 0.25991 0.16114 0.9939 0.0
H527 H 0.25805 0.24942 0.96296 0.0
Co528 Co 0.45686 0.21621 0.07138 0.0
C529 C 0.39511 0.19962 0.07295 0.0
C530 C 0.40277 0.24116 0.09159 0.0
C531 C 0.37407 0.23917 0.08572 0.0
N532 N 0.41651 0.21659 0.08316 0.0
N533 N 0.36927 0.21321 0.07378 0.0
H534 H 0.39867 0.1802 0.06037 0.0
H535 H 0.41279 0.2617 0.09607 0.0
C536 C 0.46698 0.27904 0.05035 0.0
O537 O 0.49509 0.27785 0.05457 0.0
N538 N 0.49669 0.21752 0.05773 0.0
C539 C 0.52176 0.21168 0.07149 0.0
C540 C 0.54401 0.21233 0.05132 0.0
C541 C 0.50404 0.22161 0.02953 0.0
N542 N 0.5327 0.21853 0.025 0.0
C543 C 0.47194 0.19902 0.12809 0.0
C544 C 0.44051 0.24271 0.15345 0.0
C545 C 0.43876 0.21472 0.16606 0.0
C546 C 0.45718 0.19359 0.15422 0.0
C547 C 0.45594 0.24702 0.1272 0.0
N548 N 0.46701 0.22384 0.11249 0.0
H549 H 0.48386 0.18128 0.11856 0.0
H550 H 0.45497 0.26798 0.11677 0.0
H551 H 0.52382 0.20654 0.09424 0.0
H552 H 0.48852 0.22611 0.01249 0.0
O553 O 0.45927 0.17416 0.07424 0.0
O554 O 0.44696 0.19731 0.03434 0.0
O555 O 0.45059 0.25825 0.0587 0.0
C556 C 0.45285 0.1727 0.04704 0.0
H557 H 0.35949 0.2574 0.08495 0.0
H558 H 0.56666 0.20781 0.0556 0.0
H559 H 0.42807 0.26062 0.16207 0.0
H560 H 0.4589 0.1723 0.16394 0.0
Co561 Co 0.95685 0.45565 0.10046 0.0
C562 C 0.8951 0.47229 0.09886 0.0
C563 C 0.90275 0.43071 0.08031 0.0
C564 C 0.87405 0.43275 0.08616 0.0
N565 N 0.9165 0.45528 0.0887 0.0
N566 N 0.86923 0.45874 0.09803 0.0
H567 H 0.89866 0.49172 0.11141 0.0
H568 H 0.91277 0.41015 0.07586 0.0
C569 C 0.96698 0.39282 0.12149 0.0
O570 O 0.9951 0.394 0.11727 0.0
N571 N 0.99667 0.45434 0.11409 0.0
C572 C 0.02175 0.46018 0.10032 0.0
C573 C 0.044 0.45955 0.12048 0.0
C574 C 1.00402 0.45026 0.14229 0.0
N575 N 0.03269 0.45336 0.1468 0.0
C576 C 0.97191 0.47282 0.04374 0.0
C577 C 0.94047 0.42913 0.01841 0.0
C578 C 0.93873 0.45711 1.00579 0.0
C579 C 0.95715 0.47824 0.01762 0.0
C580 C 0.9559 0.42482 0.04465 0.0
N581 N 0.96699 0.448 0.05935 0.0
H582 H 0.98382 0.49056 0.05326 0.0
H583 H 0.95493 0.40387 0.0551 0.0
H584 H 0.0238 0.46532 0.07756 0.0
H585 H 0.98851 0.44575 0.15933 0.0
O586 O 0.95925 0.4977 0.09759 0.0
O587 O 0.94694 0.47456 0.1375 0.0
O588 O 0.95059 0.41361 0.11316 0.0
C589 C 0.95282 0.49917 0.1248 0.0
H590 H 0.85947 0.41453 0.08697 0.0
H591 H 0.06664 0.46406 0.11619 0.0
H592 H 0.92803 0.41122 1.00981 0.0
H593 H 0.95886 0.49953 1.00788 0.0
Co594 Co 0.96633 0.70686 0.35048 0.0
C595 C 0.94972 0.64511 0.34885 0.0
C596 C 0.99131 0.65277 0.3303 0.0
C597 C 0.98927 0.62406 0.33613 0.0
N598 N 0.96673 0.66651 0.3387 0.0
N599 N 0.96328 0.61924 0.34801 0.0
H600 H 0.93028 0.64867 0.3614 0.0
H601 H 0.01186 0.66279 0.32586 0.0
C602 C 0.02915 0.71699 0.37152 0.0
O603 O 0.02796 0.74511 0.36732 0.0
N604 N 0.96763 0.74668 0.36413 0.0
C605 C 0.96178 0.77176 0.35038 0.0
C606 C 0.9624 0.794 0.37055 0.0
C607 C 0.97169 0.75401 0.39234 0.0
N608 N 0.96857 0.78267 0.39687 0.0
C609 C 0.94916 0.72197 0.29378 0.0
C610 C 0.99282 0.6905 0.26841 0.0
C611 C 0.96484 0.68879 0.2558 0.0
C612 C 0.94371 0.70722 0.26766 0.0
C613 C 0.99715 0.70592 0.29465 0.0
N614 N 0.97398 0.71702 0.30937 0.0
H615 H 0.93143 0.7339 0.30332 0.0
H616 H 0.01811 0.70494 0.30507 0.0
H617 H 0.95667 0.77383 0.32762 0.0
H618 H 0.97619 0.73849 0.40937 0.0
O619 O 0.92429 0.70925 0.34763 0.0
O620 O 0.94743 0.69693 0.38752 0.0
O621 O 1.00838 0.7006 0.36316 0.0
C622 C 0.92282 0.70282 0.37483 0.0
H623 H 1.0075 0.60948 0.33694 0.0
H624 H 0.95788 0.81664 0.36628 0.0
H625 H 0.01072 0.67805 0.25978 0.0
H626 H 0.92243 0.70896 0.25794 0.0
Co627 Co 0.71498 0.71625 0.60047 0.0
C628 C 0.77673 0.6996 0.59884 0.0
C629 C 0.76909 0.74118 0.58028 0.0
C630 C 0.79779 0.73913 0.58611 0.0
N631 N 0.75533 0.71661 0.58868 0.0
N632 N 0.8026 0.71313 0.598 0.0
H633 H 0.77316 0.68016 0.6114 0.0
H634 H 0.75908 0.76174 0.57583 0.0
C635 C 0.70486 0.77908 0.62148 0.0
O636 O 0.67674 0.77791 0.61727 0.0
N637 N 0.67516 0.71757 0.61411 0.0
C638 C 0.65008 0.71174 0.60035 0.0
C639 C 0.62784 0.71237 0.62052 0.0
C640 C 0.66781 0.72165 0.64231 0.0
N641 N 0.63915 0.71855 0.64684 0.0
C642 C 0.69991 0.69909 0.54376 0.0
C643 C 0.73139 0.74275 0.5184 0.0
C644 C 0.73312 0.71476 0.5058 0.0
C645 C 0.71469 0.69364 0.51764 0.0
C646 C 0.71595 0.74708 0.54464 0.0
N647 N 0.70485 0.7239 0.55936 0.0
H648 H 0.68799 0.68135 0.55329 0.0
H649 H 0.71692 0.76803 0.55507 0.0
H650 H 0.64803 0.70661 0.5776 0.0
H651 H 0.68332 0.72615 0.65934 0.0
O652 O 0.71258 0.6742 0.59761 0.0
O653 O 0.72489 0.69734 0.6375 0.0
O654 O 0.72125 0.75829 0.61314 0.0
C655 C 0.719 0.67273 0.62481 0.0
H656 H 0.81238 0.75734 0.58691 0.0
H657 H 0.60519 0.70786 0.61624 0.0
H658 H 0.74384 0.76064 0.50978 0.0
H659 H 0.71297 0.67236 0.50792 0.0
Co660 Co 0.2055 0.9651 0.3506 0.0
C661 C 0.22207 0.02686 0.34902 0.0
C662 C 0.18053 0.01919 0.33039 0.0
C663 C 0.18252 0.04789 0.33625 0.0
N664 N 0.20511 1.00544 0.33881 0.0
N665 N 0.20847 0.0527 0.34818 0.0
H666 H 0.24149 0.0233 0.36159 0.0
H667 H 0.15999 1.00915 0.32591 0.0
C668 C 0.14268 0.95496 0.37165 0.0
O669 O 0.14387 0.92685 0.36744 0.0
N670 N 0.2042 0.92528 0.36426 0.0
C671 C 0.21004 0.90019 0.3505 0.0
C672 C 0.2094 0.87795 0.37067 0.0
C673 C 0.20012 0.91793 0.39246 0.0
N674 N 0.20321 0.88926 0.39699 0.0
C675 C 0.2227 0.94998 0.29391 0.0
C676 C 0.17906 0.98144 0.26851 0.0
C677 C 0.20705 0.98316 0.25592 0.0
C678 C 0.22816 0.96473 0.26778 0.0
C679 C 0.17471 0.96602 0.29476 0.0
N680 N 0.19788 0.95493 0.3095 0.0
H681 H 0.24043 0.93805 0.30346 0.0
H682 H 0.15374 0.967 0.30518 0.0
H683 H 0.21516 0.89813 0.32775 0.0
H684 H 0.19563 0.93345 0.4095 0.0
O685 O 0.24754 0.96271 0.34774 0.0
O686 O 0.22439 0.97502 0.38764 0.0
O687 O 0.16345 0.97136 0.36328 0.0
C688 C 0.24901 0.96913 0.37494 0.0
H689 H 0.16428 0.06247 0.33702 0.0
H690 H 0.21392 0.85531 0.3664 0.0
H691 H 0.16116 0.99389 0.25988 0.0
H692 H 0.24945 0.96299 0.25807 0.0
Co693 Co 0.21496 0.95559 0.57141 0.0
C694 C 0.27671 0.97222 0.57298 0.0
C695 C 0.26907 0.93066 0.59161 0.0
C696 C 0.29777 0.93268 0.58576 0.0
N697 N 0.25531 0.95523 0.58319 0.0
N698 N 0.30256 0.95865 0.57382 0.0
H699 H 0.27314 0.99164 0.5604 0.0
H700 H 0.25906 0.91011 0.5961 0.0
C701 C 0.20487 0.89277 0.55039 0.0
O702 O 0.17676 0.89394 0.55462 0.0
N703 N 0.17514 0.95427 0.55777 0.0
C704 C 0.15006 0.96009 0.57153 0.0
C705 C 0.12782 0.95944 0.55137 0.0
C706 C 0.1678 0.95019 0.52957 0.0
N707 N 0.13914 0.95326 0.52505 0.0
C708 C 0.19986 0.97277 0.62812 0.0
C709 C 0.23134 0.92911 0.65348 0.0
C710 C 0.23307 0.9571 0.66607 0.0
C711 C 0.21463 0.97822 0.65423 0.0
C712 C 0.21591 0.92478 0.62725 0.0
N713 N 0.20481 0.94795 0.61253 0.0
H714 H 0.18793 0.9905 0.61859 0.0
H715 H 0.21689 0.90382 0.61683 0.0
H716 H 0.14799 0.96522 0.59429 0.0
H717 H 0.18333 0.9457 0.51253 0.0
O718 O 0.21254 0.99764 0.57427 0.0
O719 O 0.22487 0.97451 0.53437 0.0
O720 O 0.22125 0.91355 0.55874 0.0
C721 C 0.21897 0.99911 0.54707 0.0
H722 H 0.31237 0.91447 0.585 0.0
H723 H 0.10517 0.96394 0.55565 0.0
H724 H 0.2438 0.91121 0.66211 0.0
H725 H 0.2129 0.9995 0.66395 0.0
Co726 Co 0.96636 0.4651 0.32126 0.0
C727 C 0.94971 0.52685 0.32289 0.0
C728 C 0.9913 0.5192 0.34142 0.0
C729 C 0.98924 0.5479 0.33559 0.0
N730 N 0.96673 0.50544 0.33304 0.0
N731 N 0.96324 0.55272 0.32373 0.0
H732 H 0.93027 0.52328 0.31035 0.0
H733 H 0.01186 0.50918 0.34586 0.0
C734 C 0.02918 0.45498 0.30022 0.0
O735 O 0.02801 0.42686 0.30443 0.0
N736 N 0.96768 0.42528 0.30761 0.0
C737 C 0.96186 0.4002 0.32137 0.0
C738 C 0.9625 0.37796 0.30121 0.0
C739 C 0.97175 0.41794 0.27941 0.0
N740 N 0.96867 0.38928 0.27488 0.0
C741 C 0.94921 0.44999 0.37797 0.0
C742 C 0.99287 0.48144 0.40331 0.0
C743 C 0.96489 0.48315 0.41594 0.0
C744 C 0.94377 0.46473 0.4041 0.0
C745 C 0.99719 0.46603 0.37706 0.0
N746 N 0.97402 0.45494 0.36236 0.0
H747 H 0.93147 0.43807 0.36844 0.0
H748 H 0.01815 0.46702 0.36662 0.0
H749 H 0.95674 0.39813 0.34413 0.0
H750 H 0.97624 0.43347 0.26237 0.0
O751 O 0.92431 0.46269 0.32413 0.0
O752 O 0.94744 0.47502 0.28423 0.0
O753 O 1.0084 0.47137 0.30856 0.0
C754 C 0.92284 0.46913 0.29693 0.0
H755 H 1.00746 0.56249 0.33477 0.0
H756 H 0.95801 0.35531 0.30549 0.0
H757 H 0.01077 0.49389 0.41193 0.0
H758 H 0.92249 0.46299 0.41384 0.0
Co759 Co 0.70546 0.70677 0.82127 0.0
C760 C 0.72211 0.64502 0.82291 0.0
C761 C 0.68052 0.65267 0.84145 0.0
C762 C 0.68257 0.62397 0.83562 0.0
N763 N 0.70509 0.66643 0.83306 0.0
N764 N 0.70857 0.61915 0.82375 0.0
H765 H 0.74155 0.64859 0.81036 0.0
H766 H 0.65996 0.66269 0.8459 0.0
C767 C 0.64264 0.71691 0.80025 0.0
O768 O 0.64382 0.74502 0.80445 0.0
N769 N 0.70415 0.74659 0.80761 0.0
C770 C 0.70996 0.77168 0.82137 0.0
C771 C 0.70932 0.79392 0.80119 0.0
C772 C 0.70008 0.75394 0.77941 0.0
N773 N 0.70316 0.7826 0.77487 0.0
C774 C 0.72263 0.72188 0.87797 0.0
C775 C 0.67899 0.6904 0.90335 0.0
C776 C 0.70697 0.68869 0.91595 0.0
C777 C 0.72808 0.70713 0.90409 0.0
C778 C 0.67465 0.70582 0.8771 0.0
N779 N 0.69781 0.71693 0.86237 0.0
H780 H 0.74035 0.73381 0.86843 0.0
H781 H 0.65369 0.70483 0.86668 0.0
H782 H 0.71508 0.77374 0.84413 0.0
H783 H 0.69559 0.73842 0.76237 0.0
O784 O 0.74751 0.70917 0.82413 0.0
O785 O 0.72438 0.69686 0.78424 0.0
O786 O 0.66342 0.70051 0.80859 0.0
C787 C 0.74898 0.70275 0.79693 0.0
H788 H 0.66435 0.60939 0.83482 0.0
H789 H 0.71382 0.81657 0.80547 0.0
H790 H 0.6611 0.67793 0.91198 0.0
H791 H 0.74936 0.70886 0.91381 0.0
Co792 Co 0.57129 0.95683 0.71626 0.0
C793 C 0.57291 0.8951 0.69959 0.0
C794 C 0.59148 0.90271 0.74117 0.0
C795 C 0.58565 0.87401 0.73911 0.0
N796 N 0.58308 0.91649 0.71661 0.0
N797 N 0.57376 0.86922 0.71312 0.0
H798 H 0.56035 0.89868 0.68017 0.0
H799 H 0.59593 0.91271 0.76173 0.0
C800 C 0.55026 0.96692 0.7791 0.0
O801 O 0.55449 0.99503 0.77793 0.0
N802 N 0.55764 0.99665 0.7176 0.0
C803 C 0.5714 0.02174 0.71177 0.0
C804 C 0.55122 0.04398 0.71241 0.0
C805 C 0.52943 1.004 0.72169 0.0
N806 N 0.5249 0.03267 0.71859 0.0
C807 C 0.628 0.97192 0.69909 0.0
C808 C 0.65335 0.94043 0.74274 0.0
C809 C 0.66595 0.93871 0.71475 0.0
C810 C 0.65411 0.95716 0.69363 0.0
C811 C 0.62711 0.95586 0.74707 0.0
N812 N 0.61239 0.96697 0.7239 0.0
H813 H 0.61846 0.98386 0.68136 0.0
H814 H 0.61667 0.95487 0.76803 0.0
H815 H 0.59415 0.0238 0.70664 0.0
H816 H 0.5124 0.98848 0.72618 0.0
O817 O 0.57414 0.95927 0.67422 0.0
O818 O 0.53425 0.94694 0.69736 0.0
O819 O 0.55861 0.95054 0.7583 0.0
C820 C 0.54694 0.95284 0.67275 0.0
H821 H 0.58485 0.85941 0.75732 0.0
H822 H 0.5555 0.06663 0.70791 0.0
H823 H 0.66196 0.92796 0.76063 0.0
H824 H 0.66384 0.95889 0.67235 0.0
Co825 Co 0.46509 0.32127 0.96634 0.0
C826 C 0.52684 0.3229 0.94971 0.0
C827 C 0.51919 0.34145 0.99129 0.0
C828 C 0.54789 0.33561 0.98924 0.0
N829 N 0.50544 0.33305 0.96672 0.0
N830 N 0.55271 0.32374 0.96325 0.0
H831 H 0.52328 0.31035 0.93027 0.0
H832 H 0.50917 0.34589 0.01185 0.0
C833 C 0.45496 0.30023 0.02917 0.0
O834 O 0.42685 0.30444 0.02799 0.0
N835 N 0.42528 0.30762 0.96766 0.0
C836 C 0.4002 0.32139 0.96183 0.0
C837 C 0.37796 0.30122 0.96245 0.0
C838 C 0.41794 0.27942 0.97173 0.0
N839 N 0.38928 0.27489 0.96863 0.0
C840 C 0.44998 0.37798 0.94918 0.0
C841 C 0.48142 0.40333 0.99285 0.0
C842 C 0.48315 0.41596 0.96487 0.0
C843 C 0.46472 0.40412 0.94375 0.0
C844 C 0.46602 0.37708 0.99717 0.0
N845 N 0.45493 0.36237 0.974 0.0
H846 H 0.43807 0.36845 0.93145 0.0
H847 H 0.467 0.36664 0.01813 0.0
H848 H 0.39813 0.34414 0.9567 0.0
H849 H 0.43346 0.26238 0.97623 0.0
O850 O 0.4627 0.32414 0.9243 0.0
O851 O 0.47502 0.28424 0.94743 0.0
O852 O 0.47136 0.30857 1.00839 0.0
C853 C 0.46913 0.29694 0.92283 0.0
H854 H 0.56247 0.3348 1.00746 0.0
H855 H 0.35531 0.3055 0.95795 0.0
H856 H 0.49387 0.41195 0.01075 0.0
H857 H 0.46299 0.41385 0.92247 0.0
Co858 Co 0.10055 0.21507 0.21629 0.0
C859 C 0.09893 0.27681 0.19962 0.0
C860 C 0.08034 0.26919 0.2412 0.0
C861 C 0.08618 0.29789 0.23913 0.0
N862 N 0.08876 0.25542 0.21664 0.0
N863 N 0.09807 0.30269 0.21314 0.0
H864 H 0.11149 0.27323 0.18019 0.0
H865 H 0.07588 0.25918 0.26176 0.0
C866 C 0.12155 0.20497 0.27913 0.0
O867 O 0.11733 0.17686 0.27796 0.0
N868 N 0.11419 0.17525 0.21763 0.0
C869 C 0.10044 0.15017 0.2118 0.0
C870 C 0.12061 0.12793 0.21244 0.0
C871 C 0.1424 0.1679 0.22171 0.0
N872 N 0.14693 0.13924 0.21862 0.0
C873 C 0.04384 0.19998 0.19913 0.0
C874 C 0.01847 0.23146 0.24278 0.0
C875 C 1.00588 0.23319 0.21479 0.0
C876 C 0.01772 0.21474 0.19368 0.0
C877 C 0.04472 0.21603 0.24711 0.0
N878 N 0.05944 0.20493 0.22394 0.0
H879 H 0.05338 0.18805 0.1814 0.0
H880 H 0.05514 0.21702 0.26807 0.0
H881 H 0.07768 0.14811 0.20667 0.0
H882 H 0.15943 0.18342 0.22621 0.0
O883 O 0.0977 0.21265 0.17425 0.0
O884 O 0.13759 0.22497 0.19739 0.0
O885 O 0.11321 0.22136 0.25833 0.0
C886 C 0.1249 0.21908 0.17278 0.0
H887 H 0.08696 0.31248 0.25734 0.0
H888 H 0.11634 0.10528 0.20793 0.0
H889 H 0.00985 0.24392 0.26067 0.0
H890 H 1.008 0.21301 0.17239 0.0
Co891 Co 0.2068 0.85057 0.46639 0.0
C892 C 0.14506 0.84892 0.44973 0.0
C893 C 0.15269 0.83037 0.49132 0.0
C894 C 0.12398 0.83619 0.48926 0.0
N895 N 0.16646 0.83877 0.46675 0.0
N896 N 0.11918 0.84807 0.46326 0.0
H897 H 0.14863 0.86148 0.4303 0.0
H898 H 0.16269 0.82593 0.51188 0.0
C899 C 0.2169 0.87158 0.52921 0.0
O900 O 0.24502 0.86738 0.52803 0.0
N901 N 0.24661 0.86422 0.4677 0.0
C902 C 0.2717 0.85047 0.46188 0.0
C903 C 0.29394 0.87065 0.4625 0.0
C904 C 0.25394 0.89243 0.47177 0.0
N905 N 0.2826 0.89697 0.46867 0.0
C906 C 0.22193 0.79387 0.44921 0.0
C907 C 0.19043 0.76849 0.49284 0.0
C908 C 0.18873 0.7559 0.46485 0.0
C909 C 0.20718 0.76776 0.44375 0.0
C910 C 0.20585 0.79473 0.49719 0.0
N911 N 0.21696 0.80946 0.47403 0.0
H912 H 0.23387 0.80342 0.43149 0.0
H913 H 0.20485 0.80515 0.51815 0.0
H914 H 0.27378 0.82772 0.45676 0.0
H915 H 0.23841 0.90946 0.47627 0.0
O916 O 0.20922 0.84772 0.42434 0.0
O917 O 0.19687 0.88761 0.44748 0.0
O918 O 0.20051 0.86324 0.50843 0.0
C919 C 0.20277 0.87492 0.42287 0.0
H920 H 0.10938 0.83698 0.50747 0.0
H921 H 0.31658 0.86638 0.458 0.0
H922 H 0.17796 0.75986 0.51073 0.0
H923 H 0.20893 0.75805 0.42246 0.0
Co924 Co 0.57141 0.21497 0.95562 0.0
C925 C 0.57297 0.27672 0.97223 0.0
C926 C 0.59163 0.26907 0.93069 0.0
C927 C 0.58578 0.29778 0.9327 0.0
N928 N 0.58319 0.25532 0.95525 0.0
N929 N 0.57382 0.30257 0.95866 0.0
H930 H 0.56038 0.27315 0.99165 0.0
H931 H 0.59612 0.25906 0.91014 0.0
C932 C 0.55039 0.20487 0.89279 0.0
O933 O 0.55461 0.17676 0.89396 0.0
N934 N 0.55777 0.17515 0.95429 0.0
C935 C 0.57153 0.15006 0.96013 0.0
C936 C 0.55136 0.12782 0.9595 0.0
C937 C 0.52957 0.16781 0.95022 0.0
N938 N 0.52504 0.13914 0.95332 0.0
C939 C 0.62812 0.19988 0.9728 0.0
C940 C 0.65349 0.23134 0.92912 0.0
C941 C 0.66608 0.23308 0.95711 0.0
C942 C 0.65423 0.21465 0.97824 0.0
C943 C 0.62725 0.2159 0.9248 0.0
N944 N 0.61253 0.20482 0.94798 0.0
H945 H 0.61859 0.18796 0.99053 0.0
H946 H 0.61683 0.21687 0.90384 0.0
H947 H 0.59429 0.148 0.96527 0.0
H948 H 0.51253 0.18333 0.94572 0.0
O949 O 0.57425 0.21255 0.99766 0.0
O950 O 0.53437 0.22488 0.97452 0.0
O951 O 0.55875 0.22126 0.91357 0.0
C952 C 0.54705 0.21898 0.99913 0.0
H953 H 0.58503 0.31238 0.91448 0.0
H954 H 0.55564 0.10518 0.96401 0.0
H955 H 0.66211 0.24379 0.91122 0.0
H956 H 0.66395 0.21293 0.99952 0.0
Co957 Co 0.20685 0.32136 0.20556 0.0
C958 C 0.14509 0.32294 0.22215 0.0
C959 C 0.15277 0.34158 0.1806 0.0
C960 C 0.12407 0.33572 0.18259 0.0
N961 N 0.1665 0.33315 0.20517 0.0
N962 N 0.11925 0.32378 0.20855 0.0
H963 H 0.14863 0.31035 0.24157 0.0
H964 H 0.1628 0.34607 0.16005 0.0
C965 C 0.21699 0.30032 0.14274 0.0
O966 O 0.2451 0.30452 0.14392 0.0
N967 N 0.24667 0.3077 0.20426 0.0
C968 C 0.27175 0.32146 0.2101 0.0
C969 C 0.29399 0.30128 0.20948 0.0
C970 C 0.25402 0.2795 0.20019 0.0
N971 N 0.28268 0.27496 0.2033 0.0
C972 C 0.22194 0.37807 0.22272 0.0
C973 C 0.19053 0.40344 0.17903 0.0
C974 C 0.18877 0.41605 0.20701 0.0
C975 C 0.20718 0.4042 0.22815 0.0
C976 C 0.20595 0.37718 0.17472 0.0
N977 N 0.21701 0.36246 0.19791 0.0
H978 H 0.23384 0.36853 0.24047 0.0
H979 H 0.20499 0.36675 0.15377 0.0
H980 H 0.27381 0.34421 0.21522 0.0
H981 H 0.2385 0.26246 0.19569 0.0
O982 O 0.20924 0.32422 0.2476 0.0
O983 O 0.19693 0.28432 0.22447 0.0
O984 O 0.20059 0.30868 0.16352 0.0
C985 C 0.20281 0.29702 0.24908 0.0
H986 H 0.10949 0.33496 0.16436 0.0
H987 H 0.31663 0.30555 0.21399 0.0
H988 H 0.1781 0.41206 0.16111 0.0
H989 H 0.2089 0.41393 0.24942 0.0
Co990 Co 0.10046 0.95684 0.45566 0.0
C991 C 0.09891 0.89508 0.47226 0.0
C992 C 0.08027 0.90276 0.43071 0.0
C993 C 0.08614 0.87405 0.43271 0.0
N994 N 0.08869 0.91649 0.45528 0.0
N995 N 0.09808 0.86924 0.45867 0.0
H996 H 0.11148 0.89864 0.49168 0.0
H997 H 0.07579 0.91279 0.41017 0.0
C998 C 0.12149 0.96698 0.39283 0.0
O999 O 0.11728 0.9951 0.39401 0.0
N1000 N 0.11408 0.99667 0.45434 0.0
C1001 C 0.10031 0.02174 0.46019 0.0
C1002 C 0.12047 0.04399 0.45955 0.0
C1003 C 0.14228 1.00402 0.45026 0.0
N1004 N 0.1468 0.03268 0.45337 0.0
C1005 C 0.04373 0.97191 0.47284 0.0
C1006 C 0.01839 0.9405 0.42914 0.0
C1007 C 1.00578 0.93874 0.45712 0.0
C1008 C 0.01761 0.95715 0.47826 0.0
C1009 C 0.04464 0.95593 0.42483 0.0
N1010 N 0.05934 0.96699 0.44802 0.0
H1011 H 0.05326 0.98381 0.49058 0.0
H1012 H 0.05508 0.95497 0.40387 0.0
H1013 H 0.07756 0.0238 0.46532 0.0
H1014 H 0.15933 0.98851 0.44576 0.0
O1015 O 0.09759 0.95924 0.49771 0.0
O1016 O 0.13749 0.94694 0.47456 0.0
O1017 O 0.11314 0.95059 0.41361 0.0
C1018 C 0.1248 0.95282 0.49917 0.0
H1019 H 0.08692 0.85948 0.41448 0.0
H1020 H 0.11619 0.06663 0.46407 0.0
H1021 H 1.00978 0.92807 0.41123 0.0
H1022 H 1.00788 0.95886 0.49954 0.0
Co1023 Co 0.46499 0.85055 0.70555 0.0
C1024 C 0.52675 0.84896 0.72212 0.0
C1025 C 0.51908 0.83034 0.68058 0.0
C1026 C 0.54778 0.83619 0.68257 0.0
N1027 N 0.50534 0.83876 0.70516 0.0
N1028 N 0.55259 0.84813 0.70853 0.0
H1029 H 0.52319 0.86154 0.74155 0.0
H1030 H 0.50905 0.82586 0.66004 0.0
C1031 C 0.45487 0.87161 0.64273 0.0
O1032 O 0.42675 0.86741 0.64392 0.0
N1033 N 0.42517 0.86421 0.70424 0.0
C1034 C 0.40009 0.85045 0.71008 0.0
C1035 C 0.37784 0.87063 0.70945 0.0
C1036 C 0.41783 0.89242 0.70018 0.0
N1037 N 0.38916 0.89695 0.70328 0.0
C1038 C 0.44989 0.79384 0.72273 0.0
C1039 C 0.48133 0.76847 0.67905 0.0
C1040 C 0.48306 0.75587 0.70703 0.0
C1041 C 0.46464 0.76771 0.72816 0.0
C1042 C 0.46591 0.79473 0.67473 0.0
N1043 N 0.45483 0.80945 0.69791 0.0
H1044 H 0.43797 0.80338 0.74046 0.0
H1045 H 0.46688 0.80516 0.65377 0.0
H1046 H 0.39802 0.8277 0.7152 0.0
H1047 H 0.43335 0.90945 0.69568 0.0
O1048 O 0.46259 0.84768 0.74759 0.0
O1049 O 0.47491 0.88758 0.72445 0.0
O1050 O 0.47126 0.86324 0.6635 0.0
C1051 C 0.46902 0.87488 0.74906 0.0
H1052 H 0.56236 0.83697 0.66434 0.0
H1053 H 0.3552 0.86635 0.71396 0.0
H1054 H 0.49377 0.75985 0.66114 0.0
H1055 H 0.46291 0.75799 0.74945 0.0
Co1056 Co 0.71626 0.57131 0.95681 0.0
C1057 C 0.69959 0.57293 0.89508 0.0
C1058 C 0.74117 0.59149 0.90269 0.0
C1059 C 0.73911 0.58566 0.87399 0.0
N1060 N 0.71661 0.58309 0.91646 0.0
N1061 N 0.71312 0.57378 0.86919 0.0
H1062 H 0.68016 0.56038 0.89866 0.0
H1063 H 0.76174 0.59594 0.91269 0.0
C1064 C 0.7791 0.5503 0.9669 0.0
O1065 O 0.77793 0.55453 0.99501 0.0
N1066 N 0.7176 0.55766 0.99663 0.0
C1067 C 0.71178 0.57142 0.02171 0.0
C1068 C 0.71244 0.55125 0.04396 0.0
C1069 C 0.7217 0.52946 1.00398 0.0
N1070 N 0.71863 0.52493 0.03265 0.0
C1071 C 0.69909 0.62802 0.9719 0.0
C1072 C 0.74273 0.65337 0.94039 0.0
C1073 C 0.71474 0.66597 0.93867 0.0
C1074 C 0.69363 0.65413 0.95713 0.0
C1075 C 0.74707 0.62713 0.95583 0.0
N1076 N 0.7239 0.61241 0.96695 0.0
H1077 H 0.68136 0.61848 0.98384 0.0
H1078 H 0.76803 0.6167 0.95484 0.0
H1079 H 0.70664 0.59417 0.02377 0.0
H1080 H 0.72619 0.51242 0.98846 0.0
O1081 O 0.67422 0.57416 0.95925 0.0
O1082 O 0.69736 0.53427 0.94692 0.0
O1083 O 0.75831 0.55863 0.95052 0.0
C1084 C 0.67276 0.54696 0.95282 0.0
H1085 H 0.75732 0.58486 0.85939 0.0
H1086 H 0.70794 0.55552 0.06661 0.0
H1087 H 0.76062 0.66199 0.92792 0.0
H1088 H 0.67234 0.66385 0.95886 0.0
Co1089 Co 0.85056 0.46638 0.20679 0.0
C1090 C 0.84897 0.44976 0.14505 0.0
C1091 C 0.83033 0.49132 0.1527 0.0
C1092 C 0.83617 0.4893 0.12399 0.0
N1093 N 0.83877 0.46675 0.16645 0.0
N1094 N 0.84812 0.46334 0.1192 0.0
H1095 H 0.86155 0.43034 0.14861 0.0
H1096 H 0.82585 0.51187 0.16271 0.0
C1097 C 0.87158 0.5292 0.2169 0.0
O1098 O 0.86738 0.52802 0.24501 0.0
N1099 N 0.86422 0.4677 0.24661 0.0
C1100 C 0.85046 0.46187 0.2717 0.0
C1101 C 0.87064 0.4625 0.29393 0.0
C1102 C 0.89242 0.47177 0.25394 0.0
N1103 N 0.89696 0.46867 0.2826 0.0
C1104 C 0.79387 0.44919 0.22192 0.0
C1105 C 0.76847 0.49284 0.19045 0.0
C1106 C 0.75588 0.46484 0.18874 0.0
C1107 C 0.76775 0.44373 0.20717 0.0
C1108 C 0.79472 0.49718 0.20587 0.0
N1109 N 0.80945 0.47401 0.21696 0.0
H1110 H 0.80341 0.43146 0.23385 0.0
H1111 H 0.80513 0.51814 0.20489 0.0
H1112 H 0.82771 0.45675 0.27377 0.0
H1113 H 0.90946 0.47626 0.23841 0.0
O1114 O 0.84772 0.42433 0.20921 0.0
O1115 O 0.8876 0.44748 0.19687 0.0
O1116 O 0.86322 0.50843 0.20051 0.0
C1117 C 0.87492 0.42287 0.20277 0.0
H1118 H 0.83693 0.50752 0.10939 0.0
H1119 H 0.86637 0.458 0.31658 0.0
H1120 H 0.75984 0.51073 0.178 0.0
H1121 H 0.75804 0.42244 0.20892 0.0
Co1122 Co 0.95563 0.60053 0.45678 0.0
C1123 C 0.97226 0.59898 0.39503 0.0
C1124 C 0.93072 0.58032 0.40268 0.0
C1125 C 0.93274 0.58618 0.37398 0.0
N1126 N 0.95528 0.58876 0.41643 0.0
N1127 N 0.95869 0.59813 0.36918 0.0
H1128 H 0.99167 0.61157 0.39859 0.0
H1129 H 0.91018 0.57582 0.4127 0.0
C1130 C 0.89279 0.62153 0.46688 0.0
O1131 O 0.89396 0.6173 0.49499 0.0
N1132 N 0.95429 0.61417 0.4966 0.0
C1133 C 0.96013 0.60041 0.52167 0.0
C1134 C 0.95947 0.62057 0.54392 0.0
C1135 C 0.95019 0.64237 0.50394 0.0
N1136 N 0.95327 0.64689 0.53261 0.0
C1137 C 0.97283 0.54382 0.47186 0.0
C1138 C 0.92916 0.51846 0.44043 0.0
C1139 C 0.95715 0.50586 0.43867 0.0
C1140 C 0.97827 0.5177 0.45709 0.0
C1141 C 0.92483 0.5447 0.45586 0.0
N1142 N 0.94801 0.55942 0.46693 0.0
H1143 H 0.99056 0.55335 0.48377 0.0
H1144 H 0.90387 0.55513 0.45489 0.0
H1145 H 0.96528 0.57765 0.52373 0.0
H1146 H 0.94569 0.65941 0.48842 0.0
O1147 O 0.99768 0.59769 0.45919 0.0
O1148 O 0.97452 0.63758 0.44687 0.0
O1149 O 0.91359 0.6132 0.4505 0.0
C1150 C 0.99914 0.62489 0.45276 0.0
H1151 H 0.91452 0.58693 0.35939 0.0
H1152 H 0.96398 0.61629 0.56656 0.0
H1153 H 0.91125 0.50984 0.42799 0.0
H1154 H 0.99956 0.50798 0.45881 0.0
Co1155 Co 0.82126 0.7055 0.70676 0.0
C1156 C 0.82286 0.72211 0.645 0.0
C1157 C 0.84149 0.68056 0.65267 0.0
C1158 C 0.83564 0.68257 0.62397 0.0
N1159 N 0.83306 0.70513 0.66641 0.0
N1160 N 0.8237 0.70853 0.61916 0.0
H1161 H 0.81028 0.74154 0.64856 0.0
H1162 H 0.84597 0.66001 0.6627 0.0
C1163 C 0.80023 0.64268 0.71689 0.0
O1164 O 0.80444 0.64386 0.745 0.0
N1165 N 0.8076 0.70419 0.74658 0.0
C1166 C 0.82136 0.71001 0.77166 0.0
C1167 C 0.80118 0.70937 0.7939 0.0
C1168 C 0.7794 0.70012 0.75392 0.0
N1169 N 0.77486 0.70321 0.78258 0.0
C1170 C 0.87796 0.72268 0.72186 0.0
C1171 C 0.90335 0.67902 0.69042 0.0
C1172 C 0.91595 0.707 0.68869 0.0
C1173 C 0.90409 0.72813 0.70711 0.0
C1174 C 0.8771 0.67469 0.70584 0.0
N1175 N 0.86237 0.69786 0.71692 0.0
H1176 H 0.86842 0.74041 0.73378 0.0
H1177 H 0.86668 0.65373 0.70487 0.0
H1178 H 0.84411 0.71513 0.77372 0.0
H1179 H 0.76236 0.69563 0.7384 0.0
O1180 O 0.82411 0.74755 0.70916 0.0
O1181 O 0.78423 0.72441 0.69684 0.0
O1182 O 0.80859 0.66346 0.7005 0.0
C1183 C 0.79691 0.74902 0.70273 0.0
H1184 H 0.83487 0.66434 0.60938 0.0
H1185 H 0.80545 0.71387 0.81655 0.0
H1186 H 0.91198 0.66112 0.67798 0.0
H1187 H 0.9138 0.74941 0.70884 0.0
Co1188 Co 0.71623 0.60048 0.715 0.0
C1189 C 0.6996 0.59889 0.77675 0.0
C1190 C 0.74116 0.58026 0.7691 0.0
C1191 C 0.73914 0.58611 0.7978 0.0
N1192 N 0.71659 0.58869 0.75535 0.0
N1193 N 0.71317 0.59805 0.8026 0.0
H1194 H 0.68018 0.61147 0.77319 0.0
H1195 H 0.76171 0.57578 0.75908 0.0
C1196 C 0.77906 0.62149 0.70488 0.0
O1197 O 0.77789 0.61729 0.67676 0.0
N1198 N 0.71756 0.61412 0.67518 0.0
C1199 C 0.71173 0.60037 0.6501 0.0
C1200 C 0.71237 0.62054 0.62785 0.0
C1201 C 0.72163 0.64233 0.66783 0.0
N1202 N 0.71854 0.64686 0.63916 0.0
C1203 C 0.69906 0.54377 0.69992 0.0
C1204 C 0.74274 0.5184 0.73136 0.0
C1205 C 0.71476 0.5058 0.73311 0.0
C1206 C 0.69363 0.51765 0.71469 0.0
C1207 C 0.74706 0.54465 0.71593 0.0
N1208 N 0.72388 0.55937 0.70485 0.0
H1209 H 0.68133 0.5533 0.688 0.0
H1210 H 0.76802 0.55508 0.7169 0.0
H1211 H 0.70661 0.57761 0.64804 0.0
H1212 H 0.72612 0.65936 0.68334 0.0
O1213 O 0.67419 0.59762 0.71259 0.0
O1214 O 0.69732 0.63751 0.72491 0.0
O1215 O 0.75827 0.61315 0.72127 0.0
C1216 C 0.67271 0.62482 0.71902 0.0
H1217 H 0.75736 0.58687 0.81239 0.0
H1218 H 0.70787 0.61626 0.60521 0.0
H1219 H 0.76064 0.50978 0.74381 0.0
H1220 H 0.67234 0.50793 0.71297 0.0
Co1221 Co 0.82132 0.46629 0.965 0.0
C1222 C 0.82297 0.44963 0.02675 0.0
C1223 C 0.84151 0.49122 0.01909 0.0
C1224 C 0.83569 0.48916 0.04779 0.0
N1225 N 0.83312 0.46665 1.00534 0.0
N1226 N 0.82382 0.46317 0.05262 0.0
H1227 H 0.81042 0.4302 0.02318 0.0
H1228 H 0.84595 0.51178 1.00907 0.0
C1229 C 0.80029 0.52912 0.95488 0.0
O1230 O 0.80451 0.52794 0.92677 0.0
N1231 N 0.80767 0.46761 0.92519 0.0
C1232 C 0.82142 0.46177 0.9001 0.0
C1233 C 0.80125 0.46242 0.87787 0.0
C1234 C 0.77946 0.47169 0.91785 0.0
N1235 N 0.77493 0.46861 0.88919 0.0
C1236 C 0.87804 0.44913 0.9499 0.0
C1237 C 0.90337 0.49282 0.98133 0.0
C1238 C 0.916 0.46484 0.98307 0.0
C1239 C 0.90417 0.44371 0.96465 0.0
C1240 C 0.87712 0.49713 0.96591 0.0
N1241 N 0.86242 0.47395 0.95483 0.0
H1242 H 0.86852 0.43139 0.93798 0.0
H1243 H 0.86668 0.51808 0.96689 0.0
H1244 H 0.84417 0.45664 0.89803 0.0
H1245 H 0.76243 0.47618 0.93338 0.0
O1246 O 0.8242 0.42424 0.96259 0.0
O1247 O 0.7843 0.44737 0.97493 0.0
O1248 O 0.80862 0.50832 0.97127 0.0
C1249 C 0.797 0.42276 0.96903 0.0
H1250 H 0.8349 0.50738 0.06239 0.0
H1251 H 0.80552 0.45791 0.85522 0.0
H1252 H 0.91198 0.51073 0.99378 0.0
H1253 H 0.9139 0.42243 0.96293 0.0
Co1254 Co 0.95558 0.57141 0.21496 0.0
C1255 C 0.97221 0.57299 0.27671 0.0
C1256 C 0.93065 0.59162 0.26907 0.0
C1257 C 0.93267 0.58577 0.29777 0.0
N1258 N 0.95522 0.58319 0.25531 0.0
N1259 N 0.95864 0.57382 0.30256 0.0
H1260 H 0.99163 0.56041 0.27314 0.0
H1261 H 0.9101 0.5961 0.25906 0.0
C1262 C 0.89276 0.55039 0.20487 0.0
O1263 O 0.89393 0.5546 0.17675 0.0
N1264 N 0.95426 0.55777 0.17514 0.0
C1265 C 0.96009 0.57154 0.15006 0.0
C1266 C 0.95945 0.55137 0.12782 0.0
C1267 C 0.95019 0.52957 0.1678 0.0
N1268 N 0.95328 0.52505 0.13914 0.0
C1269 C 0.97276 0.62812 0.19987 0.0
C1270 C 0.9291 0.65348 0.23134 0.0
C1271 C 0.95709 0.66608 0.23308 0.0
C1272 C 0.97821 0.65424 0.21464 0.0
C1273 C 0.92477 0.62725 0.21591 0.0
N1274 N 0.94794 0.61253 0.20481 0.0
H1275 H 0.99049 0.61859 0.18794 0.0
H1276 H 0.90381 0.61683 0.21689 0.0
H1277 H 0.9652 0.59429 0.14799 0.0
H1278 H 0.9457 0.51253 0.18333 0.0
O1279 O 0.99763 0.57427 0.21254 0.0
O1280 O 0.9745 0.53437 0.22487 0.0
O1281 O 0.91354 0.55874 0.22125 0.0
C1282 C 0.9991 0.54707 0.21897 0.0
H1283 H 0.91446 0.58501 0.31237 0.0
H1284 H 0.96395 0.55565 0.10517 0.0
H1285 H 0.9112 0.66211 0.2438 0.0
H1286 H 0.99949 0.66395 0.21291 0.0
Co1287 Co 0.85054 0.70553 0.465 0.0
C1288 C 0.84888 0.72215 0.52674 0.0
C1289 C 0.83036 0.68056 0.5191 0.0
C1290 C 0.83619 0.6826 0.5478 0.0
N1291 N 0.83874 0.70514 0.50534 0.0
N1292 N 0.84804 0.7086 0.55262 0.0
H1293 H 0.86142 0.74159 0.52318 0.0
H1294 H 0.82593 0.66 0.50908 0.0
C1295 C 0.87159 0.64271 0.45487 0.0
O1296 O 0.8674 0.6439 0.42675 0.0
N1297 N 0.8642 0.70423 0.42518 0.0
C1298 C 0.85044 0.71005 0.40009 0.0
C1299 C 0.87061 0.70943 0.37785 0.0
C1300 C 0.8924 0.70017 0.41783 0.0
N1301 N 0.89694 0.70327 0.38917 0.0
C1302 C 0.79383 0.72269 0.44989 0.0
C1303 C 0.76848 0.67903 0.48137 0.0
C1304 C 0.75586 0.70701 0.48309 0.0
C1305 C 0.7677 0.72813 0.46464 0.0
C1306 C 0.79472 0.6747 0.46595 0.0
N1307 N 0.80944 0.69787 0.45484 0.0
H1308 H 0.80336 0.74042 0.43796 0.0
H1309 H 0.80516 0.65374 0.46693 0.0
H1310 H 0.82768 0.71516 0.39803 0.0
H1311 H 0.90944 0.69568 0.43335 0.0
O1312 O 0.84766 0.74757 0.4626 0.0
O1313 O 0.88756 0.72444 0.47492 0.0
O1314 O 0.86324 0.66348 0.47126 0.0
C1315 C 0.87485 0.74905 0.46903 0.0
H1316 H 0.837 0.66437 0.56238 0.0
H1317 H 0.86634 0.71393 0.35521 0.0
H1318 H 0.75986 0.66113 0.49383 0.0
H1319 H 0.75797 0.74941 0.46291 0.0
Co1320 Co 0.9568 0.71627 0.5713 0.0
C1321 C 0.89506 0.69963 0.57288 0.0
C1322 C 0.90268 0.74118 0.59151 0.0
C1323 C 0.87398 0.73916 0.58566 0.0
N1324 N 0.91645 0.71662 0.58308 0.0
N1325 N 0.8692 0.7132 0.57372 0.0
H1326 H 0.89863 0.68021 0.5603 0.0
H1327 H 0.91269 0.76173 0.59599 0.0
C1328 C 0.96689 0.77911 0.55029 0.0
O1329 O 0.995 0.77793 0.5545 0.0
N1330 N 0.99662 0.71761 0.55765 0.0
C1331 C 0.0217 0.71179 0.57141 0.0
C1332 C 0.04395 0.71244 0.55124 0.0
C1333 C 1.00397 0.7217 0.52944 0.0
N1334 N 0.03263 0.71862 0.52492 0.0
C1335 C 0.97188 0.69908 0.62801 0.0
C1336 C 0.94041 0.74274 0.65337 0.0
C1337 C 0.93868 0.71476 0.66597 0.0
C1338 C 0.95712 0.69363 0.65413 0.0
C1339 C 0.95584 0.74708 0.62712 0.0
N1340 N 0.96694 0.7239 0.6124 0.0
H1341 H 0.98381 0.68135 0.61847 0.0
H1342 H 0.95487 0.76804 0.61669 0.0
H1343 H 0.02376 0.70666 0.59416 0.0
H1344 H 0.98845 0.72619 0.51241 0.0
O1345 O 0.95923 0.67422 0.57415 0.0
O1346 O 0.9469 0.69737 0.53426 0.0
O1347 O 0.9505 0.75832 0.55862 0.0
C1348 C 0.9528 0.67276 0.54695 0.0
H1349 H 0.85938 0.75738 0.58489 0.0
H1350 H 0.06659 0.70795 0.55552 0.0
H1351 H 0.92796 0.76064 0.66199 0.0
H1352 H 0.95885 0.67235 0.66385 0.0
Co1353 Co 0.45677 0.95563 0.60053 0.0
C1354 C 0.39501 0.97225 0.59897 0.0
C1355 C 0.40267 0.9307 0.58033 0.0
C1356 C 0.37397 0.93271 0.58619 0.0
N1357 N 0.41642 0.95527 0.58876 0.0
N1358 N 0.36917 0.95867 0.59814 0.0
H1359 H 0.39857 0.99166 0.61155 0.0
H1360 H 0.4127 0.91016 0.57584 0.0
C1361 C 0.46689 0.8928 0.62154 0.0
O1362 O 0.495 0.89397 0.61734 0.0
N1363 N 0.49659 0.95431 0.61416 0.0
C1364 C 0.52167 0.96015 0.6004 0.0
C1365 C 0.54391 0.9595 0.62056 0.0
C1366 C 0.50393 0.95022 0.64236 0.0
N1367 N 0.5326 0.95332 0.64688 0.0
C1368 C 0.47185 0.97283 0.54382 0.0
C1369 C 0.44042 0.92916 0.51846 0.0
C1370 C 0.43867 0.95715 0.50586 0.0
C1371 C 0.45709 0.97828 0.5177 0.0
C1372 C 0.45585 0.92483 0.5447 0.0
N1373 N 0.46692 0.94801 0.55942 0.0
H1374 H 0.48377 0.99056 0.55335 0.0
H1375 H 0.45488 0.90387 0.55513 0.0
H1376 H 0.52373 0.96528 0.57764 0.0
H1377 H 0.48842 0.94572 0.6594 0.0
O1378 O 0.45917 0.99768 0.59768 0.0
O1379 O 0.44685 0.97453 0.63757 0.0
O1380 O 0.4505 0.91359 0.6132 0.0
C1381 C 0.45274 0.99914 0.62488 0.0
H1382 H 0.35938 0.91449 0.58695 0.0
H1383 H 0.56655 0.96401 0.61628 0.0
H1384 H 0.42798 0.91126 0.50984 0.0
H1385 H 0.45881 0.99956 0.50798 0.0
Co1386 Co 0.4664 0.20678 0.85056 0.0
C1387 C 0.44981 0.14503 0.84898 0.0
C1388 C 0.49137 0.15269 0.83036 0.0
C1389 C 0.48937 0.12399 0.83621 0.0
N1390 N 0.46679 0.16644 0.83878 0.0
N1391 N 0.4634 0.11918 0.84815 0.0
H1392 H 0.43038 0.14859 0.86154 0.0
H1393 H 0.51192 0.16272 0.82588 0.0
C1394 C 0.52922 0.21691 0.8716 0.0
O1395 O 0.52803 0.24503 0.86741 0.0
N1396 N 0.4677 0.2466 0.86422 0.0
C1397 C 0.46189 0.27169 0.85046 0.0
C1398 C 0.46252 0.29393 0.87063 0.0
C1399 C 0.47177 0.25394 0.89242 0.0
N1400 N 0.46867 0.2826 0.89695 0.0
C1401 C 0.44921 0.22193 0.79387 0.0
C1402 C 0.49284 0.19043 0.76847 0.0
C1403 C 0.46484 0.18873 0.75589 0.0
C1404 C 0.44374 0.20718 0.76776 0.0
C1405 C 0.49719 0.20585 0.79471 0.0
N1406 N 0.47404 0.21696 0.80945 0.0
H1407 H 0.43149 0.23386 0.80343 0.0
H1408 H 0.51816 0.20486 0.80512 0.0
H1409 H 0.45678 0.27376 0.8277 0.0
H1410 H 0.47625 0.23841 0.90946 0.0
O1411 O 0.42436 0.20918 0.84771 0.0
O1412 O 0.4475 0.19686 0.8876 0.0
O1413 O 0.50845 0.20052 0.86323 0.0
C1414 C 0.42289 0.20275 0.87491 0.0
H1415 H 0.50759 0.1094 0.83699 0.0
H1416 H 0.45802 0.31658 0.86635 0.0
H1417 H 0.51072 0.17797 0.75983 0.0
H1418 H 0.42245 0.20893 0.75806 0.0
Co1419 Co 0.2151 0.21631 0.10054 0.0
C1420 C 0.27686 0.1997 0.09898 0.0
C1421 C 0.2692 0.24126 0.08034 0.0
C1422 C 0.2979 0.23925 0.08621 0.0
N1423 N 0.25545 0.21668 0.08876 0.0
N1424 N 0.3027 0.21329 0.09815 0.0
H1425 H 0.2733 0.18028 0.11156 0.0
H1426 H 0.25917 0.2618 0.07585 0.0
C1427 C 0.20497 0.27914 0.12156 0.0
O1428 O 0.17685 0.27796 0.11736 0.0
N1429 N 0.17528 0.21763 0.11418 0.0
C1430 C 0.1502 0.21181 0.10042 0.0
C1431 C 0.12795 0.21244 0.12059 0.0
C1432 C 0.16792 0.2217 0.14239 0.0
N1433 N 0.13926 0.21861 0.14691 0.0
C1434 C 0.20001 0.19913 0.04384 0.0
C1435 C 0.23147 0.24278 0.01846 0.0
C1436 C 0.2332 0.21479 1.00587 0.0
C1437 C 0.21477 0.19367 0.01772 0.0
C1438 C 0.21604 0.24712 0.0447 0.0
N1439 N 0.20496 0.22395 0.05943 0.0
H1440 H 0.18809 0.1814 0.05339 0.0
H1441 H 0.21702 0.26808 0.05512 0.0
H1442 H 0.14815 0.20669 0.07767 0.0
H1443 H 0.18344 0.2262 0.15942 0.0
O1444 O 0.21271 0.17427 0.0977 0.0
O1445 O 0.22501 0.19741 0.13759 0.0
O1446 O 0.22136 0.25836 0.11321 0.0
C1447 C 0.21913 0.1728 0.1249 0.0
H1448 H 0.31248 0.25748 0.08698 0.0
H1449 H 0.10531 0.20794 0.11631 0.0
H1450 H 0.24392 0.26067 0.00982 0.0
H1451 H 0.21304 0.17239 1.00801 0.0
Co1452 Co 0.70553 0.46501 0.85054 0.0
C1453 C 0.72212 0.52677 0.84893 0.0
C1454 C 0.68056 0.5191 0.83033 0.0
C1455 C 0.68256 0.54781 0.83618 0.0
N1456 N 0.70514 0.50536 0.83874 0.0
N1457 N 0.70852 0.55261 0.8481 0.0
H1458 H 0.74154 0.52321 0.8615 0.0
H1459 H 0.66001 0.50908 0.82586 0.0
C1460 C 0.64271 0.45488 0.87159 0.0
O1461 O 0.6439 0.42676 0.8674 0.0
N1462 N 0.70423 0.42519 0.8642 0.0
C1463 C 0.71006 0.40011 0.85044 0.0
C1464 C 0.70944 0.37787 0.87061 0.0
C1465 C 0.70017 0.41785 0.8924 0.0
N1466 N 0.70327 0.38919 0.89694 0.0
C1467 C 0.72271 0.44991 0.79383 0.0
C1468 C 0.67903 0.48135 0.76846 0.0
C1469 C 0.70702 0.48309 0.75585 0.0
C1470 C 0.72814 0.46466 0.7677 0.0
C1471 C 0.67471 0.46593 0.79472 0.0
N1472 N 0.69789 0.45485 0.80943 0.0
H1473 H 0.74044 0.43799 0.80337 0.0
H1474 H 0.65375 0.46691 0.80515 0.0
H1475 H 0.71517 0.39805 0.82768 0.0
H1476 H 0.69568 0.43337 0.90944 0.0
O1477 O 0.74758 0.46262 0.84766 0.0
O1478 O 0.72444 0.47493 0.88756 0.0
O1479 O 0.66348 0.47127 0.86323 0.0
C1480 C 0.74905 0.46905 0.87486 0.0
H1481 H 0.66433 0.56239 0.83696 0.0
H1482 H 0.71394 0.35522 0.86634 0.0
H1483 H 0.66113 0.4938 0.75984 0.0
H1484 H 0.74943 0.46293 0.75797 0.0
Co1485 Co 0.71507 0.45554 0.07135 0.0
C1486 C 0.77682 0.47215 0.07291 0.0
C1487 C 0.76918 0.43059 0.09154 0.0
C1488 C 0.79788 0.43261 0.08568 0.0
N1489 N 0.75542 0.45517 0.08312 0.0
N1490 N 0.80267 0.45857 0.07374 0.0
H1491 H 0.77325 0.49158 0.06034 0.0
H1492 H 0.75916 0.41005 0.09603 0.0
C1493 C 0.70496 0.39271 0.05034 0.0
O1494 O 0.67684 0.39389 0.05455 0.0
N1495 N 0.67525 0.45422 0.05772 0.0
C1496 C 0.65017 0.46004 0.07149 0.0
C1497 C 0.62792 0.45941 0.05133 0.0
C1498 C 0.6679 0.45015 0.02952 0.0
N1499 N 0.63924 0.45324 0.025 0.0
C1500 C 0.69997 0.47273 0.12805 0.0
C1501 C 0.73145 0.42909 0.15344 0.0
C1502 C 0.73317 0.45708 0.16602 0.0
C1503 C 0.71473 0.47819 0.15417 0.0
C1504 C 0.71603 0.42474 0.1272 0.0
N1505 N 0.70493 0.44791 0.11247 0.0
H1506 H 0.68804 0.49046 0.11851 0.0
H1507 H 0.71701 0.40378 0.11679 0.0
H1508 H 0.64811 0.46516 0.09425 0.0
H1509 H 0.68342 0.44566 0.01248 0.0
O1510 O 0.71266 0.49759 0.0742 0.0
O1511 O 0.72498 0.47444 0.03431 0.0
O1512 O 0.72135 0.41349 0.05869 0.0
C1513 C 0.71909 0.49905 0.04699 0.0
H1514 H 0.81247 0.41438 0.0849 0.0
H1515 H 0.60527 0.4639 0.05562 0.0
H1516 H 0.74391 0.41119 0.16207 0.0
H1517 H 0.71299 0.49948 0.16388 0.0
Co1518 Co 0.46626 0.96503 0.82133 0.0
C1519 C 0.44966 0.02679 0.82292 0.0
C1520 C 0.49122 0.01911 0.84154 0.0
C1521 C 0.48922 0.04781 0.83568 0.0
N1522 N 0.46664 1.00537 0.83312 0.0
N1523 N 0.46325 0.05263 0.82376 0.0
H1524 H 0.43024 0.02325 0.81035 0.0
H1525 H 0.51176 1.00907 0.84601 0.0
C1526 C 0.52909 0.9549 0.80029 0.0
O1527 O 0.5279 0.92678 0.80449 0.0
N1528 N 0.46757 0.92522 0.80767 0.0
C1529 C 0.46174 0.90013 0.82143 0.0
C1530 C 0.46238 0.87789 0.80126 0.0
C1531 C 0.47165 0.91788 0.77947 0.0
N1532 N 0.46855 0.88922 0.77494 0.0
C1533 C 0.44909 0.94993 0.87804 0.0
C1534 C 0.49279 0.98133 0.90339 0.0
C1535 C 0.46481 0.98308 0.91601 0.0
C1536 C 0.44367 0.96468 0.90417 0.0
C1537 C 0.49709 0.96592 0.87714 0.0
N1538 N 0.47391 0.95486 0.86243 0.0
H1539 H 0.43135 0.93802 0.86851 0.0
H1540 H 0.51805 0.96688 0.8667 0.0
H1541 H 0.45662 0.89806 0.84419 0.0
H1542 H 0.47614 0.93341 0.76243 0.0
O1543 O 0.42421 0.96264 0.8242 0.0
O1544 O 0.44735 0.97496 0.7843 0.0
O1545 O 0.5083 0.97129 0.80864 0.0
C1546 C 0.42274 0.96908 0.797 0.0
H1547 H 0.50744 0.06239 0.83491 0.0
H1548 H 0.45788 0.85525 0.80553 0.0
H1549 H 0.5107 0.99376 0.91201 0.0
H1550 H 0.42239 0.96296 0.91391 0.0
Co1551 Co 0.20554 0.20684 0.32135 0.0
C1552 C 0.22213 0.14508 0.32295 0.0
C1553 C 0.18057 0.15276 0.34157 0.0
C1554 C 0.18257 0.12406 0.33571 0.0
N1555 N 0.20515 0.1665 0.33315 0.0
N1556 N 0.20854 0.11924 0.32378 0.0
H1557 H 0.24156 0.14863 0.31038 0.0
H1558 H 0.16002 0.16279 0.34604 0.0
C1559 C 0.14272 0.21699 0.30032 0.0
O1560 O 0.1439 0.2451 0.30451 0.0
N1561 N 0.20423 0.24666 0.3077 0.0
C1562 C 0.21005 0.27175 0.32145 0.0
C1563 C 0.20942 0.29399 0.30128 0.0
C1564 C 0.20017 0.25401 0.27949 0.0
N1565 N 0.20326 0.28267 0.27496 0.0
C1566 C 0.22269 0.22194 0.37806 0.0
C1567 C 0.179 0.19052 0.40343 0.0
C1568 C 0.20698 0.18877 0.41604 0.0
C1569 C 0.22811 0.20719 0.4042 0.0
C1570 C 0.17469 0.20594 0.37718 0.0
N1571 N 0.19788 0.21701 0.36246 0.0
H1572 H 0.24043 0.23385 0.36853 0.0
H1573 H 0.15374 0.20497 0.36674 0.0
H1574 H 0.21516 0.27381 0.34421 0.0
H1575 H 0.19568 0.23849 0.26246 0.0
O1576 O 0.24758 0.20923 0.32422 0.0
O1577 O 0.22446 0.19692 0.28433 0.0
O1578 O 0.1635 0.20059 0.30867 0.0
C1579 C 0.24906 0.2028 0.29703 0.0
H1580 H 0.16435 0.10948 0.33494 0.0
H1581 H 0.21392 0.31663 0.30555 0.0
H1582 H 0.16109 0.17808 0.41206 0.0
H1583 H 0.24939 0.20891 0.41392 0.0
loop_
_geom_bond_atom_site_label_1
_geom_bond_atom_site_label_2
_geom_bond_distance
_geom_bond_site_symmetry_2
_ccdc_geom_bond_type
Co0 N4 2.148 . S
Co0 N10 2.128 . S
Co0 N20 2.194 . S
Co0 O25 2.351 . S
Co0 O26 2.155 . S
Co0 O27 2.096 . S
C1 N4 1.301 . S
C1 N5 1.328 . S
C1 H6 0.930 . S
C2 C3 1.333 . S
C2 N4 1.317 . S
C2 H7 0.930 . S
C3 C2 1.333 . S
C3 N5 1.350 . S
C3 H29 0.931 . S
N4 Co0 2.148 . S
N4 C1 1.301 . S
N4 C2 1.317 . S
N5 C1 1.328 . S
N5 C3 1.350 . S
H6 C1 0.930 . S
H7 C2 0.930 . S
C8 O9 1.224 . S
C8 O27 1.247 . S
O9 C8 1.224 . S
N10 Co0 2.128 . S
N10 C11 1.355 . S
N10 C13 1.311 . S
C11 N10 1.355 . S
C11 C12 1.363 . S
C11 H23 0.929 . S
C12 C11 1.363 . S
C12 N14 1.375 . S
C12 H30 0.931 . S
C13 N10 1.311 . S
C13 N14 1.347 . S
C13 H24 0.929 . S
N14 C12 1.375 . S
N14 C13 1.347 . S
C15 C18 1.365 . S
C15 N20 1.328 . S
C15 H21 0.929 . S
C16 C17 1.362 . S
C16 C19 1.378 . S
C16 H31 0.929 . S
C17 C16 1.362 . S
C17 C18 1.366 . S
C18 C15 1.365 . S
C18 C17 1.366 . S
C18 H32 0.930 . S
C19 C16 1.378 . S
C19 N20 1.315 . S
C19 H22 0.930 . S
N20 Co0 2.194 . S
N20 C15 1.328 . S
N20 C19 1.315 . S
H21 C15 0.929 . S
H22 C19 0.930 . S
H23 C11 0.929 . S
H24 C13 0.929 . S
O25 Co0 2.351 . S
O25 C28 1.244 . S
O26 Co0 2.155 . S
O26 C28 1.240 . S
O27 Co0 2.096 . S
O27 C8 1.247 . S
C28 O25 1.244 . S
C28 O26 1.240 . S
H29 C3 0.931 . S
H30 C12 0.931 . S
H31 C16 0.929 . S
H32 C18 0.930 . S
Co33 N37 2.148 . S
Co33 N43 2.128 . S
Co33 N53 2.194 . S
Co33 O58 2.351 . S
Co33 O59 2.155 . S
Co33 O60 2.096 . S
C34 N37 1.301 1_455 S
C34 N38 1.328 . S
C34 H39 0.930 . S
C35 C36 1.340 . S
C35 N37 1.315 1_455 S
C35 H40 0.926 1_455 S
C36 C35 1.340 . S
C36 N38 1.350 . S
C36 H62 0.931 . S
N37 Co33 2.148 . S
N37 C34 1.301 1_655 S
N37 C35 1.315 1_655 S
N38 C34 1.328 . S
N38 C36 1.350 . S
H39 C34 0.930 . S
H40 C35 0.926 1_655 S
C41 O42 1.224 . S
C41 O60 1.247 . S
O42 C41 1.224 . S
N43 Co33 2.128 . S
N43 C44 1.355 . S
N43 C46 1.311 . S
C44 N43 1.355 . S
C44 C45 1.363 . S
C44 H56 0.929 . S
C45 C44 1.363 . S
C45 N47 1.375 . S
C45 H63 0.931 . S
C46 N43 1.311 . S
C46 N47 1.347 . S
C46 H57 0.929 . S
N47 C45 1.375 . S
N47 C46 1.347 . S
C48 C51 1.365 . S
C48 N53 1.328 . S
C48 H54 0.929 . S
C49 C50 1.362 . S
C49 C52 1.378 . S
C49 H64 0.929 . S
C50 C49 1.362 . S
C50 C51 1.366 . S
C51 C48 1.365 . S
C51 C50 1.366 . S
C51 H65 0.930 . S
C52 C49 1.378 . S
C52 N53 1.315 . S
C52 H55 0.930 . S
N53 Co33 2.194 . S
N53 C48 1.328 . S
N53 C52 1.315 . S
H54 C48 0.929 . S
H55 C52 0.930 . S
H56 C44 0.929 . S
H57 C46 0.929 . S
O58 Co33 2.351 . S
O58 C61 1.244 . S
O59 Co33 2.155 . S
O59 C61 1.240 . S
O60 Co33 2.096 . S
O60 C41 1.247 . S
C61 O58 1.244 . S
C61 O59 1.240 . S
H62 C36 0.931 . S
H63 C45 0.931 . S
H64 C49 0.929 . S
H65 C51 0.930 . S
Co66 N70 2.148 . S
Co66 N76 2.128 . S
Co66 N86 2.194 . S
Co66 O91 2.351 . S
Co66 O92 2.155 . S
Co66 O93 2.096 . S
C67 N70 1.301 . S
C67 N71 1.328 . S
C67 H72 0.930 . S
C68 C69 1.333 . S
C68 N70 1.317 . S
C68 H73 0.930 . S
C69 C68 1.333 . S
C69 N71 1.350 . S
C69 H95 0.931 . S
N70 Co66 2.148 . S
N70 C67 1.301 . S
N70 C68 1.317 . S
N71 C67 1.328 . S
N71 C69 1.350 . S
H72 C67 0.930 . S
H73 C68 0.930 . S
C74 O75 1.224 . S
C74 O93 1.247 . S
O75 C74 1.224 . S
N76 Co66 2.128 . S
N76 C77 1.355 . S
N76 C79 1.311 . S
C77 N76 1.355 . S
C77 C78 1.363 . S
C77 H89 0.929 . S
C78 C77 1.363 . S
C78 N80 1.375 . S
C78 H96 0.931 . S
C79 N76 1.311 . S
C79 N80 1.347 . S
C79 H90 0.929 . S
N80 C78 1.375 . S
N80 C79 1.347 . S
C81 C84 1.365 . S
C81 N86 1.328 . S
C81 H87 0.929 . S
C82 C83 1.362 . S
C82 C85 1.378 . S
C82 H97 0.929 . S
C83 C82 1.362 . S
C83 C84 1.366 . S
C84 C81 1.365 . S
C84 C83 1.366 . S
C84 H98 0.930 . S
C85 C82 1.378 . S
C85 N86 1.315 . S
C85 H88 0.930 . S
N86 Co66 2.194 . S
N86 C81 1.328 . S
N86 C85 1.315 . S
H87 C81 0.929 . S
H88 C85 0.930 . S
H89 C77 0.929 . S
H90 C79 0.929 . S
O91 Co66 2.351 . S
O91 C94 1.244 . S
O92 Co66 2.155 . S
O92 C94 1.240 . S
O93 Co66 2.096 . S
O93 C74 1.247 . S
C94 O91 1.244 . S
C94 O92 1.240 . S
H95 C69 0.931 . S
H96 C78 0.931 . S
H97 C82 0.929 . S
H98 C84 0.930 . S
Co99 N103 2.148 . S
Co99 N109 2.128 . S
Co99 N119 2.194 . S
Co99 O124 2.351 . S
Co99 O125 2.155 . S
Co99 O126 2.096 . S
C100 N103 1.301 . S
C100 N104 1.328 . S
C100 H105 0.930 . S
C101 C102 1.333 . S
C101 N103 1.317 . S
C101 H106 0.930 . S
C102 C101 1.333 . S
C102 N104 1.350 . S
C102 H128 0.931 . S
N103 Co99 2.148 . S
N103 C100 1.301 . S
N103 C101 1.317 . S
N104 C100 1.328 . S
N104 C102 1.350 . S
H105 C100 0.930 . S
H106 C101 0.930 . S
C107 O108 1.224 . S
C107 O126 1.247 1_554 S
O108 C107 1.224 . S
N109 Co99 2.128 . S
N109 C110 1.355 . S
N109 C112 1.311 . S
C110 N109 1.355 . S
C110 C111 1.363 . S
C110 H122 0.929 . S
C111 C110 1.363 . S
C111 N113 1.375 . S
C111 H129 0.931 . S
C112 N109 1.311 . S
C112 N113 1.347 . S
C112 H123 0.929 . S
N113 C111 1.375 . S
N113 C112 1.347 . S
C114 C117 1.365 . S
C114 N119 1.328 . S
C114 H120 0.929 . S
C115 C116 1.362 . S
C115 C118 1.378 . S
C115 H130 0.929 . S
C116 C115 1.362 . S
C116 C117 1.366 . S
C117 C114 1.365 . S
C117 C116 1.366 . S
C117 H131 0.930 . S
C118 C115 1.378 . S
C118 N119 1.315 . S
C118 H121 0.930 . S
N119 Co99 2.194 . S
N119 C114 1.328 . S
N119 C118 1.315 . S
H120 C114 0.929 . S
H121 C118 0.930 . S
H122 C110 0.929 . S
H123 C112 0.929 . S
O124 Co99 2.351 . S
O124 C127 1.244 . S
O125 Co99 2.155 . S
O125 C127 1.240 . S
O126 Co99 2.096 . S
O126 C107 1.247 1_556 S
C127 O124 1.244 . S
C127 O125 1.240 . S
H128 C102 0.931 . S
H129 C111 0.931 . S
H130 C115 0.929 . S
H131 C117 0.930 . S
Co132 N136 2.148 . S
Co132 N142 2.128 . S
Co132 N152 2.194 . S
Co132 O157 2.351 . S
Co132 O158 2.155 . S
Co132 O159 2.096 . S
C133 N136 1.301 . S
C133 N137 1.328 . S
C133 H138 0.930 . S
C134 C135 1.333 . S
C134 N136 1.317 . S
C134 H139 0.930 . S
C135 C134 1.333 . S
C135 N137 1.350 . S
C135 H161 0.931 . S
N136 Co132 2.148 . S
N136 C133 1.301 . S
N136 C134 1.317 . S
N137 C133 1.328 . S
N137 C135 1.350 . S
H138 C133 0.930 . S
H139 C134 0.930 . S
C140 O141 1.224 . S
C140 O159 1.247 . S
O141 C140 1.224 . S
N142 Co132 2.128 . S
N142 C143 1.355 . S
N142 C145 1.311 . S
C143 N142 1.355 . S
C143 C144 1.363 . S
C143 H155 0.929 . S
C144 C143 1.363 . S
C144 N146 1.375 . S
C144 H162 0.931 . S
C145 N142 1.311 . S
C145 N146 1.347 . S
C145 H156 0.929 . S
N146 C144 1.375 . S
N146 C145 1.347 . S
C147 C150 1.365 . S
C147 N152 1.328 . S
C147 H153 0.929 . S
C148 C149 1.362 . S
C148 C151 1.378 . S
C148 H163 0.929 . S
C149 C148 1.362 . S
C149 C150 1.366 . S
C150 C147 1.365 . S
C150 C149 1.366 . S
C150 H164 0.930 . S
C151 C148 1.378 . S
C151 N152 1.315 . S
C151 H154 0.930 . S
N152 Co132 2.194 . S
N152 C147 1.328 . S
N152 C151 1.315 . S
H153 C147 0.929 . S
H154 C151 0.930 . S
H155 C143 0.929 . S
H156 C145 0.929 . S
O157 Co132 2.351 . S
O157 C160 1.244 . S
O158 Co132 2.155 . S
O158 C160 1.240 . S
O159 Co132 2.096 . S
O159 C140 1.247 . S
C160 O157 1.244 . S
C160 O158 1.240 . S
H161 C135 0.931 . S
H162 C144 0.931 . S
H163 C148 0.929 . S
H164 C150 0.930 . S
Co165 N169 2.148 . S
Co165 N175 2.128 . S
Co165 N185 2.194 . S
Co165 O190 2.351 . S
Co165 O191 2.155 . S
Co165 O192 2.096 . S
C166 N169 1.301 . S
C166 N170 1.328 . S
C166 H171 0.930 . S
C167 C168 1.333 . S
C167 N169 1.317 . S
C167 H172 0.930 . S
C168 C167 1.333 . S
C168 N170 1.350 . S
C168 H194 0.931 . S
N169 Co165 2.148 . S
N169 C166 1.301 . S
N169 C167 1.317 . S
N170 C166 1.328 . S
N170 C168 1.350 . S
H171 C166 0.930 . S
H172 C167 0.930 . S
C173 O174 1.224 . S
C173 O192 1.247 . S
O174 C173 1.224 . S
N175 Co165 2.128 . S
N175 C176 1.355 . S
N175 C178 1.311 . S
C176 N175 1.355 . S
C176 C177 1.363 . S
C176 H188 0.929 . S
C177 C176 1.363 . S
C177 N179 1.375 . S
C177 H195 0.931 . S
C178 N175 1.311 . S
C178 N179 1.347 . S
C178 H189 0.929 . S
N179 C177 1.375 . S
N179 C178 1.347 . S
C180 C183 1.365 . S
C180 N185 1.328 . S
C180 H186 0.929 . S
C181 C182 1.362 . S
C181 C184 1.378 . S
C181 H196 0.929 . S
C182 C181 1.362 . S
C182 C183 1.366 . S
C183 C180 1.365 . S
C183 C182 1.366 . S
C183 H197 0.930 . S
C184 C181 1.378 . S
C184 N185 1.315 . S
C184 H187 0.930 . S
N185 Co165 2.194 . S
N185 C180 1.328 . S
N185 C184 1.315 . S
H186 C180 0.929 . S
H187 C184 0.930 . S
H188 C176 0.929 . S
H189 C178 0.929 . S
O190 Co165 2.351 . S
O190 C193 1.244 . S
O191 Co165 2.155 . S
O191 C193 1.240 . S
O192 Co165 2.096 . S
O192 C173 1.247 . S
C193 O190 1.244 . S
C193 O191 1.240 . S
H194 C168 0.931 . S
H195 C177 0.931 . S
H196 C181 0.929 . S
H197 C183 0.930 . S
Co198 N202 2.148 . S
Co198 N208 2.128 . S
Co198 N218 2.194 . S
Co198 O223 2.351 1_556 S
Co198 O224 2.155 . S
Co198 O225 2.096 . S
C199 N202 1.301 . S
C199 N203 1.328 . S
C199 H204 0.930 . S
C200 C201 1.333 . S
C200 N202 1.317 . S
C200 H205 0.930 . S
C201 C200 1.333 . S
C201 N203 1.350 . S
C201 H227 0.931 . S
N202 Co198 2.148 . S
N202 C199 1.301 . S
N202 C200 1.317 . S
N203 C199 1.328 . S
N203 C201 1.350 . S
H204 C199 0.930 . S
H205 C200 0.930 . S
C206 O207 1.224 . S
C206 O225 1.247 . S
O207 C206 1.224 . S
N208 Co198 2.128 . S
N208 C209 1.355 . S
N208 C211 1.311 . S
C209 N208 1.355 . S
C209 C210 1.363 . S
C209 H221 0.929 . S
C210 C209 1.363 . S
C210 N212 1.375 . S
C210 H228 0.931 . S
C211 N208 1.311 . S
C211 N212 1.347 . S
C211 H222 0.929 . S
N212 C210 1.375 . S
N212 C211 1.347 . S
C213 C216 1.365 . S
C213 N218 1.328 . S
C213 H219 0.929 . S
C214 C215 1.362 . S
C214 C217 1.378 . S
C214 H229 0.929 . S
C215 C214 1.362 . S
C215 C216 1.366 . S
C216 C213 1.365 . S
C216 C215 1.366 . S
C216 H230 0.930 . S
C217 C214 1.378 . S
C217 N218 1.315 . S
C217 H220 0.930 . S
N218 Co198 2.194 . S
N218 C213 1.328 . S
N218 C217 1.315 . S
H219 C213 0.929 . S
H220 C217 0.930 . S
H221 C209 0.929 . S
H222 C211 0.929 . S
O223 Co198 2.351 1_554 S
O223 C226 1.244 . S
O224 Co198 2.155 . S
O224 C226 1.240 1_556 S
O225 Co198 2.096 . S
O225 C206 1.247 . S
C226 O223 1.244 . S
C226 O224 1.240 1_554 S
H227 C201 0.931 . S
H228 C210 0.931 . S
H229 C214 0.929 . S
H230 C216 0.930 . S
Co231 N235 2.148 . S
Co231 N241 2.128 . S
Co231 N251 2.194 . S
Co231 O256 2.351 . S
Co231 O257 2.155 . S
Co231 O258 2.096 . S
C232 N235 1.301 1_455 S
C232 N236 1.328 . S
C232 H237 0.930 . S
C233 C234 1.344 . S
C233 N235 1.313 1_455 S
C233 H238 0.924 1_455 S
C234 C233 1.344 . S
C234 N236 1.350 . S
C234 H260 0.931 . S
N235 Co231 2.148 . S
N235 C232 1.301 1_655 S
N235 C233 1.313 1_655 S
N236 C232 1.328 . S
N236 C234 1.350 . S
H237 C232 0.930 . S
H238 C233 0.924 1_655 S
C239 O240 1.224 . S
C239 O258 1.247 . S
O240 C239 1.224 . S
N241 Co231 2.128 . S
N241 C242 1.355 . S
N241 C244 1.311 . S
C242 N241 1.355 . S
C242 C243 1.363 . S
C242 H254 0.929 . S
C243 C242 1.363 . S
C243 N245 1.375 . S
C243 H261 0.931 . S
C244 N241 1.311 . S
C244 N245 1.347 . S
C244 H255 0.929 . S
N245 C243 1.375 . S
N245 C244 1.347 . S
C246 C249 1.365 . S
C246 N251 1.328 . S
C246 H252 0.929 . S
C247 C248 1.362 . S
C247 C250 1.378 . S
C247 H262 0.929 . S
C248 C247 1.362 . S
C248 C249 1.366 . S
C249 C246 1.365 . S
C249 C248 1.366 . S
C249 H263 0.930 . S
C250 C247 1.378 . S
C250 N251 1.315 . S
C250 H253 0.930 . S
N251 Co231 2.194 . S
N251 C246 1.328 . S
N251 C250 1.315 . S
H252 C246 0.929 . S
H253 C250 0.930 . S
H254 C242 0.929 . S
H255 C244 0.929 . S
O256 Co231 2.351 . S
O256 C259 1.244 . S
O257 Co231 2.155 . S
O257 C259 1.240 . S
O258 Co231 2.096 . S
O258 C239 1.247 . S
C259 O256 1.244 . S
C259 O257 1.240 . S
H260 C234 0.931 . S
H261 C243 0.931 . S
H262 C247 0.929 . S
H263 C249 0.930 . S
Co264 N268 2.148 . S
Co264 N274 2.128 . S
Co264 N284 2.194 . S
Co264 O289 2.351 . S
Co264 O290 2.155 . S
Co264 O291 2.096 . S
C265 N268 1.301 . S
C265 N269 1.328 . S
C265 H270 0.930 . S
C266 C267 1.333 . S
C266 N268 1.317 . S
C266 H271 0.930 . S
C267 C266 1.333 . S
C267 N269 1.350 . S
C267 H293 0.931 . S
N268 Co264 2.148 . S
N268 C265 1.301 . S
N268 C266 1.317 . S
N269 C265 1.328 . S
N269 C267 1.350 . S
H270 C265 0.930 . S
H271 C266 0.930 . S
C272 O273 1.224 . S
C272 O291 1.247 . S
O273 C272 1.224 . S
N274 Co264 2.128 . S
N274 C275 1.355 . S
N274 C277 1.311 . S
C275 N274 1.355 . S
C275 C276 1.363 . S
C275 H287 0.929 . S
C276 C275 1.363 . S
C276 N278 1.375 . S
C276 H294 0.931 . S
C277 N274 1.311 . S
C277 N278 1.347 . S
C277 H288 0.929 . S
N278 C276 1.375 . S
N278 C277 1.347 . S
C279 C282 1.365 . S
C279 N284 1.328 . S
C279 H285 0.929 . S
C280 C281 1.362 . S
C280 C283 1.378 . S
C280 H295 0.929 . S
C281 C280 1.362 . S
C281 C282 1.366 . S
C282 C279 1.365 . S
C282 C281 1.366 . S
C282 H296 0.930 . S
C283 C280 1.378 . S
C283 N284 1.315 . S
C283 H286 0.930 . S
N284 Co264 2.194 . S
N284 C279 1.328 . S
N284 C283 1.315 . S
H285 C279 0.929 . S
H286 C283 0.930 . S
H287 C275 0.929 . S
H288 C277 0.929 . S
O289 Co264 2.351 . S
O289 C292 1.244 . S
O290 Co264 2.155 . S
O290 C292 1.240 . S
O291 Co264 2.096 . S
O291 C272 1.247 . S
C292 O289 1.244 . S
C292 O290 1.240 . S
H293 C267 0.931 . S
H294 C276 0.931 . S
H295 C280 0.929 . S
H296 C282 0.930 . S
Co297 N301 2.148 . S
Co297 N307 2.128 . S
Co297 N317 2.194 . S
Co297 O322 2.351 . S
Co297 O323 2.155 . S
Co297 O324 2.096 . S
C298 N301 1.301 . S
C298 N302 1.328 . S
C298 H303 0.930 . S
C299 C300 1.333 . S
C299 N301 1.317 . S
C299 H304 0.930 . S
C300 C299 1.333 . S
C300 N302 1.350 . S
C300 H326 0.931 . S
N301 Co297 2.148 . S
N301 C298 1.301 . S
N301 C299 1.317 . S
N302 C298 1.328 . S
N302 C300 1.350 . S
H303 C298 0.930 . S
H304 C299 0.930 . S
C305 O306 1.224 . S
C305 O324 1.247 1_545 S
O306 C305 1.224 . S
N307 Co297 2.128 . S
N307 C308 1.355 . S
N307 C310 1.311 . S
C308 N307 1.355 . S
C308 C309 1.363 . S
C308 H320 0.929 . S
C309 C308 1.363 . S
C309 N311 1.375 . S
C309 H327 0.931 . S
C310 N307 1.311 . S
C310 N311 1.347 . S
C310 H321 0.929 . S
N311 C309 1.375 . S
N311 C310 1.347 . S
C312 C315 1.365 . S
C312 N317 1.328 . S
C312 H318 0.929 . S
C313 C314 1.362 . S
C313 C316 1.378 . S
C313 H328 0.929 . S
C314 C313 1.362 . S
C314 C315 1.366 . S
C315 C312 1.365 . S
C315 C314 1.366 . S
C315 H329 0.930 . S
C316 C313 1.378 . S
C316 N317 1.315 . S
C316 H319 0.930 . S
N317 Co297 2.194 . S
N317 C312 1.328 . S
N317 C316 1.315 . S
H318 C312 0.929 . S
H319 C316 0.930 . S
H320 C308 0.929 . S
H321 C310 0.929 . S
O322 Co297 2.351 . S
O322 C325 1.244 . S
O323 Co297 2.155 . S
O323 C325 1.240 . S
O324 Co297 2.096 . S
O324 C305 1.247 1_565 S
C325 O322 1.244 . S
C325 O323 1.240 . S
H326 C300 0.931 . S
H327 C309 0.931 . S
H328 C313 0.929 . S
H329 C315 0.930 . S
Co330 N334 2.148 . S
Co330 N340 2.128 . S
Co330 N350 2.194 . S
Co330 O355 2.351 . S
Co330 O356 2.155 . S
Co330 O357 2.096 . S
C331 N334 1.301 . S
C331 N335 1.328 . S
C331 H336 0.930 . S
C332 C333 1.333 . S
C332 N334 1.317 . S
C332 H337 0.930 . S
C333 C332 1.333 . S
C333 N335 1.350 . S
C333 H359 0.931 . S
N334 Co330 2.148 . S
N334 C331 1.301 . S
N334 C332 1.317 . S
N335 C331 1.328 . S
N335 C333 1.350 . S
H336 C331 0.930 . S
H337 C332 0.930 . S
C338 O339 1.224 . S
C338 O357 1.247 . S
O339 C338 1.224 . S
N340 Co330 2.128 . S
N340 C341 1.355 1_556 S
N340 C343 1.311 1_556 S
C341 N340 1.355 1_554 S
C341 C342 1.363 . S
C341 H353 0.929 1_554 S
C342 C341 1.363 . S
C342 N344 1.375 . S
C342 H360 0.931 . S
C343 N340 1.311 1_554 S
C343 N344 1.347 . S
C343 H354 0.929 . S
N344 C342 1.375 . S
N344 C343 1.347 . S
C345 C348 1.365 . S
C345 N350 1.328 . S
C345 H351 0.929 . S
C346 C347 1.354 1_545 S
C346 C349 1.378 . S
C346 H361 0.929 . S
C347 C346 1.354 1_565 S
C347 C348 1.357 1_565 S
C348 C345 1.365 . S
C348 C347 1.357 1_545 S
C348 H362 0.930 . S
C349 C346 1.378 . S
C349 N350 1.315 . S
C349 H352 0.930 . S
N350 Co330 2.194 . S
N350 C345 1.328 . S
N350 C349 1.315 . S
H351 C345 0.929 . S
H352 C349 0.930 . S
H353 C341 0.929 1_556 S
H354 C343 0.929 . S
O355 Co330 2.351 . S
O355 C358 1.244 . S
O356 Co330 2.155 . S
O356 C358 1.240 . S
O357 Co330 2.096 . S
O357 C338 1.247 . S
C358 O355 1.244 . S
C358 O356 1.240 . S
H359 C333 0.931 . S
H360 C342 0.931 . S
H361 C346 0.929 . S
H362 C348 0.930 . S
Co363 N367 2.148 . S
Co363 N373 2.128 . S
Co363 N383 2.194 . S
Co363 O388 2.351 . S
Co363 O389 2.155 . S
Co363 O390 2.096 . S
C364 N367 1.301 . S
C364 N368 1.328 . S
C364 H369 0.930 . S
C365 C366 1.333 . S
C365 N367 1.317 . S
C365 H370 0.930 . S
C366 C365 1.333 . S
C366 N368 1.350 . S
C366 H392 0.931 . S
N367 Co363 2.148 . S
N367 C364 1.301 . S
N367 C365 1.317 . S
N368 C364 1.328 . S
N368 C366 1.350 . S
H369 C364 0.930 . S
H370 C365 0.930 . S
C371 O372 1.224 . S
C371 O390 1.247 . S
O372 C371 1.224 . S
N373 Co363 2.128 . S
N373 C374 1.355 . S
N373 C376 1.311 . S
C374 N373 1.355 . S
C374 C375 1.363 . S
C374 H386 0.929 . S
C375 C374 1.363 . S
C375 N377 1.375 . S
C375 H393 0.931 . S
C376 N373 1.311 . S
C376 N377 1.347 . S
C376 H387 0.929 . S
N377 C375 1.375 . S
N377 C376 1.347 . S
C378 C381 1.365 . S
C378 N383 1.328 . S
C378 H384 0.929 . S
C379 C380 1.362 . S
C379 C382 1.378 . S
C379 H394 0.929 . S
C380 C379 1.362 . S
C380 C381 1.366 . S
C381 C378 1.365 . S
C381 C380 1.366 . S
C381 H395 0.930 . S
C382 C379 1.378 . S
C382 N383 1.315 . S
C382 H385 0.930 . S
N383 Co363 2.194 . S
N383 C378 1.328 . S
N383 C382 1.315 . S
H384 C378 0.929 . S
H385 C382 0.930 . S
H386 C374 0.929 . S
H387 C376 0.929 . S
O388 Co363 2.351 . S
O388 C391 1.244 . S
O389 Co363 2.155 . S
O389 C391 1.240 . S
O390 Co363 2.096 . S
O390 C371 1.247 . S
C391 O388 1.244 . S
C391 O389 1.240 . S
H392 C366 0.931 . S
H393 C375 0.931 . S
H394 C379 0.929 . S
H395 C381 0.930 . S
Co396 N400 2.148 . S
Co396 N406 2.128 . S
Co396 N416 2.194 . S
Co396 O421 2.351 . S
Co396 O422 2.155 . S
Co396 O423 2.096 . S
C397 N400 1.301 . S
C397 N401 1.328 . S
C397 H402 0.930 . S
C398 C399 1.333 . S
C398 N400 1.317 . S
C398 H403 0.930 . S
C399 C398 1.333 . S
C399 N401 1.350 . S
C399 H425 0.931 . S
N400 Co396 2.148 . S
N400 C397 1.301 . S
N400 C398 1.317 . S
N401 C397 1.328 . S
N401 C399 1.350 . S
H402 C397 0.930 . S
H403 C398 0.930 . S
C404 O405 1.224 . S
C404 O423 1.247 . S
O405 C404 1.224 . S
N406 Co396 2.128 . S
N406 C407 1.355 . S
N406 C409 1.311 . S
C407 N406 1.355 . S
C407 C408 1.363 . S
C407 H419 0.929 . S
C408 C407 1.363 . S
C408 N410 1.375 . S
C408 H426 0.931 . S
C409 N406 1.311 . S
C409 N410 1.347 . S
C409 H420 0.929 . S
N410 C408 1.375 . S
N410 C409 1.347 . S
C411 C414 1.365 . S
C411 N416 1.328 . S
C411 H417 0.929 . S
C412 C413 1.356 1_545 S
C412 C415 1.378 . S
C412 H427 0.929 . S
C413 C412 1.356 1_565 S
C413 C414 1.359 1_565 S
C414 C411 1.365 . S
C414 C413 1.359 1_545 S
C414 H428 0.930 . S
C415 C412 1.378 . S
C415 N416 1.315 . S
C415 H418 0.930 . S
N416 Co396 2.194 . S
N416 C411 1.328 . S
N416 C415 1.315 . S
H417 C411 0.929 . S
H418 C415 0.930 . S
H419 C407 0.929 . S
H420 C409 0.929 . S
O421 Co396 2.351 . S
O421 C424 1.244 . S
O422 Co396 2.155 . S
O422 C424 1.240 . S
O423 Co396 2.096 . S
O423 C404 1.247 . S
C424 O421 1.244 . S
C424 O422 1.240 . S
H425 C399 0.931 . S
H426 C408 0.931 . S
H427 C412 0.929 . S
H428 C414 0.930 . S
Co429 N433 2.148 . S
Co429 N439 2.128 . S
Co429 N449 2.194 . S
Co429 O454 2.351 . S
Co429 O455 2.155 . S
Co429 O456 2.096 . S
C430 N433 1.301 . S
C430 N434 1.328 . S
C430 H435 0.930 . S
C431 C432 1.333 . S
C431 N433 1.317 . S
C431 H436 0.930 . S
C432 C431 1.333 . S
C432 N434 1.350 . S
C432 H458 0.931 . S
N433 Co429 2.148 . S
N433 C430 1.301 . S
N433 C431 1.317 . S
N434 C430 1.328 . S
N434 C432 1.350 . S
H435 C430 0.930 . S
H436 C431 0.930 . S
C437 O438 1.224 . S
C437 O456 1.247 1_545 S
O438 C437 1.224 . S
N439 Co429 2.128 . S
N439 C440 1.355 . S
N439 C442 1.311 . S
C440 N439 1.355 . S
C440 C441 1.363 . S
C440 H452 0.929 . S
C441 C440 1.363 . S
C441 N443 1.375 . S
C441 H459 0.931 . S
C442 N439 1.311 . S
C442 N443 1.347 . S
C442 H453 0.929 . S
N443 C441 1.375 . S
N443 C442 1.347 . S
C444 C447 1.365 . S
C444 N449 1.328 . S
C444 H450 0.929 . S
C445 C446 1.362 . S
C445 C448 1.378 . S
C445 H460 0.929 . S
C446 C445 1.362 . S
C446 C447 1.366 . S
C447 C444 1.365 . S
C447 C446 1.366 . S
C447 H461 0.930 . S
C448 C445 1.378 . S
C448 N449 1.315 . S
C448 H451 0.930 . S
N449 Co429 2.194 . S
N449 C444 1.328 . S
N449 C448 1.315 . S
H450 C444 0.929 . S
H451 C448 0.930 . S
H452 C440 0.929 . S
H453 C442 0.929 . S
O454 Co429 2.351 . S
O454 C457 1.244 . S
O455 Co429 2.155 . S
O455 C457 1.240 . S
O456 Co429 2.096 . S
O456 C437 1.247 1_565 S
C457 O454 1.244 . S
C457 O455 1.240 . S
H458 C432 0.931 . S
H459 C441 0.931 . S
H460 C445 0.929 . S
H461 C447 0.930 . S
Co462 N466 2.148 . S
Co462 N472 2.128 . S
Co462 N482 2.194 . S
Co462 O487 2.351 . S
Co462 O488 2.155 . S
Co462 O489 2.096 . S
C463 N466 1.301 . S
C463 N467 1.328 . S
C463 H468 0.930 . S
C464 C465 1.333 . S
C464 N466 1.317 . S
C464 H469 0.930 . S
C465 C464 1.333 . S
C465 N467 1.350 . S
C465 H491 0.931 . S
N466 Co462 2.148 . S
N466 C463 1.301 . S
N466 C464 1.317 . S
N467 C463 1.328 . S
N467 C465 1.350 . S
H468 C463 0.930 . S
H469 C464 0.930 . S
C470 O471 1.224 . S
C470 O489 1.247 . S
O471 C470 1.224 . S
N472 Co462 2.128 . S
N472 C473 1.355 . S
N472 C475 1.311 . S
C473 N472 1.355 . S
C473 C474 1.363 . S
C473 H485 0.929 . S
C474 C473 1.363 . S
C474 N476 1.375 . S
C474 H492 0.931 . S
C475 N472 1.311 . S
C475 N476 1.347 . S
C475 H486 0.929 . S
N476 C474 1.375 . S
N476 C475 1.347 . S
C477 C480 1.365 . S
C477 N482 1.328 . S
C477 H483 0.929 . S
C478 C479 1.362 . S
C478 C481 1.378 . S
C478 H493 0.929 . S
C479 C478 1.362 . S
C479 C480 1.366 . S
C480 C477 1.365 . S
C480 C479 1.366 . S
C480 H494 0.930 . S
C481 C478 1.378 . S
C481 N482 1.315 . S
C481 H484 0.930 . S
N482 Co462 2.194 . S
N482 C477 1.328 . S
N482 C481 1.315 . S
H483 C477 0.929 . S
H484 C481 0.930 . S
H485 C473 0.929 . S
H486 C475 0.929 . S
O487 Co462 2.351 . S
O487 C490 1.244 . S
O488 Co462 2.155 . S
O488 C490 1.240 . S
O489 Co462 2.096 . S
O489 C470 1.247 . S
C490 O487 1.244 . S
C490 O488 1.240 . S
H491 C465 0.931 . S
H492 C474 0.931 . S
H493 C478 0.929 . S
H494 C480 0.930 . S
Co495 N499 2.148 . S
Co495 N505 2.128 . S
Co495 N515 2.194 . S
Co495 O520 2.351 . S
Co495 O521 2.155 . S
Co495 O522 2.096 . S
C496 N499 1.301 1_554 S
C496 N500 1.328 . S
C496 H501 0.930 . S
C497 C498 1.344 . S
C497 N499 1.313 1_554 S
C497 H502 0.924 1_554 S
C498 C497 1.344 . S
C498 N500 1.350 . S
C498 H524 0.931 . S
N499 Co495 2.148 . S
N499 C496 1.301 1_556 S
N499 C497 1.313 1_556 S
N500 C496 1.328 . S
N500 C498 1.350 . S
H501 C496 0.930 . S
H502 C497 0.924 1_556 S
C503 O504 1.224 . S
C503 O522 1.247 . S
O504 C503 1.224 . S
N505 Co495 2.128 . S
N505 C506 1.355 . S
N505 C508 1.311 . S
C506 N505 1.355 . S
C506 C507 1.363 . S
C506 H518 0.929 . S
C507 C506 1.363 . S
C507 N509 1.375 . S
C507 H525 0.931 . S
C508 N505 1.311 . S
C508 N509 1.347 . S
C508 H519 0.929 . S
N509 C507 1.375 . S
N509 C508 1.347 . S
C510 C513 1.365 . S
C510 N515 1.328 . S
C510 H516 0.929 . S
C511 C512 1.362 . S
C511 C514 1.378 . S
C511 H526 0.929 . S
C512 C511 1.362 . S
C512 C513 1.366 . S
C513 C510 1.365 . S
C513 C512 1.366 . S
C513 H527 0.930 . S
C514 C511 1.378 . S
C514 N515 1.315 . S
C514 H517 0.930 . S
N515 Co495 2.194 . S
N515 C510 1.328 . S
N515 C514 1.315 . S
H516 C510 0.929 . S
H517 C514 0.930 . S
H518 C506 0.929 . S
H519 C508 0.929 . S
O520 Co495 2.351 . S
O520 C523 1.244 . S
O521 Co495 2.155 . S
O521 C523 1.240 . S
O522 Co495 2.096 . S
O522 C503 1.247 . S
C523 O520 1.244 . S
C523 O521 1.240 . S
H524 C498 0.931 . S
H525 C507 0.931 . S
H526 C511 0.929 . S
H527 C513 0.930 . S
Co528 N532 2.148 . S
Co528 N538 2.128 . S
Co528 N548 2.194 . S
Co528 O553 2.351 . S
Co528 O554 2.155 . S
Co528 O555 2.096 . S
C529 N532 1.301 . S
C529 N533 1.328 . S
C529 H534 0.930 . S
C530 C531 1.333 . S
C530 N532 1.317 . S
C530 H535 0.930 . S
C531 C530 1.333 . S
C531 N533 1.350 . S
C531 H557 0.931 . S
N532 Co528 2.148 . S
N532 C529 1.301 . S
N532 C530 1.317 . S
N533 C529 1.328 . S
N533 C531 1.350 . S
H534 C529 0.930 . S
H535 C530 0.930 . S
C536 O537 1.224 . S
C536 O555 1.247 . S
O537 C536 1.224 . S
N538 Co528 2.128 . S
N538 C539 1.355 . S
N538 C541 1.311 . S
C539 N538 1.355 . S
C539 C540 1.363 . S
C539 H551 0.929 . S
C540 C539 1.363 . S
C540 N542 1.375 . S
C540 H558 0.931 . S
C541 N538 1.311 . S
C541 N542 1.347 . S
C541 H552 0.929 . S
N542 C540 1.375 . S
N542 C541 1.347 . S
C543 C546 1.365 . S
C543 N548 1.328 . S
C543 H549 0.929 . S
C544 C545 1.362 . S
C544 C547 1.378 . S
C544 H559 0.929 . S
C545 C544 1.362 . S
C545 C546 1.366 . S
C546 C543 1.365 . S
C546 C545 1.366 . S
C546 H560 0.930 . S
C547 C544 1.378 . S
C547 N548 1.315 . S
C547 H550 0.930 . S
N548 Co528 2.194 . S
N548 C543 1.328 . S
N548 C547 1.315 . S
H549 C543 0.929 . S
H550 C547 0.930 . S
H551 C539 0.929 . S
H552 C541 0.929 . S
O553 Co528 2.351 . S
O553 C556 1.244 . S
O554 Co528 2.155 . S
O554 C556 1.240 . S
O555 Co528 2.096 . S
O555 C536 1.247 . S
C556 O553 1.244 . S
C556 O554 1.240 . S
H557 C531 0.931 . S
H558 C540 0.931 . S
H559 C544 0.929 . S
H560 C546 0.930 . S
Co561 N565 2.148 . S
Co561 N571 2.128 . S
Co561 N581 2.194 . S
Co561 O586 2.351 . S
Co561 O587 2.155 . S
Co561 O588 2.096 . S
C562 N565 1.301 . S
C562 N566 1.328 . S
C562 H567 0.930 . S
C563 C564 1.333 . S
C563 N565 1.317 . S
C563 H568 0.930 . S
C564 C563 1.333 . S
C564 N566 1.350 . S
C564 H590 0.931 . S
N565 Co561 2.148 . S
N565 C562 1.301 . S
N565 C563 1.317 . S
N566 C562 1.328 . S
N566 C564 1.350 . S
H567 C562 0.930 . S
H568 C563 0.930 . S
C569 O570 1.224 . S
C569 O588 1.247 . S
O570 C569 1.224 . S
N571 Co561 2.128 . S
N571 C572 1.355 1_655 S
N571 C574 1.311 1_655 S
C572 N571 1.355 1_455 S
C572 C573 1.363 . S
C572 H584 0.929 1_455 S
C573 C572 1.363 . S
C573 N575 1.375 . S
C573 H591 0.931 . S
C574 N571 1.311 1_455 S
C574 N575 1.347 . S
C574 H585 0.929 . S
N575 C573 1.375 . S
N575 C574 1.347 . S
C576 C579 1.365 . S
C576 N581 1.328 . S
C576 H582 0.929 . S
C577 C578 1.354 1_554 S
C577 C580 1.378 . S
C577 H592 0.929 . S
C578 C577 1.354 1_556 S
C578 C579 1.357 1_556 S
C579 C576 1.365 . S
C579 C578 1.357 1_554 S
C579 H593 0.930 . S
C580 C577 1.378 . S
C580 N581 1.315 . S
C580 H583 0.930 . S
N581 Co561 2.194 . S
N581 C576 1.328 . S
N581 C580 1.315 . S
H582 C576 0.929 . S
H583 C580 0.930 . S
H584 C572 0.929 1_655 S
H585 C574 0.929 . S
O586 Co561 2.351 . S
O586 C589 1.244 . S
O587 Co561 2.155 . S
O587 C589 1.240 . S
O588 Co561 2.096 . S
O588 C569 1.247 . S
C589 O586 1.244 . S
C589 O587 1.240 . S
H590 C564 0.931 . S
H591 C573 0.931 . S
H592 C577 0.929 . S
H593 C579 0.930 . S
Co594 N598 2.148 . S
Co594 N604 2.128 . S
Co594 N614 2.194 . S
Co594 O619 2.351 . S
Co594 O620 2.155 . S
Co594 O621 2.096 . S
C595 N598 1.301 . S
C595 N599 1.328 . S
C595 H600 0.930 . S
C596 C597 1.333 . S
C596 N598 1.317 . S
C596 H601 0.930 . S
C597 C596 1.333 . S
C597 N599 1.350 . S
C597 H623 0.931 . S
N598 Co594 2.148 . S
N598 C595 1.301 . S
N598 C596 1.317 . S
N599 C595 1.328 . S
N599 C597 1.350 . S
H600 C595 0.930 . S
H601 C596 0.930 . S
C602 O603 1.224 . S
C602 O621 1.247 1_455 S
O603 C602 1.224 . S
N604 Co594 2.128 . S
N604 C605 1.355 . S
N604 C607 1.311 . S
C605 N604 1.355 . S
C605 C606 1.363 . S
C605 H617 0.929 . S
C606 C605 1.363 . S
C606 N608 1.375 . S
C606 H624 0.931 . S
C607 N604 1.311 . S
C607 N608 1.347 . S
C607 H618 0.929 . S
N608 C606 1.375 . S
N608 C607 1.347 . S
C609 C612 1.365 . S
C609 N614 1.328 . S
C609 H615 0.929 . S
C610 C611 1.362 . S
C610 C613 1.378 . S
C610 H625 0.929 . S
C611 C610 1.362 . S
C611 C612 1.366 . S
C612 C609 1.365 . S
C612 C611 1.366 . S
C612 H626 0.930 . S
C613 C610 1.378 . S
C613 N614 1.315 . S
C613 H616 0.930 . S
N614 Co594 2.194 . S
N614 C609 1.328 . S
N614 C613 1.315 . S
H615 C609 0.929 . S
H616 C613 0.930 . S
H617 C605 0.929 . S
H618 C607 0.929 . S
O619 Co594 2.351 . S
O619 C622 1.244 . S
O620 Co594 2.155 . S
O620 C622 1.240 . S
O621 Co594 2.096 . S
O621 C602 1.247 1_655 S
C622 O619 1.244 . S
C622 O620 1.240 . S
H623 C597 0.931 . S
H624 C606 0.931 . S
H625 C610 0.929 . S
H626 C612 0.930 . S
Co627 N631 2.148 . S
Co627 N637 2.128 . S
Co627 N647 2.194 . S
Co627 O652 2.351 . S
Co627 O653 2.155 . S
Co627 O654 2.096 . S
C628 N631 1.301 . S
C628 N632 1.328 . S
C628 H633 0.930 . S
C629 C630 1.333 . S
C629 N631 1.317 . S
C629 H634 0.930 . S
C630 C629 1.333 . S
C630 N632 1.350 . S
C630 H656 0.931 . S
N631 Co627 2.148 . S
N631 C628 1.301 . S
N631 C629 1.317 . S
N632 C628 1.328 . S
N632 C630 1.350 . S
H633 C628 0.930 . S
H634 C629 0.930 . S
C635 O636 1.224 . S
C635 O654 1.247 . S
O636 C635 1.224 . S
N637 Co627 2.128 . S
N637 C638 1.355 . S
N637 C640 1.311 . S
C638 N637 1.355 . S
C638 C639 1.363 . S
C638 H650 0.929 . S
C639 C638 1.363 . S
C639 N641 1.375 . S
C639 H657 0.931 . S
C640 N637 1.311 . S
C640 N641 1.347 . S
C640 H651 0.929 . S
N641 C639 1.375 . S
N641 C640 1.347 . S
C642 C645 1.365 . S
C642 N647 1.328 . S
C642 H648 0.929 . S
C643 C644 1.362 . S
C643 C646 1.378 . S
C643 H658 0.929 . S
C644 C643 1.362 . S
C644 C645 1.366 . S
C645 C642 1.365 . S
C645 C644 1.366 . S
C645 H659 0.930 . S
C646 C643 1.378 . S
C646 N647 1.315 . S
C646 H649 0.930 . S
N647 Co627 2.194 . S
N647 C642 1.328 . S
N647 C646 1.315 . S
H648 C642 0.929 . S
H649 C646 0.930 . S
H650 C638 0.929 . S
H651 C640 0.929 . S
O652 Co627 2.351 . S
O652 C655 1.244 . S
O653 Co627 2.155 . S
O653 C655 1.240 . S
O654 Co627 2.096 . S
O654 C635 1.247 . S
C655 O652 1.244 . S
C655 O653 1.240 . S
H656 C630 0.931 . S
H657 C639 0.931 . S
H658 C643 0.929 . S
H659 C645 0.930 . S
Co660 N664 2.148 . S
Co660 N670 2.128 . S
Co660 N680 2.194 . S
Co660 O685 2.351 . S
Co660 O686 2.155 . S
Co660 O687 2.096 . S
C661 N664 1.301 1_545 S
C661 N665 1.328 . S
C661 H666 0.930 . S
C662 C663 1.344 . S
C662 N664 1.313 1_545 S
C662 H667 0.924 1_545 S
C663 C662 1.344 . S
C663 N665 1.350 . S
C663 H689 0.931 . S
N664 Co660 2.148 . S
N664 C661 1.301 1_565 S
N664 C662 1.313 1_565 S
N665 C661 1.328 . S
N665 C663 1.350 . S
H666 C661 0.930 . S
H667 C662 0.924 1_565 S
C668 O669 1.224 . S
C668 O687 1.247 . S
O669 C668 1.224 . S
N670 Co660 2.128 . S
N670 C671 1.355 . S
N670 C673 1.311 . S
C671 N670 1.355 . S
C671 C672 1.363 . S
C671 H683 0.929 . S
C672 C671 1.363 . S
C672 N674 1.375 . S
C672 H690 0.931 . S
C673 N670 1.311 . S
C673 N674 1.347 . S
C673 H684 0.929 . S
N674 C672 1.375 . S
N674 C673 1.347 . S
C675 C678 1.365 . S
C675 N680 1.328 . S
C675 H681 0.929 . S
C676 C677 1.362 . S
C676 C679 1.378 . S
C676 H691 0.929 . S
C677 C676 1.362 . S
C677 C678 1.366 . S
C678 C675 1.365 . S
C678 C677 1.366 . S
C678 H692 0.930 . S
C679 C676 1.378 . S
C679 N680 1.315 . S
C679 H682 0.930 . S
N680 Co660 2.194 . S
N680 C675 1.328 . S
N680 C679 1.315 . S
H681 C675 0.929 . S
H682 C679 0.930 . S
H683 C671 0.929 . S
H684 C673 0.929 . S
O685 Co660 2.351 . S
O685 C688 1.244 . S
O686 Co660 2.155 . S
O686 C688 1.240 . S
O687 Co660 2.096 . S
O687 C668 1.247 . S
C688 O685 1.244 . S
C688 O686 1.240 . S
H689 C663 0.931 . S
H690 C672 0.931 . S
H691 C676 0.929 . S
H692 C678 0.930 . S
Co693 N697 2.148 . S
Co693 N703 2.128 . S
Co693 N713 2.194 . S
Co693 O718 2.351 1_565 S
Co693 O719 2.155 . S
Co693 O720 2.096 . S
C694 N697 1.301 . S
C694 N698 1.328 . S
C694 H699 0.930 . S
C695 C696 1.333 . S
C695 N697 1.317 . S
C695 H700 0.930 . S
C696 C695 1.333 . S
C696 N698 1.350 . S
C696 H722 0.931 . S
N697 Co693 2.148 . S
N697 C694 1.301 . S
N697 C695 1.317 . S
N698 C694 1.328 . S
N698 C696 1.350 . S
H699 C694 0.930 . S
H700 C695 0.930 . S
C701 O702 1.224 . S
C701 O720 1.247 . S
O702 C701 1.224 . S
N703 Co693 2.128 . S
N703 C704 1.355 . S
N703 C706 1.311 . S
C704 N703 1.355 . S
C704 C705 1.363 . S
C704 H716 0.929 . S
C705 C704 1.363 . S
C705 N707 1.375 . S
C705 H723 0.931 . S
C706 N703 1.311 . S
C706 N707 1.347 . S
C706 H717 0.929 . S
N707 C705 1.375 . S
N707 C706 1.347 . S
C708 C711 1.365 . S
C708 N713 1.328 . S
C708 H714 0.929 . S
C709 C710 1.362 . S
C709 C712 1.378 . S
C709 H724 0.929 . S
C710 C709 1.362 . S
C710 C711 1.366 . S
C711 C708 1.365 . S
C711 C710 1.366 . S
C711 H725 0.930 . S
C712 C709 1.378 . S
C712 N713 1.315 . S
C712 H715 0.930 . S
N713 Co693 2.194 . S
N713 C708 1.328 . S
N713 C712 1.315 . S
H714 C708 0.929 . S
H715 C712 0.930 . S
H716 C704 0.929 . S
H717 C706 0.929 . S
O718 Co693 2.351 1_545 S
O718 C721 1.244 . S
O719 Co693 2.155 . S
O719 C721 1.240 1_565 S
O720 Co693 2.096 . S
O720 C701 1.247 . S
C721 O718 1.244 . S
C721 O719 1.240 1_545 S
H722 C696 0.931 . S
H723 C705 0.931 . S
H724 C709 0.929 . S
H725 C711 0.930 . S
Co726 N730 2.148 . S
Co726 N736 2.128 . S
Co726 N746 2.194 . S
Co726 O751 2.351 . S
Co726 O752 2.155 . S
Co726 O753 2.096 . S
C727 N730 1.301 . S
C727 N731 1.328 . S
C727 H732 0.930 . S
C728 C729 1.333 . S
C728 N730 1.317 . S
C728 H733 0.930 . S
C729 C728 1.333 . S
C729 N731 1.350 . S
C729 H755 0.931 . S
N730 Co726 2.148 . S
N730 C727 1.301 . S
N730 C728 1.317 . S
N731 C727 1.328 . S
N731 C729 1.350 . S
H732 C727 0.930 . S
H733 C728 0.930 . S
C734 O735 1.224 . S
C734 O753 1.247 1_455 S
O735 C734 1.224 . S
N736 Co726 2.128 . S
N736 C737 1.355 . S
N736 C739 1.311 . S
C737 N736 1.355 . S
C737 C738 1.363 . S
C737 H749 0.929 . S
C738 C737 1.363 . S
C738 N740 1.375 . S
C738 H756 0.931 . S
C739 N736 1.311 . S
C739 N740 1.347 . S
C739 H750 0.929 . S
N740 C738 1.375 . S
N740 C739 1.347 . S
C741 C744 1.365 . S
C741 N746 1.328 . S
C741 H747 0.929 . S
C742 C743 1.362 . S
C742 C745 1.378 . S
C742 H757 0.929 . S
C743 C742 1.362 . S
C743 C744 1.366 . S
C744 C741 1.365 . S
C744 C743 1.366 . S
C744 H758 0.930 . S
C745 C742 1.378 . S
C745 N746 1.315 . S
C745 H748 0.930 . S
N746 Co726 2.194 . S
N746 C741 1.328 . S
N746 C745 1.315 . S
H747 C741 0.929 . S
H748 C745 0.930 . S
H749 C737 0.929 . S
H750 C739 0.929 . S
O751 Co726 2.351 . S
O751 C754 1.244 . S
O752 Co726 2.155 . S
O752 C754 1.240 . S
O753 Co726 2.096 . S
O753 C734 1.247 1_655 S
C754 O751 1.244 . S
C754 O752 1.240 . S
H755 C729 0.931 . S
H756 C738 0.931 . S
H757 C742 0.929 . S
H758 C744 0.930 . S
Co759 N763 2.148 . S
Co759 N769 2.128 . S
Co759 N779 2.194 . S
Co759 O784 2.351 . S
Co759 O785 2.155 . S
Co759 O786 2.096 . S
C760 N763 1.301 . S
C760 N764 1.328 . S
C760 H765 0.930 . S
C761 C762 1.333 . S
C761 N763 1.317 . S
C761 H766 0.930 . S
C762 C761 1.333 . S
C762 N764 1.350 . S
C762 H788 0.931 . S
N763 Co759 2.148 . S
N763 C760 1.301 . S
N763 C761 1.317 . S
N764 C760 1.328 . S
N764 C762 1.350 . S
H765 C760 0.930 . S
H766 C761 0.930 . S
C767 O768 1.224 . S
C767 O786 1.247 . S
O768 C767 1.224 . S
N769 Co759 2.128 . S
N769 C770 1.355 . S
N769 C772 1.311 . S
C770 N769 1.355 . S
C770 C771 1.363 . S
C770 H782 0.929 . S
C771 C770 1.363 . S
C771 N773 1.375 . S
C771 H789 0.931 . S
C772 N769 1.311 . S
C772 N773 1.347 . S
C772 H783 0.929 . S
N773 C771 1.375 . S
N773 C772 1.347 . S
C774 C777 1.365 . S
C774 N779 1.328 . S
C774 H780 0.929 . S
C775 C776 1.362 . S
C775 C778 1.378 . S
C775 H790 0.929 . S
C776 C775 1.362 . S
C776 C777 1.366 . S
C777 C774 1.365 . S
C777 C776 1.366 . S
C777 H791 0.930 . S
C778 C775 1.378 . S
C778 N779 1.315 . S
C778 H781 0.930 . S
N779 Co759 2.194 . S
N779 C774 1.328 . S
N779 C778 1.315 . S
H780 C774 0.929 . S
H781 C778 0.930 . S
H782 C770 0.929 . S
H783 C772 0.929 . S
O784 Co759 2.351 . S
O784 C787 1.244 . S
O785 Co759 2.155 . S
O785 C787 1.240 . S
O786 Co759 2.096 . S
O786 C767 1.247 . S
C787 O784 1.244 . S
C787 O785 1.240 . S
H788 C762 0.931 . S
H789 C771 0.931 . S
H790 C775 0.929 . S
H791 C777 0.930 . S
Co792 N796 2.148 . S
Co792 N802 2.128 . S
Co792 N812 2.194 . S
Co792 O817 2.351 . S
Co792 O818 2.155 . S
Co792 O819 2.096 . S
C793 N796 1.301 . S
C793 N797 1.328 . S
C793 H798 0.930 . S
C794 C795 1.333 . S
C794 N796 1.317 . S
C794 H799 0.930 . S
C795 C794 1.333 . S
C795 N797 1.350 . S
C795 H821 0.931 . S
N796 Co792 2.148 . S
N796 C793 1.301 . S
N796 C794 1.317 . S
N797 C793 1.328 . S
N797 C795 1.350 . S
H798 C793 0.930 . S
H799 C794 0.930 . S
C800 O801 1.224 . S
C800 O819 1.247 . S
O801 C800 1.224 . S
N802 Co792 2.128 . S
N802 C803 1.355 1_565 S
N802 C805 1.311 1_565 S
C803 N802 1.355 1_545 S
C803 C804 1.363 . S
C803 H815 0.929 1_545 S
C804 C803 1.363 . S
C804 N806 1.375 . S
C804 H822 0.931 . S
C805 N802 1.311 1_545 S
C805 N806 1.347 . S
C805 H816 0.929 . S
N806 C804 1.375 . S
N806 C805 1.347 . S
C807 C810 1.365 . S
C807 N812 1.328 . S
C807 H813 0.929 . S
C808 C809 1.362 . S
C808 C811 1.378 . S
C808 H823 0.929 . S
C809 C808 1.362 . S
C809 C810 1.366 . S
C810 C807 1.365 . S
C810 C809 1.366 . S
C810 H824 0.930 . S
C811 C808 1.378 . S
C811 N812 1.315 . S
C811 H814 0.930 . S
N812 Co792 2.194 . S
N812 C807 1.328 . S
N812 C811 1.315 . S
H813 C807 0.929 . S
H814 C811 0.930 . S
H815 C803 0.929 1_565 S
H816 C805 0.929 . S
O817 Co792 2.351 . S
O817 C820 1.244 . S
O818 Co792 2.155 . S
O818 C820 1.240 . S
O819 Co792 2.096 . S
O819 C800 1.247 . S
C820 O817 1.244 . S
C820 O818 1.240 . S
H821 C795 0.931 . S
H822 C804 0.931 . S
H823 C808 0.929 . S
H824 C810 0.930 . S
Co825 N829 2.148 . S
Co825 N835 2.128 . S
Co825 N845 2.194 . S
Co825 O850 2.351 . S
Co825 O851 2.155 . S
Co825 O852 2.096 . S
C826 N829 1.301 . S
C826 N830 1.328 . S
C826 H831 0.930 . S
C827 C828 1.333 . S
C827 N829 1.317 . S
C827 H832 0.930 . S
C828 C827 1.333 . S
C828 N830 1.350 . S
C828 H854 0.931 . S
N829 Co825 2.148 . S
N829 C826 1.301 . S
N829 C827 1.317 . S
N830 C826 1.328 . S
N830 C828 1.350 . S
H831 C826 0.930 . S
H832 C827 0.930 . S
C833 O834 1.224 . S
C833 O852 1.247 1_554 S
O834 C833 1.224 . S
N835 Co825 2.128 . S
N835 C836 1.355 . S
N835 C838 1.311 . S
C836 N835 1.355 . S
C836 C837 1.363 . S
C836 H848 0.929 . S
C837 C836 1.363 . S
C837 N839 1.375 . S
C837 H855 0.931 . S
C838 N835 1.311 . S
C838 N839 1.347 . S
C838 H849 0.929 . S
N839 C837 1.375 . S
N839 C838 1.347 . S
C840 C843 1.365 . S
C840 N845 1.328 . S
C840 H846 0.929 . S
C841 C842 1.362 . S
C841 C844 1.378 . S
C841 H856 0.929 . S
C842 C841 1.362 . S
C842 C843 1.366 . S
C843 C840 1.365 . S
C843 C842 1.366 . S
C843 H857 0.930 . S
C844 C841 1.378 . S
C844 N845 1.315 . S
C844 H847 0.930 . S
N845 Co825 2.194 . S
N845 C840 1.328 . S
N845 C844 1.315 . S
H846 C840 0.929 . S
H847 C844 0.930 . S
H848 C836 0.929 . S
H849 C838 0.929 . S
O850 Co825 2.351 . S
O850 C853 1.244 . S
O851 Co825 2.155 . S
O851 C853 1.240 . S
O852 Co825 2.096 . S
O852 C833 1.247 1_556 S
C853 O850 1.244 . S
C853 O851 1.240 . S
H854 C828 0.931 . S
H855 C837 0.931 . S
H856 C841 0.929 . S
H857 C843 0.930 . S
Co858 N862 2.148 . S
Co858 N868 2.128 . S
Co858 N878 2.194 . S
Co858 O883 2.351 . S
Co858 O884 2.155 . S
Co858 O885 2.096 . S
C859 N862 1.301 . S
C859 N863 1.328 . S
C859 H864 0.930 . S
C860 C861 1.333 . S
C860 N862 1.317 . S
C860 H865 0.930 . S
C861 C860 1.333 . S
C861 N863 1.350 . S
C861 H887 0.931 . S
N862 Co858 2.148 . S
N862 C859 1.301 . S
N862 C860 1.317 . S
N863 C859 1.328 . S
N863 C861 1.350 . S
H864 C859 0.930 . S
H865 C860 0.930 . S
C866 O867 1.224 . S
C866 O885 1.247 . S
O867 C866 1.224 . S
N868 Co858 2.128 . S
N868 C869 1.355 . S
N868 C871 1.311 . S
C869 N868 1.355 . S
C869 C870 1.363 . S
C869 H881 0.929 . S
C870 C869 1.363 . S
C870 N872 1.375 . S
C870 H888 0.931 . S
C871 N868 1.311 . S
C871 N872 1.347 . S
C871 H882 0.929 . S
N872 C870 1.375 . S
N872 C871 1.347 . S
C873 C876 1.365 . S
C873 N878 1.328 . S
C873 H879 0.929 . S
C874 C875 1.356 1_455 S
C874 C877 1.378 . S
C874 H889 0.929 . S
C875 C874 1.356 1_655 S
C875 C876 1.359 1_655 S
C876 C873 1.365 . S
C876 C875 1.359 1_455 S
C876 H890 0.930 . S
C877 C874 1.378 . S
C877 N878 1.315 . S
C877 H880 0.930 . S
N878 Co858 2.194 . S
N878 C873 1.328 . S
N878 C877 1.315 . S
H879 C873 0.929 . S
H880 C877 0.930 . S
H881 C869 0.929 . S
H882 C871 0.929 . S
O883 Co858 2.351 . S
O883 C886 1.244 . S
O884 Co858 2.155 . S
O884 C886 1.240 . S
O885 Co858 2.096 . S
O885 C866 1.247 . S
C886 O883 1.244 . S
C886 O884 1.240 . S
H887 C861 0.931 . S
H888 C870 0.931 . S
H889 C874 0.929 . S
H890 C876 0.930 . S
Co891 N895 2.148 . S
Co891 N901 2.128 . S
Co891 N911 2.194 . S
Co891 O916 2.351 . S
Co891 O917 2.155 . S
Co891 O918 2.096 . S
C892 N895 1.301 . S
C892 N896 1.328 . S
C892 H897 0.930 . S
C893 C894 1.333 . S
C893 N895 1.317 . S
C893 H898 0.930 . S
C894 C893 1.333 . S
C894 N896 1.350 . S
C894 H920 0.931 . S
N895 Co891 2.148 . S
N895 C892 1.301 . S
N895 C893 1.317 . S
N896 C892 1.328 . S
N896 C894 1.350 . S
H897 C892 0.930 . S
H898 C893 0.930 . S
C899 O900 1.224 . S
C899 O918 1.247 . S
O900 C899 1.224 . S
N901 Co891 2.128 . S
N901 C902 1.355 . S
N901 C904 1.311 . S
C902 N901 1.355 . S
C902 C903 1.363 . S
C902 H914 0.929 . S
C903 C902 1.363 . S
C903 N905 1.375 . S
C903 H921 0.931 . S
C904 N901 1.311 . S
C904 N905 1.347 . S
C904 H915 0.929 . S
N905 C903 1.375 . S
N905 C904 1.347 . S
C906 C909 1.365 . S
C906 N911 1.328 . S
C906 H912 0.929 . S
C907 C908 1.362 . S
C907 C910 1.378 . S
C907 H922 0.929 . S
C908 C907 1.362 . S
C908 C909 1.366 . S
C909 C906 1.365 . S
C909 C908 1.366 . S
C909 H923 0.930 . S
C910 C907 1.378 . S
C910 N911 1.315 . S
C910 H913 0.930 . S
N911 Co891 2.194 . S
N911 C906 1.328 . S
N911 C910 1.315 . S
H912 C906 0.929 . S
H913 C910 0.930 . S
H914 C902 0.929 . S
H915 C904 0.929 . S
O916 Co891 2.351 . S
O916 C919 1.244 . S
O917 Co891 2.155 . S
O917 C919 1.240 . S
O918 Co891 2.096 . S
O918 C899 1.247 . S
C919 O916 1.244 . S
C919 O917 1.240 . S
H920 C894 0.931 . S
H921 C903 0.931 . S
H922 C907 0.929 . S
H923 C909 0.930 . S
Co924 N928 2.148 . S
Co924 N934 2.128 . S
Co924 N944 2.194 . S
Co924 O949 2.351 1_556 S
Co924 O950 2.155 . S
Co924 O951 2.096 . S
C925 N928 1.301 . S
C925 N929 1.328 . S
C925 H930 0.930 . S
C926 C927 1.333 . S
C926 N928 1.317 . S
C926 H931 0.930 . S
C927 C926 1.333 . S
C927 N929 1.350 . S
C927 H953 0.931 . S
N928 Co924 2.148 . S
N928 C925 1.301 . S
N928 C926 1.317 . S
N929 C925 1.328 . S
N929 C927 1.350 . S
H930 C925 0.930 . S
H931 C926 0.930 . S
C932 O933 1.224 . S
C932 O951 1.247 . S
O933 C932 1.224 . S
N934 Co924 2.128 . S
N934 C935 1.355 . S
N934 C937 1.311 . S
C935 N934 1.355 . S
C935 C936 1.363 . S
C935 H947 0.929 . S
C936 C935 1.363 . S
C936 N938 1.375 . S
C936 H954 0.931 . S
C937 N934 1.311 . S
C937 N938 1.347 . S
C937 H948 0.929 . S
N938 C936 1.375 . S
N938 C937 1.347 . S
C939 C942 1.365 . S
C939 N944 1.328 . S
C939 H945 0.929 . S
C940 C941 1.362 . S
C940 C943 1.378 . S
C940 H955 0.929 . S
C941 C940 1.362 . S
C941 C942 1.366 . S
C942 C939 1.365 . S
C942 C941 1.366 . S
C942 H956 0.930 . S
C943 C940 1.378 . S
C943 N944 1.315 . S
C943 H946 0.930 . S
N944 Co924 2.194 . S
N944 C939 1.328 . S
N944 C943 1.315 . S
H945 C939 0.929 . S
H946 C943 0.930 . S
H947 C935 0.929 . S
H948 C937 0.929 . S
O949 Co924 2.351 1_554 S
O949 C952 1.244 . S
O950 Co924 2.155 . S
O950 C952 1.240 1_556 S
O951 Co924 2.096 . S
O951 C932 1.247 . S
C952 O949 1.244 . S
C952 O950 1.240 1_554 S
H953 C927 0.931 . S
H954 C936 0.931 . S
H955 C940 0.929 . S
H956 C942 0.930 . S
Co957 N961 2.148 . S
Co957 N967 2.128 . S
Co957 N977 2.194 . S
Co957 O982 2.351 . S
Co957 O983 2.155 . S
Co957 O984 2.096 . S
C958 N961 1.301 . S
C958 N962 1.328 . S
C958 H963 0.930 . S
C959 C960 1.333 . S
C959 N961 1.317 . S
C959 H964 0.930 . S
C960 C959 1.333 . S
C960 N962 1.350 . S
C960 H986 0.931 . S
N961 Co957 2.148 . S
N961 C958 1.301 . S
N961 C959 1.317 . S
N962 C958 1.328 . S
N962 C960 1.350 . S
H963 C958 0.930 . S
H964 C959 0.930 . S
C965 O966 1.224 . S
C965 O984 1.247 . S
O966 C965 1.224 . S
N967 Co957 2.128 . S
N967 C968 1.355 . S
N967 C970 1.311 . S
C968 N967 1.355 . S
C968 C969 1.363 . S
C968 H980 0.929 . S
C969 C968 1.363 . S
C969 N971 1.375 . S
C969 H987 0.931 . S
C970 N967 1.311 . S
C970 N971 1.347 . S
C970 H981 0.929 . S
N971 C969 1.375 . S
N971 C970 1.347 . S
C972 C975 1.365 . S
C972 N977 1.328 . S
C972 H978 0.929 . S
C973 C974 1.362 . S
C973 C976 1.378 . S
C973 H988 0.929 . S
C974 C973 1.362 . S
C974 C975 1.366 . S
C975 C972 1.365 . S
C975 C974 1.366 . S
C975 H989 0.930 . S
C976 C973 1.378 . S
C976 N977 1.315 . S
C976 H979 0.930 . S
N977 Co957 2.194 . S
N977 C972 1.328 . S
N977 C976 1.315 . S
H978 C972 0.929 . S
H979 C976 0.930 . S
H980 C968 0.929 . S
H981 C970 0.929 . S
O982 Co957 2.351 . S
O982 C985 1.244 . S
O983 Co957 2.155 . S
O983 C985 1.240 . S
O984 Co957 2.096 . S
O984 C965 1.247 . S
C985 O982 1.244 . S
C985 O983 1.240 . S
H986 C960 0.931 . S
H987 C969 0.931 . S
H988 C973 0.929 . S
H989 C975 0.930 . S
Co990 N994 2.148 . S
Co990 N1000 2.128 . S
Co990 N1010 2.194 . S
Co990 O1015 2.351 . S
Co990 O1016 2.155 . S
Co990 O1017 2.096 . S
C991 N994 1.301 . S
C991 N995 1.328 . S
C991 H996 0.930 . S
C992 C993 1.333 . S
C992 N994 1.317 . S
C992 H997 0.930 . S
C993 C992 1.333 . S
C993 N995 1.350 . S
C993 H1019 0.931 . S
N994 Co990 2.148 . S
N994 C991 1.301 . S
N994 C992 1.317 . S
N995 C991 1.328 . S
N995 C993 1.350 . S
H996 C991 0.930 . S
H997 C992 0.930 . S
C998 O999 1.224 . S
C998 O1017 1.247 . S
O999 C998 1.224 . S
N1000 Co990 2.128 . S
N1000 C1001 1.355 1_565 S
N1000 C1003 1.311 1_565 S
C1001 N1000 1.355 1_545 S
C1001 C1002 1.363 . S
C1001 H1013 0.929 1_545 S
C1002 C1001 1.363 . S
C1002 N1004 1.375 . S
C1002 H1020 0.931 . S
C1003 N1000 1.311 1_545 S
C1003 N1004 1.347 . S
C1003 H1014 0.929 . S
N1004 C1002 1.375 . S
N1004 C1003 1.347 . S
C1005 C1008 1.365 . S
C1005 N1010 1.328 . S
C1005 H1011 0.929 . S
C1006 C1007 1.354 1_455 S
C1006 C1009 1.378 . S
C1006 H1021 0.929 . S
C1007 C1006 1.354 1_655 S
C1007 C1008 1.357 1_655 S
C1008 C1005 1.365 . S
C1008 C1007 1.357 1_455 S
C1008 H1022 0.930 . S
C1009 C1006 1.378 . S
C1009 N1010 1.315 . S
C1009 H1012 0.930 . S
N1010 Co990 2.194 . S
N1010 C1005 1.328 . S
N1010 C1009 1.315 . S
H1011 C1005 0.929 . S
H1012 C1009 0.930 . S
H1013 C1001 0.929 1_565 S
H1014 C1003 0.929 . S
O1015 Co990 2.351 . S
O1015 C1018 1.244 . S
O1016 Co990 2.155 . S
O1016 C1018 1.240 . S
O1017 Co990 2.096 . S
O1017 C998 1.247 . S
C1018 O1015 1.244 . S
C1018 O1016 1.240 . S
H1019 C993 0.931 . S
H1020 C1002 0.931 . S
H1021 C1006 0.929 . S
H1022 C1008 0.930 . S
Co1023 N1027 2.148 . S
Co1023 N1033 2.128 . S
Co1023 N1043 2.194 . S
Co1023 O1048 2.351 . S
Co1023 O1049 2.155 . S
Co1023 O1050 2.096 . S
C1024 N1027 1.301 . S
C1024 N1028 1.328 . S
C1024 H1029 0.930 . S
C1025 C1026 1.333 . S
C1025 N1027 1.317 . S
C1025 H1030 0.930 . S
C1026 C1025 1.333 . S
C1026 N1028 1.350 . S
C1026 H1052 0.931 . S
N1027 Co1023 2.148 . S
N1027 C1024 1.301 . S
N1027 C1025 1.317 . S
N1028 C1024 1.328 . S
N1028 C1026 1.350 . S
H1029 C1024 0.930 . S
H1030 C1025 0.930 . S
C1031 O1032 1.224 . S
C1031 O1050 1.247 . S
O1032 C1031 1.224 . S
N1033 Co1023 2.128 . S
N1033 C1034 1.355 . S
N1033 C1036 1.311 . S
C1034 N1033 1.355 . S
C1034 C1035 1.363 . S
C1034 H1046 0.929 . S
C1035 C1034 1.363 . S
C1035 N1037 1.375 . S
C1035 H1053 0.931 . S
C1036 N1033 1.311 . S
C1036 N1037 1.347 . S
C1036 H1047 0.929 . S
N1037 C1035 1.375 . S
N1037 C1036 1.347 . S
C1038 C1041 1.365 . S
C1038 N1043 1.328 . S
C1038 H1044 0.929 . S
C1039 C1040 1.362 . S
C1039 C1042 1.378 . S
C1039 H1054 0.929 . S
C1040 C1039 1.362 . S
C1040 C1041 1.366 . S
C1041 C1038 1.365 . S
C1041 C1040 1.366 . S
C1041 H1055 0.930 . S
C1042 C1039 1.378 . S
C1042 N1043 1.315 . S
C1042 H1045 0.930 . S
N1043 Co1023 2.194 . S
N1043 C1038 1.328 . S
N1043 C1042 1.315 . S
H1044 C1038 0.929 . S
H1045 C1042 0.930 . S
H1046 C1034 0.929 . S
H1047 C1036 0.929 . S
O1048 Co1023 2.351 . S
O1048 C1051 1.244 . S
O1049 Co1023 2.155 . S
O1049 C1051 1.240 . S
O1050 Co1023 2.096 . S
O1050 C1031 1.247 . S
C1051 O1048 1.244 . S
C1051 O1049 1.240 . S
H1052 C1026 0.931 . S
H1053 C1035 0.931 . S
H1054 C1039 0.929 . S
H1055 C1041 0.930 . S
Co1056 N1060 2.148 . S
Co1056 N1066 2.128 . S
Co1056 N1076 2.194 . S
Co1056 O1081 2.351 . S
Co1056 O1082 2.155 . S
Co1056 O1083 2.096 . S
C1057 N1060 1.301 . S
C1057 N1061 1.328 . S
C1057 H1062 0.930 . S
C1058 C1059 1.333 . S
C1058 N1060 1.317 . S
C1058 H1063 0.930 . S
C1059 C1058 1.333 . S
C1059 N1061 1.350 . S
C1059 H1085 0.931 . S
N1060 Co1056 2.148 . S
N1060 C1057 1.301 . S
N1060 C1058 1.317 . S
N1061 C1057 1.328 . S
N1061 C1059 1.350 . S
H1062 C1057 0.930 . S
H1063 C1058 0.930 . S
C1064 O1065 1.224 . S
C1064 O1083 1.247 . S
O1065 C1064 1.224 . S
N1066 Co1056 2.128 . S
N1066 C1067 1.355 1_556 S
N1066 C1069 1.311 1_556 S
C1067 N1066 1.355 1_554 S
C1067 C1068 1.363 . S
C1067 H1079 0.929 1_554 S
C1068 C1067 1.363 . S
C1068 N1070 1.375 . S
C1068 H1086 0.931 . S
C1069 N1066 1.311 1_554 S
C1069 N1070 1.347 . S
C1069 H1080 0.929 . S
N1070 C1068 1.375 . S
N1070 C1069 1.347 . S
C1071 C1074 1.365 . S
C1071 N1076 1.328 . S
C1071 H1077 0.929 . S
C1072 C1073 1.362 . S
C1072 C1075 1.378 . S
C1072 H1087 0.929 . S
C1073 C1072 1.362 . S
C1073 C1074 1.366 . S
C1074 C1071 1.365 . S
C1074 C1073 1.366 . S
C1074 H1088 0.930 . S
C1075 C1072 1.378 . S
C1075 N1076 1.315 . S
C1075 H1078 0.930 . S
N1076 Co1056 2.194 . S
N1076 C1071 1.328 . S
N1076 C1075 1.315 . S
H1077 C1071 0.929 . S
H1078 C1075 0.930 . S
H1079 C1067 0.929 1_556 S
H1080 C1069 0.929 . S
O1081 Co1056 2.351 . S
O1081 C1084 1.244 . S
O1082 Co1056 2.155 . S
O1082 C1084 1.240 . S
O1083 Co1056 2.096 . S
O1083 C1064 1.247 . S
C1084 O1081 1.244 . S
C1084 O1082 1.240 . S
H1085 C1059 0.931 . S
H1086 C1068 0.931 . S
H1087 C1072 0.929 . S
H1088 C1074 0.930 . S
Co1089 N1093 2.148 . S
Co1089 N1099 2.128 . S
Co1089 N1109 2.194 . S
Co1089 O1114 2.351 . S
Co1089 O1115 2.155 . S
Co1089 O1116 2.096 . S
C1090 N1093 1.301 . S
C1090 N1094 1.328 . S
C1090 H1095 0.930 . S
C1091 C1092 1.333 . S
C1091 N1093 1.317 . S
C1091 H1096 0.930 . S
C1092 C1091 1.333 . S
C1092 N1094 1.350 . S
C1092 H1118 0.931 . S
N1093 Co1089 2.148 . S
N1093 C1090 1.301 . S
N1093 C1091 1.317 . S
N1094 C1090 1.328 . S
N1094 C1092 1.350 . S
H1095 C1090 0.930 . S
H1096 C1091 0.930 . S
C1097 O1098 1.224 . S
C1097 O1116 1.247 . S
O1098 C1097 1.224 . S
N1099 Co1089 2.128 . S
N1099 C1100 1.355 . S
N1099 C1102 1.311 . S
C1100 N1099 1.355 . S
C1100 C1101 1.363 . S
C1100 H1112 0.929 . S
C1101 C1100 1.363 . S
C1101 N1103 1.375 . S
C1101 H1119 0.931 . S
C1102 N1099 1.311 . S
C1102 N1103 1.347 . S
C1102 H1113 0.929 . S
N1103 C1101 1.375 . S
N1103 C1102 1.347 . S
C1104 C1107 1.365 . S
C1104 N1109 1.328 . S
C1104 H1110 0.929 . S
C1105 C1106 1.362 . S
C1105 C1108 1.378 . S
C1105 H1120 0.929 . S
C1106 C1105 1.362 . S
C1106 C1107 1.366 . S
C1107 C1104 1.365 . S
C1107 C1106 1.366 . S
C1107 H1121 0.930 . S
C1108 C1105 1.378 . S
C1108 N1109 1.315 . S
C1108 H1111 0.930 . S
N1109 Co1089 2.194 . S
N1109 C1104 1.328 . S
N1109 C1108 1.315 . S
H1110 C1104 0.929 . S
H1111 C1108 0.930 . S
H1112 C1100 0.929 . S
H1113 C1102 0.929 . S
O1114 Co1089 2.351 . S
O1114 C1117 1.244 . S
O1115 Co1089 2.155 . S
O1115 C1117 1.240 . S
O1116 Co1089 2.096 . S
O1116 C1097 1.247 . S
C1117 O1114 1.244 . S
C1117 O1115 1.240 . S
H1118 C1092 0.931 . S
H1119 C1101 0.931 . S
H1120 C1105 0.929 . S
H1121 C1107 0.930 . S
Co1122 N1126 2.148 . S
Co1122 N1132 2.128 . S
Co1122 N1142 2.194 . S
Co1122 O1147 2.351 1_655 S
Co1122 O1148 2.155 . S
Co1122 O1149 2.096 . S
C1123 N1126 1.301 . S
C1123 N1127 1.328 . S
C1123 H1128 0.930 . S
C1124 C1125 1.333 . S
C1124 N1126 1.317 . S
C1124 H1129 0.930 . S
C1125 C1124 1.333 . S
C1125 N1127 1.350 . S
C1125 H1151 0.931 . S
N1126 Co1122 2.148 . S
N1126 C1123 1.301 . S
N1126 C1124 1.317 . S
N1127 C1123 1.328 . S
N1127 C1125 1.350 . S
H1128 C1123 0.930 . S
H1129 C1124 0.930 . S
C1130 O1131 1.224 . S
C1130 O1149 1.247 . S
O1131 C1130 1.224 . S
N1132 Co1122 2.128 . S
N1132 C1133 1.355 . S
N1132 C1135 1.311 . S
C1133 N1132 1.355 . S
C1133 C1134 1.363 . S
C1133 H1145 0.929 . S
C1134 C1133 1.363 . S
C1134 N1136 1.375 . S
C1134 H1152 0.931 . S
C1135 N1132 1.311 . S
C1135 N1136 1.347 . S
C1135 H1146 0.929 . S
N1136 C1134 1.375 . S
N1136 C1135 1.347 . S
C1137 C1140 1.365 . S
C1137 N1142 1.328 . S
C1137 H1143 0.929 . S
C1138 C1139 1.362 . S
C1138 C1141 1.378 . S
C1138 H1153 0.929 . S
C1139 C1138 1.362 . S
C1139 C1140 1.366 . S
C1140 C1137 1.365 . S
C1140 C1139 1.366 . S
C1140 H1154 0.930 . S
C1141 C1138 1.378 . S
C1141 N1142 1.315 . S
C1141 H1144 0.930 . S
N1142 Co1122 2.194 . S
N1142 C1137 1.328 . S
N1142 C1141 1.315 . S
H1143 C1137 0.929 . S
H1144 C1141 0.930 . S
H1145 C1133 0.929 . S
H1146 C1135 0.929 . S
O1147 Co1122 2.351 1_455 S
O1147 C1150 1.244 . S
O1148 Co1122 2.155 . S
O1148 C1150 1.240 1_655 S
O1149 Co1122 2.096 . S
O1149 C1130 1.247 . S
C1150 O1147 1.244 . S
C1150 O1148 1.240 1_455 S
H1151 C1125 0.931 . S
H1152 C1134 0.931 . S
H1153 C1138 0.929 . S
H1154 C1140 0.930 . S
Co1155 N1159 2.148 . S
Co1155 N1165 2.128 . S
Co1155 N1175 2.194 . S
Co1155 O1180 2.351 . S
Co1155 O1181 2.155 . S
Co1155 O1182 2.096 . S
C1156 N1159 1.301 . S
C1156 N1160 1.328 . S
C1156 H1161 0.930 . S
C1157 C1158 1.333 . S
C1157 N1159 1.317 . S
C1157 H1162 0.930 . S
C1158 C1157 1.333 . S
C1158 N1160 1.350 . S
C1158 H1184 0.931 . S
N1159 Co1155 2.148 . S
N1159 C1156 1.301 . S
N1159 C1157 1.317 . S
N1160 C1156 1.328 . S
N1160 C1158 1.350 . S
H1161 C1156 0.930 . S
H1162 C1157 0.930 . S
C1163 O1164 1.224 . S
C1163 O1182 1.247 . S
O1164 C1163 1.224 . S
N1165 Co1155 2.128 . S
N1165 C1166 1.355 . S
N1165 C1168 1.311 . S
C1166 N1165 1.355 . S
C1166 C1167 1.363 . S
C1166 H1178 0.929 . S
C1167 C1166 1.363 . S
C1167 N1169 1.375 . S
C1167 H1185 0.931 . S
C1168 N1165 1.311 . S
C1168 N1169 1.347 . S
C1168 H1179 0.929 . S
N1169 C1167 1.375 . S
N1169 C1168 1.347 . S
C1170 C1173 1.365 . S
C1170 N1175 1.328 . S
C1170 H1176 0.929 . S
C1171 C1172 1.362 . S
C1171 C1174 1.378 . S
C1171 H1186 0.929 . S
C1172 C1171 1.362 . S
C1172 C1173 1.366 . S
C1173 C1170 1.365 . S
C1173 C1172 1.366 . S
C1173 H1187 0.930 . S
C1174 C1171 1.378 . S
C1174 N1175 1.315 . S
C1174 H1177 0.930 . S
N1175 Co1155 2.194 . S
N1175 C1170 1.328 . S
N1175 C1174 1.315 . S
H1176 C1170 0.929 . S
H1177 C1174 0.930 . S
H1178 C1166 0.929 . S
H1179 C1168 0.929 . S
O1180 Co1155 2.351 . S
O1180 C1183 1.244 . S
O1181 Co1155 2.155 . S
O1181 C1183 1.240 . S
O1182 Co1155 2.096 . S
O1182 C1163 1.247 . S
C1183 O1180 1.244 . S
C1183 O1181 1.240 . S
H1184 C1158 0.931 . S
H1185 C1167 0.931 . S
H1186 C1171 0.929 . S
H1187 C1173 0.930 . S
Co1188 N1192 2.148 . S
Co1188 N1198 2.128 . S
Co1188 N1208 2.194 . S
Co1188 O1213 2.351 . S
Co1188 O1214 2.155 . S
Co1188 O1215 2.096 . S
C1189 N1192 1.301 . S
C1189 N1193 1.328 . S
C1189 H1194 0.930 . S
C1190 C1191 1.333 . S
C1190 N1192 1.317 . S
C1190 H1195 0.930 . S
C1191 C1190 1.333 . S
C1191 N1193 1.350 . S
C1191 H1217 0.931 . S
N1192 Co1188 2.148 . S
N1192 C1189 1.301 . S
N1192 C1190 1.317 . S
N1193 C1189 1.328 . S
N1193 C1191 1.350 . S
H1194 C1189 0.930 . S
H1195 C1190 0.930 . S
C1196 O1197 1.224 . S
C1196 O1215 1.247 . S
O1197 C1196 1.224 . S
N1198 Co1188 2.128 . S
N1198 C1199 1.355 . S
N1198 C1201 1.311 . S
C1199 N1198 1.355 . S
C1199 C1200 1.363 . S
C1199 H1211 0.929 . S
C1200 C1199 1.363 . S
C1200 N1202 1.375 . S
C1200 H1218 0.931 . S
C1201 N1198 1.311 . S
C1201 N1202 1.347 . S
C1201 H1212 0.929 . S
N1202 C1200 1.375 . S
N1202 C1201 1.347 . S
C1203 C1206 1.365 . S
C1203 N1208 1.328 . S
C1203 H1209 0.929 . S
C1204 C1205 1.362 . S
C1204 C1207 1.378 . S
C1204 H1219 0.929 . S
C1205 C1204 1.362 . S
C1205 C1206 1.366 . S
C1206 C1203 1.365 . S
C1206 C1205 1.366 . S
C1206 H1220 0.930 . S
C1207 C1204 1.378 . S
C1207 N1208 1.315 . S
C1207 H1210 0.930 . S
N1208 Co1188 2.194 . S
N1208 C1203 1.328 . S
N1208 C1207 1.315 . S
H1209 C1203 0.929 . S
H1210 C1207 0.930 . S
H1211 C1199 0.929 . S
H1212 C1201 0.929 . S
O1213 Co1188 2.351 . S
O1213 C1216 1.244 . S
O1214 Co1188 2.155 . S
O1214 C1216 1.240 . S
O1215 Co1188 2.096 . S
O1215 C1196 1.247 . S
C1216 O1213 1.244 . S
C1216 O1214 1.240 . S
H1217 C1191 0.931 . S
H1218 C1200 0.931 . S
H1219 C1204 0.929 . S
H1220 C1206 0.930 . S
Co1221 N1225 2.148 . S
Co1221 N1231 2.128 . S
Co1221 N1241 2.194 . S
Co1221 O1246 2.351 . S
Co1221 O1247 2.155 . S
Co1221 O1248 2.096 . S
C1222 N1225 1.301 1_554 S
C1222 N1226 1.328 . S
C1222 H1227 0.930 . S
C1223 C1224 1.340 . S
C1223 N1225 1.315 1_554 S
C1223 H1228 0.926 1_554 S
C1224 C1223 1.340 . S
C1224 N1226 1.350 . S
C1224 H1250 0.931 . S
N1225 Co1221 2.148 . S
N1225 C1222 1.301 1_556 S
N1225 C1223 1.315 1_556 S
N1226 C1222 1.328 . S
N1226 C1224 1.350 . S
H1227 C1222 0.930 . S
H1228 C1223 0.926 1_556 S
C1229 O1230 1.224 . S
C1229 O1248 1.247 . S
O1230 C1229 1.224 . S
N1231 Co1221 2.128 . S
N1231 C1232 1.355 . S
N1231 C1234 1.311 . S
C1232 N1231 1.355 . S
C1232 C1233 1.363 . S
C1232 H1244 0.929 . S
C1233 C1232 1.363 . S
C1233 N1235 1.375 . S
C1233 H1251 0.931 . S
C1234 N1231 1.311 . S
C1234 N1235 1.347 . S
C1234 H1245 0.929 . S
N1235 C1233 1.375 . S
N1235 C1234 1.347 . S
C1236 C1239 1.365 . S
C1236 N1241 1.328 . S
C1236 H1242 0.929 . S
C1237 C1238 1.362 . S
C1237 C1240 1.378 . S
C1237 H1252 0.929 . S
C1238 C1237 1.362 . S
C1238 C1239 1.366 . S
C1239 C1236 1.365 . S
C1239 C1238 1.366 . S
C1239 H1253 0.930 . S
C1240 C1237 1.378 . S
C1240 N1241 1.315 . S
C1240 H1243 0.930 . S
N1241 Co1221 2.194 . S
N1241 C1236 1.328 . S
N1241 C1240 1.315 . S
H1242 C1236 0.929 . S
H1243 C1240 0.930 . S
H1244 C1232 0.929 . S
H1245 C1234 0.929 . S
O1246 Co1221 2.351 . S
O1246 C1249 1.244 . S
O1247 Co1221 2.155 . S
O1247 C1249 1.240 . S
O1248 Co1221 2.096 . S
O1248 C1229 1.247 . S
C1249 O1246 1.244 . S
C1249 O1247 1.240 . S
H1250 C1224 0.931 . S
H1251 C1233 0.931 . S
H1252 C1237 0.929 . S
H1253 C1239 0.930 . S
Co1254 N1258 2.148 . S
Co1254 N1264 2.128 . S
Co1254 N1274 2.194 . S
Co1254 O1279 2.351 1_655 S
Co1254 O1280 2.155 . S
Co1254 O1281 2.096 . S
C1255 N1258 1.301 . S
C1255 N1259 1.328 . S
C1255 H1260 0.930 . S
C1256 C1257 1.333 . S
C1256 N1258 1.317 . S
C1256 H1261 0.930 . S
C1257 C1256 1.333 . S
C1257 N1259 1.350 . S
C1257 H1283 0.931 . S
N1258 Co1254 2.148 . S
N1258 C1255 1.301 . S
N1258 C1256 1.317 . S
N1259 C1255 1.328 . S
N1259 C1257 1.350 . S
H1260 C1255 0.930 . S
H1261 C1256 0.930 . S
C1262 O1263 1.224 . S
C1262 O1281 1.247 . S
O1263 C1262 1.224 . S
N1264 Co1254 2.128 . S
N1264 C1265 1.355 . S
N1264 C1267 1.311 . S
C1265 N1264 1.355 . S
C1265 C1266 1.363 . S
C1265 H1277 0.929 . S
C1266 C1265 1.363 . S
C1266 N1268 1.375 . S
C1266 H1284 0.931 . S
C1267 N1264 1.311 . S
C1267 N1268 1.347 . S
C1267 H1278 0.929 . S
N1268 C1266 1.375 . S
N1268 C1267 1.347 . S
C1269 C1272 1.365 . S
C1269 N1274 1.328 . S
C1269 H1275 0.929 . S
C1270 C1271 1.362 . S
C1270 C1273 1.378 . S
C1270 H1285 0.929 . S
C1271 C1270 1.362 . S
C1271 C1272 1.366 . S
C1272 C1269 1.365 . S
C1272 C1271 1.366 . S
C1272 H1286 0.930 . S
C1273 C1270 1.378 . S
C1273 N1274 1.315 . S
C1273 H1276 0.930 . S
N1274 Co1254 2.194 . S
N1274 C1269 1.328 . S
N1274 C1273 1.315 . S
H1275 C1269 0.929 . S
H1276 C1273 0.930 . S
H1277 C1265 0.929 . S
H1278 C1267 0.929 . S
O1279 Co1254 2.351 1_455 S
O1279 C1282 1.244 . S
O1280 Co1254 2.155 . S
O1280 C1282 1.240 1_655 S
O1281 Co1254 2.096 . S
O1281 C1262 1.247 . S
C1282 O1279 1.244 . S
C1282 O1280 1.240 1_455 S
H1283 C1257 0.931 . S
H1284 C1266 0.931 . S
H1285 C1270 0.929 . S
H1286 C1272 0.930 . S
Co1287 N1291 2.148 . S
Co1287 N1297 2.128 . S
Co1287 N1307 2.194 . S
Co1287 O1312 2.351 . S
Co1287 O1313 2.155 . S
Co1287 O1314 2.096 . S
C1288 N1291 1.301 . S
C1288 N1292 1.328 . S
C1288 H1293 0.930 . S
C1289 C1290 1.333 . S
C1289 N1291 1.317 . S
C1289 H1294 0.930 . S
C1290 C1289 1.333 . S
C1290 N1292 1.350 . S
C1290 H1316 0.931 . S
N1291 Co1287 2.148 . S
N1291 C1288 1.301 . S
N1291 C1289 1.317 . S
N1292 C1288 1.328 . S
N1292 C1290 1.350 . S
H1293 C1288 0.930 . S
H1294 C1289 0.930 . S
C1295 O1296 1.224 . S
C1295 O1314 1.247 . S
O1296 C1295 1.224 . S
N1297 Co1287 2.128 . S
N1297 C1298 1.355 . S
N1297 C1300 1.311 . S
C1298 N1297 1.355 . S
C1298 C1299 1.363 . S
C1298 H1310 0.929 . S
C1299 C1298 1.363 . S
C1299 N1301 1.375 . S
C1299 H1317 0.931 . S
C1300 N1297 1.311 . S
C1300 N1301 1.347 . S
C1300 H1311 0.929 . S
N1301 C1299 1.375 . S
N1301 C1300 1.347 . S
C1302 C1305 1.365 . S
C1302 N1307 1.328 . S
C1302 H1308 0.929 . S
C1303 C1304 1.362 . S
C1303 C1306 1.378 . S
C1303 H1318 0.929 . S
C1304 C1303 1.362 . S
C1304 C1305 1.366 . S
C1305 C1302 1.365 . S
C1305 C1304 1.366 . S
C1305 H1319 0.930 . S
C1306 C1303 1.378 . S
C1306 N1307 1.315 . S
C1306 H1309 0.930 . S
N1307 Co1287 2.194 . S
N1307 C1302 1.328 . S
N1307 C1306 1.315 . S
H1308 C1302 0.929 . S
H1309 C1306 0.930 . S
H1310 C1298 0.929 . S
H1311 C1300 0.929 . S
O1312 Co1287 2.351 . S
O1312 C1315 1.244 . S
O1313 Co1287 2.155 . S
O1313 C1315 1.240 . S
O1314 Co1287 2.096 . S
O1314 C1295 1.247 . S
C1315 O1312 1.244 . S
C1315 O1313 1.240 . S
H1316 C1290 0.931 . S
H1317 C1299 0.931 . S
H1318 C1303 0.929 . S
H1319 C1305 0.930 . S
Co1320 N1324 2.148 . S
Co1320 N1330 2.128 . S
Co1320 N1340 2.194 . S
Co1320 O1345 2.351 . S
Co1320 O1346 2.155 . S
Co1320 O1347 2.096 . S
C1321 N1324 1.301 . S
C1321 N1325 1.328 . S
C1321 H1326 0.930 . S
C1322 C1323 1.333 . S
C1322 N1324 1.317 . S
C1322 H1327 0.930 . S
C1323 C1322 1.333 . S
C1323 N1325 1.350 . S
C1323 H1349 0.931 . S
N1324 Co1320 2.148 . S
N1324 C1321 1.301 . S
N1324 C1322 1.317 . S
N1325 C1321 1.328 . S
N1325 C1323 1.350 . S
H1326 C1321 0.930 . S
H1327 C1322 0.930 . S
C1328 O1329 1.224 . S
C1328 O1347 1.247 . S
O1329 C1328 1.224 . S
N1330 Co1320 2.128 . S
N1330 C1331 1.355 1_655 S
N1330 C1333 1.311 1_655 S
C1331 N1330 1.355 1_455 S
C1331 C1332 1.363 . S
C1331 H1343 0.929 1_455 S
C1332 C1331 1.363 . S
C1332 N1334 1.375 . S
C1332 H1350 0.931 . S
C1333 N1330 1.311 1_455 S
C1333 N1334 1.347 . S
C1333 H1344 0.929 . S
N1334 C1332 1.375 . S
N1334 C1333 1.347 . S
C1335 C1338 1.365 . S
C1335 N1340 1.328 . S
C1335 H1341 0.929 . S
C1336 C1337 1.362 . S
C1336 C1339 1.378 . S
C1336 H1351 0.929 . S
C1337 C1336 1.362 . S
C1337 C1338 1.366 . S
C1338 C1335 1.365 . S
C1338 C1337 1.366 . S
C1338 H1352 0.930 . S
C1339 C1336 1.378 . S
C1339 N1340 1.315 . S
C1339 H1342 0.930 . S
N1340 Co1320 2.194 . S
N1340 C1335 1.328 . S
N1340 C1339 1.315 . S
H1341 C1335 0.929 . S
H1342 C1339 0.930 . S
H1343 C1331 0.929 1_655 S
H1344 C1333 0.929 . S
O1345 Co1320 2.351 . S
O1345 C1348 1.244 . S
O1346 Co1320 2.155 . S
O1346 C1348 1.240 . S
O1347 Co1320 2.096 . S
O1347 C1328 1.247 . S
C1348 O1345 1.244 . S
C1348 O1346 1.240 . S
H1349 C1323 0.931 . S
H1350 C1332 0.931 . S
H1351 C1336 0.929 . S
H1352 C1338 0.930 . S
Co1353 N1357 2.148 . S
Co1353 N1363 2.128 . S
Co1353 N1373 2.194 . S
Co1353 O1378 2.351 1_565 S
Co1353 O1379 2.155 . S
Co1353 O1380 2.096 . S
C1354 N1357 1.301 . S
C1354 N1358 1.328 . S
C1354 H1359 0.930 . S
C1355 C1356 1.333 . S
C1355 N1357 1.317 . S
C1355 H1360 0.930 . S
C1356 C1355 1.333 . S
C1356 N1358 1.350 . S
C1356 H1382 0.931 . S
N1357 Co1353 2.148 . S
N1357 C1354 1.301 . S
N1357 C1355 1.317 . S
N1358 C1354 1.328 . S
N1358 C1356 1.350 . S
H1359 C1354 0.930 . S
H1360 C1355 0.930 . S
C1361 O1362 1.224 . S
C1361 O1380 1.247 . S
O1362 C1361 1.224 . S
N1363 Co1353 2.128 . S
N1363 C1364 1.355 . S
N1363 C1366 1.311 . S
C1364 N1363 1.355 . S
C1364 C1365 1.363 . S
C1364 H1376 0.929 . S
C1365 C1364 1.363 . S
C1365 N1367 1.375 . S
C1365 H1383 0.931 . S
C1366 N1363 1.311 . S
C1366 N1367 1.347 . S
C1366 H1377 0.929 . S
N1367 C1365 1.375 . S
N1367 C1366 1.347 . S
C1368 C1371 1.365 . S
C1368 N1373 1.328 . S
C1368 H1374 0.929 . S
C1369 C1370 1.362 . S
C1369 C1372 1.378 . S
C1369 H1384 0.929 . S
C1370 C1369 1.362 . S
C1370 C1371 1.366 . S
C1371 C1368 1.365 . S
C1371 C1370 1.366 . S
C1371 H1385 0.930 . S
C1372 C1369 1.378 . S
C1372 N1373 1.315 . S
C1372 H1375 0.930 . S
N1373 Co1353 2.194 . S
N1373 C1368 1.328 . S
N1373 C1372 1.315 . S
H1374 C1368 0.929 . S
H1375 C1372 0.930 . S
H1376 C1364 0.929 . S
H1377 C1366 0.929 . S
O1378 Co1353 2.351 1_545 S
O1378 C1381 1.244 . S
O1379 Co1353 2.155 . S
O1379 C1381 1.240 1_565 S
O1380 Co1353 2.096 . S
O1380 C1361 1.247 . S
C1381 O1378 1.244 . S
C1381 O1379 1.240 1_545 S
H1382 C1356 0.931 . S
H1383 C1365 0.931 . S
H1384 C1369 0.929 . S
H1385 C1371 0.930 . S
Co1386 N1390 2.148 . S
Co1386 N1396 2.128 . S
Co1386 N1406 2.194 . S
Co1386 O1411 2.351 . S
Co1386 O1412 2.155 . S
Co1386 O1413 2.096 . S
C1387 N1390 1.301 . S
C1387 N1391 1.328 . S
C1387 H1392 0.930 . S
C1388 C1389 1.333 . S
C1388 N1390 1.317 . S
C1388 H1393 0.930 . S
C1389 C1388 1.333 . S
C1389 N1391 1.350 . S
C1389 H1415 0.931 . S
N1390 Co1386 2.148 . S
N1390 C1387 1.301 . S
N1390 C1388 1.317 . S
N1391 C1387 1.328 . S
N1391 C1389 1.350 . S
H1392 C1387 0.930 . S
H1393 C1388 0.930 . S
C1394 O1395 1.224 . S
C1394 O1413 1.247 . S
O1395 C1394 1.224 . S
N1396 Co1386 2.128 . S
N1396 C1397 1.355 . S
N1396 C1399 1.311 . S
C1397 N1396 1.355 . S
C1397 C1398 1.363 . S
C1397 H1409 0.929 . S
C1398 C1397 1.363 . S
C1398 N1400 1.375 . S
C1398 H1416 0.931 . S
C1399 N1396 1.311 . S
C1399 N1400 1.347 . S
C1399 H1410 0.929 . S
N1400 C1398 1.375 . S
N1400 C1399 1.347 . S
C1401 C1404 1.365 . S
C1401 N1406 1.328 . S
C1401 H1407 0.929 . S
C1402 C1403 1.362 . S
C1402 C1405 1.378 . S
C1402 H1417 0.929 . S
C1403 C1402 1.362 . S
C1403 C1404 1.366 . S
C1404 C1401 1.365 . S
C1404 C1403 1.366 . S
C1404 H1418 0.930 . S
C1405 C1402 1.378 . S
C1405 N1406 1.315 . S
C1405 H1408 0.930 . S
N1406 Co1386 2.194 . S
N1406 C1401 1.328 . S
N1406 C1405 1.315 . S
H1407 C1401 0.929 . S
H1408 C1405 0.930 . S
H1409 C1397 0.929 . S
H1410 C1399 0.929 . S
O1411 Co1386 2.351 . S
O1411 C1414 1.244 . S
O1412 Co1386 2.155 . S
O1412 C1414 1.240 . S
O1413 Co1386 2.096 . S
O1413 C1394 1.247 . S
C1414 O1411 1.244 . S
C1414 O1412 1.240 . S
H1415 C1389 0.931 . S
H1416 C1398 0.931 . S
H1417 C1402 0.929 . S
H1418 C1404 0.930 . S
Co1419 N1423 2.148 . S
Co1419 N1429 2.128 . S
Co1419 N1439 2.194 . S
Co1419 O1444 2.351 . S
Co1419 O1445 2.155 . S
Co1419 O1446 2.096 . S
C1420 N1423 1.301 . S
C1420 N1424 1.328 . S
C1420 H1425 0.930 . S
C1421 C1422 1.333 . S
C1421 N1423 1.317 . S
C1421 H1426 0.930 . S
C1422 C1421 1.333 . S
C1422 N1424 1.350 . S
C1422 H1448 0.931 . S
N1423 Co1419 2.148 . S
N1423 C1420 1.301 . S
N1423 C1421 1.317 . S
N1424 C1420 1.328 . S
N1424 C1422 1.350 . S
H1425 C1420 0.930 . S
H1426 C1421 0.930 . S
C1427 O1428 1.224 . S
C1427 O1446 1.247 . S
O1428 C1427 1.224 . S
N1429 Co1419 2.128 . S
N1429 C1430 1.355 . S
N1429 C1432 1.311 . S
C1430 N1429 1.355 . S
C1430 C1431 1.363 . S
C1430 H1442 0.929 . S
C1431 C1430 1.363 . S
C1431 N1433 1.375 . S
C1431 H1449 0.931 . S
C1432 N1429 1.311 . S
C1432 N1433 1.347 . S
C1432 H1443 0.929 . S
N1433 C1431 1.375 . S
N1433 C1432 1.347 . S
C1434 C1437 1.365 . S
C1434 N1439 1.328 . S
C1434 H1440 0.929 . S
C1435 C1436 1.356 1_554 S
C1435 C1438 1.378 . S
C1435 H1450 0.929 . S
C1436 C1435 1.356 1_556 S
C1436 C1437 1.359 1_556 S
C1437 C1434 1.365 . S
C1437 C1436 1.359 1_554 S
C1437 H1451 0.930 . S
C1438 C1435 1.378 . S
C1438 N1439 1.315 . S
C1438 H1441 0.930 . S
N1439 Co1419 2.194 . S
N1439 C1434 1.328 . S
N1439 C1438 1.315 . S
H1440 C1434 0.929 . S
H1441 C1438 0.930 . S
H1442 C1430 0.929 . S
H1443 C1432 0.929 . S
O1444 Co1419 2.351 . S
O1444 C1447 1.244 . S
O1445 Co1419 2.155 . S
O1445 C1447 1.240 . S
O1446 Co1419 2.096 . S
O1446 C1427 1.247 . S
C1447 O1444 1.244 . S
C1447 O1445 1.240 . S
H1448 C1422 0.931 . S
H1449 C1431 0.931 . S
H1450 C1435 0.929 . S
H1451 C1437 0.930 . S
Co1452 N1456 2.148 . S
Co1452 N1462 2.128 . S
Co1452 N1472 2.194 . S
Co1452 O1477 2.351 . S
Co1452 O1478 2.155 . S
Co1452 O1479 2.096 . S
C1453 N1456 1.301 . S
C1453 N1457 1.328 . S
C1453 H1458 0.930 . S
C1454 C1455 1.333 . S
C1454 N1456 1.317 . S
C1454 H1459 0.930 . S
C1455 C1454 1.333 . S
C1455 N1457 1.350 . S
C1455 H1481 0.931 . S
N1456 Co1452 2.148 . S
N1456 C1453 1.301 . S
N1456 C1454 1.317 . S
N1457 C1453 1.328 . S
N1457 C1455 1.350 . S
H1458 C1453 0.930 . S
H1459 C1454 0.930 . S
C1460 O1461 1.224 . S
C1460 O1479 1.247 . S
O1461 C1460 1.224 . S
N1462 Co1452 2.128 . S
N1462 C1463 1.355 . S
N1462 C1465 1.311 . S
C1463 N1462 1.355 . S
C1463 C1464 1.363 . S
C1463 H1475 0.929 . S
C1464 C1463 1.363 . S
C1464 N1466 1.375 . S
C1464 H1482 0.931 . S
C1465 N1462 1.311 . S
C1465 N1466 1.347 . S
C1465 H1476 0.929 . S
N1466 C1464 1.375 . S
N1466 C1465 1.347 . S
C1467 C1470 1.365 . S
C1467 N1472 1.328 . S
C1467 H1473 0.929 . S
C1468 C1469 1.362 . S
C1468 C1471 1.378 . S
C1468 H1483 0.929 . S
C1469 C1468 1.362 . S
C1469 C1470 1.366 . S
C1470 C1467 1.365 . S
C1470 C1469 1.366 . S
C1470 H1484 0.930 . S
C1471 C1468 1.378 . S
C1471 N1472 1.315 . S
C1471 H1474 0.930 . S
N1472 Co1452 2.194 . S
N1472 C1467 1.328 . S
N1472 C1471 1.315 . S
H1473 C1467 0.929 . S
H1474 C1471 0.930 . S
H1475 C1463 0.929 . S
H1476 C1465 0.929 . S
O1477 Co1452 2.351 . S
O1477 C1480 1.244 . S
O1478 Co1452 2.155 . S
O1478 C1480 1.240 . S
O1479 Co1452 2.096 . S
O1479 C1460 1.247 . S
C1480 O1477 1.244 . S
C1480 O1478 1.240 . S
H1481 C1455 0.931 . S
H1482 C1464 0.931 . S
H1483 C1468 0.929 . S
H1484 C1470 0.930 . S
Co1485 N1489 2.148 . S
Co1485 N1495 2.128 . S
Co1485 N1505 2.194 . S
Co1485 O1510 2.351 . S
Co1485 O1511 2.155 . S
Co1485 O1512 2.096 . S
C1486 N1489 1.301 . S
C1486 N1490 1.328 . S
C1486 H1491 0.930 . S
C1487 C1488 1.333 . S
C1487 N1489 1.317 . S
C1487 H1492 0.930 . S
C1488 C1487 1.333 . S
C1488 N1490 1.350 . S
C1488 H1514 0.931 . S
N1489 Co1485 2.148 . S
N1489 C1486 1.301 . S
N1489 C1487 1.317 . S
N1490 C1486 1.328 . S
N1490 C1488 1.350 . S
H1491 C1486 0.930 . S
H1492 C1487 0.930 . S
C1493 O1494 1.224 . S
C1493 O1512 1.247 . S
O1494 C1493 1.224 . S
N1495 Co1485 2.128 . S
N1495 C1496 1.355 . S
N1495 C1498 1.311 . S
C1496 N1495 1.355 . S
C1496 C1497 1.363 . S
C1496 H1508 0.929 . S
C1497 C1496 1.363 . S
C1497 N1499 1.375 . S
C1497 H1515 0.931 . S
C1498 N1495 1.311 . S
C1498 N1499 1.347 . S
C1498 H1509 0.929 . S
N1499 C1497 1.375 . S
N1499 C1498 1.347 . S
C1500 C1503 1.365 . S
C1500 N1505 1.328 . S
C1500 H1506 0.929 . S
C1501 C1502 1.362 . S
C1501 C1504 1.378 . S
C1501 H1516 0.929 . S
C1502 C1501 1.362 . S
C1502 C1503 1.366 . S
C1503 C1500 1.365 . S
C1503 C1502 1.366 . S
C1503 H1517 0.930 . S
C1504 C1501 1.378 . S
C1504 N1505 1.315 . S
C1504 H1507 0.930 . S
N1505 Co1485 2.194 . S
N1505 C1500 1.328 . S
N1505 C1504 1.315 . S
H1506 C1500 0.929 . S
H1507 C1504 0.930 . S
H1508 C1496 0.929 . S
H1509 C1498 0.929 . S
O1510 Co1485 2.351 . S
O1510 C1513 1.244 . S
O1511 Co1485 2.155 . S
O1511 C1513 1.240 . S
O1512 Co1485 2.096 . S
O1512 C1493 1.247 . S
C1513 O1510 1.244 . S
C1513 O1511 1.240 . S
H1514 C1488 0.931 . S
H1515 C1497 0.931 . S
H1516 C1501 0.929 . S
H1517 C1503 0.930 . S
Co1518 N1522 2.148 . S
Co1518 N1528 2.128 . S
Co1518 N1538 2.194 . S
Co1518 O1543 2.351 . S
Co1518 O1544 2.155 . S
Co1518 O1545 2.096 . S
C1519 N1522 1.301 1_545 S
C1519 N1523 1.328 . S
C1519 H1524 0.930 . S
C1520 C1521 1.340 . S
C1520 N1522 1.315 1_545 S
C1520 H1525 0.926 1_545 S
C1521 C1520 1.340 . S
C1521 N1523 1.350 . S
C1521 H1547 0.931 . S
N1522 Co1518 2.148 . S
N1522 C1519 1.301 1_565 S
N1522 C1520 1.315 1_565 S
N1523 C1519 1.328 . S
N1523 C1521 1.350 . S
H1524 C1519 0.930 . S
H1525 C1520 0.926 1_565 S
C1526 O1527 1.224 . S
C1526 O1545 1.247 . S
O1527 C1526 1.224 . S
N1528 Co1518 2.128 . S
N1528 C1529 1.355 . S
N1528 C1531 1.311 . S
C1529 N1528 1.355 . S
C1529 C1530 1.363 . S
C1529 H1541 0.929 . S
C1530 C1529 1.363 . S
C1530 N1532 1.375 . S
C1530 H1548 0.931 . S
C1531 N1528 1.311 . S
C1531 N1532 1.347 . S
C1531 H1542 0.929 . S
N1532 C1530 1.375 . S
N1532 C1531 1.347 . S
C1533 C1536 1.365 . S
C1533 N1538 1.328 . S
C1533 H1539 0.929 . S
C1534 C1535 1.362 . S
C1534 C1537 1.378 . S
C1534 H1549 0.929 . S
C1535 C1534 1.362 . S
C1535 C1536 1.366 . S
C1536 C1533 1.365 . S
C1536 C1535 1.366 . S
C1536 H1550 0.930 . S
C1537 C1534 1.378 . S
C1537 N1538 1.315 . S
C1537 H1540 0.930 . S
N1538 Co1518 2.194 . S
N1538 C1533 1.328 . S
N1538 C1537 1.315 . S
H1539 C1533 0.929 . S
H1540 C1537 0.930 . S
H1541 C1529 0.929 . S
H1542 C1531 0.929 . S
O1543 Co1518 2.351 . S
O1543 C1546 1.244 . S
O1544 Co1518 2.155 . S
O1544 C1546 1.240 . S
O1545 Co1518 2.096 . S
O1545 C1526 1.247 . S
C1546 O1543 1.244 . S
C1546 O1544 1.240 . S
H1547 C1521 0.931 . S
H1548 C1530 0.931 . S
H1549 C1534 0.929 . S
H1550 C1536 0.930 . S
Co1551 N1555 2.148 . S
Co1551 N1561 2.128 . S
Co1551 N1571 2.194 . S
Co1551 O1576 2.351 . S
Co1551 O1577 2.155 . S
Co1551 O1578 2.096 . S
C1552 N1555 1.301 . S
C1552 N1556 1.328 . S
C1552 H1557 0.930 . S
C1553 C1554 1.333 . S
C1553 N1555 1.317 . S
C1553 H1558 0.930 . S
C1554 C1553 1.333 . S
C1554 N1556 1.350 . S
C1554 H1580 0.931 . S
N1555 Co1551 2.148 . S
N1555 C1552 1.301 . S
N1555 C1553 1.317 . S
N1556 C1552 1.328 . S
N1556 C1554 1.350 . S
H1557 C1552 0.930 . S
H1558 C1553 0.930 . S
C1559 O1560 1.224 . S
C1559 O1578 1.247 . S
O1560 C1559 1.224 . S
N1561 Co1551 2.128 . S
N1561 C1562 1.355 . S
N1561 C1564 1.311 . S
C1562 N1561 1.355 . S
C1562 C1563 1.363 . S
C1562 H1574 0.929 . S
C1563 C1562 1.363 . S
C1563 N1565 1.375 . S
C1563 H1581 0.931 . S
C1564 N1561 1.311 . S
C1564 N1565 1.347 . S
C1564 H1575 0.929 . S
N1565 C1563 1.375 . S
N1565 C1564 1.347 . S
C1566 C1569 1.365 . S
C1566 N1571 1.328 . S
C1566 H1572 0.929 . S
C1567 C1568 1.362 . S
C1567 C1570 1.378 . S
C1567 H1582 0.929 . S
C1568 C1567 1.362 . S
C1568 C1569 1.366 . S
C1569 C1566 1.365 . S
C1569 C1568 1.366 . S
C1569 H1583 0.930 . S
C1570 C1567 1.378 . S
C1570 N1571 1.315 . S
C1570 H1573 0.930 . S
N1571 Co1551 2.194 . S
N1571 C1566 1.328 . S
N1571 C1570 1.315 . S
H1572 C1566 0.929 . S
H1573 C1570 0.930 . S
H1574 C1562 0.929 . S
H1575 C1564 0.929 . S
O1576 Co1551 2.351 . S
O1576 C1579 1.244 . S
O1577 Co1551 2.155 . S
O1577 C1579 1.240 . S
O1578 Co1551 2.096 . S
O1578 C1559 1.247 . S
C1579 O1576 1.244 . S
C1579 O1577 1.240 . S
H1580 C1554 0.931 . S
H1581 C1563 0.931 . S
H1582 C1567 0.929 . S
H1583 C1569 0.930 . S
C974 C17 1.442 . S
C50 C1007 1.454 . S
C83 C1040 1.442 . S
C941 C116 1.443 . S
C908 C149 1.442 . S
C809 C182 1.441 . S
C215 C842 1.441 . S
C875 C248 1.450 . S
C281 C1568 1.442 . S
C710 C314 1.443 . S
C347 C1535 1.454 . S
C545 C380 1.442 . S
C413 C677 1.450 . S
C446 C1370 1.441 . S
C479 C1403 1.442 . S
C1436 C512 1.450 . S
C578 C1238 1.454 . S
C1271 C611 1.443 . S
C644 C1304 1.442 . S
C743 C1139 1.441 . S
C1073 C776 1.441 . S
C1106 C1502 1.442 . S
C1172 C1337 1.441 . S
C1469 C1205 1.442 . S
C734 C8 2.684 . S
C1328 C41 2.684 . S
C767 C74 2.684 . S
C1493 C107 2.684 . S
C602 C140 2.684 . S
C173 C635 2.684 . S
C1460 C206 2.684 . S
C569 C239 2.684 . S
C437 C272 2.684 . S
C305 C470 2.684 . S
C503 C338 2.684 . S
C404 C371 2.684 . S
C536 C833 2.684 . S
C668 C998 2.684 . S
C701 C899 2.684 . S
C800 C1526 2.684 . S
C1559 C866 2.684 . S
C1394 C932 2.684 . S
C965 C1427 2.684 . S
C1031 C1361 2.684 . S
C1229 C1064 2.684 . S
C1262 C1097 2.684 . S
C1130 C1295 2.684 . S
C1163 C1196 2.684 . S
N236 N5 0.676 . S
N137 N38 0.675 . S
N170 N71 0.675 . S
N203 N104 0.675 . S
N269 N665 0.676 . S
N1358 N302 0.675 . S
N1391 N335 0.675 . S
N368 N1424 0.675 . S
N401 N1556 0.675 . S
N434 N698 0.675 . S
N1523 N467 0.675 . S
N500 N533 0.676 . S
N1094 N566 0.675 . S
N599 N1127 0.675 . S
N1160 N632 0.675 . S
N731 N1259 0.675 . S
N1193 N764 0.675 . S
N1028 N797 0.676 . S
N929 N830 0.675 . S
N962 N863 0.675 . S
N896 N995 0.675 . S
N1061 N1457 0.676 . S
N1490 N1226 0.675 . S
N1325 N1292 0.676 . S
N575 C28 3.562 . S
C61 N608 3.562 . S
C94 N641 3.562 . S
C127 N1466 3.563 . S
N1334 C160 3.563 . S
N773 C193 3.562 . S
N1499 C226 3.562 . S
C259 N740 3.562 . S
C292 N1004 3.562 . S
N1037 C325 3.563 . S
N938 C358 3.562 . S
N971 C391 3.562 . S
N872 C424 3.562 . S
C457 N905 3.562 . S
N806 C490 3.563 . S
C523 N839 3.562 . S
C556 N344 3.562 . S
C589 N1268 3.562 . S
C622 N1301 3.563 . S
C655 N1202 3.562 . S
N443 C688 3.562 . S
N278 C721 3.563 . S
C754 N1103 3.562 . S
N1169 C787 3.562 . S
C820 N1367 3.562 . S
N1400 C853 3.562 . S
C886 N1433 3.562 . S
C919 N674 3.563 . S
C952 N542 3.563 . S
C985 N1565 3.562 . S
C1018 N707 3.562 . S
N1532 C1051 3.562 . S
C1084 N212 3.562 . S
C1117 N245 3.563 . S
C1150 N146 3.562 . S
N179 C1183 3.562 . S
C1216 N80 3.562 . S
N113 C1249 3.562 . S
C1282 N14 3.563 . S
C1315 N47 3.562 . S
N1136 C1348 3.562 . S
C1381 N476 3.562 . S
N509 C1414 3.563 . S
C1447 N410 3.562 . S
N1235 C1480 3.562 . S
N1070 C1513 3.563 . S
N311 C1546 3.561 . S
N377 C1579 3.562 . S
