# Generated by pormake.
# Topology wir, (6)-cn, num edge types: 1
# Building blocks:
#     Node 0, Type 0, BuildingBlock: BETFEN_clean_sbu_0, # of connection points: 6
#     Node 1, Type 0, BuildingBlock: BETFEN_clean_sbu_0, # of connection points: 6
#     Node 2, Type 0, BuildingBlock: BETFEN_clean_sbu_0, # of connection points: 6
#     Node 3, Type 0, BuildingBlock: BETFEN_clean_sbu_0, # of connection points: 6
#     Node 4, Type 0, BuildingBlock: BETFEN_clean_sbu_0, # of connection points: 6
#     Node 5, Type 0, BuildingBlock: BETFEN_clean_sbu_0, # of connection points: 6
#     Node 6, Type 0, BuildingBlock: BETFEN_clean_sbu_0, # of connection points: 6
#     Node 7, Type 0, BuildingBlock: BETFEN_clean_sbu_0, # of connection points: 6
#     Node 8, Type 0, BuildingBlock: BETFEN_clean_sbu_0, # of connection points: 6
#     Node 9, Type 0, BuildingBlock: BETFEN_clean_sbu_0, # of connection points: 6
#     Node 10, Type 0, BuildingBlock: BETFEN_clean_sbu_0, # of connection points: 6
#     Node 11, Type 0, BuildingBlock: BETFEN_clean_sbu_0, # of connection points: 6
#     Node 12, Type 0, BuildingBlock: BETFEN_clean_sbu_0, # of connection points: 6
#     Node 13, Type 0, BuildingBlock: BETFEN_clean_sbu_0, # of connection points: 6
#     Node 14, Type 0, BuildingBlock: BETFEN_clean_sbu_0, # of connection points: 6
#     Node 15, Type 0, BuildingBlock: BETFEN_clean_sbu_0, # of connection points: 6
#     Node 16, Type 0, BuildingBlock: BETFEN_clean_sbu_0, # of connection points: 6
#     Node 17, Type 0, BuildingBlock: BETFEN_clean_sbu_0, # of connection points: 6
#     Node 18, Type 0, BuildingBlock: BETFEN_clean_sbu_0, # of connection points: 6
#     Node 19, Type 0, BuildingBlock: BETFEN_clean_sbu_0, # of connection points: 6
#     Node 20, Type 0, BuildingBlock: BETFEN_clean_sbu_0, # of connection points: 6
#     Node 21, Type 0, BuildingBlock: BETFEN_clean_sbu_0, # of connection points: 6
#     Node 22, Type 0, BuildingBlock: BETFEN_clean_sbu_0, # of connection points: 6
#     Node 23, Type 0, BuildingBlock: BETFEN_clean_sbu_0, # of connection points: 6
#     Node 24, Type 0, BuildingBlock: BETFEN_clean_sbu_0, # of connection points: 6
#     Node 25, Type 0, BuildingBlock: BETFEN_clean_sbu_0, # of connection points: 6
#     Node 26, Type 0, BuildingBlock: BETFEN_clean_sbu_0, # of connection points: 6
#     Node 27, Type 0, BuildingBlock: BETFEN_clean_sbu_0, # of connection points: 6
#     Node 28, Type 0, BuildingBlock: BETFEN_clean_sbu_0, # of connection points: 6
#     Node 29, Type 0, BuildingBlock: BETFEN_clean_sbu_0, # of connection points: 6
#     Node 30, Type 0, BuildingBlock: BETFEN_clean_sbu_0, # of connection points: 6
#     Node 31, Type 0, BuildingBlock: BETFEN_clean_sbu_0, # of connection points: 6
#     Edge 32, Type (0, 0), BuildingBlock: TEMPAE_clean_linker_10, # of connection points: 2
#     Edge 33, Type (0, 0), BuildingBlock: TEMPAE_clean_linker_10, # of connection points: 2
#     Edge 34, Type (0, 0), BuildingBlock: TEMPAE_clean_linker_10, # of connection points: 2
#     Edge 35, Type (0, 0), BuildingBlock: TEMPAE_clean_linker_10, # of connection points: 2
#     Edge 36, Type (0, 0), BuildingBlock: TEMPAE_clean_linker_10, # of connection points: 2
#     Edge 37, Type (0, 0), BuildingBlock: TEMPAE_clean_linker_10, # of connection points: 2
#     Edge 38, Type (0, 0), BuildingBlock: TEMPAE_clean_linker_10, # of connection points: 2
#     Edge 39, Type (0, 0), BuildingBlock: TEMPAE_clean_linker_10, # of connection points: 2
#     Edge 40, Type (0, 0), BuildingBlock: TEMPAE_clean_linker_10, # of connection points: 2
#     Edge 41, Type (0, 0), BuildingBlock: TEMPAE_clean_linker_10, # of connection points: 2
#     Edge 42, Type (0, 0), BuildingBlock: TEMPAE_clean_linker_10, # of connection points: 2
#     Edge 43, Type (0, 0), BuildingBlock: TEMPAE_clean_linker_10, # of connection points: 2
#     Edge 44, Type (0, 0), BuildingBlock: TEMPAE_clean_linker_10, # of connection points: 2
#     Edge 45, Type (0, 0), BuildingBlock: TEMPAE_clean_linker_10, # of connection points: 2
#     Edge 46, Type (0, 0), BuildingBlock: TEMPAE_clean_linker_10, # of connection points: 2
#     Edge 47, Type (0, 0), BuildingBlock: TEMPAE_clean_linker_10, # of connection points: 2
#     Edge 48, Type (0, 0), BuildingBlock: TEMPAE_clean_linker_10, # of connection points: 2
#     Edge 49, Type (0, 0), BuildingBlock: TEMPAE_clean_linker_10, # of connection points: 2
#     Edge 50, Type (0, 0), BuildingBlock: TEMPAE_clean_linker_10, # of connection points: 2
#     Edge 51, Type (0, 0), BuildingBlock: TEMPAE_clean_linker_10, # of connection points: 2
#     Edge 52, Type (0, 0), BuildingBlock: TEMPAE_clean_linker_10, # of connection points: 2
#     Edge 53, Type (0, 0), BuildingBlock: TEMPAE_clean_linker_10, # of connection points: 2
#     Edge 54, Type (0, 0), BuildingBlock: TEMPAE_clean_linker_10, # of connection points: 2
#     Edge 55, Type (0, 0), BuildingBlock: TEMPAE_clean_linker_10, # of connection points: 2
#     Edge 56, Type (0, 0), BuildingBlock: TEMPAE_clean_linker_10, # of connection points: 2
#     Edge 57, Type (0, 0), BuildingBlock: TEMPAE_clean_linker_10, # of connection points: 2
#     Edge 58, Type (0, 0), BuildingBlock: TEMPAE_clean_linker_10, # of connection points: 2
#     Edge 59, Type (0, 0), BuildingBlock: TEMPAE_clean_linker_10, # of connection points: 2
#     Edge 60, Type (0, 0), BuildingBlock: TEMPAE_clean_linker_10, # of connection points: 2
#     Edge 61, Type (0, 0), BuildingBlock: TEMPAE_clean_linker_10, # of connection points: 2
#     Edge 62, Type (0, 0), BuildingBlock: TEMPAE_clean_linker_10, # of connection points: 2
#     Edge 63, Type (0, 0), BuildingBlock: TEMPAE_clean_linker_10, # of connection points: 2
#     Edge 64, Type (0, 0), BuildingBlock: TEMPAE_clean_linker_10, # of connection points: 2
#     Edge 65, Type (0, 0), BuildingBlock: TEMPAE_clean_linker_10, # of connection points: 2
#     Edge 66, Type (0, 0), BuildingBlock: TEMPAE_clean_linker_10, # of connection points: 2
#     Edge 67, Type (0, 0), BuildingBlock: TEMPAE_clean_linker_10, # of connection points: 2
#     Edge 68, Type (0, 0), BuildingBlock: TEMPAE_clean_linker_10, # of connection points: 2
#     Edge 69, Type (0, 0), BuildingBlock: TEMPAE_clean_linker_10, # of connection points: 2
#     Edge 70, Type (0, 0), BuildingBlock: TEMPAE_clean_linker_10, # of connection points: 2
#     Edge 71, Type (0, 0), BuildingBlock: TEMPAE_clean_linker_10, # of connection points: 2
#     Edge 72, Type (0, 0), BuildingBlock: TEMPAE_clean_linker_10, # of connection points: 2
#     Edge 73, Type (0, 0), BuildingBlock: TEMPAE_clean_linker_10, # of connection points: 2
#     Edge 74, Type (0, 0), BuildingBlock: TEMPAE_clean_linker_10, # of connection points: 2
#     Edge 75, Type (0, 0), BuildingBlock: TEMPAE_clean_linker_10, # of connection points: 2
#     Edge 76, Type (0, 0), BuildingBlock: TEMPAE_clean_linker_10, # of connection points: 2
#     Edge 77, Type (0, 0), BuildingBlock: TEMPAE_clean_linker_10, # of connection points: 2
#     Edge 78, Type (0, 0), BuildingBlock: TEMPAE_clean_linker_10, # of connection points: 2
#     Edge 79, Type (0, 0), BuildingBlock: TEMPAE_clean_linker_10, # of connection points: 2
#     Edge 80, Type (0, 0), BuildingBlock: TEMPAE_clean_linker_10, # of connection points: 2
#     Edge 81, Type (0, 0), BuildingBlock: TEMPAE_clean_linker_10, # of connection points: 2
#     Edge 82, Type (0, 0), BuildingBlock: TEMPAE_clean_linker_10, # of connection points: 2
#     Edge 83, Type (0, 0), BuildingBlock: TEMPAE_clean_linker_10, # of connection points: 2
#     Edge 84, Type (0, 0), BuildingBlock: TEMPAE_clean_linker_10, # of connection points: 2
#     Edge 85, Type (0, 0), BuildingBlock: TEMPAE_clean_linker_10, # of connection points: 2
#     Edge 86, Type (0, 0), BuildingBlock: TEMPAE_clean_linker_10, # of connection points: 2
#     Edge 87, Type (0, 0), BuildingBlock: TEMPAE_clean_linker_10, # of connection points: 2
#     Edge 88, Type (0, 0), BuildingBlock: TEMPAE_clean_linker_10, # of connection points: 2
#     Edge 89, Type (0, 0), BuildingBlock: TEMPAE_clean_linker_10, # of connection points: 2
#     Edge 90, Type (0, 0), BuildingBlock: TEMPAE_clean_linker_10, # of connection points: 2
#     Edge 91, Type (0, 0), BuildingBlock: TEMPAE_clean_linker_10, # of connection points: 2
#     Edge 92, Type (0, 0), BuildingBlock: TEMPAE_clean_linker_10, # of connection points: 2
#     Edge 93, Type (0, 0), BuildingBlock: TEMPAE_clean_linker_10, # of connection points: 2
#     Edge 94, Type (0, 0), BuildingBlock: TEMPAE_clean_linker_10, # of connection points: 2
#     Edge 95, Type (0, 0), BuildingBlock: TEMPAE_clean_linker_10, # of connection points: 2
#     Edge 96, Type (0, 0), BuildingBlock: TEMPAE_clean_linker_10, # of connection points: 2
#     Edge 97, Type (0, 0), BuildingBlock: TEMPAE_clean_linker_10, # of connection points: 2
#     Edge 98, Type (0, 0), BuildingBlock: TEMPAE_clean_linker_10, # of connection points: 2
#     Edge 99, Type (0, 0), BuildingBlock: TEMPAE_clean_linker_10, # of connection points: 2
#     Edge 100, Type (0, 0), BuildingBlock: TEMPAE_clean_linker_10, # of connection points: 2
#     Edge 101, Type (0, 0), BuildingBlock: TEMPAE_clean_linker_10, # of connection points: 2
#     Edge 102, Type (0, 0), BuildingBlock: TEMPAE_clean_linker_10, # of connection points: 2
#     Edge 103, Type (0, 0), BuildingBlock: TEMPAE_clean_linker_10, # of connection points: 2
#     Edge 104, Type (0, 0), BuildingBlock: TEMPAE_clean_linker_10, # of connection points: 2
#     Edge 105, Type (0, 0), BuildingBlock: TEMPAE_clean_linker_10, # of connection points: 2
#     Edge 106, Type (0, 0), BuildingBlock: TEMPAE_clean_linker_10, # of connection points: 2
#     Edge 107, Type (0, 0), BuildingBlock: TEMPAE_clean_linker_10, # of connection points: 2
#     Edge 108, Type (0, 0), BuildingBlock: TEMPAE_clean_linker_10, # of connection points: 2
#     Edge 109, Type (0, 0), BuildingBlock: TEMPAE_clean_linker_10, # of connection points: 2
#     Edge 110, Type (0, 0), BuildingBlock: TEMPAE_clean_linker_10, # of connection points: 2
#     Edge 111, Type (0, 0), BuildingBlock: TEMPAE_clean_linker_10, # of connection points: 2
#     Edge 112, Type (0, 0), BuildingBlock: TEMPAE_clean_linker_10, # of connection points: 2
#     Edge 113, Type (0, 0), BuildingBlock: TEMPAE_clean_linker_10, # of connection points: 2
#     Edge 114, Type (0, 0), BuildingBlock: TEMPAE_clean_linker_10, # of connection points: 2
#     Edge 115, Type (0, 0), BuildingBlock: TEMPAE_clean_linker_10, # of connection points: 2
#     Edge 116, Type (0, 0), BuildingBlock: TEMPAE_clean_linker_10, # of connection points: 2
#     Edge 117, Type (0, 0), BuildingBlock: TEMPAE_clean_linker_10, # of connection points: 2
#     Edge 118, Type (0, 0), BuildingBlock: TEMPAE_clean_linker_10, # of connection points: 2
#     Edge 119, Type (0, 0), BuildingBlock: TEMPAE_clean_linker_10, # of connection points: 2
#     Edge 120, Type (0, 0), BuildingBlock: TEMPAE_clean_linker_10, # of connection points: 2
#     Edge 121, Type (0, 0), BuildingBlock: TEMPAE_clean_linker_10, # of connection points: 2
#     Edge 122, Type (0, 0), BuildingBlock: TEMPAE_clean_linker_10, # of connection points: 2
#     Edge 123, Type (0, 0), BuildingBlock: TEMPAE_clean_linker_10, # of connection points: 2
#     Edge 124, Type (0, 0), BuildingBlock: TEMPAE_clean_linker_10, # of connection points: 2
#     Edge 125, Type (0, 0), BuildingBlock: TEMPAE_clean_linker_10, # of connection points: 2
#     Edge 126, Type (0, 0), BuildingBlock: TEMPAE_clean_linker_10, # of connection points: 2
#     Edge 127, Type (0, 0), BuildingBlock: TEMPAE_clean_linker_10, # of connection points: 2
# Relax obj value: 0.447
# Max RMSD: 0.204
# Mean RMSD: 0.204
data_MOF--net-wir--node1-BETFEN_clean_sbu_0--edge1-TEMPAE_clean_linker_10
_symmetry_space_group_name_H-M    P1
_symmetry_Int_Tables_number       1
_symmetry_cell_setting            triclinic
loop_
_symmetry_equiv_pos_as_xyz
'x, y, z'
_cell_length_a     37.997811
_cell_length_b     38.07294
_cell_length_c     109.82618
_cell_angle_alpha  89.866913
_cell_angle_beta   90.020373
_cell_angle_gamma 89.581046
loop_
_atom_site_label
_atom_site_type_symbol
_atom_site_fract_x
_atom_site_fract_y
_atom_site_fract_z
_atom_type_partial_charge
Pr0 Pr 0.27751 0.24781 0.399 0.0
Pr1 Pr 0.25188 0.21641 0.39402 0.0
C2 C 0.30566 0.31105 0.40365 0.0
C3 C 0.28926 0.34573 0.40443 0.0
C4 C 0.26281 0.35576 0.39614 0.0
C5 C 0.24136 0.38471 0.39858 0.0
C6 C 0.24565 0.40353 0.40944 0.0
C7 C 0.27388 0.39474 0.41725 0.0
C8 C 0.29563 0.36621 0.4147 0.0
C9 C 0.31501 0.19587 0.41432 0.0
C10 C 0.21631 0.22694 0.41745 0.0
C11 C 0.27569 0.16314 0.38052 0.0
C12 C 0.29122 0.16009 0.36838 0.0
C13 C 0.27499 0.1394 0.35956 0.0
C14 C 0.29225 0.13262 0.34863 0.0
C15 C 0.32584 0.14675 0.34641 0.0
C16 C 0.34058 0.16983 0.35481 0.0
C17 C 0.32383 0.17585 0.3658 0.0
C18 C 0.18642 0.24972 0.39232 0.0
C19 C 0.28118 0.25519 0.37076 0.0
O20 O 0.30605 0.29672 0.39292 0.0
O21 O 0.29648 0.28918 0.41217 0.0
O22 O 0.28182 0.20026 0.41289 0.0
O23 O 0.32963 0.21593 0.40623 0.0
O24 O 0.2202 0.19924 0.41062 0.0
O25 O 0.23443 0.25468 0.41429 0.0
O26 O 0.29503 0.18002 0.38836 0.0
O27 O 0.24195 0.17026 0.38137 0.0
O28 O 0.21656 0.26607 0.39332 0.0
O29 O 0.1908 0.2155 0.39217 0.0
O30 O 0.30436 0.24517 0.3788 0.0
O31 O 0.25029 0.25329 0.37576 0.0
H32 H 0.2572 0.34003 0.38817 0.0
H33 H 0.22012 0.39097 0.39234 0.0
H34 H 0.2776 0.40795 0.42587 0.0
H35 H 0.31562 0.35852 0.42124 0.0
H36 H 0.25002 0.12687 0.36139 0.0
H37 H 0.28057 0.11402 0.3424 0.0
H38 H 0.36637 0.18099 0.35328 0.0
H39 H 0.33762 0.19144 0.37247 0.0
Pr40 Pr 0.10476 1.02693 0.64519 0.0
Pr41 Pr 0.14388 0.99737 0.64153 0.0
C42 C 1.04271 0.05729 0.65034 0.0
C43 C 1.01008 1.03824 0.65232 0.0
C44 C 0.99019 1.04577 0.6627 0.0
C45 C 0.96884 1.01996 0.66772 0.0
C46 C 0.96723 0.98647 0.66235 0.0
C47 C 0.98383 0.98054 0.65115 0.0
C48 C 1.00521 1.00628 0.64616 0.0
C49 C 0.15929 0.06244 0.66029 0.0
C50 C 0.11013 0.96918 0.66502 0.0
C51 C 0.21137 1.0021 0.63544 0.0
C52 C 0.23549 1.00785 0.62555 0.0
C53 C 0.27127 1.00666 0.62836 0.0
C54 C 0.29498 1.02389 0.62092 0.0
C55 C 0.28283 1.0421 0.61065 0.0
C56 C 0.24741 1.04043 0.60718 0.0
C57 C 0.22357 1.02333 0.61469 0.0
C58 C 0.107 0.93437 0.64 0.0
C59 C 0.10779 1.03032 0.61617 0.0
O60 O 1.05537 1.05616 0.63932 0.0
O61 O 0.06649 1.05085 0.65859 0.0
O62 O 0.14989 1.03037 0.66009 0.0
O63 O 0.14421 0.07603 0.65067 0.0
O64 O 0.14185 0.97201 0.66062 0.0
O65 O 0.08516 0.98653 0.65953 0.0
O66 O 0.1914 1.02929 0.63796 0.0
O67 O 0.19566 0.97173 0.63625 0.0
O68 O 0.09274 0.96549 0.63801 0.0
O69 O 0.14023 0.93696 0.64276 0.0
O70 O 0.09931 1.0511 0.62509 0.0
O71 O 0.12562 1.00272 0.62003 0.0
H72 H 0.99419 0.06999 0.66767 0.0
H73 H 0.95662 1.02511 0.67645 0.0
H74 H 0.98274 0.95502 0.64683 0.0
H75 H 1.02076 0.99964 0.63822 0.0
H76 H 0.28049 0.99504 0.63681 0.0
H77 H 0.32251 1.02445 0.62349 0.0
H78 H 0.23798 1.05415 0.59914 0.0
H79 H 0.19572 1.02472 0.61258 0.0
Pr80 Pr 0.32746 0.85871 0.89714 0.0
Pr81 Pr 0.35786 0.89418 0.89255 0.0
C82 C 0.29014 0.79847 0.89667 0.0
C83 C 0.29896 0.76368 0.90171 0.0
C84 C 0.29324 0.75692 0.91413 0.0
C85 C 0.31372 0.73187 0.92012 0.0
C86 C 0.33978 0.71336 0.9137 0.0
C87 C 0.34139 0.71598 0.901 0.0
C88 C 0.32071 0.74081 0.89499 0.0
C89 C 0.29405 0.90899 0.91385 0.0
C90 C 0.37615 0.87117 0.91877 0.0
C91 C 0.3716 0.95264 0.87976 0.0
C92 C 0.34872 0.98088 0.87574 0.0
C93 C 0.3629 1.00918 0.86941 0.0
C94 C 0.34053 1.03256 0.86347 0.0
C95 C 0.30392 1.02738 0.8637 0.0
C96 C 0.28971 1.00033 0.87077 0.0
C97 C 0.31212 0.97711 0.87679 0.0
C98 C 0.42012 0.85473 0.89579 0.0
C99 C 0.32515 0.85885 0.86899 0.0
O100 O 0.30989 0.80892 0.88772 0.0
O101 O 0.28477 0.82336 0.90456 0.0
O102 O 0.3046 0.91539 0.90274 0.0
O103 O 0.30193 0.87649 0.91608 0.0
O104 O 0.37422 0.9005 0.91267 0.0
O105 O 0.3626 0.84352 0.91371 0.0
O106 O 0.37688 0.95035 0.89143 0.0
O107 O 0.36452 0.92263 0.87476 0.0
O108 O 0.38961 0.84125 0.89313 0.0
O109 O 0.41713 0.88821 0.89769 0.0
O110 O 0.30204 0.86963 0.877 0.0
O111 O 0.35602 0.85845 0.87415 0.0
H112 H 0.27606 0.77364 0.9195 0.0
H113 H 0.31212 0.73016 0.92996 0.0
H114 H 0.36121 0.70155 0.89594 0.0
H115 H 0.32493 0.74481 0.88533 0.0
H116 H 0.39114 1.01215 0.86855 0.0
H117 H 0.35187 1.05376 0.8582 0.0
H118 H 0.26158 0.9959 0.87101 0.0
H119 H 0.301 0.95499 0.88164 0.0
Pr120 Pr 0.51373 0.08567 0.14572 0.0
Pr121 Pr 0.48072 0.1125 0.14156 0.0
C122 C 0.57892 0.05895 0.14938 0.0
C123 C 0.61106 0.07918 0.15113 0.0
C124 C 0.63997 0.06541 0.15743 0.0
C125 C 0.6666 0.08787 0.16142 0.0
C126 C 0.66355 0.12468 0.15974 0.0
C127 C 0.63576 0.13733 0.15242 0.0
C128 C 0.61039 0.11476 0.14801 0.0
C129 C 0.46275 1.04828 0.16156 0.0
C130 C 0.4974 0.14553 0.16511 0.0
C131 C 0.42364 0.09151 0.12948 0.0
C132 C 0.41763 0.07612 0.11749 0.0
C133 C 0.39612 0.09349 0.10907 0.0
C134 C 0.38925 0.07798 0.09788 0.0
C135 C 0.4041 1.04505 0.09498 0.0
C136 C 0.4262 1.02809 0.10329 0.0
C137 C 0.43264 1.04327 0.1145 0.0
C138 C 0.51308 0.17797 0.13993 0.0
C139 C 0.51646 0.08203 0.11749 0.0
O140 O 0.5647 0.06196 0.13865 0.0
O141 O 0.5559 0.06258 0.15805 0.0
O142 O 0.46861 0.0813 0.16056 0.0
O143 O 0.4808 1.03397 0.15277 0.0
O144 O 0.46834 0.14337 0.15887 0.0
O145 O 0.52401 0.12654 0.16131 0.0
O146 O 0.44158 0.07146 0.13688 0.0
O147 O 0.43232 0.12474 0.13003 0.0
O148 O 0.52957 0.14758 0.14013 0.0
O149 O 0.47887 0.17381 0.1405 0.0
O150 O 0.50748 0.05885 0.12563 0.0
O151 O 0.51517 0.11281 0.12262 0.0
H152 H 0.64116 1.03776 0.15975 0.0
H153 H 0.68835 0.07627 0.16636 0.0
H154 H 0.63137 0.16493 0.15073 0.0
H155 H 0.58878 0.1257 0.14288 0.0
H156 H 0.38402 0.11855 0.11126 0.0
H157 H 0.37128 0.09118 0.09169 0.0
H158 H 0.4379 1.00275 0.10123 0.0
H159 H 0.44892 1.02873 0.12086 0.0
Pr160 Pr 0.2841 0.85705 0.24866 0.0
Pr161 Pr 0.25952 0.88748 0.25404 0.0
C162 C 0.30956 0.79176 0.24428 0.0
C163 C 0.29053 0.75869 0.24372 0.0
C164 C 0.30536 0.72889 0.23833 0.0
C165 C 0.28403 0.70018 0.23562 0.0
C166 C 0.24735 0.70194 0.23771 0.0
C167 C 0.23377 0.7307 0.24426 0.0
C168 C 0.25536 0.75835 0.24741 0.0
C169 C 0.3222 0.90736 0.23306 0.0
C170 C 0.22183 0.88493 0.23116 0.0
C171 C 0.28487 0.939 0.26791 0.0
C172 C 0.30392 0.94144 0.27946 0.0
C173 C 0.2878 0.95724 0.28949 0.0
C174 C 0.30771 0.96511 0.29974 0.0
C175 C 0.34402 0.9574 0.3 0.0
C176 C 0.35932 0.93861 0.29044 0.0
C177 C 0.33951 0.93088 0.28019 0.0
C178 C 0.19293 0.85635 0.25501 0.0
C179 C 0.2891 0.84849 0.27694 0.0
O180 O 0.31002 0.80636 0.25495 0.0
O181 O 0.30168 0.81408 0.2357 0.0
O182 O 0.28903 0.90501 0.23507 0.0
O183 O 0.33687 0.88562 0.24071 0.0
O184 O 0.22515 0.91008 0.23905 0.0
O185 O 0.24145 0.85678 0.23285 0.0
O186 O 0.30251 0.92433 0.25908 0.0
O187 O 0.25154 0.93045 0.26815 0.0
O188 O 0.22268 0.83953 0.25341 0.0
O189 O 0.19816 0.89019 0.25623 0.0
O190 O 0.31134 0.86114 0.26904 0.0
O191 O 0.25855 0.84808 0.27166 0.0
H192 H 0.33282 0.72849 0.23568 0.0
H193 H 0.29593 0.6778 0.23113 0.0
H194 H 0.20597 0.73382 0.2461 0.0
H195 H 0.24388 0.78058 0.25199 0.0
H196 H 0.26049 0.96555 0.28912 0.0
H197 H 0.29536 0.98025 0.30692 0.0
H198 H 0.38721 0.93247 0.29048 0.0
H199 H 0.35278 0.91834 0.27262 0.0
Pr200 Pr 0.51051 1.02026 0.5005 0.0
Pr201 Pr 0.47506 0.99742 0.50724 0.0
C202 C 0.57485 1.03687 0.49206 0.0
C203 C 0.6033 1.01212 0.48949 0.0
C204 C 0.63837 1.02283 0.48876 0.0
C205 C 0.66472 0.99811 0.48614 0.0
C206 C 0.65598 0.96263 0.48425 0.0
C207 C 0.62088 0.95215 0.48551 0.0
C208 C 0.59496 0.97659 0.48816 0.0
C209 C 0.45817 0.05813 0.48563 0.0
C210 C 0.47344 0.95456 0.48607 0.0
C211 C 0.42791 1.03368 0.52003 0.0
C212 C 0.43018 1.05059 0.53193 0.0
C213 C 0.42929 1.03083 0.54267 0.0
C214 C 0.4349 1.04715 0.55378 0.0
C215 C 0.44174 0.0835 0.55435 0.0
C216 C 0.44428 0.1028 0.54354 0.0
C217 C 0.43787 0.08666 0.53246 0.0
C218 C 0.50959 0.93187 0.5098 0.0
C219 C 0.51683 1.02695 0.52988 0.0
O220 O 0.56637 1.03897 0.50349 0.0
O221 O 0.54744 1.03401 0.48506 0.0
O222 O 0.46097 1.02504 0.48768 0.0
O223 O 0.48043 0.07311 0.49297 0.0
O224 O 0.44831 0.96193 0.49372 0.0
O225 O 0.50323 0.97176 0.48718 0.0
O226 O 0.44896 1.04792 0.51205 0.0
O227 O 0.42706 0.99909 0.51952 0.0
O228 O 0.52583 0.96128 0.50741 0.0
O229 O 0.47561 0.93695 0.51123 0.0
O230 O 0.51745 1.04827 0.52047 0.0
O231 O 0.50368 0.99675 0.52683 0.0
H232 H 0.64521 1.05016 0.48997 0.0
H233 H 0.69162 1.00686 0.48515 0.0
H234 H 0.61295 0.92542 0.48368 0.0
H235 H 0.56814 0.96774 0.4888 0.0
H236 H 0.42415 1.00289 0.54251 0.0
H237 H 0.43215 1.03141 0.56194 0.0
H238 H 0.44961 0.1307 0.54369 0.0
H239 H 0.43926 0.10246 0.52425 0.0
Pr240 Pr 0.33458 0.25166 0.74797 0.0
Pr241 Pr 0.35439 0.21926 0.75547 0.0
C242 C 0.31595 0.31342 0.73787 0.0
C243 C 0.33452 0.34662 0.73774 0.0
C244 C 0.35975 0.35374 0.74675 0.0
C245 C 0.38467 0.37986 0.74484 0.0
C246 C 0.38487 0.39872 0.73385 0.0
C247 C 0.35777 0.39294 0.72529 0.0
C248 C 0.33272 0.36724 0.72728 0.0
C249 C 0.29625 0.20016 0.7331 0.0
C250 C 0.40062 0.20534 0.73661 0.0
C251 C 0.30926 0.17931 0.76765 0.0
C252 C 0.29206 0.17756 0.77946 0.0
C253 C 0.31141 0.17459 0.79025 0.0
C254 C 0.29394 0.17395 0.80135 0.0
C255 C 0.25693 0.1763 0.80179 0.0
C256 C 0.23782 0.18055 0.79099 0.0
C257 C 0.25529 0.18097 0.77989 0.0
C258 C 0.42086 0.25427 0.75768 0.0
C259 C 0.33365 0.26083 0.77857 0.0
O260 O 0.30418 0.30303 0.74838 0.0
O261 O 0.33191 0.28858 0.73191 0.0
O262 O 0.32908 0.20049 0.73597 0.0
O263 O 0.28153 0.22452 0.73969 0.0
O264 O 0.39009 0.18381 0.74503 0.0
O265 O 0.38485 0.23635 0.73581 0.0
O266 O 0.29936 0.20649 0.76111 0.0
O267 O 0.34309 0.17132 0.76689 0.0
O268 O 0.39236 0.26932 0.75353 0.0
O269 O 0.4145 0.22194 0.76118 0.0
O270 O 0.31443 0.26819 0.76884 0.0
O271 O 0.35964 0.2399 0.77588 0.0
H272 H 0.36171 0.33754 0.75485 0.0
H273 H 0.40493 0.38378 0.75163 0.0
H274 H 0.35741 0.40604 0.71653 0.0
H275 H 0.31383 0.36146 0.72017 0.0
H276 H 0.33984 0.17237 0.79011 0.0
H277 H 0.30938 0.16979 0.80953 0.0
H278 H 0.20935 0.18221 0.79111 0.0
H279 H 0.24004 0.18366 0.77159 0.0
Pr280 Pr 0.09533 0.08608 0.9999 0.0
Pr281 Pr 0.14339 0.11429 1.00594 0.0
C282 C 1.03758 1.04655 0.99671 0.0
C283 C 1.02075 1.03243 0.98588 0.0
C284 C 1.04109 1.02965 0.97525 0.0
C285 C 1.02685 1.04075 0.96422 0.0
C286 C 0.99215 1.0534 0.96389 0.0
C287 C 0.96983 1.04754 0.97384 0.0
C288 C 0.98427 1.03705 0.98493 0.0
C289 C 0.14898 1.05404 0.9838 0.0
C290 C 0.11333 0.13925 0.97993 0.0
C291 C 0.20949 0.12546 1.0132 0.0
C292 C 0.23377 0.09927 1.01807 0.0
C293 C 0.25235 0.10703 1.02867 0.0
C294 C 0.26775 0.08 1.03533 0.0
C295 C 0.26483 1.04499 1.03142 0.0
C296 C 0.24836 1.03739 1.02039 0.0
C297 C 0.23255 0.06445 1.01377 0.0
C298 C 0.10023 0.17565 1.0049 0.0
C299 C 0.1007 0.08076 1.02977 0.0
O300 O 1.03707 0.08085 0.99705 0.0
O301 O 0.06806 1.03319 0.99977 0.0
O302 O 0.15206 0.05932 0.9955 0.0
O303 O 0.11883 0.06732 0.9807 0.0
O304 O 0.14277 0.13505 0.98599 0.0
O305 O 0.0848 0.12502 0.98419 0.0
O306 O 0.20107 0.12179 1.00179 0.0
O307 O 0.1824 0.13157 1.02017 0.0
O308 O 0.08905 0.14504 1.00845 0.0
O309 O 0.13276 0.17335 1.00152 0.0
O310 O 0.08387 0.06832 1.0204 0.0
O311 O 0.12769 0.10061 1.02695 0.0
H312 H 0.06915 1.02489 0.97577 0.0
H313 H 1.04431 1.04484 0.95655 0.0
H314 H 0.94287 0.05704 0.97369 0.0
H315 H 0.96816 1.03888 0.99305 0.0
H316 H 0.25298 0.13359 1.03219 0.0
H317 H 0.28083 0.08633 1.0438 0.0
H318 H 0.24619 1.01053 1.01725 0.0
H319 H 0.21773 0.05784 1.00569 0.0
Pr320 Pr 0.85454 0.87846 0.75616 0.0
Pr321 Pr 0.83001 0.84115 0.75076 0.0
C322 C 0.83353 0.93665 0.76734 0.0
C323 C 0.84074 0.95161 0.77915 0.0
C324 C 0.87029 0.93954 0.78564 0.0
C325 C 0.88638 0.96152 0.79399 0.0
C326 C 0.8723 0.995 0.79602 0.0
C327 C 0.83992 1.00483 0.79085 0.0
C328 C 0.82421 0.98313 0.78231 0.0
C329 C 0.92059 0.84528 0.75887 0.0
C330 C 0.82717 0.83759 0.78011 0.0
C331 C 0.8061 0.77742 0.74425 0.0
C332 C 0.82745 0.74572 0.74312 0.0
C333 C 0.81375 0.71443 0.73858 0.0
C334 C 0.83667 0.68697 0.73549 0.0
C335 C 0.87344 0.6913 0.73652 0.0
C336 C 0.88628 0.72158 0.74224 0.0
C337 C 0.86344 0.74828 0.74556 0.0
C338 C 0.79181 0.89528 0.73631 0.0
C339 C 0.89296 0.86396 0.73314 0.0
O340 O 0.81389 0.90841 0.76714 0.0
O341 O 0.86131 0.9352 0.76027 0.0
O342 O 0.89087 0.82852 0.7576 0.0
O343 O 0.91542 0.87925 0.7592 0.0
O344 O 0.8055 0.8334 0.771 0.0
O345 O 0.85576 0.8536 0.77661 0.0
O346 O 0.80369 0.78953 0.75527 0.0
O347 O 0.81374 0.80186 0.7364 0.0
O348 O 0.82458 0.88881 0.73711 0.0
O349 O 0.77778 0.87654 0.74497 0.0
O350 O 0.8873 0.89224 0.73949 0.0
O351 O 0.87538 0.83578 0.73619 0.0
H352 H 0.88332 0.91516 0.7832 0.0
H353 H 0.91138 0.95379 0.79796 0.0
H354 H 0.82894 1.0308 0.79238 0.0
H355 H 0.80145 0.99259 0.7773 0.0
H356 H 0.78582 0.71196 0.73684 0.0
H357 H 0.82579 0.66352 0.73144 0.0
H358 H 0.91418 0.72656 0.74311 0.0
H359 H 0.8743 0.77211 0.74919 0.0
Pr360 Pr 0.98276 0.10311 0.5006 0.0
Pr361 Pr 1.01439 0.07507 0.49773 0.0
C362 C 0.923 0.09735 0.51286 0.0
C363 C 0.91445 0.1073 0.52525 0.0
C364 C 0.92707 0.13903 0.53004 0.0
C365 C 0.91291 0.1522 0.54075 0.0
C366 C 0.88701 0.13312 0.54683 0.0
C367 C 0.87821 0.09919 0.54292 0.0
C368 C 0.89171 0.08641 0.53205 0.0
C369 C 1.01563 0.16801 0.50147 0.0
C370 C 1.01738 0.07558 0.5257 0.0
C371 C 0.07817 1.04471 0.49639 0.0
C372 C 0.11095 0.06452 0.49717 0.0
C373 C 0.13641 0.06 0.48811 0.0
C374 C 0.159 0.08752 0.48527 0.0
C375 C 0.156 0.11979 0.49144 0.0
C376 C 0.13392 0.12239 0.5016 0.0
C377 C 0.11157 0.09484 0.50449 0.0
C378 C 0.9625 1.03822 0.48189 0.0
C379 C 1.01079 0.12728 0.47618 0.0
O380 O 0.9446 0.07064 0.5117 0.0
O381 O 0.92941 0.12362 0.5055 0.0
O382 O 1.03106 0.13753 0.50333 0.0
O383 O 0.98228 0.16399 0.49911 0.0
O384 O 1.00734 1.05125 0.5182 0.0
O385 O 1.01723 0.1054 0.51975 0.0
O386 O 0.05932 1.04402 0.50628 0.0
O387 O 0.05941 1.05201 0.48677 0.0
O388 O 0.96891 0.07089 0.48262 0.0
O389 O 0.98062 1.02396 0.49067 0.0
O390 O 0.97979 0.12636 0.4812 0.0
O391 O 1.03544 0.10951 0.48167 0.0
H392 H 0.9457 0.15493 0.52503 0.0
H393 H 0.91971 0.17846 0.54368 0.0
H394 H 0.85791 0.08432 0.54752 0.0
H395 H 0.88252 0.06151 0.52854 0.0
H396 H 0.13603 1.03704 0.4823 0.0
H397 H 0.1756 0.08499 0.4773 0.0
H398 H 0.13121 0.14702 0.50646 0.0
H399 H 0.09203 0.0991 0.51152 0.0
Pr400 Pr 0.7544 0.22433 0.25439 0.0
Pr401 Pr 0.78196 0.25432 0.25169 0.0
C402 C 0.76551 0.16325 0.26548 0.0
C403 C 0.75708 0.14914 0.27735 0.0
C404 C 0.72351 0.15473 0.28237 0.0
C405 C 0.71162 0.13259 0.2915 0.0
C406 C 0.73378 0.1059 0.29579 0.0
C407 C 0.76914 0.10427 0.29217 0.0
C408 C 0.78074 0.12578 0.28282 0.0
C409 C 0.68932 0.25764 0.25693 0.0
C410 C 0.78203 0.25773 0.27971 0.0
C411 C 0.81556 0.31576 0.24909 0.0
C412 C 0.7983 0.34967 0.2472 0.0
C413 C 0.81038 0.37168 0.23792 0.0
C414 C 0.78725 0.39559 0.23253 0.0
C415 C 0.75197 0.39722 0.23635 0.0
C416 C 0.74134 0.37865 0.24669 0.0
C417 C 0.76446 0.35492 0.25211 0.0
C418 C 0.81687 0.20072 0.23592 0.0
C419 C 0.72559 0.25024 0.23073 0.0
O420 O 0.78974 0.18741 0.26518 0.0
O421 O 0.73848 0.16929 0.25836 0.0
O422 O 0.71985 0.27343 0.25681 0.0
O423 O 0.69328 0.22369 0.25597 0.0
O424 O 0.80668 0.24929 0.27204 0.0
O425 O 0.75179 0.25612 0.27403 0.0
O426 O 0.81025 0.30128 0.25965 0.0
O427 O 0.81125 0.29384 0.24016 0.0
O428 O 0.78604 0.21374 0.23562 0.0
O429 O 0.82951 0.21191 0.24623 0.0
O430 O 0.72607 0.21969 0.23603 0.0
O431 O 0.74523 0.27422 0.23574 0.0
H432 H 0.70532 0.17362 0.27841 0.0
H433 H 0.68429 0.13392 0.29429 0.0
H434 H 0.78639 0.08352 0.29547 0.0
H435 H 0.80693 0.12186 0.27913 0.0
H436 H 0.83623 0.36772 0.23398 0.0
H437 H 0.79579 0.41004 0.22456 0.0
H438 H 0.71417 0.37939 0.24968 0.0
H439 H 0.75445 0.33794 0.25922 0.0
Pr440 Pr 0.64425 1.01064 1.0043 0.0
Pr441 Pr 0.61217 1.02787 0.99623 0.0
C442 C 0.67912 0.05833 1.01707 0.0
C443 C 0.67737 0.07391 1.02916 0.0
C444 C 0.68016 1.05309 1.03963 0.0
C445 C 0.67937 0.0687 1.05102 0.0
C446 C 0.67657 0.10547 1.05212 0.0
C447 C 0.67119 0.12594 1.04165 0.0
C448 C 0.67172 0.11022 1.03022 0.0
C449 C 0.61155 0.943 1.00635 0.0
C450 C 0.60024 1.02925 1.02692 0.0
C451 C 0.55097 1.04343 0.98501 0.0
C452 C 0.51599 1.0287 0.98631 0.0
C453 C 0.50929 1.00431 0.99561 0.0
C454 C 0.47908 0.98381 0.9952 0.0
C455 C 0.45542 0.98745 0.98545 0.0
C456 C 0.46101 1.01415 0.97675 0.0
C457 C 0.49116 1.0346 0.97718 0.0
C458 C 0.66337 0.06753 0.98161 0.0
C459 C 0.66585 0.96516 0.98607 0.0
O460 O 0.65265 0.06683 1.00993 0.0
O461 O 0.68982 1.02535 1.01622 0.0
O462 O 0.59523 0.97104 1.00251 0.0
O463 O 0.64383 0.95036 1.00968 0.0
O464 O 0.59232 1.04734 1.01696 0.0
O465 O 0.62289 1.00446 1.02457 0.0
O466 O 0.56266 0.06087 0.99432 0.0
O467 O 0.57422 1.02176 0.98059 0.0
O468 O 0.66473 1.03525 0.98497 0.0
O469 O 0.63709 0.08135 0.98752 0.0
O470 O 0.68431 0.97685 0.99512 0.0
O471 O 0.6341 0.97903 0.98442 0.0
H472 H 0.68386 1.02491 1.03904 0.0
H473 H 0.68395 1.0521 1.05889 0.0
H474 H 0.66926 0.15428 1.04226 0.0
H475 H 0.66898 0.12657 1.02218 0.0
H476 H 0.52849 0.99955 1.00273 0.0
H477 H 0.47545 0.96358 1.00203 0.0
H478 H 0.44383 1.01727 0.96894 0.0
H479 H 0.49627 1.05317 0.96991 0.0
Pr480 Pr 0.86388 0.22119 0.88831 0.0
Pr481 Pr 0.83876 0.25988 0.8951 0.0
C482 C 0.87109 0.16716 0.87339 0.0
C483 C 0.89093 0.16865 0.86197 0.0
C484 C 0.92693 0.1772 0.86196 0.0
C485 C 0.94483 0.18185 0.85102 0.0
C486 C 0.9271 0.17801 0.83991 0.0
C487 C 0.89045 0.17243 0.84003 0.0
C488 C 0.87272 0.16723 0.85093 0.0
C489 C 0.92965 0.25755 0.88961 0.0
C490 C 0.8313 0.26291 0.86588 0.0
C491 C 0.80612 0.32239 0.89848 0.0
C492 C 0.81791 0.3567 0.90284 0.0
C493 C 0.84051 0.37746 0.89576 0.0
C494 C 0.85882 0.40496 0.90109 0.0
C495 C 0.85488 0.41181 0.91356 0.0
C496 C 0.82945 0.39343 0.92028 0.0
C497 C 0.81089 0.36625 0.91492 0.0
C498 C 0.80469 0.2085 0.91106 0.0
C499 C 0.89197 0.23195 0.91386 0.0
O500 O 0.84245 0.18645 0.87348 0.0
O501 O 0.88952 0.16949 0.88341 0.0
O502 O 0.89905 0.27326 0.88885 0.0
O503 O 0.92531 0.22381 0.89034 0.0
O504 O 0.80953 0.26125 0.87516 0.0
O505 O 0.86259 0.25264 0.86921 0.0
O506 O 0.81818 0.31204 0.88799 0.0
O507 O 0.80657 0.29734 0.90654 0.0
O508 O 0.81093 0.20491 0.89946 0.0
O509 O 0.81766 0.23841 0.91423 0.0
O510 O 0.88087 0.2052 0.90763 0.0
O511 O 0.88406 0.2631 0.90961 0.0
H512 H 0.94148 0.17996 0.87038 0.0
H513 H 0.97291 0.18648 0.85123 0.0
H514 H 0.87562 0.16964 0.83169 0.0
H515 H 0.8447 0.16211 0.85073 0.0
H516 H 0.84601 0.37103 0.88634 0.0
H517 H 0.87796 0.41911 0.89571 0.0
H518 H 0.82611 0.39777 0.92996 0.0
H519 H 0.79329 0.35082 0.92052 0.0
Pr520 Pr 0.63697 0.10268 0.64541 0.0
Pr521 Pr 0.61035 0.07463 0.64637 0.0
C522 C 0.69652 0.10083 0.63291 0.0
C523 C 0.69691 0.10947 0.62003 0.0
C524 C 0.67249 0.13431 0.61556 0.0
C525 C 0.67216 0.14321 0.60332 0.0
C526 C 0.69617 0.12727 0.59543 0.0
C527 C 0.7185 0.10021 0.59971 0.0
C528 C 0.71887 0.09135 0.61201 0.0
C529 C 0.60435 0.16791 0.64419 0.0
C530 C 0.60545 0.07702 0.6196 0.0
C531 C 0.55103 1.03594 0.646 0.0
C532 C 0.52924 1.02486 0.65621 0.0
C533 C 0.54583 1.01846 0.66745 0.0
C534 C 0.52887 1.02787 0.67816 0.0
C535 C 0.49545 1.04353 0.67759 0.0
C536 C 0.47641 1.04314 0.66666 0.0
C537 C 0.49339 1.03368 0.65591 0.0
C538 C 0.65943 1.03784 0.66356 0.0
C539 C 0.60573 0.12006 0.66998 0.0
O540 O 0.67991 0.07192 0.63556 0.0
O541 O 0.68847 0.12709 0.64004 0.0
O542 O 0.59057 0.13766 0.64119 0.0
O543 O 0.63647 0.16335 0.64806 0.0
O544 O 0.62325 1.05448 0.62593 0.0
O545 O 0.5988 0.10369 0.62679 0.0
O546 O 0.55134 0.06979 0.64439 0.0
O547 O 0.58236 1.02222 0.64538 0.0
O548 O 0.649 0.06964 0.66352 0.0
O549 O 0.64775 1.02517 0.65335 0.0
O550 O 0.63528 0.12702 0.66458 0.0
O551 O 0.58648 0.09645 0.66467 0.0
H552 H 0.65431 0.14769 0.6216 0.0
H553 H 0.65505 0.16426 0.60019 0.0
H554 H 0.73768 0.08794 0.59375 0.0
H555 H 0.73694 0.07132 0.6153 0.0
H556 H 0.57351 1.01155 0.66792 0.0
H557 H 0.54375 1.0279 0.68658 0.0
H558 H 0.45051 1.05516 0.66611 0.0
H559 H 0.48028 1.03869 0.64731 0.0
Pr560 Pr 0.75635 0.88325 0.39177 0.0
Pr561 Pr 0.78502 0.85455 0.39336 0.0
C562 C 0.75762 0.94084 0.3785 0.0
C563 C 0.74794 0.93725 0.36572 0.0
C564 C 0.72042 0.91431 0.36265 0.0
C565 C 0.71462 0.90482 0.35065 0.0
C566 C 0.73553 0.91887 0.34139 0.0
C567 C 0.76442 0.94015 0.34455 0.0
C568 C 0.77049 0.94933 0.35663 0.0
C569 C 0.69138 0.85043 0.39088 0.0
C570 C 0.78316 0.85134 0.36601 0.0
C571 C 0.82094 0.79349 0.39483 0.0
C572 C 0.80492 0.75989 0.3979 0.0
C573 C 0.8188 0.7407 0.4077 0.0
C574 C 0.79644 0.7206 0.41491 0.0
C575 C 0.76031 0.71987 0.41229 0.0
C576 C 0.74758 0.73465 0.40148 0.0
C577 C 0.76993 0.75432 0.39422 0.0
C578 C 0.82092 0.90596 0.40956 0.0
C579 C 0.73455 0.85155 0.41549 0.0
O580 O 0.78698 0.92464 0.38134 0.0
O581 O 0.73209 0.93524 0.38625 0.0
O582 O 0.72196 0.83573 0.38848 0.0
O583 O 0.6955 0.88316 0.39398 0.0
O584 O 0.8069 0.86554 0.37286 0.0
O585 O 0.75527 0.84667 0.37287 0.0
O586 O 0.8115 0.80722 0.38448 0.0
O587 O 0.81962 0.81614 0.40367 0.0
O588 O 0.78956 0.89471 0.40985 0.0
O589 O 0.83333 0.89446 0.39924 0.0
O590 O 0.73476 0.88363 0.41139 0.0
O591 O 0.75207 0.82877 0.40907 0.0
H592 H 0.70368 0.90291 0.36956 0.0
H593 H 0.69269 0.88785 0.34854 0.0
H594 H 0.78139 0.95135 0.33768 0.0
H595 H 0.79288 0.96554 0.35888 0.0
H596 H 0.84556 0.74498 0.41074 0.0
H597 H 0.80654 0.70935 0.4233 0.0
H598 H 0.71971 0.73418 0.39938 0.0
H599 H 0.75849 0.76895 0.3867 0.0
Pr600 Pr 0.97242 0.99797 0.14208 0.0
Pr601 Pr 1.00326 1.02609 0.14628 0.0
C602 C 0.9132 0.99606 0.12889 0.0
C603 C 0.89974 1.0027 0.11672 0.0
C604 C 0.86769 0.98749 0.11355 0.0
C605 C 0.84674 1.00337 0.1047 0.0
C606 C 0.85791 1.03453 0.09914 0.0
C607 C 0.89184 1.04707 0.10117 0.0
C608 C 0.91293 1.03093 0.10987 0.0
C609 C 1.00606 0.93317 0.14485 0.0
C610 C 1.00559 1.03058 0.1186 0.0
C611 C 0.06334 0.06288 0.14362 0.0
C612 C 0.09557 0.0645 0.15086 0.0
C613 C 0.09348 0.0693 0.16351 0.0
C614 C 0.11982 1.0557 0.17097 0.0
C615 C 0.14789 1.03697 0.16579 0.0
C616 C 0.15263 1.0369 0.15317 0.0
C617 C 0.12666 1.05116 0.14569 0.0
C618 C 0.95807 0.06005 0.16455 0.0
C619 C 0.99214 0.9816 0.16874 0.0
O620 O 0.9244 1.02385 0.13458 0.0
O621 O 0.93206 0.96791 0.1309 0.0
O622 O 1.02217 0.9633 0.14399 0.0
O623 O 0.97201 0.93746 0.14502 0.0
O624 O 0.99021 1.05179 0.12631 0.0
O625 O 1.00984 1.00064 0.12408 0.0
O626 O 0.05803 1.03237 0.13865 0.0
O627 O 1.03483 0.07605 0.14842 0.0
O628 O 0.94752 1.04339 0.15496 0.0
O629 O 0.99219 0.05874 0.16461 0.0
O630 O 0.96366 0.98088 0.16213 0.0
O631 O 1.01941 0.99647 0.16386 0.0
H632 H 0.85717 0.96585 0.1188 0.0
H633 H 0.82039 0.99357 0.10319 0.0
H634 H 0.90066 0.07111 0.09687 0.0
H635 H 0.93747 1.04323 0.1122 0.0
H636 H 0.0698 0.07957 0.16774 0.0
H637 H 0.11574 1.05553 0.18075 0.0
H638 H 0.17409 1.02213 0.14911 0.0
H639 H 0.12868 1.04733 0.13593 0.0
Pr640 Pr 0.77278 0.74497 0.89681 0.0
Pr641 Pr 0.7434 0.71568 0.89414 0.0
C642 C 0.81446 0.80098 0.89291 0.0
C643 C 0.8284 0.82646 0.90159 0.0
C644 C 0.84172 0.81432 0.91278 0.0
C645 C 0.83627 0.83409 0.92324 0.0
C646 C 0.81783 0.86602 0.92245 0.0
C647 C 0.81136 0.8812 0.91102 0.0
C648 C 0.81684 0.8614 0.90054 0.0
C649 C 0.80587 0.70136 0.91608 0.0
C650 C 0.73167 0.74274 0.92031 0.0
C651 C 0.73352 0.65806 0.88069 0.0
C652 C 0.73522 0.65494 0.86753 0.0
C653 C 0.72341 0.68294 0.86016 0.0
C654 C 0.73783 0.68786 0.84862 0.0
C655 C 0.76449 0.66523 0.8446 0.0
C656 C 0.77376 0.63553 0.85151 0.0
C657 C 0.75884 0.63015 0.86285 0.0
C658 C 0.68073 0.75297 0.89667 0.0
C659 C 0.77554 0.74611 0.86969 0.0
O660 O 0.78029 0.80205 0.89188 0.0
O661 O 0.82658 0.76894 0.89367 0.0
O662 O 0.78918 0.69019 0.90661 0.0
O663 O 0.80473 0.73539 0.9156 0.0
O664 O 0.72859 0.71283 0.91465 0.0
O665 O 0.74787 0.76738 0.91442 0.0
O666 O 0.76379 0.66641 0.88539 0.0
O667 O 0.70734 0.67596 0.88525 0.0
O668 O 0.71061 0.76583 0.89292 0.0
O669 O 0.68475 0.7204 0.90013 0.0
O670 O 0.7956 0.7275 0.87687 0.0
O671 O 0.74749 0.75392 0.87597 0.0
H672 H 0.85165 0.78775 0.9138 0.0
H673 H 0.84195 0.82232 0.93203 0.0
H674 H 0.7973 0.90598 0.91024 0.0
H675 H 0.8068 0.87133 0.89195 0.0
H676 H 0.70547 0.70268 0.86369 0.0
H677 H 0.72978 0.71029 0.84318 0.0
H678 H 0.79348 0.61707 0.84833 0.0
H679 H 0.76848 0.60868 0.86847 0.0
Pr680 Pr 0.60747 0.52939 0.1451 0.0
Pr681 Pr 0.65703 0.50086 0.13903 0.0
C682 C 0.54523 0.56265 0.14805 0.0
C683 C 0.52138 0.56618 0.1583 0.0
C684 C 0.48547 0.56143 0.15603 0.0
C685 C 0.46448 0.54604 0.1649 0.0
C686 C 0.47943 0.53614 0.17604 0.0
C687 C 0.51371 0.54629 0.17899 0.0
C688 C 0.53481 0.56133 0.17009 0.0
C689 C 0.65986 0.56443 0.16062 0.0
C690 C 0.63202 0.48036 0.16572 0.0
C691 C 0.72327 0.49152 0.13144 0.0
C692 C 0.74363 0.51844 0.12528 0.0
C693 C 0.76734 0.5088 0.11617 0.0
C694 C 0.77767 0.53365 0.1076 0.0
C695 C 0.76398 0.56806 0.10807 0.0
C696 C 0.74308 0.57854 0.11786 0.0
C697 C 0.73289 0.55374 0.12645 0.0
C698 C 0.61421 0.4391 0.14105 0.0
C699 C 0.61553 0.53685 0.11532 0.0
O700 O 0.54845 0.53036 0.1443 0.0
O701 O 0.57527 0.57877 0.14875 0.0
O702 O 0.66325 0.55741 0.14899 0.0
O703 O 0.62977 0.55176 0.16393 0.0
O704 O 0.66042 0.48544 0.15928 0.0
O705 O 0.60184 0.49055 0.16125 0.0
O706 O 0.71554 0.49822 0.14275 0.0
O707 O 0.69626 0.48084 0.12518 0.0
O708 O 0.60281 0.46968 0.13742 0.0
O709 O 0.64734 0.44115 0.14371 0.0
O710 O 0.59954 0.55068 0.1247 0.0
O711 O 0.64109 0.51488 0.11813 0.0
H712 H 0.47497 0.56473 0.14692 0.0
H713 H 0.4381 0.53785 0.16252 0.0
H714 H 0.52557 0.53826 0.18755 0.0
H715 H 0.56259 0.56452 0.17196 0.0
H716 H 0.77539 0.48163 0.11506 0.0
H717 H 0.79403 0.52534 0.10004 0.0
H718 H 0.73214 0.60488 0.11826 0.0
H719 H 0.7141 0.56153 0.13335 0.0
Pr720 Pr 0.83358 0.34955 0.39923 0.0
Pr721 Pr 0.85901 0.38472 0.39333 0.0
C722 C 0.80898 0.28665 0.40625 0.0
C723 C 0.8274 0.25303 0.40741 0.0
C724 C 0.85193 0.24232 0.39855 0.0
C725 C 0.87578 0.21529 0.40109 0.0
C726 C 0.87591 0.19916 0.4126 0.0
C727 C 0.84973 0.20868 0.42111 0.0
C728 C 0.82553 0.23512 0.41848 0.0
C729 C 0.79619 0.40299 0.41391 0.0
C730 C 0.89653 0.37509 0.41648 0.0
C731 C 0.83021 0.4365 0.38055 0.0
C732 C 0.81653 0.4387 0.3681 0.0
C733 C 0.8348 0.45741 0.35919 0.0
C734 C 0.81962 0.46265 0.34781 0.0
C735 C 0.78588 0.44944 0.34529 0.0
C736 C 0.76896 0.42829 0.35382 0.0
C737 C 0.7841 0.42299 0.36517 0.0
C738 C 0.92374 0.3495 0.39138 0.0
C739 C 0.83004 0.345 0.36982 0.0
O740 O 0.80517 0.29882 0.39525 0.0
O741 O 0.81913 0.31052 0.4139 0.0
O742 O 0.82937 0.39908 0.41229 0.0
O743 O 0.78141 0.3818 0.40621 0.0
O744 O 0.89102 0.40279 0.40969 0.0
O745 O 0.87963 0.34639 0.41353 0.0
O746 O 0.81214 0.41572 0.38767 0.0
O747 O 0.86456 0.43449 0.38211 0.0
O748 O 0.89349 0.33348 0.3927 0.0
O749 O 0.91989 0.38376 0.39083 0.0
O750 O 0.80801 0.34334 0.37895 0.0
O751 O 0.85993 0.35817 0.37329 0.0
H752 H 0.85415 0.25615 0.38996 0.0
H753 H 0.89523 0.20841 0.39428 0.0
H754 H 0.84938 0.19774 0.43022 0.0
H755 H 0.80718 0.24348 0.42547 0.0
H756 H 0.85987 0.46947 0.36122 0.0
H757 H 0.83288 0.47966 0.34139 0.0
H758 H 0.74287 0.41818 0.35205 0.0
H759 H 0.76938 0.40792 0.37178 0.0
Pr760 Pr 1.01089 0.58061 0.64563 0.0
Pr761 Pr 0.97023 0.61064 0.64109 0.0
C762 C 0.07385 0.55266 0.65113 0.0
C763 C 0.10646 0.57256 0.65145 0.0
C764 C 0.1308 0.56618 0.66074 0.0
C765 C 0.15415 0.5925 0.6641 0.0
C766 C 0.15292 0.62544 0.65825 0.0
C767 C 0.13138 0.63016 0.64803 0.0
C768 C 0.10827 0.60382 0.64463 0.0
C769 C 0.95519 0.54347 0.65977 0.0
C770 C 1.00044 0.63703 0.6657 0.0
C771 C 0.90535 0.60749 0.63203 0.0
C772 C 0.89452 0.59364 0.62032 0.0
C773 C 0.86235 0.60366 0.61523 0.0
C774 C 0.84941 0.58527 0.60527 0.0
C775 C 0.86865 0.55679 0.60048 0.0
C776 C 0.90204 0.54863 0.605 0.0
C777 C 0.91496 0.56704 0.61487 0.0
C778 C 1.00843 0.67298 0.64063 0.0
C779 C 1.01059 0.57663 0.6165 0.0
O780 O 0.05957 0.5494 0.64041 0.0
O781 O 1.05123 0.56217 0.65942 0.0
O782 O 0.96226 0.57614 0.65929 0.0
O783 O 0.97376 0.52977 0.65098 0.0
O784 O 0.96973 0.6354 0.66035 0.0
O785 O 1.02644 0.62009 0.66068 0.0
O786 O 0.91849 0.5835 0.63926 0.0
O787 O 0.92337 0.63656 0.63183 0.0
O788 O 1.02208 0.6419 0.63819 0.0
O789 O 0.97526 0.67062 0.64353 0.0
O790 O 1.0198 0.55688 0.62564 0.0
O791 O 0.99097 0.60338 0.61995 0.0
H792 H 0.12931 0.54247 0.66619 0.0
H793 H 0.17021 0.58844 0.67214 0.0
H794 H 0.12993 0.65538 0.64345 0.0
H795 H 0.0893 0.60945 0.63751 0.0
H796 H 0.84643 0.6241 0.61938 0.0
H797 H 0.82329 0.59155 0.60191 0.0
H798 H 0.91703 0.52666 0.6014 0.0
H799 H 0.93969 0.5586 0.61881 0.0
Pr800 Pr 0.7748 0.35041 0.7465 0.0
Pr801 Pr 0.749 0.38545 0.75117 0.0
C802 C 0.80003 0.2854 0.74178 0.0
C803 C 0.77959 0.25323 0.74097 0.0
C804 C 0.79422 0.22182 0.73671 0.0
C805 C 0.77229 0.19329 0.7343 0.0
C806 C 0.7355 0.19645 0.73585 0.0
C807 C 0.72174 0.22733 0.74099 0.0
C808 C 0.74363 0.25518 0.74358 0.0
C809 C 0.81249 0.40201 0.73094 0.0
C810 C 0.71252 0.37076 0.72807 0.0
C811 C 0.77451 0.44353 0.76079 0.0
C812 C 0.78739 0.46614 0.77029 0.0
C813 C 0.76623 0.47651 0.78004 0.0
C814 C 0.77863 0.5017 0.78806 0.0
C815 C 0.81215 0.51642 0.78631 0.0
C816 C 0.83377 0.50462 0.77687 0.0
C817 C 0.82138 0.47956 0.76888 0.0
C818 C 0.68369 0.35251 0.75396 0.0
C819 C 0.77844 0.34885 0.77541 0.0
O820 O 0.80064 0.29947 0.75255 0.0
O821 O 0.79311 0.30837 0.73332 0.0
O822 O 0.77936 0.39656 0.73202 0.0
O823 O 0.82682 0.38295 0.73949 0.0
O824 O 0.71718 0.39943 0.73425 0.0
O825 O 0.73058 0.34306 0.73158 0.0
O826 O 0.79432 0.41639 0.75807 0.0
O827 O 0.74051 0.43953 0.75906 0.0
O828 O 0.71405 0.33609 0.75327 0.0
O829 O 0.6878 0.38667 0.7535 0.0
O830 O 0.8018 0.35149 0.76674 0.0
O831 O 0.74739 0.35663 0.77107 0.0
H832 H 0.82211 0.21987 0.73475 0.0
H833 H 0.78384 0.16961 0.73054 0.0
H834 H 0.69371 0.23138 0.74211 0.0
H835 H 0.73201 0.2791 0.74692 0.0
H836 H 0.73994 0.4662 0.7812 0.0
H837 H 0.76136 0.51095 0.79524 0.0
H838 H 0.85965 0.51567 0.77545 0.0
H839 H 0.83788 0.47159 0.7613 0.0
Pr840 Pr 1.00446 0.52507 1.00191 0.0
Pr841 Pr 0.95638 0.49852 1.00823 0.0
C842 C 0.0662 0.558 0.99892 0.0
C843 C 0.10125 0.54279 1.00015 0.0
C844 C 0.1282 0.55538 0.99269 0.0
C845 C 0.15488 0.53255 0.98894 0.0
C846 C 0.15411 0.49716 0.99253 0.0
C847 C 0.1304 0.48625 1.00148 0.0
C848 C 0.10403 0.50914 1.00535 0.0
C849 C 0.95098 0.56064 0.98664 0.0
C850 C 0.98786 0.47178 0.98282 0.0
C851 C 0.88929 0.49038 1.01515 0.0
C852 C 0.86592 0.51808 1.01958 0.0
C853 C 0.84217 0.51069 1.02891 0.0
C854 C 0.82846 0.53808 1.03586 0.0
C855 C 0.83877 0.57288 1.03358 0.0
C856 C 0.85985 0.58057 1.02355 0.0
C857 C 0.87323 0.55321 1.01652 0.0
C858 C 0.99667 0.43501 1.00713 0.0
C859 C 1.00069 0.53113 1.03189 0.0
O860 O 1.04775 0.56062 1.00888 0.0
O861 O 1.04847 0.54438 0.98997 0.0
O862 O 0.94862 0.55451 0.99829 0.0
O863 O 0.98068 0.54741 0.98326 0.0
O864 O 0.95787 0.48044 0.98793 0.0
O865 O 1.01677 0.48151 0.9881 0.0
O866 O 0.89856 0.49299 1.00377 0.0
O867 O 0.9158 0.48366 1.02235 0.0
O868 O 1.01006 0.46533 1.00994 0.0
O869 O 0.96359 0.43855 1.00456 0.0
O870 O 1.01757 0.54314 1.02239 0.0
O871 O 0.97321 0.51183 1.02916 0.0
H872 H 0.12606 0.58109 0.98848 0.0
H873 H 0.17274 0.54107 0.98184 0.0
H874 H 0.12911 0.45883 1.00412 0.0
H875 H 0.08304 0.49884 1.01097 0.0
H876 H 0.83666 0.48379 1.03149 0.0
H877 H 0.8124 0.53182 1.04371 0.0
H878 H 0.86837 0.60722 1.02181 0.0
H879 H 0.89167 0.55944 1.00938 0.0
Pr880 Pr 0.83817 0.76204 0.24618 0.0
Pr881 Pr 0.86458 0.72665 0.25198 0.0
C882 C 0.8146 0.82734 0.24118 0.0
C883 C 0.83535 0.85928 0.24027 0.0
C884 C 0.81976 0.8926 0.2411 0.0
C885 C 0.84059 0.92261 0.24001 0.0
C886 C 0.87711 0.9194 0.23804 0.0
C887 C 0.89247 0.88567 0.2378 0.0
C888 C 0.87184 0.85608 0.23897 0.0
C889 C 0.80001 0.7098 0.23118 0.0
C890 C 0.89532 0.73853 0.22695 0.0
C891 C 0.8431 0.67164 0.26468 0.0
C892 C 0.83121 0.66516 0.27711 0.0
C893 C 0.84755 0.6388 0.28399 0.0
C894 C 0.83171 0.62703 0.29463 0.0
C895 C 0.79927 0.64137 0.29834 0.0
C896 C 0.78468 0.66996 0.29213 0.0
C897 C 0.80069 0.68201 0.28159 0.0
C898 C 0.92964 0.76013 0.2528 0.0
C899 C 0.83282 0.7656 0.27536 0.0
O900 O 0.8137 0.8137 0.25204 0.0
O901 O 0.82088 0.804 0.23279 0.0
O902 O 0.83294 0.71031 0.23376 0.0
O903 O 0.78569 0.73443 0.23775 0.0
O904 O 0.89267 0.71148 0.2342 0.0
O905 O 0.87892 0.76711 0.23034 0.0
O906 O 0.82188 0.69146 0.25816 0.0
O907 O 0.87679 0.6774 0.26287 0.0
O908 O 0.89927 0.77667 0.25227 0.0
O909 O 0.92567 0.72596 0.25295 0.0
O910 O 0.81047 0.76409 0.2663 0.0
O911 O 0.86396 0.75585 0.27166 0.0
H912 H 0.7916 0.89536 0.24236 0.0
H913 H 0.828 0.9482 0.24028 0.0
H914 H 0.92022 0.88176 0.23595 0.0
H915 H 0.88441 0.83058 0.23847 0.0
H916 H 0.87106 0.62564 0.28069 0.0
H917 H 0.84303 0.60449 0.29928 0.0
H918 H 0.75958 0.68104 0.29489 0.0
H919 H 0.78756 0.70269 0.27653 0.0
Pr920 Pr 0.60414 0.58137 0.50026 0.0
Pr921 Pr 0.63934 0.60184 0.50745 0.0
C922 C 0.5408 0.56568 0.49081 0.0
C923 C 0.5099 0.58806 0.48905 0.0
C924 C 0.50281 0.61577 0.49714 0.0
C925 C 0.47841 0.64184 0.49404 0.0
C926 C 0.4612 0.64078 0.48273 0.0
C927 C 0.46746 0.61199 0.47494 0.0
C928 C 0.49141 0.58578 0.47812 0.0
C929 C 0.65593 0.54249 0.48541 0.0
C930 C 0.64532 0.64637 0.48682 0.0
C931 C 0.6827 0.55874 0.51933 0.0
C932 C 0.68506 0.5386 0.53058 0.0
C933 C 0.68835 0.55462 0.54195 0.0
C934 C 0.69281 0.5338 0.55228 0.0
C935 C 0.69399 0.49683 0.55129 0.0
C936 C 0.68696 0.48113 0.54006 0.0
C937 C 0.68309 0.50186 0.52976 0.0
C938 C 0.60656 0.66834 0.51021 0.0
C939 C 0.59679 0.57674 0.53029 0.0
O940 O 0.54943 0.55863 0.50201 0.0
O941 O 0.56768 0.57435 0.4842 0.0
O942 O 0.65473 0.57543 0.48787 0.0
O943 O 0.63214 0.52796 0.49226 0.0
O944 O 0.66956 0.6364 0.4945 0.0
O945 O 0.61423 0.63128 0.48766 0.0
O946 O 0.65708 0.54816 0.51234 0.0
O947 O 0.68754 0.59308 0.51937 0.0
O948 O 0.58966 0.63997 0.50706 0.0
O949 O 0.64003 0.66178 0.51232 0.0
O950 O 0.59226 0.55656 0.52068 0.0
O951 O 0.61432 0.60482 0.52746 0.0
H952 H 0.5174 0.61829 0.50557 0.0
H953 H 0.47419 0.66348 0.50026 0.0
H954 H 0.4557 0.61068 0.46597 0.0
H955 H 0.49724 0.56502 0.47167 0.0
H956 H 0.68897 0.58295 0.5428 0.0
H957 H 0.69839 0.54678 0.56082 0.0
H958 H 0.68751 0.45282 0.53908 0.0
H959 H 0.67981 0.48904 0.52103 0.0
Pr960 Pr 0.35844 0.38272 0.25706 0.0
Pr961 Pr 0.33312 0.34848 0.25158 0.0
C962 C 0.33627 0.43964 0.26806 0.0
C963 C 0.32416 0.47076 0.27408 0.0
C964 C 0.34041 0.48056 0.28489 0.0
C965 C 0.33122 0.51206 0.29026 0.0
C966 C 0.30583 0.53397 0.28476 0.0
C967 C 0.28922 0.52385 0.27397 0.0
C968 C 0.2982 0.49191 0.26867 0.0
C969 C 0.42396 0.34918 0.25899 0.0
C970 C 0.33078 0.34357 0.2809 0.0
C971 C 0.30486 0.28665 0.24518 0.0
C972 C 0.32139 0.2525 0.24327 0.0
C973 C 0.34936 0.24142 0.25076 0.0
C974 C 0.37208 0.21492 0.24685 0.0
C975 C 0.36765 0.20001 0.23528 0.0
C976 C 0.33751 0.20898 0.2284 0.0
C977 C 0.31444 0.23485 0.23243 0.0
C978 C 0.29543 0.40306 0.23727 0.0
C979 C 0.3946 0.37037 0.23357 0.0
O980 O 0.31481 0.4134 0.26599 0.0
O981 O 0.36933 0.43591 0.2648 0.0
O982 O 0.39414 0.33253 0.25751 0.0
O983 O 0.41913 0.38313 0.25977 0.0
O984 O 0.30838 0.34191 0.2719 0.0
O985 O 0.36047 0.35688 0.27725 0.0
O986 O 0.30478 0.29824 0.25631 0.0
O987 O 0.31392 0.31051 0.23732 0.0
O988 O 0.32841 0.39714 0.23821 0.0
O989 O 0.28124 0.38369 0.24569 0.0
O990 O 0.3898 0.39807 0.24029 0.0
O991 O 0.37654 0.34231 0.23634 0.0
H992 H 0.36065 0.4642 0.28902 0.0
H993 H 0.34486 0.5199 0.29848 0.0
H994 H 0.26989 0.54077 0.26963 0.0
H995 H 0.2859 0.48428 0.26018 0.0
H996 H 0.35535 0.255 0.25916 0.0
H997 H 0.39463 0.20821 0.25245 0.0
H998 H 0.33335 0.19877 0.21933 0.0
H999 H 0.29321 0.24344 0.22651 0.0
Pr1000 Pr 0.48634 0.61379 1.00211 0.0
Pr1001 Pr 0.51987 0.58893 0.99666 0.0
C1002 C 0.43297 0.58662 1.01451 0.0
C1003 C 0.42397 0.57231 1.02642 0.0
C1004 C 0.40591 0.59304 1.03489 0.0
C1005 C 0.38992 0.57719 1.04483 0.0
C1006 C 0.39164 0.54053 1.04624 0.0
C1007 C 0.41269 0.52034 1.0385 0.0
C1008 C 0.42883 0.53615 1.02862 0.0
C1009 C 0.51909 0.6791 1.00425 0.0
C1010 C 0.52573 0.58479 1.02547 0.0
C1011 C 0.585 0.56576 0.99103 0.0
C1012 C 0.61664 0.58701 0.99008 0.0
C1013 C 0.65028 0.57217 0.99124 0.0
C1014 C 0.67996 0.59366 0.99056 0.0
C1015 C 0.67605 0.63013 0.9888 0.0
C1016 C 0.64201 0.64471 0.98812 0.0
C1017 C 0.61275 0.6234 0.98877 0.0
C1018 C 0.4679 0.55112 0.98161 0.0
C1019 C 0.49263 0.65211 0.97931 0.0
O1020 O 0.45552 0.5678 1.0083 0.0
O1021 O 0.43652 0.62074 1.01321 0.0
O1022 O 0.53591 0.64922 1.00283 0.0
O1023 O 0.48493 0.67454 1.00477 0.0
O1024 O 0.52041 0.56154 1.01693 0.0
O1025 O 0.5191 0.61591 1.02111 0.0
O1026 O 0.57205 0.56411 1.00195 0.0
O1027 O 0.56097 0.57219 0.98286 0.0
O1028 O 0.47193 0.58427 0.98303 0.0
O1029 O 0.48869 0.53651 0.9896 0.0
O1030 O 0.46613 0.6478 0.98663 0.0
O1031 O 0.52096 0.63314 0.98143 0.0
H1032 H 0.40188 0.62091 1.03338 0.0
H1033 H 0.37334 0.59315 1.05067 0.0
H1034 H 0.41412 0.49204 1.03949 0.0
H1035 H 0.44278 0.51946 1.02224 0.0
H1036 H 0.65356 0.5441 0.99249 0.0
H1037 H 0.70588 0.58172 0.99102 0.0
H1038 H 0.63778 0.67243 0.98635 0.0
H1039 H 0.58699 0.63539 0.98796 0.0
Pr1040 Pr 0.25357 0.72102 0.75629 0.0
Pr1041 Pr 0.27848 0.75625 0.75074 0.0
C1042 C 0.26962 0.66818 0.77098 0.0
C1043 C 0.26004 0.66616 0.78377 0.0
C1044 C 0.23057 0.68518 0.7879 0.0
C1045 C 0.21728 0.67934 0.79947 0.0
C1046 C 0.23262 0.65346 0.80684 0.0
C1047 C 0.26479 0.63782 0.80327 0.0
C1048 C 0.2784 0.6441 0.79171 0.0
C1049 C 0.18712 0.75329 0.75786 0.0
C1050 C 0.2806 0.76508 0.77935 0.0
C1051 C 0.30171 0.81993 0.7441 0.0
C1052 C 0.28119 0.8518 0.74176 0.0
C1053 C 0.25223 0.86041 0.74919 0.0
C1054 C 0.22718 0.88478 0.74522 0.0
C1055 C 0.23039 0.90033 0.73368 0.0
C1056 C 0.26069 0.89311 0.72665 0.0
C1057 C 0.28597 0.86932 0.73073 0.0
C1058 C 0.31817 0.70286 0.73656 0.0
C1059 C 0.21909 0.73253 0.73231 0.0
O1060 O 0.29284 0.69234 0.76829 0.0
O1061 O 0.24264 0.66716 0.76354 0.0
O1062 O 0.2168 0.77036 0.75677 0.0
O1063 O 0.19253 0.71941 0.75821 0.0
O1064 O 0.30451 0.76216 0.77088 0.0
O1065 O 0.2503 0.75487 0.77512 0.0
O1066 O 0.30233 0.8089 0.75533 0.0
O1067 O 0.29632 0.79475 0.73635 0.0
O1068 O 0.28501 0.70638 0.73789 0.0
O1069 O 0.3319 0.72439 0.74439 0.0
O1070 O 0.22507 0.70467 0.7389 0.0
O1071 O 0.23467 0.76142 0.73572 0.0
H1072 H 0.21601 0.70245 0.78186 0.0
H1073 H 0.1926 0.6917 0.80204 0.0
H1074 H 0.27714 0.61751 0.80876 0.0
H1075 H 0.30152 0.62978 0.78867 0.0
H1076 H 0.24771 0.84675 0.7577 0.0
H1077 H 0.20444 0.88995 0.75089 0.0
H1078 H 0.26382 0.90366 0.71756 0.0
H1079 H 0.30775 0.86247 0.7248 0.0
Pr1080 Pr 0.13767 0.4976 0.50245 0.0
Pr1081 Pr 0.10623 0.52456 0.49835 0.0
C1082 C 0.19515 0.51155 0.51537 0.0
C1083 C 0.20267 0.52272 0.52777 0.0
C1084 C 0.22785 0.50442 0.5346 0.0
C1085 C 0.24052 0.51902 0.54531 0.0
C1086 C 0.22789 0.55194 0.5492 0.0
C1087 C 0.20013 0.56832 0.54307 0.0
C1088 C 0.18791 0.55407 0.53232 0.0
C1089 C 0.10611 0.43213 0.50243 0.0
C1090 C 0.10137 0.52747 0.52642 0.0
C1091 C 1.04138 0.55249 0.49617 0.0
C1092 C 1.00869 0.53263 0.49668 0.0
C1093 C 0.98304 0.53846 0.48777 0.0
C1094 C 0.95957 0.51179 0.48488 0.0
C1095 C 0.96195 0.47906 0.49083 0.0
C1096 C 0.98452 0.47508 0.50082 0.0
C1097 C 1.00777 0.50179 0.50375 0.0
C1098 C 0.15725 0.5625 0.48268 0.0
C1099 C 0.11915 0.47065 0.47753 0.0
O1100 O 0.17871 0.53491 0.50869 0.0
O1101 O 0.18442 0.47929 0.51373 0.0
O1102 O 0.08957 0.46226 0.50374 0.0
O1103 O 0.13993 0.43674 0.50095 0.0
O1104 O 0.11276 0.55043 0.51858 0.0
O1105 O 0.10096 0.49717 0.52094 0.0
O1106 O 0.0592 0.55362 0.50628 0.0
O1107 O 0.0611 0.54505 0.48682 0.0
O1108 O 0.15451 0.5294 0.48439 0.0
O1109 O 0.13554 0.57686 0.49037 0.0
O1110 O 0.14797 0.4713 0.48395 0.0
O1111 O 0.09268 0.48881 0.48176 0.0
H1112 H 0.23951 0.4803 0.53121 0.0
H1113 H 0.26238 0.5062 0.54989 0.0
H1114 H 0.19018 0.59371 0.54598 0.0
H1115 H 0.16898 0.5693 0.52718 0.0
H1116 H 0.98368 0.56189 0.48215 0.0
H1117 H 0.94265 0.51534 0.47702 0.0
H1118 H 0.9868 0.45005 0.50549 0.0
H1119 H 1.0275 0.49662 0.51066 0.0
Pr1120 Pr 0.36398 0.72031 0.39307 0.0
Pr1121 Pr 0.33381 0.75204 0.39502 0.0
C1122 C 0.36029 0.65842 0.38213 0.0
C1123 C 0.36503 0.65308 0.36911 0.0
C1124 C 0.39249 0.67053 0.36303 0.0
C1125 C 0.38946 0.67841 0.3507 0.0
C1126 C 0.35857 0.66985 0.34448 0.0
C1127 C 0.33266 0.64978 0.35031 0.0
C1128 C 0.33614 0.64095 0.3625 0.0
C1129 C 0.42749 0.75548 0.39154 0.0
C1130 C 0.33532 0.75374 0.36712 0.0
C1131 C 0.29528 0.81136 0.39725 0.0
C1132 C 0.30788 0.84675 0.39964 0.0
C1133 C 0.2943 0.86452 0.40977 0.0
C1134 C 0.31596 0.8869 0.41633 0.0
C1135 C 0.35105 0.89147 0.41268 0.0
C1136 C 0.3622 0.87894 0.40134 0.0
C1137 C 0.34063 0.85654 0.39481 0.0
C1138 C 0.29947 0.69858 0.41094 0.0
C1139 C 0.38689 0.75565 0.41633 0.0
O1140 O 0.33221 0.67732 0.38459 0.0
O1141 O 0.38824 0.66778 0.38828 0.0
O1142 O 0.39637 0.76948 0.38922 0.0
O1143 O 0.42458 0.72267 0.39484 0.0
O1144 O 0.31011 0.74756 0.37477 0.0
O1145 O 0.36554 0.74956 0.37277 0.0
O1146 O 0.30378 0.79801 0.38674 0.0
O1147 O 0.30087 0.78956 0.4062 0.0
O1148 O 0.33036 0.71117 0.41134 0.0
O1149 O 0.28716 0.70958 0.40052 0.0
O1150 O 0.38657 0.72324 0.41253 0.0
O1151 O 0.36881 0.77826 0.40995 0.0
H1152 H 0.41495 0.68059 0.36796 0.0
H1153 H 0.41025 0.69277 0.34619 0.0
H1154 H 0.30921 0.64162 0.34552 0.0
H1155 H 0.31461 0.62777 0.36704 0.0
H1156 H 0.26912 0.85717 0.41361 0.0
H1157 H 0.30687 0.89643 0.42508 0.0
H1158 H 0.38912 0.88261 0.39836 0.0
H1159 H 0.3517 0.84319 0.38698 0.0
Pr1160 Pr 0.13111 0.60408 0.14575 0.0
Pr1161 Pr 0.10044 0.57707 0.14985 0.0
C1162 C 0.18643 0.58474 0.1324 0.0
C1163 C 0.18924 0.57293 0.11975 0.0
C1164 C 0.20627 0.59369 0.11109 0.0
C1165 C 0.21044 0.58131 0.09927 0.0
C1166 C 0.19722 0.54818 0.09596 0.0
C1167 C 0.17795 0.52872 0.10439 0.0
C1168 C 0.17481 0.54048 0.11625 0.0
C1169 C 0.09904 0.66939 0.14452 0.0
C1170 C 0.09356 0.57603 0.12177 0.0
C1171 C 1.03764 0.5454 0.15272 0.0
C1172 C 1.003 0.56196 0.15267 0.0
C1173 C 0.97315 0.54424 0.15674 0.0
C1174 C 0.9421 0.5631 0.15896 0.0
C1175 C 0.9413 0.6 0.15761 0.0
C1176 C 0.97053 0.61659 0.15229 0.0
C1177 C 1.00084 0.59764 0.14976 0.0
C1178 C 0.15342 0.54105 0.16552 0.0
C1179 C 0.11131 0.63365 0.17007 0.0
O1180 O 0.16953 0.56323 0.13954 0.0
O1181 O 0.17883 0.61795 0.1343 0.0
O1182 O 0.08245 0.63929 0.1447 0.0
O1183 O 0.13329 0.66497 0.14493 0.0
O1184 O 0.10514 0.5524 0.12939 0.0
O1185 O 0.0937 0.60605 0.12743 0.0
O1186 O 1.05409 0.54683 0.14237 0.0
O1187 O 1.0576 0.55442 0.16181 0.0
O1188 O 0.14694 0.57387 0.1644 0.0
O1189 O 0.1351 0.52622 0.15699 0.0
O1190 O 0.14076 0.63212 0.16398 0.0
O1191 O 0.08543 0.615 0.16581 0.0
H1192 H 0.21761 0.61869 0.11359 0.0
H1193 H 0.22626 0.59653 0.093 0.0
H1194 H 0.16761 0.50315 0.10205 0.0
H1195 H 0.16196 0.52335 0.12271 0.0
H1196 H 0.97439 0.51644 0.15882 0.0
H1197 H 0.91974 0.54914 0.16261 0.0
H1198 H 0.97181 0.64479 0.15115 0.0
H1199 H 1.02357 0.6115 0.14641 0.0
Pr1200 Pr 0.25925 0.39019 0.89132 0.0
Pr1201 Pr 0.28506 0.35618 0.89753 0.0
C1202 C 0.26944 0.43984 0.87475 0.0
C1203 C 0.26167 0.43735 0.86183 0.0
C1204 C 0.23425 0.41553 0.8579 0.0
C1205 C 0.22156 0.41835 0.84608 0.0
C1206 C 0.2354 0.44398 0.83833 0.0
C1207 C 0.26662 0.46135 0.84168 0.0
C1208 C 0.27951 0.45829 0.85349 0.0
C1209 C 0.19366 0.35578 0.89205 0.0
C1210 C 0.28762 0.34563 0.86915 0.0
C1211 C 0.30713 0.29134 0.90388 0.0
C1212 C 0.28682 0.25901 0.90484 0.0
C1213 C 0.25776 0.25377 0.89715 0.0
C1214 C 0.23311 0.22805 0.8999 0.0
C1215 C 0.23697 0.20755 0.91045 0.0
C1216 C 0.26753 0.21117 0.9176 0.0
C1217 C 0.29229 0.23674 0.91479 0.0
C1218 C 0.32673 0.40899 0.91086 0.0
C1219 C 0.23052 0.3894 0.9164 0.0
O1220 O 0.29542 0.41997 0.87858 0.0
O1221 O 0.24167 0.4394 0.8818 0.0
O1222 O 0.2243 0.34005 0.89134 0.0
O1223 O 0.19758 0.38972 0.89261 0.0
O1224 O 0.31147 0.3542 0.87716 0.0
O1225 O 0.25666 0.35043 0.87397 0.0
O1226 O 0.31085 0.30405 0.89295 0.0
O1227 O 0.29873 0.31531 0.9118 0.0
O1228 O 0.29368 0.40903 0.90872 0.0
O1229 O 0.33973 0.3834 0.90443 0.0
O1230 O 0.23443 0.41363 0.9082 0.0
O1231 O 0.24504 0.35884 0.91405 0.0
H1232 H 0.22037 0.3988 0.86423 0.0
H1233 H 0.19774 0.40454 0.84366 0.0
H1234 H 0.27809 0.48117 0.83584 0.0
H1235 H 0.30129 0.47451 0.85637 0.0
H1236 H 0.25283 0.27101 0.88946 0.0
H1237 H 0.20991 0.22577 0.89422 0.0
H1238 H 0.27097 0.19634 0.92595 0.0
H1239 H 0.31428 0.24083 0.92091 0.0
Pr1240 Pr 0.47874 0.49882 0.64542 0.0
Pr1241 Pr 0.50651 0.52571 0.64785 0.0
C1242 C 0.41959 0.51326 0.63297 0.0
C1243 C 0.415 0.5348 0.62197 0.0
C1244 C 0.40803 0.51906 0.61075 0.0
C1245 C 0.40434 0.5398 0.60036 0.0
C1246 C 0.40782 0.57659 0.60106 0.0
C1247 C 0.41687 0.592 0.61215 0.0
C1248 C 0.41979 0.57147 0.62254 0.0
C1249 C 0.50954 0.43276 0.64413 0.0
C1250 C 0.50969 0.52713 0.62047 0.0
C1251 C 0.56924 0.55804 0.6488 0.0
C1252 C 0.60306 0.53941 0.64862 0.0
C1253 C 0.6266 0.54468 0.65822 0.0
C1254 C 0.64942 0.51767 0.6617 0.0
C1255 C 0.64877 0.48522 0.65558 0.0
C1256 C 0.62903 0.48206 0.64488 0.0
C1257 C 0.60635 0.50907 0.64138 0.0
C1258 C 0.45686 0.56251 0.66461 0.0
C1259 C 0.50596 0.47003 0.66878 0.0
O1260 O 0.42957 0.53065 0.64248 0.0
O1261 O 0.43603 0.48323 0.63188 0.0
O1262 O 0.52548 0.46291 0.64254 0.0
O1263 O 0.4762 0.43777 0.64671 0.0
O1264 O 0.49253 0.54855 0.62753 0.0
O1265 O 0.5174 0.49994 0.62721 0.0
O1266 O 0.5508 0.55646 0.63887 0.0
O1267 O 0.55039 0.55166 0.65842 0.0
O1268 O 0.46571 0.53006 0.66415 0.0
O1269 O 0.47081 0.57616 0.65489 0.0
O1270 O 0.47488 0.46947 0.66376 0.0
O1271 O 0.52901 0.49017 0.66355 0.0
H1272 H 0.40459 0.4909 0.61007 0.0
H1273 H 0.39653 0.52715 0.59197 0.0
H1274 H 0.41986 0.62019 0.61291 0.0
H1275 H 0.42579 0.58459 0.63102 0.0
H1276 H 0.62425 0.56771 0.66396 0.0
H1277 H 0.66425 0.52075 0.67005 0.0
H1278 H 0.62837 0.4574 0.63997 0.0
H1279 H 0.58849 0.50428 0.63389 0.0
C1280 C 0.22661 0.45479 0.42178 0.0
C1281 C 0.21767 0.42745 0.41389 0.0
C1282 C 0.20232 0.46696 0.43034 0.0
C1283 C 0.1679 0.45329 0.43022 0.0
C1284 C 0.15678 0.43183 0.42059 0.0
C1285 C 0.1821 0.41807 0.41264 0.0
C1286 C 0.21487 0.49039 0.44047 0.0
C1287 C 0.11926 0.4196 0.41978 0.0
C1288 C 0.14071 0.43047 0.46198 0.0
C1289 C 0.12072 0.45999 0.46496 0.0
C1290 C 0.15402 0.42661 0.45025 0.0
C1291 C 0.14744 0.45348 0.44155 0.0
C1292 C 0.12453 0.48172 0.44427 0.0
C1293 C 0.11098 0.48445 0.45604 0.0
C1294 C 0.1778 0.39555 0.44757 0.0
C1295 C 0.117 0.5108 0.43527 0.0
H1296 H 0.25368 0.46347 0.42229 0.0
H1297 H 0.17442 0.39745 0.40642 0.0
H1298 H 0.1974 0.51372 0.44127 0.0
H1299 H 0.21401 0.47606 0.44928 0.0
H1300 H 0.2423 0.49909 0.43892 0.0
H1301 H 0.1121 0.41401 0.41021 0.0
H1302 H 0.11622 0.39543 0.42534 0.0
H1303 H 0.10058 0.43955 0.42338 0.0
H1304 H 0.14816 0.41193 0.46906 0.0
H1305 H 0.09595 0.50766 0.45856 0.0
H1306 H 0.20497 0.40477 0.44581 0.0
H1307 H 0.16863 0.3817 0.4393 0.0
H1308 H 0.17869 0.3764 0.45522 0.0
H1309 H 0.11703 0.50109 0.42575 0.0
H1310 H 0.13768 0.5311 0.43607 0.0
H1311 H 0.09124 0.52363 0.43718 0.0
C1312 C 0.92431 0.96083 0.67675 0.0
C1313 C 0.95437 0.95667 0.66959 0.0
C1314 C 0.91719 0.93725 0.68615 0.0
C1315 C 0.9402 0.90837 0.6881 0.0
C1316 C 0.96868 0.9021 0.68015 0.0
C1317 C 0.97568 0.92661 0.67099 0.0
C1318 C 0.88702 0.94524 0.69467 0.0
C1319 C 0.99364 0.87152 0.68204 0.0
C1320 C 0.94061 0.89052 0.72142 0.0
C1321 C 0.91379 0.86575 0.72211 0.0
C1322 C 0.9527 0.90197 0.71014 0.0
C1323 C 0.93705 0.8883 0.69947 0.0
C1324 C 0.91308 0.86016 0.70019 0.0
C1325 C 0.90184 0.84886 0.71164 0.0
C1326 C 0.97868 0.93183 0.7097 0.0
C1327 C 0.89607 0.84506 0.68897 0.0
H1328 H 0.90777 0.98392 0.67555 0.0
H1329 H 0.99934 0.92354 0.66557 0.0
H1330 H 0.86992 0.92194 0.69569 0.0
H1331 H 0.89732 0.95188 0.70383 0.0
H1332 H 0.87094 0.96778 0.69138 0.0
H1333 H 1.01231 0.87785 0.68947 0.0
H1334 H 0.97924 0.84748 0.68474 0.0
H1335 H 1.00918 0.86591 0.67369 0.0
H1336 H 0.94993 0.90309 0.72967 0.0
H1337 H 0.88098 0.82964 0.71231 0.0
H1338 H 0.9647 0.95649 0.70717 0.0
H1339 H 0.99917 0.92689 0.70272 0.0
H1340 H 0.99179 0.93592 0.71863 0.0
H1341 H 0.87525 0.86338 0.6857 0.0
H1342 H 0.88375 0.81924 0.69087 0.0
H1343 H 0.91558 0.84189 0.68153 0.0
C1344 C 0.40302 0.71529 0.91848 0.0
C1345 C 0.37015 0.69973 0.92045 0.0
C1346 C 0.43062 0.70996 0.92667 0.0
C1347 C 0.42496 0.68832 0.9369 0.0
C1348 C 0.39252 0.67073 0.93852 0.0
C1349 C 0.36524 0.67693 0.93026 0.0
C1350 C 0.46453 0.72988 0.92496 0.0
C1351 C 0.3856 0.64757 0.94944 0.0
C1352 C 0.49492 0.65134 0.95721 0.0
C1353 C 0.48722 0.66986 0.96784 0.0
C1354 C 0.47666 0.65898 0.94651 0.0
C1355 C 0.45145 0.68644 0.94659 0.0
C1356 C 0.44757 0.70839 0.95689 0.0
C1357 C 0.46535 0.69943 0.96755 0.0
C1358 C 0.48092 0.63485 0.93571 0.0
C1359 C 0.4216 0.73862 0.95712 0.0
H1360 H 0.40634 0.73377 0.91104 0.0
H1361 H 0.33957 0.66547 0.93179 0.0
H1362 H 0.46522 0.75219 0.93143 0.0
H1363 H 0.48773 0.71295 0.92693 0.0
H1364 H 0.46701 0.74056 0.91558 0.0
H1365 H 0.36189 0.63108 0.94816 0.0
H1366 H 0.40849 0.6302 0.95133 0.0
H1367 H 0.38136 0.66423 0.95759 0.0
H1368 H 0.51166 0.62815 0.95763 0.0
H1369 H 0.45972 0.7135 0.97592 0.0
H1370 H 0.48308 0.6502 0.92716 0.0
H1371 H 0.45728 0.61808 0.93492 0.0
H1372 H 0.50442 0.6175 0.93661 0.0
H1373 H 0.42635 0.75644 0.96495 0.0
H1374 H 0.39449 0.72824 0.95792 0.0
H1375 H 0.423 0.75409 0.94857 0.0
C1376 C 0.74038 0.25718 0.20934 0.0
C1377 C 0.71432 0.25252 0.21816 0.0
C1378 C 0.73638 0.24257 0.19777 0.0
C1379 C 0.70489 0.22471 0.195 0.0
C1380 C 0.67645 0.22505 0.20334 0.0
C1381 C 0.68184 0.23836 0.21501 0.0
C1382 C 0.767 0.2434 0.18901 0.0
C1383 C 0.64183 0.20769 0.20045 0.0
C1384 C 0.6846 0.18618 0.16428 0.0
C1385 C 0.68462 0.15002 0.16715 0.0
C1386 C 0.69246 0.21137 0.17312 0.0
C1387 C 0.70375 0.20006 0.18469 0.0
C1388 C 0.71019 0.16401 0.18693 0.0
C1389 C 0.69954 0.13937 0.1783 0.0
C1390 C 0.68494 0.2496 0.17042 0.0
C1391 C 0.72535 0.15115 0.19888 0.0
H1392 H 0.76559 0.26801 0.21197 0.0
H1393 H 0.66193 0.23478 0.22198 0.0
H1394 H 0.76139 0.26269 0.18168 0.0
H1395 H 0.79183 0.25124 0.19357 0.0
H1396 H 0.77107 0.21745 0.18465 0.0
H1397 H 0.62073 0.21602 0.20686 0.0
H1398 H 0.63344 0.214 0.19101 0.0
H1399 H 0.64493 0.17875 0.20116 0.0
H1400 H 0.67611 0.19534 0.15542 0.0
H1401 H 0.70083 0.11199 0.18086 0.0
H1402 H 0.70267 0.26735 0.17547 0.0
H1403 H 0.65761 0.25581 0.17331 0.0
H1404 H 0.68724 0.25533 0.16054 0.0
H1405 H 0.73539 0.12374 0.1982 0.0
H1406 H 0.70463 0.15193 0.20599 0.0
H1407 H 0.74719 0.16825 0.2019 0.0
C1408 C 0.23177 0.66698 0.21932 0.0
C1409 C 0.22263 0.67886 0.231 0.0
C1410 C 0.20613 0.65546 0.21122 0.0
C1411 C 0.17036 0.65724 0.21473 0.0
C1412 C 0.16108 0.66561 0.22679 0.0
C1413 C 0.18759 0.67512 0.23496 0.0
C1414 C 0.21736 0.6452 0.19849 0.0
C1415 C 0.12304 0.66756 0.23071 0.0
C1416 C 0.12327 0.67713 0.18585 0.0
C1417 C 0.11223 0.64358 0.18272 0.0
C1418 C 0.13783 0.68312 0.1973 0.0
C1419 C 0.14321 0.65423 0.20528 0.0
C1420 C 0.12878 0.62104 0.20254 0.0
C1421 C 0.11241 0.61643 0.1913 0.0
C1422 C 0.15117 0.71938 0.20026 0.0
C1423 C 0.13306 0.58952 0.21082 0.0
H1424 H 0.25841 0.66942 0.21597 0.0
H1425 H 0.18032 0.68229 0.24416 0.0
H1426 H 0.19985 0.62503 0.19456 0.0
H1427 H 0.21625 0.66868 0.1925 0.0
H1428 H 0.24481 0.63495 0.19839 0.0
H1429 H 0.12019 0.67369 0.24054 0.0
H1430 H 0.10914 0.68821 0.22536 0.0
H1431 H 0.10982 0.64229 0.22881 0.0
H1432 H 0.12301 0.69785 0.17904 0.0
H1433 H 0.10383 0.5904 0.18866 0.0
H1434 H 0.17995 0.72039 0.19861 0.0
H1435 H 0.14645 0.72573 0.20999 0.0
H1436 H 0.13834 0.7398 0.1945 0.0
H1437 H 0.10928 0.58737 0.21663 0.0
H1438 H 0.15631 0.59133 0.21688 0.0
H1439 H 0.13522 0.56485 0.20549 0.0
C1440 C 0.74819 0.83852 0.43666 0.0
C1441 C 0.72268 0.84445 0.42773 0.0
C1442 C 0.74171 0.84869 0.44868 0.0
C1443 C 0.70876 0.86398 0.45156 0.0
C1444 C 0.68111 0.86408 0.4429 0.0
C1445 C 0.68873 0.85492 0.43091 0.0
C1446 C 0.77182 0.84857 0.45762 0.0
C1447 C 0.64512 0.87894 0.44579 0.0
C1448 C 0.67923 0.90178 0.48138 0.0
C1449 C 0.68097 0.93777 0.4786 0.0
C1450 C 0.69123 0.87664 0.47306 0.0
C1451 C 0.70589 0.88813 0.46196 0.0
C1452 C 0.71208 0.92435 0.45991 0.0
C1453 C 0.69956 0.94878 0.46832 0.0
C1454 C 0.68408 0.83831 0.4755 0.0
C1455 C 0.72715 0.93797 0.44809 0.0
H1456 H 0.77459 0.8307 0.43399 0.0
H1457 H 0.66923 0.85929 0.42383 0.0
H1458 H 0.76249 0.84324 0.46701 0.0
H1459 H 0.79217 0.82876 0.45513 0.0
H1460 H 0.78432 0.87482 0.45758 0.0
H1461 H 0.62529 0.87118 0.43888 0.0
H1462 H 0.63617 0.86998 0.45488 0.0
H1463 H 0.64637 0.90805 0.44595 0.0
H1464 H 0.66537 0.89328 0.48948 0.0
H1465 H 0.7008 0.97649 0.46606 0.0
H1466 H 0.70434 0.82105 0.47131 0.0
H1467 H 0.65823 0.83137 0.47149 0.0
H1468 H 0.6829 0.83282 0.48543 0.0
H1469 H 0.73905 0.96433 0.44926 0.0
H1470 H 0.70571 0.94039 0.44127 0.0
H1471 H 0.74732 0.91987 0.44437 0.0
C1472 C 0.52495 0.47586 0.68993 0.0
C1473 C 0.51202 0.45453 0.68064 0.0
C1474 C 0.5162 0.46868 0.70203 0.0
C1475 C 0.495 0.43923 0.70457 0.0
C1476 C 0.48803 0.41419 0.69534 0.0
C1477 C 0.49624 0.42257 0.68333 0.0
C1478 C 0.52449 0.49577 0.71158 0.0
C1479 C 0.46642 0.38174 0.69775 0.0
C1480 C 0.45015 0.40721 0.73251 0.0
C1481 C 0.41579 0.41962 0.73015 0.0
C1482 C 0.47838 0.41836 0.72528 0.0
C1483 C 0.47129 0.4399 0.71515 0.0
C1484 C 0.43777 0.45581 0.71376 0.0
C1485 C 0.41094 0.44703 0.7218 0.0
C1486 C 0.51484 0.40399 0.7275 0.0
C1487 C 0.4287 0.47777 0.70274 0.0
H1488 H 0.53748 0.50056 0.68768 0.0
H1489 H 0.48696 0.40604 0.67598 0.0
H1490 H 0.5249 0.48432 0.72087 0.0
H1491 H 0.55028 0.50823 0.7097 0.0
H1492 H 0.50405 0.51675 0.71132 0.0
H1493 H 0.46782 0.36289 0.69005 0.0
H1494 H 0.4755 0.36823 0.70615 0.0
H1495 H 0.43843 0.38942 0.69908 0.0
H1496 H 0.45467 0.38653 0.73913 0.0
H1497 H 0.38488 0.45815 0.72043 0.0
H1498 H 0.53492 0.42449 0.72589 0.0
H1499 H 0.52036 0.38244 0.72098 0.0
H1500 H 0.5177 0.39402 0.73693 0.0
H1501 H 0.40242 0.49043 0.70352 0.0
H1502 H 0.42846 0.46096 0.6945 0.0
H1503 H 0.44901 0.49806 0.70139 0.0
C1504 C 1.00236 0.11505 0.95855 0.0
C1505 C 0.98425 0.08382 0.95622 0.0
C1506 C 0.99218 0.14654 0.95305 0.0
C1507 C 0.96326 0.14644 0.94501 0.0
C1508 C 0.94513 0.11478 0.94248 0.0
C1509 C 0.95568 0.08372 0.94828 0.0
C1510 C 1.01241 0.17954 0.95596 0.0
C1511 C 0.9145 0.11373 0.9337 0.0
C1512 C 0.90539 0.22128 0.93529 0.0
C1513 C 0.91744 0.22551 0.9234 0.0
C1514 C 0.92299 0.19826 0.9432 0.0
C1515 C 0.9523 0.17892 0.9388 0.0
C1516 C 0.967 0.18674 0.92734 0.0
C1517 C 0.94935 0.2104 0.9198 0.0
C1518 C 0.90786 0.19161 0.95568 0.0
C1519 C 0.99828 0.16663 0.92236 0.0
H1520 H 1.02351 0.11512 0.96517 0.0
H1521 H 0.94137 0.05956 0.94681 0.0
H1522 H 1.03454 0.18216 0.94944 0.0
H1523 H 0.99574 0.20351 0.95527 0.0
H1524 H 1.02393 0.17825 0.96525 0.0
H1525 H 0.90434 0.08669 0.93242 0.0
H1526 H 0.89269 0.13056 0.9371 0.0
H1527 H 0.92259 0.12425 0.9247 0.0
H1528 H 0.88032 0.23274 0.93794 0.0
H1529 H 0.9579 0.21324 0.9105 0.0
H1530 H 0.92925 0.18898 0.96251 0.0
H1531 H 0.89298 0.16664 0.95561 0.0
H1532 H 0.88964 0.21304 0.95851 0.0
H1533 H 1.02047 0.16731 0.92891 0.0
H1534 H 1.00742 0.17731 0.9135 0.0
H1535 H 0.9911 0.13867 0.92105 0.0
C1536 C 0.88814 0.6597 0.71744 0.0
C1537 C 0.89822 0.66978 0.7292 0.0
C1538 C 0.91329 0.65127 0.70869 0.0
C1539 C 0.94939 0.6536 0.71174 0.0
C1540 C 0.9598 0.6602 0.72384 0.0
C1541 C 0.93388 0.66721 0.73256 0.0
C1542 C 0.90095 0.64408 0.69584 0.0
C1543 C 0.99803 0.66406 0.72732 0.0
C1544 C 1.00329 0.61674 0.68652 0.0
C1545 C 1.00176 0.64521 0.67848 0.0
C1546 C 0.98944 0.61983 0.69821 0.0
C1547 C 0.97542 0.65259 0.70187 0.0
C1548 C 0.97913 0.68267 0.69437 0.0
C1549 C 0.9914 0.67837 0.68248 0.0
C1550 C 0.98495 0.58709 0.70581 0.0
C1551 C 0.96598 0.71839 0.6983 0.0
H1552 H 0.8609 0.66171 0.7146 0.0
H1553 H 0.94189 0.67389 0.74173 0.0
H1554 H 0.90148 0.66885 0.69049 0.0
H1555 H 0.91823 0.62478 0.69118 0.0
H1556 H 0.87353 0.63413 0.6957 0.0
H1557 H 1.00216 0.65883 0.73717 0.0
H1558 H 1.01543 0.6464 0.72198 0.0
H1559 H 1.00624 0.69146 0.72543 0.0
H1560 H 1.0109 0.591 0.68315 0.0
H1561 H 0.99026 0.7001 0.67609 0.0
H1562 H 0.99253 0.59197 0.7154 0.0
H1563 H 1.00072 0.56466 0.70226 0.0
H1564 H 0.95684 0.57949 0.70578 0.0
H1565 H 0.93693 0.71965 0.69733 0.0
H1566 H 0.97745 0.73968 0.69265 0.0
H1567 H 0.97248 0.72318 0.708 0.0
C1568 C 0.20109 0.15263 0.47982 0.0
C1569 C 0.16784 0.15186 0.48523 0.0
C1570 C 0.20773 0.17555 0.47016 0.0
C1571 C 0.18023 0.19768 0.4659 0.0
C1572 C 0.14843 0.20053 0.47245 0.0
C1573 C 0.14257 0.17749 0.48214 0.0
C1574 C 0.24225 0.17235 0.46343 0.0
C1575 C 0.11878 0.22411 0.46815 0.0
C1576 C 0.20571 0.24955 0.43818 0.0
C1577 C 0.19843 0.22484 0.42912 0.0
C1578 C 0.1974 0.24246 0.45032 0.0
C1579 C 0.18153 0.21011 0.45324 0.0
C1580 C 0.17079 0.18687 0.4439 0.0
C1581 C 0.17929 0.19472 0.43188 0.0
C1582 C 0.20866 0.26802 0.46002 0.0
C1583 C 0.15344 0.15211 0.44665 0.0
H1584 H 0.22062 0.13299 0.48234 0.0
H1585 H 0.11669 0.1769 0.4863 0.0
H1586 H 0.23804 0.15774 0.45483 0.0
H1587 H 0.25253 0.19863 0.46101 0.0
H1588 H 0.2624 0.15815 0.46891 0.0
H1589 H 0.12899 0.24968 0.46488 0.0
H1590 H 0.10507 0.21147 0.4604 0.0
H1591 H 0.09916 0.22887 0.47547 0.0
H1592 H 0.22036 0.27305 0.43596 0.0
H1593 H 0.17325 0.17598 0.42477 0.0
H1594 H 0.23466 0.25972 0.46367 0.0
H1595 H 0.18973 0.26863 0.4677 0.0
H1596 H 0.21135 0.295 0.45627 0.0
H1597 H 0.17243 0.1345 0.45139 0.0
H1598 H 0.14432 0.13865 0.43826 0.0
H1599 H 0.13053 0.15596 0.45276 0.0
C1600 C 0.66431 0.49076 0.18438 0.0
C1601 C 0.63632 0.47404 0.17861 0.0
C1602 C 0.67403 0.48158 0.19611 0.0
C1603 C 0.6557 0.45419 0.20197 0.0
C1604 C 0.62484 0.44002 0.19672 0.0
C1605 C 0.61524 0.45039 0.18493 0.0
C1606 C 0.70686 0.49779 0.20144 0.0
C1607 C 0.60442 0.41133 0.20293 0.0
C1608 C 0.72462 0.39759 0.21611 0.0
C1609 C 0.72508 0.41068 0.22799 0.0
C1610 C 0.69967 0.40935 0.20777 0.0
C1611 C 0.6746 0.43481 0.21149 0.0
C1612 C 0.67333 0.44633 0.2237 0.0
C1613 C 0.69881 0.43398 0.2319 0.0
C1614 C 0.70206 0.39655 0.19474 0.0
C1615 C 0.64675 0.47332 0.2279 0.0
H1616 H 0.6801 0.50961 0.17943 0.0
H1617 H 0.59321 0.43812 0.18036 0.0
H1618 H 0.70263 0.50501 0.2111 0.0
H1619 H 0.72884 0.47844 0.2011 0.0
H1620 H 0.71508 0.52165 0.19637 0.0
H1621 H 0.61759 0.3857 0.20122 0.0
H1622 H 0.60355 0.41547 0.21292 0.0
H1623 H 0.57709 0.40984 0.19937 0.0
H1624 H 0.74421 0.3784 0.21328 0.0
H1625 H 0.69885 0.44325 0.24123 0.0
H1626 H 0.71131 0.4182 0.18879 0.0
H1627 H 0.67586 0.38837 0.19139 0.0
H1628 H 0.72062 0.37405 0.19375 0.0
H1629 H 0.65713 0.50001 0.22613 0.0
H1630 H 0.64171 0.47096 0.23783 0.0
H1631 H 0.62145 0.47082 0.22293 0.0
C1632 C 0.41641 0.89289 0.93416 0.0
C1633 C 0.38791 0.87169 0.93128 0.0
C1634 C 0.42169 0.90391 0.94608 0.0
C1635 C 0.3975 0.89341 0.95521 0.0
C1636 C 0.3704 0.86945 0.95247 0.0
C1637 C 0.36596 0.85865 0.9404 0.0
C1638 C 0.45139 0.92914 0.94862 0.0
C1639 C 0.34433 0.85747 0.96192 0.0
C1640 C 0.44097 0.92424 0.98306 0.0
C1641 C 0.42984 0.95952 0.98267 0.0
C1642 C 0.42535 0.89938 0.97546 0.0
C1643 C 0.39934 0.91073 0.96716 0.0
C1644 C 0.38368 0.94432 0.96842 0.0
C1645 C 0.39874 0.96825 0.97648 0.0
C1646 C 0.44091 0.86286 0.97483 0.0
C1647 C 0.35528 0.95705 0.95983 0.0
H1648 H 0.43307 0.90283 0.92692 0.0
H1649 H 0.34353 0.84265 0.93798 0.0
H1650 H 0.46855 0.91862 0.95596 0.0
H1651 H 0.46797 0.93394 0.94045 0.0
H1652 H 0.44057 0.95474 0.95173 0.0
H1653 H 0.33433 0.83086 0.95973 0.0
H1654 H 0.35595 0.85701 0.97118 0.0
H1655 H 0.32146 0.87577 0.96195 0.0
H1656 H 0.46455 0.91682 0.98802 0.0
H1657 H 0.38921 0.99517 0.97662 0.0
H1658 H 0.46537 0.86343 0.96931 0.0
H1659 H 0.4225 0.84388 0.97065 0.0
H1660 H 0.44781 0.85337 0.98409 0.0
H1661 H 0.36644 0.96033 0.95055 0.0
H1662 H 0.34406 0.98271 0.96272 0.0
H1663 H 0.33384 0.93753 0.95924 0.0
C1664 C 0.91733 0.42506 0.91798 0.0
C1665 C 0.88157 0.43218 0.92014 0.0
C1666 C 0.94286 0.43487 0.92642 0.0
C1667 C 0.93204 0.45162 0.93724 0.0
C1668 C 0.89657 0.46226 0.93885 0.0
C1669 C 0.87168 0.45264 0.93015 0.0
C1670 C 0.98067 0.42382 0.92441 0.0
C1671 C 0.88419 0.48034 0.95034 0.0
C1672 C 0.97095 0.42918 0.96755 0.0
C1673 C 0.98744 0.46068 0.97031 0.0
C1674 C 0.95553 0.42448 0.95616 0.0
C1675 C 0.95606 0.45261 0.94769 0.0
C1676 C 0.97562 0.4832 0.95009 0.0
C1677 C 0.9918 0.4866 0.96142 0.0
C1678 C 0.93526 0.39118 0.95381 0.0
C1679 C 0.97596 0.51387 0.94136 0.0
H1680 H 0.92514 0.409 0.91029 0.0
H1681 H 0.84408 0.45857 0.93169 0.0
H1682 H 0.99899 0.44468 0.9274 0.0
H1683 H 0.9865 0.4 0.92992 0.0
H1684 H 0.98597 0.41761 0.9147 0.0
H1685 H 0.88523 0.46146 0.95806 0.0
H1686 H 0.90162 0.50259 0.95265 0.0
H1687 H 0.85676 0.49038 0.94951 0.0
H1688 H 0.96733 0.40966 0.97465 0.0
H1689 H 1.00416 0.51123 0.96381 0.0
H1690 H 0.94158 0.38059 0.94466 0.0
H1691 H 0.9066 0.39702 0.95403 0.0
H1692 H 0.94105 0.37057 0.96072 0.0
H1693 H 0.99712 0.53279 0.94358 0.0
H1694 H 0.95036 0.52801 0.94186 0.0
H1695 H 0.97942 0.50477 0.93184 0.0
C1696 C 0.45346 0.07004 0.6923 0.0
C1697 C 0.48627 0.07007 0.68663 0.0
C1698 C 0.44382 0.09772 0.69995 0.0
C1699 C 0.46758 0.12577 0.7017 0.0
C1700 C 0.50022 0.12641 0.69571 0.0
C1701 C 0.50928 0.09831 0.68825 0.0
C1702 C 0.40844 0.09689 0.70622 0.0
C1703 C 0.5258 0.15632 0.69714 0.0
C1704 C 0.42222 0.20281 0.7157 0.0
C1705 C 0.42656 0.19392 0.72793 0.0
C1706 C 0.43832 0.18235 0.70679 0.0
C1707 C 0.45887 0.15314 0.71047 0.0
C1708 C 0.46749 0.14763 0.72282 0.0
C1709 C 0.45086 0.16824 0.73152 0.0
C1710 C 0.43071 0.18986 0.69355 0.0
C1711 C 0.49138 0.11794 0.72686 0.0
H1712 H 0.43551 1.04854 0.69069 0.0
H1713 H 0.53392 0.09893 0.68333 0.0
H1714 H 0.41227 0.09582 0.71624 0.0
H1715 H 0.39337 0.12126 0.70415 0.0
H1716 H 0.39248 0.07396 0.70341 0.0
H1717 H 0.54797 0.14747 0.70298 0.0
H1718 H 0.53643 0.16376 0.6881 0.0
H1719 H 0.5141 0.18021 0.70129 0.0
H1720 H 0.40358 0.2232 0.7131 0.0
H1721 H 0.45459 0.1624 0.74112 0.0
H1722 H 0.4128 0.16951 0.68992 0.0
H1723 H 0.4554 0.18876 0.68816 0.0
H1724 H 0.41811 0.21603 0.69223 0.0
H1725 H 0.4788 0.0924 0.72481 0.0
H1726 H 0.49719 0.11896 0.73677 0.0
H1727 H 0.51659 0.11889 0.72177 0.0
C1728 C 0.73748 0.67937 0.42798 0.0
C1729 C 0.73566 0.71175 0.42207 0.0
C1730 C 0.71799 0.67361 0.43854 0.0
C1731 C 0.69687 0.7012 0.44325 0.0
C1732 C 0.69419 0.73368 0.43713 0.0
C1733 C 0.71371 0.73858 0.42652 0.0
C1734 C 0.72121 0.63856 0.44492 0.0
C1735 C 0.67261 0.76387 0.44214 0.0
C1736 C 0.63274 0.66795 0.4662 0.0
C1737 C 0.65362 0.66924 0.47667 0.0
C1738 C 0.64544 0.68101 0.45521 0.0
C1739 C 0.67922 0.69618 0.45496 0.0
C1740 C 0.69838 0.70144 0.46582 0.0
C1741 C 0.68533 0.68756 0.47664 0.0
C1742 C 0.62443 0.67521 0.44372 0.0
C1743 C 0.73412 0.71856 0.46583 0.0
H1744 H 0.7549 0.65905 0.42451 0.0
H1745 H 0.71321 0.764 0.42203 0.0
H1746 H 0.734 0.64198 0.45392 0.0
H1747 H 0.69473 0.62739 0.44656 0.0
H1748 H 0.73706 0.61949 0.43956 0.0
H1749 H 0.66609 0.78338 0.43495 0.0
H1750 H 0.64774 0.75464 0.44631 0.0
H1751 H 0.68792 0.77732 0.44934 0.0
H1752 H 0.60798 0.65397 0.46632 0.0
H1753 H 0.70101 0.68899 0.48488 0.0
H1754 H 0.6372 0.65421 0.43826 0.0
H1755 H 0.62384 0.69941 0.43808 0.0
H1756 H 0.59695 0.66722 0.44571 0.0
H1757 H 0.75363 0.70069 0.46151 0.0
H1758 H 0.74332 0.72459 0.47519 0.0
H1759 H 0.73345 0.74322 0.46043 0.0
C1760 C 0.17349 0.91252 0.22008 0.0
C1761 C 0.20396 0.89188 0.21984 0.0
C1762 C 0.16344 0.93153 0.20979 0.0
C1763 C 0.1851 0.93003 0.19933 0.0
C1764 C 0.21403 0.90657 0.19875 0.0
C1765 C 0.22281 0.88706 0.20908 0.0
C1766 C 0.1319 0.95583 0.21057 0.0
C1767 C 0.23825 0.90536 0.18787 0.0
C1768 C 0.15043 0.97485 0.17137 0.0
C1769 C 0.16355 1.0088 0.173 0.0
C1770 C 0.15818 0.94835 0.17974 0.0
C1771 C 0.18007 0.9562 0.18971 0.0
C1772 C 0.19493 0.99004 0.19103 0.0
C1773 C 0.18593 1.01632 0.18268 0.0
C1774 C 0.14102 0.91286 0.17841 0.0
C1775 C 0.21814 0.99938 0.2017 0.0
H1776 H 0.15933 0.91607 0.22857 0.0
H1777 H 0.24684 0.87147 0.20915 0.0
H1778 H 0.14094 0.98338 0.21136 0.0
H1779 H 0.11564 0.95402 0.2022 0.0
H1780 H 0.11512 0.94984 0.21858 0.0
H1781 H 0.25637 0.88235 0.1882 0.0
H1782 H 0.22299 0.90448 0.17927 0.0
H1783 H 0.25431 0.9296 0.18768 0.0
H1784 H 0.13219 0.9697 0.16399 0.0
H1785 H 0.19518 1.04294 0.18396 0.0
H1786 H 0.1225 0.90855 0.18607 0.0
H1787 H 0.16109 0.89159 0.17883 0.0
H1788 H 0.12624 0.91054 0.16972 0.0
H1789 H 0.23493 1.02239 0.19961 0.0
H1790 H 0.23529 0.97703 0.20444 0.0
H1791 H 0.20134 1.00625 0.20962 0.0
C1792 C 0.71332 0.92455 0.98059 0.0
C1793 C 0.6817 0.94121 0.97743 0.0
C1794 C 0.73414 0.90907 0.97168 0.0
C1795 C 0.72245 0.91012 0.95949 0.0
C1796 C 0.6889 0.92385 0.95645 0.0
C1797 C 0.66867 0.93942 0.96557 0.0
C1798 C 0.76972 0.89416 0.97516 0.0
C1799 C 0.67552 0.92426 0.94351 0.0
C1800 C 0.79451 0.9126 0.93612 0.0
C1801 C 0.79613 0.87729 0.93275 0.0
C1802 C 0.76997 0.92388 0.94476 0.0
C1803 C 0.74663 0.8991 0.94989 0.0
C1804 C 0.74781 0.86354 0.94642 0.0
C1805 C 0.77285 0.85297 0.93791 0.0
C1806 C 0.76898 0.96215 0.94841 0.0
C1807 C 0.72284 0.83676 0.95172 0.0
H1808 H 0.72288 0.92556 0.98989 0.0
H1809 H 0.64397 0.95223 0.96326 0.0
H1810 H 0.77274 0.86703 0.97164 0.0
H1811 H 0.79077 0.91026 0.97099 0.0
H1812 H 0.7738 0.89369 0.98518 0.0
H1813 H 0.64737 0.93225 0.94297 0.0
H1814 H 0.69121 0.94298 0.93803 0.0
H1815 H 0.67866 0.89792 0.93933 0.0
H1816 H 0.8121 0.9313 0.93189 0.0
H1817 H 0.77331 0.82588 0.93493 0.0
H1818 H 0.77453 0.96461 0.95829 0.0
H1819 H 0.74233 0.97334 0.94679 0.0
H1820 H 0.78841 0.9781 0.9433 0.0
H1821 H 0.69587 0.84776 0.9527 0.0
H1822 H 0.73208 0.82884 0.96091 0.0
H1823 H 0.72127 0.81291 0.94599 0.0
C1824 C 0.3914 0.37955 0.21189 0.0
C1825 C 0.41254 0.37434 0.22213 0.0
C1826 C 0.40267 0.40164 0.20255 0.0
C1827 C 0.43612 0.41737 0.20352 0.0
C1828 C 0.45942 0.4079 0.21305 0.0
C1829 C 0.44703 0.38657 0.22242 0.0
C1830 C 0.37725 0.41156 0.19252 0.0
C1831 C 0.49554 0.42388 0.2142 0.0
C1832 C 0.47243 0.47262 0.17821 0.0
C1833 C 0.46471 0.50639 0.18253 0.0
C1834 C 0.46246 0.44304 0.18482 0.0
C1835 C 0.44439 0.44783 0.1959 0.0
C1836 C 0.43556 0.48202 0.20009 0.0
C1837 C 0.44624 0.51117 0.19333 0.0
C1838 C 0.47269 0.40694 0.18027 0.0
C1839 C 0.41582 0.48782 0.21187 0.0
H1840 H 0.36439 0.37048 0.21198 0.0
H1841 H 0.46282 0.3827 0.23056 0.0
H1842 H 0.38974 0.40749 0.18351 0.0
H1843 H 0.35255 0.39616 0.19294 0.0
H1844 H 0.37039 0.43986 0.19321 0.0
H1845 H 0.51215 0.40952 0.22092 0.0
H1846 H 0.50924 0.424 0.20529 0.0
H1847 H 0.49291 0.45156 0.21723 0.0
H1848 H 0.48734 0.46949 0.16985 0.0
H1849 H 0.44083 0.53756 0.19656 0.0
H1850 H 0.45006 0.38876 0.1808 0.0
H1851 H 0.49383 0.3959 0.18614 0.0
H1852 H 0.48242 0.4076 0.17074 0.0
H1853 H 0.40944 0.51598 0.21342 0.0
H1854 H 0.43189 0.47814 0.21964 0.0
H1855 H 0.39094 0.47274 0.21185 0.0
C1856 C 0.99996 0.17268 0.46101 0.0
C1857 C 1.0144 0.13995 0.46383 0.0
C1858 C 0.98722 0.17938 0.44932 0.0
C1859 C 0.98861 0.15211 0.44054 0.0
C1860 C 1.00784 0.12096 0.44295 0.0
C1861 C 1.02098 0.11533 0.45469 0.0
C1862 C 0.96722 0.21326 0.44707 0.0
C1863 C 1.01018 0.09145 0.43385 0.0
C1864 C 0.90041 0.15157 0.42567 0.0
C1865 C 0.90587 0.17683 0.41659 0.0
C1866 C 0.92808 0.14087 0.43318 0.0
C1867 C 0.96244 0.15291 0.43066 0.0
C1868 C 0.96914 0.17232 0.42001 0.0
C1869 C 0.94057 0.18531 0.41326 0.0
C1870 C 0.91974 0.12039 0.44459 0.0
C1871 C 1.00615 0.1822 0.41658 0.0
H1872 H 0.99502 0.19143 0.46825 0.0
H1873 H 1.03201 0.08985 0.45706 0.0
H1874 H 0.97474 0.22487 0.43819 0.0
H1875 H 0.93855 0.20785 0.44679 0.0
H1876 H 0.97203 0.23295 0.45433 0.0
H1877 H 1.0352 0.07653 0.43498 0.0
H1878 H 0.98823 0.07292 0.43545 0.0
H1879 H 1.0083 0.10116 0.42434 0.0
H1880 H 0.87389 0.14323 0.42779 0.0
H1881 H 0.94551 0.20427 0.4061 0.0
H1882 H 0.9281 0.13513 0.45279 0.0
H1883 H 0.93434 0.09509 0.44454 0.0
H1884 H 0.89117 0.11524 0.44549 0.0
H1885 H 1.01589 0.20265 0.42289 0.0
H1886 H 1.00758 0.19208 0.40708 0.0
H1887 H 1.02407 0.15922 0.41753 0.0
C1888 C 0.19988 0.65471 0.67009 0.0
C1889 C 0.16656 0.6562 0.66472 0.0
C1890 C 0.20812 0.67696 0.67975 0.0
C1891 C 0.18216 0.70075 0.68404 0.0
C1892 C 0.15036 0.70556 0.67761 0.0
C1893 C 0.14288 0.68311 0.66793 0.0
C1894 C 0.24257 0.67157 0.68638 0.0
C1895 C 0.12221 0.73074 0.682 0.0
C1896 C 0.182 0.69983 0.7181 0.0
C1897 C 0.20171 0.72975 0.72058 0.0
C1898 C 0.17333 0.69134 0.70617 0.0
C1899 C 0.18478 0.71355 0.69661 0.0
C1900 C 0.20177 0.74554 0.69919 0.0
C1901 C 0.20998 0.75343 0.71127 0.0
C1902 C 0.15464 0.65711 0.70376 0.0
C1903 C 0.21409 0.7698 0.68921 0.0
H1904 H 0.21814 0.63403 0.66749 0.0
H1905 H 0.11693 0.68417 0.66383 0.0
H1906 H 0.25438 0.69714 0.68886 0.0
H1907 H 0.23773 0.6569 0.69496 0.0
H1908 H 0.26178 0.6564 0.68083 0.0
H1909 H 0.10321 0.73736 0.67464 0.0
H1910 H 0.10742 0.71837 0.68957 0.0
H1911 H 0.13387 0.75536 0.68551 0.0
H1912 H 0.17535 0.68186 0.72542 0.0
H1913 H 0.22528 0.77665 0.71327 0.0
H1914 H 0.1729 0.63846 0.6992 0.0
H1915 H 0.13187 0.66145 0.69761 0.0
H1916 H 0.14504 0.64459 0.71228 0.0
H1917 H 0.21928 0.79663 0.69271 0.0
H1918 H 0.19448 0.77159 0.68175 0.0
H1919 H 0.23892 0.75926 0.68529 0.0
C1920 C 0.60862 0.16306 0.68625 0.0
C1921 C 0.60226 0.12855 0.68272 0.0
C1922 C 0.62132 0.1701 0.69789 0.0
C1923 C 0.62949 0.14154 0.7057 0.0
C1924 C 0.61871 0.10717 0.70269 0.0
C1925 C 0.60467 0.10108 0.69114 0.0
C1926 C 0.6309 0.20739 0.70105 0.0
C1927 C 0.62737 0.07616 0.71074 0.0
C1928 C 0.71911 0.15955 0.71821 0.0
C1929 C 0.71091 0.17189 0.72988 0.0
C1930 C 0.69295 0.14664 0.71059 0.0
C1931 C 0.65762 0.14636 0.71473 0.0
C1932 C 0.64955 0.15548 0.72685 0.0
C1933 C 0.67657 0.16751 0.7344 0.0
C1934 C 0.70284 0.13784 0.69761 0.0
C1935 C 0.61209 0.15659 0.73143 0.0
H1936 H 0.60664 0.18407 0.67958 0.0
H1937 H 0.60017 0.07431 0.68818 0.0
H1938 H 0.62536 0.21289 0.71078 0.0
H1939 H 0.65946 0.21128 0.69949 0.0
H1940 H 0.61625 0.22667 0.69533 0.0
H1941 H 0.65567 0.06953 0.70974 0.0
H1942 H 0.62262 0.08249 0.72046 0.0
H1943 H 0.6118 1.05266 0.70824 0.0
H1944 H 0.74524 0.16315 0.71449 0.0
H1945 H 0.67013 0.17625 0.74352 0.0
H1946 H 0.69913 0.16152 0.69182 0.0
H1947 H 0.68614 0.11681 0.69386 0.0
H1948 H 0.73086 0.12954 0.69689 0.0
H1949 H 0.6001 0.18231 0.72895 0.0
H1950 H 0.61105 0.15393 0.74149 0.0
H1951 H 0.59577 0.13578 0.72726 0.0
C1952 C 0.21941 0.43477 0.93162 0.0
C1953 C 0.21904 0.39914 0.92853 0.0
C1954 C 0.21174 0.44553 0.94337 0.0
C1955 C 0.20273 0.41994 0.95214 0.0
C1956 C 0.20263 0.38383 0.94914 0.0
C1957 C 0.21113 0.37371 0.93726 0.0
C1958 C 0.21215 0.48439 0.94624 0.0
C1959 C 0.1929 0.3562 0.95838 0.0
C1960 C 0.20159 0.46084 0.98316 0.0
C1961 C 0.16636 0.47116 0.98377 0.0
C1962 C 0.21348 0.44059 0.97334 0.0
C1963 C 0.18954 0.43196 0.96394 0.0
C1964 C 0.15355 0.44105 0.96488 0.0
C1965 C 0.14232 0.46032 0.9749 0.0
C1966 C 0.25205 0.43117 0.97249 0.0
C1967 C 0.12767 0.4337 0.95473 0.0
H1968 H 0.22634 0.45444 0.92489 0.0
H1969 H 0.21138 0.34615 0.93479 0.0
H1970 H 0.18501 0.49365 0.94824 0.0
H1971 H 0.22843 0.48948 0.95441 0.0
H1972 H 0.22266 0.50032 0.93858 0.0
H1973 H 0.19703 0.32915 0.95487 0.0
H1974 H 0.20869 0.35955 0.9668 0.0
H1975 H 0.1648 0.35934 0.96094 0.0
H1976 H 0.21991 0.46974 0.99004 0.0
H1977 H 0.1151 0.46906 0.97543 0.0
H1978 H 0.26541 0.45013 0.9664 0.0
H1979 H 0.25579 0.40456 0.96857 0.0
H1980 H 0.26505 0.43215 0.98154 0.0
H1981 H 0.13368 0.45073 0.94678 0.0
H1982 H 0.10002 0.43889 0.95752 0.0
H1983 H 0.12995 0.40606 0.95164 0.0
C1984 C 0.97136 0.94767 0.18614 0.0
C1985 C 0.98947 0.97667 0.18176 0.0
C1986 C 0.95838 0.94753 0.198 0.0
C1987 C 0.96269 0.97786 0.20535 0.0
C1988 C 0.98283 1.00643 0.20113 0.0
C1989 C 0.99667 1.00516 0.18936 0.0
C1990 C 0.93769 0.916 0.20225 0.0
C1991 C 0.98707 1.03972 0.20839 0.0
C1992 C 0.88448 0.97186 0.22486 0.0
C1993 C 0.89841 0.94948 0.23384 0.0
C1994 C 0.90678 0.98777 0.2164 0.0
C1995 C 0.94316 0.97992 0.21689 0.0
C1996 C 0.95769 0.9637 0.22731 0.0
C1997 C 0.9349 0.94932 0.23594 0.0
C1998 C 0.89083 1.00746 0.20578 0.0
C1999 C 0.9966 0.95592 0.22824 0.0
H2000 H 0.96564 0.92604 0.18005 0.0
H2001 H 1.01018 1.02791 0.18576 0.0
H2002 H 0.94708 0.90711 0.21132 0.0
H2003 H 0.90946 0.92322 0.20311 0.0
H2004 H 0.93986 0.89359 0.19582 0.0
H2005 H 0.96657 0.05887 0.20548 0.0
H2006 H 0.98432 1.03531 0.21833 0.0
H2007 H 1.01305 1.05182 0.20656 0.0
H2008 H 0.85634 0.97318 0.22332 0.0
H2009 H 0.94575 0.93355 0.24329 0.0
H2010 H 0.88803 0.98937 0.19793 0.0
H2011 H 0.90803 1.02941 0.20292 0.0
H2012 H 0.86436 1.01812 0.20806 0.0
H2013 H 1.01228 0.97807 0.2246 0.0
H2014 H 1.00289 0.93229 0.22272 0.0
H2015 H 1.00466 0.95056 0.23779 0.0
C2016 C 0.45235 0.70581 0.48012 0.0
C2017 C 0.44061 0.6713 0.47816 0.0
C2018 C 0.44056 0.73346 0.47266 0.0
C2019 C 0.41827 0.7257 0.46282 0.0
C2020 C 0.40281 0.6921 0.46187 0.0
C2021 C 0.41321 0.66563 0.46991 0.0
C2022 C 0.45507 0.76988 0.47439 0.0
C2023 C 0.37936 0.68251 0.45131 0.0
C2024 C 0.38097 0.77758 0.43716 0.0
C2025 C 0.40251 0.7641 0.42796 0.0
C2026 C 0.38855 0.76969 0.44933 0.0
C2027 C 0.41822 0.74843 0.45196 0.0
C2028 C 0.44344 0.7411 0.4428 0.0
C2029 C 0.43491 0.74877 0.43076 0.0
C2030 C 0.36221 0.77941 0.45902 0.0
C2031 C 0.4765 0.72006 0.44537 0.0
H2032 H 0.47286 0.71075 0.48669 0.0
H2033 H 0.40265 0.63945 0.46881 0.0
H2034 H 0.48271 0.77055 0.47116 0.0
H2035 H 0.43995 0.79025 0.46934 0.0
H2036 H 0.45455 0.77694 0.48417 0.0
H2037 H 0.36626 0.65685 0.4527 0.0
H2038 H 0.3591 0.70312 0.44989 0.0
H2039 H 0.39532 0.68075 0.44287 0.0
H2040 H 0.35602 0.7899 0.43483 0.0
H2041 H 0.45157 0.73902 0.42349 0.0
H2042 H 0.34672 0.80307 0.45636 0.0
H2043 H 0.37545 0.78436 0.46786 0.0
H2044 H 0.3436 0.75738 0.46034 0.0
H2045 H 0.49486 0.72006 0.43749 0.0
H2046 H 0.46949 0.69242 0.44745 0.0
H2047 H 0.49041 0.73081 0.4534 0.0
C2048 C 0.43165 0.19427 0.23057 0.0
C2049 C 0.39717 0.18162 0.2292 0.0
C2050 C 0.45739 0.1867 0.22186 0.0
C2051 C 0.44776 0.16781 0.21141 0.0
C2052 C 0.41419 0.1522 0.21057 0.0
C2053 C 0.3899 0.15778 0.21987 0.0
C2054 C 0.49333 0.20278 0.22307 0.0
C2055 C 0.40184 0.13416 0.19913 0.0
C2056 C 0.47593 0.18875 0.17978 0.0
C2057 C 0.49658 0.15923 0.17733 0.0
C2058 C 0.4631 0.19433 0.1915 0.0
C2059 C 0.47027 0.16884 0.20059 0.0
C2060 C 0.49441 0.14121 0.19842 0.0
C2061 C 0.50796 0.1371 0.18672 0.0
C2062 C 0.43879 0.2252 0.19376 0.0
C2063 C 0.50226 0.1134 0.20787 0.0
H2064 H 0.4379 0.21277 0.23772 0.0
H2065 H 0.36374 0.14688 0.21902 0.0
H2066 H 0.51412 0.18638 0.21879 0.0
H2067 H 0.49328 0.22861 0.21838 0.0
H2068 H 0.50013 0.2065 0.23279 0.0
H2069 H 0.39247 0.1543 0.19254 0.0
H2070 H 0.42349 0.11942 0.19473 0.0
H2071 H 0.37954 0.11624 0.20097 0.0
H2072 H 0.46748 0.2057 0.17236 0.0
H2073 H 0.52375 0.11402 0.18464 0.0
H2074 H 0.44559 0.23823 0.20247 0.0
H2075 H 0.41126 0.21592 0.1945 0.0
H2076 H 0.44003 0.2449 0.1863 0.0
H2077 H 0.50492 0.125 0.21707 0.0
H2078 H 0.52667 0.09847 0.20567 0.0
H2079 H 0.48011 0.09462 0.20816 0.0
C2080 C 0.70539 0.68823 0.98783 0.0
C2081 C 0.70595 0.65224 0.98504 0.0
C2082 C 0.71857 0.71265 0.9795 0.0
C2083 C 0.73344 0.70018 0.96856 0.0
C2084 C 0.74135 0.664 0.96716 0.0
C2085 C 0.72743 0.6402 0.97554 0.0
C2086 C 0.71034 0.75112 0.98133 0.0
C2087 C 0.75802 0.64991 0.95565 0.0
C2088 C 0.69771 0.72896 0.93847 0.0
C2089 C 0.72754 0.74393 0.93337 0.0
C2090 C 0.6981 0.71788 0.95056 0.0
C2091 C 0.72954 0.72143 0.95745 0.0
C2092 C 0.75848 0.73983 0.95263 0.0
C2093 C 0.75708 0.75108 0.94053 0.0
C2094 C 0.66631 0.6987 0.95542 0.0
C2095 C 0.79215 0.74429 0.95971 0.0
H2096 H 0.68989 0.69751 0.99549 0.0
H2097 H 0.72876 0.61239 0.97348 0.0
H2098 H 0.73034 0.76803 0.97693 0.0
H2099 H 0.68447 0.75734 0.97711 0.0
H2100 H 0.70867 0.7577 0.99116 0.0
H2101 H 0.73868 0.65129 0.94808 0.0
H2102 H 0.78102 0.66593 0.95299 0.0
H2103 H 0.76653 0.62209 0.95665 0.0
H2104 H 0.67519 0.72337 0.93273 0.0
H2105 H 0.78032 0.76232 0.93639 0.0
H2106 H 0.65897 0.70875 0.96455 0.0
H2107 H 0.67255 0.6703 0.95636 0.0
H2108 H 0.64313 0.70147 0.94931 0.0
H2109 H 0.80862 0.76556 0.95583 0.0
H2110 H 0.80758 0.71948 0.95939 0.0
H2111 H 0.78665 0.75016 0.96941 0.0
C2112 C 0.20758 0.9453 0.71925 0.0
C2113 C 0.20055 0.91966 0.72805 0.0
C2114 C 0.18247 0.95381 0.71047 0.0
C2115 C 0.14857 0.93902 0.71132 0.0
C2116 C 0.13927 0.91849 0.72145 0.0
C2117 C 0.16573 0.90795 0.72959 0.0
C2118 C 0.19376 0.97456 0.69945 0.0
C2119 C 0.10248 0.90452 0.72285 0.0
C2120 C 0.09315 0.97526 0.68624 0.0
C2121 C 0.10512 0.95357 0.67686 0.0
C2122 C 0.10391 0.96873 0.69818 0.0
C2123 C 0.12596 0.93945 0.70049 0.0
C2124 C 0.13258 0.91425 0.6913 0.0
C2125 C 0.12248 0.92205 0.67941 0.0
C2126 C 0.09613 0.99576 0.70785 0.0
C2127 C 0.15467 0.88175 0.69363 0.0
H2128 H 0.2339 0.95581 0.71838 0.0
H2129 H 0.15955 0.88844 0.73645 0.0
H2130 H 0.19722 0.95652 0.69161 0.0
H2131 H 0.17317 0.99393 0.69694 0.0
H2132 H 0.2191 0.9882 0.70094 0.0
H2133 H 0.09472 0.90486 0.73256 0.0
H2134 H 0.08262 0.9201 0.71772 0.0
H2135 H 0.10167 0.87722 0.71938 0.0
H2136 H 0.07974 0.99975 0.68407 0.0
H2137 H 0.13143 0.90549 0.672 0.0
H2138 H 0.11908 1.01345 0.70875 0.0
H2139 H 0.09167 0.98312 0.71682 0.0
H2140 H 0.07273 1.01201 0.70544 0.0
H2141 H 0.18256 0.88932 0.69498 0.0
H2142 H 0.15346 0.86294 0.68592 0.0
H2143 H 0.14575 0.86825 0.70203 0.0
C2144 C 0.97339 0.42192 0.48101 0.0
C2145 C 0.94891 0.44783 0.48448 0.0
C2146 C 0.9665 0.39999 0.47114 0.0
C2147 C 0.93442 0.40419 0.46483 0.0
C2148 C 0.90768 0.42655 0.46944 0.0
C2149 C 0.91536 0.44839 0.47927 0.0
C2150 C 0.99534 0.37612 0.46643 0.0
C2151 C 0.87285 0.43099 0.46298 0.0
C2152 C 0.9333 0.40812 0.43078 0.0
C2153 C 0.91463 0.37771 0.42809 0.0
C2154 C 0.94221 0.41583 0.44277 0.0
C2155 C 0.93199 0.39237 0.45215 0.0
C2156 C 0.91613 0.36001 0.44931 0.0
C2157 C 0.9078 0.35289 0.4372 0.0
C2158 C 0.95972 0.4505 0.44546 0.0
C2159 C 0.90488 0.33448 0.45907 0.0
H2160 H 0.99949 0.42151 0.48501 0.0
H2161 H 0.89647 0.46826 0.48208 0.0
H2162 H 0.98445 0.35064 0.46338 0.0
H2163 H 1.00807 0.38859 0.45843 0.0
H2164 H 1.01588 0.37113 0.47344 0.0
H2165 H 0.85339 0.44542 0.46866 0.0
H2166 H 0.87691 0.44594 0.45441 0.0
H2167 H 0.8618 0.4051 0.4605 0.0
H2168 H 0.93886 0.427 0.42363 0.0
H2169 H 0.89337 0.32922 0.43506 0.0
H2170 H 0.98272 0.44649 0.45154 0.0
H2171 H 0.94087 0.46813 0.45023 0.0
H2172 H 0.96872 0.46399 0.43705 0.0
H2173 H 0.92387 0.33372 0.46673 0.0
H2174 H 0.90196 0.30752 0.45536 0.0
H2175 H 0.87898 0.34295 0.46274 0.0
C2176 C 0.43939 0.90885 0.47575 0.0
C2177 C 0.46707 0.93274 0.47557 0.0
C2178 C 0.4259 0.89602 0.46486 0.0
C2179 C 0.44014 0.90846 0.45378 0.0
C2180 C 0.47066 0.92939 0.45367 0.0
C2181 C 0.48427 0.94088 0.4647 0.0
C2182 C 0.39409 0.87253 0.4652 0.0
C2183 C 0.48609 0.94341 0.44198 0.0
C2184 C 0.40399 0.87448 0.42434 0.0
C2185 C 0.37735 0.89937 0.42198 0.0
C2186 C 0.42523 0.87728 0.43463 0.0
C2187 C 0.41939 0.90556 0.44264 0.0
C2188 C 0.39316 0.93124 0.44017 0.0
C2189 C 0.37236 0.92781 0.42979 0.0
C2190 C 0.45239 0.84906 0.43729 0.0
C2191 C 0.38593 0.96136 0.44878 0.0
H2192 H 0.42674 0.90225 0.4843 0.0
H2193 H 0.5059 0.95933 0.46468 0.0
H2194 H 0.37013 0.88824 0.46309 0.0
H2195 H 0.39632 0.85159 0.45824 0.0
H2196 H 0.39057 0.86014 0.47428 0.0
H2197 H 0.51252 0.955 0.4434 0.0
H2198 H 0.4882 0.92234 0.43505 0.0
H2199 H 0.4684 0.96416 0.43825 0.0
H2200 H 0.40692 0.85169 0.41851 0.0
H2201 H 0.3513 0.94651 0.428 0.0
H2202 H 0.44303 0.83231 0.44489 0.0
H2203 H 0.47768 0.86078 0.4402 0.0
H2204 H 0.45731 0.83199 0.42927 0.0
H2205 H 0.37539 0.95108 0.45749 0.0
H2206 H 0.3665 0.98036 0.44499 0.0
H2207 H 0.41064 0.97542 0.4509 0.0
C2208 C 0.92996 0.71673 0.20962 0.0
C2209 C 0.89909 0.7317 0.21409 0.0
C2210 C 0.92984 0.69984 0.19835 0.0
C2211 C 0.89754 0.69627 0.19199 0.0
C2212 C 0.86666 0.71284 0.19627 0.0
C2213 C 0.86814 0.73145 0.20717 0.0
C2214 C 0.96356 0.68326 0.1938 0.0
C2215 C 0.83154 0.70792 0.19007 0.0
C2216 C 0.91014 0.65731 0.16103 0.0
C2217 C 0.9153 0.62192 0.16434 0.0
C2218 C 0.90172 0.68242 0.16985 0.0
C2219 C 0.89551 0.67114 0.18189 0.0
C2220 C 0.89338 0.63496 0.18464 0.0
C2221 C 0.9038 0.61065 0.17585 0.0
C2222 C 0.9047 0.72087 0.16665 0.0
C2223 C 0.88512 0.62196 0.19733 0.0
H2224 H 0.95351 0.71664 0.21521 0.0
H2225 H 0.84411 0.74259 0.2109 0.0
H2226 H 0.96715 0.6888 0.18395 0.0
H2227 H 0.98694 0.69294 0.19883 0.0
H2228 H 0.96232 0.65434 0.19496 0.0
H2229 H 0.80998 0.72271 0.19463 0.0
H2230 H 0.83303 0.71643 0.18042 0.0
H2231 H 0.82469 0.67964 0.19005 0.0
H2232 H 0.91689 0.6661 0.15195 0.0
H2233 H 0.90674 0.58349 0.17861 0.0
H2234 H 0.88581 0.73724 0.17188 0.0
H2235 H 0.90036 0.72545 0.15677 0.0
H2236 H 0.93161 0.72989 0.16894 0.0
H2237 H 0.90921 0.62322 0.20302 0.0
H2238 H 0.87609 0.59427 0.19723 0.0
H2239 H 0.86465 0.63852 0.20171 0.0
C2240 C 0.17348 0.20389 0.91578 0.0
C2241 C 0.20684 0.18776 0.91539 0.0
C2242 C 0.14809 0.19245 0.92408 0.0
C2243 C 0.1567 0.1648 0.93211 0.0
C2244 C 0.18812 0.14521 0.93051 0.0
C2245 C 0.21282 0.1568 0.922 0.0
C2246 C 0.11421 0.21298 0.92551 0.0
C2247 C 0.19794 0.11535 0.93896 0.0
C2248 C 0.13912 0.17942 0.96524 0.0
C2249 C 0.11517 0.15276 0.96763 0.0
C2250 C 0.15143 0.18483 0.95347 0.0
C2251 C 0.13876 0.16323 0.94395 0.0
C2252 C 0.11185 0.13862 0.94617 0.0
C2253 C 0.10056 0.13336 0.95813 0.0
C2254 C 0.18024 0.2115 0.95149 0.0
C2255 C 0.09719 0.11558 0.93627 0.0
H2256 H 0.16846 0.22773 0.91064 0.0
H2257 H 0.23822 0.14374 0.92142 0.0
H2258 H 0.09146 0.19483 0.92555 0.0
H2259 H 0.11411 0.22704 0.93435 0.0
H2260 H 0.1107 0.23273 0.9182 0.0
H2261 H 0.22166 0.10096 0.93575 0.0
H2262 H 0.20352 0.12584 0.94818 0.0
H2263 H 0.17584 0.09664 0.93981 0.0
H2264 H 0.15037 0.19405 0.97275 0.0
H2265 H 0.08296 0.11186 0.96015 0.0
H2266 H 0.17261 0.23029 0.94422 0.0
H2267 H 0.20474 0.19795 0.94853 0.0
H2268 H 0.18615 0.22668 0.95987 0.0
H2269 H 0.06952 0.1083 0.9383 0.0
H2270 H 0.11292 0.09094 0.93582 0.0
H2271 H 0.09814 0.12858 0.92723 0.0
C2272 C 0.63738 0.42589 0.66399 0.0
C2273 C 0.66108 0.45351 0.66203 0.0
C2274 C 0.64305 0.40165 0.67338 0.0
C2275 C 0.6729 0.40548 0.68087 0.0
C2276 C 0.6989 0.4306 0.67798 0.0
C2277 C 0.69269 0.45432 0.66849 0.0
C2278 C 0.61514 0.3748 0.67617 0.0
C2279 C 0.73111 0.4356 0.6858 0.0
C2280 C 0.66918 0.39914 0.71471 0.0
C2281 C 0.69306 0.37168 0.71669 0.0
C2282 C 0.65922 0.40828 0.70291 0.0
C2283 C 0.67362 0.38917 0.69302 0.0
C2284 C 0.69404 0.35858 0.69513 0.0
C2285 C 0.70356 0.35004 0.70707 0.0
C2286 C 0.63693 0.44094 0.70106 0.0
C2287 C 0.70925 0.33737 0.68479 0.0
H2288 H 0.61269 0.42525 0.65904 0.0
H2289 H 0.71106 0.47549 0.66686 0.0
H2290 H 0.62727 0.34946 0.67898 0.0
H2291 H 0.5986 0.38417 0.68384 0.0
H2292 H 0.59767 0.37039 0.66821 0.0
H2293 H 0.75099 0.45171 0.68103 0.0
H2294 H 0.7235 0.44922 0.69435 0.0
H2295 H 0.74331 0.41007 0.68832 0.0
H2296 H 0.6607 0.41536 0.72229 0.0
H2297 H 0.72195 0.32863 0.70871 0.0
H2298 H 0.61567 0.43608 0.69437 0.0
H2299 H 0.65357 0.46234 0.69739 0.0
H2300 H 0.62475 0.45021 0.70968 0.0
H2301 H 0.71701 0.31055 0.68782 0.0
H2302 H 0.73309 0.35064 0.68126 0.0
H2303 H 0.69019 0.33528 0.67717 0.0
C2304 C 0.13877 0.29793 0.39758 0.0
C2305 C 0.14868 0.26637 0.39169 0.0
C2306 C 0.10278 0.31052 0.39797 0.0
C2307 C 0.07473 0.29271 0.39187 0.0
C2308 C 0.08489 0.26115 0.38575 0.0
C2309 C 0.12064 0.24836 0.38594 0.0
C2310 C 0.09492 0.34303 0.40518 0.0
C2311 C 1.05765 0.24046 0.37891 0.0
C2312 C 0.97294 0.30652 0.39941 0.0
C2313 C 0.96123 0.33228 0.39099 0.0
C2314 C 1.00908 0.2945 0.40003 0.0
C2315 C 1.03542 0.30677 0.39172 0.0
C2316 C 1.0235 0.33258 0.38316 0.0
C2317 C 0.98769 0.34528 0.3831 0.0
C2318 C 1.01955 0.27011 0.4102 0.0
C2319 C 1.04892 0.3474 0.374 0.0
H2320 H 0.15902 0.31237 0.40234 0.0
H2321 H 0.12673 0.22382 0.38141 0.0
H2322 H 0.09288 0.36567 0.39885 0.0
H2323 H 0.06957 0.34082 0.41013 0.0
H2324 H 0.11617 0.34814 0.41185 0.0
H2325 H 0.06936 0.21793 0.3739 0.0
H2326 H 1.0377 0.2303 0.38538 0.0
H2327 H 1.04372 0.25782 0.37232 0.0
H2328 H 0.95412 0.29683 0.40601 0.0
H2329 H 0.98029 0.36571 0.37669 0.0
H2330 H 1.03576 0.2847 0.41688 0.0
H2331 H 1.03605 0.24824 0.40672 0.0
H2332 H 0.99627 0.25939 0.41502 0.0
H2333 H 0.06882 0.36354 0.37875 0.0
H2334 H 1.03553 0.36411 0.36708 0.0
H2335 H 0.06316 0.3258 0.36928 0.0
C2336 C 1.05406 0.72077 0.63291 0.0
C2337 C 1.02581 0.71019 0.64046 0.0
C2338 C 0.06623 0.75675 0.6324 0.0
C2339 C 1.05096 0.78402 0.63979 0.0
C2340 C 1.02332 0.77297 0.64768 0.0
C2341 C 1.01109 0.73737 0.64774 0.0
C2342 C 0.09542 0.76574 0.6237 0.0
C2343 C 1.00661 0.79887 0.65634 0.0
C2344 C 0.10572 0.86954 0.64685 0.0
C2345 C 0.08984 0.89702 0.63994 0.0
C2346 C 0.09328 0.83403 0.64705 0.0
C2347 C 0.06436 0.82325 0.6397 0.0
C2348 C 1.04801 0.85075 0.63263 0.0
C2349 C 0.06031 0.88671 0.63297 0.0
C2350 C 0.11126 0.8079 0.65537 0.0
C2351 C 1.01748 0.84204 0.62447 0.0
H2352 H 0.06613 0.70116 0.6271 0.0
H2353 H 0.98951 0.73069 0.65375 0.0
H2354 H 0.08736 0.78829 0.61788 0.0
H2355 H 0.11905 0.77387 0.62888 0.0
H2356 H 0.10272 0.74324 0.61778 0.0
H2357 H 0.98704 0.78638 0.66246 0.0
H2358 H 1.02721 0.81128 0.66202 0.0
H2359 H 0.99326 0.82014 0.65115 0.0
H2360 H 0.12843 0.8759 0.65236 0.0
H2361 H 1.04728 0.90651 0.62745 0.0
H2362 H 0.12458 0.7873 0.6499 0.0
H2363 H 0.09152 0.79462 0.6612 0.0
H2364 H 0.13113 0.82042 0.66135 0.0
H2365 H 1.02445 0.81948 0.61854 0.0
H2366 H 1.00947 0.86465 0.61867 0.0
H2367 H 0.9946 0.83407 0.63007 0.0
C2368 C 0.48403 0.85153 0.90348 0.0
C2369 C 0.45711 0.83683 0.89619 0.0
C2370 C 0.51959 0.83867 0.90364 0.0
C2371 C 0.53065 0.8105 0.89596 0.0
C2372 C 0.50361 0.79539 0.88853 0.0
C2373 C 0.46771 0.80817 0.88884 0.0
C2374 C 0.54552 0.85548 0.9122 0.0
C2375 C 0.51279 0.76589 0.87997 0.0
C2376 C 0.633 0.79914 0.88927 0.0
C2377 C 0.64334 0.77025 0.89662 0.0
C2378 C 0.59712 0.81198 0.88882 0.0
C2379 C 0.56974 0.79654 0.89603 0.0
C2380 C 0.58043 0.76799 0.90365 0.0
C2381 C 0.61605 0.75527 0.9037 0.0
C2382 C 0.58833 0.84201 0.88038 0.0
C2383 C 0.55403 0.75061 0.91191 0.0
H2384 H 0.47718 0.87358 0.90926 0.0
H2385 H 0.4482 0.79637 0.88297 0.0
H2386 H 0.55837 0.83508 0.91795 0.0
H2387 H 0.56652 0.86861 0.9069 0.0
H2388 H 0.53285 0.87523 0.91823 0.0
H2389 H 0.49021 0.75842 0.87412 0.0
H2390 H 0.53513 0.77368 0.87407 0.0
H2391 H 0.52138 0.7425 0.88525 0.0
H2392 H 0.65279 0.8113 0.88359 0.0
H2393 H 0.62262 0.73308 0.9095 0.0
H2394 H 0.57917 0.86499 0.88572 0.0
H2395 H 0.56648 0.83446 0.87423 0.0
H2396 H 0.61126 0.85004 0.87478 0.0
H2397 H 0.5405 0.77063 0.91761 0.0
H2398 H 0.5664 0.73072 0.918 0.0
H2399 H 0.53359 0.73748 0.90638 0.0
C2400 C 0.50982 0.24505 0.13528 0.0
C2401 C 0.52966 0.21569 0.1395 0.0
C2402 C 0.52271 0.28058 0.13531 0.0
C2403 C 0.55659 0.28918 0.14007 0.0
C2404 C 0.57668 0.2597 0.14452 0.0
C2405 C 0.56347 0.2241 0.14406 0.0
C2406 C 0.49963 0.30926 0.1301 0.0
C2407 C 0.61225 0.26578 0.15011 0.0
C2408 C 0.6041 0.37824 0.13073 0.0
C2409 C 0.59574 0.4025 0.14009 0.0
C2410 C 0.59164 0.34248 0.13057 0.0
C2411 C 0.57061 0.32837 0.14022 0.0
C2412 C 0.5626 0.35263 0.14983 0.0
C2413 C 0.57491 0.38851 0.14964 0.0
C2414 C 0.60143 0.31947 0.11994 0.0
C2415 C 0.54152 0.34041 0.16064 0.0
H2416 H 0.48364 0.24023 0.13178 0.0
H2417 H 0.57943 0.20284 0.14768 0.0
H2418 H 0.49233 0.32812 0.13737 0.0
H2419 H 0.51426 0.32409 0.12304 0.0
H2420 H 0.47513 0.29884 0.12599 0.0
H2421 H 0.62446 0.24097 0.15344 0.0
H2422 H 0.63009 0.27793 0.14335 0.0
H2423 H 0.60974 0.28435 0.15785 0.0
H2424 H 0.62103 0.38718 0.12344 0.0
H2425 H 0.56894 0.40552 0.15728 0.0
H2426 H 0.57741 0.30774 0.11593 0.0
H2427 H 0.61849 0.29751 0.1231 0.0
H2428 H 0.6156 0.33416 0.11272 0.0
H2429 H 0.51478 0.33274 0.15766 0.0
H2430 H 0.53899 0.36101 0.16774 0.0
H2431 H 0.55415 0.31681 0.16473 0.0
C2432 C 0.99543 0.75781 0.25903 0.0
C2433 C 0.9673 0.77651 0.25346 0.0
C2434 C 1.0311 0.77017 0.25936 0.0
C2435 C 1.04138 0.80199 0.25338 0.0
C2436 C 1.013 0.82079 0.24747 0.0
C2437 C 0.97707 0.80846 0.24781 0.0
C2438 C 1.05757 0.74827 0.26632 0.0
C2439 C 1.01984 0.85406 0.24042 0.0
C2440 C 0.12647 0.85858 0.2605 0.0
C2441 C 0.15493 0.84063 0.25488 0.0
C2442 C 0.09073 0.84633 0.26027 0.0
C2443 C 0.08081 0.81553 0.25366 0.0
C2444 C 0.10954 0.79759 0.24769 0.0
C2445 C 0.14545 0.80969 0.24858 0.0
C2446 C 0.0638 0.86717 0.26736 0.0
C2447 C 0.10318 0.76544 0.24003 0.0
H2448 H 0.9895 0.73299 0.26339 0.0
H2449 H 0.95675 0.82351 0.24319 0.0
H2450 H 0.06763 0.72709 0.26031 0.0
H2451 H 0.08014 0.76392 0.26962 0.0
H2452 H 1.04502 0.7354 0.27428 0.0
H2453 H 1.00453 0.85415 0.23179 0.0
H2454 H 1.01044 0.87687 0.24582 0.0
H2455 H 1.04804 0.85768 0.23819 0.0
H2456 H 0.1322 0.8826 0.26537 0.0
H2457 H 0.16608 0.79522 0.24392 0.0
H2458 H 1.04109 0.851 0.27024 0.0
H2459 H 1.05401 0.88913 0.2616 0.0
H2460 H 0.07581 0.87894 0.27561 0.0
H2461 H 0.11211 0.74185 0.24516 0.0
H2462 H 0.11913 0.76654 0.23157 0.0
H2463 H 0.07514 0.76223 0.23749 0.0
C2464 C 0.55752 0.88422 0.50409 0.0
C2465 C 0.52621 0.89407 0.51025 0.0
C2466 C 0.57045 0.84843 0.50365 0.0
C2467 C 0.55303 0.82037 0.50996 0.0
C2468 C 0.52172 0.83046 0.51632 0.0
C2469 C 0.50871 0.86606 0.51618 0.0
C2470 C 0.60279 0.84107 0.4961 0.0
C2471 C 0.50141 0.80339 0.5234 0.0
C2472 C 0.56326 0.71814 0.50298 0.0
C2473 C 0.59129 0.7066 0.5105 0.0
C2474 C 0.55183 0.75434 0.5024 0.0
C2475 C 0.56686 0.78103 0.50993 0.0
C2476 C 0.59488 0.76927 0.51765 0.0
C2477 C 0.60696 0.73329 0.51764 0.0
C2478 C 0.52348 0.76361 0.49345 0.0
C2479 C 0.61247 0.7949 0.52607 0.0
H2480 H 0.57159 0.90443 0.49921 0.0
H2481 H 0.48438 0.87203 0.52091 0.0
H2482 H 0.62654 0.84614 0.50168 0.0
H2483 H 0.60392 0.8135 0.49286 0.0
H2484 H 0.60382 0.85882 0.48807 0.0
H2485 H 0.48173 0.8156 0.52959 0.0
H2486 H 0.48725 0.78607 0.51698 0.0
H2487 H 0.51954 0.78667 0.52888 0.0
H2488 H 0.55081 0.699 0.49712 0.0
H2489 H 0.6289 0.72594 0.52344 0.0
H2490 H 0.52442 0.79152 0.49054 0.0
H2491 H 0.49772 0.75867 0.49782 0.0
H2492 H 0.52558 0.74675 0.48524 0.0
H2493 H 0.62875 0.81325 0.52066 0.0
H2494 H 0.62974 0.7815 0.53282 0.0
H2495 H 0.59244 0.81074 0.53102 0.0
C2496 C 0.61653 0.35615 0.75861 0.0
C2497 C 0.64604 0.33576 0.75486 0.0
C2498 C 0.5811 0.34295 0.75904 0.0
C2499 C 0.57275 0.30796 0.75537 0.0
C2500 C 0.60231 0.28732 0.75132 0.0
C2501 C 0.63783 0.30098 0.75127 0.0
C2502 C 0.55214 0.36692 0.76349 0.0
C2503 C 0.59634 0.25066 0.74667 0.0
C2504 C 0.48416 0.26287 0.76658 0.0
C2505 C 0.45906 0.26974 0.75728 0.0
C2506 C 0.52005 0.27507 0.76612 0.0
C2507 C 0.53359 0.29371 0.75581 0.0
C2508 C 0.50863 0.29951 0.74618 0.0
C2509 C 0.4724 0.28844 0.74713 0.0
C2510 C 0.54377 0.26779 0.77684 0.0
C2511 C 0.52048 0.31557 0.73437 0.0
H2512 H 0.62113 0.38306 0.76133 0.0
H2513 H 0.65919 0.28449 0.74806 0.0
H2514 H 0.53149 0.36963 0.75641 0.0
H2515 H 0.53952 0.35519 0.77164 0.0
H2516 H 0.5619 0.39346 0.76588 0.0
H2517 H 0.62096 0.23816 0.74329 0.0
H2518 H 0.58529 0.23405 0.75403 0.0
H2519 H 0.57678 0.25133 0.73916 0.0
H2520 H 0.47555 0.24805 0.77445 0.0
H2521 H 0.45474 0.29326 0.73954 0.0
H2522 H 0.55518 0.29274 0.78019 0.0
H2523 H 0.566 0.25066 0.77398 0.0
H2524 H 0.52968 0.2548 0.78445 0.0
H2525 H 0.54123 0.33544 0.7358 0.0
H2526 H 0.49804 0.32763 0.72935 0.0
H2527 H 0.53187 0.29457 0.72856 0.0
C2528 C 0.09424 0.23947 0.99754 0.0
C2529 C 0.08207 0.21246 1.00537 0.0
C2530 C 0.08128 0.2749 0.99788 0.0
C2531 C 1.0555 0.28571 1.00655 0.0
C2532 C 1.04289 0.25859 1.01451 0.0
C2533 C 1.05578 0.22284 1.01377 0.0
C2534 C 0.09537 0.30093 0.98875 0.0
C2535 C 1.01593 0.26756 1.02408 0.0
C2536 C 1.0451 0.38791 1.01334 0.0
C2537 C 1.01407 0.39775 1.00702 0.0
C2538 C 0.05833 0.35219 1.01347 0.0
C2539 C 1.04116 0.32457 1.00691 0.0
C2540 C 1.01049 0.33482 1.00028 0.0
C2541 C 0.99743 0.37021 1.00057 0.0
C2542 C 0.0908 0.34389 1.02082 0.0
C2543 C 0.99127 0.30823 0.99264 0.0
H2544 H 0.11436 0.2328 0.99092 0.0
H2545 H 1.04594 0.20327 1.02005 0.0
H2546 H 0.0733 0.31344 0.98369 0.0
H2547 H 0.10962 0.32212 0.99355 0.0
H2548 H 0.11359 0.28852 0.9821 0.0
H2549 H 1.01008 0.24487 1.03011 0.0
H2550 H 1.02545 0.28967 1.02974 0.0
H2551 H 0.99113 0.27635 1.01966 0.0
H2552 H 0.05876 0.40795 1.01844 0.0
H2553 H 0.97368 0.37642 0.99552 0.0
H2554 H 0.11245 0.33563 1.01467 0.0
H2555 H 0.08558 0.32161 1.02709 0.0
H2556 H 0.09975 0.36677 1.02623 0.0
H2557 H 1.00975 0.29564 0.98612 0.0
H2558 H 0.96914 0.32018 0.98742 0.0
H2559 H 0.98066 0.28718 0.99855 0.0
C2560 C 0.13728 0.79908 0.75231 0.0
C2561 C 0.14881 0.76868 0.7586 0.0
C2562 C 0.1008 0.81013 0.75193 0.0
C2563 C 0.07355 0.79192 0.75841 0.0
C2564 C 0.08549 0.76166 0.76503 0.0
C2565 C 0.12176 0.75026 0.76477 0.0
C2566 C 0.09215 0.84118 0.74408 0.0
C2567 C 0.05997 0.74062 0.77253 0.0
C2568 C 0.98662 0.84752 0.76505 0.0
C2569 C 0.95878 0.82928 0.7593 0.0
C2570 C 1.02267 0.83554 0.76504 0.0
C2571 C 1.0336 0.80466 0.75859 0.0
C2572 C 1.00559 0.78645 0.75247 0.0
C2573 C 0.96934 0.79833 0.7531 0.0
C2574 C 1.04916 0.85674 0.77206 0.0
C2575 C 1.01323 0.75447 0.74483 0.0
H2576 H 0.15661 0.81376 0.74717 0.0
H2577 H 0.12903 0.72649 0.76963 0.0
H2578 H 0.06361 0.84449 0.74226 0.0
H2579 H 0.10229 0.86514 0.74857 0.0
H2580 H 0.10605 0.83829 0.73526 0.0
H2581 H 0.07366 0.72572 0.77986 0.0
H2582 H 1.03955 0.7577 0.77673 0.0
H2583 H 1.04665 0.72139 0.76656 0.0
H2584 H 0.98015 0.87168 0.76977 0.0
H2585 H 0.94934 0.7838 0.74825 0.0
H2586 H 0.06238 0.87521 0.76576 0.0
H2587 H 0.06956 0.83964 0.7763 0.0
H2588 H 1.03633 0.87254 0.77932 0.0
H2589 H 1.04147 0.75171 0.74244 0.0
H2590 H 0.99763 0.75545 0.73627 0.0
H2591 H 1.00483 0.73067 0.74987 0.0
C2592 C 0.0605 0.21685 0.50867 0.0
C2593 C 1.03179 0.20576 0.50144 0.0
C2594 C 0.07181 0.25309 0.50911 0.0
C2595 C 1.05537 0.2801 0.50186 0.0
C2596 C 1.02738 0.26852 0.49422 0.0
C2597 C 1.01582 0.23267 0.49432 0.0
C2598 C 0.10128 0.26261 0.51763 0.0
C2599 C 1.00956 0.2941 0.48567 0.0
C2600 C 0.06123 0.38268 0.50893 0.0
C2601 C 0.09048 0.39424 0.50206 0.0
C2602 C 1.0502 0.34636 0.50916 0.0
C2603 C 0.0675 0.31975 0.50203 0.0
C2604 C 0.09611 0.33182 0.49474 0.0
C2605 C 0.10738 0.36776 0.49505 0.0
C2606 C 1.02 0.33641 0.51731 0.0
C2607 C 0.1147 0.30674 0.48625 0.0
H2608 H 0.07356 0.19742 0.51434 0.0
H2609 H 0.99383 0.22557 0.48856 0.0
H2610 H 0.12487 0.26999 0.5123 0.0
H2611 H 0.09361 0.28571 0.52322 0.0
H2612 H 0.10852 0.24055 0.5238 0.0
H2613 H 0.99045 0.28107 0.47953 0.0
H2614 H 0.99541 0.31458 0.49094 0.0
H2615 H 1.02956 0.30759 0.48001 0.0
H2616 H 1.04749 0.40182 0.51449 0.0
H2617 H 0.12975 0.37533 0.48955 0.0
H2618 H 1.02668 0.31241 0.52262 0.0
H2619 H 0.99658 0.33043 0.51168 0.0
H2620 H 1.01288 0.35782 0.52373 0.0
H2621 H 0.12687 0.28489 0.49149 0.0
H2622 H 0.13551 0.31978 0.4808 0.0
H2623 H 0.09532 0.29504 0.47991 0.0
C2624 C 0.62392 0.25515 0.26343 0.0
C2625 C 0.6516 0.27426 0.25791 0.0
C2626 C 0.58797 0.26718 0.26377 0.0
C2627 C 0.57716 0.29917 0.25801 0.0
C2628 C 0.60485 0.31845 0.25217 0.0
C2629 C 0.64109 0.30635 0.25237 0.0
C2630 C 0.56125 0.24517 0.27039 0.0
C2631 C 0.59615 0.35182 0.24537 0.0
C2632 C 0.47504 0.30945 0.25047 0.0
C2633 C 0.46205 0.33338 0.25926 0.0
C2634 C 0.51176 0.29947 0.2497 0.0
C2635 C 0.53742 0.31186 0.25821 0.0
C2636 C 0.52421 0.33569 0.26718 0.0
C2637 C 0.48782 0.34657 0.26738 0.0
C2638 C 0.52341 0.27633 0.23939 0.0
C2639 C 0.54877 0.35015 0.27666 0.0
H2640 H 0.63046 0.23019 0.26766 0.0
H2641 H 0.66103 0.32156 0.24774 0.0
H2642 H 0.5463 0.26164 0.27695 0.0
H2643 H 0.54206 0.23443 0.26379 0.0
H2644 H 0.57361 0.22291 0.2754 0.0
H2645 H 0.6186 0.36109 0.23977 0.0
H2646 H 0.57305 0.34786 0.23935 0.0
H2647 H 0.58909 0.37276 0.25195 0.0
H2648 H 0.45671 0.29961 0.24375 0.0
H2649 H 0.47941 0.3657 0.27408 0.0
H2650 H 0.53107 0.2502 0.24302 0.0
H2651 H 0.54692 0.28748 0.23485 0.0
H2652 H 0.50229 0.2733 0.23252 0.0
H2653 H 0.56377 0.32846 0.28107 0.0
H2654 H 0.53454 0.36522 0.2838 0.0
H2655 H 0.5681 0.36778 0.27226 0.0
C2656 C 0.56807 0.89391 0.99906 0.0
C2657 C 0.59706 0.90457 1.00623 0.0
C2658 C 0.55675 0.85786 0.99825 0.0
C2659 C 0.57348 0.83015 1.0051 0.0
C2660 C 0.60236 0.84111 1.01254 0.0
C2661 C 0.61393 0.87706 1.01278 0.0
C2662 C 0.52642 0.85014 0.98989 0.0
C2663 C 0.62152 0.81484 1.02045 0.0
C2664 C 0.51614 0.74475 1.0104 0.0
C2665 C 0.53516 0.7168 1.00492 0.0
C2666 C 0.52834 0.7804 1.01073 0.0
C2667 C 0.56038 0.79072 1.00491 0.0
C2668 C 0.57955 0.76255 0.99912 0.0
C2669 C 0.56729 0.72667 0.99941 0.0
C2670 C 0.50608 0.80696 1.01745 0.0
C2671 C 0.61313 0.76957 0.99227 0.0
H2672 H 0.55443 0.91378 0.99373 0.0
H2673 H 0.63648 0.8837 1.01833 0.0
H2674 H 0.52526 0.82212 0.98718 0.0
H2675 H 0.50166 0.85733 0.99462 0.0
H2676 H 0.5279 0.86655 0.98153 0.0
H2677 H 0.63534 0.82787 1.02811 0.0
H2678 H 0.60325 0.79502 1.02426 0.0
H2679 H 0.64158 0.80092 1.0149 0.0
H2680 H 0.49117 0.73872 1.01466 0.0
H2681 H 0.58259 0.70646 0.99487 0.0
H2682 H 0.48662 0.81859 1.01106 0.0
H2683 H 0.52211 0.82843 1.02135 0.0
H2684 H 0.49113 0.79434 1.02495 0.0
H2685 H 0.61669 0.79775 0.99005 0.0
H2686 H 0.61372 0.75427 0.98367 0.0
H2687 H 0.6358 0.76039 0.99783 0.0
C2688 C 0.12849 0.35334 0.89922 0.0
C2689 C 0.15593 0.3391 0.89194 0.0
C2690 C 0.09274 0.34085 0.89906 0.0
C2691 C 0.08144 0.3141 0.89076 0.0
C2692 C 0.10918 0.29999 0.88318 0.0
C2693 C 0.14528 0.31171 0.88409 0.0
C2694 C 0.06745 0.35691 0.90809 0.0
C2695 C 0.10139 0.27239 0.87377 0.0
C2696 C 0.99728 0.25248 0.89274 0.0
C2697 C 0.96772 0.27382 0.88973 0.0
C2698 C 1.03277 0.2651 0.89353 0.0
C2699 C 1.04185 0.30041 0.89031 0.0
C2700 C 1.01214 0.32201 0.88673 0.0
C2701 C 0.97628 0.30904 0.88682 0.0
C2702 C 0.0601 0.23942 0.89811 0.0
C2703 C 1.01743 0.35924 0.88249 0.0
H2704 H 0.13512 0.37448 0.90539 0.0
H2705 H 0.16502 0.30013 0.87819 0.0
H2706 H 0.05769 0.38238 0.90445 0.0
H2707 H 1.04463 0.33979 0.91003 0.0
H2708 H 0.08104 0.36257 0.91682 0.0
H2709 H 0.10952 0.24631 0.87737 0.0
H2710 H 0.07315 0.27155 0.87125 0.0
H2711 H 0.11702 0.27712 0.86539 0.0
H2712 H 0.9929 0.22498 0.89467 0.0
H2713 H 0.95497 0.32663 0.88426 0.0
H2714 H 0.08544 0.25194 0.90038 0.0
H2715 H 0.06472 0.21897 0.8911 0.0
H2716 H 1.0502 0.22579 0.90637 0.0
H2717 H 1.00934 0.37748 0.88986 0.0
H2718 H 1.00029 0.36499 0.87453 0.0
H2719 H 1.04507 0.36472 0.87992 0.0
C2720 C 0.50748 0.36689 0.64997 0.0
C2721 C 0.52553 0.3946 0.64402 0.0
C2722 C 0.51949 0.33098 0.65007 0.0
C2723 C 0.55039 0.32013 0.64365 0.0
C2724 C 0.56897 0.34798 0.63761 0.0
C2725 C 0.55693 0.38419 0.63802 0.0
C2726 C 0.49888 0.30448 0.65732 0.0
C2727 C 0.60187 0.33953 0.63054 0.0
C2728 C 0.60065 0.23169 0.65211 0.0
C2729 C 0.58771 0.20579 0.644 0.0
C2730 C 0.58872 0.26762 0.65219 0.0
C2731 C 0.56336 0.28045 0.64363 0.0
C2732 C 0.55004 0.25449 0.63536 0.0
C2733 C 0.56174 0.21813 0.63573 0.0
C2734 C 0.60338 0.29196 0.66169 0.0
C2735 C 0.52363 0.26536 0.62583 0.0
H2736 H 0.48348 0.37338 0.65481 0.0
H2737 H 0.57187 0.40425 0.63335 0.0
H2738 H 0.48687 0.28508 0.6511 0.0
H2739 H 0.51669 0.28982 0.66357 0.0
H2740 H 0.47761 0.31694 0.66279 0.0
H2741 H 0.61009 0.36178 0.62465 0.0
H2742 H 0.62362 0.33346 0.63695 0.0
H2743 H 0.59784 0.31599 0.62477 0.0
H2744 H 0.62047 0.22369 0.65867 0.0
H2745 H 0.55116 0.19961 0.62924 0.0
H2746 H 0.58154 0.30505 0.66668 0.0
H2747 H 0.6191 0.31275 0.65723 0.0
H2748 H 0.62043 0.27803 0.66839 0.0
H2749 H 0.49881 0.27391 0.63026 0.0
H2750 H 0.51761 0.24371 0.61941 0.0
H2751 H 0.53375 0.28813 0.62058 0.0
C2752 C 0.62604 0.85096 0.39747 0.0
C2753 C 0.65343 0.83427 0.39078 0.0
C2754 C 0.59014 0.83928 0.39757 0.0
C2755 C 0.57894 0.81008 0.39045 0.0
C2756 C 0.6064 0.79287 0.38364 0.0
C2757 C 0.64264 0.80462 0.38398 0.0
C2758 C 0.56401 0.8584 0.40554 0.0
C2759 C 0.59737 0.7619 0.37577 0.0
C2760 C 0.49214 0.75814 0.39874 0.0
C2761 C 0.46504 0.77251 0.39128 0.0
C2762 C 0.52788 0.77024 0.39872 0.0
C2763 C 0.53938 0.79713 0.39059 0.0
C2764 C 0.51227 0.8119 0.38295 0.0
C2765 C 0.47605 0.80007 0.38349 0.0
C2766 C 0.55351 0.75398 0.40762 0.0
C2767 C 0.5217 0.8401 0.37392 0.0
H2768 H 0.63279 0.87365 0.40291 0.0
H2769 H 0.66236 0.79091 0.37864 0.0
H2770 H 0.54366 0.87131 0.3998 0.0
H2771 H 0.55035 0.8395 0.41159 0.0
H2772 H 0.57667 0.87873 0.41127 0.0
H2773 H 0.62008 0.75294 0.37019 0.0
H2774 H 0.58863 0.73974 0.38156 0.0
H2775 H 0.57516 0.76884 0.36962 0.0
H2776 H 0.48533 0.73687 0.40484 0.0
H2777 H 0.45663 0.81181 0.37748 0.0
H2778 H 0.56727 0.7748 0.4128 0.0
H2779 H 0.57383 0.73877 0.40261 0.0
H2780 H 0.54039 0.73615 0.4142 0.0
H2781 H 0.53024 0.864 0.37882 0.0
H2782 H 0.49926 0.84719 0.36789 0.0
H2783 H 0.54416 0.83119 0.36821 0.0
C2784 C 1.04965 0.88343 0.15218 0.0
C2785 C 1.02237 0.89548 0.14442 0.0
C2786 C 0.06073 0.84705 0.15267 0.0
C2787 C 1.04567 0.82092 0.14486 0.0
C2788 C 1.01877 0.83339 0.13681 0.0
C2789 C 1.00713 0.86938 0.13694 0.0
C2790 C 0.08844 0.83676 0.16185 0.0
C2791 C 1.00202 0.8086 0.12788 0.0
C2792 C 0.1009 0.73471 0.1381 0.0
C2793 C 0.08275 0.70713 0.14402 0.0
C2794 C 0.089 0.77062 0.13812 0.0
C2795 C 0.05844 0.78138 0.14474 0.0
C2796 C 1.04019 0.75372 0.15097 0.0
C2797 C 1.05192 0.71755 0.15034 0.0
C2798 C 0.10948 0.79727 0.1309 0.0
C2799 C 1.00834 0.76223 0.15861 0.0
H2800 H 0.06158 0.90221 0.1583 0.0
H2801 H 0.98581 0.87727 0.13095 0.0
H2802 H 0.08439 0.80968 0.16531 0.0
H2803 H 0.11473 0.83788 0.15749 0.0
H2804 H 0.08851 0.85505 0.16971 0.0
H2805 H 0.98568 0.82268 0.12102 0.0
H2806 H 1.02251 0.79304 0.12305 0.0
H2807 H 0.98495 0.7899 0.13283 0.0
H2808 H 0.12485 0.72812 0.13323 0.0
H2809 H 1.03751 0.69756 0.15525 0.0
H2810 H 0.12255 0.81576 0.13721 0.0
H2811 H 0.09143 0.81288 0.12502 0.0
H2812 H 0.12994 0.78481 0.12509 0.0
H2813 H 1.01214 0.78706 0.16371 0.0
H2814 H 1.00246 0.74086 0.1652 0.0
H2815 H 0.98509 0.76571 0.15262 0.0
C2816 C 0.32151 0.26255 0.35177 0.0
C2817 C 0.28876 0.26803 0.35758 0.0
C2818 C 0.32834 0.27346 0.33946 0.0
C2819 C 0.30262 0.29252 0.33247 0.0
C2820 C 0.26971 0.29887 0.33848 0.0
C2821 C 0.26312 0.2861 0.35058 0.0
C2822 C 0.36361 0.26381 0.3341 0.0
C2823 C 0.24071 0.31942 0.33229 0.0
C2824 C 0.34071 0.34503 0.30431 0.0
C2825 C 0.32335 0.33079 0.29408 0.0
C2826 C 0.33377 0.33377 0.31657 0.0
C2827 C 0.30994 0.30568 0.31914 0.0
C2828 C 0.2931 0.29056 0.30873 0.0
C2829 C 0.29919 0.3037 0.29664 0.0
C2830 C 0.35236 0.35271 0.32672 0.0
C2831 C 0.26855 0.25985 0.31007 0.0
H2832 H 0.34206 0.24898 0.35679 0.0
H2833 H 0.23762 0.29104 0.35468 0.0
H2834 H 0.36346 0.2639 0.324 0.0
H2835 H 0.38355 0.28277 0.33733 0.0
H2836 H 0.37207 0.23734 0.33728 0.0
H2837 H 0.22543 0.33502 0.33903 0.0
H2838 H 0.2508 0.33753 0.3252 0.0
H2839 H 0.2222 0.3008 0.32798 0.0
H2840 H 0.35945 0.36591 0.30278 0.0
H2841 H 0.28549 0.29177 0.28906 0.0
H2842 H 0.37873 0.34065 0.32807 0.0
H2843 H 0.33767 0.35147 0.33544 0.0
H2844 H 0.35644 0.38075 0.32432 0.0
H2845 H 0.27283 0.24504 0.31866 0.0
H2846 H 0.27177 0.24142 0.30231 0.0
H2847 H 0.24099 0.26962 0.30984 0.0
C2848 C 1.01846 1.0409 0.54623 0.0
C2849 C 1.03054 0.06926 0.53901 0.0
C2850 C 1.03022 1.03467 0.55853 0.0
C2851 C 1.05651 1.05604 0.56412 0.0
C2852 C 0.06936 0.08428 0.55675 0.0
C2853 C 1.05595 0.09086 0.54467 0.0
C2854 C 1.01387 1.00506 0.56563 0.0
C2855 C 0.09787 0.10775 0.56159 0.0
C2856 C 0.0688 0.06186 0.5999 0.0
C2857 C 0.09545 1.03687 0.60275 0.0
C2858 C 1.05586 0.06776 0.58774 0.0
C2859 C 0.07004 1.04925 0.57752 0.0
C2860 C 0.09727 1.02424 0.58032 0.0
C2861 C 0.109 1.0181 0.59265 0.0
C2862 C 1.02634 0.09389 0.58589 0.0
C2863 C 0.11452 1.00382 0.57019 0.0
H2864 H 0.99895 1.02366 0.54231 0.0
H2865 H 0.06624 0.11274 0.53948 0.0
H2866 H 1.03338 0.98353 0.5668 0.0
H2867 H 1.00607 1.01414 0.57485 0.0
H2868 H 0.99035 0.99429 0.56097 0.0
H2869 H 0.1099 0.12392 0.55429 0.0
H2870 H 0.08661 0.12569 0.56853 0.0
H2871 H 0.11887 0.09192 0.56607 0.0
H2872 H 1.05729 0.07671 0.60733 0.0
H2873 H 0.12933 0.9986 0.59434 0.0
H2874 H 1.00535 0.08233 0.58015 0.0
H2875 H 1.03641 0.11732 0.58104 0.0
H2876 H 1.01457 0.1026 0.59464 0.0
H2877 H 0.0956 0.98466 0.56642 0.0
H2878 H 0.13824 0.98921 0.57336 0.0
H2879 H 0.12218 1.02175 0.56267 0.0
C2880 C 0.34146 0.82243 0.84986 0.0
C2881 C 0.31764 0.8452 0.85589 0.0
C2882 C 0.33527 0.80871 0.83788 0.0
C2883 C 0.30491 0.8188 0.83091 0.0
C2884 C 0.28097 0.8424 0.83694 0.0
C2885 C 0.28711 0.85432 0.8492 0.0
C2886 C 0.36192 0.78293 0.83291 0.0
C2887 C 0.24843 0.85592 0.83058 0.0
C2888 C 0.31497 0.80144 0.79546 0.0
C2889 C 0.28694 0.77876 0.79251 0.0
C2890 C 0.32035 0.81518 0.8075 0.0
C2891 C 0.29852 0.80503 0.81756 0.0
C2892 C 0.27069 0.78123 0.81461 0.0
C2893 C 0.2648 0.7696 0.80234 0.0
C2894 C 0.34981 0.84105 0.80916 0.0
C2895 C 0.24664 0.76707 0.82434 0.0
H2896 H 0.36515 0.81445 0.85465 0.0
H2897 H 0.26805 0.87171 0.85344 0.0
H2898 H 0.35115 0.76634 0.82553 0.0
H2899 H 0.38484 0.79763 0.82935 0.0
H2900 H 0.37187 0.76543 0.84027 0.0
H2901 H 0.24298 0.88361 0.83318 0.0
H2902 H 0.25054 0.85451 0.82052 0.0
H2903 H 0.22551 0.84019 0.83355 0.0
H2904 H 0.33252 0.80943 0.7882 0.0
H2905 H 0.24287 0.75239 0.80053 0.0
H2906 H 0.37511 0.82646 0.80983 0.0
H2907 H 0.34651 0.85751 0.81741 0.0
H2908 H 0.35172 0.85866 0.80111 0.0
H2909 H 0.25835 0.7685 0.83358 0.0
H2910 H 0.23987 0.73928 0.82243 0.0
H2911 H 0.22166 0.78233 0.82424 0.0
C2912 C 0.51956 1.04324 0.0979 0.0
C2913 C 0.52839 0.07447 0.10413 0.0
C2914 C 0.52957 1.03655 0.08546 0.0
C2915 C 0.55113 0.06047 0.07874 0.0
C2916 C 0.56077 0.09177 0.08511 0.0
C2917 C 0.5489 0.09853 0.09734 0.0
C2918 C 0.51622 1.00372 0.07943 0.0
C2919 C 0.58361 0.11903 0.07912 0.0
C2920 C 0.60335 1.02225 1.05047 0.0
C2921 C 0.58704 1.03751 1.04009 0.0
C2922 C 0.59293 1.03014 1.06275 0.0
C2923 C 0.56354 1.0526 1.06531 0.0
C2924 C 0.54651 0.06763 1.05487 0.0
C2925 C 0.5586 0.06058 1.04266 0.0
C2926 C 0.61429 1.01476 1.07306 0.0
C2927 C 0.51509 0.09143 1.05658 0.0
H2928 H 0.50398 1.02397 0.1027 0.0
H2929 H 0.55647 0.12283 0.1017 0.0
H2930 H 0.50653 1.00967 1.07011 0.0
H2931 H 0.53799 0.98434 0.07862 0.0
H2932 H 0.49459 0.99145 0.08471 0.0
H2933 H 0.60231 0.13027 0.08582 0.0
H2934 H 0.59879 0.10851 1.0713 0.0
H2935 H 0.56665 0.14087 0.07579 0.0
H2936 H 0.62526 1.00439 1.04902 0.0
H2937 H 0.54521 0.07291 1.03504 0.0
H2938 H 0.59931 0.99335 0.07747 0.0
H2939 H 0.61957 1.03502 0.08007 0.0
H2940 H 0.63983 1.00379 1.06986 0.0
H2941 H 0.4958 0.07903 1.06282 0.0
H2942 H 0.5018 0.0977 1.04783 0.0
H2943 H 0.52366 0.11634 1.06083 0.0
C2944 C 0.35411 0.76389 0.34439 0.0
C2945 C 0.32962 0.76855 0.35395 0.0
C2946 C 0.34788 0.77605 0.33211 0.0
C2947 C 0.31732 0.79666 0.32894 0.0
C2948 C 0.29368 0.80342 0.3389 0.0
C2949 C 0.29933 0.78846 0.3508 0.0
C2950 C 0.37462 0.76606 0.32257 0.0
C2951 C 0.26213 0.82729 0.33739 0.0
C2952 C 0.32673 0.8457 0.29694 0.0
C2953 C 0.29691 0.83539 0.29016 0.0
C2954 C 0.33288 0.83487 0.30936 0.0
C2955 C 0.31011 0.81053 0.31551 0.0
C2956 C 0.27996 0.79998 0.30853 0.0
C2957 C 0.2737 0.81272 0.29637 0.0
C2958 C 0.36343 0.85163 0.31582 0.0
C2959 C 0.25285 0.77555 0.31371 0.0
H2960 H 0.37821 0.74976 0.34639 0.0
H2961 H 0.2801 0.79364 0.35788 0.0
H2962 H 0.36247 0.76324 0.31343 0.0
H2963 H 0.39517 0.7865 0.32214 0.0
H2964 H 0.38827 0.74112 0.32495 0.0
H2965 H 0.25975 0.84509 0.34535 0.0
H2966 H 0.26331 0.84361 0.32902 0.0
H2967 H 0.23792 0.81118 0.3372 0.0
H2968 H 0.34516 0.8634 0.29266 0.0
H2969 H 0.25025 0.80428 0.29161 0.0
H2970 H 0.38841 0.84129 0.31196 0.0
H2971 H 0.36319 0.84726 0.3258 0.0
H2972 H 0.36321 0.88041 0.31411 0.0
H2973 H 0.26261 0.76071 0.32171 0.0
H2974 H 0.24386 0.75687 0.30664 0.0
H2975 H 0.22935 0.79108 0.31643 0.0
C2976 C 0.60541 1.04335 0.59911 0.0
C2977 C 0.59255 0.07137 0.60633 0.0
C2978 C 0.59373 1.03714 0.58687 0.0
C2979 C 0.56721 0.05862 0.58127 0.0
C2980 C 0.55429 0.0872 0.58855 0.0
C2981 C 0.567 0.09314 0.6007 0.0
C2982 C 0.61059 1.00752 0.57984 0.0
C2983 C 0.5268 0.11238 0.58378 0.0
C2984 C 0.55253 0.06372 0.54561 0.0
C2985 C 0.52927 1.03587 0.54301 0.0
C2986 C 0.56511 0.07093 0.55771 0.0
C2987 C 0.55355 1.05105 0.56803 0.0
C2988 C 0.52921 1.02352 0.56545 0.0
C2989 C 0.51839 1.0159 0.55321 0.0
C2990 C 0.59141 0.09992 0.55943 0.0
C2991 C 0.51391 1.00165 0.57558 0.0
H2992 H 0.62521 1.0261 0.60303 0.0
H2993 H 0.55634 0.11498 0.60587 0.0
H2994 H 0.592 0.9853 0.57924 0.0
H2995 H 0.6169 1.01603 0.57042 0.0
H2996 H 0.63511 0.99785 0.58427 0.0
H2997 H 0.50408 0.11299 0.59014 0.0
H2998 H 0.53781 0.13931 0.58361 0.0
H2999 H 0.51736 0.10593 0.57452 0.0
H3000 H 0.56177 0.07959 0.53808 0.0
H3001 H 0.50051 0.99431 0.55168 0.0
H3002 H 0.61406 0.09037 0.56495 0.0
H3003 H 0.57888 0.12191 0.56448 0.0
H3004 H 0.60139 0.11019 0.55062 0.0
H3005 H 0.53037 0.97777 0.57689 0.0
H3006 H 0.48691 0.99288 0.57325 0.0
H3007 H 0.51278 1.01619 0.58432 0.0
C3008 C 0.3393 0.25523 0.80208 0.0
C3009 C 0.3259 0.27349 0.7918 0.0
C3010 C 0.33228 0.26579 0.8144 0.0
C3011 C 0.31282 0.29711 0.81708 0.0
C3012 C 0.29972 0.31607 0.80673 0.0
C3013 C 0.30564 0.30387 0.79448 0.0
C3014 C 0.34548 0.24273 0.82463 0.0
C3015 C 0.2794 0.34977 0.80857 0.0
C3016 C 0.26868 0.31439 0.84919 0.0
C3017 C 0.29435 0.33298 0.85588 0.0
C3018 C 0.27439 0.30225 0.83695 0.0
C3019 C 0.30625 0.30971 0.83052 0.0
C3020 C 0.33191 0.32923 0.83717 0.0
C3021 C 0.32605 0.33982 0.84958 0.0
C3022 C 0.24568 0.28137 0.83094 0.0
C3023 C 0.36576 0.33971 0.83106 0.0
H3024 H 0.35503 0.23184 0.80052 0.0
H3025 H 0.29495 0.31884 0.78692 0.0
H3026 H 0.36807 0.25549 0.82917 0.0
H3027 H 0.3246 0.23899 0.83157 0.0
H3028 H 0.35422 0.21652 0.82132 0.0
H3029 H 0.27537 0.36433 0.7999 0.0
H3030 H 0.25326 0.34381 0.81252 0.0
H3031 H 0.29336 0.36703 0.81509 0.0
H3032 H 0.2439 0.30866 0.85362 0.0
H3033 H 0.34629 0.35436 0.8543 0.0
H3034 H 0.25662 0.26129 0.82468 0.0
H3035 H 0.22873 0.29938 0.82554 0.0
H3036 H 0.22881 0.2681 0.83779 0.0
H3037 H 0.382 0.31601 0.82923 0.0
H3038 H 0.3814 0.35801 0.83673 0.0
H3039 H 0.36007 0.35246 0.82217 0.0
C3040 C 1.05548 1.05633 1.04523 0.0
C3041 C 0.0878 0.07354 1.04298 0.0
C3042 C 1.042 1.05027 1.05725 0.0
C3043 C 0.06091 0.06104 1.06782 0.0
C3044 C 0.0937 0.0782 1.06563 0.0
C3045 C 0.10639 0.08438 1.05347 0.0
C3046 C 1.00699 1.03228 1.05862 0.0
C3047 C 0.11576 0.09007 0.07622 0.0
C3048 C 1.01209 0.07105 0.09946 0.0
C3049 C 1.01926 1.03906 0.10559 0.0
C3050 C 1.02515 0.07844 0.08742 0.0
C3051 C 1.04676 1.05375 0.08099 0.0
C3052 C 1.05422 1.02158 0.0872 0.0
C3053 C 1.0405 1.01471 0.09914 0.0
C3054 C 1.01548 0.11293 0.08151 0.0
C3055 C 0.07703 0.99404 0.08122 0.0
H3056 H 1.04016 1.04774 1.03749 0.0
H3057 H 0.1312 0.09773 1.0522 0.0
H3058 H 1.01046 1.00727 1.06369 0.0
H3059 H 0.98875 1.04904 1.064 0.0
H3060 H 0.99457 1.02648 1.0497 0.0
H3061 H 0.14079 0.10229 1.07325 0.0
H3062 H 0.10074 0.10937 0.08175 0.0
H3063 H 0.12197 0.06735 0.08222 0.0
H3064 H 0.99592 0.09046 0.10405 0.0
H3065 H 1.0468 0.9899 0.1035 0.0
H3066 H 1.00157 0.10808 1.0728 0.0
H3067 H 1.03968 0.1278 0.07933 0.0
H3068 H 0.99838 0.12941 0.08742 0.0
H3069 H 0.06424 0.98473 1.07275 0.0
H3070 H 0.08196 0.97107 0.08725 0.0
H3071 H 0.10269 1.00554 0.07859 0.0
C3072 C 0.814 0.74829 0.84989 0.0
C3073 C 0.78393 0.75929 0.85653 0.0
C3074 C 0.82156 0.76061 0.83774 0.0
C3075 C 0.79901 0.78524 0.83163 0.0
C3076 C 0.76891 0.79672 0.83838 0.0
C3077 C 0.76179 0.78373 0.85043 0.0
C3078 C 0.85399 0.74701 0.83137 0.0
C3079 C 0.74406 0.8234 0.83287 0.0
C3080 C 0.83587 0.83978 0.80367 0.0
C3081 C 0.82001 0.82444 0.79332 0.0
C3082 C 0.82903 0.82799 0.81591 0.0
C3083 C 0.80659 0.79875 0.81834 0.0
C3084 C 0.79117 0.78274 0.80786 0.0
C3085 C 0.79742 0.79587 0.79577 0.0
C3086 C 0.84571 0.84741 0.82633 0.0
C3087 C 0.76876 0.75061 0.80939 0.0
H3088 H 0.83178 0.72965 0.85417 0.0
H3089 H 0.73857 0.79313 0.85517 0.0
H3090 H 0.84649 0.73444 0.82264 0.0
H3091 H 0.87168 0.76907 0.82908 0.0
H3092 H 0.86891 0.72779 0.83701 0.0
H3093 H 0.72304 0.83158 0.83932 0.0
H3094 H 0.75888 0.84701 0.82998 0.0
H3095 H 0.73155 0.8123 0.82462 0.0
H3096 H 0.85333 0.86178 0.80224 0.0
H3097 H 0.78506 0.78297 0.78811 0.0
H3098 H 0.86447 0.82988 0.83119 0.0
H3099 H 0.82525 0.8555 0.83299 0.0
H3100 H 0.86007 0.87112 0.82324 0.0
H3101 H 0.78494 0.72956 0.81362 0.0
H3102 H 0.75824 0.74085 0.8006 0.0
H3103 H 0.74645 0.75617 0.81562 0.0
C3104 C 0.8022 0.30239 0.35405 0.0
C3105 C 0.82199 0.33286 0.35659 0.0
C3106 C 0.79607 0.28996 0.34187 0.0
C3107 C 0.80828 0.30887 0.33143 0.0
C3108 C 0.82734 0.34033 0.33398 0.0
C3109 C 0.8346 0.35117 0.34626 0.0
C3110 C 0.77675 0.25588 0.3402 0.0
C3111 C 0.84008 0.3631 0.32367 0.0
C3112 C 0.82031 0.2638 0.29924 0.0
C3113 C 0.7883 0.27045 0.29301 0.0
C3114 C 0.82679 0.27541 0.31149 0.0
C3115 C 0.80139 0.29576 0.31807 0.0
C3116 C 0.76927 0.30319 0.31172 0.0
C3117 C 0.763 0.29018 0.29961 0.0
C3118 C 0.86118 0.26547 0.31746 0.0
C3119 C 0.74132 0.32555 0.31768 0.0
H3120 H 0.79224 0.28739 0.36169 0.0
H3121 H 0.84969 0.37481 0.34778 0.0
H3122 H 0.75056 0.26117 0.33612 0.0
H3123 H 0.79141 0.23847 0.33386 0.0
H3124 H 0.77291 0.24174 0.34896 0.0
H3125 H 0.84807 0.38954 0.32687 0.0
H3126 H 0.86311 0.3504 0.31926 0.0
H3127 H 0.81925 0.3663 0.31665 0.0
H3128 H 0.84051 0.24884 0.29455 0.0
H3129 H 0.7382 0.29624 0.29518 0.0
H3130 H 0.85626 0.25342 0.32651 0.0
H3131 H 0.87711 0.28935 0.31895 0.0
H3132 H 0.87679 0.24676 0.31186 0.0
H3133 H 0.72896 0.31065 0.32521 0.0
H3134 H 0.72039 0.33362 0.31116 0.0
H3135 H 0.75318 0.34949 0.32167 0.0
C3136 C 0.8178 0.34395 0.79486 0.0
C3137 C 0.78597 0.33655 0.78872 0.0
C3138 C 0.82455 0.33332 0.80725 0.0
C3139 C 0.80001 0.31242 0.81401 0.0
C3140 C 0.76819 0.30403 0.80763 0.0
C3141 C 0.76136 0.3168 0.79551 0.0
C3142 C 0.85846 0.34507 0.81302 0.0
C3143 C 0.74073 0.28092 0.81339 0.0
C3144 C 0.84188 0.26325 0.84252 0.0
C3145 C 0.82223 0.2751 0.85267 0.0
C3146 C 0.83448 0.27393 0.83021 0.0
C3147 C 0.80764 0.29943 0.82743 0.0
C3148 C 0.78825 0.31219 0.83777 0.0
C3149 C 0.79504 0.29945 0.84993 0.0
C3150 C 0.8557 0.25648 0.82029 0.0
C3151 C 0.76005 0.33992 0.83627 0.0
H3152 H 0.83745 0.3591 0.79005 0.0
H3153 H 0.73666 0.31021 0.79117 0.0
H3154 H 0.85568 0.34871 0.823 0.0
H3155 H 0.87914 0.32494 0.81136 0.0
H3156 H 0.86766 0.37011 0.80895 0.0
H3157 H 0.72889 0.26337 0.80646 0.0
H3158 H 0.75143 0.26443 0.82088 0.0
H3159 H 0.7192 0.2977 0.81702 0.0
H3160 H 0.86307 0.24462 0.84413 0.0
H3161 H 0.77945 0.30962 0.85741 0.0
H3162 H 0.84538 0.2616 0.81102 0.0
H3163 H 0.85619 0.22764 0.82179 0.0
H3164 H 0.88335 0.26557 0.82082 0.0
H3165 H 0.76333 0.35563 0.82784 0.0
H3166 H 0.75993 0.35809 0.84417 0.0
H3167 H 0.73398 0.32702 0.83603 0.0
C3168 C 0.76977 0.81116 0.34725 0.0
C3169 C 0.78882 0.83905 0.35258 0.0
C3170 C 0.77628 0.79872 0.33504 0.0
C3171 C 0.80184 0.81481 0.32728 0.0
C3172 C 0.82024 0.84378 0.33252 0.0
C3173 C 0.81419 0.85477 0.34489 0.0
C3174 C 0.7557 0.76776 0.33048 0.0
C3175 C 0.84617 0.86397 0.32491 0.0
C3176 C 0.84498 0.7672 0.29876 0.0
C3177 C 0.82413 0.7776 0.28865 0.0
C3178 C 0.83764 0.77812 0.31107 0.0
C3179 C 0.80925 0.80169 0.31387 0.0
C3180 C 0.7883 0.8125 0.30365 0.0
C3181 C 0.79545 0.8001 0.29149 0.0
C3182 C 0.86029 0.76371 0.3212 0.0
C3183 C 0.75779 0.83739 0.30543 0.0
H3184 H 0.75007 0.79825 0.35277 0.0
H3185 H 0.82916 0.87649 0.34851 0.0
H3186 H 0.73718 0.77662 0.32327 0.0
H3187 H 0.77369 0.74799 0.32636 0.0
H3188 H 0.74033 0.75498 0.33784 0.0
H3189 H 0.85645 0.88735 0.32974 0.0
H3190 H 0.86867 0.84674 0.32242 0.0
H3191 H 0.83344 0.87273 0.31631 0.0
H3192 H 0.86707 0.74972 0.29709 0.0
H3193 H 0.77869 0.80889 0.28408 0.0
H3194 H 0.84346 0.75216 0.32842 0.0
H3195 H 0.87549 0.78525 0.32542 0.0
H3196 H 0.87905 0.74328 0.31795 0.0
H3197 H 0.73404 0.82217 0.30787 0.0
H3198 H 0.75191 0.85249 0.29699 0.0
H3199 H 0.76303 0.85603 0.31291 0.0
C3200 C 0.62498 0.53878 0.09179 0.0
C3201 C 0.60324 0.54446 0.10205 0.0
C3202 C 0.61332 0.54546 0.07953 0.0
C3203 C 0.57817 0.55709 0.07695 0.0
C3204 C 0.55598 0.56235 0.0873 0.0
C3205 C 0.5687 0.55665 0.09947 0.0
C3206 C 0.63909 0.54021 1.06926 0.0
C3207 C 0.5182 0.57366 0.08553 0.0
C3208 C 0.55256 0.60431 1.0461 0.0
C3209 C 0.53902 0.5773 1.03864 0.0
C3210 C 0.56562 0.59812 1.05821 0.0
C3211 C 0.56479 0.56398 1.06363 0.0
C3212 C 0.55065 0.53667 1.05619 0.0
C3213 C 0.53862 0.54343 1.04397 0.0
C3214 C 0.58076 0.6285 1.06521 0.0
C3215 C 0.54779 0.49996 1.06123 0.0
H3216 H 0.65164 0.52949 0.09333 0.0
H3217 H 0.55097 0.56104 0.10705 0.0
H3218 H 0.63056 0.51791 1.06352 0.0
H3219 H 0.63967 0.56393 1.06337 0.0
H3220 H 0.66617 0.53469 1.07261 0.0
H3221 H 0.50331 0.57427 0.09423 0.0
H3222 H 0.51719 0.60023 0.08138 0.0
H3223 H 0.50484 0.55551 0.07915 0.0
H3224 H 0.5535 0.63068 1.04239 0.0
H3225 H 0.52831 0.52196 1.03862 0.0
H3226 H 0.60743 0.62158 1.06863 0.0
H3227 H 0.56408 0.63421 1.07326 0.0
H3228 H 0.58255 0.65271 1.05959 0.0
H3229 H 0.57442 0.48942 1.0633 0.0
H3230 H 0.5346 0.48185 1.05479 0.0
H3231 H 0.53279 0.50038 1.0699 0.0
C3232 C 1.00683 0.58487 0.5928 0.0
C3233 C 1.02322 0.56966 0.60315 0.0
C3234 C 1.0186 0.57828 0.58052 0.0
C3235 C 1.0487 0.55659 0.578 0.0
C3236 C 0.06565 0.54168 0.58845 0.0
C3237 C 1.05267 0.5478 0.60059 0.0
C3238 C 0.99831 0.59456 0.57014 0.0
C3239 C 0.0982 0.51929 0.58686 0.0
C3240 C 0.06532 0.5119 0.5459 0.0
C3241 C 0.08804 0.53509 0.53962 0.0
C3242 C 1.05207 0.51879 0.55795 0.0
C3243 C 0.06219 0.54932 0.56465 0.0
C3244 C 0.08567 0.57252 0.55842 0.0
C3245 C 0.09747 0.56563 0.54617 0.0
C3246 C 1.02669 0.49312 0.56352 0.0
C3247 C 0.09886 0.60488 0.56478 0.0
H3248 H 0.98415 0.60175 0.59427 0.0
H3249 H 0.06632 0.53573 0.60821 0.0
H3250 H 1.01478 0.61451 0.56553 0.0
H3251 H 0.99173 0.57425 0.56328 0.0
H3252 H 0.97358 0.60744 0.57324 0.0
H3253 H 0.11082 0.51257 0.5957 0.0
H3254 H 0.09128 0.49455 0.58216 0.0
H3255 H 0.11763 0.53314 0.58106 0.0
H3256 H 1.05717 0.48825 0.54124 0.0
H3257 H 0.11482 0.5842 0.54178 0.0
H3258 H 1.00332 0.50725 0.56717 0.0
H3259 H 1.0395 0.47931 0.57126 0.0
H3260 H 1.01772 0.47317 0.55686 0.0
H3261 H 0.07684 0.62379 0.56603 0.0
H3262 H 0.12006 0.61808 0.55956 0.0
H3263 H 0.10905 0.59797 0.57396 0.0
C3264 C 0.08447 0.53675 0.10257 0.0
C3265 C 0.08001 0.56939 0.10856 0.0
C3266 C 0.07221 0.53041 0.09036 0.0
C3267 C 1.05369 0.55678 0.08355 0.0
C3268 C 1.04883 0.58968 0.08961 0.0
C3269 C 0.06204 0.59556 0.10172 0.0
C3270 C 0.07941 0.49509 0.08469 0.0
C3271 C 1.02929 0.61905 0.08326 0.0
C3272 C 1.04712 0.55284 1.0476 0.0
C3273 C 1.01363 0.53817 1.04517 0.0
C3274 C 0.06028 0.55853 1.05972 0.0
C3275 C 1.0398 0.5502 1.07024 0.0
C3276 C 1.00584 0.53565 1.06785 0.0
C3277 C 0.99357 0.52963 1.05562 0.0
C3278 C 0.0967 0.57336 1.06125 0.0
C3279 C 0.98205 0.52639 0.07833 0.0
H3280 H 0.09801 0.51587 0.10743 0.0
H3281 H 0.05784 0.62096 0.10593 0.0
H3282 H 1.0542 0.48205 0.08248 0.0
H3283 H 0.09397 0.49851 0.07601 0.0
H3284 H 0.095 0.47757 0.09077 0.0
H3285 H 1.02609 0.64256 0.08914 0.0
H3286 H 1.04362 0.62678 0.07489 0.0
H3287 H 1.00285 0.60994 0.08042 0.0
H3288 H 0.06365 0.55956 1.03991 0.0
H3289 H 0.96781 0.51828 1.05425 0.0
H3290 H 0.11299 0.55541 1.06694 0.0
H3291 H 0.09516 0.59888 1.06608 0.0
H3292 H 0.11021 0.57741 1.05239 0.0
H3293 H 0.99477 0.50593 0.08407 0.0
H3294 H 0.95611 0.51656 0.07522 0.0
H3295 H 0.97772 0.5498 0.08416 0.0
C3296 C 0.50735 0.56095 0.59979 0.0
C3297 C 0.52223 0.5342 0.60718 0.0
C3298 C 0.5184 0.56736 0.58745 0.0
C3299 C 0.54636 0.54758 0.58196 0.0
C3300 C 0.56195 0.52097 0.58948 0.0
C3301 C 0.54961 0.51439 0.60167 0.0
C3302 C 0.49969 0.59549 0.5802 0.0
C3303 C 0.5923 0.49938 0.58467 0.0
C3304 C 0.55842 0.5428 0.54615 0.0
C3305 C 0.58401 0.56853 0.54347 0.0
C3306 C 0.54592 0.53614 0.55832 0.0
C3307 C 0.55937 0.55482 0.5686 0.0
C3308 C 0.58559 0.58046 0.56593 0.0
C3309 C 0.59704 0.5871 0.55367 0.0
C3310 C 0.51772 0.50904 0.56016 0.0
C3311 C 0.602 0.60103 0.57615 0.0
H3312 H 0.48651 0.57693 0.60363 0.0
H3313 H 0.56205 0.49381 0.60701 0.0
H3314 H 0.51856 0.61624 0.57755 0.0
H3315 H 0.489 0.58413 0.57168 0.0
H3316 H 0.47773 0.60782 0.58537 0.0
H3317 H 0.60297 0.48085 0.59159 0.0
H3318 H 0.58368 0.48413 0.57662 0.0
H3319 H 0.61379 0.51691 0.58161 0.0
H3320 H 0.54754 0.52802 0.53864 0.0
H3321 H 0.6168 0.60697 0.55209 0.0
H3322 H 0.49482 0.52103 0.5649 0.0
H3323 H 0.52784 0.48753 0.56605 0.0
H3324 H 0.50861 0.49759 0.55142 0.0
H3325 H 0.58146 0.6165 0.58096 0.0
H3326 H 0.62264 0.61926 0.57286 0.0
H3327 H 0.61392 0.58275 0.5829 0.0
C3328 C 0.31809 0.15538 0.43422 0.0
C3329 C 0.33516 0.17442 0.42475 0.0
C3330 C 0.33681 0.13633 0.44378 0.0
C3331 C 0.3746 0.13539 0.44459 0.0
C3332 C 0.39188 0.15407 0.43494 0.0
C3333 C 0.37259 0.17293 0.42551 0.0
C3334 C 0.31568 0.11706 0.45322 0.0
C3335 C 0.43148 0.15369 0.43439 0.0
C3336 C 0.42841 0.11408 0.47537 0.0
C3337 C 0.43601 0.07738 0.47519 0.0
C3338 C 0.40849 0.13239 0.46596 0.0
C3339 C 0.39572 0.11508 0.45523 0.0
C3340 C 0.4039 0.0781 0.45488 0.0
C3341 C 0.42268 0.06014 0.46467 0.0
C3342 C 0.40083 0.17094 0.46764 0.0
C3343 C 0.39284 0.05668 0.44405 0.0
H3344 H 0.28958 0.15535 0.43422 0.0
H3345 H 0.38733 0.1867 0.41857 0.0
H3346 H 0.32524 0.08958 0.45411 0.0
H3347 H 0.31931 0.12987 0.4622 0.0
H3348 H 0.28722 0.1166 0.45096 0.0
H3349 H 0.44157 0.16538 0.42581 0.0
H3350 H 0.44224 0.16871 0.44217 0.0
H3351 H 0.44155 0.12632 0.43518 0.0
H3352 H 0.43776 0.12889 0.48312 0.0
H3353 H 0.4276 1.03217 0.46387 0.0
H3354 H 0.37247 0.17646 0.46603 0.0
H3355 H 0.41595 0.18636 0.46087 0.0
H3356 H 0.40795 0.18019 0.47689 0.0
H3357 H 0.36665 1.04518 0.4459 0.0
H3358 H 0.41172 1.03483 0.44239 0.0
H3359 H 0.39087 0.07274 0.43563 0.0
C3360 C 0.29464 0.15665 0.7139 0.0
C3361 C 0.2771 0.17888 0.72243 0.0
C3362 C 0.27682 0.13832 0.70401 0.0
C3363 C 0.23941 0.14097 0.70196 0.0
C3364 C 0.22162 0.16287 0.71069 0.0
C3365 C 0.24007 0.18114 0.72039 0.0
C3366 C 0.29847 0.11558 0.69565 0.0
C3367 C 0.18221 0.16666 0.70994 0.0
C3368 C 0.1924 0.11782 0.66989 0.0
C3369 C 0.18031 0.08252 0.67088 0.0
C3370 C 0.21137 0.13625 0.67949 0.0
C3371 C 0.21908 0.1206 0.69115 0.0
C3372 C 0.20638 0.08523 0.69228 0.0
C3373 C 0.18833 0.06711 0.68242 0.0
C3374 C 0.2234 0.17318 0.67705 0.0
C3375 C 0.21178 0.06568 0.70408 0.0
H3376 H 0.32287 0.15357 0.71487 0.0
H3377 H 0.22491 0.19746 0.72656 0.0
H3378 H 0.28959 0.08795 0.69639 0.0
H3379 H 0.29442 0.12404 0.68607 0.0
H3380 H 0.327 0.1166 0.69781 0.0
H3381 H 0.17127 0.18266 0.71751 0.0
H3382 H 0.17478 0.17921 0.70117 0.0
H3383 H 0.16989 0.14031 0.71015 0.0
H3384 H 0.18724 0.13143 0.66139 0.0
H3385 H 0.17988 1.0404 0.68387 0.0
H3386 H 0.252 0.17536 0.67896 0.0
H3387 H 0.20952 0.19159 0.68325 0.0
H3388 H 0.21835 0.1815 0.66751 0.0
H3389 H 0.18905 1.04844 0.70602 0.0
H3390 H 0.21523 0.08348 0.71196 0.0
H3391 H 0.23575 1.04902 0.7033 0.0
C3392 C 0.15959 1.02654 0.96209 0.0
C3393 C 0.1725 1.03257 0.97412 0.0
C3394 C 0.17864 1.00797 0.95257 0.0
C3395 C 0.21374 0.9944 0.95423 0.0
C3396 C 0.22742 1.0009 0.96633 0.0
C3397 C 0.2072 1.0189 0.97586 0.0
C3398 C 0.16006 1.00316 0.94057 0.0
C3399 C 0.26426 0.9892 0.9694 0.0
C3400 C 0.25922 0.91689 0.93445 0.0
C3401 C 0.27294 0.93245 0.92362 0.0
C3402 C 0.24056 0.93579 0.94399 0.0
C3403 C 0.23496 0.9732 0.94366 0.0
C3404 C 0.24941 0.9894 0.93283 0.0
C3405 C 0.26718 0.96948 0.92318 0.0
C3406 C 0.22689 0.9145 0.95453 0.0
C3407 C 0.24685 1.0286 0.9313 0.0
H3408 H 0.13347 1.03643 0.95996 0.0
H3409 H 0.21919 1.02265 0.98471 0.0
H3410 H 0.16461 1.02664 0.9348 0.0
H3411 H 0.16956 0.97958 0.93561 0.0
H3412 H 0.13118 1.00089 0.94191 0.0
H3413 H 0.27619 1.00651 0.97638 0.0
H3414 H 0.26353 0.96221 0.97321 0.0
H3415 H 0.28132 0.98904 0.96121 0.0
H3416 H 0.26288 0.88881 0.93557 0.0
H3417 H 0.27721 0.98347 0.91533 0.0
H3418 H 0.20411 0.92725 0.95909 0.0
H3419 H 0.24833 0.91093 0.96129 0.0
H3420 H 0.21888 0.88792 0.95149 0.0
H3421 H 0.22238 1.03518 0.92626 0.0
H3422 H 0.26933 1.03879 0.92592 0.0
H3423 H 0.24622 1.04221 0.94022 0.0
C3424 C 0.32474 0.94935 0.21339 0.0
C3425 C 0.34202 0.92864 0.22248 0.0
C3426 C 0.34311 0.96809 0.20369 0.0
C3427 C 0.38086 0.96755 0.20241 0.0
C3428 C 0.39834 0.94684 0.2116 0.0
C3429 C 0.37938 0.92821 0.22114 0.0
C3430 C 0.32164 0.98917 0.19473 0.0
C3431 C 0.4379 0.94446 0.21144 0.0
C3432 C 0.43025 0.99232 0.1709 0.0
C3433 C 0.44134 1.02792 0.17202 0.0
C3434 C 0.41094 0.97324 0.18028 0.0
C3435 C 0.40175 0.98852 0.19184 0.0
C3436 C 0.41349 1.02417 0.19313 0.0
C3437 C 0.43211 1.04292 0.18349 0.0
C3438 C 0.40027 0.93597 0.17774 0.0
C3439 C 0.40624 1.04302 0.2049 0.0
H3440 H 0.29629 0.95097 0.21378 0.0
H3441 H 0.39437 0.91301 0.22771 0.0
H3442 H 0.32553 1.01757 0.1965 0.0
H3443 H 0.33047 0.98385 0.18528 0.0
H3444 H 0.29317 0.98334 0.19541 0.0
H3445 H 0.44846 0.92855 0.21912 0.0
H3446 H 0.44684 0.93255 0.20275 0.0
H3447 H 0.44925 0.97121 0.21191 0.0
H3448 H 0.43647 0.97898 0.16247 0.0
H3449 H 0.44031 0.06962 0.18509 0.0
H3450 H 0.37142 0.9332 0.17897 0.0
H3451 H 0.41325 0.91803 0.18436 0.0
H3452 H 0.40738 0.92752 0.16838 0.0
H3453 H 0.37873 1.05299 0.2048 0.0
H3454 H 0.42427 0.0654 0.20622 0.0
H3455 H 0.40903 1.02514 0.21283 0.0
C3456 C 0.79014 0.93263 0.71581 0.0
C3457 C 0.77216 0.91693 0.7258 0.0
C3458 C 0.77272 0.9519 0.70605 0.0
C3459 C 0.73518 0.95685 0.70556 0.0
C3460 C 0.71692 0.9414 0.71569 0.0
C3461 C 0.73499 0.9221 0.72534 0.0
C3462 C 0.7957 0.96687 0.6962 0.0
C3463 C 0.67755 0.94557 0.71644 0.0
C3464 C 0.69247 1.03376 0.68491 0.0
C3465 C 0.67901 1.01712 0.6743 0.0
C3466 C 0.71034 1.01519 0.69475 0.0
C3467 C 0.71541 0.97775 0.69475 0.0
C3468 C 0.70214 0.96084 0.68401 0.0
C3469 C 0.68465 0.98008 0.67424 0.0
C3470 C 0.72453 1.03607 0.70526 0.0
C3471 C 0.70707 0.92177 0.6827 0.0
H3472 H 0.81854 0.92981 0.71552 0.0
H3473 H 0.71956 0.91095 0.73266 0.0
H3474 H 0.78132 0.98345 0.68952 0.0
H3475 H 0.81661 0.98297 0.70044 0.0
H3476 H 0.8086 0.94496 0.69123 0.0
H3477 H 0.66656 0.93379 0.72486 0.0
H3478 H 0.67036 0.97388 0.71615 0.0
H3479 H 0.6651 0.93295 0.70844 0.0
H3480 H 0.68934 0.06192 0.6855 0.0
H3481 H 0.67522 0.96567 0.66641 0.0
H3482 H 0.75319 1.03099 0.70627 0.0
H3483 H 0.71166 1.02753 0.71383 0.0
H3484 H 0.72026 0.06472 0.70408 0.0
H3485 H 0.73554 0.91512 0.68318 0.0
H3486 H 0.69628 0.91177 0.67398 0.0
H3487 H 0.69395 0.90802 0.69035 0.0
C3488 C 0.91788 1.03627 0.46317 0.0
C3489 C 0.94105 1.01865 0.47141 0.0
C3490 C 0.8982 1.01868 0.4536 0.0
C3491 C 0.90136 0.98162 0.45132 0.0
C3492 C 0.92449 0.96367 0.45967 0.0
C3493 C 0.9433 0.98177 0.46933 0.0
C3494 C 0.87378 1.04053 0.44583 0.0
C3495 C 0.92924 0.92454 0.45849 0.0
C3496 C 0.82706 0.93124 0.43201 0.0
C3497 C 0.84155 0.92565 0.4202 0.0
C3498 C 0.84564 0.94849 0.44189 0.0
C3499 C 0.88068 0.96196 0.44054 0.0
C3500 C 0.89532 0.95669 0.42861 0.0
C3501 C 0.87634 0.93889 0.41892 0.0
C3502 C 0.82718 0.95274 0.45393 0.0
C3503 C 0.93157 0.97044 0.42595 0.0
H3504 H 0.91455 0.06435 0.46427 0.0
H3505 H 0.96033 0.96661 0.47529 0.0
H3506 H 0.88851 1.05042 0.43782 0.0
H3507 H 0.85114 1.02523 0.44241 0.0
H3508 H 0.8633 0.06328 0.45102 0.0
H3509 H 0.94679 0.91348 0.46565 0.0
H3510 H 0.90327 0.91147 0.45907 0.0
H3511 H 0.94052 0.91821 0.44943 0.0
H3512 H 0.80073 0.92171 0.43362 0.0
H3513 H 0.88903 0.93557 0.41017 0.0
H3514 H 0.8028 0.93701 0.45446 0.0
H3515 H 0.82015 0.98081 0.45527 0.0
H3516 H 0.84482 0.94482 0.46153 0.0
H3517 H 0.93226 0.99913 0.42772 0.0
H3518 H 0.93973 0.96557 0.41639 0.0
H3519 H 0.95099 0.9578 0.43214 0.0
C3520 C 0.8994 0.07399 0.17739 0.0
C3521 C 0.93542 0.08041 0.17463 0.0
C3522 C 0.88017 0.09152 0.18718 0.0
C3523 C 0.89563 0.11839 0.19474 0.0
C3524 C 0.93187 0.12525 0.19176 0.0
C3525 C 0.95071 0.10626 0.1823 0.0
C3526 C 0.84278 0.0803 0.18942 0.0
C3527 C 0.95196 0.15322 0.19844 0.0
C3528 C 0.82698 0.18103 0.21293 0.0
C3529 C 0.83659 0.17906 0.22545 0.0
C3530 C 0.84546 0.16264 0.2032 0.0
C3531 C 0.87459 0.13893 0.20543 0.0
C3532 C 0.88352 0.13595 0.21818 0.0
C3533 C 0.86568 0.15612 0.22763 0.0
C3534 C 0.83348 0.17031 0.1904 0.0
C3535 C 0.91201 0.1108 0.22223 0.0
H3536 H 0.88605 1.05425 0.17205 0.0
H3537 H 0.97818 0.11238 0.18081 0.0
H3538 H 0.83484 0.08407 0.19905 0.0
H3539 H 0.8249 0.09608 0.18354 0.0
H3540 H 0.83914 1.05224 0.18699 0.0
H3541 H 0.96924 0.16774 0.19204 0.0
H3542 H 0.93455 0.17244 0.20309 0.0
H3543 H 0.96934 0.14046 0.20528 0.0
H3544 H 0.80513 0.19816 0.21054 0.0
H3545 H 0.87438 0.15307 0.23698 0.0
H3546 H 0.80656 0.1598 0.1891 0.0
H3547 H 0.85108 0.15926 0.18332 0.0
H3548 H 0.83201 0.19915 0.189 0.0
H3549 H 0.91667 0.08949 0.21555 0.0
H3550 H 0.90515 0.09868 0.23112 0.0
H3551 H 0.9368 0.12549 0.22357 0.0
C3552 C 0.71482 0.07152 0.96502 0.0
C3553 C 0.68494 0.0864 0.97098 0.0
C3554 C 0.73426 0.08917 0.95535 0.0
C3555 C 0.72421 0.1232 0.95067 0.0
C3556 C 0.69376 0.13798 0.95656 0.0
C3557 C 0.67542 0.1202 0.96639 0.0
C3558 C 0.76612 0.0709 0.95015 0.0
C3559 C 0.67998 0.17321 0.95239 0.0
C3560 C 0.78952 0.1892 0.93338 0.0
C3561 C 0.78432 0.18434 0.92063 0.0
C3562 C 0.77162 0.16954 0.94282 0.0
C3563 C 0.74553 0.14362 0.94015 0.0
C3564 C 0.73995 0.13843 0.92727 0.0
C3565 C 0.75917 0.15789 0.91793 0.0
C3566 C 0.78107 0.17691 0.95589 0.0
C3567 C 0.71297 0.11216 0.92325 0.0
H3568 H 0.72354 1.04575 0.968 0.0
H3569 H 0.6528 0.13306 0.97046 0.0
H3570 H 0.75967 0.06057 0.94099 0.0
H3571 H 0.78821 0.08959 0.94909 0.0
H3572 H 0.77496 1.04855 0.95594 0.0
H3573 H 0.65372 0.17938 0.95631 0.0
H3574 H 0.69854 0.19403 0.9552 0.0
H3575 H 0.67806 0.174 0.94231 0.0
H3576 H 0.80842 0.20883 0.93614 0.0
H3577 H 0.75369 0.15276 0.90843 0.0
H3578 H 0.78365 0.15206 0.96114 0.0
H3579 H 0.75983 0.19277 0.96015 0.0
H3580 H 0.80607 0.19168 0.95667 0.0
H3581 H 0.72265 0.08525 0.9253 0.0
H3582 H 0.70746 0.11401 0.91333 0.0
H3583 H 0.68801 0.11611 0.92833 0.0
C3584 C 0.82396 0.64236 0.9282 0.0
C3585 C 0.82568 0.67949 0.92656 0.0
C3586 C 0.84173 0.62341 0.93806 0.0
C3587 C 0.8632 0.64066 0.94704 0.0
C3588 C 0.86486 0.67806 0.9454 0.0
C3589 C 0.84652 0.69634 0.9356 0.0
C3590 C 0.83699 0.58427 0.93897 0.0
C3591 C 0.88655 0.69934 0.95412 0.0
C3592 C 0.89261 0.59628 0.97923 0.0
C3593 C 0.92698 0.58226 0.97719 0.0
C3594 C 0.87203 0.61461 0.96986 0.0
C3595 C 0.88478 0.62014 0.95759 0.0
C3596 C 0.9194 0.60609 0.95561 0.0
C3597 C 0.93911 0.58784 0.96503 0.0
C3598 C 0.83566 0.6272 0.97315 0.0
C3599 C 0.93626 0.61037 0.94328 0.0
H3600 H 0.80821 0.62773 0.92178 0.0
H3601 H 0.84881 0.72464 0.93502 0.0
H3602 H 0.86287 0.57077 0.93818 0.0
H3603 H 0.82604 0.57749 0.94804 0.0
H3604 H 0.81917 0.57404 0.9318 0.0
H3605 H 0.8858 0.72784 0.95196 0.0
H3606 H 0.87676 0.69548 0.96355 0.0
H3607 H 0.91431 0.69008 0.9539 0.0
H3608 H 0.88126 0.59265 0.98818 0.0
H3609 H 0.96495 0.57765 0.96273 0.0
H3610 H 0.81629 0.60807 0.96964 0.0
H3611 H 0.82975 0.6531 0.96895 0.0
H3612 H 0.83213 0.62924 0.98316 0.0
H3613 H 0.92105 0.59561 0.93638 0.0
H3614 H 0.96393 0.60074 0.94313 0.0
H3615 H 0.93583 0.63844 0.94053 0.0
C3616 C 0.71264 0.60852 0.16748 0.0
C3617 C 0.68351 0.58626 0.17013 0.0
C3618 C 0.73185 0.62844 0.17676 0.0
C3619 C 0.72378 0.62657 0.18963 0.0
C3620 C 0.69512 0.60342 0.19228 0.0
C3621 C 0.67571 0.58505 0.18286 0.0
C3622 C 0.76127 0.65192 0.17266 0.0
C3623 C 0.68474 0.59736 0.20536 0.0
C3624 C 0.79438 0.65649 0.21532 0.0
C3625 C 0.78101 0.68828 0.22047 0.0
C3626 C 0.77662 0.6367 0.20575 0.0
C3627 C 0.74424 0.64834 0.20014 0.0
C3628 C 0.73107 0.6808 0.20516 0.0
C3629 C 0.74863 0.69931 0.21504 0.0
C3630 C 0.7929 0.60256 0.20167 0.0
C3631 C 0.69781 0.69661 0.2 0.0
H3632 H 0.72035 0.61105 0.15803 0.0
H3633 H 0.65388 0.5688 0.18567 0.0
H3634 H 0.76004 0.67753 0.17747 0.0
H3635 H 0.78687 0.63935 0.17493 0.0
H3636 H 0.76047 0.65674 0.16269 0.0
H3637 H 0.66681 0.57462 0.20638 0.0
H3638 H 0.70844 0.59265 0.21107 0.0
H3639 H 0.67116 0.62107 0.20892 0.0
H3640 H 0.81891 0.64634 0.21898 0.0
H3641 H 0.73684 0.72337 0.21842 0.0
H3642 H 0.80541 0.60636 0.19265 0.0
H3643 H 0.7725 0.58204 0.20066 0.0
H3644 H 0.81327 0.59298 0.20815 0.0
H3645 H 0.69815 0.69553 0.1899 0.0
H3646 H 0.69405 0.72434 0.20288 0.0
H3647 H 0.67488 0.68129 0.20319 0.0
C3648 C 0.73913 0.42571 0.42547 0.0
C3649 C 0.77648 0.42471 0.42435 0.0
C3650 C 0.72032 0.44483 0.43492 0.0
C3651 C 0.73807 0.46419 0.44429 0.0
C3652 C 0.77581 0.46364 0.44313 0.0
C3653 C 0.79401 0.44443 0.43352 0.0
C3654 C 0.6807 0.44446 0.4347 0.0
C3655 C 0.79748 0.48336 0.45228 0.0
C3656 C 0.69221 0.54026 0.46459 0.0
C3657 C 0.67796 0.52305 0.47498 0.0
C3658 C 0.71062 0.52209 0.45479 0.0
C3659 C 0.71754 0.48481 0.45499 0.0
C3660 C 0.70398 0.46755 0.46565 0.0
C3661 C 0.68434 0.48612 0.47504 0.0
C3662 C 0.72239 0.54384 0.44411 0.0
C3663 C 0.71031 0.42873 0.46732 0.0
H3664 H 0.72403 0.41135 0.41878 0.0
H3665 H 0.8225 0.44482 0.43326 0.0
H3666 H 0.67103 0.42591 0.44172 0.0
H3667 H 0.66977 0.47087 0.43682 0.0
H3668 H 0.67037 0.43595 0.42573 0.0
H3669 H 0.82582 0.48358 0.44985 0.0
H3670 H 0.78811 0.51093 0.45297 0.0
H3671 H 0.79426 0.47111 0.46139 0.0
H3672 H 0.68823 0.5684 0.46385 0.0
H3673 H 0.67425 0.47127 0.48269 0.0
H3674 H 0.7291 0.52788 0.43599 0.0
H3675 H 0.74592 0.55905 0.44681 0.0
H3676 H 0.70139 0.56287 0.44152 0.0
H3677 H 0.69101 0.41398 0.46179 0.0
H3678 H 0.70714 0.42063 0.47698 0.0
H3679 H 0.73712 0.42112 0.46423 0.0
C3680 C 0.87041 0.42612 0.72005 0.0
C3681 C 0.83294 0.42368 0.72054 0.0
C3682 C 0.88978 0.4452 0.71068 0.0
C3683 C 0.87271 0.46351 0.7008 0.0
C3684 C 0.83486 0.46169 0.70137 0.0
C3685 C 0.81609 0.44228 0.71083 0.0
C3686 C 0.92932 0.44602 0.71149 0.0
C3687 C 0.81349 0.48007 0.69172 0.0
C3688 C 0.92048 0.53953 0.68099 0.0
C3689 C 0.9337 0.52305 0.67023 0.0
C3690 C 0.90144 0.52119 0.69063 0.0
C3691 C 0.89391 0.48419 0.69019 0.0
C3692 C 0.90694 0.46749 0.67931 0.0
C3693 C 0.92624 0.48636 0.66986 0.0
C3694 C 0.88954 0.5418 0.70158 0.0
C3695 C 0.9001 0.42896 0.67753 0.0
H3696 H 0.88517 0.41284 0.72715 0.0
H3697 H 0.7876 0.44173 0.71053 0.0
H3698 H 0.94089 0.43221 0.70354 0.0
H3699 H 0.93858 0.4736 0.71117 0.0
H3700 H 0.93934 0.43342 0.71995 0.0
H3701 H 0.81251 0.46307 0.68353 0.0
H3702 H 0.78625 0.48546 0.69489 0.0
H3703 H 0.82551 0.50529 0.68894 0.0
H3704 H 0.92534 0.56734 0.682 0.0
H3705 H 0.93543 0.47192 0.66198 0.0
H3706 H 0.86119 0.53737 0.70336 0.0
H3707 H 0.89383 0.57036 0.70046 0.0
H3708 H 0.90426 0.53258 0.70973 0.0
H3709 H 0.9136 0.41359 0.68477 0.0
H3710 H 0.9094 0.41943 0.66853 0.0
H3711 H 0.87148 0.42377 0.67835 0.0
C3712 C 0.23792 0.42775 0.22628 0.0
C3713 C 0.27529 0.42452 0.22681 0.0
C3714 C 0.21897 0.44648 0.21671 0.0
C3715 C 0.2365 0.46351 0.20673 0.0
C3716 C 0.2743 0.46052 0.20726 0.0
C3717 C 0.2926 0.44157 0.21694 0.0
C3718 C 0.1794 0.44808 0.21734 0.0
C3719 C 0.29612 0.47679 0.19733 0.0
C3720 C 0.18318 0.48489 0.17579 0.0
C3721 C 0.17538 0.52157 0.176 0.0
C3722 C 0.20278 0.46648 0.18527 0.0
C3723 C 0.21561 0.48378 0.196 0.0
C3724 C 0.20778 0.52082 0.19627 0.0
C3725 C 0.18859 0.53872 0.18656 0.0
C3726 C 0.21008 0.42783 0.1837 0.0
C3727 C 0.21959 0.54192 0.20708 0.0
H3728 H 0.22297 0.41535 0.23348 0.0
H3729 H 0.32108 0.43997 0.21667 0.0
H3730 H 0.17034 0.47586 0.21709 0.0
H3731 H 0.168 0.4348 0.20929 0.0
H3732 H 0.16898 0.43542 0.2257 0.0
H3733 H 0.29684 0.45872 0.18941 0.0
H3734 H 0.28467 0.50213 0.1942 0.0
H3735 H 0.32358 0.48135 0.20038 0.0
H3736 H 0.17401 0.47011 0.168 0.0
H3737 H 0.18348 0.56662 0.18736 0.0
H3738 H 0.19717 0.41285 0.19111 0.0
H3739 H 0.23881 0.42269 0.1844 0.0
H3740 H 0.20051 0.41782 0.17482 0.0
H3741 H 0.2484 0.53878 0.2084 0.0
H3742 H 0.20655 0.53195 0.21543 0.0
H3743 H 0.21334 0.57027 0.20607 0.0
C3744 C 0.44185 0.49392 0.97112 0.0
C3745 C 0.44592 0.53112 0.9713 0.0
C3746 C 0.42229 0.47492 0.96185 0.0
C3747 C 0.40577 0.49209 0.9516 0.0
C3748 C 0.40999 0.52975 0.95171 0.0
C3749 C 0.429 0.54815 0.96129 0.0
C3750 C 0.41952 0.43567 0.96323 0.0
C3751 C 0.39456 0.55172 0.94158 0.0
C3752 C 0.38416 0.43118 0.92241 0.0
C3753 C 0.34683 0.4309 0.92116 0.0
C3754 C 0.40294 0.45075 0.93174 0.0
C3755 C 0.38522 0.471 0.941 0.0
C3756 C 0.34739 0.47036 0.93988 0.0
C3757 C 0.32935 0.45139 0.93021 0.0
C3758 C 0.44255 0.44939 0.93144 0.0
C3759 C 0.32518 0.48973 0.94906 0.0
H3760 H 0.454 0.47908 0.97845 0.0
H3761 H 0.43102 0.57646 0.96077 0.0
H3762 H 0.3943 0.42571 0.95954 0.0
H3763 H 0.44143 0.42295 0.95819 0.0
H3764 H 0.42175 0.4276 0.97293 0.0
H3765 H 0.41242 0.57363 0.93923 0.0
H3766 H 0.38942 0.5363 0.93322 0.0
H3767 H 0.36941 0.56352 0.94474 0.0
H3768 H 0.39933 0.41607 0.91589 0.0
H3769 H 0.30085 0.45228 0.92991 0.0
H3770 H 0.45176 0.42592 0.93656 0.0
H3771 H 0.45451 0.47306 0.93556 0.0
H3772 H 0.4523 0.44679 0.92195 0.0
H3773 H 0.33621 0.48676 0.95837 0.0
H3774 H 0.29757 0.48035 0.94906 0.0
H3775 H 0.32481 0.51809 0.94675 0.0
C3776 C 0.4248 0.6187 0.67412 0.0
C3777 C 0.43582 0.58291 0.67514 0.0
C3778 C 0.40578 0.63772 0.68361 0.0
C3779 C 0.39703 0.62216 0.69516 0.0
C3780 C 0.40843 0.58617 0.69628 0.0
C3781 C 0.42654 0.56751 0.68651 0.0
C3782 C 0.39468 0.6751 0.68114 0.0
C3783 C 0.40145 0.56642 0.70792 0.0
C3784 C 0.37553 0.6825 0.72445 0.0
C3785 C 0.3383 0.68178 0.72602 0.0
C3786 C 0.39423 0.66393 0.71481 0.0
C3787 C 0.37654 0.64311 0.70581 0.0
C3788 C 0.33901 0.64191 0.70744 0.0
C3789 C 0.32089 0.66084 0.71715 0.0
C3790 C 0.43376 0.6661 0.71443 0.0
C3791 C 0.31754 0.62007 0.69884 0.0
H3792 H 0.43082 0.63223 0.6657 0.0
H3793 H 0.43382 0.54036 0.68787 0.0
H3794 H 0.36586 0.67799 0.68253 0.0
H3795 H 0.4078 0.69287 0.68769 0.0
H3796 H 0.40127 0.68365 0.67175 0.0
H3797 H 0.39515 0.58385 0.7157 0.0
H3798 H 0.37888 0.54859 0.70648 0.0
H3799 H 0.42473 0.55027 0.71045 0.0
H3800 H 0.39056 0.69783 0.73089 0.0
H3801 H 0.2925 0.65904 0.71776 0.0
H3802 H 0.4422 0.67804 0.70569 0.0
H3803 H 0.44531 0.63925 0.71485 0.0
H3804 H 0.44452 0.68186 0.72205 0.0
H3805 H 0.32002 0.63073 0.68946 0.0
H3806 H 0.28929 0.61949 0.7014 0.0
H3807 H 0.32783 0.59271 0.6987 0.0
C3808 C 0.17217 0.61802 0.46891 0.0
C3809 C 0.17871 0.5823 0.4722 0.0
C3810 C 0.19093 0.63656 0.45932 0.0
C3811 C 0.21849 0.62038 0.45229 0.0
C3812 C 0.22607 0.58476 0.45585 0.0
C3813 C 0.20625 0.56644 0.46526 0.0
C3814 C 0.18157 0.67441 0.45688 0.0
C3815 C 0.25617 0.56591 0.44977 0.0
C3816 C 0.24649 0.66027 0.41962 0.0
C3817 C 0.27887 0.67815 0.42149 0.0
C3818 C 0.22755 0.64169 0.42918 0.0
C3819 C 0.23947 0.64055 0.44162 0.0
C3820 C 0.27182 0.65912 0.44359 0.0
C3821 C 0.29074 0.67658 0.43378 0.0
C3822 C 0.19426 0.62276 0.42587 0.0
C3823 C 0.28718 0.66072 0.45622 0.0
H3824 H 0.15175 0.6319 0.47387 0.0
H3825 H 0.213 0.53939 0.46733 0.0
H3826 H 0.20535 0.69093 0.4579 0.0
H3827 H 0.17228 0.67745 0.44735 0.0
H3828 H 0.16079 0.68435 0.46312 0.0
H3829 H 0.2615 0.53984 0.45396 0.0
H3830 H 0.25027 0.56268 0.43994 0.0
H3831 H 0.28044 0.5818 0.45043 0.0
H3832 H 0.23577 0.66037 0.41048 0.0
H3833 H 0.31506 0.68982 0.43588 0.0
H3834 H 0.17172 0.63428 0.43093 0.0
H3835 H 0.19643 0.59472 0.4286 0.0
H3836 H 0.1885 0.62422 0.41596 0.0
H3837 H 0.30549 0.6382 0.45751 0.0
H3838 H 0.26663 0.65926 0.46337 0.0
H3839 H 0.30219 0.68531 0.45755 0.0
C3840 C 0.38112 0.11682 0.3405 0.0
C3841 C 0.34824 0.13071 0.33705 0.0
C3842 C 0.39632 0.08932 0.33394 0.0
C3843 C 0.37763 0.07545 0.32399 0.0
C3844 C 0.34754 0.09327 0.31934 0.0
C3845 C 0.33344 0.1213 0.32591 0.0
C3846 C 0.42949 0.07214 0.3387 0.0
C3847 C 0.32708 0.07961 0.30856 0.0
C3848 C 0.39144 0.99994 0.30339 0.0
C3849 C 0.36637 0.97714 0.30839 0.0
C3850 C 0.40027 1.03084 0.30944 0.0
C3851 C 0.38317 1.03862 0.3205 0.0
C3852 C 0.36308 1.01261 0.32654 0.0
C3853 C 0.35532 0.98162 0.3204 0.0
C3854 C 0.42334 0.05728 0.3031 0.0
C3855 C 0.34481 1.01973 0.33852 0.0
H3856 H 0.39299 0.12434 0.34908 0.0
H3857 H 0.30855 0.13295 0.32314 0.0
H3858 H 0.42253 1.05193 0.34556 0.0
H3859 H 0.44457 0.0591 0.33131 0.0
H3860 H 0.44659 0.0917 0.34323 0.0
H3861 H 0.30633 0.0984 0.30553 0.0
H3862 H 0.34489 0.07432 0.30079 0.0
H3863 H 0.31422 1.05451 0.31106 0.0
H3864 H 0.40048 0.99626 0.29411 0.0
H3865 H 0.33661 0.96335 0.32428 0.0
H3866 H 0.43697 0.07447 0.30971 0.0
H3867 H 0.4069 0.07419 0.29709 0.0
H3868 H 0.44326 1.04391 0.2973 0.0
H3869 H 0.36338 1.03111 0.34518 0.0
H3870 H 0.3334 0.99551 0.34252 0.0
H3871 H 0.32315 1.03904 0.33708 0.0
C3872 C 0.32617 0.08994 0.60982 0.0
C3873 C 0.30737 0.0636 0.60385 0.0
C3874 C 0.35358 0.1072 0.60391 0.0
C3875 C 0.3625 0.09687 0.59198 0.0
C3876 C 0.34192 0.0716 0.5857 0.0
C3877 C 0.31421 1.0555 0.59175 0.0
C3878 C 0.37387 0.13477 0.61076 0.0
C3879 C 0.35038 0.05963 0.5729 0.0
C3880 C 0.41364 0.13006 0.5666 0.0
C3881 C 0.43752 0.10178 0.56606 0.0
C3882 C 0.39203 0.13407 0.57677 0.0
C3883 C 0.39501 0.10922 0.58625 0.0
C3884 C 0.42503 0.0872 0.58702 0.0
C3885 C 0.44645 0.08395 0.57678 0.0
C3886 C 0.36138 0.15942 0.57614 0.0
C3887 C 0.43017 0.06167 0.5974 0.0
H3888 H 0.32011 0.09623 0.61922 0.0
H3889 H 0.29925 1.03504 0.5873 0.0
H3890 H 0.39377 0.12167 0.61664 0.0
H3891 H 0.38761 0.15323 0.60458 0.0
H3892 H 0.35603 0.15005 0.6168 0.0
H3893 H 0.33103 1.04038 0.56939 0.0
H3894 H 0.35076 0.08235 0.56658 0.0
H3895 H 0.37675 1.04701 0.57274 0.0
H3896 H 0.40732 0.14505 0.55848 0.0
H3897 H 0.46627 0.06337 0.57653 0.0
H3898 H 0.35375 0.16855 0.58537 0.0
H3899 H 0.33839 0.14601 0.57205 0.0
H3900 H 0.36772 0.1825 0.57036 0.0
H3901 H 0.42348 0.07415 0.60621 0.0
H3902 H 0.4577 1.05168 0.59779 0.0
H3903 H 0.41245 1.0389 0.5961 0.0
C3904 C 0.21441 0.13975 0.81301 0.0
C3905 C 0.23883 0.1672 0.81317 0.0
C3906 C 0.21015 0.11852 0.82328 0.0
C3907 C 0.23129 0.12502 0.83357 0.0
C3908 C 0.24981 0.15701 0.83457 0.0
C3909 C 0.25315 0.1781 0.82425 0.0
C3910 C 0.18853 0.08559 0.82224 0.0
C3911 C 0.27191 0.16537 0.84559 0.0
C3912 C 0.25061 0.06443 0.8599 0.0
C3913 C 0.28133 1.04818 0.85561 0.0
C3914 C 0.23171 0.08765 0.85242 0.0
C3915 C 0.24454 0.09484 0.84061 0.0
C3916 C 0.27395 0.07603 0.83595 0.0
C3917 C 0.29167 1.05257 0.84351 0.0
C3918 C 0.19955 0.10585 0.85748 0.0
C3919 C 0.28846 0.08233 0.82329 0.0
H3920 H 0.20259 0.1316 0.80449 0.0
H3921 H 0.27123 0.19997 0.82439 0.0
H3922 H 0.20545 0.06375 0.81892 0.0
H3923 H 0.17765 0.07782 0.83122 0.0
H3924 H 0.1666 0.08921 0.81566 0.0
H3925 H 0.27958 0.19348 0.84578 0.0
H3926 H 0.25754 0.15908 0.85409 0.0
H3927 H 0.29632 0.14915 0.8454 0.0
H3928 H 0.24227 0.06026 0.86923 0.0
H3929 H 0.31466 1.03864 0.84012 0.0
H3930 H 0.18147 0.11513 0.8502 0.0
H3931 H 0.20786 0.12886 0.86292 0.0
H3932 H 0.18495 0.08798 0.86366 0.0
H3933 H 0.26783 0.07779 0.81635 0.0
H3934 H 0.31122 0.0649 0.82117 0.0
H3935 H 0.29724 0.10994 0.8224 0.0
C3936 C 0.26837 1.0167 1.05142 0.0
C3937 C 0.27876 1.01708 1.03922 0.0
C3938 C 0.29144 1.00425 1.06031 0.0
C3939 C 0.32487 0.99148 1.05662 0.0
C3940 C 0.33129 0.98389 1.04424 0.0
C3941 C 0.30823 0.99773 1.03549 0.0
C3942 C 0.28279 1.01137 1.07351 0.0
C3943 C 0.36533 0.96702 1.04023 0.0
C3944 C 0.38985 1.04655 1.07312 0.0
C3945 C 0.39348 1.02712 0.0838 0.0
C3946 C 0.37008 1.03361 1.06349 0.0
C3947 C 0.35498 0.99966 1.06451 0.0
C3948 C 0.3633 0.9779 0.07454 0.0
C3949 C 0.38211 0.99217 0.08425 0.0
C3950 C 0.36187 0.05826 1.05303 0.0
C3951 C 0.34984 0.94087 0.07567 0.0
H3952 H 0.24467 1.03074 1.05411 0.0
H3953 H 0.31555 0.99721 1.02595 0.0
H3954 H 0.28908 0.98807 0.07918 0.0
H3955 H 0.29886 1.03361 0.07686 0.0
H3956 H 0.25457 1.01822 0.07482 0.0
H3957 H 0.36201 0.95335 1.03138 0.0
H3958 H 0.38568 0.98749 1.03902 0.0
H3959 H 0.37501 0.948 1.04717 0.0
H3960 H 0.39988 0.07314 1.07273 0.0
H3961 H 0.38541 0.97683 0.09251 0.0
H3962 H 0.3334 0.06469 1.05302 0.0
H3963 H 0.3684 1.04578 1.04421 0.0
H3964 H 0.3766 0.0833 1.05363 0.0
H3965 H 0.32809 0.94017 0.0824 0.0
H3966 H 0.37103 0.92336 0.07919 0.0
H3967 H 0.34025 0.9303 1.06687 0.0
C3968 C 0.92373 1.03361 0.79448 0.0
C3969 C 0.89441 1.02228 0.8011 0.0
C3970 C 0.94157 0.06405 0.79785 0.0
C3971 C 0.92963 0.08301 0.80809 0.0
C3972 C 0.90068 0.07057 0.81505 0.0
C3973 C 0.88319 1.04042 0.81135 0.0
C3974 C 0.97149 0.07674 0.78999 0.0
C3975 C 0.88661 0.08991 0.82602 0.0
C3976 C 0.97184 0.14206 0.82968 0.0
C3977 C 0.94692 0.16934 0.82872 0.0
C3978 C 0.97145 0.11463 0.82126 0.0
C3979 C 0.94656 0.11603 0.81174 0.0
C3980 C 0.92952 0.14814 0.8089 0.0
C3981 C 0.93073 0.17535 0.81742 0.0
C3982 C 0.99154 0.08132 0.82416 0.0
C3983 C 0.90447 0.15123 0.79829 0.0
H3984 H 0.93154 1.01966 0.7863 0.0
H3985 H 0.86002 1.03156 0.81621 0.0
H3986 H 0.9608 0.09477 0.78292 0.0
H3987 H 0.99143 0.09131 0.7953 0.0
H3988 H 0.98468 1.05449 0.78526 0.0
H3989 H 0.86723 0.07412 0.83122 0.0
H3990 H 0.9082 0.09722 0.83228 0.0
H3991 H 0.87316 0.1142 0.82288 0.0
H3992 H 0.98627 0.13818 0.8381 0.0
H3993 H 0.91334 0.19782 0.81632 0.0
H3994 H 0.99996 0.06771 0.81572 0.0
H3995 H 0.97418 0.06327 0.82933 0.0
H3996 H 1.01507 0.08674 0.82984 0.0
H3997 H 0.91453 0.13643 0.79032 0.0
H3998 H 0.90008 0.17912 0.79566 0.0
H3999 H 0.87869 0.13992 0.80091 0.0
C4000 C 0.72082 0.17848 0.58537 0.0
C4001 C 0.70584 0.14514 0.58417 0.0
C4002 C 0.74829 0.18847 0.57774 0.0
C4003 C 0.75949 0.16484 0.56866 0.0
C4004 C 0.73923 0.13484 0.56584 0.0
C4005 C 0.71232 0.12515 0.57377 0.0
C4006 C 0.76926 0.22072 0.58091 0.0
C4007 C 0.74985 0.10972 0.55586 0.0
C4008 C 0.8387 0.17518 0.54877 0.0
C4009 C 0.86172 0.15142 0.55449 0.0
C4010 C 0.80566 0.18222 0.55375 0.0
C4011 C 0.79635 0.16551 0.56473 0.0
C4012 C 0.82137 0.14497 0.57126 0.0
C4013 C 0.85392 0.13787 0.56594 0.0
C4014 C 0.77957 0.20385 0.5465 0.0
C4015 C 0.81249 0.12715 0.58318 0.0
H4016 H 0.71538 0.19408 0.59342 0.0
H4017 H 0.70007 0.09964 0.57284 0.0
H4018 H 0.79178 0.21288 0.58679 0.0
H4019 H 0.78007 0.23341 0.57263 0.0
H4020 H 0.75302 0.24017 0.58597 0.0
H4021 H 0.72777 0.09228 0.55326 0.0
H4022 H 0.75889 0.12418 0.54767 0.0
H4023 H 0.77199 0.09295 0.5591 0.0
H4024 H 0.84485 0.18504 0.53974 0.0
H4025 H 0.87191 0.11923 0.57017 0.0
H4026 H 0.76128 0.21864 0.55249 0.0
H4027 H 0.76361 0.18606 0.54076 0.0
H4028 H 0.79316 0.22264 0.54038 0.0
H4029 H 0.79903 0.14569 0.58944 0.0
H4030 H 0.83632 0.11652 0.5878 0.0
H4031 H 0.79439 0.10499 0.58143 0.0
C4032 C 0.68709 0.9309 0.32714 0.0
C4033 C 0.72213 0.9198 0.3288 0.0
C4034 C 0.67909 0.95549 0.3181 0.0
C4035 C 0.70657 0.96717 0.31053 0.0
C4036 C 0.73846 0.9479 0.30991 0.0
C4037 C 0.74606 0.92405 0.31923 0.0
C4038 C 0.64421 0.97463 0.31863 0.0
C4039 C 0.76735 0.95793 0.30121 0.0
C4040 C 0.70126 1.05157 0.29275 0.0
C4041 C 0.71856 0.07422 0.30076 0.0
C4042 C 0.69567 1.01657 0.29592 0.0
C4043 C 0.70746 1.00465 0.30739 0.0
C4044 C 0.72257 1.02849 0.31585 0.0
C4045 C 0.72833 0.06309 0.31232 0.0
C4046 C 0.68013 0.99216 0.28658 0.0
C4047 C 0.73553 1.01715 0.32826 0.0
H4048 H 0.66768 0.9264 0.33419 0.0
H4049 H 0.7727 0.91398 0.32019 0.0
H4050 H 0.6469 0.99809 0.32455 0.0
H4051 H 0.63589 0.98375 0.30947 0.0
H4052 H 0.62336 0.95772 0.32255 0.0
H4053 H 0.78584 0.93561 0.29969 0.0
H4054 H 0.75632 0.9666 0.29233 0.0
H4055 H 0.78251 0.98005 0.30511 0.0
H4056 H 0.69467 0.06052 0.28363 0.0
H4057 H 0.74235 0.0809 0.31827 0.0
H4058 H 0.66651 0.96954 0.2908 0.0
H4059 H 0.70164 0.98172 0.28075 0.0
H4060 H 0.66128 1.00641 0.28057 0.0
H4061 H 0.71573 1.00082 0.33299 0.0
H4062 H 0.74175 1.0399 0.33419 0.0
H4063 H 0.75995 1.00141 0.32714 0.0
C4064 C 0.81386 1.04586 0.08319 0.0
C4065 C 0.83178 0.05731 0.09345 0.0
C4066 C 0.78543 0.06519 0.07868 0.0
C4067 C 0.77453 0.09622 0.08484 0.0
C4068 C 0.79316 0.10821 0.09512 0.0
C4069 C 0.82187 0.0885 0.0993 0.0
C4070 C 0.76646 1.05157 1.06757 0.0
C4071 C 0.78186 0.14052 0.10208 0.0
C4072 C 0.72038 0.14221 1.06209 0.0
C4073 C 0.69009 0.12165 1.0633 0.0
C4074 C 0.74767 0.13878 1.07052 0.0
C4075 C 0.74335 0.11529 0.08035 0.0
C4076 C 0.7097 0.1019 0.08314 0.0
C4077 C 0.68294 0.10554 0.07449 0.0
C4078 C 0.78309 0.15426 1.06749 0.0
C4079 C 0.70388 0.07808 0.09393 0.0
H4080 H 0.82169 1.0214 0.07888 0.0
H4081 H 0.83562 0.09659 0.10748 0.0
H4082 H 0.73961 1.04316 1.07017 0.0
H4083 H 0.76388 0.07251 1.06058 0.0
H4084 H 0.78025 1.02875 1.06339 0.0
H4085 H 0.80407 0.15171 0.10734 0.0
H4086 H 0.771 0.16117 0.09597 0.0
H4087 H 0.76088 0.13319 0.10861 0.0
H4088 H 0.72568 0.15563 1.05357 0.0
H4089 H 0.65905 0.09047 0.07556 0.0
H4090 H 0.79947 0.13407 1.06284 0.0
H4091 H 0.79719 0.16236 0.07586 0.0
H4092 H 0.78047 0.17728 1.06131 0.0
H4093 H 0.71334 1.05121 0.09168 0.0
H4094 H 0.67552 0.07649 0.09631 0.0
H4095 H 0.71885 0.08734 0.10196 0.0
C4096 C 0.81828 0.66815 0.83221 0.0
C4097 C 0.78151 0.67023 0.83284 0.0
C4098 C 0.83452 0.65492 0.82179 0.0
C4099 C 0.81295 0.64237 0.81234 0.0
C4100 C 0.7768 0.65169 0.81195 0.0
C4101 C 0.76128 0.66576 0.82238 0.0
C4102 C 0.87357 0.64763 0.82196 0.0
C4103 C 0.7532 0.64014 0.80169 0.0
C4104 C 0.83284 0.57775 0.78765 0.0
C4105 C 0.82248 0.54675 0.7935 0.0
C4106 C 0.83385 0.60936 0.79405 0.0
C4107 C 0.82337 0.60949 0.80636 0.0
C4108 C 0.81665 0.5774 0.81256 0.0
C4109 C 0.81674 0.54627 0.806 0.0
C4110 C 0.84311 0.64257 0.78729 0.0
C4111 C 0.8059 0.57591 0.82581 0.0
H4112 H 0.83384 0.67231 0.84036 0.0
H4113 H 0.73286 0.66817 0.82291 0.0
H4114 H 0.87859 0.62142 0.82608 0.0
H4115 H 0.88457 0.64752 0.81259 0.0
H4116 H 0.8876 0.66743 0.82752 0.0
H4117 H 0.72758 0.65438 0.8018 0.0
H4118 H 0.76605 0.64456 0.79277 0.0
H4119 H 0.74794 0.61159 0.8026 0.0
H4120 H 0.83757 0.57787 0.77791 0.0
H4121 H 0.80963 0.52184 0.81045 0.0
H4122 H 0.85103 0.66402 0.79352 0.0
H4123 H 0.82005 0.65156 0.7819 0.0
H4124 H 0.86488 0.63741 0.78077 0.0
H4125 H 0.82619 0.58841 0.83156 0.0
H4126 H 0.8023 0.54857 0.82912 0.0
H4127 H 0.78069 0.59028 0.82712 0.0
C4128 C 0.85305 0.59318 1.054 0.0
C4129 C 0.83418 0.59869 1.04326 0.0
C4130 C 0.84067 0.60686 1.06495 0.0
C4131 C 0.809 0.62683 1.06487 0.0
C4132 C 0.79492 0.63889 1.05368 0.0
C4133 C 0.80709 0.62366 1.04284 0.0
C4134 C 0.85789 0.59448 0.07663 0.0
C4135 C 0.76396 0.66377 1.05322 0.0
C4136 C 0.75402 0.57658 0.08627 0.0
C4137 C 0.76635 0.59021 0.09722 0.0
C4138 C 0.76344 0.59187 0.07525 0.0
C4139 C 0.78527 0.622 0.07537 0.0
C4140 C 0.7921 0.63939 0.08649 0.0
C4141 C 0.78295 0.62284 0.09745 0.0
C4142 C 0.7542 0.57251 1.06368 0.0
C4143 C 0.81196 0.67347 0.08698 0.0
H4144 H 0.87489 0.57463 1.05406 0.0
H4145 H 0.79344 0.62877 1.03434 0.0
H4146 H 0.86289 0.61707 0.0827 0.0
H4147 H 0.84022 0.57604 0.08149 0.0
H4148 H 0.88334 0.58074 0.07496 0.0
H4149 H 0.76824 0.68382 1.04602 0.0
H4150 H 0.73982 0.64924 1.05073 0.0
H4151 H 0.75966 0.67724 1.06206 0.0
H4152 H 0.7395 0.55212 0.08631 0.0
H4153 H 0.79099 0.63407 0.10607 0.0
H4154 H 0.77848 0.56195 1.05941 0.0
H4155 H 0.7413 0.59051 1.0571 0.0
H4156 H 0.73616 0.55017 1.06534 0.0
H4157 H 0.83821 0.66894 0.09116 0.0
H4158 H 0.79771 0.6923 0.09295 0.0
H4159 H 0.81531 0.68557 0.07786 0.0
C4160 C 0.78111 0.46998 0.32409 0.0
C4161 C 0.7655 0.46579 0.33549 0.0
C4162 C 0.77261 0.49921 0.31697 0.0
C4163 C 0.74798 0.52403 0.32154 0.0
C4164 C 0.72736 0.51603 0.33182 0.0
C4165 C 0.73642 0.4866 0.33877 0.0
C4166 C 0.79449 0.5065 0.30579 0.0
C4167 C 0.70015 0.54147 0.33665 0.0
C4168 C 0.7914 0.61072 0.31782 0.0
C4169 C 0.77756 0.62086 0.3066 0.0
C4170 C 0.77885 0.58077 0.32363 0.0
C4171 C 0.75206 0.56091 0.31791 0.0
C4172 C 0.73484 0.57387 0.30743 0.0
C4173 C 0.74792 0.60403 0.30184 0.0
C4174 C 0.79755 0.56808 0.33499 0.0
C4175 C 0.70577 0.5538 0.30126 0.0
H4176 H 0.80318 0.45328 0.32157 0.0
H4177 H 0.7241 0.48306 0.34759 0.0
H4178 H 0.77792 0.5174 0.29836 0.0
H4179 H 0.81485 0.52624 0.30802 0.0
H4180 H 0.80801 0.48241 0.30244 0.0
H4181 H 0.68041 0.52783 0.34239 0.0
H4182 H 0.71333 0.56147 0.34237 0.0
H4183 H 0.68641 0.55542 0.32913 0.0
H4184 H 0.81429 0.62412 0.32138 0.0
H4185 H 0.73746 0.61204 0.29306 0.0
H4186 H 0.81412 0.54484 0.33276 0.0
H4187 H 0.77831 0.56003 0.34203 0.0
H4188 H 0.81483 0.58858 0.33892 0.0
H4189 H 0.71745 0.53532 0.29457 0.0
H4190 H 0.68783 0.57188 0.29624 0.0
H4191 H 0.69016 0.53829 0.30788 0.0
C4192 C 0.70812 0.48597 0.57295 0.0
C4193 C 0.71241 0.47646 0.56076 0.0
C4194 C 0.737 0.4848 0.58081 0.0
C4195 C 0.76988 0.47329 0.57618 0.0
C4196 C 0.77164 0.45558 0.56495 0.0
C4197 C 0.74248 0.4573 0.55725 0.0
C4198 C 0.73394 0.50246 0.59305 0.0
C4199 C 0.80606 0.44156 0.56004 0.0
C4200 C 0.83441 0.54507 0.58198 0.0
C4201 C 0.85107 0.5323 0.59238 0.0
C4202 C 0.8097 0.52463 0.57597 0.0
C4203 C 0.80167 0.49078 0.58064 0.0
C4204 C 0.82114 0.47648 0.59042 0.0
C4205 C 0.8458 0.49763 0.59625 0.0
C4206 C 0.79004 0.54075 0.56534 0.0
C4207 C 0.81397 0.44035 0.59547 0.0
H4208 H 0.68425 0.4995 0.57575 0.0
H4209 H 0.74571 0.44888 0.54789 0.0
H4210 H 0.75008 0.48848 0.59996 0.0
H4211 H 0.7438 0.52978 0.59232 0.0
H4212 H 0.70618 0.50361 0.59622 0.0
H4213 H 0.80161 0.42096 0.55307 0.0
H4214 H 0.82074 0.46332 0.55566 0.0
H4215 H 0.82272 0.4306 0.56744 0.0
H4216 H 0.83906 0.57188 0.57906 0.0
H4217 H 0.85886 0.488 0.6044 0.0
H4218 H 0.76231 0.54587 0.56799 0.0
H4219 H 0.78997 0.52258 0.55747 0.0
H4220 H 0.80172 0.56601 0.56234 0.0
H4221 H 0.79453 0.44255 0.60297 0.0
H4222 H 0.83835 0.42845 0.59932 0.0
H4223 H 0.80315 0.42243 0.58848 0.0
C4224 C 0.32108 0.69048 0.32751 0.0
C4225 C 0.354 0.67847 0.33159 0.0
C4226 C 0.30908 0.68076 0.31599 0.0
C4227 C 0.33091 0.65918 0.30877 0.0
C4228 C 0.36697 0.65481 0.31174 0.0
C4229 C 0.37826 0.66473 0.32331 0.0
C4230 C 0.27091 0.68656 0.31266 0.0
C4231 C 0.39135 0.63255 0.30407 0.0
C4232 C 0.29451 0.5703 0.30256 0.0
C4233 C 0.29953 0.56841 0.29004 0.0
C4234 C 0.30271 0.60078 0.30878 0.0
C4235 C 0.31408 0.63058 0.30206 0.0
C4236 C 0.31344 0.63036 0.28921 0.0
C4237 C 0.3068 0.59867 0.28326 0.0
C4238 C 0.30245 0.59953 0.32256 0.0
C4239 C 0.32259 0.66228 0.28174 0.0
H4240 H 0.303 0.70261 0.33391 0.0
H4241 H 0.4041 0.65649 0.32646 0.0
H4242 H 0.26936 0.70008 0.30372 0.0
H4243 H 0.25711 0.66117 0.31165 0.0
H4244 H 0.25649 0.70177 0.31968 0.0
H4245 H 0.41935 0.63628 0.30665 0.0
H4246 H 0.38483 0.60439 0.30537 0.0
H4247 H 0.38816 0.63891 0.29429 0.0
H4248 H 0.28804 0.54665 0.30761 0.0
H4249 H 0.31025 0.59696 0.27348 0.0
H4250 H 0.28424 0.6198 0.32619 0.0
H4251 H 0.32918 0.60472 0.32616 0.0
H4252 H 0.2939 0.57368 0.32617 0.0
H4253 H 0.31849 0.68705 0.28688 0.0
H4254 H 0.30644 0.66323 0.27331 0.0
H4255 H 0.35056 0.6606 0.2789 0.0
C4256 C 0.359 0.53558 1.06549 0.0
C4257 C 0.36506 0.52347 1.05371 0.0
C4258 C 0.32697 0.52908 1.07117 0.0
C4259 C 0.30095 0.50982 1.06483 0.0
C4260 C 0.30858 0.49412 1.05352 0.0
C4261 C 0.3408 0.50129 1.04802 0.0
C4262 C 0.31978 0.54601 0.08337 0.0
C4263 C 0.2816 0.47301 1.04666 0.0
C4264 C 0.22812 0.49802 0.08662 0.0
C4265 C 0.21131 0.53071 0.08512 0.0
C4266 C 0.25492 0.48776 0.07872 0.0
C4267 C 0.26472 0.51097 1.06934 0.0
C4268 C 0.24373 0.54081 1.06655 0.0
C4269 C 0.21668 0.55019 0.0745 0.0
C4270 C 0.27633 0.45526 0.08165 0.0
C4271 C 0.25333 0.5659 1.05643 0.0
H4272 H 0.37809 0.55262 1.06978 0.0
H4273 H 0.34551 0.49228 1.03879 0.0
H4274 H 0.29969 0.5671 0.08229 0.0
H4275 H 0.30924 0.52645 0.08989 0.0
H4276 H 0.34381 0.55776 0.08739 0.0
H4277 H 0.2944 0.45456 1.04018 0.0
H4278 H 0.26455 0.45786 1.05293 0.0
H4279 H 0.26447 0.49111 1.04134 0.0
H4280 H 0.22384 0.48262 0.09479 0.0
H4281 H 0.20286 0.57497 1.07325 0.0
H4282 H 0.29967 0.46275 0.08712 0.0
H4283 H 0.28592 0.44233 1.07323 0.0
H4284 H 0.26081 0.43611 0.08704 0.0
H4285 H 0.2766 0.58142 1.05922 0.0
H4286 H 0.23148 0.5845 1.05432 0.0
H4287 H 0.26041 0.55138 1.04804 0.0
C4288 C 0.22531 0.61901 0.82569 0.0
C4289 C 0.21018 0.63379 0.81528 0.0
C4290 C 0.21489 0.58573 0.82958 0.0
C4291 C 0.18853 0.56791 0.8229 0.0
C4292 C 0.16843 0.58596 0.81409 0.0
C4293 C 0.17929 0.61928 0.81045 0.0
C4294 C 0.2362 0.56761 0.83939 0.0
C4295 C 0.13959 0.56811 0.80702 0.0
C4296 C 0.22515 0.47775 0.8195 0.0
C4297 C 0.21139 0.46285 0.83008 0.0
C4298 C 0.21431 0.51135 0.81592 0.0
C4299 C 0.18874 0.52929 0.82304 0.0
C4300 C 0.16977 0.51122 0.83207 0.0
C4301 C 0.181 0.47756 0.83538 0.0
C4302 C 0.23449 0.52957 0.80592 0.0
C4303 C 0.14192 0.52924 0.83966 0.0
H4304 H 0.24864 0.63084 0.82957 0.0
H4305 H 0.16698 0.63102 0.80249 0.0
H4306 H 0.21905 0.55186 0.84543 0.0
H4307 H 0.25553 0.54948 0.8351 0.0
H4308 H 0.25096 0.58673 0.84503 0.0
H4309 H 0.12032 0.58758 0.8034 0.0
H4310 H 0.15138 0.55398 0.79917 0.0
H4311 H 0.12549 0.54862 0.8127 0.0
H4312 H 0.24812 0.46583 0.81529 0.0
H4313 H 0.1697 0.46574 0.84346 0.0
H4314 H 0.25397 0.54763 0.81003 0.0
H4315 H 0.21657 0.54544 0.8001 0.0
H4316 H 0.24896 0.51053 0.80009 0.0
H4317 H 0.15467 0.54214 0.84755 0.0
H4318 H 0.12271 0.50997 0.84326 0.0
H4319 H 0.12758 0.54973 0.83441 0.0
C4320 C 0.26126 0.5566 0.56831 0.0
C4321 C 0.2491 0.5723 0.55765 0.0
C4322 C 0.28961 0.57092 0.57454 0.0
C4323 C 0.30561 0.60181 0.5699 0.0
C4324 C 0.29099 0.61973 0.55985 0.0
C4325 C 0.26277 0.60455 0.55375 0.0
C4326 C 0.30417 0.55115 0.58541 0.0
C4327 C 0.30683 0.65298 0.55482 0.0
C4328 C 0.36738 0.62335 0.59418 0.0
C4329 C 0.39356 0.59861 0.5912 0.0
C4330 C 0.34014 0.63044 0.58602 0.0
C4331 C 0.33976 0.61222 0.57489 0.0
C4332 C 0.37011 0.59395 0.57083 0.0
C4333 C 0.39724 0.58756 0.57913 0.0
C4334 C 0.30863 0.65133 0.59033 0.0
C4335 C 0.37096 0.57527 0.55873 0.0
H4336 H 0.25023 0.53177 0.57124 0.0
H4337 H 0.25341 0.61647 0.54536 0.0
H4338 H 0.33076 0.54067 0.58324 0.0
H4339 H 0.3067 0.56893 0.59334 0.0
H4340 H 0.28727 0.52875 0.58811 0.0
H4341 H 0.28641 0.66958 0.55034 0.0
H4342 H 0.31998 0.66862 0.56199 0.0
H4343 H 0.32676 0.64603 0.54783 0.0
H4344 H 0.3648 0.63281 0.60344 0.0
H4345 H 0.4184 0.56958 0.57673 0.0
H4346 H 0.2891 0.63318 0.5944 0.0
H4347 H 0.2957 0.66531 0.58265 0.0
H4348 H 0.31618 0.67069 0.5974 0.0
H4349 H 0.35548 0.55071 0.55941 0.0
H4350 H 0.39827 0.56817 0.55602 0.0
H4351 H 0.35895 0.59181 0.5515 0.0
loop_
_geom_bond_atom_site_label_1
_geom_bond_atom_site_label_2
_geom_bond_distance
_geom_bond_site_symmetry_2
_ccdc_geom_bond_type
Pr0 C2 2.880 . S
Pr0 O20 2.562 . S
Pr0 O21 2.490 . S
Pr0 O22 2.695 . S
Pr0 O23 2.512 . S
Pr0 O25 2.437 . S
Pr0 O28 2.436 . S
Pr0 O30 2.438 . S
Pr1 C11 2.880 . S
Pr1 O22 2.436 . S
Pr1 O24 2.438 . S
Pr1 O26 2.562 . S
Pr1 O27 2.490 . S
Pr1 O28 2.695 . S
Pr1 O29 2.512 . S
Pr1 O31 2.437 . S
C2 Pr0 2.880 . S
C2 C3 1.491 . S
C2 O20 1.254 . S
C2 O21 1.225 . S
C3 C2 1.491 . S
C3 C4 1.392 . S
C3 C8 1.356 . S
C4 C3 1.392 . S
C4 C5 1.368 . S
C4 H32 0.929 . S
C5 C4 1.368 . S
C5 C6 1.386 . S
C5 H33 0.929 . S
C6 C5 1.386 . S
C6 C7 1.373 . S
C7 C6 1.373 . S
C7 C8 1.409 . S
C7 H34 0.931 . S
C8 C3 1.356 . S
C8 C7 1.409 . S
C8 H35 0.930 . S
C9 O22 1.270 . S
C9 O23 1.248 . S
C10 O24 1.267 . S
C10 O25 1.278 . S
C11 Pr1 2.880 . S
C11 C12 1.491 . S
C11 O26 1.254 . S
C11 O27 1.225 . S
C12 C11 1.491 . S
C12 C13 1.392 . S
C12 C17 1.356 . S
C13 C12 1.392 . S
C13 C14 1.368 . S
C13 H36 0.929 . S
C14 C13 1.368 . S
C14 C15 1.386 . S
C14 H37 0.929 . S
C15 C14 1.386 . S
C15 C16 1.373 . S
C16 C15 1.373 . S
C16 C17 1.409 . S
C16 H38 0.931 . S
C17 C12 1.356 . S
C17 C16 1.409 . S
C17 H39 0.930 . S
C18 O28 1.270 . S
C18 O29 1.248 . S
C19 O30 1.267 . S
C19 O31 1.278 . S
O20 Pr0 2.562 . S
O20 C2 1.254 . S
O21 Pr0 2.490 . S
O21 C2 1.225 . S
O22 Pr0 2.695 . S
O22 Pr1 2.436 . S
O22 C9 1.270 . S
O23 Pr0 2.512 . S
O23 C9 1.248 . S
O24 Pr1 2.438 . S
O24 C10 1.267 . S
O25 Pr0 2.437 . S
O25 C10 1.278 . S
O26 Pr1 2.562 . S
O26 C11 1.254 . S
O27 Pr1 2.490 . S
O27 C11 1.225 . S
O28 Pr0 2.436 . S
O28 Pr1 2.695 . S
O28 C18 1.270 . S
O29 Pr1 2.512 . S
O29 C18 1.248 . S
O30 Pr0 2.438 . S
O30 C19 1.267 . S
O31 Pr1 2.437 . S
O31 C19 1.278 . S
H32 C4 0.929 . S
H33 C5 0.929 . S
H34 C7 0.931 . S
H35 C8 0.930 . S
H36 C13 0.929 . S
H37 C14 0.929 . S
H38 C16 0.931 . S
H39 C17 0.930 . S
Pr40 C42 2.876 1_455 S
Pr40 O60 2.559 1_455 S
Pr40 O61 2.487 1_455 S
Pr40 O62 2.702 . S
Pr40 O63 2.516 1_565 S
Pr40 O65 2.441 . S
Pr40 O68 2.438 . S
Pr40 O70 2.439 . S
Pr41 C51 2.880 . S
Pr41 O62 2.436 . S
Pr41 O64 2.438 . S
Pr41 O66 2.562 . S
Pr41 O67 2.490 . S
Pr41 O68 2.695 . S
Pr41 O69 2.512 . S
Pr41 O71 2.437 . S
C42 Pr40 2.876 1_655 S
C42 C43 1.491 . S
C42 O60 1.254 . S
C42 O61 1.225 . S
C43 C42 1.491 . S
C43 C44 1.392 . S
C43 C48 1.356 . S
C44 C43 1.392 . S
C44 C45 1.368 . S
C44 H72 0.929 . S
C45 C44 1.368 . S
C45 C46 1.386 . S
C45 H73 0.929 . S
C46 C45 1.386 . S
C46 C47 1.373 . S
C47 C46 1.373 . S
C47 C48 1.409 . S
C47 H74 0.931 . S
C48 C43 1.356 . S
C48 C47 1.409 . S
C48 H75 0.930 . S
C49 O62 1.270 1_545 S
C49 O63 1.248 . S
C50 O64 1.267 . S
C50 O65 1.278 . S
C51 Pr41 2.880 . S
C51 C52 1.491 . S
C51 O66 1.254 . S
C51 O67 1.225 . S
C52 C51 1.491 . S
C52 C53 1.392 . S
C52 C57 1.356 . S
C53 C52 1.392 . S
C53 C54 1.368 . S
C53 H76 0.929 . S
C54 C53 1.368 . S
C54 C55 1.386 . S
C54 H77 0.929 . S
C55 C54 1.386 . S
C55 C56 1.373 . S
C56 C55 1.373 . S
C56 C57 1.409 . S
C56 H78 0.931 1_565 S
C57 C52 1.356 . S
C57 C56 1.409 . S
C57 H79 0.930 1_565 S
C58 O68 1.270 . S
C58 O69 1.248 . S
C59 O70 1.267 . S
C59 O71 1.278 . S
O60 Pr40 2.559 1_655 S
O60 C42 1.254 . S
O61 Pr40 2.487 1_655 S
O61 C42 1.225 . S
O62 Pr40 2.702 . S
O62 Pr41 2.436 . S
O62 C49 1.270 1_565 S
O63 Pr40 2.516 1_545 S
O63 C49 1.248 . S
O64 Pr41 2.438 . S
O64 C50 1.267 . S
O65 Pr40 2.441 . S
O65 C50 1.278 . S
O66 Pr41 2.562 . S
O66 C51 1.254 . S
O67 Pr41 2.490 . S
O67 C51 1.225 . S
O68 Pr40 2.438 . S
O68 Pr41 2.695 . S
O68 C58 1.270 . S
O69 Pr41 2.512 . S
O69 C58 1.248 . S
O70 Pr40 2.439 . S
O70 C59 1.267 . S
O71 Pr41 2.437 . S
O71 C59 1.278 . S
H72 C44 0.929 . S
H73 C45 0.929 . S
H74 C47 0.931 . S
H75 C48 0.930 . S
H76 C53 0.929 . S
H77 C54 0.929 . S
H78 C56 0.931 1_545 S
H79 C57 0.930 1_545 S
Pr80 C82 2.880 . S
Pr80 O100 2.562 . S
Pr80 O101 2.490 . S
Pr80 O102 2.695 . S
Pr80 O103 2.512 . S
Pr80 O105 2.437 . S
Pr80 O108 2.436 . S
Pr80 O110 2.438 . S
Pr81 C91 2.880 . S
Pr81 O102 2.436 . S
Pr81 O104 2.438 . S
Pr81 O106 2.562 . S
Pr81 O107 2.490 . S
Pr81 O108 2.695 . S
Pr81 O109 2.512 . S
Pr81 O111 2.437 . S
C82 Pr80 2.880 . S
C82 C83 1.491 . S
C82 O100 1.254 . S
C82 O101 1.225 . S
C83 C82 1.491 . S
C83 C84 1.392 . S
C83 C88 1.356 . S
C84 C83 1.392 . S
C84 C85 1.368 . S
C84 H112 0.929 . S
C85 C84 1.368 . S
C85 C86 1.386 . S
C85 H113 0.929 . S
C86 C85 1.386 . S
C86 C87 1.373 . S
C87 C86 1.373 . S
C87 C88 1.409 . S
C87 H114 0.931 . S
C88 C83 1.356 . S
C88 C87 1.409 . S
C88 H115 0.930 . S
C89 O102 1.270 . S
C89 O103 1.248 . S
C90 O104 1.267 . S
C90 O105 1.278 . S
C91 Pr81 2.880 . S
C91 C92 1.491 . S
C91 O106 1.254 . S
C91 O107 1.225 . S
C92 C91 1.491 . S
C92 C93 1.392 . S
C92 C97 1.356 . S
C93 C92 1.392 . S
C93 C94 1.368 . S
C93 H116 0.929 . S
C94 C93 1.368 . S
C94 C95 1.386 . S
C94 H117 0.929 . S
C95 C94 1.386 . S
C95 C96 1.373 . S
C96 C95 1.373 . S
C96 C97 1.409 . S
C96 H118 0.931 . S
C97 C92 1.356 . S
C97 C96 1.409 . S
C97 H119 0.930 . S
C98 O108 1.270 . S
C98 O109 1.248 . S
C99 O110 1.267 . S
C99 O111 1.278 . S
O100 Pr80 2.562 . S
O100 C82 1.254 . S
O101 Pr80 2.490 . S
O101 C82 1.225 . S
O102 Pr80 2.695 . S
O102 Pr81 2.436 . S
O102 C89 1.270 . S
O103 Pr80 2.512 . S
O103 C89 1.248 . S
O104 Pr81 2.438 . S
O104 C90 1.267 . S
O105 Pr80 2.437 . S
O105 C90 1.278 . S
O106 Pr81 2.562 . S
O106 C91 1.254 . S
O107 Pr81 2.490 . S
O107 C91 1.225 . S
O108 Pr80 2.436 . S
O108 Pr81 2.695 . S
O108 C98 1.270 . S
O109 Pr81 2.512 . S
O109 C98 1.248 . S
O110 Pr80 2.438 . S
O110 C99 1.267 . S
O111 Pr81 2.437 . S
O111 C99 1.278 . S
H112 C84 0.929 . S
H113 C85 0.929 . S
H114 C87 0.931 . S
H115 C88 0.930 . S
H116 C93 0.929 . S
H117 C94 0.929 . S
H118 C96 0.931 . S
H119 C97 0.930 . S
Pr120 C122 2.880 . S
Pr120 O140 2.562 . S
Pr120 O141 2.490 . S
Pr120 O142 2.695 . S
Pr120 O143 2.512 1_545 S
Pr120 O145 2.437 . S
Pr120 O148 2.436 . S
Pr120 O150 2.438 . S
Pr121 C131 2.880 . S
Pr121 O142 2.436 . S
Pr121 O144 2.438 . S
Pr121 O146 2.562 . S
Pr121 O147 2.490 . S
Pr121 O148 2.695 . S
Pr121 O149 2.512 . S
Pr121 O151 2.437 . S
C122 Pr120 2.880 . S
C122 C123 1.491 . S
C122 O140 1.254 . S
C122 O141 1.225 . S
C123 C122 1.491 . S
C123 C124 1.392 . S
C123 C128 1.356 . S
C124 C123 1.392 . S
C124 C125 1.368 . S
C124 H152 0.929 . S
C125 C124 1.368 . S
C125 C126 1.386 . S
C125 H153 0.929 . S
C126 C125 1.386 . S
C126 C127 1.373 . S
C127 C126 1.373 . S
C127 C128 1.409 . S
C127 H154 0.931 . S
C128 C123 1.356 . S
C128 C127 1.409 . S
C128 H155 0.930 . S
C129 O142 1.270 1_565 S
C129 O143 1.248 . S
C130 O144 1.267 . S
C130 O145 1.278 . S
C131 Pr121 2.880 . S
C131 C132 1.491 . S
C131 O146 1.254 . S
C131 O147 1.225 . S
C132 C131 1.491 . S
C132 C133 1.392 . S
C132 C137 1.356 . S
C133 C132 1.392 . S
C133 C134 1.368 . S
C133 H156 0.929 . S
C134 C133 1.368 . S
C134 C135 1.386 . S
C134 H157 0.929 . S
C135 C134 1.386 . S
C135 C136 1.373 . S
C136 C135 1.373 . S
C136 C137 1.409 . S
C136 H158 0.931 1_545 S
C137 C132 1.356 . S
C137 C136 1.409 . S
C137 H159 0.930 1_545 S
C138 O148 1.270 . S
C138 O149 1.248 . S
C139 O150 1.267 . S
C139 O151 1.278 . S
O140 Pr120 2.562 . S
O140 C122 1.254 . S
O141 Pr120 2.490 . S
O141 C122 1.225 . S
O142 Pr120 2.695 . S
O142 Pr121 2.436 . S
O142 C129 1.270 1_545 S
O143 Pr120 2.512 1_565 S
O143 C129 1.248 . S
O144 Pr121 2.438 . S
O144 C130 1.267 . S
O145 Pr120 2.437 . S
O145 C130 1.278 . S
O146 Pr121 2.562 . S
O146 C131 1.254 . S
O147 Pr121 2.490 . S
O147 C131 1.225 . S
O148 Pr120 2.436 . S
O148 Pr121 2.695 . S
O148 C138 1.270 . S
O149 Pr121 2.512 . S
O149 C138 1.248 . S
O150 Pr120 2.438 . S
O150 C139 1.267 . S
O151 Pr121 2.437 . S
O151 C139 1.278 . S
H152 C124 0.929 . S
H153 C125 0.929 . S
H154 C127 0.931 . S
H155 C128 0.930 . S
H156 C133 0.929 . S
H157 C134 0.929 . S
H158 C136 0.931 1_565 S
H159 C137 0.930 1_565 S
Pr160 C162 2.880 . S
Pr160 O180 2.562 . S
Pr160 O181 2.490 . S
Pr160 O182 2.695 . S
Pr160 O183 2.512 . S
Pr160 O185 2.437 . S
Pr160 O188 2.436 . S
Pr160 O190 2.438 . S
Pr161 C171 2.880 . S
Pr161 O182 2.436 . S
Pr161 O184 2.438 . S
Pr161 O186 2.562 . S
Pr161 O187 2.490 . S
Pr161 O188 2.695 . S
Pr161 O189 2.512 . S
Pr161 O191 2.437 . S
C162 Pr160 2.880 . S
C162 C163 1.491 . S
C162 O180 1.254 . S
C162 O181 1.225 . S
C163 C162 1.491 . S
C163 C164 1.392 . S
C163 C168 1.356 . S
C164 C163 1.392 . S
C164 C165 1.368 . S
C164 H192 0.929 . S
C165 C164 1.368 . S
C165 C166 1.386 . S
C165 H193 0.929 . S
C166 C165 1.386 . S
C166 C167 1.373 . S
C167 C166 1.373 . S
C167 C168 1.409 . S
C167 H194 0.931 . S
C168 C163 1.356 . S
C168 C167 1.409 . S
C168 H195 0.930 . S
C169 O182 1.270 . S
C169 O183 1.248 . S
C170 O184 1.267 . S
C170 O185 1.278 . S
C171 Pr161 2.880 . S
C171 C172 1.491 . S
C171 O186 1.254 . S
C171 O187 1.225 . S
C172 C171 1.491 . S
C172 C173 1.392 . S
C172 C177 1.356 . S
C173 C172 1.392 . S
C173 C174 1.368 . S
C173 H196 0.929 . S
C174 C173 1.368 . S
C174 C175 1.386 . S
C174 H197 0.929 . S
C175 C174 1.386 . S
C175 C176 1.373 . S
C176 C175 1.373 . S
C176 C177 1.409 . S
C176 H198 0.931 . S
C177 C172 1.356 . S
C177 C176 1.409 . S
C177 H199 0.930 . S
C178 O188 1.270 . S
C178 O189 1.248 . S
C179 O190 1.267 . S
C179 O191 1.278 . S
O180 Pr160 2.562 . S
O180 C162 1.254 . S
O181 Pr160 2.490 . S
O181 C162 1.225 . S
O182 Pr160 2.695 . S
O182 Pr161 2.436 . S
O182 C169 1.270 . S
O183 Pr160 2.512 . S
O183 C169 1.248 . S
O184 Pr161 2.438 . S
O184 C170 1.267 . S
O185 Pr160 2.437 . S
O185 C170 1.278 . S
O186 Pr161 2.562 . S
O186 C171 1.254 . S
O187 Pr161 2.490 . S
O187 C171 1.225 . S
O188 Pr160 2.436 . S
O188 Pr161 2.695 . S
O188 C178 1.270 . S
O189 Pr161 2.512 . S
O189 C178 1.248 . S
O190 Pr160 2.438 . S
O190 C179 1.267 . S
O191 Pr161 2.437 . S
O191 C179 1.278 . S
H192 C164 0.929 . S
H193 C165 0.929 . S
H194 C167 0.931 . S
H195 C168 0.930 . S
H196 C173 0.929 . S
H197 C174 0.929 . S
H198 C176 0.931 . S
H199 C177 0.930 . S
Pr200 C202 2.880 . S
Pr200 O220 2.562 . S
Pr200 O221 2.490 . S
Pr200 O222 2.695 . S
Pr200 O223 2.512 1_565 S
Pr200 O225 2.437 . S
Pr200 O228 2.436 . S
Pr200 O230 2.438 . S
Pr201 C211 2.880 . S
Pr201 O222 2.436 . S
Pr201 O224 2.438 . S
Pr201 O226 2.562 . S
Pr201 O227 2.490 . S
Pr201 O228 2.695 . S
Pr201 O229 2.512 . S
Pr201 O231 2.437 . S
C202 Pr200 2.880 . S
C202 C203 1.491 . S
C202 O220 1.254 . S
C202 O221 1.225 . S
C203 C202 1.491 . S
C203 C204 1.392 . S
C203 C208 1.356 . S
C204 C203 1.392 . S
C204 C205 1.368 . S
C204 H232 0.929 . S
C205 C204 1.368 . S
C205 C206 1.386 . S
C205 H233 0.929 . S
C206 C205 1.386 . S
C206 C207 1.373 . S
C207 C206 1.373 . S
C207 C208 1.409 . S
C207 H234 0.931 . S
C208 C203 1.356 . S
C208 C207 1.409 . S
C208 H235 0.930 . S
C209 O222 1.270 1_545 S
C209 O223 1.248 . S
C210 O224 1.267 . S
C210 O225 1.278 . S
C211 Pr201 2.880 . S
C211 C212 1.491 . S
C211 O226 1.254 . S
C211 O227 1.225 . S
C212 C211 1.491 . S
C212 C213 1.392 . S
C212 C217 1.356 . S
C213 C212 1.392 . S
C213 C214 1.368 . S
C213 H236 0.929 . S
C214 C213 1.368 . S
C214 C215 1.386 . S
C214 H237 0.929 . S
C215 C214 1.386 . S
C215 C216 1.373 . S
C216 C215 1.373 . S
C216 C217 1.409 . S
C216 H238 0.931 1_565 S
C217 C212 1.356 . S
C217 C216 1.409 . S
C217 H239 0.930 1_565 S
C218 O228 1.270 . S
C218 O229 1.248 . S
C219 O230 1.267 . S
C219 O231 1.278 . S
O220 Pr200 2.562 . S
O220 C202 1.254 . S
O221 Pr200 2.490 . S
O221 C202 1.225 . S
O222 Pr200 2.695 . S
O222 Pr201 2.436 . S
O222 C209 1.270 1_565 S
O223 Pr200 2.512 1_545 S
O223 C209 1.248 . S
O224 Pr201 2.438 . S
O224 C210 1.267 . S
O225 Pr200 2.437 . S
O225 C210 1.278 . S
O226 Pr201 2.562 . S
O226 C211 1.254 . S
O227 Pr201 2.490 . S
O227 C211 1.225 . S
O228 Pr200 2.436 . S
O228 Pr201 2.695 . S
O228 C218 1.270 . S
O229 Pr201 2.512 . S
O229 C218 1.248 . S
O230 Pr200 2.438 . S
O230 C219 1.267 . S
O231 Pr201 2.437 . S
O231 C219 1.278 . S
H232 C204 0.929 . S
H233 C205 0.929 . S
H234 C207 0.931 . S
H235 C208 0.930 . S
H236 C213 0.929 . S
H237 C214 0.929 . S
H238 C216 0.931 1_545 S
H239 C217 0.930 1_545 S
Pr240 C242 2.880 . S
Pr240 O260 2.562 . S
Pr240 O261 2.490 . S
Pr240 O262 2.695 . S
Pr240 O263 2.512 . S
Pr240 O265 2.437 . S
Pr240 O268 2.436 . S
Pr240 O270 2.438 . S
Pr241 C251 2.880 . S
Pr241 O262 2.436 . S
Pr241 O264 2.438 . S
Pr241 O266 2.562 . S
Pr241 O267 2.490 . S
Pr241 O268 2.695 . S
Pr241 O269 2.512 . S
Pr241 O271 2.437 . S
C242 Pr240 2.880 . S
C242 C243 1.491 . S
C242 O260 1.254 . S
C242 O261 1.225 . S
C243 C242 1.491 . S
C243 C244 1.392 . S
C243 C248 1.356 . S
C244 C243 1.392 . S
C244 C245 1.368 . S
C244 H272 0.929 . S
C245 C244 1.368 . S
C245 C246 1.386 . S
C245 H273 0.929 . S
C246 C245 1.386 . S
C246 C247 1.373 . S
C247 C246 1.373 . S
C247 C248 1.409 . S
C247 H274 0.931 . S
C248 C243 1.356 . S
C248 C247 1.409 . S
C248 H275 0.930 . S
C249 O262 1.270 . S
C249 O263 1.248 . S
C250 O264 1.267 . S
C250 O265 1.278 . S
C251 Pr241 2.880 . S
C251 C252 1.491 . S
C251 O266 1.254 . S
C251 O267 1.225 . S
C252 C251 1.491 . S
C252 C253 1.392 . S
C252 C257 1.356 . S
C253 C252 1.392 . S
C253 C254 1.368 . S
C253 H276 0.929 . S
C254 C253 1.368 . S
C254 C255 1.386 . S
C254 H277 0.929 . S
C255 C254 1.386 . S
C255 C256 1.373 . S
C256 C255 1.373 . S
C256 C257 1.409 . S
C256 H278 0.931 . S
C257 C252 1.356 . S
C257 C256 1.409 . S
C257 H279 0.930 . S
C258 O268 1.270 . S
C258 O269 1.248 . S
C259 O270 1.267 . S
C259 O271 1.278 . S
O260 Pr240 2.562 . S
O260 C242 1.254 . S
O261 Pr240 2.490 . S
O261 C242 1.225 . S
O262 Pr240 2.695 . S
O262 Pr241 2.436 . S
O262 C249 1.270 . S
O263 Pr240 2.512 . S
O263 C249 1.248 . S
O264 Pr241 2.438 . S
O264 C250 1.267 . S
O265 Pr240 2.437 . S
O265 C250 1.278 . S
O266 Pr241 2.562 . S
O266 C251 1.254 . S
O267 Pr241 2.490 . S
O267 C251 1.225 . S
O268 Pr240 2.436 . S
O268 Pr241 2.695 . S
O268 C258 1.270 . S
O269 Pr241 2.512 . S
O269 C258 1.248 . S
O270 Pr240 2.438 . S
O270 C259 1.267 . S
O271 Pr241 2.437 . S
O271 C259 1.278 . S
H272 C244 0.929 . S
H273 C245 0.929 . S
H274 C247 0.931 . S
H275 C248 0.930 . S
H276 C253 0.929 . S
H277 C254 0.929 . S
H278 C256 0.931 . S
H279 C257 0.930 . S
Pr280 C282 2.876 1_455 S
Pr280 O300 2.559 1_455 S
Pr280 O301 2.487 1_455 S
Pr280 O302 2.702 . S
Pr280 O303 2.516 1_545 S
Pr280 O305 2.441 . S
Pr280 O308 2.438 . S
Pr280 O310 2.439 . S
Pr281 C291 2.880 . S
Pr281 O302 2.436 . S
Pr281 O304 2.438 . S
Pr281 O306 2.562 . S
Pr281 O307 2.490 . S
Pr281 O308 2.695 . S
Pr281 O309 2.512 . S
Pr281 O311 2.437 . S
C282 Pr280 2.876 1_655 S
C282 C283 1.491 . S
C282 O300 1.254 . S
C282 O301 1.225 . S
C283 C282 1.491 . S
C283 C284 1.392 . S
C283 C288 1.356 . S
C284 C283 1.392 . S
C284 C285 1.368 . S
C284 H312 0.929 . S
C285 C284 1.368 . S
C285 C286 1.386 . S
C285 H313 0.929 . S
C286 C285 1.386 . S
C286 C287 1.373 . S
C287 C286 1.373 . S
C287 C288 1.409 . S
C287 H314 0.931 . S
C288 C283 1.356 . S
C288 C287 1.409 . S
C288 H315 0.930 . S
C289 O302 1.270 1_565 S
C289 O303 1.248 . S
C290 O304 1.267 . S
C290 O305 1.278 . S
C291 Pr281 2.880 . S
C291 C292 1.491 . S
C291 O306 1.254 . S
C291 O307 1.225 . S
C292 C291 1.491 . S
C292 C293 1.392 . S
C292 C297 1.356 . S
C293 C292 1.392 . S
C293 C294 1.368 . S
C293 H316 0.929 . S
C294 C293 1.368 . S
C294 C295 1.386 . S
C294 H317 0.929 . S
C295 C294 1.386 . S
C295 C296 1.373 . S
C296 C295 1.373 . S
C296 C297 1.409 . S
C296 H318 0.931 1_545 S
C297 C292 1.356 . S
C297 C296 1.409 . S
C297 H319 0.930 1_545 S
C298 O308 1.270 . S
C298 O309 1.248 . S
C299 O310 1.267 . S
C299 O311 1.278 . S
O300 Pr280 2.559 1_655 S
O300 C282 1.254 . S
O301 Pr280 2.487 1_655 S
O301 C282 1.225 . S
O302 Pr280 2.702 . S
O302 Pr281 2.436 . S
O302 C289 1.270 1_545 S
O303 Pr280 2.516 1_565 S
O303 C289 1.248 . S
O304 Pr281 2.438 . S
O304 C290 1.267 . S
O305 Pr280 2.441 . S
O305 C290 1.278 . S
O306 Pr281 2.562 . S
O306 C291 1.254 . S
O307 Pr281 2.490 . S
O307 C291 1.225 . S
O308 Pr280 2.438 . S
O308 Pr281 2.695 . S
O308 C298 1.270 . S
O309 Pr281 2.512 . S
O309 C298 1.248 . S
O310 Pr280 2.439 . S
O310 C299 1.267 . S
O311 Pr281 2.437 . S
O311 C299 1.278 . S
H312 C284 0.929 . S
H313 C285 0.929 . S
H314 C287 0.931 . S
H315 C288 0.930 . S
H316 C293 0.929 . S
H317 C294 0.929 . S
H318 C296 0.931 1_565 S
H319 C297 0.930 1_565 S
Pr320 C322 2.880 . S
Pr320 O340 2.562 . S
Pr320 O341 2.490 . S
Pr320 O342 2.695 . S
Pr320 O343 2.512 . S
Pr320 O345 2.437 . S
Pr320 O348 2.436 . S
Pr320 O350 2.438 . S
Pr321 C331 2.880 . S
Pr321 O342 2.436 . S
Pr321 O344 2.438 . S
Pr321 O346 2.562 . S
Pr321 O347 2.490 . S
Pr321 O348 2.695 . S
Pr321 O349 2.512 . S
Pr321 O351 2.437 . S
C322 Pr320 2.880 . S
C322 C323 1.491 . S
C322 O340 1.254 . S
C322 O341 1.225 . S
C323 C322 1.491 . S
C323 C324 1.392 . S
C323 C328 1.356 . S
C324 C323 1.392 . S
C324 C325 1.368 . S
C324 H352 0.929 . S
C325 C324 1.368 . S
C325 C326 1.386 . S
C325 H353 0.929 . S
C326 C325 1.386 . S
C326 C327 1.373 . S
C327 C326 1.373 . S
C327 C328 1.409 . S
C327 H354 0.931 . S
C328 C323 1.356 . S
C328 C327 1.409 . S
C328 H355 0.930 . S
C329 O342 1.270 . S
C329 O343 1.248 . S
C330 O344 1.267 . S
C330 O345 1.278 . S
C331 Pr321 2.880 . S
C331 C332 1.491 . S
C331 O346 1.254 . S
C331 O347 1.225 . S
C332 C331 1.491 . S
C332 C333 1.392 . S
C332 C337 1.356 . S
C333 C332 1.392 . S
C333 C334 1.368 . S
C333 H356 0.929 . S
C334 C333 1.368 . S
C334 C335 1.386 . S
C334 H357 0.929 . S
C335 C334 1.386 . S
C335 C336 1.373 . S
C336 C335 1.373 . S
C336 C337 1.409 . S
C336 H358 0.931 . S
C337 C332 1.356 . S
C337 C336 1.409 . S
C337 H359 0.930 . S
C338 O348 1.270 . S
C338 O349 1.248 . S
C339 O350 1.267 . S
C339 O351 1.278 . S
O340 Pr320 2.562 . S
O340 C322 1.254 . S
O341 Pr320 2.490 . S
O341 C322 1.225 . S
O342 Pr320 2.695 . S
O342 Pr321 2.436 . S
O342 C329 1.270 . S
O343 Pr320 2.512 . S
O343 C329 1.248 . S
O344 Pr321 2.438 . S
O344 C330 1.267 . S
O345 Pr320 2.437 . S
O345 C330 1.278 . S
O346 Pr321 2.562 . S
O346 C331 1.254 . S
O347 Pr321 2.490 . S
O347 C331 1.225 . S
O348 Pr320 2.436 . S
O348 Pr321 2.695 . S
O348 C338 1.270 . S
O349 Pr321 2.512 . S
O349 C338 1.248 . S
O350 Pr320 2.438 . S
O350 C339 1.267 . S
O351 Pr321 2.437 . S
O351 C339 1.278 . S
H352 C324 0.929 . S
H353 C325 0.929 . S
H354 C327 0.931 . S
H355 C328 0.930 . S
H356 C333 0.929 . S
H357 C334 0.929 . S
H358 C336 0.931 . S
H359 C337 0.930 . S
Pr360 C362 2.880 . S
Pr360 O380 2.562 . S
Pr360 O381 2.490 . S
Pr360 O382 2.695 . S
Pr360 O383 2.512 . S
Pr360 O385 2.437 . S
Pr360 O388 2.436 . S
Pr360 O390 2.438 . S
Pr361 C371 2.876 1_655 S
Pr361 O382 2.438 . S
Pr361 O384 2.439 . S
Pr361 O386 2.559 1_655 S
Pr361 O387 2.487 1_655 S
Pr361 O388 2.702 . S
Pr361 O389 2.516 1_545 S
Pr361 O391 2.441 . S
C362 Pr360 2.880 . S
C362 C363 1.491 . S
C362 O380 1.254 . S
C362 O381 1.225 . S
C363 C362 1.491 . S
C363 C364 1.392 . S
C363 C368 1.356 . S
C364 C363 1.392 . S
C364 C365 1.368 . S
C364 H392 0.929 . S
C365 C364 1.368 . S
C365 C366 1.386 . S
C365 H393 0.929 . S
C366 C365 1.386 . S
C366 C367 1.373 . S
C367 C366 1.373 . S
C367 C368 1.409 . S
C367 H394 0.931 1_545 S
C368 C363 1.356 . S
C368 C367 1.409 . S
C368 H395 0.930 1_545 S
C369 O382 1.270 . S
C369 O383 1.248 . S
C370 O384 1.267 . S
C370 O385 1.278 . S
C371 Pr361 2.876 1_455 S
C371 C372 1.491 . S
C371 O386 1.254 . S
C371 O387 1.225 . S
C372 C371 1.491 . S
C372 C373 1.392 . S
C372 C377 1.356 . S
C373 C372 1.392 . S
C373 C374 1.368 . S
C373 H396 0.929 . S
C374 C373 1.368 . S
C374 C375 1.386 . S
C374 H397 0.929 . S
C375 C374 1.386 . S
C375 C376 1.373 . S
C376 C375 1.373 . S
C376 C377 1.409 . S
C376 H398 0.931 . S
C377 C372 1.356 . S
C377 C376 1.409 . S
C377 H399 0.930 . S
C378 O388 1.270 1_565 S
C378 O389 1.248 . S
C379 O390 1.267 . S
C379 O391 1.278 . S
O380 Pr360 2.562 . S
O380 C362 1.254 . S
O381 Pr360 2.490 . S
O381 C362 1.225 . S
O382 Pr360 2.695 . S
O382 Pr361 2.438 . S
O382 C369 1.270 . S
O383 Pr360 2.512 . S
O383 C369 1.248 . S
O384 Pr361 2.439 . S
O384 C370 1.267 . S
O385 Pr360 2.437 . S
O385 C370 1.278 . S
O386 Pr361 2.559 1_455 S
O386 C371 1.254 . S
O387 Pr361 2.487 1_455 S
O387 C371 1.225 . S
O388 Pr360 2.436 . S
O388 Pr361 2.702 . S
O388 C378 1.270 1_545 S
O389 Pr361 2.516 1_565 S
O389 C378 1.248 . S
O390 Pr360 2.438 . S
O390 C379 1.267 . S
O391 Pr361 2.441 . S
O391 C379 1.278 . S
H392 C364 0.929 . S
H393 C365 0.929 . S
H394 C367 0.931 1_565 S
H395 C368 0.930 1_565 S
H396 C373 0.929 . S
H397 C374 0.929 . S
H398 C376 0.931 . S
H399 C377 0.930 . S
Pr400 C402 2.880 . S
Pr400 O420 2.562 . S
Pr400 O421 2.490 . S
Pr400 O422 2.695 . S
Pr400 O423 2.512 . S
Pr400 O425 2.437 . S
Pr400 O428 2.436 . S
Pr400 O430 2.438 . S
Pr401 C411 2.880 . S
Pr401 O422 2.436 . S
Pr401 O424 2.438 . S
Pr401 O426 2.562 . S
Pr401 O427 2.490 . S
Pr401 O428 2.695 . S
Pr401 O429 2.512 . S
Pr401 O431 2.437 . S
C402 Pr400 2.880 . S
C402 C403 1.491 . S
C402 O420 1.254 . S
C402 O421 1.225 . S
C403 C402 1.491 . S
C403 C404 1.392 . S
C403 C408 1.356 . S
C404 C403 1.392 . S
C404 C405 1.368 . S
C404 H432 0.929 . S
C405 C404 1.368 . S
C405 C406 1.386 . S
C405 H433 0.929 . S
C406 C405 1.386 . S
C406 C407 1.373 . S
C407 C406 1.373 . S
C407 C408 1.409 . S
C407 H434 0.931 . S
C408 C403 1.356 . S
C408 C407 1.409 . S
C408 H435 0.930 . S
C409 O422 1.270 . S
C409 O423 1.248 . S
C410 O424 1.267 . S
C410 O425 1.278 . S
C411 Pr401 2.880 . S
C411 C412 1.491 . S
C411 O426 1.254 . S
C411 O427 1.225 . S
C412 C411 1.491 . S
C412 C413 1.392 . S
C412 C417 1.356 . S
C413 C412 1.392 . S
C413 C414 1.368 . S
C413 H436 0.929 . S
C414 C413 1.368 . S
C414 C415 1.386 . S
C414 H437 0.929 . S
C415 C414 1.386 . S
C415 C416 1.373 . S
C416 C415 1.373 . S
C416 C417 1.409 . S
C416 H438 0.931 . S
C417 C412 1.356 . S
C417 C416 1.409 . S
C417 H439 0.930 . S
C418 O428 1.270 . S
C418 O429 1.248 . S
C419 O430 1.267 . S
C419 O431 1.278 . S
O420 Pr400 2.562 . S
O420 C402 1.254 . S
O421 Pr400 2.490 . S
O421 C402 1.225 . S
O422 Pr400 2.695 . S
O422 Pr401 2.436 . S
O422 C409 1.270 . S
O423 Pr400 2.512 . S
O423 C409 1.248 . S
O424 Pr401 2.438 . S
O424 C410 1.267 . S
O425 Pr400 2.437 . S
O425 C410 1.278 . S
O426 Pr401 2.562 . S
O426 C411 1.254 . S
O427 Pr401 2.490 . S
O427 C411 1.225 . S
O428 Pr400 2.436 . S
O428 Pr401 2.695 . S
O428 C418 1.270 . S
O429 Pr401 2.512 . S
O429 C418 1.248 . S
O430 Pr400 2.438 . S
O430 C419 1.267 . S
O431 Pr401 2.437 . S
O431 C419 1.278 . S
H432 C404 0.929 . S
H433 C405 0.929 . S
H434 C407 0.931 . S
H435 C408 0.930 . S
H436 C413 0.929 . S
H437 C414 0.929 . S
H438 C416 0.931 . S
H439 C417 0.930 . S
Pr440 C442 2.880 . S
Pr440 O460 2.562 . S
Pr440 O461 2.490 . S
Pr440 O462 2.695 . S
Pr440 O463 2.512 . S
Pr440 O465 2.437 . S
Pr440 O468 2.436 . S
Pr440 O470 2.438 . S
Pr441 C451 2.880 . S
Pr441 O462 2.436 . S
Pr441 O464 2.438 . S
Pr441 O466 2.562 . S
Pr441 O467 2.490 . S
Pr441 O468 2.695 . S
Pr441 O469 2.512 1_565 S
Pr441 O471 2.437 . S
C442 Pr440 2.880 . S
C442 C443 1.491 . S
C442 O460 1.254 . S
C442 O461 1.225 . S
C443 C442 1.491 . S
C443 C444 1.392 . S
C443 C448 1.356 . S
C444 C443 1.392 . S
C444 C445 1.368 . S
C444 H472 0.929 . S
C445 C444 1.368 . S
C445 C446 1.386 . S
C445 H473 0.929 . S
C446 C445 1.386 . S
C446 C447 1.373 . S
C447 C446 1.373 . S
C447 C448 1.409 . S
C447 H474 0.931 1_565 S
C448 C443 1.356 . S
C448 C447 1.409 . S
C448 H475 0.930 1_565 S
C449 O462 1.270 . S
C449 O463 1.248 . S
C450 O464 1.267 . S
C450 O465 1.278 . S
C451 Pr441 2.880 . S
C451 C452 1.491 . S
C451 O466 1.254 . S
C451 O467 1.225 . S
C452 C451 1.491 . S
C452 C453 1.392 . S
C452 C457 1.356 . S
C453 C452 1.392 . S
C453 C454 1.368 . S
C453 H476 0.929 . S
C454 C453 1.368 . S
C454 C455 1.386 . S
C454 H477 0.929 . S
C455 C454 1.386 . S
C455 C456 1.373 . S
C456 C455 1.373 . S
C456 C457 1.409 . S
C456 H478 0.931 . S
C457 C452 1.356 . S
C457 C456 1.409 . S
C457 H479 0.930 . S
C458 O468 1.270 1_545 S
C458 O469 1.248 . S
C459 O470 1.267 . S
C459 O471 1.278 . S
O460 Pr440 2.562 . S
O460 C442 1.254 . S
O461 Pr440 2.490 . S
O461 C442 1.225 . S
O462 Pr440 2.695 . S
O462 Pr441 2.436 . S
O462 C449 1.270 . S
O463 Pr440 2.512 . S
O463 C449 1.248 . S
O464 Pr441 2.438 . S
O464 C450 1.267 . S
O465 Pr440 2.437 . S
O465 C450 1.278 . S
O466 Pr441 2.562 . S
O466 C451 1.254 . S
O467 Pr441 2.490 . S
O467 C451 1.225 . S
O468 Pr440 2.436 . S
O468 Pr441 2.695 . S
O468 C458 1.270 1_565 S
O469 Pr441 2.512 1_545 S
O469 C458 1.248 . S
O470 Pr440 2.438 . S
O470 C459 1.267 . S
O471 Pr441 2.437 . S
O471 C459 1.278 . S
H472 C444 0.929 . S
H473 C445 0.929 . S
H474 C447 0.931 1_545 S
H475 C448 0.930 1_545 S
H476 C453 0.929 . S
H477 C454 0.929 . S
H478 C456 0.931 . S
H479 C457 0.930 . S
Pr480 C482 2.880 . S
Pr480 O500 2.562 . S
Pr480 O501 2.490 . S
Pr480 O502 2.695 . S
Pr480 O503 2.512 . S
Pr480 O505 2.437 . S
Pr480 O508 2.436 . S
Pr480 O510 2.438 . S
Pr481 C491 2.880 . S
Pr481 O502 2.436 . S
Pr481 O504 2.438 . S
Pr481 O506 2.562 . S
Pr481 O507 2.490 . S
Pr481 O508 2.695 . S
Pr481 O509 2.512 . S
Pr481 O511 2.437 . S
C482 Pr480 2.880 . S
C482 C483 1.491 . S
C482 O500 1.254 . S
C482 O501 1.225 . S
C483 C482 1.491 . S
C483 C484 1.392 . S
C483 C488 1.356 . S
C484 C483 1.392 . S
C484 C485 1.368 . S
C484 H512 0.929 . S
C485 C484 1.368 . S
C485 C486 1.386 . S
C485 H513 0.929 . S
C486 C485 1.386 . S
C486 C487 1.373 . S
C487 C486 1.373 . S
C487 C488 1.409 . S
C487 H514 0.931 . S
C488 C483 1.356 . S
C488 C487 1.409 . S
C488 H515 0.930 . S
C489 O502 1.270 . S
C489 O503 1.248 . S
C490 O504 1.267 . S
C490 O505 1.278 . S
C491 Pr481 2.880 . S
C491 C492 1.491 . S
C491 O506 1.254 . S
C491 O507 1.225 . S
C492 C491 1.491 . S
C492 C493 1.392 . S
C492 C497 1.356 . S
C493 C492 1.392 . S
C493 C494 1.368 . S
C493 H516 0.929 . S
C494 C493 1.368 . S
C494 C495 1.386 . S
C494 H517 0.929 . S
C495 C494 1.386 . S
C495 C496 1.373 . S
C496 C495 1.373 . S
C496 C497 1.409 . S
C496 H518 0.931 . S
C497 C492 1.356 . S
C497 C496 1.409 . S
C497 H519 0.930 . S
C498 O508 1.270 . S
C498 O509 1.248 . S
C499 O510 1.267 . S
C499 O511 1.278 . S
O500 Pr480 2.562 . S
O500 C482 1.254 . S
O501 Pr480 2.490 . S
O501 C482 1.225 . S
O502 Pr480 2.695 . S
O502 Pr481 2.436 . S
O502 C489 1.270 . S
O503 Pr480 2.512 . S
O503 C489 1.248 . S
O504 Pr481 2.438 . S
O504 C490 1.267 . S
O505 Pr480 2.437 . S
O505 C490 1.278 . S
O506 Pr481 2.562 . S
O506 C491 1.254 . S
O507 Pr481 2.490 . S
O507 C491 1.225 . S
O508 Pr480 2.436 . S
O508 Pr481 2.695 . S
O508 C498 1.270 . S
O509 Pr481 2.512 . S
O509 C498 1.248 . S
O510 Pr480 2.438 . S
O510 C499 1.267 . S
O511 Pr481 2.437 . S
O511 C499 1.278 . S
H512 C484 0.929 . S
H513 C485 0.929 . S
H514 C487 0.931 . S
H515 C488 0.930 . S
H516 C493 0.929 . S
H517 C494 0.929 . S
H518 C496 0.931 . S
H519 C497 0.930 . S
Pr520 C522 2.880 . S
Pr520 O540 2.562 . S
Pr520 O541 2.490 . S
Pr520 O542 2.695 . S
Pr520 O543 2.512 . S
Pr520 O545 2.437 . S
Pr520 O548 2.436 . S
Pr520 O550 2.438 . S
Pr521 C531 2.880 . S
Pr521 O542 2.436 . S
Pr521 O544 2.438 . S
Pr521 O546 2.562 . S
Pr521 O547 2.490 . S
Pr521 O548 2.695 . S
Pr521 O549 2.512 1_545 S
Pr521 O551 2.437 . S
C522 Pr520 2.880 . S
C522 C523 1.491 . S
C522 O540 1.254 . S
C522 O541 1.225 . S
C523 C522 1.491 . S
C523 C524 1.392 . S
C523 C528 1.356 . S
C524 C523 1.392 . S
C524 C525 1.368 . S
C524 H552 0.929 . S
C525 C524 1.368 . S
C525 C526 1.386 . S
C525 H553 0.929 . S
C526 C525 1.386 . S
C526 C527 1.373 . S
C527 C526 1.373 . S
C527 C528 1.409 . S
C527 H554 0.931 1_545 S
C528 C523 1.356 . S
C528 C527 1.409 . S
C528 H555 0.930 1_545 S
C529 O542 1.270 . S
C529 O543 1.248 . S
C530 O544 1.267 . S
C530 O545 1.278 . S
C531 Pr521 2.880 . S
C531 C532 1.491 . S
C531 O546 1.254 . S
C531 O547 1.225 . S
C532 C531 1.491 . S
C532 C533 1.392 . S
C532 C537 1.356 . S
C533 C532 1.392 . S
C533 C534 1.368 . S
C533 H556 0.929 . S
C534 C533 1.368 . S
C534 C535 1.386 . S
C534 H557 0.929 . S
C535 C534 1.386 . S
C535 C536 1.373 . S
C536 C535 1.373 . S
C536 C537 1.409 . S
C536 H558 0.931 . S
C537 C532 1.356 . S
C537 C536 1.409 . S
C537 H559 0.930 . S
C538 O548 1.270 1_565 S
C538 O549 1.248 . S
C539 O550 1.267 . S
C539 O551 1.278 . S
O540 Pr520 2.562 . S
O540 C522 1.254 . S
O541 Pr520 2.490 . S
O541 C522 1.225 . S
O542 Pr520 2.695 . S
O542 Pr521 2.436 . S
O542 C529 1.270 . S
O543 Pr520 2.512 . S
O543 C529 1.248 . S
O544 Pr521 2.438 . S
O544 C530 1.267 . S
O545 Pr520 2.437 . S
O545 C530 1.278 . S
O546 Pr521 2.562 . S
O546 C531 1.254 . S
O547 Pr521 2.490 . S
O547 C531 1.225 . S
O548 Pr520 2.436 . S
O548 Pr521 2.695 . S
O548 C538 1.270 1_545 S
O549 Pr521 2.512 1_565 S
O549 C538 1.248 . S
O550 Pr520 2.438 . S
O550 C539 1.267 . S
O551 Pr521 2.437 . S
O551 C539 1.278 . S
H552 C524 0.929 . S
H553 C525 0.929 . S
H554 C527 0.931 1_565 S
H555 C528 0.930 1_565 S
H556 C533 0.929 . S
H557 C534 0.929 . S
H558 C536 0.931 . S
H559 C537 0.930 . S
Pr560 C562 2.880 . S
Pr560 O580 2.562 . S
Pr560 O581 2.490 . S
Pr560 O582 2.695 . S
Pr560 O583 2.512 . S
Pr560 O585 2.437 . S
Pr560 O588 2.436 . S
Pr560 O590 2.438 . S
Pr561 C571 2.880 . S
Pr561 O582 2.436 . S
Pr561 O584 2.438 . S
Pr561 O586 2.562 . S
Pr561 O587 2.490 . S
Pr561 O588 2.695 . S
Pr561 O589 2.512 . S
Pr561 O591 2.437 . S
C562 Pr560 2.880 . S
C562 C563 1.491 . S
C562 O580 1.254 . S
C562 O581 1.225 . S
C563 C562 1.491 . S
C563 C564 1.392 . S
C563 C568 1.356 . S
C564 C563 1.392 . S
C564 C565 1.368 . S
C564 H592 0.929 . S
C565 C564 1.368 . S
C565 C566 1.386 . S
C565 H593 0.929 . S
C566 C565 1.386 . S
C566 C567 1.373 . S
C567 C566 1.373 . S
C567 C568 1.409 . S
C567 H594 0.931 . S
C568 C563 1.356 . S
C568 C567 1.409 . S
C568 H595 0.930 . S
C569 O582 1.270 . S
C569 O583 1.248 . S
C570 O584 1.267 . S
C570 O585 1.278 . S
C571 Pr561 2.880 . S
C571 C572 1.491 . S
C571 O586 1.254 . S
C571 O587 1.225 . S
C572 C571 1.491 . S
C572 C573 1.392 . S
C572 C577 1.356 . S
C573 C572 1.392 . S
C573 C574 1.368 . S
C573 H596 0.929 . S
C574 C573 1.368 . S
C574 C575 1.386 . S
C574 H597 0.929 . S
C575 C574 1.386 . S
C575 C576 1.373 . S
C576 C575 1.373 . S
C576 C577 1.409 . S
C576 H598 0.931 . S
C577 C572 1.356 . S
C577 C576 1.409 . S
C577 H599 0.930 . S
C578 O588 1.270 . S
C578 O589 1.248 . S
C579 O590 1.267 . S
C579 O591 1.278 . S
O580 Pr560 2.562 . S
O580 C562 1.254 . S
O581 Pr560 2.490 . S
O581 C562 1.225 . S
O582 Pr560 2.695 . S
O582 Pr561 2.436 . S
O582 C569 1.270 . S
O583 Pr560 2.512 . S
O583 C569 1.248 . S
O584 Pr561 2.438 . S
O584 C570 1.267 . S
O585 Pr560 2.437 . S
O585 C570 1.278 . S
O586 Pr561 2.562 . S
O586 C571 1.254 . S
O587 Pr561 2.490 . S
O587 C571 1.225 . S
O588 Pr560 2.436 . S
O588 Pr561 2.695 . S
O588 C578 1.270 . S
O589 Pr561 2.512 . S
O589 C578 1.248 . S
O590 Pr560 2.438 . S
O590 C579 1.267 . S
O591 Pr561 2.437 . S
O591 C579 1.278 . S
H592 C564 0.929 . S
H593 C565 0.929 . S
H594 C567 0.931 . S
H595 C568 0.930 . S
H596 C573 0.929 . S
H597 C574 0.929 . S
H598 C576 0.931 . S
H599 C577 0.930 . S
Pr600 C602 2.880 . S
Pr600 O620 2.562 . S
Pr600 O621 2.490 . S
Pr600 O622 2.695 . S
Pr600 O623 2.512 . S
Pr600 O625 2.437 . S
Pr600 O628 2.436 . S
Pr600 O630 2.438 . S
Pr601 C611 2.876 1_655 S
Pr601 O622 2.438 . S
Pr601 O624 2.439 . S
Pr601 O626 2.559 1_655 S
Pr601 O627 2.487 1_655 S
Pr601 O628 2.702 . S
Pr601 O629 2.516 1_565 S
Pr601 O631 2.441 . S
C602 Pr600 2.880 . S
C602 C603 1.491 . S
C602 O620 1.254 . S
C602 O621 1.225 . S
C603 C602 1.491 . S
C603 C604 1.392 . S
C603 C608 1.356 . S
C604 C603 1.392 . S
C604 C605 1.368 . S
C604 H632 0.929 . S
C605 C604 1.368 . S
C605 C606 1.386 . S
C605 H633 0.929 . S
C606 C605 1.386 . S
C606 C607 1.373 . S
C607 C606 1.373 . S
C607 C608 1.409 . S
C607 H634 0.931 1_565 S
C608 C603 1.356 . S
C608 C607 1.409 . S
C608 H635 0.930 1_565 S
C609 O622 1.270 . S
C609 O623 1.248 . S
C610 O624 1.267 . S
C610 O625 1.278 . S
C611 Pr601 2.876 1_455 S
C611 C612 1.491 . S
C611 O626 1.254 . S
C611 O627 1.225 . S
C612 C611 1.491 . S
C612 C613 1.392 . S
C612 C617 1.356 . S
C613 C612 1.392 . S
C613 C614 1.368 . S
C613 H636 0.929 . S
C614 C613 1.368 . S
C614 C615 1.386 . S
C614 H637 0.929 . S
C615 C614 1.386 . S
C615 C616 1.373 . S
C616 C615 1.373 . S
C616 C617 1.409 . S
C616 H638 0.931 . S
C617 C612 1.356 . S
C617 C616 1.409 . S
C617 H639 0.930 . S
C618 O628 1.270 1_545 S
C618 O629 1.248 . S
C619 O630 1.267 . S
C619 O631 1.278 . S
O620 Pr600 2.562 . S
O620 C602 1.254 . S
O621 Pr600 2.490 . S
O621 C602 1.225 . S
O622 Pr600 2.695 . S
O622 Pr601 2.438 . S
O622 C609 1.270 . S
O623 Pr600 2.512 . S
O623 C609 1.248 . S
O624 Pr601 2.439 . S
O624 C610 1.267 . S
O625 Pr600 2.437 . S
O625 C610 1.278 . S
O626 Pr601 2.559 1_455 S
O626 C611 1.254 . S
O627 Pr601 2.487 1_455 S
O627 C611 1.225 . S
O628 Pr600 2.436 . S
O628 Pr601 2.702 . S
O628 C618 1.270 1_565 S
O629 Pr601 2.516 1_545 S
O629 C618 1.248 . S
O630 Pr600 2.438 . S
O630 C619 1.267 . S
O631 Pr601 2.441 . S
O631 C619 1.278 . S
H632 C604 0.929 . S
H633 C605 0.929 . S
H634 C607 0.931 1_545 S
H635 C608 0.930 1_545 S
H636 C613 0.929 . S
H637 C614 0.929 . S
H638 C616 0.931 . S
H639 C617 0.930 . S
Pr640 C642 2.880 . S
Pr640 O660 2.562 . S
Pr640 O661 2.490 . S
Pr640 O662 2.695 . S
Pr640 O663 2.512 . S
Pr640 O665 2.437 . S
Pr640 O668 2.436 . S
Pr640 O670 2.438 . S
Pr641 C651 2.880 . S
Pr641 O662 2.436 . S
Pr641 O664 2.438 . S
Pr641 O666 2.562 . S
Pr641 O667 2.490 . S
Pr641 O668 2.695 . S
Pr641 O669 2.512 . S
Pr641 O671 2.437 . S
C642 Pr640 2.880 . S
C642 C643 1.491 . S
C642 O660 1.254 . S
C642 O661 1.225 . S
C643 C642 1.491 . S
C643 C644 1.392 . S
C643 C648 1.356 . S
C644 C643 1.392 . S
C644 C645 1.368 . S
C644 H672 0.929 . S
C645 C644 1.368 . S
C645 C646 1.386 . S
C645 H673 0.929 . S
C646 C645 1.386 . S
C646 C647 1.373 . S
C647 C646 1.373 . S
C647 C648 1.409 . S
C647 H674 0.931 . S
C648 C643 1.356 . S
C648 C647 1.409 . S
C648 H675 0.930 . S
C649 O662 1.270 . S
C649 O663 1.248 . S
C650 O664 1.267 . S
C650 O665 1.278 . S
C651 Pr641 2.880 . S
C651 C652 1.491 . S
C651 O666 1.254 . S
C651 O667 1.225 . S
C652 C651 1.491 . S
C652 C653 1.392 . S
C652 C657 1.356 . S
C653 C652 1.392 . S
C653 C654 1.368 . S
C653 H676 0.929 . S
C654 C653 1.368 . S
C654 C655 1.386 . S
C654 H677 0.929 . S
C655 C654 1.386 . S
C655 C656 1.373 . S
C656 C655 1.373 . S
C656 C657 1.409 . S
C656 H678 0.931 . S
C657 C652 1.356 . S
C657 C656 1.409 . S
C657 H679 0.930 . S
C658 O668 1.270 . S
C658 O669 1.248 . S
C659 O670 1.267 . S
C659 O671 1.278 . S
O660 Pr640 2.562 . S
O660 C642 1.254 . S
O661 Pr640 2.490 . S
O661 C642 1.225 . S
O662 Pr640 2.695 . S
O662 Pr641 2.436 . S
O662 C649 1.270 . S
O663 Pr640 2.512 . S
O663 C649 1.248 . S
O664 Pr641 2.438 . S
O664 C650 1.267 . S
O665 Pr640 2.437 . S
O665 C650 1.278 . S
O666 Pr641 2.562 . S
O666 C651 1.254 . S
O667 Pr641 2.490 . S
O667 C651 1.225 . S
O668 Pr640 2.436 . S
O668 Pr641 2.695 . S
O668 C658 1.270 . S
O669 Pr641 2.512 . S
O669 C658 1.248 . S
O670 Pr640 2.438 . S
O670 C659 1.267 . S
O671 Pr641 2.437 . S
O671 C659 1.278 . S
H672 C644 0.929 . S
H673 C645 0.929 . S
H674 C647 0.931 . S
H675 C648 0.930 . S
H676 C653 0.929 . S
H677 C654 0.929 . S
H678 C656 0.931 . S
H679 C657 0.930 . S
Pr680 C682 2.880 . S
Pr680 O700 2.562 . S
Pr680 O701 2.490 . S
Pr680 O702 2.695 . S
Pr680 O703 2.512 . S
Pr680 O705 2.437 . S
Pr680 O708 2.436 . S
Pr680 O710 2.438 . S
Pr681 C691 2.880 . S
Pr681 O702 2.436 . S
Pr681 O704 2.438 . S
Pr681 O706 2.562 . S
Pr681 O707 2.490 . S
Pr681 O708 2.695 . S
Pr681 O709 2.512 . S
Pr681 O711 2.437 . S
C682 Pr680 2.880 . S
C682 C683 1.491 . S
C682 O700 1.254 . S
C682 O701 1.225 . S
C683 C682 1.491 . S
C683 C684 1.392 . S
C683 C688 1.356 . S
C684 C683 1.392 . S
C684 C685 1.368 . S
C684 H712 0.929 . S
C685 C684 1.368 . S
C685 C686 1.386 . S
C685 H713 0.929 . S
C686 C685 1.386 . S
C686 C687 1.373 . S
C687 C686 1.373 . S
C687 C688 1.409 . S
C687 H714 0.931 . S
C688 C683 1.356 . S
C688 C687 1.409 . S
C688 H715 0.930 . S
C689 O702 1.270 . S
C689 O703 1.248 . S
C690 O704 1.267 . S
C690 O705 1.278 . S
C691 Pr681 2.880 . S
C691 C692 1.491 . S
C691 O706 1.254 . S
C691 O707 1.225 . S
C692 C691 1.491 . S
C692 C693 1.392 . S
C692 C697 1.356 . S
C693 C692 1.392 . S
C693 C694 1.368 . S
C693 H716 0.929 . S
C694 C693 1.368 . S
C694 C695 1.386 . S
C694 H717 0.929 . S
C695 C694 1.386 . S
C695 C696 1.373 . S
C696 C695 1.373 . S
C696 C697 1.409 . S
C696 H718 0.931 . S
C697 C692 1.356 . S
C697 C696 1.409 . S
C697 H719 0.930 . S
C698 O708 1.270 . S
C698 O709 1.248 . S
C699 O710 1.267 . S
C699 O711 1.278 . S
O700 Pr680 2.562 . S
O700 C682 1.254 . S
O701 Pr680 2.490 . S
O701 C682 1.225 . S
O702 Pr680 2.695 . S
O702 Pr681 2.436 . S
O702 C689 1.270 . S
O703 Pr680 2.512 . S
O703 C689 1.248 . S
O704 Pr681 2.438 . S
O704 C690 1.267 . S
O705 Pr680 2.437 . S
O705 C690 1.278 . S
O706 Pr681 2.562 . S
O706 C691 1.254 . S
O707 Pr681 2.490 . S
O707 C691 1.225 . S
O708 Pr680 2.436 . S
O708 Pr681 2.695 . S
O708 C698 1.270 . S
O709 Pr681 2.512 . S
O709 C698 1.248 . S
O710 Pr680 2.438 . S
O710 C699 1.267 . S
O711 Pr681 2.437 . S
O711 C699 1.278 . S
H712 C684 0.929 . S
H713 C685 0.929 . S
H714 C687 0.931 . S
H715 C688 0.930 . S
H716 C693 0.929 . S
H717 C694 0.929 . S
H718 C696 0.931 . S
H719 C697 0.930 . S
Pr720 C722 2.880 . S
Pr720 O740 2.562 . S
Pr720 O741 2.490 . S
Pr720 O742 2.695 . S
Pr720 O743 2.512 . S
Pr720 O745 2.437 . S
Pr720 O748 2.436 . S
Pr720 O750 2.438 . S
Pr721 C731 2.880 . S
Pr721 O742 2.436 . S
Pr721 O744 2.438 . S
Pr721 O746 2.562 . S
Pr721 O747 2.490 . S
Pr721 O748 2.695 . S
Pr721 O749 2.512 . S
Pr721 O751 2.437 . S
C722 Pr720 2.880 . S
C722 C723 1.491 . S
C722 O740 1.254 . S
C722 O741 1.225 . S
C723 C722 1.491 . S
C723 C724 1.392 . S
C723 C728 1.356 . S
C724 C723 1.392 . S
C724 C725 1.368 . S
C724 H752 0.929 . S
C725 C724 1.368 . S
C725 C726 1.386 . S
C725 H753 0.929 . S
C726 C725 1.386 . S
C726 C727 1.373 . S
C727 C726 1.373 . S
C727 C728 1.409 . S
C727 H754 0.931 . S
C728 C723 1.356 . S
C728 C727 1.409 . S
C728 H755 0.930 . S
C729 O742 1.270 . S
C729 O743 1.248 . S
C730 O744 1.267 . S
C730 O745 1.278 . S
C731 Pr721 2.880 . S
C731 C732 1.491 . S
C731 O746 1.254 . S
C731 O747 1.225 . S
C732 C731 1.491 . S
C732 C733 1.392 . S
C732 C737 1.356 . S
C733 C732 1.392 . S
C733 C734 1.368 . S
C733 H756 0.929 . S
C734 C733 1.368 . S
C734 C735 1.386 . S
C734 H757 0.929 . S
C735 C734 1.386 . S
C735 C736 1.373 . S
C736 C735 1.373 . S
C736 C737 1.409 . S
C736 H758 0.931 . S
C737 C732 1.356 . S
C737 C736 1.409 . S
C737 H759 0.930 . S
C738 O748 1.270 . S
C738 O749 1.248 . S
C739 O750 1.267 . S
C739 O751 1.278 . S
O740 Pr720 2.562 . S
O740 C722 1.254 . S
O741 Pr720 2.490 . S
O741 C722 1.225 . S
O742 Pr720 2.695 . S
O742 Pr721 2.436 . S
O742 C729 1.270 . S
O743 Pr720 2.512 . S
O743 C729 1.248 . S
O744 Pr721 2.438 . S
O744 C730 1.267 . S
O745 Pr720 2.437 . S
O745 C730 1.278 . S
O746 Pr721 2.562 . S
O746 C731 1.254 . S
O747 Pr721 2.490 . S
O747 C731 1.225 . S
O748 Pr720 2.436 . S
O748 Pr721 2.695 . S
O748 C738 1.270 . S
O749 Pr721 2.512 . S
O749 C738 1.248 . S
O750 Pr720 2.438 . S
O750 C739 1.267 . S
O751 Pr721 2.437 . S
O751 C739 1.278 . S
H752 C724 0.929 . S
H753 C725 0.929 . S
H754 C727 0.931 . S
H755 C728 0.930 . S
H756 C733 0.929 . S
H757 C734 0.929 . S
H758 C736 0.931 . S
H759 C737 0.930 . S
Pr760 C762 2.876 1_655 S
Pr760 O780 2.559 1_655 S
Pr760 O781 2.487 1_655 S
Pr760 O782 2.702 . S
Pr760 O783 2.516 . S
Pr760 O785 2.441 . S
Pr760 O788 2.438 . S
Pr760 O790 2.439 . S
Pr761 C771 2.880 . S
Pr761 O782 2.436 . S
Pr761 O784 2.438 . S
Pr761 O786 2.562 . S
Pr761 O787 2.490 . S
Pr761 O788 2.695 . S
Pr761 O789 2.512 . S
Pr761 O791 2.437 . S
C762 Pr760 2.876 1_455 S
C762 C763 1.491 . S
C762 O780 1.254 . S
C762 O781 1.225 . S
C763 C762 1.491 . S
C763 C764 1.392 . S
C763 C768 1.356 . S
C764 C763 1.392 . S
C764 C765 1.368 . S
C764 H792 0.929 . S
C765 C764 1.368 . S
C765 C766 1.386 . S
C765 H793 0.929 . S
C766 C765 1.386 . S
C766 C767 1.373 . S
C767 C766 1.373 . S
C767 C768 1.409 . S
C767 H794 0.931 . S
C768 C763 1.356 . S
C768 C767 1.409 . S
C768 H795 0.930 . S
C769 O782 1.270 . S
C769 O783 1.248 . S
C770 O784 1.267 . S
C770 O785 1.278 . S
C771 Pr761 2.880 . S
C771 C772 1.491 . S
C771 O786 1.254 . S
C771 O787 1.225 . S
C772 C771 1.491 . S
C772 C773 1.392 . S
C772 C777 1.356 . S
C773 C772 1.392 . S
C773 C774 1.368 . S
C773 H796 0.929 . S
C774 C773 1.368 . S
C774 C775 1.386 . S
C774 H797 0.929 . S
C775 C774 1.386 . S
C775 C776 1.373 . S
C776 C775 1.373 . S
C776 C777 1.409 . S
C776 H798 0.931 . S
C777 C772 1.356 . S
C777 C776 1.409 . S
C777 H799 0.930 . S
C778 O788 1.270 . S
C778 O789 1.248 . S
C779 O790 1.267 . S
C779 O791 1.278 . S
O780 Pr760 2.559 1_455 S
O780 C762 1.254 . S
O781 Pr760 2.487 1_455 S
O781 C762 1.225 . S
O782 Pr760 2.702 . S
O782 Pr761 2.436 . S
O782 C769 1.270 . S
O783 Pr760 2.516 . S
O783 C769 1.248 . S
O784 Pr761 2.438 . S
O784 C770 1.267 . S
O785 Pr760 2.441 . S
O785 C770 1.278 . S
O786 Pr761 2.562 . S
O786 C771 1.254 . S
O787 Pr761 2.490 . S
O787 C771 1.225 . S
O788 Pr760 2.438 . S
O788 Pr761 2.695 . S
O788 C778 1.270 . S
O789 Pr761 2.512 . S
O789 C778 1.248 . S
O790 Pr760 2.439 . S
O790 C779 1.267 . S
O791 Pr761 2.437 . S
O791 C779 1.278 . S
H792 C764 0.929 . S
H793 C765 0.929 . S
H794 C767 0.931 . S
H795 C768 0.930 . S
H796 C773 0.929 . S
H797 C774 0.929 . S
H798 C776 0.931 . S
H799 C777 0.930 . S
Pr800 C802 2.880 . S
Pr800 O820 2.562 . S
Pr800 O821 2.490 . S
Pr800 O822 2.695 . S
Pr800 O823 2.512 . S
Pr800 O825 2.437 . S
Pr800 O828 2.436 . S
Pr800 O830 2.438 . S
Pr801 C811 2.880 . S
Pr801 O822 2.436 . S
Pr801 O824 2.438 . S
Pr801 O826 2.562 . S
Pr801 O827 2.490 . S
Pr801 O828 2.695 . S
Pr801 O829 2.512 . S
Pr801 O831 2.437 . S
C802 Pr800 2.880 . S
C802 C803 1.491 . S
C802 O820 1.254 . S
C802 O821 1.225 . S
C803 C802 1.491 . S
C803 C804 1.392 . S
C803 C808 1.356 . S
C804 C803 1.392 . S
C804 C805 1.368 . S
C804 H832 0.929 . S
C805 C804 1.368 . S
C805 C806 1.386 . S
C805 H833 0.929 . S
C806 C805 1.386 . S
C806 C807 1.373 . S
C807 C806 1.373 . S
C807 C808 1.409 . S
C807 H834 0.931 . S
C808 C803 1.356 . S
C808 C807 1.409 . S
C808 H835 0.930 . S
C809 O822 1.270 . S
C809 O823 1.248 . S
C810 O824 1.267 . S
C810 O825 1.278 . S
C811 Pr801 2.880 . S
C811 C812 1.491 . S
C811 O826 1.254 . S
C811 O827 1.225 . S
C812 C811 1.491 . S
C812 C813 1.392 . S
C812 C817 1.356 . S
C813 C812 1.392 . S
C813 C814 1.368 . S
C813 H836 0.929 . S
C814 C813 1.368 . S
C814 C815 1.386 . S
C814 H837 0.929 . S
C815 C814 1.386 . S
C815 C816 1.373 . S
C816 C815 1.373 . S
C816 C817 1.409 . S
C816 H838 0.931 . S
C817 C812 1.356 . S
C817 C816 1.409 . S
C817 H839 0.930 . S
C818 O828 1.270 . S
C818 O829 1.248 . S
C819 O830 1.267 . S
C819 O831 1.278 . S
O820 Pr800 2.562 . S
O820 C802 1.254 . S
O821 Pr800 2.490 . S
O821 C802 1.225 . S
O822 Pr800 2.695 . S
O822 Pr801 2.436 . S
O822 C809 1.270 . S
O823 Pr800 2.512 . S
O823 C809 1.248 . S
O824 Pr801 2.438 . S
O824 C810 1.267 . S
O825 Pr800 2.437 . S
O825 C810 1.278 . S
O826 Pr801 2.562 . S
O826 C811 1.254 . S
O827 Pr801 2.490 . S
O827 C811 1.225 . S
O828 Pr800 2.436 . S
O828 Pr801 2.695 . S
O828 C818 1.270 . S
O829 Pr801 2.512 . S
O829 C818 1.248 . S
O830 Pr800 2.438 . S
O830 C819 1.267 . S
O831 Pr801 2.437 . S
O831 C819 1.278 . S
H832 C804 0.929 . S
H833 C805 0.929 . S
H834 C807 0.931 . S
H835 C808 0.930 . S
H836 C813 0.929 . S
H837 C814 0.929 . S
H838 C816 0.931 . S
H839 C817 0.930 . S
Pr840 C842 2.876 1_655 S
Pr840 O860 2.559 1_655 S
Pr840 O861 2.487 1_655 S
Pr840 O862 2.702 . S
Pr840 O863 2.516 . S
Pr840 O865 2.441 . S
Pr840 O868 2.438 . S
Pr840 O870 2.439 . S
Pr841 C851 2.880 . S
Pr841 O862 2.436 . S
Pr841 O864 2.438 . S
Pr841 O866 2.562 . S
Pr841 O867 2.490 . S
Pr841 O868 2.695 . S
Pr841 O869 2.512 . S
Pr841 O871 2.437 . S
C842 Pr840 2.876 1_455 S
C842 C843 1.491 . S
C842 O860 1.254 . S
C842 O861 1.225 . S
C843 C842 1.491 . S
C843 C844 1.392 . S
C843 C848 1.356 . S
C844 C843 1.392 . S
C844 C845 1.368 . S
C844 H872 0.929 . S
C845 C844 1.368 . S
C845 C846 1.386 . S
C845 H873 0.929 . S
C846 C845 1.386 . S
C846 C847 1.373 . S
C847 C846 1.373 . S
C847 C848 1.409 . S
C847 H874 0.931 . S
C848 C843 1.356 . S
C848 C847 1.409 . S
C848 H875 0.930 . S
C849 O862 1.270 . S
C849 O863 1.248 . S
C850 O864 1.267 . S
C850 O865 1.278 . S
C851 Pr841 2.880 . S
C851 C852 1.491 . S
C851 O866 1.254 . S
C851 O867 1.225 . S
C852 C851 1.491 . S
C852 C853 1.392 . S
C852 C857 1.356 . S
C853 C852 1.392 . S
C853 C854 1.368 . S
C853 H876 0.929 . S
C854 C853 1.368 . S
C854 C855 1.386 . S
C854 H877 0.929 . S
C855 C854 1.386 . S
C855 C856 1.373 . S
C856 C855 1.373 . S
C856 C857 1.409 . S
C856 H878 0.931 . S
C857 C852 1.356 . S
C857 C856 1.409 . S
C857 H879 0.930 . S
C858 O868 1.270 . S
C858 O869 1.248 . S
C859 O870 1.267 . S
C859 O871 1.278 . S
O860 Pr840 2.559 1_455 S
O860 C842 1.254 . S
O861 Pr840 2.487 1_455 S
O861 C842 1.225 . S
O862 Pr840 2.702 . S
O862 Pr841 2.436 . S
O862 C849 1.270 . S
O863 Pr840 2.516 . S
O863 C849 1.248 . S
O864 Pr841 2.438 . S
O864 C850 1.267 . S
O865 Pr840 2.441 . S
O865 C850 1.278 . S
O866 Pr841 2.562 . S
O866 C851 1.254 . S
O867 Pr841 2.490 . S
O867 C851 1.225 . S
O868 Pr840 2.438 . S
O868 Pr841 2.695 . S
O868 C858 1.270 . S
O869 Pr841 2.512 . S
O869 C858 1.248 . S
O870 Pr840 2.439 . S
O870 C859 1.267 . S
O871 Pr841 2.437 . S
O871 C859 1.278 . S
H872 C844 0.929 . S
H873 C845 0.929 . S
H874 C847 0.931 . S
H875 C848 0.930 . S
H876 C853 0.929 . S
H877 C854 0.929 . S
H878 C856 0.931 . S
H879 C857 0.930 . S
Pr880 C882 2.880 . S
Pr880 O900 2.562 . S
Pr880 O901 2.490 . S
Pr880 O902 2.695 . S
Pr880 O903 2.512 . S
Pr880 O905 2.437 . S
Pr880 O908 2.436 . S
Pr880 O910 2.438 . S
Pr881 C891 2.880 . S
Pr881 O902 2.436 . S
Pr881 O904 2.438 . S
Pr881 O906 2.562 . S
Pr881 O907 2.490 . S
Pr881 O908 2.695 . S
Pr881 O909 2.512 . S
Pr881 O911 2.437 . S
C882 Pr880 2.880 . S
C882 C883 1.491 . S
C882 O900 1.254 . S
C882 O901 1.225 . S
C883 C882 1.491 . S
C883 C884 1.392 . S
C883 C888 1.356 . S
C884 C883 1.392 . S
C884 C885 1.368 . S
C884 H912 0.929 . S
C885 C884 1.368 . S
C885 C886 1.386 . S
C885 H913 0.929 . S
C886 C885 1.386 . S
C886 C887 1.373 . S
C887 C886 1.373 . S
C887 C888 1.409 . S
C887 H914 0.931 . S
C888 C883 1.356 . S
C888 C887 1.409 . S
C888 H915 0.930 . S
C889 O902 1.270 . S
C889 O903 1.248 . S
C890 O904 1.267 . S
C890 O905 1.278 . S
C891 Pr881 2.880 . S
C891 C892 1.491 . S
C891 O906 1.254 . S
C891 O907 1.225 . S
C892 C891 1.491 . S
C892 C893 1.392 . S
C892 C897 1.356 . S
C893 C892 1.392 . S
C893 C894 1.368 . S
C893 H916 0.929 . S
C894 C893 1.368 . S
C894 C895 1.386 . S
C894 H917 0.929 . S
C895 C894 1.386 . S
C895 C896 1.373 . S
C896 C895 1.373 . S
C896 C897 1.409 . S
C896 H918 0.931 . S
C897 C892 1.356 . S
C897 C896 1.409 . S
C897 H919 0.930 . S
C898 O908 1.270 . S
C898 O909 1.248 . S
C899 O910 1.267 . S
C899 O911 1.278 . S
O900 Pr880 2.562 . S
O900 C882 1.254 . S
O901 Pr880 2.490 . S
O901 C882 1.225 . S
O902 Pr880 2.695 . S
O902 Pr881 2.436 . S
O902 C889 1.270 . S
O903 Pr880 2.512 . S
O903 C889 1.248 . S
O904 Pr881 2.438 . S
O904 C890 1.267 . S
O905 Pr880 2.437 . S
O905 C890 1.278 . S
O906 Pr881 2.562 . S
O906 C891 1.254 . S
O907 Pr881 2.490 . S
O907 C891 1.225 . S
O908 Pr880 2.436 . S
O908 Pr881 2.695 . S
O908 C898 1.270 . S
O909 Pr881 2.512 . S
O909 C898 1.248 . S
O910 Pr880 2.438 . S
O910 C899 1.267 . S
O911 Pr881 2.437 . S
O911 C899 1.278 . S
H912 C884 0.929 . S
H913 C885 0.929 . S
H914 C887 0.931 . S
H915 C888 0.930 . S
H916 C893 0.929 . S
H917 C894 0.929 . S
H918 C896 0.931 . S
H919 C897 0.930 . S
Pr920 C922 2.880 . S
Pr920 O940 2.562 . S
Pr920 O941 2.490 . S
Pr920 O942 2.695 . S
Pr920 O943 2.512 . S
Pr920 O945 2.437 . S
Pr920 O948 2.436 . S
Pr920 O950 2.438 . S
Pr921 C931 2.880 . S
Pr921 O942 2.436 . S
Pr921 O944 2.438 . S
Pr921 O946 2.562 . S
Pr921 O947 2.490 . S
Pr921 O948 2.695 . S
Pr921 O949 2.512 . S
Pr921 O951 2.437 . S
C922 Pr920 2.880 . S
C922 C923 1.491 . S
C922 O940 1.254 . S
C922 O941 1.225 . S
C923 C922 1.491 . S
C923 C924 1.392 . S
C923 C928 1.356 . S
C924 C923 1.392 . S
C924 C925 1.368 . S
C924 H952 0.929 . S
C925 C924 1.368 . S
C925 C926 1.386 . S
C925 H953 0.929 . S
C926 C925 1.386 . S
C926 C927 1.373 . S
C927 C926 1.373 . S
C927 C928 1.409 . S
C927 H954 0.931 . S
C928 C923 1.356 . S
C928 C927 1.409 . S
C928 H955 0.930 . S
C929 O942 1.270 . S
C929 O943 1.248 . S
C930 O944 1.267 . S
C930 O945 1.278 . S
C931 Pr921 2.880 . S
C931 C932 1.491 . S
C931 O946 1.254 . S
C931 O947 1.225 . S
C932 C931 1.491 . S
C932 C933 1.392 . S
C932 C937 1.356 . S
C933 C932 1.392 . S
C933 C934 1.368 . S
C933 H956 0.929 . S
C934 C933 1.368 . S
C934 C935 1.386 . S
C934 H957 0.929 . S
C935 C934 1.386 . S
C935 C936 1.373 . S
C936 C935 1.373 . S
C936 C937 1.409 . S
C936 H958 0.931 . S
C937 C932 1.356 . S
C937 C936 1.409 . S
C937 H959 0.930 . S
C938 O948 1.270 . S
C938 O949 1.248 . S
C939 O950 1.267 . S
C939 O951 1.278 . S
O940 Pr920 2.562 . S
O940 C922 1.254 . S
O941 Pr920 2.490 . S
O941 C922 1.225 . S
O942 Pr920 2.695 . S
O942 Pr921 2.436 . S
O942 C929 1.270 . S
O943 Pr920 2.512 . S
O943 C929 1.248 . S
O944 Pr921 2.438 . S
O944 C930 1.267 . S
O945 Pr920 2.437 . S
O945 C930 1.278 . S
O946 Pr921 2.562 . S
O946 C931 1.254 . S
O947 Pr921 2.490 . S
O947 C931 1.225 . S
O948 Pr920 2.436 . S
O948 Pr921 2.695 . S
O948 C938 1.270 . S
O949 Pr921 2.512 . S
O949 C938 1.248 . S
O950 Pr920 2.438 . S
O950 C939 1.267 . S
O951 Pr921 2.437 . S
O951 C939 1.278 . S
H952 C924 0.929 . S
H953 C925 0.929 . S
H954 C927 0.931 . S
H955 C928 0.930 . S
H956 C933 0.929 . S
H957 C934 0.929 . S
H958 C936 0.931 . S
H959 C937 0.930 . S
Pr960 C962 2.880 . S
Pr960 O980 2.562 . S
Pr960 O981 2.490 . S
Pr960 O982 2.695 . S
Pr960 O983 2.512 . S
Pr960 O985 2.437 . S
Pr960 O988 2.436 . S
Pr960 O990 2.438 . S
Pr961 C971 2.880 . S
Pr961 O982 2.436 . S
Pr961 O984 2.438 . S
Pr961 O986 2.562 . S
Pr961 O987 2.490 . S
Pr961 O988 2.695 . S
Pr961 O989 2.512 . S
Pr961 O991 2.437 . S
C962 Pr960 2.880 . S
C962 C963 1.491 . S
C962 O980 1.254 . S
C962 O981 1.225 . S
C963 C962 1.491 . S
C963 C964 1.392 . S
C963 C968 1.356 . S
C964 C963 1.392 . S
C964 C965 1.368 . S
C964 H992 0.929 . S
C965 C964 1.368 . S
C965 C966 1.386 . S
C965 H993 0.929 . S
C966 C965 1.386 . S
C966 C967 1.373 . S
C967 C966 1.373 . S
C967 C968 1.409 . S
C967 H994 0.931 . S
C968 C963 1.356 . S
C968 C967 1.409 . S
C968 H995 0.930 . S
C969 O982 1.270 . S
C969 O983 1.248 . S
C970 O984 1.267 . S
C970 O985 1.278 . S
C971 Pr961 2.880 . S
C971 C972 1.491 . S
C971 O986 1.254 . S
C971 O987 1.225 . S
C972 C971 1.491 . S
C972 C973 1.392 . S
C972 C977 1.356 . S
C973 C972 1.392 . S
C973 C974 1.368 . S
C973 H996 0.929 . S
C974 C973 1.368 . S
C974 C975 1.386 . S
C974 H997 0.929 . S
C975 C974 1.386 . S
C975 C976 1.373 . S
C976 C975 1.373 . S
C976 C977 1.409 . S
C976 H998 0.931 . S
C977 C972 1.356 . S
C977 C976 1.409 . S
C977 H999 0.930 . S
C978 O988 1.270 . S
C978 O989 1.248 . S
C979 O990 1.267 . S
C979 O991 1.278 . S
O980 Pr960 2.562 . S
O980 C962 1.254 . S
O981 Pr960 2.490 . S
O981 C962 1.225 . S
O982 Pr960 2.695 . S
O982 Pr961 2.436 . S
O982 C969 1.270 . S
O983 Pr960 2.512 . S
O983 C969 1.248 . S
O984 Pr961 2.438 . S
O984 C970 1.267 . S
O985 Pr960 2.437 . S
O985 C970 1.278 . S
O986 Pr961 2.562 . S
O986 C971 1.254 . S
O987 Pr961 2.490 . S
O987 C971 1.225 . S
O988 Pr960 2.436 . S
O988 Pr961 2.695 . S
O988 C978 1.270 . S
O989 Pr961 2.512 . S
O989 C978 1.248 . S
O990 Pr960 2.438 . S
O990 C979 1.267 . S
O991 Pr961 2.437 . S
O991 C979 1.278 . S
H992 C964 0.929 . S
H993 C965 0.929 . S
H994 C967 0.931 . S
H995 C968 0.930 . S
H996 C973 0.929 . S
H997 C974 0.929 . S
H998 C976 0.931 . S
H999 C977 0.930 . S
Pr1000 C1002 2.880 . S
Pr1000 O1020 2.562 . S
Pr1000 O1021 2.490 . S
Pr1000 O1022 2.695 . S
Pr1000 O1023 2.512 . S
Pr1000 O1025 2.437 . S
Pr1000 O1028 2.436 . S
Pr1000 O1030 2.438 . S
Pr1001 C1011 2.880 . S
Pr1001 O1022 2.436 . S
Pr1001 O1024 2.438 . S
Pr1001 O1026 2.562 . S
Pr1001 O1027 2.490 . S
Pr1001 O1028 2.695 . S
Pr1001 O1029 2.512 . S
Pr1001 O1031 2.437 . S
C1002 Pr1000 2.880 . S
C1002 C1003 1.491 . S
C1002 O1020 1.254 . S
C1002 O1021 1.225 . S
C1003 C1002 1.491 . S
C1003 C1004 1.392 . S
C1003 C1008 1.356 . S
C1004 C1003 1.392 . S
C1004 C1005 1.368 . S
C1004 H1032 0.929 . S
C1005 C1004 1.368 . S
C1005 C1006 1.386 . S
C1005 H1033 0.929 . S
C1006 C1005 1.386 . S
C1006 C1007 1.373 . S
C1007 C1006 1.373 . S
C1007 C1008 1.409 . S
C1007 H1034 0.931 . S
C1008 C1003 1.356 . S
C1008 C1007 1.409 . S
C1008 H1035 0.930 . S
C1009 O1022 1.270 . S
C1009 O1023 1.248 . S
C1010 O1024 1.267 . S
C1010 O1025 1.278 . S
C1011 Pr1001 2.880 . S
C1011 C1012 1.491 . S
C1011 O1026 1.254 . S
C1011 O1027 1.225 . S
C1012 C1011 1.491 . S
C1012 C1013 1.392 . S
C1012 C1017 1.356 . S
C1013 C1012 1.392 . S
C1013 C1014 1.368 . S
C1013 H1036 0.929 . S
C1014 C1013 1.368 . S
C1014 C1015 1.386 . S
C1014 H1037 0.929 . S
C1015 C1014 1.386 . S
C1015 C1016 1.373 . S
C1016 C1015 1.373 . S
C1016 C1017 1.409 . S
C1016 H1038 0.931 . S
C1017 C1012 1.356 . S
C1017 C1016 1.409 . S
C1017 H1039 0.930 . S
C1018 O1028 1.270 . S
C1018 O1029 1.248 . S
C1019 O1030 1.267 . S
C1019 O1031 1.278 . S
O1020 Pr1000 2.562 . S
O1020 C1002 1.254 . S
O1021 Pr1000 2.490 . S
O1021 C1002 1.225 . S
O1022 Pr1000 2.695 . S
O1022 Pr1001 2.436 . S
O1022 C1009 1.270 . S
O1023 Pr1000 2.512 . S
O1023 C1009 1.248 . S
O1024 Pr1001 2.438 . S
O1024 C1010 1.267 . S
O1025 Pr1000 2.437 . S
O1025 C1010 1.278 . S
O1026 Pr1001 2.562 . S
O1026 C1011 1.254 . S
O1027 Pr1001 2.490 . S
O1027 C1011 1.225 . S
O1028 Pr1000 2.436 . S
O1028 Pr1001 2.695 . S
O1028 C1018 1.270 . S
O1029 Pr1001 2.512 . S
O1029 C1018 1.248 . S
O1030 Pr1000 2.438 . S
O1030 C1019 1.267 . S
O1031 Pr1001 2.437 . S
O1031 C1019 1.278 . S
H1032 C1004 0.929 . S
H1033 C1005 0.929 . S
H1034 C1007 0.931 . S
H1035 C1008 0.930 . S
H1036 C1013 0.929 . S
H1037 C1014 0.929 . S
H1038 C1016 0.931 . S
H1039 C1017 0.930 . S
Pr1040 C1042 2.880 . S
Pr1040 O1060 2.562 . S
Pr1040 O1061 2.490 . S
Pr1040 O1062 2.695 . S
Pr1040 O1063 2.512 . S
Pr1040 O1065 2.437 . S
Pr1040 O1068 2.436 . S
Pr1040 O1070 2.438 . S
Pr1041 C1051 2.880 . S
Pr1041 O1062 2.436 . S
Pr1041 O1064 2.438 . S
Pr1041 O1066 2.562 . S
Pr1041 O1067 2.490 . S
Pr1041 O1068 2.695 . S
Pr1041 O1069 2.512 . S
Pr1041 O1071 2.437 . S
C1042 Pr1040 2.880 . S
C1042 C1043 1.491 . S
C1042 O1060 1.254 . S
C1042 O1061 1.225 . S
C1043 C1042 1.491 . S
C1043 C1044 1.392 . S
C1043 C1048 1.356 . S
C1044 C1043 1.392 . S
C1044 C1045 1.368 . S
C1044 H1072 0.929 . S
C1045 C1044 1.368 . S
C1045 C1046 1.386 . S
C1045 H1073 0.929 . S
C1046 C1045 1.386 . S
C1046 C1047 1.373 . S
C1047 C1046 1.373 . S
C1047 C1048 1.409 . S
C1047 H1074 0.931 . S
C1048 C1043 1.356 . S
C1048 C1047 1.409 . S
C1048 H1075 0.930 . S
C1049 O1062 1.270 . S
C1049 O1063 1.248 . S
C1050 O1064 1.267 . S
C1050 O1065 1.278 . S
C1051 Pr1041 2.880 . S
C1051 C1052 1.491 . S
C1051 O1066 1.254 . S
C1051 O1067 1.225 . S
C1052 C1051 1.491 . S
C1052 C1053 1.392 . S
C1052 C1057 1.356 . S
C1053 C1052 1.392 . S
C1053 C1054 1.368 . S
C1053 H1076 0.929 . S
C1054 C1053 1.368 . S
C1054 C1055 1.386 . S
C1054 H1077 0.929 . S
C1055 C1054 1.386 . S
C1055 C1056 1.373 . S
C1056 C1055 1.373 . S
C1056 C1057 1.409 . S
C1056 H1078 0.931 . S
C1057 C1052 1.356 . S
C1057 C1056 1.409 . S
C1057 H1079 0.930 . S
C1058 O1068 1.270 . S
C1058 O1069 1.248 . S
C1059 O1070 1.267 . S
C1059 O1071 1.278 . S
O1060 Pr1040 2.562 . S
O1060 C1042 1.254 . S
O1061 Pr1040 2.490 . S
O1061 C1042 1.225 . S
O1062 Pr1040 2.695 . S
O1062 Pr1041 2.436 . S
O1062 C1049 1.270 . S
O1063 Pr1040 2.512 . S
O1063 C1049 1.248 . S
O1064 Pr1041 2.438 . S
O1064 C1050 1.267 . S
O1065 Pr1040 2.437 . S
O1065 C1050 1.278 . S
O1066 Pr1041 2.562 . S
O1066 C1051 1.254 . S
O1067 Pr1041 2.490 . S
O1067 C1051 1.225 . S
O1068 Pr1040 2.436 . S
O1068 Pr1041 2.695 . S
O1068 C1058 1.270 . S
O1069 Pr1041 2.512 . S
O1069 C1058 1.248 . S
O1070 Pr1040 2.438 . S
O1070 C1059 1.267 . S
O1071 Pr1041 2.437 . S
O1071 C1059 1.278 . S
H1072 C1044 0.929 . S
H1073 C1045 0.929 . S
H1074 C1047 0.931 . S
H1075 C1048 0.930 . S
H1076 C1053 0.929 . S
H1077 C1054 0.929 . S
H1078 C1056 0.931 . S
H1079 C1057 0.930 . S
Pr1080 C1082 2.880 . S
Pr1080 O1100 2.562 . S
Pr1080 O1101 2.490 . S
Pr1080 O1102 2.695 . S
Pr1080 O1103 2.512 . S
Pr1080 O1105 2.437 . S
Pr1080 O1108 2.436 . S
Pr1080 O1110 2.438 . S
Pr1081 C1091 2.876 1_455 S
Pr1081 O1102 2.438 . S
Pr1081 O1104 2.439 . S
Pr1081 O1106 2.559 1_455 S
Pr1081 O1107 2.487 1_455 S
Pr1081 O1108 2.702 . S
Pr1081 O1109 2.516 . S
Pr1081 O1111 2.441 . S
C1082 Pr1080 2.880 . S
C1082 C1083 1.491 . S
C1082 O1100 1.254 . S
C1082 O1101 1.225 . S
C1083 C1082 1.491 . S
C1083 C1084 1.392 . S
C1083 C1088 1.356 . S
C1084 C1083 1.392 . S
C1084 C1085 1.368 . S
C1084 H1112 0.929 . S
C1085 C1084 1.368 . S
C1085 C1086 1.386 . S
C1085 H1113 0.929 . S
C1086 C1085 1.386 . S
C1086 C1087 1.373 . S
C1087 C1086 1.373 . S
C1087 C1088 1.409 . S
C1087 H1114 0.931 . S
C1088 C1083 1.356 . S
C1088 C1087 1.409 . S
C1088 H1115 0.930 . S
C1089 O1102 1.270 . S
C1089 O1103 1.248 . S
C1090 O1104 1.267 . S
C1090 O1105 1.278 . S
C1091 Pr1081 2.876 1_655 S
C1091 C1092 1.491 . S
C1091 O1106 1.254 . S
C1091 O1107 1.225 . S
C1092 C1091 1.491 . S
C1092 C1093 1.392 . S
C1092 C1097 1.356 . S
C1093 C1092 1.392 . S
C1093 C1094 1.368 . S
C1093 H1116 0.929 . S
C1094 C1093 1.368 . S
C1094 C1095 1.386 . S
C1094 H1117 0.929 . S
C1095 C1094 1.386 . S
C1095 C1096 1.373 . S
C1096 C1095 1.373 . S
C1096 C1097 1.409 . S
C1096 H1118 0.931 . S
C1097 C1092 1.356 . S
C1097 C1096 1.409 . S
C1097 H1119 0.930 . S
C1098 O1108 1.270 . S
C1098 O1109 1.248 . S
C1099 O1110 1.267 . S
C1099 O1111 1.278 . S
O1100 Pr1080 2.562 . S
O1100 C1082 1.254 . S
O1101 Pr1080 2.490 . S
O1101 C1082 1.225 . S
O1102 Pr1080 2.695 . S
O1102 Pr1081 2.438 . S
O1102 C1089 1.270 . S
O1103 Pr1080 2.512 . S
O1103 C1089 1.248 . S
O1104 Pr1081 2.439 . S
O1104 C1090 1.267 . S
O1105 Pr1080 2.437 . S
O1105 C1090 1.278 . S
O1106 Pr1081 2.559 1_655 S
O1106 C1091 1.254 . S
O1107 Pr1081 2.487 1_655 S
O1107 C1091 1.225 . S
O1108 Pr1080 2.436 . S
O1108 Pr1081 2.702 . S
O1108 C1098 1.270 . S
O1109 Pr1081 2.516 . S
O1109 C1098 1.248 . S
O1110 Pr1080 2.438 . S
O1110 C1099 1.267 . S
O1111 Pr1081 2.441 . S
O1111 C1099 1.278 . S
H1112 C1084 0.929 . S
H1113 C1085 0.929 . S
H1114 C1087 0.931 . S
H1115 C1088 0.930 . S
H1116 C1093 0.929 . S
H1117 C1094 0.929 . S
H1118 C1096 0.931 . S
H1119 C1097 0.930 . S
Pr1120 C1122 2.880 . S
Pr1120 O1140 2.562 . S
Pr1120 O1141 2.490 . S
Pr1120 O1142 2.695 . S
Pr1120 O1143 2.512 . S
Pr1120 O1145 2.437 . S
Pr1120 O1148 2.436 . S
Pr1120 O1150 2.438 . S
Pr1121 C1131 2.880 . S
Pr1121 O1142 2.436 . S
Pr1121 O1144 2.438 . S
Pr1121 O1146 2.562 . S
Pr1121 O1147 2.490 . S
Pr1121 O1148 2.695 . S
Pr1121 O1149 2.512 . S
Pr1121 O1151 2.437 . S
C1122 Pr1120 2.880 . S
C1122 C1123 1.491 . S
C1122 O1140 1.254 . S
C1122 O1141 1.225 . S
C1123 C1122 1.491 . S
C1123 C1124 1.392 . S
C1123 C1128 1.356 . S
C1124 C1123 1.392 . S
C1124 C1125 1.368 . S
C1124 H1152 0.929 . S
C1125 C1124 1.368 . S
C1125 C1126 1.386 . S
C1125 H1153 0.929 . S
C1126 C1125 1.386 . S
C1126 C1127 1.373 . S
C1127 C1126 1.373 . S
C1127 C1128 1.409 . S
C1127 H1154 0.931 . S
C1128 C1123 1.356 . S
C1128 C1127 1.409 . S
C1128 H1155 0.930 . S
C1129 O1142 1.270 . S
C1129 O1143 1.248 . S
C1130 O1144 1.267 . S
C1130 O1145 1.278 . S
C1131 Pr1121 2.880 . S
C1131 C1132 1.491 . S
C1131 O1146 1.254 . S
C1131 O1147 1.225 . S
C1132 C1131 1.491 . S
C1132 C1133 1.392 . S
C1132 C1137 1.356 . S
C1133 C1132 1.392 . S
C1133 C1134 1.368 . S
C1133 H1156 0.929 . S
C1134 C1133 1.368 . S
C1134 C1135 1.386 . S
C1134 H1157 0.929 . S
C1135 C1134 1.386 . S
C1135 C1136 1.373 . S
C1136 C1135 1.373 . S
C1136 C1137 1.409 . S
C1136 H1158 0.931 . S
C1137 C1132 1.356 . S
C1137 C1136 1.409 . S
C1137 H1159 0.930 . S
C1138 O1148 1.270 . S
C1138 O1149 1.248 . S
C1139 O1150 1.267 . S
C1139 O1151 1.278 . S
O1140 Pr1120 2.562 . S
O1140 C1122 1.254 . S
O1141 Pr1120 2.490 . S
O1141 C1122 1.225 . S
O1142 Pr1120 2.695 . S
O1142 Pr1121 2.436 . S
O1142 C1129 1.270 . S
O1143 Pr1120 2.512 . S
O1143 C1129 1.248 . S
O1144 Pr1121 2.438 . S
O1144 C1130 1.267 . S
O1145 Pr1120 2.437 . S
O1145 C1130 1.278 . S
O1146 Pr1121 2.562 . S
O1146 C1131 1.254 . S
O1147 Pr1121 2.490 . S
O1147 C1131 1.225 . S
O1148 Pr1120 2.436 . S
O1148 Pr1121 2.695 . S
O1148 C1138 1.270 . S
O1149 Pr1121 2.512 . S
O1149 C1138 1.248 . S
O1150 Pr1120 2.438 . S
O1150 C1139 1.267 . S
O1151 Pr1121 2.437 . S
O1151 C1139 1.278 . S
H1152 C1124 0.929 . S
H1153 C1125 0.929 . S
H1154 C1127 0.931 . S
H1155 C1128 0.930 . S
H1156 C1133 0.929 . S
H1157 C1134 0.929 . S
H1158 C1136 0.931 . S
H1159 C1137 0.930 . S
Pr1160 C1162 2.880 . S
Pr1160 O1180 2.562 . S
Pr1160 O1181 2.490 . S
Pr1160 O1182 2.695 . S
Pr1160 O1183 2.512 . S
Pr1160 O1185 2.437 . S
Pr1160 O1188 2.436 . S
Pr1160 O1190 2.438 . S
Pr1161 C1171 2.876 1_455 S
Pr1161 O1182 2.438 . S
Pr1161 O1184 2.439 . S
Pr1161 O1186 2.559 1_455 S
Pr1161 O1187 2.487 1_455 S
Pr1161 O1188 2.702 . S
Pr1161 O1189 2.516 . S
Pr1161 O1191 2.441 . S
C1162 Pr1160 2.880 . S
C1162 C1163 1.491 . S
C1162 O1180 1.254 . S
C1162 O1181 1.225 . S
C1163 C1162 1.491 . S
C1163 C1164 1.392 . S
C1163 C1168 1.356 . S
C1164 C1163 1.392 . S
C1164 C1165 1.368 . S
C1164 H1192 0.929 . S
C1165 C1164 1.368 . S
C1165 C1166 1.386 . S
C1165 H1193 0.929 . S
C1166 C1165 1.386 . S
C1166 C1167 1.373 . S
C1167 C1166 1.373 . S
C1167 C1168 1.409 . S
C1167 H1194 0.931 . S
C1168 C1163 1.356 . S
C1168 C1167 1.409 . S
C1168 H1195 0.930 . S
C1169 O1182 1.270 . S
C1169 O1183 1.248 . S
C1170 O1184 1.267 . S
C1170 O1185 1.278 . S
C1171 Pr1161 2.876 1_655 S
C1171 C1172 1.491 . S
C1171 O1186 1.254 . S
C1171 O1187 1.225 . S
C1172 C1171 1.491 . S
C1172 C1173 1.392 . S
C1172 C1177 1.356 . S
C1173 C1172 1.392 . S
C1173 C1174 1.368 . S
C1173 H1196 0.929 . S
C1174 C1173 1.368 . S
C1174 C1175 1.386 . S
C1174 H1197 0.929 . S
C1175 C1174 1.386 . S
C1175 C1176 1.373 . S
C1176 C1175 1.373 . S
C1176 C1177 1.409 . S
C1176 H1198 0.931 . S
C1177 C1172 1.356 . S
C1177 C1176 1.409 . S
C1177 H1199 0.930 . S
C1178 O1188 1.270 . S
C1178 O1189 1.248 . S
C1179 O1190 1.267 . S
C1179 O1191 1.278 . S
O1180 Pr1160 2.562 . S
O1180 C1162 1.254 . S
O1181 Pr1160 2.490 . S
O1181 C1162 1.225 . S
O1182 Pr1160 2.695 . S
O1182 Pr1161 2.438 . S
O1182 C1169 1.270 . S
O1183 Pr1160 2.512 . S
O1183 C1169 1.248 . S
O1184 Pr1161 2.439 . S
O1184 C1170 1.267 . S
O1185 Pr1160 2.437 . S
O1185 C1170 1.278 . S
O1186 Pr1161 2.559 1_655 S
O1186 C1171 1.254 . S
O1187 Pr1161 2.487 1_655 S
O1187 C1171 1.225 . S
O1188 Pr1160 2.436 . S
O1188 Pr1161 2.702 . S
O1188 C1178 1.270 . S
O1189 Pr1161 2.516 . S
O1189 C1178 1.248 . S
O1190 Pr1160 2.438 . S
O1190 C1179 1.267 . S
O1191 Pr1161 2.441 . S
O1191 C1179 1.278 . S
H1192 C1164 0.929 . S
H1193 C1165 0.929 . S
H1194 C1167 0.931 . S
H1195 C1168 0.930 . S
H1196 C1173 0.929 . S
H1197 C1174 0.929 . S
H1198 C1176 0.931 . S
H1199 C1177 0.930 . S
Pr1200 C1202 2.880 . S
Pr1200 O1220 2.562 . S
Pr1200 O1221 2.490 . S
Pr1200 O1222 2.695 . S
Pr1200 O1223 2.512 . S
Pr1200 O1225 2.437 . S
Pr1200 O1228 2.436 . S
Pr1200 O1230 2.438 . S
Pr1201 C1211 2.880 . S
Pr1201 O1222 2.436 . S
Pr1201 O1224 2.438 . S
Pr1201 O1226 2.562 . S
Pr1201 O1227 2.490 . S
Pr1201 O1228 2.695 . S
Pr1201 O1229 2.512 . S
Pr1201 O1231 2.437 . S
C1202 Pr1200 2.880 . S
C1202 C1203 1.491 . S
C1202 O1220 1.254 . S
C1202 O1221 1.225 . S
C1203 C1202 1.491 . S
C1203 C1204 1.392 . S
C1203 C1208 1.356 . S
C1204 C1203 1.392 . S
C1204 C1205 1.368 . S
C1204 H1232 0.929 . S
C1205 C1204 1.368 . S
C1205 C1206 1.386 . S
C1205 H1233 0.929 . S
C1206 C1205 1.386 . S
C1206 C1207 1.373 . S
C1207 C1206 1.373 . S
C1207 C1208 1.409 . S
C1207 H1234 0.931 . S
C1208 C1203 1.356 . S
C1208 C1207 1.409 . S
C1208 H1235 0.930 . S
C1209 O1222 1.270 . S
C1209 O1223 1.248 . S
C1210 O1224 1.267 . S
C1210 O1225 1.278 . S
C1211 Pr1201 2.880 . S
C1211 C1212 1.491 . S
C1211 O1226 1.254 . S
C1211 O1227 1.225 . S
C1212 C1211 1.491 . S
C1212 C1213 1.392 . S
C1212 C1217 1.356 . S
C1213 C1212 1.392 . S
C1213 C1214 1.368 . S
C1213 H1236 0.929 . S
C1214 C1213 1.368 . S
C1214 C1215 1.386 . S
C1214 H1237 0.929 . S
C1215 C1214 1.386 . S
C1215 C1216 1.373 . S
C1216 C1215 1.373 . S
C1216 C1217 1.409 . S
C1216 H1238 0.931 . S
C1217 C1212 1.356 . S
C1217 C1216 1.409 . S
C1217 H1239 0.930 . S
C1218 O1228 1.270 . S
C1218 O1229 1.248 . S
C1219 O1230 1.267 . S
C1219 O1231 1.278 . S
O1220 Pr1200 2.562 . S
O1220 C1202 1.254 . S
O1221 Pr1200 2.490 . S
O1221 C1202 1.225 . S
O1222 Pr1200 2.695 . S
O1222 Pr1201 2.436 . S
O1222 C1209 1.270 . S
O1223 Pr1200 2.512 . S
O1223 C1209 1.248 . S
O1224 Pr1201 2.438 . S
O1224 C1210 1.267 . S
O1225 Pr1200 2.437 . S
O1225 C1210 1.278 . S
O1226 Pr1201 2.562 . S
O1226 C1211 1.254 . S
O1227 Pr1201 2.490 . S
O1227 C1211 1.225 . S
O1228 Pr1200 2.436 . S
O1228 Pr1201 2.695 . S
O1228 C1218 1.270 . S
O1229 Pr1201 2.512 . S
O1229 C1218 1.248 . S
O1230 Pr1200 2.438 . S
O1230 C1219 1.267 . S
O1231 Pr1201 2.437 . S
O1231 C1219 1.278 . S
H1232 C1204 0.929 . S
H1233 C1205 0.929 . S
H1234 C1207 0.931 . S
H1235 C1208 0.930 . S
H1236 C1213 0.929 . S
H1237 C1214 0.929 . S
H1238 C1216 0.931 . S
H1239 C1217 0.930 . S
Pr1240 C1242 2.880 . S
Pr1240 O1260 2.562 . S
Pr1240 O1261 2.490 . S
Pr1240 O1262 2.695 . S
Pr1240 O1263 2.512 . S
Pr1240 O1265 2.437 . S
Pr1240 O1268 2.436 . S
Pr1240 O1270 2.438 . S
Pr1241 C1251 2.880 . S
Pr1241 O1262 2.436 . S
Pr1241 O1264 2.438 . S
Pr1241 O1266 2.562 . S
Pr1241 O1267 2.490 . S
Pr1241 O1268 2.695 . S
Pr1241 O1269 2.512 . S
Pr1241 O1271 2.437 . S
C1242 Pr1240 2.880 . S
C1242 C1243 1.491 . S
C1242 O1260 1.254 . S
C1242 O1261 1.225 . S
C1243 C1242 1.491 . S
C1243 C1244 1.392 . S
C1243 C1248 1.356 . S
C1244 C1243 1.392 . S
C1244 C1245 1.368 . S
C1244 H1272 0.929 . S
C1245 C1244 1.368 . S
C1245 C1246 1.386 . S
C1245 H1273 0.929 . S
C1246 C1245 1.386 . S
C1246 C1247 1.373 . S
C1247 C1246 1.373 . S
C1247 C1248 1.409 . S
C1247 H1274 0.931 . S
C1248 C1243 1.356 . S
C1248 C1247 1.409 . S
C1248 H1275 0.930 . S
C1249 O1262 1.270 . S
C1249 O1263 1.248 . S
C1250 O1264 1.267 . S
C1250 O1265 1.278 . S
C1251 Pr1241 2.880 . S
C1251 C1252 1.491 . S
C1251 O1266 1.254 . S
C1251 O1267 1.225 . S
C1252 C1251 1.491 . S
C1252 C1253 1.392 . S
C1252 C1257 1.356 . S
C1253 C1252 1.392 . S
C1253 C1254 1.368 . S
C1253 H1276 0.929 . S
C1254 C1253 1.368 . S
C1254 C1255 1.386 . S
C1254 H1277 0.929 . S
C1255 C1254 1.386 . S
C1255 C1256 1.373 . S
C1256 C1255 1.373 . S
C1256 C1257 1.409 . S
C1256 H1278 0.931 . S
C1257 C1252 1.356 . S
C1257 C1256 1.409 . S
C1257 H1279 0.930 . S
C1258 O1268 1.270 . S
C1258 O1269 1.248 . S
C1259 O1270 1.267 . S
C1259 O1271 1.278 . S
O1260 Pr1240 2.562 . S
O1260 C1242 1.254 . S
O1261 Pr1240 2.490 . S
O1261 C1242 1.225 . S
O1262 Pr1240 2.695 . S
O1262 Pr1241 2.436 . S
O1262 C1249 1.270 . S
O1263 Pr1240 2.512 . S
O1263 C1249 1.248 . S
O1264 Pr1241 2.438 . S
O1264 C1250 1.267 . S
O1265 Pr1240 2.437 . S
O1265 C1250 1.278 . S
O1266 Pr1241 2.562 . S
O1266 C1251 1.254 . S
O1267 Pr1241 2.490 . S
O1267 C1251 1.225 . S
O1268 Pr1240 2.436 . S
O1268 Pr1241 2.695 . S
O1268 C1258 1.270 . S
O1269 Pr1241 2.512 . S
O1269 C1258 1.248 . S
O1270 Pr1240 2.438 . S
O1270 C1259 1.267 . S
O1271 Pr1241 2.437 . S
O1271 C1259 1.278 . S
H1272 C1244 0.929 . S
H1273 C1245 0.929 . S
H1274 C1247 0.931 . S
H1275 C1248 0.930 . S
H1276 C1253 0.929 . S
H1277 C1254 0.929 . S
H1278 C1256 0.931 . S
H1279 C1257 0.930 . S
C1280 C1281 1.391 . S
C1280 C1282 1.394 . S
C1280 H1296 0.931 . S
C1281 C1280 1.391 . S
C1281 C1285 1.376 . S
C1282 C1280 1.394 . S
C1282 C1283 1.369 . S
C1282 C1286 1.531 . S
C1283 C1282 1.369 . S
C1283 C1284 1.410 . S
C1283 C1291 1.503 . S
C1284 C1283 1.410 . S
C1284 C1285 1.392 . S
C1284 C1287 1.511 . S
C1285 C1281 1.376 . S
C1285 C1284 1.392 . S
C1285 H1297 0.929 . S
C1286 C1282 1.531 . S
C1286 H1298 0.960 . S
C1286 H1299 0.962 . S
C1286 H1300 0.960 . S
C1287 C1284 1.511 . S
C1287 H1301 0.961 . S
C1287 H1302 0.961 . S
C1287 H1303 0.961 . S
C1288 C1289 1.370 . S
C1288 C1290 1.363 . S
C1288 H1304 0.931 . S
C1289 C1288 1.370 . S
C1289 C1293 1.408 . S
C1290 C1288 1.363 . S
C1290 C1291 1.370 . S
C1290 C1294 1.524 . S
C1291 C1283 1.503 . S
C1291 C1290 1.370 . S
C1291 C1292 1.403 . S
C1292 C1291 1.403 . S
C1292 C1293 1.404 . S
C1292 C1295 1.539 . S
C1293 C1289 1.408 . S
C1293 C1292 1.404 . S
C1293 H1305 0.930 . S
C1294 C1290 1.524 . S
C1294 H1306 0.956 . S
C1294 H1307 0.961 . S
C1294 H1308 0.961 . S
C1295 C1292 1.539 . S
C1295 H1309 0.958 . S
C1295 H1310 0.961 . S
C1295 H1311 0.960 . S
H1296 C1280 0.931 . S
H1297 C1285 0.929 . S
H1298 C1286 0.960 . S
H1299 C1286 0.962 . S
H1300 C1286 0.960 . S
H1301 C1287 0.961 . S
H1302 C1287 0.961 . S
H1303 C1287 0.961 . S
H1304 C1288 0.931 . S
H1305 C1293 0.930 . S
H1306 C1294 0.956 . S
H1307 C1294 0.961 . S
H1308 C1294 0.961 . S
H1309 C1295 0.958 . S
H1310 C1295 0.961 . S
H1311 C1295 0.960 . S
C1312 C1313 1.391 . S
C1312 C1314 1.394 . S
C1312 H1328 0.931 . S
C1313 C1312 1.391 . S
C1313 C1317 1.376 . S
C1314 C1312 1.394 . S
C1314 C1315 1.369 . S
C1314 C1318 1.531 . S
C1315 C1314 1.369 . S
C1315 C1316 1.410 . S
C1315 C1323 1.503 . S
C1316 C1315 1.410 . S
C1316 C1317 1.392 . S
C1316 C1319 1.511 . S
C1317 C1313 1.376 . S
C1317 C1316 1.392 . S
C1317 H1329 0.929 . S
C1318 C1314 1.531 . S
C1318 H1330 0.960 . S
C1318 H1331 0.962 . S
C1318 H1332 0.960 . S
C1319 C1316 1.511 . S
C1319 H1333 0.961 . S
C1319 H1334 0.961 . S
C1319 H1335 0.961 . S
C1320 C1321 1.370 . S
C1320 C1322 1.363 . S
C1320 H1336 0.931 . S
C1321 C1320 1.370 . S
C1321 C1325 1.408 . S
C1322 C1320 1.363 . S
C1322 C1323 1.370 . S
C1322 C1326 1.524 . S
C1323 C1315 1.503 . S
C1323 C1322 1.370 . S
C1323 C1324 1.403 . S
C1324 C1323 1.403 . S
C1324 C1325 1.404 . S
C1324 C1327 1.539 . S
C1325 C1321 1.408 . S
C1325 C1324 1.404 . S
C1325 H1337 0.930 . S
C1326 C1322 1.524 . S
C1326 H1338 0.956 . S
C1326 H1339 0.961 . S
C1326 H1340 0.961 . S
C1327 C1324 1.539 . S
C1327 H1341 0.958 . S
C1327 H1342 0.961 . S
C1327 H1343 0.960 . S
H1328 C1312 0.931 . S
H1329 C1317 0.929 . S
H1330 C1318 0.960 . S
H1331 C1318 0.962 . S
H1332 C1318 0.960 . S
H1333 C1319 0.961 . S
H1334 C1319 0.961 . S
H1335 C1319 0.961 . S
H1336 C1320 0.931 . S
H1337 C1325 0.930 . S
H1338 C1326 0.956 . S
H1339 C1326 0.961 . S
H1340 C1326 0.961 . S
H1341 C1327 0.958 . S
H1342 C1327 0.961 . S
H1343 C1327 0.960 . S
C1344 C1345 1.391 . S
C1344 C1346 1.394 . S
C1344 H1360 0.931 . S
C1345 C1344 1.391 . S
C1345 C1349 1.376 . S
C1346 C1344 1.394 . S
C1346 C1347 1.369 . S
C1346 C1350 1.531 . S
C1347 C1346 1.369 . S
C1347 C1348 1.410 . S
C1347 C1355 1.503 . S
C1348 C1347 1.410 . S
C1348 C1349 1.392 . S
C1348 C1351 1.511 . S
C1349 C1345 1.376 . S
C1349 C1348 1.392 . S
C1349 H1361 0.929 . S
C1350 C1346 1.531 . S
C1350 H1362 0.960 . S
C1350 H1363 0.962 . S
C1350 H1364 0.960 . S
C1351 C1348 1.511 . S
C1351 H1365 0.961 . S
C1351 H1366 0.961 . S
C1351 H1367 0.961 . S
C1352 C1353 1.370 . S
C1352 C1354 1.363 . S
C1352 H1368 0.931 . S
C1353 C1352 1.370 . S
C1353 C1357 1.408 . S
C1354 C1352 1.363 . S
C1354 C1355 1.370 . S
C1354 C1358 1.524 . S
C1355 C1347 1.503 . S
C1355 C1354 1.370 . S
C1355 C1356 1.403 . S
C1356 C1355 1.403 . S
C1356 C1357 1.404 . S
C1356 C1359 1.539 . S
C1357 C1353 1.408 . S
C1357 C1356 1.404 . S
C1357 H1369 0.930 . S
C1358 C1354 1.524 . S
C1358 H1370 0.956 . S
C1358 H1371 0.961 . S
C1358 H1372 0.961 . S
C1359 C1356 1.539 . S
C1359 H1373 0.958 . S
C1359 H1374 0.961 . S
C1359 H1375 0.960 . S
H1360 C1344 0.931 . S
H1361 C1349 0.929 . S
H1362 C1350 0.960 . S
H1363 C1350 0.962 . S
H1364 C1350 0.960 . S
H1365 C1351 0.961 . S
H1366 C1351 0.961 . S
H1367 C1351 0.961 . S
H1368 C1352 0.931 . S
H1369 C1357 0.930 . S
H1370 C1358 0.956 . S
H1371 C1358 0.961 . S
H1372 C1358 0.961 . S
H1373 C1359 0.958 . S
H1374 C1359 0.961 . S
H1375 C1359 0.960 . S
C1376 C1377 1.391 . S
C1376 C1378 1.394 . S
C1376 H1392 0.931 . S
C1377 C1376 1.391 . S
C1377 C1381 1.376 . S
C1378 C1376 1.394 . S
C1378 C1379 1.369 . S
C1378 C1382 1.531 . S
C1379 C1378 1.369 . S
C1379 C1380 1.410 . S
C1379 C1387 1.503 . S
C1380 C1379 1.410 . S
C1380 C1381 1.392 . S
C1380 C1383 1.511 . S
C1381 C1377 1.376 . S
C1381 C1380 1.392 . S
C1381 H1393 0.929 . S
C1382 C1378 1.531 . S
C1382 H1394 0.960 . S
C1382 H1395 0.962 . S
C1382 H1396 0.960 . S
C1383 C1380 1.511 . S
C1383 H1397 0.961 . S
C1383 H1398 0.961 . S
C1383 H1399 0.961 . S
C1384 C1385 1.370 . S
C1384 C1386 1.363 . S
C1384 H1400 0.931 . S
C1385 C1384 1.370 . S
C1385 C1389 1.408 . S
C1386 C1384 1.363 . S
C1386 C1387 1.370 . S
C1386 C1390 1.524 . S
C1387 C1379 1.503 . S
C1387 C1386 1.370 . S
C1387 C1388 1.403 . S
C1388 C1387 1.403 . S
C1388 C1389 1.404 . S
C1388 C1391 1.539 . S
C1389 C1385 1.408 . S
C1389 C1388 1.404 . S
C1389 H1401 0.930 . S
C1390 C1386 1.524 . S
C1390 H1402 0.956 . S
C1390 H1403 0.961 . S
C1390 H1404 0.961 . S
C1391 C1388 1.539 . S
C1391 H1405 0.958 . S
C1391 H1406 0.961 . S
C1391 H1407 0.960 . S
H1392 C1376 0.931 . S
H1393 C1381 0.929 . S
H1394 C1382 0.960 . S
H1395 C1382 0.962 . S
H1396 C1382 0.960 . S
H1397 C1383 0.961 . S
H1398 C1383 0.961 . S
H1399 C1383 0.961 . S
H1400 C1384 0.931 . S
H1401 C1389 0.930 . S
H1402 C1390 0.956 . S
H1403 C1390 0.961 . S
H1404 C1390 0.961 . S
H1405 C1391 0.958 . S
H1406 C1391 0.961 . S
H1407 C1391 0.960 . S
C1408 C1409 1.391 . S
C1408 C1410 1.394 . S
C1408 H1424 0.931 . S
C1409 C1408 1.391 . S
C1409 C1413 1.376 . S
C1410 C1408 1.394 . S
C1410 C1411 1.369 . S
C1410 C1414 1.531 . S
C1411 C1410 1.369 . S
C1411 C1412 1.410 . S
C1411 C1419 1.503 . S
C1412 C1411 1.410 . S
C1412 C1413 1.392 . S
C1412 C1415 1.511 . S
C1413 C1409 1.376 . S
C1413 C1412 1.392 . S
C1413 H1425 0.929 . S
C1414 C1410 1.531 . S
C1414 H1426 0.960 . S
C1414 H1427 0.962 . S
C1414 H1428 0.960 . S
C1415 C1412 1.511 . S
C1415 H1429 0.961 . S
C1415 H1430 0.961 . S
C1415 H1431 0.961 . S
C1416 C1417 1.370 . S
C1416 C1418 1.363 . S
C1416 H1432 0.931 . S
C1417 C1416 1.370 . S
C1417 C1421 1.408 . S
C1418 C1416 1.363 . S
C1418 C1419 1.370 . S
C1418 C1422 1.524 . S
C1419 C1411 1.503 . S
C1419 C1418 1.370 . S
C1419 C1420 1.403 . S
C1420 C1419 1.403 . S
C1420 C1421 1.404 . S
C1420 C1423 1.539 . S
C1421 C1417 1.408 . S
C1421 C1420 1.404 . S
C1421 H1433 0.930 . S
C1422 C1418 1.524 . S
C1422 H1434 0.956 . S
C1422 H1435 0.961 . S
C1422 H1436 0.961 . S
C1423 C1420 1.539 . S
C1423 H1437 0.958 . S
C1423 H1438 0.961 . S
C1423 H1439 0.960 . S
H1424 C1408 0.931 . S
H1425 C1413 0.929 . S
H1426 C1414 0.960 . S
H1427 C1414 0.962 . S
H1428 C1414 0.960 . S
H1429 C1415 0.961 . S
H1430 C1415 0.961 . S
H1431 C1415 0.961 . S
H1432 C1416 0.931 . S
H1433 C1421 0.930 . S
H1434 C1422 0.956 . S
H1435 C1422 0.961 . S
H1436 C1422 0.961 . S
H1437 C1423 0.958 . S
H1438 C1423 0.961 . S
H1439 C1423 0.960 . S
C1440 C1441 1.391 . S
C1440 C1442 1.394 . S
C1440 H1456 0.931 . S
C1441 C1440 1.391 . S
C1441 C1445 1.376 . S
C1442 C1440 1.394 . S
C1442 C1443 1.369 . S
C1442 C1446 1.531 . S
C1443 C1442 1.369 . S
C1443 C1444 1.410 . S
C1443 C1451 1.503 . S
C1444 C1443 1.410 . S
C1444 C1445 1.392 . S
C1444 C1447 1.511 . S
C1445 C1441 1.376 . S
C1445 C1444 1.392 . S
C1445 H1457 0.929 . S
C1446 C1442 1.531 . S
C1446 H1458 0.960 . S
C1446 H1459 0.962 . S
C1446 H1460 0.960 . S
C1447 C1444 1.511 . S
C1447 H1461 0.961 . S
C1447 H1462 0.961 . S
C1447 H1463 0.961 . S
C1448 C1449 1.370 . S
C1448 C1450 1.363 . S
C1448 H1464 0.931 . S
C1449 C1448 1.370 . S
C1449 C1453 1.408 . S
C1450 C1448 1.363 . S
C1450 C1451 1.370 . S
C1450 C1454 1.524 . S
C1451 C1443 1.503 . S
C1451 C1450 1.370 . S
C1451 C1452 1.403 . S
C1452 C1451 1.403 . S
C1452 C1453 1.404 . S
C1452 C1455 1.539 . S
C1453 C1449 1.408 . S
C1453 C1452 1.404 . S
C1453 H1465 0.930 . S
C1454 C1450 1.524 . S
C1454 H1466 0.956 . S
C1454 H1467 0.961 . S
C1454 H1468 0.961 . S
C1455 C1452 1.539 . S
C1455 H1469 0.958 . S
C1455 H1470 0.961 . S
C1455 H1471 0.960 . S
H1456 C1440 0.931 . S
H1457 C1445 0.929 . S
H1458 C1446 0.960 . S
H1459 C1446 0.962 . S
H1460 C1446 0.960 . S
H1461 C1447 0.961 . S
H1462 C1447 0.961 . S
H1463 C1447 0.961 . S
H1464 C1448 0.931 . S
H1465 C1453 0.930 . S
H1466 C1454 0.956 . S
H1467 C1454 0.961 . S
H1468 C1454 0.961 . S
H1469 C1455 0.958 . S
H1470 C1455 0.961 . S
H1471 C1455 0.960 . S
C1472 C1473 1.391 . S
C1472 C1474 1.394 . S
C1472 H1488 0.931 . S
C1473 C1472 1.391 . S
C1473 C1477 1.376 . S
C1474 C1472 1.394 . S
C1474 C1475 1.369 . S
C1474 C1478 1.531 . S
C1475 C1474 1.369 . S
C1475 C1476 1.410 . S
C1475 C1483 1.503 . S
C1476 C1475 1.410 . S
C1476 C1477 1.392 . S
C1476 C1479 1.511 . S
C1477 C1473 1.376 . S
C1477 C1476 1.392 . S
C1477 H1489 0.929 . S
C1478 C1474 1.531 . S
C1478 H1490 0.960 . S
C1478 H1491 0.962 . S
C1478 H1492 0.960 . S
C1479 C1476 1.511 . S
C1479 H1493 0.961 . S
C1479 H1494 0.961 . S
C1479 H1495 0.961 . S
C1480 C1481 1.370 . S
C1480 C1482 1.363 . S
C1480 H1496 0.931 . S
C1481 C1480 1.370 . S
C1481 C1485 1.408 . S
C1482 C1480 1.363 . S
C1482 C1483 1.370 . S
C1482 C1486 1.524 . S
C1483 C1475 1.503 . S
C1483 C1482 1.370 . S
C1483 C1484 1.403 . S
C1484 C1483 1.403 . S
C1484 C1485 1.404 . S
C1484 C1487 1.539 . S
C1485 C1481 1.408 . S
C1485 C1484 1.404 . S
C1485 H1497 0.930 . S
C1486 C1482 1.524 . S
C1486 H1498 0.956 . S
C1486 H1499 0.961 . S
C1486 H1500 0.961 . S
C1487 C1484 1.539 . S
C1487 H1501 0.958 . S
C1487 H1502 0.961 . S
C1487 H1503 0.960 . S
H1488 C1472 0.931 . S
H1489 C1477 0.929 . S
H1490 C1478 0.960 . S
H1491 C1478 0.962 . S
H1492 C1478 0.960 . S
H1493 C1479 0.961 . S
H1494 C1479 0.961 . S
H1495 C1479 0.961 . S
H1496 C1480 0.931 . S
H1497 C1485 0.930 . S
H1498 C1486 0.956 . S
H1499 C1486 0.961 . S
H1500 C1486 0.961 . S
H1501 C1487 0.958 . S
H1502 C1487 0.961 . S
H1503 C1487 0.960 . S
C1504 C1505 1.391 . S
C1504 C1506 1.394 . S
C1504 H1520 0.931 . S
C1505 C1504 1.391 . S
C1505 C1509 1.376 . S
C1506 C1504 1.394 . S
C1506 C1507 1.369 . S
C1506 C1510 1.531 . S
C1507 C1506 1.369 . S
C1507 C1508 1.410 . S
C1507 C1515 1.503 . S
C1508 C1507 1.410 . S
C1508 C1509 1.392 . S
C1508 C1511 1.511 . S
C1509 C1505 1.376 . S
C1509 C1508 1.392 . S
C1509 H1521 0.929 . S
C1510 C1506 1.531 . S
C1510 H1522 0.960 . S
C1510 H1523 0.962 . S
C1510 H1524 0.960 . S
C1511 C1508 1.511 . S
C1511 H1525 0.961 . S
C1511 H1526 0.961 . S
C1511 H1527 0.961 . S
C1512 C1513 1.370 . S
C1512 C1514 1.363 . S
C1512 H1528 0.931 . S
C1513 C1512 1.370 . S
C1513 C1517 1.408 . S
C1514 C1512 1.363 . S
C1514 C1515 1.370 . S
C1514 C1518 1.524 . S
C1515 C1507 1.503 . S
C1515 C1514 1.370 . S
C1515 C1516 1.403 . S
C1516 C1515 1.403 . S
C1516 C1517 1.404 . S
C1516 C1519 1.539 . S
C1517 C1513 1.408 . S
C1517 C1516 1.404 . S
C1517 H1529 0.930 . S
C1518 C1514 1.524 . S
C1518 H1530 0.956 . S
C1518 H1531 0.961 . S
C1518 H1532 0.961 . S
C1519 C1516 1.539 . S
C1519 H1533 0.958 . S
C1519 H1534 0.961 . S
C1519 H1535 0.960 . S
H1520 C1504 0.931 . S
H1521 C1509 0.929 . S
H1522 C1510 0.960 . S
H1523 C1510 0.962 . S
H1524 C1510 0.960 . S
H1525 C1511 0.961 . S
H1526 C1511 0.961 . S
H1527 C1511 0.961 . S
H1528 C1512 0.931 . S
H1529 C1517 0.930 . S
H1530 C1518 0.956 . S
H1531 C1518 0.961 . S
H1532 C1518 0.961 . S
H1533 C1519 0.958 . S
H1534 C1519 0.961 . S
H1535 C1519 0.960 . S
C1536 C1537 1.391 . S
C1536 C1538 1.394 . S
C1536 H1552 0.931 . S
C1537 C1536 1.391 . S
C1537 C1541 1.376 . S
C1538 C1536 1.394 . S
C1538 C1539 1.369 . S
C1538 C1542 1.531 . S
C1539 C1538 1.369 . S
C1539 C1540 1.410 . S
C1539 C1547 1.503 . S
C1540 C1539 1.410 . S
C1540 C1541 1.392 . S
C1540 C1543 1.511 . S
C1541 C1537 1.376 . S
C1541 C1540 1.392 . S
C1541 H1553 0.929 . S
C1542 C1538 1.531 . S
C1542 H1554 0.960 . S
C1542 H1555 0.962 . S
C1542 H1556 0.960 . S
C1543 C1540 1.511 . S
C1543 H1557 0.961 . S
C1543 H1558 0.961 . S
C1543 H1559 0.961 . S
C1544 C1545 1.370 . S
C1544 C1546 1.363 . S
C1544 H1560 0.931 . S
C1545 C1544 1.370 . S
C1545 C1549 1.408 . S
C1546 C1544 1.363 . S
C1546 C1547 1.370 . S
C1546 C1550 1.524 . S
C1547 C1539 1.503 . S
C1547 C1546 1.370 . S
C1547 C1548 1.403 . S
C1548 C1547 1.403 . S
C1548 C1549 1.404 . S
C1548 C1551 1.539 . S
C1549 C1545 1.408 . S
C1549 C1548 1.404 . S
C1549 H1561 0.930 . S
C1550 C1546 1.524 . S
C1550 H1562 0.956 . S
C1550 H1563 0.961 . S
C1550 H1564 0.961 . S
C1551 C1548 1.539 . S
C1551 H1565 0.958 . S
C1551 H1566 0.961 . S
C1551 H1567 0.960 . S
H1552 C1536 0.931 . S
H1553 C1541 0.929 . S
H1554 C1542 0.960 . S
H1555 C1542 0.962 . S
H1556 C1542 0.960 . S
H1557 C1543 0.961 . S
H1558 C1543 0.961 . S
H1559 C1543 0.961 . S
H1560 C1544 0.931 . S
H1561 C1549 0.930 . S
H1562 C1550 0.956 . S
H1563 C1550 0.961 . S
H1564 C1550 0.961 . S
H1565 C1551 0.958 . S
H1566 C1551 0.961 . S
H1567 C1551 0.960 . S
C1568 C1569 1.391 . S
C1568 C1570 1.394 . S
C1568 H1584 0.931 . S
C1569 C1568 1.391 . S
C1569 C1573 1.376 . S
C1570 C1568 1.394 . S
C1570 C1571 1.369 . S
C1570 C1574 1.531 . S
C1571 C1570 1.369 . S
C1571 C1572 1.410 . S
C1571 C1579 1.503 . S
C1572 C1571 1.410 . S
C1572 C1573 1.392 . S
C1572 C1575 1.511 . S
C1573 C1569 1.376 . S
C1573 C1572 1.392 . S
C1573 H1585 0.929 . S
C1574 C1570 1.531 . S
C1574 H1586 0.960 . S
C1574 H1587 0.962 . S
C1574 H1588 0.960 . S
C1575 C1572 1.511 . S
C1575 H1589 0.961 . S
C1575 H1590 0.961 . S
C1575 H1591 0.961 . S
C1576 C1577 1.370 . S
C1576 C1578 1.363 . S
C1576 H1592 0.931 . S
C1577 C1576 1.370 . S
C1577 C1581 1.408 . S
C1578 C1576 1.363 . S
C1578 C1579 1.370 . S
C1578 C1582 1.524 . S
C1579 C1571 1.503 . S
C1579 C1578 1.370 . S
C1579 C1580 1.403 . S
C1580 C1579 1.403 . S
C1580 C1581 1.404 . S
C1580 C1583 1.539 . S
C1581 C1577 1.408 . S
C1581 C1580 1.404 . S
C1581 H1593 0.930 . S
C1582 C1578 1.524 . S
C1582 H1594 0.956 . S
C1582 H1595 0.961 . S
C1582 H1596 0.961 . S
C1583 C1580 1.539 . S
C1583 H1597 0.958 . S
C1583 H1598 0.961 . S
C1583 H1599 0.960 . S
H1584 C1568 0.931 . S
H1585 C1573 0.929 . S
H1586 C1574 0.960 . S
H1587 C1574 0.962 . S
H1588 C1574 0.960 . S
H1589 C1575 0.961 . S
H1590 C1575 0.961 . S
H1591 C1575 0.961 . S
H1592 C1576 0.931 . S
H1593 C1581 0.930 . S
H1594 C1582 0.956 . S
H1595 C1582 0.961 . S
H1596 C1582 0.961 . S
H1597 C1583 0.958 . S
H1598 C1583 0.961 . S
H1599 C1583 0.960 . S
C1600 C1601 1.391 . S
C1600 C1602 1.394 . S
C1600 H1616 0.931 . S
C1601 C1600 1.391 . S
C1601 C1605 1.376 . S
C1602 C1600 1.394 . S
C1602 C1603 1.369 . S
C1602 C1606 1.531 . S
C1603 C1602 1.369 . S
C1603 C1604 1.410 . S
C1603 C1611 1.503 . S
C1604 C1603 1.410 . S
C1604 C1605 1.392 . S
C1604 C1607 1.511 . S
C1605 C1601 1.376 . S
C1605 C1604 1.392 . S
C1605 H1617 0.929 . S
C1606 C1602 1.531 . S
C1606 H1618 0.960 . S
C1606 H1619 0.962 . S
C1606 H1620 0.960 . S
C1607 C1604 1.511 . S
C1607 H1621 0.961 . S
C1607 H1622 0.961 . S
C1607 H1623 0.961 . S
C1608 C1609 1.370 . S
C1608 C1610 1.363 . S
C1608 H1624 0.931 . S
C1609 C1608 1.370 . S
C1609 C1613 1.408 . S
C1610 C1608 1.363 . S
C1610 C1611 1.370 . S
C1610 C1614 1.524 . S
C1611 C1603 1.503 . S
C1611 C1610 1.370 . S
C1611 C1612 1.403 . S
C1612 C1611 1.403 . S
C1612 C1613 1.404 . S
C1612 C1615 1.539 . S
C1613 C1609 1.408 . S
C1613 C1612 1.404 . S
C1613 H1625 0.930 . S
C1614 C1610 1.524 . S
C1614 H1626 0.956 . S
C1614 H1627 0.961 . S
C1614 H1628 0.961 . S
C1615 C1612 1.539 . S
C1615 H1629 0.958 . S
C1615 H1630 0.961 . S
C1615 H1631 0.960 . S
H1616 C1600 0.931 . S
H1617 C1605 0.929 . S
H1618 C1606 0.960 . S
H1619 C1606 0.962 . S
H1620 C1606 0.960 . S
H1621 C1607 0.961 . S
H1622 C1607 0.961 . S
H1623 C1607 0.961 . S
H1624 C1608 0.931 . S
H1625 C1613 0.930 . S
H1626 C1614 0.956 . S
H1627 C1614 0.961 . S
H1628 C1614 0.961 . S
H1629 C1615 0.958 . S
H1630 C1615 0.961 . S
H1631 C1615 0.960 . S
C1632 C1633 1.391 . S
C1632 C1634 1.394 . S
C1632 H1648 0.931 . S
C1633 C1632 1.391 . S
C1633 C1637 1.376 . S
C1634 C1632 1.394 . S
C1634 C1635 1.369 . S
C1634 C1638 1.531 . S
C1635 C1634 1.369 . S
C1635 C1636 1.410 . S
C1635 C1643 1.503 . S
C1636 C1635 1.410 . S
C1636 C1637 1.392 . S
C1636 C1639 1.511 . S
C1637 C1633 1.376 . S
C1637 C1636 1.392 . S
C1637 H1649 0.929 . S
C1638 C1634 1.531 . S
C1638 H1650 0.960 . S
C1638 H1651 0.962 . S
C1638 H1652 0.960 . S
C1639 C1636 1.511 . S
C1639 H1653 0.961 . S
C1639 H1654 0.961 . S
C1639 H1655 0.961 . S
C1640 C1641 1.370 . S
C1640 C1642 1.363 . S
C1640 H1656 0.931 . S
C1641 C1640 1.370 . S
C1641 C1645 1.408 . S
C1642 C1640 1.363 . S
C1642 C1643 1.370 . S
C1642 C1646 1.524 . S
C1643 C1635 1.503 . S
C1643 C1642 1.370 . S
C1643 C1644 1.403 . S
C1644 C1643 1.403 . S
C1644 C1645 1.404 . S
C1644 C1647 1.539 . S
C1645 C1641 1.408 . S
C1645 C1644 1.404 . S
C1645 H1657 0.930 . S
C1646 C1642 1.524 . S
C1646 H1658 0.956 . S
C1646 H1659 0.961 . S
C1646 H1660 0.961 . S
C1647 C1644 1.539 . S
C1647 H1661 0.958 . S
C1647 H1662 0.961 . S
C1647 H1663 0.960 . S
H1648 C1632 0.931 . S
H1649 C1637 0.929 . S
H1650 C1638 0.960 . S
H1651 C1638 0.962 . S
H1652 C1638 0.960 . S
H1653 C1639 0.961 . S
H1654 C1639 0.961 . S
H1655 C1639 0.961 . S
H1656 C1640 0.931 . S
H1657 C1645 0.930 . S
H1658 C1646 0.956 . S
H1659 C1646 0.961 . S
H1660 C1646 0.961 . S
H1661 C1647 0.958 . S
H1662 C1647 0.961 . S
H1663 C1647 0.960 . S
C1664 C1665 1.391 . S
C1664 C1666 1.394 . S
C1664 H1680 0.931 . S
C1665 C1664 1.391 . S
C1665 C1669 1.376 . S
C1666 C1664 1.394 . S
C1666 C1667 1.369 . S
C1666 C1670 1.531 . S
C1667 C1666 1.369 . S
C1667 C1668 1.410 . S
C1667 C1675 1.503 . S
C1668 C1667 1.410 . S
C1668 C1669 1.392 . S
C1668 C1671 1.511 . S
C1669 C1665 1.376 . S
C1669 C1668 1.392 . S
C1669 H1681 0.929 . S
C1670 C1666 1.531 . S
C1670 H1682 0.960 . S
C1670 H1683 0.962 . S
C1670 H1684 0.960 . S
C1671 C1668 1.511 . S
C1671 H1685 0.961 . S
C1671 H1686 0.961 . S
C1671 H1687 0.961 . S
C1672 C1673 1.370 . S
C1672 C1674 1.363 . S
C1672 H1688 0.931 . S
C1673 C1672 1.370 . S
C1673 C1677 1.408 . S
C1674 C1672 1.363 . S
C1674 C1675 1.370 . S
C1674 C1678 1.524 . S
C1675 C1667 1.503 . S
C1675 C1674 1.370 . S
C1675 C1676 1.403 . S
C1676 C1675 1.403 . S
C1676 C1677 1.404 . S
C1676 C1679 1.539 . S
C1677 C1673 1.408 . S
C1677 C1676 1.404 . S
C1677 H1689 0.930 . S
C1678 C1674 1.524 . S
C1678 H1690 0.956 . S
C1678 H1691 0.961 . S
C1678 H1692 0.961 . S
C1679 C1676 1.539 . S
C1679 H1693 0.958 . S
C1679 H1694 0.961 . S
C1679 H1695 0.960 . S
H1680 C1664 0.931 . S
H1681 C1669 0.929 . S
H1682 C1670 0.960 . S
H1683 C1670 0.962 . S
H1684 C1670 0.960 . S
H1685 C1671 0.961 . S
H1686 C1671 0.961 . S
H1687 C1671 0.961 . S
H1688 C1672 0.931 . S
H1689 C1677 0.930 . S
H1690 C1678 0.956 . S
H1691 C1678 0.961 . S
H1692 C1678 0.961 . S
H1693 C1679 0.958 . S
H1694 C1679 0.961 . S
H1695 C1679 0.960 . S
C1696 C1697 1.391 . S
C1696 C1698 1.394 . S
C1696 H1712 0.931 . S
C1697 C1696 1.391 . S
C1697 C1701 1.376 . S
C1698 C1696 1.394 . S
C1698 C1699 1.369 . S
C1698 C1702 1.531 . S
C1699 C1698 1.369 . S
C1699 C1700 1.410 . S
C1699 C1707 1.503 . S
C1700 C1699 1.410 . S
C1700 C1701 1.392 . S
C1700 C1703 1.511 . S
C1701 C1697 1.376 . S
C1701 C1700 1.392 . S
C1701 H1713 0.929 . S
C1702 C1698 1.531 . S
C1702 H1714 0.960 . S
C1702 H1715 0.962 . S
C1702 H1716 0.960 . S
C1703 C1700 1.511 . S
C1703 H1717 0.961 . S
C1703 H1718 0.961 . S
C1703 H1719 0.961 . S
C1704 C1705 1.370 . S
C1704 C1706 1.363 . S
C1704 H1720 0.931 . S
C1705 C1704 1.370 . S
C1705 C1709 1.408 . S
C1706 C1704 1.363 . S
C1706 C1707 1.370 . S
C1706 C1710 1.524 . S
C1707 C1699 1.503 . S
C1707 C1706 1.370 . S
C1707 C1708 1.403 . S
C1708 C1707 1.403 . S
C1708 C1709 1.404 . S
C1708 C1711 1.539 . S
C1709 C1705 1.408 . S
C1709 C1708 1.404 . S
C1709 H1721 0.930 . S
C1710 C1706 1.524 . S
C1710 H1722 0.956 . S
C1710 H1723 0.961 . S
C1710 H1724 0.961 . S
C1711 C1708 1.539 . S
C1711 H1725 0.958 . S
C1711 H1726 0.961 . S
C1711 H1727 0.960 . S
H1712 C1696 0.931 . S
H1713 C1701 0.929 . S
H1714 C1702 0.960 . S
H1715 C1702 0.962 . S
H1716 C1702 0.960 . S
H1717 C1703 0.961 . S
H1718 C1703 0.961 . S
H1719 C1703 0.961 . S
H1720 C1704 0.931 . S
H1721 C1709 0.930 . S
H1722 C1710 0.956 . S
H1723 C1710 0.961 . S
H1724 C1710 0.961 . S
H1725 C1711 0.958 . S
H1726 C1711 0.961 . S
H1727 C1711 0.960 . S
C1728 C1729 1.391 . S
C1728 C1730 1.394 . S
C1728 H1744 0.931 . S
C1729 C1728 1.391 . S
C1729 C1733 1.376 . S
C1730 C1728 1.394 . S
C1730 C1731 1.369 . S
C1730 C1734 1.531 . S
C1731 C1730 1.369 . S
C1731 C1732 1.410 . S
C1731 C1739 1.503 . S
C1732 C1731 1.410 . S
C1732 C1733 1.392 . S
C1732 C1735 1.511 . S
C1733 C1729 1.376 . S
C1733 C1732 1.392 . S
C1733 H1745 0.929 . S
C1734 C1730 1.531 . S
C1734 H1746 0.960 . S
C1734 H1747 0.962 . S
C1734 H1748 0.960 . S
C1735 C1732 1.511 . S
C1735 H1749 0.961 . S
C1735 H1750 0.961 . S
C1735 H1751 0.961 . S
C1736 C1737 1.370 . S
C1736 C1738 1.363 . S
C1736 H1752 0.931 . S
C1737 C1736 1.370 . S
C1737 C1741 1.408 . S
C1738 C1736 1.363 . S
C1738 C1739 1.370 . S
C1738 C1742 1.524 . S
C1739 C1731 1.503 . S
C1739 C1738 1.370 . S
C1739 C1740 1.403 . S
C1740 C1739 1.403 . S
C1740 C1741 1.404 . S
C1740 C1743 1.539 . S
C1741 C1737 1.408 . S
C1741 C1740 1.404 . S
C1741 H1753 0.930 . S
C1742 C1738 1.524 . S
C1742 H1754 0.956 . S
C1742 H1755 0.961 . S
C1742 H1756 0.961 . S
C1743 C1740 1.539 . S
C1743 H1757 0.958 . S
C1743 H1758 0.961 . S
C1743 H1759 0.960 . S
H1744 C1728 0.931 . S
H1745 C1733 0.929 . S
H1746 C1734 0.960 . S
H1747 C1734 0.962 . S
H1748 C1734 0.960 . S
H1749 C1735 0.961 . S
H1750 C1735 0.961 . S
H1751 C1735 0.961 . S
H1752 C1736 0.931 . S
H1753 C1741 0.930 . S
H1754 C1742 0.956 . S
H1755 C1742 0.961 . S
H1756 C1742 0.961 . S
H1757 C1743 0.958 . S
H1758 C1743 0.961 . S
H1759 C1743 0.960 . S
C1760 C1761 1.391 . S
C1760 C1762 1.394 . S
C1760 H1776 0.931 . S
C1761 C1760 1.391 . S
C1761 C1765 1.376 . S
C1762 C1760 1.394 . S
C1762 C1763 1.369 . S
C1762 C1766 1.531 . S
C1763 C1762 1.369 . S
C1763 C1764 1.410 . S
C1763 C1771 1.503 . S
C1764 C1763 1.410 . S
C1764 C1765 1.392 . S
C1764 C1767 1.511 . S
C1765 C1761 1.376 . S
C1765 C1764 1.392 . S
C1765 H1777 0.929 . S
C1766 C1762 1.531 . S
C1766 H1778 0.960 . S
C1766 H1779 0.962 . S
C1766 H1780 0.960 . S
C1767 C1764 1.511 . S
C1767 H1781 0.961 . S
C1767 H1782 0.961 . S
C1767 H1783 0.961 . S
C1768 C1769 1.370 . S
C1768 C1770 1.363 . S
C1768 H1784 0.931 . S
C1769 C1768 1.370 . S
C1769 C1773 1.408 . S
C1770 C1768 1.363 . S
C1770 C1771 1.370 . S
C1770 C1774 1.524 . S
C1771 C1763 1.503 . S
C1771 C1770 1.370 . S
C1771 C1772 1.403 . S
C1772 C1771 1.403 . S
C1772 C1773 1.404 . S
C1772 C1775 1.539 . S
C1773 C1769 1.408 . S
C1773 C1772 1.404 . S
C1773 H1785 0.930 . S
C1774 C1770 1.524 . S
C1774 H1786 0.956 . S
C1774 H1787 0.961 . S
C1774 H1788 0.961 . S
C1775 C1772 1.539 . S
C1775 H1789 0.958 . S
C1775 H1790 0.961 . S
C1775 H1791 0.960 . S
H1776 C1760 0.931 . S
H1777 C1765 0.929 . S
H1778 C1766 0.960 . S
H1779 C1766 0.962 . S
H1780 C1766 0.960 . S
H1781 C1767 0.961 . S
H1782 C1767 0.961 . S
H1783 C1767 0.961 . S
H1784 C1768 0.931 . S
H1785 C1773 0.930 . S
H1786 C1774 0.956 . S
H1787 C1774 0.961 . S
H1788 C1774 0.961 . S
H1789 C1775 0.958 . S
H1790 C1775 0.961 . S
H1791 C1775 0.960 . S
C1792 C1793 1.391 . S
C1792 C1794 1.394 . S
C1792 H1808 0.931 . S
C1793 C1792 1.391 . S
C1793 C1797 1.376 . S
C1794 C1792 1.394 . S
C1794 C1795 1.369 . S
C1794 C1798 1.531 . S
C1795 C1794 1.369 . S
C1795 C1796 1.410 . S
C1795 C1803 1.503 . S
C1796 C1795 1.410 . S
C1796 C1797 1.392 . S
C1796 C1799 1.511 . S
C1797 C1793 1.376 . S
C1797 C1796 1.392 . S
C1797 H1809 0.929 . S
C1798 C1794 1.531 . S
C1798 H1810 0.960 . S
C1798 H1811 0.962 . S
C1798 H1812 0.960 . S
C1799 C1796 1.511 . S
C1799 H1813 0.961 . S
C1799 H1814 0.961 . S
C1799 H1815 0.961 . S
C1800 C1801 1.370 . S
C1800 C1802 1.363 . S
C1800 H1816 0.931 . S
C1801 C1800 1.370 . S
C1801 C1805 1.408 . S
C1802 C1800 1.363 . S
C1802 C1803 1.370 . S
C1802 C1806 1.524 . S
C1803 C1795 1.503 . S
C1803 C1802 1.370 . S
C1803 C1804 1.403 . S
C1804 C1803 1.403 . S
C1804 C1805 1.404 . S
C1804 C1807 1.539 . S
C1805 C1801 1.408 . S
C1805 C1804 1.404 . S
C1805 H1817 0.930 . S
C1806 C1802 1.524 . S
C1806 H1818 0.956 . S
C1806 H1819 0.961 . S
C1806 H1820 0.961 . S
C1807 C1804 1.539 . S
C1807 H1821 0.958 . S
C1807 H1822 0.961 . S
C1807 H1823 0.960 . S
H1808 C1792 0.931 . S
H1809 C1797 0.929 . S
H1810 C1798 0.960 . S
H1811 C1798 0.962 . S
H1812 C1798 0.960 . S
H1813 C1799 0.961 . S
H1814 C1799 0.961 . S
H1815 C1799 0.961 . S
H1816 C1800 0.931 . S
H1817 C1805 0.930 . S
H1818 C1806 0.956 . S
H1819 C1806 0.961 . S
H1820 C1806 0.961 . S
H1821 C1807 0.958 . S
H1822 C1807 0.961 . S
H1823 C1807 0.960 . S
C1824 C1825 1.391 . S
C1824 C1826 1.394 . S
C1824 H1840 0.931 . S
C1825 C1824 1.391 . S
C1825 C1829 1.376 . S
C1826 C1824 1.394 . S
C1826 C1827 1.369 . S
C1826 C1830 1.531 . S
C1827 C1826 1.369 . S
C1827 C1828 1.410 . S
C1827 C1835 1.503 . S
C1828 C1827 1.410 . S
C1828 C1829 1.392 . S
C1828 C1831 1.511 . S
C1829 C1825 1.376 . S
C1829 C1828 1.392 . S
C1829 H1841 0.929 . S
C1830 C1826 1.531 . S
C1830 H1842 0.960 . S
C1830 H1843 0.962 . S
C1830 H1844 0.960 . S
C1831 C1828 1.511 . S
C1831 H1845 0.961 . S
C1831 H1846 0.961 . S
C1831 H1847 0.961 . S
C1832 C1833 1.370 . S
C1832 C1834 1.363 . S
C1832 H1848 0.931 . S
C1833 C1832 1.370 . S
C1833 C1837 1.408 . S
C1834 C1832 1.363 . S
C1834 C1835 1.370 . S
C1834 C1838 1.524 . S
C1835 C1827 1.503 . S
C1835 C1834 1.370 . S
C1835 C1836 1.403 . S
C1836 C1835 1.403 . S
C1836 C1837 1.404 . S
C1836 C1839 1.539 . S
C1837 C1833 1.408 . S
C1837 C1836 1.404 . S
C1837 H1849 0.930 . S
C1838 C1834 1.524 . S
C1838 H1850 0.956 . S
C1838 H1851 0.961 . S
C1838 H1852 0.961 . S
C1839 C1836 1.539 . S
C1839 H1853 0.958 . S
C1839 H1854 0.961 . S
C1839 H1855 0.960 . S
H1840 C1824 0.931 . S
H1841 C1829 0.929 . S
H1842 C1830 0.960 . S
H1843 C1830 0.962 . S
H1844 C1830 0.960 . S
H1845 C1831 0.961 . S
H1846 C1831 0.961 . S
H1847 C1831 0.961 . S
H1848 C1832 0.931 . S
H1849 C1837 0.930 . S
H1850 C1838 0.956 . S
H1851 C1838 0.961 . S
H1852 C1838 0.961 . S
H1853 C1839 0.958 . S
H1854 C1839 0.961 . S
H1855 C1839 0.960 . S
C1856 C1857 1.391 . S
C1856 C1858 1.394 . S
C1856 H1872 0.931 . S
C1857 C1856 1.391 . S
C1857 C1861 1.376 . S
C1858 C1856 1.394 . S
C1858 C1859 1.369 . S
C1858 C1862 1.531 . S
C1859 C1858 1.369 . S
C1859 C1860 1.410 . S
C1859 C1867 1.503 . S
C1860 C1859 1.410 . S
C1860 C1861 1.392 . S
C1860 C1863 1.511 . S
C1861 C1857 1.376 . S
C1861 C1860 1.392 . S
C1861 H1873 0.929 . S
C1862 C1858 1.531 . S
C1862 H1874 0.960 . S
C1862 H1875 0.962 . S
C1862 H1876 0.960 . S
C1863 C1860 1.511 . S
C1863 H1877 0.961 . S
C1863 H1878 0.961 . S
C1863 H1879 0.961 . S
C1864 C1865 1.370 . S
C1864 C1866 1.363 . S
C1864 H1880 0.931 . S
C1865 C1864 1.370 . S
C1865 C1869 1.408 . S
C1866 C1864 1.363 . S
C1866 C1867 1.370 . S
C1866 C1870 1.524 . S
C1867 C1859 1.503 . S
C1867 C1866 1.370 . S
C1867 C1868 1.403 . S
C1868 C1867 1.403 . S
C1868 C1869 1.404 . S
C1868 C1871 1.539 . S
C1869 C1865 1.408 . S
C1869 C1868 1.404 . S
C1869 H1881 0.930 . S
C1870 C1866 1.524 . S
C1870 H1882 0.956 . S
C1870 H1883 0.961 . S
C1870 H1884 0.961 . S
C1871 C1868 1.539 . S
C1871 H1885 0.958 . S
C1871 H1886 0.961 . S
C1871 H1887 0.960 . S
H1872 C1856 0.931 . S
H1873 C1861 0.929 . S
H1874 C1862 0.960 . S
H1875 C1862 0.962 . S
H1876 C1862 0.960 . S
H1877 C1863 0.961 . S
H1878 C1863 0.961 . S
H1879 C1863 0.961 . S
H1880 C1864 0.931 . S
H1881 C1869 0.930 . S
H1882 C1870 0.956 . S
H1883 C1870 0.961 . S
H1884 C1870 0.961 . S
H1885 C1871 0.958 . S
H1886 C1871 0.961 . S
H1887 C1871 0.960 . S
C1888 C1889 1.391 . S
C1888 C1890 1.394 . S
C1888 H1904 0.931 . S
C1889 C1888 1.391 . S
C1889 C1893 1.376 . S
C1890 C1888 1.394 . S
C1890 C1891 1.369 . S
C1890 C1894 1.531 . S
C1891 C1890 1.369 . S
C1891 C1892 1.410 . S
C1891 C1899 1.503 . S
C1892 C1891 1.410 . S
C1892 C1893 1.392 . S
C1892 C1895 1.511 . S
C1893 C1889 1.376 . S
C1893 C1892 1.392 . S
C1893 H1905 0.929 . S
C1894 C1890 1.531 . S
C1894 H1906 0.960 . S
C1894 H1907 0.962 . S
C1894 H1908 0.960 . S
C1895 C1892 1.511 . S
C1895 H1909 0.961 . S
C1895 H1910 0.961 . S
C1895 H1911 0.961 . S
C1896 C1897 1.370 . S
C1896 C1898 1.363 . S
C1896 H1912 0.931 . S
C1897 C1896 1.370 . S
C1897 C1901 1.408 . S
C1898 C1896 1.363 . S
C1898 C1899 1.370 . S
C1898 C1902 1.524 . S
C1899 C1891 1.503 . S
C1899 C1898 1.370 . S
C1899 C1900 1.403 . S
C1900 C1899 1.403 . S
C1900 C1901 1.404 . S
C1900 C1903 1.539 . S
C1901 C1897 1.408 . S
C1901 C1900 1.404 . S
C1901 H1913 0.930 . S
C1902 C1898 1.524 . S
C1902 H1914 0.956 . S
C1902 H1915 0.961 . S
C1902 H1916 0.961 . S
C1903 C1900 1.539 . S
C1903 H1917 0.958 . S
C1903 H1918 0.961 . S
C1903 H1919 0.960 . S
H1904 C1888 0.931 . S
H1905 C1893 0.929 . S
H1906 C1894 0.960 . S
H1907 C1894 0.962 . S
H1908 C1894 0.960 . S
H1909 C1895 0.961 . S
H1910 C1895 0.961 . S
H1911 C1895 0.961 . S
H1912 C1896 0.931 . S
H1913 C1901 0.930 . S
H1914 C1902 0.956 . S
H1915 C1902 0.961 . S
H1916 C1902 0.961 . S
H1917 C1903 0.958 . S
H1918 C1903 0.961 . S
H1919 C1903 0.960 . S
C1920 C1921 1.391 . S
C1920 C1922 1.394 . S
C1920 H1936 0.931 . S
C1921 C1920 1.391 . S
C1921 C1925 1.376 . S
C1922 C1920 1.394 . S
C1922 C1923 1.369 . S
C1922 C1926 1.531 . S
C1923 C1922 1.369 . S
C1923 C1924 1.410 . S
C1923 C1931 1.503 . S
C1924 C1923 1.410 . S
C1924 C1925 1.392 . S
C1924 C1927 1.511 . S
C1925 C1921 1.376 . S
C1925 C1924 1.392 . S
C1925 H1937 0.929 . S
C1926 C1922 1.531 . S
C1926 H1938 0.960 . S
C1926 H1939 0.962 . S
C1926 H1940 0.960 . S
C1927 C1924 1.511 . S
C1927 H1941 0.961 . S
C1927 H1942 0.961 . S
C1927 H1943 0.961 . S
C1928 C1929 1.370 . S
C1928 C1930 1.363 . S
C1928 H1944 0.931 . S
C1929 C1928 1.370 . S
C1929 C1933 1.408 . S
C1930 C1928 1.363 . S
C1930 C1931 1.370 . S
C1930 C1934 1.524 . S
C1931 C1923 1.503 . S
C1931 C1930 1.370 . S
C1931 C1932 1.403 . S
C1932 C1931 1.403 . S
C1932 C1933 1.404 . S
C1932 C1935 1.539 . S
C1933 C1929 1.408 . S
C1933 C1932 1.404 . S
C1933 H1945 0.930 . S
C1934 C1930 1.524 . S
C1934 H1946 0.956 . S
C1934 H1947 0.961 . S
C1934 H1948 0.961 . S
C1935 C1932 1.539 . S
C1935 H1949 0.958 . S
C1935 H1950 0.961 . S
C1935 H1951 0.960 . S
H1936 C1920 0.931 . S
H1937 C1925 0.929 . S
H1938 C1926 0.960 . S
H1939 C1926 0.962 . S
H1940 C1926 0.960 . S
H1941 C1927 0.961 . S
H1942 C1927 0.961 . S
H1943 C1927 0.961 . S
H1944 C1928 0.931 . S
H1945 C1933 0.930 . S
H1946 C1934 0.956 . S
H1947 C1934 0.961 . S
H1948 C1934 0.961 . S
H1949 C1935 0.958 . S
H1950 C1935 0.961 . S
H1951 C1935 0.960 . S
C1952 C1953 1.391 . S
C1952 C1954 1.394 . S
C1952 H1968 0.931 . S
C1953 C1952 1.391 . S
C1953 C1957 1.376 . S
C1954 C1952 1.394 . S
C1954 C1955 1.369 . S
C1954 C1958 1.531 . S
C1955 C1954 1.369 . S
C1955 C1956 1.410 . S
C1955 C1963 1.503 . S
C1956 C1955 1.410 . S
C1956 C1957 1.392 . S
C1956 C1959 1.511 . S
C1957 C1953 1.376 . S
C1957 C1956 1.392 . S
C1957 H1969 0.929 . S
C1958 C1954 1.531 . S
C1958 H1970 0.960 . S
C1958 H1971 0.962 . S
C1958 H1972 0.960 . S
C1959 C1956 1.511 . S
C1959 H1973 0.961 . S
C1959 H1974 0.961 . S
C1959 H1975 0.961 . S
C1960 C1961 1.370 . S
C1960 C1962 1.363 . S
C1960 H1976 0.931 . S
C1961 C1960 1.370 . S
C1961 C1965 1.408 . S
C1962 C1960 1.363 . S
C1962 C1963 1.370 . S
C1962 C1966 1.524 . S
C1963 C1955 1.503 . S
C1963 C1962 1.370 . S
C1963 C1964 1.403 . S
C1964 C1963 1.403 . S
C1964 C1965 1.404 . S
C1964 C1967 1.539 . S
C1965 C1961 1.408 . S
C1965 C1964 1.404 . S
C1965 H1977 0.930 . S
C1966 C1962 1.524 . S
C1966 H1978 0.956 . S
C1966 H1979 0.961 . S
C1966 H1980 0.961 . S
C1967 C1964 1.539 . S
C1967 H1981 0.958 . S
C1967 H1982 0.961 . S
C1967 H1983 0.960 . S
H1968 C1952 0.931 . S
H1969 C1957 0.929 . S
H1970 C1958 0.960 . S
H1971 C1958 0.962 . S
H1972 C1958 0.960 . S
H1973 C1959 0.961 . S
H1974 C1959 0.961 . S
H1975 C1959 0.961 . S
H1976 C1960 0.931 . S
H1977 C1965 0.930 . S
H1978 C1966 0.956 . S
H1979 C1966 0.961 . S
H1980 C1966 0.961 . S
H1981 C1967 0.958 . S
H1982 C1967 0.961 . S
H1983 C1967 0.960 . S
C1984 C1985 1.391 . S
C1984 C1986 1.394 . S
C1984 H2000 0.931 . S
C1985 C1984 1.391 . S
C1985 C1989 1.376 . S
C1986 C1984 1.394 . S
C1986 C1987 1.369 . S
C1986 C1990 1.531 . S
C1987 C1986 1.369 . S
C1987 C1988 1.410 . S
C1987 C1995 1.503 . S
C1988 C1987 1.410 . S
C1988 C1989 1.392 . S
C1988 C1991 1.511 . S
C1989 C1985 1.376 . S
C1989 C1988 1.392 . S
C1989 H2001 0.929 . S
C1990 C1986 1.531 . S
C1990 H2002 0.960 . S
C1990 H2003 0.962 . S
C1990 H2004 0.960 . S
C1991 C1988 1.511 . S
C1991 H2005 0.961 . S
C1991 H2006 0.961 . S
C1991 H2007 0.961 . S
C1992 C1993 1.370 . S
C1992 C1994 1.363 . S
C1992 H2008 0.931 . S
C1993 C1992 1.370 . S
C1993 C1997 1.408 . S
C1994 C1992 1.363 . S
C1994 C1995 1.370 . S
C1994 C1998 1.524 . S
C1995 C1987 1.503 . S
C1995 C1994 1.370 . S
C1995 C1996 1.403 . S
C1996 C1995 1.403 . S
C1996 C1997 1.404 . S
C1996 C1999 1.539 . S
C1997 C1993 1.408 . S
C1997 C1996 1.404 . S
C1997 H2009 0.930 . S
C1998 C1994 1.524 . S
C1998 H2010 0.956 . S
C1998 H2011 0.961 . S
C1998 H2012 0.961 . S
C1999 C1996 1.539 . S
C1999 H2013 0.958 . S
C1999 H2014 0.961 . S
C1999 H2015 0.960 . S
H2000 C1984 0.931 . S
H2001 C1989 0.929 . S
H2002 C1990 0.960 . S
H2003 C1990 0.962 . S
H2004 C1990 0.960 . S
H2005 C1991 0.961 . S
H2006 C1991 0.961 . S
H2007 C1991 0.961 . S
H2008 C1992 0.931 . S
H2009 C1997 0.930 . S
H2010 C1998 0.956 . S
H2011 C1998 0.961 . S
H2012 C1998 0.961 . S
H2013 C1999 0.958 . S
H2014 C1999 0.961 . S
H2015 C1999 0.960 . S
C2016 C2017 1.391 . S
C2016 C2018 1.394 . S
C2016 H2032 0.931 . S
C2017 C2016 1.391 . S
C2017 C2021 1.376 . S
C2018 C2016 1.394 . S
C2018 C2019 1.369 . S
C2018 C2022 1.531 . S
C2019 C2018 1.369 . S
C2019 C2020 1.410 . S
C2019 C2027 1.503 . S
C2020 C2019 1.410 . S
C2020 C2021 1.392 . S
C2020 C2023 1.511 . S
C2021 C2017 1.376 . S
C2021 C2020 1.392 . S
C2021 H2033 0.929 . S
C2022 C2018 1.531 . S
C2022 H2034 0.960 . S
C2022 H2035 0.962 . S
C2022 H2036 0.960 . S
C2023 C2020 1.511 . S
C2023 H2037 0.961 . S
C2023 H2038 0.961 . S
C2023 H2039 0.961 . S
C2024 C2025 1.370 . S
C2024 C2026 1.363 . S
C2024 H2040 0.931 . S
C2025 C2024 1.370 . S
C2025 C2029 1.408 . S
C2026 C2024 1.363 . S
C2026 C2027 1.370 . S
C2026 C2030 1.524 . S
C2027 C2019 1.503 . S
C2027 C2026 1.370 . S
C2027 C2028 1.403 . S
C2028 C2027 1.403 . S
C2028 C2029 1.404 . S
C2028 C2031 1.539 . S
C2029 C2025 1.408 . S
C2029 C2028 1.404 . S
C2029 H2041 0.930 . S
C2030 C2026 1.524 . S
C2030 H2042 0.956 . S
C2030 H2043 0.961 . S
C2030 H2044 0.961 . S
C2031 C2028 1.539 . S
C2031 H2045 0.958 . S
C2031 H2046 0.961 . S
C2031 H2047 0.960 . S
H2032 C2016 0.931 . S
H2033 C2021 0.929 . S
H2034 C2022 0.960 . S
H2035 C2022 0.962 . S
H2036 C2022 0.960 . S
H2037 C2023 0.961 . S
H2038 C2023 0.961 . S
H2039 C2023 0.961 . S
H2040 C2024 0.931 . S
H2041 C2029 0.930 . S
H2042 C2030 0.956 . S
H2043 C2030 0.961 . S
H2044 C2030 0.961 . S
H2045 C2031 0.958 . S
H2046 C2031 0.961 . S
H2047 C2031 0.960 . S
C2048 C2049 1.391 . S
C2048 C2050 1.394 . S
C2048 H2064 0.931 . S
C2049 C2048 1.391 . S
C2049 C2053 1.376 . S
C2050 C2048 1.394 . S
C2050 C2051 1.369 . S
C2050 C2054 1.531 . S
C2051 C2050 1.369 . S
C2051 C2052 1.410 . S
C2051 C2059 1.503 . S
C2052 C2051 1.410 . S
C2052 C2053 1.392 . S
C2052 C2055 1.511 . S
C2053 C2049 1.376 . S
C2053 C2052 1.392 . S
C2053 H2065 0.929 . S
C2054 C2050 1.531 . S
C2054 H2066 0.960 . S
C2054 H2067 0.962 . S
C2054 H2068 0.960 . S
C2055 C2052 1.511 . S
C2055 H2069 0.961 . S
C2055 H2070 0.961 . S
C2055 H2071 0.961 . S
C2056 C2057 1.370 . S
C2056 C2058 1.363 . S
C2056 H2072 0.931 . S
C2057 C2056 1.370 . S
C2057 C2061 1.408 . S
C2058 C2056 1.363 . S
C2058 C2059 1.370 . S
C2058 C2062 1.524 . S
C2059 C2051 1.503 . S
C2059 C2058 1.370 . S
C2059 C2060 1.403 . S
C2060 C2059 1.403 . S
C2060 C2061 1.404 . S
C2060 C2063 1.539 . S
C2061 C2057 1.408 . S
C2061 C2060 1.404 . S
C2061 H2073 0.930 . S
C2062 C2058 1.524 . S
C2062 H2074 0.956 . S
C2062 H2075 0.961 . S
C2062 H2076 0.961 . S
C2063 C2060 1.539 . S
C2063 H2077 0.958 . S
C2063 H2078 0.961 . S
C2063 H2079 0.960 . S
H2064 C2048 0.931 . S
H2065 C2053 0.929 . S
H2066 C2054 0.960 . S
H2067 C2054 0.962 . S
H2068 C2054 0.960 . S
H2069 C2055 0.961 . S
H2070 C2055 0.961 . S
H2071 C2055 0.961 . S
H2072 C2056 0.931 . S
H2073 C2061 0.930 . S
H2074 C2062 0.956 . S
H2075 C2062 0.961 . S
H2076 C2062 0.961 . S
H2077 C2063 0.958 . S
H2078 C2063 0.961 . S
H2079 C2063 0.960 . S
C2080 C2081 1.391 . S
C2080 C2082 1.394 . S
C2080 H2096 0.931 . S
C2081 C2080 1.391 . S
C2081 C2085 1.376 . S
C2082 C2080 1.394 . S
C2082 C2083 1.369 . S
C2082 C2086 1.531 . S
C2083 C2082 1.369 . S
C2083 C2084 1.410 . S
C2083 C2091 1.503 . S
C2084 C2083 1.410 . S
C2084 C2085 1.392 . S
C2084 C2087 1.511 . S
C2085 C2081 1.376 . S
C2085 C2084 1.392 . S
C2085 H2097 0.929 . S
C2086 C2082 1.531 . S
C2086 H2098 0.960 . S
C2086 H2099 0.962 . S
C2086 H2100 0.960 . S
C2087 C2084 1.511 . S
C2087 H2101 0.961 . S
C2087 H2102 0.961 . S
C2087 H2103 0.961 . S
C2088 C2089 1.370 . S
C2088 C2090 1.363 . S
C2088 H2104 0.931 . S
C2089 C2088 1.370 . S
C2089 C2093 1.408 . S
C2090 C2088 1.363 . S
C2090 C2091 1.370 . S
C2090 C2094 1.524 . S
C2091 C2083 1.503 . S
C2091 C2090 1.370 . S
C2091 C2092 1.403 . S
C2092 C2091 1.403 . S
C2092 C2093 1.404 . S
C2092 C2095 1.539 . S
C2093 C2089 1.408 . S
C2093 C2092 1.404 . S
C2093 H2105 0.930 . S
C2094 C2090 1.524 . S
C2094 H2106 0.956 . S
C2094 H2107 0.961 . S
C2094 H2108 0.961 . S
C2095 C2092 1.539 . S
C2095 H2109 0.958 . S
C2095 H2110 0.961 . S
C2095 H2111 0.960 . S
H2096 C2080 0.931 . S
H2097 C2085 0.929 . S
H2098 C2086 0.960 . S
H2099 C2086 0.962 . S
H2100 C2086 0.960 . S
H2101 C2087 0.961 . S
H2102 C2087 0.961 . S
H2103 C2087 0.961 . S
H2104 C2088 0.931 . S
H2105 C2093 0.930 . S
H2106 C2094 0.956 . S
H2107 C2094 0.961 . S
H2108 C2094 0.961 . S
H2109 C2095 0.958 . S
H2110 C2095 0.961 . S
H2111 C2095 0.960 . S
C2112 C2113 1.391 . S
C2112 C2114 1.394 . S
C2112 H2128 0.931 . S
C2113 C2112 1.391 . S
C2113 C2117 1.376 . S
C2114 C2112 1.394 . S
C2114 C2115 1.369 . S
C2114 C2118 1.531 . S
C2115 C2114 1.369 . S
C2115 C2116 1.410 . S
C2115 C2123 1.503 . S
C2116 C2115 1.410 . S
C2116 C2117 1.392 . S
C2116 C2119 1.511 . S
C2117 C2113 1.376 . S
C2117 C2116 1.392 . S
C2117 H2129 0.929 . S
C2118 C2114 1.531 . S
C2118 H2130 0.960 . S
C2118 H2131 0.962 . S
C2118 H2132 0.960 . S
C2119 C2116 1.511 . S
C2119 H2133 0.961 . S
C2119 H2134 0.961 . S
C2119 H2135 0.961 . S
C2120 C2121 1.370 . S
C2120 C2122 1.363 . S
C2120 H2136 0.931 . S
C2121 C2120 1.370 . S
C2121 C2125 1.408 . S
C2122 C2120 1.363 . S
C2122 C2123 1.370 . S
C2122 C2126 1.524 . S
C2123 C2115 1.503 . S
C2123 C2122 1.370 . S
C2123 C2124 1.403 . S
C2124 C2123 1.403 . S
C2124 C2125 1.404 . S
C2124 C2127 1.539 . S
C2125 C2121 1.408 . S
C2125 C2124 1.404 . S
C2125 H2137 0.930 . S
C2126 C2122 1.524 . S
C2126 H2138 0.956 . S
C2126 H2139 0.961 . S
C2126 H2140 0.961 . S
C2127 C2124 1.539 . S
C2127 H2141 0.958 . S
C2127 H2142 0.961 . S
C2127 H2143 0.960 . S
H2128 C2112 0.931 . S
H2129 C2117 0.929 . S
H2130 C2118 0.960 . S
H2131 C2118 0.962 . S
H2132 C2118 0.960 . S
H2133 C2119 0.961 . S
H2134 C2119 0.961 . S
H2135 C2119 0.961 . S
H2136 C2120 0.931 . S
H2137 C2125 0.930 . S
H2138 C2126 0.956 . S
H2139 C2126 0.961 . S
H2140 C2126 0.961 . S
H2141 C2127 0.958 . S
H2142 C2127 0.961 . S
H2143 C2127 0.960 . S
C2144 C2145 1.391 . S
C2144 C2146 1.394 . S
C2144 H2160 0.931 . S
C2145 C2144 1.391 . S
C2145 C2149 1.376 . S
C2146 C2144 1.394 . S
C2146 C2147 1.369 . S
C2146 C2150 1.531 . S
C2147 C2146 1.369 . S
C2147 C2148 1.410 . S
C2147 C2155 1.503 . S
C2148 C2147 1.410 . S
C2148 C2149 1.392 . S
C2148 C2151 1.511 . S
C2149 C2145 1.376 . S
C2149 C2148 1.392 . S
C2149 H2161 0.929 . S
C2150 C2146 1.531 . S
C2150 H2162 0.960 . S
C2150 H2163 0.962 . S
C2150 H2164 0.960 . S
C2151 C2148 1.511 . S
C2151 H2165 0.961 . S
C2151 H2166 0.961 . S
C2151 H2167 0.961 . S
C2152 C2153 1.370 . S
C2152 C2154 1.363 . S
C2152 H2168 0.931 . S
C2153 C2152 1.370 . S
C2153 C2157 1.408 . S
C2154 C2152 1.363 . S
C2154 C2155 1.370 . S
C2154 C2158 1.524 . S
C2155 C2147 1.503 . S
C2155 C2154 1.370 . S
C2155 C2156 1.403 . S
C2156 C2155 1.403 . S
C2156 C2157 1.404 . S
C2156 C2159 1.539 . S
C2157 C2153 1.408 . S
C2157 C2156 1.404 . S
C2157 H2169 0.930 . S
C2158 C2154 1.524 . S
C2158 H2170 0.956 . S
C2158 H2171 0.961 . S
C2158 H2172 0.961 . S
C2159 C2156 1.539 . S
C2159 H2173 0.958 . S
C2159 H2174 0.961 . S
C2159 H2175 0.960 . S
H2160 C2144 0.931 . S
H2161 C2149 0.929 . S
H2162 C2150 0.960 . S
H2163 C2150 0.962 . S
H2164 C2150 0.960 . S
H2165 C2151 0.961 . S
H2166 C2151 0.961 . S
H2167 C2151 0.961 . S
H2168 C2152 0.931 . S
H2169 C2157 0.930 . S
H2170 C2158 0.956 . S
H2171 C2158 0.961 . S
H2172 C2158 0.961 . S
H2173 C2159 0.958 . S
H2174 C2159 0.961 . S
H2175 C2159 0.960 . S
C2176 C2177 1.391 . S
C2176 C2178 1.394 . S
C2176 H2192 0.931 . S
C2177 C2176 1.391 . S
C2177 C2181 1.376 . S
C2178 C2176 1.394 . S
C2178 C2179 1.369 . S
C2178 C2182 1.531 . S
C2179 C2178 1.369 . S
C2179 C2180 1.410 . S
C2179 C2187 1.503 . S
C2180 C2179 1.410 . S
C2180 C2181 1.392 . S
C2180 C2183 1.511 . S
C2181 C2177 1.376 . S
C2181 C2180 1.392 . S
C2181 H2193 0.929 . S
C2182 C2178 1.531 . S
C2182 H2194 0.960 . S
C2182 H2195 0.962 . S
C2182 H2196 0.960 . S
C2183 C2180 1.511 . S
C2183 H2197 0.961 . S
C2183 H2198 0.961 . S
C2183 H2199 0.961 . S
C2184 C2185 1.370 . S
C2184 C2186 1.363 . S
C2184 H2200 0.931 . S
C2185 C2184 1.370 . S
C2185 C2189 1.408 . S
C2186 C2184 1.363 . S
C2186 C2187 1.370 . S
C2186 C2190 1.524 . S
C2187 C2179 1.503 . S
C2187 C2186 1.370 . S
C2187 C2188 1.403 . S
C2188 C2187 1.403 . S
C2188 C2189 1.404 . S
C2188 C2191 1.539 . S
C2189 C2185 1.408 . S
C2189 C2188 1.404 . S
C2189 H2201 0.930 . S
C2190 C2186 1.524 . S
C2190 H2202 0.956 . S
C2190 H2203 0.961 . S
C2190 H2204 0.961 . S
C2191 C2188 1.539 . S
C2191 H2205 0.958 . S
C2191 H2206 0.961 . S
C2191 H2207 0.960 . S
H2192 C2176 0.931 . S
H2193 C2181 0.929 . S
H2194 C2182 0.960 . S
H2195 C2182 0.962 . S
H2196 C2182 0.960 . S
H2197 C2183 0.961 . S
H2198 C2183 0.961 . S
H2199 C2183 0.961 . S
H2200 C2184 0.931 . S
H2201 C2189 0.930 . S
H2202 C2190 0.956 . S
H2203 C2190 0.961 . S
H2204 C2190 0.961 . S
H2205 C2191 0.958 . S
H2206 C2191 0.961 . S
H2207 C2191 0.960 . S
C2208 C2209 1.391 . S
C2208 C2210 1.394 . S
C2208 H2224 0.931 . S
C2209 C2208 1.391 . S
C2209 C2213 1.376 . S
C2210 C2208 1.394 . S
C2210 C2211 1.369 . S
C2210 C2214 1.531 . S
C2211 C2210 1.369 . S
C2211 C2212 1.410 . S
C2211 C2219 1.503 . S
C2212 C2211 1.410 . S
C2212 C2213 1.392 . S
C2212 C2215 1.511 . S
C2213 C2209 1.376 . S
C2213 C2212 1.392 . S
C2213 H2225 0.929 . S
C2214 C2210 1.531 . S
C2214 H2226 0.960 . S
C2214 H2227 0.962 . S
C2214 H2228 0.960 . S
C2215 C2212 1.511 . S
C2215 H2229 0.961 . S
C2215 H2230 0.961 . S
C2215 H2231 0.961 . S
C2216 C2217 1.370 . S
C2216 C2218 1.363 . S
C2216 H2232 0.931 . S
C2217 C2216 1.370 . S
C2217 C2221 1.408 . S
C2218 C2216 1.363 . S
C2218 C2219 1.370 . S
C2218 C2222 1.524 . S
C2219 C2211 1.503 . S
C2219 C2218 1.370 . S
C2219 C2220 1.403 . S
C2220 C2219 1.403 . S
C2220 C2221 1.404 . S
C2220 C2223 1.539 . S
C2221 C2217 1.408 . S
C2221 C2220 1.404 . S
C2221 H2233 0.930 . S
C2222 C2218 1.524 . S
C2222 H2234 0.956 . S
C2222 H2235 0.961 . S
C2222 H2236 0.961 . S
C2223 C2220 1.539 . S
C2223 H2237 0.958 . S
C2223 H2238 0.961 . S
C2223 H2239 0.960 . S
H2224 C2208 0.931 . S
H2225 C2213 0.929 . S
H2226 C2214 0.960 . S
H2227 C2214 0.962 . S
H2228 C2214 0.960 . S
H2229 C2215 0.961 . S
H2230 C2215 0.961 . S
H2231 C2215 0.961 . S
H2232 C2216 0.931 . S
H2233 C2221 0.930 . S
H2234 C2222 0.956 . S
H2235 C2222 0.961 . S
H2236 C2222 0.961 . S
H2237 C2223 0.958 . S
H2238 C2223 0.961 . S
H2239 C2223 0.960 . S
C2240 C2241 1.391 . S
C2240 C2242 1.394 . S
C2240 H2256 0.931 . S
C2241 C2240 1.391 . S
C2241 C2245 1.376 . S
C2242 C2240 1.394 . S
C2242 C2243 1.369 . S
C2242 C2246 1.531 . S
C2243 C2242 1.369 . S
C2243 C2244 1.410 . S
C2243 C2251 1.503 . S
C2244 C2243 1.410 . S
C2244 C2245 1.392 . S
C2244 C2247 1.511 . S
C2245 C2241 1.376 . S
C2245 C2244 1.392 . S
C2245 H2257 0.929 . S
C2246 C2242 1.531 . S
C2246 H2258 0.960 . S
C2246 H2259 0.962 . S
C2246 H2260 0.960 . S
C2247 C2244 1.511 . S
C2247 H2261 0.961 . S
C2247 H2262 0.961 . S
C2247 H2263 0.961 . S
C2248 C2249 1.370 . S
C2248 C2250 1.363 . S
C2248 H2264 0.931 . S
C2249 C2248 1.370 . S
C2249 C2253 1.408 . S
C2250 C2248 1.363 . S
C2250 C2251 1.370 . S
C2250 C2254 1.524 . S
C2251 C2243 1.503 . S
C2251 C2250 1.370 . S
C2251 C2252 1.403 . S
C2252 C2251 1.403 . S
C2252 C2253 1.404 . S
C2252 C2255 1.539 . S
C2253 C2249 1.408 . S
C2253 C2252 1.404 . S
C2253 H2265 0.930 . S
C2254 C2250 1.524 . S
C2254 H2266 0.956 . S
C2254 H2267 0.961 . S
C2254 H2268 0.961 . S
C2255 C2252 1.539 . S
C2255 H2269 0.958 . S
C2255 H2270 0.961 . S
C2255 H2271 0.960 . S
H2256 C2240 0.931 . S
H2257 C2245 0.929 . S
H2258 C2246 0.960 . S
H2259 C2246 0.962 . S
H2260 C2246 0.960 . S
H2261 C2247 0.961 . S
H2262 C2247 0.961 . S
H2263 C2247 0.961 . S
H2264 C2248 0.931 . S
H2265 C2253 0.930 . S
H2266 C2254 0.956 . S
H2267 C2254 0.961 . S
H2268 C2254 0.961 . S
H2269 C2255 0.958 . S
H2270 C2255 0.961 . S
H2271 C2255 0.960 . S
C2272 C2273 1.391 . S
C2272 C2274 1.394 . S
C2272 H2288 0.931 . S
C2273 C2272 1.391 . S
C2273 C2277 1.376 . S
C2274 C2272 1.394 . S
C2274 C2275 1.369 . S
C2274 C2278 1.531 . S
C2275 C2274 1.369 . S
C2275 C2276 1.410 . S
C2275 C2283 1.503 . S
C2276 C2275 1.410 . S
C2276 C2277 1.392 . S
C2276 C2279 1.511 . S
C2277 C2273 1.376 . S
C2277 C2276 1.392 . S
C2277 H2289 0.929 . S
C2278 C2274 1.531 . S
C2278 H2290 0.960 . S
C2278 H2291 0.962 . S
C2278 H2292 0.960 . S
C2279 C2276 1.511 . S
C2279 H2293 0.961 . S
C2279 H2294 0.961 . S
C2279 H2295 0.961 . S
C2280 C2281 1.370 . S
C2280 C2282 1.363 . S
C2280 H2296 0.931 . S
C2281 C2280 1.370 . S
C2281 C2285 1.408 . S
C2282 C2280 1.363 . S
C2282 C2283 1.370 . S
C2282 C2286 1.524 . S
C2283 C2275 1.503 . S
C2283 C2282 1.370 . S
C2283 C2284 1.403 . S
C2284 C2283 1.403 . S
C2284 C2285 1.404 . S
C2284 C2287 1.539 . S
C2285 C2281 1.408 . S
C2285 C2284 1.404 . S
C2285 H2297 0.930 . S
C2286 C2282 1.524 . S
C2286 H2298 0.956 . S
C2286 H2299 0.961 . S
C2286 H2300 0.961 . S
C2287 C2284 1.539 . S
C2287 H2301 0.958 . S
C2287 H2302 0.961 . S
C2287 H2303 0.960 . S
H2288 C2272 0.931 . S
H2289 C2277 0.929 . S
H2290 C2278 0.960 . S
H2291 C2278 0.962 . S
H2292 C2278 0.960 . S
H2293 C2279 0.961 . S
H2294 C2279 0.961 . S
H2295 C2279 0.961 . S
H2296 C2280 0.931 . S
H2297 C2285 0.930 . S
H2298 C2286 0.956 . S
H2299 C2286 0.961 . S
H2300 C2286 0.961 . S
H2301 C2287 0.958 . S
H2302 C2287 0.961 . S
H2303 C2287 0.960 . S
C2304 C2305 1.391 . S
C2304 C2306 1.394 . S
C2304 H2320 0.931 . S
C2305 C2304 1.391 . S
C2305 C2309 1.376 . S
C2306 C2304 1.394 . S
C2306 C2307 1.369 . S
C2306 C2310 1.531 . S
C2307 C2306 1.369 . S
C2307 C2308 1.410 . S
C2307 C2315 1.503 1_455 S
C2308 C2307 1.410 . S
C2308 C2309 1.392 . S
C2308 C2311 1.511 . S
C2309 C2305 1.376 . S
C2309 C2308 1.392 . S
C2309 H2321 0.929 . S
C2310 C2306 1.531 . S
C2310 H2322 0.960 . S
C2310 H2323 0.962 . S
C2310 H2324 0.960 . S
C2311 C2308 1.511 . S
C2311 H2325 0.961 . S
C2311 H2326 0.961 1_455 S
C2311 H2327 0.961 . S
C2312 C2313 1.370 . S
C2312 C2314 1.363 . S
C2312 H2328 0.931 . S
C2313 C2312 1.370 . S
C2313 C2317 1.408 . S
C2314 C2312 1.363 . S
C2314 C2315 1.370 . S
C2314 C2318 1.524 . S
C2315 C2307 1.503 1_655 S
C2315 C2314 1.370 . S
C2315 C2316 1.403 . S
C2316 C2315 1.403 . S
C2316 C2317 1.404 . S
C2316 C2319 1.539 . S
C2317 C2313 1.408 . S
C2317 C2316 1.404 . S
C2317 H2329 0.930 . S
C2318 C2314 1.524 . S
C2318 H2330 0.956 . S
C2318 H2331 0.961 . S
C2318 H2332 0.961 . S
C2319 C2316 1.539 . S
C2319 H2333 0.958 . S
C2319 H2334 0.961 . S
C2319 H2335 0.947 1_655 S
H2320 C2304 0.931 . S
H2321 C2309 0.929 . S
H2322 C2310 0.960 . S
H2323 C2310 0.962 . S
H2324 C2310 0.960 . S
H2325 C2311 0.961 . S
H2326 C2311 0.961 1_655 S
H2327 C2311 0.961 . S
H2328 C2312 0.931 . S
H2329 C2317 0.930 . S
H2330 C2318 0.956 . S
H2331 C2318 0.961 . S
H2332 C2318 0.961 . S
H2333 C2319 0.958 . S
H2334 C2319 0.961 . S
H2335 C2319 0.947 1_455 S
C2336 C2337 1.391 1_455 S
C2336 C2338 1.394 . S
C2336 H2352 0.931 . S
C2337 C2336 1.391 1_655 S
C2337 C2341 1.376 . S
C2338 C2336 1.394 . S
C2338 C2339 1.369 1_455 S
C2338 C2342 1.531 . S
C2339 C2338 1.369 1_655 S
C2339 C2340 1.410 . S
C2339 C2347 1.506 . S
C2340 C2339 1.410 . S
C2340 C2341 1.392 . S
C2340 C2343 1.511 . S
C2341 C2337 1.376 . S
C2341 C2340 1.392 . S
C2341 H2353 0.929 . S
C2342 C2338 1.531 . S
C2342 H2354 0.960 . S
C2342 H2355 0.962 . S
C2342 H2356 0.960 . S
C2343 C2340 1.511 . S
C2343 H2357 0.961 . S
C2343 H2358 0.961 . S
C2343 H2359 0.961 . S
C2344 C2345 1.370 . S
C2344 C2346 1.363 . S
C2344 H2360 0.931 . S
C2345 C2344 1.370 . S
C2345 C2349 1.408 1_455 S
C2346 C2344 1.363 . S
C2346 C2347 1.359 1_455 S
C2346 C2350 1.524 . S
C2347 C2339 1.506 . S
C2347 C2346 1.359 1_655 S
C2347 C2348 1.411 . S
C2348 C2347 1.411 . S
C2348 C2349 1.404 . S
C2348 C2351 1.539 . S
C2349 C2345 1.408 1_655 S
C2349 C2348 1.404 . S
C2349 H2361 0.930 . S
C2350 C2346 1.524 . S
C2350 H2362 0.956 . S
C2350 H2363 0.961 . S
C2350 H2364 0.961 . S
C2351 C2348 1.539 . S
C2351 H2365 0.958 . S
C2351 H2366 0.961 . S
C2351 H2367 0.960 . S
H2352 C2336 0.931 . S
H2353 C2341 0.929 . S
H2354 C2342 0.960 . S
H2355 C2342 0.962 . S
H2356 C2342 0.960 . S
H2357 C2343 0.961 . S
H2358 C2343 0.961 . S
H2359 C2343 0.961 . S
H2360 C2344 0.931 . S
H2361 C2349 0.930 . S
H2362 C2350 0.956 . S
H2363 C2350 0.961 . S
H2364 C2350 0.961 . S
H2365 C2351 0.958 . S
H2366 C2351 0.961 . S
H2367 C2351 0.960 . S
C2368 C2369 1.391 . S
C2368 C2370 1.394 . S
C2368 H2384 0.931 . S
C2369 C2368 1.391 . S
C2369 C2373 1.376 . S
C2370 C2368 1.394 . S
C2370 C2371 1.369 . S
C2370 C2374 1.531 . S
C2371 C2370 1.369 . S
C2371 C2372 1.410 . S
C2371 C2379 1.503 . S
C2372 C2371 1.410 . S
C2372 C2373 1.392 . S
C2372 C2375 1.511 . S
C2373 C2369 1.376 . S
C2373 C2372 1.392 . S
C2373 H2385 0.929 . S
C2374 C2370 1.531 . S
C2374 H2386 0.960 . S
C2374 H2387 0.962 . S
C2374 H2388 0.960 . S
C2375 C2372 1.511 . S
C2375 H2389 0.961 . S
C2375 H2390 0.961 . S
C2375 H2391 0.961 . S
C2376 C2377 1.370 . S
C2376 C2378 1.363 . S
C2376 H2392 0.931 . S
C2377 C2376 1.370 . S
C2377 C2381 1.408 . S
C2378 C2376 1.363 . S
C2378 C2379 1.370 . S
C2378 C2382 1.524 . S
C2379 C2371 1.503 . S
C2379 C2378 1.370 . S
C2379 C2380 1.403 . S
C2380 C2379 1.403 . S
C2380 C2381 1.404 . S
C2380 C2383 1.539 . S
C2381 C2377 1.408 . S
C2381 C2380 1.404 . S
C2381 H2393 0.930 . S
C2382 C2378 1.524 . S
C2382 H2394 0.956 . S
C2382 H2395 0.961 . S
C2382 H2396 0.961 . S
C2383 C2380 1.539 . S
C2383 H2397 0.958 . S
C2383 H2398 0.961 . S
C2383 H2399 0.960 . S
H2384 C2368 0.931 . S
H2385 C2373 0.929 . S
H2386 C2374 0.960 . S
H2387 C2374 0.962 . S
H2388 C2374 0.960 . S
H2389 C2375 0.961 . S
H2390 C2375 0.961 . S
H2391 C2375 0.961 . S
H2392 C2376 0.931 . S
H2393 C2381 0.930 . S
H2394 C2382 0.956 . S
H2395 C2382 0.961 . S
H2396 C2382 0.961 . S
H2397 C2383 0.958 . S
H2398 C2383 0.961 . S
H2399 C2383 0.960 . S
C2400 C2401 1.391 . S
C2400 C2402 1.394 . S
C2400 H2416 0.931 . S
C2401 C2400 1.391 . S
C2401 C2405 1.376 . S
C2402 C2400 1.394 . S
C2402 C2403 1.369 . S
C2402 C2406 1.531 . S
C2403 C2402 1.369 . S
C2403 C2404 1.410 . S
C2403 C2411 1.503 . S
C2404 C2403 1.410 . S
C2404 C2405 1.392 . S
C2404 C2407 1.511 . S
C2405 C2401 1.376 . S
C2405 C2404 1.392 . S
C2405 H2417 0.929 . S
C2406 C2402 1.531 . S
C2406 H2418 0.960 . S
C2406 H2419 0.962 . S
C2406 H2420 0.960 . S
C2407 C2404 1.511 . S
C2407 H2421 0.961 . S
C2407 H2422 0.961 . S
C2407 H2423 0.961 . S
C2408 C2409 1.370 . S
C2408 C2410 1.363 . S
C2408 H2424 0.931 . S
C2409 C2408 1.370 . S
C2409 C2413 1.408 . S
C2410 C2408 1.363 . S
C2410 C2411 1.370 . S
C2410 C2414 1.524 . S
C2411 C2403 1.503 . S
C2411 C2410 1.370 . S
C2411 C2412 1.403 . S
C2412 C2411 1.403 . S
C2412 C2413 1.404 . S
C2412 C2415 1.539 . S
C2413 C2409 1.408 . S
C2413 C2412 1.404 . S
C2413 H2425 0.930 . S
C2414 C2410 1.524 . S
C2414 H2426 0.956 . S
C2414 H2427 0.961 . S
C2414 H2428 0.961 . S
C2415 C2412 1.539 . S
C2415 H2429 0.958 . S
C2415 H2430 0.961 . S
C2415 H2431 0.960 . S
H2416 C2400 0.931 . S
H2417 C2405 0.929 . S
H2418 C2406 0.960 . S
H2419 C2406 0.962 . S
H2420 C2406 0.960 . S
H2421 C2407 0.961 . S
H2422 C2407 0.961 . S
H2423 C2407 0.961 . S
H2424 C2408 0.931 . S
H2425 C2413 0.930 . S
H2426 C2414 0.956 . S
H2427 C2414 0.961 . S
H2428 C2414 0.961 . S
H2429 C2415 0.958 . S
H2430 C2415 0.961 . S
H2431 C2415 0.960 . S
C2432 C2433 1.391 . S
C2432 C2434 1.394 . S
C2432 H2448 0.931 . S
C2433 C2432 1.391 . S
C2433 C2437 1.376 . S
C2434 C2432 1.394 . S
C2434 C2435 1.369 . S
C2434 C2438 1.531 . S
C2435 C2434 1.369 . S
C2435 C2436 1.410 . S
C2435 C2443 1.503 1_655 S
C2436 C2435 1.410 . S
C2436 C2437 1.392 . S
C2436 C2439 1.511 . S
C2437 C2433 1.376 . S
C2437 C2436 1.392 . S
C2437 H2449 0.929 . S
C2438 C2434 1.531 . S
C2438 H2450 0.960 1_655 S
C2438 H2451 0.962 . S
C2438 H2452 0.960 . S
C2439 C2436 1.511 . S
C2439 H2453 0.961 . S
C2439 H2454 0.943 1_655 S
C2439 H2455 0.961 . S
C2440 C2441 1.370 . S
C2440 C2442 1.363 . S
C2440 H2456 0.931 . S
C2441 C2440 1.370 . S
C2441 C2445 1.408 . S
C2442 C2440 1.363 . S
C2442 C2443 1.370 . S
C2442 C2446 1.524 . S
C2443 C2435 1.503 1_455 S
C2443 C2442 1.370 . S
C2443 C2444 1.403 . S
C2444 C2443 1.403 . S
C2444 C2445 1.404 . S
C2444 C2447 1.539 . S
C2445 C2441 1.408 . S
C2445 C2444 1.404 . S
C2445 H2457 0.930 . S
C2446 C2442 1.524 . S
C2446 H2458 0.956 1_455 S
C2446 H2459 0.961 1_455 S
C2446 H2460 0.961 . S
C2447 C2444 1.539 . S
C2447 H2461 0.958 . S
C2447 H2462 0.961 . S
C2447 H2463 0.960 . S
H2448 C2432 0.931 . S
H2449 C2437 0.929 . S
H2450 C2438 0.960 1_455 S
H2451 C2438 0.962 . S
H2452 C2438 0.960 . S
H2453 C2439 0.961 . S
H2454 C2439 0.943 1_455 S
H2455 C2439 0.961 . S
H2456 C2440 0.931 . S
H2457 C2445 0.930 . S
H2458 C2446 0.956 1_655 S
H2459 C2446 0.961 1_655 S
H2460 C2446 0.961 . S
H2461 C2447 0.958 . S
H2462 C2447 0.961 . S
H2463 C2447 0.960 . S
C2464 C2465 1.391 . S
C2464 C2466 1.394 . S
C2464 H2480 0.931 . S
C2465 C2464 1.391 . S
C2465 C2469 1.376 . S
C2466 C2464 1.394 . S
C2466 C2467 1.369 . S
C2466 C2470 1.531 . S
C2467 C2466 1.369 . S
C2467 C2468 1.410 . S
C2467 C2475 1.503 . S
C2468 C2467 1.410 . S
C2468 C2469 1.392 . S
C2468 C2471 1.511 . S
C2469 C2465 1.376 . S
C2469 C2468 1.392 . S
C2469 H2481 0.929 . S
C2470 C2466 1.531 . S
C2470 H2482 0.960 . S
C2470 H2483 0.962 . S
C2470 H2484 0.960 . S
C2471 C2468 1.511 . S
C2471 H2485 0.961 . S
C2471 H2486 0.961 . S
C2471 H2487 0.961 . S
C2472 C2473 1.370 . S
C2472 C2474 1.363 . S
C2472 H2488 0.931 . S
C2473 C2472 1.370 . S
C2473 C2477 1.408 . S
C2474 C2472 1.363 . S
C2474 C2475 1.370 . S
C2474 C2478 1.524 . S
C2475 C2467 1.503 . S
C2475 C2474 1.370 . S
C2475 C2476 1.403 . S
C2476 C2475 1.403 . S
C2476 C2477 1.404 . S
C2476 C2479 1.539 . S
C2477 C2473 1.408 . S
C2477 C2476 1.404 . S
C2477 H2489 0.930 . S
C2478 C2474 1.524 . S
C2478 H2490 0.956 . S
C2478 H2491 0.961 . S
C2478 H2492 0.961 . S
C2479 C2476 1.539 . S
C2479 H2493 0.958 . S
C2479 H2494 0.961 . S
C2479 H2495 0.960 . S
H2480 C2464 0.931 . S
H2481 C2469 0.929 . S
H2482 C2470 0.960 . S
H2483 C2470 0.962 . S
H2484 C2470 0.960 . S
H2485 C2471 0.961 . S
H2486 C2471 0.961 . S
H2487 C2471 0.961 . S
H2488 C2472 0.931 . S
H2489 C2477 0.930 . S
H2490 C2478 0.956 . S
H2491 C2478 0.961 . S
H2492 C2478 0.961 . S
H2493 C2479 0.958 . S
H2494 C2479 0.961 . S
H2495 C2479 0.960 . S
C2496 C2497 1.391 . S
C2496 C2498 1.394 . S
C2496 H2512 0.931 . S
C2497 C2496 1.391 . S
C2497 C2501 1.376 . S
C2498 C2496 1.394 . S
C2498 C2499 1.369 . S
C2498 C2502 1.531 . S
C2499 C2498 1.369 . S
C2499 C2500 1.410 . S
C2499 C2507 1.503 . S
C2500 C2499 1.410 . S
C2500 C2501 1.392 . S
C2500 C2503 1.511 . S
C2501 C2497 1.376 . S
C2501 C2500 1.392 . S
C2501 H2513 0.929 . S
C2502 C2498 1.531 . S
C2502 H2514 0.960 . S
C2502 H2515 0.962 . S
C2502 H2516 0.960 . S
C2503 C2500 1.511 . S
C2503 H2517 0.961 . S
C2503 H2518 0.961 . S
C2503 H2519 0.961 . S
C2504 C2505 1.370 . S
C2504 C2506 1.363 . S
C2504 H2520 0.931 . S
C2505 C2504 1.370 . S
C2505 C2509 1.408 . S
C2506 C2504 1.363 . S
C2506 C2507 1.370 . S
C2506 C2510 1.524 . S
C2507 C2499 1.503 . S
C2507 C2506 1.370 . S
C2507 C2508 1.403 . S
C2508 C2507 1.403 . S
C2508 C2509 1.404 . S
C2508 C2511 1.539 . S
C2509 C2505 1.408 . S
C2509 C2508 1.404 . S
C2509 H2521 0.930 . S
C2510 C2506 1.524 . S
C2510 H2522 0.956 . S
C2510 H2523 0.961 . S
C2510 H2524 0.961 . S
C2511 C2508 1.539 . S
C2511 H2525 0.958 . S
C2511 H2526 0.961 . S
C2511 H2527 0.960 . S
H2512 C2496 0.931 . S
H2513 C2501 0.929 . S
H2514 C2502 0.960 . S
H2515 C2502 0.962 . S
H2516 C2502 0.960 . S
H2517 C2503 0.961 . S
H2518 C2503 0.961 . S
H2519 C2503 0.961 . S
H2520 C2504 0.931 . S
H2521 C2509 0.930 . S
H2522 C2510 0.956 . S
H2523 C2510 0.961 . S
H2524 C2510 0.961 . S
H2525 C2511 0.958 . S
H2526 C2511 0.961 . S
H2527 C2511 0.960 . S
C2528 C2529 1.391 . S
C2528 C2530 1.394 . S
C2528 H2544 0.931 . S
C2529 C2528 1.391 . S
C2529 C2533 1.376 1_455 S
C2530 C2528 1.394 . S
C2530 C2531 1.369 1_455 S
C2530 C2534 1.531 . S
C2531 C2530 1.369 1_655 S
C2531 C2532 1.410 . S
C2531 C2539 1.503 . S
C2532 C2531 1.410 . S
C2532 C2533 1.392 . S
C2532 C2535 1.511 . S
C2533 C2529 1.376 1_655 S
C2533 C2532 1.392 . S
C2533 H2545 0.929 . S
C2534 C2530 1.531 . S
C2534 H2546 0.960 1_455 S
C2534 H2547 0.962 . S
C2534 H2548 0.960 . S
C2535 C2532 1.511 . S
C2535 H2549 0.961 . S
C2535 H2550 0.961 . S
C2535 H2551 0.961 . S
C2536 C2537 1.370 1_455 S
C2536 C2538 1.363 . S
C2536 H2552 0.931 . S
C2537 C2536 1.370 1_655 S
C2537 C2541 1.408 . S
C2538 C2536 1.363 . S
C2538 C2539 1.370 1_455 S
C2538 C2542 1.524 . S
C2539 C2531 1.503 . S
C2539 C2538 1.370 1_655 S
C2539 C2540 1.403 . S
C2540 C2539 1.403 . S
C2540 C2541 1.404 . S
C2540 C2543 1.539 . S
C2541 C2537 1.408 . S
C2541 C2540 1.404 . S
C2541 H2553 0.930 . S
C2542 C2538 1.524 . S
C2542 H2554 0.956 . S
C2542 H2555 0.961 . S
C2542 H2556 0.961 . S
C2543 C2540 1.539 . S
C2543 H2557 0.958 . S
C2543 H2558 0.961 . S
C2543 H2559 0.960 . S
H2544 C2528 0.931 . S
H2545 C2533 0.929 . S
H2546 C2534 0.960 1_655 S
H2547 C2534 0.962 . S
H2548 C2534 0.960 . S
H2549 C2535 0.961 . S
H2550 C2535 0.961 . S
H2551 C2535 0.961 . S
H2552 C2536 0.931 . S
H2553 C2541 0.930 . S
H2554 C2542 0.956 . S
H2555 C2542 0.961 . S
H2556 C2542 0.961 . S
H2557 C2543 0.958 . S
H2558 C2543 0.961 . S
H2559 C2543 0.960 . S
C2560 C2561 1.391 . S
C2560 C2562 1.394 . S
C2560 H2576 0.931 . S
C2561 C2560 1.391 . S
C2561 C2565 1.376 . S
C2562 C2560 1.394 . S
C2562 C2563 1.369 . S
C2562 C2566 1.531 . S
C2563 C2562 1.369 . S
C2563 C2564 1.410 . S
C2563 C2571 1.503 1_455 S
C2564 C2563 1.410 . S
C2564 C2565 1.392 . S
C2564 C2567 1.511 . S
C2565 C2561 1.376 . S
C2565 C2564 1.392 . S
C2565 H2577 0.929 . S
C2566 C2562 1.531 . S
C2566 H2578 0.960 . S
C2566 H2579 0.962 . S
C2566 H2580 0.960 . S
C2567 C2564 1.511 . S
C2567 H2581 0.961 . S
C2567 H2582 0.961 1_455 S
C2567 H2583 0.961 . S
C2568 C2569 1.370 . S
C2568 C2570 1.363 . S
C2568 H2584 0.931 . S
C2569 C2568 1.370 . S
C2569 C2573 1.408 . S
C2570 C2568 1.363 . S
C2570 C2571 1.370 . S
C2570 C2574 1.524 . S
C2571 C2563 1.503 1_655 S
C2571 C2570 1.370 . S
C2571 C2572 1.403 . S
C2572 C2571 1.403 . S
C2572 C2573 1.404 . S
C2572 C2575 1.539 . S
C2573 C2569 1.408 . S
C2573 C2572 1.404 . S
C2573 H2585 0.930 . S
C2574 C2570 1.524 . S
C2574 H2586 0.956 1_655 S
C2574 H2587 0.961 1_655 S
C2574 H2588 0.961 . S
C2575 C2572 1.539 . S
C2575 H2589 0.958 . S
C2575 H2590 0.961 . S
C2575 H2591 0.960 . S
H2576 C2560 0.931 . S
H2577 C2565 0.929 . S
H2578 C2566 0.960 . S
H2579 C2566 0.962 . S
H2580 C2566 0.960 . S
H2581 C2567 0.961 . S
H2582 C2567 0.961 1_655 S
H2583 C2567 0.961 . S
H2584 C2568 0.931 . S
H2585 C2573 0.930 . S
H2586 C2574 0.956 1_455 S
H2587 C2574 0.961 1_455 S
H2588 C2574 0.961 . S
H2589 C2575 0.958 . S
H2590 C2575 0.961 . S
H2591 C2575 0.960 . S
C2592 C2593 1.391 1_455 S
C2592 C2594 1.394 . S
C2592 H2608 0.931 . S
C2593 C2592 1.391 1_655 S
C2593 C2597 1.376 . S
C2594 C2592 1.394 . S
C2594 C2595 1.369 . S
C2594 C2598 1.531 . S
C2595 C2594 1.369 . S
C2595 C2596 1.410 1_455 S
C2595 C2603 1.503 . S
C2596 C2595 1.410 1_655 S
C2596 C2597 1.392 . S
C2596 C2599 1.511 . S
C2597 C2593 1.376 . S
C2597 C2596 1.392 . S
C2597 H2609 0.929 . S
C2598 C2594 1.531 . S
C2598 H2610 0.960 . S
C2598 H2611 0.962 . S
C2598 H2612 0.960 . S
C2599 C2596 1.511 . S
C2599 H2613 0.961 . S
C2599 H2614 0.961 . S
C2599 H2615 0.961 . S
C2600 C2601 1.370 1_655 S
C2600 C2602 1.363 . S
C2600 H2616 0.931 . S
C2601 C2600 1.370 1_455 S
C2601 C2605 1.408 . S
C2602 C2600 1.363 . S
C2602 C2603 1.370 1_655 S
C2602 C2606 1.524 . S
C2603 C2595 1.503 . S
C2603 C2602 1.370 1_455 S
C2603 C2604 1.403 . S
C2604 C2603 1.403 . S
C2604 C2605 1.404 . S
C2604 C2607 1.539 . S
C2605 C2601 1.408 . S
C2605 C2604 1.404 . S
C2605 H2617 0.930 . S
C2606 C2602 1.524 . S
C2606 H2618 0.956 . S
C2606 H2619 0.961 . S
C2606 H2620 0.961 . S
C2607 C2604 1.539 . S
C2607 H2621 0.958 . S
C2607 H2622 0.961 . S
C2607 H2623 0.960 . S
H2608 C2592 0.931 . S
H2609 C2597 0.929 . S
H2610 C2598 0.960 . S
H2611 C2598 0.962 . S
H2612 C2598 0.960 . S
H2613 C2599 0.961 . S
H2614 C2599 0.961 . S
H2615 C2599 0.961 . S
H2616 C2600 0.931 . S
H2617 C2605 0.930 . S
H2618 C2606 0.956 . S
H2619 C2606 0.961 . S
H2620 C2606 0.961 . S
H2621 C2607 0.958 . S
H2622 C2607 0.961 . S
H2623 C2607 0.960 . S
C2624 C2625 1.391 . S
C2624 C2626 1.394 . S
C2624 H2640 0.931 . S
C2625 C2624 1.391 . S
C2625 C2629 1.376 . S
C2626 C2624 1.394 . S
C2626 C2627 1.369 . S
C2626 C2630 1.531 . S
C2627 C2626 1.369 . S
C2627 C2628 1.410 . S
C2627 C2635 1.503 . S
C2628 C2627 1.410 . S
C2628 C2629 1.392 . S
C2628 C2631 1.511 . S
C2629 C2625 1.376 . S
C2629 C2628 1.392 . S
C2629 H2641 0.929 . S
C2630 C2626 1.531 . S
C2630 H2642 0.960 . S
C2630 H2643 0.962 . S
C2630 H2644 0.960 . S
C2631 C2628 1.511 . S
C2631 H2645 0.961 . S
C2631 H2646 0.961 . S
C2631 H2647 0.961 . S
C2632 C2633 1.370 . S
C2632 C2634 1.363 . S
C2632 H2648 0.931 . S
C2633 C2632 1.370 . S
C2633 C2637 1.408 . S
C2634 C2632 1.363 . S
C2634 C2635 1.370 . S
C2634 C2638 1.524 . S
C2635 C2627 1.503 . S
C2635 C2634 1.370 . S
C2635 C2636 1.403 . S
C2636 C2635 1.403 . S
C2636 C2637 1.404 . S
C2636 C2639 1.539 . S
C2637 C2633 1.408 . S
C2637 C2636 1.404 . S
C2637 H2649 0.930 . S
C2638 C2634 1.524 . S
C2638 H2650 0.956 . S
C2638 H2651 0.961 . S
C2638 H2652 0.961 . S
C2639 C2636 1.539 . S
C2639 H2653 0.958 . S
C2639 H2654 0.961 . S
C2639 H2655 0.960 . S
H2640 C2624 0.931 . S
H2641 C2629 0.929 . S
H2642 C2630 0.960 . S
H2643 C2630 0.962 . S
H2644 C2630 0.960 . S
H2645 C2631 0.961 . S
H2646 C2631 0.961 . S
H2647 C2631 0.961 . S
H2648 C2632 0.931 . S
H2649 C2637 0.930 . S
H2650 C2638 0.956 . S
H2651 C2638 0.961 . S
H2652 C2638 0.961 . S
H2653 C2639 0.958 . S
H2654 C2639 0.961 . S
H2655 C2639 0.960 . S
C2656 C2657 1.391 . S
C2656 C2658 1.394 . S
C2656 H2672 0.931 . S
C2657 C2656 1.391 . S
C2657 C2661 1.376 . S
C2658 C2656 1.394 . S
C2658 C2659 1.369 . S
C2658 C2662 1.531 . S
C2659 C2658 1.369 . S
C2659 C2660 1.410 . S
C2659 C2667 1.503 . S
C2660 C2659 1.410 . S
C2660 C2661 1.392 . S
C2660 C2663 1.511 . S
C2661 C2657 1.376 . S
C2661 C2660 1.392 . S
C2661 H2673 0.929 . S
C2662 C2658 1.531 . S
C2662 H2674 0.960 . S
C2662 H2675 0.962 . S
C2662 H2676 0.960 . S
C2663 C2660 1.511 . S
C2663 H2677 0.961 . S
C2663 H2678 0.961 . S
C2663 H2679 0.961 . S
C2664 C2665 1.370 . S
C2664 C2666 1.363 . S
C2664 H2680 0.931 . S
C2665 C2664 1.370 . S
C2665 C2669 1.408 . S
C2666 C2664 1.363 . S
C2666 C2667 1.370 . S
C2666 C2670 1.524 . S
C2667 C2659 1.503 . S
C2667 C2666 1.370 . S
C2667 C2668 1.403 . S
C2668 C2667 1.403 . S
C2668 C2669 1.404 . S
C2668 C2671 1.539 . S
C2669 C2665 1.408 . S
C2669 C2668 1.404 . S
C2669 H2681 0.930 . S
C2670 C2666 1.524 . S
C2670 H2682 0.956 . S
C2670 H2683 0.961 . S
C2670 H2684 0.961 . S
C2671 C2668 1.539 . S
C2671 H2685 0.958 . S
C2671 H2686 0.961 . S
C2671 H2687 0.960 . S
H2672 C2656 0.931 . S
H2673 C2661 0.929 . S
H2674 C2662 0.960 . S
H2675 C2662 0.962 . S
H2676 C2662 0.960 . S
H2677 C2663 0.961 . S
H2678 C2663 0.961 . S
H2679 C2663 0.961 . S
H2680 C2664 0.931 . S
H2681 C2669 0.930 . S
H2682 C2670 0.956 . S
H2683 C2670 0.961 . S
H2684 C2670 0.961 . S
H2685 C2671 0.958 . S
H2686 C2671 0.961 . S
H2687 C2671 0.960 . S
C2688 C2689 1.391 . S
C2688 C2690 1.394 . S
C2688 H2704 0.931 . S
C2689 C2688 1.391 . S
C2689 C2693 1.376 . S
C2690 C2688 1.394 . S
C2690 C2691 1.369 . S
C2690 C2694 1.531 . S
C2691 C2690 1.369 . S
C2691 C2692 1.410 . S
C2691 C2699 1.503 1_455 S
C2692 C2691 1.410 . S
C2692 C2693 1.392 . S
C2692 C2695 1.511 . S
C2693 C2689 1.376 . S
C2693 C2692 1.392 . S
C2693 H2705 0.929 . S
C2694 C2690 1.531 . S
C2694 H2706 0.960 1_455 S
C2694 H2707 0.962 . S
C2694 H2708 0.960 . S
C2695 C2692 1.511 . S
C2695 H2709 0.961 . S
C2695 H2710 0.966 . S
C2695 H2711 0.961 . S
C2696 C2697 1.370 . S
C2696 C2698 1.363 . S
C2696 H2712 0.931 . S
C2697 C2696 1.370 . S
C2697 C2701 1.408 . S
C2698 C2696 1.363 . S
C2698 C2699 1.370 . S
C2698 C2702 1.524 . S
C2699 C2691 1.503 1_655 S
C2699 C2698 1.370 . S
C2699 C2700 1.403 . S
C2700 C2699 1.403 . S
C2700 C2701 1.404 . S
C2700 C2703 1.539 . S
C2701 C2697 1.408 . S
C2701 C2700 1.404 . S
C2701 H2713 0.930 . S
C2702 C2698 1.524 . S
C2702 H2714 0.956 1_655 S
C2702 H2715 0.961 1_655 S
C2702 H2716 0.961 . S
C2703 C2700 1.539 . S
C2703 H2717 0.958 . S
C2703 H2718 0.961 . S
C2703 H2719 0.960 . S
H2704 C2688 0.931 . S
H2705 C2693 0.929 . S
H2706 C2694 0.960 1_655 S
H2707 C2694 0.962 . S
H2708 C2694 0.960 . S
H2709 C2695 0.961 . S
H2710 C2695 0.966 . S
H2711 C2695 0.961 . S
H2712 C2696 0.931 . S
H2713 C2701 0.930 . S
H2714 C2702 0.956 1_455 S
H2715 C2702 0.961 1_455 S
H2716 C2702 0.961 . S
H2717 C2703 0.958 . S
H2718 C2703 0.961 . S
H2719 C2703 0.960 . S
C2720 C2721 1.391 . S
C2720 C2722 1.394 . S
C2720 H2736 0.931 . S
C2721 C2720 1.391 . S
C2721 C2725 1.376 . S
C2722 C2720 1.394 . S
C2722 C2723 1.369 . S
C2722 C2726 1.531 . S
C2723 C2722 1.369 . S
C2723 C2724 1.410 . S
C2723 C2731 1.503 . S
C2724 C2723 1.410 . S
C2724 C2725 1.392 . S
C2724 C2727 1.511 . S
C2725 C2721 1.376 . S
C2725 C2724 1.392 . S
C2725 H2737 0.929 . S
C2726 C2722 1.531 . S
C2726 H2738 0.960 . S
C2726 H2739 0.962 . S
C2726 H2740 0.960 . S
C2727 C2724 1.511 . S
C2727 H2741 0.961 . S
C2727 H2742 0.961 . S
C2727 H2743 0.961 . S
C2728 C2729 1.370 . S
C2728 C2730 1.363 . S
C2728 H2744 0.931 . S
C2729 C2728 1.370 . S
C2729 C2733 1.408 . S
C2730 C2728 1.363 . S
C2730 C2731 1.370 . S
C2730 C2734 1.524 . S
C2731 C2723 1.503 . S
C2731 C2730 1.370 . S
C2731 C2732 1.403 . S
C2732 C2731 1.403 . S
C2732 C2733 1.404 . S
C2732 C2735 1.539 . S
C2733 C2729 1.408 . S
C2733 C2732 1.404 . S
C2733 H2745 0.930 . S
C2734 C2730 1.524 . S
C2734 H2746 0.956 . S
C2734 H2747 0.961 . S
C2734 H2748 0.961 . S
C2735 C2732 1.539 . S
C2735 H2749 0.958 . S
C2735 H2750 0.961 . S
C2735 H2751 0.960 . S
H2736 C2720 0.931 . S
H2737 C2725 0.929 . S
H2738 C2726 0.960 . S
H2739 C2726 0.962 . S
H2740 C2726 0.960 . S
H2741 C2727 0.961 . S
H2742 C2727 0.961 . S
H2743 C2727 0.961 . S
H2744 C2728 0.931 . S
H2745 C2733 0.930 . S
H2746 C2734 0.956 . S
H2747 C2734 0.961 . S
H2748 C2734 0.961 . S
H2749 C2735 0.958 . S
H2750 C2735 0.961 . S
H2751 C2735 0.960 . S
C2752 C2753 1.391 . S
C2752 C2754 1.394 . S
C2752 H2768 0.931 . S
C2753 C2752 1.391 . S
C2753 C2757 1.376 . S
C2754 C2752 1.394 . S
C2754 C2755 1.369 . S
C2754 C2758 1.531 . S
C2755 C2754 1.369 . S
C2755 C2756 1.410 . S
C2755 C2763 1.503 . S
C2756 C2755 1.410 . S
C2756 C2757 1.392 . S
C2756 C2759 1.511 . S
C2757 C2753 1.376 . S
C2757 C2756 1.392 . S
C2757 H2769 0.929 . S
C2758 C2754 1.531 . S
C2758 H2770 0.960 . S
C2758 H2771 0.962 . S
C2758 H2772 0.960 . S
C2759 C2756 1.511 . S
C2759 H2773 0.961 . S
C2759 H2774 0.961 . S
C2759 H2775 0.961 . S
C2760 C2761 1.370 . S
C2760 C2762 1.363 . S
C2760 H2776 0.931 . S
C2761 C2760 1.370 . S
C2761 C2765 1.408 . S
C2762 C2760 1.363 . S
C2762 C2763 1.370 . S
C2762 C2766 1.524 . S
C2763 C2755 1.503 . S
C2763 C2762 1.370 . S
C2763 C2764 1.403 . S
C2764 C2763 1.403 . S
C2764 C2765 1.404 . S
C2764 C2767 1.539 . S
C2765 C2761 1.408 . S
C2765 C2764 1.404 . S
C2765 H2777 0.930 . S
C2766 C2762 1.524 . S
C2766 H2778 0.956 . S
C2766 H2779 0.961 . S
C2766 H2780 0.961 . S
C2767 C2764 1.539 . S
C2767 H2781 0.958 . S
C2767 H2782 0.961 . S
C2767 H2783 0.960 . S
H2768 C2752 0.931 . S
H2769 C2757 0.929 . S
H2770 C2758 0.960 . S
H2771 C2758 0.962 . S
H2772 C2758 0.960 . S
H2773 C2759 0.961 . S
H2774 C2759 0.961 . S
H2775 C2759 0.961 . S
H2776 C2760 0.931 . S
H2777 C2765 0.930 . S
H2778 C2766 0.956 . S
H2779 C2766 0.961 . S
H2780 C2766 0.961 . S
H2781 C2767 0.958 . S
H2782 C2767 0.961 . S
H2783 C2767 0.960 . S
C2784 C2785 1.391 1_455 S
C2784 C2786 1.394 . S
C2784 H2800 0.931 . S
C2785 C2784 1.391 1_655 S
C2785 C2789 1.376 . S
C2786 C2784 1.394 . S
C2786 C2787 1.369 1_455 S
C2786 C2790 1.531 . S
C2787 C2786 1.369 1_655 S
C2787 C2788 1.410 . S
C2787 C2795 1.503 . S
C2788 C2787 1.410 . S
C2788 C2789 1.392 . S
C2788 C2791 1.511 . S
C2789 C2785 1.376 . S
C2789 C2788 1.392 . S
C2789 H2801 0.929 . S
C2790 C2786 1.531 . S
C2790 H2802 0.960 . S
C2790 H2803 0.962 . S
C2790 H2804 0.960 . S
C2791 C2788 1.511 . S
C2791 H2805 0.961 . S
C2791 H2806 0.961 . S
C2791 H2807 0.961 . S
C2792 C2793 1.370 . S
C2792 C2794 1.363 . S
C2792 H2808 0.931 . S
C2793 C2792 1.370 . S
C2793 C2797 1.408 1_455 S
C2794 C2792 1.363 . S
C2794 C2795 1.370 1_455 S
C2794 C2798 1.524 . S
C2795 C2787 1.503 . S
C2795 C2794 1.370 1_655 S
C2795 C2796 1.403 . S
C2796 C2795 1.403 . S
C2796 C2797 1.404 . S
C2796 C2799 1.539 . S
C2797 C2793 1.408 1_655 S
C2797 C2796 1.404 . S
C2797 H2809 0.930 . S
C2798 C2794 1.524 . S
C2798 H2810 0.956 . S
C2798 H2811 0.961 . S
C2798 H2812 0.961 . S
C2799 C2796 1.539 . S
C2799 H2813 0.958 . S
C2799 H2814 0.961 . S
C2799 H2815 0.960 . S
H2800 C2784 0.931 . S
H2801 C2789 0.929 . S
H2802 C2790 0.960 . S
H2803 C2790 0.962 . S
H2804 C2790 0.960 . S
H2805 C2791 0.961 . S
H2806 C2791 0.961 . S
H2807 C2791 0.961 . S
H2808 C2792 0.931 . S
H2809 C2797 0.930 . S
H2810 C2798 0.956 . S
H2811 C2798 0.961 . S
H2812 C2798 0.961 . S
H2813 C2799 0.958 . S
H2814 C2799 0.961 . S
H2815 C2799 0.960 . S
C2816 C2817 1.391 . S
C2816 C2818 1.394 . S
C2816 H2832 0.931 . S
C2817 C2816 1.391 . S
C2817 C2821 1.376 . S
C2818 C2816 1.394 . S
C2818 C2819 1.369 . S
C2818 C2822 1.531 . S
C2819 C2818 1.369 . S
C2819 C2820 1.410 . S
C2819 C2827 1.503 . S
C2820 C2819 1.410 . S
C2820 C2821 1.392 . S
C2820 C2823 1.511 . S
C2821 C2817 1.376 . S
C2821 C2820 1.392 . S
C2821 H2833 0.929 . S
C2822 C2818 1.531 . S
C2822 H2834 0.960 . S
C2822 H2835 0.962 . S
C2822 H2836 0.960 . S
C2823 C2820 1.511 . S
C2823 H2837 0.961 . S
C2823 H2838 0.961 . S
C2823 H2839 0.961 . S
C2824 C2825 1.370 . S
C2824 C2826 1.363 . S
C2824 H2840 0.931 . S
C2825 C2824 1.370 . S
C2825 C2829 1.408 . S
C2826 C2824 1.363 . S
C2826 C2827 1.370 . S
C2826 C2830 1.524 . S
C2827 C2819 1.503 . S
C2827 C2826 1.370 . S
C2827 C2828 1.403 . S
C2828 C2827 1.403 . S
C2828 C2829 1.404 . S
C2828 C2831 1.539 . S
C2829 C2825 1.408 . S
C2829 C2828 1.404 . S
C2829 H2841 0.930 . S
C2830 C2826 1.524 . S
C2830 H2842 0.956 . S
C2830 H2843 0.961 . S
C2830 H2844 0.961 . S
C2831 C2828 1.539 . S
C2831 H2845 0.958 . S
C2831 H2846 0.961 . S
C2831 H2847 0.960 . S
H2832 C2816 0.931 . S
H2833 C2821 0.929 . S
H2834 C2822 0.960 . S
H2835 C2822 0.962 . S
H2836 C2822 0.960 . S
H2837 C2823 0.961 . S
H2838 C2823 0.961 . S
H2839 C2823 0.961 . S
H2840 C2824 0.931 . S
H2841 C2829 0.930 . S
H2842 C2830 0.956 . S
H2843 C2830 0.961 . S
H2844 C2830 0.961 . S
H2845 C2831 0.958 . S
H2846 C2831 0.961 . S
H2847 C2831 0.960 . S
C2848 C2849 1.391 1_565 S
C2848 C2850 1.394 . S
C2848 H2864 0.931 . S
C2849 C2848 1.391 1_545 S
C2849 C2853 1.376 1_655 S
C2850 C2848 1.394 . S
C2850 C2851 1.369 . S
C2850 C2854 1.531 . S
C2851 C2850 1.369 . S
C2851 C2852 1.410 1_665 S
C2851 C2859 1.503 1_655 S
C2852 C2851 1.410 1_445 S
C2852 C2853 1.392 . S
C2852 C2855 1.511 . S
C2853 C2849 1.376 1_455 S
C2853 C2852 1.392 . S
C2853 H2865 0.929 . S
C2854 C2850 1.531 . S
C2854 H2866 0.960 . S
C2854 H2867 0.962 . S
C2854 H2868 0.960 . S
C2855 C2852 1.511 . S
C2855 H2869 0.961 . S
C2855 H2870 0.961 . S
C2855 H2871 0.961 1_545 S
C2856 C2857 1.370 1_545 S
C2856 C2858 1.363 1_455 S
C2856 H2872 0.931 1_455 S
C2857 C2856 1.370 1_565 S
C2857 C2861 1.408 . S
C2858 C2856 1.363 1_655 S
C2858 C2859 1.370 1_645 S
C2858 C2862 1.524 . S
C2859 C2851 1.503 1_455 S
C2859 C2858 1.370 1_465 S
C2859 C2860 1.403 . S
C2860 C2859 1.403 . S
C2860 C2861 1.404 . S
C2860 C2863 1.539 . S
C2861 C2857 1.408 . S
C2861 C2860 1.404 . S
C2861 H2873 0.930 . S
C2862 C2858 1.524 . S
C2862 H2874 0.956 . S
C2862 H2875 0.971 . S
C2862 H2876 0.961 . S
C2863 C2860 1.539 . S
C2863 H2877 0.958 . S
C2863 H2878 0.961 . S
C2863 H2879 0.960 . S
H2864 C2848 0.931 . S
H2865 C2853 0.929 . S
H2866 C2854 0.960 . S
H2867 C2854 0.962 . S
H2868 C2854 0.960 . S
H2869 C2855 0.961 . S
H2870 C2855 0.961 . S
H2871 C2855 0.961 1_565 S
H2872 C2856 0.931 1_655 S
H2873 C2861 0.930 . S
H2874 C2862 0.956 . S
H2875 C2862 0.971 . S
H2876 C2862 0.961 . S
H2877 C2863 0.958 . S
H2878 C2863 0.961 . S
H2879 C2863 0.960 . S
C2880 C2881 1.391 . S
C2880 C2882 1.394 . S
C2880 H2896 0.931 . S
C2881 C2880 1.391 . S
C2881 C2885 1.376 . S
C2882 C2880 1.394 . S
C2882 C2883 1.369 . S
C2882 C2886 1.531 . S
C2883 C2882 1.369 . S
C2883 C2884 1.410 . S
C2883 C2891 1.503 . S
C2884 C2883 1.410 . S
C2884 C2885 1.392 . S
C2884 C2887 1.511 . S
C2885 C2881 1.376 . S
C2885 C2884 1.392 . S
C2885 H2897 0.929 . S
C2886 C2882 1.531 . S
C2886 H2898 0.960 . S
C2886 H2899 0.962 . S
C2886 H2900 0.960 . S
C2887 C2884 1.511 . S
C2887 H2901 0.961 . S
C2887 H2902 0.961 . S
C2887 H2903 0.961 . S
C2888 C2889 1.370 . S
C2888 C2890 1.363 . S
C2888 H2904 0.931 . S
C2889 C2888 1.370 . S
C2889 C2893 1.408 . S
C2890 C2888 1.363 . S
C2890 C2891 1.370 . S
C2890 C2894 1.524 . S
C2891 C2883 1.503 . S
C2891 C2890 1.370 . S
C2891 C2892 1.403 . S
C2892 C2891 1.403 . S
C2892 C2893 1.404 . S
C2892 C2895 1.539 . S
C2893 C2889 1.408 . S
C2893 C2892 1.404 . S
C2893 H2905 0.930 . S
C2894 C2890 1.524 . S
C2894 H2906 0.956 . S
C2894 H2907 0.961 . S
C2894 H2908 0.961 . S
C2895 C2892 1.539 . S
C2895 H2909 0.958 . S
C2895 H2910 0.961 . S
C2895 H2911 0.960 . S
H2896 C2880 0.931 . S
H2897 C2885 0.929 . S
H2898 C2886 0.960 . S
H2899 C2886 0.962 . S
H2900 C2886 0.960 . S
H2901 C2887 0.961 . S
H2902 C2887 0.961 . S
H2903 C2887 0.961 . S
H2904 C2888 0.931 . S
H2905 C2893 0.930 . S
H2906 C2894 0.956 . S
H2907 C2894 0.961 . S
H2908 C2894 0.961 . S
H2909 C2895 0.958 . S
H2910 C2895 0.961 . S
H2911 C2895 0.960 . S
C2912 C2913 1.391 1_565 S
C2912 C2914 1.394 . S
C2912 H2928 0.931 . S
C2913 C2912 1.391 1_545 S
C2913 C2917 1.376 . S
C2914 C2912 1.394 . S
C2914 C2915 1.369 1_565 S
C2914 C2918 1.531 . S
C2915 C2914 1.369 1_545 S
C2915 C2916 1.410 . S
C2915 C2923 1.501 1_544 S
C2916 C2915 1.410 . S
C2916 C2917 1.392 . S
C2916 C2919 1.511 . S
C2917 C2913 1.376 . S
C2917 C2916 1.392 . S
C2917 H2929 0.929 . S
C2918 C2914 1.531 . S
C2918 H2930 0.960 1_554 S
C2918 H2931 0.962 . S
C2918 H2932 0.960 . S
C2919 C2916 1.511 . S
C2919 H2933 0.961 . S
C2919 H2934 0.961 1_554 S
C2919 H2935 0.961 . S
C2920 C2921 1.370 . S
C2920 C2922 1.363 . S
C2920 H2936 0.931 . S
C2921 C2920 1.370 . S
C2921 C2925 1.405 1_565 S
C2922 C2920 1.363 . S
C2922 C2923 1.376 . S
C2922 C2926 1.603 . S
C2923 C2915 1.501 1_566 S
C2923 C2922 1.376 . S
C2923 C2924 1.400 1_565 S
C2924 C2923 1.400 1_545 S
C2924 C2925 1.405 . S
C2924 C2927 1.539 . S
C2925 C2921 1.405 1_545 S
C2925 C2924 1.405 . S
C2925 H2937 0.932 . S
C2926 C2922 1.603 . S
C2926 H2938 0.898 1_556 S
C2926 H2939 0.898 1_566 S
C2926 H2940 1.018 . S
C2927 C2924 1.539 . S
C2927 H2941 0.958 1_545 S
C2927 H2942 0.961 . S
C2927 H2943 0.960 . S
H2928 C2912 0.931 . S
H2929 C2917 0.929 . S
H2930 C2918 0.960 1_556 S
H2931 C2918 0.962 . S
H2932 C2918 0.960 . S
H2933 C2919 0.961 . S
H2934 C2919 0.961 1_556 S
H2935 C2919 0.961 . S
H2936 C2920 0.931 . S
H2937 C2925 0.932 . S
H2938 C2926 0.898 1_554 S
H2939 C2926 0.898 1_544 S
H2940 C2926 1.018 . S
H2941 C2927 0.958 1_565 S
H2942 C2927 0.961 . S
H2943 C2927 0.960 . S
C2944 C2945 1.391 . S
C2944 C2946 1.394 . S
C2944 H2960 0.931 . S
C2945 C2944 1.391 . S
C2945 C2949 1.376 . S
C2946 C2944 1.394 . S
C2946 C2947 1.369 . S
C2946 C2950 1.531 . S
C2947 C2946 1.369 . S
C2947 C2948 1.410 . S
C2947 C2955 1.503 . S
C2948 C2947 1.410 . S
C2948 C2949 1.392 . S
C2948 C2951 1.511 . S
C2949 C2945 1.376 . S
C2949 C2948 1.392 . S
C2949 H2961 0.929 . S
C2950 C2946 1.531 . S
C2950 H2962 0.960 . S
C2950 H2963 0.962 . S
C2950 H2964 0.960 . S
C2951 C2948 1.511 . S
C2951 H2965 0.961 . S
C2951 H2966 0.961 . S
C2951 H2967 0.961 . S
C2952 C2953 1.370 . S
C2952 C2954 1.363 . S
C2952 H2968 0.931 . S
C2953 C2952 1.370 . S
C2953 C2957 1.408 . S
C2954 C2952 1.363 . S
C2954 C2955 1.370 . S
C2954 C2958 1.524 . S
C2955 C2947 1.503 . S
C2955 C2954 1.370 . S
C2955 C2956 1.403 . S
C2956 C2955 1.403 . S
C2956 C2957 1.404 . S
C2956 C2959 1.539 . S
C2957 C2953 1.408 . S
C2957 C2956 1.404 . S
C2957 H2969 0.930 . S
C2958 C2954 1.524 . S
C2958 H2970 0.956 . S
C2958 H2971 0.961 . S
C2958 H2972 0.961 . S
C2959 C2956 1.539 . S
C2959 H2973 0.958 . S
C2959 H2974 0.961 . S
C2959 H2975 0.960 . S
H2960 C2944 0.931 . S
H2961 C2949 0.929 . S
H2962 C2950 0.960 . S
H2963 C2950 0.962 . S
H2964 C2950 0.960 . S
H2965 C2951 0.961 . S
H2966 C2951 0.961 . S
H2967 C2951 0.961 . S
H2968 C2952 0.931 . S
H2969 C2957 0.930 . S
H2970 C2958 0.956 . S
H2971 C2958 0.961 . S
H2972 C2958 0.961 . S
H2973 C2959 0.958 . S
H2974 C2959 0.961 . S
H2975 C2959 0.960 . S
C2976 C2977 1.391 1_565 S
C2976 C2978 1.394 . S
C2976 H2992 0.931 . S
C2977 C2976 1.391 1_545 S
C2977 C2981 1.376 . S
C2978 C2976 1.394 . S
C2978 C2979 1.369 . S
C2978 C2982 1.531 . S
C2979 C2978 1.369 . S
C2979 C2980 1.410 1_565 S
C2979 C2987 1.503 . S
C2980 C2979 1.410 1_545 S
C2980 C2981 1.392 . S
C2980 C2983 1.511 . S
C2981 C2977 1.376 . S
C2981 C2980 1.392 . S
C2981 H2993 0.929 . S
C2982 C2978 1.531 . S
C2982 H2994 0.960 . S
C2982 H2995 0.962 . S
C2982 H2996 0.960 . S
C2983 C2980 1.511 . S
C2983 H2997 0.961 . S
C2983 H2998 0.961 . S
C2983 H2999 0.961 . S
C2984 C2985 1.370 1_545 S
C2984 C2986 1.363 . S
C2984 H3000 0.931 . S
C2985 C2984 1.370 1_565 S
C2985 C2989 1.408 . S
C2986 C2984 1.363 . S
C2986 C2987 1.370 1_545 S
C2986 C2990 1.524 . S
C2987 C2979 1.503 . S
C2987 C2986 1.370 1_565 S
C2987 C2988 1.403 . S
C2988 C2987 1.403 . S
C2988 C2989 1.404 . S
C2988 C2991 1.539 . S
C2989 C2985 1.408 . S
C2989 C2988 1.404 . S
C2989 H3001 0.930 . S
C2990 C2986 1.524 . S
C2990 H3002 0.956 . S
C2990 H3003 0.961 . S
C2990 H3004 0.961 . S
C2991 C2988 1.539 . S
C2991 H3005 0.958 . S
C2991 H3006 0.961 . S
C2991 H3007 0.960 . S
H2992 C2976 0.931 . S
H2993 C2981 0.929 . S
H2994 C2982 0.960 . S
H2995 C2982 0.962 . S
H2996 C2982 0.960 . S
H2997 C2983 0.961 . S
H2998 C2983 0.961 . S
H2999 C2983 0.961 . S
H3000 C2984 0.931 . S
H3001 C2989 0.930 . S
H3002 C2990 0.956 . S
H3003 C2990 0.961 . S
H3004 C2990 0.961 . S
H3005 C2991 0.958 . S
H3006 C2991 0.961 . S
H3007 C2991 0.960 . S
C3008 C3009 1.391 . S
C3008 C3010 1.394 . S
C3008 H3024 0.931 . S
C3009 C3008 1.391 . S
C3009 C3013 1.376 . S
C3010 C3008 1.394 . S
C3010 C3011 1.369 . S
C3010 C3014 1.531 . S
C3011 C3010 1.369 . S
C3011 C3012 1.410 . S
C3011 C3019 1.503 . S
C3012 C3011 1.410 . S
C3012 C3013 1.392 . S
C3012 C3015 1.511 . S
C3013 C3009 1.376 . S
C3013 C3012 1.392 . S
C3013 H3025 0.929 . S
C3014 C3010 1.531 . S
C3014 H3026 0.960 . S
C3014 H3027 0.962 . S
C3014 H3028 0.960 . S
C3015 C3012 1.511 . S
C3015 H3029 0.961 . S
C3015 H3030 0.961 . S
C3015 H3031 0.961 . S
C3016 C3017 1.370 . S
C3016 C3018 1.363 . S
C3016 H3032 0.931 . S
C3017 C3016 1.370 . S
C3017 C3021 1.408 . S
C3018 C3016 1.363 . S
C3018 C3019 1.370 . S
C3018 C3022 1.524 . S
C3019 C3011 1.503 . S
C3019 C3018 1.370 . S
C3019 C3020 1.403 . S
C3020 C3019 1.403 . S
C3020 C3021 1.404 . S
C3020 C3023 1.539 . S
C3021 C3017 1.408 . S
C3021 C3020 1.404 . S
C3021 H3033 0.930 . S
C3022 C3018 1.524 . S
C3022 H3034 0.956 . S
C3022 H3035 0.961 . S
C3022 H3036 0.961 . S
C3023 C3020 1.539 . S
C3023 H3037 0.958 . S
C3023 H3038 0.961 . S
C3023 H3039 0.960 . S
H3024 C3008 0.931 . S
H3025 C3013 0.929 . S
H3026 C3014 0.960 . S
H3027 C3014 0.962 . S
H3028 C3014 0.960 . S
H3029 C3015 0.961 . S
H3030 C3015 0.961 . S
H3031 C3015 0.961 . S
H3032 C3016 0.931 . S
H3033 C3021 0.930 . S
H3034 C3022 0.956 . S
H3035 C3022 0.961 . S
H3036 C3022 0.961 . S
H3037 C3023 0.958 . S
H3038 C3023 0.961 . S
H3039 C3023 0.960 . S
C3040 C3041 1.391 1_665 S
C3040 C3042 1.394 . S
C3040 H3056 0.931 . S
C3041 C3040 1.391 1_445 S
C3041 C3045 1.376 . S
C3042 C3040 1.394 . S
C3042 C3043 1.369 1_655 S
C3042 C3046 1.531 . S
C3043 C3042 1.369 1_455 S
C3043 C3044 1.410 1_565 S
C3043 C3051 1.503 1_456 S
C3044 C3043 1.410 1_545 S
C3044 C3045 1.392 . S
C3044 C3047 1.511 . S
C3045 C3041 1.376 . S
C3045 C3044 1.392 . S
C3045 H3057 0.929 . S
C3046 C3042 1.531 . S
C3046 H3058 0.960 . S
C3046 H3059 0.962 . S
C3046 H3060 0.960 . S
C3047 C3044 1.511 . S
C3047 H3061 0.961 . S
C3047 H3062 0.961 1_556 S
C3047 H3063 0.976 1_545 S
C3048 C3049 1.370 1_545 S
C3048 C3050 1.363 . S
C3048 H3064 0.931 . S
C3049 C3048 1.370 1_565 S
C3049 C3053 1.407 . S
C3050 C3048 1.363 . S
C3050 C3051 1.370 1_545 S
C3050 C3054 1.524 . S
C3051 C3043 1.503 1_654 S
C3051 C3050 1.370 1_565 S
C3051 C3052 1.403 1_655 S
C3052 C3051 1.403 1_455 S
C3052 C3053 1.404 1_455 S
C3052 C3055 1.539 . S
C3053 C3049 1.407 . S
C3053 C3052 1.404 1_655 S
C3053 H3065 0.931 1_655 S
C3054 C3050 1.524 . S
C3054 H3066 0.937 1_554 S
C3054 H3067 1.012 . S
C3054 H3068 0.961 . S
C3055 C3052 1.539 . S
C3055 H3069 0.958 . S
C3055 H3070 0.961 . S
C3055 H3071 0.990 . S
H3056 C3040 0.931 . S
H3057 C3045 0.929 . S
H3058 C3046 0.960 . S
H3059 C3046 0.962 . S
H3060 C3046 0.960 . S
H3061 C3047 0.961 . S
H3062 C3047 0.961 1_554 S
H3063 C3047 0.976 1_565 S
H3064 C3048 0.931 . S
H3065 C3053 0.931 1_455 S
H3066 C3054 0.937 1_556 S
H3067 C3054 1.012 . S
H3068 C3054 0.961 . S
H3069 C3055 0.958 . S
H3070 C3055 0.961 . S
H3071 C3055 0.990 . S
C3072 C3073 1.391 . S
C3072 C3074 1.394 . S
C3072 H3088 0.931 . S
C3073 C3072 1.391 . S
C3073 C3077 1.376 . S
C3074 C3072 1.394 . S
C3074 C3075 1.369 . S
C3074 C3078 1.531 . S
C3075 C3074 1.369 . S
C3075 C3076 1.410 . S
C3075 C3083 1.503 . S
C3076 C3075 1.410 . S
C3076 C3077 1.392 . S
C3076 C3079 1.511 . S
C3077 C3073 1.376 . S
C3077 C3076 1.392 . S
C3077 H3089 0.929 . S
C3078 C3074 1.531 . S
C3078 H3090 0.960 . S
C3078 H3091 0.962 . S
C3078 H3092 0.960 . S
C3079 C3076 1.511 . S
C3079 H3093 0.961 . S
C3079 H3094 0.961 . S
C3079 H3095 0.961 . S
C3080 C3081 1.370 . S
C3080 C3082 1.363 . S
C3080 H3096 0.931 . S
C3081 C3080 1.370 . S
C3081 C3085 1.408 . S
C3082 C3080 1.363 . S
C3082 C3083 1.370 . S
C3082 C3086 1.524 . S
C3083 C3075 1.503 . S
C3083 C3082 1.370 . S
C3083 C3084 1.403 . S
C3084 C3083 1.403 . S
C3084 C3085 1.404 . S
C3084 C3087 1.539 . S
C3085 C3081 1.408 . S
C3085 C3084 1.404 . S
C3085 H3097 0.930 . S
C3086 C3082 1.524 . S
C3086 H3098 0.956 . S
C3086 H3099 0.961 . S
C3086 H3100 0.961 . S
C3087 C3084 1.539 . S
C3087 H3101 0.958 . S
C3087 H3102 0.961 . S
C3087 H3103 0.960 . S
H3088 C3072 0.931 . S
H3089 C3077 0.929 . S
H3090 C3078 0.960 . S
H3091 C3078 0.962 . S
H3092 C3078 0.960 . S
H3093 C3079 0.961 . S
H3094 C3079 0.961 . S
H3095 C3079 0.961 . S
H3096 C3080 0.931 . S
H3097 C3085 0.930 . S
H3098 C3086 0.956 . S
H3099 C3086 0.961 . S
H3100 C3086 0.961 . S
H3101 C3087 0.958 . S
H3102 C3087 0.961 . S
H3103 C3087 0.960 . S
C3104 C3105 1.391 . S
C3104 C3106 1.394 . S
C3104 H3120 0.931 . S
C3105 C3104 1.391 . S
C3105 C3109 1.376 . S
C3106 C3104 1.394 . S
C3106 C3107 1.369 . S
C3106 C3110 1.531 . S
C3107 C3106 1.369 . S
C3107 C3108 1.410 . S
C3107 C3115 1.503 . S
C3108 C3107 1.410 . S
C3108 C3109 1.392 . S
C3108 C3111 1.511 . S
C3109 C3105 1.376 . S
C3109 C3108 1.392 . S
C3109 H3121 0.929 . S
C3110 C3106 1.531 . S
C3110 H3122 0.960 . S
C3110 H3123 0.962 . S
C3110 H3124 0.960 . S
C3111 C3108 1.511 . S
C3111 H3125 0.961 . S
C3111 H3126 0.961 . S
C3111 H3127 0.961 . S
C3112 C3113 1.370 . S
C3112 C3114 1.363 . S
C3112 H3128 0.931 . S
C3113 C3112 1.370 . S
C3113 C3117 1.408 . S
C3114 C3112 1.363 . S
C3114 C3115 1.370 . S
C3114 C3118 1.524 . S
C3115 C3107 1.503 . S
C3115 C3114 1.370 . S
C3115 C3116 1.403 . S
C3116 C3115 1.403 . S
C3116 C3117 1.404 . S
C3116 C3119 1.539 . S
C3117 C3113 1.408 . S
C3117 C3116 1.404 . S
C3117 H3129 0.930 . S
C3118 C3114 1.524 . S
C3118 H3130 0.956 . S
C3118 H3131 0.961 . S
C3118 H3132 0.961 . S
C3119 C3116 1.539 . S
C3119 H3133 0.958 . S
C3119 H3134 0.961 . S
C3119 H3135 0.960 . S
H3120 C3104 0.931 . S
H3121 C3109 0.929 . S
H3122 C3110 0.960 . S
H3123 C3110 0.962 . S
H3124 C3110 0.960 . S
H3125 C3111 0.961 . S
H3126 C3111 0.961 . S
H3127 C3111 0.961 . S
H3128 C3112 0.931 . S
H3129 C3117 0.930 . S
H3130 C3118 0.956 . S
H3131 C3118 0.961 . S
H3132 C3118 0.961 . S
H3133 C3119 0.958 . S
H3134 C3119 0.961 . S
H3135 C3119 0.960 . S
C3136 C3137 1.391 . S
C3136 C3138 1.394 . S
C3136 H3152 0.931 . S
C3137 C3136 1.391 . S
C3137 C3141 1.376 . S
C3138 C3136 1.394 . S
C3138 C3139 1.369 . S
C3138 C3142 1.531 . S
C3139 C3138 1.369 . S
C3139 C3140 1.410 . S
C3139 C3147 1.503 . S
C3140 C3139 1.410 . S
C3140 C3141 1.392 . S
C3140 C3143 1.511 . S
C3141 C3137 1.376 . S
C3141 C3140 1.392 . S
C3141 H3153 0.929 . S
C3142 C3138 1.531 . S
C3142 H3154 0.960 . S
C3142 H3155 0.962 . S
C3142 H3156 0.960 . S
C3143 C3140 1.511 . S
C3143 H3157 0.961 . S
C3143 H3158 0.961 . S
C3143 H3159 0.961 . S
C3144 C3145 1.370 . S
C3144 C3146 1.363 . S
C3144 H3160 0.931 . S
C3145 C3144 1.370 . S
C3145 C3149 1.408 . S
C3146 C3144 1.363 . S
C3146 C3147 1.370 . S
C3146 C3150 1.524 . S
C3147 C3139 1.503 . S
C3147 C3146 1.370 . S
C3147 C3148 1.403 . S
C3148 C3147 1.403 . S
C3148 C3149 1.404 . S
C3148 C3151 1.539 . S
C3149 C3145 1.408 . S
C3149 C3148 1.404 . S
C3149 H3161 0.930 . S
C3150 C3146 1.524 . S
C3150 H3162 0.956 . S
C3150 H3163 0.961 . S
C3150 H3164 0.961 . S
C3151 C3148 1.539 . S
C3151 H3165 0.958 . S
C3151 H3166 0.961 . S
C3151 H3167 0.960 . S
H3152 C3136 0.931 . S
H3153 C3141 0.929 . S
H3154 C3142 0.960 . S
H3155 C3142 0.962 . S
H3156 C3142 0.960 . S
H3157 C3143 0.961 . S
H3158 C3143 0.961 . S
H3159 C3143 0.961 . S
H3160 C3144 0.931 . S
H3161 C3149 0.930 . S
H3162 C3150 0.956 . S
H3163 C3150 0.961 . S
H3164 C3150 0.961 . S
H3165 C3151 0.958 . S
H3166 C3151 0.961 . S
H3167 C3151 0.960 . S
C3168 C3169 1.391 . S
C3168 C3170 1.394 . S
C3168 H3184 0.931 . S
C3169 C3168 1.391 . S
C3169 C3173 1.376 . S
C3170 C3168 1.394 . S
C3170 C3171 1.369 . S
C3170 C3174 1.531 . S
C3171 C3170 1.369 . S
C3171 C3172 1.410 . S
C3171 C3179 1.503 . S
C3172 C3171 1.410 . S
C3172 C3173 1.392 . S
C3172 C3175 1.511 . S
C3173 C3169 1.376 . S
C3173 C3172 1.392 . S
C3173 H3185 0.929 . S
C3174 C3170 1.531 . S
C3174 H3186 0.960 . S
C3174 H3187 0.962 . S
C3174 H3188 0.960 . S
C3175 C3172 1.511 . S
C3175 H3189 0.961 . S
C3175 H3190 0.961 . S
C3175 H3191 0.961 . S
C3176 C3177 1.370 . S
C3176 C3178 1.363 . S
C3176 H3192 0.931 . S
C3177 C3176 1.370 . S
C3177 C3181 1.408 . S
C3178 C3176 1.363 . S
C3178 C3179 1.370 . S
C3178 C3182 1.524 . S
C3179 C3171 1.503 . S
C3179 C3178 1.370 . S
C3179 C3180 1.403 . S
C3180 C3179 1.403 . S
C3180 C3181 1.404 . S
C3180 C3183 1.539 . S
C3181 C3177 1.408 . S
C3181 C3180 1.404 . S
C3181 H3193 0.930 . S
C3182 C3178 1.524 . S
C3182 H3194 0.956 . S
C3182 H3195 0.961 . S
C3182 H3196 0.961 . S
C3183 C3180 1.539 . S
C3183 H3197 0.958 . S
C3183 H3198 0.961 . S
C3183 H3199 0.960 . S
H3184 C3168 0.931 . S
H3185 C3173 0.929 . S
H3186 C3174 0.960 . S
H3187 C3174 0.962 . S
H3188 C3174 0.960 . S
H3189 C3175 0.961 . S
H3190 C3175 0.961 . S
H3191 C3175 0.961 . S
H3192 C3176 0.931 . S
H3193 C3181 0.930 . S
H3194 C3182 0.956 . S
H3195 C3182 0.961 . S
H3196 C3182 0.961 . S
H3197 C3183 0.958 . S
H3198 C3183 0.961 . S
H3199 C3183 0.960 . S
C3200 C3201 1.391 . S
C3200 C3202 1.394 . S
C3200 H3216 0.931 . S
C3201 C3200 1.391 . S
C3201 C3205 1.376 . S
C3202 C3200 1.394 . S
C3202 C3203 1.369 . S
C3202 C3206 1.531 . S
C3203 C3202 1.369 . S
C3203 C3204 1.410 . S
C3203 C3211 1.503 1_554 S
C3204 C3203 1.410 . S
C3204 C3205 1.392 . S
C3204 C3207 1.511 . S
C3205 C3201 1.376 . S
C3205 C3204 1.392 . S
C3205 H3217 0.929 . S
C3206 C3202 1.531 . S
C3206 H3218 0.960 1_554 S
C3206 H3219 0.952 1_554 S
C3206 H3220 0.960 . S
C3207 C3204 1.511 . S
C3207 H3221 0.961 . S
C3207 H3222 0.961 . S
C3207 H3223 0.961 . S
C3208 C3209 1.370 . S
C3208 C3210 1.363 . S
C3208 H3224 0.931 . S
C3209 C3208 1.370 . S
C3209 C3213 1.408 . S
C3210 C3208 1.363 . S
C3210 C3211 1.370 . S
C3210 C3214 1.524 . S
C3211 C3203 1.503 1_556 S
C3211 C3210 1.370 . S
C3211 C3212 1.403 . S
C3212 C3211 1.403 . S
C3212 C3213 1.404 . S
C3212 C3215 1.539 . S
C3213 C3209 1.408 . S
C3213 C3212 1.404 . S
C3213 H3225 0.930 . S
C3214 C3210 1.524 . S
C3214 H3226 0.956 . S
C3214 H3227 0.961 1_556 S
C3214 H3228 0.961 . S
C3215 C3212 1.539 . S
C3215 H3229 0.958 . S
C3215 H3230 0.961 . S
C3215 H3231 0.896 1_556 S
H3216 C3200 0.931 . S
H3217 C3205 0.929 . S
H3218 C3206 0.960 1_556 S
H3219 C3206 0.952 1_556 S
H3220 C3206 0.960 . S
H3221 C3207 0.961 . S
H3222 C3207 0.961 . S
H3223 C3207 0.961 . S
H3224 C3208 0.931 . S
H3225 C3213 0.930 . S
H3226 C3214 0.956 . S
H3227 C3214 0.961 1_554 S
H3228 C3214 0.961 . S
H3229 C3215 0.958 . S
H3230 C3215 0.961 . S
H3231 C3215 0.896 1_554 S
C3232 C3233 1.391 . S
C3232 C3234 1.394 . S
C3232 H3248 0.931 . S
C3233 C3232 1.391 . S
C3233 C3237 1.376 1_655 S
C3234 C3232 1.394 . S
C3234 C3235 1.369 . S
C3234 C3238 1.531 . S
C3235 C3234 1.369 . S
C3235 C3236 1.410 1_655 S
C3235 C3243 1.503 1_655 S
C3236 C3235 1.410 1_455 S
C3236 C3237 1.392 . S
C3236 C3239 1.511 . S
C3237 C3233 1.376 1_455 S
C3237 C3236 1.392 . S
C3237 H3249 0.929 . S
C3238 C3234 1.531 . S
C3238 H3250 0.960 . S
C3238 H3251 0.962 . S
C3238 H3252 0.960 . S
C3239 C3236 1.511 . S
C3239 H3253 0.961 . S
C3239 H3254 0.961 . S
C3239 H3255 0.961 . S
C3240 C3241 1.370 . S
C3240 C3242 1.363 . S
C3240 H3256 0.931 . S
C3241 C3240 1.370 . S
C3241 C3245 1.408 . S
C3242 C3240 1.363 . S
C3242 C3243 1.370 . S
C3242 C3246 1.524 1_455 S
C3243 C3235 1.503 1_455 S
C3243 C3242 1.370 . S
C3243 C3244 1.403 . S
C3244 C3243 1.403 . S
C3244 C3245 1.404 . S
C3244 C3247 1.539 . S
C3245 C3241 1.408 . S
C3245 C3244 1.404 . S
C3245 H3257 0.930 . S
C3246 C3242 1.524 1_655 S
C3246 H3258 0.956 . S
C3246 H3259 0.961 1_655 S
C3246 H3260 0.961 . S
C3247 C3244 1.539 . S
C3247 H3261 0.958 1_455 S
C3247 H3262 0.961 . S
C3247 H3263 0.960 . S
H3248 C3232 0.931 . S
H3249 C3237 0.929 . S
H3250 C3238 0.960 . S
H3251 C3238 0.962 . S
H3252 C3238 0.960 . S
H3253 C3239 0.961 . S
H3254 C3239 0.961 . S
H3255 C3239 0.961 . S
H3256 C3240 0.931 . S
H3257 C3245 0.930 . S
H3258 C3246 0.956 . S
H3259 C3246 0.961 1_455 S
H3260 C3246 0.961 . S
H3261 C3247 0.958 1_655 S
H3262 C3247 0.961 . S
H3263 C3247 0.960 . S
C3264 C3265 1.391 . S
C3264 C3266 1.394 . S
C3264 H3280 0.931 . S
C3265 C3264 1.391 . S
C3265 C3269 1.376 1_455 S
C3266 C3264 1.394 . S
C3266 C3267 1.369 1_455 S
C3266 C3270 1.531 . S
C3267 C3266 1.369 1_655 S
C3267 C3268 1.410 . S
C3267 C3275 1.503 1_554 S
C3268 C3267 1.410 . S
C3268 C3269 1.392 . S
C3268 C3271 1.511 . S
C3269 C3265 1.376 1_655 S
C3269 C3268 1.392 . S
C3269 H3281 0.929 . S
C3270 C3266 1.531 . S
C3270 H3282 0.960 . S
C3270 H3283 0.962 . S
C3270 H3284 0.960 . S
C3271 C3268 1.511 . S
C3271 H3285 0.961 . S
C3271 H3286 0.856 1_554 S
C3271 H3287 0.961 . S
C3272 C3273 1.370 1_455 S
C3272 C3274 1.363 . S
C3272 H3288 0.931 . S
C3273 C3272 1.370 1_655 S
C3273 C3277 1.408 . S
C3274 C3272 1.363 . S
C3274 C3275 1.370 1_455 S
C3274 C3278 1.524 . S
C3275 C3267 1.503 1_556 S
C3275 C3274 1.370 1_655 S
C3275 C3276 1.403 . S
C3276 C3275 1.403 . S
C3276 C3277 1.404 . S
C3276 C3279 1.539 . S
C3277 C3273 1.408 . S
C3277 C3276 1.404 . S
C3277 H3289 0.930 . S
C3278 C3274 1.524 . S
C3278 H3290 0.956 . S
C3278 H3291 0.961 . S
C3278 H3292 0.961 . S
C3279 C3276 1.539 . S
C3279 H3293 0.958 . S
C3279 H3294 0.961 . S
C3279 H3295 0.960 1_556 S
H3280 C3264 0.931 . S
H3281 C3269 0.929 . S
H3282 C3270 0.960 . S
H3283 C3270 0.962 . S
H3284 C3270 0.960 . S
H3285 C3271 0.961 . S
H3286 C3271 0.856 1_556 S
H3287 C3271 0.961 . S
H3288 C3272 0.931 . S
H3289 C3277 0.930 . S
H3290 C3278 0.956 . S
H3291 C3278 0.961 . S
H3292 C3278 0.961 . S
H3293 C3279 0.958 . S
H3294 C3279 0.961 . S
H3295 C3279 0.960 1_554 S
C3296 C3297 1.391 . S
C3296 C3298 1.394 . S
C3296 H3312 0.931 . S
C3297 C3296 1.391 . S
C3297 C3301 1.376 . S
C3298 C3296 1.394 . S
C3298 C3299 1.369 . S
C3298 C3302 1.531 . S
C3299 C3298 1.369 . S
C3299 C3300 1.410 . S
C3299 C3307 1.503 . S
C3300 C3299 1.410 . S
C3300 C3301 1.392 . S
C3300 C3303 1.511 . S
C3301 C3297 1.376 . S
C3301 C3300 1.392 . S
C3301 H3313 0.929 . S
C3302 C3298 1.531 . S
C3302 H3314 0.960 . S
C3302 H3315 0.962 . S
C3302 H3316 0.960 . S
C3303 C3300 1.511 . S
C3303 H3317 0.961 . S
C3303 H3318 0.961 . S
C3303 H3319 0.961 . S
C3304 C3305 1.370 . S
C3304 C3306 1.363 . S
C3304 H3320 0.931 . S
C3305 C3304 1.370 . S
C3305 C3309 1.408 . S
C3306 C3304 1.363 . S
C3306 C3307 1.370 . S
C3306 C3310 1.524 . S
C3307 C3299 1.503 . S
C3307 C3306 1.370 . S
C3307 C3308 1.403 . S
C3308 C3307 1.403 . S
C3308 C3309 1.404 . S
C3308 C3311 1.539 . S
C3309 C3305 1.408 . S
C3309 C3308 1.404 . S
C3309 H3321 0.930 . S
C3310 C3306 1.524 . S
C3310 H3322 0.956 . S
C3310 H3323 0.961 . S
C3310 H3324 0.961 . S
C3311 C3308 1.539 . S
C3311 H3325 0.958 . S
C3311 H3326 0.961 . S
C3311 H3327 0.960 . S
H3312 C3296 0.931 . S
H3313 C3301 0.929 . S
H3314 C3302 0.960 . S
H3315 C3302 0.962 . S
H3316 C3302 0.960 . S
H3317 C3303 0.961 . S
H3318 C3303 0.961 . S
H3319 C3303 0.961 . S
H3320 C3304 0.931 . S
H3321 C3309 0.930 . S
H3322 C3310 0.956 . S
H3323 C3310 0.961 . S
H3324 C3310 0.961 . S
H3325 C3311 0.958 . S
H3326 C3311 0.961 . S
H3327 C3311 0.960 . S
C3328 C3329 1.391 . S
C3328 C3330 1.394 . S
C3328 H3344 0.931 . S
C3329 C3328 1.391 . S
C3329 C3333 1.376 . S
C3330 C3328 1.394 . S
C3330 C3331 1.369 . S
C3330 C3334 1.531 . S
C3331 C3330 1.369 . S
C3331 C3332 1.410 . S
C3331 C3339 1.503 . S
C3332 C3331 1.410 . S
C3332 C3333 1.392 . S
C3332 C3335 1.511 . S
C3333 C3329 1.376 . S
C3333 C3332 1.392 . S
C3333 H3345 0.929 . S
C3334 C3330 1.531 . S
C3334 H3346 0.960 . S
C3334 H3347 0.962 . S
C3334 H3348 0.960 . S
C3335 C3332 1.511 . S
C3335 H3349 0.961 . S
C3335 H3350 0.961 . S
C3335 H3351 0.961 . S
C3336 C3337 1.370 . S
C3336 C3338 1.363 . S
C3336 H3352 0.931 . S
C3337 C3336 1.370 . S
C3337 C3341 1.408 . S
C3338 C3336 1.363 . S
C3338 C3339 1.370 . S
C3338 C3342 1.524 . S
C3339 C3331 1.503 . S
C3339 C3338 1.370 . S
C3339 C3340 1.403 . S
C3340 C3339 1.403 . S
C3340 C3341 1.404 . S
C3340 C3343 1.539 . S
C3341 C3337 1.408 . S
C3341 C3340 1.404 . S
C3341 H3353 0.930 . S
C3342 C3338 1.524 . S
C3342 H3354 0.956 . S
C3342 H3355 0.961 . S
C3342 H3356 0.961 . S
C3343 C3340 1.539 . S
C3343 H3357 0.958 . S
C3343 H3358 0.961 . S
C3343 H3359 0.960 . S
H3344 C3328 0.931 . S
H3345 C3333 0.929 . S
H3346 C3334 0.960 . S
H3347 C3334 0.962 . S
H3348 C3334 0.960 . S
H3349 C3335 0.961 . S
H3350 C3335 0.961 . S
H3351 C3335 0.961 . S
H3352 C3336 0.931 . S
H3353 C3341 0.930 . S
H3354 C3342 0.956 . S
H3355 C3342 0.961 . S
H3356 C3342 0.961 . S
H3357 C3343 0.958 . S
H3358 C3343 0.961 . S
H3359 C3343 0.960 . S
C3360 C3361 1.391 . S
C3360 C3362 1.394 . S
C3360 H3376 0.931 . S
C3361 C3360 1.391 . S
C3361 C3365 1.376 . S
C3362 C3360 1.394 . S
C3362 C3363 1.369 . S
C3362 C3366 1.531 . S
C3363 C3362 1.369 . S
C3363 C3364 1.410 . S
C3363 C3371 1.503 . S
C3364 C3363 1.410 . S
C3364 C3365 1.392 . S
C3364 C3367 1.511 . S
C3365 C3361 1.376 . S
C3365 C3364 1.392 . S
C3365 H3377 0.929 . S
C3366 C3362 1.531 . S
C3366 H3378 0.960 . S
C3366 H3379 0.962 . S
C3366 H3380 0.960 . S
C3367 C3364 1.511 . S
C3367 H3381 0.961 . S
C3367 H3382 0.961 . S
C3367 H3383 0.961 . S
C3368 C3369 1.370 . S
C3368 C3370 1.363 . S
C3368 H3384 0.931 . S
C3369 C3368 1.370 . S
C3369 C3373 1.408 . S
C3370 C3368 1.363 . S
C3370 C3371 1.370 . S
C3370 C3374 1.524 . S
C3371 C3363 1.503 . S
C3371 C3370 1.370 . S
C3371 C3372 1.403 . S
C3372 C3371 1.403 . S
C3372 C3373 1.404 . S
C3372 C3375 1.539 . S
C3373 C3369 1.408 . S
C3373 C3372 1.404 . S
C3373 H3385 0.930 . S
C3374 C3370 1.524 . S
C3374 H3386 0.956 . S
C3374 H3387 0.961 . S
C3374 H3388 0.961 . S
C3375 C3372 1.539 . S
C3375 H3389 0.958 . S
C3375 H3390 0.961 . S
C3375 H3391 0.960 . S
H3376 C3360 0.931 . S
H3377 C3365 0.929 . S
H3378 C3366 0.960 . S
H3379 C3366 0.962 . S
H3380 C3366 0.960 . S
H3381 C3367 0.961 . S
H3382 C3367 0.961 . S
H3383 C3367 0.961 . S
H3384 C3368 0.931 . S
H3385 C3373 0.930 . S
H3386 C3374 0.956 . S
H3387 C3374 0.961 . S
H3388 C3374 0.961 . S
H3389 C3375 0.958 . S
H3390 C3375 0.961 . S
H3391 C3375 0.960 . S
C3392 C3393 1.391 . S
C3392 C3394 1.394 . S
C3392 H3408 0.931 . S
C3393 C3392 1.391 . S
C3393 C3397 1.376 . S
C3394 C3392 1.394 . S
C3394 C3395 1.369 . S
C3394 C3398 1.531 . S
C3395 C3394 1.369 . S
C3395 C3396 1.410 . S
C3395 C3403 1.503 . S
C3396 C3395 1.410 . S
C3396 C3397 1.392 . S
C3396 C3399 1.511 . S
C3397 C3393 1.376 . S
C3397 C3396 1.392 . S
C3397 H3409 0.929 . S
C3398 C3394 1.531 . S
C3398 H3410 0.960 . S
C3398 H3411 0.962 . S
C3398 H3412 0.960 . S
C3399 C3396 1.511 . S
C3399 H3413 0.961 . S
C3399 H3414 0.961 . S
C3399 H3415 0.961 . S
C3400 C3401 1.370 . S
C3400 C3402 1.363 . S
C3400 H3416 0.931 . S
C3401 C3400 1.370 . S
C3401 C3405 1.408 . S
C3402 C3400 1.363 . S
C3402 C3403 1.370 . S
C3402 C3406 1.524 . S
C3403 C3395 1.503 . S
C3403 C3402 1.370 . S
C3403 C3404 1.403 . S
C3404 C3403 1.403 . S
C3404 C3405 1.404 . S
C3404 C3407 1.539 . S
C3405 C3401 1.408 . S
C3405 C3404 1.404 . S
C3405 H3417 0.930 . S
C3406 C3402 1.524 . S
C3406 H3418 0.956 . S
C3406 H3419 0.961 . S
C3406 H3420 0.961 . S
C3407 C3404 1.539 . S
C3407 H3421 0.958 . S
C3407 H3422 0.961 . S
C3407 H3423 0.960 . S
H3408 C3392 0.931 . S
H3409 C3397 0.929 . S
H3410 C3398 0.960 . S
H3411 C3398 0.962 . S
H3412 C3398 0.960 . S
H3413 C3399 0.961 . S
H3414 C3399 0.961 . S
H3415 C3399 0.961 . S
H3416 C3400 0.931 . S
H3417 C3405 0.930 . S
H3418 C3406 0.956 . S
H3419 C3406 0.961 . S
H3420 C3406 0.961 . S
H3421 C3407 0.958 . S
H3422 C3407 0.961 . S
H3423 C3407 0.960 . S
C3424 C3425 1.391 . S
C3424 C3426 1.394 . S
C3424 H3440 0.931 . S
C3425 C3424 1.391 . S
C3425 C3429 1.376 . S
C3426 C3424 1.394 . S
C3426 C3427 1.369 . S
C3426 C3430 1.531 . S
C3427 C3426 1.369 . S
C3427 C3428 1.410 . S
C3427 C3435 1.503 . S
C3428 C3427 1.410 . S
C3428 C3429 1.392 . S
C3428 C3431 1.511 . S
C3429 C3425 1.376 . S
C3429 C3428 1.392 . S
C3429 H3441 0.929 . S
C3430 C3426 1.531 . S
C3430 H3442 0.960 . S
C3430 H3443 0.962 . S
C3430 H3444 0.960 . S
C3431 C3428 1.511 . S
C3431 H3445 0.961 . S
C3431 H3446 0.961 . S
C3431 H3447 0.961 . S
C3432 C3433 1.370 . S
C3432 C3434 1.363 . S
C3432 H3448 0.931 . S
C3433 C3432 1.370 . S
C3433 C3437 1.408 . S
C3434 C3432 1.363 . S
C3434 C3435 1.370 . S
C3434 C3438 1.524 . S
C3435 C3427 1.503 . S
C3435 C3434 1.370 . S
C3435 C3436 1.403 . S
C3436 C3435 1.403 . S
C3436 C3437 1.404 . S
C3436 C3439 1.539 . S
C3437 C3433 1.408 . S
C3437 C3436 1.404 . S
C3437 H3449 0.930 . S
C3438 C3434 1.524 . S
C3438 H3450 0.956 . S
C3438 H3451 0.961 . S
C3438 H3452 0.961 . S
C3439 C3436 1.539 . S
C3439 H3453 0.958 . S
C3439 H3454 0.961 . S
C3439 H3455 0.960 . S
H3440 C3424 0.931 . S
H3441 C3429 0.929 . S
H3442 C3430 0.960 . S
H3443 C3430 0.962 . S
H3444 C3430 0.960 . S
H3445 C3431 0.961 . S
H3446 C3431 0.961 . S
H3447 C3431 0.961 . S
H3448 C3432 0.931 . S
H3449 C3437 0.930 . S
H3450 C3438 0.956 . S
H3451 C3438 0.961 . S
H3452 C3438 0.961 . S
H3453 C3439 0.958 . S
H3454 C3439 0.961 . S
H3455 C3439 0.960 . S
C3456 C3457 1.391 . S
C3456 C3458 1.394 . S
C3456 H3472 0.931 . S
C3457 C3456 1.391 . S
C3457 C3461 1.376 . S
C3458 C3456 1.394 . S
C3458 C3459 1.369 . S
C3458 C3462 1.531 . S
C3459 C3458 1.369 . S
C3459 C3460 1.410 . S
C3459 C3467 1.503 . S
C3460 C3459 1.410 . S
C3460 C3461 1.392 . S
C3460 C3463 1.511 . S
C3461 C3457 1.376 . S
C3461 C3460 1.392 . S
C3461 H3473 0.929 . S
C3462 C3458 1.531 . S
C3462 H3474 0.960 . S
C3462 H3475 0.962 . S
C3462 H3476 0.960 . S
C3463 C3460 1.511 . S
C3463 H3477 0.961 . S
C3463 H3478 0.961 . S
C3463 H3479 0.961 . S
C3464 C3465 1.370 . S
C3464 C3466 1.363 . S
C3464 H3480 0.931 . S
C3465 C3464 1.370 . S
C3465 C3469 1.408 . S
C3466 C3464 1.363 . S
C3466 C3467 1.370 . S
C3466 C3470 1.524 . S
C3467 C3459 1.503 . S
C3467 C3466 1.370 . S
C3467 C3468 1.403 . S
C3468 C3467 1.403 . S
C3468 C3469 1.404 . S
C3468 C3471 1.539 . S
C3469 C3465 1.408 . S
C3469 C3468 1.404 . S
C3469 H3481 0.930 . S
C3470 C3466 1.524 . S
C3470 H3482 0.956 . S
C3470 H3483 0.961 . S
C3470 H3484 0.961 . S
C3471 C3468 1.539 . S
C3471 H3485 0.958 . S
C3471 H3486 0.961 . S
C3471 H3487 0.960 . S
H3472 C3456 0.931 . S
H3473 C3461 0.929 . S
H3474 C3462 0.960 . S
H3475 C3462 0.962 . S
H3476 C3462 0.960 . S
H3477 C3463 0.961 . S
H3478 C3463 0.961 . S
H3479 C3463 0.961 . S
H3480 C3464 0.931 . S
H3481 C3469 0.930 . S
H3482 C3470 0.956 . S
H3483 C3470 0.961 . S
H3484 C3470 0.961 . S
H3485 C3471 0.958 . S
H3486 C3471 0.961 . S
H3487 C3471 0.960 . S
C3488 C3489 1.391 . S
C3488 C3490 1.394 . S
C3488 H3504 0.931 . S
C3489 C3488 1.391 . S
C3489 C3493 1.376 . S
C3490 C3488 1.394 . S
C3490 C3491 1.369 . S
C3490 C3494 1.531 . S
C3491 C3490 1.369 . S
C3491 C3492 1.410 . S
C3491 C3499 1.503 . S
C3492 C3491 1.410 . S
C3492 C3493 1.392 . S
C3492 C3495 1.511 . S
C3493 C3489 1.376 . S
C3493 C3492 1.392 . S
C3493 H3505 0.929 . S
C3494 C3490 1.531 . S
C3494 H3506 0.960 . S
C3494 H3507 0.962 . S
C3494 H3508 0.960 . S
C3495 C3492 1.511 . S
C3495 H3509 0.961 . S
C3495 H3510 0.961 . S
C3495 H3511 0.961 . S
C3496 C3497 1.370 . S
C3496 C3498 1.363 . S
C3496 H3512 0.931 . S
C3497 C3496 1.370 . S
C3497 C3501 1.408 . S
C3498 C3496 1.363 . S
C3498 C3499 1.370 . S
C3498 C3502 1.524 . S
C3499 C3491 1.503 . S
C3499 C3498 1.370 . S
C3499 C3500 1.403 . S
C3500 C3499 1.403 . S
C3500 C3501 1.404 . S
C3500 C3503 1.539 . S
C3501 C3497 1.408 . S
C3501 C3500 1.404 . S
C3501 H3513 0.930 . S
C3502 C3498 1.524 . S
C3502 H3514 0.956 . S
C3502 H3515 0.961 . S
C3502 H3516 0.961 . S
C3503 C3500 1.539 . S
C3503 H3517 0.958 . S
C3503 H3518 0.961 . S
C3503 H3519 0.960 . S
H3504 C3488 0.931 . S
H3505 C3493 0.929 . S
H3506 C3494 0.960 . S
H3507 C3494 0.962 . S
H3508 C3494 0.960 . S
H3509 C3495 0.961 . S
H3510 C3495 0.961 . S
H3511 C3495 0.961 . S
H3512 C3496 0.931 . S
H3513 C3501 0.930 . S
H3514 C3502 0.956 . S
H3515 C3502 0.961 . S
H3516 C3502 0.961 . S
H3517 C3503 0.958 . S
H3518 C3503 0.961 . S
H3519 C3503 0.960 . S
C3520 C3521 1.391 . S
C3520 C3522 1.394 . S
C3520 H3536 0.931 . S
C3521 C3520 1.391 . S
C3521 C3525 1.376 . S
C3522 C3520 1.394 . S
C3522 C3523 1.369 . S
C3522 C3526 1.531 . S
C3523 C3522 1.369 . S
C3523 C3524 1.410 . S
C3523 C3531 1.503 . S
C3524 C3523 1.410 . S
C3524 C3525 1.392 . S
C3524 C3527 1.511 . S
C3525 C3521 1.376 . S
C3525 C3524 1.392 . S
C3525 H3537 0.929 . S
C3526 C3522 1.531 . S
C3526 H3538 0.960 . S
C3526 H3539 0.962 . S
C3526 H3540 0.960 . S
C3527 C3524 1.511 . S
C3527 H3541 0.961 . S
C3527 H3542 0.961 . S
C3527 H3543 0.961 . S
C3528 C3529 1.370 . S
C3528 C3530 1.363 . S
C3528 H3544 0.931 . S
C3529 C3528 1.370 . S
C3529 C3533 1.408 . S
C3530 C3528 1.363 . S
C3530 C3531 1.370 . S
C3530 C3534 1.524 . S
C3531 C3523 1.503 . S
C3531 C3530 1.370 . S
C3531 C3532 1.403 . S
C3532 C3531 1.403 . S
C3532 C3533 1.404 . S
C3532 C3535 1.539 . S
C3533 C3529 1.408 . S
C3533 C3532 1.404 . S
C3533 H3545 0.930 . S
C3534 C3530 1.524 . S
C3534 H3546 0.956 . S
C3534 H3547 0.961 . S
C3534 H3548 0.961 . S
C3535 C3532 1.539 . S
C3535 H3549 0.958 . S
C3535 H3550 0.961 . S
C3535 H3551 0.960 . S
H3536 C3520 0.931 . S
H3537 C3525 0.929 . S
H3538 C3526 0.960 . S
H3539 C3526 0.962 . S
H3540 C3526 0.960 . S
H3541 C3527 0.961 . S
H3542 C3527 0.961 . S
H3543 C3527 0.961 . S
H3544 C3528 0.931 . S
H3545 C3533 0.930 . S
H3546 C3534 0.956 . S
H3547 C3534 0.961 . S
H3548 C3534 0.961 . S
H3549 C3535 0.958 . S
H3550 C3535 0.961 . S
H3551 C3535 0.960 . S
C3552 C3553 1.391 . S
C3552 C3554 1.394 . S
C3552 H3568 0.931 . S
C3553 C3552 1.391 . S
C3553 C3557 1.376 . S
C3554 C3552 1.394 . S
C3554 C3555 1.369 . S
C3554 C3558 1.531 . S
C3555 C3554 1.369 . S
C3555 C3556 1.410 . S
C3555 C3563 1.503 . S
C3556 C3555 1.410 . S
C3556 C3557 1.392 . S
C3556 C3559 1.511 . S
C3557 C3553 1.376 . S
C3557 C3556 1.392 . S
C3557 H3569 0.929 . S
C3558 C3554 1.531 . S
C3558 H3570 0.960 . S
C3558 H3571 0.962 . S
C3558 H3572 0.960 . S
C3559 C3556 1.511 . S
C3559 H3573 0.961 . S
C3559 H3574 0.961 . S
C3559 H3575 0.961 . S
C3560 C3561 1.370 . S
C3560 C3562 1.363 . S
C3560 H3576 0.931 . S
C3561 C3560 1.370 . S
C3561 C3565 1.408 . S
C3562 C3560 1.363 . S
C3562 C3563 1.370 . S
C3562 C3566 1.524 . S
C3563 C3555 1.503 . S
C3563 C3562 1.370 . S
C3563 C3564 1.403 . S
C3564 C3563 1.403 . S
C3564 C3565 1.404 . S
C3564 C3567 1.539 . S
C3565 C3561 1.408 . S
C3565 C3564 1.404 . S
C3565 H3577 0.930 . S
C3566 C3562 1.524 . S
C3566 H3578 0.956 . S
C3566 H3579 0.961 . S
C3566 H3580 0.961 . S
C3567 C3564 1.539 . S
C3567 H3581 0.958 . S
C3567 H3582 0.961 . S
C3567 H3583 0.960 . S
H3568 C3552 0.931 . S
H3569 C3557 0.929 . S
H3570 C3558 0.960 . S
H3571 C3558 0.962 . S
H3572 C3558 0.960 . S
H3573 C3559 0.961 . S
H3574 C3559 0.961 . S
H3575 C3559 0.961 . S
H3576 C3560 0.931 . S
H3577 C3565 0.930 . S
H3578 C3566 0.956 . S
H3579 C3566 0.961 . S
H3580 C3566 0.961 . S
H3581 C3567 0.958 . S
H3582 C3567 0.961 . S
H3583 C3567 0.960 . S
C3584 C3585 1.391 . S
C3584 C3586 1.394 . S
C3584 H3600 0.931 . S
C3585 C3584 1.391 . S
C3585 C3589 1.376 . S
C3586 C3584 1.394 . S
C3586 C3587 1.369 . S
C3586 C3590 1.531 . S
C3587 C3586 1.369 . S
C3587 C3588 1.410 . S
C3587 C3595 1.503 . S
C3588 C3587 1.410 . S
C3588 C3589 1.392 . S
C3588 C3591 1.511 . S
C3589 C3585 1.376 . S
C3589 C3588 1.392 . S
C3589 H3601 0.929 . S
C3590 C3586 1.531 . S
C3590 H3602 0.960 . S
C3590 H3603 0.962 . S
C3590 H3604 0.960 . S
C3591 C3588 1.511 . S
C3591 H3605 0.961 . S
C3591 H3606 0.961 . S
C3591 H3607 0.961 . S
C3592 C3593 1.370 . S
C3592 C3594 1.363 . S
C3592 H3608 0.931 . S
C3593 C3592 1.370 . S
C3593 C3597 1.408 . S
C3594 C3592 1.363 . S
C3594 C3595 1.370 . S
C3594 C3598 1.524 . S
C3595 C3587 1.503 . S
C3595 C3594 1.370 . S
C3595 C3596 1.403 . S
C3596 C3595 1.403 . S
C3596 C3597 1.404 . S
C3596 C3599 1.539 . S
C3597 C3593 1.408 . S
C3597 C3596 1.404 . S
C3597 H3609 0.930 . S
C3598 C3594 1.524 . S
C3598 H3610 0.956 . S
C3598 H3611 0.961 . S
C3598 H3612 0.961 . S
C3599 C3596 1.539 . S
C3599 H3613 0.958 . S
C3599 H3614 0.961 . S
C3599 H3615 0.960 . S
H3600 C3584 0.931 . S
H3601 C3589 0.929 . S
H3602 C3590 0.960 . S
H3603 C3590 0.962 . S
H3604 C3590 0.960 . S
H3605 C3591 0.961 . S
H3606 C3591 0.961 . S
H3607 C3591 0.961 . S
H3608 C3592 0.931 . S
H3609 C3597 0.930 . S
H3610 C3598 0.956 . S
H3611 C3598 0.961 . S
H3612 C3598 0.961 . S
H3613 C3599 0.958 . S
H3614 C3599 0.961 . S
H3615 C3599 0.960 . S
C3616 C3617 1.391 . S
C3616 C3618 1.394 . S
C3616 H3632 0.931 . S
C3617 C3616 1.391 . S
C3617 C3621 1.376 . S
C3618 C3616 1.394 . S
C3618 C3619 1.369 . S
C3618 C3622 1.531 . S
C3619 C3618 1.369 . S
C3619 C3620 1.410 . S
C3619 C3627 1.503 . S
C3620 C3619 1.410 . S
C3620 C3621 1.392 . S
C3620 C3623 1.511 . S
C3621 C3617 1.376 . S
C3621 C3620 1.392 . S
C3621 H3633 0.929 . S
C3622 C3618 1.531 . S
C3622 H3634 0.960 . S
C3622 H3635 0.962 . S
C3622 H3636 0.960 . S
C3623 C3620 1.511 . S
C3623 H3637 0.961 . S
C3623 H3638 0.961 . S
C3623 H3639 0.961 . S
C3624 C3625 1.370 . S
C3624 C3626 1.363 . S
C3624 H3640 0.931 . S
C3625 C3624 1.370 . S
C3625 C3629 1.408 . S
C3626 C3624 1.363 . S
C3626 C3627 1.370 . S
C3626 C3630 1.524 . S
C3627 C3619 1.503 . S
C3627 C3626 1.370 . S
C3627 C3628 1.403 . S
C3628 C3627 1.403 . S
C3628 C3629 1.404 . S
C3628 C3631 1.539 . S
C3629 C3625 1.408 . S
C3629 C3628 1.404 . S
C3629 H3641 0.930 . S
C3630 C3626 1.524 . S
C3630 H3642 0.956 . S
C3630 H3643 0.961 . S
C3630 H3644 0.961 . S
C3631 C3628 1.539 . S
C3631 H3645 0.958 . S
C3631 H3646 0.961 . S
C3631 H3647 0.960 . S
H3632 C3616 0.931 . S
H3633 C3621 0.929 . S
H3634 C3622 0.960 . S
H3635 C3622 0.962 . S
H3636 C3622 0.960 . S
H3637 C3623 0.961 . S
H3638 C3623 0.961 . S
H3639 C3623 0.961 . S
H3640 C3624 0.931 . S
H3641 C3629 0.930 . S
H3642 C3630 0.956 . S
H3643 C3630 0.961 . S
H3644 C3630 0.961 . S
H3645 C3631 0.958 . S
H3646 C3631 0.961 . S
H3647 C3631 0.960 . S
C3648 C3649 1.391 . S
C3648 C3650 1.394 . S
C3648 H3664 0.931 . S
C3649 C3648 1.391 . S
C3649 C3653 1.376 . S
C3650 C3648 1.394 . S
C3650 C3651 1.369 . S
C3650 C3654 1.531 . S
C3651 C3650 1.369 . S
C3651 C3652 1.410 . S
C3651 C3659 1.503 . S
C3652 C3651 1.410 . S
C3652 C3653 1.392 . S
C3652 C3655 1.511 . S
C3653 C3649 1.376 . S
C3653 C3652 1.392 . S
C3653 H3665 0.929 . S
C3654 C3650 1.531 . S
C3654 H3666 0.960 . S
C3654 H3667 0.962 . S
C3654 H3668 0.960 . S
C3655 C3652 1.511 . S
C3655 H3669 0.961 . S
C3655 H3670 0.961 . S
C3655 H3671 0.961 . S
C3656 C3657 1.370 . S
C3656 C3658 1.363 . S
C3656 H3672 0.931 . S
C3657 C3656 1.370 . S
C3657 C3661 1.408 . S
C3658 C3656 1.363 . S
C3658 C3659 1.370 . S
C3658 C3662 1.524 . S
C3659 C3651 1.503 . S
C3659 C3658 1.370 . S
C3659 C3660 1.403 . S
C3660 C3659 1.403 . S
C3660 C3661 1.404 . S
C3660 C3663 1.539 . S
C3661 C3657 1.408 . S
C3661 C3660 1.404 . S
C3661 H3673 0.930 . S
C3662 C3658 1.524 . S
C3662 H3674 0.956 . S
C3662 H3675 0.961 . S
C3662 H3676 0.961 . S
C3663 C3660 1.539 . S
C3663 H3677 0.958 . S
C3663 H3678 0.961 . S
C3663 H3679 0.960 . S
H3664 C3648 0.931 . S
H3665 C3653 0.929 . S
H3666 C3654 0.960 . S
H3667 C3654 0.962 . S
H3668 C3654 0.960 . S
H3669 C3655 0.961 . S
H3670 C3655 0.961 . S
H3671 C3655 0.961 . S
H3672 C3656 0.931 . S
H3673 C3661 0.930 . S
H3674 C3662 0.956 . S
H3675 C3662 0.961 . S
H3676 C3662 0.961 . S
H3677 C3663 0.958 . S
H3678 C3663 0.961 . S
H3679 C3663 0.960 . S
C3680 C3681 1.391 . S
C3680 C3682 1.394 . S
C3680 H3696 0.931 . S
C3681 C3680 1.391 . S
C3681 C3685 1.376 . S
C3682 C3680 1.394 . S
C3682 C3683 1.369 . S
C3682 C3686 1.531 . S
C3683 C3682 1.369 . S
C3683 C3684 1.410 . S
C3683 C3691 1.503 . S
C3684 C3683 1.410 . S
C3684 C3685 1.392 . S
C3684 C3687 1.511 . S
C3685 C3681 1.376 . S
C3685 C3684 1.392 . S
C3685 H3697 0.929 . S
C3686 C3682 1.531 . S
C3686 H3698 0.960 . S
C3686 H3699 0.962 . S
C3686 H3700 0.960 . S
C3687 C3684 1.511 . S
C3687 H3701 0.961 . S
C3687 H3702 0.961 . S
C3687 H3703 0.961 . S
C3688 C3689 1.370 . S
C3688 C3690 1.363 . S
C3688 H3704 0.931 . S
C3689 C3688 1.370 . S
C3689 C3693 1.408 . S
C3690 C3688 1.363 . S
C3690 C3691 1.370 . S
C3690 C3694 1.524 . S
C3691 C3683 1.503 . S
C3691 C3690 1.370 . S
C3691 C3692 1.403 . S
C3692 C3691 1.403 . S
C3692 C3693 1.404 . S
C3692 C3695 1.539 . S
C3693 C3689 1.408 . S
C3693 C3692 1.404 . S
C3693 H3705 0.930 . S
C3694 C3690 1.524 . S
C3694 H3706 0.956 . S
C3694 H3707 0.961 . S
C3694 H3708 0.961 . S
C3695 C3692 1.539 . S
C3695 H3709 0.958 . S
C3695 H3710 0.961 . S
C3695 H3711 0.960 . S
H3696 C3680 0.931 . S
H3697 C3685 0.929 . S
H3698 C3686 0.960 . S
H3699 C3686 0.962 . S
H3700 C3686 0.960 . S
H3701 C3687 0.961 . S
H3702 C3687 0.961 . S
H3703 C3687 0.961 . S
H3704 C3688 0.931 . S
H3705 C3693 0.930 . S
H3706 C3694 0.956 . S
H3707 C3694 0.961 . S
H3708 C3694 0.961 . S
H3709 C3695 0.958 . S
H3710 C3695 0.961 . S
H3711 C3695 0.960 . S
C3712 C3713 1.391 . S
C3712 C3714 1.394 . S
C3712 H3728 0.931 . S
C3713 C3712 1.391 . S
C3713 C3717 1.376 . S
C3714 C3712 1.394 . S
C3714 C3715 1.369 . S
C3714 C3718 1.531 . S
C3715 C3714 1.369 . S
C3715 C3716 1.410 . S
C3715 C3723 1.503 . S
C3716 C3715 1.410 . S
C3716 C3717 1.392 . S
C3716 C3719 1.511 . S
C3717 C3713 1.376 . S
C3717 C3716 1.392 . S
C3717 H3729 0.929 . S
C3718 C3714 1.531 . S
C3718 H3730 0.960 . S
C3718 H3731 0.962 . S
C3718 H3732 0.960 . S
C3719 C3716 1.511 . S
C3719 H3733 0.961 . S
C3719 H3734 0.961 . S
C3719 H3735 0.961 . S
C3720 C3721 1.370 . S
C3720 C3722 1.363 . S
C3720 H3736 0.931 . S
C3721 C3720 1.370 . S
C3721 C3725 1.408 . S
C3722 C3720 1.363 . S
C3722 C3723 1.370 . S
C3722 C3726 1.524 . S
C3723 C3715 1.503 . S
C3723 C3722 1.370 . S
C3723 C3724 1.403 . S
C3724 C3723 1.403 . S
C3724 C3725 1.404 . S
C3724 C3727 1.539 . S
C3725 C3721 1.408 . S
C3725 C3724 1.404 . S
C3725 H3737 0.930 . S
C3726 C3722 1.524 . S
C3726 H3738 0.956 . S
C3726 H3739 0.961 . S
C3726 H3740 0.961 . S
C3727 C3724 1.539 . S
C3727 H3741 0.958 . S
C3727 H3742 0.961 . S
C3727 H3743 0.960 . S
H3728 C3712 0.931 . S
H3729 C3717 0.929 . S
H3730 C3718 0.960 . S
H3731 C3718 0.962 . S
H3732 C3718 0.960 . S
H3733 C3719 0.961 . S
H3734 C3719 0.961 . S
H3735 C3719 0.961 . S
H3736 C3720 0.931 . S
H3737 C3725 0.930 . S
H3738 C3726 0.956 . S
H3739 C3726 0.961 . S
H3740 C3726 0.961 . S
H3741 C3727 0.958 . S
H3742 C3727 0.961 . S
H3743 C3727 0.960 . S
C3744 C3745 1.391 . S
C3744 C3746 1.394 . S
C3744 H3760 0.931 . S
C3745 C3744 1.391 . S
C3745 C3749 1.376 . S
C3746 C3744 1.394 . S
C3746 C3747 1.369 . S
C3746 C3750 1.531 . S
C3747 C3746 1.369 . S
C3747 C3748 1.410 . S
C3747 C3755 1.503 . S
C3748 C3747 1.410 . S
C3748 C3749 1.392 . S
C3748 C3751 1.511 . S
C3749 C3745 1.376 . S
C3749 C3748 1.392 . S
C3749 H3761 0.929 . S
C3750 C3746 1.531 . S
C3750 H3762 0.960 . S
C3750 H3763 0.962 . S
C3750 H3764 0.960 . S
C3751 C3748 1.511 . S
C3751 H3765 0.961 . S
C3751 H3766 0.961 . S
C3751 H3767 0.961 . S
C3752 C3753 1.370 . S
C3752 C3754 1.363 . S
C3752 H3768 0.931 . S
C3753 C3752 1.370 . S
C3753 C3757 1.408 . S
C3754 C3752 1.363 . S
C3754 C3755 1.370 . S
C3754 C3758 1.524 . S
C3755 C3747 1.503 . S
C3755 C3754 1.370 . S
C3755 C3756 1.403 . S
C3756 C3755 1.403 . S
C3756 C3757 1.404 . S
C3756 C3759 1.539 . S
C3757 C3753 1.408 . S
C3757 C3756 1.404 . S
C3757 H3769 0.930 . S
C3758 C3754 1.524 . S
C3758 H3770 0.956 . S
C3758 H3771 0.961 . S
C3758 H3772 0.961 . S
C3759 C3756 1.539 . S
C3759 H3773 0.958 . S
C3759 H3774 0.961 . S
C3759 H3775 0.960 . S
H3760 C3744 0.931 . S
H3761 C3749 0.929 . S
H3762 C3750 0.960 . S
H3763 C3750 0.962 . S
H3764 C3750 0.960 . S
H3765 C3751 0.961 . S
H3766 C3751 0.961 . S
H3767 C3751 0.961 . S
H3768 C3752 0.931 . S
H3769 C3757 0.930 . S
H3770 C3758 0.956 . S
H3771 C3758 0.961 . S
H3772 C3758 0.961 . S
H3773 C3759 0.958 . S
H3774 C3759 0.961 . S
H3775 C3759 0.960 . S
C3776 C3777 1.391 . S
C3776 C3778 1.394 . S
C3776 H3792 0.931 . S
C3777 C3776 1.391 . S
C3777 C3781 1.376 . S
C3778 C3776 1.394 . S
C3778 C3779 1.369 . S
C3778 C3782 1.531 . S
C3779 C3778 1.369 . S
C3779 C3780 1.410 . S
C3779 C3787 1.503 . S
C3780 C3779 1.410 . S
C3780 C3781 1.392 . S
C3780 C3783 1.511 . S
C3781 C3777 1.376 . S
C3781 C3780 1.392 . S
C3781 H3793 0.929 . S
C3782 C3778 1.531 . S
C3782 H3794 0.960 . S
C3782 H3795 0.962 . S
C3782 H3796 0.960 . S
C3783 C3780 1.511 . S
C3783 H3797 0.961 . S
C3783 H3798 0.961 . S
C3783 H3799 0.961 . S
C3784 C3785 1.370 . S
C3784 C3786 1.363 . S
C3784 H3800 0.931 . S
C3785 C3784 1.370 . S
C3785 C3789 1.408 . S
C3786 C3784 1.363 . S
C3786 C3787 1.370 . S
C3786 C3790 1.524 . S
C3787 C3779 1.503 . S
C3787 C3786 1.370 . S
C3787 C3788 1.403 . S
C3788 C3787 1.403 . S
C3788 C3789 1.404 . S
C3788 C3791 1.539 . S
C3789 C3785 1.408 . S
C3789 C3788 1.404 . S
C3789 H3801 0.930 . S
C3790 C3786 1.524 . S
C3790 H3802 0.956 . S
C3790 H3803 0.961 . S
C3790 H3804 0.961 . S
C3791 C3788 1.539 . S
C3791 H3805 0.958 . S
C3791 H3806 0.961 . S
C3791 H3807 0.960 . S
H3792 C3776 0.931 . S
H3793 C3781 0.929 . S
H3794 C3782 0.960 . S
H3795 C3782 0.962 . S
H3796 C3782 0.960 . S
H3797 C3783 0.961 . S
H3798 C3783 0.961 . S
H3799 C3783 0.961 . S
H3800 C3784 0.931 . S
H3801 C3789 0.930 . S
H3802 C3790 0.956 . S
H3803 C3790 0.961 . S
H3804 C3790 0.961 . S
H3805 C3791 0.958 . S
H3806 C3791 0.961 . S
H3807 C3791 0.960 . S
C3808 C3809 1.391 . S
C3808 C3810 1.394 . S
C3808 H3824 0.931 . S
C3809 C3808 1.391 . S
C3809 C3813 1.376 . S
C3810 C3808 1.394 . S
C3810 C3811 1.369 . S
C3810 C3814 1.531 . S
C3811 C3810 1.369 . S
C3811 C3812 1.410 . S
C3811 C3819 1.503 . S
C3812 C3811 1.410 . S
C3812 C3813 1.392 . S
C3812 C3815 1.511 . S
C3813 C3809 1.376 . S
C3813 C3812 1.392 . S
C3813 H3825 0.929 . S
C3814 C3810 1.531 . S
C3814 H3826 0.960 . S
C3814 H3827 0.962 . S
C3814 H3828 0.960 . S
C3815 C3812 1.511 . S
C3815 H3829 0.961 . S
C3815 H3830 0.961 . S
C3815 H3831 0.961 . S
C3816 C3817 1.370 . S
C3816 C3818 1.363 . S
C3816 H3832 0.931 . S
C3817 C3816 1.370 . S
C3817 C3821 1.408 . S
C3818 C3816 1.363 . S
C3818 C3819 1.370 . S
C3818 C3822 1.524 . S
C3819 C3811 1.503 . S
C3819 C3818 1.370 . S
C3819 C3820 1.403 . S
C3820 C3819 1.403 . S
C3820 C3821 1.404 . S
C3820 C3823 1.539 . S
C3821 C3817 1.408 . S
C3821 C3820 1.404 . S
C3821 H3833 0.930 . S
C3822 C3818 1.524 . S
C3822 H3834 0.956 . S
C3822 H3835 0.961 . S
C3822 H3836 0.961 . S
C3823 C3820 1.539 . S
C3823 H3837 0.958 . S
C3823 H3838 0.961 . S
C3823 H3839 0.960 . S
H3824 C3808 0.931 . S
H3825 C3813 0.929 . S
H3826 C3814 0.960 . S
H3827 C3814 0.962 . S
H3828 C3814 0.960 . S
H3829 C3815 0.961 . S
H3830 C3815 0.961 . S
H3831 C3815 0.961 . S
H3832 C3816 0.931 . S
H3833 C3821 0.930 . S
H3834 C3822 0.956 . S
H3835 C3822 0.961 . S
H3836 C3822 0.961 . S
H3837 C3823 0.958 . S
H3838 C3823 0.961 . S
H3839 C3823 0.960 . S
C3840 C3841 1.391 . S
C3840 C3842 1.394 . S
C3840 H3856 0.931 . S
C3841 C3840 1.391 . S
C3841 C3845 1.376 . S
C3842 C3840 1.394 . S
C3842 C3843 1.369 . S
C3842 C3846 1.531 1_545 S
C3843 C3842 1.369 . S
C3843 C3844 1.410 . S
C3843 C3851 1.503 1_545 S
C3844 C3843 1.410 . S
C3844 C3845 1.392 . S
C3844 C3847 1.511 . S
C3845 C3841 1.376 . S
C3845 C3844 1.392 . S
C3845 H3857 0.929 . S
C3846 C3842 1.531 1_565 S
C3846 H3858 0.960 . S
C3846 H3859 0.962 1_565 S
C3846 H3860 0.960 1_565 S
C3847 C3844 1.511 . S
C3847 H3861 0.961 . S
C3847 H3862 0.961 . S
C3847 H3863 0.961 . S
C3848 C3849 1.370 . S
C3848 C3850 1.363 . S
C3848 H3864 0.931 . S
C3849 C3848 1.370 . S
C3849 C3853 1.408 . S
C3850 C3848 1.363 . S
C3850 C3851 1.370 . S
C3850 C3854 1.524 1_565 S
C3851 C3843 1.503 1_565 S
C3851 C3850 1.370 . S
C3851 C3852 1.403 . S
C3852 C3851 1.403 . S
C3852 C3853 1.404 . S
C3852 C3855 1.539 . S
C3853 C3849 1.408 . S
C3853 C3852 1.404 . S
C3853 H3865 0.930 . S
C3854 C3850 1.524 1_545 S
C3854 H3866 0.956 . S
C3854 H3867 0.961 . S
C3854 H3868 0.961 . S
C3855 C3852 1.539 . S
C3855 H3869 0.958 . S
C3855 H3870 0.961 . S
C3855 H3871 0.960 . S
H3856 C3840 0.931 . S
H3857 C3845 0.929 . S
H3858 C3846 0.960 . S
H3859 C3846 0.962 1_545 S
H3860 C3846 0.960 1_545 S
H3861 C3847 0.961 . S
H3862 C3847 0.961 . S
H3863 C3847 0.961 . S
H3864 C3848 0.931 . S
H3865 C3853 0.930 . S
H3866 C3854 0.956 . S
H3867 C3854 0.961 . S
H3868 C3854 0.961 . S
H3869 C3855 0.958 . S
H3870 C3855 0.961 . S
H3871 C3855 0.960 . S
C3872 C3873 1.391 . S
C3872 C3874 1.394 . S
C3872 H3888 0.931 . S
C3873 C3872 1.391 . S
C3873 C3877 1.376 . S
C3874 C3872 1.394 . S
C3874 C3875 1.369 . S
C3874 C3878 1.543 . S
C3875 C3874 1.369 . S
C3875 C3876 1.410 . S
C3875 C3883 1.503 . S
C3876 C3875 1.410 . S
C3876 C3877 1.392 . S
C3876 C3879 1.511 . S
C3877 C3873 1.376 . S
C3877 C3876 1.392 . S
C3877 H3889 0.929 . S
C3878 C3874 1.543 . S
C3878 H3890 0.976 . S
C3878 H3891 0.933 1_565 S
C3878 H3892 0.962 . S
C3879 C3876 1.511 . S
C3879 H3893 0.961 . S
C3879 H3894 0.961 . S
C3879 H3895 0.961 . S
C3880 C3881 1.370 . S
C3880 C3882 1.363 . S
C3880 H3896 0.931 1_565 S
C3881 C3880 1.370 . S
C3881 C3885 1.408 . S
C3882 C3880 1.363 . S
C3882 C3883 1.370 . S
C3882 C3886 1.524 1_565 S
C3883 C3875 1.503 . S
C3883 C3882 1.370 . S
C3883 C3884 1.403 . S
C3884 C3883 1.403 . S
C3884 C3885 1.404 . S
C3884 C3887 1.539 . S
C3885 C3881 1.408 . S
C3885 C3884 1.404 . S
C3885 H3897 0.930 . S
C3886 C3882 1.524 1_545 S
C3886 H3898 0.956 . S
C3886 H3899 0.961 . S
C3886 H3900 0.961 . S
C3887 C3884 1.539 . S
C3887 H3901 0.958 . S
C3887 H3902 0.961 . S
C3887 H3903 0.960 . S
H3888 C3872 0.931 . S
H3889 C3877 0.929 . S
H3890 C3878 0.976 . S
H3891 C3878 0.933 1_545 S
H3892 C3878 0.962 . S
H3893 C3879 0.961 . S
H3894 C3879 0.961 . S
H3895 C3879 0.961 . S
H3896 C3880 0.931 1_545 S
H3897 C3885 0.930 . S
H3898 C3886 0.956 . S
H3899 C3886 0.961 . S
H3900 C3886 0.961 . S
H3901 C3887 0.958 . S
H3902 C3887 0.961 . S
H3903 C3887 0.960 . S
C3904 C3905 1.391 . S
C3904 C3906 1.394 . S
C3904 H3920 0.931 . S
C3905 C3904 1.391 . S
C3905 C3909 1.376 . S
C3906 C3904 1.394 . S
C3906 C3907 1.369 . S
C3906 C3910 1.531 1_545 S
C3907 C3906 1.369 . S
C3907 C3908 1.410 . S
C3907 C3915 1.503 1_545 S
C3908 C3907 1.410 . S
C3908 C3909 1.392 . S
C3908 C3911 1.511 . S
C3909 C3905 1.376 . S
C3909 C3908 1.392 . S
C3909 H3921 0.929 . S
C3910 C3906 1.531 1_565 S
C3910 H3922 0.960 . S
C3910 H3923 0.962 . S
C3910 H3924 0.960 . S
C3911 C3908 1.511 . S
C3911 H3925 0.961 . S
C3911 H3926 0.961 . S
C3911 H3927 0.961 . S
C3912 C3913 1.370 . S
C3912 C3914 1.363 . S
C3912 H3928 0.931 . S
C3913 C3912 1.370 . S
C3913 C3917 1.408 . S
C3914 C3912 1.363 . S
C3914 C3915 1.370 . S
C3914 C3918 1.524 1_565 S
C3915 C3907 1.503 1_565 S
C3915 C3914 1.370 . S
C3915 C3916 1.403 . S
C3916 C3915 1.403 . S
C3916 C3917 1.404 . S
C3916 C3919 1.539 . S
C3917 C3913 1.408 . S
C3917 C3916 1.404 . S
C3917 H3929 0.930 . S
C3918 C3914 1.524 1_545 S
C3918 H3930 0.956 . S
C3918 H3931 0.961 . S
C3918 H3932 0.961 . S
C3919 C3916 1.539 . S
C3919 H3933 0.958 . S
C3919 H3934 0.961 . S
C3919 H3935 0.960 . S
H3920 C3904 0.931 . S
H3921 C3909 0.929 . S
H3922 C3910 0.960 . S
H3923 C3910 0.962 . S
H3924 C3910 0.960 . S
H3925 C3911 0.961 . S
H3926 C3911 0.961 . S
H3927 C3911 0.961 . S
H3928 C3912 0.931 . S
H3929 C3917 0.930 . S
H3930 C3918 0.956 . S
H3931 C3918 0.961 . S
H3932 C3918 0.961 . S
H3933 C3919 0.958 . S
H3934 C3919 0.961 . S
H3935 C3919 0.960 . S
C3936 C3937 1.391 . S
C3936 C3938 1.394 1_556 S
C3936 H3952 0.956 . S
C3937 C3936 1.391 . S
C3937 C3941 1.376 . S
C3938 C3936 1.394 1_554 S
C3938 C3939 1.369 1_554 S
C3938 C3942 1.531 . S
C3939 C3938 1.369 1_556 S
C3939 C3940 1.410 . S
C3939 C3947 1.503 1_556 S
C3940 C3939 1.410 . S
C3940 C3941 1.392 . S
C3940 C3943 1.511 1_545 S
C3941 C3937 1.376 . S
C3941 C3940 1.392 . S
C3941 H3953 0.929 1_545 S
C3942 C3938 1.531 . S
C3942 H3954 0.960 . S
C3942 H3955 0.962 . S
C3942 H3956 0.960 . S
C3943 C3940 1.511 1_565 S
C3943 H3957 0.961 . S
C3943 H3958 0.961 . S
C3943 H3959 0.961 . S
C3944 C3945 1.370 . S
C3944 C3946 1.363 . S
C3944 H3960 0.931 . S
C3945 C3944 1.370 . S
C3945 C3949 1.408 1_545 S
C3946 C3944 1.363 . S
C3946 C3947 1.370 . S
C3946 C3950 1.524 1_554 S
C3947 C3939 1.503 1_554 S
C3947 C3946 1.370 . S
C3947 C3948 1.403 1_545 S
C3948 C3947 1.403 1_565 S
C3948 C3949 1.404 . S
C3948 C3951 1.539 . S
C3949 C3945 1.408 1_565 S
C3949 C3948 1.404 . S
C3949 H3961 0.930 . S
C3950 C3946 1.524 1_556 S
C3950 H3962 0.956 . S
C3950 H3963 0.961 . S
C3950 H3964 0.961 . S
C3951 C3948 1.539 . S
C3951 H3965 0.958 . S
C3951 H3966 0.961 . S
C3951 H3967 0.960 . S
H3952 C3936 0.956 . S
H3953 C3941 0.929 1_565 S
H3954 C3942 0.960 . S
H3955 C3942 0.962 . S
H3956 C3942 0.960 . S
H3957 C3943 0.961 . S
H3958 C3943 0.961 . S
H3959 C3943 0.961 . S
H3960 C3944 0.931 . S
H3961 C3949 0.930 . S
H3962 C3950 0.956 . S
H3963 C3950 0.961 . S
H3964 C3950 0.961 . S
H3965 C3951 0.958 . S
H3966 C3951 0.961 . S
H3967 C3951 0.960 . S
C3968 C3969 1.391 . S
C3968 C3970 1.394 . S
C3968 H3984 0.931 . S
C3969 C3968 1.391 . S
C3969 C3973 1.376 . S
C3970 C3968 1.394 . S
C3970 C3971 1.369 . S
C3970 C3974 1.531 1_565 S
C3971 C3970 1.369 . S
C3971 C3972 1.410 . S
C3971 C3979 1.503 1_565 S
C3972 C3971 1.410 . S
C3972 C3973 1.392 . S
C3972 C3975 1.511 . S
C3973 C3969 1.376 . S
C3973 C3972 1.392 . S
C3973 H3985 0.929 . S
C3974 C3970 1.531 1_545 S
C3974 H3986 0.960 . S
C3974 H3987 0.962 . S
C3974 H3988 0.960 . S
C3975 C3972 1.511 . S
C3975 H3989 0.961 . S
C3975 H3990 0.961 . S
C3975 H3991 0.961 . S
C3976 C3977 1.370 . S
C3976 C3978 1.363 . S
C3976 H3992 0.931 . S
C3977 C3976 1.370 . S
C3977 C3981 1.408 . S
C3978 C3976 1.363 . S
C3978 C3979 1.370 . S
C3978 C3982 1.524 1_545 S
C3979 C3971 1.503 1_545 S
C3979 C3978 1.370 . S
C3979 C3980 1.403 . S
C3980 C3979 1.403 . S
C3980 C3981 1.404 . S
C3980 C3983 1.539 . S
C3981 C3977 1.408 . S
C3981 C3980 1.404 . S
C3981 H3993 0.930 . S
C3982 C3978 1.524 1_565 S
C3982 H3994 0.956 . S
C3982 H3995 0.961 . S
C3982 H3996 0.961 . S
C3983 C3980 1.539 . S
C3983 H3997 0.958 . S
C3983 H3998 0.961 . S
C3983 H3999 0.960 . S
H3984 C3968 0.931 . S
H3985 C3973 0.929 . S
H3986 C3974 0.960 . S
H3987 C3974 0.962 . S
H3988 C3974 0.960 . S
H3989 C3975 0.961 . S
H3990 C3975 0.961 . S
H3991 C3975 0.961 . S
H3992 C3976 0.931 . S
H3993 C3981 0.930 . S
H3994 C3982 0.956 . S
H3995 C3982 0.961 . S
H3996 C3982 0.961 . S
H3997 C3983 0.958 . S
H3998 C3983 0.961 . S
H3999 C3983 0.960 . S
C4000 C4001 1.391 . S
C4000 C4002 1.394 . S
C4000 H4016 0.931 . S
C4001 C4000 1.391 . S
C4001 C4005 1.376 1_545 S
C4002 C4000 1.394 . S
C4002 C4003 1.369 . S
C4002 C4006 1.531 . S
C4003 C4002 1.369 . S
C4003 C4004 1.410 1_545 S
C4003 C4011 1.503 . S
C4004 C4003 1.410 1_565 S
C4004 C4005 1.392 . S
C4004 C4007 1.511 . S
C4005 C4001 1.376 1_565 S
C4005 C4004 1.392 . S
C4005 H4017 0.929 . S
C4006 C4002 1.531 . S
C4006 H4018 0.960 . S
C4006 H4019 0.962 . S
C4006 H4020 0.960 . S
C4007 C4004 1.511 . S
C4007 H4021 0.961 . S
C4007 H4022 0.961 . S
C4007 H4023 0.961 . S
C4008 C4009 1.370 . S
C4008 C4010 1.363 . S
C4008 H4024 0.931 . S
C4009 C4008 1.370 . S
C4009 C4013 1.408 . S
C4010 C4008 1.363 . S
C4010 C4011 1.370 . S
C4010 C4014 1.524 . S
C4011 C4003 1.503 . S
C4011 C4010 1.370 . S
C4011 C4012 1.403 . S
C4012 C4011 1.403 . S
C4012 C4013 1.404 . S
C4012 C4015 1.539 . S
C4013 C4009 1.408 . S
C4013 C4012 1.404 . S
C4013 H4025 0.930 . S
C4014 C4010 1.524 . S
C4014 H4026 0.956 . S
C4014 H4027 0.961 . S
C4014 H4028 0.961 . S
C4015 C4012 1.539 . S
C4015 H4029 0.958 . S
C4015 H4030 0.961 1_545 S
C4015 H4031 0.960 1_545 S
H4016 C4000 0.931 . S
H4017 C4005 0.929 . S
H4018 C4006 0.960 . S
H4019 C4006 0.962 . S
H4020 C4006 0.960 . S
H4021 C4007 0.961 . S
H4022 C4007 0.961 . S
H4023 C4007 0.961 . S
H4024 C4008 0.931 . S
H4025 C4013 0.930 . S
H4026 C4014 0.956 . S
H4027 C4014 0.961 . S
H4028 C4014 0.961 . S
H4029 C4015 0.958 . S
H4030 C4015 0.961 1_565 S
H4031 C4015 0.960 1_565 S
C4032 C4033 1.391 . S
C4032 C4034 1.394 . S
C4032 H4048 0.931 . S
C4033 C4032 1.391 . S
C4033 C4037 1.376 . S
C4034 C4032 1.394 . S
C4034 C4035 1.369 . S
C4034 C4038 1.542 . S
C4035 C4034 1.369 . S
C4035 C4036 1.410 . S
C4035 C4043 1.503 1_565 S
C4036 C4035 1.410 . S
C4036 C4037 1.392 . S
C4036 C4039 1.511 . S
C4037 C4033 1.376 . S
C4037 C4036 1.392 . S
C4037 H4049 0.929 . S
C4038 C4034 1.542 . S
C4038 H4050 0.941 1_565 S
C4038 H4051 0.966 . S
C4038 H4052 0.964 . S
C4039 C4036 1.511 . S
C4039 H4053 0.961 . S
C4039 H4054 0.961 . S
C4039 H4055 0.961 . S
C4040 C4041 1.370 . S
C4040 C4042 1.363 . S
C4040 H4056 0.931 . S
C4041 C4040 1.370 . S
C4041 C4045 1.408 . S
C4042 C4040 1.363 . S
C4042 C4043 1.370 . S
C4042 C4046 1.524 1_545 S
C4043 C4035 1.503 1_545 S
C4043 C4042 1.370 . S
C4043 C4044 1.403 . S
C4044 C4043 1.403 . S
C4044 C4045 1.404 . S
C4044 C4047 1.539 . S
C4045 C4041 1.408 . S
C4045 C4044 1.404 . S
C4045 H4057 0.930 . S
C4046 C4042 1.524 1_565 S
C4046 H4058 0.956 . S
C4046 H4059 0.961 . S
C4046 H4060 0.961 . S
C4047 C4044 1.539 . S
C4047 H4061 0.958 . S
C4047 H4062 0.961 . S
C4047 H4063 0.960 . S
H4048 C4032 0.931 . S
H4049 C4037 0.929 . S
H4050 C4038 0.941 1_545 S
H4051 C4038 0.966 . S
H4052 C4038 0.964 . S
H4053 C4039 0.961 . S
H4054 C4039 0.961 . S
H4055 C4039 0.961 . S
H4056 C4040 0.931 . S
H4057 C4045 0.930 . S
H4058 C4046 0.956 . S
H4059 C4046 0.961 . S
H4060 C4046 0.961 . S
H4061 C4047 0.958 . S
H4062 C4047 0.961 . S
H4063 C4047 0.960 . S
C4064 C4065 1.391 . S
C4064 C4066 1.414 . S
C4064 H4080 0.931 . S
C4065 C4064 1.391 . S
C4065 C4069 1.376 . S
C4066 C4064 1.414 . S
C4066 C4067 1.384 . S
C4066 C4070 1.495 1_554 S
C4067 C4066 1.384 . S
C4067 C4068 1.410 . S
C4067 C4075 1.503 1_554 S
C4068 C4067 1.410 . S
C4068 C4069 1.392 . S
C4068 C4071 1.511 1_565 S
C4069 C4065 1.376 . S
C4069 C4068 1.392 . S
C4069 H4081 0.929 1_565 S
C4070 C4066 1.495 1_556 S
C4070 H4082 0.960 . S
C4070 H4083 0.962 . S
C4070 H4084 0.960 . S
C4071 C4068 1.511 1_545 S
C4071 H4085 0.961 . S
C4071 H4086 0.961 . S
C4071 H4087 0.961 1_545 S
C4072 C4073 1.370 . S
C4072 C4074 1.363 . S
C4072 H4088 0.931 1_565 S
C4073 C4072 1.370 . S
C4073 C4077 1.408 . S
C4074 C4072 1.363 . S
C4074 C4075 1.370 . S
C4074 C4078 1.524 1_565 S
C4075 C4067 1.503 1_556 S
C4075 C4074 1.370 . S
C4075 C4076 1.403 . S
C4076 C4075 1.403 . S
C4076 C4077 1.404 . S
C4076 C4079 1.538 1_556 S
C4077 C4073 1.408 . S
C4077 C4076 1.404 . S
C4077 H4089 0.930 . S
C4078 C4074 1.524 1_545 S
C4078 H4090 0.956 . S
C4078 H4091 0.961 . S
C4078 H4092 0.961 . S
C4079 C4076 1.538 1_554 S
C4079 H4093 0.958 . S
C4079 H4094 0.961 . S
C4079 H4095 0.960 . S
H4080 C4064 0.931 . S
H4081 C4069 0.929 1_545 S
H4082 C4070 0.960 . S
H4083 C4070 0.962 . S
H4084 C4070 0.960 . S
H4085 C4071 0.961 . S
H4086 C4071 0.961 . S
H4087 C4071 0.961 1_565 S
H4088 C4072 0.931 1_545 S
H4089 C4077 0.930 . S
H4090 C4078 0.956 . S
H4091 C4078 0.961 . S
H4092 C4078 0.961 . S
H4093 C4079 0.958 . S
H4094 C4079 0.961 . S
H4095 C4079 0.960 . S
C4096 C4097 1.391 . S
C4096 C4098 1.394 . S
C4096 H4112 0.931 . S
C4097 C4096 1.391 . S
C4097 C4101 1.376 . S
C4098 C4096 1.394 . S
C4098 C4099 1.369 . S
C4098 C4102 1.531 . S
C4099 C4098 1.369 . S
C4099 C4100 1.410 . S
C4099 C4107 1.503 . S
C4100 C4099 1.410 . S
C4100 C4101 1.392 . S
C4100 C4103 1.511 . S
C4101 C4097 1.376 . S
C4101 C4100 1.392 . S
C4101 H4113 0.929 . S
C4102 C4098 1.531 . S
C4102 H4114 0.960 . S
C4102 H4115 0.962 . S
C4102 H4116 0.960 . S
C4103 C4100 1.511 . S
C4103 H4117 0.961 . S
C4103 H4118 0.961 . S
C4103 H4119 0.961 . S
C4104 C4105 1.370 . S
C4104 C4106 1.363 . S
C4104 H4120 0.931 . S
C4105 C4104 1.370 . S
C4105 C4109 1.408 . S
C4106 C4104 1.363 . S
C4106 C4107 1.370 . S
C4106 C4110 1.524 . S
C4107 C4099 1.503 . S
C4107 C4106 1.370 . S
C4107 C4108 1.403 . S
C4108 C4107 1.403 . S
C4108 C4109 1.404 . S
C4108 C4111 1.539 . S
C4109 C4105 1.408 . S
C4109 C4108 1.404 . S
C4109 H4121 0.930 . S
C4110 C4106 1.524 . S
C4110 H4122 0.956 . S
C4110 H4123 0.961 . S
C4110 H4124 0.961 . S
C4111 C4108 1.539 . S
C4111 H4125 0.958 . S
C4111 H4126 0.961 . S
C4111 H4127 0.960 . S
H4112 C4096 0.931 . S
H4113 C4101 0.929 . S
H4114 C4102 0.960 . S
H4115 C4102 0.962 . S
H4116 C4102 0.960 . S
H4117 C4103 0.961 . S
H4118 C4103 0.961 . S
H4119 C4103 0.961 . S
H4120 C4104 0.931 . S
H4121 C4109 0.930 . S
H4122 C4110 0.956 . S
H4123 C4110 0.961 . S
H4124 C4110 0.961 . S
H4125 C4111 0.958 . S
H4126 C4111 0.961 . S
H4127 C4111 0.960 . S
C4128 C4129 1.391 . S
C4128 C4130 1.394 1_556 S
C4128 H4144 0.915 1_556 S
C4129 C4128 1.391 . S
C4129 C4133 1.376 . S
C4130 C4128 1.394 1_554 S
C4130 C4131 1.369 1_554 S
C4130 C4134 1.531 . S
C4131 C4130 1.369 1_556 S
C4131 C4132 1.410 . S
C4131 C4139 1.503 1_556 S
C4132 C4131 1.410 . S
C4132 C4133 1.392 . S
C4132 C4135 1.511 . S
C4133 C4129 1.376 . S
C4133 C4132 1.392 . S
C4133 H4145 0.929 . S
C4134 C4130 1.531 . S
C4134 H4146 0.960 . S
C4134 H4147 0.962 . S
C4134 H4148 0.960 . S
C4135 C4132 1.511 . S
C4135 H4149 0.961 . S
C4135 H4150 0.961 . S
C4135 H4151 0.961 . S
C4136 C4137 1.370 . S
C4136 C4138 1.363 . S
C4136 H4152 0.931 . S
C4137 C4136 1.370 . S
C4137 C4141 1.408 . S
C4138 C4136 1.363 . S
C4138 C4139 1.370 . S
C4138 C4142 1.524 1_554 S
C4139 C4131 1.503 1_554 S
C4139 C4138 1.370 . S
C4139 C4140 1.403 . S
C4140 C4139 1.403 . S
C4140 C4141 1.404 . S
C4140 C4143 1.539 . S
C4141 C4137 1.408 . S
C4141 C4140 1.404 . S
C4141 H4153 0.930 . S
C4142 C4138 1.524 1_556 S
C4142 H4154 0.965 . S
C4142 H4155 0.961 . S
C4142 H4156 0.961 . S
C4143 C4140 1.539 . S
C4143 H4157 0.958 . S
C4143 H4158 0.961 . S
C4143 H4159 0.960 . S
H4144 C4128 0.915 1_554 S
H4145 C4133 0.929 . S
H4146 C4134 0.960 . S
H4147 C4134 0.962 . S
H4148 C4134 0.960 . S
H4149 C4135 0.961 . S
H4150 C4135 0.961 . S
H4151 C4135 0.961 . S
H4152 C4136 0.931 . S
H4153 C4141 0.930 . S
H4154 C4142 0.965 . S
H4155 C4142 0.961 . S
H4156 C4142 0.961 . S
H4157 C4143 0.958 . S
H4158 C4143 0.961 . S
H4159 C4143 0.960 . S
C4160 C4161 1.391 . S
C4160 C4162 1.394 . S
C4160 H4176 0.931 . S
C4161 C4160 1.391 . S
C4161 C4165 1.376 . S
C4162 C4160 1.394 . S
C4162 C4163 1.369 . S
C4162 C4166 1.531 . S
C4163 C4162 1.369 . S
C4163 C4164 1.410 . S
C4163 C4171 1.503 . S
C4164 C4163 1.410 . S
C4164 C4165 1.392 . S
C4164 C4167 1.511 . S
C4165 C4161 1.376 . S
C4165 C4164 1.392 . S
C4165 H4177 0.929 . S
C4166 C4162 1.531 . S
C4166 H4178 0.960 . S
C4166 H4179 0.962 . S
C4166 H4180 0.960 . S
C4167 C4164 1.511 . S
C4167 H4181 0.961 . S
C4167 H4182 0.961 . S
C4167 H4183 0.961 . S
C4168 C4169 1.370 . S
C4168 C4170 1.363 . S
C4168 H4184 0.931 . S
C4169 C4168 1.370 . S
C4169 C4173 1.408 . S
C4170 C4168 1.363 . S
C4170 C4171 1.370 . S
C4170 C4174 1.524 . S
C4171 C4163 1.503 . S
C4171 C4170 1.370 . S
C4171 C4172 1.403 . S
C4172 C4171 1.403 . S
C4172 C4173 1.404 . S
C4172 C4175 1.539 . S
C4173 C4169 1.408 . S
C4173 C4172 1.404 . S
C4173 H4185 0.930 . S
C4174 C4170 1.524 . S
C4174 H4186 0.956 . S
C4174 H4187 0.961 . S
C4174 H4188 0.961 . S
C4175 C4172 1.539 . S
C4175 H4189 0.958 . S
C4175 H4190 0.961 . S
C4175 H4191 0.960 . S
H4176 C4160 0.931 . S
H4177 C4165 0.929 . S
H4178 C4166 0.960 . S
H4179 C4166 0.962 . S
H4180 C4166 0.960 . S
H4181 C4167 0.961 . S
H4182 C4167 0.961 . S
H4183 C4167 0.961 . S
H4184 C4168 0.931 . S
H4185 C4173 0.930 . S
H4186 C4174 0.956 . S
H4187 C4174 0.961 . S
H4188 C4174 0.961 . S
H4189 C4175 0.958 . S
H4190 C4175 0.961 . S
H4191 C4175 0.960 . S
C4192 C4193 1.391 . S
C4192 C4194 1.394 . S
C4192 H4208 0.931 . S
C4193 C4192 1.391 . S
C4193 C4197 1.376 . S
C4194 C4192 1.394 . S
C4194 C4195 1.369 . S
C4194 C4198 1.531 . S
C4195 C4194 1.369 . S
C4195 C4196 1.410 . S
C4195 C4203 1.503 . S
C4196 C4195 1.410 . S
C4196 C4197 1.392 . S
C4196 C4199 1.511 . S
C4197 C4193 1.376 . S
C4197 C4196 1.392 . S
C4197 H4209 0.929 . S
C4198 C4194 1.531 . S
C4198 H4210 0.960 . S
C4198 H4211 0.962 . S
C4198 H4212 0.960 . S
C4199 C4196 1.511 . S
C4199 H4213 0.961 . S
C4199 H4214 0.961 . S
C4199 H4215 0.961 . S
C4200 C4201 1.370 . S
C4200 C4202 1.363 . S
C4200 H4216 0.931 . S
C4201 C4200 1.370 . S
C4201 C4205 1.408 . S
C4202 C4200 1.363 . S
C4202 C4203 1.370 . S
C4202 C4206 1.524 . S
C4203 C4195 1.503 . S
C4203 C4202 1.370 . S
C4203 C4204 1.403 . S
C4204 C4203 1.403 . S
C4204 C4205 1.404 . S
C4204 C4207 1.539 . S
C4205 C4201 1.408 . S
C4205 C4204 1.404 . S
C4205 H4217 0.930 . S
C4206 C4202 1.524 . S
C4206 H4218 0.956 . S
C4206 H4219 0.961 . S
C4206 H4220 0.961 . S
C4207 C4204 1.539 . S
C4207 H4221 0.958 . S
C4207 H4222 0.961 . S
C4207 H4223 0.960 . S
H4208 C4192 0.931 . S
H4209 C4197 0.929 . S
H4210 C4198 0.960 . S
H4211 C4198 0.962 . S
H4212 C4198 0.960 . S
H4213 C4199 0.961 . S
H4214 C4199 0.961 . S
H4215 C4199 0.961 . S
H4216 C4200 0.931 . S
H4217 C4205 0.930 . S
H4218 C4206 0.956 . S
H4219 C4206 0.961 . S
H4220 C4206 0.961 . S
H4221 C4207 0.958 . S
H4222 C4207 0.961 . S
H4223 C4207 0.960 . S
C4224 C4225 1.391 . S
C4224 C4226 1.394 . S
C4224 H4240 0.931 . S
C4225 C4224 1.391 . S
C4225 C4229 1.376 . S
C4226 C4224 1.394 . S
C4226 C4227 1.369 . S
C4226 C4230 1.531 . S
C4227 C4226 1.369 . S
C4227 C4228 1.410 . S
C4227 C4235 1.503 . S
C4228 C4227 1.410 . S
C4228 C4229 1.392 . S
C4228 C4231 1.511 . S
C4229 C4225 1.376 . S
C4229 C4228 1.392 . S
C4229 H4241 0.929 . S
C4230 C4226 1.531 . S
C4230 H4242 0.960 . S
C4230 H4243 0.962 . S
C4230 H4244 0.960 . S
C4231 C4228 1.511 . S
C4231 H4245 0.961 . S
C4231 H4246 0.961 . S
C4231 H4247 0.961 . S
C4232 C4233 1.370 . S
C4232 C4234 1.363 . S
C4232 H4248 0.931 . S
C4233 C4232 1.370 . S
C4233 C4237 1.408 . S
C4234 C4232 1.363 . S
C4234 C4235 1.370 . S
C4234 C4238 1.524 . S
C4235 C4227 1.503 . S
C4235 C4234 1.370 . S
C4235 C4236 1.403 . S
C4236 C4235 1.403 . S
C4236 C4237 1.404 . S
C4236 C4239 1.539 . S
C4237 C4233 1.408 . S
C4237 C4236 1.404 . S
C4237 H4249 0.930 . S
C4238 C4234 1.524 . S
C4238 H4250 0.956 . S
C4238 H4251 0.961 . S
C4238 H4252 0.961 . S
C4239 C4236 1.539 . S
C4239 H4253 0.958 . S
C4239 H4254 0.961 . S
C4239 H4255 0.960 . S
H4240 C4224 0.931 . S
H4241 C4229 0.929 . S
H4242 C4230 0.960 . S
H4243 C4230 0.962 . S
H4244 C4230 0.960 . S
H4245 C4231 0.961 . S
H4246 C4231 0.961 . S
H4247 C4231 0.961 . S
H4248 C4232 0.931 . S
H4249 C4237 0.930 . S
H4250 C4238 0.956 . S
H4251 C4238 0.961 . S
H4252 C4238 0.961 . S
H4253 C4239 0.958 . S
H4254 C4239 0.961 . S
H4255 C4239 0.960 . S
C4256 C4257 1.391 . S
C4256 C4258 1.394 1_556 S
C4256 H4272 0.922 1_556 S
C4257 C4256 1.391 . S
C4257 C4261 1.376 . S
C4258 C4256 1.394 1_554 S
C4258 C4259 1.369 1_554 S
C4258 C4262 1.531 . S
C4259 C4258 1.369 1_556 S
C4259 C4260 1.410 . S
C4259 C4267 1.503 1_556 S
C4260 C4259 1.410 . S
C4260 C4261 1.392 . S
C4260 C4263 1.511 . S
C4261 C4257 1.376 . S
C4261 C4260 1.392 . S
C4261 H4273 0.929 . S
C4262 C4258 1.531 . S
C4262 H4274 0.960 . S
C4262 H4275 0.962 . S
C4262 H4276 0.960 . S
C4263 C4260 1.511 . S
C4263 H4277 0.961 . S
C4263 H4278 0.961 . S
C4263 H4279 0.961 . S
C4264 C4265 1.370 . S
C4264 C4266 1.363 . S
C4264 H4280 0.931 . S
C4265 C4264 1.370 . S
C4265 C4269 1.408 . S
C4266 C4264 1.363 . S
C4266 C4267 1.370 . S
C4266 C4270 1.524 . S
C4267 C4259 1.503 1_554 S
C4267 C4266 1.370 . S
C4267 C4268 1.403 . S
C4268 C4267 1.403 . S
C4268 C4269 1.404 . S
C4268 C4271 1.539 1_554 S
C4269 C4265 1.408 . S
C4269 C4268 1.404 . S
C4269 H4281 0.930 . S
C4270 C4266 1.524 . S
C4270 H4282 0.956 . S
C4270 H4283 0.961 1_554 S
C4270 H4284 0.961 . S
C4271 C4268 1.539 1_556 S
C4271 H4285 0.958 1_556 S
C4271 H4286 0.961 . S
C4271 H4287 0.960 . S
H4272 C4256 0.922 1_554 S
H4273 C4261 0.929 . S
H4274 C4262 0.960 . S
H4275 C4262 0.962 . S
H4276 C4262 0.960 . S
H4277 C4263 0.961 . S
H4278 C4263 0.961 . S
H4279 C4263 0.961 . S
H4280 C4264 0.931 . S
H4281 C4269 0.930 . S
H4282 C4270 0.956 . S
H4283 C4270 0.961 1_556 S
H4284 C4270 0.961 . S
H4285 C4271 0.958 1_554 S
H4286 C4271 0.961 . S
H4287 C4271 0.960 . S
C4288 C4289 1.391 . S
C4288 C4290 1.394 . S
C4288 H4304 0.931 . S
C4289 C4288 1.391 . S
C4289 C4293 1.376 . S
C4290 C4288 1.394 . S
C4290 C4291 1.369 . S
C4290 C4294 1.531 . S
C4291 C4290 1.369 . S
C4291 C4292 1.410 . S
C4291 C4299 1.503 . S
C4292 C4291 1.410 . S
C4292 C4293 1.392 . S
C4292 C4295 1.511 . S
C4293 C4289 1.376 . S
C4293 C4292 1.392 . S
C4293 H4305 0.929 . S
C4294 C4290 1.531 . S
C4294 H4306 0.960 . S
C4294 H4307 0.962 . S
C4294 H4308 0.960 . S
C4295 C4292 1.511 . S
C4295 H4309 0.961 . S
C4295 H4310 0.961 . S
C4295 H4311 0.961 . S
C4296 C4297 1.370 . S
C4296 C4298 1.363 . S
C4296 H4312 0.931 . S
C4297 C4296 1.370 . S
C4297 C4301 1.408 . S
C4298 C4296 1.363 . S
C4298 C4299 1.370 . S
C4298 C4302 1.524 . S
C4299 C4291 1.503 . S
C4299 C4298 1.370 . S
C4299 C4300 1.403 . S
C4300 C4299 1.403 . S
C4300 C4301 1.404 . S
C4300 C4303 1.539 . S
C4301 C4297 1.408 . S
C4301 C4300 1.404 . S
C4301 H4313 0.930 . S
C4302 C4298 1.524 . S
C4302 H4314 0.956 . S
C4302 H4315 0.961 . S
C4302 H4316 0.961 . S
C4303 C4300 1.539 . S
C4303 H4317 0.958 . S
C4303 H4318 0.961 . S
C4303 H4319 0.960 . S
H4304 C4288 0.931 . S
H4305 C4293 0.929 . S
H4306 C4294 0.960 . S
H4307 C4294 0.962 . S
H4308 C4294 0.960 . S
H4309 C4295 0.961 . S
H4310 C4295 0.961 . S
H4311 C4295 0.961 . S
H4312 C4296 0.931 . S
H4313 C4301 0.930 . S
H4314 C4302 0.956 . S
H4315 C4302 0.961 . S
H4316 C4302 0.961 . S
H4317 C4303 0.958 . S
H4318 C4303 0.961 . S
H4319 C4303 0.960 . S
C4320 C4321 1.391 . S
C4320 C4322 1.394 . S
C4320 H4336 0.931 . S
C4321 C4320 1.391 . S
C4321 C4325 1.376 . S
C4322 C4320 1.394 . S
C4322 C4323 1.369 . S
C4322 C4326 1.531 . S
C4323 C4322 1.369 . S
C4323 C4324 1.410 . S
C4323 C4331 1.503 . S
C4324 C4323 1.410 . S
C4324 C4325 1.392 . S
C4324 C4327 1.511 . S
C4325 C4321 1.376 . S
C4325 C4324 1.392 . S
C4325 H4337 0.929 . S
C4326 C4322 1.531 . S
C4326 H4338 0.960 . S
C4326 H4339 0.962 . S
C4326 H4340 0.960 . S
C4327 C4324 1.511 . S
C4327 H4341 0.961 . S
C4327 H4342 0.961 . S
C4327 H4343 0.961 . S
C4328 C4329 1.370 . S
C4328 C4330 1.363 . S
C4328 H4344 0.931 . S
C4329 C4328 1.370 . S
C4329 C4333 1.408 . S
C4330 C4328 1.363 . S
C4330 C4331 1.370 . S
C4330 C4334 1.524 . S
C4331 C4323 1.503 . S
C4331 C4330 1.370 . S
C4331 C4332 1.403 . S
C4332 C4331 1.403 . S
C4332 C4333 1.404 . S
C4332 C4335 1.539 . S
C4333 C4329 1.408 . S
C4333 C4332 1.404 . S
C4333 H4345 0.930 . S
C4334 C4330 1.524 . S
C4334 H4346 0.956 . S
C4334 H4347 0.961 . S
C4334 H4348 0.961 . S
C4335 C4332 1.539 . S
C4335 H4349 0.958 . S
C4335 H4350 0.961 . S
C4335 H4351 0.960 . S
H4336 C4320 0.931 . S
H4337 C4325 0.929 . S
H4338 C4326 0.960 . S
H4339 C4326 0.962 . S
H4340 C4326 0.960 . S
H4341 C4327 0.961 . S
H4342 C4327 0.961 . S
H4343 C4327 0.961 . S
H4344 C4328 0.931 . S
H4345 C4333 0.930 . S
H4346 C4334 0.956 . S
H4347 C4334 0.961 . S
H4348 C4334 0.961 . S
H4349 C4335 0.958 . S
H4350 C4335 0.961 . S
H4351 C4335 0.960 . S
C1281 C6 0.605 . S
C1289 C1099 0.513 . S
C1313 C46 0.441 . S
C1321 C339 0.590 . S
C1345 C86 0.553 . S
C1353 C1019 0.532 . S
C1377 C419 0.443 . S
C1385 C126 0.545 . S
C1409 C166 0.576 . S
C1417 C1179 0.531 . S
C1441 C579 0.499 . S
C1449 C206 0.524 . S
C1473 C1259 0.486 . S
C1481 C246 0.529 . S
C1505 C286 0.595 . S
C1513 C499 0.512 . S
C1537 C335 0.467 . S
C1545 C770 0.584 . S
C1569 C375 0.611 . S
C1577 C10 0.509 . S
C1601 C690 0.571 . S
C1609 C415 0.493 . S
C1633 C90 0.459 . S
C1641 C455 0.546 . S
C1665 C495 0.612 . S
C1673 C850 0.506 . S
C1697 C535 0.577 . S
C1705 C250 0.534 . S
C1729 C575 0.609 . S
C1737 C930 0.512 . S
C1761 C170 0.452 . S
C1769 C615 0.539 . S
C1793 C459 0.628 . S
C1801 C646 0.472 . S
C1825 C979 0.506 . S
C1833 C686 0.522 . S
C1857 C379 0.648 . S
C1865 C726 0.471 . S
C1889 C766 0.391 . S
C1897 C1059 0.603 . S
C1921 C539 0.564 . S
C1929 C806 0.511 . S
C1953 C1219 0.583 . S
C1961 C846 0.491 . S
C1985 C619 0.621 . S
C1993 C886 0.486 . S
C2017 C926 0.390 . S
C2025 C1139 0.601 . S
C2049 C975 0.530 . S
C2057 C130 0.539 . S
C2081 C1015 0.588 . S
C2089 C650 0.513 . S
C2113 C1055 0.464 . S
C2121 C50 0.585 . S
C2145 C1095 0.392 . S
C2153 C730 0.599 . S
C2177 C210 0.436 . S
C2185 C1135 0.548 . S
C2209 C890 0.481 . S
C2217 C1175 0.541 . S
C2241 C1215 0.531 . S
C2249 C290 0.539 . S
C2273 C1255 0.436 . S
C2281 C810 0.580 . S
C2305 C18 2.660 . S
C2313 C738 2.655 . S
C2337 C778 2.642 . S
C2345 C58 2.663 . S
C2369 C98 2.668 . S
C2377 C658 2.646 . S
C2401 C138 2.633 . S
C2409 C698 2.659 . S
C2433 C898 2.628 . S
C2441 C178 2.662 . S
C2465 C218 2.669 . S
C2473 C938 2.651 . S
C2497 C818 2.656 . S
C2505 C258 2.649 . S
C2529 C298 2.672 . S
C2537 C858 2.646 . S
C2561 C1049 2.640 . S
C2569 C329 2.658 . S
C2593 C369 2.659 . S
C2601 C1089 2.651 . S
C2625 C409 2.664 . S
C2633 C969 2.650 . S
C2657 C449 2.627 . S
C2665 C1009 2.665 . S
C2689 C1209 2.633 . S
C2697 C489 2.663 . S
C2721 C1249 2.647 . S
C2729 C529 2.658 . S
C2753 C569 2.642 . S
C2761 C1129 2.659 . S
C2785 C609 2.628 . S
C2793 C1169 2.665 . S
C2817 C19 3.259 . S
C2825 C970 3.280 . S
C2849 C370 3.282 . S
C2857 C59 3.270 . S
C2881 C99 3.274 . S
C2889 C1050 3.272 . S
C2913 C139 3.268 . S
C2921 C450 3.276 . S
C2945 C1130 3.275 . S
C2953 C179 3.271 . S
C2977 C530 3.280 . S
C2985 C219 3.271 . S
C3009 C259 3.254 . S
C3017 C1210 3.281 . S
C3041 C299 3.284 . S
C3049 C610 3.269 . S
C3073 C659 3.262 . S
C3081 C330 3.279 . S
C3105 C739 3.282 . S
C3113 C410 3.269 . S
C3137 C819 3.265 . S
C3145 C490 3.278 . S
C3169 C570 3.265 . S
C3177 C899 3.275 . S
C3201 C699 3.255 . S
C3209 C1010 3.280 . S
C3233 C779 3.254 . S
C3241 C1090 3.281 . S
C3265 C1170 3.274 . S
C3273 C859 3.274 . S
C3297 C1250 3.280 . S
C3305 C939 3.271 . S
C3329 C9 4.596 . S
C3337 C209 4.584 . S
C3361 C249 4.595 . S
C3369 C49 4.584 . S
C3393 C289 4.580 . S
C3401 C89 4.590 . S
C3425 C169 4.590 . S
C3433 C129 4.586 . S
C3457 C338 4.578 . S
C3465 C538 4.588 . S
C3489 C378 4.571 . S
C3497 C578 4.595 . S
C3521 C618 4.570 . S
C3529 C418 4.594 . S
C3553 C458 4.573 . S
C3561 C498 4.594 . S
C3585 C649 4.596 . S
C3593 C849 4.584 . S
C3617 C689 4.584 . S
C3625 C889 4.588 . S
C3649 C729 4.569 . S
C3657 C929 4.594 . S
C3681 C809 4.570 . S
C3689 C769 4.594 . S
C3713 C978 4.593 . S
C3721 C1178 4.586 . S
C3745 C1018 4.596 . S
C3753 C1218 4.584 . S
C3777 C1258 4.588 . S
C3785 C1058 4.589 . S
C3809 C1098 4.595 . S
C3817 C1138 4.583 . S
C3841 C15 0.615 . S
C3849 C175 0.685 . S
C3873 C55 0.627 . S
C3881 C215 0.671 . S
C3905 C255 0.616 . S
C3913 C95 0.682 . S
C3937 C295 0.719 . S
C3945 C135 0.673 . S
C3969 C326 0.647 . S
C3977 C486 0.694 . S
C4001 C526 0.632 . S
C4009 C366 0.696 . S
C4033 C566 0.632 . S
C4041 C406 0.696 . S
C4065 C606 0.622 . S
C4073 C446 0.682 . S
C4097 C655 0.620 . S
C4105 C815 0.692 . S
C4129 C855 0.713 . S
C4137 C695 0.678 . S
C4161 C735 0.729 . S
C4169 C895 0.662 . S
C4193 C935 0.712 . S
C4201 C775 0.678 . S
C4225 C1126 0.714 . S
C4233 C966 0.648 . S
C4257 C1006 0.639 . S
C4265 C1166 0.672 . S
C4289 C1046 0.698 . S
C4297 C1206 0.651 . S
C4321 C1086 0.615 . S
C4329 C1246 0.690 . S
