# Generated by pormake.
# Topology wkl, (6)-cn, num edge types: 1
# Building blocks:
#     Node 0, Type 0, BuildingBlock: IZENUY_clean_sbu_0, # of connection points: 6
#     Node 1, Type 0, BuildingBlock: IZENUY_clean_sbu_0, # of connection points: 6
#     Node 2, Type 0, BuildingBlock: IZENUY_clean_sbu_0, # of connection points: 6
#     Node 3, Type 0, BuildingBlock: IZENUY_clean_sbu_0, # of connection points: 6
#     Node 4, Type 0, BuildingBlock: IZENUY_clean_sbu_0, # of connection points: 6
#     Node 5, Type 0, BuildingBlock: IZENUY_clean_sbu_0, # of connection points: 6
#     Node 6, Type 0, BuildingBlock: IZENUY_clean_sbu_0, # of connection points: 6
#     Node 7, Type 0, BuildingBlock: IZENUY_clean_sbu_0, # of connection points: 6
#     Node 8, Type 0, BuildingBlock: IZENUY_clean_sbu_0, # of connection points: 6
#     Node 9, Type 0, BuildingBlock: IZENUY_clean_sbu_0, # of connection points: 6
#     Node 10, Type 0, BuildingBlock: IZENUY_clean_sbu_0, # of connection points: 6
#     Node 11, Type 0, BuildingBlock: IZENUY_clean_sbu_0, # of connection points: 6
#     Edge 12, Type (0, 0), BuildingBlock: EZIPEK_clean_linker_0, # of connection points: 2
#     Edge 13, Type (0, 0), BuildingBlock: EZIPEK_clean_linker_0, # of connection points: 2
#     Edge 14, Type (0, 0), BuildingBlock: EZIPEK_clean_linker_0, # of connection points: 2
#     Edge 15, Type (0, 0), BuildingBlock: EZIPEK_clean_linker_0, # of connection points: 2
#     Edge 16, Type (0, 0), BuildingBlock: EZIPEK_clean_linker_0, # of connection points: 2
#     Edge 17, Type (0, 0), BuildingBlock: EZIPEK_clean_linker_0, # of connection points: 2
#     Edge 18, Type (0, 0), BuildingBlock: EZIPEK_clean_linker_0, # of connection points: 2
#     Edge 19, Type (0, 0), BuildingBlock: EZIPEK_clean_linker_0, # of connection points: 2
#     Edge 20, Type (0, 0), BuildingBlock: EZIPEK_clean_linker_0, # of connection points: 2
#     Edge 21, Type (0, 0), BuildingBlock: EZIPEK_clean_linker_0, # of connection points: 2
#     Edge 22, Type (0, 0), BuildingBlock: EZIPEK_clean_linker_0, # of connection points: 2
#     Edge 23, Type (0, 0), BuildingBlock: EZIPEK_clean_linker_0, # of connection points: 2
#     Edge 24, Type (0, 0), BuildingBlock: EZIPEK_clean_linker_0, # of connection points: 2
#     Edge 25, Type (0, 0), BuildingBlock: EZIPEK_clean_linker_0, # of connection points: 2
#     Edge 26, Type (0, 0), BuildingBlock: EZIPEK_clean_linker_0, # of connection points: 2
#     Edge 27, Type (0, 0), BuildingBlock: EZIPEK_clean_linker_0, # of connection points: 2
#     Edge 28, Type (0, 0), BuildingBlock: EZIPEK_clean_linker_0, # of connection points: 2
#     Edge 29, Type (0, 0), BuildingBlock: EZIPEK_clean_linker_0, # of connection points: 2
#     Edge 30, Type (0, 0), BuildingBlock: EZIPEK_clean_linker_0, # of connection points: 2
#     Edge 31, Type (0, 0), BuildingBlock: EZIPEK_clean_linker_0, # of connection points: 2
#     Edge 32, Type (0, 0), BuildingBlock: EZIPEK_clean_linker_0, # of connection points: 2
#     Edge 33, Type (0, 0), BuildingBlock: EZIPEK_clean_linker_0, # of connection points: 2
#     Edge 34, Type (0, 0), BuildingBlock: EZIPEK_clean_linker_0, # of connection points: 2
#     Edge 35, Type (0, 0), BuildingBlock: EZIPEK_clean_linker_0, # of connection points: 2
#     Edge 36, Type (0, 0), BuildingBlock: EZIPEK_clean_linker_0, # of connection points: 2
#     Edge 37, Type (0, 0), BuildingBlock: EZIPEK_clean_linker_0, # of connection points: 2
#     Edge 38, Type (0, 0), BuildingBlock: EZIPEK_clean_linker_0, # of connection points: 2
#     Edge 39, Type (0, 0), BuildingBlock: EZIPEK_clean_linker_0, # of connection points: 2
#     Edge 40, Type (0, 0), BuildingBlock: EZIPEK_clean_linker_0, # of connection points: 2
#     Edge 41, Type (0, 0), BuildingBlock: EZIPEK_clean_linker_0, # of connection points: 2
#     Edge 42, Type (0, 0), BuildingBlock: EZIPEK_clean_linker_0, # of connection points: 2
#     Edge 43, Type (0, 0), BuildingBlock: EZIPEK_clean_linker_0, # of connection points: 2
#     Edge 44, Type (0, 0), BuildingBlock: EZIPEK_clean_linker_0, # of connection points: 2
#     Edge 45, Type (0, 0), BuildingBlock: EZIPEK_clean_linker_0, # of connection points: 2
#     Edge 46, Type (0, 0), BuildingBlock: EZIPEK_clean_linker_0, # of connection points: 2
#     Edge 47, Type (0, 0), BuildingBlock: EZIPEK_clean_linker_0, # of connection points: 2
# Relax obj value: 0.387
# Max RMSD: 0.287
# Mean RMSD: 0.287
data_MOF--net-wkl--node1-IZENUY_clean_sbu_0--edge1-EZIPEK_clean_linker_0
_symmetry_space_group_name_H-M    P1
_symmetry_Int_Tables_number       1
_symmetry_cell_setting            triclinic
loop_
_symmetry_equiv_pos_as_xyz
'x, y, z'
_cell_length_a     53.291889
_cell_length_b     53.378984
_cell_length_c     11.133037
_cell_angle_alpha  90.071502
_cell_angle_beta   90.10777
_cell_angle_gamma 120.091
loop_
_atom_site_label
_atom_site_type_symbol
_atom_site_fract_x
_atom_site_fract_y
_atom_site_fract_z
_atom_type_partial_charge
Fe0 Fe 0.48699 0.10761 0.15304 0.0
Fe1 Fe 0.49998 0.15732 0.98093 0.0
O2 O 0.4752 0.12849 0.0727 0.0
Fe3 Fe 0.43853 0.11992 0.07912 0.0
O4 O 0.44069 0.12564 0.24198 0.0
O5 O 0.46235 0.10083 0.28265 0.0
O6 O 0.51416 0.13896 0.23519 0.0
C7 C 0.5347 0.1609 0.18562 0.0
C8 C 0.43389 0.06426 0.07551 0.0
O9 O 0.53188 0.16667 0.07769 0.0
C10 C 0.45052 0.13007 0.83615 0.0
O11 O 0.51414 0.11125 0.03891 0.0
O12 O 0.50577 0.13278 0.88985 0.0
O13 O 0.42322 0.08034 0.09838 0.0
O14 O 0.46098 0.07464 0.07581 0.0
C15 C 0.47077 0.18216 0.07574 0.0
O16 O 0.47324 0.15317 0.86588 0.0
O17 O 0.43429 0.11303 0.9168 0.0
C18 C 0.51694 0.11864 0.92903 0.0
O19 O 0.49497 0.18347 0.06535 0.0
O20 O 0.44721 0.15818 0.06129 0.0
C21 C 0.4477 0.11246 0.31762 0.0
Fe22 Fe 0.32599 0.44205 0.23169 0.0
Fe23 Fe 0.38603 0.48944 0.32403 0.0
O24 O 0.35473 0.47882 0.23284 0.0
Fe25 Fe 0.35161 0.50506 0.14503 0.0
O26 O 0.31846 0.49779 0.22247 0.0
O27 O 0.29656 0.45044 0.21004 0.0
O28 O 0.32067 0.44288 0.39389 0.0
C29 C 0.34003 0.45173 0.47459 0.0
C30 C 0.32986 0.45606 0.99135 0.0
O31 O 0.36659 0.46471 0.44736 0.0
C32 C 0.40904 0.52253 0.10895 0.0
O33 O 0.3498 0.42643 0.25005 0.0
O34 O 0.39403 0.46366 0.2545 0.0
O35 O 0.33157 0.47978 0.02177 0.0
O36 O 0.32937 0.43887 0.07045 0.0
C37 C 0.37934 0.5369 0.35703 0.0
O38 O 0.41129 0.51614 0.21649 0.0
O39 O 0.38456 0.51484 0.06254 0.0
C40 C 0.37695 0.43695 0.23966 0.0
O41 O 0.38095 0.51623 0.40352 0.0
O42 O 0.37181 0.53546 0.24868 0.0
C43 C 0.29564 0.47336 0.22935 0.0
Fe44 Fe 0.90286 0.37817 0.45921 0.0
Fe45 Fe 0.85236 0.34448 0.28472 0.0
O46 O 0.88005 0.34604 0.37859 0.0
Fe47 Fe 0.88542 0.31579 0.38463 0.0
O48 O 0.87968 0.31213 0.54593 0.0
O49 O 0.90528 0.35849 0.59272 0.0
O50 O 0.8726 0.37803 0.53559 0.0
C51 C 0.85275 0.37979 0.48195 0.0
C52 C 0.94327 0.36351 0.38687 0.0
O53 O 0.84621 0.37056 0.37472 0.0
C54 C 0.87554 0.31811 0.14339 0.0
O55 O 0.9034 0.40245 0.33797 0.0
O56 O 0.87906 0.37273 0.19099 0.0
O57 O 0.9253 0.33697 0.4053 0.0
O58 O 0.93533 0.38201 0.39032 0.0
C59 C 0.8236 0.29133 0.38834 0.0
O60 O 0.8533 0.31916 0.17472 0.0
O61 O 0.89245 0.31821 0.22293 0.0
C62 C 0.89585 0.3979 0.22759 0.0
O63 O 0.82443 0.31522 0.37278 0.0
O64 O 0.84593 0.28897 0.36755 0.0
C65 C 0.89098 0.33189 0.62445 0.0
Fe66 Fe 0.56835 0.88569 0.5673 0.0
Fe67 Fe 0.52056 0.89984 0.63043 0.0
O68 O 0.53188 0.87809 0.55391 0.0
Fe69 Fe 0.50691 0.84904 0.46026 0.0
O70 O 0.51085 0.82262 0.54806 0.0
O71 O 0.55864 0.84719 0.55392 0.0
O72 O 0.56521 0.8807 0.73077 0.0
C73 C 0.55751 0.8938 0.80407 0.0
C74 C 0.55767 0.87528 0.32306 0.0
O75 O 0.54292 0.90493 0.765 0.0
C76 C 0.49461 0.89177 0.3988 0.0
O77 O 0.58504 0.92544 0.58353 0.0
O78 O 0.54846 0.93299 0.56119 0.0
O79 O 0.5343 0.85262 0.35028 0.0
O80 O 0.57381 0.892 0.4052 0.0
C81 C 0.47075 0.84779 0.65233 0.0
O82 O 0.49616 0.89825 0.50929 0.0
O83 O 0.50131 0.87334 0.36629 0.0
C84 C 0.57533 0.9422 0.55916 0.0
O85 O 0.49133 0.86894 0.70592 0.0
O86 O 0.47448 0.84018 0.54946 0.0
C87 C 0.5347 0.82363 0.56648 0.0
Fe88 Fe 0.66723 0.51317 0.6291 0.0
Fe89 Fe 0.69229 0.57346 0.73918 0.0
O90 O 0.66306 0.53762 0.72273 0.0
Fe91 Fe 0.62973 0.52664 0.79587 0.0
O92 O 0.63046 0.49683 0.87219 0.0
O93 O 0.64161 0.47992 0.71406 0.0
O94 O 0.69654 0.51578 0.72226 0.0
C95 C 0.72001 0.53937 0.73772 0.0
C96 C 0.61335 0.50033 0.56233 0.0
O97 O 0.72087 0.56341 0.72126 0.0
C98 C 0.64331 0.58145 0.73277 0.0
O99 O 0.69254 0.54124 0.5244 0.0
O100 O 0.6912 0.57996 0.57728 0.0
O101 O 0.60739 0.50279 0.67097 0.0
O102 O 0.63906 0.51005 0.53062 0.0
C103 C 0.67284 0.55989 0.97369 0.0
O104 O 0.66954 0.59044 0.76139 0.0
O105 O 0.62551 0.55481 0.72574 0.0
C106 C 0.69247 0.56414 0.49538 0.0
O107 O 0.69378 0.56801 0.90092 0.0
O108 O 0.64715 0.54899 0.93219 0.0
C109 C 0.6307 0.47615 0.81848 0.0
Fe110 Fe 0.12421 0.68299 0.90296 0.0
Fe111 Fe 0.1089 0.6207 0.97308 0.0
O112 O 0.13187 0.65403 0.89828 0.0
Fe113 Fe 0.16227 0.65736 0.81735 0.0
O114 O 0.18636 0.69627 0.83958 0.0
O115 O 0.16097 0.70974 0.94759 0.0
O116 O 0.11564 0.67821 0.0663 0.0
C117 C 0.11808 0.66227 0.14571 0.0
C118 C 0.13717 0.67837 0.65722 0.0
O119 O 0.11799 0.6392 0.11723 0.0
C120 C 0.11781 0.60077 0.76088 0.0
O121 O 0.08638 0.66061 0.85834 0.0
O122 O 0.07525 0.62196 0.96253 0.0
O123 O 0.1485 0.66309 0.67909 0.0
O124 O 0.13136 0.69114 0.74029 0.0
C125 C 0.16471 0.62668 1.00444 0.0
O126 O 0.09893 0.60028 0.83122 0.0
O127 O 0.14412 0.61934 0.77807 0.0
C128 C 0.06762 0.63644 0.89857 0.0
O129 O 0.13736 0.61185 1.00154 0.0
O130 O 0.17812 0.65057 0.94998 0.0
C131 C 0.18488 0.71469 0.90539 0.0
Fe132 Fe 0.88703 0.56411 0.81641 0.0
Fe133 Fe 0.90154 0.51673 0.74281 0.0
O134 O 0.87903 0.52745 0.82023 0.0
Fe135 Fe 0.84915 0.50083 0.90398 0.0
O136 O 0.82519 0.51578 0.88255 0.0
O137 O 0.85032 0.55464 0.7726 0.0
O138 O 0.89542 0.56759 0.65277 0.0
C139 C 0.89203 0.5489 0.57278 0.0
C140 C 0.87433 0.54748 0.06302 0.0
O141 O 0.89166 0.52564 0.59934 0.0
C142 C 0.89388 0.4891 0.95775 0.0
O143 O 0.92465 0.57837 0.86207 0.0
O144 O 0.93522 0.55171 0.74803 0.0
O145 O 0.8636 0.52084 0.04195 0.0
O146 O 0.8797 0.56556 0.97866 0.0
C147 C 0.84549 0.46708 0.71635 0.0
O148 O 0.91238 0.50696 0.88459 0.0
O149 O 0.86748 0.48111 0.94164 0.0
C150 C 0.94304 0.57314 0.81622 0.0
O151 O 0.87283 0.47929 0.71806 0.0
O152 O 0.83249 0.4778 0.77253 0.0
C153 C 0.82659 0.53558 0.81653 0.0
Fe154 Fe 0.32216 0.88391 0.9921 0.0
Fe155 Fe 0.3836 0.90022 0.90808 0.0
O156 O 0.35209 0.87779 0.9945 0.0
Fe157 Fe 0.35112 0.84967 0.08373 0.0
O158 O 0.31179 0.82448 0.06674 0.0
O159 O 0.29682 0.84691 0.94642 0.0
O160 O 0.326 0.89298 0.82937 0.0
C161 C 0.33996 0.88853 0.7472 0.0
C162 C 0.32788 0.87309 0.23905 0.0
O163 O 0.36296 0.88819 0.77004 0.0
C164 C 0.40856 0.89639 0.11573 0.0
O165 O 0.34468 0.9215 0.03877 0.0
O166 O 0.38044 0.9328 0.91411 0.0
O167 O 0.34605 0.86507 0.21954 0.0
O168 O 0.3134 0.87565 0.15381 0.0
C169 C 0.37913 0.84523 0.8878 0.0
O170 O 0.40629 0.91318 0.04216 0.0
O171 O 0.38995 0.86967 0.11844 0.0
C172 C 0.36772 0.94017 0.9893 0.0
O173 O 0.39333 0.87246 0.88321 0.0
O174 O 0.35711 0.83226 0.95428 0.0
C175 C 0.29285 0.82401 0.99619 0.0
Fe176 Fe 0.44693 0.32523 0.14444 0.0
Fe177 Fe 0.49504 0.38723 0.07144 0.0
O178 O 0.48407 0.35373 0.14668 0.0
Fe179 Fe 0.51128 0.35002 0.22668 0.0
O180 O 0.49602 0.31125 0.20541 0.0
O181 O 0.45538 0.29704 0.10767 0.0
O182 O 0.44338 0.32832 0.98055 0.0
C183 C 0.46096 0.34492 0.90062 0.0
C184 C 0.46576 0.33039 0.39022 0.0
O185 O 0.48372 0.36864 0.92677 0.0
C186 C 0.52441 0.40647 0.28436 0.0
O187 O 0.43167 0.34827 0.17963 0.0
O188 O 0.46149 0.38782 0.08739 0.0
O189 O 0.49242 0.34451 0.36665 0.0
O190 O 0.4463 0.31903 0.30876 0.0
C191 C 0.54388 0.37961 0.03669 0.0
O192 O 0.50668 0.4077 0.2127 0.0
O193 O 0.53205 0.38804 0.26494 0.0
C194 C 0.43805 0.37291 0.14208 0.0
O195 O 0.53179 0.39479 0.03889 0.0
O196 O 0.53328 0.35603 0.09315 0.0
C197 C 0.47484 0.29244 0.14636 0.0
Fe198 Fe 0.1254 0.4354 0.32305 0.0
Fe199 Fe 0.10578 0.47898 0.26442 0.0
O200 O 0.1301 0.47059 0.33733 0.0
Fe201 Fe 0.15876 0.49666 0.42749 0.0
O202 O 0.18597 0.4946 0.33579 0.0
O203 O 0.1642 0.4472 0.34349 0.0
O204 O 0.13254 0.44103 0.16115 0.0
C205 C 0.11841 0.44772 0.08852 0.0
C206 C 0.13462 0.44607 0.56635 0.0
O207 O 0.10167 0.45626 0.13031 0.0
C208 C 0.11632 0.50781 0.49234 0.0
O209 O 0.08559 0.41616 0.29878 0.0
O210 O 0.07472 0.44969 0.33928 0.0
O211 O 0.15691 0.46976 0.53682 0.0
O212 O 0.1179 0.42921 0.48514 0.0
C213 C 0.15606 0.53106 0.23384 0.0
O214 O 0.10631 0.50297 0.38577 0.0
O215 O 0.13384 0.50003 0.52504 0.0
C216 C 0.06727 0.42339 0.33013 0.0
O217 O 0.13481 0.50958 0.18465 0.0
O218 O 0.16486 0.52857 0.33686 0.0
C219 C 0.18661 0.47145 0.32202 0.0
Fe220 Fe 0.68775 0.12257 0.48664 0.0
Fe221 Fe 0.62716 0.1112 0.40583 0.0
O222 O 0.65919 0.13041 0.49415 0.0
Fe223 Fe 0.66182 0.15712 0.59585 0.0
O224 O 0.6928 0.18549 0.51811 0.0
O225 O 0.71651 0.1613 0.50451 0.0
O226 O 0.69184 0.12864 0.32555 0.0
C227 C 0.6724 0.11723 0.24611 0.0
C228 C 0.68603 0.13066 0.73155 0.0
O229 O 0.64593 0.107 0.27452 0.0
C230 C 0.60635 0.11711 0.63587 0.0
O231 O 0.66357 0.08309 0.46736 0.0
O232 O 0.61925 0.07659 0.46628 0.0
O233 O 0.68511 0.1532 0.70684 0.0
O234 O 0.68575 0.11482 0.64727 0.0
C235 C 0.63142 0.16386 0.39656 0.0
O236 O 0.60263 0.11237 0.52313 0.0
O237 O 0.63149 0.12934 0.67861 0.0
C238 C 0.63625 0.0667 0.47661 0.0
O239 O 0.63235 0.14428 0.33686 0.0
O240 O 0.63853 0.16688 0.50647 0.0
C241 C 0.71577 0.18484 0.49708 0.0
Fe242 Fe 0.57168 0.68997 0.66767 0.0
Fe243 Fe 0.52337 0.62858 0.58603 0.0
O244 O 0.53502 0.66062 0.67374 0.0
Fe245 Fe 0.50989 0.66316 0.77225 0.0
O246 O 0.51346 0.69456 0.69313 0.0
O247 O 0.56127 0.71802 0.68015 0.0
O248 O 0.57071 0.69368 0.50603 0.0
C249 C 0.55983 0.67434 0.42581 0.0
C250 C 0.56061 0.68877 0.91147 0.0
O251 O 0.54394 0.64786 0.4524 0.0
C252 C 0.49873 0.60755 0.81694 0.0
O253 O 0.58851 0.66751 0.65301 0.0
O254 O 0.55206 0.62278 0.64158 0.0
O255 O 0.53642 0.68604 0.88468 0.0
O256 O 0.57668 0.68863 0.82929 0.0
C257 C 0.47264 0.62935 0.58038 0.0
O258 O 0.50049 0.60404 0.70536 0.0
O259 O 0.50509 0.63218 0.85793 0.0
C260 C 0.57867 0.64054 0.6557 0.0
O261 O 0.49304 0.63019 0.5206 0.0
O262 O 0.4773 0.64024 0.6839 0.0
C263 C 0.53721 0.71753 0.67229 0.0
C264 C 0.43627 0.13778 0.62696 0.0
C265 C 0.44441 0.12206 0.70524 0.0
C266 C 0.44396 0.09292 0.53148 0.0
C267 C 0.44041 0.11167 0.45133 0.0
N268 N 0.4142 0.13754 0.43685 0.0
N269 N 0.4562 0.0842 0.73105 0.0
C270 C 0.43123 0.13025 0.50229 0.0
C271 C 0.44793 0.09924 0.65733 0.0
N272 N 0.43353 0.16018 0.671 0.0
N273 N 0.44003 0.06718 0.48913 0.0
H274 H 0.45777 0.08679 0.82395 0.0
H275 H 0.46321 0.07037 0.69946 0.0
H276 H 0.432 0.05986 0.40301 0.0
H277 H 0.43999 0.05127 0.54319 0.0
H278 H 0.43114 0.1746 0.6157 0.0
H279 H 0.43552 0.16543 0.76217 0.0
H280 H 0.40471 0.14884 0.47282 0.0
H281 H 0.40568 0.12836 0.35337 0.0
C282 C 0.31023 0.45518 0.78399 0.0
C283 C 0.32753 0.44849 0.85997 0.0
C284 C 0.34484 0.43479 0.68 0.0
C285 C 0.33228 0.44711 0.60513 0.0
N286 N 0.30627 0.4733 0.5902 0.0
N287 N 0.36352 0.43347 0.87593 0.0
C288 C 0.3155 0.45814 0.65798 0.0
C289 C 0.3451 0.43825 0.80706 0.0
N290 N 0.28829 0.45816 0.83197 0.0
N291 N 0.35641 0.41951 0.62959 0.0
H292 H 0.36471 0.43527 0.96877 0.0
H293 H 0.37953 0.42996 0.83989 0.0
H294 H 0.35674 0.41673 0.53719 0.0
H295 H 0.36297 0.40726 0.67933 0.0
H296 H 0.27344 0.46062 0.77961 0.0
H297 H 0.28286 0.45462 0.92282 0.0
H298 H 0.29655 0.48428 0.62707 0.0
H299 H 0.31093 0.47745 0.49913 0.0
C300 C 0.86383 0.29992 0.80944 0.0
C301 C 0.88884 0.3241 0.75708 0.0
C302 C 0.90695 0.3424 0.96092 0.0
C303 C 0.88223 0.31845 1.01242 0.0
N304 N 0.84395 0.26943 0.98576 0.0
N305 N 0.93933 0.35837 0.79117 0.0
C306 C 0.8627 0.29568 0.93656 0.0
C307 C 0.91194 0.34249 0.8354 0.0
N308 N 0.84065 0.28121 0.741 0.0
N309 N 0.92546 0.36549 0.03021 0.0
H310 H 0.94417 0.355 0.70412 0.0
H311 H 0.95742 0.37078 0.84528 0.0
H312 H 0.92307 0.36629 0.12272 0.0
H313 H 0.94203 0.38465 0.9937 0.0
H314 H 0.82087 0.26598 0.77812 0.0
H315 H 0.83999 0.28151 0.64814 0.0
H316 H 0.8308 0.25099 0.93492 0.0
H317 H 0.8446 0.26531 0.07694 0.0
C318 C 0.57188 0.86978 0.11017 0.0
C319 C 0.56342 0.88424 0.19332 0.0
C320 C 0.55598 0.90989 0.02499 0.0
C321 C 0.56418 0.89498 0.93939 0.0
N322 N 0.59527 0.87408 0.91982 0.0
N323 N 0.55613 0.92461 0.23107 0.0
C324 C 0.57666 0.87877 0.98727 0.0
C325 C 0.55875 0.90662 0.15098 0.0
N326 N 0.57585 0.84771 0.14812 0.0
N327 N 0.54471 0.92674 0.98966 0.0
H328 H 0.55547 0.92174 0.32353 0.0
H329 H 0.55679 0.94374 0.20614 0.0
H330 H 0.54719 0.9359 0.90582 0.0
H331 H 0.53276 0.93225 0.04691 0.0
H332 H 0.57919 0.83455 0.08873 0.0
H333 H 0.57391 0.84149 0.23803 0.0
H334 H 0.60611 0.86387 0.9536 0.0
H335 H 0.60363 0.88448 0.83835 0.0
C336 C 0.70689 0.58258 0.15819 0.0
C337 C 0.67839 0.56411 0.10937 0.0
C338 C 0.66043 0.55751 0.31752 0.0
C339 C 0.68875 0.56899 0.36482 0.0
N340 N 0.73976 0.59062 0.32464 0.0
N341 N 0.62901 0.52675 0.16193 0.0
C342 C 0.71226 0.58073 0.2833 0.0
C343 C 0.65528 0.54968 0.1941 0.0
N344 N 0.72839 0.6034 0.08943 0.0
N345 N 0.63819 0.55374 0.38965 0.0
H346 H 0.62496 0.51616 0.07984 0.0
H347 H 0.61269 0.51519 0.22462 0.0
H348 H 0.6413 0.55986 0.47981 0.0
H349 H 0.61758 0.5474 0.35576 0.0
H350 H 0.74876 0.61809 0.12411 0.0
H351 H 0.72475 0.60909 1.00452 0.0
H352 H 0.75734 0.59679 0.26719 0.0
H353 H 0.74444 0.59078 0.41583 0.0
C354 C 0.10579 0.6502 0.48315 0.0
C355 C 0.12722 0.67734 0.53089 0.0
C356 C 0.14063 0.69649 0.32605 0.0
C357 C 0.11916 0.66919 0.2776 0.0
N358 N 0.07655 0.62262 0.31354 0.0
N359 N 0.16019 0.72801 0.50105 0.0
C360 C 0.10027 0.6469 0.35746 0.0
C361 C 0.1428 0.70111 0.45319 0.0
N362 N 0.09133 0.62706 0.55813 0.0
N363 N 0.16055 0.71727 0.2521 0.0
H364 H 0.1627 0.73173 0.59348 0.0
H365 H 0.16996 0.74688 0.45008 0.0
H366 H 0.16025 0.71483 0.15981 0.0
H367 H 0.17879 0.73601 0.28263 0.0
H368 H 0.07904 0.60573 0.52838 0.0
H369 H 0.09257 0.62913 0.6513 0.0
H370 H 0.06006 0.60736 0.36767 0.0
H371 H 0.07189 0.61882 0.22236 0.0
C372 C 0.90729 0.57113 0.24112 0.0
C373 C 0.87881 0.55631 0.19268 0.0
C374 C 0.85935 0.54368 0.39806 0.0
C375 C 0.88784 0.55392 0.44361 0.0
N376 N 0.93894 0.57478 0.40535 0.0
N377 N 0.82731 0.52994 0.22436 0.0
C378 C 0.91187 0.56724 0.36445 0.0
C379 C 0.85471 0.54336 0.27154 0.0
N380 N 0.92995 0.58917 0.16966 0.0
N381 N 0.83666 0.53408 0.47598 0.0
H382 H 0.82331 0.53151 0.13362 0.0
H383 H 0.80869 0.51666 0.27342 0.0
H384 H 0.83915 0.53252 0.56774 0.0
H385 H 0.81591 0.52939 0.45128 0.0
H386 H 0.95091 0.60256 0.202 0.0
H387 H 0.92704 0.59314 0.08071 0.0
H388 H 0.95683 0.5817 0.34928 0.0
H389 H 0.94295 0.57163 0.49411 0.0
C390 C 0.33907 0.90871 0.54334 0.0
C391 C 0.33007 0.8844 0.6196 0.0
C392 C 0.31166 0.85188 0.4443 0.0
C393 C 0.32199 0.8763 0.36769 0.0
N394 N 0.33736 0.92676 0.34503 0.0
N395 N 0.30306 0.83271 0.64727 0.0
C396 C 0.33292 0.90435 0.41773 0.0
C397 C 0.31465 0.8559 0.5713 0.0
N398 N 0.35488 0.936 0.59007 0.0
N399 N 0.29989 0.82487 0.39443 0.0
H400 H 0.30611 0.8349 0.73982 0.0
H401 H 0.28914 0.81145 0.62038 0.0
H402 H 0.29524 0.82116 0.30287 0.0
H403 H 0.29533 0.80631 0.44199 0.0
H404 H 0.36519 0.95464 0.53793 0.0
H405 H 0.35926 0.93992 0.68163 0.0
H406 H 0.34324 0.94738 0.37631 0.0
H407 H 0.33219 0.92386 0.25403 0.0
C408 C 0.46491 0.31676 0.72496 0.0
C409 C 0.45574 0.33568 0.77152 0.0
C410 C 0.45026 0.34887 0.56672 0.0
C411 C 0.45792 0.32891 0.51927 0.0
N412 N 0.46735 0.28988 0.55294 0.0
N413 N 0.42918 0.36027 0.73526 0.0
C414 C 0.46337 0.3114 0.59864 0.0
C415 C 0.44511 0.34878 0.69179 0.0
N416 N 0.47622 0.30489 0.80072 0.0
N417 N 0.44985 0.36928 0.49446 0.0
H418 H 0.4224 0.35713 0.82445 0.0
H419 H 0.41938 0.36869 0.6801 0.0
H420 H 0.45476 0.37097 0.40317 0.0
H421 H 0.44717 0.38606 0.5278 0.0
H422 H 0.48632 0.2936 0.77148 0.0
H423 H 0.47708 0.30799 0.89322 0.0
H424 H 0.46878 0.27459 0.60597 0.0
H425 H 0.4667 0.28585 0.46091 0.0
C426 C 0.11211 0.45956 0.86996 0.0
C427 C 0.12027 0.44438 0.95284 0.0
C428 C 0.1372 0.42814 0.777 0.0
C429 C 0.12626 0.44104 0.69709 0.0
N430 N 0.09239 0.45805 0.67399 0.0
N431 N 0.13096 0.40523 0.97063 0.0
C432 C 0.11002 0.45292 0.74573 0.0
C433 C 0.13018 0.42607 0.9025 0.0
N434 N 0.10851 0.48207 0.90519 0.0
N435 N 0.15387 0.41744 0.73356 0.0
H436 H 0.12215 0.39978 0.05643 0.0
H437 H 0.13627 0.39039 0.93536 0.0
H438 H 0.15782 0.4171 0.64196 0.0
H439 H 0.16498 0.41057 0.78932 0.0
H440 H 0.10473 0.49462 0.84403 0.0
H441 H 0.1136 0.49126 0.98998 0.0
H442 H 0.07796 0.46405 0.70842 0.0
H443 H 0.09021 0.45342 0.58248 0.0
C444 C 0.66521 0.09657 0.91017 0.0
C445 C 0.68718 0.12321 0.86117 0.0
C446 C 0.70702 0.13805 0.06534 0.0
C447 C 0.68034 0.11614 0.11565 0.0
N448 N 0.6364 0.07029 0.0823 0.0
N449 N 0.73108 0.1687 0.89408 0.0
C450 C 0.66015 0.09411 0.03678 0.0
C451 C 0.7086 0.14384 0.93963 0.0
N452 N 0.64998 0.07309 0.83738 0.0
N453 N 0.73166 0.15154 0.13343 0.0
H454 H 0.73506 0.17204 0.80215 0.0
H455 H 0.74511 0.18619 0.94798 0.0
H456 H 0.73317 0.14508 0.21985 0.0
H457 H 0.7519 0.1661 0.09789 0.0
H458 H 0.63602 0.05234 0.86956 0.0
H459 H 0.65381 0.07326 0.74595 0.0
H460 H 0.6185 0.05632 0.03022 0.0
H461 H 0.6345 0.06445 0.17245 0.0
C462 C 0.57566 0.66793 0.21876 0.0
C463 C 0.56584 0.6826 0.29571 0.0
C464 C 0.56084 0.7078 0.11985 0.0
C465 C 0.56912 0.69193 0.04231 0.0
N466 N 0.59494 0.66543 0.02539 0.0
N467 N 0.5552 0.72147 0.32075 0.0
C468 C 0.5799 0.67474 0.09381 0.0
C469 C 0.56065 0.70427 0.24681 0.0
N470 N 0.58072 0.64708 0.26436 0.0
N471 N 0.55225 0.72584 0.07152 0.0
H472 H 0.55159 0.71817 0.4123 0.0
H473 H 0.55579 0.74035 0.29272 0.0
H474 H 0.55563 0.73205 0.98196 0.0
H475 H 0.54103 0.734 0.11856 0.0
H476 H 0.58296 0.63229 0.21095 0.0
H477 H 0.58124 0.64342 0.35585 0.0
H478 H 0.60562 0.65526 0.06087 0.0
H479 H 0.60019 0.67081 0.93585 0.0
C480 C 0.39411 0.02082 0.96358 0.0
C481 C 0.41443 0.03213 0.06049 0.0
C482 C 0.39987 0.98222 0.12208 0.0
C483 C 0.38105 0.97134 0.02152 0.0
N484 N 0.35483 0.97875 0.86355 0.0
N485 N 0.43807 0.02341 0.22804 0.0
C486 C 0.37661 0.99025 0.94718 0.0
C487 C 0.41753 0.01273 0.13915 0.0
N488 N 0.39289 0.03929 0.88214 0.0
N489 N 0.39999 0.96318 0.20381 0.0
H490 H 0.45031 0.04527 0.24958 0.0
H491 H 0.44432 0.01088 0.27728 0.0
H492 H 0.38722 0.94082 0.19377 0.0
H493 H 0.4105 0.96916 0.28653 0.0
H494 H 0.38167 0.03278 0.80107 0.0
H495 H 0.40483 0.06161 0.89117 0.0
H496 H 0.34813 0.99084 0.81385 0.0
H497 H 0.34152 0.95648 0.85121 0.0
C498 C 0.39845 0.37792 0.25877 0.0
C499 C 0.41819 0.38547 0.16 0.0
C500 C 0.41005 0.42616 0.114 0.0
C501 C 0.38941 0.4179 0.20827 0.0
N502 N 0.35833 0.38022 0.34811 0.0
N503 N 0.4318 0.41 0.96736 0.0
C504 C 0.38171 0.39197 0.27291 0.0
C505 C 0.42077 0.4076 0.08021 0.0
N506 N 0.39608 0.3584 0.34379 0.0
N507 N 0.41948 0.45163 0.05363 0.0
H508 H 0.43809 0.39595 0.93304 0.0
H509 H 0.43107 0.42355 0.90175 0.0
H510 H 0.41029 0.46471 0.06178 0.0
H511 H 0.43762 0.46043 0.99785 0.0
H512 H 0.38623 0.35649 0.42672 0.0
H513 H 0.40505 0.34517 0.33814 0.0
H514 H 0.34958 0.35947 0.38384 0.0
H515 H 0.34576 0.38955 0.36693 0.0
C516 C 0.01746 0.38723 0.2474 0.0
C517 C 0.03602 0.40137 0.34667 0.0
C518 C 0.99408 0.38987 0.47144 0.0
C519 C 0.97499 0.37418 0.37545 0.0
N520 N 0.96891 0.35197 0.18048 0.0
N521 N 0.04041 0.4034 0.5611 0.0
C522 C 0.9868 0.37074 0.26614 0.0
C523 C 0.02382 0.39871 0.46136 0.0
N524 N 0.02886 0.3904 0.13504 0.0
N525 N 0.9844 0.39751 0.57045 0.0
H526 H 0.06118 0.40616 0.55444 0.0
H527 H 0.0321 0.40014 0.64804 0.0
H528 H 0.96312 0.39306 0.57941 0.0
H529 H 0.99836 0.41095 0.63759 0.0
H530 H 0.01621 0.38345 0.05743 0.0
H531 H 0.05113 0.40152 0.11907 0.0
H532 H 0.97645 0.34695 0.10304 0.0
H533 H 0.94661 0.33931 0.19271 0.0
C534 C 0.59362 0.99297 0.63081 0.0
C535 C 0.59546 0.97423 0.54603 0.0
C536 C 0.62923 0.01688 0.42647 0.0
C537 C 0.6235 0.03501 0.50246 0.0
N538 N 0.59753 0.03902 0.67343 0.0
N539 N 0.61575 0.96803 0.36331 0.0
C540 C 0.60481 0.02263 0.60311 0.0
C541 C 0.61381 0.98615 0.44458 0.0
N542 N 0.58285 0.98265 0.74221 0.0
N543 N 0.64912 0.02884 0.33613 0.0
H544 H 0.60678 0.94596 0.37871 0.0
H545 H 0.62516 0.97447 0.27888 0.0
H546 H 0.65927 0.05064 0.31315 0.0
H547 H 0.65687 0.01751 0.28734 0.0
H548 H 0.58324 0.9956 0.81312 0.0
H549 H 0.57743 0.9618 0.76739 0.0
H550 H 0.58078 0.03008 0.73604 0.0
H551 H 0.60731 0.06143 0.66712 0.0
C552 C 0.61164 0.60001 0.81212 0.0
C553 C 0.63164 0.60166 0.72407 0.0
C554 C 0.6219 0.63477 0.60524 0.0
C555 C 0.59859 0.62923 0.6836 0.0
N556 N 0.57134 0.60689 0.86383 0.0
N557 N 0.65593 0.6203 0.53562 0.0
C558 C 0.59355 0.61197 0.78784 0.0
C559 C 0.63712 0.61931 0.62111 0.0
N560 N 0.61082 0.58795 0.92127 0.0
N561 N 0.62959 0.65477 0.51564 0.0
H562 H 0.66877 0.61092 0.54784 0.0
H563 H 0.65785 0.62915 0.45054 0.0
H564 H 0.61863 0.66593 0.49802 0.0
H565 H 0.64826 0.6621 0.46422 0.0
H566 H 0.59886 0.58842 0.99412 0.0
H567 H 0.62465 0.58015 0.94327 0.0
H568 H 0.56386 0.59133 0.9313 0.0
H569 H 0.55947 0.61751 0.85702 0.0
C570 C 0.02374 0.62554 0.76458 0.0
C571 C 0.03566 0.62518 0.87925 0.0
C572 C 0.98648 0.59178 0.95336 0.0
C573 C 0.97457 0.59265 0.84072 0.0
N574 N 0.98099 0.61697 0.65207 0.0
N575 N 0.0263 0.61792 0.09156 0.0
C576 C 0.99296 0.61156 0.75015 0.0
C577 C 0.01636 0.6112 0.97637 0.0
N578 N 0.04135 0.63827 0.66809 0.0
N579 N 0.96959 0.57187 0.03758 0.0
H580 H 0.04721 0.6347 0.11073 0.0
H581 H 0.0128 0.60994 0.16628 0.0
H582 H 0.94757 0.55725 0.02437 0.0
H583 H 0.97805 0.5685 0.11646 0.0
H584 H 0.03364 0.63535 0.58015 0.0
H585 H 0.06376 0.65064 0.67383 0.0
H586 H 0.99311 0.63261 0.58801 0.0
H587 H 0.95864 0.60799 0.64194 0.0
C588 C 0.56444 0.14372 0.82096 0.0
C589 C 0.53915 0.11747 0.85266 0.0
C590 C 0.55609 0.09076 0.72834 0.0
C591 C 0.58312 0.11671 0.71168 0.0
N592 N 0.61479 0.16718 0.77319 0.0
N593 N 0.51158 0.06539 0.8446 0.0
C594 C 0.58795 0.1428 0.76808 0.0
C595 C 0.53523 0.09073 0.80928 0.0
N596 N 0.56613 0.16998 0.83583 0.0
N597 N 0.55021 0.06626 0.66671 0.0
H598 H 0.49531 0.06476 0.89876 0.0
H599 H 0.50897 0.04507 0.82658 0.0
H600 H 0.56509 0.06523 0.60938 0.0
H601 H 0.52991 0.04757 0.66562 0.0
H602 H 0.58302 0.18919 0.80131 0.0
H603 H 0.55 0.17308 0.87193 0.0
H604 H 0.61941 0.18439 0.83079 0.0
H605 H 0.63309 0.17058 0.72714 0.0
C606 C 0.45836 0.56791 0.0918 0.0
C607 C 0.43593 0.54168 0.03957 0.0
C608 C 0.46384 0.55373 0.85138 0.0
C609 C 0.48288 0.58179 0.89782 0.0
N610 N 0.50777 0.60783 0.07554 0.0
N611 N 0.41822 0.50871 0.87023 0.0
C612 C 0.48316 0.58639 0.0227 0.0
C613 C 0.43908 0.53419 0.91972 0.0
N614 N 0.45517 0.57669 0.20327 0.0
N615 N 0.47079 0.5449 0.74775 0.0
H616 H 0.40122 0.4926 0.91948 0.0
H617 H 0.41698 0.504 0.7789 0.0
H618 H 0.49099 0.55692 0.70704 0.0
H619 H 0.4588 0.5241 0.71238 0.0
H620 H 0.46934 0.59714 0.23821 0.0
H621 H 0.43718 0.56498 0.25737 0.0
H622 H 0.51051 0.61079 0.16816 0.0
H623 H 0.52679 0.62013 0.02672 0.0
C624 C 0.92555 0.46934 0.05187 0.0
C625 C 0.8996 0.47086 0.04461 0.0
C626 C 0.87216 0.42296 0.13195 0.0
C627 C 0.89786 0.42185 0.15229 0.0
N628 N 0.94998 0.44567 0.14342 0.0
N629 N 0.85428 0.45584 0.14792 0.0
C630 C 0.925 0.44569 0.11628 0.0
C631 C 0.87492 0.44986 0.10759 0.0
N632 N 0.95053 0.49025 1.00053 0.0
N633 N 0.84501 0.39923 0.14068 0.0
H634 H 0.85793 0.47694 0.1505 0.0
H635 H 0.83585 0.44085 0.19431 0.0
H636 H 0.84058 0.37817 0.15371 0.0
H637 H 0.82641 0.40013 0.11946 0.0
H638 H 0.9688 0.48818 0.98901 0.0
H639 H 0.95314 0.50984 0.97037 0.0
H640 H 0.97059 0.46348 0.1306 0.0
H641 H 0.94993 0.42808 0.18447 0.0
C642 C 0.47479 0.89306 0.18688 0.0
C643 C 0.47951 0.90159 0.31135 0.0
C644 C 0.44102 0.91384 0.29726 0.0
C645 C 0.43652 0.90534 0.17555 0.0
N646 N 0.45745 0.89946 0.99446 0.0
N647 N 0.47758 0.93567 0.45098 0.0
C648 C 0.4563 0.89928 0.11701 0.0
C649 C 0.46602 0.91701 0.35633 0.0
N650 N 0.4866 0.8783 0.13362 0.0
N651 N 0.4213 0.9182 0.35777 0.0
H652 H 0.49828 0.94227 0.48436 0.0
H653 H 0.46875 0.94803 0.4821 0.0
H654 H 0.40259 0.91578 0.31702 0.0
H655 H 0.42267 0.92197 0.45017 0.0
H656 H 0.47968 0.86825 0.05016 0.0
H657 H 0.50272 0.87524 0.16953 0.0
H658 H 0.47318 0.8975 0.94656 0.0
H659 H 0.44513 0.90544 0.94188 0.0
C660 C 0.59122 0.45268 0.45722 0.0
C661 C 0.59049 0.47839 0.48263 0.0
C662 C 0.54224 0.45648 0.38642 0.0
C663 C 0.54277 0.43019 0.37182 0.0
N664 N 0.5607 0.40129 0.46577 0.0
N665 N 0.56364 0.50368 0.48481 0.0
C666 C 0.56507 0.42765 0.42961 0.0
C667 C 0.56542 0.47999 0.45132 0.0
N668 N 0.61591 0.45093 0.46614 0.0
N669 N 0.5196 0.45886 0.34279 0.0
H670 H 0.58075 0.52165 0.52667 0.0
H671 H 0.54488 0.505 0.47636 0.0
H672 H 0.49998 0.44104 0.31673 0.0
H673 H 0.52011 0.47854 0.33486 0.0
H674 H 0.61637 0.43231 0.44145 0.0
H675 H 0.63649 0.4681 0.4843 0.0
H676 H 0.57634 0.39874 0.51178 0.0
H677 H 0.54008 0.38295 0.46757 0.0
C678 C 0.13999 0.55667 0.58683 0.0
C679 C 0.11432 0.52968 0.5679 0.0
C680 C 0.08642 0.54945 0.66643 0.0
C681 C 0.11233 0.57693 0.67404 0.0
N682 N 0.15755 0.6074 0.57105 0.0
N683 N 0.0621 0.50142 0.57452 0.0
C684 C 0.13709 0.58073 0.61152 0.0
C685 C 0.08709 0.52635 0.60279 0.0
N686 N 0.16722 0.56039 0.57567 0.0
N687 N 0.06131 0.5454 0.71641 0.0
H688 H 0.06207 0.48383 0.53336 0.0
H689 H 0.04151 0.49873 0.58622 0.0
H690 H 0.0585 0.56243 0.74437 0.0
H691 H 0.0431 0.52503 0.7285 0.0
H692 H 0.18577 0.57996 0.59718 0.0
H693 H 0.17193 0.54407 0.55945 0.0
H694 H 0.17598 0.61097 0.52426 0.0
H695 H 0.15376 0.62475 0.5689 0.0
C696 C 0.45486 0.21356 0.18589 0.0
C697 C 0.47033 0.20988 0.09012 0.0
C698 C 0.49058 0.26118 0.0373 0.0
C699 C 0.47265 0.26386 0.12444 0.0
N700 N 0.43417 0.24112 0.26978 0.0
N701 N 0.4974 0.22891 0.90641 0.0
C702 C 0.45348 0.23949 0.19425 0.0
C703 C 0.48666 0.23336 1.01061 0.0
N704 N 0.44322 0.19321 0.27401 0.0
N705 N 0.51182 0.28521 0.98126 0.0
H706 H 0.49405 0.20871 0.88049 0.0
H707 H 0.50684 0.24455 0.83953 0.0
H708 H 0.51512 0.30591 0.99619 0.0
H709 H 0.52759 0.28488 0.92718 0.0
H710 H 0.43447 0.19609 0.35287 0.0
H711 H 0.44538 0.17492 0.27413 0.0
H712 H 0.41764 0.22315 0.31321 0.0
H713 H 0.43319 0.25999 0.2818 0.0
C714 C 0.23007 0.48467 0.1891 0.0
C715 C 0.21481 0.47267 0.29775 0.0
C716 C 0.24932 0.45655 0.34914 0.0
C717 C 0.2669 0.47174 0.2487 0.0
N718 N 0.27412 0.50122 0.0731 0.0
N719 N 0.21409 0.45329 0.49398 0.0
C720 C 0.25739 0.48629 0.16922 0.0
C721 C 0.22559 0.46029 0.38113 0.0
N722 N 0.21774 0.49315 0.10213 0.0
N723 N 0.25459 0.43791 0.41343 0.0
H724 H 0.19748 0.4567 0.5229 0.0
H725 H 0.22322 0.44725 0.56293 0.0
H726 H 0.27126 0.43391 0.39398 0.0
H727 H 0.2405 0.42408 0.47881 0.0
H728 H 0.22602 0.49905 0.01566 0.0
H729 H 0.19775 0.49199 0.11298 0.0
H730 H 0.27045 0.51535 0.02164 0.0
H731 H 0.29249 0.50044 0.04706 0.0
C732 C 0.75735 0.23381 0.55964 0.0
C733 C 0.74273 0.21267 0.46868 0.0
C734 C 0.78007 0.24379 0.32318 0.0
C735 C 0.79492 0.26487 0.41426 0.0
N736 N 0.79236 0.28375 0.60778 0.0
N737 N 0.73484 0.20237 0.25732 0.0
C738 C 0.78191 0.26105 0.52912 0.0
C739 C 0.75265 0.21894 0.34849 0.0
N740 N 0.74814 0.22771 0.67591 0.0
N741 N 0.79175 0.24785 0.21112 0.0
H742 H 0.71418 0.18475 0.27233 0.0
H743 H 0.73921 0.2078 0.16694 0.0
H744 H 0.80967 0.26729 0.18522 0.0
H745 H 0.78417 0.23168 0.14571 0.0
H746 H 0.75995 0.24069 0.74832 0.0
H747 H 0.72956 0.20865 0.70093 0.0
H748 H 0.78181 0.28343 0.68695 0.0
H749 H 0.81065 0.30372 0.58998 0.0
C750 C 0.54788 0.79388 0.70012 0.0
C751 C 0.53477 0.7962 0.59325 0.0
C752 C 0.5206 0.74581 0.54343 0.0
C753 C 0.53705 0.74492 0.6429 0.0
N754 N 0.5723 0.77204 0.79933 0.0
N755 N 0.51323 0.77587 0.40083 0.0
C756 C 0.55265 0.77017 0.71567 0.0
C757 C 0.52225 0.77251 0.51159 0.0
N758 N 0.55421 0.81339 0.79079 0.0
N759 N 0.50357 0.72134 0.47793 0.0
H760 H 0.51455 0.79512 0.37295 0.0
H761 H 0.50705 0.76053 0.33245 0.0
H762 H 0.50339 0.70193 0.49038 0.0
H763 H 0.48843 0.71992 0.41491 0.0
H764 H 0.56096 0.811 0.87578 0.0
H765 H 0.54901 0.82973 0.78598 0.0
H766 H 0.58608 0.79118 0.84503 0.0
H767 H 0.57716 0.75578 0.81508 0.0
C768 C 0.79419 0.55618 0.86367 0.0
C769 C 0.79966 0.537 0.79501 0.0
C770 C 0.7549 0.52213 0.68014 0.0
C771 C 0.74767 0.53885 0.75727 0.0
N772 N 0.75829 0.56738 0.93832 0.0
N773 N 0.7819 0.49712 0.65508 0.0
C774 C 0.76684 0.55485 0.85303 0.0
C775 C 0.77897 0.51853 0.70873 0.0
N776 N 0.81504 0.5756 0.93986 0.0
N777 N 0.73984 0.51091 0.57566 0.0
H778 H 0.79937 0.49401 0.67182 0.0
H779 H 0.7658 0.48103 0.60162 0.0
H780 H 0.72301 0.51411 0.54748 0.0
H781 H 0.74617 0.5012 0.51039 0.0
H782 H 0.81368 0.59231 0.98197 0.0
H783 H 0.83476 0.57638 0.95418 0.0
H784 H 0.76988 0.57669 0.01699 0.0
H785 H 0.73805 0.56579 0.93677 0.0
C786 C 0.21256 0.7697 0.92967 0.0
C787 C 0.21209 0.74281 0.93299 0.0
C788 C 0.26496 0.76961 0.95992 0.0
C789 C 0.26493 0.79606 0.9746 0.0
N790 N 0.23582 0.81869 1.00636 0.0
N791 N 0.23776 0.71808 0.99163 0.0
C792 C 0.23789 0.79541 0.96902 0.0
C793 C 0.23826 0.74301 0.96005 0.0
N794 N 0.18955 0.77121 0.88416 0.0
N795 N 0.29019 0.76961 0.93959 0.0
H796 H 0.21852 0.69869 1.0045 0.0
H797 H 0.25617 0.71772 0.02105 0.0
H798 H 0.30989 0.78851 0.92734 0.0
H799 H 0.29074 0.75083 0.91884 0.0
H800 H 0.19015 0.79083 0.8704 0.0
H801 H 0.17132 0.75347 0.84716 0.0
H802 H 0.21603 0.81812 1.01318 0.0
H803 H 0.2531 0.83711 0.04459 0.0
C804 C 0.56704 0.17455 0.37106 0.0
C805 C 0.56423 0.17474 0.24428 0.0
C806 C 0.61264 0.18053 0.22178 0.0
C807 C 0.61367 0.17634 0.3471 0.0
N808 N 0.60099 0.18912 0.53641 0.0
N809 N 0.59289 0.19769 0.06796 0.0
C810 C 0.59367 0.17934 0.4215 0.0
C811 C 0.58961 0.18377 0.17419 0.0
N812 N 0.54465 0.17045 0.44342 0.0
N813 N 0.6338 0.18196 0.14852 0.0
H814 H 0.57865 0.20465 0.04098 0.0
H815 H 0.61192 0.20644 0.01785 0.0
H816 H 0.65256 0.18288 0.18201 0.0
H817 H 0.6322 0.18159 0.0551 0.0
H818 H 0.54426 0.16648 0.53531 0.0
H819 H 0.52638 0.17059 0.41046 0.0
H820 H 0.58789 0.19369 0.59069 0.0
H821 H 0.62204 0.19753 0.56889 0.0
C822 C 0.3961 0.56472 0.54903 0.0
C823 C 0.39329 0.56519 0.42333 0.0
C824 C 0.43532 0.6142 0.41596 0.0
C825 C 0.44222 0.61086 0.5362 0.0
N826 N 0.42654 0.58396 0.72426 0.0
N827 N 0.39942 0.59619 0.25564 0.0
C828 C 0.4214 0.58693 0.60626 0.0
C829 C 0.40944 0.59186 0.36201 0.0
N830 N 0.37397 0.54313 0.61282 0.0
N831 N 0.45408 0.63825 0.35237 0.0
H832 H 0.37882 0.58162 0.22276 0.0
H833 H 0.40944 0.61568 0.20894 0.0
H834 H 0.47201 0.65585 0.39198 0.0
H835 H 0.45253 0.64035 0.26011 0.0
H836 H 0.37289 0.5423 0.70618 0.0
H837 H 0.35495 0.52761 0.57058 0.0
H838 H 0.41463 0.56487 0.77241 0.0
H839 H 0.4429 0.60007 0.77576 0.0
C840 C 0.82909 0.39192 0.65463 0.0
C841 C 0.84148 0.39807 0.53754 0.0
C842 C 0.83475 0.44034 0.53125 0.0
C843 C 0.83017 0.43865 0.65501 0.0
N844 N 0.82105 0.4119 0.8381 0.0
N845 N 0.86645 0.43647 0.39353 0.0
C846 C 0.82598 0.41368 0.71746 0.0
C847 C 0.84622 0.424 0.48062 0.0
N848 N 0.82112 0.36585 0.7065 0.0
N849 N 0.83275 0.46096 0.46677 0.0
H850 H 0.87942 0.42812 0.36937 0.0
H851 H 0.87398 0.45764 0.36462 0.0
H852 H 0.82554 0.47401 0.50613 0.0
H853 H 0.83596 0.46318 0.37425 0.0
H854 H 0.81006 0.35927 0.78777 0.0
H855 H 0.82368 0.34998 0.66303 0.0
H856 H 0.8212 0.39612 0.89246 0.0
H857 H 0.8178 0.42718 0.88346 0.0
C858 C 0.41341 0.82634 0.89105 0.0
C859 C 0.3925 0.8301 0.82754 0.0
C860 C 0.41819 0.83586 0.63889 0.0
C861 C 0.44098 0.83514 0.70407 0.0
N862 N 0.45563 0.8202 0.88192 0.0
N863 N 0.36883 0.82737 0.64187 0.0
C864 C 0.43688 0.82701 0.82704 0.0
C865 C 0.39276 0.83068 0.70117 0.0
N866 N 0.41171 0.82402 1.01323 0.0
N867 N 0.42157 0.84392 0.52087 0.0
H868 H 0.3503 0.82378 0.68832 0.0
H869 H 0.36625 0.82524 0.54898 0.0
H870 H 0.43898 0.84715 0.46829 0.0
H871 H 0.40755 0.84894 0.47542 0.0
H872 H 0.42798 0.82477 0.06759 0.0
H873 H 0.39387 0.82195 0.06036 0.0
H874 H 0.45289 0.81219 0.969 0.0
H875 H 0.47267 0.82019 0.83577 0.0
C876 C 0.58809 0.42442 0.80765 0.0
C877 C 0.61304 0.44609 0.86966 0.0
C878 C 0.59713 0.414 0.04583 0.0
C879 C 0.57277 0.39312 0.97956 0.0
N880 N 0.55244 0.37356 0.78791 0.0
N881 N 0.64433 0.45826 0.04265 0.0
C882 C 0.57201 0.39633 0.85568 0.0
C883 C 0.61878 0.43966 0.98703 0.0
N884 N 0.57606 0.43169 0.71689 0.0
N885 N 0.5984 0.41003 0.1661 0.0
H886 H 0.66024 0.47711 1.00132 0.0
H887 H 0.65062 0.45387 0.1249 0.0
H888 H 0.58334 0.39084 0.20816 0.0
H889 H 0.61361 0.4258 0.2232 0.0
H890 H 0.55544 0.41749 0.68299 0.0
H891 H 0.58393 0.45297 0.69393 0.0
H892 H 0.55123 0.37474 0.6948 0.0
H893 H 0.53941 0.35309 0.82555 0.0
C894 C 0.16267 0.5817 0.23726 0.0
C895 C 0.16725 0.56056 0.17882 0.0
C896 C 0.18351 0.59223 1.00121 0.0
C897 C 0.17951 0.61301 0.06508 0.0
N898 N 0.17647 0.63223 0.25402 0.0
N899 N 0.18741 0.54865 1.00927 0.0
C900 C 0.1745 0.60972 0.18848 0.0
C901 C 0.17982 0.56695 0.06225 0.0
N902 N 0.14242 0.57381 0.32449 0.0
N903 N 0.18887 0.59584 0.88094 0.0
H904 H 0.18448 0.52995 0.05169 0.0
H905 H 0.19848 0.55313 0.92804 0.0
H906 H 0.19261 0.61468 0.83703 0.0
H907 H 0.18864 0.58001 0.82545 0.0
H908 H 0.13525 0.58756 0.3558 0.0
H909 H 0.12909 0.55239 0.34653 0.0
H910 H 0.17289 0.631 0.34622 0.0
H911 H 0.18395 0.65265 0.21589 0.0
loop_
_geom_bond_atom_site_label_1
_geom_bond_atom_site_label_2
_geom_bond_distance
_geom_bond_site_symmetry_2
_ccdc_geom_bond_type
Fe0 O2 1.918 . S
Fe0 O5 1.997 . S
Fe0 O6 2.002 . S
Fe0 O11 1.976 1_554 S
Fe0 O14 1.996 . S
Fe1 O2 1.918 1_556 S
Fe1 O9 1.997 1_556 S
Fe1 O12 1.996 . S
Fe1 O16 1.976 . S
Fe1 O19 2.002 . S
O2 Fe0 1.918 . S
O2 Fe1 1.918 1_554 S
O2 Fe3 1.918 . S
Fe3 O2 1.918 . S
Fe3 O4 2.002 . S
Fe3 O13 1.976 1_554 S
Fe3 O17 1.996 1_554 S
Fe3 O20 1.997 . S
O4 Fe3 2.002 . S
O4 C21 1.295 . S
O5 Fe0 1.997 . S
O5 C21 1.235 . S
O6 Fe0 2.002 . S
O6 C7 1.295 . S
C7 O6 1.295 . S
C7 O9 1.235 . S
C8 O13 1.287 1_554 S
C8 O14 1.255 . S
O9 Fe1 1.997 1_554 S
O9 C7 1.235 . S
C10 O16 1.287 . S
C10 O17 1.255 . S
O11 Fe0 1.976 1_556 S
O11 C18 1.287 . S
O12 Fe1 1.996 . S
O12 C18 1.255 . S
O13 Fe3 1.976 1_556 S
O13 C8 1.287 1_556 S
O14 Fe0 1.996 . S
O14 C8 1.255 . S
C15 O19 1.295 1_554 S
C15 O20 1.235 . S
O16 Fe1 1.976 . S
O16 C10 1.287 . S
O17 Fe3 1.996 1_556 S
O17 C10 1.255 . S
C18 O11 1.287 . S
C18 O12 1.255 . S
O19 Fe1 2.002 . S
O19 C15 1.295 1_556 S
O20 Fe3 1.997 . S
O20 C15 1.235 . S
C21 O4 1.295 . S
C21 O5 1.235 . S
Fe22 O24 1.918 . S
Fe22 O27 1.997 . S
Fe22 O28 2.002 . S
Fe22 O33 1.976 . S
Fe22 O36 1.996 . S
Fe23 O24 1.918 . S
Fe23 O31 1.997 . S
Fe23 O34 1.996 . S
Fe23 O38 1.976 . S
Fe23 O41 2.002 . S
O24 Fe22 1.918 . S
O24 Fe23 1.918 . S
O24 Fe25 1.918 . S
Fe25 O24 1.918 . S
Fe25 O26 2.002 . S
Fe25 O35 1.976 1_554 S
Fe25 O39 1.996 . S
Fe25 O42 1.997 . S
O26 Fe25 2.002 . S
O26 C43 1.295 . S
O27 Fe22 1.997 . S
O27 C43 1.235 . S
O28 Fe22 2.002 . S
O28 C29 1.295 . S
C29 O28 1.295 . S
C29 O31 1.235 . S
C30 O35 1.287 . S
C30 O36 1.255 1_556 S
O31 Fe23 1.997 . S
O31 C29 1.235 . S
C32 O38 1.287 . S
C32 O39 1.255 . S
O33 Fe22 1.976 . S
O33 C40 1.287 . S
O34 Fe23 1.996 . S
O34 C40 1.255 . S
O35 Fe25 1.976 1_556 S
O35 C30 1.287 . S
O36 Fe22 1.996 . S
O36 C30 1.255 1_554 S
C37 O41 1.295 . S
C37 O42 1.235 . S
O38 Fe23 1.976 . S
O38 C32 1.287 . S
O39 Fe25 1.996 . S
O39 C32 1.255 . S
C40 O33 1.287 . S
C40 O34 1.255 . S
O41 Fe23 2.002 . S
O41 C37 1.295 . S
O42 Fe25 1.997 . S
O42 C37 1.235 . S
C43 O26 1.295 . S
C43 O27 1.235 . S
Fe44 O46 1.918 . S
Fe44 O49 1.997 . S
Fe44 O50 2.002 . S
Fe44 O55 1.976 . S
Fe44 O58 1.996 . S
Fe45 O46 1.918 . S
Fe45 O53 1.997 . S
Fe45 O56 1.996 . S
Fe45 O60 1.976 . S
Fe45 O63 2.002 . S
O46 Fe44 1.918 . S
O46 Fe45 1.918 . S
O46 Fe47 1.918 . S
Fe47 O46 1.918 . S
Fe47 O48 2.002 . S
Fe47 O57 1.976 . S
Fe47 O61 1.996 . S
Fe47 O64 1.997 . S
O48 Fe47 2.002 . S
O48 C65 1.295 . S
O49 Fe44 1.997 . S
O49 C65 1.235 . S
O50 Fe44 2.002 . S
O50 C51 1.295 . S
C51 O50 1.295 . S
C51 O53 1.235 . S
C52 O57 1.287 . S
C52 O58 1.255 . S
O53 Fe45 1.997 . S
O53 C51 1.235 . S
C54 O60 1.287 . S
C54 O61 1.255 . S
O55 Fe44 1.976 . S
O55 C62 1.287 . S
O56 Fe45 1.996 . S
O56 C62 1.255 . S
O57 Fe47 1.976 . S
O57 C52 1.287 . S
O58 Fe44 1.996 . S
O58 C52 1.255 . S
C59 O63 1.295 . S
C59 O64 1.235 . S
O60 Fe45 1.976 . S
O60 C54 1.287 . S
O61 Fe47 1.996 . S
O61 C54 1.255 . S
C62 O55 1.287 . S
C62 O56 1.255 . S
O63 Fe45 2.002 . S
O63 C59 1.295 . S
O64 Fe47 1.997 . S
O64 C59 1.235 . S
C65 O48 1.295 . S
C65 O49 1.235 . S
Fe66 O68 1.918 . S
Fe66 O71 1.997 . S
Fe66 O72 2.002 . S
Fe66 O77 1.976 . S
Fe66 O80 1.996 . S
Fe67 O68 1.918 . S
Fe67 O75 1.997 . S
Fe67 O78 1.996 . S
Fe67 O82 1.976 . S
Fe67 O85 2.002 . S
O68 Fe66 1.918 . S
O68 Fe67 1.918 . S
O68 Fe69 1.918 . S
Fe69 O68 1.918 . S
Fe69 O70 2.002 . S
Fe69 O79 1.976 . S
Fe69 O83 1.996 . S
Fe69 O86 1.997 . S
O70 Fe69 2.002 . S
O70 C87 1.295 . S
O71 Fe66 1.997 . S
O71 C87 1.235 . S
O72 Fe66 2.002 . S
O72 C73 1.295 . S
C73 O72 1.295 . S
C73 O75 1.235 . S
C74 O79 1.287 . S
C74 O80 1.255 . S
O75 Fe67 1.997 . S
O75 C73 1.235 . S
C76 O82 1.287 . S
C76 O83 1.255 . S
O77 Fe66 1.976 . S
O77 C84 1.287 . S
O78 Fe67 1.996 . S
O78 C84 1.255 . S
O79 Fe69 1.976 . S
O79 C74 1.287 . S
O80 Fe66 1.996 . S
O80 C74 1.255 . S
C81 O85 1.295 . S
C81 O86 1.235 . S
O82 Fe67 1.976 . S
O82 C76 1.287 . S
O83 Fe69 1.996 . S
O83 C76 1.255 . S
C84 O77 1.287 . S
C84 O78 1.255 . S
O85 Fe67 2.002 . S
O85 C81 1.295 . S
O86 Fe69 1.997 . S
O86 C81 1.235 . S
C87 O70 1.295 . S
C87 O71 1.235 . S
Fe88 O90 1.918 . S
Fe88 O93 1.997 . S
Fe88 O94 2.002 . S
Fe88 O99 1.976 . S
Fe88 O102 1.996 . S
Fe89 O90 1.918 . S
Fe89 O97 1.997 . S
Fe89 O100 1.996 . S
Fe89 O104 1.976 . S
Fe89 O107 2.002 . S
O90 Fe88 1.918 . S
O90 Fe89 1.918 . S
O90 Fe91 1.918 . S
Fe91 O90 1.918 . S
Fe91 O92 2.002 . S
Fe91 O101 1.976 . S
Fe91 O105 1.996 . S
Fe91 O108 1.997 . S
O92 Fe91 2.002 . S
O92 C109 1.295 . S
O93 Fe88 1.997 . S
O93 C109 1.235 . S
O94 Fe88 2.002 . S
O94 C95 1.295 . S
C95 O94 1.295 . S
C95 O97 1.235 . S
C96 O101 1.287 . S
C96 O102 1.255 . S
O97 Fe89 1.997 . S
O97 C95 1.235 . S
C98 O104 1.287 . S
C98 O105 1.255 . S
O99 Fe88 1.976 . S
O99 C106 1.287 . S
O100 Fe89 1.996 . S
O100 C106 1.255 . S
O101 Fe91 1.976 . S
O101 C96 1.287 . S
O102 Fe88 1.996 . S
O102 C96 1.255 . S
C103 O107 1.295 . S
C103 O108 1.235 . S
O104 Fe89 1.976 . S
O104 C98 1.287 . S
O105 Fe91 1.996 . S
O105 C98 1.255 . S
C106 O99 1.287 . S
C106 O100 1.255 . S
O107 Fe89 2.002 . S
O107 C103 1.295 . S
O108 Fe91 1.997 . S
O108 C103 1.235 . S
C109 O92 1.295 . S
C109 O93 1.235 . S
Fe110 O112 1.918 . S
Fe110 O115 1.997 . S
Fe110 O116 2.002 1_556 S
Fe110 O121 1.976 . S
Fe110 O124 1.996 . S
Fe111 O112 1.918 . S
Fe111 O119 1.997 1_556 S
Fe111 O122 1.996 . S
Fe111 O126 1.976 . S
Fe111 O129 2.002 1_556 S
O112 Fe110 1.918 . S
O112 Fe111 1.918 . S
O112 Fe113 1.918 . S
Fe113 O112 1.918 . S
Fe113 O114 2.002 . S
Fe113 O123 1.976 . S
Fe113 O127 1.996 . S
Fe113 O130 1.997 . S
O114 Fe113 2.002 . S
O114 C131 1.295 . S
O115 Fe110 1.997 . S
O115 C131 1.235 . S
O116 Fe110 2.002 1_554 S
O116 C117 1.295 . S
C117 O116 1.295 . S
C117 O119 1.235 . S
C118 O123 1.287 . S
C118 O124 1.255 . S
O119 Fe111 1.997 1_554 S
O119 C117 1.235 . S
C120 O126 1.287 . S
C120 O127 1.255 . S
O121 Fe110 1.976 . S
O121 C128 1.287 . S
O122 Fe111 1.996 . S
O122 C128 1.255 . S
O123 Fe113 1.976 . S
O123 C118 1.287 . S
O124 Fe110 1.996 . S
O124 C118 1.255 . S
C125 O129 1.295 1_556 S
C125 O130 1.235 . S
O126 Fe111 1.976 . S
O126 C120 1.287 . S
O127 Fe113 1.996 . S
O127 C120 1.255 . S
C128 O121 1.287 . S
C128 O122 1.255 . S
O129 Fe111 2.002 1_554 S
O129 C125 1.295 1_554 S
O130 Fe113 1.997 . S
O130 C125 1.235 . S
C131 O114 1.295 . S
C131 O115 1.235 . S
Fe132 O134 1.918 . S
Fe132 O137 1.997 . S
Fe132 O138 2.002 . S
Fe132 O143 1.976 . S
Fe132 O146 1.996 1_556 S
Fe133 O134 1.918 . S
Fe133 O141 1.997 . S
Fe133 O144 1.996 . S
Fe133 O148 1.976 . S
Fe133 O151 2.002 . S
O134 Fe132 1.918 . S
O134 Fe133 1.918 . S
O134 Fe135 1.918 . S
Fe135 O134 1.918 . S
Fe135 O136 2.002 . S
Fe135 O145 1.976 1_556 S
Fe135 O149 1.993 1_556 S
Fe135 O152 1.997 . S
O136 Fe135 2.002 . S
O136 C153 1.295 . S
O137 Fe132 1.997 . S
O137 C153 1.235 . S
O138 Fe132 2.002 . S
O138 C139 1.295 . S
C139 O138 1.295 . S
C139 O141 1.235 . S
C140 O145 1.287 . S
C140 O146 1.255 . S
O141 Fe133 1.997 . S
O141 C139 1.235 . S
C142 O148 1.287 . S
C142 O149 1.253 1_556 S
O143 Fe132 1.976 . S
O143 C150 1.287 . S
O144 Fe133 1.996 . S
O144 C150 1.255 . S
O145 Fe135 1.976 1_554 S
O145 C140 1.287 . S
O146 Fe132 1.996 1_554 S
O146 C140 1.255 . S
C147 O151 1.295 . S
C147 O152 1.235 . S
O148 Fe133 1.976 . S
O148 C142 1.287 . S
O149 Fe135 1.993 1_554 S
O149 C142 1.253 1_554 S
C150 O143 1.287 . S
C150 O144 1.255 . S
O151 Fe133 2.002 . S
O151 C147 1.295 . S
O152 Fe135 1.997 . S
O152 C147 1.235 . S
C153 O136 1.295 . S
C153 O137 1.235 . S
Fe154 O156 1.918 . S
Fe154 O159 1.997 1_554 S
Fe154 O160 2.002 1_554 S
Fe154 O165 1.976 . S
Fe154 O168 1.996 . S
Fe155 O156 1.918 1_556 S
Fe155 O163 1.997 . S
Fe155 O166 1.996 . S
Fe155 O170 1.976 1_556 S
Fe155 O173 2.002 . S
O156 Fe154 1.918 . S
O156 Fe155 1.918 1_554 S
O156 Fe157 1.918 . S
Fe157 O156 1.918 . S
Fe157 O158 2.002 . S
Fe157 O167 1.976 . S
Fe157 O171 1.996 . S
Fe157 O174 1.997 1_554 S
O158 Fe157 2.002 . S
O158 C175 1.295 1_554 S
O159 Fe154 1.997 1_556 S
O159 C175 1.235 . S
O160 Fe154 2.002 1_556 S
O160 C161 1.295 . S
C161 O160 1.295 . S
C161 O163 1.235 . S
C162 O167 1.287 . S
C162 O168 1.255 . S
O163 Fe155 1.997 . S
O163 C161 1.235 . S
C164 O170 1.287 . S
C164 O171 1.255 . S
O165 Fe154 1.976 . S
O165 C172 1.287 . S
O166 Fe155 1.996 . S
O166 C172 1.255 1_556 S
O167 Fe157 1.976 . S
O167 C162 1.287 . S
O168 Fe154 1.996 . S
O168 C162 1.255 . S
C169 O173 1.295 . S
C169 O174 1.235 . S
O170 Fe155 1.976 1_554 S
O170 C164 1.287 . S
O171 Fe157 1.996 . S
O171 C164 1.255 . S
C172 O165 1.287 . S
C172 O166 1.255 1_554 S
O173 Fe155 2.002 . S
O173 C169 1.295 . S
O174 Fe157 1.997 1_556 S
O174 C169 1.235 . S
C175 O158 1.295 1_556 S
C175 O159 1.235 . S
Fe176 O178 1.918 . S
Fe176 O181 1.997 . S
Fe176 O182 2.002 1_554 S
Fe176 O187 1.976 . S
Fe176 O190 1.996 . S
Fe177 O178 1.918 . S
Fe177 O185 1.997 1_554 S
Fe177 O188 1.996 . S
Fe177 O192 1.976 . S
Fe177 O195 2.002 . S
O178 Fe176 1.918 . S
O178 Fe177 1.918 . S
O178 Fe179 1.918 . S
Fe179 O178 1.918 . S
Fe179 O180 2.002 . S
Fe179 O189 1.976 . S
Fe179 O193 1.996 . S
Fe179 O196 1.997 . S
O180 Fe179 2.002 . S
O180 C197 1.295 . S
O181 Fe176 1.997 . S
O181 C197 1.235 . S
O182 Fe176 2.002 1_556 S
O182 C183 1.295 . S
C183 O182 1.295 . S
C183 O185 1.235 . S
C184 O189 1.287 . S
C184 O190 1.255 . S
O185 Fe177 1.997 1_556 S
O185 C183 1.235 . S
C186 O192 1.287 . S
C186 O193 1.255 . S
O187 Fe176 1.976 . S
O187 C194 1.287 . S
O188 Fe177 1.996 . S
O188 C194 1.255 . S
O189 Fe179 1.976 . S
O189 C184 1.287 . S
O190 Fe176 1.996 . S
O190 C184 1.255 . S
C191 O195 1.295 . S
C191 O196 1.235 . S
O192 Fe177 1.976 . S
O192 C186 1.287 . S
O193 Fe179 1.996 . S
O193 C186 1.255 . S
C194 O187 1.287 . S
C194 O188 1.255 . S
O195 Fe177 2.002 . S
O195 C191 1.295 . S
O196 Fe179 1.997 . S
O196 C191 1.235 . S
C197 O180 1.295 . S
C197 O181 1.235 . S
Fe198 O200 1.918 . S
Fe198 O203 1.997 . S
Fe198 O204 2.002 . S
Fe198 O209 1.976 . S
Fe198 O212 1.996 . S
Fe199 O200 1.918 . S
Fe199 O207 1.997 . S
Fe199 O210 1.996 . S
Fe199 O214 1.976 . S
Fe199 O217 2.002 . S
O200 Fe198 1.918 . S
O200 Fe199 1.918 . S
O200 Fe201 1.918 . S
Fe201 O200 1.918 . S
Fe201 O202 2.002 . S
Fe201 O211 1.976 . S
Fe201 O215 1.996 . S
Fe201 O218 1.997 . S
O202 Fe201 2.002 . S
O202 C219 1.295 . S
O203 Fe198 1.997 . S
O203 C219 1.235 . S
O204 Fe198 2.002 . S
O204 C205 1.295 . S
C205 O204 1.295 . S
C205 O207 1.235 . S
C206 O211 1.287 . S
C206 O212 1.255 . S
O207 Fe199 1.997 . S
O207 C205 1.235 . S
C208 O214 1.287 . S
C208 O215 1.255 . S
O209 Fe198 1.976 . S
O209 C216 1.287 . S
O210 Fe199 1.996 . S
O210 C216 1.255 . S
O211 Fe201 1.976 . S
O211 C206 1.287 . S
O212 Fe198 1.996 . S
O212 C206 1.255 . S
C213 O217 1.295 . S
C213 O218 1.235 . S
O214 Fe199 1.976 . S
O214 C208 1.287 . S
O215 Fe201 1.996 . S
O215 C208 1.255 . S
C216 O209 1.287 . S
C216 O210 1.255 . S
O217 Fe199 2.002 . S
O217 C213 1.295 . S
O218 Fe201 1.997 . S
O218 C213 1.235 . S
C219 O202 1.295 . S
C219 O203 1.235 . S
Fe220 O222 1.918 . S
Fe220 O225 1.997 . S
Fe220 O226 2.002 . S
Fe220 O231 1.976 . S
Fe220 O234 1.996 . S
Fe221 O222 1.918 . S
Fe221 O229 1.997 . S
Fe221 O232 1.996 . S
Fe221 O236 1.976 . S
Fe221 O239 2.002 . S
O222 Fe220 1.918 . S
O222 Fe221 1.918 . S
O222 Fe223 1.918 . S
Fe223 O222 1.918 . S
Fe223 O224 2.002 . S
Fe223 O233 1.976 . S
Fe223 O237 1.996 . S
Fe223 O240 1.997 . S
O224 Fe223 2.002 . S
O224 C241 1.295 . S
O225 Fe220 1.997 . S
O225 C241 1.235 . S
O226 Fe220 2.002 . S
O226 C227 1.295 . S
C227 O226 1.295 . S
C227 O229 1.235 . S
C228 O233 1.287 . S
C228 O234 1.255 . S
O229 Fe221 1.997 . S
O229 C227 1.235 . S
C230 O236 1.287 . S
C230 O237 1.255 . S
O231 Fe220 1.976 . S
O231 C238 1.287 . S
O232 Fe221 1.996 . S
O232 C238 1.255 . S
O233 Fe223 1.976 . S
O233 C228 1.287 . S
O234 Fe220 1.996 . S
O234 C228 1.255 . S
C235 O239 1.295 . S
C235 O240 1.235 . S
O236 Fe221 1.976 . S
O236 C230 1.287 . S
O237 Fe223 1.996 . S
O237 C230 1.255 . S
C238 O231 1.287 . S
C238 O232 1.255 . S
O239 Fe221 2.002 . S
O239 C235 1.295 . S
O240 Fe223 1.997 . S
O240 C235 1.235 . S
C241 O224 1.295 . S
C241 O225 1.235 . S
Fe242 O244 1.918 . S
Fe242 O247 1.997 . S
Fe242 O248 2.002 . S
Fe242 O253 1.976 . S
Fe242 O256 1.996 . S
Fe243 O244 1.918 . S
Fe243 O251 1.997 . S
Fe243 O254 1.996 . S
Fe243 O258 1.976 . S
Fe243 O261 2.002 . S
O244 Fe242 1.918 . S
O244 Fe243 1.918 . S
O244 Fe245 1.918 . S
Fe245 O244 1.918 . S
Fe245 O246 2.002 . S
Fe245 O255 1.976 . S
Fe245 O259 1.996 . S
Fe245 O262 1.997 . S
O246 Fe245 2.002 . S
O246 C263 1.295 . S
O247 Fe242 1.997 . S
O247 C263 1.235 . S
O248 Fe242 2.002 . S
O248 C249 1.295 . S
C249 O248 1.295 . S
C249 O251 1.235 . S
C250 O255 1.287 . S
C250 O256 1.255 . S
O251 Fe243 1.997 . S
O251 C249 1.235 . S
C252 O258 1.287 . S
C252 O259 1.255 . S
O253 Fe242 1.976 . S
O253 C260 1.287 . S
O254 Fe243 1.996 . S
O254 C260 1.255 . S
O255 Fe245 1.976 . S
O255 C250 1.287 . S
O256 Fe242 1.996 . S
O256 C250 1.255 . S
C257 O261 1.295 . S
C257 O262 1.235 . S
O258 Fe243 1.976 . S
O258 C252 1.287 . S
O259 Fe245 1.996 . S
O259 C252 1.255 . S
C260 O253 1.287 . S
C260 O254 1.255 . S
O261 Fe243 2.002 . S
O261 C257 1.295 . S
O262 Fe245 1.997 . S
O262 C257 1.235 . S
C263 O246 1.295 . S
C263 O247 1.235 . S
C264 C265 1.363 . S
C264 C270 1.379 . S
C264 N272 1.356 . S
C265 C264 1.363 . S
C265 C271 1.363 . S
C266 C267 1.363 . S
C266 C271 1.379 . S
C266 N273 1.356 . S
C267 C266 1.363 . S
C267 C270 1.363 . S
N268 C270 1.356 . S
N268 H280 0.984 . S
N268 H281 0.985 . S
N269 C271 1.356 . S
N269 H274 0.984 . S
N269 H275 0.985 . S
C270 C264 1.379 . S
C270 C267 1.363 . S
C270 N268 1.356 . S
C271 C265 1.363 . S
C271 C266 1.379 . S
C271 N269 1.356 . S
N272 C264 1.356 . S
N272 H278 0.984 . S
N272 H279 0.984 . S
N273 C266 1.356 . S
N273 H276 0.984 . S
N273 H277 0.985 . S
H274 N269 0.984 . S
H275 N269 0.985 . S
H276 N273 0.984 . S
H277 N273 0.985 . S
H278 N272 0.984 . S
H279 N272 0.984 . S
H280 N268 0.984 . S
H281 N268 0.985 . S
C282 C283 1.363 . S
C282 C288 1.379 . S
C282 N290 1.356 . S
C283 C282 1.363 . S
C283 C289 1.363 . S
C284 C285 1.363 . S
C284 C289 1.379 . S
C284 N291 1.356 . S
C285 C284 1.363 . S
C285 C288 1.363 . S
N286 C288 1.356 . S
N286 H298 0.984 . S
N286 H299 0.985 . S
N287 C289 1.356 . S
N287 H292 0.984 . S
N287 H293 0.985 . S
C288 C282 1.379 . S
C288 C285 1.363 . S
C288 N286 1.356 . S
C289 C283 1.363 . S
C289 C284 1.379 . S
C289 N287 1.356 . S
N290 C282 1.356 . S
N290 H296 0.984 . S
N290 H297 0.984 . S
N291 C284 1.356 . S
N291 H294 0.984 . S
N291 H295 0.985 . S
H292 N287 0.984 . S
H293 N287 0.985 . S
H294 N291 0.984 . S
H295 N291 0.985 . S
H296 N290 0.984 . S
H297 N290 0.984 . S
H298 N286 0.984 . S
H299 N286 0.985 . S
C300 C301 1.363 . S
C300 C306 1.379 . S
C300 N308 1.356 . S
C301 C300 1.363 . S
C301 C307 1.363 . S
C302 C303 1.363 . S
C302 C307 1.379 . S
C302 N309 1.356 1_556 S
C303 C302 1.363 . S
C303 C306 1.363 . S
N304 C306 1.356 . S
N304 H316 0.984 . S
N304 H317 0.985 1_556 S
N305 C307 1.356 . S
N305 H310 0.984 . S
N305 H311 0.985 . S
C306 C300 1.379 . S
C306 C303 1.363 . S
C306 N304 1.356 . S
C307 C301 1.363 . S
C307 C302 1.379 . S
C307 N305 1.356 . S
N308 C300 1.356 . S
N308 H314 0.984 . S
N308 H315 0.984 . S
N309 C302 1.356 1_554 S
N309 H312 0.984 . S
N309 H313 0.985 . S
H310 N305 0.984 . S
H311 N305 0.985 . S
H312 N309 0.984 . S
H313 N309 0.985 . S
H314 N308 0.984 . S
H315 N308 0.984 . S
H316 N304 0.984 . S
H317 N304 0.985 1_554 S
C318 C319 1.363 . S
C318 C324 1.379 1_554 S
C318 N326 1.356 . S
C319 C318 1.363 . S
C319 C325 1.363 . S
C320 C321 1.363 . S
C320 C325 1.379 1_556 S
C320 N327 1.356 . S
C321 C320 1.363 . S
C321 C324 1.363 . S
N322 C324 1.356 . S
N322 H334 0.984 . S
N322 H335 0.985 . S
N323 C325 1.356 . S
N323 H328 0.984 . S
N323 H329 0.985 . S
C324 C318 1.379 1_556 S
C324 C321 1.363 . S
C324 N322 1.356 . S
C325 C319 1.363 . S
C325 C320 1.379 1_554 S
C325 N323 1.356 . S
N326 C318 1.356 . S
N326 H332 0.984 . S
N326 H333 0.984 . S
N327 C320 1.356 . S
N327 H330 0.984 . S
N327 H331 0.985 . S
H328 N323 0.984 . S
H329 N323 0.985 . S
H330 N327 0.984 . S
H331 N327 0.985 . S
H332 N326 0.984 . S
H333 N326 0.984 . S
H334 N322 0.984 . S
H335 N322 0.985 . S
C336 C337 1.363 . S
C336 C342 1.379 . S
C336 N344 1.356 . S
C337 C336 1.363 . S
C337 C343 1.363 . S
C338 C339 1.363 . S
C338 C343 1.379 . S
C338 N345 1.356 . S
C339 C338 1.363 . S
C339 C342 1.363 . S
N340 C342 1.356 . S
N340 H352 0.984 . S
N340 H353 0.985 . S
N341 C343 1.356 . S
N341 H346 0.984 1_554 S
N341 H347 0.985 . S
C342 C336 1.379 . S
C342 C339 1.363 . S
C342 N340 1.356 . S
C343 C337 1.363 . S
C343 C338 1.379 . S
C343 N341 1.356 . S
N344 C336 1.356 . S
N344 H350 0.984 . S
N344 H351 0.984 1_554 S
N345 C338 1.356 . S
N345 H348 0.984 . S
N345 H349 0.985 . S
H346 N341 0.984 1_556 S
H347 N341 0.985 . S
H348 N345 0.984 . S
H349 N345 0.985 . S
H350 N344 0.984 . S
H351 N344 0.984 1_556 S
H352 N340 0.984 . S
H353 N340 0.985 . S
C354 C355 1.363 . S
C354 C360 1.379 . S
C354 N362 1.356 . S
C355 C354 1.363 . S
C355 C361 1.363 . S
C356 C357 1.363 . S
C356 C361 1.379 . S
C356 N363 1.356 . S
C357 C356 1.363 . S
C357 C360 1.363 . S
N358 C360 1.356 . S
N358 H370 0.984 . S
N358 H371 0.985 . S
N359 C361 1.356 . S
N359 H364 0.984 . S
N359 H365 0.985 . S
C360 C354 1.379 . S
C360 C357 1.363 . S
C360 N358 1.356 . S
C361 C355 1.363 . S
C361 C356 1.379 . S
C361 N359 1.356 . S
N362 C354 1.356 . S
N362 H368 0.984 . S
N362 H369 0.984 . S
N363 C356 1.356 . S
N363 H366 0.984 . S
N363 H367 0.985 . S
H364 N359 0.984 . S
H365 N359 0.985 . S
H366 N363 0.984 . S
H367 N363 0.985 . S
H368 N362 0.984 . S
H369 N362 0.984 . S
H370 N358 0.984 . S
H371 N358 0.985 . S
C372 C373 1.363 . S
C372 C378 1.379 . S
C372 N380 1.356 . S
C373 C372 1.363 . S
C373 C379 1.363 . S
C374 C375 1.363 . S
C374 C379 1.379 . S
C374 N381 1.356 . S
C375 C374 1.363 . S
C375 C378 1.363 . S
N376 C378 1.356 . S
N376 H388 0.984 . S
N376 H389 0.985 . S
N377 C379 1.356 . S
N377 H382 0.984 . S
N377 H383 0.985 . S
C378 C372 1.379 . S
C378 C375 1.363 . S
C378 N376 1.356 . S
C379 C373 1.363 . S
C379 C374 1.379 . S
C379 N377 1.356 . S
N380 C372 1.356 . S
N380 H386 0.984 . S
N380 H387 0.984 . S
N381 C374 1.356 . S
N381 H384 0.984 . S
N381 H385 0.985 . S
H382 N377 0.984 . S
H383 N377 0.985 . S
H384 N381 0.984 . S
H385 N381 0.985 . S
H386 N380 0.984 . S
H387 N380 0.984 . S
H388 N376 0.984 . S
H389 N376 0.985 . S
C390 C391 1.363 . S
C390 C396 1.379 . S
C390 N398 1.356 . S
C391 C390 1.363 . S
C391 C397 1.363 . S
C392 C393 1.363 . S
C392 C397 1.379 . S
C392 N399 1.356 . S
C393 C392 1.363 . S
C393 C396 1.363 . S
N394 C396 1.356 . S
N394 H406 0.984 . S
N394 H407 0.985 . S
N395 C397 1.356 . S
N395 H400 0.984 . S
N395 H401 0.985 . S
C396 C390 1.379 . S
C396 C393 1.363 . S
C396 N394 1.356 . S
C397 C391 1.363 . S
C397 C392 1.379 . S
C397 N395 1.356 . S
N398 C390 1.356 . S
N398 H404 0.984 . S
N398 H405 0.984 . S
N399 C392 1.356 . S
N399 H402 0.984 . S
N399 H403 0.985 . S
H400 N395 0.984 . S
H401 N395 0.985 . S
H402 N399 0.984 . S
H403 N399 0.985 . S
H404 N398 0.984 . S
H405 N398 0.984 . S
H406 N394 0.984 . S
H407 N394 0.985 . S
C408 C409 1.363 . S
C408 C414 1.379 . S
C408 N416 1.356 . S
C409 C408 1.363 . S
C409 C415 1.363 . S
C410 C411 1.363 . S
C410 C415 1.379 . S
C410 N417 1.356 . S
C411 C410 1.363 . S
C411 C414 1.363 . S
N412 C414 1.356 . S
N412 H424 0.984 . S
N412 H425 0.985 . S
N413 C415 1.356 . S
N413 H418 0.984 . S
N413 H419 0.985 . S
C414 C408 1.379 . S
C414 C411 1.363 . S
C414 N412 1.356 . S
C415 C409 1.363 . S
C415 C410 1.379 . S
C415 N413 1.356 . S
N416 C408 1.356 . S
N416 H422 0.984 . S
N416 H423 0.984 . S
N417 C410 1.356 . S
N417 H420 0.984 . S
N417 H421 0.985 . S
H418 N413 0.984 . S
H419 N413 0.985 . S
H420 N417 0.984 . S
H421 N417 0.985 . S
H422 N416 0.984 . S
H423 N416 0.984 . S
H424 N412 0.984 . S
H425 N412 0.985 . S
C426 C427 1.363 . S
C426 C432 1.379 . S
C426 N434 1.356 . S
C427 C426 1.363 . S
C427 C433 1.363 . S
C428 C429 1.363 . S
C428 C433 1.379 . S
C428 N435 1.356 . S
C429 C428 1.363 . S
C429 C432 1.363 . S
N430 C432 1.356 . S
N430 H442 0.984 . S
N430 H443 0.985 . S
N431 C433 1.356 . S
N431 H436 0.984 1_556 S
N431 H437 0.985 . S
C432 C426 1.379 . S
C432 C429 1.363 . S
C432 N430 1.356 . S
C433 C427 1.363 . S
C433 C428 1.379 . S
C433 N431 1.356 . S
N434 C426 1.356 . S
N434 H440 0.984 . S
N434 H441 0.984 1_556 S
N435 C428 1.356 . S
N435 H438 0.984 . S
N435 H439 0.985 . S
H436 N431 0.984 1_554 S
H437 N431 0.985 . S
H438 N435 0.984 . S
H439 N435 0.985 . S
H440 N434 0.984 . S
H441 N434 0.984 1_554 S
H442 N430 0.984 . S
H443 N430 0.985 . S
C444 C445 1.363 . S
C444 C450 1.379 1_556 S
C444 N452 1.356 . S
C445 C444 1.363 . S
C445 C451 1.363 . S
C446 C447 1.363 . S
C446 C451 1.379 1_554 S
C446 N453 1.356 . S
C447 C446 1.363 . S
C447 C450 1.363 . S
N448 C450 1.356 . S
N448 H460 0.984 . S
N448 H461 0.985 . S
N449 C451 1.356 . S
N449 H454 0.984 . S
N449 H455 0.985 . S
C450 C444 1.379 1_554 S
C450 C447 1.363 . S
C450 N448 1.356 . S
C451 C445 1.363 . S
C451 C446 1.379 1_556 S
C451 N449 1.356 . S
N452 C444 1.356 . S
N452 H458 0.984 . S
N452 H459 0.984 . S
N453 C446 1.356 . S
N453 H456 0.984 . S
N453 H457 0.985 . S
H454 N449 0.984 . S
H455 N449 0.985 . S
H456 N453 0.984 . S
H457 N453 0.985 . S
H458 N452 0.984 . S
H459 N452 0.984 . S
H460 N448 0.984 . S
H461 N448 0.985 . S
C462 C463 1.363 . S
C462 C468 1.379 . S
C462 N470 1.356 . S
C463 C462 1.363 . S
C463 C469 1.363 . S
C464 C465 1.363 . S
C464 C469 1.379 . S
C464 N471 1.356 . S
C465 C464 1.363 . S
C465 C468 1.363 . S
N466 C468 1.356 1_556 S
N466 H478 0.984 . S
N466 H479 0.985 . S
N467 C469 1.356 . S
N467 H472 0.984 . S
N467 H473 0.985 . S
C468 C462 1.379 . S
C468 C465 1.363 . S
C468 N466 1.356 1_554 S
C469 C463 1.363 . S
C469 C464 1.379 . S
C469 N467 1.356 . S
N470 C462 1.356 . S
N470 H476 0.984 . S
N470 H477 0.984 . S
N471 C464 1.356 . S
N471 H474 0.984 . S
N471 H475 0.985 . S
H472 N467 0.984 . S
H473 N467 0.985 . S
H474 N471 0.984 . S
H475 N471 0.985 . S
H476 N470 0.984 . S
H477 N470 0.984 . S
H478 N466 0.984 . S
H479 N466 0.985 . S
C480 C481 1.363 1_556 S
C480 C486 1.379 1_545 S
C480 N488 1.356 . S
C481 C480 1.363 1_554 S
C481 C487 1.363 . S
C482 C483 1.363 . S
C482 C487 1.379 1_565 S
C482 N489 1.356 . S
C483 C482 1.363 . S
C483 C486 1.363 1_554 S
N484 C486 1.356 . S
N484 H496 0.984 . S
N484 H497 0.985 . S
N485 C487 1.356 . S
N485 H490 0.984 . S
N485 H491 0.985 . S
C486 C480 1.379 1_565 S
C486 C483 1.363 1_556 S
C486 N484 1.356 . S
C487 C481 1.363 . S
C487 C482 1.379 1_545 S
C487 N485 1.356 . S
N488 C480 1.356 . S
N488 H494 0.984 . S
N488 H495 0.984 . S
N489 C482 1.356 . S
N489 H492 0.984 . S
N489 H493 0.985 . S
H490 N485 0.984 . S
H491 N485 0.985 . S
H492 N489 0.984 . S
H493 N489 0.985 . S
H494 N488 0.984 . S
H495 N488 0.984 . S
H496 N484 0.984 . S
H497 N484 0.985 . S
C498 C499 1.363 . S
C498 C504 1.379 . S
C498 N506 1.356 . S
C499 C498 1.363 . S
C499 C505 1.363 . S
C500 C501 1.363 . S
C500 C505 1.379 . S
C500 N507 1.356 . S
C501 C500 1.363 . S
C501 C504 1.363 . S
N502 C504 1.356 . S
N502 H514 0.984 . S
N502 H515 0.985 . S
N503 C505 1.356 . S
N503 H508 0.984 . S
N503 H509 0.984 1_554 S
C504 C498 1.379 . S
C504 C501 1.363 . S
C504 N502 1.356 . S
C505 C499 1.363 . S
C505 C500 1.379 . S
C505 N503 1.356 . S
N506 C498 1.356 . S
N506 H512 0.984 . S
N506 H513 0.984 . S
N507 C500 1.356 . S
N507 H510 0.984 . S
N507 H511 0.985 1_554 S
H508 N503 0.984 . S
H509 N503 0.984 1_556 S
H510 N507 0.984 . S
H511 N507 0.985 1_556 S
H512 N506 0.984 . S
H513 N506 0.984 . S
H514 N502 0.984 . S
H515 N502 0.985 . S
C516 C517 1.363 . S
C516 C522 1.379 1_455 S
C516 N524 1.356 . S
C517 C516 1.363 . S
C517 C523 1.363 . S
C518 C519 1.363 . S
C518 C523 1.379 1_655 S
C518 N525 1.356 . S
C519 C518 1.363 . S
C519 C522 1.363 . S
N520 C522 1.356 . S
N520 H532 0.984 . S
N520 H533 0.985 . S
N521 C523 1.356 . S
N521 H526 0.984 . S
N521 H527 0.985 . S
C522 C516 1.379 1_655 S
C522 C519 1.363 . S
C522 N520 1.356 . S
C523 C517 1.363 . S
C523 C518 1.379 1_455 S
C523 N521 1.356 . S
N524 C516 1.356 . S
N524 H530 0.984 . S
N524 H531 0.984 . S
N525 C518 1.356 . S
N525 H528 0.984 . S
N525 H529 0.985 . S
H526 N521 0.984 . S
H527 N521 0.985 . S
H528 N525 0.984 . S
H529 N525 0.985 . S
H530 N524 0.984 . S
H531 N524 0.984 . S
H532 N520 0.984 . S
H533 N520 0.985 . S
C534 C535 1.363 . S
C534 C540 1.379 1_565 S
C534 N542 1.356 . S
C535 C534 1.363 . S
C535 C541 1.363 . S
C536 C537 1.363 . S
C536 C541 1.379 1_545 S
C536 N543 1.356 . S
C537 C536 1.363 . S
C537 C540 1.363 . S
N538 C540 1.356 . S
N538 H550 0.984 . S
N538 H551 0.985 . S
N539 C541 1.356 . S
N539 H544 0.984 . S
N539 H545 0.985 . S
C540 C534 1.379 1_545 S
C540 C537 1.363 . S
C540 N538 1.356 . S
C541 C535 1.363 . S
C541 C536 1.379 1_565 S
C541 N539 1.356 . S
N542 C534 1.356 . S
N542 H548 0.984 . S
N542 H549 0.984 . S
N543 C536 1.356 . S
N543 H546 0.984 . S
N543 H547 0.985 . S
H544 N539 0.984 . S
H545 N539 0.985 . S
H546 N543 0.984 . S
H547 N543 0.985 . S
H548 N542 0.984 . S
H549 N542 0.984 . S
H550 N538 0.984 . S
H551 N538 0.985 . S
C552 C553 1.363 . S
C552 C558 1.379 . S
C552 N560 1.356 . S
C553 C552 1.363 . S
C553 C559 1.363 . S
C554 C555 1.363 . S
C554 C559 1.379 . S
C554 N561 1.356 . S
C555 C554 1.363 . S
C555 C558 1.363 . S
N556 C558 1.356 . S
N556 H568 0.984 . S
N556 H569 0.985 . S
N557 C559 1.356 . S
N557 H562 0.984 . S
N557 H563 0.985 . S
C558 C552 1.379 . S
C558 C555 1.363 . S
C558 N556 1.356 . S
C559 C553 1.363 . S
C559 C554 1.379 . S
C559 N557 1.356 . S
N560 C552 1.356 . S
N560 H566 0.984 . S
N560 H567 0.984 . S
N561 C554 1.356 . S
N561 H564 0.984 . S
N561 H565 0.985 . S
H562 N557 0.984 . S
H563 N557 0.985 . S
H564 N561 0.984 . S
H565 N561 0.985 . S
H566 N560 0.984 . S
H567 N560 0.984 . S
H568 N556 0.984 . S
H569 N556 0.985 . S
C570 C571 1.363 . S
C570 C576 1.379 1_455 S
C570 N578 1.356 . S
C571 C570 1.363 . S
C571 C577 1.363 . S
C572 C573 1.363 . S
C572 C577 1.379 1_655 S
C572 N579 1.356 . S
C573 C572 1.363 . S
C573 C576 1.363 . S
N574 C576 1.356 . S
N574 H586 0.984 . S
N574 H587 0.985 . S
N575 C577 1.356 . S
N575 H580 0.984 . S
N575 H581 0.985 1_556 S
C576 C570 1.379 1_655 S
C576 C573 1.363 . S
C576 N574 1.356 . S
C577 C571 1.363 . S
C577 C572 1.379 1_455 S
C577 N575 1.356 . S
N578 C570 1.356 . S
N578 H584 0.984 . S
N578 H585 0.984 . S
N579 C572 1.356 . S
N579 H582 0.984 . S
N579 H583 0.985 1_556 S
H580 N575 0.984 . S
H581 N575 0.985 1_554 S
H582 N579 0.984 . S
H583 N579 0.985 1_554 S
H584 N578 0.984 . S
H585 N578 0.984 . S
H586 N574 0.984 . S
H587 N574 0.985 . S
C588 C589 1.363 . S
C588 C594 1.379 . S
C588 N596 1.356 . S
C589 C588 1.363 . S
C589 C595 1.363 . S
C590 C591 1.363 . S
C590 C595 1.379 . S
C590 N597 1.356 . S
C591 C590 1.363 . S
C591 C594 1.363 . S
N592 C594 1.356 . S
N592 H604 0.984 . S
N592 H605 0.985 . S
N593 C595 1.356 . S
N593 H598 0.984 . S
N593 H599 0.985 . S
C594 C588 1.379 . S
C594 C591 1.363 . S
C594 N592 1.356 . S
C595 C589 1.363 . S
C595 C590 1.379 . S
C595 N593 1.356 . S
N596 C588 1.356 . S
N596 H602 0.984 . S
N596 H603 0.984 . S
N597 C590 1.356 . S
N597 H600 0.984 . S
N597 H601 0.985 . S
H598 N593 0.984 . S
H599 N593 0.985 . S
H600 N597 0.984 . S
H601 N597 0.985 . S
H602 N596 0.984 . S
H603 N596 0.984 . S
H604 N592 0.984 . S
H605 N592 0.985 . S
C606 C607 1.363 1_554 S
C606 C612 1.379 1_554 S
C606 N614 1.356 . S
C607 C606 1.363 1_556 S
C607 C613 1.363 . S
C608 C609 1.363 . S
C608 C613 1.379 . S
C608 N615 1.356 . S
C609 C608 1.363 . S
C609 C612 1.363 . S
N610 C612 1.356 . S
N610 H622 0.984 1_556 S
N610 H623 0.985 . S
N611 C613 1.356 . S
N611 H616 0.984 . S
N611 H617 0.985 . S
C612 C606 1.379 1_556 S
C612 C609 1.363 . S
C612 N610 1.356 . S
C613 C607 1.363 . S
C613 C608 1.379 . S
C613 N611 1.356 . S
N614 C606 1.356 . S
N614 H620 0.984 . S
N614 H621 0.984 . S
N615 C608 1.356 . S
N615 H618 0.984 . S
N615 H619 0.985 . S
H616 N611 0.984 . S
H617 N611 0.985 . S
H618 N615 0.984 . S
H619 N615 0.985 . S
H620 N614 0.984 . S
H621 N614 0.984 . S
H622 N610 0.984 1_554 S
H623 N610 0.985 . S
C624 C625 1.363 . S
C624 C630 1.379 . S
C624 N632 1.356 1_554 S
C625 C624 1.363 . S
C625 C631 1.363 . S
C626 C627 1.363 . S
C626 C631 1.379 . S
C626 N633 1.356 . S
C627 C626 1.363 . S
C627 C630 1.363 . S
N628 C630 1.356 . S
N628 H640 0.984 . S
N628 H641 0.985 . S
N629 C631 1.356 . S
N629 H634 0.984 . S
N629 H635 0.985 . S
C630 C624 1.379 . S
C630 C627 1.363 . S
C630 N628 1.356 . S
C631 C625 1.363 . S
C631 C626 1.379 . S
C631 N629 1.356 . S
N632 C624 1.356 1_556 S
N632 H638 0.984 . S
N632 H639 0.984 . S
N633 C626 1.356 . S
N633 H636 0.984 . S
N633 H637 0.985 . S
H634 N629 0.984 . S
H635 N629 0.985 . S
H636 N633 0.984 . S
H637 N633 0.985 . S
H638 N632 0.984 . S
H639 N632 0.984 . S
H640 N628 0.984 . S
H641 N628 0.985 . S
C642 C643 1.363 . S
C642 C648 1.379 . S
C642 N650 1.356 . S
C643 C642 1.363 . S
C643 C649 1.363 . S
C644 C645 1.363 . S
C644 C649 1.379 . S
C644 N651 1.356 . S
C645 C644 1.363 . S
C645 C648 1.363 . S
N646 C648 1.356 . S
N646 H658 0.984 . S
N646 H659 0.985 . S
N647 C649 1.356 . S
N647 H652 0.984 . S
N647 H653 0.985 . S
C648 C642 1.379 . S
C648 C645 1.363 . S
C648 N646 1.356 . S
C649 C643 1.363 . S
C649 C644 1.379 . S
C649 N647 1.356 . S
N650 C642 1.356 . S
N650 H656 0.984 . S
N650 H657 0.984 . S
N651 C644 1.356 . S
N651 H654 0.984 . S
N651 H655 0.985 . S
H652 N647 0.984 . S
H653 N647 0.985 . S
H654 N651 0.984 . S
H655 N651 0.985 . S
H656 N650 0.984 . S
H657 N650 0.984 . S
H658 N646 0.984 . S
H659 N646 0.985 . S
C660 C661 1.363 . S
C660 C666 1.379 . S
C660 N668 1.356 . S
C661 C660 1.363 . S
C661 C667 1.363 . S
C662 C663 1.363 . S
C662 C667 1.379 . S
C662 N669 1.356 . S
C663 C662 1.363 . S
C663 C666 1.363 . S
N664 C666 1.356 . S
N664 H676 0.984 . S
N664 H677 0.985 . S
N665 C667 1.356 . S
N665 H670 0.984 . S
N665 H671 0.985 . S
C666 C660 1.379 . S
C666 C663 1.363 . S
C666 N664 1.356 . S
C667 C661 1.363 . S
C667 C662 1.379 . S
C667 N665 1.356 . S
N668 C660 1.356 . S
N668 H674 0.984 . S
N668 H675 0.984 . S
N669 C662 1.356 . S
N669 H672 0.984 . S
N669 H673 0.985 . S
H670 N665 0.984 . S
H671 N665 0.985 . S
H672 N669 0.984 . S
H673 N669 0.985 . S
H674 N668 0.984 . S
H675 N668 0.984 . S
H676 N664 0.984 . S
H677 N664 0.985 . S
C678 C679 1.363 . S
C678 C684 1.379 . S
C678 N686 1.356 . S
C679 C678 1.363 . S
C679 C685 1.363 . S
C680 C681 1.363 . S
C680 C685 1.379 . S
C680 N687 1.356 . S
C681 C680 1.363 . S
C681 C684 1.363 . S
N682 C684 1.356 . S
N682 H694 0.984 . S
N682 H695 0.985 . S
N683 C685 1.356 . S
N683 H688 0.984 . S
N683 H689 0.985 . S
C684 C678 1.379 . S
C684 C681 1.363 . S
C684 N682 1.356 . S
C685 C679 1.363 . S
C685 C680 1.379 . S
C685 N683 1.356 . S
N686 C678 1.356 . S
N686 H692 0.984 . S
N686 H693 0.984 . S
N687 C680 1.356 . S
N687 H690 0.984 . S
N687 H691 0.985 . S
H688 N683 0.984 . S
H689 N683 0.985 . S
H690 N687 0.984 . S
H691 N687 0.985 . S
H692 N686 0.984 . S
H693 N686 0.984 . S
H694 N682 0.984 . S
H695 N682 0.985 . S
C696 C697 1.363 . S
C696 C702 1.379 . S
C696 N704 1.356 . S
C697 C696 1.363 . S
C697 C703 1.363 . S
C698 C699 1.363 . S
C698 C703 1.379 . S
C698 N705 1.356 1_554 S
C699 C698 1.363 . S
C699 C702 1.363 . S
N700 C702 1.356 . S
N700 H712 0.984 . S
N700 H713 0.985 . S
N701 C703 1.356 1_556 S
N701 H706 0.984 . S
N701 H707 0.985 . S
C702 C696 1.379 . S
C702 C699 1.363 . S
C702 N700 1.356 . S
C703 C697 1.363 . S
C703 C698 1.379 . S
C703 N701 1.356 1_554 S
N704 C696 1.356 . S
N704 H710 0.984 . S
N704 H711 0.984 . S
N705 C698 1.356 1_556 S
N705 H708 0.984 1_556 S
N705 H709 0.985 . S
H706 N701 0.984 . S
H707 N701 0.985 . S
H708 N705 0.984 1_554 S
H709 N705 0.985 . S
H710 N704 0.984 . S
H711 N704 0.984 . S
H712 N700 0.984 . S
H713 N700 0.985 . S
C714 C715 1.363 . S
C714 C720 1.379 . S
C714 N722 1.356 . S
C715 C714 1.363 . S
C715 C721 1.363 . S
C716 C717 1.363 . S
C716 C721 1.379 . S
C716 N723 1.356 . S
C717 C716 1.363 . S
C717 C720 1.363 . S
N718 C720 1.356 . S
N718 H730 0.984 . S
N718 H731 0.985 . S
N719 C721 1.356 . S
N719 H724 0.984 . S
N719 H725 0.985 . S
C720 C714 1.379 . S
C720 C717 1.363 . S
C720 N718 1.356 . S
C721 C715 1.363 . S
C721 C716 1.379 . S
C721 N719 1.356 . S
N722 C714 1.356 . S
N722 H728 0.984 . S
N722 H729 0.984 . S
N723 C716 1.356 . S
N723 H726 0.984 . S
N723 H727 0.985 . S
H724 N719 0.984 . S
H725 N719 0.985 . S
H726 N723 0.984 . S
H727 N723 0.985 . S
H728 N722 0.984 . S
H729 N722 0.984 . S
H730 N718 0.984 . S
H731 N718 0.985 . S
C732 C733 1.363 . S
C732 C738 1.379 . S
C732 N740 1.356 . S
C733 C732 1.363 . S
C733 C739 1.363 . S
C734 C735 1.363 . S
C734 C739 1.379 . S
C734 N741 1.356 . S
C735 C734 1.363 . S
C735 C738 1.363 . S
N736 C738 1.356 . S
N736 H748 0.984 . S
N736 H749 0.985 . S
N737 C739 1.356 . S
N737 H742 0.984 . S
N737 H743 0.985 . S
C738 C732 1.379 . S
C738 C735 1.363 . S
C738 N736 1.356 . S
C739 C733 1.363 . S
C739 C734 1.379 . S
C739 N737 1.356 . S
N740 C732 1.356 . S
N740 H746 0.984 . S
N740 H747 0.984 . S
N741 C734 1.356 . S
N741 H744 0.984 . S
N741 H745 0.985 . S
H742 N737 0.984 . S
H743 N737 0.985 . S
H744 N741 0.984 . S
H745 N741 0.985 . S
H746 N740 0.984 . S
H747 N740 0.984 . S
H748 N736 0.984 . S
H749 N736 0.985 . S
C750 C751 1.363 . S
C750 C756 1.379 . S
C750 N758 1.356 . S
C751 C750 1.363 . S
C751 C757 1.363 . S
C752 C753 1.363 . S
C752 C757 1.379 . S
C752 N759 1.356 . S
C753 C752 1.363 . S
C753 C756 1.363 . S
N754 C756 1.356 . S
N754 H766 0.984 . S
N754 H767 0.985 . S
N755 C757 1.356 . S
N755 H760 0.984 . S
N755 H761 0.985 . S
C756 C750 1.379 . S
C756 C753 1.363 . S
C756 N754 1.356 . S
C757 C751 1.363 . S
C757 C752 1.379 . S
C757 N755 1.356 . S
N758 C750 1.356 . S
N758 H764 0.984 . S
N758 H765 0.984 . S
N759 C752 1.356 . S
N759 H762 0.984 . S
N759 H763 0.985 . S
H760 N755 0.984 . S
H761 N755 0.985 . S
H762 N759 0.984 . S
H763 N759 0.985 . S
H764 N758 0.984 . S
H765 N758 0.984 . S
H766 N754 0.984 . S
H767 N754 0.985 . S
C768 C769 1.363 . S
C768 C774 1.379 . S
C768 N776 1.356 . S
C769 C768 1.363 . S
C769 C775 1.363 . S
C770 C771 1.363 . S
C770 C775 1.379 . S
C770 N777 1.356 . S
C771 C770 1.363 . S
C771 C774 1.363 . S
N772 C774 1.356 . S
N772 H784 0.984 . S
N772 H785 0.985 . S
N773 C775 1.356 . S
N773 H778 0.984 . S
N773 H779 0.985 . S
C774 C768 1.379 . S
C774 C771 1.363 . S
C774 N772 1.356 . S
C775 C769 1.363 . S
C775 C770 1.379 . S
C775 N773 1.356 . S
N776 C768 1.356 . S
N776 H782 0.984 . S
N776 H783 0.984 . S
N777 C770 1.356 . S
N777 H780 0.984 . S
N777 H781 0.985 . S
H778 N773 0.984 . S
H779 N773 0.985 . S
H780 N777 0.984 . S
H781 N777 0.985 . S
H782 N776 0.984 . S
H783 N776 0.984 . S
H784 N772 0.984 . S
H785 N772 0.985 . S
C786 C787 1.363 . S
C786 C792 1.379 . S
C786 N794 1.356 . S
C787 C786 1.363 . S
C787 C793 1.363 . S
C788 C789 1.363 . S
C788 C793 1.379 . S
C788 N795 1.356 . S
C789 C788 1.363 . S
C789 C792 1.363 . S
N790 C792 1.356 . S
N790 H802 0.984 . S
N790 H803 0.985 . S
N791 C793 1.356 . S
N791 H796 0.984 . S
N791 H797 0.985 . S
C792 C786 1.379 . S
C792 C789 1.363 . S
C792 N790 1.356 . S
C793 C787 1.363 . S
C793 C788 1.379 . S
C793 N791 1.356 . S
N794 C786 1.356 . S
N794 H800 0.984 . S
N794 H801 0.984 . S
N795 C788 1.356 . S
N795 H798 0.984 . S
N795 H799 0.985 . S
H796 N791 0.984 . S
H797 N791 0.985 . S
H798 N795 0.984 . S
H799 N795 0.985 . S
H800 N794 0.984 . S
H801 N794 0.984 . S
H802 N790 0.984 . S
H803 N790 0.985 . S
C804 C805 1.363 . S
C804 C810 1.379 . S
C804 N812 1.356 . S
C805 C804 1.363 . S
C805 C811 1.363 . S
C806 C807 1.363 . S
C806 C811 1.379 . S
C806 N813 1.356 . S
C807 C806 1.363 . S
C807 C810 1.363 . S
N808 C810 1.356 . S
N808 H820 0.984 . S
N808 H821 0.985 . S
N809 C811 1.356 . S
N809 H814 0.984 . S
N809 H815 0.985 . S
C810 C804 1.379 . S
C810 C807 1.363 . S
C810 N808 1.356 . S
C811 C805 1.363 . S
C811 C806 1.379 . S
C811 N809 1.356 . S
N812 C804 1.356 . S
N812 H818 0.984 . S
N812 H819 0.984 . S
N813 C806 1.356 . S
N813 H816 0.984 . S
N813 H817 0.985 . S
H814 N809 0.984 . S
H815 N809 0.985 . S
H816 N813 0.984 . S
H817 N813 0.985 . S
H818 N812 0.984 . S
H819 N812 0.984 . S
H820 N808 0.984 . S
H821 N808 0.985 . S
C822 C823 1.363 . S
C822 C828 1.379 . S
C822 N830 1.356 . S
C823 C822 1.363 . S
C823 C829 1.363 . S
C824 C825 1.363 . S
C824 C829 1.379 . S
C824 N831 1.356 . S
C825 C824 1.363 . S
C825 C828 1.363 . S
N826 C828 1.356 . S
N826 H838 0.984 . S
N826 H839 0.985 . S
N827 C829 1.356 . S
N827 H832 0.984 . S
N827 H833 0.985 . S
C828 C822 1.379 . S
C828 C825 1.363 . S
C828 N826 1.356 . S
C829 C823 1.363 . S
C829 C824 1.379 . S
C829 N827 1.356 . S
N830 C822 1.356 . S
N830 H836 0.984 . S
N830 H837 0.984 . S
N831 C824 1.356 . S
N831 H834 0.984 . S
N831 H835 0.985 . S
H832 N827 0.984 . S
H833 N827 0.985 . S
H834 N831 0.984 . S
H835 N831 0.985 . S
H836 N830 0.984 . S
H837 N830 0.984 . S
H838 N826 0.984 . S
H839 N826 0.985 . S
C840 C841 1.363 . S
C840 C846 1.379 . S
C840 N848 1.356 . S
C841 C840 1.363 . S
C841 C847 1.363 . S
C842 C843 1.363 . S
C842 C847 1.379 . S
C842 N849 1.356 . S
C843 C842 1.363 . S
C843 C846 1.363 . S
N844 C846 1.356 . S
N844 H856 0.984 . S
N844 H857 0.985 . S
N845 C847 1.356 . S
N845 H850 0.984 . S
N845 H851 0.985 . S
C846 C840 1.379 . S
C846 C843 1.363 . S
C846 N844 1.356 . S
C847 C841 1.363 . S
C847 C842 1.379 . S
C847 N845 1.356 . S
N848 C840 1.356 . S
N848 H854 0.984 . S
N848 H855 0.984 . S
N849 C842 1.356 . S
N849 H852 0.984 . S
N849 H853 0.985 . S
H850 N845 0.984 . S
H851 N845 0.985 . S
H852 N849 0.984 . S
H853 N849 0.985 . S
H854 N848 0.984 . S
H855 N848 0.984 . S
H856 N844 0.984 . S
H857 N844 0.985 . S
C858 C859 1.363 . S
C858 C864 1.379 . S
C858 N866 1.356 . S
C859 C858 1.363 . S
C859 C865 1.363 . S
C860 C861 1.363 . S
C860 C865 1.379 . S
C860 N867 1.356 . S
C861 C860 1.363 . S
C861 C864 1.363 . S
N862 C864 1.356 . S
N862 H874 0.984 . S
N862 H875 0.985 . S
N863 C865 1.356 . S
N863 H868 0.984 . S
N863 H869 0.985 . S
C864 C858 1.379 . S
C864 C861 1.363 . S
C864 N862 1.356 . S
C865 C859 1.363 . S
C865 C860 1.379 . S
C865 N863 1.356 . S
N866 C858 1.356 . S
N866 H872 0.984 . S
N866 H873 0.984 . S
N867 C860 1.356 . S
N867 H870 0.984 . S
N867 H871 0.985 . S
H868 N863 0.984 . S
H869 N863 0.985 . S
H870 N867 0.984 . S
H871 N867 0.985 . S
H872 N866 0.984 . S
H873 N866 0.984 . S
H874 N862 0.984 . S
H875 N862 0.985 . S
C876 C877 1.363 . S
C876 C882 1.379 . S
C876 N884 1.356 . S
C877 C876 1.363 . S
C877 C883 1.363 . S
C878 C879 1.363 1_554 S
C878 C883 1.379 1_554 S
C878 N885 1.356 . S
C879 C878 1.363 1_556 S
C879 C882 1.363 . S
N880 C882 1.356 . S
N880 H892 0.984 . S
N880 H893 0.985 . S
N881 C883 1.356 1_554 S
N881 H886 0.984 1_554 S
N881 H887 0.985 . S
C882 C876 1.379 . S
C882 C879 1.363 . S
C882 N880 1.356 . S
C883 C877 1.363 . S
C883 C878 1.379 1_556 S
C883 N881 1.356 1_556 S
N884 C876 1.356 . S
N884 H890 0.984 . S
N884 H891 0.984 . S
N885 C878 1.356 . S
N885 H888 0.984 . S
N885 H889 0.985 . S
H886 N881 0.984 1_556 S
H887 N881 0.985 . S
H888 N885 0.984 . S
H889 N885 0.985 . S
H890 N884 0.984 . S
H891 N884 0.984 . S
H892 N880 0.984 . S
H893 N880 0.985 . S
C894 C895 1.363 . S
C894 C900 1.379 . S
C894 N902 1.356 . S
C895 C894 1.363 . S
C895 C901 1.363 . S
C896 C897 1.363 . S
C896 C901 1.379 . S
C896 N903 1.356 1_554 S
C897 C896 1.363 . S
C897 C900 1.363 . S
N898 C900 1.356 . S
N898 H910 0.984 . S
N898 H911 0.985 . S
N899 C901 1.356 . S
N899 H904 0.984 . S
N899 H905 0.985 1_554 S
C900 C894 1.379 . S
C900 C897 1.363 . S
C900 N898 1.356 . S
C901 C895 1.363 . S
C901 C896 1.379 . S
C901 N899 1.356 . S
N902 C894 1.356 . S
N902 H908 0.984 . S
N902 H909 0.984 . S
N903 C896 1.356 1_556 S
N903 H906 0.984 . S
N903 H907 0.985 . S
H904 N899 0.984 . S
H905 N899 0.985 1_556 S
H906 N903 0.984 . S
H907 N903 0.985 . S
H908 N902 0.984 . S
H909 N902 0.984 . S
H910 N898 0.984 . S
H911 N898 0.985 . S
C265 C10 1.600 . S
C267 C21 1.648 . S
C283 C30 1.600 . S
C285 C29 1.648 . S
C301 C65 1.648 . S
C303 C54 1.600 1_556 S
C319 C74 1.600 . S
C321 C73 1.648 . S
C337 C103 1.648 1_554 S
C339 C106 1.600 . S
C355 C118 1.600 . S
C357 C117 1.648 . S
C373 C140 1.600 . S
C375 C139 1.648 . S
C391 C161 1.648 . S
C393 C162 1.600 . S
C409 C183 1.648 . S
C411 C184 1.600 . S
C427 C205 1.648 1_556 S
C429 C206 1.600 . S
C445 C228 1.600 . S
C447 C227 1.648 . S
C463 C249 1.648 . S
C465 C250 1.600 1_554 S
C481 C8 1.489 . S
C483 C172 1.489 . S
C499 C194 1.489 . S
C501 C40 1.489 . S
C517 C216 1.489 . S
C519 C52 1.489 . S
C535 C84 1.489 . S
C537 C238 1.489 . S
C553 C98 1.489 . S
C555 C260 1.489 . S
C571 C128 1.489 . S
C573 C150 1.489 . S
C589 C18 1.239 . S
C591 C230 1.239 . S
C607 C32 1.239 1_556 S
C609 C252 1.239 . S
C625 C142 1.239 1_554 S
C627 C62 1.239 . S
C643 C76 1.240 . S
C645 C164 1.240 . S
C661 C96 1.239 . S
C663 C186 1.239 . S
C679 C208 1.239 . S
C681 C120 1.239 . S
C697 C15 1.230 . S
C699 C197 1.230 . S
C715 C219 1.229 . S
C717 C43 1.229 . S
C733 C241 1.229 . S
C735 C59 1.229 . S
C751 C87 1.230 . S
C753 C263 1.230 . S
C769 C153 1.229 . S
C771 C95 1.229 . S
C787 C131 1.229 . S
C789 C175 1.229 . S
C805 C7 1.491 . S
C807 C235 1.491 . S
C823 C37 1.491 . S
C825 C257 1.491 . S
C841 C51 1.491 . S
C843 C147 1.491 . S
C859 C169 1.490 . S
C861 C81 1.490 . S
C877 C109 1.491 . S
C879 C191 1.491 1_556 S
C895 C213 1.491 . S
C897 C125 1.491 1_554 S
