# Generated by pormake.
# Topology snl, (6)-cn, num edge types: 1
# Building blocks:
#     Node 0, Type 0, BuildingBlock: CUWYAW_clean_sbu_0, # of connection points: 6
#     Node 1, Type 0, BuildingBlock: CUWYAW_clean_sbu_0, # of connection points: 6
#     Node 2, Type 0, BuildingBlock: CUWYAW_clean_sbu_0, # of connection points: 6
#     Node 3, Type 0, BuildingBlock: CUWYAW_clean_sbu_0, # of connection points: 6
#     Node 4, Type 0, BuildingBlock: CUWYAW_clean_sbu_0, # of connection points: 6
#     Node 5, Type 0, BuildingBlock: CUWYAW_clean_sbu_0, # of connection points: 6
#     Node 6, Type 0, BuildingBlock: CUWYAW_clean_sbu_0, # of connection points: 6
#     Node 7, Type 0, BuildingBlock: CUWYAW_clean_sbu_0, # of connection points: 6
#     Node 8, Type 0, BuildingBlock: CUWYAW_clean_sbu_0, # of connection points: 6
#     Node 9, Type 0, BuildingBlock: CUWYAW_clean_sbu_0, # of connection points: 6
#     Node 10, Type 0, BuildingBlock: CUWYAW_clean_sbu_0, # of connection points: 6
#     Node 11, Type 0, BuildingBlock: CUWYAW_clean_sbu_0, # of connection points: 6
#     Node 12, Type 0, BuildingBlock: CUWYAW_clean_sbu_0, # of connection points: 6
#     Node 13, Type 0, BuildingBlock: CUWYAW_clean_sbu_0, # of connection points: 6
#     Node 14, Type 0, BuildingBlock: CUWYAW_clean_sbu_0, # of connection points: 6
#     Node 15, Type 0, BuildingBlock: CUWYAW_clean_sbu_0, # of connection points: 6
#     Edge 16, Type (0, 0), BuildingBlock: EZIPEK_clean_linker_0, # of connection points: 2
#     Edge 17, Type (0, 0), BuildingBlock: EZIPEK_clean_linker_0, # of connection points: 2
#     Edge 18, Type (0, 0), BuildingBlock: EZIPEK_clean_linker_0, # of connection points: 2
#     Edge 19, Type (0, 0), BuildingBlock: EZIPEK_clean_linker_0, # of connection points: 2
#     Edge 20, Type (0, 0), BuildingBlock: EZIPEK_clean_linker_0, # of connection points: 2
#     Edge 21, Type (0, 0), BuildingBlock: EZIPEK_clean_linker_0, # of connection points: 2
#     Edge 22, Type (0, 0), BuildingBlock: EZIPEK_clean_linker_0, # of connection points: 2
#     Edge 23, Type (0, 0), BuildingBlock: EZIPEK_clean_linker_0, # of connection points: 2
#     Edge 24, Type (0, 0), BuildingBlock: EZIPEK_clean_linker_0, # of connection points: 2
#     Edge 25, Type (0, 0), BuildingBlock: EZIPEK_clean_linker_0, # of connection points: 2
#     Edge 26, Type (0, 0), BuildingBlock: EZIPEK_clean_linker_0, # of connection points: 2
#     Edge 27, Type (0, 0), BuildingBlock: EZIPEK_clean_linker_0, # of connection points: 2
#     Edge 28, Type (0, 0), BuildingBlock: EZIPEK_clean_linker_0, # of connection points: 2
#     Edge 29, Type (0, 0), BuildingBlock: EZIPEK_clean_linker_0, # of connection points: 2
#     Edge 30, Type (0, 0), BuildingBlock: EZIPEK_clean_linker_0, # of connection points: 2
#     Edge 31, Type (0, 0), BuildingBlock: EZIPEK_clean_linker_0, # of connection points: 2
#     Edge 32, Type (0, 0), BuildingBlock: EZIPEK_clean_linker_0, # of connection points: 2
#     Edge 33, Type (0, 0), BuildingBlock: EZIPEK_clean_linker_0, # of connection points: 2
#     Edge 34, Type (0, 0), BuildingBlock: EZIPEK_clean_linker_0, # of connection points: 2
#     Edge 35, Type (0, 0), BuildingBlock: EZIPEK_clean_linker_0, # of connection points: 2
#     Edge 36, Type (0, 0), BuildingBlock: EZIPEK_clean_linker_0, # of connection points: 2
#     Edge 37, Type (0, 0), BuildingBlock: EZIPEK_clean_linker_0, # of connection points: 2
#     Edge 38, Type (0, 0), BuildingBlock: EZIPEK_clean_linker_0, # of connection points: 2
#     Edge 39, Type (0, 0), BuildingBlock: EZIPEK_clean_linker_0, # of connection points: 2
#     Edge 40, Type (0, 0), BuildingBlock: EZIPEK_clean_linker_0, # of connection points: 2
#     Edge 41, Type (0, 0), BuildingBlock: EZIPEK_clean_linker_0, # of connection points: 2
#     Edge 42, Type (0, 0), BuildingBlock: EZIPEK_clean_linker_0, # of connection points: 2
#     Edge 43, Type (0, 0), BuildingBlock: EZIPEK_clean_linker_0, # of connection points: 2
#     Edge 44, Type (0, 0), BuildingBlock: EZIPEK_clean_linker_0, # of connection points: 2
#     Edge 45, Type (0, 0), BuildingBlock: EZIPEK_clean_linker_0, # of connection points: 2
#     Edge 46, Type (0, 0), BuildingBlock: EZIPEK_clean_linker_0, # of connection points: 2
#     Edge 47, Type (0, 0), BuildingBlock: EZIPEK_clean_linker_0, # of connection points: 2
#     Edge 48, Type (0, 0), BuildingBlock: EZIPEK_clean_linker_0, # of connection points: 2
#     Edge 49, Type (0, 0), BuildingBlock: EZIPEK_clean_linker_0, # of connection points: 2
#     Edge 50, Type (0, 0), BuildingBlock: EZIPEK_clean_linker_0, # of connection points: 2
#     Edge 51, Type (0, 0), BuildingBlock: EZIPEK_clean_linker_0, # of connection points: 2
#     Edge 52, Type (0, 0), BuildingBlock: EZIPEK_clean_linker_0, # of connection points: 2
#     Edge 53, Type (0, 0), BuildingBlock: EZIPEK_clean_linker_0, # of connection points: 2
#     Edge 54, Type (0, 0), BuildingBlock: EZIPEK_clean_linker_0, # of connection points: 2
#     Edge 55, Type (0, 0), BuildingBlock: EZIPEK_clean_linker_0, # of connection points: 2
#     Edge 56, Type (0, 0), BuildingBlock: EZIPEK_clean_linker_0, # of connection points: 2
#     Edge 57, Type (0, 0), BuildingBlock: EZIPEK_clean_linker_0, # of connection points: 2
#     Edge 58, Type (0, 0), BuildingBlock: EZIPEK_clean_linker_0, # of connection points: 2
#     Edge 59, Type (0, 0), BuildingBlock: EZIPEK_clean_linker_0, # of connection points: 2
#     Edge 60, Type (0, 0), BuildingBlock: EZIPEK_clean_linker_0, # of connection points: 2
#     Edge 61, Type (0, 0), BuildingBlock: EZIPEK_clean_linker_0, # of connection points: 2
#     Edge 62, Type (0, 0), BuildingBlock: EZIPEK_clean_linker_0, # of connection points: 2
#     Edge 63, Type (0, 0), BuildingBlock: EZIPEK_clean_linker_0, # of connection points: 2
# Relax obj value: 0.195
# Max RMSD: 0.264
# Mean RMSD: 0.243
data_MOF--net-snl--node1-CUWYAW_clean_sbu_0--edge1-EZIPEK_clean_linker_0
_symmetry_space_group_name_H-M    P1
_symmetry_Int_Tables_number       1
_symmetry_cell_setting            triclinic
loop_
_symmetry_equiv_pos_as_xyz
'x, y, z'
_cell_length_a     41.345994
_cell_length_b     41.042763
_cell_length_c     21.701793
_cell_angle_alpha  87.391292
_cell_angle_beta   92.78666
_cell_angle_gamma 90.306326
loop_
_atom_site_label
_atom_site_type_symbol
_atom_site_fract_x
_atom_site_fract_y
_atom_site_fract_z
_atom_type_partial_charge
C0 C 0.15015 0.65671 0.99204 0.0
Eu1 Eu 0.14901 0.62994 0.10367 0.0
C2 C 0.14938 0.64527 0.92772 0.0
C3 C 0.17171 0.65795 0.88599 0.0
C4 C 0.17049 0.64872 0.82439 0.0
C5 C 0.14688 0.62662 0.8031 0.0
C6 C 0.12483 0.61343 0.84491 0.0
C7 C 0.1261 0.62258 0.90662 0.0
C8 C 0.20052 0.61065 0.18301 0.0
C9 C 0.13825 0.55317 0.11014 0.0
C10 C 0.13894 0.57561 0.34752 0.0
Eu11 Eu 0.13245 0.59966 0.23311 0.0
C12 C 0.14018 0.58458 0.41358 0.0
C13 C 0.11528 0.57372 0.45163 0.0
C14 C 0.11618 0.58029 0.51456 0.0
C15 C 0.1421 0.59779 0.54126 0.0
C16 C 0.16711 0.60872 0.5036 0.0
C17 C 0.16623 0.60213 0.44041 0.0
C18 C 0.07512 0.61034 0.16962 0.0
C19 C 0.13682 0.67992 0.21247 0.0
O20 O 0.12374 0.65274 1.0225 0.0
O21 O 0.17634 0.65062 0.02691 0.0
O22 O 0.19976 0.60785 0.12351 0.0
O23 O 0.17492 0.62466 0.1961 0.0
O24 O 0.13921 0.57983 0.07482 0.0
O25 O 0.13866 0.55441 0.17203 0.0
O26 O 0.16343 0.58282 0.31333 0.0
O27 O 0.11122 0.57927 0.31667 0.0
O28 O 0.07818 0.59883 0.22598 0.0
O29 O 0.10298 0.61666 0.14892 0.0
O30 O 0.13299 0.6546 0.25241 0.0
O31 O 0.14268 0.6762 0.15379 0.0
H32 H 0.18991 0.67537 0.90088 0.0
H33 H 0.18774 0.65917 0.79303 0.0
H34 H 0.10642 0.59635 0.82955 0.0
H35 H 0.10864 0.61216 0.93758 0.0
H36 H 0.0951 0.55981 0.43269 0.0
H37 H 0.09667 0.57158 0.54259 0.0
H38 H 0.18736 0.62224 0.52324 0.0
H39 H 0.18598 0.61059 0.41279 0.0
C40 C 0.65526 0.84367 0.57068 0.0
Eu41 Eu 0.65006 0.8608 0.45228 0.0
C42 C 0.65037 0.85652 0.6335 0.0
C43 C 0.67641 0.87085 0.66709 0.0
C44 C 0.67334 0.87985 0.72833 0.0
C45 C 0.64417 0.8748 0.75805 0.0
C46 C 0.61783 0.8612 0.72443 0.0
C47 C 0.62091 0.85208 0.66307 0.0
C48 C 0.70455 0.86463 0.37993 0.0
C49 C 0.64386 0.93916 0.4491 0.0
C50 C 0.64428 0.92149 0.21717 0.0
Eu51 Eu 0.63861 0.89331 0.32771 0.0
C52 C 0.64156 0.91536 0.14955 0.0
C53 C 0.61516 0.8988 0.12164 0.0
C54 C 0.61424 0.89294 0.05793 0.0
C55 C 0.63961 0.90358 1.02072 0.0
C56 C 0.6657 0.92045 0.04854 0.0
C57 C 0.66666 0.92621 0.11198 0.0
C58 C 0.58162 0.87281 0.37897 0.0
C59 C 0.63687 0.81387 0.34297 0.0
O60 O 0.6299 0.83678 0.53481 0.0
O61 O 0.67882 0.85638 0.5393 0.0
O62 O 0.69548 0.83925 0.41261 0.0
O63 O 0.68348 0.88639 0.38624 0.0
O64 O 0.64429 0.91168 0.4823 0.0
O65 O 0.64329 0.93904 0.38746 0.0
O66 O 0.66788 0.90671 0.24925 0.0
O67 O 0.61802 0.92303 0.24842 0.0
O68 O 0.58827 0.87101 0.3214 0.0
O69 O 0.60581 0.88572 0.40729 0.0
O70 O 0.64536 0.83928 0.30705 0.0
O71 O 0.63112 0.81745 0.40154 0.0
H72 H 0.6996 0.8744 0.64657 0.0
H73 H 0.69406 0.89015 0.75308 0.0
H74 H 0.59509 0.8569 0.74623 0.0
H75 H 0.60039 0.84084 0.63931 0.0
H76 H 0.59543 0.89009 0.14908 0.0
H77 H 0.59387 0.87981 0.03774 0.0
H78 H 0.68562 0.92881 1.02122 0.0
H79 H 0.68732 0.93902 0.13198 0.0
C80 C 0.34367 0.36081 0.50892 0.0
Eu81 Eu 0.36196 0.37135 0.62405 0.0
C82 C 0.35145 0.36837 0.44369 0.0
C83 C 0.33128 0.35585 0.39642 0.0
C84 C 0.33811 0.36163 0.33422 0.0
C85 C 0.36528 0.38013 0.3178 0.0
C86 C 0.38537 0.39311 0.36501 0.0
C87 C 0.37851 0.38726 0.42754 0.0
C88 C 0.31543 0.37691 0.71262 0.0
C89 C 0.38172 0.4455 0.62405 0.0
C90 C 0.39508 0.4109 0.85681 0.0
Eu91 Eu 0.38755 0.3945 0.74112 0.0
C92 C 0.39223 0.40192 0.9236 0.0
C93 C 0.41699 0.41145 0.96582 0.0
C94 C 0.41353 0.40732 0.02971 0.0
C95 C 0.38518 0.39353 0.05291 0.0
C96 C 0.36066 0.38317 1.01086 0.0
C97 C 0.3641 0.38738 0.94678 0.0
C98 C 0.43721 0.3894 0.66334 0.0
C99 C 0.38053 0.3148 0.71894 0.0
O100 O 0.36375 0.34208 0.54251 0.0
O101 O 0.3325 0.38447 0.54008 0.0
O102 O 0.31642 0.3541 0.67371 0.0
O103 O 0.33782 0.39695 0.70034 0.0
O104 O 0.38245 0.4192 0.59258 0.0
O105 O 0.37977 0.44317 0.685 0.0
O106 O 0.3685 0.41542 0.82255 0.0
O107 O 0.41798 0.39786 0.82681 0.0
O108 O 0.43337 0.41284 0.70053 0.0
O109 O 0.41351 0.36921 0.66772 0.0
O110 O 0.38352 0.33826 0.7595 0.0
O111 O 0.37573 0.32193 0.65984 0.0
H112 H 0.31024 0.34131 0.40766 0.0
H113 H 0.32224 0.35149 0.29874 0.0
H114 H 0.40642 0.40752 0.35345 0.0
H115 H 0.39436 0.3973 0.46314 0.0
H116 H 0.43874 0.42304 0.94934 0.0
H117 H 0.43273 0.41548 0.06113 0.0
H118 H 0.33859 0.37244 0.02767 0.0
H119 H 0.34447 0.37999 0.91551 0.0
C120 C 0.86542 0.16191 0.05729 0.0
Eu121 Eu 0.86604 0.13665 0.94829 0.0
C122 C 0.8676 0.15062 0.12413 0.0
C123 C 0.84229 0.13304 0.15183 0.0
C124 C 0.84404 0.12444 0.21547 0.0
C125 C 0.87107 0.13324 0.25309 0.0
C126 C 0.89657 0.15027 0.22546 0.0
C127 C 0.89484 0.15887 0.16189 0.0
C128 C 0.8135 0.11942 0.87279 0.0
C129 C 0.87721 0.06052 0.95456 0.0
C130 C 0.88208 0.08323 0.71956 0.0
Eu131 Eu 0.88232 0.10989 0.82754 0.0
C132 C 0.87963 0.09245 0.65172 0.0
C133 C 0.90591 0.10682 0.62131 0.0
C134 C 0.90415 0.11329 0.557 0.0
C135 C 0.87615 0.10547 0.52123 0.0
C136 C 0.8498 0.09135 0.55133 0.0
C137 C 0.85154 0.08484 0.61568 0.0
C138 C 0.93608 0.12982 0.89308 0.0
C139 C 0.87704 0.18779 0.83266 0.0
O140 O 0.89154 0.15956 0.02608 0.0
O141 O 0.83923 0.15487 1.02416 0.0
O142 O 0.81483 0.11541 0.93255 0.0
O143 O 0.8388 0.13394 0.85688 0.0
O144 O 0.87157 0.08623 0.98553 0.0
O145 O 0.8803 0.06313 0.89338 0.0
O146 O 0.85617 0.08597 0.75135 0.0
O147 O 0.90837 0.09151 0.7511 0.0
O148 O 0.93042 0.13488 0.83412 0.0
O149 O 0.91204 0.1146 0.91583 0.0
O150 O 0.8755 0.163 0.79578 0.0
O151 O 0.87612 0.1835 0.89324 0.0
H152 H 0.82088 0.12627 0.12457 0.0
H153 H 0.82404 0.11134 0.23561 0.0
H154 H 0.91766 0.15735 0.25335 0.0
H155 H 0.9147 0.17248 0.14236 0.0
H156 H 0.92808 0.11278 0.64705 0.0
H157 H 0.92478 0.12422 0.535 0.0
H158 H 0.82793 0.08511 0.52489 0.0
H159 H 0.83098 0.07346 0.63721 0.0
C160 C 0.16506 0.34674 0.0764 0.0
Eu161 Eu 0.1551 0.36316 0.95886 0.0
C162 C 0.15882 0.35742 0.1391 0.0
C163 C 0.17908 0.3459 0.18909 0.0
C164 C 0.17407 0.35523 0.24918 0.0
C165 C 0.14868 0.37634 0.26063 0.0
C166 C 0.12847 0.38823 0.21059 0.0
C167 C 0.13353 0.37888 0.15018 0.0
C168 C 0.20752 0.37416 0.88452 0.0
C169 C 0.14235 0.44006 0.95214 0.0
C170 C 0.15193 0.41434 0.71869 0.0
Eu171 Eu 0.13971 0.39477 0.83198 0.0
C172 C 0.14664 0.40835 0.65149 0.0
C173 C 0.12094 0.42282 0.61517 0.0
C174 C 0.11841 0.41913 0.55088 0.0
C175 C 0.14163 0.40111 0.52166 0.0
C176 C 0.16716 0.38662 0.55779 0.0
C177 C 0.16972 0.39029 0.6217 0.0
C178 C 0.08072 0.38125 0.87942 0.0
C179 C 0.14047 0.31362 0.85395 0.0
O180 O 0.14051 0.33615 0.04233 0.0
O181 O 0.18508 0.36457 0.04438 0.0
O182 O 0.20188 0.34747 0.91662 0.0
O183 O 0.18429 0.3933 0.89209 0.0
O184 O 0.13872 0.41252 0.98425 0.0
O185 O 0.147 0.44002 0.89164 0.0
O186 O 0.16867 0.39233 0.75184 0.0
O187 O 0.12895 0.42713 0.74957 0.0
O188 O 0.085 0.39528 0.82568 0.0
O189 O 0.10816 0.37495 0.90695 0.0
O190 O 0.14234 0.33937 0.81458 0.0
O191 O 0.14122 0.31688 0.91403 0.0
H192 H 0.19883 0.32952 0.18165 0.0
H193 H 0.18997 0.34584 0.28693 0.0
H194 H 0.10877 0.4046 0.21839 0.0
H195 H 0.11773 0.38829 0.11231 0.0
H196 H 0.1031 0.43739 0.63619 0.0
H197 H 0.09857 0.43063 0.52383 0.0
H198 H 0.18542 0.37276 0.53629 0.0
H199 H 0.19027 0.37941 0.64767 0.0
C200 C 0.85638 0.84704 1.0078 0.0
Eu201 Eu 0.8617 0.86691 0.12128 0.0
C202 C 0.86307 0.85567 0.94206 0.0
C203 C 0.83882 0.85006 0.89605 0.0
C204 C 0.84409 0.85716 0.83346 0.0
C205 C 0.87372 0.87037 0.81504 0.0
C206 C 0.89812 0.87609 0.86101 0.0
C207 C 0.89298 0.86848 0.92381 0.0
C208 C 0.8123 0.86808 0.20548 0.0
C209 C 0.87417 0.94381 0.12094 0.0
C210 C 0.89184 0.92109 0.35322 0.0
Eu211 Eu 0.88823 0.89396 0.2457 0.0
C212 C 0.89043 0.9122 0.4205 0.0
C213 C 0.90723 0.93137 0.46371 0.0
C214 C 0.9055 0.92435 0.52747 0.0
C215 C 0.88699 0.89788 0.5496 0.0
C216 C 0.87048 0.87838 0.50647 0.0
C217 C 0.87215 0.88546 0.44256 0.0
C218 C 0.93675 0.87635 0.17329 0.0
C219 C 0.88609 0.8158 0.23107 0.0
O220 O 0.88065 0.83938 0.04677 0.0
O221 O 0.83416 0.8639 0.03299 0.0
O222 O 0.80888 0.85642 0.15096 0.0
O223 O 0.84149 0.87685 0.21094 0.0
O224 O 0.85838 0.91987 0.09493 0.0
O225 O 0.88777 0.93983 0.17802 0.0
O226 O 0.86503 0.91877 0.3189 0.0
O227 O 0.9171 0.91136 0.32515 0.0
O228 O 0.93658 0.87187 0.23309 0.0
O229 O 0.9101 0.89017 0.1534 0.0
O230 O 0.88564 0.83931 0.2712 0.0
O231 O 0.88112 0.82162 0.17105 0.0
H232 H 0.81565 0.83996 0.90858 0.0
H233 H 0.82489 0.85245 0.79923 0.0
H234 H 0.92118 0.8863 0.84821 0.0
H235 H 0.9123 0.8728 0.958 0.0
H236 H 0.92151 0.95208 0.44808 0.0
H237 H 0.91844 0.93974 0.55966 0.0
H238 H 0.85599 0.85788 0.52234 0.0
H239 H 0.85897 0.87022 0.41043 0.0
C240 C 0.3528 0.64693 0.5578 0.0
Eu241 Eu 0.36374 0.63179 0.44475 0.0
C242 C 0.35908 0.63655 0.62343 0.0
C243 C 0.33444 0.64052 0.66468 0.0
C244 C 0.33997 0.63325 0.72787 0.0
C245 C 0.37029 0.62188 0.75103 0.0
C246 C 0.39481 0.61696 0.70974 0.0
C247 C 0.38924 0.62424 0.64625 0.0
C248 C 0.31195 0.62108 0.36137 0.0
C249 C 0.37797 0.55677 0.44985 0.0
C250 C 0.3781 0.58589 0.21461 0.0
Eu251 Eu 0.38072 0.6045 0.32871 0.0
C252 C 0.38043 0.59573 0.14819 0.0
C253 C 0.40717 0.58581 0.11604 0.0
C254 C 0.40766 0.59073 0.05177 0.0
C255 C 0.38133 0.6055 1.01836 0.0
C256 C 0.35491 0.61614 0.05026 0.0
C257 C 0.3544 0.61126 0.11454 0.0
C258 C 0.43503 0.6125 0.40207 0.0
C259 C 0.37834 0.68527 0.34224 0.0
O260 O 0.37704 0.65852 0.52698 0.0
O261 O 0.33352 0.62859 0.52476 0.0
O262 O 0.31554 0.64644 0.39415 0.0
O263 O 0.33531 0.60214 0.37555 0.0
O264 O 0.3835 0.58354 0.47897 0.0
O265 O 0.37123 0.55815 0.3893 0.0
O266 O 0.35308 0.59586 0.24304 0.0
O267 O 0.40451 0.58476 0.25033 0.0
O268 O 0.42909 0.58791 0.36752 0.0
O269 O 0.41138 0.63254 0.3965 0.0
O270 O 0.37893 0.66047 0.30451 0.0
O271 O 0.37561 0.68009 0.4018 0.0
H272 H 0.311 0.6499 0.6481 0.0
H273 H 0.32077 0.63711 0.75896 0.0
H274 H 0.41834 0.6081 0.72685 0.0
H275 H 0.40859 0.62079 0.61528 0.0
H276 H 0.42731 0.57329 0.14039 0.0
H277 H 0.42823 0.58233 0.02789 0.0
H278 H 0.33435 0.62754 0.02518 0.0
H279 H 0.33317 0.6188 0.1375 0.0
C280 C 0.65678 0.14262 0.48894 0.0
Eu281 Eu 0.6503 0.12614 0.60574 0.0
C282 C 0.64995 0.13043 0.42575 0.0
C283 C 0.67269 0.11098 0.3981 0.0
C284 C 0.66813 0.10268 0.33625 0.0
C285 C 0.64086 0.11378 0.30043 0.0
C286 C 0.61766 0.13242 0.32816 0.0
C287 C 0.62215 0.14068 0.39011 0.0
C288 C 0.70201 0.12379 0.69287 0.0
C289 C 0.64063 0.04868 0.61257 0.0
C290 C 0.64041 0.07122 0.84243 0.0
Eu291 Eu 0.63581 0.09758 0.72977 0.0
C292 C 0.63797 0.07849 0.90886 0.0
C293 C 0.60871 0.08761 0.93388 0.0
C294 C 0.60745 0.09325 0.99727 0.0
C295 C 0.63535 0.08981 0.0368 0.0
C296 C 0.66446 0.08065 1.01186 0.0
C297 C 0.66572 0.07498 0.94881 0.0
C298 C 0.58087 0.11767 0.66557 0.0
C299 C 0.63414 0.17689 0.7022 0.0
O300 O 0.63231 0.15172 0.52021 0.0
O301 O 0.67914 0.12765 0.52417 0.0
O302 O 0.69639 0.14758 0.65287 0.0
O303 O 0.68112 0.102 0.68283 0.0
O304 O 0.64557 0.07492 0.57777 0.0
O305 O 0.63637 0.05044 0.67312 0.0
O306 O 0.66465 0.08461 0.81403 0.0
O307 O 0.61405 0.06997 0.80653 0.0
O308 O 0.58731 0.12173 0.72389 0.0
O309 O 0.60456 0.10339 0.6426 0.0
O310 O 0.64247 0.1531 0.74392 0.0
O311 O 0.62811 0.16998 0.64434 0.0
H312 H 0.69456 0.10291 0.42367 0.0
H313 H 0.68643 0.08846 0.31571 0.0
H314 H 0.5965 0.14134 0.30131 0.0
H315 H 0.60429 0.15591 0.40952 0.0
H316 H 0.58684 0.09039 0.90463 0.0
H317 H 0.58475 0.10041 1.01548 0.0
H318 H 0.68627 0.07789 0.04133 0.0
H319 H 0.68854 0.0677 0.93119 0.0
C320 C 0.88746 0.42634 0.68946 0.0
Eu321 Eu 0.88999 0.40357 0.80487 0.0
C322 C 0.88112 0.41606 0.62446 0.0
C323 C 0.90125 0.39321 0.59844 0.0
C324 C 0.89785 0.38665 0.53545 0.0
C325 C 0.87429 0.40272 0.49654 0.0
C326 C 0.85364 0.42499 0.52241 0.0
C327 C 0.85706 0.43161 0.58559 0.0
C328 C 0.94595 0.38997 0.87272 0.0
C329 C 0.88179 0.32362 0.82055 0.0
C330 C 0.86942 0.34466 0.0434 0.0
Eu331 Eu 0.87007 0.37127 0.93133 0.0
C332 C 0.86944 0.35564 0.10838 0.0
C333 C 0.84303 0.37229 0.13093 0.0
C334 C 0.84336 0.38129 0.19285 0.0
C335 C 0.87004 0.37383 0.23372 0.0
C336 C 0.89657 0.35766 0.21109 0.0
C337 C 0.89624 0.34865 0.14935 0.0
C338 C 0.81947 0.39224 0.85024 0.0
C339 C 0.88363 0.44825 0.92927 0.0
O340 O 0.86326 0.42868 0.72591 0.0
O341 O 0.91349 0.41476 0.71904 0.0
O342 O 0.94441 0.40366 0.81787 0.0
O343 O 0.91726 0.38423 0.89001 0.0
O344 O 0.88645 0.34946 0.7827 0.0
O345 O 0.87583 0.32592 0.87943 0.0
O346 O 0.89589 0.35016 1.01382 0.0
O347 O 0.84327 0.34913 1.00742 0.0
O348 O 0.81943 0.39302 0.91015 0.0
O349 O 0.84565 0.3789 0.83737 0.0
O350 O 0.87699 0.42138 0.96078 0.0
O351 O 0.88697 0.44824 0.86798 0.0
H352 H 0.92024 0.38084 0.6264 0.0
H353 H 0.91406 0.36939 0.51675 0.0
H354 H 0.83523 0.43766 0.49346 0.0
H355 H 0.84137 0.44954 0.60375 0.0
H356 H 0.82197 0.37819 0.10095 0.0
H357 H 0.82262 0.39377 0.20911 0.0
H358 H 0.91744 0.35167 0.24151 0.0
H359 H 0.91695 0.33586 0.1337 0.0
C360 C 0.39153 0.07241 0.84068 0.0
Eu361 Eu 0.39031 0.09855 0.72728 0.0
C362 C 0.38824 0.08167 0.90643 0.0
C363 C 0.41532 0.092 0.94269 0.0
C364 C 0.41267 0.09864 1.00535 0.0
C365 C 0.38295 0.09495 0.03383 0.0
C366 C 0.35584 0.08471 0.99792 0.0
C367 C 0.35845 0.07808 0.93518 0.0
C368 C 0.44358 0.11707 0.6654 0.0
C369 C 0.38767 0.17684 0.70716 0.0
C370 C 0.36569 0.15097 0.48643 0.0
Eu371 Eu 0.37279 0.12644 0.60046 0.0
C372 C 0.36926 0.14022 0.42165 0.0
C373 C 0.34204 0.1296 0.38612 0.0
C374 C 0.34464 0.12126 0.32435 0.0
C375 C 0.37448 0.12351 0.29596 0.0
C376 C 0.40179 0.13377 0.33128 0.0
C377 C 0.39924 0.14206 0.39321 0.0
C378 C 0.32105 0.11144 0.67519 0.0
C379 C 0.38427 0.05119 0.60574 0.0
O380 O 0.36573 0.07348 0.80338 0.0
O381 O 0.41734 0.08211 0.81243 0.0
O382 O 0.43966 0.12098 0.72347 0.0
O383 O 0.41876 0.10288 0.64171 0.0
O384 O 0.38324 0.15206 0.7472 0.0
O385 O 0.38848 0.17232 0.64742 0.0
O386 O 0.39184 0.1549 0.52186 0.0
O387 O 0.34212 0.13805 0.51736 0.0
O388 O 0.3214 0.10601 0.61683 0.0
O389 O 0.34728 0.12512 0.69009 0.0
O390 O 0.38613 0.07793 0.57136 0.0
O391 O 0.38235 0.05237 0.66719 0.0
H392 H 0.43877 0.09465 0.92284 0.0
H393 H 0.43396 0.10647 0.03185 0.0
H394 H 0.33264 0.08165 1.0186 0.0
H395 H 0.33714 0.06976 0.90934 0.0
H396 H 0.31848 0.12814 0.40584 0.0
H397 H 0.32317 0.11352 0.29828 0.0
H398 H 0.42509 0.13578 0.31062 0.0
H399 H 0.42072 0.15033 0.41854 0.0
C400 C 0.67554 0.63446 0.55251 0.0
Eu401 Eu 0.65216 0.6309 0.43894 0.0
C402 C 0.66489 0.63439 0.61666 0.0
C403 C 0.68395 0.65028 0.66147 0.0
C404 C 0.67649 0.64762 0.72379 0.0
C405 C 0.64978 0.62901 0.74237 0.0
C406 C 0.63005 0.6139 0.69739 0.0
C407 C 0.63752 0.6166 0.63497 0.0
C408 C 0.63388 0.67792 0.35337 0.0
C409 C 0.57422 0.62414 0.40255 0.0
C410 C 0.61001 0.59225 0.19758 0.0
Eu411 Eu 0.62917 0.60248 0.31167 0.0
C412 C 0.61682 0.59901 0.13184 0.0
C413 C 0.60607 0.57652 0.08839 0.0
C414 C 0.61171 0.58193 0.02566 0.0
C415 C 0.62826 0.60999 1.00505 0.0
C416 C 0.63925 0.63252 0.04845 0.0
C417 C 0.6336 0.62706 0.11149 0.0
C418 C 0.63257 0.55439 0.40927 0.0
C419 C 0.7061 0.61723 0.33219 0.0
O420 O 0.67174 0.60714 0.52405 0.0
O421 O 0.66906 0.66022 0.51627 0.0
O422 O 0.62942 0.67859 0.41217 0.0
O423 O 0.64909 0.65189 0.34134 0.0
O424 O 0.59694 0.62715 0.44781 0.0
O425 O 0.5813 0.61855 0.34532 0.0
O426 O 0.59913 0.61616 0.22898 0.0
O427 O 0.63048 0.57338 0.23019 0.0
O428 O 0.62505 0.54843 0.35213 0.0
O429 O 0.63758 0.58444 0.40774 0.0
O430 O 0.68196 0.60945 0.29352 0.0
O431 O 0.70083 0.62487 0.39025 0.0
H432 H 0.7052 0.66404 0.64847 0.0
H433 H 0.69199 0.65943 0.75778 0.0
H434 H 0.60938 0.59938 0.71082 0.0
H435 H 0.62243 0.60414 0.60129 0.0
H436 H 0.59318 0.55468 0.10305 0.0
H437 H 0.60312 0.56423 0.99307 0.0
H438 H 0.65217 0.65427 0.03349 0.0
H439 H 0.64227 0.64466 0.14419 0.0
C440 C 0.12899 0.92234 0.33014 0.0
Eu441 Eu 0.12977 0.897 0.2209 0.0
C442 C 0.1307 0.91324 0.39763 0.0
C443 C 0.10626 0.92382 0.4349 0.0
C444 C 0.10822 0.91755 0.49912 0.0
C445 C 0.13474 0.90062 0.5277 0.0
C446 C 0.15912 0.88973 0.49065 0.0
C447 C 0.15718 0.89601 0.42631 0.0
C448 C 0.07438 0.87914 0.1569 0.0
C449 C 0.13561 0.81918 0.2085 0.0
C450 C 0.14992 0.85017 0.99183 0.0
Eu451 Eu 0.14484 0.87483 0.10065 0.0
C452 C 0.14769 0.86003 0.9248 0.0
C453 C 0.17071 0.84819 0.88582 0.0
C454 C 0.16861 0.85581 0.82203 0.0
C455 C 0.14341 0.87546 0.79568 0.0
C456 C 0.12057 0.88776 0.83459 0.0
C457 C 0.12268 0.88015 0.89855 0.0
C458 C 0.19847 0.89107 0.17655 0.0
C459 C 0.13633 0.95006 0.09972 0.0
O460 O 0.15506 0.91899 0.29947 0.0
O461 O 0.10289 0.91446 0.29783 0.0
O462 O 0.08161 0.87186 0.21456 0.0
O463 O 0.09786 0.89531 0.13368 0.0
O464 O 0.13822 0.84288 0.24805 0.0
O465 O 0.13441 0.82602 0.14856 0.0
O466 O 0.12328 0.84954 1.02198 0.0
O467 O 0.17444 0.86138 0.02467 0.0
O468 O 0.1952 0.89812 0.11777 0.0
O469 O 0.1741 0.87455 0.19157 0.0
O470 O 0.13362 0.92504 0.06484 0.0
O471 O 0.13824 0.94555 0.16129 0.0
H472 H 0.08575 0.93738 0.41433 0.0
H473 H 0.08913 0.92616 0.52667 0.0
H474 H 0.17979 0.8766 0.51166 0.0
H475 H 0.17657 0.88766 0.3992 0.0
H476 H 0.19021 0.83267 0.90472 0.0
H477 H 0.1865 0.84609 0.79306 0.0
H478 H 0.10094 0.90299 0.8153 0.0
H479 H 0.10463 0.88975 0.92731 0.0
C480 C 0.87028 0.57681 0.33331 0.0
Eu481 Eu 0.88372 0.59968 0.22241 0.0
C482 C 0.87339 0.58405 0.40021 0.0
C483 C 0.90269 0.59408 0.42947 0.0
C484 C 0.90428 0.6006 0.49283 0.0
C485 C 0.87664 0.59721 0.52815 0.0
C486 C 0.84747 0.58719 0.49879 0.0
C487 C 0.84589 0.5807 0.43576 0.0
C488 C 0.94068 0.61567 0.17295 0.0
C489 C 0.887 0.68083 0.20829 0.0
C490 C 0.8661 0.65644 0.97789 0.0
Eu491 Eu 0.86668 0.63682 0.09468 0.0
C492 C 0.87004 0.64388 0.91492 0.0
C493 C 0.8478 0.62179 0.88824 0.0
C494 C 0.85033 0.61276 0.82685 0.0
C495 C 0.87506 0.62563 0.79058 0.0
C496 C 0.89774 0.64699 0.81755 0.0
C497 C 0.89526 0.65598 0.87889 0.0
C498 C 0.81729 0.62831 0.17378 0.0
C499 C 0.87723 0.55843 0.09486 0.0
O500 O 0.85097 0.59574 0.29836 0.0
O501 O 0.89603 0.56829 0.30487 0.0
O502 O 0.93806 0.6004 0.2263 0.0
O503 O 0.91263 0.62242 0.14805 0.0
O504 O 0.88827 0.65386 0.2449 0.0
O505 O 0.88014 0.68031 0.14826 0.0
O506 O 0.8919 0.65754 1.01533 0.0
O507 O 0.84003 0.64811 1.00692 0.0
O508 O 0.8199 0.65358 0.13567 0.0
O509 O 0.8394 0.6081 0.16391 0.0
O510 O 0.8663 0.58527 0.06616 0.0
O511 O 0.88454 0.55708 0.15578 0.0
H512 H 0.92428 0.59703 0.40342 0.0
H513 H 0.92703 0.60846 0.51425 0.0
H514 H 0.82581 0.58451 0.52474 0.0
H515 H 0.82298 0.57306 0.41457 0.0
H516 H 0.82804 0.61192 0.91433 0.0
H517 H 0.83252 0.59628 0.80713 0.0
H518 H 0.91699 0.65728 0.79061 0.0
H519 H 0.91269 0.6731 0.89776 0.0
C520 C 0.17626 0.12342 0.04758 0.0
Eu521 Eu 0.1535 0.12287 0.93276 0.0
C522 C 0.16558 0.12576 0.11177 0.0
C523 C 0.18449 0.1433 0.15453 0.0
C524 C 0.17792 0.14158 0.21748 0.0
C525 C 0.15226 0.12228 0.23892 0.0
C526 C 0.13248 0.10576 0.19598 0.0
C527 C 0.13905 0.10746 0.13303 0.0
C528 C 0.13306 0.17502 0.85893 0.0
C529 C 0.07548 0.11947 0.89871 0.0
C530 C 0.11402 0.08719 0.6959 0.0
Eu531 Eu 0.1297 0.10128 0.81026 0.0
C532 C 0.12207 0.09283 0.6304 0.0
C533 C 0.1083 0.07228 0.58616 0.0
C534 C 0.11406 0.07756 0.52338 0.0
C535 C 0.13374 0.10356 0.50345 0.0
C536 C 0.14794 0.12397 0.54774 0.0
C537 C 0.14216 0.11865 0.6108 0.0
C538 C 0.13268 0.05359 0.90661 0.0
C539 C 0.20605 0.11569 0.82326 0.0
O540 O 0.16747 0.09714 1.01932 0.0
O541 O 0.17549 0.1495 1.01043 0.0
O542 O 0.12765 0.17047 0.91706 0.0
O543 O 0.14864 0.15062 0.84077 0.0
O544 O 0.0984 0.1144 0.94351 0.0
O545 O 0.08344 0.12219 0.84086 0.0
O546 O 0.1017 0.11157 0.72369 0.0
O547 O 0.1342 0.06989 0.73216 0.0
O548 O 0.10991 0.05573 0.86386 0.0
O549 O 0.15308 0.07523 0.8937 0.0
O550 O 0.18116 0.10939 0.78578 0.0
O551 O 0.20218 0.12134 0.88269 0.0
H552 H 0.20517 0.15737 0.1396 0.0
H553 H 0.19345 0.15453 0.24979 0.0
H554 H 0.11261 0.09069 0.21149 0.0
H555 H 0.12406 0.09351 0.10138 0.0
H556 H 0.09272 0.05224 0.60015 0.0
H557 H 0.10294 0.06149 0.49017 0.0
H558 H 0.16331 0.14409 0.5334 0.0
H559 H 0.1531 0.13478 0.64409 0.0
C560 C 0.63674 0.41582 0.83282 0.0
Eu561 Eu 0.63331 0.39791 0.71814 0.0
C562 C 0.63483 0.4055 0.89892 0.0
C563 C 0.61977 0.42635 0.93816 0.0
C564 C 0.62134 0.42004 1.00213 0.0
C565 C 0.63787 0.39262 0.02838 0.0
C566 C 0.65183 0.37085 0.98905 0.0
C567 C 0.65062 0.37741 0.92483 0.0
C568 C 0.57672 0.39095 0.64963 0.0
C569 C 0.63628 0.31675 0.70697 0.0
C570 C 0.65706 0.35392 0.492 0.0
Eu571 Eu 0.64782 0.37103 0.60477 0.0
C572 C 0.6517 0.36225 0.42536 0.0
C573 C 0.66058 0.33926 0.38348 0.0
C574 C 0.65694 0.34608 0.31988 0.0
C575 C 0.64433 0.37606 0.29671 0.0
C576 C 0.63535 0.39931 0.33851 0.0
C577 C 0.63893 0.39239 0.40262 0.0
C578 C 0.7015 0.37994 0.68541 0.0
C579 C 0.6376 0.44695 0.59816 0.0
O580 O 0.66136 0.40562 0.8037 0.0
O581 O 0.61014 0.41742 0.79781 0.0
O582 O 0.58484 0.41614 0.68103 0.0
O583 O 0.60004 0.37031 0.65353 0.0
O584 O 0.63513 0.34172 0.74411 0.0
O585 O 0.63822 0.32218 0.64742 0.0
O586 O 0.63209 0.34467 0.52308 0.0
O587 O 0.67715 0.37206 0.52367 0.0
O588 O 0.6954 0.35391 0.65549 0.0
O589 O 0.67906 0.40008 0.67132 0.0
O590 O 0.63039 0.42037 0.56937 0.0
O591 O 0.64458 0.44461 0.65867 0.0
H592 H 0.6076 0.44819 0.91942 0.0
H593 H 0.61003 0.43691 0.03141 0.0
H594 H 0.66442 0.34935 1.00822 0.0
H595 H 0.66261 0.36097 0.89571 0.0
H596 H 0.67066 0.31599 0.40006 0.0
H597 H 0.66428 0.32799 0.28855 0.0
H598 H 0.62576 0.42271 0.32152 0.0
H599 H 0.63201 0.41052 0.43421 0.0
C600 C 0.3774 0.92731 0.19301 0.0
Eu601 Eu 0.38608 0.90517 0.30825 0.0
C602 C 0.38128 0.91921 0.12719 0.0
C603 C 0.40853 0.9296 0.09492 0.0
C604 C 0.41018 0.92466 0.03134 0.0
C605 C 0.38452 0.90945 0.99858 0.0
C606 C 0.35751 0.89879 0.03074 0.0
C607 C 0.35584 0.90369 0.09403 0.0
C608 C 0.44375 0.88916 0.36705 0.0
C609 C 0.38399 0.82383 0.33146 0.0
C610 C 0.35455 0.85979 0.54604 0.0
Eu611 Eu 0.36728 0.87365 0.43047 0.0
C612 C 0.36189 0.87039 0.61 0.0
C613 C 0.33697 0.86975 0.65185 0.0
C614 C 0.34305 0.87812 0.7133 0.0
C615 C 0.37424 0.88735 0.73448 0.0
C616 C 0.39916 0.88876 0.69245 0.0
C617 C 0.39304 0.8804 0.63068 0.0
C618 C 0.31729 0.88344 0.34066 0.0
C619 C 0.38429 0.94886 0.42966 0.0
O620 O 0.35613 0.91033 0.22338 0.0
O621 O 0.40282 0.93464 0.22823 0.0
O622 O 0.44012 0.90451 0.31374 0.0
O623 O 0.4161 0.8835 0.39021 0.0
O624 O 0.38457 0.84948 0.2914 0.0
O625 O 0.38111 0.82717 0.39088 0.0
O626 O 0.3774 0.84549 0.51739 0.0
O627 O 0.33712 0.87955 0.5092 0.0
O628 O 0.32016 0.85831 0.3787 0.0
O629 O 0.33998 0.90307 0.3547 0.0
O630 O 0.38756 0.92096 0.46063 0.0
O631 O 0.38001 0.94998 0.36828 0.0
H632 H 0.42832 0.94209 0.11851 0.0
H633 H 0.43127 0.93312 1.00748 0.0
H634 H 0.33741 0.88709 1.00654 0.0
H635 H 0.33415 0.89592 0.11666 0.0
H636 H 0.31274 0.86228 0.63715 0.0
H637 H 0.32346 0.87687 0.74473 0.0
H638 H 0.4234 0.89587 0.7077 0.0
H639 H 0.41269 0.8814 0.59939 0.0
C640 C 0.16066 0.59022 0.71686 0.0
C641 C 0.14469 0.61831 0.73632 0.0
C642 C 0.1264 0.63241 0.62851 0.0
C643 C 0.14281 0.60466 0.60876 0.0
N644 N 0.17642 0.55757 0.63208 0.0
N645 N 0.10821 0.66324 0.71352 0.0
C646 C 0.16004 0.58356 0.65255 0.0
C647 C 0.12643 0.63862 0.69281 0.0
N648 N 0.17567 0.56955 0.7604 0.0
N649 N 0.11173 0.65347 0.58526 0.0
H650 H 0.10809 0.66885 0.7599 0.0
H651 H 0.09151 0.67686 0.68595 0.0
H652 H 0.11058 0.64936 0.53812 0.0
H653 H 0.1023 0.67599 0.59498 0.0
H654 H 0.18565 0.54719 0.75132 0.0
H655 H 0.17703 0.57408 0.80736 0.0
H656 H 0.19176 0.54245 0.65968 0.0
H657 H 0.17562 0.55151 0.58587 0.0
C658 C 0.6264 0.91836 0.90693 0.0
C659 C 0.63976 0.89596 0.95323 0.0
C660 C 0.65338 0.85875 0.87191 0.0
C661 C 0.64198 0.88204 0.82541 0.0
N662 N 0.62115 0.93566 0.79796 0.0
N663 N 0.66999 0.84688 0.97961 0.0
C664 C 0.62937 0.9123 0.84283 0.0
C665 C 0.65434 0.86671 0.93555 0.0
N666 N 0.61041 0.94525 0.92441 0.0
N667 N 0.66257 0.82856 0.85527 0.0
H668 H 0.67034 0.85122 0.02663 0.0
H669 H 0.68457 0.82742 0.96952 0.0
H670 H 0.66281 0.82201 0.80941 0.0
H671 H 0.66762 0.80914 0.88673 0.0
H672 H 0.59714 0.96088 0.89383 0.0
H673 H 0.60859 0.95084 0.97053 0.0
H674 H 0.6152 0.95952 0.80697 0.0
H675 H 0.62239 0.9318 0.75094 0.0
C676 C 0.35794 0.41164 0.21496 0.0
C677 C 0.3725 0.38528 0.25085 0.0
C678 C 0.3955 0.36459 0.15745 0.0
C679 C 0.38096 0.39086 0.12137 0.0
N680 N 0.34998 0.4405 0.11444 0.0
N681 N 0.40909 0.33972 0.25931 0.0
C682 C 0.36266 0.41478 0.14992 0.0
C683 C 0.39247 0.36267 0.22286 0.0
N684 N 0.33973 0.43366 0.24362 0.0
N685 N 0.41117 0.34074 0.1286 0.0
H686 H 0.40686 0.3371 0.30694 0.0
H687 H 0.42682 0.3247 0.24359 0.0
H688 H 0.41427 0.34155 0.08114 0.0
H689 H 0.41935 0.31905 0.15049 0.0
H690 H 0.32739 0.45318 0.22148 0.0
H691 H 0.33669 0.43245 0.29111 0.0
H692 H 0.33672 0.4594 0.13088 0.0
H693 H 0.35325 0.44357 0.06717 0.0
C694 C 0.88755 0.08943 0.4126 0.0
C695 C 0.87443 0.11219 0.45223 0.0
C696 C 0.85851 0.14812 0.36144 0.0
C697 C 0.8722 0.12577 0.32184 0.0
N698 N 0.89799 0.07445 0.30765 0.0
N699 N 0.85082 0.16466 0.46607 0.0
C700 C 0.88636 0.09623 0.34701 0.0
C701 C 0.86069 0.14186 0.42696 0.0
N702 N 0.90162 0.06156 0.43823 0.0
N703 N 0.8426 0.17501 0.336 0.0
H704 H 0.85132 0.16069 0.51392 0.0
H705 H 0.84398 0.1883 0.45206 0.0
H706 H 0.84151 0.18103 0.28873 0.0
H707 H 0.82878 0.19046 0.36071 0.0
H708 H 0.91355 0.04445 0.41387 0.0
H709 H 0.90208 0.05557 0.48549 0.0
H710 H 0.90706 0.05152 0.32093 0.0
H711 H 0.89782 0.07897 0.25994 0.0
C712 C 0.15944 0.41298 0.35005 0.0
C713 C 0.14342 0.38533 0.32563 0.0
C714 C 0.12255 0.37072 0.42783 0.0
C715 C 0.13983 0.39745 0.45305 0.0
N716 N 0.17497 0.44396 0.44014 0.0
N717 N 0.10528 0.34124 0.33696 0.0
C718 C 0.15806 0.41881 0.41442 0.0
C719 C 0.12361 0.36522 0.36337 0.0
N720 N 0.17546 0.43391 0.31108 0.0
N721 N 0.10632 0.34976 0.46635 0.0
H722 H 0.1059 0.33627 0.29032 0.0
H723 H 0.08784 0.32759 0.35962 0.0
H724 H 0.10414 0.35364 0.51314 0.0
H725 H 0.09622 0.32772 0.45331 0.0
H726 H 0.18569 0.45597 0.32362 0.0
H727 H 0.17713 0.43008 0.26415 0.0
H728 H 0.19131 0.45881 0.41705 0.0
H729 H 0.17345 0.4496 0.4863 0.0
C730 C 0.8597 0.90336 0.71568 0.0
C731 C 0.87862 0.87848 0.74758 0.0
C732 C 0.90567 0.86893 0.65097 0.0
C733 C 0.88426 0.89122 0.61797 0.0
N734 N 0.83804 0.92673 0.61748 0.0
N735 N 0.91662 0.83433 0.74336 0.0
C736 C 0.86046 0.90759 0.65001 0.0
C737 C 0.90096 0.86049 0.71464 0.0
N738 N 0.84191 0.92387 0.74851 0.0
N739 N 0.93091 0.85619 0.62166 0.0
H740 H 0.91362 0.82711 0.78942 0.0
H741 H 0.93048 0.8181 0.72034 0.0
H742 H 0.93461 0.86113 0.57493 0.0
H743 H 0.94958 0.84287 0.64457 0.0
H744 H 0.83024 0.94453 0.72895 0.0
H745 H 0.84132 0.92207 0.79654 0.0
H746 H 0.81778 0.93621 0.63694 0.0
H747 H 0.83825 0.93108 0.56976 0.0
C748 C 0.3674 0.58635 0.84823 0.0
C749 C 0.37631 0.61651 0.8191 0.0
C750 C 0.39175 0.63835 0.92032 0.0
C751 C 0.38088 0.60887 0.94954 0.0
N752 N 0.35635 0.55565 0.94338 0.0
N753 N 0.39919 0.67042 0.82455 0.0
C754 C 0.3684 0.58298 0.91398 0.0
C755 C 0.38926 0.64229 0.85446 0.0
N756 N 0.35874 0.56073 0.81268 0.0
N757 N 0.40383 0.66267 0.95608 0.0
H758 H 0.39763 0.67398 0.77661 0.0
H759 H 0.40953 0.69031 0.84601 0.0
H760 H 0.40628 0.66026 1.00413 0.0
H761 H 0.41145 0.68539 0.93937 0.0
H762 H 0.35508 0.53705 0.83014 0.0
H763 H 0.35741 0.56256 0.76451 0.0
H764 H 0.34355 0.53738 0.92102 0.0
H765 H 0.35748 0.5519 0.9913 0.0
C766 C 0.64667 0.12678 0.12526 0.0
C767 C 0.63468 0.09653 0.10417 0.0
C768 C 0.62338 0.07893 0.21127 0.0
C769 C 0.63797 0.108 0.23267 0.0
N770 N 0.66694 0.15805 0.2114 0.0
N771 N 0.61467 0.04229 0.12695 0.0
C772 C 0.65049 0.13153 0.18995 0.0
C773 C 0.62371 0.07222 0.14718 0.0
N774 N 0.65365 0.15132 0.08318 0.0
N775 N 0.60878 0.05799 0.25221 0.0
H776 H 0.614 0.03677 0.08046 0.0
H777 H 0.6099 0.02225 0.15626 0.0
H778 H 0.60881 0.06179 0.29943 0.0
H779 H 0.59471 0.03812 0.23917 0.0
H780 H 0.65909 0.17509 0.09499 0.0
H781 H 0.65144 0.14866 0.03558 0.0
H782 H 0.68008 0.17404 0.18354 0.0
H783 H 0.66947 0.16294 0.25814 0.0
C784 C 0.88657 0.4105 0.32125 0.0
C785 C 0.87008 0.38216 0.30065 0.0
C786 C 0.85411 0.36921 0.4072 0.0
C787 C 0.87185 0.39652 0.42854 0.0
N788 N 0.90789 0.4415 0.40747 0.0
N789 N 0.83798 0.33415 0.32642 0.0
C790 C 0.88876 0.41683 0.38583 0.0
C791 C 0.85389 0.36162 0.34395 0.0
N792 N 0.89934 0.43187 0.27867 0.0
N793 N 0.83745 0.34982 0.44764 0.0
H794 H 0.83661 0.32617 0.28138 0.0
H795 H 0.83661 0.32617 0.28138 0.0
H796 H 0.83656 0.35435 0.49445 0.0
H797 H 0.82419 0.32945 0.43391 0.0
H798 H 0.90856 0.45473 0.28894 0.0
H799 H 0.89873 0.42769 0.23158 0.0
H800 H 0.92381 0.45499 0.38065 0.0
H801 H 0.90941 0.44731 0.45382 0.0
C802 C 0.38672 0.08462 0.21199 0.0
C803 C 0.37684 0.11609 0.22869 0.0
C804 C 0.37033 0.1334 0.11796 0.0
C805 C 0.38025 0.10199 0.1012 0.0
N806 N 0.40015 0.04829 0.13103 0.0
N807 N 0.35621 0.16949 0.19862 0.0
C808 C 0.38899 0.07774 0.14804 0.0
C809 C 0.36786 0.14021 0.18181 0.0
N810 N 0.39279 0.061 0.25758 0.0
N811 N 0.36446 0.15715 0.07253 0.0
H812 H 0.35552 0.17593 0.24447 0.0
H813 H 0.34569 0.18699 0.16792 0.0
H814 H 0.36531 0.1529 0.02562 0.0
H815 H 0.36045 0.18154 0.08056 0.0
H816 H 0.39728 0.03667 0.24985 0.0
H817 H 0.39183 0.06535 0.30444 0.0
H818 H 0.40995 0.03033 0.16158 0.0
H819 H 0.40091 0.04206 0.08506 0.0
C820 C 0.6143 0.63763 0.90069 0.0
C821 C 0.63405 0.61546 0.93781 0.0
C822 C 0.66149 0.59982 0.84554 0.0
C823 C 0.6437 0.62395 0.80945 0.0
N824 N 0.6059 0.66855 0.80307 0.0
N825 N 0.67947 0.57872 0.94774 0.0
C826 C 0.62083 0.64363 0.83717 0.0
C827 C 0.65848 0.59742 0.91076 0.0
N828 N 0.58861 0.65212 0.92571 0.0
N829 N 0.68066 0.57858 0.81715 0.0
H830 H 0.67794 0.57625 0.99556 0.0
H831 H 0.69997 0.56779 0.93192 0.0
H832 H 0.68381 0.57982 0.7697 0.0
H833 H 0.69137 0.55813 0.8396 0.0
H834 H 0.5711 0.66562 0.8998 0.0
H835 H 0.58331 0.64863 0.97206 0.0
H836 H 0.59176 0.68612 0.82193 0.0
H837 H 0.60948 0.67311 0.7562 0.0
C838 C 0.12102 0.86674 0.62328 0.0
C839 C 0.13687 0.89438 0.59658 0.0
C840 C 0.15672 0.91002 0.70042 0.0
C841 C 0.14071 0.88243 0.72703 0.0
N842 N 0.10451 0.83671 0.71595 0.0
N843 N 0.17142 0.94135 0.60759 0.0
C844 C 0.12204 0.86136 0.68893 0.0
C845 C 0.1551 0.91583 0.63471 0.0
N846 N 0.10601 0.84493 0.58542 0.0
N847 N 0.17268 0.93111 0.73851 0.0
H848 H 0.16993 0.94681 0.56013 0.0
H849 H 0.18744 0.95661 0.63092 0.0
H850 H 0.17465 0.92728 0.78639 0.0
H851 H 0.1829 0.95314 0.72391 0.0
H852 H 0.09696 0.82244 0.60056 0.0
H853 H 0.10426 0.84836 0.53745 0.0
H854 H 0.08752 0.82258 0.69228 0.0
H855 H 0.1054 0.83146 0.76347 0.0
C856 C 0.89258 0.59035 0.70494 0.0
C857 C 0.8761 0.61836 0.7233 0.0
C858 C 0.8636 0.63433 0.61371 0.0
C859 C 0.87766 0.60494 0.59549 0.0
N860 N 0.90212 0.55292 0.62395 0.0
N861 N 0.84234 0.66496 0.69593 0.0
C862 C 0.89135 0.58243 0.64123 0.0
C863 C 0.86064 0.63978 0.6778 0.0
N864 N 0.90995 0.57163 0.74837 0.0
N865 N 0.85397 0.65758 0.56959 0.0
H866 H 0.84023 0.67028 0.74211 0.0
H867 H 0.8273 0.67913 0.66575 0.0
H868 H 0.85571 0.6545 0.52241 0.0
H869 H 0.84682 0.68096 0.57955 0.0
H870 H 0.92541 0.55299 0.73771 0.0
H871 H 0.91074 0.57627 0.7953 0.0
H872 H 0.90902 0.53391 0.65512 0.0
H873 H 0.90196 0.54647 0.578 0.0
C874 C 0.16164 0.08952 0.40709 0.0
C875 C 0.13918 0.10923 0.43594 0.0
C876 C 0.12653 0.13885 0.33627 0.0
C877 C 0.14744 0.11774 0.30681 0.0
N878 N 0.18172 0.07029 0.31185 0.0
N879 N 0.09727 0.14996 0.42757 0.0
C880 C 0.16411 0.09231 0.34166 0.0
C881 C 0.12086 0.13325 0.40037 0.0
N882 N 0.1813 0.06874 0.44267 0.0
N883 N 0.1125 0.16458 0.30301 0.0
H884 H 0.09284 0.14695 0.4744 0.0
H885 H 0.08058 0.16518 0.40333 0.0
H886 H 0.11525 0.16871 0.25576 0.0
H887 H 0.09985 0.18304 0.32257 0.0
H888 H 0.20059 0.05623 0.42583 0.0
H889 H 0.17998 0.06584 0.49049 0.0
H890 H 0.19132 0.04899 0.33306 0.0
H891 H 0.18488 0.07202 0.26442 0.0
C892 C 0.6705 0.39129 0.19707 0.0
C893 C 0.64205 0.38283 0.22833 0.0
C894 C 0.6116 0.37871 0.12872 0.0
C895 C 0.64001 0.38723 0.09724 0.0
N896 N 0.69761 0.39739 0.10038 0.0
N897 N 0.5844 0.37409 0.22553 0.0
C898 C 0.6698 0.39233 0.13116 0.0
C899 C 0.61225 0.37816 0.19455 0.0
N900 N 0.69775 0.40011 0.23072 0.0
N901 N 0.58448 0.36918 0.09551 0.0
H902 H 0.58407 0.37277 0.27359 0.0
H903 H 0.56133 0.37458 0.20406 0.0
H904 H 0.58341 0.36835 0.04748 0.0
H905 H 0.56398 0.35931 0.11529 0.0
H906 H 0.71839 0.40998 0.21148 0.0
H907 H 0.69889 0.40012 0.27885 0.0
H908 H 0.7207 0.39666 0.12171 0.0
H909 H 0.69796 0.40041 0.05249 0.0
C910 C 0.39409 0.87411 0.90871 0.0
C911 C 0.38536 0.9049 0.93033 0.0
C912 C 0.3748 0.92571 0.82271 0.0
C913 C 0.38065 0.89412 0.80149 0.0
N914 N 0.39585 0.83804 0.82272 0.0
N915 N 0.36577 0.95965 0.90934 0.0
C916 C 0.39055 0.86831 0.84415 0.0
C917 C 0.37555 0.93071 0.88759 0.0
N918 N 0.40604 0.85056 0.95025 0.0
N919 N 0.36899 0.95102 0.78049 0.0
H920 H 0.36677 0.96447 0.95617 0.0
H921 H 0.35496 0.97834 0.88178 0.0
H922 H 0.36779 0.94804 0.73294 0.0
H923 H 0.36767 0.97532 0.79181 0.0
H924 H 0.41512 0.82826 0.93836 0.0
H925 H 0.40868 0.85401 0.99756 0.0
H926 H 0.40035 0.81718 0.85071 0.0
H927 H 0.39458 0.83327 0.77586 0.0
C928 C 0.1112 0.73119 0.25164 0.0
C929 C 0.13887 0.7144 0.23325 0.0
C930 C 0.16719 0.76676 0.2168 0.0
C931 C 0.13859 0.78382 0.22924 0.0
N932 N 0.08629 0.78317 0.27281 0.0
N933 N 0.19614 0.71527 0.22011 0.0
C934 C 0.11158 0.76624 0.2519 0.0
C935 C 0.16783 0.73204 0.22284 0.0
N936 N 0.0843 0.71367 0.26647 0.0
N937 N 0.1935 0.78388 0.19732 0.0
H938 H 0.19718 0.68997 0.22718 0.0
H939 H 0.21879 0.72628 0.21737 0.0
H940 H 0.19471 0.80924 0.19747 0.0
H941 H 0.21353 0.77321 0.1792 0.0
H942 H 0.06205 0.72395 0.27457 0.0
H943 H 0.08416 0.68825 0.26961 0.0
H944 H 0.06658 0.77239 0.2938 0.0
H945 H 0.08618 0.80859 0.27297 0.0
C946 C 0.52648 0.84889 0.40433 0.0
C947 C 0.54662 0.87684 0.39537 0.0
C948 C 0.49803 0.91131 0.40016 0.0
C949 C 0.47751 0.88364 0.39578 0.0
N950 N 0.47208 0.82543 0.3981 0.0
N951 N 0.55046 0.93542 0.38149 0.0
C952 C 0.49176 0.85215 0.40027 0.0
C953 C 0.53214 0.90832 0.39361 0.0
N954 N 0.54069 0.81926 0.41723 0.0
N955 N 0.48453 0.94071 0.41045 0.0
H956 H 0.57522 0.93446 0.3754 0.0
H957 H 0.54072 0.9586 0.37262 0.0
H958 H 0.45981 0.94285 0.41698 0.0
H959 H 0.49796 0.96165 0.41941 0.0
H960 H 0.52792 0.79812 0.42885 0.0
H961 H 0.56579 0.81654 0.42164 0.0
H962 H 0.4804 0.80179 0.39379 0.0
H963 H 0.44697 0.82735 0.39882 0.0
C964 C 0.35201 0.2613 0.71492 0.0
C965 C 0.37921 0.27923 0.73746 0.0
C966 C 0.40816 0.22736 0.76009 0.0
C967 C 0.38343 0.21091 0.72584 0.0
N968 N 0.33147 0.21217 0.67023 0.0
N969 N 0.43277 0.2794 0.78591 0.0
C970 C 0.35514 0.22784 0.70378 0.0
C971 C 0.40699 0.2622 0.76264 0.0
N972 N 0.32274 0.27625 0.70526 0.0
N973 N 0.43284 0.20975 0.78912 0.0
H974 H 0.43179 0.30447 0.7911 0.0
H975 H 0.45524 0.26916 0.79843 0.0
H976 H 0.43448 0.1845 0.78655 0.0
H977 H 0.45021 0.21964 0.81922 0.0
H978 H 0.30118 0.26401 0.69473 0.0
H979 H 0.31939 0.30033 0.71537 0.0
H980 H 0.31286 0.22422 0.64451 0.0
H981 H 0.33139 0.1871 0.66519 0.0
C982 C 0.99059 0.14862 0.93744 0.0
C983 C 0.97073 0.12335 0.91355 0.0
C984 C 0.01931 0.09425 0.88584 0.0
C985 C 0.03975 0.11905 0.91089 0.0
N986 N 0.04461 0.16747 0.96947 0.0
N987 N 0.96669 0.06814 0.88087 0.0
C988 C 0.02526 0.14529 0.9403 0.0
C989 C 0.98538 0.09478 0.89375 0.0
N990 N 0.97624 0.17641 0.95493 0.0
N991 N 0.03177 0.07104 0.85073 0.0
H992 H 0.9417 0.06777 0.8842 0.0
H993 H 0.97624 0.04533 0.87311 0.0
H994 H 0.05606 0.06953 0.84221 0.0
H995 H 0.01761 0.05508 0.82483 0.0
H996 H 0.98889 0.1975 0.966 0.0
H997 H 0.95112 0.17869 0.95582 0.0
H998 H 0.03585 0.18564 0.99606 0.0
H999 H 0.0698 0.16629 0.97068 0.0
C1000 C 0.11269 0.26329 0.81069 0.0
C1001 C 0.14128 0.27927 0.83245 0.0
C1002 C 0.16768 0.22613 0.85403 0.0
C1003 C 0.13843 0.20976 0.83638 0.0
N1004 N 0.086 0.21219 0.7839 0.0
N1005 N 0.19885 0.27646 0.85089 0.0
C1006 C 0.11191 0.22829 0.80968 0.0
C1007 C 0.16972 0.26074 0.84616 0.0
N1008 N 0.08611 0.28161 0.79296 0.0
N1009 N 0.1929 0.20893 0.88218 0.0
H1010 H 0.20086 0.30155 0.84195 0.0
H1011 H 0.22101 0.26443 0.8559 0.0
H1012 H 0.19288 0.18364 0.88797 0.0
H1013 H 0.21305 0.2199 0.90331 0.0
H1014 H 0.06331 0.27193 0.78251 0.0
H1015 H 0.08697 0.30706 0.79001 0.0
H1016 H 0.06656 0.22373 0.75992 0.0
H1017 H 0.08533 0.1868 0.78249 0.0
C1018 C 0.02245 0.91147 0.15874 0.0
C1019 C 0.0388 0.88375 0.13868 0.0
C1020 C 0.98535 0.85786 0.1166 0.0
C1021 C 0.96963 0.88285 0.14695 0.0
N1022 N 0.97328 0.93437 0.19573 0.0
N1023 N 0.03591 0.83079 0.09614 0.0
C1024 C 0.98818 0.91028 0.1663 0.0
C1025 C 0.02015 0.85726 0.11585 0.0
N1026 N 0.03994 0.93881 0.17198 0.0
N1027 N 0.96682 0.83458 0.0889 0.0
H1028 H 0.061 0.83044 0.09254 0.0
H1029 H 0.02451 0.80894 0.08555 0.0
H1030 H 0.9416 0.83477 0.08939 0.0
H1031 H 0.97597 0.81688 0.06172 0.0
H1032 H 0.02964 0.96113 0.18058 0.0
H1033 H 0.065 0.93992 0.16944 0.0
H1034 H 0.98555 0.95272 0.21887 0.0
H1035 H 0.94831 0.93518 0.1995 0.0
C1036 C 0.40534 0.73603 0.29572 0.0
C1037 C 0.37742 0.72027 0.31927 0.0
C1038 C 0.35099 0.7735 0.32094 0.0
C1039 C 0.38064 0.78962 0.31053 0.0
N1040 N 0.43611 0.78679 0.28375 0.0
N1041 N 0.32426 0.72578 0.36012 0.0
C1042 C 0.40778 0.77104 0.29549 0.0
C1043 C 0.35032 0.73949 0.33259 0.0
N1044 N 0.42967 0.71761 0.27533 0.0
N1045 N 0.323 0.79086 0.31979 0.0
H1046 H 0.32128 0.70097 0.36702 0.0
H1047 H 0.30658 0.73928 0.38013 0.0
H1048 H 0.3228 0.81572 0.31088 0.0
H1049 H 0.30003 0.78028 0.32003 0.0
H1050 H 0.44962 0.72738 0.25351 0.0
H1051 H 0.42867 0.6922 0.27633 0.0
H1052 H 0.45799 0.77494 0.27906 0.0
H1053 H 0.43773 0.8122 0.2808 0.0
C1054 C 0.52843 0.13761 0.61312 0.0
C1055 C 0.54612 0.11221 0.64557 0.0
C1056 C 0.49493 0.08436 0.66976 0.0
C1057 C 0.47742 0.11229 0.64594 0.0
N1058 N 0.47632 0.16435 0.5908 0.0
N1059 N 0.54716 0.05944 0.69863 0.0
C1060 C 0.49385 0.13832 0.61524 0.0
C1061 C 0.52954 0.08463 0.67087 0.0
N1062 N 0.54498 0.16108 0.58082 0.0
N1063 N 0.47829 0.05792 0.6926 0.0
H1064 H 0.57225 0.05808 0.6968 0.0
H1065 H 0.53747 0.04007 0.72424 0.0
H1066 H 0.45312 0.05731 0.6937 0.0
H1067 H 0.48879 0.03575 0.70702 0.0
H1068 H 0.53406 0.17954 0.55289 0.0
H1069 H 0.57012 0.16047 0.57842 0.0
H1070 H 0.48645 0.18578 0.57292 0.0
H1071 H 0.45106 0.16468 0.58977 0.0
C1072 C 0.90519 0.23741 0.788 0.0
C1073 C 0.87623 0.22188 0.80645 0.0
C1074 C 0.84857 0.27458 0.8 0.0
C1075 C 0.87893 0.29036 0.79655 0.0
N1076 N 0.9351 0.28847 0.77426 0.0
N1077 N 0.81915 0.22452 0.82259 0.0
C1078 C 0.90691 0.27225 0.78525 0.0
C1079 C 0.84737 0.24013 0.80908 0.0
N1080 N 0.93091 0.21876 0.77431 0.0
N1081 N 0.82104 0.29288 0.79393 0.0
H1082 H 0.81724 0.19916 0.82497 0.0
H1083 H 0.7981 0.23649 0.833 0.0
H1084 H 0.8219 0.31807 0.78494 0.0
H1085 H 0.79778 0.28305 0.79139 0.0
H1086 H 0.95237 0.2281 0.75757 0.0
H1087 H 0.9298 0.19336 0.77564 0.0
H1088 H 0.95735 0.2772 0.77065 0.0
H1089 H 0.93607 0.31385 0.76905 0.0
C1090 C 0.6065 0.76281 0.31268 0.0
C1091 C 0.63631 0.77987 0.32001 0.0
C1092 C 0.66577 0.72793 0.31974 0.0
C1093 C 0.63589 0.71058 0.31967 0.0
N1094 N 0.57883 0.71107 0.2956 0.0
N1095 N 0.69383 0.77994 0.30822 0.0
C1096 C 0.60657 0.72809 0.30879 0.0
C1097 C 0.66581 0.7628 0.31578 0.0
N1098 N 0.57819 0.77985 0.3112 0.0
N1099 N 0.69412 0.71114 0.32757 0.0
H1100 H 0.69435 0.80531 0.30418 0.0
H1101 H 0.71584 0.76923 0.29966 0.0
H1102 H 0.69505 0.68596 0.32474 0.0
H1103 H 0.71642 0.72201 0.33791 0.0
H1104 H 0.55541 0.76905 0.31282 0.0
H1105 H 0.57774 0.80529 0.30958 0.0
H1106 H 0.55659 0.72186 0.28334 0.0
H1107 H 0.57897 0.68577 0.29206 0.0
C1108 C 0.91691 0.7344 0.20141 0.0
C1109 C 0.89483 0.71362 0.23313 0.0
C1110 C 0.87552 0.76107 0.28662 0.0
C1111 C 0.89536 0.78157 0.25008 0.0
N1112 N 0.94517 0.78622 0.19862 0.0
N1113 N 0.86235 0.7059 0.32274 0.0
C1114 C 0.91962 0.76751 0.21648 0.0
C1115 C 0.87733 0.72642 0.28178 0.0
N1116 N 0.93428 0.72321 0.15473 0.0
N1117 N 0.85411 0.77468 0.32374 0.0
H1118 H 0.863 0.68064 0.32112 0.0
H1119 H 0.85162 0.71374 0.36184 0.0
H1120 H 0.85387 0.79964 0.33077 0.0
H1121 H 0.83608 0.76155 0.34587 0.0
H1122 H 0.94732 0.73854 0.12535 0.0
H1123 H 0.93437 0.69898 0.14261 0.0
H1124 H 0.96527 0.77686 0.17832 0.0
H1125 H 0.94778 0.81031 0.21134 0.0
C1126 C 0.61495 0.2279 0.75435 0.0
C1127 C 0.63697 0.2125 0.71621 0.0
C1128 C 0.66578 0.26454 0.70518 0.0
C1129 C 0.64001 0.28153 0.72927 0.0
N1130 N 0.59012 0.27895 0.78138 0.0
N1131 N 0.67902 0.22087 0.64213 0.0
C1132 C 0.61472 0.26303 0.75616 0.0
C1133 C 0.66123 0.23206 0.68809 0.0
N1134 N 0.59387 0.20923 0.78726 0.0
N1135 N 0.69477 0.27971 0.69764 0.0
H1136 H 0.67505 0.19867 0.62234 0.0
H1137 H 0.6949 0.23575 0.61757 0.0
H1138 H 0.69921 0.30283 0.71359 0.0
H1139 H 0.71523 0.26763 0.68421 0.0
H1140 H 0.57909 0.21858 0.81966 0.0
H1141 H 0.59285 0.18391 0.78505 0.0
H1142 H 0.56902 0.26754 0.79554 0.0
H1143 H 0.59089 0.30405 0.78664 0.0
C1144 C 0.99748 0.40898 0.92492 0.0
C1145 C 0.97836 0.38236 0.90486 0.0
C1146 C 0.02848 0.35023 0.89752 0.0
C1147 C 0.04742 0.37885 0.90543 0.0
N1148 N 0.05074 0.43446 0.93482 0.0
N1149 N 0.9747 0.32601 0.88155 0.0
C1150 C 0.03208 0.40774 0.92292 0.0
C1151 C 0.99369 0.35223 0.89529 0.0
N1152 N 0.98212 0.43566 0.94479 0.0
N1153 N 0.04404 0.32142 0.89114 0.0
H1154 H 0.94952 0.32694 0.88296 0.0
H1155 H 0.98345 0.30367 0.86912 0.0
H1156 H 0.06925 0.31981 0.89471 0.0
H1157 H 0.03249 0.29903 0.88672 0.0
H1158 H 0.99391 0.45556 0.96378 0.0
H1159 H 0.95694 0.43655 0.94646 0.0
H1160 H 0.04168 0.45756 0.94149 0.0
H1161 H 0.07592 0.43333 0.93719 0.0
C1162 C 0.48967 0.59187 0.43703 0.0
C1163 C 0.46998 0.61953 0.42168 0.0
C1164 C 0.52031 0.65235 0.41416 0.0
C1165 C 0.53894 0.62326 0.41621 0.0
N1166 N 0.53932 0.56435 0.418 0.0
N1167 N 0.4674 0.67784 0.39942 0.0
C1168 C 0.52312 0.59275 0.42497 0.0
C1169 C 0.48549 0.65046 0.41217 0.0
N1170 N 0.47621 0.56449 0.4633 0.0
N1171 N 0.53592 0.68176 0.41398 0.0
H1172 H 0.44267 0.67872 0.40537 0.0
H1173 H 0.47695 0.69981 0.38249 0.0
H1174 H 0.56111 0.68369 0.4149 0.0
H1175 H 0.52427 0.70394 0.41797 0.0
H1176 H 0.4898 0.54429 0.47961 0.0
H1177 H 0.45209 0.56384 0.47548 0.0
H1178 H 0.52789 0.54165 0.41801 0.0
H1179 H 0.56333 0.56369 0.40569 0.0
C1180 C 0.48609 0.38971 0.59644 0.0
C1181 C 0.47179 0.37985 0.65251 0.0
C1182 C 0.52659 0.36728 0.69887 0.0
C1183 C 0.54109 0.38174 0.6459 0.0
N1184 N 0.53457 0.40719 0.54412 0.0
N1185 N 0.47823 0.3581 0.75711 0.0
C1186 C 0.52073 0.39267 0.59429 0.0
C1187 C 0.49206 0.36766 0.70323 0.0
N1188 N 0.46633 0.39606 0.5451 0.0
N1189 N 0.54597 0.35373 0.74589 0.0
H1190 H 0.45325 0.35636 0.76085 0.0
H1191 H 0.4911 0.35309 0.7988 0.0
H1192 H 0.57112 0.35497 0.74653 0.0
H1193 H 0.53745 0.33948 0.78254 0.0
H1194 H 0.47468 0.40102 0.50118 0.0
H1195 H 0.44121 0.3936 0.54595 0.0
H1196 H 0.52148 0.41926 0.50787 0.0
H1197 H 0.55961 0.40842 0.54018 0.0
C1198 C 0.02727 0.64676 0.1565 0.0
C1199 C 0.04211 0.61746 0.14101 0.0
C1200 C 0.98762 0.59512 0.11752 0.0
C1201 C 0.97332 0.62122 0.14702 0.0
N1202 N 0.98208 0.66874 0.20738 0.0
N1203 N 0.03527 0.56121 0.1156 0.0
C1204 C 0.99372 0.64664 0.16898 0.0
C1205 C 0.02197 0.59112 0.12239 0.0
N1206 N 0.04567 0.67411 0.1631 0.0
N1207 N 0.96829 0.57295 0.08855 0.0
H1208 H 0.05999 0.55684 0.12304 0.0
H1209 H 0.02152 0.54026 0.10832 0.0
H1210 H 0.94315 0.57502 0.08617 0.0
H1211 H 0.9773 0.55468 0.06235 0.0
H1212 H 0.03571 0.6968 0.17058 0.0
H1213 H 0.07029 0.67437 0.15442 0.0
H1214 H 0.9968 0.68578 0.22946 0.0
H1215 H 0.95834 0.66799 0.22156 0.0
C1216 C 0.15877 0.49561 0.08871 0.0
C1217 C 0.13685 0.52188 0.07458 0.0
C1218 C 0.12077 0.49643 0.97503 0.0
C1219 C 0.14283 0.47055 0.98916 0.0
N1220 N 0.18828 0.44971 0.05219 0.0
N1221 N 0.09208 0.54321 1.00895 0.0
C1222 C 0.16305 0.47119 0.04441 0.0
C1223 C 0.11672 0.52116 1.01872 0.0
N1224 N 0.17533 0.49345 0.14477 0.0
N1225 N 0.10421 0.49806 0.91889 0.0
H1226 H 0.08774 0.56166 0.03871 0.0
H1227 H 0.07389 0.54173 0.97436 0.0
H1228 H 0.10524 0.47998 0.88696 0.0
H1229 H 0.09136 0.51845 0.90142 0.0
H1230 H 0.18807 0.47283 0.1614 0.0
H1231 H 0.17425 0.51099 0.17755 0.0
H1232 H 0.20616 0.45053 0.08751 0.0
H1233 H 0.1936 0.43308 1.0192 0.0
C1234 C 0.74412 0.89697 0.30856 0.0
C1235 C 0.73518 0.86727 0.34112 0.0
C1236 C 0.77845 0.83916 0.28738 0.0
C1237 C 0.7865 0.86827 0.2536 0.0
N1238 N 0.77328 0.92398 0.22515 0.0
N1239 N 0.75652 0.8149 0.37984 0.0
C1240 C 0.76837 0.89693 0.26267 0.0
C1241 C 0.75579 0.83965 0.3355 0.0
N1242 N 0.73196 0.92597 0.32546 0.0
N1243 N 0.79179 0.81037 0.27245 0.0
H1244 H 0.74522 0.81618 0.42138 0.0
H1245 H 0.77275 0.79554 0.38058 0.0
H1246 H 0.8091 0.80888 0.2393 0.0
H1247 H 0.78357 0.78774 0.2891 0.0
H1248 H 0.73925 0.94862 0.3075 0.0
H1249 H 0.71811 0.92817 0.36373 0.0
H1250 H 0.758 0.94413 0.22209 0.0
H1251 H 0.79125 0.92525 0.19299 0.0
C1252 C 0.40746 0.48224 0.54518 0.0
C1253 C 0.3822 0.4771 0.58681 0.0
C1254 C 0.35247 0.52311 0.53438 0.0
C1255 C 0.37651 0.52612 0.4895 0.0
N1256 N 0.42372 0.50454 0.44576 0.0
N1257 N 0.3284 0.49003 0.61594 0.0
C1258 C 0.40297 0.50433 0.49285 0.0
C1259 C 0.35415 0.49701 0.58037 0.0
N1260 N 0.43639 0.46682 0.55733 0.0
N1261 N 0.32796 0.54539 0.53314 0.0
H1262 H 0.32896 0.47184 0.65107 0.0
H1263 H 0.30578 0.50092 0.60835 0.0
H1264 H 0.32409 0.56285 0.49711 0.0
H1265 H 0.31235 0.54749 0.56899 0.0
H1266 H 0.45684 0.47148 0.53212 0.0
H1267 H 0.44086 0.45202 0.59711 0.0
H1268 H 0.44174 0.48715 0.4425 0.0
H1269 H 0.42097 0.52042 0.40697 0.0
C1270 C 0.7614 0.14582 0.82928 0.0
C1271 C 0.78286 0.11887 0.83219 0.0
C1272 C 0.75079 0.09444 0.74661 0.0
C1273 C 0.72969 0.12196 0.7418 0.0
N1274 N 0.71707 0.17554 0.77582 0.0
N1275 N 0.79345 0.06404 0.80511 0.0
C1276 C 0.73555 0.14802 0.78269 0.0
C1277 C 0.77618 0.09218 0.79413 0.0
N1278 N 0.76513 0.16883 0.87279 0.0
N1279 N 0.74826 0.07156 0.70273 0.0
H1280 H 0.8119 0.06163 0.83955 0.0
H1281 H 0.78776 0.04226 0.78425 0.0
H1282 H 0.731 0.07261 0.6661 0.0
H1283 H 0.76512 0.05311 0.69889 0.0
H1284 H 0.74868 0.18737 0.87867 0.0
H1285 H 0.78391 0.16826 0.90666 0.0
H1286 H 0.72179 0.19686 0.79876 0.0
H1287 H 0.6978 0.17814 0.74379 0.0
C1288 C 0.88222 0.49717 0.07483 0.0
C1289 C 0.88258 0.53022 0.05328 0.0
C1290 C 0.88375 0.51097 0.9464 0.0
C1291 C 0.88717 0.47803 0.96898 0.0
N1292 N 0.90682 0.44546 0.06 0.0
N1293 N 0.89937 0.56611 0.96785 0.0
C1294 C 0.89169 0.47278 0.03485 0.0
C1295 C 0.88802 0.53653 0.98881 0.0
N1296 N 0.87211 0.48827 0.13209 0.0
N1297 N 0.8759 0.51865 0.88572 0.0
H1298 H 0.90723 0.58427 0.99712 0.0
H1299 H 0.90557 0.57061 0.92221 0.0
H1300 H 0.87119 0.50147 0.85277 0.0
H1301 H 0.87078 0.54251 0.86973 0.0
H1302 H 0.86967 0.46383 0.14667 0.0
H1303 H 0.86233 0.50461 0.16132 0.0
H1304 H 0.9115 0.44181 0.10751 0.0
H1305 H 0.91896 0.4293 0.03353 0.0
C1306 C 0.24364 0.14222 0.74712 0.0
C1307 C 0.23845 0.11744 0.79373 0.0
C1308 C 0.2854 0.0873 0.75855 0.0
C1309 C 0.29112 0.11243 0.71293 0.0
N1310 N 0.27136 0.16017 0.65492 0.0
N1311 N 0.25696 0.06868 0.84961 0.0
C1312 C 0.26913 0.13904 0.70508 0.0
C1313 C 0.26024 0.09073 0.80122 0.0
N1314 N 0.22443 0.16933 0.74424 0.0
N1315 N 0.30233 0.05885 0.75762 0.0
H1316 H 0.23866 0.07032 0.88074 0.0
H1317 H 0.27377 0.05048 0.86212 0.0
H1318 H 0.31953 0.05503 0.72511 0.0
H1319 H 0.29752 0.03808 0.78499 0.0
H1320 H 0.22825 0.18996 0.71588 0.0
H1321 H 0.20589 0.17236 0.77437 0.0
H1322 H 0.25475 0.17852 0.64256 0.0
H1323 H 0.2886 0.15769 0.622 0.0
C1324 C 0.65832 0.50225 0.45784 0.0
C1325 C 0.63769 0.52955 0.46357 0.0
C1326 C 0.62294 0.50621 0.56683 0.0
C1327 C 0.64132 0.4779 0.55822 0.0
N1328 N 0.68406 0.45342 0.50526 0.0
N1329 N 0.59857 0.55601 0.52306 0.0
C1330 C 0.66106 0.47721 0.50621 0.0
C1331 C 0.62016 0.53142 0.51871 0.0
N1332 N 0.67512 0.49997 0.40547 0.0
N1333 N 0.60819 0.50918 0.6213 0.0
H1334 H 0.5961 0.57465 0.48981 0.0
H1335 H 0.58157 0.5569 0.55672 0.0
H1336 H 0.60832 0.49075 0.6559 0.0
H1337 H 0.59802 0.53074 0.63466 0.0
H1338 H 0.68656 0.47884 0.39332 0.0
H1339 H 0.67677 0.51906 0.3724 0.0
H1340 H 0.70129 0.45239 0.47206 0.0
H1341 H 0.68813 0.43625 0.54168 0.0
C1342 C 0.26422 0.91236 0.30215 0.0
C1343 C 0.28883 0.88907 0.29323 0.0
C1344 C 0.25464 0.86825 0.20583 0.0
C1345 C 0.2304 0.8917 0.21426 0.0
N1346 N 0.21727 0.94242 0.2581 0.0
N1347 N 0.31087 0.85347 0.22057 0.0
C1348 C 0.23673 0.91565 0.25885 0.0
C1349 C 0.28489 0.86937 0.24067 0.0
N1350 N 0.26647 0.93082 0.35294 0.0
N1351 N 0.2489 0.84452 0.16447 0.0
H1352 H 0.33357 0.85535 0.24224 0.0
H1353 H 0.31078 0.84168 0.17906 0.0
H1354 H 0.22818 0.84395 0.13516 0.0
H1355 H 0.26368 0.82415 0.16234 0.0
H1356 H 0.24775 0.94554 0.36588 0.0
H1357 H 0.2863 0.92969 0.38452 0.0
H1358 H 0.22215 0.96237 0.28509 0.0
H1359 H 0.19795 0.94601 0.22579 0.0
C1360 C 0.66653 0.97028 0.53981 0.0
C1361 C 0.64478 0.96967 0.48643 0.0
C1362 C 0.6165 0.01722 0.52441 0.0
C1363 C 0.63817 0.01768 0.5776 0.0
N1364 N 0.6802 0.99123 0.64125 0.0
N1365 N 0.60348 0.99747 0.42214 0.0
C1366 C 0.66204 0.99308 0.5869 0.0
C1367 C 0.62099 0.99454 0.4771 0.0
N1368 N 0.69311 0.95044 0.54303 0.0
N1369 N 0.59049 0.0378 0.52084 0.0
H1370 H 0.60652 0.98219 0.38604 0.0
H1371 H 0.5883 0.01702 0.40945 0.0
H1372 H 0.58586 0.05361 0.55569 0.0
H1373 H 0.57177 0.03707 0.48712 0.0
H1374 H 0.71157 0.95121 0.57726 0.0
H1375 H 0.69861 0.93543 0.50746 0.0
H1376 H 0.6954 0.97181 0.65474 0.0
H1377 H 0.67788 0.00779 0.67575 0.0
C1378 C 0.24031 0.40547 0.79907 0.0
C1379 C 0.23774 0.38019 0.8464 0.0
C1380 C 0.28901 0.35712 0.81282 0.0
C1381 C 0.28979 0.37981 0.76105 0.0
N1382 N 0.26418 0.42478 0.70323 0.0
N1383 N 0.27007 0.34424 0.91483 0.0
C1384 C 0.26508 0.40403 0.75434 0.0
C1385 C 0.26497 0.35933 0.8577 0.0
N1386 N 0.22103 0.43234 0.79949 0.0
N1387 N 0.31132 0.33283 0.81959 0.0
H1388 H 0.25614 0.34909 0.95208 0.0
H1389 H 0.29094 0.33119 0.92843 0.0
H1390 H 0.33109 0.33226 0.79251 0.0
H1391 H 0.30908 0.31245 0.84953 0.0
H1392 H 0.22371 0.45297 0.77048 0.0
H1393 H 0.2049 0.43599 0.8337 0.0
H1394 H 0.24469 0.44 0.69051 0.0
H1395 H 0.28194 0.42501 0.6707 0.0
C1396 C 0.87966 0.97016 1.01347 0.0
C1397 C 0.87983 0.97366 0.07894 0.0
C1398 C 0.89221 0.03133 0.05749 0.0
C1399 C 0.8819 0.02923 0.99372 0.0
N1400 N 0.86091 0.99383 0.91449 0.0
N1401 N 0.88234 0.01161 0.16144 0.0
C1402 C 0.8742 0.99786 0.97242 0.0
C1403 C 0.88506 0.0054 0.1007 0.0
N1404 N 0.88702 0.941 0.9899 0.0
N1405 N 0.91031 0.05723 0.0767 0.0
H1406 H 0.87514 0.99415 0.1943 0.0
H1407 H 0.88371 0.03521 0.17734 0.0
H1408 H 0.91969 0.07464 0.04581 0.0
H1409 H 0.91978 0.0586 0.12196 0.0
H1410 H 0.88909 0.93833 0.94269 0.0
H1411 H 0.896 0.92133 1.01757 0.0
H1412 H 0.85294 0.97112 0.90002 0.0
H1413 H 0.85469 0.01308 0.88349 0.0
C1414 C 0.25238 0.63865 0.21997 0.0
C1415 C 0.23121 0.61137 0.22381 0.0
C1416 C 0.26479 0.58848 0.31318 0.0
C1417 C 0.28537 0.61648 0.31128 0.0
N1418 N 0.29897 0.668 0.2613 0.0
N1419 N 0.22199 0.55664 0.26301 0.0
C1420 C 0.2792 0.64135 0.26391 0.0
C1421 C 0.23884 0.58523 0.26728 0.0
N1422 N 0.24764 0.66138 0.17228 0.0
N1423 N 0.26866 0.5659 0.36122 0.0
H1424 H 0.20311 0.55362 0.2301 0.0
H1425 H 0.22822 0.53523 0.28824 0.0
H1426 H 0.28707 0.56725 0.39555 0.0
H1427 H 0.25227 0.54712 0.36995 0.0
H1428 H 0.26386 0.67997 0.16144 0.0
H1429 H 0.22793 0.66089 0.14053 0.0
H1430 H 0.29365 0.68958 0.23598 0.0
H1431 H 0.321 0.66864 0.28589 0.0
C1432 C 0.35649 0.9787 0.51144 0.0
C1433 C 0.38188 0.9779 0.46912 0.0
C1434 C 0.4121 0.01799 0.53034 0.0
C1435 C 0.38587 0.02067 0.57018 0.0
N1436 N 0.33128 0.00626 0.59375 0.0
N1437 N 0.43036 0.00203 0.43119 0.0
C1438 C 0.35765 0.00149 0.55969 0.0
C1439 C 0.40865 0.99914 0.47655 0.0
N1440 N 0.33108 0.95748 0.50528 0.0
N1441 N 0.44066 0.03339 0.54465 0.0
H1442 H 0.42751 0.9895 0.39051 0.0
H1443 H 0.44903 0.01915 0.43076 0.0
H1444 H 0.44397 0.04706 0.5838 0.0
H1445 H 0.46179 0.03014 0.52146 0.0
H1446 H 0.31407 0.95338 0.53862 0.0
H1447 H 0.3277 0.94299 0.46722 0.0
H1448 H 0.30852 0.99633 0.58369 0.0
H1449 H 0.3318 0.02162 0.63076 0.0
C1450 C 0.77267 0.59464 0.22501 0.0
C1451 C 0.79145 0.62387 0.22136 0.0
C1452 C 0.7603 0.64507 0.30649 0.0
C1453 C 0.7396 0.61731 0.30559 0.0
N1454 N 0.73355 0.56125 0.28002 0.0
N1455 N 0.80082 0.67837 0.2562 0.0
C1456 C 0.74814 0.59082 0.26947 0.0
C1457 C 0.78471 0.64933 0.26177 0.0
N1458 N 0.77626 0.57148 0.18251 0.0
N1459 N 0.75805 0.66664 0.35216 0.0
H1460 H 0.82037 0.68214 0.22837 0.0
H1461 H 0.79367 0.6995 0.27654 0.0
H1462 H 0.74172 0.66386 0.38695 0.0
H1463 H 0.77468 0.6853 0.35997 0.0
H1464 H 0.76077 0.55161 0.17748 0.0
H1465 H 0.79287 0.57344 0.14797 0.0
H1466 H 0.74063 0.53981 0.26076 0.0
H1467 H 0.71665 0.55743 0.31383 0.0
C1468 C 0.10861 0.02519 1.0027 0.0
C1469 C 0.13485 0.02943 0.96218 0.0
C1470 C 0.16607 0.98861 0.02835 0.0
C1471 C 0.13907 0.9828 0.06538 0.0
N1472 N 0.08903 0.00209 0.09987 0.0
N1473 N 0.18744 0.01176 0.93348 0.0
C1474 C 0.11168 0.00319 0.05611 0.0
C1475 C 0.16355 0.01063 0.975 0.0
N1476 N 0.0801 0.04111 0.98896 0.0
N1477 N 0.19463 0.97353 0.0459 0.0
H1478 H 0.18622 0.02631 0.89283 0.0
H1479 H 0.20727 0.9962 0.93599 0.0
H1480 H 0.19715 0.95883 0.08632 0.0
H1481 H 0.21642 0.97823 0.02511 0.0
H1482 H 0.05898 0.03671 1.01218 0.0
H1483 H 0.07655 0.05713 0.95102 0.0
H1484 H 0.06958 0.01803 0.10024 0.0
H1485 H 0.09197 0.98731 0.14008 0.0
C1486 C 0.73641 0.36329 0.78292 0.0
C1487 C 0.73076 0.38488 0.73009 0.0
C1488 C 0.78053 0.41494 0.76317 0.0
C1489 C 0.78847 0.39036 0.80983 0.0
N1490 N 0.77453 0.33889 0.85994 0.0
N1491 N 0.75024 0.43004 0.66717 0.0
C1492 C 0.76654 0.36393 0.81838 0.0
C1493 C 0.75357 0.4105 0.7197 0.0
N1494 N 0.71208 0.3434 0.8021 0.0
N1495 N 0.7979 0.44331 0.762 0.0
H1496 H 0.73099 0.42778 0.63476 0.0
H1497 H 0.76788 0.44667 0.65336 0.0
H1498 H 0.81685 0.44766 0.79415 0.0
H1499 H 0.79161 0.46353 0.73325 0.0
H1500 H 0.71305 0.32971 0.84374 0.0
H1501 H 0.68945 0.34365 0.77963 0.0
H1502 H 0.76137 0.31722 0.86318 0.0
H1503 H 0.79599 0.33827 0.88723 0.0
loop_
_geom_bond_atom_site_label_1
_geom_bond_atom_site_label_2
_geom_bond_distance
_geom_bond_site_symmetry_2
_ccdc_geom_bond_type
C0 Eu1 2.835 1_556 S
C0 C2 1.500 . S
C0 O20 1.257 1_556 S
C0 O21 1.260 1_556 S
Eu1 C0 2.835 1_554 S
Eu1 O20 2.473 . S
Eu1 O21 2.480 . S
Eu1 O22 2.430 . S
Eu1 O23 2.670 . S
Eu1 O24 2.394 . S
Eu1 O29 2.355 . S
Eu1 O31 2.374 . S
C2 C0 1.500 . S
C2 C3 1.377 . S
C2 C7 1.377 . S
C3 C2 1.377 . S
C3 C4 1.395 . S
C3 H32 0.931 . S
C4 C3 1.395 . S
C4 C5 1.383 . S
C4 H33 0.931 . S
C5 C4 1.383 . S
C5 C6 1.394 . S
C6 C5 1.394 . S
C6 C7 1.378 . S
C6 H34 0.931 . S
C7 C2 1.377 . S
C7 C6 1.378 . S
C7 H35 0.931 . S
C8 O22 1.259 . S
C8 O23 1.270 . S
C9 O24 1.251 . S
C9 O25 1.251 . S
C10 Eu11 2.835 . S
C10 C12 1.500 . S
C10 O26 1.257 . S
C10 O27 1.260 . S
Eu11 C10 2.835 . S
Eu11 O23 2.355 . S
Eu11 O25 2.374 . S
Eu11 O26 2.473 . S
Eu11 O27 2.480 . S
Eu11 O28 2.430 . S
Eu11 O29 2.670 . S
Eu11 O30 2.394 . S
C12 C10 1.500 . S
C12 C13 1.377 . S
C12 C17 1.377 . S
C13 C12 1.377 . S
C13 C14 1.395 . S
C13 H36 0.931 . S
C14 C13 1.395 . S
C14 C15 1.383 . S
C14 H37 0.931 . S
C15 C14 1.383 . S
C15 C16 1.394 . S
C16 C15 1.394 . S
C16 C17 1.378 . S
C16 H38 0.931 . S
C17 C12 1.377 . S
C17 C16 1.378 . S
C17 H39 0.931 . S
C18 O28 1.259 . S
C18 O29 1.270 . S
C19 O30 1.251 . S
C19 O31 1.251 . S
O20 C0 1.257 1_554 S
O20 Eu1 2.473 . S
O21 C0 1.260 1_554 S
O21 Eu1 2.480 . S
O22 Eu1 2.430 . S
O22 C8 1.259 . S
O23 Eu1 2.670 . S
O23 C8 1.270 . S
O23 Eu11 2.355 . S
O24 Eu1 2.394 . S
O24 C9 1.251 . S
O25 C9 1.251 . S
O25 Eu11 2.374 . S
O26 C10 1.257 . S
O26 Eu11 2.473 . S
O27 C10 1.260 . S
O27 Eu11 2.480 . S
O28 Eu11 2.430 . S
O28 C18 1.259 . S
O29 Eu1 2.355 . S
O29 Eu11 2.670 . S
O29 C18 1.270 . S
O30 Eu11 2.394 . S
O30 C19 1.251 . S
O31 Eu1 2.374 . S
O31 C19 1.251 . S
H32 C3 0.931 . S
H33 C4 0.931 . S
H34 C6 0.931 . S
H35 C7 0.931 . S
H36 C13 0.931 . S
H37 C14 0.931 . S
H38 C16 0.931 . S
H39 C17 0.931 . S
C40 Eu41 2.835 . S
C40 C42 1.500 . S
C40 O60 1.257 . S
C40 O61 1.260 . S
Eu41 C40 2.835 . S
Eu41 O60 2.473 . S
Eu41 O61 2.480 . S
Eu41 O62 2.430 . S
Eu41 O63 2.670 . S
Eu41 O64 2.394 . S
Eu41 O69 2.355 . S
Eu41 O71 2.374 . S
C42 C40 1.500 . S
C42 C43 1.377 . S
C42 C47 1.377 . S
C43 C42 1.377 . S
C43 C44 1.395 . S
C43 H72 0.931 . S
C44 C43 1.395 . S
C44 C45 1.383 . S
C44 H73 0.931 . S
C45 C44 1.383 . S
C45 C46 1.394 . S
C46 C45 1.394 . S
C46 C47 1.378 . S
C46 H74 0.931 . S
C47 C42 1.377 . S
C47 C46 1.378 . S
C47 H75 0.931 . S
C48 O62 1.259 . S
C48 O63 1.270 . S
C49 O64 1.251 . S
C49 O65 1.251 . S
C50 Eu51 2.835 . S
C50 C52 1.500 . S
C50 O66 1.257 . S
C50 O67 1.260 . S
Eu51 C50 2.835 . S
Eu51 O63 2.355 . S
Eu51 O65 2.374 . S
Eu51 O66 2.473 . S
Eu51 O67 2.480 . S
Eu51 O68 2.430 . S
Eu51 O69 2.670 . S
Eu51 O70 2.394 . S
C52 C50 1.500 . S
C52 C53 1.377 . S
C52 C57 1.377 . S
C53 C52 1.377 . S
C53 C54 1.395 1_554 S
C53 H76 0.931 . S
C54 C53 1.395 1_556 S
C54 C55 1.383 . S
C54 H77 0.931 . S
C55 C54 1.383 . S
C55 C56 1.394 1_556 S
C56 C55 1.394 1_554 S
C56 C57 1.378 . S
C56 H78 0.931 1_554 S
C57 C52 1.377 . S
C57 C56 1.378 . S
C57 H79 0.931 . S
C58 O68 1.259 . S
C58 O69 1.270 . S
C59 O70 1.251 . S
C59 O71 1.251 . S
O60 C40 1.257 . S
O60 Eu41 2.473 . S
O61 C40 1.260 . S
O61 Eu41 2.480 . S
O62 Eu41 2.430 . S
O62 C48 1.259 . S
O63 Eu41 2.670 . S
O63 C48 1.270 . S
O63 Eu51 2.355 . S
O64 Eu41 2.394 . S
O64 C49 1.251 . S
O65 C49 1.251 . S
O65 Eu51 2.374 . S
O66 C50 1.257 . S
O66 Eu51 2.473 . S
O67 C50 1.260 . S
O67 Eu51 2.480 . S
O68 Eu51 2.430 . S
O68 C58 1.259 . S
O69 Eu41 2.355 . S
O69 Eu51 2.670 . S
O69 C58 1.270 . S
O70 Eu51 2.394 . S
O70 C59 1.251 . S
O71 Eu41 2.374 . S
O71 C59 1.251 . S
H72 C43 0.931 . S
H73 C44 0.931 . S
H74 C46 0.931 . S
H75 C47 0.931 . S
H76 C53 0.931 . S
H77 C54 0.931 . S
H78 C56 0.931 1_556 S
H79 C57 0.931 . S
C80 Eu81 2.835 . S
C80 C82 1.500 . S
C80 O100 1.257 . S
C80 O101 1.260 . S
Eu81 C80 2.835 . S
Eu81 O100 2.473 . S
Eu81 O101 2.480 . S
Eu81 O102 2.430 . S
Eu81 O103 2.670 . S
Eu81 O104 2.394 . S
Eu81 O109 2.355 . S
Eu81 O111 2.374 . S
C82 C80 1.500 . S
C82 C83 1.377 . S
C82 C87 1.377 . S
C83 C82 1.377 . S
C83 C84 1.395 . S
C83 H112 0.931 . S
C84 C83 1.395 . S
C84 C85 1.383 . S
C84 H113 0.931 . S
C85 C84 1.383 . S
C85 C86 1.394 . S
C86 C85 1.394 . S
C86 C87 1.378 . S
C86 H114 0.931 . S
C87 C82 1.377 . S
C87 C86 1.378 . S
C87 H115 0.931 . S
C88 O102 1.259 . S
C88 O103 1.270 . S
C89 O104 1.251 . S
C89 O105 1.251 . S
C90 Eu91 2.835 . S
C90 C92 1.500 . S
C90 O106 1.257 . S
C90 O107 1.260 . S
Eu91 C90 2.835 . S
Eu91 O103 2.355 . S
Eu91 O105 2.374 . S
Eu91 O106 2.473 . S
Eu91 O107 2.480 . S
Eu91 O108 2.430 . S
Eu91 O109 2.670 . S
Eu91 O110 2.394 . S
C92 C90 1.500 . S
C92 C93 1.377 . S
C92 C97 1.377 . S
C93 C92 1.377 . S
C93 C94 1.395 1_556 S
C93 H116 0.931 . S
C94 C93 1.395 1_554 S
C94 C95 1.383 . S
C94 H117 0.931 . S
C95 C94 1.383 . S
C95 C96 1.394 . S
C96 C95 1.394 . S
C96 C97 1.378 1_554 S
C96 H118 0.931 . S
C97 C92 1.377 . S
C97 C96 1.378 1_556 S
C97 H119 0.931 . S
C98 O108 1.259 . S
C98 O109 1.270 . S
C99 O110 1.251 . S
C99 O111 1.251 . S
O100 C80 1.257 . S
O100 Eu81 2.473 . S
O101 C80 1.260 . S
O101 Eu81 2.480 . S
O102 Eu81 2.430 . S
O102 C88 1.259 . S
O103 Eu81 2.670 . S
O103 C88 1.270 . S
O103 Eu91 2.355 . S
O104 Eu81 2.394 . S
O104 C89 1.251 . S
O105 C89 1.251 . S
O105 Eu91 2.374 . S
O106 C90 1.257 . S
O106 Eu91 2.473 . S
O107 C90 1.260 . S
O107 Eu91 2.480 . S
O108 Eu91 2.430 . S
O108 C98 1.259 . S
O109 Eu81 2.355 . S
O109 Eu91 2.670 . S
O109 C98 1.270 . S
O110 Eu91 2.394 . S
O110 C99 1.251 . S
O111 Eu81 2.374 . S
O111 C99 1.251 . S
H112 C83 0.931 . S
H113 C84 0.931 . S
H114 C86 0.931 . S
H115 C87 0.931 . S
H116 C93 0.931 . S
H117 C94 0.931 . S
H118 C96 0.931 . S
H119 C97 0.931 . S
C120 Eu121 2.835 1_554 S
C120 C122 1.500 . S
C120 O140 1.257 . S
C120 O141 1.260 . S
Eu121 C120 2.835 1_556 S
Eu121 O140 2.473 1_556 S
Eu121 O141 2.480 1_556 S
Eu121 O142 2.430 . S
Eu121 O143 2.670 . S
Eu121 O144 2.394 . S
Eu121 O149 2.355 . S
Eu121 O151 2.374 . S
C122 C120 1.500 . S
C122 C123 1.377 . S
C122 C127 1.377 . S
C123 C122 1.377 . S
C123 C124 1.395 . S
C123 H152 0.931 . S
C124 C123 1.395 . S
C124 C125 1.383 . S
C124 H153 0.931 . S
C125 C124 1.383 . S
C125 C126 1.394 . S
C126 C125 1.394 . S
C126 C127 1.378 . S
C126 H154 0.931 . S
C127 C122 1.377 . S
C127 C126 1.378 . S
C127 H155 0.931 . S
C128 O142 1.259 . S
C128 O143 1.270 . S
C129 O144 1.251 . S
C129 O145 1.251 . S
C130 Eu131 2.835 . S
C130 C132 1.500 . S
C130 O146 1.257 . S
C130 O147 1.260 . S
Eu131 C130 2.835 . S
Eu131 O143 2.355 . S
Eu131 O145 2.374 . S
Eu131 O146 2.473 . S
Eu131 O147 2.480 . S
Eu131 O148 2.430 . S
Eu131 O149 2.670 . S
Eu131 O150 2.394 . S
C132 C130 1.500 . S
C132 C133 1.377 . S
C132 C137 1.377 . S
C133 C132 1.377 . S
C133 C134 1.395 . S
C133 H156 0.931 . S
C134 C133 1.395 . S
C134 C135 1.383 . S
C134 H157 0.931 . S
C135 C134 1.383 . S
C135 C136 1.394 . S
C136 C135 1.394 . S
C136 C137 1.378 . S
C136 H158 0.931 . S
C137 C132 1.377 . S
C137 C136 1.378 . S
C137 H159 0.931 . S
C138 O148 1.259 . S
C138 O149 1.270 . S
C139 O150 1.251 . S
C139 O151 1.251 . S
O140 C120 1.257 . S
O140 Eu121 2.473 1_554 S
O141 C120 1.260 . S
O141 Eu121 2.480 1_554 S
O142 Eu121 2.430 . S
O142 C128 1.259 . S
O143 Eu121 2.670 . S
O143 C128 1.270 . S
O143 Eu131 2.355 . S
O144 Eu121 2.394 . S
O144 C129 1.251 . S
O145 C129 1.251 . S
O145 Eu131 2.374 . S
O146 C130 1.257 . S
O146 Eu131 2.473 . S
O147 C130 1.260 . S
O147 Eu131 2.480 . S
O148 Eu131 2.430 . S
O148 C138 1.259 . S
O149 Eu121 2.355 . S
O149 Eu131 2.670 . S
O149 C138 1.270 . S
O150 Eu131 2.394 . S
O150 C139 1.251 . S
O151 Eu121 2.374 . S
O151 C139 1.251 . S
H152 C123 0.931 . S
H153 C124 0.931 . S
H154 C126 0.931 . S
H155 C127 0.931 . S
H156 C133 0.931 . S
H157 C134 0.931 . S
H158 C136 0.931 . S
H159 C137 0.931 . S
C160 Eu161 2.835 1_554 S
C160 C162 1.500 . S
C160 O180 1.257 . S
C160 O181 1.260 . S
Eu161 C160 2.835 1_556 S
Eu161 O180 2.473 1_556 S
Eu161 O181 2.480 1_556 S
Eu161 O182 2.430 . S
Eu161 O183 2.670 . S
Eu161 O184 2.394 . S
Eu161 O189 2.355 . S
Eu161 O191 2.374 . S
C162 C160 1.500 . S
C162 C163 1.377 . S
C162 C167 1.377 . S
C163 C162 1.377 . S
C163 C164 1.395 . S
C163 H192 0.931 . S
C164 C163 1.395 . S
C164 C165 1.383 . S
C164 H193 0.931 . S
C165 C164 1.383 . S
C165 C166 1.394 . S
C166 C165 1.394 . S
C166 C167 1.378 . S
C166 H194 0.931 . S
C167 C162 1.377 . S
C167 C166 1.378 . S
C167 H195 0.931 . S
C168 O182 1.259 . S
C168 O183 1.270 . S
C169 O184 1.251 . S
C169 O185 1.251 . S
C170 Eu171 2.835 . S
C170 C172 1.500 . S
C170 O186 1.257 . S
C170 O187 1.260 . S
Eu171 C170 2.835 . S
Eu171 O183 2.355 . S
Eu171 O185 2.374 . S
Eu171 O186 2.473 . S
Eu171 O187 2.480 . S
Eu171 O188 2.430 . S
Eu171 O189 2.670 . S
Eu171 O190 2.394 . S
C172 C170 1.500 . S
C172 C173 1.377 . S
C172 C177 1.377 . S
C173 C172 1.377 . S
C173 C174 1.395 . S
C173 H196 0.931 . S
C174 C173 1.395 . S
C174 C175 1.383 . S
C174 H197 0.931 . S
C175 C174 1.383 . S
C175 C176 1.394 . S
C176 C175 1.394 . S
C176 C177 1.378 . S
C176 H198 0.931 . S
C177 C172 1.377 . S
C177 C176 1.378 . S
C177 H199 0.931 . S
C178 O188 1.259 . S
C178 O189 1.270 . S
C179 O190 1.251 . S
C179 O191 1.251 . S
O180 C160 1.257 . S
O180 Eu161 2.473 1_554 S
O181 C160 1.260 . S
O181 Eu161 2.480 1_554 S
O182 Eu161 2.430 . S
O182 C168 1.259 . S
O183 Eu161 2.670 . S
O183 C168 1.270 . S
O183 Eu171 2.355 . S
O184 Eu161 2.394 . S
O184 C169 1.251 . S
O185 C169 1.251 . S
O185 Eu171 2.374 . S
O186 C170 1.257 . S
O186 Eu171 2.473 . S
O187 C170 1.260 . S
O187 Eu171 2.480 . S
O188 Eu171 2.430 . S
O188 C178 1.259 . S
O189 Eu161 2.355 . S
O189 Eu171 2.670 . S
O189 C178 1.270 . S
O190 Eu171 2.394 . S
O190 C179 1.251 . S
O191 Eu161 2.374 . S
O191 C179 1.251 . S
H192 C163 0.931 . S
H193 C164 0.931 . S
H194 C166 0.931 . S
H195 C167 0.931 . S
H196 C173 0.931 . S
H197 C174 0.931 . S
H198 C176 0.931 . S
H199 C177 0.931 . S
C200 Eu201 2.835 1_556 S
C200 C202 1.500 . S
C200 O220 1.257 1_556 S
C200 O221 1.260 1_556 S
Eu201 C200 2.835 1_554 S
Eu201 O220 2.473 . S
Eu201 O221 2.480 . S
Eu201 O222 2.430 . S
Eu201 O223 2.670 . S
Eu201 O224 2.394 . S
Eu201 O229 2.355 . S
Eu201 O231 2.374 . S
C202 C200 1.500 . S
C202 C203 1.377 . S
C202 C207 1.377 . S
C203 C202 1.377 . S
C203 C204 1.395 . S
C203 H232 0.931 . S
C204 C203 1.395 . S
C204 C205 1.383 . S
C204 H233 0.931 . S
C205 C204 1.383 . S
C205 C206 1.394 . S
C206 C205 1.394 . S
C206 C207 1.378 . S
C206 H234 0.931 . S
C207 C202 1.377 . S
C207 C206 1.378 . S
C207 H235 0.931 . S
C208 O222 1.259 . S
C208 O223 1.270 . S
C209 O224 1.251 . S
C209 O225 1.251 . S
C210 Eu211 2.835 . S
C210 C212 1.500 . S
C210 O226 1.257 . S
C210 O227 1.260 . S
Eu211 C210 2.835 . S
Eu211 O223 2.355 . S
Eu211 O225 2.374 . S
Eu211 O226 2.473 . S
Eu211 O227 2.480 . S
Eu211 O228 2.430 . S
Eu211 O229 2.670 . S
Eu211 O230 2.394 . S
C212 C210 1.500 . S
C212 C213 1.377 . S
C212 C217 1.377 . S
C213 C212 1.377 . S
C213 C214 1.395 . S
C213 H236 0.931 . S
C214 C213 1.395 . S
C214 C215 1.383 . S
C214 H237 0.931 . S
C215 C214 1.383 . S
C215 C216 1.394 . S
C216 C215 1.394 . S
C216 C217 1.378 . S
C216 H238 0.931 . S
C217 C212 1.377 . S
C217 C216 1.378 . S
C217 H239 0.931 . S
C218 O228 1.259 . S
C218 O229 1.270 . S
C219 O230 1.251 . S
C219 O231 1.251 . S
O220 C200 1.257 1_554 S
O220 Eu201 2.473 . S
O221 C200 1.260 1_554 S
O221 Eu201 2.480 . S
O222 Eu201 2.430 . S
O222 C208 1.259 . S
O223 Eu201 2.670 . S
O223 C208 1.270 . S
O223 Eu211 2.355 . S
O224 Eu201 2.394 . S
O224 C209 1.251 . S
O225 C209 1.251 . S
O225 Eu211 2.374 . S
O226 C210 1.257 . S
O226 Eu211 2.473 . S
O227 C210 1.260 . S
O227 Eu211 2.480 . S
O228 Eu211 2.430 . S
O228 C218 1.259 . S
O229 Eu201 2.355 . S
O229 Eu211 2.670 . S
O229 C218 1.270 . S
O230 Eu211 2.394 . S
O230 C219 1.251 . S
O231 Eu201 2.374 . S
O231 C219 1.251 . S
H232 C203 0.931 . S
H233 C204 0.931 . S
H234 C206 0.931 . S
H235 C207 0.931 . S
H236 C213 0.931 . S
H237 C214 0.931 . S
H238 C216 0.931 . S
H239 C217 0.931 . S
C240 Eu241 2.835 . S
C240 C242 1.500 . S
C240 O260 1.257 . S
C240 O261 1.260 . S
Eu241 C240 2.835 . S
Eu241 O260 2.473 . S
Eu241 O261 2.480 . S
Eu241 O262 2.430 . S
Eu241 O263 2.670 . S
Eu241 O264 2.394 . S
Eu241 O269 2.355 . S
Eu241 O271 2.374 . S
C242 C240 1.500 . S
C242 C243 1.377 . S
C242 C247 1.377 . S
C243 C242 1.377 . S
C243 C244 1.395 . S
C243 H272 0.931 . S
C244 C243 1.395 . S
C244 C245 1.383 . S
C244 H273 0.931 . S
C245 C244 1.383 . S
C245 C246 1.394 . S
C246 C245 1.394 . S
C246 C247 1.378 . S
C246 H274 0.931 . S
C247 C242 1.377 . S
C247 C246 1.378 . S
C247 H275 0.931 . S
C248 O262 1.259 . S
C248 O263 1.270 . S
C249 O264 1.251 . S
C249 O265 1.251 . S
C250 Eu251 2.835 . S
C250 C252 1.500 . S
C250 O266 1.257 . S
C250 O267 1.260 . S
Eu251 C250 2.835 . S
Eu251 O263 2.355 . S
Eu251 O265 2.374 . S
Eu251 O266 2.473 . S
Eu251 O267 2.480 . S
Eu251 O268 2.430 . S
Eu251 O269 2.670 . S
Eu251 O270 2.394 . S
C252 C250 1.500 . S
C252 C253 1.377 . S
C252 C257 1.377 . S
C253 C252 1.377 . S
C253 C254 1.395 1_554 S
C253 H276 0.931 . S
C254 C253 1.395 1_556 S
C254 C255 1.383 . S
C254 H277 0.931 . S
C255 C254 1.383 . S
C255 C256 1.394 1_556 S
C256 C255 1.394 1_554 S
C256 C257 1.378 . S
C256 H278 0.931 1_554 S
C257 C252 1.377 . S
C257 C256 1.378 . S
C257 H279 0.931 . S
C258 O268 1.259 . S
C258 O269 1.270 . S
C259 O270 1.251 . S
C259 O271 1.251 . S
O260 C240 1.257 . S
O260 Eu241 2.473 . S
O261 C240 1.260 . S
O261 Eu241 2.480 . S
O262 Eu241 2.430 . S
O262 C248 1.259 . S
O263 Eu241 2.670 . S
O263 C248 1.270 . S
O263 Eu251 2.355 . S
O264 Eu241 2.394 . S
O264 C249 1.251 . S
O265 C249 1.251 . S
O265 Eu251 2.374 . S
O266 C250 1.257 . S
O266 Eu251 2.473 . S
O267 C250 1.260 . S
O267 Eu251 2.480 . S
O268 Eu251 2.430 . S
O268 C258 1.259 . S
O269 Eu241 2.355 . S
O269 Eu251 2.670 . S
O269 C258 1.270 . S
O270 Eu251 2.394 . S
O270 C259 1.251 . S
O271 Eu241 2.374 . S
O271 C259 1.251 . S
H272 C243 0.931 . S
H273 C244 0.931 . S
H274 C246 0.931 . S
H275 C247 0.931 . S
H276 C253 0.931 . S
H277 C254 0.931 . S
H278 C256 0.931 1_556 S
H279 C257 0.931 . S
C280 Eu281 2.835 . S
C280 C282 1.500 . S
C280 O300 1.257 . S
C280 O301 1.260 . S
Eu281 C280 2.835 . S
Eu281 O300 2.473 . S
Eu281 O301 2.480 . S
Eu281 O302 2.430 . S
Eu281 O303 2.670 . S
Eu281 O304 2.394 . S
Eu281 O309 2.355 . S
Eu281 O311 2.374 . S
C282 C280 1.500 . S
C282 C283 1.377 . S
C282 C287 1.377 . S
C283 C282 1.377 . S
C283 C284 1.395 . S
C283 H312 0.931 . S
C284 C283 1.395 . S
C284 C285 1.383 . S
C284 H313 0.931 . S
C285 C284 1.383 . S
C285 C286 1.394 . S
C286 C285 1.394 . S
C286 C287 1.378 . S
C286 H314 0.931 . S
C287 C282 1.377 . S
C287 C286 1.378 . S
C287 H315 0.931 . S
C288 O302 1.259 . S
C288 O303 1.270 . S
C289 O304 1.251 . S
C289 O305 1.251 . S
C290 Eu291 2.835 . S
C290 C292 1.500 . S
C290 O306 1.257 . S
C290 O307 1.260 . S
Eu291 C290 2.835 . S
Eu291 O303 2.355 . S
Eu291 O305 2.374 . S
Eu291 O306 2.473 . S
Eu291 O307 2.480 . S
Eu291 O308 2.430 . S
Eu291 O309 2.670 . S
Eu291 O310 2.394 . S
C292 C290 1.500 . S
C292 C293 1.377 . S
C292 C297 1.377 . S
C293 C292 1.377 . S
C293 C294 1.395 1_556 S
C293 H316 0.931 . S
C294 C293 1.395 1_554 S
C294 C295 1.383 . S
C294 H317 0.931 . S
C295 C294 1.383 . S
C295 C296 1.394 . S
C296 C295 1.394 . S
C296 C297 1.378 1_554 S
C296 H318 0.931 . S
C297 C292 1.377 . S
C297 C296 1.378 1_556 S
C297 H319 0.931 . S
C298 O308 1.259 . S
C298 O309 1.270 . S
C299 O310 1.251 . S
C299 O311 1.251 . S
O300 C280 1.257 . S
O300 Eu281 2.473 . S
O301 C280 1.260 . S
O301 Eu281 2.480 . S
O302 Eu281 2.430 . S
O302 C288 1.259 . S
O303 Eu281 2.670 . S
O303 C288 1.270 . S
O303 Eu291 2.355 . S
O304 Eu281 2.394 . S
O304 C289 1.251 . S
O305 C289 1.251 . S
O305 Eu291 2.374 . S
O306 C290 1.257 . S
O306 Eu291 2.473 . S
O307 C290 1.260 . S
O307 Eu291 2.480 . S
O308 Eu291 2.430 . S
O308 C298 1.259 . S
O309 Eu281 2.355 . S
O309 Eu291 2.670 . S
O309 C298 1.270 . S
O310 Eu291 2.394 . S
O310 C299 1.251 . S
O311 Eu281 2.374 . S
O311 C299 1.251 . S
H312 C283 0.931 . S
H313 C284 0.931 . S
H314 C286 0.931 . S
H315 C287 0.931 . S
H316 C293 0.931 . S
H317 C294 0.931 . S
H318 C296 0.931 . S
H319 C297 0.931 . S
C320 Eu321 2.835 . S
C320 C322 1.500 . S
C320 O340 1.257 . S
C320 O341 1.260 . S
Eu321 C320 2.835 . S
Eu321 O340 2.473 . S
Eu321 O341 2.480 . S
Eu321 O342 2.430 . S
Eu321 O343 2.670 . S
Eu321 O344 2.394 . S
Eu321 O349 2.355 . S
Eu321 O351 2.374 . S
C322 C320 1.500 . S
C322 C323 1.377 . S
C322 C327 1.377 . S
C323 C322 1.377 . S
C323 C324 1.395 . S
C323 H352 0.931 . S
C324 C323 1.395 . S
C324 C325 1.383 . S
C324 H353 0.931 . S
C325 C324 1.383 . S
C325 C326 1.394 . S
C326 C325 1.394 . S
C326 C327 1.378 . S
C326 H354 0.931 . S
C327 C322 1.377 . S
C327 C326 1.378 . S
C327 H355 0.931 . S
C328 O342 1.259 . S
C328 O343 1.270 . S
C329 O344 1.251 . S
C329 O345 1.251 . S
C330 Eu331 2.835 1_554 S
C330 C332 1.500 . S
C330 O346 1.257 1_554 S
C330 O347 1.260 1_554 S
Eu331 C330 2.835 1_556 S
Eu331 O343 2.355 . S
Eu331 O345 2.374 . S
Eu331 O346 2.473 . S
Eu331 O347 2.480 . S
Eu331 O348 2.430 . S
Eu331 O349 2.670 . S
Eu331 O350 2.394 . S
C332 C330 1.500 . S
C332 C333 1.377 . S
C332 C337 1.377 . S
C333 C332 1.377 . S
C333 C334 1.395 . S
C333 H356 0.931 . S
C334 C333 1.395 . S
C334 C335 1.383 . S
C334 H357 0.931 . S
C335 C334 1.383 . S
C335 C336 1.394 . S
C336 C335 1.394 . S
C336 C337 1.378 . S
C336 H358 0.931 . S
C337 C332 1.377 . S
C337 C336 1.378 . S
C337 H359 0.931 . S
C338 O348 1.259 . S
C338 O349 1.270 . S
C339 O350 1.251 . S
C339 O351 1.251 . S
O340 C320 1.257 . S
O340 Eu321 2.473 . S
O341 C320 1.260 . S
O341 Eu321 2.480 . S
O342 Eu321 2.430 . S
O342 C328 1.259 . S
O343 Eu321 2.670 . S
O343 C328 1.270 . S
O343 Eu331 2.355 . S
O344 Eu321 2.394 . S
O344 C329 1.251 . S
O345 C329 1.251 . S
O345 Eu331 2.374 . S
O346 C330 1.257 1_556 S
O346 Eu331 2.473 . S
O347 C330 1.260 1_556 S
O347 Eu331 2.480 . S
O348 Eu331 2.430 . S
O348 C338 1.259 . S
O349 Eu321 2.355 . S
O349 Eu331 2.670 . S
O349 C338 1.270 . S
O350 Eu331 2.394 . S
O350 C339 1.251 . S
O351 Eu321 2.374 . S
O351 C339 1.251 . S
H352 C323 0.931 . S
H353 C324 0.931 . S
H354 C326 0.931 . S
H355 C327 0.931 . S
H356 C333 0.931 . S
H357 C334 0.931 . S
H358 C336 0.931 . S
H359 C337 0.931 . S
C360 Eu361 2.835 . S
C360 C362 1.500 . S
C360 O380 1.257 . S
C360 O381 1.260 . S
Eu361 C360 2.835 . S
Eu361 O380 2.473 . S
Eu361 O381 2.480 . S
Eu361 O382 2.430 . S
Eu361 O383 2.670 . S
Eu361 O384 2.394 . S
Eu361 O389 2.355 . S
Eu361 O391 2.374 . S
C362 C360 1.500 . S
C362 C363 1.377 . S
C362 C367 1.377 . S
C363 C362 1.377 . S
C363 C364 1.395 1_556 S
C363 H392 0.931 . S
C364 C363 1.395 1_554 S
C364 C365 1.383 . S
C364 H393 0.931 . S
C365 C364 1.383 . S
C365 C366 1.394 1_554 S
C366 C365 1.394 1_556 S
C366 C367 1.378 . S
C366 H394 0.931 1_556 S
C367 C362 1.377 . S
C367 C366 1.378 . S
C367 H395 0.931 . S
C368 O382 1.259 . S
C368 O383 1.270 . S
C369 O384 1.251 . S
C369 O385 1.251 . S
C370 Eu371 2.835 . S
C370 C372 1.500 . S
C370 O386 1.257 . S
C370 O387 1.260 . S
Eu371 C370 2.835 . S
Eu371 O383 2.355 . S
Eu371 O385 2.374 . S
Eu371 O386 2.473 . S
Eu371 O387 2.480 . S
Eu371 O388 2.430 . S
Eu371 O389 2.670 . S
Eu371 O390 2.394 . S
C372 C370 1.500 . S
C372 C373 1.377 . S
C372 C377 1.377 . S
C373 C372 1.377 . S
C373 C374 1.395 . S
C373 H396 0.931 . S
C374 C373 1.395 . S
C374 C375 1.383 . S
C374 H397 0.931 . S
C375 C374 1.383 . S
C375 C376 1.394 . S
C376 C375 1.394 . S
C376 C377 1.378 . S
C376 H398 0.931 . S
C377 C372 1.377 . S
C377 C376 1.378 . S
C377 H399 0.931 . S
C378 O388 1.259 . S
C378 O389 1.270 . S
C379 O390 1.251 . S
C379 O391 1.251 . S
O380 C360 1.257 . S
O380 Eu361 2.473 . S
O381 C360 1.260 . S
O381 Eu361 2.480 . S
O382 Eu361 2.430 . S
O382 C368 1.259 . S
O383 Eu361 2.670 . S
O383 C368 1.270 . S
O383 Eu371 2.355 . S
O384 Eu361 2.394 . S
O384 C369 1.251 . S
O385 C369 1.251 . S
O385 Eu371 2.374 . S
O386 C370 1.257 . S
O386 Eu371 2.473 . S
O387 C370 1.260 . S
O387 Eu371 2.480 . S
O388 Eu371 2.430 . S
O388 C378 1.259 . S
O389 Eu361 2.355 . S
O389 Eu371 2.670 . S
O389 C378 1.270 . S
O390 Eu371 2.394 . S
O390 C379 1.251 . S
O391 Eu361 2.374 . S
O391 C379 1.251 . S
H392 C363 0.931 . S
H393 C364 0.931 . S
H394 C366 0.931 1_554 S
H395 C367 0.931 . S
H396 C373 0.931 . S
H397 C374 0.931 . S
H398 C376 0.931 . S
H399 C377 0.931 . S
C400 Eu401 2.835 . S
C400 C402 1.500 . S
C400 O420 1.257 . S
C400 O421 1.260 . S
Eu401 C400 2.835 . S
Eu401 O420 2.473 . S
Eu401 O421 2.480 . S
Eu401 O422 2.430 . S
Eu401 O423 2.670 . S
Eu401 O424 2.394 . S
Eu401 O429 2.355 . S
Eu401 O431 2.374 . S
C402 C400 1.500 . S
C402 C403 1.377 . S
C402 C407 1.377 . S
C403 C402 1.377 . S
C403 C404 1.395 . S
C403 H432 0.931 . S
C404 C403 1.395 . S
C404 C405 1.383 . S
C404 H433 0.931 . S
C405 C404 1.383 . S
C405 C406 1.394 . S
C406 C405 1.394 . S
C406 C407 1.378 . S
C406 H434 0.931 . S
C407 C402 1.377 . S
C407 C406 1.378 . S
C407 H435 0.931 . S
C408 O422 1.259 . S
C408 O423 1.270 . S
C409 O424 1.251 . S
C409 O425 1.251 . S
C410 Eu411 2.835 . S
C410 C412 1.500 . S
C410 O426 1.257 . S
C410 O427 1.260 . S
Eu411 C410 2.835 . S
Eu411 O423 2.355 . S
Eu411 O425 2.374 . S
Eu411 O426 2.473 . S
Eu411 O427 2.480 . S
Eu411 O428 2.430 . S
Eu411 O429 2.670 . S
Eu411 O430 2.394 . S
C412 C410 1.500 . S
C412 C413 1.377 . S
C412 C417 1.377 . S
C413 C412 1.377 . S
C413 C414 1.395 1_554 S
C413 H436 0.931 . S
C414 C413 1.395 1_556 S
C414 C415 1.383 . S
C414 H437 0.931 . S
C415 C414 1.383 . S
C415 C416 1.394 . S
C416 C415 1.394 . S
C416 C417 1.378 1_556 S
C416 H438 0.931 . S
C417 C412 1.377 . S
C417 C416 1.378 1_554 S
C417 H439 0.931 . S
C418 O428 1.259 . S
C418 O429 1.270 . S
C419 O430 1.251 . S
C419 O431 1.251 . S
O420 C400 1.257 . S
O420 Eu401 2.473 . S
O421 C400 1.260 . S
O421 Eu401 2.480 . S
O422 Eu401 2.430 . S
O422 C408 1.259 . S
O423 Eu401 2.670 . S
O423 C408 1.270 . S
O423 Eu411 2.355 . S
O424 Eu401 2.394 . S
O424 C409 1.251 . S
O425 C409 1.251 . S
O425 Eu411 2.374 . S
O426 C410 1.257 . S
O426 Eu411 2.473 . S
O427 C410 1.260 . S
O427 Eu411 2.480 . S
O428 Eu411 2.430 . S
O428 C418 1.259 . S
O429 Eu401 2.355 . S
O429 Eu411 2.670 . S
O429 C418 1.270 . S
O430 Eu411 2.394 . S
O430 C419 1.251 . S
O431 Eu401 2.374 . S
O431 C419 1.251 . S
H432 C403 0.931 . S
H433 C404 0.931 . S
H434 C406 0.931 . S
H435 C407 0.931 . S
H436 C413 0.931 . S
H437 C414 0.931 . S
H438 C416 0.931 . S
H439 C417 0.931 . S
C440 Eu441 2.835 . S
C440 C442 1.500 . S
C440 O460 1.257 . S
C440 O461 1.260 . S
Eu441 C440 2.835 . S
Eu441 O460 2.473 . S
Eu441 O461 2.480 . S
Eu441 O462 2.430 . S
Eu441 O463 2.670 . S
Eu441 O464 2.394 . S
Eu441 O469 2.355 . S
Eu441 O471 2.374 . S
C442 C440 1.500 . S
C442 C443 1.377 . S
C442 C447 1.377 . S
C443 C442 1.377 . S
C443 C444 1.395 . S
C443 H472 0.931 . S
C444 C443 1.395 . S
C444 C445 1.383 . S
C444 H473 0.931 . S
C445 C444 1.383 . S
C445 C446 1.394 . S
C446 C445 1.394 . S
C446 C447 1.378 . S
C446 H474 0.931 . S
C447 C442 1.377 . S
C447 C446 1.378 . S
C447 H475 0.931 . S
C448 O462 1.259 . S
C448 O463 1.270 . S
C449 O464 1.251 . S
C449 O465 1.251 . S
C450 Eu451 2.835 1_556 S
C450 C452 1.500 . S
C450 O466 1.257 . S
C450 O467 1.260 . S
Eu451 C450 2.835 1_554 S
Eu451 O463 2.355 . S
Eu451 O465 2.374 . S
Eu451 O466 2.473 1_554 S
Eu451 O467 2.480 1_554 S
Eu451 O468 2.430 . S
Eu451 O469 2.670 . S
Eu451 O470 2.394 . S
C452 C450 1.500 . S
C452 C453 1.377 . S
C452 C457 1.377 . S
C453 C452 1.377 . S
C453 C454 1.395 . S
C453 H476 0.931 . S
C454 C453 1.395 . S
C454 C455 1.383 . S
C454 H477 0.931 . S
C455 C454 1.383 . S
C455 C456 1.394 . S
C456 C455 1.394 . S
C456 C457 1.378 . S
C456 H478 0.931 . S
C457 C452 1.377 . S
C457 C456 1.378 . S
C457 H479 0.931 . S
C458 O468 1.259 . S
C458 O469 1.270 . S
C459 O470 1.251 . S
C459 O471 1.251 . S
O460 C440 1.257 . S
O460 Eu441 2.473 . S
O461 C440 1.260 . S
O461 Eu441 2.480 . S
O462 Eu441 2.430 . S
O462 C448 1.259 . S
O463 Eu441 2.670 . S
O463 C448 1.270 . S
O463 Eu451 2.355 . S
O464 Eu441 2.394 . S
O464 C449 1.251 . S
O465 C449 1.251 . S
O465 Eu451 2.374 . S
O466 C450 1.257 . S
O466 Eu451 2.473 1_556 S
O467 C450 1.260 . S
O467 Eu451 2.480 1_556 S
O468 Eu451 2.430 . S
O468 C458 1.259 . S
O469 Eu441 2.355 . S
O469 Eu451 2.670 . S
O469 C458 1.270 . S
O470 Eu451 2.394 . S
O470 C459 1.251 . S
O471 Eu441 2.374 . S
O471 C459 1.251 . S
H472 C443 0.931 . S
H473 C444 0.931 . S
H474 C446 0.931 . S
H475 C447 0.931 . S
H476 C453 0.931 . S
H477 C454 0.931 . S
H478 C456 0.931 . S
H479 C457 0.931 . S
C480 Eu481 2.835 . S
C480 C482 1.500 . S
C480 O500 1.257 . S
C480 O501 1.260 . S
Eu481 C480 2.835 . S
Eu481 O500 2.473 . S
Eu481 O501 2.480 . S
Eu481 O502 2.430 . S
Eu481 O503 2.670 . S
Eu481 O504 2.394 . S
Eu481 O509 2.355 . S
Eu481 O511 2.374 . S
C482 C480 1.500 . S
C482 C483 1.377 . S
C482 C487 1.377 . S
C483 C482 1.377 . S
C483 C484 1.395 . S
C483 H512 0.931 . S
C484 C483 1.395 . S
C484 C485 1.383 . S
C484 H513 0.931 . S
C485 C484 1.383 . S
C485 C486 1.394 . S
C486 C485 1.394 . S
C486 C487 1.378 . S
C486 H514 0.931 . S
C487 C482 1.377 . S
C487 C486 1.378 . S
C487 H515 0.931 . S
C488 O502 1.259 . S
C488 O503 1.270 . S
C489 O504 1.251 . S
C489 O505 1.251 . S
C490 Eu491 2.835 1_556 S
C490 C492 1.500 . S
C490 O506 1.257 . S
C490 O507 1.260 . S
Eu491 C490 2.835 1_554 S
Eu491 O503 2.355 . S
Eu491 O505 2.374 . S
Eu491 O506 2.473 1_554 S
Eu491 O507 2.480 1_554 S
Eu491 O508 2.430 . S
Eu491 O509 2.670 . S
Eu491 O510 2.394 . S
C492 C490 1.500 . S
C492 C493 1.377 . S
C492 C497 1.377 . S
C493 C492 1.377 . S
C493 C494 1.395 . S
C493 H516 0.931 . S
C494 C493 1.395 . S
C494 C495 1.383 . S
C494 H517 0.931 . S
C495 C494 1.383 . S
C495 C496 1.394 . S
C496 C495 1.394 . S
C496 C497 1.378 . S
C496 H518 0.931 . S
C497 C492 1.377 . S
C497 C496 1.378 . S
C497 H519 0.931 . S
C498 O508 1.259 . S
C498 O509 1.270 . S
C499 O510 1.251 . S
C499 O511 1.251 . S
O500 C480 1.257 . S
O500 Eu481 2.473 . S
O501 C480 1.260 . S
O501 Eu481 2.480 . S
O502 Eu481 2.430 . S
O502 C488 1.259 . S
O503 Eu481 2.670 . S
O503 C488 1.270 . S
O503 Eu491 2.355 . S
O504 Eu481 2.394 . S
O504 C489 1.251 . S
O505 C489 1.251 . S
O505 Eu491 2.374 . S
O506 C490 1.257 . S
O506 Eu491 2.473 1_556 S
O507 C490 1.260 . S
O507 Eu491 2.480 1_556 S
O508 Eu491 2.430 . S
O508 C498 1.259 . S
O509 Eu481 2.355 . S
O509 Eu491 2.670 . S
O509 C498 1.270 . S
O510 Eu491 2.394 . S
O510 C499 1.251 . S
O511 Eu481 2.374 . S
O511 C499 1.251 . S
H512 C483 0.931 . S
H513 C484 0.931 . S
H514 C486 0.931 . S
H515 C487 0.931 . S
H516 C493 0.931 . S
H517 C494 0.931 . S
H518 C496 0.931 . S
H519 C497 0.931 . S
C520 Eu521 2.835 1_554 S
C520 C522 1.500 . S
C520 O540 1.257 1_554 S
C520 O541 1.260 1_554 S
Eu521 C520 2.835 1_556 S
Eu521 O540 2.473 . S
Eu521 O541 2.480 . S
Eu521 O542 2.430 . S
Eu521 O543 2.670 . S
Eu521 O544 2.394 . S
Eu521 O549 2.355 . S
Eu521 O551 2.374 . S
C522 C520 1.500 . S
C522 C523 1.377 . S
C522 C527 1.377 . S
C523 C522 1.377 . S
C523 C524 1.395 . S
C523 H552 0.931 . S
C524 C523 1.395 . S
C524 C525 1.383 . S
C524 H553 0.931 . S
C525 C524 1.383 . S
C525 C526 1.394 . S
C526 C525 1.394 . S
C526 C527 1.378 . S
C526 H554 0.931 . S
C527 C522 1.377 . S
C527 C526 1.378 . S
C527 H555 0.931 . S
C528 O542 1.259 . S
C528 O543 1.270 . S
C529 O544 1.251 . S
C529 O545 1.251 . S
C530 Eu531 2.835 . S
C530 C532 1.500 . S
C530 O546 1.257 . S
C530 O547 1.260 . S
Eu531 C530 2.835 . S
Eu531 O543 2.355 . S
Eu531 O545 2.374 . S
Eu531 O546 2.473 . S
Eu531 O547 2.480 . S
Eu531 O548 2.430 . S
Eu531 O549 2.670 . S
Eu531 O550 2.394 . S
C532 C530 1.500 . S
C532 C533 1.377 . S
C532 C537 1.377 . S
C533 C532 1.377 . S
C533 C534 1.395 . S
C533 H556 0.931 . S
C534 C533 1.395 . S
C534 C535 1.383 . S
C534 H557 0.931 . S
C535 C534 1.383 . S
C535 C536 1.394 . S
C536 C535 1.394 . S
C536 C537 1.378 . S
C536 H558 0.931 . S
C537 C532 1.377 . S
C537 C536 1.378 . S
C537 H559 0.931 . S
C538 O548 1.259 . S
C538 O549 1.270 . S
C539 O550 1.251 . S
C539 O551 1.251 . S
O540 C520 1.257 1_556 S
O540 Eu521 2.473 . S
O541 C520 1.260 1_556 S
O541 Eu521 2.480 . S
O542 Eu521 2.430 . S
O542 C528 1.259 . S
O543 Eu521 2.670 . S
O543 C528 1.270 . S
O543 Eu531 2.355 . S
O544 Eu521 2.394 . S
O544 C529 1.251 . S
O545 C529 1.251 . S
O545 Eu531 2.374 . S
O546 C530 1.257 . S
O546 Eu531 2.473 . S
O547 C530 1.260 . S
O547 Eu531 2.480 . S
O548 Eu531 2.430 . S
O548 C538 1.259 . S
O549 Eu521 2.355 . S
O549 Eu531 2.670 . S
O549 C538 1.270 . S
O550 Eu531 2.394 . S
O550 C539 1.251 . S
O551 Eu521 2.374 . S
O551 C539 1.251 . S
H552 C523 0.931 . S
H553 C524 0.931 . S
H554 C526 0.931 . S
H555 C527 0.931 . S
H556 C533 0.931 . S
H557 C534 0.931 . S
H558 C536 0.931 . S
H559 C537 0.931 . S
C560 Eu561 2.835 . S
C560 C562 1.500 . S
C560 O580 1.257 . S
C560 O581 1.260 . S
Eu561 C560 2.835 . S
Eu561 O580 2.473 . S
Eu561 O581 2.480 . S
Eu561 O582 2.430 . S
Eu561 O583 2.670 . S
Eu561 O584 2.394 . S
Eu561 O589 2.355 . S
Eu561 O591 2.374 . S
C562 C560 1.500 . S
C562 C563 1.377 . S
C562 C567 1.377 . S
C563 C562 1.377 . S
C563 C564 1.395 1_556 S
C563 H592 0.931 . S
C564 C563 1.395 1_554 S
C564 C565 1.383 . S
C564 H593 0.931 . S
C565 C564 1.383 . S
C565 C566 1.394 1_554 S
C566 C565 1.394 1_556 S
C566 C567 1.378 . S
C566 H594 0.931 1_556 S
C567 C562 1.377 . S
C567 C566 1.378 . S
C567 H595 0.931 . S
C568 O582 1.259 . S
C568 O583 1.270 . S
C569 O584 1.251 . S
C569 O585 1.251 . S
C570 Eu571 2.835 . S
C570 C572 1.500 . S
C570 O586 1.257 . S
C570 O587 1.260 . S
Eu571 C570 2.835 . S
Eu571 O583 2.355 . S
Eu571 O585 2.374 . S
Eu571 O586 2.473 . S
Eu571 O587 2.480 . S
Eu571 O588 2.430 . S
Eu571 O589 2.670 . S
Eu571 O590 2.394 . S
C572 C570 1.500 . S
C572 C573 1.377 . S
C572 C577 1.377 . S
C573 C572 1.377 . S
C573 C574 1.395 . S
C573 H596 0.931 . S
C574 C573 1.395 . S
C574 C575 1.383 . S
C574 H597 0.931 . S
C575 C574 1.383 . S
C575 C576 1.394 . S
C576 C575 1.394 . S
C576 C577 1.378 . S
C576 H598 0.931 . S
C577 C572 1.377 . S
C577 C576 1.378 . S
C577 H599 0.931 . S
C578 O588 1.259 . S
C578 O589 1.270 . S
C579 O590 1.251 . S
C579 O591 1.251 . S
O580 C560 1.257 . S
O580 Eu561 2.473 . S
O581 C560 1.260 . S
O581 Eu561 2.480 . S
O582 Eu561 2.430 . S
O582 C568 1.259 . S
O583 Eu561 2.670 . S
O583 C568 1.270 . S
O583 Eu571 2.355 . S
O584 Eu561 2.394 . S
O584 C569 1.251 . S
O585 C569 1.251 . S
O585 Eu571 2.374 . S
O586 C570 1.257 . S
O586 Eu571 2.473 . S
O587 C570 1.260 . S
O587 Eu571 2.480 . S
O588 Eu571 2.430 . S
O588 C578 1.259 . S
O589 Eu561 2.355 . S
O589 Eu571 2.670 . S
O589 C578 1.270 . S
O590 Eu571 2.394 . S
O590 C579 1.251 . S
O591 Eu561 2.374 . S
O591 C579 1.251 . S
H592 C563 0.931 . S
H593 C564 0.931 . S
H594 C566 0.931 1_554 S
H595 C567 0.931 . S
H596 C573 0.931 . S
H597 C574 0.931 . S
H598 C576 0.931 . S
H599 C577 0.931 . S
C600 Eu601 2.835 . S
C600 C602 1.500 . S
C600 O620 1.257 . S
C600 O621 1.260 . S
Eu601 C600 2.835 . S
Eu601 O620 2.473 . S
Eu601 O621 2.480 . S
Eu601 O622 2.430 . S
Eu601 O623 2.670 . S
Eu601 O624 2.394 . S
Eu601 O629 2.355 . S
Eu601 O631 2.374 . S
C602 C600 1.500 . S
C602 C603 1.377 . S
C602 C607 1.377 . S
C603 C602 1.377 . S
C603 C604 1.395 1_554 S
C603 H632 0.931 . S
C604 C603 1.395 1_556 S
C604 C605 1.383 . S
C604 H633 0.931 . S
C605 C604 1.383 . S
C605 C606 1.394 . S
C606 C605 1.394 . S
C606 C607 1.378 1_556 S
C606 H634 0.931 . S
C607 C602 1.377 . S
C607 C606 1.378 1_554 S
C607 H635 0.931 . S
C608 O622 1.259 . S
C608 O623 1.270 . S
C609 O624 1.251 . S
C609 O625 1.251 . S
C610 Eu611 2.835 . S
C610 C612 1.500 . S
C610 O626 1.257 . S
C610 O627 1.260 . S
Eu611 C610 2.835 . S
Eu611 O623 2.355 . S
Eu611 O625 2.374 . S
Eu611 O626 2.473 . S
Eu611 O627 2.480 . S
Eu611 O628 2.430 . S
Eu611 O629 2.670 . S
Eu611 O630 2.394 . S
C612 C610 1.500 . S
C612 C613 1.377 . S
C612 C617 1.377 . S
C613 C612 1.377 . S
C613 C614 1.395 . S
C613 H636 0.931 . S
C614 C613 1.395 . S
C614 C615 1.383 . S
C614 H637 0.931 . S
C615 C614 1.383 . S
C615 C616 1.394 . S
C616 C615 1.394 . S
C616 C617 1.378 . S
C616 H638 0.931 . S
C617 C612 1.377 . S
C617 C616 1.378 . S
C617 H639 0.931 . S
C618 O628 1.259 . S
C618 O629 1.270 . S
C619 O630 1.251 . S
C619 O631 1.251 . S
O620 C600 1.257 . S
O620 Eu601 2.473 . S
O621 C600 1.260 . S
O621 Eu601 2.480 . S
O622 Eu601 2.430 . S
O622 C608 1.259 . S
O623 Eu601 2.670 . S
O623 C608 1.270 . S
O623 Eu611 2.355 . S
O624 Eu601 2.394 . S
O624 C609 1.251 . S
O625 C609 1.251 . S
O625 Eu611 2.374 . S
O626 C610 1.257 . S
O626 Eu611 2.473 . S
O627 C610 1.260 . S
O627 Eu611 2.480 . S
O628 Eu611 2.430 . S
O628 C618 1.259 . S
O629 Eu601 2.355 . S
O629 Eu611 2.670 . S
O629 C618 1.270 . S
O630 Eu611 2.394 . S
O630 C619 1.251 . S
O631 Eu601 2.374 . S
O631 C619 1.251 . S
H632 C603 0.931 . S
H633 C604 0.931 . S
H634 C606 0.931 . S
H635 C607 0.931 . S
H636 C613 0.931 . S
H637 C614 0.931 . S
H638 C616 0.931 . S
H639 C617 0.931 . S
C640 C641 1.363 . S
C640 C646 1.379 . S
C640 N648 1.356 . S
C641 C640 1.363 . S
C641 C647 1.363 . S
C642 C643 1.363 . S
C642 C647 1.379 . S
C642 N649 1.356 . S
C643 C642 1.363 . S
C643 C646 1.363 . S
N644 C646 1.356 . S
N644 H656 0.984 . S
N644 H657 0.985 . S
N645 C647 1.356 . S
N645 H650 0.984 . S
N645 H651 0.985 . S
C646 C640 1.379 . S
C646 C643 1.363 . S
C646 N644 1.356 . S
C647 C641 1.363 . S
C647 C642 1.379 . S
C647 N645 1.356 . S
N648 C640 1.356 . S
N648 H654 0.984 . S
N648 H655 0.984 . S
N649 C642 1.356 . S
N649 H652 0.984 . S
N649 H653 0.985 . S
H650 N645 0.984 . S
H651 N645 0.985 . S
H652 N649 0.984 . S
H653 N649 0.985 . S
H654 N648 0.984 . S
H655 N648 0.984 . S
H656 N644 0.984 . S
H657 N644 0.985 . S
C658 C659 1.363 . S
C658 C664 1.379 . S
C658 N666 1.356 . S
C659 C658 1.363 . S
C659 C665 1.363 . S
C660 C661 1.363 . S
C660 C665 1.379 . S
C660 N667 1.356 . S
C661 C660 1.363 . S
C661 C664 1.363 . S
N662 C664 1.356 . S
N662 H674 0.984 . S
N662 H675 0.985 . S
N663 C665 1.356 . S
N663 H668 0.984 . S
N663 H669 0.985 . S
C664 C658 1.379 . S
C664 C661 1.363 . S
C664 N662 1.356 . S
C665 C659 1.363 . S
C665 C660 1.379 . S
C665 N663 1.356 . S
N666 C658 1.356 . S
N666 H672 0.984 . S
N666 H673 0.984 . S
N667 C660 1.356 . S
N667 H670 0.984 . S
N667 H671 0.985 . S
H668 N663 0.984 . S
H669 N663 0.985 . S
H670 N667 0.984 . S
H671 N667 0.985 . S
H672 N666 0.984 . S
H673 N666 0.984 . S
H674 N662 0.984 . S
H675 N662 0.985 . S
C676 C677 1.363 . S
C676 C682 1.379 . S
C676 N684 1.356 . S
C677 C676 1.363 . S
C677 C683 1.363 . S
C678 C679 1.363 . S
C678 C683 1.379 . S
C678 N685 1.356 . S
C679 C678 1.363 . S
C679 C682 1.363 . S
N680 C682 1.356 . S
N680 H692 0.984 . S
N680 H693 0.985 . S
N681 C683 1.356 . S
N681 H686 0.984 . S
N681 H687 0.985 . S
C682 C676 1.379 . S
C682 C679 1.363 . S
C682 N680 1.356 . S
C683 C677 1.363 . S
C683 C678 1.379 . S
C683 N681 1.356 . S
N684 C676 1.356 . S
N684 H690 0.984 . S
N684 H691 0.984 . S
N685 C678 1.356 . S
N685 H688 0.984 . S
N685 H689 0.985 . S
H686 N681 0.984 . S
H687 N681 0.985 . S
H688 N685 0.984 . S
H689 N685 0.985 . S
H690 N684 0.984 . S
H691 N684 0.984 . S
H692 N680 0.984 . S
H693 N680 0.985 . S
C694 C695 1.363 . S
C694 C700 1.379 . S
C694 N702 1.356 . S
C695 C694 1.363 . S
C695 C701 1.363 . S
C696 C697 1.363 . S
C696 C701 1.379 . S
C696 N703 1.356 . S
C697 C696 1.363 . S
C697 C700 1.363 . S
N698 C700 1.356 . S
N698 H710 0.984 . S
N698 H711 0.985 . S
N699 C701 1.356 . S
N699 H704 0.984 . S
N699 H705 0.985 . S
C700 C694 1.379 . S
C700 C697 1.363 . S
C700 N698 1.356 . S
C701 C695 1.363 . S
C701 C696 1.379 . S
C701 N699 1.356 . S
N702 C694 1.356 . S
N702 H708 0.984 . S
N702 H709 0.984 . S
N703 C696 1.356 . S
N703 H706 0.984 . S
N703 H707 0.985 . S
H704 N699 0.984 . S
H705 N699 0.985 . S
H706 N703 0.984 . S
H707 N703 0.985 . S
H708 N702 0.984 . S
H709 N702 0.984 . S
H710 N698 0.984 . S
H711 N698 0.985 . S
C712 C713 1.363 . S
C712 C718 1.379 . S
C712 N720 1.356 . S
C713 C712 1.363 . S
C713 C719 1.363 . S
C714 C715 1.363 . S
C714 C719 1.379 . S
C714 N721 1.356 . S
C715 C714 1.363 . S
C715 C718 1.363 . S
N716 C718 1.356 . S
N716 H728 0.984 . S
N716 H729 0.985 . S
N717 C719 1.356 . S
N717 H722 0.984 . S
N717 H723 0.985 . S
C718 C712 1.379 . S
C718 C715 1.363 . S
C718 N716 1.356 . S
C719 C713 1.363 . S
C719 C714 1.379 . S
C719 N717 1.356 . S
N720 C712 1.356 . S
N720 H726 0.984 . S
N720 H727 0.984 . S
N721 C714 1.356 . S
N721 H724 0.984 . S
N721 H725 0.985 . S
H722 N717 0.984 . S
H723 N717 0.985 . S
H724 N721 0.984 . S
H725 N721 0.985 . S
H726 N720 0.984 . S
H727 N720 0.984 . S
H728 N716 0.984 . S
H729 N716 0.985 . S
C730 C731 1.363 . S
C730 C736 1.379 . S
C730 N738 1.356 . S
C731 C730 1.363 . S
C731 C737 1.363 . S
C732 C733 1.363 . S
C732 C737 1.379 . S
C732 N739 1.356 . S
C733 C732 1.363 . S
C733 C736 1.363 . S
N734 C736 1.356 . S
N734 H746 0.984 . S
N734 H747 0.985 . S
N735 C737 1.356 . S
N735 H740 0.984 . S
N735 H741 0.985 . S
C736 C730 1.379 . S
C736 C733 1.363 . S
C736 N734 1.356 . S
C737 C731 1.363 . S
C737 C732 1.379 . S
C737 N735 1.356 . S
N738 C730 1.356 . S
N738 H744 0.984 . S
N738 H745 0.984 . S
N739 C732 1.356 . S
N739 H742 0.984 . S
N739 H743 0.985 . S
H740 N735 0.984 . S
H741 N735 0.985 . S
H742 N739 0.984 . S
H743 N739 0.985 . S
H744 N738 0.984 . S
H745 N738 0.984 . S
H746 N734 0.984 . S
H747 N734 0.985 . S
C748 C749 1.363 . S
C748 C754 1.379 . S
C748 N756 1.356 . S
C749 C748 1.363 . S
C749 C755 1.363 . S
C750 C751 1.363 . S
C750 C755 1.379 . S
C750 N757 1.356 . S
C751 C750 1.363 . S
C751 C754 1.363 . S
N752 C754 1.356 . S
N752 H764 0.984 . S
N752 H765 0.985 . S
N753 C755 1.356 . S
N753 H758 0.984 . S
N753 H759 0.985 . S
C754 C748 1.379 . S
C754 C751 1.363 . S
C754 N752 1.356 . S
C755 C749 1.363 . S
C755 C750 1.379 . S
C755 N753 1.356 . S
N756 C748 1.356 . S
N756 H762 0.984 . S
N756 H763 0.984 . S
N757 C750 1.356 . S
N757 H760 0.984 . S
N757 H761 0.985 . S
H758 N753 0.984 . S
H759 N753 0.985 . S
H760 N757 0.984 . S
H761 N757 0.985 . S
H762 N756 0.984 . S
H763 N756 0.984 . S
H764 N752 0.984 . S
H765 N752 0.985 . S
C766 C767 1.363 . S
C766 C772 1.379 . S
C766 N774 1.356 . S
C767 C766 1.363 . S
C767 C773 1.363 . S
C768 C769 1.363 . S
C768 C773 1.379 . S
C768 N775 1.356 . S
C769 C768 1.363 . S
C769 C772 1.363 . S
N770 C772 1.356 . S
N770 H782 0.984 . S
N770 H783 0.985 . S
N771 C773 1.356 . S
N771 H776 0.984 . S
N771 H777 0.985 . S
C772 C766 1.379 . S
C772 C769 1.363 . S
C772 N770 1.356 . S
C773 C767 1.363 . S
C773 C768 1.379 . S
C773 N771 1.356 . S
N774 C766 1.356 . S
N774 H780 0.984 . S
N774 H781 0.984 . S
N775 C768 1.356 . S
N775 H778 0.984 . S
N775 H779 0.985 . S
H776 N771 0.984 . S
H777 N771 0.985 . S
H778 N775 0.984 . S
H779 N775 0.985 . S
H780 N774 0.984 . S
H781 N774 0.984 . S
H782 N770 0.984 . S
H783 N770 0.985 . S
C784 C785 1.363 . S
C784 C790 1.379 . S
C784 N792 1.356 . S
C785 C784 1.363 . S
C785 C791 1.363 . S
C786 C787 1.363 . S
C786 C791 1.379 . S
C786 N793 1.356 . S
C787 C786 1.363 . S
C787 C790 1.363 . S
N788 C790 1.356 . S
N788 H800 0.984 . S
N788 H801 0.985 . S
N789 C791 1.356 . S
N789 H794 0.984 . S
N789 H795 0.985 . S
C790 C784 1.379 . S
C790 C787 1.363 . S
C790 N788 1.356 . S
C791 C785 1.363 . S
C791 C786 1.379 . S
C791 N789 1.356 . S
N792 C784 1.356 . S
N792 H798 0.984 . S
N792 H799 0.984 . S
N793 C786 1.356 . S
N793 H796 0.984 . S
N793 H797 0.985 . S
H794 N789 0.984 . S
H795 N789 0.985 . S
H796 N793 0.984 . S
H797 N793 0.985 . S
H798 N792 0.984 . S
H799 N792 0.984 . S
H800 N788 0.984 . S
H801 N788 0.985 . S
C802 C803 1.363 . S
C802 C808 1.379 . S
C802 N810 1.356 . S
C803 C802 1.363 . S
C803 C809 1.363 . S
C804 C805 1.363 . S
C804 C809 1.379 . S
C804 N811 1.356 . S
C805 C804 1.363 . S
C805 C808 1.363 . S
N806 C808 1.356 . S
N806 H818 0.984 . S
N806 H819 0.985 . S
N807 C809 1.356 . S
N807 H812 0.984 . S
N807 H813 0.985 . S
C808 C802 1.379 . S
C808 C805 1.363 . S
C808 N806 1.356 . S
C809 C803 1.363 . S
C809 C804 1.379 . S
C809 N807 1.356 . S
N810 C802 1.356 . S
N810 H816 0.984 . S
N810 H817 0.984 . S
N811 C804 1.356 . S
N811 H814 0.984 . S
N811 H815 0.985 . S
H812 N807 0.984 . S
H813 N807 0.985 . S
H814 N811 0.984 . S
H815 N811 0.985 . S
H816 N810 0.984 . S
H817 N810 0.984 . S
H818 N806 0.984 . S
H819 N806 0.985 . S
C820 C821 1.363 . S
C820 C826 1.379 . S
C820 N828 1.356 . S
C821 C820 1.363 . S
C821 C827 1.363 . S
C822 C823 1.363 . S
C822 C827 1.379 . S
C822 N829 1.356 . S
C823 C822 1.363 . S
C823 C826 1.363 . S
N824 C826 1.356 . S
N824 H836 0.984 . S
N824 H837 0.985 . S
N825 C827 1.356 . S
N825 H830 0.984 . S
N825 H831 0.985 . S
C826 C820 1.379 . S
C826 C823 1.363 . S
C826 N824 1.356 . S
C827 C821 1.363 . S
C827 C822 1.379 . S
C827 N825 1.356 . S
N828 C820 1.356 . S
N828 H834 0.984 . S
N828 H835 0.984 . S
N829 C822 1.356 . S
N829 H832 0.984 . S
N829 H833 0.985 . S
H830 N825 0.984 . S
H831 N825 0.985 . S
H832 N829 0.984 . S
H833 N829 0.985 . S
H834 N828 0.984 . S
H835 N828 0.984 . S
H836 N824 0.984 . S
H837 N824 0.985 . S
C838 C839 1.363 . S
C838 C844 1.379 . S
C838 N846 1.356 . S
C839 C838 1.363 . S
C839 C845 1.363 . S
C840 C841 1.363 . S
C840 C845 1.379 . S
C840 N847 1.356 . S
C841 C840 1.363 . S
C841 C844 1.363 . S
N842 C844 1.356 . S
N842 H854 0.984 . S
N842 H855 0.985 . S
N843 C845 1.356 . S
N843 H848 0.984 . S
N843 H849 0.985 . S
C844 C838 1.379 . S
C844 C841 1.363 . S
C844 N842 1.356 . S
C845 C839 1.363 . S
C845 C840 1.379 . S
C845 N843 1.356 . S
N846 C838 1.356 . S
N846 H852 0.984 . S
N846 H853 0.984 . S
N847 C840 1.356 . S
N847 H850 0.984 . S
N847 H851 0.985 . S
H848 N843 0.984 . S
H849 N843 0.985 . S
H850 N847 0.984 . S
H851 N847 0.985 . S
H852 N846 0.984 . S
H853 N846 0.984 . S
H854 N842 0.984 . S
H855 N842 0.985 . S
C856 C857 1.363 . S
C856 C862 1.379 . S
C856 N864 1.356 . S
C857 C856 1.363 . S
C857 C863 1.363 . S
C858 C859 1.363 . S
C858 C863 1.379 . S
C858 N865 1.356 . S
C859 C858 1.363 . S
C859 C862 1.363 . S
N860 C862 1.356 . S
N860 H872 0.984 . S
N860 H873 0.985 . S
N861 C863 1.356 . S
N861 H866 0.984 . S
N861 H867 0.985 . S
C862 C856 1.379 . S
C862 C859 1.363 . S
C862 N860 1.356 . S
C863 C857 1.363 . S
C863 C858 1.379 . S
C863 N861 1.356 . S
N864 C856 1.356 . S
N864 H870 0.984 . S
N864 H871 0.984 . S
N865 C858 1.356 . S
N865 H868 0.984 . S
N865 H869 0.985 . S
H866 N861 0.984 . S
H867 N861 0.985 . S
H868 N865 0.984 . S
H869 N865 0.985 . S
H870 N864 0.984 . S
H871 N864 0.984 . S
H872 N860 0.984 . S
H873 N860 0.985 . S
C874 C875 1.363 . S
C874 C880 1.379 . S
C874 N882 1.356 . S
C875 C874 1.363 . S
C875 C881 1.363 . S
C876 C877 1.363 . S
C876 C881 1.379 . S
C876 N883 1.356 . S
C877 C876 1.363 . S
C877 C880 1.363 . S
N878 C880 1.356 . S
N878 H890 0.984 . S
N878 H891 0.985 . S
N879 C881 1.356 . S
N879 H884 0.984 . S
N879 H885 0.985 . S
C880 C874 1.379 . S
C880 C877 1.363 . S
C880 N878 1.356 . S
C881 C875 1.363 . S
C881 C876 1.379 . S
C881 N879 1.356 . S
N882 C874 1.356 . S
N882 H888 0.984 . S
N882 H889 0.984 . S
N883 C876 1.356 . S
N883 H886 0.984 . S
N883 H887 0.985 . S
H884 N879 0.984 . S
H885 N879 0.985 . S
H886 N883 0.984 . S
H887 N883 0.985 . S
H888 N882 0.984 . S
H889 N882 0.984 . S
H890 N878 0.984 . S
H891 N878 0.985 . S
C892 C893 1.363 . S
C892 C898 1.379 . S
C892 N900 1.356 . S
C893 C892 1.363 . S
C893 C899 1.363 . S
C894 C895 1.363 . S
C894 C899 1.379 . S
C894 N901 1.356 . S
C895 C894 1.363 . S
C895 C898 1.363 . S
N896 C898 1.356 . S
N896 H908 0.984 . S
N896 H909 0.985 . S
N897 C899 1.356 . S
N897 H902 0.984 . S
N897 H903 0.985 . S
C898 C892 1.379 . S
C898 C895 1.363 . S
C898 N896 1.356 . S
C899 C893 1.363 . S
C899 C894 1.379 . S
C899 N897 1.356 . S
N900 C892 1.356 . S
N900 H906 0.984 . S
N900 H907 0.984 . S
N901 C894 1.356 . S
N901 H904 0.984 . S
N901 H905 0.985 . S
H902 N897 0.984 . S
H903 N897 0.985 . S
H904 N901 0.984 . S
H905 N901 0.985 . S
H906 N900 0.984 . S
H907 N900 0.984 . S
H908 N896 0.984 . S
H909 N896 0.985 . S
C910 C911 1.363 . S
C910 C916 1.379 . S
C910 N918 1.356 . S
C911 C910 1.363 . S
C911 C917 1.363 . S
C912 C913 1.363 . S
C912 C917 1.379 . S
C912 N919 1.356 . S
C913 C912 1.363 . S
C913 C916 1.363 . S
N914 C916 1.356 . S
N914 H926 0.984 . S
N914 H927 0.985 . S
N915 C917 1.356 . S
N915 H920 0.984 . S
N915 H921 0.985 . S
C916 C910 1.379 . S
C916 C913 1.363 . S
C916 N914 1.356 . S
C917 C911 1.363 . S
C917 C912 1.379 . S
C917 N915 1.356 . S
N918 C910 1.356 . S
N918 H924 0.984 . S
N918 H925 0.984 . S
N919 C912 1.356 . S
N919 H922 0.984 . S
N919 H923 0.985 . S
H920 N915 0.984 . S
H921 N915 0.985 . S
H922 N919 0.984 . S
H923 N919 0.985 . S
H924 N918 0.984 . S
H925 N918 0.984 . S
H926 N914 0.984 . S
H927 N914 0.985 . S
C928 C929 1.363 . S
C928 C934 1.379 . S
C928 N936 1.356 . S
C929 C928 1.363 . S
C929 C935 1.363 . S
C930 C931 1.363 . S
C930 C935 1.379 . S
C930 N937 1.356 . S
C931 C930 1.363 . S
C931 C934 1.363 . S
N932 C934 1.356 . S
N932 H944 0.984 . S
N932 H945 0.985 . S
N933 C935 1.356 . S
N933 H938 0.984 . S
N933 H939 0.985 . S
C934 C928 1.379 . S
C934 C931 1.363 . S
C934 N932 1.356 . S
C935 C929 1.363 . S
C935 C930 1.379 . S
C935 N933 1.356 . S
N936 C928 1.356 . S
N936 H942 0.984 . S
N936 H943 0.984 . S
N937 C930 1.356 . S
N937 H940 0.984 . S
N937 H941 0.985 . S
H938 N933 0.984 . S
H939 N933 0.985 . S
H940 N937 0.984 . S
H941 N937 0.985 . S
H942 N936 0.984 . S
H943 N936 0.984 . S
H944 N932 0.984 . S
H945 N932 0.985 . S
C946 C947 1.363 . S
C946 C952 1.379 . S
C946 N954 1.356 . S
C947 C946 1.363 . S
C947 C953 1.363 . S
C948 C949 1.363 . S
C948 C953 1.379 . S
C948 N955 1.356 . S
C949 C948 1.363 . S
C949 C952 1.363 . S
N950 C952 1.356 . S
N950 H962 0.984 . S
N950 H963 0.985 . S
N951 C953 1.356 . S
N951 H956 0.984 . S
N951 H957 0.985 . S
C952 C946 1.379 . S
C952 C949 1.363 . S
C952 N950 1.356 . S
C953 C947 1.363 . S
C953 C948 1.379 . S
C953 N951 1.356 . S
N954 C946 1.356 . S
N954 H960 0.984 . S
N954 H961 0.984 . S
N955 C948 1.356 . S
N955 H958 0.984 . S
N955 H959 0.985 . S
H956 N951 0.984 . S
H957 N951 0.985 . S
H958 N955 0.984 . S
H959 N955 0.985 . S
H960 N954 0.984 . S
H961 N954 0.984 . S
H962 N950 0.984 . S
H963 N950 0.985 . S
C964 C965 1.363 . S
C964 C970 1.379 . S
C964 N972 1.356 . S
C965 C964 1.363 . S
C965 C971 1.363 . S
C966 C967 1.363 . S
C966 C971 1.379 . S
C966 N973 1.356 . S
C967 C966 1.363 . S
C967 C970 1.363 . S
N968 C970 1.356 . S
N968 H980 0.984 . S
N968 H981 0.985 . S
N969 C971 1.356 . S
N969 H974 0.984 . S
N969 H975 0.985 . S
C970 C964 1.379 . S
C970 C967 1.363 . S
C970 N968 1.356 . S
C971 C965 1.363 . S
C971 C966 1.379 . S
C971 N969 1.356 . S
N972 C964 1.356 . S
N972 H978 0.984 . S
N972 H979 0.984 . S
N973 C966 1.356 . S
N973 H976 0.984 . S
N973 H977 0.985 . S
H974 N969 0.984 . S
H975 N969 0.985 . S
H976 N973 0.984 . S
H977 N973 0.985 . S
H978 N972 0.984 . S
H979 N972 0.984 . S
H980 N968 0.984 . S
H981 N968 0.985 . S
C982 C983 1.363 . S
C982 C988 1.379 1_655 S
C982 N990 1.356 . S
C983 C982 1.363 . S
C983 C989 1.363 . S
C984 C985 1.363 . S
C984 C989 1.379 1_455 S
C984 N991 1.356 . S
C985 C984 1.363 . S
C985 C988 1.363 . S
N986 C988 1.356 . S
N986 H998 0.984 . S
N986 H999 0.985 . S
N987 C989 1.356 . S
N987 H992 0.984 . S
N987 H993 0.985 . S
C988 C982 1.379 1_455 S
C988 C985 1.363 . S
C988 N986 1.356 . S
C989 C983 1.363 . S
C989 C984 1.379 1_655 S
C989 N987 1.356 . S
N990 C982 1.356 . S
N990 H996 0.984 . S
N990 H997 0.984 . S
N991 C984 1.356 . S
N991 H994 0.984 . S
N991 H995 0.985 . S
H992 N987 0.984 . S
H993 N987 0.985 . S
H994 N991 0.984 . S
H995 N991 0.985 . S
H996 N990 0.984 . S
H997 N990 0.984 . S
H998 N986 0.984 . S
H999 N986 0.985 . S
C1000 C1001 1.363 . S
C1000 C1006 1.379 . S
C1000 N1008 1.356 . S
C1001 C1000 1.363 . S
C1001 C1007 1.363 . S
C1002 C1003 1.363 . S
C1002 C1007 1.379 . S
C1002 N1009 1.356 . S
C1003 C1002 1.363 . S
C1003 C1006 1.363 . S
N1004 C1006 1.356 . S
N1004 H1016 0.984 . S
N1004 H1017 0.985 . S
N1005 C1007 1.356 . S
N1005 H1010 0.984 . S
N1005 H1011 0.985 . S
C1006 C1000 1.379 . S
C1006 C1003 1.363 . S
C1006 N1004 1.356 . S
C1007 C1001 1.363 . S
C1007 C1002 1.379 . S
C1007 N1005 1.356 . S
N1008 C1000 1.356 . S
N1008 H1014 0.984 . S
N1008 H1015 0.984 . S
N1009 C1002 1.356 . S
N1009 H1012 0.984 . S
N1009 H1013 0.985 . S
H1010 N1005 0.984 . S
H1011 N1005 0.985 . S
H1012 N1009 0.984 . S
H1013 N1009 0.985 . S
H1014 N1008 0.984 . S
H1015 N1008 0.984 . S
H1016 N1004 0.984 . S
H1017 N1004 0.985 . S
C1018 C1019 1.363 . S
C1018 C1024 1.379 1_455 S
C1018 N1026 1.356 . S
C1019 C1018 1.363 . S
C1019 C1025 1.363 . S
C1020 C1021 1.363 . S
C1020 C1025 1.379 1_655 S
C1020 N1027 1.356 . S
C1021 C1020 1.363 . S
C1021 C1024 1.363 . S
N1022 C1024 1.356 . S
N1022 H1034 0.984 . S
N1022 H1035 0.985 . S
N1023 C1025 1.356 . S
N1023 H1028 0.984 . S
N1023 H1029 0.985 . S
C1024 C1018 1.379 1_655 S
C1024 C1021 1.363 . S
C1024 N1022 1.356 . S
C1025 C1019 1.363 . S
C1025 C1020 1.379 1_455 S
C1025 N1023 1.356 . S
N1026 C1018 1.356 . S
N1026 H1032 0.984 . S
N1026 H1033 0.984 . S
N1027 C1020 1.356 . S
N1027 H1030 0.984 . S
N1027 H1031 0.985 . S
H1028 N1023 0.984 . S
H1029 N1023 0.985 . S
H1030 N1027 0.984 . S
H1031 N1027 0.985 . S
H1032 N1026 0.984 . S
H1033 N1026 0.984 . S
H1034 N1022 0.984 . S
H1035 N1022 0.985 . S
C1036 C1037 1.363 . S
C1036 C1042 1.379 . S
C1036 N1044 1.356 . S
C1037 C1036 1.363 . S
C1037 C1043 1.363 . S
C1038 C1039 1.363 . S
C1038 C1043 1.379 . S
C1038 N1045 1.356 . S
C1039 C1038 1.363 . S
C1039 C1042 1.363 . S
N1040 C1042 1.356 . S
N1040 H1052 0.984 . S
N1040 H1053 0.985 . S
N1041 C1043 1.356 . S
N1041 H1046 0.984 . S
N1041 H1047 0.985 . S
C1042 C1036 1.379 . S
C1042 C1039 1.363 . S
C1042 N1040 1.356 . S
C1043 C1037 1.363 . S
C1043 C1038 1.379 . S
C1043 N1041 1.356 . S
N1044 C1036 1.356 . S
N1044 H1050 0.984 . S
N1044 H1051 0.984 . S
N1045 C1038 1.356 . S
N1045 H1048 0.984 . S
N1045 H1049 0.985 . S
H1046 N1041 0.984 . S
H1047 N1041 0.985 . S
H1048 N1045 0.984 . S
H1049 N1045 0.985 . S
H1050 N1044 0.984 . S
H1051 N1044 0.984 . S
H1052 N1040 0.984 . S
H1053 N1040 0.985 . S
C1054 C1055 1.363 . S
C1054 C1060 1.379 . S
C1054 N1062 1.356 . S
C1055 C1054 1.363 . S
C1055 C1061 1.363 . S
C1056 C1057 1.363 . S
C1056 C1061 1.379 . S
C1056 N1063 1.356 . S
C1057 C1056 1.363 . S
C1057 C1060 1.363 . S
N1058 C1060 1.356 . S
N1058 H1070 0.984 . S
N1058 H1071 0.985 . S
N1059 C1061 1.356 . S
N1059 H1064 0.984 . S
N1059 H1065 0.985 . S
C1060 C1054 1.379 . S
C1060 C1057 1.363 . S
C1060 N1058 1.356 . S
C1061 C1055 1.363 . S
C1061 C1056 1.379 . S
C1061 N1059 1.356 . S
N1062 C1054 1.356 . S
N1062 H1068 0.984 . S
N1062 H1069 0.984 . S
N1063 C1056 1.356 . S
N1063 H1066 0.984 . S
N1063 H1067 0.985 . S
H1064 N1059 0.984 . S
H1065 N1059 0.985 . S
H1066 N1063 0.984 . S
H1067 N1063 0.985 . S
H1068 N1062 0.984 . S
H1069 N1062 0.984 . S
H1070 N1058 0.984 . S
H1071 N1058 0.985 . S
C1072 C1073 1.363 . S
C1072 C1078 1.379 . S
C1072 N1080 1.356 . S
C1073 C1072 1.363 . S
C1073 C1079 1.363 . S
C1074 C1075 1.363 . S
C1074 C1079 1.379 . S
C1074 N1081 1.356 . S
C1075 C1074 1.363 . S
C1075 C1078 1.363 . S
N1076 C1078 1.356 . S
N1076 H1088 0.984 . S
N1076 H1089 0.985 . S
N1077 C1079 1.356 . S
N1077 H1082 0.984 . S
N1077 H1083 0.985 . S
C1078 C1072 1.379 . S
C1078 C1075 1.363 . S
C1078 N1076 1.356 . S
C1079 C1073 1.363 . S
C1079 C1074 1.379 . S
C1079 N1077 1.356 . S
N1080 C1072 1.356 . S
N1080 H1086 0.984 . S
N1080 H1087 0.984 . S
N1081 C1074 1.356 . S
N1081 H1084 0.984 . S
N1081 H1085 0.985 . S
H1082 N1077 0.984 . S
H1083 N1077 0.985 . S
H1084 N1081 0.984 . S
H1085 N1081 0.985 . S
H1086 N1080 0.984 . S
H1087 N1080 0.984 . S
H1088 N1076 0.984 . S
H1089 N1076 0.985 . S
C1090 C1091 1.363 . S
C1090 C1096 1.379 . S
C1090 N1098 1.356 . S
C1091 C1090 1.363 . S
C1091 C1097 1.363 . S
C1092 C1093 1.363 . S
C1092 C1097 1.379 . S
C1092 N1099 1.356 . S
C1093 C1092 1.363 . S
C1093 C1096 1.363 . S
N1094 C1096 1.356 . S
N1094 H1106 0.984 . S
N1094 H1107 0.985 . S
N1095 C1097 1.356 . S
N1095 H1100 0.984 . S
N1095 H1101 0.985 . S
C1096 C1090 1.379 . S
C1096 C1093 1.363 . S
C1096 N1094 1.356 . S
C1097 C1091 1.363 . S
C1097 C1092 1.379 . S
C1097 N1095 1.356 . S
N1098 C1090 1.356 . S
N1098 H1104 0.984 . S
N1098 H1105 0.984 . S
N1099 C1092 1.356 . S
N1099 H1102 0.984 . S
N1099 H1103 0.985 . S
H1100 N1095 0.984 . S
H1101 N1095 0.985 . S
H1102 N1099 0.984 . S
H1103 N1099 0.985 . S
H1104 N1098 0.984 . S
H1105 N1098 0.984 . S
H1106 N1094 0.984 . S
H1107 N1094 0.985 . S
C1108 C1109 1.363 . S
C1108 C1114 1.379 . S
C1108 N1116 1.356 . S
C1109 C1108 1.363 . S
C1109 C1115 1.363 . S
C1110 C1111 1.363 . S
C1110 C1115 1.379 . S
C1110 N1117 1.356 . S
C1111 C1110 1.363 . S
C1111 C1114 1.363 . S
N1112 C1114 1.356 . S
N1112 H1124 0.984 . S
N1112 H1125 0.985 . S
N1113 C1115 1.356 . S
N1113 H1118 0.984 . S
N1113 H1119 0.985 . S
C1114 C1108 1.379 . S
C1114 C1111 1.363 . S
C1114 N1112 1.356 . S
C1115 C1109 1.363 . S
C1115 C1110 1.379 . S
C1115 N1113 1.356 . S
N1116 C1108 1.356 . S
N1116 H1122 0.984 . S
N1116 H1123 0.984 . S
N1117 C1110 1.356 . S
N1117 H1120 0.984 . S
N1117 H1121 0.985 . S
H1118 N1113 0.984 . S
H1119 N1113 0.985 . S
H1120 N1117 0.984 . S
H1121 N1117 0.985 . S
H1122 N1116 0.984 . S
H1123 N1116 0.984 . S
H1124 N1112 0.984 . S
H1125 N1112 0.985 . S
C1126 C1127 1.363 . S
C1126 C1132 1.379 . S
C1126 N1134 1.356 . S
C1127 C1126 1.363 . S
C1127 C1133 1.363 . S
C1128 C1129 1.363 . S
C1128 C1133 1.379 . S
C1128 N1135 1.356 . S
C1129 C1128 1.363 . S
C1129 C1132 1.363 . S
N1130 C1132 1.356 . S
N1130 H1142 0.984 . S
N1130 H1143 0.985 . S
N1131 C1133 1.356 . S
N1131 H1136 0.984 . S
N1131 H1137 0.985 . S
C1132 C1126 1.379 . S
C1132 C1129 1.363 . S
C1132 N1130 1.356 . S
C1133 C1127 1.363 . S
C1133 C1128 1.379 . S
C1133 N1131 1.356 . S
N1134 C1126 1.356 . S
N1134 H1140 0.984 . S
N1134 H1141 0.984 . S
N1135 C1128 1.356 . S
N1135 H1138 0.984 . S
N1135 H1139 0.985 . S
H1136 N1131 0.984 . S
H1137 N1131 0.985 . S
H1138 N1135 0.984 . S
H1139 N1135 0.985 . S
H1140 N1134 0.984 . S
H1141 N1134 0.984 . S
H1142 N1130 0.984 . S
H1143 N1130 0.985 . S
C1144 C1145 1.363 . S
C1144 C1150 1.379 1_655 S
C1144 N1152 1.356 . S
C1145 C1144 1.363 . S
C1145 C1151 1.363 . S
C1146 C1147 1.363 . S
C1146 C1151 1.379 1_455 S
C1146 N1153 1.356 . S
C1147 C1146 1.363 . S
C1147 C1150 1.363 . S
N1148 C1150 1.356 . S
N1148 H1160 0.984 . S
N1148 H1161 0.985 . S
N1149 C1151 1.356 . S
N1149 H1154 0.984 . S
N1149 H1155 0.985 . S
C1150 C1144 1.379 1_455 S
C1150 C1147 1.363 . S
C1150 N1148 1.356 . S
C1151 C1145 1.363 . S
C1151 C1146 1.379 1_655 S
C1151 N1149 1.356 . S
N1152 C1144 1.356 . S
N1152 H1158 0.984 . S
N1152 H1159 0.984 . S
N1153 C1146 1.356 . S
N1153 H1156 0.984 . S
N1153 H1157 0.985 . S
H1154 N1149 0.984 . S
H1155 N1149 0.985 . S
H1156 N1153 0.984 . S
H1157 N1153 0.985 . S
H1158 N1152 0.984 . S
H1159 N1152 0.984 . S
H1160 N1148 0.984 . S
H1161 N1148 0.985 . S
C1162 C1163 1.363 . S
C1162 C1168 1.379 . S
C1162 N1170 1.356 . S
C1163 C1162 1.363 . S
C1163 C1169 1.363 . S
C1164 C1165 1.363 . S
C1164 C1169 1.379 . S
C1164 N1171 1.356 . S
C1165 C1164 1.363 . S
C1165 C1168 1.363 . S
N1166 C1168 1.356 . S
N1166 H1178 0.984 . S
N1166 H1179 0.985 . S
N1167 C1169 1.356 . S
N1167 H1172 0.984 . S
N1167 H1173 0.985 . S
C1168 C1162 1.379 . S
C1168 C1165 1.363 . S
C1168 N1166 1.356 . S
C1169 C1163 1.363 . S
C1169 C1164 1.379 . S
C1169 N1167 1.356 . S
N1170 C1162 1.356 . S
N1170 H1176 0.984 . S
N1170 H1177 0.984 . S
N1171 C1164 1.356 . S
N1171 H1174 0.984 . S
N1171 H1175 0.985 . S
H1172 N1167 0.984 . S
H1173 N1167 0.985 . S
H1174 N1171 0.984 . S
H1175 N1171 0.985 . S
H1176 N1170 0.984 . S
H1177 N1170 0.984 . S
H1178 N1166 0.984 . S
H1179 N1166 0.985 . S
C1180 C1181 1.363 . S
C1180 C1186 1.379 . S
C1180 N1188 1.356 . S
C1181 C1180 1.363 . S
C1181 C1187 1.363 . S
C1182 C1183 1.363 . S
C1182 C1187 1.379 . S
C1182 N1189 1.356 . S
C1183 C1182 1.363 . S
C1183 C1186 1.363 . S
N1184 C1186 1.356 . S
N1184 H1196 0.984 . S
N1184 H1197 0.985 . S
N1185 C1187 1.356 . S
N1185 H1190 0.984 . S
N1185 H1191 0.985 . S
C1186 C1180 1.379 . S
C1186 C1183 1.363 . S
C1186 N1184 1.356 . S
C1187 C1181 1.363 . S
C1187 C1182 1.379 . S
C1187 N1185 1.356 . S
N1188 C1180 1.356 . S
N1188 H1194 0.984 . S
N1188 H1195 0.984 . S
N1189 C1182 1.356 . S
N1189 H1192 0.984 . S
N1189 H1193 0.985 . S
H1190 N1185 0.984 . S
H1191 N1185 0.985 . S
H1192 N1189 0.984 . S
H1193 N1189 0.985 . S
H1194 N1188 0.984 . S
H1195 N1188 0.984 . S
H1196 N1184 0.984 . S
H1197 N1184 0.985 . S
C1198 C1199 1.363 . S
C1198 C1204 1.379 1_455 S
C1198 N1206 1.356 . S
C1199 C1198 1.363 . S
C1199 C1205 1.363 . S
C1200 C1201 1.363 . S
C1200 C1205 1.379 1_655 S
C1200 N1207 1.356 . S
C1201 C1200 1.363 . S
C1201 C1204 1.363 . S
N1202 C1204 1.356 . S
N1202 H1214 0.984 . S
N1202 H1215 0.985 . S
N1203 C1205 1.356 . S
N1203 H1208 0.984 . S
N1203 H1209 0.985 . S
C1204 C1198 1.379 1_655 S
C1204 C1201 1.363 . S
C1204 N1202 1.356 . S
C1205 C1199 1.363 . S
C1205 C1200 1.379 1_455 S
C1205 N1203 1.356 . S
N1206 C1198 1.356 . S
N1206 H1212 0.984 . S
N1206 H1213 0.984 . S
N1207 C1200 1.356 . S
N1207 H1210 0.984 . S
N1207 H1211 0.985 . S
H1208 N1203 0.984 . S
H1209 N1203 0.985 . S
H1210 N1207 0.984 . S
H1211 N1207 0.985 . S
H1212 N1206 0.984 . S
H1213 N1206 0.984 . S
H1214 N1202 0.984 . S
H1215 N1202 0.985 . S
C1216 C1217 1.363 . S
C1216 C1222 1.379 . S
C1216 N1224 1.356 . S
C1217 C1216 1.363 . S
C1217 C1223 1.363 . S
C1218 C1219 1.363 . S
C1218 C1223 1.379 1_556 S
C1218 N1225 1.356 . S
C1219 C1218 1.363 . S
C1219 C1222 1.363 1_556 S
N1220 C1222 1.356 . S
N1220 H1232 0.984 . S
N1220 H1233 0.985 1_554 S
N1221 C1223 1.356 . S
N1221 H1226 0.984 . S
N1221 H1227 0.985 1_554 S
C1222 C1216 1.379 . S
C1222 C1219 1.363 1_554 S
C1222 N1220 1.356 . S
C1223 C1217 1.363 . S
C1223 C1218 1.379 1_554 S
C1223 N1221 1.356 . S
N1224 C1216 1.356 . S
N1224 H1230 0.984 . S
N1224 H1231 0.984 . S
N1225 C1218 1.356 . S
N1225 H1228 0.984 . S
N1225 H1229 0.985 . S
H1226 N1221 0.984 . S
H1227 N1221 0.985 1_556 S
H1228 N1225 0.984 . S
H1229 N1225 0.985 . S
H1230 N1224 0.984 . S
H1231 N1224 0.984 . S
H1232 N1220 0.984 . S
H1233 N1220 0.985 1_556 S
C1234 C1235 1.363 . S
C1234 C1240 1.379 . S
C1234 N1242 1.356 . S
C1235 C1234 1.363 . S
C1235 C1241 1.363 . S
C1236 C1237 1.363 . S
C1236 C1241 1.379 . S
C1236 N1243 1.356 . S
C1237 C1236 1.363 . S
C1237 C1240 1.363 . S
N1238 C1240 1.356 . S
N1238 H1250 0.984 . S
N1238 H1251 0.985 . S
N1239 C1241 1.356 . S
N1239 H1244 0.984 . S
N1239 H1245 0.985 . S
C1240 C1234 1.379 . S
C1240 C1237 1.363 . S
C1240 N1238 1.356 . S
C1241 C1235 1.363 . S
C1241 C1236 1.379 . S
C1241 N1239 1.356 . S
N1242 C1234 1.356 . S
N1242 H1248 0.984 . S
N1242 H1249 0.984 . S
N1243 C1236 1.356 . S
N1243 H1246 0.984 . S
N1243 H1247 0.985 . S
H1244 N1239 0.984 . S
H1245 N1239 0.985 . S
H1246 N1243 0.984 . S
H1247 N1243 0.985 . S
H1248 N1242 0.984 . S
H1249 N1242 0.984 . S
H1250 N1238 0.984 . S
H1251 N1238 0.985 . S
C1252 C1253 1.363 . S
C1252 C1258 1.379 . S
C1252 N1260 1.356 . S
C1253 C1252 1.363 . S
C1253 C1259 1.363 . S
C1254 C1255 1.363 . S
C1254 C1259 1.379 . S
C1254 N1261 1.356 . S
C1255 C1254 1.363 . S
C1255 C1258 1.363 . S
N1256 C1258 1.356 . S
N1256 H1268 0.984 . S
N1256 H1269 0.985 . S
N1257 C1259 1.356 . S
N1257 H1262 0.984 . S
N1257 H1263 0.985 . S
C1258 C1252 1.379 . S
C1258 C1255 1.363 . S
C1258 N1256 1.356 . S
C1259 C1253 1.363 . S
C1259 C1254 1.379 . S
C1259 N1257 1.356 . S
N1260 C1252 1.356 . S
N1260 H1266 0.984 . S
N1260 H1267 0.984 . S
N1261 C1254 1.356 . S
N1261 H1264 0.984 . S
N1261 H1265 0.985 . S
H1262 N1257 0.984 . S
H1263 N1257 0.985 . S
H1264 N1261 0.984 . S
H1265 N1261 0.985 . S
H1266 N1260 0.984 . S
H1267 N1260 0.984 . S
H1268 N1256 0.984 . S
H1269 N1256 0.985 . S
C1270 C1271 1.363 . S
C1270 C1276 1.379 . S
C1270 N1278 1.356 . S
C1271 C1270 1.363 . S
C1271 C1277 1.363 . S
C1272 C1273 1.363 . S
C1272 C1277 1.379 . S
C1272 N1279 1.356 . S
C1273 C1272 1.363 . S
C1273 C1276 1.363 . S
N1274 C1276 1.356 . S
N1274 H1286 0.984 . S
N1274 H1287 0.985 . S
N1275 C1277 1.356 . S
N1275 H1280 0.984 . S
N1275 H1281 0.985 . S
C1276 C1270 1.379 . S
C1276 C1273 1.363 . S
C1276 N1274 1.356 . S
C1277 C1271 1.363 . S
C1277 C1272 1.379 . S
C1277 N1275 1.356 . S
N1278 C1270 1.356 . S
N1278 H1284 0.984 . S
N1278 H1285 0.984 . S
N1279 C1272 1.356 . S
N1279 H1282 0.984 . S
N1279 H1283 0.985 . S
H1280 N1275 0.984 . S
H1281 N1275 0.985 . S
H1282 N1279 0.984 . S
H1283 N1279 0.985 . S
H1284 N1278 0.984 . S
H1285 N1278 0.984 . S
H1286 N1274 0.984 . S
H1287 N1274 0.985 . S
C1288 C1289 1.363 . S
C1288 C1294 1.379 1_554 S
C1288 N1296 1.356 . S
C1289 C1288 1.363 . S
C1289 C1295 1.363 1_554 S
C1290 C1291 1.363 . S
C1290 C1295 1.379 . S
C1290 N1297 1.356 . S
C1291 C1290 1.363 . S
C1291 C1294 1.363 . S
N1292 C1294 1.356 . S
N1292 H1304 0.995 . S
N1292 H1305 0.985 . S
N1293 C1295 1.356 1_554 S
N1293 H1298 0.984 . S
N1293 H1299 0.985 1_554 S
C1294 C1288 1.379 1_556 S
C1294 C1291 1.363 . S
C1294 N1292 1.356 . S
C1295 C1289 1.363 1_556 S
C1295 C1290 1.379 . S
C1295 N1293 1.356 1_556 S
N1296 C1288 1.356 . S
N1296 H1302 0.984 . S
N1296 H1303 0.984 . S
N1297 C1290 1.356 . S
N1297 H1300 0.984 . S
N1297 H1301 0.985 . S
H1298 N1293 0.984 . S
H1299 N1293 0.985 1_556 S
H1300 N1297 0.984 . S
H1301 N1297 0.985 . S
H1302 N1296 0.984 . S
H1303 N1296 0.984 . S
H1304 N1292 0.995 . S
H1305 N1292 0.985 . S
C1306 C1307 1.363 . S
C1306 C1312 1.379 . S
C1306 N1314 1.356 . S
C1307 C1306 1.363 . S
C1307 C1313 1.363 . S
C1308 C1309 1.363 . S
C1308 C1313 1.379 . S
C1308 N1315 1.356 . S
C1309 C1308 1.363 . S
C1309 C1312 1.363 . S
N1310 C1312 1.356 . S
N1310 H1322 0.984 . S
N1310 H1323 0.985 . S
N1311 C1313 1.356 . S
N1311 H1316 0.984 . S
N1311 H1317 0.985 . S
C1312 C1306 1.379 . S
C1312 C1309 1.363 . S
C1312 N1310 1.356 . S
C1313 C1307 1.363 . S
C1313 C1308 1.379 . S
C1313 N1311 1.356 . S
N1314 C1306 1.356 . S
N1314 H1320 0.984 . S
N1314 H1321 0.984 . S
N1315 C1308 1.356 . S
N1315 H1318 0.984 . S
N1315 H1319 0.985 . S
H1316 N1311 0.984 . S
H1317 N1311 0.985 . S
H1318 N1315 0.984 . S
H1319 N1315 0.985 . S
H1320 N1314 0.984 . S
H1321 N1314 0.984 . S
H1322 N1310 0.984 . S
H1323 N1310 0.985 . S
C1324 C1325 1.363 . S
C1324 C1330 1.379 . S
C1324 N1332 1.356 . S
C1325 C1324 1.363 . S
C1325 C1331 1.363 . S
C1326 C1327 1.363 . S
C1326 C1331 1.379 . S
C1326 N1333 1.356 . S
C1327 C1326 1.363 . S
C1327 C1330 1.363 . S
N1328 C1330 1.356 . S
N1328 H1340 0.984 . S
N1328 H1341 0.985 . S
N1329 C1331 1.356 . S
N1329 H1334 0.984 . S
N1329 H1335 0.985 . S
C1330 C1324 1.379 . S
C1330 C1327 1.363 . S
C1330 N1328 1.356 . S
C1331 C1325 1.363 . S
C1331 C1326 1.379 . S
C1331 N1329 1.356 . S
N1332 C1324 1.356 . S
N1332 H1338 0.984 . S
N1332 H1339 0.984 . S
N1333 C1326 1.356 . S
N1333 H1336 0.984 . S
N1333 H1337 0.985 . S
H1334 N1329 0.984 . S
H1335 N1329 0.985 . S
H1336 N1333 0.984 . S
H1337 N1333 0.985 . S
H1338 N1332 0.984 . S
H1339 N1332 0.984 . S
H1340 N1328 0.984 . S
H1341 N1328 0.985 . S
C1342 C1343 1.363 . S
C1342 C1348 1.379 . S
C1342 N1350 1.356 . S
C1343 C1342 1.363 . S
C1343 C1349 1.363 . S
C1344 C1345 1.363 . S
C1344 C1349 1.379 . S
C1344 N1351 1.356 . S
C1345 C1344 1.363 . S
C1345 C1348 1.363 . S
N1346 C1348 1.356 . S
N1346 H1358 0.984 . S
N1346 H1359 0.985 . S
N1347 C1349 1.356 . S
N1347 H1352 0.984 . S
N1347 H1353 0.985 . S
C1348 C1342 1.379 . S
C1348 C1345 1.363 . S
C1348 N1346 1.356 . S
C1349 C1343 1.363 . S
C1349 C1344 1.379 . S
C1349 N1347 1.356 . S
N1350 C1342 1.356 . S
N1350 H1356 0.984 . S
N1350 H1357 0.984 . S
N1351 C1344 1.356 . S
N1351 H1354 0.984 . S
N1351 H1355 0.985 . S
H1352 N1347 0.984 . S
H1353 N1347 0.985 . S
H1354 N1351 0.984 . S
H1355 N1351 0.985 . S
H1356 N1350 0.984 . S
H1357 N1350 0.984 . S
H1358 N1346 0.984 . S
H1359 N1346 0.985 . S
C1360 C1361 1.363 . S
C1360 C1366 1.379 . S
C1360 N1368 1.356 . S
C1361 C1360 1.363 . S
C1361 C1367 1.363 1_565 S
C1362 C1363 1.363 . S
C1362 C1367 1.379 . S
C1362 N1369 1.356 . S
C1363 C1362 1.363 . S
C1363 C1366 1.363 1_545 S
N1364 C1366 1.356 . S
N1364 H1376 0.984 . S
N1364 H1377 0.985 . S
N1365 C1367 1.356 . S
N1365 H1370 0.966 1_545 S
N1365 H1371 0.985 . S
C1366 C1360 1.379 . S
C1366 C1363 1.363 1_565 S
C1366 N1364 1.356 . S
C1367 C1361 1.363 1_545 S
C1367 C1362 1.379 . S
C1367 N1365 1.356 . S
N1368 C1360 1.356 . S
N1368 H1374 0.984 . S
N1368 H1375 0.984 . S
N1369 C1362 1.356 . S
N1369 H1372 0.984 . S
N1369 H1373 0.985 . S
H1370 N1365 0.966 1_565 S
H1371 N1365 0.985 . S
H1372 N1369 0.984 . S
H1373 N1369 0.985 . S
H1374 N1368 0.984 . S
H1375 N1368 0.984 . S
H1376 N1364 0.984 . S
H1377 N1364 0.985 . S
C1378 C1379 1.363 . S
C1378 C1384 1.379 . S
C1378 N1386 1.356 . S
C1379 C1378 1.363 . S
C1379 C1385 1.363 . S
C1380 C1381 1.363 . S
C1380 C1385 1.379 . S
C1380 N1387 1.356 . S
C1381 C1380 1.363 . S
C1381 C1384 1.363 . S
N1382 C1384 1.356 . S
N1382 H1394 0.984 . S
N1382 H1395 0.985 . S
N1383 C1385 1.356 . S
N1383 H1388 0.984 . S
N1383 H1389 0.985 . S
C1384 C1378 1.379 . S
C1384 C1381 1.363 . S
C1384 N1382 1.356 . S
C1385 C1379 1.363 . S
C1385 C1380 1.379 . S
C1385 N1383 1.356 . S
N1386 C1378 1.356 . S
N1386 H1392 0.984 . S
N1386 H1393 0.984 . S
N1387 C1380 1.356 . S
N1387 H1390 0.984 . S
N1387 H1391 0.985 . S
H1388 N1383 0.984 . S
H1389 N1383 0.985 . S
H1390 N1387 0.984 . S
H1391 N1387 0.985 . S
H1392 N1386 0.984 . S
H1393 N1386 0.984 . S
H1394 N1382 0.984 . S
H1395 N1382 0.985 . S
C1396 C1397 1.363 . S
C1396 C1402 1.379 1_554 S
C1396 N1404 1.356 . S
C1397 C1396 1.363 . S
C1397 C1403 1.363 1_565 S
C1398 C1399 1.363 1_554 S
C1398 C1403 1.379 . S
C1398 N1405 1.356 . S
C1399 C1398 1.363 1_556 S
C1399 C1402 1.363 1_545 S
N1400 C1402 1.356 . S
N1400 H1412 0.984 . S
N1400 H1413 0.985 1_565 S
N1401 C1403 1.356 . S
N1401 H1406 0.984 1_545 S
N1401 H1407 0.985 . S
C1402 C1396 1.379 1_556 S
C1402 C1399 1.363 1_565 S
C1402 N1400 1.356 . S
C1403 C1397 1.363 1_545 S
C1403 C1398 1.379 . S
C1403 N1401 1.356 . S
N1404 C1396 1.356 . S
N1404 H1410 0.984 1_554 S
N1404 H1411 0.984 . S
N1405 C1398 1.356 . S
N1405 H1408 0.984 1_554 S
N1405 H1409 0.985 . S
H1406 N1401 0.984 1_565 S
H1407 N1401 0.985 . S
H1408 N1405 0.984 1_556 S
H1409 N1405 0.985 . S
H1410 N1404 0.984 1_556 S
H1411 N1404 0.984 . S
H1412 N1400 0.984 . S
H1413 N1400 0.985 1_545 S
C1414 C1415 1.363 . S
C1414 C1420 1.379 . S
C1414 N1422 1.356 . S
C1415 C1414 1.363 . S
C1415 C1421 1.363 . S
C1416 C1417 1.363 . S
C1416 C1421 1.379 . S
C1416 N1423 1.356 . S
C1417 C1416 1.363 . S
C1417 C1420 1.363 . S
N1418 C1420 1.356 . S
N1418 H1430 0.984 . S
N1418 H1431 0.985 . S
N1419 C1421 1.356 . S
N1419 H1424 0.984 . S
N1419 H1425 0.985 . S
C1420 C1414 1.379 . S
C1420 C1417 1.363 . S
C1420 N1418 1.356 . S
C1421 C1415 1.363 . S
C1421 C1416 1.379 . S
C1421 N1419 1.356 . S
N1422 C1414 1.356 . S
N1422 H1428 0.984 . S
N1422 H1429 0.984 . S
N1423 C1416 1.356 . S
N1423 H1426 0.984 . S
N1423 H1427 0.985 . S
H1424 N1419 0.984 . S
H1425 N1419 0.985 . S
H1426 N1423 0.984 . S
H1427 N1423 0.985 . S
H1428 N1422 0.984 . S
H1429 N1422 0.984 . S
H1430 N1418 0.984 . S
H1431 N1418 0.985 . S
C1432 C1433 1.363 . S
C1432 C1438 1.385 . S
C1432 N1440 1.356 . S
C1433 C1432 1.363 . S
C1433 C1439 1.363 1_565 S
C1434 C1435 1.363 . S
C1434 C1439 1.379 . S
C1434 N1441 1.356 . S
C1435 C1434 1.363 . S
C1435 C1438 1.356 1_545 S
N1436 C1438 1.354 1_545 S
N1436 H1448 0.984 1_545 S
N1436 H1449 0.985 . S
N1437 C1439 1.360 . S
N1437 H1442 0.970 1_545 S
N1437 H1443 0.996 . S
C1438 C1432 1.385 . S
C1438 C1435 1.356 1_565 S
C1438 N1436 1.354 1_565 S
C1439 C1433 1.363 1_545 S
C1439 C1434 1.379 . S
C1439 N1437 1.360 . S
N1440 C1432 1.356 . S
N1440 H1446 0.984 . S
N1440 H1447 0.984 . S
N1441 C1434 1.356 . S
N1441 H1444 0.984 . S
N1441 H1445 0.985 . S
H1442 N1437 0.970 1_565 S
H1443 N1437 0.996 . S
H1444 N1441 0.984 . S
H1445 N1441 0.985 . S
H1446 N1440 0.984 . S
H1447 N1440 0.984 . S
H1448 N1436 0.984 1_565 S
H1449 N1436 0.985 . S
C1450 C1451 1.363 . S
C1450 C1456 1.379 . S
C1450 N1458 1.356 . S
C1451 C1450 1.363 . S
C1451 C1457 1.363 . S
C1452 C1453 1.363 . S
C1452 C1457 1.379 . S
C1452 N1459 1.356 . S
C1453 C1452 1.363 . S
C1453 C1456 1.363 . S
N1454 C1456 1.356 . S
N1454 H1466 0.984 . S
N1454 H1467 0.985 . S
N1455 C1457 1.356 . S
N1455 H1460 0.984 . S
N1455 H1461 0.985 . S
C1456 C1450 1.379 . S
C1456 C1453 1.363 . S
C1456 N1454 1.356 . S
C1457 C1451 1.363 . S
C1457 C1452 1.379 . S
C1457 N1455 1.356 . S
N1458 C1450 1.356 . S
N1458 H1464 0.984 . S
N1458 H1465 0.984 . S
N1459 C1452 1.356 . S
N1459 H1462 0.984 . S
N1459 H1463 0.985 . S
H1460 N1455 0.984 . S
H1461 N1455 0.985 . S
H1462 N1459 0.984 . S
H1463 N1459 0.985 . S
H1464 N1458 0.984 . S
H1465 N1458 0.984 . S
H1466 N1454 0.984 . S
H1467 N1454 0.985 . S
C1468 C1469 1.363 . S
C1468 C1474 1.379 1_556 S
C1468 N1476 1.356 . S
C1469 C1468 1.363 . S
C1469 C1475 1.363 1_545 S
C1470 C1471 1.363 1_556 S
C1470 C1475 1.379 . S
C1470 N1477 1.356 . S
C1471 C1470 1.363 1_554 S
C1471 C1474 1.363 1_565 S
N1472 C1474 1.356 . S
N1472 H1484 0.984 . S
N1472 H1485 0.985 1_545 S
N1473 C1475 1.356 . S
N1473 H1478 0.962 1_565 S
N1473 H1479 0.985 . S
C1474 C1468 1.379 1_554 S
C1474 C1471 1.363 1_545 S
C1474 N1472 1.356 . S
C1475 C1469 1.363 1_565 S
C1475 C1470 1.379 . S
C1475 N1473 1.356 . S
N1476 C1468 1.356 . S
N1476 H1482 0.984 . S
N1476 H1483 0.984 . S
N1477 C1470 1.356 . S
N1477 H1480 0.984 1_556 S
N1477 H1481 0.985 . S
H1478 N1473 0.962 1_545 S
H1479 N1473 0.985 . S
H1480 N1477 0.984 1_554 S
H1481 N1477 0.985 . S
H1482 N1476 0.984 . S
H1483 N1476 0.984 . S
H1484 N1472 0.984 . S
H1485 N1472 0.985 1_565 S
C1486 C1487 1.363 . S
C1486 C1492 1.379 . S
C1486 N1494 1.356 . S
C1487 C1486 1.363 . S
C1487 C1493 1.363 . S
C1488 C1489 1.363 . S
C1488 C1493 1.379 . S
C1488 N1495 1.356 . S
C1489 C1488 1.363 . S
C1489 C1492 1.363 . S
N1490 C1492 1.356 . S
N1490 H1502 0.984 . S
N1490 H1503 0.985 . S
N1491 C1493 1.356 . S
N1491 H1496 0.984 . S
N1491 H1497 0.985 . S
C1492 C1486 1.379 . S
C1492 C1489 1.363 . S
C1492 N1490 1.356 . S
C1493 C1487 1.363 . S
C1493 C1488 1.379 . S
C1493 N1491 1.356 . S
N1494 C1486 1.356 . S
N1494 H1500 0.984 . S
N1494 H1501 0.984 . S
N1495 C1488 1.356 . S
N1495 H1498 0.984 . S
N1495 H1499 0.985 . S
H1496 N1491 0.984 . S
H1497 N1491 0.985 . S
H1498 N1495 0.984 . S
H1499 N1495 0.985 . S
H1500 N1494 0.984 . S
H1501 N1494 0.984 . S
H1502 N1490 0.984 . S
H1503 N1490 0.985 . S
C641 C5 1.590 . S
C643 C15 1.590 . S
C659 C55 1.512 . S
C661 C45 1.512 . S
C677 C85 1.844 . S
C679 C95 1.844 . S
C695 C135 1.681 . S
C697 C125 1.681 . S
C713 C165 1.512 . S
C715 C175 1.512 . S
C731 C205 1.844 . S
C733 C215 1.844 . S
C749 C245 1.681 . S
C751 C255 1.681 . S
C767 C295 1.590 . S
C769 C285 1.590 . S
C785 C335 1.581 . S
C787 C325 1.581 . S
C803 C375 1.507 . S
C805 C365 1.507 . S
C821 C415 1.915 . S
C823 C405 1.915 . S
C839 C445 1.686 . S
C841 C455 1.686 . S
C857 C495 1.507 . S
C859 C485 1.507 . S
C875 C535 1.915 . S
C877 C525 1.915 . S
C893 C575 1.686 . S
C895 C565 1.686 . S
C911 C605 1.581 . S
C913 C615 1.581 . S
C929 C19 1.953 . S
C931 C449 1.959 . S
C947 C58 1.561 . S
C949 C608 1.586 . S
C965 C99 1.929 . S
C967 C369 2.000 . S
C983 C138 1.535 . S
C985 C529 1.558 . S
C1001 C179 1.874 . S
C1003 C528 1.842 . S
C1019 C448 1.493 . S
C1021 C218 1.567 . S
C1037 C259 1.916 . S
C1039 C609 1.911 . S
C1055 C298 1.534 . S
C1057 C368 1.516 . S
C1073 C139 1.916 . S
C1075 C329 1.911 . S
C1091 C59 1.874 . S
C1093 C408 1.842 . S
C1109 C489 2.000 . S
C1111 C219 1.929 . S
C1127 C299 1.953 . S
C1129 C569 1.959 . S
C1145 C328 1.586 . S
C1147 C178 1.561 . S
C1163 C258 1.535 . S
C1165 C409 1.558 . S
C1181 C98 1.567 . S
C1183 C568 1.493 . S
C1199 C18 1.534 . S
C1201 C488 1.516 . S
C1217 C9 2.064 . S
C1219 C169 2.075 . S
C1235 C48 1.852 . S
C1237 C208 1.856 . S
C1253 C89 1.816 . S
C1255 C249 1.821 . S
C1271 C128 1.601 . S
C1273 C288 1.582 . S
C1289 C499 2.046 . S
C1291 C339 2.036 . S
C1307 C539 1.682 . S
C1309 C378 1.662 . S
C1325 C418 2.073 . S
C1327 C579 2.072 . S
C1343 C618 1.631 . S
C1345 C458 1.648 . S
C1361 C49 2.075 . S
C1363 C289 2.064 . S
C1379 C168 1.852 . S
C1381 C88 1.856 . S
C1397 C209 1.816 . S
C1399 C129 1.821 . S
C1415 C8 1.582 . S
C1417 C248 1.601 . S
C1433 C619 2.036 . S
C1435 C379 2.046 . S
C1451 C498 1.662 . S
C1453 C419 1.682 . S
C1469 C538 2.073 . S
C1471 C459 2.072 . S
C1487 C578 1.648 . S
C1489 C338 1.631 . S
