# Generated by pormake.
# Topology snx, (6)-cn, num edge types: 1
# Building blocks:
#     Node 0, Type 0, BuildingBlock: OJICUG_clean_sbu_0, # of connection points: 6
#     Node 1, Type 0, BuildingBlock: OJICUG_clean_sbu_0, # of connection points: 6
#     Node 2, Type 0, BuildingBlock: OJICUG_clean_sbu_0, # of connection points: 6
#     Node 3, Type 0, BuildingBlock: OJICUG_clean_sbu_0, # of connection points: 6
#     Node 4, Type 0, BuildingBlock: OJICUG_clean_sbu_0, # of connection points: 6
#     Node 5, Type 0, BuildingBlock: OJICUG_clean_sbu_0, # of connection points: 6
#     Edge 6, Type (0, 0), BuildingBlock: XUDNAN_clean_linker_2, # of connection points: 2
#     Edge 7, Type (0, 0), BuildingBlock: XUDNAN_clean_linker_2, # of connection points: 2
#     Edge 8, Type (0, 0), BuildingBlock: XUDNAN_clean_linker_2, # of connection points: 2
#     Edge 9, Type (0, 0), BuildingBlock: XUDNAN_clean_linker_2, # of connection points: 2
#     Edge 10, Type (0, 0), BuildingBlock: XUDNAN_clean_linker_2, # of connection points: 2
#     Edge 11, Type (0, 0), BuildingBlock: XUDNAN_clean_linker_2, # of connection points: 2
#     Edge 12, Type (0, 0), BuildingBlock: XUDNAN_clean_linker_2, # of connection points: 2
#     Edge 13, Type (0, 0), BuildingBlock: XUDNAN_clean_linker_2, # of connection points: 2
#     Edge 14, Type (0, 0), BuildingBlock: XUDNAN_clean_linker_2, # of connection points: 2
#     Edge 15, Type (0, 0), BuildingBlock: XUDNAN_clean_linker_2, # of connection points: 2
#     Edge 16, Type (0, 0), BuildingBlock: XUDNAN_clean_linker_2, # of connection points: 2
#     Edge 17, Type (0, 0), BuildingBlock: XUDNAN_clean_linker_2, # of connection points: 2
#     Edge 18, Type (0, 0), BuildingBlock: XUDNAN_clean_linker_2, # of connection points: 2
#     Edge 19, Type (0, 0), BuildingBlock: XUDNAN_clean_linker_2, # of connection points: 2
#     Edge 20, Type (0, 0), BuildingBlock: XUDNAN_clean_linker_2, # of connection points: 2
#     Edge 21, Type (0, 0), BuildingBlock: XUDNAN_clean_linker_2, # of connection points: 2
#     Edge 22, Type (0, 0), BuildingBlock: XUDNAN_clean_linker_2, # of connection points: 2
#     Edge 23, Type (0, 0), BuildingBlock: XUDNAN_clean_linker_2, # of connection points: 2
# Relax obj value: 0.060
# Max RMSD: 0.112
# Mean RMSD: 0.112
data_MOF--net-snx--node1-OJICUG_clean_sbu_0--edge1-XUDNAN_clean_linker_2
_symmetry_space_group_name_H-M    P1
_symmetry_Int_Tables_number       1
_symmetry_cell_setting            triclinic
loop_
_symmetry_equiv_pos_as_xyz
'x, y, z'
_cell_length_a     38.280097
_cell_length_b     38.327328
_cell_length_c     21.236636
_cell_angle_alpha  89.858907
_cell_angle_beta   89.93096
_cell_angle_gamma 120.16393
loop_
_atom_site_label
_atom_site_type_symbol
_atom_site_fract_x
_atom_site_fract_y
_atom_site_fract_z
_atom_type_partial_charge
Sc0 Sc 0.20205 0.41609 0.16975 0.0
Sc1 Sc 0.19507 0.40389 0.33489 0.0
Sc2 Sc 0.15763 0.31961 0.23426 0.0
O3 O 0.18469 0.37992 0.24649 0.0
C4 C 0.11709 0.34198 0.12496 0.0
C5 C 0.1692 0.45944 0.2584 0.0
C6 C 0.10875 0.32664 0.35206 0.0
C7 C 0.27633 0.46436 0.26376 0.0
C8 C 0.2249 0.35184 0.1262 0.0
C9 C 0.21622 0.33341 0.34814 0.0
O10 O 0.14806 0.37677 0.11748 0.0
O11 O 0.17844 0.44834 0.30925 0.0
O12 O 0.11569 0.30764 0.30951 0.0
O13 O 0.25883 0.45851 0.2109 0.0
O14 O 0.19634 0.32356 0.15743 0.0
O15 O 0.21375 0.36279 0.37091 0.0
O16 O 0.23318 0.38823 0.1292 0.0
O17 O 0.2581 0.44598 0.31396 0.0
O18 O 0.19987 0.31633 0.29655 0.0
O19 O 0.17305 0.44771 0.20423 0.0
O20 O 0.1136 0.31837 0.16977 0.0
O21 O 0.1331 0.36363 0.36444 0.0
Sc22 Sc 0.82573 0.14677 0.74407 0.0
Sc23 Sc 0.79016 0.20502 0.67091 0.0
Sc24 Sc 0.79373 0.20139 0.83616 0.0
O25 O 0.80329 0.18456 0.75048 0.0
C26 C 0.76787 0.11038 0.86374 0.0
C27 C 0.76134 0.11293 0.63617 0.0
C28 C 0.71465 0.18292 0.75864 0.0
C29 C 0.87014 0.20817 0.62917 0.0
C30 C 0.87968 0.20738 0.85118 0.0
C31 C 0.82281 0.2825 0.75936 0.0
O32 O 0.79164 0.10943 0.82297 0.0
O33 O 0.76658 0.14778 0.62425 0.0
O34 O 0.73485 0.19014 0.80926 0.0
O35 O 0.86245 0.17794 0.66358 0.0
O36 O 0.85179 0.21341 0.87123 0.0
O37 O 0.81116 0.26466 0.7068 0.0
O38 O 0.87586 0.18577 0.80337 0.0
O39 O 0.84953 0.22582 0.63105 0.0
O40 O 0.82141 0.26415 0.81007 0.0
O41 O 0.77745 0.10583 0.68319 0.0
O42 O 0.76356 0.14075 0.8717 0.0
O43 O 0.72979 0.18564 0.70416 0.0
Sc44 Sc 0.67789 0.84257 0.25505 0.0
Sc45 Sc 0.58888 0.77928 0.17353 0.0
Sc46 Sc 0.58785 0.78461 0.33937 0.0
O47 O 0.61816 0.80177 0.2558 0.0
C48 C 0.668 0.7863 0.37431 0.0
C49 C 0.67254 0.78053 0.15171 0.0
C50 C 0.54144 0.70241 0.26105 0.0
C51 C 0.6495 0.86989 0.13298 0.0
C52 C 0.64882 0.87849 0.36143 0.0
C53 C 0.52953 0.79958 0.25245 0.0
O54 O 0.68841 0.81552 0.33659 0.0
O55 O 0.63585 0.76848 0.13713 0.0
O56 O 0.54844 0.72299 0.31101 0.0
O57 O 0.67564 0.87516 0.17417 0.0
O58 O 0.62184 0.84402 0.38125 0.0
O59 O 0.5407 0.78975 0.20218 0.0
O60 O 0.66927 0.88359 0.3118 0.0
O61 O 0.61569 0.83755 0.12865 0.0
O62 O 0.54453 0.80071 0.30644 0.0
O63 O 0.69097 0.80545 0.19588 0.0
O64 O 0.62958 0.76763 0.37705 0.0
O65 O 0.55718 0.71817 0.20825 0.0
Sc66 Sc 0.85319 0.67651 0.75104 0.0
Sc67 Sc 0.79132 0.58673 0.66931 0.0
Sc68 Sc 0.79052 0.58821 0.83547 0.0
O69 O 0.81137 0.61709 0.7516 0.0
C70 C 0.8841 0.64744 0.86407 0.0
C71 C 0.88306 0.64765 0.63215 0.0
C72 C 0.80957 0.52923 0.75692 0.0
C73 C 0.79232 0.66962 0.64325 0.0
C74 C 0.79311 0.66927 0.86369 0.0
C75 C 0.71118 0.54057 0.75108 0.0
O76 O 0.89152 0.66774 0.81375 0.0
O77 O 0.84982 0.61497 0.62563 0.0
O78 O 0.80687 0.54465 0.8084 0.0
O79 O 0.81811 0.68887 0.68609 0.0
O80 O 0.77365 0.63096 0.86695 0.0
O81 O 0.72962 0.55385 0.69924 0.0
O82 O 0.82386 0.68893 0.82817 0.0
O83 O 0.77942 0.6325 0.63076 0.0
O84 O 0.72923 0.54933 0.80374 0.0
O85 O 0.88873 0.67295 0.67502 0.0
O86 O 0.84869 0.62129 0.88172 0.0
O87 O 0.80267 0.53944 0.70297 0.0
Sc88 Sc 0.15831 0.83441 0.236 0.0
Sc89 Sc 0.21078 0.80058 0.33189 0.0
Sc90 Sc 0.21347 0.79498 0.16621 0.0
O91 O 0.19453 0.8103 0.2448 0.0
C92 C 0.12416 0.76872 0.12636 0.0
C93 C 0.11793 0.77506 0.35119 0.0
C94 C 0.1902 0.72044 0.25888 0.0
C95 C 0.21565 0.88434 0.35182 0.0
C96 C 0.22102 0.87906 0.12562 0.0
C97 C 0.29152 0.82796 0.25158 0.0
O98 O 0.12219 0.79449 0.16138 0.0
O99 O 0.15106 0.77924 0.37166 0.0
O100 O 0.19944 0.7378 0.20544 0.0
O101 O 0.18858 0.87651 0.31073 0.0
O102 O 0.22761 0.84996 0.11776 0.0
O103 O 0.2723 0.81942 0.30357 0.0
O104 O 0.19861 0.87974 0.16939 0.0
O105 O 0.23048 0.86163 0.36194 0.0
O106 O 0.27453 0.82342 0.19855 0.0
O107 O 0.11509 0.79078 0.30017 0.0
O108 O 0.15471 0.76419 0.125 0.0
O109 O 0.1918 0.7385 0.30992 0.0
Sc110 Sc 0.31794 0.16945 0.74459 0.0
Sc111 Sc 0.40795 0.20472 0.82955 0.0
Sc112 Sc 0.40815 0.19918 0.66445 0.0
O113 O 0.37814 0.19114 0.74643 0.0
C114 C 0.32965 0.11862 0.63475 0.0
C115 C 0.32769 0.11991 0.85579 0.0
C116 C 0.45569 0.17057 0.75527 0.0
C117 C 0.34474 0.23241 0.85751 0.0
C118 C 0.34378 0.22646 0.62807 0.0
C119 C 0.46577 0.27908 0.73969 0.0
O120 O 0.30885 0.1293 0.66765 0.0
O121 O 0.36212 0.14865 0.87305 0.0
O122 O 0.44877 0.18068 0.70176 0.0
O123 O 0.31822 0.20661 0.82086 0.0
O124 O 0.37195 0.21912 0.61526 0.0
O125 O 0.45628 0.26179 0.79345 0.0
O126 O 0.32381 0.21524 0.67931 0.0
O127 O 0.37997 0.23755 0.86252 0.0
O128 O 0.44944 0.26097 0.68854 0.0
O129 O 0.30878 0.12199 0.80804 0.0
O130 O 0.36808 0.13787 0.63474 0.0
O131 O 0.44012 0.1742 0.8058 0.0
H132 H 0.19236 0.52026 0.34422 0.0
H133 H 0.12014 0.46899 0.17629 0.0
H134 H 0.1093 0.52702 0.16884 0.0
H135 H 0.13605 0.57139 0.40607 0.0
H136 H 0.18241 0.61454 0.43216 0.0
H137 H 0.17728 0.56512 0.4327 0.0
H138 H 0.24194 0.59238 0.36435 0.0
H139 H 0.24702 0.64161 0.36287 0.0
H140 H 0.24451 0.61642 0.29002 0.0
H141 H 0.11655 0.59424 0.16732 0.0
H142 H 0.13923 0.66668 0.17417 0.0
H143 H 0.20645 0.67609 0.34372 0.0
C144 C 0.1729 0.52054 0.30748 0.0
C145 C 0.15672 0.49005 0.26114 0.0
C146 C 0.13262 0.49201 0.21236 0.0
C147 C 0.12616 0.52474 0.20793 0.0
C148 C 0.14392 0.55518 0.25274 0.0
C149 C 0.16648 0.55331 0.30204 0.0
C150 C 0.18635 0.5924 0.33907 0.0
C151 C 0.1695 0.58544 0.40651 0.0
C152 C 0.23268 0.61183 0.33902 0.0
C153 C 0.17304 0.61714 0.30095 0.0
C154 C 0.14807 0.59473 0.25197 0.0
C155 C 0.13522 0.61184 0.2063 0.0
C156 C 0.14851 0.65302 0.2103 0.0
C157 C 0.17429 0.67664 0.25969 0.0
C158 C 0.18602 0.65834 0.30636 0.0
H159 H 0.6665 0.19095 0.67089 0.0
H160 H 0.66557 0.14697 0.85981 0.0
H161 H 0.59462 0.12941 0.87289 0.0
H162 H 0.61301 0.2389 0.70794 0.0
H163 H 0.58503 0.22721 0.63535 0.0
H164 H 0.63352 0.23045 0.63692 0.0
H165 H 0.60141 0.15803 0.59175 0.0
H166 H 0.55266 0.15453 0.59031 0.0
H167 H 0.55906 0.11703 0.63179 0.0
H168 H 0.52727 0.12369 0.8706 0.0
H169 H 0.46897 0.13345 0.85505 0.0
H170 H 0.51312 0.1815 0.6679 0.0
C171 C 0.65102 0.17676 0.7144 0.0
C172 C 0.67144 0.17022 0.76425 0.0
C173 C 0.65052 0.15242 0.82107 0.0
C174 C 0.61011 0.14198 0.82877 0.0
C175 C 0.59101 0.14947 0.7792 0.0
C176 C 0.61071 0.16649 0.72311 0.0
C177 C 0.58461 0.17532 0.67995 0.0
C178 C 0.60527 0.22065 0.66417 0.0
C179 C 0.57379 0.14969 0.61989 0.0
C180 C 0.54784 0.162 0.72154 0.0
C181 C 0.55187 0.14647 0.77808 0.0
C182 C 0.5234 0.13518 0.82615 0.0
C183 C 0.49044 0.14095 0.81692 0.0
C184 C 0.48639 0.1581 0.76018 0.0
C185 C 0.51494 0.16763 0.71133 0.0
H186 H 0.32265 0.52405 0.34898 0.0
H187 H 0.32891 0.46656 0.17714 0.0
H188 H 0.40165 0.51579 0.16797 0.0
H189 H 0.3828 0.62152 0.29533 0.0
H190 H 0.40803 0.64277 0.36878 0.0
H191 H 0.35847 0.59873 0.36901 0.0
H192 H 0.3852 0.56018 0.43521 0.0
H193 H 0.43501 0.60425 0.43505 0.0
H194 H 0.4278 0.55672 0.40702 0.0
H195 H 0.47009 0.57558 0.16819 0.0
H196 H 0.52963 0.64387 0.17615 0.0
H197 H 0.48033 0.66415 0.34729 0.0
C198 C 0.33979 0.52125 0.3107 0.0
C199 C 0.32048 0.49147 0.26404 0.0
C200 C 0.34335 0.48925 0.21337 0.0
C201 C 0.3847 0.51686 0.20799 0.0
C202 C 0.40282 0.54664 0.25364 0.0
C203 C 0.38123 0.54911 0.30411 0.0
C204 C 0.407 0.58701 0.34204 0.0
C205 C 0.38794 0.6141 0.34384 0.0
C206 C 0.41418 0.57639 0.40879 0.0
C207 C 0.44569 0.60607 0.30352 0.0
C208 C 0.44283 0.58186 0.25344 0.0
C209 C 0.47311 0.59452 0.20792 0.0
C210 C 0.50678 0.6334 0.21272 0.0
C211 C 0.50986 0.65922 0.2626 0.0
C212 C 0.47937 0.6448 0.30946 0.0
H213 H 0.7958 0.46899 0.67245 0.0
H214 H 0.85161 0.52011 0.85242 0.0
H215 H 0.86892 0.46687 0.86583 0.0
H216 H 0.74985 0.36863 0.72002 0.0
H217 H 0.75738 0.3494 0.647 0.0
H218 H 0.75415 0.39462 0.647 0.0
H219 H 0.82374 0.43331 0.59104 0.0
H220 H 0.8272 0.3881 0.59102 0.0
H221 H 0.86693 0.43373 0.62566 0.0
H222 H 0.87339 0.40456 0.86641 0.0
H223 H 0.86359 0.33619 0.85412 0.0
H224 H 0.8059 0.32533 0.67353 0.0
C225 C 0.81243 0.46943 0.71394 0.0
C226 C 0.82226 0.49867 0.76135 0.0
C227 C 0.84344 0.49785 0.81559 0.0
C228 C 0.85374 0.46791 0.8235 0.0
C229 C 0.84289 0.43902 0.77667 0.0
C230 C 0.82282 0.4395 0.72283 0.0
C231 C 0.81161 0.40283 0.68249 0.0
C232 C 0.76552 0.37737 0.67366 0.0
C233 C 0.8337 0.41525 0.61878 0.0
C234 C 0.82731 0.38114 0.72318 0.0
C235 C 0.84573 0.40282 0.77687 0.0
C236 C 0.85968 0.38754 0.82403 0.0
C237 C 0.8539 0.34865 0.81672 0.0
C238 C 0.83431 0.32551 0.76269 0.0
C239 C 0.82177 0.34253 0.71478 0.0
H240 H 0.47065 0.78895 0.33739 0.0
H241 H 0.52058 0.83959 0.15385 0.0
H242 H 0.47063 0.86181 0.14212 0.0
H243 H 0.36919 0.74824 0.29261 0.0
H244 H 0.35242 0.75772 0.36662 0.0
H245 H 0.39542 0.75063 0.36438 0.0
H246 H 0.43866 0.81967 0.41935 0.0
H247 H 0.39577 0.82713 0.42106 0.0
H248 H 0.4424 0.86445 0.38484 0.0
H249 H 0.41329 0.87419 0.14611 0.0
H250 H 0.34711 0.86931 0.15993 0.0
H251 H 0.33196 0.80891 0.33953 0.0
C252 C 0.47136 0.8053 0.29528 0.0
C253 C 0.4995 0.81277 0.24662 0.0
C254 C 0.49911 0.83343 0.19152 0.0
C255 C 0.47116 0.84654 0.18473 0.0
C256 C 0.44364 0.83854 0.23328 0.0
C257 C 0.44313 0.81802 0.28722 0.0
C258 C 0.40754 0.80953 0.32903 0.0
C259 C 0.37949 0.76383 0.33868 0.0
C260 C 0.42197 0.83152 0.39233 0.0
C261 C 0.38761 0.82758 0.28932 0.0
C262 C 0.40952 0.8449 0.23496 0.0
C263 C 0.39604 0.86113 0.18876 0.0
C264 C 0.3584 0.85821 0.19706 0.0
C265 C 0.33447 0.83891 0.25093 0.0
C266 C 0.34995 0.82462 0.29857 0.0
H267 H 0.66746 0.47971 0.83562 0.0
H268 H 0.65786 0.53059 0.65813 0.0
H269 H 0.59006 0.47162 0.64194 0.0
H270 H 0.62709 0.383 0.78382 0.0
H271 H 0.59957 0.35808 0.85444 0.0
H272 H 0.64375 0.40741 0.85915 0.0
H273 H 0.60237 0.43489 0.91515 0.0
H274 H 0.55805 0.38537 0.91163 0.0
H275 H 0.55677 0.42821 0.8792 0.0
H276 H 0.52939 0.40346 0.63618 0.0
H277 H 0.47687 0.33178 0.64464 0.0
H278 H 0.52486 0.32428 0.82616 0.0
C279 C 0.65039 0.47919 0.79464 0.0
C280 C 0.66777 0.50987 0.74835 0.0
C281 C 0.64504 0.50749 0.6943 0.0
C282 C 0.60648 0.47414 0.68472 0.0
C283 C 0.59097 0.44351 0.72978 0.0
C284 C 0.61189 0.4459 0.78415 0.0
C285 C 0.5901 0.40704 0.82188 0.0
C286 C 0.61672 0.38777 0.83027 0.0
C287 C 0.57598 0.41432 0.88575 0.0
C288 C 0.55458 0.38198 0.779 0.0
C289 C 0.55551 0.40378 0.72647 0.0
C290 C 0.52783 0.38629 0.67768 0.0
C291 C 0.49832 0.34544 0.68271 0.0
C292 C 0.49666 0.32244 0.73617 0.0
C293 C 0.52498 0.34121 0.78518 0.0
H294 H 0.27199 0.21012 0.91209 0.0
H295 H 0.39401 0.311 0.89041 0.0
H296 H 0.37625 0.35346 0.9552 0.0
H297 H 0.21953 0.26576 0.90904 0.0
H298 H 0.18374 0.2354 0.9692 0.0
H299 H 0.2057 0.21364 0.91905 0.0
H300 H 0.23084 0.19241 0.0173 0.0
H301 H 0.20894 0.21408 0.06774 0.0
H302 H 0.26182 0.23003 0.07442 0.0
H303 H 0.34447 0.38508 0.01979 0.0
H304 H 0.3026 0.40226 0.0872 0.0
H305 H 0.20293 0.27911 0.07211 0.0
C306 C 0.29481 0.24125 0.92066 0.0
C307 C 0.33419 0.25758 0.89604 0.0
C308 C 0.36363 0.29811 0.90907 0.0
C309 C 0.3538 0.32241 0.94552 0.0
C310 C 0.31465 0.30537 0.96928 0.0
C311 C 0.28578 0.2656 0.95805 0.0
C312 C 0.24656 0.25405 0.9916 0.0
C313 C 0.21184 0.24149 0.94439 0.0
C314 C 0.23647 0.22067 0.04068 0.0
C315 C 0.25771 0.2937 0.02279 0.0
C316 C 0.29698 0.32303 0.00891 0.0
C317 C 0.31374 0.36233 0.03132 0.0
C318 C 0.28973 0.37182 0.06932 0.0
C319 C 0.24966 0.34194 0.08501 0.0
C320 C 0.2336 0.30244 0.06137 0.0
H321 H 0.92781 0.2852 0.59066 0.0
H322 H 0.88524 0.15797 0.56155 0.0
H323 H 0.94014 0.17534 0.4856 0.0
H324 H 0.96191 0.31864 0.42833 0.0
H325 H 0.00638 0.36467 0.45189 0.0
H326 H 0.96191 0.3428 0.50107 0.0
H327 H 0.00428 0.34158 0.59515 0.0
H328 H 0.04882 0.36326 0.54621 0.0
H329 H 0.03302 0.3163 0.5869 0.0
H330 H -0.00121 0.20467 0.41623 0.0
H331 H 0.0613 0.24511 0.35669 0.0
H332 H 0.07046 0.35504 0.43114 0.0
C333 C 0.92992 0.26119 0.56747 0.0
C334 C 0.90231 0.22023 0.58165 0.0
C335 C 0.90623 0.1895 0.55144 0.0
C336 C 0.93718 0.19903 0.50809 0.0
C337 C 0.96429 0.2395 0.49579 0.0
C338 C 0.96133 0.27024 0.52448 0.0
C339 C 0.99621 0.31118 0.50459 0.0
C340 C 0.98066 0.33577 0.46937 0.0
C341 C 0.02211 0.33445 0.56162 0.0
C342 C 0.01909 0.29837 0.46065 0.0
C343 C -0.00035 0.25683 0.45617 0.0
C344 C 0.01434 0.23725 0.41906 0.0
C345 C 0.04997 0.26066 0.3853 0.0
C346 C 0.07095 0.3034 0.38895 0.0
C347 C 0.05524 0.32249 0.42742 0.0
H348 H 0.7908 0.06006 0.91719 0.0
H349 H 0.68911 0.07947 0.89695 0.0
H350 H 0.64645 0.01778 0.95957 0.0
H351 H 0.73562 0.95112 0.91229 0.0
H352 H 0.76586 0.94571 0.97226 0.0
H353 H 0.78764 0.98989 0.92259 0.0
H354 H 0.8081 0.03565 0.02125 0.0
H355 H 0.78654 0.99164 0.07119 0.0
H356 H 0.77007 0.02801 0.07853 0.0
H357 H 0.6145 0.9528 0.0215 0.0
H358 H 0.59778 0.89392 0.08984 0.0
H359 H 0.72203 0.9209 0.07784 0.0
C360 C 0.75947 0.05106 0.92571 0.0
C361 C 0.74297 0.07408 0.90203 0.0
C362 C 0.70215 0.06206 0.91491 0.0
C363 C 0.6777 0.02704 0.95004 0.0
C364 C 0.69484 0.00491 0.9728 0.0
C365 C 0.73495 0.0168 0.96206 0.0
C366 C 0.74665 0.98921 0.99532 0.0
C367 C 0.7597 0.96771 0.94777 0.0
C368 C 0.77979 0.01252 0.04449 0.0
C369 C 0.70685 0.95992 0.02632 0.0
C370 C 0.67713 0.96903 0.0118 0.0
C371 C 0.63757 0.94553 0.03361 0.0
C372 C 0.62831 0.91214 0.07206 0.0
C373 C 0.65872 0.90327 0.0892 0.0
C374 C 0.69837 0.92739 0.06583 0.0
H375 H 0.64643 0.71103 0.42246 0.0
H376 H 0.74138 0.83687 0.42403 0.0
H377 H 0.78205 0.82004 0.49386 0.0
H378 H 0.65814 0.68776 0.58504 0.0
H379 H 0.64973 0.63818 0.56707 0.0
H380 H 0.62657 0.65998 0.51949 0.0
H381 H 0.65929 0.64977 0.41963 0.0
H382 H 0.68268 0.6281 0.46691 0.0
H383 H 0.71328 0.6708 0.41672 0.0
H384 H 0.81251 0.79105 0.56195 0.0
H385 H 0.83331 0.75044 0.62374 0.0
H386 H 0.72105 0.64168 0.57621 0.0
C387 C 0.67559 0.73497 0.43818 0.0
C388 C 0.69079 0.77528 0.41808 0.0
C389 C 0.72931 0.80579 0.43868 0.0
C390 C 0.75257 0.79658 0.47848 0.0
C391 C 0.7371 0.75663 0.49682 0.0
C392 C 0.69969 0.72616 0.47734 0.0
C393 C 0.69136 0.68552 0.5024 0.0
C394 C 0.65425 0.66676 0.5461 0.0
C395 C 0.68637 0.65686 0.44817 0.0
C396 C 0.72997 0.69812 0.53889 0.0
C397 C 0.7556 0.73938 0.53521 0.0
C398 C 0.79279 0.7587 0.56529 0.0
C399 C 0.80425 0.73529 0.60043 0.0
C400 C 0.7788 0.69286 0.60491 0.0
C401 C 0.74121 0.674 0.57331 0.0
H402 H 0.90459 0.68288 0.97921 0.0
H403 H 0.94194 0.63015 0.83253 0.0
H404 H 0.00536 0.64992 0.89011 0.0
H405 H -0.00164 0.76852 0.99769 0.0
H406 H 0.99515 0.77281 0.08174 0.0
H407 H 0.94976 0.74851 0.03543 0.0
H408 H 0.92243 0.68411 0.10441 0.0
H409 H 0.96764 0.70838 0.15145 0.0
H410 H 0.95259 0.66051 0.11483 0.0
H411 H 0.06643 0.68041 0.95755 0.0
H412 H 0.12289 0.72149 0.02911 0.0
H413 H 0.04754 0.7579 0.12981 0.0
C414 C 0.92569 0.67446 0.96065 0.0
C415 C 0.91855 0.65437 0.9026 0.0
C416 C 0.94708 0.64503 0.87771 0.0
C417 C 0.98297 0.65606 0.91003 0.0
C418 C 0.98977 0.67672 0.96668 0.0
C419 C 0.962 0.68589 0.99188 0.0
C420 C 0.97865 0.7121 0.04981 0.0
C421 C 0.9806 0.75289 0.04057 0.0
C422 C 0.95385 0.68994 0.10861 0.0
C423 C 0.02046 0.71714 0.05211 0.0
C424 C 0.02593 0.69588 0.00442 0.0
C425 C 0.06244 0.69689 0.9955 0.0
C426 C 0.09436 0.72041 0.03635 0.0
C427 C 0.08971 0.74304 0.08499 0.0
C428 C 0.0521 0.74105 0.09303 0.0
H429 H 0.35409 0.06751 0.58472 0.0
H430 H 0.25486 0.09198 0.5874 0.0
H431 H 0.21659 0.0357 0.51491 0.0
H432 H 0.34517 0.03844 0.42089 0.0
H433 H 0.35579 -0.00176 0.43438 0.0
H434 H 0.37665 0.04126 0.48602 0.0
H435 H 0.34428 0.99388 0.58209 0.0
H436 H 0.32337 0.95071 0.53076 0.0
H437 H 0.29067 0.9586 0.58261 0.0
H438 H 0.18948 0.97929 0.44147 0.0
H439 H 0.17203 0.92095 0.37415 0.0
H440 H 0.28627 0.92852 0.4202 0.0
C441 C 0.32436 0.06097 0.56982 0.0
C442 C 0.30746 0.08414 0.59177 0.0
C443 C 0.26833 0.07451 0.57169 0.0
C444 C 0.24636 0.0427 0.53024 0.0
C445 C 0.26369 0.02044 0.50961 0.0
C446 C 0.30153 0.02868 0.52889 0.0
C447 C 0.31211 -0.00118 0.5004 0.0
C448 C 0.34966 0.02049 0.45789 0.0
C449 C 0.31794 0.97403 0.55206 0.0
C450 C 0.27431 0.97281 0.46209 0.0
C451 C 0.24712 0.98632 0.46793 0.0
C452 C 0.21037 0.96823 0.43655 0.0
C453 C 0.20086 0.93517 0.39816 0.0
C454 C 0.22779 0.92013 0.39179 0.0
C455 C 0.26502 0.93921 0.42441 0.0
H456 H 0.64634 0.71147 0.08005 0.0
H457 H 0.75357 0.82348 0.13314 0.0
H458 H 0.79493 0.80746 0.06372 0.0
H459 H 0.69639 0.65207 0.07545 0.0
H460 H 0.66773 0.6222 0.0091 0.0
H461 H 0.6458 0.64251 0.0623 0.0
H462 H 0.632 0.67725 0.96854 0.0
H463 H 0.65411 0.65724 0.91511 0.0
H464 H 0.67322 0.71084 0.9179 0.0
H465 H 0.82448 0.78199 0.98565 0.0
H466 H 0.84221 0.74425 0.91088 0.0
H467 H 0.71765 0.64611 0.91212 0.0
C468 C 0.67852 0.73248 0.07707 0.0
C469 C 0.69669 0.76872 0.11207 0.0
C470 C 0.73897 0.79537 0.10728 0.0
C471 C 0.76276 0.7867 0.06764 0.0
C472 C 0.74402 0.75099 0.03359 0.0
C473 C 0.70305 0.72392 0.03844 0.0
C474 C 0.69112 0.68706 0.99792 0.0
C475 C 0.67427 0.64869 0.03863 0.0
C476 C 0.66082 0.68287 0.94684 0.0
C477 C 0.73176 0.69796 0.96942 0.0
C478 C 0.76166 0.73524 0.99017 0.0
C479 C 0.80145 0.7526 0.96933 0.0
C480 C 0.81117 0.73103 0.92661 0.0
C481 C 0.78136 0.69225 0.90589 0.0
C482 C 0.74111 0.67557 0.92759 0.0
H483 H 0.96442 0.70327 0.64157 0.0
H484 H 0.8742 0.61563 0.51474 0.0
H485 H 0.92565 0.63654 0.43134 0.0
H486 H 0.01663 0.78051 0.53061 0.0
H487 H 0.06641 0.7967 0.56096 0.0
H488 H 0.02329 0.77328 0.6127 0.0
H489 H 0.04186 0.71932 0.64459 0.0
H490 H 0.08526 0.74275 0.59318 0.0
H491 H 0.04839 0.69001 0.58433 0.0
H492 H 0.98388 0.67203 0.35823 0.0
H493 H 0.04825 0.71548 0.30245 0.0
H494 H 0.10296 0.77663 0.47732 0.0
C495 C 0.95565 0.68813 0.59651 0.0
C496 C 0.91522 0.65784 0.58473 0.0
C497 C 0.90497 0.63873 0.52513 0.0
C498 C 0.93396 0.65045 0.47731 0.0
C499 C 0.97328 0.68083 0.49006 0.0
C500 C 0.98444 0.69896 0.54843 0.0
C501 C 0.02878 0.73127 0.54915 0.0
C502 C 0.03407 0.77289 0.56424 0.0
C503 C 0.05247 0.72016 0.59557 0.0
C504 C 0.0404 0.72919 0.48155 0.0
C505 C 0.00777 0.69998 0.44832 0.0
C506 C 0.0099 0.69441 0.38396 0.0
C507 C 0.04641 0.71928 0.35267 0.0
C508 C 0.08039 0.74882 0.38595 0.0
C509 C 0.07751 0.7536 0.45129 0.0
H510 H 0.2535 0.96114 0.14216 0.0
H511 H 0.2241 0.86914 0.00041 0.0
H512 H 0.24776 0.92098 0.91708 0.0
H513 H 0.22667 0.02411 0.05345 0.0
H514 H 0.26867 0.07109 0.08025 0.0
H515 H 0.24867 0.02684 0.1296 0.0
H516 H 0.31964 0.03426 0.13639 0.0
H517 H 0.3399 0.07862 0.08722 0.0
H518 H 0.34629 0.03681 0.0649 0.0
H519 H 0.26989 0.98077 0.84912 0.0
H520 H 0.29745 0.04769 0.79924 0.0
H521 H 0.31965 0.1035 0.98347 0.0
C522 C 0.25215 0.95212 0.09352 0.0
C523 C 0.23689 0.91121 0.07746 0.0
C524 C 0.23591 0.90038 0.01355 0.0
C525 C 0.24908 0.92954 0.96592 0.0
C526 C 0.26391 0.96955 0.98305 0.0
C527 C 0.26628 0.98115 0.0452 0.0
C528 C 0.28516 0.02663 0.0502 0.0
C529 C 0.25552 0.03782 0.08015 0.0
C530 C 0.32513 0.04517 0.08685 0.0
C531 C 0.29238 0.03851 0.98111 0.0
C532 C 0.2793 0.00488 0.94341 0.0
C533 C 0.28072 0.00743 0.87802 0.0
C534 C 0.29621 0.04548 0.85017 0.0
C535 C 0.31078 0.08052 0.88762 0.0
C536 C 0.30908 0.07709 0.95397 0.0
H537 H 0.29622 0.26151 0.64015 0.0
H538 H 0.36452 0.23507 0.5039 0.0
H539 H 0.34137 0.26223 0.41915 0.0
H540 H 0.21136 0.23535 0.54469 0.0
H541 H 0.20366 0.27573 0.57069 0.0
H542 H 0.22728 0.25637 0.62228 0.0
H543 H 0.28926 0.32818 0.63417 0.0
H544 H 0.26572 0.34784 0.58287 0.0
H545 H 0.31546 0.35646 0.56475 0.0
H546 H 0.30594 0.28517 0.3479 0.0
H547 H 0.26478 0.30931 0.29453 0.0
H548 H 0.22252 0.32566 0.47572 0.0
C549 C 0.30665 0.26188 0.5926 0.0
C550 C 0.33217 0.24607 0.57881 0.0
C551 C 0.34517 0.24715 0.51591 0.0
C552 C 0.33212 0.26244 0.46725 0.0
C553 C 0.30654 0.27715 0.48222 0.0
C554 C 0.29438 0.27766 0.54333 0.0
C555 C 0.26636 0.29489 0.54597 0.0
C556 C 0.2247 0.26371 0.57247 0.0
C557 C 0.28535 0.33418 0.5842 0.0
C558 C 0.26396 0.30294 0.47661 0.0
C559 C 0.28729 0.29226 0.44082 0.0
C560 C 0.28806 0.29429 0.37535 0.0
C561 C 0.26444 0.30778 0.3455 0.0
C562 C 0.24084 0.31954 0.38116 0.0
C563 C 0.24087 0.31742 0.44757 0.0
H564 H 0.89537 0.21628 0.97777 0.0
H565 H 0.95297 0.24676 0.7941 0.0
H566 H 0.01974 0.28667 0.84475 0.0
H567 H 0.9603 0.30981 0.05543 0.0
H568 H 0.96175 0.28685 0.12882 0.0
H569 H 0.91822 0.2616 0.07847 0.0
H570 H 0.92594 0.1982 0.07625 0.0
H571 H 0.96928 0.22313 0.12703 0.0
H572 H 0.97345 0.20316 0.05244 0.0
H573 H 0.07914 0.32639 0.91446 0.0
H574 H 0.12959 0.35555 -0.00049 0.0
H575 H 0.03478 0.29391 0.1388 0.0
C576 C 0.92215 0.23137 0.94847 0.0
C577 C 0.91931 0.22882 0.88219 0.0
C578 C 0.95478 0.24836 0.84502 0.0
C579 C 0.99269 0.27124 0.87331 0.0
C580 C 0.99454 0.27347 0.93878 0.0
C581 C 0.96039 0.2534 0.97603 0.0
C582 C 0.97116 0.25908 0.04538 0.0
C583 C 0.9517 0.28062 0.07899 0.0
C584 C 0.95926 0.21848 0.07713 0.0
C585 C 0.01664 0.28587 0.04121 0.0
C586 C 0.02932 0.29433 0.97923 0.0
C587 C 0.06969 0.31968 0.96317 0.0
C588 C 0.09804 0.33629 0.01175 0.0
C589 C 0.08597 0.32684 0.07548 0.0
C590 C 0.04473 0.30135 0.09036 0.0
H591 H 0.66659 0.89294 0.48647 0.0
H592 H 0.6515 0.94547 0.31503 0.0
H593 H 0.67132 0.00906 0.37146 0.0
H594 H 0.63545 0.94622 0.60032 0.0
H595 H 0.67402 0.9535 0.65603 0.0
H596 H 0.65222 0.90997 0.60536 0.0
H597 H 0.72369 0.92941 0.56506 0.0
H598 H 0.74565 0.97301 0.61529 0.0
H599 H 0.75564 0.97889 0.53182 0.0
H600 H 0.69725 0.06759 0.44267 0.0
H601 H 0.73257 0.12013 0.52223 0.0
H602 H 0.7357 0.03171 0.64717 0.0
C603 C 0.66643 0.91757 0.46163 0.0
C604 C 0.65694 0.9145 0.397 0.0
C605 C 0.65836 0.9475 0.36483 0.0
C606 C 0.66937 0.98352 0.3965 0.0
C607 C 0.67935 0.98604 0.46003 0.0
C608 C 0.67829 0.95414 0.49229 0.0
C609 C 0.69501 0.96648 0.55829 0.0
C610 C 0.66221 0.94262 0.60793 0.0
C611 C 0.7322 0.96167 0.56815 0.0
C612 C 0.70651 0.01052 0.5574 0.0
C613 C 0.69636 0.0208 0.5007 0.0
C614 C 0.70508 0.05991 0.4875 0.0
C615 C 0.72524 0.08957 0.53315 0.0
C616 C 0.73706 0.08016 0.59111 0.0
C617 C 0.72704 0.0399 0.6035 0.0
loop_
_geom_bond_atom_site_label_1
_geom_bond_atom_site_label_2
_geom_bond_distance
_geom_bond_site_symmetry_2
_ccdc_geom_bond_type
Sc0 O3 2.025 . S
Sc0 O10 2.105 . S
Sc0 O13 2.105 . S
Sc0 O16 2.105 . S
Sc0 O19 2.105 . S
Sc1 O3 2.025 . S
Sc1 O11 2.105 . S
Sc1 O15 2.105 . S
Sc1 O17 2.105 . S
Sc1 O21 2.105 . S
Sc2 O3 2.025 . S
Sc2 O12 2.105 . S
Sc2 O14 2.105 . S
Sc2 O18 2.105 . S
Sc2 O20 2.105 . S
O3 Sc0 2.025 . S
O3 Sc1 2.025 . S
O3 Sc2 2.025 . S
C4 O10 1.268 . S
C4 O20 1.268 . S
C5 O11 1.268 . S
C5 O19 1.268 . S
C6 O12 1.268 . S
C6 O21 1.268 . S
C7 O13 1.268 . S
C7 O17 1.268 . S
C8 O14 1.268 . S
C8 O16 1.268 . S
C9 O15 1.268 . S
C9 O18 1.268 . S
O10 Sc0 2.105 . S
O10 C4 1.268 . S
O11 Sc1 2.105 . S
O11 C5 1.268 . S
O12 Sc2 2.105 . S
O12 C6 1.268 . S
O13 Sc0 2.105 . S
O13 C7 1.268 . S
O14 Sc2 2.105 . S
O14 C8 1.268 . S
O15 Sc1 2.105 . S
O15 C9 1.268 . S
O16 Sc0 2.105 . S
O16 C8 1.268 . S
O17 Sc1 2.105 . S
O17 C7 1.268 . S
O18 Sc2 2.105 . S
O18 C9 1.268 . S
O19 Sc0 2.105 . S
O19 C5 1.268 . S
O20 Sc2 2.105 . S
O20 C4 1.268 . S
O21 Sc1 2.105 . S
O21 C6 1.268 . S
Sc22 O25 2.025 . S
Sc22 O32 2.105 . S
Sc22 O35 2.105 . S
Sc22 O38 2.105 . S
Sc22 O41 2.105 . S
Sc23 O25 2.025 . S
Sc23 O33 2.105 . S
Sc23 O37 2.105 . S
Sc23 O39 2.105 . S
Sc23 O43 2.105 . S
Sc24 O25 2.025 . S
Sc24 O34 2.105 . S
Sc24 O36 2.105 . S
Sc24 O40 2.105 . S
Sc24 O42 2.105 . S
O25 Sc22 2.025 . S
O25 Sc23 2.025 . S
O25 Sc24 2.025 . S
C26 O32 1.268 . S
C26 O42 1.268 . S
C27 O33 1.268 . S
C27 O41 1.268 . S
C28 O34 1.268 . S
C28 O43 1.268 . S
C29 O35 1.268 . S
C29 O39 1.268 . S
C30 O36 1.268 . S
C30 O38 1.268 . S
C31 O37 1.268 . S
C31 O40 1.268 . S
O32 Sc22 2.105 . S
O32 C26 1.268 . S
O33 Sc23 2.105 . S
O33 C27 1.268 . S
O34 Sc24 2.105 . S
O34 C28 1.268 . S
O35 Sc22 2.105 . S
O35 C29 1.268 . S
O36 Sc24 2.105 . S
O36 C30 1.268 . S
O37 Sc23 2.105 . S
O37 C31 1.268 . S
O38 Sc22 2.105 . S
O38 C30 1.268 . S
O39 Sc23 2.105 . S
O39 C29 1.268 . S
O40 Sc24 2.105 . S
O40 C31 1.268 . S
O41 Sc22 2.105 . S
O41 C27 1.268 . S
O42 Sc24 2.105 . S
O42 C26 1.268 . S
O43 Sc23 2.105 . S
O43 C28 1.268 . S
Sc44 O47 2.025 . S
Sc44 O54 2.105 . S
Sc44 O57 2.105 . S
Sc44 O60 2.105 . S
Sc44 O63 2.105 . S
Sc45 O47 2.025 . S
Sc45 O55 2.105 . S
Sc45 O59 2.105 . S
Sc45 O61 2.105 . S
Sc45 O65 2.105 . S
Sc46 O47 2.025 . S
Sc46 O56 2.105 . S
Sc46 O58 2.105 . S
Sc46 O62 2.105 . S
Sc46 O64 2.105 . S
O47 Sc44 2.025 . S
O47 Sc45 2.025 . S
O47 Sc46 2.025 . S
C48 O54 1.268 . S
C48 O64 1.268 . S
C49 O55 1.268 . S
C49 O63 1.268 . S
C50 O56 1.268 . S
C50 O65 1.268 . S
C51 O57 1.268 . S
C51 O61 1.268 . S
C52 O58 1.268 . S
C52 O60 1.268 . S
C53 O59 1.268 . S
C53 O62 1.268 . S
O54 Sc44 2.105 . S
O54 C48 1.268 . S
O55 Sc45 2.105 . S
O55 C49 1.268 . S
O56 Sc46 2.105 . S
O56 C50 1.268 . S
O57 Sc44 2.105 . S
O57 C51 1.268 . S
O58 Sc46 2.105 . S
O58 C52 1.268 . S
O59 Sc45 2.105 . S
O59 C53 1.268 . S
O60 Sc44 2.105 . S
O60 C52 1.268 . S
O61 Sc45 2.105 . S
O61 C51 1.268 . S
O62 Sc46 2.105 . S
O62 C53 1.268 . S
O63 Sc44 2.105 . S
O63 C49 1.268 . S
O64 Sc46 2.105 . S
O64 C48 1.268 . S
O65 Sc45 2.105 . S
O65 C50 1.268 . S
Sc66 O69 2.025 . S
Sc66 O76 2.105 . S
Sc66 O79 2.105 . S
Sc66 O82 2.105 . S
Sc66 O85 2.105 . S
Sc67 O69 2.025 . S
Sc67 O77 2.105 . S
Sc67 O81 2.105 . S
Sc67 O83 2.105 . S
Sc67 O87 2.105 . S
Sc68 O69 2.025 . S
Sc68 O78 2.105 . S
Sc68 O80 2.105 . S
Sc68 O84 2.105 . S
Sc68 O86 2.105 . S
O69 Sc66 2.025 . S
O69 Sc67 2.025 . S
O69 Sc68 2.025 . S
C70 O76 1.268 . S
C70 O86 1.268 . S
C71 O77 1.268 . S
C71 O85 1.268 . S
C72 O78 1.268 . S
C72 O87 1.268 . S
C73 O79 1.268 . S
C73 O83 1.268 . S
C74 O80 1.268 . S
C74 O82 1.268 . S
C75 O81 1.268 . S
C75 O84 1.268 . S
O76 Sc66 2.105 . S
O76 C70 1.268 . S
O77 Sc67 2.105 . S
O77 C71 1.268 . S
O78 Sc68 2.105 . S
O78 C72 1.268 . S
O79 Sc66 2.105 . S
O79 C73 1.268 . S
O80 Sc68 2.105 . S
O80 C74 1.268 . S
O81 Sc67 2.105 . S
O81 C75 1.268 . S
O82 Sc66 2.105 . S
O82 C74 1.268 . S
O83 Sc67 2.105 . S
O83 C73 1.268 . S
O84 Sc68 2.105 . S
O84 C75 1.268 . S
O85 Sc66 2.105 . S
O85 C71 1.268 . S
O86 Sc68 2.105 . S
O86 C70 1.268 . S
O87 Sc67 2.105 . S
O87 C72 1.268 . S
Sc88 O91 2.025 . S
Sc88 O98 2.105 . S
Sc88 O101 2.105 . S
Sc88 O104 2.105 . S
Sc88 O107 2.105 . S
Sc89 O91 2.025 . S
Sc89 O99 2.105 . S
Sc89 O103 2.105 . S
Sc89 O105 2.105 . S
Sc89 O109 2.105 . S
Sc90 O91 2.025 . S
Sc90 O100 2.105 . S
Sc90 O102 2.105 . S
Sc90 O106 2.105 . S
Sc90 O108 2.105 . S
O91 Sc88 2.025 . S
O91 Sc89 2.025 . S
O91 Sc90 2.025 . S
C92 O98 1.268 . S
C92 O108 1.268 . S
C93 O99 1.268 . S
C93 O107 1.268 . S
C94 O100 1.268 . S
C94 O109 1.268 . S
C95 O101 1.268 . S
C95 O105 1.268 . S
C96 O102 1.268 . S
C96 O104 1.268 . S
C97 O103 1.268 . S
C97 O106 1.268 . S
O98 Sc88 2.105 . S
O98 C92 1.268 . S
O99 Sc89 2.105 . S
O99 C93 1.268 . S
O100 Sc90 2.105 . S
O100 C94 1.268 . S
O101 Sc88 2.105 . S
O101 C95 1.268 . S
O102 Sc90 2.105 . S
O102 C96 1.268 . S
O103 Sc89 2.105 . S
O103 C97 1.268 . S
O104 Sc88 2.105 . S
O104 C96 1.268 . S
O105 Sc89 2.105 . S
O105 C95 1.268 . S
O106 Sc90 2.105 . S
O106 C97 1.268 . S
O107 Sc88 2.105 . S
O107 C93 1.268 . S
O108 Sc90 2.105 . S
O108 C92 1.268 . S
O109 Sc89 2.105 . S
O109 C94 1.268 . S
Sc110 O113 2.025 . S
Sc110 O120 2.105 . S
Sc110 O123 2.105 . S
Sc110 O126 2.105 . S
Sc110 O129 2.105 . S
Sc111 O113 2.025 . S
Sc111 O121 2.105 . S
Sc111 O125 2.105 . S
Sc111 O127 2.105 . S
Sc111 O131 2.105 . S
Sc112 O113 2.025 . S
Sc112 O122 2.105 . S
Sc112 O124 2.105 . S
Sc112 O128 2.105 . S
Sc112 O130 2.105 . S
O113 Sc110 2.025 . S
O113 Sc111 2.025 . S
O113 Sc112 2.025 . S
C114 O120 1.268 . S
C114 O130 1.268 . S
C115 O121 1.268 . S
C115 O129 1.268 . S
C116 O122 1.268 . S
C116 O131 1.268 . S
C117 O123 1.268 . S
C117 O127 1.268 . S
C118 O124 1.268 . S
C118 O126 1.268 . S
C119 O125 1.268 . S
C119 O128 1.268 . S
O120 Sc110 2.105 . S
O120 C114 1.268 . S
O121 Sc111 2.105 . S
O121 C115 1.268 . S
O122 Sc112 2.105 . S
O122 C116 1.268 . S
O123 Sc110 2.105 . S
O123 C117 1.268 . S
O124 Sc112 2.105 . S
O124 C118 1.268 . S
O125 Sc111 2.105 . S
O125 C119 1.268 . S
O126 Sc110 2.105 . S
O126 C118 1.268 . S
O127 Sc111 2.105 . S
O127 C117 1.268 . S
O128 Sc112 2.105 . S
O128 C119 1.268 . S
O129 Sc110 2.105 . S
O129 C115 1.268 . S
O130 Sc112 2.105 . S
O130 C114 1.268 . S
O131 Sc111 2.105 . S
O131 C116 1.268 . S
H132 C144 0.930 . S
H133 C146 0.930 . S
H134 C147 0.930 . S
H135 C151 0.959 . S
H136 C151 0.959 . S
H137 C151 0.961 . S
H138 C152 0.960 . S
H139 C152 0.961 . S
H140 C152 0.959 . S
H141 C155 0.929 . S
H142 C156 0.931 . S
H143 C158 0.930 . S
C144 H132 0.930 . S
C144 C145 1.399 . S
C144 C149 1.399 . S
C145 C144 1.399 . S
C145 C146 1.376 . S
C146 H133 0.930 . S
C146 C145 1.376 . S
C146 C147 1.388 . S
C147 H134 0.930 . S
C147 C146 1.388 . S
C147 C148 1.390 . S
C148 C147 1.390 . S
C148 C149 1.394 . S
C148 C154 1.465 . S
C149 C144 1.399 . S
C149 C148 1.394 . S
C149 C150 1.516 . S
C150 C149 1.516 . S
C150 C151 1.502 . S
C150 C152 1.561 . S
C150 C153 1.526 . S
C151 H135 0.959 . S
C151 H136 0.959 . S
C151 H137 0.961 . S
C151 C150 1.502 . S
C152 H138 0.960 . S
C152 H139 0.961 . S
C152 H140 0.959 . S
C152 C150 1.561 . S
C153 C150 1.526 . S
C153 C154 1.396 . S
C153 C158 1.390 . S
C154 C148 1.465 . S
C154 C153 1.396 . S
C154 C155 1.399 . S
C155 H141 0.929 . S
C155 C154 1.399 . S
C155 C156 1.385 . S
C156 H142 0.931 . S
C156 C155 1.385 . S
C156 C157 1.389 . S
C157 C156 1.389 . S
C157 C158 1.387 . S
C158 H143 0.930 . S
C158 C153 1.390 . S
C158 C157 1.387 . S
H159 C171 0.930 . S
H160 C173 0.930 . S
H161 C174 0.930 . S
H162 C178 0.959 . S
H163 C178 0.959 . S
H164 C178 0.961 . S
H165 C179 0.960 . S
H166 C179 0.961 . S
H167 C179 0.959 . S
H168 C182 0.929 . S
H169 C183 0.931 . S
H170 C185 0.930 . S
C171 H159 0.930 . S
C171 C172 1.399 . S
C171 C176 1.399 . S
C172 C171 1.399 . S
C172 C173 1.376 . S
C173 H160 0.930 . S
C173 C172 1.376 . S
C173 C174 1.388 . S
C174 H161 0.930 . S
C174 C173 1.388 . S
C174 C175 1.390 . S
C175 C174 1.390 . S
C175 C176 1.394 . S
C175 C181 1.465 . S
C176 C171 1.399 . S
C176 C175 1.394 . S
C176 C177 1.516 . S
C177 C176 1.516 . S
C177 C178 1.502 . S
C177 C179 1.561 . S
C177 C180 1.526 . S
C178 H162 0.959 . S
C178 H163 0.959 . S
C178 H164 0.961 . S
C178 C177 1.502 . S
C179 H165 0.960 . S
C179 H166 0.961 . S
C179 H167 0.959 . S
C179 C177 1.561 . S
C180 C177 1.526 . S
C180 C181 1.396 . S
C180 C185 1.390 . S
C181 C175 1.465 . S
C181 C180 1.396 . S
C181 C182 1.399 . S
C182 H168 0.929 . S
C182 C181 1.399 . S
C182 C183 1.385 . S
C183 H169 0.931 . S
C183 C182 1.385 . S
C183 C184 1.389 . S
C184 C183 1.389 . S
C184 C185 1.387 . S
C185 H170 0.930 . S
C185 C180 1.390 . S
C185 C184 1.387 . S
H186 C198 0.930 . S
H187 C200 0.930 . S
H188 C201 0.930 . S
H189 C205 0.959 . S
H190 C205 0.959 . S
H191 C205 0.961 . S
H192 C206 0.960 . S
H193 C206 0.961 . S
H194 C206 0.959 . S
H195 C209 0.929 . S
H196 C210 0.931 . S
H197 C212 0.930 . S
C198 H186 0.930 . S
C198 C199 1.399 . S
C198 C203 1.399 . S
C199 C198 1.399 . S
C199 C200 1.376 . S
C200 H187 0.930 . S
C200 C199 1.376 . S
C200 C201 1.388 . S
C201 H188 0.930 . S
C201 C200 1.388 . S
C201 C202 1.390 . S
C202 C201 1.390 . S
C202 C203 1.394 . S
C202 C208 1.465 . S
C203 C198 1.399 . S
C203 C202 1.394 . S
C203 C204 1.516 . S
C204 C203 1.516 . S
C204 C205 1.502 . S
C204 C206 1.561 . S
C204 C207 1.526 . S
C205 H189 0.959 . S
C205 H190 0.959 . S
C205 H191 0.961 . S
C205 C204 1.502 . S
C206 H192 0.960 . S
C206 H193 0.961 . S
C206 H194 0.959 . S
C206 C204 1.561 . S
C207 C204 1.526 . S
C207 C208 1.396 . S
C207 C212 1.390 . S
C208 C202 1.465 . S
C208 C207 1.396 . S
C208 C209 1.399 . S
C209 H195 0.929 . S
C209 C208 1.399 . S
C209 C210 1.385 . S
C210 H196 0.931 . S
C210 C209 1.385 . S
C210 C211 1.389 . S
C211 C210 1.389 . S
C211 C212 1.387 . S
C212 H197 0.930 . S
C212 C207 1.390 . S
C212 C211 1.387 . S
H213 C225 0.930 . S
H214 C227 0.930 . S
H215 C228 0.930 . S
H216 C232 0.959 . S
H217 C232 0.959 . S
H218 C232 0.961 . S
H219 C233 0.960 . S
H220 C233 0.961 . S
H221 C233 0.959 . S
H222 C236 0.929 . S
H223 C237 0.931 . S
H224 C239 0.930 . S
C225 H213 0.930 . S
C225 C226 1.399 . S
C225 C230 1.399 . S
C226 C225 1.399 . S
C226 C227 1.376 . S
C227 H214 0.930 . S
C227 C226 1.376 . S
C227 C228 1.388 . S
C228 H215 0.930 . S
C228 C227 1.388 . S
C228 C229 1.390 . S
C229 C228 1.390 . S
C229 C230 1.394 . S
C229 C235 1.465 . S
C230 C225 1.399 . S
C230 C229 1.394 . S
C230 C231 1.516 . S
C231 C230 1.516 . S
C231 C232 1.502 . S
C231 C233 1.561 . S
C231 C234 1.526 . S
C232 H216 0.959 . S
C232 H217 0.959 . S
C232 H218 0.961 . S
C232 C231 1.502 . S
C233 H219 0.960 . S
C233 H220 0.961 . S
C233 H221 0.959 . S
C233 C231 1.561 . S
C234 C231 1.526 . S
C234 C235 1.396 . S
C234 C239 1.390 . S
C235 C229 1.465 . S
C235 C234 1.396 . S
C235 C236 1.399 . S
C236 H222 0.929 . S
C236 C235 1.399 . S
C236 C237 1.385 . S
C237 H223 0.931 . S
C237 C236 1.385 . S
C237 C238 1.389 . S
C238 C237 1.389 . S
C238 C239 1.387 . S
C239 H224 0.930 . S
C239 C234 1.390 . S
C239 C238 1.387 . S
H240 C252 0.930 . S
H241 C254 0.930 . S
H242 C255 0.930 . S
H243 C259 0.959 . S
H244 C259 0.959 . S
H245 C259 0.961 . S
H246 C260 0.960 . S
H247 C260 0.961 . S
H248 C260 0.959 . S
H249 C263 0.929 . S
H250 C264 0.931 . S
H251 C266 0.930 . S
C252 H240 0.930 . S
C252 C253 1.399 . S
C252 C257 1.399 . S
C253 C252 1.399 . S
C253 C254 1.376 . S
C254 H241 0.930 . S
C254 C253 1.376 . S
C254 C255 1.388 . S
C255 H242 0.930 . S
C255 C254 1.388 . S
C255 C256 1.390 . S
C256 C255 1.390 . S
C256 C257 1.394 . S
C256 C262 1.465 . S
C257 C252 1.399 . S
C257 C256 1.394 . S
C257 C258 1.516 . S
C258 C257 1.516 . S
C258 C259 1.502 . S
C258 C260 1.561 . S
C258 C261 1.526 . S
C259 H243 0.959 . S
C259 H244 0.959 . S
C259 H245 0.961 . S
C259 C258 1.502 . S
C260 H246 0.960 . S
C260 H247 0.961 . S
C260 H248 0.959 . S
C260 C258 1.561 . S
C261 C258 1.526 . S
C261 C262 1.396 . S
C261 C266 1.390 . S
C262 C256 1.465 . S
C262 C261 1.396 . S
C262 C263 1.399 . S
C263 H249 0.929 . S
C263 C262 1.399 . S
C263 C264 1.385 . S
C264 H250 0.931 . S
C264 C263 1.385 . S
C264 C265 1.389 . S
C265 C264 1.389 . S
C265 C266 1.387 . S
C266 H251 0.930 . S
C266 C261 1.390 . S
C266 C265 1.387 . S
H267 C279 0.930 . S
H268 C281 0.930 . S
H269 C282 0.930 . S
H270 C286 0.959 . S
H271 C286 0.959 . S
H272 C286 0.961 . S
H273 C287 0.960 . S
H274 C287 0.961 . S
H275 C287 0.959 . S
H276 C290 0.929 . S
H277 C291 0.931 . S
H278 C293 0.930 . S
C279 H267 0.930 . S
C279 C280 1.399 . S
C279 C284 1.399 . S
C280 C279 1.399 . S
C280 C281 1.376 . S
C281 H268 0.930 . S
C281 C280 1.376 . S
C281 C282 1.388 . S
C282 H269 0.930 . S
C282 C281 1.388 . S
C282 C283 1.390 . S
C283 C282 1.390 . S
C283 C284 1.394 . S
C283 C289 1.465 . S
C284 C279 1.399 . S
C284 C283 1.394 . S
C284 C285 1.516 . S
C285 C284 1.516 . S
C285 C286 1.502 . S
C285 C287 1.561 . S
C285 C288 1.526 . S
C286 H270 0.959 . S
C286 H271 0.959 . S
C286 H272 0.961 . S
C286 C285 1.502 . S
C287 H273 0.960 . S
C287 H274 0.961 . S
C287 H275 0.959 . S
C287 C285 1.561 . S
C288 C285 1.526 . S
C288 C289 1.396 . S
C288 C293 1.390 . S
C289 C283 1.465 . S
C289 C288 1.396 . S
C289 C290 1.399 . S
C290 H276 0.929 . S
C290 C289 1.399 . S
C290 C291 1.385 . S
C291 H277 0.931 . S
C291 C290 1.385 . S
C291 C292 1.389 . S
C292 C291 1.389 . S
C292 C293 1.387 . S
C293 H278 0.930 . S
C293 C288 1.390 . S
C293 C292 1.387 . S
H294 C306 0.930 . S
H295 C308 0.930 . S
H296 C309 0.930 . S
H297 C313 0.959 . S
H298 C313 0.959 . S
H299 C313 0.961 . S
H300 C314 0.960 . S
H301 C314 0.961 . S
H302 C314 0.959 . S
H303 C317 0.929 . S
H304 C318 0.931 . S
H305 C320 0.930 . S
C306 H294 0.930 . S
C306 C307 1.399 . S
C306 C311 1.399 . S
C307 C306 1.399 . S
C307 C308 1.376 . S
C308 H295 0.930 . S
C308 C307 1.376 . S
C308 C309 1.388 . S
C309 H296 0.930 . S
C309 C308 1.388 . S
C309 C310 1.390 . S
C310 C309 1.390 . S
C310 C311 1.394 . S
C310 C316 1.465 . S
C311 C306 1.399 . S
C311 C310 1.394 . S
C311 C312 1.516 1_556 S
C312 C311 1.516 1_554 S
C312 C313 1.502 . S
C312 C314 1.561 . S
C312 C315 1.526 . S
C313 H297 0.959 . S
C313 H298 0.959 . S
C313 H299 0.961 . S
C313 C312 1.502 . S
C314 H300 0.960 . S
C314 H301 0.961 . S
C314 H302 0.959 . S
C314 C312 1.561 . S
C315 C312 1.526 . S
C315 C316 1.396 1_554 S
C315 C320 1.390 . S
C316 C310 1.465 . S
C316 C315 1.396 1_556 S
C316 C317 1.399 . S
C317 H303 0.929 . S
C317 C316 1.399 . S
C317 C318 1.385 1_556 S
C318 H304 0.931 . S
C318 C317 1.385 1_554 S
C318 C319 1.389 . S
C319 C318 1.389 . S
C319 C320 1.387 . S
C320 H305 0.930 . S
C320 C315 1.390 . S
C320 C319 1.387 . S
H321 C333 0.930 . S
H322 C335 0.930 . S
H323 C336 0.930 . S
H324 C340 0.959 . S
H325 C340 0.959 . S
H326 C340 0.961 . S
H327 C341 0.960 . S
H328 C341 0.961 . S
H329 C341 0.959 . S
H330 C344 0.929 . S
H331 C345 0.931 . S
H332 C347 0.930 . S
C333 H321 0.930 . S
C333 C334 1.399 . S
C333 C338 1.399 . S
C334 C333 1.399 . S
C334 C335 1.376 . S
C335 H322 0.930 . S
C335 C334 1.376 . S
C335 C336 1.388 . S
C336 H323 0.930 . S
C336 C335 1.388 . S
C336 C337 1.390 . S
C337 C336 1.390 . S
C337 C338 1.394 . S
C337 C343 1.465 1_655 S
C338 C333 1.399 . S
C338 C337 1.394 . S
C338 C339 1.516 1_655 S
C339 C338 1.516 1_455 S
C339 C340 1.502 . S
C339 C341 1.561 . S
C339 C342 1.526 . S
C340 H324 0.959 . S
C340 H325 0.959 . S
C340 H326 0.961 . S
C340 C339 1.502 . S
C341 H327 0.960 . S
C341 H328 0.961 . S
C341 H329 0.959 . S
C341 C339 1.561 . S
C342 C339 1.526 . S
C342 C343 1.396 . S
C342 C347 1.390 . S
C343 C337 1.465 1_455 S
C343 C342 1.396 . S
C343 C344 1.399 . S
C344 H330 0.929 . S
C344 C343 1.399 . S
C344 C345 1.385 . S
C345 H331 0.931 . S
C345 C344 1.385 . S
C345 C346 1.389 . S
C346 C345 1.389 . S
C346 C347 1.387 . S
C347 H332 0.930 . S
C347 C342 1.390 . S
C347 C346 1.387 . S
H348 C360 0.930 . S
H349 C362 0.930 . S
H350 C363 0.930 . S
H351 C367 0.959 1_566 S
H352 C367 0.959 1_565 S
H353 C367 0.961 . S
H354 C368 0.960 . S
H355 C368 0.961 . S
H356 C368 0.959 . S
H357 C371 0.936 . S
H358 C372 0.931 . S
H359 C374 0.930 . S
C360 H348 0.930 . S
C360 C361 1.399 . S
C360 C365 1.399 . S
C361 C360 1.399 . S
C361 C362 1.376 . S
C362 H349 0.930 . S
C362 C361 1.376 . S
C362 C363 1.388 . S
C363 H350 0.930 . S
C363 C362 1.388 . S
C363 C364 1.390 . S
C364 C363 1.390 . S
C364 C365 1.394 . S
C364 C370 1.465 1_546 S
C365 C360 1.399 . S
C365 C364 1.394 . S
C365 C366 1.516 1_556 S
C366 C365 1.516 1_554 S
C366 C367 1.502 . S
C366 C368 1.561 . S
C366 C369 1.526 1_545 S
C367 H351 0.959 1_544 S
C367 H352 0.959 1_545 S
C367 H353 0.961 . S
C367 C366 1.502 . S
C368 H354 0.960 . S
C368 H355 0.961 . S
C368 H356 0.959 . S
C368 C366 1.561 . S
C369 C366 1.526 1_565 S
C369 C370 1.396 . S
C369 C374 1.390 . S
C370 C364 1.465 1_564 S
C370 C369 1.396 . S
C370 C371 1.399 . S
C371 H357 0.936 . S
C371 C370 1.399 . S
C371 C372 1.385 . S
C372 H358 0.931 . S
C372 C371 1.385 . S
C372 C373 1.389 . S
C373 C372 1.389 . S
C373 C374 1.387 . S
C374 H359 0.930 . S
C374 C369 1.390 . S
C374 C373 1.387 . S
H375 C387 0.930 . S
H376 C389 0.930 . S
H377 C390 0.930 . S
H378 C394 0.959 . S
H379 C394 0.959 . S
H380 C394 0.961 . S
H381 C395 0.960 . S
H382 C395 0.961 . S
H383 C395 0.959 . S
H384 C398 0.929 . S
H385 C399 0.931 . S
H386 C401 0.930 . S
C387 H375 0.930 . S
C387 C388 1.399 . S
C387 C392 1.399 . S
C388 C387 1.399 . S
C388 C389 1.376 . S
C389 H376 0.930 . S
C389 C388 1.376 . S
C389 C390 1.388 . S
C390 H377 0.930 . S
C390 C389 1.388 . S
C390 C391 1.390 . S
C391 C390 1.390 . S
C391 C392 1.394 . S
C391 C397 1.465 . S
C392 C387 1.399 . S
C392 C391 1.394 . S
C392 C393 1.516 . S
C393 C392 1.516 . S
C393 C394 1.502 . S
C393 C395 1.561 . S
C393 C396 1.526 . S
C394 H378 0.959 . S
C394 H379 0.959 . S
C394 H380 0.961 . S
C394 C393 1.502 . S
C395 H381 0.960 . S
C395 H382 0.961 . S
C395 H383 0.959 . S
C395 C393 1.561 . S
C396 C393 1.526 . S
C396 C397 1.396 . S
C396 C401 1.390 . S
C397 C391 1.465 . S
C397 C396 1.396 . S
C397 C398 1.399 . S
C398 H384 0.929 . S
C398 C397 1.399 . S
C398 C399 1.385 . S
C399 H385 0.931 . S
C399 C398 1.385 . S
C399 C400 1.389 . S
C400 C399 1.389 . S
C400 C401 1.387 . S
C401 H386 0.930 . S
C401 C396 1.390 . S
C401 C400 1.387 . S
H402 C414 0.930 . S
H403 C416 0.930 . S
H404 C417 0.930 1_455 S
H405 C421 0.959 . S
H406 C421 0.959 . S
H407 C421 0.961 . S
H408 C422 0.960 . S
H409 C422 0.961 . S
H410 C422 0.956 1_456 S
H411 C425 0.929 . S
H412 C426 0.931 . S
H413 C428 0.930 . S
C414 H402 0.930 . S
C414 C415 1.399 . S
C414 C419 1.399 . S
C415 C414 1.399 . S
C415 C416 1.376 . S
C416 H403 0.930 . S
C416 C415 1.376 . S
C416 C417 1.388 . S
C417 H404 0.930 1_655 S
C417 C416 1.388 . S
C417 C418 1.390 . S
C418 C417 1.390 . S
C418 C419 1.394 . S
C418 C424 1.477 1_655 S
C419 C414 1.399 . S
C419 C418 1.394 . S
C419 C420 1.516 1_556 S
C420 C419 1.516 1_554 S
C420 C421 1.502 . S
C420 C422 1.561 . S
C420 C423 1.526 1_655 S
C421 H405 0.959 . S
C421 H406 0.959 . S
C421 H407 0.961 . S
C421 C420 1.502 . S
C422 H408 0.960 . S
C422 H409 0.961 . S
C422 H410 0.956 1_654 S
C422 C420 1.561 . S
C423 C420 1.526 1_455 S
C423 C424 1.381 1_554 S
C423 C428 1.390 . S
C424 C418 1.477 1_455 S
C424 C423 1.381 1_556 S
C424 C425 1.400 . S
C425 H411 0.929 . S
C425 C424 1.400 . S
C425 C426 1.385 1_556 S
C426 H412 0.931 . S
C426 C425 1.385 1_554 S
C426 C427 1.389 . S
C427 C426 1.389 . S
C427 C428 1.387 . S
C428 H413 0.930 . S
C428 C423 1.390 . S
C428 C427 1.387 . S
H429 C441 0.930 . S
H430 C443 0.930 . S
H431 C444 0.930 1_565 S
H432 C448 0.959 . S
H433 C448 0.959 . S
H434 C448 0.961 . S
H435 C449 0.960 . S
H436 C449 0.961 1_565 S
H437 C449 0.959 1_565 S
H438 C452 0.929 . S
H439 C453 0.931 . S
H440 C455 0.930 . S
C441 H429 0.930 . S
C441 C442 1.399 . S
C441 C446 1.399 . S
C442 C441 1.399 . S
C442 C443 1.376 . S
C443 H430 0.930 . S
C443 C442 1.376 . S
C443 C444 1.388 . S
C444 H431 0.930 1_545 S
C444 C443 1.388 . S
C444 C445 1.390 . S
C445 C444 1.390 . S
C445 C446 1.394 . S
C445 C451 1.465 1_545 S
C446 C441 1.399 . S
C446 C445 1.394 . S
C446 C447 1.516 . S
C447 C446 1.516 . S
C447 C448 1.502 . S
C447 C449 1.561 . S
C447 C450 1.526 1_545 S
C448 H432 0.959 . S
C448 H433 0.959 . S
C448 H434 0.961 . S
C448 C447 1.502 . S
C449 H435 0.960 . S
C449 H436 0.961 1_545 S
C449 H437 0.959 1_545 S
C449 C447 1.561 . S
C450 C447 1.526 1_565 S
C450 C451 1.396 . S
C450 C455 1.390 . S
C451 C445 1.465 1_565 S
C451 C450 1.396 . S
C451 C452 1.399 . S
C452 H438 0.929 . S
C452 C451 1.399 . S
C452 C453 1.385 . S
C453 H439 0.931 . S
C453 C452 1.385 . S
C453 C454 1.389 . S
C454 C453 1.389 . S
C454 C455 1.387 . S
C455 H440 0.930 . S
C455 C450 1.390 . S
C455 C454 1.387 . S
H456 C468 0.930 . S
H457 C470 0.930 . S
H458 C471 0.930 1_556 S
H459 C475 0.959 . S
H460 C475 0.959 . S
H461 C475 0.961 . S
H462 C476 0.960 . S
H463 C476 0.960 1_556 S
H464 C476 0.959 1_556 S
H465 C479 0.929 . S
H466 C480 0.931 . S
H467 C482 0.930 . S
C468 H456 0.930 . S
C468 C469 1.399 . S
C468 C473 1.399 . S
C469 C468 1.399 . S
C469 C470 1.376 . S
C470 H457 0.930 . S
C470 C469 1.376 . S
C470 C471 1.388 . S
C471 H458 0.930 1_554 S
C471 C470 1.388 . S
C471 C472 1.390 . S
C472 C471 1.390 . S
C472 C473 1.394 . S
C472 C478 1.465 1_554 S
C473 C468 1.399 . S
C473 C472 1.394 . S
C473 C474 1.516 . S
C474 C473 1.516 . S
C474 C475 1.502 . S
C474 C476 1.561 . S
C474 C477 1.526 1_554 S
C475 H459 0.959 . S
C475 H460 0.959 . S
C475 H461 0.961 . S
C475 C474 1.502 . S
C476 H462 0.960 . S
C476 H463 0.960 1_554 S
C476 H464 0.959 1_554 S
C476 C474 1.561 . S
C477 C474 1.526 1_556 S
C477 C478 1.396 . S
C477 C482 1.390 . S
C478 C472 1.465 1_556 S
C478 C477 1.396 . S
C478 C479 1.399 . S
C479 H465 0.929 . S
C479 C478 1.399 . S
C479 C480 1.385 . S
C480 H466 0.931 . S
C480 C479 1.385 . S
C480 C481 1.389 . S
C481 C480 1.389 . S
C481 C482 1.387 . S
C482 H467 0.930 . S
C482 C477 1.390 . S
C482 C481 1.387 . S
H483 C495 0.930 . S
H484 C497 0.930 . S
H485 C498 0.930 . S
H486 C502 0.959 . S
H487 C502 0.959 . S
H488 C502 0.961 . S
H489 C503 0.960 . S
H490 C503 0.961 . S
H491 C503 0.959 . S
H492 C506 0.929 1_655 S
H493 C507 0.931 . S
H494 C509 0.930 . S
C495 H483 0.930 . S
C495 C496 1.399 . S
C495 C500 1.399 . S
C496 C495 1.399 . S
C496 C497 1.376 . S
C497 H484 0.930 . S
C497 C496 1.376 . S
C497 C498 1.388 . S
C498 H485 0.930 . S
C498 C497 1.388 . S
C498 C499 1.390 . S
C499 C498 1.390 . S
C499 C500 1.394 . S
C499 C505 1.465 1_655 S
C500 C495 1.399 . S
C500 C499 1.394 . S
C500 C501 1.516 1_655 S
C501 C500 1.516 1_455 S
C501 C502 1.502 . S
C501 C503 1.561 . S
C501 C504 1.526 . S
C502 H486 0.959 . S
C502 H487 0.959 . S
C502 H488 0.961 . S
C502 C501 1.502 . S
C503 H489 0.960 . S
C503 H490 0.961 . S
C503 H491 0.959 . S
C503 C501 1.561 . S
C504 C501 1.526 . S
C504 C505 1.396 . S
C504 C509 1.390 . S
C505 C499 1.465 1_455 S
C505 C504 1.396 . S
C505 C506 1.399 . S
C506 H492 0.929 1_455 S
C506 C505 1.399 . S
C506 C507 1.385 . S
C507 H493 0.931 . S
C507 C506 1.385 . S
C507 C508 1.389 . S
C508 C507 1.389 . S
C508 C509 1.387 . S
C509 H494 0.930 . S
C509 C504 1.390 . S
C509 C508 1.387 . S
H510 C522 0.930 . S
H511 C524 0.930 . S
H512 C525 0.930 . S
H513 C529 0.959 . S
H514 C529 0.959 . S
H515 C529 0.961 . S
H516 C530 0.960 . S
H517 C530 0.961 . S
H518 C530 0.959 . S
H519 C533 0.929 1_565 S
H520 C534 0.931 . S
H521 C536 0.930 . S
C522 H510 0.930 . S
C522 C523 1.399 . S
C522 C527 1.399 . S
C523 C522 1.399 . S
C523 C524 1.376 . S
C524 H511 0.930 . S
C524 C523 1.376 . S
C524 C525 1.388 1_554 S
C525 H512 0.930 . S
C525 C524 1.388 1_556 S
C525 C526 1.390 . S
C526 C525 1.390 . S
C526 C527 1.394 1_556 S
C526 C532 1.465 1_565 S
C527 C522 1.399 . S
C527 C526 1.394 1_554 S
C527 C528 1.516 1_565 S
C528 C527 1.516 1_545 S
C528 C529 1.502 . S
C528 C530 1.561 . S
C528 C531 1.526 1_554 S
C529 H513 0.959 . S
C529 H514 0.959 . S
C529 H515 0.961 . S
C529 C528 1.502 . S
C530 H516 0.960 . S
C530 H517 0.961 . S
C530 H518 0.959 . S
C530 C528 1.561 . S
C531 C528 1.526 1_556 S
C531 C532 1.396 . S
C531 C536 1.390 . S
C532 C526 1.465 1_545 S
C532 C531 1.396 . S
C532 C533 1.399 . S
C533 H519 0.929 1_545 S
C533 C532 1.399 . S
C533 C534 1.385 . S
C534 H520 0.931 . S
C534 C533 1.385 . S
C534 C535 1.389 . S
C535 C534 1.389 . S
C535 C536 1.387 . S
C536 H521 0.930 . S
C536 C531 1.390 . S
C536 C535 1.387 . S
H537 C549 0.930 . S
H538 C551 0.930 . S
H539 C552 0.930 . S
H540 C556 0.959 . S
H541 C556 0.959 . S
H542 C556 0.961 . S
H543 C557 0.960 . S
H544 C557 0.961 . S
H545 C557 0.959 . S
H546 C560 0.929 . S
H547 C561 0.931 . S
H548 C563 0.930 . S
C549 H537 0.930 . S
C549 C550 1.399 . S
C549 C554 1.399 . S
C550 C549 1.399 . S
C550 C551 1.376 . S
C551 H538 0.930 . S
C551 C550 1.376 . S
C551 C552 1.388 . S
C552 H539 0.930 . S
C552 C551 1.388 . S
C552 C553 1.390 . S
C553 C552 1.390 . S
C553 C554 1.394 . S
C553 C559 1.465 . S
C554 C549 1.399 . S
C554 C553 1.394 . S
C554 C555 1.516 . S
C555 C554 1.516 . S
C555 C556 1.502 . S
C555 C557 1.561 . S
C555 C558 1.526 . S
C556 H540 0.959 . S
C556 H541 0.959 . S
C556 H542 0.961 . S
C556 C555 1.502 . S
C557 H543 0.960 . S
C557 H544 0.961 . S
C557 H545 0.959 . S
C557 C555 1.561 . S
C558 C555 1.526 . S
C558 C559 1.396 . S
C558 C563 1.390 . S
C559 C553 1.465 . S
C559 C558 1.396 . S
C559 C560 1.399 . S
C560 H546 0.929 . S
C560 C559 1.399 . S
C560 C561 1.385 . S
C561 H547 0.931 . S
C561 C560 1.385 . S
C561 C562 1.389 . S
C562 C561 1.389 . S
C562 C563 1.387 . S
C563 H548 0.930 . S
C563 C558 1.390 . S
C563 C562 1.387 . S
H564 C576 0.930 . S
H565 C578 0.930 . S
H566 C579 0.930 1_455 S
H567 C583 0.959 . S
H568 C583 0.959 . S
H569 C583 0.961 . S
H570 C584 0.960 . S
H571 C584 0.961 . S
H572 C584 0.959 1_455 S
H573 C587 0.929 . S
H574 C588 0.931 . S
H575 C590 0.930 . S
C576 H564 0.930 . S
C576 C577 1.399 . S
C576 C581 1.399 . S
C577 C576 1.399 . S
C577 C578 1.376 . S
C578 H565 0.930 . S
C578 C577 1.376 . S
C578 C579 1.388 . S
C579 H566 0.930 1_655 S
C579 C578 1.388 . S
C579 C580 1.390 . S
C580 C579 1.390 . S
C580 C581 1.394 . S
C580 C586 1.465 1_655 S
C581 C576 1.399 . S
C581 C580 1.394 . S
C581 C582 1.516 1_556 S
C582 C581 1.516 1_554 S
C582 C583 1.502 . S
C582 C584 1.561 . S
C582 C585 1.526 1_655 S
C583 H567 0.959 . S
C583 H568 0.959 . S
C583 H569 0.961 . S
C583 C582 1.502 . S
C584 H570 0.960 . S
C584 H571 0.961 . S
C584 H572 0.959 1_655 S
C584 C582 1.561 . S
C585 C582 1.526 1_455 S
C585 C586 1.396 1_554 S
C585 C590 1.390 . S
C586 C580 1.465 1_455 S
C586 C585 1.396 1_556 S
C586 C587 1.399 . S
C587 H573 0.929 . S
C587 C586 1.399 . S
C587 C588 1.385 1_556 S
C588 H574 0.931 . S
C588 C587 1.385 1_554 S
C588 C589 1.389 . S
C589 C588 1.389 . S
C589 C590 1.387 . S
C590 H575 0.930 . S
C590 C585 1.390 . S
C590 C589 1.387 . S
H591 C603 0.930 . S
H592 C605 0.930 . S
H593 C606 0.930 1_545 S
H594 C610 0.959 . S
H595 C610 0.959 . S
H596 C610 0.961 . S
H597 C611 0.960 . S
H598 C611 0.961 . S
H599 C611 0.959 . S
H600 C614 0.929 . S
H601 C615 0.931 . S
H602 C617 0.930 . S
C603 H591 0.930 . S
C603 C604 1.399 . S
C603 C608 1.399 . S
C604 C603 1.399 . S
C604 C605 1.376 . S
C605 H592 0.930 . S
C605 C604 1.376 . S
C605 C606 1.388 . S
C606 H593 0.930 1_565 S
C606 C605 1.388 . S
C606 C607 1.390 . S
C607 C606 1.390 . S
C607 C608 1.394 . S
C607 C613 1.465 1_565 S
C608 C603 1.399 . S
C608 C607 1.394 . S
C608 C609 1.516 . S
C609 C608 1.516 . S
C609 C610 1.502 . S
C609 C611 1.561 . S
C609 C612 1.526 1_565 S
C610 H594 0.959 . S
C610 H595 0.959 . S
C610 H596 0.961 . S
C610 C609 1.502 . S
C611 H597 0.960 . S
C611 H598 0.961 . S
C611 H599 0.959 . S
C611 C609 1.561 . S
C612 C609 1.526 1_545 S
C612 C613 1.396 . S
C612 C617 1.390 . S
C613 C607 1.465 1_545 S
C613 C612 1.396 . S
C613 C614 1.399 . S
C614 H600 0.929 . S
C614 C613 1.399 . S
C614 C615 1.385 . S
C615 H601 0.931 . S
C615 C614 1.385 . S
C615 C616 1.389 . S
C616 C615 1.389 . S
C616 C617 1.387 . S
C617 H602 0.930 . S
C617 C612 1.390 . S
C617 C616 1.387 . S
C145 C5 1.307 . S
C157 C94 1.318 . S
C172 C28 1.362 . S
C184 C116 1.350 . S
C199 C7 1.363 . S
C211 C50 1.352 . S
C226 C72 1.373 . S
C238 C31 1.365 . S
C253 C53 1.378 . S
C265 C97 1.375 . S
C280 C75 1.368 . S
C292 C119 1.358 . S
C307 C117 1.570 . S
C319 C8 1.535 . S
C334 C29 1.531 . S
C346 C6 1.545 . S
C361 C26 1.566 . S
C373 C51 1.560 . S
C388 C48 1.541 . S
C400 C73 1.535 . S
C415 C70 1.562 . S
C427 C92 1.530 . S
C442 C114 1.559 . S
C454 C95 1.529 . S
C469 C49 1.529 . S
C481 C74 1.551 . S
C496 C71 1.543 . S
C508 C93 1.568 . S
C523 C96 1.547 . S
C535 C115 1.570 . S
C550 C118 1.547 . S
C562 C9 1.570 . S
C577 C30 1.568 . S
C589 C4 1.544 . S
C604 C52 1.554 . S
C616 C27 1.532 . S
